
     RDKit          3D

 19 21  0  0  0  0  0  0  0  0999 V2000
    0.1197    0.6796    0.8241 C   0  0  0  0  0  0  0  0  0  0  0  0
   -0.3469    1.6040   -0.2618 C   0  0  0  0  0  0  0  0  0  0  0  0
   -0.8916    0.1799   -0.1721 C   0  0  0  0  0  0  0  0  0  0  0  0
   -0.1117   -0.2150   -1.4456 C   0  0  0  0  0  0  0  0  0  0  0  0
   -0.7987   -0.8166   -2.5135 O   0  0  0  0  0  0  0  0  0  0  0  0
   -1.5665    0.0603   -3.3251 C   0  0  0  0  0  0  0  0  0  0  0  0
   -0.7174    1.2406   -3.7529 C   0  0  0  0  0  0  0  0  0  0  0  0
   -0.3658    2.0082   -2.6151 O   0  0  0  0  0  0  0  0  0  0  0  0
    0.3241    1.2941   -1.6022 C   0  0  0  0  0  0  0  0  0  0  0  0
    1.1323    0.2790    0.8204 H   0  0  0  0  0  0  0  0  0  0  0  0
   -0.2613    0.9035    1.8151 H   0  0  0  0  0  0  0  0  0  0  0  0
   -0.8345    2.5497   -0.0594 H   0  0  0  0  0  0  0  0  0  0  0  0
   -1.8725   -0.1819    0.1104 H   0  0  0  0  0  0  0  0  0  0  0  0
    0.7241   -0.8907   -1.2330 H   0  0  0  0  0  0  0  0  0  0  0  0
   -1.8941   -0.5326   -4.1843 H   0  0  0  0  0  0  0  0  0  0  0  0
   -2.4549    0.4261   -2.7877 H   0  0  0  0  0  0  0  0  0  0  0  0
    0.1764    0.8792   -4.2867 H   0  0  0  0  0  0  0  0  0  0  0  0
   -1.2728    1.9115   -4.4154 H   0  0  0  0  0  0  0  0  0  0  0  0
    1.4045    1.4831   -1.6925 H   0  0  0  0  0  0  0  0  0  0  0  0
  1  2  1  0
  2  3  1  0
  3  4  1  0
  4  5  1  0
  5  6  1  0
  6  7  1  0
  7  8  1  0
  8  9  1  0
  3  1  1  0
  9  4  1  0
  9  2  1  0
  1 10  1  0
  1 11  1  0
  2 12  1  0
  3 13  1  0
  4 14  1  0
  6 15  1  0
  6 16  1  0
  7 17  1  0
  7 18  1  0
  9 19  1  0
M  END
$$$$
