gdb 2790	2.7321021	1.4161436	1.1918795	2.2315	74.83	-0.20976	0.06018	0.26994	1109.8356	0.155336	-422.469376	-422.460565	-422.459621	-422.50242	34.177
 OpenBabel02181911413D

 19 21  0  0  1  0  0  0  0  0999 V2000
   -0.2875   -0.0526    0.0072 C   0  0  0  0  0  0  0  0  0  0  0  0
    1.2340    0.0257    0.1286 C   0  0  1  0  0  0  0  0  0  0  0  0
    2.1255    1.1837    0.5177 C   0  0  2  0  0  0  0  0  0  0  0  0
    2.1195   -0.1019    1.3457 C   0  0  1  0  0  0  0  0  0  0  0  0
    1.7186    0.7340    2.5896 C   0  0  2  0  0  0  0  0  0  0  0  0
    2.3206    0.5408    3.8295 O   0  0  0  0  0  0  0  0  0  0  0  0
    0.4661    1.5691    2.5021 C   0  0  1  0  0  0  0  0  0  0  0  0
    0.1943    2.2825    3.6723 O   0  0  0  0  0  0  0  0  0  0  0  0
    1.7314    2.0085    1.7729 C   0  0  2  0  0  0  0  0  0  0  0  0
   -0.7508   -0.5272    0.8764 H   0  0  0  0  0  0  0  0  0  0  0  0
   -0.7425    0.9325   -0.1263 H   0  0  0  0  0  0  0  0  0  0  0  0
   -0.5563   -0.6523   -0.8676 H   0  0  0  0  0  0  0  0  0  0  0  0
    1.7205   -0.5040   -0.6908 H   0  0  0  0  0  0  0  0  0  0  0  0
    2.9050    1.5331   -0.1490 H   0  0  0  0  0  0  0  0  0  0  0  0
    2.9018   -0.8484    1.4225 H   0  0  0  0  0  0  0  0  0  0  0  0
    1.9351   -0.2518    4.2262 H   0  0  0  0  0  0  0  0  0  0  0  0
   -0.4487    1.2820    2.0021 H   0  0  0  0  0  0  0  0  0  0  0  0
    0.8823    2.0403    4.3082 H   0  0  0  0  0  0  0  0  0  0  0  0
    2.1692    2.9693    2.0108 H   0  0  0  0  0  0  0  0  0  0  0  0
  1  2  1  0  0  0  0
  1 10  1  0  0  0  0
  2 13  1  6  0  0  0
  2  3  1  0  0  0  0
  2  4  1  0  0  0  0
  3 14  1  6  0  0  0
  3  4  1  0  0  0  0
  3  9  1  0  0  0  0
  4 15  1  1  0  0  0
  4  5  1  0  0  0  0
  5  6  1  1  0  0  0
  6 16  1  0  0  0  0
  7 17  1  6  0  0  0
  7  5  1  0  0  0  0
  7  8  1  0  0  0  0
  8 18  1  0  0  0  0
  9 19  1  1  0  0  0
  9  7  1  0  0  0  0
  9  5  1  0  0  0  0
 11  1  1  0  0  0  0
 12  1  1  0  0  0  0
M TOR 0 0 1 2 3
M TOR 1 0 1 2 8
M TOR 2 0 1 2 13
M TOR 3 0 1 3 4
M TOR 4 0 1 3 14
M TOR 5 1 2 3 4
M TOR 6 1 2 3 14
M TOR 7 1 2 8 4
M TOR 8 1 2 8 6
M TOR 9 1 2 8 18
M TOR 10 1 3 2 8
M TOR 11 1 3 2 13
M TOR 12 1 3 4 5
M TOR 13 1 3 4 6
M TOR 14 1 3 4 8
M TOR 15 2 1 0 9
M TOR 16 2 1 0 10
M TOR 17 2 1 0 11
M TOR 18 2 3 1 12
M TOR 19 2 3 4 5
M TOR 20 2 3 4 6
M TOR 21 2 3 4 8
M TOR 22 2 8 4 5
M TOR 23 2 8 4 6
M TOR 24 2 8 6 7
M TOR 25 2 8 6 16
M TOR 26 3 1 0 9
M TOR 27 3 1 0 10
M TOR 28 3 1 0 11
M TOR 29 3 2 8 6
M TOR 30 3 2 8 18
M TOR 31 3 4 5 15
M TOR 32 3 4 6 7
M TOR 33 3 4 6 8
M TOR 34 3 4 6 16
M TOR 35 3 4 8 18
M TOR 36 4 3 1 12
M TOR 37 4 3 2 13
M TOR 38 4 6 7 17
M TOR 39 4 6 8 18
M TOR 40 4 8 2 13
M TOR 41 4 8 6 7
M TOR 42 4 8 6 16
M TOR 43 5 4 3 14
M TOR 44 5 4 6 7
M TOR 45 5 4 6 8
M TOR 46 5 4 6 16
M TOR 47 5 4 8 18
M TOR 48 6 4 3 14
M TOR 49 6 4 5 15
M TOR 50 6 8 2 13
M TOR 51 7 6 8 18
M TOR 52 8 2 1 12
M TOR 53 8 2 3 14
M TOR 54 8 4 3 14
M TOR 55 8 4 5 15
M TOR 56 8 6 7 17
M  END
$$$$
