
     RDKit          3D

 19 21  0  0  0  0  0  0  0  0999 V2000
    0.0787   -1.8674    0.5790 C   0  0  0  0  0  0  0  0  0  0  0  0
    1.5653   -1.7620    0.9242 C   0  0  0  0  0  0  0  0  0  0  0  0
    2.0580   -0.3399    1.1808 C   0  0  0  0  0  0  0  0  0  0  0  0
    3.4220   -0.3838    1.9254 C   0  0  0  0  0  0  0  0  0  0  0  0
    3.1019    0.8423    2.6687 O   0  0  0  0  0  0  0  0  0  0  0  0
    1.8663    0.0417    2.6799 C   0  0  0  0  0  0  0  0  0  0  0  0
    2.6690   -1.2593    2.9695 C   0  0  0  0  0  0  0  0  0  0  0  0
    1.9842   -2.4317    2.2799 C   0  0  0  0  0  0  0  0  0  0  0  0
    0.8284   -2.8822    2.9768 O   0  0  0  0  0  0  0  0  0  0  0  0
   -0.5458   -1.4132    1.3520 H   0  0  0  0  0  0  0  0  0  0  0  0
   -0.1238   -1.3595   -0.3696 H   0  0  0  0  0  0  0  0  0  0  0  0
   -0.2307   -2.9110    0.4801 H   0  0  0  0  0  0  0  0  0  0  0  0
    2.1459   -2.2104    0.1088 H   0  0  0  0  0  0  0  0  0  0  0  0
    1.9068    0.4354    0.4299 H   0  0  0  0  0  0  0  0  0  0  0  0
    4.4314   -0.4918    1.5263 H   0  0  0  0  0  0  0  0  0  0  0  0
    0.9990    0.4511    3.1964 H   0  0  0  0  0  0  0  0  0  0  0  0
    3.1151   -1.3886    3.9568 H   0  0  0  0  0  0  0  0  0  0  0  0
    2.6741   -3.2716    2.1122 H   0  0  0  0  0  0  0  0  0  0  0  0
    1.1108   -3.2124    3.8353 H   0  0  0  0  0  0  0  0  0  0  0  0
  1  2  1  0
  2  3  1  0
  3  4  1  0
  4  5  1  0
  5  6  1  0
  6  7  1  0
  7  8  1  0
  8  9  1  0
  8  2  1  0
  6  3  1  0
  7  4  1  0
  1 10  1  0
  1 11  1  0
  1 12  1  0
  2 13  1  0
  3 14  1  0
  4 15  1  0
  6 16  1  0
  7 17  1  0
  8 18  1  0
  9 19  1  0
M  END
$$$$
