gdb 2114	2.7757551	1.6830713	1.3023757	1.2515	74.45	-0.23708	0.07833	0.31541	1021.0991	0.156842	-422.539027	-422.531056	-422.530111	-422.570767	31.952
 OpenBabel02181911403D

 19 21  0  0  1  0  0  0  0  0999 V2000
    0.0359    0.1617    0.2152 C   0  0  0  0  0  0  0  0  0  0  0  0
    1.4730   -0.1535   -0.1164 C   0  0  1  0  0  0  0  0  0  0  0  0
    1.9623   -1.6453   -0.0137 C   0  0  0  0  0  0  0  0  0  0  0  0
    3.2354   -1.1040    0.6357 C   0  0  1  0  0  0  0  0  0  0  0  0
    4.0245   -1.7853    1.5436 O   0  0  0  0  0  0  0  0  0  0  0  0
    3.7545    0.1031   -0.1369 C   0  0  1  0  0  0  0  0  0  0  0  0
    3.2157    0.3581   -1.5388 C   0  0  0  0  0  0  0  0  0  0  0  0
    1.7945    0.3939   -1.3966 O   0  0  0  0  0  0  0  0  0  0  0  0
    2.6214    0.2607    0.8442 C   0  0  1  0  0  0  0  0  0  0  0  0
   -0.2266   -0.2280    1.2024 H   0  0  0  0  0  0  0  0  0  0  0  0
   -0.1263    1.2439    0.2099 H   0  0  0  0  0  0  0  0  0  0  0  0
   -0.6336   -0.2878   -0.5245 H   0  0  0  0  0  0  0  0  0  0  0  0
    1.3720   -2.2143    0.7102 H   0  0  0  0  0  0  0  0  0  0  0  0
    2.0323   -2.2016   -0.9548 H   0  0  0  0  0  0  0  0  0  0  0  0
    4.6396   -2.3425    1.0538 H   0  0  0  0  0  0  0  0  0  0  0  0
    4.7412    0.4518    0.1445 H   0  0  0  0  0  0  0  0  0  0  0  0
    3.5541    1.3230   -1.9356 H   0  0  0  0  0  0  0  0  0  0  0  0
    3.5072   -0.4239   -2.2546 H   0  0  0  0  0  0  0  0  0  0  0  0
    2.5939    0.9250    1.6973 H   0  0  0  0  0  0  0  0  0  0  0  0
  1 10  1  0  0  0  0
  2  3  1  0  0  0  0
  2  1  1  1  0  0  0
  2  9  1  0  0  0  0
  3  4  1  0  0  0  0
  3 13  1  0  0  0  0
  4  9  1  0  0  0  0
  4  5  1  1  0  0  0
  6 16  1  1  0  0  0
  6  4  1  0  0  0  0
  6  9  1  0  0  0  0
  7  8  1  0  0  0  0
  7  6  1  0  0  0  0
  8  2  1  0  0  0  0
  9 19  1  1  0  0  0
 11  1  1  0  0  0  0
 12  1  1  0  0  0  0
 14  3  1  0  0  0  0
 15  5  1  0  0  0  0
 17  7  1  0  0  0  0
 18  7  1  0  0  0  0
M TOR 0 0 1 2 3
M TOR 1 0 1 2 12
M TOR 2 0 1 2 13
M TOR 3 0 1 7 6
M TOR 4 0 1 8 3
M TOR 5 0 1 8 5
M TOR 6 0 1 8 18
M TOR 7 1 2 3 4
M TOR 8 1 2 3 5
M TOR 9 1 2 3 8
M TOR 10 1 7 6 5
M TOR 11 1 7 6 16
M TOR 12 1 7 6 17
M TOR 13 1 8 3 4
M TOR 14 1 8 3 5
M TOR 15 1 8 5 6
M TOR 16 1 8 5 15
M TOR 17 2 1 0 9
M TOR 18 2 1 0 10
M TOR 19 2 1 0 11
M TOR 20 2 1 7 6
M TOR 21 2 1 8 5
M TOR 22 2 1 8 18
M TOR 23 2 3 4 14
M TOR 24 2 3 5 6
M TOR 25 2 3 5 8
M TOR 26 2 3 5 15
M TOR 27 2 3 8 18
M TOR 28 3 2 1 7
M TOR 29 3 5 6 7
M TOR 30 3 5 6 16
M TOR 31 3 5 6 17
M TOR 32 3 5 8 18
M TOR 33 3 8 1 7
M TOR 34 3 8 5 6
M TOR 35 3 8 5 15
M TOR 36 4 3 2 12
M TOR 37 4 3 2 13
M TOR 38 4 3 5 6
M TOR 39 4 3 5 8
M TOR 40 4 3 5 15
M TOR 41 4 3 8 18
M TOR 42 5 3 2 12
M TOR 43 5 3 2 13
M TOR 44 5 3 4 14
M TOR 45 5 8 1 7
M TOR 46 6 5 8 18
M TOR 47 6 7 1 8
M TOR 48 7 1 0 9
M TOR 49 7 1 0 10
M TOR 50 7 1 0 11
M TOR 51 7 1 2 12
M TOR 52 7 1 2 13
M TOR 53 7 1 8 18
M TOR 54 7 6 5 8
M TOR 55 7 6 5 15
M TOR 56 8 1 0 9
M TOR 57 8 1 0 10
M TOR 58 8 1 0 11
M TOR 59 8 1 2 12
M TOR 60 8 1 2 13
M TOR 61 8 3 2 12
M TOR 62 8 3 2 13
M TOR 63 8 3 4 14
M TOR 64 8 5 6 16
M TOR 65 8 5 6 17
M  END
$$$$
