
     RDKit          3D

 19 19  0  0  0  0  0  0  0  0999 V2000
    5.9945    1.7208    1.7166 O   0  0  0  0  0  0  0  0  0  0  0  0
    5.1750    2.6618    1.0211 C   0  0  0  0  0  0  0  0  0  0  0  0
    4.2883    1.8576    0.1072 C   0  0  0  0  0  0  0  0  0  0  0  0
    5.0214    1.0468   -0.7698 O   0  0  0  0  0  0  0  0  0  0  0  0
    3.0259    2.4374   -0.4462 C   0  0  0  0  0  0  0  0  0  0  0  0
    2.9504    1.3518    0.6103 C   0  0  0  0  0  0  0  0  0  0  0  0
    2.4815   -0.0446    0.2333 C   0  0  0  0  0  0  0  0  0  0  0  0
    1.0291   -0.1543    0.1358 C   0  0  0  0  0  0  0  0  0  0  0  0
   -0.1687   -0.2277    0.0655 C   0  0  0  0  0  0  0  0  0  0  0  0
    6.7628    2.1817    2.0643 H   0  0  0  0  0  0  0  0  0  0  0  0
    4.5696    3.2597    1.7177 H   0  0  0  0  0  0  0  0  0  0  0  0
    5.7922    3.3470    0.4219 H   0  0  0  0  0  0  0  0  0  0  0  0
    5.6825    0.6100   -0.2162 H   0  0  0  0  0  0  0  0  0  0  0  0
    2.7470    3.4515   -0.1801 H   0  0  0  0  0  0  0  0  0  0  0  0
    2.7823    2.1546   -1.4648 H   0  0  0  0  0  0  0  0  0  0  0  0
    2.6570    1.6718    1.6061 H   0  0  0  0  0  0  0  0  0  0  0  0
    2.9459   -0.3282   -0.7176 H   0  0  0  0  0  0  0  0  0  0  0  0
    2.8495   -0.7650    0.9760 H   0  0  0  0  0  0  0  0  0  0  0  0
   -1.2254   -0.3013   -0.0033 H   0  0  0  0  0  0  0  0  0  0  0  0
  1  2  1  0
  2  3  1  0
  3  4  1  0
  3  5  1  0
  5  6  1  0
  6  7  1  0
  7  8  1  0
  8  9  3  0
  6  3  1  0
  1 10  1  0
  2 11  1  0
  2 12  1  0
  4 13  1  0
  5 14  1  0
  5 15  1  0
  6 16  1  0
  7 17  1  0
  7 18  1  0
  9 19  1  0
M  END
$$$$
