gdb 1987	2.4749563	1.8427349	1.3843523	1.2081	74.47	-0.2391	0.06672	0.30582	1001.8032	0.155371	-422.505755	-422.497302	-422.496357	-422.538095	32.974
 OpenBabel02181911403D

 19 21  0  0  1  0  0  0  0  0999 V2000
    0.0252    0.3030    0.2104 C   0  0  0  0  0  0  0  0  0  0  0  0
    1.4920    0.0254    0.2059 C   0  0  1  0  0  0  0  0  0  0  0  0
    2.2575    0.3142   -0.9701 O   0  0  0  0  0  0  0  0  0  0  0  0
    2.6939    0.8794    0.2812 C   0  0  2  0  0  0  0  0  0  0  0  0
    3.5000   -0.2017    1.0377 C   0  0  2  0  0  0  0  0  0  0  0  0
    4.2885   -1.2241    0.1652 C   0  0  0  0  0  0  0  0  0  0  0  0
    3.0342   -2.1552    0.1180 C   0  0  0  0  0  0  0  0  0  0  0  0
    2.2452   -1.1184    0.9725 C   0  0  2  0  0  0  0  0  0  0  0  0
    1.6516   -1.5174    2.1743 O   0  0  0  0  0  0  0  0  0  0  0  0
   -0.3655    0.2406    1.2305 H   0  0  0  0  0  0  0  0  0  0  0  0
   -0.1788    1.3013   -0.1859 H   0  0  0  0  0  0  0  0  0  0  0  0
   -0.5145   -0.4233   -0.4092 H   0  0  0  0  0  0  0  0  0  0  0  0
    2.8030    1.9588    0.3085 H   0  0  0  0  0  0  0  0  0  0  0  0
    3.9043    0.1006    2.0031 H   0  0  0  0  0  0  0  0  0  0  0  0
    4.6087   -0.8405   -0.8040 H   0  0  0  0  0  0  0  0  0  0  0  0
    5.1453   -1.6635    0.6797 H   0  0  0  0  0  0  0  0  0  0  0  0
    2.6330   -2.3627   -0.8757 H   0  0  0  0  0  0  0  0  0  0  0  0
    3.1706   -3.0924    0.6636 H   0  0  0  0  0  0  0  0  0  0  0  0
    0.9200   -2.1102    1.9666 H   0  0  0  0  0  0  0  0  0  0  0  0
  1 10  1  0  0  0  0
  2  1  1  1  0  0  0
  2  4  1  0  0  0  0
  2  8  1  0  0  0  0
  3  2  1  0  0  0  0
  3  4  1  0  0  0  0
  4 13  1  1  0  0  0
  4  5  1  0  0  0  0
  5 14  1  1  0  0  0
  6 16  1  0  0  0  0
  6  5  1  0  0  0  0
  7  6  1  0  0  0  0
  7 18  1  0  0  0  0
  7  8  1  0  0  0  0
  8  5  1  0  0  0  0
  8  9  1  1  0  0  0
 11  1  1  0  0  0  0
 12  1  1  0  0  0  0
 15  6  1  0  0  0  0
 17  7  1  0  0  0  0
 19  9  1  0  0  0  0
M TOR 0 0 1 2 3
M TOR 1 0 1 3 4
M TOR 2 0 1 3 12
M TOR 3 0 1 7 4
M TOR 4 0 1 7 6
M TOR 5 0 1 7 8
M TOR 6 1 2 3 4
M TOR 7 1 2 3 12
M TOR 8 1 3 4 5
M TOR 9 1 3 4 7
M TOR 10 1 3 4 13
M TOR 11 1 7 4 5
M TOR 12 1 7 4 13
M TOR 13 1 7 6 5
M TOR 14 1 7 6 16
M TOR 15 1 7 6 17
M TOR 16 1 7 8 18
M TOR 17 2 1 0 9
M TOR 18 2 1 0 10
M TOR 19 2 1 0 11
M TOR 20 2 1 7 4
M TOR 21 2 1 7 6
M TOR 22 2 1 7 8
M TOR 23 2 3 1 7
M TOR 24 2 3 4 5
M TOR 25 2 3 4 7
M TOR 26 2 3 4 13
M TOR 27 3 1 0 9
M TOR 28 3 1 0 10
M TOR 29 3 1 0 11
M TOR 30 3 1 7 6
M TOR 31 3 1 7 8
M TOR 32 3 4 5 6
M TOR 33 3 4 5 14
M TOR 34 3 4 5 15
M TOR 35 3 4 7 6
M TOR 36 3 4 7 8
M TOR 37 4 5 6 7
M TOR 38 4 5 6 16
M TOR 39 4 5 6 17
M TOR 40 4 7 6 16
M TOR 41 4 7 6 17
M TOR 42 4 7 8 18
M TOR 43 5 4 3 12
M TOR 44 5 4 7 8
M TOR 45 5 6 7 8
M TOR 46 6 5 4 13
M TOR 47 6 7 4 13
M TOR 48 6 7 8 18
M TOR 49 7 1 0 9
M TOR 50 7 1 0 10
M TOR 51 7 1 0 11
M TOR 52 7 1 3 12
M TOR 53 7 4 3 12
M TOR 54 7 4 5 14
M TOR 55 7 4 5 15
M TOR 56 7 6 5 14
M TOR 57 7 6 5 15
M TOR 58 8 7 4 13
M TOR 59 8 7 6 16
M TOR 60 8 7 6 17
M  END
$$$$
