
     RDKit          3D

 19 20  0  0  0  0  0  0  0  0999 V2000
   -1.0993    2.7279    0.0623 O   0  0  0  0  0  0  0  0  0  0  0  0
   -0.1763    1.6604   -0.0650 C   0  0  0  0  0  0  0  0  0  0  0  0
   -0.3437    0.6861    1.0851 C   0  0  0  0  0  0  0  0  0  0  0  0
    0.1066    1.1338    2.5160 C   0  0  0  0  0  0  0  0  0  0  0  0
    0.9099   -0.1886    2.6904 C   0  0  0  0  0  0  0  0  0  0  0  0
    0.3780   -0.7068    1.3324 C   0  0  0  0  0  0  0  0  0  0  0  0
   -1.0087   -1.4148    1.4060 C   0  0  0  0  0  0  0  0  0  0  0  0
   -1.6709   -0.0601    1.1055 C   0  0  0  0  0  0  0  0  0  0  0  0
   -2.7921    0.2881    0.8413 O   0  0  0  0  0  0  0  0  0  0  0  0
   -1.9772    2.3277    0.1222 H   0  0  0  0  0  0  0  0  0  0  0  0
   -0.2950    1.1334   -1.0266 H   0  0  0  0  0  0  0  0  0  0  0  0
    0.8253    2.1056   -0.0588 H   0  0  0  0  0  0  0  0  0  0  0  0
    0.7226    2.0352    2.4857 H   0  0  0  0  0  0  0  0  0  0  0  0
   -0.7030    1.3049    3.2290 H   0  0  0  0  0  0  0  0  0  0  0  0
    1.9904   -0.0275    2.6921 H   0  0  0  0  0  0  0  0  0  0  0  0
    0.6580   -0.8025    3.5595 H   0  0  0  0  0  0  0  0  0  0  0  0
    1.0896   -1.1330    0.6258 H   0  0  0  0  0  0  0  0  0  0  0  0
   -1.1960   -2.1435    0.6106 H   0  0  0  0  0  0  0  0  0  0  0  0
   -1.2756   -1.8771    2.3613 H   0  0  0  0  0  0  0  0  0  0  0  0
  1  2  1  0
  2  3  1  0
  3  4  1  0
  4  5  1  0
  5  6  1  0
  6  7  1  0
  7  8  1  0
  8  9  2  0
  6  3  1  0
  8  3  1  0
  1 10  1  0
  2 11  1  0
  2 12  1  0
  4 13  1  0
  4 14  1  0
  5 15  1  0
  5 16  1  0
  6 17  1  0
  7 18  1  0
  7 19  1  0
M  END
$$$$
