gdb 551	3.4066816	1.6807129	1.5106092	2.1903	72.64	-0.23323	0.0787	0.31193	929.0401	0.160958	-422.552121	-422.545645	-422.544701	-422.58268	26.871
 OpenBabel02181911403D

 19 21  0  0  1  0  0  0  0  0999 V2000
   -0.5011    1.1689   -0.0448 C   0  0  0  0  0  0  0  0  0  0  0  0
   -0.1133   -0.2258   -0.0755 O   0  0  0  0  0  0  0  0  0  0  0  0
    1.2836    0.1112    0.0719 C   0  0  2  0  0  0  0  0  0  0  0  0
    0.9654    1.6344    0.0117 C   0  0  1  0  0  0  0  0  0  0  0  0
    1.6543    2.0703   -1.2980 C   0  0  1  0  0  0  0  0  0  0  0  0
    3.1645    1.9617   -1.0166 C   0  0  0  0  0  0  0  0  0  0  0  0
    3.3963    0.5422   -0.8877 O   0  0  0  0  0  0  0  0  0  0  0  0
    2.1439   -0.1022   -1.1841 C   0  0  2  0  0  0  0  0  0  0  0  0
    1.4904    0.8302   -2.2087 C   0  0  0  0  0  0  0  0  0  0  0  0
   -1.0799    1.4588   -0.9310 H   0  0  0  0  0  0  0  0  0  0  0  0
   -1.0882    1.4005    0.8526 H   0  0  0  0  0  0  0  0  0  0  0  0
    1.7301   -0.3165    0.9739 H   0  0  0  0  0  0  0  0  0  0  0  0
    1.2353    2.2587    0.8644 H   0  0  0  0  0  0  0  0  0  0  0  0
    1.3387    3.0326   -1.7038 H   0  0  0  0  0  0  0  0  0  0  0  0
    3.7713    2.3583   -1.8414 H   0  0  0  0  0  0  0  0  0  0  0  0
    3.4664    2.4645   -0.0902 H   0  0  0  0  0  0  0  0  0  0  0  0
    2.3357   -1.1352   -1.4740 H   0  0  0  0  0  0  0  0  0  0  0  0
    2.0633    0.8993   -3.1362 H   0  0  0  0  0  0  0  0  0  0  0  0
    0.4577    0.5628   -2.4340 H   0  0  0  0  0  0  0  0  0  0  0  0
  1  4  1  0  0  0  0
  1 11  1  0  0  0  0
  2  1  1  0  0  0  0
  2  3  1  0  0  0  0
  3 12  1  1  0  0  0
  4  3  1  0  0  0  0
  4 13  1  1  0  0  0
  5 14  1  6  0  0  0
  5  6  1  0  0  0  0
  5  4  1  0  0  0  0
  6  7  1  0  0  0  0
  6 16  1  0  0  0  0
  8 17  1  6  0  0  0
  8  7  1  0  0  0  0
  8  3  1  0  0  0  0
  9  5  1  0  0  0  0
  9  8  1  0  0  0  0
 10  1  1  0  0  0  0
 15  6  1  0  0  0  0
 18  9  1  0  0  0  0
 19  9  1  0  0  0  0
M TOR 0 0 1 2 3
M TOR 1 0 1 2 7
M TOR 2 0 1 2 11
M TOR 3 0 3 2 7
M TOR 4 0 3 2 11
M TOR 5 0 3 4 5
M TOR 6 0 3 4 8
M TOR 7 0 3 4 13
M TOR 8 1 0 3 4
M TOR 9 1 0 3 12
M TOR 10 1 2 3 4
M TOR 11 1 2 3 12
M TOR 12 1 2 7 6
M TOR 13 1 2 7 8
M TOR 14 1 2 7 16
M TOR 15 2 1 0 9
M TOR 16 2 1 0 10
M TOR 17 2 3 0 9
M TOR 18 2 3 0 10
M TOR 19 2 3 4 5
M TOR 20 2 3 4 8
M TOR 21 2 3 4 13
M TOR 22 2 7 6 5
M TOR 23 2 7 8 4
M TOR 24 2 7 8 17
M TOR 25 2 7 8 18
M TOR 26 3 2 7 6
M TOR 27 3 2 7 8
M TOR 28 3 2 7 16
M TOR 29 3 4 5 6
M TOR 30 3 4 5 14
M TOR 31 3 4 5 15
M TOR 32 3 4 8 7
M TOR 33 3 4 8 17
M TOR 34 3 4 8 18
M TOR 35 4 3 0 9
M TOR 36 4 3 0 10
M TOR 37 4 3 2 7
M TOR 38 4 3 2 11
M TOR 39 4 5 6 7
M TOR 40 4 8 7 6
M TOR 41 4 8 7 16
M TOR 42 5 4 3 12
M TOR 43 5 4 8 7
M TOR 44 5 4 8 17
M TOR 45 5 4 8 18
M TOR 46 5 6 7 8
M TOR 47 5 6 7 16
M TOR 48 6 5 4 8
M TOR 49 6 5 4 13
M TOR 50 6 7 2 11
M TOR 51 6 7 8 17
M TOR 52 6 7 8 18
M TOR 53 7 2 3 12
M TOR 54 7 6 5 14
M TOR 55 7 6 5 15
M TOR 56 7 8 4 13
M TOR 57 8 4 3 12
M TOR 58 8 4 5 14
M TOR 59 8 4 5 15
M TOR 60 8 7 2 11
M  END
$$$$
