
     RDKit          3D

 19 20  0  0  0  0  0  0  0  0999 V2000
   -3.4302    0.7932    0.5546 C   0  0  0  0  0  0  0  0  0  0  0  0
   -2.5227    1.9604    0.2302 C   0  0  0  0  0  0  0  0  0  0  0  0
   -2.1817    2.9146    1.3671 C   0  0  0  0  0  0  0  0  0  0  0  0
   -1.3170    4.0431    0.8255 C   0  0  0  0  0  0  0  0  0  0  0  0
   -0.4030    3.0960    0.2050 O   0  0  0  0  0  0  0  0  0  0  0  0
   -1.1265    1.9954    0.7838 C   0  0  0  0  0  0  0  0  0  0  0  0
   -0.3009    0.8503    1.2973 C   0  0  0  0  0  0  0  0  0  0  0  0
    0.3971    0.1173    0.1626 C   0  0  0  0  0  0  0  0  0  0  0  0
    0.3871   -1.0784    0.0221 O   0  0  0  0  0  0  0  0  0  0  0  0
   -3.2807    0.4368    1.5789 H   0  0  0  0  0  0  0  0  0  0  0  0
   -4.4819    1.0839    0.4614 H   0  0  0  0  0  0  0  0  0  0  0  0
   -3.2516   -0.0502   -0.1201 H   0  0  0  0  0  0  0  0  0  0  0  0
   -2.6551    2.3884   -0.7628 H   0  0  0  0  0  0  0  0  0  0  0  0
   -2.6903    2.8905    2.3221 H   0  0  0  0  0  0  0  0  0  0  0  0
   -1.7694    4.7236    0.0943 H   0  0  0  0  0  0  0  0  0  0  0  0
   -0.7997    4.6219    1.5990 H   0  0  0  0  0  0  0  0  0  0  0  0
    0.4750    1.2461    1.9676 H   0  0  0  0  0  0  0  0  0  0  0  0
   -0.9070    0.1322    1.8542 H   0  0  0  0  0  0  0  0  0  0  0  0
    0.9366    0.7795   -0.5488 H   0  0  0  0  0  0  0  0  0  0  0  0
  1  2  1  0
  2  3  1  0
  3  4  1  0
  4  5  1  0
  5  6  1  0
  6  7  1  0
  7  8  1  0
  8  9  2  0
  6  2  1  0
  6  3  1  0
  1 10  1  0
  1 11  1  0
  1 12  1  0
  2 13  1  0
  3 14  1  0
  4 15  1  0
  4 16  1  0
  7 17  1  0
  7 18  1  0
  8 19  1  0
M  END
$$$$
