gdb 3944	2.8963748	1.6406604	1.5639367	0.9758	73.67	-0.22088	0.07516	0.29603999999999997	969.4574	0.156675	-422.50481	-422.496987	-422.496043	-422.53693	30.958
 OpenBabel02181911413D

 19 21  0  0  1  0  0  0  0  0999 V2000
    0.0860    0.1456    0.3282 C   0  0  0  0  0  0  0  0  0  0  0  0
    1.5692    0.1034    0.0034 C   0  0  1  0  0  0  0  0  0  0  0  0
    2.1488    1.4254   -0.0017 O   0  0  0  0  0  0  0  0  0  0  0  0
    2.9049    1.5438    1.1639 C   0  0  2  0  0  0  0  0  0  0  0  0
    4.2436    0.8473    1.2301 C   0  0  0  0  0  0  0  0  0  0  0  0
    3.0008    0.1866    1.7781 C   0  0  1  0  0  0  0  0  0  0  0  0
    2.5438    0.7287    3.1462 C   0  0  0  0  0  0  0  0  0  0  0  0
    2.4428    2.1598    2.4986 C   0  0  0  0  0  0  0  0  0  0  0  0
    2.2986   -0.6964    0.9585 O   0  0  0  0  0  0  0  0  0  0  0  0
   -0.0798    0.5816    1.3175 H   0  0  0  0  0  0  0  0  0  0  0  0
   -0.4413    0.7501   -0.4151 H   0  0  0  0  0  0  0  0  0  0  0  0
   -0.3272   -0.8669    0.3166 H   0  0  0  0  0  0  0  0  0  0  0  0
    1.7449   -0.3323   -0.9867 H   0  0  0  0  0  0  0  0  0  0  0  0
    4.5933    0.4454    0.2873 H   0  0  0  0  0  0  0  0  0  0  0  0
    5.0182    1.2065    1.9032 H   0  0  0  0  0  0  0  0  0  0  0  0
    1.5719    0.3312    3.4428 H   0  0  0  0  0  0  0  0  0  0  0  0
    3.2476    0.5986    3.9733 H   0  0  0  0  0  0  0  0  0  0  0  0
    1.4168    2.5279    2.4488 H   0  0  0  0  0  0  0  0  0  0  0  0
    3.0819    2.9457    2.9113 H   0  0  0  0  0  0  0  0  0  0  0  0
  1 10  1  0  0  0  0
  2 13  1  6  0  0  0
  2  1  1  0  0  0  0
  2  9  1  0  0  0  0
  3  2  1  0  0  0  0
  4  3  1  6  0  0  0
  4  5  1  0  0  0  0
  4  6  1  0  0  0  0
  4  8  1  0  0  0  0
  5  6  1  0  0  0  0
  5 15  1  0  0  0  0
  6  9  1  6  0  0  0
  6  7  1  0  0  0  0
  7 16  1  0  0  0  0
  7 17  1  0  0  0  0
  8 19  1  0  0  0  0
  8  7  1  0  0  0  0
 11  1  1  0  0  0  0
 12  1  1  0  0  0  0
 14  5  1  0  0  0  0
 18  8  1  0  0  0  0
M TOR 0 0 1 2 3
M TOR 1 0 1 8 5
M TOR 2 1 2 3 4
M TOR 3 1 2 3 5
M TOR 4 1 2 3 7
M TOR 5 1 8 5 3
M TOR 6 1 8 5 4
M TOR 7 1 8 5 6
M TOR 8 2 1 0 9
M TOR 9 2 1 0 10
M TOR 10 2 1 0 11
M TOR 11 2 1 8 5
M TOR 12 2 3 4 5
M TOR 13 2 3 4 13
M TOR 14 2 3 4 14
M TOR 15 2 3 5 6
M TOR 16 2 3 5 8
M TOR 17 2 3 7 6
M TOR 18 2 3 7 17
M TOR 19 2 3 7 18
M TOR 20 3 2 1 8
M TOR 21 3 2 1 12
M TOR 22 3 4 5 6
M TOR 23 3 4 5 8
M TOR 24 3 5 4 13
M TOR 25 3 5 4 14
M TOR 26 3 5 6 7
M TOR 27 3 5 6 15
M TOR 28 3 5 6 16
M TOR 29 3 7 6 15
M TOR 30 3 7 6 16
M TOR 31 4 3 7 6
M TOR 32 4 3 7 17
M TOR 33 4 3 7 18
M TOR 34 4 5 3 7
M TOR 35 4 5 6 7
M TOR 36 4 5 6 15
M TOR 37 4 5 6 16
M TOR 38 5 3 7 17
M TOR 39 5 3 7 18
M TOR 40 5 6 7 17
M TOR 41 5 6 7 18
M TOR 42 5 8 1 12
M TOR 43 6 5 4 13
M TOR 44 6 5 4 14
M TOR 45 7 3 4 13
M TOR 46 7 3 4 14
M TOR 47 7 3 5 8
M TOR 48 7 6 5 8
M TOR 49 8 1 0 9
M TOR 50 8 1 0 10
M TOR 51 8 1 0 11
M TOR 52 8 5 4 13
M TOR 53 8 5 4 14
M TOR 54 8 5 6 15
M TOR 55 8 5 6 16
M  END
$$$$
