gdb 5610	2.6676082	1.2524152	0.9454027	3.9571	77.94	-0.23677	-0.04704	0.18973	1252.1145	0.156592	-422.594067	-422.584913	-422.583969	-422.62837	33.46
 OpenBabel02181911423D

 19 19  0  0  1  0  0  0  0  0999 V2000
   -0.5590    2.1989    1.1986 C   0  0  0  0  0  0  0  0  0  0  0  0
   -0.8776    1.2138    0.0728 C   0  0  2  0  0  0  0  0  0  0  0  0
   -2.3207    0.6592    0.0391 C   0  0  1  0  0  0  0  0  0  0  0  0
   -3.1974    1.2555   -1.0728 C   0  0  0  0  0  0  0  0  0  0  0  0
   -3.3210    2.6636   -0.9730 O   0  0  0  0  0  0  0  0  0  0  0  0
   -2.1370   -0.8353   -0.1004 C   0  0  0  0  0  0  0  0  0  0  0  0
   -0.8557   -1.2174   -0.0682 C   0  0  0  0  0  0  0  0  0  0  0  0
    0.0220   -0.0365    0.1142 C   0  0  0  0  0  0  0  0  0  0  0  0
    1.2208   -0.0346    0.2752 O   0  0  0  0  0  0  0  0  0  0  0  0
   -0.8049    1.7744    2.1784 H   0  0  0  0  0  0  0  0  0  0  0  0
    0.5085    2.4340    1.1949 H   0  0  0  0  0  0  0  0  0  0  0  0
   -1.1266    3.1247    1.0716 H   0  0  0  0  0  0  0  0  0  0  0  0
   -0.6699    1.7093   -0.8848 H   0  0  0  0  0  0  0  0  0  0  0  0
   -2.8257    0.8640    0.9971 H   0  0  0  0  0  0  0  0  0  0  0  0
   -2.7345    1.0664   -2.0477 H   0  0  0  0  0  0  0  0  0  0  0  0
   -4.1830    0.7631   -1.0777 H   0  0  0  0  0  0  0  0  0  0  0  0
   -3.8039    2.8642   -0.1646 H   0  0  0  0  0  0  0  0  0  0  0  0
   -2.9858   -1.5038   -0.2102 H   0  0  0  0  0  0  0  0  0  0  0  0
   -0.4715   -2.2275   -0.1316 H   0  0  0  0  0  0  0  0  0  0  0  0
  1 10  1  0  0  0  0
  2 13  1  6  0  0  0
  2  8  1  0  0  0  0
  2  1  1  0  0  0  0
  3  2  1  0  0  0  0
  3 14  1  1  0  0  0
  4  5  1  0  0  0  0
  4  3  1  0  0  0  0
  5 17  1  0  0  0  0
  6  7  2  0  0  0  0
  6  3  1  0  0  0  0
  7  8  1  0  0  0  0
  8  9  2  0  0  0  0
 11  1  1  0  0  0  0
 12  1  1  0  0  0  0
 15  4  1  0  0  0  0
 16  4  1  0  0  0  0
 18  6  1  0  0  0  0
 19  7  1  0  0  0  0
M TOR 0 0 1 2 3
M TOR 1 0 1 2 5
M TOR 2 0 1 2 13
M TOR 3 0 1 7 6
M TOR 4 0 1 7 8
M TOR 5 1 2 3 4
M TOR 6 1 2 3 14
M TOR 7 1 2 3 15
M TOR 8 1 2 5 6
M TOR 9 1 2 5 17
M TOR 10 1 7 6 5
M TOR 11 1 7 6 18
M TOR 12 2 1 0 9
M TOR 13 2 1 0 10
M TOR 14 2 1 0 11
M TOR 15 2 1 7 6
M TOR 16 2 1 7 8
M TOR 17 2 3 4 16
M TOR 18 2 5 6 7
M TOR 19 2 5 6 18
M TOR 20 3 2 1 7
M TOR 21 3 2 1 12
M TOR 22 3 2 5 6
M TOR 23 3 2 5 17
M TOR 24 4 3 2 5
M TOR 25 4 3 2 13
M TOR 26 5 2 1 7
M TOR 27 5 2 1 12
M TOR 28 5 2 3 14
M TOR 29 5 2 3 15
M TOR 30 5 6 7 8
M TOR 31 6 5 2 13
M TOR 32 6 7 1 12
M TOR 33 7 1 0 9
M TOR 34 7 1 0 10
M TOR 35 7 1 0 11
M TOR 36 7 1 2 13
M TOR 37 7 6 5 17
M TOR 38 8 7 1 12
M TOR 39 8 7 6 18
M  END
$$$$
