gdb 338	2.8675044	1.741756	1.3135615	1.2225	74.52	-0.23138	0.07392	0.3053	995.7549	0.15904	-422.492137	-422.484889	-422.483944	-422.523426	29.214
 OpenBabel02181911403D

 19 21  0  0  1  0  0  0  0  0999 V2000
    1.5688    0.3544    2.6260 C   0  0  0  0  0  0  0  0  0  0  0  0
    1.2753    1.8159    2.3972 C   0  0  1  0  0  0  0  0  0  0  0  0
    2.2468    2.6210    1.7667 O   0  0  0  0  0  0  0  0  0  0  0  0
    3.2559    1.9654    0.9829 C   0  0  0  0  0  0  0  0  0  0  0  0
    2.7533    0.8647   -0.0287 C   0  0  0  0  0  0  0  0  0  0  0  0
    1.2469    0.9069    0.0574 C   0  0  1  0  0  0  0  0  0  0  0  0
    0.3722   -0.1730   -0.3647 O   0  0  0  0  0  0  0  0  0  0  0  0
   -0.4512    0.0508    0.8214 C   0  0  0  0  0  0  0  0  0  0  0  0
    0.7149    0.7987    1.4627 C   0  0  1  0  0  0  0  0  0  0  0  0
    2.5671   -0.0477    2.4945 H   0  0  0  0  0  0  0  0  0  0  0  0
    1.0176   -0.1017    3.4439 H   0  0  0  0  0  0  0  0  0  0  0  0
    0.7213    2.3991    3.1250 H   0  0  0  0  0  0  0  0  0  0  0  0
    3.7264    2.7863    0.4383 H   0  0  0  0  0  0  0  0  0  0  0  0
    4.0148    1.5342    1.6484 H   0  0  0  0  0  0  0  0  0  0  0  0
    3.1281    1.0759   -1.0341 H   0  0  0  0  0  0  0  0  0  0  0  0
    3.1189   -0.1241    0.2629 H   0  0  0  0  0  0  0  0  0  0  0  0
    0.8905    1.8443   -0.4003 H   0  0  0  0  0  0  0  0  0  0  0  0
   -1.3350    0.6577    0.5806 H   0  0  0  0  0  0  0  0  0  0  0  0
   -0.7566   -0.8874    1.2937 H   0  0  0  0  0  0  0  0  0  0  0  0
  1 11  1  0  0  0  0
  2  1  1  0  0  0  0
  2 12  1  1  0  0  0
  3  2  1  0  0  0  0
  4 14  1  0  0  0  0
  4  3  1  0  0  0  0
  5  6  1  0  0  0  0
  5 16  1  0  0  0  0
  5  4  1  0  0  0  0
  6 17  1  6  0  0  0
  6  9  1  0  0  0  0
  7  6  1  0  0  0  0
  7  8  1  0  0  0  0
  8 19  1  0  0  0  0
  9  8  1  1  0  0  0
  9  2  1  0  0  0  0
  9  1  1  0  0  0  0
 10  1  1  0  0  0  0
 13  4  1  0  0  0  0
 15  5  1  0  0  0  0
 18  8  1  0  0  0  0
M TOR 0 0 1 2 3
M TOR 1 0 1 8 5
M TOR 2 0 1 8 7
M TOR 3 0 8 1 2
M TOR 4 0 8 1 11
M TOR 5 0 8 5 4
M TOR 6 0 8 5 6
M TOR 7 0 8 5 16
M TOR 8 0 8 7 6
M TOR 9 0 8 7 17
M TOR 10 0 8 7 18
M TOR 11 1 2 3 4
M TOR 12 1 2 3 12
M TOR 13 1 2 3 13
M TOR 14 1 8 0 9
M TOR 15 1 8 0 10
M TOR 16 1 8 5 4
M TOR 17 1 8 5 6
M TOR 18 1 8 5 16
M TOR 19 1 8 7 6
M TOR 20 1 8 7 17
M TOR 21 1 8 7 18
M TOR 22 2 1 0 9
M TOR 23 2 1 0 10
M TOR 24 2 1 8 5
M TOR 25 2 1 8 7
M TOR 26 2 3 4 5
M TOR 27 2 3 4 14
M TOR 28 2 3 4 15
M TOR 29 3 2 1 8
M TOR 30 3 2 1 11
M TOR 31 3 4 5 6
M TOR 32 3 4 5 8
M TOR 33 3 4 5 16
M TOR 34 4 5 6 7
M TOR 35 4 5 8 7
M TOR 36 5 4 3 12
M TOR 37 5 4 3 13
M TOR 38 5 6 7 8
M TOR 39 5 6 7 17
M TOR 40 5 6 7 18
M TOR 41 5 8 0 9
M TOR 42 5 8 0 10
M TOR 43 5 8 1 11
M TOR 44 5 8 7 17
M TOR 45 5 8 7 18
M TOR 46 6 5 4 14
M TOR 47 6 5 4 15
M TOR 48 7 6 5 16
M TOR 49 7 8 0 9
M TOR 50 7 8 0 10
M TOR 51 7 8 1 11
M TOR 52 7 8 5 16
M TOR 53 8 5 4 14
M TOR 54 8 5 4 15
M  END
$$$$
