
     RDKit          3D

 19 20  0  0  0  0  0  0  0  0999 V2000
    1.4059    0.7642   -0.2742 C   0  0  0  0  0  0  0  0  0  0  0  0
    0.0908    0.0481   -0.1535 C   0  0  0  0  0  0  0  0  0  0  0  0
   -0.0426   -1.2796   -0.1700 C   0  0  0  0  0  0  0  0  0  0  0  0
   -1.3947   -1.9404   -0.0719 C   0  0  0  0  0  0  0  0  0  0  0  0
   -2.4491   -1.1465   -0.6098 O   0  0  0  0  0  0  0  0  0  0  0  0
   -2.4622    0.1798   -0.1754 C   0  0  0  0  0  0  0  0  0  0  0  0
   -2.0181    1.2281   -1.1665 C   0  0  0  0  0  0  0  0  0  0  0  0
   -2.5869    2.5015   -1.1383 O   0  0  0  0  0  0  0  0  0  0  0  0
   -1.1359    0.8753    0.0110 C   0  0  0  0  0  0  0  0  0  0  0  0
    1.5963    1.3906    0.6065 H   0  0  0  0  0  0  0  0  0  0  0  0
    2.2378    0.0627   -0.3808 H   0  0  0  0  0  0  0  0  0  0  0  0
    1.4084    1.4377   -1.1402 H   0  0  0  0  0  0  0  0  0  0  0  0
    0.8236   -1.9301   -0.2581 H   0  0  0  0  0  0  0  0  0  0  0  0
   -1.4099   -2.8706   -0.6490 H   0  0  0  0  0  0  0  0  0  0  0  0
   -1.6162   -2.2093    0.9754 H   0  0  0  0  0  0  0  0  0  0  0  0
   -3.2797    0.4344    0.4981 H   0  0  0  0  0  0  0  0  0  0  0  0
   -1.7108    0.8506   -2.1419 H   0  0  0  0  0  0  0  0  0  0  0  0
   -3.4610    2.4448   -1.5398 H   0  0  0  0  0  0  0  0  0  0  0  0
   -1.1025    1.6451    0.7781 H   0  0  0  0  0  0  0  0  0  0  0  0
  1  2  1  0
  2  3  2  0
  3  4  1  0
  4  5  1  0
  5  6  1  0
  6  7  1  0
  7  8  1  0
  7  9  1  0
  9  2  1  0
  9  6  1  0
  1 10  1  0
  1 11  1  0
  1 12  1  0
  3 13  1  0
  4 14  1  0
  4 15  1  0
  6 16  1  0
  7 17  1  0
  8 18  1  0
  9 19  1  0
M  END
$$$$
