gdb 50	2.960134	1.0108387	0.7962268	1.3348	79.06	-0.20977	0.02474	0.23451000000000002	1440.3092	0.156333	-422.587361	-422.577817	-422.576873	-422.622686	33.798
 OpenBabel02181911403D

 19 19  0  0  0  0  0  0  0  0999 V2000
   -2.4579   -2.5050   -1.4965 C   0  0  0  0  0  0  0  0  0  0  0  0
   -2.8809   -1.1464   -1.0281 C   0  0  0  0  0  0  0  0  0  0  0  0
   -2.1245   -0.0126   -0.9496 C   0  0  0  0  0  0  0  0  0  0  0  0
   -0.7026    0.3058   -1.2541 C   0  0  0  0  0  0  0  0  0  0  0  0
    0.1277    0.6087   -0.0031 C   0  0  0  0  0  0  0  0  0  0  0  0
    1.4476    0.9023   -0.4324 O   0  0  0  0  0  0  0  0  0  0  0  0
   -2.8824    1.0241   -0.4694 O   0  0  0  0  0  0  0  0  0  0  0  0
   -4.1312    0.5396   -0.2447 C   0  0  0  0  0  0  0  0  0  0  0  0
   -4.1933   -0.7751   -0.5666 C   0  0  0  0  0  0  0  0  0  0  0  0
   -2.5627   -3.2540   -0.7029 H   0  0  0  0  0  0  0  0  0  0  0  0
   -3.0694   -2.8455   -2.3400 H   0  0  0  0  0  0  0  0  0  0  0  0
   -1.4141   -2.5133   -1.8208 H   0  0  0  0  0  0  0  0  0  0  0  0
   -0.2467   -0.5368   -1.7817 H   0  0  0  0  0  0  0  0  0  0  0  0
   -0.6396    1.1727   -1.9230 H   0  0  0  0  0  0  0  0  0  0  0  0
   -0.3214    1.4560    0.5357 H   0  0  0  0  0  0  0  0  0  0  0  0
    0.1051   -0.2621    0.6708 H   0  0  0  0  0  0  0  0  0  0  0  0
    1.9731    1.1254    0.3412 H   0  0  0  0  0  0  0  0  0  0  0  0
   -4.8480    1.2488    0.1356 H   0  0  0  0  0  0  0  0  0  0  0  0
   -5.0593   -1.4154   -0.4933 H   0  0  0  0  0  0  0  0  0  0  0  0
  1  2  1  0  0  0  0
  1 10  1  0  0  0  0
  2  3  2  0  0  0  0
  2  9  1  0  0  0  0
  3  7  1  0  0  0  0
  4  3  1  0  0  0  0
  4  5  1  0  0  0  0
  5 15  1  0  0  0  0
  5 16  1  0  0  0  0
  6  5  1  0  0  0  0
  6 17  1  0  0  0  0
  7  8  1  0  0  0  0
  8 18  1  0  0  0  0
  9 19  1  0  0  0  0
  9  8  2  0  0  0  0
 11  1  1  0  0  0  0
 12  1  1  0  0  0  0
 13  4  1  0  0  0  0
 14  4  1  0  0  0  0
M TOR 0 0 1 2 3
M TOR 1 0 1 2 6
M TOR 2 0 1 8 7
M TOR 3 0 1 8 18
M TOR 4 1 2 3 4
M TOR 5 1 2 3 12
M TOR 6 1 2 3 13
M TOR 7 1 2 6 7
M TOR 8 1 8 7 6
M TOR 9 1 8 7 17
M TOR 10 2 1 0 9
M TOR 11 2 1 0 10
M TOR 12 2 1 0 11
M TOR 13 2 1 8 7
M TOR 14 2 1 8 18
M TOR 15 2 3 4 5
M TOR 16 2 3 4 14
M TOR 17 2 3 4 15
M TOR 18 2 6 7 8
M TOR 19 2 6 7 17
M TOR 20 3 2 1 8
M TOR 21 3 2 6 7
M TOR 22 3 4 5 16
M TOR 23 4 3 2 6
M TOR 24 5 4 3 12
M TOR 25 5 4 3 13
M TOR 26 6 2 1 8
M TOR 27 6 2 3 12
M TOR 28 6 2 3 13
M TOR 29 6 7 8 18
M TOR 30 8 1 0 9
M TOR 31 8 1 0 10
M TOR 32 8 1 0 11
M  END
$$$$
