
     RDKit          3D

 19 20  0  0  0  0  0  0  0  0999 V2000
   -3.2665    0.1388   -1.1253 C   0  0  0  0  0  0  0  0  0  0  0  0
   -2.1579   -0.0443   -0.1240 C   0  0  0  0  0  0  0  0  0  0  0  0
   -1.0823    1.0633    0.0536 C   0  0  0  0  0  0  0  0  0  0  0  0
   -0.0060   -0.0401    0.0388 C   0  0  0  0  0  0  0  0  0  0  0  0
    1.1910   -0.0338    0.0762 O   0  0  0  0  0  0  0  0  0  0  0  0
   -1.0383   -1.1607   -0.1585 C   0  0  0  0  0  0  0  0  0  0  0  0
   -0.7897   -2.2101   -1.2164 C   0  0  0  0  0  0  0  0  0  0  0  0
   -1.6615   -1.5800    1.1970 C   0  0  0  0  0  0  0  0  0  0  0  0
   -2.6267   -0.5107    1.1641 O   0  0  0  0  0  0  0  0  0  0  0  0
   -3.8379   -0.7857   -1.2487 H   0  0  0  0  0  0  0  0  0  0  0  0
   -3.9559    0.9187   -0.7836 H   0  0  0  0  0  0  0  0  0  0  0  0
   -2.8702    0.4394   -2.1004 H   0  0  0  0  0  0  0  0  0  0  0  0
   -0.9765    1.7325   -0.8077 H   0  0  0  0  0  0  0  0  0  0  0  0
   -1.1637    1.6608    0.9647 H   0  0  0  0  0  0  0  0  0  0  0  0
    0.0600   -2.8399   -0.9316 H   0  0  0  0  0  0  0  0  0  0  0  0
   -1.6634   -2.8571   -1.3471 H   0  0  0  0  0  0  0  0  0  0  0  0
   -0.5509   -1.7580   -2.1842 H   0  0  0  0  0  0  0  0  0  0  0  0
   -2.1495   -2.5625    1.1555 H   0  0  0  0  0  0  0  0  0  0  0  0
   -1.0125   -1.5414    2.0798 H   0  0  0  0  0  0  0  0  0  0  0  0
  1  2  1  0
  2  3  1  0
  3  4  1  0
  4  5  2  0
  4  6  1  0
  6  7  1  0
  6  8  1  0
  8  9  1  0
  6  2  1  0
  9  2  1  0
  1 10  1  0
  1 11  1  0
  1 12  1  0
  3 13  1  0
  3 14  1  0
  7 15  1  0
  7 16  1  0
  7 17  1  0
  8 18  1  0
  8 19  1  0
M  END
$$$$
