
     RDKit          3D

 19 18  0  0  0  0  0  0  0  0999 V2000
    6.7169    1.0296    5.0684 O   0  0  0  0  0  0  0  0  0  0  0  0
    7.2187    0.9492    3.9810 C   0  0  0  0  0  0  0  0  0  0  0  0
    6.5700    0.7586    2.8258 O   0  0  0  0  0  0  0  0  0  0  0  0
    5.1337    0.6420    2.9230 C   0  0  0  0  0  0  0  0  0  0  0  0
    4.5921    0.4328    1.5188 C   0  0  0  0  0  0  0  0  0  0  0  0
    3.0665    0.2958    1.5085 C   0  0  0  0  0  0  0  0  0  0  0  0
    2.5108    0.0832    0.0858 C   0  0  0  0  0  0  0  0  0  0  0  0
    1.0596   -0.0493    0.0569 C   0  0  0  0  0  0  0  0  0  0  0  0
   -0.1376   -0.1553    0.0610 C   0  0  0  0  0  0  0  0  0  0  0  0
    8.2977    1.0212    3.7727 H   0  0  0  0  0  0  0  0  0  0  0  0
    4.8900   -0.1958    3.5846 H   0  0  0  0  0  0  0  0  0  0  0  0
    4.7347    1.5515    3.3841 H   0  0  0  0  0  0  0  0  0  0  0  0
    4.8993    1.2765    0.8889 H   0  0  0  0  0  0  0  0  0  0  0  0
    5.0541   -0.4642    1.0886 H   0  0  0  0  0  0  0  0  0  0  0  0
    2.7585   -0.5460    2.1394 H   0  0  0  0  0  0  0  0  0  0  0  0
    2.6039    1.1910    1.9401 H   0  0  0  0  0  0  0  0  0  0  0  0
    2.8148    0.9228   -0.5531 H   0  0  0  0  0  0  0  0  0  0  0  0
    2.9692   -0.8124   -0.3541 H   0  0  0  0  0  0  0  0  0  0  0  0
   -1.1950   -0.2503    0.0522 H   0  0  0  0  0  0  0  0  0  0  0  0
  1  2  2  0
  2  3  1  0
  3  4  1  0
  4  5  1  0
  5  6  1  0
  6  7  1  0
  7  8  1  0
  8  9  3  0
  2 10  1  0
  4 11  1  0
  4 12  1  0
  5 13  1  0
  5 14  1  0
  6 15  1  0
  6 16  1  0
  7 17  1  0
  7 18  1  0
  9 19  1  0
M  END
$$$$
