
     RDKit          3D

 19 20  0  0  0  0  0  0  0  0999 V2000
   -3.1362    0.2655   -1.1731 C   0  0  0  0  0  0  0  0  0  0  0  0
   -2.1764   -0.1238   -0.0852 C   0  0  0  0  0  0  0  0  0  0  0  0
   -2.6554   -0.6667    1.2799 C   0  0  0  0  0  0  0  0  0  0  0  0
   -1.5256   -1.7393    1.2454 C   0  0  0  0  0  0  0  0  0  0  0  0
   -1.0593   -1.2183   -0.1567 C   0  0  0  0  0  0  0  0  0  0  0  0
   -0.7946   -2.1995   -1.2734 C   0  0  0  0  0  0  0  0  0  0  0  0
   -0.1232   -0.0257    0.0096 C   0  0  0  0  0  0  0  0  0  0  0  0
    1.0498    0.1738    0.0501 O   0  0  0  0  0  0  0  0  0  0  0  0
   -1.1334    0.8999    0.1211 O   0  0  0  0  0  0  0  0  0  0  0  0
   -3.8383   -0.5494   -1.3748 H   0  0  0  0  0  0  0  0  0  0  0  0
   -3.7154    1.1461   -0.8748 H   0  0  0  0  0  0  0  0  0  0  0  0
   -2.6045    0.5062   -2.0983 H   0  0  0  0  0  0  0  0  0  0  0  0
   -2.6136    0.0664    2.0873 H   0  0  0  0  0  0  0  0  0  0  0  0
   -3.6593   -1.0967    1.2430 H   0  0  0  0  0  0  0  0  0  0  0  0
   -0.7756   -1.6924    2.0373 H   0  0  0  0  0  0  0  0  0  0  0  0
   -1.9057   -2.7619    1.1904 H   0  0  0  0  0  0  0  0  0  0  0  0
    0.1223   -2.7624   -1.0692 H   0  0  0  0  0  0  0  0  0  0  0  0
   -1.6156   -2.9174   -1.3714 H   0  0  0  0  0  0  0  0  0  0  0  0
   -0.6640   -1.6938   -2.2353 H   0  0  0  0  0  0  0  0  0  0  0  0
  1  2  1  0
  2  3  1  0
  3  4  1  0
  4  5  1  0
  5  6  1  0
  5  7  1  0
  7  8  2  0
  7  9  1  0
  5  2  1  0
  9  2  1  0
  1 10  1  0
  1 11  1  0
  1 12  1  0
  3 13  1  0
  3 14  1  0
  4 15  1  0
  4 16  1  0
  6 17  1  0
  6 18  1  0
  6 19  1  0
M  END
$$$$
