gdb 3847	2.7125817	1.5841935	1.2457286	2.4282	75.82	-0.23517	0.01708	0.25225	1049.0407	0.157333	-422.564042	-422.555925	-422.554981	-422.596344	32.328
 OpenBabel02181911413D

 19 20  0  0  1  0  0  0  0  0999 V2000
    0.8139    0.1965    0.9657 O   0  0  0  0  0  0  0  0  0  0  0  0
   -0.5682    0.4139    0.7876 C   0  0  1  0  0  0  0  0  0  0  0  0
   -1.4088    0.2701    2.0905 C   0  0  0  0  0  0  0  0  0  0  0  0
   -1.4185    1.8250    2.2342 C   0  0  2  0  0  0  0  0  0  0  0  0
   -0.4197    2.3087    3.1154 O   0  0  0  0  0  0  0  0  0  0  0  0
   -2.7964    2.5034    2.3391 C   0  0  0  0  0  0  0  0  0  0  0  0
   -3.2119    2.6157    0.8883 C   0  0  0  0  0  0  0  0  0  0  0  0
   -2.2256    2.3084    0.0413 C   0  0  0  0  0  0  0  0  0  0  0  0
   -0.9562    1.9267    0.7470 C   0  0  2  0  0  0  0  0  0  0  0  0
    1.0949    0.7521    1.7035 H   0  0  0  0  0  0  0  0  0  0  0  0
   -0.8705   -0.1999   -0.0643 H   0  0  0  0  0  0  0  0  0  0  0  0
   -2.4038   -0.1483    1.9196 H   0  0  0  0  0  0  0  0  0  0  0  0
   -0.9153   -0.2816    2.8954 H   0  0  0  0  0  0  0  0  0  0  0  0
   -0.6530    2.0378    4.0106 H   0  0  0  0  0  0  0  0  0  0  0  0
   -3.5072    1.9221    2.9411 H   0  0  0  0  0  0  0  0  0  0  0  0
   -2.7060    3.4913    2.8110 H   0  0  0  0  0  0  0  0  0  0  0  0
   -4.2064    2.9331    0.5931 H   0  0  0  0  0  0  0  0  0  0  0  0
   -2.3048    2.3376   -1.0404 H   0  0  0  0  0  0  0  0  0  0  0  0
   -0.1123    2.5886    0.5239 H   0  0  0  0  0  0  0  0  0  0  0  0
  1 10  1  0  0  0  0
  2 11  1  6  0  0  0
  2  1  1  0  0  0  0
  2  3  1  0  0  0  0
  3  4  1  0  0  0  0
  3 13  1  0  0  0  0
  4  6  1  0  0  0  0
  4  5  1  1  0  0  0
  5 14  1  0  0  0  0
  6 16  1  0  0  0  0
  6 15  1  0  0  0  0
  7  6  1  0  0  0  0
  8  9  1  0  0  0  0
  8  7  2  0  0  0  0
  9 19  1  6  0  0  0
  9  2  1  0  0  0  0
  9  4  1  0  0  0  0
 12  3  1  0  0  0  0
 17  7  1  0  0  0  0
 18  8  1  0  0  0  0
M TOR 0 0 1 2 3
M TOR 1 0 1 2 11
M TOR 2 0 1 2 12
M TOR 3 0 1 8 3
M TOR 4 0 1 8 7
M TOR 5 0 1 8 18
M TOR 6 1 2 3 4
M TOR 7 1 2 3 5
M TOR 8 1 2 3 8
M TOR 9 1 8 3 4
M TOR 10 1 8 3 5
M TOR 11 1 8 7 6
M TOR 12 1 8 7 17
M TOR 13 2 1 0 9
M TOR 14 2 1 8 7
M TOR 15 2 1 8 18
M TOR 16 2 3 4 13
M TOR 17 2 3 5 6
M TOR 18 2 3 5 14
M TOR 19 2 3 5 15
M TOR 20 2 3 8 7
M TOR 21 2 3 8 18
M TOR 22 3 2 1 10
M TOR 23 3 5 6 7
M TOR 24 3 5 6 16
M TOR 25 3 8 1 10
M TOR 26 3 8 7 6
M TOR 27 3 8 7 17
M TOR 28 4 3 2 11
M TOR 29 4 3 2 12
M TOR 30 4 3 5 6
M TOR 31 4 3 5 14
M TOR 32 4 3 5 15
M TOR 33 4 3 8 7
M TOR 34 4 3 8 18
M TOR 35 5 3 2 11
M TOR 36 5 3 2 12
M TOR 37 5 3 4 13
M TOR 38 5 3 8 7
M TOR 39 5 3 8 18
M TOR 40 5 6 7 8
M TOR 41 5 6 7 17
M TOR 42 6 5 3 8
M TOR 43 6 7 8 18
M TOR 44 7 6 5 14
M TOR 45 7 6 5 15
M TOR 46 7 8 1 10
M TOR 47 8 1 0 9
M TOR 48 8 1 2 11
M TOR 49 8 1 2 12
M TOR 50 8 3 2 11
M TOR 51 8 3 2 12
M TOR 52 8 3 4 13
M TOR 53 8 3 5 14
M TOR 54 8 3 5 15
M TOR 55 8 7 6 16
M  END
$$$$
