
     RDKit          3D

 19 21  0  0  0  0  0  0  0  0999 V2000
    1.5242   -0.0616    0.1472 C   0  0  0  0  0  0  0  0  0  0  0  0
    0.1062   -0.0131    0.0756 O   0  0  0  0  0  0  0  0  0  0  0  0
   -0.4674    0.7258    1.0796 C   0  0  0  0  0  0  0  0  0  0  0  0
   -0.7134    0.1534    2.4878 C   0  0  0  0  0  0  0  0  0  0  0  0
   -0.9406    1.3326    3.4330 C   0  0  0  0  0  0  0  0  0  0  0  0
   -1.6668    2.0002    2.2345 C   0  0  0  0  0  0  0  0  0  0  0  0
   -1.8736    0.5632    1.5947 C   0  0  0  0  0  0  0  0  0  0  0  0
   -0.5359    2.2522    1.1883 C   0  0  0  0  0  0  0  0  0  0  0  0
   -0.9488    2.8867    0.0009 O   0  0  0  0  0  0  0  0  0  0  0  0
    1.8607   -0.5040    1.0946 H   0  0  0  0  0  0  0  0  0  0  0  0
    1.8623   -0.6846   -0.6833 H   0  0  0  0  0  0  0  0  0  0  0  0
    1.9662    0.9384    0.0473 H   0  0  0  0  0  0  0  0  0  0  0  0
   -0.3999   -0.8582    2.7156 H   0  0  0  0  0  0  0  0  0  0  0  0
   -1.6294    1.0734    4.2424 H   0  0  0  0  0  0  0  0  0  0  0  0
   -0.0706    1.8564    3.8472 H   0  0  0  0  0  0  0  0  0  0  0  0
   -2.4343    2.7596    2.3662 H   0  0  0  0  0  0  0  0  0  0  0  0
   -2.7253    0.0070    1.2324 H   0  0  0  0  0  0  0  0  0  0  0  0
    0.3393    2.8087    1.5423 H   0  0  0  0  0  0  0  0  0  0  0  0
   -1.5408    2.2824   -0.4630 H   0  0  0  0  0  0  0  0  0  0  0  0
  1  2  1  0
  2  3  1  0
  3  4  1  0
  4  5  1  0
  5  6  1  0
  6  7  1  0
  6  8  1  0
  8  9  1  0
  7  3  1  0
  8  3  1  0
  7  4  1  0
  1 10  1  0
  1 11  1  0
  1 12  1  0
  4 13  1  0
  5 14  1  0
  5 15  1  0
  6 16  1  0
  7 17  1  0
  8 18  1  0
  9 19  1  0
M  END
$$$$
