
     RDKit          3D

 19 19  0  0  0  0  0  0  0  0999 V2000
    1.3706   -0.0553   -0.1948 C   0  0  0  0  0  0  0  0  0  0  0  0
   -0.0151    0.1658   -0.0072 O   0  0  0  0  0  0  0  0  0  0  0  0
   -0.3300    0.6059    1.2679 C   0  0  0  0  0  0  0  0  0  0  0  0
   -0.4344   -0.3902    2.3966 C   0  0  0  0  0  0  0  0  0  0  0  0
   -1.6987    0.2034    1.8035 C   0  0  0  0  0  0  0  0  0  0  0  0
   -2.4504   -0.7002    1.0578 O   0  0  0  0  0  0  0  0  0  0  0  0
   -3.1437   -0.1059   -0.0343 C   0  0  0  0  0  0  0  0  0  0  0  0
   -2.4433    1.1816    2.5595 C   0  0  0  0  0  0  0  0  0  0  0  0
   -3.0734    1.9989    3.1776 C   0  0  0  0  0  0  0  0  0  0  0  0
    1.7552   -0.8163    0.4984 H   0  0  0  0  0  0  0  0  0  0  0  0
    1.5016   -0.4040   -1.2213 H   0  0  0  0  0  0  0  0  0  0  0  0
    1.9498    0.8693   -0.0540 H   0  0  0  0  0  0  0  0  0  0  0  0
    0.0182    1.6114    1.5086 H   0  0  0  0  0  0  0  0  0  0  0  0
   -0.2799   -1.4308    2.1342 H   0  0  0  0  0  0  0  0  0  0  0  0
   -0.1437   -0.0992    3.3987 H   0  0  0  0  0  0  0  0  0  0  0  0
   -3.6980   -0.9116   -0.5201 H   0  0  0  0  0  0  0  0  0  0  0  0
   -3.8510    0.6588    0.3123 H   0  0  0  0  0  0  0  0  0  0  0  0
   -2.4429    0.3403   -0.7482 H   0  0  0  0  0  0  0  0  0  0  0  0
   -3.6294    2.7165    3.7287 H   0  0  0  0  0  0  0  0  0  0  0  0
  1  2  1  0
  2  3  1  0
  3  4  1  0
  4  5  1  0
  5  6  1  0
  6  7  1  0
  5  8  1  0
  8  9  3  0
  5  3  1  0
  1 10  1  0
  1 11  1  0
  1 12  1  0
  3 13  1  0
  4 14  1  0
  4 15  1  0
  7 16  1  0
  7 17  1  0
  7 18  1  0
  9 19  1  0
M  END
$$$$
