
     RDKit          3D

 19 21  0  0  0  0  0  0  0  0999 V2000
    1.9637    1.6047    0.1151 C   0  0  0  0  0  0  0  0  0  0  0  0
    1.3527    0.2039    0.0320 C   0  0  0  0  0  0  0  0  0  0  0  0
   -0.1761    0.2729    0.0110 C   0  0  0  0  0  0  0  0  0  0  0  0
    1.9101   -0.7814    1.0979 C   0  0  0  0  0  0  0  0  0  0  0  0
    3.3543   -0.6509    0.9353 O   0  0  0  0  0  0  0  0  0  0  0  0
    3.1635   -1.3359   -0.3000 C   0  0  0  0  0  0  0  0  0  0  0  0
    1.9513   -2.1142    0.2011 C   0  0  0  0  0  0  0  0  0  0  0  0
    1.2058   -1.9112   -0.9967 O   0  0  0  0  0  0  0  0  0  0  0  0
    1.9515   -0.6622   -1.1121 C   0  0  0  0  0  0  0  0  0  0  0  0
    1.6151    2.1274    1.0125 H   0  0  0  0  0  0  0  0  0  0  0  0
    3.0534    1.5706    0.1481 H   0  0  0  0  0  0  0  0  0  0  0  0
    1.6561    2.2004   -0.7516 H   0  0  0  0  0  0  0  0  0  0  0  0
   -0.5426    0.7566    0.9234 H   0  0  0  0  0  0  0  0  0  0  0  0
   -0.5259    0.8688   -0.8390 H   0  0  0  0  0  0  0  0  0  0  0  0
   -0.6258   -0.7178   -0.0655 H   0  0  0  0  0  0  0  0  0  0  0  0
    1.5744   -0.7267    2.1324 H   0  0  0  0  0  0  0  0  0  0  0  0
    4.0575   -1.7043   -0.7991 H   0  0  0  0  0  0  0  0  0  0  0  0
    1.9080   -3.1078    0.6428 H   0  0  0  0  0  0  0  0  0  0  0  0
    2.0108   -0.2744   -2.1279 H   0  0  0  0  0  0  0  0  0  0  0  0
  1  2  1  0
  2  3  1  0
  2  4  1  0
  4  5  1  0
  5  6  1  0
  6  7  1  0
  7  8  1  0
  8  9  1  0
  9  2  1  0
  7  4  1  0
  9  6  1  0
  1 10  1  0
  1 11  1  0
  1 12  1  0
  3 13  1  0
  3 14  1  0
  3 15  1  0
  4 16  1  0
  6 17  1  0
  7 18  1  0
  9 19  1  0
M  END
$$$$
