gdb 2067	2.4514581	1.8806214	1.2974254	0.5973	74.24	-0.24342	0.07791	0.32133	1007.8526	0.158016	-422.52943	-422.521694	-422.52075	-422.561123	31.195
 OpenBabel02181911403D

 19 21  0  0  1  0  0  0  0  0999 V2000
    0.4530    0.3582    0.9073 O   0  0  0  0  0  0  0  0  0  0  0  0
   -0.9407    0.3844    0.7501 C   0  0  2  0  0  0  0  0  0  0  0  0
   -1.6907    0.1528    2.0219 C   0  0  0  0  0  0  0  0  0  0  0  0
   -1.7121   -0.9118    0.9400 C   0  0  1  0  0  0  0  0  0  0  0  0
   -2.9479   -1.0929    0.0740 C   0  0  0  0  0  0  0  0  0  0  0  0
   -2.7384   -0.5972   -1.2497 O   0  0  0  0  0  0  0  0  0  0  0  0
   -2.4754    0.7720   -1.2773 C   0  0  2  0  0  0  0  0  0  0  0  0
   -1.1077    1.1706   -1.7403 C   0  0  0  0  0  0  0  0  0  0  0  0
   -1.4836    1.3287   -0.2753 C   0  0  2  0  0  0  0  0  0  0  0  0
    0.8391    0.1924    0.0400 H   0  0  0  0  0  0  0  0  0  0  0  0
   -1.0895   -0.0373    2.9036 H   0  0  0  0  0  0  0  0  0  0  0  0
   -2.6029    0.7149    2.1991 H   0  0  0  0  0  0  0  0  0  0  0  0
   -1.1058   -1.7932    1.1187 H   0  0  0  0  0  0  0  0  0  0  0  0
   -3.1920   -2.1511   -0.0471 H   0  0  0  0  0  0  0  0  0  0  0  0
   -3.8203   -0.5962    0.5240 H   0  0  0  0  0  0  0  0  0  0  0  0
   -3.3326    1.3855   -1.5518 H   0  0  0  0  0  0  0  0  0  0  0  0
   -0.4586    0.3475   -2.0219 H   0  0  0  0  0  0  0  0  0  0  0  0
   -0.9864    2.0704   -2.3328 H   0  0  0  0  0  0  0  0  0  0  0  0
   -1.6468    2.3499    0.0575 H   0  0  0  0  0  0  0  0  0  0  0  0
  2  1  1  1  0  0  0
  2  4  1  0  0  0  0
  2  3  1  0  0  0  0
  3 12  1  0  0  0  0
  3 11  1  0  0  0  0
  4 13  1  1  0  0  0
  4  3  1  0  0  0  0
  5 15  1  0  0  0  0
  5  4  1  0  0  0  0
  6  5  1  0  0  0  0
  7 16  1  6  0  0  0
  7  6  1  0  0  0  0
  7  9  1  0  0  0  0
  8  7  1  0  0  0  0
  8  9  1  0  0  0  0
  9 19  1  1  0  0  0
  9  2  1  0  0  0  0
 10  1  1  0  0  0  0
 14  5  1  0  0  0  0
 17  8  1  0  0  0  0
 18  8  1  0  0  0  0
M TOR 0 0 1 2 3
M TOR 1 0 1 2 10
M TOR 2 0 1 2 11
M TOR 3 0 1 3 4
M TOR 4 0 1 3 12
M TOR 5 0 1 8 6
M TOR 6 0 1 8 7
M TOR 7 0 1 8 18
M TOR 8 1 2 3 4
M TOR 9 1 2 3 12
M TOR 10 1 3 2 10
M TOR 11 1 3 2 11
M TOR 12 1 3 4 5
M TOR 13 1 3 4 13
M TOR 14 1 3 4 14
M TOR 15 1 8 6 5
M TOR 16 1 8 6 7
M TOR 17 1 8 6 15
M TOR 18 1 8 7 16
M TOR 19 1 8 7 17
M TOR 20 2 1 0 9
M TOR 21 2 1 8 6
M TOR 22 2 1 8 7
M TOR 23 2 1 8 18
M TOR 24 2 3 1 8
M TOR 25 2 3 4 5
M TOR 26 2 3 4 13
M TOR 27 2 3 4 14
M TOR 28 3 1 0 9
M TOR 29 3 1 8 6
M TOR 30 3 1 8 7
M TOR 31 3 1 8 18
M TOR 32 3 4 5 6
M TOR 33 4 3 1 8
M TOR 34 4 3 2 10
M TOR 35 4 3 2 11
M TOR 36 4 5 6 7
M TOR 37 4 5 6 8
M TOR 38 4 5 6 15
M TOR 39 5 4 3 12
M TOR 40 5 6 7 8
M TOR 41 5 6 7 16
M TOR 42 5 6 7 17
M TOR 43 5 6 8 18
M TOR 44 6 5 4 13
M TOR 45 6 5 4 14
M TOR 46 6 7 8 18
M TOR 47 6 8 7 16
M TOR 48 6 8 7 17
M TOR 49 7 8 6 15
M TOR 50 8 1 0 9
M TOR 51 8 1 2 10
M TOR 52 8 1 2 11
M TOR 53 8 1 3 12
M  END
$$$$
