gdb 3747	3.0182875	1.3341909	1.2167427	2.3989	75.17	-0.22438	0.07601	0.30039	1099.5369	0.157312	-422.520599	-422.51256	-422.511616	-422.552925	31.537
 OpenBabel02181911413D

 19 21  0  0  1  0  0  0  0  0999 V2000
    0.6954    0.0495    0.8093 O   0  0  0  0  0  0  0  0  0  0  0  0
   -0.6835    0.2715    0.7692 C   0  0  2  0  0  0  0  0  0  0  0  0
   -1.4948    0.1640    2.0411 C   0  0  0  0  0  0  0  0  0  0  0  0
   -1.5724   -0.9180    0.9865 C   0  0  1  0  0  0  0  0  0  0  0  0
   -2.8448   -1.1255    0.1614 C   0  0  0  0  0  0  0  0  0  0  0  0
   -2.6828   -2.3590   -0.5361 O   0  0  0  0  0  0  0  0  0  0  0  0
   -1.7278   -3.1313    0.1477 C   0  0  2  0  0  0  0  0  0  0  0  0
   -1.9142   -3.3889    1.6208 C   0  0  0  0  0  0  0  0  0  0  0  0
   -0.9779   -2.2886    1.1386 C   0  0  2  0  0  0  0  0  0  0  0  0
    1.1043    0.7896    1.2698 H   0  0  0  0  0  0  0  0  0  0  0  0
   -1.0074    1.0024    0.0262 H   0  0  0  0  0  0  0  0  0  0  0  0
   -0.9517   -0.0721    2.9505 H   0  0  0  0  0  0  0  0  0  0  0  0
   -2.3442    0.8281    2.1747 H   0  0  0  0  0  0  0  0  0  0  0  0
   -3.7252   -1.1738    0.8202 H   0  0  0  0  0  0  0  0  0  0  0  0
   -3.0208   -0.3349   -0.5761 H   0  0  0  0  0  0  0  0  0  0  0  0
   -1.2667   -3.8689   -0.4979 H   0  0  0  0  0  0  0  0  0  0  0  0
   -2.8533   -3.1143    2.0899 H   0  0  0  0  0  0  0  0  0  0  0  0
   -1.4538   -4.2820    2.0298 H   0  0  0  0  0  0  0  0  0  0  0  0
    0.0902   -2.3703    1.2879 H   0  0  0  0  0  0  0  0  0  0  0  0
  1 10  1  0  0  0  0
  2 11  1  6  0  0  0
  2  1  1  0  0  0  0
  2  4  1  0  0  0  0
  2  3  1  0  0  0  0
  3 13  1  0  0  0  0
  3 12  1  0  0  0  0
  4  5  1  6  0  0  0
  4  9  1  0  0  0  0
  4  3  1  0  0  0  0
  5 14  1  0  0  0  0
  6  7  1  0  0  0  0
  6  5  1  0  0  0  0
  7 16  1  6  0  0  0
  7  9  1  0  0  0  0
  7  8  1  0  0  0  0
  8 18  1  0  0  0  0
  8 17  1  0  0  0  0
  9 19  1  1  0  0  0
  9  8  1  0  0  0  0
 15  5  1  0  0  0  0
M TOR 0 0 1 2 3
M TOR 1 0 1 2 11
M TOR 2 0 1 2 12
M TOR 3 0 1 3 4
M TOR 4 0 1 3 8
M TOR 5 1 2 3 4
M TOR 6 1 2 3 8
M TOR 7 1 3 2 11
M TOR 8 1 3 2 12
M TOR 9 1 3 4 5
M TOR 10 1 3 4 13
M TOR 11 1 3 4 14
M TOR 12 1 3 8 6
M TOR 13 1 3 8 7
M TOR 14 1 3 8 18
M TOR 15 2 1 0 9
M TOR 16 2 3 1 10
M TOR 17 2 3 4 5
M TOR 18 2 3 4 13
M TOR 19 2 3 4 14
M TOR 20 2 3 8 6
M TOR 21 2 3 8 7
M TOR 22 2 3 8 18
M TOR 23 3 1 0 9
M TOR 24 3 4 5 6
M TOR 25 3 8 6 5
M TOR 26 3 8 6 7
M TOR 27 3 8 6 15
M TOR 28 3 8 7 16
M TOR 29 3 8 7 17
M TOR 30 4 3 1 10
M TOR 31 4 3 2 11
M TOR 32 4 3 2 12
M TOR 33 4 3 8 6
M TOR 34 4 3 8 7
M TOR 35 4 3 8 18
M TOR 36 4 5 6 7
M TOR 37 4 5 6 8
M TOR 38 4 5 6 15
M TOR 39 5 4 3 8
M TOR 40 5 6 7 8
M TOR 41 5 6 7 16
M TOR 42 5 6 7 17
M TOR 43 5 6 8 18
M TOR 44 6 5 4 13
M TOR 45 6 5 4 14
M TOR 46 6 7 8 18
M TOR 47 6 8 7 16
M TOR 48 6 8 7 17
M TOR 49 7 8 6 15
M TOR 50 8 3 1 10
M TOR 51 8 3 2 11
M TOR 52 8 3 2 12
M TOR 53 8 3 4 13
M TOR 54 8 3 4 14
M  END
$$$$
