gdb 4824	2.2054674	1.3284974	1.2590062	1.0154	79.07	-0.2306	0.0389	0.2695	1161.775	0.152692	-422.493393	-422.482982	-422.482038	-422.528156	37.753
 OpenBabel02181911413D

 19 19  0  0  1  0  0  0  0  0999 V2000
    1.4117   -0.0113   -0.0877 C   0  0  0  0  0  0  0  0  0  0  0  0
    0.0220   -0.1024    0.2037 O   0  0  0  0  0  0  0  0  0  0  0  0
   -0.3962    0.6969    1.2641 C   0  0  1  0  0  0  0  0  0  0  0  0
   -0.0083    0.2245    2.6471 C   0  0  0  0  0  0  0  0  0  0  0  0
   -0.5608    2.1700    0.9745 C   0  0  1  0  0  0  0  0  0  0  0  0
   -0.1955    2.6987   -0.2549 O   0  0  0  0  0  0  0  0  0  0  0  0
   -1.8062    1.2761    1.0762 C   0  0  1  0  0  0  0  0  0  0  0  0
   -2.5260    1.0315   -0.1338 C   0  0  0  0  0  0  0  0  0  0  0  0
   -3.1028    0.8928   -1.1820 C   0  0  0  0  0  0  0  0  0  0  0  0
    2.0286   -0.4266    0.7209 H   0  0  0  0  0  0  0  0  0  0  0  0
    1.5753   -0.6082   -0.9879 H   0  0  0  0  0  0  0  0  0  0  0  0
    1.7103    1.0249   -0.2782 H   0  0  0  0  0  0  0  0  0  0  0  0
   -0.3893   -0.7861    2.8263 H   0  0  0  0  0  0  0  0  0  0  0  0
    1.0794    0.2097    2.7716 H   0  0  0  0  0  0  0  0  0  0  0  0
   -0.4178    0.8878    3.4146 H   0  0  0  0  0  0  0  0  0  0  0  0
   -0.3947    2.8797    1.7804 H   0  0  0  0  0  0  0  0  0  0  0  0
   -0.7655    2.3046   -0.9299 H   0  0  0  0  0  0  0  0  0  0  0  0
   -2.4094    1.3693    1.9744 H   0  0  0  0  0  0  0  0  0  0  0  0
   -3.6275    0.7260   -2.0900 H   0  0  0  0  0  0  0  0  0  0  0  0
  1  2  1  0  0  0  0
  1 10  1  0  0  0  0
  3  2  1  6  0  0  0
  3  4  1  0  0  0  0
  4 14  1  0  0  0  0
  4 13  1  0  0  0  0
  4 15  1  0  0  0  0
  5  7  1  0  0  0  0
  5  3  1  0  0  0  0
  5 16  1  1  0  0  0
  6  5  1  0  0  0  0
  7  3  1  0  0  0  0
  7 18  1  1  0  0  0
  8  7  1  0  0  0  0
  9  8  3  0  0  0  0
 11  1  1  0  0  0  0
 12  1  1  0  0  0  0
 17  6  1  0  0  0  0
 19  9  1  0  0  0  0
M TOR 0 0 1 2 3
M TOR 1 0 1 2 4
M TOR 2 0 1 2 6
M TOR 3 1 2 3 12
M TOR 4 1 2 3 13
M TOR 5 1 2 3 14
M TOR 6 1 2 4 5
M TOR 7 1 2 4 6
M TOR 8 1 2 4 15
M TOR 9 1 2 6 7
M TOR 10 1 2 6 17
M TOR 11 2 1 0 9
M TOR 12 2 1 0 10
M TOR 13 2 1 0 11
M TOR 14 2 4 5 16
M TOR 15 2 4 6 7
M TOR 16 2 4 6 17
M TOR 17 2 6 4 5
M TOR 18 2 6 4 15
M TOR 19 2 6 7 8
M TOR 20 3 2 4 5
M TOR 21 3 2 4 6
M TOR 22 3 2 4 15
M TOR 23 3 2 6 7
M TOR 24 3 2 6 17
M TOR 25 4 2 3 12
M TOR 26 4 2 3 13
M TOR 27 4 2 3 14
M TOR 28 4 6 7 8
M TOR 29 5 4 6 7
M TOR 30 5 4 6 17
M TOR 31 6 2 3 12
M TOR 32 6 2 3 13
M TOR 33 6 2 3 14
M TOR 34 6 4 5 16
M TOR 35 6 7 8 18
M TOR 36 7 6 4 15
M TOR 37 8 7 6 17
M  END
$$$$
