
     RDKit          3D

 19 21  0  0  0  0  0  0  0  0999 V2000
    1.1255   -0.0250   -2.4306 C   0  0  0  0  0  0  0  0  0  0  0  0
    0.0243    1.0731   -2.5691 C   0  0  0  0  0  0  0  0  0  0  0  0
   -1.4029    0.7103   -2.1140 C   0  0  0  0  0  0  0  0  0  0  0  0
   -1.5862    1.2519   -0.8036 O   0  0  0  0  0  0  0  0  0  0  0  0
   -0.3213    1.5101   -0.2165 C   0  0  0  0  0  0  0  0  0  0  0  0
    0.3066    0.2641    0.4739 C   0  0  0  0  0  0  0  0  0  0  0  0
    1.6581    0.1697    0.0455 O   0  0  0  0  0  0  0  0  0  0  0  0
    1.7617    0.7558   -1.2370 C   0  0  0  0  0  0  0  0  0  0  0  0
    0.6539    1.8297   -1.3644 C   0  0  0  0  0  0  0  0  0  0  0  0
    0.7614   -1.0237   -2.1725 H   0  0  0  0  0  0  0  0  0  0  0  0
    1.7842   -0.1112   -3.2976 H   0  0  0  0  0  0  0  0  0  0  0  0
    0.0339    1.5977   -3.5247 H   0  0  0  0  0  0  0  0  0  0  0  0
   -2.1780    1.1438   -2.7547 H   0  0  0  0  0  0  0  0  0  0  0  0
   -1.5469   -0.3802   -2.1034 H   0  0  0  0  0  0  0  0  0  0  0  0
   -0.4600    2.3318    0.4893 H   0  0  0  0  0  0  0  0  0  0  0  0
    0.3090    0.3316    1.5650 H   0  0  0  0  0  0  0  0  0  0  0  0
   -0.2737   -0.6264    0.1888 H   0  0  0  0  0  0  0  0  0  0  0  0
    2.8016    1.0545   -1.3787 H   0  0  0  0  0  0  0  0  0  0  0  0
    0.9202    2.8806   -1.4642 H   0  0  0  0  0  0  0  0  0  0  0  0
  1  2  1  0
  2  3  1  0
  3  4  1  0
  4  5  1  0
  5  6  1  0
  6  7  1  0
  7  8  1  0
  8  9  1  0
  8  1  1  0
  9  2  1  0
  9  5  1  0
  1 10  1  0
  1 11  1  0
  2 12  1  0
  3 13  1  0
  3 14  1  0
  5 15  1  0
  6 16  1  0
  6 17  1  0
  8 18  1  0
  9 19  1  0
M  END
$$$$
