
     RDKit          3D

 19 19  0  0  0  0  0  0  0  0999 V2000
   -0.4107    5.5905    2.4720 O   0  0  0  0  0  0  0  0  0  0  0  0
   -0.7253    4.7726    1.6492 C   0  0  0  0  0  0  0  0  0  0  0  0
    0.0775    3.5163    1.3576 C   0  0  0  0  0  0  0  0  0  0  0  0
   -0.4968    2.8788    0.2470 O   0  0  0  0  0  0  0  0  0  0  0  0
    0.0531    1.5986   -0.0447 C   0  0  0  0  0  0  0  0  0  0  0  0
    1.4552    1.6512   -0.7102 C   0  0  0  0  0  0  0  0  0  0  0  0
    1.4169    0.5977   -1.8469 C   0  0  0  0  0  0  0  0  0  0  0  0
   -0.0604    0.3573   -2.0423 C   0  0  0  0  0  0  0  0  0  0  0  0
   -0.7951    0.8995   -1.0747 C   0  0  0  0  0  0  0  0  0  0  0  0
   -1.6453    4.8639    1.0307 H   0  0  0  0  0  0  0  0  0  0  0  0
    1.1295    3.7990    1.1947 H   0  0  0  0  0  0  0  0  0  0  0  0
    0.0540    2.8737    2.2563 H   0  0  0  0  0  0  0  0  0  0  0  0
    0.0788    1.0195    0.8962 H   0  0  0  0  0  0  0  0  0  0  0  0
    1.5731    2.6531   -1.1352 H   0  0  0  0  0  0  0  0  0  0  0  0
    2.2742    1.4862   -0.0063 H   0  0  0  0  0  0  0  0  0  0  0  0
    1.9164    0.9400   -2.7601 H   0  0  0  0  0  0  0  0  0  0  0  0
    1.9240   -0.3310   -1.5522 H   0  0  0  0  0  0  0  0  0  0  0  0
   -0.4509   -0.2263   -2.8690 H   0  0  0  0  0  0  0  0  0  0  0  0
   -1.8725    0.8440   -0.9748 H   0  0  0  0  0  0  0  0  0  0  0  0
  1  2  2  0
  2  3  1  0
  3  4  1  0
  4  5  1  0
  5  6  1  0
  6  7  1  0
  7  8  1  0
  8  9  2  0
  9  5  1  0
  2 10  1  0
  3 11  1  0
  3 12  1  0
  5 13  1  0
  6 14  1  0
  6 15  1  0
  7 16  1  0
  7 17  1  0
  8 18  1  0
  9 19  1  0
M  END
$$$$
