
     RDKit          3D

 19 21  0  0  0  0  0  0  0  0999 V2000
    0.2202    0.1903    0.5544 O   0  0  0  0  0  0  0  0  0  0  0  0
   -1.0518    0.7700    0.5278 C   0  0  0  0  0  0  0  0  0  0  0  0
   -1.1137    2.1629    1.1359 C   0  0  0  0  0  0  0  0  0  0  0  0
   -2.4088    2.7564    1.0518 O   0  0  0  0  0  0  0  0  0  0  0  0
   -3.3826    1.9530    0.3862 C   0  0  0  0  0  0  0  0  0  0  0  0
   -3.5228    0.5972    1.1085 C   0  0  0  0  0  0  0  0  0  0  0  0
   -2.2659   -0.1219    0.6406 C   0  0  0  0  0  0  0  0  0  0  0  0
   -1.8637    0.4933   -0.7020 C   0  0  0  0  0  0  0  0  0  0  0  0
   -2.8823    1.5770   -1.0233 C   0  0  0  0  0  0  0  0  0  0  0  0
    0.4088   -0.0726    1.4626 H   0  0  0  0  0  0  0  0  0  0  0  0
   -0.8192    2.1156    2.1965 H   0  0  0  0  0  0  0  0  0  0  0  0
   -0.3846    2.8089    0.6270 H   0  0  0  0  0  0  0  0  0  0  0  0
   -4.2960    2.5500    0.3866 H   0  0  0  0  0  0  0  0  0  0  0  0
   -3.5855    0.7400    2.1917 H   0  0  0  0  0  0  0  0  0  0  0  0
   -4.4236    0.0653    0.7798 H   0  0  0  0  0  0  0  0  0  0  0  0
   -2.1128   -1.1779    0.8312 H   0  0  0  0  0  0  0  0  0  0  0  0
   -1.4155   -0.1133   -1.4793 H   0  0  0  0  0  0  0  0  0  0  0  0
   -2.4643    2.4494   -1.5347 H   0  0  0  0  0  0  0  0  0  0  0  0
   -3.6974    1.1765   -1.6370 H   0  0  0  0  0  0  0  0  0  0  0  0
  1  2  1  0
  2  3  1  0
  3  4  1  0
  4  5  1  0
  5  6  1  0
  6  7  1  0
  7  8  1  0
  8  9  1  0
  7  2  1  0
  8  2  1  0
  9  5  1  0
  1 10  1  0
  3 11  1  0
  3 12  1  0
  5 13  1  0
  6 14  1  0
  6 15  1  0
  7 16  1  0
  8 17  1  0
  9 18  1  0
  9 19  1  0
M  END
$$$$
