
     RDKit          3D

 19 19  0  0  0  0  0  0  0  0999 V2000
    0.3663    0.4575   -3.4988 C   0  0  0  0  0  0  0  0  0  0  0  0
    0.8020    0.1017   -2.0993 C   0  0  0  0  0  0  0  0  0  0  0  0
    1.9183    0.2798   -1.6690 O   0  0  0  0  0  0  0  0  0  0  0  0
   -0.2811   -0.5295   -1.1861 C   0  0  0  0  0  0  0  0  0  0  0  0
   -1.3982   -0.7012   -1.6225 O   0  0  0  0  0  0  0  0  0  0  0  0
    0.1366   -0.8413    0.2222 C   0  0  0  0  0  0  0  0  0  0  0  0
   -0.8460   -1.6303    1.1209 C   0  0  0  0  0  0  0  0  0  0  0  0
   -0.5548   -0.6317    2.2735 C   0  0  0  0  0  0  0  0  0  0  0  0
    0.0371    0.3580    1.2352 C   0  0  0  0  0  0  0  0  0  0  0  0
   -0.0071   -0.4342   -4.0124 H   0  0  0  0  0  0  0  0  0  0  0  0
   -0.4734    1.1588   -3.4627 H   0  0  0  0  0  0  0  0  0  0  0  0
    1.2028    0.8913   -4.0470 H   0  0  0  0  0  0  0  0  0  0  0  0
    1.1532   -1.2388    0.2249 H   0  0  0  0  0  0  0  0  0  0  0  0
   -1.8652   -1.5428    0.7369 H   0  0  0  0  0  0  0  0  0  0  0  0
   -0.6213   -2.6848    1.2936 H   0  0  0  0  0  0  0  0  0  0  0  0
   -1.4045   -0.2839    2.8649 H   0  0  0  0  0  0  0  0  0  0  0  0
    0.2131   -1.0066    2.9556 H   0  0  0  0  0  0  0  0  0  0  0  0
   -0.6994    1.0981    0.9093 H   0  0  0  0  0  0  0  0  0  0  0  0
    0.9707    0.8681    1.4759 H   0  0  0  0  0  0  0  0  0  0  0  0
  1  2  1  0
  2  3  2  0
  2  4  1  0
  4  5  2  0
  4  6  1  0
  6  7  1  0
  7  8  1  0
  8  9  1  0
  9  6  1  0
  1 10  1  0
  1 11  1  0
  1 12  1  0
  6 13  1  0
  7 14  1  0
  7 15  1  0
  8 16  1  0
  8 17  1  0
  9 18  1  0
  9 19  1  0
M  END
$$$$
