
     RDKit          3D

 19 20  0  0  0  0  0  0  0  0999 V2000
    0.0244   -0.0229   -0.0358 C   0  0  0  0  0  0  0  0  0  0  0  0
    1.5537   -0.0223    0.0552 C   0  0  0  0  0  0  0  0  0  0  0  0
    2.0264    1.3083    0.3105 O   0  0  0  0  0  0  0  0  0  0  0  0
    2.0777   -0.9999    1.1084 C   0  0  0  0  0  0  0  0  0  0  0  0
    2.8537   -1.9492    0.5880 C   0  0  0  0  0  0  0  0  0  0  0  0
    3.0125   -1.7730   -0.8909 C   0  0  0  0  0  0  0  0  0  0  0  0
    3.1234   -2.8860   -1.7204 O   0  0  0  0  0  0  0  0  0  0  0  0
    3.7186   -0.5198   -1.3188 C   0  0  0  0  0  0  0  0  0  0  0  0
    2.2045   -0.5313   -1.2306 C   0  0  0  0  0  0  0  0  0  0  0  0
   -0.4245    0.2668    0.9217 H   0  0  0  0  0  0  0  0  0  0  0  0
   -0.3042    0.6902   -0.7984 H   0  0  0  0  0  0  0  0  0  0  0  0
   -0.3548   -1.0166   -0.2938 H   0  0  0  0  0  0  0  0  0  0  0  0
    1.6485    1.5971    1.1485 H   0  0  0  0  0  0  0  0  0  0  0  0
    1.8669   -0.8583    2.1642 H   0  0  0  0  0  0  0  0  0  0  0  0
    3.3644   -2.7368    1.1317 H   0  0  0  0  0  0  0  0  0  0  0  0
    2.3131   -3.4010   -1.6340 H   0  0  0  0  0  0  0  0  0  0  0  0
    4.2807    0.0487   -0.5876 H   0  0  0  0  0  0  0  0  0  0  0  0
    4.1269   -0.5293   -2.3239 H   0  0  0  0  0  0  0  0  0  0  0  0
    1.6457   -0.4756   -2.1573 H   0  0  0  0  0  0  0  0  0  0  0  0
  1  2  1  0
  2  3  1  0
  2  4  1  0
  4  5  2  0
  5  6  1  0
  6  7  1  0
  6  8  1  0
  8  9  1  0
  9  2  1  0
  9  6  1  0
  1 10  1  0
  1 11  1  0
  1 12  1  0
  3 13  1  0
  4 14  1  0
  5 15  1  0
  7 16  1  0
  8 17  1  0
  8 18  1  0
  9 19  1  0
M  END
$$$$
