
     RDKit          3D

 19 20  0  0  0  0  0  0  0  0999 V2000
   -0.2509    0.1470    0.0778 C   0  0  0  0  0  0  0  0  0  0  0  0
    1.2633    0.0141    0.1421 C   0  0  0  0  0  0  0  0  0  0  0  0
    1.9681   -0.6657   -1.0395 C   0  0  0  0  0  0  0  0  0  0  0  0
    1.5528   -2.0450   -1.0692 O   0  0  0  0  0  0  0  0  0  0  0  0
    2.5975   -1.6688   -0.1764 C   0  0  0  0  0  0  0  0  0  0  0  0
    1.9182   -1.0697    1.0957 C   0  0  0  0  0  0  0  0  0  0  0  0
    1.0210   -2.0384    1.8615 C   0  0  0  0  0  0  0  0  0  0  0  0
    2.9798   -0.4817    2.0049 C   0  0  0  0  0  0  0  0  0  0  0  0
    3.3828    0.6534    1.9799 O   0  0  0  0  0  0  0  0  0  0  0  0
   -0.6649    0.4546    1.0434 H   0  0  0  0  0  0  0  0  0  0  0  0
   -0.5343    0.9075   -0.6577 H   0  0  0  0  0  0  0  0  0  0  0  0
   -0.7210   -0.7955   -0.2146 H   0  0  0  0  0  0  0  0  0  0  0  0
    1.7378    0.9752    0.3585 H   0  0  0  0  0  0  0  0  0  0  0  0
    2.3034   -0.2376   -1.9770 H   0  0  0  0  0  0  0  0  0  0  0  0
    3.5417   -2.1967   -0.2532 H   0  0  0  0  0  0  0  0  0  0  0  0
    0.3559   -1.5085    2.5511 H   0  0  0  0  0  0  0  0  0  0  0  0
    0.4087   -2.6129    1.1638 H   0  0  0  0  0  0  0  0  0  0  0  0
    1.6190   -2.7436    2.4504 H   0  0  0  0  0  0  0  0  0  0  0  0
    3.4080   -1.2182    2.7245 H   0  0  0  0  0  0  0  0  0  0  0  0
  1  2  1  0
  2  3  1  0
  3  4  1  0
  4  5  1  0
  5  6  1  0
  6  7  1  0
  6  8  1  0
  8  9  2  0
  6  2  1  0
  5  3  1  0
  1 10  1  0
  1 11  1  0
  1 12  1  0
  2 13  1  0
  3 14  1  0
  5 15  1  0
  7 16  1  0
  7 17  1  0
  7 18  1  0
  8 19  1  0
M  END
$$$$
