
     RDKit          3D

 19 20  0  0  0  0  0  0  0  0999 V2000
    1.4650    0.8252    0.0214 O   0  0  0  0  0  0  0  0  0  0  0  0
    0.0946    0.5926    0.3074 C   0  0  0  0  0  0  0  0  0  0  0  0
   -0.8326    1.2398   -0.7259 C   0  0  0  0  0  0  0  0  0  0  0  0
   -2.2974    0.9910   -0.4772 C   0  0  0  0  0  0  0  0  0  0  0  0
   -3.0443    1.1739    0.8915 C   0  0  0  0  0  0  0  0  0  0  0  0
   -3.9247    0.1225    0.1578 C   0  0  0  0  0  0  0  0  0  0  0  0
   -2.6939   -0.4309   -0.4098 O   0  0  0  0  0  0  0  0  0  0  0  0
   -4.4705    0.9475   -1.0246 C   0  0  0  0  0  0  0  0  0  0  0  0
   -3.3599    1.5433   -1.4577 C   0  0  0  0  0  0  0  0  0  0  0  0
    1.6812    0.3478   -0.7858 H   0  0  0  0  0  0  0  0  0  0  0  0
   -0.1329   -0.4794    0.3836 H   0  0  0  0  0  0  0  0  0  0  0  0
   -0.0775    1.0326    1.2953 H   0  0  0  0  0  0  0  0  0  0  0  0
   -0.6484    2.3203   -0.7544 H   0  0  0  0  0  0  0  0  0  0  0  0
   -0.5863    0.8504   -1.7238 H   0  0  0  0  0  0  0  0  0  0  0  0
   -2.4980    0.7494    1.7372 H   0  0  0  0  0  0  0  0  0  0  0  0
   -3.4740    2.1496    1.1268 H   0  0  0  0  0  0  0  0  0  0  0  0
   -4.5584   -0.6039    0.6640 H   0  0  0  0  0  0  0  0  0  0  0  0
   -5.4920    1.0058   -1.3702 H   0  0  0  0  0  0  0  0  0  0  0  0
   -3.1892    2.2372   -2.2680 H   0  0  0  0  0  0  0  0  0  0  0  0
  1  2  1  0
  2  3  1  0
  3  4  1  0
  4  5  1  0
  5  6  1  0
  6  7  1  0
  6  8  1  0
  8  9  2  0
  7  4  1  0
  9  4  1  0
  1 10  1  0
  2 11  1  0
  2 12  1  0
  3 13  1  0
  3 14  1  0
  5 15  1  0
  5 16  1  0
  6 17  1  0
  8 18  1  0
  9 19  1  0
M  END
$$$$
