
     RDKit          3D

 19 20  0  0  0  0  0  0  0  0999 V2000
    3.4441   -0.9494    1.3155 C   0  0  0  0  0  0  0  0  0  0  0  0
    2.4982    0.0606    0.7568 C   0  0  0  0  0  0  0  0  0  0  0  0
    2.8610    0.6825   -0.4759 O   0  0  0  0  0  0  0  0  0  0  0  0
    2.3048    1.9466   -0.0111 C   0  0  0  0  0  0  0  0  0  0  0  0
    1.7954    1.2838    1.2573 C   0  0  0  0  0  0  0  0  0  0  0  0
    0.9464    0.0616    0.8822 C   0  0  0  0  0  0  0  0  0  0  0  0
    0.0643   -0.0001   -0.3476 C   0  0  0  0  0  0  0  0  0  0  0  0
    0.4486   -0.6712    2.0735 C   0  0  0  0  0  0  0  0  0  0  0  0
    0.8860   -0.5655    3.1987 O   0  0  0  0  0  0  0  0  0  0  0  0
    3.0897   -1.3175    2.2789 H   0  0  0  0  0  0  0  0  0  0  0  0
    3.5466   -1.7937    0.6249 H   0  0  0  0  0  0  0  0  0  0  0  0
    4.4335   -0.5020    1.4515 H   0  0  0  0  0  0  0  0  0  0  0  0
    3.1096    2.6666    0.1696 H   0  0  0  0  0  0  0  0  0  0  0  0
    1.5765    2.3680   -0.7118 H   0  0  0  0  0  0  0  0  0  0  0  0
    1.7459    1.6988    2.2546 H   0  0  0  0  0  0  0  0  0  0  0  0
   -0.3813   -0.9959   -0.4457 H   0  0  0  0  0  0  0  0  0  0  0  0
   -0.7546    0.7261   -0.3007 H   0  0  0  0  0  0  0  0  0  0  0  0
    0.6467    0.1905   -1.2512 H   0  0  0  0  0  0  0  0  0  0  0  0
   -0.3912   -1.3691    1.8563 H   0  0  0  0  0  0  0  0  0  0  0  0
  1  2  1  0
  2  3  1  0
  3  4  1  0
  4  5  1  0
  5  6  1  0
  6  7  1  0
  6  8  1  0
  8  9  2  0
  5  2  1  0
  6  2  1  0
  1 10  1  0
  1 11  1  0
  1 12  1  0
  4 13  1  0
  4 14  1  0
  5 15  1  0
  7 16  1  0
  7 17  1  0
  7 18  1  0
  8 19  1  0
M  END
$$$$
