gdb 5175	3.532307	1.2415074	1.1400591	2.2153	75.22	-0.23283	0.07085	0.30368	1149.3739	0.155704	-422.50116	-422.492603	-422.491659	-422.534264	32.711
 OpenBabel02181911423D

 19 21  0  0  1  0  0  0  0  0999 V2000
   -3.6359    0.9306    2.9261 C   0  0  0  0  0  0  0  0  0  0  0  0
   -2.5029    0.0017    2.6253 C   0  0  1  0  0  0  0  0  0  0  0  0
   -1.9470   -1.0582    3.6197 C   0  0  0  0  0  0  0  0  0  0  0  0
   -1.3279   -1.7079    2.3853 C   0  0  1  0  0  0  0  0  0  0  0  0
   -2.3619   -1.0638    1.4617 C   0  0  2  0  0  0  0  0  0  0  0  0
   -0.9725   -0.5299    1.4610 C   0  0  2  0  0  0  0  0  0  0  0  0
    0.1328   -0.4817    0.4618 C   0  0  0  0  0  0  0  0  0  0  0  0
    1.3965   -0.2709    1.0726 O   0  0  0  0  0  0  0  0  0  0  0  0
   -1.2837    0.6768    2.1693 O   0  0  0  0  0  0  0  0  0  0  0  0
   -3.3573    1.6109    3.7384 H   0  0  0  0  0  0  0  0  0  0  0  0
   -3.8903    1.5311    2.0482 H   0  0  0  0  0  0  0  0  0  0  0  0
   -4.5217    0.3684    3.2367 H   0  0  0  0  0  0  0  0  0  0  0  0
   -1.2917   -0.6803    4.4111 H   0  0  0  0  0  0  0  0  0  0  0  0
   -2.7460   -1.6743    4.0413 H   0  0  0  0  0  0  0  0  0  0  0  0
   -0.8599   -2.6789    2.2874 H   0  0  0  0  0  0  0  0  0  0  0  0
   -3.0237   -1.4500    0.6984 H   0  0  0  0  0  0  0  0  0  0  0  0
    0.1913   -1.4392   -0.0665 H   0  0  0  0  0  0  0  0  0  0  0  0
   -0.0844    0.2995   -0.2832 H   0  0  0  0  0  0  0  0  0  0  0  0
    1.3105    0.5141    1.6248 H   0  0  0  0  0  0  0  0  0  0  0  0
  1 12  1  0  0  0  0
  1 10  1  0  0  0  0
  2  1  1  1  0  0  0
  2  3  1  0  0  0  0
  3 14  1  0  0  0  0
  3 13  1  0  0  0  0
  4 15  1  6  0  0  0
  4  3  1  0  0  0  0
  5 16  1  6  0  0  0
  5  4  1  0  0  0  0
  5  2  1  0  0  0  0
  6  7  1  6  0  0  0
  6  5  1  0  0  0  0
  6  9  1  0  0  0  0
  6  4  1  0  0  0  0
  7  8  1  0  0  0  0
  8 19  1  0  0  0  0
  9  2  1  0  0  0  0
 11  1  1  0  0  0  0
 17  7  1  0  0  0  0
 18  7  1  0  0  0  0
M TOR 0 0 1 2 3
M TOR 1 0 1 2 12
M TOR 2 0 1 2 13
M TOR 3 0 1 4 3
M TOR 4 0 1 4 5
M TOR 5 0 1 4 15
M TOR 6 0 1 8 5
M TOR 7 1 2 3 4
M TOR 8 1 2 3 5
M TOR 9 1 2 3 14
M TOR 10 1 4 3 5
M TOR 11 1 4 3 14
M TOR 12 1 4 5 6
M TOR 13 1 4 5 8
M TOR 14 1 8 5 3
M TOR 15 1 8 5 6
M TOR 16 2 1 0 9
M TOR 17 2 1 0 10
M TOR 18 2 1 0 11
M TOR 19 2 1 4 5
M TOR 20 2 1 4 15
M TOR 21 2 1 8 5
M TOR 22 2 3 4 5
M TOR 23 2 3 4 15
M TOR 24 2 3 5 6
M TOR 25 2 3 5 8
M TOR 26 3 2 1 8
M TOR 27 3 4 1 8
M TOR 28 3 4 5 6
M TOR 29 3 4 5 8
M TOR 30 3 5 4 15
M TOR 31 3 5 6 7
M TOR 32 3 5 6 16
M TOR 33 3 5 6 17
M TOR 34 4 1 0 9
M TOR 35 4 1 0 10
M TOR 36 4 1 0 11
M TOR 37 4 1 2 12
M TOR 38 4 1 2 13
M TOR 39 4 3 2 12
M TOR 40 4 3 2 13
M TOR 41 4 5 3 14
M TOR 42 4 5 6 7
M TOR 43 4 5 6 16
M TOR 44 4 5 6 17
M TOR 45 5 3 2 12
M TOR 46 5 3 2 13
M TOR 47 5 6 7 18
M TOR 48 6 5 3 14
M TOR 49 6 5 4 15
M TOR 50 7 6 5 8
M TOR 51 8 1 0 9
M TOR 52 8 1 0 10
M TOR 53 8 1 0 11
M TOR 54 8 1 2 12
M TOR 55 8 1 2 13
M TOR 56 8 1 4 15
M TOR 57 8 5 3 14
M TOR 58 8 5 4 15
M TOR 59 8 5 6 16
M TOR 60 8 5 6 17
M  END
$$$$
