gdb 4068	3.0300606	1.4114482	1.1532945	0.282	75.2	-0.2421	0.07927	0.32137	1100.4115	0.156792	-422.51621	-422.507973	-422.507029	-422.548645	32.386
 OpenBabel02181911413D

 19 21  0  0  1  0  0  0  0  0999 V2000
    0.1035    0.3042    0.0145 O   0  0  0  0  0  0  0  0  0  0  0  0
   -0.9213   -0.0217    0.9343 C   0  0  1  0  0  0  0  0  0  0  0  0
   -1.1880    1.0518    2.0327 C   0  0  0  0  0  0  0  0  0  0  0  0
   -2.6052    1.3071    1.4604 C   0  0  2  0  0  0  0  0  0  0  0  0
   -3.6743    0.3701    2.0081 C   0  0  1  0  0  0  0  0  0  0  0  0
   -4.7156    0.1067    0.9425 C   0  0  0  0  0  0  0  0  0  0  0  0
   -3.4041   -0.6264    0.8834 C   0  0  2  0  0  0  0  0  0  0  0  0
   -3.3154   -2.0039    1.0052 O   0  0  0  0  0  0  0  0  0  0  0  0
   -2.3062    0.2571    0.3068 C   0  0  2  0  0  0  0  0  0  0  0  0
    0.9487    0.1930    0.4621 H   0  0  0  0  0  0  0  0  0  0  0  0
   -0.8070   -1.0490    1.3028 H   0  0  0  0  0  0  0  0  0  0  0  0
   -1.1409    0.7251    3.0757 H   0  0  0  0  0  0  0  0  0  0  0  0
   -0.5221    1.9074    1.8934 H   0  0  0  0  0  0  0  0  0  0  0  0
   -2.8939    2.3426    1.2686 H   0  0  0  0  0  0  0  0  0  0  0  0
   -3.8713    0.1766    3.0566 H   0  0  0  0  0  0  0  0  0  0  0  0
   -5.5451   -0.5119    1.2707 H   0  0  0  0  0  0  0  0  0  0  0  0
   -4.9770    0.8741    0.2166 H   0  0  0  0  0  0  0  0  0  0  0  0
   -3.6424   -2.4019    0.1906 H   0  0  0  0  0  0  0  0  0  0  0  0
   -2.2971    0.4821   -0.7619 H   0  0  0  0  0  0  0  0  0  0  0  0
  1 10  1  0  0  0  0
  1  2  1  0  0  0  0
  2 11  1  1  0  0  0
  2  3  1  0  0  0  0
  3 12  1  0  0  0  0
  4 14  1  6  0  0  0
  4  5  1  0  0  0  0
  4  3  1  0  0  0  0
  5 15  1  1  0  0  0
  6 16  1  0  0  0  0
  6  5  1  0  0  0  0
  7  6  1  0  0  0  0
  7  8  1  1  0  0  0
  7  5  1  0  0  0  0
  9 19  1  6  0  0  0
  9  7  1  0  0  0  0
  9  2  1  0  0  0  0
  9  4  1  0  0  0  0
 13  3  1  0  0  0  0
 17  6  1  0  0  0  0
 18  8  1  0  0  0  0
M TOR 0 0 1 2 3
M TOR 1 0 1 2 11
M TOR 2 0 1 2 12
M TOR 3 0 1 8 3
M TOR 4 0 1 8 6
M TOR 5 0 1 8 18
M TOR 6 1 2 3 4
M TOR 7 1 2 3 8
M TOR 8 1 2 3 13
M TOR 9 1 8 3 4
M TOR 10 1 8 3 13
M TOR 11 1 8 6 4
M TOR 12 1 8 6 5
M TOR 13 1 8 6 7
M TOR 14 2 1 0 9
M TOR 15 2 1 8 6
M TOR 16 2 1 8 18
M TOR 17 2 3 4 5
M TOR 18 2 3 4 6
M TOR 19 2 3 4 14
M TOR 20 2 3 8 6
M TOR 21 2 3 8 18
M TOR 22 3 2 1 10
M TOR 23 3 4 5 6
M TOR 24 3 4 5 15
M TOR 25 3 4 5 16
M TOR 26 3 4 6 7
M TOR 27 3 4 6 8
M TOR 28 3 8 1 10
M TOR 29 3 8 6 5
M TOR 30 3 8 6 7
M TOR 31 4 3 2 11
M TOR 32 4 3 2 12
M TOR 33 4 3 8 18
M TOR 34 4 5 6 7
M TOR 35 4 5 6 8
M TOR 36 4 6 5 15
M TOR 37 4 6 5 16
M TOR 38 4 6 7 17
M TOR 39 4 6 8 18
M TOR 40 5 4 3 8
M TOR 41 5 4 3 13
M TOR 42 5 6 4 14
M TOR 43 5 6 7 17
M TOR 44 5 6 8 18
M TOR 45 6 4 3 13
M TOR 46 6 8 1 10
M TOR 47 6 8 3 13
M TOR 48 7 6 4 14
M TOR 49 7 6 5 15
M TOR 50 7 6 5 16
M TOR 51 7 6 8 18
M TOR 52 8 1 0 9
M TOR 53 8 1 2 11
M TOR 54 8 1 2 12
M TOR 55 8 3 2 11
M TOR 56 8 3 2 12
M TOR 57 8 3 4 14
M TOR 58 8 6 4 14
M TOR 59 8 6 5 15
M TOR 60 8 6 5 16
M TOR 61 8 6 7 17
M  END
$$$$
