gdb 810	2.4380559	1.6026598	1.2960607	2.6488	74.85	-0.24382	-0.03189	0.21193	1053.9562	0.1576	-422.569037	-422.560968	-422.560024	-422.601863	30.393
 OpenBabel02181911403D

 19 20  0  0  1  0  0  0  0  0999 V2000
   -0.0075   -0.6067    0.6877 O   0  0  0  0  0  0  0  0  0  0  0  0
    0.3745   -0.1394   -0.3553 C   0  0  0  0  0  0  0  0  0  0  0  0
   -0.4510    0.7761   -1.2299 C   0  0  2  0  0  0  0  0  0  0  0  0
   -1.3489    1.7621   -0.4840 C   0  0  0  0  0  0  0  0  0  0  0  0
   -2.4889    2.0662   -1.4737 C   0  0  0  0  0  0  0  0  0  0  0  0
   -2.7393    0.7157   -2.1756 C   0  0  0  0  0  0  0  0  0  0  0  0
   -1.3497    0.0812   -2.3171 C   0  0  1  0  0  0  0  0  0  0  0  0
   -0.3787    0.7433   -3.3151 C   0  0  0  0  0  0  0  0  0  0  0  0
    0.3603    1.3920   -2.2567 O   0  0  0  0  0  0  0  0  0  0  0  0
    1.3792   -0.3675   -0.7771 H   0  0  0  0  0  0  0  0  0  0  0  0
   -1.7236    1.2586    0.4139 H   0  0  0  0  0  0  0  0  0  0  0  0
   -0.7916    2.6493   -0.1713 H   0  0  0  0  0  0  0  0  0  0  0  0
   -3.3830    2.4607   -0.9844 H   0  0  0  0  0  0  0  0  0  0  0  0
   -2.1575    2.8163   -2.1997 H   0  0  0  0  0  0  0  0  0  0  0  0
   -3.3663    0.0751   -1.5453 H   0  0  0  0  0  0  0  0  0  0  0  0
   -3.2469    0.8196   -3.1403 H   0  0  0  0  0  0  0  0  0  0  0  0
   -1.3646   -1.0090   -2.3358 H   0  0  0  0  0  0  0  0  0  0  0  0
    0.2533    0.0496   -3.8826 H   0  0  0  0  0  0  0  0  0  0  0  0
   -0.8243    1.4677   -4.0082 H   0  0  0  0  0  0  0  0  0  0  0  0
  2  1  2  0  0  0  0
  3  4  1  0  0  0  0
  3  2  1  1  0  0  0
  4 12  1  0  0  0  0
  4 11  1  0  0  0  0
  5 13  1  0  0  0  0
  5  4  1  0  0  0  0
  6 15  1  0  0  0  0
  6  5  1  0  0  0  0
  7 17  1  1  0  0  0
  7  6  1  0  0  0  0
  7  3  1  0  0  0  0
  8  7  1  0  0  0  0
  8  9  1  0  0  0  0
  9  3  1  0  0  0  0
 10  2  1  0  0  0  0
 14  5  1  0  0  0  0
 16  6  1  0  0  0  0
 18  8  1  0  0  0  0
 19  8  1  0  0  0  0
M TOR 0 0 1 2 3
M TOR 1 0 1 2 6
M TOR 2 0 1 2 8
M TOR 3 1 2 3 4
M TOR 4 1 2 3 10
M TOR 5 1 2 3 11
M TOR 6 1 2 6 5
M TOR 7 1 2 6 7
M TOR 8 1 2 6 16
M TOR 9 1 2 8 7
M TOR 10 2 3 4 5
M TOR 11 2 3 4 12
M TOR 12 2 3 4 13
M TOR 13 2 6 5 4
M TOR 14 2 6 5 14
M TOR 15 2 6 5 15
M TOR 16 2 6 7 8
M TOR 17 2 6 7 17
M TOR 18 2 6 7 18
M TOR 19 2 8 7 17
M TOR 20 2 8 7 18
M TOR 21 3 2 1 9
M TOR 22 3 2 6 5
M TOR 23 3 2 6 7
M TOR 24 3 2 6 16
M TOR 25 3 2 8 7
M TOR 26 3 4 5 6
M TOR 27 3 4 5 14
M TOR 28 3 4 5 15
M TOR 29 4 3 2 6
M TOR 30 4 3 2 8
M TOR 31 4 5 6 7
M TOR 32 4 5 6 16
M TOR 33 5 4 3 10
M TOR 34 5 4 3 11
M TOR 35 5 6 2 8
M TOR 36 5 6 7 8
M TOR 37 5 6 7 17
M TOR 38 5 6 7 18
M TOR 39 6 2 1 9
M TOR 40 6 2 3 10
M TOR 41 6 2 3 11
M TOR 42 6 5 4 12
M TOR 43 6 5 4 13
M TOR 44 7 6 5 14
M TOR 45 7 6 5 15
M TOR 46 8 2 1 9
M TOR 47 8 2 3 10
M TOR 48 8 2 3 11
M TOR 49 8 2 6 16
M TOR 50 8 7 6 16
M  END
$$$$
