
     RDKit          3D

 19 21  0  0  0  0  0  0  0  0999 V2000
    2.5234    1.5684    1.5932 C   0  0  0  0  0  0  0  0  0  0  0  0
    1.2615    2.2899    1.9357 C   0  0  0  0  0  0  0  0  0  0  0  0
    0.6425    3.0264    0.9204 O   0  0  0  0  0  0  0  0  0  0  0  0
   -0.6682    2.5450    0.6366 C   0  0  0  0  0  0  0  0  0  0  0  0
   -0.6055    1.1736   -0.0204 C   0  0  0  0  0  0  0  0  0  0  0  0
    0.2315    1.0819   -1.3109 C   0  0  0  0  0  0  0  0  0  0  0  0
    1.2370    0.2779   -0.6594 O   0  0  0  0  0  0  0  0  0  0  0  0
    0.4936    0.2433    0.5817 C   0  0  0  0  0  0  0  0  0  0  0  0
    1.2416    0.7832    1.7860 C   0  0  0  0  0  0  0  0  0  0  0  0
    2.8766    1.6552    0.5732 H   0  0  0  0  0  0  0  0  0  0  0  0
    3.2909    1.4828    2.3539 H   0  0  0  0  0  0  0  0  0  0  0  0
    1.1449    2.7227    2.9287 H   0  0  0  0  0  0  0  0  0  0  0  0
   -1.2705    2.5066    1.5575 H   0  0  0  0  0  0  0  0  0  0  0  0
   -1.1249    3.2808   -0.0334 H   0  0  0  0  0  0  0  0  0  0  0  0
   -1.6007    0.7278   -0.0814 H   0  0  0  0  0  0  0  0  0  0  0  0
   -0.2418    0.5479   -2.1438 H   0  0  0  0  0  0  0  0  0  0  0  0
    0.6440    2.0308   -1.6734 H   0  0  0  0  0  0  0  0  0  0  0  0
    0.1460   -0.7753    0.7907 H   0  0  0  0  0  0  0  0  0  0  0  0
    1.1505    0.1931    2.6918 H   0  0  0  0  0  0  0  0  0  0  0  0
  1  2  1  0
  2  3  1  0
  3  4  1  0
  4  5  1  0
  5  6  1  0
  6  7  1  0
  7  8  1  0
  8  9  1  0
  9  1  1  0
  9  2  1  0
  8  5  1  0
  1 10  1  0
  1 11  1  0
  2 12  1  0
  4 13  1  0
  4 14  1  0
  5 15  1  0
  6 16  1  0
  6 17  1  0
  8 18  1  0
  9 19  1  0
M  END
$$$$
