gdb 1093	3.1085916	1.3377848	1.087029	1.4527	75.95	-0.24598	-0.01664	0.22934000000000002	1146.709	0.156948	-422.570861	-422.562351	-422.561407	-422.604299	31.775
 OpenBabel02181911403D

 19 20  0  0  1  0  0  0  0  0999 V2000
   -1.3956    3.2923   -1.7076 C   0  0  0  0  0  0  0  0  0  0  0  0
   -0.2225    2.5683   -2.3429 C   0  0  0  0  0  0  0  0  0  0  0  0
   -0.0941    2.5102   -3.5489 O   0  0  0  0  0  0  0  0  0  0  0  0
    0.7715    1.9248   -1.4319 C   0  0  2  0  0  0  0  0  0  0  0  0
    2.1847    1.7273   -1.9621 C   0  0  0  0  0  0  0  0  0  0  0  0
    1.3123    0.5342   -1.7842 C   0  0  1  0  0  0  0  0  0  0  0  0
    1.4189   -0.1909   -0.4563 C   0  0  0  0  0  0  0  0  0  0  0  0
    1.4555    0.8318    0.5357 O   0  0  0  0  0  0  0  0  0  0  0  0
    0.6530    1.9192    0.0867 C   0  0  0  0  0  0  0  0  0  0  0  0
   -1.0485    4.0433   -0.9891 H   0  0  0  0  0  0  0  0  0  0  0  0
   -1.9897    3.7704   -2.4869 H   0  0  0  0  0  0  0  0  0  0  0  0
   -2.0248    2.5875   -1.1520 H   0  0  0  0  0  0  0  0  0  0  0  0
    2.3427    2.0741   -2.9760 H   0  0  0  0  0  0  0  0  0  0  0  0
    2.9973    1.8854   -1.2605 H   0  0  0  0  0  0  0  0  0  0  0  0
    0.9202    0.0236   -2.6551 H   0  0  0  0  0  0  0  0  0  0  0  0
    0.5522   -0.8568   -0.3157 H   0  0  0  0  0  0  0  0  0  0  0  0
    2.3324   -0.7834   -0.3418 H   0  0  0  0  0  0  0  0  0  0  0  0
   -0.3971    1.7864    0.3924 H   0  0  0  0  0  0  0  0  0  0  0  0
    1.0390    2.8223    0.5716 H   0  0  0  0  0  0  0  0  0  0  0  0
  1 12  1  0  0  0  0
  1 10  1  0  0  0  0
  2  1  1  0  0  0  0
  3  2  2  0  0  0  0
  4  2  1  6  0  0  0
  4  9  1  0  0  0  0
  5  6  1  0  0  0  0
  5  4  1  0  0  0  0
  5 14  1  0  0  0  0
  6 15  1  6  0  0  0
  6  4  1  0  0  0  0
  6  7  1  0  0  0  0
  7 17  1  0  0  0  0
  7 16  1  0  0  0  0
  7  8  1  0  0  0  0
  9 18  1  0  0  0  0
  9  8  1  0  0  0  0
  9 19  1  0  0  0  0
 11  1  1  0  0  0  0
 13  5  1  0  0  0  0
M TOR 0 0 1 3 4
M TOR 1 0 1 3 5
M TOR 2 0 1 3 8
M TOR 3 1 3 4 5
M TOR 4 1 3 4 12
M TOR 5 1 3 4 13
M TOR 6 1 3 5 6
M TOR 7 1 3 5 14
M TOR 8 1 3 8 7
M TOR 9 1 3 8 17
M TOR 10 1 3 8 18
M TOR 11 2 1 0 9
M TOR 12 2 1 0 10
M TOR 13 2 1 0 11
M TOR 14 2 1 3 4
M TOR 15 2 1 3 5
M TOR 16 2 1 3 8
M TOR 17 3 1 0 9
M TOR 18 3 1 0 10
M TOR 19 3 1 0 11
M TOR 20 3 4 5 6
M TOR 21 3 4 5 14
M TOR 22 3 5 4 12
M TOR 23 3 5 4 13
M TOR 24 3 5 6 7
M TOR 25 3 5 6 15
M TOR 26 3 5 6 16
M TOR 27 3 8 7 6
M TOR 28 4 3 8 7
M TOR 29 4 3 8 17
M TOR 30 4 3 8 18
M TOR 31 4 5 3 8
M TOR 32 4 5 6 7
M TOR 33 4 5 6 15
M TOR 34 4 5 6 16
M TOR 35 5 3 8 7
M TOR 36 5 3 8 17
M TOR 37 5 3 8 18
M TOR 38 5 6 7 8
M TOR 39 6 5 3 8
M TOR 40 6 5 4 12
M TOR 41 6 5 4 13
M TOR 42 6 7 8 17
M TOR 43 6 7 8 18
M TOR 44 7 6 5 14
M TOR 45 8 3 4 12
M TOR 46 8 3 4 13
M TOR 47 8 3 5 14
M TOR 48 8 7 6 15
M TOR 49 8 7 6 16
M  END
$$$$
