gdb 3407	2.910063	1.3966461	1.1175957	2.7802	77.11	-0.22701	0.00736	0.23437	1127.6275	0.157495	-422.554667	-422.54627	-422.545326	-422.587076	33.002
 OpenBabel02181911413D

 19 20  0  0  1  0  0  0  0  0999 V2000
    0.3860   -0.2112    0.4342 O   0  0  0  0  0  0  0  0  0  0  0  0
   -0.7221    0.5149    0.8483 C   0  0  1  0  0  0  0  0  0  0  0  0
   -1.5458    0.0606    2.0430 C   0  0  2  0  0  0  0  0  0  0  0  0
   -3.0523    0.3091    2.0749 C   0  0  0  0  0  0  0  0  0  0  0  0
   -3.4434    1.5050    2.9654 C   0  0  0  0  0  0  0  0  0  0  0  0
   -2.5487    2.7028    2.7422 C   0  0  0  0  0  0  0  0  0  0  0  0
   -1.2734    2.5925    2.3649 C   0  0  0  0  0  0  0  0  0  0  0  0
   -0.6361    1.2733    2.1513 C   0  0  2  0  0  0  0  0  0  0  0  0
    0.6322    1.1078    2.7498 O   0  0  0  0  0  0  0  0  0  0  0  0
    1.0568   -0.0865    1.1203 H   0  0  0  0  0  0  0  0  0  0  0  0
   -1.2573    0.9732    0.0200 H   0  0  0  0  0  0  0  0  0  0  0  0
   -1.1746   -0.8394    2.5249 H   0  0  0  0  0  0  0  0  0  0  0  0
   -3.4097    0.5084    1.0570 H   0  0  0  0  0  0  0  0  0  0  0  0
   -3.5718   -0.5943    2.4105 H   0  0  0  0  0  0  0  0  0  0  0  0
   -4.4878    1.7792    2.7795 H   0  0  0  0  0  0  0  0  0  0  0  0
   -3.3996    1.2163    4.0263 H   0  0  0  0  0  0  0  0  0  0  0  0
   -2.9779    3.6876    2.9091 H   0  0  0  0  0  0  0  0  0  0  0  0
   -0.6461    3.4686    2.2211 H   0  0  0  0  0  0  0  0  0  0  0  0
    0.5079    0.9805    3.6964 H   0  0  0  0  0  0  0  0  0  0  0  0
  1  2  1  0  0  0  0
  1 10  1  0  0  0  0
  2 11  1  6  0  0  0
  2  3  1  0  0  0  0
  2  8  1  0  0  0  0
  3  4  1  0  0  0  0
  3  8  1  0  0  0  0
  3 12  1  1  0  0  0
  4 14  1  0  0  0  0
  4  5  1  0  0  0  0
  5 16  1  0  0  0  0
  6 17  1  0  0  0  0
  6  5  1  0  0  0  0
  7  6  2  0  0  0  0
  8  7  1  0  0  0  0
  8  9  1  1  0  0  0
  9 19  1  0  0  0  0
 13  4  1  0  0  0  0
 15  5  1  0  0  0  0
 18  7  1  0  0  0  0
M TOR 0 0 1 2 3
M TOR 1 0 1 2 7
M TOR 2 0 1 2 11
M TOR 3 0 1 7 6
M TOR 4 0 1 7 8
M TOR 5 1 2 3 4
M TOR 6 1 2 3 12
M TOR 7 1 2 3 13
M TOR 8 1 2 7 6
M TOR 9 1 2 7 8
M TOR 10 1 7 2 3
M TOR 11 1 7 2 11
M TOR 12 1 7 6 5
M TOR 13 1 7 6 17
M TOR 14 1 7 8 18
M TOR 15 2 1 0 9
M TOR 16 2 3 4 5
M TOR 17 2 3 4 14
M TOR 18 2 3 4 15
M TOR 19 2 7 1 10
M TOR 20 2 7 6 5
M TOR 21 2 7 6 17
M TOR 22 2 7 8 18
M TOR 23 3 2 1 10
M TOR 24 3 2 7 6
M TOR 25 3 2 7 8
M TOR 26 3 4 5 6
M TOR 27 3 4 5 16
M TOR 28 4 3 2 7
M TOR 29 4 3 2 11
M TOR 30 4 5 6 7
M TOR 31 4 5 6 17
M TOR 32 5 4 3 12
M TOR 33 5 4 3 13
M TOR 34 5 6 7 8
M TOR 35 6 5 4 14
M TOR 36 6 5 4 15
M TOR 37 6 7 1 10
M TOR 38 6 7 2 11
M TOR 39 6 7 8 18
M TOR 40 7 1 0 9
M TOR 41 7 2 3 12
M TOR 42 7 2 3 13
M TOR 43 7 6 5 16
M TOR 44 8 7 1 10
M TOR 45 8 7 2 11
M TOR 46 8 7 6 17
M  END
$$$$
