
     RDKit          3D

 19 21  0  0  0  0  0  0  0  0999 V2000
    1.3503    0.8135    0.3792 C   0  0  0  0  0  0  0  0  0  0  0  0
    0.9257   -0.5766   -0.1070 C   0  0  0  0  0  0  0  0  0  0  0  0
    1.6017   -0.9942   -1.3786 C   0  0  0  0  0  0  0  0  0  0  0  0
    3.0353   -0.9864   -1.4000 O   0  0  0  0  0  0  0  0  0  0  0  0
    2.9135   -1.1356   -2.8454 C   0  0  0  0  0  0  0  0  0  0  0  0
    2.4196   -2.5895   -2.9581 C   0  0  0  0  0  0  0  0  0  0  0  0
    1.0985   -2.2531   -2.2471 C   0  0  0  0  0  0  0  0  0  0  0  0
    0.4825   -1.3351   -3.2001 O   0  0  0  0  0  0  0  0  0  0  0  0
    1.4909   -0.4106   -2.7969 C   0  0  0  0  0  0  0  0  0  0  0  0
    0.8570    1.0629    1.3229 H   0  0  0  0  0  0  0  0  0  0  0  0
    2.4315    0.8558    0.5330 H   0  0  0  0  0  0  0  0  0  0  0  0
    1.0851    1.5848   -0.3515 H   0  0  0  0  0  0  0  0  0  0  0  0
    1.1457   -1.3276    0.6631 H   0  0  0  0  0  0  0  0  0  0  0  0
   -0.1569   -0.6121   -0.2778 H   0  0  0  0  0  0  0  0  0  0  0  0
    3.7791   -0.7847   -3.4028 H   0  0  0  0  0  0  0  0  0  0  0  0
    2.2370   -2.9449   -3.9740 H   0  0  0  0  0  0  0  0  0  0  0  0
    3.0822   -3.2664   -2.4159 H   0  0  0  0  0  0  0  0  0  0  0  0
    0.4303   -3.0336   -1.8877 H   0  0  0  0  0  0  0  0  0  0  0  0
    1.3567    0.6238   -3.1079 H   0  0  0  0  0  0  0  0  0  0  0  0
  1  2  1  0
  2  3  1  0
  3  4  1  0
  4  5  1  0
  5  6  1  0
  6  7  1  0
  7  8  1  0
  8  9  1  0
  7  3  1  0
  9  3  1  0
  9  5  1  0
  1 10  1  0
  1 11  1  0
  1 12  1  0
  2 13  1  0
  2 14  1  0
  5 15  1  0
  6 16  1  0
  6 17  1  0
  7 18  1  0
  9 19  1  0
M  END
$$$$
