
     RDKit          3D

 19 20  0  0  0  0  0  0  0  0999 V2000
    2.9572    1.4179   -2.8053 O   0  0  0  0  0  0  0  0  0  0  0  0
    2.4221    1.0542   -1.5460 C   0  0  0  0  0  0  0  0  0  0  0  0
    2.6236    2.1276   -0.5075 C   0  0  0  0  0  0  0  0  0  0  0  0
    2.9879    1.6130    0.6653 C   0  0  0  0  0  0  0  0  0  0  0  0
    3.1309    0.1070    0.6101 C   0  0  0  0  0  0  0  0  0  0  0  0
    3.1416   -0.1691   -0.9127 C   0  0  0  0  0  0  0  0  0  0  0  0
    2.5486   -1.4765   -1.3659 C   0  0  0  0  0  0  0  0  0  0  0  0
    3.3518   -2.5543   -1.9556 C   0  0  0  0  0  0  0  0  0  0  0  0
    2.5793   -1.6863   -2.7912 O   0  0  0  0  0  0  0  0  0  0  0  0
    2.8761    0.6383   -3.3685 H   0  0  0  0  0  0  0  0  0  0  0  0
    1.3409    0.8455   -1.6512 H   0  0  0  0  0  0  0  0  0  0  0  0
    2.4293    3.1721   -0.7202 H   0  0  0  0  0  0  0  0  0  0  0  0
    3.1354    2.1765    1.5800 H   0  0  0  0  0  0  0  0  0  0  0  0
    4.0308   -0.2615    1.1150 H   0  0  0  0  0  0  0  0  0  0  0  0
    2.2788   -0.3843    1.1032 H   0  0  0  0  0  0  0  0  0  0  0  0
    4.1746   -0.1052   -1.2734 H   0  0  0  0  0  0  0  0  0  0  0  0
    1.5925   -1.7471   -0.9132 H   0  0  0  0  0  0  0  0  0  0  0  0
    4.4317   -2.4342   -2.0296 H   0  0  0  0  0  0  0  0  0  0  0  0
    3.0004   -3.5840   -1.9119 H   0  0  0  0  0  0  0  0  0  0  0  0
  1  2  1  0
  2  3  1  0
  3  4  2  0
  4  5  1  0
  5  6  1  0
  6  7  1  0
  7  8  1  0
  8  9  1  0
  6  2  1  0
  9  7  1  0
  1 10  1  0
  2 11  1  0
  3 12  1  0
  4 13  1  0
  5 14  1  0
  5 15  1  0
  6 16  1  0
  7 17  1  0
  8 18  1  0
  8 19  1  0
M  END
$$$$
