
     RDKit          3D

 19 21  0  0  0  0  0  0  0  0999 V2000
   -0.9021    2.5161    0.2112 C   0  0  0  0  0  0  0  0  0  0  0  0
    0.4102    1.9300    0.6100 C   0  0  0  0  0  0  0  0  0  0  0  0
    0.7976    2.0199    1.9878 O   0  0  0  0  0  0  0  0  0  0  0  0
    1.6796    0.8711    1.8024 C   0  0  0  0  0  0  0  0  0  0  0  0
    3.0700    1.4250    1.5349 C   0  0  0  0  0  0  0  0  0  0  0  0
    2.9023    2.2108    0.3469 O   0  0  0  0  0  0  0  0  0  0  0  0
    1.6778    1.8214   -0.2331 C   0  0  0  0  0  0  0  0  0  0  0  0
    1.0908    0.5878    0.3963 C   0  0  0  0  0  0  0  0  0  0  0  0
    0.7138   -0.7246   -0.2208 C   0  0  0  0  0  0  0  0  0  0  0  0
   -1.7237    2.0680    0.7797 H   0  0  0  0  0  0  0  0  0  0  0  0
   -0.9084    3.5962    0.3941 H   0  0  0  0  0  0  0  0  0  0  0  0
   -1.0873    2.3519   -0.8547 H   0  0  0  0  0  0  0  0  0  0  0  0
    1.5826    0.1310    2.5987 H   0  0  0  0  0  0  0  0  0  0  0  0
    3.4147    2.0774    2.3426 H   0  0  0  0  0  0  0  0  0  0  0  0
    3.8079    0.6232    1.3723 H   0  0  0  0  0  0  0  0  0  0  0  0
    1.6289    1.9927   -1.3029 H   0  0  0  0  0  0  0  0  0  0  0  0
    0.0080   -1.2797    0.4073 H   0  0  0  0  0  0  0  0  0  0  0  0
    0.2422   -0.5755   -1.1974 H   0  0  0  0  0  0  0  0  0  0  0  0
    1.5946   -1.3589   -0.3775 H   0  0  0  0  0  0  0  0  0  0  0  0
  1  2  1  0
  2  3  1  0
  3  4  1  0
  4  5  1  0
  5  6  1  0
  6  7  1  0
  7  8  1  0
  8  9  1  0
  7  2  1  0
  8  2  1  0
  8  4  1  0
  1 10  1  0
  1 11  1  0
  1 12  1  0
  4 13  1  0
  5 14  1  0
  5 15  1  0
  7 16  1  0
  9 17  1  0
  9 18  1  0
  9 19  1  0
M  END
$$$$
