
     RDKit          3D

 19 20  0  0  0  0  0  0  0  0999 V2000
    1.4934    0.1671   -0.0726 C   0  0  0  0  0  0  0  0  0  0  0  0
    0.0925    0.0276    0.0491 O   0  0  0  0  0  0  0  0  0  0  0  0
   -0.4201    0.5678    1.2291 C   0  0  0  0  0  0  0  0  0  0  0  0
   -0.3385   -0.3017    2.5351 C   0  0  0  0  0  0  0  0  0  0  0  0
   -0.1916    0.5125    3.8414 C   0  0  0  0  0  0  0  0  0  0  0  0
   -1.7353    0.7211    3.8853 C   0  0  0  0  0  0  0  0  0  0  0  0
   -1.9103   -0.2501    2.6680 C   0  0  0  0  0  0  0  0  0  0  0  0
   -1.9694    0.4365    1.3057 C   0  0  0  0  0  0  0  0  0  0  0  0
   -2.8417    0.6614    0.5204 O   0  0  0  0  0  0  0  0  0  0  0  0
    2.0319   -0.3673    0.7237 H   0  0  0  0  0  0  0  0  0  0  0  0
    1.7758   -0.2594   -1.0376 H   0  0  0  0  0  0  0  0  0  0  0  0
    1.7942    1.2257   -0.0449 H   0  0  0  0  0  0  0  0  0  0  0  0
   -0.0616    1.6006    1.3833 H   0  0  0  0  0  0  0  0  0  0  0  0
    0.2106   -1.2349    2.4137 H   0  0  0  0  0  0  0  0  0  0  0  0
    0.1713   -0.0873    4.6795 H   0  0  0  0  0  0  0  0  0  0  0  0
    0.4246    1.4146    3.7771 H   0  0  0  0  0  0  0  0  0  0  0  0
   -2.2157    0.3598    4.7961 H   0  0  0  0  0  0  0  0  0  0  0  0
   -2.0800    1.7426    3.7053 H   0  0  0  0  0  0  0  0  0  0  0  0
   -2.5600   -1.1133    2.8145 H   0  0  0  0  0  0  0  0  0  0  0  0
  1  2  1  0
  2  3  1  0
  3  4  1  0
  4  5  1  0
  5  6  1  0
  6  7  1  0
  7  8  1  0
  8  9  2  0
  8  3  1  0
  7  4  1  0
  1 10  1  0
  1 11  1  0
  1 12  1  0
  3 13  1  0
  4 14  1  0
  5 15  1  0
  5 16  1  0
  6 17  1  0
  6 18  1  0
  7 19  1  0
M  END
$$$$
