gdb 3172	2.5747219	1.7791189	1.2963975	3.2454	73.94	-0.26186	0.08141	0.34326999999999996	1021.0634	0.156856	-422.534297	-422.526305	-422.525361	-422.566624	31.014
 OpenBabel02181911413D

 19 21  0  0  1  0  0  0  0  0999 V2000
    3.3798    0.5361   -0.3526 C   0  0  0  0  0  0  0  0  0  0  0  0
    1.9047    0.1512   -0.2327 C   0  0  1  0  0  0  0  0  0  0  0  0
    1.2585   -0.2373   -1.5531 C   0  0  1  0  0  0  0  0  0  0  0  0
    1.6890   -1.5165   -2.0374 O   0  0  0  0  0  0  0  0  0  0  0  0
    0.4190   -1.4289   -1.3782 C   0  0  1  0  0  0  0  0  0  0  0  0
    0.4639   -1.8713    0.0699 C   0  0  0  0  0  0  0  0  0  0  0  0
    1.6433   -1.0860    0.6505 C   0  0  2  0  0  0  0  0  0  0  0  0
    2.0239   -1.1560    2.0635 C   0  0  0  0  0  0  0  0  0  0  0  0
    2.7784   -1.8492    1.0668 O   0  0  0  0  0  0  0  0  0  0  0  0
    3.8203    0.7443    0.6266 H   0  0  0  0  0  0  0  0  0  0  0  0
    3.9463   -0.2773   -0.8103 H   0  0  0  0  0  0  0  0  0  0  0  0
    3.4917    1.4338   -0.9688 H   0  0  0  0  0  0  0  0  0  0  0  0
    1.3343    0.9979    0.1768 H   0  0  0  0  0  0  0  0  0  0  0  0
    1.0710    0.5135   -2.3176 H   0  0  0  0  0  0  0  0  0  0  0  0
   -0.4475   -1.6381   -2.0002 H   0  0  0  0  0  0  0  0  0  0  0  0
   -0.4776   -1.6041    0.5663 H   0  0  0  0  0  0  0  0  0  0  0  0
    0.6213   -2.9466    0.1898 H   0  0  0  0  0  0  0  0  0  0  0  0
    2.5305   -0.3124    2.5326 H   0  0  0  0  0  0  0  0  0  0  0  0
    1.4560   -1.7875    2.7466 H   0  0  0  0  0  0  0  0  0  0  0  0
  1  2  1  0  0  0  0
  1 10  1  0  0  0  0
  2 13  1  1  0  0  0
  2  7  1  0  0  0  0
  3 14  1  6  0  0  0
  3  5  1  0  0  0  0
  3  2  1  0  0  0  0
  4  3  1  0  0  0  0
  4  5  1  0  0  0  0
  5 15  1  6  0  0  0
  5  6  1  0  0  0  0
  6 17  1  0  0  0  0
  6 16  1  0  0  0  0
  6  7  1  0  0  0  0
  7  9  1  6  0  0  0
  7  8  1  0  0  0  0
  8 18  1  0  0  0  0
  8 19  1  0  0  0  0
  9  8  1  0  0  0  0
 11  1  1  0  0  0  0
 12  1  1  0  0  0  0
M TOR 0 0 1 2 3
M TOR 1 0 1 2 4
M TOR 2 0 1 2 13
M TOR 3 0 1 6 5
M TOR 4 0 1 6 7
M TOR 5 0 1 6 8
M TOR 6 1 2 3 4
M TOR 7 1 2 4 5
M TOR 8 1 2 4 14
M TOR 9 1 6 5 4
M TOR 10 1 6 5 15
M TOR 11 1 6 5 16
M TOR 12 1 6 7 8
M TOR 13 1 6 7 17
M TOR 14 1 6 7 18
M TOR 15 2 1 0 9
M TOR 16 2 1 0 10
M TOR 17 2 1 0 11
M TOR 18 2 1 6 5
M TOR 19 2 1 6 7
M TOR 20 2 1 6 8
M TOR 21 2 3 4 5
M TOR 22 2 3 4 14
M TOR 23 2 4 5 6
M TOR 24 2 4 5 15
M TOR 25 2 4 5 16
M TOR 26 3 2 1 6
M TOR 27 3 2 1 12
M TOR 28 3 4 2 13
M TOR 29 3 4 5 6
M TOR 30 3 4 5 15
M TOR 31 3 4 5 16
M TOR 32 4 2 1 6
M TOR 33 4 2 1 12
M TOR 34 4 5 6 7
M TOR 35 4 5 6 8
M TOR 36 5 4 2 13
M TOR 37 5 6 1 12
M TOR 38 5 6 7 8
M TOR 39 5 6 7 17
M TOR 40 5 6 7 18
M TOR 41 6 1 0 9
M TOR 42 6 1 0 10
M TOR 43 6 1 0 11
M TOR 44 6 1 2 13
M TOR 45 6 5 4 14
M TOR 46 6 8 7 17
M TOR 47 6 8 7 18
M TOR 48 7 6 1 12
M TOR 49 7 6 5 15
M TOR 50 7 6 5 16
M TOR 51 8 6 1 12
M TOR 52 8 6 5 15
M TOR 53 8 6 5 16
M  END
$$$$
