
     RDKit          3D

 19 20  0  0  0  0  0  0  0  0999 V2000
   -1.3891   -0.9574   -0.0082 C   0  0  0  0  0  0  0  0  0  0  0  0
   -0.5426   -0.7566   -1.2335 C   0  0  0  0  0  0  0  0  0  0  0  0
   -1.0236   -1.1304   -2.6249 C   0  0  0  0  0  0  0  0  0  0  0  0
   -0.5866    0.2729   -2.3819 C   0  0  0  0  0  0  0  0  0  0  0  0
   -1.4599    1.3051   -2.6577 O   0  0  0  0  0  0  0  0  0  0  0  0
    0.9357    0.3684   -2.4057 C   0  0  0  0  0  0  0  0  0  0  0  0
    1.0057   -0.7261   -1.2740 C   0  0  0  0  0  0  0  0  0  0  0  0
    1.6446   -0.1890   -0.0224 C   0  0  0  0  0  0  0  0  0  0  0  0
    2.5090   -0.7393    0.6093 O   0  0  0  0  0  0  0  0  0  0  0  0
   -1.3636   -2.0006    0.3284 H   0  0  0  0  0  0  0  0  0  0  0  0
   -1.0585   -0.3334    0.8294 H   0  0  0  0  0  0  0  0  0  0  0  0
   -2.4327   -0.7032   -0.2195 H   0  0  0  0  0  0  0  0  0  0  0  0
   -0.4531   -1.8039   -3.2622 H   0  0  0  0  0  0  0  0  0  0  0  0
   -2.1010   -1.2423   -2.6986 H   0  0  0  0  0  0  0  0  0  0  0  0
   -1.2250    2.0600   -2.1061 H   0  0  0  0  0  0  0  0  0  0  0  0
    1.4404    0.1324   -3.3476 H   0  0  0  0  0  0  0  0  0  0  0  0
    1.3024    1.3365   -2.0451 H   0  0  0  0  0  0  0  0  0  0  0  0
    1.4910   -1.6677   -1.5457 H   0  0  0  0  0  0  0  0  0  0  0  0
    1.2546    0.8101    0.2932 H   0  0  0  0  0  0  0  0  0  0  0  0
  1  2  1  0
  2  3  1  0
  3  4  1  0
  4  5  1  0
  4  6  1  0
  6  7  1  0
  7  8  1  0
  8  9  2  0
  4  2  1  0
  7  2  1  0
  1 10  1  0
  1 11  1  0
  1 12  1  0
  3 13  1  0
  3 14  1  0
  5 15  1  0
  6 16  1  0
  6 17  1  0
  7 18  1  0
  8 19  1  0
M  END
$$$$
