gdb 6002	3.41473	0.8470038	0.7270973	2.2709	81.01	-0.22944	0.04725	0.27669	1581.5415	0.153329	-422.491801	-422.481585	-422.480641	-422.527478	36.675
 OpenBabel02181911423D

 19 19  0  0  1  0  0  0  0  0999 V2000
    0.4997   -0.8347    0.2027 C   0  0  0  0  0  0  0  0  0  0  0  0
    0.8603    0.6249    0.4090 C   0  0  0  0  0  0  0  0  0  0  0  0
    1.7639    1.0150   -0.6297 O   0  0  0  0  0  0  0  0  0  0  0  0
    2.1671    2.3465   -0.5193 C   0  0  1  0  0  0  0  0  0  0  0  0
    3.4875    2.5704    0.1583 C   0  0  1  0  0  0  0  0  0  0  0  0
    4.1515    1.4699    0.6812 O   0  0  0  0  0  0  0  0  0  0  0  0
    3.3712    2.7256   -1.3685 C   0  0  2  0  0  0  0  0  0  0  0  0
    3.4354    4.0151   -1.9826 C   0  0  0  0  0  0  0  0  0  0  0  0
    3.4876    5.1140   -2.4704 C   0  0  0  0  0  0  0  0  0  0  0  0
   -0.2112   -1.1589    0.9683 H   0  0  0  0  0  0  0  0  0  0  0  0
    0.0443   -0.9821   -0.7804 H   0  0  0  0  0  0  0  0  0  0  0  0
    1.3883   -1.4694    0.2679 H   0  0  0  0  0  0  0  0  0  0  0  0
   -0.0381    1.2587    0.3634 H   0  0  0  0  0  0  0  0  0  0  0  0
    1.3282    0.7848    1.3910 H   0  0  0  0  0  0  0  0  0  0  0  0
    1.3616    3.0723   -0.4187 H   0  0  0  0  0  0  0  0  0  0  0  0
    3.6567    3.4693    0.7402 H   0  0  0  0  0  0  0  0  0  0  0  0
    3.6907    0.6900    0.3418 H   0  0  0  0  0  0  0  0  0  0  0  0
    3.7958    1.8958   -1.9277 H   0  0  0  0  0  0  0  0  0  0  0  0
    3.5383    6.0784   -2.9110 H   0  0  0  0  0  0  0  0  0  0  0  0
  1 12  1  0  0  0  0
  1  2  1  0  0  0  0
  1 10  1  0  0  0  0
  2 14  1  0  0  0  0
  3  4  1  0  0  0  0
  3  2  1  0  0  0  0
  4 15  1  1  0  0  0
  4  5  1  0  0  0  0
  5  6  1  0  0  0  0
  5 16  1  1  0  0  0
  7 18  1  6  0  0  0
  7  4  1  0  0  0  0
  7  5  1  0  0  0  0
  8  7  1  0  0  0  0
  9  8  3  0  0  0  0
 11  1  1  0  0  0  0
 13  2  1  0  0  0  0
 17  6  1  0  0  0  0
 19  9  1  0  0  0  0
M TOR 0 0 1 2 3
M TOR 1 1 2 3 4
M TOR 2 1 2 3 6
M TOR 3 1 2 3 14
M TOR 4 2 1 0 9
M TOR 5 2 1 0 10
M TOR 6 2 1 0 11
M TOR 7 2 3 4 5
M TOR 8 2 3 4 6
M TOR 9 2 3 4 15
M TOR 10 2 3 6 7
M TOR 11 2 3 6 17
M TOR 12 3 2 1 12
M TOR 13 3 2 1 13
M TOR 14 3 4 5 16
M TOR 15 3 4 6 7
M TOR 16 3 4 6 17
M TOR 17 3 6 4 5
M TOR 18 3 6 4 15
M TOR 19 3 6 7 8
M TOR 20 4 6 3 14
M TOR 21 4 6 7 8
M TOR 22 5 4 3 14
M TOR 23 5 4 6 7
M TOR 24 5 4 6 17
M TOR 25 6 4 5 16
M TOR 26 6 7 8 18
M TOR 27 7 6 3 14
M TOR 28 7 6 4 15
M TOR 29 8 7 6 17
M  END
$$$$
