
     RDKit          3D

 19 18  0  0  0  0  0  0  0  0999 V2000
    1.1625    0.3069    0.3696 C   0  0  0  0  0  0  0  0  0  0  0  0
   -0.2417    0.0696    0.0820 C   0  0  0  0  0  0  0  0  0  0  0  0
   -1.4044   -0.1290   -0.1702 C   0  0  0  0  0  0  0  0  0  0  0  0
   -2.7752   -0.3379   -0.5956 C   0  0  0  0  0  0  0  0  0  0  0  0
   -3.1050   -0.2741   -1.7519 O   0  0  0  0  0  0  0  0  0  0  0  0
   -3.6895   -0.6187    0.3540 O   0  0  0  0  0  0  0  0  0  0  0  0
   -3.3521   -0.6595    1.7626 C   0  0  0  0  0  0  0  0  0  0  0  0
   -4.2587   -1.7154    2.3812 C   0  0  0  0  0  0  0  0  0  0  0  0
   -3.5432    0.7280    2.3668 C   0  0  0  0  0  0  0  0  0  0  0  0
    1.3196    0.5641    1.4222 H   0  0  0  0  0  0  0  0  0  0  0  0
    1.7561   -0.5870    0.1491 H   0  0  0  0  0  0  0  0  0  0  0  0
    1.5534    1.1250   -0.2443 H   0  0  0  0  0  0  0  0  0  0  0  0
   -2.3057   -0.9656    1.8599 H   0  0  0  0  0  0  0  0  0  0  0  0
   -4.0464   -1.8154    3.4498 H   0  0  0  0  0  0  0  0  0  0  0  0
   -5.3100   -1.4370    2.2612 H   0  0  0  0  0  0  0  0  0  0  0  0
   -4.1034   -2.6859    1.9032 H   0  0  0  0  0  0  0  0  0  0  0  0
   -3.3276    0.7071    3.4397 H   0  0  0  0  0  0  0  0  0  0  0  0
   -2.8728    1.4528    1.8972 H   0  0  0  0  0  0  0  0  0  0  0  0
   -4.5745    1.0657    2.2266 H   0  0  0  0  0  0  0  0  0  0  0  0
  1  2  1  0
  2  3  3  0
  3  4  1  0
  4  5  2  0
  4  6  1  0
  6  7  1  0
  7  8  1  0
  7  9  1  0
  1 10  1  0
  1 11  1  0
  1 12  1  0
  7 13  1  0
  8 14  1  0
  8 15  1  0
  8 16  1  0
  9 17  1  0
  9 18  1  0
  9 19  1  0
M  END
$$$$
