
     RDKit          3D

 19 19  0  0  0  0  0  0  0  0999 V2000
    0.0983    4.2389   -1.3620 C   0  0  0  0  0  0  0  0  0  0  0  0
    0.3347    4.4877   -2.8773 C   0  0  0  0  0  0  0  0  0  0  0  0
    1.1180    5.6458   -3.1703 O   0  0  0  0  0  0  0  0  0  0  0  0
    2.5027    5.4163   -3.3765 C   0  0  0  0  0  0  0  0  0  0  0  0
    3.0717    4.6550   -2.2657 C   0  0  0  0  0  0  0  0  0  0  0  0
    3.2202    3.9529   -1.2988 C   0  0  0  0  0  0  0  0  0  0  0  0
    2.9975    3.0741   -0.1519 C   0  0  0  0  0  0  0  0  0  0  0  0
    1.6469    3.1414    0.2770 O   0  0  0  0  0  0  0  0  0  0  0  0
    0.6632    2.9331   -0.7376 C   0  0  0  0  0  0  0  0  0  0  0  0
    0.5062    5.0875   -0.8080 H   0  0  0  0  0  0  0  0  0  0  0  0
   -0.9828    4.2530   -1.1858 H   0  0  0  0  0  0  0  0  0  0  0  0
    0.7711    3.5994   -3.3558 H   0  0  0  0  0  0  0  0  0  0  0  0
   -0.6254    4.6793   -3.3666 H   0  0  0  0  0  0  0  0  0  0  0  0
    2.6719    4.8781   -4.3241 H   0  0  0  0  0  0  0  0  0  0  0  0
    2.9593    6.4062   -3.4772 H   0  0  0  0  0  0  0  0  0  0  0  0
    3.2720    2.0390   -0.4152 H   0  0  0  0  0  0  0  0  0  0  0  0
    3.6022    3.3621    0.7140 H   0  0  0  0  0  0  0  0  0  0  0  0
    1.0537    2.2641   -1.5177 H   0  0  0  0  0  0  0  0  0  0  0  0
   -0.1434    2.3978   -0.2271 H   0  0  0  0  0  0  0  0  0  0  0  0
  1  2  1  0
  2  3  1  0
  3  4  1  0
  4  5  1  0
  5  6  3  0
  6  7  1  0
  7  8  1  0
  8  9  1  0
  9  1  1  0
  1 10  1  0
  1 11  1  0
  2 12  1  0
  2 13  1  0
  4 14  1  0
  4 15  1  0
  7 16  1  0
  7 17  1  0
  9 18  1  0
  9 19  1  0
M  END
$$$$
