
     RDKit          3D

 19 21  0  0  0  0  0  0  0  0999 V2000
   -1.6706   -1.3135    3.3258 C   0  0  0  0  0  0  0  0  0  0  0  0
   -1.9348    0.0593    3.0327 O   0  0  0  0  0  0  0  0  0  0  0  0
   -1.7149   -0.8364    1.9376 C   0  0  0  0  0  0  0  0  0  0  0  0
   -0.4712   -0.6029    1.1284 C   0  0  0  0  0  0  0  0  0  0  0  0
   -0.1896   -1.6162   -0.0081 C   0  0  0  0  0  0  0  0  0  0  0  0
   -0.3323   -0.5974   -1.0207 O   0  0  0  0  0  0  0  0  0  0  0  0
   -0.5853    0.3974   -0.0247 C   0  0  0  0  0  0  0  0  0  0  0  0
   -1.5596    1.5077   -0.2408 C   0  0  0  0  0  0  0  0  0  0  0  0
   -0.0634    1.7877   -0.1491 C   0  0  0  0  0  0  0  0  0  0  0  0
   -0.7075   -1.5139    3.7942 H   0  0  0  0  0  0  0  0  0  0  0  0
   -2.5097   -1.8758    3.7327 H   0  0  0  0  0  0  0  0  0  0  0  0
   -2.6129   -1.0479    1.3544 H   0  0  0  0  0  0  0  0  0  0  0  0
    0.3756   -0.4189    1.7940 H   0  0  0  0  0  0  0  0  0  0  0  0
    0.8128   -2.0580   -0.0084 H   0  0  0  0  0  0  0  0  0  0  0  0
   -0.9350   -2.4131   -0.1232 H   0  0  0  0  0  0  0  0  0  0  0  0
   -2.0196    1.5739   -1.2210 H   0  0  0  0  0  0  0  0  0  0  0  0
   -2.1935    1.8082    0.5869 H   0  0  0  0  0  0  0  0  0  0  0  0
    0.4542    2.0345   -1.0700 H   0  0  0  0  0  0  0  0  0  0  0  0
    0.3184    2.2822    0.7384 H   0  0  0  0  0  0  0  0  0  0  0  0
  1  2  1  0
  2  3  1  0
  3  4  1  0
  4  5  1  0
  5  6  1  0
  6  7  1  0
  7  8  1  0
  8  9  1  0
  3  1  1  0
  7  4  1  0
  9  7  1  0
  1 10  1  0
  1 11  1  0
  3 12  1  0
  4 13  1  0
  5 14  1  0
  5 15  1  0
  8 16  1  0
  8 17  1  0
  9 18  1  0
  9 19  1  0
M  END
$$$$
