gdb 757	2.1115057	1.8851846	1.3013557	2.3467	76.7	-0.24964	0.00302	0.25266	1042.8972	0.158643	-422.594245	-422.586201	-422.585256	-422.626597	31.057
 OpenBabel02181911403D

 19 19  0  0  0  0  0  0  0  0999 V2000
   -2.4297    1.8875    2.4713 O   0  0  0  0  0  0  0  0  0  0  0  0
   -1.5125    1.1994    2.1180 C   0  0  0  0  0  0  0  0  0  0  0  0
   -0.0417    1.4556    2.3750 C   0  0  0  0  0  0  0  0  0  0  0  0
    0.6836    1.4974    0.9995 C   0  0  0  0  0  0  0  0  0  0  0  0
   -0.0401    2.3847    0.0131 C   0  0  0  0  0  0  0  0  0  0  0  0
   -1.0354    2.0384   -0.8112 C   0  0  0  0  0  0  0  0  0  0  0  0
   -1.6562    0.6681   -0.9924 C   0  0  0  0  0  0  0  0  0  0  0  0
   -2.5183    0.2167    0.1993 C   0  0  0  0  0  0  0  0  0  0  0  0
   -1.6531    0.0876    1.3359 O   0  0  0  0  0  0  0  0  0  0  0  0
    0.0466    2.4007    2.9150 H   0  0  0  0  0  0  0  0  0  0  0  0
    0.3842    0.6595    2.9955 H   0  0  0  0  0  0  0  0  0  0  0  0
    1.7074    1.8550    1.1498 H   0  0  0  0  0  0  0  0  0  0  0  0
    0.7446    0.4746    0.6189 H   0  0  0  0  0  0  0  0  0  0  0  0
    0.2512    3.4334    0.0276 H   0  0  0  0  0  0  0  0  0  0  0  0
   -1.4762    2.8299   -1.4133 H   0  0  0  0  0  0  0  0  0  0  0  0
   -2.2788    0.6617   -1.8938 H   0  0  0  0  0  0  0  0  0  0  0  0
   -0.8793   -0.0922   -1.1394 H   0  0  0  0  0  0  0  0  0  0  0  0
   -3.3203    0.9243    0.4261 H   0  0  0  0  0  0  0  0  0  0  0  0
   -2.9499   -0.7706    0.0165 H   0  0  0  0  0  0  0  0  0  0  0  0
  2  3  1  0  0  0  0
  2  1  2  0  0  0  0
  3 10  1  0  0  0  0
  3 11  1  0  0  0  0
  4 12  1  0  0  0  0
  4  3  1  0  0  0  0
  5 14  1  0  0  0  0
  5  4  1  0  0  0  0
  6  5  2  0  0  0  0
  7  6  1  0  0  0  0
  7  8  1  0  0  0  0
  8 18  1  0  0  0  0
  8  9  1  0  0  0  0
  9  2  1  0  0  0  0
 13  4  1  0  0  0  0
 15  6  1  0  0  0  0
 16  7  1  0  0  0  0
 17  7  1  0  0  0  0
 19  8  1  0  0  0  0
M TOR 0 0 1 2 3
M TOR 1 0 1 2 9
M TOR 2 0 1 2 10
M TOR 3 0 1 8 7
M TOR 4 1 2 3 4
M TOR 5 1 2 3 11
M TOR 6 1 2 3 12
M TOR 7 1 8 7 6
M TOR 8 1 8 7 17
M TOR 9 1 8 7 18
M TOR 10 2 1 8 7
M TOR 11 2 3 4 5
M TOR 12 2 3 4 13
M TOR 13 3 2 1 8
M TOR 14 3 4 5 6
M TOR 15 3 4 5 14
M TOR 16 4 3 2 9
M TOR 17 4 3 2 10
M TOR 18 4 5 6 7
M TOR 19 4 5 6 15
M TOR 20 4 5 6 16
M TOR 21 5 4 3 11
M TOR 22 5 4 3 12
M TOR 23 5 6 7 8
M TOR 24 5 6 7 17
M TOR 25 5 6 7 18
M TOR 26 6 5 4 13
M TOR 27 7 6 5 14
M TOR 28 8 1 2 9
M TOR 29 8 1 2 10
M TOR 30 8 7 6 15
M TOR 31 8 7 6 16
M  END
$$$$
