
     RDKit          3D

 19 18  0  0  0  0  0  0  0  0999 V2000
    1.6085   -0.1528    0.0491 C   0  0  0  0  0  0  0  0  0  0  0  0
    0.1577   -0.0538    0.1250 C   0  0  0  0  0  0  0  0  0  0  0  0
   -1.0427    0.0250    0.1831 C   0  0  0  0  0  0  0  0  0  0  0  0
   -2.4954    0.1456    0.2868 C   0  0  0  0  0  0  0  0  0  0  0  0
   -2.9457    0.7862    1.6140 C   0  0  0  0  0  0  0  0  0  0  0  0
   -3.2325   -1.1795    0.0285 C   0  0  0  0  0  0  0  0  0  0  0  0
   -4.3411   -1.3835    0.4733 O   0  0  0  0  0  0  0  0  0  0  0  0
   -2.5787   -2.2336   -0.8493 C   0  0  0  0  0  0  0  0  0  0  0  0
   -3.4493   -3.2963   -1.0995 O   0  0  0  0  0  0  0  0  0  0  0  0
    2.0772    0.1846    0.9799 H   0  0  0  0  0  0  0  0  0  0  0  0
    1.9269   -1.1861   -0.1266 H   0  0  0  0  0  0  0  0  0  0  0  0
    2.0073    0.4610   -0.7657 H   0  0  0  0  0  0  0  0  0  0  0  0
   -2.8427    0.7936   -0.5357 H   0  0  0  0  0  0  0  0  0  0  0  0
   -2.5991    0.1903    2.4623 H   0  0  0  0  0  0  0  0  0  0  0  0
   -2.5280    1.7910    1.7054 H   0  0  0  0  0  0  0  0  0  0  0  0
   -4.0349    0.8385    1.6506 H   0  0  0  0  0  0  0  0  0  0  0  0
   -2.2461   -1.7562   -1.7849 H   0  0  0  0  0  0  0  0  0  0  0  0
   -1.6596   -2.5662   -0.3404 H   0  0  0  0  0  0  0  0  0  0  0  0
   -4.2427   -3.1030   -0.5752 H   0  0  0  0  0  0  0  0  0  0  0  0
  1  2  1  0
  2  3  3  0
  3  4  1  0
  4  5  1  0
  4  6  1  0
  6  7  2  0
  6  8  1  0
  8  9  1  0
  1 10  1  0
  1 11  1  0
  1 12  1  0
  4 13  1  0
  5 14  1  0
  5 15  1  0
  5 16  1  0
  8 17  1  0
  8 18  1  0
  9 19  1  0
M  END
$$$$
