gdb 5676	2.8978087	1.0008143	0.8494846	3.223	78.29	-0.2393	-0.02726	0.21204	1378.3824	0.156252	-422.577007	-422.567752	-422.566808	-422.612454	32.94
 OpenBabel02181911423D

 19 19  0  0  1  0  0  0  0  0999 V2000
   -1.8841    1.5340    0.4720 O   0  0  0  0  0  0  0  0  0  0  0  0
   -0.9507    0.6752   -0.1645 C   0  0  0  0  0  0  0  0  0  0  0  0
   -1.0538    0.9140   -1.6728 C   0  0  1  0  0  0  0  0  0  0  0  0
   -0.6146    2.3460   -2.0991 C   0  0  0  0  0  0  0  0  0  0  0  0
    0.6782    2.1931   -2.9570 C   0  0  1  0  0  0  0  0  0  0  0  0
    1.9115    2.7229   -2.2416 C   0  0  0  0  0  0  0  0  0  0  0  0
    2.7521    3.4268   -2.7355 O   0  0  0  0  0  0  0  0  0  0  0  0
    0.7924    0.6932   -3.1443 C   0  0  0  0  0  0  0  0  0  0  0  0
   -0.1283    0.0186   -2.4591 C   0  0  0  0  0  0  0  0  0  0  0  0
   -1.7850    1.4383    1.4236 H   0  0  0  0  0  0  0  0  0  0  0  0
    0.0791    0.8814    0.1704 H   0  0  0  0  0  0  0  0  0  0  0  0
   -1.1632   -0.3828    0.0588 H   0  0  0  0  0  0  0  0  0  0  0  0
   -2.1024    0.7327   -1.9418 H   0  0  0  0  0  0  0  0  0  0  0  0
   -1.3912    2.8301   -2.6944 H   0  0  0  0  0  0  0  0  0  0  0  0
   -0.4593    2.9802   -1.2211 H   0  0  0  0  0  0  0  0  0  0  0  0
    0.6192    2.7215   -3.9142 H   0  0  0  0  0  0  0  0  0  0  0  0
    1.9909    2.3837   -1.1805 H   0  0  0  0  0  0  0  0  0  0  0  0
    1.5627    0.2540   -3.7683 H   0  0  0  0  0  0  0  0  0  0  0  0
   -0.2217   -1.0627   -2.4491 H   0  0  0  0  0  0  0  0  0  0  0  0
  1 10  1  0  0  0  0
  2 12  1  0  0  0  0
  2 11  1  0  0  0  0
  2  1  1  0  0  0  0
  3 13  1  6  0  0  0
  3  2  1  0  0  0  0
  4  3  1  0  0  0  0
  4 15  1  0  0  0  0
  5 16  1  6  0  0  0
  5  6  1  0  0  0  0
  5  4  1  0  0  0  0
  6 17  1  0  0  0  0
  7  6  2  0  0  0  0
  8  5  1  0  0  0  0
  8  9  2  0  0  0  0
  9 19  1  0  0  0  0
  9  3  1  0  0  0  0
 14  4  1  0  0  0  0
 18  8  1  0  0  0  0
M TOR 0 0 1 2 3
M TOR 1 0 1 2 8
M TOR 2 0 1 2 12
M TOR 3 1 2 3 4
M TOR 4 1 2 3 13
M TOR 5 1 2 3 14
M TOR 6 1 2 8 7
M TOR 7 1 2 8 18
M TOR 8 2 1 0 9
M TOR 9 2 3 4 5
M TOR 10 2 3 4 7
M TOR 11 2 3 4 15
M TOR 12 2 8 7 4
M TOR 13 2 8 7 17
M TOR 14 3 2 1 10
M TOR 15 3 2 1 11
M TOR 16 3 2 8 7
M TOR 17 3 2 8 18
M TOR 18 3 4 5 6
M TOR 19 3 4 5 16
M TOR 20 3 4 7 8
M TOR 21 3 4 7 17
M TOR 22 4 3 2 8
M TOR 23 4 3 2 12
M TOR 24 4 7 8 18
M TOR 25 5 4 3 13
M TOR 26 5 4 3 14
M TOR 27 5 4 7 8
M TOR 28 5 4 7 17
M TOR 29 6 5 4 7
M TOR 30 6 5 4 15
M TOR 31 7 4 3 13
M TOR 32 7 4 3 14
M TOR 33 7 4 5 16
M TOR 34 7 8 2 12
M TOR 35 8 2 1 10
M TOR 36 8 2 1 11
M TOR 37 8 2 3 13
M TOR 38 8 2 3 14
M TOR 39 8 7 4 15
M  END
$$$$
