gdb 4609	3.0839923	0.7849195	0.7230364	0.9417	81.24	-0.25177	0.02667	0.27844	1634.8283	0.155027	-422.511825	-422.501721	-422.500777	-422.548194	35.83
 OpenBabel02181911413D

 19 19  0  0  0  0  0  0  0  0999 V2000
    2.0729   -1.2666   -2.9030 O   0  0  0  0  0  0  0  0  0  0  0  0
    2.9240   -0.7533   -1.8874 C   0  0  0  0  0  0  0  0  0  0  0  0
    2.2082   -0.2548   -0.7139 C   0  0  0  0  0  0  0  0  0  0  0  0
    1.5981    0.1307    0.2529 C   0  0  0  0  0  0  0  0  0  0  0  0
    0.8515    0.5730    1.4263 C   0  0  0  0  0  0  0  0  0  0  0  0
    1.0927   -0.2605    2.5456 O   0  0  0  0  0  0  0  0  0  0  0  0
    1.0496    2.0803    1.7622 C   0  0  0  0  0  0  0  0  0  0  0  0
   -0.2519    2.4020    0.9828 C   0  0  0  0  0  0  0  0  0  0  0  0
   -0.6463    0.9062    1.0925 C   0  0  0  0  0  0  0  0  0  0  0  0
    1.4883   -1.9110   -2.4909 H   0  0  0  0  0  0  0  0  0  0  0  0
    3.6645   -1.5037   -1.5662 H   0  0  0  0  0  0  0  0  0  0  0  0
    3.4872    0.0612   -2.3565 H   0  0  0  0  0  0  0  0  0  0  0  0
    1.1288   -1.1722    2.2374 H   0  0  0  0  0  0  0  0  0  0  0  0
    0.9257    2.2115    2.8401 H   0  0  0  0  0  0  0  0  0  0  0  0
    1.9835    2.5446    1.4425 H   0  0  0  0  0  0  0  0  0  0  0  0
   -0.9311    3.1310    1.4272 H   0  0  0  0  0  0  0  0  0  0  0  0
   -0.0481    2.6949   -0.0496 H   0  0  0  0  0  0  0  0  0  0  0  0
   -1.2515    0.7049    1.9802 H   0  0  0  0  0  0  0  0  0  0  0  0
   -1.0915    0.4195    0.2228 H   0  0  0  0  0  0  0  0  0  0  0  0
  1 10  1  0  0  0  0
  1  2  1  0  0  0  0
  2 11  1  0  0  0  0
  2  3  1  0  0  0  0
  3  4  3  0  0  0  0
  4  5  1  0  0  0  0
  5  7  1  0  0  0  0
  5  6  1  0  0  0  0
  7 14  1  0  0  0  0
  8  9  1  0  0  0  0
  8 16  1  0  0  0  0
  8  7  1  0  0  0  0
  9  5  1  0  0  0  0
  9 18  1  0  0  0  0
 12  2  1  0  0  0  0
 13  6  1  0  0  0  0
 15  7  1  0  0  0  0
 17  8  1  0  0  0  0
 19  9  1  0  0  0  0
M TOR 0 0 1 2 3
M TOR 1 1 2 3 4
M TOR 2 2 1 0 9
M TOR 3 2 3 4 5
M TOR 4 2 3 4 6
M TOR 5 2 3 4 8
M TOR 6 3 2 1 10
M TOR 7 3 2 1 11
M TOR 8 3 4 5 12
M TOR 9 3 4 6 7
M TOR 10 3 4 6 13
M TOR 11 3 4 6 14
M TOR 12 3 4 8 7
M TOR 13 3 4 8 17
M TOR 14 3 4 8 18
M TOR 15 4 6 7 8
M TOR 16 4 6 7 15
M TOR 17 4 6 7 16
M TOR 18 4 8 7 15
M TOR 19 4 8 7 16
M TOR 20 5 4 6 7
M TOR 21 5 4 6 13
M TOR 22 5 4 6 14
M TOR 23 5 4 8 7
M TOR 24 5 4 8 17
M TOR 25 5 4 8 18
M TOR 26 6 4 5 12
M TOR 27 6 4 8 17
M TOR 28 6 4 8 18
M TOR 29 6 7 8 17
M TOR 30 6 7 8 18
M TOR 31 8 4 5 12
M TOR 32 8 4 6 13
M TOR 33 8 4 6 14
M TOR 34 8 7 6 13
M TOR 35 8 7 6 14
M  END
$$$$
