gdb 3113	2.487341	1.5672107	1.4727795	3.8454	74.09	-0.22965	-0.00834	0.22131	1005.0852	0.158175	-422.585556	-422.577635	-422.576691	-422.618349	30.973
 OpenBabel02181911413D

 19 20  0  0  1  0  0  0  0  0999 V2000
   -1.9299    0.0102    2.2919 O   0  0  0  0  0  0  0  0  0  0  0  0
   -2.6927   -0.0497    1.1096 C   0  0  1  0  0  0  0  0  0  0  0  0
   -2.3601    1.0437    0.0679 C   0  0  2  0  0  0  0  0  0  0  0  0
   -2.7464   -0.0008   -1.0193 C   0  0  0  0  0  0  0  0  0  0  0  0
   -2.3373   -1.0952    0.0077 C   0  0  1  0  0  0  0  0  0  0  0  0
   -0.8234   -1.3141   -0.0262 C   0  0  0  0  0  0  0  0  0  0  0  0
   -0.0343    0.0021   -0.0442 C   0  0  0  0  0  0  0  0  0  0  0  0
    1.1698    0.0144   -0.1257 O   0  0  0  0  0  0  0  0  0  0  0  0
   -0.8498    1.2970    0.0431 C   0  0  0  0  0  0  0  0  0  0  0  0
   -2.2038   -0.7037    2.8761 H   0  0  0  0  0  0  0  0  0  0  0  0
   -3.7695   -0.0654    1.3252 H   0  0  0  0  0  0  0  0  0  0  0  0
   -2.9237    1.9782    0.1154 H   0  0  0  0  0  0  0  0  0  0  0  0
   -3.8185   -0.0063   -1.2294 H   0  0  0  0  0  0  0  0  0  0  0  0
   -2.1964    0.0315   -1.9641 H   0  0  0  0  0  0  0  0  0  0  0  0
   -2.8847   -2.0415   -0.0001 H   0  0  0  0  0  0  0  0  0  0  0  0
   -0.4808   -1.8805    0.8471 H   0  0  0  0  0  0  0  0  0  0  0  0
   -0.5260   -1.8930   -0.9083 H   0  0  0  0  0  0  0  0  0  0  0  0
   -0.5220    1.8246    0.9449 H   0  0  0  0  0  0  0  0  0  0  0  0
   -0.5703    1.9264   -0.8098 H   0  0  0  0  0  0  0  0  0  0  0  0
  1 10  1  0  0  0  0
  2 11  1  1  0  0  0
  2  1  1  0  0  0  0
  3 12  1  1  0  0  0
  3  2  1  0  0  0  0
  4  5  1  0  0  0  0
  4  3  1  0  0  0  0
  5 15  1  6  0  0  0
  5  2  1  0  0  0  0
  6  5  1  0  0  0  0
  6 16  1  0  0  0  0
  7  6  1  0  0  0  0
  7  9  1  0  0  0  0
  8  7  2  0  0  0  0
  9  3  1  0  0  0  0
  9 18  1  0  0  0  0
 13  4  1  0  0  0  0
 14  4  1  0  0  0  0
 17  6  1  0  0  0  0
 19  9  1  0  0  0  0
M TOR 0 0 1 2 3
M TOR 1 0 1 2 8
M TOR 2 0 1 2 11
M TOR 3 0 1 4 3
M TOR 4 0 1 4 5
M TOR 5 0 1 4 14
M TOR 6 1 2 3 4
M TOR 7 1 2 3 12
M TOR 8 1 2 3 13
M TOR 9 1 2 8 6
M TOR 10 1 2 8 17
M TOR 11 1 2 8 18
M TOR 12 1 4 3 12
M TOR 13 1 4 3 13
M TOR 14 1 4 5 6
M TOR 15 1 4 5 15
M TOR 16 1 4 5 16
M TOR 17 2 1 0 9
M TOR 18 2 1 4 5
M TOR 19 2 1 4 14
M TOR 20 2 3 4 5
M TOR 21 2 3 4 14
M TOR 22 2 8 6 5
M TOR 23 2 8 6 7
M TOR 24 3 2 1 10
M TOR 25 3 2 8 6
M TOR 26 3 2 8 17
M TOR 27 3 2 8 18
M TOR 28 3 4 1 10
M TOR 29 3 4 5 6
M TOR 30 3 4 5 15
M TOR 31 3 4 5 16
M TOR 32 4 1 0 9
M TOR 33 4 1 2 8
M TOR 34 4 1 2 11
M TOR 35 4 3 2 8
M TOR 36 4 3 2 11
M TOR 37 4 5 6 7
M TOR 38 4 5 6 8
M TOR 39 5 4 1 10
M TOR 40 5 4 3 12
M TOR 41 5 4 3 13
M TOR 42 5 6 8 17
M TOR 43 5 6 8 18
M TOR 44 6 5 4 14
M TOR 45 6 8 2 11
M TOR 46 7 6 5 15
M TOR 47 7 6 5 16
M TOR 48 7 6 8 17
M TOR 49 7 6 8 18
M TOR 50 8 2 1 10
M TOR 51 8 2 3 12
M TOR 52 8 2 3 13
M TOR 53 8 6 5 15
M TOR 54 8 6 5 16
M  END
$$$$
