
     RDKit          3D

 19 19  0  0  0  0  0  0  0  0999 V2000
   -0.2533    0.2509   -0.0538 C   0  0  0  0  0  0  0  0  0  0  0  0
    1.2594    0.3269   -0.2201 C   0  0  0  0  0  0  0  0  0  0  0  0
    1.8297    0.8295    0.9918 O   0  0  0  0  0  0  0  0  0  0  0  0
    2.7121    1.9031    0.7149 C   0  0  0  0  0  0  0  0  0  0  0  0
    2.1899    2.5515   -0.5610 C   0  0  0  0  0  0  0  0  0  0  0  0
    1.1041    3.3930   -0.2106 O   0  0  0  0  0  0  0  0  0  0  0  0
    1.7148    1.3012   -1.3596 C   0  0  0  0  0  0  0  0  0  0  0  0
    2.7764    0.7501   -2.1892 C   0  0  0  0  0  0  0  0  0  0  0  0
    3.6704    0.3043   -2.8586 C   0  0  0  0  0  0  0  0  0  0  0  0
   -0.5007   -0.3524    0.8239 H   0  0  0  0  0  0  0  0  0  0  0  0
   -0.6633    1.2546    0.0872 H   0  0  0  0  0  0  0  0  0  0  0  0
   -0.7188   -0.2097   -0.9316 H   0  0  0  0  0  0  0  0  0  0  0  0
    1.6678   -0.6726   -0.4153 H   0  0  0  0  0  0  0  0  0  0  0  0
    2.6950    2.5959    1.5602 H   0  0  0  0  0  0  0  0  0  0  0  0
    3.7419    1.5475    0.5581 H   0  0  0  0  0  0  0  0  0  0  0  0
    2.9701    3.1030   -1.0991 H   0  0  0  0  0  0  0  0  0  0  0  0
    0.7690    3.8020   -1.0149 H   0  0  0  0  0  0  0  0  0  0  0  0
    0.8619    1.5720   -1.9913 H   0  0  0  0  0  0  0  0  0  0  0  0
    4.4515   -0.0963   -3.4561 H   0  0  0  0  0  0  0  0  0  0  0  0
  1  2  1  0
  2  3  1  0
  3  4  1  0
  4  5  1  0
  5  6  1  0
  5  7  1  0
  7  8  1  0
  8  9  3  0
  7  2  1  0
  1 10  1  0
  1 11  1  0
  1 12  1  0
  2 13  1  0
  4 14  1  0
  4 15  1  0
  5 16  1  0
  6 17  1  0
  7 18  1  0
  9 19  1  0
M  END
$$$$
