gdb 1322	2.4956182	1.0398925	0.922759	2.344	78.34	-0.24801	-0.06149	0.18652000000000002	1372.938	0.152263	-422.523308	-422.51265	-422.511706	-422.560118	37.223
 OpenBabel02181911403D

 19 18  0  0  0  0  0  0  0  0999 V2000
    2.9824   -0.5213   -4.6096 C   0  0  0  0  0  0  0  0  0  0  0  0
    3.4139   -0.8971   -3.1975 C   0  0  0  0  0  0  0  0  0  0  0  0
    2.6668   -2.1226   -2.6677 C   0  0  0  0  0  0  0  0  0  0  0  0
    3.1974    0.2726   -2.3992 O   0  0  0  0  0  0  0  0  0  0  0  0
    3.7656    0.2506   -1.1176 C   0  0  0  0  0  0  0  0  0  0  0  0
    2.8357   -0.2388   -0.0010 C   0  0  0  0  0  0  0  0  0  0  0  0
    3.2693   -0.7595    1.0032 O   0  0  0  0  0  0  0  0  0  0  0  0
    1.4170    0.0140   -0.1852 C   0  0  0  0  0  0  0  0  0  0  0  0
    0.2394    0.2365   -0.2975 C   0  0  0  0  0  0  0  0  0  0  0  0
    3.1757   -1.3456   -5.3022 H   0  0  0  0  0  0  0  0  0  0  0  0
    1.9121   -0.2938   -4.6314 H   0  0  0  0  0  0  0  0  0  0  0  0
    3.5279    0.3611   -4.9535 H   0  0  0  0  0  0  0  0  0  0  0  0
    4.4951   -1.1144   -3.1963 H   0  0  0  0  0  0  0  0  0  0  0  0
    3.0052   -2.4059   -1.6664 H   0  0  0  0  0  0  0  0  0  0  0  0
    1.5910   -1.9287   -2.6266 H   0  0  0  0  0  0  0  0  0  0  0  0
    2.8420   -2.9800   -3.3255 H   0  0  0  0  0  0  0  0  0  0  0  0
    4.6864   -0.3460   -1.0648 H   0  0  0  0  0  0  0  0  0  0  0  0
    4.0287    1.2873   -0.8620 H   0  0  0  0  0  0  0  0  0  0  0  0
   -0.8011    0.4313   -0.3955 H   0  0  0  0  0  0  0  0  0  0  0  0
  1  2  1  0  0  0  0
  2 13  1  0  0  0  0
  2  3  1  0  0  0  0
  2  4  1  0  0  0  0
  3 15  1  0  0  0  0
  3 14  1  0  0  0  0
  4  5  1  0  0  0  0
  5 17  1  0  0  0  0
  5 18  1  0  0  0  0
  5  6  1  0  0  0  0
  6  7  2  0  0  0  0
  8  6  1  0  0  0  0
  9  8  3  0  0  0  0
 10  1  1  0  0  0  0
 11  1  1  0  0  0  0
 12  1  1  0  0  0  0
 16  3  1  0  0  0  0
 19  9  1  0  0  0  0
M TOR 0 0 1 2 13
M TOR 1 0 1 2 14
M TOR 2 0 1 2 15
M TOR 3 0 1 3 4
M TOR 4 1 3 4 5
M TOR 5 1 3 4 16
M TOR 6 1 3 4 17
M TOR 7 2 1 0 9
M TOR 8 2 1 0 10
M TOR 9 2 1 0 11
M TOR 10 2 1 3 4
M TOR 11 3 1 0 9
M TOR 12 3 1 0 10
M TOR 13 3 1 0 11
M TOR 14 3 1 2 13
M TOR 15 3 1 2 14
M TOR 16 3 1 2 15
M TOR 17 3 4 5 6
M TOR 18 3 4 5 7
M TOR 19 4 3 1 12
M TOR 20 4 5 7 8
M TOR 21 5 7 8 18
M TOR 22 6 5 4 16
M TOR 23 6 5 4 17
M TOR 24 6 5 7 8
M TOR 25 7 5 4 16
M TOR 26 7 5 4 17
M  END
$$$$
