
     RDKit          3D

 19 20  0  0  0  0  0  0  0  0999 V2000
    0.9605    0.3684   -3.3443 C   0  0  0  0  0  0  0  0  0  0  0  0
    0.0443    0.3851   -2.1459 C   0  0  0  0  0  0  0  0  0  0  0  0
   -0.9775    1.3908   -2.2533 O   0  0  0  0  0  0  0  0  0  0  0  0
   -1.6729    1.0610   -1.0425 C   0  0  0  0  0  0  0  0  0  0  0  0
   -0.5484    1.2947    0.0187 C   0  0  0  0  0  0  0  0  0  0  0  0
    0.6970    0.8188   -0.7872 C   0  0  0  0  0  0  0  0  0  0  0  0
    1.4153   -0.2695   -0.2342 O   0  0  0  0  0  0  0  0  0  0  0  0
   -1.8511   -0.4448   -1.1768 C   0  0  0  0  0  0  0  0  0  0  0  0
   -0.7776   -0.8675   -1.8416 C   0  0  0  0  0  0  0  0  0  0  0  0
    1.7763   -0.3404   -3.1746 H   0  0  0  0  0  0  0  0  0  0  0  0
    0.4189    0.0717   -4.2466 H   0  0  0  0  0  0  0  0  0  0  0  0
    1.3922    1.3601   -3.5094 H   0  0  0  0  0  0  0  0  0  0  0  0
   -2.5686    1.6714   -0.9325 H   0  0  0  0  0  0  0  0  0  0  0  0
   -0.4801    2.3539    0.2794 H   0  0  0  0  0  0  0  0  0  0  0  0
   -0.6882    0.7101    0.9311 H   0  0  0  0  0  0  0  0  0  0  0  0
    1.3694    1.6642   -0.9852 H   0  0  0  0  0  0  0  0  0  0  0  0
    1.8805    0.0413    0.5477 H   0  0  0  0  0  0  0  0  0  0  0  0
   -2.6335   -1.0281   -0.7102 H   0  0  0  0  0  0  0  0  0  0  0  0
   -0.4653   -1.8795   -2.0568 H   0  0  0  0  0  0  0  0  0  0  0  0
  1  2  1  0
  2  3  1  0
  3  4  1  0
  4  5  1  0
  5  6  1  0
  6  7  1  0
  4  8  1  0
  8  9  2  0
  6  2  1  0
  9  2  1  0
  1 10  1  0
  1 11  1  0
  1 12  1  0
  4 13  1  0
  5 14  1  0
  5 15  1  0
  6 16  1  0
  7 17  1  0
  8 18  1  0
  9 19  1  0
M  END
$$$$
