gdb 4337	2.3947231	1.7708514	1.1971403	2.7352	75.45	-0.23709	0.00594	0.24303	1055.5762	0.158789	-422.551728	-422.543791	-422.542847	-422.584246	30.554
 OpenBabel02181911413D

 19 20  0  0  1  0  0  0  0  0999 V2000
    0.4056    0.6072    0.8750 O   0  0  0  0  0  0  0  0  0  0  0  0
   -0.8808    1.0619    0.4714 C   0  0  2  0  0  0  0  0  0  0  0  0
   -1.7251   -0.0621   -0.1497 C   0  0  0  0  0  0  0  0  0  0  0  0
   -2.9427    0.4647   -0.8637 C   0  0  0  0  0  0  0  0  0  0  0  0
   -3.0097    1.6887   -1.3875 C   0  0  0  0  0  0  0  0  0  0  0  0
   -1.8678    2.6599   -1.3424 C   0  0  2  0  0  0  0  0  0  0  0  0
   -1.0523    2.6026   -2.5539 O   0  0  0  0  0  0  0  0  0  0  0  0
    0.0450    1.9984   -1.8339 C   0  0  0  0  0  0  0  0  0  0  0  0
   -0.6583    2.2251   -0.4806 C   0  0  2  0  0  0  0  0  0  0  0  0
    0.2859   -0.1144    1.5010 H   0  0  0  0  0  0  0  0  0  0  0  0
   -1.4367    1.4522    1.3403 H   0  0  0  0  0  0  0  0  0  0  0  0
   -1.0962   -0.6311   -0.8484 H   0  0  0  0  0  0  0  0  0  0  0  0
   -2.0210   -0.7731    0.6328 H   0  0  0  0  0  0  0  0  0  0  0  0
   -3.7886   -0.2113   -0.9627 H   0  0  0  0  0  0  0  0  0  0  0  0
   -3.9023    2.0073   -1.9195 H   0  0  0  0  0  0  0  0  0  0  0  0
   -2.2274    3.6829   -1.1811 H   0  0  0  0  0  0  0  0  0  0  0  0
    0.1958    0.9488   -2.1163 H   0  0  0  0  0  0  0  0  0  0  0  0
    0.9830    2.5424   -1.9860 H   0  0  0  0  0  0  0  0  0  0  0  0
   -0.2153    3.0582    0.0685 H   0  0  0  0  0  0  0  0  0  0  0  0
  1 10  1  0  0  0  0
  2  1  1  0  0  0  0
  2 11  1  1  0  0  0
  3  2  1  0  0  0  0
  3 13  1  0  0  0  0
  4  3  1  0  0  0  0
  5  6  1  0  0  0  0
  5  4  2  0  0  0  0
  6 16  1  1  0  0  0
  6  9  1  0  0  0  0
  7  8  1  0  0  0  0
  7  6  1  0  0  0  0
  8  9  1  0  0  0  0
  9 19  1  1  0  0  0
  9  2  1  0  0  0  0
 12  3  1  0  0  0  0
 14  4  1  0  0  0  0
 15  5  1  0  0  0  0
 17  8  1  0  0  0  0
 18  8  1  0  0  0  0
M TOR 0 0 1 2 3
M TOR 1 0 1 2 11
M TOR 2 0 1 2 12
M TOR 3 0 1 8 5
M TOR 4 0 1 8 7
M TOR 5 0 1 8 18
M TOR 6 1 2 3 4
M TOR 7 1 2 3 13
M TOR 8 1 8 5 4
M TOR 9 1 8 5 6
M TOR 10 1 8 5 15
M TOR 11 1 8 7 6
M TOR 12 1 8 7 16
M TOR 13 1 8 7 17
M TOR 14 2 1 0 9
M TOR 15 2 1 8 5
M TOR 16 2 1 8 7
M TOR 17 2 1 8 18
M TOR 18 2 3 4 5
M TOR 19 2 3 4 14
M TOR 20 3 2 1 8
M TOR 21 3 2 1 10
M TOR 22 3 4 5 6
M TOR 23 3 4 5 8
M TOR 24 3 4 5 15
M TOR 25 4 3 2 11
M TOR 26 4 3 2 12
M TOR 27 4 5 6 7
M TOR 28 4 5 8 7
M TOR 29 4 5 8 18
M TOR 30 5 4 3 13
M TOR 31 5 6 7 8
M TOR 32 5 6 7 16
M TOR 33 5 6 7 17
M TOR 34 5 8 1 10
M TOR 35 5 8 7 16
M TOR 36 5 8 7 17
M TOR 37 6 5 4 14
M TOR 38 6 5 8 18
M TOR 39 6 7 8 18
M TOR 40 7 6 5 15
M TOR 41 7 8 1 10
M TOR 42 7 8 5 15
M TOR 43 8 1 0 9
M TOR 44 8 1 2 11
M TOR 45 8 1 2 12
M TOR 46 8 5 4 14
M  END
$$$$
