gdb 3024	2.5548343	1.7896262	1.343271	2.1388	75.21	-0.2357	0.00986	0.24556	998.5028	0.157976	-422.564377	-422.556556	-422.555611	-422.595841	32.057
 OpenBabel02181911413D

 19 20  0  0  1  0  0  0  0  0999 V2000
    0.2633   -0.1820    0.2241 O   0  0  0  0  0  0  0  0  0  0  0  0
   -0.8774    0.3777    0.8305 C   0  0  2  0  0  0  0  0  0  0  0  0
   -2.1716    0.0960    0.0161 C   0  0  2  0  0  0  0  0  0  0  0  0
   -1.7820    1.3182   -0.8740 C   0  0  0  0  0  0  0  0  0  0  0  0
   -1.0883    1.8669    0.3989 C   0  0  2  0  0  0  0  0  0  0  0  0
    0.0691    2.6425    0.1921 O   0  0  0  0  0  0  0  0  0  0  0  0
   -2.1383    2.4759    1.2992 C   0  0  0  0  0  0  0  0  0  0  0  0
   -3.2471    1.7724    1.5293 C   0  0  0  0  0  0  0  0  0  0  0  0
   -3.4070    0.4157    0.8772 C   0  0  0  0  0  0  0  0  0  0  0  0
    0.8926    0.5444    0.1170 H   0  0  0  0  0  0  0  0  0  0  0  0
   -0.9031    0.1622    1.9079 H   0  0  0  0  0  0  0  0  0  0  0  0
   -2.2347   -0.8808   -0.4653 H   0  0  0  0  0  0  0  0  0  0  0  0
   -1.0488    1.0311   -1.6278 H   0  0  0  0  0  0  0  0  0  0  0  0
   -2.5744    1.9270   -1.3137 H   0  0  0  0  0  0  0  0  0  0  0  0
    0.3262    3.0386    1.0328 H   0  0  0  0  0  0  0  0  0  0  0  0
   -1.9647    3.4638    1.7182 H   0  0  0  0  0  0  0  0  0  0  0  0
   -4.0463    2.1510    2.1596 H   0  0  0  0  0  0  0  0  0  0  0  0
   -3.5465   -0.3585    1.6447 H   0  0  0  0  0  0  0  0  0  0  0  0
   -4.3193    0.3966    0.2648 H   0  0  0  0  0  0  0  0  0  0  0  0
  1  2  1  0  0  0  0
  2 11  1  1  0  0  0
  3 12  1  6  0  0  0
  3  2  1  0  0  0  0
  3  9  1  0  0  0  0
  4  3  1  0  0  0  0
  4  5  1  0  0  0  0
  5  6  1  6  0  0  0
  5  2  1  0  0  0  0
  5  7  1  0  0  0  0
  6 15  1  0  0  0  0
  7  8  2  0  0  0  0
  7 16  1  0  0  0  0
  8 17  1  0  0  0  0
  9  8  1  0  0  0  0
  9 18  1  0  0  0  0
 10  1  1  0  0  0  0
 13  4  1  0  0  0  0
 14  4  1  0  0  0  0
 19  9  1  0  0  0  0
M TOR 0 0 1 2 3
M TOR 1 0 1 2 8
M TOR 2 0 1 2 11
M TOR 3 0 1 4 3
M TOR 4 0 1 4 5
M TOR 5 0 1 4 6
M TOR 6 1 2 3 4
M TOR 7 1 2 3 12
M TOR 8 1 2 3 13
M TOR 9 1 2 8 7
M TOR 10 1 2 8 17
M TOR 11 1 2 8 18
M TOR 12 1 4 3 12
M TOR 13 1 4 3 13
M TOR 14 1 4 5 14
M TOR 15 1 4 6 7
M TOR 16 1 4 6 15
M TOR 17 2 1 0 9
M TOR 18 2 1 4 5
M TOR 19 2 1 4 6
M TOR 20 2 3 4 5
M TOR 21 2 3 4 6
M TOR 22 2 8 7 6
M TOR 23 2 8 7 16
M TOR 24 3 2 1 10
M TOR 25 3 2 8 7
M TOR 26 3 2 8 17
M TOR 27 3 2 8 18
M TOR 28 3 4 1 10
M TOR 29 3 4 5 14
M TOR 30 3 4 6 7
M TOR 31 3 4 6 15
M TOR 32 4 1 0 9
M TOR 33 4 1 2 8
M TOR 34 4 1 2 11
M TOR 35 4 3 2 8
M TOR 36 4 3 2 11
M TOR 37 4 6 7 8
M TOR 38 4 6 7 16
M TOR 39 5 4 1 10
M TOR 40 5 4 3 12
M TOR 41 5 4 3 13
M TOR 42 5 4 6 7
M TOR 43 5 4 6 15
M TOR 44 6 4 1 10
M TOR 45 6 4 3 12
M TOR 46 6 4 3 13
M TOR 47 6 4 5 14
M TOR 48 6 7 8 17
M TOR 49 6 7 8 18
M TOR 50 7 8 2 11
M TOR 51 8 2 1 10
M TOR 52 8 2 3 12
M TOR 53 8 2 3 13
M TOR 54 8 7 6 15
M  END
$$$$
