
     RDKit          3D

 19 19  0  0  0  0  0  0  0  0999 V2000
    0.1541    2.5229   -0.9378 O   0  0  0  0  0  0  0  0  0  0  0  0
   -1.2355    2.2730   -1.1092 C   0  0  0  0  0  0  0  0  0  0  0  0
   -1.6434    1.2098   -0.0938 C   0  0  0  0  0  0  0  0  0  0  0  0
   -0.8615   -0.1057   -0.2814 C   0  0  0  0  0  0  0  0  0  0  0  0
   -1.2468   -1.1297    0.6810 C   0  0  0  0  0  0  0  0  0  0  0  0
   -1.5842   -1.9568    1.4855 C   0  0  0  0  0  0  0  0  0  0  0  0
   -2.0104    3.5593   -0.9300 C   0  0  0  0  0  0  0  0  0  0  0  0
   -3.0962    3.9490   -1.8352 C   0  0  0  0  0  0  0  0  0  0  0  0
   -1.7955    4.5282   -1.9659 O   0  0  0  0  0  0  0  0  0  0  0  0
    0.3884    3.2357   -1.5432 H   0  0  0  0  0  0  0  0  0  0  0  0
   -1.4302    1.9004   -2.1296 H   0  0  0  0  0  0  0  0  0  0  0  0
   -1.4668    1.5927    0.9174 H   0  0  0  0  0  0  0  0  0  0  0  0
   -2.7177    1.0183   -0.1861 H   0  0  0  0  0  0  0  0  0  0  0  0
   -1.0211   -0.4826   -1.3005 H   0  0  0  0  0  0  0  0  0  0  0  0
    0.2095    0.1064   -0.1981 H   0  0  0  0  0  0  0  0  0  0  0  0
   -1.8703   -2.6963    2.1914 H   0  0  0  0  0  0  0  0  0  0  0  0
   -1.9905    3.9770    0.0777 H   0  0  0  0  0  0  0  0  0  0  0  0
   -3.3911    3.2789   -2.6416 H   0  0  0  0  0  0  0  0  0  0  0  0
   -3.8747    4.6245   -1.4848 H   0  0  0  0  0  0  0  0  0  0  0  0
  1  2  1  0
  2  3  1  0
  3  4  1  0
  4  5  1  0
  5  6  3  0
  2  7  1  0
  7  8  1  0
  8  9  1  0
  9  7  1  0
  1 10  1  0
  2 11  1  0
  3 12  1  0
  3 13  1  0
  4 14  1  0
  4 15  1  0
  6 16  1  0
  7 17  1  0
  8 18  1  0
  8 19  1  0
M  END
$$$$
