gdb 3136	1.9933663	1.7875847	1.3660291	1.7113	74.62	-0.23485	-0.02849	0.20636	1092.8932	0.156897	-422.578039	-422.569389	-422.568445	-422.611355	32.746
 OpenBabel02181911413D

 19 20  0  0  1  0  0  0  0  0999 V2000
   -0.4708    1.8369   -1.3814 C   0  0  0  0  0  0  0  0  0  0  0  0
   -0.7677    1.2431    0.0089 C   0  0  1  0  0  0  0  0  0  0  0  0
   -2.2094    0.7889    0.1641 C   0  0  2  0  0  0  0  0  0  0  0  0
   -2.5560    0.0326    1.4202 C   0  0  0  0  0  0  0  0  0  0  0  0
   -2.2648   -0.7317    0.1534 C   0  0  2  0  0  0  0  0  0  0  0  0
   -0.8681   -1.2763    0.0108 C   0  0  1  0  0  0  0  0  0  0  0  0
   -0.6934   -1.7477   -1.3251 O   0  0  0  0  0  0  0  0  0  0  0  0
    0.0516   -0.0431    0.1942 C   0  0  0  0  0  0  0  0  0  0  0  0
    1.2436   -0.1104    0.3581 O   0  0  0  0  0  0  0  0  0  0  0  0
   -0.7325    1.1220   -2.1671 H   0  0  0  0  0  0  0  0  0  0  0  0
   -1.0489    2.7525   -1.5391 H   0  0  0  0  0  0  0  0  0  0  0  0
    0.5918    2.0772   -1.4722 H   0  0  0  0  0  0  0  0  0  0  0  0
   -0.4647    1.9632    0.7778 H   0  0  0  0  0  0  0  0  0  0  0  0
   -2.9856    1.3678   -0.3235 H   0  0  0  0  0  0  0  0  0  0  0  0
   -1.8293    0.0056    2.2290 H   0  0  0  0  0  0  0  0  0  0  0  0
   -3.5854    0.0553    1.7593 H   0  0  0  0  0  0  0  0  0  0  0  0
   -3.0645   -1.2685   -0.3421 H   0  0  0  0  0  0  0  0  0  0  0  0
   -0.6194   -2.0591    0.7410 H   0  0  0  0  0  0  0  0  0  0  0  0
    0.2341   -1.9956   -1.4181 H   0  0  0  0  0  0  0  0  0  0  0  0
  1  2  1  0  0  0  0
  2  3  1  0  0  0  0
  2  8  1  0  0  0  0
  2 13  1  1  0  0  0
  3 14  1  6  0  0  0
  3  4  1  0  0  0  0
  4 16  1  0  0  0  0
  4 15  1  0  0  0  0
  5 17  1  6  0  0  0
  5  3  1  0  0  0  0
  5  4  1  0  0  0  0
  6  5  1  0  0  0  0
  6  8  1  0  0  0  0
  6 18  1  1  0  0  0
  7  6  1  0  0  0  0
  8  9  2  0  0  0  0
 10  1  1  0  0  0  0
 11  1  1  0  0  0  0
 12  1  1  0  0  0  0
 19  7  1  0  0  0  0
M TOR 0 0 1 2 3
M TOR 1 0 1 2 4
M TOR 2 0 1 2 13
M TOR 3 0 1 7 5
M TOR 4 0 1 7 8
M TOR 5 1 2 3 4
M TOR 6 1 2 3 14
M TOR 7 1 2 3 15
M TOR 8 1 2 4 5
M TOR 9 1 2 4 16
M TOR 10 1 7 5 4
M TOR 11 1 7 5 6
M TOR 12 1 7 5 17
M TOR 13 2 1 0 9
M TOR 14 2 1 0 10
M TOR 15 2 1 0 11
M TOR 16 2 1 7 5
M TOR 17 2 1 7 8
M TOR 18 2 3 4 5
M TOR 19 2 3 4 16
M TOR 20 2 4 3 14
M TOR 21 2 4 3 15
M TOR 22 2 4 5 6
M TOR 23 2 4 5 7
M TOR 24 2 4 5 17
M TOR 25 3 2 1 7
M TOR 26 3 2 1 12
M TOR 27 3 4 2 13
M TOR 28 3 4 5 6
M TOR 29 3 4 5 7
M TOR 30 3 4 5 17
M TOR 31 4 2 1 7
M TOR 32 4 2 1 12
M TOR 33 4 5 6 18
M TOR 34 4 5 7 8
M TOR 35 5 4 2 13
M TOR 36 5 4 3 14
M TOR 37 5 4 3 15
M TOR 38 5 7 1 12
M TOR 39 6 5 4 16
M TOR 40 6 5 7 8
M TOR 41 7 1 0 9
M TOR 42 7 1 0 10
M TOR 43 7 1 0 11
M TOR 44 7 1 2 13
M TOR 45 7 5 4 16
M TOR 46 7 5 6 18
M TOR 47 8 7 1 12
M TOR 48 8 7 5 17
M  END
$$$$
