
     RDKit          3D

 19 21  0  0  0  0  0  0  0  0999 V2000
    1.2535    0.9803   -2.2286 C   0  0  0  0  0  0  0  0  0  0  0  0
    1.8317   -0.3072   -1.6237 C   0  0  0  0  0  0  0  0  0  0  0  0
    0.8323   -0.9645   -0.6392 C   0  0  0  0  0  0  0  0  0  0  0  0
    0.4614    0.0682    0.4544 C   0  0  0  0  0  0  0  0  0  0  0  0
   -0.1089    1.3534   -0.1626 C   0  0  0  0  0  0  0  0  0  0  0  0
    1.1430    1.8146   -0.9363 C   0  0  0  0  0  0  0  0  0  0  0  0
    2.3108    1.2033   -0.0558 C   0  0  0  0  0  0  0  0  0  0  0  0
    2.9315    0.2239   -0.8667 O   0  0  0  0  0  0  0  0  0  0  0  0
    1.6761    0.5678    1.0374 O   0  0  0  0  0  0  0  0  0  0  0  0
    1.9714    1.4037   -2.9358 H   0  0  0  0  0  0  0  0  0  0  0  0
    0.2935    0.8509   -2.7354 H   0  0  0  0  0  0  0  0  0  0  0  0
    2.2312   -1.0202   -2.3474 H   0  0  0  0  0  0  0  0  0  0  0  0
   -0.0640   -1.3088   -1.1680 H   0  0  0  0  0  0  0  0  0  0  0  0
    1.3059   -1.8319   -0.1703 H   0  0  0  0  0  0  0  0  0  0  0  0
   -0.1420   -0.3701    1.2516 H   0  0  0  0  0  0  0  0  0  0  0  0
   -0.9763    1.1988   -0.8095 H   0  0  0  0  0  0  0  0  0  0  0  0
   -0.3832    2.0486    0.6351 H   0  0  0  0  0  0  0  0  0  0  0  0
    1.2218    2.8919   -1.0789 H   0  0  0  0  0  0  0  0  0  0  0  0
    3.0737    1.8813    0.3247 H   0  0  0  0  0  0  0  0  0  0  0  0
  1  2  1  0
  2  3  1  0
  3  4  1  0
  4  5  1  0
  5  6  1  0
  6  7  1  0
  7  8  1  0
  7  9  1  0
  6  1  1  0
  8  2  1  0
  9  4  1  0
  1 10  1  0
  1 11  1  0
  2 12  1  0
  3 13  1  0
  3 14  1  0
  4 15  1  0
  5 16  1  0
  5 17  1  0
  6 18  1  0
  7 19  1  0
M  END
$$$$
