
     RDKit          3D

 19 20  0  0  0  0  0  0  0  0999 V2000
    1.5390   -0.2696   -0.1302 C   0  0  0  0  0  0  0  0  0  0  0  0
    0.1452   -0.0382   -0.0797 O   0  0  0  0  0  0  0  0  0  0  0  0
   -0.2897    0.5611    1.0996 C   0  0  0  0  0  0  0  0  0  0  0  0
   -1.8109    0.8480    1.1688 C   0  0  0  0  0  0  0  0  0  0  0  0
   -1.4431    1.8780    2.2895 C   0  0  0  0  0  0  0  0  0  0  0  0
   -0.3282    2.1411    1.2131 C   0  0  0  0  0  0  0  0  0  0  0  0
    0.7961    3.1359    1.2574 C   0  0  0  0  0  0  0  0  0  0  0  0
   -1.4971    2.0161    0.2129 C   0  0  0  0  0  0  0  0  0  0  0  0
   -1.9393    2.5703   -0.7435 O   0  0  0  0  0  0  0  0  0  0  0  0
    1.8735   -0.8923    0.7134 H   0  0  0  0  0  0  0  0  0  0  0  0
    1.7416   -0.8000   -1.0629 H   0  0  0  0  0  0  0  0  0  0  0  0
    2.1150    0.6658   -0.1214 H   0  0  0  0  0  0  0  0  0  0  0  0
    0.1250    0.0678    1.9908 H   0  0  0  0  0  0  0  0  0  0  0  0
   -2.6223    0.1255    1.1593 H   0  0  0  0  0  0  0  0  0  0  0  0
   -2.1528    2.6843    2.4746 H   0  0  0  0  0  0  0  0  0  0  0  0
   -1.0838    1.4310    3.2200 H   0  0  0  0  0  0  0  0  0  0  0  0
    1.4797    2.9351    2.0891 H   0  0  0  0  0  0  0  0  0  0  0  0
    1.3730    3.1133    0.3276 H   0  0  0  0  0  0  0  0  0  0  0  0
    0.4083    4.1528    1.3783 H   0  0  0  0  0  0  0  0  0  0  0  0
  1  2  1  0
  2  3  1  0
  3  4  1  0
  4  5  1  0
  5  6  1  0
  6  7  1  0
  6  8  1  0
  8  9  2  0
  6  3  1  0
  8  4  1  0
  1 10  1  0
  1 11  1  0
  1 12  1  0
  3 13  1  0
  4 14  1  0
  5 15  1  0
  5 16  1  0
  7 17  1  0
  7 18  1  0
  7 19  1  0
M  END
$$$$
