
     RDKit          3D

 19 20  0  0  0  0  0  0  0  0999 V2000
    2.4214    0.6126   -1.8855 C   0  0  0  0  0  0  0  0  0  0  0  0
    3.1258    1.0909   -0.6357 C   0  0  0  0  0  0  0  0  0  0  0  0
    2.2647    1.3474    0.3461 C   0  0  0  0  0  0  0  0  0  0  0  0
    0.8397    1.0416   -0.0666 C   0  0  0  0  0  0  0  0  0  0  0  0
   -0.2540    2.0050    0.4083 C   0  0  0  0  0  0  0  0  0  0  0  0
   -0.2334    3.2293   -0.3071 O   0  0  0  0  0  0  0  0  0  0  0  0
   -0.3292    2.9841   -1.6828 C   0  0  0  0  0  0  0  0  0  0  0  0
    0.7824    2.2976   -2.1843 O   0  0  0  0  0  0  0  0  0  0  0  0
    0.9554    0.9977   -1.6176 C   0  0  0  0  0  0  0  0  0  0  0  0
    2.7754    1.0900   -2.8045 H   0  0  0  0  0  0  0  0  0  0  0  0
    2.5313   -0.4727   -2.0169 H   0  0  0  0  0  0  0  0  0  0  0  0
    4.2038    1.1824   -0.5691 H   0  0  0  0  0  0  0  0  0  0  0  0
    2.5217    1.6850    1.3442 H   0  0  0  0  0  0  0  0  0  0  0  0
    0.5656    0.0391    0.2974 H   0  0  0  0  0  0  0  0  0  0  0  0
   -1.2414    1.5267    0.2899 H   0  0  0  0  0  0  0  0  0  0  0  0
   -0.1273    2.2550    1.4659 H   0  0  0  0  0  0  0  0  0  0  0  0
   -1.2590    2.4198   -1.8975 H   0  0  0  0  0  0  0  0  0  0  0  0
   -0.3545    3.9535   -2.1847 H   0  0  0  0  0  0  0  0  0  0  0  0
    0.2294    0.3060   -2.0689 H   0  0  0  0  0  0  0  0  0  0  0  0
  1  2  1  0
  2  3  2  0
  3  4  1  0
  4  5  1  0
  5  6  1  0
  6  7  1  0
  7  8  1  0
  8  9  1  0
  9  1  1  0
  9  4  1  0
  1 10  1  0
  1 11  1  0
  2 12  1  0
  3 13  1  0
  4 14  1  0
  5 15  1  0
  5 16  1  0
  7 17  1  0
  7 18  1  0
  9 19  1  0
M  END
$$$$
