gdb 1903	2.3563199	1.6053452	1.1524924	2.7438	76.37	-0.25422	-0.03537	0.21885	1115.7074	0.155981	-422.57708	-422.568403	-422.567459	-422.610153	32.584
 OpenBabel02181911403D

 19 20  0  0  1  0  0  0  0  0999 V2000
   -0.0647   -0.1395   -0.0811 C   0  0  0  0  0  0  0  0  0  0  0  0
    1.4322    0.0147   -0.1437 C   0  0  1  0  0  0  0  0  0  0  0  0
    2.1937   -0.5041   -1.3577 C   0  0  0  0  0  0  0  0  0  0  0  0
    3.6335    0.0240   -1.1790 C   0  0  0  0  0  0  0  0  0  0  0  0
    3.4890    1.3421   -0.3852 C   0  0  0  0  0  0  0  0  0  0  0  0
    2.2327    1.1353    0.4361 C   0  0  2  0  0  0  0  0  0  0  0  0
    2.1521   -0.1556    1.0782 O   0  0  0  0  0  0  0  0  0  0  0  0
    1.6082    2.2570    1.1845 C   0  0  0  0  0  0  0  0  0  0  0  0
    1.8902    3.4171    1.0082 O   0  0  0  0  0  0  0  0  0  0  0  0
   -0.4736    0.2689    0.8449 H   0  0  0  0  0  0  0  0  0  0  0  0
   -0.5420    0.3620   -0.9289 H   0  0  0  0  0  0  0  0  0  0  0  0
   -0.3315   -1.2010   -0.1284 H   0  0  0  0  0  0  0  0  0  0  0  0
    2.1459   -1.5957   -1.4308 H   0  0  0  0  0  0  0  0  0  0  0  0
    1.7243   -0.0957   -2.2612 H   0  0  0  0  0  0  0  0  0  0  0  0
    4.2128   -0.6920   -0.5923 H   0  0  0  0  0  0  0  0  0  0  0  0
    4.1489    0.1637   -2.1317 H   0  0  0  0  0  0  0  0  0  0  0  0
    4.3607    1.5610    0.2378 H   0  0  0  0  0  0  0  0  0  0  0  0
    3.3320    2.2067   -1.0386 H   0  0  0  0  0  0  0  0  0  0  0  0
    0.8553    1.9398    1.9375 H   0  0  0  0  0  0  0  0  0  0  0  0
  1 10  1  0  0  0  0
  2  1  1  6  0  0  0
  2  6  1  0  0  0  0
  2  7  1  0  0  0  0
  3  4  1  0  0  0  0
  3  2  1  0  0  0  0
  4 15  1  0  0  0  0
  4  5  1  0  0  0  0
  5 17  1  0  0  0  0
  5  6  1  0  0  0  0
  6  7  1  0  0  0  0
  6  8  1  1  0  0  0
  8 19  1  0  0  0  0
  9  8  2  0  0  0  0
 11  1  1  0  0  0  0
 12  1  1  0  0  0  0
 13  3  1  0  0  0  0
 14  3  1  0  0  0  0
 16  4  1  0  0  0  0
 18  5  1  0  0  0  0
M TOR 0 0 1 2 3
M TOR 1 0 1 2 12
M TOR 2 0 1 2 13
M TOR 3 0 1 5 4
M TOR 4 0 1 5 6
M TOR 5 0 1 5 7
M TOR 6 1 2 3 4
M TOR 7 1 2 3 14
M TOR 8 1 2 3 15
M TOR 9 1 5 4 3
M TOR 10 1 5 4 16
M TOR 11 1 5 4 17
M TOR 12 1 5 7 8
M TOR 13 1 5 7 18
M TOR 14 1 6 5 4
M TOR 15 1 6 5 7
M TOR 16 2 1 0 9
M TOR 17 2 1 0 10
M TOR 18 2 1 0 11
M TOR 19 2 1 5 4
M TOR 20 2 1 5 6
M TOR 21 2 1 5 7
M TOR 22 2 3 4 5
M TOR 23 2 3 4 16
M TOR 24 2 3 4 17
M TOR 25 3 2 1 5
M TOR 26 3 2 1 6
M TOR 27 3 4 5 6
M TOR 28 3 4 5 7
M TOR 29 4 3 2 12
M TOR 30 4 3 2 13
M TOR 31 4 5 7 8
M TOR 32 4 5 7 18
M TOR 33 5 1 0 9
M TOR 34 5 1 0 10
M TOR 35 5 1 0 11
M TOR 36 5 1 2 12
M TOR 37 5 1 2 13
M TOR 38 5 4 3 14
M TOR 39 5 4 3 15
M TOR 40 6 1 0 9
M TOR 41 6 1 0 10
M TOR 42 6 1 0 11
M TOR 43 6 1 2 12
M TOR 44 6 1 2 13
M TOR 45 6 5 4 16
M TOR 46 6 5 4 17
M TOR 47 6 5 7 8
M TOR 48 6 5 7 18
M TOR 49 7 5 4 16
M TOR 50 7 5 4 17
M  END
$$$$
