
     RDKit          3D

 19 21  0  0  0  0  0  0  0  0999 V2000
    0.3521    0.4242    1.4311 C   0  0  0  0  0  0  0  0  0  0  0  0
   -0.4699    1.3955    0.5282 C   0  0  0  0  0  0  0  0  0  0  0  0
    0.0170    0.5783   -0.6673 C   0  0  0  0  0  0  0  0  0  0  0  0
    0.2131    1.1000   -1.9811 O   0  0  0  0  0  0  0  0  0  0  0  0
   -0.2758   -0.1234   -2.5864 C   0  0  0  0  0  0  0  0  0  0  0  0
   -0.7002   -0.6776   -1.2005 C   0  0  0  0  0  0  0  0  0  0  0  0
   -0.0862   -1.8347   -0.6865 O   0  0  0  0  0  0  0  0  0  0  0  0
    1.2244   -1.4979   -0.2060 C   0  0  0  0  0  0  0  0  0  0  0  0
    1.1688   -0.0230    0.1786 C   0  0  0  0  0  0  0  0  0  0  0  0
    0.9204    0.8753    2.2456 H   0  0  0  0  0  0  0  0  0  0  0  0
   -0.2582   -0.3892    1.8314 H   0  0  0  0  0  0  0  0  0  0  0  0
   -1.5485    1.4775    0.6857 H   0  0  0  0  0  0  0  0  0  0  0  0
   -0.0337    2.3987    0.5198 H   0  0  0  0  0  0  0  0  0  0  0  0
   -1.0817    0.0739   -3.3009 H   0  0  0  0  0  0  0  0  0  0  0  0
    0.5202   -0.6954   -3.0779 H   0  0  0  0  0  0  0  0  0  0  0  0
   -1.7785   -0.7690   -1.0553 H   0  0  0  0  0  0  0  0  0  0  0  0
    1.4465   -2.1747    0.6248 H   0  0  0  0  0  0  0  0  0  0  0  0
    1.9754   -1.6625   -0.9928 H   0  0  0  0  0  0  0  0  0  0  0  0
    2.1255    0.4927    0.0836 H   0  0  0  0  0  0  0  0  0  0  0  0
  1  2  1  0
  2  3  1  0
  3  4  1  0
  4  5  1  0
  5  6  1  0
  6  7  1  0
  7  8  1  0
  8  9  1  0
  9  1  1  0
  6  3  1  0
  9  3  1  0
  1 10  1  0
  1 11  1  0
  2 12  1  0
  2 13  1  0
  5 14  1  0
  5 15  1  0
  6 16  1  0
  8 17  1  0
  8 18  1  0
  9 19  1  0
M  END
$$$$
