gdb 4661	1.924469	1.1952277	0.9344481	1.3174	76.76	-0.23958	-0.02014	0.21944	1362.1238	0.152851	-422.543207	-422.532417	-422.531473	-422.58002	37.732
 OpenBabel02181911413D

 19 18  0  0  1  0  0  0  0  0999 V2000
    2.5022    3.6509   -2.5829 C   0  0  0  0  0  0  0  0  0  0  0  0
    2.7358    2.3491   -1.8200 C   0  0  0  0  0  0  0  0  0  0  0  0
    2.6591    2.5126   -0.3125 C   0  0  0  0  0  0  0  0  0  0  0  0
    2.2871    3.5340    0.2193 O   0  0  0  0  0  0  0  0  0  0  0  0
    3.1754    1.3480    0.5576 C   0  0  2  0  0  0  0  0  0  0  0  0
    4.5964    1.3013    0.4430 O   0  0  0  0  0  0  0  0  0  0  0  0
    2.6741   -0.0438    0.1457 C   0  0  0  0  0  0  0  0  0  0  0  0
    1.2211   -0.1439    0.1457 C   0  0  0  0  0  0  0  0  0  0  0  0
    0.0207   -0.1989    0.1436 C   0  0  0  0  0  0  0  0  0  0  0  0
    3.2663    4.3934   -2.3362 H   0  0  0  0  0  0  0  0  0  0  0  0
    2.5287    3.4762   -3.6620 H   0  0  0  0  0  0  0  0  0  0  0  0
    1.5333    4.0839   -2.3234 H   0  0  0  0  0  0  0  0  0  0  0  0
    1.9864    1.5957   -2.1001 H   0  0  0  0  0  0  0  0  0  0  0  0
    3.7086    1.9031   -2.0609 H   0  0  0  0  0  0  0  0  0  0  0  0
    2.8630    1.5654    1.5866 H   0  0  0  0  0  0  0  0  0  0  0  0
    4.9516    2.0979    0.8518 H   0  0  0  0  0  0  0  0  0  0  0  0
    3.0740   -0.2850   -0.8460 H   0  0  0  0  0  0  0  0  0  0  0  0
    3.1105   -0.7727    0.8380 H   0  0  0  0  0  0  0  0  0  0  0  0
   -1.0398   -0.2555    0.1466 H   0  0  0  0  0  0  0  0  0  0  0  0
  1 10  1  0  0  0  0
  1 12  1  0  0  0  0
  1  2  1  0  0  0  0
  2  3  1  0  0  0  0
  3  4  2  0  0  0  0
  3  5  1  0  0  0  0
  5 15  1  1  0  0  0
  6  5  1  0  0  0  0
  6 16  1  0  0  0  0
  7  8  1  0  0  0  0
  7  5  1  0  0  0  0
  7 18  1  0  0  0  0
  9  8  3  0  0  0  0
  9 19  1  0  0  0  0
 11  1  1  0  0  0  0
 13  2  1  0  0  0  0
 14  2  1  0  0  0  0
 17  7  1  0  0  0  0
M TOR 0 0 1 2 3
M TOR 1 0 1 2 4
M TOR 2 1 2 4 5
M TOR 3 1 2 4 6
M TOR 4 1 2 4 14
M TOR 5 2 1 0 9
M TOR 6 2 1 0 10
M TOR 7 2 1 0 11
M TOR 8 2 4 5 15
M TOR 9 2 4 6 7
M TOR 10 2 4 6 16
M TOR 11 2 4 6 17
M TOR 12 3 2 1 12
M TOR 13 3 2 1 13
M TOR 14 3 2 4 5
M TOR 15 3 2 4 6
M TOR 16 3 2 4 14
M TOR 17 4 2 1 12
M TOR 18 4 2 1 13
M TOR 19 4 6 7 8
M TOR 20 5 4 6 7
M TOR 21 5 4 6 16
M TOR 22 5 4 6 17
M TOR 23 6 4 5 15
M TOR 24 6 7 8 18
M TOR 25 7 6 4 14
M TOR 26 8 7 6 16
M TOR 27 8 7 6 17
M  END
$$$$
