
     RDKit          3D

 19 20  0  0  0  0  0  0  0  0999 V2000
   -1.9893   -2.8544   -1.8049 C   0  0  0  0  0  0  0  0  0  0  0  0
   -1.6203   -1.4588   -1.3528 C   0  0  0  0  0  0  0  0  0  0  0  0
   -0.8250   -1.2797   -0.0610 C   0  0  0  0  0  0  0  0  0  0  0  0
    0.0470   -0.0698   -0.0340 C   0  0  0  0  0  0  0  0  0  0  0  0
    1.2271    0.0093    0.1474 O   0  0  0  0  0  0  0  0  0  0  0  0
   -0.7276    1.0375   -0.2750 O   0  0  0  0  0  0  0  0  0  0  0  0
   -2.1255    0.7279   -0.1859 C   0  0  0  0  0  0  0  0  0  0  0  0
   -2.2569   -0.7943   -0.1648 C   0  0  0  0  0  0  0  0  0  0  0  0
   -3.4234   -1.3721    0.5991 C   0  0  0  0  0  0  0  0  0  0  0  0
   -2.1812   -3.5252   -0.9632 H   0  0  0  0  0  0  0  0  0  0  0  0
   -2.8866   -2.8400   -2.4332 H   0  0  0  0  0  0  0  0  0  0  0  0
   -1.1767   -3.2916   -2.3936 H   0  0  0  0  0  0  0  0  0  0  0  0
   -1.3371   -0.7946   -2.1676 H   0  0  0  0  0  0  0  0  0  0  0  0
   -0.5114   -2.1517    0.4976 H   0  0  0  0  0  0  0  0  0  0  0  0
   -2.5201    1.1695    0.7375 H   0  0  0  0  0  0  0  0  0  0  0  0
   -2.6309    1.1928   -1.0390 H   0  0  0  0  0  0  0  0  0  0  0  0
   -3.4196   -1.0238    1.6376 H   0  0  0  0  0  0  0  0  0  0  0  0
   -4.3752   -1.0664    0.1487 H   0  0  0  0  0  0  0  0  0  0  0  0
   -3.4041   -2.4638    0.6154 H   0  0  0  0  0  0  0  0  0  0  0  0
  1  2  1  0
  2  3  1  0
  3  4  1  0
  4  5  2  0
  4  6  1  0
  6  7  1  0
  7  8  1  0
  8  9  1  0
  8  2  1  0
  8  3  1  0
  1 10  1  0
  1 11  1  0
  1 12  1  0
  2 13  1  0
  3 14  1  0
  7 15  1  0
  7 16  1  0
  9 17  1  0
  9 18  1  0
  9 19  1  0
M  END
$$$$
