gdb 5759	3.6420939	1.180269	1.054263	2.4049	74.45	-0.24908	0.0706	0.31967999999999996	1176.2986	0.156943	-422.490637	-422.48261	-422.481666	-422.52334	30.868
 OpenBabel02181911423D

 19 21  0  0  1  0  0  0  0  0999 V2000
    1.4601    0.5853   -0.3472 O   0  0  0  0  0  0  0  0  0  0  0  0
    0.1031    0.2992   -0.0394 C   0  0  0  0  0  0  0  0  0  0  0  0
   -0.6971    0.3850   -1.3248 C   0  0  1  0  0  0  0  0  0  0  0  0
   -2.2475    0.3370   -1.1241 C   0  0  0  0  0  0  0  0  0  0  0  0
   -2.3691    1.7816   -1.6920 C   0  0  2  0  0  0  0  0  0  0  0  0
   -2.5339    1.9152   -3.2273 C   0  0  2  0  0  0  0  0  0  0  0  0
   -1.8436    0.8238   -3.8463 O   0  0  0  0  0  0  0  0  0  0  0  0
   -1.0726    1.9565   -3.4228 C   0  0  2  0  0  0  0  0  0  0  0  0
   -0.8190    1.8271   -1.9017 C   0  0  2  0  0  0  0  0  0  0  0  0
    1.9681    0.5546    0.4686 H   0  0  0  0  0  0  0  0  0  0  0  0
   -0.0078   -0.7075    0.3963 H   0  0  0  0  0  0  0  0  0  0  0  0
   -0.2964    1.0182    0.6962 H   0  0  0  0  0  0  0  0  0  0  0  0
   -0.3144   -0.3437   -2.0423 H   0  0  0  0  0  0  0  0  0  0  0  0
   -2.7661   -0.4325   -1.6976 H   0  0  0  0  0  0  0  0  0  0  0  0
   -2.5475    0.2612   -0.0745 H   0  0  0  0  0  0  0  0  0  0  0  0
   -2.8890    2.5380   -1.1043 H   0  0  0  0  0  0  0  0  0  0  0  0
   -3.3481    2.3578   -3.7910 H   0  0  0  0  0  0  0  0  0  0  0  0
   -0.4606    2.4355   -4.1792 H   0  0  0  0  0  0  0  0  0  0  0  0
   -0.1963    2.6060   -1.4626 H   0  0  0  0  0  0  0  0  0  0  0  0
  1  2  1  0  0  0  0
  1 10  1  0  0  0  0
  2 11  1  0  0  0  0
  2 12  1  0  0  0  0
  3 13  1  6  0  0  0
  3  4  1  0  0  0  0
  3  2  1  0  0  0  0
  4 15  1  0  0  0  0
  5  4  1  0  0  0  0
  5 16  1  1  0  0  0
  6 17  1  6  0  0  0
  6  5  1  0  0  0  0
  7  8  1  0  0  0  0
  7  6  1  0  0  0  0
  8 18  1  6  0  0  0
  8  6  1  0  0  0  0
  8  9  1  0  0  0  0
  9  5  1  0  0  0  0
  9 19  1  1  0  0  0
  9  3  1  0  0  0  0
 14  4  1  0  0  0  0
M TOR 0 0 1 2 3
M TOR 1 0 1 2 8
M TOR 2 0 1 2 12
M TOR 3 1 2 3 4
M TOR 4 1 2 3 13
M TOR 5 1 2 3 14
M TOR 6 1 2 8 4
M TOR 7 1 2 8 7
M TOR 8 1 2 8 18
M TOR 9 2 1 0 9
M TOR 10 2 3 4 5
M TOR 11 2 3 4 8
M TOR 12 2 3 4 15
M TOR 13 2 8 4 5
M TOR 14 2 8 4 15
M TOR 15 2 8 7 5
M TOR 16 2 8 7 6
M TOR 17 2 8 7 17
M TOR 18 3 2 1 10
M TOR 19 3 2 1 11
M TOR 20 3 2 8 7
M TOR 21 3 2 8 18
M TOR 22 3 4 5 6
M TOR 23 3 4 5 7
M TOR 24 3 4 5 16
M TOR 25 3 4 8 7
M TOR 26 3 4 8 18
M TOR 27 4 3 2 12
M TOR 28 4 5 6 7
M TOR 29 4 5 7 8
M TOR 30 4 5 7 17
M TOR 31 4 8 2 12
M TOR 32 4 8 7 6
M TOR 33 4 8 7 17
M TOR 34 5 4 3 13
M TOR 35 5 4 3 14
M TOR 36 5 4 8 18
M TOR 37 5 6 7 8
M TOR 38 5 6 7 17
M TOR 39 5 7 8 18
M TOR 40 6 5 4 8
M TOR 41 6 5 4 15
M TOR 42 6 7 5 16
M TOR 43 6 7 8 18
M TOR 44 7 5 4 15
M TOR 45 7 8 2 12
M TOR 46 7 8 4 15
M TOR 47 8 2 1 10
M TOR 48 8 2 1 11
M TOR 49 8 2 3 13
M TOR 50 8 2 3 14
M TOR 51 8 4 3 13
M TOR 52 8 4 3 14
M TOR 53 8 4 5 16
M TOR 54 8 7 5 16
M  END
$$$$
