gdb 2100	2.4072781	1.9013677	1.404711	2.3954	74.51	-0.24033	0.06821	0.30854	979.8634	0.157686	-422.540426	-422.532473	-422.531529	-422.572203	31.812
 OpenBabel02181911403D

 19 21  0  0  1  0  0  0  0  0999 V2000
    0.4097    0.6558    0.1107 O   0  0  0  0  0  0  0  0  0  0  0  0
   -0.8201    0.9631    0.6619 C   0  0  2  0  0  0  0  0  0  0  0  0
   -1.2737    0.8764    2.1438 C   0  0  0  0  0  0  0  0  0  0  0  0
   -2.5212    1.2826    1.3142 C   0  0  2  0  0  0  0  0  0  0  0  0
   -3.8268    1.4515    1.7353 O   0  0  0  0  0  0  0  0  0  0  0  0
   -2.1307    0.2622    0.2098 C   0  0  1  0  0  0  0  0  0  0  0  0
   -2.5504    0.8115   -1.1536 C   0  0  0  0  0  0  0  0  0  0  0  0
   -2.1939    2.3155   -0.9608 C   0  0  0  0  0  0  0  0  0  0  0  0
   -1.6535    2.2769    0.4675 C   0  0  2  0  0  0  0  0  0  0  0  0
    1.0664    1.2611    0.4712 H   0  0  0  0  0  0  0  0  0  0  0  0
   -1.2867   -0.1184    2.5971 H   0  0  0  0  0  0  0  0  0  0  0  0
   -0.8692    1.6281    2.8306 H   0  0  0  0  0  0  0  0  0  0  0  0
   -3.8544    2.1838    2.3602 H   0  0  0  0  0  0  0  0  0  0  0  0
   -2.2503   -0.8023    0.4194 H   0  0  0  0  0  0  0  0  0  0  0  0
   -1.9891    0.3477   -1.9696 H   0  0  0  0  0  0  0  0  0  0  0  0
   -3.6153    0.6531   -1.3460 H   0  0  0  0  0  0  0  0  0  0  0  0
   -1.4421    2.6636   -1.6756 H   0  0  0  0  0  0  0  0  0  0  0  0
   -3.0670    2.9689   -1.0525 H   0  0  0  0  0  0  0  0  0  0  0  0
   -1.3006    3.2002    0.9355 H   0  0  0  0  0  0  0  0  0  0  0  0
  1 10  1  0  0  0  0
  2  1  1  6  0  0  0
  2  3  1  0  0  0  0
  3 11  1  0  0  0  0
  3 12  1  0  0  0  0
  4  5  1  1  0  0  0
  4  3  1  0  0  0  0
  5 13  1  0  0  0  0
  6 14  1  1  0  0  0
  6  2  1  0  0  0  0
  6  4  1  0  0  0  0
  7  8  1  0  0  0  0
  7  6  1  0  0  0  0
  8  9  1  0  0  0  0
  9  2  1  0  0  0  0
  9 19  1  1  0  0  0
  9  4  1  0  0  0  0
 15  7  1  0  0  0  0
 16  7  1  0  0  0  0
 17  8  1  0  0  0  0
 18  8  1  0  0  0  0
M TOR 0 0 1 2 3
M TOR 1 0 1 2 10
M TOR 2 0 1 2 11
M TOR 3 0 1 5 3
M TOR 4 0 1 5 6
M TOR 5 0 1 5 13
M TOR 6 0 1 8 3
M TOR 7 0 1 8 7
M TOR 8 0 1 8 18
M TOR 9 1 2 3 4
M TOR 10 1 2 3 5
M TOR 11 1 2 3 8
M TOR 12 1 5 3 4
M TOR 13 1 5 3 8
M TOR 14 1 5 6 7
M TOR 15 1 5 6 14
M TOR 16 1 5 6 15
M TOR 17 1 8 3 4
M TOR 18 1 8 7 6
M TOR 19 1 8 7 16
M TOR 20 1 8 7 17
M TOR 21 2 1 0 9
M TOR 22 2 1 5 6
M TOR 23 2 1 5 13
M TOR 24 2 1 8 7
M TOR 25 2 1 8 18
M TOR 26 2 3 4 12
M TOR 27 2 3 5 6
M TOR 28 2 3 5 13
M TOR 29 2 3 8 7
M TOR 30 2 3 8 18
M TOR 31 3 5 6 7
M TOR 32 3 5 6 14
M TOR 33 3 5 6 15
M TOR 34 3 8 7 6
M TOR 35 3 8 7 16
M TOR 36 3 8 7 17
M TOR 37 4 3 2 10
M TOR 38 4 3 2 11
M TOR 39 4 3 5 6
M TOR 40 4 3 5 13
M TOR 41 4 3 8 7
M TOR 42 4 3 8 18
M TOR 43 5 1 0 9
M TOR 44 5 1 2 10
M TOR 45 5 1 2 11
M TOR 46 5 1 8 7
M TOR 47 5 1 8 18
M TOR 48 5 3 2 10
M TOR 49 5 3 2 11
M TOR 50 5 3 4 12
M TOR 51 5 3 8 7
M TOR 52 5 3 8 18
M TOR 53 5 6 7 8
M TOR 54 5 6 7 16
M TOR 55 5 6 7 17
M TOR 56 6 5 1 8
M TOR 57 6 5 3 8
M TOR 58 6 7 8 18
M TOR 59 7 6 5 13
M TOR 60 8 1 0 9
M TOR 61 8 1 2 10
M TOR 62 8 1 2 11
M TOR 63 8 1 5 13
M TOR 64 8 3 2 10
M TOR 65 8 3 2 11
M TOR 66 8 3 4 12
M TOR 67 8 3 5 13
M TOR 68 8 7 6 14
M TOR 69 8 7 6 15
M  END
$$$$
