gdb 2890	3.1974686	1.5190538	1.2870768	1.9358	74.12	-0.24826	0.07006	0.31832	1017.6378	0.158738	-422.52751	-422.520045	-422.519101	-422.558838	30.489
 OpenBabel02181911413D

 19 21  0  0  1  0  0  0  0  0999 V2000
   -3.4586    2.9563    0.5605 O   0  0  0  0  0  0  0  0  0  0  0  0
   -2.6899    1.8211    0.8919 C   0  0  2  0  0  0  0  0  0  0  0  0
   -2.0289    1.8838    2.2814 C   0  0  2  0  0  0  0  0  0  0  0  0
   -0.8149    2.6673    1.6641 C   0  0  1  0  0  0  0  0  0  0  0  0
    0.1458    1.8652    2.5531 C   0  0  0  0  0  0  0  0  0  0  0  0
   -0.9203    0.7507    2.3934 C   0  0  2  0  0  0  0  0  0  0  0  0
   -0.7853    0.4087    0.8853 C   0  0  2  0  0  0  0  0  0  0  0  0
    0.5194    0.0801    0.4457 O   0  0  0  0  0  0  0  0  0  0  0  0
   -1.2158    1.7978    0.3891 C   0  0  1  0  0  0  0  0  0  0  0  0
   -2.9782    3.7430    0.8407 H   0  0  0  0  0  0  0  0  0  0  0  0
   -3.3166    0.9625    0.6323 H   0  0  0  0  0  0  0  0  0  0  0  0
   -2.5558    2.1865    3.1867 H   0  0  0  0  0  0  0  0  0  0  0  0
   -0.7650    3.7507    1.5563 H   0  0  0  0  0  0  0  0  0  0  0  0
    1.1586    1.6562    2.2054 H   0  0  0  0  0  0  0  0  0  0  0  0
    0.1631    2.2710    3.5688 H   0  0  0  0  0  0  0  0  0  0  0  0
   -1.0068   -0.0764    3.0997 H   0  0  0  0  0  0  0  0  0  0  0  0
   -1.4948   -0.3700    0.5717 H   0  0  0  0  0  0  0  0  0  0  0  0
    0.7725   -0.7533    0.8569 H   0  0  0  0  0  0  0  0  0  0  0  0
   -0.9488    2.0746   -0.6296 H   0  0  0  0  0  0  0  0  0  0  0  0
  1 10  1  0  0  0  0
  1  2  1  0  0  0  0
  2 11  1  6  0  0  0
  2  3  1  0  0  0  0
  3  6  1  0  0  0  0
  3 12  1  1  0  0  0
  4 13  1  6  0  0  0
  4  3  1  0  0  0  0
  4  5  1  0  0  0  0
  5 15  1  0  0  0  0
  6  5  1  0  0  0  0
  6 16  1  1  0  0  0
  7 17  1  6  0  0  0
  7  6  1  0  0  0  0
  8 18  1  0  0  0  0
  8  7  1  0  0  0  0
  9 19  1  6  0  0  0
  9  7  1  0  0  0  0
  9  2  1  0  0  0  0
  9  4  1  0  0  0  0
 14  5  1  0  0  0  0
M TOR 0 0 1 2 3
M TOR 1 0 1 2 5
M TOR 2 0 1 2 11
M TOR 3 0 1 8 3
M TOR 4 0 1 8 6
M TOR 5 0 1 8 18
M TOR 6 1 2 3 4
M TOR 7 1 2 3 8
M TOR 8 1 2 3 12
M TOR 9 1 2 5 4
M TOR 10 1 2 5 6
M TOR 11 1 2 5 15
M TOR 12 1 8 3 4
M TOR 13 1 8 3 12
M TOR 14 1 8 6 5
M TOR 15 1 8 6 7
M TOR 16 1 8 6 16
M TOR 17 2 1 0 9
M TOR 18 2 1 8 6
M TOR 19 2 1 8 18
M TOR 20 2 3 4 5
M TOR 21 2 3 4 13
M TOR 22 2 3 4 14
M TOR 23 2 3 8 6
M TOR 24 2 3 8 18
M TOR 25 2 5 4 13
M TOR 26 2 5 4 14
M TOR 27 2 5 6 7
M TOR 28 2 5 6 8
M TOR 29 2 5 6 16
M TOR 30 3 2 1 10
M TOR 31 3 2 5 6
M TOR 32 3 2 5 15
M TOR 33 3 4 5 6
M TOR 34 3 4 5 15
M TOR 35 3 8 1 10
M TOR 36 3 8 6 5
M TOR 37 3 8 6 7
M TOR 38 3 8 6 16
M TOR 39 4 3 2 11
M TOR 40 4 3 8 6
M TOR 41 4 3 8 18
M TOR 42 4 5 2 11
M TOR 43 4 5 6 7
M TOR 44 4 5 6 8
M TOR 45 4 5 6 16
M TOR 46 5 2 1 8
M TOR 47 5 2 1 10
M TOR 48 5 2 3 8
M TOR 49 5 2 3 12
M TOR 50 5 4 3 8
M TOR 51 5 4 3 12
M TOR 52 5 6 7 17
M TOR 53 5 6 8 18
M TOR 54 6 5 2 11
M TOR 55 6 5 4 13
M TOR 56 6 5 4 14
M TOR 57 6 8 1 10
M TOR 58 6 8 3 12
M TOR 59 7 6 5 15
M TOR 60 7 6 8 18
M TOR 61 8 1 0 9
M TOR 62 8 1 2 11
M TOR 63 8 3 2 11
M TOR 64 8 3 4 13
M TOR 65 8 3 4 14
M TOR 66 8 6 5 15
M TOR 67 8 6 7 17
M  END
$$$$
