
     RDKit          3D

 19 20  0  0  0  0  0  0  0  0999 V2000
   -2.3344    2.7560   -1.5668 C   0  0  0  0  0  0  0  0  0  0  0  0
   -1.8018    1.4002   -1.1631 C   0  0  0  0  0  0  0  0  0  0  0  0
   -2.3305    0.7060    0.0429 C   0  0  0  0  0  0  0  0  0  0  0  0
   -2.2490   -0.6973    0.0866 O   0  0  0  0  0  0  0  0  0  0  0  0
   -0.8837   -1.1128    0.0107 C   0  0  0  0  0  0  0  0  0  0  0  0
   -0.5895   -2.1857    1.0481 C   0  0  0  0  0  0  0  0  0  0  0  0
   -0.0302    0.1571    0.2173 C   0  0  0  0  0  0  0  0  0  0  0  0
    1.1498    0.1571    0.4672 O   0  0  0  0  0  0  0  0  0  0  0  0
   -0.9499    1.3213    0.1226 C   0  0  0  0  0  0  0  0  0  0  0  0
   -2.6823    3.3208   -0.6957 H   0  0  0  0  0  0  0  0  0  0  0  0
   -1.5646    3.3543   -2.0648 H   0  0  0  0  0  0  0  0  0  0  0  0
   -3.1792    2.6495   -2.2555 H   0  0  0  0  0  0  0  0  0  0  0  0
   -1.4880    0.7623   -1.9853 H   0  0  0  0  0  0  0  0  0  0  0  0
   -3.1846    1.0935    0.5874 H   0  0  0  0  0  0  0  0  0  0  0  0
   -0.6716   -1.5060   -0.9963 H   0  0  0  0  0  0  0  0  0  0  0  0
   -1.1829   -3.0825    0.8537 H   0  0  0  0  0  0  0  0  0  0  0  0
    0.4729   -2.4402    1.0098 H   0  0  0  0  0  0  0  0  0  0  0  0
   -0.8261   -1.8208    2.0515 H   0  0  0  0  0  0  0  0  0  0  0  0
   -0.7034    2.2357    0.6465 H   0  0  0  0  0  0  0  0  0  0  0  0
  1  2  1  0
  2  3  1  0
  3  4  1  0
  4  5  1  0
  5  6  1  0
  5  7  1  0
  7  8  2  0
  7  9  1  0
  9  2  1  0
  9  3  1  0
  1 10  1  0
  1 11  1  0
  1 12  1  0
  2 13  1  0
  3 14  1  0
  5 15  1  0
  6 16  1  0
  6 17  1  0
  6 18  1  0
  9 19  1  0
M  END
$$$$
