gdb 5406	1.9107013	1.8024652	1.0661124	1.9672	75.06	-0.23942	-0.04135	0.19807	1163.6899	0.155396	-422.611984	-422.602634	-422.60169	-422.64764	33.27
 OpenBabel02181911423D

 19 19  0  0  0  0  0  0  0  0999 V2000
    0.7312    0.4515   -2.0571 C   0  0  0  0  0  0  0  0  0  0  0  0
    1.2722    0.2263   -0.6409 C   0  0  0  0  0  0  0  0  0  0  0  0
    2.2486   -0.9475   -0.5361 C   0  0  0  0  0  0  0  0  0  0  0  0
    3.5413   -0.8490   -1.3451 C   0  0  0  0  0  0  0  0  0  0  0  0
    4.0839    0.1717   -1.6799 O   0  0  0  0  0  0  0  0  0  0  0  0
    4.0328   -2.2648   -1.6818 C   0  0  0  0  0  0  0  0  0  0  0  0
    2.8554   -3.2144   -1.3891 C   0  0  0  0  0  0  0  0  0  0  0  0
    1.7047   -2.3339   -0.8789 C   0  0  0  0  0  0  0  0  0  0  0  0
    0.5566   -2.6814   -0.7807 O   0  0  0  0  0  0  0  0  0  0  0  0
    0.1860   -0.4270   -2.4147 H   0  0  0  0  0  0  0  0  0  0  0  0
    0.0407    1.2997   -2.0722 H   0  0  0  0  0  0  0  0  0  0  0  0
    1.5418    0.6704   -2.7582 H   0  0  0  0  0  0  0  0  0  0  0  0
    1.7877    1.1275   -0.2939 H   0  0  0  0  0  0  0  0  0  0  0  0
    0.4419    0.0381    0.0470 H   0  0  0  0  0  0  0  0  0  0  0  0
    2.5914   -1.0428    0.5107 H   0  0  0  0  0  0  0  0  0  0  0  0
    4.3690   -2.2851   -2.7216 H   0  0  0  0  0  0  0  0  0  0  0  0
    4.9125   -2.4803   -1.0658 H   0  0  0  0  0  0  0  0  0  0  0  0
    2.5116   -3.7726   -2.2638 H   0  0  0  0  0  0  0  0  0  0  0  0
    3.0911   -3.9568   -0.6192 H   0  0  0  0  0  0  0  0  0  0  0  0
  1  2  1  0  0  0  0
  2  3  1  0  0  0  0
  2 13  1  0  0  0  0
  2 14  1  0  0  0  0
  3 15  1  0  0  0  0
  4  3  1  0  0  0  0
  5  4  2  0  0  0  0
  6  7  1  0  0  0  0
  6  4  1  0  0  0  0
  6 17  1  0  0  0  0
  7  8  1  0  0  0  0
  7 19  1  0  0  0  0
  8  9  2  0  0  0  0
  8  3  1  0  0  0  0
 10  1  1  0  0  0  0
 11  1  1  0  0  0  0
 12  1  1  0  0  0  0
 16  6  1  0  0  0  0
 18  7  1  0  0  0  0
M TOR 0 0 1 2 3
M TOR 1 0 1 2 7
M TOR 2 0 1 2 14
M TOR 3 1 2 3 4
M TOR 4 1 2 3 5
M TOR 5 1 2 7 6
M TOR 6 1 2 7 8
M TOR 7 2 1 0 9
M TOR 8 2 1 0 10
M TOR 9 2 1 0 11
M TOR 10 2 3 5 6
M TOR 11 2 3 5 15
M TOR 12 2 3 5 16
M TOR 13 2 7 6 5
M TOR 14 2 7 6 17
M TOR 15 2 7 6 18
M TOR 16 3 2 1 12
M TOR 17 3 2 1 13
M TOR 18 3 2 7 6
M TOR 19 3 2 7 8
M TOR 20 3 5 6 7
M TOR 21 3 5 6 17
M TOR 22 3 5 6 18
M TOR 23 4 3 2 7
M TOR 24 4 3 2 14
M TOR 25 4 3 5 6
M TOR 26 4 3 5 15
M TOR 27 4 3 5 16
M TOR 28 5 3 2 7
M TOR 29 5 3 2 14
M TOR 30 5 6 7 8
M TOR 31 6 7 2 14
M TOR 32 7 2 1 12
M TOR 33 7 2 1 13
M TOR 34 7 6 5 15
M TOR 35 7 6 5 16
M TOR 36 8 7 2 14
M TOR 37 8 7 6 17
M TOR 38 8 7 6 18
M  END
$$$$
