gdb 5592	2.2256885	1.3508407	1.0403324	2.7907	77.59	-0.24681	-0.02567	0.22114	1226.0055	0.155499	-422.52447	-422.515456	-422.514512	-422.558629	32.655
 OpenBabel02181911423D

 19 20  0  0  1  0  0  0  0  0999 V2000
    1.5543   -1.1159    1.1784 C   0  0  0  0  0  0  0  0  0  0  0  0
    1.1218   -0.2040    0.0258 C   0  0  0  0  0  0  0  0  0  0  0  0
    1.7123   -0.6136   -1.3085 C   0  0  1  0  0  0  0  0  0  0  0  0
    2.0576    0.3269   -2.3980 C   0  0  1  0  0  0  0  0  0  0  0  0
    2.5124    1.5860   -1.9298 O   0  0  0  0  0  0  0  0  0  0  0  0
    3.6599    0.9679   -1.2765 C   0  0  0  0  0  0  0  0  0  0  0  0
    3.1950   -0.4302   -1.6621 C   0  0  1  0  0  0  0  0  0  0  0  0
    4.0584   -1.5026   -2.1540 C   0  0  0  0  0  0  0  0  0  0  0  0
    5.2679   -1.4609   -2.1462 O   0  0  0  0  0  0  0  0  0  0  0  0
    1.2565   -2.1545    0.9980 H   0  0  0  0  0  0  0  0  0  0  0  0
    2.6416   -1.1020    1.3070 H   0  0  0  0  0  0  0  0  0  0  0  0
    1.0999   -0.7984    2.1216 H   0  0  0  0  0  0  0  0  0  0  0  0
    0.0288   -0.2169   -0.0691 H   0  0  0  0  0  0  0  0  0  0  0  0
    1.3929    0.8350    0.2357 H   0  0  0  0  0  0  0  0  0  0  0  0
    1.3500   -1.5669   -1.6953 H   0  0  0  0  0  0  0  0  0  0  0  0
    1.7254    0.2590   -3.4286 H   0  0  0  0  0  0  0  0  0  0  0  0
    4.5879    1.2499   -1.7806 H   0  0  0  0  0  0  0  0  0  0  0  0
    3.7162    1.2169   -0.2122 H   0  0  0  0  0  0  0  0  0  0  0  0
    3.5122   -2.3879   -2.5546 H   0  0  0  0  0  0  0  0  0  0  0  0
  1 11  1  0  0  0  0
  1 12  1  0  0  0  0
  2 14  1  0  0  0  0
  2  1  1  0  0  0  0
  3 15  1  6  0  0  0
  3  2  1  0  0  0  0
  4 16  1  6  0  0  0
  4  5  1  0  0  0  0
  4  7  1  0  0  0  0
  4  3  1  0  0  0  0
  5  6  1  0  0  0  0
  6 18  1  0  0  0  0
  7  8  1  6  0  0  0
  7  3  1  0  0  0  0
  7  6  1  0  0  0  0
  8  9  2  0  0  0  0
 10  1  1  0  0  0  0
 13  2  1  0  0  0  0
 17  6  1  0  0  0  0
 19  8  1  0  0  0  0
M TOR 0 0 1 2 3
M TOR 1 0 1 2 6
M TOR 2 0 1 2 14
M TOR 3 1 2 3 4
M TOR 4 1 2 3 6
M TOR 5 1 2 3 15
M TOR 6 1 2 6 5
M TOR 7 1 2 6 7
M TOR 8 2 1 0 9
M TOR 9 2 1 0 10
M TOR 10 2 1 0 11
M TOR 11 2 3 4 5
M TOR 12 2 3 6 5
M TOR 13 2 3 6 7
M TOR 14 2 6 3 4
M TOR 15 2 6 3 15
M TOR 16 2 6 5 4
M TOR 17 2 6 5 16
M TOR 18 2 6 5 17
M TOR 19 2 6 7 8
M TOR 20 2 6 7 18
M TOR 21 3 2 1 12
M TOR 22 3 2 1 13
M TOR 23 3 4 5 6
M TOR 24 3 4 5 16
M TOR 25 3 4 5 17
M TOR 26 3 6 2 14
M TOR 27 3 6 5 16
M TOR 28 3 6 5 17
M TOR 29 3 6 7 8
M TOR 30 3 6 7 18
M TOR 31 4 3 2 14
M TOR 32 4 3 6 7
M TOR 33 4 5 6 7
M TOR 34 5 4 3 15
M TOR 35 5 6 2 14
M TOR 36 5 6 3 15
M TOR 37 5 6 7 8
M TOR 38 5 6 7 18
M TOR 39 6 2 1 12
M TOR 40 6 2 1 13
M TOR 41 7 6 2 14
M TOR 42 7 6 3 15
M TOR 43 7 6 5 16
M TOR 44 7 6 5 17
M  END
$$$$
