gdb 4689	2.3654909	1.3975549	1.012147	1.8895	77.27	-0.24544	-0.03906	0.20638	1224.9563	0.154942	-422.582508	-422.572934	-422.57199	-422.618622	33.682
 OpenBabel02181911413D

 19 19  0  0  1  0  0  0  0  0999 V2000
    2.8882   -0.2241    0.2270 C   0  0  0  0  0  0  0  0  0  0  0  0
    1.4071   -0.0513   -0.1629 C   0  0  0  0  0  0  0  0  0  0  0  0
    0.9717    1.4054   -0.1337 C   0  0  0  0  0  0  0  0  0  0  0  0
    0.8784    2.0685   -1.1420 O   0  0  0  0  0  0  0  0  0  0  0  0
    0.6884    2.0243    1.2378 C   0  0  2  0  0  0  0  0  0  0  0  0
   -0.0016    3.4166    1.1932 C   0  0  0  0  0  0  0  0  0  0  0  0
    1.3351    4.1244    1.5683 C   0  0  0  0  0  0  0  0  0  0  0  0
    1.9333    2.7476    1.8484 C   0  0  0  0  0  0  0  0  0  0  0  0
    2.9169    2.3513    2.3995 O   0  0  0  0  0  0  0  0  0  0  0  0
    3.0912    0.1553    1.2314 H   0  0  0  0  0  0  0  0  0  0  0  0
    3.1606   -1.2825    0.1941 H   0  0  0  0  0  0  0  0  0  0  0  0
    3.5340    0.3139   -0.4732 H   0  0  0  0  0  0  0  0  0  0  0  0
    1.2394   -0.4169   -1.1795 H   0  0  0  0  0  0  0  0  0  0  0  0
    0.7774   -0.6319    0.5214 H   0  0  0  0  0  0  0  0  0  0  0  0
    0.2717    1.2741    1.9149 H   0  0  0  0  0  0  0  0  0  0  0  0
   -0.3957    3.6711    0.2104 H   0  0  0  0  0  0  0  0  0  0  0  0
   -0.7767    3.5278    1.9526 H   0  0  0  0  0  0  0  0  0  0  0  0
    1.8231    4.5983    0.7099 H   0  0  0  0  0  0  0  0  0  0  0  0
    1.3447    4.8236    2.4079 H   0  0  0  0  0  0  0  0  0  0  0  0
  1 10  1  0  0  0  0
  2  3  1  0  0  0  0
  2  1  1  0  0  0  0
  2 14  1  0  0  0  0
  3  5  1  0  0  0  0
  4  3  2  0  0  0  0
  5  8  1  0  0  0  0
  5 15  1  1  0  0  0
  6  5  1  0  0  0  0
  6  7  1  0  0  0  0
  6 17  1  0  0  0  0
  7  8  1  0  0  0  0
  7 19  1  0  0  0  0
  8  9  2  0  0  0  0
 11  1  1  0  0  0  0
 12  1  1  0  0  0  0
 13  2  1  0  0  0  0
 16  6  1  0  0  0  0
 18  7  1  0  0  0  0
M TOR 0 0 1 2 3
M TOR 1 0 1 2 4
M TOR 2 1 2 4 5
M TOR 3 1 2 4 7
M TOR 4 1 2 4 14
M TOR 5 2 1 0 9
M TOR 6 2 1 0 10
M TOR 7 2 1 0 11
M TOR 8 2 4 5 6
M TOR 9 2 4 5 15
M TOR 10 2 4 5 16
M TOR 11 2 4 7 6
M TOR 12 2 4 7 8
M TOR 13 3 2 1 12
M TOR 14 3 2 1 13
M TOR 15 3 2 4 5
M TOR 16 3 2 4 7
M TOR 17 3 2 4 14
M TOR 18 4 2 1 12
M TOR 19 4 2 1 13
M TOR 20 4 5 6 7
M TOR 21 4 5 6 17
M TOR 22 4 5 6 18
M TOR 23 4 7 6 17
M TOR 24 4 7 6 18
M TOR 25 5 4 7 8
M TOR 26 5 6 7 8
M TOR 27 6 5 4 14
M TOR 28 6 7 4 14
M TOR 29 7 4 5 15
M TOR 30 7 4 5 16
M TOR 31 7 6 5 15
M TOR 32 7 6 5 16
M TOR 33 8 7 4 14
M TOR 34 8 7 6 17
M TOR 35 8 7 6 18
M  END
$$$$
