gdb 5161	2.3869151	1.5696696	1.2026008	2.7214	74.74	-0.23867	-0.0271	0.21156999999999998	1113.7056	0.156427	-422.577952	-422.56922	-422.568276	-422.611546	32.33
 OpenBabel02181911423D

 19 20  0  0  1  0  0  0  0  0999 V2000
    1.9090   -0.1234    1.2124 C   0  0  0  0  0  0  0  0  0  0  0  0
    1.3365    0.1290   -0.1890 C   0  0  0  0  0  0  0  0  0  0  0  0
    1.9542   -0.7498   -1.2399 C   0  0  1  0  0  0  0  0  0  0  0  0
    1.9361   -0.2878   -2.6157 O   0  0  0  0  0  0  0  0  0  0  0  0
    3.2012   -0.5015   -1.9926 C   0  0  2  0  0  0  0  0  0  0  0  0
    3.8519   -1.8055   -2.4249 C   0  0  0  0  0  0  0  0  0  0  0  0
    2.7415   -2.8643   -2.2385 C   0  0  0  0  0  0  0  0  0  0  0  0
    1.7574   -2.2525   -1.2332 C   0  0  0  0  0  0  0  0  0  0  0  0
    0.9897   -2.8513   -0.5226 O   0  0  0  0  0  0  0  0  0  0  0  0
    1.7307   -1.1555    1.5247 H   0  0  0  0  0  0  0  0  0  0  0  0
    2.9880    0.0627    1.2410 H   0  0  0  0  0  0  0  0  0  0  0  0
    1.4358    0.5372    1.9443 H   0  0  0  0  0  0  0  0  0  0  0  0
    0.2557   -0.0536   -0.1816 H   0  0  0  0  0  0  0  0  0  0  0  0
    1.4841    1.1718   -0.4880 H   0  0  0  0  0  0  0  0  0  0  0  0
    3.7958    0.3928   -1.8204 H   0  0  0  0  0  0  0  0  0  0  0  0
    4.2214   -1.7489   -3.4529 H   0  0  0  0  0  0  0  0  0  0  0  0
    4.7099   -2.0163   -1.7770 H   0  0  0  0  0  0  0  0  0  0  0  0
    2.2038   -3.0534   -3.1729 H   0  0  0  0  0  0  0  0  0  0  0  0
    3.1029   -3.8255   -1.8689 H   0  0  0  0  0  0  0  0  0  0  0  0
  1 11  1  0  0  0  0
  1 10  1  0  0  0  0
  1 12  1  0  0  0  0
  2 13  1  0  0  0  0
  2  1  1  0  0  0  0
  3  8  1  0  0  0  0
  3  2  1  1  0  0  0
  4  5  1  0  0  0  0
  4  3  1  0  0  0  0
  5 15  1  1  0  0  0
  5  3  1  0  0  0  0
  6  7  1  0  0  0  0
  6  5  1  0  0  0  0
  6 17  1  0  0  0  0
  7 19  1  0  0  0  0
  7  8  1  0  0  0  0
  8  9  2  0  0  0  0
 14  2  1  0  0  0  0
 16  6  1  0  0  0  0
 18  7  1  0  0  0  0
M TOR 0 0 1 2 3
M TOR 1 0 1 2 4
M TOR 2 0 1 2 7
M TOR 3 1 2 3 4
M TOR 4 1 2 4 5
M TOR 5 1 2 4 14
M TOR 6 1 2 7 6
M TOR 7 1 2 7 8
M TOR 8 2 1 0 9
M TOR 9 2 1 0 10
M TOR 10 2 1 0 11
M TOR 11 2 3 4 5
M TOR 12 2 3 4 14
M TOR 13 2 4 5 6
M TOR 14 2 4 5 15
M TOR 15 2 4 5 16
M TOR 16 2 7 6 5
M TOR 17 2 7 6 17
M TOR 18 2 7 6 18
M TOR 19 3 2 1 12
M TOR 20 3 2 1 13
M TOR 21 3 2 7 6
M TOR 22 3 2 7 8
M TOR 23 3 4 2 7
M TOR 24 3 4 5 6
M TOR 25 3 4 5 15
M TOR 26 3 4 5 16
M TOR 27 4 2 1 12
M TOR 28 4 2 1 13
M TOR 29 4 2 7 6
M TOR 30 4 2 7 8
M TOR 31 4 5 6 7
M TOR 32 4 5 6 17
M TOR 33 4 5 6 18
M TOR 34 5 4 2 7
M TOR 35 5 6 7 8
M TOR 36 6 5 4 14
M TOR 37 7 2 1 12
M TOR 38 7 2 1 13
M TOR 39 7 2 4 14
M TOR 40 7 6 5 15
M TOR 41 7 6 5 16
M TOR 42 8 7 6 17
M TOR 43 8 7 6 18
M  END
$$$$
