
     RDKit          3D

 19 19  0  0  0  0  0  0  0  0999 V2000
    2.5912   -0.5381   -1.1182 C   0  0  0  0  0  0  0  0  0  0  0  0
    1.6868   -0.0007   -0.0120 C   0  0  0  0  0  0  0  0  0  0  0  0
    2.1399   -0.5827    1.2077 O   0  0  0  0  0  0  0  0  0  0  0  0
    1.5914    0.0212    2.3625 C   0  0  0  0  0  0  0  0  0  0  0  0
    2.0388    1.4780    2.5065 C   0  0  0  0  0  0  0  0  0  0  0  0
    1.8762    2.1785    1.1845 C   0  0  0  0  0  0  0  0  0  0  0  0
    1.6894    1.5064    0.0512 C   0  0  0  0  0  0  0  0  0  0  0  0
    1.9816   -0.8572    3.5397 C   0  0  0  0  0  0  0  0  0  0  0  0
    2.0527   -0.4679    4.6758 O   0  0  0  0  0  0  0  0  0  0  0  0
    2.5778   -1.6312   -1.1160 H   0  0  0  0  0  0  0  0  0  0  0  0
    2.2487   -0.1866   -2.0958 H   0  0  0  0  0  0  0  0  0  0  0  0
    3.6197   -0.2000   -0.9642 H   0  0  0  0  0  0  0  0  0  0  0  0
    0.6537   -0.3471   -0.2060 H   0  0  0  0  0  0  0  0  0  0  0  0
    0.4851   -0.0062    2.3093 H   0  0  0  0  0  0  0  0  0  0  0  0
    1.4475    1.9663    3.2883 H   0  0  0  0  0  0  0  0  0  0  0  0
    3.0818    1.5173    2.8468 H   0  0  0  0  0  0  0  0  0  0  0  0
    1.9043    3.2648    1.1821 H   0  0  0  0  0  0  0  0  0  0  0  0
    1.5364    2.0255   -0.8913 H   0  0  0  0  0  0  0  0  0  0  0  0
    2.1874   -1.9125    3.2550 H   0  0  0  0  0  0  0  0  0  0  0  0
  1  2  1  0
  2  3  1  0
  3  4  1  0
  4  5  1  0
  5  6  1  0
  6  7  2  0
  4  8  1  0
  8  9  2  0
  7  2  1  0
  1 10  1  0
  1 11  1  0
  1 12  1  0
  2 13  1  0
  4 14  1  0
  5 15  1  0
  5 16  1  0
  6 17  1  0
  7 18  1  0
  8 19  1  0
M  END
$$$$
