gdb 2757	2.5832408	1.3855133	1.1128315	2.5665	76.73	-0.23107	-0.00737	0.2237	1155.5282	0.156475	-422.583951	-422.575225	-422.57428	-422.616908	33.344
 OpenBabel02181911413D

 19 20  0  0  1  0  0  0  0  0999 V2000
   -1.7708   -2.6497   -2.0097 C   0  0  0  0  0  0  0  0  0  0  0  0
   -1.4850   -1.2742   -1.4482 C   0  0  2  0  0  0  0  0  0  0  0  0
   -0.7262   -1.1939   -0.1062 C   0  0  1  0  0  0  0  0  0  0  0  0
    0.0540    0.0449    0.1522 C   0  0  0  0  0  0  0  0  0  0  0  0
    1.1734    0.1130    0.6002 O   0  0  0  0  0  0  0  0  0  0  0  0
   -0.8462    1.2522   -0.1722 C   0  0  0  0  0  0  0  0  0  0  0  0
   -2.2916    0.7278   -0.0480 C   0  0  0  0  0  0  0  0  0  0  0  0
   -2.2015   -0.7862   -0.2445 C   0  0  1  0  0  0  0  0  0  0  0  0
   -3.2439   -1.5704    0.2320 O   0  0  0  0  0  0  0  0  0  0  0  0
   -2.0676   -3.3441   -1.2214 H   0  0  0  0  0  0  0  0  0  0  0  0
   -2.5893   -2.6040   -2.7357 H   0  0  0  0  0  0  0  0  0  0  0  0
   -0.8892   -3.0521   -2.5182 H   0  0  0  0  0  0  0  0  0  0  0  0
   -1.2173   -0.5318   -2.1969 H   0  0  0  0  0  0  0  0  0  0  0  0
   -0.4094   -2.1276    0.3421 H   0  0  0  0  0  0  0  0  0  0  0  0
   -0.6130    2.0825    0.4965 H   0  0  0  0  0  0  0  0  0  0  0  0
   -0.6244    1.5916   -1.1911 H   0  0  0  0  0  0  0  0  0  0  0  0
   -2.6731    0.9221    0.9624 H   0  0  0  0  0  0  0  0  0  0  0  0
   -2.9902    1.1909   -0.7519 H   0  0  0  0  0  0  0  0  0  0  0  0
   -3.3013   -1.4505    1.1866 H   0  0  0  0  0  0  0  0  0  0  0  0
  1  2  1  0  0  0  0
  1 10  1  0  0  0  0
  2 13  1  6  0  0  0
  2  8  1  0  0  0  0
  2  3  1  0  0  0  0
  3  4  1  0  0  0  0
  3 14  1  1  0  0  0
  4  5  2  0  0  0  0
  6  7  1  0  0  0  0
  6  4  1  0  0  0  0
  6 15  1  0  0  0  0
  7 17  1  0  0  0  0
  8  3  1  0  0  0  0
  8  7  1  0  0  0  0
  8  9  1  1  0  0  0
  9 19  1  0  0  0  0
 11  1  1  0  0  0  0
 12  1  1  0  0  0  0
 16  6  1  0  0  0  0
 18  7  1  0  0  0  0
M TOR 0 0 1 2 3
M TOR 1 0 1 2 7
M TOR 2 0 1 2 13
M TOR 3 0 1 7 6
M TOR 4 0 1 7 8
M TOR 5 1 2 3 4
M TOR 6 1 2 3 5
M TOR 7 1 2 7 6
M TOR 8 1 2 7 8
M TOR 9 1 7 2 3
M TOR 10 1 7 2 13
M TOR 11 1 7 6 5
M TOR 12 1 7 6 16
M TOR 13 1 7 6 17
M TOR 14 1 7 8 18
M TOR 15 2 1 0 9
M TOR 16 2 1 0 10
M TOR 17 2 1 0 11
M TOR 18 2 3 5 6
M TOR 19 2 3 5 14
M TOR 20 2 3 5 15
M TOR 21 2 7 1 12
M TOR 22 2 7 6 5
M TOR 23 2 7 6 16
M TOR 24 2 7 6 17
M TOR 25 2 7 8 18
M TOR 26 3 2 1 12
M TOR 27 3 2 7 6
M TOR 28 3 2 7 8
M TOR 29 3 5 6 7
M TOR 30 3 5 6 16
M TOR 31 3 5 6 17
M TOR 32 4 3 2 7
M TOR 33 4 3 2 13
M TOR 34 4 3 5 6
M TOR 35 4 3 5 14
M TOR 36 4 3 5 15
M TOR 37 5 3 2 7
M TOR 38 5 3 2 13
M TOR 39 5 6 7 8
M TOR 40 6 7 1 12
M TOR 41 6 7 2 13
M TOR 42 6 7 8 18
M TOR 43 7 1 0 9
M TOR 44 7 1 0 10
M TOR 45 7 1 0 11
M TOR 46 7 6 5 14
M TOR 47 7 6 5 15
M TOR 48 8 7 1 12
M TOR 49 8 7 2 13
M TOR 50 8 7 6 16
M TOR 51 8 7 6 17
M  END
$$$$
