gdb 404	3.3904663	1.4447957	1.2246935	2.3783	74.5	-0.25044	0.0838	0.33424	1058.9592	0.157961	-422.525883	-422.518332	-422.517388	-422.557707	30.074
 OpenBabel02181911403D

 19 21  0  0  1  0  0  0  0  0999 V2000
    0.7134    1.3363   -0.0870 C   0  0  0  0  0  0  0  0  0  0  0  0
    1.5717    0.0835   -0.0842 C   0  0  0  0  0  0  0  0  0  0  0  0
    0.0678   -0.0015    0.0499 C   0  0  0  0  0  0  0  0  0  0  0  0
   -0.5760   -0.4336    1.3552 C   0  0  0  0  0  0  0  0  0  0  0  0
   -1.0165   -1.8883    1.2927 C   0  0  1  0  0  0  0  0  0  0  0  0
   -2.2535   -2.1392    0.6118 O   0  0  0  0  0  0  0  0  0  0  0  0
   -1.0476   -2.5799   -0.0052 C   0  0  1  0  0  0  0  0  0  0  0  0
   -0.6171   -1.8331   -1.2487 C   0  0  0  0  0  0  0  0  0  0  0  0
   -0.6445   -0.4267   -1.0832 O   0  0  0  0  0  0  0  0  0  0  0  0
    0.7376    1.9864    0.7812 H   0  0  0  0  0  0  0  0  0  0  0  0
    0.5797    1.8449   -1.0347 H   0  0  0  0  0  0  0  0  0  0  0  0
    2.0037   -0.2178   -1.0320 H   0  0  0  0  0  0  0  0  0  0  0  0
    2.1907   -0.1215    0.7830 H   0  0  0  0  0  0  0  0  0  0  0  0
    0.1254   -0.2925    2.1836 H   0  0  0  0  0  0  0  0  0  0  0  0
   -1.4576    0.1844    1.5636 H   0  0  0  0  0  0  0  0  0  0  0  0
   -0.8901   -2.4775    2.2004 H   0  0  0  0  0  0  0  0  0  0  0  0
   -0.9144   -3.6622   -0.0463 H   0  0  0  0  0  0  0  0  0  0  0  0
    0.3932   -2.1771   -1.5266 H   0  0  0  0  0  0  0  0  0  0  0  0
   -1.2931   -2.0542   -2.0809 H   0  0  0  0  0  0  0  0  0  0  0  0
  1  2  1  0  0  0  0
  1  3  1  0  0  0  0
  1 10  1  0  0  0  0
  2  3  1  0  0  0  0
  2 13  1  0  0  0  0
  3  4  1  0  0  0  0
  4 15  1  0  0  0  0
  4 14  1  0  0  0  0
  5  4  1  0  0  0  0
  5 16  1  1  0  0  0
  6  5  1  0  0  0  0
  7 17  1  1  0  0  0
  7  6  1  0  0  0  0
  7  5  1  0  0  0  0
  8  9  1  0  0  0  0
  8  7  1  0  0  0  0
  9  3  1  0  0  0  0
 11  1  1  0  0  0  0
 12  2  1  0  0  0  0
 18  8  1  0  0  0  0
 19  8  1  0  0  0  0
M TOR 0 0 1 2 3
M TOR 1 0 1 2 8
M TOR 2 0 2 1 11
M TOR 3 0 2 1 12
M TOR 4 0 2 3 4
M TOR 5 0 2 3 13
M TOR 6 0 2 3 14
M TOR 7 0 2 8 7
M TOR 8 1 2 0 9
M TOR 9 1 2 0 10
M TOR 10 1 2 3 4
M TOR 11 1 2 3 13
M TOR 12 1 2 3 14
M TOR 13 1 2 8 7
M TOR 14 2 3 4 5
M TOR 15 2 3 4 6
M TOR 16 2 3 4 15
M TOR 17 2 8 7 6
M TOR 18 2 8 7 17
M TOR 19 2 8 7 18
M TOR 20 3 2 0 9
M TOR 21 3 2 0 10
M TOR 22 3 2 1 11
M TOR 23 3 2 1 12
M TOR 24 3 2 8 7
M TOR 25 3 4 5 6
M TOR 26 3 4 6 7
M TOR 27 3 4 6 16
M TOR 28 4 3 2 8
M TOR 29 4 5 6 7
M TOR 30 4 5 6 16
M TOR 31 4 6 7 8
M TOR 32 4 6 7 17
M TOR 33 4 6 7 18
M TOR 34 5 4 3 13
M TOR 35 5 4 3 14
M TOR 36 5 6 4 15
M TOR 37 5 6 7 8
M TOR 38 5 6 7 17
M TOR 39 5 6 7 18
M TOR 40 6 4 3 13
M TOR 41 6 4 3 14
M TOR 42 7 6 4 15
M TOR 43 8 2 0 9
M TOR 44 8 2 0 10
M TOR 45 8 2 1 11
M TOR 46 8 2 1 12
M TOR 47 8 2 3 13
M TOR 48 8 2 3 14
M TOR 49 8 7 6 16
M  END
$$$$
