
     RDKit          3D

 19 19  0  0  0  0  0  0  0  0999 V2000
    1.3995    1.2167   -0.0600 C   0  0  0  0  0  0  0  0  0  0  0  0
    1.0971   -0.2588    0.0772 C   0  0  0  0  0  0  0  0  0  0  0  0
    1.9487   -1.1553    0.9863 C   0  0  0  0  0  0  0  0  0  0  0  0
    1.3504   -2.1108    1.8646 C   0  0  0  0  0  0  0  0  0  0  0  0
    0.8688   -2.9231    2.6105 C   0  0  0  0  0  0  0  0  0  0  0  0
    1.9007   -1.3455   -0.5489 C   0  0  0  0  0  0  0  0  0  0  0  0
    1.1561   -2.4085   -1.0486 O   0  0  0  0  0  0  0  0  0  0  0  0
    3.1753   -1.1220   -1.3303 C   0  0  0  0  0  0  0  0  0  0  0  0
    3.9235   -2.3358   -1.3853 O   0  0  0  0  0  0  0  0  0  0  0  0
    0.9427    1.7784    0.7614 H   0  0  0  0  0  0  0  0  0  0  0  0
    2.4737    1.4221   -0.0393 H   0  0  0  0  0  0  0  0  0  0  0  0
    1.0014    1.6147   -0.9996 H   0  0  0  0  0  0  0  0  0  0  0  0
    0.0399   -0.5071    0.1085 H   0  0  0  0  0  0  0  0  0  0  0  0
    2.8535   -0.6834    1.3658 H   0  0  0  0  0  0  0  0  0  0  0  0
    0.4330   -3.6363    3.2649 H   0  0  0  0  0  0  0  0  0  0  0  0
    1.7904   -3.1187   -1.2173 H   0  0  0  0  0  0  0  0  0  0  0  0
    2.9369   -0.8798   -2.3710 H   0  0  0  0  0  0  0  0  0  0  0  0
    3.7695   -0.2996   -0.9124 H   0  0  0  0  0  0  0  0  0  0  0  0
    4.2270   -2.5288   -0.4907 H   0  0  0  0  0  0  0  0  0  0  0  0
  1  2  1  0
  2  3  1  0
  3  4  1  0
  4  5  3  0
  3  6  1  0
  6  7  1  0
  6  8  1  0
  8  9  1  0
  6  2  1  0
  1 10  1  0
  1 11  1  0
  1 12  1  0
  2 13  1  0
  3 14  1  0
  5 15  1  0
  7 16  1  0
  8 17  1  0
  8 18  1  0
  9 19  1  0
M  END
$$$$
