
     RDKit          3D

 19 20  0  0  0  0  0  0  0  0999 V2000
   -0.8460    2.0733    1.2453 C   0  0  0  0  0  0  0  0  0  0  0  0
   -1.0476    1.1978    0.0097 C   0  0  0  0  0  0  0  0  0  0  0  0
   -2.2861    0.2769    0.0451 C   0  0  0  0  0  0  0  0  0  0  0  0
   -2.0525   -0.7397   -1.0896 C   0  0  0  0  0  0  0  0  0  0  0  0
   -0.9624   -1.1884   -0.0778 C   0  0  0  0  0  0  0  0  0  0  0  0
   -0.3795   -2.5610    0.0447 C   0  0  0  0  0  0  0  0  0  0  0  0
   -1.8656   -0.7498    1.0069 O   0  0  0  0  0  0  0  0  0  0  0  0
   -0.0266    0.0373   -0.0878 C   0  0  0  0  0  0  0  0  0  0  0  0
    1.1726    0.0744   -0.1158 O   0  0  0  0  0  0  0  0  0  0  0  0
   -0.9842    1.4815    2.1542 H   0  0  0  0  0  0  0  0  0  0  0  0
    0.1671    2.4854    1.2554 H   0  0  0  0  0  0  0  0  0  0  0  0
   -1.5559    2.9064    1.2596 H   0  0  0  0  0  0  0  0  0  0  0  0
   -1.0026    1.8046   -0.9025 H   0  0  0  0  0  0  0  0  0  0  0  0
   -3.2596    0.7143    0.2653 H   0  0  0  0  0  0  0  0  0  0  0  0
   -2.8511   -1.4802   -1.1590 H   0  0  0  0  0  0  0  0  0  0  0  0
   -1.7511   -0.3789   -2.0771 H   0  0  0  0  0  0  0  0  0  0  0  0
    0.2226   -2.6354    0.9550 H   0  0  0  0  0  0  0  0  0  0  0  0
   -1.1629   -3.3224    0.0750 H   0  0  0  0  0  0  0  0  0  0  0  0
    0.2781   -2.7598   -0.8070 H   0  0  0  0  0  0  0  0  0  0  0  0
  1  2  1  0
  2  3  1  0
  3  4  1  0
  4  5  1  0
  5  6  1  0
  5  7  1  0
  5  8  1  0
  8  9  2  0
  8  2  1  0
  7  3  1  0
  1 10  1  0
  1 11  1  0
  1 12  1  0
  2 13  1  0
  3 14  1  0
  4 15  1  0
  4 16  1  0
  6 17  1  0
  6 18  1  0
  6 19  1  0
M  END
$$$$
