
     RDKit          3D

 19 21  0  0  0  0  0  0  0  0999 V2000
    0.6184    0.8304   -1.2792 C   0  0  0  0  0  0  0  0  0  0  0  0
   -0.0212   -0.1577   -0.2838 C   0  0  0  0  0  0  0  0  0  0  0  0
    0.9500    0.4712    0.7396 C   0  0  0  0  0  0  0  0  0  0  0  0
    1.4382    1.4163   -0.2415 O   0  0  0  0  0  0  0  0  0  0  0  0
    0.3702    1.1801    1.9258 C   0  0  0  0  0  0  0  0  0  0  0  0
    1.0956    2.0416    2.9944 C   0  0  0  0  0  0  0  0  0  0  0  0
   -0.3507    1.7568    3.4571 C   0  0  0  0  0  0  0  0  0  0  0  0
   -0.8732    2.1026    2.0440 C   0  0  0  0  0  0  0  0  0  0  0  0
   -0.1851    0.3457    3.0259 O   0  0  0  0  0  0  0  0  0  0  0  0
    1.2299    0.3733   -2.0667 H   0  0  0  0  0  0  0  0  0  0  0  0
   -0.0515    1.5690   -1.7341 H   0  0  0  0  0  0  0  0  0  0  0  0
   -1.0763    0.0164   -0.0692 H   0  0  0  0  0  0  0  0  0  0  0  0
    0.1349   -1.2166   -0.4901 H   0  0  0  0  0  0  0  0  0  0  0  0
    1.7476   -0.2019    1.0832 H   0  0  0  0  0  0  0  0  0  0  0  0
    1.8727    1.5199    3.5544 H   0  0  0  0  0  0  0  0  0  0  0  0
    1.3653    3.0660    2.7292 H   0  0  0  0  0  0  0  0  0  0  0  0
   -0.8165    1.9302    4.4267 H   0  0  0  0  0  0  0  0  0  0  0  0
   -1.8254    1.6403    1.7809 H   0  0  0  0  0  0  0  0  0  0  0  0
   -0.7811    3.1336    1.6955 H   0  0  0  0  0  0  0  0  0  0  0  0
  1  2  1  0
  2  3  1  0
  3  4  1  0
  3  5  1  0
  5  6  1  0
  6  7  1  0
  7  8  1  0
  7  9  1  0
  4  1  1  0
  8  5  1  0
  9  5  1  0
  1 10  1  0
  1 11  1  0
  2 12  1  0
  2 13  1  0
  3 14  1  0
  6 15  1  0
  6 16  1  0
  7 17  1  0
  8 18  1  0
  8 19  1  0
M  END
$$$$
