
     RDKit          3D

 19 21  0  0  0  0  0  0  0  0999 V2000
   -3.6359    0.9306    2.9261 C   0  0  0  0  0  0  0  0  0  0  0  0
   -2.5029    0.0017    2.6253 C   0  0  0  0  0  0  0  0  0  0  0  0
   -1.9470   -1.0582    3.6197 C   0  0  0  0  0  0  0  0  0  0  0  0
   -1.3279   -1.7079    2.3853 C   0  0  0  0  0  0  0  0  0  0  0  0
   -2.3619   -1.0638    1.4617 C   0  0  0  0  0  0  0  0  0  0  0  0
   -0.9725   -0.5299    1.4610 C   0  0  0  0  0  0  0  0  0  0  0  0
    0.1328   -0.4817    0.4618 C   0  0  0  0  0  0  0  0  0  0  0  0
    1.3965   -0.2709    1.0726 O   0  0  0  0  0  0  0  0  0  0  0  0
   -1.2837    0.6768    2.1693 O   0  0  0  0  0  0  0  0  0  0  0  0
   -3.3573    1.6109    3.7384 H   0  0  0  0  0  0  0  0  0  0  0  0
   -3.8903    1.5311    2.0482 H   0  0  0  0  0  0  0  0  0  0  0  0
   -4.5217    0.3684    3.2367 H   0  0  0  0  0  0  0  0  0  0  0  0
   -1.2917   -0.6803    4.4111 H   0  0  0  0  0  0  0  0  0  0  0  0
   -2.7460   -1.6743    4.0413 H   0  0  0  0  0  0  0  0  0  0  0  0
   -0.8599   -2.6789    2.2874 H   0  0  0  0  0  0  0  0  0  0  0  0
   -3.0237   -1.4500    0.6984 H   0  0  0  0  0  0  0  0  0  0  0  0
    0.1913   -1.4392   -0.0665 H   0  0  0  0  0  0  0  0  0  0  0  0
   -0.0844    0.2995   -0.2832 H   0  0  0  0  0  0  0  0  0  0  0  0
    1.3105    0.5141    1.6248 H   0  0  0  0  0  0  0  0  0  0  0  0
  1  2  1  0
  2  3  1  0
  3  4  1  0
  4  5  1  0
  5  6  1  0
  6  7  1  0
  7  8  1  0
  6  9  1  0
  5  2  1  0
  9  2  1  0
  6  4  1  0
  1 10  1  0
  1 11  1  0
  1 12  1  0
  3 13  1  0
  3 14  1  0
  4 15  1  0
  5 16  1  0
  7 17  1  0
  7 18  1  0
  8 19  1  0
M  END
$$$$
