
     RDKit          3D

 19 20  0  0  0  0  0  0  0  0999 V2000
   -0.1477    1.4553    0.0563 O   0  0  0  0  0  0  0  0  0  0  0  0
    0.0221    0.0624   -0.0006 C   0  0  0  0  0  0  0  0  0  0  0  0
    0.2477   -0.6477   -1.3899 C   0  0  0  0  0  0  0  0  0  0  0  0
   -0.7699   -1.7445   -0.9432 C   0  0  0  0  0  0  0  0  0  0  0  0
   -1.9680   -2.1669   -1.7871 C   0  0  0  0  0  0  0  0  0  0  0  0
   -3.0211   -2.5540   -0.9094 O   0  0  0  0  0  0  0  0  0  0  0  0
   -3.5490   -1.5007   -0.1167 C   0  0  0  0  0  0  0  0  0  0  0  0
   -2.5086   -0.5463    0.4162 C   0  0  0  0  0  0  0  0  0  0  0  0
   -1.2396   -0.7522    0.0991 C   0  0  0  0  0  0  0  0  0  0  0  0
    0.7187    1.8657    0.1362 H   0  0  0  0  0  0  0  0  0  0  0  0
    0.7830   -0.2773    0.7195 H   0  0  0  0  0  0  0  0  0  0  0  0
   -0.1594   -0.0218   -2.1886 H   0  0  0  0  0  0  0  0  0  0  0  0
    1.2634   -0.9618   -1.6418 H   0  0  0  0  0  0  0  0  0  0  0  0
   -0.2659   -2.6217   -0.5239 H   0  0  0  0  0  0  0  0  0  0  0  0
   -2.2829   -1.3320   -2.4340 H   0  0  0  0  0  0  0  0  0  0  0  0
   -1.7734   -3.0387   -2.4183 H   0  0  0  0  0  0  0  0  0  0  0  0
   -4.2907   -0.9219   -0.6976 H   0  0  0  0  0  0  0  0  0  0  0  0
   -4.0997   -1.9916    0.6952 H   0  0  0  0  0  0  0  0  0  0  0  0
   -2.8483    0.3324    0.9563 H   0  0  0  0  0  0  0  0  0  0  0  0
  1  2  1  0
  2  3  1  0
  3  4  1  0
  4  5  1  0
  5  6  1  0
  6  7  1  0
  7  8  1  0
  8  9  2  0
  9  2  1  0
  9  4  1  0
  1 10  1  0
  2 11  1  0
  3 12  1  0
  3 13  1  0
  4 14  1  0
  5 15  1  0
  5 16  1  0
  7 17  1  0
  7 18  1  0
  8 19  1  0
M  END
$$$$
