
     RDKit          3D

 19 21  0  0  0  0  0  0  0  0999 V2000
   -0.7054    0.2279    2.9280 C   0  0  0  0  0  0  0  0  0  0  0  0
    0.1614    1.4388    2.6972 C   0  0  0  0  0  0  0  0  0  0  0  0
   -0.3589    2.5747    1.8405 C   0  0  0  0  0  0  0  0  0  0  0  0
   -1.1510    2.1231    0.7488 O   0  0  0  0  0  0  0  0  0  0  0  0
   -0.5377    1.1919   -0.1072 C   0  0  0  0  0  0  0  0  0  0  0  0
    0.7839    1.5568   -0.8239 C   0  0  0  0  0  0  0  0  0  0  0  0
    1.4624    0.4334   -0.2292 O   0  0  0  0  0  0  0  0  0  0  0  0
    0.2878    0.0386    0.5279 C   0  0  0  0  0  0  0  0  0  0  0  0
    0.4967    0.1374    2.0139 C   0  0  0  0  0  0  0  0  0  0  0  0
   -0.6514   -0.2720    3.8884 H   0  0  0  0  0  0  0  0  0  0  0  0
   -1.6896    0.2266    2.4717 H   0  0  0  0  0  0  0  0  0  0  0  0
    0.8071    1.7591    3.5096 H   0  0  0  0  0  0  0  0  0  0  0  0
   -1.0195    3.2303    2.4173 H   0  0  0  0  0  0  0  0  0  0  0  0
    0.4828    3.1879    1.4831 H   0  0  0  0  0  0  0  0  0  0  0  0
   -1.3282    0.8608   -0.7823 H   0  0  0  0  0  0  0  0  0  0  0  0
    0.7584    1.4934   -1.9183 H   0  0  0  0  0  0  0  0  0  0  0  0
    1.2283    2.5177   -0.5366 H   0  0  0  0  0  0  0  0  0  0  0  0
   -0.0283   -0.9720    0.2390 H   0  0  0  0  0  0  0  0  0  0  0  0
    1.3559   -0.4203    2.3753 H   0  0  0  0  0  0  0  0  0  0  0  0
  1  2  1  0
  2  3  1  0
  3  4  1  0
  4  5  1  0
  5  6  1  0
  6  7  1  0
  7  8  1  0
  8  9  1  0
  9  1  1  0
  9  2  1  0
  8  5  1  0
  1 10  1  0
  1 11  1  0
  2 12  1  0
  3 13  1  0
  3 14  1  0
  5 15  1  0
  6 16  1  0
  6 17  1  0
  8 18  1  0
  9 19  1  0
M  END
$$$$
