gdb 1868	2.7663247	1.4541935	1.2396761	1.2553	76.76	-0.22464	0.08115	0.30579	1093.4367	0.155328	-422.509229	-422.500512	-422.499568	-422.542075	33.547
 OpenBabel02181911403D

 19 21  0  0  1  0  0  0  0  0999 V2000
    0.1050   -0.7497    0.2276 C   0  0  0  0  0  0  0  0  0  0  0  0
    1.5083   -0.2213    0.2175 C   0  0  1  0  0  0  0  0  0  0  0  0
    2.7050   -1.0287    0.6885 C   0  0  0  0  0  0  0  0  0  0  0  0
    2.7155   -0.5172   -0.7126 C   0  0  1  0  0  0  0  0  0  0  0  0
    2.8993   -1.3515   -1.7896 O   0  0  0  0  0  0  0  0  0  0  0  0
    3.0325    0.9539   -0.7544 C   0  0  1  0  0  0  0  0  0  0  0  0
    4.2398    1.6527   -1.1908 C   0  0  0  0  0  0  0  0  0  0  0  0
    3.0738    1.5731   -2.0387 O   0  0  0  0  0  0  0  0  0  0  0  0
    1.8947    1.2740    0.2310 C   0  0  0  0  0  0  0  0  0  0  0  0
   -0.3534   -0.6606    1.2203 H   0  0  0  0  0  0  0  0  0  0  0  0
   -0.5306   -0.2052   -0.4800 H   0  0  0  0  0  0  0  0  0  0  0  0
    0.0860   -1.8082   -0.0514 H   0  0  0  0  0  0  0  0  0  0  0  0
    3.3920   -0.6499    1.4440 H   0  0  0  0  0  0  0  0  0  0  0  0
    2.5208   -2.0977    0.7515 H   0  0  0  0  0  0  0  0  0  0  0  0
    2.7404   -0.8129   -2.5767 H   0  0  0  0  0  0  0  0  0  0  0  0
    4.4606    2.6495   -0.8123 H   0  0  0  0  0  0  0  0  0  0  0  0
    5.1016    1.0818   -1.5333 H   0  0  0  0  0  0  0  0  0  0  0  0
    2.1815    1.6960    1.2003 H   0  0  0  0  0  0  0  0  0  0  0  0
    1.1476    1.9193   -0.2393 H   0  0  0  0  0  0  0  0  0  0  0  0
  1 10  1  0  0  0  0
  2  1  1  6  0  0  0
  2  9  1  0  0  0  0
  2  3  1  0  0  0  0
  3 14  1  0  0  0  0
  3 13  1  0  0  0  0
  4  5  1  6  0  0  0
  4  2  1  0  0  0  0
  4  3  1  0  0  0  0
  6  8  1  6  0  0  0
  6  4  1  0  0  0  0
  6  9  1  0  0  0  0
  7 16  1  0  0  0  0
  7  6  1  0  0  0  0
  8  7  1  0  0  0  0
  9 18  1  0  0  0  0
 11  1  1  0  0  0  0
 12  1  1  0  0  0  0
 15  5  1  0  0  0  0
 17  7  1  0  0  0  0
 19  9  1  0  0  0  0
M TOR 0 0 1 2 3
M TOR 1 0 1 2 12
M TOR 2 0 1 2 13
M TOR 3 0 1 3 4
M TOR 4 0 1 3 5
M TOR 5 0 1 8 5
M TOR 6 0 1 8 17
M TOR 7 0 1 8 18
M TOR 8 1 2 3 4
M TOR 9 1 2 3 5
M TOR 10 1 3 2 12
M TOR 11 1 3 2 13
M TOR 12 1 3 4 14
M TOR 13 1 3 5 6
M TOR 14 1 3 5 7
M TOR 15 1 3 5 8
M TOR 16 1 8 5 6
M TOR 17 1 8 5 7
M TOR 18 2 1 0 9
M TOR 19 2 1 0 10
M TOR 20 2 1 0 11
M TOR 21 2 1 8 5
M TOR 22 2 1 8 17
M TOR 23 2 1 8 18
M TOR 24 2 3 1 8
M TOR 25 2 3 4 14
M TOR 26 2 3 5 6
M TOR 27 2 3 5 7
M TOR 28 2 3 5 8
M TOR 29 3 1 0 9
M TOR 30 3 1 0 10
M TOR 31 3 1 0 11
M TOR 32 3 1 8 17
M TOR 33 3 1 8 18
M TOR 34 3 5 6 7
M TOR 35 3 5 6 15
M TOR 36 3 5 6 16
M TOR 37 3 5 8 17
M TOR 38 3 5 8 18
M TOR 39 4 3 1 8
M TOR 40 4 3 2 12
M TOR 41 4 3 2 13
M TOR 42 4 3 5 6
M TOR 43 4 3 5 7
M TOR 44 4 3 5 8
M TOR 45 5 3 2 12
M TOR 46 5 3 2 13
M TOR 47 5 3 4 14
M TOR 48 5 7 6 15
M TOR 49 5 7 6 16
M TOR 50 6 5 8 17
M TOR 51 6 5 8 18
M TOR 52 6 7 5 8
M TOR 53 7 5 8 17
M TOR 54 7 5 8 18
M TOR 55 8 1 0 9
M TOR 56 8 1 0 10
M TOR 57 8 1 0 11
M TOR 58 8 1 2 12
M TOR 59 8 1 2 13
M TOR 60 8 5 6 15
M TOR 61 8 5 6 16
M  END
$$$$
