
     RDKit          3D

 19 20  0  0  0  0  0  0  0  0999 V2000
   -1.8243   -0.0405   -0.3848 C   0  0  0  0  0  0  0  0  0  0  0  0
   -1.6506    0.1916   -1.8709 C   0  0  0  0  0  0  0  0  0  0  0  0
   -2.3417    1.0158   -2.4652 O   0  0  0  0  0  0  0  0  0  0  0  0
   -0.6510   -0.6088   -2.5775 C   0  0  0  0  0  0  0  0  0  0  0  0
    0.4706   -1.4934   -2.0261 C   0  0  0  0  0  0  0  0  0  0  0  0
    1.4140   -0.9943   -3.1720 C   0  0  0  0  0  0  0  0  0  0  0  0
    0.2811   -0.1416   -3.7509 C   0  0  0  0  0  0  0  0  0  0  0  0
   -0.9088   -0.9637   -4.0683 C   0  0  0  0  0  0  0  0  0  0  0  0
   -1.9948   -0.4065   -4.7004 O   0  0  0  0  0  0  0  0  0  0  0  0
   -2.6696    0.5440   -0.0204 H   0  0  0  0  0  0  0  0  0  0  0  0
   -1.9845   -1.1036   -0.1744 H   0  0  0  0  0  0  0  0  0  0  0  0
   -0.9176    0.2574    0.1541 H   0  0  0  0  0  0  0  0  0  0  0  0
    0.8202   -1.1921   -1.0359 H   0  0  0  0  0  0  0  0  0  0  0  0
    0.2613   -2.5682   -2.0055 H   0  0  0  0  0  0  0  0  0  0  0  0
    2.2442   -0.3968   -2.7918 H   0  0  0  0  0  0  0  0  0  0  0  0
    1.8129   -1.7610   -3.8436 H   0  0  0  0  0  0  0  0  0  0  0  0
    0.3594    0.8732   -4.1237 H   0  0  0  0  0  0  0  0  0  0  0  0
   -0.7774   -2.0111   -4.3401 H   0  0  0  0  0  0  0  0  0  0  0  0
   -2.2955    0.3429   -4.1476 H   0  0  0  0  0  0  0  0  0  0  0  0
  1  2  1  0
  2  3  2  0
  2  4  1  0
  4  5  1  0
  5  6  1  0
  6  7  1  0
  7  8  1  0
  8  9  1  0
  7  4  1  0
  8  4  1  0
  1 10  1  0
  1 11  1  0
  1 12  1  0
  5 13  1  0
  5 14  1  0
  6 15  1  0
  6 16  1  0
  7 17  1  0
  8 18  1  0
  9 19  1  0
M  END
$$$$
