gdb 401	3.1249315	1.6206706	1.4387207	1.1314	74.93	-0.23296	0.08679	0.31975	981.0021	0.158535	-422.521481	-422.514274	-422.513329	-422.552792	29.322
 OpenBabel02181911403D

 19 21  0  0  1  0  0  0  0  0999 V2000
    0.5478    1.2543   -0.1685 C   0  0  0  0  0  0  0  0  0  0  0  0
    1.5921    0.1631   -0.0046 C   0  0  0  0  0  0  0  0  0  0  0  0
    0.1380   -0.1694    0.0899 C   0  0  0  0  0  0  0  0  0  0  0  0
   -0.3721   -0.9200   -0.9939 O   0  0  0  0  0  0  0  0  0  0  0  0
   -1.7618   -1.2332   -0.8777 C   0  0  0  0  0  0  0  0  0  0  0  0
   -2.1309   -1.4558    0.5857 C   0  0  1  0  0  0  0  0  0  0  0  0
   -0.9298   -2.0391    1.3594 C   0  0  0  0  0  0  0  0  0  0  0  0
   -0.5294   -0.5483    1.3878 C   0  0  2  0  0  0  0  0  0  0  0  0
   -1.9408   -0.1814    1.2685 O   0  0  0  0  0  0  0  0  0  0  0  0
    0.4247    1.9860    0.6229 H   0  0  0  0  0  0  0  0  0  0  0  0
    0.3805    1.6300   -1.1711 H   0  0  0  0  0  0  0  0  0  0  0  0
    2.1050   -0.1746   -0.8980 H   0  0  0  0  0  0  0  0  0  0  0  0
    2.1905    0.1433    0.9002 H   0  0  0  0  0  0  0  0  0  0  0  0
   -2.3843   -0.4203   -1.2792 H   0  0  0  0  0  0  0  0  0  0  0  0
   -1.9212   -2.1347   -1.4794 H   0  0  0  0  0  0  0  0  0  0  0  0
   -3.1358   -1.8644    0.7201 H   0  0  0  0  0  0  0  0  0  0  0  0
   -1.2194   -2.4014    2.3459 H   0  0  0  0  0  0  0  0  0  0  0  0
   -0.2704   -2.7442    0.8518 H   0  0  0  0  0  0  0  0  0  0  0  0
   -0.0523   -0.1112    2.2682 H   0  0  0  0  0  0  0  0  0  0  0  0
  1  2  1  0  0  0  0
  1  3  1  0  0  0  0
  1 10  1  0  0  0  0
  2  3  1  0  0  0  0
  2 13  1  0  0  0  0
  3  8  1  0  0  0  0
  4  5  1  0  0  0  0
  4  3  1  0  0  0  0
  5  6  1  0  0  0  0
  6 16  1  1  0  0  0
  6  9  1  0  0  0  0
  6  7  1  0  0  0  0
  7  8  1  0  0  0  0
  7 17  1  0  0  0  0
  8 19  1  1  0  0  0
  9  8  1  0  0  0  0
 11  1  1  0  0  0  0
 12  2  1  0  0  0  0
 14  5  1  0  0  0  0
 15  5  1  0  0  0  0
 18  7  1  0  0  0  0
M TOR 0 0 1 2 3
M TOR 1 0 1 2 7
M TOR 2 0 2 1 11
M TOR 3 0 2 1 12
M TOR 4 0 2 3 4
M TOR 5 0 2 7 6
M TOR 6 0 2 7 8
M TOR 7 0 2 7 18
M TOR 8 1 2 0 9
M TOR 9 1 2 0 10
M TOR 10 1 2 3 4
M TOR 11 1 2 7 6
M TOR 12 1 2 7 8
M TOR 13 1 2 7 18
M TOR 14 2 3 4 5
M TOR 15 2 3 4 13
M TOR 16 2 3 4 14
M TOR 17 2 7 6 5
M TOR 18 2 7 6 16
M TOR 19 2 7 6 17
M TOR 20 2 7 8 5
M TOR 21 3 2 0 9
M TOR 22 3 2 0 10
M TOR 23 3 2 1 11
M TOR 24 3 2 1 12
M TOR 25 3 2 7 6
M TOR 26 3 2 7 8
M TOR 27 3 2 7 18
M TOR 28 3 4 5 6
M TOR 29 3 4 5 8
M TOR 30 3 4 5 15
M TOR 31 4 3 2 7
M TOR 32 4 5 6 7
M TOR 33 4 5 6 16
M TOR 34 4 5 6 17
M TOR 35 4 5 8 7
M TOR 36 5 6 7 8
M TOR 37 5 6 7 18
M TOR 38 5 8 7 18
M TOR 39 6 5 4 13
M TOR 40 6 5 4 14
M TOR 41 7 2 0 9
M TOR 42 7 2 0 10
M TOR 43 7 2 1 11
M TOR 44 7 2 1 12
M TOR 45 7 6 5 15
M TOR 46 7 8 5 15
M TOR 47 8 5 4 13
M TOR 48 8 5 4 14
M TOR 49 8 5 6 16
M TOR 50 8 5 6 17
M TOR 51 8 7 6 16
M TOR 52 8 7 6 17
M  END
$$$$
