gdb 3404	2.2250308	1.6157876	1.0054518	0.4818	78.17	-0.22765	0.01825	0.24589999999999998	1189.9421	0.156528	-422.541835	-422.533154	-422.53221	-422.57483	32.903
 OpenBabel02181911413D

 19 20  0  0  1  0  0  0  0  0999 V2000
    1.4059    0.7642   -0.2742 C   0  0  0  0  0  0  0  0  0  0  0  0
    0.0908    0.0481   -0.1535 C   0  0  0  0  0  0  0  0  0  0  0  0
   -0.0426   -1.2796   -0.1700 C   0  0  0  0  0  0  0  0  0  0  0  0
   -1.3947   -1.9404   -0.0719 C   0  0  0  0  0  0  0  0  0  0  0  0
   -2.4491   -1.1465   -0.6098 O   0  0  0  0  0  0  0  0  0  0  0  0
   -2.4622    0.1798   -0.1754 C   0  0  2  0  0  0  0  0  0  0  0  0
   -2.0181    1.2281   -1.1665 C   0  0  1  0  0  0  0  0  0  0  0  0
   -2.5869    2.5015   -1.1383 O   0  0  0  0  0  0  0  0  0  0  0  0
   -1.1359    0.8753    0.0110 C   0  0  2  0  0  0  0  0  0  0  0  0
    1.5963    1.3906    0.6065 H   0  0  0  0  0  0  0  0  0  0  0  0
    2.2378    0.0627   -0.3808 H   0  0  0  0  0  0  0  0  0  0  0  0
    1.4084    1.4377   -1.1402 H   0  0  0  0  0  0  0  0  0  0  0  0
    0.8236   -1.9301   -0.2581 H   0  0  0  0  0  0  0  0  0  0  0  0
   -1.4099   -2.8706   -0.6490 H   0  0  0  0  0  0  0  0  0  0  0  0
   -1.6162   -2.2093    0.9754 H   0  0  0  0  0  0  0  0  0  0  0  0
   -3.2797    0.4344    0.4981 H   0  0  0  0  0  0  0  0  0  0  0  0
   -1.7108    0.8506   -2.1419 H   0  0  0  0  0  0  0  0  0  0  0  0
   -3.4610    2.4448   -1.5398 H   0  0  0  0  0  0  0  0  0  0  0  0
   -1.1025    1.6451    0.7781 H   0  0  0  0  0  0  0  0  0  0  0  0
  1  2  1  0  0  0  0
  1 10  1  0  0  0  0
  2  9  1  0  0  0  0
  3  2  2  0  0  0  0
  3  4  1  0  0  0  0
  4 15  1  0  0  0  0
  5  6  1  0  0  0  0
  5  4  1  0  0  0  0
  6  9  1  0  0  0  0
  6 16  1  1  0  0  0
  7 17  1  6  0  0  0
  7  8  1  0  0  0  0
  7  6  1  0  0  0  0
  7  9  1  0  0  0  0
  9 19  1  1  0  0  0
 11  1  1  0  0  0  0
 12  1  1  0  0  0  0
 13  3  1  0  0  0  0
 14  4  1  0  0  0  0
 18  8  1  0  0  0  0
M TOR 0 0 1 2 3
M TOR 1 0 1 2 12
M TOR 2 0 1 8 5
M TOR 3 0 1 8 6
M TOR 4 0 1 8 18
M TOR 5 1 2 3 4
M TOR 6 1 2 3 13
M TOR 7 1 2 3 14
M TOR 8 1 8 5 4
M TOR 9 1 8 5 6
M TOR 10 1 8 5 15
M TOR 11 1 8 6 7
M TOR 12 1 8 6 16
M TOR 13 2 1 0 9
M TOR 14 2 1 0 10
M TOR 15 2 1 0 11
M TOR 16 2 1 8 5
M TOR 17 2 1 8 6
M TOR 18 2 1 8 18
M TOR 19 2 3 4 5
M TOR 20 3 2 1 8
M TOR 21 3 4 5 6
M TOR 22 3 4 5 8
M TOR 23 3 4 5 15
M TOR 24 4 3 2 12
M TOR 25 4 5 6 7
M TOR 26 4 5 6 8
M TOR 27 4 5 6 16
M TOR 28 4 5 8 18
M TOR 29 5 4 3 13
M TOR 30 5 4 3 14
M TOR 31 5 6 7 17
M TOR 32 5 6 8 18
M TOR 33 5 8 6 7
M TOR 34 5 8 6 16
M TOR 35 6 8 5 15
M TOR 36 7 6 5 15
M TOR 37 7 6 8 18
M TOR 38 8 1 0 9
M TOR 39 8 1 0 10
M TOR 40 8 1 0 11
M TOR 41 8 1 2 12
M TOR 42 8 6 7 17
M  END
$$$$
