
     RDKit          3D

 19 20  0  0  0  0  0  0  0  0999 V2000
    1.0809    2.0160   -1.6035 C   0  0  0  0  0  0  0  0  0  0  0  0
    1.9060    1.0331   -0.7407 C   0  0  0  0  0  0  0  0  0  0  0  0
    2.2848    1.6633    0.6206 C   0  0  0  0  0  0  0  0  0  0  0  0
    1.1651    2.0169    1.4170 O   0  0  0  0  0  0  0  0  0  0  0  0
    0.3379    3.0303    0.9090 C   0  0  0  0  0  0  0  0  0  0  0  0
   -0.7019    2.6047    0.0636 O   0  0  0  0  0  0  0  0  0  0  0  0
   -0.3545    1.8096   -1.0855 C   0  0  0  0  0  0  0  0  0  0  0  0
   -0.3350    0.3317   -0.7248 C   0  0  0  0  0  0  0  0  0  0  0  0
    0.9136   -0.0968   -0.5519 C   0  0  0  0  0  0  0  0  0  0  0  0
    1.4203    3.0540   -1.5607 H   0  0  0  0  0  0  0  0  0  0  0  0
    1.1148    1.6994   -2.6498 H   0  0  0  0  0  0  0  0  0  0  0  0
    2.8347    0.7230   -1.2332 H   0  0  0  0  0  0  0  0  0  0  0  0
    2.8564    0.9525    1.2258 H   0  0  0  0  0  0  0  0  0  0  0  0
    2.9211    2.5454    0.4446 H   0  0  0  0  0  0  0  0  0  0  0  0
   -0.1733    3.4763    1.7662 H   0  0  0  0  0  0  0  0  0  0  0  0
    0.9597    3.7971    0.4158 H   0  0  0  0  0  0  0  0  0  0  0  0
   -1.1128    2.0639   -1.8315 H   0  0  0  0  0  0  0  0  0  0  0  0
   -1.2413   -0.2396   -0.5652 H   0  0  0  0  0  0  0  0  0  0  0  0
    1.2076   -1.0875   -0.2235 H   0  0  0  0  0  0  0  0  0  0  0  0
  1  2  1  0
  2  3  1  0
  3  4  1  0
  4  5  1  0
  5  6  1  0
  6  7  1  0
  7  8  1  0
  8  9  2  0
  7  1  1  0
  9  2  1  0
  1 10  1  0
  1 11  1  0
  2 12  1  0
  3 13  1  0
  3 14  1  0
  5 15  1  0
  5 16  1  0
  7 17  1  0
  8 18  1  0
  9 19  1  0
M  END
$$$$
