gdb 3091	4.1611848	1.3591818	1.2920941	1.4219	73.65	-0.25057	0.07823	0.3288	1029.9589	0.159255	-422.526344	-422.519294	-422.51835	-422.557461	28.977
 OpenBabel02181911413D

 19 21  0  0  1  0  0  0  0  0999 V2000
    0.5878    0.3502    0.2485 O   0  0  0  0  0  0  0  0  0  0  0  0
   -0.8024    0.4497    0.3540 C   0  0  2  0  0  0  0  0  0  0  0  0
   -1.5279   -0.8239    0.8793 C   0  0  2  0  0  0  0  0  0  0  0  0
   -1.3747   -1.3812   -0.4758 O   0  0  0  0  0  0  0  0  0  0  0  0
   -1.6038    0.0091   -0.9061 C   0  0  1  0  0  0  0  0  0  0  0  0
   -3.0611    0.2628   -0.5084 C   0  0  1  0  0  0  0  0  0  0  0  0
   -4.0980   -0.8048   -0.9521 C   0  0  0  0  0  0  0  0  0  0  0  0
   -4.0381   -1.4635    0.4598 C   0  0  0  0  0  0  0  0  0  0  0  0
   -3.0004   -0.4038    0.9204 C   0  0  1  0  0  0  0  0  0  0  0  0
    0.7638   -0.5083   -0.1594 H   0  0  0  0  0  0  0  0  0  0  0  0
   -1.0333    1.4144    0.8139 H   0  0  0  0  0  0  0  0  0  0  0  0
   -1.1127   -1.4597    1.6622 H   0  0  0  0  0  0  0  0  0  0  0  0
   -1.2650    0.2127   -1.9227 H   0  0  0  0  0  0  0  0  0  0  0  0
   -3.3555    1.3100   -0.5959 H   0  0  0  0  0  0  0  0  0  0  0  0
   -5.0744   -0.3873   -1.2084 H   0  0  0  0  0  0  0  0  0  0  0  0
   -3.7637   -1.4462   -1.7705 H   0  0  0  0  0  0  0  0  0  0  0  0
   -4.9802   -1.4227    1.0114 H   0  0  0  0  0  0  0  0  0  0  0  0
   -3.6687   -2.4913    0.4697 H   0  0  0  0  0  0  0  0  0  0  0  0
   -3.2537    0.1931    1.7982 H   0  0  0  0  0  0  0  0  0  0  0  0
  1  2  1  0  0  0  0
  2 11  1  1  0  0  0
  2  3  1  0  0  0  0
  3  9  1  0  0  0  0
  3 12  1  1  0  0  0
  4  3  1  0  0  0  0
  5 13  1  6  0  0  0
  5  6  1  0  0  0  0
  5  4  1  0  0  0  0
  5  2  1  0  0  0  0
  6 14  1  6  0  0  0
  6  9  1  0  0  0  0
  7  6  1  0  0  0  0
  7  8  1  0  0  0  0
  8 18  1  0  0  0  0
  8  9  1  0  0  0  0
  8 17  1  0  0  0  0
  9 19  1  1  0  0  0
 10  1  1  0  0  0  0
 15  7  1  0  0  0  0
 16  7  1  0  0  0  0
M TOR 0 0 1 2 3
M TOR 1 0 1 2 8
M TOR 2 0 1 2 11
M TOR 3 0 1 4 3
M TOR 4 0 1 4 5
M TOR 5 0 1 4 12
M TOR 6 1 2 3 4
M TOR 7 1 2 8 5
M TOR 8 1 2 8 7
M TOR 9 1 2 8 18
M TOR 10 1 4 5 6
M TOR 11 1 4 5 8
M TOR 12 1 4 5 13
M TOR 13 2 1 0 9
M TOR 14 2 1 4 5
M TOR 15 2 1 4 12
M TOR 16 2 3 4 5
M TOR 17 2 3 4 12
M TOR 18 2 8 5 4
M TOR 19 2 8 5 6
M TOR 20 2 8 5 13
M TOR 21 2 8 7 6
M TOR 22 2 8 7 16
M TOR 23 2 8 7 17
M TOR 24 3 2 1 10
M TOR 25 3 2 8 5
M TOR 26 3 2 8 7
M TOR 27 3 2 8 18
M TOR 28 3 4 1 10
M TOR 29 3 4 5 6
M TOR 30 3 4 5 8
M TOR 31 3 4 5 13
M TOR 32 4 1 0 9
M TOR 33 4 1 2 8
M TOR 34 4 1 2 11
M TOR 35 4 3 2 8
M TOR 36 4 3 2 11
M TOR 37 4 5 6 7
M TOR 38 4 5 6 14
M TOR 39 4 5 6 15
M TOR 40 4 5 8 7
M TOR 41 4 5 8 18
M TOR 42 5 4 1 10
M TOR 43 5 6 7 8
M TOR 44 5 6 7 16
M TOR 45 5 6 7 17
M TOR 46 5 8 2 11
M TOR 47 5 8 7 16
M TOR 48 5 8 7 17
M TOR 49 6 5 4 12
M TOR 50 6 5 8 18
M TOR 51 6 7 8 18
M TOR 52 7 6 5 13
M TOR 53 7 8 2 11
M TOR 54 7 8 5 13
M TOR 55 8 2 1 10
M TOR 56 8 5 4 12
M TOR 57 8 5 6 14
M TOR 58 8 5 6 15
M TOR 59 8 7 6 14
M TOR 60 8 7 6 15
M  END
$$$$
