
     RDKit          3D

 19 20  0  0  0  0  0  0  0  0999 V2000
   -1.0262    0.0464    2.5147 C   0  0  0  0  0  0  0  0  0  0  0  0
   -1.5492    0.0022    1.0898 C   0  0  0  0  0  0  0  0  0  0  0  0
   -0.9457    0.9471   -0.0249 C   0  0  0  0  0  0  0  0  0  0  0  0
   -0.9632    2.4463   -0.0802 C   0  0  0  0  0  0  0  0  0  0  0  0
   -1.5413   -0.0710   -1.0624 C   0  0  0  0  0  0  0  0  0  0  0  0
   -0.9255   -0.9973    0.0528 C   0  0  0  0  0  0  0  0  0  0  0  0
   -0.9391   -2.3667    0.1370 O   0  0  0  0  0  0  0  0  0  0  0  0
    0.2505   -0.0191    0.0045 C   0  0  0  0  0  0  0  0  0  0  0  0
    1.4459   -0.0283   -0.0185 O   0  0  0  0  0  0  0  0  0  0  0  0
   -1.3502   -0.8412    3.0676 H   0  0  0  0  0  0  0  0  0  0  0  0
    0.0679    0.0801    2.5494 H   0  0  0  0  0  0  0  0  0  0  0  0
   -1.4065    0.9253    3.0459 H   0  0  0  0  0  0  0  0  0  0  0  0
   -2.6438   -0.0099    1.0532 H   0  0  0  0  0  0  0  0  0  0  0  0
   -0.4706    2.8749    0.7987 H   0  0  0  0  0  0  0  0  0  0  0  0
   -0.4341    2.8100   -0.9668 H   0  0  0  0  0  0  0  0  0  0  0  0
   -1.9869    2.8325   -0.1157 H   0  0  0  0  0  0  0  0  0  0  0  0
   -2.6329   -0.0865   -1.1028 H   0  0  0  0  0  0  0  0  0  0  0  0
   -1.0904   -0.0990   -2.0565 H   0  0  0  0  0  0  0  0  0  0  0  0
   -0.0508   -2.6883   -0.0563 H   0  0  0  0  0  0  0  0  0  0  0  0
  1  2  1  0
  2  3  1  0
  3  4  1  0
  3  5  1  0
  5  6  1  0
  6  7  1  0
  6  8  1  0
  8  9  2  0
  6  2  1  0
  8  3  1  0
  1 10  1  0
  1 11  1  0
  1 12  1  0
  2 13  1  0
  4 14  1  0
  4 15  1  0
  4 16  1  0
  5 17  1  0
  5 18  1  0
  7 19  1  0
M  END
$$$$
