gdb 4241	2.6718706	1.9040299	1.5498582	2.8637	72.79	-0.24733	0.05464	0.30197	927.297	0.159885	-422.540482	-422.533542	-422.532598	-422.572062	28.392
 OpenBabel02181911413D

 19 21  0  0  1  0  0  0  0  0999 V2000
    0.6791    0.2558    0.9221 O   0  0  0  0  0  0  0  0  0  0  0  0
   -0.7223    0.4274    0.9574 C   0  0  1  0  0  0  0  0  0  0  0  0
   -1.3383    0.3913    2.3893 C   0  0  0  0  0  0  0  0  0  0  0  0
   -1.8467    1.8041    2.7078 C   0  0  1  0  0  0  0  0  0  0  0  0
   -0.7710    2.8918    3.0477 C   0  0  0  0  0  0  0  0  0  0  0  0
   -0.9064    3.4701    1.6250 C   0  0  1  0  0  0  0  0  0  0  0  0
   -0.0683    2.7835    0.6605 O   0  0  0  0  0  0  0  0  0  0  0  0
   -1.1163    1.8086    0.3721 C   0  0  2  0  0  0  0  0  0  0  0  0
   -2.0911    2.5140    1.3353 C   0  0  1  0  0  0  0  0  0  0  0  0
    1.0483    1.1486    0.9921 H   0  0  0  0  0  0  0  0  0  0  0  0
   -1.1506   -0.3759    0.3479 H   0  0  0  0  0  0  0  0  0  0  0  0
   -2.1797   -0.3107    2.4073 H   0  0  0  0  0  0  0  0  0  0  0  0
   -0.5972    0.0279    3.1067 H   0  0  0  0  0  0  0  0  0  0  0  0
   -2.6880    1.8004    3.4025 H   0  0  0  0  0  0  0  0  0  0  0  0
   -1.1230    3.5937    3.8095 H   0  0  0  0  0  0  0  0  0  0  0  0
    0.2288    2.5441    3.3222 H   0  0  0  0  0  0  0  0  0  0  0  0
   -0.8864    4.5508    1.4736 H   0  0  0  0  0  0  0  0  0  0  0  0
   -1.3370    1.7927   -0.6985 H   0  0  0  0  0  0  0  0  0  0  0  0
   -3.0858    2.8089    1.0097 H   0  0  0  0  0  0  0  0  0  0  0  0
  1  2  1  0  0  0  0
  1 10  1  0  0  0  0
  2 11  1  6  0  0  0
  2  3  1  0  0  0  0
  3 12  1  0  0  0  0
  3  4  1  0  0  0  0
  3 13  1  0  0  0  0
  4  5  1  0  0  0  0
  4 14  1  1  0  0  0
  5 16  1  0  0  0  0
  5 15  1  0  0  0  0
  6 17  1  6  0  0  0
  6  5  1  0  0  0  0
  7  6  1  0  0  0  0
  8 18  1  6  0  0  0
  8  7  1  0  0  0  0
  8  2  1  0  0  0  0
  8  9  1  0  0  0  0
  9 19  1  6  0  0  0
  9  6  1  0  0  0  0
  9  4  1  0  0  0  0
M TOR 0 0 1 2 3
M TOR 1 0 1 2 11
M TOR 2 0 1 2 12
M TOR 3 0 1 7 6
M TOR 4 0 1 7 8
M TOR 5 0 1 7 17
M TOR 6 1 2 3 4
M TOR 7 1 2 3 8
M TOR 8 1 2 3 13
M TOR 9 1 7 6 5
M TOR 10 1 7 8 3
M TOR 11 1 7 8 5
M TOR 12 1 7 8 18
M TOR 13 2 1 0 9
M TOR 14 2 1 7 6
M TOR 15 2 1 7 8
M TOR 16 2 1 7 17
M TOR 17 2 3 4 5
M TOR 18 2 3 4 14
M TOR 19 2 3 4 15
M TOR 20 2 3 8 5
M TOR 21 2 3 8 7
M TOR 22 2 3 8 18
M TOR 23 3 2 1 7
M TOR 24 3 2 1 10
M TOR 25 3 4 5 6
M TOR 26 3 4 5 8
M TOR 27 3 4 5 16
M TOR 28 3 8 5 6
M TOR 29 3 8 5 16
M TOR 30 3 8 7 6
M TOR 31 3 8 7 17
M TOR 32 4 3 2 11
M TOR 33 4 3 2 12
M TOR 34 4 3 8 7
M TOR 35 4 3 8 18
M TOR 36 4 5 6 7
M TOR 37 4 5 8 7
M TOR 38 4 5 8 18
M TOR 39 5 4 3 13
M TOR 40 5 6 7 8
M TOR 41 5 6 7 17
M TOR 42 5 8 3 13
M TOR 43 5 8 7 17
M TOR 44 6 5 4 14
M TOR 45 6 5 4 15
M TOR 46 6 5 8 18
M TOR 47 6 7 1 10
M TOR 48 6 7 8 18
M TOR 49 7 1 0 9
M TOR 50 7 1 2 11
M TOR 51 7 1 2 12
M TOR 52 7 6 5 16
M TOR 53 7 8 3 13
M TOR 54 7 8 5 16
M TOR 55 8 3 2 11
M TOR 56 8 3 2 12
M TOR 57 8 3 4 14
M TOR 58 8 3 4 15
M TOR 59 8 5 4 14
M TOR 60 8 5 4 15
M TOR 61 8 7 1 10
M  END
$$$$
