gdb 5301	2.7472383	1.644669	1.2426875	0.996	74.29	-0.24023	0.05942	0.29964999999999997	1036.4811	0.158351	-422.513455	-422.505807	-422.504863	-422.54561	30.008
 OpenBabel02181911423D

 19 21  0  0  1  0  0  0  0  0999 V2000
    1.6873    0.7260    0.1407 O   0  0  0  0  0  0  0  0  0  0  0  0
    0.7150   -0.2123    0.5899 C   0  0  0  0  0  0  0  0  0  0  0  0
   -0.2507    0.3777    1.5928 C   0  0  2  0  0  0  0  0  0  0  0  0
    0.3062    0.8220    2.9482 C   0  0  0  0  0  0  0  0  0  0  0  0
   -0.8727    1.3084    3.6003 O   0  0  0  0  0  0  0  0  0  0  0  0
   -1.8621    1.0935    2.6156 C   0  0  2  0  0  0  0  0  0  0  0  0
   -1.6529   -0.2755    1.9034 C   0  0  1  0  0  0  0  0  0  0  0  0
   -2.2301    0.3494    0.6129 C   0  0  0  0  0  0  0  0  0  0  0  0
   -1.3289    1.4586    1.1998 C   0  0  2  0  0  0  0  0  0  0  0  0
    2.2768    0.9226    0.8747 H   0  0  0  0  0  0  0  0  0  0  0  0
    0.1870   -0.5374   -0.3109 H   0  0  0  0  0  0  0  0  0  0  0  0
    1.1945   -1.1069    1.0198 H   0  0  0  0  0  0  0  0  0  0  0  0
    0.7454   -0.0046    3.5233 H   0  0  0  0  0  0  0  0  0  0  0  0
    1.0473    1.6287    2.8690 H   0  0  0  0  0  0  0  0  0  0  0  0
   -2.8420    1.4157    2.9658 H   0  0  0  0  0  0  0  0  0  0  0  0
   -1.8314   -1.2691    2.3178 H   0  0  0  0  0  0  0  0  0  0  0  0
   -1.9207   -0.0916   -0.3359 H   0  0  0  0  0  0  0  0  0  0  0  0
   -3.3059    0.5470    0.6080 H   0  0  0  0  0  0  0  0  0  0  0  0
   -1.1300    2.4540    0.8025 H   0  0  0  0  0  0  0  0  0  0  0  0
  1  2  1  0  0  0  0
  1 10  1  0  0  0  0
  2 12  1  0  0  0  0
  3  2  1  6  0  0  0
  3  7  1  0  0  0  0
  3  4  1  0  0  0  0
  4 13  1  0  0  0  0
  4  5  1  0  0  0  0
  6 15  1  1  0  0  0
  6  5  1  0  0  0  0
  7 16  1  1  0  0  0
  7  6  1  0  0  0  0
  8  9  1  0  0  0  0
  8  7  1  0  0  0  0
  9 19  1  6  0  0  0
  9  3  1  0  0  0  0
  9  6  1  0  0  0  0
 11  2  1  0  0  0  0
 14  4  1  0  0  0  0
 17  8  1  0  0  0  0
 18  8  1  0  0  0  0
M TOR 0 0 1 2 3
M TOR 1 0 1 2 6
M TOR 2 0 1 2 8
M TOR 3 1 2 3 4
M TOR 4 1 2 3 12
M TOR 5 1 2 3 13
M TOR 6 1 2 6 5
M TOR 7 1 2 6 7
M TOR 8 1 2 6 15
M TOR 9 1 2 8 5
M TOR 10 1 2 8 7
M TOR 11 1 2 8 18
M TOR 12 2 1 0 9
M TOR 13 2 3 4 5
M TOR 14 2 6 5 4
M TOR 15 2 6 5 8
M TOR 16 2 6 5 14
M TOR 17 2 6 7 8
M TOR 18 2 6 7 16
M TOR 19 2 6 7 17
M TOR 20 2 8 5 4
M TOR 21 2 8 5 14
M TOR 22 2 8 7 16
M TOR 23 2 8 7 17
M TOR 24 3 2 1 10
M TOR 25 3 2 1 11
M TOR 26 3 2 6 5
M TOR 27 3 2 6 7
M TOR 28 3 2 6 15
M TOR 29 3 2 8 5
M TOR 30 3 2 8 7
M TOR 31 3 2 8 18
M TOR 32 3 4 5 6
M TOR 33 3 4 5 8
M TOR 34 3 4 5 14
M TOR 35 4 3 2 6
M TOR 36 4 3 2 8
M TOR 37 4 5 6 7
M TOR 38 4 5 6 15
M TOR 39 4 5 8 7
M TOR 40 4 5 8 18
M TOR 41 5 4 3 12
M TOR 42 5 4 3 13
M TOR 43 5 6 7 8
M TOR 44 5 6 7 16
M TOR 45 5 6 7 17
M TOR 46 5 8 7 16
M TOR 47 5 8 7 17
M TOR 48 6 2 1 10
M TOR 49 6 2 1 11
M TOR 50 6 2 3 12
M TOR 51 6 2 3 13
M TOR 52 6 2 8 18
M TOR 53 6 5 8 18
M TOR 54 6 7 8 18
M TOR 55 7 6 5 14
M TOR 56 7 8 5 14
M TOR 57 8 2 1 10
M TOR 58 8 2 1 11
M TOR 59 8 2 3 12
M TOR 60 8 2 3 13
M TOR 61 8 2 6 15
M TOR 62 8 5 6 15
M TOR 63 8 7 6 15
M  END
$$$$
