
     RDKit          3D

 19 20  0  0  0  0  0  0  0  0999 V2000
    1.2541   -0.1656   -0.4963 O   0  0  0  0  0  0  0  0  0  0  0  0
    0.1070   -0.0498   -0.1577 C   0  0  0  0  0  0  0  0  0  0  0  0
   -0.9074   -1.1845    0.0111 C   0  0  0  0  0  0  0  0  0  0  0  0
   -2.0910   -0.5947    0.5048 O   0  0  0  0  0  0  0  0  0  0  0  0
   -2.1154    0.8045    0.1494 C   0  0  0  0  0  0  0  0  0  0  0  0
   -0.6424    1.2387    0.1800 C   0  0  0  0  0  0  0  0  0  0  0  0
   -2.7809    1.0363   -1.1882 C   0  0  0  0  0  0  0  0  0  0  0  0
   -4.2817    1.0115   -1.2866 C   0  0  0  0  0  0  0  0  0  0  0  0
   -3.5428    2.3185   -1.4240 C   0  0  0  0  0  0  0  0  0  0  0  0
   -1.0541   -1.6827   -0.9608 H   0  0  0  0  0  0  0  0  0  0  0  0
   -0.5453   -1.9359    0.7209 H   0  0  0  0  0  0  0  0  0  0  0  0
   -2.7066    1.2944    0.9296 H   0  0  0  0  0  0  0  0  0  0  0  0
   -0.3862    2.0429   -0.5118 H   0  0  0  0  0  0  0  0  0  0  0  0
   -0.3412    1.5470    1.1878 H   0  0  0  0  0  0  0  0  0  0  0  0
   -2.2325    0.6423   -2.0412 H   0  0  0  0  0  0  0  0  0  0  0  0
   -4.7308    0.5768   -2.1723 H   0  0  0  0  0  0  0  0  0  0  0  0
   -4.8414    0.8360   -0.3739 H   0  0  0  0  0  0  0  0  0  0  0  0
   -3.4805    2.7804   -2.4026 H   0  0  0  0  0  0  0  0  0  0  0  0
   -3.6082    3.0272   -0.6043 H   0  0  0  0  0  0  0  0  0  0  0  0
  1  2  2  0
  2  3  1  0
  3  4  1  0
  4  5  1  0
  5  6  1  0
  5  7  1  0
  7  8  1  0
  8  9  1  0
  6  2  1  0
  9  7  1  0
  3 10  1  0
  3 11  1  0
  5 12  1  0
  6 13  1  0
  6 14  1  0
  7 15  1  0
  8 16  1  0
  8 17  1  0
  9 18  1  0
  9 19  1  0
M  END
$$$$
