
     RDKit          3D

 19 19  0  0  0  0  0  0  0  0999 V2000
    1.5138    0.3417   -0.0060 C   0  0  0  0  0  0  0  0  0  0  0  0
    0.1264    0.0648    0.0164 O   0  0  0  0  0  0  0  0  0  0  0  0
   -0.5116    0.4766    1.1806 C   0  0  0  0  0  0  0  0  0  0  0  0
   -2.0358    0.2500    1.2185 C   0  0  0  0  0  0  0  0  0  0  0  0
   -2.9149    1.2522    0.7909 O   0  0  0  0  0  0  0  0  0  0  0  0
   -1.9145   -0.1088    2.7238 C   0  0  0  0  0  0  0  0  0  0  0  0
   -0.3990   -0.4046    2.4830 C   0  0  0  0  0  0  0  0  0  0  0  0
    0.5597   -0.0404    3.5013 C   0  0  0  0  0  0  0  0  0  0  0  0
    1.3516    0.2960    4.3428 C   0  0  0  0  0  0  0  0  0  0  0  0
    2.0489   -0.1839    0.7967 H   0  0  0  0  0  0  0  0  0  0  0  0
    1.8940    0.0012   -0.9717 H   0  0  0  0  0  0  0  0  0  0  0  0
    1.7095    1.4198    0.0964 H   0  0  0  0  0  0  0  0  0  0  0  0
   -0.2657    1.5228    1.4305 H   0  0  0  0  0  0  0  0  0  0  0  0
   -2.2737   -0.6380    0.6251 H   0  0  0  0  0  0  0  0  0  0  0  0
   -2.7307    2.0508    1.2968 H   0  0  0  0  0  0  0  0  0  0  0  0
   -2.0409    0.7743    3.3572 H   0  0  0  0  0  0  0  0  0  0  0  0
   -2.5310   -0.9196    3.1126 H   0  0  0  0  0  0  0  0  0  0  0  0
   -0.2660   -1.4474    2.1761 H   0  0  0  0  0  0  0  0  0  0  0  0
    2.0519    0.5812    5.0881 H   0  0  0  0  0  0  0  0  0  0  0  0
  1  2  1  0
  2  3  1  0
  3  4  1  0
  4  5  1  0
  4  6  1  0
  6  7  1  0
  7  8  1  0
  8  9  3  0
  7  3  1  0
  1 10  1  0
  1 11  1  0
  1 12  1  0
  3 13  1  0
  4 14  1  0
  5 15  1  0
  6 16  1  0
  6 17  1  0
  7 18  1  0
  9 19  1  0
M  END
$$$$
