gdb 1298	2.6736169	1.3941771	0.9939842	3.9615	76.37	-0.24878	-0.01868	0.2301	1204.0075	0.156216	-422.553785	-422.545069	-422.544125	-422.587085	32.97
 OpenBabel02181911403D

 19 20  0  0  1  0  0  0  0  0999 V2000
    3.0607   -0.9427   -2.9854 C   0  0  0  0  0  0  0  0  0  0  0  0
    1.9695   -0.6906   -1.9526 C   0  0  1  0  0  0  0  0  0  0  0  0
    0.7226   -0.8971   -2.5892 O   0  0  0  0  0  0  0  0  0  0  0  0
    2.0799   -1.6228   -0.7337 C   0  0  1  0  0  0  0  0  0  0  0  0
    3.1371   -1.3030    0.3413 C   0  0  2  0  0  0  0  0  0  0  0  0
    2.9628   -2.2197    1.4919 C   0  0  0  0  0  0  0  0  0  0  0  0
    2.0282   -1.0172    1.4073 C   0  0  2  0  0  0  0  0  0  0  0  0
    1.0262   -1.2150    0.3263 C   0  0  0  0  0  0  0  0  0  0  0  0
   -0.1287   -0.8898    0.1960 O   0  0  0  0  0  0  0  0  0  0  0  0
    4.0547   -0.7741   -2.5599 H   0  0  0  0  0  0  0  0  0  0  0  0
    3.0043   -1.9725   -3.3515 H   0  0  0  0  0  0  0  0  0  0  0  0
    2.9279   -0.2701   -3.8371 H   0  0  0  0  0  0  0  0  0  0  0  0
    2.0533    0.3515   -1.5948 H   0  0  0  0  0  0  0  0  0  0  0  0
    0.0402   -0.8106   -1.9075 H   0  0  0  0  0  0  0  0  0  0  0  0
    2.0609   -2.6643   -1.0719 H   0  0  0  0  0  0  0  0  0  0  0  0
    4.0239   -0.7032    0.1852 H   0  0  0  0  0  0  0  0  0  0  0  0
    2.5737   -3.2226    1.3394 H   0  0  0  0  0  0  0  0  0  0  0  0
    3.6883   -2.1412    2.2951 H   0  0  0  0  0  0  0  0  0  0  0  0
    1.9825   -0.2825    2.2013 H   0  0  0  0  0  0  0  0  0  0  0  0
  1 10  1  0  0  0  0
  1  2  1  0  0  0  0
  2 13  1  1  0  0  0
  2  4  1  0  0  0  0
  3  2  1  0  0  0  0
  3 14  1  0  0  0  0
  4 15  1  6  0  0  0
  4  8  1  0  0  0  0
  4  5  1  0  0  0  0
  5 16  1  6  0  0  0
  5  7  1  0  0  0  0
  5  6  1  0  0  0  0
  6 18  1  0  0  0  0
  7  6  1  0  0  0  0
  7 19  1  1  0  0  0
  8  7  1  0  0  0  0
  9  8  2  0  0  0  0
 11  1  1  0  0  0  0
 12  1  1  0  0  0  0
 17  6  1  0  0  0  0
M TOR 0 0 1 2 13
M TOR 1 0 1 3 4
M TOR 2 0 1 3 7
M TOR 3 0 1 3 14
M TOR 4 1 3 4 5
M TOR 5 1 3 4 6
M TOR 6 1 3 4 15
M TOR 7 1 3 7 6
M TOR 8 1 3 7 8
M TOR 9 2 1 0 9
M TOR 10 2 1 0 10
M TOR 11 2 1 0 11
M TOR 12 2 1 3 4
M TOR 13 2 1 3 7
M TOR 14 2 1 3 14
M TOR 15 3 1 0 9
M TOR 16 3 1 0 10
M TOR 17 3 1 0 11
M TOR 18 3 1 2 13
M TOR 19 3 4 5 6
M TOR 20 3 4 5 16
M TOR 21 3 4 5 17
M TOR 22 3 4 6 7
M TOR 23 3 4 6 18
M TOR 24 3 7 6 5
M TOR 25 3 7 6 18
M TOR 26 4 3 1 12
M TOR 27 4 3 7 8
M TOR 28 4 5 6 7
M TOR 29 4 5 6 18
M TOR 30 4 6 5 16
M TOR 31 4 6 5 17
M TOR 32 4 6 7 8
M TOR 33 5 4 3 7
M TOR 34 5 4 3 14
M TOR 35 5 6 4 15
M TOR 36 5 6 7 8
M TOR 37 6 4 3 14
M TOR 38 6 7 3 14
M TOR 39 7 3 1 12
M TOR 40 7 3 4 15
M TOR 41 7 6 4 15
M TOR 42 7 6 5 16
M TOR 43 7 6 5 17
M TOR 44 8 7 3 14
M TOR 45 8 7 6 18
M  END
$$$$
