gdb 3880	1.9857511	1.6359746	1.0537602	2.5484	76.63	-0.23459	-0.03087	0.20371999999999998	1191.6445	0.154304	-422.530946	-422.521728	-422.520784	-422.565678	33.378
 OpenBabel02181911413D

 19 20  0  0  1  0  0  0  0  0999 V2000
    0.8886   -0.4381   -0.9436 C   0  0  0  0  0  0  0  0  0  0  0  0
    1.0243    0.1038    0.4629 C   0  0  2  0  0  0  0  0  0  0  0  0
    1.6908    1.4009    0.4958 O   0  0  0  0  0  0  0  0  0  0  0  0
    2.7066    0.9045    1.3571 C   0  0  0  0  0  0  0  0  0  0  0  0
    4.1241    1.3535    1.2471 C   0  0  0  0  0  0  0  0  0  0  0  0
    3.2812    1.7356    2.4590 C   0  0  0  0  0  0  0  0  0  0  0  0
    2.1043   -0.5105    1.3777 C   0  0  1  0  0  0  0  0  0  0  0  0
    1.6652   -1.0124    2.7292 C   0  0  0  0  0  0  0  0  0  0  0  0
    0.5230   -1.0637    3.1080 O   0  0  0  0  0  0  0  0  0  0  0  0
    0.4144   -1.4255   -0.9263 H   0  0  0  0  0  0  0  0  0  0  0  0
    0.2650    0.2288   -1.5466 H   0  0  0  0  0  0  0  0  0  0  0  0
    1.8660   -0.5251   -1.4285 H   0  0  0  0  0  0  0  0  0  0  0  0
    0.0517    0.1635    0.9621 H   0  0  0  0  0  0  0  0  0  0  0  0
    4.9171    0.6234    1.3759 H   0  0  0  0  0  0  0  0  0  0  0  0
    4.3329    2.1296    0.5185 H   0  0  0  0  0  0  0  0  0  0  0  0
    3.5070    1.2767    3.4159 H   0  0  0  0  0  0  0  0  0  0  0  0
    2.9309    2.7602    2.5208 H   0  0  0  0  0  0  0  0  0  0  0  0
    2.7463   -1.2616    0.9039 H   0  0  0  0  0  0  0  0  0  0  0  0
    2.4997   -1.3376    3.3922 H   0  0  0  0  0  0  0  0  0  0  0  0
  1 10  1  0  0  0  0
  1  2  1  0  0  0  0
  2  3  1  0  0  0  0
  2 13  1  1  0  0  0
  2  7  1  0  0  0  0
  3  4  1  0  0  0  0
  4  7  1  0  0  0  0
  4  6  1  0  0  0  0
  5  4  1  0  0  0  0
  5 14  1  0  0  0  0
  5  6  1  0  0  0  0
  6 17  1  0  0  0  0
  6 16  1  0  0  0  0
  7 18  1  6  0  0  0
  7  8  1  0  0  0  0
  8  9  2  0  0  0  0
  8 19  1  0  0  0  0
 11  1  1  0  0  0  0
 12  1  1  0  0  0  0
 15  5  1  0  0  0  0
M TOR 0 0 1 2 3
M TOR 1 0 1 6 3
M TOR 2 0 1 6 7
M TOR 3 0 1 6 17
M TOR 4 1 2 3 4
M TOR 5 1 2 3 5
M TOR 6 1 2 3 6
M TOR 7 1 6 3 4
M TOR 8 1 6 3 5
M TOR 9 1 6 7 8
M TOR 10 1 6 7 18
M TOR 11 2 1 0 9
M TOR 12 2 1 0 10
M TOR 13 2 1 0 11
M TOR 14 2 1 6 7
M TOR 15 2 1 6 17
M TOR 16 2 3 4 5
M TOR 17 2 3 4 13
M TOR 18 2 3 4 14
M TOR 19 2 3 5 15
M TOR 20 2 3 5 16
M TOR 21 2 3 6 7
M TOR 22 2 3 6 17
M TOR 23 3 2 1 12
M TOR 24 3 4 5 15
M TOR 25 3 4 5 16
M TOR 26 3 5 4 13
M TOR 27 3 5 4 14
M TOR 28 3 6 1 12
M TOR 29 3 6 7 8
M TOR 30 3 6 7 18
M TOR 31 4 3 6 7
M TOR 32 4 3 6 17
M TOR 33 4 5 3 6
M TOR 34 5 3 6 7
M TOR 35 5 3 6 17
M TOR 36 6 1 0 9
M TOR 37 6 1 0 10
M TOR 38 6 1 0 11
M TOR 39 6 3 4 13
M TOR 40 6 3 4 14
M TOR 41 6 3 5 15
M TOR 42 6 3 5 16
M TOR 43 7 6 1 12
M TOR 44 8 7 6 17
M  END
$$$$
