gdb 516	3.0340534	1.7762119	1.5921085	1.0729	73.7	-0.24024	0.05537	0.29561000000000004	918.6348	0.160194	-422.50093	-422.49437	-422.493426	-422.531361	27.905
 OpenBabel02181911403D

 19 21  0  0  1  0  0  0  0  0999 V2000
   -0.3103    1.3834   -0.0891 C   0  0  0  0  0  0  0  0  0  0  0  0
   -0.0770   -0.0112    0.3303 O   0  0  0  0  0  0  0  0  0  0  0  0
    1.2948    0.1205   -0.1503 C   0  0  2  0  0  0  0  0  0  0  0  0
    1.4286   -0.2323   -1.6558 C   0  0  0  0  0  0  0  0  0  0  0  0
    2.8516    0.2888   -2.0062 C   0  0  0  0  0  0  0  0  0  0  0  0
    3.2249    0.9639   -0.6836 C   0  0  2  0  0  0  0  0  0  0  0  0
    2.7225   -0.1124    0.3686 C   0  0  0  0  0  0  0  0  0  0  0  0
    2.3372    2.1434   -0.5806 O   0  0  0  0  0  0  0  0  0  0  0  0
    1.2210    1.5935    0.1001 C   0  0  1  0  0  0  0  0  0  0  0  0
   -0.7006    1.4373   -1.1093 H   0  0  0  0  0  0  0  0  0  0  0  0
   -0.9718    1.9049    0.6054 H   0  0  0  0  0  0  0  0  0  0  0  0
    1.3314   -1.3149   -1.7761 H   0  0  0  0  0  0  0  0  0  0  0  0
    0.6513    0.2329   -2.2635 H   0  0  0  0  0  0  0  0  0  0  0  0
    3.5444   -0.5217   -2.2524 H   0  0  0  0  0  0  0  0  0  0  0  0
    2.8561    1.0088   -2.8266 H   0  0  0  0  0  0  0  0  0  0  0  0
    4.2527    1.3071   -0.5728 H   0  0  0  0  0  0  0  0  0  0  0  0
    3.1835   -1.0827    0.1678 H   0  0  0  0  0  0  0  0  0  0  0  0
    2.8736    0.1703    1.4108 H   0  0  0  0  0  0  0  0  0  0  0  0
    1.3285    1.7944    1.1748 H   0  0  0  0  0  0  0  0  0  0  0  0
  1  9  1  0  0  0  0
  1  2  1  0  0  0  0
  1 11  1  0  0  0  0
  3  9  1  0  0  0  0
  3  2  1  1  0  0  0
  3  7  1  0  0  0  0
  4  3  1  0  0  0  0
  5  4  1  0  0  0  0
  5  6  1  0  0  0  0
  6  8  1  0  0  0  0
  6 16  1  1  0  0  0
  6  7  1  0  0  0  0
  7 18  1  0  0  0  0
  8  9  1  0  0  0  0
  9 19  1  1  0  0  0
 10  1  1  0  0  0  0
 12  4  1  0  0  0  0
 13  4  1  0  0  0  0
 14  5  1  0  0  0  0
 15  5  1  0  0  0  0
 17  7  1  0  0  0  0
M TOR 0 0 1 2 3
M TOR 1 0 1 2 6
M TOR 2 0 1 2 8
M TOR 3 0 8 2 3
M TOR 4 0 8 2 6
M TOR 5 0 8 7 5
M TOR 6 1 0 8 7
M TOR 7 1 0 8 18
M TOR 8 1 2 3 4
M TOR 9 1 2 3 11
M TOR 10 1 2 3 12
M TOR 11 1 2 6 5
M TOR 12 1 2 6 16
M TOR 13 1 2 6 17
M TOR 14 1 2 8 7
M TOR 15 1 2 8 18
M TOR 16 2 1 0 9
M TOR 17 2 1 0 10
M TOR 18 2 3 4 5
M TOR 19 2 3 4 13
M TOR 20 2 3 4 14
M TOR 21 2 6 5 4
M TOR 22 2 6 5 7
M TOR 23 2 6 5 15
M TOR 24 2 8 0 9
M TOR 25 2 8 0 10
M TOR 26 2 8 7 5
M TOR 27 3 2 6 5
M TOR 28 3 2 6 16
M TOR 29 3 2 6 17
M TOR 30 3 2 8 7
M TOR 31 3 2 8 18
M TOR 32 3 4 5 6
M TOR 33 3 4 5 7
M TOR 34 3 4 5 15
M TOR 35 4 3 2 6
M TOR 36 4 3 2 8
M TOR 37 4 5 6 16
M TOR 38 4 5 6 17
M TOR 39 4 5 7 8
M TOR 40 5 4 3 11
M TOR 41 5 4 3 12
M TOR 42 5 6 2 8
M TOR 43 5 7 8 18
M TOR 44 6 2 3 11
M TOR 45 6 2 3 12
M TOR 46 6 2 8 7
M TOR 47 6 2 8 18
M TOR 48 6 5 4 13
M TOR 49 6 5 4 14
M TOR 50 6 5 7 8
M TOR 51 7 5 4 13
M TOR 52 7 5 4 14
M TOR 53 7 5 6 16
M TOR 54 7 5 6 17
M TOR 55 7 8 0 9
M TOR 56 7 8 0 10
M TOR 57 8 2 3 11
M TOR 58 8 2 3 12
M TOR 59 8 2 6 16
M TOR 60 8 2 6 17
M TOR 61 8 7 5 15
M  END
$$$$
