gdb 4067	3.2910529	1.3824692	1.1725331	2.9085	75.05	-0.23853	0.06028	0.29881	1119.0982	0.155518	-422.4961	-422.48785	-422.486906	-422.528474	31.836
 OpenBabel02181911413D

 19 21  0  0  1  0  0  0  0  0999 V2000
    0.2673    0.4606    0.1454 C   0  0  0  0  0  0  0  0  0  0  0  0
    0.8650   -0.8489   -0.3287 C   0  0  1  0  0  0  0  0  0  0  0  0
    2.1256   -0.6355   -1.0386 O   0  0  0  0  0  0  0  0  0  0  0  0
    2.8478   -1.4255   -0.0876 C   0  0  2  0  0  0  0  0  0  0  0  0
    2.9654   -2.9483   -0.3941 C   0  0  2  0  0  0  0  0  0  0  0  0
    1.7360   -3.3655   -0.9971 O   0  0  0  0  0  0  0  0  0  0  0  0
    1.7630   -3.2305    0.4265 C   0  0  1  0  0  0  0  0  0  0  0  0
    1.3489   -4.3960    1.2635 C   0  0  0  0  0  0  0  0  0  0  0  0
    1.5793   -1.7155    0.7412 C   0  0  2  0  0  0  0  0  0  0  0  0
    0.9579    0.9948    0.8054 H   0  0  0  0  0  0  0  0  0  0  0  0
    0.0446    1.1058   -0.7100 H   0  0  0  0  0  0  0  0  0  0  0  0
   -0.6662    0.2780    0.6896 H   0  0  0  0  0  0  0  0  0  0  0  0
    0.1643   -1.4023   -0.9617 H   0  0  0  0  0  0  0  0  0  0  0  0
    3.7498   -0.9465    0.3022 H   0  0  0  0  0  0  0  0  0  0  0  0
    3.8462   -3.5425   -0.6153 H   0  0  0  0  0  0  0  0  0  0  0  0
    1.7746   -5.3210    0.8657 H   0  0  0  0  0  0  0  0  0  0  0  0
    1.6827   -4.2700    2.2985 H   0  0  0  0  0  0  0  0  0  0  0  0
    0.2576   -4.4987    1.2725 H   0  0  0  0  0  0  0  0  0  0  0  0
    1.4847   -1.4370    1.7900 H   0  0  0  0  0  0  0  0  0  0  0  0
  1 12  1  0  0  0  0
  1 10  1  0  0  0  0
  2 13  1  6  0  0  0
  2  1  1  0  0  0  0
  2  9  1  0  0  0  0
  3  2  1  0  0  0  0
  3  4  1  0  0  0  0
  4 14  1  1  0  0  0
  4  9  1  0  0  0  0
  5 15  1  1  0  0  0
  5  4  1  0  0  0  0
  5  7  1  0  0  0  0
  6  5  1  0  0  0  0
  6  7  1  0  0  0  0
  7  9  1  0  0  0  0
  7  8  1  1  0  0  0
  8 18  1  0  0  0  0
  8 17  1  0  0  0  0
  9 19  1  1  0  0  0
 11  1  1  0  0  0  0
 16  8  1  0  0  0  0
M TOR 0 0 1 2 3
M TOR 1 0 1 8 3
M TOR 2 0 1 8 6
M TOR 3 0 1 8 18
M TOR 4 1 2 3 4
M TOR 5 1 2 3 8
M TOR 6 1 2 3 13
M TOR 7 1 8 3 4
M TOR 8 1 8 3 13
M TOR 9 1 8 6 4
M TOR 10 1 8 6 5
M TOR 11 1 8 6 7
M TOR 12 2 1 0 9
M TOR 13 2 1 0 10
M TOR 14 2 1 0 11
M TOR 15 2 1 8 6
M TOR 16 2 1 8 18
M TOR 17 2 3 4 5
M TOR 18 2 3 4 6
M TOR 19 2 3 4 14
M TOR 20 2 3 8 6
M TOR 21 2 3 8 18
M TOR 22 3 2 1 12
M TOR 23 3 4 5 6
M TOR 24 3 4 6 7
M TOR 25 3 4 6 8
M TOR 26 3 8 1 12
M TOR 27 3 8 6 5
M TOR 28 3 8 6 7
M TOR 29 4 3 8 18
M TOR 30 4 5 6 7
M TOR 31 4 5 6 8
M TOR 32 4 6 7 15
M TOR 33 4 6 7 16
M TOR 34 4 6 7 17
M TOR 35 4 6 8 18
M TOR 36 5 4 3 8
M TOR 37 5 4 3 13
M TOR 38 5 6 4 14
M TOR 39 5 6 7 15
M TOR 40 5 6 7 16
M TOR 41 5 6 7 17
M TOR 42 5 6 8 18
M TOR 43 6 4 3 13
M TOR 44 6 8 1 12
M TOR 45 6 8 3 13
M TOR 46 7 6 4 14
M TOR 47 7 6 8 18
M TOR 48 8 1 0 9
M TOR 49 8 1 0 10
M TOR 50 8 1 0 11
M TOR 51 8 3 4 14
M TOR 52 8 6 4 14
M TOR 53 8 6 7 15
M TOR 54 8 6 7 16
M TOR 55 8 6 7 17
M  END
$$$$
