gdb 4471	3.698705	1.0016932	0.9035764	3.4205	77.69	-0.24912	-0.01951	0.22961	1326.06	0.156744	-422.565511	-422.557014	-422.55607	-422.598757	31.581
 OpenBabel02181911413D

 19 20  0  0  1  0  0  0  0  0999 V2000
    2.4065   -0.3280    1.0809 C   0  0  0  0  0  0  0  0  0  0  0  0
    1.4550   -0.0187   -0.0750 C   0  0  1  0  0  0  0  0  0  0  0  0
    1.3094    1.3926   -0.2872 O   0  0  0  0  0  0  0  0  0  0  0  0
    2.2487    1.8233   -1.2682 C   0  0  0  0  0  0  0  0  0  0  0  0
    2.4725    0.6219   -2.1677 C   0  0  2  0  0  0  0  0  0  0  0  0
    1.1972   -0.0726   -2.6331 C   0  0  1  0  0  0  0  0  0  0  0  0
    1.2783   -0.8988   -3.8560 C   0  0  0  0  0  0  0  0  0  0  0  0
    0.3898   -1.0343   -4.6600 O   0  0  0  0  0  0  0  0  0  0  0  0
    1.9627   -0.5563   -1.4064 C   0  0  2  0  0  0  0  0  0  0  0  0
    2.4437   -1.4055    1.2730 H   0  0  0  0  0  0  0  0  0  0  0  0
    3.4232    0.0139    0.8618 H   0  0  0  0  0  0  0  0  0  0  0  0
    2.0622    0.1723    1.9898 H   0  0  0  0  0  0  0  0  0  0  0  0
    0.4513   -0.3878    0.1664 H   0  0  0  0  0  0  0  0  0  0  0  0
    1.8156    2.6910   -1.7760 H   0  0  0  0  0  0  0  0  0  0  0  0
    3.2026    2.1312   -0.8121 H   0  0  0  0  0  0  0  0  0  0  0  0
    3.3582    0.5735   -2.7905 H   0  0  0  0  0  0  0  0  0  0  0  0
    0.2522    0.4370   -2.4748 H   0  0  0  0  0  0  0  0  0  0  0  0
    2.2611   -1.4131   -3.9927 H   0  0  0  0  0  0  0  0  0  0  0  0
    2.4510   -1.5235   -1.4390 H   0  0  0  0  0  0  0  0  0  0  0  0
  1 10  1  0  0  0  0
  1 12  1  0  0  0  0
  2 13  1  1  0  0  0
  2  1  1  0  0  0  0
  3  2  1  0  0  0  0
  4 15  1  0  0  0  0
  4  3  1  0  0  0  0
  5 16  1  6  0  0  0
  5  9  1  0  0  0  0
  5  4  1  0  0  0  0
  6 17  1  1  0  0  0
  6  5  1  0  0  0  0
  6  9  1  0  0  0  0
  7  6  1  0  0  0  0
  8  7  2  0  0  0  0
  9 19  1  6  0  0  0
  9  2  1  0  0  0  0
 11  1  1  0  0  0  0
 14  4  1  0  0  0  0
 18  7  1  0  0  0  0
M TOR 0 0 1 2 3
M TOR 1 0 1 8 4
M TOR 2 0 1 8 5
M TOR 3 0 1 8 18
M TOR 4 1 2 3 4
M TOR 5 1 2 3 13
M TOR 6 1 2 3 14
M TOR 7 1 8 4 3
M TOR 8 1 8 4 5
M TOR 9 1 8 4 15
M TOR 10 1 8 5 6
M TOR 11 1 8 5 16
M TOR 12 2 1 0 9
M TOR 13 2 1 0 10
M TOR 14 2 1 0 11
M TOR 15 2 1 8 4
M TOR 16 2 1 8 5
M TOR 17 2 1 8 18
M TOR 18 2 3 4 5
M TOR 19 2 3 4 8
M TOR 20 2 3 4 15
M TOR 21 3 2 1 8
M TOR 22 3 2 1 12
M TOR 23 3 4 5 6
M TOR 24 3 4 5 8
M TOR 25 3 4 5 16
M TOR 26 3 4 8 18
M TOR 27 4 5 6 7
M TOR 28 4 5 6 17
M TOR 29 4 5 8 18
M TOR 30 4 8 1 12
M TOR 31 4 8 5 6
M TOR 32 4 8 5 16
M TOR 33 5 4 3 13
M TOR 34 5 4 3 14
M TOR 35 5 8 1 12
M TOR 36 5 8 4 15
M TOR 37 6 5 4 15
M TOR 38 6 5 8 18
M TOR 39 7 6 5 8
M TOR 40 7 6 5 16
M TOR 41 8 1 0 9
M TOR 42 8 1 0 10
M TOR 43 8 1 0 11
M TOR 44 8 4 3 13
M TOR 45 8 4 3 14
M TOR 46 8 5 6 17
M  END
$$$$
