
     RDKit          3D

 19 20  0  0  0  0  0  0  0  0999 V2000
    1.4048    0.1064   -0.2976 C   0  0  0  0  0  0  0  0  0  0  0  0
    0.0699   -0.1696    0.0683 O   0  0  0  0  0  0  0  0  0  0  0  0
   -0.3952    0.5981    1.1476 C   0  0  0  0  0  0  0  0  0  0  0  0
   -1.9394    0.5144    1.3160 C   0  0  0  0  0  0  0  0  0  0  0  0
   -1.7166    0.1007    2.7829 C   0  0  0  0  0  0  0  0  0  0  0  0
   -2.4339   -0.0629    3.7309 O   0  0  0  0  0  0  0  0  0  0  0  0
   -0.2334    0.0185    2.5756 C   0  0  0  0  0  0  0  0  0  0  0  0
    0.8388    0.1845    3.6245 C   0  0  0  0  0  0  0  0  0  0  0  0
    0.6071   -1.1620    3.0193 C   0  0  0  0  0  0  0  0  0  0  0  0
    2.1186   -0.1219    0.5076 H   0  0  0  0  0  0  0  0  0  0  0  0
    1.6396   -0.5226   -1.1595 H   0  0  0  0  0  0  0  0  0  0  0  0
    1.5352    1.1621   -0.5814 H   0  0  0  0  0  0  0  0  0  0  0  0
   -0.0282    1.6315    1.0690 H   0  0  0  0  0  0  0  0  0  0  0  0
   -2.5183    1.4246    1.1456 H   0  0  0  0  0  0  0  0  0  0  0  0
   -2.3592   -0.2996    0.7171 H   0  0  0  0  0  0  0  0  0  0  0  0
    1.7286    0.7361    3.3385 H   0  0  0  0  0  0  0  0  0  0  0  0
    0.4953    0.3600    4.6390 H   0  0  0  0  0  0  0  0  0  0  0  0
    1.3219   -1.5482    2.3016 H   0  0  0  0  0  0  0  0  0  0  0  0
    0.1023   -1.9161    3.6137 H   0  0  0  0  0  0  0  0  0  0  0  0
  1  2  1  0
  2  3  1  0
  3  4  1  0
  4  5  1  0
  5  6  2  0
  5  7  1  0
  7  8  1  0
  8  9  1  0
  7  3  1  0
  9  7  1  0
  1 10  1  0
  1 11  1  0
  1 12  1  0
  3 13  1  0
  4 14  1  0
  4 15  1  0
  8 16  1  0
  8 17  1  0
  9 18  1  0
  9 19  1  0
M  END
$$$$
