gdb 1754	2.2735365	1.9642154	1.7053683	1.8866	73.48	-0.23524	0.08908	0.32432	935.0328	0.158889	-422.551427	-422.543984	-422.54304	-422.582984	29.27
 OpenBabel02181911403D

 19 21  0  0  1  0  0  0  0  0999 V2000
   -0.0632    0.0195   -0.1363 C   0  0  0  0  0  0  0  0  0  0  0  0
    1.4300    0.0524    0.0464 C   0  0  2  0  0  0  0  0  0  0  0  0
    2.2542   -0.9041    0.8840 C   0  0  2  0  0  0  0  0  0  0  0  0
    3.2026   -0.0722    1.7337 C   0  0  0  0  0  0  0  0  0  0  0  0
    2.9132    1.2987    1.4420 O   0  0  0  0  0  0  0  0  0  0  0  0
    2.2261    1.3679    0.1978 C   0  0  1  0  0  0  0  0  0  0  0  0
    3.2046    1.2960   -0.9809 C   0  0  0  0  0  0  0  0  0  0  0  0
    3.5385   -0.0925   -1.1037 O   0  0  0  0  0  0  0  0  0  0  0  0
    2.4410   -0.8302   -0.6209 C   0  0  2  0  0  0  0  0  0  0  0  0
   -0.5788    0.4583    0.7254 H   0  0  0  0  0  0  0  0  0  0  0  0
   -0.3716    0.5737   -1.0302 H   0  0  0  0  0  0  0  0  0  0  0  0
   -0.4209   -1.0089   -0.2481 H   0  0  0  0  0  0  0  0  0  0  0  0
    1.8064   -1.7973    1.3067 H   0  0  0  0  0  0  0  0  0  0  0  0
    3.0361   -0.2360    2.8038 H   0  0  0  0  0  0  0  0  0  0  0  0
    4.2530   -0.2939    1.5036 H   0  0  0  0  0  0  0  0  0  0  0  0
    1.6137    2.2730    0.1971 H   0  0  0  0  0  0  0  0  0  0  0  0
    2.7284    1.6569   -1.9061 H   0  0  0  0  0  0  0  0  0  0  0  0
    4.1228    1.8597   -0.7998 H   0  0  0  0  0  0  0  0  0  0  0  0
    2.1704   -1.6760   -1.2453 H   0  0  0  0  0  0  0  0  0  0  0  0
  1 10  1  0  0  0  0
  2  1  1  6  0  0  0
  2  6  1  0  0  0  0
  2  3  1  0  0  0  0
  3 13  1  1  0  0  0
  3  4  1  0  0  0  0
  4 14  1  0  0  0  0
  5  4  1  0  0  0  0
  6 16  1  6  0  0  0
  6  5  1  0  0  0  0
  7 18  1  0  0  0  0
  7  6  1  0  0  0  0
  8  7  1  0  0  0  0
  8  9  1  0  0  0  0
  9 19  1  6  0  0  0
  9  2  1  0  0  0  0
  9  3  1  0  0  0  0
 11  1  1  0  0  0  0
 12  1  1  0  0  0  0
 15  4  1  0  0  0  0
 17  7  1  0  0  0  0
M TOR 0 0 1 2 3
M TOR 1 0 1 2 8
M TOR 2 0 1 2 12
M TOR 3 0 1 5 4
M TOR 4 0 1 5 6
M TOR 5 0 1 5 15
M TOR 6 0 1 8 7
M TOR 7 0 1 8 18
M TOR 8 1 2 3 4
M TOR 9 1 2 3 13
M TOR 10 1 2 3 14
M TOR 11 1 2 8 7
M TOR 12 1 2 8 18
M TOR 13 1 5 4 3
M TOR 14 1 5 6 7
M TOR 15 1 5 6 16
M TOR 16 1 5 6 17
M TOR 17 1 8 2 3
M TOR 18 1 8 2 12
M TOR 19 1 8 7 6
M TOR 20 2 1 0 9
M TOR 21 2 1 0 10
M TOR 22 2 1 0 11
M TOR 23 2 1 5 4
M TOR 24 2 1 5 6
M TOR 25 2 1 5 15
M TOR 26 2 3 4 5
M TOR 27 2 8 1 5
M TOR 28 2 8 7 6
M TOR 29 3 2 1 5
M TOR 30 3 2 8 7
M TOR 31 3 2 8 18
M TOR 32 3 4 5 6
M TOR 33 3 4 5 15
M TOR 34 4 3 2 8
M TOR 35 4 3 2 12
M TOR 36 4 5 1 8
M TOR 37 4 5 6 7
M TOR 38 4 5 6 16
M TOR 39 4 5 6 17
M TOR 40 5 1 0 9
M TOR 41 5 1 0 10
M TOR 42 5 1 0 11
M TOR 43 5 1 2 12
M TOR 44 5 1 8 7
M TOR 45 5 1 8 18
M TOR 46 5 4 3 13
M TOR 47 5 4 3 14
M TOR 48 5 6 7 8
M TOR 49 6 5 1 8
M TOR 50 6 7 8 18
M TOR 51 7 6 5 15
M TOR 52 7 8 2 12
M TOR 53 8 1 0 9
M TOR 54 8 1 0 10
M TOR 55 8 1 0 11
M TOR 56 8 1 5 15
M TOR 57 8 2 3 13
M TOR 58 8 2 3 14
M TOR 59 8 7 6 16
M TOR 60 8 7 6 17
M  END
$$$$
