gdb 5056	2.2075902	1.507445	1.0649701	3.8348	77.31	-0.23363	-0.00584	0.22779	1186.6053	0.154638	-422.551014	-422.541407	-422.540463	-422.585869	34.693
 OpenBabel02181911413D

 19 20  0  0  1  0  0  0  0  0999 V2000
    2.1525    0.4273    1.1934 C   0  0  0  0  0  0  0  0  0  0  0  0
    1.7442    0.6418   -0.2712 C   0  0  0  0  0  0  0  0  0  0  0  0
    2.0466   -0.5473   -1.1408 C   0  0  1  0  0  0  0  0  0  0  0  0
    1.1425   -1.7962   -1.1803 C   0  0  0  0  0  0  0  0  0  0  0  0
    1.4247   -1.1348   -2.4714 C   0  0  1  0  0  0  0  0  0  0  0  0
    0.4909   -0.5999   -3.3280 O   0  0  0  0  0  0  0  0  0  0  0  0
    2.8050   -1.5305   -2.9920 C   0  0  0  0  0  0  0  0  0  0  0  0
    3.3857   -0.9157   -1.6896 C   0  0  0  0  0  0  0  0  0  0  0  0
    4.5071   -0.6469   -1.3516 O   0  0  0  0  0  0  0  0  0  0  0  0
    1.6118   -0.4162    1.6356 H   0  0  0  0  0  0  0  0  0  0  0  0
    3.2231    0.2148    1.2613 H   0  0  0  0  0  0  0  0  0  0  0  0
    1.9407    1.3173    1.7937 H   0  0  0  0  0  0  0  0  0  0  0  0
    0.6728    0.8731   -0.3354 H   0  0  0  0  0  0  0  0  0  0  0  0
    2.2729    1.5151   -0.6711 H   0  0  0  0  0  0  0  0  0  0  0  0
    1.5212   -2.7884   -0.9435 H   0  0  0  0  0  0  0  0  0  0  0  0
    0.1609   -1.5922   -0.7551 H   0  0  0  0  0  0  0  0  0  0  0  0
   -0.3889   -0.7361   -2.9638 H   0  0  0  0  0  0  0  0  0  0  0  0
    2.9860   -2.5893   -3.2024 H   0  0  0  0  0  0  0  0  0  0  0  0
    3.1139   -0.9290   -3.8521 H   0  0  0  0  0  0  0  0  0  0  0  0
  1 11  1  0  0  0  0
  1 10  1  0  0  0  0
  1 12  1  0  0  0  0
  2  1  1  0  0  0  0
  3  2  1  1  0  0  0
  4  3  1  0  0  0  0
  4 15  1  0  0  0  0
  4 16  1  0  0  0  0
  5  6  1  6  0  0  0
  5  4  1  0  0  0  0
  5  3  1  0  0  0  0
  6 17  1  0  0  0  0
  7  5  1  0  0  0  0
  7  8  1  0  0  0  0
  8  9  2  0  0  0  0
  8  3  1  0  0  0  0
 13  2  1  0  0  0  0
 14  2  1  0  0  0  0
 18  7  1  0  0  0  0
 19  7  1  0  0  0  0
M TOR 0 0 1 2 3
M TOR 1 0 1 2 4
M TOR 2 0 1 2 7
M TOR 3 1 2 3 4
M TOR 4 1 2 3 14
M TOR 5 1 2 3 15
M TOR 6 1 2 4 5
M TOR 7 1 2 4 6
M TOR 8 1 2 7 6
M TOR 9 1 2 7 8
M TOR 10 2 1 0 9
M TOR 11 2 1 0 10
M TOR 12 2 1 0 11
M TOR 13 2 3 4 5
M TOR 14 2 3 4 6
M TOR 15 2 4 3 14
M TOR 16 2 4 3 15
M TOR 17 2 4 5 16
M TOR 18 2 4 6 7
M TOR 19 2 4 6 17
M TOR 20 2 4 6 18
M TOR 21 2 7 6 17
M TOR 22 2 7 6 18
M TOR 23 3 2 1 12
M TOR 24 3 2 1 13
M TOR 25 3 2 7 6
M TOR 26 3 2 7 8
M TOR 27 3 4 2 7
M TOR 28 3 4 5 16
M TOR 29 3 4 6 7
M TOR 30 3 4 6 17
M TOR 31 3 4 6 18
M TOR 32 4 2 1 12
M TOR 33 4 2 1 13
M TOR 34 4 2 7 8
M TOR 35 4 6 7 8
M TOR 36 5 4 2 7
M TOR 37 5 4 3 14
M TOR 38 5 4 3 15
M TOR 39 5 4 6 7
M TOR 40 5 4 6 17
M TOR 41 5 4 6 18
M TOR 42 6 4 3 14
M TOR 43 6 4 3 15
M TOR 44 6 4 5 16
M TOR 45 7 2 1 12
M TOR 46 7 2 1 13
M TOR 47 7 2 3 14
M TOR 48 7 2 3 15
M TOR 49 8 7 6 17
M TOR 50 8 7 6 18
M  END
$$$$
