
     RDKit          3D

 19 20  0  0  0  0  0  0  0  0999 V2000
    1.5100   -0.0942    0.0729 C   0  0  0  0  0  0  0  0  0  0  0  0
    0.0977    0.0585   -0.0056 O   0  0  0  0  0  0  0  0  0  0  0  0
   -0.4388    0.7459    1.0578 C   0  0  0  0  0  0  0  0  0  0  0  0
   -0.6750    0.1137    2.4013 C   0  0  0  0  0  0  0  0  0  0  0  0
   -1.8487    0.6531    1.6109 C   0  0  0  0  0  0  0  0  0  0  0  0
   -1.9001    2.1756    1.7595 C   0  0  0  0  0  0  0  0  0  0  0  0
   -0.4449    2.2903    1.1669 C   0  0  0  0  0  0  0  0  0  0  0  0
   -0.4337    2.9529   -0.1856 C   0  0  0  0  0  0  0  0  0  0  0  0
    0.3832    3.7616   -0.5451 O   0  0  0  0  0  0  0  0  0  0  0  0
    1.8009   -0.6304    0.9859 H   0  0  0  0  0  0  0  0  0  0  0  0
    1.8134   -0.6742   -0.8008 H   0  0  0  0  0  0  0  0  0  0  0  0
    2.0212    0.8773    0.0519 H   0  0  0  0  0  0  0  0  0  0  0  0
   -0.5888   -0.9682    2.3896 H   0  0  0  0  0  0  0  0  0  0  0  0
   -0.3608    0.5897    3.3278 H   0  0  0  0  0  0  0  0  0  0  0  0
   -2.6682    0.0166    1.3030 H   0  0  0  0  0  0  0  0  0  0  0  0
   -2.6436    2.6521    1.1148 H   0  0  0  0  0  0  0  0  0  0  0  0
   -2.0186    2.5591    2.7769 H   0  0  0  0  0  0  0  0  0  0  0  0
    0.3255    2.7429    1.7963 H   0  0  0  0  0  0  0  0  0  0  0  0
   -1.2613    2.6313   -0.8593 H   0  0  0  0  0  0  0  0  0  0  0  0
  1  2  1  0
  2  3  1  0
  3  4  1  0
  4  5  1  0
  5  6  1  0
  6  7  1  0
  7  8  1  0
  8  9  2  0
  5  3  1  0
  7  3  1  0
  1 10  1  0
  1 11  1  0
  1 12  1  0
  4 13  1  0
  4 14  1  0
  5 15  1  0
  6 16  1  0
  6 17  1  0
  7 18  1  0
  8 19  1  0
M  END
$$$$
