gdb 3288	3.5579654	1.2439719	1.0398342	0.2376	73.95	-0.23529	0.07264	0.30793	1159.1598	0.157622	-422.533717	-422.525304	-422.52436	-422.568081	31.171
 OpenBabel02181911413D

 19 21  0  0  1  0  0  0  0  0999 V2000
    0.0813    0.0066    0.3239 O   0  0  0  0  0  0  0  0  0  0  0  0
   -0.9435    0.8188    0.8219 C   0  0  1  0  0  0  0  0  0  0  0  0
   -1.3030    0.8839    2.2777 C   0  0  2  0  0  0  0  0  0  0  0  0
   -2.7550    0.8935    2.7363 C   0  0  0  0  0  0  0  0  0  0  0  0
   -3.4009    2.2618    2.7412 C   0  0  1  0  0  0  0  0  0  0  0  0
   -2.7257    3.2839    3.4808 O   0  0  0  0  0  0  0  0  0  0  0  0
   -2.8116    3.4234    2.0592 C   0  0  1  0  0  0  0  0  0  0  0  0
   -1.5086    3.3507    1.2937 C   0  0  0  0  0  0  0  0  0  0  0  0
   -0.6874    2.0973    1.5652 C   0  0  2  0  0  0  0  0  0  0  0  0
    0.8076    0.0088    0.9553 H   0  0  0  0  0  0  0  0  0  0  0  0
   -1.7693    0.8218    0.1134 H   0  0  0  0  0  0  0  0  0  0  0  0
   -0.6193    0.3639    2.9435 H   0  0  0  0  0  0  0  0  0  0  0  0
   -3.3651    0.2280    2.1112 H   0  0  0  0  0  0  0  0  0  0  0  0
   -2.8195    0.4950    3.7552 H   0  0  0  0  0  0  0  0  0  0  0  0
   -4.4824    2.2530    2.8880 H   0  0  0  0  0  0  0  0  0  0  0  0
   -3.4855    4.2181    1.7343 H   0  0  0  0  0  0  0  0  0  0  0  0
   -1.7336    3.4442    0.2230 H   0  0  0  0  0  0  0  0  0  0  0  0
   -0.9211    4.2373    1.5581 H   0  0  0  0  0  0  0  0  0  0  0  0
    0.3535    2.2816    1.8177 H   0  0  0  0  0  0  0  0  0  0  0  0
  1  2  1  0  0  0  0
  1 10  1  0  0  0  0
  2 11  1  6  0  0  0
  2  9  1  0  0  0  0
  2  3  1  0  0  0  0
  3  4  1  0  0  0  0
  3 12  1  1  0  0  0
  4  5  1  0  0  0  0
  4 14  1  0  0  0  0
  5 15  1  1  0  0  0
  5  6  1  0  0  0  0
  7 16  1  6  0  0  0
  7  5  1  0  0  0  0
  7  6  1  0  0  0  0
  8 18  1  0  0  0  0
  8  9  1  0  0  0  0
  8  7  1  0  0  0  0
  9 19  1  1  0  0  0
  9  3  1  0  0  0  0
 13  4  1  0  0  0  0
 17  8  1  0  0  0  0
M TOR 0 0 1 2 3
M TOR 1 0 1 2 8
M TOR 2 0 1 2 11
M TOR 3 0 1 8 7
M TOR 4 0 1 8 18
M TOR 5 1 2 3 4
M TOR 6 1 2 3 12
M TOR 7 1 2 3 13
M TOR 8 1 2 8 7
M TOR 9 1 2 8 18
M TOR 10 1 8 2 3
M TOR 11 1 8 2 11
M TOR 12 1 8 7 6
M TOR 13 1 8 7 16
M TOR 14 1 8 7 17
M TOR 15 2 1 0 9
M TOR 16 2 3 4 5
M TOR 17 2 3 4 6
M TOR 18 2 3 4 14
M TOR 19 2 8 1 10
M TOR 20 2 8 7 6
M TOR 21 2 8 7 16
M TOR 22 2 8 7 17
M TOR 23 3 2 1 10
M TOR 24 3 2 8 7
M TOR 25 3 2 8 18
M TOR 26 3 4 5 6
M TOR 27 3 4 6 7
M TOR 28 3 4 6 15
M TOR 29 4 3 2 8
M TOR 30 4 3 2 11
M TOR 31 4 5 6 7
M TOR 32 4 5 6 15
M TOR 33 4 6 7 8
M TOR 34 4 6 7 16
M TOR 35 4 6 7 17
M TOR 36 5 4 3 12
M TOR 37 5 4 3 13
M TOR 38 5 6 4 14
M TOR 39 5 6 7 8
M TOR 40 5 6 7 16
M TOR 41 5 6 7 17
M TOR 42 6 4 3 12
M TOR 43 6 4 3 13
M TOR 44 6 7 8 18
M TOR 45 7 6 4 14
M TOR 46 7 8 1 10
M TOR 47 7 8 2 11
M TOR 48 8 1 0 9
M TOR 49 8 2 3 12
M TOR 50 8 2 3 13
M TOR 51 8 7 6 15
M  END
$$$$
