gdb 745	2.5094868	1.7772434	1.287136	3.2306	74.79	-0.23094	-0.01675	0.21419	1017.98	0.15924	-422.560493	-422.553019	-422.552075	-422.592337	29.486
 OpenBabel02181911403D

 19 20  0  0  1  0  0  0  0  0999 V2000
   -1.0349   -2.3355    0.6658 O   0  0  0  0  0  0  0  0  0  0  0  0
   -0.2839   -1.3984    0.8171 C   0  0  0  0  0  0  0  0  0  0  0  0
   -0.4824   -0.4635    2.0241 C   0  0  0  0  0  0  0  0  0  0  0  0
    0.6953    0.0718    2.5860 O   0  0  0  0  0  0  0  0  0  0  0  0
    1.3169    1.1222    1.8652 C   0  0  0  0  0  0  0  0  0  0  0  0
    1.8668    0.7089    0.4931 C   0  0  2  0  0  0  0  0  0  0  0  0
    0.7791    0.4432   -0.5823 C   0  0  0  0  0  0  0  0  0  0  0  0
    0.8017   -1.0697   -0.1857 C   0  0  1  0  0  0  0  0  0  0  0  0
    2.2153   -0.8055    0.4331 C   0  0  0  0  0  0  0  0  0  0  0  0
   -1.1785    0.3387    1.7198 H   0  0  0  0  0  0  0  0  0  0  0  0
   -0.9753   -1.0483    2.8041 H   0  0  0  0  0  0  0  0  0  0  0  0
    0.6224    1.9721    1.7520 H   0  0  0  0  0  0  0  0  0  0  0  0
    2.1404    1.4464    2.5094 H   0  0  0  0  0  0  0  0  0  0  0  0
    2.6539    1.4128    0.2078 H   0  0  0  0  0  0  0  0  0  0  0  0
   -0.1698    0.9821   -0.5020 H   0  0  0  0  0  0  0  0  0  0  0  0
    1.1697    0.5783   -1.5935 H   0  0  0  0  0  0  0  0  0  0  0  0
    0.7393   -1.8021   -0.9912 H   0  0  0  0  0  0  0  0  0  0  0  0
    2.4618   -1.3048    1.3708 H   0  0  0  0  0  0  0  0  0  0  0  0
    2.9913   -1.0149   -0.3067 H   0  0  0  0  0  0  0  0  0  0  0  0
  1  2  2  0  0  0  0
  2  3  1  0  0  0  0
  3  4  1  0  0  0  0
  3 11  1  0  0  0  0
  5 13  1  0  0  0  0
  5  4  1  0  0  0  0
  6 14  1  6  0  0  0
  6  5  1  0  0  0  0
  7 15  1  0  0  0  0
  7  8  1  0  0  0  0
  7  6  1  0  0  0  0
  8 17  1  6  0  0  0
  8  9  1  0  0  0  0
  8  2  1  0  0  0  0
  9  6  1  0  0  0  0
  9 18  1  0  0  0  0
 10  3  1  0  0  0  0
 12  5  1  0  0  0  0
 16  7  1  0  0  0  0
 19  9  1  0  0  0  0
M TOR 0 0 1 2 3
M TOR 1 0 1 2 9
M TOR 2 0 1 2 10
M TOR 3 0 1 7 6
M TOR 4 0 1 7 8
M TOR 5 0 1 7 16
M TOR 6 1 2 3 4
M TOR 7 1 7 6 5
M TOR 8 1 7 6 14
M TOR 9 1 7 6 15
M TOR 10 1 7 8 5
M TOR 11 1 7 8 17
M TOR 12 1 7 8 18
M TOR 13 2 1 7 6
M TOR 14 2 1 7 8
M TOR 15 2 1 7 16
M TOR 16 2 3 4 5
M TOR 17 2 3 4 11
M TOR 18 2 3 4 12
M TOR 19 3 2 1 7
M TOR 20 3 4 5 6
M TOR 21 3 4 5 8
M TOR 22 3 4 5 13
M TOR 23 4 3 2 9
M TOR 24 4 3 2 10
M TOR 25 4 5 6 7
M TOR 26 4 5 6 14
M TOR 27 4 5 6 15
M TOR 28 4 5 8 7
M TOR 29 4 5 8 17
M TOR 30 4 5 8 18
M TOR 31 5 6 7 8
M TOR 32 5 6 7 16
M TOR 33 5 8 7 16
M TOR 34 6 5 4 11
M TOR 35 6 5 4 12
M TOR 36 6 5 8 17
M TOR 37 6 5 8 18
M TOR 38 6 7 8 17
M TOR 39 6 7 8 18
M TOR 40 7 1 2 9
M TOR 41 7 1 2 10
M TOR 42 7 6 5 13
M TOR 43 7 8 5 13
M TOR 44 8 5 4 11
M TOR 45 8 5 4 12
M TOR 46 8 5 6 14
M TOR 47 8 5 6 15
M TOR 48 8 7 6 14
M TOR 49 8 7 6 15
M  END
$$$$
