
     RDKit          3D

 19 19  0  0  0  0  0  0  0  0999 V2000
    1.6075    0.6800   -0.0337 O   0  0  0  0  0  0  0  0  0  0  0  0
    0.2436    0.3648    0.1969 C   0  0  0  0  0  0  0  0  0  0  0  0
   -0.7082    1.2182   -0.6495 C   0  0  0  0  0  0  0  0  0  0  0  0
   -2.1550    0.8165   -0.4592 C   0  0  0  0  0  0  0  0  0  0  0  0
   -2.9572    1.3514    0.6824 C   0  0  0  0  0  0  0  0  0  0  0  0
   -2.3025    2.2214    1.5535 O   0  0  0  0  0  0  0  0  0  0  0  0
   -3.2748    1.8268   -0.7351 C   0  0  0  0  0  0  0  0  0  0  0  0
   -4.4854    1.4276   -1.3845 C   0  0  0  0  0  0  0  0  0  0  0  0
   -5.5064    1.0800   -1.9187 C   0  0  0  0  0  0  0  0  0  0  0  0
    1.7557    1.5778    0.2798 H   0  0  0  0  0  0  0  0  0  0  0  0
    0.1363   -0.6930   -0.0690 H   0  0  0  0  0  0  0  0  0  0  0  0
   -0.0217    0.4642    1.2599 H   0  0  0  0  0  0  0  0  0  0  0  0
   -0.5815    2.2705   -0.3713 H   0  0  0  0  0  0  0  0  0  0  0  0
   -0.4267    1.1233   -1.7044 H   0  0  0  0  0  0  0  0  0  0  0  0
   -2.3909   -0.2047   -0.7455 H   0  0  0  0  0  0  0  0  0  0  0  0
   -3.6889    0.6900    1.1438 H   0  0  0  0  0  0  0  0  0  0  0  0
   -2.9483    2.8485    1.8958 H   0  0  0  0  0  0  0  0  0  0  0  0
   -2.9253    2.8328   -0.9526 H   0  0  0  0  0  0  0  0  0  0  0  0
   -6.4049    0.7775   -2.3964 H   0  0  0  0  0  0  0  0  0  0  0  0
  1  2  1  0
  2  3  1  0
  3  4  1  0
  4  5  1  0
  5  6  1  0
  5  7  1  0
  7  8  1  0
  8  9  3  0
  7  4  1  0
  1 10  1  0
  2 11  1  0
  2 12  1  0
  3 13  1  0
  3 14  1  0
  4 15  1  0
  5 16  1  0
  6 17  1  0
  7 18  1  0
  9 19  1  0
M  END
$$$$
