
     RDKit          3D

 19 20  0  0  0  0  0  0  0  0999 V2000
    2.4306    4.4501   -2.8496 O   0  0  0  0  0  0  0  0  0  0  0  0
    2.9560    4.4045   -1.5560 C   0  0  0  0  0  0  0  0  0  0  0  0
    4.2823    3.7204   -1.3080 C   0  0  0  0  0  0  0  0  0  0  0  0
    2.9914    3.0599   -0.9044 C   0  0  0  0  0  0  0  0  0  0  0  0
    2.4552    2.7231    0.4887 C   0  0  0  0  0  0  0  0  0  0  0  0
    1.4963    1.6775   -0.1778 C   0  0  0  0  0  0  0  0  0  0  0  0
    2.3321    1.8131   -1.4971 C   0  0  0  0  0  0  0  0  0  0  0  0
    1.4716    0.3152    0.4519 C   0  0  0  0  0  0  0  0  0  0  0  0
    0.4834   -0.2832    0.7920 O   0  0  0  0  0  0  0  0  0  0  0  0
    2.9575    5.0680   -3.3668 H   0  0  0  0  0  0  0  0  0  0  0  0
    2.7056    5.2601   -0.9263 H   0  0  0  0  0  0  0  0  0  0  0  0
    4.7944    3.3127   -2.1746 H   0  0  0  0  0  0  0  0  0  0  0  0
    4.9340    4.1164   -0.5348 H   0  0  0  0  0  0  0  0  0  0  0  0
    3.2071    2.2435    1.1260 H   0  0  0  0  0  0  0  0  0  0  0  0
    1.9740    3.5230    1.0569 H   0  0  0  0  0  0  0  0  0  0  0  0
    0.4756    2.0473   -0.2844 H   0  0  0  0  0  0  0  0  0  0  0  0
    3.0316    0.9805   -1.6320 H   0  0  0  0  0  0  0  0  0  0  0  0
    1.7618    1.9531   -2.4163 H   0  0  0  0  0  0  0  0  0  0  0  0
    2.4878   -0.1301    0.5917 H   0  0  0  0  0  0  0  0  0  0  0  0
  1  2  1  0
  2  3  1  0
  3  4  1  0
  4  5  1  0
  5  6  1  0
  6  7  1  0
  6  8  1  0
  8  9  2  0
  4  2  1  0
  7  4  1  0
  1 10  1  0
  2 11  1  0
  3 12  1  0
  3 13  1  0
  5 14  1  0
  5 15  1  0
  6 16  1  0
  7 17  1  0
  7 18  1  0
  8 19  1  0
M  END
$$$$
