gdb 4490	3.4247125	1.4213891	1.2031884	1.0127	73.5	-0.24338	0.07698	0.32036000000000003	1068.4203	0.158001	-422.526541	-422.51896	-422.518016	-422.558415	29.671
 OpenBabel02181911413D

 19 21  0  0  1  0  0  0  0  0999 V2000
    0.3754    0.4733   -0.3961 C   0  0  0  0  0  0  0  0  0  0  0  0
    1.2602   -0.5003    0.3850 C   0  0  1  0  0  0  0  0  0  0  0  0
    1.8709   -1.4683   -0.4751 O   0  0  0  0  0  0  0  0  0  0  0  0
    3.0920   -0.9201   -0.9547 C   0  0  0  0  0  0  0  0  0  0  0  0
    3.6776   -0.0933    0.1921 C   0  0  2  0  0  0  0  0  0  0  0  0
    4.2612   -0.9199    1.3471 C   0  0  1  0  0  0  0  0  0  0  0  0
    4.3646   -0.0587    2.4850 O   0  0  0  0  0  0  0  0  0  0  0  0
    3.0942   -0.6525    2.2000 C   0  0  1  0  0  0  0  0  0  0  0  0
    2.4205    0.1955    1.1123 C   0  0  2  0  0  0  0  0  0  0  0  0
   -0.1637    1.1369    0.2879 H   0  0  0  0  0  0  0  0  0  0  0  0
    0.9671    1.0989   -1.0726 H   0  0  0  0  0  0  0  0  0  0  0  0
   -0.3559   -0.0801   -0.9914 H   0  0  0  0  0  0  0  0  0  0  0  0
    0.6360   -1.0748    1.0797 H   0  0  0  0  0  0  0  0  0  0  0  0
    3.7283   -1.7566   -1.2613 H   0  0  0  0  0  0  0  0  0  0  0  0
    2.9263   -0.2822   -1.8364 H   0  0  0  0  0  0  0  0  0  0  0  0
    4.2911    0.7464   -0.1392 H   0  0  0  0  0  0  0  0  0  0  0  0
    4.9279   -1.7739    1.3035 H   0  0  0  0  0  0  0  0  0  0  0  0
    2.6336   -1.2486    2.9799 H   0  0  0  0  0  0  0  0  0  0  0  0
    2.2041    1.2279    1.3931 H   0  0  0  0  0  0  0  0  0  0  0  0
  1 10  1  0  0  0  0
  1  2  1  0  0  0  0
  2 13  1  1  0  0  0
  2  9  1  0  0  0  0
  3  2  1  0  0  0  0
  4  3  1  0  0  0  0
  4  5  1  0  0  0  0
  5 16  1  6  0  0  0
  5  9  1  0  0  0  0
  5  6  1  0  0  0  0
  6 17  1  6  0  0  0
  6  8  1  0  0  0  0
  6  7  1  0  0  0  0
  8  7  1  0  0  0  0
  8 18  1  1  0  0  0
  9 19  1  1  0  0  0
  9  8  1  0  0  0  0
 11  1  1  0  0  0  0
 12  1  1  0  0  0  0
 14  4  1  0  0  0  0
 15  4  1  0  0  0  0
M TOR 0 0 1 2 3
M TOR 1 0 1 8 4
M TOR 2 0 1 8 7
M TOR 3 0 1 8 18
M TOR 4 1 2 3 4
M TOR 5 1 2 3 13
M TOR 6 1 2 3 14
M TOR 7 1 8 4 3
M TOR 8 1 8 4 5
M TOR 9 1 8 4 15
M TOR 10 1 8 7 5
M TOR 11 1 8 7 6
M TOR 12 1 8 7 17
M TOR 13 2 1 0 9
M TOR 14 2 1 0 10
M TOR 15 2 1 0 11
M TOR 16 2 1 8 4
M TOR 17 2 1 8 7
M TOR 18 2 1 8 18
M TOR 19 2 3 4 5
M TOR 20 2 3 4 8
M TOR 21 2 3 4 15
M TOR 22 3 2 1 8
M TOR 23 3 2 1 12
M TOR 24 3 4 5 6
M TOR 25 3 4 5 7
M TOR 26 3 4 5 16
M TOR 27 3 4 8 7
M TOR 28 3 4 8 18
M TOR 29 4 5 6 7
M TOR 30 4 5 7 8
M TOR 31 4 5 7 17
M TOR 32 4 8 1 12
M TOR 33 4 8 7 6
M TOR 34 4 8 7 17
M TOR 35 5 4 3 13
M TOR 36 5 4 3 14
M TOR 37 5 4 8 18
M TOR 38 5 6 7 8
M TOR 39 5 6 7 17
M TOR 40 5 7 8 18
M TOR 41 6 5 4 8
M TOR 42 6 5 4 15
M TOR 43 6 7 5 16
M TOR 44 6 7 8 18
M TOR 45 7 5 4 15
M TOR 46 7 8 1 12
M TOR 47 7 8 4 15
M TOR 48 8 1 0 9
M TOR 49 8 1 0 10
M TOR 50 8 1 0 11
M TOR 51 8 4 3 13
M TOR 52 8 4 3 14
M TOR 53 8 4 5 16
M TOR 54 8 7 5 16
M  END
$$$$
