
     RDKit          3D

 19 20  0  0  0  0  0  0  0  0999 V2000
    0.5562    0.3644    0.5400 O   0  0  0  0  0  0  0  0  0  0  0  0
   -0.7567    0.6534    1.0098 C   0  0  0  0  0  0  0  0  0  0  0  0
   -1.2245    2.0499    0.5801 C   0  0  0  0  0  0  0  0  0  0  0  0
   -1.5406    2.0844   -0.8965 C   0  0  0  0  0  0  0  0  0  0  0  0
   -1.8366    0.9928   -1.6049 C   0  0  0  0  0  0  0  0  0  0  0  0
   -1.8993   -0.3947   -1.0149 C   0  0  0  0  0  0  0  0  0  0  0  0
   -1.7502   -0.3790    0.4959 C   0  0  0  0  0  0  0  0  0  0  0  0
   -2.0888   -1.5523    1.3022 C   0  0  0  0  0  0  0  0  0  0  0  0
   -2.9724   -0.4242    1.2506 O   0  0  0  0  0  0  0  0  0  0  0  0
    0.6079    0.6709   -0.3727 H   0  0  0  0  0  0  0  0  0  0  0  0
   -0.7081    0.5910    2.1009 H   0  0  0  0  0  0  0  0  0  0  0  0
   -2.1121    2.3296    1.1631 H   0  0  0  0  0  0  0  0  0  0  0  0
   -0.4445    2.7792    0.8269 H   0  0  0  0  0  0  0  0  0  0  0  0
   -1.5260    3.0545   -1.3866 H   0  0  0  0  0  0  0  0  0  0  0  0
   -2.0486    1.0777   -2.6678 H   0  0  0  0  0  0  0  0  0  0  0  0
   -2.8518   -0.8750   -1.2680 H   0  0  0  0  0  0  0  0  0  0  0  0
   -1.1133   -1.0232   -1.4579 H   0  0  0  0  0  0  0  0  0  0  0  0
   -2.4599   -2.4536    0.8153 H   0  0  0  0  0  0  0  0  0  0  0  0
   -1.5894   -1.7146    2.2565 H   0  0  0  0  0  0  0  0  0  0  0  0
  1  2  1  0
  2  3  1  0
  3  4  1  0
  4  5  2  0
  5  6  1  0
  6  7  1  0
  7  8  1  0
  8  9  1  0
  7  2  1  0
  9  7  1  0
  1 10  1  0
  2 11  1  0
  3 12  1  0
  3 13  1  0
  4 14  1  0
  5 15  1  0
  6 16  1  0
  6 17  1  0
  8 18  1  0
  8 19  1  0
M  END
$$$$
