gdb 2971	2.2991753	1.5442375	1.1244449	2.3614	77.86	-0.24328	-0.024	0.21928	1145.9358	0.15488	-422.532303	-422.523178	-422.522234	-422.565888	33.53
 OpenBabel02181911413D

 19 20  0  0  1  0  0  0  0  0999 V2000
    4.5709   -0.4934    0.1539 C   0  0  0  0  0  0  0  0  0  0  0  0
    3.6557   -0.1693    1.3130 C   0  0  1  0  0  0  0  0  0  0  0  0
    2.6833    0.9454    1.3127 C   0  0  1  0  0  0  0  0  0  0  0  0
    2.1349    1.1964    0.0317 O   0  0  0  0  0  0  0  0  0  0  0  0
    1.5171   -0.1359   -0.0144 C   0  0  2  0  0  0  0  0  0  0  0  0
    0.0077   -0.0268   -0.0518 C   0  0  0  0  0  0  0  0  0  0  0  0
    2.1517   -0.5066    1.3290 C   0  0  1  0  0  0  0  0  0  0  0  0
    1.5562   -1.2758    2.4217 C   0  0  0  0  0  0  0  0  0  0  0  0
    0.5437   -1.9346    2.3426 O   0  0  0  0  0  0  0  0  0  0  0  0
    4.7248   -1.5723    0.0549 H   0  0  0  0  0  0  0  0  0  0  0  0
    4.1657   -0.1081   -0.7838 H   0  0  0  0  0  0  0  0  0  0  0  0
    5.5487   -0.0259    0.3087 H   0  0  0  0  0  0  0  0  0  0  0  0
    4.0849   -0.3401    2.3001 H   0  0  0  0  0  0  0  0  0  0  0  0
    2.6106    1.7292    2.0596 H   0  0  0  0  0  0  0  0  0  0  0  0
    1.8886   -0.7009   -0.8776 H   0  0  0  0  0  0  0  0  0  0  0  0
   -0.3624    0.5574    0.7948 H   0  0  0  0  0  0  0  0  0  0  0  0
   -0.2992    0.4670   -0.9786 H   0  0  0  0  0  0  0  0  0  0  0  0
   -0.4424   -1.0211   -0.0044 H   0  0  0  0  0  0  0  0  0  0  0  0
    2.1297   -1.2186    3.3768 H   0  0  0  0  0  0  0  0  0  0  0  0
  1 12  1  0  0  0  0
  1  2  1  0  0  0  0
  2  7  1  0  0  0  0
  2 13  1  1  0  0  0
  3  2  1  0  0  0  0
  3  7  1  0  0  0  0
  3 14  1  1  0  0  0
  4  3  1  0  0  0  0
  5 15  1  6  0  0  0
  5  4  1  0  0  0  0
  5  7  1  0  0  0  0
  6  5  1  0  0  0  0
  6 18  1  0  0  0  0
  6 16  1  0  0  0  0
  7  8  1  1  0  0  0
  8 19  1  0  0  0  0
  9  8  2  0  0  0  0
 10  1  1  0  0  0  0
 11  1  1  0  0  0  0
 17  6  1  0  0  0  0
M TOR 0 0 1 2 3
M TOR 1 0 1 2 6
M TOR 2 0 1 2 13
M TOR 3 0 1 6 4
M TOR 4 0 1 6 7
M TOR 5 1 2 3 4
M TOR 6 1 2 6 4
M TOR 7 1 2 6 7
M TOR 8 1 6 2 3
M TOR 9 1 6 2 13
M TOR 10 1 6 4 3
M TOR 11 1 6 4 5
M TOR 12 1 6 4 14
M TOR 13 1 6 7 8
M TOR 14 1 6 7 18
M TOR 15 2 1 0 9
M TOR 16 2 1 0 10
M TOR 17 2 1 0 11
M TOR 18 2 3 4 5
M TOR 19 2 3 4 6
M TOR 20 2 3 4 14
M TOR 21 2 6 1 12
M TOR 22 2 6 4 5
M TOR 23 2 6 4 14
M TOR 24 2 6 7 8
M TOR 25 2 6 7 18
M TOR 26 3 2 1 12
M TOR 27 3 2 6 7
M TOR 28 3 4 5 15
M TOR 29 3 4 5 16
M TOR 30 3 4 5 17
M TOR 31 3 4 6 7
M TOR 32 4 3 2 13
M TOR 33 4 6 1 12
M TOR 34 4 6 2 13
M TOR 35 4 6 7 8
M TOR 36 4 6 7 18
M TOR 37 5 4 6 7
M TOR 38 6 1 0 9
M TOR 39 6 1 0 10
M TOR 40 6 1 0 11
M TOR 41 6 4 5 15
M TOR 42 6 4 5 16
M TOR 43 6 4 5 17
M TOR 44 7 6 1 12
M TOR 45 7 6 2 13
M TOR 46 7 6 4 14
M  END
$$$$
