gdb 6080	2.8120051	0.8747634	0.73429	1.0444	78.9	-0.25317	0.02197	0.27514	1581.496	0.153305	-422.482662	-422.472453	-422.471509	-422.518699	35.763
 OpenBabel02181911423D

 19 19  0  0  1  0  0  0  0  0999 V2000
    1.4209   -0.1325   -0.0266 C   0  0  0  0  0  0  0  0  0  0  0  0
    0.0279    0.0659   -0.0146 O   0  0  0  0  0  0  0  0  0  0  0  0
   -0.4298    0.6558    1.1822 C   0  0  0  0  0  0  0  0  0  0  0  0
   -1.9445    0.8053    1.0792 C   0  0  0  0  0  0  0  0  0  0  0  0
   -2.5516    1.4258    2.3238 C   0  0  1  0  0  0  0  0  0  0  0  0
   -3.8419    0.9298    2.8473 C   0  0  0  0  0  0  0  0  0  0  0  0
   -2.6203    0.5482    3.4685 O   0  0  0  0  0  0  0  0  0  0  0  0
   -2.1639    2.7875    2.6190 C   0  0  0  0  0  0  0  0  0  0  0  0
   -1.8323    3.9231    2.8323 C   0  0  0  0  0  0  0  0  0  0  0  0
    1.7461   -0.8010    0.7864 H   0  0  0  0  0  0  0  0  0  0  0  0
    1.6784   -0.5909   -0.9846 H   0  0  0  0  0  0  0  0  0  0  0  0
    1.9706    0.8172    0.0723 H   0  0  0  0  0  0  0  0  0  0  0  0
   -0.1736    0.0273    2.0509 H   0  0  0  0  0  0  0  0  0  0  0  0
    0.0432    1.6393    1.3374 H   0  0  0  0  0  0  0  0  0  0  0  0
   -2.1869    1.4220    0.2069 H   0  0  0  0  0  0  0  0  0  0  0  0
   -2.3896   -0.1820    0.9243 H   0  0  0  0  0  0  0  0  0  0  0  0
   -4.4742    1.6004    3.4261 H   0  0  0  0  0  0  0  0  0  0  0  0
   -4.3615    0.1437    2.3005 H   0  0  0  0  0  0  0  0  0  0  0  0
   -1.5416    4.9250    3.0323 H   0  0  0  0  0  0  0  0  0  0  0  0
  1  2  1  0  0  0  0
  1 12  1  0  0  0  0
  1 10  1  0  0  0  0
  2  3  1  0  0  0  0
  3 14  1  0  0  0  0
  3 13  1  0  0  0  0
  4  3  1  0  0  0  0
  4  5  1  0  0  0  0
  5  8  1  1  0  0  0
  5  6  1  0  0  0  0
  5  7  1  0  0  0  0
  6 17  1  0  0  0  0
  6  7  1  0  0  0  0
  8  9  3  0  0  0  0
  9 19  1  0  0  0  0
 11  1  1  0  0  0  0
 15  4  1  0  0  0  0
 16  4  1  0  0  0  0
 18  6  1  0  0  0  0
M TOR 0 0 1 2 3
M TOR 1 0 1 2 12
M TOR 2 0 1 2 13
M TOR 3 1 2 3 4
M TOR 4 1 2 3 14
M TOR 5 1 2 3 15
M TOR 6 2 1 0 9
M TOR 7 2 1 0 10
M TOR 8 2 1 0 11
M TOR 9 2 3 4 5
M TOR 10 2 3 4 6
M TOR 11 2 3 4 7
M TOR 12 3 4 5 6
M TOR 13 3 4 5 16
M TOR 14 3 4 5 17
M TOR 15 3 4 7 8
M TOR 16 4 3 2 12
M TOR 17 4 3 2 13
M TOR 18 4 6 5 16
M TOR 19 4 6 5 17
M TOR 20 4 7 8 18
M TOR 21 5 4 3 14
M TOR 22 5 4 3 15
M TOR 23 5 4 7 8
M TOR 24 5 6 4 7
M TOR 25 6 4 3 14
M TOR 26 6 4 3 15
M TOR 27 6 4 7 8
M TOR 28 7 4 3 14
M TOR 29 7 4 3 15
M TOR 30 7 4 5 16
M TOR 31 7 4 5 17
M  END
$$$$
