
     RDKit          3D

 19 18  0  0  0  0  0  0  0  0999 V2000
    1.6821   -6.2870   -1.7276 C   0  0  0  0  0  0  0  0  0  0  0  0
    0.3035   -5.7646   -1.3670 C   0  0  0  0  0  0  0  0  0  0  0  0
   -0.6309   -6.5074   -1.1641 O   0  0  0  0  0  0  0  0  0  0  0  0
    0.1581   -4.2536   -1.2729 C   0  0  0  0  0  0  0  0  0  0  0  0
   -1.2512   -3.8131   -0.9112 C   0  0  0  0  0  0  0  0  0  0  0  0
   -1.2571   -2.3994   -0.8548 O   0  0  0  0  0  0  0  0  0  0  0  0
   -2.5305   -1.8825   -0.5230 C   0  0  0  0  0  0  0  0  0  0  0  0
   -2.4828   -0.4269   -0.4782 C   0  0  0  0  0  0  0  0  0  0  0  0
   -2.4719    0.7730   -0.4347 C   0  0  0  0  0  0  0  0  0  0  0  0
    1.6679   -7.3769   -1.7603 H   0  0  0  0  0  0  0  0  0  0  0  0
    1.9968   -5.8924   -2.7003 H   0  0  0  0  0  0  0  0  0  0  0  0
    2.4230   -5.9485   -0.9946 H   0  0  0  0  0  0  0  0  0  0  0  0
    0.8737   -3.8702   -0.5339 H   0  0  0  0  0  0  0  0  0  0  0  0
    0.4599   -3.8042   -2.2278 H   0  0  0  0  0  0  0  0  0  0  0  0
   -1.9706   -4.1796   -1.6596 H   0  0  0  0  0  0  0  0  0  0  0  0
   -1.5513   -4.2463    0.0552 H   0  0  0  0  0  0  0  0  0  0  0  0
   -3.2835   -2.2065   -1.2621 H   0  0  0  0  0  0  0  0  0  0  0  0
   -2.8634   -2.2731    0.4541 H   0  0  0  0  0  0  0  0  0  0  0  0
   -2.4569    1.8341   -0.3985 H   0  0  0  0  0  0  0  0  0  0  0  0
  1  2  1  0
  2  3  2  0
  2  4  1  0
  4  5  1  0
  5  6  1  0
  6  7  1  0
  7  8  1  0
  8  9  3  0
  1 10  1  0
  1 11  1  0
  1 12  1  0
  4 13  1  0
  4 14  1  0
  5 15  1  0
  5 16  1  0
  7 17  1  0
  7 18  1  0
  9 19  1  0
M  END
$$$$
