gdb 1598	3.1488045	1.292357	1.1542081	1.496	75.29	-0.24029	0.07843	0.31872	1132.759	0.156809	-422.497337	-422.489199	-422.488255	-422.529874	31.73
 OpenBabel02181911403D

 19 21  0  0  1  0  0  0  0  0999 V2000
    4.6244   -0.9480   -1.0972 O   0  0  0  0  0  0  0  0  0  0  0  0
    3.2866   -0.5715   -0.9114 C   0  0  2  0  0  0  0  0  0  0  0  0
    2.3305   -1.6395   -1.3508 C   0  0  2  0  0  0  0  0  0  0  0  0
    2.6877   -3.0601   -1.2633 C   0  0  0  0  0  0  0  0  0  0  0  0
    2.7664   -2.3627   -2.5169 O   0  0  0  0  0  0  0  0  0  0  0  0
    3.0425    0.9118   -1.1040 C   0  0  1  0  0  0  0  0  0  0  0  0
    1.5815    1.3023   -0.8603 C   0  0  0  0  0  0  0  0  0  0  0  0
    1.6608    0.6582    0.5659 C   0  0  0  0  0  0  0  0  0  0  0  0
    3.1249    0.2862    0.3046 C   0  0  1  0  0  0  0  0  0  0  0  0
    4.6699   -1.2978   -1.9977 H   0  0  0  0  0  0  0  0  0  0  0  0
    1.2754   -1.3772   -1.3660 H   0  0  0  0  0  0  0  0  0  0  0  0
    3.6458   -3.3365   -0.8307 H   0  0  0  0  0  0  0  0  0  0  0  0
    1.9017   -3.8106   -1.2036 H   0  0  0  0  0  0  0  0  0  0  0  0
    3.7884    1.4990   -1.6253 H   0  0  0  0  0  0  0  0  0  0  0  0
    1.4419    2.3842   -0.8082 H   0  0  0  0  0  0  0  0  0  0  0  0
    0.8387    0.8995   -1.5566 H   0  0  0  0  0  0  0  0  0  0  0  0
    1.5580    1.4052    1.3553 H   0  0  0  0  0  0  0  0  0  0  0  0
    0.9746   -0.1659    0.7862 H   0  0  0  0  0  0  0  0  0  0  0  0
    3.9348    0.3310    1.0227 H   0  0  0  0  0  0  0  0  0  0  0  0
  2  1  1  6  0  0  0
  2  9  1  0  0  0  0
  3 11  1  1  0  0  0
  3  4  1  0  0  0  0
  3  2  1  0  0  0  0
  4 13  1  0  0  0  0
  4 12  1  0  0  0  0
  5  3  1  0  0  0  0
  5  4  1  0  0  0  0
  6 14  1  6  0  0  0
  6  2  1  0  0  0  0
  6  7  1  0  0  0  0
  6  9  1  0  0  0  0
  7 15  1  0  0  0  0
  7  8  1  0  0  0  0
  8 18  1  0  0  0  0
  8 17  1  0  0  0  0
  9  8  1  0  0  0  0
  9 19  1  1  0  0  0
 10  1  1  0  0  0  0
 16  7  1  0  0  0  0
M TOR 0 0 1 2 3
M TOR 1 0 1 2 4
M TOR 2 0 1 2 10
M TOR 3 0 1 5 6
M TOR 4 0 1 5 8
M TOR 5 0 1 5 13
M TOR 6 0 1 8 7
M TOR 7 0 1 8 18
M TOR 8 1 2 3 4
M TOR 9 1 2 3 11
M TOR 10 1 2 3 12
M TOR 11 1 5 6 7
M TOR 12 1 5 6 14
M TOR 13 1 5 6 15
M TOR 14 1 5 8 7
M TOR 15 1 5 8 18
M TOR 16 1 8 5 6
M TOR 17 1 8 5 13
M TOR 18 1 8 7 6
M TOR 19 1 8 7 16
M TOR 20 1 8 7 17
M TOR 21 2 1 0 9
M TOR 22 2 1 5 6
M TOR 23 2 1 5 8
M TOR 24 2 1 5 13
M TOR 25 2 1 8 7
M TOR 26 2 1 8 18
M TOR 27 2 4 3 11
M TOR 28 2 4 3 12
M TOR 29 3 2 1 5
M TOR 30 3 2 1 8
M TOR 31 3 4 2 10
M TOR 32 4 2 1 5
M TOR 33 4 2 1 8
M TOR 34 5 1 0 9
M TOR 35 5 1 2 10
M TOR 36 5 6 7 8
M TOR 37 5 6 7 16
M TOR 38 5 6 7 17
M TOR 39 5 8 7 16
M TOR 40 5 8 7 17
M TOR 41 6 5 8 18
M TOR 42 6 7 8 18
M TOR 43 7 6 5 13
M TOR 44 7 8 5 13
M TOR 45 8 1 0 9
M TOR 46 8 1 2 10
M TOR 47 8 5 6 14
M TOR 48 8 5 6 15
M TOR 49 8 7 6 14
M TOR 50 8 7 6 15
M  END
$$$$
