
     RDKit          3D

 19 21  0  0  0  0  0  0  0  0999 V2000
    0.0552    2.1974   -1.4915 C   0  0  0  0  0  0  0  0  0  0  0  0
    0.2124    0.6783   -1.6363 C   0  0  0  0  0  0  0  0  0  0  0  0
   -1.0016   -0.0918   -1.0297 C   0  0  0  0  0  0  0  0  0  0  0  0
   -0.5122   -1.0771    0.0282 C   0  0  0  0  0  0  0  0  0  0  0  0
    0.4171   -1.9819   -0.5569 O   0  0  0  0  0  0  0  0  0  0  0  0
    1.6272   -1.2577   -0.5724 C   0  0  0  0  0  0  0  0  0  0  0  0
    1.4888   -0.1965    0.4782 C   0  0  0  0  0  0  0  0  0  0  0  0
    0.2040   -0.3680    1.0361 O   0  0  0  0  0  0  0  0  0  0  0  0
    1.5072    0.1975   -0.9881 C   0  0  0  0  0  0  0  0  0  0  0  0
   -0.0009    2.4798   -0.4349 H   0  0  0  0  0  0  0  0  0  0  0  0
    0.9005    2.7304   -1.9402 H   0  0  0  0  0  0  0  0  0  0  0  0
   -0.8601    2.5439   -1.9833 H   0  0  0  0  0  0  0  0  0  0  0  0
    0.2734    0.4433   -2.7053 H   0  0  0  0  0  0  0  0  0  0  0  0
   -1.7057    0.6014   -0.5578 H   0  0  0  0  0  0  0  0  0  0  0  0
   -1.5479   -0.6437   -1.8002 H   0  0  0  0  0  0  0  0  0  0  0  0
   -1.3131   -1.6498    0.5008 H   0  0  0  0  0  0  0  0  0  0  0  0
    2.4943   -1.8766   -0.7600 H   0  0  0  0  0  0  0  0  0  0  0  0
    2.2351    0.0985    1.2036 H   0  0  0  0  0  0  0  0  0  0  0  0
    2.4216    0.6665   -1.3418 H   0  0  0  0  0  0  0  0  0  0  0  0
  1  2  1  0
  2  3  1  0
  3  4  1  0
  4  5  1  0
  5  6  1  0
  6  7  1  0
  7  8  1  0
  7  9  1  0
  9  2  1  0
  8  4  1  0
  9  6  1  0
  1 10  1  0
  1 11  1  0
  1 12  1  0
  2 13  1  0
  3 14  1  0
  3 15  1  0
  4 16  1  0
  6 17  1  0
  7 18  1  0
  9 19  1  0
M  END
$$$$
