
     RDKit          3D

 19 21  0  0  0  0  0  0  0  0999 V2000
    2.4055   -0.4546   -1.2897 C   0  0  0  0  0  0  0  0  0  0  0  0
    1.7247   -0.0938    0.0124 C   0  0  0  0  0  0  0  0  0  0  0  0
    2.1337    1.1797    0.6858 C   0  0  0  0  0  0  0  0  0  0  0  0
    1.2740    1.4747    1.8012 O   0  0  0  0  0  0  0  0  0  0  0  0
    1.7324    0.2667    2.4527 C   0  0  0  0  0  0  0  0  0  0  0  0
    0.8616   -0.4428    3.4425 C   0  0  0  0  0  0  0  0  0  0  0  0
    2.0519    0.3953    3.9048 C   0  0  0  0  0  0  0  0  0  0  0  0
    1.8355    1.6363    4.4956 O   0  0  0  0  0  0  0  0  0  0  0  0
    2.5749   -0.1416    1.2748 C   0  0  0  0  0  0  0  0  0  0  0  0
    2.4308   -1.5396   -1.4348 H   0  0  0  0  0  0  0  0  0  0  0  0
    1.8827   -0.0116   -2.1436 H   0  0  0  0  0  0  0  0  0  0  0  0
    3.4403   -0.0952   -1.3095 H   0  0  0  0  0  0  0  0  0  0  0  0
    0.6774   -0.3770    0.0960 H   0  0  0  0  0  0  0  0  0  0  0  0
    2.6718    2.0029    0.2307 H   0  0  0  0  0  0  0  0  0  0  0  0
   -0.1229   -0.0201    3.6145 H   0  0  0  0  0  0  0  0  0  0  0  0
    0.9261   -1.5241    3.5128 H   0  0  0  0  0  0  0  0  0  0  0  0
    2.9170   -0.1283    4.3056 H   0  0  0  0  0  0  0  0  0  0  0  0
    1.6748    2.2543    3.7679 H   0  0  0  0  0  0  0  0  0  0  0  0
    3.5515   -0.6053    1.3197 H   0  0  0  0  0  0  0  0  0  0  0  0
  1  2  1  0
  2  3  1  0
  3  4  1  0
  4  5  1  0
  5  6  1  0
  6  7  1  0
  7  8  1  0
  5  9  1  0
  9  2  1  0
  9  3  1  0
  7  5  1  0
  1 10  1  0
  1 11  1  0
  1 12  1  0
  2 13  1  0
  3 14  1  0
  6 15  1  0
  6 16  1  0
  7 17  1  0
  8 18  1  0
  9 19  1  0
M  END
$$$$
