
     RDKit          3D

 19 20  0  0  0  0  0  0  0  0999 V2000
    1.1095   -0.1465   -0.0515 O   0  0  0  0  0  0  0  0  0  0  0  0
    0.0427    0.7838    0.1175 C   0  0  0  0  0  0  0  0  0  0  0  0
   -1.2159    0.3219   -0.5521 C   0  0  0  0  0  0  0  0  0  0  0  0
   -1.8877    1.0068   -1.4817 C   0  0  0  0  0  0  0  0  0  0  0  0
   -3.1460    0.4078   -2.0746 C   0  0  0  0  0  0  0  0  0  0  0  0
   -3.4031   -0.9574   -1.4175 C   0  0  0  0  0  0  0  0  0  0  0  0
   -3.3009   -0.8902    0.1230 C   0  0  0  0  0  0  0  0  0  0  0  0
   -1.7969   -1.0408   -0.2029 C   0  0  0  0  0  0  0  0  0  0  0  0
   -2.1609   -1.7192   -1.4465 O   0  0  0  0  0  0  0  0  0  0  0  0
    1.2059   -0.2992   -0.9978 H   0  0  0  0  0  0  0  0  0  0  0  0
   -0.0958    0.8565    1.2039 H   0  0  0  0  0  0  0  0  0  0  0  0
    0.3151    1.7875   -0.2438 H   0  0  0  0  0  0  0  0  0  0  0  0
   -1.5534    1.9817   -1.8289 H   0  0  0  0  0  0  0  0  0  0  0  0
   -4.0070    1.0740   -1.9255 H   0  0  0  0  0  0  0  0  0  0  0  0
   -3.0355    0.2837   -3.1600 H   0  0  0  0  0  0  0  0  0  0  0  0
   -4.2345   -1.5013   -1.8735 H   0  0  0  0  0  0  0  0  0  0  0  0
   -3.6334    0.0108    0.6422 H   0  0  0  0  0  0  0  0  0  0  0  0
   -3.7145   -1.7862    0.5889 H   0  0  0  0  0  0  0  0  0  0  0  0
   -1.1456   -1.6474    0.4275 H   0  0  0  0  0  0  0  0  0  0  0  0
  1  2  1  0
  2  3  1  0
  3  4  2  0
  4  5  1  0
  5  6  1  0
  6  7  1  0
  7  8  1  0
  8  9  1  0
  8  3  1  0
  9  6  1  0
  1 10  1  0
  2 11  1  0
  2 12  1  0
  4 13  1  0
  5 14  1  0
  5 15  1  0
  6 16  1  0
  7 17  1  0
  7 18  1  0
  8 19  1  0
M  END
$$$$
