gdb 3021	2.8665976	1.4457389	1.1720184	1.5654	77.18	-0.23349	0.00764	0.24113	1123.1537	0.155641	-422.5341	-422.525457	-422.524513	-422.566757	33.476
 OpenBabel02181911413D

 19 20  0  0  1  0  0  0  0  0999 V2000
    1.6069    1.0023    0.1663 C   0  0  0  0  0  0  0  0  0  0  0  0
    0.2419    0.4174    0.2704 C   0  0  0  0  0  0  0  0  0  0  0  0
   -0.9837    0.9437    0.1394 C   0  0  0  0  0  0  0  0  0  0  0  0
   -1.8941   -0.2412    0.4407 C   0  0  1  0  0  0  0  0  0  0  0  0
   -3.3811   -0.1868    0.2545 C   0  0  0  0  0  0  0  0  0  0  0  0
   -1.2060   -1.3440   -0.2827 O   0  0  0  0  0  0  0  0  0  0  0  0
   -0.1029   -1.0280    0.6321 C   0  0  2  0  0  0  0  0  0  0  0  0
   -1.1941   -0.8181    1.7417 C   0  0  2  0  0  0  0  0  0  0  0  0
   -1.7633   -1.9734    2.2641 O   0  0  0  0  0  0  0  0  0  0  0  0
    2.1677    0.8777    1.1012 H   0  0  0  0  0  0  0  0  0  0  0  0
    2.1938    0.5080   -0.6180 H   0  0  0  0  0  0  0  0  0  0  0  0
    1.5665    2.0709   -0.0622 H   0  0  0  0  0  0  0  0  0  0  0  0
   -1.2896    1.9579   -0.0767 H   0  0  0  0  0  0  0  0  0  0  0  0
   -3.7942    0.6976    0.7496 H   0  0  0  0  0  0  0  0  0  0  0  0
   -3.6336   -0.1363   -0.8090 H   0  0  0  0  0  0  0  0  0  0  0  0
   -3.8553   -1.0729    0.6858 H   0  0  0  0  0  0  0  0  0  0  0  0
    0.6729   -1.7918    0.6890 H   0  0  0  0  0  0  0  0  0  0  0  0
   -0.9832   -0.1326    2.5650 H   0  0  0  0  0  0  0  0  0  0  0  0
   -1.9089   -2.5565    1.5053 H   0  0  0  0  0  0  0  0  0  0  0  0
  1  2  1  0  0  0  0
  1 10  1  0  0  0  0
  2  7  1  0  0  0  0
  3  2  2  0  0  0  0
  3  4  1  0  0  0  0
  4  5  1  6  0  0  0
  4  8  1  0  0  0  0
  5 16  1  0  0  0  0
  5 14  1  0  0  0  0
  6  4  1  0  0  0  0
  6  7  1  0  0  0  0
  7 17  1  1  0  0  0
  7  8  1  0  0  0  0
  8  9  1  0  0  0  0
  8 18  1  1  0  0  0
 11  1  1  0  0  0  0
 12  1  1  0  0  0  0
 13  3  1  0  0  0  0
 15  5  1  0  0  0  0
 19  9  1  0  0  0  0
M TOR 0 0 1 2 3
M TOR 1 0 1 2 12
M TOR 2 0 1 6 5
M TOR 3 0 1 6 7
M TOR 4 0 1 6 16
M TOR 5 1 2 3 4
M TOR 6 1 2 3 5
M TOR 7 1 2 3 7
M TOR 8 1 6 5 3
M TOR 9 1 6 7 3
M TOR 10 1 6 7 8
M TOR 11 1 6 7 17
M TOR 12 2 1 0 9
M TOR 13 2 1 0 10
M TOR 14 2 1 0 11
M TOR 15 2 1 6 5
M TOR 16 2 1 6 7
M TOR 17 2 1 6 16
M TOR 18 2 3 4 13
M TOR 19 2 3 4 14
M TOR 20 2 3 4 15
M TOR 21 2 3 5 6
M TOR 22 2 3 7 6
M TOR 23 2 3 7 8
M TOR 24 2 3 7 17
M TOR 25 3 2 1 6
M TOR 26 3 5 6 7
M TOR 27 3 5 6 16
M TOR 28 3 7 6 16
M TOR 29 3 7 8 18
M TOR 30 4 3 2 12
M TOR 31 4 3 5 6
M TOR 32 4 3 7 6
M TOR 33 4 3 7 8
M TOR 34 4 3 7 17
M TOR 35 5 3 2 12
M TOR 36 5 3 4 13
M TOR 37 5 3 4 14
M TOR 38 5 3 4 15
M TOR 39 5 3 7 8
M TOR 40 5 3 7 17
M TOR 41 5 6 7 8
M TOR 42 5 6 7 17
M TOR 43 6 1 0 9
M TOR 44 6 1 0 10
M TOR 45 6 1 0 11
M TOR 46 6 1 2 12
M TOR 47 6 7 8 18
M TOR 48 7 3 2 12
M TOR 49 7 3 4 13
M TOR 50 7 3 4 14
M TOR 51 7 3 4 15
M TOR 52 8 7 6 16
M  END
$$$$
