gdb 4265	2.0867428	1.6334936	1.269592	1.1064	75.9	-0.25198	-0.03605	0.21592999999999998	1089.4624	0.155937	-422.532252	-422.523567	-422.522623	-422.565989	31.887
 OpenBabel02181911413D

 19 20  0  0  1  0  0  0  0  0999 V2000
    0.7222   -0.2779   -0.9772 C   0  0  0  0  0  0  0  0  0  0  0  0
    0.9197    0.3856    0.3778 C   0  0  2  0  0  0  0  0  0  0  0  0
    1.8741    1.6214    0.4685 C   0  0  0  0  0  0  0  0  0  0  0  0
    2.6900    0.9203    1.5734 C   0  0  2  0  0  0  0  0  0  0  0  0
    3.8173    0.1837    1.0756 O   0  0  0  0  0  0  0  0  0  0  0  0
    3.0561   -1.0415    1.0291 C   0  0  0  0  0  0  0  0  0  0  0  0
    1.7522   -0.3480    1.4703 C   0  0  2  0  0  0  0  0  0  0  0  0
    1.0365   -0.8974    2.6589 C   0  0  0  0  0  0  0  0  0  0  0  0
   -0.1443   -0.7680    2.8729 O   0  0  0  0  0  0  0  0  0  0  0  0
    0.1624   -1.2148   -0.8839 H   0  0  0  0  0  0  0  0  0  0  0  0
    0.1568    0.3817   -1.6441 H   0  0  0  0  0  0  0  0  0  0  0  0
    1.6753   -0.4979   -1.4695 H   0  0  0  0  0  0  0  0  0  0  0  0
   -0.0543    0.6177    0.8160 H   0  0  0  0  0  0  0  0  0  0  0  0
    2.4766    1.8168   -0.4220 H   0  0  0  0  0  0  0  0  0  0  0  0
    1.3855    2.5474    0.7812 H   0  0  0  0  0  0  0  0  0  0  0  0
    2.9097    1.4550    2.5013 H   0  0  0  0  0  0  0  0  0  0  0  0
    3.0592   -1.5033    0.0360 H   0  0  0  0  0  0  0  0  0  0  0  0
    3.4314   -1.7697    1.7617 H   0  0  0  0  0  0  0  0  0  0  0  0
    1.6919   -1.4336    3.3847 H   0  0  0  0  0  0  0  0  0  0  0  0
  1 10  1  0  0  0  0
  1  2  1  0  0  0  0
  2  3  1  0  0  0  0
  2 13  1  1  0  0  0
  2  7  1  0  0  0  0
  3 15  1  0  0  0  0
  3  4  1  0  0  0  0
  4 16  1  1  0  0  0
  5  4  1  0  0  0  0
  6  5  1  0  0  0  0
  6  7  1  0  0  0  0
  6 18  1  0  0  0  0
  7  4  1  0  0  0  0
  7  8  1  1  0  0  0
  8  9  2  0  0  0  0
  8 19  1  0  0  0  0
 11  1  1  0  0  0  0
 12  1  1  0  0  0  0
 14  3  1  0  0  0  0
 17  6  1  0  0  0  0
M TOR 0 0 1 2 3
M TOR 1 0 1 2 13
M TOR 2 0 1 2 14
M TOR 3 0 1 6 3
M TOR 4 0 1 6 5
M TOR 5 0 1 6 7
M TOR 6 1 2 3 4
M TOR 7 1 2 3 6
M TOR 8 1 2 3 15
M TOR 9 1 6 3 4
M TOR 10 1 6 3 15
M TOR 11 1 6 5 4
M TOR 12 1 6 5 16
M TOR 13 1 6 5 17
M TOR 14 1 6 7 8
M TOR 15 1 6 7 18
M TOR 16 2 1 0 9
M TOR 17 2 1 0 10
M TOR 18 2 1 0 11
M TOR 19 2 1 6 5
M TOR 20 2 1 6 7
M TOR 21 2 3 4 5
M TOR 22 2 3 6 5
M TOR 23 2 3 6 7
M TOR 24 3 2 1 12
M TOR 25 3 4 5 6
M TOR 26 3 4 5 16
M TOR 27 3 4 5 17
M TOR 28 3 6 1 12
M TOR 29 3 6 5 16
M TOR 30 3 6 5 17
M TOR 31 3 6 7 8
M TOR 32 3 6 7 18
M TOR 33 4 3 2 13
M TOR 34 4 3 2 14
M TOR 35 4 3 6 7
M TOR 36 4 5 6 7
M TOR 37 5 4 3 15
M TOR 38 5 6 1 12
M TOR 39 5 6 3 15
M TOR 40 5 6 7 8
M TOR 41 5 6 7 18
M TOR 42 6 1 0 9
M TOR 43 6 1 0 10
M TOR 44 6 1 0 11
M TOR 45 6 1 2 13
M TOR 46 6 1 2 14
M TOR 47 6 3 2 13
M TOR 48 6 3 2 14
M TOR 49 7 6 1 12
M TOR 50 7 6 3 15
M TOR 51 7 6 5 16
M TOR 52 7 6 5 17
M  END
$$$$
