gdb 1218	2.5402404	1.2004679	1.0354432	2.9841	77.18	-0.26055	0.04551	0.30606	1248.6864	0.153634	-422.505884	-422.496051	-422.495107	-422.540386	36.535
 OpenBabel02181911403D

 19 19  0  0  1  0  0  0  0  0999 V2000
    2.2342    2.3190   -2.2529 C   0  0  0  0  0  0  0  0  0  0  0  0
    1.9369    0.8382   -1.9831 C   0  0  1  0  0  0  0  0  0  0  0  0
    1.7360    0.2402   -3.2588 O   0  0  0  0  0  0  0  0  0  0  0  0
    3.1410    0.1627   -1.2726 C   0  0  0  0  0  0  0  0  0  0  0  0
    2.8702   -1.2724   -0.8824 C   0  0  2  0  0  0  0  0  0  0  0  0
    3.7658   -2.3696   -1.2685 C   0  0  0  0  0  0  0  0  0  0  0  0
    2.5294   -2.1696   -1.9600 O   0  0  0  0  0  0  0  0  0  0  0  0
    0.7239    0.7166   -1.1492 C   0  0  0  0  0  0  0  0  0  0  0  0
   -0.2602    0.6153   -0.4657 C   0  0  0  0  0  0  0  0  0  0  0  0
    2.3518    2.8720   -1.3177 H   0  0  0  0  0  0  0  0  0  0  0  0
    3.1504    2.4048   -2.8438 H   0  0  0  0  0  0  0  0  0  0  0  0
    1.4111    2.7577   -2.8211 H   0  0  0  0  0  0  0  0  0  0  0  0
    1.7956   -0.7184   -3.1431 H   0  0  0  0  0  0  0  0  0  0  0  0
    3.9863    0.2139   -1.9667 H   0  0  0  0  0  0  0  0  0  0  0  0
    3.4054    0.7285   -0.3724 H   0  0  0  0  0  0  0  0  0  0  0  0
    2.2410   -1.4107   -0.0049 H   0  0  0  0  0  0  0  0  0  0  0  0
    4.6638   -2.1489   -1.8435 H   0  0  0  0  0  0  0  0  0  0  0  0
    3.8098   -3.2742   -0.6648 H   0  0  0  0  0  0  0  0  0  0  0  0
   -1.1400    0.5247    0.1224 H   0  0  0  0  0  0  0  0  0  0  0  0
  1  2  1  0  0  0  0
  1 10  1  0  0  0  0
  2  4  1  0  0  0  0
  2  8  1  1  0  0  0
  3 13  1  0  0  0  0
  3  2  1  0  0  0  0
  4  5  1  0  0  0  0
  4 15  1  0  0  0  0
  5 16  1  1  0  0  0
  6  5  1  0  0  0  0
  6 18  1  0  0  0  0
  7  6  1  0  0  0  0
  7  5  1  0  0  0  0
  8  9  3  0  0  0  0
  9 19  1  0  0  0  0
 11  1  1  0  0  0  0
 12  1  1  0  0  0  0
 14  4  1  0  0  0  0
 17  6  1  0  0  0  0
M TOR 0 0 1 2 12
M TOR 1 0 1 3 4
M TOR 2 0 1 3 13
M TOR 3 0 1 3 14
M TOR 4 0 1 7 8
M TOR 5 1 3 4 5
M TOR 6 1 3 4 6
M TOR 7 1 3 4 15
M TOR 8 1 7 8 18
M TOR 9 2 1 0 9
M TOR 10 2 1 0 10
M TOR 11 2 1 0 11
M TOR 12 2 1 3 4
M TOR 13 2 1 3 13
M TOR 14 2 1 3 14
M TOR 15 2 1 7 8
M TOR 16 3 1 0 9
M TOR 17 3 1 0 10
M TOR 18 3 1 0 11
M TOR 19 3 1 2 12
M TOR 20 3 1 7 8
M TOR 21 3 4 5 6
M TOR 22 3 4 5 16
M TOR 23 3 4 5 17
M TOR 24 4 3 1 7
M TOR 25 4 6 5 16
M TOR 26 4 6 5 17
M TOR 27 5 4 3 13
M TOR 28 5 4 3 14
M TOR 29 5 6 4 15
M TOR 30 6 4 3 13
M TOR 31 6 4 3 14
M TOR 32 7 1 0 9
M TOR 33 7 1 0 10
M TOR 34 7 1 0 11
M TOR 35 7 1 2 12
M TOR 36 7 1 3 13
M TOR 37 7 1 3 14
M  END
$$$$
