
     RDKit          3D

 19 20  0  0  0  0  0  0  0  0999 V2000
   -0.4860    2.0680   -1.2473 C   0  0  0  0  0  0  0  0  0  0  0  0
   -0.8803    1.3522    0.0588 C   0  0  0  0  0  0  0  0  0  0  0  0
   -2.3286    0.8187    0.0711 C   0  0  0  0  0  0  0  0  0  0  0  0
   -2.2386   -0.6572   -0.3252 C   0  0  0  0  0  0  0  0  0  0  0  0
   -2.0263   -0.8543   -1.7491 O   0  0  0  0  0  0  0  0  0  0  0  0
   -0.7935   -1.5639   -1.5074 C   0  0  0  0  0  0  0  0  0  0  0  0
   -0.8132   -1.1581   -0.0151 C   0  0  0  0  0  0  0  0  0  0  0  0
    0.0012    0.1050    0.2678 C   0  0  0  0  0  0  0  0  0  0  0  0
    1.1618    0.1216    0.5897 O   0  0  0  0  0  0  0  0  0  0  0  0
   -0.7195    1.4473   -2.1166 H   0  0  0  0  0  0  0  0  0  0  0  0
   -1.0423    3.0052   -1.3461 H   0  0  0  0  0  0  0  0  0  0  0  0
    0.5827    2.2999   -1.2503 H   0  0  0  0  0  0  0  0  0  0  0  0
   -0.6900    2.0320    0.8951 H   0  0  0  0  0  0  0  0  0  0  0  0
   -2.7566    0.8845    1.0783 H   0  0  0  0  0  0  0  0  0  0  0  0
   -2.9937    1.3637   -0.6053 H   0  0  0  0  0  0  0  0  0  0  0  0
   -3.0806   -1.2594    0.0326 H   0  0  0  0  0  0  0  0  0  0  0  0
   -0.9062   -2.6436   -1.6680 H   0  0  0  0  0  0  0  0  0  0  0  0
    0.0355   -1.1923   -2.1192 H   0  0  0  0  0  0  0  0  0  0  0  0
   -0.6319   -1.9403    0.7214 H   0  0  0  0  0  0  0  0  0  0  0  0
  1  2  1  0
  2  3  1  0
  3  4  1  0
  4  5  1  0
  5  6  1  0
  6  7  1  0
  7  8  1  0
  8  9  2  0
  8  2  1  0
  7  4  1  0
  1 10  1  0
  1 11  1  0
  1 12  1  0
  2 13  1  0
  3 14  1  0
  3 15  1  0
  4 16  1  0
  6 17  1  0
  6 18  1  0
  7 19  1  0
M  END
$$$$
