
     RDKit          3D

 19 20  0  0  0  0  0  0  0  0999 V2000
    1.3693   -0.1862   -0.0620 C   0  0  0  0  0  0  0  0  0  0  0  0
   -0.0314   -0.0750    0.0346 O   0  0  0  0  0  0  0  0  0  0  0  0
   -0.4453    0.6370    1.1829 C   0  0  0  0  0  0  0  0  0  0  0  0
   -1.9352    0.7585    1.1549 C   0  0  0  0  0  0  0  0  0  0  0  0
   -2.8654   -0.2743    1.6782 C   0  0  0  0  0  0  0  0  0  0  0  0
   -2.8713    1.0965    2.3514 C   0  0  0  0  0  0  0  0  0  0  0  0
   -3.5840    2.0777    1.4691 C   0  0  0  0  0  0  0  0  0  0  0  0
   -4.3807    2.9480    1.6772 O   0  0  0  0  0  0  0  0  0  0  0  0
   -2.7205    1.7091    0.2323 C   0  0  0  0  0  0  0  0  0  0  0  0
    1.7965   -0.7319    0.7944 H   0  0  0  0  0  0  0  0  0  0  0  0
    1.5904   -0.7385   -0.9782 H   0  0  0  0  0  0  0  0  0  0  0  0
    1.8553    0.8011   -0.1148 H   0  0  0  0  0  0  0  0  0  0  0  0
   -0.1237    0.1155    2.1013 H   0  0  0  0  0  0  0  0  0  0  0  0
    0.0202    1.6380    1.1985 H   0  0  0  0  0  0  0  0  0  0  0  0
   -3.7203   -0.5982    1.0916 H   0  0  0  0  0  0  0  0  0  0  0  0
   -2.4244   -1.0550    2.2903 H   0  0  0  0  0  0  0  0  0  0  0  0
   -2.6579    1.2040    3.4082 H   0  0  0  0  0  0  0  0  0  0  0  0
   -3.2177    1.2607   -0.6318 H   0  0  0  0  0  0  0  0  0  0  0  0
   -2.1492    2.5828   -0.0959 H   0  0  0  0  0  0  0  0  0  0  0  0
  1  2  1  0
  2  3  1  0
  3  4  1  0
  4  5  1  0
  5  6  1  0
  6  7  1  0
  7  8  2  0
  7  9  1  0
  6  4  1  0
  9  4  1  0
  1 10  1  0
  1 11  1  0
  1 12  1  0
  3 13  1  0
  3 14  1  0
  5 15  1  0
  5 16  1  0
  6 17  1  0
  9 18  1  0
  9 19  1  0
M  END
$$$$
