
     RDKit          3D

 19 21  0  0  0  0  0  0  0  0999 V2000
    0.9746    0.2469   -1.8575 C   0  0  0  0  0  0  0  0  0  0  0  0
   -0.1822    1.1168   -1.8099 O   0  0  0  0  0  0  0  0  0  0  0  0
   -0.3361    1.3236   -0.4019 C   0  0  0  0  0  0  0  0  0  0  0  0
    1.1100    1.5991    0.1036 C   0  0  0  0  0  0  0  0  0  0  0  0
    1.2073    1.7778    1.6169 C   0  0  0  0  0  0  0  0  0  0  0  0
    0.1346    1.1458    2.2938 O   0  0  0  0  0  0  0  0  0  0  0  0
   -0.2092   -0.1124    1.7396 C   0  0  0  0  0  0  0  0  0  0  0  0
   -0.1597   -0.0951    0.2135 C   0  0  0  0  0  0  0  0  0  0  0  0
    1.2783    0.1161   -0.3656 C   0  0  0  0  0  0  0  0  0  0  0  0
    0.7099   -0.7034   -2.3371 H   0  0  0  0  0  0  0  0  0  0  0  0
    1.7795    0.7239   -2.4298 H   0  0  0  0  0  0  0  0  0  0  0  0
   -1.1872    1.9740   -0.2086 H   0  0  0  0  0  0  0  0  0  0  0  0
    1.6836    2.3602   -0.4333 H   0  0  0  0  0  0  0  0  0  0  0  0
    2.1799    1.4017    1.9795 H   0  0  0  0  0  0  0  0  0  0  0  0
    1.1447    2.8380    1.8840 H   0  0  0  0  0  0  0  0  0  0  0  0
    0.4482   -0.9091    2.1295 H   0  0  0  0  0  0  0  0  0  0  0  0
   -1.2252   -0.3243    2.0892 H   0  0  0  0  0  0  0  0  0  0  0  0
   -0.7594   -0.8997   -0.2217 H   0  0  0  0  0  0  0  0  0  0  0  0
    2.1261   -0.4995   -0.0611 H   0  0  0  0  0  0  0  0  0  0  0  0
  1  2  1  0
  2  3  1  0
  3  4  1  0
  4  5  1  0
  5  6  1  0
  6  7  1  0
  7  8  1  0
  8  9  1  0
  9  1  1  0
  8  3  1  0
  9  4  1  0
  1 10  1  0
  1 11  1  0
  3 12  1  0
  4 13  1  0
  5 14  1  0
  5 15  1  0
  7 16  1  0
  7 17  1  0
  8 18  1  0
  9 19  1  0
M  END
$$$$
