
     RDKit          3D

 19 20  0  0  0  0  0  0  0  0999 V2000
    3.5672    0.2625   -1.9661 C   0  0  0  0  0  0  0  0  0  0  0  0
    3.5739   -0.7832   -0.8475 C   0  0  0  0  0  0  0  0  0  0  0  0
    4.8899   -1.3553   -0.7249 O   0  0  0  0  0  0  0  0  0  0  0  0
    5.4199   -1.1388    0.5810 C   0  0  0  0  0  0  0  0  0  0  0  0
    4.3485   -0.3858    1.3176 C   0  0  0  0  0  0  0  0  0  0  0  0
    3.3107   -0.1836    0.5166 C   0  0  0  0  0  0  0  0  0  0  0  0
    2.6065   -1.9397   -1.1047 C   0  0  0  0  0  0  0  0  0  0  0  0
    2.0782   -2.3133   -2.4208 C   0  0  0  0  0  0  0  0  0  0  0  0
    1.2694   -1.6001   -1.4785 O   0  0  0  0  0  0  0  0  0  0  0  0
    4.1503    1.1362   -1.6653 H   0  0  0  0  0  0  0  0  0  0  0  0
    4.0170   -0.1526   -2.8718 H   0  0  0  0  0  0  0  0  0  0  0  0
    2.5435    0.5775   -2.1868 H   0  0  0  0  0  0  0  0  0  0  0  0
    5.6573   -2.1045    1.0541 H   0  0  0  0  0  0  0  0  0  0  0  0
    6.3625   -0.5731    0.5144 H   0  0  0  0  0  0  0  0  0  0  0  0
    4.4495   -0.0671    2.3475 H   0  0  0  0  0  0  0  0  0  0  0  0
    2.3840    0.3233    0.7523 H   0  0  0  0  0  0  0  0  0  0  0  0
    2.6756   -2.7198   -0.3451 H   0  0  0  0  0  0  0  0  0  0  0  0
    2.3633   -1.7522   -3.3071 H   0  0  0  0  0  0  0  0  0  0  0  0
    1.7813   -3.3455   -2.6001 H   0  0  0  0  0  0  0  0  0  0  0  0
  1  2  1  0
  2  3  1  0
  3  4  1  0
  4  5  1  0
  5  6  2  0
  2  7  1  0
  7  8  1  0
  8  9  1  0
  6  2  1  0
  9  7  1  0
  1 10  1  0
  1 11  1  0
  1 12  1  0
  4 13  1  0
  4 14  1  0
  5 15  1  0
  6 16  1  0
  7 17  1  0
  8 18  1  0
  8 19  1  0
M  END
$$$$
