gdb 4591	2.6617835	0.7555055	0.6736164	2.2195	81.49	-0.2407	-0.02002	0.22068	1731.0409	0.152844	-422.544409	-422.53308	-422.532136	-422.584155	37.816
 OpenBabel02181911413D

 19 18  0  0  1  0  0  0  0  0999 V2000
    4.3255    0.0749   -1.5301 C   0  0  0  0  0  0  0  0  0  0  0  0
    3.8945    0.1078   -0.0554 C   0  0  2  0  0  0  0  0  0  0  0  0
    2.4403    0.0975    0.0968 C   0  0  0  0  0  0  0  0  0  0  0  0
    1.2396    0.1037    0.2072 C   0  0  0  0  0  0  0  0  0  0  0  0
   -0.2191    0.1609    0.3102 C   0  0  0  0  0  0  0  0  0  0  0  0
   -0.8416    0.7799   -0.8060 O   0  0  0  0  0  0  0  0  0  0  0  0
    4.4849    1.3387    0.6835 C   0  0  0  0  0  0  0  0  0  0  0  0
    4.3220    1.3575    2.1898 C   0  0  0  0  0  0  0  0  0  0  0  0
    5.0553    2.2118    0.0783 O   0  0  0  0  0  0  0  0  0  0  0  0
    3.9153   -0.8090   -2.0235 H   0  0  0  0  0  0  0  0  0  0  0  0
    3.9709    0.9667   -2.0498 H   0  0  0  0  0  0  0  0  0  0  0  0
    5.4153    0.0541   -1.6042 H   0  0  0  0  0  0  0  0  0  0  0  0
    4.2919   -0.7807    0.4586 H   0  0  0  0  0  0  0  0  0  0  0  0
   -0.6341   -0.8522    0.3577 H   0  0  0  0  0  0  0  0  0  0  0  0
   -0.4969    0.6599    1.2528 H   0  0  0  0  0  0  0  0  0  0  0  0
   -0.4086    1.6289   -0.9440 H   0  0  0  0  0  0  0  0  0  0  0  0
    4.9228    0.5530    2.6311 H   0  0  0  0  0  0  0  0  0  0  0  0
    4.6582    2.3155    2.5873 H   0  0  0  0  0  0  0  0  0  0  0  0
    3.2815    1.1707    2.4695 H   0  0  0  0  0  0  0  0  0  0  0  0
  1  2  1  0  0  0  0
  2  3  1  0  0  0  0
  2 13  1  1  0  0  0
  2  7  1  0  0  0  0
  3  4  3  0  0  0  0
  4  5  1  0  0  0  0
  5 14  1  0  0  0  0
  5 15  1  0  0  0  0
  6  5  1  0  0  0  0
  7  8  1  0  0  0  0
  8 19  1  0  0  0  0
  8 18  1  0  0  0  0
  8 17  1  0  0  0  0
  9  7  2  0  0  0  0
 10  1  1  0  0  0  0
 11  1  1  0  0  0  0
 12  1  1  0  0  0  0
 16  6  1  0  0  0  0
M TOR 0 0 1 2 3
M TOR 1 0 1 6 7
M TOR 2 0 1 6 8
M TOR 3 1 2 3 4
M TOR 4 1 6 7 16
M TOR 5 1 6 7 17
M TOR 6 1 6 7 18
M TOR 7 2 1 0 9
M TOR 8 2 1 0 10
M TOR 9 2 1 0 11
M TOR 10 2 1 6 7
M TOR 11 2 1 6 8
M TOR 12 2 3 4 5
M TOR 13 2 3 4 13
M TOR 14 2 3 4 14
M TOR 15 3 2 1 6
M TOR 16 3 2 1 12
M TOR 17 3 4 5 15
M TOR 18 6 1 0 9
M TOR 19 6 1 0 10
M TOR 20 6 1 0 11
M TOR 21 7 6 1 12
M TOR 22 8 6 1 12
M TOR 23 8 6 7 16
M TOR 24 8 6 7 17
M TOR 25 8 6 7 18
M  END
$$$$
