
     RDKit          3D

 19 18  0  0  0  0  0  0  0  0999 V2000
   -6.5356    1.5194   -2.4055 C   0  0  0  0  0  0  0  0  0  0  0  0
   -5.1329    1.5218   -2.2869 O   0  0  0  0  0  0  0  0  0  0  0  0
   -4.6665    0.6947   -1.2482 C   0  0  0  0  0  0  0  0  0  0  0  0
   -3.1459    0.7786   -1.2171 C   0  0  0  0  0  0  0  0  0  0  0  0
   -2.5477   -0.1016   -0.1025 C   0  0  0  0  0  0  0  0  0  0  0  0
   -1.0955   -0.0473   -0.0418 C   0  0  0  0  0  0  0  0  0  0  0  0
    0.1107    0.0200   -0.0183 C   0  0  0  0  0  0  0  0  0  0  0  0
    1.5475    0.0665    0.0499 C   0  0  0  0  0  0  0  0  0  0  0  0
    2.2509    0.7242   -0.6827 O   0  0  0  0  0  0  0  0  0  0  0  0
   -7.0243    1.8841   -1.4879 H   0  0  0  0  0  0  0  0  0  0  0  0
   -6.7947    2.1853   -3.2318 H   0  0  0  0  0  0  0  0  0  0  0  0
   -6.9259    0.5126   -2.6240 H   0  0  0  0  0  0  0  0  0  0  0  0
   -5.0898    1.0142   -0.2785 H   0  0  0  0  0  0  0  0  0  0  0  0
   -4.9915   -0.3494   -1.4083 H   0  0  0  0  0  0  0  0  0  0  0  0
   -2.7476    0.4676   -2.1876 H   0  0  0  0  0  0  0  0  0  0  0  0
   -2.8451    1.8199   -1.0675 H   0  0  0  0  0  0  0  0  0  0  0  0
   -2.9533    0.2002    0.8729 H   0  0  0  0  0  0  0  0  0  0  0  0
   -2.8565   -1.1466   -0.2425 H   0  0  0  0  0  0  0  0  0  0  0  0
    1.9828   -0.5663    0.8507 H   0  0  0  0  0  0  0  0  0  0  0  0
  1  2  1  0
  2  3  1  0
  3  4  1  0
  4  5  1  0
  5  6  1  0
  6  7  3  0
  7  8  1  0
  8  9  2  0
  1 10  1  0
  1 11  1  0
  1 12  1  0
  3 13  1  0
  3 14  1  0
  4 15  1  0
  4 16  1  0
  5 17  1  0
  5 18  1  0
  8 19  1  0
M  END
$$$$
