
     RDKit          3D

 19 21  0  0  0  0  0  0  0  0999 V2000
    1.5095    0.2483   -0.6527 O   0  0  0  0  0  0  0  0  0  0  0  0
    0.2336    0.1341   -0.0176 C   0  0  0  0  0  0  0  0  0  0  0  0
   -0.8030    0.4277   -1.0902 C   0  0  0  0  0  0  0  0  0  0  0  0
   -0.6012   -0.4328   -2.1878 O   0  0  0  0  0  0  0  0  0  0  0  0
   -2.2756    0.5722   -0.6838 C   0  0  0  0  0  0  0  0  0  0  0  0
   -2.0732    2.0413   -0.1654 C   0  0  0  0  0  0  0  0  0  0  0  0
   -3.2474    2.5749   -1.0082 C   0  0  0  0  0  0  0  0  0  0  0  0
   -2.5817    1.5139   -1.9043 C   0  0  0  0  0  0  0  0  0  0  0  0
   -1.1398    1.9044   -1.4198 C   0  0  0  0  0  0  0  0  0  0  0  0
    2.1728   -0.1534   -0.0853 H   0  0  0  0  0  0  0  0  0  0  0  0
    0.0776   -0.8861    0.3630 H   0  0  0  0  0  0  0  0  0  0  0  0
    0.1464    0.8359    0.8226 H   0  0  0  0  0  0  0  0  0  0  0  0
    0.3560   -0.4752   -2.3113 H   0  0  0  0  0  0  0  0  0  0  0  0
   -2.9467   -0.1795   -0.2637 H   0  0  0  0  0  0  0  0  0  0  0  0
   -1.7674    2.3335    0.8400 H   0  0  0  0  0  0  0  0  0  0  0  0
   -4.2561    2.3528   -0.6443 H   0  0  0  0  0  0  0  0  0  0  0  0
   -3.1808    3.6157   -1.3416 H   0  0  0  0  0  0  0  0  0  0  0  0
   -2.8499    1.1856   -2.9066 H   0  0  0  0  0  0  0  0  0  0  0  0
   -0.5047    2.6844   -1.8423 H   0  0  0  0  0  0  0  0  0  0  0  0
  1  2  1  0
  2  3  1  0
  3  4  1  0
  3  5  1  0
  5  6  1  0
  6  7  1  0
  7  8  1  0
  8  9  1  0
  9  3  1  0
  8  5  1  0
  9  6  1  0
  1 10  1  0
  2 11  1  0
  2 12  1  0
  4 13  1  0
  5 14  1  0
  6 15  1  0
  7 16  1  0
  7 17  1  0
  8 18  1  0
  9 19  1  0
M  END
$$$$
