gdb 78	3.1865709	1.2195854	0.9489826	1.0475	78.33	-0.24985	0.03972	0.28957	1239.7193	0.157248	-422.519988	-422.511439	-422.510495	-422.55296	32.558
 OpenBabel02181911403D

 19 19  0  0  1  0  0  0  0  0999 V2000
   -0.0639    0.0989    0.1856 C   0  0  0  0  0  0  0  0  0  0  0  0
    1.1368    0.0743    0.1600 C   0  0  0  0  0  0  0  0  0  0  0  0
    2.5970    0.0126    0.1515 C   0  0  2  0  0  0  0  0  0  0  0  0
    3.1461   -0.6692    1.4224 C   0  0  0  0  0  0  0  0  0  0  0  0
    4.6600   -0.9206    1.3816 C   0  0  0  0  0  0  0  0  0  0  0  0
    5.4999    0.2739    0.9184 C   0  0  0  0  0  0  0  0  0  0  0  0
    5.2488    0.5508   -0.4592 O   0  0  0  0  0  0  0  0  0  0  0  0
    4.2577    1.5106   -0.6987 C   0  0  0  0  0  0  0  0  0  0  0  0
    3.1097    1.3512    0.0924 O   0  0  0  0  0  0  0  0  0  0  0  0
   -1.1254    0.1285    0.1969 H   0  0  0  0  0  0  0  0  0  0  0  0
    2.9239   -0.5465   -0.7369 H   0  0  0  0  0  0  0  0  0  0  0  0
    2.8869   -0.0161    2.2630 H   0  0  0  0  0  0  0  0  0  0  0  0
    2.6175   -1.6158    1.5771 H   0  0  0  0  0  0  0  0  0  0  0  0
    4.9987   -1.2304    2.3778 H   0  0  0  0  0  0  0  0  0  0  0  0
    4.8791   -1.7528    0.7015 H   0  0  0  0  0  0  0  0  0  0  0  0
    5.3109    1.1617    1.5365 H   0  0  0  0  0  0  0  0  0  0  0  0
    6.5645    0.0294    0.9914 H   0  0  0  0  0  0  0  0  0  0  0  0
    4.6060    2.5282   -0.4689 H   0  0  0  0  0  0  0  0  0  0  0  0
    4.0338    1.4243   -1.7719 H   0  0  0  0  0  0  0  0  0  0  0  0
  1 10  1  0  0  0  0
  2  1  3  0  0  0  0
  3 11  1  6  0  0  0
  3  2  1  0  0  0  0
  3  4  1  0  0  0  0
  4 13  1  0  0  0  0
  4 12  1  0  0  0  0
  5  4  1  0  0  0  0
  5 14  1  0  0  0  0
  6 17  1  0  0  0  0
  6  5  1  0  0  0  0
  6 16  1  0  0  0  0
  7  6  1  0  0  0  0
  8 18  1  0  0  0  0
  8  7  1  0  0  0  0
  8  9  1  0  0  0  0
  9  3  1  0  0  0  0
 15  5  1  0  0  0  0
 19  8  1  0  0  0  0
M TOR 0 0 1 2 3
M TOR 1 0 1 2 8
M TOR 2 0 1 2 10
M TOR 3 1 2 3 4
M TOR 4 1 2 3 11
M TOR 5 1 2 3 12
M TOR 6 1 2 8 7
M TOR 7 2 1 0 9
M TOR 8 2 3 4 5
M TOR 9 2 3 4 13
M TOR 10 2 3 4 14
M TOR 11 2 8 7 6
M TOR 12 2 8 7 17
M TOR 13 2 8 7 18
M TOR 14 3 2 8 7
M TOR 15 3 4 5 6
M TOR 16 3 4 5 15
M TOR 17 3 4 5 16
M TOR 18 4 3 2 8
M TOR 19 4 3 2 10
M TOR 20 4 5 6 7
M TOR 21 5 4 3 11
M TOR 22 5 4 3 12
M TOR 23 5 6 7 8
M TOR 24 5 6 7 17
M TOR 25 5 6 7 18
M TOR 26 6 5 4 13
M TOR 27 6 5 4 14
M TOR 28 7 6 5 15
M TOR 29 7 6 5 16
M TOR 30 7 8 2 10
M TOR 31 8 2 3 11
M TOR 32 8 2 3 12
M  END
$$$$
