gdb 4939	2.3540161	1.4923473	1.1895126	0.7514	77.23	-0.25932	0.04149	0.30081	1136.7101	0.155401	-422.522862	-422.513499	-422.512554	-422.557329	34.17
 OpenBabel02181911413D

 19 19  0  0  1  0  0  0  0  0999 V2000
    1.3452   -0.1416    0.2208 C   0  0  0  0  0  0  0  0  0  0  0  0
   -0.0571    0.0627    0.3350 O   0  0  0  0  0  0  0  0  0  0  0  0
   -0.4525    0.9724    1.3411 C   0  0  1  0  0  0  0  0  0  0  0  0
   -2.0097    0.9560    1.3458 C   0  0  0  0  0  0  0  0  0  0  0  0
   -2.3740    0.3583    2.7189 C   0  0  0  0  0  0  0  0  0  0  0  0
   -1.0697   -0.3271    3.1341 C   0  0  0  0  0  0  0  0  0  0  0  0
   -0.0455    0.5287    2.6256 O   0  0  0  0  0  0  0  0  0  0  0  0
    0.1310    2.3061    1.1237 C   0  0  0  0  0  0  0  0  0  0  0  0
    0.5798    3.4003    0.9139 C   0  0  0  0  0  0  0  0  0  0  0  0
    1.7751   -0.4850    1.1677 H   0  0  0  0  0  0  0  0  0  0  0  0
    1.4804   -0.9100   -0.5431 H   0  0  0  0  0  0  0  0  0  0  0  0
    1.8577    0.7763   -0.0926 H   0  0  0  0  0  0  0  0  0  0  0  0
   -2.4168    1.9564    1.1993 H   0  0  0  0  0  0  0  0  0  0  0  0
   -2.3352    0.3242    0.5178 H   0  0  0  0  0  0  0  0  0  0  0  0
   -2.6212    1.1502    3.4317 H   0  0  0  0  0  0  0  0  0  0  0  0
   -3.2195   -0.3320    2.6707 H   0  0  0  0  0  0  0  0  0  0  0  0
   -0.9249   -0.4049    4.2138 H   0  0  0  0  0  0  0  0  0  0  0  0
   -0.9876   -1.3299    2.6920 H   0  0  0  0  0  0  0  0  0  0  0  0
    0.9799    4.3684    0.7372 H   0  0  0  0  0  0  0  0  0  0  0  0
  1  2  1  0  0  0  0
  1 10  1  0  0  0  0
  2  3  1  0  0  0  0
  3  8  1  6  0  0  0
  3  4  1  0  0  0  0
  3  7  1  0  0  0  0
  4  5  1  0  0  0  0
  5  6  1  0  0  0  0
  5 15  1  0  0  0  0
  6 17  1  0  0  0  0
  7  6  1  0  0  0  0
  9  8  3  0  0  0  0
 11  1  1  0  0  0  0
 12  1  1  0  0  0  0
 13  4  1  0  0  0  0
 14  4  1  0  0  0  0
 16  5  1  0  0  0  0
 18  6  1  0  0  0  0
 19  9  1  0  0  0  0
M TOR 0 0 1 2 3
M TOR 1 0 1 2 6
M TOR 2 0 1 2 7
M TOR 3 1 2 3 4
M TOR 4 1 2 3 12
M TOR 5 1 2 3 13
M TOR 6 1 2 6 5
M TOR 7 1 2 7 8
M TOR 8 2 1 0 9
M TOR 9 2 1 0 10
M TOR 10 2 1 0 11
M TOR 11 2 3 4 5
M TOR 12 2 3 4 14
M TOR 13 2 3 4 15
M TOR 14 2 6 5 4
M TOR 15 2 6 5 16
M TOR 16 2 6 5 17
M TOR 17 2 7 8 18
M TOR 18 3 2 6 5
M TOR 19 3 2 7 8
M TOR 20 3 4 5 6
M TOR 21 3 4 5 16
M TOR 22 3 4 5 17
M TOR 23 4 3 2 6
M TOR 24 4 3 2 7
M TOR 25 5 4 3 12
M TOR 26 5 4 3 13
M TOR 27 5 6 2 7
M TOR 28 6 2 3 12
M TOR 29 6 2 3 13
M TOR 30 6 2 7 8
M TOR 31 6 5 4 14
M TOR 32 6 5 4 15
M TOR 33 7 2 3 12
M TOR 34 7 2 3 13
M  END
$$$$
