gdb 323	2.4200227	2.1569962	1.4627115	0.8768	74.5	-0.22509	0.07321	0.2983	936.5923	0.158849	-422.493142	-422.486012	-422.485068	-422.524183	29.298
 OpenBabel02181911403D

 19 21  0  0  1  0  0  0  0  0999 V2000
    0.7612    1.7732    0.4514 C   0  0  0  0  0  0  0  0  0  0  0  0
    0.7358    0.7713   -0.7136 C   0  0  1  0  0  0  0  0  0  0  0  0
    1.5713   -0.4361   -1.0368 C   0  0  0  0  0  0  0  0  0  0  0  0
    0.7709   -1.6412   -1.0409 O   0  0  0  0  0  0  0  0  0  0  0  0
   -0.6550   -1.5571   -1.0314 C   0  0  0  0  0  0  0  0  0  0  0  0
   -1.3025   -0.9615    0.2575 C   0  0  1  0  0  0  0  0  0  0  0  0
   -0.2055   -0.6519    1.2878 C   0  0  0  0  0  0  0  0  0  0  0  0
   -0.1777    0.6291    0.4623 C   0  0  1  0  0  0  0  0  0  0  0  0
   -1.5672    0.4816    0.1302 O   0  0  0  0  0  0  0  0  0  0  0  0
    1.5618    1.7375    1.1857 H   0  0  0  0  0  0  0  0  0  0  0  0
    0.4167    2.7734    0.2127 H   0  0  0  0  0  0  0  0  0  0  0  0
    0.2109    1.1870   -1.5695 H   0  0  0  0  0  0  0  0  0  0  0  0
    2.0530   -0.3411   -2.0184 H   0  0  0  0  0  0  0  0  0  0  0  0
    2.3624   -0.5996   -0.2949 H   0  0  0  0  0  0  0  0  0  0  0  0
   -1.0474   -1.0057   -1.8975 H   0  0  0  0  0  0  0  0  0  0  0  0
   -0.9698   -2.6009   -1.1298 H   0  0  0  0  0  0  0  0  0  0  0  0
   -2.2134   -1.4918    0.5449 H   0  0  0  0  0  0  0  0  0  0  0  0
   -0.6146   -0.4715    2.2839 H   0  0  0  0  0  0  0  0  0  0  0  0
    0.6708   -1.2960    1.3220 H   0  0  0  0  0  0  0  0  0  0  0  0
  1  8  1  0  0  0  0
  1 10  1  0  0  0  0
  2 12  1  6  0  0  0
  2  1  1  0  0  0  0
  2  8  1  0  0  0  0
  3  2  1  0  0  0  0
  3 14  1  0  0  0  0
  4  3  1  0  0  0  0
  4  5  1  0  0  0  0
  5  6  1  0  0  0  0
  6 17  1  1  0  0  0
  6  7  1  0  0  0  0
  7 19  1  0  0  0  0
  7 18  1  0  0  0  0
  8  9  1  6  0  0  0
  8  7  1  0  0  0  0
  9  6  1  0  0  0  0
 11  1  1  0  0  0  0
 13  3  1  0  0  0  0
 15  5  1  0  0  0  0
 16  5  1  0  0  0  0
M TOR 0 0 1 2 3
M TOR 1 0 1 2 12
M TOR 2 0 1 2 13
M TOR 3 0 1 7 6
M TOR 4 0 1 7 8
M TOR 5 0 7 1 2
M TOR 6 0 7 1 11
M TOR 7 0 7 6 5
M TOR 8 0 7 6 17
M TOR 9 0 7 6 18
M TOR 10 0 7 8 5
M TOR 11 1 2 3 4
M TOR 12 1 7 0 9
M TOR 13 1 7 0 10
M TOR 14 1 7 6 5
M TOR 15 1 7 6 17
M TOR 16 1 7 6 18
M TOR 17 1 7 8 5
M TOR 18 2 1 0 9
M TOR 19 2 1 0 10
M TOR 20 2 1 7 6
M TOR 21 2 1 7 8
M TOR 22 2 3 4 5
M TOR 23 2 3 4 14
M TOR 24 2 3 4 15
M TOR 25 3 2 1 7
M TOR 26 3 2 1 11
M TOR 27 3 4 5 6
M TOR 28 3 4 5 8
M TOR 29 3 4 5 16
M TOR 30 4 3 2 12
M TOR 31 4 3 2 13
M TOR 32 4 5 6 7
M TOR 33 4 5 6 17
M TOR 34 4 5 6 18
M TOR 35 4 5 8 7
M TOR 36 5 6 7 8
M TOR 37 6 5 4 14
M TOR 38 6 5 4 15
M TOR 39 6 7 0 9
M TOR 40 6 7 0 10
M TOR 41 6 7 1 11
M TOR 42 7 1 2 12
M TOR 43 7 1 2 13
M TOR 44 7 6 5 16
M TOR 45 7 8 5 16
M TOR 46 8 5 4 14
M TOR 47 8 5 4 15
M TOR 48 8 5 6 17
M TOR 49 8 5 6 18
M TOR 50 8 7 0 9
M TOR 51 8 7 0 10
M TOR 52 8 7 1 11
M TOR 53 8 7 6 17
M TOR 54 8 7 6 18
M  END
$$$$
