
     RDKit          3D

 19 20  0  0  0  0  0  0  0  0999 V2000
    0.9190   -0.7143   -0.2613 O   0  0  0  0  0  0  0  0  0  0  0  0
    0.0538    0.0243    0.1336 C   0  0  0  0  0  0  0  0  0  0  0  0
   -1.1394    0.4513   -0.6814 C   0  0  0  0  0  0  0  0  0  0  0  0
   -1.4683    1.9732   -0.5358 C   0  0  0  0  0  0  0  0  0  0  0  0
   -2.5735    1.6257    0.4959 C   0  0  0  0  0  0  0  0  0  0  0  0
   -2.4959    0.1539    0.0470 C   0  0  0  0  0  0  0  0  0  0  0  0
   -3.6378   -0.5289   -0.7348 C   0  0  0  0  0  0  0  0  0  0  0  0
   -3.5226   -1.6266    0.3408 C   0  0  0  0  0  0  0  0  0  0  0  0
   -2.5159   -0.8715    1.0515 O   0  0  0  0  0  0  0  0  0  0  0  0
    0.0951    0.4565    1.1597 H   0  0  0  0  0  0  0  0  0  0  0  0
   -1.0361    0.0485   -1.6911 H   0  0  0  0  0  0  0  0  0  0  0  0
   -0.6535    2.6116   -0.1869 H   0  0  0  0  0  0  0  0  0  0  0  0
   -1.8603    2.3900   -1.4654 H   0  0  0  0  0  0  0  0  0  0  0  0
   -2.2246    1.7239    1.5280 H   0  0  0  0  0  0  0  0  0  0  0  0
   -3.5415    2.1253    0.4045 H   0  0  0  0  0  0  0  0  0  0  0  0
   -4.5787    0.0252   -0.7288 H   0  0  0  0  0  0  0  0  0  0  0  0
   -3.4012   -0.8303   -1.7565 H   0  0  0  0  0  0  0  0  0  0  0  0
   -4.4110   -1.7992    0.9577 H   0  0  0  0  0  0  0  0  0  0  0  0
   -3.1358   -2.5903   -0.0094 H   0  0  0  0  0  0  0  0  0  0  0  0
  1  2  2  0
  2  3  1  0
  3  4  1  0
  4  5  1  0
  5  6  1  0
  6  7  1  0
  7  8  1  0
  8  9  1  0
  6  3  1  0
  9  6  1  0
  2 10  1  0
  3 11  1  0
  4 12  1  0
  4 13  1  0
  5 14  1  0
  5 15  1  0
  7 16  1  0
  7 17  1  0
  8 18  1  0
  8 19  1  0
M  END
$$$$
