gdb 2111	3.3636368	1.4929	1.4110601	0.7567	73.32	-0.21808	0.07581	0.29389	999.6869	0.157698	-422.56679	-422.559164	-422.558219	-422.598097	31.331
 OpenBabel02181911403D

 19 21  0  0  1  0  0  0  0  0999 V2000
    0.1574   -0.4398   -0.6898 C   0  0  0  0  0  0  0  0  0  0  0  0
    1.5287   -0.0922   -0.1723 C   0  0  1  0  0  0  0  0  0  0  0  0
    2.5062    0.6835   -1.0979 C   0  0  0  0  0  0  0  0  0  0  0  0
    3.5790    0.9042   -0.0434 C   0  0  1  0  0  0  0  0  0  0  0  0
    2.7987    0.9686    1.2601 C   0  0  1  0  0  0  0  0  0  0  0  0
    1.4270    0.7939    0.9714 O   0  0  0  0  0  0  0  0  0  0  0  0
    3.5353   -0.3001    0.8892 C   0  0  2  0  0  0  0  0  0  0  0  0
    4.6968   -0.7420    1.5025 O   0  0  0  0  0  0  0  0  0  0  0  0
    2.4385   -1.2239    0.3698 C   0  0  0  0  0  0  0  0  0  0  0  0
   -0.4310   -0.9445    0.0819 H   0  0  0  0  0  0  0  0  0  0  0  0
   -0.3778    0.4656   -0.9911 H   0  0  0  0  0  0  0  0  0  0  0  0
    0.2318   -1.1025   -1.5570 H   0  0  0  0  0  0  0  0  0  0  0  0
    2.8402    0.0809   -1.9473 H   0  0  0  0  0  0  0  0  0  0  0  0
    2.0631    1.6144   -1.4640 H   0  0  0  0  0  0  0  0  0  0  0  0
    4.4905    1.4649   -0.1976 H   0  0  0  0  0  0  0  0  0  0  0  0
    3.0266    1.6120    2.0985 H   0  0  0  0  0  0  0  0  0  0  0  0
    4.4666   -1.0758    2.3770 H   0  0  0  0  0  0  0  0  0  0  0  0
    2.7808   -1.9055   -0.4137 H   0  0  0  0  0  0  0  0  0  0  0  0
    1.9478   -1.7944    1.1657 H   0  0  0  0  0  0  0  0  0  0  0  0
  1 10  1  0  0  0  0
  2  1  1  6  0  0  0
  2  9  1  0  0  0  0
  2  6  1  0  0  0  0
  3  2  1  0  0  0  0
  3  4  1  0  0  0  0
  4 15  1  6  0  0  0
  4  7  1  0  0  0  0
  4  5  1  0  0  0  0
  5 16  1  1  0  0  0
  6  5  1  0  0  0  0
  7  5  1  0  0  0  0
  7  8  1  1  0  0  0
  8 17  1  0  0  0  0
  9  7  1  0  0  0  0
  9 19  1  0  0  0  0
 11  1  1  0  0  0  0
 12  1  1  0  0  0  0
 13  3  1  0  0  0  0
 14  3  1  0  0  0  0
 18  9  1  0  0  0  0
M TOR 0 0 1 2 3
M TOR 1 0 1 2 12
M TOR 2 0 1 2 13
M TOR 3 0 1 5 4
M TOR 4 0 1 8 6
M TOR 5 0 1 8 17
M TOR 6 0 1 8 18
M TOR 7 1 2 3 4
M TOR 8 1 2 3 6
M TOR 9 1 2 3 14
M TOR 10 1 5 4 3
M TOR 11 1 5 4 6
M TOR 12 1 5 4 15
M TOR 13 1 8 6 3
M TOR 14 1 8 6 4
M TOR 15 1 8 6 7
M TOR 16 2 1 0 9
M TOR 17 2 1 0 10
M TOR 18 2 1 0 11
M TOR 19 2 1 5 4
M TOR 20 2 1 8 6
M TOR 21 2 1 8 17
M TOR 22 2 1 8 18
M TOR 23 2 3 4 5
M TOR 24 2 3 4 6
M TOR 25 2 3 4 15
M TOR 26 2 3 6 7
M TOR 27 2 3 6 8
M TOR 28 3 2 1 5
M TOR 29 3 2 1 8
M TOR 30 3 4 6 7
M TOR 31 3 4 6 8
M TOR 32 3 6 4 5
M TOR 33 3 6 4 15
M TOR 34 3 6 7 16
M TOR 35 3 6 8 17
M TOR 36 3 6 8 18
M TOR 37 4 3 2 12
M TOR 38 4 3 2 13
M TOR 39 4 5 1 8
M TOR 40 4 6 3 14
M TOR 41 4 6 7 16
M TOR 42 4 6 8 17
M TOR 43 4 6 8 18
M TOR 44 5 1 0 9
M TOR 45 5 1 0 10
M TOR 46 5 1 0 11
M TOR 47 5 1 2 12
M TOR 48 5 1 2 13
M TOR 49 5 1 8 6
M TOR 50 5 1 8 17
M TOR 51 5 1 8 18
M TOR 52 5 4 3 14
M TOR 53 5 4 6 7
M TOR 54 5 4 6 8
M TOR 55 6 3 2 12
M TOR 56 6 3 2 13
M TOR 57 7 6 3 14
M TOR 58 7 6 4 15
M TOR 59 7 6 8 17
M TOR 60 7 6 8 18
M TOR 61 8 1 0 9
M TOR 62 8 1 0 10
M TOR 63 8 1 0 11
M TOR 64 8 1 2 12
M TOR 65 8 1 2 13
M TOR 66 8 6 3 14
M TOR 67 8 6 4 15
M TOR 68 8 6 7 16
M  END
$$$$
