gdb 4435	2.5316093	1.3574246	1.2019956	3.0942	75.94	-0.24267	-0.03175	0.21092	1137.5493	0.155463	-422.544552	-422.535593	-422.534649	-422.579356	32.393
 OpenBabel02181911413D

 19 20  0  0  1  0  0  0  0  0999 V2000
   -2.1910    2.4475   -1.8881 C   0  0  0  0  0  0  0  0  0  0  0  0
   -1.0174    2.2350   -0.9559 C   0  0  1  0  0  0  0  0  0  0  0  0
   -0.9983    3.1850    0.1350 O   0  0  0  0  0  0  0  0  0  0  0  0
   -0.9393    2.1318    1.1099 C   0  0  0  0  0  0  0  0  0  0  0  0
   -1.0450    1.0319    0.0301 C   0  0  1  0  0  0  0  0  0  0  0  0
   -2.1320   -0.0793    0.0578 C   0  0  0  0  0  0  0  0  0  0  0  0
   -1.0317   -1.1872    0.0321 C   0  0  0  0  0  0  0  0  0  0  0  0
    0.0180   -0.0678   -0.0548 C   0  0  0  0  0  0  0  0  0  0  0  0
    1.2100   -0.0391   -0.1675 O   0  0  0  0  0  0  0  0  0  0  0  0
   -3.1423    2.3782   -1.3526 H   0  0  0  0  0  0  0  0  0  0  0  0
   -2.1239    3.4432   -2.3376 H   0  0  0  0  0  0  0  0  0  0  0  0
   -2.1852    1.7091   -2.6973 H   0  0  0  0  0  0  0  0  0  0  0  0
   -0.0693    2.2737   -1.5101 H   0  0  0  0  0  0  0  0  0  0  0  0
    0.0071    2.1342    1.6653 H   0  0  0  0  0  0  0  0  0  0  0  0
   -1.7791    2.1699    1.8153 H   0  0  0  0  0  0  0  0  0  0  0  0
   -2.7543   -0.0740    0.9553 H   0  0  0  0  0  0  0  0  0  0  0  0
   -2.7862   -0.0846   -0.8162 H   0  0  0  0  0  0  0  0  0  0  0  0
   -0.9477   -1.7905    0.9410 H   0  0  0  0  0  0  0  0  0  0  0  0
   -1.0400   -1.8645   -0.8266 H   0  0  0  0  0  0  0  0  0  0  0  0
  1 10  1  0  0  0  0
  1  2  1  0  0  0  0
  2 13  1  6  0  0  0
  2  5  1  0  0  0  0
  2  3  1  0  0  0  0
  3  4  1  0  0  0  0
  4 14  1  0  0  0  0
  4 15  1  0  0  0  0
  5  8  1  6  0  0  0
  5  6  1  0  0  0  0
  5  4  1  0  0  0  0
  6 16  1  0  0  0  0
  7  6  1  0  0  0  0
  7 18  1  0  0  0  0
  8  7  1  0  0  0  0
  9  8  2  0  0  0  0
 11  1  1  0  0  0  0
 12  1  1  0  0  0  0
 17  6  1  0  0  0  0
 19  7  1  0  0  0  0
M TOR 0 0 1 2 3
M TOR 1 0 1 4 3
M TOR 2 0 1 4 5
M TOR 3 0 1 4 7
M TOR 4 1 2 3 4
M TOR 5 1 2 3 13
M TOR 6 1 2 3 14
M TOR 7 1 4 3 13
M TOR 8 1 4 3 14
M TOR 9 1 4 5 6
M TOR 10 1 4 5 15
M TOR 11 1 4 5 16
M TOR 12 1 4 7 6
M TOR 13 1 4 7 8
M TOR 14 2 1 0 9
M TOR 15 2 1 0 10
M TOR 16 2 1 0 11
M TOR 17 2 1 4 5
M TOR 18 2 1 4 7
M TOR 19 2 3 4 5
M TOR 20 2 3 4 7
M TOR 21 3 2 1 12
M TOR 22 3 4 1 12
M TOR 23 3 4 5 6
M TOR 24 3 4 5 15
M TOR 25 3 4 5 16
M TOR 26 3 4 7 6
M TOR 27 3 4 7 8
M TOR 28 4 1 0 9
M TOR 29 4 1 0 10
M TOR 30 4 1 0 11
M TOR 31 4 5 6 7
M TOR 32 4 5 6 17
M TOR 33 4 5 6 18
M TOR 34 4 7 6 17
M TOR 35 4 7 6 18
M TOR 36 5 4 1 12
M TOR 37 5 4 3 13
M TOR 38 5 4 3 14
M TOR 39 5 4 7 8
M TOR 40 5 6 7 8
M TOR 41 7 4 1 12
M TOR 42 7 4 3 13
M TOR 43 7 4 3 14
M TOR 44 7 4 5 15
M TOR 45 7 4 5 16
M TOR 46 7 6 5 15
M TOR 47 7 6 5 16
M TOR 48 8 7 6 17
M TOR 49 8 7 6 18
M  END
$$$$
