gdb 1774	2.0931401	1.7264535	1.1622994	1.2785	77.11	-0.23505	-0.03533	0.19972	1121.6399	0.153615	-422.516323	-422.507068	-422.506124	-422.550096	34.209
 OpenBabel02181911403D

 19 20  0  0  1  0  0  0  0  0999 V2000
   -0.3335   -0.5267   -2.8046 C   0  0  0  0  0  0  0  0  0  0  0  0
   -0.2873    0.4852   -1.7058 C   0  0  1  0  0  0  0  0  0  0  0  0
    0.2166    1.9515   -1.7254 C   0  0  0  0  0  0  0  0  0  0  0  0
   -0.5207    1.7037   -0.3891 C   0  0  1  0  0  0  0  0  0  0  0  0
   -0.9348    2.6569    0.6865 C   0  0  0  0  0  0  0  0  0  0  0  0
   -1.5753    0.9886   -1.1383 O   0  0  0  0  0  0  0  0  0  0  0  0
    0.2221    0.3134   -0.2480 C   0  0  2  0  0  0  0  0  0  0  0  0
    1.6779    0.2291    0.0990 C   0  0  0  0  0  0  0  0  0  0  0  0
    2.5937    0.3111   -0.6852 O   0  0  0  0  0  0  0  0  0  0  0  0
   -0.8679   -1.4251   -2.4812 H   0  0  0  0  0  0  0  0  0  0  0  0
   -0.8404   -0.1158   -3.6826 H   0  0  0  0  0  0  0  0  0  0  0  0
    0.6859   -0.8069   -3.0861 H   0  0  0  0  0  0  0  0  0  0  0  0
    1.2928    2.1217   -1.7150 H   0  0  0  0  0  0  0  0  0  0  0  0
   -0.3228    2.6028   -2.4149 H   0  0  0  0  0  0  0  0  0  0  0  0
   -1.5228    2.1440    1.4533 H   0  0  0  0  0  0  0  0  0  0  0  0
   -0.0559    3.1057    1.1595 H   0  0  0  0  0  0  0  0  0  0  0  0
   -1.5450    3.4593    0.2604 H   0  0  0  0  0  0  0  0  0  0  0  0
   -0.3694   -0.3853    0.3520 H   0  0  0  0  0  0  0  0  0  0  0  0
    1.8782    0.0758    1.1850 H   0  0  0  0  0  0  0  0  0  0  0  0
  1 10  1  0  0  0  0
  2  1  1  6  0  0  0
  2  6  1  0  0  0  0
  2  7  1  0  0  0  0
  3 13  1  0  0  0  0
  3  2  1  0  0  0  0
  3  4  1  0  0  0  0
  4  7  1  0  0  0  0
  4  5  1  1  0  0  0
  5 16  1  0  0  0  0
  5 15  1  0  0  0  0
  6  4  1  0  0  0  0
  7  8  1  0  0  0  0
  7 18  1  1  0  0  0
  8 19  1  0  0  0  0
  9  8  2  0  0  0  0
 11  1  1  0  0  0  0
 12  1  1  0  0  0  0
 14  3  1  0  0  0  0
 17  5  1  0  0  0  0
M TOR 0 0 1 2 3
M TOR 1 0 1 2 12
M TOR 2 0 1 2 13
M TOR 3 0 1 5 3
M TOR 4 0 1 6 3
M TOR 5 0 1 6 7
M TOR 6 0 1 6 17
M TOR 7 1 2 3 4
M TOR 8 1 2 3 5
M TOR 9 1 2 3 6
M TOR 10 1 5 3 4
M TOR 11 1 5 3 6
M TOR 12 1 6 3 4
M TOR 13 1 6 7 8
M TOR 14 1 6 7 18
M TOR 15 2 1 0 9
M TOR 16 2 1 0 10
M TOR 17 2 1 0 11
M TOR 18 2 1 6 7
M TOR 19 2 1 6 17
M TOR 20 2 3 4 14
M TOR 21 2 3 4 15
M TOR 22 2 3 4 16
M TOR 23 2 3 6 7
M TOR 24 2 3 6 17
M TOR 25 3 6 7 8
M TOR 26 3 6 7 18
M TOR 27 4 3 2 12
M TOR 28 4 3 2 13
M TOR 29 4 3 6 7
M TOR 30 4 3 6 17
M TOR 31 5 1 0 9
M TOR 32 5 1 0 10
M TOR 33 5 1 0 11
M TOR 34 5 1 2 12
M TOR 35 5 1 2 13
M TOR 36 5 1 6 7
M TOR 37 5 1 6 17
M TOR 38 5 3 2 12
M TOR 39 5 3 2 13
M TOR 40 5 3 4 14
M TOR 41 5 3 4 15
M TOR 42 5 3 4 16
M TOR 43 5 3 6 7
M TOR 44 5 3 6 17
M TOR 45 6 1 0 9
M TOR 46 6 1 0 10
M TOR 47 6 1 0 11
M TOR 48 6 1 2 12
M TOR 49 6 1 2 13
M TOR 50 6 3 2 12
M TOR 51 6 3 2 13
M TOR 52 6 3 4 14
M TOR 53 6 3 4 15
M TOR 54 6 3 4 16
M TOR 55 8 7 6 17
M  END
$$$$
