gdb 165	3.1729012	1.7265611	1.4157689	1.7212	74.98	-0.25458	0.09837	0.35295	958.9943	0.160229	-422.502575	-422.495928	-422.494984	-422.533197	27.755
 OpenBabel02181911403D

 19 21  0  0  1  0  0  0  0  0999 V2000
    1.1035    0.9453    1.0117 C   0  0  0  0  0  0  0  0  0  0  0  0
    2.2527    0.4562    0.0534 C   0  0  1  0  0  0  0  0  0  0  0  0
    1.8084   -0.9932    0.3841 C   0  0  0  0  0  0  0  0  0  0  0  0
    0.4827   -0.1926    0.1577 C   0  0  1  0  0  0  0  0  0  0  0  0
   -0.8554   -0.8062   -0.1468 C   0  0  0  0  0  0  0  0  0  0  0  0
   -0.6682   -1.5682   -1.3517 O   0  0  0  0  0  0  0  0  0  0  0  0
   -0.1069   -0.8328   -2.4115 C   0  0  0  0  0  0  0  0  0  0  0  0
    1.2179   -0.3819   -2.1746 O   0  0  0  0  0  0  0  0  0  0  0  0
    1.1707    0.4739   -1.0538 C   0  0  2  0  0  0  0  0  0  0  0  0
    1.2566    0.7396    2.0731 H   0  0  0  0  0  0  0  0  0  0  0  0
    0.7174    1.9562    0.8500 H   0  0  0  0  0  0  0  0  0  0  0  0
    3.2684    0.8491    0.0035 H   0  0  0  0  0  0  0  0  0  0  0  0
    2.0435   -1.7573   -0.3539 H   0  0  0  0  0  0  0  0  0  0  0  0
    1.9899   -1.3345    1.4066 H   0  0  0  0  0  0  0  0  0  0  0  0
   -1.2150   -1.5137    0.6053 H   0  0  0  0  0  0  0  0  0  0  0  0
   -1.6251   -0.0323   -0.3002 H   0  0  0  0  0  0  0  0  0  0  0  0
   -0.0598   -1.5091   -3.2663 H   0  0  0  0  0  0  0  0  0  0  0  0
   -0.7499    0.0371   -2.6444 H   0  0  0  0  0  0  0  0  0  0  0  0
    0.7973    1.4664   -1.3456 H   0  0  0  0  0  0  0  0  0  0  0  0
  1 10  1  0  0  0  0
  2 12  1  6  0  0  0
  2  3  1  0  0  0  0
  2  1  1  0  0  0  0
  3 14  1  0  0  0  0
  4  5  1  1  0  0  0
  4  3  1  0  0  0  0
  4  1  1  0  0  0  0
  5 15  1  0  0  0  0
  6  5  1  0  0  0  0
  7  8  1  0  0  0  0
  7  6  1  0  0  0  0
  8  9  1  0  0  0  0
  9 19  1  6  0  0  0
  9  2  1  0  0  0  0
  9  4  1  0  0  0  0
 11  1  1  0  0  0  0
 13  3  1  0  0  0  0
 16  5  1  0  0  0  0
 17  7  1  0  0  0  0
 18  7  1  0  0  0  0
M TOR 0 0 1 2 3
M TOR 1 0 1 2 12
M TOR 2 0 1 2 13
M TOR 3 0 1 8 3
M TOR 4 0 1 8 7
M TOR 5 0 1 8 18
M TOR 6 0 3 2 12
M TOR 7 0 3 2 13
M TOR 8 0 3 4 5
M TOR 9 0 3 4 14
M TOR 10 0 3 4 15
M TOR 11 0 3 8 7
M TOR 12 0 3 8 18
M TOR 13 1 0 3 4
M TOR 14 1 2 3 4
M TOR 15 1 2 3 8
M TOR 16 1 8 3 4
M TOR 17 1 8 7 6
M TOR 18 2 1 0 9
M TOR 19 2 1 0 10
M TOR 20 2 1 8 7
M TOR 21 2 1 8 18
M TOR 22 2 3 0 9
M TOR 23 2 3 0 10
M TOR 24 2 3 4 5
M TOR 25 2 3 4 14
M TOR 26 2 3 4 15
M TOR 27 2 3 8 7
M TOR 28 2 3 8 18
M TOR 29 3 0 1 11
M TOR 30 3 2 1 11
M TOR 31 3 4 5 6
M TOR 32 3 8 1 11
M TOR 33 3 8 7 6
M TOR 34 4 3 0 9
M TOR 35 4 3 0 10
M TOR 36 4 3 2 12
M TOR 37 4 3 2 13
M TOR 38 4 3 8 7
M TOR 39 4 3 8 18
M TOR 40 4 5 6 7
M TOR 41 4 5 6 16
M TOR 42 4 5 6 17
M TOR 43 5 4 3 8
M TOR 44 5 6 7 8
M TOR 45 6 5 4 14
M TOR 46 6 5 4 15
M TOR 47 6 7 8 18
M TOR 48 7 8 1 11
M TOR 49 8 1 0 9
M TOR 50 8 1 0 10
M TOR 51 8 1 2 12
M TOR 52 8 1 2 13
M TOR 53 8 3 0 9
M TOR 54 8 3 0 10
M TOR 55 8 3 2 12
M TOR 56 8 3 2 13
M TOR 57 8 3 4 14
M TOR 58 8 3 4 15
M TOR 59 8 7 6 16
M TOR 60 8 7 6 17
M  END
$$$$
