
     RDKit          3D

 19 20  0  0  0  0  0  0  0  0999 V2000
    1.1268    1.2411   -0.2538 C   0  0  0  0  0  0  0  0  0  0  0  0
    0.9443   -0.2825   -0.1896 C   0  0  0  0  0  0  0  0  0  0  0  0
    1.7163   -1.0029   -1.2582 C   0  0  0  0  0  0  0  0  0  0  0  0
    3.1756   -1.4234   -1.1481 C   0  0  0  0  0  0  0  0  0  0  0  0
    2.1284   -2.4432   -1.4655 C   0  0  0  0  0  0  0  0  0  0  0  0
    1.8092   -2.4229   -2.8648 O   0  0  0  0  0  0  0  0  0  0  0  0
    1.2987   -1.0760   -2.7406 C   0  0  0  0  0  0  0  0  0  0  0  0
    1.9169   -0.0858   -3.7045 C   0  0  0  0  0  0  0  0  0  0  0  0
    1.5262    1.0486   -3.8183 O   0  0  0  0  0  0  0  0  0  0  0  0
    0.5181    1.7399    0.5061 H   0  0  0  0  0  0  0  0  0  0  0  0
    2.1729    1.5164   -0.0855 H   0  0  0  0  0  0  0  0  0  0  0  0
    0.8373    1.6264   -1.2361 H   0  0  0  0  0  0  0  0  0  0  0  0
    1.2596   -0.6567    0.7922 H   0  0  0  0  0  0  0  0  0  0  0  0
   -0.1209   -0.5308   -0.2860 H   0  0  0  0  0  0  0  0  0  0  0  0
    3.9200   -1.1592   -1.8930 H   0  0  0  0  0  0  0  0  0  0  0  0
    3.5423   -1.4405   -0.1257 H   0  0  0  0  0  0  0  0  0  0  0  0
    1.9272   -3.3545   -0.9147 H   0  0  0  0  0  0  0  0  0  0  0  0
    0.2068   -1.0575   -2.8540 H   0  0  0  0  0  0  0  0  0  0  0  0
    2.7741   -0.4803   -4.2927 H   0  0  0  0  0  0  0  0  0  0  0  0
  1  2  1  0
  2  3  1  0
  3  4  1  0
  4  5  1  0
  5  6  1  0
  6  7  1  0
  7  8  1  0
  8  9  2  0
  5  3  1  0
  7  3  1  0
  1 10  1  0
  1 11  1  0
  1 12  1  0
  2 13  1  0
  2 14  1  0
  4 15  1  0
  4 16  1  0
  5 17  1  0
  7 18  1  0
  8 19  1  0
M  END
$$$$
