gdb 5415	3.5555156	0.7657589	0.6806777	0.9713	83.77	-0.22959	0.04287	0.27246	1708.6112	0.153008	-422.496003	-422.485058	-422.484113	-422.533268	37.055
 OpenBabel02181911423D

 19 19  0  0  1  0  0  0  0  0999 V2000
   -5.3611   -1.9413   -1.4415 C   0  0  0  0  0  0  0  0  0  0  0  0
   -4.4568   -1.5057   -0.4412 O   0  0  0  0  0  0  0  0  0  0  0  0
   -3.2792   -0.9965   -0.9696 C   0  0  1  0  0  0  0  0  0  0  0  0
   -3.2093    0.4452   -1.3900 C   0  0  2  0  0  0  0  0  0  0  0  0
   -2.4073    0.8136   -2.4624 O   0  0  0  0  0  0  0  0  0  0  0  0
   -2.5504   -0.0063   -0.0805 C   0  0  2  0  0  0  0  0  0  0  0  0
   -1.1201    0.0072   -0.0156 C   0  0  0  0  0  0  0  0  0  0  0  0
    0.0852    0.0710   -0.0223 C   0  0  0  0  0  0  0  0  0  0  0  0
    1.5405    0.1119    0.0116 C   0  0  0  0  0  0  0  0  0  0  0  0
   -4.9352   -2.7602   -2.0395 H   0  0  0  0  0  0  0  0  0  0  0  0
   -6.2546   -2.3036   -0.9284 H   0  0  0  0  0  0  0  0  0  0  0  0
   -5.6382   -1.1235   -2.1210 H   0  0  0  0  0  0  0  0  0  0  0  0
   -2.6655   -1.6951   -1.5405 H   0  0  0  0  0  0  0  0  0  0  0  0
   -4.1169    1.0359   -1.2836 H   0  0  0  0  0  0  0  0  0  0  0  0
   -1.5263    1.0102   -2.1162 H   0  0  0  0  0  0  0  0  0  0  0  0
   -3.0863    0.2602    0.8255 H   0  0  0  0  0  0  0  0  0  0  0  0
    1.9269   -0.3920    0.9044 H   0  0  0  0  0  0  0  0  0  0  0  0
    1.9720   -0.3884   -0.8623 H   0  0  0  0  0  0  0  0  0  0  0  0
    1.9148    1.1416    0.0237 H   0  0  0  0  0  0  0  0  0  0  0  0
  1 11  1  0  0  0  0
  1  2  1  0  0  0  0
  3 13  1  6  0  0  0
  3  2  1  0  0  0  0
  3  6  1  0  0  0  0
  4 14  1  1  0  0  0
  4  3  1  0  0  0  0
  4  6  1  0  0  0  0
  5 15  1  0  0  0  0
  5  4  1  0  0  0  0
  6  7  1  0  0  0  0
  6 16  1  1  0  0  0
  8  7  3  0  0  0  0
  8  9  1  0  0  0  0
  9 19  1  0  0  0  0
  9 17  1  0  0  0  0
 10  1  1  0  0  0  0
 12  1  1  0  0  0  0
 18  9  1  0  0  0  0
M TOR 0 0 1 2 3
M TOR 1 0 1 2 5
M TOR 2 0 1 2 12
M TOR 3 1 2 3 4
M TOR 4 1 2 3 5
M TOR 5 1 2 3 13
M TOR 6 1 2 5 6
M TOR 7 1 2 5 15
M TOR 8 2 1 0 9
M TOR 9 2 1 0 10
M TOR 10 2 1 0 11
M TOR 11 2 3 4 14
M TOR 12 2 3 5 6
M TOR 13 2 3 5 15
M TOR 14 2 5 3 4
M TOR 15 2 5 3 13
M TOR 16 2 5 6 7
M TOR 17 3 5 2 12
M TOR 18 3 5 6 7
M TOR 19 4 3 2 12
M TOR 20 4 3 5 6
M TOR 21 4 3 5 15
M TOR 22 5 3 4 14
M TOR 23 5 6 7 8
M TOR 24 6 5 2 12
M TOR 25 6 5 3 13
M TOR 26 6 7 8 16
M TOR 27 6 7 8 17
M TOR 28 6 7 8 18
M TOR 29 7 6 5 15
M  END
$$$$
