gdb 1963	4.2537994	1.1119068	1.0409342	2.4984	75.32	-0.2435	0.07094	0.31444	1205.9757	0.155758	-422.497576	-422.489143	-422.488199	-422.530851	31.51
 OpenBabel02181911403D

 19 21  0  0  1  0  0  0  0  0999 V2000
   -3.5951    2.7072    0.0065 C   0  0  0  0  0  0  0  0  0  0  0  0
   -2.1242    2.4515    0.0084 C   0  0  2  0  0  0  0  0  0  0  0  0
   -1.2296    1.9540   -1.1448 C   0  0  0  0  0  0  0  0  0  0  0  0
   -0.2631    1.3466   -0.0784 C   0  0  0  0  0  0  0  0  0  0  0  0
    1.2500    1.6069    0.0002 C   0  0  0  0  0  0  0  0  0  0  0  0
    1.5268    0.1926    0.1181 O   0  0  0  0  0  0  0  0  0  0  0  0
    0.1421   -0.1396   -0.0962 C   0  0  0  0  0  0  0  0  0  0  0  0
   -1.2068    1.8726    1.0070 C   0  0  1  0  0  0  0  0  0  0  0  0
   -1.2863    3.2942    0.8189 O   0  0  0  0  0  0  0  0  0  0  0  0
   -3.9495    2.9031    1.0219 H   0  0  0  0  0  0  0  0  0  0  0  0
   -3.8363    3.5786   -0.6128 H   0  0  0  0  0  0  0  0  0  0  0  0
   -4.1391    1.8475   -0.3978 H   0  0  0  0  0  0  0  0  0  0  0  0
   -1.7009    1.1798   -1.7580 H   0  0  0  0  0  0  0  0  0  0  0  0
   -0.8239    2.7369   -1.7912 H   0  0  0  0  0  0  0  0  0  0  0  0
    1.6927    2.0348   -0.9092 H   0  0  0  0  0  0  0  0  0  0  0  0
    1.5981    2.1754    0.8702 H   0  0  0  0  0  0  0  0  0  0  0  0
   -0.0175   -0.6474   -1.0578 H   0  0  0  0  0  0  0  0  0  0  0  0
   -0.2638   -0.7678    0.7077 H   0  0  0  0  0  0  0  0  0  0  0  0
   -1.3756    1.4907    2.0090 H   0  0  0  0  0  0  0  0  0  0  0  0
  1 10  1  0  0  0  0
  2  1  1  1  0  0  0
  2  9  1  0  0  0  0
  2  8  1  0  0  0  0
  3  4  1  0  0  0  0
  3  2  1  0  0  0  0
  4  5  1  0  0  0  0
  4  8  1  0  0  0  0
  5  6  1  0  0  0  0
  5 16  1  0  0  0  0
  7  4  1  0  0  0  0
  7  6  1  0  0  0  0
  7 18  1  0  0  0  0
  8 19  1  1  0  0  0
  9  8  1  0  0  0  0
 11  1  1  0  0  0  0
 12  1  1  0  0  0  0
 13  3  1  0  0  0  0
 14  3  1  0  0  0  0
 15  5  1  0  0  0  0
 17  7  1  0  0  0  0
M TOR 0 0 1 2 3
M TOR 1 0 1 2 12
M TOR 2 0 1 2 13
M TOR 3 0 1 7 3
M TOR 4 0 1 7 8
M TOR 5 0 1 7 18
M TOR 6 1 2 3 4
M TOR 7 1 2 3 6
M TOR 8 1 2 3 7
M TOR 9 1 7 3 4
M TOR 10 1 7 3 6
M TOR 11 1 8 7 3
M TOR 12 1 8 7 18
M TOR 13 2 1 0 9
M TOR 14 2 1 0 10
M TOR 15 2 1 0 11
M TOR 16 2 1 7 8
M TOR 17 2 1 7 18
M TOR 18 2 3 4 5
M TOR 19 2 3 4 14
M TOR 20 2 3 4 15
M TOR 21 2 3 6 5
M TOR 22 2 3 6 16
M TOR 23 2 3 6 17
M TOR 24 2 3 7 8
M TOR 25 2 3 7 18
M TOR 26 3 2 1 8
M TOR 27 3 4 5 6
M TOR 28 4 3 2 12
M TOR 29 4 3 2 13
M TOR 30 4 3 6 16
M TOR 31 4 3 6 17
M TOR 32 4 3 7 8
M TOR 33 4 3 7 18
M TOR 34 4 5 6 16
M TOR 35 4 5 6 17
M TOR 36 5 4 3 7
M TOR 37 5 6 3 7
M TOR 38 6 3 2 12
M TOR 39 6 3 2 13
M TOR 40 6 3 4 14
M TOR 41 6 3 4 15
M TOR 42 6 3 7 8
M TOR 43 6 3 7 18
M TOR 44 6 5 4 14
M TOR 45 6 5 4 15
M TOR 46 7 1 0 9
M TOR 47 7 1 0 10
M TOR 48 7 1 0 11
M TOR 49 7 1 2 12
M TOR 50 7 1 2 13
M TOR 51 7 3 2 12
M TOR 52 7 3 2 13
M TOR 53 7 3 4 14
M TOR 54 7 3 4 15
M TOR 55 7 3 6 16
M TOR 56 7 3 6 17
M TOR 57 8 1 0 9
M TOR 58 8 1 0 10
M TOR 59 8 1 0 11
M TOR 60 8 1 2 12
M TOR 61 8 1 2 13
M  END
$$$$
