
     RDKit          3D

 19 20  0  0  0  0  0  0  0  0999 V2000
   -2.5142    3.2468   -2.5953 C   0  0  0  0  0  0  0  0  0  0  0  0
   -1.4475    3.2192   -1.5463 C   0  0  0  0  0  0  0  0  0  0  0  0
    0.0030    3.7783   -1.5798 C   0  0  0  0  0  0  0  0  0  0  0  0
   -0.3395    3.3628   -0.1332 C   0  0  0  0  0  0  0  0  0  0  0  0
   -1.6626    4.0037   -0.2983 O   0  0  0  0  0  0  0  0  0  0  0  0
   -0.9770    2.0374   -0.6357 C   0  0  0  0  0  0  0  0  0  0  0  0
   -0.1627    0.8550   -1.1604 C   0  0  0  0  0  0  0  0  0  0  0  0
    0.3702    0.0105   -0.0213 C   0  0  0  0  0  0  0  0  0  0  0  0
    1.5307   -0.2572    0.1517 O   0  0  0  0  0  0  0  0  0  0  0  0
   -2.2294    2.6161   -3.4436 H   0  0  0  0  0  0  0  0  0  0  0  0
   -3.4614    2.8780   -2.1901 H   0  0  0  0  0  0  0  0  0  0  0  0
   -2.6661    4.2669   -2.9604 H   0  0  0  0  0  0  0  0  0  0  0  0
    0.7724    3.2303   -2.1267 H   0  0  0  0  0  0  0  0  0  0  0  0
    0.0657    4.8557   -1.7373 H   0  0  0  0  0  0  0  0  0  0  0  0
    0.2013    3.5636    0.7913 H   0  0  0  0  0  0  0  0  0  0  0  0
   -1.7830    1.7079    0.0275 H   0  0  0  0  0  0  0  0  0  0  0  0
   -0.8291    0.2143   -1.7570 H   0  0  0  0  0  0  0  0  0  0  0  0
    0.6784    1.1503   -1.7906 H   0  0  0  0  0  0  0  0  0  0  0  0
   -0.4138   -0.3568    0.6820 H   0  0  0  0  0  0  0  0  0  0  0  0
  1  2  1  0
  2  3  1  0
  3  4  1  0
  4  5  1  0
  4  6  1  0
  6  7  1  0
  7  8  1  0
  8  9  2  0
  5  2  1  0
  6  2  1  0
  1 10  1  0
  1 11  1  0
  1 12  1  0
  3 13  1  0
  3 14  1  0
  4 15  1  0
  6 16  1  0
  7 17  1  0
  7 18  1  0
  8 19  1  0
M  END
$$$$
