gdb 4723	2.2836654	0.9927239	0.7304212	3.7708	81.16	-0.24167	-0.02697	0.2147	1569.0354	0.153261	-422.552733	-422.541658	-422.540714	-422.59247	37.273
 OpenBabel02181911413D

 19 18  0  0  1  0  0  0  0  0999 V2000
    1.4609    0.3697    0.0360 C   0  0  0  0  0  0  0  0  0  0  0  0
    0.0110    0.2573    0.1074 C   0  0  0  0  0  0  0  0  0  0  0  0
   -1.1877    0.1514    0.1650 C   0  0  0  0  0  0  0  0  0  0  0  0
   -2.6446    0.0889    0.2027 C   0  0  2  0  0  0  0  0  0  0  0  0
   -3.2907    1.1703   -0.7018 C   0  0  0  0  0  0  0  0  0  0  0  0
   -4.6785    0.9902   -0.8395 O   0  0  0  0  0  0  0  0  0  0  0  0
   -3.2010    0.1582    1.6430 C   0  0  0  0  0  0  0  0  0  0  0  0
   -2.4810   -0.6353    2.7083 C   0  0  0  0  0  0  0  0  0  0  0  0
   -4.1942    0.8078    1.8925 O   0  0  0  0  0  0  0  0  0  0  0  0
    1.9371   -0.0562    0.9261 H   0  0  0  0  0  0  0  0  0  0  0  0
    1.8578   -0.1594   -0.8372 H   0  0  0  0  0  0  0  0  0  0  0  0
    1.7749    1.4165   -0.0386 H   0  0  0  0  0  0  0  0  0  0  0  0
   -2.9770   -0.8895   -0.1814 H   0  0  0  0  0  0  0  0  0  0  0  0
   -3.0362    2.1612   -0.2974 H   0  0  0  0  0  0  0  0  0  0  0  0
   -2.8509    1.0957   -1.7000 H   0  0  0  0  0  0  0  0  0  0  0  0
   -5.0404    1.1190    0.0475 H   0  0  0  0  0  0  0  0  0  0  0  0
   -3.0746   -0.6480    3.6228 H   0  0  0  0  0  0  0  0  0  0  0  0
   -2.2853   -1.6561    2.3641 H   0  0  0  0  0  0  0  0  0  0  0  0
   -1.5051   -0.1798    2.9036 H   0  0  0  0  0  0  0  0  0  0  0  0
  1  2  1  0  0  0  0
  1 10  1  0  0  0  0
  2  3  3  0  0  0  0
  3  4  1  0  0  0  0
  4 13  1  6  0  0  0
  4  7  1  0  0  0  0
  5 14  1  0  0  0  0
  5  4  1  0  0  0  0
  6  5  1  0  0  0  0
  6 16  1  0  0  0  0
  7  9  2  0  0  0  0
  7  8  1  0  0  0  0
  8 19  1  0  0  0  0
  8 17  1  0  0  0  0
 11  1  1  0  0  0  0
 12  1  1  0  0  0  0
 15  5  1  0  0  0  0
 18  8  1  0  0  0  0
M TOR 0 0 1 2 3
M TOR 1 1 2 3 4
M TOR 2 1 2 3 6
M TOR 3 1 2 3 12
M TOR 4 2 1 0 9
M TOR 5 2 1 0 10
M TOR 6 2 1 0 11
M TOR 7 2 3 4 5
M TOR 8 2 3 4 13
M TOR 9 2 3 4 14
M TOR 10 2 3 6 7
M TOR 11 2 3 6 8
M TOR 12 3 4 5 15
M TOR 13 3 6 7 16
M TOR 14 3 6 7 17
M TOR 15 3 6 7 18
M TOR 16 4 3 6 7
M TOR 17 4 3 6 8
M TOR 18 5 4 3 6
M TOR 19 5 4 3 12
M TOR 20 6 3 4 13
M TOR 21 6 3 4 14
M TOR 22 7 6 3 12
M TOR 23 8 6 3 12
M TOR 24 8 6 7 16
M TOR 25 8 6 7 17
M TOR 26 8 6 7 18
M  END
$$$$
