gdb 4242	3.1247669	1.6405813	1.3303122	2.1394	73.35	-0.23946	0.06858	0.30804	989.6553	0.159086	-422.540943	-422.533671	-422.532727	-422.57338	28.97
 OpenBabel02181911413D

 19 21  0  0  1  0  0  0  0  0999 V2000
    0.4525    0.7390    0.4561 O   0  0  0  0  0  0  0  0  0  0  0  0
   -0.6911    0.0363    0.9419 C   0  0  2  0  0  0  0  0  0  0  0  0
   -1.7857    0.1823   -0.1449 C   0  0  0  0  0  0  0  0  0  0  0  0
   -2.8933    1.0567    0.4490 C   0  0  1  0  0  0  0  0  0  0  0  0
   -3.8893    0.2716    1.1682 O   0  0  0  0  0  0  0  0  0  0  0  0
   -3.4347    0.7631    2.4440 C   0  0  1  0  0  0  0  0  0  0  0  0
   -2.3093   -0.1163    3.0343 C   0  0  0  0  0  0  0  0  0  0  0  0
   -1.2531    0.6985    2.2155 C   0  0  2  0  0  0  0  0  0  0  0  0
   -2.3811    1.6773    1.7685 C   0  0  1  0  0  0  0  0  0  0  0  0
    1.1455    0.6720    1.1211 H   0  0  0  0  0  0  0  0  0  0  0  0
   -0.4354   -1.0174    1.1277 H   0  0  0  0  0  0  0  0  0  0  0  0
   -1.3291    0.6528   -1.0200 H   0  0  0  0  0  0  0  0  0  0  0  0
   -2.2036   -0.7783   -0.4563 H   0  0  0  0  0  0  0  0  0  0  0  0
   -3.3794    1.7114   -0.2809 H   0  0  0  0  0  0  0  0  0  0  0  0
   -4.2598    1.0806    3.0856 H   0  0  0  0  0  0  0  0  0  0  0  0
   -2.1871    0.0236    4.1124 H   0  0  0  0  0  0  0  0  0  0  0  0
   -2.3970   -1.1853    2.8207 H   0  0  0  0  0  0  0  0  0  0  0  0
   -0.4494    1.1158    2.8267 H   0  0  0  0  0  0  0  0  0  0  0  0
   -2.2877    2.7538    1.8870 H   0  0  0  0  0  0  0  0  0  0  0  0
  1  2  1  0  0  0  0
  1 10  1  0  0  0  0
  2 11  1  1  0  0  0
  2  8  1  0  0  0  0
  3  4  1  0  0  0  0
  3  2  1  0  0  0  0
  4 14  1  6  0  0  0
  4  5  1  0  0  0  0
  4  9  1  0  0  0  0
  5  6  1  0  0  0  0
  6  7  1  0  0  0  0
  6 15  1  1  0  0  0
  7 16  1  0  0  0  0
  8 18  1  1  0  0  0
  8  7  1  0  0  0  0
  9 19  1  1  0  0  0
  9  8  1  0  0  0  0
  9  6  1  0  0  0  0
 12  3  1  0  0  0  0
 13  3  1  0  0  0  0
 17  7  1  0  0  0  0
M TOR 0 0 1 2 3
M TOR 1 0 1 2 11
M TOR 2 0 1 2 12
M TOR 3 0 1 7 6
M TOR 4 0 1 7 8
M TOR 5 0 1 7 17
M TOR 6 1 2 3 4
M TOR 7 1 2 3 8
M TOR 8 1 2 3 13
M TOR 9 1 7 6 5
M TOR 10 1 7 6 15
M TOR 11 1 7 6 16
M TOR 12 1 7 8 3
M TOR 13 1 7 8 5
M TOR 14 1 7 8 18
M TOR 15 2 1 0 9
M TOR 16 2 1 7 6
M TOR 17 2 1 7 8
M TOR 18 2 1 7 17
M TOR 19 2 3 4 5
M TOR 20 2 3 8 5
M TOR 21 2 3 8 7
M TOR 22 2 3 8 18
M TOR 23 3 2 1 7
M TOR 24 3 2 1 10
M TOR 25 3 4 5 6
M TOR 26 3 4 5 8
M TOR 27 3 4 5 14
M TOR 28 3 8 5 6
M TOR 29 3 8 5 14
M TOR 30 3 8 7 6
M TOR 31 3 8 7 17
M TOR 32 4 3 2 11
M TOR 33 4 3 2 12
M TOR 34 4 3 8 7
M TOR 35 4 3 8 18
M TOR 36 4 5 6 7
M TOR 37 4 5 6 15
M TOR 38 4 5 6 16
M TOR 39 4 5 8 7
M TOR 40 4 5 8 18
M TOR 41 5 4 3 13
M TOR 42 5 6 7 8
M TOR 43 5 6 7 17
M TOR 44 5 8 3 13
M TOR 45 5 8 7 17
M TOR 46 6 5 8 18
M TOR 47 6 7 1 10
M TOR 48 6 7 8 18
M TOR 49 7 1 0 9
M TOR 50 7 1 2 11
M TOR 51 7 1 2 12
M TOR 52 7 6 5 14
M TOR 53 7 8 3 13
M TOR 54 7 8 5 14
M TOR 55 8 3 2 11
M TOR 56 8 3 2 12
M TOR 57 8 5 6 15
M TOR 58 8 5 6 16
M TOR 59 8 7 1 10
M TOR 60 8 7 6 15
M TOR 61 8 7 6 16
M  END
$$$$
