gdb 2172	2.9035934	1.7462475	1.6036776	2.668	73.38	-0.23326	0.07465	0.30791	925.732	0.159775	-422.560566	-422.553625	-422.552681	-422.591365	28.919
 OpenBabel02181911403D

 19 21  0  0  1  0  0  0  0  0999 V2000
    0.5845    0.6720    0.5206 O   0  0  0  0  0  0  0  0  0  0  0  0
   -0.7736    0.9699    0.5037 C   0  0  2  0  0  0  0  0  0  0  0  0
   -1.8812   -0.0459    0.9282 C   0  0  0  0  0  0  0  0  0  0  0  0
   -2.7635    0.8275    0.0136 C   0  0  2  0  0  0  0  0  0  0  0  0
   -1.5186    1.0609   -0.8749 C   0  0  1  0  0  0  0  0  0  0  0  0
   -1.5921    2.3249   -1.5032 O   0  0  0  0  0  0  0  0  0  0  0  0
   -2.5669    3.0774   -0.7595 C   0  0  0  0  0  0  0  0  0  0  0  0
   -2.6947    2.2937    0.5508 C   0  0  2  0  0  0  0  0  0  0  0  0
   -1.2713    2.2608    1.1874 C   0  0  0  0  0  0  0  0  0  0  0  0
    0.9136    0.7798    1.4195 H   0  0  0  0  0  0  0  0  0  0  0  0
   -1.7116   -1.0411    0.5105 H   0  0  0  0  0  0  0  0  0  0  0  0
   -2.1328   -0.1170    1.9898 H   0  0  0  0  0  0  0  0  0  0  0  0
   -3.7138    0.4865   -0.3933 H   0  0  0  0  0  0  0  0  0  0  0  0
   -1.2391    0.2896   -1.5923 H   0  0  0  0  0  0  0  0  0  0  0  0
   -2.1977    4.0989   -0.6190 H   0  0  0  0  0  0  0  0  0  0  0  0
   -3.5148    3.1197   -1.3167 H   0  0  0  0  0  0  0  0  0  0  0  0
   -3.5039    2.6221    1.2039 H   0  0  0  0  0  0  0  0  0  0  0  0
   -0.6710    3.1338    0.9173 H   0  0  0  0  0  0  0  0  0  0  0  0
   -1.2842    2.1634    2.2781 H   0  0  0  0  0  0  0  0  0  0  0  0
  1 10  1  0  0  0  0
  2  1  1  1  0  0  0
  2  3  1  0  0  0  0
  2  9  1  0  0  0  0
  3 12  1  0  0  0  0
  4 13  1  6  0  0  0
  4  8  1  0  0  0  0
  4  3  1  0  0  0  0
  5 14  1  6  0  0  0
  5  4  1  0  0  0  0
  5  2  1  0  0  0  0
  6  5  1  0  0  0  0
  6  7  1  0  0  0  0
  7 15  1  0  0  0  0
  7  8  1  0  0  0  0
  8  9  1  0  0  0  0
  8 17  1  1  0  0  0
  9 19  1  0  0  0  0
 11  3  1  0  0  0  0
 16  7  1  0  0  0  0
 18  9  1  0  0  0  0
M TOR 0 0 1 2 3
M TOR 1 0 1 2 10
M TOR 2 0 1 2 11
M TOR 3 0 1 4 3
M TOR 4 0 1 4 5
M TOR 5 0 1 4 13
M TOR 6 0 1 8 7
M TOR 7 0 1 8 17
M TOR 8 0 1 8 18
M TOR 9 1 2 3 4
M TOR 10 1 2 3 7
M TOR 11 1 2 3 12
M TOR 12 1 4 3 7
M TOR 13 1 4 3 12
M TOR 14 1 4 5 6
M TOR 15 1 8 7 3
M TOR 16 1 8 7 6
M TOR 17 1 8 7 16
M TOR 18 2 1 0 9
M TOR 19 2 1 4 5
M TOR 20 2 1 4 13
M TOR 21 2 1 8 7
M TOR 22 2 1 8 17
M TOR 23 2 1 8 18
M TOR 24 2 3 4 5
M TOR 25 2 3 4 13
M TOR 26 2 3 7 6
M TOR 27 2 3 7 8
M TOR 28 2 3 7 16
M TOR 29 3 2 1 8
M TOR 30 3 4 1 8
M TOR 31 3 4 5 6
M TOR 32 3 7 6 5
M TOR 33 3 7 6 14
M TOR 34 3 7 6 15
M TOR 35 3 7 8 17
M TOR 36 3 7 8 18
M TOR 37 4 1 0 9
M TOR 38 4 1 2 10
M TOR 39 4 1 2 11
M TOR 40 4 1 8 7
M TOR 41 4 1 8 17
M TOR 42 4 1 8 18
M TOR 43 4 3 2 10
M TOR 44 4 3 2 11
M TOR 45 4 3 7 6
M TOR 46 4 3 7 8
M TOR 47 4 3 7 16
M TOR 48 4 5 6 7
M TOR 49 4 5 6 14
M TOR 50 4 5 6 15
M TOR 51 5 4 1 8
M TOR 52 5 4 3 7
M TOR 53 5 4 3 12
M TOR 54 5 6 7 8
M TOR 55 5 6 7 16
M TOR 56 6 5 4 13
M TOR 57 6 7 3 12
M TOR 58 6 7 8 17
M TOR 59 6 7 8 18
M TOR 60 7 3 2 10
M TOR 61 7 3 2 11
M TOR 62 7 3 4 13
M TOR 63 8 1 0 9
M TOR 64 8 1 2 10
M TOR 65 8 1 2 11
M TOR 66 8 1 4 13
M TOR 67 8 7 3 12
M TOR 68 8 7 6 14
M TOR 69 8 7 6 15
M  END
$$$$
