
     RDKit          3D

 19 20  0  0  0  0  0  0  0  0999 V2000
    2.5436   -3.5905   -2.3034 C   0  0  0  0  0  0  0  0  0  0  0  0
    2.3553   -2.0926   -2.3583 C   0  0  0  0  0  0  0  0  0  0  0  0
    1.4508   -1.5600   -2.9600 O   0  0  0  0  0  0  0  0  0  0  0  0
    3.3687   -1.2100   -1.6074 C   0  0  0  0  0  0  0  0  0  0  0  0
    2.6668   -0.4317   -0.5064 C   0  0  0  0  0  0  0  0  0  0  0  0
    4.5059   -1.9953   -1.1270 O   0  0  0  0  0  0  0  0  0  0  0  0
    5.3506   -1.4208   -2.1308 C   0  0  0  0  0  0  0  0  0  0  0  0
    5.5097    0.0474   -1.9134 C   0  0  0  0  0  0  0  0  0  0  0  0
    4.2726   -0.4795   -2.6134 C   0  0  0  0  0  0  0  0  0  0  0  0
    2.6405   -3.9280   -1.2668 H   0  0  0  0  0  0  0  0  0  0  0  0
    1.7014   -4.0802   -2.7936 H   0  0  0  0  0  0  0  0  0  0  0  0
    3.4794   -3.8687   -2.7989 H   0  0  0  0  0  0  0  0  0  0  0  0
    2.3041   -1.1130    0.2706 H   0  0  0  0  0  0  0  0  0  0  0  0
    3.3453    0.2858   -0.0402 H   0  0  0  0  0  0  0  0  0  0  0  0
    1.8112    0.1002   -0.9294 H   0  0  0  0  0  0  0  0  0  0  0  0
    6.0484   -2.0734   -2.6418 H   0  0  0  0  0  0  0  0  0  0  0  0
    5.4650    0.4509   -0.9064 H   0  0  0  0  0  0  0  0  0  0  0  0
    6.2107    0.5447   -2.5771 H   0  0  0  0  0  0  0  0  0  0  0  0
    3.9696   -0.1805   -3.6068 H   0  0  0  0  0  0  0  0  0  0  0  0
  1  2  1  0
  2  3  2  0
  2  4  1  0
  4  5  1  0
  4  6  1  0
  6  7  1  0
  7  8  1  0
  8  9  1  0
  9  4  1  0
  9  7  1  0
  1 10  1  0
  1 11  1  0
  1 12  1  0
  5 13  1  0
  5 14  1  0
  5 15  1  0
  7 16  1  0
  8 17  1  0
  8 18  1  0
  9 19  1  0
M  END
$$$$
