
     RDKit          3D

 19 20  0  0  0  0  0  0  0  0999 V2000
   -0.5365   -1.2909   -0.6027 O   0  0  0  0  0  0  0  0  0  0  0  0
   -0.2012    0.0894   -0.5104 C   0  0  0  0  0  0  0  0  0  0  0  0
   -0.3095    0.5983    0.8989 C   0  0  0  0  0  0  0  0  0  0  0  0
    0.8041    0.4756    1.8808 C   0  0  0  0  0  0  0  0  0  0  0  0
    0.3708    1.8782    1.5104 C   0  0  0  0  0  0  0  0  0  0  0  0
   -0.9403    2.2405    2.2155 C   0  0  0  0  0  0  0  0  0  0  0  0
   -1.6156    0.9638    1.6186 C   0  0  0  0  0  0  0  0  0  0  0  0
    1.2732    2.7860    0.7911 C   0  0  0  0  0  0  0  0  0  0  0  0
    2.2567    2.4384    0.1733 O   0  0  0  0  0  0  0  0  0  0  0  0
    0.1073   -1.7792   -0.0789 H   0  0  0  0  0  0  0  0  0  0  0  0
    0.8061    0.2957   -0.8995 H   0  0  0  0  0  0  0  0  0  0  0  0
   -0.9189    0.6048   -1.1577 H   0  0  0  0  0  0  0  0  0  0  0  0
    0.6148    0.1308    2.8949 H   0  0  0  0  0  0  0  0  0  0  0  0
    1.7717    0.2043    1.4700 H   0  0  0  0  0  0  0  0  0  0  0  0
   -0.8877    2.3041    3.3068 H   0  0  0  0  0  0  0  0  0  0  0  0
   -1.3846    3.1636    1.8345 H   0  0  0  0  0  0  0  0  0  0  0  0
   -1.9787    0.2219    2.3358 H   0  0  0  0  0  0  0  0  0  0  0  0
   -2.4250    1.2016    0.9253 H   0  0  0  0  0  0  0  0  0  0  0  0
    0.9719    3.8581    0.8270 H   0  0  0  0  0  0  0  0  0  0  0  0
  1  2  1  0
  2  3  1  0
  3  4  1  0
  4  5  1  0
  5  6  1  0
  6  7  1  0
  5  8  1  0
  8  9  2  0
  5  3  1  0
  7  3  1  0
  1 10  1  0
  2 11  1  0
  2 12  1  0
  4 13  1  0
  4 14  1  0
  6 15  1  0
  6 16  1  0
  7 17  1  0
  7 18  1  0
  8 19  1  0
M  END
$$$$
