gdb 4334	2.6151899	1.7141067	1.2575801	1.3768	75.3	-0.24382	0.00401	0.24783	1031.822	0.158993	-422.547802	-422.540168	-422.539224	-422.579565	30.515
 OpenBabel02181911413D

 19 20  0  0  1  0  0  0  0  0999 V2000
    1.0841    2.9610    2.3186 O   0  0  0  0  0  0  0  0  0  0  0  0
    0.8369    1.5989    1.9888 C   0  0  1  0  0  0  0  0  0  0  0  0
   -0.5525    1.1761    2.5219 C   0  0  0  0  0  0  0  0  0  0  0  0
   -1.0556   -0.2029    2.1590 C   0  0  0  0  0  0  0  0  0  0  0  0
   -0.9436   -0.7926    0.9672 C   0  0  0  0  0  0  0  0  0  0  0  0
   -0.2037   -0.1851   -0.1912 C   0  0  2  0  0  0  0  0  0  0  0  0
    1.3258   -0.1029    0.0566 C   0  0  0  0  0  0  0  0  0  0  0  0
    1.0016    1.3454    0.4757 C   0  0  1  0  0  0  0  0  0  0  0  0
   -0.2827    1.2680   -0.1984 O   0  0  0  0  0  0  0  0  0  0  0  0
    0.3954    3.4906    1.9005 H   0  0  0  0  0  0  0  0  0  0  0  0
    1.6215    1.0444    2.5170 H   0  0  0  0  0  0  0  0  0  0  0  0
   -0.5332    1.2906    3.6096 H   0  0  0  0  0  0  0  0  0  0  0  0
   -1.2737    1.9142    2.1456 H   0  0  0  0  0  0  0  0  0  0  0  0
   -1.5848   -0.7328    2.9473 H   0  0  0  0  0  0  0  0  0  0  0  0
   -1.3543   -1.7881    0.8166 H   0  0  0  0  0  0  0  0  0  0  0  0
   -0.5316   -0.6019   -1.1482 H   0  0  0  0  0  0  0  0  0  0  0  0
    1.7458   -0.7754    0.8055 H   0  0  0  0  0  0  0  0  0  0  0  0
    1.9120   -0.1458   -0.8633 H   0  0  0  0  0  0  0  0  0  0  0  0
    1.6319    2.1361    0.0564 H   0  0  0  0  0  0  0  0  0  0  0  0
  2  1  1  0  0  0  0
  2 11  1  1  0  0  0
  2  3  1  0  0  0  0
  3 12  1  0  0  0  0
  4  3  1  0  0  0  0
  4 14  1  0  0  0  0
  5  4  2  0  0  0  0
  6 16  1  6  0  0  0
  6  7  1  0  0  0  0
  6  5  1  0  0  0  0
  7  8  1  0  0  0  0
  7 17  1  0  0  0  0
  8 19  1  6  0  0  0
  8  2  1  0  0  0  0
  9  6  1  0  0  0  0
  9  8  1  0  0  0  0
 10  1  1  0  0  0  0
 13  3  1  0  0  0  0
 15  5  1  0  0  0  0
 18  7  1  0  0  0  0
M TOR 0 0 1 2 3
M TOR 1 0 1 2 11
M TOR 2 0 1 2 12
M TOR 3 0 1 7 6
M TOR 4 0 1 7 8
M TOR 5 0 1 7 18
M TOR 6 1 2 3 4
M TOR 7 1 2 3 13
M TOR 8 1 7 6 5
M TOR 9 1 7 6 16
M TOR 10 1 7 6 17
M TOR 11 1 7 8 5
M TOR 12 2 1 0 9
M TOR 13 2 1 7 6
M TOR 14 2 1 7 8
M TOR 15 2 1 7 18
M TOR 16 2 3 4 5
M TOR 17 2 3 4 14
M TOR 18 3 2 1 7
M TOR 19 3 2 1 10
M TOR 20 3 4 5 6
M TOR 21 3 4 5 8
M TOR 22 3 4 5 15
M TOR 23 4 3 2 11
M TOR 24 4 3 2 12
M TOR 25 4 5 6 7
M TOR 26 4 5 6 16
M TOR 27 4 5 6 17
M TOR 28 4 5 8 7
M TOR 29 5 4 3 13
M TOR 30 5 6 7 8
M TOR 31 5 6 7 18
M TOR 32 5 8 7 18
M TOR 33 6 5 4 14
M TOR 34 6 7 1 10
M TOR 35 7 1 0 9
M TOR 36 7 1 2 11
M TOR 37 7 1 2 12
M TOR 38 7 6 5 15
M TOR 39 7 8 5 15
M TOR 40 8 5 4 14
M TOR 41 8 5 6 16
M TOR 42 8 5 6 17
M TOR 43 8 7 1 10
M TOR 44 8 7 6 16
M TOR 45 8 7 6 17
M  END
$$$$
