
     RDKit          3D

 19 19  0  0  0  0  0  0  0  0999 V2000
    1.6863    0.7207    4.7711 C   0  0  0  0  0  0  0  0  0  0  0  0
    1.8288    0.4096    3.3240 C   0  0  0  0  0  0  0  0  0  0  0  0
    2.8968    0.2110    2.4989 C   0  0  0  0  0  0  0  0  0  0  0  0
    4.3529    0.2575    2.8467 C   0  0  0  0  0  0  0  0  0  0  0  0
    2.3404   -0.0619    1.1993 C   0  0  0  0  0  0  0  0  0  0  0  0
    0.9907   -0.0037    1.3221 C   0  0  0  0  0  0  0  0  0  0  0  0
   -0.1540   -0.2048    0.3923 C   0  0  0  0  0  0  0  0  0  0  0  0
   -0.9203   -1.3704    0.6835 O   0  0  0  0  0  0  0  0  0  0  0  0
    0.6616    0.2864    2.6182 O   0  0  0  0  0  0  0  0  0  0  0  0
    1.1347   -0.0655    5.2999 H   0  0  0  0  0  0  0  0  0  0  0  0
    2.6691    0.8144    5.2375 H   0  0  0  0  0  0  0  0  0  0  0  0
    1.1450    1.6608    4.9285 H   0  0  0  0  0  0  0  0  0  0  0  0
    4.5098    0.4842    3.9045 H   0  0  0  0  0  0  0  0  0  0  0  0
    4.8451   -0.6995    2.6381 H   0  0  0  0  0  0  0  0  0  0  0  0
    4.8799    1.0219    2.2639 H   0  0  0  0  0  0  0  0  0  0  0  0
    2.8877   -0.2757    0.2934 H   0  0  0  0  0  0  0  0  0  0  0  0
   -0.7972    0.6898    0.3917 H   0  0  0  0  0  0  0  0  0  0  0  0
    0.2330   -0.3346   -0.6217 H   0  0  0  0  0  0  0  0  0  0  0  0
   -1.1929   -1.3033    1.6047 H   0  0  0  0  0  0  0  0  0  0  0  0
  1  2  1  0
  2  3  2  0
  3  4  1  0
  3  5  1  0
  5  6  2  0
  6  7  1  0
  7  8  1  0
  6  9  1  0
  9  2  1  0
  1 10  1  0
  1 11  1  0
  1 12  1  0
  4 13  1  0
  4 14  1  0
  4 15  1  0
  5 16  1  0
  7 17  1  0
  7 18  1  0
  8 19  1  0
M  END
$$$$
