gdb 3821	2.5364167	1.7345756	1.3088569	2.7245	74.56	-0.23941	0.06274	0.30215000000000003	1040.9666	0.155244	-422.497358	-422.489124	-422.488179	-422.529607	32.049
 OpenBabel02181911413D

 19 21  0  0  1  0  0  0  0  0999 V2000
    0.2876   -0.2405   -0.4685 C   0  0  0  0  0  0  0  0  0  0  0  0
    0.8531    0.0950    0.8974 C   0  0  1  0  0  0  0  0  0  0  0  0
    2.1955   -0.4541    1.0736 O   0  0  0  0  0  0  0  0  0  0  0  0
    2.7652    0.8525    1.2584 C   0  0  2  0  0  0  0  0  0  0  0  0
    3.9934    1.1239    0.4319 C   0  0  0  0  0  0  0  0  0  0  0  0
    2.7979    1.3589    2.7421 C   0  0  2  0  0  0  0  0  0  0  0  0
    1.6247    0.8900    3.4038 O   0  0  0  0  0  0  0  0  0  0  0  0
    1.4972    2.0342    2.5582 C   0  0  2  0  0  0  0  0  0  0  0  0
    1.3816    1.5371    1.0964 C   0  0  2  0  0  0  0  0  0  0  0  0
    0.2116   -1.3255   -0.5898 H   0  0  0  0  0  0  0  0  0  0  0  0
   -0.7145    0.1885   -0.5810 H   0  0  0  0  0  0  0  0  0  0  0  0
    0.9246    0.1483   -1.2692 H   0  0  0  0  0  0  0  0  0  0  0  0
    0.1943   -0.2554    1.6977 H   0  0  0  0  0  0  0  0  0  0  0  0
    4.8026    0.4476    0.7302 H   0  0  0  0  0  0  0  0  0  0  0  0
    3.7915    0.9664   -0.6311 H   0  0  0  0  0  0  0  0  0  0  0  0
    4.3407    2.1528    0.5754 H   0  0  0  0  0  0  0  0  0  0  0  0
    3.6556    1.5968    3.3635 H   0  0  0  0  0  0  0  0  0  0  0  0
    1.0960    2.9381    3.0018 H   0  0  0  0  0  0  0  0  0  0  0  0
    1.1845    2.2842    0.3285 H   0  0  0  0  0  0  0  0  0  0  0  0
  1  2  1  0  0  0  0
  2  3  1  0  0  0  0
  2  9  1  0  0  0  0
  2 13  1  1  0  0  0
  3  4  1  0  0  0  0
  4  5  1  6  0  0  0
  4  6  1  0  0  0  0
  5 16  1  0  0  0  0
  5 14  1  0  0  0  0
  6 17  1  1  0  0  0
  6  7  1  0  0  0  0
  8  6  1  0  0  0  0
  8 18  1  1  0  0  0
  8  7  1  0  0  0  0
  9 19  1  6  0  0  0
  9  4  1  0  0  0  0
  9  8  1  0  0  0  0
 10  1  1  0  0  0  0
 11  1  1  0  0  0  0
 12  1  1  0  0  0  0
 15  5  1  0  0  0  0
M TOR 0 0 1 2 3
M TOR 1 0 1 8 3
M TOR 2 0 1 8 7
M TOR 3 0 1 8 18
M TOR 4 1 2 3 4
M TOR 5 1 2 3 5
M TOR 6 1 2 3 8
M TOR 7 1 8 3 4
M TOR 8 1 8 3 5
M TOR 9 1 8 7 5
M TOR 10 1 8 7 6
M TOR 11 1 8 7 17
M TOR 12 2 1 0 9
M TOR 13 2 1 0 10
M TOR 14 2 1 0 11
M TOR 15 2 1 8 7
M TOR 16 2 1 8 18
M TOR 17 2 3 4 13
M TOR 18 2 3 4 14
M TOR 19 2 3 4 15
M TOR 20 2 3 5 6
M TOR 21 2 3 5 7
M TOR 22 2 3 5 16
M TOR 23 2 3 8 7
M TOR 24 2 3 8 18
M TOR 25 3 2 1 12
M TOR 26 3 5 6 7
M TOR 27 3 5 7 8
M TOR 28 3 5 7 17
M TOR 29 3 8 1 12
M TOR 30 3 8 7 6
M TOR 31 3 8 7 17
M TOR 32 4 3 5 6
M TOR 33 4 3 5 7
M TOR 34 4 3 5 16
M TOR 35 4 3 8 7
M TOR 36 4 3 8 18
M TOR 37 5 3 4 13
M TOR 38 5 3 4 14
M TOR 39 5 3 4 15
M TOR 40 5 3 8 18
M TOR 41 5 6 7 8
M TOR 42 5 6 7 17
M TOR 43 5 7 8 18
M TOR 44 6 5 3 8
M TOR 45 6 7 5 16
M TOR 46 6 7 8 18
M TOR 47 7 8 1 12
M TOR 48 8 1 0 9
M TOR 49 8 1 0 10
M TOR 50 8 1 0 11
M TOR 51 8 3 4 13
M TOR 52 8 3 4 14
M TOR 53 8 3 4 15
M TOR 54 8 3 5 16
M TOR 55 8 7 5 16
M  END
$$$$
