
     RDKit          3D

 19 20  0  0  0  0  0  0  0  0999 V2000
    1.6880    1.2856    0.1522 C   0  0  0  0  0  0  0  0  0  0  0  0
    1.3929   -0.2088    0.0946 C   0  0  0  0  0  0  0  0  0  0  0  0
    1.9893   -1.1634    1.1859 C   0  0  0  0  0  0  0  0  0  0  0  0
    2.5778   -2.0638    0.1059 C   0  0  0  0  0  0  0  0  0  0  0  0
    3.5073   -1.2545   -0.7928 C   0  0  0  0  0  0  0  0  0  0  0  0
    2.0615   -1.0377   -1.0013 C   0  0  0  0  0  0  0  0  0  0  0  0
    1.4073   -1.2532   -2.1903 O   0  0  0  0  0  0  0  0  0  0  0  0
    2.5142   -3.5193    0.0677 C   0  0  0  0  0  0  0  0  0  0  0  0
    2.0484   -4.2129    0.9452 O   0  0  0  0  0  0  0  0  0  0  0  0
    1.2100    1.7416    1.0254 H   0  0  0  0  0  0  0  0  0  0  0  0
    2.7631    1.4828    0.2229 H   0  0  0  0  0  0  0  0  0  0  0  0
    1.3094    1.7945   -0.7404 H   0  0  0  0  0  0  0  0  0  0  0  0
    0.3132   -0.3727    0.0262 H   0  0  0  0  0  0  0  0  0  0  0  0
    2.7260   -0.7015    1.8517 H   0  0  0  0  0  0  0  0  0  0  0  0
    1.2346   -1.6705    1.7878 H   0  0  0  0  0  0  0  0  0  0  0  0
    4.1528   -0.5038   -0.3401 H   0  0  0  0  0  0  0  0  0  0  0  0
    3.9963   -1.8444   -1.5665 H   0  0  0  0  0  0  0  0  0  0  0  0
    2.0500   -1.3517   -2.8994 H   0  0  0  0  0  0  0  0  0  0  0  0
    2.9120   -3.9723   -0.8713 H   0  0  0  0  0  0  0  0  0  0  0  0
  1  2  1  0
  2  3  1  0
  3  4  1  0
  4  5  1  0
  5  6  1  0
  6  7  1  0
  4  8  1  0
  8  9  2  0
  6  2  1  0
  6  4  1  0
  1 10  1  0
  1 11  1  0
  1 12  1  0
  2 13  1  0
  3 14  1  0
  3 15  1  0
  5 16  1  0
  5 17  1  0
  7 18  1  0
  8 19  1  0
M  END
$$$$
