gdb 2469	2.5536566	1.9424004	1.6134558	1.2813	74.25	-0.23655	0.06562	0.30217	924.188	0.158247	-422.492493	-422.485065	-422.484121	-422.524019	30.249
 OpenBabel02181911413D

 19 21  0  0  1  0  0  0  0  0999 V2000
    0.3859    0.3380    0.5814 O   0  0  0  0  0  0  0  0  0  0  0  0
   -0.9029    0.7299    1.0085 C   0  0  2  0  0  0  0  0  0  0  0  0
   -1.2019    2.1955    0.6405 C   0  0  0  0  0  0  0  0  0  0  0  0
   -0.9430    2.9358    2.0169 C   0  0  0  0  0  0  0  0  0  0  0  0
   -0.7145    1.9442    3.0586 O   0  0  0  0  0  0  0  0  0  0  0  0
   -1.2046    0.7704    2.5037 C   0  0  2  0  0  0  0  0  0  0  0  0
   -0.9525   -0.7567    2.5811 C   0  0  0  0  0  0  0  0  0  0  0  0
   -1.8460   -0.4853    1.2934 C   0  0  1  0  0  0  0  0  0  0  0  0
   -2.7039    0.4443    2.1852 C   0  0  0  0  0  0  0  0  0  0  0  0
    1.0292    0.9486    0.9599 H   0  0  0  0  0  0  0  0  0  0  0  0
   -0.5226    2.5399   -0.1411 H   0  0  0  0  0  0  0  0  0  0  0  0
   -2.2196    2.3778    0.2945 H   0  0  0  0  0  0  0  0  0  0  0  0
   -0.0623    3.5839    1.9906 H   0  0  0  0  0  0  0  0  0  0  0  0
   -1.8088    3.5466    2.2951 H   0  0  0  0  0  0  0  0  0  0  0  0
    0.0618   -1.1016    2.3974 H   0  0  0  0  0  0  0  0  0  0  0  0
   -1.4465   -1.3000    3.3891 H   0  0  0  0  0  0  0  0  0  0  0  0
   -2.2014   -1.2404    0.5950 H   0  0  0  0  0  0  0  0  0  0  0  0
   -3.3072    1.2043    1.6886 H   0  0  0  0  0  0  0  0  0  0  0  0
   -3.2636   -0.0458    2.9836 H   0  0  0  0  0  0  0  0  0  0  0  0
  1 10  1  0  0  0  0
  2  1  1  6  0  0  0
  2  8  1  0  0  0  0
  2  6  1  0  0  0  0
  3  2  1  0  0  0  0
  3  4  1  0  0  0  0
  4 14  1  0  0  0  0
  4  5  1  0  0  0  0
  6  7  1  0  0  0  0
  6  5  1  1  0  0  0
  7 16  1  0  0  0  0
  8 17  1  6  0  0  0
  8  9  1  0  0  0  0
  8  7  1  0  0  0  0
  9  6  1  0  0  0  0
  9 19  1  0  0  0  0
 11  3  1  0  0  0  0
 12  3  1  0  0  0  0
 13  4  1  0  0  0  0
 15  7  1  0  0  0  0
 18  9  1  0  0  0  0
M TOR 0 0 1 2 3
M TOR 1 0 1 2 10
M TOR 2 0 1 2 11
M TOR 3 0 1 5 4
M TOR 4 0 1 5 6
M TOR 5 0 1 5 8
M TOR 6 0 1 7 6
M TOR 7 0 1 7 8
M TOR 8 0 1 7 16
M TOR 9 1 2 3 4
M TOR 10 1 2 3 12
M TOR 11 1 2 3 13
M TOR 12 1 5 4 3
M TOR 13 1 5 6 7
M TOR 14 1 5 6 14
M TOR 15 1 5 6 15
M TOR 16 1 5 8 7
M TOR 17 1 5 8 17
M TOR 18 1 5 8 18
M TOR 19 1 7 6 14
M TOR 20 1 7 6 15
M TOR 21 1 7 8 17
M TOR 22 1 7 8 18
M TOR 23 2 1 0 9
M TOR 24 2 1 5 4
M TOR 25 2 1 5 6
M TOR 26 2 1 5 8
M TOR 27 2 1 7 6
M TOR 28 2 1 7 8
M TOR 29 2 1 7 16
M TOR 30 2 3 4 5
M TOR 31 3 2 1 5
M TOR 32 3 2 1 7
M TOR 33 3 4 5 6
M TOR 34 3 4 5 8
M TOR 35 4 3 2 10
M TOR 36 4 3 2 11
M TOR 37 4 5 1 7
M TOR 38 4 5 6 7
M TOR 39 4 5 6 14
M TOR 40 4 5 6 15
M TOR 41 4 5 8 7
M TOR 42 4 5 8 17
M TOR 43 4 5 8 18
M TOR 44 5 1 0 9
M TOR 45 5 1 2 10
M TOR 46 5 1 2 11
M TOR 47 5 1 7 16
M TOR 48 5 4 3 12
M TOR 49 5 4 3 13
M TOR 50 5 6 7 8
M TOR 51 5 6 7 16
M TOR 52 5 8 7 16
M TOR 53 6 5 8 17
M TOR 54 6 5 8 18
M TOR 55 6 7 8 17
M TOR 56 6 7 8 18
M TOR 57 7 1 0 9
M TOR 58 7 1 2 10
M TOR 59 7 1 2 11
M TOR 60 8 5 6 14
M TOR 61 8 5 6 15
M TOR 62 8 7 6 14
M TOR 63 8 7 6 15
M  END
$$$$
