
     RDKit          3D

 19 21  0  0  0  0  0  0  0  0999 V2000
    3.1941   -5.3962   -1.0101 C   0  0  0  0  0  0  0  0  0  0  0  0
    2.5449   -4.0963   -0.6332 C   0  0  0  0  0  0  0  0  0  0  0  0
    3.1503   -2.8189    0.0060 C   0  0  0  0  0  0  0  0  0  0  0  0
    1.6632   -2.4370   -0.1638 C   0  0  0  0  0  0  0  0  0  0  0  0
    0.8913   -1.1929    0.1644 C   0  0  0  0  0  0  0  0  0  0  0  0
   -0.4801   -1.3211   -0.1787 O   0  0  0  0  0  0  0  0  0  0  0  0
    1.5489   -3.2516   -1.4927 C   0  0  0  0  0  0  0  0  0  0  0  0
    0.3557   -3.9943   -1.0665 O   0  0  0  0  0  0  0  0  0  0  0  0
    1.1969   -3.8988    0.1335 C   0  0  0  0  0  0  0  0  0  0  0  0
    3.6416   -5.8832   -0.1372 H   0  0  0  0  0  0  0  0  0  0  0  0
    2.4516   -6.0768   -1.4390 H   0  0  0  0  0  0  0  0  0  0  0  0
    3.9866   -5.2432   -1.7503 H   0  0  0  0  0  0  0  0  0  0  0  0
    3.5159   -2.9145    1.0329 H   0  0  0  0  0  0  0  0  0  0  0  0
    3.8700   -2.2635   -0.6029 H   0  0  0  0  0  0  0  0  0  0  0  0
    0.9818   -0.9730    1.2397 H   0  0  0  0  0  0  0  0  0  0  0  0
    1.3263   -0.3345   -0.3712 H   0  0  0  0  0  0  0  0  0  0  0  0
   -0.6083   -2.1999   -0.5607 H   0  0  0  0  0  0  0  0  0  0  0  0
    1.6138   -2.9227   -2.5301 H   0  0  0  0  0  0  0  0  0  0  0  0
    0.8372   -4.3506    1.0582 H   0  0  0  0  0  0  0  0  0  0  0  0
  1  2  1  0
  2  3  1  0
  3  4  1  0
  4  5  1  0
  5  6  1  0
  4  7  1  0
  7  8  1  0
  8  9  1  0
  7  2  1  0
  9  2  1  0
  9  4  1  0
  1 10  1  0
  1 11  1  0
  1 12  1  0
  3 13  1  0
  3 14  1  0
  5 15  1  0
  5 16  1  0
  6 17  1  0
  7 18  1  0
  9 19  1  0
M  END
$$$$
