
     RDKit          3D

 19 21  0  0  0  0  0  0  0  0999 V2000
   -0.0921   -0.8740   -3.0571 C   0  0  0  0  0  0  0  0  0  0  0  0
    0.9799    0.2165   -3.4304 C   0  0  0  0  0  0  0  0  0  0  0  0
    0.3498    1.1501   -2.3679 C   0  0  0  0  0  0  0  0  0  0  0  0
   -0.9282    1.9371   -2.7472 C   0  0  0  0  0  0  0  0  0  0  0  0
   -1.7716    0.8523   -2.2542 O   0  0  0  0  0  0  0  0  0  0  0  0
   -0.6072    0.0598   -1.9215 C   0  0  0  0  0  0  0  0  0  0  0  0
   -0.3351   -0.1409   -0.4412 C   0  0  0  0  0  0  0  0  0  0  0  0
    0.4197    1.1754   -0.0925 C   0  0  0  0  0  0  0  0  0  0  0  0
    1.1234    1.5806   -1.2833 O   0  0  0  0  0  0  0  0  0  0  0  0
   -0.8495   -1.0502   -3.8225 H   0  0  0  0  0  0  0  0  0  0  0  0
    0.3159   -1.8334   -2.7318 H   0  0  0  0  0  0  0  0  0  0  0  0
    1.9976   -0.0651   -3.1545 H   0  0  0  0  0  0  0  0  0  0  0  0
    0.9747    0.5735   -4.4626 H   0  0  0  0  0  0  0  0  0  0  0  0
   -1.0815    2.8637   -2.1824 H   0  0  0  0  0  0  0  0  0  0  0  0
   -1.0865    2.1275   -3.8152 H   0  0  0  0  0  0  0  0  0  0  0  0
   -1.2448   -0.2652    0.1507 H   0  0  0  0  0  0  0  0  0  0  0  0
    0.3100   -1.0096   -0.2790 H   0  0  0  0  0  0  0  0  0  0  0  0
   -0.2954    1.9543    0.2068 H   0  0  0  0  0  0  0  0  0  0  0  0
    1.1589    1.0625    0.7042 H   0  0  0  0  0  0  0  0  0  0  0  0
  1  2  1  0
  2  3  1  0
  3  4  1  0
  4  5  1  0
  5  6  1  0
  6  7  1  0
  7  8  1  0
  8  9  1  0
  6  1  1  0
  6  3  1  0
  9  3  1  0
  1 10  1  0
  1 11  1  0
  2 12  1  0
  2 13  1  0
  4 14  1  0
  4 15  1  0
  7 16  1  0
  7 17  1  0
  8 18  1  0
  8 19  1  0
M  END
$$$$
