gdb 2833	2.4725861	1.5381408	1.2198477	2.6644	74.82	-0.24003	0.06344	0.30347	1086.1232	0.156181	-422.512065	-422.503469	-422.502525	-422.544673	33.311
 OpenBabel02181911413D

 19 21  0  0  1  0  0  0  0  0999 V2000
   -2.6439   -4.2232    3.8041 C   0  0  0  0  0  0  0  0  0  0  0  0
   -2.6936   -3.3840    2.5681 C   0  0  1  0  0  0  0  0  0  0  0  0
   -3.7671   -2.4845    1.9834 C   0  0  1  0  0  0  0  0  0  0  0  0
   -2.3756   -1.9228    2.3088 C   0  0  2  0  0  0  0  0  0  0  0  0
   -1.4594   -2.2691    1.1359 C   0  0  1  0  0  0  0  0  0  0  0  0
   -0.0969   -2.3868    1.4827 O   0  0  0  0  0  0  0  0  0  0  0  0
   -2.2487   -3.6044    1.0460 C   0  0  2  0  0  0  0  0  0  0  0  0
   -3.6757   -3.1637    0.6176 C   0  0  1  0  0  0  0  0  0  0  0  0
   -4.6063   -4.2070    0.4281 O   0  0  0  0  0  0  0  0  0  0  0  0
   -3.2170   -5.1518    3.6941 H   0  0  0  0  0  0  0  0  0  0  0  0
   -1.6177   -4.5062    4.0682 H   0  0  0  0  0  0  0  0  0  0  0  0
   -3.0637   -3.6771    4.6562 H   0  0  0  0  0  0  0  0  0  0  0  0
   -4.6541   -2.0977    2.4727 H   0  0  0  0  0  0  0  0  0  0  0  0
   -2.2501   -1.1274    3.0349 H   0  0  0  0  0  0  0  0  0  0  0  0
   -1.4789   -1.6283    0.2478 H   0  0  0  0  0  0  0  0  0  0  0  0
   -0.0466   -2.8734    2.3137 H   0  0  0  0  0  0  0  0  0  0  0  0
   -1.7893   -4.4926    0.6146 H   0  0  0  0  0  0  0  0  0  0  0  0
   -3.7468   -2.5438   -0.2826 H   0  0  0  0  0  0  0  0  0  0  0  0
   -4.6352   -4.7256    1.2406 H   0  0  0  0  0  0  0  0  0  0  0  0
  1 11  1  0  0  0  0
  1 12  1  0  0  0  0
  2  1  1  1  0  0  0
  3  4  1  0  0  0  0
  3 13  1  1  0  0  0
  3  2  1  0  0  0  0
  4  2  1  0  0  0  0
  4 14  1  1  0  0  0
  5 15  1  6  0  0  0
  5  6  1  0  0  0  0
  5  4  1  0  0  0  0
  6 16  1  0  0  0  0
  7 17  1  6  0  0  0
  7  5  1  0  0  0  0
  7  2  1  0  0  0  0
  8 18  1  6  0  0  0
  8  7  1  0  0  0  0
  8  3  1  0  0  0  0
  9  8  1  0  0  0  0
  9 19  1  0  0  0  0
 10  1  1  0  0  0  0
M TOR 0 0 1 2 3
M TOR 1 0 1 2 7
M TOR 2 0 1 2 12
M TOR 3 0 1 3 4
M TOR 4 0 1 3 13
M TOR 5 0 1 6 4
M TOR 6 0 1 6 7
M TOR 7 0 1 6 16
M TOR 8 1 2 3 4
M TOR 9 1 2 3 13
M TOR 10 1 2 7 6
M TOR 11 1 2 7 8
M TOR 12 1 2 7 17
M TOR 13 1 3 2 7
M TOR 14 1 3 2 12
M TOR 15 1 3 4 5
M TOR 16 1 3 4 6
M TOR 17 1 3 4 14
M TOR 18 1 6 4 5
M TOR 19 1 6 4 14
M TOR 20 1 6 7 8
M TOR 21 1 6 7 17
M TOR 22 2 1 0 9
M TOR 23 2 1 0 10
M TOR 24 2 1 0 11
M TOR 25 2 1 6 4
M TOR 26 2 1 6 16
M TOR 27 2 3 1 6
M TOR 28 2 3 4 5
M TOR 29 2 3 4 6
M TOR 30 2 3 4 14
M TOR 31 2 7 6 4
M TOR 32 2 7 6 16
M TOR 33 2 7 8 18
M TOR 34 3 1 0 9
M TOR 35 3 1 0 10
M TOR 36 3 1 0 11
M TOR 37 3 1 6 7
M TOR 38 3 1 6 16
M TOR 39 3 2 7 6
M TOR 40 3 2 7 8
M TOR 41 3 2 7 17
M TOR 42 3 4 5 15
M TOR 43 3 4 6 7
M TOR 44 3 4 6 16
M TOR 45 4 3 2 7
M TOR 46 4 3 2 12
M TOR 47 4 6 7 8
M TOR 48 4 6 7 17
M TOR 49 5 4 3 13
M TOR 50 5 4 6 7
M TOR 51 5 4 6 16
M TOR 52 6 1 0 9
M TOR 53 6 1 0 10
M TOR 54 6 1 0 11
M TOR 55 6 1 2 12
M TOR 56 6 1 3 13
M TOR 57 6 4 3 13
M TOR 58 6 4 5 15
M TOR 59 6 7 2 12
M TOR 60 6 7 8 18
M TOR 61 7 2 3 13
M TOR 62 7 6 4 14
M TOR 63 8 7 2 12
M TOR 64 8 7 6 16
M  END
$$$$
