gdb 567	3.338083	1.7243642	1.7060034	2.571	72.51	-0.24515	0.08461	0.32976	895.6	0.161691	-422.586028	-422.579745	-422.5788	-422.616321	26.478
 OpenBabel02181911403D

 19 21  0  0  1  0  0  0  0  0999 V2000
    1.6224   -0.0932   -0.0637 C   0  0  0  0  0  0  0  0  0  0  0  0
    0.9550    0.4350   -1.3715 C   0  0  0  0  0  0  0  0  0  0  0  0
    1.1008    1.9642   -1.2534 C   0  0  1  0  0  0  0  0  0  0  0  0
    0.2261    2.5677   -0.1383 C   0  0  2  0  0  0  0  0  0  0  0  0
    0.7567    3.8556    0.0749 O   0  0  0  0  0  0  0  0  0  0  0  0
    2.1853    3.6546    0.0891 C   0  0  0  0  0  0  0  0  0  0  0  0
    2.3561    2.2003   -0.3702 C   0  0  1  0  0  0  0  0  0  0  0  0
    1.8437    1.2125    0.7030 C   0  0  1  0  0  0  0  0  0  0  0  0
    0.5212    1.7429    0.9904 O   0  0  0  0  0  0  0  0  0  0  0  0
    0.9812   -0.7730    0.5012 H   0  0  0  0  0  0  0  0  0  0  0  0
    2.5695   -0.6049   -0.2662 H   0  0  0  0  0  0  0  0  0  0  0  0
    1.4640    0.0650   -2.2656 H   0  0  0  0  0  0  0  0  0  0  0  0
   -0.0939    0.1353   -1.4505 H   0  0  0  0  0  0  0  0  0  0  0  0
    1.0447    2.5246   -2.1867 H   0  0  0  0  0  0  0  0  0  0  0  0
   -0.8529    2.6435   -0.2683 H   0  0  0  0  0  0  0  0  0  0  0  0
    2.6540    4.3709   -0.5952 H   0  0  0  0  0  0  0  0  0  0  0  0
    2.5770    3.8284    1.0989 H   0  0  0  0  0  0  0  0  0  0  0  0
    3.3277    1.9532   -0.7987 H   0  0  0  0  0  0  0  0  0  0  0  0
    2.4095    1.1465    1.6341 H   0  0  0  0  0  0  0  0  0  0  0  0
  1 10  1  0  0  0  0
  1  8  1  0  0  0  0
  2  3  1  0  0  0  0
  2  1  1  0  0  0  0
  3 14  1  6  0  0  0
  3  7  1  0  0  0  0
  3  4  1  0  0  0  0
  4 15  1  6  0  0  0
  4  5  1  0  0  0  0
  4  9  1  0  0  0  0
  5  6  1  0  0  0  0
  6 17  1  0  0  0  0
  7 18  1  6  0  0  0
  7  6  1  0  0  0  0
  7  8  1  0  0  0  0
  8  9  1  0  0  0  0
  8 19  1  1  0  0  0
 11  1  1  0  0  0  0
 12  2  1  0  0  0  0
 13  2  1  0  0  0  0
 16  6  1  0  0  0  0
M TOR 0 0 1 2 3
M TOR 1 0 1 2 6
M TOR 2 0 1 2 13
M TOR 3 0 7 6 2
M TOR 4 0 7 6 5
M TOR 5 0 7 6 17
M TOR 6 0 7 8 3
M TOR 7 1 0 7 6
M TOR 8 1 0 7 8
M TOR 9 1 0 7 18
M TOR 10 1 2 3 4
M TOR 11 1 2 3 8
M TOR 12 1 2 3 14
M TOR 13 1 2 6 5
M TOR 14 1 2 6 7
M TOR 15 1 2 6 17
M TOR 16 2 1 0 7
M TOR 17 2 1 0 9
M TOR 18 2 1 0 10
M TOR 19 2 3 4 5
M TOR 20 2 3 8 7
M TOR 21 2 6 5 4
M TOR 22 2 6 5 15
M TOR 23 2 6 5 16
M TOR 24 2 6 7 8
M TOR 25 2 6 7 18
M TOR 26 3 2 1 11
M TOR 27 3 2 1 12
M TOR 28 3 2 6 5
M TOR 29 3 2 6 7
M TOR 30 3 2 6 17
M TOR 31 3 4 5 6
M TOR 32 3 4 5 15
M TOR 33 3 4 5 16
M TOR 34 3 8 7 6
M TOR 35 3 8 7 18
M TOR 36 4 3 2 6
M TOR 37 4 3 2 13
M TOR 38 4 3 8 7
M TOR 39 4 5 6 7
M TOR 40 4 5 6 17
M TOR 41 5 4 3 8
M TOR 42 5 4 3 14
M TOR 43 5 6 2 13
M TOR 44 5 6 7 8
M TOR 45 5 6 7 18
M TOR 46 6 2 1 11
M TOR 47 6 2 1 12
M TOR 48 6 2 3 8
M TOR 49 6 2 3 14
M TOR 50 6 7 0 9
M TOR 51 6 7 0 10
M TOR 52 7 0 1 11
M TOR 53 7 0 1 12
M TOR 54 7 6 2 13
M TOR 55 7 6 5 15
M TOR 56 7 6 5 16
M TOR 57 7 8 3 14
M TOR 58 8 3 2 13
M TOR 59 8 7 0 9
M TOR 60 8 7 0 10
M TOR 61 8 7 6 17
M  END
$$$$
