
     RDKit          3D

 19 20  0  0  0  0  0  0  0  0999 V2000
   -2.9067   -1.4770    1.5779 C   0  0  0  0  0  0  0  0  0  0  0  0
   -1.7645   -0.5574    1.1699 C   0  0  0  0  0  0  0  0  0  0  0  0
   -1.9758    0.4157   -0.0350 C   0  0  0  0  0  0  0  0  0  0  0  0
   -1.6531   -0.7752   -0.9840 C   0  0  0  0  0  0  0  0  0  0  0  0
   -0.6885   -1.1745    0.1861 C   0  0  0  0  0  0  0  0  0  0  0  0
   -0.1230   -2.4174    0.3411 O   0  0  0  0  0  0  0  0  0  0  0  0
    0.2812   -0.0144    0.1292 C   0  0  0  0  0  0  0  0  0  0  0  0
    1.4801   -0.1056    0.2193 O   0  0  0  0  0  0  0  0  0  0  0  0
   -0.6417    1.1986   -0.0438 C   0  0  0  0  0  0  0  0  0  0  0  0
   -2.5352   -2.2636    2.2418 H   0  0  0  0  0  0  0  0  0  0  0  0
   -3.6728   -0.9130    2.1207 H   0  0  0  0  0  0  0  0  0  0  0  0
   -3.3926   -1.9661    0.7299 H   0  0  0  0  0  0  0  0  0  0  0  0
   -1.3447   -0.0872    2.0678 H   0  0  0  0  0  0  0  0  0  0  0  0
   -2.8950    0.9886   -0.1412 H   0  0  0  0  0  0  0  0  0  0  0  0
   -2.4729   -1.4823   -1.0999 H   0  0  0  0  0  0  0  0  0  0  0  0
   -1.2119   -0.5530   -1.9599 H   0  0  0  0  0  0  0  0  0  0  0  0
    0.8345   -2.2700    0.4041 H   0  0  0  0  0  0  0  0  0  0  0  0
   -0.5313    1.9084    0.7821 H   0  0  0  0  0  0  0  0  0  0  0  0
   -0.4398    1.7268   -0.9811 H   0  0  0  0  0  0  0  0  0  0  0  0
  1  2  1  0
  2  3  1  0
  3  4  1  0
  4  5  1  0
  5  6  1  0
  5  7  1  0
  7  8  2  0
  7  9  1  0
  5  2  1  0
  9  3  1  0
  1 10  1  0
  1 11  1  0
  1 12  1  0
  2 13  1  0
  3 14  1  0
  4 15  1  0
  4 16  1  0
  6 17  1  0
  9 18  1  0
  9 19  1  0
M  END
$$$$
