gdb 1147	3.1593071	1.2054678	1.0098981	2.9186	78.08	-0.2364	-0.01669	0.21971	1226.0865	0.156263	-422.580068	-422.571184	-422.57024	-422.614661	32.479
 OpenBabel02181911403D

 19 19  0  0  1  0  0  0  0  0999 V2000
   -2.2787    5.4441   -1.2660 C   0  0  0  0  0  0  0  0  0  0  0  0
   -1.4574    4.5234   -2.1358 C   0  0  0  0  0  0  0  0  0  0  0  0
   -0.7892    4.9049   -3.0675 O   0  0  0  0  0  0  0  0  0  0  0  0
   -1.5004    3.0147   -1.8193 C   0  0  1  0  0  0  0  0  0  0  0  0
   -2.1355    2.8104   -0.5734 O   0  0  0  0  0  0  0  0  0  0  0  0
   -2.5183    1.4597   -0.3501 C   0  0  0  0  0  0  0  0  0  0  0  0
   -3.5780    1.0135   -1.3580 C   0  0  0  0  0  0  0  0  0  0  0  0
   -3.1486    1.4025   -2.7482 C   0  0  0  0  0  0  0  0  0  0  0  0
   -2.1807    2.2913   -2.9569 C   0  0  0  0  0  0  0  0  0  0  0  0
   -1.9511    5.3666   -0.2247 H   0  0  0  0  0  0  0  0  0  0  0  0
   -2.1796    6.4689   -1.6249 H   0  0  0  0  0  0  0  0  0  0  0  0
   -3.3278    5.1314   -1.2777 H   0  0  0  0  0  0  0  0  0  0  0  0
   -0.4434    2.6950   -1.7690 H   0  0  0  0  0  0  0  0  0  0  0  0
   -1.6371    0.8025   -0.4201 H   0  0  0  0  0  0  0  0  0  0  0  0
   -2.8914    1.4179    0.6765 H   0  0  0  0  0  0  0  0  0  0  0  0
   -3.7181   -0.0727   -1.2892 H   0  0  0  0  0  0  0  0  0  0  0  0
   -4.5497    1.4647   -1.1150 H   0  0  0  0  0  0  0  0  0  0  0  0
   -3.6404    0.9222   -3.5898 H   0  0  0  0  0  0  0  0  0  0  0  0
   -1.8336    2.5558   -3.9502 H   0  0  0  0  0  0  0  0  0  0  0  0
  1 10  1  0  0  0  0
  2  4  1  0  0  0  0
  2  1  1  0  0  0  0
  3  2  2  0  0  0  0
  4 13  1  1  0  0  0
  4  5  1  0  0  0  0
  5  6  1  0  0  0  0
  6 15  1  0  0  0  0
  7 16  1  0  0  0  0
  7 17  1  0  0  0  0
  7  6  1  0  0  0  0
  8  7  1  0  0  0  0
  9  8  2  0  0  0  0
  9  4  1  0  0  0  0
 11  1  1  0  0  0  0
 12  1  1  0  0  0  0
 14  6  1  0  0  0  0
 18  8  1  0  0  0  0
 19  9  1  0  0  0  0
M TOR 0 0 1 3 4
M TOR 1 0 1 3 8
M TOR 2 0 1 3 12
M TOR 3 1 3 4 5
M TOR 4 1 3 8 7
M TOR 5 1 3 8 18
M TOR 6 2 1 0 9
M TOR 7 2 1 0 10
M TOR 8 2 1 0 11
M TOR 9 2 1 3 4
M TOR 10 2 1 3 8
M TOR 11 2 1 3 12
M TOR 12 3 1 0 9
M TOR 13 3 1 0 10
M TOR 14 3 1 0 11
M TOR 15 3 4 5 6
M TOR 16 3 4 5 13
M TOR 17 3 4 5 14
M TOR 18 3 8 7 6
M TOR 19 3 8 7 17
M TOR 20 4 3 8 7
M TOR 21 4 3 8 18
M TOR 22 4 5 6 7
M TOR 23 4 5 6 15
M TOR 24 4 5 6 16
M TOR 25 5 4 3 8
M TOR 26 5 4 3 12
M TOR 27 5 6 7 8
M TOR 28 5 6 7 17
M TOR 29 6 7 8 18
M TOR 30 7 6 5 13
M TOR 31 7 6 5 14
M TOR 32 7 8 3 12
M TOR 33 8 7 6 15
M TOR 34 8 7 6 16
M  END
$$$$
