gdb 276	3.4086943	1.3980097	1.2644349	0.8843	74.11	-0.24074	0.07226	0.313	1059.1757	0.158133	-422.536466	-422.528801	-422.527856	-422.568935	29.505
 OpenBabel02181911403D

 19 21  0  0  1  0  0  0  0  0999 V2000
    0.0053    1.5433    0.0788 C   0  0  0  0  0  0  0  0  0  0  0  0
   -0.2606    0.0375   -0.1037 C   0  0  0  0  0  0  0  0  0  0  0  0
    1.2776   -0.0987   -0.1096 C   0  0  2  0  0  0  0  0  0  0  0  0
    1.9796   -0.6896   -1.3455 C   0  0  0  0  0  0  0  0  0  0  0  0
    3.4118   -1.0535   -0.8856 C   0  0  0  0  0  0  0  0  0  0  0  0
    3.2456   -1.3328    0.5958 C   0  0  2  0  0  0  0  0  0  0  0  0
    2.1285   -2.1866    0.8913 O   0  0  0  0  0  0  0  0  0  0  0  0
    1.9717   -0.7709    1.0590 C   0  0  2  0  0  0  0  0  0  0  0  0
    1.4340    1.3459    0.0089 O   0  0  0  0  0  0  0  0  0  0  0  0
   -0.3560    2.1990   -0.7221 H   0  0  0  0  0  0  0  0  0  0  0  0
   -0.3009    1.9647    1.0442 H   0  0  0  0  0  0  0  0  0  0  0  0
   -0.7730   -0.4658    0.7180 H   0  0  0  0  0  0  0  0  0  0  0  0
   -0.7393   -0.2369   -1.0455 H   0  0  0  0  0  0  0  0  0  0  0  0
    1.4441   -1.5904   -1.6571 H   0  0  0  0  0  0  0  0  0  0  0  0
    1.9619    0.0235   -2.1722 H   0  0  0  0  0  0  0  0  0  0  0  0
    3.8278   -1.9051   -1.4321 H   0  0  0  0  0  0  0  0  0  0  0  0
    4.0977   -0.2082   -1.0119 H   0  0  0  0  0  0  0  0  0  0  0  0
    4.1051   -1.4510    1.2502 H   0  0  0  0  0  0  0  0  0  0  0  0
    1.7953   -0.4195    2.0725 H   0  0  0  0  0  0  0  0  0  0  0  0
  1 11  1  0  0  0  0
  2  1  1  0  0  0  0
  2 12  1  0  0  0  0
  3  2  1  0  0  0  0
  3  9  1  1  0  0  0
  3  8  1  0  0  0  0
  4  5  1  0  0  0  0
  4  3  1  0  0  0  0
  5  6  1  0  0  0  0
  6  7  1  0  0  0  0
  6  8  1  0  0  0  0
  6 18  1  1  0  0  0
  7  8  1  0  0  0  0
  8 19  1  1  0  0  0
  9  1  1  0  0  0  0
 10  1  1  0  0  0  0
 13  2  1  0  0  0  0
 14  4  1  0  0  0  0
 15  4  1  0  0  0  0
 16  5  1  0  0  0  0
 17  5  1  0  0  0  0
M TOR 0 0 1 2 3
M TOR 1 0 1 2 7
M TOR 2 0 1 2 8
M TOR 3 0 8 2 3
M TOR 4 0 8 2 7
M TOR 5 1 2 3 4
M TOR 6 1 2 3 13
M TOR 7 1 2 3 14
M TOR 8 1 2 7 5
M TOR 9 1 2 7 6
M TOR 10 1 2 7 18
M TOR 11 2 1 0 9
M TOR 12 2 1 0 10
M TOR 13 2 3 4 5
M TOR 14 2 3 4 15
M TOR 15 2 3 4 16
M TOR 16 2 7 5 4
M TOR 17 2 7 5 6
M TOR 18 2 7 5 17
M TOR 19 2 8 0 9
M TOR 20 2 8 0 10
M TOR 21 3 2 1 11
M TOR 22 3 2 1 12
M TOR 23 3 2 7 5
M TOR 24 3 2 7 6
M TOR 25 3 2 7 18
M TOR 26 3 4 5 6
M TOR 27 3 4 5 7
M TOR 28 3 4 5 17
M TOR 29 4 3 2 7
M TOR 30 4 3 2 8
M TOR 31 4 5 6 7
M TOR 32 4 5 7 18
M TOR 33 5 4 3 13
M TOR 34 5 4 3 14
M TOR 35 5 6 7 18
M TOR 36 5 7 2 8
M TOR 37 6 5 4 15
M TOR 38 6 5 4 16
M TOR 39 6 7 2 8
M TOR 40 6 7 5 17
M TOR 41 7 2 1 11
M TOR 42 7 2 1 12
M TOR 43 7 2 3 13
M TOR 44 7 2 3 14
M TOR 45 7 5 4 15
M TOR 46 7 5 4 16
M TOR 47 8 0 1 11
M TOR 48 8 0 1 12
M TOR 49 8 2 1 11
M TOR 50 8 2 1 12
M TOR 51 8 2 3 13
M TOR 52 8 2 3 14
M TOR 53 8 2 7 18
M  END
$$$$
