
     RDKit          3D

 19 21  0  0  0  0  0  0  0  0999 V2000
    0.9477   -0.5514   -0.8851 C   0  0  0  0  0  0  0  0  0  0  0  0
    0.9202    0.1735    0.4426 C   0  0  0  0  0  0  0  0  0  0  0  0
    1.8216    1.3830    0.6580 C   0  0  0  0  0  0  0  0  0  0  0  0
    1.3772    2.4423    1.6628 C   0  0  0  0  0  0  0  0  0  0  0  0
    1.4141    1.7184    3.0063 C   0  0  0  0  0  0  0  0  0  0  0  0
    2.7224    1.2797    3.3939 O   0  0  0  0  0  0  0  0  0  0  0  0
    1.8100    0.3159    2.8308 C   0  0  0  0  0  0  0  0  0  0  0  0
    2.0899    0.0679    1.3771 C   0  0  0  0  0  0  0  0  0  0  0  0
    3.1283   -0.7957    1.0405 O   0  0  0  0  0  0  0  0  0  0  0  0
    0.5713   -1.5744   -0.7818 H   0  0  0  0  0  0  0  0  0  0  0  0
    0.3244   -0.0357   -1.6233 H   0  0  0  0  0  0  0  0  0  0  0  0
    1.9660   -0.6149   -1.2752 H   0  0  0  0  0  0  0  0  0  0  0  0
   -0.0613    0.2225    0.9123 H   0  0  0  0  0  0  0  0  0  0  0  0
    2.4618    1.6647   -0.1705 H   0  0  0  0  0  0  0  0  0  0  0  0
    2.0500    3.3066    1.6755 H   0  0  0  0  0  0  0  0  0  0  0  0
    0.3665    2.8167    1.4581 H   0  0  0  0  0  0  0  0  0  0  0  0
    0.7779    2.0417    3.8264 H   0  0  0  0  0  0  0  0  0  0  0  0
    1.5077   -0.4881    3.4978 H   0  0  0  0  0  0  0  0  0  0  0  0
    3.9395   -0.4215    1.4042 H   0  0  0  0  0  0  0  0  0  0  0  0
  1  2  1  0
  2  3  1  0
  3  4  1  0
  4  5  1  0
  5  6  1  0
  6  7  1  0
  7  8  1  0
  8  9  1  0
  8  2  1  0
  8  3  1  0
  7  5  1  0
  1 10  1  0
  1 11  1  0
  1 12  1  0
  2 13  1  0
  3 14  1  0
  4 15  1  0
  4 16  1  0
  5 17  1  0
  7 18  1  0
  9 19  1  0
M  END
$$$$
