gdb 578	3.5793833	1.5658297	1.4332102	1.6976	73.62	-0.22764	0.08245	0.31009	965.8235	0.160693	-422.537153	-422.530556	-422.529612	-422.567746	27.344
 OpenBabel02181911403D

 19 21  0  0  1  0  0  0  0  0999 V2000
    3.2500   -0.2650    0.7721 C   0  0  0  0  0  0  0  0  0  0  0  0
    2.5890   -0.2169   -0.5200 O   0  0  0  0  0  0  0  0  0  0  0  0
    1.2876    0.2597   -0.1738 C   0  0  1  0  0  0  0  0  0  0  0  0
    0.8983   -0.5516    1.0986 C   0  0  2  0  0  0  0  0  0  0  0  0
   -0.4243   -0.1165    1.7372 C   0  0  0  0  0  0  0  0  0  0  0  0
   -0.6980    1.3487    1.3783 C   0  0  0  0  0  0  0  0  0  0  0  0
    0.4970    2.1202    1.3665 O   0  0  0  0  0  0  0  0  0  0  0  0
    1.5926    1.4383    0.8067 C   0  0  1  0  0  0  0  0  0  0  0  0
    2.1257    0.2397    1.6684 C   0  0  2  0  0  0  0  0  0  0  0  0
    3.5665   -1.2920    0.9909 H   0  0  0  0  0  0  0  0  0  0  0  0
    4.1329    0.3855    0.7629 H   0  0  0  0  0  0  0  0  0  0  0  0
    0.6764    0.3406   -1.0718 H   0  0  0  0  0  0  0  0  0  0  0  0
    1.0013   -1.6379    1.0269 H   0  0  0  0  0  0  0  0  0  0  0  0
   -1.2526   -0.7360    1.3757 H   0  0  0  0  0  0  0  0  0  0  0  0
   -0.3711   -0.2538    2.8238 H   0  0  0  0  0  0  0  0  0  0  0  0
   -1.1723    1.3981    0.3861 H   0  0  0  0  0  0  0  0  0  0  0  0
   -1.3725    1.8308    2.0910 H   0  0  0  0  0  0  0  0  0  0  0  0
    2.3149    2.1876    0.4734 H   0  0  0  0  0  0  0  0  0  0  0  0
    2.3093    0.3397    2.7380 H   0  0  0  0  0  0  0  0  0  0  0  0
  1 10  1  0  0  0  0
  1  9  1  0  0  0  0
  2  3  1  0  0  0  0
  2  1  1  0  0  0  0
  3 12  1  6  0  0  0
  3  8  1  0  0  0  0
  3  4  1  0  0  0  0
  4 13  1  6  0  0  0
  4  9  1  0  0  0  0
  4  5  1  0  0  0  0
  5 15  1  0  0  0  0
  6  5  1  0  0  0  0
  6 17  1  0  0  0  0
  7  6  1  0  0  0  0
  8 18  1  6  0  0  0
  8  7  1  0  0  0  0
  8  9  1  0  0  0  0
  9 19  1  1  0  0  0
 11  1  1  0  0  0  0
 14  5  1  0  0  0  0
 16  6  1  0  0  0  0
M TOR 0 0 1 2 3
M TOR 1 0 1 2 7
M TOR 2 0 1 2 11
M TOR 3 0 8 3 2
M TOR 4 0 8 3 4
M TOR 5 0 8 3 12
M TOR 6 0 8 7 2
M TOR 7 0 8 7 6
M TOR 8 0 8 7 17
M TOR 9 1 0 8 3
M TOR 10 1 0 8 7
M TOR 11 1 0 8 18
M TOR 12 1 2 3 4
M TOR 13 1 2 3 8
M TOR 14 1 2 3 12
M TOR 15 1 2 7 6
M TOR 16 1 2 7 8
M TOR 17 1 2 7 17
M TOR 18 2 1 0 8
M TOR 19 2 1 0 9
M TOR 20 2 1 0 10
M TOR 21 2 3 4 5
M TOR 22 2 3 4 13
M TOR 23 2 3 4 14
M TOR 24 2 3 8 7
M TOR 25 2 3 8 18
M TOR 26 2 7 6 5
M TOR 27 2 7 8 18
M TOR 28 3 2 7 6
M TOR 29 3 2 7 17
M TOR 30 3 4 5 6
M TOR 31 3 4 5 15
M TOR 32 3 4 5 16
M TOR 33 3 8 0 9
M TOR 34 3 8 0 10
M TOR 35 3 8 7 6
M TOR 36 3 8 7 17
M TOR 37 4 3 2 7
M TOR 38 4 3 2 11
M TOR 39 4 3 8 7
M TOR 40 4 3 8 18
M TOR 41 4 5 6 7
M TOR 42 5 4 3 8
M TOR 43 5 4 3 12
M TOR 44 5 6 7 8
M TOR 45 5 6 7 17
M TOR 46 6 5 4 13
M TOR 47 6 5 4 14
M TOR 48 6 7 2 11
M TOR 49 6 7 8 18
M TOR 50 7 2 3 12
M TOR 51 7 6 5 15
M TOR 52 7 6 5 16
M TOR 53 7 8 0 9
M TOR 54 7 8 0 10
M TOR 55 7 8 3 12
M TOR 56 8 3 2 11
M TOR 57 8 3 4 13
M TOR 58 8 3 4 14
M TOR 59 8 7 2 11
M  END
$$$$
