gdb 788	3.3321716	1.037023	0.9201552	2.479	76.79	-0.2434	-0.02723	0.21617	1324.8424	0.154273	-422.519524	-422.510366	-422.509422	-422.554188	33.514
 OpenBabel02181911403D

 19 20  0  0  0  0  0  0  0  0999 V2000
    0.5932    0.0431    1.1913 O   0  0  0  0  0  0  0  0  0  0  0  0
    0.5988    0.1771   -0.0088 C   0  0  0  0  0  0  0  0  0  0  0  0
   -0.3314    1.0647   -0.7629 C   0  0  0  0  0  0  0  0  0  0  0  0
   -0.6162    2.4222   -0.1474 C   0  0  0  0  0  0  0  0  0  0  0  0
   -1.6812    1.3728   -0.1367 C   0  0  0  0  0  0  0  0  0  0  0  0
   -0.1754    1.0312   -2.1500 O   0  0  0  0  0  0  0  0  0  0  0  0
   -0.8196   -0.0412   -2.7891 C   0  0  0  0  0  0  0  0  0  0  0  0
   -0.9011    0.0439   -4.2763 C   0  0  0  0  0  0  0  0  0  0  0  0
   -2.1594    0.1838   -3.4401 C   0  0  0  0  0  0  0  0  0  0  0  0
    1.3343   -0.3483   -0.6584 H   0  0  0  0  0  0  0  0  0  0  0  0
   -0.1039    2.6477    0.7806 H   0  0  0  0  0  0  0  0  0  0  0  0
   -0.7055    3.2364   -0.8568 H   0  0  0  0  0  0  0  0  0  0  0  0
   -1.8922    0.8696    0.8002 H   0  0  0  0  0  0  0  0  0  0  0  0
   -2.5138    1.4777   -0.8203 H   0  0  0  0  0  0  0  0  0  0  0  0
   -0.6279   -1.0123   -2.3355 H   0  0  0  0  0  0  0  0  0  0  0  0
   -0.5075    0.9474   -4.7279 H   0  0  0  0  0  0  0  0  0  0  0  0
   -0.7498   -0.8589   -4.8566 H   0  0  0  0  0  0  0  0  0  0  0  0
   -2.5835    1.1783   -3.3632 H   0  0  0  0  0  0  0  0  0  0  0  0
   -2.8830   -0.6239   -3.4370 H   0  0  0  0  0  0  0  0  0  0  0  0
  2  1  2  0  0  0  0
  3  4  1  0  0  0  0
  3  5  1  0  0  0  0
  3  2  1  0  0  0  0
  4  5  1  0  0  0  0
  4 11  1  0  0  0  0
  5 13  1  0  0  0  0
  6  3  1  0  0  0  0
  7 15  1  0  0  0  0
  7  6  1  0  0  0  0
  8  9  1  0  0  0  0
  8  7  1  0  0  0  0
  9 19  1  0  0  0  0
  9 18  1  0  0  0  0
  9  7  1  0  0  0  0
 10  2  1  0  0  0  0
 12  4  1  0  0  0  0
 14  5  1  0  0  0  0
 16  8  1  0  0  0  0
 17  8  1  0  0  0  0
M TOR 0 0 1 2 3
M TOR 1 0 1 2 4
M TOR 2 0 1 2 5
M TOR 3 1 2 3 4
M TOR 4 1 2 3 10
M TOR 5 1 2 3 11
M TOR 6 1 2 4 12
M TOR 7 1 2 4 13
M TOR 8 1 2 5 6
M TOR 9 2 3 4 12
M TOR 10 2 3 4 13
M TOR 11 2 4 3 10
M TOR 12 2 4 3 11
M TOR 13 2 5 6 7
M TOR 14 2 5 6 8
M TOR 15 2 5 6 14
M TOR 16 3 2 1 9
M TOR 17 3 2 5 6
M TOR 18 3 4 2 5
M TOR 19 4 2 1 9
M TOR 20 4 2 5 6
M TOR 21 5 2 1 9
M TOR 22 5 2 3 10
M TOR 23 5 2 3 11
M TOR 24 5 2 4 12
M TOR 25 5 2 4 13
M TOR 26 5 6 7 8
M TOR 27 5 6 7 15
M TOR 28 5 6 7 16
M TOR 29 5 6 8 17
M TOR 30 5 6 8 18
M TOR 31 6 7 8 17
M TOR 32 6 7 8 18
M TOR 33 6 8 7 15
M TOR 34 6 8 7 16
M TOR 35 7 8 6 14
M  END
$$$$
