
     RDKit          3D

 19 21  0  0  0  0  0  0  0  0999 V2000
   -2.6860    3.4230   -1.1723 C   0  0  0  0  0  0  0  0  0  0  0  0
   -2.7066    2.1280   -0.4103 C   0  0  0  0  0  0  0  0  0  0  0  0
   -3.2785    1.9624    1.0222 C   0  0  0  0  0  0  0  0  0  0  0  0
   -3.4666    0.5404    0.4551 C   0  0  0  0  0  0  0  0  0  0  0  0
   -3.7503    1.1689   -0.8416 O   0  0  0  0  0  0  0  0  0  0  0  0
   -2.0464   -0.0155    0.2318 C   0  0  0  0  0  0  0  0  0  0  0  0
   -0.8510    0.6846    0.8318 C   0  0  0  0  0  0  0  0  0  0  0  0
    0.3972    0.0598    0.7888 O   0  0  0  0  0  0  0  0  0  0  0  0
   -1.4508    1.2218   -0.4442 C   0  0  0  0  0  0  0  0  0  0  0  0
   -1.9267    4.0938   -0.7581 H   0  0  0  0  0  0  0  0  0  0  0  0
   -2.4432    3.2432   -2.2248 H   0  0  0  0  0  0  0  0  0  0  0  0
   -3.6582    3.9201   -1.1231 H   0  0  0  0  0  0  0  0  0  0  0  0
   -2.6644    2.1488    1.9044 H   0  0  0  0  0  0  0  0  0  0  0  0
   -4.2387    2.4713    1.1051 H   0  0  0  0  0  0  0  0  0  0  0  0
   -4.2443   -0.1434    0.7925 H   0  0  0  0  0  0  0  0  0  0  0  0
   -1.9269   -1.0151   -0.1723 H   0  0  0  0  0  0  0  0  0  0  0  0
   -0.9269    1.2304    1.7643 H   0  0  0  0  0  0  0  0  0  0  0  0
    0.4693   -0.4332   -0.0353 H   0  0  0  0  0  0  0  0  0  0  0  0
   -0.8766    1.1671   -1.3639 H   0  0  0  0  0  0  0  0  0  0  0  0
  1  2  1  0
  2  3  1  0
  3  4  1  0
  4  5  1  0
  4  6  1  0
  6  7  1  0
  7  8  1  0
  7  9  1  0
  5  2  1  0
  9  6  1  0
  9  2  1  0
  1 10  1  0
  1 11  1  0
  1 12  1  0
  3 13  1  0
  3 14  1  0
  4 15  1  0
  6 16  1  0
  7 17  1  0
  8 18  1  0
  9 19  1  0
M  END
$$$$
