
     RDKit          3D

 19 19  0  0  0  0  0  0  0  0999 V2000
    1.3333    0.0063   -0.2379 C   0  0  0  0  0  0  0  0  0  0  0  0
   -0.0545    0.1879   -0.0357 O   0  0  0  0  0  0  0  0  0  0  0  0
   -0.4408    0.6664    1.2496 C   0  0  0  0  0  0  0  0  0  0  0  0
   -0.0271    2.1602    1.4752 C   0  0  0  0  0  0  0  0  0  0  0  0
   -1.3729    2.8777    1.6713 C   0  0  0  0  0  0  0  0  0  0  0  0
   -2.3101    2.1063    0.9387 O   0  0  0  0  0  0  0  0  0  0  0  0
   -1.9961    0.7598    1.2241 C   0  0  0  0  0  0  0  0  0  0  0  0
    0.0273   -0.2249    2.3164 C   0  0  0  0  0  0  0  0  0  0  0  0
    0.3990   -0.9591    3.1931 C   0  0  0  0  0  0  0  0  0  0  0  0
    1.7538   -0.7260    0.4630 H   0  0  0  0  0  0  0  0  0  0  0  0
    1.4488   -0.3645   -1.2588 H   0  0  0  0  0  0  0  0  0  0  0  0
    1.8956    0.9463   -0.1407 H   0  0  0  0  0  0  0  0  0  0  0  0
    0.6557    2.2917    2.3156 H   0  0  0  0  0  0  0  0  0  0  0  0
    0.4603    2.5145    0.5642 H   0  0  0  0  0  0  0  0  0  0  0  0
   -1.6462    2.9103    2.7391 H   0  0  0  0  0  0  0  0  0  0  0  0
   -1.3892    3.8968    1.2783 H   0  0  0  0  0  0  0  0  0  0  0  0
   -2.4009    0.4587    2.2015 H   0  0  0  0  0  0  0  0  0  0  0  0
   -2.4057    0.1213    0.4403 H   0  0  0  0  0  0  0  0  0  0  0  0
    0.7238   -1.6093    3.9678 H   0  0  0  0  0  0  0  0  0  0  0  0
  1  2  1  0
  2  3  1  0
  3  4  1  0
  4  5  1  0
  5  6  1  0
  6  7  1  0
  3  8  1  0
  8  9  3  0
  7  3  1  0
  1 10  1  0
  1 11  1  0
  1 12  1  0
  4 13  1  0
  4 14  1  0
  5 15  1  0
  5 16  1  0
  7 17  1  0
  7 18  1  0
  9 19  1  0
M  END
$$$$
