gdb 4816	2.9717371	0.7492426	0.6245613	3.5509	79.98	-0.24994	-0.02257	0.22737	1747.6373	0.152396	-422.516588	-422.505795	-422.504851	-422.553863	36.635
 OpenBabel02181911413D

 19 18  0  0  1  0  0  0  0  0999 V2000
    0.7149   -1.0225   -0.1511 C   0  0  0  0  0  0  0  0  0  0  0  0
    0.6265    0.3865   -0.0802 O   0  0  0  0  0  0  0  0  0  0  0  0
    0.1097    0.8744    1.1457 C   0  0  1  0  0  0  0  0  0  0  0  0
    0.2917    2.3991    1.1415 C   0  0  0  0  0  0  0  0  0  0  0  0
    1.7660    2.8135    1.0162 C   0  0  0  0  0  0  0  0  0  0  0  0
    1.9408    4.3068    1.1765 C   0  0  0  0  0  0  0  0  0  0  0  0
    2.5032    5.0269    0.3936 O   0  0  0  0  0  0  0  0  0  0  0  0
   -1.3002    0.5083    1.3418 C   0  0  0  0  0  0  0  0  0  0  0  0
   -2.4562    0.2184    1.4982 C   0  0  0  0  0  0  0  0  0  0  0  0
   -0.2722   -1.4963   -0.0700 H   0  0  0  0  0  0  0  0  0  0  0  0
    1.1507   -1.2632   -1.1230 H   0  0  0  0  0  0  0  0  0  0  0  0
    1.3639   -1.4252    0.6419 H   0  0  0  0  0  0  0  0  0  0  0  0
    0.6950    0.4507    1.9821 H   0  0  0  0  0  0  0  0  0  0  0  0
   -0.2893    2.8102    0.3096 H   0  0  0  0  0  0  0  0  0  0  0  0
   -0.1413    2.7965    2.0664 H   0  0  0  0  0  0  0  0  0  0  0  0
    2.3429    2.3332    1.8215 H   0  0  0  0  0  0  0  0  0  0  0  0
    2.1889    2.4997    0.0608 H   0  0  0  0  0  0  0  0  0  0  0  0
    1.4949    4.7198    2.1136 H   0  0  0  0  0  0  0  0  0  0  0  0
   -3.4771   -0.0401    1.6382 H   0  0  0  0  0  0  0  0  0  0  0  0
  1  2  1  0  0  0  0
  1 10  1  0  0  0  0
  1 12  1  0  0  0  0
  2  3  1  0  0  0  0
  3  8  1  0  0  0  0
  3 13  1  1  0  0  0
  4  3  1  0  0  0  0
  4 15  1  0  0  0  0
  5  4  1  0  0  0  0
  5  6  1  0  0  0  0
  5 16  1  0  0  0  0
  6 18  1  0  0  0  0
  7  6  2  0  0  0  0
  8  9  3  0  0  0  0
  9 19  1  0  0  0  0
 11  1  1  0  0  0  0
 14  4  1  0  0  0  0
 17  5  1  0  0  0  0
M TOR 0 0 1 2 3
M TOR 1 0 1 2 7
M TOR 2 0 1 2 12
M TOR 3 1 2 3 4
M TOR 4 1 2 3 13
M TOR 5 1 2 3 14
M TOR 6 1 2 7 8
M TOR 7 2 1 0 9
M TOR 8 2 1 0 10
M TOR 9 2 1 0 11
M TOR 10 2 3 4 5
M TOR 11 2 3 4 15
M TOR 12 2 3 4 16
M TOR 13 2 7 8 18
M TOR 14 3 2 7 8
M TOR 15 3 4 5 6
M TOR 16 3 4 5 17
M TOR 17 4 3 2 7
M TOR 18 4 3 2 12
M TOR 19 5 4 3 13
M TOR 20 5 4 3 14
M TOR 21 6 5 4 15
M TOR 22 6 5 4 16
M TOR 23 7 2 3 13
M TOR 24 7 2 3 14
M TOR 25 8 7 2 12
M  END
$$$$
