
     RDKit          3D

 19 21  0  0  0  0  0  0  0  0999 V2000
   -0.0868   -0.3601    0.0282 C   0  0  0  0  0  0  0  0  0  0  0  0
    1.3481    0.1025   -0.0109 C   0  0  0  0  0  0  0  0  0  0  0  0
    1.8864    0.7078   -1.3456 C   0  0  0  0  0  0  0  0  0  0  0  0
    3.2919    0.0893   -1.2422 C   0  0  0  0  0  0  0  0  0  0  0  0
    2.9484   -1.3287   -1.1309 O   0  0  0  0  0  0  0  0  0  0  0  0
    2.4888   -0.9582    0.1892 C   0  0  0  0  0  0  0  0  0  0  0  0
    3.5881    0.1158    0.2962 C   0  0  0  0  0  0  0  0  0  0  0  0
    2.9975    1.2612    1.1061 C   0  0  0  0  0  0  0  0  0  0  0  0
    1.5775    1.0467    1.0430 O   0  0  0  0  0  0  0  0  0  0  0  0
   -0.3339   -0.7570    1.0175 H   0  0  0  0  0  0  0  0  0  0  0  0
   -0.7714    0.4658   -0.1878 H   0  0  0  0  0  0  0  0  0  0  0  0
   -0.2458   -1.1452   -0.7167 H   0  0  0  0  0  0  0  0  0  0  0  0
    1.3762    0.3343   -2.2360 H   0  0  0  0  0  0  0  0  0  0  0  0
    1.8472    1.7998   -1.3301 H   0  0  0  0  0  0  0  0  0  0  0  0
    4.0416    0.3073   -2.0026 H   0  0  0  0  0  0  0  0  0  0  0  0
    2.3315   -1.7854    0.8804 H   0  0  0  0  0  0  0  0  0  0  0  0
    4.5839   -0.2317    0.5644 H   0  0  0  0  0  0  0  0  0  0  0  0
    3.3081    1.2314    2.1565 H   0  0  0  0  0  0  0  0  0  0  0  0
    3.2586    2.2505    0.7038 H   0  0  0  0  0  0  0  0  0  0  0  0
  1  2  1  0
  2  3  1  0
  3  4  1  0
  4  5  1  0
  5  6  1  0
  6  7  1  0
  7  8  1  0
  8  9  1  0
  6  2  1  0
  9  2  1  0
  7  4  1  0
  1 10  1  0
  1 11  1  0
  1 12  1  0
  3 13  1  0
  3 14  1  0
  4 15  1  0
  6 16  1  0
  7 17  1  0
  8 18  1  0
  8 19  1  0
M  END
$$$$
