gdb 3746	2.9847602	1.3347898	1.2315225	2.283	75.08	-0.25219	0.07692	0.32911	1097.4753	0.157451	-422.535597	-422.52757	-422.526626	-422.567922	31.425
 OpenBabel02181911413D

 19 21  0  0  1  0  0  0  0  0999 V2000
    0.6289   -0.2146    0.6335 O   0  0  0  0  0  0  0  0  0  0  0  0
   -0.7259    0.1313    0.6939 C   0  0  2  0  0  0  0  0  0  0  0  0
   -1.4198    0.1924    2.0316 C   0  0  0  0  0  0  0  0  0  0  0  0
   -1.6933   -0.9530    1.0792 C   0  0  1  0  0  0  0  0  0  0  0  0
   -3.0416   -1.1282    0.3745 C   0  0  0  0  0  0  0  0  0  0  0  0
   -2.9505   -2.5042   -0.3360 C   0  0  0  0  0  0  0  0  0  0  0  0
   -1.9368   -3.2759    0.4888 C   0  0  2  0  0  0  0  0  0  0  0  0
   -2.1703   -3.2109    1.9031 O   0  0  0  0  0  0  0  0  0  0  0  0
   -1.1789   -2.3394    1.3274 C   0  0  2  0  0  0  0  0  0  0  0  0
    1.1390    0.5159    0.9987 H   0  0  0  0  0  0  0  0  0  0  0  0
   -1.0523    0.8311   -0.0772 H   0  0  0  0  0  0  0  0  0  0  0  0
   -0.8164   -0.0254    2.9072 H   0  0  0  0  0  0  0  0  0  0  0  0
   -2.1963    0.9354    2.1849 H   0  0  0  0  0  0  0  0  0  0  0  0
   -3.8394   -1.1516    1.1218 H   0  0  0  0  0  0  0  0  0  0  0  0
   -3.2625   -0.3116   -0.3185 H   0  0  0  0  0  0  0  0  0  0  0  0
   -3.9199   -3.0075   -0.3992 H   0  0  0  0  0  0  0  0  0  0  0  0
   -2.5637   -2.4011   -1.3571 H   0  0  0  0  0  0  0  0  0  0  0  0
   -1.5202   -4.2127    0.1270 H   0  0  0  0  0  0  0  0  0  0  0  0
   -0.1546   -2.5043    1.6425 H   0  0  0  0  0  0  0  0  0  0  0  0
  1  2  1  0  0  0  0
  1 10  1  0  0  0  0
  2 11  1  6  0  0  0
  2  4  1  0  0  0  0
  2  3  1  0  0  0  0
  3 13  1  0  0  0  0
  3 12  1  0  0  0  0
  4  5  1  6  0  0  0
  4  9  1  0  0  0  0
  4  3  1  0  0  0  0
  5 14  1  0  0  0  0
  6  5  1  0  0  0  0
  6  7  1  0  0  0  0
  7 18  1  6  0  0  0
  7  9  1  0  0  0  0
  7  8  1  0  0  0  0
  9 19  1  1  0  0  0
  9  8  1  0  0  0  0
 15  5  1  0  0  0  0
 16  6  1  0  0  0  0
 17  6  1  0  0  0  0
M TOR 0 0 1 2 3
M TOR 1 0 1 2 11
M TOR 2 0 1 2 12
M TOR 3 0 1 3 4
M TOR 4 0 1 3 8
M TOR 5 1 2 3 4
M TOR 6 1 2 3 8
M TOR 7 1 3 2 11
M TOR 8 1 3 2 12
M TOR 9 1 3 4 5
M TOR 10 1 3 4 13
M TOR 11 1 3 4 14
M TOR 12 1 3 8 6
M TOR 13 1 3 8 7
M TOR 14 1 3 8 18
M TOR 15 2 1 0 9
M TOR 16 2 3 1 10
M TOR 17 2 3 4 5
M TOR 18 2 3 4 13
M TOR 19 2 3 4 14
M TOR 20 2 3 8 6
M TOR 21 2 3 8 7
M TOR 22 2 3 8 18
M TOR 23 3 1 0 9
M TOR 24 3 4 5 6
M TOR 25 3 4 5 15
M TOR 26 3 4 5 16
M TOR 27 3 8 6 5
M TOR 28 3 8 6 7
M TOR 29 3 8 6 17
M TOR 30 4 3 1 10
M TOR 31 4 3 2 11
M TOR 32 4 3 2 12
M TOR 33 4 3 8 6
M TOR 34 4 3 8 7
M TOR 35 4 3 8 18
M TOR 36 4 5 6 7
M TOR 37 4 5 6 8
M TOR 38 4 5 6 17
M TOR 39 5 4 3 8
M TOR 40 5 6 7 8
M TOR 41 5 6 8 18
M TOR 42 6 5 4 13
M TOR 43 6 5 4 14
M TOR 44 6 7 8 18
M TOR 45 7 6 5 15
M TOR 46 7 6 5 16
M TOR 47 7 8 6 17
M TOR 48 8 3 1 10
M TOR 49 8 3 2 11
M TOR 50 8 3 2 12
M TOR 51 8 3 4 13
M TOR 52 8 3 4 14
M TOR 53 8 6 5 15
M TOR 54 8 6 5 16
M  END
$$$$
