
     RDKit          3D

 19 21  0  0  0  0  0  0  0  0999 V2000
    0.2429    0.6719    0.1727 C   0  0  0  0  0  0  0  0  0  0  0  0
    1.5875    0.0068    0.0632 C   0  0  0  0  0  0  0  0  0  0  0  0
    1.8331   -0.7368   -1.1491 O   0  0  0  0  0  0  0  0  0  0  0  0
    2.6534    0.4071   -0.8753 C   0  0  0  0  0  0  0  0  0  0  0  0
    4.0300    0.0452   -0.3371 C   0  0  0  0  0  0  0  0  0  0  0  0
    3.7418   -0.5965    1.0245 C   0  0  0  0  0  0  0  0  0  0  0  0
    4.5844   -1.6104    1.4737 O   0  0  0  0  0  0  0  0  0  0  0  0
    3.1403    0.2743    2.0847 C   0  0  0  0  0  0  0  0  0  0  0  0
    2.2429   -0.6310    1.2554 C   0  0  0  0  0  0  0  0  0  0  0  0
    0.2520    1.4361    0.9566 H   0  0  0  0  0  0  0  0  0  0  0  0
   -0.0367    1.1395   -0.7748 H   0  0  0  0  0  0  0  0  0  0  0  0
   -0.5289   -0.0616    0.4306 H   0  0  0  0  0  0  0  0  0  0  0  0
    2.5327    1.2374   -1.5679 H   0  0  0  0  0  0  0  0  0  0  0  0
    4.5235   -0.6730   -1.0023 H   0  0  0  0  0  0  0  0  0  0  0  0
    4.6817    0.9229   -0.2575 H   0  0  0  0  0  0  0  0  0  0  0  0
    4.4903   -2.3581    0.8721 H   0  0  0  0  0  0  0  0  0  0  0  0
    3.3222   -0.0351    3.1074 H   0  0  0  0  0  0  0  0  0  0  0  0
    3.0978    1.3488    1.9316 H   0  0  0  0  0  0  0  0  0  0  0  0
    1.7742   -1.4820    1.7382 H   0  0  0  0  0  0  0  0  0  0  0  0
  1  2  1  0
  2  3  1  0
  3  4  1  0
  4  5  1  0
  5  6  1  0
  6  7  1  0
  6  8  1  0
  8  9  1  0
  4  2  1  0
  9  6  1  0
  9  2  1  0
  1 10  1  0
  1 11  1  0
  1 12  1  0
  4 13  1  0
  5 14  1  0
  5 15  1  0
  7 16  1  0
  8 17  1  0
  8 18  1  0
  9 19  1  0
M  END
$$$$
