gdb 4430	2.9833096	1.397594	1.2341458	0.7366	75.03	-0.24564	0.06503	0.31067	1086.0277	0.156901	-422.50805	-422.499885	-422.498941	-422.541023	31.324
 OpenBabel02181911413D

 19 21  0  0  1  0  0  0  0  0999 V2000
    0.4198    0.2891    0.0251 O   0  0  0  0  0  0  0  0  0  0  0  0
   -0.7425   -0.1968    0.6392 C   0  0  1  0  0  0  0  0  0  0  0  0
   -1.0866    0.2578    2.0728 C   0  0  0  0  0  0  0  0  0  0  0  0
   -2.4127    0.6423    1.6663 O   0  0  0  0  0  0  0  0  0  0  0  0
   -2.1243    0.4093    0.2695 C   0  0  2  0  0  0  0  0  0  0  0  0
   -3.1607   -0.3782   -0.5829 C   0  0  0  0  0  0  0  0  0  0  0  0
   -3.2028    0.7970   -1.5664 C   0  0  1  0  0  0  0  0  0  0  0  0
   -3.6294    2.0388   -0.8432 C   0  0  0  0  0  0  0  0  0  0  0  0
   -2.2016    1.5784   -0.7075 C   0  0  1  0  0  0  0  0  0  0  0  0
    0.4684    1.2394    0.1755 H   0  0  0  0  0  0  0  0  0  0  0  0
   -0.7147   -1.2823    0.5170 H   0  0  0  0  0  0  0  0  0  0  0  0
   -1.0948   -0.5058    2.8587 H   0  0  0  0  0  0  0  0  0  0  0  0
   -0.4872    1.1147    2.4151 H   0  0  0  0  0  0  0  0  0  0  0  0
   -2.7312   -1.2943   -0.9977 H   0  0  0  0  0  0  0  0  0  0  0  0
   -4.1005   -0.6185   -0.0760 H   0  0  0  0  0  0  0  0  0  0  0  0
   -3.2300    0.7139   -2.6450 H   0  0  0  0  0  0  0  0  0  0  0  0
   -3.7649    2.9224   -1.4586 H   0  0  0  0  0  0  0  0  0  0  0  0
   -4.3021    1.9766    0.0082 H   0  0  0  0  0  0  0  0  0  0  0  0
   -1.3704    2.1971   -1.0251 H   0  0  0  0  0  0  0  0  0  0  0  0
  1 10  1  0  0  0  0
  1  2  1  0  0  0  0
  2 11  1  6  0  0  0
  2  3  1  0  0  0  0
  3 13  1  0  0  0  0
  3 12  1  0  0  0  0
  4  3  1  0  0  0  0
  5  2  1  0  0  0  0
  5  4  1  1  0  0  0
  6 15  1  0  0  0  0
  6  5  1  0  0  0  0
  7 16  1  6  0  0  0
  7  8  1  0  0  0  0
  7  9  1  0  0  0  0
  7  6  1  0  0  0  0
  8  9  1  0  0  0  0
  8 18  1  0  0  0  0
  9 19  1  6  0  0  0
  9  5  1  0  0  0  0
 14  6  1  0  0  0  0
 17  8  1  0  0  0  0
M TOR 0 0 1 2 3
M TOR 1 0 1 2 11
M TOR 2 0 1 2 12
M TOR 3 0 1 4 3
M TOR 4 0 1 4 5
M TOR 5 0 1 4 8
M TOR 6 1 2 3 4
M TOR 7 1 4 5 6
M TOR 8 1 4 5 13
M TOR 9 1 4 5 14
M TOR 10 1 4 8 6
M TOR 11 1 4 8 7
M TOR 12 1 4 8 18
M TOR 13 2 1 0 9
M TOR 14 2 1 4 5
M TOR 15 2 1 4 8
M TOR 16 2 3 4 5
M TOR 17 2 3 4 8
M TOR 18 3 2 1 10
M TOR 19 3 4 1 10
M TOR 20 3 4 5 6
M TOR 21 3 4 5 13
M TOR 22 3 4 5 14
M TOR 23 3 4 8 6
M TOR 24 3 4 8 7
M TOR 25 3 4 8 18
M TOR 26 4 1 0 9
M TOR 27 4 1 2 11
M TOR 28 4 1 2 12
M TOR 29 4 3 2 11
M TOR 30 4 3 2 12
M TOR 31 4 5 6 7
M TOR 32 4 5 6 8
M TOR 33 4 5 6 15
M TOR 34 4 8 6 7
M TOR 35 4 8 6 15
M TOR 36 4 8 7 16
M TOR 37 4 8 7 17
M TOR 38 5 4 1 10
M TOR 39 5 4 8 7
M TOR 40 5 4 8 18
M TOR 41 5 6 7 8
M TOR 42 5 6 7 16
M TOR 43 5 6 7 17
M TOR 44 5 6 8 18
M TOR 45 6 7 8 18
M TOR 46 6 8 7 16
M TOR 47 6 8 7 17
M TOR 48 7 6 5 13
M TOR 49 7 6 5 14
M TOR 50 7 8 6 15
M TOR 51 8 4 1 10
M TOR 52 8 4 5 13
M TOR 53 8 4 5 14
M TOR 54 8 6 5 13
M TOR 55 8 6 5 14
M  END
$$$$
