gdb 419	2.8384071	1.647952	1.2565291	2.3716	75.29	-0.24559	0.08508	0.33067	1041.9177	0.158114	-422.525932	-422.518367	-422.517423	-422.557743	30.118
 OpenBabel02181911403D

 19 21  0  0  1  0  0  0  0  0999 V2000
    0.7090    1.3202   -0.0537 C   0  0  0  0  0  0  0  0  0  0  0  0
    1.5070    0.0322   -0.0371 C   0  0  0  0  0  0  0  0  0  0  0  0
    0.0162   -0.0226    0.0648 C   0  0  0  0  0  0  0  0  0  0  0  0
   -0.6312   -0.5170   -1.0733 O   0  0  0  0  0  0  0  0  0  0  0  0
   -2.0101   -0.1731   -1.1007 C   0  0  0  0  0  0  0  0  0  0  0  0
   -2.7898   -0.8913    0.0078 C   0  0  0  0  0  0  0  0  0  0  0  0
   -2.0626   -0.7917    1.3388 C   0  0  1  0  0  0  0  0  0  0  0  0
   -1.0075   -1.7395    1.5470 O   0  0  0  0  0  0  0  0  0  0  0  0
   -0.6509   -0.3698    1.3576 C   0  0  1  0  0  0  0  0  0  0  0  0
    0.7511    1.9705    0.8139 H   0  0  0  0  0  0  0  0  0  0  0  0
    0.6083    1.8300   -1.0048 H   0  0  0  0  0  0  0  0  0  0  0  0
    1.9297   -0.3039   -0.9768 H   0  0  0  0  0  0  0  0  0  0  0  0
    2.0931   -0.2097    0.8424 H   0  0  0  0  0  0  0  0  0  0  0  0
   -2.1237    0.9173   -0.9955 H   0  0  0  0  0  0  0  0  0  0  0  0
   -2.3764   -0.4588   -2.0902 H   0  0  0  0  0  0  0  0  0  0  0  0
   -3.7909   -0.4538    0.0920 H   0  0  0  0  0  0  0  0  0  0  0  0
   -2.9132   -1.9505   -0.2415 H   0  0  0  0  0  0  0  0  0  0  0  0
   -2.6743   -0.6146    2.2231 H   0  0  0  0  0  0  0  0  0  0  0  0
   -0.2446    0.1258    2.2398 H   0  0  0  0  0  0  0  0  0  0  0  0
  1  2  1  0  0  0  0
  1  3  1  0  0  0  0
  1 10  1  0  0  0  0
  2  3  1  0  0  0  0
  2 13  1  0  0  0  0
  3  9  1  0  0  0  0
  4  3  1  0  0  0  0
  5  4  1  0  0  0  0
  5 14  1  0  0  0  0
  5  6  1  0  0  0  0
  6 16  1  0  0  0  0
  6  7  1  0  0  0  0
  7  9  1  0  0  0  0
  7  8  1  0  0  0  0
  7 18  1  1  0  0  0
  9  8  1  0  0  0  0
  9 19  1  1  0  0  0
 11  1  1  0  0  0  0
 12  2  1  0  0  0  0
 15  5  1  0  0  0  0
 17  6  1  0  0  0  0
M TOR 0 0 1 2 3
M TOR 1 0 1 2 8
M TOR 2 0 2 1 11
M TOR 3 0 2 1 12
M TOR 4 0 2 3 4
M TOR 5 0 2 8 6
M TOR 6 0 2 8 7
M TOR 7 0 2 8 18
M TOR 8 1 2 0 9
M TOR 9 1 2 0 10
M TOR 10 1 2 3 4
M TOR 11 1 2 8 6
M TOR 12 1 2 8 7
M TOR 13 1 2 8 18
M TOR 14 2 3 4 5
M TOR 15 2 3 4 13
M TOR 16 2 3 4 14
M TOR 17 2 8 6 5
M TOR 18 2 8 6 7
M TOR 19 2 8 6 17
M TOR 20 3 2 0 9
M TOR 21 3 2 0 10
M TOR 22 3 2 1 11
M TOR 23 3 2 1 12
M TOR 24 3 2 8 6
M TOR 25 3 2 8 7
M TOR 26 3 2 8 18
M TOR 27 3 4 5 6
M TOR 28 3 4 5 15
M TOR 29 3 4 5 16
M TOR 30 4 3 2 8
M TOR 31 4 5 6 7
M TOR 32 4 5 6 8
M TOR 33 4 5 6 17
M TOR 34 5 6 7 8
M TOR 35 5 6 8 18
M TOR 36 6 5 4 13
M TOR 37 6 5 4 14
M TOR 38 6 7 8 18
M TOR 39 7 6 5 15
M TOR 40 7 6 5 16
M TOR 41 7 8 6 17
M TOR 42 8 2 0 9
M TOR 43 8 2 0 10
M TOR 44 8 2 1 11
M TOR 45 8 2 1 12
M TOR 46 8 6 5 15
M TOR 47 8 6 5 16
M  END
$$$$
