gdb 1981	3.6428159	1.4543162	1.2738673	3.1236	73.77	-0.23706	0.06544	0.3025	1041.6162	0.157895	-422.536099	-422.528487	-422.527543	-422.56784	29.911
 OpenBabel02181911403D

 19 21  0  0  1  0  0  0  0  0999 V2000
   -0.0070    0.0622    0.0301 C   0  0  0  0  0  0  0  0  0  0  0  0
    1.4917    0.0939   -0.0992 C   0  0  1  0  0  0  0  0  0  0  0  0
    2.1621   -0.2674   -1.4225 C   0  0  0  0  0  0  0  0  0  0  0  0
    3.5842    0.3150   -1.3394 C   0  0  2  0  0  0  0  0  0  0  0  0
    4.7162   -0.4575   -0.6211 C   0  0  0  0  0  0  0  0  0  0  0  0
    4.8241    0.5575    0.4050 O   0  0  0  0  0  0  0  0  0  0  0  0
    3.6626    1.2456   -0.0995 C   0  0  2  0  0  0  0  0  0  0  0  0
    2.3866    0.9784    0.6805 C   0  0  2  0  0  0  0  0  0  0  0  0
    2.2362   -0.4064    1.0212 O   0  0  0  0  0  0  0  0  0  0  0  0
   -0.3115    0.3513    1.0388 H   0  0  0  0  0  0  0  0  0  0  0  0
   -0.4758    0.7423   -0.6889 H   0  0  0  0  0  0  0  0  0  0  0  0
   -0.3896   -0.9459   -0.1640 H   0  0  0  0  0  0  0  0  0  0  0  0
    2.1567   -1.3519   -1.5810 H   0  0  0  0  0  0  0  0  0  0  0  0
    1.6052    0.1825   -2.2524 H   0  0  0  0  0  0  0  0  0  0  0  0
    3.9070    0.7634   -2.2794 H   0  0  0  0  0  0  0  0  0  0  0  0
    4.4211   -1.4263   -0.2048 H   0  0  0  0  0  0  0  0  0  0  0  0
    5.6540   -0.5622   -1.1790 H   0  0  0  0  0  0  0  0  0  0  0  0
    3.8458    2.3171   -0.2381 H   0  0  0  0  0  0  0  0  0  0  0  0
    2.0186    1.6825    1.4236 H   0  0  0  0  0  0  0  0  0  0  0  0
  1 10  1  0  0  0  0
  2  1  1  1  0  0  0
  2  8  1  0  0  0  0
  2  9  1  0  0  0  0
  3  4  1  0  0  0  0
  3  2  1  0  0  0  0
  4 15  1  6  0  0  0
  4  5  1  0  0  0  0
  4  7  1  0  0  0  0
  5 16  1  0  0  0  0
  5  6  1  0  0  0  0
  7 18  1  6  0  0  0
  7  6  1  0  0  0  0
  7  8  1  0  0  0  0
  8  9  1  0  0  0  0
  8 19  1  1  0  0  0
 11  1  1  0  0  0  0
 12  1  1  0  0  0  0
 13  3  1  0  0  0  0
 14  3  1  0  0  0  0
 17  5  1  0  0  0  0
M TOR 0 0 1 2 3
M TOR 1 0 1 2 12
M TOR 2 0 1 2 13
M TOR 3 0 1 7 6
M TOR 4 0 1 7 8
M TOR 5 0 1 7 18
M TOR 6 1 2 3 4
M TOR 7 1 2 3 6
M TOR 8 1 2 3 14
M TOR 9 1 7 6 3
M TOR 10 1 7 6 5
M TOR 11 1 7 6 17
M TOR 12 1 8 7 6
M TOR 13 1 8 7 18
M TOR 14 2 1 0 9
M TOR 15 2 1 0 10
M TOR 16 2 1 0 11
M TOR 17 2 1 7 6
M TOR 18 2 1 7 8
M TOR 19 2 1 7 18
M TOR 20 2 3 4 5
M TOR 21 2 3 4 15
M TOR 22 2 3 4 16
M TOR 23 2 3 6 5
M TOR 24 2 3 6 7
M TOR 25 2 3 6 17
M TOR 26 3 2 1 7
M TOR 27 3 2 1 8
M TOR 28 3 4 5 6
M TOR 29 3 6 7 8
M TOR 30 3 6 7 18
M TOR 31 4 3 2 12
M TOR 32 4 3 2 13
M TOR 33 4 3 6 7
M TOR 34 4 3 6 17
M TOR 35 4 5 6 7
M TOR 36 4 5 6 17
M TOR 37 5 4 3 14
M TOR 38 5 6 3 14
M TOR 39 5 6 7 8
M TOR 40 5 6 7 18
M TOR 41 6 3 2 12
M TOR 42 6 3 2 13
M TOR 43 6 3 4 15
M TOR 44 6 3 4 16
M TOR 45 6 5 4 15
M TOR 46 6 5 4 16
M TOR 47 7 1 0 9
M TOR 48 7 1 0 10
M TOR 49 7 1 0 11
M TOR 50 7 1 2 12
M TOR 51 7 1 2 13
M TOR 52 7 6 3 14
M TOR 53 8 1 0 9
M TOR 54 8 1 0 10
M TOR 55 8 1 0 11
M TOR 56 8 1 2 12
M TOR 57 8 1 2 13
M TOR 58 8 7 6 17
M  END
$$$$
