gdb 3537	2.3263377	1.5955181	1.2393383	2.8685	74.87	-0.23777	-0.02553	0.21224	1100.5654	0.155655	-422.581728	-422.572833	-422.571889	-422.615162	33.146
 OpenBabel02181911413D

 19 20  0  0  1  0  0  0  0  0999 V2000
   -2.9318   -1.2104   -1.3220 C   0  0  0  0  0  0  0  0  0  0  0  0
   -2.3580   -0.8156    0.0438 C   0  0  1  0  0  0  0  0  0  0  0  0
   -0.9000   -1.3034    0.2434 C   0  0  0  0  0  0  0  0  0  0  0  0
   -0.0105   -0.1099   -0.1249 C   0  0  0  0  0  0  0  0  0  0  0  0
    1.1278   -0.1492   -0.5177 O   0  0  0  0  0  0  0  0  0  0  0  0
   -0.8391    1.1475    0.0288 C   0  0  2  0  0  0  0  0  0  0  0  0
   -0.3473    2.4668   -0.4814 C   0  0  0  0  0  0  0  0  0  0  0  0
   -1.5073    1.1157    1.3168 O   0  0  0  0  0  0  0  0  0  0  0  0
   -2.2400    0.6995    0.1684 C   0  0  2  0  0  0  0  0  0  0  0  0
   -3.0176   -2.2975   -1.4080 H   0  0  0  0  0  0  0  0  0  0  0  0
   -3.9282   -0.7820   -1.4735 H   0  0  0  0  0  0  0  0  0  0  0  0
   -2.2894   -0.8608   -2.1385 H   0  0  0  0  0  0  0  0  0  0  0  0
   -3.0125   -1.1992    0.8342 H   0  0  0  0  0  0  0  0  0  0  0  0
   -0.7025   -1.5678    1.2870 H   0  0  0  0  0  0  0  0  0  0  0  0
   -0.6414   -2.1686   -0.3709 H   0  0  0  0  0  0  0  0  0  0  0  0
    0.6062    2.7231   -0.0103 H   0  0  0  0  0  0  0  0  0  0  0  0
   -0.1794    2.4203   -1.5615 H   0  0  0  0  0  0  0  0  0  0  0  0
   -1.0708    3.2566   -0.2667 H   0  0  0  0  0  0  0  0  0  0  0  0
   -3.0689    1.3438   -0.1198 H   0  0  0  0  0  0  0  0  0  0  0  0
  1  2  1  0  0  0  0
  2  9  1  0  0  0  0
  2  3  1  0  0  0  0
  2 13  1  1  0  0  0
  3 14  1  0  0  0  0
  4  6  1  0  0  0  0
  4  3  1  0  0  0  0
  5  4  2  0  0  0  0
  6  7  1  6  0  0  0
  6  9  1  0  0  0  0
  6  8  1  0  0  0  0
  7 18  1  0  0  0  0
  7 16  1  0  0  0  0
  9 19  1  6  0  0  0
  9  8  1  0  0  0  0
 10  1  1  0  0  0  0
 11  1  1  0  0  0  0
 12  1  1  0  0  0  0
 15  3  1  0  0  0  0
 17  7  1  0  0  0  0
M TOR 0 0 1 2 3
M TOR 1 0 1 2 13
M TOR 2 0 1 2 14
M TOR 3 0 1 8 5
M TOR 4 0 1 8 7
M TOR 5 0 1 8 18
M TOR 6 1 2 3 4
M TOR 7 1 2 3 5
M TOR 8 1 8 5 3
M TOR 9 1 8 5 6
M TOR 10 1 8 5 7
M TOR 11 2 1 0 9
M TOR 12 2 1 0 10
M TOR 13 2 1 0 11
M TOR 14 2 1 8 5
M TOR 15 2 1 8 7
M TOR 16 2 1 8 18
M TOR 17 2 3 5 6
M TOR 18 2 3 5 7
M TOR 19 2 3 5 8
M TOR 20 3 2 1 8
M TOR 21 3 2 1 12
M TOR 22 3 5 6 15
M TOR 23 3 5 6 16
M TOR 24 3 5 6 17
M TOR 25 3 5 7 8
M TOR 26 3 5 8 18
M TOR 27 4 3 2 13
M TOR 28 4 3 2 14
M TOR 29 4 3 5 6
M TOR 30 4 3 5 7
M TOR 31 4 3 5 8
M TOR 32 5 3 2 13
M TOR 33 5 3 2 14
M TOR 34 5 7 8 18
M TOR 35 5 8 1 12
M TOR 36 6 5 7 8
M TOR 37 6 5 8 18
M TOR 38 7 5 6 15
M TOR 39 7 5 6 16
M TOR 40 7 5 6 17
M TOR 41 7 8 1 12
M TOR 42 8 1 0 9
M TOR 43 8 1 0 10
M TOR 44 8 1 0 11
M TOR 45 8 1 2 13
M TOR 46 8 1 2 14
M TOR 47 8 5 6 15
M TOR 48 8 5 6 16
M TOR 49 8 5 6 17
M  END
$$$$
