
     RDKit          3D

 19 21  0  0  0  0  0  0  0  0999 V2000
   -2.8573   -2.4786    0.3618 C   0  0  0  0  0  0  0  0  0  0  0  0
   -3.3891   -1.1062    0.0982 C   0  0  0  0  0  0  0  0  0  0  0  0
   -4.6875   -0.9610   -0.5978 O   0  0  0  0  0  0  0  0  0  0  0  0
   -4.2305    0.4094   -0.3489 C   0  0  0  0  0  0  0  0  0  0  0  0
   -3.7760    0.0421    1.0896 C   0  0  0  0  0  0  0  0  0  0  0  0
   -2.5411    0.8580    1.4472 C   0  0  0  0  0  0  0  0  0  0  0  0
   -1.7789    0.8146    0.0823 C   0  0  0  0  0  0  0  0  0  0  0  0
   -0.5697    0.0654    0.1266 O   0  0  0  0  0  0  0  0  0  0  0  0
   -2.7793    0.0471   -0.7640 C   0  0  0  0  0  0  0  0  0  0  0  0
   -3.5210   -3.0329    1.0326 H   0  0  0  0  0  0  0  0  0  0  0  0
   -2.7661   -3.0362   -0.5754 H   0  0  0  0  0  0  0  0  0  0  0  0
   -1.8653   -2.4048    0.8156 H   0  0  0  0  0  0  0  0  0  0  0  0
   -4.8655    1.2276   -0.6905 H   0  0  0  0  0  0  0  0  0  0  0  0
   -4.5436   -0.1633    1.8355 H   0  0  0  0  0  0  0  0  0  0  0  0
   -2.7911    1.8777    1.7590 H   0  0  0  0  0  0  0  0  0  0  0  0
   -1.9387    0.3992    2.2378 H   0  0  0  0  0  0  0  0  0  0  0  0
   -1.5874    1.8228   -0.3121 H   0  0  0  0  0  0  0  0  0  0  0  0
    0.0616    0.5475    0.6699 H   0  0  0  0  0  0  0  0  0  0  0  0
   -2.5601   -0.1442   -1.8134 H   0  0  0  0  0  0  0  0  0  0  0  0
  1  2  1  0
  2  3  1  0
  3  4  1  0
  4  5  1  0
  5  6  1  0
  6  7  1  0
  7  8  1  0
  7  9  1  0
  5  2  1  0
  9  2  1  0
  9  4  1  0
  1 10  1  0
  1 11  1  0
  1 12  1  0
  4 13  1  0
  5 14  1  0
  6 15  1  0
  6 16  1  0
  7 17  1  0
  8 18  1  0
  9 19  1  0
M  END
$$$$
