
     RDKit          3D

 19 21  0  0  0  0  0  0  0  0999 V2000
    0.4783    0.7893   -1.0359 C   0  0  0  0  0  0  0  0  0  0  0  0
    1.0360    1.2202    0.3332 C   0  0  0  0  0  0  0  0  0  0  0  0
    0.2802    2.4525    0.5549 O   0  0  0  0  0  0  0  0  0  0  0  0
   -0.8612    1.5681    0.7100 C   0  0  0  0  0  0  0  0  0  0  0  0
    0.0895    0.5694    1.4034 C   0  0  0  0  0  0  0  0  0  0  0  0
   -0.2239   -0.7857    1.5056 O   0  0  0  0  0  0  0  0  0  0  0  0
   -0.8129   -1.4106    0.3659 C   0  0  0  0  0  0  0  0  0  0  0  0
   -1.7125   -0.4796   -0.4544 C   0  0  0  0  0  0  0  0  0  0  0  0
   -1.0397    0.8861   -0.6714 C   0  0  0  0  0  0  0  0  0  0  0  0
    0.7638    1.5211   -1.7943 H   0  0  0  0  0  0  0  0  0  0  0  0
    0.8030   -0.1984   -1.3689 H   0  0  0  0  0  0  0  0  0  0  0  0
    2.1122    1.3266    0.4659 H   0  0  0  0  0  0  0  0  0  0  0  0
   -1.7281    2.0215    1.1906 H   0  0  0  0  0  0  0  0  0  0  0  0
    0.3718    0.9094    2.3999 H   0  0  0  0  0  0  0  0  0  0  0  0
   -0.0213   -1.8277   -0.2715 H   0  0  0  0  0  0  0  0  0  0  0  0
   -1.3863   -2.2569    0.7562 H   0  0  0  0  0  0  0  0  0  0  0  0
   -1.9391   -0.9672   -1.4092 H   0  0  0  0  0  0  0  0  0  0  0  0
   -2.6689   -0.3324    0.0631 H   0  0  0  0  0  0  0  0  0  0  0  0
   -1.6036    1.5010   -1.3753 H   0  0  0  0  0  0  0  0  0  0  0  0
  1  2  1  0
  2  3  1  0
  3  4  1  0
  4  5  1  0
  5  6  1  0
  6  7  1  0
  7  8  1  0
  8  9  1  0
  9  1  1  0
  5  2  1  0
  9  4  1  0
  1 10  1  0
  1 11  1  0
  2 12  1  0
  4 13  1  0
  5 14  1  0
  7 15  1  0
  7 16  1  0
  8 17  1  0
  8 18  1  0
  9 19  1  0
M  END
$$$$
