gdb 2665	2.9466626	1.4699343	1.2330584	0.877	76.07	-0.22718	0.04874	0.27592	1066.828	0.155548	-422.416317	-422.408166	-422.407221	-422.448356	32.429
 OpenBabel02181911413D

 19 21  0  0  1  0  0  0  0  0999 V2000
    1.0881   -0.5534   -0.8616 C   0  0  0  0  0  0  0  0  0  0  0  0
    0.8744   -0.1211    0.5826 C   0  0  1  0  0  0  0  0  0  0  0  0
    1.9615   -0.7514    1.6172 C   0  0  1  0  0  0  0  0  0  0  0  0
    2.5522   -1.9722    1.2906 O   0  0  0  0  0  0  0  0  0  0  0  0
    2.8202    0.5638    1.4239 C   0  0  2  0  0  0  0  0  0  0  0  0
    2.7644    2.0251    1.9883 C   0  0  2  0  0  0  0  0  0  0  0  0
    1.3279    1.8041    2.4549 C   0  0  0  0  0  0  0  0  0  0  0  0
    1.5150    1.2046    1.0279 C   0  0  2  0  0  0  0  0  0  0  0  0
    2.2152    2.4746    0.6420 O   0  0  0  0  0  0  0  0  0  0  0  0
    0.9125   -1.6288   -0.9653 H   0  0  0  0  0  0  0  0  0  0  0  0
    0.3961   -0.0311   -1.5280 H   0  0  0  0  0  0  0  0  0  0  0  0
    2.1022   -0.3339   -1.2121 H   0  0  0  0  0  0  0  0  0  0  0  0
   -0.1732   -0.2537    0.8711 H   0  0  0  0  0  0  0  0  0  0  0  0
    1.5265   -0.8826    2.6079 H   0  0  0  0  0  0  0  0  0  0  0  0
    3.0203   -1.8752    0.4546 H   0  0  0  0  0  0  0  0  0  0  0  0
    3.5254    0.4565    0.5952 H   0  0  0  0  0  0  0  0  0  0  0  0
    3.5536    2.6645    2.3908 H   0  0  0  0  0  0  0  0  0  0  0  0
    1.1506    1.1258    3.2922 H   0  0  0  0  0  0  0  0  0  0  0  0
    0.7102    2.7010    2.4955 H   0  0  0  0  0  0  0  0  0  0  0  0
  1  2  1  0  0  0  0
  2 13  1  1  0  0  0
  2  8  1  0  0  0  0
  2  3  1  0  0  0  0
  3 14  1  1  0  0  0
  4  3  1  0  0  0  0
  5 16  1  6  0  0  0
  5  3  1  0  0  0  0
  5  6  1  0  0  0  0
  6 17  1  1  0  0  0
  6  7  1  0  0  0  0
  7 19  1  0  0  0  0
  7 18  1  0  0  0  0
  8  9  1  6  0  0  0
  8  5  1  0  0  0  0
  8  7  1  0  0  0  0
  9  6  1  0  0  0  0
 10  1  1  0  0  0  0
 11  1  1  0  0  0  0
 12  1  1  0  0  0  0
 15  4  1  0  0  0  0
M TOR 0 0 1 2 3
M TOR 1 0 1 2 4
M TOR 2 0 1 2 13
M TOR 3 0 1 7 4
M TOR 4 0 1 7 6
M TOR 5 0 1 7 8
M TOR 6 1 2 3 14
M TOR 7 1 2 4 5
M TOR 8 1 2 4 7
M TOR 9 1 2 4 15
M TOR 10 1 7 4 5
M TOR 11 1 7 4 15
M TOR 12 1 7 6 5
M TOR 13 1 7 6 17
M TOR 14 1 7 6 18
M TOR 15 1 7 8 5
M TOR 16 2 1 0 9
M TOR 17 2 1 0 10
M TOR 18 2 1 0 11
M TOR 19 2 1 7 6
M TOR 20 2 1 7 8
M TOR 21 2 4 5 6
M TOR 22 2 4 5 8
M TOR 23 2 4 5 16
M TOR 24 2 4 7 6
M TOR 25 2 4 7 8
M TOR 26 3 2 1 7
M TOR 27 3 2 1 12
M TOR 28 3 2 4 5
M TOR 29 3 2 4 7
M TOR 30 3 2 4 15
M TOR 31 4 2 1 12
M TOR 32 4 2 3 14
M TOR 33 4 5 6 7
M TOR 34 4 5 6 17
M TOR 35 4 5 6 18
M TOR 36 4 5 8 7
M TOR 37 4 7 1 12
M TOR 38 4 7 6 17
M TOR 39 4 7 6 18
M TOR 40 5 4 2 13
M TOR 41 5 6 7 8
M TOR 42 6 5 4 15
M TOR 43 6 7 1 12
M TOR 44 6 7 4 15
M TOR 45 7 1 0 9
M TOR 46 7 1 0 10
M TOR 47 7 1 0 11
M TOR 48 7 1 2 13
M TOR 49 7 4 2 13
M TOR 50 7 4 5 16
M TOR 51 7 6 5 16
M TOR 52 7 8 5 16
M TOR 53 8 5 4 15
M TOR 54 8 5 6 17
M TOR 55 8 5 6 18
M TOR 56 8 7 1 12
M TOR 57 8 7 4 15
M TOR 58 8 7 6 17
M TOR 59 8 7 6 18
M  END
$$$$
