gdb 1699	2.8285665	1.175244	1.0397067	2.2808	76.06	-0.2444	0.02476	0.26916	1223.1673	0.154098	-422.486025	-422.476483	-422.475539	-422.520698	34.786
 OpenBabel02181911403D

 19 19  0  0  0  0  0  0  0  0999 V2000
   -1.0193    1.6704   -2.3271 C   0  0  0  0  0  0  0  0  0  0  0  0
   -2.0586    1.8323   -1.2250 C   0  0  0  0  0  0  0  0  0  0  0  0
   -3.1585    2.8649   -1.5433 C   0  0  0  0  0  0  0  0  0  0  0  0
   -2.5306    3.8482   -0.6972 O   0  0  0  0  0  0  0  0  0  0  0  0
   -1.6643    2.8491   -0.1174 C   0  0  0  0  0  0  0  0  0  0  0  0
   -2.6401    0.6137   -0.7949 O   0  0  0  0  0  0  0  0  0  0  0  0
   -1.7665   -0.4555   -0.4774 C   0  0  0  0  0  0  0  0  0  0  0  0
   -0.7998   -0.1682    0.5863 C   0  0  0  0  0  0  0  0  0  0  0  0
    0.0071    0.0594    1.4480 C   0  0  0  0  0  0  0  0  0  0  0  0
   -1.4297    1.1001   -3.1672 H   0  0  0  0  0  0  0  0  0  0  0  0
   -0.7250    2.6581   -2.6930 H   0  0  0  0  0  0  0  0  0  0  0  0
   -0.1155    1.1700   -1.9667 H   0  0  0  0  0  0  0  0  0  0  0  0
   -3.2478    3.2024   -2.5820 H   0  0  0  0  0  0  0  0  0  0  0  0
   -4.1405    2.5533   -1.1653 H   0  0  0  0  0  0  0  0  0  0  0  0
   -0.6210    3.1791   -0.0772 H   0  0  0  0  0  0  0  0  0  0  0  0
   -1.9973    2.5395    0.8797 H   0  0  0  0  0  0  0  0  0  0  0  0
   -2.4234   -1.2734   -0.1636 H   0  0  0  0  0  0  0  0  0  0  0  0
   -1.2240   -0.8049   -1.3678 H   0  0  0  0  0  0  0  0  0  0  0  0
    0.7144    0.2571    2.2156 H   0  0  0  0  0  0  0  0  0  0  0  0
  1 12  1  0  0  0  0
  1  2  1  0  0  0  0
  2  6  1  0  0  0  0
  2  5  1  0  0  0  0
  3  2  1  0  0  0  0
  3 14  1  0  0  0  0
  3  4  1  0  0  0  0
  4  5  1  0  0  0  0
  5 15  1  0  0  0  0
  5 16  1  0  0  0  0
  6  7  1  0  0  0  0
  7 17  1  0  0  0  0
  7  8  1  0  0  0  0
  8  9  3  0  0  0  0
  9 19  1  0  0  0  0
 10  1  1  0  0  0  0
 11  1  1  0  0  0  0
 13  3  1  0  0  0  0
 18  7  1  0  0  0  0
M TOR 0 0 1 2 3
M TOR 1 0 1 2 12
M TOR 2 0 1 2 13
M TOR 3 0 1 4 3
M TOR 4 0 1 4 14
M TOR 5 0 1 4 15
M TOR 6 0 1 5 6
M TOR 7 1 2 3 4
M TOR 8 1 5 6 7
M TOR 9 1 5 6 16
M TOR 10 1 5 6 17
M TOR 11 2 1 0 9
M TOR 12 2 1 0 10
M TOR 13 2 1 0 11
M TOR 14 2 1 4 14
M TOR 15 2 1 4 15
M TOR 16 2 1 5 6
M TOR 17 2 3 4 14
M TOR 18 2 3 4 15
M TOR 19 3 2 1 5
M TOR 20 3 4 1 5
M TOR 21 4 1 0 9
M TOR 22 4 1 0 10
M TOR 23 4 1 0 11
M TOR 24 4 1 2 12
M TOR 25 4 1 2 13
M TOR 26 4 1 5 6
M TOR 27 4 3 2 12
M TOR 28 4 3 2 13
M TOR 29 5 1 0 9
M TOR 30 5 1 0 10
M TOR 31 5 1 0 11
M TOR 32 5 1 2 12
M TOR 33 5 1 2 13
M TOR 34 5 1 4 14
M TOR 35 5 1 4 15
M TOR 36 5 6 7 8
M TOR 37 6 7 8 18
M TOR 38 8 7 6 16
M TOR 39 8 7 6 17
M  END
$$$$
