gdb 4623	4.1769818	0.5707167	0.5223099	2.8112	83.74	-0.24063	0.03015	0.27078	2075.6933	0.155018	-422.504259	-422.493708	-422.492764	-422.541881	36.225
 OpenBabel02181911413D

 19 19  0  0  1  0  0  0  0  0999 V2000
   -0.1366   -6.0906   -5.1652 O   0  0  0  0  0  0  0  0  0  0  0  0
    0.7049   -5.7361   -4.0742 C   0  0  0  0  0  0  0  0  0  0  0  0
    0.3537   -4.4635   -3.4486 C   0  0  0  0  0  0  0  0  0  0  0  0
    0.0136   -3.4248   -2.9374 C   0  0  0  0  0  0  0  0  0  0  0  0
   -0.3705   -2.1818   -2.3377 C   0  0  1  0  0  0  0  0  0  0  0  0
   -1.6567   -2.0830   -1.5282 C   0  0  0  0  0  0  0  0  0  0  0  0
   -0.3322   -2.0125   -0.8261 C   0  0  2  0  0  0  0  0  0  0  0  0
    0.1604   -0.7057   -0.2500 C   0  0  0  0  0  0  0  0  0  0  0  0
    1.5682   -0.5471   -0.3237 O   0  0  0  0  0  0  0  0  0  0  0  0
   -1.0465   -5.9775   -4.8714 H   0  0  0  0  0  0  0  0  0  0  0  0
    0.7142   -6.5267   -3.3059 H   0  0  0  0  0  0  0  0  0  0  0  0
    1.7191   -5.6889   -4.4868 H   0  0  0  0  0  0  0  0  0  0  0  0
   -0.1006   -1.2935   -2.9025 H   0  0  0  0  0  0  0  0  0  0  0  0
   -2.2336   -1.1697   -1.6306 H   0  0  0  0  0  0  0  0  0  0  0  0
   -2.2484   -2.9840   -1.4218 H   0  0  0  0  0  0  0  0  0  0  0  0
   -0.0419   -2.9005   -0.2697 H   0  0  0  0  0  0  0  0  0  0  0  0
   -0.2590    0.1300   -0.8213 H   0  0  0  0  0  0  0  0  0  0  0  0
   -0.2006   -0.6000    0.7860 H   0  0  0  0  0  0  0  0  0  0  0  0
    1.9749   -1.2730    0.1602 H   0  0  0  0  0  0  0  0  0  0  0  0
  1 10  1  0  0  0  0
  1  2  1  0  0  0  0
  2  3  1  0  0  0  0
  2 11  1  0  0  0  0
  3  4  3  0  0  0  0
  4  5  1  0  0  0  0
  5 13  1  6  0  0  0
  5  6  1  0  0  0  0
  5  7  1  0  0  0  0
  6 15  1  0  0  0  0
  6  7  1  0  0  0  0
  7 16  1  1  0  0  0
  7  8  1  0  0  0  0
  8 18  1  0  0  0  0
  9  8  1  0  0  0  0
  9 19  1  0  0  0  0
 12  2  1  0  0  0  0
 14  6  1  0  0  0  0
 17  8  1  0  0  0  0
M TOR 0 0 1 2 3
M TOR 1 1 2 3 4
M TOR 2 2 1 0 9
M TOR 3 2 3 4 5
M TOR 4 2 3 4 6
M TOR 5 2 3 4 12
M TOR 6 3 2 1 10
M TOR 7 3 2 1 11
M TOR 8 3 4 5 6
M TOR 9 3 4 5 13
M TOR 10 3 4 5 14
M TOR 11 3 4 6 7
M TOR 12 3 4 6 15
M TOR 13 4 5 6 7
M TOR 14 4 5 6 15
M TOR 15 4 6 5 13
M TOR 16 4 6 5 14
M TOR 17 4 6 7 8
M TOR 18 4 6 7 16
M TOR 19 4 6 7 17
M TOR 20 5 6 4 12
M TOR 21 5 6 7 8
M TOR 22 5 6 7 16
M TOR 23 5 6 7 17
M TOR 24 6 7 8 18
M TOR 25 7 6 4 12
M TOR 26 7 6 5 13
M TOR 27 7 6 5 14
M TOR 28 8 7 6 15
M  END
$$$$
