
     RDKit          3D

 19 20  0  0  0  0  0  0  0  0999 V2000
    0.1439   -0.4689   -0.0668 C   0  0  0  0  0  0  0  0  0  0  0  0
    1.5446    0.1105    0.0406 C   0  0  0  0  0  0  0  0  0  0  0  0
    1.5617    1.5688   -0.0210 O   0  0  0  0  0  0  0  0  0  0  0  0
    2.6033    1.5506   -1.0287 C   0  0  0  0  0  0  0  0  0  0  0  0
    2.0469    1.6714   -2.4645 C   0  0  0  0  0  0  0  0  0  0  0  0
    1.9851    0.1128   -2.5577 C   0  0  0  0  0  0  0  0  0  0  0  0
    2.5560   -0.0010   -1.1190 C   0  0  0  0  0  0  0  0  0  0  0  0
    2.1540   -0.2726    1.3856 C   0  0  0  0  0  0  0  0  0  0  0  0
    3.0107   -1.1012    1.5496 O   0  0  0  0  0  0  0  0  0  0  0  0
   -0.4583   -0.1711    0.7983 H   0  0  0  0  0  0  0  0  0  0  0  0
   -0.3582   -0.1021   -0.9651 H   0  0  0  0  0  0  0  0  0  0  0  0
    0.1830   -1.5626   -0.1001 H   0  0  0  0  0  0  0  0  0  0  0  0
    3.4682    2.1504   -0.7359 H   0  0  0  0  0  0  0  0  0  0  0  0
    1.0951    2.2042   -2.5179 H   0  0  0  0  0  0  0  0  0  0  0  0
    2.7466    2.1245   -3.1717 H   0  0  0  0  0  0  0  0  0  0  0  0
    1.0005   -0.3294   -2.7257 H   0  0  0  0  0  0  0  0  0  0  0  0
    2.6665   -0.2971   -3.3063 H   0  0  0  0  0  0  0  0  0  0  0  0
    3.3972   -0.6672   -0.9392 H   0  0  0  0  0  0  0  0  0  0  0  0
    1.7326    0.3201    2.2294 H   0  0  0  0  0  0  0  0  0  0  0  0
  1  2  1  0
  2  3  1  0
  3  4  1  0
  4  5  1  0
  5  6  1  0
  6  7  1  0
  2  8  1  0
  8  9  2  0
  7  2  1  0
  7  4  1  0
  1 10  1  0
  1 11  1  0
  1 12  1  0
  4 13  1  0
  5 14  1  0
  5 15  1  0
  6 16  1  0
  6 17  1  0
  7 18  1  0
  8 19  1  0
M  END
$$$$
