
     RDKit          3D

 19 19  0  0  0  0  0  0  0  0999 V2000
    1.0370    3.8049   -2.0338 O   0  0  0  0  0  0  0  0  0  0  0  0
   -0.0585    2.9070   -1.8629 C   0  0  0  0  0  0  0  0  0  0  0  0
   -1.3271    3.6280   -1.7221 C   0  0  0  0  0  0  0  0  0  0  0  0
   -2.3471    4.2448   -1.5640 C   0  0  0  0  0  0  0  0  0  0  0  0
    0.1877    1.9425   -0.6906 C   0  0  0  0  0  0  0  0  0  0  0  0
   -0.8423    0.7840   -0.5875 C   0  0  0  0  0  0  0  0  0  0  0  0
    0.0346   -0.4847   -0.6562 C   0  0  0  0  0  0  0  0  0  0  0  0
    1.3327   -0.0797   -0.2521 O   0  0  0  0  0  0  0  0  0  0  0  0
    1.5375    1.1993   -0.8260 C   0  0  0  0  0  0  0  0  0  0  0  0
    0.9794    4.4677   -1.3364 H   0  0  0  0  0  0  0  0  0  0  0  0
   -0.0822    2.3209   -2.7912 H   0  0  0  0  0  0  0  0  0  0  0  0
   -3.2534    4.7859   -1.4450 H   0  0  0  0  0  0  0  0  0  0  0  0
    0.1804    2.5293    0.2337 H   0  0  0  0  0  0  0  0  0  0  0  0
   -1.3896    0.8356    0.3557 H   0  0  0  0  0  0  0  0  0  0  0  0
   -1.5811    0.8151   -1.3935 H   0  0  0  0  0  0  0  0  0  0  0  0
   -0.2933   -1.2849    0.0118 H   0  0  0  0  0  0  0  0  0  0  0  0
    0.0594   -0.8832   -1.6841 H   0  0  0  0  0  0  0  0  0  0  0  0
    2.3621    1.6805   -0.2974 H   0  0  0  0  0  0  0  0  0  0  0  0
    1.8173    1.1122   -1.8897 H   0  0  0  0  0  0  0  0  0  0  0  0
  1  2  1  0
  2  3  1  0
  3  4  3  0
  2  5  1  0
  5  6  1  0
  6  7  1  0
  7  8  1  0
  8  9  1  0
  9  5  1  0
  1 10  1  0
  2 11  1  0
  4 12  1  0
  5 13  1  0
  6 14  1  0
  6 15  1  0
  7 16  1  0
  7 17  1  0
  9 18  1  0
  9 19  1  0
M  END
$$$$
