
     RDKit          3D

 19 19  0  0  0  0  0  0  0  0999 V2000
   -1.8880   -2.4663    2.7754 C   0  0  0  0  0  0  0  0  0  0  0  0
   -1.8640   -2.1607    1.2889 C   0  0  0  0  0  0  0  0  0  0  0  0
   -1.7329   -3.0113    0.4452 O   0  0  0  0  0  0  0  0  0  0  0  0
   -2.0384   -0.6719    0.9062 C   0  0  0  0  0  0  0  0  0  0  0  0
   -1.5343   -0.4134   -0.3888 O   0  0  0  0  0  0  0  0  0  0  0  0
   -2.6130   -0.2167   -1.2965 C   0  0  0  0  0  0  0  0  0  0  0  0
   -3.8463   -0.0881   -0.4365 C   0  0  0  0  0  0  0  0  0  0  0  0
   -5.1858    0.2423   -1.0075 C   0  0  0  0  0  0  0  0  0  0  0  0
   -3.5084   -0.3267    0.8289 C   0  0  0  0  0  0  0  0  0  0  0  0
   -1.9492   -3.5435    2.9341 H   0  0  0  0  0  0  0  0  0  0  0  0
   -0.9715   -2.0839    3.2407 H   0  0  0  0  0  0  0  0  0  0  0  0
   -2.7271   -1.9657    3.2710 H   0  0  0  0  0  0  0  0  0  0  0  0
   -1.4922   -0.0540    1.6364 H   0  0  0  0  0  0  0  0  0  0  0  0
   -2.4181    0.6858   -1.8945 H   0  0  0  0  0  0  0  0  0  0  0  0
   -2.6932   -1.0652   -1.9942 H   0  0  0  0  0  0  0  0  0  0  0  0
   -5.9553    0.2835   -0.2329 H   0  0  0  0  0  0  0  0  0  0  0  0
   -5.1683    1.2090   -1.5257 H   0  0  0  0  0  0  0  0  0  0  0  0
   -5.4898   -0.5055   -1.7506 H   0  0  0  0  0  0  0  0  0  0  0  0
   -4.1693   -0.3252    1.6863 H   0  0  0  0  0  0  0  0  0  0  0  0
  1  2  1  0
  2  3  2  0
  2  4  1  0
  4  5  1  0
  5  6  1  0
  6  7  1  0
  7  8  1  0
  7  9  2  0
  9  4  1  0
  1 10  1  0
  1 11  1  0
  1 12  1  0
  4 13  1  0
  6 14  1  0
  6 15  1  0
  8 16  1  0
  8 17  1  0
  8 18  1  0
  9 19  1  0
M  END
$$$$
