gdb 4649	6.156992	0.4027843	0.3938712	2.5416	83.25	-0.25121	-0.02587	0.22533999999999998	2652.6249	0.153636	-422.531357	-422.520281	-422.519336	-422.571093	36.3
 OpenBabel02181911413D

 19 18  0  0  0  0  0  0  0  0999 V2000
    1.3766    0.3939    0.6770 O   0  0  0  0  0  0  0  0  0  0  0  0
    0.1681    0.1933   -0.0438 C   0  0  0  0  0  0  0  0  0  0  0  0
   -0.2916   -1.1953   -0.0410 C   0  0  0  0  0  0  0  0  0  0  0  0
   -0.6630   -2.3404    0.0153 C   0  0  0  0  0  0  0  0  0  0  0  0
   -1.0954   -3.7326    0.0335 C   0  0  0  0  0  0  0  0  0  0  0  0
   -0.5959   -4.5341   -1.1857 C   0  0  0  0  0  0  0  0  0  0  0  0
   -1.0639   -5.9980   -1.1498 C   0  0  0  0  0  0  0  0  0  0  0  0
   -0.4778   -6.8028   -2.2880 C   0  0  0  0  0  0  0  0  0  0  0  0
   -1.1170   -7.4276   -3.0937 O   0  0  0  0  0  0  0  0  0  0  0  0
    1.2533    0.0166    1.5542 H   0  0  0  0  0  0  0  0  0  0  0  0
   -0.6365    0.8439    0.3351 H   0  0  0  0  0  0  0  0  0  0  0  0
    0.3777    0.5186   -1.0690 H   0  0  0  0  0  0  0  0  0  0  0  0
   -0.7404   -4.2149    0.9543 H   0  0  0  0  0  0  0  0  0  0  0  0
   -2.1918   -3.7775    0.0752 H   0  0  0  0  0  0  0  0  0  0  0  0
   -0.9527   -4.0521   -2.1021 H   0  0  0  0  0  0  0  0  0  0  0  0
    0.4990   -4.4908   -1.2159 H   0  0  0  0  0  0  0  0  0  0  0  0
   -0.7246   -6.4614   -0.2111 H   0  0  0  0  0  0  0  0  0  0  0  0
   -2.1544   -6.0770   -1.1920 H   0  0  0  0  0  0  0  0  0  0  0  0
    0.6368   -6.7754   -2.3384 H   0  0  0  0  0  0  0  0  0  0  0  0
  1 10  1  0  0  0  0
  2  3  1  0  0  0  0
  2 11  1  0  0  0  0
  2  1  1  0  0  0  0
  3  4  3  0  0  0  0
  4  5  1  0  0  0  0
  5 14  1  0  0  0  0
  5 13  1  0  0  0  0
  6  7  1  0  0  0  0
  6  5  1  0  0  0  0
  7 17  1  0  0  0  0
  8  7  1  0  0  0  0
  9  8  2  0  0  0  0
 12  2  1  0  0  0  0
 15  6  1  0  0  0  0
 16  6  1  0  0  0  0
 18  7  1  0  0  0  0
 19  8  1  0  0  0  0
M TOR 0 0 1 2 3
M TOR 1 1 2 3 4
M TOR 2 2 1 0 9
M TOR 3 2 3 4 5
M TOR 4 2 3 4 12
M TOR 5 2 3 4 13
M TOR 6 3 2 1 10
M TOR 7 3 2 1 11
M TOR 8 3 4 5 6
M TOR 9 3 4 5 14
M TOR 10 3 4 5 15
M TOR 11 4 5 6 7
M TOR 12 4 5 6 16
M TOR 13 4 5 6 17
M TOR 14 5 6 7 8
M TOR 15 5 6 7 18
M TOR 16 6 5 4 12
M TOR 17 6 5 4 13
M TOR 18 7 6 5 14
M TOR 19 7 6 5 15
M TOR 20 8 7 6 16
M TOR 21 8 7 6 17
M  END
$$$$
