
     RDKit          3D

 19 20  0  0  0  0  0  0  0  0999 V2000
   -0.9901    2.1213    1.1625 C   0  0  0  0  0  0  0  0  0  0  0  0
   -0.8527    1.0117    0.1305 C   0  0  0  0  0  0  0  0  0  0  0  0
   -1.9992   -0.0376   -0.0809 C   0  0  0  0  0  0  0  0  0  0  0  0
   -0.9426   -1.1894   -0.1044 C   0  0  0  0  0  0  0  0  0  0  0  0
    0.0724   -0.1773    0.4464 C   0  0  0  0  0  0  0  0  0  0  0  0
    1.1176   -0.2706    1.0215 O   0  0  0  0  0  0  0  0  0  0  0  0
   -2.8644    0.1346   -1.2949 C   0  0  0  0  0  0  0  0  0  0  0  0
   -4.2025    0.7380   -1.2341 C   0  0  0  0  0  0  0  0  0  0  0  0
   -4.0401   -0.6744   -1.3740 O   0  0  0  0  0  0  0  0  0  0  0  0
   -1.2942    1.7187    2.1341 H   0  0  0  0  0  0  0  0  0  0  0  0
   -0.0337    2.6342    1.3002 H   0  0  0  0  0  0  0  0  0  0  0  0
   -1.7336    2.8627    0.8535 H   0  0  0  0  0  0  0  0  0  0  0  0
   -0.5548    1.4279   -0.8430 H   0  0  0  0  0  0  0  0  0  0  0  0
   -2.6300   -0.1094    0.8100 H   0  0  0  0  0  0  0  0  0  0  0  0
   -1.1301   -2.0798    0.4992 H   0  0  0  0  0  0  0  0  0  0  0  0
   -0.6846   -1.5052   -1.1220 H   0  0  0  0  0  0  0  0  0  0  0  0
   -2.3191    0.2111   -2.2395 H   0  0  0  0  0  0  0  0  0  0  0  0
   -4.5981    1.0691   -0.2745 H   0  0  0  0  0  0  0  0  0  0  0  0
   -4.6065    1.2528   -2.1047 H   0  0  0  0  0  0  0  0  0  0  0  0
  1  2  1  0
  2  3  1  0
  3  4  1  0
  4  5  1  0
  5  6  2  0
  3  7  1  0
  7  8  1  0
  8  9  1  0
  5  2  1  0
  9  7  1  0
  1 10  1  0
  1 11  1  0
  1 12  1  0
  2 13  1  0
  3 14  1  0
  4 15  1  0
  4 16  1  0
  7 17  1  0
  8 18  1  0
  8 19  1  0
M  END
$$$$
