gdb 2542	3.0337037	1.5466247	1.3241561	1.8405	75.99	-0.23241	0.01101	0.24342	1049.5553	0.156683	-422.568374	-422.560203	-422.559259	-422.600549	31.823
 OpenBabel02181911413D

 19 20  0  0  1  0  0  0  0  0999 V2000
    1.1115    1.2504    0.2336 C   0  0  0  0  0  0  0  0  0  0  0  0
   -0.1028    0.3974    0.0924 C   0  0  0  0  0  0  0  0  0  0  0  0
   -0.3229   -0.8823    0.4063 C   0  0  0  0  0  0  0  0  0  0  0  0
   -1.8184   -1.1042    0.1836 C   0  0  1  0  0  0  0  0  0  0  0  0
   -2.3747   -2.4887    0.0162 C   0  0  0  0  0  0  0  0  0  0  0  0
   -2.4926   -0.4189    1.2860 O   0  0  0  0  0  0  0  0  0  0  0  0
   -2.3286    0.9671    0.9879 C   0  0  0  0  0  0  0  0  0  0  0  0
   -1.4810    0.9112   -0.3242 C   0  0  2  0  0  0  0  0  0  0  0  0
   -2.0839   -0.2482   -0.9153 O   0  0  0  0  0  0  0  0  0  0  0  0
    0.9365    2.0827    0.9276 H   0  0  0  0  0  0  0  0  0  0  0  0
    1.9621    0.6755    0.6088 H   0  0  0  0  0  0  0  0  0  0  0  0
    1.3972    1.6996   -0.7258 H   0  0  0  0  0  0  0  0  0  0  0  0
    0.3540   -1.5956    0.8575 H   0  0  0  0  0  0  0  0  0  0  0  0
   -2.2104   -3.0673    0.9286 H   0  0  0  0  0  0  0  0  0  0  0  0
   -3.4480   -2.4346   -0.1779 H   0  0  0  0  0  0  0  0  0  0  0  0
   -1.8808   -2.9940   -0.8172 H   0  0  0  0  0  0  0  0  0  0  0  0
   -3.3061    1.4261    0.8039 H   0  0  0  0  0  0  0  0  0  0  0  0
   -1.8244    1.4884    1.8093 H   0  0  0  0  0  0  0  0  0  0  0  0
   -1.5395    1.7776   -0.9814 H   0  0  0  0  0  0  0  0  0  0  0  0
  1 11  1  0  0  0  0
  1 10  1  0  0  0  0
  2  1  1  0  0  0  0
  2  3  2  0  0  0  0
  3 13  1  0  0  0  0
  4  5  1  6  0  0  0
  4  3  1  0  0  0  0
  4  6  1  0  0  0  0
  5 14  1  0  0  0  0
  7  6  1  0  0  0  0
  7 18  1  0  0  0  0
  8 19  1  6  0  0  0
  8  2  1  0  0  0  0
  8  7  1  0  0  0  0
  9  8  1  0  0  0  0
  9  4  1  0  0  0  0
 12  1  1  0  0  0  0
 15  5  1  0  0  0  0
 16  5  1  0  0  0  0
 17  7  1  0  0  0  0
M TOR 0 0 1 2 3
M TOR 1 0 1 2 12
M TOR 2 0 1 7 6
M TOR 3 0 1 7 8
M TOR 4 0 1 7 18
M TOR 5 1 2 3 4
M TOR 6 1 2 3 5
M TOR 7 1 2 3 8
M TOR 8 1 7 6 5
M TOR 9 1 7 6 16
M TOR 10 1 7 6 17
M TOR 11 1 7 8 3
M TOR 12 2 1 0 9
M TOR 13 2 1 0 10
M TOR 14 2 1 0 11
M TOR 15 2 1 7 6
M TOR 16 2 1 7 8
M TOR 17 2 1 7 18
M TOR 18 2 3 4 13
M TOR 19 2 3 4 14
M TOR 20 2 3 4 15
M TOR 21 2 3 5 6
M TOR 22 2 3 8 7
M TOR 23 3 2 1 7
M TOR 24 3 5 6 7
M TOR 25 3 5 6 16
M TOR 26 3 5 6 17
M TOR 27 3 8 7 6
M TOR 28 3 8 7 18
M TOR 29 4 3 2 12
M TOR 30 4 3 5 6
M TOR 31 4 3 8 7
M TOR 32 5 3 2 12
M TOR 33 5 3 4 13
M TOR 34 5 3 4 14
M TOR 35 5 3 4 15
M TOR 36 5 3 8 7
M TOR 37 5 6 7 8
M TOR 38 5 6 7 18
M TOR 39 6 5 3 8
M TOR 40 7 1 0 9
M TOR 41 7 1 0 10
M TOR 42 7 1 0 11
M TOR 43 7 1 2 12
M TOR 44 8 3 2 12
M TOR 45 8 3 4 13
M TOR 46 8 3 4 14
M TOR 47 8 3 4 15
M TOR 48 8 7 6 16
M TOR 49 8 7 6 17
M  END
$$$$
