gdb 2804	5.2385069	1.0025592	0.9255152	1.2667	75.41	-0.23274	0.07061	0.30335	1287.6953	0.156342	-422.504743	-422.496388	-422.495444	-422.537404	31.899
 OpenBabel02181911413D

 19 21  0  0  1  0  0  0  0  0999 V2000
    0.3430    0.3602    0.1582 C   0  0  0  0  0  0  0  0  0  0  0  0
    1.0796   -0.8730   -0.3275 C   0  0  1  0  0  0  0  0  0  0  0  0
    2.4434   -0.5608   -0.7201 O   0  0  0  0  0  0  0  0  0  0  0  0
    2.9947   -1.4324    0.2802 C   0  0  2  0  0  0  0  0  0  0  0  0
    3.2532   -2.8430   -0.2184 C   0  0  1  0  0  0  0  0  0  0  0  0
    3.0640   -3.8273    0.9025 C   0  0  2  0  0  0  0  0  0  0  0  0
    3.4010   -5.1667    0.6858 O   0  0  0  0  0  0  0  0  0  0  0  0
    1.8319   -3.2701    0.2482 C   0  0  1  0  0  0  0  0  0  0  0  0
    1.5611   -1.8632    0.7568 C   0  0  2  0  0  0  0  0  0  0  0  0
    0.8566    0.8110    1.0132 H   0  0  0  0  0  0  0  0  0  0  0  0
    0.2886    1.1066   -0.6402 H   0  0  0  0  0  0  0  0  0  0  0  0
   -0.6784    0.1024    0.4602 H   0  0  0  0  0  0  0  0  0  0  0  0
    0.5333   -1.3432   -1.1564 H   0  0  0  0  0  0  0  0  0  0  0  0
    3.7589   -0.9344    0.8844 H   0  0  0  0  0  0  0  0  0  0  0  0
    3.8007   -3.1044   -1.1176 H   0  0  0  0  0  0  0  0  0  0  0  0
    3.3131   -3.5618    1.9277 H   0  0  0  0  0  0  0  0  0  0  0  0
    3.2369   -5.3820   -0.2386 H   0  0  0  0  0  0  0  0  0  0  0  0
    1.1135   -3.9233   -0.2372 H   0  0  0  0  0  0  0  0  0  0  0  0
    1.1628   -1.7291    1.7650 H   0  0  0  0  0  0  0  0  0  0  0  0
  1 12  1  0  0  0  0
  1 10  1  0  0  0  0
  2 13  1  6  0  0  0
  2  1  1  0  0  0  0
  2  9  1  0  0  0  0
  3  2  1  0  0  0  0
  3  4  1  0  0  0  0
  4  9  1  0  0  0  0
  4 14  1  1  0  0  0
  5 15  1  6  0  0  0
  5  8  1  0  0  0  0
  5  4  1  0  0  0  0
  5  6  1  0  0  0  0
  6 16  1  1  0  0  0
  7  6  1  0  0  0  0
  8 18  1  6  0  0  0
  8  9  1  0  0  0  0
  8  6  1  0  0  0  0
  9 19  1  1  0  0  0
 11  1  1  0  0  0  0
 17  7  1  0  0  0  0
M TOR 0 0 1 2 3
M TOR 1 0 1 8 3
M TOR 2 0 1 8 7
M TOR 3 0 1 8 18
M TOR 4 1 2 3 4
M TOR 5 1 2 3 8
M TOR 6 1 2 3 13
M TOR 7 1 8 3 4
M TOR 8 1 8 3 13
M TOR 9 1 8 7 4
M TOR 10 1 8 7 5
M TOR 11 1 8 7 17
M TOR 12 2 1 0 9
M TOR 13 2 1 0 10
M TOR 14 2 1 0 11
M TOR 15 2 1 8 7
M TOR 16 2 1 8 18
M TOR 17 2 3 4 5
M TOR 18 2 3 4 7
M TOR 19 2 3 4 14
M TOR 20 2 3 8 7
M TOR 21 2 3 8 18
M TOR 22 3 2 1 12
M TOR 23 3 4 5 6
M TOR 24 3 4 5 7
M TOR 25 3 4 5 15
M TOR 26 3 4 7 8
M TOR 27 3 4 7 17
M TOR 28 3 8 1 12
M TOR 29 3 8 7 5
M TOR 30 3 8 7 17
M TOR 31 4 3 8 18
M TOR 32 4 5 6 16
M TOR 33 4 5 7 8
M TOR 34 4 5 7 17
M TOR 35 4 7 5 6
M TOR 36 4 7 5 15
M TOR 37 4 7 8 18
M TOR 38 5 4 3 8
M TOR 39 5 4 3 13
M TOR 40 5 7 4 14
M TOR 41 5 7 8 18
M TOR 42 6 5 4 14
M TOR 43 6 5 7 8
M TOR 44 6 5 7 17
M TOR 45 7 4 3 13
M TOR 46 7 5 6 16
M TOR 47 7 8 1 12
M TOR 48 7 8 3 13
M TOR 49 8 1 0 9
M TOR 50 8 1 0 10
M TOR 51 8 1 0 11
M TOR 52 8 3 4 14
M TOR 53 8 7 4 14
M TOR 54 8 7 5 15
M  END
$$$$
