
     RDKit          3D

 19 19  0  0  0  0  0  0  0  0999 V2000
   -3.0024    3.4633    0.0373 C   0  0  0  0  0  0  0  0  0  0  0  0
   -2.0257    3.4108   -1.1195 C   0  0  0  0  0  0  0  0  0  0  0  0
   -0.8296    4.1986   -0.8839 O   0  0  0  0  0  0  0  0  0  0  0  0
    0.0303    3.0540   -1.0342 C   0  0  0  0  0  0  0  0  0  0  0  0
   -1.1789    2.1284   -1.3030 C   0  0  0  0  0  0  0  0  0  0  0  0
   -1.4550    1.1438   -0.3407 O   0  0  0  0  0  0  0  0  0  0  0  0
   -0.6402   -0.0080   -0.4799 C   0  0  0  0  0  0  0  0  0  0  0  0
   -1.0049   -0.9968    0.5250 C   0  0  0  0  0  0  0  0  0  0  0  0
   -1.2843   -1.8293    1.3437 C   0  0  0  0  0  0  0  0  0  0  0  0
   -3.8879    2.8579   -0.1806 H   0  0  0  0  0  0  0  0  0  0  0  0
   -2.5445    3.0875    0.9540 H   0  0  0  0  0  0  0  0  0  0  0  0
   -3.3206    4.4982    0.1955 H   0  0  0  0  0  0  0  0  0  0  0  0
   -2.5141    3.7347   -2.0486 H   0  0  0  0  0  0  0  0  0  0  0  0
    0.7414    3.1760   -1.8607 H   0  0  0  0  0  0  0  0  0  0  0  0
    0.5782    2.8216   -0.1118 H   0  0  0  0  0  0  0  0  0  0  0  0
   -1.2094    1.6961   -2.3131 H   0  0  0  0  0  0  0  0  0  0  0  0
   -0.7593   -0.4386   -1.4889 H   0  0  0  0  0  0  0  0  0  0  0  0
    0.4254    0.2527   -0.3708 H   0  0  0  0  0  0  0  0  0  0  0  0
   -1.5372   -2.5614    2.0703 H   0  0  0  0  0  0  0  0  0  0  0  0
  1  2  1  0
  2  3  1  0
  3  4  1  0
  4  5  1  0
  5  6  1  0
  6  7  1  0
  7  8  1  0
  8  9  3  0
  5  2  1  0
  1 10  1  0
  1 11  1  0
  1 12  1  0
  2 13  1  0
  4 14  1  0
  4 15  1  0
  5 16  1  0
  7 17  1  0
  7 18  1  0
  9 19  1  0
M  END
$$$$
