
     RDKit          3D

 19 20  0  0  0  0  0  0  0  0999 V2000
   -2.8193   -0.4021   -1.3356 C   0  0  0  0  0  0  0  0  0  0  0  0
   -1.9760   -0.1835   -0.1003 C   0  0  0  0  0  0  0  0  0  0  0  0
   -0.7212   -0.9620   -0.1490 O   0  0  0  0  0  0  0  0  0  0  0  0
    0.0407    0.1721   -0.0367 C   0  0  0  0  0  0  0  0  0  0  0  0
    1.2284    0.2546   -0.0050 O   0  0  0  0  0  0  0  0  0  0  0  0
   -1.1563    1.1145    0.0259 C   0  0  0  0  0  0  0  0  0  0  0  0
   -1.1830    2.3189   -0.9531 C   0  0  0  0  0  0  0  0  0  0  0  0
   -0.7678    3.2335    0.2310 C   0  0  0  0  0  0  0  0  0  0  0  0
   -1.2216    2.1164    1.2083 C   0  0  0  0  0  0  0  0  0  0  0  0
   -3.1172   -1.4516   -1.4143 H   0  0  0  0  0  0  0  0  0  0  0  0
   -3.7284    0.2065   -1.2860 H   0  0  0  0  0  0  0  0  0  0  0  0
   -2.2682   -0.1307   -2.2406 H   0  0  0  0  0  0  0  0  0  0  0  0
   -2.5178   -0.4498    0.8130 H   0  0  0  0  0  0  0  0  0  0  0  0
   -0.5198    2.2715   -1.8191 H   0  0  0  0  0  0  0  0  0  0  0  0
   -2.2019    2.5238   -1.2949 H   0  0  0  0  0  0  0  0  0  0  0  0
    0.3146    3.3745    0.2635 H   0  0  0  0  0  0  0  0  0  0  0  0
   -1.2573    4.2056    0.3126 H   0  0  0  0  0  0  0  0  0  0  0  0
   -0.5910    1.9040    2.0741 H   0  0  0  0  0  0  0  0  0  0  0  0
   -2.2538    2.2556    1.5439 H   0  0  0  0  0  0  0  0  0  0  0  0
  1  2  1  0
  2  3  1  0
  3  4  1  0
  4  5  2  0
  4  6  1  0
  6  7  1  0
  7  8  1  0
  8  9  1  0
  6  2  1  0
  9  6  1  0
  1 10  1  0
  1 11  1  0
  1 12  1  0
  2 13  1  0
  7 14  1  0
  7 15  1  0
  8 16  1  0
  8 17  1  0
  9 18  1  0
  9 19  1  0
M  END
$$$$
