gdb 3370	2.4442368	1.8970011	1.2558218	0.9877	74.94	-0.24346	0.05998	0.30344	1029.8632	0.157328	-422.490535	-422.482725	-422.481781	-422.522682	30.028
 OpenBabel02181911413D

 19 21  0  0  1  0  0  0  0  0999 V2000
   -0.1518    0.2192   -0.0363 C   0  0  0  0  0  0  0  0  0  0  0  0
    1.3549    0.0314    0.0665 C   0  0  1  0  0  0  0  0  0  0  0  0
    1.8733   -0.9917    1.1202 C   0  0  1  0  0  0  0  0  0  0  0  0
    0.9868   -2.1181    1.3508 O   0  0  0  0  0  0  0  0  0  0  0  0
    1.8099   -3.0093    0.5515 C   0  0  0  0  0  0  0  0  0  0  0  0
    2.6015   -1.8246    0.0335 C   0  0  2  0  0  0  0  0  0  0  0  0
    3.9777   -1.5030   -0.5186 C   0  0  0  0  0  0  0  0  0  0  0  0
    3.4209   -0.4181   -1.3073 O   0  0  0  0  0  0  0  0  0  0  0  0
    2.0590   -0.8289   -1.0219 C   0  0  2  0  0  0  0  0  0  0  0  0
   -0.5389    0.7685    0.8282 H   0  0  0  0  0  0  0  0  0  0  0  0
   -0.4112    0.7836   -0.9381 H   0  0  0  0  0  0  0  0  0  0  0  0
   -0.6640   -0.7460   -0.0692 H   0  0  0  0  0  0  0  0  0  0  0  0
    1.8691    0.9934    0.1619 H   0  0  0  0  0  0  0  0  0  0  0  0
    2.3233   -0.6311    2.0508 H   0  0  0  0  0  0  0  0  0  0  0  0
    2.3768   -3.7023    1.1890 H   0  0  0  0  0  0  0  0  0  0  0  0
    1.2230   -3.5849   -0.1738 H   0  0  0  0  0  0  0  0  0  0  0  0
    4.7414   -1.1590    0.1890 H   0  0  0  0  0  0  0  0  0  0  0  0
    4.4087   -2.2826   -1.1623 H   0  0  0  0  0  0  0  0  0  0  0  0
    1.5085   -1.1074   -1.9272 H   0  0  0  0  0  0  0  0  0  0  0  0
  1  2  1  0  0  0  0
  1 10  1  0  0  0  0
  2 13  1  1  0  0  0
  2  3  1  0  0  0  0
  3  4  1  0  0  0  0
  3 14  1  1  0  0  0
  5 15  1  0  0  0  0
  5  4  1  0  0  0  0
  6  7  1  1  0  0  0
  6  5  1  0  0  0  0
  6  3  1  0  0  0  0
  7 17  1  0  0  0  0
  8  9  1  0  0  0  0
  8  7  1  0  0  0  0
  9 19  1  6  0  0  0
  9  6  1  0  0  0  0
  9  2  1  0  0  0  0
 11  1  1  0  0  0  0
 12  1  1  0  0  0  0
 16  5  1  0  0  0  0
 18  7  1  0  0  0  0
M TOR 0 0 1 2 3
M TOR 1 0 1 2 5
M TOR 2 0 1 2 13
M TOR 3 0 1 8 5
M TOR 4 0 1 8 7
M TOR 5 0 1 8 18
M TOR 6 1 2 3 4
M TOR 7 1 2 5 4
M TOR 8 1 2 5 6
M TOR 9 1 2 5 8
M TOR 10 1 8 5 4
M TOR 11 1 8 5 6
M TOR 12 1 8 7 6
M TOR 13 2 1 0 9
M TOR 14 2 1 0 10
M TOR 15 2 1 0 11
M TOR 16 2 1 8 7
M TOR 17 2 1 8 18
M TOR 18 2 3 4 5
M TOR 19 2 3 4 14
M TOR 20 2 3 4 15
M TOR 21 2 5 4 14
M TOR 22 2 5 4 15
M TOR 23 2 5 6 7
M TOR 24 2 5 6 16
M TOR 25 2 5 6 17
M TOR 26 2 5 8 7
M TOR 27 2 5 8 18
M TOR 28 3 2 1 8
M TOR 29 3 2 1 12
M TOR 30 3 2 5 6
M TOR 31 3 2 5 8
M TOR 32 3 4 5 6
M TOR 33 3 4 5 8
M TOR 34 4 3 2 13
M TOR 35 4 5 2 13
M TOR 36 4 5 6 7
M TOR 37 4 5 6 16
M TOR 38 4 5 6 17
M TOR 39 4 5 8 7
M TOR 40 4 5 8 18
M TOR 41 5 2 1 12
M TOR 42 5 6 7 8
M TOR 43 5 8 1 12
M TOR 44 6 5 2 13
M TOR 45 6 5 4 14
M TOR 46 6 5 4 15
M TOR 47 6 5 8 18
M TOR 48 6 7 8 18
M TOR 49 7 8 1 12
M TOR 50 8 1 0 9
M TOR 51 8 1 0 10
M TOR 52 8 1 0 11
M TOR 53 8 1 2 13
M TOR 54 8 5 2 13
M TOR 55 8 5 4 14
M TOR 56 8 5 4 15
M TOR 57 8 5 6 16
M TOR 58 8 5 6 17
M TOR 59 8 7 6 16
M TOR 60 8 7 6 17
M  END
$$$$
