gdb 1506	2.4881	1.4689405	1.161163	4.209	78.23	-0.25766	0.0058	0.26346	1138.545	0.155601	-422.610572	-422.601468	-422.600523	-422.645375	33.7
 OpenBabel02181911403D

 19 19  0  0  0  0  0  0  0  0999 V2000
   -1.0782   -1.6340   -2.7179 C   0  0  0  0  0  0  0  0  0  0  0  0
   -1.6350   -1.2293   -1.3447 C   0  0  0  0  0  0  0  0  0  0  0  0
   -2.5264   -2.3397   -0.7682 C   0  0  0  0  0  0  0  0  0  0  0  0
   -0.4818   -1.1519   -0.4629 O   0  0  0  0  0  0  0  0  0  0  0  0
   -0.0867   -0.0729    0.2454 C   0  0  0  0  0  0  0  0  0  0  0  0
    0.8896   -0.1586    0.9406 O   0  0  0  0  0  0  0  0  0  0  0  0
   -0.8878    1.2146    0.1398 C   0  0  0  0  0  0  0  0  0  0  0  0
   -2.0662    1.1637   -0.7791 C   0  0  0  0  0  0  0  0  0  0  0  0
   -2.3937    0.0625   -1.4408 C   0  0  0  0  0  0  0  0  0  0  0  0
   -0.5076   -2.5625   -2.6306 H   0  0  0  0  0  0  0  0  0  0  0  0
   -1.8935   -1.7896   -3.4308 H   0  0  0  0  0  0  0  0  0  0  0  0
   -0.4201   -0.8538   -3.1087 H   0  0  0  0  0  0  0  0  0  0  0  0
   -2.8921   -2.0603    0.2232 H   0  0  0  0  0  0  0  0  0  0  0  0
   -3.3883   -2.5151   -1.4189 H   0  0  0  0  0  0  0  0  0  0  0  0
   -1.9571   -3.2691   -0.6829 H   0  0  0  0  0  0  0  0  0  0  0  0
   -1.1891    1.4826    1.1607 H   0  0  0  0  0  0  0  0  0  0  0  0
   -0.1820    2.0004   -0.1579 H   0  0  0  0  0  0  0  0  0  0  0  0
   -2.6548    2.0704   -0.8887 H   0  0  0  0  0  0  0  0  0  0  0  0
   -3.2539    0.0415   -2.1040 H   0  0  0  0  0  0  0  0  0  0  0  0
  1 10  1  0  0  0  0
  1  2  1  0  0  0  0
  2  3  1  0  0  0  0
  2  4  1  0  0  0  0
  3 15  1  0  0  0  0
  3 13  1  0  0  0  0
  4  5  1  0  0  0  0
  5  6  2  0  0  0  0
  7  5  1  0  0  0  0
  7 16  1  0  0  0  0
  8  7  1  0  0  0  0
  9  2  1  0  0  0  0
  9  8  2  0  0  0  0
 11  1  1  0  0  0  0
 12  1  1  0  0  0  0
 14  3  1  0  0  0  0
 17  7  1  0  0  0  0
 18  8  1  0  0  0  0
 19  9  1  0  0  0  0
M TOR 0 0 1 2 12
M TOR 1 0 1 2 13
M TOR 2 0 1 2 14
M TOR 3 0 1 3 4
M TOR 4 0 1 8 7
M TOR 5 0 1 8 18
M TOR 6 1 3 4 5
M TOR 7 1 3 4 6
M TOR 8 1 8 7 6
M TOR 9 1 8 7 17
M TOR 10 2 1 0 9
M TOR 11 2 1 0 10
M TOR 12 2 1 0 11
M TOR 13 2 1 3 4
M TOR 14 2 1 8 7
M TOR 15 2 1 8 18
M TOR 16 3 1 0 9
M TOR 17 3 1 0 10
M TOR 18 3 1 0 11
M TOR 19 3 1 2 12
M TOR 20 3 1 2 13
M TOR 21 3 1 2 14
M TOR 22 3 1 8 7
M TOR 23 3 1 8 18
M TOR 24 3 4 6 7
M TOR 25 3 4 6 15
M TOR 26 3 4 6 16
M TOR 27 4 3 1 8
M TOR 28 4 6 7 8
M TOR 29 4 6 7 17
M TOR 30 5 4 6 7
M TOR 31 5 4 6 15
M TOR 32 5 4 6 16
M TOR 33 6 7 8 18
M TOR 34 8 1 0 9
M TOR 35 8 1 0 10
M TOR 36 8 1 0 11
M TOR 37 8 1 2 12
M TOR 38 8 1 2 13
M TOR 39 8 1 2 14
M TOR 40 8 7 6 15
M TOR 41 8 7 6 16
M  END
$$$$
