gdb 4706	2.0219417	1.1312712	0.9512155	1.3308	77.76	-0.23942	-0.03046	0.20895999999999998	1371.59	0.152934	-422.536706	-422.525803	-422.524858	-422.574161	37.728
 OpenBabel02181911413D

 19 18  0  0  1  0  0  0  0  0999 V2000
    2.5769    2.5750    1.0241 C   0  0  0  0  0  0  0  0  0  0  0  0
    3.0366    1.1747    1.4308 C   0  0  0  0  0  0  0  0  0  0  0  0
    2.9356    0.1494    0.2843 C   0  0  2  0  0  0  0  0  0  0  0  0
    1.5620   -0.0651   -0.1673 C   0  0  0  0  0  0  0  0  0  0  0  0
    0.4254   -0.2660   -0.5054 C   0  0  0  0  0  0  0  0  0  0  0  0
    3.5248   -1.2218    0.6894 C   0  0  0  0  0  0  0  0  0  0  0  0
    3.7808   -1.4991    1.8345 O   0  0  0  0  0  0  0  0  0  0  0  0
    3.7631   -2.2232   -0.4478 C   0  0  0  0  0  0  0  0  0  0  0  0
    4.3173   -1.6291   -1.6100 O   0  0  0  0  0  0  0  0  0  0  0  0
    2.6659    3.2700    1.8642 H   0  0  0  0  0  0  0  0  0  0  0  0
    3.1809    2.9702    0.1994 H   0  0  0  0  0  0  0  0  0  0  0  0
    1.5323    2.5694    0.6988 H   0  0  0  0  0  0  0  0  0  0  0  0
    4.0787    1.1982    1.7670 H   0  0  0  0  0  0  0  0  0  0  0  0
    2.4515    0.8077    2.2787 H   0  0  0  0  0  0  0  0  0  0  0  0
    3.5197    0.4929   -0.5802 H   0  0  0  0  0  0  0  0  0  0  0  0
   -0.5762   -0.4294   -0.8182 H   0  0  0  0  0  0  0  0  0  0  0  0
    4.3751   -3.0419   -0.0506 H   0  0  0  0  0  0  0  0  0  0  0  0
    2.7917   -2.6335   -0.7454 H   0  0  0  0  0  0  0  0  0  0  0  0
    5.2470   -1.4495   -1.4368 H   0  0  0  0  0  0  0  0  0  0  0  0
  1  2  1  0  0  0  0
  1 10  1  0  0  0  0
  2 13  1  0  0  0  0
  2 14  1  0  0  0  0
  3 15  1  6  0  0  0
  3  6  1  0  0  0  0
  3  2  1  0  0  0  0
  4  3  1  0  0  0  0
  5  4  3  0  0  0  0
  6  7  2  0  0  0  0
  8 17  1  0  0  0  0
  8  6  1  0  0  0  0
  9 19  1  0  0  0  0
  9  8  1  0  0  0  0
 11  1  1  0  0  0  0
 12  1  1  0  0  0  0
 16  5  1  0  0  0  0
 18  8  1  0  0  0  0
M TOR 0 0 1 2 3
M TOR 1 0 1 2 5
M TOR 2 0 1 2 14
M TOR 3 1 2 3 4
M TOR 4 1 2 5 6
M TOR 5 1 2 5 7
M TOR 6 2 1 0 9
M TOR 7 2 1 0 10
M TOR 8 2 1 0 11
M TOR 9 2 3 4 15
M TOR 10 2 5 7 8
M TOR 11 2 5 7 16
M TOR 12 2 5 7 17
M TOR 13 3 2 1 12
M TOR 14 3 2 1 13
M TOR 15 3 2 5 6
M TOR 16 3 2 5 7
M TOR 17 4 3 2 5
M TOR 18 4 3 2 14
M TOR 19 5 2 1 12
M TOR 20 5 2 1 13
M TOR 21 5 7 8 18
M TOR 22 6 5 2 14
M TOR 23 6 5 7 8
M TOR 24 6 5 7 16
M TOR 25 6 5 7 17
M TOR 26 7 5 2 14
M  END
$$$$
