gdb 2227	2.7291524	1.9909889	1.8264128	1.9066	72.9	-0.25048	0.09307	0.34354999999999997	879.7674	0.159904	-422.569419	-422.562804	-422.56186	-422.599924	28.049
 OpenBabel02181911413D

 19 21  0  0  1  0  0  0  0  0999 V2000
   -0.0697   -0.0565    0.1772 C   0  0  0  0  0  0  0  0  0  0  0  0
    1.3731    0.0548   -0.2144 C   0  0  2  0  0  0  0  0  0  0  0  0
    1.5627    0.2765   -1.6087 O   0  0  0  0  0  0  0  0  0  0  0  0
    2.9902    0.1610   -1.5703 C   0  0  2  0  0  0  0  0  0  0  0  0
    3.0800   -1.3439   -1.2626 C   0  0  0  0  0  0  0  0  0  0  0  0
    2.4231   -1.1461    0.1236 C   0  0  1  0  0  0  0  0  0  0  0  0
    3.5615   -0.3434    0.7960 C   0  0  0  0  0  0  0  0  0  0  0  0
    3.3258    0.8582   -0.1356 C   0  0  2  0  0  0  0  0  0  0  0  0
    2.0129    1.2118    0.3158 O   0  0  0  0  0  0  0  0  0  0  0  0
   -0.1582   -0.1648    1.2607 H   0  0  0  0  0  0  0  0  0  0  0  0
   -0.6078    0.8425   -0.1340 H   0  0  0  0  0  0  0  0  0  0  0  0
   -0.5243   -0.9256   -0.3042 H   0  0  0  0  0  0  0  0  0  0  0  0
    3.4472    0.5766   -2.4657 H   0  0  0  0  0  0  0  0  0  0  0  0
    2.4900   -1.9061   -1.9874 H   0  0  0  0  0  0  0  0  0  0  0  0
    4.0841   -1.7686   -1.1949 H   0  0  0  0  0  0  0  0  0  0  0  0
    2.0099   -2.0103    0.6403 H   0  0  0  0  0  0  0  0  0  0  0  0
    3.3832   -0.0502    1.8312 H   0  0  0  0  0  0  0  0  0  0  0  0
    4.5308   -0.8405    0.7148 H   0  0  0  0  0  0  0  0  0  0  0  0
    3.9954    1.7155   -0.1223 H   0  0  0  0  0  0  0  0  0  0  0  0
  1 10  1  0  0  0  0
  2  6  1  0  0  0  0
  2  1  1  1  0  0  0
  2  9  1  0  0  0  0
  3  4  1  0  0  0  0
  3  2  1  0  0  0  0
  4 13  1  6  0  0  0
  4  5  1  0  0  0  0
  4  8  1  0  0  0  0
  5 15  1  0  0  0  0
  5  6  1  0  0  0  0
  6 16  1  1  0  0  0
  6  7  1  0  0  0  0
  7 17  1  0  0  0  0
  8 19  1  1  0  0  0
  8  9  1  0  0  0  0
  8  7  1  0  0  0  0
 11  1  1  0  0  0  0
 12  1  1  0  0  0  0
 14  5  1  0  0  0  0
 18  7  1  0  0  0  0
M TOR 0 0 1 2 3
M TOR 1 0 1 5 4
M TOR 2 0 1 5 6
M TOR 3 0 1 5 15
M TOR 4 0 1 8 7
M TOR 5 1 2 3 4
M TOR 6 1 2 3 7
M TOR 7 1 2 3 12
M TOR 8 1 5 4 3
M TOR 9 1 5 4 13
M TOR 10 1 5 4 14
M TOR 11 1 5 6 7
M TOR 12 1 5 6 16
M TOR 13 1 5 6 17
M TOR 14 1 8 7 3
M TOR 15 1 8 7 6
M TOR 16 1 8 7 18
M TOR 17 2 1 0 9
M TOR 18 2 1 0 10
M TOR 19 2 1 0 11
M TOR 20 2 1 5 4
M TOR 21 2 1 5 6
M TOR 22 2 1 5 15
M TOR 23 2 1 8 7
M TOR 24 2 3 4 5
M TOR 25 2 3 4 13
M TOR 26 2 3 4 14
M TOR 27 2 3 7 6
M TOR 28 2 3 7 8
M TOR 29 2 3 7 18
M TOR 30 3 2 1 5
M TOR 31 3 2 1 8
M TOR 32 3 4 5 6
M TOR 33 3 4 5 15
M TOR 34 3 7 6 5
M TOR 35 3 7 6 16
M TOR 36 3 7 6 17
M TOR 37 4 3 7 6
M TOR 38 4 3 7 8
M TOR 39 4 3 7 18
M TOR 40 4 5 1 8
M TOR 41 4 5 6 7
M TOR 42 4 5 6 16
M TOR 43 4 5 6 17
M TOR 44 5 1 0 9
M TOR 45 5 1 0 10
M TOR 46 5 1 0 11
M TOR 47 5 1 8 7
M TOR 48 5 4 3 7
M TOR 49 5 4 3 12
M TOR 50 5 6 7 8
M TOR 51 5 6 7 18
M TOR 52 6 5 1 8
M TOR 53 6 5 4 13
M TOR 54 6 5 4 14
M TOR 55 6 7 3 12
M TOR 56 7 3 4 13
M TOR 57 7 3 4 14
M TOR 58 7 6 5 15
M TOR 59 8 1 0 9
M TOR 60 8 1 0 10
M TOR 61 8 1 0 11
M TOR 62 8 1 5 15
M TOR 63 8 7 3 12
M TOR 64 8 7 6 16
M TOR 65 8 7 6 17
M  END
$$$$
