
     RDKit          3D

 19 20  0  0  0  0  0  0  0  0999 V2000
    0.0063    0.4304   -0.0603 C   0  0  0  0  0  0  0  0  0  0  0  0
    1.4707    0.0794    0.0452 C   0  0  0  0  0  0  0  0  0  0  0  0
    2.0437   -1.0147   -0.9011 C   0  0  0  0  0  0  0  0  0  0  0  0
    2.6345   -1.7822    0.3185 C   0  0  0  0  0  0  0  0  0  0  0  0
    2.1499   -0.6672    1.2704 C   0  0  0  0  0  0  0  0  0  0  0  0
    3.0864    0.4091    1.4452 O   0  0  0  0  0  0  0  0  0  0  0  0
    2.4906    1.1869    0.3802 C   0  0  0  0  0  0  0  0  0  0  0  0
    1.4163   -1.0281    2.5238 C   0  0  0  0  0  0  0  0  0  0  0  0
    0.7194   -2.0085    2.6300 O   0  0  0  0  0  0  0  0  0  0  0  0
   -0.3086    1.1088    0.7396 H   0  0  0  0  0  0  0  0  0  0  0  0
   -0.2004    0.9227   -1.0185 H   0  0  0  0  0  0  0  0  0  0  0  0
   -0.6182   -0.4671   -0.0071 H   0  0  0  0  0  0  0  0  0  0  0  0
    1.2702   -1.5714   -1.4351 H   0  0  0  0  0  0  0  0  0  0  0  0
    2.7694   -0.6476   -1.6318 H   0  0  0  0  0  0  0  0  0  0  0  0
    2.1266   -2.7267    0.5239 H   0  0  0  0  0  0  0  0  0  0  0  0
    3.7155   -1.9312    0.3346 H   0  0  0  0  0  0  0  0  0  0  0  0
    2.0454    2.1125    0.7683 H   0  0  0  0  0  0  0  0  0  0  0  0
    3.2135    1.4385   -0.4055 H   0  0  0  0  0  0  0  0  0  0  0  0
    1.5395   -0.2944    3.3510 H   0  0  0  0  0  0  0  0  0  0  0  0
  1  2  1  0
  2  3  1  0
  3  4  1  0
  4  5  1  0
  5  6  1  0
  6  7  1  0
  5  8  1  0
  8  9  2  0
  5  2  1  0
  7  2  1  0
  1 10  1  0
  1 11  1  0
  1 12  1  0
  3 13  1  0
  3 14  1  0
  4 15  1  0
  4 16  1  0
  7 17  1  0
  7 18  1  0
  8 19  1  0
M  END
$$$$
