gdb 3927	3.9453923	1.2887135	1.2261186	2.7342	76.91	-0.2374	0.06182	0.29922	1090.0196	0.156262	-422.438307	-422.430522	-422.429577	-422.469972	31.526
 OpenBabel02181911413D

 19 21  0  0  1  0  0  0  0  0999 V2000
   -0.0235    0.0616    0.2102 C   0  0  0  0  0  0  0  0  0  0  0  0
    1.4815   -0.0062    0.0539 C   0  0  2  0  0  0  0  0  0  0  0  0
    2.3758   -0.3782    1.3229 C   0  0  2  0  0  0  0  0  0  0  0  0
    2.0373    0.9277    1.9026 O   0  0  0  0  0  0  0  0  0  0  0  0
    2.4030    1.1862    0.4532 C   0  0  2  0  0  0  0  0  0  0  0  0
    3.2682    2.4448    0.4005 C   0  0  0  0  0  0  0  0  0  0  0  0
    4.3894    1.5531    1.1241 C   0  0  1  0  0  0  0  0  0  0  0  0
    4.5767    1.7686    2.4859 O   0  0  0  0  0  0  0  0  0  0  0  0
    3.6068    0.2541    0.6363 C   0  0  1  0  0  0  0  0  0  0  0  0
   -0.2887    0.5399    1.1551 H   0  0  0  0  0  0  0  0  0  0  0  0
   -0.4716    0.6341   -0.6088 H   0  0  0  0  0  0  0  0  0  0  0  0
   -0.4611   -0.9422    0.1869 H   0  0  0  0  0  0  0  0  0  0  0  0
    1.7906   -0.4948   -0.8756 H   0  0  0  0  0  0  0  0  0  0  0  0
    2.2750   -1.2538    1.9709 H   0  0  0  0  0  0  0  0  0  0  0  0
    3.5643    2.7149   -0.6164 H   0  0  0  0  0  0  0  0  0  0  0  0
    2.9056    3.3241    0.9380 H   0  0  0  0  0  0  0  0  0  0  0  0
    5.3694    1.6342    0.6479 H   0  0  0  0  0  0  0  0  0  0  0  0
    3.7100    1.6001    2.8824 H   0  0  0  0  0  0  0  0  0  0  0  0
    4.0314   -0.2501   -0.2335 H   0  0  0  0  0  0  0  0  0  0  0  0
  1 10  1  0  0  0  0
  2 13  1  6  0  0  0
  2  1  1  0  0  0  0
  2  5  1  0  0  0  0
  2  3  1  0  0  0  0
  3  4  1  0  0  0  0
  3 14  1  1  0  0  0
  5  9  1  0  0  0  0
  5  4  1  1  0  0  0
  6  5  1  0  0  0  0
  6 16  1  0  0  0  0
  6  7  1  0  0  0  0
  7 17  1  6  0  0  0
  7  8  1  0  0  0  0
  8 18  1  0  0  0  0
  9 19  1  6  0  0  0
  9  7  1  0  0  0  0
  9  3  1  0  0  0  0
 11  1  1  0  0  0  0
 12  1  1  0  0  0  0
 15  6  1  0  0  0  0
M TOR 0 0 1 2 3
M TOR 1 0 1 2 8
M TOR 2 0 1 2 13
M TOR 3 0 1 4 3
M TOR 4 0 1 4 5
M TOR 5 0 1 4 8
M TOR 6 1 2 3 4
M TOR 7 1 2 8 4
M TOR 8 1 2 8 6
M TOR 9 1 2 8 18
M TOR 10 1 4 5 6
M TOR 11 1 4 5 14
M TOR 12 1 4 5 15
M TOR 13 1 4 8 6
M TOR 14 1 4 8 18
M TOR 15 2 1 0 9
M TOR 16 2 1 0 10
M TOR 17 2 1 0 11
M TOR 18 2 1 4 5
M TOR 19 2 3 4 5
M TOR 20 2 3 4 8
M TOR 21 2 8 4 5
M TOR 22 2 8 6 5
M TOR 23 2 8 6 7
M TOR 24 2 8 6 16
M TOR 25 3 2 1 12
M TOR 26 3 2 8 6
M TOR 27 3 2 8 18
M TOR 28 3 4 1 12
M TOR 29 3 4 5 6
M TOR 30 3 4 5 14
M TOR 31 3 4 5 15
M TOR 32 3 4 8 6
M TOR 33 3 4 8 18
M TOR 34 4 1 0 9
M TOR 35 4 1 0 10
M TOR 36 4 1 0 11
M TOR 37 4 1 2 13
M TOR 38 4 3 2 13
M TOR 39 4 5 6 7
M TOR 40 4 5 6 8
M TOR 41 4 5 6 16
M TOR 42 4 8 2 13
M TOR 43 4 8 6 7
M TOR 44 4 8 6 16
M TOR 45 5 4 1 12
M TOR 46 5 4 8 18
M TOR 47 5 6 7 17
M TOR 48 5 6 8 18
M TOR 49 6 8 2 13
M TOR 50 7 6 5 14
M TOR 51 7 6 5 15
M TOR 52 7 6 8 18
M TOR 53 8 2 1 12
M TOR 54 8 4 1 12
M TOR 55 8 4 5 14
M TOR 56 8 4 5 15
M TOR 57 8 6 5 14
M TOR 58 8 6 5 15
M TOR 59 8 6 7 17
M  END
$$$$
