gdb 5278	2.7267183	1.5056959	1.2490047	1.5963	73.84	-0.25328	0.05717	0.31045	1063.0989	0.156758	-422.493599	-422.485483	-422.484539	-422.526194	31.369
 OpenBabel02181911423D

 19 21  0  0  1  0  0  0  0  0999 V2000
    1.0728    0.8833    0.4934 O   0  0  0  0  0  0  0  0  0  0  0  0
   -0.1241    0.2688    0.0305 C   0  0  0  0  0  0  0  0  0  0  0  0
   -1.3533    1.0671    0.3914 C   0  0  2  0  0  0  0  0  0  0  0  0
   -1.8899    1.0402    1.8586 C   0  0  0  0  0  0  0  0  0  0  0  0
   -3.3057    0.6424    1.3343 C   0  0  0  0  0  0  0  0  0  0  0  0
   -2.7814    0.6808   -0.1308 C   0  0  1  0  0  0  0  0  0  0  0  0
   -2.8343    2.0467   -0.8567 C   0  0  1  0  0  0  0  0  0  0  0  0
   -2.6768    3.0804    0.1230 O   0  0  0  0  0  0  0  0  0  0  0  0
   -1.4992    2.4205   -0.3537 C   0  0  1  0  0  0  0  0  0  0  0  0
    1.0142    0.9480    1.4524 H   0  0  0  0  0  0  0  0  0  0  0  0
   -0.0193    0.2058   -1.0593 H   0  0  0  0  0  0  0  0  0  0  0  0
   -0.2189   -0.7620    0.4084 H   0  0  0  0  0  0  0  0  0  0  0  0
   -1.4180    0.2677    2.4743 H   0  0  0  0  0  0  0  0  0  0  0  0
   -1.8443    1.9942    2.3860 H   0  0  0  0  0  0  0  0  0  0  0  0
   -3.6252   -0.3540    1.6474 H   0  0  0  0  0  0  0  0  0  0  0  0
   -4.0991    1.3570    1.5576 H   0  0  0  0  0  0  0  0  0  0  0  0
   -2.9297   -0.1910   -0.7695 H   0  0  0  0  0  0  0  0  0  0  0  0
   -3.3601    2.3158   -1.7662 H   0  0  0  0  0  0  0  0  0  0  0  0
   -0.7138    3.0444   -0.7655 H   0  0  0  0  0  0  0  0  0  0  0  0
  1 10  1  0  0  0  0
  2 12  1  0  0  0  0
  2  1  1  0  0  0  0
  3  2  1  6  0  0  0
  3  4  1  0  0  0  0
  4 14  1  0  0  0  0
  4 13  1  0  0  0  0
  5 16  1  0  0  0  0
  5 15  1  0  0  0  0
  5  4  1  0  0  0  0
  6 17  1  6  0  0  0
  6  3  1  0  0  0  0
  6  5  1  0  0  0  0
  7 18  1  6  0  0  0
  7  9  1  0  0  0  0
  7  6  1  0  0  0  0
  7  8  1  0  0  0  0
  9 19  1  6  0  0  0
  9  8  1  0  0  0  0
  9  3  1  0  0  0  0
 11  2  1  0  0  0  0
M TOR 0 0 1 2 3
M TOR 1 0 1 2 5
M TOR 2 0 1 2 8
M TOR 3 1 2 3 4
M TOR 4 1 2 3 12
M TOR 5 1 2 3 13
M TOR 6 1 2 5 4
M TOR 7 1 2 5 6
M TOR 8 1 2 5 16
M TOR 9 1 2 8 6
M TOR 10 1 2 8 7
M TOR 11 1 2 8 18
M TOR 12 2 1 0 9
M TOR 13 2 3 4 5
M TOR 14 2 3 4 14
M TOR 15 2 3 4 15
M TOR 16 2 5 4 14
M TOR 17 2 5 4 15
M TOR 18 2 5 6 7
M TOR 19 2 5 6 8
M TOR 20 2 5 6 17
M TOR 21 2 8 6 7
M TOR 22 2 8 6 17
M TOR 23 3 2 1 10
M TOR 24 3 2 1 11
M TOR 25 3 2 5 6
M TOR 26 3 2 5 16
M TOR 27 3 2 8 6
M TOR 28 3 2 8 7
M TOR 29 3 2 8 18
M TOR 30 3 4 5 6
M TOR 31 3 4 5 16
M TOR 32 4 3 2 8
M TOR 33 4 5 2 8
M TOR 34 4 5 6 7
M TOR 35 4 5 6 8
M TOR 36 4 5 6 17
M TOR 37 5 2 1 10
M TOR 38 5 2 1 11
M TOR 39 5 2 3 12
M TOR 40 5 2 3 13
M TOR 41 5 2 8 7
M TOR 42 5 2 8 18
M TOR 43 5 4 3 12
M TOR 44 5 4 3 13
M TOR 45 5 6 7 8
M TOR 46 5 6 8 18
M TOR 47 6 5 4 14
M TOR 48 6 5 4 15
M TOR 49 6 7 8 18
M TOR 50 7 6 5 16
M TOR 51 7 8 6 17
M TOR 52 8 2 1 10
M TOR 53 8 2 1 11
M TOR 54 8 2 3 12
M TOR 55 8 2 3 13
M TOR 56 8 2 5 16
M TOR 57 8 6 5 16
M  END
$$$$
