
     RDKit          3D

 19 21  0  0  0  0  0  0  0  0999 V2000
    0.8113    0.0523    1.1242 O   0  0  0  0  0  0  0  0  0  0  0  0
   -0.5630    0.3276    0.9849 C   0  0  0  0  0  0  0  0  0  0  0  0
   -1.3983    0.1385    2.3252 C   0  0  0  0  0  0  0  0  0  0  0  0
   -1.2623    1.6830    2.6152 C   0  0  0  0  0  0  0  0  0  0  0  0
   -2.2071    2.8639    2.2600 C   0  0  0  0  0  0  0  0  0  0  0  0
   -2.4691    2.1673    0.9014 C   0  0  0  0  0  0  0  0  0  0  0  0
   -0.9609    1.8004    1.1086 C   0  0  0  0  0  0  0  0  0  0  0  0
   -0.2848    3.0250    0.8820 O   0  0  0  0  0  0  0  0  0  0  0  0
   -1.1002    3.8625    1.7745 C   0  0  0  0  0  0  0  0  0  0  0  0
    1.2265    0.7979    1.5712 H   0  0  0  0  0  0  0  0  0  0  0  0
   -0.9095   -0.2171    0.1018 H   0  0  0  0  0  0  0  0  0  0  0  0
   -2.4045   -0.2600    2.1883 H   0  0  0  0  0  0  0  0  0  0  0  0
   -0.8665   -0.4757    3.0532 H   0  0  0  0  0  0  0  0  0  0  0  0
   -0.4669    1.8949    3.3342 H   0  0  0  0  0  0  0  0  0  0  0  0
   -2.9862    3.2899    2.8952 H   0  0  0  0  0  0  0  0  0  0  0  0
   -3.1637    1.3316    0.9517 H   0  0  0  0  0  0  0  0  0  0  0  0
   -2.6819    2.7951    0.0336 H   0  0  0  0  0  0  0  0  0  0  0  0
   -0.4699    4.2472    2.5837 H   0  0  0  0  0  0  0  0  0  0  0  0
   -1.5152    4.6988    1.2041 H   0  0  0  0  0  0  0  0  0  0  0  0
  1  2  1  0
  2  3  1  0
  3  4  1  0
  4  5  1  0
  5  6  1  0
  6  7  1  0
  7  8  1  0
  8  9  1  0
  7  2  1  0
  7  4  1  0
  9  5  1  0
  1 10  1  0
  2 11  1  0
  3 12  1  0
  3 13  1  0
  4 14  1  0
  5 15  1  0
  6 16  1  0
  6 17  1  0
  9 18  1  0
  9 19  1  0
M  END
$$$$
