gdb 5335	2.7666449	1.2222879	0.9809054	4.3722	79.09	-0.26399	-0.0352	0.22879	1282.9405	0.156538	-422.618548	-422.609418	-422.608474	-422.65273	33.144
 OpenBabel02181911423D

 19 19  0  0  1  0  0  0  0  0999 V2000
    0.7101   -0.1877    0.9019 C   0  0  0  0  0  0  0  0  0  0  0  0
    0.9270    0.3841   -0.5108 C   0  0  0  0  0  0  0  0  0  0  0  0
    1.7987   -0.4883   -1.3573 C   0  0  0  0  0  0  0  0  0  0  0  0
    3.0268   -0.3014   -1.8436 C   0  0  0  0  0  0  0  0  0  0  0  0
    3.4618   -1.5059   -2.6303 C   0  0  1  0  0  0  0  0  0  0  0  0
    4.7184   -2.1969   -2.1060 C   0  0  0  0  0  0  0  0  0  0  0  0
    2.3427   -2.4019   -2.5503 O   0  0  0  0  0  0  0  0  0  0  0  0
    1.3415   -1.8341   -1.8096 C   0  0  0  0  0  0  0  0  0  0  0  0
    0.2944   -2.3845   -1.6028 O   0  0  0  0  0  0  0  0  0  0  0  0
    0.2538   -1.1787    0.8452 H   0  0  0  0  0  0  0  0  0  0  0  0
    1.6591   -0.2741    1.4405 H   0  0  0  0  0  0  0  0  0  0  0  0
    0.0486    0.4637    1.4802 H   0  0  0  0  0  0  0  0  0  0  0  0
   -0.0479    0.4808   -1.0035 H   0  0  0  0  0  0  0  0  0  0  0  0
    1.3613    1.3876   -0.4518 H   0  0  0  0  0  0  0  0  0  0  0  0
    3.6588    0.5693   -1.7166 H   0  0  0  0  0  0  0  0  0  0  0  0
    3.5998   -1.2516   -3.6907 H   0  0  0  0  0  0  0  0  0  0  0  0
    4.5947   -2.4671   -1.0538 H   0  0  0  0  0  0  0  0  0  0  0  0
    4.9172   -3.1043   -2.6816 H   0  0  0  0  0  0  0  0  0  0  0  0
    5.5817   -1.5306   -2.1984 H   0  0  0  0  0  0  0  0  0  0  0  0
  1 11  1  0  0  0  0
  1 12  1  0  0  0  0
  2 14  1  0  0  0  0
  2  1  1  0  0  0  0
  3  2  1  0  0  0  0
  4 15  1  0  0  0  0
  4  3  2  0  0  0  0
  5 16  1  6  0  0  0
  5  7  1  0  0  0  0
  5  6  1  0  0  0  0
  5  4  1  0  0  0  0
  6 17  1  0  0  0  0
  7  8  1  0  0  0  0
  8  9  2  0  0  0  0
  8  3  1  0  0  0  0
 10  1  1  0  0  0  0
 13  2  1  0  0  0  0
 18  6  1  0  0  0  0
 19  6  1  0  0  0  0
M TOR 0 0 1 2 3
M TOR 1 0 1 2 7
M TOR 2 1 2 3 4
M TOR 3 1 2 3 14
M TOR 4 1 2 7 6
M TOR 5 1 2 7 8
M TOR 6 2 1 0 9
M TOR 7 2 1 0 10
M TOR 8 2 1 0 11
M TOR 9 2 3 4 5
M TOR 10 2 3 4 6
M TOR 11 2 3 4 15
M TOR 12 2 7 6 4
M TOR 13 3 2 1 12
M TOR 14 3 2 1 13
M TOR 15 3 2 7 6
M TOR 16 3 2 7 8
M TOR 17 3 4 5 16
M TOR 18 3 4 5 17
M TOR 19 3 4 5 18
M TOR 20 3 4 6 7
M TOR 21 4 3 2 7
M TOR 22 4 6 7 8
M TOR 23 5 4 3 14
M TOR 24 5 4 6 7
M TOR 25 6 4 3 14
M TOR 26 6 4 5 16
M TOR 27 6 4 5 17
M TOR 28 6 4 5 18
M TOR 29 7 2 1 12
M TOR 30 7 2 1 13
M TOR 31 7 2 3 14
M TOR 32 7 6 4 15
M  END
$$$$
