gdb 3898	3.6125889	1.0706948	1.001708	1.9474	76.55	-0.2594	0.00643	0.26583	1261.0892	0.155909	-422.55299	-422.544233	-422.543289	-422.586937	32.35
 OpenBabel02181911413D

 19 20  0  0  1  0  0  0  0  0999 V2000
   -4.0166    2.9170    1.5658 C   0  0  0  0  0  0  0  0  0  0  0  0
   -2.7578    3.1139    0.7320 C   0  0  2  0  0  0  0  0  0  0  0  0
   -2.3653    1.8768   -0.1554 C   0  0  0  0  0  0  0  0  0  0  0  0
   -1.0587    1.7836    0.6227 C   0  0  1  0  0  0  0  0  0  0  0  0
   -0.2624    3.0443    0.5502 C   0  0  0  0  0  0  0  0  0  0  0  0
   -1.4355    2.9530    1.5063 C   0  0  1  0  0  0  0  0  0  0  0  0
   -0.4738    0.5730    1.0440 O   0  0  0  0  0  0  0  0  0  0  0  0
    0.0864   -0.1755    0.0740 C   0  0  0  0  0  0  0  0  0  0  0  0
    0.1195    0.0889   -1.0940 O   0  0  0  0  0  0  0  0  0  0  0  0
   -4.1560    3.7423    2.2728 H   0  0  0  0  0  0  0  0  0  0  0  0
   -4.9056    2.8660    0.9281 H   0  0  0  0  0  0  0  0  0  0  0  0
   -3.9634    1.9875    2.1438 H   0  0  0  0  0  0  0  0  0  0  0  0
   -2.8193    4.0551    0.1736 H   0  0  0  0  0  0  0  0  0  0  0  0
   -3.0244    1.0269    0.0401 H   0  0  0  0  0  0  0  0  0  0  0  0
   -2.2728    2.0202   -1.2346 H   0  0  0  0  0  0  0  0  0  0  0  0
    0.7113    2.9863    1.0260 H   0  0  0  0  0  0  0  0  0  0  0  0
   -0.3024    3.6814   -0.3306 H   0  0  0  0  0  0  0  0  0  0  0  0
   -1.3105    3.0827    2.5748 H   0  0  0  0  0  0  0  0  0  0  0  0
    0.5057   -1.0833    0.5350 H   0  0  0  0  0  0  0  0  0  0  0  0
  1 12  1  0  0  0  0
  1 10  1  0  0  0  0
  2 13  1  6  0  0  0
  2  6  1  0  0  0  0
  2  1  1  0  0  0  0
  3 14  1  0  0  0  0
  3  4  1  0  0  0  0
  3  2  1  0  0  0  0
  4  7  1  1  0  0  0
  4  6  1  0  0  0  0
  5  4  1  0  0  0  0
  5 16  1  0  0  0  0
  5  6  1  0  0  0  0
  6 18  1  1  0  0  0
  8 19  1  0  0  0  0
  8  7  1  0  0  0  0
  9  8  2  0  0  0  0
 11  1  1  0  0  0  0
 15  3  1  0  0  0  0
 17  5  1  0  0  0  0
M TOR 0 0 1 2 3
M TOR 1 0 1 2 13
M TOR 2 0 1 2 14
M TOR 3 0 1 5 3
M TOR 4 0 1 5 4
M TOR 5 0 1 5 17
M TOR 6 1 2 3 4
M TOR 7 1 2 3 5
M TOR 8 1 2 3 6
M TOR 9 1 5 3 4
M TOR 10 1 5 3 6
M TOR 11 1 5 4 15
M TOR 12 1 5 4 16
M TOR 13 2 1 0 9
M TOR 14 2 1 0 10
M TOR 15 2 1 0 11
M TOR 16 2 1 5 4
M TOR 17 2 1 5 17
M TOR 18 2 3 4 5
M TOR 19 2 3 4 15
M TOR 20 2 3 4 16
M TOR 21 2 3 5 17
M TOR 22 2 3 6 7
M TOR 23 3 2 1 12
M TOR 24 3 4 5 17
M TOR 25 3 5 1 12
M TOR 26 3 5 4 15
M TOR 27 3 5 4 16
M TOR 28 3 6 7 8
M TOR 29 3 6 7 18
M TOR 30 4 3 2 13
M TOR 31 4 3 2 14
M TOR 32 4 3 6 7
M TOR 33 4 5 1 12
M TOR 34 4 5 3 6
M TOR 35 5 1 0 9
M TOR 36 5 1 0 10
M TOR 37 5 1 0 11
M TOR 38 5 1 2 13
M TOR 39 5 1 2 14
M TOR 40 5 3 2 13
M TOR 41 5 3 2 14
M TOR 42 5 3 6 7
M TOR 43 6 3 2 13
M TOR 44 6 3 2 14
M TOR 45 6 3 4 15
M TOR 46 6 3 4 16
M TOR 47 6 3 5 17
M  END
$$$$
