
     RDKit          3D

 19 21  0  0  0  0  0  0  0  0999 V2000
   -2.0474   -1.0900    1.9814 C   0  0  0  0  0  0  0  0  0  0  0  0
   -2.1209   -0.1448    0.8107 C   0  0  0  0  0  0  0  0  0  0  0  0
   -0.9019    0.5335    0.2474 C   0  0  0  0  0  0  0  0  0  0  0  0
    0.3075    0.1125    0.8137 O   0  0  0  0  0  0  0  0  0  0  0  0
   -1.6473   -0.4788   -0.6058 C   0  0  0  0  0  0  0  0  0  0  0  0
   -2.9139   -0.0587   -1.3730 C   0  0  0  0  0  0  0  0  0  0  0  0
   -3.3009    1.3290   -0.8151 C   0  0  0  0  0  0  0  0  0  0  0  0
   -3.5080    0.4223    0.4179 C   0  0  0  0  0  0  0  0  0  0  0  0
   -3.9797   -0.6143   -0.5169 O   0  0  0  0  0  0  0  0  0  0  0  0
   -2.2245   -0.5646    2.9276 H   0  0  0  0  0  0  0  0  0  0  0  0
   -2.8047   -1.8742    1.8807 H   0  0  0  0  0  0  0  0  0  0  0  0
   -1.0630   -1.5574    2.0404 H   0  0  0  0  0  0  0  0  0  0  0  0
   -0.9157    1.5912   -0.0069 H   0  0  0  0  0  0  0  0  0  0  0  0
    0.9795    0.1356    0.1244 H   0  0  0  0  0  0  0  0  0  0  0  0
   -1.1630   -1.4226   -0.8289 H   0  0  0  0  0  0  0  0  0  0  0  0
   -3.0064   -0.3332   -2.4233 H   0  0  0  0  0  0  0  0  0  0  0  0
   -2.5916    2.1573   -0.8044 H   0  0  0  0  0  0  0  0  0  0  0  0
   -4.2622    1.6474   -1.2167 H   0  0  0  0  0  0  0  0  0  0  0  0
   -4.2123    0.6446    1.2198 H   0  0  0  0  0  0  0  0  0  0  0  0
  1  2  1  0
  2  3  1  0
  3  4  1  0
  3  5  1  0
  5  6  1  0
  6  7  1  0
  7  8  1  0
  8  9  1  0
  5  2  1  0
  9  6  1  0
  8  2  1  0
  1 10  1  0
  1 11  1  0
  1 12  1  0
  3 13  1  0
  4 14  1  0
  5 15  1  0
  6 16  1  0
  7 17  1  0
  7 18  1  0
  8 19  1  0
M  END
$$$$
