gdb 3197	3.9065999	1.3832624	1.2290865	0.4693	74.69	-0.23158	0.06332	0.2949	1059.5513	0.156759	-422.517653	-422.50978	-422.508836	-422.549422	31.291
 OpenBabel02181911413D

 19 21  0  0  1  0  0  0  0  0999 V2000
   -4.2198    3.1266   -0.0674 C   0  0  0  0  0  0  0  0  0  0  0  0
   -3.1516    2.1104    0.2227 C   0  0  2  0  0  0  0  0  0  0  0  0
   -3.5081    0.7113    0.7904 C   0  0  0  0  0  0  0  0  0  0  0  0
   -2.2760    0.1116    0.0647 C   0  0  2  0  0  0  0  0  0  0  0  0
   -0.9447    0.4710    0.7644 C   0  0  1  0  0  0  0  0  0  0  0  0
    0.0902   -0.2402    0.1117 O   0  0  0  0  0  0  0  0  0  0  0  0
   -1.0793    1.9196    0.2167 C   0  0  2  0  0  0  0  0  0  0  0  0
   -2.0394    2.6815    0.9726 O   0  0  0  0  0  0  0  0  0  0  0  0
   -2.1619    1.4369   -0.7830 C   0  0  2  0  0  0  0  0  0  0  0  0
   -4.6706    3.4785    0.8676 H   0  0  0  0  0  0  0  0  0  0  0  0
   -3.8001    3.9920   -0.5886 H   0  0  0  0  0  0  0  0  0  0  0  0
   -5.0117    2.6932   -0.6864 H   0  0  0  0  0  0  0  0  0  0  0  0
   -3.5677    0.6227    1.8791 H   0  0  0  0  0  0  0  0  0  0  0  0
   -4.4358    0.3382    0.3444 H   0  0  0  0  0  0  0  0  0  0  0  0
   -2.3396   -0.8932   -0.3498 H   0  0  0  0  0  0  0  0  0  0  0  0
   -0.9003    0.3642    1.8574 H   0  0  0  0  0  0  0  0  0  0  0  0
    0.9311    0.1404    0.3876 H   0  0  0  0  0  0  0  0  0  0  0  0
   -0.1690    2.4824   -0.0100 H   0  0  0  0  0  0  0  0  0  0  0  0
   -2.1588    1.5355   -1.8649 H   0  0  0  0  0  0  0  0  0  0  0  0
  1 10  1  0  0  0  0
  2  1  1  6  0  0  0
  2  3  1  0  0  0  0
  2  8  1  0  0  0  0
  3 13  1  0  0  0  0
  4 15  1  6  0  0  0
  4  5  1  0  0  0  0
  4  3  1  0  0  0  0
  5 16  1  1  0  0  0
  6 17  1  0  0  0  0
  6  5  1  0  0  0  0
  7 18  1  6  0  0  0
  7  5  1  0  0  0  0
  7  8  1  0  0  0  0
  9 19  1  6  0  0  0
  9  4  1  0  0  0  0
  9  7  1  0  0  0  0
  9  2  1  0  0  0  0
 11  1  1  0  0  0  0
 12  1  1  0  0  0  0
 14  3  1  0  0  0  0
M TOR 0 0 1 2 3
M TOR 1 0 1 2 12
M TOR 2 0 1 2 13
M TOR 3 0 1 7 6
M TOR 4 0 1 8 3
M TOR 5 0 1 8 6
M TOR 6 0 1 8 18
M TOR 7 1 2 3 4
M TOR 8 1 2 3 8
M TOR 9 1 2 3 14
M TOR 10 1 7 6 4
M TOR 11 1 7 6 8
M TOR 12 1 7 6 17
M TOR 13 1 8 3 4
M TOR 14 1 8 3 14
M TOR 15 1 8 6 4
M TOR 16 1 8 6 17
M TOR 17 2 1 0 9
M TOR 18 2 1 0 10
M TOR 19 2 1 0 11
M TOR 20 2 1 7 6
M TOR 21 2 1 8 6
M TOR 22 2 1 8 18
M TOR 23 2 3 4 5
M TOR 24 2 3 4 6
M TOR 25 2 3 4 15
M TOR 26 2 3 8 6
M TOR 27 2 3 8 18
M TOR 28 3 2 1 7
M TOR 29 3 4 5 16
M TOR 30 3 4 6 7
M TOR 31 3 4 6 8
M TOR 32 3 4 6 17
M TOR 33 3 8 1 7
M TOR 34 3 8 6 7
M TOR 35 3 8 6 17
M TOR 36 4 3 2 12
M TOR 37 4 3 2 13
M TOR 38 4 3 8 18
M TOR 39 4 6 8 18
M TOR 40 5 4 3 8
M TOR 41 5 4 3 14
M TOR 42 5 4 6 7
M TOR 43 5 4 6 8
M TOR 44 5 4 6 17
M TOR 45 6 4 3 14
M TOR 46 6 4 5 16
M TOR 47 6 8 3 14
M TOR 48 7 1 0 9
M TOR 49 7 1 0 10
M TOR 50 7 1 0 11
M TOR 51 7 1 2 12
M TOR 52 7 1 2 13
M TOR 53 7 1 8 18
M TOR 54 7 6 4 15
M TOR 55 7 6 8 18
M TOR 56 8 1 0 9
M TOR 57 8 1 0 10
M TOR 58 8 1 0 11
M TOR 59 8 1 2 12
M TOR 60 8 1 2 13
M TOR 61 8 3 2 12
M TOR 62 8 3 2 13
M TOR 63 8 3 4 15
M TOR 64 8 6 4 15
M  END
$$$$
