gdb 1550	2.1325156	1.6984455	1.2885098	2.5534	76.68	-0.25596	-0.03899	0.21697000000000002	1073.3156	0.154188	-422.537211	-422.528141	-422.527196	-422.57051	34.01
 OpenBabel02181911403D

 19 20  0  0  1  0  0  0  0  0999 V2000
    0.0466   -0.3317    0.0446 C   0  0  0  0  0  0  0  0  0  0  0  0
    1.5616   -0.1531    0.0227 C   0  0  0  0  0  0  0  0  0  0  0  0
    2.2563   -0.9741    1.1098 C   0  0  0  0  0  0  0  0  0  0  0  0
    2.2592   -0.3288   -1.3862 C   0  0  0  0  0  0  0  0  0  0  0  0
    2.7037    1.1344   -1.3231 C   0  0  1  0  0  0  0  0  0  0  0  0
    1.5476    1.9411   -1.2039 O   0  0  0  0  0  0  0  0  0  0  0  0
    2.0394    1.3210    0.0012 C   0  0  1  0  0  0  0  0  0  0  0  0
    2.4300    2.2473    1.0801 C   0  0  0  0  0  0  0  0  0  0  0  0
    2.4394    1.9697    2.2554 O   0  0  0  0  0  0  0  0  0  0  0  0
   -0.3631   -0.0714    1.0264 H   0  0  0  0  0  0  0  0  0  0  0  0
   -0.4305    0.3013   -0.7078 H   0  0  0  0  0  0  0  0  0  0  0  0
   -0.2200   -1.3737   -0.1633 H   0  0  0  0  0  0  0  0  0  0  0  0
    2.0603   -2.0406    0.9543 H   0  0  0  0  0  0  0  0  0  0  0  0
    3.3411   -0.8254    1.0962 H   0  0  0  0  0  0  0  0  0  0  0  0
    1.8983   -0.6920    2.1024 H   0  0  0  0  0  0  0  0  0  0  0  0
    3.0898   -1.0372   -1.3549 H   0  0  0  0  0  0  0  0  0  0  0  0
    1.6070   -0.5615   -2.2314 H   0  0  0  0  0  0  0  0  0  0  0  0
    3.5993    1.6031   -1.7170 H   0  0  0  0  0  0  0  0  0  0  0  0
    2.7250    3.2514    0.7036 H   0  0  0  0  0  0  0  0  0  0  0  0
  1 10  1  0  0  0  0
  2  1  1  0  0  0  0
  2  3  1  0  0  0  0
  3 15  1  0  0  0  0
  4 16  1  0  0  0  0
  4  5  1  0  0  0  0
  4  2  1  0  0  0  0
  5 18  1  6  0  0  0
  5  6  1  0  0  0  0
  5  7  1  0  0  0  0
  6  7  1  0  0  0  0
  7  2  1  0  0  0  0
  7  8  1  1  0  0  0
  8  9  2  0  0  0  0
 11  1  1  0  0  0  0
 12  1  1  0  0  0  0
 13  3  1  0  0  0  0
 14  3  1  0  0  0  0
 17  4  1  0  0  0  0
 19  8  1  0  0  0  0
M TOR 0 0 1 2 12
M TOR 1 0 1 2 13
M TOR 2 0 1 2 14
M TOR 3 0 1 3 4
M TOR 4 0 1 3 15
M TOR 5 0 1 3 16
M TOR 6 0 1 6 4
M TOR 7 0 1 6 5
M TOR 8 0 1 6 7
M TOR 9 1 3 4 5
M TOR 10 1 3 4 6
M TOR 11 1 3 4 17
M TOR 12 1 6 4 5
M TOR 13 1 6 4 17
M TOR 14 1 6 7 8
M TOR 15 1 6 7 18
M TOR 16 2 1 0 9
M TOR 17 2 1 0 10
M TOR 18 2 1 0 11
M TOR 19 2 1 3 4
M TOR 20 2 1 3 15
M TOR 21 2 1 3 16
M TOR 22 2 1 6 4
M TOR 23 2 1 6 5
M TOR 24 2 1 6 7
M TOR 25 3 1 0 9
M TOR 26 3 1 0 10
M TOR 27 3 1 0 11
M TOR 28 3 1 2 12
M TOR 29 3 1 2 13
M TOR 30 3 1 2 14
M TOR 31 3 1 6 5
M TOR 32 3 1 6 7
M TOR 33 3 4 5 6
M TOR 34 3 4 6 7
M TOR 35 4 5 6 7
M TOR 36 4 6 7 8
M TOR 37 4 6 7 18
M TOR 38 5 4 3 15
M TOR 39 5 4 3 16
M TOR 40 5 6 4 17
M TOR 41 5 6 7 8
M TOR 42 5 6 7 18
M TOR 43 6 1 0 9
M TOR 44 6 1 0 10
M TOR 45 6 1 0 11
M TOR 46 6 1 2 12
M TOR 47 6 1 2 13
M TOR 48 6 1 2 14
M TOR 49 6 1 3 15
M TOR 50 6 1 3 16
M TOR 51 6 4 3 15
M TOR 52 6 4 3 16
M TOR 53 7 6 4 17
M  END
$$$$
