
     RDKit          3D

 19 19  0  0  0  0  0  0  0  0999 V2000
   -2.9789    4.5198   -4.7287 O   0  0  0  0  0  0  0  0  0  0  0  0
   -2.3558    4.1227   -3.5223 C   0  0  0  0  0  0  0  0  0  0  0  0
   -1.7705    2.6986   -3.6144 C   0  0  0  0  0  0  0  0  0  0  0  0
   -1.1662    2.2606   -2.3630 C   0  0  0  0  0  0  0  0  0  0  0  0
   -0.6814    1.9437   -1.3057 C   0  0  0  0  0  0  0  0  0  0  0  0
   -0.0878    1.5270   -0.0537 C   0  0  0  0  0  0  0  0  0  0  0  0
    1.4105    1.1090   -0.0295 C   0  0  0  0  0  0  0  0  0  0  0  0
    1.0966   -0.1234    0.6440 O   0  0  0  0  0  0  0  0  0  0  0  0
   -0.3153    0.0698    0.4417 C   0  0  0  0  0  0  0  0  0  0  0  0
   -2.2936    4.6384   -5.3941 H   0  0  0  0  0  0  0  0  0  0  0  0
   -1.5679    4.8251   -3.2140 H   0  0  0  0  0  0  0  0  0  0  0  0
   -3.1337    4.1466   -2.7539 H   0  0  0  0  0  0  0  0  0  0  0  0
   -2.5726    2.0142   -3.9161 H   0  0  0  0  0  0  0  0  0  0  0  0
   -1.0227    2.6714   -4.4198 H   0  0  0  0  0  0  0  0  0  0  0  0
   -0.3078    2.2506    0.7366 H   0  0  0  0  0  0  0  0  0  0  0  0
    1.8346    0.9410   -1.0274 H   0  0  0  0  0  0  0  0  0  0  0  0
    2.0864    1.7416    0.5555 H   0  0  0  0  0  0  0  0  0  0  0  0
   -0.7198   -0.5971   -0.3298 H   0  0  0  0  0  0  0  0  0  0  0  0
   -0.8877   -0.0491    1.3677 H   0  0  0  0  0  0  0  0  0  0  0  0
  1  2  1  0
  2  3  1  0
  3  4  1  0
  4  5  3  0
  5  6  1  0
  6  7  1  0
  7  8  1  0
  8  9  1  0
  9  6  1  0
  1 10  1  0
  2 11  1  0
  2 12  1  0
  3 13  1  0
  3 14  1  0
  6 15  1  0
  7 16  1  0
  7 17  1  0
  9 18  1  0
  9 19  1  0
M  END
$$$$
