
     RDKit          3D

 19 19  0  0  0  0  0  0  0  0999 V2000
   -0.0552    0.0773    0.0121 C   0  0  0  0  0  0  0  0  0  0  0  0
    1.4721   -0.0570   -0.0314 C   0  0  0  0  0  0  0  0  0  0  0  0
    2.0253   -0.4961    1.3315 C   0  0  0  0  0  0  0  0  0  0  0  0
    2.0361    1.2373   -0.3618 O   0  0  0  0  0  0  0  0  0  0  0  0
    2.8217    1.1728   -1.5389 C   0  0  0  0  0  0  0  0  0  0  0  0
    2.2537    2.1185   -2.6003 C   0  0  0  0  0  0  0  0  0  0  0  0
    2.8940    2.5686   -3.5119 O   0  0  0  0  0  0  0  0  0  0  0  0
    2.7227   -0.2616   -1.9995 C   0  0  0  0  0  0  0  0  0  0  0  0
    1.9528   -0.9405   -1.1587 C   0  0  0  0  0  0  0  0  0  0  0  0
   -0.3440    0.8146    0.7669 H   0  0  0  0  0  0  0  0  0  0  0  0
   -0.4402    0.4034   -0.9575 H   0  0  0  0  0  0  0  0  0  0  0  0
   -0.5240   -0.8784    0.2682 H   0  0  0  0  0  0  0  0  0  0  0  0
    1.6240   -1.4730    1.6203 H   0  0  0  0  0  0  0  0  0  0  0  0
    3.1156   -0.5649    1.2984 H   0  0  0  0  0  0  0  0  0  0  0  0
    1.7458    0.2308    2.0999 H   0  0  0  0  0  0  0  0  0  0  0  0
    3.8602    1.4777   -1.3402 H   0  0  0  0  0  0  0  0  0  0  0  0
    1.1702    2.3326   -2.4566 H   0  0  0  0  0  0  0  0  0  0  0  0
    3.2153   -0.6220   -2.8927 H   0  0  0  0  0  0  0  0  0  0  0  0
    1.6972   -1.9910   -1.2213 H   0  0  0  0  0  0  0  0  0  0  0  0
  1  2  1  0
  2  3  1  0
  2  4  1  0
  4  5  1  0
  5  6  1  0
  6  7  2  0
  5  8  1  0
  8  9  2  0
  9  2  1  0
  1 10  1  0
  1 11  1  0
  1 12  1  0
  3 13  1  0
  3 14  1  0
  3 15  1  0
  5 16  1  0
  6 17  1  0
  8 18  1  0
  9 19  1  0
M  END
$$$$
