
     RDKit          3D

 19 20  0  0  0  0  0  0  0  0999 V2000
   -3.1708   -1.2263    1.1800 C   0  0  0  0  0  0  0  0  0  0  0  0
   -2.1896   -0.7538    0.1047 C   0  0  0  0  0  0  0  0  0  0  0  0
   -0.7389   -1.2564    0.3112 C   0  0  0  0  0  0  0  0  0  0  0  0
    0.1643   -0.1406   -0.2217 C   0  0  0  0  0  0  0  0  0  0  0  0
    1.2668   -0.2597   -0.6919 O   0  0  0  0  0  0  0  0  0  0  0  0
   -0.6283    1.1365   -0.1393 C   0  0  0  0  0  0  0  0  0  0  0  0
   -1.2852    1.2724    1.1393 O   0  0  0  0  0  0  0  0  0  0  0  0
   -2.0518    0.7738    0.0384 C   0  0  0  0  0  0  0  0  0  0  0  0
   -3.1904    1.6348   -0.4352 C   0  0  0  0  0  0  0  0  0  0  0  0
   -3.1908   -2.3190    1.2353 H   0  0  0  0  0  0  0  0  0  0  0  0
   -2.8736   -0.8413    2.1608 H   0  0  0  0  0  0  0  0  0  0  0  0
   -4.1910   -0.8868    0.9749 H   0  0  0  0  0  0  0  0  0  0  0  0
   -2.5423   -1.0919   -0.8786 H   0  0  0  0  0  0  0  0  0  0  0  0
   -0.5243   -1.3940    1.3771 H   0  0  0  0  0  0  0  0  0  0  0  0
   -0.5200   -2.1984   -0.1946 H   0  0  0  0  0  0  0  0  0  0  0  0
   -0.2760    2.0505   -0.6073 H   0  0  0  0  0  0  0  0  0  0  0  0
   -4.0643    1.5139    0.2134 H   0  0  0  0  0  0  0  0  0  0  0  0
   -2.9046    2.6892   -0.4250 H   0  0  0  0  0  0  0  0  0  0  0  0
   -3.4855    1.3593   -1.4528 H   0  0  0  0  0  0  0  0  0  0  0  0
  1  2  1  0
  2  3  1  0
  3  4  1  0
  4  5  2  0
  4  6  1  0
  6  7  1  0
  7  8  1  0
  8  9  1  0
  8  2  1  0
  8  6  1  0
  1 10  1  0
  1 11  1  0
  1 12  1  0
  2 13  1  0
  3 14  1  0
  3 15  1  0
  6 16  1  0
  9 17  1  0
  9 18  1  0
  9 19  1  0
M  END
$$$$
