
     RDKit          3D

 19 21  0  0  0  0  0  0  0  0999 V2000
    0.1745    0.0018   -0.0164 O   0  0  0  0  0  0  0  0  0  0  0  0
   -1.0853    0.6411    0.0268 C   0  0  0  0  0  0  0  0  0  0  0  0
   -1.0692    2.0539    0.6741 C   0  0  0  0  0  0  0  0  0  0  0  0
   -2.4623    2.2274    1.2409 C   0  0  0  0  0  0  0  0  0  0  0  0
   -3.5056    1.8857    0.3168 O   0  0  0  0  0  0  0  0  0  0  0  0
   -3.1215    0.9157    1.3094 C   0  0  0  0  0  0  0  0  0  0  0  0
   -2.1862   -0.1283    0.7889 C   0  0  0  0  0  0  0  0  0  0  0  0
   -2.6421   -1.4928    0.3598 C   0  0  0  0  0  0  0  0  0  0  0  0
   -1.8606   -1.3342    1.6395 C   0  0  0  0  0  0  0  0  0  0  0  0
    0.5239   -0.0215    0.8813 H   0  0  0  0  0  0  0  0  0  0  0  0
   -1.3858    0.7304   -1.0200 H   0  0  0  0  0  0  0  0  0  0  0  0
   -0.3411    2.0802    1.4967 H   0  0  0  0  0  0  0  0  0  0  0  0
   -0.7878    2.8328   -0.0398 H   0  0  0  0  0  0  0  0  0  0  0  0
   -2.6916    3.0410    1.9246 H   0  0  0  0  0  0  0  0  0  0  0  0
   -3.8866    0.6665    2.0412 H   0  0  0  0  0  0  0  0  0  0  0  0
   -3.6995   -1.7267    0.4230 H   0  0  0  0  0  0  0  0  0  0  0  0
   -2.1285   -1.9433   -0.4835 H   0  0  0  0  0  0  0  0  0  0  0  0
   -2.3788   -1.4516    2.5858 H   0  0  0  0  0  0  0  0  0  0  0  0
   -0.8358   -1.6888    1.6390 H   0  0  0  0  0  0  0  0  0  0  0  0
  1  2  1  0
  2  3  1  0
  3  4  1  0
  4  5  1  0
  5  6  1  0
  6  7  1  0
  7  8  1  0
  8  9  1  0
  7  2  1  0
  9  7  1  0
  6  4  1  0
  1 10  1  0
  2 11  1  0
  3 12  1  0
  3 13  1  0
  4 14  1  0
  6 15  1  0
  8 16  1  0
  8 17  1  0
  9 18  1  0
  9 19  1  0
M  END
$$$$
