gdb 5955	5.0461298	0.802863	0.7590478	3.365	77.23	-0.24221	-0.02574	0.21647	1538.1504	0.154747	-422.537107	-422.527932	-422.526987	-422.571736	33.284
 OpenBabel02181911423D

 19 20  0  0  1  0  0  0  0  0999 V2000
    4.3947    0.3788    1.0684 C   0  0  0  0  0  0  0  0  0  0  0  0
    3.0507    0.9552    0.6181 C   0  0  0  0  0  0  0  0  0  0  0  0
    3.2016    2.0092   -0.4910 C   0  0  0  0  0  0  0  0  0  0  0  0
    1.8885    2.5735   -0.9340 C   0  0  1  0  0  0  0  0  0  0  0  0
    0.9217    3.5001   -0.1655 C   0  0  0  0  0  0  0  0  0  0  0  0
    0.5388    4.0897   -1.5577 C   0  0  0  0  0  0  0  0  0  0  0  0
   -0.0838    5.0472   -1.9060 O   0  0  0  0  0  0  0  0  0  0  0  0
    1.4623    3.1035   -2.2624 C   0  0  2  0  0  0  0  0  0  0  0  0
    1.0500    1.7993   -1.7911 O   0  0  0  0  0  0  0  0  0  0  0  0
    4.2606   -0.3693    1.8553 H   0  0  0  0  0  0  0  0  0  0  0  0
    4.9177   -0.1038    0.2355 H   0  0  0  0  0  0  0  0  0  0  0  0
    5.0515    1.1627    1.4618 H   0  0  0  0  0  0  0  0  0  0  0  0
    2.4010    0.1509    0.2539 H   0  0  0  0  0  0  0  0  0  0  0  0
    2.5348    1.4042    1.4762 H   0  0  0  0  0  0  0  0  0  0  0  0
    3.8397    2.8298   -0.1382 H   0  0  0  0  0  0  0  0  0  0  0  0
    3.7003    1.5649   -1.3602 H   0  0  0  0  0  0  0  0  0  0  0  0
    0.1370    2.9968    0.4022 H   0  0  0  0  0  0  0  0  0  0  0  0
    1.4011    4.2668    0.4512 H   0  0  0  0  0  0  0  0  0  0  0  0
    1.9690    3.1541   -3.2193 H   0  0  0  0  0  0  0  0  0  0  0  0
  1 12  1  0  0  0  0
  1 10  1  0  0  0  0
  2  1  1  0  0  0  0
  2 14  1  0  0  0  0
  3 15  1  0  0  0  0
  3  2  1  0  0  0  0
  4  3  1  1  0  0  0
  4  5  1  0  0  0  0
  5 17  1  0  0  0  0
  5 18  1  0  0  0  0
  6  5  1  0  0  0  0
  7  6  2  0  0  0  0
  8 19  1  6  0  0  0
  8  9  1  0  0  0  0
  8  6  1  0  0  0  0
  8  4  1  0  0  0  0
  9  4  1  0  0  0  0
 11  1  1  0  0  0  0
 13  2  1  0  0  0  0
 16  3  1  0  0  0  0
M TOR 0 0 1 2 3
M TOR 1 0 1 2 14
M TOR 2 0 1 2 15
M TOR 3 1 2 3 4
M TOR 4 1 2 3 7
M TOR 5 1 2 3 8
M TOR 6 2 1 0 9
M TOR 7 2 1 0 10
M TOR 8 2 1 0 11
M TOR 9 2 3 4 5
M TOR 10 2 3 4 16
M TOR 11 2 3 4 17
M TOR 12 2 3 7 5
M TOR 13 2 3 7 8
M TOR 14 2 3 7 18
M TOR 15 3 2 1 12
M TOR 16 3 2 1 13
M TOR 17 3 4 5 6
M TOR 18 3 4 5 7
M TOR 19 3 7 5 6
M TOR 20 3 8 7 5
M TOR 21 3 8 7 18
M TOR 22 4 3 2 14
M TOR 23 4 3 2 15
M TOR 24 4 3 7 8
M TOR 25 4 3 7 18
M TOR 26 4 5 7 8
M TOR 27 4 5 7 18
M TOR 28 5 4 3 8
M TOR 29 6 5 4 16
M TOR 30 6 5 4 17
M TOR 31 6 5 7 8
M TOR 32 6 5 7 18
M TOR 33 7 3 2 14
M TOR 34 7 3 2 15
M TOR 35 7 3 4 16
M TOR 36 7 3 4 17
M TOR 37 7 5 4 16
M TOR 38 7 5 4 17
M TOR 39 8 3 2 14
M TOR 40 8 3 2 15
M TOR 41 8 3 4 16
M TOR 42 8 3 4 17
M  END
$$$$
