gdb 46	2.9353513	1.2258554	0.931439	1.6729	79.69	-0.19557	0.02861	0.22418	1299.7739	0.15552	-422.588418	-422.578579	-422.577635	-422.623201	35.061
 OpenBabel02181911403D

 19 19  0  0  0  0  0  0  0  0999 V2000
    1.3439   -0.6473   -0.9665 C   0  0  0  0  0  0  0  0  0  0  0  0
    1.1066    0.1635    0.3207 C   0  0  0  0  0  0  0  0  0  0  0  0
    1.7016    1.5387    0.2687 C   0  0  0  0  0  0  0  0  0  0  0  0
    2.7708    2.0290    0.9510 C   0  0  0  0  0  0  0  0  0  0  0  0
    3.0294    3.3164    0.6075 O   0  0  0  0  0  0  0  0  0  0  0  0
    2.0951    3.6914   -0.3237 C   0  0  0  0  0  0  0  0  0  0  0  0
    2.1567    5.0688   -0.8703 C   0  0  0  0  0  0  0  0  0  0  0  0
    1.2691    2.6352   -0.5600 C   0  0  0  0  0  0  0  0  0  0  0  0
    0.2416    2.6376   -1.4637 O   0  0  0  0  0  0  0  0  0  0  0  0
    0.8654   -1.6299   -0.9069 H   0  0  0  0  0  0  0  0  0  0  0  0
    0.9433   -0.1242   -1.8406 H   0  0  0  0  0  0  0  0  0  0  0  0
    2.4144   -0.7954   -1.1362 H   0  0  0  0  0  0  0  0  0  0  0  0
    0.0246    0.2297    0.5098 H   0  0  0  0  0  0  0  0  0  0  0  0
    1.5206   -0.3769    1.1787 H   0  0  0  0  0  0  0  0  0  0  0  0
    3.4249    1.5972    1.6914 H   0  0  0  0  0  0  0  0  0  0  0  0
    2.1075    5.8228   -0.0760 H   0  0  0  0  0  0  0  0  0  0  0  0
    3.0790    5.2477   -1.4363 H   0  0  0  0  0  0  0  0  0  0  0  0
    1.3099    5.2225   -1.5433 H   0  0  0  0  0  0  0  0  0  0  0  0
   -0.3906    1.9575   -1.2128 H   0  0  0  0  0  0  0  0  0  0  0  0
  1 10  1  0  0  0  0
  1  2  1  0  0  0  0
  2 13  1  0  0  0  0
  2 14  1  0  0  0  0
  3  2  1  0  0  0  0
  3  4  2  0  0  0  0
  4 15  1  0  0  0  0
  5  4  1  0  0  0  0
  6  5  1  0  0  0  0
  7  6  1  0  0  0  0
  7 16  1  0  0  0  0
  8  6  2  0  0  0  0
  8  3  1  0  0  0  0
  9 19  1  0  0  0  0
  9  8  1  0  0  0  0
 11  1  1  0  0  0  0
 12  1  1  0  0  0  0
 17  7  1  0  0  0  0
 18  7  1  0  0  0  0
M TOR 0 0 1 2 3
M TOR 1 0 1 2 7
M TOR 2 1 2 3 4
M TOR 3 1 2 3 14
M TOR 4 1 2 7 5
M TOR 5 1 2 7 8
M TOR 6 2 1 0 9
M TOR 7 2 1 0 10
M TOR 8 2 1 0 11
M TOR 9 2 3 4 5
M TOR 10 2 7 5 4
M TOR 11 2 7 5 6
M TOR 12 2 7 8 18
M TOR 13 3 2 1 12
M TOR 14 3 2 1 13
M TOR 15 3 2 7 5
M TOR 16 3 2 7 8
M TOR 17 3 4 5 6
M TOR 18 3 4 5 7
M TOR 19 4 3 2 7
M TOR 20 4 5 6 15
M TOR 21 4 5 6 16
M TOR 22 4 5 6 17
M TOR 23 4 5 7 8
M TOR 24 5 4 3 14
M TOR 25 5 7 8 18
M TOR 26 6 5 7 8
M TOR 27 7 2 1 12
M TOR 28 7 2 1 13
M TOR 29 7 2 3 14
M TOR 30 7 5 6 15
M TOR 31 7 5 6 16
M TOR 32 7 5 6 17
M  END
$$$$
