gdb 5795	3.967373	1.1019913	0.9866329	2.8428	78.69	-0.23327	0.00124	0.23451	1239.3119	0.157677	-422.526999	-422.518865	-422.51792	-422.559931	31.136
 OpenBabel02181911423D

 19 20  0  0  1  0  0  0  0  0999 V2000
    0.0484    1.3373    0.2463 O   0  0  0  0  0  0  0  0  0  0  0  0
    0.0455   -0.0619    0.0589 C   0  0  0  0  0  0  0  0  0  0  0  0
   -1.3769   -0.5835   -0.1500 C   0  0  2  0  0  0  0  0  0  0  0  0
   -2.1671   -0.1376    0.9874 O   0  0  0  0  0  0  0  0  0  0  0  0
   -2.9547   -1.2269    1.4266 C   0  0  2  0  0  0  0  0  0  0  0  0
   -2.7041   -2.0340    2.7565 C   0  0  0  0  0  0  0  0  0  0  0  0
   -2.7355   -3.3545    1.8916 C   0  0  0  0  0  0  0  0  0  0  0  0
   -2.4344   -2.4365    0.7267 C   0  0  2  0  0  3  0  0  0  0  0  0
   -1.4806   -2.1010   -0.1334 C   0  0  0  0  0  3  0  0  0  0  0  0
   -0.6154    1.5100    0.9254 H   0  0  0  0  0  0  0  0  0  0  0  0
    0.6559   -0.2719   -0.8266 H   0  0  0  0  0  0  0  0  0  0  0  0
    0.4951   -0.5894    0.9161 H   0  0  0  0  0  0  0  0  0  0  0  0
   -1.7892   -0.1146   -1.0573 H   0  0  0  0  0  0  0  0  0  0  0  0
   -4.0227   -0.9995    1.3046 H   0  0  0  0  0  0  0  0  0  0  0  0
   -1.7041   -1.8388    3.1474 H   0  0  0  0  0  0  0  0  0  0  0  0
   -3.4505   -1.9385    3.5483 H   0  0  0  0  0  0  0  0  0  0  0  0
   -2.0117   -4.1390    2.1168 H   0  0  0  0  0  0  0  0  0  0  0  0
   -3.7394   -3.7885    1.8651 H   0  0  0  0  0  0  0  0  0  0  0  0
   -0.7614   -2.7403   -0.6302 H   0  0  0  0  0  0  0  0  0  0  0  0
  1 10  1  0  0  0  0
  2  1  1  0  0  0  0
  2 12  1  0  0  0  0
  3 13  1  6  0  0  0
  3  9  1  0  0  0  0
  3  2  1  0  0  0  0
  3  4  1  0  0  0  0
  4  5  1  0  0  0  0
  5 14  1  6  0  0  0
  5  6  1  0  0  0  0
  6 15  1  0  0  0  0
  6 16  1  0  0  0  0
  7 17  1  0  0  0  0
  7  6  1  0  0  0  0
  8  9  1  1  0  0  0
  8  5  1  0  0  0  0
  8  7  1  0  0  0  0
 11  2  1  0  0  0  0
 18  7  1  0  0  0  0
 19  9  1  0  0  0  0
M TOR 0 0 1 2 3
M TOR 1 0 1 2 8
M TOR 2 0 1 2 12
M TOR 3 1 2 3 4
M TOR 4 1 2 8 7
M TOR 5 1 2 8 18
M TOR 6 2 1 0 9
M TOR 7 2 3 4 5
M TOR 8 2 3 4 7
M TOR 9 2 3 4 13
M TOR 10 2 8 7 4
M TOR 11 2 8 7 6
M TOR 12 3 2 1 10
M TOR 13 3 2 1 11
M TOR 14 3 2 8 7
M TOR 15 3 2 8 18
M TOR 16 3 4 5 6
M TOR 17 3 4 5 14
M TOR 18 3 4 5 15
M TOR 19 3 4 7 6
M TOR 20 3 4 7 8
M TOR 21 4 3 2 8
M TOR 22 4 3 2 12
M TOR 23 4 5 6 7
M TOR 24 4 5 6 16
M TOR 25 4 5 6 17
M TOR 26 4 7 6 16
M TOR 27 4 7 6 17
M TOR 28 4 7 8 18
M TOR 29 5 4 7 8
M TOR 30 5 6 7 8
M TOR 31 6 5 4 13
M TOR 32 6 7 4 13
M TOR 33 6 7 8 18
M TOR 34 7 4 5 14
M TOR 35 7 4 5 15
M TOR 36 7 6 5 14
M TOR 37 7 6 5 15
M TOR 38 7 8 2 12
M TOR 39 8 2 1 10
M TOR 40 8 2 1 11
M TOR 41 8 7 4 13
M TOR 42 8 7 6 16
M TOR 43 8 7 6 17
M  END
$$$$
