gdb 410	3.1967103	1.54022	1.2717628	2.1147	74.73	-0.24026	0.07871	0.31897	1034.0122	0.158284	-422.525202	-422.517735	-422.516791	-422.557076	29.376
 OpenBabel02181911403D

 19 21  0  0  1  0  0  0  0  0999 V2000
    0.6778    1.2570   -0.2679 C   0  0  0  0  0  0  0  0  0  0  0  0
    1.6182    0.0987    0.0296 C   0  0  0  0  0  0  0  0  0  0  0  0
    0.1442   -0.1071    0.0939 C   0  0  0  0  0  0  0  0  0  0  0  0
   -0.4315   -0.8923   -0.9273 O   0  0  0  0  0  0  0  0  0  0  0  0
   -1.8416   -0.8590   -0.7108 C   0  0  0  0  0  0  0  0  0  0  0  0
   -2.0200   -0.8743    0.8056 C   0  0  1  0  0  0  0  0  0  0  0  0
   -1.8104   -2.1757    1.3870 O   0  0  0  0  0  0  0  0  0  0  0  0
   -0.5441   -1.7762    1.9536 C   0  0  0  0  0  0  0  0  0  0  0  0
   -0.6588   -0.3585    1.3506 C   0  0  1  0  0  0  0  0  0  0  0  0
    0.6026    2.0623    0.4557 H   0  0  0  0  0  0  0  0  0  0  0  0
    0.5830    1.5593   -1.3047 H   0  0  0  0  0  0  0  0  0  0  0  0
    2.1372   -0.3493   -0.8102 H   0  0  0  0  0  0  0  0  0  0  0  0
    2.1803    0.1101    0.9573 H   0  0  0  0  0  0  0  0  0  0  0  0
   -2.2826    0.0584   -1.1325 H   0  0  0  0  0  0  0  0  0  0  0  0
   -2.2830   -1.7323   -1.1966 H   0  0  0  0  0  0  0  0  0  0  0  0
   -2.9545   -0.4163    1.1452 H   0  0  0  0  0  0  0  0  0  0  0  0
   -0.5602   -1.8202    3.0494 H   0  0  0  0  0  0  0  0  0  0  0  0
    0.2875   -2.3822    1.5758 H   0  0  0  0  0  0  0  0  0  0  0  0
   -0.6551    0.4719    2.0553 H   0  0  0  0  0  0  0  0  0  0  0  0
  1  2  1  0  0  0  0
  1  3  1  0  0  0  0
  1 10  1  0  0  0  0
  2  3  1  0  0  0  0
  2 13  1  0  0  0  0
  3  9  1  0  0  0  0
  4  5  1  0  0  0  0
  4  3  1  0  0  0  0
  5  6  1  0  0  0  0
  6 16  1  1  0  0  0
  6  9  1  0  0  0  0
  6  7  1  0  0  0  0
  7  8  1  0  0  0  0
  8 17  1  0  0  0  0
  9  8  1  0  0  0  0
  9 19  1  1  0  0  0
 11  1  1  0  0  0  0
 12  2  1  0  0  0  0
 14  5  1  0  0  0  0
 15  5  1  0  0  0  0
 18  8  1  0  0  0  0
M TOR 0 0 1 2 3
M TOR 1 0 1 2 8
M TOR 2 0 2 1 11
M TOR 3 0 2 1 12
M TOR 4 0 2 3 4
M TOR 5 0 2 8 5
M TOR 6 0 2 8 7
M TOR 7 0 2 8 18
M TOR 8 1 2 0 9
M TOR 9 1 2 0 10
M TOR 10 1 2 3 4
M TOR 11 1 2 8 5
M TOR 12 1 2 8 7
M TOR 13 1 2 8 18
M TOR 14 2 3 4 5
M TOR 15 2 3 4 13
M TOR 16 2 3 4 14
M TOR 17 2 8 5 4
M TOR 18 2 8 5 6
M TOR 19 2 8 5 15
M TOR 20 2 8 7 6
M TOR 21 2 8 7 16
M TOR 22 2 8 7 17
M TOR 23 3 2 0 9
M TOR 24 3 2 0 10
M TOR 25 3 2 1 11
M TOR 26 3 2 1 12
M TOR 27 3 2 8 5
M TOR 28 3 2 8 7
M TOR 29 3 2 8 18
M TOR 30 3 4 5 6
M TOR 31 3 4 5 8
M TOR 32 3 4 5 15
M TOR 33 4 3 2 8
M TOR 34 4 5 6 7
M TOR 35 4 5 8 7
M TOR 36 4 5 8 18
M TOR 37 5 6 7 8
M TOR 38 5 6 7 16
M TOR 39 5 6 7 17
M TOR 40 5 8 7 16
M TOR 41 5 8 7 17
M TOR 42 6 5 4 13
M TOR 43 6 5 4 14
M TOR 44 6 5 8 18
M TOR 45 6 7 8 18
M TOR 46 7 6 5 15
M TOR 47 7 8 5 15
M TOR 48 8 2 0 9
M TOR 49 8 2 0 10
M TOR 50 8 2 1 11
M TOR 51 8 2 1 12
M TOR 52 8 5 4 13
M TOR 53 8 5 4 14
M  END
$$$$
