
     RDKit          3D

 19 19  0  0  0  0  0  0  0  0999 V2000
    1.1988    1.2039   -0.3342 C   0  0  0  0  0  0  0  0  0  0  0  0
    0.9557   -0.2705   -0.0565 C   0  0  0  0  0  0  0  0  0  0  0  0
    1.7661   -1.2846   -0.8910 C   0  0  0  0  0  0  0  0  0  0  0  0
    2.4194   -1.8215    0.2819 O   0  0  0  0  0  0  0  0  0  0  0  0
    1.6715   -0.9324    1.1700 C   0  0  0  0  0  0  0  0  0  0  0  0
    0.7712   -1.8069    2.0558 C   0  0  0  0  0  0  0  0  0  0  0  0
    1.5324   -2.7638    2.7513 O   0  0  0  0  0  0  0  0  0  0  0  0
    2.5540   -0.0867    1.9603 C   0  0  0  0  0  0  0  0  0  0  0  0
    3.2612    0.6317    2.6150 C   0  0  0  0  0  0  0  0  0  0  0  0
    0.7247    1.8335    0.4249 H   0  0  0  0  0  0  0  0  0  0  0  0
    2.2672    1.4366   -0.3398 H   0  0  0  0  0  0  0  0  0  0  0  0
    0.7817    1.4791   -1.3088 H   0  0  0  0  0  0  0  0  0  0  0  0
   -0.1175   -0.4815   -0.0453 H   0  0  0  0  0  0  0  0  0  0  0  0
    1.1868   -2.0486   -1.4219 H   0  0  0  0  0  0  0  0  0  0  0  0
    2.4910   -0.8395   -1.5832 H   0  0  0  0  0  0  0  0  0  0  0  0
    0.2515   -1.1921    2.7977 H   0  0  0  0  0  0  0  0  0  0  0  0
    0.0149   -2.2807    1.4085 H   0  0  0  0  0  0  0  0  0  0  0  0
    2.0883   -3.1903    2.0861 H   0  0  0  0  0  0  0  0  0  0  0  0
    3.8935    1.2535    3.1997 H   0  0  0  0  0  0  0  0  0  0  0  0
  1  2  1  0
  2  3  1  0
  3  4  1  0
  4  5  1  0
  5  6  1  0
  6  7  1  0
  5  8  1  0
  8  9  3  0
  5  2  1  0
  1 10  1  0
  1 11  1  0
  1 12  1  0
  2 13  1  0
  3 14  1  0
  3 15  1  0
  6 16  1  0
  6 17  1  0
  7 18  1  0
  9 19  1  0
M  END
$$$$
