
     RDKit          3D

 19 21  0  0  0  0  0  0  0  0999 V2000
   -0.3988    1.3411   -0.5375 C   0  0  0  0  0  0  0  0  0  0  0  0
   -1.2246    0.1471   -0.9504 C   0  0  0  0  0  0  0  0  0  0  0  0
   -0.1290   -0.0124    0.0734 C   0  0  0  0  0  0  0  0  0  0  0  0
   -0.4539   -0.2776    1.5021 C   0  0  0  0  0  0  0  0  0  0  0  0
    0.6012   -0.5483    2.5659 C   0  0  0  0  0  0  0  0  0  0  0  0
   -0.4386   -1.5965    2.2067 C   0  0  0  0  0  0  0  0  0  0  0  0
   -1.6080   -1.6700    2.9849 O   0  0  0  0  0  0  0  0  0  0  0  0
   -2.1179   -0.3521    3.0586 C   0  0  0  0  0  0  0  0  0  0  0  0
   -1.6315    0.3702    1.9425 O   0  0  0  0  0  0  0  0  0  0  0  0
    0.3274    1.7393   -1.2374 H   0  0  0  0  0  0  0  0  0  0  0  0
   -0.8779    2.0819    0.0917 H   0  0  0  0  0  0  0  0  0  0  0  0
   -2.2454    0.1034   -0.5905 H   0  0  0  0  0  0  0  0  0  0  0  0
   -1.0681   -0.2782   -1.9354 H   0  0  0  0  0  0  0  0  0  0  0  0
    0.7752   -0.5175   -0.2526 H   0  0  0  0  0  0  0  0  0  0  0  0
    1.6109   -0.7294    2.2115 H   0  0  0  0  0  0  0  0  0  0  0  0
    0.5457   -0.0422    3.5236 H   0  0  0  0  0  0  0  0  0  0  0  0
   -0.1768   -2.5469    1.7590 H   0  0  0  0  0  0  0  0  0  0  0  0
   -3.2120   -0.3825    3.0244 H   0  0  0  0  0  0  0  0  0  0  0  0
   -1.7890    0.1315    3.9929 H   0  0  0  0  0  0  0  0  0  0  0  0
  1  2  1  0
  2  3  1  0
  3  4  1  0
  4  5  1  0
  5  6  1  0
  6  7  1  0
  7  8  1  0
  8  9  1  0
  3  1  1  0
  6  4  1  0
  9  4  1  0
  1 10  1  0
  1 11  1  0
  2 12  1  0
  2 13  1  0
  3 14  1  0
  5 15  1  0
  5 16  1  0
  6 17  1  0
  8 18  1  0
  8 19  1  0
M  END
$$$$
