
     RDKit          3D

 19 20  0  0  0  0  0  0  0  0999 V2000
    0.0793    0.1566    0.0142 O   0  0  0  0  0  0  0  0  0  0  0  0
   -0.9078   -0.0412    1.0191 C   0  0  0  0  0  0  0  0  0  0  0  0
   -0.9483    1.1242    2.0253 C   0  0  0  0  0  0  0  0  0  0  0  0
   -2.1734    1.0502    2.9088 C   0  0  0  0  0  0  0  0  0  0  0  0
   -3.3368    0.5667    2.4691 C   0  0  0  0  0  0  0  0  0  0  0  0
   -3.5081    0.0987    1.0693 C   0  0  0  0  0  0  0  0  0  0  0  0
   -4.6103    0.6447    0.3878 O   0  0  0  0  0  0  0  0  0  0  0  0
   -3.1958   -1.3189    0.6819 C   0  0  0  0  0  0  0  0  0  0  0  0
   -2.2434   -0.2018    0.3009 C   0  0  0  0  0  0  0  0  0  0  0  0
    0.9359    0.2208    0.4491 H   0  0  0  0  0  0  0  0  0  0  0  0
   -0.6929   -0.9633    1.5836 H   0  0  0  0  0  0  0  0  0  0  0  0
   -0.0374    1.1196    2.6372 H   0  0  0  0  0  0  0  0  0  0  0  0
   -0.9362    2.0683    1.4625 H   0  0  0  0  0  0  0  0  0  0  0  0
   -2.0822    1.4016    3.9333 H   0  0  0  0  0  0  0  0  0  0  0  0
   -4.2136    0.5294    3.1109 H   0  0  0  0  0  0  0  0  0  0  0  0
   -4.4766    1.5981    0.3390 H   0  0  0  0  0  0  0  0  0  0  0  0
   -2.8898   -2.0105    1.4604 H   0  0  0  0  0  0  0  0  0  0  0  0
   -3.8103   -1.7445   -0.1036 H   0  0  0  0  0  0  0  0  0  0  0  0
   -2.2224    0.0916   -0.7428 H   0  0  0  0  0  0  0  0  0  0  0  0
  1  2  1  0
  2  3  1  0
  3  4  1  0
  4  5  2  0
  5  6  1  0
  6  7  1  0
  6  8  1  0
  8  9  1  0
  9  2  1  0
  9  6  1  0
  1 10  1  0
  2 11  1  0
  3 12  1  0
  3 13  1  0
  4 14  1  0
  5 15  1  0
  7 16  1  0
  8 17  1  0
  8 18  1  0
  9 19  1  0
M  END
$$$$
