gdb 2228	2.6460537	1.9239226	1.8002154	2.3839	72.69	-0.23936	0.07093	0.31029	882.0804	0.160676	-422.561727	-422.555201	-422.554257	-422.592067	28.195
 OpenBabel02181911413D

 19 21  0  0  1  0  0  0  0  0999 V2000
    1.2284    0.8404    1.6245 O   0  0  0  0  0  0  0  0  0  0  0  0
    0.9005    0.6499    0.2793 C   0  0  2  0  0  0  0  0  0  0  0  0
    1.2936   -0.6686   -0.4403 C   0  0  0  0  0  0  0  0  0  0  0  0
    1.1298   -0.0483   -1.8479 C   0  0  2  0  0  0  0  0  0  0  0  0
    2.2927    0.9686   -1.7642 C   0  0  0  0  0  0  0  0  0  0  0  0
    1.5646    1.7715   -0.6727 C   0  0  1  0  0  0  0  0  0  0  0  0
    0.4619    2.2350   -1.4704 O   0  0  0  0  0  0  0  0  0  0  0  0
   -0.1400    0.9406   -1.6457 C   0  0  2  0  0  0  0  0  0  0  0  0
   -0.5768    0.7137   -0.1892 C   0  0  0  0  0  0  0  0  0  0  0  0
    0.8015    0.1503    2.1428 H   0  0  0  0  0  0  0  0  0  0  0  0
    2.3159   -1.0000   -0.2460 H   0  0  0  0  0  0  0  0  0  0  0  0
    0.6088   -1.4884   -0.2061 H   0  0  0  0  0  0  0  0  0  0  0  0
    1.0831   -0.7179   -2.7049 H   0  0  0  0  0  0  0  0  0  0  0  0
    3.2347    0.4967   -1.4769 H   0  0  0  0  0  0  0  0  0  0  0  0
    2.4446    1.5909   -2.6470 H   0  0  0  0  0  0  0  0  0  0  0  0
    2.0594    2.5937   -0.1600 H   0  0  0  0  0  0  0  0  0  0  0  0
   -0.8871    0.9637   -2.4369 H   0  0  0  0  0  0  0  0  0  0  0  0
   -1.1398    1.5739    0.1744 H   0  0  0  0  0  0  0  0  0  0  0  0
   -1.1199   -0.2116    0.0213 H   0  0  0  0  0  0  0  0  0  0  0  0
  1 10  1  0  0  0  0
  2  1  1  1  0  0  0
  3 11  1  0  0  0  0
  3 12  1  0  0  0  0
  3  2  1  0  0  0  0
  4 13  1  6  0  0  0
  4  5  1  0  0  0  0
  4  8  1  0  0  0  0
  4  3  1  0  0  0  0
  5 14  1  0  0  0  0
  5  6  1  0  0  0  0
  6 16  1  1  0  0  0
  6  2  1  0  0  0  0
  7  6  1  0  0  0  0
  8 17  1  6  0  0  0
  8  7  1  0  0  0  0
  8  9  1  0  0  0  0
  9 19  1  0  0  0  0
  9 18  1  0  0  0  0
  9  2  1  0  0  0  0
 15  5  1  0  0  0  0
M TOR 0 0 1 2 3
M TOR 1 0 1 2 10
M TOR 2 0 1 2 11
M TOR 3 0 1 5 4
M TOR 4 0 1 5 6
M TOR 5 0 1 5 15
M TOR 6 0 1 8 7
M TOR 7 0 1 8 17
M TOR 8 0 1 8 18
M TOR 9 1 2 3 4
M TOR 10 1 2 3 7
M TOR 11 1 2 3 12
M TOR 12 1 5 4 3
M TOR 13 1 5 4 13
M TOR 14 1 5 4 14
M TOR 15 1 5 6 7
M TOR 16 1 8 7 3
M TOR 17 1 8 7 6
M TOR 18 1 8 7 16
M TOR 19 2 1 0 9
M TOR 20 2 1 5 4
M TOR 21 2 1 5 6
M TOR 22 2 1 5 15
M TOR 23 2 1 8 7
M TOR 24 2 1 8 17
M TOR 25 2 1 8 18
M TOR 26 2 3 4 5
M TOR 27 2 3 4 13
M TOR 28 2 3 4 14
M TOR 29 2 3 7 6
M TOR 30 2 3 7 8
M TOR 31 2 3 7 16
M TOR 32 3 2 1 5
M TOR 33 3 2 1 8
M TOR 34 3 4 5 6
M TOR 35 3 4 5 15
M TOR 36 3 7 6 5
M TOR 37 3 7 8 17
M TOR 38 3 7 8 18
M TOR 39 4 3 2 10
M TOR 40 4 3 2 11
M TOR 41 4 3 7 6
M TOR 42 4 3 7 8
M TOR 43 4 3 7 16
M TOR 44 4 5 1 8
M TOR 45 4 5 6 7
M TOR 46 5 1 0 9
M TOR 47 5 1 2 10
M TOR 48 5 1 2 11
M TOR 49 5 1 8 7
M TOR 50 5 1 8 17
M TOR 51 5 1 8 18
M TOR 52 5 4 3 7
M TOR 53 5 4 3 12
M TOR 54 5 6 7 8
M TOR 55 5 6 7 16
M TOR 56 6 5 1 8
M TOR 57 6 5 4 13
M TOR 58 6 5 4 14
M TOR 59 6 7 3 12
M TOR 60 6 7 8 17
M TOR 61 6 7 8 18
M TOR 62 7 3 2 10
M TOR 63 7 3 2 11
M TOR 64 7 3 4 13
M TOR 65 7 3 4 14
M TOR 66 7 6 5 15
M TOR 67 8 1 0 9
M TOR 68 8 1 2 10
M TOR 69 8 1 2 11
M TOR 70 8 1 5 15
M TOR 71 8 7 3 12
M  END
$$$$
