
     RDKit          3D

 19 21  0  0  0  0  0  0  0  0999 V2000
   -1.2350    3.4869    0.3192 C   0  0  0  0  0  0  0  0  0  0  0  0
   -1.5281    2.4687    1.3788 C   0  0  0  0  0  0  0  0  0  0  0  0
   -2.9047    2.0882    1.3428 O   0  0  0  0  0  0  0  0  0  0  0  0
   -2.7337    1.5596    0.0005 C   0  0  0  0  0  0  0  0  0  0  0  0
   -1.2715    2.0118   -0.0428 C   0  0  0  0  0  0  0  0  0  0  0  0
   -0.1551    1.2646   -0.6986 C   0  0  0  0  0  0  0  0  0  0  0  0
    0.1106   -0.2028   -0.2748 C   0  0  0  0  0  0  0  0  0  0  0  0
    1.4926    0.0867    0.0147 O   0  0  0  0  0  0  0  0  0  0  0  0
    1.2934    1.4955   -0.2032 C   0  0  0  0  0  0  0  0  0  0  0  0
   -2.0229    4.1624   -0.0043 H   0  0  0  0  0  0  0  0  0  0  0  0
   -0.2401    3.9215    0.3506 H   0  0  0  0  0  0  0  0  0  0  0  0
   -0.9904    2.3485    2.3127 H   0  0  0  0  0  0  0  0  0  0  0  0
   -2.8551    0.4697    0.0020 H   0  0  0  0  0  0  0  0  0  0  0  0
   -3.4287    2.0072   -0.7202 H   0  0  0  0  0  0  0  0  0  0  0  0
   -0.2284    1.3638   -1.7869 H   0  0  0  0  0  0  0  0  0  0  0  0
   -0.4373   -0.5215    0.6224 H   0  0  0  0  0  0  0  0  0  0  0  0
    0.0058   -0.9686   -1.0516 H   0  0  0  0  0  0  0  0  0  0  0  0
    1.3733    2.0670    0.7321 H   0  0  0  0  0  0  0  0  0  0  0  0
    2.0021    1.9065   -0.9308 H   0  0  0  0  0  0  0  0  0  0  0  0
  1  2  1  0
  2  3  1  0
  3  4  1  0
  4  5  1  0
  5  6  1  0
  6  7  1  0
  7  8  1  0
  8  9  1  0
  5  1  1  0
  9  6  1  0
  5  2  1  0
  1 10  1  0
  1 11  1  0
  2 12  1  0
  4 13  1  0
  4 14  1  0
  6 15  1  0
  7 16  1  0
  7 17  1  0
  9 18  1  0
  9 19  1  0
M  END
$$$$
