
     RDKit          3D

 19 20  0  0  0  0  0  0  0  0999 V2000
    2.8182   -0.9440   -0.8381 C   0  0  0  0  0  0  0  0  0  0  0  0
    1.6007   -0.5846   -0.0043 C   0  0  0  0  0  0  0  0  0  0  0  0
    1.7047   -0.2779    1.1660 O   0  0  0  0  0  0  0  0  0  0  0  0
    0.2698   -0.6481   -0.7049 C   0  0  0  0  0  0  0  0  0  0  0  0
    0.3457   -0.9607   -2.0772 O   0  0  0  0  0  0  0  0  0  0  0  0
   -0.9518    0.1941   -0.3664 C   0  0  0  0  0  0  0  0  0  0  0  0
   -1.1183    0.4779    1.1315 C   0  0  0  0  0  0  0  0  0  0  0  0
   -1.1173   -1.0641    1.3990 C   0  0  0  0  0  0  0  0  0  0  0  0
   -0.9653   -1.3058   -0.1061 C   0  0  0  0  0  0  0  0  0  0  0  0
    2.6858   -1.9167   -1.3200 H   0  0  0  0  0  0  0  0  0  0  0  0
    2.9597   -0.2170   -1.6459 H   0  0  0  0  0  0  0  0  0  0  0  0
    3.6982   -0.9467   -0.1941 H   0  0  0  0  0  0  0  0  0  0  0  0
    0.5090   -0.1465   -2.5652 H   0  0  0  0  0  0  0  0  0  0  0  0
   -1.4127    0.7447   -1.1798 H   0  0  0  0  0  0  0  0  0  0  0  0
   -0.3333    1.0592    1.6131 H   0  0  0  0  0  0  0  0  0  0  0  0
   -2.0910    0.9293    1.3421 H   0  0  0  0  0  0  0  0  0  0  0  0
   -0.3227   -1.4461    2.0405 H   0  0  0  0  0  0  0  0  0  0  0  0
   -2.0822   -1.4217    1.7656 H   0  0  0  0  0  0  0  0  0  0  0  0
   -1.4195   -2.0968   -0.6906 H   0  0  0  0  0  0  0  0  0  0  0  0
  1  2  1  0
  2  3  2  0
  2  4  1  0
  4  5  1  0
  4  6  1  0
  6  7  1  0
  7  8  1  0
  8  9  1  0
  9  4  1  0
  9  6  1  0
  1 10  1  0
  1 11  1  0
  1 12  1  0
  5 13  1  0
  6 14  1  0
  7 15  1  0
  7 16  1  0
  8 17  1  0
  8 18  1  0
  9 19  1  0
M  END
$$$$
