
     RDKit          3D

 19 18  0  0  0  0  0  0  0  0999 V2000
    1.7156   -1.2189   -2.0459 C   0  0  0  0  0  0  0  0  0  0  0  0
    0.3033   -0.7309   -2.3699 C   0  0  0  0  0  0  0  0  0  0  0  0
    0.0464   -0.7786   -3.7717 O   0  0  0  0  0  0  0  0  0  0  0  0
    0.0942    0.7236   -1.9500 C   0  0  0  0  0  0  0  0  0  0  0  0
   -1.3470    1.2303   -2.2380 C   0  0  0  0  0  0  0  0  0  0  0  0
   -1.4029    2.7265   -1.9142 C   0  0  0  0  0  0  0  0  0  0  0  0
   -1.1928    3.5898   -2.7223 O   0  0  0  0  0  0  0  0  0  0  0  0
   -2.3548    0.5111   -1.4685 C   0  0  0  0  0  0  0  0  0  0  0  0
   -3.1888   -0.0404   -0.8004 C   0  0  0  0  0  0  0  0  0  0  0  0
    1.9109   -1.1788   -0.9692 H   0  0  0  0  0  0  0  0  0  0  0  0
    1.8473   -2.2579   -2.3682 H   0  0  0  0  0  0  0  0  0  0  0  0
    2.4615   -0.6060   -2.5616 H   0  0  0  0  0  0  0  0  0  0  0  0
   -0.4276   -1.3543   -1.8318 H   0  0  0  0  0  0  0  0  0  0  0  0
    0.0813   -1.6978   -4.0530 H   0  0  0  0  0  0  0  0  0  0  0  0
    0.3179    0.8289   -0.8831 H   0  0  0  0  0  0  0  0  0  0  0  0
    0.7919    1.3571   -2.5085 H   0  0  0  0  0  0  0  0  0  0  0  0
   -1.5272    1.1165   -3.3111 H   0  0  0  0  0  0  0  0  0  0  0  0
   -1.6245    2.9584   -0.8489 H   0  0  0  0  0  0  0  0  0  0  0  0
   -3.9331   -0.5372   -0.2284 H   0  0  0  0  0  0  0  0  0  0  0  0
  1  2  1  0
  2  3  1  0
  2  4  1  0
  4  5  1  0
  5  6  1  0
  6  7  2  0
  5  8  1  0
  8  9  3  0
  1 10  1  0
  1 11  1  0
  1 12  1  0
  2 13  1  0
  3 14  1  0
  4 15  1  0
  4 16  1  0
  5 17  1  0
  6 18  1  0
  9 19  1  0
M  END
$$$$
