
     RDKit          3D

 19 20  0  0  0  0  0  0  0  0999 V2000
    0.4609    0.4452    0.2539 C   0  0  0  0  0  0  0  0  0  0  0  0
    0.7976   -0.7934   -0.5603 C   0  0  0  0  0  0  0  0  0  0  0  0
    2.1902   -0.7821   -0.9599 O   0  0  0  0  0  0  0  0  0  0  0  0
    2.7654   -2.0436   -0.4858 C   0  0  0  0  0  0  0  0  0  0  0  0
    2.7624   -2.0639    1.0221 C   0  0  0  0  0  0  0  0  0  0  0  0
    1.4774   -2.1590    1.3944 C   0  0  0  0  0  0  0  0  0  0  0  0
    0.6408   -2.1803    0.1397 C   0  0  0  0  0  0  0  0  0  0  0  0
    1.6011   -3.0049   -0.7960 C   0  0  0  0  0  0  0  0  0  0  0  0
    1.2513   -3.0866   -2.1484 O   0  0  0  0  0  0  0  0  0  0  0  0
    1.0445    0.4843    1.1764 H   0  0  0  0  0  0  0  0  0  0  0  0
    0.6816    1.3450   -0.3276 H   0  0  0  0  0  0  0  0  0  0  0  0
   -0.6050    0.4573    0.5075 H   0  0  0  0  0  0  0  0  0  0  0  0
    0.1838   -0.8037   -1.4720 H   0  0  0  0  0  0  0  0  0  0  0  0
    3.7096   -2.1905   -1.0078 H   0  0  0  0  0  0  0  0  0  0  0  0
    3.6348   -1.9611    1.6539 H   0  0  0  0  0  0  0  0  0  0  0  0
    1.0856   -2.1573    2.4038 H   0  0  0  0  0  0  0  0  0  0  0  0
   -0.3891   -2.5256    0.2217 H   0  0  0  0  0  0  0  0  0  0  0  0
    1.7537   -4.0188   -0.4231 H   0  0  0  0  0  0  0  0  0  0  0  0
    1.4710   -2.2338   -2.5450 H   0  0  0  0  0  0  0  0  0  0  0  0
  1  2  1  0
  2  3  1  0
  3  4  1  0
  4  5  1  0
  5  6  2  0
  6  7  1  0
  7  8  1  0
  8  9  1  0
  7  2  1  0
  8  4  1  0
  1 10  1  0
  1 11  1  0
  1 12  1  0
  2 13  1  0
  4 14  1  0
  5 15  1  0
  6 16  1  0
  7 17  1  0
  8 18  1  0
  9 19  1  0
M  END
$$$$
