gdb 4191	3.5061564	1.188047	1.0284773	3.305	76.66	-0.24111	-0.02455	0.21656	1207.5367	0.156113	-422.564367	-422.555794	-422.55485	-422.597485	32.245
 OpenBabel02181911413D

 19 20  0  0  1  0  0  0  0  0999 V2000
    1.3403   -0.7445   -0.8364 C   0  0  0  0  0  0  0  0  0  0  0  0
    1.3514    0.1509    0.3903 C   0  0  2  0  0  0  0  0  0  0  0  0
    2.0133    1.5386    0.1951 C   0  0  0  0  0  0  0  0  0  0  0  0
    2.6743    1.8239    1.5304 C   0  0  1  0  0  0  0  0  0  0  0  0
    1.8786    1.6079    2.7870 C   0  0  0  0  0  0  0  0  0  0  0  0
    2.7111    0.4692    2.2304 C   0  0  1  0  0  0  0  0  0  0  0  0
    2.0944   -0.5009    1.4355 O   0  0  0  0  0  0  0  0  0  0  0  0
    3.9181   -0.0008    2.9437 C   0  0  0  0  0  0  0  0  0  0  0  0
    4.5358    0.6667    3.7395 O   0  0  0  0  0  0  0  0  0  0  0  0
    0.9047   -1.7182   -0.5964 H   0  0  0  0  0  0  0  0  0  0  0  0
    0.7454   -0.2897   -1.6346 H   0  0  0  0  0  0  0  0  0  0  0  0
    2.3585   -0.9024   -1.2049 H   0  0  0  0  0  0  0  0  0  0  0  0
    0.3188    0.2919    0.7412 H   0  0  0  0  0  0  0  0  0  0  0  0
    2.7781    1.4937   -0.5882 H   0  0  0  0  0  0  0  0  0  0  0  0
    1.2754    2.2906   -0.1004 H   0  0  0  0  0  0  0  0  0  0  0  0
    3.5442    2.4684    1.5732 H   0  0  0  0  0  0  0  0  0  0  0  0
    2.2689    2.0586    3.6925 H   0  0  0  0  0  0  0  0  0  0  0  0
    0.7993    1.5145    2.7346 H   0  0  0  0  0  0  0  0  0  0  0  0
    4.2235   -1.0336    2.6703 H   0  0  0  0  0  0  0  0  0  0  0  0
  1 10  1  0  0  0  0
  1  2  1  0  0  0  0
  2 13  1  1  0  0  0
  2  7  1  0  0  0  0
  3  2  1  0  0  0  0
  3  4  1  0  0  0  0
  4 16  1  1  0  0  0
  4  6  1  0  0  0  0
  4  5  1  0  0  0  0
  5 17  1  0  0  0  0
  6  5  1  0  0  0  0
  6  8  1  1  0  0  0
  7  6  1  0  0  0  0
  8  9  2  0  0  0  0
 11  1  1  0  0  0  0
 12  1  1  0  0  0  0
 14  3  1  0  0  0  0
 15  3  1  0  0  0  0
 18  5  1  0  0  0  0
 19  8  1  0  0  0  0
M TOR 0 0 1 2 3
M TOR 1 0 1 2 13
M TOR 2 0 1 2 14
M TOR 3 0 1 6 5
M TOR 4 1 2 3 4
M TOR 5 1 2 3 5
M TOR 6 1 2 3 15
M TOR 7 1 6 5 3
M TOR 8 1 6 5 4
M TOR 9 1 6 5 7
M TOR 10 2 1 0 9
M TOR 11 2 1 0 10
M TOR 12 2 1 0 11
M TOR 13 2 1 6 5
M TOR 14 2 3 4 5
M TOR 15 2 3 4 16
M TOR 16 2 3 4 17
M TOR 17 2 3 5 6
M TOR 18 2 3 5 7
M TOR 19 3 2 1 6
M TOR 20 3 2 1 12
M TOR 21 3 4 5 6
M TOR 22 3 4 5 7
M TOR 23 3 5 4 16
M TOR 24 3 5 4 17
M TOR 25 3 5 7 8
M TOR 26 3 5 7 18
M TOR 27 4 3 2 13
M TOR 28 4 3 2 14
M TOR 29 4 5 3 15
M TOR 30 4 5 7 8
M TOR 31 4 5 7 18
M TOR 32 5 3 2 13
M TOR 33 5 3 2 14
M TOR 34 5 6 1 12
M TOR 35 6 1 0 9
M TOR 36 6 1 0 10
M TOR 37 6 1 0 11
M TOR 38 6 1 2 13
M TOR 39 6 1 2 14
M TOR 40 6 5 3 15
M TOR 41 6 5 4 16
M TOR 42 6 5 4 17
M TOR 43 6 5 7 8
M TOR 44 6 5 7 18
M TOR 45 7 5 3 15
M TOR 46 7 5 4 16
M TOR 47 7 5 4 17
M  END
$$$$
