
     RDKit          3D

 19 20  0  0  0  0  0  0  0  0999 V2000
    0.7120   -0.1344   -1.1966 O   0  0  0  0  0  0  0  0  0  0  0  0
   -0.0766   -0.0048   -0.2924 C   0  0  0  0  0  0  0  0  0  0  0  0
   -0.8425    1.3070   -0.0760 C   0  0  0  0  0  0  0  0  0  0  0  0
   -1.5635    1.3163    1.1392 O   0  0  0  0  0  0  0  0  0  0  0  0
   -2.5231    0.2776    1.1900 C   0  0  0  0  0  0  0  0  0  0  0  0
   -2.8388   -0.1864    2.6282 C   0  0  0  0  0  0  0  0  0  0  0  0
   -2.5238   -1.6537    2.2116 C   0  0  0  0  0  0  0  0  0  0  0  0
   -1.9596   -1.1409    0.8545 C   0  0  0  0  0  0  0  0  0  0  0  0
   -0.4319   -1.0885    0.7121 C   0  0  0  0  0  0  0  0  0  0  0  0
   -0.1270    2.1335   -0.0396 H   0  0  0  0  0  0  0  0  0  0  0  0
   -1.4967    1.4765   -0.9486 H   0  0  0  0  0  0  0  0  0  0  0  0
   -3.4081    0.5488    0.5960 H   0  0  0  0  0  0  0  0  0  0  0  0
   -2.1155    0.2297    3.3327 H   0  0  0  0  0  0  0  0  0  0  0  0
   -3.8456    0.0165    2.9975 H   0  0  0  0  0  0  0  0  0  0  0  0
   -1.8191   -2.1975    2.8455 H   0  0  0  0  0  0  0  0  0  0  0  0
   -3.4189   -2.2679    2.0910 H   0  0  0  0  0  0  0  0  0  0  0  0
   -2.3952   -1.6094   -0.0321 H   0  0  0  0  0  0  0  0  0  0  0  0
    0.0180   -0.8079    1.6738 H   0  0  0  0  0  0  0  0  0  0  0  0
    0.0026   -2.0400    0.3978 H   0  0  0  0  0  0  0  0  0  0  0  0
  1  2  2  0
  2  3  1  0
  3  4  1  0
  4  5  1  0
  5  6  1  0
  6  7  1  0
  7  8  1  0
  8  9  1  0
  9  2  1  0
  8  5  1  0
  3 10  1  0
  3 11  1  0
  5 12  1  0
  6 13  1  0
  6 14  1  0
  7 15  1  0
  7 16  1  0
  8 17  1  0
  9 18  1  0
  9 19  1  0
M  END
$$$$
