
     RDKit          3D

 19 21  0  0  0  0  0  0  0  0999 V2000
    1.2523    0.6986   -0.2019 O   0  0  0  0  0  0  0  0  0  0  0  0
    0.2980   -0.1732    0.3914 C   0  0  0  0  0  0  0  0  0  0  0  0
   -0.8140    0.5798    1.1078 C   0  0  0  0  0  0  0  0  0  0  0  0
   -2.1182   -0.2093    1.4109 C   0  0  0  0  0  0  0  0  0  0  0  0
   -2.8857    0.7667    2.1309 O   0  0  0  0  0  0  0  0  0  0  0  0
   -3.0459    1.7012    1.0463 C   0  0  0  0  0  0  0  0  0  0  0  0
   -3.9069    0.8933    0.0528 C   0  0  0  0  0  0  0  0  0  0  0  0
   -2.6209    0.0646   -0.0714 C   0  0  0  0  0  0  0  0  0  0  0  0
   -1.7593    1.3600    0.1798 C   0  0  0  0  0  0  0  0  0  0  0  0
    1.6437    1.2253    0.5026 H   0  0  0  0  0  0  0  0  0  0  0  0
   -0.0991   -0.7713   -0.4348 H   0  0  0  0  0  0  0  0  0  0  0  0
    0.7820   -0.8718    1.0928 H   0  0  0  0  0  0  0  0  0  0  0  0
   -0.4144    1.1132    1.9796 H   0  0  0  0  0  0  0  0  0  0  0  0
   -2.1473   -1.1784    1.9080 H   0  0  0  0  0  0  0  0  0  0  0  0
   -3.2987    2.6923    1.4189 H   0  0  0  0  0  0  0  0  0  0  0  0
   -4.8200    0.4390    0.4457 H   0  0  0  0  0  0  0  0  0  0  0  0
   -4.1067    1.4382   -0.8740 H   0  0  0  0  0  0  0  0  0  0  0  0
   -2.4314   -0.6704   -0.8498 H   0  0  0  0  0  0  0  0  0  0  0  0
   -1.4362    2.0456   -0.6003 H   0  0  0  0  0  0  0  0  0  0  0  0
  1  2  1  0
  2  3  1  0
  3  4  1  0
  4  5  1  0
  5  6  1  0
  6  7  1  0
  7  8  1  0
  8  9  1  0
  9  3  1  0
  8  4  1  0
  9  6  1  0
  1 10  1  0
  2 11  1  0
  2 12  1  0
  3 13  1  0
  4 14  1  0
  6 15  1  0
  7 16  1  0
  7 17  1  0
  8 18  1  0
  9 19  1  0
M  END
$$$$
