gdb 2964	3.2011536	1.12457	0.9973613	2.607	76.72	-0.24892	-0.03813	0.21079	1255.5187	0.155165	-422.541731	-422.532835	-422.531891	-422.575077	33.63
 OpenBabel02181911413D

 19 20  0  0  1  0  0  0  0  0999 V2000
    2.3323    1.5472    0.1221 C   0  0  0  0  0  0  0  0  0  0  0  0
    1.5711    0.2486    0.2891 C   0  0  1  0  0  0  0  0  0  0  0  0
    1.7804   -0.8306   -0.7310 C   0  0  2  0  0  0  0  0  0  0  0  0
    0.8327   -2.0067   -0.4631 C   0  0  0  0  0  0  0  0  0  0  0  0
    1.4908   -2.2062    0.9583 C   0  0  2  0  0  0  0  0  0  0  0  0
    2.2318   -3.3900    1.0359 O   0  0  0  0  0  0  0  0  0  0  0  0
    0.5742   -2.1096    2.1557 C   0  0  0  0  0  0  0  0  0  0  0  0
    0.5175   -2.9852    2.9884 O   0  0  0  0  0  0  0  0  0  0  0  0
    2.3761   -0.9715    0.6713 C   0  0  2  0  0  0  0  0  0  0  0  0
    2.4646    2.0569    1.0823 H   0  0  0  0  0  0  0  0  0  0  0  0
    3.3272    1.3694   -0.2996 H   0  0  0  0  0  0  0  0  0  0  0  0
    1.8022    2.2296   -0.5507 H   0  0  0  0  0  0  0  0  0  0  0  0
    0.5694    0.3761    0.6978 H   0  0  0  0  0  0  0  0  0  0  0  0
    2.2888   -0.6389   -1.6681 H   0  0  0  0  0  0  0  0  0  0  0  0
   -0.2405   -1.7904   -0.5124 H   0  0  0  0  0  0  0  0  0  0  0  0
    1.0543   -2.8982   -1.0508 H   0  0  0  0  0  0  0  0  0  0  0  0
    1.9207   -3.8375    1.8395 H   0  0  0  0  0  0  0  0  0  0  0  0
   -0.0461   -1.1969    2.2393 H   0  0  0  0  0  0  0  0  0  0  0  0
    3.4068   -0.9056    0.9992 H   0  0  0  0  0  0  0  0  0  0  0  0
  1  2  1  0  0  0  0
  1 10  1  0  0  0  0
  2  9  1  0  0  0  0
  2 13  1  1  0  0  0
  3 14  1  6  0  0  0
  3  4  1  0  0  0  0
  3  2  1  0  0  0  0
  3  9  1  0  0  0  0
  4  5  1  0  0  0  0
  5  6  1  1  0  0  0
  5  7  1  0  0  0  0
  6 17  1  0  0  0  0
  7 18  1  0  0  0  0
  7  8  2  0  0  0  0
  9  5  1  0  0  0  0
  9 19  1  1  0  0  0
 11  1  1  0  0  0  0
 12  1  1  0  0  0  0
 15  4  1  0  0  0  0
 16  4  1  0  0  0  0
M TOR 0 0 1 2 3
M TOR 1 0 1 2 8
M TOR 2 0 1 2 13
M TOR 3 0 1 8 4
M TOR 4 0 1 8 18
M TOR 5 1 2 3 4
M TOR 6 1 2 3 14
M TOR 7 1 2 3 15
M TOR 8 1 2 8 4
M TOR 9 1 2 8 18
M TOR 10 1 8 2 3
M TOR 11 1 8 2 13
M TOR 12 1 8 4 3
M TOR 13 1 8 4 5
M TOR 14 1 8 4 6
M TOR 15 2 1 0 9
M TOR 16 2 1 0 10
M TOR 17 2 1 0 11
M TOR 18 2 3 4 5
M TOR 19 2 3 4 6
M TOR 20 2 3 4 8
M TOR 21 2 8 1 12
M TOR 22 2 8 4 5
M TOR 23 2 8 4 6
M TOR 24 3 2 1 12
M TOR 25 3 2 8 18
M TOR 26 3 4 5 16
M TOR 27 3 4 6 7
M TOR 28 3 4 6 17
M TOR 29 3 4 8 18
M TOR 30 4 3 2 13
M TOR 31 4 8 1 12
M TOR 32 4 8 2 13
M TOR 33 5 4 3 14
M TOR 34 5 4 3 15
M TOR 35 5 4 6 7
M TOR 36 5 4 6 17
M TOR 37 5 4 8 18
M TOR 38 6 4 3 14
M TOR 39 6 4 3 15
M TOR 40 6 4 5 16
M TOR 41 6 4 8 18
M TOR 42 7 6 4 8
M TOR 43 8 1 0 9
M TOR 44 8 1 0 10
M TOR 45 8 1 0 11
M TOR 46 8 2 3 14
M TOR 47 8 2 3 15
M TOR 48 8 4 3 14
M TOR 49 8 4 3 15
M TOR 50 8 4 5 16
M TOR 51 8 4 6 17
M  END
$$$$
