
     RDKit          3D

 19 21  0  0  0  0  0  0  0  0999 V2000
    0.2815    0.0694    0.7144 O   0  0  0  0  0  0  0  0  0  0  0  0
   -0.7425    0.9816    0.5905 C   0  0  0  0  0  0  0  0  0  0  0  0
   -2.1750    0.5450    0.6765 C   0  0  0  0  0  0  0  0  0  0  0  0
   -1.6879    1.6699    1.5569 C   0  0  0  0  0  0  0  0  0  0  0  0
   -1.6468    2.8936    0.8159 O   0  0  0  0  0  0  0  0  0  0  0  0
   -0.6517    2.3458   -0.1062 C   0  0  0  0  0  0  0  0  0  0  0  0
    0.6667    3.0491    0.0251 C   0  0  0  0  0  0  0  0  0  0  0  0
    1.7007    2.8980   -1.0699 C   0  0  0  0  0  0  0  0  0  0  0  0
    0.9959    4.2130   -0.8747 C   0  0  0  0  0  0  0  0  0  0  0  0
    1.0690    0.5397    1.0117 H   0  0  0  0  0  0  0  0  0  0  0  0
   -2.8844    0.7443   -0.1233 H   0  0  0  0  0  0  0  0  0  0  0  0
   -2.2988   -0.4055    1.1876 H   0  0  0  0  0  0  0  0  0  0  0  0
   -1.7895    1.7229    2.6341 H   0  0  0  0  0  0  0  0  0  0  0  0
   -1.0056    2.3802   -1.1458 H   0  0  0  0  0  0  0  0  0  0  0  0
    1.0336    3.1123    1.0468 H   0  0  0  0  0  0  0  0  0  0  0  0
    2.7432    2.8205   -0.7823 H   0  0  0  0  0  0  0  0  0  0  0  0
    1.4350    2.3002   -1.9355 H   0  0  0  0  0  0  0  0  0  0  0  0
    1.5537    5.0396   -0.4500 H   0  0  0  0  0  0  0  0  0  0  0  0
    0.2524    4.5074   -1.6077 H   0  0  0  0  0  0  0  0  0  0  0  0
  1  2  1  0
  2  3  1  0
  3  4  1  0
  4  5  1  0
  5  6  1  0
  6  7  1  0
  7  8  1  0
  8  9  1  0
  4  2  1  0
  9  7  1  0
  6  2  1  0
  1 10  1  0
  3 11  1  0
  3 12  1  0
  4 13  1  0
  6 14  1  0
  7 15  1  0
  8 16  1  0
  8 17  1  0
  9 18  1  0
  9 19  1  0
M  END
$$$$
