gdb 355	3.8957608	1.1886714	1.1246273	1.1579	75.3	-0.23676	0.05997	0.29673	1150.0108	0.157102	-422.467604	-422.459695	-422.458751	-422.501165	29.637
 OpenBabel02181911403D

 19 21  0  0  1  0  0  0  0  0999 V2000
    0.6184    0.8304   -1.2792 C   0  0  0  0  0  0  0  0  0  0  0  0
   -0.0212   -0.1577   -0.2838 C   0  0  0  0  0  0  0  0  0  0  0  0
    0.9500    0.4712    0.7396 C   0  0  1  0  0  0  0  0  0  0  0  0
    1.4382    1.4163   -0.2415 O   0  0  0  0  0  0  0  0  0  0  0  0
    0.3702    1.1801    1.9258 C   0  0  1  0  0  0  0  0  0  0  0  0
    1.0956    2.0416    2.9944 C   0  0  0  0  0  0  0  0  0  0  0  0
   -0.3507    1.7568    3.4571 C   0  0  1  0  0  0  0  0  0  0  0  0
   -0.8732    2.1026    2.0440 C   0  0  0  0  0  0  0  0  0  0  0  0
   -0.1851    0.3457    3.0259 O   0  0  0  0  0  0  0  0  0  0  0  0
    1.2299    0.3733   -2.0667 H   0  0  0  0  0  0  0  0  0  0  0  0
   -0.0515    1.5690   -1.7341 H   0  0  0  0  0  0  0  0  0  0  0  0
   -1.0763    0.0164   -0.0692 H   0  0  0  0  0  0  0  0  0  0  0  0
    0.1349   -1.2166   -0.4901 H   0  0  0  0  0  0  0  0  0  0  0  0
    1.7476   -0.2019    1.0832 H   0  0  0  0  0  0  0  0  0  0  0  0
    1.8727    1.5199    3.5544 H   0  0  0  0  0  0  0  0  0  0  0  0
    1.3653    3.0660    2.7292 H   0  0  0  0  0  0  0  0  0  0  0  0
   -0.8165    1.9302    4.4267 H   0  0  0  0  0  0  0  0  0  0  0  0
   -1.8254    1.6403    1.7809 H   0  0  0  0  0  0  0  0  0  0  0  0
   -0.7811    3.1336    1.6955 H   0  0  0  0  0  0  0  0  0  0  0  0
  1  2  1  0  0  0  0
  1  4  1  0  0  0  0
  2 12  1  0  0  0  0
  2  3  1  0  0  0  0
  3 14  1  1  0  0  0
  3  5  1  0  0  0  0
  4  3  1  0  0  0  0
  5  8  1  0  0  0  0
  5  6  1  0  0  0  0
  5  9  1  1  0  0  0
  6  7  1  0  0  0  0
  6 15  1  0  0  0  0
  7 17  1  1  0  0  0
  8  7  1  0  0  0  0
  9  7  1  0  0  0  0
 10  1  1  0  0  0  0
 11  1  1  0  0  0  0
 13  2  1  0  0  0  0
 16  6  1  0  0  0  0
 18  8  1  0  0  0  0
 19  8  1  0  0  0  0
M TOR 0 0 1 2 3
M TOR 1 0 1 2 4
M TOR 2 0 1 2 13
M TOR 3 0 3 2 4
M TOR 4 0 3 2 13
M TOR 5 1 2 4 5
M TOR 6 1 2 4 7
M TOR 7 1 2 4 8
M TOR 8 2 1 0 9
M TOR 9 2 1 0 10
M TOR 10 2 3 0 9
M TOR 11 2 3 0 10
M TOR 12 2 4 5 6
M TOR 13 2 4 5 14
M TOR 14 2 4 5 15
M TOR 15 2 4 7 6
M TOR 16 2 4 7 17
M TOR 17 2 4 7 18
M TOR 18 2 4 8 6
M TOR 19 3 0 1 11
M TOR 20 3 0 1 12
M TOR 21 3 2 1 11
M TOR 22 3 2 1 12
M TOR 23 3 2 4 5
M TOR 24 3 2 4 7
M TOR 25 3 2 4 8
M TOR 26 4 2 1 11
M TOR 27 4 2 1 12
M TOR 28 4 5 6 7
M TOR 29 4 5 6 8
M TOR 30 4 5 6 16
M TOR 31 4 7 6 8
M TOR 32 4 7 6 16
M TOR 33 4 8 6 16
M TOR 34 5 4 2 13
M TOR 35 5 4 7 17
M TOR 36 5 4 7 18
M TOR 37 5 6 7 17
M TOR 38 5 6 7 18
M TOR 39 7 4 2 13
M TOR 40 7 4 5 14
M TOR 41 7 4 5 15
M TOR 42 7 6 5 14
M TOR 43 7 6 5 15
M TOR 44 8 4 2 13
M TOR 45 8 4 5 14
M TOR 46 8 4 5 15
M TOR 47 8 4 7 17
M TOR 48 8 4 7 18
M TOR 49 8 6 5 14
M TOR 50 8 6 5 15
M TOR 51 8 6 7 17
M TOR 52 8 6 7 18
M  END
$$$$
