
     RDKit          3D

 19 20  0  0  0  0  0  0  0  0999 V2000
   -0.6860   -1.0332   -1.3872 C   0  0  0  0  0  0  0  0  0  0  0  0
    0.4134   -0.5212   -2.2720 C   0  0  0  0  0  0  0  0  0  0  0  0
    0.2666   -0.2264   -3.7777 C   0  0  0  0  0  0  0  0  0  0  0  0
    1.7298   -0.7425   -4.0062 C   0  0  0  0  0  0  0  0  0  0  0  0
    1.8515   -1.8834   -4.8208 O   0  0  0  0  0  0  0  0  0  0  0  0
    1.8343   -0.9920   -2.4955 C   0  0  0  0  0  0  0  0  0  0  0  0
    1.5904    0.3277   -1.7696 C   0  0  0  0  0  0  0  0  0  0  0  0
    1.8910    0.3472   -0.3197 C   0  0  0  0  0  0  0  0  0  0  0  0
    1.8432   -0.6132    0.4164 O   0  0  0  0  0  0  0  0  0  0  0  0
   -0.3060   -1.3105   -0.4025 H   0  0  0  0  0  0  0  0  0  0  0  0
   -1.4691   -0.2769   -1.2578 H   0  0  0  0  0  0  0  0  0  0  0  0
   -1.1540   -1.9170   -1.8357 H   0  0  0  0  0  0  0  0  0  0  0  0
   -0.4473   -0.8955   -4.2679 H   0  0  0  0  0  0  0  0  0  0  0  0
    0.0323    0.8050   -4.0607 H   0  0  0  0  0  0  0  0  0  0  0  0
    2.4390   -0.0168   -4.4156 H   0  0  0  0  0  0  0  0  0  0  0  0
    1.2729   -2.5691   -4.4683 H   0  0  0  0  0  0  0  0  0  0  0  0
    2.3949   -1.7747   -1.9967 H   0  0  0  0  0  0  0  0  0  0  0  0
    1.8076    1.2615   -2.2852 H   0  0  0  0  0  0  0  0  0  0  0  0
    2.1829    1.3460    0.0740 H   0  0  0  0  0  0  0  0  0  0  0  0
  1  2  1  0
  2  3  1  0
  3  4  1  0
  4  5  1  0
  4  6  1  0
  6  7  1  0
  7  8  1  0
  8  9  2  0
  6  2  1  0
  7  2  1  0
  1 10  1  0
  1 11  1  0
  1 12  1  0
  3 13  1  0
  3 14  1  0
  4 15  1  0
  5 16  1  0
  6 17  1  0
  7 18  1  0
  8 19  1  0
M  END
$$$$
