
     RDKit          3D

 19 21  0  0  0  0  0  0  0  0999 V2000
    0.0167   -0.3502    0.2642 C   0  0  0  0  0  0  0  0  0  0  0  0
    1.4427    0.0730    0.0134 C   0  0  0  0  0  0  0  0  0  0  0  0
    1.7176    1.3110    0.7933 O   0  0  0  0  0  0  0  0  0  0  0  0
    2.5205    0.5506    1.7604 C   0  0  0  0  0  0  0  0  0  0  0  0
    2.7215   -0.4724    0.6554 C   0  0  0  0  0  0  0  0  0  0  0  0
    3.5112    0.0970   -0.5731 C   0  0  0  0  0  0  0  0  0  0  0  0
    2.2106   -0.3414   -1.2788 C   0  0  0  0  0  0  0  0  0  0  0  0
    2.3258   -1.8782   -0.9372 C   0  0  0  0  0  0  0  0  0  0  0  0
    2.7511   -1.8725    0.4761 O   0  0  0  0  0  0  0  0  0  0  0  0
   -0.1654   -0.5482    1.3252 H   0  0  0  0  0  0  0  0  0  0  0  0
   -0.6490    0.4667   -0.0359 H   0  0  0  0  0  0  0  0  0  0  0  0
   -0.2658   -1.2402   -0.3029 H   0  0  0  0  0  0  0  0  0  0  0  0
    3.3905    1.1154    2.1067 H   0  0  0  0  0  0  0  0  0  0  0  0
    1.9112    0.2208    2.6101 H   0  0  0  0  0  0  0  0  0  0  0  0
    3.6628    1.1723   -0.5402 H   0  0  0  0  0  0  0  0  0  0  0  0
    4.4263   -0.4387   -0.8328 H   0  0  0  0  0  0  0  0  0  0  0  0
    1.9442   -0.1074   -2.3122 H   0  0  0  0  0  0  0  0  0  0  0  0
    1.3942   -2.4429   -1.0276 H   0  0  0  0  0  0  0  0  0  0  0  0
    3.0996   -2.3565   -1.5446 H   0  0  0  0  0  0  0  0  0  0  0  0
  1  2  1  0
  2  3  1  0
  3  4  1  0
  4  5  1  0
  5  6  1  0
  6  7  1  0
  7  8  1  0
  8  9  1  0
  5  2  1  0
  9  5  1  0
  7  2  1  0
  1 10  1  0
  1 11  1  0
  1 12  1  0
  4 13  1  0
  4 14  1  0
  6 15  1  0
  6 16  1  0
  7 17  1  0
  8 18  1  0
  8 19  1  0
M  END
$$$$
