gdb 1832	2.8077729	1.6815644	1.2853795	1.1857	75.86	-0.23956	0.00983	0.24939	1015.8002	0.157645	-422.541666	-422.533831	-422.532887	-422.573358	31.54
 OpenBabel02181911403D

 19 20  0  0  1  0  0  0  0  0999 V2000
    0.5541    0.2063    0.2560 O   0  0  0  0  0  0  0  0  0  0  0  0
   -0.6872    0.5903    0.8034 C   0  0  1  0  0  0  0  0  0  0  0  0
   -1.2340    1.9102    0.2004 C   0  0  0  0  0  0  0  0  0  0  0  0
   -2.6542    1.2833    0.2554 C   0  0  1  0  0  0  0  0  0  0  0  0
   -1.9783   -0.1157    0.2696 C   0  0  0  0  0  0  0  0  0  0  0  0
   -3.4316    1.5404    1.4119 O   0  0  0  0  0  0  0  0  0  0  0  0
   -2.8034    1.9625    2.6107 C   0  0  0  0  0  0  0  0  0  0  0  0
   -1.5778    1.2121    3.0820 C   0  0  0  0  0  0  0  0  0  0  0  0
   -0.6558    0.6352    2.3139 C   0  0  0  0  0  0  0  0  0  0  0  0
    0.7874   -0.6581    0.6118 H   0  0  0  0  0  0  0  0  0  0  0  0
   -1.0381    2.8423    0.7328 H   0  0  0  0  0  0  0  0  0  0  0  0
   -0.9036    2.0075   -0.8363 H   0  0  0  0  0  0  0  0  0  0  0  0
   -3.3142    1.4971   -0.5877 H   0  0  0  0  0  0  0  0  0  0  0  0
   -2.4466   -0.8790    0.8937 H   0  0  0  0  0  0  0  0  0  0  0  0
   -1.8116   -0.4927   -0.7437 H   0  0  0  0  0  0  0  0  0  0  0  0
   -2.5549    3.0367    2.5529 H   0  0  0  0  0  0  0  0  0  0  0  0
   -3.5864    1.8756    3.3716 H   0  0  0  0  0  0  0  0  0  0  0  0
   -1.4483    1.1987    4.1618 H   0  0  0  0  0  0  0  0  0  0  0  0
    0.2007    0.1511    2.7785 H   0  0  0  0  0  0  0  0  0  0  0  0
  1 10  1  0  0  0  0
  2  1  1  6  0  0  0
  2  9  1  0  0  0  0
  3  4  1  0  0  0  0
  3 11  1  0  0  0  0
  3  2  1  0  0  0  0
  4 13  1  6  0  0  0
  4  5  1  0  0  0  0
  4  6  1  0  0  0  0
  5  2  1  0  0  0  0
  5 14  1  0  0  0  0
  6  7  1  0  0  0  0
  7  8  1  0  0  0  0
  7 17  1  0  0  0  0
  8 18  1  0  0  0  0
  9 19  1  0  0  0  0
  9  8  2  0  0  0  0
 12  3  1  0  0  0  0
 15  5  1  0  0  0  0
 16  7  1  0  0  0  0
M TOR 0 0 1 2 3
M TOR 1 0 1 2 10
M TOR 2 0 1 2 11
M TOR 3 0 1 4 3
M TOR 4 0 1 4 13
M TOR 5 0 1 4 14
M TOR 6 0 1 8 7
M TOR 7 0 1 8 18
M TOR 8 1 2 3 4
M TOR 9 1 2 3 5
M TOR 10 1 2 3 12
M TOR 11 1 4 3 5
M TOR 12 1 4 3 12
M TOR 13 1 8 7 6
M TOR 14 1 8 7 17
M TOR 15 2 1 0 9
M TOR 16 2 1 4 13
M TOR 17 2 1 4 14
M TOR 18 2 1 8 7
M TOR 19 2 1 8 18
M TOR 20 2 3 4 13
M TOR 21 2 3 4 14
M TOR 22 2 3 5 6
M TOR 23 3 2 1 8
M TOR 24 3 4 1 8
M TOR 25 3 5 6 7
M TOR 26 3 5 6 15
M TOR 27 3 5 6 16
M TOR 28 4 1 0 9
M TOR 29 4 1 2 10
M TOR 30 4 1 2 11
M TOR 31 4 1 8 7
M TOR 32 4 1 8 18
M TOR 33 4 3 2 10
M TOR 34 4 3 2 11
M TOR 35 4 3 5 6
M TOR 36 5 3 2 10
M TOR 37 5 3 2 11
M TOR 38 5 3 4 13
M TOR 39 5 3 4 14
M TOR 40 5 6 7 8
M TOR 41 5 6 7 17
M TOR 42 6 5 3 12
M TOR 43 6 7 8 18
M TOR 44 8 1 0 9
M TOR 45 8 1 2 10
M TOR 46 8 1 2 11
M TOR 47 8 1 4 13
M TOR 48 8 1 4 14
M TOR 49 8 7 6 15
M TOR 50 8 7 6 16
M  END
$$$$
