
     RDKit          3D

 19 21  0  0  0  0  0  0  0  0999 V2000
   -0.5578   -0.9867    3.1891 C   0  0  0  0  0  0  0  0  0  0  0  0
   -1.2245    0.1412    2.4527 C   0  0  0  0  0  0  0  0  0  0  0  0
   -2.0937    1.2146    3.1662 C   0  0  0  0  0  0  0  0  0  0  0  0
   -2.8257    1.3881    1.8363 C   0  0  0  0  0  0  0  0  0  0  0  0
   -1.7562    1.2526    0.7169 C   0  0  0  0  0  0  0  0  0  0  0  0
   -0.4220    0.9794    1.4009 C   0  0  0  0  0  0  0  0  0  0  0  0
    0.4779    0.2248    0.6184 O   0  0  0  0  0  0  0  0  0  0  0  0
   -2.3863    0.0378    1.3378 C   0  0  0  0  0  0  0  0  0  0  0  0
   -3.0268   -1.0073    0.7224 O   0  0  0  0  0  0  0  0  0  0  0  0
    0.1163   -0.6008    3.9632 H   0  0  0  0  0  0  0  0  0  0  0  0
   -1.2884   -1.6382    3.6813 H   0  0  0  0  0  0  0  0  0  0  0  0
    0.0419   -1.5954    2.5053 H   0  0  0  0  0  0  0  0  0  0  0  0
   -2.7416    0.7817    3.9350 H   0  0  0  0  0  0  0  0  0  0  0  0
   -1.5600    2.0760    3.5848 H   0  0  0  0  0  0  0  0  0  0  0  0
   -3.7505    1.9122    1.6296 H   0  0  0  0  0  0  0  0  0  0  0  0
   -1.9325    1.6700   -0.2667 H   0  0  0  0  0  0  0  0  0  0  0  0
    0.1566    1.8235    1.7924 H   0  0  0  0  0  0  0  0  0  0  0  0
   -0.0395   -0.4177    0.1175 H   0  0  0  0  0  0  0  0  0  0  0  0
   -3.6947   -1.3583    1.3226 H   0  0  0  0  0  0  0  0  0  0  0  0
  1  2  1  0
  2  3  1  0
  3  4  1  0
  4  5  1  0
  5  6  1  0
  6  7  1  0
  5  8  1  0
  8  9  1  0
  6  2  1  0
  8  2  1  0
  8  4  1  0
  1 10  1  0
  1 11  1  0
  1 12  1  0
  3 13  1  0
  3 14  1  0
  4 15  1  0
  5 16  1  0
  6 17  1  0
  7 18  1  0
  9 19  1  0
M  END
$$$$
