
     RDKit          3D

 19 20  0  0  0  0  0  0  0  0999 V2000
    0.5760    0.7354    0.3887 C   0  0  0  0  0  0  0  0  0  0  0  0
    0.8555   -0.7313    0.0411 C   0  0  0  0  0  0  0  0  0  0  0  0
    1.7653   -0.8905   -1.1602 C   0  0  0  0  0  0  0  0  0  0  0  0
    1.8323   -2.2040   -1.9381 C   0  0  0  0  0  0  0  0  0  0  0  0
    1.2175   -0.9908   -2.5407 C   0  0  0  0  0  0  0  0  0  0  0  0
   -0.1660   -0.7366   -3.1202 C   0  0  0  0  0  0  0  0  0  0  0  0
    0.6281   -0.0437   -4.2329 C   0  0  0  0  0  0  0  0  0  0  0  0
    0.4124    0.5332   -5.2483 O   0  0  0  0  0  0  0  0  0  0  0  0
    1.8492   -0.3060   -3.6573 O   0  0  0  0  0  0  0  0  0  0  0  0
   -0.0767    0.8170    1.2630 H   0  0  0  0  0  0  0  0  0  0  0  0
    1.5048    1.2699    0.6143 H   0  0  0  0  0  0  0  0  0  0  0  0
    0.0914    1.2581   -0.4427 H   0  0  0  0  0  0  0  0  0  0  0  0
    1.3115   -1.2339    0.9034 H   0  0  0  0  0  0  0  0  0  0  0  0
   -0.0900   -1.2560   -0.1478 H   0  0  0  0  0  0  0  0  0  0  0  0
    2.7116   -0.3577   -1.0932 H   0  0  0  0  0  0  0  0  0  0  0  0
    2.7982   -2.5184   -2.3177 H   0  0  0  0  0  0  0  0  0  0  0  0
    1.1729   -3.0139   -1.6400 H   0  0  0  0  0  0  0  0  0  0  0  0
   -0.7253   -1.6136   -3.4515 H   0  0  0  0  0  0  0  0  0  0  0  0
   -0.8216   -0.0701   -2.5566 H   0  0  0  0  0  0  0  0  0  0  0  0
  1  2  1  0
  2  3  1  0
  3  4  1  0
  4  5  1  0
  5  6  1  0
  6  7  1  0
  7  8  2  0
  7  9  1  0
  5  3  1  0
  9  5  1  0
  1 10  1  0
  1 11  1  0
  1 12  1  0
  2 13  1  0
  2 14  1  0
  3 15  1  0
  4 16  1  0
  4 17  1  0
  6 18  1  0
  6 19  1  0
M  END
$$$$
