
     RDKit          3D

 19 21  0  0  0  0  0  0  0  0999 V2000
    1.3616    0.8476    0.1671 O   0  0  0  0  0  0  0  0  0  0  0  0
    0.3121   -0.0518    0.4867 C   0  0  0  0  0  0  0  0  0  0  0  0
   -0.9544    0.6850    0.9085 C   0  0  0  0  0  0  0  0  0  0  0  0
   -1.9868   -0.1906    1.6866 C   0  0  0  0  0  0  0  0  0  0  0  0
   -3.1454    0.7908    2.0281 C   0  0  0  0  0  0  0  0  0  0  0  0
   -2.1385    1.4849    2.9418 C   0  0  0  0  0  0  0  0  0  0  0  0
   -1.2782    0.2347    3.0384 C   0  0  0  0  0  0  0  0  0  0  0  0
   -0.7699    1.4028    2.2451 C   0  0  0  0  0  0  0  0  0  0  0  0
    0.2982    2.2189    2.5958 O   0  0  0  0  0  0  0  0  0  0  0  0
    1.5008    1.3878    0.9552 H   0  0  0  0  0  0  0  0  0  0  0  0
    0.1270   -0.6451   -0.4155 H   0  0  0  0  0  0  0  0  0  0  0  0
    0.6120   -0.7520    1.2845 H   0  0  0  0  0  0  0  0  0  0  0  0
   -1.3476    1.2715    0.0681 H   0  0  0  0  0  0  0  0  0  0  0  0
   -2.1850   -1.2120    1.3677 H   0  0  0  0  0  0  0  0  0  0  0  0
   -3.5899    1.3534    1.1987 H   0  0  0  0  0  0  0  0  0  0  0  0
   -3.9352    0.3014    2.6051 H   0  0  0  0  0  0  0  0  0  0  0  0
   -2.3079    2.2188    3.7203 H   0  0  0  0  0  0  0  0  0  0  0  0
   -0.8811   -0.3036    3.8856 H   0  0  0  0  0  0  0  0  0  0  0  0
    0.0903    3.1226    2.3308 H   0  0  0  0  0  0  0  0  0  0  0  0
  1  2  1  0
  2  3  1  0
  3  4  1  0
  4  5  1  0
  5  6  1  0
  6  7  1  0
  7  8  1  0
  8  9  1  0
  8  3  1  0
  7  4  1  0
  8  6  1  0
  1 10  1  0
  2 11  1  0
  2 12  1  0
  3 13  1  0
  4 14  1  0
  5 15  1  0
  5 16  1  0
  6 17  1  0
  7 18  1  0
  9 19  1  0
M  END
$$$$
