
     RDKit          3D

 19 21  0  0  0  0  0  0  0  0999 V2000
    0.4199    0.3039   -0.3990 C   0  0  0  0  0  0  0  0  0  0  0  0
    1.1228   -0.3593    0.7690 C   0  0  0  0  0  0  0  0  0  0  0  0
    2.5784   -0.4292    0.5633 O   0  0  0  0  0  0  0  0  0  0  0  0
    2.5209   -1.8415    0.2560 C   0  0  0  0  0  0  0  0  0  0  0  0
    2.6835   -2.9318    1.3285 C   0  0  0  0  0  0  0  0  0  0  0  0
    1.7765   -4.0549    0.7114 C   0  0  0  0  0  0  0  0  0  0  0  0
    0.4693   -3.1994    0.4286 C   0  0  0  0  0  0  0  0  0  0  0  0
    1.1079   -1.8857    0.8509 C   0  0  0  0  0  0  0  0  0  0  0  0
    1.7104   -2.2462    2.1511 O   0  0  0  0  0  0  0  0  0  0  0  0
    0.6087   -0.2302   -1.3352 H   0  0  0  0  0  0  0  0  0  0  0  0
   -0.6613    0.3350   -0.2266 H   0  0  0  0  0  0  0  0  0  0  0  0
    0.7810    1.3299   -0.5138 H   0  0  0  0  0  0  0  0  0  0  0  0
    0.8934    0.1319    1.7194 H   0  0  0  0  0  0  0  0  0  0  0  0
    2.7903   -2.0581   -0.7811 H   0  0  0  0  0  0  0  0  0  0  0  0
    3.6012   -3.2289    1.8389 H   0  0  0  0  0  0  0  0  0  0  0  0
    2.1908   -4.5069   -0.1946 H   0  0  0  0  0  0  0  0  0  0  0  0
    1.6029   -4.8408    1.4479 H   0  0  0  0  0  0  0  0  0  0  0  0
    0.1653   -3.2204   -0.6205 H   0  0  0  0  0  0  0  0  0  0  0  0
   -0.3720   -3.5017    1.0546 H   0  0  0  0  0  0  0  0  0  0  0  0
  1  2  1  0
  2  3  1  0
  3  4  1  0
  4  5  1  0
  5  6  1  0
  6  7  1  0
  7  8  1  0
  8  9  1  0
  8  2  1  0
  8  4  1  0
  9  5  1  0
  1 10  1  0
  1 11  1  0
  1 12  1  0
  2 13  1  0
  4 14  1  0
  5 15  1  0
  6 16  1  0
  6 17  1  0
  7 18  1  0
  7 19  1  0
M  END
$$$$
