
     RDKit          3D

 19 21  0  0  0  0  0  0  0  0999 V2000
    1.6698   -1.6666   -1.0338 C   0  0  0  0  0  0  0  0  0  0  0  0
    0.2127   -1.9818   -0.6461 C   0  0  0  0  0  0  0  0  0  0  0  0
   -0.7277   -1.5234   -1.6443 O   0  0  0  0  0  0  0  0  0  0  0  0
   -0.9760   -0.2850   -0.9189 C   0  0  0  0  0  0  0  0  0  0  0  0
   -0.7113    0.9637   -1.7449 C   0  0  0  0  0  0  0  0  0  0  0  0
    0.7450    1.0155   -2.2066 C   0  0  0  0  0  0  0  0  0  0  0  0
    1.6573    0.9101   -1.1201 O   0  0  0  0  0  0  0  0  0  0  0  0
    1.5270   -0.2592   -0.3484 C   0  0  0  0  0  0  0  0  0  0  0  0
    0.0917   -0.6413    0.1299 C   0  0  0  0  0  0  0  0  0  0  0  0
    2.4041   -2.2937   -0.5200 H   0  0  0  0  0  0  0  0  0  0  0  0
    1.8756   -1.6859   -2.1058 H   0  0  0  0  0  0  0  0  0  0  0  0
   -0.0420   -2.9701   -0.2568 H   0  0  0  0  0  0  0  0  0  0  0  0
   -1.9991   -0.2837   -0.5218 H   0  0  0  0  0  0  0  0  0  0  0  0
   -1.3780    0.9855   -2.6149 H   0  0  0  0  0  0  0  0  0  0  0  0
   -0.9398    1.8420   -1.1280 H   0  0  0  0  0  0  0  0  0  0  0  0
    0.9227    0.2179   -2.9408 H   0  0  0  0  0  0  0  0  0  0  0  0
    0.9699    1.9713   -2.6869 H   0  0  0  0  0  0  0  0  0  0  0  0
    2.2299   -0.1312    0.4773 H   0  0  0  0  0  0  0  0  0  0  0  0
   -0.1501   -0.5299    1.1853 H   0  0  0  0  0  0  0  0  0  0  0  0
  1  2  1  0
  2  3  1  0
  3  4  1  0
  4  5  1  0
  5  6  1  0
  6  7  1  0
  7  8  1  0
  8  9  1  0
  8  1  1  0
  9  2  1  0
  9  4  1  0
  1 10  1  0
  1 11  1  0
  2 12  1  0
  4 13  1  0
  5 14  1  0
  5 15  1  0
  6 16  1  0
  6 17  1  0
  8 18  1  0
  9 19  1  0
M  END
$$$$
