gdb 3497	2.6867118	1.3935083	1.127012	2.2044	76.35	-0.24355	-0.01097	0.23257999999999998	1143.4532	0.155951	-422.592088	-422.582785	-422.581841	-422.627246	33.596
 OpenBabel02181911413D

 19 19  0  0  1  0  0  0  0  0999 V2000
    0.7659   -0.6659    1.2262 C   0  0  0  0  0  0  0  0  0  0  0  0
    1.0840    0.1069   -0.0361 C   0  0  0  0  0  0  0  0  0  0  0  0
    2.0218    0.8701   -0.1030 O   0  0  0  0  0  0  0  0  0  0  0  0
    0.1260   -0.0873   -1.2120 C   0  0  2  0  0  0  0  0  0  0  0  0
    0.7114    0.3348   -2.5800 C   0  0  0  0  0  0  0  0  0  0  0  0
   -0.3670    1.1919   -3.1895 C   0  0  0  0  0  0  0  0  0  0  0  0
   -1.3829    1.4166   -2.3589 C   0  0  0  0  0  0  0  0  0  0  0  0
   -1.1671    0.7968   -1.0014 C   0  0  2  0  0  0  0  0  0  0  0  0
   -1.0463    1.7766    0.0289 O   0  0  0  0  0  0  0  0  0  0  0  0
    1.5215   -0.4665    1.9870 H   0  0  0  0  0  0  0  0  0  0  0  0
   -0.2170   -0.3541    1.5958 H   0  0  0  0  0  0  0  0  0  0  0  0
    0.7160   -1.7409    1.0213 H   0  0  0  0  0  0  0  0  0  0  0  0
   -0.1893   -1.1346   -1.2395 H   0  0  0  0  0  0  0  0  0  0  0  0
    1.6444    0.8945   -2.4474 H   0  0  0  0  0  0  0  0  0  0  0  0
    0.9488   -0.5345   -3.2037 H   0  0  0  0  0  0  0  0  0  0  0  0
   -0.2901    1.5825   -4.1989 H   0  0  0  0  0  0  0  0  0  0  0  0
   -2.2553    2.0267   -2.5640 H   0  0  0  0  0  0  0  0  0  0  0  0
   -2.0092    0.1785   -0.6752 H   0  0  0  0  0  0  0  0  0  0  0  0
   -0.3745    2.4101   -0.2511 H   0  0  0  0  0  0  0  0  0  0  0  0
  1 11  1  0  0  0  0
  1 10  1  0  0  0  0
  2  1  1  0  0  0  0
  3  2  2  0  0  0  0
  4 13  1  6  0  0  0
  4  8  1  0  0  0  0
  4  2  1  0  0  0  0
  5 14  1  0  0  0  0
  5  4  1  0  0  0  0
  6  5  1  0  0  0  0
  6  7  2  0  0  0  0
  7  8  1  0  0  0  0
  8 18  1  1  0  0  0
  8  9  1  0  0  0  0
 12  1  1  0  0  0  0
 15  5  1  0  0  0  0
 16  6  1  0  0  0  0
 17  7  1  0  0  0  0
 19  9  1  0  0  0  0
M TOR 0 0 1 3 4
M TOR 1 0 1 3 7
M TOR 2 0 1 3 12
M TOR 3 1 3 4 5
M TOR 4 1 3 4 13
M TOR 5 1 3 4 14
M TOR 6 1 3 7 6
M TOR 7 1 3 7 8
M TOR 8 1 3 7 17
M TOR 9 2 1 0 9
M TOR 10 2 1 0 10
M TOR 11 2 1 0 11
M TOR 12 2 1 3 4
M TOR 13 2 1 3 7
M TOR 14 2 1 3 12
M TOR 15 3 1 0 9
M TOR 16 3 1 0 10
M TOR 17 3 1 0 11
M TOR 18 3 4 5 6
M TOR 19 3 4 5 15
M TOR 20 3 7 6 5
M TOR 21 3 7 6 16
M TOR 22 3 7 8 18
M TOR 23 4 3 7 6
M TOR 24 4 3 7 8
M TOR 25 4 3 7 17
M TOR 26 4 5 6 7
M TOR 27 4 5 6 16
M TOR 28 5 4 3 7
M TOR 29 5 4 3 12
M TOR 30 5 6 7 8
M TOR 31 5 6 7 17
M TOR 32 6 5 4 13
M TOR 33 6 5 4 14
M TOR 34 6 7 3 12
M TOR 35 6 7 8 18
M TOR 36 7 3 4 13
M TOR 37 7 3 4 14
M TOR 38 7 6 5 15
M TOR 39 8 7 3 12
M TOR 40 8 7 6 16
M  END
$$$$
