gdb 523	2.7863871	1.8717774	1.6648056	1.56	73.23	-0.24025	0.05618	0.29642999999999997	904.7591	0.160387	-422.511478	-422.504902	-422.503958	-422.541972	27.698
 OpenBabel02181911403D

 19 21  0  0  1  0  0  0  0  0999 V2000
   -0.3124    1.2257    0.0188 C   0  0  0  0  0  0  0  0  0  0  0  0
    0.0148   -0.1058   -0.5128 O   0  0  0  0  0  0  0  0  0  0  0  0
    1.3811    0.1152   -0.0832 C   0  0  2  0  0  0  0  0  0  0  0  0
    2.7275   -0.0538   -0.7750 C   0  0  0  0  0  0  0  0  0  0  0  0
    3.4736    1.1422   -0.0204 C   0  0  0  0  0  0  0  0  0  0  0  0
    2.3658    1.8340    0.8741 C   0  0  2  0  0  0  0  0  0  0  0  0
    2.1098    0.9924    1.9942 O   0  0  0  0  0  0  0  0  0  0  0  0
    1.5839   -0.2203    1.4253 C   0  0  0  0  0  0  0  0  0  0  0  0
    1.1862    1.6209   -0.0697 C   0  0  2  0  0  0  0  0  0  0  0  0
   -0.9976    1.7575   -0.6449 H   0  0  0  0  0  0  0  0  0  0  0  0
   -0.7348    1.1650    1.0270 H   0  0  0  0  0  0  0  0  0  0  0  0
    3.2206   -1.0154   -0.6097 H   0  0  0  0  0  0  0  0  0  0  0  0
    2.6643    0.1305   -1.8501 H   0  0  0  0  0  0  0  0  0  0  0  0
    4.2779    0.7826    0.6248 H   0  0  0  0  0  0  0  0  0  0  0  0
    3.9038    1.8470   -0.7366 H   0  0  0  0  0  0  0  0  0  0  0  0
    2.6346    2.8255    1.2385 H   0  0  0  0  0  0  0  0  0  0  0  0
    2.2935   -1.0445    1.5698 H   0  0  0  0  0  0  0  0  0  0  0  0
    0.6430   -0.4805    1.9187 H   0  0  0  0  0  0  0  0  0  0  0  0
    1.3816    2.0505   -1.0550 H   0  0  0  0  0  0  0  0  0  0  0  0
  1 11  1  0  0  0  0
  2  1  1  0  0  0  0
  3  2  1  6  0  0  0
  3  9  1  0  0  0  0
  3  8  1  0  0  0  0
  4 12  1  0  0  0  0
  4  3  1  0  0  0  0
  4  5  1  0  0  0  0
  5 14  1  0  0  0  0
  5  6  1  0  0  0  0
  6 16  1  1  0  0  0
  6  7  1  0  0  0  0
  8 17  1  0  0  0  0
  8 18  1  0  0  0  0
  8  7  1  0  0  0  0
  9 19  1  6  0  0  0
  9  1  1  0  0  0  0
  9  6  1  0  0  0  0
 10  1  1  0  0  0  0
 13  4  1  0  0  0  0
 15  5  1  0  0  0  0
M TOR 0 0 1 2 3
M TOR 1 0 1 2 7
M TOR 2 0 1 2 8
M TOR 3 0 8 2 3
M TOR 4 0 8 2 7
M TOR 5 0 8 5 4
M TOR 6 0 8 5 6
M TOR 7 0 8 5 15
M TOR 8 1 0 8 5
M TOR 9 1 0 8 18
M TOR 10 1 2 3 4
M TOR 11 1 2 3 11
M TOR 12 1 2 3 12
M TOR 13 1 2 7 6
M TOR 14 1 2 7 16
M TOR 15 1 2 7 17
M TOR 16 1 2 8 5
M TOR 17 1 2 8 18
M TOR 18 2 1 0 9
M TOR 19 2 1 0 10
M TOR 20 2 3 4 5
M TOR 21 2 3 4 13
M TOR 22 2 3 4 14
M TOR 23 2 7 6 5
M TOR 24 2 8 0 9
M TOR 25 2 8 0 10
M TOR 26 2 8 5 4
M TOR 27 2 8 5 6
M TOR 28 2 8 5 15
M TOR 29 3 2 7 6
M TOR 30 3 2 7 16
M TOR 31 3 2 7 17
M TOR 32 3 2 8 5
M TOR 33 3 2 8 18
M TOR 34 3 4 5 6
M TOR 35 3 4 5 8
M TOR 36 3 4 5 15
M TOR 37 4 3 2 7
M TOR 38 4 3 2 8
M TOR 39 4 5 6 7
M TOR 40 4 5 8 18
M TOR 41 5 4 3 11
M TOR 42 5 4 3 12
M TOR 43 5 6 7 16
M TOR 44 5 6 7 17
M TOR 45 5 8 0 9
M TOR 46 5 8 0 10
M TOR 47 5 8 2 7
M TOR 48 6 5 4 13
M TOR 49 6 5 4 14
M TOR 50 6 5 8 18
M TOR 51 6 7 2 8
M TOR 52 7 2 3 11
M TOR 53 7 2 3 12
M TOR 54 7 2 8 18
M TOR 55 7 6 5 8
M TOR 56 7 6 5 15
M TOR 57 8 2 3 11
M TOR 58 8 2 3 12
M TOR 59 8 2 7 16
M TOR 60 8 2 7 17
M TOR 61 8 5 4 13
M TOR 62 8 5 4 14
M  END
$$$$
