
     RDKit          3D

 19 21  0  0  0  0  0  0  0  0999 V2000
   -0.3103    1.3834   -0.0891 C   0  0  0  0  0  0  0  0  0  0  0  0
   -0.0770   -0.0112    0.3303 O   0  0  0  0  0  0  0  0  0  0  0  0
    1.2948    0.1205   -0.1503 C   0  0  0  0  0  0  0  0  0  0  0  0
    1.4286   -0.2323   -1.6558 C   0  0  0  0  0  0  0  0  0  0  0  0
    2.8516    0.2888   -2.0062 C   0  0  0  0  0  0  0  0  0  0  0  0
    3.2249    0.9639   -0.6836 C   0  0  0  0  0  0  0  0  0  0  0  0
    2.7225   -0.1124    0.3686 C   0  0  0  0  0  0  0  0  0  0  0  0
    2.3372    2.1434   -0.5806 O   0  0  0  0  0  0  0  0  0  0  0  0
    1.2210    1.5935    0.1001 C   0  0  0  0  0  0  0  0  0  0  0  0
   -0.7006    1.4373   -1.1093 H   0  0  0  0  0  0  0  0  0  0  0  0
   -0.9718    1.9049    0.6054 H   0  0  0  0  0  0  0  0  0  0  0  0
    1.3314   -1.3149   -1.7761 H   0  0  0  0  0  0  0  0  0  0  0  0
    0.6513    0.2329   -2.2635 H   0  0  0  0  0  0  0  0  0  0  0  0
    3.5444   -0.5217   -2.2524 H   0  0  0  0  0  0  0  0  0  0  0  0
    2.8561    1.0088   -2.8266 H   0  0  0  0  0  0  0  0  0  0  0  0
    4.2527    1.3071   -0.5728 H   0  0  0  0  0  0  0  0  0  0  0  0
    3.1835   -1.0827    0.1678 H   0  0  0  0  0  0  0  0  0  0  0  0
    2.8736    0.1703    1.4108 H   0  0  0  0  0  0  0  0  0  0  0  0
    1.3285    1.7944    1.1748 H   0  0  0  0  0  0  0  0  0  0  0  0
  1  2  1  0
  2  3  1  0
  3  4  1  0
  4  5  1  0
  5  6  1  0
  6  7  1  0
  6  8  1  0
  8  9  1  0
  9  1  1  0
  7  3  1  0
  9  3  1  0
  1 10  1  0
  1 11  1  0
  4 12  1  0
  4 13  1  0
  5 14  1  0
  5 15  1  0
  6 16  1  0
  7 17  1  0
  7 18  1  0
  9 19  1  0
M  END
$$$$
