
     RDKit          3D

 19 20  0  0  0  0  0  0  0  0999 V2000
   -3.1338   -1.7556   -0.9890 O   0  0  0  0  0  0  0  0  0  0  0  0
   -2.4015   -1.0862    0.0317 C   0  0  0  0  0  0  0  0  0  0  0  0
   -0.8723   -1.2832   -0.1363 C   0  0  0  0  0  0  0  0  0  0  0  0
   -0.0353   -0.0187    0.0997 C   0  0  0  0  0  0  0  0  0  0  0  0
    1.1420   -0.0652    0.3636 O   0  0  0  0  0  0  0  0  0  0  0  0
   -0.8202    1.2680   -0.0269 C   0  0  0  0  0  0  0  0  0  0  0  0
   -1.9811    1.1887    1.0201 C   0  0  0  0  0  0  0  0  0  0  0  0
   -2.7755    0.3945   -0.0477 C   0  0  0  0  0  0  0  0  0  0  0  0
   -1.9229    1.1231   -1.1213 C   0  0  0  0  0  0  0  0  0  0  0  0
   -2.9122   -2.6916   -0.9537 H   0  0  0  0  0  0  0  0  0  0  0  0
   -2.7095   -1.4627    1.0200 H   0  0  0  0  0  0  0  0  0  0  0  0
   -0.4712   -2.0928    0.4788 H   0  0  0  0  0  0  0  0  0  0  0  0
   -0.6962   -1.5635   -1.1831 H   0  0  0  0  0  0  0  0  0  0  0  0
   -0.1542    2.1307   -0.0226 H   0  0  0  0  0  0  0  0  0  0  0  0
   -1.7758    0.7107    1.9833 H   0  0  0  0  0  0  0  0  0  0  0  0
   -2.4115    2.1770    1.1959 H   0  0  0  0  0  0  0  0  0  0  0  0
   -3.8611    0.5005   -0.0805 H   0  0  0  0  0  0  0  0  0  0  0  0
   -1.6824    0.5864   -2.0418 H   0  0  0  0  0  0  0  0  0  0  0  0
   -2.3431    2.0993   -1.3741 H   0  0  0  0  0  0  0  0  0  0  0  0
  1  2  1  0
  2  3  1  0
  3  4  1  0
  4  5  2  0
  4  6  1  0
  6  7  1  0
  7  8  1  0
  8  9  1  0
  8  2  1  0
  9  6  1  0
  1 10  1  0
  2 11  1  0
  3 12  1  0
  3 13  1  0
  6 14  1  0
  7 15  1  0
  7 16  1  0
  8 17  1  0
  9 18  1  0
  9 19  1  0
M  END
$$$$
