
     RDKit          3D

 19 20  0  0  0  0  0  0  0  0999 V2000
   -0.6661    2.4804    0.3848 C   0  0  0  0  0  0  0  0  0  0  0  0
   -0.9643    1.0470    0.0320 C   0  0  0  0  0  0  0  0  0  0  0  0
   -1.7293    0.0358    0.9676 C   0  0  0  0  0  0  0  0  0  0  0  0
   -1.0655   -1.0712    0.0884 C   0  0  0  0  0  0  0  0  0  0  0  0
   -1.7243   -0.8086   -1.2847 C   0  0  0  0  0  0  0  0  0  0  0  0
   -1.6450    0.7573   -1.3359 C   0  0  0  0  0  0  0  0  0  0  0  0
   -2.8817    1.4137   -1.5252 O   0  0  0  0  0  0  0  0  0  0  0  0
    0.1026   -0.0698    0.0244 C   0  0  0  0  0  0  0  0  0  0  0  0
    1.2946   -0.1109    0.1021 O   0  0  0  0  0  0  0  0  0  0  0  0
   -0.2623    2.5698    1.3976 H   0  0  0  0  0  0  0  0  0  0  0  0
    0.0747    2.8959   -0.3067 H   0  0  0  0  0  0  0  0  0  0  0  0
   -1.5696    3.0935    0.3124 H   0  0  0  0  0  0  0  0  0  0  0  0
   -1.3668    0.0563    1.9967 H   0  0  0  0  0  0  0  0  0  0  0  0
   -2.8233    0.0726    0.9580 H   0  0  0  0  0  0  0  0  0  0  0  0
   -0.9442   -2.0992    0.4229 H   0  0  0  0  0  0  0  0  0  0  0  0
   -1.1986   -1.2890   -2.1136 H   0  0  0  0  0  0  0  0  0  0  0  0
   -2.7677   -1.1400   -1.3085 H   0  0  0  0  0  0  0  0  0  0  0  0
   -1.0189    1.1103   -2.1600 H   0  0  0  0  0  0  0  0  0  0  0  0
   -3.4954    1.1134   -0.8464 H   0  0  0  0  0  0  0  0  0  0  0  0
  1  2  1  0
  2  3  1  0
  3  4  1  0
  4  5  1  0
  5  6  1  0
  6  7  1  0
  4  8  1  0
  8  9  2  0
  6  2  1  0
  8  2  1  0
  1 10  1  0
  1 11  1  0
  1 12  1  0
  3 13  1  0
  3 14  1  0
  4 15  1  0
  5 16  1  0
  5 17  1  0
  6 18  1  0
  7 19  1  0
M  END
$$$$
