
     RDKit          3D

 19 21  0  0  0  0  0  0  0  0999 V2000
   -0.0689    0.0215    0.3265 C   0  0  0  0  0  0  0  0  0  0  0  0
    1.4037   -0.0636    0.0168 C   0  0  0  0  0  0  0  0  0  0  0  0
    2.1168   -1.2119    0.5071 O   0  0  0  0  0  0  0  0  0  0  0  0
    1.9862   -1.0378   -0.9130 C   0  0  0  0  0  0  0  0  0  0  0  0
    1.2181   -2.0886   -1.7176 C   0  0  0  0  0  0  0  0  0  0  0  0
    2.3068   -2.8823   -2.4887 C   0  0  0  0  0  0  0  0  0  0  0  0
    3.4714   -1.9152   -2.5944 C   0  0  0  0  0  0  0  0  0  0  0  0
    3.0889   -0.6100   -3.0511 O   0  0  0  0  0  0  0  0  0  0  0  0
    3.2812   -0.8134   -1.6423 C   0  0  0  0  0  0  0  0  0  0  0  0
   -0.2219    0.2986    1.3747 H   0  0  0  0  0  0  0  0  0  0  0  0
   -0.5423    0.7889   -0.2954 H   0  0  0  0  0  0  0  0  0  0  0  0
   -0.5716   -0.9312    0.1475 H   0  0  0  0  0  0  0  0  0  0  0  0
    1.9505    0.8722    0.1557 H   0  0  0  0  0  0  0  0  0  0  0  0
    0.6227   -2.7262   -1.0627 H   0  0  0  0  0  0  0  0  0  0  0  0
    0.5429   -1.5930   -2.4200 H   0  0  0  0  0  0  0  0  0  0  0  0
    2.6298   -3.7630   -1.9218 H   0  0  0  0  0  0  0  0  0  0  0  0
    1.9592   -3.2272   -3.4668 H   0  0  0  0  0  0  0  0  0  0  0  0
    4.4548   -2.2508   -2.9130 H   0  0  0  0  0  0  0  0  0  0  0  0
    4.0889   -0.2595   -1.1722 H   0  0  0  0  0  0  0  0  0  0  0  0
  1  2  1  0
  2  3  1  0
  3  4  1  0
  4  5  1  0
  5  6  1  0
  6  7  1  0
  7  8  1  0
  8  9  1  0
  4  2  1  0
  9  4  1  0
  9  7  1  0
  1 10  1  0
  1 11  1  0
  1 12  1  0
  2 13  1  0
  5 14  1  0
  5 15  1  0
  6 16  1  0
  6 17  1  0
  7 18  1  0
  9 19  1  0
M  END
$$$$
