gdb 5038	2.5282425	1.484069	1.1972531	1.9685	75.12	-0.23193	-0.00164	0.23029	1098.5217	0.157855	-422.566432	-422.558032	-422.557088	-422.599523	31.689
 OpenBabel02181911413D

 19 20  0  0  1  0  0  0  0  0999 V2000
    0.2493   -0.1806   -0.7727 O   0  0  0  0  0  0  0  0  0  0  0  0
    0.5521   -0.5454    0.5689 C   0  0  0  0  0  0  0  0  0  0  0  0
   -0.1753    0.3958    1.4867 C   0  0  1  0  0  0  0  0  0  0  0  0
    0.1951    1.9134    1.6513 C   0  0  0  0  0  0  0  0  0  0  0  0
   -0.5551    1.8001    3.0217 C   0  0  1  0  0  0  0  0  0  0  0  0
   -2.0009    1.5180    2.5549 C   0  0  0  0  0  0  0  0  0  0  0  0
   -1.7195    0.4748    1.4150 C   0  0  0  0  0  0  0  0  0  0  0  0
    0.0309    0.3777    3.0159 C   0  0  0  0  0  0  0  0  0  0  0  0
    0.5792   -0.3455    3.7952 O   0  0  0  0  0  0  0  0  0  0  0  0
    0.7081   -0.7893   -1.3593 H   0  0  0  0  0  0  0  0  0  0  0  0
    0.2333   -1.5775    0.7862 H   0  0  0  0  0  0  0  0  0  0  0  0
    1.6343   -0.4920    0.7644 H   0  0  0  0  0  0  0  0  0  0  0  0
    1.2687    2.0836    1.7539 H   0  0  0  0  0  0  0  0  0  0  0  0
   -0.2398    2.5948    0.9170 H   0  0  0  0  0  0  0  0  0  0  0  0
   -0.3956    2.4937    3.8444 H   0  0  0  0  0  0  0  0  0  0  0  0
   -2.6250    1.1120    3.3552 H   0  0  0  0  0  0  0  0  0  0  0  0
   -2.4830    2.4239    2.1779 H   0  0  0  0  0  0  0  0  0  0  0  0
   -2.1879   -0.4951    1.6063 H   0  0  0  0  0  0  0  0  0  0  0  0
   -2.0461    0.8197    0.4321 H   0  0  0  0  0  0  0  0  0  0  0  0
  1  2  1  0  0  0  0
  2 12  1  0  0  0  0
  2 11  1  0  0  0  0
  3  2  1  6  0  0  0
  3  4  1  0  0  0  0
  3  8  1  0  0  0  0
  4 13  1  0  0  0  0
  4  5  1  0  0  0  0
  5 15  1  1  0  0  0
  6  5  1  0  0  0  0
  6 16  1  0  0  0  0
  7  3  1  0  0  0  0
  7 18  1  0  0  0  0
  7  6  1  0  0  0  0
  8  5  1  0  0  0  0
  8  9  2  0  0  0  0
 10  1  1  0  0  0  0
 14  4  1  0  0  0  0
 17  6  1  0  0  0  0
 19  7  1  0  0  0  0
M TOR 0 0 1 2 3
M TOR 1 0 1 2 6
M TOR 2 0 1 2 7
M TOR 3 1 2 3 4
M TOR 4 1 2 3 12
M TOR 5 1 2 3 13
M TOR 6 1 2 6 5
M TOR 7 1 2 6 17
M TOR 8 1 2 6 18
M TOR 9 1 2 7 4
M TOR 10 1 2 7 8
M TOR 11 2 1 0 9
M TOR 12 2 3 4 5
M TOR 13 2 3 4 7
M TOR 14 2 3 4 14
M TOR 15 2 6 5 4
M TOR 16 2 6 5 15
M TOR 17 2 6 5 16
M TOR 18 2 7 4 5
M TOR 19 2 7 4 14
M TOR 20 3 2 1 10
M TOR 21 3 2 1 11
M TOR 22 3 2 6 5
M TOR 23 3 2 6 17
M TOR 24 3 2 6 18
M TOR 25 3 2 7 8
M TOR 26 3 4 5 6
M TOR 27 3 4 5 15
M TOR 28 3 4 5 16
M TOR 29 3 4 7 8
M TOR 30 4 3 2 6
M TOR 31 4 5 6 17
M TOR 32 4 5 6 18
M TOR 33 4 7 2 6
M TOR 34 5 4 3 12
M TOR 35 5 4 3 13
M TOR 36 5 4 7 8
M TOR 37 5 6 2 7
M TOR 38 6 2 1 10
M TOR 39 6 2 1 11
M TOR 40 6 2 3 12
M TOR 41 6 2 3 13
M TOR 42 6 2 7 8
M TOR 43 6 5 4 7
M TOR 44 6 5 4 14
M TOR 45 7 2 1 10
M TOR 46 7 2 1 11
M TOR 47 7 2 3 12
M TOR 48 7 2 3 13
M TOR 49 7 2 6 17
M TOR 50 7 2 6 18
M TOR 51 7 4 3 12
M TOR 52 7 4 3 13
M TOR 53 7 4 5 15
M TOR 54 7 4 5 16
M TOR 55 8 7 4 14
M  END
$$$$
