gdb 2210	2.7881903	1.7726426	1.6409982	1.2138	73.76	-0.21632	0.08254	0.29886	937.9486	0.159069	-422.553365	-422.546082	-422.545137	-422.584642	29.264
 OpenBabel02181911413D

 19 21  0  0  1  0  0  0  0  0999 V2000
    0.0587   -0.2504   -0.0778 C   0  0  0  0  0  0  0  0  0  0  0  0
    1.5220    0.0419    0.0550 C   0  0  2  0  0  0  0  0  0  0  0  0
    2.1102   -0.5588    1.1942 O   0  0  0  0  0  0  0  0  0  0  0  0
    3.4310   -0.0085    1.2593 C   0  0  2  0  0  0  0  0  0  0  0  0
    3.2501    1.4862    0.9155 C   0  0  0  0  0  0  0  0  0  0  0  0
    2.2028    1.3863   -0.1814 C   0  0  1  0  0  0  0  0  0  0  0  0
    2.4690    0.2093   -1.1062 C   0  0  1  0  0  0  0  0  0  0  0  0
    3.7344   -0.3975   -1.1182 O   0  0  0  0  0  0  0  0  0  0  0  0
    4.2588   -0.6965    0.1771 C   0  0  0  0  0  0  0  0  0  0  0  0
   -0.4899    0.1164    0.7962 H   0  0  0  0  0  0  0  0  0  0  0  0
   -0.3490    0.2349   -0.9689 H   0  0  0  0  0  0  0  0  0  0  0  0
   -0.1162   -1.3278   -0.1641 H   0  0  0  0  0  0  0  0  0  0  0  0
    3.8348   -0.2059    2.2543 H   0  0  0  0  0  0  0  0  0  0  0  0
    2.8700    2.0493    1.7731 H   0  0  0  0  0  0  0  0  0  0  0  0
    4.1895    1.9407    0.5861 H   0  0  0  0  0  0  0  0  0  0  0  0
    1.6696    2.2661   -0.5236 H   0  0  0  0  0  0  0  0  0  0  0  0
    2.0602    0.2327   -2.1107 H   0  0  0  0  0  0  0  0  0  0  0  0
    4.2338   -1.7820    0.3426 H   0  0  0  0  0  0  0  0  0  0  0  0
    5.3043   -0.3627    0.2020 H   0  0  0  0  0  0  0  0  0  0  0  0
  1 10  1  0  0  0  0
  2  1  1  6  0  0  0
  2  3  1  0  0  0  0
  3  4  1  0  0  0  0
  4 13  1  1  0  0  0
  5  4  1  0  0  0  0
  5 14  1  0  0  0  0
  6 16  1  6  0  0  0
  6  2  1  0  0  0  0
  6  5  1  0  0  0  0
  7 17  1  6  0  0  0
  7  6  1  0  0  0  0
  7  2  1  0  0  0  0
  8  7  1  0  0  0  0
  8  9  1  0  0  0  0
  9 19  1  0  0  0  0
  9 18  1  0  0  0  0
  9  4  1  0  0  0  0
 11  1  1  0  0  0  0
 12  1  1  0  0  0  0
 15  5  1  0  0  0  0
M TOR 0 0 1 2 3
M TOR 1 0 1 5 4
M TOR 2 0 1 5 6
M TOR 3 0 1 5 15
M TOR 4 0 1 6 7
M TOR 5 0 1 6 16
M TOR 6 1 2 3 4
M TOR 7 1 2 3 8
M TOR 8 1 2 3 12
M TOR 9 1 5 4 3
M TOR 10 1 5 4 13
M TOR 11 1 5 4 14
M TOR 12 1 5 6 7
M TOR 13 1 5 6 16
M TOR 14 1 6 5 4
M TOR 15 1 6 5 15
M TOR 16 1 6 7 8
M TOR 17 2 1 0 9
M TOR 18 2 1 0 10
M TOR 19 2 1 0 11
M TOR 20 2 1 5 4
M TOR 21 2 1 5 6
M TOR 22 2 1 5 15
M TOR 23 2 1 6 7
M TOR 24 2 1 6 16
M TOR 25 2 3 4 5
M TOR 26 2 3 4 13
M TOR 27 2 3 4 14
M TOR 28 2 3 8 7
M TOR 29 2 3 8 17
M TOR 30 2 3 8 18
M TOR 31 3 2 1 5
M TOR 32 3 2 1 6
M TOR 33 3 4 5 6
M TOR 34 3 4 5 15
M TOR 35 3 8 7 6
M TOR 36 4 3 8 7
M TOR 37 4 3 8 17
M TOR 38 4 3 8 18
M TOR 39 4 5 6 7
M TOR 40 4 5 6 16
M TOR 41 5 1 0 9
M TOR 42 5 1 0 10
M TOR 43 5 1 0 11
M TOR 44 5 4 3 8
M TOR 45 5 4 3 12
M TOR 46 5 6 7 8
M TOR 47 6 1 0 9
M TOR 48 6 1 0 10
M TOR 49 6 1 0 11
M TOR 50 6 5 4 13
M TOR 51 6 5 4 14
M TOR 52 6 7 8 17
M TOR 53 6 7 8 18
M TOR 54 7 6 5 15
M TOR 55 7 8 3 12
M TOR 56 8 3 4 13
M TOR 57 8 3 4 14
M TOR 58 8 7 6 16
M  END
$$$$
