gdb 4748	2.5865847	1.0567279	0.9063114	3.5	77.67	-0.2426	-0.01845	0.22415000000000002	1361.5769	0.151803	-422.538465	-422.527614	-422.52667	-422.574525	38.367
 OpenBabel02181911413D

 19 18  0  0  1  0  0  0  0  0999 V2000
    2.8799    2.1221    1.4490 C   0  0  0  0  0  0  0  0  0  0  0  0
    3.2313    0.6406    1.3061 C   0  0  0  0  0  0  0  0  0  0  0  0
    2.6849   -0.0150    0.0150 C   0  0  1  0  0  0  0  0  0  0  0  0
    3.1940    0.6561   -1.1461 O   0  0  0  0  0  0  0  0  0  0  0  0
    3.2000   -1.4635   -0.1039 C   0  0  0  0  0  0  0  0  0  0  0  0
    2.6323   -2.2112   -1.2959 C   0  0  0  0  0  0  0  0  0  0  0  0
    2.3970   -3.3922   -1.2931 O   0  0  0  0  0  0  0  0  0  0  0  0
    1.2131    0.0060    0.0070 C   0  0  0  0  0  0  0  0  0  0  0  0
    0.0112    0.0395   -0.0073 C   0  0  0  0  0  0  0  0  0  0  0  0
    3.2901    2.5252    2.3790 H   0  0  0  0  0  0  0  0  0  0  0  0
    3.3002    2.7082    0.6254 H   0  0  0  0  0  0  0  0  0  0  0  0
    1.7964    2.2750    1.4650 H   0  0  0  0  0  0  0  0  0  0  0  0
    4.3200    0.5155    1.2908 H   0  0  0  0  0  0  0  0  0  0  0  0
    2.8506    0.0783    2.1659 H   0  0  0  0  0  0  0  0  0  0  0  0
    2.6727    1.4540   -1.2824 H   0  0  0  0  0  0  0  0  0  0  0  0
    4.2889   -1.4054   -0.2369 H   0  0  0  0  0  0  0  0  0  0  0  0
    2.9967   -2.0353    0.8042 H   0  0  0  0  0  0  0  0  0  0  0  0
    2.4680   -1.5862   -2.1979 H   0  0  0  0  0  0  0  0  0  0  0  0
   -1.0512    0.0560   -0.0249 H   0  0  0  0  0  0  0  0  0  0  0  0
  1 12  1  0  0  0  0
  1 10  1  0  0  0  0
  2  1  1  0  0  0  0
  2 14  1  0  0  0  0
  3  8  1  6  0  0  0
  3  2  1  0  0  0  0
  4  3  1  0  0  0  0
  5  3  1  0  0  0  0
  5 17  1  0  0  0  0
  6  7  2  0  0  0  0
  6  5  1  0  0  0  0
  9  8  3  0  0  0  0
 11  1  1  0  0  0  0
 13  2  1  0  0  0  0
 15  4  1  0  0  0  0
 16  5  1  0  0  0  0
 18  6  1  0  0  0  0
 19  9  1  0  0  0  0
M TOR 0 0 1 2 3
M TOR 1 0 1 2 4
M TOR 2 0 1 2 7
M TOR 3 1 2 3 14
M TOR 4 1 2 4 5
M TOR 5 1 2 4 15
M TOR 6 1 2 4 16
M TOR 7 1 2 7 8
M TOR 8 2 1 0 9
M TOR 9 2 1 0 10
M TOR 10 2 1 0 11
M TOR 11 2 4 5 6
M TOR 12 2 4 5 17
M TOR 13 2 7 8 18
M TOR 14 3 2 1 12
M TOR 15 3 2 1 13
M TOR 16 3 2 4 5
M TOR 17 3 2 4 15
M TOR 18 3 2 4 16
M TOR 19 3 2 7 8
M TOR 20 4 2 1 12
M TOR 21 4 2 1 13
M TOR 22 4 2 3 14
M TOR 23 4 2 7 8
M TOR 24 5 4 2 7
M TOR 25 6 5 4 15
M TOR 26 6 5 4 16
M TOR 27 7 2 1 12
M TOR 28 7 2 1 13
M TOR 29 7 2 3 14
M TOR 30 7 2 4 15
M TOR 31 7 2 4 16
M  END
$$$$
