gdb 107	4.1304476	0.9611956	0.8555348	3.1576	75.17	-0.24828	0.08925	0.33753	1361.1465	0.156439	-422.488999	-422.480763	-422.479818	-422.522562	30.657
 OpenBabel02181911403D

 19 21  0  0  1  0  0  0  0  0999 V2000
    0.5104   -2.3931    0.1591 C   0  0  0  0  0  0  0  0  0  0  0  0
   -0.2382   -2.9081    1.3656 C   0  0  2  0  0  0  0  0  0  0  0  0
   -1.5141   -3.6249    1.2533 C   0  0  0  0  0  0  0  0  0  0  0  0
   -1.4785   -2.2591    1.6728 O   0  0  0  0  0  0  0  0  0  0  0  0
    1.2015   -1.0553    0.4227 C   0  0  1  0  0  0  0  0  0  0  0  0
    1.8292   -0.3863   -0.8558 C   0  0  0  0  0  0  0  0  0  0  0  0
    0.8426    0.7754   -0.6754 C   0  0  2  0  0  0  0  0  0  0  0  0
    1.0698    1.3254    0.6267 O   0  0  0  0  0  0  0  0  0  0  0  0
    0.2511    0.1560    0.5228 C   0  0  2  0  0  0  0  0  0  0  0  0
    1.2591   -3.1387   -0.1403 H   0  0  0  0  0  0  0  0  0  0  0  0
   -0.1926   -2.2908   -0.6773 H   0  0  0  0  0  0  0  0  0  0  0  0
    0.3760   -3.1080    2.2461 H   0  0  0  0  0  0  0  0  0  0  0  0
   -1.9439   -3.7997    0.2677 H   0  0  0  0  0  0  0  0  0  0  0  0
   -1.8062   -4.3414    2.0196 H   0  0  0  0  0  0  0  0  0  0  0  0
    1.8814   -1.1346    1.2774 H   0  0  0  0  0  0  0  0  0  0  0  0
    2.8860   -0.1128   -0.8092 H   0  0  0  0  0  0  0  0  0  0  0  0
    1.6427   -0.9753   -1.7585 H   0  0  0  0  0  0  0  0  0  0  0  0
    0.4142    1.4344   -1.4216 H   0  0  0  0  0  0  0  0  0  0  0  0
   -0.7484    0.1972    0.9365 H   0  0  0  0  0  0  0  0  0  0  0  0
  1  5  1  0  0  0  0
  1  2  1  0  0  0  0
  2  4  1  0  0  0  0
  2 12  1  1  0  0  0
  3  2  1  0  0  0  0
  3  4  1  0  0  0  0
  3 14  1  0  0  0  0
  5  9  1  0  0  0  0
  5 15  1  1  0  0  0
  6 16  1  0  0  0  0
  6  7  1  0  0  0  0
  6  5  1  0  0  0  0
  7 18  1  6  0  0  0
  7  9  1  0  0  0  0
  7  8  1  0  0  0  0
  9  8  1  0  0  0  0
  9 19  1  1  0  0  0
 10  1  1  0  0  0  0
 11  1  1  0  0  0  0
 13  3  1  0  0  0  0
 17  6  1  0  0  0  0
M TOR 0 0 1 2 3
M TOR 1 0 1 2 12
M TOR 2 0 1 2 13
M TOR 3 0 4 5 6
M TOR 4 0 4 5 15
M TOR 5 0 4 5 16
M TOR 6 0 4 8 6
M TOR 7 0 4 8 7
M TOR 8 0 4 8 18
M TOR 9 1 0 4 5
M TOR 10 1 0 4 8
M TOR 11 1 0 4 14
M TOR 12 1 3 2 12
M TOR 13 1 3 2 13
M TOR 14 2 1 0 4
M TOR 15 2 1 0 9
M TOR 16 2 1 0 10
M TOR 17 2 3 1 11
M TOR 18 3 1 0 4
M TOR 19 3 1 0 9
M TOR 20 3 1 0 10
M TOR 21 4 0 1 11
M TOR 22 4 5 6 7
M TOR 23 4 5 6 8
M TOR 24 4 5 6 17
M TOR 25 4 8 6 7
M TOR 26 4 8 6 17
M TOR 27 5 4 0 9
M TOR 28 5 4 0 10
M TOR 29 5 4 8 7
M TOR 30 5 4 8 18
M TOR 31 5 6 7 8
M TOR 32 5 6 8 18
M TOR 33 6 5 4 14
M TOR 34 6 7 8 18
M TOR 35 6 8 4 14
M TOR 36 7 6 5 15
M TOR 37 7 6 5 16
M TOR 38 7 8 4 14
M TOR 39 7 8 6 17
M TOR 40 8 4 0 9
M TOR 41 8 4 0 10
M TOR 42 8 4 5 15
M TOR 43 8 4 5 16
M TOR 44 8 6 5 15
M TOR 45 8 6 5 16
M  END
$$$$
