gdb 3434	2.576704	1.5548856	1.1191838	2.6499	76.5	-0.24029	-0.00088	0.23941	1132.2982	0.155564	-422.558773	-422.549797	-422.548853	-422.591909	33.981
 OpenBabel02181911413D

 19 20  0  0  1  0  0  0  0  0999 V2000
    1.2973    0.6836    0.2394 C   0  0  0  0  0  0  0  0  0  0  0  0
   -0.0430    0.0196    0.2294 C   0  0  0  0  0  0  0  0  0  0  0  0
   -0.3177   -1.2816    0.3602 C   0  0  0  0  0  0  0  0  0  0  0  0
   -1.8092   -1.5795    0.3686 C   0  0  1  0  0  0  0  0  0  0  0  0
   -2.2404   -2.2088    1.5656 O   0  0  0  0  0  0  0  0  0  0  0  0
   -2.4203   -0.1864    0.1865 C   0  0  1  0  0  0  0  0  0  0  0  0
   -2.1501    0.6590    1.3169 O   0  0  0  0  0  0  0  0  0  0  0  0
   -1.3370    0.7971    0.1102 C   0  0  1  0  0  0  0  0  0  0  0  0
   -1.4136    2.1283   -0.5814 C   0  0  0  0  0  0  0  0  0  0  0  0
    1.3784    1.3994    1.0670 H   0  0  0  0  0  0  0  0  0  0  0  0
    2.1011   -0.0493    0.3438 H   0  0  0  0  0  0  0  0  0  0  0  0
    1.4732    1.2506   -0.6830 H   0  0  0  0  0  0  0  0  0  0  0  0
    0.4118   -2.0641    0.5401 H   0  0  0  0  0  0  0  0  0  0  0  0
   -2.1044   -2.2529   -0.4441 H   0  0  0  0  0  0  0  0  0  0  0  0
   -2.1284   -1.5420    2.2564 H   0  0  0  0  0  0  0  0  0  0  0  0
   -3.3951   -0.0544   -0.2754 H   0  0  0  0  0  0  0  0  0  0  0  0
   -1.0715    2.0466   -1.6187 H   0  0  0  0  0  0  0  0  0  0  0  0
   -2.4410    2.4990   -0.5792 H   0  0  0  0  0  0  0  0  0  0  0  0
   -0.7834    2.8690   -0.0779 H   0  0  0  0  0  0  0  0  0  0  0  0
  1 11  1  0  0  0  0
  1 10  1  0  0  0  0
  2  1  1  0  0  0  0
  2  3  2  0  0  0  0
  3  4  1  0  0  0  0
  3 13  1  0  0  0  0
  4 14  1  6  0  0  0
  4  5  1  0  0  0  0
  5 15  1  0  0  0  0
  6 16  1  6  0  0  0
  6  4  1  0  0  0  0
  6  7  1  0  0  0  0
  8  9  1  6  0  0  0
  8  6  1  0  0  0  0
  8  2  1  0  0  0  0
  8  7  1  0  0  0  0
  9 18  1  0  0  0  0
  9 19  1  0  0  0  0
 12  1  1  0  0  0  0
 17  9  1  0  0  0  0
M TOR 0 0 1 2 3
M TOR 1 0 1 2 12
M TOR 2 0 1 7 5
M TOR 3 0 1 7 6
M TOR 4 0 1 7 8
M TOR 5 1 2 3 4
M TOR 6 1 2 3 5
M TOR 7 1 2 3 13
M TOR 8 1 7 5 3
M TOR 9 1 7 5 6
M TOR 10 1 7 5 15
M TOR 11 1 7 8 16
M TOR 12 1 7 8 17
M TOR 13 1 7 8 18
M TOR 14 2 1 0 9
M TOR 15 2 1 0 10
M TOR 16 2 1 0 11
M TOR 17 2 1 7 5
M TOR 18 2 1 7 6
M TOR 19 2 1 7 8
M TOR 20 2 3 4 14
M TOR 21 2 3 5 6
M TOR 22 2 3 5 7
M TOR 23 2 3 5 15
M TOR 24 3 2 1 7
M TOR 25 3 5 6 7
M TOR 26 3 5 7 8
M TOR 27 4 3 2 12
M TOR 28 4 3 5 6
M TOR 29 4 3 5 7
M TOR 30 4 3 5 15
M TOR 31 5 3 2 12
M TOR 32 5 3 4 14
M TOR 33 5 6 7 8
M TOR 34 5 7 8 16
M TOR 35 5 7 8 17
M TOR 36 5 7 8 18
M TOR 37 6 5 3 13
M TOR 38 6 7 5 15
M TOR 39 6 7 8 16
M TOR 40 6 7 8 17
M TOR 41 6 7 8 18
M TOR 42 7 1 0 9
M TOR 43 7 1 0 10
M TOR 44 7 1 0 11
M TOR 45 7 1 2 12
M TOR 46 7 5 3 13
M TOR 47 8 7 5 15
M  END
$$$$
