
     RDKit          3D

 19 20  0  0  0  0  0  0  0  0999 V2000
    0.0296    0.0134    0.0331 C   0  0  0  0  0  0  0  0  0  0  0  0
    1.5584   -0.0434    0.0576 C   0  0  0  0  0  0  0  0  0  0  0  0
    2.1188    1.2751    0.0374 O   0  0  0  0  0  0  0  0  0  0  0  0
    2.0666   -0.8235    1.2646 C   0  0  0  0  0  0  0  0  0  0  0  0
    2.8054   -1.9148    1.0722 C   0  0  0  0  0  0  0  0  0  0  0  0
    3.0641   -2.2883   -0.3718 C   0  0  0  0  0  0  0  0  0  0  0  0
    3.6047   -1.0434   -1.1221 C   0  0  0  0  0  0  0  0  0  0  0  0
    2.0984   -0.7343   -1.2147 C   0  0  0  0  0  0  0  0  0  0  0  0
    1.8067   -2.1543   -1.1122 O   0  0  0  0  0  0  0  0  0  0  0  0
   -0.3627    0.4230    0.9719 H   0  0  0  0  0  0  0  0  0  0  0  0
   -0.3093    0.6514   -0.7896 H   0  0  0  0  0  0  0  0  0  0  0  0
   -0.3820   -0.9903   -0.0981 H   0  0  0  0  0  0  0  0  0  0  0  0
    1.7128    1.7832    0.7477 H   0  0  0  0  0  0  0  0  0  0  0  0
    1.8071   -0.4518    2.2534 H   0  0  0  0  0  0  0  0  0  0  0  0
    3.2230   -2.5035    1.8823 H   0  0  0  0  0  0  0  0  0  0  0  0
    3.5295   -3.2649   -0.5163 H   0  0  0  0  0  0  0  0  0  0  0  0
    4.2494   -0.3507   -0.5829 H   0  0  0  0  0  0  0  0  0  0  0  0
    4.0179   -1.2967   -2.0999 H   0  0  0  0  0  0  0  0  0  0  0  0
    1.6947   -0.2780   -2.1224 H   0  0  0  0  0  0  0  0  0  0  0  0
  1  2  1  0
  2  3  1  0
  2  4  1  0
  4  5  2  0
  5  6  1  0
  6  7  1  0
  7  8  1  0
  8  9  1  0
  8  2  1  0
  9  6  1  0
  1 10  1  0
  1 11  1  0
  1 12  1  0
  3 13  1  0
  4 14  1  0
  5 15  1  0
  6 16  1  0
  7 17  1  0
  7 18  1  0
  8 19  1  0
M  END
$$$$
