gdb 5668	2.2611687	1.2772974	0.8676226	3.3235	79.96	-0.23251	-0.04032	0.19219	1339.9037	0.156242	-422.600882	-422.591504	-422.59056	-422.635681	33.756
 OpenBabel02181911423D

 19 19  0  0  1  0  0  0  0  0999 V2000
    1.3962    0.7683    0.1230 C   0  0  0  0  0  0  0  0  0  0  0  0
    0.0483    0.1302    0.1857 C   0  0  0  0  0  0  0  0  0  0  0  0
   -0.2277   -1.1850    0.1953 C   0  0  0  0  0  0  0  0  0  0  0  0
   -1.6797   -1.4211    0.2588 C   0  0  0  0  0  0  0  0  0  0  0  0
   -2.2602   -2.4847    0.2767 O   0  0  0  0  0  0  0  0  0  0  0  0
   -2.3671   -0.0401    0.2705 C   0  0  2  0  0  0  0  0  0  0  0  0
   -3.3318    0.0839   -0.9172 C   0  0  0  0  0  0  0  0  0  0  0  0
   -3.9824    1.3433   -0.9715 O   0  0  0  0  0  0  0  0  0  0  0  0
   -1.2082    0.9731    0.2484 C   0  0  0  0  0  0  0  0  0  0  0  0
    1.5577    1.4169    0.9932 H   0  0  0  0  0  0  0  0  0  0  0  0
    2.2001    0.0296    0.0870 H   0  0  0  0  0  0  0  0  0  0  0  0
    1.4762    1.4142   -0.7604 H   0  0  0  0  0  0  0  0  0  0  0  0
    0.4923   -1.9934    0.1600 H   0  0  0  0  0  0  0  0  0  0  0  0
   -2.9523    0.0353    1.1955 H   0  0  0  0  0  0  0  0  0  0  0  0
   -2.7725    0.0015   -1.8563 H   0  0  0  0  0  0  0  0  0  0  0  0
   -4.0450   -0.7504   -0.8848 H   0  0  0  0  0  0  0  0  0  0  0  0
   -4.5801    1.3989   -0.2189 H   0  0  0  0  0  0  0  0  0  0  0  0
   -1.2748    1.6535   -0.6096 H   0  0  0  0  0  0  0  0  0  0  0  0
   -1.1917    1.6181    1.1359 H   0  0  0  0  0  0  0  0  0  0  0  0
  1  2  1  0  0  0  0
  1 10  1  0  0  0  0
  2  3  2  0  0  0  0
  2  9  1  0  0  0  0
  3  4  1  0  0  0  0
  4  6  1  0  0  0  0
  4  5  2  0  0  0  0
  6 14  1  1  0  0  0
  7 16  1  0  0  0  0
  7  6  1  0  0  0  0
  8  7  1  0  0  0  0
  8 17  1  0  0  0  0
  9  6  1  0  0  0  0
  9 19  1  0  0  0  0
 11  1  1  0  0  0  0
 12  1  1  0  0  0  0
 13  3  1  0  0  0  0
 15  7  1  0  0  0  0
 18  9  1  0  0  0  0
M TOR 0 0 1 2 3
M TOR 1 0 1 2 12
M TOR 2 0 1 8 5
M TOR 3 0 1 8 17
M TOR 4 0 1 8 18
M TOR 5 1 2 3 4
M TOR 6 1 2 3 5
M TOR 7 1 8 5 3
M TOR 8 1 8 5 6
M TOR 9 1 8 5 13
M TOR 10 2 1 0 9
M TOR 11 2 1 0 10
M TOR 12 2 1 0 11
M TOR 13 2 1 8 5
M TOR 14 2 1 8 17
M TOR 15 2 1 8 18
M TOR 16 2 3 5 6
M TOR 17 2 3 5 8
M TOR 18 2 3 5 13
M TOR 19 3 2 1 8
M TOR 20 3 5 6 7
M TOR 21 3 5 6 14
M TOR 22 3 5 6 15
M TOR 23 3 5 8 17
M TOR 24 3 5 8 18
M TOR 25 4 3 2 12
M TOR 26 4 3 5 6
M TOR 27 4 3 5 8
M TOR 28 4 3 5 13
M TOR 29 5 3 2 12
M TOR 30 5 6 7 16
M TOR 31 6 5 8 17
M TOR 32 6 5 8 18
M TOR 33 7 6 5 8
M TOR 34 7 6 5 13
M TOR 35 8 1 0 9
M TOR 36 8 1 0 10
M TOR 37 8 1 0 11
M TOR 38 8 1 2 12
M TOR 39 8 5 6 14
M TOR 40 8 5 6 15
M  END
$$$$
