gdb 4973	2.3051174	1.5547965	1.2699396	2.8852	74.55	-0.22125	0.05354	0.27479	1096.1524	0.156001	-422.490764	-422.482249	-422.481305	-422.523885	32.484
 OpenBabel02181911413D

 19 21  0  0  1  0  0  0  0  0999 V2000
    2.5570   -1.1059    1.1220 C   0  0  0  0  0  0  0  0  0  0  0  0
    1.8832   -0.1564    0.1211 C   0  0  0  0  0  0  0  0  0  0  0  0
    2.1055   -0.5384   -1.3074 C   0  0  1  0  0  0  0  0  0  0  0  0
    1.5237   -0.1015   -2.6190 C   0  0  1  0  0  0  0  0  0  0  0  0
    2.7717    0.1881   -3.2481 O   0  0  0  0  0  0  0  0  0  0  0  0
    3.3664   -0.6944   -2.2530 C   0  0  2  0  0  0  0  0  0  0  0  0
    2.8797   -2.1072   -2.6769 C   0  0  0  0  0  0  0  0  0  0  0  0
    1.5050   -1.5912   -2.2574 C   0  0  1  0  0  0  0  0  0  0  0  0
    0.3013   -2.2553   -2.1786 O   0  0  0  0  0  0  0  0  0  0  0  0
    2.3702   -0.7883    2.1522 H   0  0  0  0  0  0  0  0  0  0  0  0
    2.1825   -2.1294    1.0129 H   0  0  0  0  0  0  0  0  0  0  0  0
    3.6417   -1.1321    0.9730 H   0  0  0  0  0  0  0  0  0  0  0  0
    0.8011   -0.1351    0.3042 H   0  0  0  0  0  0  0  0  0  0  0  0
    2.2394    0.8682    0.2906 H   0  0  0  0  0  0  0  0  0  0  0  0
    0.6422    0.4745   -2.8704 H   0  0  0  0  0  0  0  0  0  0  0  0
    4.4081   -0.4732   -2.0305 H   0  0  0  0  0  0  0  0  0  0  0  0
    3.0530   -2.3881   -3.7205 H   0  0  0  0  0  0  0  0  0  0  0  0
    3.2484   -2.8820   -1.9975 H   0  0  0  0  0  0  0  0  0  0  0  0
    0.3782   -2.9544   -1.5195 H   0  0  0  0  0  0  0  0  0  0  0  0
  1 10  1  0  0  0  0
  2 14  1  0  0  0  0
  2 13  1  0  0  0  0
  2  1  1  0  0  0  0
  3  2  1  1  0  0  0
  4 15  1  6  0  0  0
  4  8  1  0  0  0  0
  4  3  1  0  0  0  0
  5  4  1  0  0  0  0
  5  6  1  0  0  0  0
  6 16  1  1  0  0  0
  6  3  1  0  0  0  0
  7  8  1  0  0  0  0
  7  6  1  0  0  0  0
  7 18  1  0  0  0  0
  8  9  1  1  0  0  0
  8  3  1  0  0  0  0
  9 19  1  0  0  0  0
 11  1  1  0  0  0  0
 12  1  1  0  0  0  0
 17  7  1  0  0  0  0
M TOR 0 0 1 2 3
M TOR 1 0 1 2 5
M TOR 2 0 1 2 7
M TOR 3 1 2 3 4
M TOR 4 1 2 3 7
M TOR 5 1 2 3 14
M TOR 6 1 2 5 4
M TOR 7 1 2 5 6
M TOR 8 1 2 5 15
M TOR 9 1 2 7 6
M TOR 10 1 2 7 8
M TOR 11 2 1 0 9
M TOR 12 2 1 0 10
M TOR 13 2 1 0 11
M TOR 14 2 3 4 5
M TOR 15 2 3 7 6
M TOR 16 2 3 7 8
M TOR 17 2 5 6 7
M TOR 18 2 5 6 16
M TOR 19 2 5 6 17
M TOR 20 2 7 3 4
M TOR 21 2 7 3 14
M TOR 22 2 7 6 16
M TOR 23 2 7 6 17
M TOR 24 2 7 8 18
M TOR 25 3 2 1 12
M TOR 26 3 2 1 13
M TOR 27 3 2 5 6
M TOR 28 3 2 5 15
M TOR 29 3 4 5 6
M TOR 30 3 4 5 15
M TOR 31 3 7 2 5
M TOR 32 3 7 6 5
M TOR 33 3 7 6 16
M TOR 34 3 7 6 17
M TOR 35 3 7 8 18
M TOR 36 4 3 7 6
M TOR 37 4 3 7 8
M TOR 38 4 5 2 7
M TOR 39 4 5 6 7
M TOR 40 4 5 6 16
M TOR 41 4 5 6 17
M TOR 42 5 2 1 12
M TOR 43 5 2 1 13
M TOR 44 5 2 3 14
M TOR 45 5 2 7 8
M TOR 46 5 4 3 7
M TOR 47 5 4 3 14
M TOR 48 5 6 7 8
M TOR 49 6 7 3 14
M TOR 50 6 7 8 18
M TOR 51 7 2 1 12
M TOR 52 7 2 1 13
M TOR 53 7 2 5 15
M TOR 54 7 6 5 15
M TOR 55 8 7 3 14
M TOR 56 8 7 6 16
M TOR 57 8 7 6 17
M  END
$$$$
