gdb 2747	2.3486556	1.8851592	1.5481932	1.2858	73.91	-0.23225	0.05146	0.28371	964.2596	0.158079	-422.50027	-422.492546	-422.491601	-422.531956	30.242
 OpenBabel02181911413D

 19 21  0  0  1  0  0  0  0  0999 V2000
    3.4673    1.3309    0.0195 C   0  0  0  0  0  0  0  0  0  0  0  0
    2.3714    0.3104    0.2371 C   0  0  1  0  0  0  0  0  0  0  0  0
    2.0697   -0.7614   -0.8080 C   0  0  2  0  0  0  0  0  0  0  0  0
    0.8886   -1.6170   -0.3316 C   0  0  0  0  0  0  0  0  0  0  0  0
    1.4991   -1.8477    0.9717 O   0  0  0  0  0  0  0  0  0  0  0  0
    2.6632   -1.1264    0.5398 C   0  0  2  0  0  0  0  0  0  0  0  0
    3.9895   -1.7915    0.2722 C   0  0  0  0  0  0  0  0  0  0  0  0
    4.3157   -1.4333   -1.0800 O   0  0  0  0  0  0  0  0  0  0  0  0
    3.1076   -1.1651   -1.8246 C   0  0  0  0  0  0  0  0  0  0  0  0
    3.7847    1.7558    0.9773 H   0  0  0  0  0  0  0  0  0  0  0  0
    4.3417    0.8940   -0.4664 H   0  0  0  0  0  0  0  0  0  0  0  0
    3.1037    2.1537   -0.6050 H   0  0  0  0  0  0  0  0  0  0  0  0
    1.4932    0.6972    0.7501 H   0  0  0  0  0  0  0  0  0  0  0  0
   -0.0876   -1.1266   -0.2428 H   0  0  0  0  0  0  0  0  0  0  0  0
    0.7814   -2.5569   -0.8863 H   0  0  0  0  0  0  0  0  0  0  0  0
    4.8267   -1.4566    0.8920 H   0  0  0  0  0  0  0  0  0  0  0  0
    3.8664   -2.8776    0.3954 H   0  0  0  0  0  0  0  0  0  0  0  0
    3.3707   -0.4010   -2.5625 H   0  0  0  0  0  0  0  0  0  0  0  0
    2.7710   -2.0636   -2.3639 H   0  0  0  0  0  0  0  0  0  0  0  0
  1  2  1  0  0  0  0
  1 10  1  0  0  0  0
  2  6  1  0  0  0  0
  2 13  1  1  0  0  0
  3  9  1  6  0  0  0
  3  4  1  0  0  0  0
  3  2  1  0  0  0  0
  3  6  1  0  0  0  0
  4 14  1  0  0  0  0
  4  5  1  0  0  0  0
  6  5  1  1  0  0  0
  7 17  1  0  0  0  0
  7  6  1  0  0  0  0
  7 16  1  0  0  0  0
  8  7  1  0  0  0  0
  9  8  1  0  0  0  0
 11  1  1  0  0  0  0
 12  1  1  0  0  0  0
 15  4  1  0  0  0  0
 18  9  1  0  0  0  0
 19  9  1  0  0  0  0
M TOR 0 0 1 2 3
M TOR 1 0 1 2 5
M TOR 2 0 1 2 8
M TOR 3 0 1 5 4
M TOR 4 0 1 5 6
M TOR 5 1 2 3 4
M TOR 6 1 2 3 13
M TOR 7 1 2 3 14
M TOR 8 1 2 5 4
M TOR 9 1 2 5 6
M TOR 10 1 2 8 7
M TOR 11 1 2 8 17
M TOR 12 1 2 8 18
M TOR 13 1 5 2 3
M TOR 14 1 5 2 8
M TOR 15 1 5 4 3
M TOR 16 1 5 6 7
M TOR 17 1 5 6 15
M TOR 18 1 5 6 16
M TOR 19 2 1 0 9
M TOR 20 2 1 0 10
M TOR 21 2 1 0 11
M TOR 22 2 3 4 5
M TOR 23 2 5 1 12
M TOR 24 2 5 6 7
M TOR 25 2 5 6 15
M TOR 26 2 5 6 16
M TOR 27 2 8 7 6
M TOR 28 3 2 1 12
M TOR 29 3 2 5 6
M TOR 30 3 2 8 7
M TOR 31 3 2 8 17
M TOR 32 3 2 8 18
M TOR 33 3 4 5 6
M TOR 34 4 3 2 8
M TOR 35 4 5 1 12
M TOR 36 4 5 2 8
M TOR 37 4 5 6 7
M TOR 38 4 5 6 15
M TOR 39 4 5 6 16
M TOR 40 5 1 0 9
M TOR 41 5 1 0 10
M TOR 42 5 1 0 11
M TOR 43 5 2 3 13
M TOR 44 5 2 3 14
M TOR 45 5 2 8 7
M TOR 46 5 2 8 17
M TOR 47 5 2 8 18
M TOR 48 5 4 3 13
M TOR 49 5 4 3 14
M TOR 50 5 6 7 8
M TOR 51 6 5 1 12
M TOR 52 6 5 2 8
M TOR 53 6 7 8 17
M TOR 54 6 7 8 18
M TOR 55 8 2 1 12
M TOR 56 8 2 3 13
M TOR 57 8 2 3 14
M TOR 58 8 7 6 15
M TOR 59 8 7 6 16
M  END
$$$$
