gdb 4028	2.405548	2.0465453	1.4787041	2.2897	73.18	-0.23366	0.0713	0.30496	952.074	0.157676	-422.537914	-422.530235	-422.529291	-422.569561	31.026
 OpenBabel02181911413D

 19 21  0  0  1  0  0  0  0  0999 V2000
    0.9245    0.1966   -3.2930 C   0  0  0  0  0  0  0  0  0  0  0  0
    0.0566    0.4500   -2.0916 C   0  0  1  0  0  0  0  0  0  0  0  0
   -0.6482   -0.7803   -1.6459 O   0  0  0  0  0  0  0  0  0  0  0  0
   -1.8612   -0.0247   -1.5795 C   0  0  1  0  0  0  0  0  0  0  0  0
   -1.6779    1.2246   -0.7429 C   0  0  1  0  0  0  0  0  0  0  0  0
   -0.4418    1.2792    0.1437 C   0  0  0  0  0  0  0  0  0  0  0  0
    0.7495    0.9614   -0.8155 C   0  0  1  0  0  0  0  0  0  0  0  0
    1.6680    0.0142   -0.3146 O   0  0  0  0  0  0  0  0  0  0  0  0
   -1.2849    1.2026   -2.2109 C   0  0  1  0  0  0  0  0  0  0  0  0
    1.7556   -0.4584   -3.0159 H   0  0  0  0  0  0  0  0  0  0  0  0
    0.3529   -0.2740   -4.0966 H   0  0  0  0  0  0  0  0  0  0  0  0
    1.3415    1.1398   -3.6628 H   0  0  0  0  0  0  0  0  0  0  0  0
   -2.7960   -0.5544   -1.7212 H   0  0  0  0  0  0  0  0  0  0  0  0
   -2.5829    1.7519   -0.4610 H   0  0  0  0  0  0  0  0  0  0  0  0
   -0.3333    2.2645    0.6055 H   0  0  0  0  0  0  0  0  0  0  0  0
   -0.4681    0.5417    0.9519 H   0  0  0  0  0  0  0  0  0  0  0  0
    1.3308    1.8646   -1.0320 H   0  0  0  0  0  0  0  0  0  0  0  0
    1.1715   -0.8142   -0.2585 H   0  0  0  0  0  0  0  0  0  0  0  0
   -1.6263    1.8509   -3.0057 H   0  0  0  0  0  0  0  0  0  0  0  0
  1 10  1  0  0  0  0
  2  1  1  6  0  0  0
  2  3  1  0  0  0  0
  2  7  1  0  0  0  0
  3  4  1  0  0  0  0
  4 13  1  6  0  0  0
  4  5  1  0  0  0  0
  5 14  1  1  0  0  0
  5  6  1  0  0  0  0
  6 15  1  0  0  0  0
  6 16  1  0  0  0  0
  7 17  1  6  0  0  0
  7  8  1  0  0  0  0
  7  6  1  0  0  0  0
  8 18  1  0  0  0  0
  9 19  1  6  0  0  0
  9  2  1  0  0  0  0
  9  4  1  0  0  0  0
  9  5  1  0  0  0  0
 11  1  1  0  0  0  0
 12  1  1  0  0  0  0
M TOR 0 0 1 2 3
M TOR 1 0 1 6 5
M TOR 2 0 1 6 7
M TOR 3 0 1 6 16
M TOR 4 0 1 8 3
M TOR 5 0 1 8 4
M TOR 6 0 1 8 18
M TOR 7 1 2 3 4
M TOR 8 1 2 3 8
M TOR 9 1 2 3 12
M TOR 10 1 6 5 4
M TOR 11 1 6 5 14
M TOR 12 1 6 5 15
M TOR 13 1 6 7 17
M TOR 14 1 8 3 4
M TOR 15 1 8 3 12
M TOR 16 1 8 4 5
M TOR 17 1 8 4 13
M TOR 18 2 1 0 9
M TOR 19 2 1 0 10
M TOR 20 2 1 0 11
M TOR 21 2 1 6 5
M TOR 22 2 1 6 7
M TOR 23 2 1 6 16
M TOR 24 2 1 8 4
M TOR 25 2 1 8 18
M TOR 26 2 3 4 5
M TOR 27 2 3 4 8
M TOR 28 2 3 4 13
M TOR 29 2 3 8 18
M TOR 30 3 2 1 6
M TOR 31 3 4 5 6
M TOR 32 3 4 5 14
M TOR 33 3 4 5 15
M TOR 34 3 4 8 18
M TOR 35 3 8 1 6
M TOR 36 3 8 4 5
M TOR 37 3 8 4 13
M TOR 38 4 5 6 7
M TOR 39 4 5 6 16
M TOR 40 4 8 1 6
M TOR 41 4 8 3 12
M TOR 42 5 4 3 12
M TOR 43 5 4 8 18
M TOR 44 5 6 1 8
M TOR 45 5 6 7 17
M TOR 46 6 1 0 9
M TOR 47 6 1 0 10
M TOR 48 6 1 0 11
M TOR 49 6 1 8 18
M TOR 50 6 5 4 8
M TOR 51 6 5 4 13
M TOR 52 7 6 1 8
M TOR 53 7 6 5 14
M TOR 54 7 6 5 15
M TOR 55 8 1 0 9
M TOR 56 8 1 0 10
M TOR 57 8 1 0 11
M TOR 58 8 1 6 16
M TOR 59 8 4 5 14
M TOR 60 8 4 5 15
M  END
$$$$
