
     RDKit          3D

 19 21  0  0  0  0  0  0  0  0999 V2000
    1.4176   -0.1311    0.0374 C   0  0  0  0  0  0  0  0  0  0  0  0
    0.0191    0.0431    0.0859 O   0  0  0  0  0  0  0  0  0  0  0  0
   -0.4312    0.6935    1.2483 C   0  0  0  0  0  0  0  0  0  0  0  0
   -0.2253    2.2111    1.2540 C   0  0  0  0  0  0  0  0  0  0  0  0
   -1.4854    2.7478    1.9477 C   0  0  0  0  0  0  0  0  0  0  0  0
   -2.2676    1.6318    2.3773 O   0  0  0  0  0  0  0  0  0  0  0  0
   -1.9456    1.0206    1.0898 C   0  0  0  0  0  0  0  0  0  0  0  0
   -2.9369    0.0243    0.5854 C   0  0  0  0  0  0  0  0  0  0  0  0
   -1.5362    2.4317    0.4989 C   0  0  0  0  0  0  0  0  0  0  0  0
    1.7859   -0.6897    0.9118 H   0  0  0  0  0  0  0  0  0  0  0  0
    1.6417   -0.7026   -0.8666 H   0  0  0  0  0  0  0  0  0  0  0  0
    1.9527    0.8287   -0.0092 H   0  0  0  0  0  0  0  0  0  0  0  0
   -0.1469    0.1280    2.1490 H   0  0  0  0  0  0  0  0  0  0  0  0
    0.6928    2.7804    1.1893 H   0  0  0  0  0  0  0  0  0  0  0  0
   -1.5373    3.6750    2.5028 H   0  0  0  0  0  0  0  0  0  0  0  0
   -3.0748   -0.7700    1.3271 H   0  0  0  0  0  0  0  0  0  0  0  0
   -3.9065    0.4942    0.3996 H   0  0  0  0  0  0  0  0  0  0  0  0
   -2.5688   -0.4258   -0.3400 H   0  0  0  0  0  0  0  0  0  0  0  0
   -1.7950    2.9882   -0.3903 H   0  0  0  0  0  0  0  0  0  0  0  0
  1  2  1  0
  2  3  1  0
  3  4  1  0
  4  5  1  0
  5  6  1  0
  6  7  1  0
  7  8  1  0
  7  9  1  0
  7  3  1  0
  9  4  1  0
  9  5  1  0
  1 10  1  0
  1 11  1  0
  1 12  1  0
  3 13  1  0
  4 14  1  0
  5 15  1  0
  8 16  1  0
  8 17  1  0
  8 18  1  0
  9 19  1  0
M  END
$$$$
