
     RDKit          3D

 19 20  0  0  0  0  0  0  0  0999 V2000
   -1.1277    2.0386    1.3453 C   0  0  0  0  0  0  0  0  0  0  0  0
   -1.0471    1.1351    0.1177 C   0  0  0  0  0  0  0  0  0  0  0  0
   -2.1312    0.0122   -0.0672 C   0  0  0  0  0  0  0  0  0  0  0  0
   -2.9133    0.0312   -1.3757 C   0  0  0  0  0  0  0  0  0  0  0  0
   -1.0141   -1.0503    0.0153 C   0  0  0  0  0  0  0  0  0  0  0  0
   -1.0043   -2.4032    0.5939 C   0  0  0  0  0  0  0  0  0  0  0  0
   -0.9046   -2.1963   -0.8121 O   0  0  0  0  0  0  0  0  0  0  0  0
    0.0416    0.0380    0.1542 C   0  0  0  0  0  0  0  0  0  0  0  0
    1.2325    0.0431    0.2741 O   0  0  0  0  0  0  0  0  0  0  0  0
   -1.2508    1.4523    2.2621 H   0  0  0  0  0  0  0  0  0  0  0  0
   -0.2130    2.6300    1.4467 H   0  0  0  0  0  0  0  0  0  0  0  0
   -1.9744    2.7281    1.2709 H   0  0  0  0  0  0  0  0  0  0  0  0
   -0.9365    1.7396   -0.7914 H   0  0  0  0  0  0  0  0  0  0  0  0
   -2.8141   -0.0415    0.7869 H   0  0  0  0  0  0  0  0  0  0  0  0
   -3.5101   -0.8787   -1.4893 H   0  0  0  0  0  0  0  0  0  0  0  0
   -3.5899    0.8908   -1.4125 H   0  0  0  0  0  0  0  0  0  0  0  0
   -2.2399    0.0906   -2.2370 H   0  0  0  0  0  0  0  0  0  0  0  0
   -0.1003   -2.7683    1.0785 H   0  0  0  0  0  0  0  0  0  0  0  0
   -1.9439   -2.8307    0.9423 H   0  0  0  0  0  0  0  0  0  0  0  0
  1  2  1  0
  2  3  1  0
  3  4  1  0
  3  5  1  0
  5  6  1  0
  6  7  1  0
  5  8  1  0
  8  9  2  0
  8  2  1  0
  7  5  1  0
  1 10  1  0
  1 11  1  0
  1 12  1  0
  2 13  1  0
  3 14  1  0
  4 15  1  0
  4 16  1  0
  4 17  1  0
  6 18  1  0
  6 19  1  0
M  END
$$$$
