
     RDKit          3D

 19 21  0  0  0  0  0  0  0  0999 V2000
    0.6289   -0.2146    0.6335 O   0  0  0  0  0  0  0  0  0  0  0  0
   -0.7259    0.1313    0.6939 C   0  0  0  0  0  0  0  0  0  0  0  0
   -1.4198    0.1924    2.0316 C   0  0  0  0  0  0  0  0  0  0  0  0
   -1.6933   -0.9530    1.0792 C   0  0  0  0  0  0  0  0  0  0  0  0
   -3.0416   -1.1282    0.3745 C   0  0  0  0  0  0  0  0  0  0  0  0
   -2.9505   -2.5042   -0.3360 C   0  0  0  0  0  0  0  0  0  0  0  0
   -1.9368   -3.2759    0.4888 C   0  0  0  0  0  0  0  0  0  0  0  0
   -2.1703   -3.2109    1.9031 O   0  0  0  0  0  0  0  0  0  0  0  0
   -1.1789   -2.3394    1.3274 C   0  0  0  0  0  0  0  0  0  0  0  0
    1.1390    0.5159    0.9987 H   0  0  0  0  0  0  0  0  0  0  0  0
   -1.0523    0.8311   -0.0772 H   0  0  0  0  0  0  0  0  0  0  0  0
   -0.8164   -0.0254    2.9072 H   0  0  0  0  0  0  0  0  0  0  0  0
   -2.1963    0.9354    2.1849 H   0  0  0  0  0  0  0  0  0  0  0  0
   -3.8394   -1.1516    1.1218 H   0  0  0  0  0  0  0  0  0  0  0  0
   -3.2625   -0.3116   -0.3185 H   0  0  0  0  0  0  0  0  0  0  0  0
   -3.9199   -3.0075   -0.3992 H   0  0  0  0  0  0  0  0  0  0  0  0
   -2.5637   -2.4011   -1.3571 H   0  0  0  0  0  0  0  0  0  0  0  0
   -1.5202   -4.2127    0.1270 H   0  0  0  0  0  0  0  0  0  0  0  0
   -0.1546   -2.5043    1.6425 H   0  0  0  0  0  0  0  0  0  0  0  0
  1  2  1  0
  2  3  1  0
  3  4  1  0
  4  5  1  0
  5  6  1  0
  6  7  1  0
  7  8  1  0
  8  9  1  0
  4  2  1  0
  9  4  1  0
  9  7  1  0
  1 10  1  0
  2 11  1  0
  3 12  1  0
  3 13  1  0
  5 14  1  0
  5 15  1  0
  6 16  1  0
  6 17  1  0
  7 18  1  0
  9 19  1  0
M  END
$$$$
