
     RDKit          3D

 19 20  0  0  0  0  0  0  0  0999 V2000
   -2.9955   -1.9192    3.0058 C   0  0  0  0  0  0  0  0  0  0  0  0
   -2.0965   -1.1079    2.0760 C   0  0  0  0  0  0  0  0  0  0  0  0
   -2.8527   -0.1079    1.1707 C   0  0  0  0  0  0  0  0  0  0  0  0
   -1.8898    0.2003    0.0338 C   0  0  0  0  0  0  0  0  0  0  0  0
   -0.7939    1.0955    0.4496 O   0  0  0  0  0  0  0  0  0  0  0  0
    0.1314    0.0843    0.3652 C   0  0  0  0  0  0  0  0  0  0  0  0
    1.2991    0.1501    0.5798 O   0  0  0  0  0  0  0  0  0  0  0  0
   -0.8895   -0.9804   -0.0466 C   0  0  0  0  0  0  0  0  0  0  0  0
   -1.2856   -1.9592    1.0703 C   0  0  0  0  0  0  0  0  0  0  0  0
   -3.5491   -1.2682    3.6903 H   0  0  0  0  0  0  0  0  0  0  0  0
   -3.7273   -2.5029    2.4349 H   0  0  0  0  0  0  0  0  0  0  0  0
   -2.4113   -2.6182    3.6130 H   0  0  0  0  0  0  0  0  0  0  0  0
   -1.3873   -0.5375    2.6889 H   0  0  0  0  0  0  0  0  0  0  0  0
   -3.7454   -0.5878    0.7475 H   0  0  0  0  0  0  0  0  0  0  0  0
   -3.1791    0.7949    1.6943 H   0  0  0  0  0  0  0  0  0  0  0  0
   -2.3413    0.5787   -0.8836 H   0  0  0  0  0  0  0  0  0  0  0  0
   -0.6909   -1.4415   -1.0142 H   0  0  0  0  0  0  0  0  0  0  0  0
   -1.9220   -2.7475    0.6493 H   0  0  0  0  0  0  0  0  0  0  0  0
   -0.4183   -2.4456    1.5250 H   0  0  0  0  0  0  0  0  0  0  0  0
  1  2  1  0
  2  3  1  0
  3  4  1  0
  4  5  1  0
  5  6  1  0
  6  7  2  0
  6  8  1  0
  8  9  1  0
  9  2  1  0
  8  4  1  0
  1 10  1  0
  1 11  1  0
  1 12  1  0
  2 13  1  0
  3 14  1  0
  3 15  1  0
  4 16  1  0
  8 17  1  0
  9 18  1  0
  9 19  1  0
M  END
$$$$
