
     RDKit          3D

 19 20  0  0  0  0  0  0  0  0999 V2000
    1.1387   -0.1363    0.6768 O   0  0  0  0  0  0  0  0  0  0  0  0
    0.0146   -0.0872    0.2700 C   0  0  0  0  0  0  0  0  0  0  0  0
   -1.0838   -1.1346    0.0262 C   0  0  0  0  0  0  0  0  0  0  0  0
   -2.1099    0.0376    0.0927 C   0  0  0  0  0  0  0  0  0  0  0  0
   -3.2405    0.1094   -0.9271 C   0  0  0  0  0  0  0  0  0  0  0  0
   -2.7796    0.3850   -2.2375 O   0  0  0  0  0  0  0  0  0  0  0  0
   -2.0839    1.6203   -2.2937 C   0  0  0  0  0  0  0  0  0  0  0  0
   -0.7459    1.5196   -1.5630 C   0  0  0  0  0  0  0  0  0  0  0  0
   -0.9373    1.0678   -0.0926 C   0  0  0  0  0  0  0  0  0  0  0  0
   -1.0094   -1.5564   -0.9822 H   0  0  0  0  0  0  0  0  0  0  0  0
   -1.1627   -1.9495    0.7489 H   0  0  0  0  0  0  0  0  0  0  0  0
   -2.5271    0.1158    1.1008 H   0  0  0  0  0  0  0  0  0  0  0  0
   -3.7785   -0.8426   -0.9836 H   0  0  0  0  0  0  0  0  0  0  0  0
   -3.9623    0.8853   -0.6186 H   0  0  0  0  0  0  0  0  0  0  0  0
   -1.9305    1.8416   -3.3539 H   0  0  0  0  0  0  0  0  0  0  0  0
   -2.7068    2.4241   -1.8653 H   0  0  0  0  0  0  0  0  0  0  0  0
   -0.1259    0.7968   -2.1055 H   0  0  0  0  0  0  0  0  0  0  0  0
   -0.2129    2.4746   -1.5942 H   0  0  0  0  0  0  0  0  0  0  0  0
   -0.9302    1.9236    0.5865 H   0  0  0  0  0  0  0  0  0  0  0  0
  1  2  2  0
  2  3  1  0
  3  4  1  0
  4  5  1  0
  5  6  1  0
  6  7  1  0
  7  8  1  0
  8  9  1  0
  9  2  1  0
  9  4  1  0
  3 10  1  0
  3 11  1  0
  4 12  1  0
  5 13  1  0
  5 14  1  0
  7 15  1  0
  7 16  1  0
  8 17  1  0
  8 18  1  0
  9 19  1  0
M  END
$$$$
