
     RDKit          3D

 19 21  0  0  0  0  0  0  0  0999 V2000
    0.0084   -0.2142   -0.1816 C   0  0  0  0  0  0  0  0  0  0  0  0
    1.5022   -0.1382   -0.0742 C   0  0  0  0  0  0  0  0  0  0  0  0
    2.5006   -0.2086   -1.2604 C   0  0  0  0  0  0  0  0  0  0  0  0
    3.3055    0.6276   -0.2427 C   0  0  0  0  0  0  0  0  0  0  0  0
    3.6425   -0.3739    0.8833 C   0  0  0  0  0  0  0  0  0  0  0  0
    2.2290   -0.9714    0.9924 C   0  0  0  0  0  0  0  0  0  0  0  0
    1.8608   -2.3133    1.4421 C   0  0  0  0  0  0  0  0  0  0  0  0
    1.6140   -1.1572    2.2581 O   0  0  0  0  0  0  0  0  0  0  0  0
    2.0468    1.1982    0.2294 O   0  0  0  0  0  0  0  0  0  0  0  0
   -0.4450   -0.0696    0.8031 H   0  0  0  0  0  0  0  0  0  0  0  0
   -0.3666    0.5529   -0.8635 H   0  0  0  0  0  0  0  0  0  0  0  0
   -0.2990   -1.1938   -0.5620 H   0  0  0  0  0  0  0  0  0  0  0  0
    2.8836   -1.1819   -1.5806 H   0  0  0  0  0  0  0  0  0  0  0  0
    2.1587    0.3884   -2.1069 H   0  0  0  0  0  0  0  0  0  0  0  0
    4.0510    1.3683   -0.5292 H   0  0  0  0  0  0  0  0  0  0  0  0
    4.4125   -1.1019    0.6135 H   0  0  0  0  0  0  0  0  0  0  0  0
    3.9288    0.1336    1.8069 H   0  0  0  0  0  0  0  0  0  0  0  0
    0.9705   -2.8034    1.0495 H   0  0  0  0  0  0  0  0  0  0  0  0
    2.6324   -2.9882    1.8111 H   0  0  0  0  0  0  0  0  0  0  0  0
  1  2  1  0
  2  3  1  0
  3  4  1  0
  4  5  1  0
  5  6  1  0
  6  7  1  0
  7  8  1  0
  4  9  1  0
  6  2  1  0
  8  6  1  0
  9  2  1  0
  1 10  1  0
  1 11  1  0
  1 12  1  0
  3 13  1  0
  3 14  1  0
  4 15  1  0
  5 16  1  0
  5 17  1  0
  7 18  1  0
  7 19  1  0
M  END
$$$$
