
     RDKit          3D

 19 20  0  0  0  0  0  0  0  0999 V2000
   -0.1449   -0.0825   -0.0973 C   0  0  0  0  0  0  0  0  0  0  0  0
    1.3620    0.0793    0.0388 C   0  0  0  0  0  0  0  0  0  0  0  0
    1.9588   -0.6216    1.2925 C   0  0  0  0  0  0  0  0  0  0  0  0
    2.8462    0.4215    1.9211 C   0  0  0  0  0  0  0  0  0  0  0  0
    2.7864    1.5973    1.2983 C   0  0  0  0  0  0  0  0  0  0  0  0
    1.8616    1.5657    0.1093 C   0  0  0  0  0  0  0  0  0  0  0  0
    2.5145    1.7858   -1.1436 O   0  0  0  0  0  0  0  0  0  0  0  0
    2.9627    0.5163   -1.5482 C   0  0  0  0  0  0  0  0  0  0  0  0
    1.9665   -0.4055   -1.1699 O   0  0  0  0  0  0  0  0  0  0  0  0
   -0.6575    0.2890    0.7957 H   0  0  0  0  0  0  0  0  0  0  0  0
   -0.5076    0.4704   -0.9683 H   0  0  0  0  0  0  0  0  0  0  0  0
   -0.4051   -1.1375   -0.2278 H   0  0  0  0  0  0  0  0  0  0  0  0
    1.1711   -0.9472    1.9840 H   0  0  0  0  0  0  0  0  0  0  0  0
    2.5063   -1.5233    0.9969 H   0  0  0  0  0  0  0  0  0  0  0  0
    3.4472    0.2139    2.8008 H   0  0  0  0  0  0  0  0  0  0  0  0
    3.3321    2.4923    1.5738 H   0  0  0  0  0  0  0  0  0  0  0  0
    1.0536    2.3014    0.1692 H   0  0  0  0  0  0  0  0  0  0  0  0
    3.0693    0.5070   -2.6368 H   0  0  0  0  0  0  0  0  0  0  0  0
    3.9265    0.2672   -1.0701 H   0  0  0  0  0  0  0  0  0  0  0  0
  1  2  1  0
  2  3  1  0
  3  4  1  0
  4  5  2  0
  5  6  1  0
  6  7  1  0
  7  8  1  0
  8  9  1  0
  6  2  1  0
  9  2  1  0
  1 10  1  0
  1 11  1  0
  1 12  1  0
  3 13  1  0
  3 14  1  0
  4 15  1  0
  5 16  1  0
  6 17  1  0
  8 18  1  0
  8 19  1  0
M  END
$$$$
