gdb 4170	4.0705568	1.0500945	1.0171355	2.8764	76.26	-0.24071	-0.02393	0.21678	1239.2736	0.157112	-422.551709	-422.543548	-422.542604	-422.584502	30.928
 OpenBabel02181911413D

 19 20  0  0  1  0  0  0  0  0999 V2000
    1.8258    1.3215    0.2674 C   0  0  0  0  0  0  0  0  0  0  0  0
    1.3175   -0.0844   -0.0408 C   0  0  2  0  0  0  0  0  0  0  0  0
    1.6074   -1.1417    1.0790 C   0  0  0  0  0  0  0  0  0  0  0  0
    2.4827   -2.0924    0.2408 C   0  0  2  0  0  0  0  0  0  0  0  0
    3.3579   -1.1653   -0.4739 O   0  0  0  0  0  0  0  0  0  0  0  0
    2.1235   -0.7890   -1.1596 C   0  0  1  0  0  0  0  0  0  0  0  0
    1.6621   -2.2733   -1.0721 C   0  0  1  0  0  0  0  0  0  0  0  0
    2.3115   -3.1773   -2.0803 C   0  0  0  0  0  0  0  0  0  0  0  0
    1.7136   -4.0154   -2.7095 O   0  0  0  0  0  0  0  0  0  0  0  0
    1.3339    1.7314    1.1552 H   0  0  0  0  0  0  0  0  0  0  0  0
    2.9036    1.3012    0.4541 H   0  0  0  0  0  0  0  0  0  0  0  0
    1.6339    2.0060   -0.5661 H   0  0  0  0  0  0  0  0  0  0  0  0
    0.2534   -0.0534   -0.2960 H   0  0  0  0  0  0  0  0  0  0  0  0
    2.1755   -0.7194    1.9116 H   0  0  0  0  0  0  0  0  0  0  0  0
    0.7098   -1.6236    1.4740 H   0  0  0  0  0  0  0  0  0  0  0  0
    3.0078   -2.9136    0.7290 H   0  0  0  0  0  0  0  0  0  0  0  0
    2.2806   -0.2705   -2.1063 H   0  0  0  0  0  0  0  0  0  0  0  0
    0.5933   -2.4868   -0.9977 H   0  0  0  0  0  0  0  0  0  0  0  0
    3.4023   -3.0186   -2.2107 H   0  0  0  0  0  0  0  0  0  0  0  0
  1 11  1  0  0  0  0
  1 10  1  0  0  0  0
  2 13  1  6  0  0  0
  2  1  1  0  0  0  0
  2  3  1  0  0  0  0
  3 15  1  0  0  0  0
  3 14  1  0  0  0  0
  4 16  1  1  0  0  0
  4  3  1  0  0  0  0
  5  4  1  0  0  0  0
  6 17  1  6  0  0  0
  6  7  1  0  0  0  0
  6  5  1  0  0  0  0
  6  2  1  0  0  0  0
  7 18  1  1  0  0  0
  7  4  1  0  0  0  0
  8  7  1  0  0  0  0
  9  8  2  0  0  0  0
 12  1  1  0  0  0  0
 19  8  1  0  0  0  0
M TOR 0 0 1 2 3
M TOR 1 0 1 2 13
M TOR 2 0 1 2 14
M TOR 3 0 1 5 4
M TOR 4 0 1 5 6
M TOR 5 0 1 5 16
M TOR 6 1 2 3 4
M TOR 7 1 2 3 6
M TOR 8 1 2 3 15
M TOR 9 1 5 4 3
M TOR 10 1 5 6 3
M TOR 11 1 5 6 7
M TOR 12 1 5 6 17
M TOR 13 2 1 0 9
M TOR 14 2 1 0 10
M TOR 15 2 1 0 11
M TOR 16 2 1 5 4
M TOR 17 2 1 5 6
M TOR 18 2 1 5 16
M TOR 19 2 3 4 5
M TOR 20 2 3 6 5
M TOR 21 2 3 6 7
M TOR 22 2 3 6 17
M TOR 23 3 2 1 5
M TOR 24 3 2 1 12
M TOR 25 3 4 5 6
M TOR 26 3 4 5 16
M TOR 27 3 6 5 16
M TOR 28 3 6 7 8
M TOR 29 3 6 7 18
M TOR 30 4 3 2 13
M TOR 31 4 3 2 14
M TOR 32 4 3 6 7
M TOR 33 4 3 6 17
M TOR 34 4 5 1 12
M TOR 35 4 5 6 7
M TOR 36 4 5 6 17
M TOR 37 5 1 0 9
M TOR 38 5 1 0 10
M TOR 39 5 1 0 11
M TOR 40 5 1 2 13
M TOR 41 5 1 2 14
M TOR 42 5 4 3 15
M TOR 43 5 6 3 15
M TOR 44 5 6 7 8
M TOR 45 5 6 7 18
M TOR 46 6 3 2 13
M TOR 47 6 3 2 14
M TOR 48 6 5 1 12
M TOR 49 7 6 3 15
M TOR 50 7 6 5 16
M TOR 51 8 7 6 17
M  END
$$$$
