
     RDKit          3D

 19 19  0  0  0  0  0  0  0  0999 V2000
    0.6981   -0.3487   -0.9136 C   0  0  0  0  0  0  0  0  0  0  0  0
    1.0316    0.3188    0.4171 C   0  0  0  0  0  0  0  0  0  0  0  0
    1.7076    1.7091    0.3110 C   0  0  0  0  0  0  0  0  0  0  0  0
    2.6471    1.7351    1.4865 C   0  0  0  0  0  0  0  0  0  0  0  0
    2.7900    0.5390    2.0530 C   0  0  0  0  0  0  0  0  0  0  0  0
    1.9989   -0.5338    1.3237 C   0  0  0  0  0  0  0  0  0  0  0  0
    2.8610   -1.3751    0.5916 O   0  0  0  0  0  0  0  0  0  0  0  0
    1.1824   -1.3845    2.2793 C   0  0  0  0  0  0  0  0  0  0  0  0
    1.2772   -2.5879    2.3171 O   0  0  0  0  0  0  0  0  0  0  0  0
    0.1917   -1.3078   -0.7642 H   0  0  0  0  0  0  0  0  0  0  0  0
    0.0363    0.2903   -1.5071 H   0  0  0  0  0  0  0  0  0  0  0  0
    1.6077   -0.5410   -1.4870 H   0  0  0  0  0  0  0  0  0  0  0  0
    0.1034    0.4617    0.9863 H   0  0  0  0  0  0  0  0  0  0  0  0
    2.2637    1.8227   -0.6299 H   0  0  0  0  0  0  0  0  0  0  0  0
    0.9715    2.5207    0.3341 H   0  0  0  0  0  0  0  0  0  0  0  0
    3.1731    2.6322    1.7958 H   0  0  0  0  0  0  0  0  0  0  0  0
    3.4540    0.2933    2.8737 H   0  0  0  0  0  0  0  0  0  0  0  0
    2.6439   -2.2793    0.8722 H   0  0  0  0  0  0  0  0  0  0  0  0
    0.4842   -0.8317    2.9405 H   0  0  0  0  0  0  0  0  0  0  0  0
  1  2  1  0
  2  3  1  0
  3  4  1  0
  4  5  2  0
  5  6  1  0
  6  7  1  0
  6  8  1  0
  8  9  2  0
  6  2  1  0
  1 10  1  0
  1 11  1  0
  1 12  1  0
  2 13  1  0
  3 14  1  0
  3 15  1  0
  4 16  1  0
  5 17  1  0
  7 18  1  0
  8 19  1  0
M  END
$$$$
