
     RDKit          3D

 19 19  0  0  0  0  0  0  0  0999 V2000
    2.5368    2.1339   -1.2618 O   0  0  0  0  0  0  0  0  0  0  0  0
    3.0165    1.4536   -0.1201 C   0  0  0  0  0  0  0  0  0  0  0  0
    2.4187    0.0370    0.0422 C   0  0  0  0  0  0  0  0  0  0  0  0
    0.9690    0.0616    0.2029 C   0  0  0  0  0  0  0  0  0  0  0  0
   -0.2192    0.0681    0.3852 C   0  0  0  0  0  0  0  0  0  0  0  0
    3.0710   -0.6834    1.2314 C   0  0  0  0  0  0  0  0  0  0  0  0
    2.8413   -2.2026    1.3716 C   0  0  0  0  0  0  0  0  0  0  0  0
    4.3749   -2.3005    1.2417 C   0  0  0  0  0  0  0  0  0  0  0  0
    4.4899   -0.8759    1.0266 O   0  0  0  0  0  0  0  0  0  0  0  0
    2.8738    1.6822   -2.0420 H   0  0  0  0  0  0  0  0  0  0  0  0
    4.1109    1.3614   -0.1232 H   0  0  0  0  0  0  0  0  0  0  0  0
    2.7292    2.0667    0.7400 H   0  0  0  0  0  0  0  0  0  0  0  0
    2.6737   -0.5387   -0.8604 H   0  0  0  0  0  0  0  0  0  0  0  0
   -1.2717    0.0850    0.5244 H   0  0  0  0  0  0  0  0  0  0  0  0
    2.8802   -0.1122    2.1503 H   0  0  0  0  0  0  0  0  0  0  0  0
    2.4154   -2.5357    2.3181 H   0  0  0  0  0  0  0  0  0  0  0  0
    2.2770   -2.6458    0.5493 H   0  0  0  0  0  0  0  0  0  0  0  0
    4.9017   -2.6150    2.1508 H   0  0  0  0  0  0  0  0  0  0  0  0
    4.7610   -2.8750    0.3920 H   0  0  0  0  0  0  0  0  0  0  0  0
  1  2  1  0
  2  3  1  0
  3  4  1  0
  4  5  3  0
  3  6  1  0
  6  7  1  0
  7  8  1  0
  8  9  1  0
  9  6  1  0
  1 10  1  0
  2 11  1  0
  2 12  1  0
  3 13  1  0
  5 14  1  0
  6 15  1  0
  7 16  1  0
  7 17  1  0
  8 18  1  0
  8 19  1  0
M  END
$$$$
