
     RDKit          3D

 19 19  0  0  0  0  0  0  0  0999 V2000
   -0.2951   -2.5494    0.4885 O   0  0  0  0  0  0  0  0  0  0  0  0
   -1.0611   -1.4537    0.0675 C   0  0  0  0  0  0  0  0  0  0  0  0
   -1.3622   -1.5747   -1.4309 C   0  0  0  0  0  0  0  0  0  0  0  0
   -2.5084   -0.6778   -1.9056 C   0  0  0  0  0  0  0  0  0  0  0  0
   -2.1553    0.7986   -2.1131 C   0  0  0  0  0  0  0  0  0  0  0  0
   -1.5391    1.5705   -0.9807 C   0  0  0  0  0  0  0  0  0  0  0  0
   -0.8168    1.1822    0.0799 C   0  0  0  0  0  0  0  0  0  0  0  0
   -0.3592   -0.1591    0.4898 C   0  0  0  0  0  0  0  0  0  0  0  0
    0.5970   -0.2544    1.2448 O   0  0  0  0  0  0  0  0  0  0  0  0
    0.3913   -2.1671    1.0613 H   0  0  0  0  0  0  0  0  0  0  0  0
   -2.0326   -1.4385    0.6004 H   0  0  0  0  0  0  0  0  0  0  0  0
   -0.4494   -1.3922   -2.0116 H   0  0  0  0  0  0  0  0  0  0  0  0
   -1.6295   -2.6230   -1.5958 H   0  0  0  0  0  0  0  0  0  0  0  0
   -2.8898   -1.0599   -2.8588 H   0  0  0  0  0  0  0  0  0  0  0  0
   -3.3411   -0.7532   -1.1943 H   0  0  0  0  0  0  0  0  0  0  0  0
   -1.4658    0.8919   -2.9678 H   0  0  0  0  0  0  0  0  0  0  0  0
   -3.0581    1.3365   -2.4287 H   0  0  0  0  0  0  0  0  0  0  0  0
   -1.6556    2.6485   -1.0908 H   0  0  0  0  0  0  0  0  0  0  0  0
   -0.3986    1.9536    0.7216 H   0  0  0  0  0  0  0  0  0  0  0  0
  1  2  1  0
  2  3  1  0
  3  4  1  0
  4  5  1  0
  5  6  1  0
  6  7  2  0
  7  8  1  0
  8  9  2  0
  8  2  1  0
  1 10  1  0
  2 11  1  0
  3 12  1  0
  3 13  1  0
  4 14  1  0
  4 15  1  0
  5 16  1  0
  5 17  1  0
  6 18  1  0
  7 19  1  0
M  END
$$$$
