gdb 1231	4.7983612	0.5766939	0.5585628	1.6808	84.04	-0.25233	0.01561	0.26794	2038.4553	0.153609	-422.505825	-422.495278	-422.494334	-422.54285	36.692
 OpenBabel02181911403D

 19 19  0  0  1  0  0  0  0  0999 V2000
    2.2481   -5.8127   -0.4037 C   0  0  0  0  0  0  0  0  0  0  0  0
    3.3968   -4.8054   -0.2465 C   0  0  2  0  0  0  0  0  0  0  0  0
    4.3866   -5.2744    0.6659 O   0  0  0  0  0  0  0  0  0  0  0  0
    2.8970   -3.4783    0.1277 C   0  0  0  0  0  0  0  0  0  0  0  0
    2.4680   -2.4082    0.4807 C   0  0  0  0  0  0  0  0  0  0  0  0
    1.9923   -1.1179    0.8975 C   0  0  2  0  0  0  0  0  0  0  0  0
    0.7927   -1.0728    1.6956 O   0  0  0  0  0  0  0  0  0  0  0  0
    0.7356   -0.5356    0.3769 C   0  0  1  0  0  0  0  0  0  0  0  0
    0.5354    0.9514    0.2494 C   0  0  0  0  0  0  0  0  0  0  0  0
    1.6931   -5.9097    0.5349 H   0  0  0  0  0  0  0  0  0  0  0  0
    1.5488   -5.4892   -1.1801 H   0  0  0  0  0  0  0  0  0  0  0  0
    2.6583   -6.7891   -0.6739 H   0  0  0  0  0  0  0  0  0  0  0  0
    3.9266   -4.7251   -1.2037 H   0  0  0  0  0  0  0  0  0  0  0  0
    4.0101   -5.2200    1.5516 H   0  0  0  0  0  0  0  0  0  0  0  0
    2.7621   -0.4216    1.2301 H   0  0  0  0  0  0  0  0  0  0  0  0
    0.1705   -1.1535   -0.3223 H   0  0  0  0  0  0  0  0  0  0  0  0
    1.1620    1.4913    0.9642 H   0  0  0  0  0  0  0  0  0  0  0  0
    0.7838    1.2875   -0.7627 H   0  0  0  0  0  0  0  0  0  0  0  0
   -0.5098    1.2130    0.4447 H   0  0  0  0  0  0  0  0  0  0  0  0
  1  2  1  0  0  0  0
  1 10  1  0  0  0  0
  2 13  1  6  0  0  0
  2  4  1  0  0  0  0
  2  3  1  0  0  0  0
  3 14  1  0  0  0  0
  4  5  3  0  0  0  0
  5  6  1  0  0  0  0
  6 15  1  1  0  0  0
  6  7  1  0  0  0  0
  8 16  1  6  0  0  0
  8  6  1  0  0  0  0
  8  7  1  0  0  0  0
  9  8  1  0  0  0  0
  9 19  1  0  0  0  0
  9 17  1  0  0  0  0
 11  1  1  0  0  0  0
 12  1  1  0  0  0  0
 18  9  1  0  0  0  0
M TOR 0 0 1 2 13
M TOR 1 0 1 3 4
M TOR 2 1 3 4 5
M TOR 3 2 1 0 9
M TOR 4 2 1 0 10
M TOR 5 2 1 0 11
M TOR 6 2 1 3 4
M TOR 7 3 1 0 9
M TOR 8 3 1 0 10
M TOR 9 3 1 0 11
M TOR 10 3 1 2 13
M TOR 11 3 4 5 6
M TOR 12 3 4 5 7
M TOR 13 3 4 5 14
M TOR 14 4 3 1 12
M TOR 15 4 5 6 7
M TOR 16 4 5 7 8
M TOR 17 4 5 7 15
M TOR 18 5 6 7 8
M TOR 19 5 6 7 15
M TOR 20 5 7 8 16
M TOR 21 5 7 8 17
M TOR 22 5 7 8 18
M TOR 23 6 7 5 14
M TOR 24 6 7 8 16
M TOR 25 6 7 8 17
M TOR 26 6 7 8 18
M TOR 27 8 7 5 14
M  END
$$$$
