
     RDKit          3D

 19 21  0  0  0  0  0  0  0  0999 V2000
    0.0358    0.3035    0.2602 C   0  0  0  0  0  0  0  0  0  0  0  0
    1.5177    0.1530    0.0724 C   0  0  0  0  0  0  0  0  0  0  0  0
    2.1656    1.3729   -0.2652 O   0  0  0  0  0  0  0  0  0  0  0  0
    3.4955    1.3109    0.2583 C   0  0  0  0  0  0  0  0  0  0  0  0
    3.7514   -0.1829    0.4560 C   0  0  0  0  0  0  0  0  0  0  0  0
    3.5376   -0.9324   -0.9027 C   0  0  0  0  0  0  0  0  0  0  0  0
    2.0786   -1.1261   -0.5085 C   0  0  0  0  0  0  0  0  0  0  0  0
    1.2237   -2.0809   -1.0212 O   0  0  0  0  0  0  0  0  0  0  0  0
    2.3777   -0.7074    0.9521 C   0  0  0  0  0  0  0  0  0  0  0  0
   -0.1781    0.9875    1.0868 H   0  0  0  0  0  0  0  0  0  0  0  0
   -0.4207    0.7108   -0.6472 H   0  0  0  0  0  0  0  0  0  0  0  0
   -0.4256   -0.6646    0.4643 H   0  0  0  0  0  0  0  0  0  0  0  0
    4.1745    1.7758   -0.4646 H   0  0  0  0  0  0  0  0  0  0  0  0
    3.5615    1.8621    1.2090 H   0  0  0  0  0  0  0  0  0  0  0  0
    4.6471   -0.4319    1.0233 H   0  0  0  0  0  0  0  0  0  0  0  0
    3.7523   -0.3811   -1.8249 H   0  0  0  0  0  0  0  0  0  0  0  0
    4.0736   -1.8872   -0.9157 H   0  0  0  0  0  0  0  0  0  0  0  0
    1.6185   -2.9495   -0.8812 H   0  0  0  0  0  0  0  0  0  0  0  0
    2.1075   -1.1158    1.9175 H   0  0  0  0  0  0  0  0  0  0  0  0
  1  2  1  0
  2  3  1  0
  3  4  1  0
  4  5  1  0
  5  6  1  0
  6  7  1  0
  7  8  1  0
  7  9  1  0
  7  2  1  0
  9  2  1  0
  9  5  1  0
  1 10  1  0
  1 11  1  0
  1 12  1  0
  4 13  1  0
  4 14  1  0
  5 15  1  0
  6 16  1  0
  6 17  1  0
  8 18  1  0
  9 19  1  0
M  END
$$$$
