
     RDKit          3D

 19 21  0  0  0  0  0  0  0  0999 V2000
    0.4122    0.5275    0.7130 O   0  0  0  0  0  0  0  0  0  0  0  0
   -0.7479    1.0161    0.1266 C   0  0  0  0  0  0  0  0  0  0  0  0
   -0.6551    1.6591   -1.2679 C   0  0  0  0  0  0  0  0  0  0  0  0
   -2.0000    2.2884   -0.8261 C   0  0  0  0  0  0  0  0  0  0  0  0
   -2.9992    2.7002   -1.9167 C   0  0  0  0  0  0  0  0  0  0  0  0
   -3.3863    1.2881   -2.0448 O   0  0  0  0  0  0  0  0  0  0  0  0
   -2.9079    1.0777   -0.6836 C   0  0  0  0  0  0  0  0  0  0  0  0
   -1.9345    0.0196   -0.1286 C   0  0  0  0  0  0  0  0  0  0  0  0
   -1.4070    2.4079    0.5931 C   0  0  0  0  0  0  0  0  0  0  0  0
    0.1813    0.1118    1.5507 H   0  0  0  0  0  0  0  0  0  0  0  0
    0.1409    2.4046   -1.3334 H   0  0  0  0  0  0  0  0  0  0  0  0
   -0.6496    1.0006   -2.1390 H   0  0  0  0  0  0  0  0  0  0  0  0
   -3.8469    3.3077   -1.5732 H   0  0  0  0  0  0  0  0  0  0  0  0
   -2.6011    3.1007   -2.8530 H   0  0  0  0  0  0  0  0  0  0  0  0
   -3.7501    1.2420    0.0033 H   0  0  0  0  0  0  0  0  0  0  0  0
   -2.3181   -0.4632    0.7760 H   0  0  0  0  0  0  0  0  0  0  0  0
   -1.6321   -0.7558   -0.8365 H   0  0  0  0  0  0  0  0  0  0  0  0
   -0.6225    3.1545    0.7311 H   0  0  0  0  0  0  0  0  0  0  0  0
   -2.1062    2.4144    1.4343 H   0  0  0  0  0  0  0  0  0  0  0  0
  1  2  1  0
  2  3  1  0
  3  4  1  0
  4  5  1  0
  5  6  1  0
  6  7  1  0
  7  8  1  0
  4  9  1  0
  8  2  1  0
  9  2  1  0
  7  4  1  0
  1 10  1  0
  3 11  1  0
  3 12  1  0
  5 13  1  0
  5 14  1  0
  7 15  1  0
  8 16  1  0
  8 17  1  0
  9 18  1  0
  9 19  1  0
M  END
$$$$
