gdb 4032	3.3647868	1.5525677	1.352079	1.7995	74.53	-0.24083	0.06249	0.30332	1003.2526	0.15831	-422.483017	-422.475809	-422.474864	-422.514197	29.404
 OpenBabel02181911413D

 19 21  0  0  1  0  0  0  0  0999 V2000
   -0.0241   -0.1011    0.2634 C   0  0  0  0  0  0  0  0  0  0  0  0
    1.4604   -0.0803   -0.0480 C   0  0  2  0  0  0  0  0  0  0  0  0
    2.2463   -0.8099    0.9644 O   0  0  0  0  0  0  0  0  0  0  0  0
    2.6219    0.4359    1.6138 C   0  0  1  0  0  0  0  0  0  0  0  0
    3.9354    1.2298    1.4244 C   0  0  1  0  0  0  0  0  0  0  0  0
    3.7894    1.0513   -0.0821 C   0  0  0  0  0  0  0  0  0  0  0  0
    2.2614    1.1792    0.3036 C   0  0  1  0  0  0  0  0  0  0  0  0
    2.1956    2.6178    0.7633 C   0  0  0  0  0  0  0  0  0  0  0  0
    3.3814    2.5692    1.6338 O   0  0  0  0  0  0  0  0  0  0  0  0
   -0.2342    0.3379    1.2430 H   0  0  0  0  0  0  0  0  0  0  0  0
   -0.5787    0.4609   -0.4958 H   0  0  0  0  0  0  0  0  0  0  0  0
   -0.3903   -1.1318    0.2651 H   0  0  0  0  0  0  0  0  0  0  0  0
    1.6577   -0.4904   -1.0448 H   0  0  0  0  0  0  0  0  0  0  0  0
    2.0965    0.5851    2.5606 H   0  0  0  0  0  0  0  0  0  0  0  0
    4.8534    1.1532    2.0063 H   0  0  0  0  0  0  0  0  0  0  0  0
    4.2177    1.8318   -0.7135 H   0  0  0  0  0  0  0  0  0  0  0  0
    4.0385    0.0547   -0.4410 H   0  0  0  0  0  0  0  0  0  0  0  0
    2.3437    3.3792   -0.0098 H   0  0  0  0  0  0  0  0  0  0  0  0
    1.3150    2.8675    1.3624 H   0  0  0  0  0  0  0  0  0  0  0  0
  1 12  1  0  0  0  0
  1 10  1  0  0  0  0
  2 13  1  6  0  0  0
  2  1  1  0  0  0  0
  2  7  1  0  0  0  0
  2  3  1  0  0  0  0
  3  4  1  0  0  0  0
  4 14  1  1  0  0  0
  5  4  1  0  0  0  0
  5  9  1  0  0  0  0
  5 15  1  1  0  0  0
  6  5  1  0  0  0  0
  7  6  1  6  0  0  0
  7  8  1  0  0  0  0
  7  4  1  0  0  0  0
  8 19  1  0  0  0  0
  8  9  1  0  0  0  0
 11  1  1  0  0  0  0
 16  6  1  0  0  0  0
 17  6  1  0  0  0  0
 18  8  1  0  0  0  0
M TOR 0 0 1 2 3
M TOR 1 0 1 6 3
M TOR 2 0 1 6 5
M TOR 3 0 1 6 7
M TOR 4 1 2 3 4
M TOR 5 1 2 3 6
M TOR 6 1 2 3 13
M TOR 7 1 6 3 4
M TOR 8 1 6 3 13
M TOR 9 1 6 5 4
M TOR 10 1 6 5 15
M TOR 11 1 6 5 16
M TOR 12 1 6 7 8
M TOR 13 1 6 7 17
M TOR 14 1 6 7 18
M TOR 15 2 1 0 9
M TOR 16 2 1 0 10
M TOR 17 2 1 0 11
M TOR 18 2 1 6 5
M TOR 19 2 1 6 7
M TOR 20 2 3 4 5
M TOR 21 2 3 4 8
M TOR 22 2 3 4 14
M TOR 23 2 3 6 5
M TOR 24 2 3 6 7
M TOR 25 3 2 1 12
M TOR 26 3 4 5 6
M TOR 27 3 4 5 15
M TOR 28 3 4 5 16
M TOR 29 3 4 8 7
M TOR 30 3 6 1 12
M TOR 31 3 6 5 15
M TOR 32 3 6 5 16
M TOR 33 3 6 7 8
M TOR 34 3 6 7 17
M TOR 35 3 6 7 18
M TOR 36 4 3 6 7
M TOR 37 4 5 6 7
M TOR 38 4 8 7 6
M TOR 39 4 8 7 17
M TOR 40 4 8 7 18
M TOR 41 5 4 3 13
M TOR 42 5 4 8 7
M TOR 43 5 6 1 12
M TOR 44 5 6 3 13
M TOR 45 5 6 7 8
M TOR 46 5 6 7 17
M TOR 47 5 6 7 18
M TOR 48 6 1 0 9
M TOR 49 6 1 0 10
M TOR 50 6 1 0 11
M TOR 51 6 3 4 8
M TOR 52 6 3 4 14
M TOR 53 6 5 4 8
M TOR 54 6 5 4 14
M TOR 55 7 6 1 12
M TOR 56 7 6 3 13
M TOR 57 7 6 5 15
M TOR 58 7 6 5 16
M TOR 59 7 8 4 14
M TOR 60 8 4 3 13
M TOR 61 8 4 5 15
M TOR 62 8 4 5 16
M  END
$$$$
