
     RDKit          3D

 19 20  0  0  0  0  0  0  0  0999 V2000
   -0.5496   -2.4268    1.0931 O   0  0  0  0  0  0  0  0  0  0  0  0
   -0.2490   -1.2562    1.0215 C   0  0  0  0  0  0  0  0  0  0  0  0
   -0.6078   -0.2832    2.1460 C   0  0  0  0  0  0  0  0  0  0  0  0
    0.4941    0.7061    2.5607 C   0  0  0  0  0  0  0  0  0  0  0  0
    0.8245    1.7016    1.6088 O   0  0  0  0  0  0  0  0  0  0  0  0
    1.2238    1.2913    0.3139 C   0  0  0  0  0  0  0  0  0  0  0  0
    1.8869   -0.1093    0.1987 C   0  0  0  0  0  0  0  0  0  0  0  0
    0.4883   -0.7049   -0.1842 C   0  0  0  0  0  0  0  0  0  0  0  0
    0.0674    0.7471   -0.5725 C   0  0  0  0  0  0  0  0  0  0  0  0
   -1.4944    0.2862    1.8376 H   0  0  0  0  0  0  0  0  0  0  0  0
   -0.8963   -0.8880    3.0104 H   0  0  0  0  0  0  0  0  0  0  0  0
    0.1514    1.2658    3.4358 H   0  0  0  0  0  0  0  0  0  0  0  0
    1.3898    0.1479    2.8699 H   0  0  0  0  0  0  0  0  0  0  0  0
    1.7869    2.1372   -0.0868 H   0  0  0  0  0  0  0  0  0  0  0  0
    2.5556   -0.1404   -0.6646 H   0  0  0  0  0  0  0  0  0  0  0  0
    2.4196   -0.5182    1.0590 H   0  0  0  0  0  0  0  0  0  0  0  0
    0.4785   -1.4677   -0.9631 H   0  0  0  0  0  0  0  0  0  0  0  0
    0.2591    0.9352   -1.6320 H   0  0  0  0  0  0  0  0  0  0  0  0
   -0.9427    1.0827   -0.3293 H   0  0  0  0  0  0  0  0  0  0  0  0
  1  2  2  0
  2  3  1  0
  3  4  1  0
  4  5  1  0
  5  6  1  0
  6  7  1  0
  7  8  1  0
  8  9  1  0
  8  2  1  0
  9  6  1  0
  3 10  1  0
  3 11  1  0
  4 12  1  0
  4 13  1  0
  6 14  1  0
  7 15  1  0
  7 16  1  0
  8 17  1  0
  9 18  1  0
  9 19  1  0
M  END
$$$$
