
     RDKit          3D

 19 19  0  0  0  0  0  0  0  0999 V2000
    0.5095   -2.6664   -0.0677 C   0  0  0  0  0  0  0  0  0  0  0  0
   -0.3281   -1.4388    0.0761 C   0  0  0  0  0  0  0  0  0  0  0  0
    0.0624   -0.1521   -0.0609 C   0  0  0  0  0  0  0  0  0  0  0  0
    1.4131    0.4246   -0.3457 C   0  0  0  0  0  0  0  0  0  0  0  0
   -1.0944    0.7196    0.2104 C   0  0  0  0  0  0  0  0  0  0  0  0
   -1.1042    1.9145    0.4287 O   0  0  0  0  0  0  0  0  0  0  0  0
   -2.3535   -0.1523    0.2557 C   0  0  0  0  0  0  0  0  0  0  0  0
   -3.2387    0.2654    1.2647 O   0  0  0  0  0  0  0  0  0  0  0  0
   -1.7945   -1.5680    0.4468 C   0  0  0  0  0  0  0  0  0  0  0  0
    0.4766   -3.2665    0.8501 H   0  0  0  0  0  0  0  0  0  0  0  0
    0.1121   -3.3056   -0.8666 H   0  0  0  0  0  0  0  0  0  0  0  0
    1.5527   -2.4421   -0.2980 H   0  0  0  0  0  0  0  0  0  0  0  0
    1.5876    1.2867    0.3057 H   0  0  0  0  0  0  0  0  0  0  0  0
    2.2196   -0.2970   -0.1977 H   0  0  0  0  0  0  0  0  0  0  0  0
    1.4751    0.7945   -1.3761 H   0  0  0  0  0  0  0  0  0  0  0  0
   -2.8294   -0.0829   -0.7387 H   0  0  0  0  0  0  0  0  0  0  0  0
   -3.0854    1.2168    1.3611 H   0  0  0  0  0  0  0  0  0  0  0  0
   -1.9045   -1.8635    1.4976 H   0  0  0  0  0  0  0  0  0  0  0  0
   -2.3033   -2.3293   -0.1546 H   0  0  0  0  0  0  0  0  0  0  0  0
  1  2  1  0
  2  3  2  0
  3  4  1  0
  3  5  1  0
  5  6  2  0
  5  7  1  0
  7  8  1  0
  7  9  1  0
  9  2  1  0
  1 10  1  0
  1 11  1  0
  1 12  1  0
  4 13  1  0
  4 14  1  0
  4 15  1  0
  7 16  1  0
  8 17  1  0
  9 18  1  0
  9 19  1  0
M  END
$$$$
