
     RDKit          3D

 19 21  0  0  0  0  0  0  0  0999 V2000
    0.5445    0.1988    0.6487 O   0  0  0  0  0  0  0  0  0  0  0  0
   -0.4365    1.0457    1.1970 C   0  0  0  0  0  0  0  0  0  0  0  0
   -1.0012    0.6107    2.5780 C   0  0  0  0  0  0  0  0  0  0  0  0
   -1.6395   -0.7320    2.1527 C   0  0  0  0  0  0  0  0  0  0  0  0
   -2.0868   -0.4948    0.7909 O   0  0  0  0  0  0  0  0  0  0  0  0
   -1.8138    0.9056    0.5233 C   0  0  0  0  0  0  0  0  0  0  0  0
   -2.7599    1.7311    1.3796 C   0  0  0  0  0  0  0  0  0  0  0  0
   -2.2262    2.9177    2.1468 C   0  0  0  0  0  0  0  0  0  0  0  0
   -2.1892    1.5527    2.7849 C   0  0  0  0  0  0  0  0  0  0  0  0
    0.0783   -0.5751    0.3074 H   0  0  0  0  0  0  0  0  0  0  0  0
   -0.0166    2.0499    1.1936 H   0  0  0  0  0  0  0  0  0  0  0  0
   -0.2771    0.5349    3.3897 H   0  0  0  0  0  0  0  0  0  0  0  0
   -0.9206   -1.5588    2.1489 H   0  0  0  0  0  0  0  0  0  0  0  0
   -2.4933   -1.0103    2.7798 H   0  0  0  0  0  0  0  0  0  0  0  0
   -1.8540    1.0473   -0.5572 H   0  0  0  0  0  0  0  0  0  0  0  0
   -3.8217    1.6565    1.1760 H   0  0  0  0  0  0  0  0  0  0  0  0
   -1.3258    3.4347    1.8380 H   0  0  0  0  0  0  0  0  0  0  0  0
   -2.9846    3.5855    2.5418 H   0  0  0  0  0  0  0  0  0  0  0  0
   -2.8406    1.3629    3.6314 H   0  0  0  0  0  0  0  0  0  0  0  0
  1  2  1  0
  2  3  1  0
  3  4  1  0
  4  5  1  0
  5  6  1  0
  6  7  1  0
  7  8  1  0
  8  9  1  0
  6  2  1  0
  9  7  1  0
  9  3  1  0
  1 10  1  0
  2 11  1  0
  3 12  1  0
  4 13  1  0
  4 14  1  0
  6 15  1  0
  7 16  1  0
  8 17  1  0
  8 18  1  0
  9 19  1  0
M  END
$$$$
