gdb 1154	3.409461	1.1228061	0.9635292	2.8583	76.46	-0.23258	-0.00981	0.22277000000000002	1260.4553	0.154884	-422.531918	-422.522796	-422.521852	-422.567003	32.955
 OpenBabel02181911403D

 19 20  0  0  1  0  0  0  0  0999 V2000
    6.5345    1.7106   -1.6907 C   0  0  0  0  0  0  0  0  0  0  0  0
    5.3009    2.5420   -1.4055 C   0  0  0  0  0  0  0  0  0  0  0  0
    5.2834    3.7459   -1.5080 O   0  0  0  0  0  0  0  0  0  0  0  0
    4.0407    1.7678   -0.9927 C   0  0  0  0  0  0  0  0  0  0  0  0
    3.4156    1.0804   -2.1735 C   0  0  2  0  0  0  0  0  0  0  0  0
    2.5857    1.7157   -3.2457 C   0  0  0  0  0  0  0  0  0  0  0  0
    2.0398    0.5244   -2.4783 C   0  0  1  0  0  0  0  0  0  0  0  0
    2.7848   -0.7262   -2.9245 C   0  0  0  0  0  0  0  0  0  0  0  0
    4.0729   -0.0895   -2.6927 O   0  0  0  0  0  0  0  0  0  0  0  0
    6.8735    1.2274   -0.7662 H   0  0  0  0  0  0  0  0  0  0  0  0
    6.2929    0.9064   -2.3932 H   0  0  0  0  0  0  0  0  0  0  0  0
    7.3308    2.3442   -2.0829 H   0  0  0  0  0  0  0  0  0  0  0  0
    4.2850    1.0185   -0.2304 H   0  0  0  0  0  0  0  0  0  0  0  0
    3.3323    2.4883   -0.5767 H   0  0  0  0  0  0  0  0  0  0  0  0
    2.1353    2.6679   -2.9845 H   0  0  0  0  0  0  0  0  0  0  0  0
    2.8802    1.6137   -4.2868 H   0  0  0  0  0  0  0  0  0  0  0  0
    1.1227    0.5536   -1.9059 H   0  0  0  0  0  0  0  0  0  0  0  0
    2.6571   -1.5835   -2.2545 H   0  0  0  0  0  0  0  0  0  0  0  0
    2.6634   -1.0472   -3.9658 H   0  0  0  0  0  0  0  0  0  0  0  0
  1  2  1  0  0  0  0
  1 10  1  0  0  0  0
  2  4  1  0  0  0  0
  3  2  2  0  0  0  0
  4 14  1  0  0  0  0
  4 13  1  0  0  0  0
  5  4  1  1  0  0  0
  6 15  1  0  0  0  0
  6  7  1  0  0  0  0
  6  5  1  0  0  0  0
  7  5  1  0  0  0  0
  7 17  1  1  0  0  0
  8  9  1  0  0  0  0
  8  7  1  0  0  0  0
  8 18  1  0  0  0  0
  9  5  1  0  0  0  0
 11  1  1  0  0  0  0
 12  1  1  0  0  0  0
 16  6  1  0  0  0  0
 19  8  1  0  0  0  0
M TOR 0 0 1 3 4
M TOR 1 0 1 3 12
M TOR 2 0 1 3 13
M TOR 3 1 3 4 5
M TOR 4 1 3 4 6
M TOR 5 1 3 4 8
M TOR 6 2 1 0 9
M TOR 7 2 1 0 10
M TOR 8 2 1 0 11
M TOR 9 2 1 3 4
M TOR 10 2 1 3 12
M TOR 11 2 1 3 13
M TOR 12 3 1 0 9
M TOR 13 3 1 0 10
M TOR 14 3 1 0 11
M TOR 15 3 4 5 6
M TOR 16 3 4 5 14
M TOR 17 3 4 5 15
M TOR 18 3 4 6 7
M TOR 19 3 4 6 16
M TOR 20 3 4 8 7
M TOR 21 4 5 6 7
M TOR 22 4 5 6 16
M TOR 23 4 6 5 14
M TOR 24 4 6 5 15
M TOR 25 4 6 7 8
M TOR 26 4 6 7 17
M TOR 27 4 6 7 18
M TOR 28 4 8 7 17
M TOR 29 4 8 7 18
M TOR 30 5 4 3 12
M TOR 31 5 4 3 13
M TOR 32 5 4 8 7
M TOR 33 5 6 4 8
M TOR 34 5 6 7 8
M TOR 35 5 6 7 17
M TOR 36 5 6 7 18
M TOR 37 6 4 3 12
M TOR 38 6 4 3 13
M TOR 39 7 6 5 14
M TOR 40 7 6 5 15
M TOR 41 8 4 3 12
M TOR 42 8 4 3 13
M TOR 43 8 4 5 14
M TOR 44 8 4 5 15
M TOR 45 8 4 6 16
M TOR 46 8 7 6 16
M  END
$$$$
