gdb 4552	2.9444485	1.251596	0.9800959	5.1216	79.44	-0.25893	-0.03907	0.21986	1235.6159	0.158082	-422.596225	-422.587755	-422.586811	-422.629511	31.772
 OpenBabel02181911413D

 19 19  0  0  1  0  0  0  0  0999 V2000
   -3.3782    1.5207    2.5246 C   0  0  0  0  0  0  0  0  0  0  0  0
   -2.0485    0.7725    2.3097 C   0  0  1  0  0  0  0  0  0  0  0  0
   -2.2866   -0.6935    1.9326 C   0  0  0  0  0  0  0  0  0  0  0  0
   -1.0202   -1.4222    1.4932 C   0  0  0  0  0  0  0  0  0  0  0  0
   -0.7772   -1.3149    0.0882 O   0  0  0  0  0  0  0  0  0  0  0  0
   -0.5062   -0.1313   -0.5106 C   0  0  0  0  0  0  0  0  0  0  0  0
   -0.2250   -0.1358   -1.6835 O   0  0  0  0  0  0  0  0  0  0  0  0
   -0.5340    1.1524    0.2430 C   0  0  0  0  0  0  0  0  0  0  0  0
   -1.1679    1.5320    1.3581 C   0  0  0  0  0  0  0  0  0  0  0  0
   -3.9883    1.0110    3.2767 H   0  0  0  0  0  0  0  0  0  0  0  0
   -3.2080    2.5462    2.8662 H   0  0  0  0  0  0  0  0  0  0  0  0
   -3.9531    1.5660    1.5940 H   0  0  0  0  0  0  0  0  0  0  0  0
   -1.5177    0.7849    3.2760 H   0  0  0  0  0  0  0  0  0  0  0  0
   -2.7225   -1.2101    2.7954 H   0  0  0  0  0  0  0  0  0  0  0  0
   -3.0198   -0.7705    1.1206 H   0  0  0  0  0  0  0  0  0  0  0  0
   -0.1444   -1.0715    2.0542 H   0  0  0  0  0  0  0  0  0  0  0  0
   -1.1152   -2.4978    1.6568 H   0  0  0  0  0  0  0  0  0  0  0  0
    0.0208    1.9062   -0.3072 H   0  0  0  0  0  0  0  0  0  0  0  0
   -1.0415    2.5785    1.6371 H   0  0  0  0  0  0  0  0  0  0  0  0
  1 11  1  0  0  0  0
  1 10  1  0  0  0  0
  2  1  1  0  0  0  0
  2 13  1  1  0  0  0
  3  2  1  0  0  0  0
  3 14  1  0  0  0  0
  4 17  1  0  0  0  0
  4  3  1  0  0  0  0
  4 16  1  0  0  0  0
  5  4  1  0  0  0  0
  6  5  1  0  0  0  0
  6  8  1  0  0  0  0
  7  6  2  0  0  0  0
  8  9  2  0  0  0  0
  9 19  1  0  0  0  0
  9  2  1  0  0  0  0
 12  1  1  0  0  0  0
 15  3  1  0  0  0  0
 18  8  1  0  0  0  0
M TOR 0 0 1 2 3
M TOR 1 0 1 2 13
M TOR 2 0 1 2 14
M TOR 3 0 1 8 7
M TOR 4 0 1 8 18
M TOR 5 1 2 3 4
M TOR 6 1 2 3 15
M TOR 7 1 2 3 16
M TOR 8 1 8 7 5
M TOR 9 1 8 7 17
M TOR 10 2 1 0 9
M TOR 11 2 1 0 10
M TOR 12 2 1 0 11
M TOR 13 2 1 8 7
M TOR 14 2 1 8 18
M TOR 15 2 3 4 5
M TOR 16 3 2 1 8
M TOR 17 3 2 1 12
M TOR 18 3 4 5 6
M TOR 19 3 4 5 7
M TOR 20 4 3 2 13
M TOR 21 4 3 2 14
M TOR 22 4 5 7 8
M TOR 23 4 5 7 17
M TOR 24 5 4 3 15
M TOR 25 5 4 3 16
M TOR 26 5 7 8 18
M TOR 27 6 5 7 8
M TOR 28 6 5 7 17
M TOR 29 7 8 1 12
M TOR 30 8 1 0 9
M TOR 31 8 1 0 10
M TOR 32 8 1 0 11
M TOR 33 8 1 2 13
M TOR 34 8 1 2 14
M  END
$$$$
