gdb 4735	2.5149378	0.8342496	0.7401161	3.9639	83.71	-0.26585	-0.06044	0.20540999999999998	1610.2871	0.152399	-422.537717	-422.526638	-422.525693	-422.574678	38.122
 OpenBabel02181911413D

 19 18  0  0  1  0  0  0  0  0999 V2000
    0.8161   -0.3966    0.8443 C   0  0  0  0  0  0  0  0  0  0  0  0
    1.2691    0.0659   -0.5405 C   0  0  0  0  0  0  0  0  0  0  0  0
    2.1338    1.3535   -0.5261 C   0  0  2  0  0  0  0  0  0  0  0  0
    2.5775    1.7245   -1.9556 C   0  0  0  0  0  0  0  0  0  0  0  0
    3.2783    1.1839    0.3170 O   0  0  0  0  0  0  0  0  0  0  0  0
    1.3646    2.4673    0.0371 C   0  0  0  0  0  0  0  0  0  0  0  0
    0.6907    3.3825    0.4458 C   0  0  0  0  0  0  0  0  0  0  0  0
   -0.0734    4.4818    0.9752 C   0  0  0  0  0  0  0  0  0  0  0  0
   -1.1238    4.8708    0.5174 O   0  0  0  0  0  0  0  0  0  0  0  0
    0.2825   -1.3488    0.7765 H   0  0  0  0  0  0  0  0  0  0  0  0
    1.6749   -0.5266    1.5076 H   0  0  0  0  0  0  0  0  0  0  0  0
    0.1445    0.3345    1.3036 H   0  0  0  0  0  0  0  0  0  0  0  0
    1.8753   -0.7151   -1.0200 H   0  0  0  0  0  0  0  0  0  0  0  0
    0.4055    0.2338   -1.1932 H   0  0  0  0  0  0  0  0  0  0  0  0
    3.1502    0.8952   -2.3864 H   0  0  0  0  0  0  0  0  0  0  0  0
    1.7163    1.9175   -2.6002 H   0  0  0  0  0  0  0  0  0  0  0  0
    3.2105    2.6141   -1.9336 H   0  0  0  0  0  0  0  0  0  0  0  0
    3.8173    0.4879   -0.0761 H   0  0  0  0  0  0  0  0  0  0  0  0
    0.3855    4.9627    1.8628 H   0  0  0  0  0  0  0  0  0  0  0  0
  1 12  1  0  0  0  0
  1 11  1  0  0  0  0
  2  3  1  0  0  0  0
  2  1  1  0  0  0  0
  3  6  1  1  0  0  0
  3  5  1  0  0  0  0
  4 17  1  0  0  0  0
  4  3  1  0  0  0  0
  6  7  3  0  0  0  0
  7  8  1  0  0  0  0
  8 19  1  0  0  0  0
  9  8  2  0  0  0  0
 10  1  1  0  0  0  0
 13  2  1  0  0  0  0
 14  2  1  0  0  0  0
 15  4  1  0  0  0  0
 16  4  1  0  0  0  0
 18  5  1  0  0  0  0
M TOR 0 0 1 2 3
M TOR 1 0 1 2 4
M TOR 2 0 1 2 5
M TOR 3 1 2 3 14
M TOR 4 1 2 3 15
M TOR 5 1 2 3 16
M TOR 6 1 2 4 17
M TOR 7 1 2 5 6
M TOR 8 2 1 0 9
M TOR 9 2 1 0 10
M TOR 10 2 1 0 11
M TOR 11 2 5 6 7
M TOR 12 3 2 1 12
M TOR 13 3 2 1 13
M TOR 14 3 2 4 17
M TOR 15 3 2 5 6
M TOR 16 4 2 1 12
M TOR 17 4 2 1 13
M TOR 18 4 2 3 14
M TOR 19 4 2 3 15
M TOR 20 4 2 3 16
M TOR 21 4 2 5 6
M TOR 22 5 2 1 12
M TOR 23 5 2 1 13
M TOR 24 5 2 3 14
M TOR 25 5 2 3 15
M TOR 26 5 2 3 16
M TOR 27 5 2 4 17
M TOR 28 5 6 7 8
M TOR 29 5 6 7 18
M  END
$$$$
