gdb 1710	2.7131204	1.3085291	1.1842184	1.9879	76.04	-0.24173	-0.02839	0.21334	1144.1957	0.155346	-422.549798	-422.540721	-422.539776	-422.583803	33.744
 OpenBabel02181911403D

 19 20  0  0  1  0  0  0  0  0999 V2000
   -1.2714    1.9444    1.1914 O   0  0  0  0  0  0  0  0  0  0  0  0
   -1.1623    1.0375    0.1205 C   0  0  2  0  0  0  0  0  0  0  0  0
   -2.1920   -0.1486    0.0728 C   0  0  0  0  0  0  0  0  0  0  0  0
   -1.0249   -1.1628   -0.1567 C   0  0  0  0  0  0  0  0  0  0  0  0
   -0.0926   -0.0523    0.3352 C   0  0  0  0  0  0  0  0  0  0  0  0
    0.9391   -0.0211    0.9465 O   0  0  0  0  0  0  0  0  0  0  0  0
   -1.0457    1.7623   -1.2099 C   0  0  0  0  0  0  0  0  0  0  0  0
   -0.2554    3.0387   -1.3160 C   0  0  0  0  0  0  0  0  0  0  0  0
   -1.7612    3.0746   -1.4108 C   0  0  0  0  0  0  0  0  0  0  0  0
   -0.4701    1.8483    1.7217 H   0  0  0  0  0  0  0  0  0  0  0  0
   -2.6668   -0.2815    1.0461 H   0  0  0  0  0  0  0  0  0  0  0  0
   -2.9507   -0.0867   -0.7079 H   0  0  0  0  0  0  0  0  0  0  0  0
   -1.0103   -2.0888    0.4211 H   0  0  0  0  0  0  0  0  0  0  0  0
   -0.8691   -1.4015   -1.2132 H   0  0  0  0  0  0  0  0  0  0  0  0
   -1.0099    1.0974   -2.0688 H   0  0  0  0  0  0  0  0  0  0  0  0
    0.1847    3.4265   -0.4048 H   0  0  0  0  0  0  0  0  0  0  0  0
    0.3313    3.2050   -2.2123 H   0  0  0  0  0  0  0  0  0  0  0  0
   -2.2954    3.4808   -0.5604 H   0  0  0  0  0  0  0  0  0  0  0  0
   -2.2196    3.2620   -2.3753 H   0  0  0  0  0  0  0  0  0  0  0  0
  1 10  1  0  0  0  0
  2  5  1  0  0  0  0
  2  1  1  1  0  0  0
  3  2  1  0  0  0  0
  3 11  1  0  0  0  0
  4  3  1  0  0  0  0
  4  5  1  0  0  0  0
  4 13  1  0  0  0  0
  5  6  2  0  0  0  0
  7  2  1  0  0  0  0
  8  7  1  0  0  0  0
  8 16  1  0  0  0  0
  9  8  1  0  0  0  0
  9  7  1  0  0  0  0
  9 18  1  0  0  0  0
 12  3  1  0  0  0  0
 14  4  1  0  0  0  0
 15  7  1  0  0  0  0
 17  8  1  0  0  0  0
 19  9  1  0  0  0  0
M TOR 0 0 1 2 3
M TOR 1 0 1 2 10
M TOR 2 0 1 2 11
M TOR 3 0 1 4 3
M TOR 4 0 1 4 5
M TOR 5 0 1 6 7
M TOR 6 0 1 6 8
M TOR 7 0 1 6 14
M TOR 8 1 2 3 4
M TOR 9 1 2 3 12
M TOR 10 1 2 3 13
M TOR 11 1 4 3 12
M TOR 12 1 4 3 13
M TOR 13 1 6 7 8
M TOR 14 1 6 7 15
M TOR 15 1 6 7 16
M TOR 16 1 6 8 17
M TOR 17 1 6 8 18
M TOR 18 2 1 0 9
M TOR 19 2 1 4 5
M TOR 20 2 1 6 7
M TOR 21 2 1 6 8
M TOR 22 2 1 6 14
M TOR 23 2 3 4 5
M TOR 24 3 2 1 6
M TOR 25 3 4 1 6
M TOR 26 4 1 0 9
M TOR 27 4 1 2 10
M TOR 28 4 1 2 11
M TOR 29 4 1 6 7
M TOR 30 4 1 6 8
M TOR 31 4 1 6 14
M TOR 32 4 3 2 10
M TOR 33 4 3 2 11
M TOR 34 5 4 1 6
M TOR 35 5 4 3 12
M TOR 36 5 4 3 13
M TOR 37 6 1 0 9
M TOR 38 6 1 2 10
M TOR 39 6 1 2 11
M TOR 40 6 7 8 17
M TOR 41 6 7 8 18
M TOR 42 6 8 7 15
M TOR 43 6 8 7 16
M TOR 44 7 8 6 14
M  END
$$$$
