gdb 2098	2.4751191	1.8953188	1.3913186	0.9745	74.53	-0.22617	0.0713	0.29747	988.3737	0.157014	-422.531077	-422.523036	-422.522092	-422.563013	31.596
 OpenBabel02181911403D

 19 21  0  0  1  0  0  0  0  0999 V2000
   -0.0452    0.1166    0.1833 C   0  0  0  0  0  0  0  0  0  0  0  0
    1.4539    0.0422    0.1104 C   0  0  1  0  0  0  0  0  0  0  0  0
    2.3651   -1.2175    0.1191 C   0  0  0  0  0  0  0  0  0  0  0  0
    3.3404   -0.0382    0.0303 C   0  0  1  0  0  0  0  0  0  0  0  0
    4.7147   -0.1504   -0.0310 O   0  0  0  0  0  0  0  0  0  0  0  0
    2.3781    0.6826   -0.9876 C   0  0  2  0  0  0  0  0  0  0  0  0
    2.4591    2.1701   -0.6789 C   0  0  0  0  0  0  0  0  0  0  0  0
    2.5335    2.1459    0.7612 O   0  0  0  0  0  0  0  0  0  0  0  0
    2.4765    0.7557    1.0464 C   0  0  1  0  0  0  0  0  0  0  0  0
   -0.4203   -0.3691    1.0906 H   0  0  0  0  0  0  0  0  0  0  0  0
   -0.3828    1.1585    0.2008 H   0  0  0  0  0  0  0  0  0  0  0  0
   -0.5122   -0.3755   -0.6767 H   0  0  0  0  0  0  0  0  0  0  0  0
    2.3847   -1.8063    1.0414 H   0  0  0  0  0  0  0  0  0  0  0  0
    2.3021   -1.8631   -0.7604 H   0  0  0  0  0  0  0  0  0  0  0  0
    5.0962    0.7052    0.1962 H   0  0  0  0  0  0  0  0  0  0  0  0
    2.3182    0.3430   -2.0219 H   0  0  0  0  0  0  0  0  0  0  0  0
    3.3527    2.6542   -1.0953 H   0  0  0  0  0  0  0  0  0  0  0  0
    1.5775    2.7397   -0.9987 H   0  0  0  0  0  0  0  0  0  0  0  0
    2.5127    0.5734    2.1204 H   0  0  0  0  0  0  0  0  0  0  0  0
  1 11  1  0  0  0  0
  1 10  1  0  0  0  0
  2  3  1  0  0  0  0
  2  1  1  1  0  0  0
  2  9  1  0  0  0  0
  3 13  1  0  0  0  0
  4  5  1  6  0  0  0
  4  3  1  0  0  0  0
  4  9  1  0  0  0  0
  5 15  1  0  0  0  0
  6 16  1  6  0  0  0
  6  7  1  0  0  0  0
  6  4  1  0  0  0  0
  6  2  1  0  0  0  0
  7  8  1  0  0  0  0
  8  9  1  0  0  0  0
  9 19  1  1  0  0  0
 12  1  1  0  0  0  0
 14  3  1  0  0  0  0
 17  7  1  0  0  0  0
 18  7  1  0  0  0  0
M TOR 0 0 1 2 3
M TOR 1 0 1 2 12
M TOR 2 0 1 2 13
M TOR 3 0 1 5 3
M TOR 4 0 1 5 6
M TOR 5 0 1 5 15
M TOR 6 0 1 8 3
M TOR 7 0 1 8 7
M TOR 8 0 1 8 18
M TOR 9 1 2 3 4
M TOR 10 1 2 3 5
M TOR 11 1 2 3 8
M TOR 12 1 5 3 4
M TOR 13 1 5 3 8
M TOR 14 1 5 6 7
M TOR 15 1 5 6 16
M TOR 16 1 5 6 17
M TOR 17 1 8 3 4
M TOR 18 1 8 7 6
M TOR 19 2 1 0 9
M TOR 20 2 1 0 10
M TOR 21 2 1 0 11
M TOR 22 2 1 5 6
M TOR 23 2 1 5 15
M TOR 24 2 1 8 7
M TOR 25 2 1 8 18
M TOR 26 2 3 4 14
M TOR 27 2 3 5 6
M TOR 28 2 3 5 15
M TOR 29 2 3 8 7
M TOR 30 2 3 8 18
M TOR 31 3 5 6 7
M TOR 32 3 5 6 16
M TOR 33 3 5 6 17
M TOR 34 3 8 7 6
M TOR 35 4 3 2 12
M TOR 36 4 3 2 13
M TOR 37 4 3 5 6
M TOR 38 4 3 5 15
M TOR 39 4 3 8 7
M TOR 40 4 3 8 18
M TOR 41 5 1 0 9
M TOR 42 5 1 0 10
M TOR 43 5 1 0 11
M TOR 44 5 1 2 12
M TOR 45 5 1 2 13
M TOR 46 5 1 8 7
M TOR 47 5 1 8 18
M TOR 48 5 3 2 12
M TOR 49 5 3 2 13
M TOR 50 5 3 4 14
M TOR 51 5 3 8 7
M TOR 52 5 3 8 18
M TOR 53 5 6 7 8
M TOR 54 6 5 1 8
M TOR 55 6 5 3 8
M TOR 56 6 7 8 18
M TOR 57 7 6 5 15
M TOR 58 8 1 0 9
M TOR 59 8 1 0 10
M TOR 60 8 1 0 11
M TOR 61 8 1 2 12
M TOR 62 8 1 2 13
M TOR 63 8 1 5 15
M TOR 64 8 3 2 12
M TOR 65 8 3 2 13
M TOR 66 8 3 4 14
M TOR 67 8 3 5 15
M TOR 68 8 7 6 16
M TOR 69 8 7 6 17
M  END
$$$$
