gdb 811	2.4733676	1.5293789	1.3405751	2.7573	74.73	-0.25336	-0.02798	0.22537999999999997	1051.1048	0.157521	-422.56604	-422.557839	-422.556895	-422.599634	30.341
 OpenBabel02181911403D

 19 20  0  0  1  0  0  0  0  0999 V2000
    1.0067   -0.3728   -0.7275 O   0  0  0  0  0  0  0  0  0  0  0  0
    0.1984   -0.0608    0.1107 C   0  0  0  0  0  0  0  0  0  0  0  0
    0.1684    1.2555    0.8310 C   0  0  2  0  0  0  0  0  0  0  0  0
   -0.9730    2.2196    0.4058 C   0  0  0  0  0  0  0  0  0  0  0  0
   -0.0328    3.2553    0.0780 O   0  0  0  0  0  0  0  0  0  0  0  0
    1.1062    2.3998    0.3636 C   0  0  1  0  0  0  0  0  0  0  0  0
    1.8930    2.8596    1.5849 C   0  0  0  0  0  0  0  0  0  0  0  0
    0.9907    2.4792    2.7754 C   0  0  0  0  0  0  0  0  0  0  0  0
    0.3706    1.1276    2.3587 C   0  0  0  0  0  0  0  0  0  0  0  0
   -0.6099   -0.7686    0.4125 H   0  0  0  0  0  0  0  0  0  0  0  0
   -1.5531    1.8976   -0.4695 H   0  0  0  0  0  0  0  0  0  0  0  0
   -1.6656    2.5169    1.2037 H   0  0  0  0  0  0  0  0  0  0  0  0
    1.7066    2.2197   -0.5313 H   0  0  0  0  0  0  0  0  0  0  0  0
    2.8392    2.3054    1.6244 H   0  0  0  0  0  0  0  0  0  0  0  0
    2.1298    3.9260    1.5386 H   0  0  0  0  0  0  0  0  0  0  0  0
    1.5306    2.4153    3.7234 H   0  0  0  0  0  0  0  0  0  0  0  0
    0.2049    3.2318    2.8962 H   0  0  0  0  0  0  0  0  0  0  0  0
    1.0748    0.3128    2.5682 H   0  0  0  0  0  0  0  0  0  0  0  0
   -0.5594    0.8977    2.8875 H   0  0  0  0  0  0  0  0  0  0  0  0
  1  2  2  0  0  0  0
  2 10  1  0  0  0  0
  3  2  1  6  0  0  0
  3  9  1  0  0  0  0
  4  3  1  0  0  0  0
  4 12  1  0  0  0  0
  5  6  1  0  0  0  0
  5  4  1  0  0  0  0
  6 13  1  6  0  0  0
  6  3  1  0  0  0  0
  6  7  1  0  0  0  0
  7 14  1  0  0  0  0
  7  8  1  0  0  0  0
  8 17  1  0  0  0  0
  8 16  1  0  0  0  0
  9 18  1  0  0  0  0
  9  8  1  0  0  0  0
  9 19  1  0  0  0  0
 11  4  1  0  0  0  0
 15  7  1  0  0  0  0
M TOR 0 0 1 2 3
M TOR 1 0 1 2 5
M TOR 2 0 1 2 8
M TOR 3 1 2 3 4
M TOR 4 1 2 3 10
M TOR 5 1 2 3 11
M TOR 6 1 2 5 4
M TOR 7 1 2 5 6
M TOR 8 1 2 5 12
M TOR 9 1 2 8 7
M TOR 10 1 2 8 17
M TOR 11 1 2 8 18
M TOR 12 2 3 4 5
M TOR 13 2 5 6 7
M TOR 14 2 5 6 13
M TOR 15 2 5 6 14
M TOR 16 2 8 7 6
M TOR 17 2 8 7 15
M TOR 18 2 8 7 16
M TOR 19 3 2 1 9
M TOR 20 3 2 5 6
M TOR 21 3 2 5 12
M TOR 22 3 2 8 7
M TOR 23 3 2 8 17
M TOR 24 3 2 8 18
M TOR 25 3 4 5 6
M TOR 26 3 4 5 12
M TOR 27 4 3 2 8
M TOR 28 4 5 2 8
M TOR 29 4 5 6 7
M TOR 30 4 5 6 13
M TOR 31 4 5 6 14
M TOR 32 5 2 1 9
M TOR 33 5 2 3 10
M TOR 34 5 2 3 11
M TOR 35 5 2 8 7
M TOR 36 5 2 8 17
M TOR 37 5 2 8 18
M TOR 38 5 4 3 10
M TOR 39 5 4 3 11
M TOR 40 5 6 7 8
M TOR 41 5 6 7 15
M TOR 42 5 6 7 16
M TOR 43 6 5 2 8
M TOR 44 6 7 8 17
M TOR 45 6 7 8 18
M TOR 46 7 6 5 12
M TOR 47 8 2 1 9
M TOR 48 8 2 3 10
M TOR 49 8 2 3 11
M TOR 50 8 2 5 12
M TOR 51 8 7 6 13
M TOR 52 8 7 6 14
M  END
$$$$
