gdb 449	4.0421374	0.9345829	0.8726875	2.1601	76.55	-0.25074	0.06984	0.32058000000000003	1383.6834	0.156041	-422.491488	-422.482954	-422.48201	-422.525429	31.378
 OpenBabel02181911403D

 19 21  0  0  1  0  0  0  0  0999 V2000
    3.1374   -1.2730    0.7998 C   0  0  0  0  0  0  0  0  0  0  0  0
    3.7505    0.0944    0.9323 C   0  0  0  0  0  0  0  0  0  0  0  0
    2.4169   -0.0698    0.2382 C   0  0  0  0  0  0  0  0  0  0  0  0
    1.1847    0.4318    0.9049 C   0  0  2  0  0  0  0  0  0  0  0  0
   -0.0836    0.0650    0.3121 O   0  0  0  0  0  0  0  0  0  0  0  0
    0.2994    1.4217    0.2940 C   0  0  0  0  0  0  0  0  0  0  0  0
   -0.5131    2.5731    0.8786 C   0  0  0  0  0  0  0  0  0  0  0  0
   -0.2395    3.3691   -0.2968 O   0  0  0  0  0  0  0  0  0  0  0  0
    0.4460    2.2819   -0.9584 C   0  0  0  0  0  0  0  0  0  0  0  0
    3.5765   -1.9728    0.0981 H   0  0  0  0  0  0  0  0  0  0  0  0
    2.7256   -1.7349    1.6909 H   0  0  0  0  0  0  0  0  0  0  0  0
    3.7562    0.5563    1.9142 H   0  0  0  0  0  0  0  0  0  0  0  0
    4.6118    0.3413    0.3225 H   0  0  0  0  0  0  0  0  0  0  0  0
    2.4106    0.0317   -0.8427 H   0  0  0  0  0  0  0  0  0  0  0  0
    1.1903    0.3638    1.9957 H   0  0  0  0  0  0  0  0  0  0  0  0
   -1.5817    2.3511    0.9955 H   0  0  0  0  0  0  0  0  0  0  0  0
   -0.1317    3.0404    1.7945 H   0  0  0  0  0  0  0  0  0  0  0  0
   -0.1060    1.9060   -1.8294 H   0  0  0  0  0  0  0  0  0  0  0  0
    1.4649    2.5558   -1.2582 H   0  0  0  0  0  0  0  0  0  0  0  0
  1  2  1  0  0  0  0
  1 11  1  0  0  0  0
  2 12  1  0  0  0  0
  3  1  1  0  0  0  0
  3  4  1  0  0  0  0
  3  2  1  0  0  0  0
  4 15  1  1  0  0  0
  5  4  1  0  0  0  0
  6  5  1  0  0  0  0
  6  7  1  0  0  0  0
  6  4  1  0  0  0  0
  7 16  1  0  0  0  0
  7 17  1  0  0  0  0
  8  7  1  0  0  0  0
  9  8  1  0  0  0  0
  9  6  1  0  0  0  0
 10  1  1  0  0  0  0
 13  2  1  0  0  0  0
 14  3  1  0  0  0  0
 18  9  1  0  0  0  0
 19  9  1  0  0  0  0
M TOR 0 0 1 2 3
M TOR 1 0 1 2 13
M TOR 2 0 2 1 11
M TOR 3 0 2 1 12
M TOR 4 0 2 3 4
M TOR 5 0 2 3 5
M TOR 6 0 2 3 14
M TOR 7 1 2 0 9
M TOR 8 1 2 0 10
M TOR 9 1 2 3 4
M TOR 10 1 2 3 5
M TOR 11 1 2 3 14
M TOR 12 2 3 4 5
M TOR 13 2 3 5 6
M TOR 14 2 3 5 8
M TOR 15 3 2 0 9
M TOR 16 3 2 0 10
M TOR 17 3 2 1 11
M TOR 18 3 2 1 12
M TOR 19 3 4 5 6
M TOR 20 3 4 5 8
M TOR 21 3 5 6 7
M TOR 22 3 5 6 15
M TOR 23 3 5 6 16
M TOR 24 3 5 8 7
M TOR 25 3 5 8 17
M TOR 26 3 5 8 18
M TOR 27 4 3 2 13
M TOR 28 4 5 3 14
M TOR 29 4 5 6 7
M TOR 30 4 5 6 15
M TOR 31 4 5 6 16
M TOR 32 4 5 8 7
M TOR 33 4 5 8 17
M TOR 34 4 5 8 18
M TOR 35 5 3 2 13
M TOR 36 5 6 7 8
M TOR 37 6 5 3 14
M TOR 38 6 5 8 17
M TOR 39 6 5 8 18
M TOR 40 6 7 8 17
M TOR 41 6 7 8 18
M TOR 42 8 5 3 14
M TOR 43 8 5 6 15
M TOR 44 8 5 6 16
M TOR 45 8 7 6 15
M TOR 46 8 7 6 16
M  END
$$$$
