gdb 4927	2.1663831	1.3307456	1.206612	3.7487	77.31	-0.24805	-0.05148	0.19657	1174.6482	0.15411	-422.576025	-422.566325	-422.565381	-422.611023	34.369
 OpenBabel02181911413D

 19 19  0  0  1  0  0  0  0  0999 V2000
    2.5879   -0.6377    1.3771 C   0  0  0  0  0  0  0  0  0  0  0  0
    1.9803    0.1397    0.2042 C   0  0  0  0  0  0  0  0  0  0  0  0
    1.9793   -0.6383   -1.1133 C   0  0  1  0  0  0  0  0  0  0  0  0
    1.1216   -1.9449   -1.2473 C   0  0  0  0  0  0  0  0  0  0  0  0
    0.4229   -1.4018   -2.5279 C   0  0  0  0  0  0  0  0  0  0  0  0
    1.0438   -0.0395   -2.2228 C   0  0  0  0  0  0  0  0  0  0  0  0
    0.8335    1.0822   -2.5703 O   0  0  0  0  0  0  0  0  0  0  0  0
    3.3711   -0.8248   -1.6865 C   0  0  0  0  0  0  0  0  0  0  0  0
    4.3438   -0.2062   -1.3403 O   0  0  0  0  0  0  0  0  0  0  0  0
    2.0504   -1.5744    1.5613 H   0  0  0  0  0  0  0  0  0  0  0  0
    3.6377   -0.8766    1.1890 H   0  0  0  0  0  0  0  0  0  0  0  0
    2.5381   -0.0437    2.2944 H   0  0  0  0  0  0  0  0  0  0  0  0
    0.9495    0.4279    0.4410 H   0  0  0  0  0  0  0  0  0  0  0  0
    2.5376    1.0668    0.0420 H   0  0  0  0  0  0  0  0  0  0  0  0
    1.6864   -2.8712   -1.3708 H   0  0  0  0  0  0  0  0  0  0  0  0
    0.4355   -2.0605   -0.4065 H   0  0  0  0  0  0  0  0  0  0  0  0
    0.8334   -1.8197   -3.4544 H   0  0  0  0  0  0  0  0  0  0  0  0
   -0.6674   -1.4373   -2.5880 H   0  0  0  0  0  0  0  0  0  0  0  0
    3.4398   -1.5935   -2.4915 H   0  0  0  0  0  0  0  0  0  0  0  0
  1 10  1  0  0  0  0
  1 12  1  0  0  0  0
  2 13  1  0  0  0  0
  2  1  1  0  0  0  0
  3  8  1  6  0  0  0
  3  2  1  0  0  0  0
  4  3  1  0  0  0  0
  4 16  1  0  0  0  0
  5  6  1  0  0  0  0
  5  4  1  0  0  0  0
  6  3  1  0  0  0  0
  7  6  2  0  0  0  0
  8  9  2  0  0  0  0
 11  1  1  0  0  0  0
 14  2  1  0  0  0  0
 15  4  1  0  0  0  0
 17  5  1  0  0  0  0
 18  5  1  0  0  0  0
 19  8  1  0  0  0  0
M TOR 0 0 1 2 3
M TOR 1 0 1 2 5
M TOR 2 0 1 2 7
M TOR 3 1 2 3 4
M TOR 4 1 2 3 14
M TOR 5 1 2 3 15
M TOR 6 1 2 5 4
M TOR 7 1 2 5 6
M TOR 8 1 2 7 8
M TOR 9 1 2 7 18
M TOR 10 2 1 0 9
M TOR 11 2 1 0 10
M TOR 12 2 1 0 11
M TOR 13 2 3 4 5
M TOR 14 2 3 4 16
M TOR 15 2 3 4 17
M TOR 16 2 5 4 16
M TOR 17 2 5 4 17
M TOR 18 3 2 1 12
M TOR 19 3 2 1 13
M TOR 20 3 2 5 6
M TOR 21 3 2 7 8
M TOR 22 3 2 7 18
M TOR 23 3 4 5 6
M TOR 24 4 3 2 7
M TOR 25 4 5 2 7
M TOR 26 5 2 1 12
M TOR 27 5 2 1 13
M TOR 28 5 2 3 14
M TOR 29 5 2 3 15
M TOR 30 5 2 7 8
M TOR 31 5 2 7 18
M TOR 32 5 4 3 14
M TOR 33 5 4 3 15
M TOR 34 6 5 2 7
M TOR 35 6 5 4 16
M TOR 36 6 5 4 17
M TOR 37 7 2 1 12
M TOR 38 7 2 1 13
M TOR 39 7 2 3 14
M TOR 40 7 2 3 15
M  END
$$$$
