gdb 5228	2.7451486	1.4918792	1.1317523	1.716	75.1	-0.2284	0.07539	0.30379	1112.3032	0.155906	-422.495972	-422.487422	-422.486478	-422.528914	32.611
 OpenBabel02181911423D

 19 21  0  0  1  0  0  0  0  0999 V2000
   -2.3489   -2.7374    0.5516 C   0  0  0  0  0  0  0  0  0  0  0  0
   -1.8310   -1.9148    1.6825 C   0  0  2  0  0  0  0  0  0  0  0  0
   -2.7558   -1.4876    2.6891 O   0  0  0  0  0  0  0  0  0  0  0  0
   -1.5950   -1.1346    3.4949 C   0  0  2  0  0  0  0  0  0  0  0  0
   -1.0254    0.1078    2.7720 C   0  0  0  0  0  0  0  0  0  0  0  0
   -0.6907   -0.8649    1.6357 C   0  0  2  0  0  0  0  0  0  0  0  0
    0.2006   -0.6082    0.4611 C   0  0  0  0  0  0  0  0  0  0  0  0
    1.4926   -0.1447    0.8375 O   0  0  0  0  0  0  0  0  0  0  0  0
   -0.6736   -2.0548    2.6167 C   0  0  2  0  0  0  0  0  0  0  0  0
   -2.8476   -3.6354    0.9292 H   0  0  0  0  0  0  0  0  0  0  0  0
   -3.0725   -2.1676   -0.0410 H   0  0  0  0  0  0  0  0  0  0  0  0
   -1.5354   -3.0481   -0.1095 H   0  0  0  0  0  0  0  0  0  0  0  0
   -1.7770   -1.1812    4.5662 H   0  0  0  0  0  0  0  0  0  0  0  0
   -1.7295    0.9249    2.5846 H   0  0  0  0  0  0  0  0  0  0  0  0
   -0.1130    0.4827    3.2419 H   0  0  0  0  0  0  0  0  0  0  0  0
    0.2730   -1.5101   -0.1679 H   0  0  0  0  0  0  0  0  0  0  0  0
   -0.2197    0.1867   -0.1658 H   0  0  0  0  0  0  0  0  0  0  0  0
    1.8592   -0.7922    1.4490 H   0  0  0  0  0  0  0  0  0  0  0  0
    0.0356   -2.8472    2.8175 H   0  0  0  0  0  0  0  0  0  0  0  0
  1 10  1  0  0  0  0
  2  1  1  6  0  0  0
  2  9  1  0  0  0  0
  2  3  1  0  0  0  0
  3  4  1  0  0  0  0
  4 13  1  1  0  0  0
  5 15  1  0  0  0  0
  5  4  1  0  0  0  0
  6  7  1  6  0  0  0
  6  2  1  0  0  0  0
  6  9  1  0  0  0  0
  6  5  1  0  0  0  0
  7  8  1  0  0  0  0
  8 18  1  0  0  0  0
  9 19  1  1  0  0  0
  9  4  1  0  0  0  0
 11  1  1  0  0  0  0
 12  1  1  0  0  0  0
 14  5  1  0  0  0  0
 16  7  1  0  0  0  0
 17  7  1  0  0  0  0
M TOR 0 0 1 2 3
M TOR 1 0 1 5 4
M TOR 2 0 1 5 6
M TOR 3 0 1 5 8
M TOR 4 0 1 8 3
M TOR 5 0 1 8 18
M TOR 6 1 2 3 4
M TOR 7 1 2 3 8
M TOR 8 1 2 3 12
M TOR 9 1 5 4 3
M TOR 10 1 5 4 13
M TOR 11 1 5 4 14
M TOR 12 1 5 6 7
M TOR 13 1 5 6 15
M TOR 14 1 5 6 16
M TOR 15 1 5 8 3
M TOR 16 1 5 8 18
M TOR 17 1 8 3 4
M TOR 18 1 8 3 12
M TOR 19 1 8 5 4
M TOR 20 1 8 5 6
M TOR 21 2 1 0 9
M TOR 22 2 1 0 10
M TOR 23 2 1 0 11
M TOR 24 2 1 5 4
M TOR 25 2 1 5 6
M TOR 26 2 1 5 8
M TOR 27 2 1 8 18
M TOR 28 2 3 4 5
M TOR 29 2 3 4 13
M TOR 30 2 3 4 14
M TOR 31 2 3 8 5
M TOR 32 2 3 8 18
M TOR 33 3 2 1 5
M TOR 34 3 4 5 6
M TOR 35 3 4 5 8
M TOR 36 3 8 5 6
M TOR 37 4 3 8 18
M TOR 38 4 5 6 7
M TOR 39 4 5 6 15
M TOR 40 4 5 6 16
M TOR 41 4 5 8 18
M TOR 42 5 1 0 9
M TOR 43 5 1 0 10
M TOR 44 5 1 0 11
M TOR 45 5 4 3 12
M TOR 46 5 6 7 17
M TOR 47 5 8 3 12
M TOR 48 6 5 4 13
M TOR 49 6 5 4 14
M TOR 50 6 5 8 18
M TOR 51 7 6 5 8
M TOR 52 8 1 0 9
M TOR 53 8 1 0 10
M TOR 54 8 1 0 11
M TOR 55 8 3 4 13
M TOR 56 8 3 4 14
M TOR 57 8 5 4 13
M TOR 58 8 5 4 14
M TOR 59 8 5 6 15
M TOR 60 8 5 6 16
M  END
$$$$
