gdb 1039	4.0954927	0.6876065	0.6149313	2.7721	82.2	-0.2422	-0.03095	0.21125	1824.3741	0.152614	-422.553332	-422.542151	-422.541207	-422.592056	37.532
 OpenBabel02181911403D

 19 18  0  0  1  0  0  0  0  0999 V2000
    1.5890    0.1670    0.1329 C   0  0  0  0  0  0  0  0  0  0  0  0
    0.1383    0.0483    0.1128 C   0  0  0  0  0  0  0  0  0  0  0  0
   -1.0608   -0.0501    0.0854 C   0  0  0  0  0  0  0  0  0  0  0  0
   -2.5105   -0.1859    0.0665 C   0  0  0  0  0  0  0  0  0  0  0  0
   -2.9658   -1.6707    0.0318 C   0  0  2  0  0  0  0  0  0  0  0  0
   -2.5003   -2.3071   -1.1207 O   0  0  0  0  0  0  0  0  0  0  0  0
   -4.4934   -1.7843    0.1080 C   0  0  0  0  0  0  0  0  0  0  0  0
   -5.2119   -1.2134    1.3084 C   0  0  0  0  0  0  0  0  0  0  0  0
   -5.0824   -2.3347   -0.7987 O   0  0  0  0  0  0  0  0  0  0  0  0
    1.9878    0.0392    1.1454 H   0  0  0  0  0  0  0  0  0  0  0  0
    2.0566   -0.5905   -0.5056 H   0  0  0  0  0  0  0  0  0  0  0  0
    1.9128    1.1496   -0.2282 H   0  0  0  0  0  0  0  0  0  0  0  0
   -2.9393    0.3067    0.9484 H   0  0  0  0  0  0  0  0  0  0  0  0
   -2.9278    0.3142   -0.8169 H   0  0  0  0  0  0  0  0  0  0  0  0
   -2.5586   -2.1641    0.9306 H   0  0  0  0  0  0  0  0  0  0  0  0
   -3.3000   -2.6176   -1.5772 H   0  0  0  0  0  0  0  0  0  0  0  0
   -4.6529   -1.3866    2.2325 H   0  0  0  0  0  0  0  0  0  0  0  0
   -5.3174   -0.1285    1.1901 H   0  0  0  0  0  0  0  0  0  0  0  0
   -6.2088   -1.6504    1.3802 H   0  0  0  0  0  0  0  0  0  0  0  0
  1 10  1  0  0  0  0
  2  1  1  0  0  0  0
  3  2  3  0  0  0  0
  4  3  1  0  0  0  0
  4 13  1  0  0  0  0
  5  4  1  0  0  0  0
  5  7  1  0  0  0  0
  5 15  1  1  0  0  0
  6  5  1  0  0  0  0
  7  8  1  0  0  0  0
  8 19  1  0  0  0  0
  8 17  1  0  0  0  0
  9  7  2  0  0  0  0
 11  1  1  0  0  0  0
 12  1  1  0  0  0  0
 14  4  1  0  0  0  0
 16  6  1  0  0  0  0
 18  8  1  0  0  0  0
M TOR 0 0 1 2 3
M TOR 1 1 2 3 4
M TOR 2 1 2 3 12
M TOR 3 1 2 3 13
M TOR 4 2 1 0 9
M TOR 5 2 1 0 10
M TOR 6 2 1 0 11
M TOR 7 2 3 4 5
M TOR 8 2 3 4 6
M TOR 9 2 3 4 14
M TOR 10 3 4 5 15
M TOR 11 3 4 6 7
M TOR 12 3 4 6 8
M TOR 13 4 6 7 16
M TOR 14 4 6 7 17
M TOR 15 4 6 7 18
M TOR 16 5 4 3 12
M TOR 17 5 4 3 13
M TOR 18 5 4 6 7
M TOR 19 5 4 6 8
M TOR 20 6 4 3 12
M TOR 21 6 4 3 13
M TOR 22 6 4 5 15
M TOR 23 7 6 4 14
M TOR 24 8 6 4 14
M TOR 25 8 6 7 16
M TOR 26 8 6 7 17
M TOR 27 8 6 7 18
M  END
$$$$
