
     RDKit          3D

 19 18  0  0  0  0  0  0  0  0999 V2000
    1.4622   -0.5168    1.7071 C   0  0  0  0  0  0  0  0  0  0  0  0
    1.0987    0.0497    0.3465 C   0  0  0  0  0  0  0  0  0  0  0  0
    1.7563    1.3049    0.2016 O   0  0  0  0  0  0  0  0  0  0  0  0
    1.4563    1.9566   -1.0210 C   0  0  0  0  0  0  0  0  0  0  0  0
    1.8459    3.3589   -0.9283 C   0  0  0  0  0  0  0  0  0  0  0  0
    2.1816    4.5124   -0.9066 C   0  0  0  0  0  0  0  0  0  0  0  0
    2.1956    1.2852   -2.2201 C   0  0  0  0  0  0  0  0  0  0  0  0
    3.6835    1.0803   -2.0471 C   0  0  0  0  0  0  0  0  0  0  0  0
    1.5795    0.9577   -3.2032 O   0  0  0  0  0  0  0  0  0  0  0  0
    0.9631   -1.4779    1.8614 H   0  0  0  0  0  0  0  0  0  0  0  0
    2.5421   -0.6704    1.7861 H   0  0  0  0  0  0  0  0  0  0  0  0
    1.1544    0.1684    2.5016 H   0  0  0  0  0  0  0  0  0  0  0  0
    1.4004   -0.6419   -0.4556 H   0  0  0  0  0  0  0  0  0  0  0  0
    0.0100    0.1912    0.2581 H   0  0  0  0  0  0  0  0  0  0  0  0
    0.3825    1.8841   -1.2510 H   0  0  0  0  0  0  0  0  0  0  0  0
    2.4657    5.5354   -0.8728 H   0  0  0  0  0  0  0  0  0  0  0  0
    3.8896    0.5811   -1.0965 H   0  0  0  0  0  0  0  0  0  0  0  0
    4.0789    0.5037   -2.8834 H   0  0  0  0  0  0  0  0  0  0  0  0
    4.1780    2.0567   -2.0014 H   0  0  0  0  0  0  0  0  0  0  0  0
  1  2  1  0
  2  3  1  0
  3  4  1  0
  4  5  1  0
  5  6  3  0
  4  7  1  0
  7  8  1  0
  7  9  2  0
  1 10  1  0
  1 11  1  0
  1 12  1  0
  2 13  1  0
  2 14  1  0
  4 15  1  0
  6 16  1  0
  8 17  1  0
  8 18  1  0
  8 19  1  0
M  END
$$$$
