gdb 5608	3.2961672	1.1047195	0.8700351	3.8893	78.55	-0.24575	-0.02924	0.21651	1339.1532	0.156093	-422.595463	-422.586391	-422.585446	-422.62942	33.497
 OpenBabel02181911423D

 19 19  0  0  1  0  0  0  0  0999 V2000
    1.3698    0.8761    0.2857 C   0  0  0  0  0  0  0  0  0  0  0  0
   -0.0300    0.3520    0.3008 C   0  0  0  0  0  0  0  0  0  0  0  0
   -1.1451    1.0165   -0.0242 C   0  0  0  0  0  0  0  0  0  0  0  0
   -2.3992    0.1962    0.1111 C   0  0  1  0  0  0  0  0  0  0  0  0
   -3.2894    0.0797   -1.1474 C   0  0  0  0  0  0  0  0  0  0  0  0
   -4.4554   -0.6665   -0.8926 O   0  0  0  0  0  0  0  0  0  0  0  0
   -1.8475   -1.1814    0.5005 C   0  0  0  0  0  0  0  0  0  0  0  0
   -2.4971   -2.2005    0.5508 O   0  0  0  0  0  0  0  0  0  0  0  0
   -0.3391   -1.0647    0.7283 C   0  0  0  0  0  0  0  0  0  0  0  0
    1.8239    0.8231    1.2834 H   0  0  0  0  0  0  0  0  0  0  0  0
    2.0086    0.2795   -0.3778 H   0  0  0  0  0  0  0  0  0  0  0  0
    1.4053    1.9159   -0.0503 H   0  0  0  0  0  0  0  0  0  0  0  0
   -1.1630    2.0513   -0.3505 H   0  0  0  0  0  0  0  0  0  0  0  0
   -3.0520    0.5571    0.9200 H   0  0  0  0  0  0  0  0  0  0  0  0
   -3.6067    1.0795   -1.4638 H   0  0  0  0  0  0  0  0  0  0  0  0
   -2.6936   -0.3492   -1.9707 H   0  0  0  0  0  0  0  0  0  0  0  0
   -4.1651   -1.4961   -0.4867 H   0  0  0  0  0  0  0  0  0  0  0  0
   -0.1043   -1.2533    1.7858 H   0  0  0  0  0  0  0  0  0  0  0  0
    0.1972   -1.8348    0.1595 H   0  0  0  0  0  0  0  0  0  0  0  0
  1  2  1  0  0  0  0
  1 10  1  0  0  0  0
  2  9  1  0  0  0  0
  3  4  1  0  0  0  0
  3  2  2  0  0  0  0
  4  7  1  0  0  0  0
  4 14  1  1  0  0  0
  5  6  1  0  0  0  0
  5  4  1  0  0  0  0
  6 17  1  0  0  0  0
  7  8  2  0  0  0  0
  7  9  1  0  0  0  0
  9 18  1  0  0  0  0
 11  1  1  0  0  0  0
 12  1  1  0  0  0  0
 13  3  1  0  0  0  0
 15  5  1  0  0  0  0
 16  5  1  0  0  0  0
 19  9  1  0  0  0  0
M TOR 0 0 1 2 3
M TOR 1 0 1 2 12
M TOR 2 0 1 8 6
M TOR 3 0 1 8 17
M TOR 4 0 1 8 18
M TOR 5 1 2 3 4
M TOR 6 1 2 3 6
M TOR 7 1 2 3 13
M TOR 8 1 8 6 3
M TOR 9 1 8 6 7
M TOR 10 2 1 0 9
M TOR 11 2 1 0 10
M TOR 12 2 1 0 11
M TOR 13 2 1 8 6
M TOR 14 2 1 8 17
M TOR 15 2 1 8 18
M TOR 16 2 3 4 5
M TOR 17 2 3 4 14
M TOR 18 2 3 4 15
M TOR 19 2 3 6 7
M TOR 20 2 3 6 8
M TOR 21 3 2 1 8
M TOR 22 3 4 5 16
M TOR 23 3 6 8 17
M TOR 24 3 6 8 18
M TOR 25 4 3 2 12
M TOR 26 4 3 6 7
M TOR 27 4 3 6 8
M TOR 28 5 4 3 6
M TOR 29 5 4 3 13
M TOR 30 6 3 2 12
M TOR 31 6 3 4 14
M TOR 32 6 3 4 15
M TOR 33 7 6 3 13
M TOR 34 7 6 8 17
M TOR 35 7 6 8 18
M TOR 36 8 1 0 9
M TOR 37 8 1 0 10
M TOR 38 8 1 0 11
M TOR 39 8 1 2 12
M TOR 40 8 6 3 13
M  END
$$$$
