gdb 3098	2.8549392	1.599453	1.1871321	3.0256	75.14	-0.23586	0.07022	0.30608	1056.5909	0.157452	-422.483833	-422.476011	-422.475067	-422.516003	30.475
 OpenBabel02181911413D

 19 21  0  0  1  0  0  0  0  0999 V2000
    0.8601    0.8769    0.5192 O   0  0  0  0  0  0  0  0  0  0  0  0
   -0.5304    0.6775    0.5443 C   0  0  1  0  0  0  0  0  0  0  0  0
   -1.2397    0.2780    1.8795 C   0  0  2  0  0  0  0  0  0  0  0  0
   -2.5180    0.9125    1.2596 C   0  0  0  0  0  0  0  0  0  0  0  0
   -1.3707    1.9157    0.9363 C   0  0  1  0  0  0  0  0  0  0  0  0
   -0.8914    1.6994    2.3995 C   0  0  0  0  0  0  0  0  0  0  0  0
    0.4496    2.1493    2.9957 C   0  0  0  0  0  0  0  0  0  0  0  0
   -0.2216    2.7412    4.1316 O   0  0  0  0  0  0  0  0  0  0  0  0
   -1.5202    2.3597    3.6386 C   0  0  0  0  0  0  0  0  0  0  0  0
    1.2882    0.0197    0.4305 H   0  0  0  0  0  0  0  0  0  0  0  0
   -0.8770    0.1371   -0.3470 H   0  0  0  0  0  0  0  0  0  0  0  0
   -1.1623   -0.6647    2.4248 H   0  0  0  0  0  0  0  0  0  0  0  0
   -2.9684    0.3900    0.4112 H   0  0  0  0  0  0  0  0  0  0  0  0
   -3.2779    1.2569    1.9625 H   0  0  0  0  0  0  0  0  0  0  0  0
   -1.4424    2.8601    0.3951 H   0  0  0  0  0  0  0  0  0  0  0  0
    1.1336    1.3465    3.2951 H   0  0  0  0  0  0  0  0  0  0  0  0
    1.0077    2.8897    2.4123 H   0  0  0  0  0  0  0  0  0  0  0  0
   -2.0426    1.6852    4.3312 H   0  0  0  0  0  0  0  0  0  0  0  0
   -2.1609    3.2315    3.4463 H   0  0  0  0  0  0  0  0  0  0  0  0
  1  2  1  0  0  0  0
  2 11  1  6  0  0  0
  2  5  1  0  0  0  0
  2  3  1  0  0  0  0
  3  6  1  0  0  0  0
  3 12  1  1  0  0  0
  4  3  1  0  0  0  0
  4 14  1  0  0  0  0
  5 15  1  6  0  0  0
  5  4  1  0  0  0  0
  5  6  1  0  0  0  0
  6  7  1  0  0  0  0
  6  9  1  0  0  0  0
  7 16  1  0  0  0  0
  7  8  1  0  0  0  0
  9  8  1  0  0  0  0
  9 18  1  0  0  0  0
 10  1  1  0  0  0  0
 13  4  1  0  0  0  0
 17  7  1  0  0  0  0
 19  9  1  0  0  0  0
M TOR 0 0 1 2 3
M TOR 1 0 1 2 5
M TOR 2 0 1 2 11
M TOR 3 0 1 4 3
M TOR 4 0 1 4 5
M TOR 5 0 1 4 14
M TOR 6 1 2 3 4
M TOR 7 1 2 3 12
M TOR 8 1 2 3 13
M TOR 9 1 2 5 4
M TOR 10 1 2 5 6
M TOR 11 1 2 5 8
M TOR 12 1 4 3 12
M TOR 13 1 4 3 13
M TOR 14 1 4 5 6
M TOR 15 1 4 5 8
M TOR 16 2 1 0 9
M TOR 17 2 1 4 14
M TOR 18 2 3 4 5
M TOR 19 2 3 4 14
M TOR 20 2 5 4 14
M TOR 21 2 5 6 7
M TOR 22 2 5 6 15
M TOR 23 2 5 6 16
M TOR 24 2 5 8 7
M TOR 25 2 5 8 17
M TOR 26 2 5 8 18
M TOR 27 3 2 1 10
M TOR 28 3 2 5 6
M TOR 29 3 2 5 8
M TOR 30 3 4 1 10
M TOR 31 3 4 5 6
M TOR 32 3 4 5 8
M TOR 33 4 1 0 9
M TOR 34 4 1 2 11
M TOR 35 4 3 2 11
M TOR 36 4 5 2 11
M TOR 37 4 5 6 7
M TOR 38 4 5 6 15
M TOR 39 4 5 6 16
M TOR 40 4 5 8 7
M TOR 41 4 5 8 17
M TOR 42 4 5 8 18
M TOR 43 5 2 1 10
M TOR 44 5 2 3 12
M TOR 45 5 2 3 13
M TOR 46 5 4 1 10
M TOR 47 5 4 3 12
M TOR 48 5 4 3 13
M TOR 49 5 6 7 8
M TOR 50 6 5 2 11
M TOR 51 6 5 4 14
M TOR 52 6 5 8 17
M TOR 53 6 5 8 18
M TOR 54 6 7 8 17
M TOR 55 6 7 8 18
M TOR 56 8 5 2 11
M TOR 57 8 5 4 14
M TOR 58 8 5 6 15
M TOR 59 8 5 6 16
M TOR 60 8 7 6 15
M TOR 61 8 7 6 16
M  END
$$$$
