
     RDKit          3D

 19 21  0  0  0  0  0  0  0  0999 V2000
    1.0860    1.0602    0.2042 C   0  0  0  0  0  0  0  0  0  0  0  0
    0.9174   -0.4490   -0.0173 C   0  0  0  0  0  0  0  0  0  0  0  0
    1.5704   -0.9233   -1.2814 C   0  0  0  0  0  0  0  0  0  0  0  0
    1.1377   -0.4997   -2.7162 C   0  0  0  0  0  0  0  0  0  0  0  0
    1.8893   -1.7398   -3.1876 C   0  0  0  0  0  0  0  0  0  0  0  0
    3.0928   -1.8496   -2.1978 C   0  0  0  0  0  0  0  0  0  0  0  0
    3.0221   -0.7378   -1.3157 O   0  0  0  0  0  0  0  0  0  0  0  0
    1.7620   -2.4178   -1.8449 C   0  0  0  0  0  0  0  0  0  0  0  0
    1.2535   -3.6492   -1.5342 O   0  0  0  0  0  0  0  0  0  0  0  0
    0.6287    1.3681    1.1489 H   0  0  0  0  0  0  0  0  0  0  0  0
    2.1455    1.3285    0.2321 H   0  0  0  0  0  0  0  0  0  0  0  0
    0.6143    1.6341   -0.5999 H   0  0  0  0  0  0  0  0  0  0  0  0
    1.3479   -0.9989    0.8285 H   0  0  0  0  0  0  0  0  0  0  0  0
   -0.1463   -0.7132   -0.0584 H   0  0  0  0  0  0  0  0  0  0  0  0
    0.0592   -0.6049   -2.8608 H   0  0  0  0  0  0  0  0  0  0  0  0
    1.4796    0.4851   -3.0484 H   0  0  0  0  0  0  0  0  0  0  0  0
    1.9208   -2.1994   -4.1671 H   0  0  0  0  0  0  0  0  0  0  0  0
    4.0543   -2.2774   -2.4485 H   0  0  0  0  0  0  0  0  0  0  0  0
    1.6774   -3.9604   -0.7257 H   0  0  0  0  0  0  0  0  0  0  0  0
  1  2  1  0
  2  3  1  0
  3  4  1  0
  4  5  1  0
  5  6  1  0
  6  7  1  0
  6  8  1  0
  8  9  1  0
  7  3  1  0
  8  3  1  0
  8  5  1  0
  1 10  1  0
  1 11  1  0
  1 12  1  0
  2 13  1  0
  2 14  1  0
  4 15  1  0
  4 16  1  0
  5 17  1  0
  6 18  1  0
  9 19  1  0
M  END
$$$$
