
     RDKit          3D

 19 20  0  0  0  0  0  0  0  0999 V2000
    1.3004   -0.0793    0.0750 O   0  0  0  0  0  0  0  0  0  0  0  0
    0.1008   -0.0356   -0.0802 C   0  0  0  0  0  0  0  0  0  0  0  0
   -0.6798    1.2715   -0.0603 C   0  0  0  0  0  0  0  0  0  0  0  0
   -1.8219    1.2414   -1.0878 C   0  0  0  0  0  0  0  0  0  0  0  0
   -2.6877    0.1512   -0.8289 O   0  0  0  0  0  0  0  0  0  0  0  0
   -2.0856   -1.1028   -1.0900 C   0  0  0  0  0  0  0  0  0  0  0  0
   -2.7107   -2.1548   -0.1529 C   0  0  0  0  0  0  0  0  0  0  0  0
   -1.5484   -1.9060    0.8465 C   0  0  0  0  0  0  0  0  0  0  0  0
   -0.7285   -1.2742   -0.3320 C   0  0  0  0  0  0  0  0  0  0  0  0
   -1.1204    1.4017    0.9365 H   0  0  0  0  0  0  0  0  0  0  0  0
    0.0140    2.0987   -0.2324 H   0  0  0  0  0  0  0  0  0  0  0  0
   -2.4310    2.1469   -1.0210 H   0  0  0  0  0  0  0  0  0  0  0  0
   -1.4176    1.1838   -2.1116 H   0  0  0  0  0  0  0  0  0  0  0  0
   -2.0722   -1.3005   -2.1709 H   0  0  0  0  0  0  0  0  0  0  0  0
   -3.7285   -1.9409    0.1781 H   0  0  0  0  0  0  0  0  0  0  0  0
   -2.6713   -3.1568   -0.5874 H   0  0  0  0  0  0  0  0  0  0  0  0
   -1.8133   -1.1662    1.6047 H   0  0  0  0  0  0  0  0  0  0  0  0
   -1.0955   -2.7689    1.3363 H   0  0  0  0  0  0  0  0  0  0  0  0
   -0.0938   -2.0311   -0.7984 H   0  0  0  0  0  0  0  0  0  0  0  0
  1  2  2  0
  2  3  1  0
  3  4  1  0
  4  5  1  0
  5  6  1  0
  6  7  1  0
  7  8  1  0
  8  9  1  0
  9  2  1  0
  9  6  1  0
  3 10  1  0
  3 11  1  0
  4 12  1  0
  4 13  1  0
  6 14  1  0
  7 15  1  0
  7 16  1  0
  8 17  1  0
  8 18  1  0
  9 19  1  0
M  END
$$$$
