gdb 2503	2.6992908	1.8917523	1.396336	2.5757	74.39	-0.22583	0.07921	0.30504	975.6371	0.158094	-422.513863	-422.506374	-422.50543	-422.545287	29.836
 OpenBabel02181911413D

 19 21  0  0  1  0  0  0  0  0999 V2000
    0.0496   -0.2405    0.0196 C   0  0  0  0  0  0  0  0  0  0  0  0
    1.5535   -0.0898    0.1288 C   0  0  1  0  0  0  0  0  0  0  0  0
    2.2596   -1.3477    0.6165 C   0  0  0  0  0  0  0  0  0  0  0  0
    3.6647   -1.2563    0.7606 O   0  0  0  0  0  0  0  0  0  0  0  0
    4.1449   -0.0605    1.3368 C   0  0  0  0  0  0  0  0  0  0  0  0
    3.5776    1.1577    0.6206 C   0  0  1  0  0  0  0  0  0  0  0  0
    3.5849    0.9444   -0.8228 O   0  0  0  0  0  0  0  0  0  0  0  0
    2.1610    0.9188   -0.8258 C   0  0  2  0  0  0  0  0  0  0  0  0
    2.0433    1.2471    0.6419 C   0  0  1  0  0  0  0  0  0  0  0  0
   -0.3922   -0.5052    0.9872 H   0  0  0  0  0  0  0  0  0  0  0  0
   -0.4185    0.6920   -0.3124 H   0  0  0  0  0  0  0  0  0  0  0  0
   -0.2191   -1.0238   -0.6981 H   0  0  0  0  0  0  0  0  0  0  0  0
    1.7968   -1.6286    1.5810 H   0  0  0  0  0  0  0  0  0  0  0  0
    2.0927   -2.1779   -0.0794 H   0  0  0  0  0  0  0  0  0  0  0  0
    3.9025    0.0113    2.4122 H   0  0  0  0  0  0  0  0  0  0  0  0
    5.2334   -0.1041    1.2334 H   0  0  0  0  0  0  0  0  0  0  0  0
    4.1032    2.0800    0.8861 H   0  0  0  0  0  0  0  0  0  0  0  0
    1.6532    1.3028   -1.7039 H   0  0  0  0  0  0  0  0  0  0  0  0
    1.4417    1.9686    1.1796 H   0  0  0  0  0  0  0  0  0  0  0  0
  1 10  1  0  0  0  0
  2  1  1  6  0  0  0
  2  3  1  0  0  0  0
  2  9  1  0  0  0  0
  3  4  1  0  0  0  0
  3 13  1  0  0  0  0
  4  5  1  0  0  0  0
  5 15  1  0  0  0  0
  6  9  1  0  0  0  0
  6 17  1  1  0  0  0
  6  5  1  0  0  0  0
  7  6  1  0  0  0  0
  8 18  1  6  0  0  0
  8  7  1  0  0  0  0
  8  2  1  0  0  0  0
  8  9  1  0  0  0  0
  9 19  1  1  0  0  0
 11  1  1  0  0  0  0
 12  1  1  0  0  0  0
 14  3  1  0  0  0  0
 16  5  1  0  0  0  0
M TOR 0 0 1 2 3
M TOR 1 0 1 2 12
M TOR 2 0 1 2 13
M TOR 3 0 1 7 6
M TOR 4 0 1 7 8
M TOR 5 0 1 7 17
M TOR 6 0 1 8 5
M TOR 7 0 1 8 18
M TOR 8 1 2 3 4
M TOR 9 1 7 6 5
M TOR 10 1 7 8 5
M TOR 11 1 7 8 18
M TOR 12 1 8 5 4
M TOR 13 1 8 5 6
M TOR 14 1 8 5 16
M TOR 15 1 8 7 6
M TOR 16 1 8 7 17
M TOR 17 2 1 0 9
M TOR 18 2 1 0 10
M TOR 19 2 1 0 11
M TOR 20 2 1 7 6
M TOR 21 2 1 7 8
M TOR 22 2 1 7 17
M TOR 23 2 1 8 5
M TOR 24 2 1 8 18
M TOR 25 2 3 4 5
M TOR 26 2 3 4 14
M TOR 27 2 3 4 15
M TOR 28 3 2 1 7
M TOR 29 3 2 1 8
M TOR 30 3 4 5 6
M TOR 31 3 4 5 8
M TOR 32 3 4 5 16
M TOR 33 4 3 2 12
M TOR 34 4 3 2 13
M TOR 35 4 5 6 7
M TOR 36 4 5 8 7
M TOR 37 4 5 8 18
M TOR 38 5 6 7 8
M TOR 39 5 6 7 17
M TOR 40 5 8 7 17
M TOR 41 6 5 4 14
M TOR 42 6 5 4 15
M TOR 43 6 5 8 18
M TOR 44 6 7 8 18
M TOR 45 7 1 0 9
M TOR 46 7 1 0 10
M TOR 47 7 1 0 11
M TOR 48 7 1 2 12
M TOR 49 7 1 2 13
M TOR 50 7 6 5 16
M TOR 51 7 8 5 16
M TOR 52 8 1 0 9
M TOR 53 8 1 0 10
M TOR 54 8 1 0 11
M TOR 55 8 1 2 12
M TOR 56 8 1 2 13
M TOR 57 8 5 4 14
M TOR 58 8 5 4 15
M  END
$$$$
