
     RDKit          3D

 19 20  0  0  0  0  0  0  0  0999 V2000
   -1.1368    1.2867   -2.6044 C   0  0  0  0  0  0  0  0  0  0  0  0
   -1.8241    0.7984   -1.3252 C   0  0  0  0  0  0  0  0  0  0  0  0
   -3.1829    1.4771   -1.1299 C   0  0  0  0  0  0  0  0  0  0  0  0
   -1.9399   -0.7757   -1.2430 C   0  0  0  0  0  0  0  0  0  0  0  0
   -1.1003   -1.0156    0.0223 C   0  0  0  0  0  0  0  0  0  0  0  0
   -1.5323    0.0738    0.9068 O   0  0  0  0  0  0  0  0  0  0  0  0
   -0.9297    0.9872   -0.0693 C   0  0  0  0  0  0  0  0  0  0  0  0
    0.1370   -0.1194   -0.2183 C   0  0  0  0  0  0  0  0  0  0  0  0
    1.3211   -0.2246   -0.2747 O   0  0  0  0  0  0  0  0  0  0  0  0
   -0.1648    0.8051   -2.7543 H   0  0  0  0  0  0  0  0  0  0  0  0
   -1.7557    1.0725   -3.4818 H   0  0  0  0  0  0  0  0  0  0  0  0
   -0.9711    2.3694   -2.5731 H   0  0  0  0  0  0  0  0  0  0  0  0
   -3.6262    1.1847   -0.1745 H   0  0  0  0  0  0  0  0  0  0  0  0
   -3.0871    2.5686   -1.1473 H   0  0  0  0  0  0  0  0  0  0  0  0
   -3.8746    1.1899   -1.9297 H   0  0  0  0  0  0  0  0  0  0  0  0
   -2.9720   -1.1064   -1.1032 H   0  0  0  0  0  0  0  0  0  0  0  0
   -1.5269   -1.2809   -2.1211 H   0  0  0  0  0  0  0  0  0  0  0  0
   -1.0694   -1.9960    0.4934 H   0  0  0  0  0  0  0  0  0  0  0  0
   -0.7346    1.9900    0.3077 H   0  0  0  0  0  0  0  0  0  0  0  0
  1  2  1  0
  2  3  1  0
  2  4  1  0
  4  5  1  0
  5  6  1  0
  6  7  1  0
  7  8  1  0
  8  9  2  0
  7  2  1  0
  8  5  1  0
  1 10  1  0
  1 11  1  0
  1 12  1  0
  3 13  1  0
  3 14  1  0
  3 15  1  0
  4 16  1  0
  4 17  1  0
  5 18  1  0
  7 19  1  0
M  END
$$$$
