
     RDKit          3D

 19 21  0  0  0  0  0  0  0  0999 V2000
    2.0617   -0.2511   -1.4660 C   0  0  0  0  0  0  0  0  0  0  0  0
    1.5731    0.0165   -0.0425 C   0  0  0  0  0  0  0  0  0  0  0  0
    2.5660   -0.4890    1.0610 C   0  0  0  0  0  0  0  0  0  0  0  0
    2.4647    0.4193    2.1798 O   0  0  0  0  0  0  0  0  0  0  0  0
    2.1060    1.6547    1.6573 C   0  0  0  0  0  0  0  0  0  0  0  0
    0.6485    2.0093    1.4669 C   0  0  0  0  0  0  0  0  0  0  0  0
    1.4626    1.4922    0.3151 C   0  0  0  0  0  0  0  0  0  0  0  0
    2.2765    2.5133   -0.2952 O   0  0  0  0  0  0  0  0  0  0  0  0
    3.0366    2.6424    0.9461 C   0  0  0  0  0  0  0  0  0  0  0  0
    2.2672   -1.3160   -1.6132 H   0  0  0  0  0  0  0  0  0  0  0  0
    1.3114    0.0521   -2.2015 H   0  0  0  0  0  0  0  0  0  0  0  0
    2.9763    0.3114   -1.6716 H   0  0  0  0  0  0  0  0  0  0  0  0
    0.6012   -0.4662    0.1060 H   0  0  0  0  0  0  0  0  0  0  0  0
    2.3424   -1.4945    1.4290 H   0  0  0  0  0  0  0  0  0  0  0  0
    3.5939   -0.4854    0.6681 H   0  0  0  0  0  0  0  0  0  0  0  0
   -0.0464    1.3053    1.9106 H   0  0  0  0  0  0  0  0  0  0  0  0
    0.3356    3.0493    1.4729 H   0  0  0  0  0  0  0  0  0  0  0  0
    4.0560    2.2578    0.8294 H   0  0  0  0  0  0  0  0  0  0  0  0
    3.0662    3.6770    1.3056 H   0  0  0  0  0  0  0  0  0  0  0  0
  1  2  1  0
  2  3  1  0
  3  4  1  0
  4  5  1  0
  5  6  1  0
  6  7  1  0
  7  8  1  0
  8  9  1  0
  7  2  1  0
  7  5  1  0
  9  5  1  0
  1 10  1  0
  1 11  1  0
  1 12  1  0
  2 13  1  0
  3 14  1  0
  3 15  1  0
  6 16  1  0
  6 17  1  0
  9 18  1  0
  9 19  1  0
M  END
$$$$
