gdb 3423	2.6196691	1.5500552	1.1347191	3.5644	74.93	-0.22507	-0.03306	0.19201	1114.8178	0.157199	-422.568114	-422.559722	-422.558777	-422.6019	31.051
 OpenBabel02181911413D

 19 20  0  0  1  0  0  0  0  0999 V2000
   -0.9540    1.9419    1.3087 C   0  0  0  0  0  0  0  0  0  0  0  0
   -1.0324    1.0255    0.0889 C   0  0  2  0  0  0  0  0  0  0  0  0
   -2.1964   -0.0181    0.0218 C   0  0  1  0  0  0  0  0  0  0  0  0
   -2.9259   -0.1526   -1.3218 C   0  0  0  0  0  0  0  0  0  0  0  0
   -1.9393   -0.9802   -2.1642 C   0  0  0  0  0  0  0  0  0  0  0  0
   -1.3166   -1.8796   -1.2476 O   0  0  0  0  0  0  0  0  0  0  0  0
   -1.1744   -1.2083   -0.0136 C   0  0  1  0  0  0  0  0  0  0  0  0
   -0.0313   -0.1486    0.0747 C   0  0  0  0  0  0  0  0  0  0  0  0
    1.1602   -0.2147    0.1530 O   0  0  0  0  0  0  0  0  0  0  0  0
   -1.0540    1.3728    2.2391 H   0  0  0  0  0  0  0  0  0  0  0  0
    0.0089    2.4601    1.3359 H   0  0  0  0  0  0  0  0  0  0  0  0
   -1.7491    2.6937    1.2873 H   0  0  0  0  0  0  0  0  0  0  0  0
   -0.9481    1.6207   -0.8302 H   0  0  0  0  0  0  0  0  0  0  0  0
   -2.8673    0.0141    0.8808 H   0  0  0  0  0  0  0  0  0  0  0  0
   -3.8597   -0.7073   -1.1891 H   0  0  0  0  0  0  0  0  0  0  0  0
   -3.1634    0.8108   -1.7816 H   0  0  0  0  0  0  0  0  0  0  0  0
   -2.4147   -1.5804   -2.9435 H   0  0  0  0  0  0  0  0  0  0  0  0
   -1.1880   -0.3319   -2.6418 H   0  0  0  0  0  0  0  0  0  0  0  0
   -1.1729   -1.9505    0.7895 H   0  0  0  0  0  0  0  0  0  0  0  0
  1 11  1  0  0  0  0
  1 10  1  0  0  0  0
  2 13  1  6  0  0  0
  2  1  1  0  0  0  0
  3  2  1  0  0  0  0
  3 14  1  1  0  0  0
  4 15  1  0  0  0  0
  4  3  1  0  0  0  0
  5  4  1  0  0  0  0
  5  6  1  0  0  0  0
  6  7  1  0  0  0  0
  7  3  1  0  0  0  0
  7  8  1  0  0  0  0
  7 19  1  1  0  0  0
  8  2  1  0  0  0  0
  8  9  2  0  0  0  0
 12  1  1  0  0  0  0
 16  4  1  0  0  0  0
 17  5  1  0  0  0  0
 18  5  1  0  0  0  0
M TOR 0 0 1 2 3
M TOR 1 0 1 2 6
M TOR 2 0 1 2 13
M TOR 3 0 1 7 6
M TOR 4 0 1 7 8
M TOR 5 1 2 3 4
M TOR 6 1 2 3 14
M TOR 7 1 2 3 15
M TOR 8 1 2 6 5
M TOR 9 1 2 6 7
M TOR 10 1 2 6 18
M TOR 11 1 7 6 5
M TOR 12 1 7 6 18
M TOR 13 2 1 0 9
M TOR 14 2 1 0 10
M TOR 15 2 1 0 11
M TOR 16 2 1 7 8
M TOR 17 2 3 4 5
M TOR 18 2 3 4 16
M TOR 19 2 3 4 17
M TOR 20 2 6 5 4
M TOR 21 2 6 7 8
M TOR 22 3 2 1 7
M TOR 23 3 2 1 12
M TOR 24 3 2 6 5
M TOR 25 3 2 6 7
M TOR 26 3 2 6 18
M TOR 27 3 4 5 6
M TOR 28 4 3 2 6
M TOR 29 4 3 2 13
M TOR 30 4 5 6 7
M TOR 31 4 5 6 18
M TOR 32 5 4 3 14
M TOR 33 5 4 3 15
M TOR 34 5 6 2 13
M TOR 35 5 6 7 8
M TOR 36 6 2 1 12
M TOR 37 6 2 3 14
M TOR 38 6 2 3 15
M TOR 39 6 5 4 16
M TOR 40 6 5 4 17
M TOR 41 6 7 1 12
M TOR 42 7 1 0 9
M TOR 43 7 1 0 10
M TOR 44 7 1 0 11
M TOR 45 7 1 2 13
M TOR 46 7 6 2 13
M TOR 47 8 7 1 12
M TOR 48 8 7 6 18
M  END
$$$$
