gdb 4393	4.2864909	0.9871465	0.8474366	2.9948	78.71	-0.2442	-0.03039	0.21381	1365.048	0.155874	-422.571095	-422.562092	-422.561147	-422.605768	32.549
 OpenBabel02181911413D

 19 19  0  0  1  0  0  0  0  0999 V2000
    1.3815   -0.7672   -1.1412 C   0  0  0  0  0  0  0  0  0  0  0  0
    1.2700    0.1195    0.1067 C   0  0  1  0  0  0  0  0  0  0  0  0
    1.7201   -0.6328    1.3643 C   0  0  0  0  0  0  0  0  0  0  0  0
    1.8112    0.2289    2.4887 O   0  0  0  0  0  0  0  0  0  0  0  0
    2.7971    1.2284    2.3483 C   0  0  2  0  0  0  0  0  0  0  0  0
    2.5161    2.2776    3.4255 C   0  0  0  0  0  0  0  0  0  0  0  0
    3.2078    3.2429    3.6079 O   0  0  0  0  0  0  0  0  0  0  0  0
    2.8104    1.8688    0.9830 C   0  0  0  0  0  0  0  0  0  0  0  0
    2.0896    1.3809   -0.0227 C   0  0  0  0  0  0  0  0  0  0  0  0
    0.7774   -1.6746   -1.0366 H   0  0  0  0  0  0  0  0  0  0  0  0
    1.0323   -0.2342   -2.0310 H   0  0  0  0  0  0  0  0  0  0  0  0
    2.4196   -1.0690   -1.3182 H   0  0  0  0  0  0  0  0  0  0  0  0
    0.2135    0.3980    0.2341 H   0  0  0  0  0  0  0  0  0  0  0  0
    1.0044   -1.4127    1.6393 H   0  0  0  0  0  0  0  0  0  0  0  0
    2.6931   -1.1159    1.1755 H   0  0  0  0  0  0  0  0  0  0  0  0
    3.8022    0.8197    2.5694 H   0  0  0  0  0  0  0  0  0  0  0  0
    1.6047    2.0627    4.0242 H   0  0  0  0  0  0  0  0  0  0  0  0
    3.4253    2.7579    0.8876 H   0  0  0  0  0  0  0  0  0  0  0  0
    2.0934    1.8794   -0.9896 H   0  0  0  0  0  0  0  0  0  0  0  0
  1 10  1  0  0  0  0
  1  2  1  0  0  0  0
  2 13  1  1  0  0  0
  2  3  1  0  0  0  0
  3 14  1  0  0  0  0
  3  4  1  0  0  0  0
  5  4  1  0  0  0  0
  5 16  1  1  0  0  0
  5  6  1  0  0  0  0
  6  7  2  0  0  0  0
  6 17  1  0  0  0  0
  8  5  1  0  0  0  0
  9  2  1  0  0  0  0
  9  8  2  0  0  0  0
 11  1  1  0  0  0  0
 12  1  1  0  0  0  0
 15  3  1  0  0  0  0
 18  8  1  0  0  0  0
 19  9  1  0  0  0  0
M TOR 0 0 1 2 3
M TOR 1 0 1 2 13
M TOR 2 0 1 2 14
M TOR 3 0 1 8 7
M TOR 4 0 1 8 18
M TOR 5 1 2 3 4
M TOR 6 1 8 7 4
M TOR 7 1 8 7 17
M TOR 8 2 1 0 9
M TOR 9 2 1 0 10
M TOR 10 2 1 0 11
M TOR 11 2 1 8 7
M TOR 12 2 1 8 18
M TOR 13 2 3 4 5
M TOR 14 2 3 4 7
M TOR 15 2 3 4 15
M TOR 16 3 2 1 8
M TOR 17 3 2 1 12
M TOR 18 3 4 5 6
M TOR 19 3 4 5 16
M TOR 20 3 4 7 8
M TOR 21 3 4 7 17
M TOR 22 4 3 2 13
M TOR 23 4 3 2 14
M TOR 24 4 7 8 18
M TOR 25 5 4 7 8
M TOR 26 5 4 7 17
M TOR 27 6 5 4 7
M TOR 28 6 5 4 15
M TOR 29 7 4 5 16
M TOR 30 7 8 1 12
M TOR 31 8 1 0 9
M TOR 32 8 1 0 10
M TOR 33 8 1 0 11
M TOR 34 8 1 2 13
M TOR 35 8 1 2 14
M TOR 36 8 7 4 15
M  END
$$$$
