
     RDKit          3D

 19 20  0  0  0  0  0  0  0  0999 V2000
    0.7854   -0.1482   -1.0912 C   0  0  0  0  0  0  0  0  0  0  0  0
    0.9580    0.2865    0.3540 C   0  0  0  0  0  0  0  0  0  0  0  0
    1.8538    1.5147    0.6519 C   0  0  0  0  0  0  0  0  0  0  0  0
    3.0050    1.6090   -0.2142 O   0  0  0  0  0  0  0  0  0  0  0  0
    3.8701    1.0308    0.7959 C   0  0  0  0  0  0  0  0  0  0  0  0
    2.6743    0.7156    1.7010 C   0  0  0  0  0  0  0  0  0  0  0  0
    1.9031   -0.5655    1.2993 C   0  0  0  0  0  0  0  0  0  0  0  0
    1.1576   -1.2747    2.3916 C   0  0  0  0  0  0  0  0  0  0  0  0
    1.1651   -0.9588    3.5556 O   0  0  0  0  0  0  0  0  0  0  0  0
    0.3206   -1.1377   -1.1553 H   0  0  0  0  0  0  0  0  0  0  0  0
    0.1479    0.5557   -1.6368 H   0  0  0  0  0  0  0  0  0  0  0  0
    1.7545   -0.1826   -1.5960 H   0  0  0  0  0  0  0  0  0  0  0  0
   -0.0168    0.4267    0.8368 H   0  0  0  0  0  0  0  0  0  0  0  0
    1.3746    2.4850    0.8092 H   0  0  0  0  0  0  0  0  0  0  0  0
    4.4497    0.1811    0.4141 H   0  0  0  0  0  0  0  0  0  0  0  0
    4.5591    1.7833    1.2003 H   0  0  0  0  0  0  0  0  0  0  0  0
    2.7198    0.9355    2.7647 H   0  0  0  0  0  0  0  0  0  0  0  0
    2.4950   -1.3010    0.7407 H   0  0  0  0  0  0  0  0  0  0  0  0
    0.5388   -2.1327    2.0385 H   0  0  0  0  0  0  0  0  0  0  0  0
  1  2  1  0
  2  3  1  0
  3  4  1  0
  4  5  1  0
  5  6  1  0
  6  7  1  0
  7  8  1  0
  8  9  2  0
  7  2  1  0
  6  3  1  0
  1 10  1  0
  1 11  1  0
  1 12  1  0
  2 13  1  0
  3 14  1  0
  5 15  1  0
  5 16  1  0
  6 17  1  0
  7 18  1  0
  8 19  1  0
M  END
$$$$
