gdb 3830	1.9416328	1.6606862	1.122825	3.821	78.8	-0.23112	-0.01641	0.21470999999999998	1153.3677	0.154742	-422.544705	-422.535371	-422.534427	-422.578559	34.427
 OpenBabel02181911413D

 19 20  0  0  1  0  0  0  0  0999 V2000
    1.0096    1.0830   -0.2537 C   0  0  0  0  0  0  0  0  0  0  0  0
    1.0238   -0.4082    0.0616 C   0  0  1  0  0  0  0  0  0  0  0  0
    1.7549   -1.3750   -0.9336 C   0  0  0  0  0  0  0  0  0  0  0  0
    2.6588   -1.8748    0.1840 C   0  0  1  0  0  0  0  0  0  0  0  0
    2.9659   -3.2101    0.2745 O   0  0  0  0  0  0  0  0  0  0  0  0
    3.3938   -0.7881    0.8562 C   0  0  0  0  0  0  0  0  0  0  0  0
    1.9112   -0.9037    1.2075 C   0  0  1  0  0  0  0  0  0  0  0  0
    1.4551   -1.2001    2.5597 C   0  0  0  0  0  0  0  0  0  0  0  0
    0.3281   -1.0065    2.9621 O   0  0  0  0  0  0  0  0  0  0  0  0
    0.5692    1.6468    0.5745 H   0  0  0  0  0  0  0  0  0  0  0  0
    2.0163    1.4771   -0.4312 H   0  0  0  0  0  0  0  0  0  0  0  0
    0.4152    1.2842   -1.1514 H   0  0  0  0  0  0  0  0  0  0  0  0
    0.0023   -0.7524    0.2402 H   0  0  0  0  0  0  0  0  0  0  0  0
    1.1012   -2.1655   -1.3067 H   0  0  0  0  0  0  0  0  0  0  0  0
    2.2747   -0.9135   -1.7807 H   0  0  0  0  0  0  0  0  0  0  0  0
    3.8078   -3.3167    0.7281 H   0  0  0  0  0  0  0  0  0  0  0  0
    4.0524   -1.1053    1.6636 H   0  0  0  0  0  0  0  0  0  0  0  0
    3.7545    0.0863    0.3180 H   0  0  0  0  0  0  0  0  0  0  0  0
    2.2286   -1.6576    3.2216 H   0  0  0  0  0  0  0  0  0  0  0  0
  1  2  1  0  0  0  0
  1 10  1  0  0  0  0
  2 13  1  1  0  0  0
  2  7  1  0  0  0  0
  3  2  1  0  0  0  0
  3  4  1  0  0  0  0
  4  5  1  1  0  0  0
  4  6  1  0  0  0  0
  4  7  1  0  0  0  0
  5 16  1  0  0  0  0
  6  7  1  0  0  0  0
  6 17  1  0  0  0  0
  7  8  1  1  0  0  0
  8  9  2  0  0  0  0
  8 19  1  0  0  0  0
 11  1  1  0  0  0  0
 12  1  1  0  0  0  0
 14  3  1  0  0  0  0
 15  3  1  0  0  0  0
 18  6  1  0  0  0  0
M TOR 0 0 1 2 3
M TOR 1 0 1 2 13
M TOR 2 0 1 2 14
M TOR 3 0 1 6 3
M TOR 4 0 1 6 5
M TOR 5 0 1 6 7
M TOR 6 1 2 3 4
M TOR 7 1 2 3 5
M TOR 8 1 2 3 6
M TOR 9 1 6 3 4
M TOR 10 1 6 3 5
M TOR 11 1 6 5 16
M TOR 12 1 6 5 17
M TOR 13 1 6 7 8
M TOR 14 1 6 7 18
M TOR 15 2 1 0 9
M TOR 16 2 1 0 10
M TOR 17 2 1 0 11
M TOR 18 2 1 6 5
M TOR 19 2 1 6 7
M TOR 20 2 3 4 15
M TOR 21 2 3 5 6
M TOR 22 2 3 5 16
M TOR 23 2 3 5 17
M TOR 24 2 3 6 7
M TOR 25 3 2 1 12
M TOR 26 3 5 6 7
M TOR 27 3 6 1 12
M TOR 28 3 6 5 16
M TOR 29 3 6 5 17
M TOR 30 3 6 7 8
M TOR 31 3 6 7 18
M TOR 32 4 3 2 13
M TOR 33 4 3 2 14
M TOR 34 4 3 5 6
M TOR 35 4 3 5 16
M TOR 36 4 3 5 17
M TOR 37 4 3 6 7
M TOR 38 5 3 2 13
M TOR 39 5 3 2 14
M TOR 40 5 3 4 15
M TOR 41 5 6 1 12
M TOR 42 5 6 7 8
M TOR 43 5 6 7 18
M TOR 44 6 1 0 9
M TOR 45 6 1 0 10
M TOR 46 6 1 0 11
M TOR 47 6 1 2 13
M TOR 48 6 1 2 14
M TOR 49 6 3 2 13
M TOR 50 6 3 2 14
M TOR 51 6 3 4 15
M TOR 52 7 6 1 12
M TOR 53 7 6 5 16
M TOR 54 7 6 5 17
M  END
$$$$
