gdb 1512	1.9110876	1.651562	1.0728191	3.5222	78.49	-0.24438	-0.03548	0.20889999999999997	1179.0226	0.153363	-422.57154	-422.561655	-422.56071	-422.605969	35.731
 OpenBabel02181911403D

 19 19  0  0  0  0  0  0  0  0999 V2000
    2.8462   -1.0668   -0.3547 C   0  0  0  0  0  0  0  0  0  0  0  0
    1.6715   -0.1012   -0.3375 C   0  0  0  0  0  0  0  0  0  0  0  0
    0.9201   -0.0612   -1.6549 C   0  0  0  0  0  0  0  0  0  0  0  0
    0.9393    0.1268    0.9266 C   0  0  0  0  0  0  0  0  0  0  0  0
    1.8514    1.2629    0.4509 C   0  0  0  0  0  0  0  0  0  0  0  0
    1.2046    2.5008   -0.0745 C   0  0  0  0  0  0  0  0  0  0  0  0
    0.0478    2.5790   -0.4228 O   0  0  0  0  0  0  0  0  0  0  0  0
    3.1384    1.4914    1.1618 C   0  0  0  0  0  0  0  0  0  0  0  0
    3.7769    2.5152    1.1040 O   0  0  0  0  0  0  0  0  0  0  0  0
    3.3209   -1.1880    0.6207 H   0  0  0  0  0  0  0  0  0  0  0  0
    2.4880   -2.0534   -0.6691 H   0  0  0  0  0  0  0  0  0  0  0  0
    3.6110   -0.7507   -1.0717 H   0  0  0  0  0  0  0  0  0  0  0  0
    0.5244   -1.0616   -1.8644 H   0  0  0  0  0  0  0  0  0  0  0  0
    0.0885    0.6417   -1.6345 H   0  0  0  0  0  0  0  0  0  0  0  0
    1.5885    0.2088   -2.4795 H   0  0  0  0  0  0  0  0  0  0  0  0
   -0.1174    0.3673    0.8758 H   0  0  0  0  0  0  0  0  0  0  0  0
    1.2565   -0.4023    1.8206 H   0  0  0  0  0  0  0  0  0  0  0  0
    1.8787    3.3762   -0.1047 H   0  0  0  0  0  0  0  0  0  0  0  0
    3.4867    0.6437    1.7914 H   0  0  0  0  0  0  0  0  0  0  0  0
  1  2  1  0  0  0  0
  1 10  1  0  0  0  0
  2  5  1  0  0  0  0
  2  4  1  0  0  0  0
  3 14  1  0  0  0  0
  3  2  1  0  0  0  0
  4 17  1  0  0  0  0
  5  4  1  0  0  0  0
  5  8  1  0  0  0  0
  6  5  1  0  0  0  0
  7  6  2  0  0  0  0
  8 19  1  0  0  0  0
  9  8  2  0  0  0  0
 11  1  1  0  0  0  0
 12  1  1  0  0  0  0
 13  3  1  0  0  0  0
 15  3  1  0  0  0  0
 16  4  1  0  0  0  0
 18  6  1  0  0  0  0
M TOR 0 0 1 2 12
M TOR 1 0 1 2 13
M TOR 2 0 1 2 14
M TOR 3 0 1 3 4
M TOR 4 0 1 3 15
M TOR 5 0 1 3 16
M TOR 6 0 1 4 5
M TOR 7 0 1 4 7
M TOR 8 1 3 4 5
M TOR 9 1 3 4 7
M TOR 10 1 4 3 15
M TOR 11 1 4 3 16
M TOR 12 1 4 5 6
M TOR 13 1 4 5 17
M TOR 14 1 4 7 8
M TOR 15 1 4 7 18
M TOR 16 2 1 0 9
M TOR 17 2 1 0 10
M TOR 18 2 1 0 11
M TOR 19 2 1 3 4
M TOR 20 2 1 3 15
M TOR 21 2 1 3 16
M TOR 22 2 1 4 5
M TOR 23 2 1 4 7
M TOR 24 3 1 0 9
M TOR 25 3 1 0 10
M TOR 26 3 1 0 11
M TOR 27 3 1 2 12
M TOR 28 3 1 2 13
M TOR 29 3 1 2 14
M TOR 30 3 4 5 6
M TOR 31 3 4 5 17
M TOR 32 3 4 7 8
M TOR 33 3 4 7 18
M TOR 34 4 1 0 9
M TOR 35 4 1 0 10
M TOR 36 4 1 0 11
M TOR 37 4 1 2 12
M TOR 38 4 1 2 13
M TOR 39 4 1 2 14
M TOR 40 5 4 3 15
M TOR 41 5 4 3 16
M TOR 42 5 4 7 8
M TOR 43 5 4 7 18
M TOR 44 6 5 4 7
M TOR 45 7 4 3 15
M TOR 46 7 4 3 16
M TOR 47 7 4 5 17
M  END
$$$$
