gdb 675	3.4684036	1.3053133	1.1233983	3.4946	74.42	-0.23773	-0.01441	0.22332	1118.4541	0.158802	-422.599961	-422.592122	-422.591178	-422.633538	29.436
 OpenBabel02181911403D

 19 20  0  0  1  0  0  0  0  0999 V2000
    1.2148    0.0446   -0.5552 O   0  0  0  0  0  0  0  0  0  0  0  0
    0.0914    0.0747   -0.1273 C   0  0  0  0  0  0  0  0  0  0  0  0
   -0.8168   -1.1433    0.0900 C   0  0  0  0  0  0  0  0  0  0  0  0
   -2.0304   -0.6432    0.8959 C   0  0  2  0  0  0  0  0  0  0  0  0
   -3.4057   -1.1487    0.4127 C   0  0  0  0  0  0  0  0  0  0  0  0
   -3.9040   -0.0102   -0.5207 C   0  0  0  0  0  0  0  0  0  0  0  0
   -2.8393    0.9286   -0.6305 O   0  0  0  0  0  0  0  0  0  0  0  0
   -2.0897    0.8745    0.5773 C   0  0  2  0  0  0  0  0  0  0  0  0
   -0.6666    1.3364    0.3056 C   0  0  0  0  0  0  0  0  0  0  0  0
   -1.1148   -1.5029   -0.9022 H   0  0  0  0  0  0  0  0  0  0  0  0
   -0.2603   -1.9548    0.5651 H   0  0  0  0  0  0  0  0  0  0  0  0
   -1.8799   -0.8242    1.9634 H   0  0  0  0  0  0  0  0  0  0  0  0
   -3.3251   -2.1056   -0.1093 H   0  0  0  0  0  0  0  0  0  0  0  0
   -4.0936   -1.2929    1.2497 H   0  0  0  0  0  0  0  0  0  0  0  0
   -4.1495   -0.3483   -1.5311 H   0  0  0  0  0  0  0  0  0  0  0  0
   -4.7972    0.4740   -0.0987 H   0  0  0  0  0  0  0  0  0  0  0  0
   -2.5914    1.4513    1.3688 H   0  0  0  0  0  0  0  0  0  0  0  0
   -0.6088    2.1161   -0.4572 H   0  0  0  0  0  0  0  0  0  0  0  0
   -0.1924    1.7272    1.2140 H   0  0  0  0  0  0  0  0  0  0  0  0
  1  2  2  0  0  0  0
  2  3  1  0  0  0  0
  2  9  1  0  0  0  0
  3 11  1  0  0  0  0
  3  4  1  0  0  0  0
  4 12  1  1  0  0  0
  5  4  1  0  0  0  0
  5 14  1  0  0  0  0
  6 16  1  0  0  0  0
  6  5  1  0  0  0  0
  7  6  1  0  0  0  0
  7  8  1  0  0  0  0
  8  4  1  0  0  0  0
  8 17  1  1  0  0  0
  9  8  1  0  0  0  0
  9 19  1  0  0  0  0
 10  3  1  0  0  0  0
 13  5  1  0  0  0  0
 15  6  1  0  0  0  0
 18  9  1  0  0  0  0
M TOR 0 0 1 2 3
M TOR 1 0 1 2 9
M TOR 2 0 1 2 10
M TOR 3 0 1 8 7
M TOR 4 0 1 8 17
M TOR 5 0 1 8 18
M TOR 6 1 2 3 4
M TOR 7 1 2 3 7
M TOR 8 1 2 3 11
M TOR 9 1 8 7 3
M TOR 10 1 8 7 6
M TOR 11 1 8 7 16
M TOR 12 2 1 8 7
M TOR 13 2 1 8 17
M TOR 14 2 1 8 18
M TOR 15 2 3 4 5
M TOR 16 2 3 4 12
M TOR 17 2 3 4 13
M TOR 18 2 3 7 6
M TOR 19 2 3 7 8
M TOR 20 2 3 7 16
M TOR 21 3 2 1 8
M TOR 22 3 4 5 6
M TOR 23 3 4 5 14
M TOR 24 3 4 5 15
M TOR 25 3 7 6 5
M TOR 26 3 7 8 17
M TOR 27 3 7 8 18
M TOR 28 4 3 2 9
M TOR 29 4 3 2 10
M TOR 30 4 3 7 6
M TOR 31 4 3 7 8
M TOR 32 4 3 7 16
M TOR 33 4 5 6 7
M TOR 34 5 4 3 7
M TOR 35 5 4 3 11
M TOR 36 5 6 7 8
M TOR 37 5 6 7 16
M TOR 38 6 5 4 12
M TOR 39 6 5 4 13
M TOR 40 6 7 3 11
M TOR 41 6 7 8 17
M TOR 42 6 7 8 18
M TOR 43 7 3 2 9
M TOR 44 7 3 2 10
M TOR 45 7 3 4 12
M TOR 46 7 3 4 13
M TOR 47 7 6 5 14
M TOR 48 7 6 5 15
M TOR 49 8 1 2 9
M TOR 50 8 1 2 10
M TOR 51 8 7 3 11
M  END
$$$$
