
     RDKit          3D

 19 19  0  0  0  0  0  0  0  0999 V2000
    1.1797   -0.2313    1.1203 C   0  0  0  0  0  0  0  0  0  0  0  0
    0.8260    0.1255   -0.3251 C   0  0  0  0  0  0  0  0  0  0  0  0
    1.7721   -0.4876   -1.3867 C   0  0  0  0  0  0  0  0  0  0  0  0
    3.1168   -0.1217   -1.1381 O   0  0  0  0  0  0  0  0  0  0  0  0
    1.3239   -0.0954   -2.8115 C   0  0  0  0  0  0  0  0  0  0  0  0
    0.6517   -1.3380   -3.3406 C   0  0  0  0  0  0  0  0  0  0  0  0
    0.8178   -2.4089   -2.5511 C   0  0  0  0  0  0  0  0  0  0  0  0
    1.6530   -2.0290   -1.3987 C   0  0  0  0  0  0  0  0  0  0  0  0
    2.2329   -2.7455   -0.6097 O   0  0  0  0  0  0  0  0  0  0  0  0
    1.1358   -1.3089    1.2976 H   0  0  0  0  0  0  0  0  0  0  0  0
    2.1900    0.1104    1.3623 H   0  0  0  0  0  0  0  0  0  0  0  0
    0.4872    0.2569    1.8124 H   0  0  0  0  0  0  0  0  0  0  0  0
   -0.2040   -0.1771   -0.5537 H   0  0  0  0  0  0  0  0  0  0  0  0
    0.8720    1.2136   -0.4547 H   0  0  0  0  0  0  0  0  0  0  0  0
    3.4805   -0.8239   -0.5800 H   0  0  0  0  0  0  0  0  0  0  0  0
    0.6573    0.7735   -2.8337 H   0  0  0  0  0  0  0  0  0  0  0  0
    2.2031    0.1586   -3.4148 H   0  0  0  0  0  0  0  0  0  0  0  0
    0.1124   -1.3397   -4.2824 H   0  0  0  0  0  0  0  0  0  0  0  0
    0.4735   -3.4187   -2.7324 H   0  0  0  0  0  0  0  0  0  0  0  0
  1  2  1  0
  2  3  1  0
  3  4  1  0
  3  5  1  0
  5  6  1  0
  6  7  2  0
  7  8  1  0
  8  9  2  0
  8  3  1  0
  1 10  1  0
  1 11  1  0
  1 12  1  0
  2 13  1  0
  2 14  1  0
  4 15  1  0
  5 16  1  0
  5 17  1  0
  6 18  1  0
  7 19  1  0
M  END
$$$$
