gdb 60	5.4638832	0.7738403	0.7190734	1.1659	81.59	-0.21629	0.01568	0.23197	1633.2698	0.155876	-422.568592	-422.55908	-422.558136	-422.603861	33.237
 OpenBabel02181911403D

 19 19  0  0  0  0  0  0  0  0999 V2000
    1.4566   -0.2269    0.1311 C   0  0  0  0  0  0  0  0  0  0  0  0
    0.0557   -0.0960    0.0953 O   0  0  0  0  0  0  0  0  0  0  0  0
   -0.4207    0.8483    1.0394 C   0  0  0  0  0  0  0  0  0  0  0  0
   -1.9034    0.8984    1.0081 C   0  0  0  0  0  0  0  0  0  0  0  0
   -2.7936    1.7929    0.5005 C   0  0  0  0  0  0  0  0  0  0  0  0
   -4.1086    1.2872    0.7844 C   0  0  0  0  0  0  0  0  0  0  0  0
   -5.4233    1.9096    0.4302 C   0  0  0  0  0  0  0  0  0  0  0  0
   -3.8990    0.1177    1.4477 C   0  0  0  0  0  0  0  0  0  0  0  0
   -2.5718   -0.1338    1.5969 O   0  0  0  0  0  0  0  0  0  0  0  0
    1.8123   -0.5636    1.1184 H   0  0  0  0  0  0  0  0  0  0  0  0
    1.7330   -0.9734   -0.6172 H   0  0  0  0  0  0  0  0  0  0  0  0
    1.9650    0.7214   -0.1085 H   0  0  0  0  0  0  0  0  0  0  0  0
   -0.0739    0.5756    2.0504 H   0  0  0  0  0  0  0  0  0  0  0  0
   -0.0276    1.8531    0.8161 H   0  0  0  0  0  0  0  0  0  0  0  0
   -2.5478    2.7061   -0.0206 H   0  0  0  0  0  0  0  0  0  0  0  0
   -6.2578    1.2936    0.7769 H   0  0  0  0  0  0  0  0  0  0  0  0
   -5.5328    2.9027    0.8807 H   0  0  0  0  0  0  0  0  0  0  0  0
   -5.5298    2.0350   -0.6533 H   0  0  0  0  0  0  0  0  0  0  0  0
   -4.5666   -0.6194    1.8643 H   0  0  0  0  0  0  0  0  0  0  0  0
  1 10  1  0  0  0  0
  2  1  1  0  0  0  0
  2  3  1  0  0  0  0
  3 13  1  0  0  0  0
  4  3  1  0  0  0  0
  4  9  1  0  0  0  0
  5  6  1  0  0  0  0
  5  4  2  0  0  0  0
  6  8  2  0  0  0  0
  7 16  1  0  0  0  0
  7  6  1  0  0  0  0
  7 17  1  0  0  0  0
  8  9  1  0  0  0  0
  8 19  1  0  0  0  0
 11  1  1  0  0  0  0
 12  1  1  0  0  0  0
 14  3  1  0  0  0  0
 15  5  1  0  0  0  0
 18  7  1  0  0  0  0
M TOR 0 0 1 2 3
M TOR 1 0 1 2 12
M TOR 2 0 1 2 13
M TOR 3 1 2 3 4
M TOR 4 1 2 3 8
M TOR 5 2 1 0 9
M TOR 6 2 1 0 10
M TOR 7 2 1 0 11
M TOR 8 2 3 4 5
M TOR 9 2 3 4 14
M TOR 10 2 3 8 7
M TOR 11 3 4 5 6
M TOR 12 3 4 5 7
M TOR 13 3 8 7 5
M TOR 14 3 8 7 18
M TOR 15 4 3 2 12
M TOR 16 4 3 2 13
M TOR 17 4 3 8 7
M TOR 18 4 5 6 15
M TOR 19 4 5 6 16
M TOR 20 4 5 6 17
M TOR 21 4 5 7 8
M TOR 22 4 5 7 18
M TOR 23 5 4 3 8
M TOR 24 6 5 4 14
M TOR 25 6 5 7 8
M TOR 26 6 5 7 18
M TOR 27 7 5 4 14
M TOR 28 7 5 6 15
M TOR 29 7 5 6 16
M TOR 30 7 5 6 17
M TOR 31 8 3 2 12
M TOR 32 8 3 2 13
M TOR 33 8 3 4 14
M  END
$$$$
