gdb 5704	3.7121495	1.0590039	0.9579387	2.4179	75.53	-0.25848	0.04895	0.30743	1275.7057	0.156289	-422.502653	-422.494116	-422.493172	-422.536106	32.242
 OpenBabel02181911423D

 19 21  0  0  1  0  0  0  0  0999 V2000
    1.5836    0.4574   -0.1641 O   0  0  0  0  0  0  0  0  0  0  0  0
    0.5439   -0.2186    0.5266 C   0  0  0  0  0  0  0  0  0  0  0  0
   -0.2115    0.7149    1.4453 C   0  0  1  0  0  0  0  0  0  0  0  0
   -1.1024    0.1010    2.3905 O   0  0  0  0  0  0  0  0  0  0  0  0
    0.0482    0.7749    2.8861 C   0  0  1  0  0  0  0  0  0  0  0  0
    1.1850    0.1140    3.6977 C   0  0  0  0  0  0  0  0  0  0  0  0
    1.1590    1.3449    4.6192 C   0  0  2  0  0  0  0  0  0  0  0  0
   -0.2010    1.4979    5.2290 C   0  0  0  0  0  0  0  0  0  0  0  0
    0.0066    1.9655    3.8099 C   0  0  2  0  0  0  0  0  0  0  0  0
    2.2080    0.7850    0.4914 H   0  0  0  0  0  0  0  0  0  0  0  0
   -0.1303   -0.6029   -0.2459 H   0  0  0  0  0  0  0  0  0  0  0  0
    0.9121   -1.0816    1.1002 H   0  0  0  0  0  0  0  0  0  0  0  0
   -0.6123    1.6050    0.9556 H   0  0  0  0  0  0  0  0  0  0  0  0
    0.9474   -0.8448    4.1686 H   0  0  0  0  0  0  0  0  0  0  0  0
    2.1115    0.0061    3.1260 H   0  0  0  0  0  0  0  0  0  0  0  0
    2.0342    1.8425    5.0155 H   0  0  0  0  0  0  0  0  0  0  0  0
   -0.8157    0.6245    5.4319 H   0  0  0  0  0  0  0  0  0  0  0  0
   -0.3031    2.2947    5.9585 H   0  0  0  0  0  0  0  0  0  0  0  0
   -0.1549    2.9944    3.5127 H   0  0  0  0  0  0  0  0  0  0  0  0
  1 10  1  0  0  0  0
  1  2  1  0  0  0  0
  2 12  1  0  0  0  0
  2  3  1  0  0  0  0
  3 13  1  6  0  0  0
  3  4  1  0  0  0  0
  3  5  1  0  0  0  0
  5  4  1  1  0  0  0
  5  6  1  0  0  0  0
  5  9  1  0  0  0  0
  6 14  1  0  0  0  0
  6  7  1  0  0  0  0
  7 16  1  1  0  0  0
  7  8  1  0  0  0  0
  8 17  1  0  0  0  0
  8 18  1  0  0  0  0
  9 19  1  6  0  0  0
  9  7  1  0  0  0  0
  9  8  1  0  0  0  0
 11  2  1  0  0  0  0
 15  6  1  0  0  0  0
M TOR 0 0 1 2 3
M TOR 1 0 1 2 4
M TOR 2 0 1 2 12
M TOR 3 1 2 3 4
M TOR 4 1 2 4 5
M TOR 5 1 2 4 8
M TOR 6 2 1 0 9
M TOR 7 2 3 4 5
M TOR 8 2 3 4 8
M TOR 9 2 4 5 6
M TOR 10 2 4 5 13
M TOR 11 2 4 5 14
M TOR 12 2 4 8 6
M TOR 13 2 4 8 7
M TOR 14 2 4 8 18
M TOR 15 3 2 1 10
M TOR 16 3 2 1 11
M TOR 17 3 4 2 12
M TOR 18 3 4 5 6
M TOR 19 3 4 5 13
M TOR 20 3 4 5 14
M TOR 21 3 4 8 6
M TOR 22 3 4 8 7
M TOR 23 3 4 8 18
M TOR 24 4 2 1 10
M TOR 25 4 2 1 11
M TOR 26 4 5 6 7
M TOR 27 4 5 6 8
M TOR 28 4 5 6 15
M TOR 29 4 8 6 7
M TOR 30 4 8 6 15
M TOR 31 4 8 7 16
M TOR 32 4 8 7 17
M TOR 33 5 4 2 12
M TOR 34 5 4 8 7
M TOR 35 5 4 8 18
M TOR 36 5 6 7 8
M TOR 37 5 6 7 16
M TOR 38 5 6 7 17
M TOR 39 5 6 8 18
M TOR 40 6 7 8 18
M TOR 41 6 8 7 16
M TOR 42 6 8 7 17
M TOR 43 7 6 5 13
M TOR 44 7 6 5 14
M TOR 45 7 8 6 15
M TOR 46 8 4 2 12
M TOR 47 8 4 5 13
M TOR 48 8 4 5 14
M TOR 49 8 6 5 13
M TOR 50 8 6 5 14
M  END
$$$$
