
     RDKit          3D

 19 21  0  0  0  0  0  0  0  0999 V2000
    1.4095    0.5583   -0.1695 O   0  0  0  0  0  0  0  0  0  0  0  0
    0.0334    0.2789    0.0427 C   0  0  0  0  0  0  0  0  0  0  0  0
   -0.7969    0.4600   -1.2026 C   0  0  0  0  0  0  0  0  0  0  0  0
   -0.9869   -0.7050   -2.1677 C   0  0  0  0  0  0  0  0  0  0  0  0
   -2.1588   -0.1626   -1.3887 C   0  0  0  0  0  0  0  0  0  0  0  0
   -3.0293    0.7586   -1.9968 O   0  0  0  0  0  0  0  0  0  0  0  0
   -2.3848    2.0029   -2.1534 C   0  0  0  0  0  0  0  0  0  0  0  0
   -1.2978    2.1283   -3.1871 C   0  0  0  0  0  0  0  0  0  0  0  0
   -0.9427    1.8745   -1.7337 C   0  0  0  0  0  0  0  0  0  0  0  0
    1.7001    0.0185   -0.9126 H   0  0  0  0  0  0  0  0  0  0  0  0
   -0.1137   -0.7385    0.4397 H   0  0  0  0  0  0  0  0  0  0  0  0
   -0.2892    0.9813    0.8198 H   0  0  0  0  0  0  0  0  0  0  0  0
   -0.9395   -0.5444   -3.2373 H   0  0  0  0  0  0  0  0  0  0  0  0
   -0.6052   -1.6704   -1.8459 H   0  0  0  0  0  0  0  0  0  0  0  0
   -2.6533   -0.7825   -0.6472 H   0  0  0  0  0  0  0  0  0  0  0  0
   -3.0304    2.8420   -1.9176 H   0  0  0  0  0  0  0  0  0  0  0  0
   -1.1789    1.3454   -3.9257 H   0  0  0  0  0  0  0  0  0  0  0  0
   -1.0973    3.1264   -3.5635 H   0  0  0  0  0  0  0  0  0  0  0  0
   -0.4248    2.6488   -1.1812 H   0  0  0  0  0  0  0  0  0  0  0  0
  1  2  1  0
  2  3  1  0
  3  4  1  0
  4  5  1  0
  5  6  1  0
  6  7  1  0
  7  8  1  0
  8  9  1  0
  5  3  1  0
  9  7  1  0
  9  3  1  0
  1 10  1  0
  2 11  1  0
  2 12  1  0
  4 13  1  0
  4 14  1  0
  5 15  1  0
  7 16  1  0
  8 17  1  0
  8 18  1  0
  9 19  1  0
M  END
$$$$
