gdb 2550	2.6966528	1.6763865	1.4992433	1.1082	75.7	-0.22641	0.01593	0.24234	987.9364	0.15884	-422.560946	-422.553397	-422.552452	-422.592594	29.781
 OpenBabel02181911413D

 19 20  0  0  1  0  0  0  0  0999 V2000
   -3.6803    1.5494   -1.4335 C   0  0  0  0  0  0  0  0  0  0  0  0
   -2.7985    0.5456   -0.7708 C   0  0  0  0  0  0  0  0  0  0  0  0
   -3.0112   -0.7408   -0.5007 C   0  0  0  0  0  0  0  0  0  0  0  0
   -1.8178   -1.2521    0.2902 C   0  0  2  0  0  0  0  0  0  0  0  0
   -2.0030   -0.9881    1.7966 C   0  0  0  0  0  0  0  0  0  0  0  0
   -2.3761    0.3667    2.0279 O   0  0  0  0  0  0  0  0  0  0  0  0
   -1.5972    1.3172    1.3101 C   0  0  0  0  0  0  0  0  0  0  0  0
   -1.4384    0.8905   -0.1613 C   0  0  1  0  0  0  0  0  0  0  0  0
   -0.7634   -0.3720   -0.1299 O   0  0  0  0  0  0  0  0  0  0  0  0
   -3.9286    2.3716   -0.7502 H   0  0  0  0  0  0  0  0  0  0  0  0
   -3.1861    2.0032   -2.3019 H   0  0  0  0  0  0  0  0  0  0  0  0
   -4.6179    1.0995   -1.7699 H   0  0  0  0  0  0  0  0  0  0  0  0
   -3.9024   -1.3184   -0.7097 H   0  0  0  0  0  0  0  0  0  0  0  0
   -1.5193   -2.2862    0.0951 H   0  0  0  0  0  0  0  0  0  0  0  0
   -2.8022   -1.5997    2.2277 H   0  0  0  0  0  0  0  0  0  0  0  0
   -1.0568   -1.2252    2.3077 H   0  0  0  0  0  0  0  0  0  0  0  0
   -2.1186    2.2749    1.4122 H   0  0  0  0  0  0  0  0  0  0  0  0
   -0.5919    1.4131    1.7492 H   0  0  0  0  0  0  0  0  0  0  0  0
   -0.8357    1.6075   -0.7279 H   0  0  0  0  0  0  0  0  0  0  0  0
  1  2  1  0  0  0  0
  1 10  1  0  0  0  0
  2  3  2  0  0  0  0
  2  8  1  0  0  0  0
  3  4  1  0  0  0  0
  4 14  1  6  0  0  0
  4  5  1  0  0  0  0
  5  6  1  0  0  0  0
  5 15  1  0  0  0  0
  5 16  1  0  0  0  0
  7 17  1  0  0  0  0
  7 18  1  0  0  0  0
  7  6  1  0  0  0  0
  8 19  1  6  0  0  0
  8  9  1  0  0  0  0
  8  7  1  0  0  0  0
  9  4  1  0  0  0  0
 11  1  1  0  0  0  0
 12  1  1  0  0  0  0
 13  3  1  0  0  0  0
M TOR 0 0 1 2 3
M TOR 1 0 1 2 12
M TOR 2 0 1 7 6
M TOR 3 0 1 7 8
M TOR 4 0 1 7 18
M TOR 5 1 2 3 4
M TOR 6 1 2 3 8
M TOR 7 1 2 3 13
M TOR 8 1 7 6 5
M TOR 9 1 7 6 16
M TOR 10 1 7 6 17
M TOR 11 1 7 8 3
M TOR 12 2 1 0 9
M TOR 13 2 1 0 10
M TOR 14 2 1 0 11
M TOR 15 2 1 7 6
M TOR 16 2 1 7 8
M TOR 17 2 1 7 18
M TOR 18 2 3 4 5
M TOR 19 2 3 4 14
M TOR 20 2 3 4 15
M TOR 21 2 3 8 7
M TOR 22 3 2 1 7
M TOR 23 3 4 5 6
M TOR 24 3 8 7 6
M TOR 25 3 8 7 18
M TOR 26 4 3 2 12
M TOR 27 4 3 8 7
M TOR 28 4 5 6 7
M TOR 29 4 5 6 16
M TOR 30 4 5 6 17
M TOR 31 5 4 3 8
M TOR 32 5 4 3 13
M TOR 33 5 6 7 8
M TOR 34 5 6 7 18
M TOR 35 6 5 4 14
M TOR 36 6 5 4 15
M TOR 37 7 1 0 9
M TOR 38 7 1 0 10
M TOR 39 7 1 0 11
M TOR 40 7 1 2 12
M TOR 41 7 8 3 13
M TOR 42 8 3 2 12
M TOR 43 8 3 4 14
M TOR 44 8 3 4 15
M TOR 45 8 7 6 16
M TOR 46 8 7 6 17
M  END
$$$$
