gdb 4282	3.2340895	1.3406913	1.1045095	1.0072	75.78	-0.24056	0.00338	0.24394	1122.0489	0.158625	-422.549874	-422.541897	-422.540953	-422.582542	30.644
 OpenBabel02181911413D

 19 20  0  0  1  0  0  0  0  0999 V2000
    0.2770   -0.0568    0.8655 O   0  0  0  0  0  0  0  0  0  0  0  0
   -1.0468    0.4503    1.0179 C   0  0  2  0  0  0  0  0  0  0  0  0
   -1.8373   -0.0280   -0.2033 C   0  0  0  0  0  0  0  0  0  0  0  0
   -3.1842    0.6661   -0.3597 C   0  0  1  0  0  0  0  0  0  0  0  0
   -4.2601    0.5666    0.7453 C   0  0  0  0  0  0  0  0  0  0  0  0
   -4.3730    2.0017    0.8289 O   0  0  0  0  0  0  0  0  0  0  0  0
   -3.2302    2.1857   -0.0626 C   0  0  1  0  0  0  0  0  0  0  0  0
   -2.0326    2.7325    0.6533 C   0  0  0  0  0  0  0  0  0  0  0  0
   -1.0642    1.9551    1.1365 C   0  0  0  0  0  0  0  0  0  0  0  0
    0.7695    0.1436    1.6679 H   0  0  0  0  0  0  0  0  0  0  0  0
   -1.4977    0.0250    1.9314 H   0  0  0  0  0  0  0  0  0  0  0  0
   -1.2172    0.1843   -1.0820 H   0  0  0  0  0  0  0  0  0  0  0  0
   -1.9605   -1.1156   -0.1584 H   0  0  0  0  0  0  0  0  0  0  0  0
   -3.6047    0.4372   -1.3414 H   0  0  0  0  0  0  0  0  0  0  0  0
   -5.2083    0.0965    0.4600 H   0  0  0  0  0  0  0  0  0  0  0  0
   -3.9217    0.1247    1.6930 H   0  0  0  0  0  0  0  0  0  0  0  0
   -3.5111    2.8318   -0.9027 H   0  0  0  0  0  0  0  0  0  0  0  0
   -1.9955    3.8089    0.8015 H   0  0  0  0  0  0  0  0  0  0  0  0
   -0.2281    2.3973    1.6764 H   0  0  0  0  0  0  0  0  0  0  0  0
  1  2  1  0  0  0  0
  1 10  1  0  0  0  0
  2  9  1  0  0  0  0
  2 11  1  1  0  0  0
  3 13  1  0  0  0  0
  3  2  1  0  0  0  0
  4 14  1  6  0  0  0
  4  3  1  0  0  0  0
  4  7  1  0  0  0  0
  4  5  1  0  0  0  0
  5  6  1  0  0  0  0
  5 16  1  0  0  0  0
  7 17  1  6  0  0  0
  7  8  1  0  0  0  0
  7  6  1  0  0  0  0
  8 18  1  0  0  0  0
  8  9  2  0  0  0  0
  9 19  1  0  0  0  0
 12  3  1  0  0  0  0
 15  5  1  0  0  0  0
M TOR 0 0 1 2 3
M TOR 1 0 1 2 11
M TOR 2 0 1 2 12
M TOR 3 0 1 8 7
M TOR 4 0 1 8 18
M TOR 5 1 2 3 4
M TOR 6 1 2 3 6
M TOR 7 1 2 3 13
M TOR 8 1 8 7 6
M TOR 9 1 8 7 17
M TOR 10 2 1 0 9
M TOR 11 2 1 8 7
M TOR 12 2 1 8 18
M TOR 13 2 3 4 5
M TOR 14 2 3 4 14
M TOR 15 2 3 4 15
M TOR 16 2 3 6 5
M TOR 17 2 3 6 7
M TOR 18 2 3 6 16
M TOR 19 3 2 1 8
M TOR 20 3 2 1 10
M TOR 21 3 4 5 6
M TOR 22 3 6 7 8
M TOR 23 3 6 7 17
M TOR 24 4 3 2 11
M TOR 25 4 3 2 12
M TOR 26 4 3 6 7
M TOR 27 4 3 6 16
M TOR 28 4 5 6 7
M TOR 29 4 5 6 16
M TOR 30 5 4 3 13
M TOR 31 5 6 3 13
M TOR 32 5 6 7 8
M TOR 33 5 6 7 17
M TOR 34 6 3 2 11
M TOR 35 6 3 2 12
M TOR 36 6 3 4 14
M TOR 37 6 3 4 15
M TOR 38 6 5 4 14
M TOR 39 6 5 4 15
M TOR 40 6 7 8 18
M TOR 41 7 6 3 13
M TOR 42 7 8 1 10
M TOR 43 8 1 0 9
M TOR 44 8 1 2 11
M TOR 45 8 1 2 12
M TOR 46 8 7 6 16
M  END
$$$$
