
     RDKit          3D

 19 21  0  0  0  0  0  0  0  0999 V2000
    0.6791    0.2558    0.9221 O   0  0  0  0  0  0  0  0  0  0  0  0
   -0.7223    0.4274    0.9574 C   0  0  0  0  0  0  0  0  0  0  0  0
   -1.3383    0.3913    2.3893 C   0  0  0  0  0  0  0  0  0  0  0  0
   -1.8467    1.8041    2.7078 C   0  0  0  0  0  0  0  0  0  0  0  0
   -0.7710    2.8918    3.0477 C   0  0  0  0  0  0  0  0  0  0  0  0
   -0.9064    3.4701    1.6250 C   0  0  0  0  0  0  0  0  0  0  0  0
   -0.0683    2.7835    0.6605 O   0  0  0  0  0  0  0  0  0  0  0  0
   -1.1163    1.8086    0.3721 C   0  0  0  0  0  0  0  0  0  0  0  0
   -2.0911    2.5140    1.3353 C   0  0  0  0  0  0  0  0  0  0  0  0
    1.0483    1.1486    0.9921 H   0  0  0  0  0  0  0  0  0  0  0  0
   -1.1506   -0.3759    0.3479 H   0  0  0  0  0  0  0  0  0  0  0  0
   -2.1797   -0.3107    2.4073 H   0  0  0  0  0  0  0  0  0  0  0  0
   -0.5972    0.0279    3.1067 H   0  0  0  0  0  0  0  0  0  0  0  0
   -2.6880    1.8004    3.4025 H   0  0  0  0  0  0  0  0  0  0  0  0
   -1.1230    3.5937    3.8095 H   0  0  0  0  0  0  0  0  0  0  0  0
    0.2288    2.5441    3.3222 H   0  0  0  0  0  0  0  0  0  0  0  0
   -0.8864    4.5508    1.4736 H   0  0  0  0  0  0  0  0  0  0  0  0
   -1.3370    1.7927   -0.6985 H   0  0  0  0  0  0  0  0  0  0  0  0
   -3.0858    2.8089    1.0097 H   0  0  0  0  0  0  0  0  0  0  0  0
  1  2  1  0
  2  3  1  0
  3  4  1  0
  4  5  1  0
  5  6  1  0
  6  7  1  0
  7  8  1  0
  8  9  1  0
  8  2  1  0
  9  4  1  0
  9  6  1  0
  1 10  1  0
  2 11  1  0
  3 12  1  0
  3 13  1  0
  4 14  1  0
  5 15  1  0
  5 16  1  0
  6 17  1  0
  8 18  1  0
  9 19  1  0
M  END
$$$$
