
     RDKit          3D

 19 20  0  0  0  0  0  0  0  0999 V2000
   -3.1180   -1.5538    0.9291 C   0  0  0  0  0  0  0  0  0  0  0  0
   -2.2478   -0.4991    0.2899 C   0  0  0  0  0  0  0  0  0  0  0  0
   -2.6711    0.0281   -1.1004 C   0  0  0  0  0  0  0  0  0  0  0  0
   -1.7505    1.2727   -1.2827 C   0  0  0  0  0  0  0  0  0  0  0  0
   -0.9069    1.2673    0.0284 C   0  0  0  0  0  0  0  0  0  0  0  0
   -1.9467    0.7992    1.0616 C   0  0  0  0  0  0  0  0  0  0  0  0
   -0.0456    0.0116   -0.0554 C   0  0  0  0  0  0  0  0  0  0  0  0
    1.1263   -0.1181   -0.2558 O   0  0  0  0  0  0  0  0  0  0  0  0
   -0.8988   -1.0460    0.1097 O   0  0  0  0  0  0  0  0  0  0  0  0
   -2.6876   -1.8871    1.8773 H   0  0  0  0  0  0  0  0  0  0  0  0
   -4.1169   -1.1508    1.1221 H   0  0  0  0  0  0  0  0  0  0  0  0
   -3.2188   -2.4245    0.2746 H   0  0  0  0  0  0  0  0  0  0  0  0
   -2.5100   -0.7386   -1.8614 H   0  0  0  0  0  0  0  0  0  0  0  0
   -3.7314    0.2956   -1.1084 H   0  0  0  0  0  0  0  0  0  0  0  0
   -1.1234    1.2166   -2.1750 H   0  0  0  0  0  0  0  0  0  0  0  0
   -2.3309    2.1973   -1.3425 H   0  0  0  0  0  0  0  0  0  0  0  0
   -0.3320    2.1698    0.2219 H   0  0  0  0  0  0  0  0  0  0  0  0
   -1.5324    0.6089    2.0551 H   0  0  0  0  0  0  0  0  0  0  0  0
   -2.8147    1.4592    1.1431 H   0  0  0  0  0  0  0  0  0  0  0  0
  1  2  1  0
  2  3  1  0
  3  4  1  0
  4  5  1  0
  5  6  1  0
  5  7  1  0
  7  8  2  0
  7  9  1  0
  6  2  1  0
  9  2  1  0
  1 10  1  0
  1 11  1  0
  1 12  1  0
  3 13  1  0
  3 14  1  0
  4 15  1  0
  4 16  1  0
  5 17  1  0
  6 18  1  0
  6 19  1  0
M  END
$$$$
