
     RDKit          3D

 19 21  0  0  0  0  0  0  0  0999 V2000
    2.2986   -0.4060   -0.8845 C   0  0  0  0  0  0  0  0  0  0  0  0
    1.1134    0.5444   -0.8068 C   0  0  0  0  0  0  0  0  0  0  0  0
    0.8921    1.3521    0.4691 C   0  0  0  0  0  0  0  0  0  0  0  0
    1.9535    1.6432    1.5260 C   0  0  0  0  0  0  0  0  0  0  0  0
    3.1950    0.9874    1.3516 O   0  0  0  0  0  0  0  0  0  0  0  0
    3.1512   -0.4152    1.5144 C   0  0  0  0  0  0  0  0  0  0  0  0
    2.2563   -1.1202    0.4855 C   0  0  0  0  0  0  0  0  0  0  0  0
    0.8821   -1.0997    0.9027 O   0  0  0  0  0  0  0  0  0  0  0  0
    0.2503   -0.0003    0.2992 C   0  0  0  0  0  0  0  0  0  0  0  0
    2.1323   -1.1171   -1.7001 H   0  0  0  0  0  0  0  0  0  0  0  0
    3.2571    0.0907   -1.0459 H   0  0  0  0  0  0  0  0  0  0  0  0
    0.6919    0.9174   -1.7330 H   0  0  0  0  0  0  0  0  0  0  0  0
    0.2051    2.1855    0.3373 H   0  0  0  0  0  0  0  0  0  0  0  0
    2.1935    2.7106    1.5009 H   0  0  0  0  0  0  0  0  0  0  0  0
    1.5437    1.4174    2.5250 H   0  0  0  0  0  0  0  0  0  0  0  0
    4.1854   -0.7560    1.3940 H   0  0  0  0  0  0  0  0  0  0  0  0
    2.8077   -0.6883    2.5244 H   0  0  0  0  0  0  0  0  0  0  0  0
    2.5486   -2.1742    0.4315 H   0  0  0  0  0  0  0  0  0  0  0  0
   -0.8249   -0.1251    0.2461 H   0  0  0  0  0  0  0  0  0  0  0  0
  1  2  1  0
  2  3  1  0
  3  4  1  0
  4  5  1  0
  5  6  1  0
  6  7  1  0
  7  8  1  0
  8  9  1  0
  7  1  1  0
  9  2  1  0
  9  3  1  0
  1 10  1  0
  1 11  1  0
  2 12  1  0
  3 13  1  0
  4 14  1  0
  4 15  1  0
  6 16  1  0
  6 17  1  0
  7 18  1  0
  9 19  1  0
M  END
$$$$
