gdb 5344	4.0897921	0.9293558	0.8417727	1.6863	79.7	-0.24063	0.00186	0.24249	1392.6519	0.156683	-422.548177	-422.539294	-422.53835	-422.582897	32.544
 OpenBabel02181911423D

 19 20  0  0  1  0  0  0  0  0999 V2000
    1.8588    0.5684   -0.0205 O   0  0  0  0  0  0  0  0  0  0  0  0
    0.4573    0.8039    0.1026 C   0  0  0  0  0  0  0  0  0  0  0  0
   -0.2941    0.4302   -1.1388 C   0  0  0  0  0  0  0  0  0  0  0  0
   -1.3019   -0.4417   -1.2327 C   0  0  0  0  0  0  0  0  0  0  0  0
   -1.7884   -0.5737   -2.6285 C   0  0  1  0  0  0  0  0  0  0  0  0
   -2.3875   -1.8038   -3.1716 C   0  0  0  0  0  0  0  0  0  0  0  0
   -3.2055   -0.6779   -2.8540 O   0  0  0  0  0  0  0  0  0  0  0  0
   -0.9954    0.4445   -3.4583 C   0  0  0  0  0  0  0  0  0  0  0  0
    0.0726    1.0143   -2.4888 C   0  0  0  0  0  0  0  0  0  0  0  0
    1.9765   -0.3751   -0.1738 H   0  0  0  0  0  0  0  0  0  0  0  0
    0.0351    0.2839    0.9751 H   0  0  0  0  0  0  0  0  0  0  0  0
    0.3678    1.8814    0.2884 H   0  0  0  0  0  0  0  0  0  0  0  0
   -1.7401   -1.0002   -0.4129 H   0  0  0  0  0  0  0  0  0  0  0  0
   -2.2808   -2.0238   -4.2342 H   0  0  0  0  0  0  0  0  0  0  0  0
   -2.5206   -2.6773   -2.5327 H   0  0  0  0  0  0  0  0  0  0  0  0
   -0.5527   -0.0053   -4.3505 H   0  0  0  0  0  0  0  0  0  0  0  0
   -1.6838    1.2244   -3.7956 H   0  0  0  0  0  0  0  0  0  0  0  0
    1.0893    0.7175   -2.7692 H   0  0  0  0  0  0  0  0  0  0  0  0
    0.0787    2.1108   -2.4613 H   0  0  0  0  0  0  0  0  0  0  0  0
  1  2  1  0  0  0  0
  2 12  1  0  0  0  0
  2 11  1  0  0  0  0
  3  2  1  0  0  0  0
  4  3  2  0  0  0  0
  4 13  1  0  0  0  0
  5  7  1  1  0  0  0
  5  4  1  0  0  0  0
  6  7  1  0  0  0  0
  6  5  1  0  0  0  0
  6 15  1  0  0  0  0
  8  5  1  0  0  0  0
  8  9  1  0  0  0  0
  9 19  1  0  0  0  0
  9  3  1  0  0  0  0
 10  1  1  0  0  0  0
 14  6  1  0  0  0  0
 16  8  1  0  0  0  0
 17  8  1  0  0  0  0
 18  9  1  0  0  0  0
M TOR 0 0 1 2 3
M TOR 1 0 1 2 8
M TOR 2 1 2 3 4
M TOR 3 1 2 3 12
M TOR 4 1 2 8 7
M TOR 5 1 2 8 17
M TOR 6 1 2 8 18
M TOR 7 2 1 0 9
M TOR 8 2 3 4 5
M TOR 9 2 3 4 6
M TOR 10 2 3 4 7
M TOR 11 2 8 7 4
M TOR 12 2 8 7 15
M TOR 13 2 8 7 16
M TOR 14 3 2 1 10
M TOR 15 3 2 1 11
M TOR 16 3 2 8 7
M TOR 17 3 2 8 17
M TOR 18 3 2 8 18
M TOR 19 3 4 5 6
M TOR 20 3 4 5 13
M TOR 21 3 4 5 14
M TOR 22 3 4 7 8
M TOR 23 3 4 7 15
M TOR 24 3 4 7 16
M TOR 25 4 3 2 8
M TOR 26 4 6 5 13
M TOR 27 4 6 5 14
M TOR 28 4 7 8 17
M TOR 29 4 7 8 18
M TOR 30 5 4 3 12
M TOR 31 5 4 7 8
M TOR 32 5 4 7 15
M TOR 33 5 4 7 16
M TOR 34 5 6 4 7
M TOR 35 6 4 3 12
M TOR 36 6 4 7 8
M TOR 37 6 4 7 15
M TOR 38 6 4 7 16
M TOR 39 7 4 3 12
M TOR 40 7 4 5 13
M TOR 41 7 4 5 14
M TOR 42 8 2 1 10
M TOR 43 8 2 1 11
M TOR 44 8 2 3 12
M  END
$$$$
