gdb 5109	3.8954714	1.2234762	1.1133639	1.8416	73.69	-0.25088	0.07258	0.32345999999999997	1137.7796	0.157935	-422.536687	-422.528755	-422.527811	-422.569215	31.028
 OpenBabel02181911423D

 19 21  0  0  1  0  0  0  0  0999 V2000
    0.7879    1.1257    0.3083 O   0  0  0  0  0  0  0  0  0  0  0  0
    0.4554   -0.2119    0.6479 C   0  0  0  0  0  0  0  0  0  0  0  0
   -0.7258   -0.2673    1.5796 C   0  0  2  0  0  0  0  0  0  0  0  0
   -0.6368    0.2843    3.0020 C   0  0  0  0  0  0  0  0  0  0  0  0
   -1.7396   -0.4191    3.8011 C   0  0  1  0  0  0  0  0  0  0  0  0
   -3.1838   -0.2260    3.4226 C   0  0  0  0  0  0  0  0  0  0  0  0
   -2.4317   -1.4245    2.8930 C   0  0  1  0  0  0  0  0  0  0  0  0
   -1.8061   -1.2700    1.5262 C   0  0  1  0  0  0  0  0  0  0  0  0
   -1.9859    0.0262    0.9299 O   0  0  0  0  0  0  0  0  0  0  0  0
    0.0016    1.5094   -0.0966 H   0  0  0  0  0  0  0  0  0  0  0  0
    0.2357   -0.8127   -0.2472 H   0  0  0  0  0  0  0  0  0  0  0  0
    1.3437   -0.6334    1.1303 H   0  0  0  0  0  0  0  0  0  0  0  0
    0.3450    0.0329    3.4187 H   0  0  0  0  0  0  0  0  0  0  0  0
   -0.7207    1.3754    3.0130 H   0  0  0  0  0  0  0  0  0  0  0  0
   -1.5238   -0.6717    4.8333 H   0  0  0  0  0  0  0  0  0  0  0  0
   -3.9224   -0.4093    4.1955 H   0  0  0  0  0  0  0  0  0  0  0  0
   -3.4404    0.5501    2.7123 H   0  0  0  0  0  0  0  0  0  0  0  0
   -2.6940   -2.4228    3.2216 H   0  0  0  0  0  0  0  0  0  0  0  0
   -1.8122   -2.1025    0.8271 H   0  0  0  0  0  0  0  0  0  0  0  0
  1  2  1  0  0  0  0
  2 12  1  0  0  0  0
  3  2  1  6  0  0  0
  3  4  1  0  0  0  0
  4 14  1  0  0  0  0
  4 13  1  0  0  0  0
  4  5  1  0  0  0  0
  5 15  1  1  0  0  0
  6  5  1  0  0  0  0
  6 16  1  0  0  0  0
  7 18  1  1  0  0  0
  7  6  1  0  0  0  0
  7  5  1  0  0  0  0
  8 19  1  6  0  0  0
  8  3  1  0  0  0  0
  8  7  1  0  0  0  0
  9  8  1  0  0  0  0
  9  3  1  0  0  0  0
 10  1  1  0  0  0  0
 11  2  1  0  0  0  0
 17  6  1  0  0  0  0
M TOR 0 0 1 2 3
M TOR 1 0 1 2 7
M TOR 2 0 1 2 8
M TOR 3 1 2 3 4
M TOR 4 1 2 3 12
M TOR 5 1 2 3 13
M TOR 6 1 2 7 6
M TOR 7 1 2 7 8
M TOR 8 1 2 7 18
M TOR 9 2 1 0 9
M TOR 10 2 3 4 5
M TOR 11 2 3 4 6
M TOR 12 2 3 4 14
M TOR 13 2 7 6 4
M TOR 14 2 7 6 5
M TOR 15 2 7 6 17
M TOR 16 2 8 7 6
M TOR 17 2 8 7 18
M TOR 18 3 2 1 10
M TOR 19 3 2 1 11
M TOR 20 3 2 7 6
M TOR 21 3 2 7 8
M TOR 22 3 2 7 18
M TOR 23 3 4 5 6
M TOR 24 3 4 5 15
M TOR 25 3 4 5 16
M TOR 26 3 4 6 7
M TOR 27 3 4 6 17
M TOR 28 4 3 2 7
M TOR 29 4 3 2 8
M TOR 30 4 5 6 7
M TOR 31 4 5 6 17
M TOR 32 4 6 5 15
M TOR 33 4 6 5 16
M TOR 34 4 6 7 8
M TOR 35 4 6 7 18
M TOR 36 5 4 3 12
M TOR 37 5 4 3 13
M TOR 38 5 6 4 14
M TOR 39 5 6 7 8
M TOR 40 5 6 7 18
M TOR 41 6 4 3 12
M TOR 42 6 4 3 13
M TOR 43 7 2 1 10
M TOR 44 7 2 1 11
M TOR 45 7 2 3 12
M TOR 46 7 2 3 13
M TOR 47 7 6 4 14
M TOR 48 7 6 5 15
M TOR 49 7 6 5 16
M TOR 50 8 2 1 10
M TOR 51 8 2 1 11
M TOR 52 8 2 3 12
M TOR 53 8 2 3 13
M TOR 54 8 7 6 17
M  END
$$$$
