gdb 507	3.1404621	1.731556	1.4681837	0.6037	73.61	-0.2433	0.07227	0.31557	946.377	0.159557	-422.501796	-422.494952	-422.494008	-422.532572	28.366
 OpenBabel02181911403D

 19 21  0  0  1  0  0  0  0  0999 V2000
   -0.0673    1.2155   -0.6670 C   0  0  0  0  0  0  0  0  0  0  0  0
   -0.2033    0.0182    0.1646 O   0  0  0  0  0  0  0  0  0  0  0  0
    1.1646    0.1659    0.5494 C   0  0  2  0  0  0  0  0  0  0  0  0
    2.2034   -0.2620   -0.5446 C   0  0  0  0  0  0  0  0  0  0  0  0
    2.6792    1.2005   -0.4458 C   0  0  2  0  0  0  0  0  0  0  0  0
    3.5329    1.2783    0.7090 O   0  0  0  0  0  0  0  0  0  0  0  0
    2.9450    0.9320    1.9753 C   0  0  0  0  0  0  0  0  0  0  0  0
    1.7345   -0.0648    1.9226 C   0  0  0  0  0  0  0  0  0  0  0  0
    1.2679    1.6181    0.0161 C   0  0  1  0  0  0  0  0  0  0  0  0
   -0.0264    0.9707   -1.7343 H   0  0  0  0  0  0  0  0  0  0  0  0
   -0.8948    1.9068   -0.4871 H   0  0  0  0  0  0  0  0  0  0  0  0
    2.9446   -1.0182   -0.2814 H   0  0  0  0  0  0  0  0  0  0  0  0
    1.7183   -0.5175   -1.4877 H   0  0  0  0  0  0  0  0  0  0  0  0
    3.2209    1.6879   -1.2590 H   0  0  0  0  0  0  0  0  0  0  0  0
    3.7624    0.5275    2.5781 H   0  0  0  0  0  0  0  0  0  0  0  0
    2.6004    1.8517    2.4648 H   0  0  0  0  0  0  0  0  0  0  0  0
    2.0494   -1.1033    2.0678 H   0  0  0  0  0  0  0  0  0  0  0  0
    1.0251    0.1942    2.7149 H   0  0  0  0  0  0  0  0  0  0  0  0
    1.1917    2.4909    0.6648 H   0  0  0  0  0  0  0  0  0  0  0  0
  1 11  1  0  0  0  0
  1  9  1  0  0  0  0
  1  2  1  0  0  0  0
  3  2  1  6  0  0  0
  3  8  1  0  0  0  0
  4  5  1  0  0  0  0
  4 12  1  0  0  0  0
  4  3  1  0  0  0  0
  5 14  1  6  0  0  0
  5  9  1  0  0  0  0
  5  6  1  0  0  0  0
  6  7  1  0  0  0  0
  7 16  1  0  0  0  0
  7 15  1  0  0  0  0
  8  7  1  0  0  0  0
  8 17  1  0  0  0  0
  8 18  1  0  0  0  0
  9  3  1  0  0  0  0
  9 19  1  1  0  0  0
 10  1  1  0  0  0  0
 13  4  1  0  0  0  0
M TOR 0 0 1 2 3
M TOR 1 0 1 2 7
M TOR 2 0 1 2 8
M TOR 3 0 8 2 3
M TOR 4 0 8 2 7
M TOR 5 0 8 4 3
M TOR 6 0 8 4 5
M TOR 7 0 8 4 13
M TOR 8 1 0 8 4
M TOR 9 1 0 8 18
M TOR 10 1 2 3 4
M TOR 11 1 2 3 11
M TOR 12 1 2 3 12
M TOR 13 1 2 7 6
M TOR 14 1 2 7 16
M TOR 15 1 2 7 17
M TOR 16 1 2 8 4
M TOR 17 1 2 8 18
M TOR 18 2 1 0 9
M TOR 19 2 1 0 10
M TOR 20 2 3 4 5
M TOR 21 2 3 4 8
M TOR 22 2 3 4 13
M TOR 23 2 7 6 5
M TOR 24 2 7 6 14
M TOR 25 2 7 6 15
M TOR 26 2 8 0 9
M TOR 27 2 8 0 10
M TOR 28 2 8 4 5
M TOR 29 2 8 4 13
M TOR 30 3 2 7 6
M TOR 31 3 2 7 16
M TOR 32 3 2 7 17
M TOR 33 3 2 8 18
M TOR 34 3 4 5 6
M TOR 35 3 4 8 18
M TOR 36 4 3 2 7
M TOR 37 4 5 6 7
M TOR 38 4 5 6 14
M TOR 39 4 5 6 15
M TOR 40 4 8 0 9
M TOR 41 4 8 0 10
M TOR 42 4 8 2 7
M TOR 43 5 4 3 11
M TOR 44 5 4 3 12
M TOR 45 5 4 8 18
M TOR 46 5 6 7 16
M TOR 47 5 6 7 17
M TOR 48 6 5 4 8
M TOR 49 6 5 4 13
M TOR 50 6 7 2 8
M TOR 51 7 2 3 11
M TOR 52 7 2 3 12
M TOR 53 7 2 8 18
M TOR 54 8 2 3 11
M TOR 55 8 2 3 12
M TOR 56 8 2 7 16
M TOR 57 8 2 7 17
M TOR 58 8 4 3 11
M TOR 59 8 4 3 12
M  END
$$$$
