gdb 457	4.1268667	1.1255381	1.0565883	2.5828	74.72	-0.24933	0.08373	0.33306	1184.6373	0.158497	-422.514447	-422.506992	-422.506048	-422.546785	28.956
 OpenBabel02181911403D

 19 21  0  0  1  0  0  0  0  0999 V2000
   -0.6170   -2.6016   -1.9148 C   0  0  0  0  0  0  0  0  0  0  0  0
   -1.8319   -2.0128   -1.4480 O   0  0  0  0  0  0  0  0  0  0  0  0
   -0.6597   -1.1912   -1.5120 C   0  0  1  0  0  0  0  0  0  0  0  0
   -0.1070   -0.7102   -0.1971 C   0  0  1  0  0  0  0  0  0  0  0  0
    1.3324   -0.0977   -0.3001 C   0  0  0  0  0  0  0  0  0  0  0  0
    0.9783    1.3262    0.1771 C   0  0  2  0  0  0  0  0  0  0  0  0
    0.1081    1.0911    1.4310 C   0  0  0  0  0  0  0  0  0  0  0  0
   -0.8156    0.5735    0.3099 C   0  0  1  0  0  0  0  0  0  0  0  0
   -0.2505    1.5974   -0.5714 O   0  0  0  0  0  0  0  0  0  0  0  0
   -0.1684   -3.3370   -1.2471 H   0  0  0  0  0  0  0  0  0  0  0  0
   -0.5993   -2.8660   -2.9713 H   0  0  0  0  0  0  0  0  0  0  0  0
   -0.6894   -0.4323   -2.2945 H   0  0  0  0  0  0  0  0  0  0  0  0
   -0.1719   -1.5204    0.5353 H   0  0  0  0  0  0  0  0  0  0  0  0
    2.0631   -0.6001    0.3386 H   0  0  0  0  0  0  0  0  0  0  0  0
    1.7108   -0.0920   -1.3254 H   0  0  0  0  0  0  0  0  0  0  0  0
    1.7291    2.1122    0.1012 H   0  0  0  0  0  0  0  0  0  0  0  0
    0.4547    0.3997    2.2038 H   0  0  0  0  0  0  0  0  0  0  0  0
   -0.2544    2.0261    1.8587 H   0  0  0  0  0  0  0  0  0  0  0  0
   -1.9037    0.5779    0.3637 H   0  0  0  0  0  0  0  0  0  0  0  0
  1  3  1  0  0  0  0
  1  2  1  0  0  0  0
  1 10  1  0  0  0  0
  3 12  1  6  0  0  0
  3  2  1  0  0  0  0
  3  4  1  0  0  0  0
  4  8  1  0  0  0  0
  4 13  1  1  0  0  0
  5  4  1  0  0  0  0
  5  6  1  0  0  0  0
  5 14  1  0  0  0  0
  6 16  1  1  0  0  0
  6  7  1  0  0  0  0
  7 18  1  0  0  0  0
  7 17  1  0  0  0  0
  8 19  1  1  0  0  0
  8  7  1  0  0  0  0
  9  6  1  0  0  0  0
  9  8  1  0  0  0  0
 11  1  1  0  0  0  0
 15  5  1  0  0  0  0
M TOR 0 0 1 2 3
M TOR 1 0 1 2 11
M TOR 2 0 2 3 4
M TOR 3 0 2 3 7
M TOR 4 0 2 3 12
M TOR 5 1 2 0 9
M TOR 6 1 2 0 10
M TOR 7 1 2 3 4
M TOR 8 1 2 3 7
M TOR 9 1 2 3 12
M TOR 10 2 3 4 5
M TOR 11 2 3 4 13
M TOR 12 2 3 4 14
M TOR 13 2 3 7 6
M TOR 14 2 3 7 8
M TOR 15 2 3 7 18
M TOR 16 3 2 0 9
M TOR 17 3 2 0 10
M TOR 18 3 4 5 6
M TOR 19 3 4 5 8
M TOR 20 3 4 5 15
M TOR 21 3 7 6 5
M TOR 22 3 7 6 16
M TOR 23 3 7 6 17
M TOR 24 3 7 8 5
M TOR 25 4 3 2 11
M TOR 26 4 3 7 6
M TOR 27 4 3 7 8
M TOR 28 4 3 7 18
M TOR 29 4 5 6 7
M TOR 30 4 5 6 16
M TOR 31 4 5 6 17
M TOR 32 4 5 8 7
M TOR 33 5 4 3 7
M TOR 34 5 4 3 12
M TOR 35 5 6 7 8
M TOR 36 5 6 7 18
M TOR 37 5 8 7 18
M TOR 38 6 5 4 13
M TOR 39 6 5 4 14
M TOR 40 6 7 3 12
M TOR 41 7 3 2 11
M TOR 42 7 3 4 13
M TOR 43 7 3 4 14
M TOR 44 7 6 5 15
M TOR 45 7 8 5 15
M TOR 46 8 5 4 13
M TOR 47 8 5 4 14
M TOR 48 8 5 6 16
M TOR 49 8 5 6 17
M TOR 50 8 7 3 12
M TOR 51 8 7 6 16
M TOR 52 8 7 6 17
M  END
$$$$
