
     RDKit          3D

 19 21  0  0  0  0  0  0  0  0999 V2000
    0.3733    0.4335    0.1764 C   0  0  0  0  0  0  0  0  0  0  0  0
    1.0878   -0.8095   -0.3168 C   0  0  0  0  0  0  0  0  0  0  0  0
    2.4570   -0.5225   -0.7071 O   0  0  0  0  0  0  0  0  0  0  0  0
    3.0099   -1.4054    0.2796 C   0  0  0  0  0  0  0  0  0  0  0  0
    3.2062   -2.8208   -0.2394 C   0  0  0  0  0  0  0  0  0  0  0  0
    3.0360   -3.7972    0.8865 C   0  0  0  0  0  0  0  0  0  0  0  0
    1.8005   -3.2218    0.2360 C   0  0  0  0  0  0  0  0  0  0  0  0
    1.5547   -1.8182    0.7596 C   0  0  0  0  0  0  0  0  0  0  0  0
    0.9645   -1.6316    2.0066 O   0  0  0  0  0  0  0  0  0  0  0  0
    0.8906    0.8694    1.0341 H   0  0  0  0  0  0  0  0  0  0  0  0
    0.3373    1.1750   -0.6275 H   0  0  0  0  0  0  0  0  0  0  0  0
   -0.6513    0.1936    0.4764 H   0  0  0  0  0  0  0  0  0  0  0  0
    0.5334   -1.2673   -1.1472 H   0  0  0  0  0  0  0  0  0  0  0  0
    3.7944   -0.9333    0.8775 H   0  0  0  0  0  0  0  0  0  0  0  0
    3.6851   -3.0787   -1.1753 H   0  0  0  0  0  0  0  0  0  0  0  0
    3.2438   -4.8343    0.6456 H   0  0  0  0  0  0  0  0  0  0  0  0
    3.3171   -3.5211    1.9016 H   0  0  0  0  0  0  0  0  0  0  0  0
    1.0682   -3.8496   -0.2598 H   0  0  0  0  0  0  0  0  0  0  0  0
    1.2085   -2.3745    2.5684 H   0  0  0  0  0  0  0  0  0  0  0  0
  1  2  1  0
  2  3  1  0
  3  4  1  0
  4  5  1  0
  5  6  1  0
  6  7  1  0
  7  8  1  0
  8  9  1  0
  8  2  1  0
  8  4  1  0
  7  5  1  0
  1 10  1  0
  1 11  1  0
  1 12  1  0
  2 13  1  0
  4 14  1  0
  5 15  1  0
  6 16  1  0
  6 17  1  0
  7 18  1  0
  9 19  1  0
M  END
$$$$
