
     RDKit          3D

 19 21  0  0  0  0  0  0  0  0999 V2000
    0.2586   -0.6390   -0.5668 C   0  0  0  0  0  0  0  0  0  0  0  0
    1.5520   -0.2121    0.0875 C   0  0  0  0  0  0  0  0  0  0  0  0
    2.1626   -1.1156    1.1825 C   0  0  0  0  0  0  0  0  0  0  0  0
    3.4526   -1.1468    0.5266 O   0  0  0  0  0  0  0  0  0  0  0  0
    2.9761   -0.3225   -0.5547 C   0  0  0  0  0  0  0  0  0  0  0  0
    3.1916    1.1686   -0.2849 C   0  0  0  0  0  0  0  0  0  0  0  0
    4.4437    1.8775   -0.0362 C   0  0  0  0  0  0  0  0  0  0  0  0
    3.7006    2.0731   -1.2503 O   0  0  0  0  0  0  0  0  0  0  0  0
    1.7936    1.3108    0.3360 C   0  0  0  0  0  0  0  0  0  0  0  0
   -0.5890   -0.5045    0.1163 H   0  0  0  0  0  0  0  0  0  0  0  0
    0.0539   -0.0478   -1.4655 H   0  0  0  0  0  0  0  0  0  0  0  0
    0.2885   -1.6946   -0.8571 H   0  0  0  0  0  0  0  0  0  0  0  0
    2.2166   -0.6919    2.1935 H   0  0  0  0  0  0  0  0  0  0  0  0
    1.7253   -2.1208    1.2393 H   0  0  0  0  0  0  0  0  0  0  0  0
    3.2186   -0.7164   -1.5458 H   0  0  0  0  0  0  0  0  0  0  0  0
    4.4542    2.7286    0.6434 H   0  0  0  0  0  0  0  0  0  0  0  0
    5.3913    1.3524   -0.1451 H   0  0  0  0  0  0  0  0  0  0  0  0
    1.7438    1.6496    1.3747 H   0  0  0  0  0  0  0  0  0  0  0  0
    1.1461    1.9462   -0.2753 H   0  0  0  0  0  0  0  0  0  0  0  0
  1  2  1  0
  2  3  1  0
  3  4  1  0
  4  5  1  0
  5  6  1  0
  6  7  1  0
  7  8  1  0
  6  9  1  0
  5  2  1  0
  8  6  1  0
  9  2  1  0
  1 10  1  0
  1 11  1  0
  1 12  1  0
  3 13  1  0
  3 14  1  0
  5 15  1  0
  7 16  1  0
  7 17  1  0
  9 18  1  0
  9 19  1  0
M  END
$$$$
