gdb 2866	2.0943374	1.7341738	1.5835364	0.3397	74.68	-0.22308	0.06378	0.28686	1002.0894	0.15605	-422.513692	-422.505193	-422.504249	-422.545957	33.566
 OpenBabel02181911413D

 19 21  0  0  1  0  0  0  0  0999 V2000
    0.8449   -2.9387    0.0275 C   0  0  0  0  0  0  0  0  0  0  0  0
    0.8974   -1.4182    0.1204 C   0  0  2  0  0  0  0  0  0  0  0  0
    1.7982   -0.7662   -0.9326 C   0  0  1  0  0  0  0  0  0  0  0  0
    2.3628    0.5477   -0.3148 C   0  0  1  0  0  0  0  0  0  0  0  0
    1.7980    0.6421    1.1032 C   0  0  0  0  0  0  0  0  0  0  0  0
    1.9344   -0.8924    1.1617 C   0  0  1  0  0  0  0  0  0  0  0  0
    2.0932   -1.4676    2.4087 O   0  0  0  0  0  0  0  0  0  0  0  0
    3.0061   -0.7902   -0.0533 C   0  0  1  0  0  0  0  0  0  0  0  0
    4.2466   -1.3229   -0.2929 O   0  0  0  0  0  0  0  0  0  0  0  0
    0.3830   -3.3741    0.9219 H   0  0  0  0  0  0  0  0  0  0  0  0
    0.2530   -3.2642   -0.8338 H   0  0  0  0  0  0  0  0  0  0  0  0
    1.8500   -3.3625   -0.0867 H   0  0  0  0  0  0  0  0  0  0  0  0
   -0.1135   -1.0048    0.2322 H   0  0  0  0  0  0  0  0  0  0  0  0
    1.7665   -0.8962   -2.0068 H   0  0  0  0  0  0  0  0  0  0  0  0
    2.7060    1.3477   -0.9575 H   0  0  0  0  0  0  0  0  0  0  0  0
    2.4983    1.1309    1.7863 H   0  0  0  0  0  0  0  0  0  0  0  0
    0.7914    1.0505    1.2458 H   0  0  0  0  0  0  0  0  0  0  0  0
    2.1351   -2.4244    2.3005 H   0  0  0  0  0  0  0  0  0  0  0  0
    4.8927   -0.8413    0.2364 H   0  0  0  0  0  0  0  0  0  0  0  0
  1  2  1  0  0  0  0
  1 10  1  0  0  0  0
  2 13  1  1  0  0  0
  2  6  1  0  0  0  0
  3 14  1  6  0  0  0
  3  4  1  0  0  0  0
  3  8  1  0  0  0  0
  3  2  1  0  0  0  0
  4 15  1  6  0  0  0
  4  8  1  0  0  0  0
  4  5  1  0  0  0  0
  5  6  1  0  0  0  0
  5 17  1  0  0  0  0
  5 16  1  0  0  0  0
  6  7  1  1  0  0  0
  8  9  1  6  0  0  0
  8  6  1  0  0  0  0
  9 19  1  0  0  0  0
 11  1  1  0  0  0  0
 12  1  1  0  0  0  0
 18  7  1  0  0  0  0
M TOR 0 0 1 2 3
M TOR 1 0 1 2 7
M TOR 2 0 1 2 13
M TOR 3 0 1 5 4
M TOR 4 0 1 5 6
M TOR 5 0 1 5 7
M TOR 6 1 2 3 4
M TOR 7 1 2 3 7
M TOR 8 1 2 3 14
M TOR 9 1 2 7 5
M TOR 10 1 2 7 8
M TOR 11 1 5 4 3
M TOR 12 1 5 4 15
M TOR 13 1 5 4 16
M TOR 14 1 5 6 17
M TOR 15 1 5 7 3
M TOR 16 1 5 7 8
M TOR 17 2 1 0 9
M TOR 18 2 1 0 10
M TOR 19 2 1 0 11
M TOR 20 2 1 5 4
M TOR 21 2 1 5 6
M TOR 22 2 3 4 5
M TOR 23 2 3 4 15
M TOR 24 2 3 4 16
M TOR 25 2 3 7 5
M TOR 26 2 3 7 8
M TOR 27 2 7 3 4
M TOR 28 2 7 3 14
M TOR 29 2 7 5 4
M TOR 30 2 7 5 6
M TOR 31 2 7 8 18
M TOR 32 3 2 1 5
M TOR 33 3 2 1 12
M TOR 34 3 4 5 6
M TOR 35 3 4 5 7
M TOR 36 3 7 2 13
M TOR 37 3 7 5 6
M TOR 38 3 7 8 18
M TOR 39 4 3 2 13
M TOR 40 4 3 7 8
M TOR 41 4 5 1 12
M TOR 42 4 5 6 17
M TOR 43 4 5 7 8
M TOR 44 5 1 0 9
M TOR 45 5 1 0 10
M TOR 46 5 1 0 11
M TOR 47 5 1 2 13
M TOR 48 5 4 3 14
M TOR 49 5 7 2 13
M TOR 50 5 7 3 14
M TOR 51 5 7 8 18
M TOR 52 6 5 1 12
M TOR 53 6 5 4 15
M TOR 54 6 5 4 16
M TOR 55 6 5 7 8
M TOR 56 7 2 1 12
M TOR 57 7 3 4 15
M TOR 58 7 3 4 16
M TOR 59 7 5 1 12
M TOR 60 7 5 4 15
M TOR 61 7 5 4 16
M TOR 62 7 5 6 17
M TOR 63 8 7 2 13
M TOR 64 8 7 3 14
M  END
$$$$
