
     RDKit          3D

 19 20  0  0  0  0  0  0  0  0999 V2000
   -1.2716   -1.1315   -0.2240 C   0  0  0  0  0  0  0  0  0  0  0  0
   -0.2554   -1.1947   -1.3370 C   0  0  0  0  0  0  0  0  0  0  0  0
   -0.2445   -0.2335   -2.5805 C   0  0  0  0  0  0  0  0  0  0  0  0
    0.6971   -1.3314   -3.1226 C   0  0  0  0  0  0  0  0  0  0  0  0
   -0.1927   -2.3569   -2.3881 C   0  0  0  0  0  0  0  0  0  0  0  0
    1.8554   -1.2339   -2.2661 O   0  0  0  0  0  0  0  0  0  0  0  0
    1.2536   -1.1464   -0.9644 C   0  0  0  0  0  0  0  0  0  0  0  0
    1.6865    0.1224   -0.2530 C   0  0  0  0  0  0  0  0  0  0  0  0
    1.4242    0.3585    0.8990 O   0  0  0  0  0  0  0  0  0  0  0  0
   -1.1622   -1.9856    0.4537 H   0  0  0  0  0  0  0  0  0  0  0  0
   -1.1532   -0.2231    0.3734 H   0  0  0  0  0  0  0  0  0  0  0  0
   -2.2890   -1.1499   -0.6272 H   0  0  0  0  0  0  0  0  0  0  0  0
   -1.2133   -0.2088   -3.0828 H   0  0  0  0  0  0  0  0  0  0  0  0
    0.1588    0.7762   -2.4728 H   0  0  0  0  0  0  0  0  0  0  0  0
    1.0170   -1.4166   -4.1590 H   0  0  0  0  0  0  0  0  0  0  0  0
   -1.1578   -2.5247   -2.8704 H   0  0  0  0  0  0  0  0  0  0  0  0
    0.2690   -3.3025   -2.0930 H   0  0  0  0  0  0  0  0  0  0  0  0
    1.5391   -2.0043   -0.3408 H   0  0  0  0  0  0  0  0  0  0  0  0
    2.2673    0.8276   -0.8877 H   0  0  0  0  0  0  0  0  0  0  0  0
  1  2  1  0
  2  3  1  0
  3  4  1  0
  4  5  1  0
  4  6  1  0
  6  7  1  0
  7  8  1  0
  8  9  2  0
  5  2  1  0
  7  2  1  0
  1 10  1  0
  1 11  1  0
  1 12  1  0
  3 13  1  0
  3 14  1  0
  4 15  1  0
  5 16  1  0
  5 17  1  0
  7 18  1  0
  8 19  1  0
M  END
$$$$
