gdb 5883	8.1967457	0.4005165	0.3959492	2.7456	84.49	-0.24682	-0.02767	0.21915	2691.4819	0.152957	-422.514095	-422.503009	-422.502065	-422.553532	35.906
 OpenBabel02181911423D

 19 18  0  0  0  0  0  0  0  0999 V2000
   -2.1641    5.6898   -5.4419 C   0  0  0  0  0  0  0  0  0  0  0  0
   -1.6742    4.9744   -4.3315 O   0  0  0  0  0  0  0  0  0  0  0  0
   -2.5979    4.0039   -3.8773 C   0  0  0  0  0  0  0  0  0  0  0  0
   -2.0541    3.2917   -2.7288 C   0  0  0  0  0  0  0  0  0  0  0  0
   -1.6271    2.6989   -1.7726 C   0  0  0  0  0  0  0  0  0  0  0  0
   -1.0875    1.9648   -0.6361 C   0  0  0  0  0  0  0  0  0  0  0  0
   -0.2514    0.7338   -1.0592 C   0  0  0  0  0  0  0  0  0  0  0  0
    0.4008    0.0646    0.1298 C   0  0  0  0  0  0  0  0  0  0  0  0
    0.3282   -1.1082    0.3880 O   0  0  0  0  0  0  0  0  0  0  0  0
   -2.3665    5.0281   -6.2995 H   0  0  0  0  0  0  0  0  0  0  0  0
   -3.0922    6.2333   -5.2026 H   0  0  0  0  0  0  0  0  0  0  0  0
   -1.3951    6.4114   -5.7259 H   0  0  0  0  0  0  0  0  0  0  0  0
   -3.5539    4.4832   -3.6012 H   0  0  0  0  0  0  0  0  0  0  0  0
   -2.8307    3.2881   -4.6856 H   0  0  0  0  0  0  0  0  0  0  0  0
   -0.4656    2.6369   -0.0295 H   0  0  0  0  0  0  0  0  0  0  0  0
   -1.9081    1.6404    0.0165 H   0  0  0  0  0  0  0  0  0  0  0  0
   -0.8611    0.0021   -1.5940 H   0  0  0  0  0  0  0  0  0  0  0  0
    0.5479    1.0706   -1.7330 H   0  0  0  0  0  0  0  0  0  0  0  0
    0.9837    0.7590    0.7816 H   0  0  0  0  0  0  0  0  0  0  0  0
  1 11  1  0  0  0  0
  1  2  1  0  0  0  0
  2  3  1  0  0  0  0
  3 13  1  0  0  0  0
  3  4  1  0  0  0  0
  4  5  3  0  0  0  0
  5  6  1  0  0  0  0
  6 15  1  0  0  0  0
  6 16  1  0  0  0  0
  7  6  1  0  0  0  0
  7  8  1  0  0  0  0
  8  9  2  0  0  0  0
  8 19  1  0  0  0  0
 10  1  1  0  0  0  0
 12  1  1  0  0  0  0
 14  3  1  0  0  0  0
 17  7  1  0  0  0  0
 18  7  1  0  0  0  0
M TOR 0 0 1 2 3
M TOR 1 0 1 2 12
M TOR 2 0 1 2 13
M TOR 3 1 2 3 4
M TOR 4 2 1 0 9
M TOR 5 2 1 0 10
M TOR 6 2 1 0 11
M TOR 7 2 3 4 5
M TOR 8 3 4 5 6
M TOR 9 3 4 5 14
M TOR 10 3 4 5 15
M TOR 11 4 3 2 12
M TOR 12 4 3 2 13
M TOR 13 4 5 6 7
M TOR 14 4 5 6 16
M TOR 15 4 5 6 17
M TOR 16 5 6 7 8
M TOR 17 5 6 7 18
M TOR 18 7 6 5 14
M TOR 19 7 6 5 15
M TOR 20 8 7 6 16
M TOR 21 8 7 6 17
M  END
$$$$
