gdb 3049	2.778849	1.703052	1.3440026	2.3938	74.39	-0.24078	0.06072	0.3015	996.3961	0.158609	-422.493499	-422.486151	-422.485207	-422.524788	29.985
 OpenBabel02181911413D

 19 21  0  0  1  0  0  0  0  0999 V2000
    0.3583   -0.2357    0.4940 O   0  0  0  0  0  0  0  0  0  0  0  0
   -0.7665    0.5455    0.2078 C   0  0  1  0  0  0  0  0  0  0  0  0
   -2.1797   -0.1060    0.6134 C   0  0  1  0  0  0  0  0  0  0  0  0
   -1.9264    0.4681    2.0339 C   0  0  0  0  0  0  0  0  0  0  0  0
   -1.3150    1.6183    1.1938 C   0  0  1  0  0  0  0  0  0  0  0  0
   -1.0221    2.9009    1.7670 O   0  0  0  0  0  0  0  0  0  0  0  0
   -2.4073    3.2954    1.4757 C   0  0  0  0  0  0  0  0  0  0  0  0
   -2.4856    2.1753    0.4026 C   0  0  2  0  0  0  0  0  0  0  0  0
   -3.2895    0.8767    0.1235 C   0  0  0  0  0  0  0  0  0  0  0  0
    0.3547   -0.4782    1.4254 H   0  0  0  0  0  0  0  0  0  0  0  0
   -0.6442    0.8744   -0.8273 H   0  0  0  0  0  0  0  0  0  0  0  0
   -2.3128   -1.1743    0.4473 H   0  0  0  0  0  0  0  0  0  0  0  0
   -2.7967    0.6798    2.6592 H   0  0  0  0  0  0  0  0  0  0  0  0
   -1.1900   -0.0826    2.6247 H   0  0  0  0  0  0  0  0  0  0  0  0
   -3.0466    3.1613    2.3563 H   0  0  0  0  0  0  0  0  0  0  0  0
   -2.4631    4.3289    1.1255 H   0  0  0  0  0  0  0  0  0  0  0  0
   -2.1296    2.6098   -0.5360 H   0  0  0  0  0  0  0  0  0  0  0  0
   -4.2090    0.7523    0.7036 H   0  0  0  0  0  0  0  0  0  0  0  0
   -3.5427    0.7734   -0.9348 H   0  0  0  0  0  0  0  0  0  0  0  0
  1 10  1  0  0  0  0
  2 11  1  6  0  0  0
  2  1  1  0  0  0  0
  2  3  1  0  0  0  0
  2  5  1  0  0  0  0
  3 12  1  6  0  0  0
  3  4  1  0  0  0  0
  4 14  1  0  0  0  0
  4 13  1  0  0  0  0
  5  6  1  1  0  0  0
  5  4  1  0  0  0  0
  7  6  1  0  0  0  0
  7 15  1  0  0  0  0
  8 17  1  6  0  0  0
  8  5  1  0  0  0  0
  8  7  1  0  0  0  0
  9  8  1  0  0  0  0
  9  3  1  0  0  0  0
  9 18  1  0  0  0  0
 16  7  1  0  0  0  0
 19  9  1  0  0  0  0
M TOR 0 0 1 2 3
M TOR 1 0 1 2 8
M TOR 2 0 1 2 11
M TOR 3 0 1 4 3
M TOR 4 0 1 4 5
M TOR 5 0 1 4 7
M TOR 6 1 2 3 4
M TOR 7 1 2 3 12
M TOR 8 1 2 3 13
M TOR 9 1 2 8 7
M TOR 10 1 2 8 17
M TOR 11 1 2 8 18
M TOR 12 1 4 3 12
M TOR 13 1 4 3 13
M TOR 14 1 4 5 6
M TOR 15 1 4 7 6
M TOR 16 1 4 7 8
M TOR 17 1 4 7 16
M TOR 18 2 1 0 9
M TOR 19 2 1 4 5
M TOR 20 2 1 4 7
M TOR 21 2 3 4 5
M TOR 22 2 3 4 7
M TOR 23 2 8 7 4
M TOR 24 2 8 7 6
M TOR 25 2 8 7 16
M TOR 26 3 2 1 10
M TOR 27 3 2 8 7
M TOR 28 3 2 8 17
M TOR 29 3 2 8 18
M TOR 30 3 4 1 10
M TOR 31 3 4 5 6
M TOR 32 3 4 7 6
M TOR 33 3 4 7 8
M TOR 34 3 4 7 16
M TOR 35 4 1 0 9
M TOR 36 4 1 2 8
M TOR 37 4 1 2 11
M TOR 38 4 3 2 8
M TOR 39 4 3 2 11
M TOR 40 4 5 6 7
M TOR 41 4 5 6 14
M TOR 42 4 5 6 15
M TOR 43 4 7 6 14
M TOR 44 4 7 6 15
M TOR 45 4 7 8 17
M TOR 46 4 7 8 18
M TOR 47 5 4 1 10
M TOR 48 5 4 3 12
M TOR 49 5 4 3 13
M TOR 50 5 4 7 8
M TOR 51 5 4 7 16
M TOR 52 5 6 7 8
M TOR 53 5 6 7 16
M TOR 54 6 7 8 17
M TOR 55 6 7 8 18
M TOR 56 7 4 1 10
M TOR 57 7 4 3 12
M TOR 58 7 4 3 13
M TOR 59 7 8 2 11
M TOR 60 8 2 1 10
M TOR 61 8 2 3 12
M TOR 62 8 2 3 13
M TOR 63 8 7 6 14
M TOR 64 8 7 6 15
M  END
$$$$
