
     RDKit          3D

 19 21  0  0  0  0  0  0  0  0999 V2000
   -0.2063    1.2778   -0.7412 C   0  0  0  0  0  0  0  0  0  0  0  0
   -0.0556   -0.1461   -0.5263 O   0  0  0  0  0  0  0  0  0  0  0  0
    1.1504    0.0470    0.2451 C   0  0  0  0  0  0  0  0  0  0  0  0
    1.1348    1.5768   -0.0493 C   0  0  0  0  0  0  0  0  0  0  0  0
    2.3957    1.7309   -0.9190 C   0  0  0  0  0  0  0  0  0  0  0  0
    2.4691    0.4174   -1.7130 C   0  0  0  0  0  0  0  0  0  0  0  0
    2.4399   -0.4436   -0.4327 C   0  0  0  0  0  0  0  0  0  0  0  0
    3.5843    0.2244    0.3550 C   0  0  0  0  0  0  0  0  0  0  0  0
    3.5099    1.6177   -0.0162 O   0  0  0  0  0  0  0  0  0  0  0  0
   -0.2848    1.5288   -1.8067 H   0  0  0  0  0  0  0  0  0  0  0  0
   -1.0872    1.6714   -0.2188 H   0  0  0  0  0  0  0  0  0  0  0  0
    1.0351   -0.3036    1.2764 H   0  0  0  0  0  0  0  0  0  0  0  0
    1.1228    2.2798    0.7825 H   0  0  0  0  0  0  0  0  0  0  0  0
    2.4937    2.6674   -1.4691 H   0  0  0  0  0  0  0  0  0  0  0  0
    1.6206    0.2299   -2.3714 H   0  0  0  0  0  0  0  0  0  0  0  0
    3.4014    0.3330   -2.2756 H   0  0  0  0  0  0  0  0  0  0  0  0
    2.5312   -1.5238   -0.5477 H   0  0  0  0  0  0  0  0  0  0  0  0
    3.4690    0.1261    1.4421 H   0  0  0  0  0  0  0  0  0  0  0  0
    4.5675   -0.1734    0.0752 H   0  0  0  0  0  0  0  0  0  0  0  0
  1  2  1  0
  2  3  1  0
  3  4  1  0
  4  5  1  0
  5  6  1  0
  6  7  1  0
  7  8  1  0
  8  9  1  0
  4  1  1  0
  9  5  1  0
  7  3  1  0
  1 10  1  0
  1 11  1  0
  3 12  1  0
  4 13  1  0
  5 14  1  0
  6 15  1  0
  6 16  1  0
  7 17  1  0
  8 18  1  0
  8 19  1  0
M  END
$$$$
