
     RDKit          3D

 19 20  0  0  0  0  0  0  0  0999 V2000
   -1.1024   -1.8969   -1.2873 C   0  0  0  0  0  0  0  0  0  0  0  0
   -0.8048   -1.0743   -0.0410 C   0  0  0  0  0  0  0  0  0  0  0  0
    0.1913    0.1242   -0.1363 C   0  0  0  0  0  0  0  0  0  0  0  0
    1.3664    0.2065   -0.3432 O   0  0  0  0  0  0  0  0  0  0  0  0
   -0.8826    1.1090    0.3218 C   0  0  0  0  0  0  0  0  0  0  0  0
   -0.7576    2.4336    0.9945 C   0  0  0  0  0  0  0  0  0  0  0  0
   -1.9530    0.9070   -0.6433 O   0  0  0  0  0  0  0  0  0  0  0  0
   -1.8430   -0.0305    0.4326 C   0  0  0  0  0  0  0  0  0  0  0  0
   -3.0109   -0.2291    1.3422 C   0  0  0  0  0  0  0  0  0  0  0  0
   -1.8223   -2.6948   -1.0776 H   0  0  0  0  0  0  0  0  0  0  0  0
   -1.5098   -1.2584   -2.0751 H   0  0  0  0  0  0  0  0  0  0  0  0
   -0.1857   -2.3623   -1.6618 H   0  0  0  0  0  0  0  0  0  0  0  0
   -0.4690   -1.7126    0.7874 H   0  0  0  0  0  0  0  0  0  0  0  0
   -0.0532    2.3733    1.8296 H   0  0  0  0  0  0  0  0  0  0  0  0
   -0.3832    3.1859    0.2929 H   0  0  0  0  0  0  0  0  0  0  0  0
   -1.7272    2.7706    1.3713 H   0  0  0  0  0  0  0  0  0  0  0  0
   -3.7802   -0.8392    0.8562 H   0  0  0  0  0  0  0  0  0  0  0  0
   -2.7031   -0.7432    2.2582 H   0  0  0  0  0  0  0  0  0  0  0  0
   -3.4610    0.7307    1.6091 H   0  0  0  0  0  0  0  0  0  0  0  0
  1  2  1  0
  2  3  1  0
  3  4  2  0
  3  5  1  0
  5  6  1  0
  5  7  1  0
  7  8  1  0
  8  9  1  0
  8  2  1  0
  8  5  1  0
  1 10  1  0
  1 11  1  0
  1 12  1  0
  2 13  1  0
  6 14  1  0
  6 15  1  0
  6 16  1  0
  9 17  1  0
  9 18  1  0
  9 19  1  0
M  END
$$$$
