gdb 1860	2.374462	1.7285513	1.2389232	2.7058	76.4	-0.23705	-0.01901	0.21804	1062.7843	0.156246	-422.587514	-422.578776	-422.577831	-422.62039	33.498
 OpenBabel02181911403D

 19 20  0  0  1  0  0  0  0  0999 V2000
   -3.4230   -1.6588   -0.2086 C   0  0  0  0  0  0  0  0  0  0  0  0
   -2.3059   -0.8111    0.3425 C   0  0  1  0  0  0  0  0  0  0  0  0
   -1.6077   -1.2111    1.6157 C   0  0  0  0  0  0  0  0  0  0  0  0
   -0.8463   -1.2835    0.3068 C   0  0  1  0  0  0  0  0  0  0  0  0
   -0.4190   -2.5075   -0.1687 O   0  0  0  0  0  0  0  0  0  0  0  0
   -0.0294   -0.1047   -0.0767 C   0  0  0  0  0  0  0  0  0  0  0  0
    1.0469   -0.2070   -0.6246 O   0  0  0  0  0  0  0  0  0  0  0  0
   -0.8358    1.1648    0.1748 C   0  0  0  0  0  0  0  0  0  0  0  0
   -2.3086    0.6991    0.0696 C   0  0  0  0  0  0  0  0  0  0  0  0
   -4.3738   -1.4292    0.2863 H   0  0  0  0  0  0  0  0  0  0  0  0
   -3.5539   -1.4857   -1.2824 H   0  0  0  0  0  0  0  0  0  0  0  0
   -3.2124   -2.7223   -0.0659 H   0  0  0  0  0  0  0  0  0  0  0  0
   -1.3495   -0.4711    2.3680 H   0  0  0  0  0  0  0  0  0  0  0  0
   -1.8556   -2.1904    2.0121 H   0  0  0  0  0  0  0  0  0  0  0  0
    0.4035   -2.3145   -0.6454 H   0  0  0  0  0  0  0  0  0  0  0  0
   -0.5941    1.5541    1.1710 H   0  0  0  0  0  0  0  0  0  0  0  0
   -0.5636    1.9375   -0.5460 H   0  0  0  0  0  0  0  0  0  0  0  0
   -2.9705    1.2364    0.7576 H   0  0  0  0  0  0  0  0  0  0  0  0
   -2.6803    0.8799   -0.9452 H   0  0  0  0  0  0  0  0  0  0  0  0
  1 12  1  0  0  0  0
  1 10  1  0  0  0  0
  2  1  1  6  0  0  0
  2  3  1  0  0  0  0
  3 14  1  0  0  0  0
  3 13  1  0  0  0  0
  4  5  1  6  0  0  0
  4  2  1  0  0  0  0
  4  3  1  0  0  0  0
  6  8  1  0  0  0  0
  6  4  1  0  0  0  0
  7  6  2  0  0  0  0
  8 16  1  0  0  0  0
  9  8  1  0  0  0  0
  9  2  1  0  0  0  0
  9 18  1  0  0  0  0
 11  1  1  0  0  0  0
 15  5  1  0  0  0  0
 17  8  1  0  0  0  0
 19  9  1  0  0  0  0
M TOR 0 0 1 2 3
M TOR 1 0 1 2 12
M TOR 2 0 1 2 13
M TOR 3 0 1 3 4
M TOR 4 0 1 3 5
M TOR 5 0 1 8 7
M TOR 6 0 1 8 17
M TOR 7 0 1 8 18
M TOR 8 1 2 3 4
M TOR 9 1 2 3 5
M TOR 10 1 3 2 12
M TOR 11 1 3 2 13
M TOR 12 1 3 4 14
M TOR 13 1 3 5 6
M TOR 14 1 3 5 7
M TOR 15 1 8 7 5
M TOR 16 1 8 7 15
M TOR 17 1 8 7 16
M TOR 18 2 1 0 9
M TOR 19 2 1 0 10
M TOR 20 2 1 0 11
M TOR 21 2 1 8 7
M TOR 22 2 1 8 17
M TOR 23 2 1 8 18
M TOR 24 2 3 1 8
M TOR 25 2 3 4 14
M TOR 26 2 3 5 6
M TOR 27 2 3 5 7
M TOR 28 3 1 0 9
M TOR 29 3 1 0 10
M TOR 30 3 1 0 11
M TOR 31 3 1 8 7
M TOR 32 3 1 8 17
M TOR 33 3 1 8 18
M TOR 34 3 5 7 8
M TOR 35 3 5 7 15
M TOR 36 3 5 7 16
M TOR 37 4 3 1 8
M TOR 38 4 3 2 12
M TOR 39 4 3 2 13
M TOR 40 4 3 5 6
M TOR 41 4 3 5 7
M TOR 42 5 3 1 8
M TOR 43 5 3 2 12
M TOR 44 5 3 2 13
M TOR 45 5 3 4 14
M TOR 46 5 7 8 17
M TOR 47 5 7 8 18
M TOR 48 6 5 7 8
M TOR 49 6 5 7 15
M TOR 50 6 5 7 16
M TOR 51 8 1 0 9
M TOR 52 8 1 0 10
M TOR 53 8 1 0 11
M TOR 54 8 1 2 12
M TOR 55 8 1 2 13
M  END
$$$$
