gdb 5750	3.5711418	1.3222128	1.1675456	3.0071	73.26	-0.22597	0.06828	0.29425	1092.8529	0.158493	-422.522937	-422.515312	-422.514368	-422.555062	29.967
 OpenBabel02181911423D

 19 21  0  0  1  0  0  0  0  0999 V2000
    1.3765    0.7201   -0.1368 O   0  0  0  0  0  0  0  0  0  0  0  0
    0.3282   -0.1106    0.3442 C   0  0  0  0  0  0  0  0  0  0  0  0
   -0.7598    0.6747    1.0746 C   0  0  2  0  0  0  0  0  0  0  0  0
   -1.9296   -0.2060    1.6083 C   0  0  0  0  0  0  0  0  0  0  0  0
   -3.1825    0.6296    1.3458 C   0  0  2  0  0  0  0  0  0  0  0  0
   -3.4064    1.0746   -0.0867 C   0  0  2  0  0  0  0  0  0  0  0  0
   -2.2093    0.9232   -0.8508 O   0  0  0  0  0  0  0  0  0  0  0  0
   -1.4861    1.6822    0.1814 C   0  0  1  0  0  0  0  0  0  0  0  0
   -2.8103    2.0321    0.8939 C   0  0  2  0  0  0  0  0  0  0  0  0
    1.8372    1.0846    0.6256 H   0  0  0  0  0  0  0  0  0  0  0  0
   -0.1106   -0.5831   -0.5396 H   0  0  0  0  0  0  0  0  0  0  0  0
    0.7178   -0.9105    0.9930 H   0  0  0  0  0  0  0  0  0  0  0  0
   -0.3031    1.2264    1.9103 H   0  0  0  0  0  0  0  0  0  0  0  0
   -1.9707   -1.1642    1.0788 H   0  0  0  0  0  0  0  0  0  0  0  0
   -1.8164   -0.4272    2.6733 H   0  0  0  0  0  0  0  0  0  0  0  0
   -4.0683    0.4979    1.9575 H   0  0  0  0  0  0  0  0  0  0  0  0
   -4.3533    1.0493   -0.6133 H   0  0  0  0  0  0  0  0  0  0  0  0
   -0.8739    2.4680   -0.2603 H   0  0  0  0  0  0  0  0  0  0  0  0
   -3.1422    2.9757    1.3030 H   0  0  0  0  0  0  0  0  0  0  0  0
  1  2  1  0  0  0  0
  1 10  1  0  0  0  0
  2 12  1  0  0  0  0
  2  3  1  0  0  0  0
  3  4  1  0  0  0  0
  3 13  1  1  0  0  0
  4 15  1  0  0  0  0
  5  4  1  0  0  0  0
  5 16  1  1  0  0  0
  6 17  1  6  0  0  0
  6  9  1  0  0  0  0
  6  5  1  0  0  0  0
  7  6  1  0  0  0  0
  7  8  1  0  0  0  0
  8 18  1  6  0  0  0
  8  9  1  0  0  0  0
  8  3  1  0  0  0  0
  9 19  1  1  0  0  0
  9  5  1  0  0  0  0
 11  2  1  0  0  0  0
 14  4  1  0  0  0  0
M TOR 0 0 1 2 3
M TOR 1 0 1 2 7
M TOR 2 0 1 2 12
M TOR 3 1 2 3 4
M TOR 4 1 2 3 13
M TOR 5 1 2 3 14
M TOR 6 1 2 7 6
M TOR 7 1 2 7 8
M TOR 8 1 2 7 17
M TOR 9 2 1 0 9
M TOR 10 2 3 4 5
M TOR 11 2 3 4 8
M TOR 12 2 3 4 15
M TOR 13 2 7 6 5
M TOR 14 2 7 8 4
M TOR 15 2 7 8 5
M TOR 16 2 7 8 18
M TOR 17 3 2 1 10
M TOR 18 3 2 1 11
M TOR 19 3 2 7 6
M TOR 20 3 2 7 8
M TOR 21 3 2 7 17
M TOR 22 3 4 5 6
M TOR 23 3 4 5 8
M TOR 24 3 4 5 16
M TOR 25 3 4 8 7
M TOR 26 3 4 8 18
M TOR 27 4 3 2 7
M TOR 28 4 3 2 12
M TOR 29 4 5 6 7
M TOR 30 4 5 8 7
M TOR 31 4 5 8 18
M TOR 32 4 8 5 6
M TOR 33 4 8 5 16
M TOR 34 4 8 7 6
M TOR 35 4 8 7 17
M TOR 36 5 4 3 13
M TOR 37 5 4 3 14
M TOR 38 5 6 7 8
M TOR 39 5 6 7 17
M TOR 40 5 8 4 15
M TOR 41 5 8 7 17
M TOR 42 6 5 4 15
M TOR 43 6 5 8 18
M TOR 44 6 7 2 12
M TOR 45 6 7 8 18
M TOR 46 7 2 1 10
M TOR 47 7 2 1 11
M TOR 48 7 2 3 13
M TOR 49 7 2 3 14
M TOR 50 7 6 5 16
M TOR 51 7 8 4 15
M TOR 52 7 8 5 16
M TOR 53 8 4 3 13
M TOR 54 8 4 3 14
M TOR 55 8 7 2 12
M  END
$$$$
