
     RDKit          3D

 19 21  0  0  0  0  0  0  0  0999 V2000
    2.3848    1.5071   -0.2035 C   0  0  0  0  0  0  0  0  0  0  0  0
    1.7429    0.1173   -0.2996 C   0  0  0  0  0  0  0  0  0  0  0  0
    2.3930   -0.7127   -1.4012 C   0  0  0  0  0  0  0  0  0  0  0  0
    1.8731   -2.0376   -1.5035 O   0  0  0  0  0  0  0  0  0  0  0  0
    3.1284   -1.8622   -0.8362 C   0  0  0  0  0  0  0  0  0  0  0  0
    2.9793   -1.8549    0.6764 C   0  0  0  0  0  0  0  0  0  0  0  0
    2.0867   -2.8623    1.1903 O   0  0  0  0  0  0  0  0  0  0  0  0
    1.0198   -1.8959    1.3406 C   0  0  0  0  0  0  0  0  0  0  0  0
    1.9613   -0.7226    0.9799 C   0  0  0  0  0  0  0  0  0  0  0  0
    1.9222    2.0954    0.5947 H   0  0  0  0  0  0  0  0  0  0  0  0
    3.4566    1.4345    0.0138 H   0  0  0  0  0  0  0  0  0  0  0  0
    2.2717    2.0638   -1.1395 H   0  0  0  0  0  0  0  0  0  0  0  0
    0.6722    0.2302   -0.5113 H   0  0  0  0  0  0  0  0  0  0  0  0
    2.6698   -0.2456   -2.3452 H   0  0  0  0  0  0  0  0  0  0  0  0
    3.9838   -2.3226   -1.3242 H   0  0  0  0  0  0  0  0  0  0  0  0
    3.9486   -1.8631    1.1872 H   0  0  0  0  0  0  0  0  0  0  0  0
    0.2076   -2.0731    0.6276 H   0  0  0  0  0  0  0  0  0  0  0  0
    0.6230   -1.8953    2.3625 H   0  0  0  0  0  0  0  0  0  0  0  0
    2.2059   -0.0957    1.8390 H   0  0  0  0  0  0  0  0  0  0  0  0
  1  2  1  0
  2  3  1  0
  3  4  1  0
  4  5  1  0
  5  6  1  0
  6  7  1  0
  7  8  1  0
  8  9  1  0
  9  2  1  0
  5  3  1  0
  9  6  1  0
  1 10  1  0
  1 11  1  0
  1 12  1  0
  2 13  1  0
  3 14  1  0
  5 15  1  0
  6 16  1  0
  8 17  1  0
  8 18  1  0
  9 19  1  0
M  END
$$$$
