
     RDKit          3D

 19 21  0  0  0  0  0  0  0  0999 V2000
   -1.3303    2.0406   -0.3331 C   0  0  0  0  0  0  0  0  0  0  0  0
   -0.4736    2.5014   -1.5625 C   0  0  0  0  0  0  0  0  0  0  0  0
    0.7933    1.9765   -0.8377 C   0  0  0  0  0  0  0  0  0  0  0  0
    1.5100    0.7039   -1.2704 C   0  0  0  0  0  0  0  0  0  0  0  0
    0.7447   -0.3486   -0.6681 O   0  0  0  0  0  0  0  0  0  0  0  0
    0.2693    0.1124    0.6079 C   0  0  0  0  0  0  0  0  0  0  0  0
   -0.0335    1.5879    0.3964 C   0  0  0  0  0  0  0  0  0  0  0  0
    0.7902    2.6912    1.0972 C   0  0  0  0  0  0  0  0  0  0  0  0
    1.5484    2.9718   -0.1134 O   0  0  0  0  0  0  0  0  0  0  0  0
   -1.9089    2.8189    0.1706 H   0  0  0  0  0  0  0  0  0  0  0  0
   -1.9962    1.2052   -0.5619 H   0  0  0  0  0  0  0  0  0  0  0  0
   -0.7103    1.9917   -2.4995 H   0  0  0  0  0  0  0  0  0  0  0  0
   -0.4452    3.5784   -1.7370 H   0  0  0  0  0  0  0  0  0  0  0  0
    1.5231    0.5144   -2.3468 H   0  0  0  0  0  0  0  0  0  0  0  0
    2.5425    0.7224   -0.8906 H   0  0  0  0  0  0  0  0  0  0  0  0
   -0.5950   -0.5056    0.8661 H   0  0  0  0  0  0  0  0  0  0  0  0
    1.0427   -0.0250    1.3804 H   0  0  0  0  0  0  0  0  0  0  0  0
    0.2240    3.5680    1.4334 H   0  0  0  0  0  0  0  0  0  0  0  0
    1.4423    2.3495    1.9106 H   0  0  0  0  0  0  0  0  0  0  0  0
  1  2  1  0
  2  3  1  0
  3  4  1  0
  4  5  1  0
  5  6  1  0
  6  7  1  0
  7  8  1  0
  8  9  1  0
  7  1  1  0
  7  3  1  0
  9  3  1  0
  1 10  1  0
  1 11  1  0
  2 12  1  0
  2 13  1  0
  4 14  1  0
  4 15  1  0
  6 16  1  0
  6 17  1  0
  8 18  1  0
  8 19  1  0
M  END
$$$$
