gdb 4255	2.8232474	1.6449227	1.199737	1.1068	74.58	-0.23751	0.04678	0.28429	1051.2375	0.157274	-422.503257	-422.495369	-422.494425	-422.535508	30.789
 OpenBabel02181911413D

 19 21  0  0  1  0  0  0  0  0999 V2000
   -0.5835    0.8025   -0.1612 O   0  0  0  0  0  0  0  0  0  0  0  0
   -1.8668    0.3536    0.2289 C   0  0  1  0  0  0  0  0  0  0  0  0
   -2.9930    0.5100   -0.8502 C   0  0  0  0  0  0  0  0  0  0  0  0
   -3.0582   -1.0348   -1.0223 C   0  0  2  0  0  0  0  0  0  0  0  0
   -4.1482   -1.6807   -0.3296 O   0  0  0  0  0  0  0  0  0  0  0  0
   -3.3180   -1.8528    0.8362 C   0  0  1  0  0  0  0  0  0  0  0  0
   -2.5008   -3.1769    0.8815 C   0  0  0  0  0  0  0  0  0  0  0  0
   -1.2106   -2.3922    0.4647 C   0  0  0  0  0  0  0  0  0  0  0  0
   -2.0856   -1.1663    0.1862 C   0  0  2  0  0  0  0  0  0  0  0  0
   -0.3582    0.3877   -1.0011 H   0  0  0  0  0  0  0  0  0  0  0  0
   -2.0532    0.8315    1.1948 H   0  0  0  0  0  0  0  0  0  0  0  0
   -3.9315    0.9447   -0.4996 H   0  0  0  0  0  0  0  0  0  0  0  0
   -2.6523    1.0566   -1.7347 H   0  0  0  0  0  0  0  0  0  0  0  0
   -2.8991   -1.4443   -2.0244 H   0  0  0  0  0  0  0  0  0  0  0  0
   -3.8072   -1.5263    1.7586 H   0  0  0  0  0  0  0  0  0  0  0  0
   -2.4546   -3.6658    1.8571 H   0  0  0  0  0  0  0  0  0  0  0  0
   -2.8570   -3.8946    0.1399 H   0  0  0  0  0  0  0  0  0  0  0  0
   -0.5333   -2.2297    1.3083 H   0  0  0  0  0  0  0  0  0  0  0  0
   -0.6277   -2.7911   -0.3701 H   0  0  0  0  0  0  0  0  0  0  0  0
  1  2  1  0  0  0  0
  2 11  1  1  0  0  0
  3 12  1  0  0  0  0
  3  2  1  0  0  0  0
  4 14  1  6  0  0  0
  4  3  1  0  0  0  0
  4  5  1  0  0  0  0
  4  9  1  0  0  0  0
  5  6  1  0  0  0  0
  6  7  1  0  0  0  0
  6 15  1  1  0  0  0
  7 16  1  0  0  0  0
  8  7  1  0  0  0  0
  8 18  1  0  0  0  0
  9  2  1  0  0  0  0
  9  8  1  6  0  0  0
  9  6  1  0  0  0  0
 10  1  1  0  0  0  0
 13  3  1  0  0  0  0
 17  7  1  0  0  0  0
 19  8  1  0  0  0  0
M TOR 0 0 1 2 3
M TOR 1 0 1 2 11
M TOR 2 0 1 2 12
M TOR 3 0 1 8 3
M TOR 4 0 1 8 5
M TOR 5 0 1 8 7
M TOR 6 1 2 3 4
M TOR 7 1 2 3 8
M TOR 8 1 2 3 13
M TOR 9 1 8 3 4
M TOR 10 1 8 3 13
M TOR 11 1 8 5 4
M TOR 12 1 8 5 6
M TOR 13 1 8 5 14
M TOR 14 1 8 7 6
M TOR 15 1 8 7 17
M TOR 16 1 8 7 18
M TOR 17 2 1 0 9
M TOR 18 2 1 8 5
M TOR 19 2 1 8 7
M TOR 20 2 3 4 5
M TOR 21 2 3 8 5
M TOR 22 2 3 8 7
M TOR 23 3 2 1 10
M TOR 24 3 4 5 6
M TOR 25 3 4 5 8
M TOR 26 3 4 5 14
M TOR 27 3 8 1 10
M TOR 28 3 8 5 6
M TOR 29 3 8 5 14
M TOR 30 3 8 7 6
M TOR 31 3 8 7 17
M TOR 32 3 8 7 18
M TOR 33 4 3 2 11
M TOR 34 4 3 2 12
M TOR 35 4 3 8 7
M TOR 36 4 5 6 7
M TOR 37 4 5 6 15
M TOR 38 4 5 6 16
M TOR 39 4 5 8 7
M TOR 40 5 4 3 13
M TOR 41 5 6 7 8
M TOR 42 5 6 7 17
M TOR 43 5 6 7 18
M TOR 44 5 8 1 10
M TOR 45 5 8 3 13
M TOR 46 5 8 7 17
M TOR 47 5 8 7 18
M TOR 48 7 6 5 14
M TOR 49 7 8 1 10
M TOR 50 7 8 3 13
M TOR 51 7 8 5 14
M TOR 52 8 1 0 9
M TOR 53 8 1 2 11
M TOR 54 8 1 2 12
M TOR 55 8 3 2 11
M TOR 56 8 3 2 12
M TOR 57 8 5 6 15
M TOR 58 8 5 6 16
M TOR 59 8 7 6 15
M TOR 60 8 7 6 16
M  END
$$$$
