
     RDKit          3D

 19 21  0  0  0  0  0  0  0  0999 V2000
    0.7307    0.3716    3.4193 C   0  0  0  0  0  0  0  0  0  0  0  0
    0.8214   -0.9047    2.6167 C   0  0  0  0  0  0  0  0  0  0  0  0
    1.0127    0.4377    1.9433 C   0  0  0  0  0  0  0  0  0  0  0  0
   -0.1433    0.6460    0.9705 C   0  0  0  0  0  0  0  0  0  0  0  0
   -0.0679   -0.3397   -0.0484 O   0  0  0  0  0  0  0  0  0  0  0  0
   -0.1327   -1.6693    0.4911 C   0  0  0  0  0  0  0  0  0  0  0  0
   -0.4008   -1.5902    2.0073 C   0  0  0  0  0  0  0  0  0  0  0  0
   -1.6487   -0.7180    2.1715 C   0  0  0  0  0  0  0  0  0  0  0  0
   -1.3927    0.5872    1.6307 O   0  0  0  0  0  0  0  0  0  0  0  0
   -0.2257    0.7320    3.7763 H   0  0  0  0  0  0  0  0  0  0  0  0
    1.5635    0.5739    4.0839 H   0  0  0  0  0  0  0  0  0  0  0  0
    1.6867   -1.5394    2.7796 H   0  0  0  0  0  0  0  0  0  0  0  0
    1.9896    0.7476    1.5888 H   0  0  0  0  0  0  0  0  0  0  0  0
   -0.1148    1.6091    0.4585 H   0  0  0  0  0  0  0  0  0  0  0  0
   -0.9425   -2.2013   -0.0247 H   0  0  0  0  0  0  0  0  0  0  0  0
    0.8097   -2.1941    0.2832 H   0  0  0  0  0  0  0  0  0  0  0  0
   -0.5786   -2.5864    2.4226 H   0  0  0  0  0  0  0  0  0  0  0  0
   -2.4972   -1.1649    1.6355 H   0  0  0  0  0  0  0  0  0  0  0  0
   -1.9332   -0.6097    3.2247 H   0  0  0  0  0  0  0  0  0  0  0  0
  1  2  1  0
  2  3  1  0
  3  4  1  0
  4  5  1  0
  5  6  1  0
  6  7  1  0
  7  8  1  0
  8  9  1  0
  3  1  1  0
  9  4  1  0
  7  2  1  0
  1 10  1  0
  1 11  1  0
  2 12  1  0
  3 13  1  0
  4 14  1  0
  6 15  1  0
  6 16  1  0
  7 17  1  0
  8 18  1  0
  8 19  1  0
M  END
$$$$
