gdb 2074	2.3839727	1.8449548	1.3172196	1.0708	74.48	-0.21989	0.0693	0.28919	1016.439	0.157058	-422.523303	-422.515268	-422.514323	-422.555381	31.985
 OpenBabel02181911403D

 19 21  0  0  1  0  0  0  0  0999 V2000
   -0.5188   -0.2042   -2.2423 O   0  0  0  0  0  0  0  0  0  0  0  0
   -0.8240   -0.2255   -0.8840 C   0  0  1  0  0  0  0  0  0  0  0  0
   -2.0881    0.4730   -0.4470 C   0  0  0  0  0  0  0  0  0  0  0  0
   -1.9335   -1.0277   -0.2641 C   0  0  2  0  0  0  0  0  0  0  0  0
   -1.5460   -1.5322    0.9858 O   0  0  0  0  0  0  0  0  0  0  0  0
   -0.3634   -0.8370    1.3980 C   0  0  0  0  0  0  0  0  0  0  0  0
    0.2941   -0.2867    0.1330 C   0  0  0  0  0  0  0  0  0  0  0  0
    1.6794   -0.6995   -0.2949 C   0  0  0  0  0  0  0  0  0  0  0  0
    1.4156    0.7077    0.1926 C   0  0  0  0  0  0  0  0  0  0  0  0
   -0.1643   -1.0689   -2.4794 H   0  0  0  0  0  0  0  0  0  0  0  0
   -2.0703    1.1346    0.4125 H   0  0  0  0  0  0  0  0  0  0  0  0
   -2.7497    0.7786   -1.2503 H   0  0  0  0  0  0  0  0  0  0  0  0
   -2.5673   -1.7117   -0.8162 H   0  0  0  0  0  0  0  0  0  0  0  0
   -0.6333   -0.0201    2.0834 H   0  0  0  0  0  0  0  0  0  0  0  0
    0.2696   -1.5419    1.9454 H   0  0  0  0  0  0  0  0  0  0  0  0
    2.2315   -1.3761    0.3493 H   0  0  0  0  0  0  0  0  0  0  0  0
    1.8750   -0.8251   -1.3548 H   0  0  0  0  0  0  0  0  0  0  0  0
    1.7979    0.9945    1.1676 H   0  0  0  0  0  0  0  0  0  0  0  0
    1.4223    1.5030   -0.5453 H   0  0  0  0  0  0  0  0  0  0  0  0
  2  1  1  6  0  0  0
  2  3  1  0  0  0  0
  2  4  1  0  0  0  0
  2  7  1  0  0  0  0
  3  4  1  0  0  0  0
  3 11  1  0  0  0  0
  4 13  1  6  0  0  0
  4  5  1  0  0  0  0
  5  6  1  0  0  0  0
  6 15  1  0  0  0  0
  6 14  1  0  0  0  0
  7  9  1  0  0  0  0
  7  6  1  0  0  0  0
  8  7  1  0  0  0  0
  8  9  1  0  0  0  0
  8 16  1  0  0  0  0
  9 18  1  0  0  0  0
 10  1  1  0  0  0  0
 12  3  1  0  0  0  0
 17  8  1  0  0  0  0
 19  9  1  0  0  0  0
M TOR 0 0 1 2 3
M TOR 1 0 1 2 10
M TOR 2 0 1 2 11
M TOR 3 0 1 3 4
M TOR 4 0 1 3 12
M TOR 5 0 1 6 5
M TOR 6 0 1 6 7
M TOR 7 0 1 6 8
M TOR 8 1 2 3 4
M TOR 9 1 2 3 12
M TOR 10 1 3 2 10
M TOR 11 1 3 2 11
M TOR 12 1 3 4 5
M TOR 13 1 6 5 4
M TOR 14 1 6 5 13
M TOR 15 1 6 5 14
M TOR 16 1 6 7 8
M TOR 17 1 6 7 15
M TOR 18 1 6 7 16
M TOR 19 1 6 8 17
M TOR 20 1 6 8 18
M TOR 21 2 1 0 9
M TOR 22 2 1 6 5
M TOR 23 2 1 6 7
M TOR 24 2 1 6 8
M TOR 25 2 3 1 6
M TOR 26 2 3 4 5
M TOR 27 3 1 0 9
M TOR 28 3 1 6 5
M TOR 29 3 1 6 7
M TOR 30 3 1 6 8
M TOR 31 3 4 5 6
M TOR 32 3 4 5 13
M TOR 33 3 4 5 14
M TOR 34 4 3 1 6
M TOR 35 4 3 2 10
M TOR 36 4 3 2 11
M TOR 37 4 5 6 7
M TOR 38 4 5 6 8
M TOR 39 5 4 3 12
M TOR 40 5 6 7 8
M TOR 41 5 6 7 15
M TOR 42 5 6 7 16
M TOR 43 5 6 8 17
M TOR 44 5 6 8 18
M TOR 45 6 1 0 9
M TOR 46 6 1 2 10
M TOR 47 6 1 2 11
M TOR 48 6 1 3 12
M TOR 49 6 7 8 17
M TOR 50 6 7 8 18
M TOR 51 6 8 7 15
M TOR 52 6 8 7 16
M TOR 53 7 6 5 13
M TOR 54 7 6 5 14
M TOR 55 8 6 5 13
M TOR 56 8 6 5 14
M  END
$$$$
