
     RDKit          3D

 19 20  0  0  0  0  0  0  0  0999 V2000
   -3.2114   -1.9998   -1.1199 C   0  0  0  0  0  0  0  0  0  0  0  0
   -2.2042   -0.8594   -1.1368 C   0  0  0  0  0  0  0  0  0  0  0  0
   -1.9656   -0.3112   -2.5376 C   0  0  0  0  0  0  0  0  0  0  0  0
   -1.4134   -1.2922   -3.4019 O   0  0  0  0  0  0  0  0  0  0  0  0
   -2.1484   -0.0306    0.1011 C   0  0  0  0  0  0  0  0  0  0  0  0
   -1.1358    1.1225    0.0146 C   0  0  0  0  0  0  0  0  0  0  0  0
   -0.0431    0.0515   -0.2467 C   0  0  0  0  0  0  0  0  0  0  0  0
    1.1530    0.1028   -0.3167 O   0  0  0  0  0  0  0  0  0  0  0  0
   -1.0260   -1.0781   -0.1698 C   0  0  0  0  0  0  0  0  0  0  0  0
   -3.2970   -2.4517   -0.1276 H   0  0  0  0  0  0  0  0  0  0  0  0
   -4.2020   -1.6335   -1.4122 H   0  0  0  0  0  0  0  0  0  0  0  0
   -2.9154   -2.7725   -1.8338 H   0  0  0  0  0  0  0  0  0  0  0  0
   -2.9261   -0.0314   -2.9853 H   0  0  0  0  0  0  0  0  0  0  0  0
   -1.3415    0.5908   -2.5184 H   0  0  0  0  0  0  0  0  0  0  0  0
   -0.5366   -1.5106   -3.0670 H   0  0  0  0  0  0  0  0  0  0  0  0
   -2.9120   -0.1085    0.8650 H   0  0  0  0  0  0  0  0  0  0  0  0
   -1.2933    1.9088   -0.7276 H   0  0  0  0  0  0  0  0  0  0  0  0
   -0.9495    1.5891    0.9871 H   0  0  0  0  0  0  0  0  0  0  0  0
   -0.8484   -2.0548    0.2642 H   0  0  0  0  0  0  0  0  0  0  0  0
  1  2  1  0
  2  3  1  0
  3  4  1  0
  2  5  1  0
  5  6  1  0
  6  7  1  0
  7  8  2  0
  7  9  1  0
  9  2  1  0
  9  5  1  0
  1 10  1  0
  1 11  1  0
  1 12  1  0
  3 13  1  0
  3 14  1  0
  4 15  1  0
  5 16  1  0
  6 17  1  0
  6 18  1  0
  9 19  1  0
M  END
$$$$
