
     RDKit          3D

 19 20  0  0  0  0  0  0  0  0999 V2000
    0.6912    0.9721   -0.2268 C   0  0  0  0  0  0  0  0  0  0  0  0
    1.0498   -0.5049   -0.0578 C   0  0  0  0  0  0  0  0  0  0  0  0
    1.8154   -1.1106   -1.2220 C   0  0  0  0  0  0  0  0  0  0  0  0
    3.1944   -0.7154   -1.2644 O   0  0  0  0  0  0  0  0  0  0  0  0
    2.8630   -2.0029   -0.7225 C   0  0  0  0  0  0  0  0  0  0  0  0
    2.8198   -2.0275    0.7917 C   0  0  0  0  0  0  0  0  0  0  0  0
    1.9886   -0.7730    1.1672 C   0  0  0  0  0  0  0  0  0  0  0  0
    1.1744   -0.9593    2.4241 C   0  0  0  0  0  0  0  0  0  0  0  0
    1.1196   -0.1827    3.3418 O   0  0  0  0  0  0  0  0  0  0  0  0
    0.2349    1.3725    0.6836 H   0  0  0  0  0  0  0  0  0  0  0  0
    1.5906    1.5569   -0.4426 H   0  0  0  0  0  0  0  0  0  0  0  0
   -0.0154    1.1159   -1.0504 H   0  0  0  0  0  0  0  0  0  0  0  0
    0.1262   -1.0923    0.0606 H   0  0  0  0  0  0  0  0  0  0  0  0
    1.3344   -1.2367   -2.1896 H   0  0  0  0  0  0  0  0  0  0  0  0
    3.2364   -2.8559   -1.2834 H   0  0  0  0  0  0  0  0  0  0  0  0
    2.3171   -2.9484    1.1181 H   0  0  0  0  0  0  0  0  0  0  0  0
    3.8123   -2.0155    1.2511 H   0  0  0  0  0  0  0  0  0  0  0  0
    2.6416    0.0895    1.3105 H   0  0  0  0  0  0  0  0  0  0  0  0
    0.5743   -1.9027    2.4355 H   0  0  0  0  0  0  0  0  0  0  0  0
  1  2  1  0
  2  3  1  0
  3  4  1  0
  4  5  1  0
  5  6  1  0
  6  7  1  0
  7  8  1  0
  8  9  2  0
  7  2  1  0
  5  3  1  0
  1 10  1  0
  1 11  1  0
  1 12  1  0
  2 13  1  0
  3 14  1  0
  5 15  1  0
  6 16  1  0
  6 17  1  0
  7 18  1  0
  8 19  1  0
M  END
$$$$
