
     RDKit          3D

 19 21  0  0  0  0  0  0  0  0999 V2000
   -0.0485   -0.0223   -0.1199 C   0  0  0  0  0  0  0  0  0  0  0  0
    1.4553   -0.0249   -0.1032 C   0  0  0  0  0  0  0  0  0  0  0  0
    2.2402    1.2808   -0.1980 C   0  0  0  0  0  0  0  0  0  0  0  0
    3.5719    0.8988   -0.8599 C   0  0  0  0  0  0  0  0  0  0  0  0
    3.5253    1.0587   -2.3013 O   0  0  0  0  0  0  0  0  0  0  0  0
    3.7701   -0.3451   -2.5208 C   0  0  0  0  0  0  0  0  0  0  0  0
    3.6509   -0.6472   -1.0159 C   0  0  0  0  0  0  0  0  0  0  0  0
    2.2983   -1.1442   -0.5656 C   0  0  0  0  0  0  0  0  0  0  0  0
    2.0775   -0.9300    0.8329 O   0  0  0  0  0  0  0  0  0  0  0  0
   -0.4429    0.5628    0.7183 H   0  0  0  0  0  0  0  0  0  0  0  0
   -0.4242    0.4245   -1.0462 H   0  0  0  0  0  0  0  0  0  0  0  0
   -0.4378   -1.0400   -0.0356 H   0  0  0  0  0  0  0  0  0  0  0  0
    1.7300    2.0223   -0.8205 H   0  0  0  0  0  0  0  0  0  0  0  0
    2.3795    1.7078    0.8008 H   0  0  0  0  0  0  0  0  0  0  0  0
    4.4421    1.4108   -0.4363 H   0  0  0  0  0  0  0  0  0  0  0  0
    3.0168   -0.7992   -3.1771 H   0  0  0  0  0  0  0  0  0  0  0  0
    4.7662   -0.5249   -2.9451 H   0  0  0  0  0  0  0  0  0  0  0  0
    4.4789   -1.1807   -0.5466 H   0  0  0  0  0  0  0  0  0  0  0  0
    1.8808   -2.0639   -0.9733 H   0  0  0  0  0  0  0  0  0  0  0  0
  1  2  1  0
  2  3  1  0
  3  4  1  0
  4  5  1  0
  5  6  1  0
  6  7  1  0
  7  8  1  0
  8  9  1  0
  8  2  1  0
  9  2  1  0
  7  4  1  0
  1 10  1  0
  1 11  1  0
  1 12  1  0
  3 13  1  0
  3 14  1  0
  4 15  1  0
  6 16  1  0
  6 17  1  0
  7 18  1  0
  8 19  1  0
M  END
$$$$
