gdb 4570	1.8868555	1.6082963	1.4291808	1.7877	75.83	-0.25297	0.02933	0.2823	1076.607	0.155597	-422.543852	-422.534342	-422.533397	-422.577968	35.664
 OpenBabel02181911413D

 19 19  0  0  1  0  0  0  0  0999 V2000
   -1.6169    0.1714   -1.1606 O   0  0  0  0  0  0  0  0  0  0  0  0
   -2.0617   -0.4408    0.0234 C   0  0  1  0  0  0  0  0  0  0  0  0
   -2.1495   -1.9597   -0.1179 C   0  0  0  0  0  0  0  0  0  0  0  0
   -2.0368   -2.5088    1.3354 C   0  0  0  0  0  0  0  0  0  0  0  0
   -1.6923   -1.2893    2.2307 C   0  0  0  0  0  0  0  0  0  0  0  0
   -1.1406   -0.2279    1.2508 C   0  0  2  0  0  0  0  0  0  0  0  0
   -1.3210    1.1232    1.6761 O   0  0  0  0  0  0  0  0  0  0  0  0
    0.2678   -0.4772    0.9316 C   0  0  0  0  0  0  0  0  0  0  0  0
    1.4366   -0.6710    0.7256 C   0  0  0  0  0  0  0  0  0  0  0  0
   -1.4857    1.1056   -0.9608 H   0  0  0  0  0  0  0  0  0  0  0  0
   -3.0377   -0.0300    0.3314 H   0  0  0  0  0  0  0  0  0  0  0  0
   -3.0674   -2.2696   -0.6220 H   0  0  0  0  0  0  0  0  0  0  0  0
   -1.3088   -2.2930   -0.7330 H   0  0  0  0  0  0  0  0  0  0  0  0
   -2.9633   -2.9840    1.6669 H   0  0  0  0  0  0  0  0  0  0  0  0
   -1.2539   -3.2685    1.3957 H   0  0  0  0  0  0  0  0  0  0  0  0
   -2.5920   -0.8640    2.6866 H   0  0  0  0  0  0  0  0  0  0  0  0
   -0.9902   -1.5259    3.0331 H   0  0  0  0  0  0  0  0  0  0  0  0
   -0.5943    1.3514    2.2652 H   0  0  0  0  0  0  0  0  0  0  0  0
    2.4650   -0.8398    0.5204 H   0  0  0  0  0  0  0  0  0  0  0  0
  1 10  1  0  0  0  0
  1  2  1  0  0  0  0
  2 11  1  1  0  0  0
  2  6  1  0  0  0  0
  3  2  1  0  0  0  0
  3  4  1  0  0  0  0
  4 15  1  0  0  0  0
  4 14  1  0  0  0  0
  4  5  1  0  0  0  0
  5 16  1  0  0  0  0
  5 17  1  0  0  0  0
  6  8  1  6  0  0  0
  6  7  1  0  0  0  0
  6  5  1  0  0  0  0
  7 18  1  0  0  0  0
  9  8  3  0  0  0  0
 12  3  1  0  0  0  0
 13  3  1  0  0  0  0
 19  9  1  0  0  0  0
M TOR 0 0 1 2 3
M TOR 1 0 1 2 11
M TOR 2 0 1 2 12
M TOR 3 0 1 5 4
M TOR 4 0 1 5 6
M TOR 5 0 1 5 7
M TOR 6 1 2 3 4
M TOR 7 1 2 3 13
M TOR 8 1 2 3 14
M TOR 9 1 5 4 3
M TOR 10 1 5 4 15
M TOR 11 1 5 4 16
M TOR 12 1 5 6 17
M TOR 13 1 5 7 8
M TOR 14 2 1 0 9
M TOR 15 2 1 5 4
M TOR 16 2 1 5 6
M TOR 17 2 1 5 7
M TOR 18 2 3 4 5
M TOR 19 2 3 4 15
M TOR 20 2 3 4 16
M TOR 21 3 2 1 5
M TOR 22 3 2 1 10
M TOR 23 3 4 5 6
M TOR 24 3 4 5 7
M TOR 25 4 3 2 11
M TOR 26 4 3 2 12
M TOR 27 4 5 1 10
M TOR 28 4 5 6 17
M TOR 29 4 5 7 8
M TOR 30 5 1 0 9
M TOR 31 5 1 2 11
M TOR 32 5 1 2 12
M TOR 33 5 4 3 13
M TOR 34 5 4 3 14
M TOR 35 5 7 8 18
M TOR 36 6 5 1 10
M TOR 37 6 5 4 15
M TOR 38 6 5 4 16
M TOR 39 6 5 7 8
M TOR 40 7 5 1 10
M TOR 41 7 5 4 15
M TOR 42 7 5 4 16
M TOR 43 7 5 6 17
M  END
$$$$
