
     RDKit          3D

 19 21  0  0  0  0  0  0  0  0999 V2000
   -0.0807    0.0128    0.1409 C   0  0  0  0  0  0  0  0  0  0  0  0
    1.4103   -0.0140    0.0154 C   0  0  0  0  0  0  0  0  0  0  0  0
    2.1453    0.8567    0.8962 O   0  0  0  0  0  0  0  0  0  0  0  0
    3.2824    0.5795    0.0247 C   0  0  0  0  0  0  0  0  0  0  0  0
    3.5908   -0.8826    0.3865 C   0  0  0  0  0  0  0  0  0  0  0  0
    2.2348   -1.3898   -0.1453 C   0  0  0  0  0  0  0  0  0  0  0  0
    2.3577   -1.0783   -1.6652 C   0  0  0  0  0  0  0  0  0  0  0  0
    2.2948    0.3751   -1.2072 C   0  0  0  0  0  0  0  0  0  0  0  0
    2.0599    1.3976   -2.1080 O   0  0  0  0  0  0  0  0  0  0  0  0
   -0.3891   -0.3134    1.1399 H   0  0  0  0  0  0  0  0  0  0  0  0
   -0.4685    1.0229   -0.0239 H   0  0  0  0  0  0  0  0  0  0  0  0
   -0.5409   -0.6569   -0.5918 H   0  0  0  0  0  0  0  0  0  0  0  0
    4.0603    1.3426    0.0544 H   0  0  0  0  0  0  0  0  0  0  0  0
    4.4420   -1.3175   -0.1445 H   0  0  0  0  0  0  0  0  0  0  0  0
    3.7314   -0.9902    1.4642 H   0  0  0  0  0  0  0  0  0  0  0  0
    1.8431   -2.3403    0.2102 H   0  0  0  0  0  0  0  0  0  0  0  0
    3.2465   -1.4411   -2.1886 H   0  0  0  0  0  0  0  0  0  0  0  0
    1.4590   -1.3397   -2.2301 H   0  0  0  0  0  0  0  0  0  0  0  0
    1.9489    2.2154   -1.6086 H   0  0  0  0  0  0  0  0  0  0  0  0
  1  2  1  0
  2  3  1  0
  3  4  1  0
  4  5  1  0
  5  6  1  0
  6  7  1  0
  7  8  1  0
  8  9  1  0
  6  2  1  0
  8  2  1  0
  8  4  1  0
  1 10  1  0
  1 11  1  0
  1 12  1  0
  4 13  1  0
  5 14  1  0
  5 15  1  0
  6 16  1  0
  7 17  1  0
  7 18  1  0
  9 19  1  0
M  END
$$$$
