gdb 4287	3.1205758	1.5603329	1.3518999	0.4654	73.14	-0.24075	0.0741	0.31484999999999996	998.0307	0.159618	-422.561562	-422.554279	-422.553334	-422.59321	29.143
 OpenBabel02181911413D

 19 21  0  0  1  0  0  0  0  0999 V2000
    0.5949    0.3014    0.6919 O   0  0  0  0  0  0  0  0  0  0  0  0
   -0.8004    0.5098    0.8811 C   0  0  1  0  0  0  0  0  0  0  0  0
   -1.2073    0.6264    2.3726 C   0  0  0  0  0  0  0  0  0  0  0  0
   -2.2319    1.7743    2.4373 C   0  0  2  0  0  0  0  0  0  0  0  0
   -3.5391    1.3128    2.0818 O   0  0  0  0  0  0  0  0  0  0  0  0
   -3.6901    1.3705    0.6646 C   0  0  0  0  0  0  0  0  0  0  0  0
   -2.5928    2.2884    0.1463 C   0  0  2  0  0  0  0  0  0  0  0  0
   -1.1409    1.8750    0.2903 C   0  0  1  0  0  0  0  0  0  0  0  0
   -1.7950    2.7504    1.3329 C   0  0  2  0  0  0  0  0  0  0  0  0
    0.8139   -0.5642    1.0507 H   0  0  0  0  0  0  0  0  0  0  0  0
   -1.3624   -0.2930    0.3792 H   0  0  0  0  0  0  0  0  0  0  0  0
   -1.6051   -0.2964    2.8043 H   0  0  0  0  0  0  0  0  0  0  0  0
   -0.3054    0.9156    2.9247 H   0  0  0  0  0  0  0  0  0  0  0  0
   -2.3074    2.2195    3.4317 H   0  0  0  0  0  0  0  0  0  0  0  0
   -3.6350    0.3594    0.2329 H   0  0  0  0  0  0  0  0  0  0  0  0
   -4.6837    1.7746    0.4385 H   0  0  0  0  0  0  0  0  0  0  0  0
   -2.8361    2.9723   -0.6587 H   0  0  0  0  0  0  0  0  0  0  0  0
   -0.4327    2.2745   -0.4263 H   0  0  0  0  0  0  0  0  0  0  0  0
   -1.5373    3.7818    1.5339 H   0  0  0  0  0  0  0  0  0  0  0  0
  1  2  1  0  0  0  0
  1 10  1  0  0  0  0
  2 11  1  6  0  0  0
  2  3  1  0  0  0  0
  3  4  1  0  0  0  0
  3 12  1  0  0  0  0
  3 13  1  0  0  0  0
  4 14  1  1  0  0  0
  5  4  1  0  0  0  0
  6  5  1  0  0  0  0
  7 17  1  6  0  0  0
  7  8  1  0  0  0  0
  7  6  1  0  0  0  0
  7  9  1  0  0  0  0
  8 18  1  6  0  0  0
  8  2  1  0  0  0  0
  8  9  1  0  0  0  0
  9 19  1  1  0  0  0
  9  4  1  0  0  0  0
 15  6  1  0  0  0  0
 16  6  1  0  0  0  0
M TOR 0 0 1 2 3
M TOR 1 0 1 2 11
M TOR 2 0 1 2 12
M TOR 3 0 1 7 6
M TOR 4 0 1 7 8
M TOR 5 0 1 7 17
M TOR 6 1 2 3 4
M TOR 7 1 2 3 8
M TOR 8 1 2 3 13
M TOR 9 1 7 6 5
M TOR 10 1 7 6 8
M TOR 11 1 7 6 16
M TOR 12 1 7 8 3
M TOR 13 1 7 8 18
M TOR 14 2 1 0 9
M TOR 15 2 1 7 6
M TOR 16 2 1 7 8
M TOR 17 2 1 7 17
M TOR 18 2 3 4 5
M TOR 19 2 3 8 6
M TOR 20 2 3 8 7
M TOR 21 2 3 8 18
M TOR 22 3 2 1 7
M TOR 23 3 2 1 10
M TOR 24 3 4 5 6
M TOR 25 3 4 5 14
M TOR 26 3 4 5 15
M TOR 27 3 8 6 5
M TOR 28 3 8 6 7
M TOR 29 3 8 6 16
M TOR 30 3 8 7 17
M TOR 31 4 3 2 11
M TOR 32 4 3 2 12
M TOR 33 4 3 8 6
M TOR 34 4 3 8 7
M TOR 35 4 3 8 18
M TOR 36 4 5 6 7
M TOR 37 4 5 6 8
M TOR 38 4 5 6 16
M TOR 39 5 4 3 8
M TOR 40 5 4 3 13
M TOR 41 5 6 7 8
M TOR 42 5 6 7 17
M TOR 43 5 6 8 18
M TOR 44 6 7 1 10
M TOR 45 6 7 8 18
M TOR 46 6 8 3 13
M TOR 47 6 8 7 17
M TOR 48 7 1 0 9
M TOR 49 7 1 2 11
M TOR 50 7 1 2 12
M TOR 51 7 6 5 14
M TOR 52 7 6 5 15
M TOR 53 7 8 3 13
M TOR 54 7 8 6 16
M TOR 55 8 3 2 11
M TOR 56 8 3 2 12
M TOR 57 8 6 5 14
M TOR 58 8 6 5 15
M TOR 59 8 7 1 10
M  END
$$$$
