gdb 5781	3.1028286	1.337428	1.0500819	2.8632	76.05	-0.22283	-0.01602	0.20681	1175.6412	0.157254	-422.559654	-422.551179	-422.550234	-422.592853	31.675
 OpenBabel02181911423D

 19 20  0  0  1  0  0  0  0  0999 V2000
    1.0144    0.4950   -0.5373 C   0  0  0  0  0  0  0  0  0  0  0  0
    0.6682   -0.3078    0.5794 O   0  0  0  0  0  0  0  0  0  0  0  0
   -0.1615    0.3246    1.5175 C   0  0  2  0  0  0  0  0  0  0  0  0
   -0.1600   -0.4633    2.8390 C   0  0  0  0  0  0  0  0  0  0  0  0
   -1.5600   -0.3030    3.4263 C   0  0  1  0  0  0  0  0  0  0  0  0
   -2.1086    1.0808    3.5169 C   0  0  0  0  0  0  0  0  0  0  0  0
   -2.4917    0.2013    2.3272 C   0  0  1  0  0  0  0  0  0  0  0  0
   -1.6613    0.3578    1.1016 C   0  0  0  0  0  0  0  0  0  0  0  0
   -2.0596    0.4111   -0.0365 O   0  0  0  0  0  0  0  0  0  0  0  0
    1.5183    1.4209   -0.2165 H   0  0  0  0  0  0  0  0  0  0  0  0
    1.7112   -0.0924   -1.1399 H   0  0  0  0  0  0  0  0  0  0  0  0
    0.1375    0.7529   -1.1380 H   0  0  0  0  0  0  0  0  0  0  0  0
    0.1708    1.3659    1.6752 H   0  0  0  0  0  0  0  0  0  0  0  0
    0.0262   -1.5134    2.5916 H   0  0  0  0  0  0  0  0  0  0  0  0
    0.6276   -0.1361    3.5242 H   0  0  0  0  0  0  0  0  0  0  0  0
   -1.9120   -1.0467    4.1316 H   0  0  0  0  0  0  0  0  0  0  0  0
   -2.9061    1.2635    4.2283 H   0  0  0  0  0  0  0  0  0  0  0  0
   -1.4587    1.9342    3.3536 H   0  0  0  0  0  0  0  0  0  0  0  0
   -3.5212   -0.1137    2.2158 H   0  0  0  0  0  0  0  0  0  0  0  0
  1 10  1  0  0  0  0
  1  2  1  0  0  0  0
  2  3  1  0  0  0  0
  3 13  1  1  0  0  0
  3  4  1  0  0  0  0
  4  5  1  0  0  0  0
  4 15  1  0  0  0  0
  5  6  1  0  0  0  0
  5 16  1  1  0  0  0
  6 17  1  0  0  0  0
  7 19  1  6  0  0  0
  7  5  1  0  0  0  0
  7  6  1  0  0  0  0
  8  3  1  0  0  0  0
  8  7  1  0  0  0  0
  9  8  2  0  0  0  0
 11  1  1  0  0  0  0
 12  1  1  0  0  0  0
 14  4  1  0  0  0  0
 18  6  1  0  0  0  0
M TOR 0 0 1 2 3
M TOR 1 0 1 2 7
M TOR 2 0 1 2 12
M TOR 3 1 2 3 4
M TOR 4 1 2 3 13
M TOR 5 1 2 3 14
M TOR 6 1 2 7 6
M TOR 7 1 2 7 8
M TOR 8 2 1 0 9
M TOR 9 2 1 0 10
M TOR 10 2 1 0 11
M TOR 11 2 3 4 5
M TOR 12 2 3 4 6
M TOR 13 2 3 4 15
M TOR 14 2 7 6 4
M TOR 15 2 7 6 5
M TOR 16 2 7 6 18
M TOR 17 3 2 7 6
M TOR 18 3 2 7 8
M TOR 19 3 4 5 6
M TOR 20 3 4 5 16
M TOR 21 3 4 5 17
M TOR 22 3 4 6 7
M TOR 23 3 4 6 18
M TOR 24 4 3 2 7
M TOR 25 4 3 2 12
M TOR 26 4 5 6 7
M TOR 27 4 5 6 18
M TOR 28 4 6 5 16
M TOR 29 4 6 5 17
M TOR 30 4 6 7 8
M TOR 31 5 4 3 13
M TOR 32 5 4 3 14
M TOR 33 5 6 4 15
M TOR 34 5 6 7 8
M TOR 35 6 4 3 13
M TOR 36 6 4 3 14
M TOR 37 6 7 2 12
M TOR 38 7 2 3 13
M TOR 39 7 2 3 14
M TOR 40 7 6 4 15
M TOR 41 7 6 5 16
M TOR 42 7 6 5 17
M TOR 43 8 7 2 12
M TOR 44 8 7 6 18
M  END
$$$$
