gdb 5870	8.0925286	0.4601546	0.4522205	1.3855	84.5	-0.24489	0.02677	0.27166	2404.5113	0.154247	-422.503492	-422.492972	-422.492028	-422.541042	35.976
 OpenBabel02181911423D

 19 19  0  0  1  0  0  0  0  0999 V2000
    0.1240    0.3873    0.4138 C   0  0  0  0  0  0  0  0  0  0  0  0
    1.2053   -0.6392    0.2014 C   0  0  2  0  0  0  0  0  0  0  0  0
    2.5545   -0.1869    0.2870 O   0  0  0  0  0  0  0  0  0  0  0  0
    2.0727   -0.6325   -0.9967 C   0  0  1  0  0  0  0  0  0  0  0  0
    2.6400   -1.8349   -1.5430 C   0  0  0  0  0  0  0  0  0  0  0  0
    3.1069   -2.8394   -2.0178 C   0  0  0  0  0  0  0  0  0  0  0  0
    3.7145   -4.0226   -2.6104 C   0  0  0  0  0  0  0  0  0  0  0  0
    4.9199   -3.6822   -3.5117 C   0  0  0  0  0  0  0  0  0  0  0  0
    5.4729   -4.8369   -4.1131 O   0  0  0  0  0  0  0  0  0  0  0  0
    0.0249    0.6224    1.4786 H   0  0  0  0  0  0  0  0  0  0  0  0
    0.3561    1.3128   -0.1200 H   0  0  0  0  0  0  0  0  0  0  0  0
   -0.8409    0.0085    0.0607 H   0  0  0  0  0  0  0  0  0  0  0  0
    1.0392   -1.6094    0.6718 H   0  0  0  0  0  0  0  0  0  0  0  0
    1.9259    0.1793   -1.7095 H   0  0  0  0  0  0  0  0  0  0  0  0
    4.0432   -4.7060   -1.8150 H   0  0  0  0  0  0  0  0  0  0  0  0
    2.9795   -4.5752   -3.2081 H   0  0  0  0  0  0  0  0  0  0  0  0
    4.5896   -3.0379   -4.3314 H   0  0  0  0  0  0  0  0  0  0  0  0
    5.6657   -3.1203   -2.9318 H   0  0  0  0  0  0  0  0  0  0  0  0
    5.9080   -5.3524   -3.4267 H   0  0  0  0  0  0  0  0  0  0  0  0
  1 10  1  0  0  0  0
  2  3  1  0  0  0  0
  2  1  1  0  0  0  0
  2 13  1  1  0  0  0
  4 14  1  6  0  0  0
  4  2  1  0  0  0  0
  4  3  1  0  0  0  0
  5  4  1  0  0  0  0
  6  5  3  0  0  0  0
  7  6  1  0  0  0  0
  7 15  1  0  0  0  0
  8 18  1  0  0  0  0
  8  7  1  0  0  0  0
  9  8  1  0  0  0  0
  9 19  1  0  0  0  0
 11  1  1  0  0  0  0
 12  1  1  0  0  0  0
 16  7  1  0  0  0  0
 17  8  1  0  0  0  0
M TOR 0 0 1 2 3
M TOR 1 0 1 3 4
M TOR 2 0 1 3 13
M TOR 3 1 2 3 4
M TOR 4 1 2 3 13
M TOR 5 1 3 4 5
M TOR 6 2 1 0 9
M TOR 7 2 1 0 10
M TOR 8 2 1 0 11
M TOR 9 2 3 1 12
M TOR 10 2 3 4 5
M TOR 11 3 1 0 9
M TOR 12 3 1 0 10
M TOR 13 3 1 0 11
M TOR 14 3 4 5 6
M TOR 15 4 3 1 12
M TOR 16 4 5 6 7
M TOR 17 4 5 6 14
M TOR 18 4 5 6 15
M TOR 19 5 4 3 13
M TOR 20 5 6 7 8
M TOR 21 5 6 7 16
M TOR 22 5 6 7 17
M TOR 23 6 7 8 18
M TOR 24 8 7 6 14
M TOR 25 8 7 6 15
M  END
$$$$
