gdb 965	3.8233602	0.9344835	0.8172614	1.9098	79.22	-0.24167	0.00556	0.24723	1420.0897	0.15756	-422.595567	-422.586695	-422.585751	-422.630758	31.389
 OpenBabel02181911403D

 19 19  0  0  0  0  0  0  0  0999 V2000
    1.1413    1.4198   -0.1576 O   0  0  0  0  0  0  0  0  0  0  0  0
    0.5308    0.4951    0.3065 C   0  0  0  0  0  0  0  0  0  0  0  0
   -0.7803    0.4489    0.5717 O   0  0  0  0  0  0  0  0  0  0  0  0
   -1.5640    1.6339    0.2469 C   0  0  0  0  0  0  0  0  0  0  0  0
   -1.8368    2.4546    1.4634 C   0  0  0  0  0  0  0  0  0  0  0  0
   -3.0465    2.7493    1.9442 C   0  0  0  0  0  0  0  0  0  0  0  0
   -2.9874    3.6914    3.1204 C   0  0  0  0  0  0  0  0  0  0  0  0
   -1.4846    3.6723    3.5049 C   0  0  0  0  0  0  0  0  0  0  0  0
   -0.7425    3.1515    2.2481 C   0  0  0  0  0  0  0  0  0  0  0  0
    0.9752   -0.4731    0.5862 H   0  0  0  0  0  0  0  0  0  0  0  0
   -1.0109    2.2035   -0.5052 H   0  0  0  0  0  0  0  0  0  0  0  0
   -2.4901    1.2509   -0.1864 H   0  0  0  0  0  0  0  0  0  0  0  0
   -3.9808    2.3965    1.5189 H   0  0  0  0  0  0  0  0  0  0  0  0
   -3.3238    4.6957    2.8252 H   0  0  0  0  0  0  0  0  0  0  0  0
   -3.6380    3.3838    3.9467 H   0  0  0  0  0  0  0  0  0  0  0  0
   -1.1197    4.6469    3.8376 H   0  0  0  0  0  0  0  0  0  0  0  0
   -1.3327    2.9718    4.3320 H   0  0  0  0  0  0  0  0  0  0  0  0
   -0.3107    3.9667    1.6508 H   0  0  0  0  0  0  0  0  0  0  0  0
    0.0921    2.4893    2.4997 H   0  0  0  0  0  0  0  0  0  0  0  0
  1  2  2  0  0  0  0
  2  3  1  0  0  0  0
  2 10  1  0  0  0  0
  4  3  1  0  0  0  0
  4  5  1  0  0  0  0
  5  6  2  0  0  0  0
  5  9  1  0  0  0  0
  6  7  1  0  0  0  0
  7  8  1  0  0  0  0
  7 15  1  0  0  0  0
  8 16  1  0  0  0  0
  8 17  1  0  0  0  0
  9 19  1  0  0  0  0
  9  8  1  0  0  0  0
 11  4  1  0  0  0  0
 12  4  1  0  0  0  0
 13  6  1  0  0  0  0
 14  7  1  0  0  0  0
 18  9  1  0  0  0  0
M TOR 0 0 1 2 3
M TOR 1 1 2 3 4
M TOR 2 1 2 3 10
M TOR 3 1 2 3 11
M TOR 4 2 3 4 5
M TOR 5 2 3 4 8
M TOR 6 3 2 1 9
M TOR 7 3 4 5 6
M TOR 8 3 4 5 12
M TOR 9 3 4 8 7
M TOR 10 3 4 8 17
M TOR 11 3 4 8 18
M TOR 12 4 5 6 7
M TOR 13 4 5 6 13
M TOR 14 4 5 6 14
M TOR 15 4 8 7 6
M TOR 16 4 8 7 15
M TOR 17 4 8 7 16
M TOR 18 5 4 3 10
M TOR 19 5 4 3 11
M TOR 20 5 4 8 7
M TOR 21 5 4 8 17
M TOR 22 5 4 8 18
M TOR 23 5 6 7 8
M TOR 24 5 6 7 15
M TOR 25 5 6 7 16
M TOR 26 6 5 4 8
M TOR 27 6 7 8 17
M TOR 28 6 7 8 18
M TOR 29 7 6 5 12
M TOR 30 8 4 3 10
M TOR 31 8 4 3 11
M TOR 32 8 4 5 12
M TOR 33 8 7 6 13
M TOR 34 8 7 6 14
M  END
$$$$
