
     RDKit          3D

 19 19  0  0  0  0  0  0  0  0999 V2000
    4.5248    1.3548    0.6099 O   0  0  0  0  0  0  0  0  0  0  0  0
    3.1067    1.3432    0.6805 C   0  0  0  0  0  0  0  0  0  0  0  0
    2.5615   -0.0061    0.1455 C   0  0  0  0  0  0  0  0  0  0  0  0
    1.1205   -0.1517    0.2966 C   0  0  0  0  0  0  0  0  0  0  0  0
   -0.0689   -0.2448    0.4450 C   0  0  0  0  0  0  0  0  0  0  0  0
    2.5930    2.5309   -0.1192 C   0  0  0  0  0  0  0  0  0  0  0  0
    3.1932    2.7856   -1.5230 C   0  0  0  0  0  0  0  0  0  0  0  0
    3.5996    4.1181   -1.1527 O   0  0  0  0  0  0  0  0  0  0  0  0
    3.1744    3.9234    0.2108 C   0  0  0  0  0  0  0  0  0  0  0  0
    4.8689    0.7044    1.2296 H   0  0  0  0  0  0  0  0  0  0  0  0
    2.7712    1.4573    1.7236 H   0  0  0  0  0  0  0  0  0  0  0  0
    2.8501   -0.1058   -0.9083 H   0  0  0  0  0  0  0  0  0  0  0  0
    3.0683   -0.8204    0.6804 H   0  0  0  0  0  0  0  0  0  0  0  0
   -1.1197   -0.3382    0.5658 H   0  0  0  0  0  0  0  0  0  0  0  0
    1.5019    2.5073   -0.1162 H   0  0  0  0  0  0  0  0  0  0  0  0
    4.0526    2.1531   -1.7747 H   0  0  0  0  0  0  0  0  0  0  0  0
    2.4846    2.7901   -2.3597 H   0  0  0  0  0  0  0  0  0  0  0  0
    4.0230    3.9058    0.9051 H   0  0  0  0  0  0  0  0  0  0  0  0
    2.4553    4.6873    0.5302 H   0  0  0  0  0  0  0  0  0  0  0  0
  1  2  1  0
  2  3  1  0
  3  4  1  0
  4  5  3  0
  2  6  1  0
  6  7  1  0
  7  8  1  0
  8  9  1  0
  9  6  1  0
  1 10  1  0
  2 11  1  0
  3 12  1  0
  3 13  1  0
  5 14  1  0
  6 15  1  0
  7 16  1  0
  7 17  1  0
  9 18  1  0
  9 19  1  0
M  END
$$$$
