gdb 5008	2.8972379	1.5699171	1.2955907	0.5075	73.15	-0.23656	0.07003	0.30659	1042.83	0.157024	-422.505621	-422.497884	-422.49694	-422.537799	30.539
 OpenBabel02181911413D

 19 21  0  0  1  0  0  0  0  0999 V2000
    1.1901    0.9336    0.4742 C   0  0  0  0  0  0  0  0  0  0  0  0
    0.8468   -0.4604   -0.0636 C   0  0  0  0  0  0  0  0  0  0  0  0
    1.6925   -0.8440   -1.2479 C   0  0  2  0  0  0  0  0  0  0  0  0
    1.6194   -0.1906   -2.6535 C   0  0  0  0  0  0  0  0  0  0  0  0
    2.1331   -1.6013   -3.0032 C   0  0  2  0  0  0  0  0  0  0  0  0
    1.3205   -2.1250   -1.8957 O   0  0  0  0  0  0  0  0  0  0  0  0
    3.5454   -1.6516   -2.3630 C   0  0  1  0  0  0  0  0  0  0  0  0
    4.0741   -0.3751   -1.9653 O   0  0  0  0  0  0  0  0  0  0  0  0
    3.2204   -1.0893   -1.0567 C   0  0  1  0  0  0  0  0  0  0  0  0
    0.5625    1.1817    1.3345 H   0  0  0  0  0  0  0  0  0  0  0  0
    2.2356    0.9944    0.7938 H   0  0  0  0  0  0  0  0  0  0  0  0
    1.0322    1.7027   -0.2887 H   0  0  0  0  0  0  0  0  0  0  0  0
    0.9862   -1.2147    0.7218 H   0  0  0  0  0  0  0  0  0  0  0  0
   -0.2072   -0.5073   -0.3576 H   0  0  0  0  0  0  0  0  0  0  0  0
    0.5822   -0.0667   -2.9647 H   0  0  0  0  0  0  0  0  0  0  0  0
    2.2341    0.6784   -2.8787 H   0  0  0  0  0  0  0  0  0  0  0  0
    1.9623   -2.1028   -3.9543 H   0  0  0  0  0  0  0  0  0  0  0  0
    4.2615   -2.4419   -2.5564 H   0  0  0  0  0  0  0  0  0  0  0  0
    3.6508   -1.3906   -0.1076 H   0  0  0  0  0  0  0  0  0  0  0  0
  1 11  1  0  0  0  0
  1 10  1  0  0  0  0
  2  1  1  0  0  0  0
  2 13  1  0  0  0  0
  3  9  1  0  0  0  0
  3  2  1  1  0  0  0
  4  3  1  0  0  0  0
  5 17  1  6  0  0  0
  5  4  1  0  0  0  0
  5  7  1  0  0  0  0
  5  6  1  0  0  0  0
  6  3  1  0  0  0  0
  7 18  1  6  0  0  0
  7  8  1  0  0  0  0
  7  9  1  0  0  0  0
  8  9  1  0  0  0  0
  9 19  1  1  0  0  0
 12  1  1  0  0  0  0
 14  2  1  0  0  0  0
 15  4  1  0  0  0  0
 16  4  1  0  0  0  0
M TOR 0 0 1 2 3
M TOR 1 0 1 2 5
M TOR 2 0 1 2 8
M TOR 3 1 2 3 4
M TOR 4 1 2 3 14
M TOR 5 1 2 3 15
M TOR 6 1 2 5 4
M TOR 7 1 2 8 6
M TOR 8 1 2 8 7
M TOR 9 1 2 8 18
M TOR 10 2 1 0 9
M TOR 11 2 1 0 10
M TOR 12 2 1 0 11
M TOR 13 2 3 4 5
M TOR 14 2 3 4 6
M TOR 15 2 3 4 16
M TOR 16 2 5 4 6
M TOR 17 2 5 4 16
M TOR 18 2 8 6 4
M TOR 19 2 8 6 7
M TOR 20 2 8 6 17
M TOR 21 3 2 1 12
M TOR 22 3 2 1 13
M TOR 23 3 2 8 6
M TOR 24 3 2 8 7
M TOR 25 3 2 8 18
M TOR 26 3 4 6 7
M TOR 27 3 4 6 8
M TOR 28 3 4 6 17
M TOR 29 4 3 2 8
M TOR 30 4 5 2 8
M TOR 31 4 6 7 8
M TOR 32 4 6 8 18
M TOR 33 5 2 1 12
M TOR 34 5 2 1 13
M TOR 35 5 2 3 14
M TOR 36 5 2 3 15
M TOR 37 5 2 8 6
M TOR 38 5 2 8 7
M TOR 39 5 2 8 18
M TOR 40 5 4 3 14
M TOR 41 5 4 3 15
M TOR 42 5 4 6 7
M TOR 43 5 4 6 8
M TOR 44 5 4 6 17
M TOR 45 6 4 3 14
M TOR 46 6 4 3 15
M TOR 47 6 7 8 18
M TOR 48 7 6 4 16
M TOR 49 7 8 6 17
M TOR 50 8 2 1 12
M TOR 51 8 2 1 13
M TOR 52 8 2 3 14
M TOR 53 8 2 3 15
M TOR 54 8 6 4 16
M  END
$$$$
