gdb 1166	4.180789	0.9568315	0.8744578	3.4672	76.3	-0.23847	-0.01021	0.22826	1361.0598	0.155111	-422.530719	-422.521775	-422.520831	-422.565271	32.582
 OpenBabel02181911403D

 19 20  0  0  1  0  0  0  0  0999 V2000
    0.3534   -3.8718   -2.9861 C   0  0  0  0  0  0  0  0  0  0  0  0
    0.0047   -2.4072   -2.8355 C   0  0  0  0  0  0  0  0  0  0  0  0
   -1.1207   -1.9820   -2.9596 O   0  0  0  0  0  0  0  0  0  0  0  0
    1.1551   -1.4708   -2.4591 C   0  0  0  0  0  0  0  0  0  0  0  0
    1.2417   -1.3176   -0.9417 C   0  0  1  0  0  0  0  0  0  0  0  0
    1.6467   -2.5694   -0.2999 O   0  0  0  0  0  0  0  0  0  0  0  0
    2.8734   -1.9666    0.1246 C   0  0  2  0  0  0  0  0  0  0  0  0
    2.6109   -0.8384    1.0691 C   0  0  0  0  0  0  0  0  0  0  0  0
    2.4950   -0.6128   -0.4255 C   0  0  2  0  0  0  0  0  0  0  0  0
    1.0522   -4.0071   -3.8205 H   0  0  0  0  0  0  0  0  0  0  0  0
    0.8691   -4.2090   -2.0805 H   0  0  0  0  0  0  0  0  0  0  0  0
   -0.5476   -4.4605   -3.1621 H   0  0  0  0  0  0  0  0  0  0  0  0
    2.1146   -1.8385   -2.8367 H   0  0  0  0  0  0  0  0  0  0  0  0
    0.9468   -0.4870   -2.8922 H   0  0  0  0  0  0  0  0  0  0  0  0
    0.2818   -0.9655   -0.5453 H   0  0  0  0  0  0  0  0  0  0  0  0
    3.7768   -2.5631    0.0775 H   0  0  0  0  0  0  0  0  0  0  0  0
    1.7243   -0.8620    1.6967 H   0  0  0  0  0  0  0  0  0  0  0  0
    3.4899   -0.3928    1.5250 H   0  0  0  0  0  0  0  0  0  0  0  0
    3.0721    0.1230   -0.9690 H   0  0  0  0  0  0  0  0  0  0  0  0
  1  2  1  0  0  0  0
  1 11  1  0  0  0  0
  2  4  1  0  0  0  0
  3  2  2  0  0  0  0
  4  5  1  0  0  0  0
  5 15  1  1  0  0  0
  5  9  1  0  0  0  0
  5  6  1  0  0  0  0
  6  7  1  0  0  0  0
  7 16  1  6  0  0  0
  7  8  1  0  0  0  0
  8 18  1  0  0  0  0
  8 17  1  0  0  0  0
  9 19  1  6  0  0  0
  9  7  1  0  0  0  0
  9  8  1  0  0  0  0
 10  1  1  0  0  0  0
 12  1  1  0  0  0  0
 13  4  1  0  0  0  0
 14  4  1  0  0  0  0
M TOR 0 0 1 3 4
M TOR 1 0 1 3 12
M TOR 2 0 1 3 13
M TOR 3 1 3 4 5
M TOR 4 1 3 4 8
M TOR 5 1 3 4 14
M TOR 6 2 1 0 9
M TOR 7 2 1 0 10
M TOR 8 2 1 0 11
M TOR 9 2 1 3 4
M TOR 10 2 1 3 12
M TOR 11 2 1 3 13
M TOR 12 3 1 0 9
M TOR 13 3 1 0 10
M TOR 14 3 1 0 11
M TOR 15 3 4 5 6
M TOR 16 3 4 8 6
M TOR 17 3 4 8 7
M TOR 18 3 4 8 18
M TOR 19 4 5 6 7
M TOR 20 4 5 6 8
M TOR 21 4 5 6 15
M TOR 22 4 8 6 7
M TOR 23 4 8 6 15
M TOR 24 4 8 7 16
M TOR 25 4 8 7 17
M TOR 26 5 4 3 12
M TOR 27 5 4 3 13
M TOR 28 5 4 8 7
M TOR 29 5 4 8 18
M TOR 30 5 6 7 8
M TOR 31 5 6 7 16
M TOR 32 5 6 7 17
M TOR 33 5 6 8 18
M TOR 34 6 5 4 14
M TOR 35 6 7 8 18
M TOR 36 6 8 4 14
M TOR 37 6 8 7 16
M TOR 38 6 8 7 17
M TOR 39 7 8 4 14
M TOR 40 7 8 6 15
M TOR 41 8 4 3 12
M TOR 42 8 4 3 13
M  END
$$$$
