
     RDKit          3D

 19 19  0  0  0  0  0  0  0  0999 V2000
   -1.2126    1.7737   -1.4851 C   0  0  0  0  0  0  0  0  0  0  0  0
   -1.1837    1.0943   -0.1128 C   0  0  0  0  0  0  0  0  0  0  0  0
   -2.1803   -0.0908    0.1075 C   0  0  0  0  0  0  0  0  0  0  0  0
   -1.0154   -1.1204    0.1635 C   0  0  0  0  0  0  0  0  0  0  0  0
   -0.8330   -1.9829    1.4140 C   0  0  0  0  0  0  0  0  0  0  0  0
   -0.8706   -1.9531   -1.0954 C   0  0  0  0  0  0  0  0  0  0  0  0
   -1.5406   -1.8307   -2.0897 O   0  0  0  0  0  0  0  0  0  0  0  0
   -0.0334    0.1011    0.0892 C   0  0  0  0  0  0  0  0  0  0  0  0
    1.1505    0.1929    0.2196 O   0  0  0  0  0  0  0  0  0  0  0  0
   -1.2213    1.0328   -2.2898 H   0  0  0  0  0  0  0  0  0  0  0  0
   -2.1116    2.3897   -1.5841 H   0  0  0  0  0  0  0  0  0  0  0  0
   -0.3381    2.4178   -1.6155 H   0  0  0  0  0  0  0  0  0  0  0  0
   -1.1985    1.8513    0.6792 H   0  0  0  0  0  0  0  0  0  0  0  0
   -2.7419   -0.0289    1.0411 H   0  0  0  0  0  0  0  0  0  0  0  0
   -2.8634   -0.2649   -0.7250 H   0  0  0  0  0  0  0  0  0  0  0  0
   -1.6400   -2.7169    1.5076 H   0  0  0  0  0  0  0  0  0  0  0  0
    0.1201   -2.5198    1.3761 H   0  0  0  0  0  0  0  0  0  0  0  0
   -0.8300   -1.3641    2.3157 H   0  0  0  0  0  0  0  0  0  0  0  0
   -0.0477   -2.6999   -1.0452 H   0  0  0  0  0  0  0  0  0  0  0  0
  1  2  1  0
  2  3  1  0
  3  4  1  0
  4  5  1  0
  4  6  1  0
  6  7  2  0
  4  8  1  0
  8  9  2  0
  8  2  1  0
  1 10  1  0
  1 11  1  0
  1 12  1  0
  2 13  1  0
  3 14  1  0
  3 15  1  0
  5 16  1  0
  5 17  1  0
  5 18  1  0
  6 19  1  0
M  END
$$$$
