
     RDKit          3D

 19 20  0  0  0  0  0  0  0  0999 V2000
    1.2957    0.6227   -0.1897 C   0  0  0  0  0  0  0  0  0  0  0  0
   -0.1087    0.1170   -0.0673 C   0  0  0  0  0  0  0  0  0  0  0  0
   -1.2063    0.8729    0.0358 C   0  0  0  0  0  0  0  0  0  0  0  0
   -2.5656    0.2037    0.1244 C   0  0  0  0  0  0  0  0  0  0  0  0
   -3.3594    0.5027   -1.0188 O   0  0  0  0  0  0  0  0  0  0  0  0
   -2.3632   -1.3156    0.2288 C   0  0  0  0  0  0  0  0  0  0  0  0
   -1.2400   -1.7192    1.2039 C   0  0  0  0  0  0  0  0  0  0  0  0
   -0.3671   -1.3813   -0.0303 C   0  0  0  0  0  0  0  0  0  0  0  0
   -1.5081   -1.6894   -0.8963 O   0  0  0  0  0  0  0  0  0  0  0  0
    1.9255    0.2546    0.6308 H   0  0  0  0  0  0  0  0  0  0  0  0
    1.7616    0.2720   -1.1196 H   0  0  0  0  0  0  0  0  0  0  0  0
    1.3310    1.7152   -0.1791 H   0  0  0  0  0  0  0  0  0  0  0  0
   -1.1751    1.9582   -0.0017 H   0  0  0  0  0  0  0  0  0  0  0  0
   -3.1359    0.5750    0.9844 H   0  0  0  0  0  0  0  0  0  0  0  0
   -2.8841    0.1091   -1.7626 H   0  0  0  0  0  0  0  0  0  0  0  0
   -3.3135   -1.8548    0.2276 H   0  0  0  0  0  0  0  0  0  0  0  0
   -1.0904   -1.1347    2.1130 H   0  0  0  0  0  0  0  0  0  0  0  0
   -1.2632   -2.7884    1.4237 H   0  0  0  0  0  0  0  0  0  0  0  0
    0.5062   -1.9932   -0.2678 H   0  0  0  0  0  0  0  0  0  0  0  0
  1  2  1  0
  2  3  2  0
  3  4  1  0
  4  5  1  0
  4  6  1  0
  6  7  1  0
  7  8  1  0
  8  9  1  0
  8  2  1  0
  9  6  1  0
  1 10  1  0
  1 11  1  0
  1 12  1  0
  3 13  1  0
  4 14  1  0
  5 15  1  0
  6 16  1  0
  7 17  1  0
  7 18  1  0
  8 19  1  0
M  END
$$$$
