gdb 2544	2.776789	1.4145739	1.1677858	2.7088	77.69	-0.24162	0.00918	0.2508	1128.5543	0.15664	-422.561233	-422.552801	-422.551857	-422.593901	32.405
 OpenBabel02181911413D

 19 20  0  0  1  0  0  0  0  0999 V2000
    1.3357    0.5529    0.2668 C   0  0  0  0  0  0  0  0  0  0  0  0
   -0.0562    0.0060    0.2474 C   0  0  0  0  0  0  0  0  0  0  0  0
   -0.4218   -1.2719    0.4006 C   0  0  0  0  0  0  0  0  0  0  0  0
   -1.9090   -1.4755    0.3334 C   0  0  1  0  0  0  0  0  0  0  0  0
   -2.3353   -2.4842   -0.5482 O   0  0  0  0  0  0  0  0  0  0  0  0
   -2.6570   -1.5036    1.6797 C   0  0  0  0  0  0  0  0  0  0  0  0
   -2.9029   -0.0831    1.6078 O   0  0  0  0  0  0  0  0  0  0  0  0
   -2.4525   -0.0137    0.2338 C   0  0  1  0  0  0  0  0  0  0  0  0
   -1.2550    0.9191    0.0487 C   0  0  0  0  0  0  0  0  0  0  0  0
    1.4622    1.2721    1.0856 H   0  0  0  0  0  0  0  0  0  0  0  0
    2.0826   -0.2361    0.3871 H   0  0  0  0  0  0  0  0  0  0  0  0
    1.5555    1.0982   -0.6600 H   0  0  0  0  0  0  0  0  0  0  0  0
    0.2601   -2.1002    0.5676 H   0  0  0  0  0  0  0  0  0  0  0  0
   -1.7668   -2.4567   -1.3254 H   0  0  0  0  0  0  0  0  0  0  0  0
   -3.5847   -2.0881    1.6269 H   0  0  0  0  0  0  0  0  0  0  0  0
   -2.0886   -1.7827    2.5735 H   0  0  0  0  0  0  0  0  0  0  0  0
   -3.2854    0.1558   -0.4571 H   0  0  0  0  0  0  0  0  0  0  0  0
   -1.2326    1.4031   -0.9376 H   0  0  0  0  0  0  0  0  0  0  0  0
   -1.2885    1.7221    0.7950 H   0  0  0  0  0  0  0  0  0  0  0  0
  1 11  1  0  0  0  0
  1 10  1  0  0  0  0
  2  1  1  0  0  0  0
  2  3  2  0  0  0  0
  3 13  1  0  0  0  0
  4  5  1  6  0  0  0
  4  3  1  0  0  0  0
  4  6  1  0  0  0  0
  6 16  1  0  0  0  0
  7  6  1  0  0  0  0
  8 17  1  6  0  0  0
  8  4  1  0  0  0  0
  8  7  1  0  0  0  0
  9  8  1  0  0  0  0
  9  2  1  0  0  0  0
  9 19  1  0  0  0  0
 12  1  1  0  0  0  0
 14  5  1  0  0  0  0
 15  6  1  0  0  0  0
 18  9  1  0  0  0  0
M TOR 0 0 1 2 3
M TOR 1 0 1 2 12
M TOR 2 0 1 8 7
M TOR 3 0 1 8 17
M TOR 4 0 1 8 18
M TOR 5 1 2 3 4
M TOR 6 1 2 3 5
M TOR 7 1 2 3 7
M TOR 8 1 8 7 3
M TOR 9 1 8 7 6
M TOR 10 1 8 7 16
M TOR 11 2 1 0 9
M TOR 12 2 1 0 10
M TOR 13 2 1 0 11
M TOR 14 2 1 8 7
M TOR 15 2 1 8 17
M TOR 16 2 1 8 18
M TOR 17 2 3 4 13
M TOR 18 2 3 5 6
M TOR 19 2 3 5 14
M TOR 20 2 3 5 15
M TOR 21 2 3 7 6
M TOR 22 2 3 7 8
M TOR 23 2 3 7 16
M TOR 24 3 2 1 8
M TOR 25 3 5 6 7
M TOR 26 3 7 8 17
M TOR 27 3 7 8 18
M TOR 28 4 3 2 12
M TOR 29 4 3 5 6
M TOR 30 4 3 5 14
M TOR 31 4 3 5 15
M TOR 32 4 3 7 6
M TOR 33 4 3 7 8
M TOR 34 4 3 7 16
M TOR 35 5 3 2 12
M TOR 36 5 3 4 13
M TOR 37 5 3 7 8
M TOR 38 5 3 7 16
M TOR 39 5 6 7 8
M TOR 40 5 6 7 16
M TOR 41 6 7 8 17
M TOR 42 6 7 8 18
M TOR 43 7 3 2 12
M TOR 44 7 3 4 13
M TOR 45 7 3 5 14
M TOR 46 7 3 5 15
M TOR 47 7 6 5 14
M TOR 48 7 6 5 15
M TOR 49 8 1 0 9
M TOR 50 8 1 0 10
M TOR 51 8 1 0 11
M TOR 52 8 1 2 12
M  END
$$$$
