gdb 761	2.3765991	1.7098504	1.1674654	2.8146	75.22	-0.23799	-0.02753	0.21046	1089.6871	0.157867	-422.572094	-422.563976	-422.563031	-422.604895	31.006
 OpenBabel02181911403D

 19 20  0  0  1  0  0  0  0  0999 V2000
    1.1866    0.0230    0.2083 O   0  0  0  0  0  0  0  0  0  0  0  0
   -0.0037    0.0185    0.0014 C   0  0  0  0  0  0  0  0  0  0  0  0
   -0.8437    1.2822   -0.0705 C   0  0  0  0  0  0  0  0  0  0  0  0
   -1.8909    1.2430   -1.1997 C   0  0  0  0  0  0  0  0  0  0  0  0
   -2.7482   -0.0270   -1.1232 C   0  0  0  0  0  0  0  0  0  0  0  0
   -1.8711   -1.2850   -1.2097 C   0  0  0  0  0  0  0  0  0  0  0  0
   -0.7961   -1.2787   -0.1427 C   0  0  1  0  0  0  0  0  0  0  0  0
   -0.2036   -2.5048    0.3912 C   0  0  0  0  0  0  0  0  0  0  0  0
   -1.1867   -1.7874    1.1523 O   0  0  0  0  0  0  0  0  0  0  0  0
   -1.3665    1.3533    0.8949 H   0  0  0  0  0  0  0  0  0  0  0  0
   -0.1741    2.1423   -0.1456 H   0  0  0  0  0  0  0  0  0  0  0  0
   -2.5205    2.1368   -1.1423 H   0  0  0  0  0  0  0  0  0  0  0  0
   -1.3814    1.2825   -2.1716 H   0  0  0  0  0  0  0  0  0  0  0  0
   -3.3043   -0.0403   -0.1773 H   0  0  0  0  0  0  0  0  0  0  0  0
   -3.4901   -0.0338   -1.9283 H   0  0  0  0  0  0  0  0  0  0  0  0
   -2.4697   -2.1951   -1.1025 H   0  0  0  0  0  0  0  0  0  0  0  0
   -1.3873   -1.3264   -2.1956 H   0  0  0  0  0  0  0  0  0  0  0  0
   -0.5358   -3.4653    0.0002 H   0  0  0  0  0  0  0  0  0  0  0  0
    0.8081   -2.4700    0.7867 H   0  0  0  0  0  0  0  0  0  0  0  0
  2  1  2  0  0  0  0
  3  2  1  0  0  0  0
  3 10  1  0  0  0  0
  4 12  1  0  0  0  0
  4  5  1  0  0  0  0
  4  3  1  0  0  0  0
  5 14  1  0  0  0  0
  6  5  1  0  0  0  0
  6 16  1  0  0  0  0
  6  7  1  0  0  0  0
  7  2  1  1  0  0  0
  7  8  1  0  0  0  0
  7  9  1  0  0  0  0
  8 19  1  0  0  0  0
  8  9  1  0  0  0  0
 11  3  1  0  0  0  0
 13  4  1  0  0  0  0
 15  5  1  0  0  0  0
 17  6  1  0  0  0  0
 18  8  1  0  0  0  0
M TOR 0 0 1 2 3
M TOR 1 0 1 2 9
M TOR 2 0 1 2 10
M TOR 3 0 1 6 5
M TOR 4 0 1 6 7
M TOR 5 0 1 6 8
M TOR 6 1 2 3 4
M TOR 7 1 2 3 11
M TOR 8 1 2 3 12
M TOR 9 1 6 5 4
M TOR 10 1 6 5 15
M TOR 11 1 6 5 16
M TOR 12 1 6 7 8
M TOR 13 1 6 7 17
M TOR 14 1 6 7 18
M TOR 15 2 1 6 5
M TOR 16 2 1 6 7
M TOR 17 2 1 6 8
M TOR 18 2 3 4 5
M TOR 19 2 3 4 13
M TOR 20 2 3 4 14
M TOR 21 3 2 1 6
M TOR 22 3 4 5 6
M TOR 23 3 4 5 15
M TOR 24 3 4 5 16
M TOR 25 4 3 2 9
M TOR 26 4 3 2 10
M TOR 27 4 5 6 7
M TOR 28 4 5 6 8
M TOR 29 5 4 3 11
M TOR 30 5 4 3 12
M TOR 31 5 6 7 8
M TOR 32 5 6 7 17
M TOR 33 5 6 7 18
M TOR 34 6 1 2 9
M TOR 35 6 1 2 10
M TOR 36 6 5 4 13
M TOR 37 6 5 4 14
M TOR 38 6 8 7 17
M TOR 39 6 8 7 18
M TOR 40 7 6 5 15
M TOR 41 7 6 5 16
M TOR 42 8 6 5 15
M TOR 43 8 6 5 16
M  END
$$$$
