
     RDKit          3D

 19 21  0  0  0  0  0  0  0  0999 V2000
   -0.7036    0.4281    0.6800 O   0  0  0  0  0  0  0  0  0  0  0  0
   -2.0909    0.2488    0.4711 C   0  0  0  0  0  0  0  0  0  0  0  0
   -2.9852    1.1283    1.4187 C   0  0  0  0  0  0  0  0  0  0  0  0
   -4.3206    1.4198    0.6737 C   0  0  0  0  0  0  0  0  0  0  0  0
   -3.9015    1.3123   -0.7721 C   0  0  0  0  0  0  0  0  0  0  0  0
   -4.4303    0.6844   -2.0770 C   0  0  0  0  0  0  0  0  0  0  0  0
   -3.0507   -0.0677   -2.2061 C   0  0  0  0  0  0  0  0  0  0  0  0
   -2.6185    0.6154   -0.8949 C   0  0  0  0  0  0  0  0  0  0  0  0
   -2.7083    2.0378   -1.0962 O   0  0  0  0  0  0  0  0  0  0  0  0
   -0.4970    1.3299    0.4075 H   0  0  0  0  0  0  0  0  0  0  0  0
   -2.2738   -0.8168    0.6525 H   0  0  0  0  0  0  0  0  0  0  0  0
   -3.1411    0.6402    2.3834 H   0  0  0  0  0  0  0  0  0  0  0  0
   -2.4504    2.0622    1.6103 H   0  0  0  0  0  0  0  0  0  0  0  0
   -5.0719    0.6508    0.8879 H   0  0  0  0  0  0  0  0  0  0  0  0
   -4.7540    2.3858    0.9518 H   0  0  0  0  0  0  0  0  0  0  0  0
   -5.2645   -0.0021   -1.9146 H   0  0  0  0  0  0  0  0  0  0  0  0
   -4.6907    1.3915   -2.8672 H   0  0  0  0  0  0  0  0  0  0  0  0
   -3.1571   -1.1505   -2.1080 H   0  0  0  0  0  0  0  0  0  0  0  0
   -2.4367    0.1583   -3.0801 H   0  0  0  0  0  0  0  0  0  0  0  0
  1  2  1  0
  2  3  1  0
  3  4  1  0
  4  5  1  0
  5  6  1  0
  6  7  1  0
  7  8  1  0
  8  9  1  0
  8  2  1  0
  8  5  1  0
  9  5  1  0
  1 10  1  0
  2 11  1  0
  3 12  1  0
  3 13  1  0
  4 14  1  0
  4 15  1  0
  6 16  1  0
  6 17  1  0
  7 18  1  0
  7 19  1  0
M  END
$$$$
