
     RDKit          3D

 19 20  0  0  0  0  0  0  0  0999 V2000
    1.3974    0.9326    0.3035 C   0  0  0  0  0  0  0  0  0  0  0  0
    0.0464    0.3130    0.2145 C   0  0  0  0  0  0  0  0  0  0  0  0
   -1.1786    0.8420    0.0858 C   0  0  0  0  0  0  0  0  0  0  0  0
   -2.0540   -0.3969    0.0088 C   0  0  0  0  0  0  0  0  0  0  0  0
   -1.4769   -1.2654    1.0487 O   0  0  0  0  0  0  0  0  0  0  0  0
   -0.2655   -1.1908    0.1987 C   0  0  0  0  0  0  0  0  0  0  0  0
    0.7750   -2.2336    0.4821 C   0  0  0  0  0  0  0  0  0  0  0  0
   -1.2646   -1.2667   -1.0323 C   0  0  0  0  0  0  0  0  0  0  0  0
   -1.7798   -2.5299   -1.2975 O   0  0  0  0  0  0  0  0  0  0  0  0
    1.9041    0.6602    1.2377 H   0  0  0  0  0  0  0  0  0  0  0  0
    2.0484    0.5964   -0.5136 H   0  0  0  0  0  0  0  0  0  0  0  0
    1.3368    2.0233    0.2567 H   0  0  0  0  0  0  0  0  0  0  0  0
   -1.4893    1.8737    0.0055 H   0  0  0  0  0  0  0  0  0  0  0  0
   -3.1407   -0.3263    0.0307 H   0  0  0  0  0  0  0  0  0  0  0  0
    1.0591   -2.2184    1.5389 H   0  0  0  0  0  0  0  0  0  0  0  0
    0.3939   -3.2291    0.2377 H   0  0  0  0  0  0  0  0  0  0  0  0
    1.6725   -2.0562   -0.1188 H   0  0  0  0  0  0  0  0  0  0  0  0
   -0.9654   -0.8085   -1.9772 H   0  0  0  0  0  0  0  0  0  0  0  0
   -2.0574   -2.8819   -0.4396 H   0  0  0  0  0  0  0  0  0  0  0  0
  1  2  1  0
  2  3  2  0
  3  4  1  0
  4  5  1  0
  5  6  1  0
  6  7  1  0
  6  8  1  0
  8  9  1  0
  6  2  1  0
  8  4  1  0
  1 10  1  0
  1 11  1  0
  1 12  1  0
  3 13  1  0
  4 14  1  0
  7 15  1  0
  7 16  1  0
  7 17  1  0
  8 18  1  0
  9 19  1  0
M  END
$$$$
