gdb 1404	2.0081098	1.2917645	0.9677715	3.9574	79.94	-0.25447	-0.04856	0.20590999999999998	1287.4593	0.153443	-422.570881	-422.560909	-422.559965	-422.605686	35.447
 OpenBabel02181911403D

 19 19  0  0  1  0  0  0  0  0999 V2000
    2.7751   -0.3538   -1.7393 C   0  0  0  0  0  0  0  0  0  0  0  0
    1.7662   -0.0882   -0.6370 C   0  0  0  0  0  0  0  0  0  0  0  0
    1.3257   -1.3450    0.0959 C   0  0  0  0  0  0  0  0  0  0  0  0
    1.8759    1.1851    0.2014 C   0  0  1  0  0  0  0  0  0  0  0  0
    2.9465    2.1932   -0.0048 C   0  0  0  0  0  0  0  0  0  0  0  0
    3.3050    2.6226   -1.0764 O   0  0  0  0  0  0  0  0  0  0  0  0
    0.7857    1.0416   -0.8727 C   0  0  2  0  0  0  0  0  0  0  0  0
   -0.6338    0.9888   -0.4447 C   0  0  0  0  0  0  0  0  0  0  0  0
   -1.5437    1.4522   -1.0862 O   0  0  0  0  0  0  0  0  0  0  0  0
    3.6527   -0.8725   -1.3371 H   0  0  0  0  0  0  0  0  0  0  0  0
    2.3269   -1.0012   -2.5007 H   0  0  0  0  0  0  0  0  0  0  0  0
    3.1094    0.5676   -2.2162 H   0  0  0  0  0  0  0  0  0  0  0  0
    0.6555   -1.1407    0.9336 H   0  0  0  0  0  0  0  0  0  0  0  0
    0.8112   -2.0279   -0.5890 H   0  0  0  0  0  0  0  0  0  0  0  0
    2.2015   -1.8703    0.4912 H   0  0  0  0  0  0  0  0  0  0  0  0
    1.5534    1.0824    1.2341 H   0  0  0  0  0  0  0  0  0  0  0  0
    3.4260    2.5449    0.9347 H   0  0  0  0  0  0  0  0  0  0  0  0
    0.9569    1.6347   -1.7655 H   0  0  0  0  0  0  0  0  0  0  0  0
   -0.8199    0.4927    0.5342 H   0  0  0  0  0  0  0  0  0  0  0  0
  1 10  1  0  0  0  0
  1  2  1  0  0  0  0
  2  3  1  0  0  0  0
  2  4  1  0  0  0  0
  3 15  1  0  0  0  0
  3 13  1  0  0  0  0
  4 16  1  1  0  0  0
  5  4  1  0  0  0  0
  5 17  1  0  0  0  0
  6  5  2  0  0  0  0
  7 18  1  6  0  0  0
  7  2  1  0  0  0  0
  7  8  1  0  0  0  0
  7  4  1  0  0  0  0
  8 19  1  0  0  0  0
  9  8  2  0  0  0  0
 11  1  1  0  0  0  0
 12  1  1  0  0  0  0
 14  3  1  0  0  0  0
M TOR 0 0 1 2 12
M TOR 1 0 1 2 13
M TOR 2 0 1 2 14
M TOR 3 0 1 3 4
M TOR 4 0 1 3 6
M TOR 5 0 1 3 15
M TOR 6 0 1 6 7
M TOR 7 0 1 6 17
M TOR 8 1 3 4 5
M TOR 9 1 3 4 16
M TOR 10 1 3 6 7
M TOR 11 1 3 6 17
M TOR 12 1 6 3 4
M TOR 13 1 6 3 15
M TOR 14 1 6 7 8
M TOR 15 1 6 7 18
M TOR 16 2 1 0 9
M TOR 17 2 1 0 10
M TOR 18 2 1 0 11
M TOR 19 2 1 3 4
M TOR 20 2 1 3 6
M TOR 21 2 1 3 15
M TOR 22 2 1 6 7
M TOR 23 2 1 6 17
M TOR 24 3 1 0 9
M TOR 25 3 1 0 10
M TOR 26 3 1 0 11
M TOR 27 3 1 2 12
M TOR 28 3 1 2 13
M TOR 29 3 1 2 14
M TOR 30 3 6 7 8
M TOR 31 3 6 7 18
M TOR 32 4 3 6 7
M TOR 33 4 3 6 17
M TOR 34 5 4 3 6
M TOR 35 5 4 3 15
M TOR 36 6 1 0 9
M TOR 37 6 1 0 10
M TOR 38 6 1 0 11
M TOR 39 6 1 2 12
M TOR 40 6 1 2 13
M TOR 41 6 1 2 14
M TOR 42 6 3 4 16
M TOR 43 7 6 3 15
M TOR 44 8 7 6 17
M  END
$$$$
