
     RDKit          3D

 19 19  0  0  0  0  0  0  0  0999 V2000
    2.2481   -5.8127   -0.4037 C   0  0  0  0  0  0  0  0  0  0  0  0
    3.3968   -4.8054   -0.2465 C   0  0  0  0  0  0  0  0  0  0  0  0
    4.3866   -5.2744    0.6659 O   0  0  0  0  0  0  0  0  0  0  0  0
    2.8970   -3.4783    0.1277 C   0  0  0  0  0  0  0  0  0  0  0  0
    2.4680   -2.4082    0.4807 C   0  0  0  0  0  0  0  0  0  0  0  0
    1.9923   -1.1179    0.8975 C   0  0  0  0  0  0  0  0  0  0  0  0
    0.7927   -1.0728    1.6956 O   0  0  0  0  0  0  0  0  0  0  0  0
    0.7356   -0.5356    0.3769 C   0  0  0  0  0  0  0  0  0  0  0  0
    0.5354    0.9514    0.2494 C   0  0  0  0  0  0  0  0  0  0  0  0
    1.6931   -5.9097    0.5349 H   0  0  0  0  0  0  0  0  0  0  0  0
    1.5488   -5.4892   -1.1801 H   0  0  0  0  0  0  0  0  0  0  0  0
    2.6583   -6.7891   -0.6739 H   0  0  0  0  0  0  0  0  0  0  0  0
    3.9266   -4.7251   -1.2037 H   0  0  0  0  0  0  0  0  0  0  0  0
    4.0101   -5.2200    1.5516 H   0  0  0  0  0  0  0  0  0  0  0  0
    2.7621   -0.4216    1.2301 H   0  0  0  0  0  0  0  0  0  0  0  0
    0.1705   -1.1535   -0.3223 H   0  0  0  0  0  0  0  0  0  0  0  0
    1.1620    1.4913    0.9642 H   0  0  0  0  0  0  0  0  0  0  0  0
    0.7838    1.2875   -0.7627 H   0  0  0  0  0  0  0  0  0  0  0  0
   -0.5098    1.2130    0.4447 H   0  0  0  0  0  0  0  0  0  0  0  0
  1  2  1  0
  2  3  1  0
  2  4  1  0
  4  5  3  0
  5  6  1  0
  6  7  1  0
  7  8  1  0
  8  9  1  0
  8  6  1  0
  1 10  1  0
  1 11  1  0
  1 12  1  0
  2 13  1  0
  3 14  1  0
  6 15  1  0
  8 16  1  0
  9 17  1  0
  9 18  1  0
  9 19  1  0
M  END
$$$$
