gdb 206	2.3824142	2.2980126	1.8154107	1.5716	72.28	-0.24811	0.07611	0.32422	866.1346	0.1613	-422.56964	-422.563274	-422.56233	-422.599999	26.858
 OpenBabel02181911403D

 19 21  0  0  1  0  0  0  0  0999 V2000
    1.4638    0.1409   -0.1489 C   0  0  0  0  0  0  0  0  0  0  0  0
    1.2171    1.6497    0.1562 C   0  0  2  0  0  0  0  0  0  0  0  0
    1.5127    2.1052    1.5908 C   0  0  0  0  0  0  0  0  0  0  0  0
    0.7447    1.2747    2.6467 C   0  0  0  0  0  0  0  0  0  0  0  0
   -0.5916    0.7639    2.0768 C   0  0  2  0  0  0  0  0  0  0  0  0
   -0.4239   -0.4623    1.3688 O   0  0  0  0  0  0  0  0  0  0  0  0
   -0.0500   -0.1303    0.0386 C   0  0  1  0  0  0  0  0  0  0  0  0
   -0.3225    1.4021   -0.0199 C   0  0  1  0  0  0  0  0  0  0  0  0
   -1.0978    1.6876    1.1285 O   0  0  0  0  0  0  0  0  0  0  0  0
    1.7829   -0.0285   -1.1812 H   0  0  0  0  0  0  0  0  0  0  0  0
    2.1289   -0.4092    0.5212 H   0  0  0  0  0  0  0  0  0  0  0  0
    1.6632    2.3430   -0.5610 H   0  0  0  0  0  0  0  0  0  0  0  0
    2.5895    2.0744    1.7868 H   0  0  0  0  0  0  0  0  0  0  0  0
    1.2058    3.1528    1.6778 H   0  0  0  0  0  0  0  0  0  0  0  0
    1.3193    0.4059    2.9819 H   0  0  0  0  0  0  0  0  0  0  0  0
    0.5510    1.8917    3.5301 H   0  0  0  0  0  0  0  0  0  0  0  0
   -1.3475    0.6005    2.8487 H   0  0  0  0  0  0  0  0  0  0  0  0
   -0.5470   -0.8225   -0.6434 H   0  0  0  0  0  0  0  0  0  0  0  0
   -0.8046    1.8302   -0.8976 H   0  0  0  0  0  0  0  0  0  0  0  0
  1  7  1  0  0  0  0
  1  2  1  0  0  0  0
  1 11  1  0  0  0  0
  2 12  1  6  0  0  0
  2  3  1  0  0  0  0
  3 14  1  0  0  0  0
  3 13  1  0  0  0  0
  3  4  1  0  0  0  0
  4 15  1  0  0  0  0
  4 16  1  0  0  0  0
  5  4  1  0  0  0  0
  5 17  1  1  0  0  0
  6  5  1  0  0  0  0
  7 18  1  6  0  0  0
  7  6  1  0  0  0  0
  8 19  1  6  0  0  0
  8  7  1  0  0  0  0
  8  2  1  0  0  0  0
  8  9  1  0  0  0  0
  9  5  1  0  0  0  0
 10  1  1  0  0  0  0
M TOR 0 0 1 2 3
M TOR 1 0 1 2 12
M TOR 2 0 1 2 13
M TOR 3 0 1 7 6
M TOR 4 0 1 7 8
M TOR 5 0 1 7 18
M TOR 6 0 6 5 4
M TOR 7 0 6 7 8
M TOR 8 0 6 7 18
M TOR 9 1 0 6 5
M TOR 10 1 0 6 17
M TOR 11 1 2 3 4
M TOR 12 1 2 3 14
M TOR 13 1 2 3 15
M TOR 14 1 7 6 5
M TOR 15 1 7 6 17
M TOR 16 1 7 8 4
M TOR 17 2 1 0 6
M TOR 18 2 1 0 9
M TOR 19 2 1 0 10
M TOR 20 2 1 7 6
M TOR 21 2 1 7 8
M TOR 22 2 1 7 18
M TOR 23 2 3 4 5
M TOR 24 2 3 4 8
M TOR 25 2 3 4 16
M TOR 26 3 2 1 7
M TOR 27 3 2 1 11
M TOR 28 3 4 5 6
M TOR 29 3 4 8 7
M TOR 30 4 3 2 12
M TOR 31 4 3 2 13
M TOR 32 4 5 6 7
M TOR 33 4 5 6 17
M TOR 34 4 8 7 6
M TOR 35 4 8 7 18
M TOR 36 5 4 3 14
M TOR 37 5 4 3 15
M TOR 38 5 4 8 7
M TOR 39 5 6 0 9
M TOR 40 5 6 0 10
M TOR 41 5 6 7 8
M TOR 42 5 6 7 18
M TOR 43 6 0 1 11
M TOR 44 6 5 4 8
M TOR 45 6 5 4 16
M TOR 46 6 7 1 11
M TOR 47 7 1 0 9
M TOR 48 7 1 0 10
M TOR 49 7 1 2 12
M TOR 50 7 1 2 13
M TOR 51 7 6 0 9
M TOR 52 7 6 0 10
M TOR 53 7 8 4 16
M TOR 54 8 4 3 14
M TOR 55 8 4 3 15
M TOR 56 8 7 1 11
M TOR 57 8 7 6 17
M  END
$$$$
