gdb 386	3.2223535	1.432382	1.3730491	3.0625	74.11	-0.24259	0.07047	0.31306	1023.9297	0.158324	-422.531834	-422.524358	-422.523414	-422.56387	29.227
 OpenBabel02181911403D

 19 21  0  0  1  0  0  0  0  0999 V2000
    0.5964    0.8695   -0.8101 C   0  0  0  0  0  0  0  0  0  0  0  0
    0.0402   -0.1106    0.0716 O   0  0  0  0  0  0  0  0  0  0  0  0
    1.4425    0.1802    0.1642 C   0  0  2  0  0  0  0  0  0  0  0  0
    1.9261    0.8037    1.4699 C   0  0  0  0  0  0  0  0  0  0  0  0
    2.5294   -0.3742    2.2482 C   0  0  1  0  0  0  0  0  0  0  0  0
    1.5288   -1.4031    2.8185 C   0  0  0  0  0  0  0  0  0  0  0  0
    1.8446   -2.3620    1.7864 O   0  0  0  0  0  0  0  0  0  0  0  0
    2.8325   -1.4887    1.1997 C   0  0  1  0  0  0  0  0  0  0  0  0
    2.4073   -0.9512   -0.1695 C   0  0  0  0  0  0  0  0  0  0  0  0
    0.6362    0.5835   -1.8609 H   0  0  0  0  0  0  0  0  0  0  0  0
    0.2844    1.8976   -0.6261 H   0  0  0  0  0  0  0  0  0  0  0  0
    2.7011    1.5509    1.2589 H   0  0  0  0  0  0  0  0  0  0  0  0
    1.1101    1.3058    1.9969 H   0  0  0  0  0  0  0  0  0  0  0  0
    3.3346   -0.0853    2.9237 H   0  0  0  0  0  0  0  0  0  0  0  0
    1.7724   -1.7875    3.8167 H   0  0  0  0  0  0  0  0  0  0  0  0
    0.4735   -1.1064    2.7923 H   0  0  0  0  0  0  0  0  0  0  0  0
    3.8253   -1.9512    1.2003 H   0  0  0  0  0  0  0  0  0  0  0  0
    3.2823   -0.5563   -0.7016 H   0  0  0  0  0  0  0  0  0  0  0  0
    1.9400   -1.7213   -0.7874 H   0  0  0  0  0  0  0  0  0  0  0  0
  1 11  1  0  0  0  0
  1  2  1  0  0  0  0
  1  3  1  0  0  0  0
  3  2  1  1  0  0  0
  3  4  1  0  0  0  0
  4 13  1  0  0  0  0
  4  5  1  0  0  0  0
  5  6  1  0  0  0  0
  5 14  1  1  0  0  0
  6 15  1  0  0  0  0
  7  6  1  0  0  0  0
  8 17  1  1  0  0  0
  8  7  1  0  0  0  0
  8  5  1  0  0  0  0
  9  3  1  0  0  0  0
  9  8  1  0  0  0  0
 10  1  1  0  0  0  0
 12  4  1  0  0  0  0
 16  6  1  0  0  0  0
 18  9  1  0  0  0  0
 19  9  1  0  0  0  0
M TOR 0 0 1 2 3
M TOR 1 0 1 2 8
M TOR 2 0 2 3 4
M TOR 3 0 2 3 11
M TOR 4 0 2 3 12
M TOR 5 0 2 8 7
M TOR 6 0 2 8 17
M TOR 7 0 2 8 18
M TOR 8 1 2 0 9
M TOR 9 1 2 0 10
M TOR 10 1 2 3 4
M TOR 11 1 2 3 11
M TOR 12 1 2 3 12
M TOR 13 1 2 8 7
M TOR 14 1 2 8 17
M TOR 15 1 2 8 18
M TOR 16 2 3 4 5
M TOR 17 2 3 4 7
M TOR 18 2 3 4 13
M TOR 19 2 8 7 4
M TOR 20 2 8 7 6
M TOR 21 2 8 7 16
M TOR 22 3 2 0 9
M TOR 23 3 2 0 10
M TOR 24 3 2 8 7
M TOR 25 3 2 8 17
M TOR 26 3 2 8 18
M TOR 27 3 4 5 6
M TOR 28 3 4 5 14
M TOR 29 3 4 5 15
M TOR 30 3 4 7 6
M TOR 31 3 4 7 8
M TOR 32 3 4 7 16
M TOR 33 4 3 2 8
M TOR 34 4 5 6 7
M TOR 35 4 7 8 17
M TOR 36 4 7 8 18
M TOR 37 5 4 3 11
M TOR 38 5 4 3 12
M TOR 39 5 4 7 8
M TOR 40 5 4 7 16
M TOR 41 5 6 7 8
M TOR 42 5 6 7 16
M TOR 43 6 5 4 13
M TOR 44 6 7 4 13
M TOR 45 6 7 8 17
M TOR 46 6 7 8 18
M TOR 47 7 4 3 11
M TOR 48 7 4 3 12
M TOR 49 7 4 5 14
M TOR 50 7 4 5 15
M TOR 51 7 6 5 14
M TOR 52 7 6 5 15
M TOR 53 8 2 0 9
M TOR 54 8 2 0 10
M TOR 55 8 2 3 11
M TOR 56 8 2 3 12
M TOR 57 8 7 4 13
M  END
$$$$
