
     RDKit          3D

 19 18  0  0  0  0  0  0  0  0999 V2000
   -1.7127   -3.6272    0.9463 C   0  0  0  0  0  0  0  0  0  0  0  0
   -2.4740   -2.8419   -0.1352 C   0  0  0  0  0  0  0  0  0  0  0  0
   -3.4275   -1.8060    0.4844 C   0  0  0  0  0  0  0  0  0  0  0  0
   -1.5042   -2.1736   -1.1056 C   0  0  0  0  0  0  0  0  0  0  0  0
   -1.4722   -2.4361   -2.2898 O   0  0  0  0  0  0  0  0  0  0  0  0
   -0.5991   -1.1862   -0.5394 C   0  0  0  0  0  0  0  0  0  0  0  0
    0.1558   -0.3594   -0.0842 C   0  0  0  0  0  0  0  0  0  0  0  0
    1.1196    0.6248    0.4041 C   0  0  0  0  0  0  0  0  0  0  0  0
    1.7096    1.4042   -0.6204 O   0  0  0  0  0  0  0  0  0  0  0  0
   -1.0968   -2.9597    1.5572 H   0  0  0  0  0  0  0  0  0  0  0  0
   -2.4205   -4.1344    1.6092 H   0  0  0  0  0  0  0  0  0  0  0  0
   -1.0590   -4.3855    0.5047 H   0  0  0  0  0  0  0  0  0  0  0  0
   -3.0482   -3.5394   -0.7538 H   0  0  0  0  0  0  0  0  0  0  0  0
   -2.8769   -1.0699    1.0785 H   0  0  0  0  0  0  0  0  0  0  0  0
   -3.9906   -1.2699   -0.2854 H   0  0  0  0  0  0  0  0  0  0  0  0
   -4.1446   -2.3047    1.1438 H   0  0  0  0  0  0  0  0  0  0  0  0
    0.6205    1.3334    1.0747 H   0  0  0  0  0  0  0  0  0  0  0  0
    1.8772    0.1000    1.0094 H   0  0  0  0  0  0  0  0  0  0  0  0
    2.0541    0.8016   -1.2883 H   0  0  0  0  0  0  0  0  0  0  0  0
  1  2  1  0
  2  3  1  0
  2  4  1  0
  4  5  2  0
  4  6  1  0
  6  7  3  0
  7  8  1  0
  8  9  1  0
  1 10  1  0
  1 11  1  0
  1 12  1  0
  2 13  1  0
  3 14  1  0
  3 15  1  0
  3 16  1  0
  8 17  1  0
  8 18  1  0
  9 19  1  0
M  END
$$$$
