gdb 5100	4.3639589	0.9932704	0.9380306	3.0131	76.48	-0.25041	0.05754	0.30795	1304.6504	0.155594	-422.495951	-422.487194	-422.48625	-422.529475	32.962
 OpenBabel02181911423D

 19 21  0  0  1  0  0  0  0  0999 V2000
    1.2683    0.8183   -0.2386 O   0  0  0  0  0  0  0  0  0  0  0  0
    0.3709   -0.1232    0.3317 C   0  0  0  0  0  0  0  0  0  0  0  0
   -0.7733    0.5188    1.0506 C   0  0  2  0  0  0  0  0  0  0  0  0
   -0.7379    1.3288    2.3711 C   0  0  0  0  0  0  0  0  0  0  0  0
   -2.1719    0.8085    2.6456 C   0  0  0  0  0  0  0  0  0  0  0  0
   -3.3306    1.4946    3.2984 C   0  0  0  0  0  0  0  0  0  0  0  0
   -2.6949    0.2847    3.9500 C   0  0  0  0  0  0  0  0  0  0  0  0
   -2.1479    0.0583    1.3289 C   0  0  1  0  0  0  0  0  0  0  0  0
   -1.8824    1.0189    0.2936 O   0  0  0  0  0  0  0  0  0  0  0  0
    1.6570    1.3298    0.4783 H   0  0  0  0  0  0  0  0  0  0  0  0
   -0.0196   -0.7142   -0.5017 H   0  0  0  0  0  0  0  0  0  0  0  0
    0.8927   -0.8082    1.0193 H   0  0  0  0  0  0  0  0  0  0  0  0
   -0.0057    0.9547    3.0934 H   0  0  0  0  0  0  0  0  0  0  0  0
   -0.6207    2.4079    2.2433 H   0  0  0  0  0  0  0  0  0  0  0  0
   -3.1536    2.4653    3.7499 H   0  0  0  0  0  0  0  0  0  0  0  0
   -4.3132    1.3834    2.8521 H   0  0  0  0  0  0  0  0  0  0  0  0
   -2.0928    0.4367    4.8402 H   0  0  0  0  0  0  0  0  0  0  0  0
   -3.2480   -0.6496    3.9435 H   0  0  0  0  0  0  0  0  0  0  0  0
   -2.6682   -0.8505    1.0450 H   0  0  0  0  0  0  0  0  0  0  0  0
  1  2  1  0  0  0  0
  1 10  1  0  0  0  0
  2 12  1  0  0  0  0
  3  2  1  6  0  0  0
  3  8  1  0  0  0  0
  3  4  1  0  0  0  0
  4  5  1  0  0  0  0
  4 13  1  0  0  0  0
  5  6  1  0  0  0  0
  5  7  1  0  0  0  0
  6 15  1  0  0  0  0
  6  7  1  0  0  0  0
  7 17  1  0  0  0  0
  8 19  1  6  0  0  0
  8  5  1  0  0  0  0
  9  3  1  0  0  0  0
  9  8  1  0  0  0  0
 11  2  1  0  0  0  0
 14  4  1  0  0  0  0
 16  6  1  0  0  0  0
 18  7  1  0  0  0  0
M TOR 0 0 1 2 3
M TOR 1 0 1 2 7
M TOR 2 0 1 2 8
M TOR 3 1 2 3 4
M TOR 4 1 2 3 12
M TOR 5 1 2 3 13
M TOR 6 1 2 7 4
M TOR 7 1 2 7 8
M TOR 8 1 2 7 18
M TOR 9 2 1 0 9
M TOR 10 2 3 4 5
M TOR 11 2 3 4 6
M TOR 12 2 3 4 7
M TOR 13 2 7 4 5
M TOR 14 2 7 4 6
M TOR 15 2 8 7 4
M TOR 16 2 8 7 18
M TOR 17 3 2 1 10
M TOR 18 3 2 1 11
M TOR 19 3 2 7 8
M TOR 20 3 2 7 18
M TOR 21 3 4 5 6
M TOR 22 3 4 5 14
M TOR 23 3 4 5 15
M TOR 24 3 4 6 16
M TOR 25 3 4 6 17
M TOR 26 3 4 7 8
M TOR 27 3 4 7 18
M TOR 28 4 3 2 8
M TOR 29 4 5 6 16
M TOR 30 4 5 6 17
M TOR 31 4 6 5 14
M TOR 32 4 6 5 15
M TOR 33 5 4 3 12
M TOR 34 5 4 3 13
M TOR 35 5 4 7 8
M TOR 36 5 4 7 18
M TOR 37 5 6 4 7
M TOR 38 6 4 3 12
M TOR 39 6 4 3 13
M TOR 40 6 4 7 8
M TOR 41 6 4 7 18
M TOR 42 7 2 1 10
M TOR 43 7 2 1 11
M TOR 44 7 2 3 12
M TOR 45 7 2 3 13
M TOR 46 7 4 3 12
M TOR 47 7 4 3 13
M TOR 48 7 4 5 14
M TOR 49 7 4 5 15
M TOR 50 7 4 6 16
M TOR 51 7 4 6 17
M TOR 52 8 2 1 10
M TOR 53 8 2 1 11
M TOR 54 8 2 3 12
M TOR 55 8 2 3 13
M  END
$$$$
