gdb 2033	2.7140414	1.8284677	1.520274	0.4361	73.66	-0.22862	0.06805	0.29667	941.7251	0.158079	-422.52268	-422.515183	-422.514239	-422.554122	30.585
 OpenBabel02181911403D

 19 21  0  0  1  0  0  0  0  0999 V2000
    0.3797    0.7411    0.7241 O   0  0  0  0  0  0  0  0  0  0  0  0
   -0.9714    0.6836    0.3514 C   0  0  1  0  0  0  0  0  0  0  0  0
   -1.8944   -0.3864    0.8826 C   0  0  0  0  0  0  0  0  0  0  0  0
   -2.0839    1.0812    1.2754 C   0  0  2  0  0  0  0  0  0  0  0  0
   -3.1293    1.8676    0.7634 O   0  0  0  0  0  0  0  0  0  0  0  0
   -2.9074    2.3420   -0.5646 C   0  0  1  0  0  0  0  0  0  0  0  0
   -1.4367    2.7957   -0.7961 C   0  0  0  0  0  0  0  0  0  0  0  0
   -1.1420    1.2807   -1.0375 C   0  0  2  0  0  0  0  0  0  0  0  0
   -2.6093    1.1700   -1.5361 C   0  0  0  0  0  0  0  0  0  0  0  0
    0.4572    0.5003    1.6524 H   0  0  0  0  0  0  0  0  0  0  0  0
   -2.6130   -0.8705    0.2325 H   0  0  0  0  0  0  0  0  0  0  0  0
   -1.5026   -1.0302    1.6658 H   0  0  0  0  0  0  0  0  0  0  0  0
   -1.8623    1.3394    2.3082 H   0  0  0  0  0  0  0  0  0  0  0  0
   -3.7303    3.0268   -0.7727 H   0  0  0  0  0  0  0  0  0  0  0  0
   -1.3525    3.3908   -1.7083 H   0  0  0  0  0  0  0  0  0  0  0  0
   -0.9154    3.2889    0.0265 H   0  0  0  0  0  0  0  0  0  0  0  0
   -0.3285    0.9764   -1.6979 H   0  0  0  0  0  0  0  0  0  0  0  0
   -2.6836    1.4958   -2.5767 H   0  0  0  0  0  0  0  0  0  0  0  0
   -3.1665    0.2402   -1.4116 H   0  0  0  0  0  0  0  0  0  0  0  0
  1 10  1  0  0  0  0
  2  1  1  1  0  0  0
  2  3  1  0  0  0  0
  2  4  1  0  0  0  0
  3  4  1  0  0  0  0
  3 12  1  0  0  0  0
  4 13  1  1  0  0  0
  5  4  1  0  0  0  0
  6 14  1  6  0  0  0
  6  5  1  0  0  0  0
  7  6  1  0  0  0  0
  7 16  1  0  0  0  0
  8 17  1  6  0  0  0
  8  7  1  0  0  0  0
  8  2  1  0  0  0  0
  9 19  1  0  0  0  0
  9  8  1  0  0  0  0
  9  6  1  0  0  0  0
 11  3  1  0  0  0  0
 15  7  1  0  0  0  0
 18  9  1  0  0  0  0
M TOR 0 0 1 2 3
M TOR 1 0 1 2 10
M TOR 2 0 1 2 11
M TOR 3 0 1 3 4
M TOR 4 0 1 3 12
M TOR 5 0 1 7 6
M TOR 6 0 1 7 8
M TOR 7 0 1 7 16
M TOR 8 1 2 3 4
M TOR 9 1 2 3 12
M TOR 10 1 3 2 10
M TOR 11 1 3 2 11
M TOR 12 1 3 4 5
M TOR 13 1 7 6 5
M TOR 14 1 7 6 14
M TOR 15 1 7 6 15
M TOR 16 1 7 8 5
M TOR 17 1 7 8 17
M TOR 18 1 7 8 18
M TOR 19 2 1 0 9
M TOR 20 2 1 7 6
M TOR 21 2 1 7 8
M TOR 22 2 1 7 16
M TOR 23 2 3 1 7
M TOR 24 2 3 4 5
M TOR 25 3 1 0 9
M TOR 26 3 1 7 6
M TOR 27 3 1 7 8
M TOR 28 3 1 7 16
M TOR 29 3 4 5 6
M TOR 30 3 4 5 8
M TOR 31 3 4 5 13
M TOR 32 4 3 1 7
M TOR 33 4 3 2 10
M TOR 34 4 3 2 11
M TOR 35 4 5 6 7
M TOR 36 4 5 6 14
M TOR 37 4 5 6 15
M TOR 38 4 5 8 7
M TOR 39 4 5 8 17
M TOR 40 4 5 8 18
M TOR 41 5 4 3 12
M TOR 42 5 6 7 8
M TOR 43 5 6 7 16
M TOR 44 5 8 7 16
M TOR 45 6 5 8 17
M TOR 46 6 5 8 18
M TOR 47 6 7 8 17
M TOR 48 6 7 8 18
M TOR 49 7 1 0 9
M TOR 50 7 1 2 10
M TOR 51 7 1 2 11
M TOR 52 7 1 3 12
M TOR 53 7 6 5 13
M TOR 54 7 8 5 13
M TOR 55 8 5 6 14
M TOR 56 8 5 6 15
M TOR 57 8 7 6 14
M TOR 58 8 7 6 15
M  END
$$$$
