
     RDKit          3D

 19 19  0  0  0  0  0  0  0  0999 V2000
    1.6035    1.3072    0.4227 C   0  0  0  0  0  0  0  0  0  0  0  0
    1.1217   -0.1261    0.1790 C   0  0  0  0  0  0  0  0  0  0  0  0
    1.6484   -0.7518   -1.1224 C   0  0  0  0  0  0  0  0  0  0  0  0
    1.1055   -0.1376   -2.3977 C   0  0  0  0  0  0  0  0  0  0  0  0
    0.7683   -1.0386   -3.3330 C   0  0  0  0  0  0  0  0  0  0  0  0
    1.0528   -2.3896   -2.8166 C   0  0  0  0  0  0  0  0  0  0  0  0
    1.1504   -3.4431   -3.4080 O   0  0  0  0  0  0  0  0  0  0  0  0
    1.3043   -2.2440   -1.3100 C   0  0  0  0  0  0  0  0  0  0  0  0
    2.2872   -3.1345   -0.8526 O   0  0  0  0  0  0  0  0  0  0  0  0
    1.2209    1.6907    1.3731 H   0  0  0  0  0  0  0  0  0  0  0  0
    2.6972    1.3545    0.4611 H   0  0  0  0  0  0  0  0  0  0  0  0
    1.2695    1.9929   -0.3632 H   0  0  0  0  0  0  0  0  0  0  0  0
    1.4439   -0.7634    1.0108 H   0  0  0  0  0  0  0  0  0  0  0  0
    0.0243   -0.1564    0.1743 H   0  0  0  0  0  0  0  0  0  0  0  0
    2.7446   -0.6674   -1.1298 H   0  0  0  0  0  0  0  0  0  0  0  0
    1.0254    0.9372   -2.5241 H   0  0  0  0  0  0  0  0  0  0  0  0
    0.4084   -0.8398   -4.3342 H   0  0  0  0  0  0  0  0  0  0  0  0
    0.3353   -2.4348   -0.8115 H   0  0  0  0  0  0  0  0  0  0  0  0
    2.2679   -3.8793   -1.4719 H   0  0  0  0  0  0  0  0  0  0  0  0
  1  2  1  0
  2  3  1  0
  3  4  1  0
  4  5  2  0
  5  6  1  0
  6  7  2  0
  6  8  1  0
  8  9  1  0
  8  3  1  0
  1 10  1  0
  1 11  1  0
  1 12  1  0
  2 13  1  0
  2 14  1  0
  3 15  1  0
  4 16  1  0
  5 17  1  0
  8 18  1  0
  9 19  1  0
M  END
$$$$
