
     RDKit          3D

 19 20  0  0  0  0  0  0  0  0999 V2000
    0.4430    0.5553    0.1833 O   0  0  0  0  0  0  0  0  0  0  0  0
   -0.7586   -0.0652    0.6125 C   0  0  0  0  0  0  0  0  0  0  0  0
   -1.0401    0.2528    2.0835 C   0  0  0  0  0  0  0  0  0  0  0  0
   -1.5180    1.5959    2.0363 O   0  0  0  0  0  0  0  0  0  0  0  0
   -2.4373    1.6597    0.9267 C   0  0  0  0  0  0  0  0  0  0  0  0
   -3.8440    1.2796    1.3140 C   0  0  0  0  0  0  0  0  0  0  0  0
   -4.2543    0.1693    0.7052 C   0  0  0  0  0  0  0  0  0  0  0  0
   -3.2188   -0.4030   -0.2302 C   0  0  0  0  0  0  0  0  0  0  0  0
   -1.9995    0.5460   -0.0831 C   0  0  0  0  0  0  0  0  0  0  0  0
    0.4301    1.4519    0.5402 H   0  0  0  0  0  0  0  0  0  0  0  0
   -0.6441   -1.1329    0.4089 H   0  0  0  0  0  0  0  0  0  0  0  0
   -1.7930   -0.4277    2.5086 H   0  0  0  0  0  0  0  0  0  0  0  0
   -0.1410    0.2313    2.7034 H   0  0  0  0  0  0  0  0  0  0  0  0
   -2.3656    2.6811    0.5399 H   0  0  0  0  0  0  0  0  0  0  0  0
   -4.4131    1.8598    2.0313 H   0  0  0  0  0  0  0  0  0  0  0  0
   -5.2248   -0.2964    0.8433 H   0  0  0  0  0  0  0  0  0  0  0  0
   -2.9759   -1.4431    0.0264 H   0  0  0  0  0  0  0  0  0  0  0  0
   -3.5827   -0.4295   -1.2644 H   0  0  0  0  0  0  0  0  0  0  0  0
   -1.6908    0.9521   -1.0466 H   0  0  0  0  0  0  0  0  0  0  0  0
  1  2  1  0
  2  3  1  0
  3  4  1  0
  4  5  1  0
  5  6  1  0
  6  7  2  0
  7  8  1  0
  8  9  1  0
  9  2  1  0
  9  5  1  0
  1 10  1  0
  2 11  1  0
  3 12  1  0
  3 13  1  0
  5 14  1  0
  6 15  1  0
  7 16  1  0
  8 17  1  0
  8 18  1  0
  9 19  1  0
M  END
$$$$
