
     RDKit          3D

 19 20  0  0  0  0  0  0  0  0999 V2000
   -1.2327   -2.1378   -1.1861 C   0  0  0  0  0  0  0  0  0  0  0  0
   -0.9880   -1.1523   -0.0576 C   0  0  0  0  0  0  0  0  0  0  0  0
   -1.9099   -0.0340   -0.0397 O   0  0  0  0  0  0  0  0  0  0  0  0
   -0.8667    0.9774   -0.0770 C   0  0  0  0  0  0  0  0  0  0  0  0
   -0.9959    1.9645   -1.1963 C   0  0  0  0  0  0  0  0  0  0  0  0
   -1.7924    3.2322   -0.9947 C   0  0  0  0  0  0  0  0  0  0  0  0
   -0.2924    3.2969   -1.0861 C   0  0  0  0  0  0  0  0  0  0  0  0
    0.1708   -0.1553   -0.2067 C   0  0  0  0  0  0  0  0  0  0  0  0
    1.3460   -0.2272   -0.3982 O   0  0  0  0  0  0  0  0  0  0  0  0
   -0.4559   -2.9086   -1.1805 H   0  0  0  0  0  0  0  0  0  0  0  0
   -2.2049   -2.6231   -1.0607 H   0  0  0  0  0  0  0  0  0  0  0  0
   -1.2199   -1.6339   -2.1565 H   0  0  0  0  0  0  0  0  0  0  0  0
   -0.9715   -1.6681    0.9140 H   0  0  0  0  0  0  0  0  0  0  0  0
   -0.7885    1.5022    0.8879 H   0  0  0  0  0  0  0  0  0  0  0  0
   -1.0385    1.5163   -2.1843 H   0  0  0  0  0  0  0  0  0  0  0  0
   -2.3787    3.5964   -1.8305 H   0  0  0  0  0  0  0  0  0  0  0  0
   -2.2532    3.3893   -0.0254 H   0  0  0  0  0  0  0  0  0  0  0  0
    0.1586    3.7024   -1.9841 H   0  0  0  0  0  0  0  0  0  0  0  0
    0.2672    3.5019   -0.1797 H   0  0  0  0  0  0  0  0  0  0  0  0
  1  2  1  0
  2  3  1  0
  3  4  1  0
  4  5  1  0
  5  6  1  0
  6  7  1  0
  4  8  1  0
  8  9  2  0
  8  2  1  0
  7  5  1  0
  1 10  1  0
  1 11  1  0
  1 12  1  0
  2 13  1  0
  4 14  1  0
  5 15  1  0
  6 16  1  0
  6 17  1  0
  7 18  1  0
  7 19  1  0
M  END
$$$$
