
     RDKit          3D

 19 18  0  0  0  0  0  0  0  0999 V2000
    2.7772    2.4159    0.9395 C   0  0  0  0  0  0  0  0  0  0  0  0
    3.0888    1.4125   -0.1718 C   0  0  0  0  0  0  0  0  0  0  0  0
    2.5267   -0.0016    0.1307 C   0  0  0  0  0  0  0  0  0  0  0  0
    3.0301   -0.4489    1.3660 O   0  0  0  0  0  0  0  0  0  0  0  0
    1.0533    0.0020    0.1370 C   0  0  0  0  0  0  0  0  0  0  0  0
   -0.1491   -0.0060    0.1237 C   0  0  0  0  0  0  0  0  0  0  0  0
    2.9871   -1.0033   -0.9727 C   0  0  0  0  0  0  0  0  0  0  0  0
    2.6299   -0.7284   -2.4112 C   0  0  0  0  0  0  0  0  0  0  0  0
    3.6334   -1.9666   -0.6276 O   0  0  0  0  0  0  0  0  0  0  0  0
    3.1831    2.0683    1.8919 H   0  0  0  0  0  0  0  0  0  0  0  0
    3.2175    3.3901    0.7081 H   0  0  0  0  0  0  0  0  0  0  0  0
    1.6975    2.5481    1.0554 H   0  0  0  0  0  0  0  0  0  0  0  0
    2.6830    1.7646   -1.1261 H   0  0  0  0  0  0  0  0  0  0  0  0
    4.1740    1.3081   -0.2897 H   0  0  0  0  0  0  0  0  0  0  0  0
    3.4412   -1.3091    1.1704 H   0  0  0  0  0  0  0  0  0  0  0  0
   -1.2114   -0.0136    0.1332 H   0  0  0  0  0  0  0  0  0  0  0  0
    2.7661   -1.6357   -3.0008 H   0  0  0  0  0  0  0  0  0  0  0  0
    1.6051   -0.3610   -2.4982 H   0  0  0  0  0  0  0  0  0  0  0  0
    3.2950    0.0485   -2.8054 H   0  0  0  0  0  0  0  0  0  0  0  0
  1  2  1  0
  2  3  1  0
  3  4  1  0
  3  5  1  0
  5  6  3  0
  3  7  1  0
  7  8  1  0
  7  9  2  0
  1 10  1  0
  1 11  1  0
  1 12  1  0
  2 13  1  0
  2 14  1  0
  4 15  1  0
  6 16  1  0
  8 17  1  0
  8 18  1  0
  8 19  1  0
M  END
$$$$
