
     RDKit          3D

 19 20  0  0  0  0  0  0  0  0999 V2000
    2.4065   -0.3280    1.0809 C   0  0  0  0  0  0  0  0  0  0  0  0
    1.4550   -0.0187   -0.0750 C   0  0  0  0  0  0  0  0  0  0  0  0
    1.3094    1.3926   -0.2872 O   0  0  0  0  0  0  0  0  0  0  0  0
    2.2487    1.8233   -1.2682 C   0  0  0  0  0  0  0  0  0  0  0  0
    2.4725    0.6219   -2.1677 C   0  0  0  0  0  0  0  0  0  0  0  0
    1.1972   -0.0726   -2.6331 C   0  0  0  0  0  0  0  0  0  0  0  0
    1.2783   -0.8988   -3.8560 C   0  0  0  0  0  0  0  0  0  0  0  0
    0.3898   -1.0343   -4.6600 O   0  0  0  0  0  0  0  0  0  0  0  0
    1.9627   -0.5563   -1.4064 C   0  0  0  0  0  0  0  0  0  0  0  0
    2.4437   -1.4055    1.2730 H   0  0  0  0  0  0  0  0  0  0  0  0
    3.4232    0.0139    0.8618 H   0  0  0  0  0  0  0  0  0  0  0  0
    2.0622    0.1723    1.9898 H   0  0  0  0  0  0  0  0  0  0  0  0
    0.4513   -0.3878    0.1664 H   0  0  0  0  0  0  0  0  0  0  0  0
    1.8156    2.6910   -1.7760 H   0  0  0  0  0  0  0  0  0  0  0  0
    3.2026    2.1312   -0.8121 H   0  0  0  0  0  0  0  0  0  0  0  0
    3.3582    0.5735   -2.7905 H   0  0  0  0  0  0  0  0  0  0  0  0
    0.2522    0.4370   -2.4748 H   0  0  0  0  0  0  0  0  0  0  0  0
    2.2611   -1.4131   -3.9927 H   0  0  0  0  0  0  0  0  0  0  0  0
    2.4510   -1.5235   -1.4390 H   0  0  0  0  0  0  0  0  0  0  0  0
  1  2  1  0
  2  3  1  0
  3  4  1  0
  4  5  1  0
  5  6  1  0
  6  7  1  0
  7  8  2  0
  6  9  1  0
  9  2  1  0
  9  5  1  0
  1 10  1  0
  1 11  1  0
  1 12  1  0
  2 13  1  0
  4 14  1  0
  4 15  1  0
  5 16  1  0
  6 17  1  0
  7 18  1  0
  9 19  1  0
M  END
$$$$
