
     RDKit          3D

 19 21  0  0  0  0  0  0  0  0999 V2000
    1.2784   -0.9615   -0.9112 C   0  0  0  0  0  0  0  0  0  0  0  0
    1.2154   -0.0589    0.3171 C   0  0  0  0  0  0  0  0  0  0  0  0
    1.7153    1.3886    0.0650 C   0  0  0  0  0  0  0  0  0  0  0  0
    1.9230    1.9738    1.4797 C   0  0  0  0  0  0  0  0  0  0  0  0
    3.0544    0.9223    1.4077 C   0  0  0  0  0  0  0  0  0  0  0  0
    3.1665    1.2039   -0.0254 O   0  0  0  0  0  0  0  0  0  0  0  0
    2.2814   -0.3915    1.3927 C   0  0  0  0  0  0  0  0  0  0  0  0
    2.1644   -1.3398    2.4986 C   0  0  0  0  0  0  0  0  0  0  0  0
    2.9885   -1.6212    1.3567 O   0  0  0  0  0  0  0  0  0  0  0  0
    1.1278   -2.0086   -0.6351 H   0  0  0  0  0  0  0  0  0  0  0  0
    0.5084   -0.6833   -1.6382 H   0  0  0  0  0  0  0  0  0  0  0  0
    2.2584   -0.8789   -1.3876 H   0  0  0  0  0  0  0  0  0  0  0  0
    0.2061   -0.0570    0.7437 H   0  0  0  0  0  0  0  0  0  0  0  0
    1.2867    1.9491   -0.7659 H   0  0  0  0  0  0  0  0  0  0  0  0
    2.3127    2.9915    1.4531 H   0  0  0  0  0  0  0  0  0  0  0  0
    1.1338    1.8600    2.2279 H   0  0  0  0  0  0  0  0  0  0  0  0
    3.9923    0.9731    1.9593 H   0  0  0  0  0  0  0  0  0  0  0  0
    2.7041   -1.1689    3.4300 H   0  0  0  0  0  0  0  0  0  0  0  0
    1.2691   -1.9538    2.5913 H   0  0  0  0  0  0  0  0  0  0  0  0
  1  2  1  0
  2  3  1  0
  3  4  1  0
  4  5  1  0
  5  6  1  0
  5  7  1  0
  7  8  1  0
  8  9  1  0
  7  2  1  0
  9  7  1  0
  6  3  1  0
  1 10  1  0
  1 11  1  0
  1 12  1  0
  2 13  1  0
  3 14  1  0
  4 15  1  0
  4 16  1  0
  5 17  1  0
  8 18  1  0
  8 19  1  0
M  END
$$$$
