gdb 5235	2.5646975	1.4418732	1.1910261	2.7702	74.87	-0.22752	0.06099	0.28851	1126.2591	0.15588	-422.488204	-422.479642	-422.478698	-422.521356	32.598
 OpenBabel02181911423D

 19 21  0  0  1  0  0  0  0  0999 V2000
    1.3961    1.3927    0.0836 C   0  0  0  0  0  0  0  0  0  0  0  0
    1.0425   -0.1009    0.0681 C   0  0  0  0  0  0  0  0  0  0  0  0
    1.7437   -0.8676   -1.0163 C   0  0  2  0  0  0  0  0  0  0  0  0
    3.2341   -1.1778   -1.1864 C   0  0  0  0  0  0  0  0  0  0  0  0
    2.8040   -2.1011   -2.3536 C   0  0  2  0  0  0  0  0  0  0  0  0
    2.3070   -1.1739   -3.3563 O   0  0  0  0  0  0  0  0  0  0  0  0
    1.2051   -0.9353   -2.4869 C   0  0  1  0  0  0  0  0  0  0  0  0
    1.3483   -2.1797   -1.6947 C   0  0  2  0  0  0  0  0  0  0  0  0
    0.4494   -3.1697   -1.4060 O   0  0  0  0  0  0  0  0  0  0  0  0
    0.8653    1.9138    0.8861 H   0  0  0  0  0  0  0  0  0  0  0  0
    2.4693    1.5432    0.2396 H   0  0  0  0  0  0  0  0  0  0  0  0
    1.1300    1.8685   -0.8655 H   0  0  0  0  0  0  0  0  0  0  0  0
    1.2835   -0.5412    1.0457 H   0  0  0  0  0  0  0  0  0  0  0  0
   -0.0418   -0.2222   -0.0556 H   0  0  0  0  0  0  0  0  0  0  0  0
    3.9196   -0.3684   -1.4564 H   0  0  0  0  0  0  0  0  0  0  0  0
    3.6255   -1.7434   -0.3351 H   0  0  0  0  0  0  0  0  0  0  0  0
    3.4310   -2.8921   -2.7594 H   0  0  0  0  0  0  0  0  0  0  0  0
    0.3463   -0.3831   -2.8449 H   0  0  0  0  0  0  0  0  0  0  0  0
    0.6664   -3.5456   -0.5448 H   0  0  0  0  0  0  0  0  0  0  0  0
  1 11  1  0  0  0  0
  1 10  1  0  0  0  0
  2  1  1  0  0  0  0
  2 13  1  0  0  0  0
  3  2  1  1  0  0  0
  4  3  1  0  0  0  0
  4 16  1  0  0  0  0
  5 17  1  6  0  0  0
  5  8  1  0  0  0  0
  5  4  1  0  0  0  0
  6  7  1  0  0  0  0
  6  5  1  0  0  0  0
  7 18  1  6  0  0  0
  7  8  1  0  0  0  0
  7  3  1  0  0  0  0
  8  9  1  1  0  0  0
  8  3  1  0  0  0  0
  9 19  1  0  0  0  0
 12  1  1  0  0  0  0
 14  2  1  0  0  0  0
 15  4  1  0  0  0  0
M TOR 0 0 1 2 3
M TOR 1 0 1 2 6
M TOR 2 0 1 2 7
M TOR 3 1 2 3 4
M TOR 4 1 2 3 14
M TOR 5 1 2 3 15
M TOR 6 1 2 6 5
M TOR 7 1 2 6 7
M TOR 8 1 2 6 17
M TOR 9 1 2 7 4
M TOR 10 1 2 7 8
M TOR 11 2 1 0 9
M TOR 12 2 1 0 10
M TOR 13 2 1 0 11
M TOR 14 2 3 4 5
M TOR 15 2 3 4 7
M TOR 16 2 3 4 16
M TOR 17 2 6 5 4
M TOR 18 2 6 7 4
M TOR 19 2 6 7 8
M TOR 20 2 7 4 5
M TOR 21 2 7 4 16
M TOR 22 2 7 6 5
M TOR 23 2 7 6 17
M TOR 24 2 7 8 18
M TOR 25 3 2 1 12
M TOR 26 3 2 1 13
M TOR 27 3 2 6 5
M TOR 28 3 2 6 7
M TOR 29 3 2 6 17
M TOR 30 3 2 7 8
M TOR 31 3 4 5 6
M TOR 32 3 4 7 6
M TOR 33 3 4 7 8
M TOR 34 4 3 2 6
M TOR 35 4 5 6 7
M TOR 36 4 5 6 17
M TOR 37 4 7 6 17
M TOR 38 4 7 8 18
M TOR 39 5 4 3 14
M TOR 40 5 4 3 15
M TOR 41 5 4 7 8
M TOR 42 5 6 7 8
M TOR 43 6 2 1 12
M TOR 44 6 2 1 13
M TOR 45 6 2 3 14
M TOR 46 6 2 3 15
M TOR 47 6 5 4 16
M TOR 48 6 7 4 16
M TOR 49 6 7 8 18
M TOR 50 7 2 1 12
M TOR 51 7 2 1 13
M TOR 52 7 2 3 14
M TOR 53 7 2 3 15
M TOR 54 7 4 3 14
M TOR 55 7 4 3 15
M TOR 56 8 7 4 16
M TOR 57 8 7 6 17
M  END
$$$$
