gdb 1889	2.4281459	1.7772133	1.2429596	1.8457	75.95	-0.22421	0.02083	0.24503999999999998	1041.5123	0.157082	-422.562597	-422.554342	-422.553398	-422.594657	33.141
 OpenBabel02181911403D

 19 20  0  0  1  0  0  0  0  0999 V2000
    0.0528    1.5085    1.4310 O   0  0  0  0  0  0  0  0  0  0  0  0
   -0.9139    0.7378    0.7786 C   0  0  2  0  0  0  0  0  0  0  0  0
   -2.3779    1.0774    0.9973 C   0  0  0  0  0  0  0  0  0  0  0  0
   -1.7843   -0.1546    1.6337 C   0  0  2  0  0  0  0  0  0  0  0  0
   -1.5931   -0.0222    3.0262 O   0  0  0  0  0  0  0  0  0  0  0  0
   -2.1803   -1.5345    1.1532 C   0  0  0  0  0  0  0  0  0  0  0  0
   -1.9725   -1.7205   -0.3273 C   0  0  0  0  0  0  0  0  0  0  0  0
   -1.2097   -0.9317   -1.0841 C   0  0  0  0  0  0  0  0  0  0  0  0
   -0.4431    0.2595   -0.5768 C   0  0  0  0  0  0  0  0  0  0  0  0
   -0.1639    1.4623    2.3726 H   0  0  0  0  0  0  0  0  0  0  0  0
   -2.5857    1.9077    1.6637 H   0  0  0  0  0  0  0  0  0  0  0  0
   -3.0827    0.9437    0.1832 H   0  0  0  0  0  0  0  0  0  0  0  0
   -0.9440   -0.6842    3.2943 H   0  0  0  0  0  0  0  0  0  0  0  0
   -1.5798   -2.2843    1.6950 H   0  0  0  0  0  0  0  0  0  0  0  0
   -3.2234   -1.7449    1.4261 H   0  0  0  0  0  0  0  0  0  0  0  0
   -2.4755   -2.5715   -0.7791 H   0  0  0  0  0  0  0  0  0  0  0  0
   -1.1050   -1.1542   -2.1431 H   0  0  0  0  0  0  0  0  0  0  0  0
    0.6227    0.0048   -0.4905 H   0  0  0  0  0  0  0  0  0  0  0  0
   -0.4919    1.0809   -1.3044 H   0  0  0  0  0  0  0  0  0  0  0  0
  1 10  1  0  0  0  0
  2  3  1  0  0  0  0
  2  1  1  1  0  0  0
  2  4  1  0  0  0  0
  3  4  1  0  0  0  0
  3 11  1  0  0  0  0
  4  5  1  1  0  0  0
  5 13  1  0  0  0  0
  6 15  1  0  0  0  0
  6  4  1  0  0  0  0
  6 14  1  0  0  0  0
  7  6  1  0  0  0  0
  8  9  1  0  0  0  0
  8  7  2  0  0  0  0
  9 18  1  0  0  0  0
  9  2  1  0  0  0  0
 12  3  1  0  0  0  0
 16  7  1  0  0  0  0
 17  8  1  0  0  0  0
 19  9  1  0  0  0  0
M TOR 0 0 1 2 3
M TOR 1 0 1 2 10
M TOR 2 0 1 2 11
M TOR 3 0 1 3 4
M TOR 4 0 1 3 5
M TOR 5 0 1 8 7
M TOR 6 0 1 8 17
M TOR 7 0 1 8 18
M TOR 8 1 2 3 4
M TOR 9 1 2 3 5
M TOR 10 1 3 2 10
M TOR 11 1 3 2 11
M TOR 12 1 3 4 12
M TOR 13 1 3 5 6
M TOR 14 1 3 5 13
M TOR 15 1 3 5 14
M TOR 16 1 8 7 6
M TOR 17 1 8 7 16
M TOR 18 2 1 0 9
M TOR 19 2 1 8 7
M TOR 20 2 1 8 17
M TOR 21 2 1 8 18
M TOR 22 2 3 1 8
M TOR 23 2 3 4 12
M TOR 24 2 3 5 6
M TOR 25 2 3 5 13
M TOR 26 2 3 5 14
M TOR 27 3 1 0 9
M TOR 28 3 1 8 7
M TOR 29 3 1 8 17
M TOR 30 3 1 8 18
M TOR 31 3 5 6 7
M TOR 32 3 5 6 15
M TOR 33 4 3 1 8
M TOR 34 4 3 2 10
M TOR 35 4 3 2 11
M TOR 36 4 3 5 6
M TOR 37 4 3 5 13
M TOR 38 4 3 5 14
M TOR 39 5 3 1 8
M TOR 40 5 3 2 10
M TOR 41 5 3 2 11
M TOR 42 5 3 4 12
M TOR 43 5 6 7 8
M TOR 44 5 6 7 16
M TOR 45 6 7 8 17
M TOR 46 6 7 8 18
M TOR 47 7 6 5 13
M TOR 48 7 6 5 14
M TOR 49 8 1 0 9
M TOR 50 8 1 2 10
M TOR 51 8 1 2 11
M TOR 52 8 7 6 15
M  END
$$$$
