gdb 2516	2.3317232	1.4394409	0.9240537	3.0581	81.64	-0.24555	-0.0535	0.19205	1251.3223	0.156713	-422.578726	-422.569807	-422.568862	-422.612479	32.467
 OpenBabel02181911413D

 19 19  0  0  0  0  0  0  0  0999 V2000
    1.3478    0.6023   -0.4205 C   0  0  0  0  0  0  0  0  0  0  0  0
   -0.0844    0.2638   -0.1071 C   0  0  0  0  0  0  0  0  0  0  0  0
   -1.1258    1.1195   -0.0415 C   0  0  0  0  0  0  0  0  0  0  0  0
   -2.5083    0.6344    0.3370 C   0  0  0  0  0  0  0  0  0  0  0  0
   -2.4355   -0.7331    1.0043 C   0  0  0  0  0  0  0  0  0  0  0  0
   -1.6413   -1.6208    0.2296 O   0  0  0  0  0  0  0  0  0  0  0  0
   -0.3004   -1.2088    0.1663 C   0  0  0  0  0  0  0  0  0  0  0  0
   -1.0076    2.5592   -0.3284 C   0  0  0  0  0  0  0  0  0  0  0  0
   -1.9398    3.3324   -0.2513 O   0  0  0  0  0  0  0  0  0  0  0  0
    2.0098    0.1612    0.3351 H   0  0  0  0  0  0  0  0  0  0  0  0
    1.6412    0.1628   -1.3823 H   0  0  0  0  0  0  0  0  0  0  0  0
    1.5550    1.6704   -0.4595 H   0  0  0  0  0  0  0  0  0  0  0  0
   -2.9792    1.3690    0.9982 H   0  0  0  0  0  0  0  0  0  0  0  0
   -3.1412    0.5836   -0.5577 H   0  0  0  0  0  0  0  0  0  0  0  0
   -2.0184   -0.6411    2.0210 H   0  0  0  0  0  0  0  0  0  0  0  0
   -3.4222   -1.1961    1.0843 H   0  0  0  0  0  0  0  0  0  0  0  0
    0.2370   -1.4640    1.1012 H   0  0  0  0  0  0  0  0  0  0  0  0
    0.1698   -1.7999   -0.6301 H   0  0  0  0  0  0  0  0  0  0  0  0
   -0.0076    2.9244   -0.6358 H   0  0  0  0  0  0  0  0  0  0  0  0
  1  2  1  0  0  0  0
  1 10  1  0  0  0  0
  2  3  2  0  0  0  0
  2  7  1  0  0  0  0
  3  4  1  0  0  0  0
  4 13  1  0  0  0  0
  4  5  1  0  0  0  0
  5 16  1  0  0  0  0
  5 15  1  0  0  0  0
  6  5  1  0  0  0  0
  7  6  1  0  0  0  0
  7 17  1  0  0  0  0
  8  9  2  0  0  0  0
  8  3  1  0  0  0  0
 11  1  1  0  0  0  0
 12  1  1  0  0  0  0
 14  4  1  0  0  0  0
 18  7  1  0  0  0  0
 19  8  1  0  0  0  0
M TOR 0 0 1 2 3
M TOR 1 0 1 2 7
M TOR 2 0 1 6 5
M TOR 3 0 1 6 16
M TOR 4 0 1 6 17
M TOR 5 1 2 3 4
M TOR 6 1 2 3 12
M TOR 7 1 2 3 13
M TOR 8 1 2 7 8
M TOR 9 1 2 7 18
M TOR 10 1 6 5 4
M TOR 11 2 1 0 9
M TOR 12 2 1 0 10
M TOR 13 2 1 0 11
M TOR 14 2 1 6 5
M TOR 15 2 1 6 16
M TOR 16 2 1 6 17
M TOR 17 2 3 4 5
M TOR 18 2 3 4 14
M TOR 19 2 3 4 15
M TOR 20 3 2 1 6
M TOR 21 3 2 7 8
M TOR 22 3 2 7 18
M TOR 23 3 4 5 6
M TOR 24 4 3 2 7
M TOR 25 4 5 6 16
M TOR 26 4 5 6 17
M TOR 27 5 4 3 12
M TOR 28 5 4 3 13
M TOR 29 6 1 0 9
M TOR 30 6 1 0 10
M TOR 31 6 1 0 11
M TOR 32 6 1 2 7
M TOR 33 6 5 4 14
M TOR 34 6 5 4 15
M TOR 35 7 2 3 12
M TOR 36 7 2 3 13
M  END
$$$$
