gdb 390	3.1708454	1.5197597	1.2897147	2.3908	74.55	-0.24063	0.06019	0.30082000000000003	1034.6909	0.158285	-422.526742	-422.519192	-422.518248	-422.559111	29.348
 OpenBabel02181911403D

 19 21  0  0  1  0  0  0  0  0999 V2000
    0.5288    0.8476   -0.7463 C   0  0  0  0  0  0  0  0  0  0  0  0
    0.1042   -0.2018    0.1326 O   0  0  0  0  0  0  0  0  0  0  0  0
    1.4729    0.1601    0.1356 C   0  0  1  0  0  0  0  0  0  0  0  0
    2.6036   -0.8249   -0.1789 C   0  0  0  0  0  0  0  0  0  0  0  0
    3.3358   -0.3613    1.1195 C   0  0  2  0  0  0  0  0  0  0  0  0
    3.2442   -1.3073    2.3264 C   0  0  0  0  0  0  0  0  0  0  0  0
    1.8283   -1.0413    2.8694 C   0  0  0  0  0  0  0  0  0  0  0  0
    1.5928    0.3463    2.6362 O   0  0  0  0  0  0  0  0  0  0  0  0
    2.1917    0.6747    1.4056 C   0  0  2  0  0  0  0  0  0  0  0  0
    0.5060    0.6049   -1.8085 H   0  0  0  0  0  0  0  0  0  0  0  0
    0.1739    1.8448   -0.4872 H   0  0  0  0  0  0  0  0  0  0  0  0
    2.2879   -1.8724   -0.1844 H   0  0  0  0  0  0  0  0  0  0  0  0
    3.1456   -0.6185   -1.1055 H   0  0  0  0  0  0  0  0  0  0  0  0
    4.3374    0.0399    0.9654 H   0  0  0  0  0  0  0  0  0  0  0  0
    3.4033   -2.3567    2.0625 H   0  0  0  0  0  0  0  0  0  0  0  0
    3.9895   -1.0279    3.0773 H   0  0  0  0  0  0  0  0  0  0  0  0
    1.0790   -1.6511    2.3441 H   0  0  0  0  0  0  0  0  0  0  0  0
    1.7266   -1.2192    3.9427 H   0  0  0  0  0  0  0  0  0  0  0  0
    2.4285    1.7415    1.4147 H   0  0  0  0  0  0  0  0  0  0  0  0
  1 11  1  0  0  0  0
  1  2  1  0  0  0  0
  1  3  1  0  0  0  0
  3  2  1  1  0  0  0
  3  9  1  0  0  0  0
  4  3  1  0  0  0  0
  4  5  1  0  0  0  0
  5 14  1  6  0  0  0
  5  9  1  0  0  0  0
  5  6  1  0  0  0  0
  6  7  1  0  0  0  0
  6 16  1  0  0  0  0
  7 18  1  0  0  0  0
  8  7  1  0  0  0  0
  9 19  1  6  0  0  0
  9  8  1  0  0  0  0
 10  1  1  0  0  0  0
 12  4  1  0  0  0  0
 13  4  1  0  0  0  0
 15  6  1  0  0  0  0
 17  7  1  0  0  0  0
M TOR 0 0 1 2 3
M TOR 1 0 1 2 8
M TOR 2 0 2 3 4
M TOR 3 0 2 3 11
M TOR 4 0 2 3 12
M TOR 5 0 2 8 4
M TOR 6 0 2 8 7
M TOR 7 0 2 8 18
M TOR 8 1 2 0 9
M TOR 9 1 2 0 10
M TOR 10 1 2 3 4
M TOR 11 1 2 3 11
M TOR 12 1 2 3 12
M TOR 13 1 2 8 4
M TOR 14 1 2 8 7
M TOR 15 1 2 8 18
M TOR 16 2 3 4 5
M TOR 17 2 3 4 8
M TOR 18 2 3 4 13
M TOR 19 2 8 4 5
M TOR 20 2 8 4 13
M TOR 21 2 8 7 6
M TOR 22 3 2 0 9
M TOR 23 3 2 0 10
M TOR 24 3 2 8 7
M TOR 25 3 2 8 18
M TOR 26 3 4 5 6
M TOR 27 3 4 5 14
M TOR 28 3 4 5 15
M TOR 29 3 4 8 7
M TOR 30 3 4 8 18
M TOR 31 4 5 6 7
M TOR 32 4 5 6 16
M TOR 33 4 5 6 17
M TOR 34 4 8 7 6
M TOR 35 5 4 3 11
M TOR 36 5 4 3 12
M TOR 37 5 4 8 7
M TOR 38 5 4 8 18
M TOR 39 5 6 7 8
M TOR 40 6 5 4 8
M TOR 41 6 5 4 13
M TOR 42 6 7 8 18
M TOR 43 7 6 5 14
M TOR 44 7 6 5 15
M TOR 45 7 8 4 13
M TOR 46 8 2 0 9
M TOR 47 8 2 0 10
M TOR 48 8 2 3 11
M TOR 49 8 2 3 12
M TOR 50 8 4 3 11
M TOR 51 8 4 3 12
M TOR 52 8 4 5 14
M TOR 53 8 4 5 15
M TOR 54 8 7 6 16
M TOR 55 8 7 6 17
M  END
$$$$
