
     RDKit          3D

 19 21  0  0  0  0  0  0  0  0999 V2000
    0.5538   -0.0615    0.0628 O   0  0  0  0  0  0  0  0  0  0  0  0
   -0.2659    0.5645    0.9958 C   0  0  0  0  0  0  0  0  0  0  0  0
   -1.5175   -0.0592    1.6556 C   0  0  0  0  0  0  0  0  0  0  0  0
   -1.8176    1.4513    1.9791 C   0  0  0  0  0  0  0  0  0  0  0  0
   -3.0902    1.9404    1.2893 C   0  0  0  0  0  0  0  0  0  0  0  0
   -2.4325    1.7458   -0.0022 O   0  0  0  0  0  0  0  0  0  0  0  0
   -1.1237    1.7860    0.6396 C   0  0  0  0  0  0  0  0  0  0  0  0
   -0.7962    1.7945    3.0539 C   0  0  0  0  0  0  0  0  0  0  0  0
    0.4341    1.1748    2.2728 C   0  0  0  0  0  0  0  0  0  0  0  0
    1.0654   -0.7449    0.5099 H   0  0  0  0  0  0  0  0  0  0  0  0
   -2.2180   -0.4799    0.9368 H   0  0  0  0  0  0  0  0  0  0  0  0
   -1.3642   -0.7304    2.5049 H   0  0  0  0  0  0  0  0  0  0  0  0
   -3.9970    1.3345    1.3836 H   0  0  0  0  0  0  0  0  0  0  0  0
   -3.3265    3.0006    1.4523 H   0  0  0  0  0  0  0  0  0  0  0  0
   -0.6175    2.7362    0.4381 H   0  0  0  0  0  0  0  0  0  0  0  0
   -0.6812    2.8695    3.2162 H   0  0  0  0  0  0  0  0  0  0  0  0
   -0.9678    1.3147    4.0216 H   0  0  0  0  0  0  0  0  0  0  0  0
    1.1797    1.9273    2.0003 H   0  0  0  0  0  0  0  0  0  0  0  0
    0.9396    0.3862    2.8396 H   0  0  0  0  0  0  0  0  0  0  0  0
  1  2  1  0
  2  3  1  0
  3  4  1  0
  4  5  1  0
  5  6  1  0
  6  7  1  0
  4  8  1  0
  8  9  1  0
  7  2  1  0
  9  2  1  0
  7  4  1  0
  1 10  1  0
  3 11  1  0
  3 12  1  0
  5 13  1  0
  5 14  1  0
  7 15  1  0
  8 16  1  0
  8 17  1  0
  9 18  1  0
  9 19  1  0
M  END
$$$$
