gdb 4077	4.0781589	1.3260366	1.1376676	0.6261	74.48	-0.23322	0.07785	0.31107	1111.6104	0.157525	-422.528766	-422.521024	-422.52008	-422.561172	29.993
 OpenBabel02181911413D

 19 21  0  0  1  0  0  0  0  0999 V2000
    0.2819    0.0386   -0.3735 C   0  0  0  0  0  0  0  0  0  0  0  0
    0.9947   -0.2178    0.9375 C   0  0  1  0  0  0  0  0  0  0  0  0
    2.4423   -0.1879    0.7892 O   0  0  0  0  0  0  0  0  0  0  0  0
    2.5803    0.8469    1.7842 C   0  0  2  0  0  0  0  0  0  0  0  0
    3.0889    0.3335    3.1154 C   0  0  1  0  0  0  0  0  0  0  0  0
    2.8865    1.2483    4.3100 C   0  0  0  0  0  0  0  0  0  0  0  0
    1.8806    0.1755    3.9885 C   0  0  1  0  0  0  0  0  0  0  0  0
    0.7140    0.5982    3.3120 O   0  0  0  0  0  0  0  0  0  0  0  0
    1.0489    0.9335    1.9762 C   0  0  2  0  0  0  0  0  0  0  0  0
    0.5381   -0.7346   -1.1043 H   0  0  0  0  0  0  0  0  0  0  0  0
   -0.8036    0.0264   -0.2259 H   0  0  0  0  0  0  0  0  0  0  0  0
    0.5674    1.0093   -0.7916 H   0  0  0  0  0  0  0  0  0  0  0  0
    0.6656   -1.1618    1.3902 H   0  0  0  0  0  0  0  0  0  0  0  0
    3.1287    1.7112    1.3938 H   0  0  0  0  0  0  0  0  0  0  0  0
    3.9048   -0.3793    3.1068 H   0  0  0  0  0  0  0  0  0  0  0  0
    3.5430    1.1058    5.1618 H   0  0  0  0  0  0  0  0  0  0  0  0
    2.5867    2.2769    4.1338 H   0  0  0  0  0  0  0  0  0  0  0  0
    1.7110   -0.6663    4.6494 H   0  0  0  0  0  0  0  0  0  0  0  0
    0.5259    1.8493    1.6929 H   0  0  0  0  0  0  0  0  0  0  0  0
  1 11  1  0  0  0  0
  1  2  1  0  0  0  0
  2 13  1  1  0  0  0
  2  9  1  0  0  0  0
  3  2  1  0  0  0  0
  3  4  1  0  0  0  0
  4 14  1  6  0  0  0
  4  9  1  0  0  0  0
  4  5  1  0  0  0  0
  5 15  1  1  0  0  0
  5  7  1  0  0  0  0
  5  6  1  0  0  0  0
  6 16  1  0  0  0  0
  7  6  1  0  0  0  0
  7 18  1  1  0  0  0
  8  7  1  0  0  0  0
  9 19  1  6  0  0  0
  9  8  1  0  0  0  0
 10  1  1  0  0  0  0
 12  1  1  0  0  0  0
 17  6  1  0  0  0  0
M TOR 0 0 1 2 3
M TOR 1 0 1 8 3
M TOR 2 0 1 8 7
M TOR 3 0 1 8 18
M TOR 4 1 2 3 4
M TOR 5 1 2 3 8
M TOR 6 1 2 3 13
M TOR 7 1 8 3 4
M TOR 8 1 8 3 13
M TOR 9 1 8 7 6
M TOR 10 2 1 0 9
M TOR 11 2 1 0 10
M TOR 12 2 1 0 11
M TOR 13 2 1 8 7
M TOR 14 2 1 8 18
M TOR 15 2 3 4 5
M TOR 16 2 3 4 6
M TOR 17 2 3 4 14
M TOR 18 2 3 8 7
M TOR 19 2 3 8 18
M TOR 20 3 2 1 12
M TOR 21 3 4 5 6
M TOR 22 3 4 5 15
M TOR 23 3 4 5 16
M TOR 24 3 4 6 7
M TOR 25 3 4 6 17
M TOR 26 3 8 1 12
M TOR 27 3 8 7 6
M TOR 28 4 3 8 7
M TOR 29 4 3 8 18
M TOR 30 4 5 6 7
M TOR 31 4 5 6 17
M TOR 32 4 6 5 15
M TOR 33 4 6 5 16
M TOR 34 4 6 7 8
M TOR 35 5 4 3 8
M TOR 36 5 4 3 13
M TOR 37 5 6 4 14
M TOR 38 5 6 7 8
M TOR 39 6 4 3 8
M TOR 40 6 4 3 13
M TOR 41 6 7 8 18
M TOR 42 7 6 4 14
M TOR 43 7 6 5 15
M TOR 44 7 6 5 16
M TOR 45 7 8 1 12
M TOR 46 7 8 3 13
M TOR 47 8 1 0 9
M TOR 48 8 1 0 10
M TOR 49 8 1 0 11
M TOR 50 8 3 4 14
M TOR 51 8 7 6 17
M  END
$$$$
