gdb 5624	2.4412857	1.6462207	1.1856601	2.4017	76.12	-0.24009	-0.00646	0.23363	1100.368	0.155329	-422.529949	-422.52101	-422.520066	-422.563813	32.904
 OpenBabel02181911423D

 19 20  0  0  1  0  0  0  0  0999 V2000
    1.4741   -0.1750    0.1012 C   0  0  0  0  0  0  0  0  0  0  0  0
    0.0920    0.0820   -0.0026 O   0  0  0  0  0  0  0  0  0  0  0  0
   -0.4738    0.7678    1.0952 C   0  0  2  0  0  0  0  0  0  0  0  0
   -1.9846    0.7241    0.9566 C   0  0  0  0  0  0  0  0  0  0  0  0
   -2.5354    1.9361    0.9998 C   0  0  0  0  0  0  0  0  0  0  0  0
   -1.4693    2.9771    1.1316 C   0  0  2  0  0  0  0  0  0  0  0  0
   -0.5595    3.0009    0.0072 O   0  0  0  0  0  0  0  0  0  0  0  0
   -0.1713    2.2864    1.1865 C   0  0  2  0  0  0  0  0  0  0  0  0
    1.0308    2.8074    1.9287 C   0  0  0  0  0  0  0  0  0  0  0  0
    1.7289   -0.6525    1.0609 H   0  0  0  0  0  0  0  0  0  0  0  0
    1.7330   -0.8586   -0.7113 H   0  0  0  0  0  0  0  0  0  0  0  0
    2.0800    0.7352   -0.0061 H   0  0  0  0  0  0  0  0  0  0  0  0
   -0.1488    0.2833    2.0348 H   0  0  0  0  0  0  0  0  0  0  0  0
   -2.4989   -0.2139    0.7850 H   0  0  0  0  0  0  0  0  0  0  0  0
   -3.5906    2.1644    0.9136 H   0  0  0  0  0  0  0  0  0  0  0  0
   -1.6491    3.9396    1.6026 H   0  0  0  0  0  0  0  0  0  0  0  0
    1.0833    2.3761    2.9341 H   0  0  0  0  0  0  0  0  0  0  0  0
    1.9607    2.5574    1.4082 H   0  0  0  0  0  0  0  0  0  0  0  0
    0.9808    3.8957    2.0195 H   0  0  0  0  0  0  0  0  0  0  0  0
  1 10  1  0  0  0  0
  2  1  1  0  0  0  0
  2  3  1  0  0  0  0
  3  8  1  0  0  0  0
  3 13  1  1  0  0  0
  4  5  2  0  0  0  0
  4  3  1  0  0  0  0
  5  6  1  0  0  0  0
  6  8  1  0  0  0  0
  6 16  1  1  0  0  0
  7  6  1  0  0  0  0
  7  8  1  0  0  0  0
  8  9  1  1  0  0  0
  9 19  1  0  0  0  0
  9 17  1  0  0  0  0
 11  1  1  0  0  0  0
 12  1  1  0  0  0  0
 14  4  1  0  0  0  0
 15  5  1  0  0  0  0
 18  9  1  0  0  0  0
M TOR 0 0 1 2 3
M TOR 1 0 1 2 7
M TOR 2 0 1 2 12
M TOR 3 1 2 3 4
M TOR 4 1 2 3 13
M TOR 5 1 2 7 5
M TOR 6 1 2 7 6
M TOR 7 1 2 7 8
M TOR 8 2 1 0 9
M TOR 9 2 1 0 10
M TOR 10 2 1 0 11
M TOR 11 2 3 4 5
M TOR 12 2 3 4 14
M TOR 13 2 7 5 4
M TOR 14 2 7 5 6
M TOR 15 2 7 5 15
M TOR 16 2 7 8 16
M TOR 17 2 7 8 17
M TOR 18 2 7 8 18
M TOR 19 3 2 7 5
M TOR 20 3 2 7 6
M TOR 21 3 2 7 8
M TOR 22 3 4 5 6
M TOR 23 3 4 5 7
M TOR 24 3 4 5 15
M TOR 25 4 3 2 7
M TOR 26 4 3 2 12
M TOR 27 4 5 6 7
M TOR 28 4 5 7 8
M TOR 29 5 4 3 13
M TOR 30 5 6 7 8
M TOR 31 5 7 2 12
M TOR 32 5 7 8 16
M TOR 33 5 7 8 17
M TOR 34 5 7 8 18
M TOR 35 6 5 4 14
M TOR 36 6 7 2 12
M TOR 37 6 7 5 15
M TOR 38 6 7 8 16
M TOR 39 6 7 8 17
M TOR 40 6 7 8 18
M TOR 41 7 2 3 13
M TOR 42 7 5 4 14
M TOR 43 8 7 2 12
M TOR 44 8 7 5 15
M  END
$$$$
