gdb 1015	2.872485	0.9346717	0.8796979	2.0318	81.68	-0.23705	0.03152	0.26857000000000003	1449.3909	0.154355	-422.52553	-422.515207	-422.514262	-422.564298	36.445
 OpenBabel02181911403D

 19 19  0  0  1  0  0  0  0  0999 V2000
    1.5803    0.3319   -0.0559 C   0  0  0  0  0  0  0  0  0  0  0  0
    0.1338    0.1733   -0.0285 C   0  0  0  0  0  0  0  0  0  0  0  0
   -1.0638    0.0349   -0.0126 C   0  0  0  0  0  0  0  0  0  0  0  0
   -2.5037   -0.1238    0.0498 C   0  0  1  0  0  0  0  0  0  0  0  0
   -3.1830    1.1336   -0.0807 O   0  0  0  0  0  0  0  0  0  0  0  0
   -3.2010   -1.1531   -0.8839 C   0  0  0  0  0  0  0  0  0  0  0  0
   -4.1114   -1.5932    0.2933 C   0  0  0  0  0  0  0  0  0  0  0  0
   -3.1254   -0.9019    1.2781 C   0  0  2  0  0  0  0  0  0  0  0  0
   -3.6250   -0.1114    2.3119 O   0  0  0  0  0  0  0  0  0  0  0  0
    1.9928    0.4134    0.9557 H   0  0  0  0  0  0  0  0  0  0  0  0
    2.0608   -0.5237   -0.5430 H   0  0  0  0  0  0  0  0  0  0  0  0
    1.8703    1.2323   -0.6083 H   0  0  0  0  0  0  0  0  0  0  0  0
   -2.6090    1.8031    0.3067 H   0  0  0  0  0  0  0  0  0  0  0  0
   -3.6817   -0.7069   -1.7557 H   0  0  0  0  0  0  0  0  0  0  0  0
   -2.5084   -1.9316   -1.2081 H   0  0  0  0  0  0  0  0  0  0  0  0
   -5.0761   -1.0793    0.2827 H   0  0  0  0  0  0  0  0  0  0  0  0
   -4.2832   -2.6624    0.4309 H   0  0  0  0  0  0  0  0  0  0  0  0
   -2.4085   -1.6039    1.7108 H   0  0  0  0  0  0  0  0  0  0  0  0
   -4.0530    0.6373    1.8733 H   0  0  0  0  0  0  0  0  0  0  0  0
  1  2  1  0  0  0  0
  1 10  1  0  0  0  0
  2  3  3  0  0  0  0
  4  3  1  6  0  0  0
  4  8  1  0  0  0  0
  5  4  1  0  0  0  0
  5 13  1  0  0  0  0
  6  4  1  0  0  0  0
  6  7  1  0  0  0  0
  7 17  1  0  0  0  0
  7  8  1  0  0  0  0
  8 18  1  1  0  0  0
  8  9  1  0  0  0  0
 11  1  1  0  0  0  0
 12  1  1  0  0  0  0
 14  6  1  0  0  0  0
 15  6  1  0  0  0  0
 16  7  1  0  0  0  0
 19  9  1  0  0  0  0
M TOR 0 0 1 2 3
M TOR 1 1 2 3 4
M TOR 2 1 2 3 5
M TOR 3 1 2 3 7
M TOR 4 2 1 0 9
M TOR 5 2 1 0 10
M TOR 6 2 1 0 11
M TOR 7 2 3 4 12
M TOR 8 2 3 5 6
M TOR 9 2 3 5 13
M TOR 10 2 3 5 14
M TOR 11 2 3 7 6
M TOR 12 2 3 7 8
M TOR 13 2 3 7 17
M TOR 14 3 5 6 7
M TOR 15 3 5 6 15
M TOR 16 3 5 6 16
M TOR 17 3 7 6 15
M TOR 18 3 7 6 16
M TOR 19 3 7 8 18
M TOR 20 4 3 5 6
M TOR 21 4 3 5 13
M TOR 22 4 3 5 14
M TOR 23 4 3 7 6
M TOR 24 4 3 7 8
M TOR 25 4 3 7 17
M TOR 26 5 3 4 12
M TOR 27 5 3 7 8
M TOR 28 5 3 7 17
M TOR 29 5 6 7 8
M TOR 30 5 6 7 17
M TOR 31 6 7 8 18
M TOR 32 7 3 4 12
M TOR 33 7 3 5 13
M TOR 34 7 3 5 14
M TOR 35 7 6 5 13
M TOR 36 7 6 5 14
M TOR 37 8 7 6 15
M TOR 38 8 7 6 16
M  END
$$$$
