
     RDKit          3D

 19 21  0  0  0  0  0  0  0  0999 V2000
   -0.0338    1.7043    0.3212 C   0  0  0  0  0  0  0  0  0  0  0  0
    1.1490    0.7902    0.2066 C   0  0  0  0  0  0  0  0  0  0  0  0
    1.4389   -0.4983   -0.5646 C   0  0  0  0  0  0  0  0  0  0  0  0
    1.9596   -1.1755    0.5792 O   0  0  0  0  0  0  0  0  0  0  0  0
    1.8214    0.0432    1.3740 C   0  0  0  0  0  0  0  0  0  0  0  0
    3.1884    0.6026    1.7530 C   0  0  0  0  0  0  0  0  0  0  0  0
    4.1159    0.5182    0.5328 C   0  0  0  0  0  0  0  0  0  0  0  0
    3.5408    1.0478   -0.6608 O   0  0  0  0  0  0  0  0  0  0  0  0
    2.1882    0.7776   -0.8781 C   0  0  0  0  0  0  0  0  0  0  0  0
    0.2344    2.6403    0.8265 H   0  0  0  0  0  0  0  0  0  0  0  0
   -0.4246    1.9678   -0.6669 H   0  0  0  0  0  0  0  0  0  0  0  0
   -0.8475    1.2392    0.8899 H   0  0  0  0  0  0  0  0  0  0  0  0
    0.8658   -1.0861   -1.2747 H   0  0  0  0  0  0  0  0  0  0  0  0
    1.1675   -0.1380    2.2328 H   0  0  0  0  0  0  0  0  0  0  0  0
    3.0678    1.6389    2.0915 H   0  0  0  0  0  0  0  0  0  0  0  0
    3.6374    0.0343    2.5750 H   0  0  0  0  0  0  0  0  0  0  0  0
    5.0290    1.0971    0.6985 H   0  0  0  0  0  0  0  0  0  0  0  0
    4.3951   -0.5295    0.3725 H   0  0  0  0  0  0  0  0  0  0  0  0
    1.8765    1.2453   -1.8088 H   0  0  0  0  0  0  0  0  0  0  0  0
  1  2  1  0
  2  3  1  0
  3  4  1  0
  4  5  1  0
  5  6  1  0
  6  7  1  0
  7  8  1  0
  8  9  1  0
  5  2  1  0
  9  2  1  0
  9  3  1  0
  1 10  1  0
  1 11  1  0
  1 12  1  0
  3 13  1  0
  5 14  1  0
  6 15  1  0
  6 16  1  0
  7 17  1  0
  7 18  1  0
  9 19  1  0
M  END
$$$$
