gdb 1775	1.9679408	1.6333608	1.07301	2.9587	77.67	-0.24113	-0.02466	0.21647	1170.9638	0.155162	-422.529717	-422.520735	-422.519791	-422.563264	33.859
 OpenBabel02181911403D

 19 20  0  0  1  0  0  0  0  0999 V2000
   -1.2500    0.3835   -1.9776 C   0  0  0  0  0  0  0  0  0  0  0  0
   -0.6613   -0.7219   -1.1451 C   0  0  1  0  0  0  0  0  0  0  0  0
   -1.4417   -1.8065   -0.3370 C   0  0  0  0  0  0  0  0  0  0  0  0
    0.0701   -2.0983   -0.1085 C   0  0  1  0  0  0  0  0  0  0  0  0
    0.6589   -3.1270    0.5909 O   0  0  0  0  0  0  0  0  0  0  0  0
    0.2825   -1.8747   -1.6190 C   0  0  0  0  0  0  0  0  0  0  0  0
    0.2476   -0.5430    0.1316 C   0  0  1  0  0  0  0  0  0  0  0  0
    1.5963    0.0972    0.0464 C   0  0  0  0  0  0  0  0  0  0  0  0
    2.0114    0.8671    0.8810 O   0  0  0  0  0  0  0  0  0  0  0  0
   -1.8751    1.0441   -1.3678 H   0  0  0  0  0  0  0  0  0  0  0  0
   -0.4677    0.9941   -2.4402 H   0  0  0  0  0  0  0  0  0  0  0  0
   -1.8737   -0.0266   -2.7790 H   0  0  0  0  0  0  0  0  0  0  0  0
   -2.0175   -1.4535    0.5235 H   0  0  0  0  0  0  0  0  0  0  0  0
   -1.9935   -2.5443   -0.9260 H   0  0  0  0  0  0  0  0  0  0  0  0
    0.3549   -3.0965    1.5048 H   0  0  0  0  0  0  0  0  0  0  0  0
    1.2823   -1.6129   -1.9653 H   0  0  0  0  0  0  0  0  0  0  0  0
   -0.1744   -2.6202   -2.2754 H   0  0  0  0  0  0  0  0  0  0  0  0
   -0.2705   -0.1494    1.0120 H   0  0  0  0  0  0  0  0  0  0  0  0
    2.2265   -0.1672   -0.8292 H   0  0  0  0  0  0  0  0  0  0  0  0
  1 10  1  0  0  0  0
  2  1  1  6  0  0  0
  2  3  1  0  0  0  0
  2  7  1  0  0  0  0
  3  4  1  0  0  0  0
  3 13  1  0  0  0  0
  4  7  1  0  0  0  0
  4  5  1  1  0  0  0
  5 15  1  0  0  0  0
  6  2  1  0  0  0  0
  6  4  1  0  0  0  0
  7 18  1  1  0  0  0
  8  7  1  0  0  0  0
  8  9  2  0  0  0  0
 11  1  1  0  0  0  0
 12  1  1  0  0  0  0
 14  3  1  0  0  0  0
 16  6  1  0  0  0  0
 17  6  1  0  0  0  0
 19  8  1  0  0  0  0
M TOR 0 0 1 2 3
M TOR 1 0 1 2 12
M TOR 2 0 1 2 13
M TOR 3 0 1 5 3
M TOR 4 0 1 5 15
M TOR 5 0 1 5 16
M TOR 6 0 1 6 3
M TOR 7 0 1 6 7
M TOR 8 0 1 6 17
M TOR 9 1 2 3 4
M TOR 10 1 2 3 5
M TOR 11 1 2 3 6
M TOR 12 1 5 3 4
M TOR 13 1 5 3 6
M TOR 14 1 6 3 4
M TOR 15 1 6 7 8
M TOR 16 1 6 7 18
M TOR 17 2 1 0 9
M TOR 18 2 1 0 10
M TOR 19 2 1 0 11
M TOR 20 2 1 5 15
M TOR 21 2 1 5 16
M TOR 22 2 1 6 7
M TOR 23 2 1 6 17
M TOR 24 2 3 4 14
M TOR 25 2 3 5 15
M TOR 26 2 3 5 16
M TOR 27 2 3 6 7
M TOR 28 2 3 6 17
M TOR 29 3 6 7 8
M TOR 30 3 6 7 18
M TOR 31 4 3 2 12
M TOR 32 4 3 2 13
M TOR 33 4 3 5 15
M TOR 34 4 3 5 16
M TOR 35 4 3 6 7
M TOR 36 4 3 6 17
M TOR 37 5 1 0 9
M TOR 38 5 1 0 10
M TOR 39 5 1 0 11
M TOR 40 5 1 2 12
M TOR 41 5 1 2 13
M TOR 42 5 1 6 7
M TOR 43 5 1 6 17
M TOR 44 5 3 2 12
M TOR 45 5 3 2 13
M TOR 46 5 3 4 14
M TOR 47 5 3 6 7
M TOR 48 5 3 6 17
M TOR 49 6 1 0 9
M TOR 50 6 1 0 10
M TOR 51 6 1 0 11
M TOR 52 6 1 2 12
M TOR 53 6 1 2 13
M TOR 54 6 1 5 15
M TOR 55 6 1 5 16
M TOR 56 6 3 2 12
M TOR 57 6 3 2 13
M TOR 58 6 3 4 14
M TOR 59 6 3 5 15
M TOR 60 6 3 5 16
M TOR 61 8 7 6 17
M  END
$$$$
