
     RDKit          3D

 19 20  0  0  0  0  0  0  0  0999 V2000
   -0.2047    0.0616    0.0231 C   0  0  0  0  0  0  0  0  0  0  0  0
    1.2869   -0.1789    0.1113 C   0  0  0  0  0  0  0  0  0  0  0  0
    1.8503   -0.9987   -0.9624 O   0  0  0  0  0  0  0  0  0  0  0  0
    2.6252   -1.7418   -0.0067 C   0  0  0  0  0  0  0  0  0  0  0  0
    4.0434   -2.0550   -0.3547 C   0  0  0  0  0  0  0  0  0  0  0  0
    1.7038   -2.5850    0.8476 C   0  0  0  0  0  0  0  0  0  0  0  0
    0.4750   -3.2280    0.3174 C   0  0  0  0  0  0  0  0  0  0  0  0
   -0.0423   -4.1935    0.8304 O   0  0  0  0  0  0  0  0  0  0  0  0
    1.9292   -1.0869    1.1524 C   0  0  0  0  0  0  0  0  0  0  0  0
   -0.5148    0.7398    0.8251 H   0  0  0  0  0  0  0  0  0  0  0  0
   -0.4499    0.5356   -0.9328 H   0  0  0  0  0  0  0  0  0  0  0  0
   -0.7839   -0.8594    0.1111 H   0  0  0  0  0  0  0  0  0  0  0  0
    1.8137    0.7856    0.1072 H   0  0  0  0  0  0  0  0  0  0  0  0
    4.5391   -2.5643    0.4762 H   0  0  0  0  0  0  0  0  0  0  0  0
    4.0845   -2.7129   -1.2296 H   0  0  0  0  0  0  0  0  0  0  0  0
    4.5972   -1.1409   -0.5897 H   0  0  0  0  0  0  0  0  0  0  0  0
    2.2125   -3.2021    1.5839 H   0  0  0  0  0  0  0  0  0  0  0  0
    0.0799   -2.7924   -0.6209 H   0  0  0  0  0  0  0  0  0  0  0  0
    2.3019   -0.7877    2.1228 H   0  0  0  0  0  0  0  0  0  0  0  0
  1  2  1  0
  2  3  1  0
  3  4  1  0
  4  5  1  0
  4  6  1  0
  6  7  1  0
  7  8  2  0
  6  9  1  0
  9  2  1  0
  9  4  1  0
  1 10  1  0
  1 11  1  0
  1 12  1  0
  2 13  1  0
  5 14  1  0
  5 15  1  0
  5 16  1  0
  6 17  1  0
  7 18  1  0
  9 19  1  0
M  END
$$$$
