gdb 2494	2.2080815	1.9504582	1.4413686	1.9479	75.3	-0.23799	0.00799	0.24598	985.9069	0.158544	-422.58145	-422.573635	-422.572691	-422.613835	30.665
 OpenBabel02181911413D

 19 20  0  0  1  0  0  0  0  0999 V2000
    0.4888    0.5145    0.0960 O   0  0  0  0  0  0  0  0  0  0  0  0
   -0.5577    0.9636    0.9511 C   0  0  2  0  0  0  0  0  0  0  0  0
   -1.1301   -0.2574    1.6882 C   0  0  0  0  0  0  0  0  0  0  0  0
   -2.6042    0.1086    1.8444 C   0  0  0  0  0  0  0  0  0  0  0  0
   -2.9445    0.8082    0.6494 O   0  0  0  0  0  0  0  0  0  0  0  0
   -1.8120    1.5523    0.2090 C   0  0  1  0  0  0  0  0  0  0  0  0
   -1.8958    3.0492    0.6035 C   0  0  0  0  0  0  0  0  0  0  0  0
   -0.8208    3.2131    1.6488 C   0  0  0  0  0  0  0  0  0  0  0  0
   -0.1159    2.0985    1.8423 C   0  0  0  0  0  0  0  0  0  0  0  0
    0.9443    1.2938   -0.2404 H   0  0  0  0  0  0  0  0  0  0  0  0
   -1.0130   -1.1304    1.0395 H   0  0  0  0  0  0  0  0  0  0  0  0
   -0.6277   -0.4565    2.6379 H   0  0  0  0  0  0  0  0  0  0  0  0
   -3.2674   -0.7569    1.9249 H   0  0  0  0  0  0  0  0  0  0  0  0
   -2.7624    0.7450    2.7295 H   0  0  0  0  0  0  0  0  0  0  0  0
   -1.7277    1.4133   -0.8726 H   0  0  0  0  0  0  0  0  0  0  0  0
   -1.7336    3.7204   -0.2498 H   0  0  0  0  0  0  0  0  0  0  0  0
   -2.8978    3.2713    0.9870 H   0  0  0  0  0  0  0  0  0  0  0  0
   -0.6552    4.1504    2.1710 H   0  0  0  0  0  0  0  0  0  0  0  0
    0.7064    1.9782    2.5401 H   0  0  0  0  0  0  0  0  0  0  0  0
  2  1  1  6  0  0  0
  2  3  1  0  0  0  0
  2  9  1  0  0  0  0
  3  4  1  0  0  0  0
  3 12  1  0  0  0  0
  4 13  1  0  0  0  0
  4 14  1  0  0  0  0
  5  4  1  0  0  0  0
  6 15  1  6  0  0  0
  6  7  1  0  0  0  0
  6  5  1  0  0  0  0
  6  2  1  0  0  0  0
  7 17  1  0  0  0  0
  7  8  1  0  0  0  0
  8  9  2  0  0  0  0
  8 18  1  0  0  0  0
  9 19  1  0  0  0  0
 10  1  1  0  0  0  0
 11  3  1  0  0  0  0
 16  7  1  0  0  0  0
M TOR 0 0 1 2 3
M TOR 1 0 1 2 10
M TOR 2 0 1 2 11
M TOR 3 0 1 5 4
M TOR 4 0 1 5 6
M TOR 5 0 1 5 14
M TOR 6 0 1 8 7
M TOR 7 0 1 8 18
M TOR 8 1 2 3 4
M TOR 9 1 2 3 12
M TOR 10 1 2 3 13
M TOR 11 1 5 4 3
M TOR 12 1 5 6 7
M TOR 13 1 5 6 15
M TOR 14 1 5 6 16
M TOR 15 1 8 7 6
M TOR 16 1 8 7 17
M TOR 17 2 1 0 9
M TOR 18 2 1 5 4
M TOR 19 2 1 5 6
M TOR 20 2 1 5 14
M TOR 21 2 1 8 7
M TOR 22 2 1 8 18
M TOR 23 2 3 4 5
M TOR 24 3 2 1 5
M TOR 25 3 2 1 8
M TOR 26 3 4 5 6
M TOR 27 3 4 5 14
M TOR 28 4 3 2 10
M TOR 29 4 3 2 11
M TOR 30 4 5 1 8
M TOR 31 4 5 6 7
M TOR 32 4 5 6 15
M TOR 33 4 5 6 16
M TOR 34 5 1 0 9
M TOR 35 5 1 2 10
M TOR 36 5 1 2 11
M TOR 37 5 1 8 7
M TOR 38 5 1 8 18
M TOR 39 5 4 3 12
M TOR 40 5 4 3 13
M TOR 41 5 6 7 8
M TOR 42 5 6 7 17
M TOR 43 6 5 1 8
M TOR 44 6 7 8 18
M TOR 45 7 6 5 14
M TOR 46 8 1 0 9
M TOR 47 8 1 2 10
M TOR 48 8 1 2 11
M TOR 49 8 1 5 14
M TOR 50 8 7 6 15
M TOR 51 8 7 6 16
M  END
$$$$
