gdb 3183	2.3330249	1.6833287	1.3567564	4.3464	74.6	-0.25822	0.01353	0.27175	1038.1913	0.158273	-422.589276	-422.581089	-422.580144	-422.621979	31.146
 OpenBabel02181911413D

 19 20  0  0  1  0  0  0  0  0999 V2000
    0.2335   -2.1165    0.7481 C   0  0  0  0  0  0  0  0  0  0  0  0
   -0.8470   -1.3817   -0.0728 C   0  0  1  0  0  0  0  0  0  0  0  0
   -2.1585   -1.2845    0.6855 C   0  0  2  0  0  0  0  0  0  0  0  0
   -3.1981   -0.2587    0.2967 C   0  0  0  0  0  0  0  0  0  0  0  0
   -2.3589   -0.0607    1.5332 C   0  0  2  0  0  0  0  0  0  0  0  0
   -1.2343    0.9466    1.5228 C   0  0  0  0  0  0  0  0  0  0  0  0
   -0.5794    1.0643    0.2509 O   0  0  0  0  0  0  0  0  0  0  0  0
   -0.3030   -0.0241   -0.5142 C   0  0  0  0  0  0  0  0  0  0  0  0
    0.3589    0.1195   -1.5058 O   0  0  0  0  0  0  0  0  0  0  0  0
    0.4463   -1.5995    1.6894 H   0  0  0  0  0  0  0  0  0  0  0  0
   -0.1037   -3.1284    0.9926 H   0  0  0  0  0  0  0  0  0  0  0  0
    1.1627   -2.1903    0.1774 H   0  0  0  0  0  0  0  0  0  0  0  0
   -0.9917   -1.9337   -1.0073 H   0  0  0  0  0  0  0  0  0  0  0  0
   -2.5248   -2.2337    1.0662 H   0  0  0  0  0  0  0  0  0  0  0  0
   -3.0046    0.3746   -0.5630 H   0  0  0  0  0  0  0  0  0  0  0  0
   -4.2413   -0.5204    0.4313 H   0  0  0  0  0  0  0  0  0  0  0  0
   -2.8407   -0.1659    2.5004 H   0  0  0  0  0  0  0  0  0  0  0  0
   -1.5960    1.9560    1.7405 H   0  0  0  0  0  0  0  0  0  0  0  0
   -0.4853    0.6905    2.2844 H   0  0  0  0  0  0  0  0  0  0  0  0
  1 11  1  0  0  0  0
  1 10  1  0  0  0  0
  2 13  1  6  0  0  0
  2  3  1  0  0  0  0
  2  1  1  0  0  0  0
  3 14  1  1  0  0  0
  3  5  1  0  0  0  0
  4 16  1  0  0  0  0
  4  3  1  0  0  0  0
  4  5  1  0  0  0  0
  5 17  1  1  0  0  0
  6  5  1  0  0  0  0
  6 18  1  0  0  0  0
  6 19  1  0  0  0  0
  7  6  1  0  0  0  0
  8  2  1  0  0  0  0
  8  7  1  0  0  0  0
  9  8  2  0  0  0  0
 12  1  1  0  0  0  0
 15  4  1  0  0  0  0
M TOR 0 0 1 2 3
M TOR 1 0 1 2 4
M TOR 2 0 1 2 13
M TOR 3 0 1 7 6
M TOR 4 0 1 7 8
M TOR 5 1 2 3 4
M TOR 6 1 2 3 14
M TOR 7 1 2 3 15
M TOR 8 1 2 4 5
M TOR 9 1 2 4 16
M TOR 10 1 7 6 5
M TOR 11 2 1 0 9
M TOR 12 2 1 0 10
M TOR 13 2 1 0 11
M TOR 14 2 1 7 6
M TOR 15 2 1 7 8
M TOR 16 2 3 4 5
M TOR 17 2 3 4 16
M TOR 18 2 4 3 14
M TOR 19 2 4 3 15
M TOR 20 2 4 5 6
M TOR 21 2 4 5 17
M TOR 22 2 4 5 18
M TOR 23 3 2 1 7
M TOR 24 3 2 1 12
M TOR 25 3 4 2 13
M TOR 26 3 4 5 6
M TOR 27 3 4 5 17
M TOR 28 3 4 5 18
M TOR 29 4 2 1 7
M TOR 30 4 2 1 12
M TOR 31 4 5 6 7
M TOR 32 5 4 2 13
M TOR 33 5 4 3 14
M TOR 34 5 4 3 15
M TOR 35 5 6 7 8
M TOR 36 6 5 4 16
M TOR 37 6 7 1 12
M TOR 38 7 1 0 9
M TOR 39 7 1 0 10
M TOR 40 7 1 0 11
M TOR 41 7 1 2 13
M TOR 42 7 6 5 17
M TOR 43 7 6 5 18
M TOR 44 8 7 1 12
M  END
$$$$
