
     RDKit          3D

 19 20  0  0  0  0  0  0  0  0999 V2000
    0.2476   -0.5994    0.5756 O   0  0  0  0  0  0  0  0  0  0  0  0
   -0.3663    0.5747    1.0576 C   0  0  0  0  0  0  0  0  0  0  0  0
   -1.6412    0.2458    1.8772 C   0  0  0  0  0  0  0  0  0  0  0  0
   -0.8513    0.4263    3.2107 C   0  0  0  0  0  0  0  0  0  0  0  0
   -1.3740    1.4935    4.1862 C   0  0  0  0  0  0  0  0  0  0  0  0
   -0.7449    2.7672    3.6639 C   0  0  0  0  0  0  0  0  0  0  0  0
    0.1314    2.5519    2.6807 C   0  0  0  0  0  0  0  0  0  0  0  0
    0.2969    1.0897    2.3684 C   0  0  0  0  0  0  0  0  0  0  0  0
    1.6362    0.6389    2.4510 O   0  0  0  0  0  0  0  0  0  0  0  0
    1.1642   -0.5750    0.8786 H   0  0  0  0  0  0  0  0  0  0  0  0
   -0.4752    1.3153    0.2533 H   0  0  0  0  0  0  0  0  0  0  0  0
   -2.4394    0.9829    1.7543 H   0  0  0  0  0  0  0  0  0  0  0  0
   -2.0342   -0.7524    1.6805 H   0  0  0  0  0  0  0  0  0  0  0  0
   -0.5802   -0.5205    3.6787 H   0  0  0  0  0  0  0  0  0  0  0  0
   -2.4703    1.5472    4.1779 H   0  0  0  0  0  0  0  0  0  0  0  0
   -1.0875    1.3093    5.2307 H   0  0  0  0  0  0  0  0  0  0  0  0
   -1.0019    3.7445    4.0602 H   0  0  0  0  0  0  0  0  0  0  0  0
    0.7007    3.3132    2.1577 H   0  0  0  0  0  0  0  0  0  0  0  0
    2.0054    0.9156    3.2957 H   0  0  0  0  0  0  0  0  0  0  0  0
  1  2  1  0
  2  3  1  0
  3  4  1  0
  4  5  1  0
  5  6  1  0
  6  7  2  0
  7  8  1  0
  8  9  1  0
  8  2  1  0
  8  4  1  0
  1 10  1  0
  2 11  1  0
  3 12  1  0
  3 13  1  0
  4 14  1  0
  5 15  1  0
  5 16  1  0
  6 17  1  0
  7 18  1  0
  9 19  1  0
M  END
$$$$
