
     RDKit          3D

 19 19  0  0  0  0  0  0  0  0999 V2000
   -0.9127   -2.9598    2.4720 C   0  0  0  0  0  0  0  0  0  0  0  0
   -0.7513   -1.4781    2.2538 C   0  0  0  0  0  0  0  0  0  0  0  0
   -1.8529   -0.7898    1.6444 O   0  0  0  0  0  0  0  0  0  0  0  0
   -0.6270   -0.8796    0.9189 C   0  0  0  0  0  0  0  0  0  0  0  0
    0.1201    0.4228    0.6840 C   0  0  0  0  0  0  0  0  0  0  0  0
   -0.4253    1.1972   -0.4263 C   0  0  0  0  0  0  0  0  0  0  0  0
   -0.8797    1.8175   -1.3535 C   0  0  0  0  0  0  0  0  0  0  0  0
   -1.4960    2.5744   -2.4424 C   0  0  0  0  0  0  0  0  0  0  0  0
   -2.4779    3.5022   -2.0016 O   0  0  0  0  0  0  0  0  0  0  0  0
   -1.5742   -3.1535    3.3227 H   0  0  0  0  0  0  0  0  0  0  0  0
   -1.3439   -3.4372    1.5881 H   0  0  0  0  0  0  0  0  0  0  0  0
    0.0554   -3.4254    2.6861 H   0  0  0  0  0  0  0  0  0  0  0  0
   -0.3059   -0.9296    3.0867 H   0  0  0  0  0  0  0  0  0  0  0  0
   -0.6690   -1.5428    0.0534 H   0  0  0  0  0  0  0  0  0  0  0  0
    0.0905    1.0166    1.6053 H   0  0  0  0  0  0  0  0  0  0  0  0
    1.1771    0.1945    0.4893 H   0  0  0  0  0  0  0  0  0  0  0  0
   -0.7395    3.1688   -2.9671 H   0  0  0  0  0  0  0  0  0  0  0  0
   -1.9133    1.8712   -3.1814 H   0  0  0  0  0  0  0  0  0  0  0  0
   -3.0762    3.0279   -1.4146 H   0  0  0  0  0  0  0  0  0  0  0  0
  1  2  1  0
  2  3  1  0
  3  4  1  0
  4  5  1  0
  5  6  1  0
  6  7  3  0
  7  8  1  0
  8  9  1  0
  4  2  1  0
  1 10  1  0
  1 11  1  0
  1 12  1  0
  2 13  1  0
  4 14  1  0
  5 15  1  0
  5 16  1  0
  8 17  1  0
  8 18  1  0
  9 19  1  0
M  END
$$$$
