gdb 3962	2.4752568	1.5794298	1.2636715	2.5715	79.76	-0.21719	0.01437	0.23156	1082.6158	0.156313	-422.526114	-422.517431	-422.516487	-422.559292	32.4
 OpenBabel02181911413D

 19 20  0  0  1  0  0  0  0  0999 V2000
   -0.1070    1.4129    0.0893 C   0  0  0  0  0  0  0  0  0  0  0  0
   -0.0317   -0.0618   -0.1299 C   0  0  2  0  0  3  0  0  0  0  0  0
   -0.9950   -0.9459   -0.3766 C   0  0  2  0  0  3  0  0  0  0  0  0
   -2.3990   -1.2781    0.0849 C   0  0  0  0  0  0  0  0  0  0  0  0
   -1.7109   -2.4908    0.8420 C   0  0  2  0  0  0  0  0  0  0  0  0
   -1.2981   -2.1799    2.1467 O   0  0  0  0  0  0  0  0  0  0  0  0
   -0.4922   -2.3317   -0.1602 C   0  0  2  0  0  0  0  0  0  0  0  0
    0.8504   -2.2336    0.2452 O   0  0  0  0  0  0  0  0  0  0  0  0
    1.2468   -0.8578    0.1121 C   0  0  0  0  0  0  0  0  0  0  0  0
    0.4908    1.9609   -0.6504 H   0  0  0  0  0  0  0  0  0  0  0  0
   -1.1363    1.7740    0.0159 H   0  0  0  0  0  0  0  0  0  0  0  0
    0.2871    1.6880    1.0761 H   0  0  0  0  0  0  0  0  0  0  0  0
   -2.9113   -0.5409    0.7083 H   0  0  0  0  0  0  0  0  0  0  0  0
   -3.0740   -1.6244   -0.7039 H   0  0  0  0  0  0  0  0  0  0  0  0
   -2.2511   -3.4465    0.7939 H   0  0  0  0  0  0  0  0  0  0  0  0
   -2.0845   -2.0889    2.6939 H   0  0  0  0  0  0  0  0  0  0  0  0
   -0.5960   -3.0469   -0.9883 H   0  0  0  0  0  0  0  0  0  0  0  0
    1.9937   -0.7665   -0.6931 H   0  0  0  0  0  0  0  0  0  0  0  0
    1.7285   -0.5302    1.0448 H   0  0  0  0  0  0  0  0  0  0  0  0
  1 12  1  0  0  0  0
  2  1  1  1  0  0  0
  2  9  1  0  0  0  0
  3  7  1  0  0  0  0
  3  2  1  0  0  0  0
  3  4  1  1  0  0  0
  4 13  1  0  0  0  0
  4  5  1  0  0  0  0
  5 15  1  6  0  0  0
  5  6  1  0  0  0  0
  6 16  1  0  0  0  0
  7 17  1  6  0  0  0
  7  8  1  0  0  0  0
  7  5  1  0  0  0  0
  9  8  1  0  0  0  0
  9 19  1  0  0  0  0
 10  1  1  0  0  0  0
 11  1  1  0  0  0  0
 14  4  1  0  0  0  0
 18  9  1  0  0  0  0
M TOR 0 0 1 2 3
M TOR 1 0 1 2 6
M TOR 2 0 1 8 7
M TOR 3 0 1 8 17
M TOR 4 0 1 8 18
M TOR 5 1 2 3 4
M TOR 6 1 2 3 12
M TOR 7 1 2 3 13
M TOR 8 1 2 6 4
M TOR 9 1 2 6 7
M TOR 10 1 2 6 16
M TOR 11 1 8 7 6
M TOR 12 2 1 0 9
M TOR 13 2 1 0 10
M TOR 14 2 1 0 11
M TOR 15 2 1 8 7
M TOR 16 2 1 8 17
M TOR 17 2 1 8 18
M TOR 18 2 3 4 5
M TOR 19 2 3 4 6
M TOR 20 2 3 4 14
M TOR 21 2 6 4 5
M TOR 22 2 6 4 14
M TOR 23 2 6 7 8
M TOR 24 3 2 1 8
M TOR 25 3 2 6 7
M TOR 26 3 2 6 16
M TOR 27 3 4 5 15
M TOR 28 3 4 6 7
M TOR 29 3 4 6 16
M TOR 30 4 6 7 8
M TOR 31 5 4 3 12
M TOR 32 5 4 3 13
M TOR 33 5 4 6 7
M TOR 34 5 4 6 16
M TOR 35 6 2 1 8
M TOR 36 6 2 3 12
M TOR 37 6 2 3 13
M TOR 38 6 4 3 12
M TOR 39 6 4 3 13
M TOR 40 6 4 5 15
M TOR 41 6 7 8 17
M TOR 42 6 7 8 18
M TOR 43 7 6 4 14
M TOR 44 8 1 0 9
M TOR 45 8 1 0 10
M TOR 46 8 1 0 11
M TOR 47 8 7 6 16
M  END
$$$$
