
     RDKit          3D

 19 20  0  0  0  0  0  0  0  0999 V2000
    0.2493   -0.1806   -0.7727 O   0  0  0  0  0  0  0  0  0  0  0  0
    0.5521   -0.5454    0.5689 C   0  0  0  0  0  0  0  0  0  0  0  0
   -0.1753    0.3958    1.4867 C   0  0  0  0  0  0  0  0  0  0  0  0
    0.1951    1.9134    1.6513 C   0  0  0  0  0  0  0  0  0  0  0  0
   -0.5551    1.8001    3.0217 C   0  0  0  0  0  0  0  0  0  0  0  0
   -2.0009    1.5180    2.5549 C   0  0  0  0  0  0  0  0  0  0  0  0
   -1.7195    0.4748    1.4150 C   0  0  0  0  0  0  0  0  0  0  0  0
    0.0309    0.3777    3.0159 C   0  0  0  0  0  0  0  0  0  0  0  0
    0.5792   -0.3455    3.7952 O   0  0  0  0  0  0  0  0  0  0  0  0
    0.7081   -0.7893   -1.3593 H   0  0  0  0  0  0  0  0  0  0  0  0
    0.2333   -1.5775    0.7862 H   0  0  0  0  0  0  0  0  0  0  0  0
    1.6343   -0.4920    0.7644 H   0  0  0  0  0  0  0  0  0  0  0  0
    1.2687    2.0836    1.7539 H   0  0  0  0  0  0  0  0  0  0  0  0
   -0.2398    2.5948    0.9170 H   0  0  0  0  0  0  0  0  0  0  0  0
   -0.3956    2.4937    3.8444 H   0  0  0  0  0  0  0  0  0  0  0  0
   -2.6250    1.1120    3.3552 H   0  0  0  0  0  0  0  0  0  0  0  0
   -2.4830    2.4239    2.1779 H   0  0  0  0  0  0  0  0  0  0  0  0
   -2.1879   -0.4951    1.6063 H   0  0  0  0  0  0  0  0  0  0  0  0
   -2.0461    0.8197    0.4321 H   0  0  0  0  0  0  0  0  0  0  0  0
  1  2  1  0
  2  3  1  0
  3  4  1  0
  4  5  1  0
  5  6  1  0
  6  7  1  0
  5  8  1  0
  8  9  2  0
  7  3  1  0
  8  3  1  0
  1 10  1  0
  2 11  1  0
  2 12  1  0
  4 13  1  0
  4 14  1  0
  5 15  1  0
  6 16  1  0
  6 17  1  0
  7 18  1  0
  7 19  1  0
M  END
$$$$
