gdb 4663	2.2722682	1.3815259	0.9299233	1.922	77.77	-0.2504	-0.0279	0.2225	1285.2762	0.154064	-422.577425	-422.56764	-422.566696	-422.613204	34.744
 OpenBabel02181911413D

 19 19  0  0  0  0  0  0  0  0999 V2000
    0.7370   -0.7462    0.5078 C   0  0  0  0  0  0  0  0  0  0  0  0
    0.5174    0.7239    0.1602 C   0  0  0  0  0  0  0  0  0  0  0  0
    1.7539    1.3878   -0.4091 C   0  0  0  0  0  0  0  0  0  0  0  0
    2.7941    0.7782   -0.5576 O   0  0  0  0  0  0  0  0  0  0  0  0
    1.7024    2.8489   -0.8063 C   0  0  0  0  0  0  0  0  0  0  0  0
    3.0352    3.6119   -0.6351 C   0  0  0  0  0  0  0  0  0  0  0  0
    2.6173    3.2282   -1.9923 C   0  0  0  0  0  0  0  0  0  0  0  0
    0.4943    3.7000   -0.6748 C   0  0  0  0  0  0  0  0  0  0  0  0
   -0.5864    3.3732   -0.2490 O   0  0  0  0  0  0  0  0  0  0  0  0
    1.5324   -0.8620    1.2485 H   0  0  0  0  0  0  0  0  0  0  0  0
   -0.1806   -1.1807    0.9139 H   0  0  0  0  0  0  0  0  0  0  0  0
    1.0312   -1.3205   -0.3744 H   0  0  0  0  0  0  0  0  0  0  0  0
   -0.3005    0.8573   -0.5580 H   0  0  0  0  0  0  0  0  0  0  0  0
    0.1900    1.3059    1.0301 H   0  0  0  0  0  0  0  0  0  0  0  0
    2.9644    4.6505   -0.3311 H   0  0  0  0  0  0  0  0  0  0  0  0
    3.8126    3.0268   -0.1597 H   0  0  0  0  0  0  0  0  0  0  0  0
    2.2447    3.9898   -2.6685 H   0  0  0  0  0  0  0  0  0  0  0  0
    3.1069    2.3788   -2.4522 H   0  0  0  0  0  0  0  0  0  0  0  0
    0.6692    4.7456   -1.0247 H   0  0  0  0  0  0  0  0  0  0  0  0
  1 11  1  0  0  0  0
  1 10  1  0  0  0  0
  2  1  1  0  0  0  0
  2 14  1  0  0  0  0
  3  2  1  0  0  0  0
  4  3  2  0  0  0  0
  5  8  1  0  0  0  0
  5  6  1  0  0  0  0
  5  3  1  0  0  0  0
  6 15  1  0  0  0  0
  6 16  1  0  0  0  0
  7  5  1  0  0  0  0
  7  6  1  0  0  0  0
  8  9  2  0  0  0  0
 12  1  1  0  0  0  0
 13  2  1  0  0  0  0
 17  7  1  0  0  0  0
 18  7  1  0  0  0  0
 19  8  1  0  0  0  0
M TOR 0 0 1 2 3
M TOR 1 0 1 2 4
M TOR 2 1 2 4 5
M TOR 3 1 2 4 6
M TOR 4 1 2 4 7
M TOR 5 2 1 0 9
M TOR 6 2 1 0 10
M TOR 7 2 1 0 11
M TOR 8 2 4 5 6
M TOR 9 2 4 5 14
M TOR 10 2 4 5 15
M TOR 11 2 4 6 16
M TOR 12 2 4 6 17
M TOR 13 2 4 7 8
M TOR 14 2 4 7 18
M TOR 15 3 2 1 12
M TOR 16 3 2 1 13
M TOR 17 3 2 4 5
M TOR 18 3 2 4 6
M TOR 19 3 2 4 7
M TOR 20 4 2 1 12
M TOR 21 4 2 1 13
M TOR 22 4 5 6 16
M TOR 23 4 5 6 17
M TOR 24 4 6 5 14
M TOR 25 4 6 5 15
M TOR 26 5 4 7 8
M TOR 27 5 4 7 18
M TOR 28 5 6 4 7
M TOR 29 6 4 7 8
M TOR 30 6 4 7 18
M TOR 31 7 4 5 14
M TOR 32 7 4 5 15
M TOR 33 7 4 6 16
M TOR 34 7 4 6 17
M  END
$$$$
