gdb 2707	2.4655471	1.8418771	1.2639403	1.3872	74.54	-0.2308	0.06703	0.29783000000000004	1024.1617	0.15571	-422.516484	-422.507998	-422.507054	-422.548618	33.786
 OpenBabel02181911413D

 19 21  0  0  1  0  0  0  0  0999 V2000
    0.7080   -0.3824   -0.7541 C   0  0  0  0  0  0  0  0  0  0  0  0
    0.8466    0.1378    0.6714 C   0  0  2  0  0  0  0  0  0  0  0  0
    1.6308    1.4482    0.7756 C   0  0  1  0  0  0  0  0  0  0  0  0
    1.3553    2.6395    0.1373 O   0  0  0  0  0  0  0  0  0  0  0  0
    2.3105    1.4785    2.1388 C   0  0  1  0  0  0  0  0  0  0  0  0
    1.9550    0.1787    2.8600 C   0  0  0  0  0  0  0  0  0  0  0  0
    2.0390   -0.4777    1.4559 C   0  0  1  0  0  0  0  0  0  0  0  0
    2.2561   -1.8304    1.2700 O   0  0  0  0  0  0  0  0  0  0  0  0
    2.9574    0.7463    0.9742 C   0  0  1  0  0  0  0  0  0  0  0  0
    0.3531   -1.4163   -0.7593 H   0  0  0  0  0  0  0  0  0  0  0  0
   -0.0082    0.2224   -1.3217 H   0  0  0  0  0  0  0  0  0  0  0  0
    1.6699   -0.3594   -1.2788 H   0  0  0  0  0  0  0  0  0  0  0  0
   -0.1196    0.0979    1.1917 H   0  0  0  0  0  0  0  0  0  0  0  0
    1.4438    2.4988   -0.8119 H   0  0  0  0  0  0  0  0  0  0  0  0
    2.6257    2.4213    2.5656 H   0  0  0  0  0  0  0  0  0  0  0  0
    2.7783   -0.1459    3.5070 H   0  0  0  0  0  0  0  0  0  0  0  0
    1.0043    0.0990    3.3999 H   0  0  0  0  0  0  0  0  0  0  0  0
    3.0064   -2.0972    1.8114 H   0  0  0  0  0  0  0  0  0  0  0  0
    3.9306    0.8413    0.5152 H   0  0  0  0  0  0  0  0  0  0  0  0
  1  2  1  0  0  0  0
  2  3  1  0  0  0  0
  2 13  1  1  0  0  0
  2  7  1  0  0  0  0
  3  4  1  6  0  0  0
  3  9  1  0  0  0  0
  3  5  1  0  0  0  0
  5 15  1  1  0  0  0
  5  6  1  0  0  0  0
  6 17  1  0  0  0  0
  6 16  1  0  0  0  0
  7  8  1  6  0  0  0
  7  6  1  0  0  0  0
  8 18  1  0  0  0  0
  9 19  1  6  0  0  0
  9  7  1  0  0  0  0
  9  5  1  0  0  0  0
 10  1  1  0  0  0  0
 11  1  1  0  0  0  0
 12  1  1  0  0  0  0
 14  4  1  0  0  0  0
M TOR 0 0 1 2 3
M TOR 1 0 1 2 4
M TOR 2 0 1 2 8
M TOR 3 0 1 6 5
M TOR 4 0 1 6 7
M TOR 5 0 1 6 8
M TOR 6 1 2 3 13
M TOR 7 1 2 4 5
M TOR 8 1 2 4 8
M TOR 9 1 2 4 14
M TOR 10 1 2 8 6
M TOR 11 1 2 8 18
M TOR 12 1 6 5 4
M TOR 13 1 6 5 15
M TOR 14 1 6 5 16
M TOR 15 1 6 7 17
M TOR 16 1 6 8 4
M TOR 17 1 6 8 18
M TOR 18 2 1 0 9
M TOR 19 2 1 0 10
M TOR 20 2 1 0 11
M TOR 21 2 1 6 5
M TOR 22 2 1 6 7
M TOR 23 2 4 5 6
M TOR 24 2 4 5 15
M TOR 25 2 4 5 16
M TOR 26 2 4 8 6
M TOR 27 2 4 8 18
M TOR 28 2 8 4 5
M TOR 29 2 8 4 14
M TOR 30 2 8 6 5
M TOR 31 2 8 6 7
M TOR 32 3 2 1 6
M TOR 33 3 2 1 12
M TOR 34 3 2 4 5
M TOR 35 3 2 4 8
M TOR 36 3 2 4 14
M TOR 37 3 2 8 6
M TOR 38 3 2 8 18
M TOR 39 4 2 1 6
M TOR 40 4 2 1 12
M TOR 41 4 2 3 13
M TOR 42 4 5 6 7
M TOR 43 4 5 6 8
M TOR 44 4 8 6 7
M TOR 45 5 4 8 18
M TOR 46 5 6 1 12
M TOR 47 5 6 7 17
M TOR 48 5 6 8 18
M TOR 49 6 1 0 9
M TOR 50 6 1 0 10
M TOR 51 6 1 0 11
M TOR 52 6 5 4 14
M TOR 53 6 8 4 14
M TOR 54 7 6 1 12
M TOR 55 7 6 5 15
M TOR 56 7 6 5 16
M TOR 57 7 6 8 18
M TOR 58 8 2 1 12
M TOR 59 8 2 3 13
M TOR 60 8 4 5 15
M TOR 61 8 4 5 16
M TOR 62 8 6 1 12
M TOR 63 8 6 5 15
M TOR 64 8 6 5 16
M TOR 65 8 6 7 17
M  END
$$$$
