
     RDKit          3D

 19 19  0  0  0  0  0  0  0  0999 V2000
    1.8648    0.0514   -3.2167 O   0  0  0  0  0  0  0  0  0  0  0  0
    2.2688    0.1532   -1.8617 C   0  0  0  0  0  0  0  0  0  0  0  0
    1.0943    0.0961   -0.8847 C   0  0  0  0  0  0  0  0  0  0  0  0
    1.5336    0.2701    0.5741 C   0  0  0  0  0  0  0  0  0  0  0  0
    0.3724    0.1995    1.5515 C   0  0  0  0  0  0  0  0  0  0  0  0
    0.3240    1.1016    2.7214 C   0  0  0  0  0  0  0  0  0  0  0  0
   -0.4741    1.3667    1.5730 O   0  0  0  0  0  0  0  0  0  0  0  0
   -0.3233   -1.0664    1.6247 C   0  0  0  0  0  0  0  0  0  0  0  0
   -0.8725   -2.1348    1.6706 C   0  0  0  0  0  0  0  0  0  0  0  0
    1.4232   -0.7966   -3.3281 H   0  0  0  0  0  0  0  0  0  0  0  0
    3.0085   -0.6238   -1.6045 H   0  0  0  0  0  0  0  0  0  0  0  0
    2.7803    1.1191   -1.7799 H   0  0  0  0  0  0  0  0  0  0  0  0
    0.3723    0.8768   -1.1474 H   0  0  0  0  0  0  0  0  0  0  0  0
    0.5778   -0.8670   -0.9946 H   0  0  0  0  0  0  0  0  0  0  0  0
    2.2661   -0.5009    0.8449 H   0  0  0  0  0  0  0  0  0  0  0  0
    2.0228    1.2422    0.7025 H   0  0  0  0  0  0  0  0  0  0  0  0
   -0.2207    0.7927    3.6116 H   0  0  0  0  0  0  0  0  0  0  0  0
    1.1541    1.7870    2.8896 H   0  0  0  0  0  0  0  0  0  0  0  0
   -1.3702   -3.0720    1.7178 H   0  0  0  0  0  0  0  0  0  0  0  0
  1  2  1  0
  2  3  1  0
  3  4  1  0
  4  5  1  0
  5  6  1  0
  6  7  1  0
  5  8  1  0
  8  9  3  0
  7  5  1  0
  1 10  1  0
  2 11  1  0
  2 12  1  0
  3 13  1  0
  3 14  1  0
  4 15  1  0
  4 16  1  0
  6 17  1  0
  6 18  1  0
  9 19  1  0
M  END
$$$$
