gdb 1637	3.6768455	1.0470941	0.9215806	3.7285	75.76	-0.24145	-0.01572	0.22573	1291.1033	0.154676	-422.547527	-422.538598	-422.537654	-422.581415	33.266
 OpenBabel02181911403D

 19 20  0  0  1  0  0  0  0  0999 V2000
   -3.9467   -1.2796   -1.2562 C   0  0  0  0  0  0  0  0  0  0  0  0
   -3.0826   -0.0439   -1.1254 C   0  0  2  0  0  0  0  0  0  0  0  0
   -3.5458    1.2287   -1.6969 C   0  0  0  0  0  0  0  0  0  0  0  0
   -2.5435    0.4504   -2.3624 O   0  0  0  0  0  0  0  0  0  0  0  0
   -2.1074   -0.0511    0.0327 C   0  0  0  0  0  0  0  0  0  0  0  0
   -0.9511   -1.1069   -0.0346 C   0  0  0  0  0  0  0  0  0  0  0  0
    0.0088    0.0175    0.3814 C   0  0  0  0  0  0  0  0  0  0  0  0
    1.1163    0.0366    0.8323 O   0  0  0  0  0  0  0  0  0  0  0  0
   -1.0517    1.0938    0.1162 C   0  0  0  0  0  0  0  0  0  0  0  0
   -4.5790   -1.4049   -0.3706 H   0  0  0  0  0  0  0  0  0  0  0  0
   -4.5891   -1.2096   -2.1370 H   0  0  0  0  0  0  0  0  0  0  0  0
   -3.3278   -2.1774   -1.3554 H   0  0  0  0  0  0  0  0  0  0  0  0
   -4.5098    1.2724   -2.2019 H   0  0  0  0  0  0  0  0  0  0  0  0
   -3.2003    2.1734   -1.2800 H   0  0  0  0  0  0  0  0  0  0  0  0
   -2.6629   -0.1489    0.9704 H   0  0  0  0  0  0  0  0  0  0  0  0
   -0.9937   -1.9831    0.6159 H   0  0  0  0  0  0  0  0  0  0  0  0
   -0.7502   -1.4310   -1.0621 H   0  0  0  0  0  0  0  0  0  0  0  0
   -1.1691    1.8733    0.8718 H   0  0  0  0  0  0  0  0  0  0  0  0
   -0.8892    1.5515   -0.8660 H   0  0  0  0  0  0  0  0  0  0  0  0
  1 10  1  0  0  0  0
  2  1  1  6  0  0  0
  2  5  1  0  0  0  0
  3 14  1  0  0  0  0
  3  2  1  0  0  0  0
  4  3  1  0  0  0  0
  4  2  1  0  0  0  0
  5  9  1  0  0  0  0
  5 15  1  0  0  0  0
  6  5  1  0  0  0  0
  6  7  1  0  0  0  0
  6 16  1  0  0  0  0
  7  8  2  0  0  0  0
  9  7  1  0  0  0  0
  9 18  1  0  0  0  0
 11  1  1  0  0  0  0
 12  1  1  0  0  0  0
 13  3  1  0  0  0  0
 17  6  1  0  0  0  0
 19  9  1  0  0  0  0
M TOR 0 0 1 2 3
M TOR 1 0 1 2 12
M TOR 2 0 1 2 13
M TOR 3 0 1 4 5
M TOR 4 0 1 4 8
M TOR 5 0 1 4 14
M TOR 6 1 3 2 12
M TOR 7 1 3 2 13
M TOR 8 1 4 5 6
M TOR 9 1 4 5 15
M TOR 10 1 4 5 16
M TOR 11 1 4 8 6
M TOR 12 1 4 8 17
M TOR 13 1 4 8 18
M TOR 14 2 1 0 9
M TOR 15 2 1 0 10
M TOR 16 2 1 0 11
M TOR 17 2 1 4 5
M TOR 18 2 1 4 8
M TOR 19 2 1 4 14
M TOR 20 2 3 1 4
M TOR 21 3 1 0 9
M TOR 22 3 1 0 10
M TOR 23 3 1 0 11
M TOR 24 3 1 4 5
M TOR 25 3 1 4 8
M TOR 26 3 1 4 14
M TOR 27 4 1 0 9
M TOR 28 4 1 0 10
M TOR 29 4 1 0 11
M TOR 30 4 1 2 12
M TOR 31 4 1 2 13
M TOR 32 4 5 6 7
M TOR 33 4 5 6 8
M TOR 34 4 8 6 7
M TOR 35 5 4 8 17
M TOR 36 5 4 8 18
M TOR 37 5 6 8 17
M TOR 38 5 6 8 18
M TOR 39 6 5 4 14
M TOR 40 6 8 4 14
M TOR 41 7 6 5 15
M TOR 42 7 6 5 16
M TOR 43 7 6 8 17
M TOR 44 7 6 8 18
M TOR 45 8 4 5 15
M TOR 46 8 4 5 16
M TOR 47 8 6 5 15
M TOR 48 8 6 5 16
M  END
$$$$
