
     RDKit          3D

 19 20  0  0  0  0  0  0  0  0999 V2000
   -2.5653    2.2081    3.0533 C   0  0  0  0  0  0  0  0  0  0  0  0
   -2.4695    0.9054    2.2726 C   0  0  0  0  0  0  0  0  0  0  0  0
   -2.9115   -0.3955    3.0013 C   0  0  0  0  0  0  0  0  0  0  0  0
   -1.6673   -1.0482    2.6842 O   0  0  0  0  0  0  0  0  0  0  0  0
   -1.1094    0.1625    2.1281 C   0  0  0  0  0  0  0  0  0  0  0  0
   -0.7874    0.0287    0.6265 C   0  0  0  0  0  0  0  0  0  0  0  0
    0.2957    0.8486    0.1963 O   0  0  0  0  0  0  0  0  0  0  0  0
   -2.0559    0.5130   -0.0309 C   0  0  0  0  0  0  0  0  0  0  0  0
   -2.9415    0.9883    0.8447 C   0  0  0  0  0  0  0  0  0  0  0  0
   -2.1484    2.0979    4.0596 H   0  0  0  0  0  0  0  0  0  0  0  0
   -2.0214    3.0097    2.5438 H   0  0  0  0  0  0  0  0  0  0  0  0
   -3.6089    2.5276    3.1573 H   0  0  0  0  0  0  0  0  0  0  0  0
   -3.0421   -0.2771    4.0858 H   0  0  0  0  0  0  0  0  0  0  0  0
   -3.7760   -0.9275    2.5876 H   0  0  0  0  0  0  0  0  0  0  0  0
   -0.2552    0.5325    2.7085 H   0  0  0  0  0  0  0  0  0  0  0  0
   -0.5907   -1.0307    0.4012 H   0  0  0  0  0  0  0  0  0  0  0  0
    1.1147    0.4201    0.4659 H   0  0  0  0  0  0  0  0  0  0  0  0
   -2.1866    0.4779   -1.1064 H   0  0  0  0  0  0  0  0  0  0  0  0
   -3.9174    1.3896    0.5877 H   0  0  0  0  0  0  0  0  0  0  0  0
  1  2  1  0
  2  3  1  0
  3  4  1  0
  4  5  1  0
  5  6  1  0
  6  7  1  0
  6  8  1  0
  8  9  2  0
  5  2  1  0
  9  2  1  0
  1 10  1  0
  1 11  1  0
  1 12  1  0
  3 13  1  0
  3 14  1  0
  5 15  1  0
  6 16  1  0
  7 17  1  0
  8 18  1  0
  9 19  1  0
M  END
$$$$
