gdb 1347	2.6547475	1.2660463	0.9465154	1.5804	76.77	-0.23957	-0.03218	0.20739000000000002	1243.5068	0.156143	-422.577263	-422.568216	-422.567272	-422.611702	32.928
 OpenBabel02181911403D

 19 19  0  0  1  0  0  0  0  0999 V2000
   -0.2392    0.7362   -3.8302 O   0  0  0  0  0  0  0  0  0  0  0  0
   -0.4080    1.0292   -2.4488 C   0  0  2  0  0  0  0  0  0  0  0  0
   -1.6878    1.8345   -2.2673 C   0  0  0  0  0  0  0  0  0  0  0  0
   -2.4080    1.7892   -1.3031 O   0  0  0  0  0  0  0  0  0  0  0  0
    0.8099    1.8550   -1.9843 C   0  0  2  0  0  0  0  0  0  0  0  0
    2.1321    1.0764   -2.2491 C   0  0  0  0  0  0  0  0  0  0  0  0
    2.5050    0.5435   -0.8875 C   0  0  0  0  0  0  0  0  0  0  0  0
    1.7765    1.0892    0.0838 C   0  0  0  0  0  0  0  0  0  0  0  0
    0.7734    2.0862   -0.4450 C   0  0  0  0  0  0  0  0  0  0  0  0
   -0.8904    0.0747   -4.0842 H   0  0  0  0  0  0  0  0  0  0  0  0
   -0.4740    0.1164   -1.8396 H   0  0  0  0  0  0  0  0  0  0  0  0
   -1.9062    2.4944   -3.1392 H   0  0  0  0  0  0  0  0  0  0  0  0
    0.7958    2.7990   -2.5374 H   0  0  0  0  0  0  0  0  0  0  0  0
    1.9957    0.2982   -3.0055 H   0  0  0  0  0  0  0  0  0  0  0  0
    2.9131    1.7447   -2.6366 H   0  0  0  0  0  0  0  0  0  0  0  0
    3.3001   -0.1800   -0.7443 H   0  0  0  0  0  0  0  0  0  0  0  0
    1.8832    0.8817    1.1427 H   0  0  0  0  0  0  0  0  0  0  0  0
   -0.2290    1.9441   -0.0271 H   0  0  0  0  0  0  0  0  0  0  0  0
    1.0676    3.1131   -0.1892 H   0  0  0  0  0  0  0  0  0  0  0  0
  1  2  1  0  0  0  0
  2  3  1  0  0  0  0
  2  5  1  0  0  0  0
  2 11  1  1  0  0  0
  3  4  2  0  0  0  0
  5 13  1  6  0  0  0
  5  9  1  0  0  0  0
  6  5  1  0  0  0  0
  6  7  1  0  0  0  0
  7 16  1  0  0  0  0
  7  8  2  0  0  0  0
  8 17  1  0  0  0  0
  9 19  1  0  0  0  0
  9 18  1  0  0  0  0
  9  8  1  0  0  0  0
 10  1  1  0  0  0  0
 12  3  1  0  0  0  0
 14  6  1  0  0  0  0
 15  6  1  0  0  0  0
M TOR 0 0 1 2 3
M TOR 1 0 1 2 11
M TOR 2 0 1 4 5
M TOR 3 0 1 4 8
M TOR 4 0 1 4 12
M TOR 5 1 4 5 6
M TOR 6 1 4 5 13
M TOR 7 1 4 5 14
M TOR 8 1 4 8 7
M TOR 9 1 4 8 17
M TOR 10 1 4 8 18
M TOR 11 2 1 0 9
M TOR 12 2 1 4 5
M TOR 13 2 1 4 8
M TOR 14 2 1 4 12
M TOR 15 3 2 1 4
M TOR 16 3 2 1 10
M TOR 17 4 1 0 9
M TOR 18 4 1 2 11
M TOR 19 4 5 6 7
M TOR 20 4 5 6 15
M TOR 21 4 8 7 6
M TOR 22 4 8 7 16
M TOR 23 5 4 1 10
M TOR 24 5 4 8 7
M TOR 25 5 4 8 17
M TOR 26 5 4 8 18
M TOR 27 5 6 7 8
M TOR 28 5 6 7 16
M TOR 29 6 5 4 8
M TOR 30 6 5 4 12
M TOR 31 6 7 8 17
M TOR 32 6 7 8 18
M TOR 33 7 6 5 13
M TOR 34 7 6 5 14
M TOR 35 7 8 4 12
M TOR 36 8 4 1 10
M TOR 37 8 4 5 13
M TOR 38 8 4 5 14
M TOR 39 8 7 6 15
M  END
$$$$
