
     RDKit          3D

 19 20  0  0  0  0  0  0  0  0999 V2000
   -1.0749   -0.5376   -2.8048 C   0  0  0  0  0  0  0  0  0  0  0  0
   -0.0233   -1.0657   -1.8749 C   0  0  0  0  0  0  0  0  0  0  0  0
   -0.2387   -2.0851   -0.7606 C   0  0  0  0  0  0  0  0  0  0  0  0
    1.0895   -2.6387   -0.9653 O   0  0  0  0  0  0  0  0  0  0  0  0
    1.2876   -1.7712   -2.0914 C   0  0  0  0  0  0  0  0  0  0  0  0
    2.0266   -2.3173   -3.2683 C   0  0  0  0  0  0  0  0  0  0  0  0
    1.3083   -0.3209   -1.6279 C   0  0  0  0  0  0  0  0  0  0  0  0
    1.8198    0.1000   -0.3038 C   0  0  0  0  0  0  0  0  0  0  0  0
    2.3158    1.1832   -0.0932 O   0  0  0  0  0  0  0  0  0  0  0  0
   -1.7282   -1.3442   -3.1562 H   0  0  0  0  0  0  0  0  0  0  0  0
   -1.7029    0.2129   -2.3113 H   0  0  0  0  0  0  0  0  0  0  0  0
   -0.6254   -0.0635   -3.6826 H   0  0  0  0  0  0  0  0  0  0  0  0
   -0.3989   -1.7315    0.2632 H   0  0  0  0  0  0  0  0  0  0  0  0
   -1.0042   -2.8276   -1.0162 H   0  0  0  0  0  0  0  0  0  0  0  0
    1.5578   -3.2394   -3.6256 H   0  0  0  0  0  0  0  0  0  0  0  0
    2.0419   -1.5897   -4.0845 H   0  0  0  0  0  0  0  0  0  0  0  0
    3.0633   -2.5438   -2.9971 H   0  0  0  0  0  0  0  0  0  0  0  0
    1.5220    0.3958   -2.4165 H   0  0  0  0  0  0  0  0  0  0  0  0
    1.7410   -0.6585    0.5009 H   0  0  0  0  0  0  0  0  0  0  0  0
  1  2  1  0
  2  3  1  0
  3  4  1  0
  4  5  1  0
  5  6  1  0
  5  7  1  0
  7  8  1  0
  8  9  2  0
  5  2  1  0
  7  2  1  0
  1 10  1  0
  1 11  1  0
  1 12  1  0
  3 13  1  0
  3 14  1  0
  6 15  1  0
  6 16  1  0
  6 17  1  0
  7 18  1  0
  8 19  1  0
M  END
$$$$
