
     RDKit          3D

 19 19  0  0  0  0  0  0  0  0999 V2000
   -0.9603    0.5440    1.1341 O   0  0  0  0  0  0  0  0  0  0  0  0
   -0.2563   -0.0688    0.0624 C   0  0  0  0  0  0  0  0  0  0  0  0
   -0.5537    0.6088   -1.2798 C   0  0  0  0  0  0  0  0  0  0  0  0
    0.1245   -0.0713   -2.4804 C   0  0  0  0  0  0  0  0  0  0  0  0
   -0.3958    0.3751   -3.8661 C   0  0  0  0  0  0  0  0  0  0  0  0
    0.8487    0.6703   -4.6627 C   0  0  0  0  0  0  0  0  0  0  0  0
    1.9700    0.5622   -3.9410 C   0  0  0  0  0  0  0  0  0  0  0  0
    1.6469    0.1762   -2.5495 C   0  0  0  0  0  0  0  0  0  0  0  0
    2.4248    0.0793   -1.6254 O   0  0  0  0  0  0  0  0  0  0  0  0
   -0.5367    1.3887    1.3151 H   0  0  0  0  0  0  0  0  0  0  0  0
    0.8246   -0.0945    0.2409 H   0  0  0  0  0  0  0  0  0  0  0  0
   -0.6086   -1.1070    0.0312 H   0  0  0  0  0  0  0  0  0  0  0  0
   -1.6401    0.6115   -1.4276 H   0  0  0  0  0  0  0  0  0  0  0  0
   -0.2417    1.6618   -1.2337 H   0  0  0  0  0  0  0  0  0  0  0  0
   -0.0030   -1.1582   -2.3825 H   0  0  0  0  0  0  0  0  0  0  0  0
   -1.0168   -0.3848   -4.3545 H   0  0  0  0  0  0  0  0  0  0  0  0
   -1.0219    1.2745   -3.7933 H   0  0  0  0  0  0  0  0  0  0  0  0
    0.8036    0.9557   -5.7088 H   0  0  0  0  0  0  0  0  0  0  0  0
    2.9842    0.7465   -4.2713 H   0  0  0  0  0  0  0  0  0  0  0  0
  1  2  1  0
  2  3  1  0
  3  4  1  0
  4  5  1  0
  5  6  1  0
  6  7  2  0
  7  8  1  0
  8  9  2  0
  8  4  1  0
  1 10  1  0
  2 11  1  0
  2 12  1  0
  3 13  1  0
  3 14  1  0
  4 15  1  0
  5 16  1  0
  5 17  1  0
  6 18  1  0
  7 19  1  0
M  END
$$$$
