
     RDKit          3D

 19 21  0  0  0  0  0  0  0  0999 V2000
    1.0728    0.8833    0.4934 O   0  0  0  0  0  0  0  0  0  0  0  0
   -0.1241    0.2688    0.0305 C   0  0  0  0  0  0  0  0  0  0  0  0
   -1.3533    1.0671    0.3914 C   0  0  0  0  0  0  0  0  0  0  0  0
   -1.8899    1.0402    1.8586 C   0  0  0  0  0  0  0  0  0  0  0  0
   -3.3057    0.6424    1.3343 C   0  0  0  0  0  0  0  0  0  0  0  0
   -2.7814    0.6808   -0.1308 C   0  0  0  0  0  0  0  0  0  0  0  0
   -2.8343    2.0467   -0.8567 C   0  0  0  0  0  0  0  0  0  0  0  0
   -2.6768    3.0804    0.1230 O   0  0  0  0  0  0  0  0  0  0  0  0
   -1.4992    2.4205   -0.3537 C   0  0  0  0  0  0  0  0  0  0  0  0
    1.0142    0.9480    1.4524 H   0  0  0  0  0  0  0  0  0  0  0  0
   -0.0193    0.2058   -1.0593 H   0  0  0  0  0  0  0  0  0  0  0  0
   -0.2189   -0.7620    0.4084 H   0  0  0  0  0  0  0  0  0  0  0  0
   -1.4180    0.2677    2.4743 H   0  0  0  0  0  0  0  0  0  0  0  0
   -1.8443    1.9942    2.3860 H   0  0  0  0  0  0  0  0  0  0  0  0
   -3.6252   -0.3540    1.6474 H   0  0  0  0  0  0  0  0  0  0  0  0
   -4.0991    1.3570    1.5576 H   0  0  0  0  0  0  0  0  0  0  0  0
   -2.9297   -0.1910   -0.7695 H   0  0  0  0  0  0  0  0  0  0  0  0
   -3.3601    2.3158   -1.7662 H   0  0  0  0  0  0  0  0  0  0  0  0
   -0.7138    3.0444   -0.7655 H   0  0  0  0  0  0  0  0  0  0  0  0
  1  2  1  0
  2  3  1  0
  3  4  1  0
  4  5  1  0
  5  6  1  0
  6  7  1  0
  7  8  1  0
  8  9  1  0
  6  3  1  0
  9  7  1  0
  9  3  1  0
  1 10  1  0
  2 11  1  0
  2 12  1  0
  4 13  1  0
  4 14  1  0
  5 15  1  0
  5 16  1  0
  6 17  1  0
  7 18  1  0
  9 19  1  0
M  END
$$$$
