gdb 3909	3.3267756	1.1983743	1.0502346	2.3999	76.12	-0.24291	-0.02738	0.21553	1195.3821	0.155977	-422.550208	-422.541209	-422.540265	-422.584227	32.866
 OpenBabel02181911413D

 19 20  0  0  1  0  0  0  0  0999 V2000
   -0.7506    2.2681   -0.7067 O   0  0  0  0  0  0  0  0  0  0  0  0
   -0.9309    1.0887    0.0166 C   0  0  1  0  0  0  0  0  0  0  0  0
   -2.1766    0.1587   -0.2182 C   0  0  0  0  0  0  0  0  0  0  0  0
   -1.2577   -1.0915   -0.1164 C   0  0  0  0  0  0  0  0  0  0  0  0
   -1.1625   -1.9489    1.1843 C   0  0  0  0  0  0  0  0  0  0  0  0
   -0.8031   -3.1720    0.2998 C   0  0  0  0  0  0  0  0  0  0  0  0
   -1.3474   -2.4006   -0.9335 C   0  0  0  0  0  0  0  0  0  0  0  0
   -0.0997   -0.1307   -0.3902 C   0  0  0  0  0  0  0  0  0  0  0  0
    0.9230   -0.2122   -1.0168 O   0  0  0  0  0  0  0  0  0  0  0  0
   -0.1197    2.0752   -1.4117 H   0  0  0  0  0  0  0  0  0  0  0  0
   -0.8337    1.2981    1.0901 H   0  0  0  0  0  0  0  0  0  0  0  0
   -2.9835    0.2377    0.5124 H   0  0  0  0  0  0  0  0  0  0  0  0
   -2.5738    0.2915   -1.2282 H   0  0  0  0  0  0  0  0  0  0  0  0
   -0.4453   -1.6375    1.9482 H   0  0  0  0  0  0  0  0  0  0  0  0
   -2.1483   -2.0495    1.6486 H   0  0  0  0  0  0  0  0  0  0  0  0
    0.2772   -3.3218    0.2352 H   0  0  0  0  0  0  0  0  0  0  0  0
   -1.2762   -4.1238    0.5490 H   0  0  0  0  0  0  0  0  0  0  0  0
   -0.7560   -2.4321   -1.8516 H   0  0  0  0  0  0  0  0  0  0  0  0
   -2.3851   -2.6591   -1.1634 H   0  0  0  0  0  0  0  0  0  0  0  0
  1  2  1  0  0  0  0
  2 11  1  1  0  0  0
  3  4  1  0  0  0  0
  3  2  1  0  0  0  0
  3 12  1  0  0  0  0
  4  5  1  0  0  0  0
  5 15  1  0  0  0  0
  5 14  1  0  0  0  0
  6 17  1  0  0  0  0
  6  5  1  0  0  0  0
  7  4  1  0  0  0  0
  7  6  1  0  0  0  0
  8  4  1  0  0  0  0
  8  2  1  0  0  0  0
  9  8  2  0  0  0  0
 10  1  1  0  0  0  0
 13  3  1  0  0  0  0
 16  6  1  0  0  0  0
 18  7  1  0  0  0  0
 19  7  1  0  0  0  0
M TOR 0 0 1 2 3
M TOR 1 0 1 2 11
M TOR 2 0 1 2 12
M TOR 3 0 1 7 3
M TOR 4 0 1 7 8
M TOR 5 1 2 3 4
M TOR 6 1 2 3 6
M TOR 7 1 2 3 7
M TOR 8 1 7 3 4
M TOR 9 1 7 3 6
M TOR 10 2 1 0 9
M TOR 11 2 1 7 8
M TOR 12 2 3 4 5
M TOR 13 2 3 4 13
M TOR 14 2 3 4 14
M TOR 15 2 3 6 5
M TOR 16 2 3 6 17
M TOR 17 2 3 6 18
M TOR 18 2 3 7 8
M TOR 19 3 2 1 10
M TOR 20 3 4 5 6
M TOR 21 3 4 5 15
M TOR 22 3 4 5 16
M TOR 23 3 6 5 15
M TOR 24 3 6 5 16
M TOR 25 3 7 1 10
M TOR 26 4 3 2 11
M TOR 27 4 3 2 12
M TOR 28 4 3 6 17
M TOR 29 4 3 6 18
M TOR 30 4 3 7 8
M TOR 31 4 5 6 17
M TOR 32 4 5 6 18
M TOR 33 5 4 3 7
M TOR 34 5 6 3 7
M TOR 35 6 3 2 11
M TOR 36 6 3 2 12
M TOR 37 6 3 4 13
M TOR 38 6 3 4 14
M TOR 39 6 3 7 8
M TOR 40 6 5 4 13
M TOR 41 6 5 4 14
M TOR 42 7 1 0 9
M TOR 43 7 1 2 11
M TOR 44 7 1 2 12
M TOR 45 7 3 2 11
M TOR 46 7 3 2 12
M TOR 47 7 3 4 13
M TOR 48 7 3 4 14
M TOR 49 7 3 6 17
M TOR 50 7 3 6 18
M TOR 51 8 7 1 10
M  END
$$$$
