
     RDKit          3D

 19 20  0  0  0  0  0  0  0  0999 V2000
   -3.1692   -0.0072    1.1618 C   0  0  0  0  0  0  0  0  0  0  0  0
   -2.2150   -0.1758    0.0036 C   0  0  0  0  0  0  0  0  0  0  0  0
   -2.7221   -0.7195   -1.3505 C   0  0  0  0  0  0  0  0  0  0  0  0
   -1.4984   -1.6731   -1.4502 C   0  0  0  0  0  0  0  0  0  0  0  0
   -1.0408   -1.3102   -0.0114 C   0  0  0  0  0  0  0  0  0  0  0  0
   -0.8847   -2.3935    0.8347 O   0  0  0  0  0  0  0  0  0  0  0  0
   -0.0656   -0.1655    0.1498 C   0  0  0  0  0  0  0  0  0  0  0  0
    0.9963   -0.1388    0.7159 O   0  0  0  0  0  0  0  0  0  0  0  0
   -1.1092    0.9149   -0.1701 C   0  0  0  0  0  0  0  0  0  0  0  0
   -3.7220   -0.9332    1.3500 H   0  0  0  0  0  0  0  0  0  0  0  0
   -2.6392    0.2573    2.0837 H   0  0  0  0  0  0  0  0  0  0  0  0
   -3.8996    0.7859    0.9614 H   0  0  0  0  0  0  0  0  0  0  0  0
   -3.6635   -1.2672   -1.2556 H   0  0  0  0  0  0  0  0  0  0  0  0
   -2.8352    0.0223   -2.1459 H   0  0  0  0  0  0  0  0  0  0  0  0
   -1.7624   -2.7309   -1.4978 H   0  0  0  0  0  0  0  0  0  0  0  0
   -0.7750   -1.4616   -2.2414 H   0  0  0  0  0  0  0  0  0  0  0  0
   -0.2024   -2.1604    1.4784 H   0  0  0  0  0  0  0  0  0  0  0  0
   -1.1159    1.7222    0.5668 H   0  0  0  0  0  0  0  0  0  0  0  0
   -1.0376    1.3513   -1.1702 H   0  0  0  0  0  0  0  0  0  0  0  0
  1  2  1  0
  2  3  1  0
  3  4  1  0
  4  5  1  0
  5  6  1  0
  5  7  1  0
  7  8  2  0
  7  9  1  0
  5  2  1  0
  9  2  1  0
  1 10  1  0
  1 11  1  0
  1 12  1  0
  3 13  1  0
  3 14  1  0
  4 15  1  0
  4 16  1  0
  6 17  1  0
  9 18  1  0
  9 19  1  0
M  END
$$$$
