gdb 2130	2.8184997	1.7712499	1.3695891	1.0173	74.67	-0.22937	0.05996	0.28933	981.3075	0.157991	-422.496845	-422.489542	-422.488597	-422.52787	30.519
 OpenBabel02181911403D

 19 21  0  0  1  0  0  0  0  0999 V2000
    0.2495   -0.3579    0.3026 O   0  0  0  0  0  0  0  0  0  0  0  0
   -0.6958    0.5485    0.7703 C   0  0  1  0  0  0  0  0  0  0  0  0
   -0.4188    1.7833    1.6670 C   0  0  0  0  0  0  0  0  0  0  0  0
   -1.8861    2.0815    1.2026 C   0  0  1  0  0  0  0  0  0  0  0  0
   -2.1722    3.4409    0.5788 C   0  0  0  0  0  0  0  0  0  0  0  0
   -1.2818    2.9319   -0.6261 C   0  0  0  0  0  0  0  0  0  0  0  0
   -1.5264    1.4479   -0.1604 C   0  0  1  0  0  0  0  0  0  0  0  0
   -2.6662    1.1520    1.9420 O   0  0  0  0  0  0  0  0  0  0  0  0
   -1.9053   -0.0433    1.6004 C   0  0  0  0  0  0  0  0  0  0  0  0
    0.6572   -0.7966    1.0581 H   0  0  0  0  0  0  0  0  0  0  0  0
   -0.2868    1.6222    2.7393 H   0  0  0  0  0  0  0  0  0  0  0  0
    0.3403    2.4587    1.2770 H   0  0  0  0  0  0  0  0  0  0  0  0
   -3.2167    3.5446    0.2726 H   0  0  0  0  0  0  0  0  0  0  0  0
   -1.8600    4.3351    1.1239 H   0  0  0  0  0  0  0  0  0  0  0  0
   -1.6888    3.1390   -1.6161 H   0  0  0  0  0  0  0  0  0  0  0  0
   -0.2508    3.2850   -0.5962 H   0  0  0  0  0  0  0  0  0  0  0  0
   -2.3179    0.9631   -0.7352 H   0  0  0  0  0  0  0  0  0  0  0  0
   -1.5639   -0.5431    2.5148 H   0  0  0  0  0  0  0  0  0  0  0  0
   -2.5242   -0.7332    1.0157 H   0  0  0  0  0  0  0  0  0  0  0  0
  1 10  1  0  0  0  0
  2  1  1  6  0  0  0
  2  9  1  0  0  0  0
  2  3  1  0  0  0  0
  3 11  1  0  0  0  0
  4  3  1  0  0  0  0
  4  8  1  1  0  0  0
  5 14  1  0  0  0  0
  5  4  1  0  0  0  0
  6 16  1  0  0  0  0
  6  7  1  0  0  0  0
  6  5  1  0  0  0  0
  7 17  1  6  0  0  0
  7  2  1  0  0  0  0
  7  4  1  0  0  0  0
  9  8  1  0  0  0  0
  9 18  1  0  0  0  0
 12  3  1  0  0  0  0
 13  5  1  0  0  0  0
 15  6  1  0  0  0  0
 19  9  1  0  0  0  0
M TOR 0 0 1 2 3
M TOR 1 0 1 2 10
M TOR 2 0 1 2 11
M TOR 3 0 1 6 3
M TOR 4 0 1 6 5
M TOR 5 0 1 6 16
M TOR 6 0 1 8 7
M TOR 7 0 1 8 17
M TOR 8 0 1 8 18
M TOR 9 1 2 3 4
M TOR 10 1 2 3 6
M TOR 11 1 2 3 7
M TOR 12 1 6 3 4
M TOR 13 1 6 3 7
M TOR 14 1 6 5 4
M TOR 15 1 6 5 14
M TOR 16 1 6 5 15
M TOR 17 1 8 7 3
M TOR 18 2 1 0 9
M TOR 19 2 1 6 5
M TOR 20 2 1 6 16
M TOR 21 2 1 8 7
M TOR 22 2 1 8 17
M TOR 23 2 1 8 18
M TOR 24 2 3 4 5
M TOR 25 2 3 4 12
M TOR 26 2 3 4 13
M TOR 27 2 3 6 5
M TOR 28 2 3 6 16
M TOR 29 2 3 7 8
M TOR 30 3 2 1 8
M TOR 31 3 4 5 6
M TOR 32 3 4 5 14
M TOR 33 3 4 5 15
M TOR 34 3 6 1 8
M TOR 35 3 6 5 14
M TOR 36 3 6 5 15
M TOR 37 3 7 8 17
M TOR 38 3 7 8 18
M TOR 39 4 3 2 10
M TOR 40 4 3 2 11
M TOR 41 4 3 6 16
M TOR 42 4 3 7 8
M TOR 43 4 5 6 16
M TOR 44 5 4 3 7
M TOR 45 5 6 1 8
M TOR 46 5 6 3 7
M TOR 47 6 1 0 9
M TOR 48 6 1 2 10
M TOR 49 6 1 2 11
M TOR 50 6 1 8 7
M TOR 51 6 1 8 17
M TOR 52 6 1 8 18
M TOR 53 6 3 2 10
M TOR 54 6 3 2 11
M TOR 55 6 3 4 12
M TOR 56 6 3 4 13
M TOR 57 6 3 7 8
M TOR 58 6 5 4 12
M TOR 59 6 5 4 13
M TOR 60 7 3 2 10
M TOR 61 7 3 2 11
M TOR 62 7 3 4 12
M TOR 63 7 3 4 13
M TOR 64 7 3 6 16
M TOR 65 8 1 0 9
M TOR 66 8 1 2 10
M TOR 67 8 1 2 11
M TOR 68 8 1 6 16
M  END
$$$$
