gdb 3918	3.4032868	1.2922048	1.1474944	1.899	76.87	-0.24107	0.0623	0.30337000000000003	1129.9838	0.155907	-422.436195	-422.428177	-422.427232	-422.468062	32.337
 OpenBabel02181911413D

 19 21  0  0  1  0  0  0  0  0999 V2000
    0.0122    0.0892    0.0895 C   0  0  0  0  0  0  0  0  0  0  0  0
    1.5203    0.0352    0.1142 C   0  0  2  0  0  0  0  0  0  0  0  0
    2.0556   -0.7114   -1.0656 O   0  0  0  0  0  0  0  0  0  0  0  0
    2.9771   -1.3156   -0.1607 C   0  0  1  0  0  0  0  0  0  0  0  0
    3.5582   -2.5914    0.4742 C   0  0  0  0  0  0  0  0  0  0  0  0
    3.6423   -1.3490    1.5438 C   0  0  1  0  0  0  0  0  0  0  0  0
    4.2102   -1.3782    2.7959 O   0  0  0  0  0  0  0  0  0  0  0  0
    4.1898   -0.4997    0.4029 C   0  0  0  0  0  0  0  0  0  0  0  0
    2.1666   -1.0206    1.0884 C   0  0  1  0  0  0  0  0  0  0  0  0
   -0.3574    0.6240    0.9710 H   0  0  0  0  0  0  0  0  0  0  0  0
   -0.3355    0.6139   -0.8056 H   0  0  0  0  0  0  0  0  0  0  0  0
   -0.4132   -0.9183    0.0832 H   0  0  0  0  0  0  0  0  0  0  0  0
    1.9558    1.0381    0.1309 H   0  0  0  0  0  0  0  0  0  0  0  0
    2.8484   -3.3864    0.7131 H   0  0  0  0  0  0  0  0  0  0  0  0
    4.5211   -2.9776    0.1283 H   0  0  0  0  0  0  0  0  0  0  0  0
    3.6859   -1.9588    3.3582 H   0  0  0  0  0  0  0  0  0  0  0  0
    4.0660    0.5794    0.4964 H   0  0  0  0  0  0  0  0  0  0  0  0
    5.1780   -0.7647    0.0226 H   0  0  0  0  0  0  0  0  0  0  0  0
    1.4301   -1.7889    1.3425 H   0  0  0  0  0  0  0  0  0  0  0  0
  1  2  1  0  0  0  0
  1 10  1  0  0  0  0
  2 13  1  1  0  0  0
  2  9  1  0  0  0  0
  3  2  1  0  0  0  0
  4  3  1  6  0  0  0
  4  8  1  0  0  0  0
  4  5  1  0  0  0  0
  4  9  1  0  0  0  0
  5 14  1  0  0  0  0
  5  6  1  0  0  0  0
  6  7  1  1  0  0  0
  7 16  1  0  0  0  0
  8 17  1  0  0  0  0
  8  6  1  0  0  0  0
  9 19  1  1  0  0  0
  9  6  1  0  0  0  0
 11  1  1  0  0  0  0
 12  1  1  0  0  0  0
 15  5  1  0  0  0  0
 18  8  1  0  0  0  0
M TOR 0 0 1 2 3
M TOR 1 0 1 8 3
M TOR 2 0 1 8 5
M TOR 3 0 1 8 18
M TOR 4 1 2 3 4
M TOR 5 1 2 3 7
M TOR 6 1 2 3 8
M TOR 7 1 8 3 4
M TOR 8 1 8 3 7
M TOR 9 1 8 5 4
M TOR 10 1 8 5 6
M TOR 11 1 8 5 7
M TOR 12 2 1 0 9
M TOR 13 2 1 0 10
M TOR 14 2 1 0 11
M TOR 15 2 1 8 5
M TOR 16 2 1 8 18
M TOR 17 2 3 4 5
M TOR 18 2 3 4 13
M TOR 19 2 3 4 14
M TOR 20 2 3 7 5
M TOR 21 2 3 7 16
M TOR 22 2 3 7 17
M TOR 23 2 3 8 5
M TOR 24 2 3 8 18
M TOR 25 3 2 1 12
M TOR 26 3 4 5 6
M TOR 27 3 4 5 7
M TOR 28 3 4 5 8
M TOR 29 3 7 5 6
M TOR 30 3 7 5 8
M TOR 31 3 8 1 12
M TOR 32 3 8 5 6
M TOR 33 4 3 7 16
M TOR 34 4 3 7 17
M TOR 35 4 3 8 18
M TOR 36 4 5 6 15
M TOR 37 4 5 7 16
M TOR 38 4 5 7 17
M TOR 39 4 5 8 18
M TOR 40 5 8 1 12
M TOR 41 6 5 4 13
M TOR 42 6 5 4 14
M TOR 43 6 5 7 16
M TOR 44 6 5 7 17
M TOR 45 6 5 8 18
M TOR 46 7 3 4 13
M TOR 47 7 3 4 14
M TOR 48 7 3 8 18
M TOR 49 7 5 4 13
M TOR 50 7 5 4 14
M TOR 51 7 5 6 15
M TOR 52 7 5 8 18
M TOR 53 8 1 0 9
M TOR 54 8 1 0 10
M TOR 55 8 1 0 11
M TOR 56 8 3 4 13
M TOR 57 8 3 4 14
M TOR 58 8 3 7 16
M TOR 59 8 3 7 17
M TOR 60 8 5 4 13
M TOR 61 8 5 4 14
M TOR 62 8 5 6 15
M TOR 63 8 5 7 16
M TOR 64 8 5 7 17
M  END
$$$$
