
     RDKit          3D

 19 20  0  0  0  0  0  0  0  0999 V2000
   -0.1581    2.4591   -0.5046 C   0  0  0  0  0  0  0  0  0  0  0  0
   -1.0018    1.2723   -0.0509 C   0  0  0  0  0  0  0  0  0  0  0  0
   -1.9913    0.6794   -1.0771 C   0  0  0  0  0  0  0  0  0  0  0  0
   -2.2861   -0.7488   -0.5641 C   0  0  0  0  0  0  0  0  0  0  0  0
   -0.9554   -1.1902    0.0162 C   0  0  0  0  0  0  0  0  0  0  0  0
   -0.2171   -2.4145   -0.3492 C   0  0  0  0  0  0  0  0  0  0  0  0
   -0.8770   -2.3016    0.9047 O   0  0  0  0  0  0  0  0  0  0  0  0
   -0.1755    0.0616    0.3877 C   0  0  0  0  0  0  0  0  0  0  0  0
    0.9083    0.0769    0.9133 O   0  0  0  0  0  0  0  0  0  0  0  0
    0.5827    2.7093    0.2593 H   0  0  0  0  0  0  0  0  0  0  0  0
    0.3816    2.2230   -1.4279 H   0  0  0  0  0  0  0  0  0  0  0  0
   -0.7799    3.3394   -0.6919 H   0  0  0  0  0  0  0  0  0  0  0  0
   -1.5746    1.5588    0.8463 H   0  0  0  0  0  0  0  0  0  0  0  0
   -2.8965    1.2809   -1.1878 H   0  0  0  0  0  0  0  0  0  0  0  0
   -1.5091    0.6315   -2.0613 H   0  0  0  0  0  0  0  0  0  0  0  0
   -3.0323   -0.7204    0.2390 H   0  0  0  0  0  0  0  0  0  0  0  0
   -2.6631   -1.4178   -1.3408 H   0  0  0  0  0  0  0  0  0  0  0  0
   -0.6688   -3.1027   -1.0629 H   0  0  0  0  0  0  0  0  0  0  0  0
    0.8703   -2.4050   -0.3022 H   0  0  0  0  0  0  0  0  0  0  0  0
  1  2  1  0
  2  3  1  0
  3  4  1  0
  4  5  1  0
  5  6  1  0
  6  7  1  0
  5  8  1  0
  8  9  2  0
  8  2  1  0
  7  5  1  0
  1 10  1  0
  1 11  1  0
  1 12  1  0
  2 13  1  0
  3 14  1  0
  3 15  1  0
  4 16  1  0
  4 17  1  0
  6 18  1  0
  6 19  1  0
M  END
$$$$
