gdb 5426	1.5279275	1.4153785	0.792955	2.1841	80.27	-0.23591	0.0456	0.28151000000000004	1452.4263	0.153741	-422.489881	-422.479532	-422.478588	-422.525577	36.67
 OpenBabel02181911423D

 19 19  0  0  1  0  0  0  0  0999 V2000
    1.6416    0.4176   -0.2836 C   0  0  0  0  0  0  0  0  0  0  0  0
    0.2657    0.1034   -0.1593 O   0  0  0  0  0  0  0  0  0  0  0  0
   -0.2854    0.5419    1.0341 C   0  0  2  0  0  0  0  0  0  0  0  0
   -1.7551    0.7794    1.0676 C   0  0  2  0  0  0  0  0  0  0  0  0
   -2.6183    0.5901   -0.1592 C   0  0  0  0  0  0  0  0  0  0  0  0
   -3.8115    1.3556   -0.0966 O   0  0  0  0  0  0  0  0  0  0  0  0
   -0.7964    1.9824    1.1211 C   0  0  1  0  0  0  0  0  0  0  0  0
   -0.6399    2.7516    2.3163 C   0  0  0  0  0  0  0  0  0  0  0  0
   -0.5063    3.3867    3.3300 C   0  0  0  0  0  0  0  0  0  0  0  0
    2.2308   -0.0389    0.5249 H   0  0  0  0  0  0  0  0  0  0  0  0
    1.9763    0.0136   -1.2412 H   0  0  0  0  0  0  0  0  0  0  0  0
    1.8103    1.5031   -0.2668 H   0  0  0  0  0  0  0  0  0  0  0  0
    0.1910    0.1465    1.9321 H   0  0  0  0  0  0  0  0  0  0  0  0
   -2.2499    0.5467    2.0056 H   0  0  0  0  0  0  0  0  0  0  0  0
   -2.0351    0.8098   -1.0638 H   0  0  0  0  0  0  0  0  0  0  0  0
   -2.9408   -0.4541   -0.2289 H   0  0  0  0  0  0  0  0  0  0  0  0
   -3.5581    2.2772    0.0226 H   0  0  0  0  0  0  0  0  0  0  0  0
   -0.7095    2.5293    0.1847 H   0  0  0  0  0  0  0  0  0  0  0  0
   -0.3903    3.9510    4.2216 H   0  0  0  0  0  0  0  0  0  0  0  0
  1 12  1  0  0  0  0
  1  2  1  0  0  0  0
  1 10  1  0  0  0  0
  2  3  1  0  0  0  0
  3  4  1  0  0  0  0
  3  7  1  0  0  0  0
  3 13  1  1  0  0  0
  4  7  1  0  0  0  0
  4 14  1  1  0  0  0
  5  6  1  0  0  0  0
  5  4  1  0  0  0  0
  6 17  1  0  0  0  0
  7 18  1  6  0  0  0
  7  8  1  0  0  0  0
  8  9  3  0  0  0  0
  9 19  1  0  0  0  0
 11  1  1  0  0  0  0
 15  5  1  0  0  0  0
 16  5  1  0  0  0  0
M TOR 0 0 1 2 3
M TOR 1 0 1 2 6
M TOR 2 0 1 2 12
M TOR 3 1 2 3 4
M TOR 4 1 2 3 6
M TOR 5 1 2 3 13
M TOR 6 1 2 6 7
M TOR 7 1 2 6 17
M TOR 8 2 1 0 9
M TOR 9 2 1 0 10
M TOR 10 2 1 0 11
M TOR 11 2 3 4 5
M TOR 12 2 3 4 14
M TOR 13 2 3 4 15
M TOR 14 2 3 6 7
M TOR 15 2 3 6 17
M TOR 16 2 6 3 4
M TOR 17 2 6 3 13
M TOR 18 2 6 7 8
M TOR 19 3 4 5 16
M TOR 20 3 6 2 12
M TOR 21 3 6 7 8
M TOR 22 4 3 2 12
M TOR 23 4 3 6 7
M TOR 24 4 3 6 17
M TOR 25 5 4 3 6
M TOR 26 5 4 3 13
M TOR 27 6 3 4 14
M TOR 28 6 3 4 15
M TOR 29 6 7 8 18
M TOR 30 7 6 2 12
M TOR 31 7 6 3 13
M TOR 32 8 7 6 17
M  END
$$$$
