
     RDKit          3D

 19 20  0  0  0  0  0  0  0  0999 V2000
   -1.6189   -0.0933   -2.2218 C   0  0  0  0  0  0  0  0  0  0  0  0
   -1.8244   -0.0253   -0.7118 C   0  0  0  0  0  0  0  0  0  0  0  0
   -1.0539    1.1468   -0.0093 C   0  0  0  0  0  0  0  0  0  0  0  0
   -1.5567    1.2992    1.4481 C   0  0  0  0  0  0  0  0  0  0  0  0
   -2.0239   -0.0731    1.9794 C   0  0  0  0  0  0  0  0  0  0  0  0
   -1.2885   -1.1724    1.4384 O   0  0  0  0  0  0  0  0  0  0  0  0
   -0.8867   -0.9932    0.0804 C   0  0  0  0  0  0  0  0  0  0  0  0
    0.1373    0.1714    0.0483 C   0  0  0  0  0  0  0  0  0  0  0  0
    1.3269    0.2744   -0.0016 O   0  0  0  0  0  0  0  0  0  0  0  0
   -2.0212   -1.0256   -2.6309 H   0  0  0  0  0  0  0  0  0  0  0  0
   -2.1221    0.7404   -2.7217 H   0  0  0  0  0  0  0  0  0  0  0  0
   -0.5568   -0.0436   -2.4881 H   0  0  0  0  0  0  0  0  0  0  0  0
   -2.8848   -0.1058   -0.4635 H   0  0  0  0  0  0  0  0  0  0  0  0
   -0.9318    2.1039   -0.5208 H   0  0  0  0  0  0  0  0  0  0  0  0
   -0.7524    1.7100    2.0673 H   0  0  0  0  0  0  0  0  0  0  0  0
   -2.3931    2.0060    1.4922 H   0  0  0  0  0  0  0  0  0  0  0  0
   -1.9064   -0.1393    3.0643 H   0  0  0  0  0  0  0  0  0  0  0  0
   -3.0919   -0.2074    1.7606 H   0  0  0  0  0  0  0  0  0  0  0  0
   -0.6381   -1.9757   -0.3247 H   0  0  0  0  0  0  0  0  0  0  0  0
  1  2  1  0
  2  3  1  0
  3  4  1  0
  4  5  1  0
  5  6  1  0
  6  7  1  0
  7  8  1  0
  8  9  2  0
  7  2  1  0
  8  3  1  0
  1 10  1  0
  1 11  1  0
  1 12  1  0
  2 13  1  0
  3 14  1  0
  4 15  1  0
  4 16  1  0
  5 17  1  0
  5 18  1  0
  7 19  1  0
M  END
$$$$
