gdb 4668	2.7584915	1.2883727	1.0173187	2.0274	76.68	-0.24116	-0.02185	0.21931	1216.4081	0.155512	-422.52955	-422.520518	-422.519573	-422.564103	32.737
 OpenBabel02181911413D

 19 20  0  0  1  0  0  0  0  0999 V2000
   -0.0859   -0.0962   -0.0571 C   0  0  0  0  0  0  0  0  0  0  0  0
    1.0911    0.6550   -0.7047 C   0  0  0  0  0  0  0  0  0  0  0  0
    2.1344    1.0711    0.3226 C   0  0  0  0  0  0  0  0  0  0  0  0
    3.2251    0.5367    0.3749 O   0  0  0  0  0  0  0  0  0  0  0  0
    1.7754    2.1547    1.2692 C   0  0  1  0  0  0  0  0  0  0  0  0
    2.5838    2.3811    2.5441 C   0  0  0  0  0  0  0  0  0  0  0  0
    2.5725    3.4504    1.5256 C   0  0  2  0  0  0  0  0  0  0  0  0
    1.3959    4.2444    1.5945 O   0  0  0  0  0  0  0  0  0  0  0  0
    0.5670    3.0906    1.2876 C   0  0  0  0  0  0  0  0  0  0  0  0
   -0.6086    0.5207    0.6810 H   0  0  0  0  0  0  0  0  0  0  0  0
   -0.8143   -0.3933   -0.8166 H   0  0  0  0  0  0  0  0  0  0  0  0
    0.2632   -1.0006    0.4500 H   0  0  0  0  0  0  0  0  0  0  0  0
    1.5967    0.0170   -1.4334 H   0  0  0  0  0  0  0  0  0  0  0  0
    0.7175    1.5415   -1.2314 H   0  0  0  0  0  0  0  0  0  0  0  0
    2.0607    2.5335    3.4839 H   0  0  0  0  0  0  0  0  0  0  0  0
    3.4778    1.7680    2.5747 H   0  0  0  0  0  0  0  0  0  0  0  0
    3.4357    3.8490    1.0051 H   0  0  0  0  0  0  0  0  0  0  0  0
   -0.1967    2.9125    2.0537 H   0  0  0  0  0  0  0  0  0  0  0  0
    0.0885    3.2229    0.3114 H   0  0  0  0  0  0  0  0  0  0  0  0
  1 12  1  0  0  0  0
  1 10  1  0  0  0  0
  2  1  1  0  0  0  0
  2  3  1  0  0  0  0
  3  4  2  0  0  0  0
  5  3  1  6  0  0  0
  5  9  1  0  0  0  0
  5  7  1  0  0  0  0
  5  6  1  0  0  0  0
  6 16  1  0  0  0  0
  6 15  1  0  0  0  0
  7 17  1  6  0  0  0
  7  8  1  0  0  0  0
  7  6  1  0  0  0  0
  9  8  1  0  0  0  0
  9 18  1  0  0  0  0
 11  1  1  0  0  0  0
 13  2  1  0  0  0  0
 14  2  1  0  0  0  0
 19  9  1  0  0  0  0
M TOR 0 0 1 2 3
M TOR 1 0 1 2 4
M TOR 2 1 2 4 5
M TOR 3 1 2 4 6
M TOR 4 1 2 4 8
M TOR 5 2 1 0 9
M TOR 6 2 1 0 10
M TOR 7 2 1 0 11
M TOR 8 2 4 5 6
M TOR 9 2 4 5 14
M TOR 10 2 4 5 15
M TOR 11 2 4 6 7
M TOR 12 2 4 6 16
M TOR 13 2 4 8 7
M TOR 14 2 4 8 17
M TOR 15 2 4 8 18
M TOR 16 3 2 1 12
M TOR 17 3 2 1 13
M TOR 18 3 2 4 5
M TOR 19 3 2 4 6
M TOR 20 3 2 4 8
M TOR 21 4 2 1 12
M TOR 22 4 2 1 13
M TOR 23 4 5 6 7
M TOR 24 4 5 6 16
M TOR 25 4 6 5 14
M TOR 26 4 6 5 15
M TOR 27 4 6 7 8
M TOR 28 5 4 8 7
M TOR 29 5 4 8 17
M TOR 30 5 4 8 18
M TOR 31 5 6 4 8
M TOR 32 5 6 7 8
M TOR 33 6 4 8 17
M TOR 34 6 4 8 18
M TOR 35 6 7 8 17
M TOR 36 6 7 8 18
M TOR 37 7 6 5 14
M TOR 38 7 6 5 15
M TOR 39 8 4 5 14
M TOR 40 8 4 5 15
M TOR 41 8 4 6 16
M TOR 42 8 7 6 16
M  END
$$$$
