gdb 1263	3.1752222	1.4477824	1.2344426	2.1287	74.62	-0.23909	-0.00122	0.23787	1068.5666	0.156311	-422.520542	-422.512243	-422.511298	-422.553207	32.538
 OpenBabel02181911403D

 19 20  0  0  1  0  0  0  0  0999 V2000
   -0.0681    2.7710    4.5130 C   0  0  0  0  0  0  0  0  0  0  0  0
    1.0473    1.9032    3.9294 C   0  0  1  0  0  0  0  0  0  0  0  0
    2.0552    1.6247    4.8973 O   0  0  0  0  0  0  0  0  0  0  0  0
    0.5533    0.5867    3.3710 C   0  0  2  0  0  0  0  0  0  0  0  0
   -0.7237    0.3291    2.5061 C   0  0  0  0  0  0  0  0  0  0  0  0
   -0.5136   -1.0368    3.2225 C   0  0  2  0  0  0  0  0  0  0  0  0
   -0.0630   -0.2831    4.3998 O   0  0  0  0  0  0  0  0  0  0  0  0
    0.8253   -1.5042    2.6204 C   0  0  0  0  0  0  0  0  0  0  0  0
    1.5569   -0.3948    2.7245 C   0  0  0  0  0  0  0  0  0  0  0  0
   -0.6416    2.2045    5.2527 H   0  0  0  0  0  0  0  0  0  0  0  0
    0.3688    3.6468    4.9987 H   0  0  0  0  0  0  0  0  0  0  0  0
   -0.7569    3.1128    3.7335 H   0  0  0  0  0  0  0  0  0  0  0  0
    1.5564    2.4499    3.1254 H   0  0  0  0  0  0  0  0  0  0  0  0
    1.6935    0.9463    5.4814 H   0  0  0  0  0  0  0  0  0  0  0  0
   -1.6007    0.8680    2.8713 H   0  0  0  0  0  0  0  0  0  0  0  0
   -0.6349    0.3700    1.4190 H   0  0  0  0  0  0  0  0  0  0  0  0
   -1.3118   -1.7502    3.4215 H   0  0  0  0  0  0  0  0  0  0  0  0
    1.0623   -2.4812    2.2261 H   0  0  0  0  0  0  0  0  0  0  0  0
    2.5802   -0.1791    2.4568 H   0  0  0  0  0  0  0  0  0  0  0  0
  1 11  1  0  0  0  0
  1 10  1  0  0  0  0
  2 13  1  6  0  0  0
  2  1  1  0  0  0  0
  2  3  1  0  0  0  0
  3 14  1  0  0  0  0
  4  2  1  1  0  0  0
  4  7  1  0  0  0  0
  5 15  1  0  0  0  0
  5  6  1  0  0  0  0
  5  4  1  0  0  0  0
  6 17  1  1  0  0  0
  6  7  1  0  0  0  0
  8  9  2  0  0  0  0
  8  6  1  0  0  0  0
  9  4  1  0  0  0  0
 12  1  1  0  0  0  0
 16  5  1  0  0  0  0
 18  8  1  0  0  0  0
 19  9  1  0  0  0  0
M TOR 0 0 1 2 13
M TOR 1 0 1 3 4
M TOR 2 0 1 3 6
M TOR 3 0 1 3 8
M TOR 4 1 3 4 5
M TOR 5 1 3 4 14
M TOR 6 1 3 4 15
M TOR 7 1 3 6 5
M TOR 8 1 3 8 7
M TOR 9 1 3 8 18
M TOR 10 2 1 0 9
M TOR 11 2 1 0 10
M TOR 12 2 1 0 11
M TOR 13 2 1 3 4
M TOR 14 2 1 3 6
M TOR 15 2 1 3 8
M TOR 16 3 1 0 9
M TOR 17 3 1 0 10
M TOR 18 3 1 0 11
M TOR 19 3 1 2 13
M TOR 20 3 4 5 6
M TOR 21 3 4 5 7
M TOR 22 3 4 5 16
M TOR 23 3 6 5 7
M TOR 24 3 6 5 16
M TOR 25 3 8 7 5
M TOR 26 3 8 7 17
M TOR 27 4 3 1 12
M TOR 28 4 3 8 7
M TOR 29 4 3 8 18
M TOR 30 4 5 7 8
M TOR 31 4 5 7 17
M TOR 32 5 4 3 8
M TOR 33 5 6 3 8
M TOR 34 5 7 8 18
M TOR 35 6 3 1 12
M TOR 36 6 3 4 14
M TOR 37 6 3 4 15
M TOR 38 6 3 8 7
M TOR 39 6 3 8 18
M TOR 40 6 5 4 14
M TOR 41 6 5 4 15
M TOR 42 6 5 7 8
M TOR 43 6 5 7 17
M TOR 44 7 5 4 14
M TOR 45 7 5 4 15
M TOR 46 8 3 1 12
M TOR 47 8 3 4 14
M TOR 48 8 3 4 15
M TOR 49 8 7 5 16
M  END
$$$$
