gdb 653	2.1525818	1.8109966	1.7501347	2.4466	73.76	-0.23242	-0.01949	0.21292999999999998	949.3793	0.159892	-422.593271	-422.585916	-422.584972	-422.624839	29.071
 OpenBabel02181911403D

 19 20  0  0  1  0  0  0  0  0999 V2000
    1.1816    0.0038   -0.1293 O   0  0  0  0  0  0  0  0  0  0  0  0
   -0.0161   -0.0066   -0.0331 C   0  0  0  0  0  0  0  0  0  0  0  0
   -0.9727   -1.1921    0.0251 C   0  0  1  0  0  0  0  0  0  0  0  0
   -1.9886   -0.6659    1.0440 C   0  0  0  0  0  0  0  0  0  0  0  0
   -2.0128    0.7708    0.8854 O   0  0  0  0  0  0  0  0  0  0  0  0
   -0.9850    1.1714   -0.0214 C   0  0  2  0  0  0  0  0  0  0  0  0
   -1.5398    1.2830   -1.4607 C   0  0  0  0  0  0  0  0  0  0  0  0
   -2.3203    0.0002   -1.8086 C   0  0  0  0  0  0  0  0  0  0  0  0
   -1.5718   -1.2892   -1.4089 C   0  0  0  0  0  0  0  0  0  0  0  0
   -0.4838   -2.1201    0.3232 H   0  0  0  0  0  0  0  0  0  0  0  0
   -3.0020   -1.0512    0.8837 H   0  0  0  0  0  0  0  0  0  0  0  0
   -1.6856   -0.9101    2.0706 H   0  0  0  0  0  0  0  0  0  0  0  0
   -0.5322    2.1007    0.3304 H   0  0  0  0  0  0  0  0  0  0  0  0
   -2.1914    2.1591   -1.5415 H   0  0  0  0  0  0  0  0  0  0  0  0
   -0.6981    1.4380   -2.1474 H   0  0  0  0  0  0  0  0  0  0  0  0
   -3.2803    0.0343   -1.2839 H   0  0  0  0  0  0  0  0  0  0  0  0
   -2.5522   -0.0233   -2.8781 H   0  0  0  0  0  0  0  0  0  0  0  0
   -2.2504   -2.1478   -1.4622 H   0  0  0  0  0  0  0  0  0  0  0  0
   -0.7523   -1.4882   -2.1097 H   0  0  0  0  0  0  0  0  0  0  0  0
  1  2  2  0  0  0  0
  2  6  1  0  0  0  0
  2  3  1  0  0  0  0
  3 10  1  1  0  0  0
  3  4  1  0  0  0  0
  4 12  1  0  0  0  0
  5  4  1  0  0  0  0
  6 13  1  1  0  0  0
  6  5  1  0  0  0  0
  7  6  1  0  0  0  0
  8  7  1  0  0  0  0
  8  9  1  0  0  0  0
  8 16  1  0  0  0  0
  9  3  1  0  0  0  0
 11  4  1  0  0  0  0
 14  7  1  0  0  0  0
 15  7  1  0  0  0  0
 17  8  1  0  0  0  0
 18  9  1  0  0  0  0
 19  9  1  0  0  0  0
M TOR 0 0 1 2 3
M TOR 1 0 1 2 8
M TOR 2 0 1 2 9
M TOR 3 0 1 5 4
M TOR 4 0 1 5 6
M TOR 5 0 1 5 12
M TOR 6 1 2 3 4
M TOR 7 1 2 3 10
M TOR 8 1 2 3 11
M TOR 9 1 2 8 7
M TOR 10 1 2 8 17
M TOR 11 1 2 8 18
M TOR 12 1 5 4 3
M TOR 13 1 5 6 7
M TOR 14 1 5 6 13
M TOR 15 1 5 6 14
M TOR 16 2 1 5 4
M TOR 17 2 1 5 6
M TOR 18 2 1 5 12
M TOR 19 2 3 4 5
M TOR 20 2 8 7 6
M TOR 21 2 8 7 15
M TOR 22 2 8 7 16
M TOR 23 3 2 1 5
M TOR 24 3 2 8 7
M TOR 25 3 2 8 17
M TOR 26 3 2 8 18
M TOR 27 3 4 5 6
M TOR 28 3 4 5 12
M TOR 29 4 3 2 8
M TOR 30 4 3 2 9
M TOR 31 4 5 6 7
M TOR 32 4 5 6 13
M TOR 33 4 5 6 14
M TOR 34 5 1 2 8
M TOR 35 5 1 2 9
M TOR 36 5 4 3 10
M TOR 37 5 4 3 11
M TOR 38 5 6 7 8
M TOR 39 5 6 7 15
M TOR 40 5 6 7 16
M TOR 41 6 7 8 17
M TOR 42 6 7 8 18
M TOR 43 7 6 5 12
M TOR 44 7 8 2 9
M TOR 45 8 2 3 10
M TOR 46 8 2 3 11
M TOR 47 8 7 6 13
M TOR 48 8 7 6 14
M  END
$$$$
