gdb 2621	2.5091439	1.6457166	1.1815014	3.1368	74.71	-0.24472	-0.01852	0.22619999999999998	1089.0264	0.155442	-422.58557	-422.576749	-422.575805	-422.618834	33.146
 OpenBabel02181911413D

 19 20  0  0  1  0  0  0  0  0999 V2000
   -0.6223   -2.1809    1.2097 C   0  0  0  0  0  0  0  0  0  0  0  0
   -0.7715   -1.1321    0.1051 C   0  0  2  0  0  0  0  0  0  0  0  0
    0.0724    0.1296    0.3836 C   0  0  0  0  0  0  0  0  0  0  0  0
    1.1839    0.1226    0.8415 O   0  0  0  0  0  0  0  0  0  0  0  0
   -0.7195    1.3852   -0.0156 C   0  0  0  0  0  0  0  0  0  0  0  0
   -2.1335    0.8825   -0.1642 C   0  0  2  0  0  0  0  0  0  0  0  0
   -2.6032    0.2101    1.0149 O   0  0  0  0  0  0  0  0  0  0  0  0
   -2.1781   -0.5918   -0.1055 C   0  0  2  0  0  0  0  0  0  0  0  0
   -3.2386   -1.4312   -0.7622 C   0  0  0  0  0  0  0  0  0  0  0  0
   -1.0851   -3.1303    0.9259 H   0  0  0  0  0  0  0  0  0  0  0  0
    0.4378   -2.3545    1.4100 H   0  0  0  0  0  0  0  0  0  0  0  0
   -1.0932   -1.8263    2.1308 H   0  0  0  0  0  0  0  0  0  0  0  0
   -0.4035   -1.5480   -0.8458 H   0  0  0  0  0  0  0  0  0  0  0  0
   -0.6052    2.1655    0.7418 H   0  0  0  0  0  0  0  0  0  0  0  0
   -0.3251    1.7797   -0.9610 H   0  0  0  0  0  0  0  0  0  0  0  0
   -2.8818    1.4603   -0.7014 H   0  0  0  0  0  0  0  0  0  0  0  0
   -3.4472   -2.3282   -0.1695 H   0  0  0  0  0  0  0  0  0  0  0  0
   -4.1688   -0.8658   -0.8596 H   0  0  0  0  0  0  0  0  0  0  0  0
   -2.9175   -1.7543   -1.7581 H   0  0  0  0  0  0  0  0  0  0  0  0
  1 11  1  0  0  0  0
  1 12  1  0  0  0  0
  2 13  1  6  0  0  0
  2  3  1  0  0  0  0
  2  1  1  0  0  0  0
  3  4  2  0  0  0  0
  5  3  1  0  0  0  0
  5 14  1  0  0  0  0
  6 16  1  6  0  0  0
  6  8  1  0  0  0  0
  6  5  1  0  0  0  0
  6  7  1  0  0  0  0
  8  9  1  6  0  0  0
  8  2  1  0  0  0  0
  8  7  1  0  0  0  0
  9 17  1  0  0  0  0
 10  1  1  0  0  0  0
 15  5  1  0  0  0  0
 18  9  1  0  0  0  0
 19  9  1  0  0  0  0
M TOR 0 0 1 2 3
M TOR 1 0 1 2 4
M TOR 2 0 1 7 5
M TOR 3 0 1 7 6
M TOR 4 0 1 7 8
M TOR 5 1 2 4 5
M TOR 6 1 2 4 13
M TOR 7 1 2 4 14
M TOR 8 1 7 5 4
M TOR 9 1 7 5 6
M TOR 10 1 7 5 15
M TOR 11 1 7 8 16
M TOR 12 1 7 8 17
M TOR 13 1 7 8 18
M TOR 14 2 1 0 9
M TOR 15 2 1 0 10
M TOR 16 2 1 0 11
M TOR 17 2 1 7 5
M TOR 18 2 1 7 6
M TOR 19 2 1 7 8
M TOR 20 2 4 5 6
M TOR 21 2 4 5 7
M TOR 22 2 4 5 15
M TOR 23 3 2 1 7
M TOR 24 3 2 1 12
M TOR 25 3 2 4 5
M TOR 26 3 2 4 13
M TOR 27 3 2 4 14
M TOR 28 4 2 1 7
M TOR 29 4 2 1 12
M TOR 30 4 5 6 7
M TOR 31 4 5 7 8
M TOR 32 5 6 7 8
M TOR 33 5 7 1 12
M TOR 34 5 7 8 16
M TOR 35 5 7 8 17
M TOR 36 5 7 8 18
M TOR 37 6 5 4 13
M TOR 38 6 5 4 14
M TOR 39 6 7 1 12
M TOR 40 6 7 5 15
M TOR 41 6 7 8 16
M TOR 42 6 7 8 17
M TOR 43 6 7 8 18
M TOR 44 7 1 0 9
M TOR 45 7 1 0 10
M TOR 46 7 1 0 11
M TOR 47 7 5 4 13
M TOR 48 7 5 4 14
M TOR 49 8 7 1 12
M TOR 50 8 7 5 15
M  END
$$$$
