gdb 3104	2.9262716	1.3893916	1.1073564	2.676	74.78	-0.24088	0.06499	0.30587000000000003	1129.0457	0.156971	-422.465185	-422.457204	-422.45626	-422.497864	31.214
 OpenBabel02181911413D

 19 21  0  0  1  0  0  0  0  0999 V2000
   -0.7038    2.6329    0.1378 O   0  0  0  0  0  0  0  0  0  0  0  0
    0.1514    1.6006   -0.2234 C   0  0  1  0  0  0  0  0  0  0  0  0
    1.2901    1.0149    0.6812 C   0  0  2  0  0  0  0  0  0  0  0  0
    1.3055   -0.1416   -0.2348 O   0  0  0  0  0  0  0  0  0  0  0  0
   -0.1268    0.0881    0.0490 C   0  0  1  0  0  0  0  0  0  0  0  0
    0.2503    0.2419    1.5533 C   0  0  2  0  0  0  0  0  0  0  0  0
   -0.6577    0.8896    2.5829 C   0  0  0  0  0  0  0  0  0  0  0  0
   -0.1957    0.9975    4.0138 C   0  0  0  0  0  0  0  0  0  0  0  0
   -0.3597    2.2508    3.2000 C   0  0  0  0  0  0  0  0  0  0  0  0
   -0.9744    2.5091    1.0543 H   0  0  0  0  0  0  0  0  0  0  0  0
    0.4890    1.7838   -1.2444 H   0  0  0  0  0  0  0  0  0  0  0  0
    2.2550    1.4383    0.9655 H   0  0  0  0  0  0  0  0  0  0  0  0
   -0.8449   -0.5929   -0.4109 H   0  0  0  0  0  0  0  0  0  0  0  0
    0.6798   -0.6915    1.9292 H   0  0  0  0  0  0  0  0  0  0  0  0
   -1.7120    0.6520    2.4607 H   0  0  0  0  0  0  0  0  0  0  0  0
   -0.9105    0.7972    4.8038 H   0  0  0  0  0  0  0  0  0  0  0  0
    0.8166    0.6734    4.2336 H   0  0  0  0  0  0  0  0  0  0  0  0
   -1.1895    2.9110    3.4311 H   0  0  0  0  0  0  0  0  0  0  0  0
    0.5396    2.7658    2.8793 H   0  0  0  0  0  0  0  0  0  0  0  0
  1 10  1  0  0  0  0
  2 11  1  6  0  0  0
  2  5  1  0  0  0  0
  2  1  1  0  0  0  0
  2  3  1  0  0  0  0
  3 12  1  1  0  0  0
  3  6  1  0  0  0  0
  4  5  1  0  0  0  0
  4  3  1  0  0  0  0
  5 13  1  6  0  0  0
  5  6  1  0  0  0  0
  6 14  1  1  0  0  0
  6  7  1  0  0  0  0
  7  9  1  0  0  0  0
  7  8  1  0  0  0  0
  8 17  1  0  0  0  0
  8 16  1  0  0  0  0
  9 18  1  0  0  0  0
  9  8  1  0  0  0  0
 15  7  1  0  0  0  0
 19  9  1  0  0  0  0
M TOR 0 0 1 2 3
M TOR 1 0 1 2 5
M TOR 2 0 1 2 11
M TOR 3 0 1 4 3
M TOR 4 0 1 4 5
M TOR 5 0 1 4 12
M TOR 6 1 2 3 4
M TOR 7 1 2 5 4
M TOR 8 1 2 5 6
M TOR 9 1 2 5 13
M TOR 10 1 4 5 6
M TOR 11 1 4 5 13
M TOR 12 2 1 0 9
M TOR 13 2 1 4 12
M TOR 14 2 3 4 5
M TOR 15 2 3 4 12
M TOR 16 2 5 4 12
M TOR 17 2 5 6 7
M TOR 18 2 5 6 8
M TOR 19 2 5 6 14
M TOR 20 3 2 1 10
M TOR 21 3 2 5 6
M TOR 22 3 2 5 13
M TOR 23 3 4 1 10
M TOR 24 3 4 5 6
M TOR 25 3 4 5 13
M TOR 26 4 1 0 9
M TOR 27 4 1 2 11
M TOR 28 4 3 2 11
M TOR 29 4 5 2 11
M TOR 30 4 5 6 7
M TOR 31 4 5 6 8
M TOR 32 4 5 6 14
M TOR 33 5 2 1 10
M TOR 34 5 4 1 10
M TOR 35 5 6 7 8
M TOR 36 5 6 7 15
M TOR 37 5 6 7 16
M TOR 38 5 6 8 17
M TOR 39 5 6 8 18
M TOR 40 6 5 2 11
M TOR 41 6 5 4 12
M TOR 42 6 7 8 17
M TOR 43 6 7 8 18
M TOR 44 6 8 7 15
M TOR 45 6 8 7 16
M TOR 46 7 6 5 13
M TOR 47 7 8 6 14
M TOR 48 8 6 5 13
M  END
$$$$
