
     RDKit          3D

 19 21  0  0  0  0  0  0  0  0999 V2000
    1.0248    0.8006   -0.7259 O   0  0  0  0  0  0  0  0  0  0  0  0
   -0.0816    0.4274    0.0879 C   0  0  0  0  0  0  0  0  0  0  0  0
   -1.3226    0.6366   -0.7152 C   0  0  0  0  0  0  0  0  0  0  0  0
   -1.8428    1.9901   -1.3503 C   0  0  0  0  0  0  0  0  0  0  0  0
   -3.1809    1.7972   -0.5860 C   0  0  0  0  0  0  0  0  0  0  0  0
   -2.7942    0.3252   -0.3096 C   0  0  0  0  0  0  0  0  0  0  0  0
   -2.9827   -0.5090   -1.4735 O   0  0  0  0  0  0  0  0  0  0  0  0
   -1.7222   -0.0759   -2.0407 C   0  0  0  0  0  0  0  0  0  0  0  0
   -1.8452    1.2964   -2.7389 C   0  0  0  0  0  0  0  0  0  0  0  0
    1.8313    0.6564   -0.2223 H   0  0  0  0  0  0  0  0  0  0  0  0
   -0.0135   -0.6291    0.3968 H   0  0  0  0  0  0  0  0  0  0  0  0
   -0.1227    1.0345    1.0081 H   0  0  0  0  0  0  0  0  0  0  0  0
   -1.3269    2.9448   -1.2555 H   0  0  0  0  0  0  0  0  0  0  0  0
   -3.1859    2.3723    0.3465 H   0  0  0  0  0  0  0  0  0  0  0  0
   -4.1184    1.9683   -1.1222 H   0  0  0  0  0  0  0  0  0  0  0  0
   -3.1325   -0.1657    0.6064 H   0  0  0  0  0  0  0  0  0  0  0  0
   -1.1888   -0.8937   -2.5292 H   0  0  0  0  0  0  0  0  0  0  0  0
   -0.9230    1.5245   -3.2825 H   0  0  0  0  0  0  0  0  0  0  0  0
   -2.7084    1.4441   -3.3938 H   0  0  0  0  0  0  0  0  0  0  0  0
  1  2  1  0
  2  3  1  0
  3  4  1  0
  4  5  1  0
  5  6  1  0
  6  7  1  0
  7  8  1  0
  8  9  1  0
  6  3  1  0
  8  3  1  0
  9  4  1  0
  1 10  1  0
  2 11  1  0
  2 12  1  0
  4 13  1  0
  5 14  1  0
  5 15  1  0
  6 16  1  0
  8 17  1  0
  9 18  1  0
  9 19  1  0
M  END
$$$$
