gdb 5935	1.8795014	1.1049867	0.753599	2.4675	82.42	-0.24366	0.03411	0.27776999999999996	1571.4132	0.153105	-422.486517	-422.475799	-422.474855	-422.524349	35.934
 OpenBabel02181911423D

 19 19  0  0  1  0  0  0  0  0999 V2000
   -3.2716   -3.4437    1.2590 C   0  0  0  0  0  0  0  0  0  0  0  0
   -2.7501   -2.1401    1.1655 O   0  0  0  0  0  0  0  0  0  0  0  0
   -3.1888   -1.4594    0.0169 C   0  0  0  0  0  0  0  0  0  0  0  0
   -2.5534   -0.0855   -0.0186 C   0  0  1  0  0  0  0  0  0  0  0  0
   -3.3038    1.0178   -0.6553 C   0  0  0  0  0  0  0  0  0  0  0  0
   -3.2374    0.9176    0.7600 O   0  0  0  0  0  0  0  0  0  0  0  0
   -1.1119   -0.0430    0.0147 C   0  0  0  0  0  0  0  0  0  0  0  0
    0.0917   -0.0226    0.0271 C   0  0  0  0  0  0  0  0  0  0  0  0
    1.5458    0.0056    0.0577 C   0  0  0  0  0  0  0  0  0  0  0  0
   -2.8707   -3.8896    2.1721 H   0  0  0  0  0  0  0  0  0  0  0  0
   -4.3717   -3.4417    1.3177 H   0  0  0  0  0  0  0  0  0  0  0  0
   -2.9755   -4.0652    0.3985 H   0  0  0  0  0  0  0  0  0  0  0  0
   -2.9091   -2.0133   -0.8962 H   0  0  0  0  0  0  0  0  0  0  0  0
   -4.2845   -1.3413    0.0207 H   0  0  0  0  0  0  0  0  0  0  0  0
   -2.7460    1.8395   -1.1004 H   0  0  0  0  0  0  0  0  0  0  0  0
   -4.2786    0.8158   -1.0997 H   0  0  0  0  0  0  0  0  0  0  0  0
    1.9080    0.7915    0.7295 H   0  0  0  0  0  0  0  0  0  0  0  0
    1.9528   -0.9477    0.4117 H   0  0  0  0  0  0  0  0  0  0  0  0
    1.9638    0.1997   -0.9364 H   0  0  0  0  0  0  0  0  0  0  0  0
  1 11  1  0  0  0  0
  1 10  1  0  0  0  0
  2  1  1  0  0  0  0
  3 14  1  0  0  0  0
  3  2  1  0  0  0  0
  4  7  1  6  0  0  0
  4  3  1  0  0  0  0
  4  6  1  0  0  0  0
  5  4  1  0  0  0  0
  5  6  1  0  0  0  0
  7  8  3  0  0  0  0
  8  9  1  0  0  0  0
  9 18  1  0  0  0  0
  9 17  1  0  0  0  0
 12  1  1  0  0  0  0
 13  3  1  0  0  0  0
 15  5  1  0  0  0  0
 16  5  1  0  0  0  0
 19  9  1  0  0  0  0
M TOR 0 0 1 2 3
M TOR 1 0 1 2 12
M TOR 2 0 1 2 13
M TOR 3 1 2 3 4
M TOR 4 1 2 3 5
M TOR 5 1 2 3 6
M TOR 6 2 1 0 9
M TOR 7 2 1 0 10
M TOR 8 2 1 0 11
M TOR 9 2 3 4 5
M TOR 10 2 3 4 14
M TOR 11 2 3 4 15
M TOR 12 2 3 6 7
M TOR 13 3 5 4 14
M TOR 14 3 5 4 15
M TOR 15 3 6 7 8
M TOR 16 4 3 2 12
M TOR 17 4 3 2 13
M TOR 18 4 3 6 7
M TOR 19 4 5 3 6
M TOR 20 5 3 2 12
M TOR 21 5 3 2 13
M TOR 22 5 3 6 7
M TOR 23 6 3 2 12
M TOR 24 6 3 2 13
M TOR 25 6 3 4 14
M TOR 26 6 3 4 15
M TOR 27 6 7 8 16
M TOR 28 6 7 8 17
M TOR 29 6 7 8 18
M  END
$$$$
