gdb 378	3.258864	1.5351588	1.444967	1.7577	73.47	-0.24907	0.0879	0.33697	984.6183	0.159534	-422.552663	-422.545626	-422.544682	-422.583918	28.57
 OpenBabel02181911403D

 19 21  0  0  1  0  0  0  0  0999 V2000
    1.1628    1.2210   -0.0595 C   0  0  0  0  0  0  0  0  0  0  0  0
    1.5509   -0.2409   -0.1026 C   0  0  0  0  0  0  0  0  0  0  0  0
    0.1048    0.1560   -0.0320 C   0  0  0  0  0  0  0  0  0  0  0  0
   -0.8917   -0.1155   -1.1769 C   0  0  0  0  0  0  0  0  0  0  0  0
   -2.1285   -0.5054   -0.3405 C   0  0  2  0  0  0  0  0  0  0  0  0
   -2.6859    0.6756    0.2344 O   0  0  0  0  0  0  0  0  0  0  0  0
   -1.8157    0.9780    1.3395 C   0  0  0  0  0  0  0  0  0  0  0  0
   -0.7496   -0.1273    1.2050 C   0  0  1  0  0  0  0  0  0  0  0  0
   -1.5776   -1.2155    0.7537 O   0  0  0  0  0  0  0  0  0  0  0  0
    1.3645    1.7733    0.8536 H   0  0  0  0  0  0  0  0  0  0  0  0
    1.2744    1.8103   -0.9637 H   0  0  0  0  0  0  0  0  0  0  0  0
    1.9195   -0.6437   -1.0406 H   0  0  0  0  0  0  0  0  0  0  0  0
    2.0139   -0.6733    0.7790 H   0  0  0  0  0  0  0  0  0  0  0  0
   -1.0954    0.7576   -1.8010 H   0  0  0  0  0  0  0  0  0  0  0  0
   -0.5702   -0.9444   -1.8148 H   0  0  0  0  0  0  0  0  0  0  0  0
   -2.9126   -1.0811   -0.8310 H   0  0  0  0  0  0  0  0  0  0  0  0
   -1.4049    1.9873    1.2360 H   0  0  0  0  0  0  0  0  0  0  0  0
   -2.3742    0.9032    2.2797 H   0  0  0  0  0  0  0  0  0  0  0  0
   -0.2170   -0.3976    2.1160 H   0  0  0  0  0  0  0  0  0  0  0  0
  1  3  1  0  0  0  0
  1 10  1  0  0  0  0
  2  1  1  0  0  0  0
  2  3  1  0  0  0  0
  2 13  1  0  0  0  0
  3  8  1  0  0  0  0
  4  5  1  0  0  0  0
  4  3  1  0  0  0  0
  5 16  1  6  0  0  0
  5  6  1  0  0  0  0
  5  9  1  0  0  0  0
  6  7  1  0  0  0  0
  7 18  1  0  0  0  0
  8  7  1  0  0  0  0
  8 19  1  1  0  0  0
  9  8  1  0  0  0  0
 11  1  1  0  0  0  0
 12  2  1  0  0  0  0
 14  4  1  0  0  0  0
 15  4  1  0  0  0  0
 17  7  1  0  0  0  0
M TOR 0 0 1 2 3
M TOR 1 0 1 2 7
M TOR 2 0 2 1 11
M TOR 3 0 2 1 12
M TOR 4 0 2 3 4
M TOR 5 0 2 3 13
M TOR 6 0 2 3 14
M TOR 7 0 2 7 6
M TOR 8 0 2 7 8
M TOR 9 0 2 7 18
M TOR 10 1 2 0 9
M TOR 11 1 2 0 10
M TOR 12 1 2 3 4
M TOR 13 1 2 3 13
M TOR 14 1 2 3 14
M TOR 15 1 2 7 6
M TOR 16 1 2 7 8
M TOR 17 1 2 7 18
M TOR 18 2 3 4 5
M TOR 19 2 3 4 8
M TOR 20 2 3 4 15
M TOR 21 2 7 6 5
M TOR 22 2 7 6 16
M TOR 23 2 7 6 17
M TOR 24 2 7 8 4
M TOR 25 3 2 0 9
M TOR 26 3 2 0 10
M TOR 27 3 2 1 11
M TOR 28 3 2 1 12
M TOR 29 3 2 7 6
M TOR 30 3 2 7 8
M TOR 31 3 2 7 18
M TOR 32 3 4 5 6
M TOR 33 3 4 8 7
M TOR 34 4 3 2 7
M TOR 35 4 5 6 7
M TOR 36 4 5 6 16
M TOR 37 4 5 6 17
M TOR 38 4 8 7 6
M TOR 39 4 8 7 18
M TOR 40 5 4 3 13
M TOR 41 5 4 3 14
M TOR 42 5 4 8 7
M TOR 43 5 6 7 8
M TOR 44 5 6 7 18
M TOR 45 6 5 4 8
M TOR 46 6 5 4 15
M TOR 47 7 2 0 9
M TOR 48 7 2 0 10
M TOR 49 7 2 1 11
M TOR 50 7 2 1 12
M TOR 51 7 2 3 13
M TOR 52 7 2 3 14
M TOR 53 7 8 4 15
M TOR 54 8 4 3 13
M TOR 55 8 4 3 14
M TOR 56 8 7 6 16
M TOR 57 8 7 6 17
M  END
$$$$
