
     RDKit          3D

 19 20  0  0  0  0  0  0  0  0999 V2000
   -2.5946   -0.6248    0.1704 C   0  0  0  0  0  0  0  0  0  0  0  0
   -1.1370   -0.3180    0.0450 C   0  0  0  0  0  0  0  0  0  0  0  0
   -0.1036   -1.1559    0.0886 C   0  0  0  0  0  0  0  0  0  0  0  0
    1.1830   -0.4060   -0.0815 C   0  0  0  0  0  0  0  0  0  0  0  0
    0.7911    0.9597   -0.2276 O   0  0  0  0  0  0  0  0  0  0  0  0
   -0.6143    1.0811   -0.1616 C   0  0  0  0  0  0  0  0  0  0  0  0
   -1.1564    2.1988    0.7723 C   0  0  0  0  0  0  0  0  0  0  0  0
   -1.9582    2.7443   -0.2937 O   0  0  0  0  0  0  0  0  0  0  0  0
   -1.2756    1.9400   -1.2755 C   0  0  0  0  0  0  0  0  0  0  0  0
   -3.0435   -0.0977    1.0203 H   0  0  0  0  0  0  0  0  0  0  0  0
   -3.1496   -0.3067   -0.7198 H   0  0  0  0  0  0  0  0  0  0  0  0
   -2.7613   -1.6957    0.3094 H   0  0  0  0  0  0  0  0  0  0  0  0
   -0.1520   -2.2292    0.2255 H   0  0  0  0  0  0  0  0  0  0  0  0
    1.8547   -0.5075    0.7847 H   0  0  0  0  0  0  0  0  0  0  0  0
    1.7497   -0.7257   -0.9695 H   0  0  0  0  0  0  0  0  0  0  0  0
   -1.7600    1.9023    1.6375 H   0  0  0  0  0  0  0  0  0  0  0  0
   -0.3596    2.8829    1.0918 H   0  0  0  0  0  0  0  0  0  0  0  0
   -1.9696    1.4468   -1.9654 H   0  0  0  0  0  0  0  0  0  0  0  0
   -0.5304    2.5119   -1.8435 H   0  0  0  0  0  0  0  0  0  0  0  0
  1  2  1  0
  2  3  2  0
  3  4  1  0
  4  5  1  0
  5  6  1  0
  6  7  1  0
  7  8  1  0
  8  9  1  0
  6  2  1  0
  9  6  1  0
  1 10  1  0
  1 11  1  0
  1 12  1  0
  3 13  1  0
  4 14  1  0
  4 15  1  0
  7 16  1  0
  7 17  1  0
  9 18  1  0
  9 19  1  0
M  END
$$$$
