
     RDKit          3D

 19 21  0  0  0  0  0  0  0  0999 V2000
    0.5182    0.6031    0.2510 O   0  0  0  0  0  0  0  0  0  0  0  0
   -0.7975    0.7093    0.7500 C   0  0  0  0  0  0  0  0  0  0  0  0
   -1.0410    0.1192    2.1834 C   0  0  0  0  0  0  0  0  0  0  0  0
   -1.5451    1.4142    2.8468 C   0  0  0  0  0  0  0  0  0  0  0  0
   -2.4792    1.9107    1.8269 O   0  0  0  0  0  0  0  0  0  0  0  0
   -1.2628    2.1588    1.0538 C   0  0  0  0  0  0  0  0  0  0  0  0
   -0.5565    2.4821    2.3705 C   0  0  0  0  0  0  0  0  0  0  0  0
   -0.2816    3.8111    2.9753 C   0  0  0  0  0  0  0  0  0  0  0  0
    0.8536    2.8219    2.7475 C   0  0  0  0  0  0  0  0  0  0  0  0
    1.1119    0.9741    0.9124 H   0  0  0  0  0  0  0  0  0  0  0  0
   -1.4410    0.2460   -0.0001 H   0  0  0  0  0  0  0  0  0  0  0  0
   -1.8007   -0.6647    2.2013 H   0  0  0  0  0  0  0  0  0  0  0  0
   -0.1177   -0.2726    2.6209 H   0  0  0  0  0  0  0  0  0  0  0  0
   -1.9532    1.3856    3.8573 H   0  0  0  0  0  0  0  0  0  0  0  0
   -1.3731    2.8631    0.2295 H   0  0  0  0  0  0  0  0  0  0  0  0
   -0.3223    4.6889    2.3388 H   0  0  0  0  0  0  0  0  0  0  0  0
   -0.5994    3.9870    3.9979 H   0  0  0  0  0  0  0  0  0  0  0  0
    1.5680    3.0560    1.9637 H   0  0  0  0  0  0  0  0  0  0  0  0
    1.2893    2.3390    3.6169 H   0  0  0  0  0  0  0  0  0  0  0  0
  1  2  1  0
  2  3  1  0
  3  4  1  0
  4  5  1  0
  5  6  1  0
  6  7  1  0
  7  8  1  0
  8  9  1  0
  6  2  1  0
  9  7  1  0
  7  4  1  0
  1 10  1  0
  2 11  1  0
  3 12  1  0
  3 13  1  0
  4 14  1  0
  6 15  1  0
  8 16  1  0
  8 17  1  0
  9 18  1  0
  9 19  1  0
M  END
$$$$
