gdb 5954	4.3896045	0.9803985	0.9188804	1.6713	75.	-0.23567	-0.00043	0.23523999999999998	1305.5386	0.156666	-422.513748	-422.505358	-422.504414	-422.547114	32.012
 OpenBabel02181911423D

 19 20  0  0  1  0  0  0  0  0999 V2000
    1.4650    0.8252    0.0214 O   0  0  0  0  0  0  0  0  0  0  0  0
    0.0946    0.5926    0.3074 C   0  0  0  0  0  0  0  0  0  0  0  0
   -0.8326    1.2398   -0.7259 C   0  0  0  0  0  0  0  0  0  0  0  0
   -2.2974    0.9910   -0.4772 C   0  0  2  0  0  0  0  0  0  0  0  0
   -3.0443    1.1739    0.8915 C   0  0  0  0  0  0  0  0  0  0  0  0
   -3.9247    0.1225    0.1578 C   0  0  2  0  0  0  0  0  0  0  0  0
   -2.6939   -0.4309   -0.4098 O   0  0  0  0  0  0  0  0  0  0  0  0
   -4.4705    0.9475   -1.0246 C   0  0  0  0  0  0  0  0  0  0  0  0
   -3.3599    1.5433   -1.4577 C   0  0  0  0  0  0  0  0  0  0  0  0
    1.6812    0.3478   -0.7858 H   0  0  0  0  0  0  0  0  0  0  0  0
   -0.1329   -0.4794    0.3836 H   0  0  0  0  0  0  0  0  0  0  0  0
   -0.0775    1.0326    1.2953 H   0  0  0  0  0  0  0  0  0  0  0  0
   -0.6484    2.3203   -0.7544 H   0  0  0  0  0  0  0  0  0  0  0  0
   -0.5863    0.8504   -1.7238 H   0  0  0  0  0  0  0  0  0  0  0  0
   -2.4980    0.7494    1.7372 H   0  0  0  0  0  0  0  0  0  0  0  0
   -3.4740    2.1496    1.1268 H   0  0  0  0  0  0  0  0  0  0  0  0
   -4.5584   -0.6039    0.6640 H   0  0  0  0  0  0  0  0  0  0  0  0
   -5.4920    1.0058   -1.3702 H   0  0  0  0  0  0  0  0  0  0  0  0
   -3.1892    2.2372   -2.2680 H   0  0  0  0  0  0  0  0  0  0  0  0
  1  2  1  0  0  0  0
  2 11  1  0  0  0  0
  2 12  1  0  0  0  0
  3  2  1  0  0  0  0
  4  3  1  6  0  0  0
  4  7  1  0  0  0  0
  4  5  1  0  0  0  0
  5 16  1  0  0  0  0
  5 15  1  0  0  0  0
  6 17  1  1  0  0  0
  6  5  1  0  0  0  0
  7  6  1  0  0  0  0
  8  6  1  0  0  0  0
  9  8  2  0  0  0  0
  9  4  1  0  0  0  0
 10  1  1  0  0  0  0
 13  3  1  0  0  0  0
 14  3  1  0  0  0  0
 18  8  1  0  0  0  0
 19  9  1  0  0  0  0
M TOR 0 0 1 2 3
M TOR 1 0 1 2 12
M TOR 2 0 1 2 13
M TOR 3 1 2 3 4
M TOR 4 1 2 3 6
M TOR 5 1 2 3 8
M TOR 6 2 1 0 9
M TOR 7 2 3 4 5
M TOR 8 2 3 4 14
M TOR 9 2 3 4 15
M TOR 10 2 3 6 5
M TOR 11 2 3 8 7
M TOR 12 2 3 8 18
M TOR 13 3 2 1 10
M TOR 14 3 2 1 11
M TOR 15 3 4 5 6
M TOR 16 3 4 5 7
M TOR 17 3 4 5 16
M TOR 18 3 6 5 7
M TOR 19 3 6 5 16
M TOR 20 3 8 7 5
M TOR 21 3 8 7 17
M TOR 22 4 3 2 12
M TOR 23 4 3 2 13
M TOR 24 4 3 8 7
M TOR 25 4 3 8 18
M TOR 26 4 5 7 8
M TOR 27 4 5 7 17
M TOR 28 5 4 3 8
M TOR 29 5 6 3 8
M TOR 30 5 7 8 18
M TOR 31 6 3 2 12
M TOR 32 6 3 2 13
M TOR 33 6 3 4 14
M TOR 34 6 3 4 15
M TOR 35 6 3 8 7
M TOR 36 6 3 8 18
M TOR 37 6 5 4 14
M TOR 38 6 5 4 15
M TOR 39 6 5 7 8
M TOR 40 6 5 7 17
M TOR 41 7 5 4 14
M TOR 42 7 5 4 15
M TOR 43 8 3 2 12
M TOR 44 8 3 2 13
M TOR 45 8 3 4 14
M TOR 46 8 3 4 15
M TOR 47 8 7 5 16
M  END
$$$$
