
     RDKit          3D

 19 21  0  0  0  0  0  0  0  0999 V2000
    1.4042   -0.0513    0.0726 C   0  0  0  0  0  0  0  0  0  0  0  0
    0.0450    0.2650   -0.2161 O   0  0  0  0  0  0  0  0  0  0  0  0
   -0.3919    1.4026    0.4286 C   0  0  0  0  0  0  0  0  0  0  0  0
   -0.8027    1.4632    1.8740 C   0  0  0  0  0  0  0  0  0  0  0  0
   -1.8038    1.7798    0.7707 C   0  0  0  0  0  0  0  0  0  0  0  0
   -1.6155    3.1707    0.0926 C   0  0  0  0  0  0  0  0  0  0  0  0
   -0.4277    3.9665    0.6226 C   0  0  0  0  0  0  0  0  0  0  0  0
   -0.1814    2.7967   -0.2584 C   0  0  0  0  0  0  0  0  0  0  0  0
    0.5561    2.8978   -1.4198 O   0  0  0  0  0  0  0  0  0  0  0  0
    1.5466   -0.2400    1.1447 H   0  0  0  0  0  0  0  0  0  0  0  0
    1.6440   -0.9574   -0.4883 H   0  0  0  0  0  0  0  0  0  0  0  0
    2.0757    0.7582   -0.2393 H   0  0  0  0  0  0  0  0  0  0  0  0
   -0.9578    0.4816    2.3143 H   0  0  0  0  0  0  0  0  0  0  0  0
   -0.4398    2.2061    2.5763 H   0  0  0  0  0  0  0  0  0  0  0  0
   -2.7019    1.1889    0.6477 H   0  0  0  0  0  0  0  0  0  0  0  0
   -2.3843    3.6441   -0.5041 H   0  0  0  0  0  0  0  0  0  0  0  0
   -0.3019    4.9145    0.1063 H   0  0  0  0  0  0  0  0  0  0  0  0
   -0.1492    4.0036    1.6713 H   0  0  0  0  0  0  0  0  0  0  0  0
    0.3214    2.1383   -1.9677 H   0  0  0  0  0  0  0  0  0  0  0  0
  1  2  1  0
  2  3  1  0
  3  4  1  0
  4  5  1  0
  5  6  1  0
  6  7  1  0
  7  8  1  0
  8  9  1  0
  5  3  1  0
  8  6  1  0
  8  3  1  0
  1 10  1  0
  1 11  1  0
  1 12  1  0
  4 13  1  0
  4 14  1  0
  5 15  1  0
  6 16  1  0
  7 17  1  0
  7 18  1  0
  9 19  1  0
M  END
$$$$
