gdb 533	2.5211269	1.9478872	1.321996	2.2789	73.79	-0.24823	0.06166	0.30989	992.7282	0.159018	-422.529433	-422.522111	-422.521167	-422.561427	28.504
 OpenBabel02181911403D

 19 21  0  0  1  0  0  0  0  0999 V2000
   -1.6847    2.4900    0.8690 C   0  0  0  0  0  0  0  0  0  0  0  0
   -1.6415    1.6797   -0.3326 O   0  0  0  0  0  0  0  0  0  0  0  0
   -0.2662    1.3695   -0.1222 C   0  0  2  0  0  0  0  0  0  0  0  0
    0.7637    1.4714   -1.2487 C   0  0  0  0  0  0  0  0  0  0  0  0
    1.3549    0.2145   -0.8502 O   0  0  0  0  0  0  0  0  0  0  0  0
    0.2810   -0.0567    0.0916 C   0  0  1  0  0  0  0  0  0  0  0  0
    0.7343   -0.1414    1.5595 C   0  0  0  0  0  0  0  0  0  0  0  0
   -0.0214    1.0030    2.2876 C   0  0  0  0  0  0  0  0  0  0  0  0
   -0.2323    2.1088    1.2291 C   0  0  2  0  0  0  0  0  0  0  0  0
   -1.8493    3.5464    0.6275 H   0  0  0  0  0  0  0  0  0  0  0  0
   -2.4610    2.1522    1.5653 H   0  0  0  0  0  0  0  0  0  0  0  0
    0.3059    1.4152   -2.2452 H   0  0  0  0  0  0  0  0  0  0  0  0
    1.4789    2.3022   -1.2195 H   0  0  0  0  0  0  0  0  0  0  0  0
   -0.3472   -0.8893   -0.2430 H   0  0  0  0  0  0  0  0  0  0  0  0
    0.5469   -1.1159    2.0182 H   0  0  0  0  0  0  0  0  0  0  0  0
    1.8147    0.0323    1.5802 H   0  0  0  0  0  0  0  0  0  0  0  0
   -0.9946    0.6377    2.6354 H   0  0  0  0  0  0  0  0  0  0  0  0
    0.5160    1.3569    3.1713 H   0  0  0  0  0  0  0  0  0  0  0  0
    0.4668    2.9407    1.3290 H   0  0  0  0  0  0  0  0  0  0  0  0
  1  9  1  0  0  0  0
  1 11  1  0  0  0  0
  2  1  1  0  0  0  0
  3  2  1  6  0  0  0
  3  6  1  0  0  0  0
  3  9  1  0  0  0  0
  4 13  1  0  0  0  0
  4  5  1  0  0  0  0
  4  3  1  0  0  0  0
  5  6  1  0  0  0  0
  6 14  1  6  0  0  0
  6  7  1  0  0  0  0
  7 16  1  0  0  0  0
  7 15  1  0  0  0  0
  7  8  1  0  0  0  0
  8 17  1  0  0  0  0
  8 18  1  0  0  0  0
  9 19  1  1  0  0  0
  9  8  1  0  0  0  0
 10  1  1  0  0  0  0
 12  4  1  0  0  0  0
M TOR 0 0 1 2 3
M TOR 1 0 1 2 5
M TOR 2 0 1 2 8
M TOR 3 0 8 2 3
M TOR 4 0 8 2 5
M TOR 5 0 8 7 6
M TOR 6 0 8 7 16
M TOR 7 0 8 7 17
M TOR 8 1 0 8 7
M TOR 9 1 0 8 18
M TOR 10 1 2 3 4
M TOR 11 1 2 3 11
M TOR 12 1 2 3 12
M TOR 13 1 2 5 4
M TOR 14 1 2 5 6
M TOR 15 1 2 5 13
M TOR 16 1 2 8 7
M TOR 17 1 2 8 18
M TOR 18 2 1 0 9
M TOR 19 2 1 0 10
M TOR 20 2 3 4 5
M TOR 21 2 5 6 7
M TOR 22 2 5 6 14
M TOR 23 2 5 6 15
M TOR 24 2 8 0 9
M TOR 25 2 8 0 10
M TOR 26 2 8 7 6
M TOR 27 2 8 7 16
M TOR 28 2 8 7 17
M TOR 29 3 2 5 6
M TOR 30 3 2 5 13
M TOR 31 3 2 8 7
M TOR 32 3 2 8 18
M TOR 33 3 4 5 6
M TOR 34 3 4 5 13
M TOR 35 4 3 2 8
M TOR 36 4 5 2 8
M TOR 37 4 5 6 7
M TOR 38 4 5 6 14
M TOR 39 4 5 6 15
M TOR 40 5 2 3 11
M TOR 41 5 2 3 12
M TOR 42 5 2 8 7
M TOR 43 5 2 8 18
M TOR 44 5 4 3 11
M TOR 45 5 4 3 12
M TOR 46 5 6 7 8
M TOR 47 5 6 7 16
M TOR 48 5 6 7 17
M TOR 49 6 5 2 8
M TOR 50 6 7 8 18
M TOR 51 7 6 5 13
M TOR 52 7 8 0 9
M TOR 53 7 8 0 10
M TOR 54 8 2 3 11
M TOR 55 8 2 3 12
M TOR 56 8 2 5 13
M TOR 57 8 7 6 14
M TOR 58 8 7 6 15
M  END
$$$$
