gdb 2395	2.5451331	1.8875322	1.4057294	1.4455	73.5	-0.23247	0.07569	0.30816	975.2669	0.157633	-422.537293	-422.529592	-422.528648	-422.569137	30.882
 OpenBabel02181911413D

 19 21  0  0  1  0  0  0  0  0999 V2000
    0.2332    0.3529   -0.1904 O   0  0  0  0  0  0  0  0  0  0  0  0
   -0.5622    0.8247    0.8696 C   0  0  2  0  0  0  0  0  0  0  0  0
   -1.3298   -0.3124    1.5850 C   0  0  0  0  0  0  0  0  0  0  0  0
   -2.6212    0.5514    1.5628 C   0  0  0  0  0  0  0  0  0  0  0  0
   -1.9273    1.5432    0.5831 C   0  0  1  0  0  0  0  0  0  0  0  0
   -1.8626    2.9012    0.9960 O   0  0  0  0  0  0  0  0  0  0  0  0
   -0.7490    3.0457    1.8486 C   0  0  2  0  0  0  0  0  0  0  0  0
    0.5858    3.1308    1.1643 C   0  0  0  0  0  0  0  0  0  0  0  0
    0.1204    1.8223    1.7951 C   0  0  2  0  0  0  0  0  0  0  0  0
    0.8355    1.0580   -0.4508 H   0  0  0  0  0  0  0  0  0  0  0  0
   -1.3935   -1.1852    0.9318 H   0  0  0  0  0  0  0  0  0  0  0  0
   -0.9477   -0.6273    2.5590 H   0  0  0  0  0  0  0  0  0  0  0  0
   -3.5243    0.0633    1.1926 H   0  0  0  0  0  0  0  0  0  0  0  0
   -2.8467    1.0304    2.5179 H   0  0  0  0  0  0  0  0  0  0  0  0
   -2.2834    1.4988   -0.4480 H   0  0  0  0  0  0  0  0  0  0  0  0
   -0.9552    3.5991    2.7583 H   0  0  0  0  0  0  0  0  0  0  0  0
    0.5667    3.2407    0.0838 H   0  0  0  0  0  0  0  0  0  0  0  0
    1.3975    3.6536    1.6586 H   0  0  0  0  0  0  0  0  0  0  0  0
    0.6484    1.4554    2.6682 H   0  0  0  0  0  0  0  0  0  0  0  0
  2  1  1  6  0  0  0
  2  3  1  0  0  0  0
  2  9  1  0  0  0  0
  3 12  1  0  0  0  0
  4  3  1  0  0  0  0
  4 14  1  0  0  0  0
  5 15  1  6  0  0  0
  5  2  1  0  0  0  0
  5  6  1  0  0  0  0
  5  4  1  0  0  0  0
  6  7  1  0  0  0  0
  7 16  1  1  0  0  0
  8 18  1  0  0  0  0
  8  9  1  0  0  0  0
  8  7  1  0  0  0  0
  9  7  1  0  0  0  0
  9 19  1  1  0  0  0
 10  1  1  0  0  0  0
 11  3  1  0  0  0  0
 13  4  1  0  0  0  0
 17  8  1  0  0  0  0
M TOR 0 0 1 2 3
M TOR 1 0 1 2 10
M TOR 2 0 1 2 11
M TOR 3 0 1 4 3
M TOR 4 0 1 4 5
M TOR 5 0 1 4 14
M TOR 6 0 1 8 6
M TOR 7 0 1 8 7
M TOR 8 0 1 8 18
M TOR 9 1 2 3 4
M TOR 10 1 2 3 12
M TOR 11 1 2 3 13
M TOR 12 1 4 3 12
M TOR 13 1 4 3 13
M TOR 14 1 4 5 6
M TOR 15 1 8 6 5
M TOR 16 1 8 6 7
M TOR 17 1 8 6 15
M TOR 18 1 8 7 16
M TOR 19 1 8 7 17
M TOR 20 2 1 0 9
M TOR 21 2 1 4 5
M TOR 22 2 1 4 14
M TOR 23 2 1 8 6
M TOR 24 2 1 8 7
M TOR 25 2 1 8 18
M TOR 26 2 3 4 5
M TOR 27 2 3 4 14
M TOR 28 3 2 1 8
M TOR 29 3 4 1 8
M TOR 30 3 4 5 6
M TOR 31 4 1 0 9
M TOR 32 4 1 2 10
M TOR 33 4 1 2 11
M TOR 34 4 1 8 6
M TOR 35 4 1 8 7
M TOR 36 4 1 8 18
M TOR 37 4 3 2 10
M TOR 38 4 3 2 11
M TOR 39 4 5 6 7
M TOR 40 4 5 6 8
M TOR 41 4 5 6 15
M TOR 42 5 4 1 8
M TOR 43 5 4 3 12
M TOR 44 5 4 3 13
M TOR 45 5 6 7 8
M TOR 46 5 6 7 16
M TOR 47 5 6 7 17
M TOR 48 5 6 8 18
M TOR 49 6 5 4 14
M TOR 50 6 7 8 18
M TOR 51 6 8 7 16
M TOR 52 6 8 7 17
M TOR 53 7 8 6 15
M TOR 54 8 1 0 9
M TOR 55 8 1 2 10
M TOR 56 8 1 2 11
M TOR 57 8 1 4 14
M  END
$$$$
