gdb 3835	2.5860342	1.5690281	1.2637491	2.5562	76.03	-0.22387	-0.01486	0.20901	1079.1269	0.155798	-422.560758	-422.552134	-422.55119	-422.593552	32.784
 OpenBabel02181911413D

 19 20  0  0  1  0  0  0  0  0999 V2000
   -2.6790    1.1994   -1.9238 C   0  0  0  0  0  0  0  0  0  0  0  0
   -1.3471    0.6380   -1.4570 C   0  0  2  0  0  0  0  0  0  0  0  0
   -1.4412   -0.8011   -1.2367 O   0  0  0  0  0  0  0  0  0  0  0  0
   -0.9444   -0.9798    0.1068 C   0  0  2  0  0  0  0  0  0  0  0  0
   -0.9074   -2.4231    0.5047 C   0  0  0  0  0  0  0  0  0  0  0  0
   -1.6612    0.1708    0.8796 C   0  0  0  0  0  0  0  0  0  0  0  0
   -0.8247    1.0902   -0.0751 C   0  0  1  0  0  0  0  0  0  0  0  0
    0.2590    0.0017    0.1153 C   0  0  0  0  0  0  0  0  0  0  0  0
    1.4318   -0.0396    0.3294 O   0  0  0  0  0  0  0  0  0  0  0  0
   -3.4513    1.1194   -1.1545 H   0  0  0  0  0  0  0  0  0  0  0  0
   -2.5704    2.2531   -2.2011 H   0  0  0  0  0  0  0  0  0  0  0  0
   -3.0201    0.6470   -2.8047 H   0  0  0  0  0  0  0  0  0  0  0  0
   -0.5886    0.8229   -2.2298 H   0  0  0  0  0  0  0  0  0  0  0  0
   -0.5074   -2.5284    1.5167 H   0  0  0  0  0  0  0  0  0  0  0  0
   -1.9103   -2.8596    0.4749 H   0  0  0  0  0  0  0  0  0  0  0  0
   -0.2677   -2.9862   -0.1805 H   0  0  0  0  0  0  0  0  0  0  0  0
   -2.7467    0.1975    0.7767 H   0  0  0  0  0  0  0  0  0  0  0  0
   -1.3591    0.2526    1.9257 H   0  0  0  0  0  0  0  0  0  0  0  0
   -0.6485    2.1492    0.0957 H   0  0  0  0  0  0  0  0  0  0  0  0
  1  2  1  0  0  0  0
  1 10  1  0  0  0  0
  2 13  1  6  0  0  0
  2  3  1  0  0  0  0
  2  7  1  0  0  0  0
  3  4  1  0  0  0  0
  4  8  1  0  0  0  0
  4  5  1  1  0  0  0
  4  6  1  0  0  0  0
  5 14  1  0  0  0  0
  6 18  1  0  0  0  0
  7 19  1  1  0  0  0
  7  8  1  0  0  0  0
  7  6  1  0  0  0  0
  8  9  2  0  0  0  0
 11  1  1  0  0  0  0
 12  1  1  0  0  0  0
 15  5  1  0  0  0  0
 16  5  1  0  0  0  0
 17  6  1  0  0  0  0
M TOR 0 0 1 2 3
M TOR 1 0 1 6 5
M TOR 2 0 1 6 7
M TOR 3 0 1 6 18
M TOR 4 1 2 3 4
M TOR 5 1 2 3 5
M TOR 6 1 2 3 7
M TOR 7 1 6 5 3
M TOR 8 1 6 5 16
M TOR 9 1 6 5 17
M TOR 10 1 6 7 3
M TOR 11 1 6 7 8
M TOR 12 2 1 0 9
M TOR 13 2 1 0 10
M TOR 14 2 1 0 11
M TOR 15 2 1 6 5
M TOR 16 2 1 6 7
M TOR 17 2 1 6 18
M TOR 18 2 3 4 13
M TOR 19 2 3 4 14
M TOR 20 2 3 4 15
M TOR 21 2 3 5 6
M TOR 22 2 3 5 16
M TOR 23 2 3 5 17
M TOR 24 2 3 7 6
M TOR 25 2 3 7 8
M TOR 26 3 2 1 6
M TOR 27 3 2 1 12
M TOR 28 3 5 6 7
M TOR 29 3 5 6 18
M TOR 30 3 7 6 18
M TOR 31 4 3 5 6
M TOR 32 4 3 5 16
M TOR 33 4 3 5 17
M TOR 34 4 3 7 6
M TOR 35 4 3 7 8
M TOR 36 5 3 4 13
M TOR 37 5 3 4 14
M TOR 38 5 3 4 15
M TOR 39 5 3 7 8
M TOR 40 5 6 1 12
M TOR 41 5 6 7 8
M TOR 42 6 1 0 9
M TOR 43 6 1 0 10
M TOR 44 6 1 0 11
M TOR 45 7 3 4 13
M TOR 46 7 3 4 14
M TOR 47 7 3 4 15
M TOR 48 7 3 5 16
M TOR 49 7 3 5 17
M TOR 50 7 6 1 12
M TOR 51 7 6 5 16
M TOR 52 7 6 5 17
M TOR 53 8 7 6 18
M  END
$$$$
