gdb 1262	2.5530432	1.4348896	1.1278157	2.5265	75.56	-0.23925	0.00948	0.24872999999999998	1135.4321	0.155961	-422.532777	-422.523868	-422.522924	-422.566535	33.279
 OpenBabel02181911403D

 19 20  0  0  1  0  0  0  0  0999 V2000
   -1.6732   -2.0540    0.9534 C   0  0  0  0  0  0  0  0  0  0  0  0
   -0.6825   -2.1467   -0.2078 C   0  0  1  0  0  0  0  0  0  0  0  0
   -1.1581   -2.9872   -1.2577 O   0  0  0  0  0  0  0  0  0  0  0  0
   -0.2984   -0.7832   -0.7268 C   0  0  1  0  0  0  0  0  0  0  0  0
    0.7718   -0.4266   -1.8193 C   0  0  0  0  0  0  0  0  0  0  0  0
    0.2035    0.9760   -1.4152 C   0  0  1  0  0  0  0  0  0  0  0  0
   -1.2067    0.2928   -1.4390 C   0  0  0  0  0  0  0  0  0  0  0  0
    0.2781    0.4368    0.0188 C   0  0  0  0  0  0  0  0  0  0  0  0
    0.5941    0.7660    1.1211 O   0  0  0  0  0  0  0  0  0  0  0  0
   -1.9163   -3.0539    1.3214 H   0  0  0  0  0  0  0  0  0  0  0  0
   -1.2521   -1.4635    1.7729 H   0  0  0  0  0  0  0  0  0  0  0  0
   -2.6044   -1.5698    0.6336 H   0  0  0  0  0  0  0  0  0  0  0  0
    0.2315   -2.6411    0.1438 H   0  0  0  0  0  0  0  0  0  0  0  0
   -2.0161   -2.6471   -1.5347 H   0  0  0  0  0  0  0  0  0  0  0  0
    1.8177   -0.6368   -1.5875 H   0  0  0  0  0  0  0  0  0  0  0  0
    0.5033   -0.7516   -2.8266 H   0  0  0  0  0  0  0  0  0  0  0  0
    0.4756    1.9498   -1.8147 H   0  0  0  0  0  0  0  0  0  0  0  0
   -2.0047    0.7584   -0.8573 H   0  0  0  0  0  0  0  0  0  0  0  0
   -1.5421    0.0036   -2.4383 H   0  0  0  0  0  0  0  0  0  0  0  0
  1 10  1  0  0  0  0
  1 11  1  0  0  0  0
  2 13  1  1  0  0  0
  2  1  1  0  0  0  0
  3  2  1  0  0  0  0
  4  2  1  1  0  0  0
  4  8  1  0  0  0  0
  5 15  1  0  0  0  0
  5  6  1  0  0  0  0
  5  4  1  0  0  0  0
  6 17  1  6  0  0  0
  6  8  1  0  0  0  0
  7  6  1  0  0  0  0
  7 18  1  0  0  0  0
  7  4  1  0  0  0  0
  8  9  2  0  0  0  0
 12  1  1  0  0  0  0
 14  3  1  0  0  0  0
 16  5  1  0  0  0  0
 19  7  1  0  0  0  0
M TOR 0 0 1 2 13
M TOR 1 0 1 3 4
M TOR 2 0 1 3 6
M TOR 3 0 1 3 7
M TOR 4 1 3 4 5
M TOR 5 1 3 4 14
M TOR 6 1 3 4 15
M TOR 7 1 3 6 5
M TOR 8 1 3 6 17
M TOR 9 1 3 6 18
M TOR 10 1 3 7 5
M TOR 11 1 3 7 8
M TOR 12 2 1 0 9
M TOR 13 2 1 0 10
M TOR 14 2 1 0 11
M TOR 15 2 1 3 4
M TOR 16 2 1 3 6
M TOR 17 2 1 3 7
M TOR 18 3 1 0 9
M TOR 19 3 1 0 10
M TOR 20 3 1 0 11
M TOR 21 3 1 2 13
M TOR 22 3 4 5 6
M TOR 23 3 4 5 7
M TOR 24 3 4 5 16
M TOR 25 3 6 5 7
M TOR 26 3 6 5 16
M TOR 27 3 7 5 16
M TOR 28 4 3 1 12
M TOR 29 4 3 6 17
M TOR 30 4 3 6 18
M TOR 31 4 3 7 8
M TOR 32 4 5 6 17
M TOR 33 4 5 6 18
M TOR 34 4 5 7 8
M TOR 35 6 3 1 12
M TOR 36 6 3 4 14
M TOR 37 6 3 4 15
M TOR 38 6 3 7 8
M TOR 39 6 5 4 14
M TOR 40 6 5 4 15
M TOR 41 6 5 7 8
M TOR 42 7 3 1 12
M TOR 43 7 3 4 14
M TOR 44 7 3 4 15
M TOR 45 7 3 6 17
M TOR 46 7 3 6 18
M TOR 47 7 5 4 14
M TOR 48 7 5 4 15
M TOR 49 7 5 6 17
M TOR 50 7 5 6 18
M TOR 51 8 7 5 16
M  END
$$$$
