
     RDKit          3D

 19 21  0  0  0  0  0  0  0  0999 V2000
    1.6917    0.4295   -0.0774 O   0  0  0  0  0  0  0  0  0  0  0  0
    0.4158    0.1150    0.4648 C   0  0  0  0  0  0  0  0  0  0  0  0
   -0.4852    1.3202    0.5669 C   0  0  0  0  0  0  0  0  0  0  0  0
   -0.4353    2.1544    1.8279 C   0  0  0  0  0  0  0  0  0  0  0  0
   -1.6755    1.3504    1.5155 C   0  0  0  0  0  0  0  0  0  0  0  0
   -2.7900    2.0849    0.8041 C   0  0  0  0  0  0  0  0  0  0  0  0
   -2.5009    3.4589    0.5052 O   0  0  0  0  0  0  0  0  0  0  0  0
   -2.3326    2.4862   -0.5365 C   0  0  0  0  0  0  0  0  0  0  0  0
   -0.9013    2.0110   -0.7432 C   0  0  0  0  0  0  0  0  0  0  0  0
    2.0724    1.1227    0.4727 H   0  0  0  0  0  0  0  0  0  0  0  0
   -0.0109   -0.6285   -0.2187 H   0  0  0  0  0  0  0  0  0  0  0  0
    0.5058   -0.3630    1.4542 H   0  0  0  0  0  0  0  0  0  0  0  0
    0.1938    1.7911    2.6356 H   0  0  0  0  0  0  0  0  0  0  0  0
   -0.5135    3.2316    1.7507 H   0  0  0  0  0  0  0  0  0  0  0  0
   -1.9350    0.4979    2.1328 H   0  0  0  0  0  0  0  0  0  0  0  0
   -3.8266    1.8709    1.0487 H   0  0  0  0  0  0  0  0  0  0  0  0
   -2.9959    2.6121   -1.3895 H   0  0  0  0  0  0  0  0  0  0  0  0
   -0.8775    1.2841   -1.5635 H   0  0  0  0  0  0  0  0  0  0  0  0
   -0.2368    2.8336   -1.0254 H   0  0  0  0  0  0  0  0  0  0  0  0
  1  2  1  0
  2  3  1  0
  3  4  1  0
  4  5  1  0
  5  6  1  0
  6  7  1  0
  7  8  1  0
  8  9  1  0
  5  3  1  0
  8  6  1  0
  9  3  1  0
  1 10  1  0
  2 11  1  0
  2 12  1  0
  4 13  1  0
  4 14  1  0
  5 15  1  0
  6 16  1  0
  8 17  1  0
  9 18  1  0
  9 19  1  0
M  END
$$$$
