gdb 2446	2.8557926	1.8144475	1.5401953	1.5799	73.08	-0.22211	0.08949	0.3116	946.0047	0.159091	-422.559013	-422.551696	-422.550752	-422.59042	29.259
 OpenBabel02181911413D

 19 21  0  0  1  0  0  0  0  0999 V2000
   -0.0308    0.2791    0.7157 C   0  0  0  0  0  0  0  0  0  0  0  0
    1.4764    0.3804    0.7742 C   0  0  2  0  0  0  0  0  0  0  0  0
    2.2257   -0.8763    1.2037 C   0  0  0  0  0  0  0  0  0  0  0  0
    3.7640   -0.6540    1.2277 C   0  0  0  0  0  0  0  0  0  0  0  0
    4.0640    0.7812    0.8057 C   0  0  2  0  0  0  0  0  0  0  0  0
    3.3938    1.6796    1.6837 O   0  0  0  0  0  0  0  0  0  0  0  0
    2.0740    1.7174    1.1867 C   0  0  1  0  0  0  0  0  0  0  0  0
    2.1594    1.2782   -0.2468 C   0  0  1  0  0  0  0  0  0  0  0  0
    3.5234    1.0130   -0.4910 O   0  0  0  0  0  0  0  0  0  0  0  0
   -0.4468    0.0265    1.6981 H   0  0  0  0  0  0  0  0  0  0  0  0
   -0.4853    1.2234    0.3970 H   0  0  0  0  0  0  0  0  0  0  0  0
   -0.3460   -0.4956    0.0069 H   0  0  0  0  0  0  0  0  0  0  0  0
    1.8672   -1.1809    2.1934 H   0  0  0  0  0  0  0  0  0  0  0  0
    1.9674   -1.6928    0.5200 H   0  0  0  0  0  0  0  0  0  0  0  0
    4.1750   -0.8183    2.2281 H   0  0  0  0  0  0  0  0  0  0  0  0
    4.2761   -1.3354    0.5422 H   0  0  0  0  0  0  0  0  0  0  0  0
    5.1287    1.0246    0.7945 H   0  0  0  0  0  0  0  0  0  0  0  0
    1.4923    2.5430    1.5767 H   0  0  0  0  0  0  0  0  0  0  0  0
    1.6514    1.7253   -1.0918 H   0  0  0  0  0  0  0  0  0  0  0  0
  1 10  1  0  0  0  0
  2  1  1  6  0  0  0
  2  7  1  0  0  0  0
  2  3  1  0  0  0  0
  3  4  1  0  0  0  0
  3 13  1  0  0  0  0
  4 15  1  0  0  0  0
  5 17  1  1  0  0  0
  5  4  1  0  0  0  0
  5  6  1  0  0  0  0
  7 18  1  1  0  0  0
  7  6  1  0  0  0  0
  8 19  1  6  0  0  0
  8  2  1  0  0  0  0
  8  7  1  0  0  0  0
  9  8  1  0  0  0  0
  9  5  1  0  0  0  0
 11  1  1  0  0  0  0
 12  1  1  0  0  0  0
 14  3  1  0  0  0  0
 16  4  1  0  0  0  0
M TOR 0 0 1 2 3
M TOR 1 0 1 2 12
M TOR 2 0 1 2 13
M TOR 3 0 1 6 5
M TOR 4 0 1 6 7
M TOR 5 0 1 6 17
M TOR 6 0 1 7 8
M TOR 7 0 1 7 18
M TOR 8 1 2 3 4
M TOR 9 1 2 3 14
M TOR 10 1 2 3 15
M TOR 11 1 6 5 4
M TOR 12 1 6 7 8
M TOR 13 1 6 7 18
M TOR 14 1 7 6 5
M TOR 15 1 7 6 17
M TOR 16 1 7 8 4
M TOR 17 2 1 0 9
M TOR 18 2 1 0 10
M TOR 19 2 1 0 11
M TOR 20 2 1 6 5
M TOR 21 2 1 6 7
M TOR 22 2 1 6 17
M TOR 23 2 1 7 8
M TOR 24 2 1 7 18
M TOR 25 2 3 4 5
M TOR 26 2 3 4 8
M TOR 27 2 3 4 16
M TOR 28 3 2 1 6
M TOR 29 3 2 1 7
M TOR 30 3 4 5 6
M TOR 31 3 4 8 7
M TOR 32 4 3 2 12
M TOR 33 4 3 2 13
M TOR 34 4 5 6 7
M TOR 35 4 5 6 17
M TOR 36 4 8 7 6
M TOR 37 4 8 7 18
M TOR 38 5 4 3 14
M TOR 39 5 4 3 15
M TOR 40 5 4 8 7
M TOR 41 5 6 7 8
M TOR 42 5 6 7 18
M TOR 43 6 1 0 9
M TOR 44 6 1 0 10
M TOR 45 6 1 0 11
M TOR 46 6 1 2 12
M TOR 47 6 1 2 13
M TOR 48 6 5 4 8
M TOR 49 6 5 4 16
M TOR 50 7 1 0 9
M TOR 51 7 1 0 10
M TOR 52 7 1 0 11
M TOR 53 7 1 2 12
M TOR 54 7 1 2 13
M TOR 55 7 8 4 16
M TOR 56 8 4 3 14
M TOR 57 8 4 3 15
M TOR 58 8 7 6 17
M  END
$$$$
