gdb 5618	3.5295151	1.2087637	1.0200486	1.6549	76.83	-0.22697	0.00281	0.22978	1200.1794	0.156247	-422.536629	-422.527975	-422.52703	-422.569743	32.99
 OpenBabel02181911423D

 19 20  0  0  1  0  0  0  0  0999 V2000
    1.4606   -0.1740    0.0069 C   0  0  0  0  0  0  0  0  0  0  0  0
    0.0590   -0.0330    0.0477 O   0  0  0  0  0  0  0  0  0  0  0  0
   -0.3955    0.7524    1.1401 C   0  0  2  0  0  0  0  0  0  0  0  0
   -1.9152    0.7245    1.1392 C   0  0  0  0  0  0  0  0  0  0  0  0
   -2.4427    1.9465    1.1015 C   0  0  0  0  0  0  0  0  0  0  0  0
   -1.3810    3.0033    1.0449 C   0  0  2  0  0  0  0  0  0  0  0  0
   -1.5792    4.2274    1.6777 O   0  0  0  0  0  0  0  0  0  0  0  0
   -0.5224    2.9971   -0.1838 C   0  0  0  0  0  0  0  0  0  0  0  0
   -0.0627    2.2459    1.0558 C   0  0  2  0  0  0  0  0  0  0  0  0
    1.8494   -0.6304    0.9318 H   0  0  0  0  0  0  0  0  0  0  0  0
    1.6957   -0.8303   -0.8347 H   0  0  0  0  0  0  0  0  0  0  0  0
    1.9687    0.7897   -0.1419 H   0  0  0  0  0  0  0  0  0  0  0  0
    0.0130    0.3240    2.0731 H   0  0  0  0  0  0  0  0  0  0  0  0
   -2.4567   -0.2130    1.1000 H   0  0  0  0  0  0  0  0  0  0  0  0
   -3.4987    2.1917    1.0711 H   0  0  0  0  0  0  0  0  0  0  0  0
   -1.7009    4.0577    2.6189 H   0  0  0  0  0  0  0  0  0  0  0  0
   -0.8438    2.4284   -1.0491 H   0  0  0  0  0  0  0  0  0  0  0  0
    0.0059    3.9206   -0.3955 H   0  0  0  0  0  0  0  0  0  0  0  0
    0.7834    2.6457    1.6010 H   0  0  0  0  0  0  0  0  0  0  0  0
  1  2  1  0  0  0  0
  1 10  1  0  0  0  0
  2  3  1  0  0  0  0
  3 13  1  1  0  0  0
  4  3  1  0  0  0  0
  5  4  2  0  0  0  0
  6  9  1  0  0  0  0
  6  5  1  0  0  0  0
  6  7  1  1  0  0  0
  7 16  1  0  0  0  0
  8  6  1  0  0  0  0
  8  9  1  0  0  0  0
  9  3  1  0  0  0  0
  9 19  1  1  0  0  0
 11  1  1  0  0  0  0
 12  1  1  0  0  0  0
 14  4  1  0  0  0  0
 15  5  1  0  0  0  0
 17  8  1  0  0  0  0
 18  8  1  0  0  0  0
M TOR 0 0 1 2 3
M TOR 1 0 1 2 8
M TOR 2 0 1 2 12
M TOR 3 1 2 3 4
M TOR 4 1 2 3 13
M TOR 5 1 2 8 5
M TOR 6 1 2 8 7
M TOR 7 1 2 8 18
M TOR 8 2 1 0 9
M TOR 9 2 1 0 10
M TOR 10 2 1 0 11
M TOR 11 2 3 4 5
M TOR 12 2 3 4 14
M TOR 13 2 8 5 4
M TOR 14 2 8 5 6
M TOR 15 2 8 5 7
M TOR 16 2 8 7 16
M TOR 17 2 8 7 17
M TOR 18 3 2 8 5
M TOR 19 3 2 8 7
M TOR 20 3 2 8 18
M TOR 21 3 4 5 6
M TOR 22 3 4 5 7
M TOR 23 3 4 5 8
M TOR 24 4 3 2 8
M TOR 25 4 3 2 12
M TOR 26 4 5 6 15
M TOR 27 4 5 7 8
M TOR 28 4 5 7 16
M TOR 29 4 5 7 17
M TOR 30 4 5 8 18
M TOR 31 5 4 3 13
M TOR 32 5 7 8 18
M TOR 33 5 8 2 12
M TOR 34 5 8 7 16
M TOR 35 5 8 7 17
M TOR 36 6 5 4 14
M TOR 37 6 5 7 8
M TOR 38 6 5 7 16
M TOR 39 6 5 7 17
M TOR 40 6 5 8 18
M TOR 41 7 5 4 14
M TOR 42 7 5 6 15
M TOR 43 7 8 2 12
M TOR 44 8 2 3 13
M TOR 45 8 5 4 14
M TOR 46 8 5 6 15
M  END
$$$$
