gdb 1228	3.4568447	0.6898962	0.6780586	0.6691	82.35	-0.25419	0.02389	0.27808000000000005	1768.8781	0.15339	-422.506168	-422.49565	-422.494706	-422.543185	36.976
 OpenBabel02181911403D

 19 19  0  0  1  0  0  0  0  0999 V2000
    3.1607   -2.6779   -3.6056 C   0  0  0  0  0  0  0  0  0  0  0  0
    2.9863   -1.1523   -3.6027 C   0  0  2  0  0  0  0  0  0  0  0  0
    4.2118   -0.4814   -3.8873 O   0  0  0  0  0  0  0  0  0  0  0  0
    2.3864   -0.6839   -2.3481 C   0  0  0  0  0  0  0  0  0  0  0  0
    1.9407   -0.3162   -1.2900 C   0  0  0  0  0  0  0  0  0  0  0  0
    1.3489    0.1426   -0.0544 C   0  0  2  0  0  0  0  0  0  0  0  0
   -0.0910    0.6043   -0.1445 C   0  0  0  0  0  0  0  0  0  0  0  0
    2.2300    0.6614    1.0131 C   0  0  0  0  0  0  0  0  0  0  0  0
    1.6671   -0.6416    1.1148 O   0  0  0  0  0  0  0  0  0  0  0  0
    3.8114   -2.9903   -2.7825 H   0  0  0  0  0  0  0  0  0  0  0  0
    2.1970   -3.1809   -3.4851 H   0  0  0  0  0  0  0  0  0  0  0  0
    3.6128   -2.9886   -4.5511 H   0  0  0  0  0  0  0  0  0  0  0  0
    2.3258   -0.8726   -4.4325 H   0  0  0  0  0  0  0  0  0  0  0  0
    4.7888   -0.6013   -3.1246 H   0  0  0  0  0  0  0  0  0  0  0  0
   -0.4461    0.9192    0.8398 H   0  0  0  0  0  0  0  0  0  0  0  0
   -0.1827    1.4410   -0.8434 H   0  0  0  0  0  0  0  0  0  0  0  0
   -0.7288   -0.2091   -0.5024 H   0  0  0  0  0  0  0  0  0  0  0  0
    3.3054    0.6991    0.8490 H   0  0  0  0  0  0  0  0  0  0  0  0
    1.8341    1.4040    1.7055 H   0  0  0  0  0  0  0  0  0  0  0  0
  1  2  1  0  0  0  0
  1 11  1  0  0  0  0
  1 10  1  0  0  0  0
  2 13  1  6  0  0  0
  2  4  1  0  0  0  0
  3  2  1  0  0  0  0
  3 14  1  0  0  0  0
  4  5  3  0  0  0  0
  6  5  1  6  0  0  0
  6  8  1  0  0  0  0
  6  9  1  0  0  0  0
  7  6  1  0  0  0  0
  7 15  1  0  0  0  0
  8  9  1  0  0  0  0
  8 19  1  0  0  0  0
 12  1  1  0  0  0  0
 16  7  1  0  0  0  0
 17  7  1  0  0  0  0
 18  8  1  0  0  0  0
M TOR 0 0 1 2 13
M TOR 1 0 1 3 4
M TOR 2 1 3 4 5
M TOR 3 2 1 0 9
M TOR 4 2 1 0 10
M TOR 5 2 1 0 11
M TOR 6 2 1 3 4
M TOR 7 3 1 0 9
M TOR 8 3 1 0 10
M TOR 9 3 1 0 11
M TOR 10 3 1 2 13
M TOR 11 3 4 5 6
M TOR 12 3 4 5 7
M TOR 13 3 4 5 8
M TOR 14 4 3 1 12
M TOR 15 4 5 6 14
M TOR 16 4 5 6 15
M TOR 17 4 5 6 16
M TOR 18 4 5 7 8
M TOR 19 4 5 7 17
M TOR 20 4 5 7 18
M TOR 21 5 8 7 17
M TOR 22 5 8 7 18
M TOR 23 6 5 7 8
M TOR 24 6 5 7 17
M TOR 25 6 5 7 18
M TOR 26 7 5 6 14
M TOR 27 7 5 6 15
M TOR 28 7 5 6 16
M TOR 29 8 5 6 14
M TOR 30 8 5 6 15
M TOR 31 8 5 6 16
M  END
$$$$
