
     RDKit          3D

 19 20  0  0  0  0  0  0  0  0999 V2000
   -0.5264    2.0922    1.0990 O   0  0  0  0  0  0  0  0  0  0  0  0
   -0.8730    1.2191    0.0665 C   0  0  0  0  0  0  0  0  0  0  0  0
   -0.9137    1.8183   -1.3768 C   0  0  0  0  0  0  0  0  0  0  0  0
   -2.3375    1.2324   -1.5775 C   0  0  0  0  0  0  0  0  0  0  0  0
   -2.3586    0.7531   -0.0944 C   0  0  0  0  0  0  0  0  0  0  0  0
   -2.3731   -0.7764    0.1112 C   0  0  0  0  0  0  0  0  0  0  0  0
   -0.9510   -1.2460   -0.2713 C   0  0  0  0  0  0  0  0  0  0  0  0
   -0.0797   -0.0847    0.1831 C   0  0  0  0  0  0  0  0  0  0  0  0
    1.0168   -0.1350    0.6873 O   0  0  0  0  0  0  0  0  0  0  0  0
    0.3527    1.8132    1.3984 H   0  0  0  0  0  0  0  0  0  0  0  0
   -0.8997    2.9081   -1.3083 H   0  0  0  0  0  0  0  0  0  0  0  0
   -0.1333    1.5004   -2.0741 H   0  0  0  0  0  0  0  0  0  0  0  0
   -3.1043    1.9640   -1.8382 H   0  0  0  0  0  0  0  0  0  0  0  0
   -2.3930    0.4155   -2.3025 H   0  0  0  0  0  0  0  0  0  0  0  0
   -3.0743    1.2790    0.5383 H   0  0  0  0  0  0  0  0  0  0  0  0
   -2.5605   -1.0099    1.1653 H   0  0  0  0  0  0  0  0  0  0  0  0
   -3.1536   -1.2679   -0.4769 H   0  0  0  0  0  0  0  0  0  0  0  0
   -0.6322   -2.1845    0.1850 H   0  0  0  0  0  0  0  0  0  0  0  0
   -0.8515   -1.3549   -1.3594 H   0  0  0  0  0  0  0  0  0  0  0  0
  1  2  1  0
  2  3  1  0
  3  4  1  0
  4  5  1  0
  5  6  1  0
  6  7  1  0
  7  8  1  0
  8  9  2  0
  5  2  1  0
  8  2  1  0
  1 10  1  0
  3 11  1  0
  3 12  1  0
  4 13  1  0
  4 14  1  0
  5 15  1  0
  6 16  1  0
  6 17  1  0
  7 18  1  0
  7 19  1  0
M  END
$$$$
