
     RDKit          3D

 19 21  0  0  0  0  0  0  0  0999 V2000
    1.3348    0.0567    0.9504 C   0  0  0  0  0  0  0  0  0  0  0  0
    0.7590   -0.0190   -0.4682 C   0  0  0  0  0  0  0  0  0  0  0  0
    1.6330   -0.7760   -1.4200 C   0  0  0  0  0  0  0  0  0  0  0  0
    2.1966   -2.2275   -1.3771 C   0  0  0  0  0  0  0  0  0  0  0  0
    2.9135   -1.4730   -2.5221 C   0  0  0  0  0  0  0  0  0  0  0  0
    3.0411   -0.3016   -1.6239 O   0  0  0  0  0  0  0  0  0  0  0  0
    1.5485   -0.9260   -2.9527 C   0  0  0  0  0  0  0  0  0  0  0  0
    0.5290   -1.1982   -3.9544 C   0  0  0  0  0  0  0  0  0  0  0  0
    1.2578    0.0570   -3.8933 O   0  0  0  0  0  0  0  0  0  0  0  0
    1.4287   -0.9393    1.3947 H   0  0  0  0  0  0  0  0  0  0  0  0
    2.3279    0.5133    0.9373 H   0  0  0  0  0  0  0  0  0  0  0  0
    0.6890    0.6548    1.5993 H   0  0  0  0  0  0  0  0  0  0  0  0
   -0.2285   -0.4976   -0.4576 H   0  0  0  0  0  0  0  0  0  0  0  0
    0.6157    0.9889   -0.8755 H   0  0  0  0  0  0  0  0  0  0  0  0
    2.8375   -2.4322   -0.5198 H   0  0  0  0  0  0  0  0  0  0  0  0
    1.5278   -3.0553   -1.6283 H   0  0  0  0  0  0  0  0  0  0  0  0
    3.7846   -1.7572   -3.1102 H   0  0  0  0  0  0  0  0  0  0  0  0
    0.7589   -1.8204   -4.8177 H   0  0  0  0  0  0  0  0  0  0  0  0
   -0.5268   -1.1288   -3.6977 H   0  0  0  0  0  0  0  0  0  0  0  0
  1  2  1  0
  2  3  1  0
  3  4  1  0
  4  5  1  0
  5  6  1  0
  5  7  1  0
  7  8  1  0
  8  9  1  0
  6  3  1  0
  9  7  1  0
  7  3  1  0
  1 10  1  0
  1 11  1  0
  1 12  1  0
  2 13  1  0
  2 14  1  0
  4 15  1  0
  4 16  1  0
  5 17  1  0
  8 18  1  0
  8 19  1  0
M  END
$$$$
