gdb 3207	3.0217876	1.3436309	1.1612504	1.1794	76.19	-0.24415	0.06465	0.3088	1134.4081	0.155205	-422.506031	-422.497178	-422.496234	-422.539064	33.599
 OpenBabel02181911413D

 19 21  0  0  1  0  0  0  0  0999 V2000
    1.5348    0.2227   -1.5704 C   0  0  0  0  0  0  0  0  0  0  0  0
    1.1215    0.6231   -0.1693 C   0  0  2  0  0  0  0  0  0  0  0  0
    1.9761    1.6331    0.5607 C   0  0  1  0  0  0  0  0  0  0  0  0
    1.3018    2.0157    1.8879 C   0  0  0  0  0  0  0  0  0  0  0  0
    1.4011    0.5311    2.3011 C   0  0  1  0  0  0  0  0  0  0  0  0
    1.7129   -0.0354    3.6087 C   0  0  0  0  0  0  0  0  0  0  0  0
    0.4218   -0.2218    3.0018 O   0  0  0  0  0  0  0  0  0  0  0  0
    1.9977    0.1512    0.9696 C   0  0  1  0  0  0  0  0  0  0  0  0
    3.0067   -0.7814    0.8115 O   0  0  0  0  0  0  0  0  0  0  0  0
    1.1466   -0.7686   -1.8316 H   0  0  0  0  0  0  0  0  0  0  0  0
    1.1452    0.9322   -2.3074 H   0  0  0  0  0  0  0  0  0  0  0  0
    2.6231    0.1912   -1.6703 H   0  0  0  0  0  0  0  0  0  0  0  0
    0.0439    0.6602   -0.0093 H   0  0  0  0  0  0  0  0  0  0  0  0
    2.7486    2.1991    0.0564 H   0  0  0  0  0  0  0  0  0  0  0  0
    1.8978    2.6758    2.5227 H   0  0  0  0  0  0  0  0  0  0  0  0
    0.2857    2.4129    1.8038 H   0  0  0  0  0  0  0  0  0  0  0  0
    2.3318   -0.9290    3.6713 H   0  0  0  0  0  0  0  0  0  0  0  0
    1.7285    0.6086    4.4875 H   0  0  0  0  0  0  0  0  0  0  0  0
    2.6189   -1.5960    0.4731 H   0  0  0  0  0  0  0  0  0  0  0  0
  1  2  1  0  0  0  0
  2 13  1  1  0  0  0
  2  3  1  0  0  0  0
  2  8  1  0  0  0  0
  3 14  1  6  0  0  0
  3  8  1  0  0  0  0
  3  4  1  0  0  0  0
  4  5  1  0  0  0  0
  4 15  1  0  0  0  0
  5  7  1  6  0  0  0
  5  6  1  0  0  0  0
  6 17  1  0  0  0  0
  6 18  1  0  0  0  0
  7  6  1  0  0  0  0
  8  9  1  6  0  0  0
  8  5  1  0  0  0  0
 10  1  1  0  0  0  0
 11  1  1  0  0  0  0
 12  1  1  0  0  0  0
 16  4  1  0  0  0  0
 19  9  1  0  0  0  0
M TOR 0 0 1 2 3
M TOR 1 0 1 2 7
M TOR 2 0 1 2 13
M TOR 3 0 1 7 4
M TOR 4 0 1 7 8
M TOR 5 1 2 3 4
M TOR 6 1 2 3 14
M TOR 7 1 2 3 15
M TOR 8 1 2 7 4
M TOR 9 1 2 7 8
M TOR 10 1 7 2 3
M TOR 11 1 7 2 13
M TOR 12 1 7 4 3
M TOR 13 1 7 4 5
M TOR 14 1 7 4 6
M TOR 15 1 7 8 18
M TOR 16 2 1 0 9
M TOR 17 2 1 0 10
M TOR 18 2 1 0 11
M TOR 19 2 3 4 5
M TOR 20 2 3 4 6
M TOR 21 2 3 4 7
M TOR 22 2 7 1 12
M TOR 23 2 7 4 5
M TOR 24 2 7 4 6
M TOR 25 2 7 8 18
M TOR 26 3 2 1 12
M TOR 27 3 2 7 8
M TOR 28 3 4 5 6
M TOR 29 3 4 5 16
M TOR 30 3 4 5 17
M TOR 31 3 4 7 8
M TOR 32 4 3 2 13
M TOR 33 4 6 5 16
M TOR 34 4 6 5 17
M TOR 35 4 7 1 12
M TOR 36 4 7 2 13
M TOR 37 4 7 8 18
M TOR 38 5 4 3 14
M TOR 39 5 4 3 15
M TOR 40 5 4 7 8
M TOR 41 5 6 4 7
M TOR 42 6 4 3 14
M TOR 43 6 4 3 15
M TOR 44 6 4 7 8
M TOR 45 7 1 0 9
M TOR 46 7 1 0 10
M TOR 47 7 1 0 11
M TOR 48 7 2 3 14
M TOR 49 7 2 3 15
M TOR 50 7 4 3 14
M TOR 51 7 4 3 15
M TOR 52 7 4 5 16
M TOR 53 7 4 5 17
M TOR 54 8 7 1 12
M TOR 55 8 7 2 13
M  END
$$$$
