gdb 2063	2.5648957	1.7625991	1.4230585	2.5079	74.41	-0.24867	0.08912	0.33779000000000003	995.8885	0.157466	-422.524056	-422.516288	-422.515344	-422.55579	30.744
 OpenBabel02181911403D

 19 21  0  0  1  0  0  0  0  0999 V2000
    0.0008   -0.0131    0.1209 C   0  0  0  0  0  0  0  0  0  0  0  0
    1.5031    0.0313   -0.0729 C   0  0  1  0  0  0  0  0  0  0  0  0
    2.3533   -1.1045    0.4574 C   0  0  0  0  0  0  0  0  0  0  0  0
    2.1505   -0.9463   -1.0256 C   0  0  2  0  0  0  0  0  0  0  0  0
    3.2579   -0.5345   -1.7746 O   0  0  0  0  0  0  0  0  0  0  0  0
    3.1757    0.7697   -2.3181 C   0  0  0  0  0  0  0  0  0  0  0  0
    2.8953    1.8185   -1.2600 C   0  0  2  0  0  0  0  0  0  0  0  0
    3.4927    1.5878    0.0180 O   0  0  0  0  0  0  0  0  0  0  0  0
    2.0766    1.4251   -0.1062 C   0  0  2  0  0  0  0  0  0  0  0  0
   -0.2801    0.3670    1.1102 H   0  0  0  0  0  0  0  0  0  0  0  0
   -0.5201    0.5920   -0.6305 H   0  0  0  0  0  0  0  0  0  0  0  0
   -0.3747   -1.0372    0.0408 H   0  0  0  0  0  0  0  0  0  0  0  0
    3.3409   -0.8493    0.8225 H   0  0  0  0  0  0  0  0  0  0  0  0
    1.8524   -1.9197    0.9686 H   0  0  0  0  0  0  0  0  0  0  0  0
    1.5096   -1.6543   -1.5503 H   0  0  0  0  0  0  0  0  0  0  0  0
    4.1452    0.9506   -2.7932 H   0  0  0  0  0  0  0  0  0  0  0  0
    2.3990    0.8428   -3.0990 H   0  0  0  0  0  0  0  0  0  0  0  0
    2.9049    2.8534   -1.6031 H   0  0  0  0  0  0  0  0  0  0  0  0
    1.4934    2.1820    0.4191 H   0  0  0  0  0  0  0  0  0  0  0  0
  1 10  1  0  0  0  0
  2  1  1  1  0  0  0
  2  3  1  0  0  0  0
  3 13  1  0  0  0  0
  3 14  1  0  0  0  0
  4 15  1  6  0  0  0
  4  2  1  0  0  0  0
  4  3  1  0  0  0  0
  5  4  1  0  0  0  0
  6  5  1  0  0  0  0
  6  7  1  0  0  0  0
  7 18  1  6  0  0  0
  7  9  1  0  0  0  0
  7  8  1  0  0  0  0
  9  2  1  0  0  0  0
  9  8  1  0  0  0  0
  9 19  1  1  0  0  0
 11  1  1  0  0  0  0
 12  1  1  0  0  0  0
 16  6  1  0  0  0  0
 17  6  1  0  0  0  0
M TOR 0 0 1 2 3
M TOR 1 0 1 2 12
M TOR 2 0 1 2 13
M TOR 3 0 1 3 4
M TOR 4 0 1 3 14
M TOR 5 0 1 8 6
M TOR 6 0 1 8 7
M TOR 7 0 1 8 18
M TOR 8 1 2 3 4
M TOR 9 1 2 3 14
M TOR 10 1 3 2 12
M TOR 11 1 3 2 13
M TOR 12 1 3 4 5
M TOR 13 1 8 6 5
M TOR 14 1 8 6 7
M TOR 15 1 8 6 17
M TOR 16 2 1 0 9
M TOR 17 2 1 0 10
M TOR 18 2 1 0 11
M TOR 19 2 1 8 6
M TOR 20 2 1 8 7
M TOR 21 2 1 8 18
M TOR 22 2 3 1 8
M TOR 23 2 3 4 5
M TOR 24 3 1 0 9
M TOR 25 3 1 0 10
M TOR 26 3 1 0 11
M TOR 27 3 1 8 6
M TOR 28 3 1 8 7
M TOR 29 3 1 8 18
M TOR 30 3 4 5 6
M TOR 31 3 4 5 15
M TOR 32 3 4 5 16
M TOR 33 4 3 1 8
M TOR 34 4 3 2 12
M TOR 35 4 3 2 13
M TOR 36 4 5 6 7
M TOR 37 4 5 6 8
M TOR 38 4 5 6 17
M TOR 39 5 4 3 14
M TOR 40 5 6 7 8
M TOR 41 5 6 8 18
M TOR 42 6 7 8 18
M TOR 43 7 6 5 15
M TOR 44 7 6 5 16
M TOR 45 7 8 6 17
M TOR 46 8 1 0 9
M TOR 47 8 1 0 10
M TOR 48 8 1 0 11
M TOR 49 8 1 2 12
M TOR 50 8 1 2 13
M TOR 51 8 1 3 14
M TOR 52 8 6 5 15
M TOR 53 8 6 5 16
M  END
$$$$
