
     RDKit          3D

 19 21  0  0  0  0  0  0  0  0999 V2000
    2.9526    2.0220    0.5976 C   0  0  0  0  0  0  0  0  0  0  0  0
    2.2868    0.8497    1.2387 C   0  0  0  0  0  0  0  0  0  0  0  0
    1.7496    0.5476    2.6024 C   0  0  0  0  0  0  0  0  0  0  0  0
    0.4633    0.1108    2.1722 O   0  0  0  0  0  0  0  0  0  0  0  0
    1.0716   -0.1025    0.8543 C   0  0  0  0  0  0  0  0  0  0  0  0
    0.1136    0.0176   -0.2895 C   0  0  0  0  0  0  0  0  0  0  0  0
    1.9916   -1.3365    1.0867 C   0  0  0  0  0  0  0  0  0  0  0  0
    2.8042   -0.3835    1.9615 C   0  0  0  0  0  0  0  0  0  0  0  0
    4.0843   -0.5332    2.4516 O   0  0  0  0  0  0  0  0  0  0  0  0
    3.7788    2.3740    1.2240 H   0  0  0  0  0  0  0  0  0  0  0  0
    3.3725    1.7629   -0.3812 H   0  0  0  0  0  0  0  0  0  0  0  0
    2.2569    2.8565    0.4568 H   0  0  0  0  0  0  0  0  0  0  0  0
    1.8631    1.0450    3.5578 H   0  0  0  0  0  0  0  0  0  0  0  0
   -0.6639   -0.7500   -0.2099 H   0  0  0  0  0  0  0  0  0  0  0  0
   -0.3719    0.9976   -0.2885 H   0  0  0  0  0  0  0  0  0  0  0  0
    0.6327   -0.1175   -1.2431 H   0  0  0  0  0  0  0  0  0  0  0  0
    1.5167   -2.2163    1.5346 H   0  0  0  0  0  0  0  0  0  0  0  0
    2.5418   -1.6082    0.1816 H   0  0  0  0  0  0  0  0  0  0  0  0
    4.0411   -1.0377    3.2719 H   0  0  0  0  0  0  0  0  0  0  0  0
  1  2  1  0
  2  3  1  0
  3  4  1  0
  4  5  1  0
  5  6  1  0
  5  7  1  0
  7  8  1  0
  8  9  1  0
  5  2  1  0
  8  2  1  0
  8  3  1  0
  1 10  1  0
  1 11  1  0
  1 12  1  0
  3 13  1  0
  6 14  1  0
  6 15  1  0
  6 16  1  0
  7 17  1  0
  7 18  1  0
  9 19  1  0
M  END
$$$$
