
     RDKit          3D

 19 20  0  0  0  0  0  0  0  0999 V2000
    1.5023    0.6568   -0.2520 C   0  0  0  0  0  0  0  0  0  0  0  0
    0.1273    0.0580   -0.1623 C   0  0  0  0  0  0  0  0  0  0  0  0
   -0.0822   -1.2124    0.1964 C   0  0  0  0  0  0  0  0  0  0  0  0
   -1.4454   -1.7891    0.2951 C   0  0  0  0  0  0  0  0  0  0  0  0
   -2.0602   -2.2505   -0.9281 O   0  0  0  0  0  0  0  0  0  0  0  0
   -2.5592   -1.0552   -0.3187 C   0  0  0  0  0  0  0  0  0  0  0  0
   -2.2560    0.2481   -1.0423 C   0  0  0  0  0  0  0  0  0  0  0  0
   -1.0494    0.9890   -0.4536 C   0  0  0  0  0  0  0  0  0  0  0  0
   -0.7244    2.0107   -1.3929 O   0  0  0  0  0  0  0  0  0  0  0  0
    1.6094    1.5164    0.4250 H   0  0  0  0  0  0  0  0  0  0  0  0
    2.2712   -0.0726    0.0132 H   0  0  0  0  0  0  0  0  0  0  0  0
    1.7028    1.0238   -1.2642 H   0  0  0  0  0  0  0  0  0  0  0  0
    0.7580   -1.8616    0.4313 H   0  0  0  0  0  0  0  0  0  0  0  0
   -1.6391   -2.4412    1.1466 H   0  0  0  0  0  0  0  0  0  0  0  0
   -3.5568   -1.1621    0.1058 H   0  0  0  0  0  0  0  0  0  0  0  0
   -2.0287    0.0228   -2.0888 H   0  0  0  0  0  0  0  0  0  0  0  0
   -3.1240    0.9135   -1.0314 H   0  0  0  0  0  0  0  0  0  0  0  0
   -1.3469    1.4549    0.5026 H   0  0  0  0  0  0  0  0  0  0  0  0
   -0.1420    2.6454   -0.9656 H   0  0  0  0  0  0  0  0  0  0  0  0
  1  2  1  0
  2  3  2  0
  3  4  1  0
  4  5  1  0
  5  6  1  0
  6  7  1  0
  7  8  1  0
  8  9  1  0
  8  2  1  0
  6  4  1  0
  1 10  1  0
  1 11  1  0
  1 12  1  0
  3 13  1  0
  4 14  1  0
  6 15  1  0
  7 16  1  0
  7 17  1  0
  8 18  1  0
  9 19  1  0
M  END
$$$$
