
     RDKit          3D

 19 19  0  0  0  0  0  0  0  0999 V2000
    1.5066    0.0086   -0.0751 C   0  0  0  0  0  0  0  0  0  0  0  0
    0.1054    0.1765    0.0071 O   0  0  0  0  0  0  0  0  0  0  0  0
   -0.3367    0.7802    1.2104 C   0  0  0  0  0  0  0  0  0  0  0  0
    0.1138    2.1695    1.3492 C   0  0  0  0  0  0  0  0  0  0  0  0
    0.4784    3.3109    1.4431 C   0  0  0  0  0  0  0  0  0  0  0  0
   -1.8671    0.6866    1.1818 C   0  0  0  0  0  0  0  0  0  0  0  0
   -2.4651   -0.7282    1.3067 C   0  0  0  0  0  0  0  0  0  0  0  0
   -3.1039   -0.1832    2.6004 C   0  0  0  0  0  0  0  0  0  0  0  0
   -2.4543    1.0980    2.4307 O   0  0  0  0  0  0  0  0  0  0  0  0
    1.8843   -0.6256    0.7419 H   0  0  0  0  0  0  0  0  0  0  0  0
    1.7109   -0.4819   -1.0293 H   0  0  0  0  0  0  0  0  0  0  0  0
    2.0331    0.9713   -0.0425 H   0  0  0  0  0  0  0  0  0  0  0  0
    0.0245    0.2035    2.0796 H   0  0  0  0  0  0  0  0  0  0  0  0
    0.7953    4.3204    1.5368 H   0  0  0  0  0  0  0  0  0  0  0  0
   -2.2402    1.2800    0.3385 H   0  0  0  0  0  0  0  0  0  0  0  0
   -3.1573   -1.0182    0.5162 H   0  0  0  0  0  0  0  0  0  0  0  0
   -1.7265   -1.5197    1.4433 H   0  0  0  0  0  0  0  0  0  0  0  0
   -4.1962   -0.0880    2.5833 H   0  0  0  0  0  0  0  0  0  0  0  0
   -2.8058   -0.6708    3.5360 H   0  0  0  0  0  0  0  0  0  0  0  0
  1  2  1  0
  2  3  1  0
  3  4  1  0
  4  5  3  0
  3  6  1  0
  6  7  1  0
  7  8  1  0
  8  9  1  0
  9  6  1  0
  1 10  1  0
  1 11  1  0
  1 12  1  0
  3 13  1  0
  5 14  1  0
  6 15  1  0
  7 16  1  0
  7 17  1  0
  8 18  1  0
  8 19  1  0
M  END
$$$$
