
     RDKit          3D

 19 20  0  0  0  0  0  0  0  0999 V2000
   -1.6519    2.6585   -2.4805 C   0  0  0  0  0  0  0  0  0  0  0  0
   -0.6210    2.3592   -3.5434 C   0  0  0  0  0  0  0  0  0  0  0  0
   -0.6108    2.8821   -4.6338 O   0  0  0  0  0  0  0  0  0  0  0  0
    0.4768    1.3561   -3.1897 C   0  0  0  0  0  0  0  0  0  0  0  0
    0.1338    0.4798   -2.0838 O   0  0  0  0  0  0  0  0  0  0  0  0
    0.1383   -0.6612   -2.9684 C   0  0  0  0  0  0  0  0  0  0  0  0
   -0.9078   -1.7039   -2.7529 C   0  0  0  0  0  0  0  0  0  0  0  0
    1.5148   -0.8551   -3.5256 C   0  0  0  0  0  0  0  0  0  0  0  0
    0.5933    0.1782   -4.1470 C   0  0  0  0  0  0  0  0  0  0  0  0
   -2.2267    1.7547   -2.2563 H   0  0  0  0  0  0  0  0  0  0  0  0
   -1.1600    2.9416   -1.5434 H   0  0  0  0  0  0  0  0  0  0  0  0
   -2.3135    3.4555   -2.8216 H   0  0  0  0  0  0  0  0  0  0  0  0
    1.3994    1.9213   -2.9907 H   0  0  0  0  0  0  0  0  0  0  0  0
   -0.7685   -2.1910   -1.7811 H   0  0  0  0  0  0  0  0  0  0  0  0
   -1.9124   -1.2699   -2.7754 H   0  0  0  0  0  0  0  0  0  0  0  0
   -0.8433   -2.4728   -3.5279 H   0  0  0  0  0  0  0  0  0  0  0  0
    2.3828   -0.5450   -2.9495 H   0  0  0  0  0  0  0  0  0  0  0  0
    1.6552   -1.7496   -4.1250 H   0  0  0  0  0  0  0  0  0  0  0  0
    0.2961    0.1900   -5.1861 H   0  0  0  0  0  0  0  0  0  0  0  0
  1  2  1  0
  2  3  2  0
  2  4  1  0
  4  5  1  0
  5  6  1  0
  6  7  1  0
  6  8  1  0
  8  9  1  0
  9  4  1  0
  9  6  1  0
  1 10  1  0
  1 11  1  0
  1 12  1  0
  4 13  1  0
  7 14  1  0
  7 15  1  0
  7 16  1  0
  8 17  1  0
  8 18  1  0
  9 19  1  0
M  END
$$$$
