gdb 2774	2.25854	1.4035406	1.0630444	2.2443	77.99	-0.24365	-0.02557	0.21808	1197.9167	0.155365	-422.543031	-422.533927	-422.532982	-422.576696	33.751
 OpenBabel02181911413D

 19 20  0  0  1  0  0  0  0  0999 V2000
    2.1412    1.6552    0.6099 C   0  0  0  0  0  0  0  0  0  0  0  0
    1.6559    0.2781    0.1778 C   0  0  1  0  0  0  0  0  0  0  0  0
    2.4592   -0.3531   -1.0074 C   0  0  0  0  0  0  0  0  0  0  0  0
    2.9448   -1.4808   -0.0916 C   0  0  2  0  0  0  0  0  0  0  0  0
    4.2916   -2.0561   -0.0157 C   0  0  0  0  0  0  0  0  0  0  0  0
    4.6595   -2.8415    0.8315 O   0  0  0  0  0  0  0  0  0  0  0  0
    1.7621   -2.1889    0.5619 C   0  0  2  0  0  0  0  0  0  0  0  0
    0.5552   -2.3487   -0.1152 O   0  0  0  0  0  0  0  0  0  0  0  0
    2.1140   -0.8659    1.0986 C   0  0  2  0  0  0  0  0  0  0  0  0
    1.6543    1.9726    1.5385 H   0  0  0  0  0  0  0  0  0  0  0  0
    3.2235    1.6580    0.7832 H   0  0  0  0  0  0  0  0  0  0  0  0
    1.9212    2.4045   -0.1578 H   0  0  0  0  0  0  0  0  0  0  0  0
    0.5742    0.2881    0.0189 H   0  0  0  0  0  0  0  0  0  0  0  0
    1.8733   -0.6673   -1.8750 H   0  0  0  0  0  0  0  0  0  0  0  0
    3.2740    0.2953   -1.3419 H   0  0  0  0  0  0  0  0  0  0  0  0
    4.9886   -1.7083   -0.8133 H   0  0  0  0  0  0  0  0  0  0  0  0
    2.0814   -3.0321    1.1730 H   0  0  0  0  0  0  0  0  0  0  0  0
    0.6418   -3.1009   -0.7105 H   0  0  0  0  0  0  0  0  0  0  0  0
    2.4705   -0.7438    2.1157 H   0  0  0  0  0  0  0  0  0  0  0  0
  1 11  1  0  0  0  0
  1 10  1  0  0  0  0
  2 13  1  6  0  0  0
  2  1  1  0  0  0  0
  2  9  1  0  0  0  0
  3  4  1  0  0  0  0
  3  2  1  0  0  0  0
  4  5  1  1  0  0  0
  4  7  1  0  0  0  0
  4  9  1  0  0  0  0
  5  6  2  0  0  0  0
  7  9  1  0  0  0  0
  7 17  1  1  0  0  0
  8  7  1  0  0  0  0
  9 19  1  1  0  0  0
 12  1  1  0  0  0  0
 14  3  1  0  0  0  0
 15  3  1  0  0  0  0
 16  5  1  0  0  0  0
 18  8  1  0  0  0  0
M TOR 0 0 1 2 3
M TOR 1 0 1 2 13
M TOR 2 0 1 2 14
M TOR 3 0 1 8 3
M TOR 4 0 1 8 6
M TOR 5 0 1 8 18
M TOR 6 1 2 3 4
M TOR 7 1 2 3 6
M TOR 8 1 2 3 8
M TOR 9 1 8 3 4
M TOR 10 1 8 3 6
M TOR 11 1 8 6 7
M TOR 12 1 8 6 16
M TOR 13 2 1 0 9
M TOR 14 2 1 0 10
M TOR 15 2 1 0 11
M TOR 16 2 1 8 6
M TOR 17 2 1 8 18
M TOR 18 2 3 4 5
M TOR 19 2 3 4 15
M TOR 20 2 3 6 7
M TOR 21 2 3 6 8
M TOR 22 2 3 6 16
M TOR 23 2 3 8 18
M TOR 24 3 2 1 12
M TOR 25 3 6 7 17
M TOR 26 3 6 8 18
M TOR 27 3 8 1 12
M TOR 28 3 8 6 7
M TOR 29 3 8 6 16
M TOR 30 4 3 2 13
M TOR 31 4 3 2 14
M TOR 32 4 3 6 7
M TOR 33 4 3 6 8
M TOR 34 4 3 6 16
M TOR 35 4 3 8 18
M TOR 36 5 4 3 6
M TOR 37 5 4 3 8
M TOR 38 6 3 2 13
M TOR 39 6 3 2 14
M TOR 40 6 3 4 15
M TOR 41 6 8 1 12
M TOR 42 7 6 8 18
M TOR 43 8 1 0 9
M TOR 44 8 1 0 10
M TOR 45 8 1 0 11
M TOR 46 8 1 2 13
M TOR 47 8 1 2 14
M TOR 48 8 3 2 13
M TOR 49 8 3 2 14
M TOR 50 8 3 4 15
M TOR 51 8 6 7 17
M  END
$$$$
