
     RDKit          3D

 19 21  0  0  0  0  0  0  0  0999 V2000
    1.4790    0.4224   -0.3658 O   0  0  0  0  0  0  0  0  0  0  0  0
    0.0923    0.3186   -0.0685 C   0  0  0  0  0  0  0  0  0  0  0  0
   -0.7769    0.2843   -1.3186 C   0  0  0  0  0  0  0  0  0  0  0  0
   -0.9314    1.6463   -2.0026 C   0  0  0  0  0  0  0  0  0  0  0  0
   -2.3116    1.6766   -2.6775 C   0  0  0  0  0  0  0  0  0  0  0  0
   -2.9889    0.3356   -2.3992 C   0  0  0  0  0  0  0  0  0  0  0  0
   -2.3037    0.4249   -1.0058 C   0  0  0  0  0  0  0  0  0  0  0  0
   -2.8659   -0.1343    0.1322 O   0  0  0  0  0  0  0  0  0  0  0  0
   -2.1700    1.9878   -1.2078 C   0  0  0  0  0  0  0  0  0  0  0  0
    1.6221    1.2719   -0.7945 H   0  0  0  0  0  0  0  0  0  0  0  0
   -0.0202   -0.6175    0.4877 H   0  0  0  0  0  0  0  0  0  0  0  0
   -0.2392    1.1310    0.5959 H   0  0  0  0  0  0  0  0  0  0  0  0
   -0.4817   -0.5641   -1.9500 H   0  0  0  0  0  0  0  0  0  0  0  0
   -0.1492    2.3230   -2.3256 H   0  0  0  0  0  0  0  0  0  0  0  0
   -2.5218    2.3715   -3.4798 H   0  0  0  0  0  0  0  0  0  0  0  0
   -4.0721    0.4523   -2.3051 H   0  0  0  0  0  0  0  0  0  0  0  0
   -2.7522   -0.5277   -3.0329 H   0  0  0  0  0  0  0  0  0  0  0  0
   -2.9482   -1.0853   -0.0025 H   0  0  0  0  0  0  0  0  0  0  0  0
   -2.4541    2.8410   -0.6109 H   0  0  0  0  0  0  0  0  0  0  0  0
  1  2  1  0
  2  3  1  0
  3  4  1  0
  4  5  1  0
  5  6  1  0
  6  7  1  0
  7  8  1  0
  7  9  1  0
  7  3  1  0
  9  4  1  0
  9  5  1  0
  1 10  1  0
  2 11  1  0
  2 12  1  0
  3 13  1  0
  4 14  1  0
  5 15  1  0
  6 16  1  0
  6 17  1  0
  8 18  1  0
  9 19  1  0
M  END
$$$$
