
     RDKit          3D

 19 21  0  0  0  0  0  0  0  0999 V2000
    0.9156    0.7745   -1.1198 C   0  0  0  0  0  0  0  0  0  0  0  0
    1.6934    0.1612    0.0336 C   0  0  0  0  0  0  0  0  0  0  0  0
    3.2160   -0.1954   -0.1830 C   0  0  0  0  0  0  0  0  0  0  0  0
    2.8699   -1.6591    0.1478 C   0  0  0  0  0  0  0  0  0  0  0  0
    3.2444   -2.6693    1.1973 C   0  0  0  0  0  0  0  0  0  0  0  0
    1.9891   -3.1371    1.7104 O   0  0  0  0  0  0  0  0  0  0  0  0
    0.9597   -2.1583    1.5021 C   0  0  0  0  0  0  0  0  0  0  0  0
    1.4497   -1.3387    0.3399 C   0  0  0  0  0  0  0  0  0  0  0  0
    1.8833   -2.1114   -0.7824 O   0  0  0  0  0  0  0  0  0  0  0  0
    0.9964    0.1432   -2.0090 H   0  0  0  0  0  0  0  0  0  0  0  0
   -0.1459    0.8795   -0.8704 H   0  0  0  0  0  0  0  0  0  0  0  0
    1.3021    1.7686   -1.3681 H   0  0  0  0  0  0  0  0  0  0  0  0
    1.5753    0.7536    0.9462 H   0  0  0  0  0  0  0  0  0  0  0  0
    3.6212   -0.0352   -1.1848 H   0  0  0  0  0  0  0  0  0  0  0  0
    3.8709    0.2740    0.5542 H   0  0  0  0  0  0  0  0  0  0  0  0
    3.7850   -3.5478    0.8325 H   0  0  0  0  0  0  0  0  0  0  0  0
    3.8499   -2.1814    1.9780 H   0  0  0  0  0  0  0  0  0  0  0  0
    0.0299   -2.7088    1.3309 H   0  0  0  0  0  0  0  0  0  0  0  0
    0.8290   -1.5090    2.3827 H   0  0  0  0  0  0  0  0  0  0  0  0
  1  2  1  0
  2  3  1  0
  3  4  1  0
  4  5  1  0
  5  6  1  0
  6  7  1  0
  7  8  1  0
  8  9  1  0
  8  2  1  0
  8  4  1  0
  9  4  1  0
  1 10  1  0
  1 11  1  0
  1 12  1  0
  2 13  1  0
  3 14  1  0
  3 15  1  0
  5 16  1  0
  5 17  1  0
  7 18  1  0
  7 19  1  0
M  END
$$$$
