gdb 937	4.2050825	0.9865534	0.9329395	2.1638	75.87	-0.27413	0.00978	0.28391	1303.4739	0.1573	-422.553537	-422.545225	-422.54428	-422.587802	30.399
 OpenBabel02181911403D

 19 20  0  0  1  0  0  0  0  0999 V2000
    1.2074    0.9396    1.1183 O   0  0  0  0  0  0  0  0  0  0  0  0
    0.4421    0.0489    0.8674 C   0  0  0  0  0  0  0  0  0  0  0  0
   -0.7925    0.1847    0.3662 O   0  0  0  0  0  0  0  0  0  0  0  0
   -1.2185    1.5340    0.0974 C   0  0  2  0  0  0  0  0  0  0  0  0
   -1.7843    2.2935    1.3257 C   0  0  0  0  0  0  0  0  0  0  0  0
   -3.1367    2.4647    0.5902 C   0  0  1  0  0  0  0  0  0  0  0  0
   -3.2103    3.6612   -0.4031 C   0  0  0  0  0  0  0  0  0  0  0  0
   -2.8051    2.7209   -1.5804 C   0  0  0  0  0  0  0  0  0  0  0  0
   -2.6073    1.5556   -0.5811 C   0  0  1  0  0  0  0  0  0  0  0  0
    0.6490   -1.0231    1.0127 H   0  0  0  0  0  0  0  0  0  0  0  0
   -0.4191    2.0459   -0.4433 H   0  0  0  0  0  0  0  0  0  0  0  0
   -1.8633    1.6244    2.1863 H   0  0  0  0  0  0  0  0  0  0  0  0
   -1.2534    3.1989    1.6303 H   0  0  0  0  0  0  0  0  0  0  0  0
   -4.0420    2.2470    1.1570 H   0  0  0  0  0  0  0  0  0  0  0  0
   -4.2053    4.0995   -0.5069 H   0  0  0  0  0  0  0  0  0  0  0  0
   -2.5073    4.4711   -0.1863 H   0  0  0  0  0  0  0  0  0  0  0  0
   -3.6297    2.5403   -2.2741 H   0  0  0  0  0  0  0  0  0  0  0  0
   -1.9259    3.0078   -2.1654 H   0  0  0  0  0  0  0  0  0  0  0  0
   -3.0116    0.5738   -0.8275 H   0  0  0  0  0  0  0  0  0  0  0  0
  2 10  1  0  0  0  0
  2  1  2  0  0  0  0
  3  2  1  0  0  0  0
  4 11  1  6  0  0  0
  4  3  1  0  0  0  0
  4  5  1  0  0  0  0
  5 13  1  0  0  0  0
  5 12  1  0  0  0  0
  6 14  1  1  0  0  0
  6  5  1  0  0  0  0
  7 16  1  0  0  0  0
  7  6  1  0  0  0  0
  8  9  1  0  0  0  0
  8  7  1  0  0  0  0
  9 19  1  6  0  0  0
  9  4  1  0  0  0  0
  9  6  1  0  0  0  0
 15  7  1  0  0  0  0
 17  8  1  0  0  0  0
 18  8  1  0  0  0  0
M TOR 0 0 1 2 3
M TOR 1 1 2 3 4
M TOR 2 1 2 3 8
M TOR 3 1 2 3 10
M TOR 4 2 3 4 5
M TOR 5 2 3 4 11
M TOR 6 2 3 4 12
M TOR 7 2 3 8 5
M TOR 8 2 3 8 7
M TOR 9 2 3 8 18
M TOR 10 3 2 1 9
M TOR 11 3 4 5 6
M TOR 12 3 4 5 8
M TOR 13 3 4 5 13
M TOR 14 3 8 5 6
M TOR 15 3 8 5 13
M TOR 16 3 8 7 6
M TOR 17 3 8 7 16
M TOR 18 3 8 7 17
M TOR 19 4 3 8 7
M TOR 20 4 3 8 18
M TOR 21 4 5 6 7
M TOR 22 4 5 6 14
M TOR 23 4 5 6 15
M TOR 24 4 5 8 7
M TOR 25 4 5 8 18
M TOR 26 5 4 3 10
M TOR 27 5 6 7 8
M TOR 28 5 6 7 16
M TOR 29 5 6 7 17
M TOR 30 5 8 3 10
M TOR 31 5 8 7 16
M TOR 32 5 8 7 17
M TOR 33 6 5 4 11
M TOR 34 6 5 4 12
M TOR 35 6 5 8 18
M TOR 36 6 7 8 18
M TOR 37 7 6 5 13
M TOR 38 7 8 3 10
M TOR 39 7 8 5 13
M TOR 40 8 3 4 11
M TOR 41 8 3 4 12
M TOR 42 8 5 4 11
M TOR 43 8 5 4 12
M TOR 44 8 5 6 14
M TOR 45 8 5 6 15
M TOR 46 8 7 6 14
M TOR 47 8 7 6 15
M  END
$$$$
