
     RDKit          3D

 19 20  0  0  0  0  0  0  0  0999 V2000
   -4.6068    1.0189   -0.5023 C   0  0  0  0  0  0  0  0  0  0  0  0
   -3.2002    0.4854   -0.3470 C   0  0  0  0  0  0  0  0  0  0  0  0
   -2.4586   -0.0482   -1.5479 C   0  0  0  0  0  0  0  0  0  0  0  0
   -1.4818   -1.1922   -1.4036 C   0  0  0  0  0  0  0  0  0  0  0  0
   -0.8156   -1.2206   -0.1315 O   0  0  0  0  0  0  0  0  0  0  0  0
   -0.3323   -0.0836    0.4349 C   0  0  0  0  0  0  0  0  0  0  0  0
    0.3278   -0.1659    1.4335 O   0  0  0  0  0  0  0  0  0  0  0  0
   -0.6778    1.2372   -0.2389 C   0  0  0  0  0  0  0  0  0  0  0  0
   -2.0305    1.2525   -0.9246 C   0  0  0  0  0  0  0  0  0  0  0  0
   -4.8474    1.7381    0.2880 H   0  0  0  0  0  0  0  0  0  0  0  0
   -4.7326    1.5284   -1.4638 H   0  0  0  0  0  0  0  0  0  0  0  0
   -5.3455    0.2115   -0.4556 H   0  0  0  0  0  0  0  0  0  0  0  0
   -3.0145   -0.0308    0.5916 H   0  0  0  0  0  0  0  0  0  0  0  0
   -2.9680   -0.0250   -2.5073 H   0  0  0  0  0  0  0  0  0  0  0  0
   -1.9800   -2.1635   -1.4742 H   0  0  0  0  0  0  0  0  0  0  0  0
   -0.7250   -1.1478   -2.1993 H   0  0  0  0  0  0  0  0  0  0  0  0
   -0.5852    2.0091    0.5293 H   0  0  0  0  0  0  0  0  0  0  0  0
    0.1100    1.4359   -0.9794 H   0  0  0  0  0  0  0  0  0  0  0  0
   -2.2656    2.1739   -1.4496 H   0  0  0  0  0  0  0  0  0  0  0  0
  1  2  1  0
  2  3  1  0
  3  4  1  0
  4  5  1  0
  5  6  1  0
  6  7  2  0
  6  8  1  0
  8  9  1  0
  9  2  1  0
  9  3  1  0
  1 10  1  0
  1 11  1  0
  1 12  1  0
  2 13  1  0
  3 14  1  0
  4 15  1  0
  4 16  1  0
  8 17  1  0
  8 18  1  0
  9 19  1  0
M  END
$$$$
