
     RDKit          3D

 19 19  0  0  0  0  0  0  0  0999 V2000
   -3.0908    1.9263   -0.0017 O   0  0  0  0  0  0  0  0  0  0  0  0
   -2.1625    1.4013    0.5670 C   0  0  0  0  0  0  0  0  0  0  0  0
   -2.3400    0.7140    1.9144 C   0  0  0  0  0  0  0  0  0  0  0  0
   -2.6679   -0.7874    1.7296 C   0  0  0  0  0  0  0  0  0  0  0  0
   -1.4942   -1.6602    1.2624 C   0  0  0  0  0  0  0  0  0  0  0  0
   -0.8413   -1.2272   -0.0726 C   0  0  0  0  0  0  0  0  0  0  0  0
   -0.0242    0.0451    0.1093 C   0  0  0  0  0  0  0  0  0  0  0  0
    1.1515    0.0068    0.3865 O   0  0  0  0  0  0  0  0  0  0  0  0
   -0.7633    1.3740   -0.0479 C   0  0  0  0  0  0  0  0  0  0  0  0
   -1.4375    0.8251    2.5281 H   0  0  0  0  0  0  0  0  0  0  0  0
   -3.1727    1.2057    2.4234 H   0  0  0  0  0  0  0  0  0  0  0  0
   -3.0330   -1.1783    2.6853 H   0  0  0  0  0  0  0  0  0  0  0  0
   -3.5013   -0.8726    1.0214 H   0  0  0  0  0  0  0  0  0  0  0  0
   -0.7154   -1.6827    2.0347 H   0  0  0  0  0  0  0  0  0  0  0  0
   -1.8495   -2.6902    1.1515 H   0  0  0  0  0  0  0  0  0  0  0  0
   -0.1558   -2.0087   -0.4097 H   0  0  0  0  0  0  0  0  0  0  0  0
   -1.6156   -1.0847   -0.8366 H   0  0  0  0  0  0  0  0  0  0  0  0
   -0.1477    2.1536    0.4144 H   0  0  0  0  0  0  0  0  0  0  0  0
   -0.8632    1.6105   -1.1130 H   0  0  0  0  0  0  0  0  0  0  0  0
  1  2  2  0
  2  3  1  0
  3  4  1  0
  4  5  1  0
  5  6  1  0
  6  7  1  0
  7  8  2  0
  7  9  1  0
  9  2  1  0
  3 10  1  0
  3 11  1  0
  4 12  1  0
  4 13  1  0
  5 14  1  0
  5 15  1  0
  6 16  1  0
  6 17  1  0
  9 18  1  0
  9 19  1  0
M  END
$$$$
