gdb 2440	2.2570024	1.8849091	1.5393873	0.7923	74.01	-0.21475	0.06886	0.28361000000000003	975.8807	0.157036	-422.530458	-422.522336	-422.521392	-422.562464	31.875
 OpenBabel02181911413D

 19 21  0  0  1  0  0  0  0  0999 V2000
   -0.0447   -0.0196   -0.4174 C   0  0  0  0  0  0  0  0  0  0  0  0
    1.3821    0.0751    0.0219 C   0  0  2  0  0  0  0  0  0  0  0  0
    2.1109   -0.2568    1.2935 C   0  0  2  0  0  0  0  0  0  0  0  0
    2.8518    0.9616    1.3338 O   0  0  0  0  0  0  0  0  0  0  0  0
    2.3638    1.2718   -0.0188 C   0  0  1  0  0  0  0  0  0  0  0  0
    3.4659    0.9094   -1.0108 C   0  0  0  0  0  0  0  0  0  0  0  0
    3.6772   -0.6100   -0.7583 C   0  0  0  0  0  0  0  0  0  0  0  0
    2.4251   -1.0285    0.0166 C   0  0  2  0  0  0  0  0  0  0  0  0
    1.9385   -2.3308   -0.0819 O   0  0  0  0  0  0  0  0  0  0  0  0
   -0.6832    0.6929    0.1160 H   0  0  0  0  0  0  0  0  0  0  0  0
   -0.1446    0.1778   -1.4915 H   0  0  0  0  0  0  0  0  0  0  0  0
   -0.4250   -1.0282   -0.2320 H   0  0  0  0  0  0  0  0  0  0  0  0
    1.7931   -0.7112    2.2267 H   0  0  0  0  0  0  0  0  0  0  0  0
    1.9658    2.2873   -0.0746 H   0  0  0  0  0  0  0  0  0  0  0  0
    3.1196    1.0983   -2.0339 H   0  0  0  0  0  0  0  0  0  0  0  0
    4.3694    1.5019   -0.8439 H   0  0  0  0  0  0  0  0  0  0  0  0
    3.7384   -1.1822   -1.6882 H   0  0  0  0  0  0  0  0  0  0  0  0
    4.5927   -0.7982   -0.1884 H   0  0  0  0  0  0  0  0  0  0  0  0
    2.4716   -2.8962    0.4875 H   0  0  0  0  0  0  0  0  0  0  0  0
  1 12  1  0  0  0  0
  1 10  1  0  0  0  0
  2  1  1  6  0  0  0
  2  3  1  0  0  0  0
  3  4  1  0  0  0  0
  3 13  1  1  0  0  0
  5 14  1  6  0  0  0
  5  2  1  0  0  0  0
  5  4  1  0  0  0  0
  6 16  1  0  0  0  0
  6  7  1  0  0  0  0
  6  5  1  0  0  0  0
  7 18  1  0  0  0  0
  7  8  1  0  0  0  0
  8  9  1  6  0  0  0
  8  2  1  0  0  0  0
  8  3  1  0  0  0  0
  9 19  1  0  0  0  0
 11  1  1  0  0  0  0
 15  6  1  0  0  0  0
 17  7  1  0  0  0  0
M TOR 0 0 1 2 3
M TOR 1 0 1 2 7
M TOR 2 0 1 2 12
M TOR 3 0 1 4 3
M TOR 4 0 1 4 5
M TOR 5 0 1 4 13
M TOR 6 0 1 7 6
M TOR 7 0 1 7 8
M TOR 8 1 2 3 4
M TOR 9 1 2 7 6
M TOR 10 1 2 7 8
M TOR 11 1 4 5 6
M TOR 12 1 4 5 14
M TOR 13 1 4 5 15
M TOR 14 1 7 2 3
M TOR 15 1 7 2 12
M TOR 16 1 7 6 5
M TOR 17 1 7 6 16
M TOR 18 1 7 6 17
M TOR 19 1 7 8 18
M TOR 20 2 1 0 9
M TOR 21 2 1 0 10
M TOR 22 2 1 0 11
M TOR 23 2 1 4 5
M TOR 24 2 1 4 13
M TOR 25 2 3 4 5
M TOR 26 2 3 4 13
M TOR 27 2 7 1 4
M TOR 28 2 7 6 5
M TOR 29 2 7 6 16
M TOR 30 2 7 6 17
M TOR 31 2 7 8 18
M TOR 32 3 2 7 6
M TOR 33 3 2 7 8
M TOR 34 3 4 1 7
M TOR 35 3 4 5 6
M TOR 36 3 4 5 14
M TOR 37 3 4 5 15
M TOR 38 4 1 0 9
M TOR 39 4 1 0 10
M TOR 40 4 1 0 11
M TOR 41 4 1 2 12
M TOR 42 4 1 7 6
M TOR 43 4 1 7 8
M TOR 44 4 3 2 7
M TOR 45 4 3 2 12
M TOR 46 4 5 6 7
M TOR 47 4 5 6 16
M TOR 48 4 5 6 17
M TOR 49 5 4 1 7
M TOR 50 5 6 7 8
M TOR 51 6 5 4 13
M TOR 52 6 7 2 12
M TOR 53 6 7 8 18
M TOR 54 7 1 0 9
M TOR 55 7 1 0 10
M TOR 56 7 1 0 11
M TOR 57 7 1 4 13
M TOR 58 7 6 5 14
M TOR 59 7 6 5 15
M TOR 60 8 7 2 12
M TOR 61 8 7 6 16
M TOR 62 8 7 6 17
M  END
$$$$
