
     RDKit          3D

 19 20  0  0  0  0  0  0  0  0999 V2000
    2.2063    3.8567   -1.5587 O   0  0  0  0  0  0  0  0  0  0  0  0
    1.1204    3.0230   -1.2755 C   0  0  0  0  0  0  0  0  0  0  0  0
   -0.1264    3.1402   -2.2068 C   0  0  0  0  0  0  0  0  0  0  0  0
    0.0670    1.6536   -2.6461 C   0  0  0  0  0  0  0  0  0  0  0  0
    1.2071    1.4997   -1.6142 C   0  0  0  0  0  0  0  0  0  0  0  0
    0.7055    1.1735   -0.1625 C   0  0  0  0  0  0  0  0  0  0  0  0
    0.8180    2.6936    0.2042 C   0  0  0  0  0  0  0  0  0  0  0  0
    1.6160    0.2763    0.6273 C   0  0  0  0  0  0  0  0  0  0  0  0
    1.2797   -0.7343    1.1895 O   0  0  0  0  0  0  0  0  0  0  0  0
    1.9343    4.7705   -1.4159 H   0  0  0  0  0  0  0  0  0  0  0  0
   -1.0680    3.3662   -1.6987 H   0  0  0  0  0  0  0  0  0  0  0  0
    0.0223    3.8621   -3.0130 H   0  0  0  0  0  0  0  0  0  0  0  0
   -0.7907    0.9895   -2.5145 H   0  0  0  0  0  0  0  0  0  0  0  0
    0.4175    1.5639   -3.6768 H   0  0  0  0  0  0  0  0  0  0  0  0
    2.1361    1.0193   -1.9239 H   0  0  0  0  0  0  0  0  0  0  0  0
   -0.3065    0.7651   -0.1265 H   0  0  0  0  0  0  0  0  0  0  0  0
   -0.0584    3.1503    0.6720 H   0  0  0  0  0  0  0  0  0  0  0  0
    1.7001    2.8919    0.8218 H   0  0  0  0  0  0  0  0  0  0  0  0
    2.6769    0.6242    0.6587 H   0  0  0  0  0  0  0  0  0  0  0  0
  1  2  1  0
  2  3  1  0
  3  4  1  0
  4  5  1  0
  5  6  1  0
  6  7  1  0
  6  8  1  0
  8  9  2  0
  5  2  1  0
  7  2  1  0
  1 10  1  0
  3 11  1  0
  3 12  1  0
  4 13  1  0
  4 14  1  0
  5 15  1  0
  6 16  1  0
  7 17  1  0
  7 18  1  0
  8 19  1  0
M  END
$$$$
