
     RDKit          3D

 19 20  0  0  0  0  0  0  0  0999 V2000
    0.1381   -1.3577   -0.0557 O   0  0  0  0  0  0  0  0  0  0  0  0
    0.3467   -0.1734    0.0056 C   0  0  0  0  0  0  0  0  0  0  0  0
   -0.0602    0.7219    1.1537 C   0  0  0  0  0  0  0  0  0  0  0  0
   -0.9004    1.9036    0.6704 C   0  0  0  0  0  0  0  0  0  0  0  0
   -1.4756    2.9618    1.6789 C   0  0  0  0  0  0  0  0  0  0  0  0
   -1.5163    3.9390    0.4611 C   0  0  0  0  0  0  0  0  0  0  0  0
   -0.2067    3.1895    0.1300 C   0  0  0  0  0  0  0  0  0  0  0  0
    0.6782    3.5643    1.2001 O   0  0  0  0  0  0  0  0  0  0  0  0
   -0.1900    3.4500    2.3546 C   0  0  0  0  0  0  0  0  0  0  0  0
    0.8721    0.3562   -0.8238 H   0  0  0  0  0  0  0  0  0  0  0  0
   -0.5975    0.1170    1.8907 H   0  0  0  0  0  0  0  0  0  0  0  0
    0.8602    1.1051    1.6129 H   0  0  0  0  0  0  0  0  0  0  0  0
   -1.6945    1.5729   -0.0047 H   0  0  0  0  0  0  0  0  0  0  0  0
   -2.3396    2.7588    2.3101 H   0  0  0  0  0  0  0  0  0  0  0  0
   -2.3311    3.7256   -0.2317 H   0  0  0  0  0  0  0  0  0  0  0  0
   -1.4366    5.0102    0.6584 H   0  0  0  0  0  0  0  0  0  0  0  0
    0.3212    3.2564   -0.8200 H   0  0  0  0  0  0  0  0  0  0  0  0
    0.2340    2.7430    3.0762 H   0  0  0  0  0  0  0  0  0  0  0  0
   -0.3022    4.4259    2.8402 H   0  0  0  0  0  0  0  0  0  0  0  0
  1  2  2  0
  2  3  1  0
  3  4  1  0
  4  5  1  0
  5  6  1  0
  6  7  1  0
  7  8  1  0
  8  9  1  0
  7  4  1  0
  9  5  1  0
  2 10  1  0
  3 11  1  0
  3 12  1  0
  4 13  1  0
  5 14  1  0
  6 15  1  0
  6 16  1  0
  7 17  1  0
  9 18  1  0
  9 19  1  0
M  END
$$$$
