gdb 5908	2.2081937	1.1343692	0.9415075	2.7961	79.11	-0.25386	-0.03621	0.21764999999999998	1359.3698	0.15132	-422.522481	-422.511491	-422.510547	-422.559128	38.108
 OpenBabel02181911423D

 19 18  0  0  1  0  0  0  0  0999 V2000
   -0.1469   -0.1687    0.1438 C   0  0  0  0  0  0  0  0  0  0  0  0
    1.3642   -0.0132    0.1432 C   0  0  0  0  0  0  0  0  0  0  0  0
    1.8453   -0.4892   -1.1100 O   0  0  0  0  0  0  0  0  0  0  0  0
    3.2558   -0.5516   -1.2758 C   0  0  2  0  0  0  0  0  0  0  0  0
    3.9345    0.8227   -1.3004 C   0  0  0  0  0  0  0  0  0  0  0  0
    3.4010   -1.2563   -2.6488 C   0  0  0  0  0  0  0  0  0  0  0  0
    4.2439   -0.9970   -3.4601 O   0  0  0  0  0  0  0  0  0  0  0  0
    3.8847   -1.4525   -0.2965 C   0  0  0  0  0  0  0  0  0  0  0  0
    4.4051   -2.2209    0.4685 C   0  0  0  0  0  0  0  0  0  0  0  0
   -0.5627    0.1938    1.0887 H   0  0  0  0  0  0  0  0  0  0  0  0
   -0.5944    0.4034   -0.6739 H   0  0  0  0  0  0  0  0  0  0  0  0
   -0.4252   -1.2190    0.0206 H   0  0  0  0  0  0  0  0  0  0  0  0
    1.6416    1.0412    0.2842 H   0  0  0  0  0  0  0  0  0  0  0  0
    1.8174   -0.5904    0.9607 H   0  0  0  0  0  0  0  0  0  0  0  0
    3.9763    1.2639   -0.3028 H   0  0  0  0  0  0  0  0  0  0  0  0
    4.9512    0.7157   -1.6831 H   0  0  0  0  0  0  0  0  0  0  0  0
    3.3785    1.4858   -1.9685 H   0  0  0  0  0  0  0  0  0  0  0  0
    2.6284   -2.0376   -2.8000 H   0  0  0  0  0  0  0  0  0  0  0  0
    4.8669   -2.8915    1.1511 H   0  0  0  0  0  0  0  0  0  0  0  0
  1 10  1  0  0  0  0
  2  1  1  0  0  0  0
  2 13  1  0  0  0  0
  2 14  1  0  0  0  0
  3  2  1  0  0  0  0
  4  3  1  0  0  0  0
  4  8  1  1  0  0  0
  5  4  1  0  0  0  0
  5 15  1  0  0  0  0
  6  4  1  0  0  0  0
  7  6  2  0  0  0  0
  8  9  3  0  0  0  0
  9 19  1  0  0  0  0
 11  1  1  0  0  0  0
 12  1  1  0  0  0  0
 16  5  1  0  0  0  0
 17  5  1  0  0  0  0
 18  6  1  0  0  0  0
M TOR 0 0 1 2 3
M TOR 1 1 2 3 4
M TOR 2 1 2 3 5
M TOR 3 1 2 3 7
M TOR 4 2 1 0 9
M TOR 5 2 1 0 10
M TOR 6 2 1 0 11
M TOR 7 2 3 4 14
M TOR 8 2 3 4 15
M TOR 9 2 3 4 16
M TOR 10 2 3 5 6
M TOR 11 2 3 5 17
M TOR 12 2 3 7 8
M TOR 13 3 2 1 12
M TOR 14 3 2 1 13
M TOR 15 3 7 8 18
M TOR 16 4 3 5 6
M TOR 17 4 3 5 17
M TOR 18 4 3 7 8
M TOR 19 5 3 4 14
M TOR 20 5 3 4 15
M TOR 21 5 3 4 16
M TOR 22 5 3 7 8
M TOR 23 6 5 3 7
M TOR 24 7 3 4 14
M TOR 25 7 3 4 15
M TOR 26 7 3 4 16
M TOR 27 7 3 5 17
M  END
$$$$
