gdb 550	3.4636605	1.6816755	1.4936607	2.5865	72.68	-0.24101	0.07579	0.31679999999999997	937.7726	0.160901	-422.558127	-422.551563	-422.550618	-422.588858	26.943
 OpenBabel02181911403D

 19 21  0  0  1  0  0  0  0  0999 V2000
   -0.1849    1.3146   -0.7835 C   0  0  0  0  0  0  0  0  0  0  0  0
   -0.4201   -0.0184   -0.2744 O   0  0  0  0  0  0  0  0  0  0  0  0
    0.8791   -0.0710    0.3340 C   0  0  1  0  0  0  0  0  0  0  0  0
    1.2269    1.3619   -0.1671 C   0  0  2  0  0  0  0  0  0  0  0  0
    1.3581    2.1172    1.1642 C   0  0  2  0  0  0  0  0  0  0  0  0
    2.6841    1.7020    1.8427 C   0  0  0  0  0  0  0  0  0  0  0  0
    2.3335    0.2595    2.3263 C   0  0  0  0  0  0  0  0  0  0  0  0
    0.8650    0.1332    1.8550 C   0  0  1  0  0  0  0  0  0  0  0  0
    0.3719    1.4767    1.9883 O   0  0  0  0  0  0  0  0  0  0  0  0
   -0.2178    1.3370   -1.8797 H   0  0  0  0  0  0  0  0  0  0  0  0
   -0.9016    2.0381   -0.3789 H   0  0  0  0  0  0  0  0  0  0  0  0
    1.4629   -0.9360    0.0033 H   0  0  0  0  0  0  0  0  0  0  0  0
    2.0626    1.4993   -0.8526 H   0  0  0  0  0  0  0  0  0  0  0  0
    1.1575    3.1887    1.1254 H   0  0  0  0  0  0  0  0  0  0  0  0
    3.5354    1.7307    1.1576 H   0  0  0  0  0  0  0  0  0  0  0  0
    2.9050    2.3613    2.6847 H   0  0  0  0  0  0  0  0  0  0  0  0
    2.9808   -0.5070    1.8910 H   0  0  0  0  0  0  0  0  0  0  0  0
    2.3970    0.1744    3.4127 H   0  0  0  0  0  0  0  0  0  0  0  0
    0.2275   -0.5505    2.4147 H   0  0  0  0  0  0  0  0  0  0  0  0
  1 11  1  0  0  0  0
  1  2  1  0  0  0  0
  1  4  1  0  0  0  0
  2  3  1  0  0  0  0
  3 12  1  6  0  0  0
  3  8  1  0  0  0  0
  4 13  1  6  0  0  0
  4  3  1  0  0  0  0
  4  5  1  0  0  0  0
  5 14  1  6  0  0  0
  5  6  1  0  0  0  0
  5  9  1  0  0  0  0
  6  7  1  0  0  0  0
  6 16  1  0  0  0  0
  7 18  1  0  0  0  0
  8  9  1  0  0  0  0
  8  7  1  0  0  0  0
  8 19  1  1  0  0  0
 10  1  1  0  0  0  0
 15  6  1  0  0  0  0
 17  7  1  0  0  0  0
M TOR 0 0 1 2 3
M TOR 1 0 1 2 7
M TOR 2 0 1 2 11
M TOR 3 0 3 2 7
M TOR 4 0 3 2 11
M TOR 5 0 3 4 5
M TOR 6 0 3 4 8
M TOR 7 0 3 4 13
M TOR 8 1 0 3 4
M TOR 9 1 0 3 12
M TOR 10 1 2 3 4
M TOR 11 1 2 3 12
M TOR 12 1 2 7 6
M TOR 13 1 2 7 8
M TOR 14 1 2 7 18
M TOR 15 2 1 0 9
M TOR 16 2 1 0 10
M TOR 17 2 3 0 9
M TOR 18 2 3 0 10
M TOR 19 2 3 4 5
M TOR 20 2 3 4 8
M TOR 21 2 3 4 13
M TOR 22 2 7 6 5
M TOR 23 2 7 6 16
M TOR 24 2 7 6 17
M TOR 25 2 7 8 4
M TOR 26 3 2 7 6
M TOR 27 3 2 7 8
M TOR 28 3 2 7 18
M TOR 29 3 4 5 6
M TOR 30 3 4 5 14
M TOR 31 3 4 5 15
M TOR 32 3 4 8 7
M TOR 33 4 3 0 9
M TOR 34 4 3 0 10
M TOR 35 4 3 2 7
M TOR 36 4 3 2 11
M TOR 37 4 5 6 7
M TOR 38 4 5 6 16
M TOR 39 4 5 6 17
M TOR 40 4 8 7 6
M TOR 41 4 8 7 18
M TOR 42 5 4 3 12
M TOR 43 5 4 8 7
M TOR 44 5 6 7 8
M TOR 45 5 6 7 18
M TOR 46 6 5 4 8
M TOR 47 6 5 4 13
M TOR 48 6 7 2 11
M TOR 49 7 2 3 12
M TOR 50 7 6 5 14
M TOR 51 7 6 5 15
M TOR 52 7 8 4 13
M TOR 53 8 4 3 12
M TOR 54 8 4 5 14
M TOR 55 8 4 5 15
M TOR 56 8 7 2 11
M TOR 57 8 7 6 16
M TOR 58 8 7 6 17
M  END
$$$$
