gdb 3523	2.4401988	1.4772181	1.0919308	2.9844	77.27	-0.23995	-0.01964	0.22031	1154.1529	0.156777	-422.593692	-422.584692	-422.583748	-422.627589	33.441
 OpenBabel02181911413D

 19 19  0  0  1  0  0  0  0  0999 V2000
   -1.0755    1.7459   -1.4292 C   0  0  0  0  0  0  0  0  0  0  0  0
   -0.8978    1.2513    0.0259 C   0  0  1  0  0  0  0  0  0  0  0  0
   -2.2221    1.1077    0.7344 C   0  0  0  0  0  0  0  0  0  0  0  0
   -2.7268   -0.0442    1.1770 C   0  0  0  0  0  0  0  0  0  0  0  0
   -2.0145   -1.3677    1.0534 C   0  0  2  0  0  0  0  0  0  0  0  0
   -1.5044   -1.7961    2.3156 O   0  0  0  0  0  0  0  0  0  0  0  0
   -0.9172   -1.3214   -0.0316 C   0  0  0  0  0  0  0  0  0  0  0  0
   -0.0946   -0.0496    0.0463 C   0  0  0  0  0  0  0  0  0  0  0  0
    1.1127   -0.0469    0.1151 O   0  0  0  0  0  0  0  0  0  0  0  0
   -1.6489    1.0293   -2.0253 H   0  0  0  0  0  0  0  0  0  0  0  0
   -1.6155    2.6977   -1.4424 H   0  0  0  0  0  0  0  0  0  0  0  0
   -0.1013    1.8953   -1.9025 H   0  0  0  0  0  0  0  0  0  0  0  0
   -0.2843    1.9952    0.5491 H   0  0  0  0  0  0  0  0  0  0  0  0
   -2.7804    2.0312    0.8787 H   0  0  0  0  0  0  0  0  0  0  0  0
   -3.6772   -0.0578    1.7036 H   0  0  0  0  0  0  0  0  0  0  0  0
   -2.7327   -2.1495    0.7826 H   0  0  0  0  0  0  0  0  0  0  0  0
   -0.9826   -1.0739    2.6835 H   0  0  0  0  0  0  0  0  0  0  0  0
   -0.2606   -2.1893    0.0525 H   0  0  0  0  0  0  0  0  0  0  0  0
   -1.4079   -1.3447   -1.0140 H   0  0  0  0  0  0  0  0  0  0  0  0
  1  2  1  0  0  0  0
  2  8  1  0  0  0  0
  2 13  1  1  0  0  0
  2  3  1  0  0  0  0
  3 14  1  0  0  0  0
  3  4  2  0  0  0  0
  4 15  1  0  0  0  0
  5 16  1  6  0  0  0
  5  4  1  0  0  0  0
  5  6  1  0  0  0  0
  6 17  1  0  0  0  0
  7  8  1  0  0  0  0
  7 18  1  0  0  0  0
  7  5  1  0  0  0  0
  8  9  2  0  0  0  0
 10  1  1  0  0  0  0
 11  1  1  0  0  0  0
 12  1  1  0  0  0  0
 19  7  1  0  0  0  0
M TOR 0 0 1 2 3
M TOR 1 0 1 2 13
M TOR 2 0 1 7 6
M TOR 3 0 1 7 8
M TOR 4 1 2 3 4
M TOR 5 1 2 3 14
M TOR 6 1 7 6 4
M TOR 7 1 7 6 17
M TOR 8 1 7 6 18
M TOR 9 2 1 0 9
M TOR 10 2 1 0 10
M TOR 11 2 1 0 11
M TOR 12 2 1 7 6
M TOR 13 2 1 7 8
M TOR 14 2 3 4 5
M TOR 15 2 3 4 6
M TOR 16 2 3 4 15
M TOR 17 3 2 1 7
M TOR 18 3 2 1 12
M TOR 19 3 4 5 16
M TOR 20 3 4 6 7
M TOR 21 3 4 6 17
M TOR 22 3 4 6 18
M TOR 23 4 3 2 13
M TOR 24 4 6 7 8
M TOR 25 5 4 3 14
M TOR 26 5 4 6 7
M TOR 27 5 4 6 17
M TOR 28 5 4 6 18
M TOR 29 6 4 3 14
M TOR 30 6 4 5 16
M TOR 31 6 7 1 12
M TOR 32 7 1 0 9
M TOR 33 7 1 0 10
M TOR 34 7 1 0 11
M TOR 35 7 1 2 13
M TOR 36 7 6 4 15
M TOR 37 8 7 1 12
M TOR 38 8 7 6 17
M TOR 39 8 7 6 18
M  END
$$$$
