gdb 353	3.0485451	1.637551	1.2609745	1.7541	75.5	-0.25065	0.0126	0.26325	1021.8022	0.160282	-422.569718	-422.562606	-422.561662	-422.601111	28.369
 OpenBabel02181911403D

 19 20  0  0  1  0  0  0  0  0999 V2000
   -1.6188    1.9162    1.0110 C   0  0  0  0  0  0  0  0  0  0  0  0
   -0.1104    1.8737    0.9584 C   0  0  0  0  0  0  0  0  0  0  0  0
    0.3385    0.7916    0.3232 C   0  0  0  0  0  0  0  0  0  0  0  0
   -0.8078   -0.0411   -0.1955 C   0  0  2  0  0  0  0  0  0  0  0  0
   -0.9670    0.2785   -1.5887 O   0  0  0  0  0  0  0  0  0  0  0  0
   -2.2354   -0.0585   -2.0759 C   0  0  0  0  0  0  0  0  0  0  0  0
   -3.2633    0.6445   -1.4302 O   0  0  0  0  0  0  0  0  0  0  0  0
   -3.3405    0.2610   -0.0642 C   0  0  0  0  0  0  0  0  0  0  0  0
   -2.0049    0.4626    0.6529 C   0  0  2  0  0  0  0  0  0  0  0  0
   -2.0122    2.2236    1.9862 H   0  0  0  0  0  0  0  0  0  0  0  0
   -2.0104    2.6250    0.2689 H   0  0  0  0  0  0  0  0  0  0  0  0
    0.5131    2.6613    1.3679 H   0  0  0  0  0  0  0  0  0  0  0  0
    1.3737    0.5567    0.1081 H   0  0  0  0  0  0  0  0  0  0  0  0
   -0.6625   -1.1280   -0.1013 H   0  0  0  0  0  0  0  0  0  0  0  0
   -2.2584    0.2302   -3.1288 H   0  0  0  0  0  0  0  0  0  0  0  0
   -2.4113   -1.1483   -1.9749 H   0  0  0  0  0  0  0  0  0  0  0  0
   -4.1341    0.8637    0.3872 H   0  0  0  0  0  0  0  0  0  0  0  0
   -3.6418   -0.7984    0.0018 H   0  0  0  0  0  0  0  0  0  0  0  0
   -2.0159   -0.1235    1.5796 H   0  0  0  0  0  0  0  0  0  0  0  0
  1 10  1  0  0  0  0
  2  1  1  0  0  0  0
  2 12  1  0  0  0  0
  3  2  2  0  0  0  0
  4 14  1  1  0  0  0
  4  3  1  0  0  0  0
  4  9  1  0  0  0  0
  5  4  1  0  0  0  0
  6 16  1  0  0  0  0
  6  5  1  0  0  0  0
  6  7  1  0  0  0  0
  7  8  1  0  0  0  0
  8 18  1  0  0  0  0
  8 17  1  0  0  0  0
  8  9  1  0  0  0  0
  9  1  1  0  0  0  0
  9 19  1  1  0  0  0
 11  1  1  0  0  0  0
 13  3  1  0  0  0  0
 15  6  1  0  0  0  0
M TOR 0 0 1 2 3
M TOR 1 0 1 2 12
M TOR 2 0 8 3 2
M TOR 3 0 8 3 4
M TOR 4 0 8 3 13
M TOR 5 0 8 7 6
M TOR 6 0 8 7 16
M TOR 7 0 8 7 17
M TOR 8 1 0 8 3
M TOR 9 1 0 8 7
M TOR 10 1 0 8 18
M TOR 11 1 2 3 4
M TOR 12 1 2 3 8
M TOR 13 1 2 3 13
M TOR 14 2 1 0 8
M TOR 15 2 1 0 9
M TOR 16 2 1 0 10
M TOR 17 2 3 4 5
M TOR 18 2 3 8 7
M TOR 19 2 3 8 18
M TOR 20 3 2 1 11
M TOR 21 3 4 5 6
M TOR 22 3 4 5 14
M TOR 23 3 4 5 15
M TOR 24 3 8 0 9
M TOR 25 3 8 0 10
M TOR 26 3 8 7 6
M TOR 27 3 8 7 16
M TOR 28 3 8 7 17
M TOR 29 4 3 2 12
M TOR 30 4 3 8 7
M TOR 31 4 3 8 18
M TOR 32 4 5 6 7
M TOR 33 5 4 3 8
M TOR 34 5 4 3 13
M TOR 35 5 6 7 8
M TOR 36 5 6 7 16
M TOR 37 5 6 7 17
M TOR 38 6 7 8 18
M TOR 39 7 6 5 14
M TOR 40 7 6 5 15
M TOR 41 7 8 0 9
M TOR 42 7 8 0 10
M TOR 43 7 8 3 13
M TOR 44 8 0 1 11
M TOR 45 8 3 2 12
M  END
$$$$
