gdb 2666	2.6281337	1.5455753	1.1923138	1.3207	77.05	-0.22959	0.07747	0.30706	1080.2346	0.156823	-422.447426	-422.439422	-422.438478	-422.479433	31.943
 OpenBabel02181911413D

 19 21  0  0  1  0  0  0  0  0999 V2000
   -2.7922    0.1694    1.6363 O   0  0  0  0  0  0  0  0  0  0  0  0
   -2.0820   -0.1933    0.4779 C   0  0  2  0  0  0  0  0  0  0  0  0
   -0.8014    0.7183    0.2489 C   0  0  1  0  0  0  0  0  0  0  0  0
    0.4695    0.2486    0.6057 O   0  0  0  0  0  0  0  0  0  0  0  0
   -1.1603    0.6699   -1.2381 C   0  0  1  0  0  0  0  0  0  0  0  0
   -1.6471    1.3331   -2.5644 C   0  0  0  0  0  0  0  0  0  0  0  0
   -2.4531   -0.0289   -2.4013 C   0  0  1  0  0  0  0  0  0  0  0  0
   -1.1091   -0.6851   -2.0217 C   0  0  0  0  0  0  0  0  0  0  0  0
   -2.6307    0.3701   -0.8907 C   0  0  1  0  0  0  0  0  0  0  0  0
   -3.5673   -0.3975    1.7070 H   0  0  0  0  0  0  0  0  0  0  0  0
   -1.8105   -1.2538    0.4836 H   0  0  0  0  0  0  0  0  0  0  0  0
   -1.0230    1.7060    0.6799 H   0  0  0  0  0  0  0  0  0  0  0  0
    0.5676    0.3388    1.5592 H   0  0  0  0  0  0  0  0  0  0  0  0
   -2.2246    2.2551   -2.4604 H   0  0  0  0  0  0  0  0  0  0  0  0
   -0.9494    1.3823   -3.4066 H   0  0  0  0  0  0  0  0  0  0  0  0
   -3.2022   -0.4100   -3.1017 H   0  0  0  0  0  0  0  0  0  0  0  0
   -1.1483   -1.6145   -1.4547 H   0  0  0  0  0  0  0  0  0  0  0  0
   -0.3521   -0.7438   -2.8080 H   0  0  0  0  0  0  0  0  0  0  0  0
   -3.2523    1.2499   -0.6972 H   0  0  0  0  0  0  0  0  0  0  0  0
  1 10  1  0  0  0  0
  2 11  1  6  0  0  0
  2  1  1  0  0  0  0
  3  2  1  0  0  0  0
  3  4  1  0  0  0  0
  3 12  1  1  0  0  0
  4 13  1  0  0  0  0
  5  6  1  6  0  0  0
  5  9  1  0  0  0  0
  5  3  1  0  0  0  0
  6 14  1  0  0  0  0
  6  7  1  0  0  0  0
  7 16  1  6  0  0  0
  7  8  1  0  0  0  0
  7  9  1  0  0  0  0
  8 17  1  0  0  0  0
  8  5  1  0  0  0  0
  9 19  1  1  0  0  0
  9  2  1  0  0  0  0
 15  6  1  0  0  0  0
 18  8  1  0  0  0  0
M TOR 0 0 1 2 3
M TOR 1 0 1 2 4
M TOR 2 0 1 2 11
M TOR 3 0 1 8 4
M TOR 4 0 1 8 6
M TOR 5 0 1 8 18
M TOR 6 1 2 3 12
M TOR 7 1 2 4 5
M TOR 8 1 2 4 7
M TOR 9 1 2 4 8
M TOR 10 1 8 4 5
M TOR 11 1 8 4 7
M TOR 12 1 8 6 5
M TOR 13 1 8 6 7
M TOR 14 1 8 6 15
M TOR 15 2 1 0 9
M TOR 16 2 1 8 6
M TOR 17 2 1 8 18
M TOR 18 2 4 5 6
M TOR 19 2 4 5 13
M TOR 20 2 4 5 14
M TOR 21 2 4 7 6
M TOR 22 2 4 7 16
M TOR 23 2 4 7 17
M TOR 24 2 4 8 6
M TOR 25 2 4 8 18
M TOR 26 3 2 1 8
M TOR 27 3 2 1 10
M TOR 28 3 2 4 5
M TOR 29 3 2 4 7
M TOR 30 3 2 4 8
M TOR 31 4 2 1 10
M TOR 32 4 2 3 12
M TOR 33 4 5 6 7
M TOR 34 4 5 6 8
M TOR 35 4 5 6 15
M TOR 36 4 7 6 8
M TOR 37 4 7 6 15
M TOR 38 4 8 1 10
M TOR 39 4 8 6 15
M TOR 40 5 4 2 11
M TOR 41 5 4 7 16
M TOR 42 5 4 7 17
M TOR 43 5 4 8 18
M TOR 44 5 6 7 16
M TOR 45 5 6 7 17
M TOR 46 5 6 8 18
M TOR 47 6 8 1 10
M TOR 48 7 4 2 11
M TOR 49 7 4 5 13
M TOR 50 7 4 5 14
M TOR 51 7 4 8 18
M TOR 52 7 6 5 13
M TOR 53 7 6 5 14
M TOR 54 7 6 8 18
M TOR 55 8 1 0 9
M TOR 56 8 1 2 11
M TOR 57 8 4 2 11
M TOR 58 8 4 5 13
M TOR 59 8 4 5 14
M TOR 60 8 4 7 16
M TOR 61 8 4 7 17
M TOR 62 8 6 5 13
M TOR 63 8 6 5 14
M TOR 64 8 6 7 16
M TOR 65 8 6 7 17
M  END
$$$$
