gdb 2677	2.2403899	1.9517153	1.4299231	1.0036	74.01	-0.23328	0.00455	0.23782999999999999	974.3911	0.159128	-422.575334	-422.567718	-422.566774	-422.606866	31.092
 OpenBabel02181911413D

 19 20  0  0  1  0  0  0  0  0999 V2000
   -2.8018   -0.4589    1.1631 O   0  0  0  0  0  0  0  0  0  0  0  0
   -2.1260    0.4095    0.2769 C   0  0  1  0  0  0  0  0  0  0  0  0
   -2.5200    1.9185    0.4027 C   0  0  2  0  0  0  0  0  0  0  0  0
   -1.3068    2.5806   -0.2884 C   0  0  0  0  0  0  0  0  0  0  0  0
   -0.2809    1.9525    0.6901 C   0  0  1  0  0  0  0  0  0  0  0  0
   -0.9208    2.3021    2.0258 C   0  0  0  0  0  0  0  0  0  0  0  0
   -2.2480    2.2918    1.8576 C   0  0  0  0  0  0  0  0  0  0  0  0
   -0.5647    0.4429    0.4484 C   0  0  2  0  0  0  0  0  0  0  0  0
    0.1373    0.0489   -0.7211 O   0  0  0  0  0  0  0  0  0  0  0  0
   -2.6422   -0.1322    2.0564 H   0  0  0  0  0  0  0  0  0  0  0  0
   -2.3571    0.0426   -0.7278 H   0  0  0  0  0  0  0  0  0  0  0  0
   -3.5152    2.1481    0.0218 H   0  0  0  0  0  0  0  0  0  0  0  0
   -1.1557    2.2547   -1.3211 H   0  0  0  0  0  0  0  0  0  0  0  0
   -1.3328    3.6716   -0.2380 H   0  0  0  0  0  0  0  0  0  0  0  0
    0.7692    2.2154    0.5657 H   0  0  0  0  0  0  0  0  0  0  0  0
   -0.3741    2.4492    2.9491 H   0  0  0  0  0  0  0  0  0  0  0  0
   -3.0092    2.4417    2.6132 H   0  0  0  0  0  0  0  0  0  0  0  0
   -0.2686   -0.1768    1.3059 H   0  0  0  0  0  0  0  0  0  0  0  0
   -0.1036   -0.8621   -0.9186 H   0  0  0  0  0  0  0  0  0  0  0  0
  1 10  1  0  0  0  0
  2 11  1  6  0  0  0
  2  3  1  0  0  0  0
  2  8  1  0  0  0  0
  2  1  1  0  0  0  0
  3 12  1  6  0  0  0
  3  7  1  0  0  0  0
  4 14  1  0  0  0  0
  4  3  1  0  0  0  0
  4  5  1  0  0  0  0
  5 15  1  6  0  0  0
  5  6  1  0  0  0  0
  6 16  1  0  0  0  0
  7  6  2  0  0  0  0
  7 17  1  0  0  0  0
  8  5  1  0  0  0  0
  8 18  1  1  0  0  0
  9  8  1  0  0  0  0
 13  4  1  0  0  0  0
 19  9  1  0  0  0  0
M TOR 0 0 1 2 3
M TOR 1 0 1 2 6
M TOR 2 0 1 2 11
M TOR 3 0 1 7 4
M TOR 4 0 1 7 8
M TOR 5 0 1 7 17
M TOR 6 1 2 3 4
M TOR 7 1 2 3 12
M TOR 8 1 2 3 13
M TOR 9 1 2 6 5
M TOR 10 1 2 6 16
M TOR 11 1 7 4 3
M TOR 12 1 7 4 5
M TOR 13 1 7 4 14
M TOR 14 1 7 8 18
M TOR 15 2 1 0 9
M TOR 16 2 1 7 4
M TOR 17 2 1 7 8
M TOR 18 2 1 7 17
M TOR 19 2 3 4 5
M TOR 20 2 3 4 7
M TOR 21 2 3 4 14
M TOR 22 2 6 5 4
M TOR 23 2 6 5 15
M TOR 24 3 2 1 7
M TOR 25 3 2 1 10
M TOR 26 3 2 6 5
M TOR 27 3 2 6 16
M TOR 28 3 4 5 6
M TOR 29 3 4 5 15
M TOR 30 3 4 7 8
M TOR 31 3 4 7 17
M TOR 32 4 3 2 6
M TOR 33 4 3 2 11
M TOR 34 4 5 6 16
M TOR 35 4 7 1 10
M TOR 36 4 7 8 18
M TOR 37 5 4 3 12
M TOR 38 5 4 3 13
M TOR 39 5 4 7 8
M TOR 40 5 4 7 17
M TOR 41 5 6 2 11
M TOR 42 6 2 1 7
M TOR 43 6 2 1 10
M TOR 44 6 2 3 12
M TOR 45 6 2 3 13
M TOR 46 6 5 4 7
M TOR 47 6 5 4 14
M TOR 48 7 1 0 9
M TOR 49 7 1 2 11
M TOR 50 7 4 3 12
M TOR 51 7 4 3 13
M TOR 52 7 4 5 15
M TOR 53 8 7 1 10
M TOR 54 8 7 4 14
M  END
$$$$
