gdb 2261	3.078331	1.5959403	1.3406913	2.0895	74.51	-0.22399	0.07551	0.2995	999.6629	0.159194	-422.530055	-422.522758	-422.521814	-422.561228	29.863
 OpenBabel02181911413D

 19 21  0  0  1  0  0  0  0  0999 V2000
    0.2782   -0.0915    0.3129 O   0  0  0  0  0  0  0  0  0  0  0  0
   -0.9079    0.3223    0.8897 C   0  0  1  0  0  0  0  0  0  0  0  0
   -1.0103    1.2779    2.0775 C   0  0  0  0  0  0  0  0  0  0  0  0
   -2.3721    0.5975    2.4606 C   0  0  1  0  0  0  0  0  0  0  0  0
   -3.5878    1.4679    2.1486 C   0  0  0  0  0  0  0  0  0  0  0  0
   -3.4080    2.1728    0.9301 O   0  0  0  0  0  0  0  0  0  0  0  0
   -3.1699    1.3358   -0.1905 C   0  0  0  0  0  0  0  0  0  0  0  0
   -2.1561    0.2355    0.0619 C   0  0  2  0  0  0  0  0  0  0  0  0
   -2.1200   -0.4852    1.3902 C   0  0  1  0  0  0  0  0  0  0  0  0
    0.8673   -0.3855    1.0173 H   0  0  0  0  0  0  0  0  0  0  0  0
   -0.2410    1.0471    2.8227 H   0  0  0  0  0  0  0  0  0  0  0  0
   -1.0126    2.3520    1.8787 H   0  0  0  0  0  0  0  0  0  0  0  0
   -2.4105    0.2227    3.4854 H   0  0  0  0  0  0  0  0  0  0  0  0
   -4.5002    0.8479    2.1134 H   0  0  0  0  0  0  0  0  0  0  0  0
   -3.7318    2.2401    2.9113 H   0  0  0  0  0  0  0  0  0  0  0  0
   -4.1150    0.8643   -0.5148 H   0  0  0  0  0  0  0  0  0  0  0  0
   -2.8402    2.0037   -0.9937 H   0  0  0  0  0  0  0  0  0  0  0  0
   -2.0116   -0.4245   -0.7903 H   0  0  0  0  0  0  0  0  0  0  0  0
   -2.2762   -1.5516    1.4971 H   0  0  0  0  0  0  0  0  0  0  0  0
  1 10  1  0  0  0  0
  2  1  1  6  0  0  0
  2  9  1  0  0  0  0
  2  3  1  0  0  0  0
  3  4  1  0  0  0  0
  3 11  1  0  0  0  0
  4 13  1  1  0  0  0
  5  4  1  0  0  0  0
  5 15  1  0  0  0  0
  6  5  1  0  0  0  0
  7  8  1  0  0  0  0
  7  6  1  0  0  0  0
  8 18  1  6  0  0  0
  8  2  1  0  0  0  0
  8  9  1  0  0  0  0
  9 19  1  1  0  0  0
  9  4  1  0  0  0  0
 12  3  1  0  0  0  0
 14  5  1  0  0  0  0
 16  7  1  0  0  0  0
 17  7  1  0  0  0  0
M TOR 0 0 1 2 3
M TOR 1 0 1 2 10
M TOR 2 0 1 2 11
M TOR 3 0 1 7 6
M TOR 4 0 1 7 8
M TOR 5 0 1 7 17
M TOR 6 0 1 8 3
M TOR 7 0 1 8 18
M TOR 8 1 2 3 4
M TOR 9 1 2 3 8
M TOR 10 1 2 3 12
M TOR 11 1 7 6 5
M TOR 12 1 7 6 15
M TOR 13 1 7 6 16
M TOR 14 1 7 8 3
M TOR 15 1 7 8 18
M TOR 16 1 8 3 4
M TOR 17 1 8 3 12
M TOR 18 1 8 7 6
M TOR 19 1 8 7 17
M TOR 20 2 1 0 9
M TOR 21 2 1 7 6
M TOR 22 2 1 7 8
M TOR 23 2 1 7 17
M TOR 24 2 1 8 18
M TOR 25 2 3 4 5
M TOR 26 2 3 4 13
M TOR 27 2 3 4 14
M TOR 28 2 3 8 7
M TOR 29 2 3 8 18
M TOR 30 3 2 1 7
M TOR 31 3 4 5 6
M TOR 32 3 8 7 6
M TOR 33 3 8 7 17
M TOR 34 4 3 2 10
M TOR 35 4 3 2 11
M TOR 36 4 3 8 7
M TOR 37 4 3 8 18
M TOR 38 4 5 6 7
M TOR 39 4 5 6 15
M TOR 40 4 5 6 16
M TOR 41 5 4 3 8
M TOR 42 5 4 3 12
M TOR 43 5 6 7 8
M TOR 44 5 6 7 17
M TOR 45 6 5 4 13
M TOR 46 6 5 4 14
M TOR 47 6 7 8 18
M TOR 48 7 1 0 9
M TOR 49 7 1 2 10
M TOR 50 7 1 2 11
M TOR 51 7 8 3 12
M TOR 52 8 1 0 9
M TOR 53 8 1 2 10
M TOR 54 8 1 2 11
M TOR 55 8 3 2 10
M TOR 56 8 3 2 11
M TOR 57 8 3 4 13
M TOR 58 8 3 4 14
M TOR 59 8 7 6 15
M TOR 60 8 7 6 16
M  END
$$$$
