
     RDKit          3D

 19 19  0  0  0  0  0  0  0  0999 V2000
    3.4039    0.0253   -0.5630 C   0  0  0  0  0  0  0  0  0  0  0  0
    1.9827   -0.3002   -0.1374 C   0  0  0  0  0  0  0  0  0  0  0  0
    1.5731   -0.1011    1.3600 C   0  0  0  0  0  0  0  0  0  0  0  0
    0.1943    0.4055    0.8473 C   0  0  0  0  0  0  0  0  0  0  0  0
    0.8247    0.6683   -0.5507 C   0  0  0  0  0  0  0  0  0  0  0  0
    0.0190    0.2846   -1.7592 C   0  0  0  0  0  0  0  0  0  0  0  0
   -0.1551    0.9744   -2.7304 O   0  0  0  0  0  0  0  0  0  0  0  0
    1.5831   -1.3233    2.2335 C   0  0  0  0  0  0  0  0  0  0  0  0
    2.1942   -1.4402    3.2642 O   0  0  0  0  0  0  0  0  0  0  0  0
    4.1182   -0.6676   -0.1060 H   0  0  0  0  0  0  0  0  0  0  0  0
    3.5134   -0.0459   -1.6503 H   0  0  0  0  0  0  0  0  0  0  0  0
    3.6813    1.0409   -0.2628 H   0  0  0  0  0  0  0  0  0  0  0  0
    1.7180   -1.3211   -0.4449 H   0  0  0  0  0  0  0  0  0  0  0  0
    2.1579    0.6901    1.8355 H   0  0  0  0  0  0  0  0  0  0  0  0
   -0.5393   -0.4085    0.8068 H   0  0  0  0  0  0  0  0  0  0  0  0
   -0.2533    1.2550    1.3646 H   0  0  0  0  0  0  0  0  0  0  0  0
    1.1796    1.6957   -0.6619 H   0  0  0  0  0  0  0  0  0  0  0  0
   -0.4230   -0.7403   -1.6962 H   0  0  0  0  0  0  0  0  0  0  0  0
    0.9603   -2.1628    1.8370 H   0  0  0  0  0  0  0  0  0  0  0  0
  1  2  1  0
  2  3  1  0
  3  4  1  0
  4  5  1  0
  5  6  1  0
  6  7  2  0
  3  8  1  0
  8  9  2  0
  5  2  1  0
  1 10  1  0
  1 11  1  0
  1 12  1  0
  2 13  1  0
  3 14  1  0
  4 15  1  0
  4 16  1  0
  5 17  1  0
  6 18  1  0
  8 19  1  0
M  END
$$$$
