gdb 2732	2.7354021	1.420596	1.2004232	0.9113	75.62	-0.24724	0.0751	0.32233999999999996	1119.9611	0.154447	-422.501122	-422.492238	-422.491294	-422.534266	33.418
 OpenBabel02181911413D

 19 21  0  0  1  0  0  0  0  0999 V2000
    0.8675   -0.6651   -0.8555 C   0  0  0  0  0  0  0  0  0  0  0  0
    0.9832    0.1990    0.3910 C   0  0  1  0  0  0  0  0  0  0  0  0
    1.8718   -0.3208    1.5550 C   0  0  1  0  0  0  0  0  0  0  0  0
    1.4974   -1.2506    2.6618 C   0  0  0  0  0  0  0  0  0  0  0  0
    3.2142   -0.3734    1.0411 O   0  0  0  0  0  0  0  0  0  0  0  0
    2.7147    0.8909    1.5176 C   0  0  1  0  0  0  0  0  0  0  0  0
    1.8948    1.4560    0.3719 C   0  0  1  0  0  0  0  0  0  0  0  0
    2.2613    2.3920   -0.6864 C   0  0  0  0  0  0  0  0  0  0  0  0
    1.3671    2.7681    0.3791 O   0  0  0  0  0  0  0  0  0  0  0  0
    0.2640   -1.5589   -0.6631 H   0  0  0  0  0  0  0  0  0  0  0  0
    0.3882   -0.1154   -1.6723 H   0  0  0  0  0  0  0  0  0  0  0  0
    1.8585   -0.9838   -1.1891 H   0  0  0  0  0  0  0  0  0  0  0  0
   -0.0012    0.4999    0.7675 H   0  0  0  0  0  0  0  0  0  0  0  0
    1.3194   -2.2616    2.2781 H   0  0  0  0  0  0  0  0  0  0  0  0
    2.3009   -1.3052    3.4009 H   0  0  0  0  0  0  0  0  0  0  0  0
    0.5823   -0.9132    3.1587 H   0  0  0  0  0  0  0  0  0  0  0  0
    3.2751    1.4064    2.2895 H   0  0  0  0  0  0  0  0  0  0  0  0
    3.2364    2.8766   -0.6712 H   0  0  0  0  0  0  0  0  0  0  0  0
    1.7979    2.3074   -1.6681 H   0  0  0  0  0  0  0  0  0  0  0  0
  1 10  1  0  0  0  0
  1  2  1  0  0  0  0
  2 13  1  1  0  0  0
  2  3  1  0  0  0  0
  3  4  1  1  0  0  0
  4 16  1  0  0  0  0
  4 15  1  0  0  0  0
  5  6  1  0  0  0  0
  5  3  1  0  0  0  0
  6  3  1  0  0  0  0
  6 17  1  1  0  0  0
  7  9  1  1  0  0  0
  7  2  1  0  0  0  0
  7  6  1  0  0  0  0
  8 18  1  0  0  0  0
  8  7  1  0  0  0  0
  8  9  1  0  0  0  0
 11  1  1  0  0  0  0
 12  1  1  0  0  0  0
 14  4  1  0  0  0  0
 19  8  1  0  0  0  0
M TOR 0 0 1 2 3
M TOR 1 0 1 2 4
M TOR 2 0 1 2 5
M TOR 3 0 1 6 5
M TOR 4 0 1 6 7
M TOR 5 0 1 6 8
M TOR 6 1 2 3 13
M TOR 7 1 2 3 14
M TOR 8 1 2 3 15
M TOR 9 1 2 4 5
M TOR 10 1 2 5 6
M TOR 11 1 2 5 16
M TOR 12 1 6 5 4
M TOR 13 1 6 5 16
M TOR 14 1 6 7 8
M TOR 15 1 6 7 17
M TOR 16 1 6 7 18
M TOR 17 2 1 0 9
M TOR 18 2 1 0 10
M TOR 19 2 1 0 11
M TOR 20 2 1 6 7
M TOR 21 2 1 6 8
M TOR 22 2 4 5 6
M TOR 23 2 4 5 16
M TOR 24 2 5 6 7
M TOR 25 2 5 6 8
M TOR 26 3 2 1 6
M TOR 27 3 2 1 12
M TOR 28 3 2 4 5
M TOR 29 3 2 5 6
M TOR 30 3 2 5 16
M TOR 31 4 2 1 6
M TOR 32 4 2 1 12
M TOR 33 4 2 3 13
M TOR 34 4 2 3 14
M TOR 35 4 2 3 15
M TOR 36 4 5 6 7
M TOR 37 4 5 6 8
M TOR 38 5 2 1 12
M TOR 39 5 2 3 13
M TOR 40 5 2 3 14
M TOR 41 5 2 3 15
M TOR 42 5 6 1 12
M TOR 43 5 6 7 8
M TOR 44 5 6 7 17
M TOR 45 5 6 7 18
M TOR 46 6 1 0 9
M TOR 47 6 1 0 10
M TOR 48 6 1 0 11
M TOR 49 6 8 7 17
M TOR 50 6 8 7 18
M TOR 51 7 6 1 12
M TOR 52 7 6 5 16
M TOR 53 8 6 1 12
M TOR 54 8 6 5 16
M  END
$$$$
