gdb 3080	2.6846938	1.6506918	1.3719235	0.5489	74.13	-0.25676	0.06349	0.32025	1001.2559	0.158267	-422.532718	-422.525109	-422.524165	-422.564456	30.508
 OpenBabel02181911413D

 19 21  0  0  1  0  0  0  0  0999 V2000
    0.4563   -0.0161    0.0941 O   0  0  0  0  0  0  0  0  0  0  0  0
   -0.7247    0.4967    0.6445 C   0  0  2  0  0  0  0  0  0  0  0  0
   -2.1380    0.0964    0.1032 C   0  0  1  0  0  0  0  0  0  0  0  0
   -2.6195    1.4223    0.7608 C   0  0  0  0  0  0  0  0  0  0  0  0
   -1.2182    1.9413    0.3189 C   0  0  2  0  0  0  0  0  0  0  0  0
   -1.3557    1.8663   -1.1962 C   0  0  2  0  0  0  0  0  0  0  0  0
   -0.4967    2.5508   -2.1694 C   0  0  0  0  0  0  0  0  0  0  0  0
   -1.8350    2.9980   -1.9110 O   0  0  0  0  0  0  0  0  0  0  0  0
   -2.0372    0.4942   -1.3839 C   0  0  0  0  0  0  0  0  0  0  0  0
    0.4983    0.2243   -0.8369 H   0  0  0  0  0  0  0  0  0  0  0  0
   -0.6533    0.3336    1.7219 H   0  0  0  0  0  0  0  0  0  0  0  0
   -2.5921   -0.8660    0.3365 H   0  0  0  0  0  0  0  0  0  0  0  0
   -3.4917    1.9157    0.3276 H   0  0  0  0  0  0  0  0  0  0  0  0
   -2.7211    1.3505    1.8456 H   0  0  0  0  0  0  0  0  0  0  0  0
   -0.7543    2.8358    0.7325 H   0  0  0  0  0  0  0  0  0  0  0  0
    0.2918    3.2203   -1.8265 H   0  0  0  0  0  0  0  0  0  0  0  0
   -0.3364    2.1156   -3.1559 H   0  0  0  0  0  0  0  0  0  0  0  0
   -3.0125    0.6058   -1.8648 H   0  0  0  0  0  0  0  0  0  0  0  0
   -1.4435   -0.2096   -1.9766 H   0  0  0  0  0  0  0  0  0  0  0  0
  1  2  1  0  0  0  0
  2 11  1  1  0  0  0
  3 12  1  1  0  0  0
  3  2  1  0  0  0  0
  3  4  1  0  0  0  0
  4 14  1  0  0  0  0
  5  2  1  0  0  0  0
  5 15  1  1  0  0  0
  5  4  1  0  0  0  0
  6  8  1  6  0  0  0
  6  5  1  0  0  0  0
  7  8  1  0  0  0  0
  7 16  1  0  0  0  0
  7  6  1  0  0  0  0
  9  6  1  0  0  0  0
  9  3  1  0  0  0  0
 10  1  1  0  0  0  0
 13  4  1  0  0  0  0
 17  7  1  0  0  0  0
 18  9  1  0  0  0  0
 19  9  1  0  0  0  0
M TOR 0 0 1 2 3
M TOR 1 0 1 2 8
M TOR 2 0 1 2 11
M TOR 3 0 1 4 3
M TOR 4 0 1 4 5
M TOR 5 0 1 4 14
M TOR 6 1 2 3 4
M TOR 7 1 2 3 12
M TOR 8 1 2 3 13
M TOR 9 1 2 8 5
M TOR 10 1 2 8 17
M TOR 11 1 2 8 18
M TOR 12 1 4 3 12
M TOR 13 1 4 3 13
M TOR 14 1 4 5 6
M TOR 15 1 4 5 7
M TOR 16 1 4 5 8
M TOR 17 2 1 0 9
M TOR 18 2 1 4 5
M TOR 19 2 1 4 14
M TOR 20 2 3 4 5
M TOR 21 2 3 4 14
M TOR 22 2 8 5 4
M TOR 23 2 8 5 6
M TOR 24 2 8 5 7
M TOR 25 3 2 1 10
M TOR 26 3 2 8 5
M TOR 27 3 2 8 17
M TOR 28 3 2 8 18
M TOR 29 3 4 1 10
M TOR 30 3 4 5 6
M TOR 31 3 4 5 7
M TOR 32 3 4 5 8
M TOR 33 4 1 0 9
M TOR 34 4 1 2 8
M TOR 35 4 1 2 11
M TOR 36 4 3 2 8
M TOR 37 4 3 2 11
M TOR 38 4 5 6 7
M TOR 39 4 5 6 15
M TOR 40 4 5 6 16
M TOR 41 4 5 8 17
M TOR 42 4 5 8 18
M TOR 43 5 4 1 10
M TOR 44 5 4 3 12
M TOR 45 5 4 3 13
M TOR 46 5 7 6 15
M TOR 47 5 7 6 16
M TOR 48 5 8 2 11
M TOR 49 6 5 4 14
M TOR 50 6 5 8 17
M TOR 51 6 5 8 18
M TOR 52 6 7 5 8
M TOR 53 7 5 4 14
M TOR 54 7 5 8 17
M TOR 55 7 5 8 18
M TOR 56 8 2 1 10
M TOR 57 8 2 3 12
M TOR 58 8 2 3 13
M TOR 59 8 5 4 14
M TOR 60 8 5 6 15
M TOR 61 8 5 6 16
M  END
$$$$
