gdb 4712	2.2001739	1.3141242	1.050723	1.5468	77.65	-0.263	0.02891	0.29191	1245.1792	0.152716	-422.487787	-422.4775	-422.476556	-422.523131	36.599
 OpenBabel02181911413D

 19 19  0  0  1  0  0  0  0  0999 V2000
    1.5471   -0.0797   -0.0421 C   0  0  0  0  0  0  0  0  0  0  0  0
    0.1469    0.1169   -0.0525 O   0  0  0  0  0  0  0  0  0  0  0  0
   -0.3611    0.7312    1.1206 C   0  0  1  0  0  0  0  0  0  0  0  0
    0.1285    2.1068    1.2923 C   0  0  0  0  0  0  0  0  0  0  0  0
    0.5332    3.2308    1.4257 C   0  0  0  0  0  0  0  0  0  0  0  0
   -1.8867    0.6796    1.0154 C   0  0  1  0  0  0  0  0  0  0  0  0
   -2.5046    1.4389   -0.1324 C   0  0  0  0  0  0  0  0  0  0  0  0
   -2.5630   -0.4772    1.6144 C   0  0  0  0  0  0  0  0  0  0  0  0
   -2.5405    0.7901    2.2816 O   0  0  0  0  0  0  0  0  0  0  0  0
    1.8563   -0.7175    0.8002 H   0  0  0  0  0  0  0  0  0  0  0  0
    1.8021   -0.5797   -0.9789 H   0  0  0  0  0  0  0  0  0  0  0  0
    2.0916    0.8715    0.0207 H   0  0  0  0  0  0  0  0  0  0  0  0
   -0.0697    0.1496    2.0103 H   0  0  0  0  0  0  0  0  0  0  0  0
    0.8863    4.2246    1.5523 H   0  0  0  0  0  0  0  0  0  0  0  0
   -2.1075    1.0694   -1.0816 H   0  0  0  0  0  0  0  0  0  0  0  0
   -3.5904    1.3204   -0.1256 H   0  0  0  0  0  0  0  0  0  0  0  0
   -2.2691    2.5044   -0.0548 H   0  0  0  0  0  0  0  0  0  0  0  0
   -3.5338   -0.7850    1.2293 H   0  0  0  0  0  0  0  0  0  0  0  0
   -1.9804   -1.2667    2.0876 H   0  0  0  0  0  0  0  0  0  0  0  0
  1 12  1  0  0  0  0
  1 10  1  0  0  0  0
  2  1  1  0  0  0  0
  2  3  1  0  0  0  0
  3  4  1  0  0  0  0
  3 13  1  1  0  0  0
  4  5  3  0  0  0  0
  5 14  1  0  0  0  0
  6  7  1  6  0  0  0
  6  3  1  0  0  0  0
  6  8  1  0  0  0  0
  6  9  1  0  0  0  0
  7 16  1  0  0  0  0
  7 17  1  0  0  0  0
  8 19  1  0  0  0  0
  8  9  1  0  0  0  0
 11  1  1  0  0  0  0
 15  7  1  0  0  0  0
 18  8  1  0  0  0  0
M TOR 0 0 1 2 3
M TOR 1 0 1 2 5
M TOR 2 0 1 2 12
M TOR 3 1 2 3 4
M TOR 4 1 2 5 6
M TOR 5 1 2 5 7
M TOR 6 1 2 5 8
M TOR 7 2 1 0 9
M TOR 8 2 1 0 10
M TOR 9 2 1 0 11
M TOR 10 2 3 4 13
M TOR 11 2 5 6 14
M TOR 12 2 5 6 15
M TOR 13 2 5 6 16
M TOR 14 2 5 7 8
M TOR 15 2 5 7 17
M TOR 16 2 5 7 18
M TOR 17 3 2 5 6
M TOR 18 3 2 5 7
M TOR 19 3 2 5 8
M TOR 20 4 3 2 5
M TOR 21 4 3 2 12
M TOR 22 5 8 7 17
M TOR 23 5 8 7 18
M TOR 24 6 5 2 12
M TOR 25 6 5 7 8
M TOR 26 6 5 7 17
M TOR 27 6 5 7 18
M TOR 28 7 5 2 12
M TOR 29 7 5 6 14
M TOR 30 7 5 6 15
M TOR 31 7 5 6 16
M TOR 32 8 5 2 12
M TOR 33 8 5 6 14
M TOR 34 8 5 6 15
M TOR 35 8 5 6 16
M  END
$$$$
