
     RDKit          3D

 19 21  0  0  0  0  0  0  0  0999 V2000
    0.0940   -0.2236   -0.3932 C   0  0  0  0  0  0  0  0  0  0  0  0
    1.0166    0.4405    0.5946 C   0  0  0  0  0  0  0  0  0  0  0  0
    2.1773   -0.3001    1.0091 O   0  0  0  0  0  0  0  0  0  0  0  0
    2.3728    0.9129    0.2779 C   0  0  0  0  0  0  0  0  0  0  0  0
    3.0479    0.7964   -1.0970 C   0  0  0  0  0  0  0  0  0  0  0  0
    3.6888    2.0413   -1.3552 O   0  0  0  0  0  0  0  0  0  0  0  0
    3.8260    2.7434   -0.1446 C   0  0  0  0  0  0  0  0  0  0  0  0
    4.5297    2.0792    1.0029 C   0  0  0  0  0  0  0  0  0  0  0  0
    3.0062    2.1019    0.9379 C   0  0  0  0  0  0  0  0  0  0  0  0
   -0.5237   -0.9734    0.1119 H   0  0  0  0  0  0  0  0  0  0  0  0
   -0.5776    0.5133   -0.8472 H   0  0  0  0  0  0  0  0  0  0  0  0
    0.6506   -0.7264   -1.1877 H   0  0  0  0  0  0  0  0  0  0  0  0
    0.5077    0.9421    1.4215 H   0  0  0  0  0  0  0  0  0  0  0  0
    3.7762   -0.0259   -1.0667 H   0  0  0  0  0  0  0  0  0  0  0  0
    2.3492    0.5994   -1.9152 H   0  0  0  0  0  0  0  0  0  0  0  0
    3.8924    3.8134   -0.3007 H   0  0  0  0  0  0  0  0  0  0  0  0
    5.0412    1.1370    0.8381 H   0  0  0  0  0  0  0  0  0  0  0  0
    4.9948    2.7227    1.7416 H   0  0  0  0  0  0  0  0  0  0  0  0
    2.4406    2.6676    1.6677 H   0  0  0  0  0  0  0  0  0  0  0  0
  1  2  1  0
  2  3  1  0
  3  4  1  0
  4  5  1  0
  5  6  1  0
  6  7  1  0
  7  8  1  0
  8  9  1  0
  4  2  1  0
  9  4  1  0
  9  7  1  0
  1 10  1  0
  1 11  1  0
  1 12  1  0
  2 13  1  0
  5 14  1  0
  5 15  1  0
  7 16  1  0
  8 17  1  0
  8 18  1  0
  9 19  1  0
M  END
$$$$
