gdb 1156	3.4681972	1.093074	0.9625727	2.4938	76.11	-0.23851	-0.01372	0.22479	1274.2733	0.15474	-422.540863	-422.531708	-422.530764	-422.575973	33.059
 OpenBabel02181911403D

 19 20  0  0  1  0  0  0  0  0999 V2000
    3.2983   -2.9416   -0.3441 C   0  0  0  0  0  0  0  0  0  0  0  0
    2.9747   -2.0824    0.8604 C   0  0  0  0  0  0  0  0  0  0  0  0
    3.8234   -1.6143    1.5820 O   0  0  0  0  0  0  0  0  0  0  0  0
    1.4860   -1.7986    1.1056 C   0  0  0  0  0  0  0  0  0  0  0  0
    1.0272   -0.6570    0.2434 C   0  0  2  0  0  0  0  0  0  0  0  0
    1.3776    0.8380    0.3648 C   0  0  0  0  0  0  0  0  0  0  0  0
    0.0031    1.1663   -0.3192 C   0  0  0  0  0  0  0  0  0  0  0  0
   -0.2587   -0.3427   -0.4080 C   0  0  1  0  0  0  0  0  0  0  0  0
    0.8255   -0.9119   -1.1588 O   0  0  0  0  0  0  0  0  0  0  0  0
    2.9410   -3.9640   -0.1697 H   0  0  0  0  0  0  0  0  0  0  0  0
    2.7686   -2.5690   -1.2268 H   0  0  0  0  0  0  0  0  0  0  0  0
    4.3751   -2.9591   -0.5160 H   0  0  0  0  0  0  0  0  0  0  0  0
    0.8815   -2.6814    0.8732 H   0  0  0  0  0  0  0  0  0  0  0  0
    1.3630   -1.5375    2.1603 H   0  0  0  0  0  0  0  0  0  0  0  0
    1.4262    1.1848    1.3993 H   0  0  0  0  0  0  0  0  0  0  0  0
    2.2823    1.1442   -0.1643 H   0  0  0  0  0  0  0  0  0  0  0  0
   -0.6861    1.6847    0.3513 H   0  0  0  0  0  0  0  0  0  0  0  0
    0.0393    1.6839   -1.2802 H   0  0  0  0  0  0  0  0  0  0  0  0
   -1.1997   -0.8819   -0.4209 H   0  0  0  0  0  0  0  0  0  0  0  0
  1 10  1  0  0  0  0
  1  2  1  0  0  0  0
  2  4  1  0  0  0  0
  2  3  2  0  0  0  0
  4 14  1  0  0  0  0
  5  6  1  0  0  0  0
  5  4  1  1  0  0  0
  6 15  1  0  0  0  0
  7 17  1  0  0  0  0
  7  6  1  0  0  0  0
  8 19  1  1  0  0  0
  8  7  1  0  0  0  0
  8  5  1  0  0  0  0
  9  8  1  0  0  0  0
  9  5  1  0  0  0  0
 11  1  1  0  0  0  0
 12  1  1  0  0  0  0
 13  4  1  0  0  0  0
 16  6  1  0  0  0  0
 18  7  1  0  0  0  0
M TOR 0 0 1 3 4
M TOR 1 0 1 3 12
M TOR 2 0 1 3 13
M TOR 3 1 3 4 5
M TOR 4 1 3 4 7
M TOR 5 1 3 4 8
M TOR 6 2 1 0 9
M TOR 7 2 1 0 10
M TOR 8 2 1 0 11
M TOR 9 2 1 3 4
M TOR 10 2 1 3 12
M TOR 11 2 1 3 13
M TOR 12 3 1 0 9
M TOR 13 3 1 0 10
M TOR 14 3 1 0 11
M TOR 15 3 4 5 6
M TOR 16 3 4 5 14
M TOR 17 3 4 5 15
M TOR 18 3 4 7 6
M TOR 19 3 4 7 8
M TOR 20 3 4 7 18
M TOR 21 4 5 6 7
M TOR 22 4 5 6 16
M TOR 23 4 5 6 17
M TOR 24 4 7 6 16
M TOR 25 4 7 6 17
M TOR 26 4 8 7 6
M TOR 27 4 8 7 18
M TOR 28 5 4 3 12
M TOR 29 5 4 3 13
M TOR 30 5 4 7 8
M TOR 31 5 4 7 18
M TOR 32 5 6 7 8
M TOR 33 5 6 7 18
M TOR 34 6 5 4 8
M TOR 35 7 4 3 12
M TOR 36 7 4 3 13
M TOR 37 7 4 5 14
M TOR 38 7 4 5 15
M TOR 39 7 6 5 14
M TOR 40 7 6 5 15
M TOR 41 8 4 3 12
M TOR 42 8 4 3 13
M TOR 43 8 4 5 14
M TOR 44 8 4 5 15
M TOR 45 8 7 6 16
M TOR 46 8 7 6 17
M  END
$$$$
