gdb 4776	3.2263113	0.8370979	0.7087226	2.0804	79.36	-0.24356	0.04881	0.29237	1573.4666	0.154432	-422.511124	-422.50107	-422.500126	-422.546416	36.691
 OpenBabel02181911413D

 19 19  0  0  1  0  0  0  0  0999 V2000
    1.4769    0.7202   -0.5072 O   0  0  0  0  0  0  0  0  0  0  0  0
    0.1608    0.4174   -0.0509 C   0  0  0  0  0  0  0  0  0  0  0  0
   -0.7450    0.4897   -1.2798 C   0  0  2  0  0  0  0  0  0  0  0  0
   -0.6078    1.7566   -1.9000 O   0  0  0  0  0  0  0  0  0  0  0  0
   -2.1954    0.2883   -0.9240 C   0  0  1  0  0  0  0  0  0  0  0  0
   -3.1707   -0.1784   -1.9610 C   0  0  0  0  0  0  0  0  0  0  0  0
   -2.7538   -1.1276   -0.8481 C   0  0  2  0  0  0  0  0  0  0  0  0
   -3.6724   -1.4862    0.1920 C   0  0  0  0  0  0  0  0  0  0  0  0
   -4.4415   -1.7887    1.0664 C   0  0  0  0  0  0  0  0  0  0  0  0
    2.0309    0.9163    0.2530 H   0  0  0  0  0  0  0  0  0  0  0  0
    0.1115   -0.5828    0.4025 H   0  0  0  0  0  0  0  0  0  0  0  0
   -0.1798    1.1546    0.6906 H   0  0  0  0  0  0  0  0  0  0  0  0
   -0.4320   -0.3105   -1.9746 H   0  0  0  0  0  0  0  0  0  0  0  0
    0.3384    1.9511   -1.8764 H   0  0  0  0  0  0  0  0  0  0  0  0
   -2.5789    0.9846   -0.1843 H   0  0  0  0  0  0  0  0  0  0  0  0
   -4.1794    0.2143   -1.9270 H   0  0  0  0  0  0  0  0  0  0  0  0
   -2.7939   -0.3912   -2.9554 H   0  0  0  0  0  0  0  0  0  0  0  0
   -2.0685   -1.9185   -1.1422 H   0  0  0  0  0  0  0  0  0  0  0  0
   -5.1211   -2.0567    1.8365 H   0  0  0  0  0  0  0  0  0  0  0  0
  1  2  1  0  0  0  0
  1 10  1  0  0  0  0
  2 11  1  0  0  0  0
  2 12  1  0  0  0  0
  3 13  1  6  0  0  0
  3  5  1  0  0  0  0
  3  2  1  0  0  0  0
  4 14  1  0  0  0  0
  4  3  1  0  0  0  0
  5  7  1  0  0  0  0
  5 15  1  1  0  0  0
  6 16  1  0  0  0  0
  6  5  1  0  0  0  0
  6  7  1  0  0  0  0
  7 18  1  6  0  0  0
  7  8  1  0  0  0  0
  8  9  3  0  0  0  0
  9 19  1  0  0  0  0
 17  6  1  0  0  0  0
M TOR 0 0 1 2 3
M TOR 1 0 1 2 4
M TOR 2 0 1 2 12
M TOR 3 1 2 3 13
M TOR 4 1 2 4 5
M TOR 5 1 2 4 6
M TOR 6 1 2 4 14
M TOR 7 2 1 0 9
M TOR 8 2 4 5 6
M TOR 9 2 4 5 15
M TOR 10 2 4 5 16
M TOR 11 2 4 6 7
M TOR 12 2 4 6 17
M TOR 13 3 2 1 10
M TOR 14 3 2 1 11
M TOR 15 3 2 4 5
M TOR 16 3 2 4 6
M TOR 17 3 2 4 14
M TOR 18 4 2 1 10
M TOR 19 4 2 1 11
M TOR 20 4 2 3 13
M TOR 21 4 5 6 7
M TOR 22 4 5 6 17
M TOR 23 4 6 5 15
M TOR 24 4 6 5 16
M TOR 25 4 6 7 8
M TOR 26 5 4 2 12
M TOR 27 5 6 4 14
M TOR 28 5 6 7 8
M TOR 29 6 4 2 12
M TOR 30 6 7 8 18
M TOR 31 7 6 4 14
M TOR 32 7 6 5 15
M TOR 33 7 6 5 16
M TOR 34 8 7 6 17
M  END
$$$$
