
     RDKit          3D

 19 20  0  0  0  0  0  0  0  0999 V2000
   -1.3965   -0.4796   -2.4124 O   0  0  0  0  0  0  0  0  0  0  0  0
   -1.7633    0.0742   -1.4040 C   0  0  0  0  0  0  0  0  0  0  0  0
   -1.1539    1.4204   -0.9872 C   0  0  0  0  0  0  0  0  0  0  0  0
   -1.4682    1.8331    0.3239 O   0  0  0  0  0  0  0  0  0  0  0  0
   -0.7334    1.1551    1.3299 C   0  0  0  0  0  0  0  0  0  0  0  0
   -1.2519   -0.2330    1.6770 C   0  0  0  0  0  0  0  0  0  0  0  0
   -2.6589   -0.4710    2.1581 C   0  0  0  0  0  0  0  0  0  0  0  0
   -2.2308   -1.0130    0.8163 C   0  0  0  0  0  0  0  0  0  0  0  0
   -2.8374   -0.4590   -0.4747 C   0  0  0  0  0  0  0  0  0  0  0  0
   -0.0681    1.3816   -1.1583 H   0  0  0  0  0  0  0  0  0  0  0  0
   -1.5640    2.1811   -1.6629 H   0  0  0  0  0  0  0  0  0  0  0  0
    0.3228    1.0813    1.0261 H   0  0  0  0  0  0  0  0  0  0  0  0
   -0.7740    1.8013    2.2139 H   0  0  0  0  0  0  0  0  0  0  0  0
   -0.4895   -0.8414    2.1580 H   0  0  0  0  0  0  0  0  0  0  0  0
   -2.8195   -1.1580    2.9818 H   0  0  0  0  0  0  0  0  0  0  0  0
   -3.3383    0.3761    2.1395 H   0  0  0  0  0  0  0  0  0  0  0  0
   -2.0298   -2.0785    0.7661 H   0  0  0  0  0  0  0  0  0  0  0  0
   -3.3878   -1.2453   -0.9960 H   0  0  0  0  0  0  0  0  0  0  0  0
   -3.5266    0.3592   -0.2427 H   0  0  0  0  0  0  0  0  0  0  0  0
  1  2  2  0
  2  3  1  0
  3  4  1  0
  4  5  1  0
  5  6  1  0
  6  7  1  0
  7  8  1  0
  8  9  1  0
  9  2  1  0
  8  6  1  0
  3 10  1  0
  3 11  1  0
  5 12  1  0
  5 13  1  0
  6 14  1  0
  7 15  1  0
  7 16  1  0
  8 17  1  0
  9 18  1  0
  9 19  1  0
M  END
$$$$
