gdb 3858	5.3295434	0.8384551	0.8296593	2.13	75.91	-0.24309	-0.02229	0.2208	1354.4453	0.155233	-422.553013	-422.544294	-422.54335	-422.587318	33.084
 OpenBabel02181911413D

 19 20  0  0  0  0  0  0  0  0999 V2000
   -5.4356   -0.3840    0.2280 O   0  0  0  0  0  0  0  0  0  0  0  0
   -4.1430    0.1515    0.1347 C   0  0  0  0  0  0  0  0  0  0  0  0
   -3.0614   -0.2188    1.1849 C   0  0  0  0  0  0  0  0  0  0  0  0
   -2.0127   -0.1696    0.0416 C   0  0  0  0  0  0  0  0  0  0  0  0
   -3.1703   -0.3294   -0.9755 C   0  0  0  0  0  0  0  0  0  0  0  0
   -0.7505   -1.0768    0.0529 C   0  0  0  0  0  0  0  0  0  0  0  0
    0.1129    0.1919    0.1382 C   0  0  0  0  0  0  0  0  0  0  0  0
    1.2780    0.3935    0.3172 O   0  0  0  0  0  0  0  0  0  0  0  0
   -1.1114    1.1046   -0.0405 C   0  0  0  0  0  0  0  0  0  0  0  0
   -5.3598   -1.3431    0.2747 H   0  0  0  0  0  0  0  0  0  0  0  0
   -4.2788    1.2360    0.0858 H   0  0  0  0  0  0  0  0  0  0  0  0
   -2.9241    0.4371    2.0487 H   0  0  0  0  0  0  0  0  0  0  0  0
   -3.2071   -1.2459    1.5411 H   0  0  0  0  0  0  0  0  0  0  0  0
   -3.1231    0.2349   -1.9108 H   0  0  0  0  0  0  0  0  0  0  0  0
   -3.3464   -1.3864   -1.2094 H   0  0  0  0  0  0  0  0  0  0  0  0
   -0.6450   -1.7733    0.8906 H   0  0  0  0  0  0  0  0  0  0  0  0
   -0.5864   -1.6307   -0.8786 H   0  0  0  0  0  0  0  0  0  0  0  0
   -1.2434    1.8652    0.7352 H   0  0  0  0  0  0  0  0  0  0  0  0
   -1.1185    1.6027   -1.0166 H   0  0  0  0  0  0  0  0  0  0  0  0
  1 10  1  0  0  0  0
  2  1  1  0  0  0  0
  2  3  1  0  0  0  0
  3 13  1  0  0  0  0
  3 12  1  0  0  0  0
  4  6  1  0  0  0  0
  4  3  1  0  0  0  0
  5  4  1  0  0  0  0
  5  2  1  0  0  0  0
  6  7  1  0  0  0  0
  6 16  1  0  0  0  0
  7  8  2  0  0  0  0
  9  4  1  0  0  0  0
  9  7  1  0  0  0  0
  9 18  1  0  0  0  0
 11  2  1  0  0  0  0
 14  5  1  0  0  0  0
 15  5  1  0  0  0  0
 17  6  1  0  0  0  0
 19  9  1  0  0  0  0
M TOR 0 0 1 2 3
M TOR 1 0 1 2 11
M TOR 2 0 1 2 12
M TOR 3 0 1 4 3
M TOR 4 0 1 4 13
M TOR 5 0 1 4 14
M TOR 6 1 2 3 4
M TOR 7 1 2 3 5
M TOR 8 1 2 3 8
M TOR 9 1 4 3 5
M TOR 10 1 4 3 8
M TOR 11 2 1 0 9
M TOR 12 2 1 4 13
M TOR 13 2 1 4 14
M TOR 14 2 3 4 13
M TOR 15 2 3 4 14
M TOR 16 2 3 5 6
M TOR 17 2 3 5 15
M TOR 18 2 3 5 16
M TOR 19 2 3 8 6
M TOR 20 2 3 8 17
M TOR 21 2 3 8 18
M TOR 22 3 2 1 10
M TOR 23 3 4 1 10
M TOR 24 3 5 6 7
M TOR 25 3 5 6 8
M TOR 26 3 8 6 7
M TOR 27 4 1 0 9
M TOR 28 4 1 2 11
M TOR 29 4 1 2 12
M TOR 30 4 3 2 11
M TOR 31 4 3 2 12
M TOR 32 4 3 5 6
M TOR 33 4 3 5 15
M TOR 34 4 3 5 16
M TOR 35 4 3 8 6
M TOR 36 4 3 8 17
M TOR 37 4 3 8 18
M TOR 38 5 3 2 11
M TOR 39 5 3 2 12
M TOR 40 5 3 4 13
M TOR 41 5 3 4 14
M TOR 42 5 3 8 17
M TOR 43 5 3 8 18
M TOR 44 5 6 8 17
M TOR 45 5 6 8 18
M TOR 46 7 6 5 15
M TOR 47 7 6 5 16
M TOR 48 7 6 8 17
M TOR 49 7 6 8 18
M TOR 50 8 3 2 11
M TOR 51 8 3 2 12
M TOR 52 8 3 4 13
M TOR 53 8 3 4 14
M TOR 54 8 3 5 15
M TOR 55 8 3 5 16
M TOR 56 8 6 5 15
M TOR 57 8 6 5 16
M  END
$$$$
