
     RDKit          3D

 19 20  0  0  0  0  0  0  0  0999 V2000
   -0.1377   -0.0244   -0.0141 C   0  0  0  0  0  0  0  0  0  0  0  0
    1.3858    0.0286    0.0363 C   0  0  0  0  0  0  0  0  0  0  0  0
    1.9542   -0.6708    1.2693 C   0  0  0  0  0  0  0  0  0  0  0  0
    2.0373    1.4490   -0.2003 C   0  0  0  0  0  0  0  0  0  0  0  0
    2.7283    0.8925   -1.4422 C   0  0  0  0  0  0  0  0  0  0  0  0
    1.7172    0.3869   -2.3338 O   0  0  0  0  0  0  0  0  0  0  0  0
    2.0951   -0.4474   -1.2573 C   0  0  0  0  0  0  0  0  0  0  0  0
    4.0565    1.1796   -2.0091 C   0  0  0  0  0  0  0  0  0  0  0  0
    4.8572    1.9259   -1.4999 O   0  0  0  0  0  0  0  0  0  0  0  0
   -0.5708    0.5172    0.8341 H   0  0  0  0  0  0  0  0  0  0  0  0
   -0.5097    0.4293   -0.9362 H   0  0  0  0  0  0  0  0  0  0  0  0
   -0.4990   -1.0580    0.0314 H   0  0  0  0  0  0  0  0  0  0  0  0
    1.6374   -1.7193    1.3067 H   0  0  0  0  0  0  0  0  0  0  0  0
    3.0494   -0.6502    1.2757 H   0  0  0  0  0  0  0  0  0  0  0  0
    1.6049   -0.1828    2.1851 H   0  0  0  0  0  0  0  0  0  0  0  0
    1.3504    2.2751   -0.3952 H   0  0  0  0  0  0  0  0  0  0  0  0
    2.7447    1.7308    0.5813 H   0  0  0  0  0  0  0  0  0  0  0  0
    2.4759   -1.4357   -1.4986 H   0  0  0  0  0  0  0  0  0  0  0  0
    4.2653    0.6263   -2.9506 H   0  0  0  0  0  0  0  0  0  0  0  0
  1  2  1  0
  2  3  1  0
  2  4  1  0
  4  5  1  0
  5  6  1  0
  6  7  1  0
  5  8  1  0
  8  9  2  0
  7  2  1  0
  7  5  1  0
  1 10  1  0
  1 11  1  0
  1 12  1  0
  3 13  1  0
  3 14  1  0
  3 15  1  0
  4 16  1  0
  4 17  1  0
  7 18  1  0
  8 19  1  0
M  END
$$$$
