
     RDKit          3D

 19 19  0  0  0  0  0  0  0  0999 V2000
    3.5265   -0.4590   -3.4498 C   0  0  0  0  0  0  0  0  0  0  0  0
    2.3740    0.2725   -2.7479 C   0  0  0  0  0  0  0  0  0  0  0  0
    2.7847    0.9745   -1.4625 C   0  0  0  0  0  0  0  0  0  0  0  0
    2.5617    2.4173   -1.2884 C   0  0  0  0  0  0  0  0  0  0  0  0
    3.8633    1.9090   -1.5861 O   0  0  0  0  0  0  0  0  0  0  0  0
    2.8390    0.1438   -0.1793 C   0  0  0  0  0  0  0  0  0  0  0  0
    3.6625   -0.9949   -0.4071 O   0  0  0  0  0  0  0  0  0  0  0  0
    1.4942   -0.2462    0.2594 C   0  0  0  0  0  0  0  0  0  0  0  0
    0.4078   -0.5958    0.6378 C   0  0  0  0  0  0  0  0  0  0  0  0
    3.1848   -0.8776   -4.4014 H   0  0  0  0  0  0  0  0  0  0  0  0
    4.3448    0.2364   -3.6567 H   0  0  0  0  0  0  0  0  0  0  0  0
    3.9147   -1.2680   -2.8299 H   0  0  0  0  0  0  0  0  0  0  0  0
    1.9566    1.0229   -3.4281 H   0  0  0  0  0  0  0  0  0  0  0  0
    1.5620   -0.4258   -2.5158 H   0  0  0  0  0  0  0  0  0  0  0  0
    2.0798    2.9772   -2.0882 H   0  0  0  0  0  0  0  0  0  0  0  0
    2.4409    2.8403   -0.2913 H   0  0  0  0  0  0  0  0  0  0  0  0
    3.2902    0.7874    0.5916 H   0  0  0  0  0  0  0  0  0  0  0  0
    3.5432   -1.5974    0.3343 H   0  0  0  0  0  0  0  0  0  0  0  0
   -0.5558   -0.8961    0.9693 H   0  0  0  0  0  0  0  0  0  0  0  0
  1  2  1  0
  2  3  1  0
  3  4  1  0
  4  5  1  0
  3  6  1  0
  6  7  1  0
  6  8  1  0
  8  9  3  0
  5  3  1  0
  1 10  1  0
  1 11  1  0
  1 12  1  0
  2 13  1  0
  2 14  1  0
  4 15  1  0
  4 16  1  0
  6 17  1  0
  7 18  1  0
  9 19  1  0
M  END
$$$$
