
     RDKit          3D

 19 19  0  0  0  0  0  0  0  0999 V2000
    1.4172   -0.1811   -0.0488 C   0  0  0  0  0  0  0  0  0  0  0  0
    0.0169   -0.1403    0.0778 O   0  0  0  0  0  0  0  0  0  0  0  0
   -0.4137    0.8121    1.0343 C   0  0  0  0  0  0  0  0  0  0  0  0
   -1.8987    0.7485    1.1608 C   0  0  0  0  0  0  0  0  0  0  0  0
   -2.7816    1.7681    1.0030 C   0  0  0  0  0  0  0  0  0  0  0  0
   -4.0552    1.3436    1.2225 O   0  0  0  0  0  0  0  0  0  0  0  0
   -3.9906    0.0110    1.5215 C   0  0  0  0  0  0  0  0  0  0  0  0
   -5.2815   -0.6752    1.7893 C   0  0  0  0  0  0  0  0  0  0  0  0
   -2.6956   -0.4002    1.4996 C   0  0  0  0  0  0  0  0  0  0  0  0
    1.9084   -0.4454    0.9020 H   0  0  0  0  0  0  0  0  0  0  0  0
    1.6563   -0.9441   -0.7936 H   0  0  0  0  0  0  0  0  0  0  0  0
    1.8279    0.7845   -0.3859 H   0  0  0  0  0  0  0  0  0  0  0  0
    0.0673    0.5997    2.0058 H   0  0  0  0  0  0  0  0  0  0  0  0
   -0.1003    1.8278    0.7398 H   0  0  0  0  0  0  0  0  0  0  0  0
   -2.6680    2.8102    0.7519 H   0  0  0  0  0  0  0  0  0  0  0  0
   -5.8090   -0.2238    2.6373 H   0  0  0  0  0  0  0  0  0  0  0  0
   -5.9515   -0.6242    0.9234 H   0  0  0  0  0  0  0  0  0  0  0  0
   -5.1005   -1.7273    2.0196 H   0  0  0  0  0  0  0  0  0  0  0  0
   -2.3377   -1.4009    1.6846 H   0  0  0  0  0  0  0  0  0  0  0  0
  1  2  1  0
  2  3  1  0
  3  4  1  0
  4  5  2  0
  5  6  1  0
  6  7  1  0
  7  8  1  0
  7  9  2  0
  9  4  1  0
  1 10  1  0
  1 11  1  0
  1 12  1  0
  3 13  1  0
  3 14  1  0
  5 15  1  0
  8 16  1  0
  8 17  1  0
  8 18  1  0
  9 19  1  0
M  END
$$$$
