
     RDKit          3D

 19 21  0  0  0  0  0  0  0  0999 V2000
    0.6300    0.1077    0.9997 O   0  0  0  0  0  0  0  0  0  0  0  0
   -0.7368    0.4702    0.9204 C   0  0  0  0  0  0  0  0  0  0  0  0
   -1.3655    0.4619    2.3743 C   0  0  0  0  0  0  0  0  0  0  0  0
   -1.8032    1.9599    2.5500 C   0  0  0  0  0  0  0  0  0  0  0  0
   -0.5510    2.6532    1.9716 C   0  0  0  0  0  0  0  0  0  0  0  0
   -1.0575    1.9354    0.6691 C   0  0  0  0  0  0  0  0  0  0  0  0
   -1.2259    2.7399   -0.4976 O   0  0  0  0  0  0  0  0  0  0  0  0
   -2.4295    3.3007    0.1371 C   0  0  0  0  0  0  0  0  0  0  0  0
   -2.4934    2.1275    1.1671 C   0  0  0  0  0  0  0  0  0  0  0  0
    1.0083    0.1845    0.1176 H   0  0  0  0  0  0  0  0  0  0  0  0
   -1.2801   -0.1919    0.2331 H   0  0  0  0  0  0  0  0  0  0  0  0
   -2.2052   -0.2334    2.4511 H   0  0  0  0  0  0  0  0  0  0  0  0
   -0.5993    0.1725    3.0975 H   0  0  0  0  0  0  0  0  0  0  0  0
   -2.2435    2.2238    3.5125 H   0  0  0  0  0  0  0  0  0  0  0  0
   -0.6236    3.7378    1.9038 H   0  0  0  0  0  0  0  0  0  0  0  0
    0.4223    2.3545    2.3621 H   0  0  0  0  0  0  0  0  0  0  0  0
   -2.2491    4.3091    0.5212 H   0  0  0  0  0  0  0  0  0  0  0  0
   -3.2613    3.3198   -0.5711 H   0  0  0  0  0  0  0  0  0  0  0  0
   -3.2544    1.3898    0.9012 H   0  0  0  0  0  0  0  0  0  0  0  0
  1  2  1  0
  2  3  1  0
  3  4  1  0
  4  5  1  0
  5  6  1  0
  6  7  1  0
  7  8  1  0
  8  9  1  0
  6  2  1  0
  9  6  1  0
  9  4  1  0
  1 10  1  0
  2 11  1  0
  3 12  1  0
  3 13  1  0
  4 14  1  0
  5 15  1  0
  5 16  1  0
  8 17  1  0
  8 18  1  0
  9 19  1  0
M  END
$$$$
