gdb 5315	2.0685361	1.5674255	0.9378387	3.4139	80.43	-0.23444	-0.04004	0.19440000000000002	1250.1146	0.15621	-422.601101	-422.591586	-422.590641	-422.635913	34.015
 OpenBabel02181911423D

 19 19  0  0  0  0  0  0  0  0999 V2000
    2.6264   -1.2312   -1.4264 C   0  0  0  0  0  0  0  0  0  0  0  0
    2.2607    0.0388   -0.7292 C   0  0  0  0  0  0  0  0  0  0  0  0
    1.1749    0.2753    0.0353 C   0  0  0  0  0  0  0  0  0  0  0  0
    0.0509   -0.6515    0.4157 C   0  0  0  0  0  0  0  0  0  0  0  0
    0.4647   -1.9731    0.7559 O   0  0  0  0  0  0  0  0  0  0  0  0
    1.1941    1.6724    0.5297 C   0  0  0  0  0  0  0  0  0  0  0  0
    0.3746    2.1848    1.2611 O   0  0  0  0  0  0  0  0  0  0  0  0
    2.4421    2.3554   -0.0429 C   0  0  0  0  0  0  0  0  0  0  0  0
    3.1536    1.2577   -0.8500 C   0  0  0  0  0  0  0  0  0  0  0  0
    3.6625   -1.5116   -1.1981 H   0  0  0  0  0  0  0  0  0  0  0  0
    1.9672   -2.0512   -1.1426 H   0  0  0  0  0  0  0  0  0  0  0  0
    2.5821   -1.0903   -2.5146 H   0  0  0  0  0  0  0  0  0  0  0  0
   -0.5139   -0.1795    1.2309 H   0  0  0  0  0  0  0  0  0  0  0  0
   -0.6432   -0.7756   -0.4232 H   0  0  0  0  0  0  0  0  0  0  0  0
    1.0373   -1.9048    1.5268 H   0  0  0  0  0  0  0  0  0  0  0  0
    2.1364    3.2081   -0.6566 H   0  0  0  0  0  0  0  0  0  0  0  0
    3.0472    2.7573    0.7745 H   0  0  0  0  0  0  0  0  0  0  0  0
    3.2922    1.5261   -1.9049 H   0  0  0  0  0  0  0  0  0  0  0  0
    4.1571    1.0351   -0.4655 H   0  0  0  0  0  0  0  0  0  0  0  0
  1 10  1  0  0  0  0
  1 11  1  0  0  0  0
  1  2  1  0  0  0  0
  2  3  2  0  0  0  0
  3  4  1  0  0  0  0
  3  6  1  0  0  0  0
  4  5  1  0  0  0  0
  4 13  1  0  0  0  0
  5 15  1  0  0  0  0
  6  7  2  0  0  0  0
  8  6  1  0  0  0  0
  8 17  1  0  0  0  0
  9  2  1  0  0  0  0
  9 19  1  0  0  0  0
  9  8  1  0  0  0  0
 12  1  1  0  0  0  0
 14  4  1  0  0  0  0
 16  8  1  0  0  0  0
 18  9  1  0  0  0  0
M TOR 0 0 1 2 3
M TOR 1 0 1 2 5
M TOR 2 0 1 8 7
M TOR 3 0 1 8 17
M TOR 4 0 1 8 18
M TOR 5 1 2 3 4
M TOR 6 1 2 3 12
M TOR 7 1 2 3 13
M TOR 8 1 2 5 6
M TOR 9 1 2 5 7
M TOR 10 1 8 7 5
M TOR 11 1 8 7 15
M TOR 12 1 8 7 16
M TOR 13 2 1 0 9
M TOR 14 2 1 0 10
M TOR 15 2 1 0 11
M TOR 16 2 1 8 7
M TOR 17 2 1 8 17
M TOR 18 2 1 8 18
M TOR 19 2 3 4 14
M TOR 20 2 5 7 8
M TOR 21 2 5 7 15
M TOR 22 2 5 7 16
M TOR 23 3 2 1 8
M TOR 24 3 2 5 6
M TOR 25 3 2 5 7
M TOR 26 4 3 2 5
M TOR 27 5 2 1 8
M TOR 28 5 2 3 12
M TOR 29 5 2 3 13
M TOR 30 5 7 8 17
M TOR 31 5 7 8 18
M TOR 32 6 5 7 8
M TOR 33 6 5 7 15
M TOR 34 6 5 7 16
M TOR 35 8 1 0 9
M TOR 36 8 1 0 10
M TOR 37 8 1 0 11
M  END
$$$$
