
     RDKit          3D

 19 21  0  0  0  0  0  0  0  0999 V2000
    3.4673    1.3309    0.0195 C   0  0  0  0  0  0  0  0  0  0  0  0
    2.3714    0.3104    0.2371 C   0  0  0  0  0  0  0  0  0  0  0  0
    2.0697   -0.7614   -0.8080 C   0  0  0  0  0  0  0  0  0  0  0  0
    0.8886   -1.6170   -0.3316 C   0  0  0  0  0  0  0  0  0  0  0  0
    1.4991   -1.8477    0.9717 O   0  0  0  0  0  0  0  0  0  0  0  0
    2.6632   -1.1264    0.5398 C   0  0  0  0  0  0  0  0  0  0  0  0
    3.9895   -1.7915    0.2722 C   0  0  0  0  0  0  0  0  0  0  0  0
    4.3157   -1.4333   -1.0800 O   0  0  0  0  0  0  0  0  0  0  0  0
    3.1076   -1.1651   -1.8246 C   0  0  0  0  0  0  0  0  0  0  0  0
    3.7847    1.7558    0.9773 H   0  0  0  0  0  0  0  0  0  0  0  0
    4.3417    0.8940   -0.4664 H   0  0  0  0  0  0  0  0  0  0  0  0
    3.1037    2.1537   -0.6050 H   0  0  0  0  0  0  0  0  0  0  0  0
    1.4932    0.6972    0.7501 H   0  0  0  0  0  0  0  0  0  0  0  0
   -0.0876   -1.1266   -0.2428 H   0  0  0  0  0  0  0  0  0  0  0  0
    0.7814   -2.5569   -0.8863 H   0  0  0  0  0  0  0  0  0  0  0  0
    4.8267   -1.4566    0.8920 H   0  0  0  0  0  0  0  0  0  0  0  0
    3.8664   -2.8776    0.3954 H   0  0  0  0  0  0  0  0  0  0  0  0
    3.3707   -0.4010   -2.5625 H   0  0  0  0  0  0  0  0  0  0  0  0
    2.7710   -2.0636   -2.3639 H   0  0  0  0  0  0  0  0  0  0  0  0
  1  2  1  0
  2  3  1  0
  3  4  1  0
  4  5  1  0
  5  6  1  0
  6  7  1  0
  7  8  1  0
  8  9  1  0
  6  2  1  0
  6  3  1  0
  9  3  1  0
  1 10  1  0
  1 11  1  0
  1 12  1  0
  2 13  1  0
  4 14  1  0
  4 15  1  0
  7 16  1  0
  7 17  1  0
  9 18  1  0
  9 19  1  0
M  END
$$$$
