gdb 1346	2.7155534	1.2526038	0.9317196	2.8424	75.58	-0.24983	-0.02785	0.22198	1255.8613	0.155391	-422.532368	-422.523369	-422.522424	-422.566495	32.939
 OpenBabel02181911403D

 19 20  0  0  1  0  0  0  0  0999 V2000
   -4.2596    6.3854    0.5647 O   0  0  0  0  0  0  0  0  0  0  0  0
   -3.8043    5.2667   -0.1762 C   0  0  2  0  0  0  0  0  0  0  0  0
   -3.3373    5.8133   -1.5177 C   0  0  0  0  0  0  0  0  0  0  0  0
   -2.6566    5.1960   -2.2953 O   0  0  0  0  0  0  0  0  0  0  0  0
   -4.9063    4.2215   -0.3887 C   0  0  2  0  0  0  0  0  0  0  0  0
   -5.3029    3.4679    0.9320 C   0  0  0  0  0  0  0  0  0  0  0  0
   -4.8066    2.1576    0.3102 C   0  0  1  0  0  0  0  0  0  0  0  0
   -5.5391    1.8869   -0.9731 C   0  0  0  0  0  0  0  0  0  0  0  0
   -4.4209    2.8897   -0.9788 C   0  0  1  0  0  0  0  0  0  0  0  0
   -4.6743    6.0632    1.3711 H   0  0  0  0  0  0  0  0  0  0  0  0
   -2.9394    4.7811    0.3046 H   0  0  0  0  0  0  0  0  0  0  0  0
   -3.7030    6.8420   -1.7307 H   0  0  0  0  0  0  0  0  0  0  0  0
   -5.7396    4.6940   -0.9234 H   0  0  0  0  0  0  0  0  0  0  0  0
   -4.6992    3.7871    1.7879 H   0  0  0  0  0  0  0  0  0  0  0  0
   -6.3587    3.4977    1.2212 H   0  0  0  0  0  0  0  0  0  0  0  0
   -4.2729    1.3782    0.8396 H   0  0  0  0  0  0  0  0  0  0  0  0
   -5.3101    0.9386   -1.4484 H   0  0  0  0  0  0  0  0  0  0  0  0
   -6.5714    2.2087   -1.0973 H   0  0  0  0  0  0  0  0  0  0  0  0
   -3.5443    2.7820   -1.6033 H   0  0  0  0  0  0  0  0  0  0  0  0
  1 10  1  0  0  0  0
  2 11  1  1  0  0  0
  2  1  1  0  0  0  0
  3  2  1  0  0  0  0
  4  3  2  0  0  0  0
  5 13  1  6  0  0  0
  5  2  1  0  0  0  0
  5  6  1  0  0  0  0
  6 15  1  0  0  0  0
  6 14  1  0  0  0  0
  7 16  1  1  0  0  0
  7  6  1  0  0  0  0
  8  7  1  0  0  0  0
  9 19  1  6  0  0  0
  9  8  1  0  0  0  0
  9  5  1  0  0  0  0
  9  7  1  0  0  0  0
 12  3  1  0  0  0  0
 17  8  1  0  0  0  0
 18  8  1  0  0  0  0
M TOR 0 0 1 2 3
M TOR 1 0 1 2 11
M TOR 2 0 1 4 5
M TOR 3 0 1 4 8
M TOR 4 0 1 4 12
M TOR 5 1 4 5 6
M TOR 6 1 4 5 13
M TOR 7 1 4 5 14
M TOR 8 1 4 8 6
M TOR 9 1 4 8 7
M TOR 10 1 4 8 18
M TOR 11 2 1 0 9
M TOR 12 2 1 4 5
M TOR 13 2 1 4 8
M TOR 14 2 1 4 12
M TOR 15 3 2 1 4
M TOR 16 3 2 1 10
M TOR 17 4 1 0 9
M TOR 18 4 1 2 11
M TOR 19 4 5 6 7
M TOR 20 4 5 6 8
M TOR 21 4 5 6 15
M TOR 22 4 8 6 7
M TOR 23 4 8 6 15
M TOR 24 4 8 7 16
M TOR 25 4 8 7 17
M TOR 26 5 4 1 10
M TOR 27 5 4 8 7
M TOR 28 5 4 8 18
M TOR 29 5 6 7 8
M TOR 30 5 6 7 16
M TOR 31 5 6 7 17
M TOR 32 5 6 8 18
M TOR 33 6 5 4 12
M TOR 34 6 7 8 18
M TOR 35 6 8 4 12
M TOR 36 6 8 7 16
M TOR 37 6 8 7 17
M TOR 38 7 6 5 13
M TOR 39 7 6 5 14
M TOR 40 7 8 4 12
M TOR 41 7 8 6 15
M TOR 42 8 4 1 10
M TOR 43 8 4 5 13
M TOR 44 8 4 5 14
M TOR 45 8 6 5 13
M TOR 46 8 6 5 14
M  END
$$$$
