
     RDKit          3D

 19 20  0  0  0  0  0  0  0  0999 V2000
   -1.1478   -2.4836   -2.3228 C   0  0  0  0  0  0  0  0  0  0  0  0
   -0.9191   -0.9846   -2.3184 C   0  0  0  0  0  0  0  0  0  0  0  0
   -1.7249   -0.2063   -2.7857 O   0  0  0  0  0  0  0  0  0  0  0  0
    0.3610   -0.5150   -1.7047 C   0  0  0  0  0  0  0  0  0  0  0  0
    0.9551    0.7449   -2.3079 C   0  0  0  0  0  0  0  0  0  0  0  0
    2.3225    1.0186   -1.6702 C   0  0  0  0  0  0  0  0  0  0  0  0
    1.6253    1.0802   -0.2641 C   0  0  0  0  0  0  0  0  0  0  0  0
    1.7203    2.3121    0.4086 O   0  0  0  0  0  0  0  0  0  0  0  0
    0.2795    0.8064   -0.9565 C   0  0  0  0  0  0  0  0  0  0  0  0
   -1.1296   -2.8721   -1.2979 H   0  0  0  0  0  0  0  0  0  0  0  0
   -2.1067   -2.7132   -2.7883 H   0  0  0  0  0  0  0  0  0  0  0  0
   -0.3406   -2.9882   -2.8666 H   0  0  0  0  0  0  0  0  0  0  0  0
    1.0288   -1.2896   -1.3333 H   0  0  0  0  0  0  0  0  0  0  0  0
    0.5863    1.0963   -3.2630 H   0  0  0  0  0  0  0  0  0  0  0  0
    3.1026    0.2660   -1.8252 H   0  0  0  0  0  0  0  0  0  0  0  0
    2.7271    2.0015   -1.9270 H   0  0  0  0  0  0  0  0  0  0  0  0
    1.9445    0.3274    0.4633 H   0  0  0  0  0  0  0  0  0  0  0  0
    1.4103    3.0039   -0.1870 H   0  0  0  0  0  0  0  0  0  0  0  0
   -0.6852    1.2162   -0.6828 H   0  0  0  0  0  0  0  0  0  0  0  0
  1  2  1  0
  2  3  2  0
  2  4  1  0
  4  5  1  0
  5  6  1  0
  6  7  1  0
  7  8  1  0
  7  9  1  0
  9  4  1  0
  9  5  1  0
  1 10  1  0
  1 11  1  0
  1 12  1  0
  4 13  1  0
  5 14  1  0
  6 15  1  0
  6 16  1  0
  7 17  1  0
  8 18  1  0
  9 19  1  0
M  END
$$$$
