
     RDKit          3D

 19 20  0  0  0  0  0  0  0  0999 V2000
    1.9763   -0.3330    1.4690 C   0  0  0  0  0  0  0  0  0  0  0  0
    1.6381    0.4782    0.2098 C   0  0  0  0  0  0  0  0  0  0  0  0
    1.8638   -0.2984   -1.0586 C   0  0  0  0  0  0  0  0  0  0  0  0
    0.8700   -1.2175   -1.6717 C   0  0  0  0  0  0  0  0  0  0  0  0
    1.3082   -0.0003   -2.4862 C   0  0  0  0  0  0  0  0  0  0  0  0
    2.6581   -0.2758   -3.0594 C   0  0  0  0  0  0  0  0  0  0  0  0
    3.1621   -0.1240   -4.1356 O   0  0  0  0  0  0  0  0  0  0  0  0
    3.2515   -0.6238   -1.6589 C   0  0  0  0  0  0  0  0  0  0  0  0
    3.7773   -1.9197   -1.5288 O   0  0  0  0  0  0  0  0  0  0  0  0
    1.3651   -1.2389    1.5299 H   0  0  0  0  0  0  0  0  0  0  0  0
    3.0280   -0.6406    1.4726 H   0  0  0  0  0  0  0  0  0  0  0  0
    1.8028    0.2561    2.3744 H   0  0  0  0  0  0  0  0  0  0  0  0
    0.5908    0.8015    0.2538 H   0  0  0  0  0  0  0  0  0  0  0  0
    2.2431    1.3941    0.1902 H   0  0  0  0  0  0  0  0  0  0  0  0
    1.1631   -2.2139   -1.9855 H   0  0  0  0  0  0  0  0  0  0  0  0
   -0.1459   -1.1437   -1.2952 H   0  0  0  0  0  0  0  0  0  0  0  0
    0.5956    0.7460   -2.8155 H   0  0  0  0  0  0  0  0  0  0  0  0
    3.9887    0.1504   -1.3954 H   0  0  0  0  0  0  0  0  0  0  0  0
    4.2239   -1.9903   -0.6793 H   0  0  0  0  0  0  0  0  0  0  0  0
  1  2  1  0
  2  3  1  0
  3  4  1  0
  4  5  1  0
  5  6  1  0
  6  7  2  0
  6  8  1  0
  8  9  1  0
  5  3  1  0
  8  3  1  0
  1 10  1  0
  1 11  1  0
  1 12  1  0
  2 13  1  0
  2 14  1  0
  4 15  1  0
  4 16  1  0
  5 17  1  0
  8 18  1  0
  9 19  1  0
M  END
$$$$
