
     RDKit          3D

 19 21  0  0  0  0  0  0  0  0999 V2000
    1.3235    0.4597    0.0169 O   0  0  0  0  0  0  0  0  0  0  0  0
    0.0961   -0.2074   -0.2463 C   0  0  0  0  0  0  0  0  0  0  0  0
   -0.9302    0.6858   -0.8898 C   0  0  0  0  0  0  0  0  0  0  0  0
   -0.6799    1.5333   -2.1470 C   0  0  0  0  0  0  0  0  0  0  0  0
   -2.0005    2.2030   -1.7172 C   0  0  0  0  0  0  0  0  0  0  0  0
   -2.9579    1.1540   -1.9464 O   0  0  0  0  0  0  0  0  0  0  0  0
   -2.4629    0.2422   -0.9559 C   0  0  0  0  0  0  0  0  0  0  0  0
   -2.7296    1.0140    0.3562 C   0  0  0  0  0  0  0  0  0  0  0  0
   -1.6318    1.9302   -0.1984 C   0  0  0  0  0  0  0  0  0  0  0  0
    1.1358    1.1792    0.6284 H   0  0  0  0  0  0  0  0  0  0  0  0
    0.3497   -1.0292   -0.9266 H   0  0  0  0  0  0  0  0  0  0  0  0
   -0.3115   -0.6655    0.6698 H   0  0  0  0  0  0  0  0  0  0  0  0
    0.1957    2.1710   -2.0028 H   0  0  0  0  0  0  0  0  0  0  0  0
   -0.6634    1.0610   -3.1327 H   0  0  0  0  0  0  0  0  0  0  0  0
   -2.3624    3.1552   -2.1007 H   0  0  0  0  0  0  0  0  0  0  0  0
   -2.8000   -0.7749   -1.1511 H   0  0  0  0  0  0  0  0  0  0  0  0
   -3.7421    1.3984    0.4990 H   0  0  0  0  0  0  0  0  0  0  0  0
   -2.3903    0.4787    1.2470 H   0  0  0  0  0  0  0  0  0  0  0  0
   -1.1075    2.7027    0.3632 H   0  0  0  0  0  0  0  0  0  0  0  0
  1  2  1  0
  2  3  1  0
  3  4  1  0
  4  5  1  0
  5  6  1  0
  6  7  1  0
  7  8  1  0
  8  9  1  0
  7  3  1  0
  9  3  1  0
  9  5  1  0
  1 10  1  0
  2 11  1  0
  2 12  1  0
  4 13  1  0
  4 14  1  0
  5 15  1  0
  7 16  1  0
  8 17  1  0
  8 18  1  0
  9 19  1  0
M  END
$$$$
