gdb 3198	3.8175808	1.35141	1.193554	2.2623	74.51	-0.24054	0.0673	0.30784	1061.8989	0.157392	-422.524705	-422.516967	-422.516022	-422.556263	31.444
 OpenBabel02181911413D

 19 21  0  0  1  0  0  0  0  0999 V2000
    0.2057   -0.1127    0.5397 O   0  0  0  0  0  0  0  0  0  0  0  0
   -0.9192    0.7383    0.6604 C   0  0  2  0  0  0  0  0  0  0  0  0
   -2.1900   -0.0267    1.1168 C   0  0  1  0  0  0  0  0  0  0  0  0
   -3.3997    0.9032    1.3907 C   0  0  0  0  0  0  0  0  0  0  0  0
   -3.6268    1.0591   -0.1314 C   0  0  1  0  0  0  0  0  0  0  0  0
   -4.9253    1.2007   -0.6169 O   0  0  0  0  0  0  0  0  0  0  0  0
   -2.6199    2.0094   -0.8033 C   0  0  0  0  0  0  0  0  0  0  0  0
   -1.5281    0.9128   -0.7459 C   0  0  2  0  0  0  0  0  0  0  0  0
   -2.6276   -0.1505   -0.3865 C   0  0  1  0  0  0  0  0  0  0  0  0
    0.4347   -0.4274    1.4206 H   0  0  0  0  0  0  0  0  0  0  0  0
   -0.6656    1.6559    1.2147 H   0  0  0  0  0  0  0  0  0  0  0  0
   -2.0326   -0.8702    1.7913 H   0  0  0  0  0  0  0  0  0  0  0  0
   -4.2215    0.3274    1.8338 H   0  0  0  0  0  0  0  0  0  0  0  0
   -3.2459    1.8084    1.9885 H   0  0  0  0  0  0  0  0  0  0  0  0
   -5.4979    0.5875   -0.1437 H   0  0  0  0  0  0  0  0  0  0  0  0
   -2.9348    2.1804   -1.8362 H   0  0  0  0  0  0  0  0  0  0  0  0
   -2.4207    2.9736   -0.3240 H   0  0  0  0  0  0  0  0  0  0  0  0
   -0.8265    0.8323   -1.5748 H   0  0  0  0  0  0  0  0  0  0  0  0
   -2.8457   -1.0668   -0.9287 H   0  0  0  0  0  0  0  0  0  0  0  0
  1  2  1  0  0  0  0
  1 10  1  0  0  0  0
  2  3  1  0  0  0  0
  2 11  1  1  0  0  0
  3  4  1  0  0  0  0
  3 12  1  1  0  0  0
  4 13  1  0  0  0  0
  4 14  1  0  0  0  0
  5  6  1  6  0  0  0
  5  4  1  0  0  0  0
  6 15  1  0  0  0  0
  7  8  1  0  0  0  0
  7 17  1  0  0  0  0
  7  5  1  0  0  0  0
  8 18  1  6  0  0  0
  8  9  1  0  0  0  0
  8  2  1  0  0  0  0
  9 19  1  6  0  0  0
  9  5  1  0  0  0  0
  9  3  1  0  0  0  0
 16  7  1  0  0  0  0
M TOR 0 0 1 2 3
M TOR 1 0 1 2 8
M TOR 2 0 1 2 11
M TOR 3 0 1 7 6
M TOR 4 0 1 7 8
M TOR 5 0 1 7 17
M TOR 6 1 2 3 4
M TOR 7 1 2 3 12
M TOR 8 1 2 3 13
M TOR 9 1 2 8 4
M TOR 10 1 2 8 7
M TOR 11 1 2 8 18
M TOR 12 1 7 6 4
M TOR 13 1 7 6 15
M TOR 14 1 7 6 16
M TOR 15 1 7 8 4
M TOR 16 1 7 8 18
M TOR 17 2 1 0 9
M TOR 18 2 1 7 6
M TOR 19 2 1 7 17
M TOR 20 2 3 4 5
M TOR 21 2 3 4 6
M TOR 22 2 3 4 8
M TOR 23 2 8 4 5
M TOR 24 2 8 4 6
M TOR 25 2 8 7 6
M TOR 26 2 8 7 17
M TOR 27 3 2 1 7
M TOR 28 3 2 1 10
M TOR 29 3 2 8 7
M TOR 30 3 2 8 18
M TOR 31 3 4 5 14
M TOR 32 3 4 6 7
M TOR 33 3 4 6 15
M TOR 34 3 4 6 16
M TOR 35 3 4 8 7
M TOR 36 3 4 8 18
M TOR 37 4 3 2 11
M TOR 38 4 6 7 8
M TOR 39 4 6 7 17
M TOR 40 4 8 2 11
M TOR 41 4 8 7 17
M TOR 42 5 4 3 12
M TOR 43 5 4 3 13
M TOR 44 5 4 6 7
M TOR 45 5 4 6 15
M TOR 46 5 4 6 16
M TOR 47 5 4 8 7
M TOR 48 5 4 8 18
M TOR 49 6 4 3 12
M TOR 50 6 4 3 13
M TOR 51 6 4 5 14
M TOR 52 6 4 8 18
M TOR 53 6 7 1 10
M TOR 54 6 7 8 18
M TOR 55 7 1 0 9
M TOR 56 7 1 2 11
M TOR 57 7 8 2 11
M TOR 58 8 2 1 10
M TOR 59 8 2 3 12
M TOR 60 8 2 3 13
M TOR 61 8 4 3 12
M TOR 62 8 4 3 13
M TOR 63 8 4 5 14
M TOR 64 8 4 6 15
M TOR 65 8 4 6 16
M TOR 66 8 7 1 10
M TOR 67 8 7 6 15
M TOR 68 8 7 6 16
M  END
$$$$
