
     RDKit          3D

 19 21  0  0  0  0  0  0  0  0999 V2000
   -0.6433    1.0201    0.4537 O   0  0  0  0  0  0  0  0  0  0  0  0
   -1.8157    0.2963    0.6943 C   0  0  0  0  0  0  0  0  0  0  0  0
   -3.0709    1.0291    1.1233 C   0  0  0  0  0  0  0  0  0  0  0  0
   -2.9230    0.4924   -0.2812 C   0  0  0  0  0  0  0  0  0  0  0  0
   -3.7336   -0.6128   -0.9930 C   0  0  0  0  0  0  0  0  0  0  0  0
   -3.6468    0.2337   -2.2754 C   0  0  0  0  0  0  0  0  0  0  0  0
   -3.4176   -0.2954   -3.5329 O   0  0  0  0  0  0  0  0  0  0  0  0
   -4.2115    1.6111   -2.0668 C   0  0  0  0  0  0  0  0  0  0  0  0
   -2.8168    1.2930   -1.5614 C   0  0  0  0  0  0  0  0  0  0  0  0
   -0.2979    1.3175    1.3018 H   0  0  0  0  0  0  0  0  0  0  0  0
   -1.6609   -0.7099    1.0881 H   0  0  0  0  0  0  0  0  0  0  0  0
   -3.7494    0.5310    1.8093 H   0  0  0  0  0  0  0  0  0  0  0  0
   -2.9913    2.1041    1.2535 H   0  0  0  0  0  0  0  0  0  0  0  0
   -3.1678   -1.5438   -1.0870 H   0  0  0  0  0  0  0  0  0  0  0  0
   -4.7366   -0.8314   -0.6091 H   0  0  0  0  0  0  0  0  0  0  0  0
   -4.2693   -0.4428   -3.9587 H   0  0  0  0  0  0  0  0  0  0  0  0
   -4.2310    2.2173   -2.9674 H   0  0  0  0  0  0  0  0  0  0  0  0
   -5.0246    1.7984   -1.3684 H   0  0  0  0  0  0  0  0  0  0  0  0
   -1.9379    1.8289   -1.8936 H   0  0  0  0  0  0  0  0  0  0  0  0
  1  2  1  0
  2  3  1  0
  3  4  1  0
  4  5  1  0
  5  6  1  0
  6  7  1  0
  6  8  1  0
  8  9  1  0
  4  2  1  0
  9  4  1  0
  9  6  1  0
  1 10  1  0
  2 11  1  0
  3 12  1  0
  3 13  1  0
  5 14  1  0
  5 15  1  0
  7 16  1  0
  8 17  1  0
  8 18  1  0
  9 19  1  0
M  END
$$$$
