
     RDKit          3D

 19 20  0  0  0  0  0  0  0  0999 V2000
    1.1878   -0.2180    0.0483 O   0  0  0  0  0  0  0  0  0  0  0  0
   -0.0062   -0.0823   -0.0319 C   0  0  0  0  0  0  0  0  0  0  0  0
   -0.7899    1.2310   -0.0517 C   0  0  0  0  0  0  0  0  0  0  0  0
   -2.2233    0.7528    0.1869 C   0  0  0  0  0  0  0  0  0  0  0  0
   -2.2726   -0.5731   -0.3508 O   0  0  0  0  0  0  0  0  0  0  0  0
   -1.0338   -1.2087   -0.1266 C   0  0  0  0  0  0  0  0  0  0  0  0
   -0.9161   -2.2334    1.0536 C   0  0  0  0  0  0  0  0  0  0  0  0
   -0.1306   -3.1696    0.0978 C   0  0  0  0  0  0  0  0  0  0  0  0
   -0.6673   -2.3495   -1.1060 C   0  0  0  0  0  0  0  0  0  0  0  0
   -0.4023    1.9396    0.6824 H   0  0  0  0  0  0  0  0  0  0  0  0
   -0.6777    1.6765   -1.0470 H   0  0  0  0  0  0  0  0  0  0  0  0
   -2.4613    0.7428    1.2613 H   0  0  0  0  0  0  0  0  0  0  0  0
   -2.9839    1.3439   -0.3271 H   0  0  0  0  0  0  0  0  0  0  0  0
   -0.4191   -1.9021    1.9681 H   0  0  0  0  0  0  0  0  0  0  0  0
   -1.9111   -2.6169    1.2938 H   0  0  0  0  0  0  0  0  0  0  0  0
    0.9472   -3.0477    0.2147 H   0  0  0  0  0  0  0  0  0  0  0  0
   -0.3798   -4.2316    0.1271 H   0  0  0  0  0  0  0  0  0  0  0  0
    0.0280   -2.1035   -1.9113 H   0  0  0  0  0  0  0  0  0  0  0  0
   -1.5821   -2.7733   -1.5277 H   0  0  0  0  0  0  0  0  0  0  0  0
  1  2  2  0
  2  3  1  0
  3  4  1  0
  4  5  1  0
  5  6  1  0
  6  7  1  0
  7  8  1  0
  8  9  1  0
  6  2  1  0
  9  6  1  0
  3 10  1  0
  3 11  1  0
  4 12  1  0
  4 13  1  0
  7 14  1  0
  7 15  1  0
  8 16  1  0
  8 17  1  0
  9 18  1  0
  9 19  1  0
M  END
$$$$
