
     RDKit          3D

 19 21  0  0  0  0  0  0  0  0999 V2000
    0.0252    0.3030    0.2104 C   0  0  0  0  0  0  0  0  0  0  0  0
    1.4920    0.0254    0.2059 C   0  0  0  0  0  0  0  0  0  0  0  0
    2.2575    0.3142   -0.9701 O   0  0  0  0  0  0  0  0  0  0  0  0
    2.6939    0.8794    0.2812 C   0  0  0  0  0  0  0  0  0  0  0  0
    3.5000   -0.2017    1.0377 C   0  0  0  0  0  0  0  0  0  0  0  0
    4.2885   -1.2241    0.1652 C   0  0  0  0  0  0  0  0  0  0  0  0
    3.0342   -2.1552    0.1180 C   0  0  0  0  0  0  0  0  0  0  0  0
    2.2452   -1.1184    0.9725 C   0  0  0  0  0  0  0  0  0  0  0  0
    1.6516   -1.5174    2.1743 O   0  0  0  0  0  0  0  0  0  0  0  0
   -0.3655    0.2406    1.2305 H   0  0  0  0  0  0  0  0  0  0  0  0
   -0.1788    1.3013   -0.1859 H   0  0  0  0  0  0  0  0  0  0  0  0
   -0.5145   -0.4233   -0.4092 H   0  0  0  0  0  0  0  0  0  0  0  0
    2.8030    1.9588    0.3085 H   0  0  0  0  0  0  0  0  0  0  0  0
    3.9043    0.1006    2.0031 H   0  0  0  0  0  0  0  0  0  0  0  0
    4.6087   -0.8405   -0.8040 H   0  0  0  0  0  0  0  0  0  0  0  0
    5.1453   -1.6635    0.6797 H   0  0  0  0  0  0  0  0  0  0  0  0
    2.6330   -2.3627   -0.8757 H   0  0  0  0  0  0  0  0  0  0  0  0
    3.1706   -3.0924    0.6636 H   0  0  0  0  0  0  0  0  0  0  0  0
    0.9200   -2.1102    1.9666 H   0  0  0  0  0  0  0  0  0  0  0  0
  1  2  1  0
  2  3  1  0
  3  4  1  0
  4  5  1  0
  5  6  1  0
  6  7  1  0
  7  8  1  0
  8  9  1  0
  4  2  1  0
  8  5  1  0
  8  2  1  0
  1 10  1  0
  1 11  1  0
  1 12  1  0
  4 13  1  0
  5 14  1  0
  6 15  1  0
  6 16  1  0
  7 17  1  0
  7 18  1  0
  9 19  1  0
M  END
$$$$
