
     RDKit          3D

 19 21  0  0  0  0  0  0  0  0999 V2000
    1.4014    3.4829    1.5782 C   0  0  0  0  0  0  0  0  0  0  0  0
    0.8813    2.0909    1.2339 C   0  0  0  0  0  0  0  0  0  0  0  0
    0.2802    2.1884   -0.0583 O   0  0  0  0  0  0  0  0  0  0  0  0
   -0.0862    1.5682    2.2471 C   0  0  0  0  0  0  0  0  0  0  0  0
   -0.7622    0.2014    2.4345 C   0  0  0  0  0  0  0  0  0  0  0  0
   -2.1486    0.8419    2.5012 C   0  0  0  0  0  0  0  0  0  0  0  0
   -1.3944    2.1179    2.9518 C   0  0  0  0  0  0  0  0  0  0  0  0
   -0.8636    1.7583    4.2606 O   0  0  0  0  0  0  0  0  0  0  0  0
    0.0254    0.8866    3.5676 C   0  0  0  0  0  0  0  0  0  0  0  0
    1.9114    3.4747    2.5450 H   0  0  0  0  0  0  0  0  0  0  0  0
    2.1010    3.8214    0.8097 H   0  0  0  0  0  0  0  0  0  0  0  0
    0.5724    4.1951    1.6243 H   0  0  0  0  0  0  0  0  0  0  0  0
    1.7347    1.3909    1.2002 H   0  0  0  0  0  0  0  0  0  0  0  0
   -0.1057    1.3297   -0.2609 H   0  0  0  0  0  0  0  0  0  0  0  0
   -0.4671   -0.7560    2.0219 H   0  0  0  0  0  0  0  0  0  0  0  0
   -2.5848    0.9620    1.5063 H   0  0  0  0  0  0  0  0  0  0  0  0
   -2.8871    0.4443    3.2041 H   0  0  0  0  0  0  0  0  0  0  0  0
   -1.8247    3.1160    2.9149 H   0  0  0  0  0  0  0  0  0  0  0  0
    0.8624    0.4502    4.0972 H   0  0  0  0  0  0  0  0  0  0  0  0
  1  2  1  0
  2  3  1  0
  2  4  1  0
  4  5  1  0
  5  6  1  0
  6  7  1  0
  7  8  1  0
  8  9  1  0
  7  4  1  0
  9  4  1  0
  9  5  1  0
  1 10  1  0
  1 11  1  0
  1 12  1  0
  2 13  1  0
  3 14  1  0
  5 15  1  0
  6 16  1  0
  6 17  1  0
  7 18  1  0
  9 19  1  0
M  END
$$$$
