
     RDKit          3D

 19 19  0  0  0  0  0  0  0  0999 V2000
    1.6005    1.1089    0.2579 C   0  0  0  0  0  0  0  0  0  0  0  0
    1.1648   -0.3373    0.0116 C   0  0  0  0  0  0  0  0  0  0  0  0
    1.7739   -0.9303   -1.2644 C   0  0  0  0  0  0  0  0  0  0  0  0
    3.2120   -0.9281   -1.1843 O   0  0  0  0  0  0  0  0  0  0  0  0
    3.7316   -2.2410   -1.3303 C   0  0  0  0  0  0  0  0  0  0  0  0
    4.6388   -2.3053   -2.5616 C   0  0  0  0  0  0  0  0  0  0  0  0
    5.5145   -3.1146   -2.7098 O   0  0  0  0  0  0  0  0  0  0  0  0
    2.5211   -3.1230   -1.5191 C   0  0  0  0  0  0  0  0  0  0  0  0
    1.4250   -2.3739   -1.5071 C   0  0  0  0  0  0  0  0  0  0  0  0
    1.1664    1.4983    1.1834 H   0  0  0  0  0  0  0  0  0  0  0  0
    2.6889    1.1732    0.3351 H   0  0  0  0  0  0  0  0  0  0  0  0
    1.2826    1.7627   -0.5621 H   0  0  0  0  0  0  0  0  0  0  0  0
    1.4517   -0.9723    0.8582 H   0  0  0  0  0  0  0  0  0  0  0  0
    0.0718   -0.3947   -0.0737 H   0  0  0  0  0  0  0  0  0  0  0  0
    1.4794   -0.2982   -2.1185 H   0  0  0  0  0  0  0  0  0  0  0  0
    4.3317   -2.5282   -0.4544 H   0  0  0  0  0  0  0  0  0  0  0  0
    4.3899   -1.5346   -3.3256 H   0  0  0  0  0  0  0  0  0  0  0  0
    2.5964   -4.1932   -1.6563 H   0  0  0  0  0  0  0  0  0  0  0  0
    0.4051   -2.7188   -1.6221 H   0  0  0  0  0  0  0  0  0  0  0  0
  1  2  1  0
  2  3  1  0
  3  4  1  0
  4  5  1  0
  5  6  1  0
  6  7  2  0
  5  8  1  0
  8  9  2  0
  9  3  1  0
  1 10  1  0
  1 11  1  0
  1 12  1  0
  2 13  1  0
  2 14  1  0
  3 15  1  0
  5 16  1  0
  6 17  1  0
  8 18  1  0
  9 19  1  0
M  END
$$$$
