
     RDKit          3D

 19 20  0  0  0  0  0  0  0  0999 V2000
   -0.1565   -0.0995   -0.0339 C   0  0  0  0  0  0  0  0  0  0  0  0
    1.3579   -0.0067    0.0724 C   0  0  0  0  0  0  0  0  0  0  0  0
    2.2058    0.0705   -1.2652 C   0  0  0  0  0  0  0  0  0  0  0  0
    2.8175    1.3890   -0.7848 C   0  0  0  0  0  0  0  0  0  0  0  0
    4.1573    1.7062   -0.9058 O   0  0  0  0  0  0  0  0  0  0  0  0
    1.7514    2.4136   -0.5441 C   0  0  0  0  0  0  0  0  0  0  0  0
    1.9980    1.3387    0.4956 C   0  0  0  0  0  0  0  0  0  0  0  0
    1.9283   -1.1123    0.9349 C   0  0  0  0  0  0  0  0  0  0  0  0
    1.2827   -1.9690    1.4822 O   0  0  0  0  0  0  0  0  0  0  0  0
   -0.6174   -0.0363    0.9559 H   0  0  0  0  0  0  0  0  0  0  0  0
   -0.5629    0.7028   -0.6554 H   0  0  0  0  0  0  0  0  0  0  0  0
   -0.4549   -1.0572   -0.4700 H   0  0  0  0  0  0  0  0  0  0  0  0
    2.9486   -0.7283   -1.3385 H   0  0  0  0  0  0  0  0  0  0  0  0
    1.6209    0.1004   -2.1898 H   0  0  0  0  0  0  0  0  0  0  0  0
    4.2784    2.2213   -1.7111 H   0  0  0  0  0  0  0  0  0  0  0  0
    2.1324    3.3871   -0.2513 H   0  0  0  0  0  0  0  0  0  0  0  0
    0.8367    2.4425   -1.1308 H   0  0  0  0  0  0  0  0  0  0  0  0
    2.2803    1.5996    1.5086 H   0  0  0  0  0  0  0  0  0  0  0  0
    3.0385   -1.0775    1.0343 H   0  0  0  0  0  0  0  0  0  0  0  0
  1  2  1  0
  2  3  1  0
  3  4  1  0
  4  5  1  0
  4  6  1  0
  6  7  1  0
  2  8  1  0
  8  9  2  0
  7  2  1  0
  7  4  1  0
  1 10  1  0
  1 11  1  0
  1 12  1  0
  3 13  1  0
  3 14  1  0
  5 15  1  0
  6 16  1  0
  6 17  1  0
  7 18  1  0
  8 19  1  0
M  END
$$$$
