
     RDKit          3D

 19 19  0  0  0  0  0  0  0  0999 V2000
    1.4166   -0.0992   -0.2412 C   0  0  0  0  0  0  0  0  0  0  0  0
    0.0277   -0.1415    0.0104 O   0  0  0  0  0  0  0  0  0  0  0  0
   -0.3964    0.6155    1.1301 C   0  0  0  0  0  0  0  0  0  0  0  0
   -1.9153    0.7206    1.0575 C   0  0  0  0  0  0  0  0  0  0  0  0
    0.0361   -0.0470    2.4286 C   0  0  0  0  0  0  0  0  0  0  0  0
   -0.1462    0.7180    3.6161 O   0  0  0  0  0  0  0  0  0  0  0  0
    1.2015    0.4233    3.2099 C   0  0  0  0  0  0  0  0  0  0  0  0
    1.9690   -0.4646    4.0402 C   0  0  0  0  0  0  0  0  0  0  0  0
    2.6340   -1.1982    4.7215 C   0  0  0  0  0  0  0  0  0  0  0  0
    2.0047   -0.5811    0.5520 H   0  0  0  0  0  0  0  0  0  0  0  0
    1.5868   -0.6369   -1.1770 H   0  0  0  0  0  0  0  0  0  0  0  0
    1.7744    0.9358   -0.3581 H   0  0  0  0  0  0  0  0  0  0  0  0
    0.0452    1.6262    1.0952 H   0  0  0  0  0  0  0  0  0  0  0  0
   -2.2942    1.2902    1.9098 H   0  0  0  0  0  0  0  0  0  0  0  0
   -2.2135    1.2187    0.1318 H   0  0  0  0  0  0  0  0  0  0  0  0
   -2.3655   -0.2769    1.0716 H   0  0  0  0  0  0  0  0  0  0  0  0
   -0.2376   -1.0995    2.5178 H   0  0  0  0  0  0  0  0  0  0  0  0
    1.7427    1.2904    2.8312 H   0  0  0  0  0  0  0  0  0  0  0  0
    3.2156   -1.8484    5.3275 H   0  0  0  0  0  0  0  0  0  0  0  0
  1  2  1  0
  2  3  1  0
  3  4  1  0
  3  5  1  0
  5  6  1  0
  6  7  1  0
  7  8  1  0
  8  9  3  0
  7  5  1  0
  1 10  1  0
  1 11  1  0
  1 12  1  0
  3 13  1  0
  4 14  1  0
  4 15  1  0
  4 16  1  0
  5 17  1  0
  7 18  1  0
  9 19  1  0
M  END
$$$$
