gdb 3302	2.3577749	1.6188021	1.1540679	2.0589	77.41	-0.2121	0.02459	0.23669	1115.7111	0.155899	-422.558957	-422.550071	-422.549127	-422.59177	34.261
 OpenBabel02181911413D

 19 20  0  0  1  0  0  0  0  0999 V2000
    1.2363    0.6521   -0.3966 C   0  0  0  0  0  0  0  0  0  0  0  0
   -0.1296    0.2239    0.0346 C   0  0  0  0  0  0  0  0  0  0  0  0
   -1.2301    0.9696    0.1839 C   0  0  0  0  0  0  0  0  0  0  0  0
   -2.4422    0.1663    0.6147 C   0  0  0  0  0  0  0  0  0  0  0  0
   -1.8869   -1.2412    0.8023 C   0  0  2  0  0  0  0  0  0  0  0  0
   -0.7987   -1.4381    1.8408 C   0  0  1  0  0  0  0  0  0  0  0  0
   -0.5357   -2.7512    2.2623 O   0  0  0  0  0  0  0  0  0  0  0  0
   -0.4093   -1.1979    0.4027 C   0  0  2  0  0  0  0  0  0  0  0  0
    0.2647   -2.1949   -0.2851 O   0  0  0  0  0  0  0  0  0  0  0  0
    1.9752    0.4700    0.3938 H   0  0  0  0  0  0  0  0  0  0  0  0
    1.5648    0.0717   -1.2653 H   0  0  0  0  0  0  0  0  0  0  0  0
    1.2608    1.7140   -0.6543 H   0  0  0  0  0  0  0  0  0  0  0  0
   -1.2711    2.0435    0.0379 H   0  0  0  0  0  0  0  0  0  0  0  0
   -2.8880    0.5624    1.5373 H   0  0  0  0  0  0  0  0  0  0  0  0
   -3.2348    0.1911   -0.1453 H   0  0  0  0  0  0  0  0  0  0  0  0
   -2.4900   -2.1104    0.5615 H   0  0  0  0  0  0  0  0  0  0  0  0
   -0.6158   -0.6690    2.5919 H   0  0  0  0  0  0  0  0  0  0  0  0
   -1.3427   -3.1304    2.6259 H   0  0  0  0  0  0  0  0  0  0  0  0
    0.3574   -2.9302    0.3369 H   0  0  0  0  0  0  0  0  0  0  0  0
  1  2  1  0  0  0  0
  1 10  1  0  0  0  0
  2  3  2  0  0  0  0
  2  8  1  0  0  0  0
  3  4  1  0  0  0  0
  4  5  1  0  0  0  0
  4 14  1  0  0  0  0
  5 16  1  6  0  0  0
  5  6  1  0  0  0  0
  6  7  1  0  0  0  0
  6 17  1  1  0  0  0
  7 18  1  0  0  0  0
  8  9  1  6  0  0  0
  8  5  1  0  0  0  0
  8  6  1  0  0  0  0
  9 19  1  0  0  0  0
 11  1  1  0  0  0  0
 12  1  1  0  0  0  0
 13  3  1  0  0  0  0
 15  4  1  0  0  0  0
M TOR 0 0 1 2 3
M TOR 1 0 1 2 12
M TOR 2 0 1 7 4
M TOR 3 0 1 7 5
M TOR 4 0 1 7 8
M TOR 5 1 2 3 4
M TOR 6 1 2 3 13
M TOR 7 1 2 3 14
M TOR 8 1 7 4 3
M TOR 9 1 7 4 5
M TOR 10 1 7 4 15
M TOR 11 1 7 5 6
M TOR 12 1 7 5 16
M TOR 13 1 7 8 18
M TOR 14 2 1 0 9
M TOR 15 2 1 0 10
M TOR 16 2 1 0 11
M TOR 17 2 1 7 4
M TOR 18 2 1 7 5
M TOR 19 2 1 7 8
M TOR 20 2 3 4 5
M TOR 21 2 3 4 7
M TOR 22 2 3 4 15
M TOR 23 3 2 1 7
M TOR 24 3 4 5 6
M TOR 25 3 4 5 7
M TOR 26 3 4 5 16
M TOR 27 3 4 7 8
M TOR 28 4 3 2 12
M TOR 29 4 5 6 17
M TOR 30 4 5 7 8
M TOR 31 4 7 5 6
M TOR 32 4 7 5 16
M TOR 33 4 7 8 18
M TOR 34 5 4 3 13
M TOR 35 5 4 3 14
M TOR 36 5 7 4 15
M TOR 37 5 7 8 18
M TOR 38 6 5 4 15
M TOR 39 6 5 7 8
M TOR 40 7 1 0 9
M TOR 41 7 1 0 10
M TOR 42 7 1 0 11
M TOR 43 7 1 2 12
M TOR 44 7 4 3 13
M TOR 45 7 4 3 14
M TOR 46 7 5 6 17
M TOR 47 8 7 4 15
M TOR 48 8 7 5 16
M  END
$$$$
