gdb 5473	3.2676199	1.3991282	1.1668234	1.884	76.14	-0.23299	0.07163	0.30462	1106.7544	0.156141	-422.474929	-422.466599	-422.465655	-422.507679	31.755
 OpenBabel02181911423D

 19 21  0  0  1  0  0  0  0  0999 V2000
    1.4337    0.0648   -0.0869 C   0  0  0  0  0  0  0  0  0  0  0  0
    0.0260    0.0372    0.0356 O   0  0  0  0  0  0  0  0  0  0  0  0
   -0.4347    0.6253    1.2204 C   0  0  2  0  0  0  0  0  0  0  0  0
   -1.9461    0.8763    1.2658 C   0  0  1  0  0  0  0  0  0  0  0  0
   -1.8021    2.0698    2.2685 C   0  0  2  0  0  0  0  0  0  0  0  0
   -2.6522    3.0076    1.3862 C   0  0  0  0  0  0  0  0  0  0  0  0
   -1.8473    2.1656    0.3744 C   0  0  1  0  0  0  0  0  0  0  0  0
   -0.5759    2.1642    1.2804 C   0  0  2  0  0  0  0  0  0  0  0  0
    0.3911    3.1518    1.2159 O   0  0  0  0  0  0  0  0  0  0  0  0
    1.9212   -0.4707    0.7438 H   0  0  0  0  0  0  0  0  0  0  0  0
    1.6881   -0.4374   -1.0233 H   0  0  0  0  0  0  0  0  0  0  0  0
    1.8199    1.0927   -0.1135 H   0  0  0  0  0  0  0  0  0  0  0  0
    0.0139    0.1412    2.1053 H   0  0  0  0  0  0  0  0  0  0  0  0
   -2.7534    0.1485    1.2525 H   0  0  0  0  0  0  0  0  0  0  0  0
   -1.7551    1.9862    3.3556 H   0  0  0  0  0  0  0  0  0  0  0  0
   -3.7351    2.8519    1.4055 H   0  0  0  0  0  0  0  0  0  0  0  0
   -2.4133    4.0736    1.4338 H   0  0  0  0  0  0  0  0  0  0  0  0
   -1.8533    2.1888   -0.7136 H   0  0  0  0  0  0  0  0  0  0  0  0
    0.9333    3.1023    2.0109 H   0  0  0  0  0  0  0  0  0  0  0  0
  1  2  1  0  0  0  0
  1 10  1  0  0  0  0
  2  3  1  0  0  0  0
  3  4  1  0  0  0  0
  3  8  1  0  0  0  0
  3 13  1  1  0  0  0
  4 14  1  6  0  0  0
  4  5  1  0  0  0  0
  5 15  1  1  0  0  0
  6 16  1  0  0  0  0
  6 17  1  0  0  0  0
  6  5  1  0  0  0  0
  7 18  1  6  0  0  0
  7  4  1  0  0  0  0
  7  8  1  0  0  0  0
  7  6  1  0  0  0  0
  8  9  1  1  0  0  0
  8  5  1  0  0  0  0
  9 19  1  0  0  0  0
 11  1  1  0  0  0  0
 12  1  1  0  0  0  0
M TOR 0 0 1 2 3
M TOR 1 0 1 2 7
M TOR 2 0 1 2 12
M TOR 3 1 2 3 4
M TOR 4 1 2 3 6
M TOR 5 1 2 3 13
M TOR 6 1 2 7 4
M TOR 7 1 2 7 6
M TOR 8 1 2 7 8
M TOR 9 2 1 0 9
M TOR 10 2 1 0 10
M TOR 11 2 1 0 11
M TOR 12 2 3 4 5
M TOR 13 2 3 4 7
M TOR 14 2 3 4 14
M TOR 15 2 3 6 5
M TOR 16 2 3 6 7
M TOR 17 2 3 6 17
M TOR 18 2 7 4 5
M TOR 19 2 7 4 14
M TOR 20 2 7 6 5
M TOR 21 2 7 6 17
M TOR 22 2 7 8 18
M TOR 23 3 2 7 8
M TOR 24 3 4 5 6
M TOR 25 3 4 5 15
M TOR 26 3 4 5 16
M TOR 27 3 4 7 6
M TOR 28 3 4 7 8
M TOR 29 3 6 5 15
M TOR 30 3 6 5 16
M TOR 31 3 6 7 8
M TOR 32 4 3 2 12
M TOR 33 4 3 6 17
M TOR 34 4 5 6 7
M TOR 35 4 5 6 17
M TOR 36 4 7 2 12
M TOR 37 4 7 6 17
M TOR 38 4 7 8 18
M TOR 39 5 4 3 13
M TOR 40 5 4 7 8
M TOR 41 5 6 3 13
M TOR 42 5 6 7 8
M TOR 43 6 3 2 12
M TOR 44 6 3 4 14
M TOR 45 6 5 4 14
M TOR 46 6 7 2 12
M TOR 47 6 7 4 14
M TOR 48 6 7 8 18
M TOR 49 7 2 3 13
M TOR 50 7 4 3 13
M TOR 51 7 4 5 15
M TOR 52 7 4 5 16
M TOR 53 7 6 3 13
M TOR 54 7 6 5 15
M TOR 55 7 6 5 16
M TOR 56 8 7 2 12
M TOR 57 8 7 4 14
M TOR 58 8 7 6 17
M  END
$$$$
