
     RDKit          3D

 19 19  0  0  0  0  0  0  0  0999 V2000
    1.4386    0.7458    0.1395 O   0  0  0  0  0  0  0  0  0  0  0  0
    0.5225   -0.1696    0.6832 C   0  0  0  0  0  0  0  0  0  0  0  0
   -0.8053    0.5082    1.0769 C   0  0  0  0  0  0  0  0  0  0  0  0
   -1.9281   -0.5320    1.3715 C   0  0  0  0  0  0  0  0  0  0  0  0
   -2.8088   -0.4839    0.1105 C   0  0  0  0  0  0  0  0  0  0  0  0
   -2.6043    0.9572   -0.3546 C   0  0  0  0  0  0  0  0  0  0  0  0
   -1.2292    1.2279   -0.1045 O   0  0  0  0  0  0  0  0  0  0  0  0
   -0.6190    1.4473    2.1862 C   0  0  0  0  0  0  0  0  0  0  0  0
   -0.4797    2.1976    3.1146 C   0  0  0  0  0  0  0  0  0  0  0  0
    0.9481    1.2471   -0.5239 H   0  0  0  0  0  0  0  0  0  0  0  0
    0.2805   -0.9785   -0.0269 H   0  0  0  0  0  0  0  0  0  0  0  0
    0.9880   -0.6166    1.5671 H   0  0  0  0  0  0  0  0  0  0  0  0
   -1.5088   -1.5229    1.5647 H   0  0  0  0  0  0  0  0  0  0  0  0
   -2.4933   -0.2296    2.2552 H   0  0  0  0  0  0  0  0  0  0  0  0
   -2.4392   -1.1780   -0.6508 H   0  0  0  0  0  0  0  0  0  0  0  0
   -3.8546   -0.7261    0.3145 H   0  0  0  0  0  0  0  0  0  0  0  0
   -2.7853    1.1150   -1.4211 H   0  0  0  0  0  0  0  0  0  0  0  0
   -3.2423    1.6511    0.2139 H   0  0  0  0  0  0  0  0  0  0  0  0
   -0.3440    2.8700    3.9254 H   0  0  0  0  0  0  0  0  0  0  0  0
  1  2  1  0
  2  3  1  0
  3  4  1  0
  4  5  1  0
  5  6  1  0
  6  7  1  0
  3  8  1  0
  8  9  3  0
  7  3  1  0
  1 10  1  0
  2 11  1  0
  2 12  1  0
  4 13  1  0
  4 14  1  0
  5 15  1  0
  5 16  1  0
  6 17  1  0
  6 18  1  0
  9 19  1  0
M  END
$$$$
