gdb 5689	2.5876901	1.1923861	0.9722632	1.5991	80.07	-0.23948	0.03463	0.27411	1294.0046	0.1527	-422.470793	-422.460467	-422.459523	-422.50602	36.723
 OpenBabel02181911423D

 19 19  0  0  1  0  0  0  0  0999 V2000
    1.3706   -0.0553   -0.1948 C   0  0  0  0  0  0  0  0  0  0  0  0
   -0.0151    0.1658   -0.0072 O   0  0  0  0  0  0  0  0  0  0  0  0
   -0.3300    0.6059    1.2679 C   0  0  2  0  0  0  0  0  0  0  0  0
   -0.4344   -0.3902    2.3966 C   0  0  0  0  0  0  0  0  0  0  0  0
   -1.6987    0.2034    1.8035 C   0  0  2  0  0  0  0  0  0  0  0  0
   -2.4504   -0.7002    1.0578 O   0  0  0  0  0  0  0  0  0  0  0  0
   -3.1437   -0.1059   -0.0343 C   0  0  0  0  0  0  0  0  0  0  0  0
   -2.4433    1.1816    2.5595 C   0  0  0  0  0  0  0  0  0  0  0  0
   -3.0734    1.9989    3.1776 C   0  0  0  0  0  0  0  0  0  0  0  0
    1.7552   -0.8163    0.4984 H   0  0  0  0  0  0  0  0  0  0  0  0
    1.5016   -0.4040   -1.2213 H   0  0  0  0  0  0  0  0  0  0  0  0
    1.9498    0.8693   -0.0540 H   0  0  0  0  0  0  0  0  0  0  0  0
    0.0182    1.6114    1.5086 H   0  0  0  0  0  0  0  0  0  0  0  0
   -0.2799   -1.4308    2.1342 H   0  0  0  0  0  0  0  0  0  0  0  0
   -0.1437   -0.0992    3.3987 H   0  0  0  0  0  0  0  0  0  0  0  0
   -3.6980   -0.9116   -0.5201 H   0  0  0  0  0  0  0  0  0  0  0  0
   -3.8510    0.6588    0.3123 H   0  0  0  0  0  0  0  0  0  0  0  0
   -2.4429    0.3403   -0.7482 H   0  0  0  0  0  0  0  0  0  0  0  0
   -3.6294    2.7165    3.7287 H   0  0  0  0  0  0  0  0  0  0  0  0
  1 12  1  0  0  0  0
  1  2  1  0  0  0  0
  1 10  1  0  0  0  0
  2  3  1  0  0  0  0
  3 13  1  1  0  0  0
  3  5  1  0  0  0  0
  3  4  1  0  0  0  0
  4 15  1  0  0  0  0
  5  4  1  0  0  0  0
  5  8  1  1  0  0  0
  6  5  1  0  0  0  0
  7 17  1  0  0  0  0
  7  6  1  0  0  0  0
  8  9  3  0  0  0  0
  9 19  1  0  0  0  0
 11  1  1  0  0  0  0
 14  4  1  0  0  0  0
 16  7  1  0  0  0  0
 18  7  1  0  0  0  0
M TOR 0 0 1 2 3
M TOR 1 0 1 2 4
M TOR 2 0 1 2 12
M TOR 3 1 2 3 4
M TOR 4 1 2 3 13
M TOR 5 1 2 3 14
M TOR 6 1 2 4 5
M TOR 7 1 2 4 7
M TOR 8 2 1 0 9
M TOR 9 2 1 0 10
M TOR 10 2 1 0 11
M TOR 11 2 3 4 5
M TOR 12 2 3 4 7
M TOR 13 2 4 3 13
M TOR 14 2 4 3 14
M TOR 15 2 4 5 6
M TOR 16 2 4 7 8
M TOR 17 3 4 2 12
M TOR 18 3 4 5 6
M TOR 19 3 4 7 8
M TOR 20 4 5 6 15
M TOR 21 4 5 6 16
M TOR 22 4 5 6 17
M TOR 23 4 7 8 18
M TOR 24 5 4 2 12
M TOR 25 5 4 3 13
M TOR 26 5 4 3 14
M TOR 27 5 4 7 8
M TOR 28 6 5 4 7
M TOR 29 7 4 2 12
M TOR 30 7 4 3 13
M TOR 31 7 4 3 14
M  END
$$$$
