
     RDKit          3D

 19 20  0  0  0  0  0  0  0  0999 V2000
    1.1788   -0.5511    0.0896 O   0  0  0  0  0  0  0  0  0  0  0  0
    0.0691   -0.0988   -0.0251 C   0  0  0  0  0  0  0  0  0  0  0  0
   -0.3867    0.8163   -1.1359 C   0  0  0  0  0  0  0  0  0  0  0  0
   -0.9796    2.1321   -0.5881 C   0  0  0  0  0  0  0  0  0  0  0  0
   -1.5948    2.9480   -1.6805 C   0  0  0  0  0  0  0  0  0  0  0  0
   -0.9127    3.9334   -2.5802 C   0  0  0  0  0  0  0  0  0  0  0  0
   -2.1424    4.3547   -1.7935 C   0  0  0  0  0  0  0  0  0  0  0  0
   -3.3657    3.6895   -2.4089 C   0  0  0  0  0  0  0  0  0  0  0  0
   -2.7317    2.3809   -2.3538 O   0  0  0  0  0  0  0  0  0  0  0  0
   -0.7250   -0.3372    0.7227 H   0  0  0  0  0  0  0  0  0  0  0  0
    0.4523    1.0045   -1.8107 H   0  0  0  0  0  0  0  0  0  0  0  0
   -1.1745    0.2965   -1.6987 H   0  0  0  0  0  0  0  0  0  0  0  0
   -1.7431    1.9038    0.1663 H   0  0  0  0  0  0  0  0  0  0  0  0
   -0.1985    2.7207   -0.0945 H   0  0  0  0  0  0  0  0  0  0  0  0
    0.0207    4.3441   -2.2073 H   0  0  0  0  0  0  0  0  0  0  0  0
   -0.9645    3.8069   -3.6585 H   0  0  0  0  0  0  0  0  0  0  0  0
   -2.1441    5.1738   -1.0872 H   0  0  0  0  0  0  0  0  0  0  0  0
   -4.2533    3.7122   -1.7668 H   0  0  0  0  0  0  0  0  0  0  0  0
   -3.6409    3.9736   -3.4316 H   0  0  0  0  0  0  0  0  0  0  0  0
  1  2  2  0
  2  3  1  0
  3  4  1  0
  4  5  1  0
  5  6  1  0
  6  7  1  0
  7  8  1  0
  8  9  1  0
  7  5  1  0
  9  5  1  0
  2 10  1  0
  3 11  1  0
  3 12  1  0
  4 13  1  0
  4 14  1  0
  6 15  1  0
  6 16  1  0
  7 17  1  0
  8 18  1  0
  8 19  1  0
M  END
$$$$
