
     RDKit          3D

 19 20  0  0  0  0  0  0  0  0999 V2000
   -4.6528   -1.2548   -2.5783 C   0  0  0  0  0  0  0  0  0  0  0  0
   -4.1984   -0.5490   -1.3205 C   0  0  0  0  0  0  0  0  0  0  0  0
   -4.0401    0.9477   -1.2837 C   0  0  0  0  0  0  0  0  0  0  0  0
   -2.8160    0.0619   -1.2414 C   0  0  0  0  0  0  0  0  0  0  0  0
   -2.0237   -0.0594    0.0181 C   0  0  0  0  0  0  0  0  0  0  0  0
   -0.8967   -1.1107    0.0869 C   0  0  0  0  0  0  0  0  0  0  0  0
    0.0151    0.1073    0.2321 C   0  0  0  0  0  0  0  0  0  0  0  0
    1.1742    0.3310    0.3708 O   0  0  0  0  0  0  0  0  0  0  0  0
   -1.0105    1.0127    0.1566 O   0  0  0  0  0  0  0  0  0  0  0  0
   -4.3092   -2.2947   -2.6008 H   0  0  0  0  0  0  0  0  0  0  0  0
   -5.7456   -1.2618   -2.6529 H   0  0  0  0  0  0  0  0  0  0  0  0
   -4.2633   -0.7556   -3.4716 H   0  0  0  0  0  0  0  0  0  0  0  0
   -4.5584   -1.0001   -0.3982 H   0  0  0  0  0  0  0  0  0  0  0  0
   -4.2220    1.5037   -2.1971 H   0  0  0  0  0  0  0  0  0  0  0  0
   -4.3146    1.4782   -0.3780 H   0  0  0  0  0  0  0  0  0  0  0  0
   -2.2175    0.0203   -2.1485 H   0  0  0  0  0  0  0  0  0  0  0  0
   -2.6735   -0.0404    0.8982 H   0  0  0  0  0  0  0  0  0  0  0  0
   -0.8991   -1.7791    0.9491 H   0  0  0  0  0  0  0  0  0  0  0  0
   -0.7321   -1.6882   -0.8247 H   0  0  0  0  0  0  0  0  0  0  0  0
  1  2  1  0
  2  3  1  0
  3  4  1  0
  4  5  1  0
  5  6  1  0
  6  7  1  0
  7  8  2  0
  7  9  1  0
  4  2  1  0
  9  5  1  0
  1 10  1  0
  1 11  1  0
  1 12  1  0
  2 13  1  0
  3 14  1  0
  3 15  1  0
  4 16  1  0
  5 17  1  0
  6 18  1  0
  6 19  1  0
M  END
$$$$
