
     RDKit          3D

 19 19  0  0  0  0  0  0  0  0999 V2000
    1.8849    1.5165   -0.0613 C   0  0  0  0  0  0  0  0  0  0  0  0
    1.4843    0.0398    0.0027 C   0  0  0  0  0  0  0  0  0  0  0  0
    2.0348   -0.7808   -1.1617 C   0  0  0  0  0  0  0  0  0  0  0  0
    3.4636   -0.9152   -1.2148 C   0  0  0  0  0  0  0  0  0  0  0  0
    4.6618   -1.0249   -1.2112 C   0  0  0  0  0  0  0  0  0  0  0  0
    1.2183   -1.9905   -1.6676 C   0  0  0  0  0  0  0  0  0  0  0  0
   -0.0025   -2.3146   -1.0799 O   0  0  0  0  0  0  0  0  0  0  0  0
    1.2659   -0.7382   -2.4798 C   0  0  0  0  0  0  0  0  0  0  0  0
    1.9961   -0.6820   -3.6612 O   0  0  0  0  0  0  0  0  0  0  0  0
    1.4835    2.0655    0.7960 H   0  0  0  0  0  0  0  0  0  0  0  0
    2.9732    1.6263   -0.0576 H   0  0  0  0  0  0  0  0  0  0  0  0
    1.5051    1.9886   -0.9733 H   0  0  0  0  0  0  0  0  0  0  0  0
    1.8462   -0.4000    0.9403 H   0  0  0  0  0  0  0  0  0  0  0  0
    0.3947   -0.0604    0.0106 H   0  0  0  0  0  0  0  0  0  0  0  0
    5.7194   -1.1153   -1.2296 H   0  0  0  0  0  0  0  0  0  0  0  0
    1.8152   -2.8256   -2.0327 H   0  0  0  0  0  0  0  0  0  0  0  0
    0.1733   -2.7848   -0.2574 H   0  0  0  0  0  0  0  0  0  0  0  0
    0.3597   -0.1311   -2.4496 H   0  0  0  0  0  0  0  0  0  0  0  0
    1.5427   -1.2208   -4.3186 H   0  0  0  0  0  0  0  0  0  0  0  0
  1  2  1  0
  2  3  1  0
  3  4  1  0
  4  5  3  0
  3  6  1  0
  6  7  1  0
  6  8  1  0
  8  9  1  0
  8  3  1  0
  1 10  1  0
  1 11  1  0
  1 12  1  0
  2 13  1  0
  2 14  1  0
  5 15  1  0
  6 16  1  0
  7 17  1  0
  8 18  1  0
  9 19  1  0
M  END
$$$$
