gdb 183	3.7160695	1.302738	1.2914527	3.3216	74.14	-0.24114	0.08208	0.32322	1063.3022	0.157834	-422.533447	-422.525837	-422.524893	-422.565812	29.47
 OpenBabel02181911403D

 19 21  0  0  1  0  0  0  0  0999 V2000
   -0.1591    1.5534    0.0085 C   0  0  0  0  0  0  0  0  0  0  0  0
   -0.2139    0.0158   -0.0146 C   0  0  0  0  0  0  0  0  0  0  0  0
    1.3313    0.0908   -0.0331 C   0  0  1  0  0  0  0  0  0  0  0  0
    2.1017   -0.4812    1.1810 C   0  0  0  0  0  0  0  0  0  0  0  0
    3.4946   -0.7643    0.6610 C   0  0  2  0  0  0  0  0  0  0  0  0
    4.0642    0.3319   -0.0642 O   0  0  0  0  0  0  0  0  0  0  0  0
    3.4758   -0.7415   -0.8083 C   0  0  2  0  0  0  0  0  0  0  0  0
    2.0702   -0.4430   -1.2836 C   0  0  0  0  0  0  0  0  0  0  0  0
    1.2805    1.5440   -0.0099 O   0  0  0  0  0  0  0  0  0  0  0  0
   -0.5785    2.0592   -0.8700 H   0  0  0  0  0  0  0  0  0  0  0  0
   -0.5560    2.0318    0.9124 H   0  0  0  0  0  0  0  0  0  0  0  0
   -0.6419   -0.4541    0.8733 H   0  0  0  0  0  0  0  0  0  0  0  0
   -0.6646   -0.4267   -0.9053 H   0  0  0  0  0  0  0  0  0  0  0  0
    2.0857    0.2314    2.0101 H   0  0  0  0  0  0  0  0  0  0  0  0
    1.6417   -1.4173    1.5237 H   0  0  0  0  0  0  0  0  0  0  0  0
    4.1975   -1.3626    1.2356 H   0  0  0  0  0  0  0  0  0  0  0  0
    4.1637   -1.3214   -1.4189 H   0  0  0  0  0  0  0  0  0  0  0  0
    2.0334    0.2951   -2.0895 H   0  0  0  0  0  0  0  0  0  0  0  0
    1.6013   -1.3681   -1.6434 H   0  0  0  0  0  0  0  0  0  0  0  0
  1 11  1  0  0  0  0
  2  1  1  0  0  0  0
  2 12  1  0  0  0  0
  3  2  1  0  0  0  0
  3  9  1  1  0  0  0
  3  4  1  0  0  0  0
  4 15  1  0  0  0  0
  4 14  1  0  0  0  0
  5  4  1  0  0  0  0
  5 16  1  1  0  0  0
  6  5  1  0  0  0  0
  7 17  1  6  0  0  0
  7  6  1  0  0  0  0
  7  5  1  0  0  0  0
  8  7  1  0  0  0  0
  8  3  1  0  0  0  0
  9  1  1  0  0  0  0
 10  1  1  0  0  0  0
 13  2  1  0  0  0  0
 18  8  1  0  0  0  0
 19  8  1  0  0  0  0
M TOR 0 0 1 2 3
M TOR 1 0 1 2 7
M TOR 2 0 1 2 8
M TOR 3 0 8 2 3
M TOR 4 0 8 2 7
M TOR 5 1 2 3 4
M TOR 6 1 2 3 13
M TOR 7 1 2 3 14
M TOR 8 1 2 7 6
M TOR 9 1 2 7 17
M TOR 10 1 2 7 18
M TOR 11 2 1 0 9
M TOR 12 2 1 0 10
M TOR 13 2 3 4 5
M TOR 14 2 3 4 6
M TOR 15 2 3 4 15
M TOR 16 2 7 6 4
M TOR 17 2 7 6 5
M TOR 18 2 7 6 16
M TOR 19 2 8 0 9
M TOR 20 2 8 0 10
M TOR 21 3 2 1 11
M TOR 22 3 2 1 12
M TOR 23 3 2 7 6
M TOR 24 3 2 7 17
M TOR 25 3 2 7 18
M TOR 26 3 4 5 6
M TOR 27 3 4 6 7
M TOR 28 3 4 6 16
M TOR 29 4 3 2 7
M TOR 30 4 3 2 8
M TOR 31 4 5 6 7
M TOR 32 4 5 6 16
M TOR 33 4 6 7 17
M TOR 34 4 6 7 18
M TOR 35 5 4 3 13
M TOR 36 5 4 3 14
M TOR 37 5 6 4 15
M TOR 38 5 6 7 17
M TOR 39 5 6 7 18
M TOR 40 6 4 3 13
M TOR 41 6 4 3 14
M TOR 42 6 7 2 8
M TOR 43 7 2 1 11
M TOR 44 7 2 1 12
M TOR 45 7 2 3 13
M TOR 46 7 2 3 14
M TOR 47 7 6 4 15
M TOR 48 8 0 1 11
M TOR 49 8 0 1 12
M TOR 50 8 2 1 11
M TOR 51 8 2 1 12
M TOR 52 8 2 3 13
M TOR 53 8 2 3 14
M TOR 54 8 2 7 17
M TOR 55 8 2 7 18
M  END
$$$$
