gdb 3449	2.1049197	1.7385042	1.3531048	2.9271	77.36	-0.24336	-0.05449	0.18886999999999998	1055.9254	0.155854	-422.60264	-422.593528	-422.592584	-422.636048	34.414
 OpenBabel02181911413D

 19 19  0  0  1  0  0  0  0  0999 V2000
   -3.1379   -1.0480    1.3750 C   0  0  0  0  0  0  0  0  0  0  0  0
   -2.4088   -0.7611    0.0515 C   0  0  1  0  0  0  0  0  0  0  0  0
   -2.1583    0.7191   -0.1375 C   0  0  0  0  0  0  0  0  0  0  0  0
   -0.8654    1.0683   -0.0732 C   0  0  0  0  0  0  0  0  0  0  0  0
   -0.0574   -0.1393    0.1610 C   0  0  0  0  0  0  0  0  0  0  0  0
    1.1049   -0.2366    0.4923 O   0  0  0  0  0  0  0  0  0  0  0  0
   -0.9779   -1.3647   -0.0306 C   0  0  2  0  0  0  0  0  0  0  0  0
   -0.7029   -1.9859   -1.4099 C   0  0  0  0  0  0  0  0  0  0  0  0
   -0.7212   -2.3094    0.9894 O   0  0  0  0  0  0  0  0  0  0  0  0
   -3.2953   -2.1215    1.4970 H   0  0  0  0  0  0  0  0  0  0  0  0
   -2.5523   -0.6973    2.2283 H   0  0  0  0  0  0  0  0  0  0  0  0
   -4.1111   -0.5466    1.3913 H   0  0  0  0  0  0  0  0  0  0  0  0
   -3.0343   -1.1370   -0.7685 H   0  0  0  0  0  0  0  0  0  0  0  0
   -2.9817    1.4146   -0.2707 H   0  0  0  0  0  0  0  0  0  0  0  0
   -0.4511    2.0669   -0.1241 H   0  0  0  0  0  0  0  0  0  0  0  0
   -1.3105   -2.8877   -1.5275 H   0  0  0  0  0  0  0  0  0  0  0  0
   -0.9403   -1.2906   -2.2218 H   0  0  0  0  0  0  0  0  0  0  0  0
    0.3525   -2.2633   -1.4887 H   0  0  0  0  0  0  0  0  0  0  0  0
    0.2159   -2.2034    1.2092 H   0  0  0  0  0  0  0  0  0  0  0  0
  1 12  1  0  0  0  0
  1 10  1  0  0  0  0
  1 11  1  0  0  0  0
  2 13  1  6  0  0  0
  2  1  1  0  0  0  0
  3  4  2  0  0  0  0
  3  2  1  0  0  0  0
  4  5  1  0  0  0  0
  5  6  2  0  0  0  0
  7  2  1  0  0  0  0
  7  5  1  0  0  0  0
  7  9  1  1  0  0  0
  8  7  1  0  0  0  0
  9 19  1  0  0  0  0
 14  3  1  0  0  0  0
 15  4  1  0  0  0  0
 16  8  1  0  0  0  0
 17  8  1  0  0  0  0
 18  8  1  0  0  0  0
M TOR 0 0 1 2 3
M TOR 1 0 1 2 13
M TOR 2 0 1 6 4
M TOR 3 0 1 6 7
M TOR 4 0 1 6 8
M TOR 5 1 2 3 4
M TOR 6 1 2 3 14
M TOR 7 1 6 4 3
M TOR 8 1 6 4 5
M TOR 9 1 6 7 15
M TOR 10 1 6 7 16
M TOR 11 1 6 7 17
M TOR 12 1 6 8 18
M TOR 13 2 1 0 9
M TOR 14 2 1 0 10
M TOR 15 2 1 0 11
M TOR 16 2 1 6 4
M TOR 17 2 1 6 7
M TOR 18 2 1 6 8
M TOR 19 2 3 4 5
M TOR 20 2 3 4 6
M TOR 21 3 2 1 6
M TOR 22 3 2 1 12
M TOR 23 3 4 6 7
M TOR 24 3 4 6 8
M TOR 25 4 3 2 13
M TOR 26 4 6 1 12
M TOR 27 4 6 7 15
M TOR 28 4 6 7 16
M TOR 29 4 6 7 17
M TOR 30 4 6 8 18
M TOR 31 5 4 3 14
M TOR 32 5 4 6 7
M TOR 33 5 4 6 8
M TOR 34 6 1 0 9
M TOR 35 6 1 0 10
M TOR 36 6 1 0 11
M TOR 37 6 1 2 13
M TOR 38 6 4 3 14
M TOR 39 7 6 1 12
M TOR 40 7 6 8 18
M TOR 41 8 6 1 12
M TOR 42 8 6 7 15
M TOR 43 8 6 7 16
M TOR 44 8 6 7 17
M  END
$$$$
