gdb 4276	2.7453755	1.448842	1.0418365	1.1674	78.9	-0.23507	0.00537	0.24044	1161.0757	0.156805	-422.52809	-422.519506	-422.518562	-422.561228	32.322
 OpenBabel02181911413D

 19 20  0  0  1  0  0  0  0  0999 V2000
   -0.0309    1.5046   -0.0103 C   0  0  0  0  0  0  0  0  0  0  0  0
   -0.0314    0.0169   -0.1435 C   0  0  2  0  0  3  0  0  0  0  0  0
   -1.0443   -0.8422   -0.2079 C   0  0  2  0  0  3  0  0  0  0  0  0
   -2.3786   -1.2184    0.3853 C   0  0  0  0  0  0  0  0  0  0  0  0
   -1.7866   -2.4922    0.7975 O   0  0  0  0  0  0  0  0  0  0  0  0
   -0.6449   -2.2738   -0.1055 C   0  0  2  0  0  0  0  0  0  0  0  0
    0.8052   -2.2110    0.3878 C   0  0  0  0  0  0  0  0  0  0  0  0
    1.2766   -0.8080   -0.1254 C   0  0  2  0  0  0  0  0  0  0  0  0
    2.2991   -0.2262    0.6639 O   0  0  0  0  0  0  0  0  0  0  0  0
    0.6644    1.8312    0.7692 H   0  0  0  0  0  0  0  0  0  0  0  0
    0.3069    1.9805   -0.9404 H   0  0  0  0  0  0  0  0  0  0  0  0
   -1.0290    1.8888    0.2168 H   0  0  0  0  0  0  0  0  0  0  0  0
   -2.7378   -0.6224    1.2315 H   0  0  0  0  0  0  0  0  0  0  0  0
   -3.2014   -1.3818   -0.3233 H   0  0  0  0  0  0  0  0  0  0  0  0
   -0.7677   -2.9063   -0.9947 H   0  0  0  0  0  0  0  0  0  0  0  0
    0.8049   -2.1931    1.4843 H   0  0  0  0  0  0  0  0  0  0  0  0
    1.4478   -3.0300    0.0549 H   0  0  0  0  0  0  0  0  0  0  0  0
    1.7261   -0.8865   -1.1236 H   0  0  0  0  0  0  0  0  0  0  0  0
    1.9913   -0.2124    1.5774 H   0  0  0  0  0  0  0  0  0  0  0  0
  1 12  1  0  0  0  0
  1 10  1  0  0  0  0
  2  8  1  0  0  0  0
  2  1  1  1  0  0  0
  3  2  1  0  0  0  0
  3  6  1  0  0  0  0
  3  4  1  1  0  0  0
  4  5  1  0  0  0  0
  4 13  1  0  0  0  0
  6 15  1  6  0  0  0
  6  7  1  0  0  0  0
  6  5  1  0  0  0  0
  7 16  1  0  0  0  0
  8 18  1  6  0  0  0
  8  7  1  0  0  0  0
  8  9  1  0  0  0  0
  9 19  1  0  0  0  0
 11  1  1  0  0  0  0
 14  4  1  0  0  0  0
 17  7  1  0  0  0  0
M TOR 0 0 1 2 3
M TOR 1 0 1 2 5
M TOR 2 0 1 7 6
M TOR 3 0 1 7 8
M TOR 4 0 1 7 17
M TOR 5 1 2 3 4
M TOR 6 1 2 3 12
M TOR 7 1 2 3 13
M TOR 8 1 2 5 4
M TOR 9 1 2 5 6
M TOR 10 1 2 5 14
M TOR 11 1 7 6 5
M TOR 12 1 7 6 15
M TOR 13 1 7 6 16
M TOR 14 1 7 8 18
M TOR 15 2 1 0 9
M TOR 16 2 1 0 10
M TOR 17 2 1 0 11
M TOR 18 2 1 7 6
M TOR 19 2 1 7 8
M TOR 20 2 1 7 17
M TOR 21 2 3 4 5
M TOR 22 2 5 6 7
M TOR 23 2 5 6 15
M TOR 24 2 5 6 16
M TOR 25 3 2 1 7
M TOR 26 3 2 5 6
M TOR 27 3 2 5 14
M TOR 28 3 4 5 6
M TOR 29 3 4 5 14
M TOR 30 4 5 6 7
M TOR 31 4 5 6 15
M TOR 32 4 5 6 16
M TOR 33 5 2 1 7
M TOR 34 5 2 3 12
M TOR 35 5 2 3 13
M TOR 36 5 4 3 12
M TOR 37 5 4 3 13
M TOR 38 5 6 7 8
M TOR 39 5 6 7 17
M TOR 40 6 7 8 18
M TOR 41 7 1 0 9
M TOR 42 7 1 0 10
M TOR 43 7 1 0 11
M TOR 44 7 6 5 14
M TOR 45 8 7 6 15
M TOR 46 8 7 6 16
M  END
$$$$
