gdb 5541	3.4222505	1.226207	1.1237661	2.8483	75.28	-0.23652	0.00439	0.24091	1148.0247	0.158294	-422.542503	-422.5346	-422.533656	-422.57484	30.76
 OpenBabel02181911423D

 19 20  0  0  1  0  0  0  0  0999 V2000
    1.3103    0.7952   -0.0169 O   0  0  0  0  0  0  0  0  0  0  0  0
    0.3292   -0.0460    0.5737 C   0  0  0  0  0  0  0  0  0  0  0  0
   -0.9284    0.7139    0.9674 C   0  0  2  0  0  0  0  0  0  0  0  0
   -2.1698   -0.1900    1.1701 C   0  0  1  0  0  0  0  0  0  0  0  0
   -3.2978    0.5307    1.9250 C   0  0  0  0  0  0  0  0  0  0  0  0
   -3.5161    1.8926    1.2952 C   0  0  0  0  0  0  0  0  0  0  0  0
   -2.7778    2.2356    0.2393 C   0  0  0  0  0  0  0  0  0  0  0  0
   -1.7777    1.2024   -0.2355 C   0  0  2  0  0  0  0  0  0  0  0  0
   -2.4424   -0.1038   -0.2580 O   0  0  0  0  0  0  0  0  0  0  0  0
    1.5878    1.4356    0.6461 H   0  0  0  0  0  0  0  0  0  0  0  0
    0.0803   -0.7944   -0.1842 H   0  0  0  0  0  0  0  0  0  0  0  0
    0.7337   -0.5800    1.4492 H   0  0  0  0  0  0  0  0  0  0  0  0
   -0.7183    1.4566    1.7449 H   0  0  0  0  0  0  0  0  0  0  0  0
   -2.0207   -1.2225    1.5026 H   0  0  0  0  0  0  0  0  0  0  0  0
   -4.2176   -0.0668    1.8751 H   0  0  0  0  0  0  0  0  0  0  0  0
   -3.0471    0.6258    2.9905 H   0  0  0  0  0  0  0  0  0  0  0  0
   -4.2773    2.5455    1.7118 H   0  0  0  0  0  0  0  0  0  0  0  0
   -2.8653    3.1932   -0.2625 H   0  0  0  0  0  0  0  0  0  0  0  0
   -1.2775    1.4331   -1.1772 H   0  0  0  0  0  0  0  0  0  0  0  0
  1  2  1  0  0  0  0
  1 10  1  0  0  0  0
  2  3  1  0  0  0  0
  2 12  1  0  0  0  0
  3  4  1  0  0  0  0
  3 13  1  1  0  0  0
  4 14  1  1  0  0  0
  4  5  1  0  0  0  0
  5 16  1  0  0  0  0
  6 17  1  0  0  0  0
  6  5  1  0  0  0  0
  7  6  2  0  0  0  0
  8 19  1  6  0  0  0
  8  7  1  0  0  0  0
  8  3  1  0  0  0  0
  9  8  1  0  0  0  0
  9  4  1  0  0  0  0
 11  2  1  0  0  0  0
 15  5  1  0  0  0  0
 18  7  1  0  0  0  0
M TOR 0 0 1 2 3
M TOR 1 0 1 2 7
M TOR 2 0 1 2 12
M TOR 3 1 2 3 4
M TOR 4 1 2 3 8
M TOR 5 1 2 3 13
M TOR 6 1 2 7 6
M TOR 7 1 2 7 8
M TOR 8 1 2 7 18
M TOR 9 2 1 0 9
M TOR 10 2 3 4 5
M TOR 11 2 3 4 14
M TOR 12 2 3 4 15
M TOR 13 2 3 8 7
M TOR 14 2 7 6 5
M TOR 15 2 7 6 17
M TOR 16 3 2 1 10
M TOR 17 3 2 1 11
M TOR 18 3 2 7 6
M TOR 19 3 2 7 18
M TOR 20 3 4 5 6
M TOR 21 3 4 5 16
M TOR 22 3 8 7 6
M TOR 23 3 8 7 18
M TOR 24 4 3 2 7
M TOR 25 4 3 2 12
M TOR 26 4 3 8 7
M TOR 27 4 5 6 7
M TOR 28 4 5 6 17
M TOR 29 5 4 3 8
M TOR 30 5 4 3 13
M TOR 31 5 6 7 8
M TOR 32 5 6 7 18
M TOR 33 6 5 4 14
M TOR 34 6 5 4 15
M TOR 35 6 7 2 12
M TOR 36 7 2 1 10
M TOR 37 7 2 1 11
M TOR 38 7 2 3 13
M TOR 39 7 6 5 16
M TOR 40 7 8 3 13
M TOR 41 8 3 2 12
M TOR 42 8 3 4 14
M TOR 43 8 3 4 15
M TOR 44 8 7 2 12
M TOR 45 8 7 6 17
M  END
$$$$
