
     RDKit          3D

 19 19  0  0  0  0  0  0  0  0999 V2000
    1.4863    0.2826   -0.0473 C   0  0  0  0  0  0  0  0  0  0  0  0
    0.0859    0.4268   -0.0374 O   0  0  0  0  0  0  0  0  0  0  0  0
   -0.4575    0.3473    1.2690 C   0  0  0  0  0  0  0  0  0  0  0  0
   -1.9428    0.5360    1.2284 C   0  0  0  0  0  0  0  0  0  0  0  0
   -2.6558    1.4477    0.5024 C   0  0  0  0  0  0  0  0  0  0  0  0
   -2.2814    2.5049   -0.4735 C   0  0  0  0  0  0  0  0  0  0  0  0
   -3.9877    1.3074    0.7686 O   0  0  0  0  0  0  0  0  0  0  0  0
   -4.1217    0.3038    1.6761 C   0  0  0  0  0  0  0  0  0  0  0  0
   -2.9070   -0.2074    1.9923 C   0  0  0  0  0  0  0  0  0  0  0  0
    1.7978   -0.6952    0.3534 H   0  0  0  0  0  0  0  0  0  0  0  0
    1.8155    0.3592   -1.0862 H   0  0  0  0  0  0  0  0  0  0  0  0
    1.9847    1.0675    0.5442 H   0  0  0  0  0  0  0  0  0  0  0  0
   -0.2236   -0.6321    1.7188 H   0  0  0  0  0  0  0  0  0  0  0  0
    0.0218    1.1072    1.9124 H   0  0  0  0  0  0  0  0  0  0  0  0
   -2.4930    3.5079   -0.0834 H   0  0  0  0  0  0  0  0  0  0  0  0
   -1.2178    2.4261   -0.6982 H   0  0  0  0  0  0  0  0  0  0  0  0
   -2.8425    2.3938   -1.4080 H   0  0  0  0  0  0  0  0  0  0  0  0
   -5.1298    0.0776    1.9813 H   0  0  0  0  0  0  0  0  0  0  0  0
   -2.7054   -1.0166    2.6778 H   0  0  0  0  0  0  0  0  0  0  0  0
  1  2  1  0
  2  3  1  0
  3  4  1  0
  4  5  2  0
  5  6  1  0
  5  7  1  0
  7  8  1  0
  8  9  2  0
  9  4  1  0
  1 10  1  0
  1 11  1  0
  1 12  1  0
  3 13  1  0
  3 14  1  0
  6 15  1  0
  6 16  1  0
  6 17  1  0
  8 18  1  0
  9 19  1  0
M  END
$$$$
