gdb 3437	2.5239583	1.6667081	1.2478133	2.493	76.36	-0.23994	0.00344	0.24337999999999999	1064.2284	0.158092	-422.552909	-422.544949	-422.544005	-422.585031	31.298
 OpenBabel02181911413D

 19 20  0  0  1  0  0  0  0  0999 V2000
    1.2957    0.6227   -0.1897 C   0  0  0  0  0  0  0  0  0  0  0  0
   -0.1087    0.1170   -0.0673 C   0  0  0  0  0  0  0  0  0  0  0  0
   -1.2063    0.8729    0.0358 C   0  0  0  0  0  0  0  0  0  0  0  0
   -2.5656    0.2037    0.1244 C   0  0  1  0  0  0  0  0  0  0  0  0
   -3.3594    0.5027   -1.0188 O   0  0  0  0  0  0  0  0  0  0  0  0
   -2.3632   -1.3156    0.2288 C   0  0  2  0  0  0  0  0  0  0  0  0
   -1.2400   -1.7192    1.2039 C   0  0  0  0  0  0  0  0  0  0  0  0
   -0.3671   -1.3813   -0.0303 C   0  0  1  0  0  0  0  0  0  0  0  0
   -1.5081   -1.6894   -0.8963 O   0  0  0  0  0  0  0  0  0  0  0  0
    1.9255    0.2546    0.6308 H   0  0  0  0  0  0  0  0  0  0  0  0
    1.7616    0.2720   -1.1196 H   0  0  0  0  0  0  0  0  0  0  0  0
    1.3310    1.7152   -0.1791 H   0  0  0  0  0  0  0  0  0  0  0  0
   -1.1751    1.9582   -0.0017 H   0  0  0  0  0  0  0  0  0  0  0  0
   -3.1359    0.5750    0.9844 H   0  0  0  0  0  0  0  0  0  0  0  0
   -2.8841    0.1091   -1.7626 H   0  0  0  0  0  0  0  0  0  0  0  0
   -3.3135   -1.8548    0.2276 H   0  0  0  0  0  0  0  0  0  0  0  0
   -1.0904   -1.1347    2.1130 H   0  0  0  0  0  0  0  0  0  0  0  0
   -1.2632   -2.7884    1.4237 H   0  0  0  0  0  0  0  0  0  0  0  0
    0.5062   -1.9932   -0.2678 H   0  0  0  0  0  0  0  0  0  0  0  0
  1 12  1  0  0  0  0
  1  2  1  0  0  0  0
  1 10  1  0  0  0  0
  2  8  1  0  0  0  0
  2  3  2  0  0  0  0
  3  4  1  0  0  0  0
  4  6  1  0  0  0  0
  4 14  1  1  0  0  0
  5  4  1  0  0  0  0
  6 16  1  1  0  0  0
  6  7  1  0  0  0  0
  7 18  1  0  0  0  0
  7 17  1  0  0  0  0
  8 19  1  6  0  0  0
  8  7  1  0  0  0  0
  9  8  1  0  0  0  0
  9  6  1  0  0  0  0
 11  1  1  0  0  0  0
 13  3  1  0  0  0  0
 15  5  1  0  0  0  0
M TOR 0 0 1 2 3
M TOR 1 0 1 2 12
M TOR 2 0 1 7 6
M TOR 3 0 1 7 8
M TOR 4 0 1 7 18
M TOR 5 1 2 3 4
M TOR 6 1 2 3 5
M TOR 7 1 2 3 13
M TOR 8 1 7 6 5
M TOR 9 1 7 6 16
M TOR 10 1 7 6 17
M TOR 11 1 7 8 5
M TOR 12 2 1 0 9
M TOR 13 2 1 0 10
M TOR 14 2 1 0 11
M TOR 15 2 1 7 6
M TOR 16 2 1 7 8
M TOR 17 2 1 7 18
M TOR 18 2 3 4 14
M TOR 19 2 3 5 6
M TOR 20 2 3 5 8
M TOR 21 2 3 5 15
M TOR 22 3 2 1 7
M TOR 23 3 5 6 7
M TOR 24 3 5 6 16
M TOR 25 3 5 6 17
M TOR 26 3 5 8 7
M TOR 27 4 3 2 12
M TOR 28 4 3 5 6
M TOR 29 4 3 5 8
M TOR 30 4 3 5 15
M TOR 31 5 3 2 12
M TOR 32 5 3 4 14
M TOR 33 5 6 7 8
M TOR 34 5 6 7 18
M TOR 35 5 8 7 18
M TOR 36 6 5 3 13
M TOR 37 7 1 0 9
M TOR 38 7 1 0 10
M TOR 39 7 1 0 11
M TOR 40 7 1 2 12
M TOR 41 7 6 5 15
M TOR 42 7 8 5 15
M TOR 43 8 5 3 13
M TOR 44 8 5 6 16
M TOR 45 8 5 6 17
M TOR 46 8 7 6 16
M TOR 47 8 7 6 17
M  END
$$$$
