
     RDKit          3D

 19 21  0  0  0  0  0  0  0  0999 V2000
   -0.3106   -0.6163   -0.0527 C   0  0  0  0  0  0  0  0  0  0  0  0
    1.0644   -1.2744   -0.1030 C   0  0  0  0  0  0  0  0  0  0  0  0
    1.9748   -0.9684    1.0804 C   0  0  0  0  0  0  0  0  0  0  0  0
    2.7283    0.2886    0.6523 C   0  0  0  0  0  0  0  0  0  0  0  0
    2.2942    0.6404   -0.6455 O   0  0  0  0  0  0  0  0  0  0  0  0
    2.0499   -0.6768   -1.1533 C   0  0  0  0  0  0  0  0  0  0  0  0
    1.7243   -0.6741   -2.6176 C   0  0  0  0  0  0  0  0  0  0  0  0
    3.2650   -1.3805   -0.8709 O   0  0  0  0  0  0  0  0  0  0  0  0
    3.3791   -1.0624    0.5016 C   0  0  0  0  0  0  0  0  0  0  0  0
   -0.8881   -0.9855    0.8007 H   0  0  0  0  0  0  0  0  0  0  0  0
   -0.2162    0.4686    0.0426 H   0  0  0  0  0  0  0  0  0  0  0  0
   -0.8881   -0.8331   -0.9577 H   0  0  0  0  0  0  0  0  0  0  0  0
    0.9823   -2.3530   -0.2704 H   0  0  0  0  0  0  0  0  0  0  0  0
    1.7323   -1.1990    2.1086 H   0  0  0  0  0  0  0  0  0  0  0  0
    3.0460    1.1095    1.2778 H   0  0  0  0  0  0  0  0  0  0  0  0
    1.5834   -1.6987   -2.9698 H   0  0  0  0  0  0  0  0  0  0  0  0
    0.8087   -0.1074   -2.8002 H   0  0  0  0  0  0  0  0  0  0  0  0
    2.5419   -0.2158   -3.1780 H   0  0  0  0  0  0  0  0  0  0  0  0
    4.2693   -1.4263    0.9929 H   0  0  0  0  0  0  0  0  0  0  0  0
  1  2  1  0
  2  3  1  0
  3  4  1  0
  4  5  1  0
  5  6  1  0
  6  7  1  0
  6  8  1  0
  8  9  1  0
  6  2  1  0
  9  3  1  0
  9  4  1  0
  1 10  1  0
  1 11  1  0
  1 12  1  0
  2 13  1  0
  3 14  1  0
  4 15  1  0
  7 16  1  0
  7 17  1  0
  7 18  1  0
  9 19  1  0
M  END
$$$$
