
     RDKit          3D

 19 21  0  0  0  0  0  0  0  0999 V2000
    0.3896    0.8334   -0.0209 C   0  0  0  0  0  0  0  0  0  0  0  0
    1.0137   -0.5421    0.1043 C   0  0  0  0  0  0  0  0  0  0  0  0
    1.6661   -0.8911   -1.1340 O   0  0  0  0  0  0  0  0  0  0  0  0
    2.6831   -1.8144   -0.8383 C   0  0  0  0  0  0  0  0  0  0  0  0
    3.9649   -1.2747   -0.2359 C   0  0  0  0  0  0  0  0  0  0  0  0
    3.9923    0.2081    0.1014 C   0  0  0  0  0  0  0  0  0  0  0  0
    3.0241    0.4130    1.1351 O   0  0  0  0  0  0  0  0  0  0  0  0
    2.1273   -0.6932    1.1624 C   0  0  0  0  0  0  0  0  0  0  0  0
    2.9080   -1.9089    0.6404 C   0  0  0  0  0  0  0  0  0  0  0  0
   -0.1904    1.0661    0.8779 H   0  0  0  0  0  0  0  0  0  0  0  0
    1.1626    1.5950   -0.1389 H   0  0  0  0  0  0  0  0  0  0  0  0
   -0.2830    0.8677   -0.8821 H   0  0  0  0  0  0  0  0  0  0  0  0
    0.2367   -1.2961    0.3154 H   0  0  0  0  0  0  0  0  0  0  0  0
    2.7116   -2.6722   -1.5018 H   0  0  0  0  0  0  0  0  0  0  0  0
    4.8960   -1.7875   -0.4478 H   0  0  0  0  0  0  0  0  0  0  0  0
    4.9710    0.5154    0.4854 H   0  0  0  0  0  0  0  0  0  0  0  0
    3.7467    0.8253   -0.7726 H   0  0  0  0  0  0  0  0  0  0  0  0
    1.7393   -0.7917    2.1788 H   0  0  0  0  0  0  0  0  0  0  0  0
    3.0317   -2.8200    1.2099 H   0  0  0  0  0  0  0  0  0  0  0  0
  1  2  1  0
  2  3  1  0
  3  4  1  0
  4  5  1  0
  5  6  1  0
  6  7  1  0
  7  8  1  0
  8  9  1  0
  8  2  1  0
  9  4  1  0
  9  5  1  0
  1 10  1  0
  1 11  1  0
  1 12  1  0
  2 13  1  0
  4 14  1  0
  5 15  1  0
  6 16  1  0
  6 17  1  0
  8 18  1  0
  9 19  1  0
M  END
$$$$
