
     RDKit          3D

 19 18  0  0  0  0  0  0  0  0999 V2000
    2.4577    2.3093   -1.0300 C   0  0  0  0  0  0  0  0  0  0  0  0
    3.0001    1.4719    0.1289 C   0  0  0  0  0  0  0  0  0  0  0  0
    2.5270   -0.0017    0.0984 C   0  0  0  0  0  0  0  0  0  0  0  0
    3.2168   -0.7965    1.2116 C   0  0  0  0  0  0  0  0  0  0  0  0
    2.8837   -2.1863    1.0390 O   0  0  0  0  0  0  0  0  0  0  0  0
    3.3230   -3.0134    1.9959 C   0  0  0  0  0  0  0  0  0  0  0  0
    3.9670   -2.6993    2.9589 O   0  0  0  0  0  0  0  0  0  0  0  0
    1.0722   -0.1070    0.2015 C   0  0  0  0  0  0  0  0  0  0  0  0
   -0.1234   -0.1698    0.3073 C   0  0  0  0  0  0  0  0  0  0  0  0
    2.7804    1.9046   -1.9956 H   0  0  0  0  0  0  0  0  0  0  0  0
    1.3643    2.3274   -1.0226 H   0  0  0  0  0  0  0  0  0  0  0  0
    2.8163    3.3405   -0.9636 H   0  0  0  0  0  0  0  0  0  0  0  0
    4.0966    1.4755    0.1080 H   0  0  0  0  0  0  0  0  0  0  0  0
    2.7004    1.9180    1.0844 H   0  0  0  0  0  0  0  0  0  0  0  0
    2.8398   -0.4424   -0.8585 H   0  0  0  0  0  0  0  0  0  0  0  0
    4.3036   -0.6802    1.1518 H   0  0  0  0  0  0  0  0  0  0  0  0
    2.8910   -0.4656    2.2015 H   0  0  0  0  0  0  0  0  0  0  0  0
    2.9968   -4.0367    1.7547 H   0  0  0  0  0  0  0  0  0  0  0  0
   -1.1798   -0.2385    0.3917 H   0  0  0  0  0  0  0  0  0  0  0  0
  1  2  1  0
  2  3  1  0
  3  4  1  0
  4  5  1  0
  5  6  1  0
  6  7  2  0
  3  8  1  0
  8  9  3  0
  1 10  1  0
  1 11  1  0
  1 12  1  0
  2 13  1  0
  2 14  1  0
  3 15  1  0
  4 16  1  0
  4 17  1  0
  6 18  1  0
  9 19  1  0
M  END
$$$$
