
     RDKit          3D

 19 20  0  0  0  0  0  0  0  0999 V2000
    0.6082    0.2417   -0.6886 O   0  0  0  0  0  0  0  0  0  0  0  0
    0.1203   -0.2197    0.3189 C   0  0  0  0  0  0  0  0  0  0  0  0
   -1.0520    0.3475    1.0192 C   0  0  0  0  0  0  0  0  0  0  0  0
   -1.3117    1.8465    0.9009 C   0  0  0  0  0  0  0  0  0  0  0  0
   -2.2266    0.9134    0.2005 C   0  0  0  0  0  0  0  0  0  0  0  0
   -2.3085    0.7799   -1.3247 C   0  0  0  0  0  0  0  0  0  0  0  0
   -3.8279    0.7021   -1.5571 C   0  0  0  0  0  0  0  0  0  0  0  0
   -4.3582    0.1027   -0.3809 O   0  0  0  0  0  0  0  0  0  0  0  0
   -3.6607    0.6885    0.7015 C   0  0  0  0  0  0  0  0  0  0  0  0
    0.5423   -1.1389    0.7821 H   0  0  0  0  0  0  0  0  0  0  0  0
   -1.3112   -0.1357    1.9563 H   0  0  0  0  0  0  0  0  0  0  0  0
   -1.6613    2.3550    1.7942 H   0  0  0  0  0  0  0  0  0  0  0  0
   -0.5881    2.3918    0.3039 H   0  0  0  0  0  0  0  0  0  0  0  0
   -1.8430    1.6182   -1.8465 H   0  0  0  0  0  0  0  0  0  0  0  0
   -1.8188   -0.1328   -1.6702 H   0  0  0  0  0  0  0  0  0  0  0  0
   -4.2539    1.7089   -1.7004 H   0  0  0  0  0  0  0  0  0  0  0  0
   -4.1139    0.0812   -2.4089 H   0  0  0  0  0  0  0  0  0  0  0  0
   -4.1154    1.6548    0.9813 H   0  0  0  0  0  0  0  0  0  0  0  0
   -3.7307    0.0140    1.5596 H   0  0  0  0  0  0  0  0  0  0  0  0
  1  2  2  0
  2  3  1  0
  3  4  1  0
  4  5  1  0
  5  6  1  0
  6  7  1  0
  7  8  1  0
  8  9  1  0
  5  3  1  0
  9  5  1  0
  2 10  1  0
  3 11  1  0
  4 12  1  0
  4 13  1  0
  6 14  1  0
  6 15  1  0
  7 16  1  0
  7 17  1  0
  9 18  1  0
  9 19  1  0
M  END
$$$$
