gdb 2422	3.3621197	1.5539725	1.3569441	2.156	74.58	-0.21116	0.0812	0.29235999999999995	1020.5708	0.155975	-422.523709	-422.51564	-422.514696	-422.555584	31.784
 OpenBabel02181911413D

 19 21  0  0  1  0  0  0  0  0999 V2000
    5.2239   -0.4485   -0.6350 C   0  0  0  0  0  0  0  0  0  0  0  0
    3.8058   -0.2124   -0.2100 C   0  0  2  0  0  0  0  0  0  0  0  0
    3.6018    1.0374    0.4214 O   0  0  0  0  0  0  0  0  0  0  0  0
    2.2260    1.3902    0.2602 C   0  0  0  0  0  0  0  0  0  0  0  0
    1.5419    0.0876   -0.1454 C   0  0  2  0  0  0  0  0  0  0  0  0
    0.0925    0.1314   -0.5468 C   0  0  0  0  0  0  0  0  0  0  0  0
    1.7938   -0.8463    0.9676 O   0  0  0  0  0  0  0  0  0  0  0  0
    2.9206   -1.3568    0.2623 C   0  0  1  0  0  0  0  0  0  0  0  0
    2.6082   -0.6227   -1.0211 C   0  0  2  0  0  0  0  0  0  0  0  0
    5.8974   -0.3610    0.2231 H   0  0  0  0  0  0  0  0  0  0  0  0
    5.3380   -1.4509   -1.0584 H   0  0  0  0  0  0  0  0  0  0  0  0
    5.5331    0.2828   -1.3886 H   0  0  0  0  0  0  0  0  0  0  0  0
    1.8411    1.7662    1.2133 H   0  0  0  0  0  0  0  0  0  0  0  0
    2.1135    2.1687   -0.5109 H   0  0  0  0  0  0  0  0  0  0  0  0
   -0.5192    0.5137    0.2768 H   0  0  0  0  0  0  0  0  0  0  0  0
   -0.0491    0.7841   -1.4145 H   0  0  0  0  0  0  0  0  0  0  0  0
   -0.2634   -0.8703   -0.7998 H   0  0  0  0  0  0  0  0  0  0  0  0
    3.2429   -2.3716    0.4715 H   0  0  0  0  0  0  0  0  0  0  0  0
    2.5494   -0.9063   -2.0643 H   0  0  0  0  0  0  0  0  0  0  0  0
  1 10  1  0  0  0  0
  2  1  1  6  0  0  0
  2  8  1  0  0  0  0
  2  3  1  0  0  0  0
  4  3  1  0  0  0  0
  4 13  1  0  0  0  0
  5  6  1  6  0  0  0
  5  4  1  0  0  0  0
  5  7  1  0  0  0  0
  6 15  1  0  0  0  0
  8 18  1  1  0  0  0
  8  7  1  0  0  0  0
  9 19  1  6  0  0  0
  9  2  1  0  0  0  0
  9  5  1  0  0  0  0
  9  8  1  0  0  0  0
 11  1  1  0  0  0  0
 12  1  1  0  0  0  0
 14  4  1  0  0  0  0
 16  6  1  0  0  0  0
 17  6  1  0  0  0  0
M TOR 0 0 1 2 3
M TOR 1 0 1 7 6
M TOR 2 0 1 7 8
M TOR 3 0 1 7 17
M TOR 4 0 1 8 4
M TOR 5 0 1 8 18
M TOR 6 1 2 3 4
M TOR 7 1 2 3 12
M TOR 8 1 2 3 13
M TOR 9 1 7 6 4
M TOR 10 1 7 8 4
M TOR 11 1 7 8 18
M TOR 12 1 8 4 3
M TOR 13 1 8 4 5
M TOR 14 1 8 4 6
M TOR 15 1 8 7 6
M TOR 16 1 8 7 17
M TOR 17 2 1 0 9
M TOR 18 2 1 0 10
M TOR 19 2 1 0 11
M TOR 20 2 1 7 6
M TOR 21 2 1 7 8
M TOR 22 2 1 7 17
M TOR 23 2 1 8 4
M TOR 24 2 1 8 18
M TOR 25 2 3 4 5
M TOR 26 2 3 4 6
M TOR 27 2 3 4 8
M TOR 28 3 2 1 7
M TOR 29 3 2 1 8
M TOR 30 3 4 5 14
M TOR 31 3 4 5 15
M TOR 32 3 4 5 16
M TOR 33 3 4 6 7
M TOR 34 3 4 8 7
M TOR 35 3 4 8 18
M TOR 36 4 6 7 8
M TOR 37 4 6 7 17
M TOR 38 4 8 7 17
M TOR 39 5 4 3 12
M TOR 40 5 4 3 13
M TOR 41 5 4 6 7
M TOR 42 5 4 8 7
M TOR 43 5 4 8 18
M TOR 44 6 4 3 12
M TOR 45 6 4 3 13
M TOR 46 6 4 5 14
M TOR 47 6 4 5 15
M TOR 48 6 4 5 16
M TOR 49 6 4 8 18
M TOR 50 6 7 8 18
M TOR 51 7 1 0 9
M TOR 52 7 1 0 10
M TOR 53 7 1 0 11
M TOR 54 8 1 0 9
M TOR 55 8 1 0 10
M TOR 56 8 1 0 11
M TOR 57 8 4 3 12
M TOR 58 8 4 3 13
M TOR 59 8 4 5 14
M TOR 60 8 4 5 15
M TOR 61 8 4 5 16
M  END
$$$$
