gdb 4095	2.7734664	1.5908205	1.2885361	2.4891	75.68	-0.24004	0.00793	0.24797	1047.3796	0.156535	-422.558356	-422.549927	-422.548982	-422.591115	32.355
 OpenBabel02181911413D

 19 20  0  0  1  0  0  0  0  0999 V2000
    0.2166   -0.4208   -0.3255 C   0  0  0  0  0  0  0  0  0  0  0  0
    0.8675    0.7055    0.4488 C   0  0  2  0  0  0  0  0  0  0  0  0
    2.2184    0.9798   -0.0065 O   0  0  0  0  0  0  0  0  0  0  0  0
    2.7540    0.8446    1.3350 C   0  0  1  0  0  0  0  0  0  0  0  0
    3.0490    2.1525    2.0114 C   0  0  0  0  0  0  0  0  0  0  0  0
    2.0926    2.4852    2.8813 C   0  0  0  0  0  0  0  0  0  0  0  0
    0.9871    1.4602    2.9755 C   0  0  0  0  0  0  0  0  0  0  0  0
    1.3628    0.4232    1.8944 C   0  0  1  0  0  0  0  0  0  0  0  0
    1.1530   -0.9168    2.2605 O   0  0  0  0  0  0  0  0  0  0  0  0
   -0.7984   -0.6041    0.0416 H   0  0  0  0  0  0  0  0  0  0  0  0
    0.1568   -0.1471   -1.3836 H   0  0  0  0  0  0  0  0  0  0  0  0
    0.7925   -1.3426   -0.2290 H   0  0  0  0  0  0  0  0  0  0  0  0
    0.2544    1.6161    0.3898 H   0  0  0  0  0  0  0  0  0  0  0  0
    3.5707    0.1137    1.3580 H   0  0  0  0  0  0  0  0  0  0  0  0
    3.9286    2.7459    1.7888 H   0  0  0  0  0  0  0  0  0  0  0  0
    2.0851    3.3926    3.4768 H   0  0  0  0  0  0  0  0  0  0  0  0
    0.9487    0.9902    3.9693 H   0  0  0  0  0  0  0  0  0  0  0  0
   -0.0065    1.8955    2.8104 H   0  0  0  0  0  0  0  0  0  0  0  0
    1.5877   -1.0719    3.1057 H   0  0  0  0  0  0  0  0  0  0  0  0
  1 12  1  0  0  0  0
  1 10  1  0  0  0  0
  1  2  1  0  0  0  0
  2 13  1  6  0  0  0
  2  8  1  0  0  0  0
  3  2  1  0  0  0  0
  3  4  1  0  0  0  0
  4 14  1  1  0  0  0
  4  8  1  0  0  0  0
  4  5  1  0  0  0  0
  5  6  2  0  0  0  0
  6  7  1  0  0  0  0
  6 16  1  0  0  0  0
  7 17  1  0  0  0  0
  8  9  1  1  0  0  0
  8  7  1  0  0  0  0
  9 19  1  0  0  0  0
 11  1  1  0  0  0  0
 15  5  1  0  0  0  0
 18  7  1  0  0  0  0
M TOR 0 0 1 2 3
M TOR 1 0 1 7 3
M TOR 2 0 1 7 6
M TOR 3 0 1 7 8
M TOR 4 1 2 3 4
M TOR 5 1 2 3 7
M TOR 6 1 2 3 13
M TOR 7 1 7 3 4
M TOR 8 1 7 3 13
M TOR 9 1 7 6 5
M TOR 10 1 7 6 16
M TOR 11 1 7 6 17
M TOR 12 1 7 8 18
M TOR 13 2 1 0 9
M TOR 14 2 1 0 10
M TOR 15 2 1 0 11
M TOR 16 2 1 7 6
M TOR 17 2 1 7 8
M TOR 18 2 3 4 5
M TOR 19 2 3 4 14
M TOR 20 2 3 7 6
M TOR 21 2 3 7 8
M TOR 22 3 2 1 12
M TOR 23 3 4 5 6
M TOR 24 3 4 5 15
M TOR 25 3 7 1 12
M TOR 26 3 7 6 5
M TOR 27 3 7 6 16
M TOR 28 3 7 6 17
M TOR 29 3 7 8 18
M TOR 30 4 3 7 6
M TOR 31 4 3 7 8
M TOR 32 4 5 6 7
M TOR 33 4 5 6 16
M TOR 34 4 5 6 17
M TOR 35 5 4 3 7
M TOR 36 5 4 3 13
M TOR 37 5 6 7 8
M TOR 38 6 5 4 14
M TOR 39 6 7 1 12
M TOR 40 6 7 3 13
M TOR 41 6 7 8 18
M TOR 42 7 1 0 9
M TOR 43 7 1 0 10
M TOR 44 7 1 0 11
M TOR 45 7 3 4 14
M TOR 46 7 6 5 15
M TOR 47 8 7 1 12
M TOR 48 8 7 3 13
M TOR 49 8 7 6 16
M TOR 50 8 7 6 17
M  END
$$$$
