gdb 1888	2.7139827	1.437797	1.1273889	2.547	75.29	-0.23908	-0.01772	0.22136	1122.0726	0.155506	-422.58459	-422.575789	-422.574845	-422.61758	33.918
 OpenBabel02181911403D

 19 20  0  0  1  0  0  0  0  0999 V2000
   -3.3268   -1.6218   -0.4251 C   0  0  0  0  0  0  0  0  0  0  0  0
   -2.2324   -0.7945    0.2042 C   0  0  2  0  0  0  0  0  0  0  0  0
   -2.5438    0.0368    1.4416 C   0  0  0  0  0  0  0  0  0  0  0  0
   -2.2371    0.7217    0.1308 C   0  0  2  0  0  0  0  0  0  0  0  0
   -3.2655    1.3497   -0.5734 O   0  0  0  0  0  0  0  0  0  0  0  0
   -0.8196    1.2230   -0.0684 C   0  0  0  0  0  0  0  0  0  0  0  0
    0.0720   -0.0009    0.1821 C   0  0  0  0  0  0  0  0  0  0  0  0
    1.2518    0.0272    0.4138 O   0  0  0  0  0  0  0  0  0  0  0  0
   -0.7921   -1.2667    0.0919 C   0  0  0  0  0  0  0  0  0  0  0  0
   -3.4672   -2.5676    0.1100 H   0  0  0  0  0  0  0  0  0  0  0  0
   -4.2752   -1.0794   -0.4197 H   0  0  0  0  0  0  0  0  0  0  0  0
   -3.0870   -1.8612   -1.4674 H   0  0  0  0  0  0  0  0  0  0  0  0
   -3.5821    0.0506    1.7561 H   0  0  0  0  0  0  0  0  0  0  0  0
   -1.8246    0.0852    2.2555 H   0  0  0  0  0  0  0  0  0  0  0  0
   -3.5132    2.1491   -0.0968 H   0  0  0  0  0  0  0  0  0  0  0  0
   -0.6881    1.5447   -1.1099 H   0  0  0  0  0  0  0  0  0  0  0  0
   -0.5179    2.0550    0.5756 H   0  0  0  0  0  0  0  0  0  0  0  0
   -0.6090   -1.7313   -0.8870 H   0  0  0  0  0  0  0  0  0  0  0  0
   -0.4835   -1.9918    0.8516 H   0  0  0  0  0  0  0  0  0  0  0  0
  1 11  1  0  0  0  0
  1 10  1  0  0  0  0
  2  1  1  6  0  0  0
  2  3  1  0  0  0  0
  3 13  1  0  0  0  0
  3 14  1  0  0  0  0
  4  5  1  6  0  0  0
  4  2  1  0  0  0  0
  4  3  1  0  0  0  0
  5 15  1  0  0  0  0
  6  4  1  0  0  0  0
  6  7  1  0  0  0  0
  6 17  1  0  0  0  0
  7  8  2  0  0  0  0
  9  7  1  0  0  0  0
  9  2  1  0  0  0  0
  9 19  1  0  0  0  0
 12  1  1  0  0  0  0
 16  6  1  0  0  0  0
 18  9  1  0  0  0  0
M TOR 0 0 1 2 3
M TOR 1 0 1 2 12
M TOR 2 0 1 2 13
M TOR 3 0 1 3 4
M TOR 4 0 1 3 5
M TOR 5 0 1 8 6
M TOR 6 0 1 8 17
M TOR 7 0 1 8 18
M TOR 8 1 2 3 4
M TOR 9 1 2 3 5
M TOR 10 1 3 2 12
M TOR 11 1 3 2 13
M TOR 12 1 3 4 14
M TOR 13 1 3 5 6
M TOR 14 1 3 5 15
M TOR 15 1 3 5 16
M TOR 16 1 8 6 5
M TOR 17 1 8 6 7
M TOR 18 2 1 0 9
M TOR 19 2 1 0 10
M TOR 20 2 1 0 11
M TOR 21 2 1 8 6
M TOR 22 2 1 8 17
M TOR 23 2 1 8 18
M TOR 24 2 3 1 8
M TOR 25 2 3 4 14
M TOR 26 2 3 5 6
M TOR 27 2 3 5 15
M TOR 28 2 3 5 16
M TOR 29 3 1 0 9
M TOR 30 3 1 0 10
M TOR 31 3 1 0 11
M TOR 32 3 1 8 6
M TOR 33 3 1 8 17
M TOR 34 3 1 8 18
M TOR 35 3 5 6 7
M TOR 36 3 5 6 8
M TOR 37 4 3 1 8
M TOR 38 4 3 2 12
M TOR 39 4 3 2 13
M TOR 40 4 3 5 6
M TOR 41 4 3 5 15
M TOR 42 4 3 5 16
M TOR 43 5 3 1 8
M TOR 44 5 3 2 12
M TOR 45 5 3 2 13
M TOR 46 5 3 4 14
M TOR 47 5 6 8 17
M TOR 48 5 6 8 18
M TOR 49 7 6 5 15
M TOR 50 7 6 5 16
M TOR 51 7 6 8 17
M TOR 52 7 6 8 18
M TOR 53 8 1 0 9
M TOR 54 8 1 0 10
M TOR 55 8 1 0 11
M TOR 56 8 1 2 12
M TOR 57 8 1 2 13
M TOR 58 8 6 5 15
M TOR 59 8 6 5 16
M  END
$$$$
