
     RDKit          3D

 19 20  0  0  0  0  0  0  0  0999 V2000
   -0.6915   -0.8465   -0.5900 O   0  0  0  0  0  0  0  0  0  0  0  0
   -0.1506    0.4195   -0.2435 C   0  0  0  0  0  0  0  0  0  0  0  0
   -0.5648    0.8619    1.1645 C   0  0  0  0  0  0  0  0  0  0  0  0
   -0.0313    2.2507    1.5232 C   0  0  0  0  0  0  0  0  0  0  0  0
   -0.3010    2.7496    2.9576 C   0  0  0  0  0  0  0  0  0  0  0  0
    0.3717    4.0545    3.1646 C   0  0  0  0  0  0  0  0  0  0  0  0
    1.2210    2.7926    3.2786 C   0  0  0  0  0  0  0  0  0  0  0  0
    1.4755    2.2227    1.9213 C   0  0  0  0  0  0  0  0  0  0  0  0
    2.4294    1.6979    1.4135 O   0  0  0  0  0  0  0  0  0  0  0  0
   -0.2301   -1.5129   -0.0714 H   0  0  0  0  0  0  0  0  0  0  0  0
    0.9437    0.4354   -0.3307 H   0  0  0  0  0  0  0  0  0  0  0  0
   -0.5489    1.1246   -0.9823 H   0  0  0  0  0  0  0  0  0  0  0  0
   -1.6595    0.8575    1.2284 H   0  0  0  0  0  0  0  0  0  0  0  0
   -0.2017    0.1270    1.8965 H   0  0  0  0  0  0  0  0  0  0  0  0
   -0.3033    2.9747    0.7454 H   0  0  0  0  0  0  0  0  0  0  0  0
   -1.0778    2.3664    3.6063 H   0  0  0  0  0  0  0  0  0  0  0  0
    0.5161    4.7353    2.3299 H   0  0  0  0  0  0  0  0  0  0  0  0
    0.2040    4.5481    4.1164 H   0  0  0  0  0  0  0  0  0  0  0  0
    1.7613    2.5602    4.1879 H   0  0  0  0  0  0  0  0  0  0  0  0
  1  2  1  0
  2  3  1  0
  3  4  1  0
  4  5  1  0
  5  6  1  0
  6  7  1  0
  7  8  1  0
  8  9  2  0
  8  4  1  0
  7  5  1  0
  1 10  1  0
  2 11  1  0
  2 12  1  0
  3 13  1  0
  3 14  1  0
  4 15  1  0
  5 16  1  0
  6 17  1  0
  6 18  1  0
  7 19  1  0
M  END
$$$$
