
     RDKit          3D

 19 21  0  0  0  0  0  0  0  0999 V2000
    4.3653   -1.7941   -0.4916 O   0  0  0  0  0  0  0  0  0  0  0  0
    3.3016   -0.8884   -0.6320 C   0  0  0  0  0  0  0  0  0  0  0  0
    2.1952   -1.5567   -1.4310 C   0  0  0  0  0  0  0  0  0  0  0  0
    1.8764   -2.9771   -1.2391 C   0  0  0  0  0  0  0  0  0  0  0  0
    2.6621   -2.5515   -2.3632 O   0  0  0  0  0  0  0  0  0  0  0  0
    3.6593    0.6164   -0.9400 C   0  0  0  0  0  0  0  0  0  0  0  0
    2.3319    1.0094   -0.2292 C   0  0  0  0  0  0  0  0  0  0  0  0
    2.9601   -0.0985    0.6664 C   0  0  0  0  0  0  0  0  0  0  0  0
    4.3179    0.6494    0.4732 C   0  0  0  0  0  0  0  0  0  0  0  0
    4.3881   -2.3002   -1.3167 H   0  0  0  0  0  0  0  0  0  0  0  0
    1.4218   -0.9178   -1.8462 H   0  0  0  0  0  0  0  0  0  0  0  0
    2.4220   -3.5428   -0.4882 H   0  0  0  0  0  0  0  0  0  0  0  0
    0.8827   -3.3447   -1.4871 H   0  0  0  0  0  0  0  0  0  0  0  0
    4.0599    1.0240   -1.8696 H   0  0  0  0  0  0  0  0  0  0  0  0
    2.3212    2.0080    0.2124 H   0  0  0  0  0  0  0  0  0  0  0  0
    1.3832    0.8039   -0.7272 H   0  0  0  0  0  0  0  0  0  0  0  0
    2.5562   -0.5152    1.5906 H   0  0  0  0  0  0  0  0  0  0  0  0
    4.3827    1.6344    0.9418 H   0  0  0  0  0  0  0  0  0  0  0  0
    5.2261    0.0667    0.6081 H   0  0  0  0  0  0  0  0  0  0  0  0
  1  2  1  0
  2  3  1  0
  3  4  1  0
  4  5  1  0
  2  6  1  0
  6  7  1  0
  7  8  1  0
  8  9  1  0
  8  2  1  0
  5  3  1  0
  9  6  1  0
  1 10  1  0
  3 11  1  0
  4 12  1  0
  4 13  1  0
  6 14  1  0
  7 15  1  0
  7 16  1  0
  8 17  1  0
  9 18  1  0
  9 19  1  0
M  END
$$$$
