gdb 3950	2.6330164	1.6753238	1.5395904	2.8823	74.05	-0.22577	0.0508	0.27657	973.7953	0.156549	-422.475114	-422.467093	-422.466149	-422.507479	31.303
 OpenBabel02181911413D

 19 21  0  0  1  0  0  0  0  0999 V2000
    0.6420    0.3445    0.6672 O   0  0  0  0  0  0  0  0  0  0  0  0
   -0.5927    0.8224    1.1307 C   0  0  2  0  0  0  0  0  0  0  0  0
   -1.3888   -0.0954    2.1491 C   0  0  0  0  0  0  0  0  0  0  0  0
   -2.5223   -0.2507    1.0966 C   0  0  1  0  0  0  0  0  0  0  0  0
   -3.7246    0.7354    1.0164 C   0  0  0  0  0  0  0  0  0  0  0  0
   -2.9293    1.5994   -0.0401 C   0  0  0  0  0  0  0  0  0  0  0  0
   -1.7506    0.6039    0.1119 C   0  0  1  0  0  0  0  0  0  0  0  0
   -1.6220   -0.4453   -0.8562 O   0  0  0  0  0  0  0  0  0  0  0  0
   -2.3721   -1.3474    0.0223 C   0  0  0  0  0  0  0  0  0  0  0  0
    1.2821    0.4314    1.3812 H   0  0  0  0  0  0  0  0  0  0  0  0
   -0.5239    1.8687    1.4658 H   0  0  0  0  0  0  0  0  0  0  0  0
   -0.8628   -1.0259    2.3825 H   0  0  0  0  0  0  0  0  0  0  0  0
   -1.6773    0.3933    3.0837 H   0  0  0  0  0  0  0  0  0  0  0  0
   -4.6611    0.3014    0.6562 H   0  0  0  0  0  0  0  0  0  0  0  0
   -3.9314    1.2564    1.9549 H   0  0  0  0  0  0  0  0  0  0  0  0
   -3.3555    1.6009   -1.0452 H   0  0  0  0  0  0  0  0  0  0  0  0
   -2.7227    2.6312    0.2574 H   0  0  0  0  0  0  0  0  0  0  0  0
   -3.3000   -1.6911   -0.4525 H   0  0  0  0  0  0  0  0  0  0  0  0
   -1.7698   -2.2184    0.3085 H   0  0  0  0  0  0  0  0  0  0  0  0
  1  2  1  0  0  0  0
  1 10  1  0  0  0  0
  2 11  1  1  0  0  0
  2  3  1  0  0  0  0
  3 12  1  0  0  0  0
  3 13  1  0  0  0  0
  4  9  1  6  0  0  0
  4  3  1  0  0  0  0
  5  4  1  0  0  0  0
  5 15  1  0  0  0  0
  6  7  1  0  0  0  0
  6 17  1  0  0  0  0
  6  5  1  0  0  0  0
  7  8  1  6  0  0  0
  7  4  1  0  0  0  0
  7  2  1  0  0  0  0
  8  9  1  0  0  0  0
  9 19  1  0  0  0  0
 14  5  1  0  0  0  0
 16  6  1  0  0  0  0
 18  9  1  0  0  0  0
M TOR 0 0 1 2 3
M TOR 1 0 1 2 11
M TOR 2 0 1 2 12
M TOR 3 0 1 6 3
M TOR 4 0 1 6 5
M TOR 5 0 1 6 7
M TOR 6 1 2 3 4
M TOR 7 1 2 3 6
M TOR 8 1 2 3 8
M TOR 9 1 6 3 4
M TOR 10 1 6 3 8
M TOR 11 1 6 5 4
M TOR 12 1 6 5 15
M TOR 13 1 6 5 16
M TOR 14 1 6 7 8
M TOR 15 2 1 0 9
M TOR 16 2 1 6 5
M TOR 17 2 1 6 7
M TOR 18 2 3 4 5
M TOR 19 2 3 4 13
M TOR 20 2 3 4 14
M TOR 21 2 3 6 5
M TOR 22 2 3 6 7
M TOR 23 2 3 8 7
M TOR 24 2 3 8 17
M TOR 25 2 3 8 18
M TOR 26 3 2 1 10
M TOR 27 3 4 5 6
M TOR 28 3 4 5 15
M TOR 29 3 4 5 16
M TOR 30 3 6 1 10
M TOR 31 3 6 5 15
M TOR 32 3 6 5 16
M TOR 33 3 6 7 8
M TOR 34 4 3 2 11
M TOR 35 4 3 2 12
M TOR 36 4 3 6 7
M TOR 37 4 3 8 7
M TOR 38 4 3 8 17
M TOR 39 4 3 8 18
M TOR 40 4 5 6 7
M TOR 41 5 4 3 8
M TOR 42 5 6 1 10
M TOR 43 5 6 3 8
M TOR 44 5 6 7 8
M TOR 45 6 1 0 9
M TOR 46 6 1 2 11
M TOR 47 6 1 2 12
M TOR 48 6 3 2 11
M TOR 49 6 3 2 12
M TOR 50 6 3 4 13
M TOR 51 6 3 4 14
M TOR 52 6 3 8 17
M TOR 53 6 3 8 18
M TOR 54 6 5 4 13
M TOR 55 6 5 4 14
M TOR 56 6 7 8 17
M TOR 57 6 7 8 18
M TOR 58 7 6 1 10
M TOR 59 7 6 5 15
M TOR 60 7 6 5 16
M TOR 61 8 3 2 11
M TOR 62 8 3 2 12
M TOR 63 8 3 4 13
M TOR 64 8 3 4 14
M  END
$$$$
