
     RDKit          3D

 19 19  0  0  0  0  0  0  0  0999 V2000
   -0.5463    3.2498   -0.4556 C   0  0  0  0  0  0  0  0  0  0  0  0
   -1.1735    2.2065    0.4400 C   0  0  0  0  0  0  0  0  0  0  0  0
   -2.3614    2.1202    0.6340 O   0  0  0  0  0  0  0  0  0  0  0  0
   -0.1868    1.2067    1.0935 C   0  0  0  0  0  0  0  0  0  0  0  0
    0.1556    0.1631    0.0258 C   0  0  0  0  0  0  0  0  0  0  0  0
    0.9243    0.3473   -0.8821 O   0  0  0  0  0  0  0  0  0  0  0  0
   -0.7617    0.5667    2.3358 C   0  0  0  0  0  0  0  0  0  0  0  0
    0.1349   -0.1944    3.2826 C   0  0  0  0  0  0  0  0  0  0  0  0
   -0.4535    1.1309    3.6974 C   0  0  0  0  0  0  0  0  0  0  0  0
   -0.0066    3.9767    0.1637 H   0  0  0  0  0  0  0  0  0  0  0  0
    0.1916    2.7851   -1.1171 H   0  0  0  0  0  0  0  0  0  0  0  0
   -1.3159    3.7675   -1.0293 H   0  0  0  0  0  0  0  0  0  0  0  0
    0.7463    1.7422    1.3046 H   0  0  0  0  0  0  0  0  0  0  0  0
   -0.3860   -0.8007    0.1413 H   0  0  0  0  0  0  0  0  0  0  0  0
   -1.7672    0.1851    2.1945 H   0  0  0  0  0  0  0  0  0  0  0  0
   -0.2511   -1.0983    3.7401 H   0  0  0  0  0  0  0  0  0  0  0  0
    1.1978   -0.2285    3.0647 H   0  0  0  0  0  0  0  0  0  0  0  0
   -1.2459    1.1367    4.4368 H   0  0  0  0  0  0  0  0  0  0  0  0
    0.2140    1.9845    3.7574 H   0  0  0  0  0  0  0  0  0  0  0  0
  1  2  1  0
  2  3  2  0
  2  4  1  0
  4  5  1  0
  5  6  2  0
  4  7  1  0
  7  8  1  0
  8  9  1  0
  9  7  1  0
  1 10  1  0
  1 11  1  0
  1 12  1  0
  4 13  1  0
  5 14  1  0
  7 15  1  0
  8 16  1  0
  8 17  1  0
  9 18  1  0
  9 19  1  0
M  END
$$$$
