gdb 4146	2.5778129	1.3950232	1.0995823	2.1392	76.61	-0.24258	-0.0188	0.22377999999999998	1165.2172	0.154468	-422.539414	-422.530188	-422.529244	-422.57356	33.816
 OpenBabel02181911413D

 19 20  0  0  1  0  0  0  0  0999 V2000
    2.5572   -0.6504   -1.3888 C   0  0  0  0  0  0  0  0  0  0  0  0
    1.7960   -0.1035   -0.1994 C   0  0  2  0  0  0  0  0  0  0  0  0
    1.9187    1.3451   -0.0418 O   0  0  0  0  0  0  0  0  0  0  0  0
    2.2828    1.1960    1.3220 C   0  0  2  0  0  0  0  0  0  0  0  0
    3.5603    0.4732    1.4830 C   0  0  0  0  0  0  0  0  0  0  0  0
    2.2946   -0.3420    1.2334 C   0  0  2  0  0  0  0  0  0  0  0  0
    1.7944   -1.2956    2.2510 C   0  0  0  0  0  0  0  0  0  0  0  0
    0.7112   -2.2673    1.8155 C   0  0  0  0  0  0  0  0  0  0  0  0
    2.2219   -1.2868    3.3882 O   0  0  0  0  0  0  0  0  0  0  0  0
    2.3889   -1.7290   -1.4794 H   0  0  0  0  0  0  0  0  0  0  0  0
    2.2068   -0.1739   -2.3095 H   0  0  0  0  0  0  0  0  0  0  0  0
    3.6315   -0.4723   -1.2969 H   0  0  0  0  0  0  0  0  0  0  0  0
    0.7294   -0.3463   -0.2854 H   0  0  0  0  0  0  0  0  0  0  0  0
    1.8140    1.8401    2.0571 H   0  0  0  0  0  0  0  0  0  0  0  0
    4.3197    0.5483    0.7113 H   0  0  0  0  0  0  0  0  0  0  0  0
    3.9142    0.3607    2.5021 H   0  0  0  0  0  0  0  0  0  0  0  0
    0.5036   -2.9631    2.6288 H   0  0  0  0  0  0  0  0  0  0  0  0
   -0.2069   -1.7263    1.5597 H   0  0  0  0  0  0  0  0  0  0  0  0
    1.0172   -2.8206    0.9205 H   0  0  0  0  0  0  0  0  0  0  0  0
  1 12  1  0  0  0  0
  1  2  1  0  0  0  0
  2 13  1  6  0  0  0
  2  3  1  0  0  0  0
  2  6  1  0  0  0  0
  3  4  1  0  0  0  0
  4  5  1  0  0  0  0
  4 14  1  1  0  0  0
  5 16  1  0  0  0  0
  6  4  1  0  0  0  0
  6  5  1  0  0  0  0
  6  7  1  1  0  0  0
  7  9  2  0  0  0  0
  8  7  1  0  0  0  0
  8 17  1  0  0  0  0
 10  1  1  0  0  0  0
 11  1  1  0  0  0  0
 15  5  1  0  0  0  0
 18  8  1  0  0  0  0
 19  8  1  0  0  0  0
M TOR 0 0 1 2 3
M TOR 1 0 1 5 3
M TOR 2 0 1 5 4
M TOR 3 0 1 5 6
M TOR 4 1 2 3 4
M TOR 5 1 2 3 5
M TOR 6 1 2 3 13
M TOR 7 1 5 3 4
M TOR 8 1 5 3 13
M TOR 9 1 5 4 14
M TOR 10 1 5 4 15
M TOR 11 1 5 6 7
M TOR 12 1 5 6 8
M TOR 13 2 1 0 9
M TOR 14 2 1 0 10
M TOR 15 2 1 0 11
M TOR 16 2 1 5 4
M TOR 17 2 1 5 6
M TOR 18 2 3 4 5
M TOR 19 2 3 4 14
M TOR 20 2 3 4 15
M TOR 21 2 3 5 6
M TOR 22 3 2 1 12
M TOR 23 3 4 5 6
M TOR 24 3 5 1 12
M TOR 25 3 5 4 14
M TOR 26 3 5 4 15
M TOR 27 3 5 6 7
M TOR 28 3 5 6 8
M TOR 29 4 5 1 12
M TOR 30 4 5 3 13
M TOR 31 4 5 6 7
M TOR 32 4 5 6 8
M TOR 33 5 1 0 9
M TOR 34 5 1 0 10
M TOR 35 5 1 0 11
M TOR 36 5 6 7 16
M TOR 37 5 6 7 17
M TOR 38 5 6 7 18
M TOR 39 6 5 1 12
M TOR 40 6 5 3 13
M TOR 41 6 5 4 14
M TOR 42 6 5 4 15
M TOR 43 8 6 7 16
M TOR 44 8 6 7 17
M TOR 45 8 6 7 18
M  END
$$$$
