gdb 1115	3.2301058	0.8744773	0.8501777	0.8324	78.83	-0.24943	-0.03389	0.21554	1470.7495	0.153743	-422.59132	-422.581215	-422.580271	-422.627452	35.17
 OpenBabel02181911403D

 19 19  0  0  1  0  0  0  0  0999 V2000
   -0.2240    1.8810   -0.4983 C   0  0  0  0  0  0  0  0  0  0  0  0
    0.5369    1.4929    0.7530 C   0  0  0  0  0  0  0  0  0  0  0  0
    1.7483    1.4342    0.7844 O   0  0  0  0  0  0  0  0  0  0  0  0
   -0.2925    1.1858    1.9604 C   0  0  2  0  0  0  0  0  0  0  0  0
    0.2654    1.5442    3.3098 C   0  0  0  0  0  0  0  0  0  0  0  0
    0.2405    0.0973    2.9019 C   0  0  1  0  0  0  0  0  0  0  0  0
   -0.7778   -0.7951    3.5395 C   0  0  0  0  0  0  0  0  0  0  0  0
   -0.3554   -2.2316    3.7703 C   0  0  0  0  0  0  0  0  0  0  0  0
   -1.8750   -0.3826    3.8527 O   0  0  0  0  0  0  0  0  0  0  0  0
   -0.8461    2.7623   -0.3039 H   0  0  0  0  0  0  0  0  0  0  0  0
    0.4726    2.0904   -1.3104 H   0  0  0  0  0  0  0  0  0  0  0  0
   -0.9051    1.0732   -0.7903 H   0  0  0  0  0  0  0  0  0  0  0  0
   -1.3712    1.2131    1.8583 H   0  0  0  0  0  0  0  0  0  0  0  0
    1.2339    2.0301    3.3178 H   0  0  0  0  0  0  0  0  0  0  0  0
   -0.4493    1.8443    4.0669 H   0  0  0  0  0  0  0  0  0  0  0  0
    1.1869   -0.3398    2.6051 H   0  0  0  0  0  0  0  0  0  0  0  0
   -1.1642   -2.7883    4.2444 H   0  0  0  0  0  0  0  0  0  0  0  0
   -0.0872   -2.7027    2.8175 H   0  0  0  0  0  0  0  0  0  0  0  0
    0.5403   -2.2652    4.4011 H   0  0  0  0  0  0  0  0  0  0  0  0
  1 10  1  0  0  0  0
  1  2  1  0  0  0  0
  2  3  2  0  0  0  0
  2  4  1  0  0  0  0
  4 13  1  6  0  0  0
  4  6  1  0  0  0  0
  4  5  1  0  0  0  0
  5 14  1  0  0  0  0
  5 15  1  0  0  0  0
  6 16  1  6  0  0  0
  6  5  1  0  0  0  0
  6  7  1  0  0  0  0
  7  8  1  0  0  0  0
  7  9  2  0  0  0  0
  8 17  1  0  0  0  0
  8 19  1  0  0  0  0
 11  1  1  0  0  0  0
 12  1  1  0  0  0  0
 18  8  1  0  0  0  0
M TOR 0 0 1 3 4
M TOR 1 0 1 3 5
M TOR 2 0 1 3 12
M TOR 3 1 3 4 5
M TOR 4 1 3 4 13
M TOR 5 1 3 4 14
M TOR 6 1 3 5 6
M TOR 7 1 3 5 15
M TOR 8 2 1 0 9
M TOR 9 2 1 0 10
M TOR 10 2 1 0 11
M TOR 11 2 1 3 4
M TOR 12 2 1 3 5
M TOR 13 2 1 3 12
M TOR 14 3 1 0 9
M TOR 15 3 1 0 10
M TOR 16 3 1 0 11
M TOR 17 3 4 5 6
M TOR 18 3 4 5 15
M TOR 19 3 5 4 13
M TOR 20 3 5 4 14
M TOR 21 3 5 6 7
M TOR 22 3 5 6 8
M TOR 23 4 5 3 12
M TOR 24 4 5 6 7
M TOR 25 4 5 6 8
M TOR 26 5 6 7 16
M TOR 27 5 6 7 17
M TOR 28 5 6 7 18
M TOR 29 6 5 3 12
M TOR 30 6 5 4 13
M TOR 31 6 5 4 14
M TOR 32 7 6 5 15
M TOR 33 8 6 5 15
M TOR 34 8 6 7 16
M TOR 35 8 6 7 17
M TOR 36 8 6 7 18
M  END
$$$$
