gdb 1214	3.6975357	0.7106212	0.6839176	3.4784	83.49	-0.26883	-0.0644	0.20443	1701.2366	0.152486	-422.546794	-422.535933	-422.534988	-422.583809	37.861
 OpenBabel02181911403D

 19 18  0  0  0  0  0  0  0  0999 V2000
    0.5652   -1.4270    1.3559 C   0  0  0  0  0  0  0  0  0  0  0  0
    1.6779   -2.3527    0.8642 C   0  0  0  0  0  0  0  0  0  0  0  0
    1.1012   -3.6187    0.2170 C   0  0  0  0  0  0  0  0  0  0  0  0
    2.4405   -2.6835    2.0177 O   0  0  0  0  0  0  0  0  0  0  0  0
    2.5812   -1.5754   -0.1441 C   0  0  0  0  0  0  0  0  0  0  0  0
    3.7686   -2.3217   -0.5260 C   0  0  0  0  0  0  0  0  0  0  0  0
    4.7467   -2.9830   -0.7890 C   0  0  0  0  0  0  0  0  0  0  0  0
    5.9200   -3.7407   -1.1376 C   0  0  0  0  0  0  0  0  0  0  0  0
    6.2948   -4.7292   -0.5488 O   0  0  0  0  0  0  0  0  0  0  0  0
   -0.0687   -1.9561    2.0721 H   0  0  0  0  0  0  0  0  0  0  0  0
    0.9906   -0.5543    1.8594 H   0  0  0  0  0  0  0  0  0  0  0  0
   -0.0591   -1.0855    0.5250 H   0  0  0  0  0  0  0  0  0  0  0  0
    0.5109   -4.1706    0.9531 H   0  0  0  0  0  0  0  0  0  0  0  0
    0.4568   -3.3758   -0.6344 H   0  0  0  0  0  0  0  0  0  0  0  0
    1.9019   -4.2735   -0.1422 H   0  0  0  0  0  0  0  0  0  0  0  0
    3.1581   -3.2669    1.7418 H   0  0  0  0  0  0  0  0  0  0  0  0
    2.0079   -1.3041   -1.0393 H   0  0  0  0  0  0  0  0  0  0  0  0
    2.8963   -0.6375    0.3296 H   0  0  0  0  0  0  0  0  0  0  0  0
    6.4746   -3.3432   -2.0118 H   0  0  0  0  0  0  0  0  0  0  0  0
  1 11  1  0  0  0  0
  1 10  1  0  0  0  0
  2  1  1  0  0  0  0
  2  4  1  0  0  0  0
  3  2  1  0  0  0  0
  3 13  1  0  0  0  0
  5 18  1  0  0  0  0
  5  2  1  0  0  0  0
  6  5  1  0  0  0  0
  7  6  3  0  0  0  0
  8  7  1  0  0  0  0
  8  9  2  0  0  0  0
 12  1  1  0  0  0  0
 14  3  1  0  0  0  0
 15  3  1  0  0  0  0
 16  4  1  0  0  0  0
 17  5  1  0  0  0  0
 19  8  1  0  0  0  0
M TOR 0 0 1 2 12
M TOR 1 0 1 2 13
M TOR 2 0 1 2 14
M TOR 3 0 1 3 15
M TOR 4 0 1 4 5
M TOR 5 0 1 4 16
M TOR 6 0 1 4 17
M TOR 7 1 4 5 6
M TOR 8 2 1 0 9
M TOR 9 2 1 0 10
M TOR 10 2 1 0 11
M TOR 11 2 1 3 15
M TOR 12 2 1 4 5
M TOR 13 2 1 4 16
M TOR 14 2 1 4 17
M TOR 15 3 1 0 9
M TOR 16 3 1 0 10
M TOR 17 3 1 0 11
M TOR 18 3 1 2 12
M TOR 19 3 1 2 13
M TOR 20 3 1 2 14
M TOR 21 3 1 4 5
M TOR 22 3 1 4 16
M TOR 23 3 1 4 17
M TOR 24 4 1 0 9
M TOR 25 4 1 0 10
M TOR 26 4 1 0 11
M TOR 27 4 1 2 12
M TOR 28 4 1 2 13
M TOR 29 4 1 2 14
M TOR 30 4 1 3 15
M TOR 31 4 5 6 7
M TOR 32 5 6 7 8
M TOR 33 5 6 7 18
M TOR 34 6 5 4 16
M TOR 35 6 5 4 17
M  END
$$$$
