
     RDKit          3D

 19 21  0  0  0  0  0  0  0  0999 V2000
    2.0671    1.3716    0.0974 C   0  0  0  0  0  0  0  0  0  0  0  0
    1.4402   -0.0298    0.0286 C   0  0  0  0  0  0  0  0  0  0  0  0
   -0.0929    0.0336   -0.0042 C   0  0  0  0  0  0  0  0  0  0  0  0
    1.9563   -0.8595    1.2185 C   0  0  0  0  0  0  0  0  0  0  0  0
    1.5072   -2.2126    1.2801 O   0  0  0  0  0  0  0  0  0  0  0  0
    2.8090   -1.9632    0.7460 C   0  0  0  0  0  0  0  0  0  0  0  0
    2.8439   -1.9044   -0.7726 C   0  0  0  0  0  0  0  0  0  0  0  0
    1.5686   -2.1094   -1.3836 O   0  0  0  0  0  0  0  0  0  0  0  0
    2.0119   -0.7659   -1.1969 C   0  0  0  0  0  0  0  0  0  0  0  0
    1.7349    1.9026    0.9954 H   0  0  0  0  0  0  0  0  0  0  0  0
    3.1615    1.3231    0.1207 H   0  0  0  0  0  0  0  0  0  0  0  0
    1.7756    1.9711   -0.7712 H   0  0  0  0  0  0  0  0  0  0  0  0
   -0.4827    0.5282    0.8918 H   0  0  0  0  0  0  0  0  0  0  0  0
   -0.4420    0.5968   -0.8762 H   0  0  0  0  0  0  0  0  0  0  0  0
   -0.5062   -0.9757   -0.0529 H   0  0  0  0  0  0  0  0  0  0  0  0
    2.0846   -0.3711    2.1838 H   0  0  0  0  0  0  0  0  0  0  0  0
    3.6455   -2.3751    1.3031 H   0  0  0  0  0  0  0  0  0  0  0  0
    3.7059   -2.2734   -1.3208 H   0  0  0  0  0  0  0  0  0  0  0  0
    2.1836   -0.2045   -2.1147 H   0  0  0  0  0  0  0  0  0  0  0  0
  1  2  1  0
  2  3  1  0
  2  4  1  0
  4  5  1  0
  5  6  1  0
  6  7  1  0
  7  8  1  0
  8  9  1  0
  9  2  1  0
  6  4  1  0
  9  7  1  0
  1 10  1  0
  1 11  1  0
  1 12  1  0
  3 13  1  0
  3 14  1  0
  3 15  1  0
  4 16  1  0
  6 17  1  0
  7 18  1  0
  9 19  1  0
M  END
$$$$
