gdb 2690	2.7057119	1.2897138	1.1856514	0.5615	77.25	-0.25635	0.0159	0.27225000000000005	1151.8745	0.153272	-422.516802	-422.50688	-422.505936	-422.551121	36.793
 OpenBabel02181911413D

 19 19  0  0  1  0  0  0  0  0999 V2000
    0.0234    0.5421    0.1137 C   0  0  0  0  0  0  0  0  0  0  0  0
    1.4824    0.1425   -0.0258 C   0  0  0  0  0  0  0  0  0  0  0  0
    2.1804   -0.0023    1.3197 C   0  0  0  0  0  0  0  0  0  0  0  0
    1.6039   -1.0901   -0.8142 O   0  0  0  0  0  0  0  0  0  0  0  0
    2.5342   -0.4962   -1.7405 C   0  0  2  0  0  0  0  0  0  0  0  0
    3.9001   -0.9841   -1.6006 C   0  0  0  0  0  0  0  0  0  0  0  0
    5.0467   -1.3207   -1.4544 C   0  0  0  0  0  0  0  0  0  0  0  0
    2.2987    0.9154   -1.1110 C   0  0  2  0  0  0  0  0  0  0  0  0
    3.3940    1.6954   -0.7519 O   0  0  0  0  0  0  0  0  0  0  0  0
   -0.5267   -0.2074    0.6916 H   0  0  0  0  0  0  0  0  0  0  0  0
   -0.0623    1.5038    0.6309 H   0  0  0  0  0  0  0  0  0  0  0  0
   -0.4508    0.6305   -0.8680 H   0  0  0  0  0  0  0  0  0  0  0  0
    1.6501   -0.7350    1.9358 H   0  0  0  0  0  0  0  0  0  0  0  0
    3.2101   -0.3482    1.1994 H   0  0  0  0  0  0  0  0  0  0  0  0
    2.1966    0.9542    1.8509 H   0  0  0  0  0  0  0  0  0  0  0  0
    2.1966   -0.6143   -2.7767 H   0  0  0  0  0  0  0  0  0  0  0  0
    6.0495   -1.6562   -1.3491 H   0  0  0  0  0  0  0  0  0  0  0  0
    1.6538    1.5370   -1.7371 H   0  0  0  0  0  0  0  0  0  0  0  0
    4.1251    1.1047   -0.5274 H   0  0  0  0  0  0  0  0  0  0  0  0
  1 11  1  0  0  0  0
  1 10  1  0  0  0  0
  2  1  1  0  0  0  0
  2  3  1  0  0  0  0
  3 15  1  0  0  0  0
  3 13  1  0  0  0  0
  4  2  1  0  0  0  0
  5 16  1  6  0  0  0
  5  6  1  0  0  0  0
  5  8  1  0  0  0  0
  5  4  1  0  0  0  0
  6  7  3  0  0  0  0
  7 17  1  0  0  0  0
  8 18  1  6  0  0  0
  8  9  1  0  0  0  0
  8  2  1  0  0  0  0
  9 19  1  0  0  0  0
 12  1  1  0  0  0  0
 14  3  1  0  0  0  0
M TOR 0 0 1 2 12
M TOR 1 0 1 2 13
M TOR 2 0 1 2 14
M TOR 3 0 1 3 4
M TOR 4 0 1 7 4
M TOR 5 0 1 7 8
M TOR 6 0 1 7 17
M TOR 7 1 3 4 5
M TOR 8 1 3 4 7
M TOR 9 1 3 4 15
M TOR 10 1 7 4 5
M TOR 11 1 7 4 15
M TOR 12 1 7 8 18
M TOR 13 2 1 0 9
M TOR 14 2 1 0 10
M TOR 15 2 1 0 11
M TOR 16 2 1 3 4
M TOR 17 2 1 7 4
M TOR 18 2 1 7 8
M TOR 19 2 1 7 17
M TOR 20 3 1 0 9
M TOR 21 3 1 0 10
M TOR 22 3 1 0 11
M TOR 23 3 1 2 12
M TOR 24 3 1 2 13
M TOR 25 3 1 2 14
M TOR 26 3 1 7 8
M TOR 27 3 1 7 17
M TOR 28 3 4 5 6
M TOR 29 3 4 7 8
M TOR 30 3 4 7 17
M TOR 31 4 5 6 16
M TOR 32 4 7 8 18
M TOR 33 5 4 7 8
M TOR 34 5 4 7 17
M TOR 35 6 5 4 7
M TOR 36 6 5 4 15
M TOR 37 7 1 0 9
M TOR 38 7 1 0 10
M TOR 39 7 1 0 11
M TOR 40 7 1 2 12
M TOR 41 7 1 2 13
M TOR 42 7 1 2 14
M TOR 43 8 7 4 15
M  END
$$$$
