gdb 3055	3.5914422	1.3926407	1.229203	1.1935	74.98	-0.24498	0.06588	0.31086	1048.8513	0.158796	-422.488184	-422.480722	-422.479777	-422.519901	29.785
 OpenBabel02181911413D

 19 21  0  0  1  0  0  0  0  0999 V2000
   -0.7072    0.6612    0.0425 O   0  0  0  0  0  0  0  0  0  0  0  0
   -1.7231    0.2935    0.9218 C   0  0  2  0  0  0  0  0  0  0  0  0
   -3.1494    0.9871    0.8948 C   0  0  2  0  0  0  0  0  0  0  0  0
   -2.4953    2.2100    1.5829 C   0  0  0  0  0  0  0  0  0  0  0  0
   -1.9114    0.9607    2.3258 C   0  0  2  0  0  0  0  0  0  0  0  0
   -1.5096    0.9586    3.7747 C   0  0  0  0  0  0  0  0  0  0  0  0
   -2.7626    1.1768    4.4567 O   0  0  0  0  0  0  0  0  0  0  0  0
   -3.9072    0.9296    3.5977 C   0  0  0  0  0  0  0  0  0  0  0  0
   -3.3361    0.3513    2.3086 C   0  0  1  0  0  0  0  0  0  0  0  0
   -0.6505    1.6211   -0.0029 H   0  0  0  0  0  0  0  0  0  0  0  0
   -1.7398   -0.7991    0.9211 H   0  0  0  0  0  0  0  0  0  0  0  0
   -3.8548    0.9879    0.0627 H   0  0  0  0  0  0  0  0  0  0  0  0
   -1.7988    2.8157    0.9946 H   0  0  0  0  0  0  0  0  0  0  0  0
   -3.1479    2.8709    2.1522 H   0  0  0  0  0  0  0  0  0  0  0  0
   -1.0694   -0.0032    4.0759 H   0  0  0  0  0  0  0  0  0  0  0  0
   -0.8277    1.7639    4.0663 H   0  0  0  0  0  0  0  0  0  0  0  0
   -4.5654    0.2156    4.1038 H   0  0  0  0  0  0  0  0  0  0  0  0
   -4.4619    1.8665    3.4737 H   0  0  0  0  0  0  0  0  0  0  0  0
   -3.3653   -0.7431    2.3079 H   0  0  0  0  0  0  0  0  0  0  0  0
  1  2  1  0  0  0  0
  2 11  1  1  0  0  0
  2  5  1  0  0  0  0
  3 12  1  6  0  0  0
  3  2  1  0  0  0  0
  3  4  1  0  0  0  0
  3  9  1  0  0  0  0
  4 14  1  0  0  0  0
  5  4  1  6  0  0  0
  5  6  1  0  0  0  0
  6 16  1  0  0  0  0
  6 15  1  0  0  0  0
  6  7  1  0  0  0  0
  8 17  1  0  0  0  0
  8  7  1  0  0  0  0
  9 19  1  6  0  0  0
  9  5  1  0  0  0  0
  9  8  1  0  0  0  0
 10  1  1  0  0  0  0
 13  4  1  0  0  0  0
 18  8  1  0  0  0  0
M TOR 0 0 1 2 3
M TOR 1 0 1 2 8
M TOR 2 0 1 2 11
M TOR 3 0 1 4 3
M TOR 4 0 1 4 5
M TOR 5 0 1 4 8
M TOR 6 1 2 3 4
M TOR 7 1 2 3 12
M TOR 8 1 2 3 13
M TOR 9 1 2 8 4
M TOR 10 1 2 8 7
M TOR 11 1 2 8 18
M TOR 12 1 4 3 12
M TOR 13 1 4 3 13
M TOR 14 1 4 5 6
M TOR 15 1 4 5 14
M TOR 16 1 4 5 15
M TOR 17 1 4 8 7
M TOR 18 1 4 8 18
M TOR 19 2 1 0 9
M TOR 20 2 1 4 5
M TOR 21 2 3 4 5
M TOR 22 2 3 4 8
M TOR 23 2 8 4 5
M TOR 24 2 8 7 6
M TOR 25 2 8 7 16
M TOR 26 2 8 7 17
M TOR 27 3 2 1 10
M TOR 28 3 2 8 7
M TOR 29 3 2 8 18
M TOR 30 3 4 1 10
M TOR 31 3 4 5 6
M TOR 32 3 4 5 14
M TOR 33 3 4 5 15
M TOR 34 3 4 8 7
M TOR 35 3 4 8 18
M TOR 36 4 1 0 9
M TOR 37 4 1 2 11
M TOR 38 4 3 2 11
M TOR 39 4 5 6 7
M TOR 40 4 8 2 11
M TOR 41 4 8 7 6
M TOR 42 4 8 7 16
M TOR 43 4 8 7 17
M TOR 44 5 4 1 10
M TOR 45 5 4 3 12
M TOR 46 5 4 3 13
M TOR 47 5 4 8 7
M TOR 48 5 4 8 18
M TOR 49 5 6 7 8
M TOR 50 5 6 7 16
M TOR 51 5 6 7 17
M TOR 52 6 5 4 8
M TOR 53 6 7 8 18
M TOR 54 7 6 5 14
M TOR 55 7 6 5 15
M TOR 56 7 8 2 11
M TOR 57 8 2 1 10
M TOR 58 8 2 3 12
M TOR 59 8 2 3 13
M TOR 60 8 4 1 10
M TOR 61 8 4 3 12
M TOR 62 8 4 3 13
M TOR 63 8 4 5 14
M TOR 64 8 4 5 15
M  END
$$$$
