
     RDKit          3D

 19 21  0  0  0  0  0  0  0  0999 V2000
   -0.5164    3.3886    0.7680 C   0  0  0  0  0  0  0  0  0  0  0  0
   -1.3050    2.1141    0.6573 C   0  0  0  0  0  0  0  0  0  0  0  0
   -0.8345    0.7148    0.1922 C   0  0  0  0  0  0  0  0  0  0  0  0
    0.1585    0.0565    0.9356 O   0  0  0  0  0  0  0  0  0  0  0  0
   -2.3193    0.4861    0.5421 C   0  0  0  0  0  0  0  0  0  0  0  0
   -2.7271    1.9017    0.0161 C   0  0  0  0  0  0  0  0  0  0  0  0
   -3.4649    2.2769    1.3245 C   0  0  0  0  0  0  0  0  0  0  0  0
   -2.2238    1.4790    1.7594 C   0  0  0  0  0  0  0  0  0  0  0  0
   -1.7393    1.1944    3.0329 O   0  0  0  0  0  0  0  0  0  0  0  0
    0.3518    3.2452    1.4198 H   0  0  0  0  0  0  0  0  0  0  0  0
   -0.1480    3.7092   -0.2125 H   0  0  0  0  0  0  0  0  0  0  0  0
   -1.1190    4.2029    1.1850 H   0  0  0  0  0  0  0  0  0  0  0  0
   -0.5574    0.6169   -0.8626 H   0  0  0  0  0  0  0  0  0  0  0  0
   -0.0675    0.1602    1.8690 H   0  0  0  0  0  0  0  0  0  0  0  0
   -2.9275   -0.4185    0.4874 H   0  0  0  0  0  0  0  0  0  0  0  0
   -3.0042    2.1381   -1.0084 H   0  0  0  0  0  0  0  0  0  0  0  0
   -3.4955    3.3377    1.5917 H   0  0  0  0  0  0  0  0  0  0  0  0
   -4.4412    1.8074    1.4853 H   0  0  0  0  0  0  0  0  0  0  0  0
   -2.3914    0.6605    3.5008 H   0  0  0  0  0  0  0  0  0  0  0  0
  1  2  1  0
  2  3  1  0
  3  4  1  0
  3  5  1  0
  5  6  1  0
  6  7  1  0
  7  8  1  0
  8  9  1  0
  6  2  1  0
  8  2  1  0
  8  5  1  0
  1 10  1  0
  1 11  1  0
  1 12  1  0
  3 13  1  0
  4 14  1  0
  5 15  1  0
  6 16  1  0
  7 17  1  0
  7 18  1  0
  9 19  1  0
M  END
$$$$
