
     RDKit          3D

 19 20  0  0  0  0  0  0  0  0999 V2000
   -2.4301    0.9123    2.4270 C   0  0  0  0  0  0  0  0  0  0  0  0
   -2.5913   -0.0548    1.2557 C   0  0  0  0  0  0  0  0  0  0  0  0
   -1.6558   -1.3105    1.3045 C   0  0  0  0  0  0  0  0  0  0  0  0
   -0.9262   -1.2643   -0.0737 C   0  0  0  0  0  0  0  0  0  0  0  0
   -2.0329   -0.7145   -0.9958 C   0  0  0  0  0  0  0  0  0  0  0  0
   -2.2178    0.5343   -0.1237 C   0  0  0  0  0  0  0  0  0  0  0  0
   -0.8606    1.0512   -0.0356 O   0  0  0  0  0  0  0  0  0  0  0  0
   -0.0238   -0.0373   -0.0015 C   0  0  0  0  0  0  0  0  0  0  0  0
    1.1631    0.0573    0.1022 O   0  0  0  0  0  0  0  0  0  0  0  0
   -2.6646    0.4153    3.3735 H   0  0  0  0  0  0  0  0  0  0  0  0
   -1.4064    1.2919    2.4852 H   0  0  0  0  0  0  0  0  0  0  0  0
   -3.1015    1.7717    2.3259 H   0  0  0  0  0  0  0  0  0  0  0  0
   -3.6373   -0.3778    1.2033 H   0  0  0  0  0  0  0  0  0  0  0  0
   -0.9503   -1.2719    2.1387 H   0  0  0  0  0  0  0  0  0  0  0  0
   -2.2260   -2.2386    1.3956 H   0  0  0  0  0  0  0  0  0  0  0  0
   -0.3956   -2.1691   -0.3603 H   0  0  0  0  0  0  0  0  0  0  0  0
   -1.6912   -0.4811   -2.0071 H   0  0  0  0  0  0  0  0  0  0  0  0
   -2.9235   -1.3460   -1.0414 H   0  0  0  0  0  0  0  0  0  0  0  0
   -2.8549    1.3366   -0.4938 H   0  0  0  0  0  0  0  0  0  0  0  0
  1  2  1  0
  2  3  1  0
  3  4  1  0
  4  5  1  0
  5  6  1  0
  6  7  1  0
  7  8  1  0
  8  9  2  0
  6  2  1  0
  8  4  1  0
  1 10  1  0
  1 11  1  0
  1 12  1  0
  2 13  1  0
  3 14  1  0
  3 15  1  0
  4 16  1  0
  5 17  1  0
  5 18  1  0
  6 19  1  0
M  END
$$$$
