
     RDKit          3D

 19 20  0  0  0  0  0  0  0  0999 V2000
    2.2922    1.8241   -1.2266 C   0  0  0  0  0  0  0  0  0  0  0  0
    1.5919    0.6640   -0.5046 C   0  0  0  0  0  0  0  0  0  0  0  0
    1.9507   -0.6830   -1.0998 C   0  0  0  0  0  0  0  0  0  0  0  0
    1.4166   -1.0594   -2.5088 C   0  0  0  0  0  0  0  0  0  0  0  0
    0.9754   -2.3588   -2.0624 O   0  0  0  0  0  0  0  0  0  0  0  0
    1.3965   -2.0991   -0.7114 C   0  0  0  0  0  0  0  0  0  0  0  0
    2.8229   -2.6276   -0.4272 C   0  0  0  0  0  0  0  0  0  0  0  0
    3.3649   -1.2517   -0.8684 C   0  0  0  0  0  0  0  0  0  0  0  0
    4.4604   -0.7711   -0.9301 O   0  0  0  0  0  0  0  0  0  0  0  0
    2.0322    2.7816   -0.7661 H   0  0  0  0  0  0  0  0  0  0  0  0
    3.3777    1.7036   -1.1876 H   0  0  0  0  0  0  0  0  0  0  0  0
    1.9966    1.8719   -2.2805 H   0  0  0  0  0  0  0  0  0  0  0  0
    1.8643    0.6765    0.5581 H   0  0  0  0  0  0  0  0  0  0  0  0
    0.5027    0.7937   -0.5476 H   0  0  0  0  0  0  0  0  0  0  0  0
    0.5692   -0.4357   -2.8222 H   0  0  0  0  0  0  0  0  0  0  0  0
    2.1433   -1.1155   -3.3271 H   0  0  0  0  0  0  0  0  0  0  0  0
    0.6124   -2.2832    0.0258 H   0  0  0  0  0  0  0  0  0  0  0  0
    3.0274   -2.8098    0.6341 H   0  0  0  0  0  0  0  0  0  0  0  0
    3.1382   -3.4972   -1.0084 H   0  0  0  0  0  0  0  0  0  0  0  0
  1  2  1  0
  2  3  1  0
  3  4  1  0
  4  5  1  0
  5  6  1  0
  6  7  1  0
  7  8  1  0
  8  9  2  0
  6  3  1  0
  8  3  1  0
  1 10  1  0
  1 11  1  0
  1 12  1  0
  2 13  1  0
  2 14  1  0
  4 15  1  0
  4 16  1  0
  6 17  1  0
  7 18  1  0
  7 19  1  0
M  END
$$$$
