
     RDKit          3D

 19 20  0  0  0  0  0  0  0  0999 V2000
    1.2878    1.5661    0.0080 O   0  0  0  0  0  0  0  0  0  0  0  0
    0.7335    0.2609   -0.0956 C   0  0  0  0  0  0  0  0  0  0  0  0
   -0.2411    0.1457   -1.2366 C   0  0  0  0  0  0  0  0  0  0  0  0
   -1.4637   -0.3772   -1.1084 C   0  0  0  0  0  0  0  0  0  0  0  0
   -2.4412   -0.5053   -2.2498 C   0  0  0  0  0  0  0  0  0  0  0  0
   -2.2523    0.5741   -3.3345 C   0  0  0  0  0  0  0  0  0  0  0  0
   -0.7879    0.8888   -3.6133 C   0  0  0  0  0  0  0  0  0  0  0  0
   -0.2330    2.0039   -2.9015 O   0  0  0  0  0  0  0  0  0  0  0  0
    0.2092    0.6747   -2.5562 C   0  0  0  0  0  0  0  0  0  0  0  0
    0.5648    2.1968   -0.0798 H   0  0  0  0  0  0  0  0  0  0  0  0
    1.5947   -0.4013   -0.2564 H   0  0  0  0  0  0  0  0  0  0  0  0
    0.2512   -0.0571    0.8419 H   0  0  0  0  0  0  0  0  0  0  0  0
   -1.7792   -0.7598   -0.1394 H   0  0  0  0  0  0  0  0  0  0  0  0
   -2.3377   -1.5071   -2.6928 H   0  0  0  0  0  0  0  0  0  0  0  0
   -3.4664   -0.4634   -1.8664 H   0  0  0  0  0  0  0  0  0  0  0  0
   -2.7505    0.2639   -4.2583 H   0  0  0  0  0  0  0  0  0  0  0  0
   -2.7297    1.5049   -3.0105 H   0  0  0  0  0  0  0  0  0  0  0  0
   -0.4624    0.8325   -4.6515 H   0  0  0  0  0  0  0  0  0  0  0  0
    1.2472    0.4799   -2.8243 H   0  0  0  0  0  0  0  0  0  0  0  0
  1  2  1  0
  2  3  1  0
  3  4  2  0
  4  5  1  0
  5  6  1  0
  6  7  1  0
  7  8  1  0
  8  9  1  0
  9  3  1  0
  9  7  1  0
  1 10  1  0
  2 11  1  0
  2 12  1  0
  4 13  1  0
  5 14  1  0
  5 15  1  0
  6 16  1  0
  6 17  1  0
  7 18  1  0
  9 19  1  0
M  END
$$$$
