gdb 1905	2.1257897	1.6969581	1.3626732	2.3745	76.04	-0.23336	-0.00789	0.22547	1051.5776	0.154538	-422.555211	-422.545913	-422.544969	-422.588499	35.209
 OpenBabel02181911403D

 19 20  0  0  1  0  0  0  0  0999 V2000
   -1.1527   -1.9423    1.3446 C   0  0  0  0  0  0  0  0  0  0  0  0
   -0.9440   -1.0536    0.1209 C   0  0  0  0  0  0  0  0  0  0  0  0
   -0.6749   -1.8949   -1.1341 C   0  0  0  0  0  0  0  0  0  0  0  0
    0.1396    0.0708    0.1941 C   0  0  0  0  0  0  0  0  0  0  0  0
    1.3365    0.0067    0.2783 O   0  0  0  0  0  0  0  0  0  0  0  0
   -0.8248    1.1689   -0.0919 C   0  0  2  0  0  0  0  0  0  0  0  0
   -1.9905    1.0880    0.9071 C   0  0  0  0  0  0  0  0  0  0  0  0
   -1.9619    0.0802   -0.1637 C   0  0  2  0  0  0  0  0  0  0  0  0
   -3.0231   -0.0152   -1.0298 O   0  0  0  0  0  0  0  0  0  0  0  0
   -1.9675   -2.6557    1.1779 H   0  0  0  0  0  0  0  0  0  0  0  0
   -0.2419   -2.5134    1.5519 H   0  0  0  0  0  0  0  0  0  0  0  0
   -1.3920   -1.3637    2.2409 H   0  0  0  0  0  0  0  0  0  0  0  0
    0.2163   -2.5111   -0.9893 H   0  0  0  0  0  0  0  0  0  0  0  0
   -1.5195   -2.5614   -1.3441 H   0  0  0  0  0  0  0  0  0  0  0  0
   -0.4952   -1.2697   -2.0171 H   0  0  0  0  0  0  0  0  0  0  0  0
   -0.6430    2.0762   -0.6549 H   0  0  0  0  0  0  0  0  0  0  0  0
   -1.8137    0.8414    1.9497 H   0  0  0  0  0  0  0  0  0  0  0  0
   -2.7211    1.8764    0.7539 H   0  0  0  0  0  0  0  0  0  0  0  0
   -2.7189   -0.4312   -1.8446 H   0  0  0  0  0  0  0  0  0  0  0  0
  1 11  1  0  0  0  0
  1 12  1  0  0  0  0
  2  4  1  0  0  0  0
  2  1  1  0  0  0  0
  3 13  1  0  0  0  0
  3  2  1  0  0  0  0
  4  5  2  0  0  0  0
  6 16  1  6  0  0  0
  6  4  1  0  0  0  0
  6  7  1  0  0  0  0
  7 17  1  0  0  0  0
  8  9  1  6  0  0  0
  8  6  1  0  0  0  0
  8  2  1  0  0  0  0
  8  7  1  0  0  0  0
 10  1  1  0  0  0  0
 14  3  1  0  0  0  0
 15  3  1  0  0  0  0
 18  7  1  0  0  0  0
 19  9  1  0  0  0  0
M TOR 0 0 1 2 12
M TOR 1 0 1 2 13
M TOR 2 0 1 2 14
M TOR 3 0 1 3 4
M TOR 4 0 1 3 5
M TOR 5 0 1 7 5
M TOR 6 0 1 7 6
M TOR 7 0 1 7 8
M TOR 8 1 3 5 6
M TOR 9 1 3 5 7
M TOR 10 1 3 5 15
M TOR 11 1 7 5 6
M TOR 12 1 7 5 15
M TOR 13 1 7 6 16
M TOR 14 1 7 6 17
M TOR 15 1 7 8 18
M TOR 16 2 1 0 9
M TOR 17 2 1 0 10
M TOR 18 2 1 0 11
M TOR 19 2 1 3 4
M TOR 20 2 1 3 5
M TOR 21 2 1 7 5
M TOR 22 2 1 7 6
M TOR 23 2 1 7 8
M TOR 24 3 1 0 9
M TOR 25 3 1 0 10
M TOR 26 3 1 0 11
M TOR 27 3 1 2 12
M TOR 28 3 1 2 13
M TOR 29 3 1 2 14
M TOR 30 3 1 7 6
M TOR 31 3 1 7 8
M TOR 32 3 5 6 7
M TOR 33 3 5 6 16
M TOR 34 3 5 6 17
M TOR 35 3 5 7 8
M TOR 36 4 3 1 7
M TOR 37 4 3 5 6
M TOR 38 4 3 5 7
M TOR 39 4 3 5 15
M TOR 40 5 6 7 8
M TOR 41 5 7 6 16
M TOR 42 5 7 6 17
M TOR 43 5 7 8 18
M TOR 44 6 7 5 15
M TOR 45 6 7 8 18
M TOR 46 7 1 0 9
M TOR 47 7 1 0 10
M TOR 48 7 1 0 11
M TOR 49 7 1 2 12
M TOR 50 7 1 2 13
M TOR 51 7 1 2 14
M TOR 52 8 7 5 15
M TOR 53 8 7 6 16
M TOR 54 8 7 6 17
M  END
$$$$
