gdb 1575	3.2642424	1.219269	1.1081361	3.5691	79.3	-0.23292	-0.05559	0.17733	1172.8154	0.155757	-422.587492	-422.578621	-422.577676	-422.620714	33.668
 OpenBabel02181911403D

 19 19  0  0  0  0  0  0  0  0999 V2000
   -3.6189   -0.3740   -1.0718 C   0  0  0  0  0  0  0  0  0  0  0  0
   -2.9303   -0.0056    0.2593 C   0  0  0  0  0  0  0  0  0  0  0  0
   -3.9715    0.1521    1.3750 C   0  0  0  0  0  0  0  0  0  0  0  0
   -2.0843   -1.0687    0.7041 O   0  0  0  0  0  0  0  0  0  0  0  0
   -0.8405   -1.2025    0.0454 C   0  0  0  0  0  0  0  0  0  0  0  0
   -0.0210    0.0846    0.0209 C   0  0  0  0  0  0  0  0  0  0  0  0
    1.1880    0.0673   -0.0858 O   0  0  0  0  0  0  0  0  0  0  0  0
   -0.8148    1.3253    0.0481 C   0  0  0  0  0  0  0  0  0  0  0  0
   -2.1502    1.2774    0.1022 C   0  0  0  0  0  0  0  0  0  0  0  0
   -4.2011   -1.2905   -0.9406 H   0  0  0  0  0  0  0  0  0  0  0  0
   -4.2939    0.4241   -1.3951 H   0  0  0  0  0  0  0  0  0  0  0  0
   -2.8879   -0.5338   -1.8691 H   0  0  0  0  0  0  0  0  0  0  0  0
   -4.4996   -0.7947    1.5155 H   0  0  0  0  0  0  0  0  0  0  0  0
   -3.4816    0.4173    2.3151 H   0  0  0  0  0  0  0  0  0  0  0  0
   -4.7015    0.9269    1.1237 H   0  0  0  0  0  0  0  0  0  0  0  0
   -0.2793   -1.9715    0.5812 H   0  0  0  0  0  0  0  0  0  0  0  0
   -0.9557   -1.5465   -0.9969 H   0  0  0  0  0  0  0  0  0  0  0  0
   -0.2665    2.2582   -0.0380 H   0  0  0  0  0  0  0  0  0  0  0  0
   -2.7406    2.1889    0.0337 H   0  0  0  0  0  0  0  0  0  0  0  0
  1 10  1  0  0  0  0
  1  2  1  0  0  0  0
  2  4  1  0  0  0  0
  2  3  1  0  0  0  0
  3 13  1  0  0  0  0
  3 14  1  0  0  0  0
  5 16  1  0  0  0  0
  5  4  1  0  0  0  0
  6  5  1  0  0  0  0
  6  8  1  0  0  0  0
  7  6  2  0  0  0  0
  8  9  2  0  0  0  0
  9  2  1  0  0  0  0
 11  1  1  0  0  0  0
 12  1  1  0  0  0  0
 15  3  1  0  0  0  0
 17  5  1  0  0  0  0
 18  8  1  0  0  0  0
 19  9  1  0  0  0  0
M TOR 0 0 1 2 12
M TOR 1 0 1 2 13
M TOR 2 0 1 2 14
M TOR 3 0 1 3 4
M TOR 4 0 1 8 7
M TOR 5 0 1 8 18
M TOR 6 1 3 4 5
M TOR 7 1 3 4 15
M TOR 8 1 3 4 16
M TOR 9 1 8 7 5
M TOR 10 1 8 7 17
M TOR 11 2 1 0 9
M TOR 12 2 1 0 10
M TOR 13 2 1 0 11
M TOR 14 2 1 3 4
M TOR 15 2 1 8 7
M TOR 16 2 1 8 18
M TOR 17 3 1 0 9
M TOR 18 3 1 0 10
M TOR 19 3 1 0 11
M TOR 20 3 1 2 12
M TOR 21 3 1 2 13
M TOR 22 3 1 2 14
M TOR 23 3 1 8 7
M TOR 24 3 1 8 18
M TOR 25 3 4 5 6
M TOR 26 3 4 5 7
M TOR 27 4 3 1 8
M TOR 28 4 5 7 8
M TOR 29 4 5 7 17
M TOR 30 5 7 8 18
M TOR 31 6 5 4 15
M TOR 32 6 5 4 16
M TOR 33 6 5 7 8
M TOR 34 6 5 7 17
M TOR 35 7 5 4 15
M TOR 36 7 5 4 16
M TOR 37 8 1 0 9
M TOR 38 8 1 0 10
M TOR 39 8 1 0 11
M TOR 40 8 1 2 12
M TOR 41 8 1 2 13
M TOR 42 8 1 2 14
M  END
$$$$
