gdb 4999	3.7793754	1.1644686	1.0878577	2.5724	75.92	-0.22247	0.01711	0.23958000000000002	1161.7235	0.156279	-422.532123	-422.523623	-422.522679	-422.564845	33.406
 OpenBabel02181911413D

 19 20  0  0  1  0  0  0  0  0999 V2000
    1.8511    0.1918   -0.1451 O   0  0  0  0  0  0  0  0  0  0  0  0
    0.4584    0.4045    0.0475 C   0  0  0  0  0  0  0  0  0  0  0  0
   -0.1003    0.9886   -1.2217 C   0  0  1  0  0  0  0  0  0  0  0  0
   -1.5886    1.4755   -1.3254 C   0  0  0  0  0  0  0  0  0  0  0  0
   -1.0006    2.1932   -2.5943 C   0  0  1  0  0  0  0  0  0  0  0  0
   -1.6576    3.1874   -3.3092 O   0  0  0  0  0  0  0  0  0  0  0  0
    0.2979    2.4177   -1.7403 C   0  0  0  0  0  0  0  0  0  0  0  0
   -0.5771    0.9776   -3.4276 C   0  0  0  0  0  0  0  0  0  0  0  0
    0.0157    0.1870   -2.5326 C   0  0  0  0  0  0  0  0  0  0  0  0
    2.2072   -0.2111    0.6522 H   0  0  0  0  0  0  0  0  0  0  0  0
   -0.0605   -0.5412    0.2767 H   0  0  0  0  0  0  0  0  0  0  0  0
    0.2713    1.0920    0.8880 H   0  0  0  0  0  0  0  0  0  0  0  0
   -2.3606    0.7192   -1.4835 H   0  0  0  0  0  0  0  0  0  0  0  0
   -1.8701    2.1700   -0.5242 H   0  0  0  0  0  0  0  0  0  0  0  0
   -1.8548    3.9131   -2.7090 H   0  0  0  0  0  0  0  0  0  0  0  0
    1.2452    2.5163   -2.2719 H   0  0  0  0  0  0  0  0  0  0  0  0
    0.1878    3.1954   -0.9742 H   0  0  0  0  0  0  0  0  0  0  0  0
   -0.7459    0.8632   -4.4886 H   0  0  0  0  0  0  0  0  0  0  0  0
    0.4926   -0.7758   -2.6440 H   0  0  0  0  0  0  0  0  0  0  0  0
  1  2  1  0  0  0  0
  1 10  1  0  0  0  0
  2 11  1  0  0  0  0
  2 12  1  0  0  0  0
  3  2  1  1  0  0  0
  4  3  1  0  0  0  0
  4 14  1  0  0  0  0
  5  6  1  6  0  0  0
  5  7  1  0  0  0  0
  5  4  1  0  0  0  0
  6 15  1  0  0  0  0
  7  3  1  0  0  0  0
  7 17  1  0  0  0  0
  8  5  1  0  0  0  0
  8  9  2  0  0  0  0
  9  3  1  0  0  0  0
 13  4  1  0  0  0  0
 16  7  1  0  0  0  0
 18  8  1  0  0  0  0
 19  9  1  0  0  0  0
M TOR 0 0 1 2 3
M TOR 1 0 1 2 6
M TOR 2 0 1 2 8
M TOR 3 1 2 3 4
M TOR 4 1 2 3 12
M TOR 5 1 2 3 13
M TOR 6 1 2 6 4
M TOR 7 1 2 6 15
M TOR 8 1 2 6 16
M TOR 9 1 2 8 7
M TOR 10 1 2 8 18
M TOR 11 2 1 0 9
M TOR 12 2 3 4 5
M TOR 13 2 3 4 6
M TOR 14 2 3 4 7
M TOR 15 2 6 4 5
M TOR 16 2 6 4 7
M TOR 17 2 8 7 4
M TOR 18 2 8 7 17
M TOR 19 3 2 1 10
M TOR 20 3 2 1 11
M TOR 21 3 2 6 15
M TOR 22 3 2 6 16
M TOR 23 3 2 8 7
M TOR 24 3 2 8 18
M TOR 25 3 4 5 14
M TOR 26 3 4 6 15
M TOR 27 3 4 6 16
M TOR 28 3 4 7 8
M TOR 29 3 4 7 17
M TOR 30 4 3 2 8
M TOR 31 4 6 2 8
M TOR 32 4 7 8 18
M TOR 33 5 4 3 12
M TOR 34 5 4 3 13
M TOR 35 5 4 6 15
M TOR 36 5 4 6 16
M TOR 37 5 4 7 8
M TOR 38 5 4 7 17
M TOR 39 6 2 1 10
M TOR 40 6 2 1 11
M TOR 41 6 2 3 12
M TOR 42 6 2 3 13
M TOR 43 6 2 8 7
M TOR 44 6 2 8 18
M TOR 45 6 4 3 12
M TOR 46 6 4 3 13
M TOR 47 6 4 5 14
M TOR 48 6 4 7 8
M TOR 49 6 4 7 17
M TOR 50 7 4 3 12
M TOR 51 7 4 3 13
M TOR 52 7 4 5 14
M TOR 53 7 4 6 15
M TOR 54 7 4 6 16
M TOR 55 8 2 1 10
M TOR 56 8 2 1 11
M TOR 57 8 2 3 12
M TOR 58 8 2 3 13
M TOR 59 8 2 6 15
M TOR 60 8 2 6 16
M  END
$$$$
