
     RDKit          3D

 19 21  0  0  0  0  0  0  0  0999 V2000
    0.0192   -0.0383   -0.0692 C   0  0  0  0  0  0  0  0  0  0  0  0
    1.5178    0.0395   -0.0448 C   0  0  0  0  0  0  0  0  0  0  0  0
    2.1959   -1.1404    0.4574 O   0  0  0  0  0  0  0  0  0  0  0  0
    3.3894   -0.5667   -0.1499 C   0  0  0  0  0  0  0  0  0  0  0  0
    3.6468    0.6366    0.7751 C   0  0  0  0  0  0  0  0  0  0  0  0
    2.2428    1.2861    0.5988 C   0  0  0  0  0  0  0  0  0  0  0  0
    2.3276    2.2310   -0.6012 C   0  0  0  0  0  0  0  0  0  0  0  0
    2.7255    1.3679   -1.6894 O   0  0  0  0  0  0  0  0  0  0  0  0
    2.4695    0.0543   -1.2592 C   0  0  0  0  0  0  0  0  0  0  0  0
   -0.3745   -0.1412    0.9477 H   0  0  0  0  0  0  0  0  0  0  0  0
   -0.4082    0.8680   -0.5090 H   0  0  0  0  0  0  0  0  0  0  0  0
   -0.3174   -0.8982   -0.6549 H   0  0  0  0  0  0  0  0  0  0  0  0
    4.1828   -1.2895   -0.3376 H   0  0  0  0  0  0  0  0  0  0  0  0
    3.8412    0.2941    1.7933 H   0  0  0  0  0  0  0  0  0  0  0  0
    4.4614    1.2874    0.4468 H   0  0  0  0  0  0  0  0  0  0  0  0
    1.7860    1.7122    1.4918 H   0  0  0  0  0  0  0  0  0  0  0  0
    1.3656    2.7087   -0.8390 H   0  0  0  0  0  0  0  0  0  0  0  0
    3.0807    3.0162   -0.4814 H   0  0  0  0  0  0  0  0  0  0  0  0
    2.2379   -0.6018   -2.0973 H   0  0  0  0  0  0  0  0  0  0  0  0
  1  2  1  0
  2  3  1  0
  3  4  1  0
  4  5  1  0
  5  6  1  0
  6  7  1  0
  7  8  1  0
  8  9  1  0
  6  2  1  0
  9  2  1  0
  9  4  1  0
  1 10  1  0
  1 11  1  0
  1 12  1  0
  4 13  1  0
  5 14  1  0
  5 15  1  0
  6 16  1  0
  7 17  1  0
  7 18  1  0
  9 19  1  0
M  END
$$$$
