
     RDKit          3D

 19 21  0  0  0  0  0  0  0  0999 V2000
    0.4739   -1.2609    3.4833 C   0  0  0  0  0  0  0  0  0  0  0  0
    0.0837    0.0103    2.9607 O   0  0  0  0  0  0  0  0  0  0  0  0
   -0.3778   -1.1675    2.2925 C   0  0  0  0  0  0  0  0  0  0  0  0
    0.1108   -1.4401    0.8810 C   0  0  0  0  0  0  0  0  0  0  0  0
   -0.8111   -0.9077   -0.0791 O   0  0  0  0  0  0  0  0  0  0  0  0
   -0.3866    0.4089   -0.4443 C   0  0  0  0  0  0  0  0  0  0  0  0
    1.1236    0.3928   -0.3236 C   0  0  0  0  0  0  0  0  0  0  0  0
    1.8201   -0.8061   -0.9144 C   0  0  0  0  0  0  0  0  0  0  0  0
    1.4463   -0.7972    0.5464 C   0  0  0  0  0  0  0  0  0  0  0  0
    1.5303   -1.5053    3.3810 H   0  0  0  0  0  0  0  0  0  0  0  0
    0.0302   -1.5315    4.4404 H   0  0  0  0  0  0  0  0  0  0  0  0
   -1.4456   -1.3567    2.4129 H   0  0  0  0  0  0  0  0  0  0  0  0
    0.1027   -2.5275    0.7250 H   0  0  0  0  0  0  0  0  0  0  0  0
   -0.7591    0.5921   -1.4578 H   0  0  0  0  0  0  0  0  0  0  0  0
   -0.8134    1.1670    0.2290 H   0  0  0  0  0  0  0  0  0  0  0  0
    1.6515    1.3321   -0.2143 H   0  0  0  0  0  0  0  0  0  0  0  0
    1.2565   -1.4487   -1.5840 H   0  0  0  0  0  0  0  0  0  0  0  0
    2.8717   -0.7040   -1.1577 H   0  0  0  0  0  0  0  0  0  0  0  0
    2.2200   -0.7489    1.3012 H   0  0  0  0  0  0  0  0  0  0  0  0
  1  2  1  0
  2  3  1  0
  3  4  1  0
  4  5  1  0
  5  6  1  0
  6  7  1  0
  7  8  1  0
  8  9  1  0
  3  1  1  0
  9  4  1  0
  9  7  1  0
  1 10  1  0
  1 11  1  0
  3 12  1  0
  4 13  1  0
  6 14  1  0
  6 15  1  0
  7 16  1  0
  8 17  1  0
  8 18  1  0
  9 19  1  0
M  END
$$$$
