gdb 949	3.5185464	1.0496169	0.9052544	2.0664	77.61	-0.24714	0.01104	0.25818	1308.1931	0.158246	-422.604899	-422.596501	-422.595557	-422.638575	31.03
 OpenBabel02181911403D

 19 19  0  0  1  0  0  0  0  0999 V2000
    0.7541    0.4319   -0.8232 O   0  0  0  0  0  0  0  0  0  0  0  0
    0.3295    0.0033    0.2158 C   0  0  0  0  0  0  0  0  0  0  0  0
   -0.6250    0.5517    0.9762 O   0  0  0  0  0  0  0  0  0  0  0  0
   -1.2013    1.8018    0.5120 C   0  0  2  0  0  0  0  0  0  0  0  0
   -1.7337    2.5345    1.7367 C   0  0  0  0  0  0  0  0  0  0  0  0
   -2.3073    3.9011    1.3299 C   0  0  0  0  0  0  0  0  0  0  0  0
   -3.1553    3.8120    0.0874 C   0  0  0  0  0  0  0  0  0  0  0  0
   -3.1644    2.7539   -0.7221 C   0  0  0  0  0  0  0  0  0  0  0  0
   -2.3098    1.5300   -0.5063 C   0  0  0  0  0  0  0  0  0  0  0  0
    0.6778   -0.9213    0.7030 H   0  0  0  0  0  0  0  0  0  0  0  0
   -0.4030    2.3786    0.0358 H   0  0  0  0  0  0  0  0  0  0  0  0
   -2.5188    1.9236    2.1979 H   0  0  0  0  0  0  0  0  0  0  0  0
   -0.9367    2.6504    2.4774 H   0  0  0  0  0  0  0  0  0  0  0  0
   -2.8974    4.3142    2.1570 H   0  0  0  0  0  0  0  0  0  0  0  0
   -1.4921    4.6214    1.1666 H   0  0  0  0  0  0  0  0  0  0  0  0
   -3.7822    4.6702   -0.1418 H   0  0  0  0  0  0  0  0  0  0  0  0
   -3.8071    2.7479   -1.5987 H   0  0  0  0  0  0  0  0  0  0  0  0
   -2.9253    0.6926   -0.1473 H   0  0  0  0  0  0  0  0  0  0  0  0
   -1.8654    1.2021   -1.4518 H   0  0  0  0  0  0  0  0  0  0  0  0
  1  2  2  0  0  0  0
  2 10  1  0  0  0  0
  2  3  1  0  0  0  0
  4 11  1  6  0  0  0
  4  3  1  0  0  0  0
  4  5  1  0  0  0  0
  5 12  1  0  0  0  0
  5 13  1  0  0  0  0
  6  5  1  0  0  0  0
  6 14  1  0  0  0  0
  7  6  1  0  0  0  0
  8  9  1  0  0  0  0
  8  7  2  0  0  0  0
  9 18  1  0  0  0  0
  9  4  1  0  0  0  0
 15  6  1  0  0  0  0
 16  7  1  0  0  0  0
 17  8  1  0  0  0  0
 19  9  1  0  0  0  0
M TOR 0 0 1 2 3
M TOR 1 1 2 3 4
M TOR 2 1 2 3 8
M TOR 3 1 2 3 10
M TOR 4 2 3 4 5
M TOR 5 2 3 4 11
M TOR 6 2 3 4 12
M TOR 7 2 3 8 7
M TOR 8 2 3 8 17
M TOR 9 2 3 8 18
M TOR 10 3 2 1 9
M TOR 11 3 4 5 6
M TOR 12 3 4 5 13
M TOR 13 3 4 5 14
M TOR 14 3 8 7 6
M TOR 15 3 8 7 16
M TOR 16 4 3 8 7
M TOR 17 4 3 8 17
M TOR 18 4 3 8 18
M TOR 19 4 5 6 7
M TOR 20 4 5 6 15
M TOR 21 5 4 3 8
M TOR 22 5 4 3 10
M TOR 23 5 6 7 8
M TOR 24 5 6 7 16
M TOR 25 6 5 4 11
M TOR 26 6 5 4 12
M TOR 27 6 7 8 17
M TOR 28 6 7 8 18
M TOR 29 7 6 5 13
M TOR 30 7 6 5 14
M TOR 31 7 8 3 10
M TOR 32 8 3 4 11
M TOR 33 8 3 4 12
M TOR 34 8 7 6 15
M  END
$$$$
