gdb 1579	2.8259768	1.3434489	1.1631734	1.1331	76.7	-0.25307	0.02797	0.28104	1132.9031	0.154995	-422.534895	-422.525559	-422.524615	-422.569213	35.11
 OpenBabel02181911403D

 19 19  0  0  1  0  0  0  0  0999 V2000
   -3.4324    2.4377   -1.0467 C   0  0  0  0  0  0  0  0  0  0  0  0
   -2.4755    2.3151    0.1324 C   0  0  2  0  0  0  0  0  0  0  0  0
   -3.0577    3.0785    1.1848 O   0  0  0  0  0  0  0  0  0  0  0  0
   -1.0412    2.7977   -0.1896 C   0  0  0  0  0  0  0  0  0  0  0  0
   -0.1237    1.9639    0.5296 O   0  0  0  0  0  0  0  0  0  0  0  0
   -0.8423    0.9893    1.2888 C   0  0  2  0  0  0  0  0  0  0  0  0
   -2.2042    0.8623    0.5800 C   0  0  0  0  0  0  0  0  0  0  0  0
   -0.9662    1.3989    2.6974 C   0  0  0  0  0  0  0  0  0  0  0  0
   -1.0660    1.7458    3.8455 C   0  0  0  0  0  0  0  0  0  0  0  0
   -3.0759    1.8637   -1.9064 H   0  0  0  0  0  0  0  0  0  0  0  0
   -4.4235    2.0729   -0.7639 H   0  0  0  0  0  0  0  0  0  0  0  0
   -3.5334    3.4862   -1.3426 H   0  0  0  0  0  0  0  0  0  0  0  0
   -2.5220    2.9699    1.9811 H   0  0  0  0  0  0  0  0  0  0  0  0
   -0.8126    2.7141   -1.2592 H   0  0  0  0  0  0  0  0  0  0  0  0
   -0.9195    3.8428    0.1154 H   0  0  0  0  0  0  0  0  0  0  0  0
   -0.2681    0.0574    1.2463 H   0  0  0  0  0  0  0  0  0  0  0  0
   -2.0896    0.2082   -0.2895 H   0  0  0  0  0  0  0  0  0  0  0  0
   -2.9996    0.4766    1.2190 H   0  0  0  0  0  0  0  0  0  0  0  0
   -1.1418    2.0426    4.8629 H   0  0  0  0  0  0  0  0  0  0  0  0
  1 11  1  0  0  0  0
  1  2  1  0  0  0  0
  2  7  1  0  0  0  0
  2  3  1  1  0  0  0
  3 13  1  0  0  0  0
  4 15  1  0  0  0  0
  4  2  1  0  0  0  0
  4  5  1  0  0  0  0
  5  6  1  0  0  0  0
  6 16  1  6  0  0  0
  6  8  1  0  0  0  0
  7 18  1  0  0  0  0
  7  6  1  0  0  0  0
  8  9  3  0  0  0  0
  9 19  1  0  0  0  0
 10  1  1  0  0  0  0
 12  1  1  0  0  0  0
 14  4  1  0  0  0  0
 17  7  1  0  0  0  0
M TOR 0 0 1 2 12
M TOR 1 0 1 3 4
M TOR 2 0 1 3 13
M TOR 3 0 1 3 14
M TOR 4 0 1 6 5
M TOR 5 0 1 6 16
M TOR 6 0 1 6 17
M TOR 7 1 3 4 5
M TOR 8 1 6 5 4
M TOR 9 1 6 5 7
M TOR 10 1 6 5 15
M TOR 11 2 1 0 9
M TOR 12 2 1 0 10
M TOR 13 2 1 0 11
M TOR 14 2 1 3 4
M TOR 15 2 1 3 13
M TOR 16 2 1 3 14
M TOR 17 2 1 6 5
M TOR 18 2 1 6 16
M TOR 19 2 1 6 17
M TOR 20 3 1 0 9
M TOR 21 3 1 0 10
M TOR 22 3 1 0 11
M TOR 23 3 1 2 12
M TOR 24 3 1 6 5
M TOR 25 3 1 6 16
M TOR 26 3 1 6 17
M TOR 27 3 4 5 6
M TOR 28 3 4 5 7
M TOR 29 3 4 5 15
M TOR 30 4 3 1 6
M TOR 31 4 5 6 16
M TOR 32 4 5 6 17
M TOR 33 4 5 7 8
M TOR 34 5 4 3 13
M TOR 35 5 4 3 14
M TOR 36 5 7 8 18
M TOR 37 6 1 0 9
M TOR 38 6 1 0 10
M TOR 39 6 1 0 11
M TOR 40 6 1 2 12
M TOR 41 6 1 3 13
M TOR 42 6 1 3 14
M TOR 43 6 5 7 8
M TOR 44 7 5 6 16
M TOR 45 7 5 6 17
M TOR 46 8 7 5 15
M  END
$$$$
