gdb 4680	3.1253412	1.0362406	0.8927963	1.9343	77.4	-0.237	-0.01895	0.21805	1353.0372	0.156319	-422.538428	-422.529452	-422.528507	-422.573015	32.635
 OpenBabel02181911413D

 19 20  0  0  1  0  0  0  0  0999 V2000
    0.7803   -0.2534   -0.7055 O   0  0  0  0  0  0  0  0  0  0  0  0
    0.5255   -0.5820    0.6472 C   0  0  0  0  0  0  0  0  0  0  0  0
   -0.1774    0.5071    1.4697 C   0  0  0  0  0  0  0  0  0  0  0  0
   -0.8008    0.1991    2.4663 O   0  0  0  0  0  0  0  0  0  0  0  0
   -0.0291    1.9105    1.0061 C   0  0  2  0  0  0  0  0  0  0  0  0
   -0.0337    2.9606    2.1079 C   0  0  1  0  0  0  0  0  0  0  0  0
    0.2604    4.3369    1.5015 C   0  0  0  0  0  0  0  0  0  0  0  0
   -1.0042    4.1711    0.5895 C   0  0  0  0  0  0  0  0  0  0  0  0
   -1.2479    2.8005    1.2297 C   0  0  1  0  0  0  0  0  0  0  0  0
   -0.0618   -0.2282   -1.1707 H   0  0  0  0  0  0  0  0  0  0  0  0
   -0.0508   -1.5093    0.7637 H   0  0  0  0  0  0  0  0  0  0  0  0
    1.5062   -0.7526    1.1095 H   0  0  0  0  0  0  0  0  0  0  0  0
    0.5839    2.0565    0.1227 H   0  0  0  0  0  0  0  0  0  0  0  0
    0.1000    2.6469    3.1352 H   0  0  0  0  0  0  0  0  0  0  0  0
    0.1456    5.1503    2.2213 H   0  0  0  0  0  0  0  0  0  0  0  0
    1.2263    4.4481    0.9992 H   0  0  0  0  0  0  0  0  0  0  0  0
   -1.7849    4.8956    0.8320 H   0  0  0  0  0  0  0  0  0  0  0  0
   -0.8436    4.1799   -0.4931 H   0  0  0  0  0  0  0  0  0  0  0  0
   -2.1991    2.3432    1.4713 H   0  0  0  0  0  0  0  0  0  0  0  0
  1  2  1  0  0  0  0
  2 11  1  0  0  0  0
  2 12  1  0  0  0  0
  2  3  1  0  0  0  0
  3  4  2  0  0  0  0
  5 13  1  6  0  0  0
  5  9  1  0  0  0  0
  5  3  1  0  0  0  0
  5  6  1  0  0  0  0
  6 14  1  1  0  0  0
  7  6  1  0  0  0  0
  7 15  1  0  0  0  0
  8 17  1  0  0  0  0
  8  9  1  0  0  0  0
  8  7  1  0  0  0  0
  9 19  1  1  0  0  0
  9  6  1  0  0  0  0
 10  1  1  0  0  0  0
 16  7  1  0  0  0  0
 18  8  1  0  0  0  0
M TOR 0 0 1 2 3
M TOR 1 0 1 2 4
M TOR 2 1 2 4 5
M TOR 3 1 2 4 8
M TOR 4 1 2 4 12
M TOR 5 2 1 0 9
M TOR 6 2 4 5 6
M TOR 7 2 4 5 8
M TOR 8 2 4 5 13
M TOR 9 2 4 8 7
M TOR 10 2 4 8 18
M TOR 11 3 2 1 10
M TOR 12 3 2 1 11
M TOR 13 3 2 4 5
M TOR 14 3 2 4 8
M TOR 15 3 2 4 12
M TOR 16 4 2 1 10
M TOR 17 4 2 1 11
M TOR 18 4 5 6 7
M TOR 19 4 5 6 14
M TOR 20 4 5 6 15
M TOR 21 4 5 8 7
M TOR 22 4 5 8 18
M TOR 23 4 8 5 6
M TOR 24 4 8 5 13
M TOR 25 4 8 7 6
M TOR 26 4 8 7 16
M TOR 27 4 8 7 17
M TOR 28 5 6 7 8
M TOR 29 5 6 7 16
M TOR 30 5 6 7 17
M TOR 31 5 8 4 12
M TOR 32 5 8 7 16
M TOR 33 5 8 7 17
M TOR 34 6 5 4 12
M TOR 35 6 5 8 18
M TOR 36 6 7 8 18
M TOR 37 7 6 5 13
M TOR 38 7 8 4 12
M TOR 39 7 8 5 13
M TOR 40 8 5 6 14
M TOR 41 8 5 6 15
M TOR 42 8 7 6 14
M TOR 43 8 7 6 15
M  END
$$$$
