
     RDKit          3D

 19 20  0  0  0  0  0  0  0  0999 V2000
   -3.0605    1.3525   -1.5692 C   0  0  0  0  0  0  0  0  0  0  0  0
   -1.6922    0.7171   -1.3357 C   0  0  0  0  0  0  0  0  0  0  0  0
   -1.6766   -0.8530   -1.2673 C   0  0  0  0  0  0  0  0  0  0  0  0
   -1.0069   -1.0765    0.1101 C   0  0  0  0  0  0  0  0  0  0  0  0
   -1.7662   -0.0329    0.9919 C   0  0  0  0  0  0  0  0  0  0  0  0
   -1.0628    1.0267    0.0431 C   0  0  0  0  0  0  0  0  0  0  0  0
   -0.8908    2.3634    0.3393 O   0  0  0  0  0  0  0  0  0  0  0  0
    0.0826    0.0073    0.0950 C   0  0  0  0  0  0  0  0  0  0  0  0
    1.2587    0.0889    0.3091 O   0  0  0  0  0  0  0  0  0  0  0  0
   -3.7915    1.0413   -0.8160 H   0  0  0  0  0  0  0  0  0  0  0  0
   -2.9889    2.4436   -1.5386 H   0  0  0  0  0  0  0  0  0  0  0  0
   -3.4538    1.0638   -2.5498 H   0  0  0  0  0  0  0  0  0  0  0  0
   -1.0091    1.0738   -2.1144 H   0  0  0  0  0  0  0  0  0  0  0  0
   -2.6895   -1.2673   -1.2824 H   0  0  0  0  0  0  0  0  0  0  0  0
   -1.1138   -1.3059   -2.0874 H   0  0  0  0  0  0  0  0  0  0  0  0
   -0.8116   -2.0923    0.4436 H   0  0  0  0  0  0  0  0  0  0  0  0
   -2.8561   -0.0721    0.9599 H   0  0  0  0  0  0  0  0  0  0  0  0
   -1.4064    0.0177    2.0211 H   0  0  0  0  0  0  0  0  0  0  0  0
   -0.0837    2.4507    0.8610 H   0  0  0  0  0  0  0  0  0  0  0  0
  1  2  1  0
  2  3  1  0
  3  4  1  0
  4  5  1  0
  5  6  1  0
  6  7  1  0
  6  8  1  0
  8  9  2  0
  6  2  1  0
  8  4  1  0
  1 10  1  0
  1 11  1  0
  1 12  1  0
  2 13  1  0
  3 14  1  0
  3 15  1  0
  4 16  1  0
  5 17  1  0
  5 18  1  0
  7 19  1  0
M  END
$$$$
