
     RDKit          3D

 19 19  0  0  0  0  0  0  0  0999 V2000
    1.4025   -0.2617    0.0495 C   0  0  0  0  0  0  0  0  0  0  0  0
    0.0145   -0.0320    0.0632 O   0  0  0  0  0  0  0  0  0  0  0  0
   -0.4128    0.6768    1.2043 C   0  0  0  0  0  0  0  0  0  0  0  0
   -1.9298    0.8607    1.1057 C   0  0  0  0  0  0  0  0  0  0  0  0
   -2.5046    1.5830    2.2730 C   0  0  0  0  0  0  0  0  0  0  0  0
   -3.0927    2.8006    2.4295 C   0  0  0  0  0  0  0  0  0  0  0  0
   -3.4274    2.9216    3.8188 C   0  0  0  0  0  0  0  0  0  0  0  0
   -3.0151    1.7688    4.4032 C   0  0  0  0  0  0  0  0  0  0  0  0
   -2.4513    0.9428    3.4803 O   0  0  0  0  0  0  0  0  0  0  0  0
    1.7277   -0.8559    0.9184 H   0  0  0  0  0  0  0  0  0  0  0  0
    1.6343   -0.8159   -0.8634 H   0  0  0  0  0  0  0  0  0  0  0  0
    1.9736    0.6806    0.0478 H   0  0  0  0  0  0  0  0  0  0  0  0
   -0.1582    0.1266    2.1247 H   0  0  0  0  0  0  0  0  0  0  0  0
    0.0845    1.6598    1.2634 H   0  0  0  0  0  0  0  0  0  0  0  0
   -2.1627    1.4204    0.1953 H   0  0  0  0  0  0  0  0  0  0  0  0
   -2.3884   -0.1300    1.0025 H   0  0  0  0  0  0  0  0  0  0  0  0
   -3.2703    3.5238    1.6488 H   0  0  0  0  0  0  0  0  0  0  0  0
   -3.9103    3.7532    4.3076 H   0  0  0  0  0  0  0  0  0  0  0  0
   -3.0463    1.3904    5.4115 H   0  0  0  0  0  0  0  0  0  0  0  0
  1  2  1  0
  2  3  1  0
  3  4  1  0
  4  5  1  0
  5  6  2  0
  6  7  1  0
  7  8  2  0
  8  9  1  0
  9  5  1  0
  1 10  1  0
  1 11  1  0
  1 12  1  0
  3 13  1  0
  3 14  1  0
  4 15  1  0
  4 16  1  0
  6 17  1  0
  7 18  1  0
  8 19  1  0
M  END
$$$$
