gdb 5185	3.5618516	1.400311	1.3684141	0.5916	73.	-0.22906	0.0689	0.29796	1014.2253	0.158846	-422.562401	-422.554917	-422.553972	-422.594245	29.909
 OpenBabel02181911423D

 19 21  0  0  1  0  0  0  0  0999 V2000
    1.2844    0.4891   -0.2360 O   0  0  0  0  0  0  0  0  0  0  0  0
   -0.0967    0.2296   -0.0285 C   0  0  0  0  0  0  0  0  0  0  0  0
   -0.7535    0.1768   -1.3858 C   0  0  1  0  0  0  0  0  0  0  0  0
   -0.7436    1.4476   -2.2705 C   0  0  0  0  0  0  0  0  0  0  0  0
   -1.6657    0.8873   -3.3449 C   0  0  1  0  0  0  0  0  0  0  0  0
   -1.3927   -0.6203   -3.4182 C   0  0  1  0  0  0  0  0  0  0  0  0
   -0.3148   -0.9211   -2.3857 C   0  0  0  0  0  0  0  0  0  0  0  0
   -2.5445   -0.0885   -2.5980 C   0  0  1  0  0  0  0  0  0  0  0  0
   -2.1631   -0.0858   -1.2338 O   0  0  0  0  0  0  0  0  0  0  0  0
    1.7143    0.5255    0.6228 H   0  0  0  0  0  0  0  0  0  0  0  0
   -0.2590   -0.7289    0.4873 H   0  0  0  0  0  0  0  0  0  0  0  0
   -0.5745    1.0183    0.5721 H   0  0  0  0  0  0  0  0  0  0  0  0
   -1.1731    2.3067   -1.7460 H   0  0  0  0  0  0  0  0  0  0  0  0
    0.2587    1.6983   -2.6237 H   0  0  0  0  0  0  0  0  0  0  0  0
   -2.0142    1.4591   -4.1941 H   0  0  0  0  0  0  0  0  0  0  0  0
   -1.5335   -1.1952   -4.3234 H   0  0  0  0  0  0  0  0  0  0  0  0
   -0.4078   -1.9214   -1.9517 H   0  0  0  0  0  0  0  0  0  0  0  0
    0.7057   -0.7710   -2.7438 H   0  0  0  0  0  0  0  0  0  0  0  0
   -3.5948   -0.2701   -2.7749 H   0  0  0  0  0  0  0  0  0  0  0  0
  1  2  1  0  0  0  0
  1 10  1  0  0  0  0
  2 11  1  0  0  0  0
  2 12  1  0  0  0  0
  3  9  1  0  0  0  0
  3  2  1  1  0  0  0
  4 13  1  0  0  0  0
  4  3  1  0  0  0  0
  5 15  1  6  0  0  0
  5  8  1  0  0  0  0
  5  4  1  0  0  0  0
  6 16  1  6  0  0  0
  6  5  1  0  0  0  0
  6  8  1  0  0  0  0
  6  7  1  0  0  0  0
  7 17  1  0  0  0  0
  7  3  1  0  0  0  0
  8 19  1  6  0  0  0
  8  9  1  0  0  0  0
 14  4  1  0  0  0  0
 18  7  1  0  0  0  0
M TOR 0 0 1 2 3
M TOR 1 0 1 2 6
M TOR 2 0 1 2 8
M TOR 3 1 2 3 4
M TOR 4 1 2 3 12
M TOR 5 1 2 3 13
M TOR 6 1 2 6 5
M TOR 7 1 2 6 16
M TOR 8 1 2 6 17
M TOR 9 1 2 8 7
M TOR 10 2 1 0 9
M TOR 11 2 3 4 5
M TOR 12 2 3 4 7
M TOR 13 2 3 4 14
M TOR 14 2 6 5 4
M TOR 15 2 6 5 7
M TOR 16 2 6 5 15
M TOR 17 2 8 7 4
M TOR 18 2 8 7 5
M TOR 19 2 8 7 18
M TOR 20 3 2 1 10
M TOR 21 3 2 1 11
M TOR 22 3 2 6 5
M TOR 23 3 2 6 16
M TOR 24 3 2 6 17
M TOR 25 3 2 8 7
M TOR 26 3 4 5 6
M TOR 27 3 4 5 7
M TOR 28 3 4 5 15
M TOR 29 3 4 7 8
M TOR 30 3 4 7 18
M TOR 31 4 3 2 6
M TOR 32 4 3 2 8
M TOR 33 4 5 6 16
M TOR 34 4 5 6 17
M TOR 35 4 5 7 8
M TOR 36 4 5 7 18
M TOR 37 4 7 5 6
M TOR 38 4 7 5 15
M TOR 39 5 4 3 12
M TOR 40 5 4 3 13
M TOR 41 5 6 2 8
M TOR 42 5 7 4 14
M TOR 43 6 2 1 10
M TOR 44 6 2 1 11
M TOR 45 6 2 3 12
M TOR 46 6 2 3 13
M TOR 47 6 2 8 7
M TOR 48 6 5 4 14
M TOR 49 6 5 7 8
M TOR 50 6 5 7 18
M TOR 51 7 4 3 12
M TOR 52 7 4 3 13
M TOR 53 7 5 6 16
M TOR 54 7 5 6 17
M TOR 55 8 2 1 10
M TOR 56 8 2 1 11
M TOR 57 8 2 3 12
M TOR 58 8 2 3 13
M TOR 59 8 2 6 16
M TOR 60 8 2 6 17
M TOR 61 8 7 4 14
M TOR 62 8 7 5 15
M  END
$$$$
