
     RDKit          3D

 19 20  0  0  0  0  0  0  0  0999 V2000
   -0.0354   -0.0636    0.1491 C   0  0  0  0  0  0  0  0  0  0  0  0
    1.4761   -0.1303    0.0604 C   0  0  0  0  0  0  0  0  0  0  0  0
    1.9505    0.2963   -1.2643 O   0  0  0  0  0  0  0  0  0  0  0  0
    2.8564   -0.8223   -1.3524 C   0  0  0  0  0  0  0  0  0  0  0  0
    2.1524   -1.5080   -0.1581 C   0  0  0  0  0  0  0  0  0  0  0  0
    2.8650   -2.0913    0.8956 O   0  0  0  0  0  0  0  0  0  0  0  0
    3.7351   -1.2310    1.6125 C   0  0  0  0  0  0  0  0  0  0  0  0
    3.2041    0.1580    1.8154 C   0  0  0  0  0  0  0  0  0  0  0  0
    2.1746    0.6536    1.1337 C   0  0  0  0  0  0  0  0  0  0  0  0
   -0.3814   -0.5010    1.0915 H   0  0  0  0  0  0  0  0  0  0  0  0
   -0.3773    0.9763    0.1099 H   0  0  0  0  0  0  0  0  0  0  0  0
   -0.4924   -0.6054   -0.6837 H   0  0  0  0  0  0  0  0  0  0  0  0
    2.7987   -1.3235   -2.3239 H   0  0  0  0  0  0  0  0  0  0  0  0
    3.8971   -0.5311   -1.1571 H   0  0  0  0  0  0  0  0  0  0  0  0
    1.4405   -2.2687   -0.4862 H   0  0  0  0  0  0  0  0  0  0  0  0
    3.9043   -1.7198    2.5793 H   0  0  0  0  0  0  0  0  0  0  0  0
    4.7206   -1.1772    1.1170 H   0  0  0  0  0  0  0  0  0  0  0  0
    3.7305    0.7626    2.5502 H   0  0  0  0  0  0  0  0  0  0  0  0
    1.8310    1.6716    1.3015 H   0  0  0  0  0  0  0  0  0  0  0  0
  1  2  1  0
  2  3  1  0
  3  4  1  0
  4  5  1  0
  5  6  1  0
  6  7  1  0
  7  8  1  0
  8  9  2  0
  5  2  1  0
  9  2  1  0
  1 10  1  0
  1 11  1  0
  1 12  1  0
  4 13  1  0
  4 14  1  0
  5 15  1  0
  7 16  1  0
  7 17  1  0
  8 18  1  0
  9 19  1  0
M  END
$$$$
