gdb 4740	1.953239	1.0899827	0.8893922	3.4384	81.41	-0.24679	-0.03005	0.21674000000000002	1434.679	0.152599	-422.543386	-422.53212	-422.531176	-422.581272	38.102
 OpenBabel02181911413D

 19 18  0  0  1  0  0  0  0  0999 V2000
    1.5098   -0.0500    0.0276 C   0  0  0  0  0  0  0  0  0  0  0  0
    0.0543   -0.0030    0.0115 C   0  0  0  0  0  0  0  0  0  0  0  0
   -1.1511    0.0257   -0.0093 C   0  0  0  0  0  0  0  0  0  0  0  0
   -2.6158    0.0703   -0.0024 C   0  0  2  0  0  0  0  0  0  0  0  0
   -3.1662    0.0425   -1.4507 C   0  0  0  0  0  0  0  0  0  0  0  0
   -3.0990    1.3409    0.7410 C   0  0  0  0  0  0  0  0  0  0  0  0
   -2.6301    2.5241    0.1273 O   0  0  0  0  0  0  0  0  0  0  0  0
   -3.1192   -1.1893    0.7132 C   0  0  0  0  0  0  0  0  0  0  0  0
   -3.8993   -1.1852    1.6278 O   0  0  0  0  0  0  0  0  0  0  0  0
    1.9098    0.3073    0.9826 H   0  0  0  0  0  0  0  0  0  0  0  0
    1.8703   -1.0736   -0.1211 H   0  0  0  0  0  0  0  0  0  0  0  0
    1.9368    0.5706   -0.7676 H   0  0  0  0  0  0  0  0  0  0  0  0
   -2.7896   -0.8229   -2.0021 H   0  0  0  0  0  0  0  0  0  0  0  0
   -4.2601    0.0060   -1.4377 H   0  0  0  0  0  0  0  0  0  0  0  0
   -2.8542    0.9534   -1.9648 H   0  0  0  0  0  0  0  0  0  0  0  0
   -4.1905    1.3805    0.7101 H   0  0  0  0  0  0  0  0  0  0  0  0
   -2.7981    1.2764    1.7948 H   0  0  0  0  0  0  0  0  0  0  0  0
   -1.6663    2.4907    0.1507 H   0  0  0  0  0  0  0  0  0  0  0  0
   -2.7063   -2.1362    0.2997 H   0  0  0  0  0  0  0  0  0  0  0  0
  1 10  1  0  0  0  0
  2  1  1  0  0  0  0
  3  2  3  0  0  0  0
  4  3  1  6  0  0  0
  4  8  1  0  0  0  0
  4  6  1  0  0  0  0
  5 14  1  0  0  0  0
  5  4  1  0  0  0  0
  6 17  1  0  0  0  0
  7 18  1  0  0  0  0
  7  6  1  0  0  0  0
  8  9  2  0  0  0  0
 11  1  1  0  0  0  0
 12  1  1  0  0  0  0
 13  5  1  0  0  0  0
 15  5  1  0  0  0  0
 16  6  1  0  0  0  0
 19  8  1  0  0  0  0
M TOR 0 0 1 2 3
M TOR 1 1 2 3 4
M TOR 2 1 2 3 5
M TOR 3 1 2 3 7
M TOR 4 2 1 0 9
M TOR 5 2 1 0 10
M TOR 6 2 1 0 11
M TOR 7 2 3 4 12
M TOR 8 2 3 4 13
M TOR 9 2 3 4 14
M TOR 10 2 3 5 6
M TOR 11 2 3 5 15
M TOR 12 2 3 5 16
M TOR 13 2 3 7 8
M TOR 14 2 3 7 18
M TOR 15 3 5 6 17
M TOR 16 4 3 5 6
M TOR 17 4 3 5 15
M TOR 18 4 3 5 16
M TOR 19 4 3 7 8
M TOR 20 4 3 7 18
M TOR 21 5 3 4 12
M TOR 22 5 3 4 13
M TOR 23 5 3 4 14
M TOR 24 5 3 7 8
M TOR 25 5 3 7 18
M TOR 26 6 5 3 7
M TOR 27 7 3 4 12
M TOR 28 7 3 4 13
M TOR 29 7 3 4 14
M TOR 30 7 3 5 15
M TOR 31 7 3 5 16
M  END
$$$$
