
     RDKit          3D

 19 20  0  0  0  0  0  0  0  0999 V2000
    1.4211   -0.1588   -0.3089 C   0  0  0  0  0  0  0  0  0  0  0  0
    0.0375   -0.0476   -0.0440 O   0  0  0  0  0  0  0  0  0  0  0  0
   -0.2454    0.5833    1.1709 C   0  0  0  0  0  0  0  0  0  0  0  0
   -0.0862   -0.2111    2.4801 C   0  0  0  0  0  0  0  0  0  0  0  0
   -0.9556   -1.4171    2.4157 C   0  0  0  0  0  0  0  0  0  0  0  0
   -1.6173   -0.0912    2.7769 C   0  0  0  0  0  0  0  0  0  0  0  0
   -2.3785    0.1317    4.0514 C   0  0  0  0  0  0  0  0  0  0  0  0
   -1.7588    0.7165    1.5244 C   0  0  0  0  0  0  0  0  0  0  0  0
   -2.6377    1.4006    1.0812 O   0  0  0  0  0  0  0  0  0  0  0  0
    1.9341   -0.7758    0.4433 H   0  0  0  0  0  0  0  0  0  0  0  0
    1.5257   -0.6335   -1.2870 H   0  0  0  0  0  0  0  0  0  0  0  0
    1.9050    0.8296   -0.3369 H   0  0  0  0  0  0  0  0  0  0  0  0
    0.2320    1.5754    1.2255 H   0  0  0  0  0  0  0  0  0  0  0  0
    0.7098   -0.0867    3.2030 H   0  0  0  0  0  0  0  0  0  0  0  0
   -1.1458   -1.8884    1.4571 H   0  0  0  0  0  0  0  0  0  0  0  0
   -0.8893   -2.1065    3.2515 H   0  0  0  0  0  0  0  0  0  0  0  0
   -1.9174   -0.4042    4.8868 H   0  0  0  0  0  0  0  0  0  0  0  0
   -2.4208    1.1954    4.3059 H   0  0  0  0  0  0  0  0  0  0  0  0
   -3.4089   -0.2262    3.9535 H   0  0  0  0  0  0  0  0  0  0  0  0
  1  2  1  0
  2  3  1  0
  3  4  1  0
  4  5  1  0
  5  6  1  0
  6  7  1  0
  6  8  1  0
  8  9  2  0
  8  3  1  0
  6  4  1  0
  1 10  1  0
  1 11  1  0
  1 12  1  0
  3 13  1  0
  4 14  1  0
  5 15  1  0
  5 16  1  0
  7 17  1  0
  7 18  1  0
  7 19  1  0
M  END
$$$$
