gdb 3505	2.496157	1.8063802	1.3535623	2.4913	75.67	-0.24639	0.01421	0.2606	1002.404	0.159335	-422.555576	-422.548037	-422.547093	-422.587284	30.129
 OpenBabel02181911413D

 19 20  0  0  1  0  0  0  0  0999 V2000
    2.3312    2.4250   -1.8934 O   0  0  0  0  0  0  0  0  0  0  0  0
    2.2253    1.3464   -0.9631 C   0  0  2  0  0  0  0  0  0  0  0  0
    1.7349    0.1097   -1.6849 C   0  0  0  0  0  0  0  0  0  0  0  0
    0.5749   -0.5430   -1.5809 C   0  0  0  0  0  0  0  0  0  0  0  0
   -0.5972   -0.2866   -0.6686 C   0  0  0  0  0  0  0  0  0  0  0  0
   -0.3982    0.7879    0.3889 C   0  0  1  0  0  0  0  0  0  0  0  0
    0.9184    0.6954    1.1900 C   0  0  0  0  0  0  0  0  0  0  0  0
    1.3882    1.7980    0.2262 C   0  0  2  0  0  0  0  0  0  0  0  0
    0.0226    2.0479   -0.2039 O   0  0  0  0  0  0  0  0  0  0  0  0
    1.4210    2.6371   -2.1391 H   0  0  0  0  0  0  0  0  0  0  0  0
    3.2515    1.1689   -0.6130 H   0  0  0  0  0  0  0  0  0  0  0  0
    2.4357   -0.2315   -2.4442 H   0  0  0  0  0  0  0  0  0  0  0  0
    0.4223   -1.3834   -2.2568 H   0  0  0  0  0  0  0  0  0  0  0  0
   -1.4675   -0.0179   -1.2856 H   0  0  0  0  0  0  0  0  0  0  0  0
   -0.8771   -1.2242   -0.1654 H   0  0  0  0  0  0  0  0  0  0  0  0
   -1.3140    0.9204    0.9747 H   0  0  0  0  0  0  0  0  0  0  0  0
    0.8161    1.0448    2.2184 H   0  0  0  0  0  0  0  0  0  0  0  0
    1.4551   -0.2542    1.1707 H   0  0  0  0  0  0  0  0  0  0  0  0
    1.8353    2.6976    0.6605 H   0  0  0  0  0  0  0  0  0  0  0  0
  1  2  1  0  0  0  0
  2 11  1  1  0  0  0
  2  8  1  0  0  0  0
  3  4  2  0  0  0  0
  3  2  1  0  0  0  0
  4  5  1  0  0  0  0
  5 15  1  0  0  0  0
  5  6  1  0  0  0  0
  6 16  1  1  0  0  0
  6  7  1  0  0  0  0
  7 17  1  0  0  0  0
  8 19  1  1  0  0  0
  8  7  1  0  0  0  0
  9  8  1  0  0  0  0
  9  6  1  0  0  0  0
 10  1  1  0  0  0  0
 12  3  1  0  0  0  0
 13  4  1  0  0  0  0
 14  5  1  0  0  0  0
 18  7  1  0  0  0  0
M TOR 0 0 1 2 3
M TOR 1 0 1 2 11
M TOR 2 0 1 7 6
M TOR 3 0 1 7 8
M TOR 4 0 1 7 18
M TOR 5 1 2 3 4
M TOR 6 1 2 3 12
M TOR 7 1 7 6 5
M TOR 8 1 7 6 16
M TOR 9 1 7 6 17
M TOR 10 1 7 8 5
M TOR 11 2 1 0 9
M TOR 12 2 1 7 6
M TOR 13 2 1 7 8
M TOR 14 2 1 7 18
M TOR 15 2 3 4 5
M TOR 16 2 3 4 13
M TOR 17 2 3 4 14
M TOR 18 3 2 1 7
M TOR 19 3 2 1 10
M TOR 20 3 4 5 6
M TOR 21 3 4 5 8
M TOR 22 3 4 5 15
M TOR 23 4 3 2 11
M TOR 24 4 5 6 7
M TOR 25 4 5 6 16
M TOR 26 4 5 6 17
M TOR 27 4 5 8 7
M TOR 28 5 4 3 12
M TOR 29 5 6 7 8
M TOR 30 5 6 7 18
M TOR 31 5 8 7 18
M TOR 32 6 5 4 13
M TOR 33 6 5 4 14
M TOR 34 6 7 1 10
M TOR 35 7 1 0 9
M TOR 36 7 1 2 11
M TOR 37 7 6 5 15
M TOR 38 7 8 5 15
M TOR 39 8 5 4 13
M TOR 40 8 5 4 14
M TOR 41 8 5 6 16
M TOR 42 8 5 6 17
M TOR 43 8 7 1 10
M TOR 44 8 7 6 16
M TOR 45 8 7 6 17
M  END
$$$$
