
     RDKit          3D

 19 20  0  0  0  0  0  0  0  0999 V2000
   -0.0694   -0.1240    0.2063 C   0  0  0  0  0  0  0  0  0  0  0  0
    1.4472   -0.0335    0.0635 C   0  0  0  0  0  0  0  0  0  0  0  0
    2.1387   -0.6669    1.2672 C   0  0  0  0  0  0  0  0  0  0  0  0
    2.1305   -0.2842   -1.3233 C   0  0  0  0  0  0  0  0  0  0  0  0
    1.5433    1.0242   -1.8975 C   0  0  0  0  0  0  0  0  0  0  0  0
    2.1364    1.2960   -0.4843 C   0  0  0  0  0  0  0  0  0  0  0  0
    3.3083    0.4975   -0.8693 O   0  0  0  0  0  0  0  0  0  0  0  0
    2.3204    2.5927    0.2252 C   0  0  0  0  0  0  0  0  0  0  0  0
    3.3752    3.0104    0.6262 O   0  0  0  0  0  0  0  0  0  0  0  0
   -0.3917    0.3595    1.1349 H   0  0  0  0  0  0  0  0  0  0  0  0
   -0.6311    0.3240   -0.6144 H   0  0  0  0  0  0  0  0  0  0  0  0
   -0.3691   -1.1759    0.2753 H   0  0  0  0  0  0  0  0  0  0  0  0
    1.8685   -1.7266    1.3411 H   0  0  0  0  0  0  0  0  0  0  0  0
    3.2217   -0.5844    1.1870 H   0  0  0  0  0  0  0  0  0  0  0  0
    1.8150   -0.1855    2.1964 H   0  0  0  0  0  0  0  0  0  0  0  0
    2.3339   -1.2289   -1.8297 H   0  0  0  0  0  0  0  0  0  0  0  0
    2.1343    1.4601   -2.7028 H   0  0  0  0  0  0  0  0  0  0  0  0
    0.4714    1.1160   -2.0643 H   0  0  0  0  0  0  0  0  0  0  0  0
    1.3683    3.1536    0.3727 H   0  0  0  0  0  0  0  0  0  0  0  0
  1  2  1  0
  2  3  1  0
  2  4  1  0
  4  5  1  0
  5  6  1  0
  6  7  1  0
  6  8  1  0
  8  9  2  0
  6  2  1  0
  7  4  1  0
  1 10  1  0
  1 11  1  0
  1 12  1  0
  3 13  1  0
  3 14  1  0
  3 15  1  0
  4 16  1  0
  5 17  1  0
  5 18  1  0
  8 19  1  0
M  END
$$$$
