
     RDKit          3D

 19 21  0  0  0  0  0  0  0  0999 V2000
   -0.0503   -0.2033    0.3624 C   0  0  0  0  0  0  0  0  0  0  0  0
    1.4290   -0.0094    0.1925 C   0  0  0  0  0  0  0  0  0  0  0  0
    2.5183   -1.1182   -0.0270 C   0  0  0  0  0  0  0  0  0  0  0  0
    3.3001    0.2398   -0.0529 C   0  0  0  0  0  0  0  0  0  0  0  0
    4.6328    0.4769   -0.3023 O   0  0  0  0  0  0  0  0  0  0  0  0
    2.4324    0.6785    1.1748 C   0  0  0  0  0  0  0  0  0  0  0  0
    2.1596    0.7685   -0.9181 C   0  0  0  0  0  0  0  0  0  0  0  0
    1.9111    1.9561   -1.7162 C   0  0  0  0  0  0  0  0  0  0  0  0
    1.9920    0.6276   -2.3037 O   0  0  0  0  0  0  0  0  0  0  0  0
   -0.2708   -0.8514    1.2167 H   0  0  0  0  0  0  0  0  0  0  0  0
   -0.5566    0.7538    0.5284 H   0  0  0  0  0  0  0  0  0  0  0  0
   -0.4840   -0.6633   -0.5317 H   0  0  0  0  0  0  0  0  0  0  0  0
    2.7089   -1.7685    0.8324 H   0  0  0  0  0  0  0  0  0  0  0  0
    2.4700   -1.6747   -0.9649 H   0  0  0  0  0  0  0  0  0  0  0  0
    5.1605   -0.0041    0.3437 H   0  0  0  0  0  0  0  0  0  0  0  0
    2.6195    0.1377    2.1065 H   0  0  0  0  0  0  0  0  0  0  0  0
    2.3104    1.7521    1.3405 H   0  0  0  0  0  0  0  0  0  0  0  0
    0.9204    2.4077   -1.7435 H   0  0  0  0  0  0  0  0  0  0  0  0
    2.7335    2.6198   -1.9773 H   0  0  0  0  0  0  0  0  0  0  0  0
  1  2  1  0
  2  3  1  0
  3  4  1  0
  4  5  1  0
  4  6  1  0
  4  7  1  0
  7  8  1  0
  8  9  1  0
  6  2  1  0
  9  7  1  0
  7  2  1  0
  1 10  1  0
  1 11  1  0
  1 12  1  0
  3 13  1  0
  3 14  1  0
  5 15  1  0
  6 16  1  0
  6 17  1  0
  8 18  1  0
  8 19  1  0
M  END
$$$$
