gdb 435	3.8823758	1.2268493	1.0969303	1.2319	74.85	-0.23089	0.08724	0.31813	1150.192	0.157717	-422.519868	-422.511971	-422.511027	-422.552473	30.256
 OpenBabel02181911403D

 19 21  0  0  1  0  0  0  0  0999 V2000
    0.1667    0.4576   -0.0378 C   0  0  0  0  0  0  0  0  0  0  0  0
    1.2743    0.7273    0.8285 O   0  0  0  0  0  0  0  0  0  0  0  0
    1.5500    0.2938   -0.5020 C   0  0  1  0  0  0  0  0  0  0  0  0
    2.1910   -1.0472   -0.6332 C   0  0  2  0  0  0  0  0  0  0  0  0
    2.1079   -2.0918    0.4477 C   0  0  0  0  0  0  0  0  0  0  0  0
    3.4472   -1.4684    0.0800 C   0  0  1  0  0  0  0  0  0  0  0  0
    4.2916   -2.1709   -0.9690 C   0  0  0  0  0  0  0  0  0  0  0  0
    3.2788   -2.4422   -2.1050 C   0  0  0  0  0  0  0  0  0  0  0  0
    2.2392   -1.4698   -1.9747 O   0  0  0  0  0  0  0  0  0  0  0  0
   -0.4148   -0.4268    0.2154 H   0  0  0  0  0  0  0  0  0  0  0  0
   -0.4065    1.3309   -0.3437 H   0  0  0  0  0  0  0  0  0  0  0  0
    1.9686    1.0584   -1.1576 H   0  0  0  0  0  0  0  0  0  0  0  0
    1.6802   -1.7717    1.3910 H   0  0  0  0  0  0  0  0  0  0  0  0
    1.9003   -3.1207    0.1726 H   0  0  0  0  0  0  0  0  0  0  0  0
    3.9279   -0.8188    0.8017 H   0  0  0  0  0  0  0  0  0  0  0  0
    5.0889   -1.4994   -1.3045 H   0  0  0  0  0  0  0  0  0  0  0  0
    4.7590   -3.0966   -0.6195 H   0  0  0  0  0  0  0  0  0  0  0  0
    3.7062   -2.3444   -3.1066 H   0  0  0  0  0  0  0  0  0  0  0  0
    2.8571   -3.4526   -2.0163 H   0  0  0  0  0  0  0  0  0  0  0  0
  1 10  1  0  0  0  0
  1  2  1  0  0  0  0
  3 12  1  6  0  0  0
  3  1  1  0  0  0  0
  3  2  1  0  0  0  0
  4  9  1  6  0  0  0
  4  3  1  0  0  0  0
  4  6  1  0  0  0  0
  4  5  1  0  0  0  0
  5 13  1  0  0  0  0
  6  5  1  0  0  0  0
  6 15  1  1  0  0  0
  7 17  1  0  0  0  0
  7  6  1  0  0  0  0
  8 19  1  0  0  0  0
  8  9  1  0  0  0  0
  8  7  1  0  0  0  0
 11  1  1  0  0  0  0
 14  5  1  0  0  0  0
 16  7  1  0  0  0  0
 18  8  1  0  0  0  0
M TOR 0 0 1 2 3
M TOR 1 0 1 2 11
M TOR 2 0 2 3 4
M TOR 3 0 2 3 5
M TOR 4 0 2 3 8
M TOR 5 1 2 0 9
M TOR 6 1 2 0 10
M TOR 7 1 2 3 4
M TOR 8 1 2 3 5
M TOR 9 1 2 3 8
M TOR 10 2 3 4 5
M TOR 11 2 3 4 12
M TOR 12 2 3 4 13
M TOR 13 2 3 5 6
M TOR 14 2 3 5 14
M TOR 15 2 3 8 7
M TOR 16 3 2 0 9
M TOR 17 3 2 0 10
M TOR 18 3 4 5 6
M TOR 19 3 4 5 14
M TOR 20 3 5 4 12
M TOR 21 3 5 4 13
M TOR 22 3 5 6 7
M TOR 23 3 5 6 15
M TOR 24 3 5 6 16
M TOR 25 3 8 7 6
M TOR 26 3 8 7 17
M TOR 27 3 8 7 18
M TOR 28 4 3 2 11
M TOR 29 4 3 8 7
M TOR 30 4 5 3 8
M TOR 31 4 5 6 7
M TOR 32 4 5 6 15
M TOR 33 4 5 6 16
M TOR 34 5 3 2 11
M TOR 35 5 3 8 7
M TOR 36 5 6 7 8
M TOR 37 5 6 7 17
M TOR 38 5 6 7 18
M TOR 39 6 5 3 8
M TOR 40 6 5 4 12
M TOR 41 6 5 4 13
M TOR 42 7 6 5 14
M TOR 43 8 3 2 11
M TOR 44 8 3 4 12
M TOR 45 8 3 4 13
M TOR 46 8 3 5 14
M TOR 47 8 7 6 15
M TOR 48 8 7 6 16
M  END
$$$$
