
     RDKit          3D

 19 19  0  0  0  0  0  0  0  0999 V2000
   -0.7787    2.6277   -0.1408 C   0  0  0  0  0  0  0  0  0  0  0  0
   -0.9596    1.1418   -0.0240 C   0  0  0  0  0  0  0  0  0  0  0  0
    0.0571    0.2608    0.0768 C   0  0  0  0  0  0  0  0  0  0  0  0
    1.5176    0.6365    0.1437 C   0  0  0  0  0  0  0  0  0  0  0  0
   -0.2569   -1.1879    0.0477 C   0  0  0  0  0  0  0  0  0  0  0  0
    0.5981   -2.0530    0.0398 O   0  0  0  0  0  0  0  0  0  0  0  0
   -1.7318   -1.5650   -0.0557 C   0  0  0  0  0  0  0  0  0  0  0  0
   -2.5901   -0.6025    0.5167 O   0  0  0  0  0  0  0  0  0  0  0  0
   -2.3960    0.6770   -0.0344 C   0  0  0  0  0  0  0  0  0  0  0  0
   -1.0743    3.1259    0.7922 H   0  0  0  0  0  0  0  0  0  0  0  0
    0.2511    2.9085   -0.3643 H   0  0  0  0  0  0  0  0  0  0  0  0
   -1.4257    3.0353   -0.9274 H   0  0  0  0  0  0  0  0  0  0  0  0
    2.1095   -0.2628    0.3200 H   0  0  0  0  0  0  0  0  0  0  0  0
    1.8652    1.0859   -0.7937 H   0  0  0  0  0  0  0  0  0  0  0  0
    1.7173    1.3528    0.9462 H   0  0  0  0  0  0  0  0  0  0  0  0
   -1.9687   -1.7290   -1.1236 H   0  0  0  0  0  0  0  0  0  0  0  0
   -1.8936   -2.5075    0.4712 H   0  0  0  0  0  0  0  0  0  0  0  0
   -2.7816    0.7230   -1.0727 H   0  0  0  0  0  0  0  0  0  0  0  0
   -3.0115    1.3641    0.5579 H   0  0  0  0  0  0  0  0  0  0  0  0
  1  2  1  0
  2  3  2  0
  3  4  1  0
  3  5  1  0
  5  6  2  0
  5  7  1  0
  7  8  1  0
  8  9  1  0
  9  2  1  0
  1 10  1  0
  1 11  1  0
  1 12  1  0
  4 13  1  0
  4 14  1  0
  4 15  1  0
  7 16  1  0
  7 17  1  0
  9 18  1  0
  9 19  1  0
M  END
$$$$
