gdb 4375	2.1656133	1.4076428	1.2346521	0.9457	76.32	-0.2498	0.04271	0.29251	1135.0597	0.155952	-422.533122	-422.523911	-422.522967	-422.566843	34.651
 OpenBabel02181911413D

 19 19  0  0  1  0  0  0  0  0999 V2000
    0.1301    0.2639   -0.0309 C   0  0  0  0  0  0  0  0  0  0  0  0
    1.5702   -0.2438   -0.0718 C   0  0  2  0  0  0  0  0  0  0  0  0
    2.4083    0.3644    0.9218 O   0  0  0  0  0  0  0  0  0  0  0  0
    2.7928    1.6459    0.4321 C   0  0  0  0  0  0  0  0  0  0  0  0
    2.8342    1.5290   -1.1281 C   0  0  2  0  0  0  0  0  0  0  0  0
    2.0467    2.5484   -1.8022 C   0  0  0  0  0  0  0  0  0  0  0  0
    1.3882    3.3892   -2.3557 C   0  0  0  0  0  0  0  0  0  0  0  0
    2.3355    0.0617   -1.3681 C   0  0  1  0  0  0  0  0  0  0  0  0
    3.4295   -0.8215   -1.5273 O   0  0  0  0  0  0  0  0  0  0  0  0
   -0.2778    0.1395    0.9761 H   0  0  0  0  0  0  0  0  0  0  0  0
    0.0566    1.3186   -0.3093 H   0  0  0  0  0  0  0  0  0  0  0  0
   -0.4898   -0.3097   -0.7274 H   0  0  0  0  0  0  0  0  0  0  0  0
    1.5927   -1.3195    0.1281 H   0  0  0  0  0  0  0  0  0  0  0  0
    2.0785    2.4191    0.7387 H   0  0  0  0  0  0  0  0  0  0  0  0
    3.7681    1.8860    0.8626 H   0  0  0  0  0  0  0  0  0  0  0  0
    3.8642    1.5715   -1.4936 H   0  0  0  0  0  0  0  0  0  0  0  0
    0.8131    4.1332   -2.8489 H   0  0  0  0  0  0  0  0  0  0  0  0
    1.7301   -0.0211   -2.2717 H   0  0  0  0  0  0  0  0  0  0  0  0
    3.8562   -0.8939   -0.6643 H   0  0  0  0  0  0  0  0  0  0  0  0
  1 10  1  0  0  0  0
  2  1  1  0  0  0  0
  2 13  1  1  0  0  0
  2  3  1  0  0  0  0
  4 14  1  0  0  0  0
  4 15  1  0  0  0  0
  4  3  1  0  0  0  0
  5 16  1  6  0  0  0
  5  4  1  0  0  0  0
  6  5  1  0  0  0  0
  7  6  3  0  0  0  0
  8 18  1  6  0  0  0
  8  5  1  0  0  0  0
  8  2  1  0  0  0  0
  9  8  1  0  0  0  0
  9 19  1  0  0  0  0
 11  1  1  0  0  0  0
 12  1  1  0  0  0  0
 17  7  1  0  0  0  0
M TOR 0 0 1 2 3
M TOR 1 0 1 7 4
M TOR 2 0 1 7 8
M TOR 3 0 1 7 17
M TOR 4 1 2 3 4
M TOR 5 1 2 3 13
M TOR 6 1 2 3 14
M TOR 7 1 7 4 3
M TOR 8 1 7 4 5
M TOR 9 1 7 4 15
M TOR 10 1 7 8 18
M TOR 11 2 1 0 9
M TOR 12 2 1 0 10
M TOR 13 2 1 0 11
M TOR 14 2 1 7 4
M TOR 15 2 1 7 8
M TOR 16 2 1 7 17
M TOR 17 2 3 4 5
M TOR 18 2 3 4 7
M TOR 19 2 3 4 15
M TOR 20 3 2 1 7
M TOR 21 3 2 1 12
M TOR 22 3 4 5 6
M TOR 23 3 4 7 8
M TOR 24 3 4 7 17
M TOR 25 4 5 6 16
M TOR 26 4 7 1 12
M TOR 27 4 7 8 18
M TOR 28 5 4 3 13
M TOR 29 5 4 3 14
M TOR 30 5 4 7 8
M TOR 31 5 4 7 17
M TOR 32 6 5 4 7
M TOR 33 6 5 4 15
M TOR 34 7 1 0 9
M TOR 35 7 1 0 10
M TOR 36 7 1 0 11
M TOR 37 7 4 3 13
M TOR 38 7 4 3 14
M TOR 39 8 7 1 12
M TOR 40 8 7 4 15
M  END
$$$$
