gdb 3284	2.8698351	1.4715003	1.2900631	2.144	74.3	-0.22429	0.0666	0.29089	1066.6957	0.156296	-422.517593	-422.509307	-422.508363	-422.549806	32.587
 OpenBabel02181911413D

 19 21  0  0  1  0  0  0  0  0999 V2000
    0.0122   -0.0236   -0.0893 C   0  0  0  0  0  0  0  0  0  0  0  0
    1.5216    0.0914   -0.0715 C   0  0  1  0  0  0  0  0  0  0  0  0
    2.1407    1.3392    0.5366 C   0  0  2  0  0  0  0  0  0  0  0  0
    3.4137    1.7647    0.1137 O   0  0  0  0  0  0  0  0  0  0  0  0
    4.4050    0.8976    0.6190 C   0  0  2  0  0  0  0  0  0  0  0  0
    4.5324   -0.4778    0.0199 C   0  0  0  0  0  0  0  0  0  0  0  0
    3.7444   -0.2725    1.3002 C   0  0  2  0  0  0  0  0  0  0  0  0
    2.2538    0.0306    1.2629 C   0  0  2  0  0  0  0  0  0  0  0  0
    1.5471   -0.1791    2.4480 O   0  0  0  0  0  0  0  0  0  0  0  0
   -0.4269    0.4167    0.8096 H   0  0  0  0  0  0  0  0  0  0  0  0
   -0.4064    0.4881   -0.9621 H   0  0  0  0  0  0  0  0  0  0  0  0
   -0.3071   -1.0711   -0.1334 H   0  0  0  0  0  0  0  0  0  0  0  0
    2.0232   -0.3310   -0.9362 H   0  0  0  0  0  0  0  0  0  0  0  0
    1.4931    2.1477    0.8617 H   0  0  0  0  0  0  0  0  0  0  0  0
    5.2750    1.4240    0.9963 H   0  0  0  0  0  0  0  0  0  0  0  0
    4.0198   -0.6998   -0.9084 H   0  0  0  0  0  0  0  0  0  0  0  0
    5.4973   -0.9646    0.1206 H   0  0  0  0  0  0  0  0  0  0  0  0
    4.1095   -0.6860    2.2322 H   0  0  0  0  0  0  0  0  0  0  0  0
    1.2787   -1.1043    2.4750 H   0  0  0  0  0  0  0  0  0  0  0  0
  1  2  1  0  0  0  0
  1 10  1  0  0  0  0
  2 13  1  6  0  0  0
  2  3  1  0  0  0  0
  2  8  1  0  0  0  0
  3 14  1  1  0  0  0
  3  8  1  0  0  0  0
  4  3  1  0  0  0  0
  4  5  1  0  0  0  0
  5 15  1  1  0  0  0
  5  7  1  0  0  0  0
  6 17  1  0  0  0  0
  6  5  1  0  0  0  0
  6  7  1  0  0  0  0
  7 18  1  1  0  0  0
  8  7  1  0  0  0  0
  8  9  1  1  0  0  0
  9 19  1  0  0  0  0
 11  1  1  0  0  0  0
 12  1  1  0  0  0  0
 16  6  1  0  0  0  0
M TOR 0 0 1 2 3
M TOR 1 0 1 2 7
M TOR 2 0 1 2 13
M TOR 3 0 1 7 6
M TOR 4 0 1 7 8
M TOR 5 1 2 3 4
M TOR 6 1 2 7 6
M TOR 7 1 2 7 8
M TOR 8 1 7 2 3
M TOR 9 1 7 2 13
M TOR 10 1 7 6 4
M TOR 11 1 7 6 5
M TOR 12 1 7 6 17
M TOR 13 1 7 8 18
M TOR 14 2 1 0 9
M TOR 15 2 1 0 10
M TOR 16 2 1 0 11
M TOR 17 2 3 4 5
M TOR 18 2 3 4 6
M TOR 19 2 3 4 14
M TOR 20 2 7 1 12
M TOR 21 2 7 6 4
M TOR 22 2 7 6 5
M TOR 23 2 7 6 17
M TOR 24 2 7 8 18
M TOR 25 3 2 1 12
M TOR 26 3 2 7 6
M TOR 27 3 2 7 8
M TOR 28 3 4 5 6
M TOR 29 3 4 5 15
M TOR 30 3 4 5 16
M TOR 31 3 4 6 7
M TOR 32 3 4 6 17
M TOR 33 4 3 2 7
M TOR 34 4 3 2 13
M TOR 35 4 5 6 7
M TOR 36 4 5 6 17
M TOR 37 4 6 5 15
M TOR 38 4 6 5 16
M TOR 39 4 6 7 8
M TOR 40 5 6 4 14
M TOR 41 5 6 7 8
M TOR 42 6 7 1 12
M TOR 43 6 7 2 13
M TOR 44 6 7 8 18
M TOR 45 7 1 0 9
M TOR 46 7 1 0 10
M TOR 47 7 1 0 11
M TOR 48 7 6 4 14
M TOR 49 7 6 5 15
M TOR 50 7 6 5 16
M TOR 51 8 7 1 12
M TOR 52 8 7 2 13
M TOR 53 8 7 6 17
M  END
$$$$
