gdb 1802	2.8375728	1.7954199	1.4297016	2.1944	73.57	-0.24482	0.06567	0.31049000000000004	954.2602	0.159203	-422.533349	-422.526306	-422.525362	-422.564275	29.27
 OpenBabel02181911403D

 19 21  0  0  1  0  0  0  0  0999 V2000
    0.2251    0.1909    0.0660 O   0  0  0  0  0  0  0  0  0  0  0  0
   -0.6443    0.4201    1.1289 C   0  0  1  0  0  0  0  0  0  0  0  0
   -0.8331    1.8792    1.6079 C   0  0  0  0  0  0  0  0  0  0  0  0
   -2.1217    1.3008    2.2531 C   0  0  1  0  0  0  0  0  0  0  0  0
   -2.2132    0.3704    1.0031 C   0  0  0  0  0  0  0  0  0  0  0  0
   -1.5570    0.3046    3.2825 C   0  0  2  0  0  0  0  0  0  0  0  0
   -0.5651    0.8186    4.2022 O   0  0  0  0  0  0  0  0  0  0  0  0
    0.5010    0.1150    3.5195 C   0  0  0  0  0  0  0  0  0  0  0  0
   -0.4629   -0.3898    2.4316 C   0  0  2  0  0  0  0  0  0  0  0  0
    0.2928   -0.7595   -0.0762 H   0  0  0  0  0  0  0  0  0  0  0  0
   -0.0863    2.3292    2.2625 H   0  0  0  0  0  0  0  0  0  0  0  0
   -1.0554    2.5395    0.7678 H   0  0  0  0  0  0  0  0  0  0  0  0
   -2.9470    1.9420    2.5570 H   0  0  0  0  0  0  0  0  0  0  0  0
   -2.7145   -0.5976    1.1100 H   0  0  0  0  0  0  0  0  0  0  0  0
   -2.5702    0.8915    0.1130 H   0  0  0  0  0  0  0  0  0  0  0  0
   -2.3194   -0.2907    3.7949 H   0  0  0  0  0  0  0  0  0  0  0  0
    1.3060    0.7858    3.1967 H   0  0  0  0  0  0  0  0  0  0  0  0
    0.9234   -0.6751    4.1525 H   0  0  0  0  0  0  0  0  0  0  0  0
   -0.5077   -1.4697    2.2716 H   0  0  0  0  0  0  0  0  0  0  0  0
  2  1  1  6  0  0  0
  2  3  1  0  0  0  0
  2  9  1  0  0  0  0
  3  4  1  0  0  0  0
  3 11  1  0  0  0  0
  4 13  1  1  0  0  0
  4  6  1  0  0  0  0
  5 14  1  0  0  0  0
  5  2  1  0  0  0  0
  5  4  1  0  0  0  0
  6 16  1  1  0  0  0
  6  7  1  0  0  0  0
  8 18  1  0  0  0  0
  8  7  1  0  0  0  0
  9 19  1  6  0  0  0
  9  6  1  0  0  0  0
  9  8  1  0  0  0  0
 10  1  1  0  0  0  0
 12  3  1  0  0  0  0
 15  5  1  0  0  0  0
 17  8  1  0  0  0  0
M TOR 0 0 1 2 3
M TOR 1 0 1 2 10
M TOR 2 0 1 2 11
M TOR 3 0 1 4 3
M TOR 4 0 1 4 13
M TOR 5 0 1 4 14
M TOR 6 0 1 8 5
M TOR 7 0 1 8 7
M TOR 8 0 1 8 18
M TOR 9 1 2 3 4
M TOR 10 1 2 3 5
M TOR 11 1 2 3 12
M TOR 12 1 4 3 5
M TOR 13 1 4 3 12
M TOR 14 1 8 5 3
M TOR 15 1 8 5 6
M TOR 16 1 8 5 15
M TOR 17 1 8 7 6
M TOR 18 1 8 7 16
M TOR 19 1 8 7 17
M TOR 20 2 1 0 9
M TOR 21 2 1 4 13
M TOR 22 2 1 4 14
M TOR 23 2 1 8 5
M TOR 24 2 1 8 7
M TOR 25 2 1 8 18
M TOR 26 2 3 4 13
M TOR 27 2 3 4 14
M TOR 28 2 3 5 6
M TOR 29 2 3 5 8
M TOR 30 2 3 5 15
M TOR 31 3 2 1 8
M TOR 32 3 4 1 8
M TOR 33 3 5 6 7
M TOR 34 3 5 8 7
M TOR 35 3 5 8 18
M TOR 36 4 1 0 9
M TOR 37 4 1 2 10
M TOR 38 4 1 2 11
M TOR 39 4 1 8 5
M TOR 40 4 1 8 7
M TOR 41 4 1 8 18
M TOR 42 4 3 2 10
M TOR 43 4 3 2 11
M TOR 44 4 3 5 6
M TOR 45 4 3 5 8
M TOR 46 4 3 5 15
M TOR 47 5 3 2 10
M TOR 48 5 3 2 11
M TOR 49 5 3 4 13
M TOR 50 5 3 4 14
M TOR 51 5 6 7 8
M TOR 52 5 6 7 16
M TOR 53 5 6 7 17
M TOR 54 5 8 7 16
M TOR 55 5 8 7 17
M TOR 56 6 5 3 12
M TOR 57 6 5 8 18
M TOR 58 6 7 8 18
M TOR 59 7 6 5 15
M TOR 60 7 8 5 15
M TOR 61 8 1 0 9
M TOR 62 8 1 2 10
M TOR 63 8 1 2 11
M TOR 64 8 1 4 13
M TOR 65 8 1 4 14
M TOR 66 8 5 3 12
M  END
$$$$
