gdb 2387	2.6204161	1.5430446	1.2867091	4.3423	74.74	-0.26165	0.01722	0.27887	1063.804	0.15738	-422.606703	-422.598575	-422.597631	-422.63944	31.202
 OpenBabel02181911413D

 19 20  0  0  1  0  0  0  0  0999 V2000
   -2.7564   -1.5366   -1.1170 C   0  0  0  0  0  0  0  0  0  0  0  0
   -2.1802   -0.7614    0.0474 C   0  0  2  0  0  0  0  0  0  0  0  0
   -2.8625   -0.8497    1.4354 C   0  0  0  0  0  0  0  0  0  0  0  0
   -2.7131    0.6907    1.5941 C   0  0  0  0  0  0  0  0  0  0  0  0
   -2.2715    0.7996    0.1028 C   0  0  1  0  0  0  0  0  0  0  0  0
   -0.8608    1.2892   -0.1758 C   0  0  0  0  0  0  0  0  0  0  0  0
    0.0143    0.0543    0.0492 C   0  0  0  0  0  0  0  0  0  0  0  0
    1.2069   -0.0014    0.1201 O   0  0  0  0  0  0  0  0  0  0  0  0
   -0.7716   -1.0539    0.1573 O   0  0  0  0  0  0  0  0  0  0  0  0
   -2.6277   -2.6128   -0.9644 H   0  0  0  0  0  0  0  0  0  0  0  0
   -3.8256   -1.3288   -1.2219 H   0  0  0  0  0  0  0  0  0  0  0  0
   -2.2568   -1.2642   -2.0523 H   0  0  0  0  0  0  0  0  0  0  0  0
   -3.9034   -1.1748    1.3618 H   0  0  0  0  0  0  0  0  0  0  0  0
   -2.3446   -1.4790    2.1613 H   0  0  0  0  0  0  0  0  0  0  0  0
   -3.6214    1.2348    1.8585 H   0  0  0  0  0  0  0  0  0  0  0  0
   -1.9248    0.9831    2.2931 H   0  0  0  0  0  0  0  0  0  0  0  0
   -3.0307    1.2313   -0.5506 H   0  0  0  0  0  0  0  0  0  0  0  0
   -0.7189    1.6201   -1.2105 H   0  0  0  0  0  0  0  0  0  0  0  0
   -0.5225    2.1006    0.4731 H   0  0  0  0  0  0  0  0  0  0  0  0
  1 10  1  0  0  0  0
  2  1  1  6  0  0  0
  2  5  1  0  0  0  0
  2  9  1  0  0  0  0
  2  3  1  0  0  0  0
  3  4  1  0  0  0  0
  3 14  1  0  0  0  0
  4 15  1  0  0  0  0
  4 16  1  0  0  0  0
  5 17  1  6  0  0  0
  5  4  1  0  0  0  0
  6  7  1  0  0  0  0
  6  5  1  0  0  0  0
  6 19  1  0  0  0  0
  7  8  2  0  0  0  0
  7  9  1  0  0  0  0
 11  1  1  0  0  0  0
 12  1  1  0  0  0  0
 13  3  1  0  0  0  0
 18  6  1  0  0  0  0
M TOR 0 0 1 2 3
M TOR 1 0 1 2 12
M TOR 2 0 1 2 13
M TOR 3 0 1 4 3
M TOR 4 0 1 4 5
M TOR 5 0 1 4 16
M TOR 6 0 1 8 6
M TOR 7 1 2 3 4
M TOR 8 1 2 3 14
M TOR 9 1 2 3 15
M TOR 10 1 4 3 14
M TOR 11 1 4 3 15
M TOR 12 1 4 5 6
M TOR 13 1 4 5 17
M TOR 14 1 4 5 18
M TOR 15 1 8 6 5
M TOR 16 1 8 6 7
M TOR 17 2 1 0 9
M TOR 18 2 1 0 10
M TOR 19 2 1 0 11
M TOR 20 2 1 4 5
M TOR 21 2 1 4 16
M TOR 22 2 1 8 6
M TOR 23 2 3 4 5
M TOR 24 2 3 4 16
M TOR 25 3 2 1 8
M TOR 26 3 4 1 8
M TOR 27 3 4 5 6
M TOR 28 3 4 5 17
M TOR 29 3 4 5 18
M TOR 30 4 1 0 9
M TOR 31 4 1 0 10
M TOR 32 4 1 0 11
M TOR 33 4 1 2 12
M TOR 34 4 1 2 13
M TOR 35 4 1 8 6
M TOR 36 4 3 2 12
M TOR 37 4 3 2 13
M TOR 38 4 5 6 7
M TOR 39 4 5 6 8
M TOR 40 5 4 1 8
M TOR 41 5 4 3 14
M TOR 42 5 4 3 15
M TOR 43 6 5 4 16
M TOR 44 7 6 5 17
M TOR 45 7 6 5 18
M TOR 46 8 1 0 9
M TOR 47 8 1 0 10
M TOR 48 8 1 0 11
M TOR 49 8 1 2 12
M TOR 50 8 1 2 13
M TOR 51 8 1 4 16
M TOR 52 8 6 5 17
M TOR 53 8 6 5 18
M  END
$$$$
