gdb 2360	2.9113211	1.7080092	1.3229527	2.1981	74.26	-0.23096	0.06866	0.29962	1004.4546	0.157393	-422.505552	-422.497825	-422.496881	-422.537501	29.945
 OpenBabel02181911413D

 19 21  0  0  1  0  0  0  0  0999 V2000
   -0.1113    0.1618    0.0320 C   0  0  0  0  0  0  0  0  0  0  0  0
    1.3872    0.0667   -0.0127 C   0  0  1  0  0  0  0  0  0  0  0  0
    1.9292   -0.0617   -1.3507 O   0  0  0  0  0  0  0  0  0  0  0  0
    2.8346    1.0476   -1.1536 C   0  0  0  0  0  0  0  0  0  0  0  0
    2.4459    1.1854    0.3233 C   0  0  2  0  0  0  0  0  0  0  0  0
    3.1971    0.1948    1.2379 C   0  0  1  0  0  0  0  0  0  0  0  0
    2.6351    0.1171    2.6667 C   0  0  0  0  0  0  0  0  0  0  0  0
    1.6269   -0.8473    2.2803 O   0  0  0  0  0  0  0  0  0  0  0  0
    2.1294   -0.9050    0.9312 C   0  0  1  0  0  0  0  0  0  0  0  0
   -0.4542    0.1893    1.0694 H   0  0  0  0  0  0  0  0  0  0  0  0
   -0.4673    1.0538   -0.4921 H   0  0  0  0  0  0  0  0  0  0  0  0
   -0.5518   -0.7159   -0.4545 H   0  0  0  0  0  0  0  0  0  0  0  0
    3.8770    0.7786   -1.3665 H   0  0  0  0  0  0  0  0  0  0  0  0
    2.5543    1.9049   -1.7793 H   0  0  0  0  0  0  0  0  0  0  0  0
    2.2156    2.1781    0.7117 H   0  0  0  0  0  0  0  0  0  0  0  0
    4.2733    0.0842    1.1044 H   0  0  0  0  0  0  0  0  0  0  0  0
    3.3255   -0.3087    3.4056 H   0  0  0  0  0  0  0  0  0  0  0  0
    2.1985    1.0377    3.0744 H   0  0  0  0  0  0  0  0  0  0  0  0
    2.3157   -1.9216    0.5756 H   0  0  0  0  0  0  0  0  0  0  0  0
  1 10  1  0  0  0  0
  2  1  1  1  0  0  0
  2  5  1  0  0  0  0
  2  9  1  0  0  0  0
  3  4  1  0  0  0  0
  3  2  1  0  0  0  0
  4  5  1  0  0  0  0
  5 15  1  1  0  0  0
  5  6  1  0  0  0  0
  6 16  1  6  0  0  0
  6  7  1  0  0  0  0
  7 18  1  0  0  0  0
  7 17  1  0  0  0  0
  8  7  1  0  0  0  0
  9 19  1  6  0  0  0
  9  6  1  0  0  0  0
  9  8  1  0  0  0  0
 11  1  1  0  0  0  0
 12  1  1  0  0  0  0
 13  4  1  0  0  0  0
 14  4  1  0  0  0  0
M TOR 0 0 1 2 3
M TOR 1 0 1 4 3
M TOR 2 0 1 4 5
M TOR 3 0 1 4 14
M TOR 4 0 1 8 5
M TOR 5 0 1 8 7
M TOR 6 0 1 8 18
M TOR 7 1 2 3 4
M TOR 8 1 2 3 12
M TOR 9 1 2 3 13
M TOR 10 1 4 3 12
M TOR 11 1 4 3 13
M TOR 12 1 4 5 6
M TOR 13 1 4 5 8
M TOR 14 1 4 5 15
M TOR 15 1 8 5 6
M TOR 16 1 8 5 15
M TOR 17 1 8 7 6
M TOR 18 2 1 0 9
M TOR 19 2 1 0 10
M TOR 20 2 1 0 11
M TOR 21 2 1 4 5
M TOR 22 2 1 4 14
M TOR 23 2 1 8 5
M TOR 24 2 1 8 7
M TOR 25 2 1 8 18
M TOR 26 2 3 4 5
M TOR 27 2 3 4 14
M TOR 28 3 2 1 8
M TOR 29 3 4 1 8
M TOR 30 3 4 5 6
M TOR 31 3 4 5 8
M TOR 32 3 4 5 15
M TOR 33 4 1 0 9
M TOR 34 4 1 0 10
M TOR 35 4 1 0 11
M TOR 36 4 1 8 7
M TOR 37 4 1 8 18
M TOR 38 4 5 6 7
M TOR 39 4 5 6 16
M TOR 40 4 5 6 17
M TOR 41 4 5 8 7
M TOR 42 4 5 8 18
M TOR 43 5 4 3 12
M TOR 44 5 4 3 13
M TOR 45 5 6 7 8
M TOR 46 6 5 4 14
M TOR 47 6 5 8 18
M TOR 48 6 7 8 18
M TOR 49 7 6 5 15
M TOR 50 7 8 5 15
M TOR 51 8 1 0 9
M TOR 52 8 1 0 10
M TOR 53 8 1 0 11
M TOR 54 8 1 4 14
M TOR 55 8 5 4 14
M TOR 56 8 5 6 16
M TOR 57 8 5 6 17
M TOR 58 8 7 6 16
M TOR 59 8 7 6 17
M  END
$$$$
