gdb 5995	4.2330184	0.8170315	0.7132675	3.5375	79.7	-0.23882	-0.01417	0.22465000000000002	1584.7115	0.155334	-422.573199	-422.563884	-422.56294	-422.60833	32.981
 OpenBabel02181911423D

 19 19  0  0  0  0  0  0  0  0999 V2000
    1.4468   -0.2774    0.1234 C   0  0  0  0  0  0  0  0  0  0  0  0
    0.0426   -0.1977    0.1861 O   0  0  0  0  0  0  0  0  0  0  0  0
   -0.4104    0.9115    0.9398 C   0  0  0  0  0  0  0  0  0  0  0  0
   -1.9008    0.8565    1.0295 C   0  0  0  0  0  0  0  0  0  0  0  0
   -2.7500    1.8450    0.7336 C   0  0  0  0  0  0  0  0  0  0  0  0
   -4.1879    1.4745    0.9672 C   0  0  0  0  0  0  0  0  0  0  0  0
   -4.0983    0.0285    1.4888 C   0  0  0  0  0  0  0  0  0  0  0  0
   -5.0267   -0.6565    1.8263 O   0  0  0  0  0  0  0  0  0  0  0  0
   -2.6179   -0.3803    1.5085 C   0  0  0  0  0  0  0  0  0  0  0  0
    1.8955   -0.3754    1.1250 H   0  0  0  0  0  0  0  0  0  0  0  0
    1.6975   -1.1631   -0.4650 H   0  0  0  0  0  0  0  0  0  0  0  0
    1.8859    0.6083   -0.3625 H   0  0  0  0  0  0  0  0  0  0  0  0
    0.0317    0.8749    1.9534 H   0  0  0  0  0  0  0  0  0  0  0  0
   -0.0859    1.8597    0.4802 H   0  0  0  0  0  0  0  0  0  0  0  0
   -2.4477    2.8185    0.3626 H   0  0  0  0  0  0  0  0  0  0  0  0
   -4.7005    2.1088    1.7021 H   0  0  0  0  0  0  0  0  0  0  0  0
   -4.8034    1.5055    0.0586 H   0  0  0  0  0  0  0  0  0  0  0  0
   -2.3253   -0.6964    2.5187 H   0  0  0  0  0  0  0  0  0  0  0  0
   -2.4491   -1.2475    0.8593 H   0  0  0  0  0  0  0  0  0  0  0  0
  1  2  1  0  0  0  0
  1 10  1  0  0  0  0
  2  3  1  0  0  0  0
  3  4  1  0  0  0  0
  3 13  1  0  0  0  0
  4  9  1  0  0  0  0
  5  6  1  0  0  0  0
  5  4  2  0  0  0  0
  6  7  1  0  0  0  0
  6 16  1  0  0  0  0
  7  9  1  0  0  0  0
  7  8  2  0  0  0  0
  9 18  1  0  0  0  0
 11  1  1  0  0  0  0
 12  1  1  0  0  0  0
 14  3  1  0  0  0  0
 15  5  1  0  0  0  0
 17  6  1  0  0  0  0
 19  9  1  0  0  0  0
M TOR 0 0 1 2 3
M TOR 1 0 1 2 12
M TOR 2 0 1 2 13
M TOR 3 1 2 3 4
M TOR 4 1 2 3 8
M TOR 5 2 1 0 9
M TOR 6 2 1 0 10
M TOR 7 2 1 0 11
M TOR 8 2 3 4 5
M TOR 9 2 3 4 14
M TOR 10 2 3 8 6
M TOR 11 2 3 8 17
M TOR 12 2 3 8 18
M TOR 13 3 4 5 6
M TOR 14 3 4 5 15
M TOR 15 3 4 5 16
M TOR 16 3 8 6 5
M TOR 17 3 8 6 7
M TOR 18 4 3 2 12
M TOR 19 4 3 2 13
M TOR 20 4 3 8 6
M TOR 21 4 3 8 17
M TOR 22 4 3 8 18
M TOR 23 4 5 6 7
M TOR 24 4 5 6 8
M TOR 25 5 4 3 8
M TOR 26 5 6 8 17
M TOR 27 5 6 8 18
M TOR 28 6 5 4 14
M TOR 29 7 6 5 15
M TOR 30 7 6 5 16
M TOR 31 7 6 8 17
M TOR 32 7 6 8 18
M TOR 33 8 3 2 12
M TOR 34 8 3 2 13
M TOR 35 8 3 4 14
M TOR 36 8 6 5 15
M TOR 37 8 6 5 16
M  END
$$$$
