gdb 96	8.1972518	0.5058965	0.4953701	1.2212	79.68	-0.25735	0.0321	0.28945000000000004	2159.0957	0.153653	-422.477976	-422.467835	-422.466891	-422.514687	34.816
 OpenBabel02181911403D

 19 19  0  0  1  0  0  0  0  0999 V2000
   -3.7421    3.0050   -0.7329 C   0  0  0  0  0  0  0  0  0  0  0  0
   -3.0184    2.0647   -0.5489 C   0  0  0  0  0  0  0  0  0  0  0  0
   -2.1678    0.9017   -0.3323 C   0  0  0  0  0  0  0  0  0  0  0  0
   -0.8585    1.3145    0.0051 O   0  0  0  0  0  0  0  0  0  0  0  0
    0.0099    0.2221    0.2293 C   0  0  0  0  0  0  0  0  0  0  0  0
    1.3934    0.7742    0.5538 C   0  0  0  0  0  0  0  0  0  0  0  0
    2.3816   -0.3257    0.8508 C   0  0  2  0  0  0  0  0  0  0  0  0
    3.7836   -0.2592    0.4230 C   0  0  0  0  0  0  0  0  0  0  0  0
    2.8478   -1.0859   -0.2703 O   0  0  0  0  0  0  0  0  0  0  0  0
   -4.3768    3.8408   -0.8951 H   0  0  0  0  0  0  0  0  0  0  0  0
   -2.5945    0.2754    0.4705 H   0  0  0  0  0  0  0  0  0  0  0  0
   -2.1539    0.2776   -1.2425 H   0  0  0  0  0  0  0  0  0  0  0  0
   -0.3633   -0.4003    1.0620 H   0  0  0  0  0  0  0  0  0  0  0  0
    0.0628   -0.4241   -0.6616 H   0  0  0  0  0  0  0  0  0  0  0  0
    1.7474    1.3710   -0.2929 H   0  0  0  0  0  0  0  0  0  0  0  0
    1.3160    1.4432    1.4193 H   0  0  0  0  0  0  0  0  0  0  0  0
    2.1531   -0.9385    1.7256 H   0  0  0  0  0  0  0  0  0  0  0  0
    4.1334    0.6136   -0.1269 H   0  0  0  0  0  0  0  0  0  0  0  0
    4.5496   -0.7895    0.9872 H   0  0  0  0  0  0  0  0  0  0  0  0
  1  2  3  0  0  0  0
  2  3  1  0  0  0  0
  3  4  1  0  0  0  0
  3 11  1  0  0  0  0
  4  5  1  0  0  0  0
  5  6  1  0  0  0  0
  5 13  1  0  0  0  0
  6  7  1  0  0  0  0
  6 16  1  0  0  0  0
  7 17  1  1  0  0  0
  8  7  1  0  0  0  0
  8 19  1  0  0  0  0
  9  8  1  0  0  0  0
  9  7  1  0  0  0  0
 10  1  1  0  0  0  0
 12  3  1  0  0  0  0
 14  5  1  0  0  0  0
 15  6  1  0  0  0  0
 18  8  1  0  0  0  0
M TOR 0 0 1 2 3
M TOR 1 0 1 2 10
M TOR 2 0 1 2 11
M TOR 3 1 2 3 4
M TOR 4 2 1 0 9
M TOR 5 2 3 4 5
M TOR 6 2 3 4 12
M TOR 7 2 3 4 13
M TOR 8 3 4 5 6
M TOR 9 3 4 5 14
M TOR 10 3 4 5 15
M TOR 11 4 3 2 10
M TOR 12 4 3 2 11
M TOR 13 4 5 6 7
M TOR 14 4 5 6 8
M TOR 15 4 5 6 16
M TOR 16 5 6 7 8
M TOR 17 5 6 7 17
M TOR 18 5 6 7 18
M TOR 19 6 5 4 12
M TOR 20 6 5 4 13
M TOR 21 6 8 7 17
M TOR 22 6 8 7 18
M TOR 23 7 6 5 14
M TOR 24 7 6 5 15
M TOR 25 7 8 6 16
M TOR 26 8 6 5 14
M TOR 27 8 6 5 15
M  END
$$$$
