gdb 5699	4.3817515	0.9622288	0.9188338	3.2431	76.19	-0.25028	0.07384	0.32412	1348.418	0.155277	-422.494269	-422.485666	-422.484722	-422.527773	32.109
 OpenBabel02181911423D

 19 21  0  0  1  0  0  0  0  0999 V2000
    1.2661    1.0546    0.4445 C   0  0  0  0  0  0  0  0  0  0  0  0
    0.8988   -0.3984    0.1194 C   0  0  0  0  0  0  0  0  0  0  0  0
    1.6869   -0.9303   -1.0534 C   0  0  2  0  0  0  0  0  0  0  0  0
    1.3039   -0.4437   -2.3560 O   0  0  0  0  0  0  0  0  0  0  0  0
    1.1328   -1.8175   -2.0787 C   0  0  1  0  0  0  0  0  0  0  0  0
    1.8258   -2.9918   -2.8208 C   0  0  0  0  0  0  0  0  0  0  0  0
    0.4688   -3.7137   -2.7581 C   0  0  2  0  0  0  0  0  0  0  0  0
   -0.4643   -2.8999   -3.4672 O   0  0  0  0  0  0  0  0  0  0  0  0
   -0.1877   -2.5671   -2.0966 C   0  0  2  0  0  0  0  0  0  0  0  0
    0.6821    1.4289    1.2901 H   0  0  0  0  0  0  0  0  0  0  0  0
    2.3268    1.1466    0.7023 H   0  0  0  0  0  0  0  0  0  0  0  0
    1.0730    1.6994   -0.4177 H   0  0  0  0  0  0  0  0  0  0  0  0
    1.0886   -1.0393    0.9904 H   0  0  0  0  0  0  0  0  0  0  0  0
   -0.1705   -0.4698   -0.1061 H   0  0  0  0  0  0  0  0  0  0  0  0
    2.7696   -0.9628   -0.9059 H   0  0  0  0  0  0  0  0  0  0  0  0
    2.1780   -2.7780   -3.8318 H   0  0  0  0  0  0  0  0  0  0  0  0
    2.6196   -3.4594   -2.2327 H   0  0  0  0  0  0  0  0  0  0  0  0
    0.2594   -4.7727   -2.6734 H   0  0  0  0  0  0  0  0  0  0  0  0
   -1.0309   -2.5180   -1.4183 H   0  0  0  0  0  0  0  0  0  0  0  0
  1 11  1  0  0  0  0
  1 10  1  0  0  0  0
  2  1  1  0  0  0  0
  2 13  1  0  0  0  0
  3 15  1  1  0  0  0
  3  2  1  0  0  0  0
  4  3  1  0  0  0  0
  5  4  1  6  0  0  0
  5  3  1  0  0  0  0
  6  7  1  0  0  0  0
  6 17  1  0  0  0  0
  6  5  1  0  0  0  0
  7 18  1  1  0  0  0
  7  9  1  0  0  0  0
  8  7  1  0  0  0  0
  8  9  1  0  0  0  0
  9  5  1  0  0  0  0
  9 19  1  1  0  0  0
 12  1  1  0  0  0  0
 14  2  1  0  0  0  0
 16  6  1  0  0  0  0
M TOR 0 0 1 2 3
M TOR 1 0 1 2 4
M TOR 2 0 1 2 14
M TOR 3 1 2 3 4
M TOR 4 1 2 4 5
M TOR 5 1 2 4 8
M TOR 6 2 1 0 9
M TOR 7 2 1 0 10
M TOR 8 2 1 0 11
M TOR 9 2 3 4 5
M TOR 10 2 3 4 8
M TOR 11 2 4 5 6
M TOR 12 2 4 5 15
M TOR 13 2 4 5 16
M TOR 14 2 4 8 6
M TOR 15 2 4 8 7
M TOR 16 2 4 8 18
M TOR 17 3 2 1 12
M TOR 18 3 2 1 13
M TOR 19 3 4 2 14
M TOR 20 3 4 5 6
M TOR 21 3 4 5 15
M TOR 22 3 4 5 16
M TOR 23 3 4 8 6
M TOR 24 3 4 8 7
M TOR 25 3 4 8 18
M TOR 26 4 2 1 12
M TOR 27 4 2 1 13
M TOR 28 4 5 6 7
M TOR 29 4 5 6 8
M TOR 30 4 5 6 17
M TOR 31 4 8 6 7
M TOR 32 4 8 6 17
M TOR 33 5 4 2 14
M TOR 34 5 4 8 7
M TOR 35 5 4 8 18
M TOR 36 5 6 7 8
M TOR 37 5 6 8 18
M TOR 38 6 7 8 18
M TOR 39 7 6 5 15
M TOR 40 7 6 5 16
M TOR 41 7 8 6 17
M TOR 42 8 4 2 14
M TOR 43 8 4 5 15
M TOR 44 8 4 5 16
M TOR 45 8 6 5 15
M TOR 46 8 6 5 16
M  END
$$$$
