gdb 3561	2.0551855	1.5585584	1.0207937	3.2361	78.42	-0.23974	-0.01815	0.22159	1209.0414	0.156224	-422.598588	-422.589497	-422.588552	-422.632538	33.751
 OpenBabel02181911413D

 19 19  0  0  1  0  0  0  0  0999 V2000
    1.2076    0.4329   -1.3977 C   0  0  0  0  0  0  0  0  0  0  0  0
   -0.0177   -0.0705   -0.6853 C   0  0  0  0  0  0  0  0  0  0  0  0
   -0.1333   -1.3310   -0.2553 C   0  0  0  0  0  0  0  0  0  0  0  0
   -1.3482   -1.8937    0.4366 C   0  0  2  0  0  0  0  0  0  0  0  0
   -2.0692   -2.7779   -0.4223 O   0  0  0  0  0  0  0  0  0  0  0  0
   -2.2544   -0.7799    1.0056 C   0  0  0  0  0  0  0  0  0  0  0  0
   -2.4300    0.3419    0.0040 C   0  0  0  0  0  0  0  0  0  0  0  0
   -3.5060    0.7235   -0.3925 O   0  0  0  0  0  0  0  0  0  0  0  0
   -1.1226    0.9474   -0.4897 C   0  0  0  0  0  0  0  0  0  0  0  0
    1.6516    1.2816   -0.8616 H   0  0  0  0  0  0  0  0  0  0  0  0
    1.9678   -0.3459   -1.4953 H   0  0  0  0  0  0  0  0  0  0  0  0
    0.9573    0.7979   -2.4018 H   0  0  0  0  0  0  0  0  0  0  0  0
    0.6729   -2.0362   -0.4424 H   0  0  0  0  0  0  0  0  0  0  0  0
   -1.0335   -2.5363    1.2662 H   0  0  0  0  0  0  0  0  0  0  0  0
   -2.2395   -2.3109   -1.2482 H   0  0  0  0  0  0  0  0  0  0  0  0
   -3.2272   -1.1880    1.2852 H   0  0  0  0  0  0  0  0  0  0  0  0
   -1.7694   -0.3635    1.8989 H   0  0  0  0  0  0  0  0  0  0  0  0
   -1.3258    1.4970   -1.4153 H   0  0  0  0  0  0  0  0  0  0  0  0
   -0.7983    1.7039    0.2431 H   0  0  0  0  0  0  0  0  0  0  0  0
  1 10  1  0  0  0  0
  1  2  1  0  0  0  0
  2  9  1  0  0  0  0
  2  3  2  0  0  0  0
  3  4  1  0  0  0  0
  4  6  1  0  0  0  0
  4 14  1  1  0  0  0
  5  4  1  0  0  0  0
  6 16  1  0  0  0  0
  6 17  1  0  0  0  0
  7  6  1  0  0  0  0
  8  7  2  0  0  0  0
  9  7  1  0  0  0  0
  9 19  1  0  0  0  0
 11  1  1  0  0  0  0
 12  1  1  0  0  0  0
 13  3  1  0  0  0  0
 15  5  1  0  0  0  0
 18  9  1  0  0  0  0
M TOR 0 0 1 2 3
M TOR 1 0 1 2 12
M TOR 2 0 1 8 6
M TOR 3 0 1 8 17
M TOR 4 0 1 8 18
M TOR 5 1 2 3 4
M TOR 6 1 2 3 5
M TOR 7 1 2 3 13
M TOR 8 1 8 6 5
M TOR 9 1 8 6 7
M TOR 10 2 1 0 9
M TOR 11 2 1 0 10
M TOR 12 2 1 0 11
M TOR 13 2 1 8 6
M TOR 14 2 1 8 17
M TOR 15 2 1 8 18
M TOR 16 2 3 4 14
M TOR 17 2 3 5 6
M TOR 18 2 3 5 15
M TOR 19 2 3 5 16
M TOR 20 3 2 1 8
M TOR 21 3 5 6 7
M TOR 22 3 5 6 8
M TOR 23 4 3 2 12
M TOR 24 4 3 5 6
M TOR 25 4 3 5 15
M TOR 26 4 3 5 16
M TOR 27 5 3 2 12
M TOR 28 5 3 4 14
M TOR 29 5 6 8 17
M TOR 30 5 6 8 18
M TOR 31 6 5 3 13
M TOR 32 7 6 5 15
M TOR 33 7 6 5 16
M TOR 34 7 6 8 17
M TOR 35 7 6 8 18
M TOR 36 8 1 0 9
M TOR 37 8 1 0 10
M TOR 38 8 1 0 11
M TOR 39 8 1 2 12
M TOR 40 8 6 5 15
M TOR 41 8 6 5 16
M  END
$$$$
