
     RDKit          3D

 19 21  0  0  0  0  0  0  0  0999 V2000
    0.0391   -0.0158   -0.0623 C   0  0  0  0  0  0  0  0  0  0  0  0
    1.5474   -0.0121   -0.1204 C   0  0  0  0  0  0  0  0  0  0  0  0
    2.3309   -0.9627   -1.0626 C   0  0  0  0  0  0  0  0  0  0  0  0
    3.2694   -1.0538    0.1625 C   0  0  0  0  0  0  0  0  0  0  0  0
    4.3188    0.0643    0.1964 C   0  0  0  0  0  0  0  0  0  0  0  0
    3.6449    1.4009   -0.0975 C   0  0  0  0  0  0  0  0  0  0  0  0
    2.7704    1.9346    0.9068 O   0  0  0  0  0  0  0  0  0  0  0  0
    2.1840    1.3796   -0.2635 C   0  0  0  0  0  0  0  0  0  0  0  0
    2.1610   -0.6696    1.0216 O   0  0  0  0  0  0  0  0  0  0  0  0
   -0.3080    0.5685    0.7962 H   0  0  0  0  0  0  0  0  0  0  0  0
   -0.3835    0.4263   -0.9709 H   0  0  0  0  0  0  0  0  0  0  0  0
   -0.3381   -1.0368    0.0388 H   0  0  0  0  0  0  0  0  0  0  0  0
    1.7973   -1.8990   -1.2370 H   0  0  0  0  0  0  0  0  0  0  0  0
    2.7222   -0.5617   -2.0011 H   0  0  0  0  0  0  0  0  0  0  0  0
    3.6812   -2.0299    0.4323 H   0  0  0  0  0  0  0  0  0  0  0  0
    4.8058    0.0914    1.1773 H   0  0  0  0  0  0  0  0  0  0  0  0
    5.0963   -0.1244   -0.5540 H   0  0  0  0  0  0  0  0  0  0  0  0
    4.2400    2.1570   -0.6074 H   0  0  0  0  0  0  0  0  0  0  0  0
    1.6826    2.0873   -0.9240 H   0  0  0  0  0  0  0  0  0  0  0  0
  1  2  1  0
  2  3  1  0
  3  4  1  0
  4  5  1  0
  5  6  1  0
  6  7  1  0
  7  8  1  0
  4  9  1  0
  8  2  1  0
  9  2  1  0
  8  6  1  0
  1 10  1  0
  1 11  1  0
  1 12  1  0
  3 13  1  0
  3 14  1  0
  4 15  1  0
  5 16  1  0
  5 17  1  0
  6 18  1  0
  8 19  1  0
M  END
$$$$
