gdb 2315	2.5852133	1.9861502	1.6527857	1.5842	74.68	-0.23216	0.07594	0.3081	909.2865	0.157948	-422.514711	-422.507402	-422.506458	-422.545689	30.489
 OpenBabel02181911413D

 19 21  0  0  1  0  0  0  0  0999 V2000
    0.0843   -0.2434    0.0296 O   0  0  0  0  0  0  0  0  0  0  0  0
   -1.0555    0.2620    0.7073 C   0  0  1  0  0  0  0  0  0  0  0  0
   -1.7922    1.3364   -0.1625 C   0  0  0  0  0  0  0  0  0  0  0  0
   -2.6137    0.1581   -0.8160 C   0  0  0  0  0  0  0  0  0  0  0  0
   -2.2767   -0.6432    0.4436 C   0  0  1  0  0  0  0  0  0  0  0  0
   -1.9461   -1.9636    1.1499 C   0  0  0  0  0  0  0  0  0  0  0  0
   -2.1036   -0.9643    2.3488 C   0  0  1  0  0  0  0  0  0  0  0  0
   -0.9684    0.0990    2.2494 C   0  0  0  0  0  0  0  0  0  0  0  0
   -3.1345   -0.2836    1.5721 O   0  0  0  0  0  0  0  0  0  0  0  0
    0.7504    0.4513    0.0111 H   0  0  0  0  0  0  0  0  0  0  0  0
   -2.4272    1.9995    0.4245 H   0  0  0  0  0  0  0  0  0  0  0  0
   -1.1554    1.9220   -0.8300 H   0  0  0  0  0  0  0  0  0  0  0  0
   -3.6728    0.3151   -1.0265 H   0  0  0  0  0  0  0  0  0  0  0  0
   -2.1072   -0.2319   -1.7000 H   0  0  0  0  0  0  0  0  0  0  0  0
   -2.7588   -2.6910    1.1510 H   0  0  0  0  0  0  0  0  0  0  0  0
   -0.9769   -2.4216    0.9468 H   0  0  0  0  0  0  0  0  0  0  0  0
   -2.4307   -1.2963    3.3343 H   0  0  0  0  0  0  0  0  0  0  0  0
   -1.2369    0.9825    2.8333 H   0  0  0  0  0  0  0  0  0  0  0  0
    0.0196   -0.2553    2.5539 H   0  0  0  0  0  0  0  0  0  0  0  0
  2  1  1  6  0  0  0
  2  8  1  0  0  0  0
  3 11  1  0  0  0  0
  3  2  1  0  0  0  0
  4  3  1  0  0  0  0
  4  5  1  0  0  0  0
  5  2  1  0  0  0  0
  5  6  1  0  0  0  0
  5  9  1  1  0  0  0
  6 15  1  0  0  0  0
  6  7  1  0  0  0  0
  7 17  1  1  0  0  0
  8  7  1  0  0  0  0
  8 19  1  0  0  0  0
  8 18  1  0  0  0  0
  9  7  1  0  0  0  0
 10  1  1  0  0  0  0
 12  3  1  0  0  0  0
 13  4  1  0  0  0  0
 14  4  1  0  0  0  0
 16  6  1  0  0  0  0
M TOR 0 0 1 2 3
M TOR 1 0 1 2 10
M TOR 2 0 1 2 11
M TOR 3 0 1 4 3
M TOR 4 0 1 4 5
M TOR 5 0 1 4 8
M TOR 6 0 1 7 6
M TOR 7 0 1 7 17
M TOR 8 0 1 7 18
M TOR 9 1 2 3 4
M TOR 10 1 2 3 12
M TOR 11 1 2 3 13
M TOR 12 1 4 3 12
M TOR 13 1 4 3 13
M TOR 14 1 4 5 6
M TOR 15 1 4 5 14
M TOR 16 1 4 5 15
M TOR 17 1 4 8 6
M TOR 18 1 7 6 5
M TOR 19 1 7 6 8
M TOR 20 1 7 6 16
M TOR 21 2 1 0 9
M TOR 22 2 1 4 5
M TOR 23 2 1 4 8
M TOR 24 2 1 7 6
M TOR 25 2 1 7 17
M TOR 26 2 1 7 18
M TOR 27 2 3 4 5
M TOR 28 2 3 4 8
M TOR 29 3 2 1 7
M TOR 30 3 4 1 7
M TOR 31 3 4 5 6
M TOR 32 3 4 5 14
M TOR 33 3 4 5 15
M TOR 34 3 4 8 6
M TOR 35 4 1 0 9
M TOR 36 4 1 2 10
M TOR 37 4 1 2 11
M TOR 38 4 1 7 6
M TOR 39 4 1 7 17
M TOR 40 4 1 7 18
M TOR 41 4 3 2 10
M TOR 42 4 3 2 11
M TOR 43 4 5 6 7
M TOR 44 4 5 6 8
M TOR 45 4 5 6 16
M TOR 46 4 8 6 7
M TOR 47 4 8 6 16
M TOR 48 5 4 1 7
M TOR 49 5 4 3 12
M TOR 50 5 4 3 13
M TOR 51 5 6 7 17
M TOR 52 5 6 7 18
M TOR 53 7 1 0 9
M TOR 54 7 1 2 10
M TOR 55 7 1 2 11
M TOR 56 7 1 4 8
M TOR 57 7 6 5 14
M TOR 58 7 6 5 15
M TOR 59 8 4 3 12
M TOR 60 8 4 3 13
M TOR 61 8 4 5 14
M TOR 62 8 4 5 15
M TOR 63 8 6 5 14
M TOR 64 8 6 5 15
M TOR 65 8 6 7 17
M TOR 66 8 6 7 18
M  END
$$$$
