
     RDKit          3D

 19 21  0  0  0  0  0  0  0  0999 V2000
    0.3072    0.3292    0.1889 O   0  0  0  0  0  0  0  0  0  0  0  0
   -0.6530    1.2114    0.6529 C   0  0  0  0  0  0  0  0  0  0  0  0
   -2.1247    0.9173    0.5887 C   0  0  0  0  0  0  0  0  0  0  0  0
   -1.5668    2.1005   -0.1734 C   0  0  0  0  0  0  0  0  0  0  0  0
   -1.3354    3.2685    0.7891 C   0  0  0  0  0  0  0  0  0  0  0  0
   -0.4124    4.3691    0.2611 C   0  0  0  0  0  0  0  0  0  0  0  0
    0.8946    3.8166    0.2447 O   0  0  0  0  0  0  0  0  0  0  0  0
    1.0095    3.0179    1.4145 C   0  0  0  0  0  0  0  0  0  0  0  0
   -0.3566    2.3552    1.6301 C   0  0  0  0  0  0  0  0  0  0  0  0
    0.2969   -0.4539    0.7504 H   0  0  0  0  0  0  0  0  0  0  0  0
   -2.3754    0.0635   -0.0334 H   0  0  0  0  0  0  0  0  0  0  0  0
   -2.7779    1.0643    1.4471 H   0  0  0  0  0  0  0  0  0  0  0  0
   -1.6557    2.1808   -1.2503 H   0  0  0  0  0  0  0  0  0  0  0  0
   -2.2256    3.6620    1.2879 H   0  0  0  0  0  0  0  0  0  0  0  0
   -0.6500    4.6937   -0.7566 H   0  0  0  0  0  0  0  0  0  0  0  0
   -0.4595    5.2482    0.9262 H   0  0  0  0  0  0  0  0  0  0  0  0
    1.8110    2.2943    1.2448 H   0  0  0  0  0  0  0  0  0  0  0  0
    1.2675    3.6389    2.2879 H   0  0  0  0  0  0  0  0  0  0  0  0
   -0.5756    2.1718    2.6865 H   0  0  0  0  0  0  0  0  0  0  0  0
  1  2  1  0
  2  3  1  0
  3  4  1  0
  4  5  1  0
  5  6  1  0
  6  7  1  0
  7  8  1  0
  8  9  1  0
  4  2  1  0
  9  5  1  0
  9  2  1  0
  1 10  1  0
  3 11  1  0
  3 12  1  0
  4 13  1  0
  5 14  1  0
  6 15  1  0
  6 16  1  0
  8 17  1  0
  8 18  1  0
  9 19  1  0
M  END
$$$$
