
     RDKit          3D

 19 21  0  0  0  0  0  0  0  0999 V2000
    1.1321    0.1874   -1.3171 C   0  0  0  0  0  0  0  0  0  0  0  0
    0.0463    0.1095   -0.3798 O   0  0  0  0  0  0  0  0  0  0  0  0
    1.3707    0.2595    0.1236 C   0  0  0  0  0  0  0  0  0  0  0  0
    2.0003   -0.8491    0.9827 C   0  0  0  0  0  0  0  0  0  0  0  0
    2.5452    0.0002    2.1521 C   0  0  0  0  0  0  0  0  0  0  0  0
    1.3818    0.5147    3.0308 C   0  0  0  0  0  0  0  0  0  0  0  0
    0.7783    1.6262    2.1186 C   0  0  0  0  0  0  0  0  0  0  0  0
    1.7176    1.5383    0.8960 C   0  0  0  0  0  0  0  0  0  0  0  0
    2.9826    1.1944    1.4745 O   0  0  0  0  0  0  0  0  0  0  0  0
    1.3479   -0.7354   -1.8551 H   0  0  0  0  0  0  0  0  0  0  0  0
    1.1619    1.0928   -1.9227 H   0  0  0  0  0  0  0  0  0  0  0  0
    1.2591   -1.5958    1.2779 H   0  0  0  0  0  0  0  0  0  0  0  0
    2.8171   -1.3510    0.4575 H   0  0  0  0  0  0  0  0  0  0  0  0
    3.3838   -0.4371    2.6935 H   0  0  0  0  0  0  0  0  0  0  0  0
    0.6660   -0.2729    3.2789 H   0  0  0  0  0  0  0  0  0  0  0  0
    1.7645    0.9306    3.9654 H   0  0  0  0  0  0  0  0  0  0  0  0
   -0.2623    1.4461    1.8427 H   0  0  0  0  0  0  0  0  0  0  0  0
    0.8486    2.6109    2.5853 H   0  0  0  0  0  0  0  0  0  0  0  0
    1.8094    2.4415    0.2935 H   0  0  0  0  0  0  0  0  0  0  0  0
  1  2  1  0
  2  3  1  0
  3  4  1  0
  4  5  1  0
  5  6  1  0
  6  7  1  0
  7  8  1  0
  8  9  1  0
  3  1  1  0
  8  3  1  0
  9  5  1  0
  1 10  1  0
  1 11  1  0
  4 12  1  0
  4 13  1  0
  5 14  1  0
  6 15  1  0
  6 16  1  0
  7 17  1  0
  7 18  1  0
  8 19  1  0
M  END
$$$$
