
     RDKit          3D

 19 20  0  0  0  0  0  0  0  0999 V2000
    1.0336   -0.5593    0.3697 O   0  0  0  0  0  0  0  0  0  0  0  0
    0.1416   -0.1772   -0.3453 C   0  0  0  0  0  0  0  0  0  0  0  0
    0.0331    1.2100   -0.9162 C   0  0  0  0  0  0  0  0  0  0  0  0
   -0.9984    2.1547   -0.2346 C   0  0  0  0  0  0  0  0  0  0  0  0
    0.0191    3.1294    0.0329 O   0  0  0  0  0  0  0  0  0  0  0  0
    1.0737    2.2605   -0.4731 C   0  0  0  0  0  0  0  0  0  0  0  0
    1.9244    2.9073   -1.5186 C   0  0  0  0  0  0  0  0  0  0  0  0
    3.1605    3.6695   -1.1096 C   0  0  0  0  0  0  0  0  0  0  0  0
    3.2976    2.3364   -1.7941 C   0  0  0  0  0  0  0  0  0  0  0  0
   -0.6987   -0.8562   -0.6194 H   0  0  0  0  0  0  0  0  0  0  0  0
   -0.1107    1.1432   -1.9993 H   0  0  0  0  0  0  0  0  0  0  0  0
   -1.7932    2.5438   -0.8808 H   0  0  0  0  0  0  0  0  0  0  0  0
   -1.4475    1.7575    0.6856 H   0  0  0  0  0  0  0  0  0  0  0  0
    1.6977    1.8894    0.3501 H   0  0  0  0  0  0  0  0  0  0  0  0
    1.3724    3.2950   -2.3707 H   0  0  0  0  0  0  0  0  0  0  0  0
    3.4106    4.5650   -1.6668 H   0  0  0  0  0  0  0  0  0  0  0  0
    3.3904    3.7247   -0.0509 H   0  0  0  0  0  0  0  0  0  0  0  0
    3.6408    2.3133   -2.8220 H   0  0  0  0  0  0  0  0  0  0  0  0
    3.6177    1.4879   -1.1983 H   0  0  0  0  0  0  0  0  0  0  0  0
  1  2  2  0
  2  3  1  0
  3  4  1  0
  4  5  1  0
  5  6  1  0
  6  7  1  0
  7  8  1  0
  8  9  1  0
  6  3  1  0
  9  7  1  0
  2 10  1  0
  3 11  1  0
  4 12  1  0
  4 13  1  0
  6 14  1  0
  7 15  1  0
  8 16  1  0
  8 17  1  0
  9 18  1  0
  9 19  1  0
M  END
$$$$
