
     RDKit          3D

 19 20  0  0  0  0  0  0  0  0999 V2000
   -4.0880   -0.3328    0.0173 O   0  0  0  0  0  0  0  0  0  0  0  0
   -2.9677    0.2857    0.5958 C   0  0  0  0  0  0  0  0  0  0  0  0
   -1.7306   -0.5822    0.9843 C   0  0  0  0  0  0  0  0  0  0  0  0
   -0.8942    0.6657    0.5520 C   0  0  0  0  0  0  0  0  0  0  0  0
    0.3619    0.5017   -0.0491 O   0  0  0  0  0  0  0  0  0  0  0  0
   -2.0522    1.0115   -0.4188 C   0  0  0  0  0  0  0  0  0  0  0  0
   -0.9241    1.6654    1.6954 C   0  0  0  0  0  0  0  0  0  0  0  0
   -2.0958    1.9267    2.2736 C   0  0  0  0  0  0  0  0  0  0  0  0
   -3.3341    1.2279    1.7580 C   0  0  0  0  0  0  0  0  0  0  0  0
   -4.5994   -0.7500    0.7197 H   0  0  0  0  0  0  0  0  0  0  0  0
   -1.6339   -0.9377    2.0138 H   0  0  0  0  0  0  0  0  0  0  0  0
   -1.6068   -1.4000    0.2703 H   0  0  0  0  0  0  0  0  0  0  0  0
    0.9836    0.2105    0.6269 H   0  0  0  0  0  0  0  0  0  0  0  0
   -2.2403    2.0636   -0.6409 H   0  0  0  0  0  0  0  0  0  0  0  0
   -1.9760    0.4264   -1.3380 H   0  0  0  0  0  0  0  0  0  0  0  0
    0.0049    2.1461    1.9881 H   0  0  0  0  0  0  0  0  0  0  0  0
   -2.1950    2.6346    3.0906 H   0  0  0  0  0  0  0  0  0  0  0  0
   -3.8163    0.6539    2.5651 H   0  0  0  0  0  0  0  0  0  0  0  0
   -4.0803    1.9567    1.4131 H   0  0  0  0  0  0  0  0  0  0  0  0
  1  2  1  0
  2  3  1  0
  3  4  1  0
  4  5  1  0
  4  6  1  0
  4  7  1  0
  7  8  2  0
  8  9  1  0
  6  2  1  0
  9  2  1  0
  1 10  1  0
  3 11  1  0
  3 12  1  0
  5 13  1  0
  6 14  1  0
  6 15  1  0
  7 16  1  0
  8 17  1  0
  9 18  1  0
  9 19  1  0
M  END
$$$$
