gdb 2805	3.7073352	1.1082626	1.0567754	2.662	74.18	-0.23555	0.06514	0.30069	1191.4083	0.156548	-422.492815	-422.484534	-422.483589	-422.525288	32.467
 OpenBabel02181911413D

 19 21  0  0  1  0  0  0  0  0999 V2000
   -4.9266   -0.2132    2.3358 O   0  0  0  0  0  0  0  0  0  0  0  0
   -3.6465    0.2710    2.0408 C   0  0  1  0  0  0  0  0  0  0  0  0
   -2.9178    1.0246    3.1143 C   0  0  1  0  0  0  0  0  0  0  0  0
   -2.4752   -0.4043    2.6988 C   0  0  2  0  0  0  0  0  0  0  0  0
   -1.1161    0.1522    2.2249 C   0  0  1  0  0  0  0  0  0  0  0  0
   -0.9644    0.6257    0.7405 C   0  0  2  0  0  0  0  0  0  0  0  0
    0.3175    0.4952    0.1690 O   0  0  0  0  0  0  0  0  0  0  0  0
   -1.3869    2.0723    1.1760 C   0  0  0  0  0  0  0  0  0  0  0  0
   -1.5574    1.5861    2.6470 C   0  0  1  0  0  0  0  0  0  0  0  0
   -4.9450   -0.4930    3.2573 H   0  0  0  0  0  0  0  0  0  0  0  0
   -3.6284    0.5840    1.0021 H   0  0  0  0  0  0  0  0  0  0  0  0
   -3.4540    1.3559    3.9977 H   0  0  0  0  0  0  0  0  0  0  0  0
   -2.6181   -1.3534    3.2052 H   0  0  0  0  0  0  0  0  0  0  0  0
   -0.2379   -0.3307    2.6573 H   0  0  0  0  0  0  0  0  0  0  0  0
   -1.6414    0.1363    0.0361 H   0  0  0  0  0  0  0  0  0  0  0  0
    0.9546    0.9110    0.7600 H   0  0  0  0  0  0  0  0  0  0  0  0
   -0.5579    2.7764    1.0533 H   0  0  0  0  0  0  0  0  0  0  0  0
   -2.2672    2.4970    0.6866 H   0  0  0  0  0  0  0  0  0  0  0  0
   -1.0177    2.1371    3.4177 H   0  0  0  0  0  0  0  0  0  0  0  0
  1 10  1  0  0  0  0
  2 11  1  6  0  0  0
  2  1  1  0  0  0  0
  2  4  1  0  0  0  0
  2  3  1  0  0  0  0
  3 12  1  1  0  0  0
  4  3  1  0  0  0  0
  4 13  1  1  0  0  0
  5  9  1  0  0  0  0
  5 14  1  1  0  0  0
  5  4  1  0  0  0  0
  6 15  1  6  0  0  0
  6  8  1  0  0  0  0
  6  5  1  0  0  0  0
  7  6  1  0  0  0  0
  7 16  1  0  0  0  0
  8  9  1  0  0  0  0
  9  3  1  0  0  0  0
  9 19  1  1  0  0  0
 17  8  1  0  0  0  0
 18  8  1  0  0  0  0
M TOR 0 0 1 2 3
M TOR 1 0 1 2 8
M TOR 2 0 1 2 11
M TOR 3 0 1 3 4
M TOR 4 0 1 3 12
M TOR 5 1 2 3 4
M TOR 6 1 2 3 12
M TOR 7 1 2 8 4
M TOR 8 1 2 8 7
M TOR 9 1 2 8 18
M TOR 10 1 3 2 8
M TOR 11 1 3 2 11
M TOR 12 1 3 4 5
M TOR 13 1 3 4 8
M TOR 14 1 3 4 13
M TOR 15 2 1 0 9
M TOR 16 2 3 1 10
M TOR 17 2 3 4 5
M TOR 18 2 3 4 8
M TOR 19 2 3 4 13
M TOR 20 2 8 4 5
M TOR 21 2 8 4 13
M TOR 22 2 8 7 5
M TOR 23 2 8 7 16
M TOR 24 2 8 7 17
M TOR 25 3 1 0 9
M TOR 26 3 2 8 7
M TOR 27 3 2 8 18
M TOR 28 3 4 5 6
M TOR 29 3 4 5 7
M TOR 30 3 4 5 14
M TOR 31 3 4 8 7
M TOR 32 3 4 8 18
M TOR 33 4 3 1 10
M TOR 34 4 3 2 11
M TOR 35 4 5 6 15
M TOR 36 4 5 7 8
M TOR 37 4 5 7 16
M TOR 38 4 5 7 17
M TOR 39 4 8 2 11
M TOR 40 4 8 7 16
M TOR 41 4 8 7 17
M TOR 42 5 4 3 12
M TOR 43 5 4 8 18
M TOR 44 5 7 8 18
M TOR 45 6 5 4 8
M TOR 46 6 5 4 13
M TOR 47 6 5 7 8
M TOR 48 6 5 7 16
M TOR 49 6 5 7 17
M TOR 50 7 5 4 13
M TOR 51 7 5 6 15
M TOR 52 7 8 2 11
M TOR 53 7 8 4 13
M TOR 54 8 2 1 10
M TOR 55 8 2 3 12
M TOR 56 8 4 3 12
M TOR 57 8 4 5 14
M TOR 58 8 7 5 14
M  END
$$$$
