gdb 731	2.7170557	1.5989716	1.2296721	1.7007	75.4	-0.23708	-0.02389	0.21319000000000002	1068.248	0.157478	-422.571702	-422.563571	-422.562627	-422.604672	30.8
 OpenBabel02181911403D

 19 20  0  0  0  0  0  0  0  0999 V2000
    1.1878   -0.2180    0.0483 O   0  0  0  0  0  0  0  0  0  0  0  0
   -0.0062   -0.0823   -0.0319 C   0  0  0  0  0  0  0  0  0  0  0  0
   -0.7899    1.2310   -0.0517 C   0  0  0  0  0  0  0  0  0  0  0  0
   -2.2233    0.7528    0.1869 C   0  0  0  0  0  0  0  0  0  0  0  0
   -2.2726   -0.5731   -0.3508 O   0  0  0  0  0  0  0  0  0  0  0  0
   -1.0338   -1.2087   -0.1266 C   0  0  0  0  0  0  0  0  0  0  0  0
   -0.9161   -2.2334    1.0536 C   0  0  0  0  0  0  0  0  0  0  0  0
   -0.1306   -3.1696    0.0978 C   0  0  0  0  0  0  0  0  0  0  0  0
   -0.6673   -2.3495   -1.1060 C   0  0  0  0  0  0  0  0  0  0  0  0
   -0.4023    1.9396    0.6824 H   0  0  0  0  0  0  0  0  0  0  0  0
   -0.6777    1.6765   -1.0470 H   0  0  0  0  0  0  0  0  0  0  0  0
   -2.4613    0.7428    1.2613 H   0  0  0  0  0  0  0  0  0  0  0  0
   -2.9839    1.3439   -0.3271 H   0  0  0  0  0  0  0  0  0  0  0  0
   -0.4191   -1.9021    1.9681 H   0  0  0  0  0  0  0  0  0  0  0  0
   -1.9111   -2.6169    1.2938 H   0  0  0  0  0  0  0  0  0  0  0  0
    0.9472   -3.0477    0.2147 H   0  0  0  0  0  0  0  0  0  0  0  0
   -0.3798   -4.2316    0.1271 H   0  0  0  0  0  0  0  0  0  0  0  0
    0.0280   -2.1035   -1.9113 H   0  0  0  0  0  0  0  0  0  0  0  0
   -1.5821   -2.7733   -1.5277 H   0  0  0  0  0  0  0  0  0  0  0  0
  2  1  2  0  0  0  0
  3  2  1  0  0  0  0
  3  4  1  0  0  0  0
  3 10  1  0  0  0  0
  4 12  1  0  0  0  0
  5  6  1  0  0  0  0
  5  4  1  0  0  0  0
  6  2  1  0  0  0  0
  6  7  1  0  0  0  0
  7 15  1  0  0  0  0
  7 14  1  0  0  0  0
  8 17  1  0  0  0  0
  8 16  1  0  0  0  0
  8  7  1  0  0  0  0
  9  6  1  0  0  0  0
  9  8  1  0  0  0  0
 11  3  1  0  0  0  0
 13  4  1  0  0  0  0
 18  9  1  0  0  0  0
 19  9  1  0  0  0  0
M TOR 0 0 1 2 3
M TOR 1 0 1 2 9
M TOR 2 0 1 2 10
M TOR 3 0 1 5 4
M TOR 4 0 1 5 6
M TOR 5 0 1 5 8
M TOR 6 1 2 3 4
M TOR 7 1 2 3 11
M TOR 8 1 2 3 12
M TOR 9 1 5 4 3
M TOR 10 1 5 6 7
M TOR 11 1 5 6 13
M TOR 12 1 5 6 14
M TOR 13 1 5 8 7
M TOR 14 1 5 8 17
M TOR 15 1 5 8 18
M TOR 16 2 1 5 4
M TOR 17 2 1 5 6
M TOR 18 2 1 5 8
M TOR 19 2 3 4 5
M TOR 20 3 2 1 5
M TOR 21 3 4 5 6
M TOR 22 3 4 5 8
M TOR 23 4 3 2 9
M TOR 24 4 3 2 10
M TOR 25 4 5 6 7
M TOR 26 4 5 6 13
M TOR 27 4 5 6 14
M TOR 28 4 5 8 7
M TOR 29 4 5 8 17
M TOR 30 4 5 8 18
M TOR 31 5 1 2 9
M TOR 32 5 1 2 10
M TOR 33 5 4 3 11
M TOR 34 5 4 3 12
M TOR 35 5 6 7 8
M TOR 36 5 6 7 15
M TOR 37 5 6 7 16
M TOR 38 5 8 7 15
M TOR 39 5 8 7 16
M TOR 40 6 5 8 17
M TOR 41 6 5 8 18
M TOR 42 6 7 8 17
M TOR 43 6 7 8 18
M TOR 44 8 5 6 13
M TOR 45 8 5 6 14
M TOR 46 8 7 6 13
M TOR 47 8 7 6 14
M  END
$$$$
