gdb 1091	2.5014513	1.4682666	1.1397106	2.5193	77.47	-0.24715	-0.02599	0.22116000000000002	1147.5241	0.15383	-422.549998	-422.540493	-422.539549	-422.584581	34.418
 OpenBabel02181911403D

 19 20  0  0  1  0  0  0  0  0999 V2000
    4.0316   -0.3638   -1.1847 C   0  0  0  0  0  0  0  0  0  0  0  0
    3.3857   -0.4477    0.1819 C   0  0  0  0  0  0  0  0  0  0  0  0
    3.9689   -0.1549    1.2050 O   0  0  0  0  0  0  0  0  0  0  0  0
    1.9701   -0.8984    0.2540 C   0  0  2  0  0  0  0  0  0  0  0  0
    1.0266   -0.7937    1.4559 C   0  0  0  0  0  0  0  0  0  0  0  0
    0.3049   -2.0903    0.9587 C   0  0  0  0  0  0  0  0  0  0  0  0
    1.2905   -2.1496   -0.2225 C   0  0  2  0  0  0  0  0  0  0  0  0
    1.7612   -3.3640   -0.9548 C   0  0  0  0  0  0  0  0  0  0  0  0
    1.1579   -0.9228   -0.9356 O   0  0  0  0  0  0  0  0  0  0  0  0
    5.0581   -0.0122   -1.0751 H   0  0  0  0  0  0  0  0  0  0  0  0
    4.0269   -1.3411   -1.6786 H   0  0  0  0  0  0  0  0  0  0  0  0
    3.4626    0.3123   -1.8300 H   0  0  0  0  0  0  0  0  0  0  0  0
    1.5526   -0.9293    2.4012 H   0  0  0  0  0  0  0  0  0  0  0  0
    0.4311    0.1208    1.4902 H   0  0  0  0  0  0  0  0  0  0  0  0
    0.4136   -2.9279    1.6514 H   0  0  0  0  0  0  0  0  0  0  0  0
   -0.7431   -1.9922    0.6656 H   0  0  0  0  0  0  0  0  0  0  0  0
    2.1222   -4.1232   -0.2544 H   0  0  0  0  0  0  0  0  0  0  0  0
    0.9330   -3.8009   -1.5252 H   0  0  0  0  0  0  0  0  0  0  0  0
    2.5611   -3.1216   -1.6579 H   0  0  0  0  0  0  0  0  0  0  0  0
  1 10  1  0  0  0  0
  1  2  1  0  0  0  0
  2  3  2  0  0  0  0
  4  2  1  1  0  0  0
  4  5  1  0  0  0  0
  5 14  1  0  0  0  0
  5 13  1  0  0  0  0
  6  5  1  0  0  0  0
  6 15  1  0  0  0  0
  7  8  1  6  0  0  0
  7  4  1  0  0  0  0
  7  6  1  0  0  0  0
  8 17  1  0  0  0  0
  9  7  1  0  0  0  0
  9  4  1  0  0  0  0
 11  1  1  0  0  0  0
 12  1  1  0  0  0  0
 16  6  1  0  0  0  0
 18  8  1  0  0  0  0
 19  8  1  0  0  0  0
M TOR 0 0 1 3 4
M TOR 1 0 1 3 6
M TOR 2 0 1 3 8
M TOR 3 1 3 4 5
M TOR 4 1 3 4 12
M TOR 5 1 3 4 13
M TOR 6 1 3 6 5
M TOR 7 1 3 6 7
M TOR 8 1 3 6 8
M TOR 9 2 1 0 9
M TOR 10 2 1 0 10
M TOR 11 2 1 0 11
M TOR 12 2 1 3 4
M TOR 13 2 1 3 6
M TOR 14 2 1 3 8
M TOR 15 3 1 0 9
M TOR 16 3 1 0 10
M TOR 17 3 1 0 11
M TOR 18 3 4 5 6
M TOR 19 3 4 5 14
M TOR 20 3 4 5 15
M TOR 21 3 6 5 14
M TOR 22 3 6 5 15
M TOR 23 3 6 7 16
M TOR 24 3 6 7 17
M TOR 25 3 6 7 18
M TOR 26 3 8 6 5
M TOR 27 3 8 6 7
M TOR 28 4 3 6 7
M TOR 29 4 3 6 8
M TOR 30 4 5 6 7
M TOR 31 4 5 6 8
M TOR 32 5 4 3 8
M TOR 33 5 6 7 16
M TOR 34 5 6 7 17
M TOR 35 5 6 7 18
M TOR 36 6 3 4 12
M TOR 37 6 3 4 13
M TOR 38 6 5 4 12
M TOR 39 6 5 4 13
M TOR 40 7 6 5 14
M TOR 41 7 6 5 15
M TOR 42 8 3 4 12
M TOR 43 8 3 4 13
M TOR 44 8 6 5 14
M TOR 45 8 6 5 15
M TOR 46 8 6 7 16
M TOR 47 8 6 7 17
M TOR 48 8 6 7 18
M  END
$$$$
