gdb 3346	2.5624153	1.2503487	0.9425235	3.1995	76.49	-0.23486	-0.02273	0.21213	1267.4746	0.154633	-422.522633	-422.513379	-422.512435	-422.557785	33.077
 OpenBabel02181911413D

 19 20  0  0  1  0  0  0  0  0999 V2000
   -3.4302    0.7932    0.5546 C   0  0  0  0  0  0  0  0  0  0  0  0
   -2.5227    1.9604    0.2302 C   0  0  1  0  0  0  0  0  0  0  0  0
   -2.1817    2.9146    1.3671 C   0  0  2  0  0  0  0  0  0  0  0  0
   -1.3170    4.0431    0.8255 C   0  0  0  0  0  0  0  0  0  0  0  0
   -0.4030    3.0960    0.2050 O   0  0  0  0  0  0  0  0  0  0  0  0
   -1.1265    1.9954    0.7838 C   0  0  2  0  0  0  0  0  0  0  0  0
   -0.3009    0.8503    1.2973 C   0  0  0  0  0  0  0  0  0  0  0  0
    0.3971    0.1173    0.1626 C   0  0  0  0  0  0  0  0  0  0  0  0
    0.3871   -1.0784    0.0221 O   0  0  0  0  0  0  0  0  0  0  0  0
   -3.2807    0.4368    1.5789 H   0  0  0  0  0  0  0  0  0  0  0  0
   -4.4819    1.0839    0.4614 H   0  0  0  0  0  0  0  0  0  0  0  0
   -3.2516   -0.0502   -0.1201 H   0  0  0  0  0  0  0  0  0  0  0  0
   -2.6551    2.3884   -0.7628 H   0  0  0  0  0  0  0  0  0  0  0  0
   -2.6903    2.8905    2.3221 H   0  0  0  0  0  0  0  0  0  0  0  0
   -1.7694    4.7236    0.0943 H   0  0  0  0  0  0  0  0  0  0  0  0
   -0.7997    4.6219    1.5990 H   0  0  0  0  0  0  0  0  0  0  0  0
    0.4750    1.2461    1.9676 H   0  0  0  0  0  0  0  0  0  0  0  0
   -0.9070    0.1322    1.8542 H   0  0  0  0  0  0  0  0  0  0  0  0
    0.9366    0.7795   -0.5488 H   0  0  0  0  0  0  0  0  0  0  0  0
  1 10  1  0  0  0  0
  2 13  1  6  0  0  0
  2  1  1  0  0  0  0
  2  6  1  0  0  0  0
  2  3  1  0  0  0  0
  3 14  1  1  0  0  0
  4  3  1  0  0  0  0
  4 16  1  0  0  0  0
  5  6  1  0  0  0  0
  5  4  1  0  0  0  0
  6  7  1  1  0  0  0
  6  3  1  0  0  0  0
  7 18  1  0  0  0  0
  7 17  1  0  0  0  0
  8  7  1  0  0  0  0
  9  8  2  0  0  0  0
 11  1  1  0  0  0  0
 12  1  1  0  0  0  0
 15  4  1  0  0  0  0
 19  8  1  0  0  0  0
M TOR 0 0 1 2 3
M TOR 1 0 1 2 5
M TOR 2 0 1 2 13
M TOR 3 0 1 5 4
M TOR 4 0 1 5 6
M TOR 5 1 2 3 4
M TOR 6 1 2 3 14
M TOR 7 1 2 3 15
M TOR 8 1 2 5 4
M TOR 9 1 2 5 6
M TOR 10 1 5 2 3
M TOR 11 1 5 2 13
M TOR 12 1 5 4 3
M TOR 13 1 5 6 7
M TOR 14 1 5 6 16
M TOR 15 1 5 6 17
M TOR 16 2 1 0 9
M TOR 17 2 1 0 10
M TOR 18 2 1 0 11
M TOR 19 2 3 4 5
M TOR 20 2 5 1 12
M TOR 21 2 5 6 7
M TOR 22 2 5 6 16
M TOR 23 2 5 6 17
M TOR 24 3 2 1 12
M TOR 25 3 2 5 6
M TOR 26 3 4 5 6
M TOR 27 4 3 2 13
M TOR 28 4 5 1 12
M TOR 29 4 5 2 13
M TOR 30 4 5 6 7
M TOR 31 4 5 6 16
M TOR 32 4 5 6 17
M TOR 33 5 1 0 9
M TOR 34 5 1 0 10
M TOR 35 5 1 0 11
M TOR 36 5 2 3 14
M TOR 37 5 2 3 15
M TOR 38 5 4 3 14
M TOR 39 5 4 3 15
M TOR 40 5 6 7 8
M TOR 41 5 6 7 18
M TOR 42 6 5 1 12
M TOR 43 6 5 2 13
M TOR 44 8 7 6 16
M TOR 45 8 7 6 17
M  END
$$$$
