
     RDKit          3D

 19 20  0  0  0  0  0  0  0  0999 V2000
   -1.4246   -0.4620   -2.4585 C   0  0  0  0  0  0  0  0  0  0  0  0
   -1.9284   -0.7134   -1.0407 C   0  0  0  0  0  0  0  0  0  0  0  0
   -2.1996    0.5378   -0.1801 C   0  0  0  0  0  0  0  0  0  0  0  0
   -2.6619   -0.0492    1.1640 C   0  0  0  0  0  0  0  0  0  0  0  0
   -1.7509   -1.3130    1.2851 C   0  0  0  0  0  0  0  0  0  0  0  0
   -0.8960   -1.2419   -0.0167 C   0  0  0  0  0  0  0  0  0  0  0  0
   -0.0219   -0.0028    0.1503 C   0  0  0  0  0  0  0  0  0  0  0  0
    1.1476    0.1055    0.3738 O   0  0  0  0  0  0  0  0  0  0  0  0
   -0.8645    1.0740    0.0358 O   0  0  0  0  0  0  0  0  0  0  0  0
   -1.1257   -1.4006   -2.9356 H   0  0  0  0  0  0  0  0  0  0  0  0
   -2.2094   -0.0114   -3.0745 H   0  0  0  0  0  0  0  0  0  0  0  0
   -0.5623    0.2107   -2.4707 H   0  0  0  0  0  0  0  0  0  0  0  0
   -2.8151   -1.3563   -1.0660 H   0  0  0  0  0  0  0  0  0  0  0  0
   -2.8118    1.3312   -0.6072 H   0  0  0  0  0  0  0  0  0  0  0  0
   -2.5058    0.6679    1.9723 H   0  0  0  0  0  0  0  0  0  0  0  0
   -3.7243   -0.3064    1.1378 H   0  0  0  0  0  0  0  0  0  0  0  0
   -1.1315   -1.3082    2.1844 H   0  0  0  0  0  0  0  0  0  0  0  0
   -2.3382   -2.2348    1.2913 H   0  0  0  0  0  0  0  0  0  0  0  0
   -0.3287   -2.1383   -0.2581 H   0  0  0  0  0  0  0  0  0  0  0  0
  1  2  1  0
  2  3  1  0
  3  4  1  0
  4  5  1  0
  5  6  1  0
  6  7  1  0
  7  8  2  0
  7  9  1  0
  6  2  1  0
  9  3  1  0
  1 10  1  0
  1 11  1  0
  1 12  1  0
  2 13  1  0
  3 14  1  0
  4 15  1  0
  4 16  1  0
  5 17  1  0
  5 18  1  0
  6 19  1  0
M  END
$$$$
