
     RDKit          3D

 19 19  0  0  0  0  0  0  0  0999 V2000
    0.2211   -1.1719   -0.2149 O   0  0  0  0  0  0  0  0  0  0  0  0
    0.2742    0.0170   -0.0411 C   0  0  0  0  0  0  0  0  0  0  0  0
   -0.3928    0.7565    1.1055 C   0  0  0  0  0  0  0  0  0  0  0  0
   -1.1021    2.0274    0.6550 C   0  0  0  0  0  0  0  0  0  0  0  0
   -2.3282    1.7979   -0.2197 C   0  0  0  0  0  0  0  0  0  0  0  0
   -3.4746    1.1456    0.5332 C   0  0  0  0  0  0  0  0  0  0  0  0
   -4.1435    0.2382    0.1141 O   0  0  0  0  0  0  0  0  0  0  0  0
   -0.2504    3.2486    0.3818 C   0  0  0  0  0  0  0  0  0  0  0  0
   -1.1278    3.2046    1.6064 C   0  0  0  0  0  0  0  0  0  0  0  0
    0.8517    0.6746   -0.7320 H   0  0  0  0  0  0  0  0  0  0  0  0
   -1.0674    0.0618    1.6168 H   0  0  0  0  0  0  0  0  0  0  0  0
    0.4041    1.0227    1.8143 H   0  0  0  0  0  0  0  0  0  0  0  0
   -2.6992    2.7683   -0.5787 H   0  0  0  0  0  0  0  0  0  0  0  0
   -2.1032    1.1870   -1.1003 H   0  0  0  0  0  0  0  0  0  0  0  0
   -3.6720    1.5910    1.5362 H   0  0  0  0  0  0  0  0  0  0  0  0
    0.8221    3.1662    0.5217 H   0  0  0  0  0  0  0  0  0  0  0  0
   -0.5392    3.9005   -0.4353 H   0  0  0  0  0  0  0  0  0  0  0  0
   -0.6543    3.0891    2.5752 H   0  0  0  0  0  0  0  0  0  0  0  0
   -2.0128    3.8318    1.6206 H   0  0  0  0  0  0  0  0  0  0  0  0
  1  2  2  0
  2  3  1  0
  3  4  1  0
  4  5  1  0
  5  6  1  0
  6  7  2  0
  4  8  1  0
  8  9  1  0
  9  4  1  0
  2 10  1  0
  3 11  1  0
  3 12  1  0
  5 13  1  0
  5 14  1  0
  6 15  1  0
  8 16  1  0
  8 17  1  0
  9 18  1  0
  9 19  1  0
M  END
$$$$
