gdb 4294	3.839758	1.1887407	0.9948077	2.0306	77.69	-0.24638	0.00716	0.25354	1203.5228	0.158797	-422.569362	-422.561424	-422.56048	-422.602102	30.473
 OpenBabel02181911413D

 19 20  0  0  1  0  0  0  0  0999 V2000
    0.1069    1.4208   -0.0962 O   0  0  0  0  0  0  0  0  0  0  0  0
    0.0576    0.0051   -0.0259 C   0  0  2  0  0  0  0  0  0  0  0  0
   -1.3881   -0.5804    0.0507 C   0  0  0  0  0  0  0  0  0  0  0  0
   -1.2264   -1.8490    0.8932 C   0  0  2  0  0  0  0  0  0  0  0  0
   -2.2263   -2.0868    1.8811 O   0  0  0  0  0  0  0  0  0  0  0  0
   -1.5882   -2.8321    2.9207 C   0  0  0  0  0  0  0  0  0  0  0  0
   -0.0823   -2.4027    2.9575 C   0  0  0  0  0  0  0  0  0  0  0  0
    0.0130   -1.5835    1.7063 C   0  0  0  0  0  0  0  0  0  0  0  0
    0.7231   -0.5727    1.2150 C   0  0  0  0  0  0  0  0  0  0  0  0
   -0.2897    1.7620    0.7136 H   0  0  0  0  0  0  0  0  0  0  0  0
    0.5605   -0.3207   -0.9453 H   0  0  0  0  0  0  0  0  0  0  0  0
   -2.0169    0.1221    0.6090 H   0  0  0  0  0  0  0  0  0  0  0  0
   -1.8406   -0.7405   -0.9301 H   0  0  0  0  0  0  0  0  0  0  0  0
   -1.1174   -2.7451    0.2561 H   0  0  0  0  0  0  0  0  0  0  0  0
   -2.1173   -2.6191    3.8528 H   0  0  0  0  0  0  0  0  0  0  0  0
   -1.6690   -3.9107    2.7194 H   0  0  0  0  0  0  0  0  0  0  0  0
    0.1639   -1.8200    3.8494 H   0  0  0  0  0  0  0  0  0  0  0  0
    0.5758   -3.2781    2.9480 H   0  0  0  0  0  0  0  0  0  0  0  0
    1.6357   -0.1472    1.6177 H   0  0  0  0  0  0  0  0  0  0  0  0
  1  2  1  0  0  0  0
  1 10  1  0  0  0  0
  2 11  1  6  0  0  0
  2  3  1  0  0  0  0
  2  9  1  0  0  0  0
  3 12  1  0  0  0  0
  3  4  1  0  0  0  0
  4 14  1  6  0  0  0
  4  8  1  0  0  0  0
  4  5  1  0  0  0  0
  5  6  1  0  0  0  0
  6  7  1  0  0  0  0
  6 15  1  0  0  0  0
  7 17  1  0  0  0  0
  8  7  1  0  0  0  0
  9 19  1  0  0  0  0
  9  8  2  0  0  0  0
 13  3  1  0  0  0  0
 16  6  1  0  0  0  0
 18  7  1  0  0  0  0
M TOR 0 0 1 2 3
M TOR 1 0 1 2 11
M TOR 2 0 1 2 12
M TOR 3 0 1 8 7
M TOR 4 0 1 8 18
M TOR 5 1 2 3 4
M TOR 6 1 2 3 7
M TOR 7 1 2 3 13
M TOR 8 1 8 7 3
M TOR 9 1 8 7 6
M TOR 10 2 1 0 9
M TOR 11 2 1 8 7
M TOR 12 2 1 8 18
M TOR 13 2 3 4 5
M TOR 14 2 3 7 6
M TOR 15 2 3 7 8
M TOR 16 3 2 1 8
M TOR 17 3 2 1 10
M TOR 18 3 4 5 6
M TOR 19 3 4 5 14
M TOR 20 3 4 5 15
M TOR 21 3 7 6 5
M TOR 22 3 7 6 16
M TOR 23 3 7 6 17
M TOR 24 3 7 8 18
M TOR 25 4 3 2 11
M TOR 26 4 3 2 12
M TOR 27 4 3 7 6
M TOR 28 4 3 7 8
M TOR 29 4 5 6 7
M TOR 30 4 5 6 16
M TOR 31 4 5 6 17
M TOR 32 5 4 3 7
M TOR 33 5 4 3 13
M TOR 34 5 6 7 8
M TOR 35 6 7 3 13
M TOR 36 6 7 8 18
M TOR 37 7 3 2 11
M TOR 38 7 3 2 12
M TOR 39 7 6 5 14
M TOR 40 7 6 5 15
M TOR 41 7 8 1 10
M TOR 42 8 1 0 9
M TOR 43 8 1 2 11
M TOR 44 8 1 2 12
M TOR 45 8 7 3 13
M TOR 46 8 7 6 16
M TOR 47 8 7 6 17
M  END
$$$$
