gdb 342	2.4116148	1.9322008	1.3052184	1.4454	74.15	-0.25115	0.07248	0.32363	1007.3249	0.158871	-422.531112	-422.523776	-422.522832	-422.562659	29.188
 OpenBabel02181911403D

 19 21  0  0  1  0  0  0  0  0999 V2000
   -0.1533    1.3136    0.0008 C   0  0  0  0  0  0  0  0  0  0  0  0
    0.0839   -0.1066    0.1775 O   0  0  0  0  0  0  0  0  0  0  0  0
    1.3462   -0.0430   -0.5528 C   0  0  2  0  0  0  0  0  0  0  0  0
    2.5115   -0.8071    0.0734 C   0  0  0  0  0  0  0  0  0  0  0  0
    3.2515   -0.0050    1.1564 C   0  0  0  0  0  0  0  0  0  0  0  0
    3.6415    1.4000    0.6475 C   0  0  0  0  0  0  0  0  0  0  0  0
    2.3808    2.1860    0.3275 C   0  0  1  0  0  0  0  0  0  0  0  0
    2.0394    2.4377   -1.0627 O   0  0  0  0  0  0  0  0  0  0  0  0
    1.3153    1.4661   -0.3583 C   0  0  2  0  0  0  0  0  0  0  0  0
   -0.8475    1.5134   -0.8271 H   0  0  0  0  0  0  0  0  0  0  0  0
   -0.5172    1.7950    0.9143 H   0  0  0  0  0  0  0  0  0  0  0  0
    1.1843   -0.3533   -1.5948 H   0  0  0  0  0  0  0  0  0  0  0  0
    2.1324   -1.7543    0.4726 H   0  0  0  0  0  0  0  0  0  0  0  0
    3.2173   -1.0626   -0.7271 H   0  0  0  0  0  0  0  0  0  0  0  0
    2.6129    0.0997    2.0423 H   0  0  0  0  0  0  0  0  0  0  0  0
    4.1439   -0.5536    1.4745 H   0  0  0  0  0  0  0  0  0  0  0  0
    4.2414    1.9283    1.3945 H   0  0  0  0  0  0  0  0  0  0  0  0
    4.2522    1.3182   -0.2592 H   0  0  0  0  0  0  0  0  0  0  0  0
    2.1171    3.0123    0.9856 H   0  0  0  0  0  0  0  0  0  0  0  0
  1  2  1  0  0  0  0
  1 11  1  0  0  0  0
  3 12  1  6  0  0  0
  3  9  1  0  0  0  0
  3  4  1  0  0  0  0
  3  2  1  0  0  0  0
  4 13  1  0  0  0  0
  4  5  1  0  0  0  0
  5 16  1  0  0  0  0
  5 15  1  0  0  0  0
  6  5  1  0  0  0  0
  6 17  1  0  0  0  0
  7  6  1  0  0  0  0
  7 19  1  1  0  0  0
  8  7  1  0  0  0  0
  9  8  1  6  0  0  0
  9  1  1  0  0  0  0
  9  7  1  0  0  0  0
 10  1  1  0  0  0  0
 14  4  1  0  0  0  0
 18  6  1  0  0  0  0
M TOR 0 0 1 2 3
M TOR 1 0 1 2 8
M TOR 2 0 1 2 11
M TOR 3 0 8 2 3
M TOR 4 0 8 2 11
M TOR 5 0 8 6 5
M TOR 6 0 8 6 7
M TOR 7 0 8 6 18
M TOR 8 1 0 8 6
M TOR 9 1 0 8 7
M TOR 10 1 2 3 4
M TOR 11 1 2 3 12
M TOR 12 1 2 3 13
M TOR 13 1 2 8 6
M TOR 14 1 2 8 7
M TOR 15 2 1 0 9
M TOR 16 2 1 0 10
M TOR 17 2 3 4 5
M TOR 18 2 3 4 14
M TOR 19 2 3 4 15
M TOR 20 2 8 0 9
M TOR 21 2 8 0 10
M TOR 22 2 8 6 5
M TOR 23 2 8 6 7
M TOR 24 2 8 6 18
M TOR 25 3 2 8 6
M TOR 26 3 2 8 7
M TOR 27 3 4 5 6
M TOR 28 3 4 5 16
M TOR 29 3 4 5 17
M TOR 30 4 3 2 8
M TOR 31 4 3 2 11
M TOR 32 4 5 6 7
M TOR 33 4 5 6 8
M TOR 34 4 5 6 18
M TOR 35 5 4 3 12
M TOR 36 5 4 3 13
M TOR 37 5 6 7 8
M TOR 38 6 5 4 14
M TOR 39 6 5 4 15
M TOR 40 6 8 0 9
M TOR 41 6 8 0 10
M TOR 42 6 8 2 11
M TOR 43 7 6 5 16
M TOR 44 7 6 5 17
M TOR 45 7 8 0 9
M TOR 46 7 8 0 10
M TOR 47 7 8 2 11
M TOR 48 7 8 6 18
M TOR 49 8 2 3 12
M TOR 50 8 2 3 13
M TOR 51 8 6 5 16
M TOR 52 8 6 5 17
M  END
$$$$
