gdb 4325	2.5929571	1.2471739	1.1281504	1.311	77.2	-0.23094	-0.01527	0.21567	1194.6499	0.155427	-422.590561	-422.581147	-422.580202	-422.625629	33.858
 OpenBabel02181911413D

 19 19  0  0  1  0  0  0  0  0999 V2000
    0.5879    3.0738   -3.5400 C   0  0  0  0  0  0  0  0  0  0  0  0
   -0.2640    2.9379   -2.2918 C   0  0  0  0  0  0  0  0  0  0  0  0
   -1.4280    3.2669   -2.2718 O   0  0  0  0  0  0  0  0  0  0  0  0
    0.4316    2.3448   -1.0607 C   0  0  2  0  0  0  0  0  0  0  0  0
    0.4913    0.8314   -1.1826 C   0  0  0  0  0  0  0  0  0  0  0  0
   -0.3282    0.2331   -0.3209 C   0  0  0  0  0  0  0  0  0  0  0  0
   -1.0661    1.2227    0.5436 C   0  0  0  0  0  0  0  0  0  0  0  0
   -0.3504    2.5697    0.2539 C   0  0  1  0  0  0  0  0  0  0  0  0
    0.6255    2.8796    1.2447 O   0  0  0  0  0  0  0  0  0  0  0  0
    1.3642    3.8297   -3.3715 H   0  0  0  0  0  0  0  0  0  0  0  0
    1.1045    2.1356   -3.7679 H   0  0  0  0  0  0  0  0  0  0  0  0
   -0.0325    3.3733   -4.3854 H   0  0  0  0  0  0  0  0  0  0  0  0
    1.4324    2.7849   -0.9720 H   0  0  0  0  0  0  0  0  0  0  0  0
    1.1166    0.3297   -1.9121 H   0  0  0  0  0  0  0  0  0  0  0  0
   -0.4683   -0.8393   -0.2400 H   0  0  0  0  0  0  0  0  0  0  0  0
   -2.1297    1.2672    0.2769 H   0  0  0  0  0  0  0  0  0  0  0  0
   -1.0133    0.9787    1.6120 H   0  0  0  0  0  0  0  0  0  0  0  0
   -1.0684    3.3890    0.1431 H   0  0  0  0  0  0  0  0  0  0  0  0
    0.1614    3.0479    2.0708 H   0  0  0  0  0  0  0  0  0  0  0  0
  1 10  1  0  0  0  0
  1  2  1  0  0  0  0
  2  3  2  0  0  0  0
  2  4  1  0  0  0  0
  4 13  1  1  0  0  0
  4  8  1  0  0  0  0
  5  4  1  0  0  0  0
  5  6  2  0  0  0  0
  6 15  1  0  0  0  0
  6  7  1  0  0  0  0
  7 17  1  0  0  0  0
  8 18  1  6  0  0  0
  8  7  1  0  0  0  0
  8  9  1  0  0  0  0
  9 19  1  0  0  0  0
 11  1  1  0  0  0  0
 12  1  1  0  0  0  0
 14  5  1  0  0  0  0
 16  7  1  0  0  0  0
M TOR 0 0 1 3 4
M TOR 1 0 1 3 7
M TOR 2 0 1 3 12
M TOR 3 1 3 4 5
M TOR 4 1 3 4 13
M TOR 5 1 3 7 6
M TOR 6 1 3 7 8
M TOR 7 1 3 7 17
M TOR 8 2 1 0 9
M TOR 9 2 1 0 10
M TOR 10 2 1 0 11
M TOR 11 2 1 3 4
M TOR 12 2 1 3 7
M TOR 13 2 1 3 12
M TOR 14 3 1 0 9
M TOR 15 3 1 0 10
M TOR 16 3 1 0 11
M TOR 17 3 4 5 6
M TOR 18 3 4 5 14
M TOR 19 3 7 6 5
M TOR 20 3 7 6 15
M TOR 21 3 7 6 16
M TOR 22 3 7 8 18
M TOR 23 4 3 7 6
M TOR 24 4 3 7 8
M TOR 25 4 3 7 17
M TOR 26 4 5 6 7
M TOR 27 4 5 6 15
M TOR 28 4 5 6 16
M TOR 29 5 4 3 7
M TOR 30 5 4 3 12
M TOR 31 5 6 7 8
M TOR 32 5 6 7 17
M TOR 33 6 5 4 13
M TOR 34 6 7 3 12
M TOR 35 6 7 8 18
M TOR 36 7 3 4 13
M TOR 37 7 6 5 14
M TOR 38 8 7 3 12
M TOR 39 8 7 6 15
M TOR 40 8 7 6 16
M  END
$$$$
