
     RDKit          3D

 19 21  0  0  0  0  0  0  0  0999 V2000
   -3.4222    2.5312    0.0346 C   0  0  0  0  0  0  0  0  0  0  0  0
   -1.9451    2.5626   -0.1740 C   0  0  0  0  0  0  0  0  0  0  0  0
   -1.1487    3.5633   -0.9511 C   0  0  0  0  0  0  0  0  0  0  0  0
   -1.0087    2.0806   -1.2608 C   0  0  0  0  0  0  0  0  0  0  0  0
   -0.2396    1.4193   -0.1316 C   0  0  0  0  0  0  0  0  0  0  0  0
    1.2817    1.5008    0.0759 C   0  0  0  0  0  0  0  0  0  0  0  0
    1.4106    0.0712   -0.0834 O   0  0  0  0  0  0  0  0  0  0  0  0
   -0.0212   -0.1042   -0.0963 C   0  0  0  0  0  0  0  0  0  0  0  0
   -1.1137    1.9966    0.8606 O   0  0  0  0  0  0  0  0  0  0  0  0
   -3.7018    3.1609    0.8868 H   0  0  0  0  0  0  0  0  0  0  0  0
   -3.9416    2.9105   -0.8500 H   0  0  0  0  0  0  0  0  0  0  0  0
   -3.7694    1.5132    0.2364 H   0  0  0  0  0  0  0  0  0  0  0  0
   -1.6986    4.1267   -1.6990 H   0  0  0  0  0  0  0  0  0  0  0  0
   -0.3407    4.1059   -0.4675 H   0  0  0  0  0  0  0  0  0  0  0  0
   -1.2037    1.6500   -2.2341 H   0  0  0  0  0  0  0  0  0  0  0  0
    1.8557    2.0589   -0.6729 H   0  0  0  0  0  0  0  0  0  0  0  0
    1.5621    1.8346    1.0832 H   0  0  0  0  0  0  0  0  0  0  0  0
   -0.3621   -0.6771   -0.9672 H   0  0  0  0  0  0  0  0  0  0  0  0
   -0.3984   -0.5678    0.8242 H   0  0  0  0  0  0  0  0  0  0  0  0
  1  2  1  0
  2  3  1  0
  3  4  1  0
  4  5  1  0
  5  6  1  0
  6  7  1  0
  7  8  1  0
  5  9  1  0
  4  2  1  0
  8  5  1  0
  9  2  1  0
  1 10  1  0
  1 11  1  0
  1 12  1  0
  3 13  1  0
  3 14  1  0
  4 15  1  0
  6 16  1  0
  6 17  1  0
  8 18  1  0
  8 19  1  0
M  END
$$$$
