gdb 2080	2.3058687	1.8951446	1.2278525	4.4994	75.36	-0.25577	0.01568	0.27144999999999997	1052.0295	0.158258	-422.59425	-422.586109	-422.585165	-422.62662	31.409
 OpenBabel02181911403D

 19 20  0  0  1  0  0  0  0  0999 V2000
   -0.8036    2.1639   -1.2011 C   0  0  0  0  0  0  0  0  0  0  0  0
   -0.9361    1.2012   -0.0387 C   0  0  1  0  0  0  0  0  0  0  0  0
   -1.0772    1.7852    1.3641 C   0  0  0  0  0  0  0  0  0  0  0  0
   -2.2459    1.0962    0.7230 C   0  0  2  0  0  0  0  0  0  0  0  0
   -2.6602   -0.2870    1.1716 C   0  0  0  0  0  0  0  0  0  0  0  0
   -1.4456   -1.1189    1.5650 C   0  0  0  0  0  0  0  0  0  0  0  0
   -0.4231   -1.1389    0.5607 O   0  0  0  0  0  0  0  0  0  0  0  0
   -0.1366   -0.0568   -0.2115 C   0  0  0  0  0  0  0  0  0  0  0  0
    0.7335   -0.1602   -1.0366 O   0  0  0  0  0  0  0  0  0  0  0  0
   -1.1292    1.6990   -2.1364 H   0  0  0  0  0  0  0  0  0  0  0  0
   -1.4138    3.0557   -1.0288 H   0  0  0  0  0  0  0  0  0  0  0  0
    0.2365    2.4715   -1.3332 H   0  0  0  0  0  0  0  0  0  0  0  0
   -0.5587    1.3129    2.1898 H   0  0  0  0  0  0  0  0  0  0  0  0
   -1.0899    2.8679    1.4191 H   0  0  0  0  0  0  0  0  0  0  0  0
   -3.0484    1.7317    0.3602 H   0  0  0  0  0  0  0  0  0  0  0  0
   -3.3411   -0.2407    2.0301 H   0  0  0  0  0  0  0  0  0  0  0  0
   -3.1983   -0.7883    0.3580 H   0  0  0  0  0  0  0  0  0  0  0  0
   -1.0123   -0.7594    2.5058 H   0  0  0  0  0  0  0  0  0  0  0  0
   -1.7206   -2.1661    1.7131 H   0  0  0  0  0  0  0  0  0  0  0  0
  1 11  1  0  0  0  0
  2  1  1  6  0  0  0
  2  4  1  0  0  0  0
  2  3  1  0  0  0  0
  3 14  1  0  0  0  0
  3 13  1  0  0  0  0
  4 15  1  6  0  0  0
  4  5  1  0  0  0  0
  4  3  1  0  0  0  0
  5  6  1  0  0  0  0
  5 16  1  0  0  0  0
  6 19  1  0  0  0  0
  6 18  1  0  0  0  0
  7  6  1  0  0  0  0
  8  2  1  0  0  0  0
  8  7  1  0  0  0  0
  9  8  2  0  0  0  0
 10  1  1  0  0  0  0
 12  1  1  0  0  0  0
 17  5  1  0  0  0  0
M TOR 0 0 1 2 3
M TOR 1 0 1 2 12
M TOR 2 0 1 2 13
M TOR 3 0 1 3 4
M TOR 4 0 1 3 14
M TOR 5 0 1 7 6
M TOR 6 0 1 7 8
M TOR 7 1 2 3 4
M TOR 8 1 2 3 14
M TOR 9 1 3 2 12
M TOR 10 1 3 2 13
M TOR 11 1 3 4 5
M TOR 12 1 3 4 15
M TOR 13 1 3 4 16
M TOR 14 1 7 6 5
M TOR 15 2 1 0 9
M TOR 16 2 1 0 10
M TOR 17 2 1 0 11
M TOR 18 2 1 7 6
M TOR 19 2 1 7 8
M TOR 20 2 3 1 7
M TOR 21 2 3 4 5
M TOR 22 2 3 4 15
M TOR 23 2 3 4 16
M TOR 24 3 1 0 9
M TOR 25 3 1 0 10
M TOR 26 3 1 0 11
M TOR 27 3 1 7 6
M TOR 28 3 1 7 8
M TOR 29 3 4 5 6
M TOR 30 3 4 5 17
M TOR 31 3 4 5 18
M TOR 32 4 3 1 7
M TOR 33 4 3 2 12
M TOR 34 4 3 2 13
M TOR 35 4 5 6 7
M TOR 36 5 4 3 14
M TOR 37 5 6 7 8
M TOR 38 6 5 4 15
M TOR 39 6 5 4 16
M TOR 40 7 1 0 9
M TOR 41 7 1 0 10
M TOR 42 7 1 0 11
M TOR 43 7 1 2 12
M TOR 44 7 1 2 13
M TOR 45 7 1 3 14
M TOR 46 7 6 5 17
M TOR 47 7 6 5 18
M  END
$$$$
