
     RDKit          3D

 19 20  0  0  0  0  0  0  0  0999 V2000
    1.9494    0.4730   -0.1520 O   0  0  0  0  0  0  0  0  0  0  0  0
    0.5648    0.7560    0.0435 C   0  0  0  0  0  0  0  0  0  0  0  0
   -0.2543    0.4547   -1.1743 C   0  0  0  0  0  0  0  0  0  0  0  0
   -1.3065   -0.3686   -1.2395 C   0  0  0  0  0  0  0  0  0  0  0  0
   -1.9170   -0.4331   -2.6100 C   0  0  0  0  0  0  0  0  0  0  0  0
   -3.0907    0.5434   -2.8669 C   0  0  0  0  0  0  0  0  0  0  0  0
   -2.1960    1.5289   -3.4213 O   0  0  0  0  0  0  0  0  0  0  0  0
   -1.0831    0.6026   -3.4155 C   0  0  0  0  0  0  0  0  0  0  0  0
    0.0744    1.0667   -2.5242 C   0  0  0  0  0  0  0  0  0  0  0  0
    2.0212   -0.4653   -0.3567 H   0  0  0  0  0  0  0  0  0  0  0  0
    0.1624    0.2186    0.9153 H   0  0  0  0  0  0  0  0  0  0  0  0
    0.5258    1.8279    0.2731 H   0  0  0  0  0  0  0  0  0  0  0  0
   -1.7083   -0.9182   -0.3935 H   0  0  0  0  0  0  0  0  0  0  0  0
   -2.0419   -1.4455   -3.0017 H   0  0  0  0  0  0  0  0  0  0  0  0
   -3.8187    0.1902   -3.6101 H   0  0  0  0  0  0  0  0  0  0  0  0
   -3.6252    0.9175   -1.9859 H   0  0  0  0  0  0  0  0  0  0  0  0
   -0.7843    0.3395   -4.4361 H   0  0  0  0  0  0  0  0  0  0  0  0
    1.0530    0.7320   -2.8884 H   0  0  0  0  0  0  0  0  0  0  0  0
    0.1070    2.1626   -2.4903 H   0  0  0  0  0  0  0  0  0  0  0  0
  1  2  1  0
  2  3  1  0
  3  4  2  0
  4  5  1  0
  5  6  1  0
  6  7  1  0
  7  8  1  0
  8  9  1  0
  9  3  1  0
  8  5  1  0
  1 10  1  0
  2 11  1  0
  2 12  1  0
  4 13  1  0
  5 14  1  0
  6 15  1  0
  6 16  1  0
  8 17  1  0
  9 18  1  0
  9 19  1  0
M  END
$$$$
