gdb 5396	2.4197434	1.3868279	1.0609104	4.0376	76.17	-0.24544	-0.01993	0.22551	1190.8813	0.15595	-422.549766	-422.540719	-422.539775	-422.583463	33.639
 OpenBabel02181911423D

 19 20  0  0  1  0  0  0  0  0999 V2000
   -3.4383    0.5381    0.7025 C   0  0  0  0  0  0  0  0  0  0  0  0
   -2.1740    0.2753   -0.0630 C   0  0  1  0  0  0  0  0  0  0  0  0
   -1.6916    1.1257   -1.1856 C   0  0  0  0  0  0  0  0  0  0  0  0
   -0.8052    1.0151    0.0569 C   0  0  2  0  0  0  0  0  0  0  0  0
   -0.1168   -0.3103    0.0071 C   0  0  0  0  0  0  0  0  0  0  0  0
    1.0247   -0.6842    0.0899 O   0  0  0  0  0  0  0  0  0  0  0  0
   -1.4465   -1.0903   -0.0903 C   0  0  2  0  0  0  0  0  0  0  0  0
   -1.5737   -2.1057   -1.2237 C   0  0  0  0  0  0  0  0  0  0  0  0
   -0.6134   -3.1341   -1.0618 O   0  0  0  0  0  0  0  0  0  0  0  0
   -3.3756    0.1421    1.7218 H   0  0  0  0  0  0  0  0  0  0  0  0
   -3.6458    1.6109    0.7670 H   0  0  0  0  0  0  0  0  0  0  0  0
   -4.2985    0.0651    0.2146 H   0  0  0  0  0  0  0  0  0  0  0  0
   -1.3632    0.7058   -2.1309 H   0  0  0  0  0  0  0  0  0  0  0  0
   -2.1717    2.0951   -1.2827 H   0  0  0  0  0  0  0  0  0  0  0  0
   -0.5169    1.8944    0.6197 H   0  0  0  0  0  0  0  0  0  0  0  0
   -1.5827   -1.6140    0.8650 H   0  0  0  0  0  0  0  0  0  0  0  0
   -2.5575   -2.5882   -1.2123 H   0  0  0  0  0  0  0  0  0  0  0  0
   -1.4689   -1.6084   -2.2012 H   0  0  0  0  0  0  0  0  0  0  0  0
    0.2358   -2.7096   -0.8828 H   0  0  0  0  0  0  0  0  0  0  0  0
  1 11  1  0  0  0  0
  1 10  1  0  0  0  0
  2  4  1  0  0  0  0
  2  1  1  1  0  0  0
  3  2  1  0  0  0  0
  3  4  1  0  0  0  0
  4 15  1  1  0  0  0
  5  4  1  0  0  0  0
  5  6  2  0  0  0  0
  7  2  1  0  0  0  0
  7  5  1  0  0  0  0
  7 16  1  1  0  0  0
  8 17  1  0  0  0  0
  8  9  1  0  0  0  0
  8  7  1  0  0  0  0
  9 19  1  0  0  0  0
 12  1  1  0  0  0  0
 13  3  1  0  0  0  0
 14  3  1  0  0  0  0
 18  8  1  0  0  0  0
M TOR 0 0 1 2 3
M TOR 1 0 1 2 12
M TOR 2 0 1 2 13
M TOR 3 0 1 3 4
M TOR 4 0 1 3 14
M TOR 5 0 1 6 4
M TOR 6 0 1 6 7
M TOR 7 0 1 6 15
M TOR 8 1 2 3 4
M TOR 9 1 2 3 14
M TOR 10 1 3 2 12
M TOR 11 1 3 2 13
M TOR 12 1 3 4 5
M TOR 13 1 3 4 6
M TOR 14 1 6 4 5
M TOR 15 1 6 7 8
M TOR 16 1 6 7 16
M TOR 17 1 6 7 17
M TOR 18 2 1 0 9
M TOR 19 2 1 0 10
M TOR 20 2 1 0 11
M TOR 21 2 1 6 4
M TOR 22 2 1 6 7
M TOR 23 2 1 6 15
M TOR 24 2 3 1 6
M TOR 25 2 3 4 5
M TOR 26 2 3 4 6
M TOR 27 3 1 0 9
M TOR 28 3 1 0 10
M TOR 29 3 1 0 11
M TOR 30 3 1 6 7
M TOR 31 3 1 6 15
M TOR 32 3 4 6 7
M TOR 33 3 4 6 15
M TOR 34 4 3 2 12
M TOR 35 4 3 2 13
M TOR 36 4 6 7 8
M TOR 37 4 6 7 16
M TOR 38 4 6 7 17
M TOR 39 5 4 3 14
M TOR 40 5 4 6 7
M TOR 41 5 4 6 15
M TOR 42 6 1 0 9
M TOR 43 6 1 0 10
M TOR 44 6 1 0 11
M TOR 45 6 1 2 12
M TOR 46 6 1 2 13
M TOR 47 6 1 3 14
M TOR 48 6 4 3 14
M TOR 49 6 7 8 18
M TOR 50 8 7 6 15
M  END
$$$$
