gdb 4701	7.1387968	0.5733963	0.5377942	1.796	79.14	-0.26949	0.01469	0.28418	2026.6027	0.153381	-422.561517	-422.550725	-422.549781	-422.599559	36.452
 OpenBabel02181911413D

 19 18  0  0  0  0  0  0  0  0999 V2000
    0.7439   -0.8481    0.2762 C   0  0  0  0  0  0  0  0  0  0  0  0
    0.5996    0.5831   -0.2350 C   0  0  0  0  0  0  0  0  0  0  0  0
    1.9279    1.3032   -0.3443 C   0  0  0  0  0  0  0  0  0  0  0  0
    3.0058    0.8404   -0.0701 O   0  0  0  0  0  0  0  0  0  0  0  0
    1.7531    2.5645   -0.7998 O   0  0  0  0  0  0  0  0  0  0  0  0
    2.9482    3.3472   -0.9449 C   0  0  0  0  0  0  0  0  0  0  0  0
    2.5131    4.7181   -1.4668 C   0  0  0  0  0  0  0  0  0  0  0  0
    3.6508    5.6084   -1.6552 C   0  0  0  0  0  0  0  0  0  0  0  0
    4.6067    6.3214   -1.8013 C   0  0  0  0  0  0  0  0  0  0  0  0
    1.2040   -0.8652    1.2673 H   0  0  0  0  0  0  0  0  0  0  0  0
   -0.2348   -1.3315    0.3400 H   0  0  0  0  0  0  0  0  0  0  0  0
    1.3794   -1.4388   -0.3884 H   0  0  0  0  0  0  0  0  0  0  0  0
    0.1235    0.6120   -1.2223 H   0  0  0  0  0  0  0  0  0  0  0  0
   -0.0495    1.1799    0.4168 H   0  0  0  0  0  0  0  0  0  0  0  0
    3.4563    3.4301    0.0199 H   0  0  0  0  0  0  0  0  0  0  0  0
    3.6322    2.8537   -1.6408 H   0  0  0  0  0  0  0  0  0  0  0  0
    1.9744    4.5860   -2.4128 H   0  0  0  0  0  0  0  0  0  0  0  0
    1.7993    5.1594   -0.7609 H   0  0  0  0  0  0  0  0  0  0  0  0
    5.4440    6.9607   -1.9345 H   0  0  0  0  0  0  0  0  0  0  0  0
  1 11  1  0  0  0  0
  1 10  1  0  0  0  0
  2  1  1  0  0  0  0
  2 14  1  0  0  0  0
  3  2  1  0  0  0  0
  3  4  2  0  0  0  0
  5  3  1  0  0  0  0
  6  5  1  0  0  0  0
  6 15  1  0  0  0  0
  7  6  1  0  0  0  0
  7 18  1  0  0  0  0
  8  7  1  0  0  0  0
  9  8  3  0  0  0  0
 12  1  1  0  0  0  0
 13  2  1  0  0  0  0
 16  6  1  0  0  0  0
 17  7  1  0  0  0  0
 19  9  1  0  0  0  0
M TOR 0 0 1 2 3
M TOR 1 0 1 2 4
M TOR 2 1 2 4 5
M TOR 3 2 1 0 9
M TOR 4 2 1 0 10
M TOR 5 2 1 0 11
M TOR 6 2 4 5 6
M TOR 7 2 4 5 14
M TOR 8 2 4 5 15
M TOR 9 3 2 1 12
M TOR 10 3 2 1 13
M TOR 11 3 2 4 5
M TOR 12 4 2 1 12
M TOR 13 4 2 1 13
M TOR 14 4 5 6 7
M TOR 15 4 5 6 16
M TOR 16 4 5 6 17
M TOR 17 5 6 7 8
M TOR 18 6 7 8 18
M TOR 19 7 6 5 14
M TOR 20 7 6 5 15
M TOR 21 8 7 6 16
M TOR 22 8 7 6 17
M  END
$$$$
