
     RDKit          3D

 19 21  0  0  0  0  0  0  0  0999 V2000
    0.1425    0.5415    0.0513 C   0  0  0  0  0  0  0  0  0  0  0  0
    0.9335   -0.7168    0.2947 C   0  0  0  0  0  0  0  0  0  0  0  0
    2.0127   -0.9964   -0.6173 O   0  0  0  0  0  0  0  0  0  0  0  0
    2.3333   -0.7047    0.7283 C   0  0  0  0  0  0  0  0  0  0  0  0
    3.1827    0.4878    1.2380 C   0  0  0  0  0  0  0  0  0  0  0  0
    3.8463   -0.5159    2.1951 C   0  0  0  0  0  0  0  0  0  0  0  0
    4.4603   -1.5138    1.3759 O   0  0  0  0  0  0  0  0  0  0  0  0
    3.0556   -1.6546    1.6756 C   0  0  0  0  0  0  0  0  0  0  0  0
    2.5849   -2.9399    2.2709 C   0  0  0  0  0  0  0  0  0  0  0  0
   -0.4583    0.7943    0.9321 H   0  0  0  0  0  0  0  0  0  0  0  0
    0.8041    1.3811   -0.1755 H   0  0  0  0  0  0  0  0  0  0  0  0
   -0.5413    0.4066   -0.7931 H   0  0  0  0  0  0  0  0  0  0  0  0
    0.3378   -1.5991    0.5392 H   0  0  0  0  0  0  0  0  0  0  0  0
    3.8622    0.9382    0.5119 H   0  0  0  0  0  0  0  0  0  0  0  0
    2.5869    1.2615    1.7300 H   0  0  0  0  0  0  0  0  0  0  0  0
    4.2558   -0.3489    3.1843 H   0  0  0  0  0  0  0  0  0  0  0  0
    1.6027   -2.8188    2.7388 H   0  0  0  0  0  0  0  0  0  0  0  0
    2.5001   -3.7123    1.4987 H   0  0  0  0  0  0  0  0  0  0  0  0
    3.2940   -3.2895    3.0255 H   0  0  0  0  0  0  0  0  0  0  0  0
  1  2  1  0
  2  3  1  0
  3  4  1  0
  4  5  1  0
  5  6  1  0
  6  7  1  0
  7  8  1  0
  8  9  1  0
  4  2  1  0
  8  4  1  0
  8  6  1  0
  1 10  1  0
  1 11  1  0
  1 12  1  0
  2 13  1  0
  5 14  1  0
  5 15  1  0
  6 16  1  0
  9 17  1  0
  9 18  1  0
  9 19  1  0
M  END
$$$$
