
     RDKit          3D

 19 21  0  0  0  0  0  0  0  0999 V2000
    2.7710   -1.5688   -1.3601 C   0  0  0  0  0  0  0  0  0  0  0  0
    1.6280   -1.7801   -2.1914 O   0  0  0  0  0  0  0  0  0  0  0  0
    1.6982   -0.5689   -1.4337 C   0  0  0  0  0  0  0  0  0  0  0  0
    0.6835   -0.3943   -0.3397 C   0  0  0  0  0  0  0  0  0  0  0  0
    0.9056    0.8685    0.5606 C   0  0  0  0  0  0  0  0  0  0  0  0
   -0.4958    1.3826    0.1728 C   0  0  0  0  0  0  0  0  0  0  0  0
   -1.5357    0.8890    1.0427 O   0  0  0  0  0  0  0  0  0  0  0  0
   -1.8661   -0.1789    0.1218 C   0  0  0  0  0  0  0  0  0  0  0  0
   -0.6927    0.1836   -0.7986 C   0  0  0  0  0  0  0  0  0  0  0  0
    2.8392   -2.2165   -0.4867 H   0  0  0  0  0  0  0  0  0  0  0  0
    3.7094   -1.4006   -1.8869 H   0  0  0  0  0  0  0  0  0  0  0  0
    1.8804    0.3193   -2.0442 H   0  0  0  0  0  0  0  0  0  0  0  0
    0.5899   -1.3364    0.2087 H   0  0  0  0  0  0  0  0  0  0  0  0
    1.0475    0.6923    1.6286 H   0  0  0  0  0  0  0  0  0  0  0  0
    1.7142    1.5095    0.1937 H   0  0  0  0  0  0  0  0  0  0  0  0
   -0.6265    2.4406   -0.0707 H   0  0  0  0  0  0  0  0  0  0  0  0
   -1.8364   -1.1678    0.5970 H   0  0  0  0  0  0  0  0  0  0  0  0
   -2.8582   -0.0259   -0.3225 H   0  0  0  0  0  0  0  0  0  0  0  0
   -0.8743    0.2611   -1.8699 H   0  0  0  0  0  0  0  0  0  0  0  0
  1  2  1  0
  2  3  1  0
  3  4  1  0
  4  5  1  0
  5  6  1  0
  6  7  1  0
  7  8  1  0
  8  9  1  0
  3  1  1  0
  9  4  1  0
  9  6  1  0
  1 10  1  0
  1 11  1  0
  3 12  1  0
  4 13  1  0
  5 14  1  0
  5 15  1  0
  6 16  1  0
  8 17  1  0
  8 18  1  0
  9 19  1  0
M  END
$$$$
