
     RDKit          3D

 19 20  0  0  0  0  0  0  0  0999 V2000
    0.3160    3.9534   -2.0352 O   0  0  0  0  0  0  0  0  0  0  0  0
    1.6425    3.5104   -2.0240 C   0  0  0  0  0  0  0  0  0  0  0  0
    2.5634    3.6808   -0.7786 C   0  0  0  0  0  0  0  0  0  0  0  0
    3.3987    2.5234   -1.3964 C   0  0  0  0  0  0  0  0  0  0  0  0
    2.0059    1.9990   -1.8451 C   0  0  0  0  0  0  0  0  0  0  0  0
    1.3199    1.6821   -0.4810 C   0  0  0  0  0  0  0  0  0  0  0  0
    1.7698    2.9432    0.3201 C   0  0  0  0  0  0  0  0  0  0  0  0
    1.7840    0.3594    0.0760 C   0  0  0  0  0  0  0  0  0  0  0  0
    2.5938    0.2202    0.9592 O   0  0  0  0  0  0  0  0  0  0  0  0
   -0.0763    3.7998   -1.1699 H   0  0  0  0  0  0  0  0  0  0  0  0
    2.1045    3.9108   -2.9295 H   0  0  0  0  0  0  0  0  0  0  0  0
    3.0067    4.6412   -0.5162 H   0  0  0  0  0  0  0  0  0  0  0  0
    4.0149    2.8434   -2.2390 H   0  0  0  0  0  0  0  0  0  0  0  0
    3.9794    1.9023   -0.7128 H   0  0  0  0  0  0  0  0  0  0  0  0
    1.8786    1.2729   -2.6483 H   0  0  0  0  0  0  0  0  0  0  0  0
    0.2336    1.6157   -0.6235 H   0  0  0  0  0  0  0  0  0  0  0  0
    0.9234    3.5225    0.7054 H   0  0  0  0  0  0  0  0  0  0  0  0
    2.3943    2.6621    1.1704 H   0  0  0  0  0  0  0  0  0  0  0  0
    1.3347   -0.5295   -0.4235 H   0  0  0  0  0  0  0  0  0  0  0  0
  1  2  1  0
  2  3  1  0
  3  4  1  0
  4  5  1  0
  5  6  1  0
  6  7  1  0
  6  8  1  0
  8  9  2  0
  5  2  1  0
  7  3  1  0
  1 10  1  0
  2 11  1  0
  3 12  1  0
  4 13  1  0
  4 14  1  0
  5 15  1  0
  6 16  1  0
  7 17  1  0
  7 18  1  0
  8 19  1  0
M  END
$$$$
