gdb 2281	2.6377894	1.8890927	1.506626	1.3158	75.34	-0.24151	0.01389	0.2554	958.3786	0.158581	-422.581721	-422.574228	-422.573283	-422.613096	30.114
 OpenBabel02181911413D

 19 20  0  0  1  0  0  0  0  0999 V2000
    0.0770   -0.2411   -0.3137 C   0  0  0  0  0  0  0  0  0  0  0  0
    1.5732   -0.1216   -0.0989 C   0  0  2  0  0  0  0  0  0  0  0  0
    2.3968    0.2320   -1.3582 C   0  0  0  0  0  0  0  0  0  0  0  0
    3.5268    0.9166   -0.8224 O   0  0  0  0  0  0  0  0  0  0  0  0
    3.2373    1.1944    0.5500 C   0  0  2  0  0  0  0  0  0  0  0  0
    3.9615    0.1831    1.4495 C   0  0  0  0  0  0  0  0  0  0  0  0
    3.2927   -1.1635    1.3301 C   0  0  0  0  0  0  0  0  0  0  0  0
    2.1882   -1.3196    0.6028 C   0  0  0  0  0  0  0  0  0  0  0  0
    1.8441    1.0567    0.6883 O   0  0  0  0  0  0  0  0  0  0  0  0
   -0.4335   -0.4138    0.6377 H   0  0  0  0  0  0  0  0  0  0  0  0
   -0.3179    0.6753   -0.7597 H   0  0  0  0  0  0  0  0  0  0  0  0
   -0.1463   -1.0809   -0.9793 H   0  0  0  0  0  0  0  0  0  0  0  0
    2.7344   -0.6467   -1.9158 H   0  0  0  0  0  0  0  0  0  0  0  0
    1.8277    0.8934   -2.0264 H   0  0  0  0  0  0  0  0  0  0  0  0
    3.5107    2.2302    0.7740 H   0  0  0  0  0  0  0  0  0  0  0  0
    5.0119    0.1261    1.1404 H   0  0  0  0  0  0  0  0  0  0  0  0
    3.9568    0.5301    2.4921 H   0  0  0  0  0  0  0  0  0  0  0  0
    3.7375   -2.0025    1.8585 H   0  0  0  0  0  0  0  0  0  0  0  0
    1.7074   -2.2862    0.4847 H   0  0  0  0  0  0  0  0  0  0  0  0
  1 10  1  0  0  0  0
  2  1  1  6  0  0  0
  2  8  1  0  0  0  0
  2  9  1  0  0  0  0
  3  4  1  0  0  0  0
  3  2  1  0  0  0  0
  4  5  1  0  0  0  0
  5  9  1  0  0  0  0
  5 15  1  1  0  0  0
  5  6  1  0  0  0  0
  6 17  1  0  0  0  0
  7  6  1  0  0  0  0
  7 18  1  0  0  0  0
  8  7  2  0  0  0  0
 11  1  1  0  0  0  0
 12  1  1  0  0  0  0
 13  3  1  0  0  0  0
 14  3  1  0  0  0  0
 16  6  1  0  0  0  0
 19  8  1  0  0  0  0
M TOR 0 0 1 2 3
M TOR 1 0 1 2 12
M TOR 2 0 1 2 13
M TOR 3 0 1 7 6
M TOR 4 0 1 7 18
M TOR 5 0 1 8 4
M TOR 6 1 2 3 4
M TOR 7 1 7 6 5
M TOR 8 1 7 6 17
M TOR 9 1 8 4 3
M TOR 10 1 8 4 5
M TOR 11 1 8 4 14
M TOR 12 2 1 0 9
M TOR 13 2 1 0 10
M TOR 14 2 1 0 11
M TOR 15 2 1 7 6
M TOR 16 2 1 7 18
M TOR 17 2 1 8 4
M TOR 18 2 3 4 5
M TOR 19 2 3 4 8
M TOR 20 2 3 4 14
M TOR 21 3 2 1 7
M TOR 22 3 2 1 8
M TOR 23 3 4 5 6
M TOR 24 3 4 5 15
M TOR 25 3 4 5 16
M TOR 26 4 3 2 12
M TOR 27 4 3 2 13
M TOR 28 4 5 6 7
M TOR 29 4 5 6 17
M TOR 30 4 8 1 7
M TOR 31 5 6 7 18
M TOR 32 6 5 4 8
M TOR 33 6 5 4 14
M TOR 34 6 7 1 8
M TOR 35 7 1 0 9
M TOR 36 7 1 0 10
M TOR 37 7 1 0 11
M TOR 38 7 1 2 12
M TOR 39 7 1 2 13
M TOR 40 7 6 5 15
M TOR 41 7 6 5 16
M TOR 42 8 1 0 9
M TOR 43 8 1 0 10
M TOR 44 8 1 0 11
M TOR 45 8 1 2 12
M TOR 46 8 1 2 13
M TOR 47 8 1 7 18
M TOR 48 8 4 5 15
M TOR 49 8 4 5 16
M  END
$$$$
