gdb 5053	2.2788328	1.6954182	1.3885843	2.2678	75.85	-0.22411	0.02222	0.24633	1027.5484	0.156899	-422.556602	-422.548061	-422.547117	-422.589295	33.315
 OpenBabel02181911413D

 19 20  0  0  1  0  0  0  0  0999 V2000
    1.0966    1.0370   -0.5362 O   0  0  0  0  0  0  0  0  0  0  0  0
   -0.0036    0.2608   -0.0415 C   0  0  0  0  0  0  0  0  0  0  0  0
   -0.9911    0.1325   -1.1659 C   0  0  1  0  0  0  0  0  0  0  0  0
   -2.4606    0.4149   -0.9067 C   0  0  0  0  0  0  0  0  0  0  0  0
   -1.6419    1.4113   -1.6839 C   0  0  1  0  0  0  0  0  0  0  0  0
   -1.3875    2.6499   -1.0995 O   0  0  0  0  0  0  0  0  0  0  0  0
   -1.6732    1.2663   -3.1713 C   0  0  0  0  0  0  0  0  0  0  0  0
   -1.1469    0.1031   -3.5593 C   0  0  0  0  0  0  0  0  0  0  0  0
   -0.6291   -0.7110   -2.3897 C   0  0  0  0  0  0  0  0  0  0  0  0
    1.7720    1.0746    0.1484 H   0  0  0  0  0  0  0  0  0  0  0  0
    0.3430   -0.7286    0.2940 H   0  0  0  0  0  0  0  0  0  0  0  0
   -0.4716    0.7629    0.8158 H   0  0  0  0  0  0  0  0  0  0  0  0
   -3.2109   -0.1663   -1.4328 H   0  0  0  0  0  0  0  0  0  0  0  0
   -2.7223    0.6982    0.1079 H   0  0  0  0  0  0  0  0  0  0  0  0
   -0.4275    2.7619   -1.1130 H   0  0  0  0  0  0  0  0  0  0  0  0
   -2.1002    2.0280   -3.8133 H   0  0  0  0  0  0  0  0  0  0  0  0
   -1.1062   -0.2592   -4.5805 H   0  0  0  0  0  0  0  0  0  0  0  0
   -1.0821   -1.7107   -2.3554 H   0  0  0  0  0  0  0  0  0  0  0  0
    0.4570   -0.8578   -2.4565 H   0  0  0  0  0  0  0  0  0  0  0  0
  1  2  1  0  0  0  0
  1 10  1  0  0  0  0
  2 11  1  0  0  0  0
  2 12  1  0  0  0  0
  3  4  1  0  0  0  0
  3  2  1  1  0  0  0
  4 14  1  0  0  0  0
  5  3  1  0  0  0  0
  5  6  1  1  0  0  0
  5  4  1  0  0  0  0
  7  5  1  0  0  0  0
  8  7  2  0  0  0  0
  8  9  1  0  0  0  0
  9 18  1  0  0  0  0
  9  3  1  0  0  0  0
 13  4  1  0  0  0  0
 15  6  1  0  0  0  0
 16  7  1  0  0  0  0
 17  8  1  0  0  0  0
 19  9  1  0  0  0  0
M TOR 0 0 1 2 3
M TOR 1 0 1 2 4
M TOR 2 0 1 2 8
M TOR 3 1 2 3 4
M TOR 4 1 2 3 12
M TOR 5 1 2 3 13
M TOR 6 1 2 4 5
M TOR 7 1 2 4 6
M TOR 8 1 2 8 7
M TOR 9 1 2 8 17
M TOR 10 1 2 8 18
M TOR 11 2 1 0 9
M TOR 12 2 3 4 5
M TOR 13 2 3 4 6
M TOR 14 2 4 3 12
M TOR 15 2 4 3 13
M TOR 16 2 4 5 14
M TOR 17 2 4 6 7
M TOR 18 2 4 6 15
M TOR 19 2 8 7 6
M TOR 20 2 8 7 16
M TOR 21 3 2 1 10
M TOR 22 3 2 1 11
M TOR 23 3 2 8 7
M TOR 24 3 2 8 17
M TOR 25 3 2 8 18
M TOR 26 3 4 2 8
M TOR 27 3 4 5 14
M TOR 28 3 4 6 7
M TOR 29 3 4 6 15
M TOR 30 4 2 1 10
M TOR 31 4 2 1 11
M TOR 32 4 2 8 7
M TOR 33 4 2 8 17
M TOR 34 4 2 8 18
M TOR 35 4 6 7 8
M TOR 36 4 6 7 16
M TOR 37 5 4 2 8
M TOR 38 5 4 3 12
M TOR 39 5 4 3 13
M TOR 40 5 4 6 7
M TOR 41 5 4 6 15
M TOR 42 6 4 2 8
M TOR 43 6 4 3 12
M TOR 44 6 4 3 13
M TOR 45 6 4 5 14
M TOR 46 6 7 8 17
M TOR 47 6 7 8 18
M TOR 48 8 2 1 10
M TOR 49 8 2 1 11
M TOR 50 8 2 3 12
M TOR 51 8 2 3 13
M TOR 52 8 7 6 15
M  END
$$$$
