gdb 5000	4.5431084	0.9503132	0.9249143	2.7364	77.41	-0.2471	-0.03911	0.20798999999999998	1333.8739	0.154185	-422.50808	-422.498838	-422.497894	-422.543039	33.307
 OpenBabel02181911413D

 19 20  0  0  1  0  0  0  0  0999 V2000
    3.0466    2.8819   -1.8788 C   0  0  0  0  0  0  0  0  0  0  0  0
    3.5019    2.5497   -3.3039 C   0  0  0  0  0  0  0  0  0  0  0  0
    3.3438    1.0982   -3.6450 C   0  0  2  0  0  0  0  0  0  0  0  0
    3.8015    0.3222   -4.9091 C   0  0  0  0  0  0  0  0  0  0  0  0
    3.3542   -0.6900   -3.8140 C   0  0  2  0  0  0  0  0  0  0  0  0
    2.0970    0.1717   -3.5486 C   0  0  0  0  0  0  0  0  0  0  0  0
    4.0976    0.1018   -2.8151 O   0  0  0  0  0  0  0  0  0  0  0  0
    3.5261   -2.1742   -3.8012 C   0  0  0  0  0  0  0  0  0  0  0  0
    2.7980   -2.9327   -4.3886 O   0  0  0  0  0  0  0  0  0  0  0  0
    3.5939    2.2782   -1.1500 H   0  0  0  0  0  0  0  0  0  0  0  0
    3.2207    3.9373   -1.6519 H   0  0  0  0  0  0  0  0  0  0  0  0
    1.9785    2.6818   -1.7469 H   0  0  0  0  0  0  0  0  0  0  0  0
    2.9332    3.1350   -4.0373 H   0  0  0  0  0  0  0  0  0  0  0  0
    4.5570    2.8174   -3.4373 H   0  0  0  0  0  0  0  0  0  0  0  0
    3.1937    0.3929   -5.8136 H   0  0  0  0  0  0  0  0  0  0  0  0
    4.8748    0.3413   -5.1022 H   0  0  0  0  0  0  0  0  0  0  0  0
    1.3451    0.2331   -4.3376 H   0  0  0  0  0  0  0  0  0  0  0  0
    1.6702    0.0586   -2.5518 H   0  0  0  0  0  0  0  0  0  0  0  0
    4.4009   -2.5224   -3.2086 H   0  0  0  0  0  0  0  0  0  0  0  0
  1 12  1  0  0  0  0
  1 11  1  0  0  0  0
  1 10  1  0  0  0  0
  2  1  1  0  0  0  0
  3  6  1  0  0  0  0
  3  2  1  1  0  0  0
  3  7  1  0  0  0  0
  4  5  1  0  0  0  0
  4  3  1  0  0  0  0
  5  8  1  6  0  0  0
  5  6  1  0  0  0  0
  5  7  1  0  0  0  0
  6 18  1  0  0  0  0
  8 19  1  0  0  0  0
  9  8  2  0  0  0  0
 13  2  1  0  0  0  0
 14  2  1  0  0  0  0
 15  4  1  0  0  0  0
 16  4  1  0  0  0  0
 17  6  1  0  0  0  0
M TOR 0 0 1 2 3
M TOR 1 0 1 2 5
M TOR 2 0 1 2 6
M TOR 3 1 2 3 4
M TOR 4 1 2 3 14
M TOR 5 1 2 3 15
M TOR 6 1 2 5 4
M TOR 7 1 2 5 16
M TOR 8 1 2 5 17
M TOR 9 1 2 6 4
M TOR 10 2 1 0 9
M TOR 11 2 1 0 10
M TOR 12 2 1 0 11
M TOR 13 2 3 4 5
M TOR 14 2 3 4 6
M TOR 15 2 3 4 7
M TOR 16 2 5 4 6
M TOR 17 2 5 4 7
M TOR 18 2 6 4 7
M TOR 19 3 2 1 12
M TOR 20 3 2 1 13
M TOR 21 3 2 5 16
M TOR 22 3 2 5 17
M TOR 23 3 4 5 16
M TOR 24 3 4 5 17
M TOR 25 3 4 7 8
M TOR 26 3 4 7 18
M TOR 27 5 2 1 12
M TOR 28 5 2 1 13
M TOR 29 5 2 3 14
M TOR 30 5 2 3 15
M TOR 31 5 4 3 14
M TOR 32 5 4 3 15
M TOR 33 5 4 7 8
M TOR 34 5 4 7 18
M TOR 35 6 2 1 12
M TOR 36 6 2 1 13
M TOR 37 6 2 3 14
M TOR 38 6 2 3 15
M TOR 39 6 2 5 16
M TOR 40 6 2 5 17
M TOR 41 6 4 3 14
M TOR 42 6 4 3 15
M TOR 43 6 4 5 16
M TOR 44 6 4 5 17
M TOR 45 6 4 7 8
M TOR 46 6 4 7 18
M TOR 47 7 4 3 14
M TOR 48 7 4 3 15
M TOR 49 7 4 5 16
M TOR 50 7 4 5 17
M  END
$$$$
