gdb 6006	5.2071985	0.9262854	0.8868083	2.202	75.12	-0.23036	0.0814	0.31176000000000004	1355.8025	0.156419	-422.468056	-422.459866	-422.458922	-422.501431	30.457
 OpenBabel02181911423D

 19 21  0  0  1  0  0  0  0  0999 V2000
    1.4090   -0.0732   -0.0084 C   0  0  0  0  0  0  0  0  0  0  0  0
    0.0040   -0.0185    0.0354 O   0  0  0  0  0  0  0  0  0  0  0  0
   -0.4839    0.7266    1.1322 C   0  0  0  0  0  0  0  0  0  0  0  0
   -1.9981    0.7408    1.0690 C   0  0  1  0  0  0  0  0  0  0  0  0
   -2.6388   -0.6227    1.3363 C   0  0  2  0  0  0  0  0  0  0  0  0
   -3.9654   -0.2889    2.0378 C   0  0  2  0  0  0  0  0  0  0  0  0
   -4.0972    1.1329    2.0859 O   0  0  0  0  0  0  0  0  0  0  0  0
   -2.6787    1.1624    2.4048 C   0  0  1  0  0  0  0  0  0  0  0  0
   -2.7137   -0.3525    2.8403 C   0  0  2  0  0  0  0  0  0  0  0  0
    1.8289   -0.5505    0.8918 H   0  0  0  0  0  0  0  0  0  0  0  0
    1.6872   -0.6654   -0.8836 H   0  0  0  0  0  0  0  0  0  0  0  0
    1.8557    0.9297   -0.1018 H   0  0  0  0  0  0  0  0  0  0  0  0
   -0.1416    0.2787    2.0819 H   0  0  0  0  0  0  0  0  0  0  0  0
   -0.0922    1.7585    1.0971 H   0  0  0  0  0  0  0  0  0  0  0  0
   -2.3413    1.2924    0.1874 H   0  0  0  0  0  0  0  0  0  0  0  0
   -2.4555   -1.5604    0.8295 H   0  0  0  0  0  0  0  0  0  0  0  0
   -4.8567   -0.9013    2.0140 H   0  0  0  0  0  0  0  0  0  0  0  0
   -2.3774    2.0362    2.9801 H   0  0  0  0  0  0  0  0  0  0  0  0
   -2.4090   -0.9060    3.7169 H   0  0  0  0  0  0  0  0  0  0  0  0
  1  2  1  0  0  0  0
  1 10  1  0  0  0  0
  2  3  1  0  0  0  0
  3 13  1  0  0  0  0
  4 15  1  6  0  0  0
  4  3  1  0  0  0  0
  4  5  1  0  0  0  0
  4  8  1  0  0  0  0
  5 16  1  6  0  0  0
  5  6  1  0  0  0  0
  5  9  1  0  0  0  0
  6 17  1  1  0  0  0
  6  7  1  0  0  0  0
  6  9  1  0  0  0  0
  7  8  1  0  0  0  0
  8  9  1  0  0  0  0
  8 18  1  1  0  0  0
  9 19  1  1  0  0  0
 11  1  1  0  0  0  0
 12  1  1  0  0  0  0
 14  3  1  0  0  0  0
M TOR 0 0 1 2 3
M TOR 1 0 1 2 12
M TOR 2 0 1 2 13
M TOR 3 1 2 3 4
M TOR 4 1 2 3 7
M TOR 5 1 2 3 14
M TOR 6 2 1 0 9
M TOR 7 2 1 0 10
M TOR 8 2 1 0 11
M TOR 9 2 3 4 5
M TOR 10 2 3 4 8
M TOR 11 2 3 4 15
M TOR 12 2 3 7 6
M TOR 13 2 3 7 8
M TOR 14 2 3 7 17
M TOR 15 3 4 5 6
M TOR 16 3 4 5 8
M TOR 17 3 4 5 16
M TOR 18 3 4 8 7
M TOR 19 3 4 8 18
M TOR 20 3 7 6 5
M TOR 21 3 7 8 5
M TOR 22 3 7 8 18
M TOR 23 4 3 2 12
M TOR 24 4 3 2 13
M TOR 25 4 3 7 6
M TOR 26 4 3 7 17
M TOR 27 4 5 6 7
M TOR 28 4 5 8 7
M TOR 29 4 5 8 18
M TOR 30 4 8 5 6
M TOR 31 4 8 5 16
M TOR 32 4 8 7 6
M TOR 33 4 8 7 17
M TOR 34 5 4 3 7
M TOR 35 5 4 3 14
M TOR 36 5 6 7 8
M TOR 37 5 6 7 17
M TOR 38 5 8 4 15
M TOR 39 5 8 7 17
M TOR 40 6 5 4 15
M TOR 41 6 5 8 18
M TOR 42 6 7 3 14
M TOR 43 6 7 8 18
M TOR 44 7 3 2 12
M TOR 45 7 3 2 13
M TOR 46 7 3 4 15
M TOR 47 7 6 5 16
M TOR 48 7 8 4 15
M TOR 49 7 8 5 16
M TOR 50 8 4 3 14
M TOR 51 8 7 3 14
M  END
$$$$
