gdb 1978	2.2728461	2.0959087	1.5049179	2.4784	73.78	-0.24675	0.06849	0.31523999999999996	952.6547	0.156987	-422.527567	-422.519749	-422.518804	-422.559124	31.745
 OpenBabel02181911403D

 19 21  0  0  1  0  0  0  0  0999 V2000
   -0.0292    0.1833   -0.0462 C   0  0  0  0  0  0  0  0  0  0  0  0
    1.4598    0.0624    0.0572 C   0  0  1  0  0  0  0  0  0  0  0  0
    2.2181   -0.0104   -1.1680 O   0  0  0  0  0  0  0  0  0  0  0  0
    2.4925    1.0536   -0.2399 C   0  0  2  0  0  0  0  0  0  0  0  0
    3.5483    0.7346    0.8441 C   0  0  1  0  0  0  0  0  0  0  0  0
    2.6048    0.5837    2.0860 C   0  0  0  0  0  0  0  0  0  0  0  0
    2.1217   -0.6685    1.2580 C   0  0  1  0  0  0  0  0  0  0  0  0
    1.3412   -1.6981    1.7719 O   0  0  0  0  0  0  0  0  0  0  0  0
    3.6006   -0.8198    0.8102 C   0  0  0  0  0  0  0  0  0  0  0  0
   -0.4547    0.5477    0.8940 H   0  0  0  0  0  0  0  0  0  0  0  0
   -0.3019    0.8706   -0.8508 H   0  0  0  0  0  0  0  0  0  0  0  0
   -0.4781   -0.7933   -0.2527 H   0  0  0  0  0  0  0  0  0  0  0  0
    2.3110    2.0627   -0.5964 H   0  0  0  0  0  0  0  0  0  0  0  0
    4.4542    1.3361    0.8803 H   0  0  0  0  0  0  0  0  0  0  0  0
    3.1364    0.3164    3.0047 H   0  0  0  0  0  0  0  0  0  0  0  0
    1.8810    1.3804    2.2821 H   0  0  0  0  0  0  0  0  0  0  0  0
    1.8046   -2.0919    2.5178 H   0  0  0  0  0  0  0  0  0  0  0  0
    4.2276   -1.2124    1.6149 H   0  0  0  0  0  0  0  0  0  0  0  0
    3.8073   -1.3135   -0.1367 H   0  0  0  0  0  0  0  0  0  0  0  0
  1 10  1  0  0  0  0
  2  1  1  1  0  0  0
  2  7  1  0  0  0  0
  3  4  1  0  0  0  0
  3  2  1  0  0  0  0
  4 13  1  6  0  0  0
  4  2  1  0  0  0  0
  4  5  1  0  0  0  0
  5 14  1  1  0  0  0
  5  6  1  0  0  0  0
  6 16  1  0  0  0  0
  6 15  1  0  0  0  0
  7  8  1  1  0  0  0
  7  6  1  0  0  0  0
  8 17  1  0  0  0  0
  9  5  1  0  0  0  0
  9  7  1  0  0  0  0
  9 18  1  0  0  0  0
 11  1  1  0  0  0  0
 12  1  1  0  0  0  0
 19  9  1  0  0  0  0
M TOR 0 0 1 2 3
M TOR 1 0 1 3 4
M TOR 2 0 1 3 12
M TOR 3 0 1 6 5
M TOR 4 0 1 6 7
M TOR 5 0 1 6 8
M TOR 6 1 2 3 4
M TOR 7 1 2 3 12
M TOR 8 1 3 4 5
M TOR 9 1 3 4 8
M TOR 10 1 3 4 13
M TOR 11 1 6 5 4
M TOR 12 1 6 5 14
M TOR 13 1 6 5 15
M TOR 14 1 6 7 16
M TOR 15 1 6 8 4
M TOR 16 1 6 8 17
M TOR 17 1 6 8 18
M TOR 18 2 1 0 9
M TOR 19 2 1 0 10
M TOR 20 2 1 0 11
M TOR 21 2 1 6 5
M TOR 22 2 1 6 7
M TOR 23 2 1 6 8
M TOR 24 2 3 1 6
M TOR 25 2 3 4 5
M TOR 26 2 3 4 8
M TOR 27 2 3 4 13
M TOR 28 3 1 0 9
M TOR 29 3 1 0 10
M TOR 30 3 1 0 11
M TOR 31 3 1 6 5
M TOR 32 3 1 6 7
M TOR 33 3 1 6 8
M TOR 34 3 4 5 6
M TOR 35 3 4 5 14
M TOR 36 3 4 5 15
M TOR 37 3 4 8 6
M TOR 38 3 4 8 17
M TOR 39 3 4 8 18
M TOR 40 4 3 1 6
M TOR 41 4 5 6 7
M TOR 42 4 5 6 8
M TOR 43 4 8 6 7
M TOR 44 5 4 3 12
M TOR 45 5 4 8 17
M TOR 46 5 4 8 18
M TOR 47 5 6 7 16
M TOR 48 5 6 8 17
M TOR 49 5 6 8 18
M TOR 50 6 1 0 9
M TOR 51 6 1 0 10
M TOR 52 6 1 0 11
M TOR 53 6 1 3 12
M TOR 54 6 5 4 13
M TOR 55 6 8 4 13
M TOR 56 7 6 5 14
M TOR 57 7 6 5 15
M TOR 58 7 6 8 17
M TOR 59 7 6 8 18
M TOR 60 8 4 3 12
M TOR 61 8 4 5 14
M TOR 62 8 4 5 15
M TOR 63 8 6 5 14
M TOR 64 8 6 5 15
M TOR 65 8 6 7 16
M  END
$$$$
