
     RDKit          3D

 19 21  0  0  0  0  0  0  0  0999 V2000
    1.8049   -1.2673   -0.7833 C   0  0  0  0  0  0  0  0  0  0  0  0
    1.3360   -0.0762    0.0395 C   0  0  0  0  0  0  0  0  0  0  0  0
    1.2672   -0.2401    1.5764 C   0  0  0  0  0  0  0  0  0  0  0  0
    2.2139    0.8385    1.7745 O   0  0  0  0  0  0  0  0  0  0  0  0
    2.3590    1.0198    0.3693 C   0  0  0  0  0  0  0  0  0  0  0  0
    3.7481    1.2011   -0.3006 C   0  0  0  0  0  0  0  0  0  0  0  0
    3.8364    2.6176    0.3142 C   0  0  0  0  0  0  0  0  0  0  0  0
    2.4199    2.4268   -0.2752 C   0  0  0  0  0  0  0  0  0  0  0  0
    3.0215    1.7701   -1.4617 O   0  0  0  0  0  0  0  0  0  0  0  0
    2.7150   -1.7067   -0.3603 H   0  0  0  0  0  0  0  0  0  0  0  0
    1.0391   -2.0496   -0.8125 H   0  0  0  0  0  0  0  0  0  0  0  0
    2.0215   -0.9599   -1.8099 H   0  0  0  0  0  0  0  0  0  0  0  0
    0.4156    0.3375   -0.3815 H   0  0  0  0  0  0  0  0  0  0  0  0
    0.3041   -0.0239    2.0512 H   0  0  0  0  0  0  0  0  0  0  0  0
    1.6556   -1.1912    1.9606 H   0  0  0  0  0  0  0  0  0  0  0  0
    4.5379    0.4783   -0.5055 H   0  0  0  0  0  0  0  0  0  0  0  0
    3.9295    2.6968    1.3988 H   0  0  0  0  0  0  0  0  0  0  0  0
    4.4715    3.3151   -0.2334 H   0  0  0  0  0  0  0  0  0  0  0  0
    1.6276    3.1555   -0.4499 H   0  0  0  0  0  0  0  0  0  0  0  0
  1  2  1  0
  2  3  1  0
  3  4  1  0
  4  5  1  0
  5  6  1  0
  6  7  1  0
  7  8  1  0
  8  9  1  0
  5  2  1  0
  8  5  1  0
  9  6  1  0
  1 10  1  0
  1 11  1  0
  1 12  1  0
  2 13  1  0
  3 14  1  0
  3 15  1  0
  6 16  1  0
  7 17  1  0
  7 18  1  0
  8 19  1  0
M  END
$$$$
