gdb 5439	2.0570867	1.4784787	0.9634825	4.1576	77.83	-0.23756	-0.01326	0.2243	1270.414	0.155136	-422.531871	-422.522628	-422.521684	-422.566168	33.313
 OpenBabel02181911423D

 19 20  0  0  1  0  0  0  0  0999 V2000
    1.5056   -0.0355   -0.1627 C   0  0  0  0  0  0  0  0  0  0  0  0
    0.1113   -0.1728    0.0237 O   0  0  0  0  0  0  0  0  0  0  0  0
   -0.3720    0.5155    1.1383 C   0  0  2  0  0  0  0  0  0  0  0  0
   -0.1718   -0.0885    2.5432 C   0  0  2  0  0  0  0  0  0  0  0  0
   -0.8135   -1.4282    2.6068 C   0  0  1  0  0  0  0  0  0  0  0  0
   -0.6410   -2.2768    3.8482 C   0  0  0  0  0  0  0  0  0  0  0  0
   -1.7134   -0.1955    2.7339 C   0  0  2  0  0  0  0  0  0  0  0  0
   -1.9117    0.4102    1.3832 C   0  0  0  0  0  0  0  0  0  0  0  0
   -2.8576    0.8233    0.7762 O   0  0  0  0  0  0  0  0  0  0  0  0
    2.0757   -0.4529    0.6803 H   0  0  0  0  0  0  0  0  0  0  0  0
    1.7653   -0.5838   -1.0709 H   0  0  0  0  0  0  0  0  0  0  0  0
    1.7914    1.0201   -0.2873 H   0  0  0  0  0  0  0  0  0  0  0  0
   -0.0851    1.5798    1.1088 H   0  0  0  0  0  0  0  0  0  0  0  0
    0.5335    0.2624    3.2859 H   0  0  0  0  0  0  0  0  0  0  0  0
   -0.8695   -1.9914    1.6790 H   0  0  0  0  0  0  0  0  0  0  0  0
   -1.4778   -2.9719    3.9691 H   0  0  0  0  0  0  0  0  0  0  0  0
    0.2791   -2.8673    3.7857 H   0  0  0  0  0  0  0  0  0  0  0  0
   -0.5834   -1.6599    4.7508 H   0  0  0  0  0  0  0  0  0  0  0  0
   -2.3185   -0.0390    3.6183 H   0  0  0  0  0  0  0  0  0  0  0  0
  1  2  1  0  0  0  0
  1 10  1  0  0  0  0
  2  3  1  0  0  0  0
  3 13  1  6  0  0  0
  3  8  1  0  0  0  0
  3  4  1  0  0  0  0
  4  5  1  0  0  0  0
  4  7  1  0  0  0  0
  4 14  1  1  0  0  0
  5 15  1  6  0  0  0
  5  7  1  0  0  0  0
  5  6  1  0  0  0  0
  6 16  1  0  0  0  0
  6 18  1  0  0  0  0
  7 19  1  1  0  0  0
  8  7  1  0  0  0  0
  9  8  2  0  0  0  0
 11  1  1  0  0  0  0
 12  1  1  0  0  0  0
 17  6  1  0  0  0  0
M TOR 0 0 1 2 3
M TOR 1 0 1 2 7
M TOR 2 0 1 2 12
M TOR 3 1 2 3 4
M TOR 4 1 2 3 6
M TOR 5 1 2 3 13
M TOR 6 1 2 7 6
M TOR 7 1 2 7 8
M TOR 8 2 1 0 9
M TOR 9 2 1 0 10
M TOR 10 2 1 0 11
M TOR 11 2 3 4 5
M TOR 12 2 3 4 6
M TOR 13 2 3 4 14
M TOR 14 2 3 6 7
M TOR 15 2 3 6 18
M TOR 16 2 7 6 4
M TOR 17 2 7 6 18
M TOR 18 3 2 7 8
M TOR 19 3 4 5 15
M TOR 20 3 4 5 16
M TOR 21 3 4 5 17
M TOR 22 3 4 6 7
M TOR 23 3 4 6 18
M TOR 24 3 6 4 5
M TOR 25 3 6 4 14
M TOR 26 3 6 7 8
M TOR 27 4 3 2 7
M TOR 28 4 3 2 12
M TOR 29 4 6 3 13
M TOR 30 4 6 7 8
M TOR 31 5 4 3 13
M TOR 32 5 4 6 7
M TOR 33 5 4 6 18
M TOR 34 6 3 2 12
M TOR 35 6 4 5 15
M TOR 36 6 4 5 16
M TOR 37 6 4 5 17
M TOR 38 6 7 2 12
M TOR 39 7 2 3 13
M TOR 40 7 6 3 13
M TOR 41 7 6 4 14
M TOR 42 8 7 2 12
M TOR 43 8 7 6 18
M  END
$$$$
