gdb 5747	3.8245631	1.3311649	1.195314	1.8913	73.97	-0.21736	0.0702	0.28756	1098.7109	0.15749	-422.510115	-422.502485	-422.501541	-422.542259	29.801
 OpenBabel02181911423D

 19 21  0  0  1  0  0  0  0  0999 V2000
    1.1615   -0.2525    1.0114 C   0  0  0  0  0  0  0  0  0  0  0  0
    0.9840    0.1473   -0.4558 C   0  0  0  0  0  0  0  0  0  0  0  0
    1.5741   -0.8690   -1.4239 C   0  0  2  0  0  0  0  0  0  0  0  0
    2.9888   -1.0238   -1.1721 O   0  0  0  0  0  0  0  0  0  0  0  0
    3.6321   -1.1372   -2.4151 C   0  0  2  0  0  0  0  0  0  0  0  0
    3.4425   -0.0041   -3.4122 C   0  0  2  0  0  0  0  0  0  0  0  0
    2.3065    0.7718   -3.0332 O   0  0  0  0  0  0  0  0  0  0  0  0
    1.5346   -0.4668   -2.8966 C   0  0  1  0  0  0  0  0  0  0  0  0
    2.6650   -1.2912   -3.5537 C   0  0  2  0  0  0  0  0  0  0  0  0
    0.6688   -1.2075    1.2268 H   0  0  0  0  0  0  0  0  0  0  0  0
    2.2216   -0.3598    1.2547 H   0  0  0  0  0  0  0  0  0  0  0  0
    0.7314    0.5021    1.6768 H   0  0  0  0  0  0  0  0  0  0  0  0
   -0.0836    0.2560   -0.6884 H   0  0  0  0  0  0  0  0  0  0  0  0
    1.4589    1.1128   -0.6531 H   0  0  0  0  0  0  0  0  0  0  0  0
    1.0791   -1.8481   -1.2975 H   0  0  0  0  0  0  0  0  0  0  0  0
    4.5696   -1.6794   -2.3829 H   0  0  0  0  0  0  0  0  0  0  0  0
    4.2109    0.4678   -4.0140 H   0  0  0  0  0  0  0  0  0  0  0  0
    0.5510   -0.3981   -3.3626 H   0  0  0  0  0  0  0  0  0  0  0  0
    2.6038   -2.0640   -4.3071 H   0  0  0  0  0  0  0  0  0  0  0  0
  1 10  1  0  0  0  0
  1 11  1  0  0  0  0
  1 12  1  0  0  0  0
  2  1  1  0  0  0  0
  3 15  1  1  0  0  0
  3  4  1  0  0  0  0
  3  2  1  0  0  0  0
  5 16  1  6  0  0  0
  5  4  1  0  0  0  0
  6 17  1  6  0  0  0
  6  7  1  0  0  0  0
  6  5  1  0  0  0  0
  7  8  1  0  0  0  0
  8 18  1  6  0  0  0
  8  3  1  0  0  0  0
  9 19  1  6  0  0  0
  9  6  1  0  0  0  0
  9  8  1  0  0  0  0
  9  5  1  0  0  0  0
 13  2  1  0  0  0  0
 14  2  1  0  0  0  0
M TOR 0 0 1 2 3
M TOR 1 0 1 2 7
M TOR 2 0 1 2 14
M TOR 3 1 2 3 4
M TOR 4 1 2 7 6
M TOR 5 1 2 7 8
M TOR 6 1 2 7 17
M TOR 7 2 1 0 9
M TOR 8 2 1 0 10
M TOR 9 2 1 0 11
M TOR 10 2 3 4 5
M TOR 11 2 3 4 8
M TOR 12 2 3 4 15
M TOR 13 2 7 6 5
M TOR 14 2 7 8 4
M TOR 15 2 7 8 5
M TOR 16 2 7 8 18
M TOR 17 3 2 1 12
M TOR 18 3 2 1 13
M TOR 19 3 2 7 6
M TOR 20 3 2 7 8
M TOR 21 3 2 7 17
M TOR 22 3 4 5 6
M TOR 23 3 4 5 8
M TOR 24 3 4 5 16
M TOR 25 3 4 8 7
M TOR 26 3 4 8 18
M TOR 27 4 3 2 7
M TOR 28 4 3 2 14
M TOR 29 4 5 6 7
M TOR 30 4 5 8 7
M TOR 31 4 5 8 18
M TOR 32 4 8 5 6
M TOR 33 4 8 5 16
M TOR 34 4 8 7 6
M TOR 35 4 8 7 17
M TOR 36 5 6 7 8
M TOR 37 5 6 7 17
M TOR 38 5 8 4 15
M TOR 39 5 8 7 17
M TOR 40 6 5 4 15
M TOR 41 6 5 8 18
M TOR 42 6 7 2 14
M TOR 43 6 7 8 18
M TOR 44 7 2 1 12
M TOR 45 7 2 1 13
M TOR 46 7 6 5 16
M TOR 47 7 8 4 15
M TOR 48 7 8 5 16
M TOR 49 8 7 2 14
M  END
$$$$
