gdb 3439	2.4610313	1.6782439	1.1661668	3.168	76.67	-0.24147	0.01331	0.25478	1092.732	0.1579	-422.556414	-422.548233	-422.547288	-422.589027	31.297
 OpenBabel02181911413D

 19 20  0  0  1  0  0  0  0  0999 V2000
    1.3611    0.7103    0.2782 C   0  0  0  0  0  0  0  0  0  0  0  0
    0.0087    0.0716    0.2167 C   0  0  0  0  0  0  0  0  0  0  0  0
   -0.2758   -1.2330    0.1730 C   0  0  0  0  0  0  0  0  0  0  0  0
   -1.7595   -1.5382    0.1187 C   0  0  1  0  0  0  0  0  0  0  0  0
   -2.2136   -2.4135    1.1333 O   0  0  0  0  0  0  0  0  0  0  0  0
   -2.3941   -0.1300    0.2505 C   0  0  1  0  0  0  0  0  0  0  0  0
   -2.6888    0.1753    1.6406 O   0  0  0  0  0  0  0  0  0  0  0  0
   -1.7637    1.2896    1.6394 C   0  0  0  0  0  0  0  0  0  0  0  0
   -1.2515    0.9081    0.2296 C   0  0  1  0  0  0  0  0  0  0  0  0
    1.4590    1.3484    1.1660 H   0  0  0  0  0  0  0  0  0  0  0  0
    2.1594   -0.0356    0.3066 H   0  0  0  0  0  0  0  0  0  0  0  0
    1.5311    1.3597   -0.5901 H   0  0  0  0  0  0  0  0  0  0  0  0
    0.4608   -2.0297    0.1844 H   0  0  0  0  0  0  0  0  0  0  0  0
   -2.0354   -2.0124   -0.8319 H   0  0  0  0  0  0  0  0  0  0  0  0
   -2.3155   -1.8564    1.9188 H   0  0  0  0  0  0  0  0  0  0  0  0
   -3.2714    0.0310   -0.3822 H   0  0  0  0  0  0  0  0  0  0  0  0
   -2.2995    2.2451    1.6932 H   0  0  0  0  0  0  0  0  0  0  0  0
   -1.0419    1.2280    2.4618 H   0  0  0  0  0  0  0  0  0  0  0  0
   -1.2707    1.7036   -0.5190 H   0  0  0  0  0  0  0  0  0  0  0  0
  1 11  1  0  0  0  0
  1 10  1  0  0  0  0
  2  9  1  0  0  0  0
  2  1  1  0  0  0  0
  3 13  1  0  0  0  0
  3  2  2  0  0  0  0
  4 14  1  6  0  0  0
  4  3  1  0  0  0  0
  4  6  1  0  0  0  0
  4  5  1  0  0  0  0
  5 15  1  0  0  0  0
  6 16  1  6  0  0  0
  6  7  1  0  0  0  0
  8  7  1  0  0  0  0
  8 17  1  0  0  0  0
  8 18  1  0  0  0  0
  9 19  1  6  0  0  0
  9  6  1  0  0  0  0
  9  8  1  0  0  0  0
 12  1  1  0  0  0  0
M TOR 0 0 1 2 3
M TOR 1 0 1 2 12
M TOR 2 0 1 8 5
M TOR 3 0 1 8 7
M TOR 4 0 1 8 18
M TOR 5 1 2 3 4
M TOR 6 1 2 3 5
M TOR 7 1 2 3 13
M TOR 8 1 8 5 3
M TOR 9 1 8 5 6
M TOR 10 1 8 5 15
M TOR 11 1 8 7 6
M TOR 12 1 8 7 16
M TOR 13 1 8 7 17
M TOR 14 2 1 0 9
M TOR 15 2 1 0 10
M TOR 16 2 1 0 11
M TOR 17 2 1 8 5
M TOR 18 2 1 8 7
M TOR 19 2 1 8 18
M TOR 20 2 3 4 14
M TOR 21 2 3 5 6
M TOR 22 2 3 5 8
M TOR 23 2 3 5 15
M TOR 24 3 2 1 8
M TOR 25 3 5 6 7
M TOR 26 3 5 8 7
M TOR 27 3 5 8 18
M TOR 28 4 3 2 12
M TOR 29 4 3 5 6
M TOR 30 4 3 5 8
M TOR 31 4 3 5 15
M TOR 32 5 3 2 12
M TOR 33 5 3 4 14
M TOR 34 5 6 7 8
M TOR 35 5 6 7 16
M TOR 36 5 6 7 17
M TOR 37 5 8 7 16
M TOR 38 5 8 7 17
M TOR 39 6 5 3 13
M TOR 40 6 5 8 18
M TOR 41 6 7 8 18
M TOR 42 7 6 5 15
M TOR 43 7 8 5 15
M TOR 44 8 1 0 9
M TOR 45 8 1 0 10
M TOR 46 8 1 0 11
M TOR 47 8 1 2 12
M TOR 48 8 5 3 13
M  END
$$$$
