gdb 3965	3.1315243	1.2430653	1.1215495	1.419	78.06	-0.2409	0.005	0.2459	1148.1814	0.157428	-422.540491	-422.532258	-422.531314	-422.573168	32.294
 OpenBabel02181911413D

 19 20  0  0  1  0  0  0  0  0999 V2000
    0.1388    1.4280   -0.0186 O   0  0  0  0  0  0  0  0  0  0  0  0
    0.0670    0.0246   -0.0191 C   0  0  2  0  0  0  0  0  0  0  0  0
    0.1208   -0.6205   -1.4639 C   0  0  0  0  0  0  0  0  0  0  0  0
   -1.3874   -0.6351   -1.3716 C   0  0  2  0  0  3  0  0  0  0  0  0
   -2.5159   -0.1955   -1.9200 C   0  0  0  0  0  3  0  0  0  0  0  0
   -3.5430    0.0866   -0.8187 C   0  0  2  0  0  0  0  0  0  0  0  0
   -4.3570    1.2193   -1.0763 O   0  0  0  0  0  0  0  0  0  0  0  0
   -2.6610    0.2162    0.4703 C   0  0  0  0  0  0  0  0  0  0  0  0
   -1.3908   -0.5776    0.1319 C   0  0  2  0  0  0  0  0  0  0  0  0
   -0.4596    1.7552   -0.7015 H   0  0  0  0  0  0  0  0  0  0  0  0
    0.8165   -0.3182    0.6973 H   0  0  0  0  0  0  0  0  0  0  0  0
    0.5979   -0.0337   -2.2531 H   0  0  0  0  0  0  0  0  0  0  0  0
    0.5689   -1.6189   -1.4347 H   0  0  0  0  0  0  0  0  0  0  0  0
   -2.7277    0.0093   -2.9633 H   0  0  0  0  0  0  0  0  0  0  0  0
   -4.2638   -0.7346   -0.7161 H   0  0  0  0  0  0  0  0  0  0  0  0
   -3.7715    1.9739   -1.2075 H   0  0  0  0  0  0  0  0  0  0  0  0
   -2.4099    1.2766    0.6071 H   0  0  0  0  0  0  0  0  0  0  0  0
   -3.1798   -0.1159    1.3726 H   0  0  0  0  0  0  0  0  0  0  0  0
   -1.3419   -1.5556    0.6231 H   0  0  0  0  0  0  0  0  0  0  0  0
  2  1  1  0  0  0  0
  2  9  1  0  0  0  0
  2 11  1  1  0  0  0
  3 13  1  0  0  0  0
  3  4  1  0  0  0  0
  3  2  1  0  0  0  0
  4  5  1  6  0  0  0
  4  9  1  0  0  0  0
  5  6  1  0  0  0  0
  6 15  1  1  0  0  0
  6  8  1  0  0  0  0
  7  6  1  0  0  0  0
  8 17  1  0  0  0  0
  8 18  1  0  0  0  0
  9  8  1  0  0  0  0
  9 19  1  1  0  0  0
 10  1  1  0  0  0  0
 12  3  1  0  0  0  0
 14  5  1  0  0  0  0
 16  7  1  0  0  0  0
M TOR 0 0 1 2 3
M TOR 1 0 1 2 11
M TOR 2 0 1 2 12
M TOR 3 0 1 8 3
M TOR 4 0 1 8 7
M TOR 5 0 1 8 18
M TOR 6 1 2 3 4
M TOR 7 1 2 3 8
M TOR 8 1 8 3 4
M TOR 9 1 8 7 5
M TOR 10 1 8 7 16
M TOR 11 1 8 7 17
M TOR 12 2 1 0 9
M TOR 13 2 1 8 7
M TOR 14 2 1 8 18
M TOR 15 2 3 4 5
M TOR 16 2 3 4 13
M TOR 17 2 3 8 7
M TOR 18 2 3 8 18
M TOR 19 3 2 1 10
M TOR 20 3 4 5 6
M TOR 21 3 4 5 7
M TOR 22 3 4 5 14
M TOR 23 3 8 1 10
M TOR 24 3 8 7 5
M TOR 25 3 8 7 16
M TOR 26 3 8 7 17
M TOR 27 4 3 2 11
M TOR 28 4 3 2 12
M TOR 29 4 3 8 7
M TOR 30 4 3 8 18
M TOR 31 4 5 6 15
M TOR 32 4 5 7 8
M TOR 33 4 5 7 16
M TOR 34 4 5 7 17
M TOR 35 5 4 3 8
M TOR 36 5 7 8 18
M TOR 37 6 5 4 13
M TOR 38 6 5 7 8
M TOR 39 6 5 7 16
M TOR 40 6 5 7 17
M TOR 41 7 5 4 13
M TOR 42 7 5 6 15
M TOR 43 7 8 1 10
M TOR 44 8 1 0 9
M TOR 45 8 1 2 11
M TOR 46 8 1 2 12
M TOR 47 8 3 2 11
M TOR 48 8 3 2 12
M TOR 49 8 3 4 13
M TOR 50 8 7 5 14
M  END
$$$$
