
     RDKit          3D

 19 20  0  0  0  0  0  0  0  0999 V2000
    1.1270    1.3841    0.2114 C   0  0  0  0  0  0  0  0  0  0  0  0
    0.8484   -0.1078    0.0043 C   0  0  0  0  0  0  0  0  0  0  0  0
    1.7062   -0.7135   -1.1053 C   0  0  0  0  0  0  0  0  0  0  0  0
    1.2938   -0.2996   -2.5674 C   0  0  0  0  0  0  0  0  0  0  0  0
    1.0126   -1.7737   -2.8782 C   0  0  0  0  0  0  0  0  0  0  0  0
    2.1919   -2.5128   -2.6330 O   0  0  0  0  0  0  0  0  0  0  0  0
    1.3870   -2.1720   -1.4860 C   0  0  0  0  0  0  0  0  0  0  0  0
    0.8609   -3.3092   -0.7103 C   0  0  0  0  0  0  0  0  0  0  0  0
    0.5609   -3.2649    0.4588 O   0  0  0  0  0  0  0  0  0  0  0  0
    0.4991    1.7924    1.0088 H   0  0  0  0  0  0  0  0  0  0  0  0
    2.1727    1.5553    0.4895 H   0  0  0  0  0  0  0  0  0  0  0  0
    0.9278    1.9633   -0.6970 H   0  0  0  0  0  0  0  0  0  0  0  0
    1.0294   -0.6591    0.9316 H   0  0  0  0  0  0  0  0  0  0  0  0
   -0.2131   -0.2592   -0.2321 H   0  0  0  0  0  0  0  0  0  0  0  0
    2.7695   -0.5751   -0.8867 H   0  0  0  0  0  0  0  0  0  0  0  0
    0.3889    0.3132   -2.5777 H   0  0  0  0  0  0  0  0  0  0  0  0
    2.0571    0.1612   -3.1983 H   0  0  0  0  0  0  0  0  0  0  0  0
    0.2823   -2.2100   -3.5516 H   0  0  0  0  0  0  0  0  0  0  0  0
    0.7567   -4.2354   -1.3169 H   0  0  0  0  0  0  0  0  0  0  0  0
  1  2  1  0
  2  3  1  0
  3  4  1  0
  4  5  1  0
  5  6  1  0
  6  7  1  0
  7  8  1  0
  8  9  2  0
  7  3  1  0
  7  5  1  0
  1 10  1  0
  1 11  1  0
  1 12  1  0
  2 13  1  0
  2 14  1  0
  3 15  1  0
  4 16  1  0
  4 17  1  0
  5 18  1  0
  8 19  1  0
M  END
$$$$
