
     RDKit          3D

 19 20  0  0  0  0  0  0  0  0999 V2000
   -0.6103    0.4983   -0.2022 O   0  0  0  0  0  0  0  0  0  0  0  0
   -1.8659    0.3269    0.4198 C   0  0  0  0  0  0  0  0  0  0  0  0
   -2.9480    0.1923   -0.6880 C   0  0  0  0  0  0  0  0  0  0  0  0
   -3.1615    1.7272   -0.5944 C   0  0  0  0  0  0  0  0  0  0  0  0
   -2.5570    1.6758    0.8423 C   0  0  0  0  0  0  0  0  0  0  0  0
   -3.5998    1.4531    1.9009 C   0  0  0  0  0  0  0  0  0  0  0  0
   -4.6590    0.6538    1.7628 C   0  0  0  0  0  0  0  0  0  0  0  0
   -5.0553   -0.1213    0.5253 C   0  0  0  0  0  0  0  0  0  0  0  0
   -4.0280   -0.6353   -0.3090 O   0  0  0  0  0  0  0  0  0  0  0  0
    0.0232    0.7688    0.4700 H   0  0  0  0  0  0  0  0  0  0  0  0
   -1.8580   -0.4691    1.1746 H   0  0  0  0  0  0  0  0  0  0  0  0
   -2.5759   -0.2031   -1.6364 H   0  0  0  0  0  0  0  0  0  0  0  0
   -2.4911    2.2359   -1.2891 H   0  0  0  0  0  0  0  0  0  0  0  0
   -4.1710    2.1250   -0.7091 H   0  0  0  0  0  0  0  0  0  0  0  0
   -1.8734    2.4827    1.1178 H   0  0  0  0  0  0  0  0  0  0  0  0
   -3.4517    1.9575    2.8522 H   0  0  0  0  0  0  0  0  0  0  0  0
   -5.3582    0.5572    2.5905 H   0  0  0  0  0  0  0  0  0  0  0  0
   -5.6231   -1.0069    0.8292 H   0  0  0  0  0  0  0  0  0  0  0  0
   -5.7502    0.4954   -0.0704 H   0  0  0  0  0  0  0  0  0  0  0  0
  1  2  1  0
  2  3  1  0
  3  4  1  0
  4  5  1  0
  5  6  1  0
  6  7  2  0
  7  8  1  0
  8  9  1  0
  5  2  1  0
  9  3  1  0
  1 10  1  0
  2 11  1  0
  3 12  1  0
  4 13  1  0
  4 14  1  0
  5 15  1  0
  6 16  1  0
  7 17  1  0
  8 18  1  0
  8 19  1  0
M  END
$$$$
