gdb 2633	2.6150426	1.5107817	1.1687879	1.8059	76.99	-0.22037	0.01175	0.23212000000000002	1109.8761	0.155689	-422.558661	-422.549607	-422.548663	-422.59173	34.632
 OpenBabel02181911413D

 19 20  0  0  1  0  0  0  0  0999 V2000
    1.3055    0.8634    0.3116 C   0  0  0  0  0  0  0  0  0  0  0  0
   -0.0014    0.1409    0.2899 C   0  0  0  0  0  0  0  0  0  0  0  0
   -0.2329   -1.1705    0.4195 C   0  0  0  0  0  0  0  0  0  0  0  0
   -1.6787   -1.5091    0.2646 C   0  0  2  0  0  0  0  0  0  0  0  0
   -2.2622   -1.1919   -1.1117 C   0  0  0  0  0  0  0  0  0  0  0  0
   -2.3708   -0.1880   -0.0027 C   0  0  1  0  0  0  0  0  0  0  0  0
   -3.6687    0.0973    0.4156 O   0  0  0  0  0  0  0  0  0  0  0  0
   -1.3062    0.9092    0.0847 C   0  0  2  0  0  0  0  0  0  0  0  0
   -1.2816    1.8206   -1.0047 O   0  0  0  0  0  0  0  0  0  0  0  0
    1.3522    1.5699    1.1510 H   0  0  0  0  0  0  0  0  0  0  0  0
    2.1497    0.1742    0.3979 H   0  0  0  0  0  0  0  0  0  0  0  0
    1.4306    1.4618   -0.5980 H   0  0  0  0  0  0  0  0  0  0  0  0
    0.5334   -1.9235    0.5754 H   0  0  0  0  0  0  0  0  0  0  0  0
   -2.1474   -2.2880    0.8550 H   0  0  0  0  0  0  0  0  0  0  0  0
   -1.5716   -1.0415   -1.9364 H   0  0  0  0  0  0  0  0  0  0  0  0
   -3.1984   -1.6741   -1.3713 H   0  0  0  0  0  0  0  0  0  0  0  0
   -3.6384    0.3218    1.3524 H   0  0  0  0  0  0  0  0  0  0  0  0
   -1.5128    1.5465    0.9585 H   0  0  0  0  0  0  0  0  0  0  0  0
   -1.2999    1.2992   -1.8152 H   0  0  0  0  0  0  0  0  0  0  0  0
  1 11  1  0  0  0  0
  1 10  1  0  0  0  0
  2  1  1  0  0  0  0
  2  3  2  0  0  0  0
  3 13  1  0  0  0  0
  4  3  1  0  0  0  0
  4 14  1  1  0  0  0
  5  6  1  0  0  0  0
  5  4  1  0  0  0  0
  6  8  1  0  0  0  0
  6  4  1  0  0  0  0
  6  7  1  1  0  0  0
  7 17  1  0  0  0  0
  8  2  1  0  0  0  0
  8 18  1  1  0  0  0
  9  8  1  0  0  0  0
 12  1  1  0  0  0  0
 15  5  1  0  0  0  0
 16  5  1  0  0  0  0
 19  9  1  0  0  0  0
M TOR 0 0 1 2 3
M TOR 1 0 1 2 12
M TOR 2 0 1 7 5
M TOR 3 0 1 7 8
M TOR 4 0 1 7 17
M TOR 5 1 2 3 4
M TOR 6 1 2 3 5
M TOR 7 1 2 3 13
M TOR 8 1 7 5 3
M TOR 9 1 7 5 4
M TOR 10 1 7 5 6
M TOR 11 1 7 8 18
M TOR 12 2 1 0 9
M TOR 13 2 1 0 10
M TOR 14 2 1 0 11
M TOR 15 2 1 7 5
M TOR 16 2 1 7 8
M TOR 17 2 1 7 17
M TOR 18 2 3 4 5
M TOR 19 2 3 4 14
M TOR 20 2 3 4 15
M TOR 21 2 3 5 6
M TOR 22 2 3 5 7
M TOR 23 3 2 1 7
M TOR 24 3 4 5 6
M TOR 25 3 4 5 7
M TOR 26 3 5 4 14
M TOR 27 3 5 4 15
M TOR 28 3 5 6 16
M TOR 29 3 5 7 8
M TOR 30 3 5 7 17
M TOR 31 4 3 2 12
M TOR 32 4 5 3 13
M TOR 33 4 5 6 16
M TOR 34 4 5 7 8
M TOR 35 4 5 7 17
M TOR 36 5 3 2 12
M TOR 37 5 7 8 18
M TOR 38 6 5 3 13
M TOR 39 6 5 4 14
M TOR 40 6 5 4 15
M TOR 41 6 5 7 8
M TOR 42 6 5 7 17
M TOR 43 7 1 0 9
M TOR 44 7 1 0 10
M TOR 45 7 1 0 11
M TOR 46 7 1 2 12
M TOR 47 7 5 3 13
M TOR 48 7 5 4 14
M TOR 49 7 5 4 15
M TOR 50 7 5 6 16
M  END
$$$$
