
     RDKit          3D

 19 20  0  0  0  0  0  0  0  0999 V2000
   -0.2553    2.8666   -0.1917 O   0  0  0  0  0  0  0  0  0  0  0  0
   -1.1381    2.1306    0.6395 C   0  0  0  0  0  0  0  0  0  0  0  0
   -0.3757    0.9133    1.1741 C   0  0  0  0  0  0  0  0  0  0  0  0
    0.2801    0.1479    0.0417 C   0  0  0  0  0  0  0  0  0  0  0  0
    1.4435   -0.1584    0.0088 O   0  0  0  0  0  0  0  0  0  0  0  0
   -2.5655    1.9999    0.0222 C   0  0  0  0  0  0  0  0  0  0  0  0
   -3.1118    1.7840    1.4638 C   0  0  0  0  0  0  0  0  0  0  0  0
   -2.0864    2.9481    1.5860 C   0  0  0  0  0  0  0  0  0  0  0  0
   -2.7363    3.5290    0.2917 C   0  0  0  0  0  0  0  0  0  0  0  0
    0.5715    3.0025    0.2836 H   0  0  0  0  0  0  0  0  0  0  0  0
    0.4104    1.2281    1.8714 H   0  0  0  0  0  0  0  0  0  0  0  0
   -1.0311    0.2216    1.7130 H   0  0  0  0  0  0  0  0  0  0  0  0
   -0.4123   -0.1326   -0.7840 H   0  0  0  0  0  0  0  0  0  0  0  0
   -2.8407    1.4543   -0.8815 H   0  0  0  0  0  0  0  0  0  0  0  0
   -4.1559    2.0679    1.6088 H   0  0  0  0  0  0  0  0  0  0  0  0
   -2.8986    0.8418    1.9698 H   0  0  0  0  0  0  0  0  0  0  0  0
   -1.8048    3.4898    2.4911 H   0  0  0  0  0  0  0  0  0  0  0  0
   -3.7667    3.8754    0.3976 H   0  0  0  0  0  0  0  0  0  0  0  0
   -2.1318    4.2066   -0.3057 H   0  0  0  0  0  0  0  0  0  0  0  0
  1  2  1  0
  2  3  1  0
  3  4  1  0
  4  5  2  0
  2  6  1  0
  6  7  1  0
  7  8  1  0
  8  9  1  0
  8  2  1  0
  9  6  1  0
  1 10  1  0
  3 11  1  0
  3 12  1  0
  4 13  1  0
  6 14  1  0
  7 15  1  0
  7 16  1  0
  8 17  1  0
  9 18  1  0
  9 19  1  0
M  END
$$$$
