
     RDKit          3D

 19 20  0  0  0  0  0  0  0  0999 V2000
    1.5508    0.4133    0.4010 C   0  0  0  0  0  0  0  0  0  0  0  0
    0.1171    0.0223    0.2479 C   0  0  0  0  0  0  0  0  0  0  0  0
   -0.4304   -1.1902    0.3405 C   0  0  0  0  0  0  0  0  0  0  0  0
   -1.9131   -1.1146    0.1173 C   0  0  0  0  0  0  0  0  0  0  0  0
   -2.1727    0.2700   -0.1530 O   0  0  0  0  0  0  0  0  0  0  0  0
   -0.9616    1.0003   -0.0369 C   0  0  0  0  0  0  0  0  0  0  0  0
   -0.8586    2.2542   -0.8776 C   0  0  0  0  0  0  0  0  0  0  0  0
   -1.1396    2.3568    0.6098 C   0  0  0  0  0  0  0  0  0  0  0  0
   -2.4141    2.6814    1.0609 O   0  0  0  0  0  0  0  0  0  0  0  0
    1.6811    1.1414    1.2108 H   0  0  0  0  0  0  0  0  0  0  0  0
    2.1752   -0.4551    0.6231 H   0  0  0  0  0  0  0  0  0  0  0  0
    1.9337    0.8834   -0.5127 H   0  0  0  0  0  0  0  0  0  0  0  0
    0.0894   -2.1153    0.5554 H   0  0  0  0  0  0  0  0  0  0  0  0
   -2.2539   -1.7157   -0.7388 H   0  0  0  0  0  0  0  0  0  0  0  0
   -2.4943   -1.4370    0.9949 H   0  0  0  0  0  0  0  0  0  0  0  0
    0.1149    2.5564   -1.2511 H   0  0  0  0  0  0  0  0  0  0  0  0
   -1.6939    2.4448   -1.5431 H   0  0  0  0  0  0  0  0  0  0  0  0
   -0.3553    2.7457    1.2544 H   0  0  0  0  0  0  0  0  0  0  0  0
   -2.9559    1.8927    0.9120 H   0  0  0  0  0  0  0  0  0  0  0  0
  1  2  1  0
  2  3  2  0
  3  4  1  0
  4  5  1  0
  5  6  1  0
  6  7  1  0
  7  8  1  0
  8  9  1  0
  6  2  1  0
  8  6  1  0
  1 10  1  0
  1 11  1  0
  1 12  1  0
  3 13  1  0
  4 14  1  0
  4 15  1  0
  7 16  1  0
  7 17  1  0
  8 18  1  0
  9 19  1  0
M  END
$$$$
