
     RDKit          3D

 19 20  0  0  0  0  0  0  0  0999 V2000
    0.6002   -0.8686   -0.2996 O   0  0  0  0  0  0  0  0  0  0  0  0
    0.5740    0.3130   -0.0707 C   0  0  0  0  0  0  0  0  0  0  0  0
   -0.1308    0.9577    1.1016 C   0  0  0  0  0  0  0  0  0  0  0  0
   -1.1344    2.0299    0.6536 C   0  0  0  0  0  0  0  0  0  0  0  0
   -2.3371    1.4751   -0.1575 C   0  0  0  0  0  0  0  0  0  0  0  0
   -3.4463    2.4728    0.1023 C   0  0  0  0  0  0  0  0  0  0  0  0
   -3.0317    3.8412   -0.0301 O   0  0  0  0  0  0  0  0  0  0  0  0
   -3.1090    3.2735    1.2858 C   0  0  0  0  0  0  0  0  0  0  0  0
   -1.7700    2.8186    1.8294 C   0  0  0  0  0  0  0  0  0  0  0  0
    1.0897    1.0380   -0.7452 H   0  0  0  0  0  0  0  0  0  0  0  0
   -0.6138    0.1742    1.6944 H   0  0  0  0  0  0  0  0  0  0  0  0
    0.6418    1.4311    1.7255 H   0  0  0  0  0  0  0  0  0  0  0  0
   -0.6125    2.7525    0.0185 H   0  0  0  0  0  0  0  0  0  0  0  0
   -2.1056    1.3600   -1.2212 H   0  0  0  0  0  0  0  0  0  0  0  0
   -2.6468    0.4906    0.2168 H   0  0  0  0  0  0  0  0  0  0  0  0
   -4.4696    2.2650   -0.2000 H   0  0  0  0  0  0  0  0  0  0  0  0
   -3.8597    3.7103    1.9396 H   0  0  0  0  0  0  0  0  0  0  0  0
   -1.1358    3.6468    2.1609 H   0  0  0  0  0  0  0  0  0  0  0  0
   -1.9422    2.1673    2.6965 H   0  0  0  0  0  0  0  0  0  0  0  0
  1  2  2  0
  2  3  1  0
  3  4  1  0
  4  5  1  0
  5  6  1  0
  6  7  1  0
  7  8  1  0
  8  9  1  0
  9  4  1  0
  8  6  1  0
  2 10  1  0
  3 11  1  0
  3 12  1  0
  4 13  1  0
  5 14  1  0
  5 15  1  0
  6 16  1  0
  8 17  1  0
  9 18  1  0
  9 19  1  0
M  END
$$$$
