
     RDKit          3D

 19 19  0  0  0  0  0  0  0  0999 V2000
    3.6265   -4.6939    1.0556 C   0  0  0  0  0  0  0  0  0  0  0  0
    2.8358   -3.5794    0.7129 O   0  0  0  0  0  0  0  0  0  0  0  0
    3.5658   -2.6187   -0.0252 C   0  0  0  0  0  0  0  0  0  0  0  0
    2.7191   -1.4804   -0.3504 C   0  0  0  0  0  0  0  0  0  0  0  0
    2.0405   -0.5244   -0.6256 C   0  0  0  0  0  0  0  0  0  0  0  0
    1.2028    0.6128   -0.9591 C   0  0  0  0  0  0  0  0  0  0  0  0
   -0.3354    0.4325   -0.8195 C   0  0  0  0  0  0  0  0  0  0  0  0
   -0.2391    1.6035    0.1762 C   0  0  0  0  0  0  0  0  0  0  0  0
    1.1981    1.6597    0.0481 O   0  0  0  0  0  0  0  0  0  0  0  0
    2.9895   -5.3810    1.6169 H   0  0  0  0  0  0  0  0  0  0  0  0
    4.0122   -5.2134    0.1637 H   0  0  0  0  0  0  0  0  0  0  0  0
    4.4854   -4.4100    1.6845 H   0  0  0  0  0  0  0  0  0  0  0  0
    4.4416   -2.2725    0.5517 H   0  0  0  0  0  0  0  0  0  0  0  0
    3.9618   -3.0669   -0.9538 H   0  0  0  0  0  0  0  0  0  0  0  0
    1.5076    1.0233   -1.9315 H   0  0  0  0  0  0  0  0  0  0  0  0
   -0.9074    0.6150   -1.7296 H   0  0  0  0  0  0  0  0  0  0  0  0
   -0.6298   -0.5220   -0.3844 H   0  0  0  0  0  0  0  0  0  0  0  0
   -0.7130    2.5378   -0.1493 H   0  0  0  0  0  0  0  0  0  0  0  0
   -0.5479    1.3877    1.2053 H   0  0  0  0  0  0  0  0  0  0  0  0
  1  2  1  0
  2  3  1  0
  3  4  1  0
  4  5  3  0
  5  6  1  0
  6  7  1  0
  7  8  1  0
  8  9  1  0
  9  6  1  0
  1 10  1  0
  1 11  1  0
  1 12  1  0
  3 13  1  0
  3 14  1  0
  6 15  1  0
  7 16  1  0
  7 17  1  0
  8 18  1  0
  8 19  1  0
M  END
$$$$
