
     RDKit          3D

 19 21  0  0  0  0  0  0  0  0999 V2000
    2.1364   -0.9930    2.5599 C   0  0  0  0  0  0  0  0  0  0  0  0
    2.1870   -1.8711    1.2763 C   0  0  0  0  0  0  0  0  0  0  0  0
    2.7255   -1.1862    0.0005 C   0  0  0  0  0  0  0  0  0  0  0  0
    1.6237   -1.0228   -0.8911 O   0  0  0  0  0  0  0  0  0  0  0  0
    0.4046   -0.9859   -0.1816 C   0  0  0  0  0  0  0  0  0  0  0  0
   -0.0289    0.3138    0.1558 O   0  0  0  0  0  0  0  0  0  0  0  0
    0.4241    0.6774    1.4588 C   0  0  0  0  0  0  0  0  0  0  0  0
    0.6559   -0.6312    2.2466 C   0  0  0  0  0  0  0  0  0  0  0  0
    0.6456   -1.7255    1.1432 C   0  0  0  0  0  0  0  0  0  0  0  0
    2.2325   -1.5876    3.4713 H   0  0  0  0  0  0  0  0  0  0  0  0
    2.8449   -0.1597    2.6131 H   0  0  0  0  0  0  0  0  0  0  0  0
    2.5878   -2.8775    1.4023 H   0  0  0  0  0  0  0  0  0  0  0  0
    3.1793   -0.2117    0.2331 H   0  0  0  0  0  0  0  0  0  0  0  0
    3.4778   -1.7877   -0.5186 H   0  0  0  0  0  0  0  0  0  0  0  0
   -0.3530   -1.3972   -0.8524 H   0  0  0  0  0  0  0  0  0  0  0  0
    1.3475    1.2711    1.3928 H   0  0  0  0  0  0  0  0  0  0  0  0
   -0.3474    1.3112    1.9065 H   0  0  0  0  0  0  0  0  0  0  0  0
   -0.0477   -0.7435    3.0723 H   0  0  0  0  0  0  0  0  0  0  0  0
    0.0268   -2.6080    1.2944 H   0  0  0  0  0  0  0  0  0  0  0  0
  1  2  1  0
  2  3  1  0
  3  4  1  0
  4  5  1  0
  5  6  1  0
  6  7  1  0
  7  8  1  0
  8  9  1  0
  8  1  1  0
  9  2  1  0
  9  5  1  0
  1 10  1  0
  1 11  1  0
  2 12  1  0
  3 13  1  0
  3 14  1  0
  5 15  1  0
  7 16  1  0
  7 17  1  0
  8 18  1  0
  9 19  1  0
M  END
$$$$
