
     RDKit          3D

 19 20  0  0  0  0  0  0  0  0999 V2000
    1.6954    1.5847    0.0928 C   0  0  0  0  0  0  0  0  0  0  0  0
    1.6791    0.0567    0.0100 C   0  0  0  0  0  0  0  0  0  0  0  0
    2.4826   -0.5234   -1.1825 C   0  0  0  0  0  0  0  0  0  0  0  0
    2.9361   -1.9353   -0.7476 C   0  0  0  0  0  0  0  0  0  0  0  0
    3.0438   -1.8305    0.7594 C   0  0  0  0  0  0  0  0  0  0  0  0
    3.7194   -0.6444    1.2310 O   0  0  0  0  0  0  0  0  0  0  0  0
    2.2967   -0.6327    1.2173 C   0  0  0  0  0  0  0  0  0  0  0  0
    3.1896   -3.0178    1.6398 C   0  0  0  0  0  0  0  0  0  0  0  0
    3.0542   -4.1559    1.2644 O   0  0  0  0  0  0  0  0  0  0  0  0
    1.0990    1.9481    0.9362 H   0  0  0  0  0  0  0  0  0  0  0  0
    2.7196    1.9500    0.2189 H   0  0  0  0  0  0  0  0  0  0  0  0
    1.2865    2.0290   -0.8202 H   0  0  0  0  0  0  0  0  0  0  0  0
    0.6377   -0.2900   -0.0478 H   0  0  0  0  0  0  0  0  0  0  0  0
    1.8977   -0.5361   -2.1053 H   0  0  0  0  0  0  0  0  0  0  0  0
    3.3599    0.1044   -1.3600 H   0  0  0  0  0  0  0  0  0  0  0  0
    2.1897   -2.7017   -0.9819 H   0  0  0  0  0  0  0  0  0  0  0  0
    3.8756   -2.2446   -1.2139 H   0  0  0  0  0  0  0  0  0  0  0  0
    1.8233   -0.5753    2.1961 H   0  0  0  0  0  0  0  0  0  0  0  0
    3.4367   -2.7614    2.6935 H   0  0  0  0  0  0  0  0  0  0  0  0
  1  2  1  0
  2  3  1  0
  3  4  1  0
  4  5  1  0
  5  6  1  0
  6  7  1  0
  5  8  1  0
  8  9  2  0
  7  2  1  0
  7  5  1  0
  1 10  1  0
  1 11  1  0
  1 12  1  0
  2 13  1  0
  3 14  1  0
  3 15  1  0
  4 16  1  0
  4 17  1  0
  7 18  1  0
  8 19  1  0
M  END
$$$$
