gdb 3138	2.1924611	1.6558319	1.3703677	2.9375	75.36	-0.24619	-0.03927	0.20692	1049.1705	0.155376	-422.538622	-422.529801	-422.528856	-422.571843	33.407
 OpenBabel02181911413D

 19 20  0  0  1  0  0  0  0  0999 V2000
   -0.2639   -0.3022   -0.1680 C   0  0  0  0  0  0  0  0  0  0  0  0
    1.2238   -0.0163    0.0130 C   0  0  1  0  0  0  0  0  0  0  0  0
    1.7291   -0.6324    1.2978 C   0  0  0  0  0  0  0  0  0  0  0  0
    2.7364   -0.3111    1.8887 O   0  0  0  0  0  0  0  0  0  0  0  0
    2.2032   -0.4499   -1.1195 C   0  0  1  0  0  0  0  0  0  0  0  0
    1.9831    0.3399   -2.3797 C   0  0  0  0  0  0  0  0  0  0  0  0
    2.7456    0.9658   -1.2481 C   0  0  1  0  0  0  0  0  0  0  0  0
    1.7443    1.4803   -0.1953 C   0  0  2  0  0  0  0  0  0  0  0  0
    2.2524    2.1542    0.9109 O   0  0  0  0  0  0  0  0  0  0  0  0
   -0.8576    0.2084    0.5988 H   0  0  0  0  0  0  0  0  0  0  0  0
   -0.6176    0.0401   -1.1434 H   0  0  0  0  0  0  0  0  0  0  0  0
   -0.4760   -1.3755   -0.0972 H   0  0  0  0  0  0  0  0  0  0  0  0
    1.1120   -1.4763    1.6809 H   0  0  0  0  0  0  0  0  0  0  0  0
    2.7386   -1.3924   -1.1260 H   0  0  0  0  0  0  0  0  0  0  0  0
    2.5751    0.0110   -3.2279 H   0  0  0  0  0  0  0  0  0  0  0  0
    0.9975    0.7120   -2.6489 H   0  0  0  0  0  0  0  0  0  0  0  0
    3.7692    1.3077   -1.3358 H   0  0  0  0  0  0  0  0  0  0  0  0
    0.9660    2.1272   -0.6168 H   0  0  0  0  0  0  0  0  0  0  0  0
    2.8165    1.5294    1.3933 H   0  0  0  0  0  0  0  0  0  0  0  0
  1 12  1  0  0  0  0
  1  2  1  0  0  0  0
  1 10  1  0  0  0  0
  2  3  1  1  0  0  0
  3 13  1  0  0  0  0
  3  4  2  0  0  0  0
  5 14  1  1  0  0  0
  5  2  1  0  0  0  0
  6  7  1  0  0  0  0
  6  5  1  0  0  0  0
  7 17  1  6  0  0  0
  7  5  1  0  0  0  0
  7  8  1  0  0  0  0
  8 18  1  6  0  0  0
  8  2  1  0  0  0  0
  8  9  1  0  0  0  0
  9 19  1  0  0  0  0
 11  1  1  0  0  0  0
 15  6  1  0  0  0  0
 16  6  1  0  0  0  0
M TOR 0 0 1 2 3
M TOR 1 0 1 2 12
M TOR 2 0 1 4 5
M TOR 3 0 1 4 6
M TOR 4 0 1 4 13
M TOR 5 0 1 7 6
M TOR 6 0 1 7 8
M TOR 7 0 1 7 17
M TOR 8 1 4 5 6
M TOR 9 1 4 5 14
M TOR 10 1 4 5 15
M TOR 11 1 4 6 7
M TOR 12 1 4 6 16
M TOR 13 1 7 6 5
M TOR 14 1 7 6 16
M TOR 15 1 7 8 18
M TOR 16 2 1 0 9
M TOR 17 2 1 0 10
M TOR 18 2 1 0 11
M TOR 19 2 1 4 5
M TOR 20 2 1 4 6
M TOR 21 2 1 4 13
M TOR 22 2 1 7 6
M TOR 23 2 1 7 8
M TOR 24 2 1 7 17
M TOR 25 3 2 1 4
M TOR 26 3 2 1 7
M TOR 27 4 1 0 9
M TOR 28 4 1 0 10
M TOR 29 4 1 0 11
M TOR 30 4 1 2 12
M TOR 31 4 1 7 8
M TOR 32 4 1 7 17
M TOR 33 4 5 6 7
M TOR 34 4 5 6 16
M TOR 35 4 6 5 14
M TOR 36 4 6 5 15
M TOR 37 4 6 7 8
M TOR 38 4 6 7 17
M TOR 39 5 4 1 7
M TOR 40 5 6 4 13
M TOR 41 5 6 7 8
M TOR 42 5 6 7 17
M TOR 43 6 7 8 18
M TOR 44 7 1 0 9
M TOR 45 7 1 0 10
M TOR 46 7 1 0 11
M TOR 47 7 1 2 12
M TOR 48 7 1 4 13
M TOR 49 7 6 4 13
M TOR 50 7 6 5 14
M TOR 51 7 6 5 15
M TOR 52 8 7 6 16
M  END
$$$$
