gdb 945	3.2782177	1.1612037	0.9791453	1.3397	74.58	-0.2316	-0.02312	0.20848	1226.4552	0.156814	-422.551276	-422.542954	-422.54201	-422.584799	30.917
 OpenBabel02181911403D

 19 20  0  0  1  0  0  0  0  0999 V2000
    0.3758    0.1214    0.9714 O   0  0  0  0  0  0  0  0  0  0  0  0
    0.0667   -0.2364   -0.1373 C   0  0  0  0  0  0  0  0  0  0  0  0
   -0.6813    0.6041   -1.1454 C   0  0  0  0  0  0  0  0  0  0  0  0
   -1.0659    2.0095   -0.6678 C   0  0  1  0  0  0  0  0  0  0  0  0
   -1.7443    2.8365   -1.7896 C   0  0  0  0  0  0  0  0  0  0  0  0
   -3.1500    2.6158   -1.6763 O   0  0  0  0  0  0  0  0  0  0  0  0
   -3.4272    2.3249   -0.3288 C   0  0  2  0  0  0  0  0  0  0  0  0
   -2.8835    3.2434    0.7335 C   0  0  0  0  0  0  0  0  0  0  0  0
   -2.1624    1.9500    0.3910 C   0  0  2  0  0  0  0  0  0  0  0  0
    0.3374   -1.2541   -0.5029 H   0  0  0  0  0  0  0  0  0  0  0  0
   -0.0438    0.6526   -2.0415 H   0  0  0  0  0  0  0  0  0  0  0  0
   -1.5690    0.0373   -1.4629 H   0  0  0  0  0  0  0  0  0  0  0  0
   -0.1675    2.5174   -0.3045 H   0  0  0  0  0  0  0  0  0  0  0  0
   -1.5149    3.9042   -1.6719 H   0  0  0  0  0  0  0  0  0  0  0  0
   -1.4401    2.5385   -2.7974 H   0  0  0  0  0  0  0  0  0  0  0  0
   -4.3796    1.8226   -0.2109 H   0  0  0  0  0  0  0  0  0  0  0  0
   -2.4504    4.1950    0.4443 H   0  0  0  0  0  0  0  0  0  0  0  0
   -3.4094    3.2673    1.6818 H   0  0  0  0  0  0  0  0  0  0  0  0
   -2.1194    1.1625    1.1316 H   0  0  0  0  0  0  0  0  0  0  0  0
  2  1  2  0  0  0  0
  3  4  1  0  0  0  0
  3  2  1  0  0  0  0
  4 13  1  1  0  0  0
  4  9  1  0  0  0  0
  5  6  1  0  0  0  0
  5 14  1  0  0  0  0
  5  4  1  0  0  0  0
  6  7  1  0  0  0  0
  7 16  1  1  0  0  0
  7  9  1  0  0  0  0
  7  8  1  0  0  0  0
  8 18  1  0  0  0  0
  9  8  1  0  0  0  0
  9 19  1  1  0  0  0
 10  2  1  0  0  0  0
 11  3  1  0  0  0  0
 12  3  1  0  0  0  0
 15  5  1  0  0  0  0
 17  8  1  0  0  0  0
M TOR 0 0 1 2 3
M TOR 1 0 1 2 10
M TOR 2 0 1 2 11
M TOR 3 1 2 3 4
M TOR 4 1 2 3 8
M TOR 5 1 2 3 12
M TOR 6 2 3 4 5
M TOR 7 2 3 4 13
M TOR 8 2 3 4 14
M TOR 9 2 3 8 6
M TOR 10 2 3 8 7
M TOR 11 2 3 8 18
M TOR 12 3 2 1 9
M TOR 13 3 4 5 6
M TOR 14 3 8 6 5
M TOR 15 3 8 6 7
M TOR 16 3 8 6 15
M TOR 17 3 8 7 16
M TOR 18 3 8 7 17
M TOR 19 4 3 2 10
M TOR 20 4 3 2 11
M TOR 21 4 3 8 6
M TOR 22 4 3 8 7
M TOR 23 4 3 8 18
M TOR 24 4 5 6 7
M TOR 25 4 5 6 8
M TOR 26 4 5 6 15
M TOR 27 5 4 3 8
M TOR 28 5 4 3 12
M TOR 29 5 6 7 8
M TOR 30 5 6 7 16
M TOR 31 5 6 7 17
M TOR 32 5 6 8 18
M TOR 33 6 5 4 13
M TOR 34 6 5 4 14
M TOR 35 6 7 8 18
M TOR 36 6 8 3 12
M TOR 37 6 8 7 16
M TOR 38 6 8 7 17
M TOR 39 7 8 3 12
M TOR 40 7 8 6 15
M TOR 41 8 3 2 10
M TOR 42 8 3 2 11
M TOR 43 8 3 4 13
M TOR 44 8 3 4 14
M  END
$$$$
