
     RDKit          3D

 19 19  0  0  0  0  0  0  0  0999 V2000
    4.6974    3.5749    3.9069 C   0  0  0  0  0  0  0  0  0  0  0  0
    4.0801    2.2505    3.5005 C   0  0  0  0  0  0  0  0  0  0  0  0
    4.7057    1.2142    3.5226 O   0  0  0  0  0  0  0  0  0  0  0  0
    2.6410    2.2961    3.0200 C   0  0  0  0  0  0  0  0  0  0  0  0
    1.8868    0.9544    2.8754 C   0  0  0  0  0  0  0  0  0  0  0  0
    1.3366    1.4224    1.4923 C   0  0  0  0  0  0  0  0  0  0  0  0
    2.4556    2.5083    1.4780 C   0  0  0  0  0  0  0  0  0  0  0  0
    1.3576    0.4141    0.3779 C   0  0  0  0  0  0  0  0  0  0  0  0
    0.4171    0.1236   -0.3157 O   0  0  0  0  0  0  0  0  0  0  0  0
    4.2187    3.9365    4.8250 H   0  0  0  0  0  0  0  0  0  0  0  0
    5.7674    3.4555    4.0797 H   0  0  0  0  0  0  0  0  0  0  0  0
    4.5227    4.3372    3.1393 H   0  0  0  0  0  0  0  0  0  0  0  0
    2.0725    3.0458    3.5778 H   0  0  0  0  0  0  0  0  0  0  0  0
    2.6062    0.1364    2.7780 H   0  0  0  0  0  0  0  0  0  0  0  0
    1.1488    0.6980    3.6367 H   0  0  0  0  0  0  0  0  0  0  0  0
    0.3378    1.8581    1.5629 H   0  0  0  0  0  0  0  0  0  0  0  0
    3.3360    2.1667    0.9237 H   0  0  0  0  0  0  0  0  0  0  0  0
    2.1772    3.5037    1.1284 H   0  0  0  0  0  0  0  0  0  0  0  0
    2.3524   -0.0730    0.2326 H   0  0  0  0  0  0  0  0  0  0  0  0
  1  2  1  0
  2  3  2  0
  2  4  1  0
  4  5  1  0
  5  6  1  0
  6  7  1  0
  6  8  1  0
  8  9  2  0
  7  4  1  0
  1 10  1  0
  1 11  1  0
  1 12  1  0
  4 13  1  0
  5 14  1  0
  5 15  1  0
  6 16  1  0
  7 17  1  0
  7 18  1  0
  8 19  1  0
M  END
$$$$
