
     RDKit          3D

 19 21  0  0  0  0  0  0  0  0999 V2000
    0.1674   -0.5733   -0.2046 C   0  0  0  0  0  0  0  0  0  0  0  0
    1.0966    0.1927    0.6951 C   0  0  0  0  0  0  0  0  0  0  0  0
    0.7855    0.3490    2.2099 C   0  0  0  0  0  0  0  0  0  0  0  0
    2.3119    0.3894    2.4961 C   0  0  0  0  0  0  0  0  0  0  0  0
    2.8066   -0.2984    3.6050 O   0  0  0  0  0  0  0  0  0  0  0  0
    2.9528    1.7495    2.1037 C   0  0  0  0  0  0  0  0  0  0  0  0
    2.8335    1.3353    0.6167 C   0  0  0  0  0  0  0  0  0  0  0  0
    1.4820    1.4760    0.1294 O   0  0  0  0  0  0  0  0  0  0  0  0
    2.5831   -0.1372    1.0390 C   0  0  0  0  0  0  0  0  0  0  0  0
   -0.0555   -1.5592    0.2149 H   0  0  0  0  0  0  0  0  0  0  0  0
   -0.7770   -0.0296   -0.3224 H   0  0  0  0  0  0  0  0  0  0  0  0
    0.6103   -0.7038   -1.1963 H   0  0  0  0  0  0  0  0  0  0  0  0
    0.1662    1.2012    2.5047 H   0  0  0  0  0  0  0  0  0  0  0  0
    0.3693   -0.5800    2.6136 H   0  0  0  0  0  0  0  0  0  0  0  0
    2.5221    0.1652    4.4009 H   0  0  0  0  0  0  0  0  0  0  0  0
    2.4650    2.6799    2.4088 H   0  0  0  0  0  0  0  0  0  0  0  0
    4.0034    1.7514    2.4126 H   0  0  0  0  0  0  0  0  0  0  0  0
    3.5702    1.6960   -0.1025 H   0  0  0  0  0  0  0  0  0  0  0  0
    3.1493   -1.0220    0.7622 H   0  0  0  0  0  0  0  0  0  0  0  0
  1  2  1  0
  2  3  1  0
  3  4  1  0
  4  5  1  0
  4  6  1  0
  6  7  1  0
  7  8  1  0
  7  9  1  0
  8  2  1  0
  9  2  1  0
  9  4  1  0
  1 10  1  0
  1 11  1  0
  1 12  1  0
  3 13  1  0
  3 14  1  0
  5 15  1  0
  6 16  1  0
  6 17  1  0
  7 18  1  0
  9 19  1  0
M  END
$$$$
