
     RDKit          3D

 19 19  0  0  0  0  0  0  0  0999 V2000
    2.3568   -0.0553   -2.9249 C   0  0  0  0  0  0  0  0  0  0  0  0
    1.8951    0.1716   -1.4746 C   0  0  0  0  0  0  0  0  0  0  0  0
    2.1953    1.5529   -0.9530 C   0  0  0  0  0  0  0  0  0  0  0  0
    1.2543    2.4221   -0.5950 C   0  0  0  0  0  0  0  0  0  0  0  0
    1.5697    3.7886   -0.0779 C   0  0  0  0  0  0  0  0  0  0  0  0
    2.9075    3.9642    0.4065 O   0  0  0  0  0  0  0  0  0  0  0  0
    3.9268    3.1448    0.0685 C   0  0  0  0  0  0  0  0  0  0  0  0
    5.0255    3.3706    0.4975 O   0  0  0  0  0  0  0  0  0  0  0  0
    3.6408    1.9666   -0.8514 C   0  0  0  0  0  0  0  0  0  0  0  0
    2.1052   -1.0679   -3.2536 H   0  0  0  0  0  0  0  0  0  0  0  0
    1.8723    0.6525   -3.6050 H   0  0  0  0  0  0  0  0  0  0  0  0
    3.4395    0.0654   -3.0294 H   0  0  0  0  0  0  0  0  0  0  0  0
    0.8182   -0.0141   -1.4005 H   0  0  0  0  0  0  0  0  0  0  0  0
    2.3865   -0.5695   -0.8283 H   0  0  0  0  0  0  0  0  0  0  0  0
    0.1989    2.1751   -0.6719 H   0  0  0  0  0  0  0  0  0  0  0  0
    1.3904    4.5539   -0.8480 H   0  0  0  0  0  0  0  0  0  0  0  0
    0.9215    4.0400    0.7693 H   0  0  0  0  0  0  0  0  0  0  0  0
    4.0369    2.2370   -1.8408 H   0  0  0  0  0  0  0  0  0  0  0  0
    4.2755    1.1445   -0.5042 H   0  0  0  0  0  0  0  0  0  0  0  0
  1  2  1  0
  2  3  1  0
  3  4  2  0
  4  5  1  0
  5  6  1  0
  6  7  1  0
  7  8  2  0
  7  9  1  0
  9  3  1  0
  1 10  1  0
  1 11  1  0
  1 12  1  0
  2 13  1  0
  2 14  1  0
  4 15  1  0
  5 16  1  0
  5 17  1  0
  9 18  1  0
  9 19  1  0
M  END
$$$$
