gdb 1809	2.8073733	1.4492976	1.3504632	1.7508	74.97	-0.24327	0.06287	0.30613999999999997	1041.8997	0.156999	-422.489824	-422.481833	-422.480888	-422.522239	30.976
 OpenBabel02181911403D

 19 21  0  0  1  0  0  0  0  0999 V2000
   -1.5590    2.0923   -2.2590 O   0  0  0  0  0  0  0  0  0  0  0  0
   -1.4902    2.0459   -0.8815 C   0  0  1  0  0  0  0  0  0  0  0  0
   -1.3362    3.3038    0.0036 C   0  0  0  0  0  0  0  0  0  0  0  0
   -1.3618    2.0895    0.9823 C   0  0  1  0  0  0  0  0  0  0  0  0
   -2.5452    1.5200    0.1454 C   0  0  0  0  0  0  0  0  0  0  0  0
   -0.4010    1.3723    0.0050 C   0  0  0  0  0  0  0  0  0  0  0  0
   -0.0499   -0.1241    0.0030 C   0  0  0  0  0  0  0  0  0  0  0  0
    1.3499    0.1784   -0.1567 O   0  0  0  0  0  0  0  0  0  0  0  0
    1.1111    1.6031   -0.1338 C   0  0  0  0  0  0  0  0  0  0  0  0
   -1.6673    1.1954   -2.5943 H   0  0  0  0  0  0  0  0  0  0  0  0
   -0.3961    3.8542   -0.0807 H   0  0  0  0  0  0  0  0  0  0  0  0
   -2.1959    3.9771    0.0424 H   0  0  0  0  0  0  0  0  0  0  0  0
   -1.2842    2.1185    2.0666 H   0  0  0  0  0  0  0  0  0  0  0  0
   -2.7066    0.4391    0.1894 H   0  0  0  0  0  0  0  0  0  0  0  0
   -3.4876    2.0709    0.1980 H   0  0  0  0  0  0  0  0  0  0  0  0
   -0.2515   -0.6690    0.9352 H   0  0  0  0  0  0  0  0  0  0  0  0
   -0.4389   -0.7165   -0.8384 H   0  0  0  0  0  0  0  0  0  0  0  0
    1.6090    2.0883    0.7161 H   0  0  0  0  0  0  0  0  0  0  0  0
    1.4356    2.0873   -1.0642 H   0  0  0  0  0  0  0  0  0  0  0  0
  2  1  1  6  0  0  0
  2  3  1  0  0  0  0
  2  6  1  0  0  0  0
  2  5  1  0  0  0  0
  3 12  1  0  0  0  0
  3  4  1  0  0  0  0
  4 13  1  1  0  0  0
  5 14  1  0  0  0  0
  5 15  1  0  0  0  0
  5  4  1  0  0  0  0
  6  4  1  0  0  0  0
  7  6  1  0  0  0  0
  7 16  1  0  0  0  0
  8  9  1  0  0  0  0
  8  7  1  0  0  0  0
  9  6  1  0  0  0  0
  9 18  1  0  0  0  0
 10  1  1  0  0  0  0
 11  3  1  0  0  0  0
 17  7  1  0  0  0  0
 19  9  1  0  0  0  0
M TOR 0 0 1 2 3
M TOR 1 0 1 2 10
M TOR 2 0 1 2 11
M TOR 3 0 1 4 3
M TOR 4 0 1 4 13
M TOR 5 0 1 4 14
M TOR 6 0 1 5 3
M TOR 7 0 1 5 6
M TOR 8 0 1 5 8
M TOR 9 1 2 3 4
M TOR 10 1 2 3 5
M TOR 11 1 2 3 12
M TOR 12 1 4 3 5
M TOR 13 1 4 3 12
M TOR 14 1 5 3 12
M TOR 15 1 5 6 7
M TOR 16 1 5 6 15
M TOR 17 1 5 6 16
M TOR 18 1 5 8 7
M TOR 19 1 5 8 17
M TOR 20 1 5 8 18
M TOR 21 2 1 0 9
M TOR 22 2 1 4 13
M TOR 23 2 1 4 14
M TOR 24 2 1 5 6
M TOR 25 2 1 5 8
M TOR 26 2 3 4 13
M TOR 27 2 3 4 14
M TOR 28 2 3 5 6
M TOR 29 2 3 5 8
M TOR 30 3 5 6 7
M TOR 31 3 5 6 15
M TOR 32 3 5 6 16
M TOR 33 3 5 8 7
M TOR 34 3 5 8 17
M TOR 35 3 5 8 18
M TOR 36 4 1 0 9
M TOR 37 4 1 2 10
M TOR 38 4 1 2 11
M TOR 39 4 1 5 6
M TOR 40 4 1 5 8
M TOR 41 4 3 2 10
M TOR 42 4 3 2 11
M TOR 43 4 3 5 6
M TOR 44 4 3 5 8
M TOR 45 5 1 0 9
M TOR 46 5 1 2 10
M TOR 47 5 1 2 11
M TOR 48 5 1 4 13
M TOR 49 5 1 4 14
M TOR 50 5 3 2 10
M TOR 51 5 3 2 11
M TOR 52 5 3 4 13
M TOR 53 5 3 4 14
M TOR 54 5 6 7 8
M TOR 55 6 5 3 12
M TOR 56 6 5 8 17
M TOR 57 6 5 8 18
M TOR 58 6 7 8 17
M TOR 59 6 7 8 18
M TOR 60 8 5 3 12
M TOR 61 8 5 6 15
M TOR 62 8 5 6 16
M TOR 63 8 7 6 15
M TOR 64 8 7 6 16
M  END
$$$$
