gdb 3475	1.9997876	1.8539139	1.5628448	2.7977	74.89	-0.24624	-0.01194	0.23429999999999998	997.59	0.158089	-422.558371	-422.550345	-422.549401	-422.590367	31.719
 OpenBabel02181911413D

 19 20  0  0  1  0  0  0  0  0999 V2000
    1.0826    0.8573   -0.2018 C   0  0  0  0  0  0  0  0  0  0  0  0
    0.9305   -0.6453    0.0767 C   0  0  2  0  0  0  0  0  0  0  0  0
    1.7363   -1.0226    1.3030 C   0  0  1  0  0  0  0  0  0  0  0  0
    2.0474   -2.4077    1.4834 O   0  0  0  0  0  0  0  0  0  0  0  0
    3.1232   -1.4957    1.1210 C   0  0  1  0  0  0  0  0  0  0  0  0
    3.6551   -1.6126   -0.2579 C   0  0  0  0  0  0  0  0  0  0  0  0
    2.8307   -1.6082   -1.3086 C   0  0  0  0  0  0  0  0  0  0  0  0
    1.3283   -1.5220   -1.1368 C   0  0  1  0  0  0  0  0  0  0  0  0
    0.7556   -2.8236   -1.0397 O   0  0  0  0  0  0  0  0  0  0  0  0
    0.7873    1.4523    0.6687 H   0  0  0  0  0  0  0  0  0  0  0  0
    2.1190    1.1108   -0.4458 H   0  0  0  0  0  0  0  0  0  0  0  0
    0.4511    1.1617   -1.0418 H   0  0  0  0  0  0  0  0  0  0  0  0
   -0.1254   -0.8706    0.2712 H   0  0  0  0  0  0  0  0  0  0  0  0
    1.4796   -0.5023    2.2268 H   0  0  0  0  0  0  0  0  0  0  0  0
    3.8420   -1.3523    1.9241 H   0  0  0  0  0  0  0  0  0  0  0  0
    4.7299   -1.7075   -0.3784 H   0  0  0  0  0  0  0  0  0  0  0  0
    3.2186   -1.7253   -2.3160 H   0  0  0  0  0  0  0  0  0  0  0  0
    0.8834   -1.0842   -2.0368 H   0  0  0  0  0  0  0  0  0  0  0  0
    1.1320   -3.2071   -0.2347 H   0  0  0  0  0  0  0  0  0  0  0  0
  1  2  1  0  0  0  0
  1 10  1  0  0  0  0
  2 13  1  1  0  0  0
  2  3  1  0  0  0  0
  3  4  1  0  0  0  0
  3 14  1  1  0  0  0
  5  3  1  0  0  0  0
  5  4  1  0  0  0  0
  5 15  1  1  0  0  0
  6  5  1  0  0  0  0
  7  8  1  0  0  0  0
  7  6  2  0  0  0  0
  8 18  1  6  0  0  0
  8  9  1  0  0  0  0
  8  2  1  0  0  0  0
  9 19  1  0  0  0  0
 11  1  1  0  0  0  0
 12  1  1  0  0  0  0
 16  6  1  0  0  0  0
 17  7  1  0  0  0  0
M TOR 0 0 1 2 3
M TOR 1 0 1 2 4
M TOR 2 0 1 2 13
M TOR 3 0 1 7 6
M TOR 4 0 1 7 8
M TOR 5 0 1 7 17
M TOR 6 1 2 3 4
M TOR 7 1 2 4 5
M TOR 8 1 2 4 14
M TOR 9 1 7 6 5
M TOR 10 1 7 6 16
M TOR 11 1 7 8 18
M TOR 12 2 1 0 9
M TOR 13 2 1 0 10
M TOR 14 2 1 0 11
M TOR 15 2 1 7 6
M TOR 16 2 1 7 8
M TOR 17 2 1 7 17
M TOR 18 2 3 4 5
M TOR 19 2 3 4 14
M TOR 20 2 4 5 6
M TOR 21 2 4 5 15
M TOR 22 3 2 1 7
M TOR 23 3 2 1 12
M TOR 24 3 4 2 13
M TOR 25 3 4 5 6
M TOR 26 3 4 5 15
M TOR 27 4 2 1 7
M TOR 28 4 2 1 12
M TOR 29 4 5 6 7
M TOR 30 4 5 6 16
M TOR 31 5 4 2 13
M TOR 32 5 6 7 8
M TOR 33 5 6 7 17
M TOR 34 6 5 4 14
M TOR 35 6 7 1 12
M TOR 36 6 7 8 18
M TOR 37 7 1 0 9
M TOR 38 7 1 0 10
M TOR 39 7 1 0 11
M TOR 40 7 1 2 13
M TOR 41 7 6 5 15
M TOR 42 8 7 1 12
M TOR 43 8 7 6 16
M  END
$$$$
