gdb 216	2.8323944	1.8693892	1.5456069	2.8823	72.48	-0.25072	0.07719	0.32791	926.3835	0.160587	-422.561484	-422.554695	-422.553751	-422.592487	27.676
 OpenBabel02181911403D

 19 21  0  0  1  0  0  0  0  0999 V2000
   -0.0658   -0.0467   -0.2124 C   0  0  0  0  0  0  0  0  0  0  0  0
   -0.5264    1.1163   -1.1324 C   0  0  0  0  0  0  0  0  0  0  0  0
    0.8011    1.8526   -1.4026 C   0  0  2  0  0  0  0  0  0  0  0  0
    1.7701    0.8126   -1.4201 O   0  0  0  0  0  0  0  0  0  0  0  0
    1.4866    0.0469   -0.2449 C   0  0  1  0  0  0  0  0  0  0  0  0
    2.0788    0.7715    0.9759 C   0  0  0  0  0  0  0  0  0  0  0  0
    1.7189    2.2511    0.9514 C   0  0  1  0  0  0  0  0  0  0  0  0
    2.4574    3.0708    0.0341 O   0  0  0  0  0  0  0  0  0  0  0  0
    1.0909    2.8145   -0.2564 C   0  0  1  0  0  0  0  0  0  0  0  0
   -0.4553    0.0492    0.8044 H   0  0  0  0  0  0  0  0  0  0  0  0
   -0.4016   -1.0111   -0.5993 H   0  0  0  0  0  0  0  0  0  0  0  0
   -0.9441    0.7392   -2.0687 H   0  0  0  0  0  0  0  0  0  0  0  0
   -1.2786    1.7576   -0.6645 H   0  0  0  0  0  0  0  0  0  0  0  0
    0.8452    2.3627   -2.3685 H   0  0  0  0  0  0  0  0  0  0  0  0
    1.9583   -0.9297   -0.3766 H   0  0  0  0  0  0  0  0  0  0  0  0
    1.7091    0.3140    1.9008 H   0  0  0  0  0  0  0  0  0  0  0  0
    3.1698    0.6737    0.9768 H   0  0  0  0  0  0  0  0  0  0  0  0
    1.5390    2.7295    1.9137 H   0  0  0  0  0  0  0  0  0  0  0  0
    0.4245    3.6747   -0.1761 H   0  0  0  0  0  0  0  0  0  0  0  0
  1 10  1  0  0  0  0
  2 13  1  0  0  0  0
  2  1  1  0  0  0  0
  3 14  1  6  0  0  0
  3  2  1  0  0  0  0
  3  9  1  0  0  0  0
  4  3  1  0  0  0  0
  4  5  1  0  0  0  0
  5 15  1  6  0  0  0
  5  1  1  0  0  0  0
  5  6  1  0  0  0  0
  6 17  1  0  0  0  0
  6 16  1  0  0  0  0
  7  6  1  0  0  0  0
  7 18  1  1  0  0  0
  8  7  1  0  0  0  0
  9 19  1  1  0  0  0
  9  8  1  0  0  0  0
  9  7  1  0  0  0  0
 11  1  1  0  0  0  0
 12  2  1  0  0  0  0
M TOR 0 0 1 2 3
M TOR 1 0 1 2 8
M TOR 2 0 1 2 13
M TOR 3 0 4 3 2
M TOR 4 0 4 5 6
M TOR 5 0 4 5 15
M TOR 6 0 4 5 16
M TOR 7 1 0 4 3
M TOR 8 1 0 4 5
M TOR 9 1 0 4 14
M TOR 10 1 2 3 4
M TOR 11 1 2 8 6
M TOR 12 1 2 8 7
M TOR 13 1 2 8 18
M TOR 14 2 1 0 4
M TOR 15 2 1 0 9
M TOR 16 2 1 0 10
M TOR 17 2 3 4 5
M TOR 18 2 3 4 14
M TOR 19 2 8 6 5
M TOR 20 2 8 6 7
M TOR 21 2 8 6 17
M TOR 22 3 2 1 11
M TOR 23 3 2 1 12
M TOR 24 3 2 8 6
M TOR 25 3 2 8 7
M TOR 26 3 2 8 18
M TOR 27 3 4 0 9
M TOR 28 3 4 0 10
M TOR 29 3 4 5 6
M TOR 30 3 4 5 15
M TOR 31 3 4 5 16
M TOR 32 4 0 1 11
M TOR 33 4 0 1 12
M TOR 34 4 3 2 8
M TOR 35 4 3 2 13
M TOR 36 4 5 6 7
M TOR 37 4 5 6 8
M TOR 38 4 5 6 17
M TOR 39 5 4 0 9
M TOR 40 5 4 0 10
M TOR 41 5 6 7 8
M TOR 42 5 6 8 18
M TOR 43 6 5 4 14
M TOR 44 6 7 8 18
M TOR 45 6 8 2 13
M TOR 46 7 6 5 15
M TOR 47 7 6 5 16
M TOR 48 7 8 2 13
M TOR 49 7 8 6 17
M TOR 50 8 2 1 11
M TOR 51 8 2 1 12
M TOR 52 8 6 5 15
M TOR 53 8 6 5 16
M  END
$$$$
