
     RDKit          3D

 19 20  0  0  0  0  0  0  0  0999 V2000
    1.2047   -0.7074    0.9941 C   0  0  0  0  0  0  0  0  0  0  0  0
    0.9865    0.0874   -0.2983 C   0  0  0  0  0  0  0  0  0  0  0  0
    1.9207   -0.3492   -1.4175 C   0  0  0  0  0  0  0  0  0  0  0  0
    2.0602    0.5150   -2.7237 C   0  0  0  0  0  0  0  0  0  0  0  0
    3.3944   -0.2469   -2.9463 C   0  0  0  0  0  0  0  0  0  0  0  0
    4.2947    0.3874   -3.8084 O   0  0  0  0  0  0  0  0  0  0  0  0
    3.4372    0.0721   -1.4073 C   0  0  0  0  0  0  0  0  0  0  0  0
    2.9089    1.4539   -1.8379 C   0  0  0  0  0  0  0  0  0  0  0  0
    3.0442    2.6084   -1.5865 O   0  0  0  0  0  0  0  0  0  0  0  0
    1.0611   -1.7811    0.8296 H   0  0  0  0  0  0  0  0  0  0  0  0
    2.2187   -0.5634    1.3818 H   0  0  0  0  0  0  0  0  0  0  0  0
    0.5028   -0.3931    1.7720 H   0  0  0  0  0  0  0  0  0  0  0  0
   -0.0487   -0.0443   -0.6384 H   0  0  0  0  0  0  0  0  0  0  0  0
    1.1109    1.1582   -0.1000 H   0  0  0  0  0  0  0  0  0  0  0  0
    1.7959   -1.4142   -1.6441 H   0  0  0  0  0  0  0  0  0  0  0  0
    1.2955    0.7450   -3.4624 H   0  0  0  0  0  0  0  0  0  0  0  0
    3.2690   -1.3132   -3.1714 H   0  0  0  0  0  0  0  0  0  0  0  0
    5.1533   -0.0403   -3.7272 H   0  0  0  0  0  0  0  0  0  0  0  0
    4.2061   -0.1949   -0.6845 H   0  0  0  0  0  0  0  0  0  0  0  0
  1  2  1  0
  2  3  1  0
  3  4  1  0
  4  5  1  0
  5  6  1  0
  5  7  1  0
  7  8  1  0
  8  9  2  0
  7  3  1  0
  8  4  1  0
  1 10  1  0
  1 11  1  0
  1 12  1  0
  2 13  1  0
  2 14  1  0
  3 15  1  0
  4 16  1  0
  5 17  1  0
  6 18  1  0
  7 19  1  0
M  END
$$$$
