
     RDKit          3D

 19 19  0  0  0  0  0  0  0  0999 V2000
    1.3062   -0.3185   -0.1162 C   0  0  0  0  0  0  0  0  0  0  0  0
   -0.0337    0.1656   -0.0714 O   0  0  0  0  0  0  0  0  0  0  0  0
   -0.4472    0.7465    1.1374 C   0  0  0  0  0  0  0  0  0  0  0  0
   -1.7959    0.3007    1.6159 C   0  0  0  0  0  0  0  0  0  0  0  0
   -0.5451   -0.1021    2.3722 C   0  0  0  0  0  0  0  0  0  0  0  0
   -0.0965    2.2331    1.2344 C   0  0  0  0  0  0  0  0  0  0  0  0
   -0.4723    2.8884    0.0355 O   0  0  0  0  0  0  0  0  0  0  0  0
    1.3173    2.4758    1.5735 C   0  0  0  0  0  0  0  0  0  0  0  0
    2.4594    2.7045    1.8728 C   0  0  0  0  0  0  0  0  0  0  0  0
    1.5013   -1.0260    0.6991 H   0  0  0  0  0  0  0  0  0  0  0  0
    1.4101   -0.8376   -1.0719 H   0  0  0  0  0  0  0  0  0  0  0  0
    2.0387    0.4925   -0.0590 H   0  0  0  0  0  0  0  0  0  0  0  0
   -2.4598    1.0389    2.0517 H   0  0  0  0  0  0  0  0  0  0  0  0
   -2.2842   -0.4647    1.0247 H   0  0  0  0  0  0  0  0  0  0  0  0
   -0.3357    0.3600    3.3310 H   0  0  0  0  0  0  0  0  0  0  0  0
   -0.2300   -1.1365    2.2949 H   0  0  0  0  0  0  0  0  0  0  0  0
   -0.7068    2.6723    2.0334 H   0  0  0  0  0  0  0  0  0  0  0  0
   -0.2693    2.2629   -0.6735 H   0  0  0  0  0  0  0  0  0  0  0  0
    3.4695    2.9068    2.1319 H   0  0  0  0  0  0  0  0  0  0  0  0
  1  2  1  0
  2  3  1  0
  3  4  1  0
  4  5  1  0
  3  6  1  0
  6  7  1  0
  6  8  1  0
  8  9  3  0
  5  3  1  0
  1 10  1  0
  1 11  1  0
  1 12  1  0
  4 13  1  0
  4 14  1  0
  5 15  1  0
  5 16  1  0
  6 17  1  0
  7 18  1  0
  9 19  1  0
M  END
$$$$
