gdb 589	2.85631	2.0109255	1.7177741	1.8833	71.84	-0.25106	0.07675	0.32781	877.0445	0.161862	-422.59226	-422.58596	-422.585016	-422.622837	26.353
 OpenBabel02181911403D

 19 21  0  0  1  0  0  0  0  0999 V2000
    1.5394   -0.0558    0.8680 C   0  0  0  0  0  0  0  0  0  0  0  0
    1.7822    1.4139    1.3232 C   0  0  0  0  0  0  0  0  0  0  0  0
    0.5490    2.1980    0.8591 C   0  0  2  0  0  0  0  0  0  0  0  0
   -0.5014    2.1796    1.8518 O   0  0  0  0  0  0  0  0  0  0  0  0
   -1.5100    1.3373    1.3016 C   0  0  2  0  0  0  0  0  0  0  0  0
   -1.0258   -0.1218    1.3506 C   0  0  0  0  0  0  0  0  0  0  0  0
    0.1158   -0.0737    0.2838 C   0  0  1  0  0  0  0  0  0  0  0  0
   -0.1168    1.3642   -0.2690 C   0  0  1  0  0  0  0  0  0  0  0  0
   -1.5049    1.6282   -0.0834 O   0  0  0  0  0  0  0  0  0  0  0  0
    2.2635   -0.3374    0.0964 H   0  0  0  0  0  0  0  0  0  0  0  0
    1.6559   -0.7749    1.6832 H   0  0  0  0  0  0  0  0  0  0  0  0
    1.8928    1.5116    2.4055 H   0  0  0  0  0  0  0  0  0  0  0  0
    2.6884    1.8244    0.8668 H   0  0  0  0  0  0  0  0  0  0  0  0
    0.7592    3.2399    0.6023 H   0  0  0  0  0  0  0  0  0  0  0  0
   -2.4723    1.5746    1.7535 H   0  0  0  0  0  0  0  0  0  0  0  0
   -0.6757   -0.4030    2.3462 H   0  0  0  0  0  0  0  0  0  0  0  0
   -1.8295   -0.8012    1.0545 H   0  0  0  0  0  0  0  0  0  0  0  0
   -0.0165   -0.8474   -0.4737 H   0  0  0  0  0  0  0  0  0  0  0  0
    0.1872    1.5740   -1.2927 H   0  0  0  0  0  0  0  0  0  0  0  0
  1  2  1  0  0  0  0
  1 11  1  0  0  0  0
  2 12  1  0  0  0  0
  3 14  1  6  0  0  0
  3  2  1  0  0  0  0
  3  4  1  0  0  0  0
  5  6  1  0  0  0  0
  5 15  1  1  0  0  0
  5  4  1  0  0  0  0
  6 16  1  0  0  0  0
  7 18  1  6  0  0  0
  7  1  1  0  0  0  0
  7  6  1  0  0  0  0
  8 19  1  6  0  0  0
  8  9  1  0  0  0  0
  8  7  1  0  0  0  0
  8  3  1  0  0  0  0
  9  5  1  0  0  0  0
 10  1  1  0  0  0  0
 13  2  1  0  0  0  0
 17  6  1  0  0  0  0
M TOR 0 0 1 2 3
M TOR 1 0 1 2 7
M TOR 2 0 1 2 13
M TOR 3 0 6 5 4
M TOR 4 0 6 5 15
M TOR 5 0 6 5 16
M TOR 6 0 6 7 2
M TOR 7 0 6 7 8
M TOR 8 0 6 7 18
M TOR 9 1 0 6 5
M TOR 10 1 0 6 7
M TOR 11 1 0 6 17
M TOR 12 1 2 3 4
M TOR 13 1 2 7 6
M TOR 14 1 2 7 8
M TOR 15 1 2 7 18
M TOR 16 2 1 0 6
M TOR 17 2 1 0 9
M TOR 18 2 1 0 10
M TOR 19 2 3 4 5
M TOR 20 2 3 4 8
M TOR 21 2 3 4 14
M TOR 22 2 7 6 5
M TOR 23 2 7 6 17
M TOR 24 2 7 8 4
M TOR 25 3 2 1 11
M TOR 26 3 2 1 12
M TOR 27 3 2 7 6
M TOR 28 3 2 7 8
M TOR 29 3 2 7 18
M TOR 30 3 4 5 6
M TOR 31 3 4 5 15
M TOR 32 3 4 5 16
M TOR 33 3 4 8 7
M TOR 34 4 3 2 7
M TOR 35 4 3 2 13
M TOR 36 4 5 6 7
M TOR 37 4 5 6 17
M TOR 38 4 8 7 6
M TOR 39 4 8 7 18
M TOR 40 5 4 8 7
M TOR 41 5 6 0 9
M TOR 42 5 6 0 10
M TOR 43 5 6 7 8
M TOR 44 5 6 7 18
M TOR 45 6 0 1 11
M TOR 46 6 0 1 12
M TOR 47 6 5 4 8
M TOR 48 6 5 4 14
M TOR 49 6 7 2 13
M TOR 50 7 2 1 11
M TOR 51 7 2 1 12
M TOR 52 7 6 0 9
M TOR 53 7 6 0 10
M TOR 54 7 6 5 15
M TOR 55 7 6 5 16
M TOR 56 7 8 4 14
M TOR 57 8 4 5 15
M TOR 58 8 4 5 16
M TOR 59 8 7 2 13
M TOR 60 8 7 6 17
M  END
$$$$
