gdb 704	3.7326768	1.0988235	1.0169356	1.7902	74.5	-0.24251	-0.02233	0.22018000000000001	1208.1482	0.15721	-422.567812	-422.559594	-422.55865	-422.601523	30.591
 OpenBabel02181911403D

 19 20  0  0  0  0  0  0  0  0999 V2000
    0.9897    0.0568    0.8790 O   0  0  0  0  0  0  0  0  0  0  0  0
   -0.0674    0.0352    0.3064 C   0  0  0  0  0  0  0  0  0  0  0  0
   -0.7947    1.2457   -0.2946 C   0  0  0  0  0  0  0  0  0  0  0  0
   -2.1971    0.7244   -0.6399 C   0  0  0  0  0  0  0  0  0  0  0  0
   -1.9824   -0.7668   -0.9692 C   0  0  0  0  0  0  0  0  0  0  0  0
   -1.7077   -1.0916   -2.4630 C   0  0  0  0  0  0  0  0  0  0  0  0
   -2.9498   -1.8087   -2.5828 O   0  0  0  0  0  0  0  0  0  0  0  0
   -3.2444   -1.6289   -1.1840 C   0  0  0  0  0  0  0  0  0  0  0  0
   -0.9274   -1.2098    0.0473 C   0  0  0  0  0  0  0  0  0  0  0  0
   -0.7666    2.1000    0.3855 H   0  0  0  0  0  0  0  0  0  0  0  0
   -0.2443    1.5398   -1.1983 H   0  0  0  0  0  0  0  0  0  0  0  0
   -2.8549    0.8080    0.2345 H   0  0  0  0  0  0  0  0  0  0  0  0
   -2.6779    1.2652   -1.4593 H   0  0  0  0  0  0  0  0  0  0  0  0
   -1.6615   -0.2320   -3.1446 H   0  0  0  0  0  0  0  0  0  0  0  0
   -0.8405   -1.7396   -2.6496 H   0  0  0  0  0  0  0  0  0  0  0  0
   -4.2025   -1.1162   -1.0270 H   0  0  0  0  0  0  0  0  0  0  0  0
   -3.2580   -2.5830   -0.6399 H   0  0  0  0  0  0  0  0  0  0  0  0
   -1.4016   -1.4804    1.0015 H   0  0  0  0  0  0  0  0  0  0  0  0
   -0.3158   -2.0626   -0.2579 H   0  0  0  0  0  0  0  0  0  0  0  0
  2  1  2  0  0  0  0
  3  2  1  0  0  0  0
  3 10  1  0  0  0  0
  4  3  1  0  0  0  0
  4 12  1  0  0  0  0
  5  4  1  0  0  0  0
  5  9  1  0  0  0  0
  6  5  1  0  0  0  0
  7  6  1  0  0  0  0
  7  8  1  0  0  0  0
  8 16  1  0  0  0  0
  8  5  1  0  0  0  0
  8 17  1  0  0  0  0
  9  2  1  0  0  0  0
  9 18  1  0  0  0  0
 11  3  1  0  0  0  0
 13  4  1  0  0  0  0
 14  6  1  0  0  0  0
 15  6  1  0  0  0  0
 19  9  1  0  0  0  0
M TOR 0 0 1 2 3
M TOR 1 0 1 2 9
M TOR 2 0 1 2 10
M TOR 3 0 1 8 4
M TOR 4 0 1 8 17
M TOR 5 0 1 8 18
M TOR 6 1 2 3 4
M TOR 7 1 2 3 11
M TOR 8 1 2 3 12
M TOR 9 1 8 4 3
M TOR 10 1 8 4 5
M TOR 11 1 8 4 7
M TOR 12 2 1 8 4
M TOR 13 2 1 8 17
M TOR 14 2 1 8 18
M TOR 15 2 3 4 5
M TOR 16 2 3 4 7
M TOR 17 2 3 4 8
M TOR 18 3 2 1 8
M TOR 19 3 4 5 6
M TOR 20 3 4 5 13
M TOR 21 3 4 5 14
M TOR 22 3 4 7 6
M TOR 23 3 4 7 15
M TOR 24 3 4 7 16
M TOR 25 3 4 8 17
M TOR 26 3 4 8 18
M TOR 27 4 3 2 9
M TOR 28 4 3 2 10
M TOR 29 4 5 6 7
M TOR 30 5 4 3 11
M TOR 31 5 4 3 12
M TOR 32 5 4 7 15
M TOR 33 5 4 7 16
M TOR 34 5 4 8 17
M TOR 35 5 4 8 18
M TOR 36 5 6 7 15
M TOR 37 5 6 7 16
M TOR 38 6 5 4 8
M TOR 39 6 7 4 8
M TOR 40 7 4 3 11
M TOR 41 7 4 3 12
M TOR 42 7 4 5 13
M TOR 43 7 4 5 14
M TOR 44 7 4 8 17
M TOR 45 7 4 8 18
M TOR 46 7 6 5 13
M TOR 47 7 6 5 14
M TOR 48 8 1 2 9
M TOR 49 8 1 2 10
M TOR 50 8 4 3 11
M TOR 51 8 4 3 12
M TOR 52 8 4 5 13
M TOR 53 8 4 5 14
M TOR 54 8 4 7 15
M TOR 55 8 4 7 16
M  END
$$$$
