
     RDKit          3D

 19 20  0  0  0  0  0  0  0  0999 V2000
   -0.0783   -1.1123   -3.3316 C   0  0  0  0  0  0  0  0  0  0  0  0
   -0.2617   -0.6620   -1.9079 C   0  0  0  0  0  0  0  0  0  0  0  0
   -0.5237    0.7546   -1.7925 O   0  0  0  0  0  0  0  0  0  0  0  0
   -1.6444    0.5220   -0.8996 C   0  0  0  0  0  0  0  0  0  0  0  0
   -1.4408   -1.0045   -0.9480 C   0  0  0  0  0  0  0  0  0  0  0  0
   -0.4481   -1.5585    0.1036 C   0  0  0  0  0  0  0  0  0  0  0  0
    0.7489   -1.1554   -0.7998 C   0  0  0  0  0  0  0  0  0  0  0  0
    1.6514   -0.0616   -0.2910 C   0  0  0  0  0  0  0  0  0  0  0  0
    1.5822    0.4277    0.8080 O   0  0  0  0  0  0  0  0  0  0  0  0
    0.0472   -2.1984   -3.3854 H   0  0  0  0  0  0  0  0  0  0  0  0
   -0.9424   -0.8272   -3.9389 H   0  0  0  0  0  0  0  0  0  0  0  0
    0.8111   -0.6435   -3.7681 H   0  0  0  0  0  0  0  0  0  0  0  0
   -1.4966    0.9953    0.0779 H   0  0  0  0  0  0  0  0  0  0  0  0
   -2.5789    0.8856   -1.3426 H   0  0  0  0  0  0  0  0  0  0  0  0
   -2.2941   -1.6188   -1.2339 H   0  0  0  0  0  0  0  0  0  0  0  0
   -0.4589   -1.0677    1.0789 H   0  0  0  0  0  0  0  0  0  0  0  0
   -0.5313   -2.6377    0.2466 H   0  0  0  0  0  0  0  0  0  0  0  0
    1.3711   -1.9894   -1.1443 H   0  0  0  0  0  0  0  0  0  0  0  0
    2.4102    0.2891   -1.0260 H   0  0  0  0  0  0  0  0  0  0  0  0
  1  2  1  0
  2  3  1  0
  3  4  1  0
  4  5  1  0
  5  6  1  0
  6  7  1  0
  7  8  1  0
  8  9  2  0
  5  2  1  0
  7  2  1  0
  1 10  1  0
  1 11  1  0
  1 12  1  0
  4 13  1  0
  4 14  1  0
  5 15  1  0
  6 16  1  0
  6 17  1  0
  7 18  1  0
  8 19  1  0
M  END
$$$$
