gdb 4508	2.7052501	1.7849101	1.546514	2.3731	73.76	-0.23473	0.00257	0.23729999999999998	941.1057	0.160086	-422.576678	-422.569565	-422.568621	-422.6077	29.491
 OpenBabel02181911413D

 19 20  0  0  1  0  0  0  0  0999 V2000
   -0.6635    0.8501    0.8203 O   0  0  0  0  0  0  0  0  0  0  0  0
   -1.9353    0.3210    0.4780 C   0  0  1  0  0  0  0  0  0  0  0  0
   -2.9774    0.5292    1.6053 C   0  0  0  0  0  0  0  0  0  0  0  0
   -3.5680    1.9616    1.6319 C   0  0  0  0  0  0  0  0  0  0  0  0
   -3.7997    2.4750    0.1952 C   0  0  1  0  0  0  0  0  0  0  0  0
   -2.5345    2.4031   -0.4853 O   0  0  0  0  0  0  0  0  0  0  0  0
   -2.4226    1.0090   -0.8203 C   0  0  2  0  0  0  0  0  0  0  0  0
   -3.8450    0.6363   -1.1949 C   0  0  0  0  0  0  0  0  0  0  0  0
   -4.6586    1.5078   -0.6064 C   0  0  0  0  0  0  0  0  0  0  0  0
   -0.7412    1.8058    0.7020 H   0  0  0  0  0  0  0  0  0  0  0  0
   -1.7821   -0.7518    0.3153 H   0  0  0  0  0  0  0  0  0  0  0  0
   -3.7858   -0.1959    1.4716 H   0  0  0  0  0  0  0  0  0  0  0  0
   -2.4960    0.2991    2.5599 H   0  0  0  0  0  0  0  0  0  0  0  0
   -4.4980    1.9795    2.2117 H   0  0  0  0  0  0  0  0  0  0  0  0
   -2.8734    2.6530    2.1215 H   0  0  0  0  0  0  0  0  0  0  0  0
   -4.1389    3.5144    0.1792 H   0  0  0  0  0  0  0  0  0  0  0  0
   -1.6793    0.9039   -1.6153 H   0  0  0  0  0  0  0  0  0  0  0  0
   -4.1125   -0.2306   -1.7843 H   0  0  0  0  0  0  0  0  0  0  0  0
   -5.7407    1.5082   -0.6025 H   0  0  0  0  0  0  0  0  0  0  0  0
  2 11  1  6  0  0  0
  2  1  1  0  0  0  0
  2  3  1  0  0  0  0
  3  4  1  0  0  0  0
  3 13  1  0  0  0  0
  4 15  1  0  0  0  0
  4 14  1  0  0  0  0
  5 16  1  6  0  0  0
  5  4  1  0  0  0  0
  6  5  1  0  0  0  0
  7 17  1  6  0  0  0
  7  6  1  0  0  0  0
  7  2  1  0  0  0  0
  8  7  1  0  0  0  0
  8  9  2  0  0  0  0
  9 19  1  0  0  0  0
  9  5  1  0  0  0  0
 10  1  1  0  0  0  0
 12  3  1  0  0  0  0
 18  8  1  0  0  0  0
M TOR 0 0 1 2 3
M TOR 1 0 1 2 11
M TOR 2 0 1 2 12
M TOR 3 0 1 6 5
M TOR 4 0 1 6 7
M TOR 5 0 1 6 16
M TOR 6 1 2 3 4
M TOR 7 1 2 3 13
M TOR 8 1 2 3 14
M TOR 9 1 6 5 4
M TOR 10 1 6 7 8
M TOR 11 1 6 7 17
M TOR 12 2 1 0 9
M TOR 13 2 1 6 5
M TOR 14 2 1 6 7
M TOR 15 2 1 6 16
M TOR 16 2 3 4 5
M TOR 17 2 3 4 8
M TOR 18 2 3 4 15
M TOR 19 3 2 1 6
M TOR 20 3 2 1 10
M TOR 21 3 4 5 6
M TOR 22 3 4 8 7
M TOR 23 3 4 8 18
M TOR 24 4 3 2 11
M TOR 25 4 3 2 12
M TOR 26 4 5 6 7
M TOR 27 4 5 6 16
M TOR 28 4 8 7 6
M TOR 29 4 8 7 17
M TOR 30 5 4 3 13
M TOR 31 5 4 3 14
M TOR 32 5 4 8 7
M TOR 33 5 4 8 18
M TOR 34 5 6 1 10
M TOR 35 5 6 7 8
M TOR 36 5 6 7 17
M TOR 37 6 1 0 9
M TOR 38 6 1 2 11
M TOR 39 6 1 2 12
M TOR 40 6 5 4 8
M TOR 41 6 5 4 15
M TOR 42 6 7 8 18
M TOR 43 7 6 1 10
M TOR 44 7 8 4 15
M TOR 45 8 4 3 13
M TOR 46 8 4 3 14
M TOR 47 8 7 6 16
M  END
$$$$
