gdb 1397	3.499568	0.6616344	0.577027	2.7866	79.58	-0.25395	-0.02563	0.22832000000000002	1874.5103	0.15222	-422.519912	-422.509119	-422.508174	-422.557456	36.696
 OpenBabel02181911403D

 19 18  0  0  1  0  0  0  0  0999 V2000
   -2.7687    4.6011    2.5680 C   0  0  0  0  0  0  0  0  0  0  0  0
   -2.1385    4.0278    1.2982 C   0  0  2  0  0  0  0  0  0  0  0  0
   -1.4851    2.8206    1.6697 O   0  0  0  0  0  0  0  0  0  0  0  0
   -1.0102    2.0538    0.5804 C   0  0  0  0  0  0  0  0  0  0  0  0
   -0.3884    0.7784    1.1476 C   0  0  0  0  0  0  0  0  0  0  0  0
    0.3509   -0.0099    0.0906 C   0  0  0  0  0  0  0  0  0  0  0  0
    0.1580   -1.1698   -0.1655 O   0  0  0  0  0  0  0  0  0  0  0  0
   -1.2155    4.9829    0.6679 C   0  0  0  0  0  0  0  0  0  0  0  0
   -0.4579    5.7648    0.1582 C   0  0  0  0  0  0  0  0  0  0  0  0
   -3.4571    3.8682    2.9955 H   0  0  0  0  0  0  0  0  0  0  0  0
   -1.9912    4.8269    3.3016 H   0  0  0  0  0  0  0  0  0  0  0  0
   -3.3153    5.5191    2.3398 H   0  0  0  0  0  0  0  0  0  0  0  0
   -2.9372    3.7956    0.5732 H   0  0  0  0  0  0  0  0  0  0  0  0
   -1.8381    1.8072   -0.1045 H   0  0  0  0  0  0  0  0  0  0  0  0
   -0.2648    2.6228    0.0040 H   0  0  0  0  0  0  0  0  0  0  0  0
    0.3408    1.0781    1.9132 H   0  0  0  0  0  0  0  0  0  0  0  0
   -1.1408    0.1406    1.6170 H   0  0  0  0  0  0  0  0  0  0  0  0
    1.1266    0.5749   -0.4585 H   0  0  0  0  0  0  0  0  0  0  0  0
    0.2083    6.4577   -0.2942 H   0  0  0  0  0  0  0  0  0  0  0  0
  1 10  1  0  0  0  0
  1 11  1  0  0  0  0
  2 13  1  6  0  0  0
  2  3  1  0  0  0  0
  2  1  1  0  0  0  0
  4  5  1  0  0  0  0
  4  3  1  0  0  0  0
  5 17  1  0  0  0  0
  5 16  1  0  0  0  0
  6  5  1  0  0  0  0
  7  6  2  0  0  0  0
  8  2  1  0  0  0  0
  9  8  3  0  0  0  0
 12  1  1  0  0  0  0
 14  4  1  0  0  0  0
 15  4  1  0  0  0  0
 18  6  1  0  0  0  0
 19  9  1  0  0  0  0
M TOR 0 0 1 2 3
M TOR 1 0 1 7 8
M TOR 2 1 2 3 4
M TOR 3 1 2 3 13
M TOR 4 1 2 3 14
M TOR 5 1 7 8 18
M TOR 6 2 1 0 9
M TOR 7 2 1 0 10
M TOR 8 2 1 0 11
M TOR 9 2 1 7 8
M TOR 10 2 3 4 5
M TOR 11 2 3 4 15
M TOR 12 2 3 4 16
M TOR 13 3 2 1 7
M TOR 14 3 2 1 12
M TOR 15 3 4 5 6
M TOR 16 3 4 5 17
M TOR 17 5 4 3 13
M TOR 18 5 4 3 14
M TOR 19 6 5 4 15
M TOR 20 6 5 4 16
M TOR 21 7 1 0 9
M TOR 22 7 1 0 10
M TOR 23 7 1 0 11
M TOR 24 8 7 1 12
M  END
$$$$
