
     RDKit          3D

 19 21  0  0  0  0  0  0  0  0999 V2000
    0.4558    0.8528   -0.0512 O   0  0  0  0  0  0  0  0  0  0  0  0
   -0.7204    0.8460    0.7274 C   0  0  0  0  0  0  0  0  0  0  0  0
   -1.3623    2.2380    0.7456 C   0  0  0  0  0  0  0  0  0  0  0  0
   -2.3717    2.3273    1.9733 C   0  0  0  0  0  0  0  0  0  0  0  0
   -1.4846    3.4634    2.5526 C   0  0  0  0  0  0  0  0  0  0  0  0
   -0.3541    2.7048    1.8436 C   0  0  0  0  0  0  0  0  0  0  0  0
   -0.4582    1.1472    2.2195 C   0  0  0  0  0  0  0  0  0  0  0  0
    0.5765    0.4169    2.8008 O   0  0  0  0  0  0  0  0  0  0  0  0
   -1.8838    1.1110    2.7974 C   0  0  0  0  0  0  0  0  0  0  0  0
    1.1022    0.3158    0.4226 H   0  0  0  0  0  0  0  0  0  0  0  0
   -1.3450   -0.0309    0.5003 H   0  0  0  0  0  0  0  0  0  0  0  0
   -1.5767    2.8068   -0.1564 H   0  0  0  0  0  0  0  0  0  0  0  0
   -3.4450    2.4501    1.8315 H   0  0  0  0  0  0  0  0  0  0  0  0
   -1.6703    4.4296    2.0740 H   0  0  0  0  0  0  0  0  0  0  0  0
   -1.4661    3.5918    3.6410 H   0  0  0  0  0  0  0  0  0  0  0  0
    0.6333    3.1037    1.6257 H   0  0  0  0  0  0  0  0  0  0  0  0
    0.7655    0.7759    3.6738 H   0  0  0  0  0  0  0  0  0  0  0  0
   -2.3963    0.1703    2.5772 H   0  0  0  0  0  0  0  0  0  0  0  0
   -1.9337    1.2928    3.8763 H   0  0  0  0  0  0  0  0  0  0  0  0
  1  2  1  0
  2  3  1  0
  3  4  1  0
  4  5  1  0
  5  6  1  0
  6  7  1  0
  7  8  1  0
  7  9  1  0
  7  2  1  0
  6  3  1  0
  9  4  1  0
  1 10  1  0
  2 11  1  0
  3 12  1  0
  4 13  1  0
  5 14  1  0
  5 15  1  0
  6 16  1  0
  8 17  1  0
  9 18  1  0
  9 19  1  0
M  END
$$$$
