
     RDKit          3D

 19 19  0  0  0  0  0  0  0  0999 V2000
   -0.6040    2.6128    2.8734 C   0  0  0  0  0  0  0  0  0  0  0  0
   -1.3952    2.7620    1.5945 C   0  0  0  0  0  0  0  0  0  0  0  0
   -0.8744    3.4899    0.4082 C   0  0  0  0  0  0  0  0  0  0  0  0
   -1.7509    4.3914   -0.4293 C   0  0  0  0  0  0  0  0  0  0  0  0
   -1.0463    1.9723    0.3114 C   0  0  0  0  0  0  0  0  0  0  0  0
    0.1524    1.1259    0.2490 C   0  0  0  0  0  0  0  0  0  0  0  0
    1.2519    1.3952    0.6970 O   0  0  0  0  0  0  0  0  0  0  0  0
    0.0055   -0.2276   -0.4646 C   0  0  0  0  0  0  0  0  0  0  0  0
   -1.0077   -0.6158   -0.9836 O   0  0  0  0  0  0  0  0  0  0  0  0
   -0.9405    1.7429    3.4472 H   0  0  0  0  0  0  0  0  0  0  0  0
    0.4625    2.4967    2.6725 H   0  0  0  0  0  0  0  0  0  0  0  0
   -0.7418    3.4995    3.5019 H   0  0  0  0  0  0  0  0  0  0  0  0
   -2.4720    2.8269    1.7377 H   0  0  0  0  0  0  0  0  0  0  0  0
    0.1713    3.7818    0.4781 H   0  0  0  0  0  0  0  0  0  0  0  0
   -1.7825    5.4022   -0.0078 H   0  0  0  0  0  0  0  0  0  0  0  0
   -1.3794    4.4677   -1.4563 H   0  0  0  0  0  0  0  0  0  0  0  0
   -2.7787    4.0163   -0.4712 H   0  0  0  0  0  0  0  0  0  0  0  0
   -1.8874    1.5927   -0.2566 H   0  0  0  0  0  0  0  0  0  0  0  0
    0.9509   -0.8107   -0.4543 H   0  0  0  0  0  0  0  0  0  0  0  0
  1  2  1  0
  2  3  1  0
  3  4  1  0
  3  5  1  0
  5  6  1  0
  6  7  2  0
  6  8  1  0
  8  9  2  0
  5  2  1  0
  1 10  1  0
  1 11  1  0
  1 12  1  0
  2 13  1  0
  3 14  1  0
  4 15  1  0
  4 16  1  0
  4 17  1  0
  5 18  1  0
  8 19  1  0
M  END
$$$$
