
     RDKit          3D

 19 21  0  0  0  0  0  0  0  0999 V2000
   -0.2515   -0.2108   -0.2105 C   0  0  0  0  0  0  0  0  0  0  0  0
    1.2678   -0.1051   -0.1361 C   0  0  0  0  0  0  0  0  0  0  0  0
    1.8650    1.3191    0.0027 C   0  0  0  0  0  0  0  0  0  0  0  0
    3.3902    1.0353   -0.0996 C   0  0  0  0  0  0  0  0  0  0  0  0
    3.1885    0.3582    1.2532 C   0  0  0  0  0  0  0  0  0  0  0  0
    4.2681    0.0209    2.0449 O   0  0  0  0  0  0  0  0  0  0  0  0
    2.0288    1.3309    1.5987 C   0  0  0  0  0  0  0  0  0  0  0  0
    1.2290    0.2884    2.1717 O   0  0  0  0  0  0  0  0  0  0  0  0
    1.8911   -0.5739    1.1958 C   0  0  0  0  0  0  0  0  0  0  0  0
   -0.7169    0.2642    0.6554 H   0  0  0  0  0  0  0  0  0  0  0  0
   -0.6272    0.2739   -1.1179 H   0  0  0  0  0  0  0  0  0  0  0  0
   -0.5716   -1.2585   -0.2365 H   0  0  0  0  0  0  0  0  0  0  0  0
    1.7234   -0.6232   -0.9871 H   0  0  0  0  0  0  0  0  0  0  0  0
    1.3974    2.1385   -0.5385 H   0  0  0  0  0  0  0  0  0  0  0  0
    3.7459    0.4514   -0.9527 H   0  0  0  0  0  0  0  0  0  0  0  0
    4.0017    1.9342    0.0198 H   0  0  0  0  0  0  0  0  0  0  0  0
    3.9326   -0.2622    2.9040 H   0  0  0  0  0  0  0  0  0  0  0  0
    2.0731    2.2649    2.1566 H   0  0  0  0  0  0  0  0  0  0  0  0
    1.8918   -1.6294    1.4706 H   0  0  0  0  0  0  0  0  0  0  0  0
  1  2  1  0
  2  3  1  0
  3  4  1  0
  4  5  1  0
  5  6  1  0
  5  7  1  0
  7  8  1  0
  8  9  1  0
  9  2  1  0
  7  3  1  0
  9  5  1  0
  1 10  1  0
  1 11  1  0
  1 12  1  0
  2 13  1  0
  3 14  1  0
  4 15  1  0
  4 16  1  0
  6 17  1  0
  7 18  1  0
  9 19  1  0
M  END
$$$$
