
     RDKit          3D

 19 21  0  0  0  0  0  0  0  0999 V2000
   -0.1763    0.3057    0.0776 C   0  0  0  0  0  0  0  0  0  0  0  0
    1.3034    0.0651   -0.0264 C   0  0  0  0  0  0  0  0  0  0  0  0
    2.0011    1.3158   -0.0430 O   0  0  0  0  0  0  0  0  0  0  0  0
    3.3665    0.9263   -0.1656 C   0  0  0  0  0  0  0  0  0  0  0  0
    3.2208   -0.5935   -0.1885 C   0  0  0  0  0  0  0  0  0  0  0  0
    4.3541   -1.3781   -0.3697 O   0  0  0  0  0  0  0  0  0  0  0  0
    1.9639   -0.9166   -1.0509 C   0  0  0  0  0  0  0  0  0  0  0  0
    1.6523   -2.0997   -0.1023 C   0  0  0  0  0  0  0  0  0  0  0  0
    2.0905   -0.9604    0.8480 C   0  0  0  0  0  0  0  0  0  0  0  0
   -0.4043    0.8596    0.9933 H   0  0  0  0  0  0  0  0  0  0  0  0
   -0.5211    0.9036   -0.7715 H   0  0  0  0  0  0  0  0  0  0  0  0
   -0.7361   -0.6323    0.0914 H   0  0  0  0  0  0  0  0  0  0  0  0
    3.8080    1.3210   -1.0893 H   0  0  0  0  0  0  0  0  0  0  0  0
    3.9525    1.2909    0.6900 H   0  0  0  0  0  0  0  0  0  0  0  0
    4.9388   -1.2511    0.3853 H   0  0  0  0  0  0  0  0  0  0  0  0
    1.9013   -0.8787   -2.1394 H   0  0  0  0  0  0  0  0  0  0  0  0
    0.6150   -2.4355   -0.0401 H   0  0  0  0  0  0  0  0  0  0  0  0
    2.3384   -2.9442   -0.1714 H   0  0  0  0  0  0  0  0  0  0  0  0
    2.1735   -0.9709    1.9367 H   0  0  0  0  0  0  0  0  0  0  0  0
  1  2  1  0
  2  3  1  0
  3  4  1  0
  4  5  1  0
  5  6  1  0
  5  7  1  0
  7  8  1  0
  8  9  1  0
  7  2  1  0
  9  2  1  0
  9  5  1  0
  1 10  1  0
  1 11  1  0
  1 12  1  0
  4 13  1  0
  4 14  1  0
  6 15  1  0
  7 16  1  0
  8 17  1  0
  8 18  1  0
  9 19  1  0
M  END
$$$$
