gdb 1342	3.0562938	0.9628419	0.7738499	3.3143	77.02	-0.24798	-0.03177	0.21621	1442.1518	0.15364	-422.575538	-422.56583	-422.564886	-422.611491	34.237
 OpenBabel02181911403D

 19 19  0  0  1  0  0  0  0  0999 V2000
   -4.1455   -0.7923    1.6256 C   0  0  0  0  0  0  0  0  0  0  0  0
   -3.2208    0.3630    1.2136 C   0  0  2  0  0  0  0  0  0  0  0  0
   -4.0408    1.5819    0.8331 C   0  0  0  0  0  0  0  0  0  0  0  0
   -3.8770    2.6915    1.2699 O   0  0  0  0  0  0  0  0  0  0  0  0
   -2.3275   -0.0174    0.0232 C   0  0  0  0  0  0  0  0  0  0  0  0
   -1.2327    1.0142   -0.4042 C   0  0  0  0  0  0  0  0  0  0  0  0
   -0.2062   -0.1268   -0.3468 C   0  0  0  0  0  0  0  0  0  0  0  0
    0.9251   -0.2455   -0.7138 O   0  0  0  0  0  0  0  0  0  0  0  0
   -1.2227   -1.0927    0.2873 C   0  0  0  0  0  0  0  0  0  0  0  0
   -4.7359   -0.5338    2.5096 H   0  0  0  0  0  0  0  0  0  0  0  0
   -4.8404   -1.0480    0.8176 H   0  0  0  0  0  0  0  0  0  0  0  0
   -3.5628   -1.6882    1.8588 H   0  0  0  0  0  0  0  0  0  0  0  0
   -2.5840    0.6594    2.0556 H   0  0  0  0  0  0  0  0  0  0  0  0
   -4.8321    1.3759    0.0718 H   0  0  0  0  0  0  0  0  0  0  0  0
   -2.9521   -0.3036   -0.8294 H   0  0  0  0  0  0  0  0  0  0  0  0
   -1.3424    1.5069   -1.3735 H   0  0  0  0  0  0  0  0  0  0  0  0
   -1.0424    1.7841    0.3518 H   0  0  0  0  0  0  0  0  0  0  0  0
   -1.3237   -2.0664   -0.1983 H   0  0  0  0  0  0  0  0  0  0  0  0
   -1.0171   -1.2554    1.3517 H   0  0  0  0  0  0  0  0  0  0  0  0
  1 12  1  0  0  0  0
  1 10  1  0  0  0  0
  2  1  1  0  0  0  0
  2 13  1  1  0  0  0
  3  2  1  0  0  0  0
  3  4  2  0  0  0  0
  5  9  1  0  0  0  0
  5  2  1  0  0  0  0
  6  7  1  0  0  0  0
  6  5  1  0  0  0  0
  6 17  1  0  0  0  0
  7  9  1  0  0  0  0
  8  7  2  0  0  0  0
  9 19  1  0  0  0  0
 11  1  1  0  0  0  0
 14  3  1  0  0  0  0
 15  5  1  0  0  0  0
 16  6  1  0  0  0  0
 18  9  1  0  0  0  0
M TOR 0 0 1 2 3
M TOR 1 0 1 2 13
M TOR 2 0 1 4 5
M TOR 3 0 1 4 8
M TOR 4 0 1 4 14
M TOR 5 1 4 5 6
M TOR 6 1 4 5 15
M TOR 7 1 4 5 16
M TOR 8 1 4 8 6
M TOR 9 1 4 8 17
M TOR 10 1 4 8 18
M TOR 11 2 1 0 9
M TOR 12 2 1 0 10
M TOR 13 2 1 0 11
M TOR 14 2 1 4 5
M TOR 15 2 1 4 8
M TOR 16 2 1 4 14
M TOR 17 3 2 1 4
M TOR 18 3 2 1 12
M TOR 19 4 1 0 9
M TOR 20 4 1 0 10
M TOR 21 4 1 0 11
M TOR 22 4 1 2 13
M TOR 23 4 5 6 7
M TOR 24 4 5 6 8
M TOR 25 4 8 6 7
M TOR 26 5 4 1 12
M TOR 27 5 4 8 17
M TOR 28 5 4 8 18
M TOR 29 5 6 8 17
M TOR 30 5 6 8 18
M TOR 31 6 5 4 14
M TOR 32 6 8 4 14
M TOR 33 7 6 5 15
M TOR 34 7 6 5 16
M TOR 35 7 6 8 17
M TOR 36 7 6 8 18
M TOR 37 8 4 1 12
M TOR 38 8 4 5 15
M TOR 39 8 4 5 16
M TOR 40 8 6 5 15
M TOR 41 8 6 5 16
M  END
$$$$
