
     RDKit          3D

 19 21  0  0  0  0  0  0  0  0999 V2000
    1.0444    1.0963    0.3223 C   0  0  0  0  0  0  0  0  0  0  0  0
    0.8058   -0.3957    0.0494 C   0  0  0  0  0  0  0  0  0  0  0  0
    1.4773   -0.8623   -1.2097 C   0  0  0  0  0  0  0  0  0  0  0  0
    2.9083   -0.9765   -1.2145 O   0  0  0  0  0  0  0  0  0  0  0  0
    2.1288   -2.1419   -1.4954 C   0  0  0  0  0  0  0  0  0  0  0  0
    1.7654   -2.2870   -3.0029 C   0  0  0  0  0  0  0  0  0  0  0  0
    0.2472   -1.9475   -2.9752 C   0  0  0  0  0  0  0  0  0  0  0  0
    0.9057   -0.5774   -2.6400 C   0  0  0  0  0  0  0  0  0  0  0  0
    2.0079   -0.9480   -3.5071 O   0  0  0  0  0  0  0  0  0  0  0  0
    0.5599    1.4049    1.2531 H   0  0  0  0  0  0  0  0  0  0  0  0
    2.1151    1.3019    0.4081 H   0  0  0  0  0  0  0  0  0  0  0  0
    0.6469    1.7208   -0.4846 H   0  0  0  0  0  0  0  0  0  0  0  0
    1.1803   -0.9894    0.8904 H   0  0  0  0  0  0  0  0  0  0  0  0
   -0.2711   -0.5959   -0.0265 H   0  0  0  0  0  0  0  0  0  0  0  0
    2.2163   -2.9842   -0.8175 H   0  0  0  0  0  0  0  0  0  0  0  0
    2.2086   -3.0843   -3.5977 H   0  0  0  0  0  0  0  0  0  0  0  0
   -0.2074   -1.9653   -3.9669 H   0  0  0  0  0  0  0  0  0  0  0  0
   -0.3906   -2.4290   -2.2276 H   0  0  0  0  0  0  0  0  0  0  0  0
    0.4560    0.3891   -2.8642 H   0  0  0  0  0  0  0  0  0  0  0  0
  1  2  1  0
  2  3  1  0
  3  4  1  0
  4  5  1  0
  5  6  1  0
  6  7  1  0
  7  8  1  0
  8  9  1  0
  5  3  1  0
  9  6  1  0
  8  3  1  0
  1 10  1  0
  1 11  1  0
  1 12  1  0
  2 13  1  0
  2 14  1  0
  5 15  1  0
  6 16  1  0
  7 17  1  0
  7 18  1  0
  8 19  1  0
M  END
$$$$
