gdb 991	2.1604682	1.0427559	0.9624211	3.3583	81.45	-0.23621	-0.01923	0.21698	1406.2005	0.151205	-422.554533	-422.542864	-422.541919	-422.593926	39.445
 OpenBabel02181911403D

 19 18  0  0  1  0  0  0  0  0999 V2000
    1.4903   -0.0194   -0.0925 C   0  0  0  0  0  0  0  0  0  0  0  0
    0.0352   -0.0211   -0.0616 C   0  0  0  0  0  0  0  0  0  0  0  0
   -1.1701   -0.0253   -0.0435 C   0  0  0  0  0  0  0  0  0  0  0  0
   -2.6373   -0.0241   -0.0039 C   0  0  2  0  0  0  0  0  0  0  0  0
   -3.2279    0.8457   -1.1199 C   0  0  0  0  0  0  0  0  0  0  0  0
   -3.1100    0.3920    1.2817 O   0  0  0  0  0  0  0  0  0  0  0  0
   -3.0962   -1.5077   -0.1671 C   0  0  0  0  0  0  0  0  0  0  0  0
   -3.0804   -2.3532    1.0861 C   0  0  0  0  0  0  0  0  0  0  0  0
   -3.4236   -1.9306   -1.2476 O   0  0  0  0  0  0  0  0  0  0  0  0
    1.9085   -0.0676    0.9188 H   0  0  0  0  0  0  0  0  0  0  0  0
    1.8708   -0.8816   -0.6507 H   0  0  0  0  0  0  0  0  0  0  0  0
    1.8781    0.8854   -0.5726 H   0  0  0  0  0  0  0  0  0  0  0  0
   -2.9616    0.4420   -2.0976 H   0  0  0  0  0  0  0  0  0  0  0  0
   -4.3169    0.8594   -1.0289 H   0  0  0  0  0  0  0  0  0  0  0  0
   -2.8488    1.8681   -1.0376 H   0  0  0  0  0  0  0  0  0  0  0  0
   -2.6151    1.1800    1.5298 H   0  0  0  0  0  0  0  0  0  0  0  0
   -3.2435   -3.3979    0.8193 H   0  0  0  0  0  0  0  0  0  0  0  0
   -2.1334   -2.2321    1.6193 H   0  0  0  0  0  0  0  0  0  0  0  0
   -3.8675   -2.0120    1.7650 H   0  0  0  0  0  0  0  0  0  0  0  0
  1  2  1  0  0  0  0
  1 10  1  0  0  0  0
  2  3  3  0  0  0  0
  4  3  1  6  0  0  0
  4  6  1  0  0  0  0
  5 15  1  0  0  0  0
  5 14  1  0  0  0  0
  5  4  1  0  0  0  0
  6 16  1  0  0  0  0
  7  4  1  0  0  0  0
  7  8  1  0  0  0  0
  8 18  1  0  0  0  0
  8 19  1  0  0  0  0
  9  7  2  0  0  0  0
 11  1  1  0  0  0  0
 12  1  1  0  0  0  0
 13  5  1  0  0  0  0
 17  8  1  0  0  0  0
M TOR 0 0 1 2 3
M TOR 1 1 2 3 4
M TOR 2 1 2 3 5
M TOR 3 1 2 3 6
M TOR 4 2 1 0 9
M TOR 5 2 1 0 10
M TOR 6 2 1 0 11
M TOR 7 2 3 4 12
M TOR 8 2 3 4 13
M TOR 9 2 3 4 14
M TOR 10 2 3 5 15
M TOR 11 2 3 6 7
M TOR 12 2 3 6 8
M TOR 13 3 6 7 16
M TOR 14 3 6 7 17
M TOR 15 3 6 7 18
M TOR 16 4 3 5 15
M TOR 17 4 3 6 7
M TOR 18 4 3 6 8
M TOR 19 5 3 4 12
M TOR 20 5 3 4 13
M TOR 21 5 3 4 14
M TOR 22 5 3 6 7
M TOR 23 5 3 6 8
M TOR 24 6 3 4 12
M TOR 25 6 3 4 13
M TOR 26 6 3 4 14
M TOR 27 6 3 5 15
M TOR 28 8 6 7 16
M TOR 29 8 6 7 17
M TOR 30 8 6 7 18
M  END
$$$$
