gdb 4535	3.1015126	1.3176535	1.020264	1.8247	78.33	-0.23687	0.00811	0.24498	1186.6793	0.157916	-422.547034	-422.538775	-422.537831	-422.579943	31.445
 OpenBabel02181911413D

 19 20  0  0  1  0  0  0  0  0999 V2000
    0.9668   -2.5924    1.0889 O   0  0  0  0  0  0  0  0  0  0  0  0
    0.1143   -1.9554    2.0308 C   0  0  2  0  0  0  0  0  0  0  0  0
   -0.9608   -2.9356    2.5283 C   0  0  0  0  0  0  0  0  0  0  0  0
   -2.2154   -2.0673    2.7875 C   0  0  0  0  0  0  0  0  0  0  0  0
   -1.9667   -0.8516    1.9257 C   0  0  0  0  0  0  0  0  0  0  0  0
   -0.7107   -0.7985    1.4783 C   0  0  0  0  0  0  0  0  0  0  0  0
   -0.1132    0.2406    0.6129 C   0  0  2  0  0  0  0  0  0  0  0  0
    0.5274   -0.0876   -0.6763 C   0  0  0  0  0  0  0  0  0  0  0  0
    1.3232    0.2177    0.4730 O   0  0  0  0  0  0  0  0  0  0  0  0
    1.6632   -1.9532    0.8936 H   0  0  0  0  0  0  0  0  0  0  0  0
    0.7222   -1.5806    2.8713 H   0  0  0  0  0  0  0  0  0  0  0  0
   -1.1521   -3.6388    1.7114 H   0  0  0  0  0  0  0  0  0  0  0  0
   -0.6410   -3.5118    3.3992 H   0  0  0  0  0  0  0  0  0  0  0  0
   -3.1494   -2.5823    2.5368 H   0  0  0  0  0  0  0  0  0  0  0  0
   -2.2980   -1.7829    3.8460 H   0  0  0  0  0  0  0  0  0  0  0  0
   -2.7321   -0.1074    1.7276 H   0  0  0  0  0  0  0  0  0  0  0  0
   -0.5236    1.2456    0.7115 H   0  0  0  0  0  0  0  0  0  0  0  0
    0.5558   -1.1266   -0.9945 H   0  0  0  0  0  0  0  0  0  0  0  0
    0.5505    0.6614   -1.4661 H   0  0  0  0  0  0  0  0  0  0  0  0
  1  2  1  0  0  0  0
  2  3  1  0  0  0  0
  2 11  1  1  0  0  0
  3  4  1  0  0  0  0
  3 13  1  0  0  0  0
  4 15  1  0  0  0  0
  5  4  1  0  0  0  0
  6  5  2  0  0  0  0
  6  2  1  0  0  0  0
  7 17  1  1  0  0  0
  7  6  1  0  0  0  0
  8  9  1  0  0  0  0
  8  7  1  0  0  0  0
  9  7  1  0  0  0  0
 10  1  1  0  0  0  0
 12  3  1  0  0  0  0
 14  4  1  0  0  0  0
 16  5  1  0  0  0  0
 18  8  1  0  0  0  0
 19  8  1  0  0  0  0
M TOR 0 0 1 2 3
M TOR 1 0 1 2 11
M TOR 2 0 1 2 12
M TOR 3 0 1 5 4
M TOR 4 0 1 5 6
M TOR 5 1 2 3 4
M TOR 6 1 2 3 13
M TOR 7 1 2 3 14
M TOR 8 1 5 4 3
M TOR 9 1 5 4 15
M TOR 10 1 5 6 7
M TOR 11 1 5 6 8
M TOR 12 1 5 6 16
M TOR 13 2 1 0 9
M TOR 14 2 1 5 4
M TOR 15 2 1 5 6
M TOR 16 2 3 4 5
M TOR 17 2 3 4 15
M TOR 18 3 2 1 5
M TOR 19 3 2 1 10
M TOR 20 3 4 5 6
M TOR 21 4 3 2 11
M TOR 22 4 3 2 12
M TOR 23 4 5 1 10
M TOR 24 4 5 6 7
M TOR 25 4 5 6 8
M TOR 26 4 5 6 16
M TOR 27 5 1 0 9
M TOR 28 5 1 2 11
M TOR 29 5 1 2 12
M TOR 30 5 4 3 13
M TOR 31 5 4 3 14
M TOR 32 5 6 7 8
M TOR 33 5 6 7 17
M TOR 34 5 6 7 18
M TOR 35 6 5 1 10
M TOR 36 6 5 4 15
M TOR 37 6 8 7 17
M TOR 38 6 8 7 18
M TOR 39 7 8 6 16
M  END
$$$$
