
     RDKit          3D

 19 19  0  0  0  0  0  0  0  0999 V2000
    0.9399    1.2396   -0.2678 O   0  0  0  0  0  0  0  0  0  0  0  0
    0.2288    0.1619    0.3181 C   0  0  0  0  0  0  0  0  0  0  0  0
   -0.9730    0.6281    1.1180 C   0  0  0  0  0  0  0  0  0  0  0  0
   -1.8726   -0.3809    1.8581 C   0  0  0  0  0  0  0  0  0  0  0  0
   -3.0031   -0.7764    1.1230 O   0  0  0  0  0  0  0  0  0  0  0  0
   -2.0321    0.6485    3.0109 C   0  0  0  0  0  0  0  0  0  0  0  0
   -0.7250    1.3326    2.4974 C   0  0  0  0  0  0  0  0  0  0  0  0
   -0.5936    2.7731    2.5324 C   0  0  0  0  0  0  0  0  0  0  0  0
   -0.4786    3.9711    2.5337 C   0  0  0  0  0  0  0  0  0  0  0  0
    1.1039    1.8959    0.4184 H   0  0  0  0  0  0  0  0  0  0  0  0
   -0.0978   -0.4752   -0.5114 H   0  0  0  0  0  0  0  0  0  0  0  0
    0.8861   -0.4504    0.9604 H   0  0  0  0  0  0  0  0  0  0  0  0
   -1.6089    1.2675    0.4977 H   0  0  0  0  0  0  0  0  0  0  0  0
   -1.2873   -1.2509    2.1944 H   0  0  0  0  0  0  0  0  0  0  0  0
   -3.4738   -1.4523    1.6208 H   0  0  0  0  0  0  0  0  0  0  0  0
   -2.9010    1.2844    2.8271 H   0  0  0  0  0  0  0  0  0  0  0  0
   -2.0429    0.2920    4.0430 H   0  0  0  0  0  0  0  0  0  0  0  0
    0.1427    0.8711    2.9856 H   0  0  0  0  0  0  0  0  0  0  0  0
   -0.3852    5.0288    2.5417 H   0  0  0  0  0  0  0  0  0  0  0  0
  1  2  1  0
  2  3  1  0
  3  4  1  0
  4  5  1  0
  4  6  1  0
  6  7  1  0
  7  8  1  0
  8  9  3  0
  7  3  1  0
  1 10  1  0
  2 11  1  0
  2 12  1  0
  3 13  1  0
  4 14  1  0
  5 15  1  0
  6 16  1  0
  6 17  1  0
  7 18  1  0
  9 19  1  0
M  END
$$$$
