gdb 98	4.4585124	0.961355	0.9039394	2.0844	75.98	-0.2321	0.0742	0.3063	1335.3542	0.156232	-422.485263	-422.476867	-422.475923	-422.519334	31.046
 OpenBabel02181911403D

 19 21  0  0  1  0  0  0  0  0999 V2000
   -0.8077   -0.3274    1.1202 C   0  0  0  0  0  0  0  0  0  0  0  0
    0.5700    0.2709    0.9289 C   0  0  2  0  0  0  0  0  0  0  0  0
    0.8597    1.2297   -0.1426 C   0  0  0  0  0  0  0  0  0  0  0  0
    1.2806   -0.1321   -0.2451 O   0  0  0  0  0  0  0  0  0  0  0  0
   -0.7394   -1.7033    1.7095 C   0  0  2  0  0  0  0  0  0  0  0  0
   -0.4377   -2.9799    0.9896 C   0  0  0  0  0  0  0  0  0  0  0  0
   -1.6970   -2.8702    1.8312 C   0  0  1  0  0  0  0  0  0  0  0  0
   -1.3002   -2.8723    3.3016 C   0  0  0  0  0  0  0  0  0  0  0  0
   -0.3325   -1.8090    3.0854 O   0  0  0  0  0  0  0  0  0  0  0  0
   -1.3959    0.3210    1.7821 H   0  0  0  0  0  0  0  0  0  0  0  0
   -1.3145   -0.3712    0.1504 H   0  0  0  0  0  0  0  0  0  0  0  0
    1.1857    0.3061    1.8281 H   0  0  0  0  0  0  0  0  0  0  0  0
    0.0643    1.5257   -0.8264 H   0  0  0  0  0  0  0  0  0  0  0  0
    1.6576    1.9605   -0.0187 H   0  0  0  0  0  0  0  0  0  0  0  0
   -0.6036   -2.9607   -0.0827 H   0  0  0  0  0  0  0  0  0  0  0  0
    0.3935   -3.5990    1.3167 H   0  0  0  0  0  0  0  0  0  0  0  0
   -2.6937   -3.0147    1.4364 H   0  0  0  0  0  0  0  0  0  0  0  0
   -2.0951   -2.5355    3.9769 H   0  0  0  0  0  0  0  0  0  0  0  0
   -0.8359   -3.7815    3.7026 H   0  0  0  0  0  0  0  0  0  0  0  0
  1 10  1  0  0  0  0
  2  1  1  0  0  0  0
  2 12  1  1  0  0  0
  3 14  1  0  0  0  0
  3  2  1  0  0  0  0
  4  3  1  0  0  0  0
  4  2  1  0  0  0  0
  5  1  1  6  0  0  0
  5  7  1  0  0  0  0
  5  9  1  0  0  0  0
  6 16  1  0  0  0  0
  6  5  1  0  0  0  0
  6  7  1  0  0  0  0
  7 17  1  6  0  0  0
  7  8  1  0  0  0  0
  8 19  1  0  0  0  0
  8 18  1  0  0  0  0
  9  8  1  0  0  0  0
 11  1  1  0  0  0  0
 13  3  1  0  0  0  0
 15  6  1  0  0  0  0
M TOR 0 0 1 2 3
M TOR 1 0 1 2 12
M TOR 2 0 1 2 13
M TOR 3 0 4 5 6
M TOR 4 0 4 5 14
M TOR 5 0 4 5 15
M TOR 6 0 4 6 7
M TOR 7 0 4 6 16
M TOR 8 0 4 8 7
M TOR 9 1 0 4 5
M TOR 10 1 0 4 6
M TOR 11 1 0 4 8
M TOR 12 1 3 2 12
M TOR 13 1 3 2 13
M TOR 14 2 1 0 4
M TOR 15 2 1 0 9
M TOR 16 2 1 0 10
M TOR 17 2 3 1 11
M TOR 18 3 1 0 4
M TOR 19 3 1 0 9
M TOR 20 3 1 0 10
M TOR 21 4 0 1 11
M TOR 22 4 5 6 7
M TOR 23 4 5 6 16
M TOR 24 4 6 5 14
M TOR 25 4 6 5 15
M TOR 26 4 6 7 8
M TOR 27 4 6 7 17
M TOR 28 4 6 7 18
M TOR 29 4 8 7 17
M TOR 30 4 8 7 18
M TOR 31 5 4 0 9
M TOR 32 5 4 0 10
M TOR 33 5 4 8 7
M TOR 34 5 6 4 8
M TOR 35 5 6 7 8
M TOR 36 5 6 7 17
M TOR 37 5 6 7 18
M TOR 38 6 4 0 9
M TOR 39 6 4 0 10
M TOR 40 7 6 5 14
M TOR 41 7 6 5 15
M TOR 42 8 4 0 9
M TOR 43 8 4 0 10
M TOR 44 8 4 5 14
M TOR 45 8 4 5 15
M TOR 46 8 4 6 16
M TOR 47 8 7 6 16
M  END
$$$$
