
     RDKit          3D

 19 20  0  0  0  0  0  0  0  0999 V2000
    0.0325    0.8751   -0.7102 C   0  0  0  0  0  0  0  0  0  0  0  0
    0.0695    0.5334    0.6521 O   0  0  0  0  0  0  0  0  0  0  0  0
    1.4517    0.5340    0.9627 C   0  0  0  0  0  0  0  0  0  0  0  0
    2.0246    1.7052    0.1351 C   0  0  0  0  0  0  0  0  0  0  0  0
    3.4557    1.4855   -0.4132 C   0  0  0  0  0  0  0  0  0  0  0  0
    4.1737    2.8532   -0.3145 C   0  0  0  0  0  0  0  0  0  0  0  0
    3.2807    3.6455    0.6089 C   0  0  0  0  0  0  0  0  0  0  0  0
    2.1303    3.0257    0.8597 C   0  0  0  0  0  0  0  0  0  0  0  0
    1.0479    1.8299   -0.9282 O   0  0  0  0  0  0  0  0  0  0  0  0
    0.2072   -0.0176   -1.3401 H   0  0  0  0  0  0  0  0  0  0  0  0
   -0.9459    1.3089   -0.9407 H   0  0  0  0  0  0  0  0  0  0  0  0
    1.5692    0.6676    2.0400 H   0  0  0  0  0  0  0  0  0  0  0  0
    1.9236   -0.4163    0.6637 H   0  0  0  0  0  0  0  0  0  0  0  0
    3.9736    0.7485    0.2103 H   0  0  0  0  0  0  0  0  0  0  0  0
    3.4141    1.0872   -1.4290 H   0  0  0  0  0  0  0  0  0  0  0  0
    5.1956    2.7578    0.0698 H   0  0  0  0  0  0  0  0  0  0  0  0
    4.2587    3.3493   -1.2900 H   0  0  0  0  0  0  0  0  0  0  0  0
    3.5603    4.6220    0.9900 H   0  0  0  0  0  0  0  0  0  0  0  0
    1.3114    3.4052    1.4602 H   0  0  0  0  0  0  0  0  0  0  0  0
  1  2  1  0
  2  3  1  0
  3  4  1  0
  4  5  1  0
  5  6  1  0
  6  7  1  0
  7  8  2  0
  4  9  1  0
  9  1  1  0
  8  4  1  0
  1 10  1  0
  1 11  1  0
  3 12  1  0
  3 13  1  0
  5 14  1  0
  5 15  1  0
  6 16  1  0
  6 17  1  0
  7 18  1  0
  8 19  1  0
M  END
$$$$
