
     RDKit          3D

 19 20  0  0  0  0  0  0  0  0999 V2000
   -2.0600   -2.3758   -2.0045 O   0  0  0  0  0  0  0  0  0  0  0  0
   -1.9352   -1.2796   -1.1368 C   0  0  0  0  0  0  0  0  0  0  0  0
   -3.2040   -0.6984   -0.5584 C   0  0  0  0  0  0  0  0  0  0  0  0
   -2.4528    0.0170   -1.6731 C   0  0  0  0  0  0  0  0  0  0  0  0
   -1.6502    1.2803   -1.4200 C   0  0  0  0  0  0  0  0  0  0  0  0
   -1.0064    1.3128   -0.0269 C   0  0  0  0  0  0  0  0  0  0  0  0
   -0.3131    0.0224    0.4089 C   0  0  0  0  0  0  0  0  0  0  0  0
    0.4742    0.0160    1.3259 O   0  0  0  0  0  0  0  0  0  0  0  0
   -0.6381   -1.2641   -0.3505 C   0  0  0  0  0  0  0  0  0  0  0  0
   -2.1978   -3.1648   -1.4677 H   0  0  0  0  0  0  0  0  0  0  0  0
   -4.1288   -1.1904   -0.8372 H   0  0  0  0  0  0  0  0  0  0  0  0
   -3.1968   -0.2921    0.4477 H   0  0  0  0  0  0  0  0  0  0  0  0
   -2.9161   -0.0497   -2.6524 H   0  0  0  0  0  0  0  0  0  0  0  0
   -0.8688    1.3559   -2.1874 H   0  0  0  0  0  0  0  0  0  0  0  0
   -2.2858    2.1647   -1.5427 H   0  0  0  0  0  0  0  0  0  0  0  0
   -0.2799    2.1249    0.0654 H   0  0  0  0  0  0  0  0  0  0  0  0
   -1.7703    1.5148    0.7358 H   0  0  0  0  0  0  0  0  0  0  0  0
    0.1846   -1.4159   -1.0644 H   0  0  0  0  0  0  0  0  0  0  0  0
   -0.5782   -2.0940    0.3633 H   0  0  0  0  0  0  0  0  0  0  0  0
  1  2  1  0
  2  3  1  0
  3  4  1  0
  4  5  1  0
  5  6  1  0
  6  7  1  0
  7  8  2  0
  7  9  1  0
  4  2  1  0
  9  2  1  0
  1 10  1  0
  3 11  1  0
  3 12  1  0
  4 13  1  0
  5 14  1  0
  5 15  1  0
  6 16  1  0
  6 17  1  0
  9 18  1  0
  9 19  1  0
M  END
$$$$
