
     RDKit          3D

 19 20  0  0  0  0  0  0  0  0999 V2000
   -2.3627    5.4076   -2.1887 C   0  0  0  0  0  0  0  0  0  0  0  0
   -1.9667    4.3024   -1.2341 C   0  0  0  0  0  0  0  0  0  0  0  0
   -0.5215    3.9158   -1.1665 C   0  0  0  0  0  0  0  0  0  0  0  0
   -0.2808    2.9934   -0.0999 O   0  0  0  0  0  0  0  0  0  0  0  0
   -1.1461    2.0072   -0.7435 C   0  0  0  0  0  0  0  0  0  0  0  0
   -0.3420    0.7886   -1.1890 C   0  0  0  0  0  0  0  0  0  0  0  0
    0.2870    0.0617   -0.0180 C   0  0  0  0  0  0  0  0  0  0  0  0
    0.1940   -1.1239    0.1755 O   0  0  0  0  0  0  0  0  0  0  0  0
   -1.5061    2.9938   -1.8515 C   0  0  0  0  0  0  0  0  0  0  0  0
   -1.7158    5.4185   -3.0728 H   0  0  0  0  0  0  0  0  0  0  0  0
   -3.3933    5.2809   -2.5363 H   0  0  0  0  0  0  0  0  0  0  0  0
   -2.2863    6.3883   -1.7082 H   0  0  0  0  0  0  0  0  0  0  0  0
   -2.5288    4.2577   -0.3026 H   0  0  0  0  0  0  0  0  0  0  0  0
    0.3102    4.5134   -1.5231 H   0  0  0  0  0  0  0  0  0  0  0  0
   -1.9651    1.7104   -0.0754 H   0  0  0  0  0  0  0  0  0  0  0  0
   -0.9733    0.0876   -1.7444 H   0  0  0  0  0  0  0  0  0  0  0  0
    0.4653    1.1343   -1.8490 H   0  0  0  0  0  0  0  0  0  0  0  0
    0.8612    0.7175    0.6707 H   0  0  0  0  0  0  0  0  0  0  0  0
   -1.6440    2.7475   -2.8965 H   0  0  0  0  0  0  0  0  0  0  0  0
  1  2  1  0
  2  3  1  0
  3  4  1  0
  4  5  1  0
  5  6  1  0
  6  7  1  0
  7  8  2  0
  5  9  1  0
  9  2  1  0
  9  3  1  0
  1 10  1  0
  1 11  1  0
  1 12  1  0
  2 13  1  0
  3 14  1  0
  5 15  1  0
  6 16  1  0
  6 17  1  0
  7 18  1  0
  9 19  1  0
M  END
$$$$
