
     RDKit          3D

 19 20  0  0  0  0  0  0  0  0999 V2000
    1.4159   -0.0266   -0.1115 C   0  0  0  0  0  0  0  0  0  0  0  0
    0.0107    0.0322   -0.0331 O   0  0  0  0  0  0  0  0  0  0  0  0
   -0.4447    0.6593    1.1469 C   0  0  0  0  0  0  0  0  0  0  0  0
   -1.9639    0.6619    1.1304 C   0  0  0  0  0  0  0  0  0  0  0  0
   -2.6444   -0.6992    1.3592 C   0  0  0  0  0  0  0  0  0  0  0  0
   -4.1104   -0.5084    1.4620 C   0  0  0  0  0  0  0  0  0  0  0  0
   -3.2684   -0.2091    2.6995 C   0  0  0  0  0  0  0  0  0  0  0  0
   -2.5405    1.0830    2.5158 C   0  0  0  0  0  0  0  0  0  0  0  0
   -2.2836    2.0034    3.2414 O   0  0  0  0  0  0  0  0  0  0  0  0
    1.8484   -0.5994    0.7242 H   0  0  0  0  0  0  0  0  0  0  0  0
    1.6703   -0.5245   -1.0503 H   0  0  0  0  0  0  0  0  0  0  0  0
    1.8678    0.9777   -0.1071 H   0  0  0  0  0  0  0  0  0  0  0  0
   -0.0705    0.1238    2.0369 H   0  0  0  0  0  0  0  0  0  0  0  0
   -0.0751    1.6948    1.2137 H   0  0  0  0  0  0  0  0  0  0  0  0
   -2.3220    1.2136    0.2550 H   0  0  0  0  0  0  0  0  0  0  0  0
   -2.1739   -1.6558    1.1784 H   0  0  0  0  0  0  0  0  0  0  0  0
   -4.5988    0.3015    0.9266 H   0  0  0  0  0  0  0  0  0  0  0  0
   -4.7153   -1.4041    1.5593 H   0  0  0  0  0  0  0  0  0  0  0  0
   -3.4424   -0.7254    3.6353 H   0  0  0  0  0  0  0  0  0  0  0  0
  1  2  1  0
  2  3  1  0
  3  4  1  0
  4  5  1  0
  5  6  1  0
  6  7  1  0
  7  8  1  0
  8  9  2  0
  8  4  1  0
  7  5  1  0
  1 10  1  0
  1 11  1  0
  1 12  1  0
  3 13  1  0
  3 14  1  0
  4 15  1  0
  5 16  1  0
  6 17  1  0
  6 18  1  0
  7 19  1  0
M  END
$$$$
