
     RDKit          3D

 19 20  0  0  0  0  0  0  0  0999 V2000
    2.1176   -1.1854    1.2305 C   0  0  0  0  0  0  0  0  0  0  0  0
    1.8797   -0.2323    0.0509 C   0  0  0  0  0  0  0  0  0  0  0  0
    2.1328   -0.8979   -1.2908 C   0  0  0  0  0  0  0  0  0  0  0  0
    1.4816   -0.2148   -2.5148 C   0  0  0  0  0  0  0  0  0  0  0  0
    1.8990   -0.9131   -3.7623 C   0  0  0  0  0  0  0  0  0  0  0  0
    2.2518   -0.5388   -4.8464 O   0  0  0  0  0  0  0  0  0  0  0  0
    1.4966   -2.3151   -3.2242 C   0  0  0  0  0  0  0  0  0  0  0  0
    1.0209   -1.6173   -1.9516 C   0  0  0  0  0  0  0  0  0  0  0  0
   -0.1607   -2.0139   -1.3727 O   0  0  0  0  0  0  0  0  0  0  0  0
    1.4618   -2.0614    1.1791 H   0  0  0  0  0  0  0  0  0  0  0  0
    3.1491   -1.5523    1.2333 H   0  0  0  0  0  0  0  0  0  0  0  0
    1.9382   -0.6835    2.1858 H   0  0  0  0  0  0  0  0  0  0  0  0
    0.8560    0.1658    0.0869 H   0  0  0  0  0  0  0  0  0  0  0  0
    2.5337    0.6423    0.1452 H   0  0  0  0  0  0  0  0  0  0  0  0
    3.1476   -1.2845   -1.3951 H   0  0  0  0  0  0  0  0  0  0  0  0
    1.0809    0.7884   -2.4253 H   0  0  0  0  0  0  0  0  0  0  0  0
    0.6654   -2.7103   -3.8155 H   0  0  0  0  0  0  0  0  0  0  0  0
    2.2713   -3.0811   -3.1218 H   0  0  0  0  0  0  0  0  0  0  0  0
   -0.2392   -1.6205   -0.4973 H   0  0  0  0  0  0  0  0  0  0  0  0
  1  2  1  0
  2  3  1  0
  3  4  1  0
  4  5  1  0
  5  6  2  0
  5  7  1  0
  7  8  1  0
  8  9  1  0
  8  3  1  0
  8  4  1  0
  1 10  1  0
  1 11  1  0
  1 12  1  0
  2 13  1  0
  2 14  1  0
  3 15  1  0
  4 16  1  0
  7 17  1  0
  7 18  1  0
  9 19  1  0
M  END
$$$$
