gdb 5581	4.2819418	1.0687099	0.9505886	1.9677	75.07	-0.24527	0.09322	0.33848999999999996	1263.4046	0.15726	-422.519208	-422.511151	-422.510207	-422.551916	30.549
 OpenBabel02181911423D

 19 21  0  0  1  0  0  0  0  0999 V2000
    1.4886   -0.0773   -0.0860 C   0  0  0  0  0  0  0  0  0  0  0  0
    0.0920   -0.1580    0.1209 O   0  0  0  0  0  0  0  0  0  0  0  0
   -0.3360    0.5678    1.2254 C   0  0  2  0  0  0  0  0  0  0  0  0
   -1.7556    1.0427    1.1870 C   0  0  1  0  0  0  0  0  0  0  0  0
   -2.4643    1.2501    2.5265 C   0  0  0  0  0  0  0  0  0  0  0  0
   -1.6974    2.3943    3.1837 C   0  0  2  0  0  0  0  0  0  0  0  0
   -1.8148    3.6368    2.4840 O   0  0  0  0  0  0  0  0  0  0  0  0
   -0.6153    2.8662    2.3038 C   0  0  2  0  0  0  0  0  0  0  0  0
   -0.6158    2.0470    1.0506 C   0  0  1  0  0  0  0  0  0  0  0  0
    2.0483   -0.4793    0.7721 H   0  0  0  0  0  0  0  0  0  0  0  0
    1.7180   -0.6767   -0.9699 H   0  0  0  0  0  0  0  0  0  0  0  0
    1.8147    0.9586   -0.2571 H   0  0  0  0  0  0  0  0  0  0  0  0
    0.0806    0.2313    2.1788 H   0  0  0  0  0  0  0  0  0  0  0  0
   -2.3296    0.7674    0.3108 H   0  0  0  0  0  0  0  0  0  0  0  0
   -3.5144    1.5274    2.3874 H   0  0  0  0  0  0  0  0  0  0  0  0
   -2.4402    0.3520    3.1552 H   0  0  0  0  0  0  0  0  0  0  0  0
   -1.6484    2.4752    4.2669 H   0  0  0  0  0  0  0  0  0  0  0  0
    0.2934    3.3290    2.6827 H   0  0  0  0  0  0  0  0  0  0  0  0
   -0.3885    2.5043    0.0940 H   0  0  0  0  0  0  0  0  0  0  0  0
  1  2  1  0  0  0  0
  1 10  1  0  0  0  0
  2  3  1  0  0  0  0
  3 13  1  1  0  0  0
  4 14  1  6  0  0  0
  4  3  1  0  0  0  0
  4  5  1  0  0  0  0
  5 16  1  0  0  0  0
  5  6  1  0  0  0  0
  6 17  1  1  0  0  0
  7  6  1  0  0  0  0
  8  7  1  0  0  0  0
  8 18  1  1  0  0  0
  8  6  1  0  0  0  0
  9 19  1  6  0  0  0
  9  4  1  0  0  0  0
  9  3  1  0  0  0  0
  9  8  1  0  0  0  0
 11  1  1  0  0  0  0
 12  1  1  0  0  0  0
 15  5  1  0  0  0  0
M TOR 0 0 1 2 3
M TOR 1 0 1 2 8
M TOR 2 0 1 2 12
M TOR 3 1 2 3 4
M TOR 4 1 2 3 8
M TOR 5 1 2 3 13
M TOR 6 1 2 8 7
M TOR 7 1 2 8 18
M TOR 8 2 1 0 9
M TOR 9 2 1 0 10
M TOR 10 2 1 0 11
M TOR 11 2 3 4 5
M TOR 12 2 3 4 14
M TOR 13 2 3 4 15
M TOR 14 2 3 8 7
M TOR 15 2 3 8 18
M TOR 16 2 8 3 4
M TOR 17 2 8 3 13
M TOR 18 2 8 7 5
M TOR 19 2 8 7 6
M TOR 20 2 8 7 17
M TOR 21 3 4 5 6
M TOR 22 3 4 5 7
M TOR 23 3 4 5 16
M TOR 24 3 8 2 12
M TOR 25 3 8 7 5
M TOR 26 3 8 7 6
M TOR 27 3 8 7 17
M TOR 28 4 3 2 12
M TOR 29 4 3 8 7
M TOR 30 4 3 8 18
M TOR 31 4 5 6 7
M TOR 32 4 5 7 8
M TOR 33 4 5 7 17
M TOR 34 5 4 3 8
M TOR 35 5 4 3 13
M TOR 36 5 6 7 8
M TOR 37 5 6 7 17
M TOR 38 5 7 8 18
M TOR 39 6 5 4 14
M TOR 40 6 5 4 15
M TOR 41 6 7 5 16
M TOR 42 6 7 8 18
M TOR 43 7 5 4 14
M TOR 44 7 5 4 15
M TOR 45 7 8 2 12
M TOR 46 7 8 3 13
M TOR 47 8 3 4 14
M TOR 48 8 3 4 15
M TOR 49 8 7 5 16
M  END
$$$$
