gdb 4517	2.7761739	1.796019	1.4213788	2.4209	74.23	-0.22745	0.07739	0.30484	978.0549	0.15829	-422.515333	-422.507954	-422.50701	-422.546902	29.433
 OpenBabel02181911413D

 19 21  0  0  1  0  0  0  0  0999 V2000
    4.3705    2.0163   -0.3342 C   0  0  0  0  0  0  0  0  0  0  0  0
    3.5190    0.7782   -0.0809 C   0  0  2  0  0  0  0  0  0  0  0  0
    2.6412    0.6656   -1.1967 O   0  0  0  0  0  0  0  0  0  0  0  0
    1.5429   -0.2095   -1.0566 C   0  0  0  0  0  0  0  0  0  0  0  0
    0.7593    0.0816    0.2168 C   0  0  2  0  0  0  0  0  0  0  0  0
    0.6096    1.5207    0.4075 O   0  0  0  0  0  0  0  0  0  0  0  0
    1.4610    1.4555    1.5499 C   0  0  1  0  0  0  0  0  0  0  0  0
    1.5885   -0.0446    1.5039 C   0  0  2  0  0  0  0  0  0  0  0  0
    2.8024    0.8198    1.2623 C   0  0  1  0  0  0  0  0  0  0  0  0
    5.1369    2.1227    0.4398 H   0  0  0  0  0  0  0  0  0  0  0  0
    4.8655    1.9397   -1.3060 H   0  0  0  0  0  0  0  0  0  0  0  0
    3.7420    2.9112   -0.3342 H   0  0  0  0  0  0  0  0  0  0  0  0
    4.1751   -0.1121   -0.0561 H   0  0  0  0  0  0  0  0  0  0  0  0
    0.9242   -0.0436   -1.9442 H   0  0  0  0  0  0  0  0  0  0  0  0
    1.8533   -1.2697   -1.0472 H   0  0  0  0  0  0  0  0  0  0  0  0
   -0.2119   -0.4217    0.2326 H   0  0  0  0  0  0  0  0  0  0  0  0
    1.2680    2.1479    2.3611 H   0  0  0  0  0  0  0  0  0  0  0  0
    1.4946   -0.8077    2.2646 H   0  0  0  0  0  0  0  0  0  0  0  0
    3.4812    0.8668    2.1115 H   0  0  0  0  0  0  0  0  0  0  0  0
  1 12  1  0  0  0  0
  1  2  1  0  0  0  0
  1 10  1  0  0  0  0
  2 13  1  6  0  0  0
  2  9  1  0  0  0  0
  3  4  1  0  0  0  0
  3  2  1  0  0  0  0
  4 15  1  0  0  0  0
  4  5  1  0  0  0  0
  5 16  1  1  0  0  0
  5  6  1  0  0  0  0
  5  8  1  0  0  0  0
  6  7  1  0  0  0  0
  7 17  1  1  0  0  0
  8  7  1  0  0  0  0
  8 18  1  1  0  0  0
  9  8  1  0  0  0  0
  9  7  1  0  0  0  0
  9 19  1  1  0  0  0
 11  1  1  0  0  0  0
 14  4  1  0  0  0  0
M TOR 0 0 1 2 3
M TOR 1 0 1 8 6
M TOR 2 0 1 8 7
M TOR 3 0 1 8 18
M TOR 4 1 2 3 4
M TOR 5 1 2 3 13
M TOR 6 1 2 3 14
M TOR 7 1 8 6 5
M TOR 8 1 8 6 7
M TOR 9 1 8 6 16
M TOR 10 1 8 7 4
M TOR 11 1 8 7 17
M TOR 12 2 1 0 9
M TOR 13 2 1 0 10
M TOR 14 2 1 0 11
M TOR 15 2 1 8 6
M TOR 16 2 1 8 7
M TOR 17 2 1 8 18
M TOR 18 2 3 4 5
M TOR 19 2 3 4 7
M TOR 20 2 3 4 15
M TOR 21 3 2 1 8
M TOR 22 3 2 1 12
M TOR 23 3 4 5 6
M TOR 24 3 4 7 6
M TOR 25 3 4 7 8
M TOR 26 3 4 7 17
M TOR 27 4 5 6 7
M TOR 28 4 5 6 8
M TOR 29 4 5 6 16
M TOR 30 4 7 6 8
M TOR 31 4 7 6 16
M TOR 32 4 7 8 18
M TOR 33 5 4 3 13
M TOR 34 5 4 3 14
M TOR 35 5 4 7 8
M TOR 36 5 4 7 17
M TOR 37 5 6 7 8
M TOR 38 5 6 7 17
M TOR 39 5 6 8 18
M TOR 40 6 5 4 15
M TOR 41 6 7 4 15
M TOR 42 6 7 8 18
M TOR 43 6 8 1 12
M TOR 44 6 8 7 17
M TOR 45 7 4 3 13
M TOR 46 7 4 3 14
M TOR 47 7 8 1 12
M TOR 48 7 8 6 16
M TOR 49 8 1 0 9
M TOR 50 8 1 0 10
M TOR 51 8 1 0 11
M TOR 52 8 7 4 15
M  END
$$$$
