gdb 1355	4.8568782	0.7569898	0.6898589	0.8063	78.95	-0.26319	0.04068	0.30387	1634.7134	0.153344	-422.509555	-422.499346	-422.498402	-422.54516	36.568
 OpenBabel02181911403D

 19 19  0  0  1  0  0  0  0  0999 V2000
   -2.2768    4.5446    2.5027 C   0  0  0  0  0  0  0  0  0  0  0  0
   -2.4806    3.2004    1.8563 C   0  0  2  0  0  0  0  0  0  0  0  0
   -1.9055    2.0674    2.5281 O   0  0  0  0  0  0  0  0  0  0  0  0
   -1.3838    2.4387    1.2497 C   0  0  1  0  0  0  0  0  0  0  0  0
   -1.6079    1.4360    0.1414 C   0  0  1  0  0  0  0  0  0  0  0  0
   -1.2381    2.0723   -1.0656 O   0  0  0  0  0  0  0  0  0  0  0  0
   -0.7719    0.1572    0.3927 C   0  0  0  0  0  0  0  0  0  0  0  0
   -0.8900   -0.7719   -0.7234 C   0  0  0  0  0  0  0  0  0  0  0  0
   -1.0187   -1.4747   -1.6915 C   0  0  0  0  0  0  0  0  0  0  0  0
   -2.9384    4.6611    3.3673 H   0  0  0  0  0  0  0  0  0  0  0  0
   -1.2443    4.6595    2.8432 H   0  0  0  0  0  0  0  0  0  0  0  0
   -2.5038    5.3473    1.7932 H   0  0  0  0  0  0  0  0  0  0  0  0
   -3.4843    3.0104    1.4718 H   0  0  0  0  0  0  0  0  0  0  0  0
   -0.3805    2.8689    1.2685 H   0  0  0  0  0  0  0  0  0  0  0  0
   -2.6708    1.1483    0.1328 H   0  0  0  0  0  0  0  0  0  0  0  0
   -1.2280    1.3946   -1.7531 H   0  0  0  0  0  0  0  0  0  0  0  0
    0.2795    0.4403    0.5289 H   0  0  0  0  0  0  0  0  0  0  0  0
   -1.1093   -0.3069    1.3260 H   0  0  0  0  0  0  0  0  0  0  0  0
   -1.1176   -2.1289   -2.5223 H   0  0  0  0  0  0  0  0  0  0  0  0
  1 11  1  0  0  0  0
  1 10  1  0  0  0  0
  2 13  1  6  0  0  0
  2  1  1  0  0  0  0
  2  3  1  0  0  0  0
  4 14  1  1  0  0  0
  4  2  1  0  0  0  0
  4  3  1  0  0  0  0
  5 15  1  6  0  0  0
  5  7  1  0  0  0  0
  5  4  1  0  0  0  0
  6  5  1  0  0  0  0
  7 17  1  0  0  0  0
  7 18  1  0  0  0  0
  8  7  1  0  0  0  0
  9  8  3  0  0  0  0
 12  1  1  0  0  0  0
 16  6  1  0  0  0  0
 19  9  1  0  0  0  0
M TOR 0 0 1 2 3
M TOR 1 0 1 3 4
M TOR 2 0 1 3 13
M TOR 3 1 2 3 4
M TOR 4 1 2 3 13
M TOR 5 1 3 4 5
M TOR 6 1 3 4 6
M TOR 7 1 3 4 14
M TOR 8 2 1 0 9
M TOR 9 2 1 0 10
M TOR 10 2 1 0 11
M TOR 11 2 3 1 12
M TOR 12 2 3 4 5
M TOR 13 2 3 4 6
M TOR 14 2 3 4 14
M TOR 15 3 1 0 9
M TOR 16 3 1 0 10
M TOR 17 3 1 0 11
M TOR 18 3 4 5 15
M TOR 19 3 4 6 7
M TOR 20 3 4 6 16
M TOR 21 3 4 6 17
M TOR 22 4 3 1 12
M TOR 23 4 6 7 8
M TOR 24 5 4 3 13
M TOR 25 5 4 6 7
M TOR 26 5 4 6 16
M TOR 27 5 4 6 17
M TOR 28 6 4 3 13
M TOR 29 6 4 5 15
M TOR 30 6 7 8 18
M TOR 31 7 6 4 14
M TOR 32 8 7 6 16
M TOR 33 8 7 6 17
M  END
$$$$
