gdb 1757	2.2070191	1.9566974	1.6922753	2.307	73.1	-0.23019	0.07408	0.30427	934.4466	0.159394	-422.55693	-422.549635	-422.548691	-422.588193	29.63
 OpenBabel02181911403D

 19 21  0  0  1  0  0  0  0  0999 V2000
    0.6100    0.0400    0.4114 O   0  0  0  0  0  0  0  0  0  0  0  0
   -0.7176    0.3501    0.6701 C   0  0  1  0  0  0  0  0  0  0  0  0
   -1.4386    0.1701    1.9952 C   0  0  1  0  0  0  0  0  0  0  0  0
   -2.3516    1.3635    2.2596 C   0  0  0  0  0  0  0  0  0  0  0  0
   -2.0174    2.3724    1.1295 C   0  0  0  0  0  0  0  0  0  0  0  0
   -1.4595    1.5205   -0.0313 C   0  0  2  0  0  0  0  0  0  0  0  0
   -2.5566    0.7636   -0.8005 C   0  0  0  0  0  0  0  0  0  0  0  0
   -2.9072   -0.3592    0.0233 O   0  0  0  0  0  0  0  0  0  0  0  0
   -1.7676   -0.6943    0.7721 C   0  0  1  0  0  0  0  0  0  0  0  0
    1.1646    0.6520    0.9079 H   0  0  0  0  0  0  0  0  0  0  0  0
   -0.9476   -0.3425    2.8160 H   0  0  0  0  0  0  0  0  0  0  0  0
   -3.4025    1.0604    2.2152 H   0  0  0  0  0  0  0  0  0  0  0  0
   -2.1748    1.7909    3.2503 H   0  0  0  0  0  0  0  0  0  0  0  0
   -2.8770    2.9817    0.8331 H   0  0  0  0  0  0  0  0  0  0  0  0
   -1.2358    3.0602    1.4726 H   0  0  0  0  0  0  0  0  0  0  0  0
   -0.8042    2.0792   -0.7027 H   0  0  0  0  0  0  0  0  0  0  0  0
   -3.4657    1.3476   -0.9722 H   0  0  0  0  0  0  0  0  0  0  0  0
   -2.1744    0.4100   -1.7697 H   0  0  0  0  0  0  0  0  0  0  0  0
   -1.5333   -1.7530    0.7993 H   0  0  0  0  0  0  0  0  0  0  0  0
  1 10  1  0  0  0  0
  2  1  1  6  0  0  0
  2  9  1  0  0  0  0
  2  3  1  0  0  0  0
  3  4  1  0  0  0  0
  3 11  1  1  0  0  0
  4 13  1  0  0  0  0
  5 15  1  0  0  0  0
  5  4  1  0  0  0  0
  6 16  1  6  0  0  0
  6  2  1  0  0  0  0
  6  5  1  0  0  0  0
  7  6  1  0  0  0  0
  7  8  1  0  0  0  0
  8  9  1  0  0  0  0
  9 19  1  1  0  0  0
  9  3  1  0  0  0  0
 12  4  1  0  0  0  0
 14  5  1  0  0  0  0
 17  7  1  0  0  0  0
 18  7  1  0  0  0  0
M TOR 0 0 1 2 3
M TOR 1 0 1 2 8
M TOR 2 0 1 2 10
M TOR 3 0 1 5 4
M TOR 4 0 1 5 6
M TOR 5 0 1 5 15
M TOR 6 0 1 8 7
M TOR 7 0 1 8 18
M TOR 8 1 2 3 4
M TOR 9 1 2 3 11
M TOR 10 1 2 3 12
M TOR 11 1 2 8 7
M TOR 12 1 2 8 18
M TOR 13 1 5 4 3
M TOR 14 1 5 4 13
M TOR 15 1 5 4 14
M TOR 16 1 5 6 7
M TOR 17 1 5 6 16
M TOR 18 1 5 6 17
M TOR 19 1 8 2 3
M TOR 20 1 8 2 10
M TOR 21 1 8 7 6
M TOR 22 2 1 0 9
M TOR 23 2 1 5 4
M TOR 24 2 1 5 6
M TOR 25 2 1 5 15
M TOR 26 2 3 4 5
M TOR 27 2 3 4 13
M TOR 28 2 3 4 14
M TOR 29 2 8 1 5
M TOR 30 2 8 7 6
M TOR 31 3 2 1 5
M TOR 32 3 2 8 7
M TOR 33 3 2 8 18
M TOR 34 3 4 5 6
M TOR 35 3 4 5 15
M TOR 36 4 3 2 8
M TOR 37 4 3 2 10
M TOR 38 4 5 1 8
M TOR 39 4 5 6 7
M TOR 40 4 5 6 16
M TOR 41 4 5 6 17
M TOR 42 5 1 0 9
M TOR 43 5 1 2 10
M TOR 44 5 1 8 7
M TOR 45 5 1 8 18
M TOR 46 5 4 3 11
M TOR 47 5 4 3 12
M TOR 48 5 6 7 8
M TOR 49 6 5 1 8
M TOR 50 6 5 4 13
M TOR 51 6 5 4 14
M TOR 52 6 7 8 18
M TOR 53 7 6 5 15
M TOR 54 7 8 2 10
M TOR 55 8 1 0 9
M TOR 56 8 1 5 15
M TOR 57 8 2 3 11
M TOR 58 8 2 3 12
M TOR 59 8 7 6 16
M TOR 60 8 7 6 17
M  END
$$$$
