
     RDKit          3D

 19 21  0  0  0  0  0  0  0  0999 V2000
   -0.1089    0.0025    0.2022 C   0  0  0  0  0  0  0  0  0  0  0  0
    1.4068    0.0465    0.0932 C   0  0  0  0  0  0  0  0  0  0  0  0
    2.0343   -0.8387   -1.0182 C   0  0  0  0  0  0  0  0  0  0  0  0
    2.7676   -1.6335   -0.0620 O   0  0  0  0  0  0  0  0  0  0  0  0
    2.2296   -0.8792    1.0425 C   0  0  0  0  0  0  0  0  0  0  0  0
    3.2612   -0.0064    1.7159 C   0  0  0  0  0  0  0  0  0  0  0  0
    2.6327    0.9925    2.5275 O   0  0  0  0  0  0  0  0  0  0  0  0
    3.1180    1.3719    1.2288 C   0  0  0  0  0  0  0  0  0  0  0  0
    2.0084    1.4742    0.1977 C   0  0  0  0  0  0  0  0  0  0  0  0
   -0.4392    0.4522    1.1444 H   0  0  0  0  0  0  0  0  0  0  0  0
   -0.5797    0.5577   -0.6174 H   0  0  0  0  0  0  0  0  0  0  0  0
   -0.4816   -1.0264    0.1668 H   0  0  0  0  0  0  0  0  0  0  0  0
    1.3178   -1.4473   -1.5846 H   0  0  0  0  0  0  0  0  0  0  0  0
    2.7013   -0.3260   -1.7230 H   0  0  0  0  0  0  0  0  0  0  0  0
    1.6778   -1.5138    1.7461 H   0  0  0  0  0  0  0  0  0  0  0  0
    4.1931   -0.4248    2.0886 H   0  0  0  0  0  0  0  0  0  0  0  0
    3.9397    2.0839    1.2370 H   0  0  0  0  0  0  0  0  0  0  0  0
    1.2602    2.2067    0.5192 H   0  0  0  0  0  0  0  0  0  0  0  0
    2.4049    1.8162   -0.7648 H   0  0  0  0  0  0  0  0  0  0  0  0
  1  2  1  0
  2  3  1  0
  3  4  1  0
  4  5  1  0
  5  6  1  0
  6  7  1  0
  7  8  1  0
  8  9  1  0
  5  2  1  0
  8  6  1  0
  9  2  1  0
  1 10  1  0
  1 11  1  0
  1 12  1  0
  3 13  1  0
  3 14  1  0
  5 15  1  0
  6 16  1  0
  8 17  1  0
  9 18  1  0
  9 19  1  0
M  END
$$$$
