gdb 1521	2.5943093	1.4357838	1.1313363	4.2958	76.29	-0.26639	0.00895	0.27534000000000003	1141.663	0.155786	-422.575408	-422.566386	-422.565442	-422.6088	33.493
 OpenBabel02181911403D

 19 20  0  0  1  0  0  0  0  0999 V2000
    0.2229    2.8361   -1.1825 C   0  0  0  0  0  0  0  0  0  0  0  0
   -1.0559    2.3784   -0.5056 C   0  0  0  0  0  0  0  0  0  0  0  0
   -2.3363    2.7587   -1.2246 C   0  0  0  0  0  0  0  0  0  0  0  0
   -1.0865    2.3128    0.9971 C   0  0  0  0  0  0  0  0  0  0  0  0
   -1.0359    1.0343    0.1975 C   0  0  1  0  0  0  0  0  0  0  0  0
   -1.9834   -0.1562    0.1353 C   0  0  0  0  0  0  0  0  0  0  0  0
   -0.8211   -1.0516    0.1313 O   0  0  0  0  0  0  0  0  0  0  0  0
    0.0581    0.0096    0.2015 C   0  0  0  0  0  0  0  0  0  0  0  0
    1.2476   -0.0292    0.2444 O   0  0  0  0  0  0  0  0  0  0  0  0
    1.1075    2.4651   -0.6600 H   0  0  0  0  0  0  0  0  0  0  0  0
    0.2692    2.4724   -2.2149 H   0  0  0  0  0  0  0  0  0  0  0  0
    0.2671    3.9307   -1.2118 H   0  0  0  0  0  0  0  0  0  0  0  0
   -3.2248    2.4049   -0.6925 H   0  0  0  0  0  0  0  0  0  0  0  0
   -2.4139    3.8480   -1.3142 H   0  0  0  0  0  0  0  0  0  0  0  0
   -2.3596    2.3408   -2.2372 H   0  0  0  0  0  0  0  0  0  0  0  0
   -0.1895    2.5756    1.5487 H   0  0  0  0  0  0  0  0  0  0  0  0
   -2.0182    2.5374    1.5071 H   0  0  0  0  0  0  0  0  0  0  0  0
   -2.6054   -0.3371    1.0153 H   0  0  0  0  0  0  0  0  0  0  0  0
   -2.5653   -0.2768   -0.7815 H   0  0  0  0  0  0  0  0  0  0  0  0
  1 10  1  0  0  0  0
  1  2  1  0  0  0  0
  2  5  1  0  0  0  0
  2  4  1  0  0  0  0
  3 13  1  0  0  0  0
  3  2  1  0  0  0  0
  4 17  1  0  0  0  0
  4 16  1  0  0  0  0
  5  8  1  1  0  0  0
  5  4  1  0  0  0  0
  6  5  1  0  0  0  0
  6 18  1  0  0  0  0
  7  6  1  0  0  0  0
  7  8  1  0  0  0  0
  8  9  2  0  0  0  0
 11  1  1  0  0  0  0
 12  1  1  0  0  0  0
 14  3  1  0  0  0  0
 15  3  1  0  0  0  0
 19  6  1  0  0  0  0
M TOR 0 0 1 2 12
M TOR 1 0 1 2 13
M TOR 2 0 1 2 14
M TOR 3 0 1 3 4
M TOR 4 0 1 3 15
M TOR 5 0 1 3 16
M TOR 6 0 1 4 5
M TOR 7 0 1 4 7
M TOR 8 1 3 4 5
M TOR 9 1 3 4 7
M TOR 10 1 4 3 15
M TOR 11 1 4 3 16
M TOR 12 1 4 5 6
M TOR 13 1 4 5 17
M TOR 14 1 4 5 18
M TOR 15 1 4 7 6
M TOR 16 1 4 7 8
M TOR 17 2 1 0 9
M TOR 18 2 1 0 10
M TOR 19 2 1 0 11
M TOR 20 2 1 3 4
M TOR 21 2 1 3 15
M TOR 22 2 1 3 16
M TOR 23 2 1 4 5
M TOR 24 2 1 4 7
M TOR 25 3 1 0 9
M TOR 26 3 1 0 10
M TOR 27 3 1 0 11
M TOR 28 3 1 2 12
M TOR 29 3 1 2 13
M TOR 30 3 1 2 14
M TOR 31 3 4 5 6
M TOR 32 3 4 5 17
M TOR 33 3 4 5 18
M TOR 34 3 4 7 6
M TOR 35 3 4 7 8
M TOR 36 4 1 0 9
M TOR 37 4 1 0 10
M TOR 38 4 1 0 11
M TOR 39 4 1 2 12
M TOR 40 4 1 2 13
M TOR 41 4 1 2 14
M TOR 42 4 5 6 7
M TOR 43 5 4 3 15
M TOR 44 5 4 3 16
M TOR 45 5 4 7 8
M TOR 46 5 6 7 8
M TOR 47 7 4 3 15
M TOR 48 7 4 3 16
M TOR 49 7 4 5 17
M TOR 50 7 4 5 18
M TOR 51 7 6 5 17
M TOR 52 7 6 5 18
M  END
$$$$
