gdb 1554	2.7433305	1.6266242	1.3569692	2.6372	75.09	-0.22579	-0.01656	0.20923	1020.3686	0.155773	-422.557082	-422.548679	-422.547735	-422.589481	32.667
 OpenBabel02181911403D

 19 20  0  0  1  0  0  0  0  0999 V2000
   -0.1807    0.7738   -2.5147 C   0  0  0  0  0  0  0  0  0  0  0  0
   -1.2567    0.5904   -1.4435 C   0  0  0  0  0  0  0  0  0  0  0  0
   -2.5622    1.2520   -1.8762 C   0  0  0  0  0  0  0  0  0  0  0  0
   -1.4916   -0.8515   -1.2450 O   0  0  0  0  0  0  0  0  0  0  0  0
   -1.0857   -1.0760    0.1097 C   0  0  2  0  0  0  0  0  0  0  0  0
   -1.7310    0.1098    0.8807 C   0  0  0  0  0  0  0  0  0  0  0  0
   -0.7680    0.9633   -0.0175 C   0  0  1  0  0  0  0  0  0  0  0  0
    0.2012   -0.2225    0.2223 C   0  0  0  0  0  0  0  0  0  0  0  0
    1.3457   -0.3692    0.5238 O   0  0  0  0  0  0  0  0  0  0  0  0
    0.7443    0.2588   -2.2437 H   0  0  0  0  0  0  0  0  0  0  0  0
   -0.5303    0.3678   -3.4684 H   0  0  0  0  0  0  0  0  0  0  0  0
    0.0468    1.8353   -2.6577 H   0  0  0  0  0  0  0  0  0  0  0  0
   -3.3370    1.1838   -1.1101 H   0  0  0  0  0  0  0  0  0  0  0  0
   -2.3977    2.3090   -2.1088 H   0  0  0  0  0  0  0  0  0  0  0  0
   -2.9384    0.7581   -2.7774 H   0  0  0  0  0  0  0  0  0  0  0  0
   -1.1787   -2.1247    0.3796 H   0  0  0  0  0  0  0  0  0  0  0  0
   -2.8030    0.2380    0.7324 H   0  0  0  0  0  0  0  0  0  0  0  0
   -1.4701    0.1437    1.9403 H   0  0  0  0  0  0  0  0  0  0  0  0
   -0.5073    1.9997    0.1832 H   0  0  0  0  0  0  0  0  0  0  0  0
  1 10  1  0  0  0  0
  1  2  1  0  0  0  0
  2  4  1  0  0  0  0
  2  7  1  0  0  0  0
  3  2  1  0  0  0  0
  3 13  1  0  0  0  0
  4  5  1  0  0  0  0
  5  8  1  0  0  0  0
  5 16  1  1  0  0  0
  5  6  1  0  0  0  0
  6 18  1  0  0  0  0
  7 19  1  1  0  0  0
  7  8  1  0  0  0  0
  7  6  1  0  0  0  0
  8  9  2  0  0  0  0
 11  1  1  0  0  0  0
 12  1  1  0  0  0  0
 14  3  1  0  0  0  0
 15  3  1  0  0  0  0
 17  6  1  0  0  0  0
M TOR 0 0 1 2 12
M TOR 1 0 1 2 13
M TOR 2 0 1 2 14
M TOR 3 0 1 3 4
M TOR 4 0 1 6 5
M TOR 5 0 1 6 7
M TOR 6 0 1 6 18
M TOR 7 1 3 4 5
M TOR 8 1 3 4 7
M TOR 9 1 3 4 15
M TOR 10 1 6 5 4
M TOR 11 1 6 5 16
M TOR 12 1 6 5 17
M TOR 13 1 6 7 4
M TOR 14 1 6 7 8
M TOR 15 2 1 0 9
M TOR 16 2 1 0 10
M TOR 17 2 1 0 11
M TOR 18 2 1 3 4
M TOR 19 2 1 6 5
M TOR 20 2 1 6 7
M TOR 21 2 1 6 18
M TOR 22 3 1 0 9
M TOR 23 3 1 0 10
M TOR 24 3 1 0 11
M TOR 25 3 1 2 12
M TOR 26 3 1 2 13
M TOR 27 3 1 2 14
M TOR 28 3 1 6 5
M TOR 29 3 1 6 7
M TOR 30 3 1 6 18
M TOR 31 3 4 5 6
M TOR 32 3 4 5 16
M TOR 33 3 4 5 17
M TOR 34 3 4 7 6
M TOR 35 3 4 7 8
M TOR 36 4 3 1 6
M TOR 37 4 5 6 7
M TOR 38 4 5 6 18
M TOR 39 4 7 6 18
M TOR 40 5 4 7 8
M TOR 41 5 6 7 8
M TOR 42 6 1 0 9
M TOR 43 6 1 0 10
M TOR 44 6 1 0 11
M TOR 45 6 1 2 12
M TOR 46 6 1 2 13
M TOR 47 6 1 2 14
M TOR 48 6 5 4 15
M TOR 49 6 7 4 15
M TOR 50 7 4 5 16
M TOR 51 7 4 5 17
M TOR 52 7 6 5 16
M TOR 53 7 6 5 17
M TOR 54 8 7 4 15
M TOR 55 8 7 6 18
M  END
$$$$
