gdb 3686	2.5476507	1.3231058	1.0676783	1.4426	78.45	-0.24139	-0.02682	0.21456999999999998	1217.5844	0.154218	-422.543258	-422.533797	-422.532853	-422.577673	34.187
 OpenBabel02181911413D

 19 20  0  0  1  0  0  0  0  0999 V2000
   -2.4616   -2.6524    1.3486 C   0  0  0  0  0  0  0  0  0  0  0  0
   -1.1984   -2.3483    0.5756 C   0  0  1  0  0  0  0  0  0  0  0  0
   -1.2197   -2.2500   -0.9312 C   0  0  0  0  0  0  0  0  0  0  0  0
   -1.0612   -1.0064   -0.1010 C   0  0  1  0  0  0  0  0  0  0  0  0
   -2.0479    0.0264   -0.0200 O   0  0  0  0  0  0  0  0  0  0  0  0
   -1.0393    1.0794    0.0403 C   0  0  1  0  0  0  0  0  0  0  0  0
   -1.1086    1.9154    1.3033 C   0  0  0  0  0  0  0  0  0  0  0  0
    0.0504   -0.0092   -0.0416 C   0  0  0  0  0  0  0  0  0  0  0  0
    1.2461   -0.0394   -0.0386 O   0  0  0  0  0  0  0  0  0  0  0  0
   -2.3790   -2.3085    2.3845 H   0  0  0  0  0  0  0  0  0  0  0  0
   -3.3232   -2.1497    0.9014 H   0  0  0  0  0  0  0  0  0  0  0  0
   -2.6591   -3.7292    1.3641 H   0  0  0  0  0  0  0  0  0  0  0  0
   -0.2755   -2.7237    1.0114 H   0  0  0  0  0  0  0  0  0  0  0  0
   -0.3618   -2.5891   -1.5023 H   0  0  0  0  0  0  0  0  0  0  0  0
   -2.1805   -2.3575   -1.4251 H   0  0  0  0  0  0  0  0  0  0  0  0
   -1.0841    1.7059   -0.8601 H   0  0  0  0  0  0  0  0  0  0  0  0
   -1.0464    1.2840    2.1940 H   0  0  0  0  0  0  0  0  0  0  0  0
   -0.2795    2.6296    1.3211 H   0  0  0  0  0  0  0  0  0  0  0  0
   -2.0486    2.4738    1.3385 H   0  0  0  0  0  0  0  0  0  0  0  0
  1 12  1  0  0  0  0
  1 10  1  0  0  0  0
  2 13  1  1  0  0  0
  2  1  1  0  0  0  0
  3  4  1  0  0  0  0
  3  2  1  0  0  0  0
  4  8  1  1  0  0  0
  4  5  1  0  0  0  0
  4  2  1  0  0  0  0
  5  6  1  0  0  0  0
  6 16  1  6  0  0  0
  6  7  1  0  0  0  0
  7 18  1  0  0  0  0
  7 19  1  0  0  0  0
  7 17  1  0  0  0  0
  8  9  2  0  0  0  0
  8  6  1  0  0  0  0
 11  1  1  0  0  0  0
 14  3  1  0  0  0  0
 15  3  1  0  0  0  0
M TOR 0 0 1 2 3
M TOR 1 0 1 2 13
M TOR 2 0 1 2 14
M TOR 3 0 1 3 4
M TOR 4 0 1 3 7
M TOR 5 1 2 3 4
M TOR 6 1 2 3 7
M TOR 7 1 3 2 13
M TOR 8 1 3 2 14
M TOR 9 1 3 4 5
M TOR 10 1 3 7 5
M TOR 11 1 3 7 8
M TOR 12 2 1 0 9
M TOR 13 2 1 0 10
M TOR 14 2 1 0 11
M TOR 15 2 3 1 12
M TOR 16 2 3 4 5
M TOR 17 2 3 7 5
M TOR 18 2 3 7 8
M TOR 19 3 1 0 9
M TOR 20 3 1 0 10
M TOR 21 3 1 0 11
M TOR 22 3 4 5 6
M TOR 23 3 4 5 7
M TOR 24 3 4 5 15
M TOR 25 3 7 5 6
M TOR 26 3 7 5 15
M TOR 27 4 3 1 12
M TOR 28 4 3 2 13
M TOR 29 4 3 2 14
M TOR 30 4 3 7 8
M TOR 31 4 5 6 16
M TOR 32 4 5 6 17
M TOR 33 4 5 6 18
M TOR 34 4 5 7 8
M TOR 35 6 5 7 8
M TOR 36 7 3 1 12
M TOR 37 7 3 2 13
M TOR 38 7 3 2 14
M TOR 39 7 5 6 16
M TOR 40 7 5 6 17
M TOR 41 7 5 6 18
M TOR 42 8 7 5 15
M  END
$$$$
