
     RDKit          3D

 19 20  0  0  0  0  0  0  0  0999 V2000
    0.2275   -1.2080    0.2166 O   0  0  0  0  0  0  0  0  0  0  0  0
    0.3815   -0.0454   -0.0592 C   0  0  0  0  0  0  0  0  0  0  0  0
   -0.3098    0.6612   -1.2078 C   0  0  0  0  0  0  0  0  0  0  0  0
   -1.0401    1.9204   -0.7474 C   0  0  0  0  0  0  0  0  0  0  0  0
   -1.5112    2.9125   -1.8354 C   0  0  0  0  0  0  0  0  0  0  0  0
   -0.5602    3.8828   -1.1436 C   0  0  0  0  0  0  0  0  0  0  0  0
    0.3758    4.8990   -1.7035 C   0  0  0  0  0  0  0  0  0  0  0  0
   -0.7529    5.3125   -0.7646 C   0  0  0  0  0  0  0  0  0  0  0  0
   -0.1293    2.9044   -0.1913 O   0  0  0  0  0  0  0  0  0  0  0  0
    1.0619    0.6043    0.5324 H   0  0  0  0  0  0  0  0  0  0  0  0
    0.4580    0.9556   -1.9364 H   0  0  0  0  0  0  0  0  0  0  0  0
   -1.0039   -0.0365   -1.6868 H   0  0  0  0  0  0  0  0  0  0  0  0
   -1.8160    1.6630   -0.0154 H   0  0  0  0  0  0  0  0  0  0  0  0
   -1.2332    2.6350   -2.8551 H   0  0  0  0  0  0  0  0  0  0  0  0
   -2.5692    3.1786   -1.8049 H   0  0  0  0  0  0  0  0  0  0  0  0
    1.3842    4.9132   -1.3037 H   0  0  0  0  0  0  0  0  0  0  0  0
    0.2998    5.1533   -2.7560 H   0  0  0  0  0  0  0  0  0  0  0  0
   -0.4794    5.5955    0.2461 H   0  0  0  0  0  0  0  0  0  0  0  0
   -1.6022    5.8499   -1.1747 H   0  0  0  0  0  0  0  0  0  0  0  0
  1  2  2  0
  2  3  1  0
  3  4  1  0
  4  5  1  0
  5  6  1  0
  6  7  1  0
  7  8  1  0
  6  9  1  0
  9  4  1  0
  8  6  1  0
  2 10  1  0
  3 11  1  0
  3 12  1  0
  4 13  1  0
  5 14  1  0
  5 15  1  0
  7 16  1  0
  7 17  1  0
  8 18  1  0
  8 19  1  0
M  END
$$$$
