
     RDKit          3D

 19 20  0  0  0  0  0  0  0  0999 V2000
    1.5259    1.8925   -0.4243 C   0  0  0  0  0  0  0  0  0  0  0  0
    1.3561    0.4001   -0.1206 C   0  0  0  0  0  0  0  0  0  0  0  0
    2.0355   -0.4852   -1.1457 C   0  0  0  0  0  0  0  0  0  0  0  0
    1.5615   -1.8980   -1.3861 C   0  0  0  0  0  0  0  0  0  0  0  0
    1.2957   -0.8335   -2.4132 C   0  0  0  0  0  0  0  0  0  0  0  0
   -0.0128   -0.3379   -2.7283 O   0  0  0  0  0  0  0  0  0  0  0  0
    0.3122   -0.1905   -4.1330 C   0  0  0  0  0  0  0  0  0  0  0  0
    1.7259   -0.7286   -3.8421 C   0  0  0  0  0  0  0  0  0  0  0  0
    2.7174   -0.9575   -4.4685 O   0  0  0  0  0  0  0  0  0  0  0  0
    1.0532    2.5066    0.3480 H   0  0  0  0  0  0  0  0  0  0  0  0
    2.5842    2.1716   -0.4714 H   0  0  0  0  0  0  0  0  0  0  0  0
    1.0668    2.1450   -1.3848 H   0  0  0  0  0  0  0  0  0  0  0  0
    1.7646    0.1693    0.8713 H   0  0  0  0  0  0  0  0  0  0  0  0
    0.2893    0.1535   -0.0857 H   0  0  0  0  0  0  0  0  0  0  0  0
    3.1004   -0.3078   -1.2839 H   0  0  0  0  0  0  0  0  0  0  0  0
    2.2815   -2.6698   -1.6375 H   0  0  0  0  0  0  0  0  0  0  0  0
    0.6923   -2.2345   -0.8294 H   0  0  0  0  0  0  0  0  0  0  0  0
   -0.3085   -0.8236   -4.7769 H   0  0  0  0  0  0  0  0  0  0  0  0
    0.2646    0.8504   -4.4718 H   0  0  0  0  0  0  0  0  0  0  0  0
  1  2  1  0
  2  3  1  0
  3  4  1  0
  4  5  1  0
  5  6  1  0
  6  7  1  0
  7  8  1  0
  8  9  2  0
  5  3  1  0
  8  5  1  0
  1 10  1  0
  1 11  1  0
  1 12  1  0
  2 13  1  0
  2 14  1  0
  3 15  1  0
  4 16  1  0
  4 17  1  0
  7 18  1  0
  7 19  1  0
M  END
$$$$
