
     RDKit          3D

 19 20  0  0  0  0  0  0  0  0999 V2000
    0.9397   -0.4769    0.9788 C   0  0  0  0  0  0  0  0  0  0  0  0
    0.9212    0.1508   -0.4190 C   0  0  0  0  0  0  0  0  0  0  0  0
    1.8057   -0.5687   -1.4110 C   0  0  0  0  0  0  0  0  0  0  0  0
    1.7411   -0.1074   -2.9095 C   0  0  0  0  0  0  0  0  0  0  0  0
    2.1839   -1.2712   -3.6116 O   0  0  0  0  0  0  0  0  0  0  0  0
    2.4097   -2.2370   -2.5541 C   0  0  0  0  0  0  0  0  0  0  0  0
    1.4016   -1.9442   -1.6199 O   0  0  0  0  0  0  0  0  0  0  0  0
    3.6816   -1.7943   -1.8351 C   0  0  0  0  0  0  0  0  0  0  0  0
    3.2991   -0.7320   -1.1261 C   0  0  0  0  0  0  0  0  0  0  0  0
    0.6190   -1.5206    0.9341 H   0  0  0  0  0  0  0  0  0  0  0  0
    1.9443   -0.4551    1.4130 H   0  0  0  0  0  0  0  0  0  0  0  0
    0.2693    0.0619    1.6545 H   0  0  0  0  0  0  0  0  0  0  0  0
   -0.1019    0.1581   -0.8125 H   0  0  0  0  0  0  0  0  0  0  0  0
    1.2446    1.1984   -0.3706 H   0  0  0  0  0  0  0  0  0  0  0  0
    0.7096    0.1254   -3.1971 H   0  0  0  0  0  0  0  0  0  0  0  0
    2.3895    0.7482   -3.1252 H   0  0  0  0  0  0  0  0  0  0  0  0
    2.3283   -3.2430   -2.9598 H   0  0  0  0  0  0  0  0  0  0  0  0
    4.6747   -2.1825   -2.0117 H   0  0  0  0  0  0  0  0  0  0  0  0
    3.9045   -0.0251   -0.5749 H   0  0  0  0  0  0  0  0  0  0  0  0
  1  2  1  0
  2  3  1  0
  3  4  1  0
  4  5  1  0
  5  6  1  0
  6  7  1  0
  6  8  1  0
  8  9  2  0
  7  3  1  0
  9  3  1  0
  1 10  1  0
  1 11  1  0
  1 12  1  0
  2 13  1  0
  2 14  1  0
  4 15  1  0
  4 16  1  0
  6 17  1  0
  8 18  1  0
  9 19  1  0
M  END
$$$$
