gdb 298	2.6241969	2.1043585	1.8091753	2.5243	72.71	-0.25156	0.07907	0.33063	864.9112	0.161566	-422.562289	-422.555986	-422.555042	-422.592616	26.549
 OpenBabel02181911403D

 19 21  0  0  1  0  0  0  0  0999 V2000
    2.0842    1.2981   -0.6606 C   0  0  0  0  0  0  0  0  0  0  0  0
    2.3323    1.8596    0.7694 C   0  0  2  0  0  0  0  0  0  0  0  0
    3.3398    0.9322    1.4521 C   0  0  0  0  0  0  0  0  0  0  0  0
    3.1037   -0.4243    1.0688 O   0  0  0  0  0  0  0  0  0  0  0  0
    1.7318   -0.7057    0.8956 C   0  0  1  0  0  0  0  0  0  0  0  0
    1.0292   -0.6879    2.1250 O   0  0  0  0  0  0  0  0  0  0  0  0
    0.5754    0.6463    2.3954 C   0  0  0  0  0  0  0  0  0  0  0  0
    0.8598    1.4322    1.1222 C   0  0  2  0  0  0  0  0  0  0  0  0
    1.0487    0.3707    0.0113 C   0  0  1  0  0  0  0  0  0  0  0  0
    1.6019    2.0286   -1.3144 H   0  0  0  0  0  0  0  0  0  0  0  0
    2.9300    0.8369   -1.1759 H   0  0  0  0  0  0  0  0  0  0  0  0
    2.6075    2.9090    0.8958 H   0  0  0  0  0  0  0  0  0  0  0  0
    4.3597    1.1678    1.1308 H   0  0  0  0  0  0  0  0  0  0  0  0
    3.3000    1.0317    2.5465 H   0  0  0  0  0  0  0  0  0  0  0  0
    1.6872   -1.7254    0.5100 H   0  0  0  0  0  0  0  0  0  0  0  0
   -0.4987    0.6106    2.6154 H   0  0  0  0  0  0  0  0  0  0  0  0
    1.0899    1.0435    3.2803 H   0  0  0  0  0  0  0  0  0  0  0  0
    0.1353    2.2202    0.9121 H   0  0  0  0  0  0  0  0  0  0  0  0
    0.1958   -0.0236   -0.5436 H   0  0  0  0  0  0  0  0  0  0  0  0
  1  9  1  0  0  0  0
  1  2  1  0  0  0  0
  2 12  1  1  0  0  0
  2  8  1  0  0  0  0
  2  3  1  0  0  0  0
  3 14  1  0  0  0  0
  4  3  1  0  0  0  0
  5 15  1  6  0  0  0
  5  4  1  0  0  0  0
  5  6  1  0  0  0  0
  6  7  1  0  0  0  0
  7 16  1  0  0  0  0
  7 17  1  0  0  0  0
  8 18  1  6  0  0  0
  8  7  1  0  0  0  0
  9 19  1  6  0  0  0
  9  5  1  0  0  0  0
  9  8  1  0  0  0  0
 10  1  1  0  0  0  0
 11  1  1  0  0  0  0
 13  3  1  0  0  0  0
M TOR 0 0 1 2 3
M TOR 1 0 1 2 12
M TOR 2 0 1 2 13
M TOR 3 0 1 7 6
M TOR 4 0 1 7 8
M TOR 5 0 1 7 17
M TOR 6 0 8 4 3
M TOR 7 0 8 4 5
M TOR 8 0 8 4 14
M TOR 9 0 8 7 6
M TOR 10 0 8 7 17
M TOR 11 1 0 8 4
M TOR 12 1 0 8 18
M TOR 13 1 2 3 4
M TOR 14 1 7 6 5
M TOR 15 1 7 6 15
M TOR 16 1 7 6 16
M TOR 17 1 7 8 4
M TOR 18 1 7 8 18
M TOR 19 2 1 0 8
M TOR 20 2 1 0 9
M TOR 21 2 1 0 10
M TOR 22 2 1 7 6
M TOR 23 2 1 7 8
M TOR 24 2 1 7 17
M TOR 25 2 3 4 5
M TOR 26 2 3 4 8
M TOR 27 2 3 4 14
M TOR 28 3 2 1 7
M TOR 29 3 2 1 11
M TOR 30 3 4 5 6
M TOR 31 3 4 8 7
M TOR 32 3 4 8 18
M TOR 33 4 3 2 12
M TOR 34 4 3 2 13
M TOR 35 4 5 6 7
M TOR 36 4 5 6 15
M TOR 37 4 5 6 16
M TOR 38 4 8 0 9
M TOR 39 4 8 0 10
M TOR 40 4 8 7 6
M TOR 41 4 8 7 17
M TOR 42 5 4 8 7
M TOR 43 5 4 8 18
M TOR 44 5 6 7 8
M TOR 45 5 6 7 17
M TOR 46 6 5 4 8
M TOR 47 6 5 4 14
M TOR 48 6 7 1 11
M TOR 49 6 7 8 18
M TOR 50 7 1 0 9
M TOR 51 7 1 0 10
M TOR 52 7 1 2 12
M TOR 53 7 1 2 13
M TOR 54 7 8 0 9
M TOR 55 7 8 0 10
M TOR 56 7 8 4 14
M TOR 57 8 0 1 11
M TOR 58 8 7 1 11
M TOR 59 8 7 6 15
M TOR 60 8 7 6 16
M  END
$$$$
