gdb 417	2.1014555	2.0506814	1.2531736	1.8186	74.3	-0.24793	0.05461	0.30254000000000003	1040.7366	0.157282	-422.529228	-422.521302	-422.520357	-422.561861	30.763
 OpenBabel02181911403D

 19 21  0  0  1  0  0  0  0  0999 V2000
   -0.2065    1.3437   -2.2242 C   0  0  0  0  0  0  0  0  0  0  0  0
    1.1933    1.6420   -2.3129 O   0  0  0  0  0  0  0  0  0  0  0  0
    0.7245    0.8931   -1.1866 C   0  0  2  0  0  0  0  0  0  0  0  0
    1.1835   -0.5533   -1.0072 C   0  0  0  0  0  0  0  0  0  0  0  0
    1.8471   -0.5792    0.3878 C   0  0  0  0  0  0  0  0  0  0  0  0
    1.0457    0.4596    1.1963 C   0  0  0  0  0  0  0  0  0  0  0  0
    0.7990    1.5623    0.1782 C   0  0  1  0  0  0  0  0  0  0  0  0
    1.2817    2.9407    0.3266 C   0  0  0  0  0  0  0  0  0  0  0  0
   -0.1096    2.6179    0.4736 O   0  0  0  0  0  0  0  0  0  0  0  0
   -0.8521    2.1947   -2.0183 H   0  0  0  0  0  0  0  0  0  0  0  0
   -0.5776    0.6294   -2.9588 H   0  0  0  0  0  0  0  0  0  0  0  0
    0.3152   -1.2222   -1.0221 H   0  0  0  0  0  0  0  0  0  0  0  0
    1.8501   -0.8563   -1.8178 H   0  0  0  0  0  0  0  0  0  0  0  0
    1.8398   -1.5721    0.8434 H   0  0  0  0  0  0  0  0  0  0  0  0
    2.8927   -0.2606    0.3107 H   0  0  0  0  0  0  0  0  0  0  0  0
    0.0816    0.0389    1.5089 H   0  0  0  0  0  0  0  0  0  0  0  0
    1.5590    0.8143    2.0930 H   0  0  0  0  0  0  0  0  0  0  0  0
    1.7896    3.2342    1.2445 H   0  0  0  0  0  0  0  0  0  0  0  0
    1.5338    3.5087   -0.5653 H   0  0  0  0  0  0  0  0  0  0  0  0
  1 10  1  0  0  0  0
  1  3  1  0  0  0  0
  2  1  1  0  0  0  0
  3  2  1  6  0  0  0
  3  4  1  0  0  0  0
  3  7  1  0  0  0  0
  4  5  1  0  0  0  0
  5 14  1  0  0  0  0
  5  6  1  0  0  0  0
  6 16  1  0  0  0  0
  6 17  1  0  0  0  0
  7  8  1  0  0  0  0
  7  9  1  1  0  0  0
  7  6  1  0  0  0  0
  8  9  1  0  0  0  0
  8 18  1  0  0  0  0
 11  1  1  0  0  0  0
 12  4  1  0  0  0  0
 13  4  1  0  0  0  0
 15  5  1  0  0  0  0
 19  8  1  0  0  0  0
M TOR 0 0 1 2 3
M TOR 1 0 1 2 6
M TOR 2 0 2 3 4
M TOR 3 0 2 3 11
M TOR 4 0 2 3 12
M TOR 5 0 2 6 5
M TOR 6 0 2 6 7
M TOR 7 0 2 6 8
M TOR 8 1 2 0 9
M TOR 9 1 2 0 10
M TOR 10 1 2 3 4
M TOR 11 1 2 3 11
M TOR 12 1 2 3 12
M TOR 13 1 2 6 5
M TOR 14 1 2 6 7
M TOR 15 1 2 6 8
M TOR 16 2 3 4 5
M TOR 17 2 3 4 13
M TOR 18 2 3 4 14
M TOR 19 2 6 5 4
M TOR 20 2 6 5 15
M TOR 21 2 6 5 16
M TOR 22 2 6 7 8
M TOR 23 2 6 7 17
M TOR 24 2 6 7 18
M TOR 25 3 2 0 9
M TOR 26 3 2 0 10
M TOR 27 3 2 6 5
M TOR 28 3 2 6 7
M TOR 29 3 2 6 8
M TOR 30 3 4 5 6
M TOR 31 3 4 5 15
M TOR 32 3 4 5 16
M TOR 33 4 3 2 6
M TOR 34 4 5 6 7
M TOR 35 4 5 6 8
M TOR 36 5 4 3 11
M TOR 37 5 4 3 12
M TOR 38 5 6 7 8
M TOR 39 5 6 7 17
M TOR 40 5 6 7 18
M TOR 41 6 2 0 9
M TOR 42 6 2 0 10
M TOR 43 6 2 3 11
M TOR 44 6 2 3 12
M TOR 45 6 5 4 13
M TOR 46 6 5 4 14
M TOR 47 6 8 7 17
M TOR 48 6 8 7 18
M TOR 49 7 6 5 15
M TOR 50 7 6 5 16
M TOR 51 8 6 5 15
M TOR 52 8 6 5 16
M  END
$$$$
