
     RDKit          3D

 19 21  0  0  0  0  0  0  0  0999 V2000
    0.4838    0.6781    0.5935 O   0  0  0  0  0  0  0  0  0  0  0  0
   -0.8429    0.7310    1.0346 C   0  0  0  0  0  0  0  0  0  0  0  0
   -1.8462   -0.1878    0.3135 C   0  0  0  0  0  0  0  0  0  0  0  0
   -3.1624    0.1289    1.1043 C   0  0  0  0  0  0  0  0  0  0  0  0
   -3.0868    1.6705    0.9149 C   0  0  0  0  0  0  0  0  0  0  0  0
   -2.6418    2.9417    1.7258 C   0  0  0  0  0  0  0  0  0  0  0  0
   -1.6496    3.2578    0.5262 C   0  0  0  0  0  0  0  0  0  0  0  0
   -1.7292    1.7526    0.2707 C   0  0  0  0  0  0  0  0  0  0  0  0
   -1.7802    0.7727   -0.8290 O   0  0  0  0  0  0  0  0  0  0  0  0
    0.4381    0.6739   -0.3724 H   0  0  0  0  0  0  0  0  0  0  0  0
   -0.8261    0.7350    2.1270 H   0  0  0  0  0  0  0  0  0  0  0  0
   -1.6212   -1.2118    0.0166 H   0  0  0  0  0  0  0  0  0  0  0  0
   -4.0569   -0.3010    0.6502 H   0  0  0  0  0  0  0  0  0  0  0  0
   -3.0856   -0.2394    2.1315 H   0  0  0  0  0  0  0  0  0  0  0  0
   -3.8453    1.9969    0.1981 H   0  0  0  0  0  0  0  0  0  0  0  0
   -3.4130    3.6859    1.9274 H   0  0  0  0  0  0  0  0  0  0  0  0
   -2.1038    2.7207    2.6493 H   0  0  0  0  0  0  0  0  0  0  0  0
   -2.1475    3.8580   -0.2395 H   0  0  0  0  0  0  0  0  0  0  0  0
   -0.6678    3.6792    0.7510 H   0  0  0  0  0  0  0  0  0  0  0  0
  1  2  1  0
  2  3  1  0
  3  4  1  0
  4  5  1  0
  5  6  1  0
  6  7  1  0
  7  8  1  0
  8  9  1  0
  8  2  1  0
  9  3  1  0
  8  5  1  0
  1 10  1  0
  2 11  1  0
  3 12  1  0
  4 13  1  0
  4 14  1  0
  5 15  1  0
  6 16  1  0
  6 17  1  0
  7 18  1  0
  7 19  1  0
M  END
$$$$
