gdb 2323	2.5949072	1.9616502	1.6334955	1.9207	74.47	-0.23166	0.06487	0.29653	918.6903	0.157881	-422.51509	-422.507628	-422.506684	-422.546286	30.591
 OpenBabel02181911413D

 19 21  0  0  1  0  0  0  0  0999 V2000
    0.3510    0.1872    0.9903 O   0  0  0  0  0  0  0  0  0  0  0  0
   -0.9121    0.5565    0.5241 C   0  0  2  0  0  0  0  0  0  0  0  0
   -1.1736    2.0857    0.2696 C   0  0  0  0  0  0  0  0  0  0  0  0
   -2.1925    2.1082    1.4723 C   0  0  0  0  0  0  0  0  0  0  0  0
   -2.2184    0.5852    1.3802 C   0  0  2  0  0  0  0  0  0  0  0  0
   -2.2565   -0.7091    2.1767 C   0  0  0  0  0  0  0  0  0  0  0  0
   -1.8101   -1.6313    0.9710 C   0  0  0  0  0  0  0  0  0  0  0  0
   -1.7207   -0.5489   -0.1513 C   0  0  1  0  0  0  0  0  0  0  0  0
   -2.9220    0.2191    0.1349 O   0  0  0  0  0  0  0  0  0  0  0  0
    0.7626    0.9413    1.4230 H   0  0  0  0  0  0  0  0  0  0  0  0
   -0.2779    2.6992    0.4066 H   0  0  0  0  0  0  0  0  0  0  0  0
   -1.6178    2.3253   -0.6956 H   0  0  0  0  0  0  0  0  0  0  0  0
   -1.7297    2.4671    2.3966 H   0  0  0  0  0  0  0  0  0  0  0  0
   -3.1438    2.6221    1.3213 H   0  0  0  0  0  0  0  0  0  0  0  0
   -1.5311   -0.7141    2.9943 H   0  0  0  0  0  0  0  0  0  0  0  0
   -3.2426   -0.9695    2.5668 H   0  0  0  0  0  0  0  0  0  0  0  0
   -0.8617   -2.1389    1.1553 H   0  0  0  0  0  0  0  0  0  0  0  0
   -2.5735   -2.3682    0.7145 H   0  0  0  0  0  0  0  0  0  0  0  0
   -1.6227   -0.8863   -1.1856 H   0  0  0  0  0  0  0  0  0  0  0  0
  1 10  1  0  0  0  0
  2  1  1  1  0  0  0
  2  5  1  0  0  0  0
  3 11  1  0  0  0  0
  3  2  1  0  0  0  0
  3  4  1  0  0  0  0
  4 13  1  0  0  0  0
  5  9  1  6  0  0  0
  5  4  1  0  0  0  0
  5  6  1  0  0  0  0
  6 16  1  0  0  0  0
  6 15  1  0  0  0  0
  7 17  1  0  0  0  0
  7  6  1  0  0  0  0
  8 19  1  6  0  0  0
  8  9  1  0  0  0  0
  8  2  1  0  0  0  0
  8  7  1  0  0  0  0
 12  3  1  0  0  0  0
 14  4  1  0  0  0  0
 18  7  1  0  0  0  0
M TOR 0 0 1 2 3
M TOR 1 0 1 2 10
M TOR 2 0 1 2 11
M TOR 3 0 1 4 3
M TOR 4 0 1 4 5
M TOR 5 0 1 4 8
M TOR 6 0 1 7 6
M TOR 7 0 1 7 8
M TOR 8 0 1 7 18
M TOR 9 1 2 3 4
M TOR 10 1 2 3 12
M TOR 11 1 2 3 13
M TOR 12 1 4 3 12
M TOR 13 1 4 3 13
M TOR 14 1 4 5 6
M TOR 15 1 4 5 14
M TOR 16 1 4 5 15
M TOR 17 1 4 8 7
M TOR 18 1 7 6 5
M TOR 19 1 7 6 16
M TOR 20 1 7 6 17
M TOR 21 2 1 0 9
M TOR 22 2 1 4 5
M TOR 23 2 1 4 8
M TOR 24 2 1 7 6
M TOR 25 2 1 7 8
M TOR 26 2 1 7 18
M TOR 27 2 3 4 5
M TOR 28 2 3 4 8
M TOR 29 3 2 1 7
M TOR 30 3 4 1 7
M TOR 31 3 4 5 6
M TOR 32 3 4 5 14
M TOR 33 3 4 5 15
M TOR 34 3 4 8 7
M TOR 35 4 1 0 9
M TOR 36 4 1 2 10
M TOR 37 4 1 2 11
M TOR 38 4 1 7 6
M TOR 39 4 1 7 18
M TOR 40 4 3 2 10
M TOR 41 4 3 2 11
M TOR 42 4 5 6 7
M TOR 43 4 5 6 16
M TOR 44 4 5 6 17
M TOR 45 4 8 7 6
M TOR 46 4 8 7 18
M TOR 47 5 4 1 7
M TOR 48 5 4 3 12
M TOR 49 5 4 3 13
M TOR 50 5 4 8 7
M TOR 51 5 6 7 8
M TOR 52 5 6 7 18
M TOR 53 6 5 4 8
M TOR 54 7 1 0 9
M TOR 55 7 1 2 10
M TOR 56 7 1 2 11
M TOR 57 7 6 5 14
M TOR 58 7 6 5 15
M TOR 59 8 4 3 12
M TOR 60 8 4 3 13
M TOR 61 8 4 5 14
M TOR 62 8 4 5 15
M TOR 63 8 7 6 16
M TOR 64 8 7 6 17
M  END
$$$$
