
     RDKit          3D

 19 19  0  0  0  0  0  0  0  0999 V2000
    0.0192   -3.2783    5.2337 C   0  0  0  0  0  0  0  0  0  0  0  0
   -1.3381   -2.6338    4.8976 C   0  0  0  0  0  0  0  0  0  0  0  0
   -1.2750   -1.6940    3.7822 C   0  0  0  0  0  0  0  0  0  0  0  0
   -1.2334   -0.9398    2.8391 C   0  0  0  0  0  0  0  0  0  0  0  0
   -1.1236    0.0002    1.7669 C   0  0  0  0  0  0  0  0  0  0  0  0
   -0.2058    1.2111    1.9772 C   0  0  0  0  0  0  0  0  0  0  0  0
    0.4834    1.3475    3.1737 O   0  0  0  0  0  0  0  0  0  0  0  0
   -1.6796    1.4263    1.9260 C   0  0  0  0  0  0  0  0  0  0  0  0
   -2.1766    2.0725    0.7989 O   0  0  0  0  0  0  0  0  0  0  0  0
   -0.0865   -3.9755    6.0701 H   0  0  0  0  0  0  0  0  0  0  0  0
    0.4124   -3.8273    4.3739 H   0  0  0  0  0  0  0  0  0  0  0  0
    0.7537   -2.5173    5.5119 H   0  0  0  0  0  0  0  0  0  0  0  0
   -2.0681   -3.4191    4.6621 H   0  0  0  0  0  0  0  0  0  0  0  0
   -1.7296   -2.1187    5.7843 H   0  0  0  0  0  0  0  0  0  0  0  0
   -1.1522   -0.3934    0.7552 H   0  0  0  0  0  0  0  0  0  0  0  0
    0.3566    1.5364    1.1054 H   0  0  0  0  0  0  0  0  0  0  0  0
    0.4132    0.5085    3.6493 H   0  0  0  0  0  0  0  0  0  0  0  0
   -2.1691    1.6423    2.8749 H   0  0  0  0  0  0  0  0  0  0  0  0
   -3.0555    1.7238    0.6139 H   0  0  0  0  0  0  0  0  0  0  0  0
  1  2  1  0
  2  3  1  0
  3  4  3  0
  4  5  1  0
  5  6  1  0
  6  7  1  0
  6  8  1  0
  8  9  1  0
  8  5  1  0
  1 10  1  0
  1 11  1  0
  1 12  1  0
  2 13  1  0
  2 14  1  0
  5 15  1  0
  6 16  1  0
  7 17  1  0
  8 18  1  0
  9 19  1  0
M  END
$$$$
