gdb 752	2.4079773	1.730379	1.2960909	3.5351	74.29	-0.23483	-0.02986	0.20497	1034.7271	0.158928	-422.56833	-422.560535	-422.559591	-422.601207	29.645
 OpenBabel02181911403D

 19 20  0  0  1  0  0  0  0  0999 V2000
   -0.0006    0.0614    1.7241 O   0  0  0  0  0  0  0  0  0  0  0  0
   -0.4031    0.0360    0.5842 C   0  0  0  0  0  0  0  0  0  0  0  0
   -0.7414    1.3051   -0.1891 C   0  0  0  0  0  0  0  0  0  0  0  0
   -1.7000    1.0883   -1.3781 C   0  0  0  0  0  0  0  0  0  0  0  0
   -2.7010   -0.0443   -1.0990 C   0  0  0  0  0  0  0  0  0  0  0  0
   -2.0052   -1.3950   -0.8997 C   0  0  1  0  0  0  0  0  0  0  0  0
   -1.1074   -1.8420   -2.0713 C   0  0  0  0  0  0  0  0  0  0  0  0
    0.0819   -1.4150   -1.3684 O   0  0  0  0  0  0  0  0  0  0  0  0
   -0.6555   -1.2857   -0.1289 C   0  0  1  0  0  0  0  0  0  0  0  0
   -1.1590    2.0042    0.5433 H   0  0  0  0  0  0  0  0  0  0  0  0
    0.2017    1.7501   -0.5282 H   0  0  0  0  0  0  0  0  0  0  0  0
   -2.2381    2.0180   -1.5872 H   0  0  0  0  0  0  0  0  0  0  0  0
   -1.1241    0.8566   -2.2792 H   0  0  0  0  0  0  0  0  0  0  0  0
   -3.2827    0.1973   -0.1994 H   0  0  0  0  0  0  0  0  0  0  0  0
   -3.4215   -0.1268   -1.9215 H   0  0  0  0  0  0  0  0  0  0  0  0
   -2.7001   -2.1473   -0.5222 H   0  0  0  0  0  0  0  0  0  0  0  0
   -1.0987   -2.9245   -2.2525 H   0  0  0  0  0  0  0  0  0  0  0  0
   -1.2339   -1.3203   -3.0269 H   0  0  0  0  0  0  0  0  0  0  0  0
   -0.4379   -2.1074    0.5626 H   0  0  0  0  0  0  0  0  0  0  0  0
  2  1  2  0  0  0  0
  3 10  1  0  0  0  0
  3  2  1  0  0  0  0
  4  5  1  0  0  0  0
  4  3  1  0  0  0  0
  5  6  1  0  0  0  0
  5 14  1  0  0  0  0
  6 16  1  1  0  0  0
  6  9  1  0  0  0  0
  7  8  1  0  0  0  0
  7  6  1  0  0  0  0
  8  9  1  0  0  0  0
  9 19  1  1  0  0  0
  9  2  1  0  0  0  0
 11  3  1  0  0  0  0
 12  4  1  0  0  0  0
 13  4  1  0  0  0  0
 15  5  1  0  0  0  0
 17  7  1  0  0  0  0
 18  7  1  0  0  0  0
M TOR 0 0 1 2 3
M TOR 1 0 1 2 9
M TOR 2 0 1 2 10
M TOR 3 0 1 8 5
M TOR 4 0 1 8 7
M TOR 5 0 1 8 18
M TOR 6 1 2 3 4
M TOR 7 1 2 3 11
M TOR 8 1 2 3 12
M TOR 9 1 8 5 4
M TOR 10 1 8 5 6
M TOR 11 1 8 5 15
M TOR 12 1 8 7 6
M TOR 13 2 1 8 5
M TOR 14 2 1 8 7
M TOR 15 2 1 8 18
M TOR 16 2 3 4 5
M TOR 17 2 3 4 13
M TOR 18 2 3 4 14
M TOR 19 3 2 1 8
M TOR 20 3 4 5 6
M TOR 21 3 4 5 8
M TOR 22 3 4 5 15
M TOR 23 4 3 2 9
M TOR 24 4 3 2 10
M TOR 25 4 5 6 7
M TOR 26 4 5 6 16
M TOR 27 4 5 6 17
M TOR 28 4 5 8 7
M TOR 29 4 5 8 18
M TOR 30 5 4 3 11
M TOR 31 5 4 3 12
M TOR 32 5 6 7 8
M TOR 33 6 5 4 13
M TOR 34 6 5 4 14
M TOR 35 6 5 8 18
M TOR 36 6 7 8 18
M TOR 37 7 6 5 15
M TOR 38 7 8 5 15
M TOR 39 8 1 2 9
M TOR 40 8 1 2 10
M TOR 41 8 5 4 13
M TOR 42 8 5 4 14
M TOR 43 8 5 6 16
M TOR 44 8 5 6 17
M TOR 45 8 7 6 16
M TOR 46 8 7 6 17
M  END
$$$$
