
     RDKit          3D

 19 21  0  0  0  0  0  0  0  0999 V2000
   -0.2658    0.1445    0.0780 C   0  0  0  0  0  0  0  0  0  0  0  0
    1.2024   -0.0920   -0.2077 C   0  0  0  0  0  0  0  0  0  0  0  0
    2.0421   -0.6533    0.9359 C   0  0  0  0  0  0  0  0  0  0  0  0
    3.5299   -0.8963    0.5078 C   0  0  0  0  0  0  0  0  0  0  0  0
    4.4739   -1.8728    1.1265 C   0  0  0  0  0  0  0  0  0  0  0  0
    3.6711   -0.5923   -0.8962 O   0  0  0  0  0  0  0  0  0  0  0  0
    3.6639    0.4865    0.0543 C   0  0  0  0  0  0  0  0  0  0  0  0
    2.1864    0.7988    0.4815 C   0  0  0  0  0  0  0  0  0  0  0  0
    1.8044    1.9894    1.0664 O   0  0  0  0  0  0  0  0  0  0  0  0
   -0.4258    0.5012    1.0989 H   0  0  0  0  0  0  0  0  0  0  0  0
   -0.6729    0.9009   -0.6006 H   0  0  0  0  0  0  0  0  0  0  0  0
   -0.8396   -0.7777   -0.0606 H   0  0  0  0  0  0  0  0  0  0  0  0
    1.4317   -0.4306   -1.2121 H   0  0  0  0  0  0  0  0  0  0  0  0
    1.5937   -1.0590    1.8342 H   0  0  0  0  0  0  0  0  0  0  0  0
    4.4692   -1.7777    2.2175 H   0  0  0  0  0  0  0  0  0  0  0  0
    4.1863   -2.9011    0.8792 H   0  0  0  0  0  0  0  0  0  0  0  0
    5.4903   -1.7028    0.7619 H   0  0  0  0  0  0  0  0  0  0  0  0
    4.4987    1.1805    0.0436 H   0  0  0  0  0  0  0  0  0  0  0  0
    2.2648    2.0830    1.9078 H   0  0  0  0  0  0  0  0  0  0  0  0
  1  2  1  0
  2  3  1  0
  3  4  1  0
  4  5  1  0
  4  6  1  0
  6  7  1  0
  7  8  1  0
  8  9  1  0
  8  2  1  0
  8  3  1  0
  7  4  1  0
  1 10  1  0
  1 11  1  0
  1 12  1  0
  2 13  1  0
  3 14  1  0
  5 15  1  0
  5 16  1  0
  5 17  1  0
  7 18  1  0
  9 19  1  0
M  END
$$$$
