gdb 4774	4.5549634	0.7506613	0.6815453	1.4359	79.92	-0.25839	0.01913	0.27752	1660.3952	0.153169	-422.500583	-422.49023	-422.489286	-422.536393	36.793
 OpenBabel02181911413D

 19 19  0  0  1  0  0  0  0  0999 V2000
    1.3182   -0.8775    1.0134 C   0  0  0  0  0  0  0  0  0  0  0  0
    0.9650    0.0666   -0.1378 C   0  0  0  0  0  0  0  0  0  0  0  0
    1.5733    1.4640    0.0234 C   0  0  2  0  0  0  0  0  0  0  0  0
    1.1522    2.1120    1.2188 O   0  0  0  0  0  0  0  0  0  0  0  0
    1.2701    2.3376   -1.1792 C   0  0  2  0  0  0  0  0  0  0  0  0
    1.9822    2.0486   -2.3778 O   0  0  0  0  0  0  0  0  0  0  0  0
    2.2546    3.2993   -1.7111 C   0  0  1  0  0  0  0  0  0  0  0  0
    1.8555    4.5052   -2.3842 C   0  0  0  0  0  0  0  0  0  0  0  0
    1.5397    5.5257   -2.9349 C   0  0  0  0  0  0  0  0  0  0  0  0
    0.8256   -1.8467    0.8937 H   0  0  0  0  0  0  0  0  0  0  0  0
    2.3984   -1.0540    1.0580 H   0  0  0  0  0  0  0  0  0  0  0  0
    1.0130   -0.4516    1.9730 H   0  0  0  0  0  0  0  0  0  0  0  0
    1.3074   -0.3450   -1.0944 H   0  0  0  0  0  0  0  0  0  0  0  0
   -0.1277    0.1688   -0.2210 H   0  0  0  0  0  0  0  0  0  0  0  0
    2.6624    1.3729    0.1147 H   0  0  0  0  0  0  0  0  0  0  0  0
    0.1883    2.1290    1.2235 H   0  0  0  0  0  0  0  0  0  0  0  0
    0.2134    2.5724   -1.3315 H   0  0  0  0  0  0  0  0  0  0  0  0
    3.2299    3.3358   -1.2272 H   0  0  0  0  0  0  0  0  0  0  0  0
    1.2582    6.4257   -3.4236 H   0  0  0  0  0  0  0  0  0  0  0  0
  1 11  1  0  0  0  0
  1 12  1  0  0  0  0
  2  3  1  0  0  0  0
  2  1  1  0  0  0  0
  3 15  1  1  0  0  0
  3  4  1  0  0  0  0
  4 16  1  0  0  0  0
  5 17  1  6  0  0  0
  5  3  1  0  0  0  0
  6  7  1  0  0  0  0
  6  5  1  0  0  0  0
  7 18  1  1  0  0  0
  7  5  1  0  0  0  0
  8  7  1  0  0  0  0
  9  8  3  0  0  0  0
 10  1  1  0  0  0  0
 13  2  1  0  0  0  0
 14  2  1  0  0  0  0
 19  9  1  0  0  0  0
M TOR 0 0 1 2 3
M TOR 1 0 1 2 4
M TOR 2 0 1 2 14
M TOR 3 1 2 3 15
M TOR 4 1 2 4 5
M TOR 5 1 2 4 6
M TOR 6 1 2 4 16
M TOR 7 2 1 0 9
M TOR 8 2 1 0 10
M TOR 9 2 1 0 11
M TOR 10 2 4 5 6
M TOR 11 2 4 6 7
M TOR 12 2 4 6 17
M TOR 13 3 2 1 12
M TOR 14 3 2 1 13
M TOR 15 3 2 4 5
M TOR 16 3 2 4 6
M TOR 17 3 2 4 16
M TOR 18 4 2 1 12
M TOR 19 4 2 1 13
M TOR 20 4 2 3 15
M TOR 21 4 5 6 7
M TOR 22 4 5 6 17
M TOR 23 4 6 7 8
M TOR 24 5 4 2 14
M TOR 25 5 6 4 16
M TOR 26 5 6 7 8
M TOR 27 6 4 2 14
M TOR 28 6 7 8 18
M TOR 29 7 6 4 16
M TOR 30 8 7 6 17
M  END
$$$$
