
     RDKit          3D

 19 20  0  0  0  0  0  0  0  0999 V2000
   -0.7384   -2.6606   -1.0579 O   0  0  0  0  0  0  0  0  0  0  0  0
   -0.1287   -2.8129    0.2267 C   0  0  0  0  0  0  0  0  0  0  0  0
    1.3941   -2.5230    0.1644 C   0  0  0  0  0  0  0  0  0  0  0  0
    1.8071   -1.0599    0.4161 C   0  0  0  0  0  0  0  0  0  0  0  0
    0.9229   -0.0320   -0.2645 C   0  0  0  0  0  0  0  0  0  0  0  0
    0.5589    1.1043    0.5277 O   0  0  0  0  0  0  0  0  0  0  0  0
   -0.4671    0.1586    0.1991 C   0  0  0  0  0  0  0  0  0  0  0  0
   -1.0112   -0.6985    1.2912 C   0  0  0  0  0  0  0  0  0  0  0  0
   -0.8588   -2.0237    1.3058 C   0  0  0  0  0  0  0  0  0  0  0  0
   -0.7203   -1.7258   -1.2847 H   0  0  0  0  0  0  0  0  0  0  0  0
   -0.2509   -3.8790    0.4398 H   0  0  0  0  0  0  0  0  0  0  0  0
    1.9137   -3.1523    0.8964 H   0  0  0  0  0  0  0  0  0  0  0  0
    1.7219   -2.8605   -0.8250 H   0  0  0  0  0  0  0  0  0  0  0  0
    1.7623   -0.8463    1.4869 H   0  0  0  0  0  0  0  0  0  0  0  0
    2.8487   -0.9142    0.1090 H   0  0  0  0  0  0  0  0  0  0  0  0
    1.1556    0.2122   -1.3024 H   0  0  0  0  0  0  0  0  0  0  0  0
   -1.2038    0.5643   -0.4993 H   0  0  0  0  0  0  0  0  0  0  0  0
   -1.5733   -0.1963    2.0751 H   0  0  0  0  0  0  0  0  0  0  0  0
   -1.2925   -2.5964    2.1218 H   0  0  0  0  0  0  0  0  0  0  0  0
  1  2  1  0
  2  3  1  0
  3  4  1  0
  4  5  1  0
  5  6  1  0
  6  7  1  0
  7  8  1  0
  8  9  2  0
  9  2  1  0
  7  5  1  0
  1 10  1  0
  2 11  1  0
  3 12  1  0
  3 13  1  0
  4 14  1  0
  4 15  1  0
  5 16  1  0
  7 17  1  0
  8 18  1  0
  9 19  1  0
M  END
$$$$
