gdb 5784	2.9518993	1.4757156	1.2402312	0.4349	77.01	-0.23562	0.01044	0.24606	1080.9921	0.157551	-422.533784	-422.525582	-422.524638	-422.566496	31.293
 OpenBabel02181911423D

 19 20  0  0  1  0  0  0  0  0999 V2000
    1.2914   -0.5224    0.4030 C   0  0  0  0  0  0  0  0  0  0  0  0
   -0.0906   -0.3906    0.6918 O   0  0  0  0  0  0  0  0  0  0  0  0
   -0.4620    0.9095    1.0997 C   0  0  2  0  0  0  0  0  0  0  0  0
    0.1358    1.2713    2.3312 O   0  0  0  0  0  0  0  0  0  0  0  0
   -0.4761    0.8393    3.5134 C   0  0  2  0  0  0  0  0  0  0  0  0
   -1.0507   -0.5266    3.7021 C   0  0  0  0  0  0  0  0  0  0  0  0
   -1.9816    0.6881    3.5543 C   0  0  2  0  0  0  0  0  0  0  0  0
   -2.6518    0.9027    2.2578 C   0  0  0  0  0  0  0  0  0  0  0  0
   -1.9614    0.9893    1.1201 C   0  0  0  0  0  0  0  0  0  0  0  0
    1.9111   -0.3276    1.2858 H   0  0  0  0  0  0  0  0  0  0  0  0
    1.4493   -1.5496    0.0677 H   0  0  0  0  0  0  0  0  0  0  0  0
    1.5976    0.1664   -0.3991 H   0  0  0  0  0  0  0  0  0  0  0  0
   -0.0425    1.6378    0.3884 H   0  0  0  0  0  0  0  0  0  0  0  0
    0.0207    1.3107    4.3539 H   0  0  0  0  0  0  0  0  0  0  0  0
   -1.0213   -1.2123    2.8649 H   0  0  0  0  0  0  0  0  0  0  0  0
   -0.9646   -0.9763    4.6859 H   0  0  0  0  0  0  0  0  0  0  0  0
   -2.5141    1.0155    4.4407 H   0  0  0  0  0  0  0  0  0  0  0  0
   -3.7339    0.9989    2.2519 H   0  0  0  0  0  0  0  0  0  0  0  0
   -2.4503    1.1295    0.1627 H   0  0  0  0  0  0  0  0  0  0  0  0
  1  2  1  0  0  0  0
  1 10  1  0  0  0  0
  2  3  1  0  0  0  0
  3 13  1  6  0  0  0
  3  9  1  0  0  0  0
  3  4  1  0  0  0  0
  4  5  1  0  0  0  0
  5  7  1  0  0  0  0
  5  6  1  0  0  0  0
  5 14  1  1  0  0  0
  6 16  1  0  0  0  0
  7  6  1  0  0  0  0
  7 17  1  1  0  0  0
  8  7  1  0  0  0  0
  9  8  2  0  0  0  0
 11  1  1  0  0  0  0
 12  1  1  0  0  0  0
 15  6  1  0  0  0  0
 18  8  1  0  0  0  0
 19  9  1  0  0  0  0
M TOR 0 0 1 2 3
M TOR 1 0 1 2 8
M TOR 2 0 1 2 12
M TOR 3 1 2 3 4
M TOR 4 1 2 8 7
M TOR 5 1 2 8 18
M TOR 6 2 1 0 9
M TOR 7 2 1 0 10
M TOR 8 2 1 0 11
M TOR 9 2 3 4 5
M TOR 10 2 3 4 6
M TOR 11 2 3 4 13
M TOR 12 2 8 7 6
M TOR 13 2 8 7 17
M TOR 14 3 2 8 7
M TOR 15 3 2 8 18
M TOR 16 3 4 5 6
M TOR 17 3 4 5 14
M TOR 18 3 4 5 15
M TOR 19 3 4 6 7
M TOR 20 3 4 6 16
M TOR 21 4 3 2 8
M TOR 22 4 3 2 12
M TOR 23 4 5 6 7
M TOR 24 4 5 6 16
M TOR 25 4 6 5 14
M TOR 26 4 6 5 15
M TOR 27 4 6 7 8
M TOR 28 4 6 7 17
M TOR 29 5 6 4 13
M TOR 30 5 6 7 8
M TOR 31 5 6 7 17
M TOR 32 6 7 8 18
M TOR 33 7 6 4 13
M TOR 34 7 6 5 14
M TOR 35 7 6 5 15
M TOR 36 7 8 2 12
M TOR 37 8 7 6 16
M  END
$$$$
