
     RDKit          3D

 19 19  0  0  0  0  0  0  0  0999 V2000
    1.3452   -0.3199   -0.2420 C   0  0  0  0  0  0  0  0  0  0  0  0
   -0.0323   -0.1207    0.0327 O   0  0  0  0  0  0  0  0  0  0  0  0
   -0.3128    0.6938    1.1487 C   0  0  0  0  0  0  0  0  0  0  0  0
    0.3527    2.0972    1.1313 C   0  0  0  0  0  0  0  0  0  0  0  0
    0.5164    2.7769    0.1542 O   0  0  0  0  0  0  0  0  0  0  0  0
    0.8164    2.4170    2.5576 C   0  0  0  0  0  0  0  0  0  0  0  0
    0.6801    1.0885    3.2534 C   0  0  0  0  0  0  0  0  0  0  0  0
    0.0930    0.1478    2.5055 C   0  0  0  0  0  0  0  0  0  0  0  0
   -0.2189   -1.2627    2.8891 C   0  0  0  0  0  0  0  0  0  0  0  0
    1.8865   -0.7157    0.6290 H   0  0  0  0  0  0  0  0  0  0  0  0
    1.3951   -1.0526   -1.0504 H   0  0  0  0  0  0  0  0  0  0  0  0
    1.8316    0.6062   -0.5708 H   0  0  0  0  0  0  0  0  0  0  0  0
   -1.4030    0.8400    1.1085 H   0  0  0  0  0  0  0  0  0  0  0  0
    1.8319    2.8307    2.5535 H   0  0  0  0  0  0  0  0  0  0  0  0
    0.1697    3.1962    2.9854 H   0  0  0  0  0  0  0  0  0  0  0  0
    1.0141    0.9336    4.2744 H   0  0  0  0  0  0  0  0  0  0  0  0
    0.1736   -1.5057    3.8802 H   0  0  0  0  0  0  0  0  0  0  0  0
   -1.3028   -1.4354    2.8964 H   0  0  0  0  0  0  0  0  0  0  0  0
    0.1985   -1.9698    2.1641 H   0  0  0  0  0  0  0  0  0  0  0  0
  1  2  1  0
  2  3  1  0
  3  4  1  0
  4  5  2  0
  4  6  1  0
  6  7  1  0
  7  8  2  0
  8  9  1  0
  8  3  1  0
  1 10  1  0
  1 11  1  0
  1 12  1  0
  3 13  1  0
  6 14  1  0
  6 15  1  0
  7 16  1  0
  9 17  1  0
  9 18  1  0
  9 19  1  0
M  END
$$$$
