gdb 2268	2.7984267	1.611186	1.3350577	2.7639	74.09	-0.23136	-0.01698	0.21438000000000001	1023.3389	0.157871	-422.603132	-422.595325	-422.594381	-422.635109	30.86
 OpenBabel02181911413D

 19 20  0  0  1  0  0  0  0  0999 V2000
   -3.4752   -1.2448    0.6120 C   0  0  0  0  0  0  0  0  0  0  0  0
   -2.3267   -0.4663    0.0133 C   0  0  1  0  0  0  0  0  0  0  0  0
   -2.5828    0.1779   -1.3772 C   0  0  0  0  0  0  0  0  0  0  0  0
   -1.6154    1.3966   -1.3567 C   0  0  0  0  0  0  0  0  0  0  0  0
   -0.9672    1.2327    0.0426 C   0  0  1  0  0  0  0  0  0  0  0  0
   -2.0284    0.6928    0.8313 O   0  0  0  0  0  0  0  0  0  0  0  0
   -0.0082    0.0375   -0.0565 C   0  0  0  0  0  0  0  0  0  0  0  0
    1.1872    0.0481   -0.1710 O   0  0  0  0  0  0  0  0  0  0  0  0
   -0.9525   -1.1756   -0.0059 C   0  0  0  0  0  0  0  0  0  0  0  0
   -3.2216   -1.6003    1.6148 H   0  0  0  0  0  0  0  0  0  0  0  0
   -4.3661   -0.6142    0.6841 H   0  0  0  0  0  0  0  0  0  0  0  0
   -3.7153   -2.1122   -0.0105 H   0  0  0  0  0  0  0  0  0  0  0  0
   -2.3817   -0.5160   -2.1973 H   0  0  0  0  0  0  0  0  0  0  0  0
   -3.6243    0.4980   -1.4563 H   0  0  0  0  0  0  0  0  0  0  0  0
   -0.8797    1.3893   -2.1649 H   0  0  0  0  0  0  0  0  0  0  0  0
   -2.1602    2.3419   -1.4019 H   0  0  0  0  0  0  0  0  0  0  0  0
   -0.5470    2.1281    0.4965 H   0  0  0  0  0  0  0  0  0  0  0  0
   -0.7770   -1.8530   -0.8452 H   0  0  0  0  0  0  0  0  0  0  0  0
   -0.7907   -1.7295    0.9248 H   0  0  0  0  0  0  0  0  0  0  0  0
  1 11  1  0  0  0  0
  1 10  1  0  0  0  0
  2  1  1  1  0  0  0
  2  6  1  0  0  0  0
  3  4  1  0  0  0  0
  3  2  1  0  0  0  0
  4  5  1  0  0  0  0
  5 17  1  1  0  0  0
  5  6  1  0  0  0  0
  7  9  1  0  0  0  0
  7  5  1  0  0  0  0
  8  7  2  0  0  0  0
  9  2  1  0  0  0  0
  9 19  1  0  0  0  0
 12  1  1  0  0  0  0
 13  3  1  0  0  0  0
 14  3  1  0  0  0  0
 15  4  1  0  0  0  0
 16  4  1  0  0  0  0
 18  9  1  0  0  0  0
M TOR 0 0 1 2 3
M TOR 1 0 1 2 12
M TOR 2 0 1 2 13
M TOR 3 0 1 5 4
M TOR 4 0 1 8 6
M TOR 5 0 1 8 17
M TOR 6 0 1 8 18
M TOR 7 1 2 3 4
M TOR 8 1 2 3 14
M TOR 9 1 2 3 15
M TOR 10 1 5 4 3
M TOR 11 1 5 4 6
M TOR 12 1 5 4 16
M TOR 13 1 8 6 4
M TOR 14 1 8 6 7
M TOR 15 2 1 0 9
M TOR 16 2 1 0 10
M TOR 17 2 1 0 11
M TOR 18 2 1 5 4
M TOR 19 2 1 8 6
M TOR 20 2 1 8 17
M TOR 21 2 1 8 18
M TOR 22 2 3 4 5
M TOR 23 2 3 4 6
M TOR 24 2 3 4 16
M TOR 25 3 2 1 5
M TOR 26 3 2 1 8
M TOR 27 3 4 6 7
M TOR 28 3 4 6 8
M TOR 29 4 3 2 12
M TOR 30 4 3 2 13
M TOR 31 4 5 1 8
M TOR 32 4 6 8 17
M TOR 33 4 6 8 18
M TOR 34 5 1 0 9
M TOR 35 5 1 0 10
M TOR 36 5 1 0 11
M TOR 37 5 1 2 12
M TOR 38 5 1 2 13
M TOR 39 5 1 8 6
M TOR 40 5 1 8 17
M TOR 41 5 1 8 18
M TOR 42 5 4 3 14
M TOR 43 5 4 3 15
M TOR 44 5 4 6 7
M TOR 45 5 4 6 8
M TOR 46 6 4 3 14
M TOR 47 6 4 3 15
M TOR 48 7 6 4 16
M TOR 49 7 6 8 17
M TOR 50 7 6 8 18
M TOR 51 8 1 0 9
M TOR 52 8 1 0 10
M TOR 53 8 1 0 11
M TOR 54 8 1 2 12
M TOR 55 8 1 2 13
M TOR 56 8 6 4 16
M  END
$$$$
