gdb 5719	2.7929855	0.7328132	0.625209	3.179	80.11	-0.24875	0.05027	0.29902	1813.4418	0.154004	-422.504642	-422.493979	-422.493034	-422.54346	35.956
 OpenBabel02181911423D

 19 19  0  0  1  0  0  0  0  0999 V2000
    1.6010    0.2531    0.2537 C   0  0  0  0  0  0  0  0  0  0  0  0
    0.1595    0.1095    0.1048 C   0  0  0  0  0  0  0  0  0  0  0  0
   -1.0337    0.0085   -0.0200 C   0  0  0  0  0  0  0  0  0  0  0  0
   -2.4757   -0.1561   -0.1742 C   0  0  0  0  0  0  0  0  0  0  0  0
   -2.8867   -1.6197   -0.1769 C   0  0  2  0  0  0  0  0  0  0  0  0
   -4.2772   -1.8863   -0.0080 O   0  0  0  0  0  0  0  0  0  0  0  0
   -3.3790   -2.2948    1.0299 C   0  0  1  0  0  0  0  0  0  0  0  0
   -3.2327   -3.7848    1.2703 C   0  0  0  0  0  0  0  0  0  0  0  0
   -2.8159   -4.5258    0.1405 O   0  0  0  0  0  0  0  0  0  0  0  0
    1.8862    0.3573    1.3064 H   0  0  0  0  0  0  0  0  0  0  0  0
    2.1319   -0.6171   -0.1481 H   0  0  0  0  0  0  0  0  0  0  0  0
    1.9690    1.1376   -0.2780 H   0  0  0  0  0  0  0  0  0  0  0  0
   -3.0153    0.3627    0.6273 H   0  0  0  0  0  0  0  0  0  0  0  0
   -2.8082    0.3019   -1.1155 H   0  0  0  0  0  0  0  0  0  0  0  0
   -2.4121   -2.2301   -0.9442 H   0  0  0  0  0  0  0  0  0  0  0  0
   -3.4620   -1.7037    1.9454 H   0  0  0  0  0  0  0  0  0  0  0  0
   -2.5584   -3.9317    2.1290 H   0  0  0  0  0  0  0  0  0  0  0  0
   -4.2104   -4.1904    1.5547 H   0  0  0  0  0  0  0  0  0  0  0  0
   -1.8837   -4.3396   -0.0081 H   0  0  0  0  0  0  0  0  0  0  0  0
  1 10  1  0  0  0  0
  2  1  1  0  0  0  0
  3  2  3  0  0  0  0
  4  3  1  0  0  0  0
  4 13  1  0  0  0  0
  5 15  1  6  0  0  0
  5  4  1  0  0  0  0
  5  6  1  0  0  0  0
  5  7  1  0  0  0  0
  6  7  1  0  0  0  0
  7  8  1  0  0  0  0
  7 16  1  1  0  0  0
  8 18  1  0  0  0  0
  8 17  1  0  0  0  0
  9  8  1  0  0  0  0
 11  1  1  0  0  0  0
 12  1  1  0  0  0  0
 14  4  1  0  0  0  0
 19  9  1  0  0  0  0
M TOR 0 0 1 2 3
M TOR 1 1 2 3 4
M TOR 2 1 2 3 12
M TOR 3 1 2 3 13
M TOR 4 2 1 0 9
M TOR 5 2 1 0 10
M TOR 6 2 1 0 11
M TOR 7 2 3 4 5
M TOR 8 2 3 4 6
M TOR 9 2 3 4 14
M TOR 10 3 4 5 6
M TOR 11 3 4 6 7
M TOR 12 3 4 6 15
M TOR 13 4 5 6 7
M TOR 14 4 5 6 15
M TOR 15 4 6 7 8
M TOR 16 4 6 7 16
M TOR 17 4 6 7 17
M TOR 18 5 4 3 12
M TOR 19 5 4 3 13
M TOR 20 5 6 4 14
M TOR 21 5 6 7 8
M TOR 22 5 6 7 16
M TOR 23 5 6 7 17
M TOR 24 6 4 3 12
M TOR 25 6 4 3 13
M TOR 26 6 7 8 18
M TOR 27 7 6 4 14
M TOR 28 8 7 6 15
M  END
$$$$
