
     RDKit          3D

 19 20  0  0  0  0  0  0  0  0999 V2000
    1.0205    0.1817   -0.4074 O   0  0  0  0  0  0  0  0  0  0  0  0
    0.6062    0.2277    0.9568 C   0  0  0  0  0  0  0  0  0  0  0  0
   -0.8535    0.5442    1.0888 C   0  0  0  0  0  0  0  0  0  0  0  0
   -1.4053    1.5386    1.7984 C   0  0  0  0  0  0  0  0  0  0  0  0
   -2.9112    1.5922    1.6439 C   0  0  0  0  0  0  0  0  0  0  0  0
   -3.3561    2.7951    1.0208 O   0  0  0  0  0  0  0  0  0  0  0  0
   -3.2233    0.3416    0.8146 C   0  0  0  0  0  0  0  0  0  0  0  0
   -2.8407   -0.9976    1.3805 C   0  0  0  0  0  0  0  0  0  0  0  0
   -1.9001   -0.2891    0.4210 C   0  0  0  0  0  0  0  0  0  0  0  0
    0.8550    1.0521   -0.7847 H   0  0  0  0  0  0  0  0  0  0  0  0
    0.8159   -0.7741    1.3500 H   0  0  0  0  0  0  0  0  0  0  0  0
    1.2060    0.9436    1.5376 H   0  0  0  0  0  0  0  0  0  0  0  0
   -0.8650    2.2463    2.4183 H   0  0  0  0  0  0  0  0  0  0  0  0
   -3.4306    1.5790    2.6091 H   0  0  0  0  0  0  0  0  0  0  0  0
   -2.8260    2.9092    0.2239 H   0  0  0  0  0  0  0  0  0  0  0  0
   -4.0598    0.4023    0.1282 H   0  0  0  0  0  0  0  0  0  0  0  0
   -2.5432   -1.0629    2.4227 H   0  0  0  0  0  0  0  0  0  0  0  0
   -3.3810   -1.8627    1.0090 H   0  0  0  0  0  0  0  0  0  0  0  0
   -1.7031   -0.7238   -0.5514 H   0  0  0  0  0  0  0  0  0  0  0  0
  1  2  1  0
  2  3  1  0
  3  4  2  0
  4  5  1  0
  5  6  1  0
  5  7  1  0
  7  8  1  0
  8  9  1  0
  9  3  1  0
  9  7  1  0
  1 10  1  0
  2 11  1  0
  2 12  1  0
  4 13  1  0
  5 14  1  0
  6 15  1  0
  7 16  1  0
  8 17  1  0
  8 18  1  0
  9 19  1  0
M  END
$$$$
