
     RDKit          3D

 19 21  0  0  0  0  0  0  0  0999 V2000
    1.9613   -4.1842    0.2736 C   0  0  0  0  0  0  0  0  0  0  0  0
    0.5194   -3.7710    0.3217 C   0  0  0  0  0  0  0  0  0  0  0  0
   -0.6179   -3.9603   -0.7111 C   0  0  0  0  0  0  0  0  0  0  0  0
   -1.3254   -3.2060    0.4350 C   0  0  0  0  0  0  0  0  0  0  0  0
   -0.4736   -3.9291    1.5200 C   0  0  0  0  0  0  0  0  0  0  0  0
   -0.0527   -2.7048    2.1956 O   0  0  0  0  0  0  0  0  0  0  0  0
   -0.0502   -2.3705    0.7629 C   0  0  0  0  0  0  0  0  0  0  0  0
    0.3849   -0.9826    0.4085 C   0  0  0  0  0  0  0  0  0  0  0  0
    1.6975   -0.7337    0.8805 O   0  0  0  0  0  0  0  0  0  0  0  0
    2.4681   -3.8889    1.1976 H   0  0  0  0  0  0  0  0  0  0  0  0
    2.0583   -5.2693    0.1592 H   0  0  0  0  0  0  0  0  0  0  0  0
    2.4821   -3.7081   -0.5632 H   0  0  0  0  0  0  0  0  0  0  0  0
   -0.5126   -3.4265   -1.6602 H   0  0  0  0  0  0  0  0  0  0  0  0
   -0.9453   -4.9885   -0.8909 H   0  0  0  0  0  0  0  0  0  0  0  0
   -2.3602   -2.8786    0.5311 H   0  0  0  0  0  0  0  0  0  0  0  0
   -0.7092   -4.8032    2.1273 H   0  0  0  0  0  0  0  0  0  0  0  0
    0.4012   -0.8592   -0.6798 H   0  0  0  0  0  0  0  0  0  0  0  0
   -0.3382   -0.2591    0.8179 H   0  0  0  0  0  0  0  0  0  0  0  0
    1.7097   -1.0098    1.8048 H   0  0  0  0  0  0  0  0  0  0  0  0
  1  2  1  0
  2  3  1  0
  3  4  1  0
  4  5  1  0
  5  6  1  0
  6  7  1  0
  7  8  1  0
  8  9  1  0
  5  2  1  0
  7  2  1  0
  7  4  1  0
  1 10  1  0
  1 11  1  0
  1 12  1  0
  3 13  1  0
  3 14  1  0
  4 15  1  0
  5 16  1  0
  8 17  1  0
  8 18  1  0
  9 19  1  0
M  END
$$$$
