
     RDKit          3D

 19 21  0  0  0  0  0  0  0  0999 V2000
    1.5175    0.6392    0.0830 O   0  0  0  0  0  0  0  0  0  0  0  0
    0.5599   -0.2811    0.5799 C   0  0  0  0  0  0  0  0  0  0  0  0
   -0.3633    0.3395    1.6362 C   0  0  0  0  0  0  0  0  0  0  0  0
   -1.4104   -0.6138    2.1337 C   0  0  0  0  0  0  0  0  0  0  0  0
   -1.2362   -1.8859    2.9741 C   0  0  0  0  0  0  0  0  0  0  0  0
   -2.7774   -1.8503    3.1168 C   0  0  0  0  0  0  0  0  0  0  0  0
   -3.2531   -2.1305    1.7684 O   0  0  0  0  0  0  0  0  0  0  0  0
   -2.7661   -0.8347    1.4248 C   0  0  0  0  0  0  0  0  0  0  0  0
   -2.7455   -0.3043    2.8170 C   0  0  0  0  0  0  0  0  0  0  0  0
    2.0972    0.8830    0.8116 H   0  0  0  0  0  0  0  0  0  0  0  0
   -0.0295   -0.5971   -0.2870 H   0  0  0  0  0  0  0  0  0  0  0  0
    1.0431   -1.1837    0.9862 H   0  0  0  0  0  0  0  0  0  0  0  0
    0.2467    0.6964    2.4797 H   0  0  0  0  0  0  0  0  0  0  0  0
   -0.8381    1.2285    1.2024 H   0  0  0  0  0  0  0  0  0  0  0  0
   -0.8141   -2.7852    2.5134 H   0  0  0  0  0  0  0  0  0  0  0  0
   -0.7350   -1.6667    3.9214 H   0  0  0  0  0  0  0  0  0  0  0  0
   -3.3235   -2.3839    3.8915 H   0  0  0  0  0  0  0  0  0  0  0  0
   -3.0473   -0.3960    0.4761 H   0  0  0  0  0  0  0  0  0  0  0  0
   -3.1457    0.5791    3.2954 H   0  0  0  0  0  0  0  0  0  0  0  0
  1  2  1  0
  2  3  1  0
  3  4  1  0
  4  5  1  0
  5  6  1  0
  6  7  1  0
  7  8  1  0
  8  9  1  0
  8  4  1  0
  9  4  1  0
  9  6  1  0
  1 10  1  0
  2 11  1  0
  2 12  1  0
  3 13  1  0
  3 14  1  0
  5 15  1  0
  5 16  1  0
  6 17  1  0
  8 18  1  0
  9 19  1  0
M  END
$$$$
