
     RDKit          3D

 19 21  0  0  0  0  0  0  0  0999 V2000
    0.6954    0.0495    0.8093 O   0  0  0  0  0  0  0  0  0  0  0  0
   -0.6835    0.2715    0.7692 C   0  0  0  0  0  0  0  0  0  0  0  0
   -1.4948    0.1640    2.0411 C   0  0  0  0  0  0  0  0  0  0  0  0
   -1.5724   -0.9180    0.9865 C   0  0  0  0  0  0  0  0  0  0  0  0
   -2.8448   -1.1255    0.1614 C   0  0  0  0  0  0  0  0  0  0  0  0
   -2.6828   -2.3590   -0.5361 O   0  0  0  0  0  0  0  0  0  0  0  0
   -1.7278   -3.1313    0.1477 C   0  0  0  0  0  0  0  0  0  0  0  0
   -1.9142   -3.3889    1.6208 C   0  0  0  0  0  0  0  0  0  0  0  0
   -0.9779   -2.2886    1.1386 C   0  0  0  0  0  0  0  0  0  0  0  0
    1.1043    0.7896    1.2698 H   0  0  0  0  0  0  0  0  0  0  0  0
   -1.0074    1.0024    0.0262 H   0  0  0  0  0  0  0  0  0  0  0  0
   -0.9517   -0.0721    2.9505 H   0  0  0  0  0  0  0  0  0  0  0  0
   -2.3442    0.8281    2.1747 H   0  0  0  0  0  0  0  0  0  0  0  0
   -3.7252   -1.1738    0.8202 H   0  0  0  0  0  0  0  0  0  0  0  0
   -3.0208   -0.3349   -0.5761 H   0  0  0  0  0  0  0  0  0  0  0  0
   -1.2667   -3.8689   -0.4979 H   0  0  0  0  0  0  0  0  0  0  0  0
   -2.8533   -3.1143    2.0899 H   0  0  0  0  0  0  0  0  0  0  0  0
   -1.4538   -4.2820    2.0298 H   0  0  0  0  0  0  0  0  0  0  0  0
    0.0902   -2.3703    1.2879 H   0  0  0  0  0  0  0  0  0  0  0  0
  1  2  1  0
  2  3  1  0
  3  4  1  0
  4  5  1  0
  5  6  1  0
  6  7  1  0
  7  8  1  0
  8  9  1  0
  4  2  1  0
  9  4  1  0
  9  7  1  0
  1 10  1  0
  2 11  1  0
  3 12  1  0
  3 13  1  0
  5 14  1  0
  5 15  1  0
  7 16  1  0
  8 17  1  0
  8 18  1  0
  9 19  1  0
M  END
$$$$
