
     RDKit          3D

 19 21  0  0  0  0  0  0  0  0999 V2000
    0.7097    0.7537    0.1759 C   0  0  0  0  0  0  0  0  0  0  0  0
    0.9397   -0.7470    0.3148 C   0  0  0  0  0  0  0  0  0  0  0  0
    1.5839   -1.3837   -0.9234 C   0  0  0  0  0  0  0  0  0  0  0  0
    2.2434   -2.6895   -0.5364 C   0  0  0  0  0  0  0  0  0  0  0  0
    1.8041   -3.3596    0.6289 O   0  0  0  0  0  0  0  0  0  0  0  0
    2.0943   -2.5042    1.7352 C   0  0  0  0  0  0  0  0  0  0  0  0
    2.2454   -1.1152    1.1143 C   0  0  0  0  0  0  0  0  0  0  0  0
    2.7714   -0.2154    2.0377 O   0  0  0  0  0  0  0  0  0  0  0  0
    2.9605   -1.4195   -0.2472 C   0  0  0  0  0  0  0  0  0  0  0  0
    0.4563    1.2065    1.1401 H   0  0  0  0  0  0  0  0  0  0  0  0
    1.5951    1.2638   -0.2253 H   0  0  0  0  0  0  0  0  0  0  0  0
   -0.1149    0.9579   -0.5144 H   0  0  0  0  0  0  0  0  0  0  0  0
    0.0270   -1.2329    0.6816 H   0  0  0  0  0  0  0  0  0  0  0  0
    1.3378   -1.1454   -1.9532 H   0  0  0  0  0  0  0  0  0  0  0  0
    2.5621   -3.3643   -1.3219 H   0  0  0  0  0  0  0  0  0  0  0  0
    1.2671   -2.5600    2.4497 H   0  0  0  0  0  0  0  0  0  0  0  0
    3.0261   -2.8053    2.2364 H   0  0  0  0  0  0  0  0  0  0  0  0
    2.8216    0.6537    1.6272 H   0  0  0  0  0  0  0  0  0  0  0  0
    3.9521   -1.1283   -0.5690 H   0  0  0  0  0  0  0  0  0  0  0  0
  1  2  1  0
  2  3  1  0
  3  4  1  0
  4  5  1  0
  5  6  1  0
  6  7  1  0
  7  8  1  0
  7  9  1  0
  7  2  1  0
  9  3  1  0
  9  4  1  0
  1 10  1  0
  1 11  1  0
  1 12  1  0
  2 13  1  0
  3 14  1  0
  4 15  1  0
  6 16  1  0
  6 17  1  0
  8 18  1  0
  9 19  1  0
M  END
$$$$
