gdb 3801	4.4609204	0.614845	0.559034	1.023	79.44	-0.26114	0.02652	0.28765999999999997	1951.2535	0.152974	-422.483356	-422.473034	-422.47209	-422.520065	35.676
 OpenBabel02181911413D

 19 19  0  0  1  0  0  0  0  0999 V2000
   -1.9283   -0.2924    3.7862 C   0  0  0  0  0  0  0  0  0  0  0  0
   -1.6234   -0.0663    2.3293 C   0  0  2  0  0  0  0  0  0  0  0  0
   -2.2664   -0.9431    1.3908 O   0  0  0  0  0  0  0  0  0  0  0  0
   -0.8460   -1.0173    1.5268 C   0  0  1  0  0  0  0  0  0  0  0  0
   -0.0617   -0.5881    0.3129 C   0  0  0  0  0  0  0  0  0  0  0  0
    1.2832   -0.4058    0.7075 O   0  0  0  0  0  0  0  0  0  0  0  0
    2.1251   -0.0812   -0.3820 C   0  0  0  0  0  0  0  0  0  0  0  0
    3.4975    0.0804    0.0783 C   0  0  0  0  0  0  0  0  0  0  0  0
    4.6373    0.2197    0.4293 C   0  0  0  0  0  0  0  0  0  0  0  0
   -1.9029   -1.3585    4.0270 H   0  0  0  0  0  0  0  0  0  0  0  0
   -1.1965    0.2267    4.4143 H   0  0  0  0  0  0  0  0  0  0  0  0
   -2.9222    0.0922    4.0374 H   0  0  0  0  0  0  0  0  0  0  0  0
   -1.6104    0.9770    2.0078 H   0  0  0  0  0  0  0  0  0  0  0  0
   -0.4769   -1.9214    2.0127 H   0  0  0  0  0  0  0  0  0  0  0  0
   -0.1353   -1.3604   -0.4720 H   0  0  0  0  0  0  0  0  0  0  0  0
   -0.4910    0.3394   -0.0991 H   0  0  0  0  0  0  0  0  0  0  0  0
    2.0813   -0.8717   -1.1511 H   0  0  0  0  0  0  0  0  0  0  0  0
    1.7850    0.8492   -0.8684 H   0  0  0  0  0  0  0  0  0  0  0  0
    5.6436    0.3410    0.7463 H   0  0  0  0  0  0  0  0  0  0  0  0
  1 10  1  0  0  0  0
  1 12  1  0  0  0  0
  1 11  1  0  0  0  0
  2 13  1  6  0  0  0
  2  1  1  0  0  0  0
  3  4  1  0  0  0  0
  3  2  1  0  0  0  0
  4 14  1  1  0  0  0
  4  2  1  0  0  0  0
  5  6  1  0  0  0  0
  5  4  1  0  0  0  0
  7  8  1  0  0  0  0
  7  6  1  0  0  0  0
  8  9  3  0  0  0  0
  9 19  1  0  0  0  0
 15  5  1  0  0  0  0
 16  5  1  0  0  0  0
 17  7  1  0  0  0  0
 18  7  1  0  0  0  0
M TOR 0 0 1 2 3
M TOR 1 0 1 3 4
M TOR 2 0 1 3 13
M TOR 3 1 2 3 4
M TOR 4 1 2 3 13
M TOR 5 1 3 4 5
M TOR 6 1 3 4 14
M TOR 7 1 3 4 15
M TOR 8 2 1 0 9
M TOR 9 2 1 0 10
M TOR 10 2 1 0 11
M TOR 11 2 3 1 12
M TOR 12 2 3 4 5
M TOR 13 2 3 4 14
M TOR 14 2 3 4 15
M TOR 15 3 1 0 9
M TOR 16 3 1 0 10
M TOR 17 3 1 0 11
M TOR 18 3 4 5 6
M TOR 19 4 3 1 12
M TOR 20 4 5 6 7
M TOR 21 4 5 6 16
M TOR 22 4 5 6 17
M TOR 23 5 4 3 13
M TOR 24 5 6 7 8
M TOR 25 6 5 4 14
M TOR 26 6 5 4 15
M TOR 27 6 7 8 18
M TOR 28 8 7 6 16
M TOR 29 8 7 6 17
M  END
$$$$
