
     RDKit          3D

 19 21  0  0  0  0  0  0  0  0999 V2000
   -0.0235    0.0616    0.2102 C   0  0  0  0  0  0  0  0  0  0  0  0
    1.4815   -0.0062    0.0539 C   0  0  0  0  0  0  0  0  0  0  0  0
    2.3758   -0.3782    1.3229 C   0  0  0  0  0  0  0  0  0  0  0  0
    2.0373    0.9277    1.9026 O   0  0  0  0  0  0  0  0  0  0  0  0
    2.4030    1.1862    0.4532 C   0  0  0  0  0  0  0  0  0  0  0  0
    3.2682    2.4448    0.4005 C   0  0  0  0  0  0  0  0  0  0  0  0
    4.3894    1.5531    1.1241 C   0  0  0  0  0  0  0  0  0  0  0  0
    4.5767    1.7686    2.4859 O   0  0  0  0  0  0  0  0  0  0  0  0
    3.6068    0.2541    0.6363 C   0  0  0  0  0  0  0  0  0  0  0  0
   -0.2887    0.5399    1.1551 H   0  0  0  0  0  0  0  0  0  0  0  0
   -0.4716    0.6341   -0.6088 H   0  0  0  0  0  0  0  0  0  0  0  0
   -0.4611   -0.9422    0.1869 H   0  0  0  0  0  0  0  0  0  0  0  0
    1.7906   -0.4948   -0.8756 H   0  0  0  0  0  0  0  0  0  0  0  0
    2.2750   -1.2538    1.9709 H   0  0  0  0  0  0  0  0  0  0  0  0
    3.5643    2.7149   -0.6164 H   0  0  0  0  0  0  0  0  0  0  0  0
    2.9056    3.3241    0.9380 H   0  0  0  0  0  0  0  0  0  0  0  0
    5.3694    1.6342    0.6479 H   0  0  0  0  0  0  0  0  0  0  0  0
    3.7100    1.6001    2.8824 H   0  0  0  0  0  0  0  0  0  0  0  0
    4.0314   -0.2501   -0.2335 H   0  0  0  0  0  0  0  0  0  0  0  0
  1  2  1  0
  2  3  1  0
  3  4  1  0
  4  5  1  0
  5  6  1  0
  6  7  1  0
  7  8  1  0
  7  9  1  0
  5  2  1  0
  9  5  1  0
  9  3  1  0
  1 10  1  0
  1 11  1  0
  1 12  1  0
  2 13  1  0
  3 14  1  0
  6 15  1  0
  6 16  1  0
  7 17  1  0
  8 18  1  0
  9 19  1  0
M  END
$$$$
