
     RDKit          3D

 19 21  0  0  0  0  0  0  0  0999 V2000
   -0.8623    1.0550    1.9919 C   0  0  0  0  0  0  0  0  0  0  0  0
    0.4876    0.4181    1.9899 C   0  0  0  0  0  0  0  0  0  0  0  0
    1.5502    1.1517    2.6148 O   0  0  0  0  0  0  0  0  0  0  0  0
    2.2608   -0.1008    2.8582 C   0  0  0  0  0  0  0  0  0  0  0  0
    3.2510   -0.2600    1.7157 C   0  0  0  0  0  0  0  0  0  0  0  0
    2.4201   -0.2857    0.5509 O   0  0  0  0  0  0  0  0  0  0  0  0
    1.0911   -0.5476    0.9673 C   0  0  0  0  0  0  0  0  0  0  0  0
    0.2674   -1.2084   -0.0991 C   0  0  0  0  0  0  0  0  0  0  0  0
    1.0357   -0.9306    2.4242 C   0  0  0  0  0  0  0  0  0  0  0  0
   -1.1837    1.2767    3.0147 H   0  0  0  0  0  0  0  0  0  0  0  0
   -0.8354    1.9961    1.4316 H   0  0  0  0  0  0  0  0  0  0  0  0
   -1.6073    0.4043    1.5272 H   0  0  0  0  0  0  0  0  0  0  0  0
    2.6531   -0.1724    3.8734 H   0  0  0  0  0  0  0  0  0  0  0  0
    3.9332    0.5925    1.6453 H   0  0  0  0  0  0  0  0  0  0  0  0
    3.8357   -1.1896    1.8016 H   0  0  0  0  0  0  0  0  0  0  0  0
   -0.7476   -1.4100    0.2526 H   0  0  0  0  0  0  0  0  0  0  0  0
    0.2031   -0.5706   -0.9863 H   0  0  0  0  0  0  0  0  0  0  0  0
    0.7228   -2.1584   -0.3959 H   0  0  0  0  0  0  0  0  0  0  0  0
    0.6054   -1.8144    2.8776 H   0  0  0  0  0  0  0  0  0  0  0  0
  1  2  1  0
  2  3  1  0
  3  4  1  0
  4  5  1  0
  5  6  1  0
  6  7  1  0
  7  8  1  0
  7  9  1  0
  7  2  1  0
  9  2  1  0
  9  4  1  0
  1 10  1  0
  1 11  1  0
  1 12  1  0
  4 13  1  0
  5 14  1  0
  5 15  1  0
  8 16  1  0
  8 17  1  0
  8 18  1  0
  9 19  1  0
M  END
$$$$
