
     RDKit          3D

 19 21  0  0  0  0  0  0  0  0999 V2000
    0.1979    0.7565    0.1503 C   0  0  0  0  0  0  0  0  0  0  0  0
    1.5769    0.1793   -0.0244 C   0  0  0  0  0  0  0  0  0  0  0  0
    1.5795   -1.0149   -0.8481 O   0  0  0  0  0  0  0  0  0  0  0  0
    2.5708   -0.4625   -1.7449 C   0  0  0  0  0  0  0  0  0  0  0  0
    2.7744    0.7676   -0.8529 C   0  0  0  0  0  0  0  0  0  0  0  0
    3.7340    0.5151    0.3465 C   0  0  0  0  0  0  0  0  0  0  0  0
    2.5299    0.0332    1.1722 C   0  0  0  0  0  0  0  0  0  0  0  0
    2.2576    0.2308    2.5989 C   0  0  0  0  0  0  0  0  0  0  0  0
    2.5318   -1.0667    2.0552 O   0  0  0  0  0  0  0  0  0  0  0  0
   -0.4347    0.0505    0.7002 H   0  0  0  0  0  0  0  0  0  0  0  0
    0.2310    1.6969    0.7093 H   0  0  0  0  0  0  0  0  0  0  0  0
   -0.2700    0.9403   -0.8212 H   0  0  0  0  0  0  0  0  0  0  0  0
    3.4358   -1.1251   -1.8707 H   0  0  0  0  0  0  0  0  0  0  0  0
    2.1376   -0.2493   -2.7310 H   0  0  0  0  0  0  0  0  0  0  0  0
    2.7742    1.7569   -1.3070 H   0  0  0  0  0  0  0  0  0  0  0  0
    4.4973   -0.2475    0.1686 H   0  0  0  0  0  0  0  0  0  0  0  0
    4.2177    1.4119    0.7414 H   0  0  0  0  0  0  0  0  0  0  0  0
    3.0357    0.6462    3.2390 H   0  0  0  0  0  0  0  0  0  0  0  0
    1.2371    0.3833    2.9476 H   0  0  0  0  0  0  0  0  0  0  0  0
  1  2  1  0
  2  3  1  0
  3  4  1  0
  4  5  1  0
  5  6  1  0
  6  7  1  0
  7  8  1  0
  8  9  1  0
  5  2  1  0
  9  7  1  0
  7  2  1  0
  1 10  1  0
  1 11  1  0
  1 12  1  0
  4 13  1  0
  4 14  1  0
  5 15  1  0
  6 16  1  0
  6 17  1  0
  8 18  1  0
  8 19  1  0
M  END
$$$$
