
     RDKit          3D

 19 21  0  0  0  0  0  0  0  0999 V2000
    0.3183   -0.5529   -0.2970 C   0  0  0  0  0  0  0  0  0  0  0  0
    0.7525    0.7117    0.4277 C   0  0  0  0  0  0  0  0  0  0  0  0
    2.1097    1.0874    0.0738 O   0  0  0  0  0  0  0  0  0  0  0  0
    2.7738    1.4386    1.2845 C   0  0  0  0  0  0  0  0  0  0  0  0
    1.6437    2.0111    2.1640 C   0  0  0  0  0  0  0  0  0  0  0  0
    0.7889    0.7233    1.9716 C   0  0  0  0  0  0  0  0  0  0  0  0
    1.7830   -0.3290    2.5176 C   0  0  0  0  0  0  0  0  0  0  0  0
    2.5625   -1.0484    1.5512 O   0  0  0  0  0  0  0  0  0  0  0  0
    3.1085    0.1500    2.0904 C   0  0  0  0  0  0  0  0  0  0  0  0
   -0.7328   -0.7652   -0.0713 H   0  0  0  0  0  0  0  0  0  0  0  0
    0.4012   -0.3982   -1.3771 H   0  0  0  0  0  0  0  0  0  0  0  0
    0.9299   -1.4097   -0.0207 H   0  0  0  0  0  0  0  0  0  0  0  0
    0.0867    1.5289    0.1082 H   0  0  0  0  0  0  0  0  0  0  0  0
    3.6249    2.0794    1.0535 H   0  0  0  0  0  0  0  0  0  0  0  0
    1.9460    2.1746    3.2019 H   0  0  0  0  0  0  0  0  0  0  0  0
    1.1891    2.9208    1.7613 H   0  0  0  0  0  0  0  0  0  0  0  0
   -0.1946    0.7069    2.4415 H   0  0  0  0  0  0  0  0  0  0  0  0
    1.5843   -0.8571    3.4453 H   0  0  0  0  0  0  0  0  0  0  0  0
    4.0298    0.0492    2.6576 H   0  0  0  0  0  0  0  0  0  0  0  0
  1  2  1  0
  2  3  1  0
  3  4  1  0
  4  5  1  0
  5  6  1  0
  6  7  1  0
  7  8  1  0
  8  9  1  0
  6  2  1  0
  9  7  1  0
  9  4  1  0
  1 10  1  0
  1 11  1  0
  1 12  1  0
  2 13  1  0
  4 14  1  0
  5 15  1  0
  5 16  1  0
  6 17  1  0
  7 18  1  0
  9 19  1  0
M  END
$$$$
