gdb 3195	3.2808322	1.5935407	1.3930039	0.2394	74.13	-0.23841	0.06977	0.30818	1004.2469	0.156937	-422.520115	-422.512375	-422.511431	-422.551805	30.695
 OpenBabel02181911413D

 19 21  0  0  1  0  0  0  0  0999 V2000
   -0.2031   -0.2720   -0.3265 C   0  0  0  0  0  0  0  0  0  0  0  0
    1.2940   -0.0594   -0.1350 C   0  0  1  0  0  0  0  0  0  0  0  0
    1.7899    1.3888    0.0848 C   0  0  2  0  0  0  0  0  0  0  0  0
    3.2360    1.1990    0.0870 O   0  0  0  0  0  0  0  0  0  0  0  0
    3.0491    0.5791    1.3650 C   0  0  1  0  0  0  0  0  0  0  0  0
    4.2670    0.3288    2.1958 C   0  0  0  0  0  0  0  0  0  0  0  0
    1.7960    1.4079    1.6817 C   0  0  2  0  0  0  0  0  0  0  0  0
    1.0625    0.2851    2.1690 O   0  0  0  0  0  0  0  0  0  0  0  0
    1.8606   -0.5001    1.2323 C   0  0  1  0  0  0  0  0  0  0  0  0
   -0.7669    0.1247    0.5203 H   0  0  0  0  0  0  0  0  0  0  0  0
   -0.5501    0.2233   -1.2395 H   0  0  0  0  0  0  0  0  0  0  0  0
   -0.4379   -1.3377   -0.4193 H   0  0  0  0  0  0  0  0  0  0  0  0
    1.8682   -0.4877   -0.9617 H   0  0  0  0  0  0  0  0  0  0  0  0
    1.4472    2.2015   -0.5529 H   0  0  0  0  0  0  0  0  0  0  0  0
    3.9734   -0.0505    3.1790 H   0  0  0  0  0  0  0  0  0  0  0  0
    4.9145   -0.4141    1.7184 H   0  0  0  0  0  0  0  0  0  0  0  0
    4.8418    1.2497    2.3298 H   0  0  0  0  0  0  0  0  0  0  0  0
    1.7110    2.3306    2.2531 H   0  0  0  0  0  0  0  0  0  0  0  0
    1.9395   -1.5535    1.4976 H   0  0  0  0  0  0  0  0  0  0  0  0
  1  2  1  0  0  0  0
  1 10  1  0  0  0  0
  2 13  1  6  0  0  0
  2  3  1  0  0  0  0
  2  9  1  0  0  0  0
  3 14  1  6  0  0  0
  3  4  1  0  0  0  0
  3  7  1  0  0  0  0
  4  5  1  0  0  0  0
  5  7  1  0  0  0  0
  5  6  1  1  0  0  0
  6 17  1  0  0  0  0
  6 15  1  0  0  0  0
  7  8  1  0  0  0  0
  7 18  1  1  0  0  0
  9  5  1  0  0  0  0
  9 19  1  1  0  0  0
  9  8  1  0  0  0  0
 11  1  1  0  0  0  0
 12  1  1  0  0  0  0
 16  6  1  0  0  0  0
M TOR 0 0 1 2 3
M TOR 1 0 1 2 6
M TOR 2 0 1 2 13
M TOR 3 0 1 8 4
M TOR 4 0 1 8 7
M TOR 5 0 1 8 18
M TOR 6 1 2 3 4
M TOR 7 1 2 6 4
M TOR 8 1 2 6 7
M TOR 9 1 2 6 17
M TOR 10 1 8 4 3
M TOR 11 1 8 4 5
M TOR 12 1 8 4 6
M TOR 13 1 8 7 6
M TOR 14 2 1 0 9
M TOR 15 2 1 0 10
M TOR 16 2 1 0 11
M TOR 17 2 1 8 4
M TOR 18 2 1 8 7
M TOR 19 2 1 8 18
M TOR 20 2 3 4 5
M TOR 21 2 3 4 6
M TOR 22 2 3 4 8
M TOR 23 2 6 4 5
M TOR 24 2 6 4 8
M TOR 25 2 6 7 8
M TOR 26 3 2 1 8
M TOR 27 3 2 1 12
M TOR 28 3 2 6 7
M TOR 29 3 2 6 17
M TOR 30 3 4 5 14
M TOR 31 3 4 5 15
M TOR 32 3 4 5 16
M TOR 33 3 4 6 7
M TOR 34 3 4 6 17
M TOR 35 3 4 8 7
M TOR 36 3 4 8 18
M TOR 37 4 3 2 13
M TOR 38 4 6 2 13
M TOR 39 4 6 7 8
M TOR 40 4 8 1 12
M TOR 41 5 4 6 7
M TOR 42 5 4 6 17
M TOR 43 5 4 8 7
M TOR 44 5 4 8 18
M TOR 45 6 2 1 8
M TOR 46 6 2 1 12
M TOR 47 6 4 5 14
M TOR 48 6 4 5 15
M TOR 49 6 4 5 16
M TOR 50 6 4 8 18
M TOR 51 6 7 8 18
M TOR 52 7 6 2 13
M TOR 53 7 8 1 12
M TOR 54 8 1 0 9
M TOR 55 8 1 0 10
M TOR 56 8 1 0 11
M TOR 57 8 1 2 13
M TOR 58 8 4 5 14
M TOR 59 8 4 5 15
M TOR 60 8 4 5 16
M TOR 61 8 4 6 17
M TOR 62 8 7 6 17
M  END
$$$$
