gdb 1936	3.0761576	1.4794264	1.2337586	1.0209	74.18	-0.2481	0.08061	0.32871	1064.5705	0.156359	-422.547907	-422.539684	-422.538739	-422.580025	32.611
 OpenBabel02181911403D

 19 21  0  0  1  0  0  0  0  0999 V2000
    0.2429    0.6719    0.1727 C   0  0  0  0  0  0  0  0  0  0  0  0
    1.5875    0.0068    0.0632 C   0  0  1  0  0  0  0  0  0  0  0  0
    1.8331   -0.7368   -1.1491 O   0  0  0  0  0  0  0  0  0  0  0  0
    2.6534    0.4071   -0.8753 C   0  0  2  0  0  0  0  0  0  0  0  0
    4.0300    0.0452   -0.3371 C   0  0  0  0  0  0  0  0  0  0  0  0
    3.7418   -0.5965    1.0245 C   0  0  1  0  0  0  0  0  0  0  0  0
    4.5844   -1.6104    1.4737 O   0  0  0  0  0  0  0  0  0  0  0  0
    3.1403    0.2743    2.0847 C   0  0  0  0  0  0  0  0  0  0  0  0
    2.2429   -0.6310    1.2554 C   0  0  1  0  0  0  0  0  0  0  0  0
    0.2520    1.4361    0.9566 H   0  0  0  0  0  0  0  0  0  0  0  0
   -0.0367    1.1395   -0.7748 H   0  0  0  0  0  0  0  0  0  0  0  0
   -0.5289   -0.0616    0.4306 H   0  0  0  0  0  0  0  0  0  0  0  0
    2.5327    1.2374   -1.5679 H   0  0  0  0  0  0  0  0  0  0  0  0
    4.5235   -0.6730   -1.0023 H   0  0  0  0  0  0  0  0  0  0  0  0
    4.6817    0.9229   -0.2575 H   0  0  0  0  0  0  0  0  0  0  0  0
    4.4903   -2.3581    0.8721 H   0  0  0  0  0  0  0  0  0  0  0  0
    3.3222   -0.0351    3.1074 H   0  0  0  0  0  0  0  0  0  0  0  0
    3.0978    1.3488    1.9316 H   0  0  0  0  0  0  0  0  0  0  0  0
    1.7742   -1.4820    1.7382 H   0  0  0  0  0  0  0  0  0  0  0  0
  1 12  1  0  0  0  0
  1 10  1  0  0  0  0
  2  1  1  1  0  0  0
  2  9  1  0  0  0  0
  3  4  1  0  0  0  0
  3  2  1  0  0  0  0
  4 13  1  6  0  0  0
  4  5  1  0  0  0  0
  4  2  1  0  0  0  0
  5 15  1  0  0  0  0
  5  6  1  0  0  0  0
  6  9  1  0  0  0  0
  6  7  1  1  0  0  0
  6  8  1  0  0  0  0
  8 17  1  0  0  0  0
  9 19  1  1  0  0  0
  9  8  1  0  0  0  0
 11  1  1  0  0  0  0
 14  5  1  0  0  0  0
 16  7  1  0  0  0  0
 18  8  1  0  0  0  0
M TOR 0 0 1 2 3
M TOR 1 0 1 3 4
M TOR 2 0 1 3 12
M TOR 3 0 1 8 5
M TOR 4 0 1 8 7
M TOR 5 0 1 8 18
M TOR 6 1 2 3 4
M TOR 7 1 2 3 12
M TOR 8 1 3 4 5
M TOR 9 1 3 4 13
M TOR 10 1 3 4 14
M TOR 11 1 8 5 4
M TOR 12 1 8 5 6
M TOR 13 1 8 5 7
M TOR 14 1 8 7 16
M TOR 15 1 8 7 17
M TOR 16 2 1 0 9
M TOR 17 2 1 0 10
M TOR 18 2 1 0 11
M TOR 19 2 1 8 5
M TOR 20 2 1 8 7
M TOR 21 2 1 8 18
M TOR 22 2 3 1 8
M TOR 23 2 3 4 5
M TOR 24 2 3 4 13
M TOR 25 2 3 4 14
M TOR 26 3 1 0 9
M TOR 27 3 1 0 10
M TOR 28 3 1 0 11
M TOR 29 3 1 8 5
M TOR 30 3 1 8 7
M TOR 31 3 1 8 18
M TOR 32 3 4 5 6
M TOR 33 3 4 5 7
M TOR 34 3 4 5 8
M TOR 35 4 3 1 8
M TOR 36 4 5 6 15
M TOR 37 4 5 7 8
M TOR 38 4 5 7 16
M TOR 39 4 5 7 17
M TOR 40 4 5 8 18
M TOR 41 5 4 3 12
M TOR 42 5 7 8 18
M TOR 43 5 8 7 16
M TOR 44 5 8 7 17
M TOR 45 6 5 4 13
M TOR 46 6 5 4 14
M TOR 47 6 5 7 8
M TOR 48 6 5 7 16
M TOR 49 6 5 7 17
M TOR 50 6 5 8 18
M TOR 51 7 5 4 13
M TOR 52 7 5 4 14
M TOR 53 7 5 6 15
M TOR 54 8 1 0 9
M TOR 55 8 1 0 10
M TOR 56 8 1 0 11
M TOR 57 8 1 3 12
M TOR 58 8 5 4 13
M TOR 59 8 5 4 14
M TOR 60 8 5 6 15
M  END
$$$$
