gdb 5166	3.471784	1.300645	1.0724304	2.2387	76.24	-0.24571	-0.00311	0.2426	1152.3893	0.158073	-422.558263	-422.550167	-422.549223	-422.5906	31.543
 OpenBabel02181911423D

 19 20  0  0  1  0  0  0  0  0999 V2000
    0.6915   -0.5762    0.4779 O   0  0  0  0  0  0  0  0  0  0  0  0
    0.7001    0.6762   -0.1649 C   0  0  0  0  0  0  0  0  0  0  0  0
    0.2801    0.5740   -1.6223 C   0  0  2  0  0  0  0  0  0  0  0  0
   -0.7329   -0.4567   -1.8336 O   0  0  0  0  0  0  0  0  0  0  0  0
    0.5770   -0.6392   -2.3998 C   0  0  1  0  0  0  0  0  0  0  0  0
    0.6975   -0.5370   -3.9020 C   0  0  0  0  0  0  0  0  0  0  0  0
   -0.1765    0.5880   -4.4933 C   0  0  0  0  0  0  0  0  0  0  0  0
   -0.1066    1.8565   -3.6846 C   0  0  0  0  0  0  0  0  0  0  0  0
    0.0912    1.8459   -2.3656 C   0  0  0  0  0  0  0  0  0  0  0  0
   -0.1225   -1.0071    0.1818 H   0  0  0  0  0  0  0  0  0  0  0  0
    0.0325    1.3963    0.3401 H   0  0  0  0  0  0  0  0  0  0  0  0
    1.7184    1.0769   -0.0988 H   0  0  0  0  0  0  0  0  0  0  0  0
    1.1594   -1.4213   -1.9144 H   0  0  0  0  0  0  0  0  0  0  0  0
    1.7550   -0.3489   -4.1300 H   0  0  0  0  0  0  0  0  0  0  0  0
    0.4417   -1.4947   -4.3685 H   0  0  0  0  0  0  0  0  0  0  0  0
    0.1166    0.7781   -5.5310 H   0  0  0  0  0  0  0  0  0  0  0  0
   -1.2194    0.2487   -4.5270 H   0  0  0  0  0  0  0  0  0  0  0  0
   -0.2561    2.7992   -4.2039 H   0  0  0  0  0  0  0  0  0  0  0  0
    0.1178    2.7695   -1.7936 H   0  0  0  0  0  0  0  0  0  0  0  0
  2 12  1  0  0  0  0
  2 11  1  0  0  0  0
  2  1  1  0  0  0  0
  3  2  1  1  0  0  0
  4  3  1  0  0  0  0
  5 13  1  1  0  0  0
  5  4  1  0  0  0  0
  5  3  1  0  0  0  0
  6  5  1  0  0  0  0
  7  6  1  0  0  0  0
  7  8  1  0  0  0  0
  8  9  2  0  0  0  0
  9 19  1  0  0  0  0
  9  3  1  0  0  0  0
 10  1  1  0  0  0  0
 14  6  1  0  0  0  0
 15  6  1  0  0  0  0
 16  7  1  0  0  0  0
 17  7  1  0  0  0  0
 18  8  1  0  0  0  0
M TOR 0 0 1 2 3
M TOR 1 0 1 2 4
M TOR 2 0 1 2 8
M TOR 3 1 2 3 4
M TOR 4 1 2 4 5
M TOR 5 1 2 4 12
M TOR 6 1 2 8 7
M TOR 7 1 2 8 18
M TOR 8 2 1 0 9
M TOR 9 2 3 4 5
M TOR 10 2 3 4 12
M TOR 11 2 4 5 6
M TOR 12 2 4 5 13
M TOR 13 2 4 5 14
M TOR 14 2 8 7 6
M TOR 15 2 8 7 17
M TOR 16 3 2 1 10
M TOR 17 3 2 1 11
M TOR 18 3 2 8 7
M TOR 19 3 2 8 18
M TOR 20 3 4 2 8
M TOR 21 3 4 5 6
M TOR 22 3 4 5 13
M TOR 23 3 4 5 14
M TOR 24 4 2 1 10
M TOR 25 4 2 1 11
M TOR 26 4 2 8 7
M TOR 27 4 2 8 18
M TOR 28 4 5 6 7
M TOR 29 4 5 6 15
M TOR 30 4 5 6 16
M TOR 31 5 4 2 8
M TOR 32 5 6 7 8
M TOR 33 5 6 7 17
M TOR 34 6 5 4 12
M TOR 35 6 7 8 18
M TOR 36 7 6 5 13
M TOR 37 7 6 5 14
M TOR 38 8 2 1 10
M TOR 39 8 2 1 11
M TOR 40 8 2 4 12
M TOR 41 8 7 6 15
M TOR 42 8 7 6 16
M  END
$$$$
