gdb 3052	3.7288486	1.453193	1.283439	2.2087	75.64	-0.23516	0.07717	0.31233	1041.5899	0.157488	-422.476598	-422.469071	-422.468127	-422.508137	30.014
 OpenBabel02181911413D

 19 21  0  0  1  0  0  0  0  0999 V2000
   -0.1371    0.0343    0.1830 C   0  0  0  0  0  0  0  0  0  0  0  0
    1.3584   -0.0595   -0.0436 C   0  0  2  0  0  0  0  0  0  0  0  0
    2.2967   -0.2660    1.2112 C   0  0  2  0  0  0  0  0  0  0  0  0
    1.9919    1.1018    1.6362 O   0  0  0  0  0  0  0  0  0  0  0  0
    2.2596    1.1934    0.1629 C   0  0  2  0  0  0  0  0  0  0  0  0
    2.7898    2.5382   -0.2377 C   0  0  0  0  0  0  0  0  0  0  0  0
    4.1141    2.5049    0.6002 C   0  0  0  0  0  0  0  0  0  0  0  0
    4.4884    1.1241    0.8292 O   0  0  0  0  0  0  0  0  0  0  0  0
    3.4752    0.2909    0.3488 C   0  0  1  0  0  0  0  0  0  0  0  0
   -0.3501    0.6320    1.0711 H   0  0  0  0  0  0  0  0  0  0  0  0
   -0.6329    0.4952   -0.6778 H   0  0  0  0  0  0  0  0  0  0  0  0
   -0.5704   -0.9625    0.3168 H   0  0  0  0  0  0  0  0  0  0  0  0
    1.6134   -0.6603   -0.9236 H   0  0  0  0  0  0  0  0  0  0  0  0
    2.2594   -1.0545    1.9642 H   0  0  0  0  0  0  0  0  0  0  0  0
    2.9893    2.5732   -1.3130 H   0  0  0  0  0  0  0  0  0  0  0  0
    2.1567    3.3836    0.0389 H   0  0  0  0  0  0  0  0  0  0  0  0
    4.9414    3.0032    0.0844 H   0  0  0  0  0  0  0  0  0  0  0  0
    3.9560    2.9859    1.5696 H   0  0  0  0  0  0  0  0  0  0  0  0
    3.8193   -0.3412   -0.4775 H   0  0  0  0  0  0  0  0  0  0  0  0
  1 12  1  0  0  0  0
  1 10  1  0  0  0  0
  2 13  1  6  0  0  0
  2  5  1  0  0  0  0
  2  1  1  0  0  0  0
  2  3  1  0  0  0  0
  3  4  1  0  0  0  0
  3 14  1  1  0  0  0
  5  9  1  0  0  0  0
  5  4  1  1  0  0  0
  6 16  1  0  0  0  0
  6  5  1  0  0  0  0
  6  7  1  0  0  0  0
  7  8  1  0  0  0  0
  7 18  1  0  0  0  0
  9 19  1  6  0  0  0
  9  8  1  0  0  0  0
  9  3  1  0  0  0  0
 11  1  1  0  0  0  0
 15  6  1  0  0  0  0
 17  7  1  0  0  0  0
M TOR 0 0 1 2 3
M TOR 1 0 1 2 8
M TOR 2 0 1 2 13
M TOR 3 0 1 4 3
M TOR 4 0 1 4 5
M TOR 5 0 1 4 8
M TOR 6 1 2 3 4
M TOR 7 1 2 8 4
M TOR 8 1 2 8 7
M TOR 9 1 2 8 18
M TOR 10 1 4 5 6
M TOR 11 1 4 5 14
M TOR 12 1 4 5 15
M TOR 13 1 4 8 7
M TOR 14 1 4 8 18
M TOR 15 2 1 0 9
M TOR 16 2 1 0 10
M TOR 17 2 1 0 11
M TOR 18 2 1 4 5
M TOR 19 2 3 4 5
M TOR 20 2 3 4 8
M TOR 21 2 8 4 5
M TOR 22 2 8 7 6
M TOR 23 3 2 1 12
M TOR 24 3 2 8 7
M TOR 25 3 2 8 18
M TOR 26 3 4 1 12
M TOR 27 3 4 5 6
M TOR 28 3 4 5 14
M TOR 29 3 4 5 15
M TOR 30 3 4 8 7
M TOR 31 3 4 8 18
M TOR 32 4 1 0 9
M TOR 33 4 1 0 10
M TOR 34 4 1 0 11
M TOR 35 4 1 2 13
M TOR 36 4 3 2 13
M TOR 37 4 5 6 7
M TOR 38 4 5 6 16
M TOR 39 4 5 6 17
M TOR 40 4 8 2 13
M TOR 41 4 8 7 6
M TOR 42 5 4 1 12
M TOR 43 5 4 8 7
M TOR 44 5 4 8 18
M TOR 45 5 6 7 8
M TOR 46 6 5 4 8
M TOR 47 6 7 8 18
M TOR 48 7 6 5 14
M TOR 49 7 6 5 15
M TOR 50 7 8 2 13
M TOR 51 8 2 1 12
M TOR 52 8 4 1 12
M TOR 53 8 4 5 14
M TOR 54 8 4 5 15
M TOR 55 8 7 6 16
M TOR 56 8 7 6 17
M  END
$$$$
