gdb 3575	2.2861335	1.5615498	1.0305912	4.3096	77.31	-0.25875	-0.00566	0.25309	1181.329	0.157857	-422.595668	-422.587164	-422.586219	-422.628989	31.901
 OpenBabel02181911413D

 19 19  0  0  1  0  0  0  0  0999 V2000
   -2.7714   -2.6489    0.5158 C   0  0  0  0  0  0  0  0  0  0  0  0
   -2.1811   -1.2308    0.6277 C   0  0  1  0  0  0  0  0  0  0  0  0
   -0.8176   -1.1624   -0.0925 C   0  0  0  0  0  0  0  0  0  0  0  0
   -0.0840    0.1439    0.1558 C   0  0  0  0  0  0  0  0  0  0  0  0
    0.8664    0.2391    0.8844 O   0  0  0  0  0  0  0  0  0  0  0  0
   -0.5505    1.2583   -0.4591 O   0  0  0  0  0  0  0  0  0  0  0  0
   -1.6716    1.2013   -1.3526 C   0  0  0  0  0  0  0  0  0  0  0  0
   -2.9782    0.7898   -0.7189 C   0  0  0  0  0  0  0  0  0  0  0  0
   -3.1795   -0.2160    0.1309 C   0  0  0  0  0  0  0  0  0  0  0  0
   -3.7215   -2.7209    1.0542 H   0  0  0  0  0  0  0  0  0  0  0  0
   -2.9580   -2.9145   -0.5305 H   0  0  0  0  0  0  0  0  0  0  0  0
   -2.0865   -3.3898    0.9391 H   0  0  0  0  0  0  0  0  0  0  0  0
   -2.0040   -1.0371    1.6963 H   0  0  0  0  0  0  0  0  0  0  0  0
   -0.1650   -1.9505    0.2864 H   0  0  0  0  0  0  0  0  0  0  0  0
   -0.9630   -1.3353   -1.1649 H   0  0  0  0  0  0  0  0  0  0  0  0
   -1.7573    2.2243   -1.7250 H   0  0  0  0  0  0  0  0  0  0  0  0
   -1.4240    0.5717   -2.2178 H   0  0  0  0  0  0  0  0  0  0  0  0
   -3.8273    1.4114   -0.9917 H   0  0  0  0  0  0  0  0  0  0  0  0
   -4.1866   -0.3501    0.5231 H   0  0  0  0  0  0  0  0  0  0  0  0
  1  2  1  0  0  0  0
  1 12  1  0  0  0  0
  1 10  1  0  0  0  0
  2 13  1  1  0  0  0
  3  4  1  0  0  0  0
  3 14  1  0  0  0  0
  3  2  1  0  0  0  0
  4  5  2  0  0  0  0
  6  4  1  0  0  0  0
  7  8  1  0  0  0  0
  7  6  1  0  0  0  0
  8  9  2  0  0  0  0
  9 19  1  0  0  0  0
  9  2  1  0  0  0  0
 11  1  1  0  0  0  0
 15  3  1  0  0  0  0
 16  7  1  0  0  0  0
 17  7  1  0  0  0  0
 18  8  1  0  0  0  0
M TOR 0 0 1 2 3
M TOR 1 0 1 2 13
M TOR 2 0 1 2 14
M TOR 3 0 1 8 7
M TOR 4 0 1 8 18
M TOR 5 1 2 3 4
M TOR 6 1 2 3 5
M TOR 7 1 8 7 6
M TOR 8 1 8 7 17
M TOR 9 2 1 0 9
M TOR 10 2 1 0 10
M TOR 11 2 1 0 11
M TOR 12 2 1 8 7
M TOR 13 2 1 8 18
M TOR 14 2 3 5 6
M TOR 15 3 2 1 8
M TOR 16 3 2 1 12
M TOR 17 3 5 6 7
M TOR 18 3 5 6 15
M TOR 19 3 5 6 16
M TOR 20 4 3 2 13
M TOR 21 4 3 2 14
M TOR 22 4 3 5 6
M TOR 23 5 3 2 13
M TOR 24 5 3 2 14
M TOR 25 5 6 7 8
M TOR 26 5 6 7 17
M TOR 27 6 7 8 18
M TOR 28 7 8 1 12
M TOR 29 8 1 0 9
M TOR 30 8 1 0 10
M TOR 31 8 1 0 11
M TOR 32 8 1 2 13
M TOR 33 8 1 2 14
M TOR 34 8 7 6 15
M TOR 35 8 7 6 16
M  END
$$$$
