
     RDKit          3D

 19 21  0  0  0  0  0  0  0  0999 V2000
    0.5135    0.0761    0.7996 O   0  0  0  0  0  0  0  0  0  0  0  0
   -0.8587    0.3908    0.8525 C   0  0  0  0  0  0  0  0  0  0  0  0
   -1.4049    0.4458    2.2812 C   0  0  0  0  0  0  0  0  0  0  0  0
   -2.8930    0.6425    2.4213 C   0  0  0  0  0  0  0  0  0  0  0  0
   -1.9690    1.8211    2.5805 C   0  0  0  0  0  0  0  0  0  0  0  0
   -1.7952    2.6979    1.3593 C   0  0  0  0  0  0  0  0  0  0  0  0
   -0.4891    3.5141    1.2988 C   0  0  0  0  0  0  0  0  0  0  0  0
    0.0889    2.6109    0.3231 O   0  0  0  0  0  0  0  0  0  0  0  0
   -1.1243    1.8145    0.2699 C   0  0  0  0  0  0  0  0  0  0  0  0
    0.9706    0.9311    0.7804 H   0  0  0  0  0  0  0  0  0  0  0  0
   -1.3869   -0.3710    0.2655 H   0  0  0  0  0  0  0  0  0  0  0  0
   -0.8750   -0.1357    3.0262 H   0  0  0  0  0  0  0  0  0  0  0  0
   -3.5083    0.5837    1.5262 H   0  0  0  0  0  0  0  0  0  0  0  0
   -3.3742    0.2529    3.3114 H   0  0  0  0  0  0  0  0  0  0  0  0
   -1.8659    2.2746    3.5610 H   0  0  0  0  0  0  0  0  0  0  0  0
   -2.6958    3.2453    1.0734 H   0  0  0  0  0  0  0  0  0  0  0  0
   -0.5827    4.5258    0.8884 H   0  0  0  0  0  0  0  0  0  0  0  0
    0.0990    3.5500    2.2231 H   0  0  0  0  0  0  0  0  0  0  0  0
   -1.5419    1.8106   -0.7405 H   0  0  0  0  0  0  0  0  0  0  0  0
  1  2  1  0
  2  3  1  0
  3  4  1  0
  4  5  1  0
  5  6  1  0
  6  7  1  0
  7  8  1  0
  8  9  1  0
  9  2  1  0
  5  3  1  0
  9  6  1  0
  1 10  1  0
  2 11  1  0
  3 12  1  0
  4 13  1  0
  4 14  1  0
  5 15  1  0
  6 16  1  0
  7 17  1  0
  7 18  1  0
  9 19  1  0
M  END
$$$$
