
     RDKit          3D

 19 19  0  0  0  0  0  0  0  0999 V2000
   -1.5136   -3.9519    0.9301 C   0  0  0  0  0  0  0  0  0  0  0  0
   -1.2135   -2.7547    0.0202 C   0  0  0  0  0  0  0  0  0  0  0  0
   -1.9986   -1.4618    0.3735 C   0  0  0  0  0  0  0  0  0  0  0  0
   -1.0506   -0.2856    0.0661 C   0  0  0  0  0  0  0  0  0  0  0  0
   -1.2116    0.7429    1.0225 O   0  0  0  0  0  0  0  0  0  0  0  0
    0.3175   -0.9499    0.0984 C   0  0  0  0  0  0  0  0  0  0  0  0
    1.5528   -0.1749    0.1399 C   0  0  0  0  0  0  0  0  0  0  0  0
    1.5768    1.0407    0.2014 O   0  0  0  0  0  0  0  0  0  0  0  0
    0.2205   -2.2854    0.0600 C   0  0  0  0  0  0  0  0  0  0  0  0
   -0.9283   -4.8310    0.6405 H   0  0  0  0  0  0  0  0  0  0  0  0
   -1.2805   -3.7171    1.9740 H   0  0  0  0  0  0  0  0  0  0  0  0
   -2.5727   -4.2222    0.8749 H   0  0  0  0  0  0  0  0  0  0  0  0
   -1.4405   -3.0549   -1.0150 H   0  0  0  0  0  0  0  0  0  0  0  0
   -2.9570   -1.3896   -0.1450 H   0  0  0  0  0  0  0  0  0  0  0  0
   -2.1957   -1.4359    1.4506 H   0  0  0  0  0  0  0  0  0  0  0  0
   -1.2310    0.1093   -0.9488 H   0  0  0  0  0  0  0  0  0  0  0  0
   -0.4823    1.3606    0.8746 H   0  0  0  0  0  0  0  0  0  0  0  0
    2.4965   -0.7610    0.1200 H   0  0  0  0  0  0  0  0  0  0  0  0
    1.0642   -2.9708    0.0414 H   0  0  0  0  0  0  0  0  0  0  0  0
  1  2  1  0
  2  3  1  0
  3  4  1  0
  4  5  1  0
  4  6  1  0
  6  7  1  0
  7  8  2  0
  6  9  2  0
  9  2  1  0
  1 10  1  0
  1 11  1  0
  1 12  1  0
  2 13  1  0
  3 14  1  0
  3 15  1  0
  4 16  1  0
  5 17  1  0
  7 18  1  0
  9 19  1  0
M  END
$$$$
