
     RDKit          3D

 19 21  0  0  0  0  0  0  0  0999 V2000
   -1.7463   -4.2304   -1.3988 O   0  0  0  0  0  0  0  0  0  0  0  0
   -0.5267   -3.5514   -1.4201 C   0  0  0  0  0  0  0  0  0  0  0  0
    0.3915   -3.7981   -0.2664 C   0  0  0  0  0  0  0  0  0  0  0  0
   -0.2786   -2.4429   -0.4264 C   0  0  0  0  0  0  0  0  0  0  0  0
    0.5259   -1.2437   -0.8185 C   0  0  0  0  0  0  0  0  0  0  0  0
   -0.3244   -0.1980   -1.3987 O   0  0  0  0  0  0  0  0  0  0  0  0
   -0.0176    0.6717   -0.3069 C   0  0  0  0  0  0  0  0  0  0  0  0
    1.4410    0.9989   -0.2716 C   0  0  0  0  0  0  0  0  0  0  0  0
    0.9455   -0.3073    0.3175 C   0  0  0  0  0  0  0  0  0  0  0  0
   -2.4085   -3.6539   -1.7951 H   0  0  0  0  0  0  0  0  0  0  0  0
   -0.0733   -3.4435   -2.4061 H   0  0  0  0  0  0  0  0  0  0  0  0
    0.0186   -4.4405    0.5225 H   0  0  0  0  0  0  0  0  0  0  0  0
    1.4555   -3.8813   -0.4620 H   0  0  0  0  0  0  0  0  0  0  0  0
   -1.1001   -2.2400    0.2549 H   0  0  0  0  0  0  0  0  0  0  0  0
    1.3243   -1.5286   -1.5179 H   0  0  0  0  0  0  0  0  0  0  0  0
   -0.8152    1.2862    0.0945 H   0  0  0  0  0  0  0  0  0  0  0  0
    2.0096    1.0081   -1.1978 H   0  0  0  0  0  0  0  0  0  0  0  0
    1.7404    1.7413    0.4622 H   0  0  0  0  0  0  0  0  0  0  0  0
    1.0998   -0.5999    1.3472 H   0  0  0  0  0  0  0  0  0  0  0  0
  1  2  1  0
  2  3  1  0
  3  4  1  0
  4  5  1  0
  5  6  1  0
  6  7  1  0
  7  8  1  0
  8  9  1  0
  4  2  1  0
  9  5  1  0
  9  7  1  0
  1 10  1  0
  2 11  1  0
  3 12  1  0
  3 13  1  0
  4 14  1  0
  5 15  1  0
  7 16  1  0
  8 17  1  0
  8 18  1  0
  9 19  1  0
M  END
$$$$
