gdb 453	4.7647292	0.8272907	0.7968557	1.9136	77.06	-0.25835	0.07346	0.33181000000000005	1493.8351	0.156065	-422.491598	-422.482948	-422.482004	-422.525714	31.632
 OpenBabel02181911403D

 19 21  0  0  1  0  0  0  0  0999 V2000
   -1.1755   -3.7679    1.8654 C   0  0  0  0  0  0  0  0  0  0  0  0
   -1.2617   -2.2870    2.1149 C   0  0  0  0  0  0  0  0  0  0  0  0
   -0.5440   -2.8034    0.8886 C   0  0  0  0  0  0  0  0  0  0  0  0
    0.9380   -2.6964    0.8183 C   0  0  1  0  0  0  0  0  0  0  0  0
    1.5971   -3.3892   -0.2568 O   0  0  0  0  0  0  0  0  0  0  0  0
    1.6372   -1.9636   -0.2492 C   0  0  2  0  0  0  0  0  0  0  0  0
    2.9764   -1.3276   -0.0256 C   0  0  2  0  0  0  0  0  0  0  0  0
    4.2229   -2.0615   -0.2859 C   0  0  0  0  0  0  0  0  0  0  0  0
    3.7586   -1.8396    1.0491 O   0  0  0  0  0  0  0  0  0  0  0  0
   -0.5126   -4.3523    2.4947 H   0  0  0  0  0  0  0  0  0  0  0  0
   -2.0698   -4.2938    1.5512 H   0  0  0  0  0  0  0  0  0  0  0  0
   -2.2140   -1.7889    1.9727 H   0  0  0  0  0  0  0  0  0  0  0  0
   -0.6588   -1.8699    2.9150 H   0  0  0  0  0  0  0  0  0  0  0  0
   -1.0472   -2.6778   -0.0654 H   0  0  0  0  0  0  0  0  0  0  0  0
    1.4654   -2.7825    1.7689 H   0  0  0  0  0  0  0  0  0  0  0  0
    1.0391   -1.4861   -1.0283 H   0  0  0  0  0  0  0  0  0  0  0  0
    2.9810   -0.2399   -0.1146 H   0  0  0  0  0  0  0  0  0  0  0  0
    4.1546   -3.0911   -0.6279 H   0  0  0  0  0  0  0  0  0  0  0  0
    5.1237   -1.5169   -0.5640 H   0  0  0  0  0  0  0  0  0  0  0  0
  1  2  1  0  0  0  0
  1 10  1  0  0  0  0
  2 13  1  0  0  0  0
  3  1  1  0  0  0  0
  3  2  1  0  0  0  0
  4  3  1  0  0  0  0
  4 15  1  1  0  0  0
  5  6  1  0  0  0  0
  5  4  1  0  0  0  0
  6 16  1  6  0  0  0
  6  7  1  0  0  0  0
  6  4  1  0  0  0  0
  7 17  1  6  0  0  0
  7  9  1  0  0  0  0
  8  7  1  0  0  0  0
  8  9  1  0  0  0  0
 11  1  1  0  0  0  0
 12  2  1  0  0  0  0
 14  3  1  0  0  0  0
 18  8  1  0  0  0  0
 19  8  1  0  0  0  0
M TOR 0 0 1 2 3
M TOR 1 0 1 2 13
M TOR 2 0 2 1 11
M TOR 3 0 2 1 12
M TOR 4 0 2 3 4
M TOR 5 0 2 3 5
M TOR 6 0 2 3 14
M TOR 7 1 2 0 9
M TOR 8 1 2 0 10
M TOR 9 1 2 3 4
M TOR 10 1 2 3 5
M TOR 11 1 2 3 14
M TOR 12 2 3 4 5
M TOR 13 2 3 5 6
M TOR 14 2 3 5 15
M TOR 15 3 2 0 9
M TOR 16 3 2 0 10
M TOR 17 3 2 1 11
M TOR 18 3 2 1 12
M TOR 19 3 4 5 6
M TOR 20 3 4 5 15
M TOR 21 3 5 6 7
M TOR 22 3 5 6 8
M TOR 23 3 5 6 16
M TOR 24 4 3 2 13
M TOR 25 4 5 3 14
M TOR 26 4 5 6 7
M TOR 27 4 5 6 8
M TOR 28 4 5 6 16
M TOR 29 5 3 2 13
M TOR 30 5 6 7 8
M TOR 31 5 6 7 17
M TOR 32 5 6 7 18
M TOR 33 6 5 3 14
M TOR 34 6 8 7 17
M TOR 35 6 8 7 18
M TOR 36 7 6 5 15
M TOR 37 7 8 6 16
M TOR 38 8 6 5 15
M  END
$$$$
