
     RDKit          3D

 19 21  0  0  0  0  0  0  0  0999 V2000
    0.8762   -1.6718    3.0303 C   0  0  0  0  0  0  0  0  0  0  0  0
    2.1242   -1.2793    2.2532 C   0  0  0  0  0  0  0  0  0  0  0  0
    1.9787   -0.7820    0.7912 C   0  0  0  0  0  0  0  0  0  0  0  0
    1.2944    0.4368    0.2474 C   0  0  0  0  0  0  0  0  0  0  0  0
    1.8755   -2.2432    0.2214 C   0  0  0  0  0  0  0  0  0  0  0  0
    2.9128   -2.0410   -0.7819 O   0  0  0  0  0  0  0  0  0  0  0  0
    3.3931   -1.3111    0.3839 C   0  0  0  0  0  0  0  0  0  0  0  0
    2.8562   -2.3634    1.4230 C   0  0  0  0  0  0  0  0  0  0  0  0
    3.4169   -3.5487    1.8382 O   0  0  0  0  0  0  0  0  0  0  0  0
    1.1342   -2.2645    3.9144 H   0  0  0  0  0  0  0  0  0  0  0  0
    0.3262   -0.7891    3.3736 H   0  0  0  0  0  0  0  0  0  0  0  0
    0.1947   -2.2733    2.4190 H   0  0  0  0  0  0  0  0  0  0  0  0
    2.7920   -0.6576    2.8648 H   0  0  0  0  0  0  0  0  0  0  0  0
    1.7433    1.3549    0.6418 H   0  0  0  0  0  0  0  0  0  0  0  0
    1.3796    0.4555   -0.8441 H   0  0  0  0  0  0  0  0  0  0  0  0
    0.2304    0.4472    0.5073 H   0  0  0  0  0  0  0  0  0  0  0  0
    1.0043   -2.8410   -0.0432 H   0  0  0  0  0  0  0  0  0  0  0  0
    4.3463   -0.7846    0.3245 H   0  0  0  0  0  0  0  0  0  0  0  0
    4.1175   -3.3557    2.4709 H   0  0  0  0  0  0  0  0  0  0  0  0
  1  2  1  0
  2  3  1  0
  3  4  1  0
  3  5  1  0
  5  6  1  0
  6  7  1  0
  7  8  1  0
  8  9  1  0
  8  2  1  0
  7  3  1  0
  8  5  1  0
  1 10  1  0
  1 11  1  0
  1 12  1  0
  2 13  1  0
  4 14  1  0
  4 15  1  0
  4 16  1  0
  5 17  1  0
  7 18  1  0
  9 19  1  0
M  END
$$$$
