
     RDKit          3D

 19 21  0  0  0  0  0  0  0  0999 V2000
    1.4079    0.7578   -0.5439 O   0  0  0  0  0  0  0  0  0  0  0  0
    0.1097    0.3242   -0.1611 C   0  0  0  0  0  0  0  0  0  0  0  0
   -0.8157    0.5040   -1.3388 C   0  0  0  0  0  0  0  0  0  0  0  0
   -2.2696    0.7452   -1.0174 C   0  0  0  0  0  0  0  0  0  0  0  0
   -3.1995    0.8784   -2.2575 C   0  0  0  0  0  0  0  0  0  0  0  0
   -2.4687    0.7950   -3.5899 C   0  0  0  0  0  0  0  0  0  0  0  0
   -2.3351    2.0268   -2.7654 C   0  0  0  0  0  0  0  0  0  0  0  0
   -2.6592    3.2561   -3.3052 O   0  0  0  0  0  0  0  0  0  0  0  0
   -1.4007    1.8816   -1.5248 C   0  0  0  0  0  0  0  0  0  0  0  0
    2.0151    0.5499    0.1726 H   0  0  0  0  0  0  0  0  0  0  0  0
    0.1177   -0.7363    0.1375 H   0  0  0  0  0  0  0  0  0  0  0  0
   -0.2667    0.9030    0.6989 H   0  0  0  0  0  0  0  0  0  0  0  0
   -0.5241   -0.0938   -2.1956 H   0  0  0  0  0  0  0  0  0  0  0  0
   -2.6623    0.6012   -0.0179 H   0  0  0  0  0  0  0  0  0  0  0  0
   -4.2759    0.7808   -2.1996 H   0  0  0  0  0  0  0  0  0  0  0  0
   -1.6584    0.1030   -3.7935 H   0  0  0  0  0  0  0  0  0  0  0  0
   -3.1380    0.9407   -4.4330 H   0  0  0  0  0  0  0  0  0  0  0  0
   -3.0053    3.8134   -2.5986 H   0  0  0  0  0  0  0  0  0  0  0  0
   -1.0159    2.7389   -0.9850 H   0  0  0  0  0  0  0  0  0  0  0  0
  1  2  1  0
  2  3  1  0
  3  4  1  0
  4  5  1  0
  5  6  1  0
  6  7  1  0
  7  8  1  0
  7  9  1  0
  9  3  1  0
  9  4  1  0
  7  5  1  0
  1 10  1  0
  2 11  1  0
  2 12  1  0
  3 13  1  0
  4 14  1  0
  5 15  1  0
  6 16  1  0
  6 17  1  0
  8 18  1  0
  9 19  1  0
M  END
$$$$
