gdb 4922	2.6569862	0.9989828	0.8231775	2.009	78.27	-0.25609	0.02635	0.28243999999999997	1432.412	0.153637	-422.488269	-422.478226	-422.477282	-422.52425	36.2
 OpenBabel02181911413D

 19 19  0  0  0  0  0  0  0  0999 V2000
   -3.2025    2.1718   -2.3040 O   0  0  0  0  0  0  0  0  0  0  0  0
   -1.9772    1.4991   -2.5203 C   0  0  0  0  0  0  0  0  0  0  0  0
   -1.0753    1.6000   -1.3096 C   0  0  0  0  0  0  0  0  0  0  0  0
    0.4195    1.4650   -1.4319 C   0  0  0  0  0  0  0  0  0  0  0  0
   -0.2131    2.8065   -1.1136 C   0  0  0  0  0  0  0  0  0  0  0  0
   -1.6963    1.1390   -0.1291 O   0  0  0  0  0  0  0  0  0  0  0  0
   -1.7427   -0.2817   -0.0049 C   0  0  0  0  0  0  0  0  0  0  0  0
   -2.3422   -0.6344    1.2741 C   0  0  0  0  0  0  0  0  0  0  0  0
   -2.8368   -0.9511    2.3214 C   0  0  0  0  0  0  0  0  0  0  0  0
   -3.4563    1.9778   -1.3934 H   0  0  0  0  0  0  0  0  0  0  0  0
   -2.1474    0.4403   -2.7808 H   0  0  0  0  0  0  0  0  0  0  0  0
   -1.4918    1.9653   -3.3840 H   0  0  0  0  0  0  0  0  0  0  0  0
    0.9442    0.9650   -0.6253 H   0  0  0  0  0  0  0  0  0  0  0  0
    0.8474    1.3057   -2.4161 H   0  0  0  0  0  0  0  0  0  0  0  0
   -0.1128    3.1698   -0.0979 H   0  0  0  0  0  0  0  0  0  0  0  0
   -0.2292    3.5743   -1.8788 H   0  0  0  0  0  0  0  0  0  0  0  0
   -2.3288   -0.7308   -0.8205 H   0  0  0  0  0  0  0  0  0  0  0  0
   -0.7277   -0.6999   -0.0737 H   0  0  0  0  0  0  0  0  0  0  0  0
   -3.2740   -1.2265    3.2492 H   0  0  0  0  0  0  0  0  0  0  0  0
  1 10  1  0  0  0  0
  2  1  1  0  0  0  0
  2  3  1  0  0  0  0
  3  5  1  0  0  0  0
  3  6  1  0  0  0  0
  4  3  1  0  0  0  0
  4  5  1  0  0  0  0
  4 13  1  0  0  0  0
  5 15  1  0  0  0  0
  6  7  1  0  0  0  0
  7  8  1  0  0  0  0
  8  9  3  0  0  0  0
  9 19  1  0  0  0  0
 11  2  1  0  0  0  0
 12  2  1  0  0  0  0
 14  4  1  0  0  0  0
 16  5  1  0  0  0  0
 17  7  1  0  0  0  0
 18  7  1  0  0  0  0
M TOR 0 0 1 2 3
M TOR 1 0 1 2 4
M TOR 2 0 1 2 5
M TOR 3 1 2 3 4
M TOR 4 1 2 3 12
M TOR 5 1 2 3 13
M TOR 6 1 2 4 14
M TOR 7 1 2 4 15
M TOR 8 1 2 5 6
M TOR 9 2 1 0 9
M TOR 10 2 3 4 14
M TOR 11 2 3 4 15
M TOR 12 2 4 3 12
M TOR 13 2 4 3 13
M TOR 14 2 5 6 7
M TOR 15 2 5 6 16
M TOR 16 2 5 6 17
M TOR 17 3 2 1 10
M TOR 18 3 2 1 11
M TOR 19 3 2 5 6
M TOR 20 3 4 2 5
M TOR 21 4 2 1 10
M TOR 22 4 2 1 11
M TOR 23 4 2 5 6
M TOR 24 5 2 1 10
M TOR 25 5 2 1 11
M TOR 26 5 2 3 12
M TOR 27 5 2 3 13
M TOR 28 5 2 4 14
M TOR 29 5 2 4 15
M TOR 30 5 6 7 8
M TOR 31 6 7 8 18
M TOR 32 8 7 6 16
M TOR 33 8 7 6 17
M  END
$$$$
