
     RDKit          3D

 19 20  0  0  0  0  0  0  0  0999 V2000
    3.0142    2.9873   -4.6130 C   0  0  0  0  0  0  0  0  0  0  0  0
    2.1951    3.7274   -3.5804 C   0  0  0  0  0  0  0  0  0  0  0  0
    1.7425    4.8342   -3.7757 O   0  0  0  0  0  0  0  0  0  0  0  0
    1.9295    3.0550   -2.2414 C   0  0  0  0  0  0  0  0  0  0  0  0
    2.0486    1.5224   -2.0627 C   0  0  0  0  0  0  0  0  0  0  0  0
    1.0450    1.5826   -0.8916 C   0  0  0  0  0  0  0  0  0  0  0  0
    0.4999    2.4436   -2.0613 C   0  0  0  0  0  0  0  0  0  0  0  0
   -0.8286    3.0969   -2.2596 C   0  0  0  0  0  0  0  0  0  0  0  0
    0.9082    1.3440   -2.9934 O   0  0  0  0  0  0  0  0  0  0  0  0
    3.9884    2.7036   -4.1974 H   0  0  0  0  0  0  0  0  0  0  0  0
    2.4928    2.0619   -4.8766 H   0  0  0  0  0  0  0  0  0  0  0  0
    3.1551    3.6119   -5.4960 H   0  0  0  0  0  0  0  0  0  0  0  0
    2.2779    3.6902   -1.4209 H   0  0  0  0  0  0  0  0  0  0  0  0
    2.9109    0.8706   -2.2007 H   0  0  0  0  0  0  0  0  0  0  0  0
    0.4974    0.6564   -0.7122 H   0  0  0  0  0  0  0  0  0  0  0  0
    1.3443    2.0924    0.0276 H   0  0  0  0  0  0  0  0  0  0  0  0
   -1.0085    3.8247   -1.4626 H   0  0  0  0  0  0  0  0  0  0  0  0
   -0.8567    3.6248   -3.2164 H   0  0  0  0  0  0  0  0  0  0  0  0
   -1.6270    2.3492   -2.2374 H   0  0  0  0  0  0  0  0  0  0  0  0
  1  2  1  0
  2  3  2  0
  2  4  1  0
  4  5  1  0
  5  6  1  0
  6  7  1  0
  7  8  1  0
  7  9  1  0
  7  4  1  0
  9  5  1  0
  1 10  1  0
  1 11  1  0
  1 12  1  0
  4 13  1  0
  5 14  1  0
  6 15  1  0
  6 16  1  0
  8 17  1  0
  8 18  1  0
  8 19  1  0
M  END
$$$$
