gdb 5805	2.6200811	1.316929	0.9166413	4.7169	78.43	-0.26089	-0.04407	0.21682	1282.592	0.157328	-422.608551	-422.599864	-422.59892	-422.642109	32.164
 OpenBabel02181911423D

 19 19  0  0  1  0  0  0  0  0999 V2000
    2.1302    1.5002   -0.0503 C   0  0  0  0  0  0  0  0  0  0  0  0
    1.3481    0.1894   -0.1654 C   0  0  0  0  0  0  0  0  0  0  0  0
    1.8325   -0.7088   -1.2979 C   0  0  1  0  0  0  0  0  0  0  0  0
    1.1260   -2.0617   -1.3590 C   0  0  0  0  0  0  0  0  0  0  0  0
    1.4815   -2.7662   -2.6362 C   0  0  0  0  0  0  0  0  0  0  0  0
    1.8715   -2.0711   -3.7065 C   0  0  0  0  0  0  0  0  0  0  0  0
    1.8589   -0.5902   -3.7170 C   0  0  0  0  0  0  0  0  0  0  0  0
    1.9619    0.0669   -4.7207 O   0  0  0  0  0  0  0  0  0  0  0  0
    1.6479    0.0304   -2.5254 O   0  0  0  0  0  0  0  0  0  0  0  0
    1.7369    2.1174    0.7625 H   0  0  0  0  0  0  0  0  0  0  0  0
    3.1895    1.3116    0.1560 H   0  0  0  0  0  0  0  0  0  0  0  0
    2.0649    2.0717   -0.9790 H   0  0  0  0  0  0  0  0  0  0  0  0
    1.4232   -0.3799    0.7695 H   0  0  0  0  0  0  0  0  0  0  0  0
    0.2831    0.3978   -0.3248 H   0  0  0  0  0  0  0  0  0  0  0  0
    2.9125   -0.8890   -1.1866 H   0  0  0  0  0  0  0  0  0  0  0  0
    1.4205   -2.6613   -0.4906 H   0  0  0  0  0  0  0  0  0  0  0  0
    0.0359   -1.9318   -1.2905 H   0  0  0  0  0  0  0  0  0  0  0  0
    1.4004   -3.8491   -2.6761 H   0  0  0  0  0  0  0  0  0  0  0  0
    2.1278   -2.5322   -4.6526 H   0  0  0  0  0  0  0  0  0  0  0  0
  1 11  1  0  0  0  0
  1 10  1  0  0  0  0
  2  1  1  0  0  0  0
  2 13  1  0  0  0  0
  3 15  1  1  0  0  0
  3  2  1  0  0  0  0
  4  3  1  0  0  0  0
  4 17  1  0  0  0  0
  4 16  1  0  0  0  0
  5  4  1  0  0  0  0
  6  5  2  0  0  0  0
  7  6  1  0  0  0  0
  7  9  1  0  0  0  0
  8  7  2  0  0  0  0
  9  3  1  0  0  0  0
 12  1  1  0  0  0  0
 14  2  1  0  0  0  0
 18  5  1  0  0  0  0
 19  6  1  0  0  0  0
M TOR 0 0 1 2 3
M TOR 1 0 1 2 8
M TOR 2 0 1 2 14
M TOR 3 1 2 3 4
M TOR 4 1 2 3 15
M TOR 5 1 2 3 16
M TOR 6 1 2 8 6
M TOR 7 2 1 0 9
M TOR 8 2 1 0 10
M TOR 9 2 1 0 11
M TOR 10 2 3 4 5
M TOR 11 2 3 4 17
M TOR 12 2 8 6 5
M TOR 13 2 8 6 7
M TOR 14 3 2 1 12
M TOR 15 3 2 1 13
M TOR 16 3 2 8 6
M TOR 17 3 4 5 6
M TOR 18 3 4 5 18
M TOR 19 4 3 2 8
M TOR 20 4 3 2 14
M TOR 21 4 5 6 7
M TOR 22 4 5 6 8
M TOR 23 5 4 3 15
M TOR 24 5 4 3 16
M TOR 25 6 5 4 17
M TOR 26 6 8 2 14
M TOR 27 7 6 5 18
M TOR 28 8 2 1 12
M TOR 29 8 2 1 13
M TOR 30 8 2 3 15
M TOR 31 8 2 3 16
M TOR 32 8 6 5 18
M  END
$$$$
