
     RDKit          3D

 19 18  0  0  0  0  0  0  0  0999 V2000
    2.8799    2.1221    1.4490 C   0  0  0  0  0  0  0  0  0  0  0  0
    3.2313    0.6406    1.3061 C   0  0  0  0  0  0  0  0  0  0  0  0
    2.6849   -0.0150    0.0150 C   0  0  0  0  0  0  0  0  0  0  0  0
    3.1940    0.6561   -1.1461 O   0  0  0  0  0  0  0  0  0  0  0  0
    3.2000   -1.4635   -0.1039 C   0  0  0  0  0  0  0  0  0  0  0  0
    2.6323   -2.2112   -1.2959 C   0  0  0  0  0  0  0  0  0  0  0  0
    2.3970   -3.3922   -1.2931 O   0  0  0  0  0  0  0  0  0  0  0  0
    1.2131    0.0060    0.0070 C   0  0  0  0  0  0  0  0  0  0  0  0
    0.0112    0.0395   -0.0073 C   0  0  0  0  0  0  0  0  0  0  0  0
    3.2901    2.5252    2.3790 H   0  0  0  0  0  0  0  0  0  0  0  0
    3.3002    2.7082    0.6254 H   0  0  0  0  0  0  0  0  0  0  0  0
    1.7964    2.2750    1.4650 H   0  0  0  0  0  0  0  0  0  0  0  0
    4.3200    0.5155    1.2908 H   0  0  0  0  0  0  0  0  0  0  0  0
    2.8506    0.0783    2.1659 H   0  0  0  0  0  0  0  0  0  0  0  0
    2.6727    1.4540   -1.2824 H   0  0  0  0  0  0  0  0  0  0  0  0
    4.2889   -1.4054   -0.2369 H   0  0  0  0  0  0  0  0  0  0  0  0
    2.9967   -2.0353    0.8042 H   0  0  0  0  0  0  0  0  0  0  0  0
    2.4680   -1.5862   -2.1979 H   0  0  0  0  0  0  0  0  0  0  0  0
   -1.0512    0.0560   -0.0249 H   0  0  0  0  0  0  0  0  0  0  0  0
  1  2  1  0
  2  3  1  0
  3  4  1  0
  3  5  1  0
  5  6  1  0
  6  7  2  0
  3  8  1  0
  8  9  3  0
  1 10  1  0
  1 11  1  0
  1 12  1  0
  2 13  1  0
  2 14  1  0
  4 15  1  0
  5 16  1  0
  5 17  1  0
  6 18  1  0
  9 19  1  0
M  END
$$$$
