gdb 2521	2.5919828	1.3548364	1.1001327	3.5699	79.48	-0.23626	-0.04746	0.1888	1184.0847	0.155241	-422.609891	-422.600551	-422.599607	-422.643772	34.797
 OpenBabel02181911413D

 19 19  0  0  1  0  0  0  0  0999 V2000
    1.3789    0.8326    0.1898 C   0  0  0  0  0  0  0  0  0  0  0  0
    0.0405    0.1734    0.1730 C   0  0  0  0  0  0  0  0  0  0  0  0
   -0.2145   -1.1438    0.2862 C   0  0  0  0  0  0  0  0  0  0  0  0
   -1.6560   -1.3877    0.1851 C   0  0  0  0  0  0  0  0  0  0  0  0
   -2.2554   -2.4357    0.0619 O   0  0  0  0  0  0  0  0  0  0  0  0
   -2.3731   -0.0167    0.1993 C   0  0  2  0  0  0  0  0  0  0  0  0
   -3.0918    0.1732    1.5418 C   0  0  0  0  0  0  0  0  0  0  0  0
   -3.2975    0.0348   -0.8750 O   0  0  0  0  0  0  0  0  0  0  0  0
   -1.2247    0.9868   -0.0110 C   0  0  0  0  0  0  0  0  0  0  0  0
    1.4332    1.5695    1.0010 H   0  0  0  0  0  0  0  0  0  0  0  0
    2.1906    0.1131    0.3177 H   0  0  0  0  0  0  0  0  0  0  0  0
    1.5465    1.3880   -0.7413 H   0  0  0  0  0  0  0  0  0  0  0  0
    0.5199   -1.9337    0.3853 H   0  0  0  0  0  0  0  0  0  0  0  0
   -3.7934   -0.6504    1.7056 H   0  0  0  0  0  0  0  0  0  0  0  0
   -2.3846    0.1922    2.3781 H   0  0  0  0  0  0  0  0  0  0  0  0
   -3.6498    1.1139    1.5291 H   0  0  0  0  0  0  0  0  0  0  0  0
   -3.6778   -0.8534   -0.9312 H   0  0  0  0  0  0  0  0  0  0  0  0
   -1.2747    1.3954   -1.0269 H   0  0  0  0  0  0  0  0  0  0  0  0
   -1.2601    1.8385    0.6783 H   0  0  0  0  0  0  0  0  0  0  0  0
  1 11  1  0  0  0  0
  1 10  1  0  0  0  0
  2  1  1  0  0  0  0
  2  3  2  0  0  0  0
  3 13  1  0  0  0  0
  4  6  1  0  0  0  0
  4  3  1  0  0  0  0
  5  4  2  0  0  0  0
  6  8  1  6  0  0  0
  6  7  1  0  0  0  0
  7 14  1  0  0  0  0
  7 15  1  0  0  0  0
  9  2  1  0  0  0  0
  9  6  1  0  0  0  0
  9 19  1  0  0  0  0
 12  1  1  0  0  0  0
 16  7  1  0  0  0  0
 17  8  1  0  0  0  0
 18  9  1  0  0  0  0
M TOR 0 0 1 2 3
M TOR 1 0 1 2 12
M TOR 2 0 1 8 5
M TOR 3 0 1 8 17
M TOR 4 0 1 8 18
M TOR 5 1 2 3 4
M TOR 6 1 2 3 5
M TOR 7 1 8 5 3
M TOR 8 1 8 5 6
M TOR 9 1 8 5 7
M TOR 10 2 1 0 9
M TOR 11 2 1 0 10
M TOR 12 2 1 0 11
M TOR 13 2 1 8 5
M TOR 14 2 1 8 17
M TOR 15 2 1 8 18
M TOR 16 2 3 5 6
M TOR 17 2 3 5 7
M TOR 18 2 3 5 8
M TOR 19 3 2 1 8
M TOR 20 3 5 6 13
M TOR 21 3 5 6 14
M TOR 22 3 5 6 15
M TOR 23 3 5 7 16
M TOR 24 3 5 8 17
M TOR 25 3 5 8 18
M TOR 26 4 3 2 12
M TOR 27 4 3 5 6
M TOR 28 4 3 5 7
M TOR 29 4 3 5 8
M TOR 30 5 3 2 12
M TOR 31 6 5 7 16
M TOR 32 6 5 8 17
M TOR 33 6 5 8 18
M TOR 34 7 5 6 13
M TOR 35 7 5 6 14
M TOR 36 7 5 6 15
M TOR 37 7 5 8 17
M TOR 38 7 5 8 18
M TOR 39 8 1 0 9
M TOR 40 8 1 0 10
M TOR 41 8 1 0 11
M TOR 42 8 1 2 12
M TOR 43 8 5 6 13
M TOR 44 8 5 6 14
M TOR 45 8 5 6 15
M TOR 46 8 5 7 16
M  END
$$$$
