
     RDKit          3D

 19 18  0  0  0  0  0  0  0  0999 V2000
    1.6547   -0.3650    0.0144 C   0  0  0  0  0  0  0  0  0  0  0  0
    0.2805   -0.0149   -0.0415 O   0  0  0  0  0  0  0  0  0  0  0  0
   -0.2367    0.6234    1.1247 C   0  0  0  0  0  0  0  0  0  0  0  0
   -1.7476    0.7761    0.8693 C   0  0  0  0  0  0  0  0  0  0  0  0
   -0.0099   -0.1733    2.3357 C   0  0  0  0  0  0  0  0  0  0  0  0
    0.1545   -0.8565    3.3098 C   0  0  0  0  0  0  0  0  0  0  0  0
    0.3852    2.0519    1.2814 C   0  0  0  0  0  0  0  0  0  0  0  0
    0.4353    2.8972    0.0200 C   0  0  0  0  0  0  0  0  0  0  0  0
    0.7599    2.4632    2.3496 O   0  0  0  0  0  0  0  0  0  0  0  0
    1.8570   -1.0715    0.8275 H   0  0  0  0  0  0  0  0  0  0  0  0
    1.8899   -0.8344   -0.9431 H   0  0  0  0  0  0  0  0  0  0  0  0
    2.3009    0.5150    0.1466 H   0  0  0  0  0  0  0  0  0  0  0  0
   -2.2269    1.2862    1.7080 H   0  0  0  0  0  0  0  0  0  0  0  0
   -1.9167    1.3430   -0.0492 H   0  0  0  0  0  0  0  0  0  0  0  0
   -2.1901   -0.2154    0.7543 H   0  0  0  0  0  0  0  0  0  0  0  0
    0.3071   -1.4459    4.1804 H   0  0  0  0  0  0  0  0  0  0  0  0
    0.5447    2.2895   -0.8788 H   0  0  0  0  0  0  0  0  0  0  0  0
   -0.5036    3.4570   -0.0656 H   0  0  0  0  0  0  0  0  0  0  0  0
    1.2474    3.6206    0.1088 H   0  0  0  0  0  0  0  0  0  0  0  0
  1  2  1  0
  2  3  1  0
  3  4  1  0
  3  5  1  0
  5  6  3  0
  3  7  1  0
  7  8  1  0
  7  9  2  0
  1 10  1  0
  1 11  1  0
  1 12  1  0
  4 13  1  0
  4 14  1  0
  4 15  1  0
  6 16  1  0
  8 17  1  0
  8 18  1  0
  8 19  1  0
M  END
$$$$
