gdb 5511	2.321255	1.2990598	1.2046414	1.6795	75.93	-0.24076	0.00774	0.2485	1178.1721	0.155338	-422.535468	-422.526211	-422.525267	-422.569685	33.807
 OpenBabel02181911423D

 19 20  0  0  1  0  0  0  0  0999 V2000
    2.0703    1.5313    0.2288 C   0  0  0  0  0  0  0  0  0  0  0  0
    1.5880    0.0766    0.1935 C   0  0  0  0  0  0  0  0  0  0  0  0
    2.0827   -0.6808   -1.0290 C   0  0  1  0  0  0  0  0  0  0  0  0
    3.5530   -1.2433   -1.1029 C   0  0  2  0  0  0  0  0  0  0  0  0
    3.0303   -2.2093   -2.2175 C   0  0  0  0  0  0  0  0  0  0  0  0
    1.8901   -2.2369   -1.1269 C   0  0  2  0  0  0  0  0  0  0  0  0
    0.6918   -2.9032   -1.1504 O   0  0  0  0  0  0  0  0  0  0  0  0
    3.0534   -2.3215   -0.1300 C   0  0  0  0  0  0  0  0  0  0  0  0
    3.3722   -2.9301    0.8465 O   0  0  0  0  0  0  0  0  0  0  0  0
    1.6772    2.0559    1.1047 H   0  0  0  0  0  0  0  0  0  0  0  0
    3.1632    1.5873    0.2691 H   0  0  0  0  0  0  0  0  0  0  0  0
    1.7430    2.0788   -0.6620 H   0  0  0  0  0  0  0  0  0  0  0  0
    1.9040   -0.4400    1.1083 H   0  0  0  0  0  0  0  0  0  0  0  0
    0.4910    0.0517    0.1921 H   0  0  0  0  0  0  0  0  0  0  0  0
    1.7992   -0.1792   -1.9608 H   0  0  0  0  0  0  0  0  0  0  0  0
    4.4821   -0.6839   -1.1024 H   0  0  0  0  0  0  0  0  0  0  0  0
    2.7440   -1.7134   -3.1471 H   0  0  0  0  0  0  0  0  0  0  0  0
    3.5924   -3.1281   -2.3929 H   0  0  0  0  0  0  0  0  0  0  0  0
    0.7505   -3.6514   -0.5449 H   0  0  0  0  0  0  0  0  0  0  0  0
  1 11  1  0  0  0  0
  1 10  1  0  0  0  0
  2  1  1  0  0  0  0
  2 13  1  0  0  0  0
  3 15  1  6  0  0  0
  3  2  1  0  0  0  0
  4 16  1  1  0  0  0
  4  3  1  0  0  0  0
  4  8  1  0  0  0  0
  5  6  1  0  0  0  0
  5  4  1  0  0  0  0
  6  7  1  6  0  0  0
  6  3  1  0  0  0  0
  6  8  1  0  0  0  0
  7 19  1  0  0  0  0
  8  9  2  0  0  0  0
 12  1  1  0  0  0  0
 14  2  1  0  0  0  0
 17  5  1  0  0  0  0
 18  5  1  0  0  0  0
M TOR 0 0 1 2 3
M TOR 1 0 1 2 5
M TOR 2 0 1 2 14
M TOR 3 1 2 3 4
M TOR 4 1 2 3 7
M TOR 5 1 2 3 15
M TOR 6 1 2 5 4
M TOR 7 1 2 5 6
M TOR 8 1 2 5 7
M TOR 9 2 1 0 9
M TOR 10 2 1 0 10
M TOR 11 2 1 0 11
M TOR 12 2 3 4 5
M TOR 13 2 3 4 16
M TOR 14 2 3 4 17
M TOR 15 2 3 7 5
M TOR 16 2 3 7 8
M TOR 17 2 5 4 16
M TOR 18 2 5 4 17
M TOR 19 2 5 6 18
M TOR 20 2 5 7 8
M TOR 21 3 2 1 12
M TOR 22 3 2 1 13
M TOR 23 3 2 5 6
M TOR 24 3 4 5 6
M TOR 25 3 4 5 7
M TOR 26 3 7 5 6
M TOR 27 4 3 2 14
M TOR 28 4 3 7 8
M TOR 29 4 5 2 14
M TOR 30 4 5 6 18
M TOR 31 4 5 7 8
M TOR 32 5 2 1 12
M TOR 33 5 2 1 13
M TOR 34 5 2 3 15
M TOR 35 5 4 3 15
M TOR 36 5 7 3 15
M TOR 37 6 5 2 14
M TOR 38 6 5 4 16
M TOR 39 6 5 4 17
M TOR 40 6 5 7 8
M TOR 41 7 3 2 14
M TOR 42 7 3 4 16
M TOR 43 7 3 4 17
M TOR 44 7 5 2 14
M TOR 45 7 5 4 16
M TOR 46 7 5 4 17
M TOR 47 7 5 6 18
M TOR 48 8 7 3 15
M  END
$$$$
