
     RDKit          3D

 19 21  0  0  0  0  0  0  0  0999 V2000
    0.3880    0.3597   -1.1252 C   0  0  0  0  0  0  0  0  0  0  0  0
    1.3541    0.0685   -0.0186 C   0  0  0  0  0  0  0  0  0  0  0  0
    1.3730   -1.1295    0.9026 C   0  0  0  0  0  0  0  0  0  0  0  0
    1.3037   -0.6445    2.3449 C   0  0  0  0  0  0  0  0  0  0  0  0
    1.5021    0.7729    2.2743 O   0  0  0  0  0  0  0  0  0  0  0  0
    2.0271    1.0467    0.9836 C   0  0  0  0  0  0  0  0  0  0  0  0
    3.4014    0.3352    0.7358 C   0  0  0  0  0  0  0  0  0  0  0  0
    2.6042   -0.7826    0.0654 C   0  0  0  0  0  0  0  0  0  0  0  0
    3.0734   -1.6281   -0.9232 O   0  0  0  0  0  0  0  0  0  0  0  0
    0.1934   -0.5416   -1.7148 H   0  0  0  0  0  0  0  0  0  0  0  0
   -0.5701    0.7202   -0.7340 H   0  0  0  0  0  0  0  0  0  0  0  0
    0.7782    1.1224   -1.8084 H   0  0  0  0  0  0  0  0  0  0  0  0
    0.8360   -2.0208    0.5983 H   0  0  0  0  0  0  0  0  0  0  0  0
    0.3236   -0.8398    2.7963 H   0  0  0  0  0  0  0  0  0  0  0  0
    2.0698   -1.1011    2.9876 H   0  0  0  0  0  0  0  0  0  0  0  0
    1.9759    2.1206    0.8081 H   0  0  0  0  0  0  0  0  0  0  0  0
    4.0091    0.8720    0.0016 H   0  0  0  0  0  0  0  0  0  0  0  0
    4.0037    0.1138    1.6238 H   0  0  0  0  0  0  0  0  0  0  0  0
    3.5191   -2.3728   -0.5043 H   0  0  0  0  0  0  0  0  0  0  0  0
  1  2  1  0
  2  3  1  0
  3  4  1  0
  4  5  1  0
  5  6  1  0
  6  7  1  0
  7  8  1  0
  8  9  1  0
  6  2  1  0
  8  2  1  0
  8  3  1  0
  1 10  1  0
  1 11  1  0
  1 12  1  0
  3 13  1  0
  4 14  1  0
  4 15  1  0
  6 16  1  0
  7 17  1  0
  7 18  1  0
  9 19  1  0
M  END
$$$$
