
     RDKit          3D

 19 21  0  0  0  0  0  0  0  0999 V2000
    0.2597   -0.4316   -0.3168 C   0  0  0  0  0  0  0  0  0  0  0  0
    0.7928    0.7470    0.4711 C   0  0  0  0  0  0  0  0  0  0  0  0
    2.1020    1.1708   -0.0352 O   0  0  0  0  0  0  0  0  0  0  0  0
    2.7212    0.7970    1.1955 C   0  0  0  0  0  0  0  0  0  0  0  0
    1.3861    0.4275    1.8416 C   0  0  0  0  0  0  0  0  0  0  0  0
    2.1815    1.6119    2.3196 C   0  0  0  0  0  0  0  0  0  0  0  0
    1.8934    3.1022    2.4404 C   0  0  0  0  0  0  0  0  0  0  0  0
    2.6488    2.9624    3.7815 C   0  0  0  0  0  0  0  0  0  0  0  0
    2.8058    1.5313    3.5994 O   0  0  0  0  0  0  0  0  0  0  0  0
   -0.7033   -0.7588    0.0909 H   0  0  0  0  0  0  0  0  0  0  0  0
    0.1127   -0.1479   -1.3633 H   0  0  0  0  0  0  0  0  0  0  0  0
    0.9602   -1.2708   -0.2782 H   0  0  0  0  0  0  0  0  0  0  0  0
    0.0827    1.5847    0.4446 H   0  0  0  0  0  0  0  0  0  0  0  0
    3.6953    0.3206    1.1764 H   0  0  0  0  0  0  0  0  0  0  0  0
    1.1105   -0.3900    2.4954 H   0  0  0  0  0  0  0  0  0  0  0  0
    2.3624    3.7312    1.6831 H   0  0  0  0  0  0  0  0  0  0  0  0
    0.8379    3.3659    2.5334 H   0  0  0  0  0  0  0  0  0  0  0  0
    3.6193    3.4688    3.8293 H   0  0  0  0  0  0  0  0  0  0  0  0
    2.0756    3.1893    4.6862 H   0  0  0  0  0  0  0  0  0  0  0  0
  1  2  1  0
  2  3  1  0
  3  4  1  0
  4  5  1  0
  5  6  1  0
  6  7  1  0
  7  8  1  0
  8  9  1  0
  5  2  1  0
  9  6  1  0
  6  4  1  0
  1 10  1  0
  1 11  1  0
  1 12  1  0
  2 13  1  0
  4 14  1  0
  5 15  1  0
  7 16  1  0
  7 17  1  0
  8 18  1  0
  8 19  1  0
M  END
$$$$
