gdb 2973	2.3917608	1.5319249	1.2521813	2.9219	75.04	-0.2384	-0.00926	0.22914	1084.1594	0.157213	-422.568878	-422.560493	-422.559549	-422.60144	32.316
 OpenBabel02181911413D

 19 20  0  0  1  0  0  0  0  0999 V2000
   -0.8597   -0.0028    2.4448 C   0  0  0  0  0  0  0  0  0  0  0  0
   -1.5410   -0.0248    1.0831 C   0  0  1  0  0  0  0  0  0  0  0  0
   -1.0412    1.0300    0.0342 C   0  0  2  0  0  0  0  0  0  0  0  0
   -1.9510    0.7246   -1.1775 C   0  0  0  0  0  0  0  0  0  0  0  0
   -1.9090   -0.8485   -1.1724 C   0  0  2  0  0  0  0  0  0  0  0  0
   -3.1703   -1.4775   -1.1003 O   0  0  0  0  0  0  0  0  0  0  0  0
   -0.9876   -1.0765    0.0510 C   0  0  1  0  0  0  0  0  0  0  0  0
    0.0813    0.0041   -0.2160 C   0  0  0  0  0  0  0  0  0  0  0  0
    1.2613    0.0295   -0.3966 O   0  0  0  0  0  0  0  0  0  0  0  0
   -1.1257   -0.8900    3.0284 H   0  0  0  0  0  0  0  0  0  0  0  0
    0.2311    0.0193    2.3513 H   0  0  0  0  0  0  0  0  0  0  0  0
   -1.1637    0.8789    3.0182 H   0  0  0  0  0  0  0  0  0  0  0  0
   -2.6305   -0.0377    1.2021 H   0  0  0  0  0  0  0  0  0  0  0  0
   -0.8460    2.0693    0.2939 H   0  0  0  0  0  0  0  0  0  0  0  0
   -2.9753    1.0779   -1.0216 H   0  0  0  0  0  0  0  0  0  0  0  0
   -1.5824    1.1562   -2.1114 H   0  0  0  0  0  0  0  0  0  0  0  0
   -1.4563   -1.2460   -2.0839 H   0  0  0  0  0  0  0  0  0  0  0  0
   -3.6220   -1.1731   -0.3063 H   0  0  0  0  0  0  0  0  0  0  0  0
   -0.7428   -2.1025    0.3182 H   0  0  0  0  0  0  0  0  0  0  0  0
  1 12  1  0  0  0  0
  1 10  1  0  0  0  0
  2 13  1  1  0  0  0
  2  1  1  0  0  0  0
  3 14  1  1  0  0  0
  3  2  1  0  0  0  0
  4  5  1  0  0  0  0
  4 15  1  0  0  0  0
  4  3  1  0  0  0  0
  5 17  1  6  0  0  0
  5  6  1  0  0  0  0
  5  7  1  0  0  0  0
  6 18  1  0  0  0  0
  7 19  1  1  0  0  0
  7  2  1  0  0  0  0
  8  3  1  0  0  0  0
  8  7  1  0  0  0  0
  9  8  2  0  0  0  0
 11  1  1  0  0  0  0
 16  4  1  0  0  0  0
M TOR 0 0 1 2 3
M TOR 1 0 1 2 7
M TOR 2 0 1 2 13
M TOR 3 0 1 6 4
M TOR 4 0 1 6 7
M TOR 5 0 1 6 18
M TOR 6 1 2 3 4
M TOR 7 1 2 3 14
M TOR 8 1 2 3 15
M TOR 9 1 2 7 6
M TOR 10 1 2 7 8
M TOR 11 1 6 4 3
M TOR 12 1 6 4 5
M TOR 13 1 6 4 16
M TOR 14 1 6 7 8
M TOR 15 2 1 0 9
M TOR 16 2 1 0 10
M TOR 17 2 1 0 11
M TOR 18 2 1 6 4
M TOR 19 2 1 6 18
M TOR 20 2 3 4 5
M TOR 21 2 3 4 6
M TOR 22 2 3 4 16
M TOR 23 2 7 6 4
M TOR 24 2 7 6 18
M TOR 25 3 2 1 6
M TOR 26 3 2 1 12
M TOR 27 3 2 7 6
M TOR 28 3 2 7 8
M TOR 29 3 4 5 17
M TOR 30 3 4 6 7
M TOR 31 3 4 6 18
M TOR 32 4 3 2 7
M TOR 33 4 3 2 13
M TOR 34 4 6 1 12
M TOR 35 4 6 7 8
M TOR 36 5 4 3 14
M TOR 37 5 4 3 15
M TOR 38 5 4 6 7
M TOR 39 5 4 6 18
M TOR 40 6 1 0 9
M TOR 41 6 1 0 10
M TOR 42 6 1 0 11
M TOR 43 6 1 2 13
M TOR 44 6 4 3 14
M TOR 45 6 4 3 15
M TOR 46 6 4 5 17
M TOR 47 6 7 2 13
M TOR 48 7 2 1 12
M TOR 49 7 2 3 14
M TOR 50 7 2 3 15
M TOR 51 7 6 1 12
M TOR 52 7 6 4 16
M TOR 53 8 7 2 13
M TOR 54 8 7 6 18
M  END
$$$$
