
     RDKit          3D

 19 21  0  0  0  0  0  0  0  0999 V2000
    2.4998   -0.6867   -0.9102 C   0  0  0  0  0  0  0  0  0  0  0  0
    2.2308   -2.0010   -1.6029 C   0  0  0  0  0  0  0  0  0  0  0  0
    3.2363   -2.6793   -2.4282 C   0  0  0  0  0  0  0  0  0  0  0  0
    2.1559   -1.9669   -3.0339 O   0  0  0  0  0  0  0  0  0  0  0  0
    1.2828    0.2255   -0.9237 C   0  0  0  0  0  0  0  0  0  0  0  0
    0.1526    0.0063    0.1271 C   0  0  0  0  0  0  0  0  0  0  0  0
   -0.3075    1.4678   -0.0763 C   0  0  0  0  0  0  0  0  0  0  0  0
    1.2318    1.4276    0.0606 C   0  0  0  0  0  0  0  0  0  0  0  0
    1.0735    0.4780    1.1907 O   0  0  0  0  0  0  0  0  0  0  0  0
    2.7955   -0.8691    0.1280 H   0  0  0  0  0  0  0  0  0  0  0  0
    3.3352   -0.1881   -1.4164 H   0  0  0  0  0  0  0  0  0  0  0  0
    1.4589   -2.6222   -1.1435 H   0  0  0  0  0  0  0  0  0  0  0  0
    4.2203   -2.2274   -2.5495 H   0  0  0  0  0  0  0  0  0  0  0  0
    3.2074   -3.7620   -2.5436 H   0  0  0  0  0  0  0  0  0  0  0  0
    0.9397    0.4350   -1.9414 H   0  0  0  0  0  0  0  0  0  0  0  0
   -0.4423   -0.8831    0.3387 H   0  0  0  0  0  0  0  0  0  0  0  0
   -0.7352    1.7474   -1.0422 H   0  0  0  0  0  0  0  0  0  0  0  0
   -0.8324    1.9057    0.7728 H   0  0  0  0  0  0  0  0  0  0  0  0
    1.9404    2.2466    0.1911 H   0  0  0  0  0  0  0  0  0  0  0  0
  1  2  1  0
  2  3  1  0
  3  4  1  0
  1  5  1  0
  5  6  1  0
  6  7  1  0
  7  8  1  0
  8  9  1  0
  4  2  1  0
  8  5  1  0
  9  6  1  0
  1 10  1  0
  1 11  1  0
  2 12  1  0
  3 13  1  0
  3 14  1  0
  5 15  1  0
  6 16  1  0
  7 17  1  0
  7 18  1  0
  8 19  1  0
M  END
$$$$
