
     RDKit          3D

 19 21  0  0  0  0  0  0  0  0999 V2000
    1.4554    0.1652   -0.1953 C   0  0  0  0  0  0  0  0  0  0  0  0
    1.1969    1.6559    0.1612 C   0  0  0  0  0  0  0  0  0  0  0  0
    1.5147    2.0223    1.6113 C   0  0  0  0  0  0  0  0  0  0  0  0
    0.8576    1.1843    2.5649 O   0  0  0  0  0  0  0  0  0  0  0  0
   -0.4155    0.7032    2.1823 C   0  0  0  0  0  0  0  0  0  0  0  0
   -1.1378    1.6885    1.2552 C   0  0  0  0  0  0  0  0  0  0  0  0
   -0.3448    1.4070   -0.0177 C   0  0  0  0  0  0  0  0  0  0  0  0
   -0.0430   -0.1222    0.0589 C   0  0  0  0  0  0  0  0  0  0  0  0
   -0.3183   -0.4850    1.4114 O   0  0  0  0  0  0  0  0  0  0  0  0
    1.7208    0.0375   -1.2487 H   0  0  0  0  0  0  0  0  0  0  0  0
    2.1581   -0.3923    0.4285 H   0  0  0  0  0  0  0  0  0  0  0  0
    1.6515    2.3954   -0.5035 H   0  0  0  0  0  0  0  0  0  0  0  0
    2.5869    1.9239    1.8116 H   0  0  0  0  0  0  0  0  0  0  0  0
    1.2421    3.0736    1.7915 H   0  0  0  0  0  0  0  0  0  0  0  0
   -0.9286    0.4376    3.1077 H   0  0  0  0  0  0  0  0  0  0  0  0
   -2.1901    1.4105    1.1492 H   0  0  0  0  0  0  0  0  0  0  0  0
   -1.0787    2.7219    1.6053 H   0  0  0  0  0  0  0  0  0  0  0  0
   -0.7749    1.7776   -0.9473 H   0  0  0  0  0  0  0  0  0  0  0  0
   -0.5567   -0.8298   -0.5949 H   0  0  0  0  0  0  0  0  0  0  0  0
  1  2  1  0
  2  3  1  0
  3  4  1  0
  4  5  1  0
  5  6  1  0
  6  7  1  0
  7  8  1  0
  8  9  1  0
  8  1  1  0
  7  2  1  0
  9  5  1  0
  1 10  1  0
  1 11  1  0
  2 12  1  0
  3 13  1  0
  3 14  1  0
  5 15  1  0
  6 16  1  0
  6 17  1  0
  7 18  1  0
  8 19  1  0
M  END
$$$$
