
     RDKit          3D

 19 20  0  0  0  0  0  0  0  0999 V2000
    0.0119    0.0225    0.0611 C   0  0  0  0  0  0  0  0  0  0  0  0
    1.5379    0.0373   -0.0076 C   0  0  0  0  0  0  0  0  0  0  0  0
    1.9974   -0.5949    1.1861 O   0  0  0  0  0  0  0  0  0  0  0  0
    3.3168   -1.0556    1.1954 C   0  0  0  0  0  0  0  0  0  0  0  0
    4.5252   -0.1072    0.9904 C   0  0  0  0  0  0  0  0  0  0  0  0
    5.1052   -1.0285    0.0414 O   0  0  0  0  0  0  0  0  0  0  0  0
    3.8587   -1.7863   -0.0512 C   0  0  0  0  0  0  0  0  0  0  0  0
    3.0906   -1.4532   -1.2904 C   0  0  0  0  0  0  0  0  0  0  0  0
    2.0608   -0.6100   -1.2629 C   0  0  0  0  0  0  0  0  0  0  0  0
   -0.3239    0.4920    0.9891 H   0  0  0  0  0  0  0  0  0  0  0  0
   -0.4156    0.5715   -0.7832 H   0  0  0  0  0  0  0  0  0  0  0  0
   -0.3587   -1.0061    0.0372 H   0  0  0  0  0  0  0  0  0  0  0  0
    1.8705    1.0913   -0.0043 H   0  0  0  0  0  0  0  0  0  0  0  0
    3.4159   -1.6470    2.1076 H   0  0  0  0  0  0  0  0  0  0  0  0
    4.2732    0.8583    0.5319 H   0  0  0  0  0  0  0  0  0  0  0  0
    5.1792    0.0621    1.8520 H   0  0  0  0  0  0  0  0  0  0  0  0
    4.0580   -2.8598    0.0387 H   0  0  0  0  0  0  0  0  0  0  0  0
    3.4348   -1.8833   -2.2272 H   0  0  0  0  0  0  0  0  0  0  0  0
    1.5462   -0.3327   -2.1801 H   0  0  0  0  0  0  0  0  0  0  0  0
  1  2  1  0
  2  3  1  0
  3  4  1  0
  4  5  1  0
  5  6  1  0
  6  7  1  0
  7  8  1  0
  8  9  2  0
  9  2  1  0
  7  4  1  0
  1 10  1  0
  1 11  1  0
  1 12  1  0
  2 13  1  0
  4 14  1  0
  5 15  1  0
  5 16  1  0
  7 17  1  0
  8 18  1  0
  9 19  1  0
M  END
$$$$
