
     RDKit          3D

 19 21  0  0  0  0  0  0  0  0999 V2000
   -0.0744   -0.0885    0.1142 C   0  0  0  0  0  0  0  0  0  0  0  0
    1.4306   -0.0381    0.0407 C   0  0  0  0  0  0  0  0  0  0  0  0
    2.0480   -0.6484    1.1367 O   0  0  0  0  0  0  0  0  0  0  0  0
    2.1303    1.1739   -0.5811 C   0  0  0  0  0  0  0  0  0  0  0  0
    2.1639   -0.1639   -1.2569 C   0  0  0  0  0  0  0  0  0  0  0  0
    3.3684   -0.9670   -1.2395 O   0  0  0  0  0  0  0  0  0  0  0  0
    2.9602   -1.5768   -2.4766 C   0  0  0  0  0  0  0  0  0  0  0  0
    2.8985   -0.5605   -3.5708 C   0  0  0  0  0  0  0  0  0  0  0  0
    1.7381   -0.6980   -2.5995 C   0  0  0  0  0  0  0  0  0  0  0  0
   -0.4256    0.4336    1.0103 H   0  0  0  0  0  0  0  0  0  0  0  0
   -0.5307    0.3903   -0.7573 H   0  0  0  0  0  0  0  0  0  0  0  0
   -0.4230   -1.1249    0.1679 H   0  0  0  0  0  0  0  0  0  0  0  0
    2.7679   -1.1867    0.7776 H   0  0  0  0  0  0  0  0  0  0  0  0
    1.5286    1.9636   -1.0207 H   0  0  0  0  0  0  0  0  0  0  0  0
    3.0493    1.4986   -0.1043 H   0  0  0  0  0  0  0  0  0  0  0  0
    3.1200   -2.6418   -2.5896 H   0  0  0  0  0  0  0  0  0  0  0  0
    3.5496    0.3077   -3.5316 H   0  0  0  0  0  0  0  0  0  0  0  0
    2.7072   -0.9555   -4.5639 H   0  0  0  0  0  0  0  0  0  0  0  0
    0.7259   -0.9313   -2.8991 H   0  0  0  0  0  0  0  0  0  0  0  0
  1  2  1  0
  2  3  1  0
  2  4  1  0
  4  5  1  0
  5  6  1  0
  6  7  1  0
  7  8  1  0
  8  9  1  0
  5  2  1  0
  9  5  1  0
  9  7  1  0
  1 10  1  0
  1 11  1  0
  1 12  1  0
  3 13  1  0
  4 14  1  0
  4 15  1  0
  7 16  1  0
  8 17  1  0
  8 18  1  0
  9 19  1  0
M  END
$$$$
