
     RDKit          3D

 19 19  0  0  0  0  0  0  0  0999 V2000
    3.2857   -0.3672   -1.4808 C   0  0  0  0  0  0  0  0  0  0  0  0
    2.0472   -0.0764   -0.6080 C   0  0  0  0  0  0  0  0  0  0  0  0
    2.0043    1.3410   -0.1228 C   0  0  0  0  0  0  0  0  0  0  0  0
    1.3475    2.3735   -0.6747 C   0  0  0  0  0  0  0  0  0  0  0  0
    1.5852    3.6264    0.0697 C   0  0  0  0  0  0  0  0  0  0  0  0
    1.0755    4.7056   -0.1242 O   0  0  0  0  0  0  0  0  0  0  0  0
    2.6184    3.2983    1.1596 C   0  0  0  0  0  0  0  0  0  0  0  0
    2.7265    1.7624    1.1476 C   0  0  0  0  0  0  0  0  0  0  0  0
    4.0540    1.2509    1.1294 O   0  0  0  0  0  0  0  0  0  0  0  0
    3.2816   -1.4123   -1.8045 H   0  0  0  0  0  0  0  0  0  0  0  0
    3.2872    0.2664   -2.3727 H   0  0  0  0  0  0  0  0  0  0  0  0
    4.2025   -0.1745   -0.9214 H   0  0  0  0  0  0  0  0  0  0  0  0
    1.1393   -0.2899   -1.1825 H   0  0  0  0  0  0  0  0  0  0  0  0
    2.0536   -0.7534    0.2546 H   0  0  0  0  0  0  0  0  0  0  0  0
    0.7053    2.3334   -1.5466 H   0  0  0  0  0  0  0  0  0  0  0  0
    3.5831    3.7281    0.8694 H   0  0  0  0  0  0  0  0  0  0  0  0
    2.3275    3.7332    2.1189 H   0  0  0  0  0  0  0  0  0  0  0  0
    2.1799    1.3319    2.0037 H   0  0  0  0  0  0  0  0  0  0  0  0
    4.4494    1.4157    1.9909 H   0  0  0  0  0  0  0  0  0  0  0  0
  1  2  1  0
  2  3  1  0
  3  4  2  0
  4  5  1  0
  5  6  2  0
  5  7  1  0
  7  8  1  0
  8  9  1  0
  8  3  1  0
  1 10  1  0
  1 11  1  0
  1 12  1  0
  2 13  1  0
  2 14  1  0
  4 15  1  0
  7 16  1  0
  7 17  1  0
  8 18  1  0
  9 19  1  0
M  END
$$$$
