
     RDKit          3D

 19 19  0  0  0  0  0  0  0  0999 V2000
    0.0507    2.3964    0.3057 C   0  0  0  0  0  0  0  0  0  0  0  0
   -0.8285    1.1918   -0.0432 C   0  0  0  0  0  0  0  0  0  0  0  0
   -2.1272    1.1593    0.7379 C   0  0  0  0  0  0  0  0  0  0  0  0
   -2.6805    0.0543    1.2328 C   0  0  0  0  0  0  0  0  0  0  0  0
   -2.0871   -1.3220    1.0863 C   0  0  0  0  0  0  0  0  0  0  0  0
   -0.9802   -1.3738    0.0279 C   0  0  0  0  0  0  0  0  0  0  0  0
   -1.6186   -1.3909   -1.2494 O   0  0  0  0  0  0  0  0  0  0  0  0
   -0.0905   -0.1307    0.1434 C   0  0  0  0  0  0  0  0  0  0  0  0
    1.0952   -0.2100    0.3662 O   0  0  0  0  0  0  0  0  0  0  0  0
    0.3371    2.3775    1.3612 H   0  0  0  0  0  0  0  0  0  0  0  0
    0.9685    2.3912   -0.2861 H   0  0  0  0  0  0  0  0  0  0  0  0
   -0.4864    3.3298    0.1114 H   0  0  0  0  0  0  0  0  0  0  0  0
   -1.0909    1.2401   -1.1124 H   0  0  0  0  0  0  0  0  0  0  0  0
   -2.6124    2.1218    0.8838 H   0  0  0  0  0  0  0  0  0  0  0  0
   -3.6131    0.1243    1.7868 H   0  0  0  0  0  0  0  0  0  0  0  0
   -1.6824   -1.6621    2.0494 H   0  0  0  0  0  0  0  0  0  0  0  0
   -2.8570   -2.0496    0.8021 H   0  0  0  0  0  0  0  0  0  0  0  0
   -0.3493   -2.2603    0.1690 H   0  0  0  0  0  0  0  0  0  0  0  0
   -0.9389   -1.5324   -1.9169 H   0  0  0  0  0  0  0  0  0  0  0  0
  1  2  1  0
  2  3  1  0
  3  4  2  0
  4  5  1  0
  5  6  1  0
  6  7  1  0
  6  8  1  0
  8  9  2  0
  8  2  1  0
  1 10  1  0
  1 11  1  0
  1 12  1  0
  2 13  1  0
  3 14  1  0
  4 15  1  0
  5 16  1  0
  5 17  1  0
  6 18  1  0
  7 19  1  0
M  END
$$$$
