gdb 2291	2.3473347	1.9426068	1.4680321	3.4207	74.65	-0.22582	-0.01603	0.20979	974.2569	0.15788	-422.597721	-422.589899	-422.588955	-422.62963	30.783
 OpenBabel02181911413D

 19 20  0  0  1  0  0  0  0  0999 V2000
   -0.2524    2.5576   -0.3639 C   0  0  0  0  0  0  0  0  0  0  0  0
   -0.9385    1.2439   -0.1041 C   0  0  2  0  0  0  0  0  0  0  0  0
   -1.9707    0.6739   -1.0855 C   0  0  0  0  0  0  0  0  0  0  0  0
   -2.3405   -0.5156   -0.1662 C   0  0  2  0  0  0  0  0  0  0  0  0
   -2.6628    0.2541    1.1212 C   0  0  0  0  0  0  0  0  0  0  0  0
   -1.6813    1.3067    1.1454 O   0  0  0  0  0  0  0  0  0  0  0  0
   -0.9697   -1.1958    0.0385 C   0  0  0  0  0  0  0  0  0  0  0  0
   -0.0225    0.0177    0.1165 C   0  0  0  0  0  0  0  0  0  0  0  0
    1.1589    0.0158    0.3342 O   0  0  0  0  0  0  0  0  0  0  0  0
    0.4811    2.7579    0.4212 H   0  0  0  0  0  0  0  0  0  0  0  0
    0.2781    2.5267   -1.3199 H   0  0  0  0  0  0  0  0  0  0  0  0
   -0.9797    3.3734   -0.3875 H   0  0  0  0  0  0  0  0  0  0  0  0
   -2.7989    1.3638   -1.2679 H   0  0  0  0  0  0  0  0  0  0  0  0
   -1.5325    0.3665   -2.0396 H   0  0  0  0  0  0  0  0  0  0  0  0
   -3.1380   -1.1730   -0.5125 H   0  0  0  0  0  0  0  0  0  0  0  0
   -3.6703    0.6902    1.1067 H   0  0  0  0  0  0  0  0  0  0  0  0
   -2.5621   -0.3588    2.0245 H   0  0  0  0  0  0  0  0  0  0  0  0
   -0.8975   -1.8174    0.9355 H   0  0  0  0  0  0  0  0  0  0  0  0
   -0.6872   -1.8161   -0.8196 H   0  0  0  0  0  0  0  0  0  0  0  0
  1 10  1  0  0  0  0
  2  1  1  6  0  0  0
  2  8  1  0  0  0  0
  2  6  1  0  0  0  0
  3  4  1  0  0  0  0
  3  2  1  0  0  0  0
  4 15  1  6  0  0  0
  4  7  1  0  0  0  0
  4  5  1  0  0  0  0
  5  6  1  0  0  0  0
  5 17  1  0  0  0  0
  7  8  1  0  0  0  0
  7 18  1  0  0  0  0
  8  9  2  0  0  0  0
 11  1  1  0  0  0  0
 12  1  1  0  0  0  0
 13  3  1  0  0  0  0
 14  3  1  0  0  0  0
 16  5  1  0  0  0  0
 19  7  1  0  0  0  0
M TOR 0 0 1 2 3
M TOR 1 0 1 2 12
M TOR 2 0 1 2 13
M TOR 3 0 1 5 4
M TOR 4 0 1 7 6
M TOR 5 0 1 7 8
M TOR 6 1 2 3 4
M TOR 7 1 2 3 6
M TOR 8 1 2 3 14
M TOR 9 1 5 4 3
M TOR 10 1 5 4 15
M TOR 11 1 5 4 16
M TOR 12 1 7 6 3
M TOR 13 1 7 6 17
M TOR 14 1 7 6 18
M TOR 15 2 1 0 9
M TOR 16 2 1 0 10
M TOR 17 2 1 0 11
M TOR 18 2 1 5 4
M TOR 19 2 1 7 6
M TOR 20 2 1 7 8
M TOR 21 2 3 4 5
M TOR 22 2 3 4 15
M TOR 23 2 3 4 16
M TOR 24 2 3 6 7
M TOR 25 2 3 6 17
M TOR 26 2 3 6 18
M TOR 27 3 2 1 5
M TOR 28 3 2 1 7
M TOR 29 3 6 7 8
M TOR 30 4 3 2 12
M TOR 31 4 3 2 13
M TOR 32 4 3 6 7
M TOR 33 4 3 6 17
M TOR 34 4 3 6 18
M TOR 35 4 5 1 7
M TOR 36 5 1 0 9
M TOR 37 5 1 0 10
M TOR 38 5 1 0 11
M TOR 39 5 1 2 12
M TOR 40 5 1 2 13
M TOR 41 5 1 7 6
M TOR 42 5 1 7 8
M TOR 43 5 4 3 6
M TOR 44 5 4 3 14
M TOR 45 6 3 2 12
M TOR 46 6 3 2 13
M TOR 47 6 3 4 15
M TOR 48 6 3 4 16
M TOR 49 7 1 0 9
M TOR 50 7 1 0 10
M TOR 51 7 1 0 11
M TOR 52 7 1 2 12
M TOR 53 7 1 2 13
M TOR 54 7 6 3 14
M TOR 55 8 7 6 17
M TOR 56 8 7 6 18
M  END
$$$$
