gdb 6093	5.507838	0.5601056	0.5149021	1.8301	80.99	-0.25572	-0.05846	0.19726	2098.4518	0.152618	-422.523797	-422.512965	-422.51202	-422.561349	36.558
 OpenBabel02181911423D

 19 18  0  0  0  0  0  0  0  0999 V2000
    0.3874   -4.0319   -1.7814 C   0  0  0  0  0  0  0  0  0  0  0  0
   -0.7141   -3.0802   -1.3474 C   0  0  0  0  0  0  0  0  0  0  0  0
   -0.1542   -2.0997   -0.4960 O   0  0  0  0  0  0  0  0  0  0  0  0
   -1.1002   -1.1617   -0.0351 C   0  0  0  0  0  0  0  0  0  0  0  0
   -0.3681   -0.1744    0.8626 C   0  0  0  0  0  0  0  0  0  0  0  0
   -1.2772    0.8962    1.4292 C   0  0  0  0  0  0  0  0  0  0  0  0
   -2.4646    0.9565    1.1892 O   0  0  0  0  0  0  0  0  0  0  0  0
   -0.6284    1.8683    2.2962 C   0  0  0  0  0  0  0  0  0  0  0  0
   -0.0748    2.6633    3.0105 C   0  0  0  0  0  0  0  0  0  0  0  0
    0.8383   -4.5194   -0.9123 H   0  0  0  0  0  0  0  0  0  0  0  0
   -0.0154   -4.8045   -2.4430 H   0  0  0  0  0  0  0  0  0  0  0  0
    1.1733   -3.4914   -2.3166 H   0  0  0  0  0  0  0  0  0  0  0  0
   -1.1794   -2.5993   -2.2245 H   0  0  0  0  0  0  0  0  0  0  0  0
   -1.5144   -3.6271   -0.8206 H   0  0  0  0  0  0  0  0  0  0  0  0
   -1.5753   -0.6320   -0.8755 H   0  0  0  0  0  0  0  0  0  0  0  0
   -1.9095   -1.6567    0.5240 H   0  0  0  0  0  0  0  0  0  0  0  0
    0.1172   -0.6995    1.6953 H   0  0  0  0  0  0  0  0  0  0  0  0
    0.4475    0.3126    0.3127 H   0  0  0  0  0  0  0  0  0  0  0  0
    0.3976    3.3751    3.6433 H   0  0  0  0  0  0  0  0  0  0  0  0
  1  2  1  0  0  0  0
  1 10  1  0  0  0  0
  2 14  1  0  0  0  0
  2  3  1  0  0  0  0
  3  4  1  0  0  0  0
  4 16  1  0  0  0  0
  4  5  1  0  0  0  0
  5  6  1  0  0  0  0
  5 17  1  0  0  0  0
  6  8  1  0  0  0  0
  7  6  2  0  0  0  0
  8  9  3  0  0  0  0
  9 19  1  0  0  0  0
 11  1  1  0  0  0  0
 12  1  1  0  0  0  0
 13  2  1  0  0  0  0
 15  4  1  0  0  0  0
 18  5  1  0  0  0  0
M TOR 0 0 1 2 3
M TOR 1 1 2 3 4
M TOR 2 1 2 3 14
M TOR 3 1 2 3 15
M TOR 4 2 1 0 9
M TOR 5 2 1 0 10
M TOR 6 2 1 0 11
M TOR 7 2 3 4 5
M TOR 8 2 3 4 16
M TOR 9 2 3 4 17
M TOR 10 3 2 1 12
M TOR 11 3 2 1 13
M TOR 12 3 4 5 6
M TOR 13 3 4 5 7
M TOR 14 4 5 7 8
M TOR 15 5 4 3 14
M TOR 16 5 4 3 15
M TOR 17 5 7 8 18
M TOR 18 6 5 4 16
M TOR 19 6 5 4 17
M TOR 20 6 5 7 8
M TOR 21 7 5 4 16
M TOR 22 7 5 4 17
M  END
$$$$
