gdb 5758	4.2066792	1.1184266	1.0739378	0.9145	74.91	-0.24316	0.07135	0.31450999999999996	1189.729	0.156398	-422.477337	-422.469334	-422.46839	-422.509962	30.582
 OpenBabel02181911423D

 19 21  0  0  1  0  0  0  0  0999 V2000
    1.4431   -0.1323    0.0002 C   0  0  0  0  0  0  0  0  0  0  0  0
    0.0448    0.0383    0.0521 O   0  0  0  0  0  0  0  0  0  0  0  0
   -0.3866    0.7060    1.2132 C   0  0  1  0  0  0  0  0  0  0  0  0
   -0.1979    2.2637    1.2080 C   0  0  0  0  0  0  0  0  0  0  0  0
   -1.7424    2.4468    1.2241 C   0  0  2  0  0  0  0  0  0  0  0  0
   -2.4421    2.4501    2.6073 C   0  0  2  0  0  0  0  0  0  0  0  0
   -1.7014    1.5934    3.4848 O   0  0  0  0  0  0  0  0  0  0  0  0
   -2.6249    0.9876    2.5676 C   0  0  2  0  0  0  0  0  0  0  0  0
   -1.9265    0.8942    1.1900 C   0  0  2  0  0  0  0  0  0  0  0  0
    1.8118   -0.7132    0.8603 H   0  0  0  0  0  0  0  0  0  0  0  0
    1.6712   -0.6767   -0.9195 H   0  0  0  0  0  0  0  0  0  0  0  0
    1.9783    0.8292   -0.0175 H   0  0  0  0  0  0  0  0  0  0  0  0
    0.0025    0.2119    2.1136 H   0  0  0  0  0  0  0  0  0  0  0  0
    0.3448    2.6863    2.0553 H   0  0  0  0  0  0  0  0  0  0  0  0
    0.2507    2.6063    0.2721 H   0  0  0  0  0  0  0  0  0  0  0  0
   -2.2041    3.0885    0.4742 H   0  0  0  0  0  0  0  0  0  0  0  0
   -3.0286    3.2339    3.0738 H   0  0  0  0  0  0  0  0  0  0  0  0
   -3.3843    0.3443    2.9979 H   0  0  0  0  0  0  0  0  0  0  0  0
   -2.4682    0.3921    0.3903 H   0  0  0  0  0  0  0  0  0  0  0  0
  1  2  1  0  0  0  0
  1 10  1  0  0  0  0
  2  3  1  0  0  0  0
  3 13  1  1  0  0  0
  4  3  1  0  0  0  0
  4  5  1  0  0  0  0
  4 14  1  0  0  0  0
  5 16  1  6  0  0  0
  5  6  1  0  0  0  0
  6 17  1  1  0  0  0
  6  7  1  0  0  0  0
  8  6  1  0  0  0  0
  8 18  1  1  0  0  0
  8  7  1  0  0  0  0
  9 19  1  6  0  0  0
  9  3  1  0  0  0  0
  9  5  1  0  0  0  0
  9  8  1  0  0  0  0
 11  1  1  0  0  0  0
 12  1  1  0  0  0  0
 15  4  1  0  0  0  0
M TOR 0 0 1 2 3
M TOR 1 0 1 2 8
M TOR 2 0 1 2 12
M TOR 3 1 2 3 4
M TOR 4 1 2 3 13
M TOR 5 1 2 3 14
M TOR 6 1 2 8 4
M TOR 7 1 2 8 7
M TOR 8 1 2 8 18
M TOR 9 2 1 0 9
M TOR 10 2 1 0 10
M TOR 11 2 1 0 11
M TOR 12 2 3 4 5
M TOR 13 2 3 4 8
M TOR 14 2 3 4 15
M TOR 15 2 8 4 5
M TOR 16 2 8 4 15
M TOR 17 2 8 7 5
M TOR 18 2 8 7 6
M TOR 19 2 8 7 17
M TOR 20 3 2 8 7
M TOR 21 3 2 8 18
M TOR 22 3 4 5 6
M TOR 23 3 4 5 7
M TOR 24 3 4 5 16
M TOR 25 3 4 8 7
M TOR 26 3 4 8 18
M TOR 27 4 3 2 12
M TOR 28 4 5 6 7
M TOR 29 4 5 7 8
M TOR 30 4 5 7 17
M TOR 31 4 8 2 12
M TOR 32 4 8 7 6
M TOR 33 4 8 7 17
M TOR 34 5 4 3 13
M TOR 35 5 4 3 14
M TOR 36 5 4 8 18
M TOR 37 5 6 7 8
M TOR 38 5 6 7 17
M TOR 39 5 7 8 18
M TOR 40 6 5 4 8
M TOR 41 6 5 4 15
M TOR 42 6 7 5 16
M TOR 43 6 7 8 18
M TOR 44 7 5 4 15
M TOR 45 7 8 2 12
M TOR 46 7 8 4 15
M TOR 47 8 2 3 13
M TOR 48 8 2 3 14
M TOR 49 8 4 3 13
M TOR 50 8 4 3 14
M TOR 51 8 4 5 16
M TOR 52 8 7 5 16
M  END
$$$$
