gdb 619	2.7542527	1.9311505	1.5709433	2.6098	72.81	-0.22052	0.07689	0.29741	918.8381	0.160598	-422.537323	-422.530408	-422.529464	-422.568623	27.643
 OpenBabel02181911403D

 19 21  0  0  1  0  0  0  0  0999 V2000
    0.2765    2.4517   -0.0157 C   0  0  0  0  0  0  0  0  0  0  0  0
   -0.6205    1.4031   -0.3836 O   0  0  0  0  0  0  0  0  0  0  0  0
   -0.1066    0.1773    0.0337 C   0  0  1  0  0  0  0  0  0  0  0  0
    1.2520   -0.2620   -0.4604 C   0  0  1  0  0  0  0  0  0  0  0  0
    1.8985    0.5168   -1.4200 O   0  0  0  0  0  0  0  0  0  0  0  0
    3.1049    1.0823   -0.9037 C   0  0  0  0  0  0  0  0  0  0  0  0
    2.8225    2.0956    0.2318 C   0  0  0  0  0  0  0  0  0  0  0  0
    1.4267    1.8532    0.8527 C   0  0  2  0  0  0  0  0  0  0  0  0
    1.0941    0.3621    0.9158 C   0  0  1  0  0  0  0  0  0  0  0  0
    0.6764    2.9138   -0.9242 H   0  0  0  0  0  0  0  0  0  0  0  0
   -0.2959    3.2102    0.5328 H   0  0  0  0  0  0  0  0  0  0  0  0
   -0.8774   -0.5636    0.2151 H   0  0  0  0  0  0  0  0  0  0  0  0
    1.4526   -1.3317   -0.5302 H   0  0  0  0  0  0  0  0  0  0  0  0
    3.7599    0.2761   -0.5437 H   0  0  0  0  0  0  0  0  0  0  0  0
    3.5994    1.5578   -1.7539 H   0  0  0  0  0  0  0  0  0  0  0  0
    3.5964    2.0036    1.0014 H   0  0  0  0  0  0  0  0  0  0  0  0
    2.8782    3.1230   -0.1442 H   0  0  0  0  0  0  0  0  0  0  0  0
    1.3978    2.2852    1.8559 H   0  0  0  0  0  0  0  0  0  0  0  0
    1.2739   -0.1996    1.8243 H   0  0  0  0  0  0  0  0  0  0  0  0
  1 11  1  0  0  0  0
  1  8  1  0  0  0  0
  2  1  1  0  0  0  0
  2  3  1  0  0  0  0
  3 12  1  1  0  0  0
  3  9  1  0  0  0  0
  4 13  1  6  0  0  0
  4  3  1  0  0  0  0
  4  9  1  0  0  0  0
  5  6  1  0  0  0  0
  5  4  1  0  0  0  0
  6 14  1  0  0  0  0
  6  7  1  0  0  0  0
  7  8  1  0  0  0  0
  7 16  1  0  0  0  0
  8  9  1  0  0  0  0
  8 18  1  1  0  0  0
  9 19  1  1  0  0  0
 10  1  1  0  0  0  0
 15  6  1  0  0  0  0
 17  7  1  0  0  0  0
M TOR 0 0 1 2 3
M TOR 1 0 1 2 8
M TOR 2 0 1 2 11
M TOR 3 0 7 6 5
M TOR 4 0 7 6 15
M TOR 5 0 7 6 16
M TOR 6 0 7 8 2
M TOR 7 0 7 8 3
M TOR 8 0 7 8 18
M TOR 9 1 0 7 6
M TOR 10 1 0 7 8
M TOR 11 1 0 7 17
M TOR 12 1 2 3 4
M TOR 13 1 2 3 8
M TOR 14 1 2 3 12
M TOR 15 1 2 8 7
M TOR 16 1 2 8 18
M TOR 17 2 1 0 7
M TOR 18 2 1 0 9
M TOR 19 2 1 0 10
M TOR 20 2 3 4 5
M TOR 21 2 3 8 7
M TOR 22 2 3 8 18
M TOR 23 2 8 3 4
M TOR 24 2 8 3 12
M TOR 25 2 8 7 6
M TOR 26 2 8 7 17
M TOR 27 3 4 5 6
M TOR 28 3 4 5 13
M TOR 29 3 4 5 14
M TOR 30 3 8 2 11
M TOR 31 3 8 7 6
M TOR 32 3 8 7 17
M TOR 33 4 3 2 11
M TOR 34 4 3 8 7
M TOR 35 4 3 8 18
M TOR 36 4 5 6 7
M TOR 37 4 5 6 15
M TOR 38 4 5 6 16
M TOR 39 5 4 3 8
M TOR 40 5 4 3 12
M TOR 41 5 6 7 8
M TOR 42 5 6 7 17
M TOR 43 6 7 0 9
M TOR 44 6 7 0 10
M TOR 45 6 7 8 18
M TOR 46 7 6 5 13
M TOR 47 7 6 5 14
M TOR 48 7 8 2 11
M TOR 49 7 8 3 12
M TOR 50 8 7 0 9
M TOR 51 8 7 0 10
M TOR 52 8 7 6 15
M TOR 53 8 7 6 16
M  END
$$$$
