gdb 682	3.6351307	1.0365594	0.9220652	4.4094	75.05	-0.26159	0.01626	0.27785	1302.7939	0.158148	-422.590208	-422.581968	-422.581024	-422.623794	30.7
 OpenBabel02181911403D

 19 20  0  0  1  0  0  0  0  0999 V2000
    1.1908   -0.0125    0.4276 O   0  0  0  0  0  0  0  0  0  0  0  0
    0.0417   -0.0529    0.0994 C   0  0  0  0  0  0  0  0  0  0  0  0
   -0.7615   -1.2395   -0.4238 C   0  0  0  0  0  0  0  0  0  0  0  0
   -2.2249   -0.7985   -0.2604 C   0  0  2  0  0  0  0  0  0  0  0  0
   -2.0773    0.7351   -0.3621 C   0  0  0  0  0  0  0  0  0  0  0  0
   -0.7688    1.0426    0.1465 O   0  0  0  0  0  0  0  0  0  0  0  0
   -2.8146   -1.2266    1.0690 C   0  0  0  0  0  0  0  0  0  0  0  0
   -4.3083   -1.3269    1.2435 C   0  0  0  0  0  0  0  0  0  0  0  0
   -3.4635   -2.5785    1.2147 C   0  0  0  0  0  0  0  0  0  0  0  0
   -0.4910   -1.3892   -1.4753 H   0  0  0  0  0  0  0  0  0  0  0  0
   -0.4994   -2.1485    0.1193 H   0  0  0  0  0  0  0  0  0  0  0  0
   -2.8580   -1.1742   -1.0700 H   0  0  0  0  0  0  0  0  0  0  0  0
   -2.1418    1.0882   -1.3983 H   0  0  0  0  0  0  0  0  0  0  0  0
   -2.8074    1.2771    0.2428 H   0  0  0  0  0  0  0  0  0  0  0  0
   -2.2586   -0.8706    1.9338 H   0  0  0  0  0  0  0  0  0  0  0  0
   -4.7414   -1.0176    2.1880 H   0  0  0  0  0  0  0  0  0  0  0  0
   -4.9357   -1.1231    0.3813 H   0  0  0  0  0  0  0  0  0  0  0  0
   -3.3186   -3.1255    2.1393 H   0  0  0  0  0  0  0  0  0  0  0  0
   -3.5261   -3.2086    0.3330 H   0  0  0  0  0  0  0  0  0  0  0  0
  2  6  1  0  0  0  0
  2  1  2  0  0  0  0
  3  4  1  0  0  0  0
  3  2  1  0  0  0  0
  3 11  1  0  0  0  0
  4 12  1  6  0  0  0
  4  7  1  0  0  0  0
  5  4  1  0  0  0  0
  5  6  1  0  0  0  0
  5 14  1  0  0  0  0
  7  9  1  0  0  0  0
  7  8  1  0  0  0  0
  7 15  1  0  0  0  0
  8 16  1  0  0  0  0
  9  8  1  0  0  0  0
  9 18  1  0  0  0  0
 10  3  1  0  0  0  0
 13  5  1  0  0  0  0
 17  8  1  0  0  0  0
 19  9  1  0  0  0  0
M TOR 0 0 1 2 3
M TOR 1 0 1 2 9
M TOR 2 0 1 2 10
M TOR 3 0 1 5 4
M TOR 4 1 2 3 4
M TOR 5 1 2 3 6
M TOR 6 1 2 3 11
M TOR 7 1 5 4 3
M TOR 8 1 5 4 12
M TOR 9 1 5 4 13
M TOR 10 2 1 5 4
M TOR 11 2 3 4 5
M TOR 12 2 3 4 12
M TOR 13 2 3 4 13
M TOR 14 2 3 6 7
M TOR 15 2 3 6 8
M TOR 16 2 3 6 14
M TOR 17 3 2 1 5
M TOR 18 3 6 7 8
M TOR 19 3 6 7 15
M TOR 20 3 6 7 16
M TOR 21 3 6 8 17
M TOR 22 3 6 8 18
M TOR 23 4 3 2 9
M TOR 24 4 3 2 10
M TOR 25 4 3 6 7
M TOR 26 4 3 6 8
M TOR 27 4 3 6 14
M TOR 28 5 1 2 9
M TOR 29 5 1 2 10
M TOR 30 5 4 3 6
M TOR 31 5 4 3 11
M TOR 32 6 3 2 9
M TOR 33 6 3 2 10
M TOR 34 6 3 4 12
M TOR 35 6 3 4 13
M TOR 36 6 7 8 17
M TOR 37 6 7 8 18
M TOR 38 6 8 7 15
M TOR 39 6 8 7 16
M TOR 40 7 6 3 11
M TOR 41 7 8 6 14
M TOR 42 8 6 3 11
M  END
$$$$
