gdb 2797	2.923773	1.4174183	1.2041201	0.9181	74.4	-0.23932	0.06129	0.30061	1094.0231	0.156226	-422.494153	-422.485971	-422.485027	-422.526279	32.151
 OpenBabel02181911413D

 19 21  0  0  1  0  0  0  0  0999 V2000
   -3.5194    2.3025   -1.8084 C   0  0  0  0  0  0  0  0  0  0  0  0
   -2.8689    1.8826   -0.5112 C   0  0  1  0  0  0  0  0  0  0  0  0
   -3.0319    2.7701    0.7465 C   0  0  0  0  0  0  0  0  0  0  0  0
   -3.4486    1.6320    1.5461 O   0  0  0  0  0  0  0  0  0  0  0  0
   -3.4155    0.7525    0.3896 C   0  0  2  0  0  0  0  0  0  0  0  0
   -2.1337   -0.0733    0.1892 C   0  0  2  0  0  0  0  0  0  0  0  0
   -0.9266    0.7022    0.6505 C   0  0  1  0  0  0  0  0  0  0  0  0
    0.3106    0.0666    0.4889 O   0  0  0  0  0  0  0  0  0  0  0  0
   -1.5475    1.0835   -0.6542 C   0  0  2  0  0  0  0  0  0  0  0  0
   -3.5534    1.4678   -2.5171 H   0  0  0  0  0  0  0  0  0  0  0  0
   -4.5445    2.6507   -1.6436 H   0  0  0  0  0  0  0  0  0  0  0  0
   -2.9594    3.1159   -2.2853 H   0  0  0  0  0  0  0  0  0  0  0  0
   -2.1360    3.2580    1.1471 H   0  0  0  0  0  0  0  0  0  0  0  0
   -3.8391    3.5094    0.6639 H   0  0  0  0  0  0  0  0  0  0  0  0
   -4.3677    0.2438    0.2163 H   0  0  0  0  0  0  0  0  0  0  0  0
   -2.0759   -1.1429    0.0250 H   0  0  0  0  0  0  0  0  0  0  0  0
   -1.0017    1.3413    1.5276 H   0  0  0  0  0  0  0  0  0  0  0  0
    0.4076   -0.5717    1.2034 H   0  0  0  0  0  0  0  0  0  0  0  0
   -0.9576    1.0267   -1.5615 H   0  0  0  0  0  0  0  0  0  0  0  0
  1 11  1  0  0  0  0
  2  1  1  6  0  0  0
  2  5  1  0  0  0  0
  2  3  1  0  0  0  0
  3 13  1  0  0  0  0
  3  4  1  0  0  0  0
  5 15  1  6  0  0  0
  5  4  1  0  0  0  0
  6 16  1  6  0  0  0
  6  5  1  0  0  0  0
  6  7  1  0  0  0  0
  7 17  1  1  0  0  0
  8  7  1  0  0  0  0
  8 18  1  0  0  0  0
  9 19  1  6  0  0  0
  9  2  1  0  0  0  0
  9  6  1  0  0  0  0
  9  7  1  0  0  0  0
 10  1  1  0  0  0  0
 12  1  1  0  0  0  0
 14  3  1  0  0  0  0
M TOR 0 0 1 2 3
M TOR 1 0 1 2 12
M TOR 2 0 1 2 13
M TOR 3 0 1 4 3
M TOR 4 0 1 4 5
M TOR 5 0 1 4 14
M TOR 6 0 1 8 5
M TOR 7 0 1 8 6
M TOR 8 0 1 8 18
M TOR 9 1 2 3 4
M TOR 10 1 4 5 6
M TOR 11 1 4 5 8
M TOR 12 1 4 5 15
M TOR 13 1 8 5 6
M TOR 14 1 8 5 15
M TOR 15 1 8 6 7
M TOR 16 1 8 6 16
M TOR 17 2 1 0 9
M TOR 18 2 1 0 10
M TOR 19 2 1 0 11
M TOR 20 2 1 4 5
M TOR 21 2 1 4 14
M TOR 22 2 1 8 5
M TOR 23 2 1 8 6
M TOR 24 2 1 8 18
M TOR 25 2 3 4 5
M TOR 26 2 3 4 14
M TOR 27 3 2 1 8
M TOR 28 3 4 1 8
M TOR 29 3 4 5 6
M TOR 30 3 4 5 8
M TOR 31 3 4 5 15
M TOR 32 4 1 0 9
M TOR 33 4 1 0 10
M TOR 34 4 1 0 11
M TOR 35 4 1 2 12
M TOR 36 4 1 2 13
M TOR 37 4 1 8 6
M TOR 38 4 1 8 18
M TOR 39 4 3 2 12
M TOR 40 4 3 2 13
M TOR 41 4 5 6 7
M TOR 42 4 5 6 8
M TOR 43 4 5 6 16
M TOR 44 4 5 8 18
M TOR 45 5 6 7 17
M TOR 46 5 6 8 18
M TOR 47 5 8 6 7
M TOR 48 5 8 6 16
M TOR 49 6 5 4 14
M TOR 50 6 8 5 15
M TOR 51 7 6 5 15
M TOR 52 7 6 8 18
M TOR 53 8 1 0 9
M TOR 54 8 1 0 10
M TOR 55 8 1 0 11
M TOR 56 8 1 2 12
M TOR 57 8 1 2 13
M TOR 58 8 1 4 14
M TOR 59 8 5 4 14
M TOR 60 8 6 7 17
M  END
$$$$
