gdb 4047	2.7591811	1.7286214	1.4315891	1.4172	74.75	-0.22734	0.07557	0.30291	986.0238	0.157461	-422.529407	-422.521638	-422.520693	-422.561113	31.001
 OpenBabel02181911413D

 19 21  0  0  1  0  0  0  0  0999 V2000
   -0.1101    0.0806   -0.1083 C   0  0  0  0  0  0  0  0  0  0  0  0
    1.4060    0.0333    0.0182 C   0  0  1  0  0  0  0  0  0  0  0  0
    1.9337    1.3429    0.3478 O   0  0  0  0  0  0  0  0  0  0  0  0
    2.6464    1.1003    1.5386 C   0  0  2  0  0  0  0  0  0  0  0  0
    3.4079   -0.2551    1.4660 C   0  0  1  0  0  0  0  0  0  0  0  0
    3.1964   -0.4627    2.9825 C   0  0  0  0  0  0  0  0  0  0  0  0
    1.8573    0.1145    2.4622 C   0  0  1  0  0  0  0  0  0  0  0  0
    0.6698    0.3189    3.1416 O   0  0  0  0  0  0  0  0  0  0  0  0
    1.9577   -0.7805    1.1890 C   0  0  1  0  0  0  0  0  0  0  0  0
   -0.5645    0.3760    0.8402 H   0  0  0  0  0  0  0  0  0  0  0  0
   -0.4025    0.7991   -0.8797 H   0  0  0  0  0  0  0  0  0  0  0  0
   -0.4999   -0.9025   -0.3943 H   0  0  0  0  0  0  0  0  0  0  0  0
    1.8537   -0.2868   -0.9331 H   0  0  0  0  0  0  0  0  0  0  0  0
    3.1157    2.0091    1.9165 H   0  0  0  0  0  0  0  0  0  0  0  0
    4.2967   -0.4707    0.8787 H   0  0  0  0  0  0  0  0  0  0  0  0
    3.1730   -1.4973    3.3319 H   0  0  0  0  0  0  0  0  0  0  0  0
    3.7874    0.1693    3.6531 H   0  0  0  0  0  0  0  0  0  0  0  0
    0.7858    1.0548    3.7524 H   0  0  0  0  0  0  0  0  0  0  0  0
    1.7389   -1.8465    1.2532 H   0  0  0  0  0  0  0  0  0  0  0  0
  1  2  1  0  0  0  0
  1 10  1  0  0  0  0
  2 13  1  6  0  0  0
  2  3  1  0  0  0  0
  2  9  1  0  0  0  0
  3  4  1  0  0  0  0
  4 14  1  1  0  0  0
  4  7  1  0  0  0  0
  5 15  1  6  0  0  0
  5  4  1  0  0  0  0
  5  6  1  0  0  0  0
  6 16  1  0  0  0  0
  6 17  1  0  0  0  0
  7  6  1  0  0  0  0
  7  8  1  1  0  0  0
  8 18  1  0  0  0  0
  9 19  1  1  0  0  0
  9  5  1  0  0  0  0
  9  7  1  0  0  0  0
 11  1  1  0  0  0  0
 12  1  1  0  0  0  0
M TOR 0 0 1 2 3
M TOR 1 0 1 8 4
M TOR 2 0 1 8 6
M TOR 3 0 1 8 18
M TOR 4 1 2 3 4
M TOR 5 1 2 3 6
M TOR 6 1 2 3 13
M TOR 7 1 8 4 3
M TOR 8 1 8 4 5
M TOR 9 1 8 4 14
M TOR 10 1 8 6 3
M TOR 11 1 8 6 5
M TOR 12 1 8 6 7
M TOR 13 2 1 0 9
M TOR 14 2 1 0 10
M TOR 15 2 1 0 11
M TOR 16 2 1 8 4
M TOR 17 2 1 8 6
M TOR 18 2 1 8 18
M TOR 19 2 3 4 5
M TOR 20 2 3 4 8
M TOR 21 2 3 4 14
M TOR 22 2 3 6 5
M TOR 23 2 3 6 7
M TOR 24 2 3 6 8
M TOR 25 3 2 1 8
M TOR 26 3 2 1 12
M TOR 27 3 4 5 6
M TOR 28 3 4 5 15
M TOR 29 3 4 5 16
M TOR 30 3 4 8 6
M TOR 31 3 4 8 18
M TOR 32 3 6 5 15
M TOR 33 3 6 5 16
M TOR 34 3 6 7 17
M TOR 35 3 6 8 18
M TOR 36 4 3 6 7
M TOR 37 4 5 6 7
M TOR 38 4 5 6 8
M TOR 39 4 8 1 12
M TOR 40 4 8 6 7
M TOR 41 5 4 3 13
M TOR 42 5 4 8 18
M TOR 43 5 6 3 13
M TOR 44 5 6 7 17
M TOR 45 5 6 8 18
M TOR 46 6 3 4 14
M TOR 47 6 5 4 14
M TOR 48 6 8 1 12
M TOR 49 6 8 4 14
M TOR 50 7 6 3 13
M TOR 51 7 6 5 15
M TOR 52 7 6 5 16
M TOR 53 7 6 8 18
M TOR 54 8 1 0 9
M TOR 55 8 1 0 10
M TOR 56 8 1 0 11
M TOR 57 8 4 3 13
M TOR 58 8 4 5 15
M TOR 59 8 4 5 16
M TOR 60 8 6 3 13
M TOR 61 8 6 5 15
M TOR 62 8 6 5 16
M TOR 63 8 6 7 17
M  END
$$$$
