gdb 3623	2.1539066	1.5508284	1.2442602	3.3767	75.71	-0.25113	-0.02433	0.22680000000000003	1108.0282	0.154858	-422.533695	-422.524599	-422.523655	-422.568071	32.942
 OpenBabel02181911413D

 19 20  0  0  1  0  0  0  0  0999 V2000
    1.9734   -0.9890   -0.7699 C   0  0  0  0  0  0  0  0  0  0  0  0
    1.3359    0.0074    0.1952 C   0  0  1  0  0  0  0  0  0  0  0  0
    1.7617   -0.1429    1.6936 C   0  0  0  0  0  0  0  0  0  0  0  0
    2.6019    1.1587    1.6051 C   0  0  1  0  0  0  0  0  0  0  0  0
    4.1021    0.9710    1.5583 C   0  0  0  0  0  0  0  0  0  0  0  0
    4.6653   -0.0913    1.6386 O   0  0  0  0  0  0  0  0  0  0  0  0
    1.9893    1.3979    0.2035 C   0  0  2  0  0  0  0  0  0  0  0  0
    1.5380    2.6522   -0.3976 C   0  0  0  0  0  0  0  0  0  0  0  0
    2.6987    1.9615   -0.8860 O   0  0  0  0  0  0  0  0  0  0  0  0
    1.5369   -1.9836   -0.6340 H   0  0  0  0  0  0  0  0  0  0  0  0
    1.8176   -0.6833   -1.8088 H   0  0  0  0  0  0  0  0  0  0  0  0
    3.0512   -1.0675   -0.5999 H   0  0  0  0  0  0  0  0  0  0  0  0
    0.2528    0.0407    0.0410 H   0  0  0  0  0  0  0  0  0  0  0  0
    0.9328   -0.0746    2.3996 H   0  0  0  0  0  0  0  0  0  0  0  0
    2.3605   -1.0281    1.9141 H   0  0  0  0  0  0  0  0  0  0  0  0
    2.3787    1.9501    2.3293 H   0  0  0  0  0  0  0  0  0  0  0  0
    4.6764    1.9130    1.4227 H   0  0  0  0  0  0  0  0  0  0  0  0
    0.6802    2.6495   -1.0693 H   0  0  0  0  0  0  0  0  0  0  0  0
    1.7350    3.6004    0.1019 H   0  0  0  0  0  0  0  0  0  0  0  0
  1 10  1  0  0  0  0
  1 12  1  0  0  0  0
  1  2  1  0  0  0  0
  2 13  1  6  0  0  0
  2  7  1  0  0  0  0
  2  3  1  0  0  0  0
  3 15  1  0  0  0  0
  3 14  1  0  0  0  0
  4  3  1  0  0  0  0
  4 16  1  1  0  0  0
  5  4  1  0  0  0  0
  5  6  2  0  0  0  0
  7  9  1  6  0  0  0
  7  4  1  0  0  0  0
  8 19  1  0  0  0  0
  8  7  1  0  0  0  0
  9  8  1  0  0  0  0
 11  1  1  0  0  0  0
 17  5  1  0  0  0  0
 18  8  1  0  0  0  0
M TOR 0 0 1 2 3
M TOR 1 0 1 2 13
M TOR 2 0 1 2 14
M TOR 3 0 1 6 3
M TOR 4 0 1 6 7
M TOR 5 0 1 6 8
M TOR 6 1 2 3 4
M TOR 7 1 2 3 6
M TOR 8 1 2 3 15
M TOR 9 1 6 3 4
M TOR 10 1 6 3 15
M TOR 11 1 6 7 8
M TOR 12 1 6 7 17
M TOR 13 1 6 7 18
M TOR 14 2 1 0 9
M TOR 15 2 1 0 10
M TOR 16 2 1 0 11
M TOR 17 2 1 6 7
M TOR 18 2 1 6 8
M TOR 19 2 3 4 5
M TOR 20 2 3 4 16
M TOR 21 2 3 6 7
M TOR 22 2 3 6 8
M TOR 23 3 2 1 12
M TOR 24 3 6 1 12
M TOR 25 3 6 7 8
M TOR 26 3 6 7 17
M TOR 27 3 6 7 18
M TOR 28 4 3 2 13
M TOR 29 4 3 2 14
M TOR 30 4 3 6 7
M TOR 31 4 3 6 8
M TOR 32 5 4 3 6
M TOR 33 5 4 3 15
M TOR 34 6 1 0 9
M TOR 35 6 1 0 10
M TOR 36 6 1 0 11
M TOR 37 6 1 2 13
M TOR 38 6 1 2 14
M TOR 39 6 3 2 13
M TOR 40 6 3 2 14
M TOR 41 6 3 4 16
M TOR 42 6 8 7 17
M TOR 43 6 8 7 18
M TOR 44 7 6 1 12
M TOR 45 7 6 3 15
M TOR 46 8 6 1 12
M TOR 47 8 6 3 15
M  END
$$$$
