
     RDKit          3D

 19 19  0  0  0  0  0  0  0  0999 V2000
    1.0548   -0.4018    1.0001 C   0  0  0  0  0  0  0  0  0  0  0  0
    0.8867    0.0231   -0.4549 C   0  0  0  0  0  0  0  0  0  0  0  0
    1.4781    1.4297   -0.7935 C   0  0  0  0  0  0  0  0  0  0  0  0
    1.5681    2.4125    0.2058 O   0  0  0  0  0  0  0  0  0  0  0  0
    2.7668    0.7507   -1.3226 C   0  0  0  0  0  0  0  0  0  0  0  0
    1.9676   -0.5908   -1.4342 C   0  0  0  0  0  0  0  0  0  0  0  0
    2.6184   -1.7855   -1.0537 O   0  0  0  0  0  0  0  0  0  0  0  0
    1.4215   -0.7932   -2.7702 C   0  0  0  0  0  0  0  0  0  0  0  0
    0.9464   -0.9137   -3.8673 C   0  0  0  0  0  0  0  0  0  0  0  0
    0.8085   -1.4594    1.1275 H   0  0  0  0  0  0  0  0  0  0  0  0
    2.0772   -0.2567    1.3743 H   0  0  0  0  0  0  0  0  0  0  0  0
    0.3917    0.1837    1.6437 H   0  0  0  0  0  0  0  0  0  0  0  0
   -0.1470   -0.1382   -0.7674 H   0  0  0  0  0  0  0  0  0  0  0  0
    0.9194    1.8936   -1.6091 H   0  0  0  0  0  0  0  0  0  0  0  0
    2.0962    2.0641    0.9311 H   0  0  0  0  0  0  0  0  0  0  0  0
    3.2404    1.1415   -2.2238 H   0  0  0  0  0  0  0  0  0  0  0  0
    3.5227    0.6685   -0.5321 H   0  0  0  0  0  0  0  0  0  0  0  0
    3.0348   -1.6344   -0.1992 H   0  0  0  0  0  0  0  0  0  0  0  0
    0.5342   -1.0355   -4.8384 H   0  0  0  0  0  0  0  0  0  0  0  0
  1  2  1  0
  2  3  1  0
  3  4  1  0
  3  5  1  0
  5  6  1  0
  6  7  1  0
  6  8  1  0
  8  9  3  0
  6  2  1  0
  1 10  1  0
  1 11  1  0
  1 12  1  0
  2 13  1  0
  3 14  1  0
  4 15  1  0
  5 16  1  0
  5 17  1  0
  7 18  1  0
  9 19  1  0
M  END
$$$$
