gdb 2525	2.1934062	1.5364598	0.9506201	3.8062	81.42	-0.23324	-0.05026	0.18298	1240.2816	0.157134	-422.577085	-422.568364	-422.567419	-422.610775	32.244
 OpenBabel02181911413D

 19 19  0  0  0  0  0  0  0  0999 V2000
    1.2766    0.7658   -0.2785 C   0  0  0  0  0  0  0  0  0  0  0  0
   -0.1208    0.2062   -0.3713 C   0  0  0  0  0  0  0  0  0  0  0  0
   -1.1713    1.0427   -0.2828 C   0  0  0  0  0  0  0  0  0  0  0  0
   -2.6318    0.8228   -0.3294 C   0  0  0  0  0  0  0  0  0  0  0  0
   -3.3752    1.7850   -0.4054 O   0  0  0  0  0  0  0  0  0  0  0  0
   -3.2937   -0.5587   -0.2713 C   0  0  0  0  0  0  0  0  0  0  0  0
   -2.4856   -1.6731    0.0055 O   0  0  0  0  0  0  0  0  0  0  0  0
   -1.4825   -1.9136   -0.9603 C   0  0  0  0  0  0  0  0  0  0  0  0
   -0.1541   -1.2900   -0.5517 C   0  0  0  0  0  0  0  0  0  0  0  0
    1.8402    0.2656    0.5192 H   0  0  0  0  0  0  0  0  0  0  0  0
    1.8306    0.5835   -1.2081 H   0  0  0  0  0  0  0  0  0  0  0  0
    1.2769    1.8393   -0.0808 H   0  0  0  0  0  0  0  0  0  0  0  0
   -0.9620    2.1052   -0.1791 H   0  0  0  0  0  0  0  0  0  0  0  0
   -4.0480   -0.5103    0.5194 H   0  0  0  0  0  0  0  0  0  0  0  0
   -3.8357   -0.6846   -1.2236 H   0  0  0  0  0  0  0  0  0  0  0  0
   -1.3614   -3.0000   -1.0381 H   0  0  0  0  0  0  0  0  0  0  0  0
   -1.7968   -1.5432   -1.9480 H   0  0  0  0  0  0  0  0  0  0  0  0
    0.1717   -1.7497    0.3929 H   0  0  0  0  0  0  0  0  0  0  0  0
    0.6110   -1.5715   -1.2892 H   0  0  0  0  0  0  0  0  0  0  0  0
  1 12  1  0  0  0  0
  1 10  1  0  0  0  0
  2  3  2  0  0  0  0
  2  1  1  0  0  0  0
  3 13  1  0  0  0  0
  4  3  1  0  0  0  0
  4  6  1  0  0  0  0
  5  4  2  0  0  0  0
  6  7  1  0  0  0  0
  6 14  1  0  0  0  0
  8  9  1  0  0  0  0
  8  7  1  0  0  0  0
  9  2  1  0  0  0  0
  9 18  1  0  0  0  0
 11  1  1  0  0  0  0
 15  6  1  0  0  0  0
 16  8  1  0  0  0  0
 17  8  1  0  0  0  0
 19  9  1  0  0  0  0
M TOR 0 0 1 2 3
M TOR 1 0 1 2 12
M TOR 2 0 1 8 7
M TOR 3 0 1 8 17
M TOR 4 0 1 8 18
M TOR 5 1 2 3 4
M TOR 6 1 2 3 5
M TOR 7 1 8 7 6
M TOR 8 1 8 7 15
M TOR 9 1 8 7 16
M TOR 10 2 1 0 9
M TOR 11 2 1 0 10
M TOR 12 2 1 0 11
M TOR 13 2 1 8 7
M TOR 14 2 1 8 17
M TOR 15 2 1 8 18
M TOR 16 2 3 5 6
M TOR 17 2 3 5 13
M TOR 18 2 3 5 14
M TOR 19 3 2 1 8
M TOR 20 3 5 6 7
M TOR 21 4 3 2 12
M TOR 22 4 3 5 6
M TOR 23 4 3 5 13
M TOR 24 4 3 5 14
M TOR 25 5 3 2 12
M TOR 26 5 6 7 8
M TOR 27 5 6 7 15
M TOR 28 5 6 7 16
M TOR 29 6 7 8 17
M TOR 30 6 7 8 18
M TOR 31 7 6 5 13
M TOR 32 7 6 5 14
M TOR 33 8 1 0 9
M TOR 34 8 1 0 10
M TOR 35 8 1 0 11
M TOR 36 8 1 2 12
M  END
$$$$
