
     RDKit          3D

 19 21  0  0  0  0  0  0  0  0999 V2000
    0.0003   -0.0704   -0.0306 C   0  0  0  0  0  0  0  0  0  0  0  0
    1.5104   -0.0085   -0.0284 C   0  0  0  0  0  0  0  0  0  0  0  0
    2.1072   -0.5340    1.1333 O   0  0  0  0  0  0  0  0  0  0  0  0
    2.2870   -0.1427   -1.3225 C   0  0  0  0  0  0  0  0  0  0  0  0
    2.2376    1.1737   -0.5870 C   0  0  0  0  0  0  0  0  0  0  0  0
    1.6431    2.5431   -1.0077 C   0  0  0  0  0  0  0  0  0  0  0  0
    2.8437    3.1964   -0.2955 C   0  0  0  0  0  0  0  0  0  0  0  0
    4.0362    2.6951   -0.9055 O   0  0  0  0  0  0  0  0  0  0  0  0
    3.3906    1.8858    0.0927 C   0  0  0  0  0  0  0  0  0  0  0  0
   -0.4073    0.4437    0.8461 H   0  0  0  0  0  0  0  0  0  0  0  0
   -0.4176    0.3909   -0.9297 H   0  0  0  0  0  0  0  0  0  0  0  0
   -0.3437   -1.1115   -0.0007 H   0  0  0  0  0  0  0  0  0  0  0  0
    2.0019   -1.4918    1.1119 H   0  0  0  0  0  0  0  0  0  0  0  0
    3.2214   -0.6937   -1.2911 H   0  0  0  0  0  0  0  0  0  0  0  0
    1.7325   -0.2326   -2.2519 H   0  0  0  0  0  0  0  0  0  0  0  0
    1.5747    2.7469   -2.0794 H   0  0  0  0  0  0  0  0  0  0  0  0
    0.6854    2.7585   -0.5253 H   0  0  0  0  0  0  0  0  0  0  0  0
    2.8991    4.1609    0.1955 H   0  0  0  0  0  0  0  0  0  0  0  0
    3.9743    1.5710    0.9477 H   0  0  0  0  0  0  0  0  0  0  0  0
  1  2  1  0
  2  3  1  0
  2  4  1  0
  4  5  1  0
  5  6  1  0
  6  7  1  0
  7  8  1  0
  8  9  1  0
  5  2  1  0
  9  5  1  0
  9  7  1  0
  1 10  1  0
  1 11  1  0
  1 12  1  0
  3 13  1  0
  4 14  1  0
  4 15  1  0
  6 16  1  0
  6 17  1  0
  7 18  1  0
  9 19  1  0
M  END
$$$$
