gdb 3958	3.6109549	1.3761723	1.1702191	1.9318	75.39	-0.23998	0.06166	0.30164	1096.9702	0.157024	-422.498477	-422.490721	-422.489777	-422.530568	30.231
 OpenBabel02181911413D

 19 21  0  0  1  0  0  0  0  0999 V2000
   -0.1057    0.1513    0.0081 C   0  0  0  0  0  0  0  0  0  0  0  0
    1.3999    0.0342    0.0872 C   0  0  1  0  0  0  0  0  0  0  0  0
    1.8105   -0.9802    1.0684 O   0  0  0  0  0  0  0  0  0  0  0  0
    2.6287   -1.5935    0.1037 C   0  0  2  0  0  0  0  0  0  0  0  0
    3.0726   -3.0355   -0.0250 C   0  0  0  0  0  0  0  0  0  0  0  0
    4.2947   -2.5799   -0.6701 O   0  0  0  0  0  0  0  0  0  0  0  0
    4.0890   -1.1998   -0.2649 C   0  0  1  0  0  0  0  0  0  0  0  0
    3.5818   -0.2914   -1.4116 C   0  0  0  0  0  0  0  0  0  0  0  0
    2.1264   -0.7188   -1.0656 C   0  0  2  0  0  0  0  0  0  0  0  0
   -0.5164    0.4619    0.9738 H   0  0  0  0  0  0  0  0  0  0  0  0
   -0.3889    0.8963   -0.7435 H   0  0  0  0  0  0  0  0  0  0  0  0
   -0.5554   -0.8083   -0.2641 H   0  0  0  0  0  0  0  0  0  0  0  0
    1.8564    1.0008    0.3382 H   0  0  0  0  0  0  0  0  0  0  0  0
    3.2823   -3.5296    0.9340 H   0  0  0  0  0  0  0  0  0  0  0  0
    2.4850   -3.7045   -0.6638 H   0  0  0  0  0  0  0  0  0  0  0  0
    4.8595   -0.8471    0.4262 H   0  0  0  0  0  0  0  0  0  0  0  0
    3.7931    0.7749   -1.2824 H   0  0  0  0  0  0  0  0  0  0  0  0
    3.9306   -0.6084   -2.3968 H   0  0  0  0  0  0  0  0  0  0  0  0
    1.4754   -1.0912   -1.8577 H   0  0  0  0  0  0  0  0  0  0  0  0
  1  2  1  0  0  0  0
  1 10  1  0  0  0  0
  2 13  1  1  0  0  0
  2  3  1  0  0  0  0
  4  3  1  1  0  0  0
  5  4  1  0  0  0  0
  5 14  1  0  0  0  0
  6  7  1  0  0  0  0
  6  5  1  0  0  0  0
  7  4  1  0  0  0  0
  7 16  1  1  0  0  0
  8 17  1  0  0  0  0
  8  9  1  0  0  0  0
  8  7  1  0  0  0  0
  9 19  1  6  0  0  0
  9  2  1  0  0  0  0
  9  4  1  0  0  0  0
 11  1  1  0  0  0  0
 12  1  1  0  0  0  0
 15  5  1  0  0  0  0
 18  8  1  0  0  0  0
M TOR 0 0 1 2 3
M TOR 1 0 1 8 3
M TOR 2 0 1 8 7
M TOR 3 0 1 8 18
M TOR 4 1 2 3 4
M TOR 5 1 2 3 6
M TOR 6 1 2 3 8
M TOR 7 1 8 3 4
M TOR 8 1 8 3 6
M TOR 9 1 8 7 6
M TOR 10 1 8 7 16
M TOR 11 1 8 7 17
M TOR 12 2 1 0 9
M TOR 13 2 1 0 10
M TOR 14 2 1 0 11
M TOR 15 2 1 8 7
M TOR 16 2 1 8 18
M TOR 17 2 3 4 5
M TOR 18 2 3 4 13
M TOR 19 2 3 4 14
M TOR 20 2 3 6 5
M TOR 21 2 3 6 7
M TOR 22 2 3 6 15
M TOR 23 2 3 8 7
M TOR 24 2 3 8 18
M TOR 25 3 2 1 12
M TOR 26 3 4 5 6
M TOR 27 3 6 7 8
M TOR 28 3 6 7 16
M TOR 29 3 6 7 17
M TOR 30 3 8 1 12
M TOR 31 3 8 7 16
M TOR 32 3 8 7 17
M TOR 33 4 3 6 7
M TOR 34 4 3 6 15
M TOR 35 4 3 8 7
M TOR 36 4 3 8 18
M TOR 37 4 5 6 7
M TOR 38 4 5 6 15
M TOR 39 5 4 3 8
M TOR 40 5 6 3 8
M TOR 41 5 6 7 8
M TOR 42 5 6 7 16
M TOR 43 5 6 7 17
M TOR 44 6 3 4 13
M TOR 45 6 3 4 14
M TOR 46 6 3 8 18
M TOR 47 6 5 4 13
M TOR 48 6 5 4 14
M TOR 49 6 7 8 18
M TOR 50 7 8 1 12
M TOR 51 8 1 0 9
M TOR 52 8 1 0 10
M TOR 53 8 1 0 11
M TOR 54 8 3 4 13
M TOR 55 8 3 4 14
M TOR 56 8 3 6 15
M TOR 57 8 7 6 15
M  END
$$$$
