
     RDKit          3D

 19 19  0  0  0  0  0  0  0  0999 V2000
   -0.2392    0.7362   -3.8302 O   0  0  0  0  0  0  0  0  0  0  0  0
   -0.4080    1.0292   -2.4488 C   0  0  0  0  0  0  0  0  0  0  0  0
   -1.6878    1.8345   -2.2673 C   0  0  0  0  0  0  0  0  0  0  0  0
   -2.4080    1.7892   -1.3031 O   0  0  0  0  0  0  0  0  0  0  0  0
    0.8099    1.8550   -1.9843 C   0  0  0  0  0  0  0  0  0  0  0  0
    2.1321    1.0764   -2.2491 C   0  0  0  0  0  0  0  0  0  0  0  0
    2.5050    0.5435   -0.8875 C   0  0  0  0  0  0  0  0  0  0  0  0
    1.7765    1.0892    0.0838 C   0  0  0  0  0  0  0  0  0  0  0  0
    0.7734    2.0862   -0.4450 C   0  0  0  0  0  0  0  0  0  0  0  0
   -0.8904    0.0747   -4.0842 H   0  0  0  0  0  0  0  0  0  0  0  0
   -0.4740    0.1164   -1.8396 H   0  0  0  0  0  0  0  0  0  0  0  0
   -1.9062    2.4944   -3.1392 H   0  0  0  0  0  0  0  0  0  0  0  0
    0.7958    2.7990   -2.5374 H   0  0  0  0  0  0  0  0  0  0  0  0
    1.9957    0.2982   -3.0055 H   0  0  0  0  0  0  0  0  0  0  0  0
    2.9131    1.7447   -2.6366 H   0  0  0  0  0  0  0  0  0  0  0  0
    3.3001   -0.1800   -0.7443 H   0  0  0  0  0  0  0  0  0  0  0  0
    1.8832    0.8817    1.1427 H   0  0  0  0  0  0  0  0  0  0  0  0
   -0.2290    1.9441   -0.0271 H   0  0  0  0  0  0  0  0  0  0  0  0
    1.0676    3.1131   -0.1892 H   0  0  0  0  0  0  0  0  0  0  0  0
  1  2  1  0
  2  3  1  0
  3  4  2  0
  2  5  1  0
  5  6  1  0
  6  7  1  0
  7  8  2  0
  8  9  1  0
  9  5  1  0
  1 10  1  0
  2 11  1  0
  3 12  1  0
  5 13  1  0
  6 14  1  0
  6 15  1  0
  7 16  1  0
  8 17  1  0
  9 18  1  0
  9 19  1  0
M  END
$$$$
