
     RDKit          3D

 19 21  0  0  0  0  0  0  0  0999 V2000
    0.2396   -0.5347   -0.2806 C   0  0  0  0  0  0  0  0  0  0  0  0
    0.9856    0.5600    0.4529 C   0  0  0  0  0  0  0  0  0  0  0  0
    2.3093    0.8336   -0.1064 O   0  0  0  0  0  0  0  0  0  0  0  0
    2.8972    0.7337    1.1873 C   0  0  0  0  0  0  0  0  0  0  0  0
    2.7548   -0.6456    1.7430 C   0  0  0  0  0  0  0  0  0  0  0  0
    1.5922    0.3280    1.8449 C   0  0  0  0  0  0  0  0  0  0  0  0
    0.9792    0.7337    3.1294 C   0  0  0  0  0  0  0  0  0  0  0  0
   -0.4681    0.6600    3.3817 C   0  0  0  0  0  0  0  0  0  0  0  0
    0.1649    1.9138    3.1202 O   0  0  0  0  0  0  0  0  0  0  0  0
   -0.7595   -0.6690    0.1479 H   0  0  0  0  0  0  0  0  0  0  0  0
    0.1196   -0.2618   -1.3338 H   0  0  0  0  0  0  0  0  0  0  0  0
    0.7705   -1.4891   -0.2341 H   0  0  0  0  0  0  0  0  0  0  0  0
    0.4084    1.4920    0.4584 H   0  0  0  0  0  0  0  0  0  0  0  0
    3.6581    1.4546    1.4630 H   0  0  0  0  0  0  0  0  0  0  0  0
    2.7179   -1.5004    1.0743 H   0  0  0  0  0  0  0  0  0  0  0  0
    3.2659   -0.8236    2.6851 H   0  0  0  0  0  0  0  0  0  0  0  0
    1.6412    0.6614    3.9942 H   0  0  0  0  0  0  0  0  0  0  0  0
   -1.1336    0.3006    2.5979 H   0  0  0  0  0  0  0  0  0  0  0  0
   -0.8350    0.5209    4.3979 H   0  0  0  0  0  0  0  0  0  0  0  0
  1  2  1  0
  2  3  1  0
  3  4  1  0
  4  5  1  0
  5  6  1  0
  6  7  1  0
  7  8  1  0
  8  9  1  0
  6  2  1  0
  9  7  1  0
  6  4  1  0
  1 10  1  0
  1 11  1  0
  1 12  1  0
  2 13  1  0
  4 14  1  0
  5 15  1  0
  5 16  1  0
  7 17  1  0
  8 18  1  0
  8 19  1  0
M  END
$$$$
