gdb 4317	2.2200524	1.6827105	1.0370163	3.0241	76.32	-0.24311	-0.02625	0.21686	1162.2176	0.156622	-422.593968	-422.585232	-422.584287	-422.627464	33.108
 OpenBabel02181911413D

 19 19  0  0  1  0  0  0  0  0999 V2000
    0.2455    2.3103   -0.4918 C   0  0  0  0  0  0  0  0  0  0  0  0
   -0.9174    1.3753   -0.1282 C   0  0  1  0  0  0  0  0  0  0  0  0
   -1.9321    1.1803   -1.2770 C   0  0  0  0  0  0  0  0  0  0  0  0
   -2.8594    0.0187   -1.0105 C   0  0  0  0  0  0  0  0  0  0  0  0
   -2.3759   -1.1123   -0.5006 C   0  0  0  0  0  0  0  0  0  0  0  0
   -0.8955   -1.2390   -0.2294 C   0  0  2  0  0  0  0  0  0  0  0  0
   -0.5764   -2.3488    0.5599 O   0  0  0  0  0  0  0  0  0  0  0  0
   -0.3954    0.0542    0.4217 C   0  0  0  0  0  0  0  0  0  0  0  0
    0.3645   -0.0149    1.3640 O   0  0  0  0  0  0  0  0  0  0  0  0
    0.9248    2.4188    0.3566 H   0  0  0  0  0  0  0  0  0  0  0  0
    0.8166    1.9164   -1.3395 H   0  0  0  0  0  0  0  0  0  0  0  0
   -0.1299    3.2994   -0.7701 H   0  0  0  0  0  0  0  0  0  0  0  0
   -1.4567    1.8178    0.7205 H   0  0  0  0  0  0  0  0  0  0  0  0
   -2.4922    2.1090   -1.4210 H   0  0  0  0  0  0  0  0  0  0  0  0
   -1.3856    1.0119   -2.2178 H   0  0  0  0  0  0  0  0  0  0  0  0
   -3.9138    0.1227   -1.2460 H   0  0  0  0  0  0  0  0  0  0  0  0
   -2.9857   -1.9814   -0.2790 H   0  0  0  0  0  0  0  0  0  0  0  0
   -0.3676   -1.2983   -1.2048 H   0  0  0  0  0  0  0  0  0  0  0  0
    0.0281   -2.0082    1.2395 H   0  0  0  0  0  0  0  0  0  0  0  0
  1  2  1  0  0  0  0
  1 10  1  0  0  0  0
  2  8  1  0  0  0  0
  2 13  1  1  0  0  0
  3  4  1  0  0  0  0
  3  2  1  0  0  0  0
  4  5  2  0  0  0  0
  5 17  1  0  0  0  0
  5  6  1  0  0  0  0
  6 18  1  6  0  0  0
  6  8  1  0  0  0  0
  6  7  1  0  0  0  0
  7 19  1  0  0  0  0
  8  9  2  0  0  0  0
 11  1  1  0  0  0  0
 12  1  1  0  0  0  0
 14  3  1  0  0  0  0
 15  3  1  0  0  0  0
 16  4  1  0  0  0  0
M TOR 0 0 1 2 3
M TOR 1 0 1 2 13
M TOR 2 0 1 2 14
M TOR 3 0 1 7 5
M TOR 4 0 1 7 8
M TOR 5 1 2 3 4
M TOR 6 1 2 3 15
M TOR 7 1 7 5 4
M TOR 8 1 7 5 6
M TOR 9 1 7 5 17
M TOR 10 2 1 0 9
M TOR 11 2 1 0 10
M TOR 12 2 1 0 11
M TOR 13 2 1 7 5
M TOR 14 2 1 7 8
M TOR 15 2 3 4 5
M TOR 16 2 3 4 16
M TOR 17 3 2 1 7
M TOR 18 3 2 1 12
M TOR 19 3 4 5 6
M TOR 20 3 4 5 7
M TOR 21 3 4 5 17
M TOR 22 4 3 2 13
M TOR 23 4 3 2 14
M TOR 24 4 5 6 18
M TOR 25 4 5 7 8
M TOR 26 5 4 3 15
M TOR 27 5 7 1 12
M TOR 28 6 5 4 16
M TOR 29 6 5 7 8
M TOR 30 7 1 0 9
M TOR 31 7 1 0 10
M TOR 32 7 1 0 11
M TOR 33 7 1 2 13
M TOR 34 7 1 2 14
M TOR 35 7 5 4 16
M TOR 36 7 5 6 18
M TOR 37 8 7 1 12
M TOR 38 8 7 5 17
M  END
$$$$
