
     RDKit          3D

 19 19  0  0  0  0  0  0  0  0999 V2000
    3.9670    0.1928    2.5719 C   0  0  0  0  0  0  0  0  0  0  0  0
    4.6950    0.0120    1.2597 C   0  0  0  0  0  0  0  0  0  0  0  0
    6.0962    0.5808    1.1980 C   0  0  0  0  0  0  0  0  0  0  0  0
    4.5431   -1.2744    0.6491 O   0  0  0  0  0  0  0  0  0  0  0  0
    3.9356   -0.1446   -0.0083 C   0  0  0  0  0  0  0  0  0  0  0  0
    2.5014   -0.0964   -0.0837 C   0  0  0  0  0  0  0  0  0  0  0  0
    1.3024   -0.0322   -0.1962 C   0  0  0  0  0  0  0  0  0  0  0  0
   -0.1563    0.0304   -0.2763 C   0  0  0  0  0  0  0  0  0  0  0  0
   -0.7500    0.8397    0.7290 O   0  0  0  0  0  0  0  0  0  0  0  0
    2.9647   -0.2353    2.5233 H   0  0  0  0  0  0  0  0  0  0  0  0
    4.5199   -0.3022    3.3775 H   0  0  0  0  0  0  0  0  0  0  0  0
    3.8840    1.2551    2.8241 H   0  0  0  0  0  0  0  0  0  0  0  0
    6.7237    0.1227    1.9703 H   0  0  0  0  0  0  0  0  0  0  0  0
    6.5548    0.3848    0.2259 H   0  0  0  0  0  0  0  0  0  0  0  0
    6.0859    1.6619    1.3715 H   0  0  0  0  0  0  0  0  0  0  0  0
    4.4454    0.1492   -0.9265 H   0  0  0  0  0  0  0  0  0  0  0  0
   -0.4588    0.4733   -1.2316 H   0  0  0  0  0  0  0  0  0  0  0  0
   -0.5614   -0.9941   -0.2602 H   0  0  0  0  0  0  0  0  0  0  0  0
   -0.4318    0.5221    1.5805 H   0  0  0  0  0  0  0  0  0  0  0  0
  1  2  1  0
  2  3  1  0
  2  4  1  0
  4  5  1  0
  5  6  1  0
  6  7  3  0
  7  8  1  0
  8  9  1  0
  5  2  1  0
  1 10  1  0
  1 11  1  0
  1 12  1  0
  3 13  1  0
  3 14  1  0
  3 15  1  0
  5 16  1  0
  8 17  1  0
  8 18  1  0
  9 19  1  0
M  END
$$$$
