
     RDKit          3D

 19 19  0  0  0  0  0  0  0  0999 V2000
   -0.0758    0.2574    0.2976 C   0  0  0  0  0  0  0  0  0  0  0  0
    1.3771   -0.0944    0.0766 C   0  0  0  0  0  0  0  0  0  0  0  0
    1.9643   -0.9029    0.7604 O   0  0  0  0  0  0  0  0  0  0  0  0
    2.1238    0.6104   -1.0642 C   0  0  0  0  0  0  0  0  0  0  0  0
    1.2138    1.4996   -1.7031 O   0  0  0  0  0  0  0  0  0  0  0  0
    3.3754    1.3842   -0.5513 C   0  0  0  0  0  0  0  0  0  0  0  0
    4.3618    1.2258   -1.6847 C   0  0  0  0  0  0  0  0  0  0  0  0
    4.0001    0.2539   -2.5219 C   0  0  0  0  0  0  0  0  0  0  0  0
    2.7098   -0.4039   -2.0918 C   0  0  0  0  0  0  0  0  0  0  0  0
   -0.4650   -0.3205    1.1362 H   0  0  0  0  0  0  0  0  0  0  0  0
   -0.1788    1.3304    0.4873 H   0  0  0  0  0  0  0  0  0  0  0  0
   -0.6539    0.0577   -0.6101 H   0  0  0  0  0  0  0  0  0  0  0  0
    1.6942    1.9351   -2.4159 H   0  0  0  0  0  0  0  0  0  0  0  0
    3.1088    2.4223   -0.3256 H   0  0  0  0  0  0  0  0  0  0  0  0
    3.7617    0.9310    0.3694 H   0  0  0  0  0  0  0  0  0  0  0  0
    5.2697    1.8142   -1.7566 H   0  0  0  0  0  0  0  0  0  0  0  0
    4.5658   -0.0768   -3.3857 H   0  0  0  0  0  0  0  0  0  0  0  0
    1.9946   -0.5712   -2.9043 H   0  0  0  0  0  0  0  0  0  0  0  0
    2.9048   -1.3715   -1.6141 H   0  0  0  0  0  0  0  0  0  0  0  0
  1  2  1  0
  2  3  2  0
  2  4  1  0
  4  5  1  0
  4  6  1  0
  6  7  1  0
  7  8  2  0
  8  9  1  0
  9  4  1  0
  1 10  1  0
  1 11  1  0
  1 12  1  0
  5 13  1  0
  6 14  1  0
  6 15  1  0
  7 16  1  0
  8 17  1  0
  9 18  1  0
  9 19  1  0
M  END
$$$$
