
     RDKit          3D

 19 20  0  0  0  0  0  0  0  0999 V2000
    1.4861    0.1694   -0.0615 C   0  0  0  0  0  0  0  0  0  0  0  0
    0.0227   -0.1125   -0.0480 C   0  0  0  0  0  0  0  0  0  0  0  0
   -1.0261    0.7104    0.0298 C   0  0  0  0  0  0  0  0  0  0  0  0
   -2.2474   -0.1887    0.1395 C   0  0  0  0  0  0  0  0  0  0  0  0
   -1.8537   -1.3397   -0.6170 O   0  0  0  0  0  0  0  0  0  0  0  0
   -0.5819   -1.5147    0.0248 C   0  0  0  0  0  0  0  0  0  0  0  0
   -1.0264   -1.7457    1.5057 C   0  0  0  0  0  0  0  0  0  0  0  0
   -2.2583   -0.7906    1.5823 C   0  0  0  0  0  0  0  0  0  0  0  0
   -2.1740    0.2500    2.5379 O   0  0  0  0  0  0  0  0  0  0  0  0
    1.9798   -0.2571    0.8219 H   0  0  0  0  0  0  0  0  0  0  0  0
    1.9725   -0.2794   -0.9367 H   0  0  0  0  0  0  0  0  0  0  0  0
    1.6882    1.2437   -0.0709 H   0  0  0  0  0  0  0  0  0  0  0  0
   -1.0284    1.7881    0.1126 H   0  0  0  0  0  0  0  0  0  0  0  0
   -3.2027    0.2015   -0.2084 H   0  0  0  0  0  0  0  0  0  0  0  0
   -0.0222   -2.3271   -0.4397 H   0  0  0  0  0  0  0  0  0  0  0  0
   -1.3126   -2.7884    1.6633 H   0  0  0  0  0  0  0  0  0  0  0  0
   -0.2590   -1.4726    2.2346 H   0  0  0  0  0  0  0  0  0  0  0  0
   -3.1812   -1.3684    1.7182 H   0  0  0  0  0  0  0  0  0  0  0  0
   -2.2605   -0.1382    3.4133 H   0  0  0  0  0  0  0  0  0  0  0  0
  1  2  1  0
  2  3  2  0
  3  4  1  0
  4  5  1  0
  5  6  1  0
  6  7  1  0
  7  8  1  0
  8  9  1  0
  6  2  1  0
  8  4  1  0
  1 10  1  0
  1 11  1  0
  1 12  1  0
  3 13  1  0
  4 14  1  0
  6 15  1  0
  7 16  1  0
  7 17  1  0
  8 18  1  0
  9 19  1  0
M  END
$$$$
