
     RDKit          3D

 19 21  0  0  0  0  0  0  0  0999 V2000
   -0.2156   -0.0263    0.0100 C   0  0  0  0  0  0  0  0  0  0  0  0
    1.3037   -0.0037    0.0683 C   0  0  0  0  0  0  0  0  0  0  0  0
    1.9749   -0.5363    1.3466 C   0  0  0  0  0  0  0  0  0  0  0  0
    1.4954    0.2637    2.4293 O   0  0  0  0  0  0  0  0  0  0  0  0
    2.5845    0.7724    1.6499 C   0  0  0  0  0  0  0  0  0  0  0  0
    2.0017    1.3798    0.3735 C   0  0  0  0  0  0  0  0  0  0  0  0
    2.9312    2.0391   -0.6654 C   0  0  0  0  0  0  0  0  0  0  0  0
    2.0023    3.2584   -0.5025 C   0  0  0  0  0  0  0  0  0  0  0  0
    1.1961    2.5626    0.4722 O   0  0  0  0  0  0  0  0  0  0  0  0
   -0.6346    0.3695    0.9374 H   0  0  0  0  0  0  0  0  0  0  0  0
   -0.5811    0.5916   -0.8157 H   0  0  0  0  0  0  0  0  0  0  0  0
   -0.5875   -1.0458   -0.1372 H   0  0  0  0  0  0  0  0  0  0  0  0
    1.7474   -0.4479   -0.8300 H   0  0  0  0  0  0  0  0  0  0  0  0
    2.3264   -1.5349    1.5786 H   0  0  0  0  0  0  0  0  0  0  0  0
    3.4948    1.0347    2.1791 H   0  0  0  0  0  0  0  0  0  0  0  0
    3.9618    2.1883   -0.3360 H   0  0  0  0  0  0  0  0  0  0  0  0
    2.9344    1.5719   -1.6518 H   0  0  0  0  0  0  0  0  0  0  0  0
    2.4648    4.1582   -0.0812 H   0  0  0  0  0  0  0  0  0  0  0  0
    1.4207    3.5384   -1.3886 H   0  0  0  0  0  0  0  0  0  0  0  0
  1  2  1  0
  2  3  1  0
  3  4  1  0
  4  5  1  0
  5  6  1  0
  6  7  1  0
  7  8  1  0
  8  9  1  0
  6  2  1  0
  9  6  1  0
  5  3  1  0
  1 10  1  0
  1 11  1  0
  1 12  1  0
  2 13  1  0
  3 14  1  0
  5 15  1  0
  7 16  1  0
  7 17  1  0
  8 18  1  0
  8 19  1  0
M  END
$$$$
