gdb 2162	2.1586457	1.9611727	1.64046	1.4639	74.39	-0.23279	0.07943	0.31222	960.4925	0.156022	-422.510093	-422.501981	-422.501037	-422.542119	31.652
 OpenBabel02181911403D

 19 21  0  0  1  0  0  0  0  0999 V2000
    1.2078    3.0353    0.2031 C   0  0  0  0  0  0  0  0  0  0  0  0
    1.9943    1.7636    0.0240 C   0  0  2  0  0  0  0  0  0  0  0  0
    3.0614    1.3576    1.0310 C   0  0  0  0  0  0  0  0  0  0  0  0
    3.5335    0.1065    0.4852 O   0  0  0  0  0  0  0  0  0  0  0  0
    2.7524   -0.0339   -0.6735 C   0  0  2  0  0  0  0  0  0  0  0  0
    2.5276    1.3279   -1.3813 C   0  0  1  0  0  0  0  0  0  0  0  0
    1.1907    0.9127   -1.8111 O   0  0  0  0  0  0  0  0  0  0  0  0
    1.2833    0.4256   -0.4240 C   0  0  2  0  0  0  0  0  0  0  0  0
    0.1179   -0.2915    0.1773 C   0  0  0  0  0  0  0  0  0  0  0  0
    0.6461    3.0279    1.1440 H   0  0  0  0  0  0  0  0  0  0  0  0
    1.8637    3.9128    0.2165 H   0  0  0  0  0  0  0  0  0  0  0  0
    0.4985    3.1478   -0.6218 H   0  0  0  0  0  0  0  0  0  0  0  0
    3.8916    2.0725    1.0942 H   0  0  0  0  0  0  0  0  0  0  0  0
    2.6633    1.1972    2.0410 H   0  0  0  0  0  0  0  0  0  0  0  0
    2.9844   -0.9403   -1.2285 H   0  0  0  0  0  0  0  0  0  0  0  0
    3.1478    1.8763   -2.0903 H   0  0  0  0  0  0  0  0  0  0  0  0
    0.3762   -0.6522    1.1781 H   0  0  0  0  0  0  0  0  0  0  0  0
   -0.7519    0.3681    0.2593 H   0  0  0  0  0  0  0  0  0  0  0  0
   -0.1592   -1.1535   -0.4373 H   0  0  0  0  0  0  0  0  0  0  0  0
  1 11  1  0  0  0  0
  1 10  1  0  0  0  0
  2  1  1  1  0  0  0
  2  3  1  0  0  0  0
  3 13  1  0  0  0  0
  3 14  1  0  0  0  0
  4  3  1  0  0  0  0
  5 15  1  6  0  0  0
  5  8  1  0  0  0  0
  5  4  1  0  0  0  0
  6 16  1  6  0  0  0
  6  5  1  0  0  0  0
  6  2  1  0  0  0  0
  7  6  1  0  0  0  0
  7  8  1  0  0  0  0
  8  2  1  0  0  0  0
  8  9  1  1  0  0  0
  9 18  1  0  0  0  0
  9 17  1  0  0  0  0
 12  1  1  0  0  0  0
 19  9  1  0  0  0  0
M TOR 0 0 1 2 3
M TOR 1 0 1 2 12
M TOR 2 0 1 2 13
M TOR 3 0 1 5 4
M TOR 4 0 1 5 6
M TOR 5 0 1 5 15
M TOR 6 0 1 7 4
M TOR 7 0 1 7 6
M TOR 8 0 1 7 8
M TOR 9 1 2 3 4
M TOR 10 1 5 4 3
M TOR 11 1 5 4 7
M TOR 12 1 5 4 14
M TOR 13 1 5 6 7
M TOR 14 1 7 4 3
M TOR 15 1 7 4 14
M TOR 16 1 7 8 16
M TOR 17 1 7 8 17
M TOR 18 1 7 8 18
M TOR 19 2 1 0 9
M TOR 20 2 1 0 10
M TOR 21 2 1 0 11
M TOR 22 2 1 5 4
M TOR 23 2 1 5 6
M TOR 24 2 1 5 15
M TOR 25 2 1 7 4
M TOR 26 2 1 7 6
M TOR 27 2 1 7 8
M TOR 28 2 3 4 5
M TOR 29 2 3 4 7
M TOR 30 2 3 4 14
M TOR 31 3 2 1 5
M TOR 32 3 2 1 7
M TOR 33 3 4 5 6
M TOR 34 3 4 5 15
M TOR 35 3 4 7 6
M TOR 36 3 4 7 8
M TOR 37 4 3 2 12
M TOR 38 4 3 2 13
M TOR 39 4 5 6 7
M TOR 40 4 7 8 16
M TOR 41 4 7 8 17
M TOR 42 4 7 8 18
M TOR 43 5 1 0 9
M TOR 44 5 1 0 10
M TOR 45 5 1 0 11
M TOR 46 5 1 2 12
M TOR 47 5 1 2 13
M TOR 48 5 1 7 8
M TOR 49 5 4 7 8
M TOR 50 5 6 7 8
M TOR 51 6 5 4 14
M TOR 52 6 7 4 14
M TOR 53 6 7 8 16
M TOR 54 6 7 8 17
M TOR 55 6 7 8 18
M TOR 56 7 1 0 9
M TOR 57 7 1 0 10
M TOR 58 7 1 0 11
M TOR 59 7 1 2 12
M TOR 60 7 1 2 13
M TOR 61 7 1 5 15
M TOR 62 7 4 5 15
M TOR 63 7 6 5 15
M TOR 64 8 7 4 14
M  END
$$$$
