gdb 1378	3.2627848	0.847663	0.7020862	1.4243	78.53	-0.25734	0.02848	0.28582	1580.3041	0.153074	-422.482392	-422.472232	-422.471288	-422.518416	35.701
 OpenBabel02181911403D

 19 19  0  0  1  0  0  0  0  0999 V2000
    1.1679    0.9170   -3.0454 C   0  0  0  0  0  0  0  0  0  0  0  0
    0.1765    0.2373   -2.1100 C   0  0  1  0  0  0  0  0  0  0  0  0
    0.7311    0.3018   -0.8020 O   0  0  0  0  0  0  0  0  0  0  0  0
    0.0925   -0.5364    0.1465 C   0  0  0  0  0  0  0  0  0  0  0  0
    0.8473   -0.5284    1.3928 C   0  0  0  0  0  0  0  0  0  0  0  0
    1.4477   -0.5369    2.4325 C   0  0  0  0  0  0  0  0  0  0  0  0
   -1.1824    0.9159   -2.1631 C   0  0  2  0  0  0  0  0  0  0  0  0
   -2.4464    0.1662   -2.1452 C   0  0  0  0  0  0  0  0  0  0  0  0
   -1.9284    0.7030   -3.3620 O   0  0  0  0  0  0  0  0  0  0  0  0
    1.3263    1.9560   -2.7402 H   0  0  0  0  0  0  0  0  0  0  0  0
    2.1303    0.4005   -3.0169 H   0  0  0  0  0  0  0  0  0  0  0  0
    0.7838    0.9051   -4.0685 H   0  0  0  0  0  0  0  0  0  0  0  0
    0.0445   -0.8156   -2.4120 H   0  0  0  0  0  0  0  0  0  0  0  0
   -0.9388   -0.2048    0.3417 H   0  0  0  0  0  0  0  0  0  0  0  0
    0.0260   -1.5681   -0.2392 H   0  0  0  0  0  0  0  0  0  0  0  0
    1.9845   -0.5417    3.3488 H   0  0  0  0  0  0  0  0  0  0  0  0
   -1.1855    1.9460   -1.8011 H   0  0  0  0  0  0  0  0  0  0  0  0
   -2.4254   -0.9208   -2.0711 H   0  0  0  0  0  0  0  0  0  0  0  0
   -3.3531    0.6403   -1.7722 H   0  0  0  0  0  0  0  0  0  0  0  0
  1 11  1  0  0  0  0
  1 10  1  0  0  0  0
  1  2  1  0  0  0  0
  2 13  1  6  0  0  0
  2  3  1  0  0  0  0
  3  4  1  0  0  0  0
  4 14  1  0  0  0  0
  4  5  1  0  0  0  0
  5  6  3  0  0  0  0
  6 16  1  0  0  0  0
  7  8  1  0  0  0  0
  7  2  1  0  0  0  0
  7 17  1  1  0  0  0
  8 18  1  0  0  0  0
  8 19  1  0  0  0  0
  9  7  1  0  0  0  0
  9  8  1  0  0  0  0
 12  1  1  0  0  0  0
 15  4  1  0  0  0  0
M TOR 0 0 1 2 3
M TOR 1 0 1 6 7
M TOR 2 0 1 6 8
M TOR 3 0 1 6 16
M TOR 4 1 2 3 4
M TOR 5 1 2 3 13
M TOR 6 1 2 3 14
M TOR 7 1 6 7 8
M TOR 8 1 6 7 17
M TOR 9 1 6 7 18
M TOR 10 2 1 0 9
M TOR 11 2 1 0 10
M TOR 12 2 1 0 11
M TOR 13 2 1 6 7
M TOR 14 2 1 6 8
M TOR 15 2 1 6 16
M TOR 16 2 3 4 5
M TOR 17 3 2 1 6
M TOR 18 3 2 1 12
M TOR 19 3 4 5 15
M TOR 20 5 4 3 13
M TOR 21 5 4 3 14
M TOR 22 6 1 0 9
M TOR 23 6 1 0 10
M TOR 24 6 1 0 11
M TOR 25 6 8 7 17
M TOR 26 6 8 7 18
M TOR 27 7 6 1 12
M TOR 28 7 8 6 16
M TOR 29 8 6 1 12
M  END
$$$$
