
     RDKit          3D

 19 21  0  0  0  0  0  0  0  0999 V2000
   -0.0963    0.1229   -0.0307 C   0  0  0  0  0  0  0  0  0  0  0  0
    1.4006    0.1380    0.0539 C   0  0  0  0  0  0  0  0  0  0  0  0
    2.3183    1.3660    0.0505 C   0  0  0  0  0  0  0  0  0  0  0  0
    3.4377    0.3943    0.5034 C   0  0  0  0  0  0  0  0  0  0  0  0
    4.5741    0.8132    1.1714 O   0  0  0  0  0  0  0  0  0  0  0  0
    3.6592   -0.5254   -0.7202 C   0  0  0  0  0  0  0  0  0  0  0  0
    2.2542   -1.0430   -0.4243 C   0  0  0  0  0  0  0  0  0  0  0  0
    1.6219   -2.1308   -0.9915 O   0  0  0  0  0  0  0  0  0  0  0  0
    2.3041   -0.6084    1.0265 C   0  0  0  0  0  0  0  0  0  0  0  0
   -0.5462    0.7275    0.7648 H   0  0  0  0  0  0  0  0  0  0  0  0
   -0.4408    0.5247   -0.9907 H   0  0  0  0  0  0  0  0  0  0  0  0
   -0.4785   -0.8979    0.0539 H   0  0  0  0  0  0  0  0  0  0  0  0
    2.4747    1.9232   -0.8815 H   0  0  0  0  0  0  0  0  0  0  0  0
    2.0340    2.0585    0.8525 H   0  0  0  0  0  0  0  0  0  0  0  0
    4.3079    1.4169    1.8732 H   0  0  0  0  0  0  0  0  0  0  0  0
    3.8680   -0.0478   -1.6841 H   0  0  0  0  0  0  0  0  0  0  0  0
    4.4199   -1.2809   -0.4978 H   0  0  0  0  0  0  0  0  0  0  0  0
    2.0976   -2.9267   -0.7300 H   0  0  0  0  0  0  0  0  0  0  0  0
    2.1061   -1.1173    1.9593 H   0  0  0  0  0  0  0  0  0  0  0  0
  1  2  1  0
  2  3  1  0
  3  4  1  0
  4  5  1  0
  4  6  1  0
  6  7  1  0
  7  8  1  0
  7  9  1  0
  7  2  1  0
  9  2  1  0
  9  4  1  0
  1 10  1  0
  1 11  1  0
  1 12  1  0
  3 13  1  0
  3 14  1  0
  5 15  1  0
  6 16  1  0
  6 17  1  0
  8 18  1  0
  9 19  1  0
M  END
$$$$
