
     RDKit          3D

 19 21  0  0  0  0  0  0  0  0999 V2000
    1.1995    1.0481   -0.0813 C   0  0  0  0  0  0  0  0  0  0  0  0
    0.9811   -0.4447    0.1393 C   0  0  0  0  0  0  0  0  0  0  0  0
    1.9184   -1.0927    1.1796 C   0  0  0  0  0  0  0  0  0  0  0  0
    1.7638   -2.5813    1.1894 C   0  0  0  0  0  0  0  0  0  0  0  0
    2.4279   -3.3352    2.1612 O   0  0  0  0  0  0  0  0  0  0  0  0
    2.5752   -1.9618    0.0757 C   0  0  0  0  0  0  0  0  0  0  0  0
    1.6495   -1.3353   -0.9386 C   0  0  0  0  0  0  0  0  0  0  0  0
    1.1498   -1.8439   -2.2171 C   0  0  0  0  0  0  0  0  0  0  0  0
    2.1234   -0.7852   -2.1548 O   0  0  0  0  0  0  0  0  0  0  0  0
    0.8519    1.6196    0.7854 H   0  0  0  0  0  0  0  0  0  0  0  0
    2.2586    1.2716   -0.2401 H   0  0  0  0  0  0  0  0  0  0  0  0
    0.6526    1.3949   -0.9625 H   0  0  0  0  0  0  0  0  0  0  0  0
   -0.0834   -0.6509    0.3075 H   0  0  0  0  0  0  0  0  0  0  0  0
    2.3868   -0.5664    2.0047 H   0  0  0  0  0  0  0  0  0  0  0  0
    0.7993   -3.0396    0.9810 H   0  0  0  0  0  0  0  0  0  0  0  0
    3.2767   -2.9206    2.3498 H   0  0  0  0  0  0  0  0  0  0  0  0
    3.6122   -2.2313   -0.0909 H   0  0  0  0  0  0  0  0  0  0  0  0
    1.5187   -2.7918   -2.6069 H   0  0  0  0  0  0  0  0  0  0  0  0
    0.1656   -1.5450   -2.5763 H   0  0  0  0  0  0  0  0  0  0  0  0
  1  2  1  0
  2  3  1  0
  3  4  1  0
  4  5  1  0
  4  6  1  0
  6  7  1  0
  7  8  1  0
  8  9  1  0
  7  2  1  0
  9  7  1  0
  6  3  1  0
  1 10  1  0
  1 11  1  0
  1 12  1  0
  2 13  1  0
  3 14  1  0
  4 15  1  0
  5 16  1  0
  6 17  1  0
  8 18  1  0
  8 19  1  0
M  END
$$$$
