gdb 1480	2.2732752	1.5484291	1.1492974	3.0072	77.91	-0.24351	-0.02707	0.21644	1131.4346	0.154885	-422.527955	-422.518874	-422.51793	-422.561321	33.747
 OpenBabel02181911403D

 19 20  0  0  1  0  0  0  0  0999 V2000
    0.0900    0.5371    0.2140 C   0  0  0  0  0  0  0  0  0  0  0  0
    1.5386    0.0824    0.1397 C   0  0  0  0  0  0  0  0  0  0  0  0
    2.0412   -0.6201    1.3864 C   0  0  0  0  0  0  0  0  0  0  0  0
    2.4264    0.9792   -0.6485 C   0  0  1  0  0  0  0  0  0  0  0  0
    3.7924    0.6151   -0.6082 O   0  0  0  0  0  0  0  0  0  0  0  0
    3.5035   -0.6641   -1.2463 C   0  0  0  0  0  0  0  0  0  0  0  0
    2.0043   -0.3875   -1.2563 C   0  0  1  0  0  0  0  0  0  0  0  0
    1.1504   -0.7150   -2.4002 C   0  0  0  0  0  0  0  0  0  0  0  0
    1.5377   -1.3540   -3.3546 O   0  0  0  0  0  0  0  0  0  0  0  0
   -0.0554    1.1574    1.1044 H   0  0  0  0  0  0  0  0  0  0  0  0
   -0.2073    1.1322   -0.6548 H   0  0  0  0  0  0  0  0  0  0  0  0
   -0.5935   -0.3155    0.2852 H   0  0  0  0  0  0  0  0  0  0  0  0
    1.5681   -1.6005    1.5046 H   0  0  0  0  0  0  0  0  0  0  0  0
    3.1241   -0.7516    1.3667 H   0  0  0  0  0  0  0  0  0  0  0  0
    1.7981   -0.0222    2.2716 H   0  0  0  0  0  0  0  0  0  0  0  0
    2.1769    1.9901   -0.9568 H   0  0  0  0  0  0  0  0  0  0  0  0
    3.9191   -0.6930   -2.2566 H   0  0  0  0  0  0  0  0  0  0  0  0
    3.8694   -1.5139   -0.6621 H   0  0  0  0  0  0  0  0  0  0  0  0
    0.1053   -0.3440   -2.3518 H   0  0  0  0  0  0  0  0  0  0  0  0
  1 12  1  0  0  0  0
  1 10  1  0  0  0  0
  2  1  1  0  0  0  0
  2  3  1  0  0  0  0
  3 13  1  0  0  0  0
  3 15  1  0  0  0  0
  4 16  1  6  0  0  0
  4  5  1  0  0  0  0
  4  2  1  0  0  0  0
  6 18  1  0  0  0  0
  6  5  1  0  0  0  0
  7  8  1  6  0  0  0
  7  6  1  0  0  0  0
  7  4  1  0  0  0  0
  7  2  1  0  0  0  0
  8 19  1  0  0  0  0
  9  8  2  0  0  0  0
 11  1  1  0  0  0  0
 14  3  1  0  0  0  0
 17  6  1  0  0  0  0
M TOR 0 0 1 2 12
M TOR 1 0 1 2 13
M TOR 2 0 1 2 14
M TOR 3 0 1 3 4
M TOR 4 0 1 3 6
M TOR 5 0 1 3 15
M TOR 6 0 1 6 5
M TOR 7 0 1 6 7
M TOR 8 1 3 4 5
M TOR 9 1 3 6 5
M TOR 10 1 3 6 7
M TOR 11 1 6 3 4
M TOR 12 1 6 3 15
M TOR 13 1 6 5 4
M TOR 14 1 6 5 16
M TOR 15 1 6 5 17
M TOR 16 1 6 7 8
M TOR 17 1 6 7 18
M TOR 18 2 1 0 9
M TOR 19 2 1 0 10
M TOR 20 2 1 0 11
M TOR 21 2 1 3 4
M TOR 22 2 1 3 6
M TOR 23 2 1 3 15
M TOR 24 2 1 6 5
M TOR 25 2 1 6 7
M TOR 26 3 1 0 9
M TOR 27 3 1 0 10
M TOR 28 3 1 0 11
M TOR 29 3 1 2 12
M TOR 30 3 1 2 13
M TOR 31 3 1 2 14
M TOR 32 3 4 5 6
M TOR 33 3 4 5 16
M TOR 34 3 4 5 17
M TOR 35 3 6 5 16
M TOR 36 3 6 5 17
M TOR 37 3 6 7 8
M TOR 38 3 6 7 18
M TOR 39 4 3 6 7
M TOR 40 4 5 6 7
M TOR 41 5 4 3 15
M TOR 42 5 6 3 15
M TOR 43 5 6 7 8
M TOR 44 5 6 7 18
M TOR 45 6 1 0 9
M TOR 46 6 1 0 10
M TOR 47 6 1 0 11
M TOR 48 6 1 2 12
M TOR 49 6 1 2 13
M TOR 50 6 1 2 14
M TOR 51 7 6 3 15
M TOR 52 7 6 5 16
M TOR 53 7 6 5 17
M  END
$$$$
