gdb 4569	1.9379258	1.6331418	1.4650836	1.1321	76.66	-0.24912	0.03587	0.28499	1070.3562	0.15431	-422.531598	-422.52194	-422.520996	-422.565929	35.158
 OpenBabel02181911413D

 19 19  0  0  1  0  0  0  0  0999 V2000
   -0.0570   -0.0697   -0.0053 C   0  0  0  0  0  0  0  0  0  0  0  0
    1.2311    0.4296    0.6189 C   0  0  2  0  0  0  0  0  0  0  0  0
    2.1357    0.8321   -0.4040 O   0  0  0  0  0  0  0  0  0  0  0  0
    3.4529    0.6376    0.0741 C   0  0  0  0  0  0  0  0  0  0  0  0
    3.3700    0.0408    1.3513 O   0  0  0  0  0  0  0  0  0  0  0  0
    2.0792   -0.5792    1.4410 C   0  0  1  0  0  0  0  0  0  0  0  0
    1.6934   -0.6585    2.9160 C   0  0  0  0  0  0  0  0  0  0  0  0
    2.1090   -1.9161    0.8285 C   0  0  0  0  0  0  0  0  0  0  0  0
    2.1479   -3.0145    0.3417 C   0  0  0  0  0  0  0  0  0  0  0  0
   -0.7658   -0.3722    0.7721 H   0  0  0  0  0  0  0  0  0  0  0  0
   -0.5174    0.7285   -0.5934 H   0  0  0  0  0  0  0  0  0  0  0  0
    0.1360   -0.9225   -0.6593 H   0  0  0  0  0  0  0  0  0  0  0  0
    1.0199    1.2802    1.2870 H   0  0  0  0  0  0  0  0  0  0  0  0
    3.9867   -0.0076   -0.6394 H   0  0  0  0  0  0  0  0  0  0  0  0
    3.9843    1.5919    0.1892 H   0  0  0  0  0  0  0  0  0  0  0  0
    2.3888   -1.3071    3.4530 H   0  0  0  0  0  0  0  0  0  0  0  0
    1.7272    0.3398    3.3593 H   0  0  0  0  0  0  0  0  0  0  0  0
    0.6859   -1.0692    3.0236 H   0  0  0  0  0  0  0  0  0  0  0  0
    2.1868   -3.9848   -0.0892 H   0  0  0  0  0  0  0  0  0  0  0  0
  1  2  1  0  0  0  0
  1 10  1  0  0  0  0
  2 13  1  1  0  0  0
  2  6  1  0  0  0  0
  3  4  1  0  0  0  0
  3  2  1  0  0  0  0
  4 15  1  0  0  0  0
  4  5  1  0  0  0  0
  5  6  1  0  0  0  0
  6  8  1  6  0  0  0
  6  7  1  0  0  0  0
  7 18  1  0  0  0  0
  7 17  1  0  0  0  0
  7 16  1  0  0  0  0
  9  8  3  0  0  0  0
 11  1  1  0  0  0  0
 12  1  1  0  0  0  0
 14  4  1  0  0  0  0
 19  9  1  0  0  0  0
M TOR 0 0 1 2 3
M TOR 1 0 1 5 4
M TOR 2 0 1 5 6
M TOR 3 0 1 5 7
M TOR 4 1 2 3 4
M TOR 5 1 2 3 13
M TOR 6 1 2 3 14
M TOR 7 1 5 4 3
M TOR 8 1 5 6 15
M TOR 9 1 5 6 16
M TOR 10 1 5 6 17
M TOR 11 1 5 7 8
M TOR 12 2 1 0 9
M TOR 13 2 1 0 10
M TOR 14 2 1 0 11
M TOR 15 2 1 5 4
M TOR 16 2 1 5 6
M TOR 17 2 1 5 7
M TOR 18 2 3 4 5
M TOR 19 3 2 1 5
M TOR 20 3 2 1 12
M TOR 21 3 4 5 6
M TOR 22 3 4 5 7
M TOR 23 4 5 1 12
M TOR 24 4 5 6 15
M TOR 25 4 5 6 16
M TOR 26 4 5 6 17
M TOR 27 4 5 7 8
M TOR 28 5 1 0 9
M TOR 29 5 1 0 10
M TOR 30 5 1 0 11
M TOR 31 5 4 3 13
M TOR 32 5 4 3 14
M TOR 33 5 7 8 18
M TOR 34 6 5 1 12
M TOR 35 6 5 7 8
M TOR 36 7 5 1 12
M TOR 37 7 5 6 15
M TOR 38 7 5 6 16
M TOR 39 7 5 6 17
M  END
$$$$
