
     RDKit          3D

 19 21  0  0  0  0  0  0  0  0999 V2000
    0.0843   -0.2434    0.0296 O   0  0  0  0  0  0  0  0  0  0  0  0
   -1.0555    0.2620    0.7073 C   0  0  0  0  0  0  0  0  0  0  0  0
   -1.7922    1.3364   -0.1625 C   0  0  0  0  0  0  0  0  0  0  0  0
   -2.6137    0.1581   -0.8160 C   0  0  0  0  0  0  0  0  0  0  0  0
   -2.2767   -0.6432    0.4436 C   0  0  0  0  0  0  0  0  0  0  0  0
   -1.9461   -1.9636    1.1499 C   0  0  0  0  0  0  0  0  0  0  0  0
   -2.1036   -0.9643    2.3488 C   0  0  0  0  0  0  0  0  0  0  0  0
   -0.9684    0.0990    2.2494 C   0  0  0  0  0  0  0  0  0  0  0  0
   -3.1345   -0.2836    1.5721 O   0  0  0  0  0  0  0  0  0  0  0  0
    0.7504    0.4513    0.0111 H   0  0  0  0  0  0  0  0  0  0  0  0
   -2.4272    1.9995    0.4245 H   0  0  0  0  0  0  0  0  0  0  0  0
   -1.1554    1.9220   -0.8300 H   0  0  0  0  0  0  0  0  0  0  0  0
   -3.6728    0.3151   -1.0265 H   0  0  0  0  0  0  0  0  0  0  0  0
   -2.1072   -0.2319   -1.7000 H   0  0  0  0  0  0  0  0  0  0  0  0
   -2.7588   -2.6910    1.1510 H   0  0  0  0  0  0  0  0  0  0  0  0
   -0.9769   -2.4216    0.9468 H   0  0  0  0  0  0  0  0  0  0  0  0
   -2.4307   -1.2963    3.3343 H   0  0  0  0  0  0  0  0  0  0  0  0
   -1.2369    0.9825    2.8333 H   0  0  0  0  0  0  0  0  0  0  0  0
    0.0196   -0.2553    2.5539 H   0  0  0  0  0  0  0  0  0  0  0  0
  1  2  1  0
  2  3  1  0
  3  4  1  0
  4  5  1  0
  5  6  1  0
  6  7  1  0
  7  8  1  0
  7  9  1  0
  5  2  1  0
  9  5  1  0
  8  2  1  0
  1 10  1  0
  3 11  1  0
  3 12  1  0
  4 13  1  0
  4 14  1  0
  6 15  1  0
  6 16  1  0
  7 17  1  0
  8 18  1  0
  8 19  1  0
M  END
$$$$
