
     RDKit          3D

 19 19  0  0  0  0  0  0  0  0999 V2000
    2.2514   -1.9073    1.4221 C   0  0  0  0  0  0  0  0  0  0  0  0
    1.5264   -1.2539    2.5976 C   0  0  0  0  0  0  0  0  0  0  0  0
    1.3362   -2.1630    3.6702 O   0  0  0  0  0  0  0  0  0  0  0  0
    0.1749   -0.6066    2.2059 C   0  0  0  0  0  0  0  0  0  0  0  0
   -0.3598    0.3342    3.3246 C   0  0  0  0  0  0  0  0  0  0  0  0
    0.0437    1.5043    2.5872 O   0  0  0  0  0  0  0  0  0  0  0  0
    0.3248    0.7256    1.4131 C   0  0  0  0  0  0  0  0  0  0  0  0
   -0.7541   -1.5974    1.6948 C   0  0  0  0  0  0  0  0  0  0  0  0
   -1.5125   -2.4432    1.2967 C   0  0  0  0  0  0  0  0  0  0  0  0
    1.6394   -2.7028    0.9842 H   0  0  0  0  0  0  0  0  0  0  0  0
    2.4775   -1.1824    0.6336 H   0  0  0  0  0  0  0  0  0  0  0  0
    3.1918   -2.3429    1.7689 H   0  0  0  0  0  0  0  0  0  0  0  0
    2.1502   -0.4533    3.0122 H   0  0  0  0  0  0  0  0  0  0  0  0
    0.7531   -2.8631    3.3508 H   0  0  0  0  0  0  0  0  0  0  0  0
   -1.4460    0.2897    3.4658 H   0  0  0  0  0  0  0  0  0  0  0  0
    0.1460    0.2448    4.2907 H   0  0  0  0  0  0  0  0  0  0  0  0
   -0.4281    0.8645    0.6279 H   0  0  0  0  0  0  0  0  0  0  0  0
    1.3209    0.9336    1.0056 H   0  0  0  0  0  0  0  0  0  0  0  0
   -2.1953   -3.1714    0.9336 H   0  0  0  0  0  0  0  0  0  0  0  0
  1  2  1  0
  2  3  1  0
  2  4  1  0
  4  5  1  0
  5  6  1  0
  6  7  1  0
  4  8  1  0
  8  9  3  0
  7  4  1  0
  1 10  1  0
  1 11  1  0
  1 12  1  0
  2 13  1  0
  3 14  1  0
  5 15  1  0
  5 16  1  0
  7 17  1  0
  7 18  1  0
  9 19  1  0
M  END
$$$$
