
     RDKit          3D

 19 19  0  0  0  0  0  0  0  0999 V2000
   -3.6340    0.4512    0.8229 C   0  0  0  0  0  0  0  0  0  0  0  0
   -2.9140    1.3868   -0.1303 C   0  0  0  0  0  0  0  0  0  0  0  0
   -3.4909    1.9666   -1.0182 O   0  0  0  0  0  0  0  0  0  0  0  0
   -1.3995    1.5684    0.0718 C   0  0  0  0  0  0  0  0  0  0  0  0
   -1.0272    2.0381    1.4514 C   0  0  0  0  0  0  0  0  0  0  0  0
   -1.0369    3.2811    1.9290 C   0  0  0  0  0  0  0  0  0  0  0  0
   -0.5805    3.2917    3.3587 C   0  0  0  0  0  0  0  0  0  0  0  0
   -0.3403    1.9232    3.6844 O   0  0  0  0  0  0  0  0  0  0  0  0
   -0.5478    1.1082    2.5404 C   0  0  0  0  0  0  0  0  0  0  0  0
   -3.1530   -0.5331    0.8380 H   0  0  0  0  0  0  0  0  0  0  0  0
   -3.5875    0.8469    1.8431 H   0  0  0  0  0  0  0  0  0  0  0  0
   -4.6766    0.3499    0.5198 H   0  0  0  0  0  0  0  0  0  0  0  0
   -0.9144    0.6051   -0.1369 H   0  0  0  0  0  0  0  0  0  0  0  0
   -1.0703    2.2796   -0.6888 H   0  0  0  0  0  0  0  0  0  0  0  0
   -1.3110    4.1779    1.3870 H   0  0  0  0  0  0  0  0  0  0  0  0
    0.3400    3.8816    3.4993 H   0  0  0  0  0  0  0  0  0  0  0  0
   -1.3353    3.7064    4.0450 H   0  0  0  0  0  0  0  0  0  0  0  0
    0.3903    0.6034    2.2505 H   0  0  0  0  0  0  0  0  0  0  0  0
   -1.2741    0.3145    2.7782 H   0  0  0  0  0  0  0  0  0  0  0  0
  1  2  1  0
  2  3  2  0
  2  4  1  0
  4  5  1  0
  5  6  2  0
  6  7  1  0
  7  8  1  0
  8  9  1  0
  9  5  1  0
  1 10  1  0
  1 11  1  0
  1 12  1  0
  4 13  1  0
  4 14  1  0
  6 15  1  0
  7 16  1  0
  7 17  1  0
  9 18  1  0
  9 19  1  0
M  END
$$$$
