
     RDKit          3D

 19 19  0  0  0  0  0  0  0  0999 V2000
    1.5654    0.2035    0.4019 C   0  0  0  0  0  0  0  0  0  0  0  0
    0.1263    0.1238    0.1947 C   0  0  0  0  0  0  0  0  0  0  0  0
   -1.0659    0.0691    0.0248 C   0  0  0  0  0  0  0  0  0  0  0  0
   -2.4919   -0.0319   -0.1948 C   0  0  0  0  0  0  0  0  0  0  0  0
   -3.1105    0.4338   -1.5547 C   0  0  0  0  0  0  0  0  0  0  0  0
   -4.0992   -0.7443   -1.4552 C   0  0  0  0  0  0  0  0  0  0  0  0
   -4.4165   -1.3591   -2.6774 O   0  0  0  0  0  0  0  0  0  0  0  0
   -3.1217   -1.4390   -0.4879 C   0  0  0  0  0  0  0  0  0  0  0  0
   -3.7265   -2.1613    0.5512 O   0  0  0  0  0  0  0  0  0  0  0  0
    1.8064    0.7164    1.3398 H   0  0  0  0  0  0  0  0  0  0  0  0
    2.0199   -0.7929    0.4446 H   0  0  0  0  0  0  0  0  0  0  0  0
    2.0548    0.7534   -0.4099 H   0  0  0  0  0  0  0  0  0  0  0  0
   -3.0483    0.4192    0.6345 H   0  0  0  0  0  0  0  0  0  0  0  0
   -3.5157    1.4445   -1.6054 H   0  0  0  0  0  0  0  0  0  0  0  0
   -2.4125    0.2753   -2.3796 H   0  0  0  0  0  0  0  0  0  0  0  0
   -5.0001   -0.4511   -0.8959 H   0  0  0  0  0  0  0  0  0  0  0  0
   -5.0465   -2.0658   -2.5027 H   0  0  0  0  0  0  0  0  0  0  0  0
   -2.4091   -2.0454   -1.0635 H   0  0  0  0  0  0  0  0  0  0  0  0
   -3.0351   -2.5658    1.0853 H   0  0  0  0  0  0  0  0  0  0  0  0
  1  2  1  0
  2  3  3  0
  3  4  1  0
  4  5  1  0
  5  6  1  0
  6  7  1  0
  6  8  1  0
  8  9  1  0
  8  4  1  0
  1 10  1  0
  1 11  1  0
  1 12  1  0
  4 13  1  0
  5 14  1  0
  5 15  1  0
  6 16  1  0
  7 17  1  0
  8 18  1  0
  9 19  1  0
M  END
$$$$
