
     RDKit          3D

 19 21  0  0  0  0  0  0  0  0999 V2000
    1.5836    0.4574   -0.1641 O   0  0  0  0  0  0  0  0  0  0  0  0
    0.5439   -0.2186    0.5266 C   0  0  0  0  0  0  0  0  0  0  0  0
   -0.2115    0.7149    1.4453 C   0  0  0  0  0  0  0  0  0  0  0  0
   -1.1024    0.1010    2.3905 O   0  0  0  0  0  0  0  0  0  0  0  0
    0.0482    0.7749    2.8861 C   0  0  0  0  0  0  0  0  0  0  0  0
    1.1850    0.1140    3.6977 C   0  0  0  0  0  0  0  0  0  0  0  0
    1.1590    1.3449    4.6192 C   0  0  0  0  0  0  0  0  0  0  0  0
   -0.2010    1.4979    5.2290 C   0  0  0  0  0  0  0  0  0  0  0  0
    0.0066    1.9655    3.8099 C   0  0  0  0  0  0  0  0  0  0  0  0
    2.2080    0.7850    0.4914 H   0  0  0  0  0  0  0  0  0  0  0  0
   -0.1303   -0.6029   -0.2459 H   0  0  0  0  0  0  0  0  0  0  0  0
    0.9121   -1.0816    1.1002 H   0  0  0  0  0  0  0  0  0  0  0  0
   -0.6123    1.6050    0.9556 H   0  0  0  0  0  0  0  0  0  0  0  0
    0.9474   -0.8448    4.1686 H   0  0  0  0  0  0  0  0  0  0  0  0
    2.1115    0.0061    3.1260 H   0  0  0  0  0  0  0  0  0  0  0  0
    2.0342    1.8425    5.0155 H   0  0  0  0  0  0  0  0  0  0  0  0
   -0.8157    0.6245    5.4319 H   0  0  0  0  0  0  0  0  0  0  0  0
   -0.3031    2.2947    5.9585 H   0  0  0  0  0  0  0  0  0  0  0  0
   -0.1549    2.9944    3.5127 H   0  0  0  0  0  0  0  0  0  0  0  0
  1  2  1  0
  2  3  1  0
  3  4  1  0
  4  5  1  0
  5  6  1  0
  6  7  1  0
  7  8  1  0
  8  9  1  0
  5  3  1  0
  9  5  1  0
  9  7  1  0
  1 10  1  0
  2 11  1  0
  2 12  1  0
  3 13  1  0
  6 14  1  0
  6 15  1  0
  7 16  1  0
  8 17  1  0
  8 18  1  0
  9 19  1  0
M  END
$$$$
