gdb 1226	2.9696288	0.687829	0.6026402	3.9017	83.36	-0.24316	-0.03323	0.20992999999999998	1879.7493	0.152523	-422.535557	-422.524278	-422.523333	-422.574404	37.932
 OpenBabel02181911403D

 19 18  0  0  1  0  0  0  0  0999 V2000
    1.9841   -0.7998    1.3416 C   0  0  0  0  0  0  0  0  0  0  0  0
    1.5409   -0.0561    0.0656 C   0  0  0  0  0  0  0  0  0  0  0  0
    0.0091    0.1157    0.0156 C   0  0  0  0  0  0  0  0  0  0  0  0
    2.0294   -0.7390   -1.1324 C   0  0  0  0  0  0  0  0  0  0  0  0
    2.4236   -1.3425   -2.1000 C   0  0  0  0  0  0  0  0  0  0  0  0
    2.9012   -1.9806   -3.3214 C   0  0  1  0  0  0  0  0  0  0  0  0
    1.8876   -2.1307   -4.3104 O   0  0  0  0  0  0  0  0  0  0  0  0
    4.0457   -1.1320   -3.9073 C   0  0  0  0  0  0  0  0  0  0  0  0
    5.2088   -1.4147   -3.8345 O   0  0  0  0  0  0  0  0  0  0  0  0
    1.5479   -1.8027    1.3738 H   0  0  0  0  0  0  0  0  0  0  0  0
    3.0716   -0.9005    1.3813 H   0  0  0  0  0  0  0  0  0  0  0  0
    1.6538   -0.2516    2.2294 H   0  0  0  0  0  0  0  0  0  0  0  0
    1.9912    0.9461    0.0856 H   0  0  0  0  0  0  0  0  0  0  0  0
   -0.3358    0.6624    0.8985 H   0  0  0  0  0  0  0  0  0  0  0  0
   -0.2983    0.6699   -0.8752 H   0  0  0  0  0  0  0  0  0  0  0  0
   -0.4875   -0.8592   -0.0011 H   0  0  0  0  0  0  0  0  0  0  0  0
    3.3048   -2.9779   -3.1164 H   0  0  0  0  0  0  0  0  0  0  0  0
    1.2534   -1.4158   -4.1913 H   0  0  0  0  0  0  0  0  0  0  0  0
    3.6782   -0.2204   -4.4312 H   0  0  0  0  0  0  0  0  0  0  0  0
  1 10  1  0  0  0  0
  1 11  1  0  0  0  0
  1 12  1  0  0  0  0
  2 13  1  0  0  0  0
  2  1  1  0  0  0  0
  3  2  1  0  0  0  0
  3 14  1  0  0  0  0
  4  2  1  0  0  0  0
  5  4  3  0  0  0  0
  6 17  1  1  0  0  0
  6  5  1  0  0  0  0
  7 18  1  0  0  0  0
  7  6  1  0  0  0  0
  8  9  2  0  0  0  0
  8  6  1  0  0  0  0
 15  3  1  0  0  0  0
 16  3  1  0  0  0  0
 19  8  1  0  0  0  0
M TOR 0 0 1 2 13
M TOR 1 0 1 2 14
M TOR 2 0 1 2 15
M TOR 3 0 1 3 4
M TOR 4 1 3 4 5
M TOR 5 2 1 0 9
M TOR 6 2 1 0 10
M TOR 7 2 1 0 11
M TOR 8 2 1 3 4
M TOR 9 3 1 0 9
M TOR 10 3 1 0 10
M TOR 11 3 1 0 11
M TOR 12 3 1 2 13
M TOR 13 3 1 2 14
M TOR 14 3 1 2 15
M TOR 15 3 4 5 6
M TOR 16 3 4 5 7
M TOR 17 3 4 5 16
M TOR 18 4 3 1 12
M TOR 19 4 5 6 17
M TOR 20 4 5 7 8
M TOR 21 4 5 7 18
M TOR 22 6 5 7 8
M TOR 23 6 5 7 18
M TOR 24 7 5 6 17
M TOR 25 8 7 5 16
M  END
$$$$
