
     RDKit          3D

 19 20  0  0  0  0  0  0  0  0999 V2000
   -0.7284   -2.4962   -0.2373 C   0  0  0  0  0  0  0  0  0  0  0  0
   -0.9445   -1.0255    0.0031 C   0  0  0  0  0  0  0  0  0  0  0  0
   -1.6305   -0.0346   -1.0111 C   0  0  0  0  0  0  0  0  0  0  0  0
   -0.9561    1.0652   -0.1316 C   0  0  0  0  0  0  0  0  0  0  0  0
   -0.8084    2.5131   -0.4834 C   0  0  0  0  0  0  0  0  0  0  0  0
   -1.6137    0.8817    1.1398 O   0  0  0  0  0  0  0  0  0  0  0  0
   -1.6320   -0.5588    1.2991 C   0  0  0  0  0  0  0  0  0  0  0  0
    0.1915    0.0285   -0.0347 C   0  0  0  0  0  0  0  0  0  0  0  0
    1.3801    0.0088   -0.1503 O   0  0  0  0  0  0  0  0  0  0  0  0
   -0.1320   -2.9369    0.5687 H   0  0  0  0  0  0  0  0  0  0  0  0
   -1.6789   -3.0384   -0.2864 H   0  0  0  0  0  0  0  0  0  0  0  0
   -0.1916   -2.6645   -1.1756 H   0  0  0  0  0  0  0  0  0  0  0  0
   -1.2271   -0.1032   -2.0237 H   0  0  0  0  0  0  0  0  0  0  0  0
   -2.7230   -0.0213   -1.0113 H   0  0  0  0  0  0  0  0  0  0  0  0
   -0.2351    3.0314    0.2905 H   0  0  0  0  0  0  0  0  0  0  0  0
   -0.2808    2.6210   -1.4347 H   0  0  0  0  0  0  0  0  0  0  0  0
   -1.7872    2.9949   -0.5661 H   0  0  0  0  0  0  0  0  0  0  0  0
   -1.0794   -0.8479    2.2016 H   0  0  0  0  0  0  0  0  0  0  0  0
   -2.6673   -0.9108    1.3878 H   0  0  0  0  0  0  0  0  0  0  0  0
  1  2  1  0
  2  3  1  0
  3  4  1  0
  4  5  1  0
  4  6  1  0
  6  7  1  0
  4  8  1  0
  8  9  2  0
  7  2  1  0
  8  2  1  0
  1 10  1  0
  1 11  1  0
  1 12  1  0
  3 13  1  0
  3 14  1  0
  5 15  1  0
  5 16  1  0
  5 17  1  0
  7 18  1  0
  7 19  1  0
M  END
$$$$
