
     RDKit          3D

 19 21  0  0  0  0  0  0  0  0999 V2000
   -0.1335   -0.5851    0.7703 C   0  0  0  0  0  0  0  0  0  0  0  0
   -0.5620    0.9101    0.5194 C   0  0  0  0  0  0  0  0  0  0  0  0
   -0.1051    0.6989   -0.9201 C   0  0  0  0  0  0  0  0  0  0  0  0
   -0.9929   -0.2616   -1.7897 C   0  0  0  0  0  0  0  0  0  0  0  0
    0.3064   -1.0860   -1.9070 C   0  0  0  0  0  0  0  0  0  0  0  0
    1.1101   -0.3832   -2.8878 O   0  0  0  0  0  0  0  0  0  0  0  0
    1.4882    0.9342   -2.5172 C   0  0  0  0  0  0  0  0  0  0  0  0
    0.5047    1.6452   -1.7591 O   0  0  0  0  0  0  0  0  0  0  0  0
    0.7437   -0.5558   -0.5295 C   0  0  0  0  0  0  0  0  0  0  0  0
    0.4411   -0.7537    1.6819 H   0  0  0  0  0  0  0  0  0  0  0  0
   -0.9643   -1.2924    0.7551 H   0  0  0  0  0  0  0  0  0  0  0  0
   -1.6051    1.1891    0.6897 H   0  0  0  0  0  0  0  0  0  0  0  0
    0.0924    1.6017    1.0573 H   0  0  0  0  0  0  0  0  0  0  0  0
   -1.7989   -0.7507   -1.2404 H   0  0  0  0  0  0  0  0  0  0  0  0
   -1.3641    0.1642   -2.7217 H   0  0  0  0  0  0  0  0  0  0  0  0
    0.3156   -2.1387   -2.1993 H   0  0  0  0  0  0  0  0  0  0  0  0
    2.4200    0.9034   -1.9340 H   0  0  0  0  0  0  0  0  0  0  0  0
    1.6532    1.4897   -3.4432 H   0  0  0  0  0  0  0  0  0  0  0  0
    1.8131   -0.5045   -0.3234 H   0  0  0  0  0  0  0  0  0  0  0  0
  1  2  1  0
  2  3  1  0
  3  4  1  0
  4  5  1  0
  5  6  1  0
  6  7  1  0
  7  8  1  0
  5  9  1  0
  9  1  1  0
  8  3  1  0
  9  3  1  0
  1 10  1  0
  1 11  1  0
  2 12  1  0
  2 13  1  0
  4 14  1  0
  4 15  1  0
  5 16  1  0
  7 17  1  0
  7 18  1  0
  9 19  1  0
M  END
$$$$
