gdb 5280	2.7980844	1.5448255	1.2945486	2.3213	73.93	-0.2453	0.05587	0.30117	1043.1084	0.157622	-422.496977	-422.489113	-422.488168	-422.529316	30.841
 OpenBabel02181911423D

 19 21  0  0  1  0  0  0  0  0999 V2000
    1.5745    0.6537   -0.2553 O   0  0  0  0  0  0  0  0  0  0  0  0
    0.5870    0.1163    0.6072 C   0  0  0  0  0  0  0  0  0  0  0  0
   -0.3376    1.2104    1.0781 C   0  0  1  0  0  0  0  0  0  0  0  0
   -1.0261    1.8275   -0.0576 O   0  0  0  0  0  0  0  0  0  0  0  0
   -2.3257    1.5658    0.5425 C   0  0  0  0  0  0  0  0  0  0  0  0
   -1.6695    1.0226    1.8268 C   0  0  2  0  0  0  0  0  0  0  0  0
   -1.1782    2.0276    2.8957 C   0  0  2  0  0  0  0  0  0  0  0  0
   -0.7649    3.3492    2.3104 C   0  0  0  0  0  0  0  0  0  0  0  0
    0.1686    2.1868    2.1629 C   0  0  2  0  0  0  0  0  0  0  0  0
    1.0940    1.1351   -0.9403 H   0  0  0  0  0  0  0  0  0  0  0  0
   -0.0004   -0.6718    0.1100 H   0  0  0  0  0  0  0  0  0  0  0  0
    1.1126   -0.3360    1.4549 H   0  0  0  0  0  0  0  0  0  0  0  0
   -2.9306    2.4751    0.6285 H   0  0  0  0  0  0  0  0  0  0  0  0
   -2.8808    0.8143   -0.0316 H   0  0  0  0  0  0  0  0  0  0  0  0
   -1.9865    0.0505    2.2024 H   0  0  0  0  0  0  0  0  0  0  0  0
   -1.3611    1.9138    3.9570 H   0  0  0  0  0  0  0  0  0  0  0  0
   -1.2493    3.7649    1.4340 H   0  0  0  0  0  0  0  0  0  0  0  0
   -0.4591    4.0889    3.0434 H   0  0  0  0  0  0  0  0  0  0  0  0
    1.1785    2.1941    2.5547 H   0  0  0  0  0  0  0  0  0  0  0  0
  1  2  1  0  0  0  0
  2 12  1  0  0  0  0
  3  2  1  6  0  0  0
  3  6  1  0  0  0  0
  3  9  1  0  0  0  0
  4  5  1  0  0  0  0
  4  3  1  0  0  0  0
  5 13  1  0  0  0  0
  5  6  1  0  0  0  0
  6 15  1  1  0  0  0
  6  7  1  0  0  0  0
  7 16  1  1  0  0  0
  8  7  1  0  0  0  0
  8 18  1  0  0  0  0
  9  8  1  0  0  0  0
  9 19  1  1  0  0  0
  9  7  1  0  0  0  0
 10  1  1  0  0  0  0
 11  2  1  0  0  0  0
 14  5  1  0  0  0  0
 17  8  1  0  0  0  0
M TOR 0 0 1 2 3
M TOR 1 0 1 2 5
M TOR 2 0 1 2 8
M TOR 3 1 2 3 4
M TOR 4 1 2 5 4
M TOR 5 1 2 5 6
M TOR 6 1 2 5 14
M TOR 7 1 2 8 6
M TOR 8 1 2 8 7
M TOR 9 1 2 8 18
M TOR 10 2 1 0 9
M TOR 11 2 3 4 5
M TOR 12 2 3 4 12
M TOR 13 2 3 4 13
M TOR 14 2 5 4 12
M TOR 15 2 5 4 13
M TOR 16 2 5 6 7
M TOR 17 2 5 6 8
M TOR 18 2 5 6 15
M TOR 19 2 8 6 7
M TOR 20 2 8 6 15
M TOR 21 2 8 7 16
M TOR 22 2 8 7 17
M TOR 23 3 2 1 10
M TOR 24 3 2 1 11
M TOR 25 3 2 5 6
M TOR 26 3 2 5 14
M TOR 27 3 2 8 6
M TOR 28 3 2 8 7
M TOR 29 3 2 8 18
M TOR 30 3 4 5 6
M TOR 31 3 4 5 14
M TOR 32 4 3 2 8
M TOR 33 4 5 2 8
M TOR 34 4 5 6 7
M TOR 35 4 5 6 8
M TOR 36 4 5 6 15
M TOR 37 5 2 1 10
M TOR 38 5 2 1 11
M TOR 39 5 2 8 7
M TOR 40 5 2 8 18
M TOR 41 5 6 7 8
M TOR 42 5 6 7 16
M TOR 43 5 6 7 17
M TOR 44 5 6 8 18
M TOR 45 6 5 4 12
M TOR 46 6 5 4 13
M TOR 47 6 7 8 18
M TOR 48 6 8 7 16
M TOR 49 6 8 7 17
M TOR 50 7 6 5 14
M TOR 51 7 8 6 15
M TOR 52 8 2 1 10
M TOR 53 8 2 1 11
M TOR 54 8 2 5 14
M TOR 55 8 6 5 14
M  END
$$$$
