gdb 956	5.0545608	0.7514375	0.7415674	3.0628	77.49	-0.24264	-0.02134	0.2213	1550.3435	0.155158	-422.503243	-422.494469	-422.493525	-422.538057	31.767
 OpenBabel02181911403D

 19 20  0  0  1  0  0  0  0  0999 V2000
    1.1512   -0.5210    0.2179 O   0  0  0  0  0  0  0  0  0  0  0  0
    0.0522   -0.0922   -0.0208 C   0  0  0  0  0  0  0  0  0  0  0  0
   -0.2798    0.8824   -1.1258 C   0  0  0  0  0  0  0  0  0  0  0  0
   -1.0006    2.1330   -0.5897 C   0  0  0  0  0  0  0  0  0  0  0  0
   -1.5399    2.9943   -1.6944 C   0  0  1  0  0  0  0  0  0  0  0  0
   -2.4666    4.2385   -1.6206 C   0  0  0  0  0  0  0  0  0  0  0  0
   -2.3536    3.7743   -3.0893 C   0  0  1  0  0  0  0  0  0  0  0  0
   -0.8258    3.6213   -2.9265 C   0  0  0  0  0  0  0  0  0  0  0  0
   -2.5195    2.3736   -2.6336 O   0  0  0  0  0  0  0  0  0  0  0  0
   -0.8283   -0.4030    0.5912 H   0  0  0  0  0  0  0  0  0  0  0  0
    0.6410    1.1410   -1.6554 H   0  0  0  0  0  0  0  0  0  0  0  0
   -0.9535    0.3782   -1.8321 H   0  0  0  0  0  0  0  0  0  0  0  0
   -1.8387    1.8357    0.0535 H   0  0  0  0  0  0  0  0  0  0  0  0
   -0.3202    2.7319    0.0272 H   0  0  0  0  0  0  0  0  0  0  0  0
   -3.4362    4.0635   -1.1523 H   0  0  0  0  0  0  0  0  0  0  0  0
   -2.0206    5.1972   -1.3438 H   0  0  0  0  0  0  0  0  0  0  0  0
   -2.9287    4.0858   -3.9603 H   0  0  0  0  0  0  0  0  0  0  0  0
   -0.3575    2.9098   -3.6076 H   0  0  0  0  0  0  0  0  0  0  0  0
   -0.2284    4.5232   -2.7699 H   0  0  0  0  0  0  0  0  0  0  0  0
  2  1  2  0  0  0  0
  2 10  1  0  0  0  0
  3  4  1  0  0  0  0
  3  2  1  0  0  0  0
  4 14  1  0  0  0  0
  4 13  1  0  0  0  0
  5  6  1  0  0  0  0
  5  4  1  1  0  0  0
  6 16  1  0  0  0  0
  6 15  1  0  0  0  0
  7 17  1  6  0  0  0
  7  8  1  0  0  0  0
  7  9  1  0  0  0  0
  7  6  1  0  0  0  0
  8 19  1  0  0  0  0
  8  5  1  0  0  0  0
  9  5  1  0  0  0  0
 11  3  1  0  0  0  0
 12  3  1  0  0  0  0
 18  8  1  0  0  0  0
M TOR 0 0 1 2 3
M TOR 1 0 1 2 10
M TOR 2 0 1 2 11
M TOR 3 1 2 3 4
M TOR 4 1 2 3 12
M TOR 5 1 2 3 13
M TOR 6 2 3 4 5
M TOR 7 2 3 4 7
M TOR 8 2 3 4 8
M TOR 9 3 2 1 9
M TOR 10 3 4 5 6
M TOR 11 3 4 5 14
M TOR 12 3 4 5 15
M TOR 13 3 4 7 6
M TOR 14 3 4 7 17
M TOR 15 3 4 7 18
M TOR 16 3 4 8 6
M TOR 17 4 3 2 10
M TOR 18 4 3 2 11
M TOR 19 4 5 6 7
M TOR 20 4 5 6 8
M TOR 21 4 5 6 16
M TOR 22 4 7 6 8
M TOR 23 4 7 6 16
M TOR 24 4 8 6 16
M TOR 25 5 4 3 12
M TOR 26 5 4 3 13
M TOR 27 5 4 7 17
M TOR 28 5 4 7 18
M TOR 29 5 6 7 17
M TOR 30 5 6 7 18
M TOR 31 7 4 3 12
M TOR 32 7 4 3 13
M TOR 33 7 4 5 14
M TOR 34 7 4 5 15
M TOR 35 7 6 5 14
M TOR 36 7 6 5 15
M TOR 37 8 4 3 12
M TOR 38 8 4 3 13
M TOR 39 8 4 5 14
M TOR 40 8 4 5 15
M TOR 41 8 4 7 17
M TOR 42 8 4 7 18
M TOR 43 8 6 5 14
M TOR 44 8 6 5 15
M TOR 45 8 6 7 17
M TOR 46 8 6 7 18
M  END
$$$$
