
     RDKit          3D

 19 21  0  0  0  0  0  0  0  0999 V2000
    0.4068   -0.0980    0.3743 O   0  0  0  0  0  0  0  0  0  0  0  0
   -0.7680    0.4835    0.8941 C   0  0  0  0  0  0  0  0  0  0  0  0
   -0.7968    0.9845    2.3621 C   0  0  0  0  0  0  0  0  0  0  0  0
    0.2157    2.1164    1.9965 C   0  0  0  0  0  0  0  0  0  0  0  0
   -0.1163    3.3716    2.8032 C   0  0  0  0  0  0  0  0  0  0  0  0
   -1.6698    3.3127    2.7666 C   0  0  0  0  0  0  0  0  0  0  0  0
   -1.8669    2.0442    1.9349 C   0  0  0  0  0  0  0  0  0  0  0  0
   -0.8075    2.0169    0.8020 C   0  0  0  0  0  0  0  0  0  0  0  0
   -0.8777    2.8117   -0.3264 O   0  0  0  0  0  0  0  0  0  0  0  0
    0.4129   -1.0318    0.6045 H   0  0  0  0  0  0  0  0  0  0  0  0
   -1.6670   -0.0456    0.5497 H   0  0  0  0  0  0  0  0  0  0  0  0
   -0.8074    0.3878    3.2727 H   0  0  0  0  0  0  0  0  0  0  0  0
    1.2568    1.8510    1.8229 H   0  0  0  0  0  0  0  0  0  0  0  0
    0.2862    3.3328    3.8203 H   0  0  0  0  0  0  0  0  0  0  0  0
    0.2792    4.2739    2.3265 H   0  0  0  0  0  0  0  0  0  0  0  0
   -2.1147    3.2228    3.7625 H   0  0  0  0  0  0  0  0  0  0  0  0
   -2.1150    4.1874    2.2833 H   0  0  0  0  0  0  0  0  0  0  0  0
   -2.8830    1.7125    1.7120 H   0  0  0  0  0  0  0  0  0  0  0  0
   -0.1271    2.5921   -0.8900 H   0  0  0  0  0  0  0  0  0  0  0  0
  1  2  1  0
  2  3  1  0
  3  4  1  0
  4  5  1  0
  5  6  1  0
  6  7  1  0
  7  8  1  0
  8  9  1  0
  8  2  1  0
  7  3  1  0
  8  4  1  0
  1 10  1  0
  2 11  1  0
  3 12  1  0
  4 13  1  0
  5 14  1  0
  5 15  1  0
  6 16  1  0
  6 17  1  0
  7 18  1  0
  9 19  1  0
M  END
$$$$
