gdb 1037	2.7650382	0.9088874	0.7608974	2.6774	81.07	-0.23306	-0.02251	0.21055	1559.7378	0.153018	-422.550744	-422.539741	-422.538797	-422.588832	37.524
 OpenBabel02181911403D

 19 18  0  0  1  0  0  0  0  0999 V2000
    1.7160    0.3945    0.4902 C   0  0  0  0  0  0  0  0  0  0  0  0
    0.2971    0.2084    0.2171 C   0  0  0  0  0  0  0  0  0  0  0  0
   -0.8763    0.0811   -0.0304 C   0  0  0  0  0  0  0  0  0  0  0  0
   -2.3067   -0.0817   -0.2721 C   0  0  0  0  0  0  0  0  0  0  0  0
   -3.0492   -0.5959    0.9776 C   0  0  0  0  0  0  0  0  0  0  0  0
   -3.9485    0.0341    1.4754 O   0  0  0  0  0  0  0  0  0  0  0  0
   -2.5917   -1.9452    1.5658 C   0  0  1  0  0  0  0  0  0  0  0  0
   -3.7951   -2.8478    1.8255 C   0  0  0  0  0  0  0  0  0  0  0  0
   -1.6923   -2.6444    0.7271 O   0  0  0  0  0  0  0  0  0  0  0  0
    1.9475    0.2036    1.5437 H   0  0  0  0  0  0  0  0  0  0  0  0
    2.3316   -0.2802   -0.1143 H   0  0  0  0  0  0  0  0  0  0  0  0
    2.0263    1.4203    0.2641 H   0  0  0  0  0  0  0  0  0  0  0  0
   -2.7725    0.8654   -0.5579 H   0  0  0  0  0  0  0  0  0  0  0  0
   -2.4667   -0.8067   -1.0805 H   0  0  0  0  0  0  0  0  0  0  0  0
   -2.1218   -1.6984    2.5330 H   0  0  0  0  0  0  0  0  0  0  0  0
   -3.4761   -3.7506    2.3512 H   0  0  0  0  0  0  0  0  0  0  0  0
   -4.5357   -2.3158    2.4245 H   0  0  0  0  0  0  0  0  0  0  0  0
   -4.2530   -3.1455    0.8772 H   0  0  0  0  0  0  0  0  0  0  0  0
   -0.8894   -2.1153    0.6390 H   0  0  0  0  0  0  0  0  0  0  0  0
  1 10  1  0  0  0  0
  2  1  1  0  0  0  0
  3  2  3  0  0  0  0
  4  3  1  0  0  0  0
  4  5  1  0  0  0  0
  5  6  2  0  0  0  0
  5  7  1  0  0  0  0
  7  8  1  0  0  0  0
  7 15  1  1  0  0  0
  8 16  1  0  0  0  0
  8 17  1  0  0  0  0
  9  7  1  0  0  0  0
 11  1  1  0  0  0  0
 12  1  1  0  0  0  0
 13  4  1  0  0  0  0
 14  4  1  0  0  0  0
 18  8  1  0  0  0  0
 19  9  1  0  0  0  0
M TOR 0 0 1 2 3
M TOR 1 1 2 3 4
M TOR 2 1 2 3 12
M TOR 3 1 2 3 13
M TOR 4 2 1 0 9
M TOR 5 2 1 0 10
M TOR 6 2 1 0 11
M TOR 7 2 3 4 5
M TOR 8 2 3 4 6
M TOR 9 3 4 6 7
M TOR 10 3 4 6 8
M TOR 11 3 4 6 14
M TOR 12 4 6 7 15
M TOR 13 4 6 7 16
M TOR 14 4 6 7 17
M TOR 15 4 6 8 18
M TOR 16 5 4 3 12
M TOR 17 5 4 3 13
M TOR 18 5 4 6 7
M TOR 19 5 4 6 8
M TOR 20 5 4 6 14
M TOR 21 6 4 3 12
M TOR 22 6 4 3 13
M TOR 23 7 6 8 18
M TOR 24 8 6 7 15
M TOR 25 8 6 7 16
M TOR 26 8 6 7 17
M  END
$$$$
