
     RDKit          3D

 19 18  0  0  0  0  0  0  0  0999 V2000
    0.8847   -0.7693   -0.3172 C   0  0  0  0  0  0  0  0  0  0  0  0
    0.5768    0.6531    0.1773 C   0  0  0  0  0  0  0  0  0  0  0  0
    1.7110    1.6296   -0.0915 C   0  0  0  0  0  0  0  0  0  0  0  0
    1.5907    2.6004   -0.8081 O   0  0  0  0  0  0  0  0  0  0  0  0
    2.9697    1.3298    0.5694 C   0  0  0  0  0  0  0  0  0  0  0  0
    4.0157    1.0891    1.1217 C   0  0  0  0  0  0  0  0  0  0  0  0
    5.2654    0.7781    1.7991 C   0  0  0  0  0  0  0  0  0  0  0  0
    6.2526    1.7309    1.4754 O   0  0  0  0  0  0  0  0  0  0  0  0
    7.4803    1.4601    2.1150 C   0  0  0  0  0  0  0  0  0  0  0  0
    1.7813   -1.1697    0.1644 H   0  0  0  0  0  0  0  0  0  0  0  0
    0.0502   -1.4389   -0.0918 H   0  0  0  0  0  0  0  0  0  0  0  0
    1.0461   -0.7819   -1.3993 H   0  0  0  0  0  0  0  0  0  0  0  0
   -0.3133    1.0578   -0.3118 H   0  0  0  0  0  0  0  0  0  0  0  0
    0.3943    0.6321    1.2594 H   0  0  0  0  0  0  0  0  0  0  0  0
    5.0887    0.7496    2.8894 H   0  0  0  0  0  0  0  0  0  0  0  0
    5.5905   -0.2380    1.5119 H   0  0  0  0  0  0  0  0  0  0  0  0
    7.3823    1.4773    3.2119 H   0  0  0  0  0  0  0  0  0  0  0  0
    7.8868    0.4796    1.8206 H   0  0  0  0  0  0  0  0  0  0  0  0
    8.1795    2.2405    1.8089 H   0  0  0  0  0  0  0  0  0  0  0  0
  1  2  1  0
  2  3  1  0
  3  4  2  0
  3  5  1  0
  5  6  3  0
  6  7  1  0
  7  8  1  0
  8  9  1  0
  1 10  1  0
  1 11  1  0
  1 12  1  0
  2 13  1  0
  2 14  1  0
  7 15  1  0
  7 16  1  0
  9 17  1  0
  9 18  1  0
  9 19  1  0
M  END
$$$$
