gdb 1207	2.6154454	1.2799358	1.0635269	2.0528	76.58	-0.24638	0.02921	0.27559	1194.5881	0.153873	-422.502458	-422.492554	-422.49161	-422.537321	35.969
 OpenBabel02181911403D

 19 19  0  0  1  0  0  0  0  0999 V2000
   -0.9392    1.1878   -3.0331 C   0  0  0  0  0  0  0  0  0  0  0  0
   -1.0887    1.3644   -1.5159 C   0  0  2  0  0  0  0  0  0  0  0  0
   -1.8772    0.2535   -1.0789 O   0  0  0  0  0  0  0  0  0  0  0  0
   -1.7736    2.6281   -1.2007 C   0  0  0  0  0  0  0  0  0  0  0  0
   -2.3250    3.6538   -0.9008 C   0  0  0  0  0  0  0  0  0  0  0  0
    0.2959    1.3643   -0.8334 C   0  0  0  0  0  0  0  0  0  0  0  0
    1.0231    0.0045   -0.7301 C   0  0  0  0  0  0  0  0  0  0  0  0
    1.0407    0.0765    0.7114 O   0  0  0  0  0  0  0  0  0  0  0  0
    0.3371    1.3315    0.7090 C   0  0  0  0  0  0  0  0  0  0  0  0
   -0.4403    0.2373   -3.2421 H   0  0  0  0  0  0  0  0  0  0  0  0
   -1.9243    1.1739   -3.5034 H   0  0  0  0  0  0  0  0  0  0  0  0
   -0.3508    2.0024   -3.4615 H   0  0  0  0  0  0  0  0  0  0  0  0
   -2.1885    0.4369   -0.1861 H   0  0  0  0  0  0  0  0  0  0  0  0
   -2.8197    4.5599   -0.6502 H   0  0  0  0  0  0  0  0  0  0  0  0
    0.9010    2.1647   -1.2644 H   0  0  0  0  0  0  0  0  0  0  0  0
    0.4439   -0.8538   -1.0872 H   0  0  0  0  0  0  0  0  0  0  0  0
    2.0351   -0.0307   -1.1503 H   0  0  0  0  0  0  0  0  0  0  0  0
   -0.6378    1.2617    1.2124 H   0  0  0  0  0  0  0  0  0  0  0  0
    0.9127    2.1317    1.1889 H   0  0  0  0  0  0  0  0  0  0  0  0
  1  2  1  0  0  0  0
  2  4  1  1  0  0  0
  2  3  1  0  0  0  0
  2  6  1  0  0  0  0
  3 13  1  0  0  0  0
  4  5  3  0  0  0  0
  5 14  1  0  0  0  0
  6  7  1  0  0  0  0
  6  9  1  0  0  0  0
  7  8  1  0  0  0  0
  9  8  1  0  0  0  0
  9 19  1  0  0  0  0
  9 18  1  0  0  0  0
 10  1  1  0  0  0  0
 11  1  1  0  0  0  0
 12  1  1  0  0  0  0
 15  6  1  0  0  0  0
 16  7  1  0  0  0  0
 17  7  1  0  0  0  0
M TOR 0 0 1 2 12
M TOR 1 0 1 3 4
M TOR 2 0 1 5 6
M TOR 3 0 1 5 8
M TOR 4 0 1 5 14
M TOR 5 1 3 4 13
M TOR 6 1 5 6 7
M TOR 7 1 5 6 15
M TOR 8 1 5 6 16
M TOR 9 1 5 8 7
M TOR 10 1 5 8 17
M TOR 11 1 5 8 18
M TOR 12 2 1 0 9
M TOR 13 2 1 0 10
M TOR 14 2 1 0 11
M TOR 15 2 1 3 4
M TOR 16 2 1 5 6
M TOR 17 2 1 5 8
M TOR 18 2 1 5 14
M TOR 19 3 1 0 9
M TOR 20 3 1 0 10
M TOR 21 3 1 0 11
M TOR 22 3 1 2 12
M TOR 23 3 1 5 6
M TOR 24 3 1 5 8
M TOR 25 3 1 5 14
M TOR 26 4 3 1 5
M TOR 27 5 1 0 9
M TOR 28 5 1 0 10
M TOR 29 5 1 0 11
M TOR 30 5 1 2 12
M TOR 31 5 6 7 8
M TOR 32 6 5 8 17
M TOR 33 6 5 8 18
M TOR 34 6 7 8 17
M TOR 35 6 7 8 18
M TOR 36 7 6 5 14
M TOR 37 7 8 5 14
M TOR 38 8 5 6 15
M TOR 39 8 5 6 16
M TOR 40 8 7 6 15
M TOR 41 8 7 6 16
M  END
$$$$
