
     RDKit          3D

 19 20  0  0  0  0  0  0  0  0999 V2000
    0.0284   -0.0911   -0.0387 C   0  0  0  0  0  0  0  0  0  0  0  0
    1.5596   -0.0379    0.0112 C   0  0  0  0  0  0  0  0  0  0  0  0
    1.9879    1.3149    0.2146 O   0  0  0  0  0  0  0  0  0  0  0  0
    2.1415   -0.9834    1.0553 C   0  0  0  0  0  0  0  0  0  0  0  0
    2.9337   -1.9152    0.5227 C   0  0  0  0  0  0  0  0  0  0  0  0
    3.0572   -1.7516   -0.9539 C   0  0  0  0  0  0  0  0  0  0  0  0
    3.6884   -0.4343   -1.4080 C   0  0  0  0  0  0  0  0  0  0  0  0
    2.2039   -0.5454   -1.2975 C   0  0  0  0  0  0  0  0  0  0  0  0
    1.4916   -0.4367   -2.4907 O   0  0  0  0  0  0  0  0  0  0  0  0
   -0.3931    0.2185    0.9243 H   0  0  0  0  0  0  0  0  0  0  0  0
   -0.3454    0.5814   -0.8147 H   0  0  0  0  0  0  0  0  0  0  0  0
   -0.3321   -1.1070   -0.2362 H   0  0  0  0  0  0  0  0  0  0  0  0
    1.6082    1.6213    1.0453 H   0  0  0  0  0  0  0  0  0  0  0  0
    1.9298   -0.8580    2.1125 H   0  0  0  0  0  0  0  0  0  0  0  0
    3.4663   -2.6794    1.0789 H   0  0  0  0  0  0  0  0  0  0  0  0
    3.1220   -2.6083   -1.6152 H   0  0  0  0  0  0  0  0  0  0  0  0
    4.2263    0.1619   -0.6810 H   0  0  0  0  0  0  0  0  0  0  0  0
    4.0695   -0.4077   -2.4230 H   0  0  0  0  0  0  0  0  0  0  0  0
    0.7504   -1.0511   -2.4576 H   0  0  0  0  0  0  0  0  0  0  0  0
  1  2  1  0
  2  3  1  0
  2  4  1  0
  4  5  2  0
  5  6  1  0
  6  7  1  0
  7  8  1  0
  8  9  1  0
  8  2  1  0
  8  6  1  0
  1 10  1  0
  1 11  1  0
  1 12  1  0
  3 13  1  0
  4 14  1  0
  5 15  1  0
  6 16  1  0
  7 17  1  0
  7 18  1  0
  9 19  1  0
M  END
$$$$
