gdb 3325	2.2054014	1.7224926	1.4407186	2.8392	75.15	-0.22353	-0.01756	0.20597000000000001	1027.3509	0.156194	-422.55324	-422.544538	-422.543594	-422.586144	32.632
 OpenBabel02181911413D

 19 20  0  0  1  0  0  0  0  0999 V2000
   -3.1972    0.0617   -1.0617 C   0  0  0  0  0  0  0  0  0  0  0  0
   -1.6785    0.0424   -0.9703 C   0  0  1  0  0  0  0  0  0  0  0  0
   -0.9629    1.0947   -0.0668 C   0  0  1  0  0  0  0  0  0  0  0  0
   -1.5519    0.8804    1.2257 O   0  0  0  0  0  0  0  0  0  0  0  0
   -1.5401   -0.5670    1.3452 C   0  0  0  0  0  0  0  0  0  0  0  0
   -0.9408   -0.9845   -0.0101 C   0  0  1  0  0  0  0  0  0  0  0  0
   -0.7407   -2.4451   -0.3161 C   0  0  0  0  0  0  0  0  0  0  0  0
    0.1921    0.0709   -0.0742 C   0  0  0  0  0  0  0  0  0  0  0  0
    1.3737    0.0540   -0.2428 O   0  0  0  0  0  0  0  0  0  0  0  0
   -3.6532    0.2992   -0.0983 H   0  0  0  0  0  0  0  0  0  0  0  0
   -3.5240    0.8207   -1.7793 H   0  0  0  0  0  0  0  0  0  0  0  0
   -3.5842   -0.9043   -1.4029 H   0  0  0  0  0  0  0  0  0  0  0  0
   -1.2193    0.0073   -1.9639 H   0  0  0  0  0  0  0  0  0  0  0  0
   -0.8798    2.1562   -0.2847 H   0  0  0  0  0  0  0  0  0  0  0  0
   -0.9142   -0.8710    2.1930 H   0  0  0  0  0  0  0  0  0  0  0  0
   -2.5591   -0.9359    1.5085 H   0  0  0  0  0  0  0  0  0  0  0  0
   -0.1264   -2.9249    0.4532 H   0  0  0  0  0  0  0  0  0  0  0  0
   -1.6965   -2.9789   -0.3605 H   0  0  0  0  0  0  0  0  0  0  0  0
   -0.2317   -2.5774   -1.2755 H   0  0  0  0  0  0  0  0  0  0  0  0
  1  2  1  0  0  0  0
  1 10  1  0  0  0  0
  2 13  1  6  0  0  0
  2  3  1  0  0  0  0
  2  6  1  0  0  0  0
  3 14  1  6  0  0  0
  3  4  1  0  0  0  0
  4  5  1  0  0  0  0
  5 16  1  0  0  0  0
  5 15  1  0  0  0  0
  6  7  1  6  0  0  0
  6  5  1  0  0  0  0
  7 17  1  0  0  0  0
  8  3  1  0  0  0  0
  8  6  1  0  0  0  0
  9  8  2  0  0  0  0
 11  1  1  0  0  0  0
 12  1  1  0  0  0  0
 18  7  1  0  0  0  0
 19  7  1  0  0  0  0
M TOR 0 0 1 2 3
M TOR 1 0 1 2 7
M TOR 2 0 1 2 13
M TOR 3 0 1 5 4
M TOR 4 0 1 5 6
M TOR 5 0 1 5 7
M TOR 6 1 2 3 4
M TOR 7 1 2 7 5
M TOR 8 1 2 7 8
M TOR 9 1 5 4 3
M TOR 10 1 5 4 14
M TOR 11 1 5 4 15
M TOR 12 1 5 6 16
M TOR 13 1 5 6 17
M TOR 14 1 5 6 18
M TOR 15 1 5 7 8
M TOR 16 2 1 0 9
M TOR 17 2 1 0 10
M TOR 18 2 1 0 11
M TOR 19 2 1 5 4
M TOR 20 2 1 5 6
M TOR 21 2 3 4 5
M TOR 22 2 3 4 14
M TOR 23 2 3 4 15
M TOR 24 2 7 5 4
M TOR 25 2 7 5 6
M TOR 26 3 2 1 5
M TOR 27 3 2 1 12
M TOR 28 3 2 7 5
M TOR 29 3 2 7 8
M TOR 30 3 4 5 6
M TOR 31 3 4 5 7
M TOR 32 4 3 2 7
M TOR 33 4 3 2 13
M TOR 34 4 5 1 12
M TOR 35 4 5 6 16
M TOR 36 4 5 6 17
M TOR 37 4 5 6 18
M TOR 38 4 5 7 8
M TOR 39 5 1 0 9
M TOR 40 5 1 0 10
M TOR 41 5 1 0 11
M TOR 42 5 1 2 13
M TOR 43 5 7 2 13
M TOR 44 6 5 1 12
M TOR 45 6 5 4 14
M TOR 46 6 5 4 15
M TOR 47 6 5 7 8
M TOR 48 7 2 1 12
M TOR 49 7 5 1 12
M TOR 50 7 5 4 14
M TOR 51 7 5 4 15
M TOR 52 7 5 6 16
M TOR 53 7 5 6 17
M TOR 54 7 5 6 18
M TOR 55 8 7 2 13
M  END
$$$$
