gdb 854	2.4761959	1.2270733	0.9258093	2.5009	76.63	-0.25073	-0.03085	0.21988000000000002	1297.018	0.155862	-422.526859	-422.517847	-422.516902	-422.562079	31.788
 OpenBabel02181911403D

 19 20  0  0  1  0  0  0  0  0999 V2000
    1.0336   -0.5593    0.3697 O   0  0  0  0  0  0  0  0  0  0  0  0
    0.1416   -0.1772   -0.3453 C   0  0  0  0  0  0  0  0  0  0  0  0
    0.0331    1.2100   -0.9162 C   0  0  1  0  0  0  0  0  0  0  0  0
   -0.9984    2.1547   -0.2346 C   0  0  0  0  0  0  0  0  0  0  0  0
    0.0191    3.1294    0.0329 O   0  0  0  0  0  0  0  0  0  0  0  0
    1.0737    2.2605   -0.4731 C   0  0  2  0  0  0  0  0  0  0  0  0
    1.9244    2.9073   -1.5186 C   0  0  0  0  0  0  0  0  0  0  0  0
    3.1605    3.6695   -1.1096 C   0  0  0  0  0  0  0  0  0  0  0  0
    3.2976    2.3364   -1.7941 C   0  0  0  0  0  0  0  0  0  0  0  0
   -0.6987   -0.8562   -0.6194 H   0  0  0  0  0  0  0  0  0  0  0  0
   -0.1107    1.1432   -1.9993 H   0  0  0  0  0  0  0  0  0  0  0  0
   -1.7932    2.5438   -0.8808 H   0  0  0  0  0  0  0  0  0  0  0  0
   -1.4475    1.7575    0.6856 H   0  0  0  0  0  0  0  0  0  0  0  0
    1.6977    1.8894    0.3501 H   0  0  0  0  0  0  0  0  0  0  0  0
    1.3724    3.2950   -2.3707 H   0  0  0  0  0  0  0  0  0  0  0  0
    3.4106    4.5650   -1.6668 H   0  0  0  0  0  0  0  0  0  0  0  0
    3.3904    3.7247   -0.0509 H   0  0  0  0  0  0  0  0  0  0  0  0
    3.6408    2.3133   -2.8220 H   0  0  0  0  0  0  0  0  0  0  0  0
    3.6177    1.4879   -1.1983 H   0  0  0  0  0  0  0  0  0  0  0  0
  2  1  2  0  0  0  0
  3 11  1  6  0  0  0
  3  6  1  0  0  0  0
  3  2  1  0  0  0  0
  3  4  1  0  0  0  0
  4  5  1  0  0  0  0
  4 13  1  0  0  0  0
  6  5  1  0  0  0  0
  6 14  1  1  0  0  0
  7  8  1  0  0  0  0
  7  6  1  0  0  0  0
  8 17  1  0  0  0  0
  9  7  1  0  0  0  0
  9 19  1  0  0  0  0
  9  8  1  0  0  0  0
 10  2  1  0  0  0  0
 12  4  1  0  0  0  0
 15  7  1  0  0  0  0
 16  8  1  0  0  0  0
 18  9  1  0  0  0  0
M TOR 0 0 1 2 3
M TOR 1 0 1 2 5
M TOR 2 0 1 2 10
M TOR 3 1 2 3 4
M TOR 4 1 2 3 11
M TOR 5 1 2 3 12
M TOR 6 1 2 5 4
M TOR 7 1 2 5 6
M TOR 8 1 2 5 13
M TOR 9 2 3 4 5
M TOR 10 2 5 6 7
M TOR 11 2 5 6 8
M TOR 12 2 5 6 14
M TOR 13 3 2 1 9
M TOR 14 3 2 5 6
M TOR 15 3 2 5 13
M TOR 16 3 4 5 6
M TOR 17 3 4 5 13
M TOR 18 4 3 2 10
M TOR 19 4 5 2 10
M TOR 20 4 5 6 7
M TOR 21 4 5 6 8
M TOR 22 4 5 6 14
M TOR 23 5 2 1 9
M TOR 24 5 2 3 11
M TOR 25 5 2 3 12
M TOR 26 5 4 3 11
M TOR 27 5 4 3 12
M TOR 28 5 6 7 8
M TOR 29 5 6 7 15
M TOR 30 5 6 7 16
M TOR 31 5 6 8 17
M TOR 32 5 6 8 18
M TOR 33 6 5 2 10
M TOR 34 6 7 8 17
M TOR 35 6 7 8 18
M TOR 36 6 8 7 15
M TOR 37 6 8 7 16
M TOR 38 7 6 5 13
M TOR 39 7 8 6 14
M TOR 40 8 6 5 13
M  END
$$$$
