gdb 69	3.1596828	1.0686932	0.8422922	1.4719	78.88	-0.21798	0.02407	0.24205000000000002	1385.4892	0.156069	-422.567753	-422.558292	-422.557348	-422.602748	33.24
 OpenBabel02181911403D

 19 19  0  0  0  0  0  0  0  0999 V2000
    1.4358   -0.1748    0.2169 C   0  0  0  0  0  0  0  0  0  0  0  0
    0.0292   -0.1571    0.2573 O   0  0  0  0  0  0  0  0  0  0  0  0
   -0.4770    0.8686    1.0969 C   0  0  0  0  0  0  0  0  0  0  0  0
   -1.9654    0.7839    1.1404 C   0  0  0  0  0  0  0  0  0  0  0  0
   -2.8523    1.7348    0.7466 C   0  0  0  0  0  0  0  0  0  0  0  0
   -4.1280    1.3203    0.9437 O   0  0  0  0  0  0  0  0  0  0  0  0
   -4.0496    0.0654    1.4718 C   0  0  0  0  0  0  0  0  0  0  0  0
   -2.7575   -0.3248    1.6222 C   0  0  0  0  0  0  0  0  0  0  0  0
   -2.2458   -1.6244    2.1596 C   0  0  0  0  0  0  0  0  0  0  0  0
    1.8737   -0.3431    1.2142 H   0  0  0  0  0  0  0  0  0  0  0  0
    1.7340   -0.9933   -0.4426 H   0  0  0  0  0  0  0  0  0  0  0  0
    1.8459    0.7680   -0.1796 H   0  0  0  0  0  0  0  0  0  0  0  0
   -0.0510    0.7561    2.1099 H   0  0  0  0  0  0  0  0  0  0  0  0
   -0.1623    1.8589    0.7279 H   0  0  0  0  0  0  0  0  0  0  0  0
   -2.7348    2.7204    0.3253 H   0  0  0  0  0  0  0  0  0  0  0  0
   -4.9924   -0.4137    1.6806 H   0  0  0  0  0  0  0  0  0  0  0  0
   -1.6775   -1.4793    3.0866 H   0  0  0  0  0  0  0  0  0  0  0  0
   -3.0658   -2.3135    2.3789 H   0  0  0  0  0  0  0  0  0  0  0  0
   -1.5706   -2.1009    1.4429 H   0  0  0  0  0  0  0  0  0  0  0  0
  1  2  1  0  0  0  0
  1 10  1  0  0  0  0
  2  3  1  0  0  0  0
  3  4  1  0  0  0  0
  3 13  1  0  0  0  0
  4  8  1  0  0  0  0
  5  6  1  0  0  0  0
  5  4  2  0  0  0  0
  6  7  1  0  0  0  0
  7  8  2  0  0  0  0
  7 16  1  0  0  0  0
  8  9  1  0  0  0  0
  9 18  1  0  0  0  0
  9 17  1  0  0  0  0
 11  1  1  0  0  0  0
 12  1  1  0  0  0  0
 14  3  1  0  0  0  0
 15  5  1  0  0  0  0
 19  9  1  0  0  0  0
M TOR 0 0 1 2 3
M TOR 1 0 1 2 12
M TOR 2 0 1 2 13
M TOR 3 1 2 3 4
M TOR 4 1 2 3 7
M TOR 5 2 1 0 9
M TOR 6 2 1 0 10
M TOR 7 2 1 0 11
M TOR 8 2 3 4 5
M TOR 9 2 3 4 14
M TOR 10 2 3 7 6
M TOR 11 2 3 7 8
M TOR 12 3 4 5 6
M TOR 13 3 7 6 5
M TOR 14 3 7 6 15
M TOR 15 3 7 8 16
M TOR 16 3 7 8 17
M TOR 17 3 7 8 18
M TOR 18 4 3 2 12
M TOR 19 4 3 2 13
M TOR 20 4 3 7 6
M TOR 21 4 3 7 8
M TOR 22 4 5 6 7
M TOR 23 4 5 6 15
M TOR 24 5 4 3 7
M TOR 25 5 6 7 8
M TOR 26 6 5 4 14
M TOR 27 6 7 8 16
M TOR 28 6 7 8 17
M TOR 29 6 7 8 18
M TOR 30 7 3 2 12
M TOR 31 7 3 2 13
M TOR 32 7 3 4 14
M TOR 33 8 7 6 15
M  END
$$$$
