gdb 6	4.0319511	0.9224262	0.8974237	1.9674	78.88	-0.19836	0.02641	0.22477	1389.1963	0.155838	-422.585648	-422.576153	-422.575209	-422.620152	34.72
 OpenBabel02181911403D

 19 19  0  0  0  0  0  0  0  0999 V2000
   -1.2953    3.9184   -1.1683 C   0  0  0  0  0  0  0  0  0  0  0  0
   -1.8257    3.0360   -0.0219 C   0  0  0  0  0  0  0  0  0  0  0  0
   -1.3968    3.5919    1.3496 C   0  0  0  0  0  0  0  0  0  0  0  0
   -1.4038    1.6106   -0.1897 C   0  0  0  0  0  0  0  0  0  0  0  0
   -2.0953    0.4497   -0.3681 C   0  0  0  0  0  0  0  0  0  0  0  0
   -1.1131   -0.5923   -0.4636 C   0  0  0  0  0  0  0  0  0  0  0  0
   -1.3176   -1.9254   -0.6445 O   0  0  0  0  0  0  0  0  0  0  0  0
    0.1021    0.0046   -0.3372 C   0  0  0  0  0  0  0  0  0  0  0  0
   -0.0702    1.3544   -0.1691 O   0  0  0  0  0  0  0  0  0  0  0  0
   -1.6412    3.5540   -2.1399 H   0  0  0  0  0  0  0  0  0  0  0  0
   -1.6357    4.9518   -1.0470 H   0  0  0  0  0  0  0  0  0  0  0  0
   -0.2012    3.9192   -1.1784 H   0  0  0  0  0  0  0  0  0  0  0  0
   -2.9215    3.0348   -0.0662 H   0  0  0  0  0  0  0  0  0  0  0  0
   -1.8150    2.9958    2.1660 H   0  0  0  0  0  0  0  0  0  0  0  0
   -0.3071    3.5785    1.4463 H   0  0  0  0  0  0  0  0  0  0  0  0
   -1.7369    4.6256    1.4689 H   0  0  0  0  0  0  0  0  0  0  0  0
   -3.1687    0.3448   -0.4249 H   0  0  0  0  0  0  0  0  0  0  0  0
   -2.2634   -2.0854   -0.7043 H   0  0  0  0  0  0  0  0  0  0  0  0
    1.1137   -0.3599   -0.3436 H   0  0  0  0  0  0  0  0  0  0  0  0
  1 11  1  0  0  0  0
  1  2  1  0  0  0  0
  2  3  1  0  0  0  0
  3 15  1  0  0  0  0
  3 16  1  0  0  0  0
  3 14  1  0  0  0  0
  4  9  1  0  0  0  0
  4  2  1  0  0  0  0
  5  4  2  0  0  0  0
  6  5  1  0  0  0  0
  6  8  2  0  0  0  0
  7  6  1  0  0  0  0
  8  9  1  0  0  0  0
 10  1  1  0  0  0  0
 12  1  1  0  0  0  0
 13  2  1  0  0  0  0
 17  5  1  0  0  0  0
 18  7  1  0  0  0  0
 19  8  1  0  0  0  0
M TOR 0 0 1 2 13
M TOR 1 0 1 2 14
M TOR 2 0 1 2 15
M TOR 3 0 1 3 4
M TOR 4 0 1 3 8
M TOR 5 1 3 4 5
M TOR 6 1 3 4 16
M TOR 7 1 3 8 7
M TOR 8 2 1 0 9
M TOR 9 2 1 0 10
M TOR 10 2 1 0 11
M TOR 11 2 1 3 4
M TOR 12 2 1 3 8
M TOR 13 3 1 0 9
M TOR 14 3 1 0 10
M TOR 15 3 1 0 11
M TOR 16 3 1 2 13
M TOR 17 3 1 2 14
M TOR 18 3 1 2 15
M TOR 19 3 4 5 6
M TOR 20 3 4 5 7
M TOR 21 3 8 7 5
M TOR 22 3 8 7 18
M TOR 23 4 3 1 12
M TOR 24 4 3 8 7
M TOR 25 4 5 6 17
M TOR 26 4 5 7 8
M TOR 27 4 5 7 18
M TOR 28 5 4 3 8
M TOR 29 6 5 4 16
M TOR 30 6 5 7 8
M TOR 31 6 5 7 18
M TOR 32 7 5 4 16
M TOR 33 7 5 6 17
M TOR 34 8 3 1 12
M TOR 35 8 3 4 16
M  END
$$$$
