
     RDKit          3D

 19 19  0  0  0  0  0  0  0  0999 V2000
    2.8882   -0.2241    0.2270 C   0  0  0  0  0  0  0  0  0  0  0  0
    1.4071   -0.0513   -0.1629 C   0  0  0  0  0  0  0  0  0  0  0  0
    0.9717    1.4054   -0.1337 C   0  0  0  0  0  0  0  0  0  0  0  0
    0.8784    2.0685   -1.1420 O   0  0  0  0  0  0  0  0  0  0  0  0
    0.6884    2.0243    1.2378 C   0  0  0  0  0  0  0  0  0  0  0  0
   -0.0016    3.4166    1.1932 C   0  0  0  0  0  0  0  0  0  0  0  0
    1.3351    4.1244    1.5683 C   0  0  0  0  0  0  0  0  0  0  0  0
    1.9333    2.7476    1.8484 C   0  0  0  0  0  0  0  0  0  0  0  0
    2.9169    2.3513    2.3995 O   0  0  0  0  0  0  0  0  0  0  0  0
    3.0912    0.1553    1.2314 H   0  0  0  0  0  0  0  0  0  0  0  0
    3.1606   -1.2825    0.1941 H   0  0  0  0  0  0  0  0  0  0  0  0
    3.5340    0.3139   -0.4732 H   0  0  0  0  0  0  0  0  0  0  0  0
    1.2394   -0.4169   -1.1795 H   0  0  0  0  0  0  0  0  0  0  0  0
    0.7774   -0.6319    0.5214 H   0  0  0  0  0  0  0  0  0  0  0  0
    0.2717    1.2741    1.9149 H   0  0  0  0  0  0  0  0  0  0  0  0
   -0.3957    3.6711    0.2104 H   0  0  0  0  0  0  0  0  0  0  0  0
   -0.7767    3.5278    1.9526 H   0  0  0  0  0  0  0  0  0  0  0  0
    1.8231    4.5983    0.7099 H   0  0  0  0  0  0  0  0  0  0  0  0
    1.3447    4.8236    2.4079 H   0  0  0  0  0  0  0  0  0  0  0  0
  1  2  1  0
  2  3  1  0
  3  4  2  0
  3  5  1  0
  5  6  1  0
  6  7  1  0
  7  8  1  0
  8  9  2  0
  8  5  1  0
  1 10  1  0
  1 11  1  0
  1 12  1  0
  2 13  1  0
  2 14  1  0
  5 15  1  0
  6 16  1  0
  6 17  1  0
  7 18  1  0
  7 19  1  0
M  END
$$$$
