gdb 5009	2.8954268	1.6397774	1.3434396	0.7705	73.77	-0.24001	0.08044	0.32045	1009.853	0.157615	-422.502132	-422.49455	-422.493606	-422.534019	30.094
 OpenBabel02181911413D

 19 21  0  0  1  0  0  0  0  0999 V2000
    1.4984   -0.1037   -0.0809 C   0  0  0  0  0  0  0  0  0  0  0  0
    0.0876   -0.0347    0.0140 O   0  0  0  0  0  0  0  0  0  0  0  0
   -0.3668    0.6363    1.1367 C   0  0  1  0  0  0  0  0  0  0  0  0
   -1.8950    0.6133    1.4554 C   0  0  0  0  0  0  0  0  0  0  0  0
   -1.3741    1.0686    2.8633 C   0  0  1  0  0  0  0  0  0  0  0  0
   -0.1516    0.1436    2.6021 C   0  0  0  0  0  0  0  0  0  0  0  0
   -0.8244    2.4655    2.4915 C   0  0  1  0  0  0  0  0  0  0  0  0
    0.6064    2.5845    2.4390 O   0  0  0  0  0  0  0  0  0  0  0  0
   -0.0998    2.1656    1.2593 C   0  0  1  0  0  0  0  0  0  0  0  0
    1.9351   -0.6490    0.7673 H   0  0  0  0  0  0  0  0  0  0  0  0
    1.7305   -0.6376   -1.0048 H   0  0  0  0  0  0  0  0  0  0  0  0
    1.9542    0.8960   -0.1209 H   0  0  0  0  0  0  0  0  0  0  0  0
   -2.5396    1.3010    0.9003 H   0  0  0  0  0  0  0  0  0  0  0  0
   -2.3109   -0.3968    1.4475 H   0  0  0  0  0  0  0  0  0  0  0  0
   -1.9819    0.9761    3.7608 H   0  0  0  0  0  0  0  0  0  0  0  0
    0.7835    0.3762    3.1069 H   0  0  0  0  0  0  0  0  0  0  0  0
   -0.4174   -0.9098    2.7031 H   0  0  0  0  0  0  0  0  0  0  0  0
   -1.3751    3.3792    2.6877 H   0  0  0  0  0  0  0  0  0  0  0  0
   -0.0306    2.8052    0.3854 H   0  0  0  0  0  0  0  0  0  0  0  0
  1  2  1  0  0  0  0
  1 10  1  0  0  0  0
  3  2  1  6  0  0  0
  3  9  1  0  0  0  0
  3  4  1  0  0  0  0
  3  6  1  0  0  0  0
  4  5  1  0  0  0  0
  5 15  1  1  0  0  0
  6 17  1  0  0  0  0
  6  5  1  0  0  0  0
  6 16  1  0  0  0  0
  7 18  1  1  0  0  0
  7  5  1  0  0  0  0
  8  7  1  0  0  0  0
  9 19  1  6  0  0  0
  9  8  1  0  0  0  0
  9  7  1  0  0  0  0
 11  1  1  0  0  0  0
 12  1  1  0  0  0  0
 13  4  1  0  0  0  0
 14  4  1  0  0  0  0
M TOR 0 0 1 2 3
M TOR 1 0 1 2 5
M TOR 2 0 1 2 8
M TOR 3 1 2 3 4
M TOR 4 1 2 3 12
M TOR 5 1 2 3 13
M TOR 6 1 2 5 4
M TOR 7 1 2 5 15
M TOR 8 1 2 5 16
M TOR 9 1 2 8 6
M TOR 10 1 2 8 7
M TOR 11 1 2 8 18
M TOR 12 2 1 0 9
M TOR 13 2 1 0 10
M TOR 14 2 1 0 11
M TOR 15 2 3 4 5
M TOR 16 2 3 4 6
M TOR 17 2 3 4 14
M TOR 18 2 5 4 6
M TOR 19 2 5 4 14
M TOR 20 2 8 6 4
M TOR 21 2 8 6 7
M TOR 22 2 8 6 17
M TOR 23 3 2 5 15
M TOR 24 3 2 5 16
M TOR 25 3 2 8 6
M TOR 26 3 2 8 7
M TOR 27 3 2 8 18
M TOR 28 3 4 5 15
M TOR 29 3 4 5 16
M TOR 30 3 4 6 7
M TOR 31 3 4 6 8
M TOR 32 3 4 6 17
M TOR 33 4 3 2 8
M TOR 34 4 5 2 8
M TOR 35 4 6 7 8
M TOR 36 4 6 8 18
M TOR 37 5 2 3 12
M TOR 38 5 2 3 13
M TOR 39 5 2 8 6
M TOR 40 5 2 8 7
M TOR 41 5 2 8 18
M TOR 42 5 4 3 12
M TOR 43 5 4 3 13
M TOR 44 5 4 6 7
M TOR 45 5 4 6 8
M TOR 46 5 4 6 17
M TOR 47 6 4 3 12
M TOR 48 6 4 3 13
M TOR 49 6 4 5 15
M TOR 50 6 4 5 16
M TOR 51 6 7 8 18
M TOR 52 7 6 4 14
M TOR 53 7 8 6 17
M TOR 54 8 2 3 12
M TOR 55 8 2 3 13
M TOR 56 8 2 5 15
M TOR 57 8 2 5 16
M TOR 58 8 6 4 14
M  END
$$$$
