
     RDKit          3D

 19 20  0  0  0  0  0  0  0  0999 V2000
    2.7384   -2.9287    0.2313 C   0  0  0  0  0  0  0  0  0  0  0  0
    2.5961   -1.4104    0.4286 C   0  0  0  0  0  0  0  0  0  0  0  0
    1.1112   -0.9867    0.4617 C   0  0  0  0  0  0  0  0  0  0  0  0
    0.3911   -1.3778   -0.6969 O   0  0  0  0  0  0  0  0  0  0  0  0
    3.3178   -0.9521    1.6893 C   0  0  0  0  0  0  0  0  0  0  0  0
    4.3643   -0.1628    1.4348 C   0  0  0  0  0  0  0  0  0  0  0  0
    4.4682    0.0903   -0.0328 C   0  0  0  0  0  0  0  0  0  0  0  0
    3.3036    0.7664   -0.5697 O   0  0  0  0  0  0  0  0  0  0  0  0
    3.3665   -0.6547   -0.6661 C   0  0  0  0  0  0  0  0  0  0  0  0
    2.2781   -3.4790    1.0597 H   0  0  0  0  0  0  0  0  0  0  0  0
    2.2607   -3.2453   -0.7025 H   0  0  0  0  0  0  0  0  0  0  0  0
    3.7916   -3.2204    0.1838 H   0  0  0  0  0  0  0  0  0  0  0  0
    0.6371   -1.3762    1.3760 H   0  0  0  0  0  0  0  0  0  0  0  0
    1.0668    0.1045    0.4959 H   0  0  0  0  0  0  0  0  0  0  0  0
    0.2025   -2.3183   -0.6312 H   0  0  0  0  0  0  0  0  0  0  0  0
    2.9721   -1.2387    2.6775 H   0  0  0  0  0  0  0  0  0  0  0  0
    5.0312    0.2717    2.1693 H   0  0  0  0  0  0  0  0  0  0  0  0
    5.4052    0.3347   -0.5234 H   0  0  0  0  0  0  0  0  0  0  0  0
    3.4085   -1.0557   -1.6754 H   0  0  0  0  0  0  0  0  0  0  0  0
  1  2  1  0
  2  3  1  0
  3  4  1  0
  2  5  1  0
  5  6  2  0
  6  7  1  0
  7  8  1  0
  8  9  1  0
  9  2  1  0
  9  7  1  0
  1 10  1  0
  1 11  1  0
  1 12  1  0
  3 13  1  0
  3 14  1  0
  4 15  1  0
  5 16  1  0
  6 17  1  0
  7 18  1  0
  9 19  1  0
M  END
$$$$
