
     RDKit          3D

 19 21  0  0  0  0  0  0  0  0999 V2000
    2.0842    1.2981   -0.6606 C   0  0  0  0  0  0  0  0  0  0  0  0
    2.3323    1.8596    0.7694 C   0  0  0  0  0  0  0  0  0  0  0  0
    3.3398    0.9322    1.4521 C   0  0  0  0  0  0  0  0  0  0  0  0
    3.1037   -0.4243    1.0688 O   0  0  0  0  0  0  0  0  0  0  0  0
    1.7318   -0.7057    0.8956 C   0  0  0  0  0  0  0  0  0  0  0  0
    1.0292   -0.6879    2.1250 O   0  0  0  0  0  0  0  0  0  0  0  0
    0.5754    0.6463    2.3954 C   0  0  0  0  0  0  0  0  0  0  0  0
    0.8598    1.4322    1.1222 C   0  0  0  0  0  0  0  0  0  0  0  0
    1.0487    0.3707    0.0113 C   0  0  0  0  0  0  0  0  0  0  0  0
    1.6019    2.0286   -1.3144 H   0  0  0  0  0  0  0  0  0  0  0  0
    2.9300    0.8369   -1.1759 H   0  0  0  0  0  0  0  0  0  0  0  0
    2.6075    2.9090    0.8958 H   0  0  0  0  0  0  0  0  0  0  0  0
    4.3597    1.1678    1.1308 H   0  0  0  0  0  0  0  0  0  0  0  0
    3.3000    1.0317    2.5465 H   0  0  0  0  0  0  0  0  0  0  0  0
    1.6872   -1.7254    0.5100 H   0  0  0  0  0  0  0  0  0  0  0  0
   -0.4987    0.6106    2.6154 H   0  0  0  0  0  0  0  0  0  0  0  0
    1.0899    1.0435    3.2803 H   0  0  0  0  0  0  0  0  0  0  0  0
    0.1353    2.2202    0.9121 H   0  0  0  0  0  0  0  0  0  0  0  0
    0.1958   -0.0236   -0.5436 H   0  0  0  0  0  0  0  0  0  0  0  0
  1  2  1  0
  2  3  1  0
  3  4  1  0
  4  5  1  0
  5  6  1  0
  6  7  1  0
  7  8  1  0
  8  9  1  0
  9  1  1  0
  8  2  1  0
  9  5  1  0
  1 10  1  0
  1 11  1  0
  2 12  1  0
  3 13  1  0
  3 14  1  0
  5 15  1  0
  7 16  1  0
  7 17  1  0
  8 18  1  0
  9 19  1  0
M  END
$$$$
