
     RDKit          3D

 19 19  0  0  0  0  0  0  0  0999 V2000
    5.3157    1.4710   -0.2511 C   0  0  0  0  0  0  0  0  0  0  0  0
    4.3803    1.0779   -1.3735 C   0  0  0  0  0  0  0  0  0  0  0  0
    5.0506    0.8782   -2.7169 C   0  0  0  0  0  0  0  0  0  0  0  0
    3.1319    1.8023   -1.4368 O   0  0  0  0  0  0  0  0  0  0  0  0
    3.0899    0.4099   -1.1314 C   0  0  0  0  0  0  0  0  0  0  0  0
    2.5818    0.0037    0.2477 C   0  0  0  0  0  0  0  0  0  0  0  0
    3.1121   -1.2696    0.6138 O   0  0  0  0  0  0  0  0  0  0  0  0
    1.1179    0.0158    0.2853 C   0  0  0  0  0  0  0  0  0  0  0  0
   -0.0835   -0.0243    0.2783 C   0  0  0  0  0  0  0  0  0  0  0  0
    6.0173    0.6587   -0.0354 H   0  0  0  0  0  0  0  0  0  0  0  0
    5.8984    2.3512   -0.5429 H   0  0  0  0  0  0  0  0  0  0  0  0
    4.7785    1.7174    0.6657 H   0  0  0  0  0  0  0  0  0  0  0  0
    5.7979    0.0793   -2.6620 H   0  0  0  0  0  0  0  0  0  0  0  0
    4.3180    0.6194   -3.4852 H   0  0  0  0  0  0  0  0  0  0  0  0
    5.5625    1.7956   -3.0271 H   0  0  0  0  0  0  0  0  0  0  0  0
    2.6878   -0.2165   -1.9322 H   0  0  0  0  0  0  0  0  0  0  0  0
    2.9634    0.7102    0.9900 H   0  0  0  0  0  0  0  0  0  0  0  0
    2.5738   -1.9436    0.1847 H   0  0  0  0  0  0  0  0  0  0  0  0
   -1.1456   -0.0399    0.2885 H   0  0  0  0  0  0  0  0  0  0  0  0
  1  2  1  0
  2  3  1  0
  2  4  1  0
  4  5  1  0
  5  6  1  0
  6  7  1  0
  6  8  1  0
  8  9  3  0
  5  2  1  0
  1 10  1  0
  1 11  1  0
  1 12  1  0
  3 13  1  0
  3 14  1  0
  3 15  1  0
  5 16  1  0
  6 17  1  0
  7 18  1  0
  9 19  1  0
M  END
$$$$
