
     RDKit          3D

 19 20  0  0  0  0  0  0  0  0999 V2000
    2.5072    0.1051    1.1977 C   0  0  0  0  0  0  0  0  0  0  0  0
    1.6195    0.2531   -0.0410 C   0  0  0  0  0  0  0  0  0  0  0  0
    2.2956   -0.1039   -1.3446 C   0  0  0  0  0  0  0  0  0  0  0  0
    3.6212    0.5449   -1.9013 C   0  0  0  0  0  0  0  0  0  0  0  0
    3.5190   -0.6580   -2.8612 C   0  0  0  0  0  0  0  0  0  0  0  0
    2.9752   -1.4873   -1.6799 C   0  0  0  0  0  0  0  0  0  0  0  0
    2.3052   -0.3545   -3.6167 O   0  0  0  0  0  0  0  0  0  0  0  0
    1.4498    0.0269   -2.6125 C   0  0  0  0  0  0  0  0  0  0  0  0
    0.3174    0.3689   -2.7769 O   0  0  0  0  0  0  0  0  0  0  0  0
    2.8552   -0.9257    1.3233 H   0  0  0  0  0  0  0  0  0  0  0  0
    3.3895    0.7515    1.1408 H   0  0  0  0  0  0  0  0  0  0  0  0
    1.9558    0.3791    2.1016 H   0  0  0  0  0  0  0  0  0  0  0  0
    0.7239   -0.3715    0.0625 H   0  0  0  0  0  0  0  0  0  0  0  0
    1.2509    1.2833   -0.1174 H   0  0  0  0  0  0  0  0  0  0  0  0
    3.5656    1.5435   -2.3406 H   0  0  0  0  0  0  0  0  0  0  0  0
    4.4528    0.4693   -1.1981 H   0  0  0  0  0  0  0  0  0  0  0  0
    4.2985   -0.9805   -3.5467 H   0  0  0  0  0  0  0  0  0  0  0  0
    2.3319   -2.3375   -1.9178 H   0  0  0  0  0  0  0  0  0  0  0  0
    3.7427   -1.7644   -0.9548 H   0  0  0  0  0  0  0  0  0  0  0  0
  1  2  1  0
  2  3  1  0
  3  4  1  0
  4  5  1  0
  5  6  1  0
  5  7  1  0
  7  8  1  0
  8  9  2  0
  6  3  1  0
  8  3  1  0
  1 10  1  0
  1 11  1  0
  1 12  1  0
  2 13  1  0
  2 14  1  0
  4 15  1  0
  4 16  1  0
  5 17  1  0
  6 18  1  0
  6 19  1  0
M  END
$$$$
