gdb 4038	2.3986756	1.752975	1.4782546	2.5401	73.39	-0.22898	0.05728	0.28625999999999996	991.1442	0.157447	-422.531686	-422.523669	-422.522725	-422.563849	31.341
 OpenBabel02181911413D

 19 21  0  0  1  0  0  0  0  0999 V2000
   -2.7858    2.7904   -0.1843 C   0  0  0  0  0  0  0  0  0  0  0  0
   -2.5700    1.5816    0.6745 C   0  0  2  0  0  0  0  0  0  0  0  0
   -2.1253    1.5085    2.1330 C   0  0  2  0  0  0  0  0  0  0  0  0
   -0.9346    0.5644    2.3015 C   0  0  0  0  0  0  0  0  0  0  0  0
   -0.7783   -0.0998    0.9036 C   0  0  2  0  0  0  0  0  0  0  0  0
    0.2630    0.4677    0.1219 O   0  0  0  0  0  0  0  0  0  0  0  0
   -2.1479    0.1448    0.2667 C   0  0  1  0  0  0  0  0  0  0  0  0
   -3.1592   -0.4411    1.1475 O   0  0  0  0  0  0  0  0  0  0  0  0
   -3.4195    0.8614    1.6762 C   0  0  2  0  0  0  0  0  0  0  0  0
   -3.2229    3.6072    0.3993 H   0  0  0  0  0  0  0  0  0  0  0  0
   -1.8469    3.1626   -0.6126 H   0  0  0  0  0  0  0  0  0  0  0  0
   -3.4650    2.5755   -1.0167 H   0  0  0  0  0  0  0  0  0  0  0  0
   -2.2171    2.4008    2.7435 H   0  0  0  0  0  0  0  0  0  0  0  0
   -0.0164    1.1013    2.5583 H   0  0  0  0  0  0  0  0  0  0  0  0
   -1.1135   -0.1820    3.0804 H   0  0  0  0  0  0  0  0  0  0  0  0
   -0.5517   -1.1667    0.9725 H   0  0  0  0  0  0  0  0  0  0  0  0
    0.1410    1.4237    0.1187 H   0  0  0  0  0  0  0  0  0  0  0  0
   -2.2604   -0.1807   -0.7689 H   0  0  0  0  0  0  0  0  0  0  0  0
   -4.4025    1.0563    2.0900 H   0  0  0  0  0  0  0  0  0  0  0  0
  1 10  1  0  0  0  0
  2  1  1  6  0  0  0
  2  9  1  0  0  0  0
  2  3  1  0  0  0  0
  3  4  1  0  0  0  0
  3 13  1  1  0  0  0
  4 14  1  0  0  0  0
  4 15  1  0  0  0  0
  5 16  1  1  0  0  0
  5  4  1  0  0  0  0
  6  5  1  0  0  0  0
  7 18  1  6  0  0  0
  7  2  1  0  0  0  0
  7  5  1  0  0  0  0
  7  8  1  0  0  0  0
  8  9  1  0  0  0  0
  9 19  1  1  0  0  0
  9  3  1  0  0  0  0
 11  1  1  0  0  0  0
 12  1  1  0  0  0  0
 17  6  1  0  0  0  0
M TOR 0 0 1 2 3
M TOR 1 0 1 2 8
M TOR 2 0 1 2 12
M TOR 3 0 1 6 4
M TOR 4 0 1 6 7
M TOR 5 0 1 6 17
M TOR 6 0 1 8 7
M TOR 7 0 1 8 18
M TOR 8 1 2 3 4
M TOR 9 1 2 3 13
M TOR 10 1 2 3 14
M TOR 11 1 2 8 7
M TOR 12 1 2 8 18
M TOR 13 1 6 4 3
M TOR 14 1 6 4 5
M TOR 15 1 6 4 15
M TOR 16 1 6 7 8
M TOR 17 1 8 2 3
M TOR 18 1 8 2 12
M TOR 19 2 1 0 9
M TOR 20 2 1 0 10
M TOR 21 2 1 0 11
M TOR 22 2 1 6 4
M TOR 23 2 1 6 7
M TOR 24 2 1 6 17
M TOR 25 2 3 4 5
M TOR 26 2 3 4 6
M TOR 27 2 3 4 15
M TOR 28 2 8 1 6
M TOR 29 2 8 7 6
M TOR 30 3 2 1 6
M TOR 31 3 2 8 7
M TOR 32 3 2 8 18
M TOR 33 3 4 5 16
M TOR 34 3 4 6 7
M TOR 35 3 4 6 17
M TOR 36 4 3 2 8
M TOR 37 4 3 2 12
M TOR 38 4 6 1 8
M TOR 39 4 6 7 8
M TOR 40 5 4 3 13
M TOR 41 5 4 3 14
M TOR 42 5 4 6 7
M TOR 43 5 4 6 17
M TOR 44 6 1 0 9
M TOR 45 6 1 0 10
M TOR 46 6 1 0 11
M TOR 47 6 1 2 12
M TOR 48 6 1 8 18
M TOR 49 6 4 3 13
M TOR 50 6 4 3 14
M TOR 51 6 4 5 16
M TOR 52 6 7 8 18
M TOR 53 7 6 4 15
M TOR 54 7 8 2 12
M TOR 55 8 1 0 9
M TOR 56 8 1 0 10
M TOR 57 8 1 0 11
M TOR 58 8 1 6 17
M TOR 59 8 2 3 13
M TOR 60 8 2 3 14
M TOR 61 8 7 6 17
M  END
$$$$
