gdb 3955	3.3864037	1.4404728	1.4098852	1.851	74.54	-0.24591	0.06472	0.31062999999999996	998.2118	0.159073	-422.497306	-422.490194	-422.489249	-422.528345	29.404
 OpenBabel02181911413D

 19 21  0  0  1  0  0  0  0  0999 V2000
    0.3153    0.8906    0.4713 O   0  0  0  0  0  0  0  0  0  0  0  0
   -0.6291    0.0050    1.0450 C   0  0  2  0  0  0  0  0  0  0  0  0
   -1.8376   -0.1700    0.0335 C   0  0  0  0  0  0  0  0  0  0  0  0
   -2.8936    0.3861    0.9720 C   0  0  2  0  0  0  0  0  0  0  0  0
   -4.1842    1.1999    1.0468 C   0  0  0  0  0  0  0  0  0  0  0  0
   -3.5592    2.0427    2.0676 O   0  0  0  0  0  0  0  0  0  0  0  0
   -2.2333    1.6137    1.6241 C   0  0  1  0  0  0  0  0  0  0  0  0
   -1.3588    0.5567    2.3269 C   0  0  1  0  0  0  0  0  0  0  0  0
   -2.5901   -0.3724    2.3196 C   0  0  0  0  0  0  0  0  0  0  0  0
    1.0258    1.0220    1.1079 H   0  0  0  0  0  0  0  0  0  0  0  0
   -0.1608   -0.9613    1.2796 H   0  0  0  0  0  0  0  0  0  0  0  0
   -1.6600    0.4430   -0.8530 H   0  0  0  0  0  0  0  0  0  0  0  0
   -1.9784   -1.2104   -0.2704 H   0  0  0  0  0  0  0  0  0  0  0  0
   -4.4166    1.7839    0.1463 H   0  0  0  0  0  0  0  0  0  0  0  0
   -5.0884    0.7076    1.4194 H   0  0  0  0  0  0  0  0  0  0  0  0
   -1.7372    2.4020    1.0537 H   0  0  0  0  0  0  0  0  0  0  0  0
   -0.7205    0.7201    3.1997 H   0  0  0  0  0  0  0  0  0  0  0  0
   -2.4100   -1.4491    2.2531 H   0  0  0  0  0  0  0  0  0  0  0  0
   -3.3113   -0.1473    3.1029 H   0  0  0  0  0  0  0  0  0  0  0  0
  1  2  1  0  0  0  0
  1 10  1  0  0  0  0
  2 11  1  1  0  0  0
  2  8  1  0  0  0  0
  3  2  1  0  0  0  0
  4  3  1  6  0  0  0
  4  5  1  0  0  0  0
  4  7  1  0  0  0  0
  4  9  1  0  0  0  0
  5 15  1  0  0  0  0
  5  6  1  0  0  0  0
  7 16  1  6  0  0  0
  7  6  1  0  0  0  0
  7  8  1  0  0  0  0
  8 17  1  1  0  0  0
  9  8  1  0  0  0  0
  9 19  1  0  0  0  0
 12  3  1  0  0  0  0
 13  3  1  0  0  0  0
 14  5  1  0  0  0  0
 18  9  1  0  0  0  0
M TOR 0 0 1 2 3
M TOR 1 0 1 2 11
M TOR 2 0 1 2 12
M TOR 3 0 1 7 6
M TOR 4 0 1 7 8
M TOR 5 0 1 7 16
M TOR 6 1 2 3 4
M TOR 7 1 2 3 6
M TOR 8 1 2 3 8
M TOR 9 1 7 6 3
M TOR 10 1 7 6 5
M TOR 11 1 7 6 15
M TOR 12 1 7 8 3
M TOR 13 1 7 8 17
M TOR 14 1 7 8 18
M TOR 15 2 1 0 9
M TOR 16 2 1 7 6
M TOR 17 2 1 7 8
M TOR 18 2 1 7 16
M TOR 19 2 3 4 5
M TOR 20 2 3 4 13
M TOR 21 2 3 4 14
M TOR 22 2 3 6 5
M TOR 23 2 3 6 7
M TOR 24 2 3 6 15
M TOR 25 2 3 8 7
M TOR 26 2 3 8 17
M TOR 27 2 3 8 18
M TOR 28 3 2 1 7
M TOR 29 3 2 1 10
M TOR 30 3 4 5 6
M TOR 31 3 6 7 8
M TOR 32 3 6 7 16
M TOR 33 3 8 7 16
M TOR 34 4 3 2 11
M TOR 35 4 3 2 12
M TOR 36 4 3 6 7
M TOR 37 4 3 6 15
M TOR 38 4 3 8 7
M TOR 39 4 3 8 17
M TOR 40 4 3 8 18
M TOR 41 4 5 6 7
M TOR 42 4 5 6 15
M TOR 43 5 4 3 8
M TOR 44 5 6 3 8
M TOR 45 5 6 7 8
M TOR 46 5 6 7 16
M TOR 47 6 3 2 11
M TOR 48 6 3 2 12
M TOR 49 6 3 4 13
M TOR 50 6 3 4 14
M TOR 51 6 3 8 17
M TOR 52 6 3 8 18
M TOR 53 6 5 4 13
M TOR 54 6 5 4 14
M TOR 55 6 7 1 10
M TOR 56 6 7 8 17
M TOR 57 6 7 8 18
M TOR 58 7 1 0 9
M TOR 59 7 1 2 11
M TOR 60 7 1 2 12
M TOR 61 8 3 2 11
M TOR 62 8 3 2 12
M TOR 63 8 3 4 13
M TOR 64 8 3 4 14
M TOR 65 8 3 6 15
M TOR 66 8 7 1 10
M TOR 67 8 7 6 15
M  END
$$$$
