
     RDKit          3D

 19 19  0  0  0  0  0  0  0  0999 V2000
    1.0943    0.8315    0.0953 C   0  0  0  0  0  0  0  0  0  0  0  0
   -0.2200    0.1073    0.0922 C   0  0  0  0  0  0  0  0  0  0  0  0
   -0.2979   -1.2364    0.0858 C   0  0  0  0  0  0  0  0  0  0  0  0
   -1.5720   -1.9799    0.1186 C   0  0  0  0  0  0  0  0  0  0  0  0
   -1.6035   -3.1949    0.0868 O   0  0  0  0  0  0  0  0  0  0  0  0
   -2.8435   -1.1424    0.2259 C   0  0  0  0  0  0  0  0  0  0  0  0
   -2.7001    0.2318   -0.4383 C   0  0  0  0  0  0  0  0  0  0  0  0
   -2.6589    0.1306   -1.8561 O   0  0  0  0  0  0  0  0  0  0  0  0
   -1.4644    0.9651    0.1064 C   0  0  0  0  0  0  0  0  0  0  0  0
    1.1592    1.5087    0.9566 H   0  0  0  0  0  0  0  0  0  0  0  0
    1.9417    0.1433    0.1313 H   0  0  0  0  0  0  0  0  0  0  0  0
    1.1914    1.4612   -0.7980 H   0  0  0  0  0  0  0  0  0  0  0  0
    0.5976   -1.8516    0.0667 H   0  0  0  0  0  0  0  0  0  0  0  0
   -3.6737   -1.7054   -0.2063 H   0  0  0  0  0  0  0  0  0  0  0  0
   -3.0558   -1.0101    1.2963 H   0  0  0  0  0  0  0  0  0  0  0  0
   -3.5918    0.8326   -0.2340 H   0  0  0  0  0  0  0  0  0  0  0  0
   -1.8918   -0.4014   -2.0966 H   0  0  0  0  0  0  0  0  0  0  0  0
   -1.3003    1.8720   -0.4863 H   0  0  0  0  0  0  0  0  0  0  0  0
   -1.6517    1.3026    1.1367 H   0  0  0  0  0  0  0  0  0  0  0  0
  1  2  1  0
  2  3  2  0
  3  4  1  0
  4  5  2  0
  4  6  1  0
  6  7  1  0
  7  8  1  0
  7  9  1  0
  9  2  1  0
  1 10  1  0
  1 11  1  0
  1 12  1  0
  3 13  1  0
  6 14  1  0
  6 15  1  0
  7 16  1  0
  8 17  1  0
  9 18  1  0
  9 19  1  0
M  END
$$$$
