
     RDKit          3D

 19 19  0  0  0  0  0  0  0  0999 V2000
    0.0245    1.9482   -1.2006 C   0  0  0  0  0  0  0  0  0  0  0  0
   -0.1400    1.2819    0.1879 C   0  0  0  0  0  0  0  0  0  0  0  0
   -1.4903    1.6958    0.7671 C   0  0  0  0  0  0  0  0  0  0  0  0
   -1.6726    2.7848    1.2421 O   0  0  0  0  0  0  0  0  0  0  0  0
   -2.5186    0.8202    0.7222 O   0  0  0  0  0  0  0  0  0  0  0  0
   -2.3917   -0.4955    0.1681 C   0  0  0  0  0  0  0  0  0  0  0  0
   -0.9917   -1.0153    0.1012 C   0  0  0  0  0  0  0  0  0  0  0  0
    0.0692   -0.2135    0.1330 C   0  0  0  0  0  0  0  0  0  0  0  0
    1.4861   -0.7124    0.1005 C   0  0  0  0  0  0  0  0  0  0  0  0
   -0.7102    1.5588   -1.9121 H   0  0  0  0  0  0  0  0  0  0  0  0
   -0.1121    3.0285   -1.1123 H   0  0  0  0  0  0  0  0  0  0  0  0
    1.0218    1.7553   -1.6051 H   0  0  0  0  0  0  0  0  0  0  0  0
    0.6006    1.7365    0.8557 H   0  0  0  0  0  0  0  0  0  0  0  0
   -3.0108   -1.1365    0.8056 H   0  0  0  0  0  0  0  0  0  0  0  0
   -2.8646   -0.4897   -0.8255 H   0  0  0  0  0  0  0  0  0  0  0  0
   -0.8846   -2.0939    0.0257 H   0  0  0  0  0  0  0  0  0  0  0  0
    2.0255   -0.4134    1.0080 H   0  0  0  0  0  0  0  0  0  0  0  0
    1.5262   -1.8018    0.0228 H   0  0  0  0  0  0  0  0  0  0  0  0
    2.0419   -0.2905   -0.7455 H   0  0  0  0  0  0  0  0  0  0  0  0
  1  2  1  0
  2  3  1  0
  3  4  2  0
  3  5  1  0
  5  6  1  0
  6  7  1  0
  7  8  2  0
  8  9  1  0
  8  2  1  0
  1 10  1  0
  1 11  1  0
  1 12  1  0
  2 13  1  0
  6 14  1  0
  6 15  1  0
  7 16  1  0
  9 17  1  0
  9 18  1  0
  9 19  1  0
M  END
$$$$
