
     RDKit          3D

 19 21  0  0  0  0  0  0  0  0999 V2000
    0.2145   -1.9009   -2.1283 C   0  0  0  0  0  0  0  0  0  0  0  0
    0.2869   -2.0019   -0.5664 C   0  0  0  0  0  0  0  0  0  0  0  0
    0.6930   -0.5297   -0.5223 C   0  0  0  0  0  0  0  0  0  0  0  0
    0.2567    0.2971    0.5059 O   0  0  0  0  0  0  0  0  0  0  0  0
    0.9633    1.5348    0.3620 C   0  0  0  0  0  0  0  0  0  0  0  0
    2.3797    1.1522   -0.1152 C   0  0  0  0  0  0  0  0  0  0  0  0
    2.1387   -0.1248   -0.9201 C   0  0  0  0  0  0  0  0  0  0  0  0
    1.7557    0.0921   -2.3016 O   0  0  0  0  0  0  0  0  0  0  0  0
    0.4103   -0.3570   -2.0485 C   0  0  0  0  0  0  0  0  0  0  0  0
    1.0292   -2.3935   -2.6627 H   0  0  0  0  0  0  0  0  0  0  0  0
   -0.7371   -2.2199   -2.5578 H   0  0  0  0  0  0  0  0  0  0  0  0
   -0.6986   -2.1518   -0.1187 H   0  0  0  0  0  0  0  0  0  0  0  0
    0.9844   -2.7225   -0.1314 H   0  0  0  0  0  0  0  0  0  0  0  0
    0.4593    2.1691   -0.3808 H   0  0  0  0  0  0  0  0  0  0  0  0
    0.9423    2.0455    1.3269 H   0  0  0  0  0  0  0  0  0  0  0  0
    2.8565    1.9317   -0.7135 H   0  0  0  0  0  0  0  0  0  0  0  0
    3.0218    0.9267    0.7421 H   0  0  0  0  0  0  0  0  0  0  0  0
    2.9440   -0.8609   -0.8338 H   0  0  0  0  0  0  0  0  0  0  0  0
   -0.3454    0.2843   -2.5071 H   0  0  0  0  0  0  0  0  0  0  0  0
  1  2  1  0
  2  3  1  0
  3  4  1  0
  4  5  1  0
  5  6  1  0
  6  7  1  0
  7  8  1  0
  8  9  1  0
  9  1  1  0
  7  3  1  0
  9  3  1  0
  1 10  1  0
  1 11  1  0
  2 12  1  0
  2 13  1  0
  5 14  1  0
  5 15  1  0
  6 16  1  0
  6 17  1  0
  7 18  1  0
  9 19  1  0
M  END
$$$$
