gdb 4497	2.6179655	1.503266	1.1835858	1.825	74.78	-0.23752	-0.02427	0.21325	1086.6259	0.157567	-422.584715	-422.576594	-422.57565	-422.617513	31.343
 OpenBabel02181911413D

 19 20  0  0  1  0  0  0  0  0999 V2000
   -2.0890   -2.9416   -1.1147 O   0  0  0  0  0  0  0  0  0  0  0  0
   -1.1988   -1.8506   -1.3207 C   0  0  1  0  0  0  0  0  0  0  0  0
   -1.9063   -0.8704   -2.2662 C   0  0  0  0  0  0  0  0  0  0  0  0
   -2.8597   -0.0756   -1.3499 C   0  0  0  0  0  0  0  0  0  0  0  0
   -2.0782    0.1143   -0.0390 C   0  0  2  0  0  0  0  0  0  0  0  0
   -0.9462    1.1915   -0.0666 C   0  0  0  0  0  0  0  0  0  0  0  0
    0.0864    0.0554   -0.1052 C   0  0  0  0  0  0  0  0  0  0  0  0
    1.2808    0.0151   -0.1848 O   0  0  0  0  0  0  0  0  0  0  0  0
   -1.0007   -1.0315   -0.0253 C   0  0  2  0  0  0  0  0  0  0  0  0
   -1.6789   -3.5498   -0.4915 H   0  0  0  0  0  0  0  0  0  0  0  0
   -0.2382   -2.2012   -1.7218 H   0  0  0  0  0  0  0  0  0  0  0  0
   -1.1606   -0.2108   -2.7249 H   0  0  0  0  0  0  0  0  0  0  0  0
   -2.4196   -1.4020   -3.0702 H   0  0  0  0  0  0  0  0  0  0  0  0
   -3.1816    0.8731   -1.7902 H   0  0  0  0  0  0  0  0  0  0  0  0
   -3.7557   -0.6730   -1.1577 H   0  0  0  0  0  0  0  0  0  0  0  0
   -2.7247    0.1825    0.8358 H   0  0  0  0  0  0  0  0  0  0  0  0
   -0.9260    1.8667   -0.9285 H   0  0  0  0  0  0  0  0  0  0  0  0
   -0.8669    1.7984    0.8410 H   0  0  0  0  0  0  0  0  0  0  0  0
   -0.9196   -1.6701    0.8590 H   0  0  0  0  0  0  0  0  0  0  0  0
  1 10  1  0  0  0  0
  2 11  1  6  0  0  0
  2  1  1  0  0  0  0
  2  9  1  0  0  0  0
  3  4  1  0  0  0  0
  3  2  1  0  0  0  0
  4 15  1  0  0  0  0
  4  5  1  0  0  0  0
  5  9  1  0  0  0  0
  5 16  1  1  0  0  0
  6  5  1  0  0  0  0
  6 18  1  0  0  0  0
  7  6  1  0  0  0  0
  7  9  1  0  0  0  0
  8  7  2  0  0  0  0
  9 19  1  1  0  0  0
 12  3  1  0  0  0  0
 13  3  1  0  0  0  0
 14  4  1  0  0  0  0
 17  6  1  0  0  0  0
M TOR 0 0 1 2 3
M TOR 1 0 1 2 11
M TOR 2 0 1 2 12
M TOR 3 0 1 8 4
M TOR 4 0 1 8 6
M TOR 5 0 1 8 18
M TOR 6 1 2 3 4
M TOR 7 1 2 3 13
M TOR 8 1 2 3 14
M TOR 9 1 8 4 3
M TOR 10 1 8 4 5
M TOR 11 1 8 4 15
M TOR 12 1 8 6 5
M TOR 13 1 8 6 7
M TOR 14 2 1 0 9
M TOR 15 2 1 8 4
M TOR 16 2 1 8 6
M TOR 17 2 1 8 18
M TOR 18 2 3 4 5
M TOR 19 2 3 4 8
M TOR 20 2 3 4 15
M TOR 21 3 2 1 8
M TOR 22 3 2 1 10
M TOR 23 3 4 5 6
M TOR 24 3 4 5 16
M TOR 25 3 4 5 17
M TOR 26 3 4 8 6
M TOR 27 3 4 8 18
M TOR 28 4 3 2 11
M TOR 29 4 3 2 12
M TOR 30 4 5 6 7
M TOR 31 4 5 6 8
M TOR 32 4 8 1 10
M TOR 33 4 8 6 7
M TOR 34 5 4 3 13
M TOR 35 5 4 3 14
M TOR 36 5 4 8 18
M TOR 37 5 6 8 18
M TOR 38 6 5 4 15
M TOR 39 6 8 1 10
M TOR 40 6 8 4 15
M TOR 41 7 6 5 16
M TOR 42 7 6 5 17
M TOR 43 7 6 8 18
M TOR 44 8 1 0 9
M TOR 45 8 1 2 11
M TOR 46 8 1 2 12
M TOR 47 8 4 3 13
M TOR 48 8 4 3 14
M TOR 49 8 4 5 16
M TOR 50 8 4 5 17
M TOR 51 8 6 5 16
M TOR 52 8 6 5 17
M  END
$$$$
