
     RDKit          3D

 19 20  0  0  0  0  0  0  0  0999 V2000
    1.4795    0.6984    0.1324 C   0  0  0  0  0  0  0  0  0  0  0  0
    0.0628    0.2443    0.1450 C   0  0  0  0  0  0  0  0  0  0  0  0
   -1.1027    0.8813   -0.0283 C   0  0  0  0  0  0  0  0  0  0  0  0
   -2.1458   -0.2366    0.0542 C   0  0  0  0  0  0  0  0  0  0  0  0
   -1.6162   -1.0585    1.2771 C   0  0  0  0  0  0  0  0  0  0  0  0
   -0.3903   -1.2179    0.3153 C   0  0  0  0  0  0  0  0  0  0  0  0
    0.5524   -2.2437    0.4057 O   0  0  0  0  0  0  0  0  0  0  0  0
   -1.4334   -1.3041   -0.8519 C   0  0  0  0  0  0  0  0  0  0  0  0
   -2.1164   -2.5270   -0.9482 O   0  0  0  0  0  0  0  0  0  0  0  0
    1.9748    0.5073    1.0936 H   0  0  0  0  0  0  0  0  0  0  0  0
    2.0601    0.1571   -0.6243 H   0  0  0  0  0  0  0  0  0  0  0  0
    1.5533    1.7693   -0.0759 H   0  0  0  0  0  0  0  0  0  0  0  0
   -1.2925    1.9275   -0.2262 H   0  0  0  0  0  0  0  0  0  0  0  0
   -3.1996    0.0014   -0.0707 H   0  0  0  0  0  0  0  0  0  0  0  0
   -1.4544   -0.5157    2.2114 H   0  0  0  0  0  0  0  0  0  0  0  0
   -2.1578   -1.9932    1.4299 H   0  0  0  0  0  0  0  0  0  0  0  0
    0.8609   -2.3044    1.3155 H   0  0  0  0  0  0  0  0  0  0  0  0
   -1.0872   -0.9461   -1.8305 H   0  0  0  0  0  0  0  0  0  0  0  0
   -1.4473   -3.2216   -0.9676 H   0  0  0  0  0  0  0  0  0  0  0  0
  1  2  1  0
  2  3  2  0
  3  4  1  0
  4  5  1  0
  5  6  1  0
  6  7  1  0
  6  8  1  0
  8  9  1  0
  6  2  1  0
  8  4  1  0
  1 10  1  0
  1 11  1  0
  1 12  1  0
  3 13  1  0
  4 14  1  0
  5 15  1  0
  5 16  1  0
  7 17  1  0
  8 18  1  0
  9 19  1  0
M  END
$$$$
