gdb 5122	3.4794884	1.3101233	1.1612966	3.021	74.37	-0.24066	0.05276	0.29342	1125.0418	0.156398	-422.487802	-422.479708	-422.478763	-422.520571	30.853
 OpenBabel02181911423D

 19 21  0  0  1  0  0  0  0  0999 V2000
    1.2393    0.9843    0.4631 C   0  0  0  0  0  0  0  0  0  0  0  0
    0.8113   -0.4346    0.0625 C   0  0  0  0  0  0  0  0  0  0  0  0
    1.5040   -0.9123   -1.1756 C   0  0  1  0  0  0  0  0  0  0  0  0
    2.8768   -1.3055   -1.0812 O   0  0  0  0  0  0  0  0  0  0  0  0
    1.9525   -2.2490   -1.6346 C   0  0  2  0  0  0  0  0  0  0  0  0
    1.7073   -1.8491   -3.1188 C   0  0  2  0  0  0  0  0  0  0  0  0
    2.8374   -1.3277   -3.8312 O   0  0  0  0  0  0  0  0  0  0  0  0
    2.5117    0.0318   -3.4357 C   0  0  0  0  0  0  0  0  0  0  0  0
    1.2715   -0.4449   -2.6447 C   0  0  2  0  0  0  0  0  0  0  0  0
    0.7173    1.3080    1.3680 H   0  0  0  0  0  0  0  0  0  0  0  0
    2.3152    1.0228    0.6565 H   0  0  0  0  0  0  0  0  0  0  0  0
    1.0135    1.7055   -0.3296 H   0  0  0  0  0  0  0  0  0  0  0  0
    1.0318   -1.1372    0.8737 H   0  0  0  0  0  0  0  0  0  0  0  0
   -0.2728   -0.4658   -0.1042 H   0  0  0  0  0  0  0  0  0  0  0  0
    1.9106   -3.2260   -1.1640 H   0  0  0  0  0  0  0  0  0  0  0  0
    1.0821   -2.5284   -3.7040 H   0  0  0  0  0  0  0  0  0  0  0  0
    3.3135    0.4909   -2.8510 H   0  0  0  0  0  0  0  0  0  0  0  0
    2.2787    0.6480   -4.3117 H   0  0  0  0  0  0  0  0  0  0  0  0
    0.2951   -0.0246   -2.8788 H   0  0  0  0  0  0  0  0  0  0  0  0
  1 11  1  0  0  0  0
  1 10  1  0  0  0  0
  2  1  1  0  0  0  0
  2 13  1  0  0  0  0
  3  4  1  0  0  0  0
  3  2  1  1  0  0  0
  5  3  1  0  0  0  0
  5 15  1  1  0  0  0
  5  4  1  0  0  0  0
  6 16  1  6  0  0  0
  6  9  1  0  0  0  0
  6  5  1  0  0  0  0
  7  8  1  0  0  0  0
  7  6  1  0  0  0  0
  8 17  1  0  0  0  0
  8  9  1  0  0  0  0
  9 19  1  6  0  0  0
  9  3  1  0  0  0  0
 12  1  1  0  0  0  0
 14  2  1  0  0  0  0
 18  8  1  0  0  0  0
M TOR 0 0 1 2 3
M TOR 1 0 1 2 4
M TOR 2 0 1 2 8
M TOR 3 1 2 3 4
M TOR 4 1 2 4 5
M TOR 5 1 2 4 14
M TOR 6 1 2 8 5
M TOR 7 1 2 8 7
M TOR 8 1 2 8 18
M TOR 9 2 1 0 9
M TOR 10 2 1 0 10
M TOR 11 2 1 0 11
M TOR 12 2 3 4 5
M TOR 13 2 3 4 14
M TOR 14 2 4 5 6
M TOR 15 2 4 5 8
M TOR 16 2 4 5 15
M TOR 17 2 8 5 6
M TOR 18 2 8 5 15
M TOR 19 2 8 7 6
M TOR 20 2 8 7 16
M TOR 21 2 8 7 17
M TOR 22 3 2 1 12
M TOR 23 3 2 1 13
M TOR 24 3 2 8 5
M TOR 25 3 2 8 7
M TOR 26 3 2 8 18
M TOR 27 3 4 2 8
M TOR 28 3 4 5 6
M TOR 29 3 4 5 8
M TOR 30 3 4 5 15
M TOR 31 4 2 1 12
M TOR 32 4 2 1 13
M TOR 33 4 2 8 7
M TOR 34 4 2 8 18
M TOR 35 4 5 6 7
M TOR 36 4 5 8 7
M TOR 37 4 5 8 18
M TOR 38 5 6 7 8
M TOR 39 5 6 7 16
M TOR 40 5 6 7 17
M TOR 41 5 8 7 16
M TOR 42 5 8 7 17
M TOR 43 6 5 4 14
M TOR 44 6 5 8 18
M TOR 45 6 7 8 18
M TOR 46 7 6 5 15
M TOR 47 7 8 5 15
M TOR 48 8 2 1 12
M TOR 49 8 2 1 13
M TOR 50 8 2 4 14
M TOR 51 8 5 4 14
M  END
$$$$
