gdb 524	2.784574	1.8691785	1.6774078	2.5917	73.46	-0.23955	0.0624	0.30195	904.4016	0.160329	-422.513057	-422.506436	-422.505491	-422.543637	27.607
 OpenBabel02181911403D

 19 21  0  0  1  0  0  0  0  0999 V2000
   -0.1999    1.1528   -0.7133 C   0  0  0  0  0  0  0  0  0  0  0  0
    0.1912   -0.2589   -0.6802 O   0  0  0  0  0  0  0  0  0  0  0  0
    1.1838    0.0936    0.3228 C   0  0  1  0  0  0  0  0  0  0  0  0
    2.7026   -0.0413    0.3519 C   0  0  2  0  0  0  0  0  0  0  0  0
    2.9679    1.1574    1.3448 C   0  0  0  0  0  0  0  0  0  0  0  0
    1.8710    2.2586    0.9727 C   0  0  0  0  0  0  0  0  0  0  0  0
    1.2073    1.5227   -0.1909 C   0  0  2  0  0  0  0  0  0  0  0  0
    2.2488    1.4004   -1.3369 C   0  0  0  0  0  0  0  0  0  0  0  0
    3.1453    0.3473   -0.9363 O   0  0  0  0  0  0  0  0  0  0  0  0
   -0.4866    1.4733   -1.7185 H   0  0  0  0  0  0  0  0  0  0  0  0
   -1.0146    1.3506   -0.0048 H   0  0  0  0  0  0  0  0  0  0  0  0
    0.7497   -0.0279    1.3241 H   0  0  0  0  0  0  0  0  0  0  0  0
    3.1837   -0.9798    0.6274 H   0  0  0  0  0  0  0  0  0  0  0  0
    2.8827    0.8481    2.3902 H   0  0  0  0  0  0  0  0  0  0  0  0
    3.9850    1.5187    1.1816 H   0  0  0  0  0  0  0  0  0  0  0  0
    1.1858    2.4253    1.8080 H   0  0  0  0  0  0  0  0  0  0  0  0
    2.3262    3.2165    0.7079 H   0  0  0  0  0  0  0  0  0  0  0  0
    1.7962    1.1278   -2.2947 H   0  0  0  0  0  0  0  0  0  0  0  0
    2.8080    2.3361   -1.4651 H   0  0  0  0  0  0  0  0  0  0  0  0
  1  2  1  0  0  0  0
  1  7  1  0  0  0  0
  1 11  1  0  0  0  0
  2  3  1  0  0  0  0
  3  4  1  0  0  0  0
  3 12  1  1  0  0  0
  4 13  1  1  0  0  0
  4  5  1  0  0  0  0
  5 14  1  0  0  0  0
  6  5  1  0  0  0  0
  6 16  1  0  0  0  0
  7  8  1  6  0  0  0
  7  3  1  0  0  0  0
  7  6  1  0  0  0  0
  8  9  1  0  0  0  0
  9  4  1  0  0  0  0
 10  1  1  0  0  0  0
 15  5  1  0  0  0  0
 17  6  1  0  0  0  0
 18  8  1  0  0  0  0
 19  8  1  0  0  0  0
M TOR 0 0 1 2 3
M TOR 1 0 1 2 6
M TOR 2 0 1 2 11
M TOR 3 0 6 2 3
M TOR 4 0 6 2 11
M TOR 5 0 6 5 4
M TOR 6 0 6 5 15
M TOR 7 0 6 5 16
M TOR 8 0 6 7 8
M TOR 9 0 6 7 17
M TOR 10 0 6 7 18
M TOR 11 1 0 6 5
M TOR 12 1 0 6 7
M TOR 13 1 2 3 4
M TOR 14 1 2 3 8
M TOR 15 1 2 3 12
M TOR 16 1 2 6 5
M TOR 17 1 2 6 7
M TOR 18 2 1 0 9
M TOR 19 2 1 0 10
M TOR 20 2 3 4 5
M TOR 21 2 3 4 13
M TOR 22 2 3 4 14
M TOR 23 2 3 8 7
M TOR 24 2 6 0 9
M TOR 25 2 6 0 10
M TOR 26 2 6 5 4
M TOR 27 2 6 5 15
M TOR 28 2 6 5 16
M TOR 29 2 6 7 8
M TOR 30 2 6 7 17
M TOR 31 2 6 7 18
M TOR 32 3 2 6 5
M TOR 33 3 2 6 7
M TOR 34 3 4 5 6
M TOR 35 3 4 5 15
M TOR 36 3 4 5 16
M TOR 37 3 8 7 6
M TOR 38 3 8 7 17
M TOR 39 3 8 7 18
M TOR 40 4 3 2 6
M TOR 41 4 3 2 11
M TOR 42 4 3 8 7
M TOR 43 4 5 6 7
M TOR 44 5 4 3 8
M TOR 45 5 4 3 12
M TOR 46 5 6 0 9
M TOR 47 5 6 0 10
M TOR 48 5 6 2 11
M TOR 49 5 6 7 8
M TOR 50 5 6 7 17
M TOR 51 5 6 7 18
M TOR 52 6 2 3 8
M TOR 53 6 2 3 12
M TOR 54 6 5 4 13
M TOR 55 6 5 4 14
M TOR 56 7 6 0 9
M TOR 57 7 6 0 10
M TOR 58 7 6 2 11
M TOR 59 7 6 5 15
M TOR 60 7 6 5 16
M TOR 61 7 8 3 12
M TOR 62 8 3 2 11
M TOR 63 8 3 4 13
M TOR 64 8 3 4 14
M  END
$$$$
