
     RDKit          3D

 19 21  0  0  0  0  0  0  0  0999 V2000
   -2.2761    2.6024    1.2692 C   0  0  0  0  0  0  0  0  0  0  0  0
   -1.4042    3.7591    0.8182 C   0  0  0  0  0  0  0  0  0  0  0  0
   -1.5782    3.9449   -0.6823 C   0  0  0  0  0  0  0  0  0  0  0  0
   -1.3129    2.5360   -0.9297 O   0  0  0  0  0  0  0  0  0  0  0  0
   -1.0391    2.3277    0.4665 C   0  0  0  0  0  0  0  0  0  0  0  0
    0.0781    1.4130    0.8192 C   0  0  0  0  0  0  0  0  0  0  0  0
    1.4144    1.5490    0.0501 C   0  0  0  0  0  0  0  0  0  0  0  0
    1.3855    0.1595   -0.3321 O   0  0  0  0  0  0  0  0  0  0  0  0
    0.0580   -0.0101    0.2004 C   0  0  0  0  0  0  0  0  0  0  0  0
   -2.2099    2.3745    2.3287 H   0  0  0  0  0  0  0  0  0  0  0  0
   -3.2527    2.4398    0.8207 H   0  0  0  0  0  0  0  0  0  0  0  0
   -0.9453    4.4591    1.5033 H   0  0  0  0  0  0  0  0  0  0  0  0
   -2.5661    4.2494   -1.0476 H   0  0  0  0  0  0  0  0  0  0  0  0
   -0.8039    4.5670   -1.1448 H   0  0  0  0  0  0  0  0  0  0  0  0
    0.2075    1.3995    1.9040 H   0  0  0  0  0  0  0  0  0  0  0  0
    1.3564    2.2140   -0.8200 H   0  0  0  0  0  0  0  0  0  0  0  0
    2.3018    1.7948    0.6445 H   0  0  0  0  0  0  0  0  0  0  0  0
   -0.6893   -0.1416   -0.5921 H   0  0  0  0  0  0  0  0  0  0  0  0
   -0.0030   -0.8493    0.9025 H   0  0  0  0  0  0  0  0  0  0  0  0
  1  2  1  0
  2  3  1  0
  3  4  1  0
  4  5  1  0
  5  6  1  0
  6  7  1  0
  7  8  1  0
  8  9  1  0
  5  1  1  0
  9  6  1  0
  5  2  1  0
  1 10  1  0
  1 11  1  0
  2 12  1  0
  3 13  1  0
  3 14  1  0
  6 15  1  0
  7 16  1  0
  7 17  1  0
  9 18  1  0
  9 19  1  0
M  END
$$$$
