
     RDKit          3D

 19 20  0  0  0  0  0  0  0  0999 V2000
    0.3640   -0.1108    0.3536 O   0  0  0  0  0  0  0  0  0  0  0  0
   -0.9568    0.2077    0.7671 C   0  0  0  0  0  0  0  0  0  0  0  0
   -0.9413    0.7993    2.1894 C   0  0  0  0  0  0  0  0  0  0  0  0
   -0.6112   -0.2867    3.1935 C   0  0  0  0  0  0  0  0  0  0  0  0
   -1.0765   -1.5315    3.0473 C   0  0  0  0  0  0  0  0  0  0  0  0
   -1.9638   -1.8930    1.9120 C   0  0  0  0  0  0  0  0  0  0  0  0
   -1.4114   -2.3695    0.5682 C   0  0  0  0  0  0  0  0  0  0  0  0
   -1.9415   -0.9817    0.7091 C   0  0  0  0  0  0  0  0  0  0  0  0
   -3.1447   -0.7198    0.0365 O   0  0  0  0  0  0  0  0  0  0  0  0
    0.7916   -0.5652    1.0895 H   0  0  0  0  0  0  0  0  0  0  0  0
   -1.3172    0.9445    0.0428 H   0  0  0  0  0  0  0  0  0  0  0  0
   -0.2121    1.6137    2.2357 H   0  0  0  0  0  0  0  0  0  0  0  0
   -1.9222    1.2433    2.4158 H   0  0  0  0  0  0  0  0  0  0  0  0
    0.0228   -0.0333    4.0385 H   0  0  0  0  0  0  0  0  0  0  0  0
   -0.8270   -2.3048    3.7704 H   0  0  0  0  0  0  0  0  0  0  0  0
   -2.9262   -2.3256    2.1756 H   0  0  0  0  0  0  0  0  0  0  0  0
   -0.3423   -2.4958    0.4467 H   0  0  0  0  0  0  0  0  0  0  0  0
   -2.0298   -3.0666    0.0145 H   0  0  0  0  0  0  0  0  0  0  0  0
   -3.6929   -0.1690    0.6060 H   0  0  0  0  0  0  0  0  0  0  0  0
  1  2  1  0
  2  3  1  0
  3  4  1  0
  4  5  2  0
  5  6  1  0
  6  7  1  0
  7  8  1  0
  8  9  1  0
  8  2  1  0
  8  6  1  0
  1 10  1  0
  2 11  1  0
  3 12  1  0
  3 13  1  0
  4 14  1  0
  5 15  1  0
  6 16  1  0
  7 17  1  0
  7 18  1  0
  9 19  1  0
M  END
$$$$
