gdb 3060	2.8989495	1.4433812	1.1773789	2.9589	75.42	-0.22939	-0.01794	0.21145	1116.3251	0.15663	-422.557416	-422.549014	-422.54807	-422.590065	31.931
 OpenBabel02181911413D

 19 20  0  0  1  0  0  0  0  0999 V2000
   -2.7522    1.5572   -1.7176 C   0  0  0  0  0  0  0  0  0  0  0  0
   -1.6417    0.6247   -1.2579 C   0  0  2  0  0  0  0  0  0  0  0  0
   -2.0069   -0.3536   -0.1094 C   0  0  2  0  0  0  0  0  0  0  0  0
   -1.8038    0.7434    0.8491 O   0  0  0  0  0  0  0  0  0  0  0  0
   -0.7624    1.1664   -0.0929 C   0  0  1  0  0  0  0  0  0  0  0  0
    0.2353    0.0169    0.1087 C   0  0  0  0  0  0  0  0  0  0  0  0
    1.4254    0.0389    0.2537 O   0  0  0  0  0  0  0  0  0  0  0  0
   -0.7333   -1.1965    0.1107 C   0  0  1  0  0  0  0  0  0  0  0  0
   -0.6937   -1.9975    1.4113 C   0  0  0  0  0  0  0  0  0  0  0  0
   -3.2669    1.9972   -0.8601 H   0  0  0  0  0  0  0  0  0  0  0  0
   -2.3509    2.3674   -2.3347 H   0  0  0  0  0  0  0  0  0  0  0  0
   -3.4877    1.0133   -2.3198 H   0  0  0  0  0  0  0  0  0  0  0  0
   -1.1035    0.1877   -2.1065 H   0  0  0  0  0  0  0  0  0  0  0  0
   -2.9820   -0.8356   -0.0269 H   0  0  0  0  0  0  0  0  0  0  0  0
   -0.4261    2.1965    0.0102 H   0  0  0  0  0  0  0  0  0  0  0  0
   -0.5067   -1.8432   -0.7453 H   0  0  0  0  0  0  0  0  0  0  0  0
   -1.3550   -2.8682    1.3591 H   0  0  0  0  0  0  0  0  0  0  0  0
    0.3230   -2.3500    1.6063 H   0  0  0  0  0  0  0  0  0  0  0  0
   -1.0065   -1.3719    2.2516 H   0  0  0  0  0  0  0  0  0  0  0  0
  1  2  1  0  0  0  0
  1 10  1  0  0  0  0
  2 13  1  6  0  0  0
  2  3  1  0  0  0  0
  2  5  1  0  0  0  0
  3 14  1  6  0  0  0
  3  8  1  0  0  0  0
  3  4  1  0  0  0  0
  5 15  1  6  0  0  0
  5  6  1  0  0  0  0
  5  4  1  0  0  0  0
  6  8  1  0  0  0  0
  6  7  2  0  0  0  0
  8 16  1  6  0  0  0
  8  9  1  0  0  0  0
  9 18  1  0  0  0  0
  9 19  1  0  0  0  0
 11  1  1  0  0  0  0
 12  1  1  0  0  0  0
 17  9  1  0  0  0  0
M TOR 0 0 1 2 3
M TOR 1 0 1 2 7
M TOR 2 0 1 2 13
M TOR 3 0 1 4 3
M TOR 4 0 1 4 5
M TOR 5 0 1 4 14
M TOR 6 1 2 3 4
M TOR 7 1 2 7 5
M TOR 8 1 2 7 8
M TOR 9 1 2 7 15
M TOR 10 1 4 5 6
M TOR 11 1 4 5 7
M TOR 12 2 1 0 9
M TOR 13 2 1 0 10
M TOR 14 2 1 0 11
M TOR 15 2 1 4 5
M TOR 16 2 1 4 14
M TOR 17 2 3 4 5
M TOR 18 2 3 4 14
M TOR 19 2 7 5 4
M TOR 20 2 7 5 6
M TOR 21 2 7 8 16
M TOR 22 2 7 8 17
M TOR 23 2 7 8 18
M TOR 24 3 2 1 12
M TOR 25 3 2 7 5
M TOR 26 3 2 7 8
M TOR 27 3 2 7 15
M TOR 28 3 4 1 12
M TOR 29 3 4 5 6
M TOR 30 3 4 5 7
M TOR 31 4 1 0 9
M TOR 32 4 1 0 10
M TOR 33 4 1 0 11
M TOR 34 4 1 2 7
M TOR 35 4 1 2 13
M TOR 36 4 3 2 7
M TOR 37 4 3 2 13
M TOR 38 4 5 7 8
M TOR 39 4 5 7 15
M TOR 40 5 4 1 12
M TOR 41 5 7 2 13
M TOR 42 5 7 8 16
M TOR 43 5 7 8 17
M TOR 44 5 7 8 18
M TOR 45 6 5 4 14
M TOR 46 6 5 7 8
M TOR 47 6 5 7 15
M TOR 48 7 2 1 12
M TOR 49 7 5 4 14
M TOR 50 8 7 2 13
M  END
$$$$
