
     RDKit          3D

 19 21  0  0  0  0  0  0  0  0999 V2000
    0.8800    1.6592    1.6710 C   0  0  0  0  0  0  0  0  0  0  0  0
    1.9424    0.5548    1.5598 C   0  0  0  0  0  0  0  0  0  0  0  0
    2.2454    0.0645    0.1477 C   0  0  0  0  0  0  0  0  0  0  0  0
    2.9624    0.9189   -0.8808 C   0  0  0  0  0  0  0  0  0  0  0  0
    2.9537    2.3075   -0.6692 O   0  0  0  0  0  0  0  0  0  0  0  0
    1.5948    2.7236   -0.5401 C   0  0  0  0  0  0  0  0  0  0  0  0
    1.2204    2.9568    0.9279 C   0  0  0  0  0  0  0  0  0  0  0  0
    0.7858    1.7062   -1.1208 O   0  0  0  0  0  0  0  0  0  0  0  0
    1.5449    0.5233   -1.1294 C   0  0  0  0  0  0  0  0  0  0  0  0
   -0.0700    1.2758    1.2851 H   0  0  0  0  0  0  0  0  0  0  0  0
    0.7208    1.8874    2.7306 H   0  0  0  0  0  0  0  0  0  0  0  0
    2.8780    0.8941    2.0239 H   0  0  0  0  0  0  0  0  0  0  0  0
    1.6018   -0.3027    2.1507 H   0  0  0  0  0  0  0  0  0  0  0  0
    2.5372   -0.9827    0.0924 H   0  0  0  0  0  0  0  0  0  0  0  0
    3.8320    0.5855   -1.4336 H   0  0  0  0  0  0  0  0  0  0  0  0
    1.4686    3.6403   -1.1281 H   0  0  0  0  0  0  0  0  0  0  0  0
    2.0598    3.4816    1.3982 H   0  0  0  0  0  0  0  0  0  0  0  0
    0.3573    3.6319    0.9654 H   0  0  0  0  0  0  0  0  0  0  0  0
    1.2019   -0.1783   -1.8794 H   0  0  0  0  0  0  0  0  0  0  0  0
  1  2  1  0
  2  3  1  0
  3  4  1  0
  4  5  1  0
  5  6  1  0
  6  7  1  0
  6  8  1  0
  8  9  1  0
  7  1  1  0
  9  3  1  0
  9  4  1  0
  1 10  1  0
  1 11  1  0
  2 12  1  0
  2 13  1  0
  3 14  1  0
  4 15  1  0
  6 16  1  0
  7 17  1  0
  7 18  1  0
  9 19  1  0
M  END
$$$$
