gdb 1648	2.6279688	1.4314897	1.082144	3.2736	75.65	-0.23999	-0.02257	0.21742	1158.2725	0.154975	-422.546161	-422.537216	-422.536272	-422.580076	33.13
 OpenBabel02181911403D

 19 20  0  0  1  0  0  0  0  0999 V2000
    0.3164   -2.9456   -1.0835 C   0  0  0  0  0  0  0  0  0  0  0  0
   -0.9357   -2.0963   -1.0988 C   0  0  2  0  0  0  0  0  0  0  0  0
   -2.1641   -2.5969   -1.7326 C   0  0  0  0  0  0  0  0  0  0  0  0
   -1.3453   -1.6252   -2.3926 O   0  0  0  0  0  0  0  0  0  0  0  0
   -1.0271   -1.0620    0.0064 C   0  0  2  0  0  0  0  0  0  0  0  0
   -2.1206    0.0492   -0.0502 C   0  0  0  0  0  0  0  0  0  0  0  0
   -1.0462    1.1471    0.2131 C   0  0  0  0  0  0  0  0  0  0  0  0
    0.0282    0.0725    0.0025 C   0  0  0  0  0  0  0  0  0  0  0  0
    1.2114    0.0979   -0.1759 O   0  0  0  0  0  0  0  0  0  0  0  0
    0.3579   -3.5528   -0.1724 H   0  0  0  0  0  0  0  0  0  0  0  0
    0.3343   -3.6129   -1.9486 H   0  0  0  0  0  0  0  0  0  0  0  0
    1.2048   -2.3090   -1.1044 H   0  0  0  0  0  0  0  0  0  0  0  0
   -2.1675   -3.5874   -2.1861 H   0  0  0  0  0  0  0  0  0  0  0  0
   -3.1370   -2.2374   -1.3998 H   0  0  0  0  0  0  0  0  0  0  0  0
   -1.0026   -1.5705    0.9790 H   0  0  0  0  0  0  0  0  0  0  0  0
   -2.5465    0.1285   -1.0514 H   0  0  0  0  0  0  0  0  0  0  0  0
   -2.9201   -0.0270    0.6870 H   0  0  0  0  0  0  0  0  0  0  0  0
   -1.0057    1.9975   -0.4720 H   0  0  0  0  0  0  0  0  0  0  0  0
   -1.0398    1.5282    1.2397 H   0  0  0  0  0  0  0  0  0  0  0  0
  1 10  1  0  0  0  0
  2  1  1  1  0  0  0
  2  5  1  0  0  0  0
  3 14  1  0  0  0  0
  3  2  1  0  0  0  0
  4  3  1  0  0  0  0
  4  2  1  0  0  0  0
  5 15  1  1  0  0  0
  6  5  1  0  0  0  0
  6  7  1  0  0  0  0
  6 17  1  0  0  0  0
  7 19  1  0  0  0  0
  8  5  1  0  0  0  0
  8  7  1  0  0  0  0
  9  8  2  0  0  0  0
 11  1  1  0  0  0  0
 12  1  1  0  0  0  0
 13  3  1  0  0  0  0
 16  6  1  0  0  0  0
 18  7  1  0  0  0  0
M TOR 0 0 1 2 3
M TOR 1 0 1 2 12
M TOR 2 0 1 2 13
M TOR 3 0 1 4 5
M TOR 4 0 1 4 7
M TOR 5 0 1 4 14
M TOR 6 1 3 2 12
M TOR 7 1 3 2 13
M TOR 8 1 4 5 6
M TOR 9 1 4 5 15
M TOR 10 1 4 5 16
M TOR 11 1 4 7 6
M TOR 12 1 4 7 8
M TOR 13 2 1 0 9
M TOR 14 2 1 0 10
M TOR 15 2 1 0 11
M TOR 16 2 1 4 5
M TOR 17 2 1 4 7
M TOR 18 2 1 4 14
M TOR 19 2 3 1 4
M TOR 20 3 1 0 9
M TOR 21 3 1 0 10
M TOR 22 3 1 0 11
M TOR 23 3 1 4 5
M TOR 24 3 1 4 7
M TOR 25 3 1 4 14
M TOR 26 4 1 0 9
M TOR 27 4 1 0 10
M TOR 28 4 1 0 11
M TOR 29 4 1 2 12
M TOR 30 4 1 2 13
M TOR 31 4 5 6 7
M TOR 32 4 5 6 17
M TOR 33 4 5 6 18
M TOR 34 4 7 6 17
M TOR 35 4 7 6 18
M TOR 36 5 4 7 8
M TOR 37 5 6 7 8
M TOR 38 6 5 4 14
M TOR 39 6 7 4 14
M TOR 40 7 4 5 15
M TOR 41 7 4 5 16
M TOR 42 7 6 5 15
M TOR 43 7 6 5 16
M TOR 44 8 7 4 14
M TOR 45 8 7 6 17
M TOR 46 8 7 6 18
M  END
$$$$
