
     RDKit          3D

 19 21  0  0  0  0  0  0  0  0999 V2000
    0.1474    0.2606    0.4321 O   0  0  0  0  0  0  0  0  0  0  0  0
   -1.0813    0.9188    0.3250 C   0  0  0  0  0  0  0  0  0  0  0  0
   -1.3448    2.0401    1.3363 C   0  0  0  0  0  0  0  0  0  0  0  0
   -2.7694    2.1308    1.3956 O   0  0  0  0  0  0  0  0  0  0  0  0
   -3.2539    1.3816    0.2695 C   0  0  0  0  0  0  0  0  0  0  0  0
   -2.7259    2.0473   -1.0356 C   0  0  0  0  0  0  0  0  0  0  0  0
   -1.4473    1.1994   -1.1774 C   0  0  0  0  0  0  0  0  0  0  0  0
   -2.0550   -0.2321   -1.2043 C   0  0  0  0  0  0  0  0  0  0  0  0
   -2.4112    0.0842    0.2659 C   0  0  0  0  0  0  0  0  0  0  0  0
    0.2187   -0.1067    1.3203 H   0  0  0  0  0  0  0  0  0  0  0  0
   -0.9547    1.7804    2.3305 H   0  0  0  0  0  0  0  0  0  0  0  0
   -0.8960    2.9977    1.0374 H   0  0  0  0  0  0  0  0  0  0  0  0
   -4.3348    1.2949    0.3721 H   0  0  0  0  0  0  0  0  0  0  0  0
   -3.3909    1.9159   -1.8941 H   0  0  0  0  0  0  0  0  0  0  0  0
   -2.5648    3.1170   -0.8814 H   0  0  0  0  0  0  0  0  0  0  0  0
   -0.6804    1.5191   -1.8823 H   0  0  0  0  0  0  0  0  0  0  0  0
   -2.8652   -0.4291   -1.9120 H   0  0  0  0  0  0  0  0  0  0  0  0
   -1.2905   -1.0067   -1.2717 H   0  0  0  0  0  0  0  0  0  0  0  0
   -2.6592   -0.6744    1.0089 H   0  0  0  0  0  0  0  0  0  0  0  0
  1  2  1  0
  2  3  1  0
  3  4  1  0
  4  5  1  0
  5  6  1  0
  6  7  1  0
  7  8  1  0
  8  9  1  0
  7  2  1  0
  9  2  1  0
  9  5  1  0
  1 10  1  0
  3 11  1  0
  3 12  1  0
  5 13  1  0
  6 14  1  0
  6 15  1  0
  7 16  1  0
  8 17  1  0
  8 18  1  0
  9 19  1  0
M  END
$$$$
