gdb 830	3.3408888	0.8326868	0.7297041	2.7029	79.19	-0.24428	-0.01773	0.22655	1569.6435	0.154668	-422.518864	-422.5097	-422.508755	-422.5539	33.11
 OpenBabel02181911403D

 19 20  0  0  1  0  0  0  0  0999 V2000
    0.4982   -1.2663    0.2517 O   0  0  0  0  0  0  0  0  0  0  0  0
    0.2268   -0.1293   -0.0490 C   0  0  0  0  0  0  0  0  0  0  0  0
    0.0595    0.9836    0.9039 C   0  0  2  0  0  0  0  0  0  0  0  0
   -0.9011    2.1282    0.5700 C   0  0  0  0  0  0  0  0  0  0  0  0
    0.5509    2.3826    0.4979 C   0  0  1  0  0  0  0  0  0  0  0  0
    1.1037    3.1869    1.4839 O   0  0  0  0  0  0  0  0  0  0  0  0
    2.4765    2.9677    1.6727 C   0  0  0  0  0  0  0  0  0  0  0  0
    3.2524    4.1183    2.2184 C   0  0  0  0  0  0  0  0  0  0  0  0
    3.4567    3.6826    0.7795 C   0  0  0  0  0  0  0  0  0  0  0  0
    0.0887    0.1645   -1.1184 H   0  0  0  0  0  0  0  0  0  0  0  0
    0.1698    0.7266    1.9513 H   0  0  0  0  0  0  0  0  0  0  0  0
   -1.4622    2.0666   -0.3564 H   0  0  0  0  0  0  0  0  0  0  0  0
   -1.4386    2.5500    1.4107 H   0  0  0  0  0  0  0  0  0  0  0  0
    1.0195    2.4702   -0.4820 H   0  0  0  0  0  0  0  0  0  0  0  0
    2.7196    1.9602    2.0063 H   0  0  0  0  0  0  0  0  0  0  0  0
    2.7010    5.0372    2.3805 H   0  0  0  0  0  0  0  0  0  0  0  0
    4.0305    3.9177    2.9457 H   0  0  0  0  0  0  0  0  0  0  0  0
    3.0436    4.3265    0.0110 H   0  0  0  0  0  0  0  0  0  0  0  0
    4.3769    3.1778    0.5074 H   0  0  0  0  0  0  0  0  0  0  0  0
  2  1  2  0  0  0  0
  2  3  1  0  0  0  0
  3 11  1  1  0  0  0
  4  3  1  0  0  0  0
  4 13  1  0  0  0  0
  5 14  1  6  0  0  0
  5  4  1  0  0  0  0
  5  3  1  0  0  0  0
  5  6  1  0  0  0  0
  6  7  1  0  0  0  0
  7 15  1  0  0  0  0
  7  8  1  0  0  0  0
  8 16  1  0  0  0  0
  8 17  1  0  0  0  0
  9  7  1  0  0  0  0
  9  8  1  0  0  0  0
 10  2  1  0  0  0  0
 12  4  1  0  0  0  0
 18  9  1  0  0  0  0
 19  9  1  0  0  0  0
M TOR 0 0 1 2 3
M TOR 1 0 1 2 4
M TOR 2 0 1 2 10
M TOR 3 1 2 3 4
M TOR 4 1 2 3 11
M TOR 5 1 2 3 12
M TOR 6 1 2 4 5
M TOR 7 1 2 4 13
M TOR 8 2 3 4 5
M TOR 9 2 3 4 13
M TOR 10 2 4 3 11
M TOR 11 2 4 3 12
M TOR 12 2 4 5 6
M TOR 13 3 2 1 9
M TOR 14 3 4 2 10
M TOR 15 3 4 5 6
M TOR 16 4 2 1 9
M TOR 17 4 5 6 7
M TOR 18 4 5 6 8
M TOR 19 4 5 6 14
M TOR 20 5 4 2 10
M TOR 21 5 4 3 11
M TOR 22 5 4 3 12
M TOR 23 5 6 7 8
M TOR 24 5 6 7 15
M TOR 25 5 6 7 16
M TOR 26 5 6 8 17
M TOR 27 5 6 8 18
M TOR 28 6 5 4 13
M TOR 29 6 7 8 17
M TOR 30 6 7 8 18
M TOR 31 6 8 7 15
M TOR 32 6 8 7 16
M TOR 33 7 8 6 14
M  END
$$$$
