gdb 5957	4.6562076	0.8679114	0.8138796	3.8332	77.94	-0.24092	-0.00953	0.23138999999999998	1455.2423	0.154922	-422.534025	-422.524908	-422.523964	-422.568679	33.212
 OpenBabel02181911423D

 19 20  0  0  1  0  0  0  0  0999 V2000
    2.8165   -0.1319   -1.7177 C   0  0  0  0  0  0  0  0  0  0  0  0
    1.9557    0.3016   -0.5455 C   0  0  0  0  0  0  0  0  0  0  0  0
    2.2795    1.6578   -0.2345 O   0  0  0  0  0  0  0  0  0  0  0  0
    1.5759    2.1672    0.8251 C   0  0  1  0  0  0  0  0  0  0  0  0
    1.9410    1.9223    2.2461 C   0  0  0  0  0  0  0  0  0  0  0  0
    2.0278    3.3570    1.6968 C   0  0  2  0  0  0  0  0  0  0  0  0
    0.6438    3.9214    1.5843 C   0  0  0  0  0  0  0  0  0  0  0  0
    0.1432    4.9648    1.8930 O   0  0  0  0  0  0  0  0  0  0  0  0
    0.1397    2.7222    0.7320 C   0  0  0  0  0  0  0  0  0  0  0  0
    2.5949   -1.1688   -1.9866 H   0  0  0  0  0  0  0  0  0  0  0  0
    2.6269    0.5013   -2.5889 H   0  0  0  0  0  0  0  0  0  0  0  0
    3.8776   -0.0573   -1.4638 H   0  0  0  0  0  0  0  0  0  0  0  0
    0.8870    0.2216   -0.7950 H   0  0  0  0  0  0  0  0  0  0  0  0
    2.1375   -0.3321    0.3351 H   0  0  0  0  0  0  0  0  0  0  0  0
    1.1997    1.6614    2.9964 H   0  0  0  0  0  0  0  0  0  0  0  0
    2.9207    1.4811    2.3997 H   0  0  0  0  0  0  0  0  0  0  0  0
    2.9631    3.9016    1.7237 H   0  0  0  0  0  0  0  0  0  0  0  0
   -0.6785    2.1133    1.1271 H   0  0  0  0  0  0  0  0  0  0  0  0
   -0.1100    3.0700   -0.2750 H   0  0  0  0  0  0  0  0  0  0  0  0
  1 12  1  0  0  0  0
  1  2  1  0  0  0  0
  2  3  1  0  0  0  0
  2 14  1  0  0  0  0
  4  3  1  6  0  0  0
  4  6  1  0  0  0  0
  4  5  1  0  0  0  0
  5 16  1  0  0  0  0
  5 15  1  0  0  0  0
  6 17  1  6  0  0  0
  6  5  1  0  0  0  0
  7  6  1  0  0  0  0
  7  8  2  0  0  0  0
  9  4  1  0  0  0  0
  9 18  1  0  0  0  0
  9  7  1  0  0  0  0
 10  1  1  0  0  0  0
 11  1  1  0  0  0  0
 13  2  1  0  0  0  0
 19  9  1  0  0  0  0
M TOR 0 0 1 2 3
M TOR 1 1 2 3 4
M TOR 2 1 2 3 5
M TOR 3 1 2 3 8
M TOR 4 2 1 0 9
M TOR 5 2 1 0 10
M TOR 6 2 1 0 11
M TOR 7 2 3 4 5
M TOR 8 2 3 4 14
M TOR 9 2 3 4 15
M TOR 10 2 3 5 6
M TOR 11 2 3 5 16
M TOR 12 2 3 8 6
M TOR 13 2 3 8 17
M TOR 14 2 3 8 18
M TOR 15 3 2 1 12
M TOR 16 3 2 1 13
M TOR 17 3 4 5 6
M TOR 18 3 4 5 16
M TOR 19 3 5 4 14
M TOR 20 3 5 4 15
M TOR 21 3 5 6 7
M TOR 22 3 5 6 8
M TOR 23 3 8 6 7
M TOR 24 4 3 8 6
M TOR 25 4 3 8 17
M TOR 26 4 3 8 18
M TOR 27 4 5 3 8
M TOR 28 4 5 6 7
M TOR 29 4 5 6 8
M TOR 30 5 3 8 17
M TOR 31 5 3 8 18
M TOR 32 5 6 8 17
M TOR 33 5 6 8 18
M TOR 34 6 5 4 14
M TOR 35 6 5 4 15
M TOR 36 7 6 5 16
M TOR 37 7 6 8 17
M TOR 38 7 6 8 18
M TOR 39 8 3 4 14
M TOR 40 8 3 4 15
M TOR 41 8 3 5 16
M TOR 42 8 6 5 16
M  END
$$$$
