gdb 2267	2.6581564	1.7059322	1.3815525	4.4641	74.25	-0.256	0.0198	0.2758	1006.0151	0.158994	-422.628929	-422.621352	-422.620408	-422.660537	30.219
 OpenBabel02181911413D

 19 20  0  0  1  0  0  0  0  0999 V2000
   -3.1180   -1.5538    0.9291 C   0  0  0  0  0  0  0  0  0  0  0  0
   -2.2478   -0.4991    0.2899 C   0  0  1  0  0  0  0  0  0  0  0  0
   -2.6711    0.0281   -1.1004 C   0  0  0  0  0  0  0  0  0  0  0  0
   -1.7505    1.2727   -1.2827 C   0  0  0  0  0  0  0  0  0  0  0  0
   -0.9069    1.2673    0.0284 C   0  0  1  0  0  0  0  0  0  0  0  0
   -1.9467    0.7992    1.0616 C   0  0  0  0  0  0  0  0  0  0  0  0
   -0.0456    0.0116   -0.0554 C   0  0  0  0  0  0  0  0  0  0  0  0
    1.1263   -0.1181   -0.2558 O   0  0  0  0  0  0  0  0  0  0  0  0
   -0.8988   -1.0460    0.1097 O   0  0  0  0  0  0  0  0  0  0  0  0
   -2.6876   -1.8871    1.8773 H   0  0  0  0  0  0  0  0  0  0  0  0
   -4.1169   -1.1508    1.1221 H   0  0  0  0  0  0  0  0  0  0  0  0
   -3.2188   -2.4245    0.2746 H   0  0  0  0  0  0  0  0  0  0  0  0
   -2.5100   -0.7386   -1.8614 H   0  0  0  0  0  0  0  0  0  0  0  0
   -3.7314    0.2956   -1.1084 H   0  0  0  0  0  0  0  0  0  0  0  0
   -1.1234    1.2166   -2.1750 H   0  0  0  0  0  0  0  0  0  0  0  0
   -2.3309    2.1973   -1.3425 H   0  0  0  0  0  0  0  0  0  0  0  0
   -0.3320    2.1698    0.2219 H   0  0  0  0  0  0  0  0  0  0  0  0
   -1.5324    0.6089    2.0551 H   0  0  0  0  0  0  0  0  0  0  0  0
   -2.8147    1.4592    1.1431 H   0  0  0  0  0  0  0  0  0  0  0  0
  1 11  1  0  0  0  0
  1 10  1  0  0  0  0
  2  1  1  1  0  0  0
  2  6  1  0  0  0  0
  3  2  1  0  0  0  0
  4  3  1  0  0  0  0
  4  5  1  0  0  0  0
  5 17  1  1  0  0  0
  5  6  1  0  0  0  0
  6 19  1  0  0  0  0
  6 18  1  0  0  0  0
  7  5  1  0  0  0  0
  7  9  1  0  0  0  0
  8  7  2  0  0  0  0
  9  2  1  0  0  0  0
 12  1  1  0  0  0  0
 13  3  1  0  0  0  0
 14  3  1  0  0  0  0
 15  4  1  0  0  0  0
 16  4  1  0  0  0  0
M TOR 0 0 1 2 3
M TOR 1 0 1 2 12
M TOR 2 0 1 2 13
M TOR 3 0 1 5 4
M TOR 4 0 1 5 17
M TOR 5 0 1 5 18
M TOR 6 0 1 8 6
M TOR 7 1 2 3 4
M TOR 8 1 2 3 14
M TOR 9 1 2 3 15
M TOR 10 1 5 4 3
M TOR 11 1 5 4 6
M TOR 12 1 5 4 16
M TOR 13 1 8 6 4
M TOR 14 1 8 6 7
M TOR 15 2 1 0 9
M TOR 16 2 1 0 10
M TOR 17 2 1 0 11
M TOR 18 2 1 5 4
M TOR 19 2 1 5 17
M TOR 20 2 1 5 18
M TOR 21 2 1 8 6
M TOR 22 2 3 4 5
M TOR 23 2 3 4 6
M TOR 24 2 3 4 16
M TOR 25 3 2 1 5
M TOR 26 3 2 1 8
M TOR 27 3 4 5 17
M TOR 28 3 4 5 18
M TOR 29 3 4 6 7
M TOR 30 3 4 6 8
M TOR 31 4 3 2 12
M TOR 32 4 3 2 13
M TOR 33 4 5 1 8
M TOR 34 5 1 0 9
M TOR 35 5 1 0 10
M TOR 36 5 1 0 11
M TOR 37 5 1 2 12
M TOR 38 5 1 2 13
M TOR 39 5 1 8 6
M TOR 40 5 4 3 14
M TOR 41 5 4 3 15
M TOR 42 5 4 6 7
M TOR 43 5 4 6 8
M TOR 44 6 4 3 14
M TOR 45 6 4 3 15
M TOR 46 6 4 5 17
M TOR 47 6 4 5 18
M TOR 48 7 6 4 16
M TOR 49 8 1 0 9
M TOR 50 8 1 0 10
M TOR 51 8 1 0 11
M TOR 52 8 1 2 12
M TOR 53 8 1 2 13
M TOR 54 8 1 5 17
M TOR 55 8 1 5 18
M TOR 56 8 6 4 16
M  END
$$$$
