gdb 52	3.0289969	1.1151942	0.8463633	1.0817	79.99	-0.19678	0.03269	0.22947	1397.832	0.155698	-422.575876	-422.566336	-422.565392	-422.611418	33.645
 OpenBabel02181911403D

 19 19  0  0  0  0  0  0  0  0999 V2000
    0.2014   -0.6258   -0.4489 C   0  0  0  0  0  0  0  0  0  0  0  0
    1.3741    0.2710   -0.1039 C   0  0  0  0  0  0  0  0  0  0  0  0
    1.2535    0.6333    1.2851 O   0  0  0  0  0  0  0  0  0  0  0  0
    2.1871    1.4675    1.7593 C   0  0  0  0  0  0  0  0  0  0  0  0
    2.0671    2.6218    2.4704 C   0  0  0  0  0  0  0  0  0  0  0  0
    0.7949    3.3151    2.8429 C   0  0  0  0  0  0  0  0  0  0  0  0
    3.4225    3.0058    2.7769 C   0  0  0  0  0  0  0  0  0  0  0  0
    4.2346    2.0729    2.2245 C   0  0  0  0  0  0  0  0  0  0  0  0
    3.4925    1.1099    1.5972 O   0  0  0  0  0  0  0  0  0  0  0  0
    0.2105   -1.5260    0.1719 H   0  0  0  0  0  0  0  0  0  0  0  0
   -0.7462   -0.1048   -0.2865 H   0  0  0  0  0  0  0  0  0  0  0  0
    0.2570   -0.9276   -1.4990 H   0  0  0  0  0  0  0  0  0  0  0  0
    2.3284   -0.2429   -0.2629 H   0  0  0  0  0  0  0  0  0  0  0  0
    1.3737    1.1857   -0.7116 H   0  0  0  0  0  0  0  0  0  0  0  0
    0.6548    3.3528    3.9297 H   0  0  0  0  0  0  0  0  0  0  0  0
    0.7759    4.3493    2.4801 H   0  0  0  0  0  0  0  0  0  0  0  0
   -0.0632    2.7904    2.4150 H   0  0  0  0  0  0  0  0  0  0  0  0
    3.7354    3.8763    3.3336 H   0  0  0  0  0  0  0  0  0  0  0  0
    5.3025    1.9446    2.1725 H   0  0  0  0  0  0  0  0  0  0  0  0
  1 11  1  0  0  0  0
  1  2  1  0  0  0  0
  1 10  1  0  0  0  0
  2  3  1  0  0  0  0
  3  4  1  0  0  0  0
  4  5  2  0  0  0  0
  5  7  1  0  0  0  0
  5  6  1  0  0  0  0
  6 15  1  0  0  0  0
  7 18  1  0  0  0  0
  8  7  2  0  0  0  0
  9  4  1  0  0  0  0
  9  8  1  0  0  0  0
 12  1  1  0  0  0  0
 13  2  1  0  0  0  0
 14  2  1  0  0  0  0
 16  6  1  0  0  0  0
 17  6  1  0  0  0  0
 19  8  1  0  0  0  0
M TOR 0 0 1 2 3
M TOR 1 1 2 3 4
M TOR 2 1 2 3 8
M TOR 3 2 1 0 9
M TOR 4 2 1 0 10
M TOR 5 2 1 0 11
M TOR 6 2 3 4 5
M TOR 7 2 3 4 6
M TOR 8 2 3 8 7
M TOR 9 3 2 1 12
M TOR 10 3 2 1 13
M TOR 11 3 4 5 14
M TOR 12 3 4 5 15
M TOR 13 3 4 5 16
M TOR 14 3 4 6 7
M TOR 15 3 4 6 17
M TOR 16 3 8 7 6
M TOR 17 3 8 7 18
M TOR 18 4 3 8 7
M TOR 19 4 6 7 8
M TOR 20 4 6 7 18
M TOR 21 5 4 3 8
M TOR 22 5 4 6 7
M TOR 23 5 4 6 17
M TOR 24 6 4 3 8
M TOR 25 6 4 5 14
M TOR 26 6 4 5 15
M TOR 27 6 4 5 16
M TOR 28 8 7 6 17
M  END
$$$$
