gdb 5494	2.5262647	1.435543	1.1588383	2.6753	75.78	-0.22859	0.01258	0.24117	1118.6892	0.157328	-422.520772	-422.512328	-422.511384	-422.553721	32.631
 OpenBabel02181911423D

 19 20  0  0  1  0  0  0  0  0999 V2000
    1.8565    0.3324    0.0584 O   0  0  0  0  0  0  0  0  0  0  0  0
    0.4308    0.3785    0.0567 C   0  0  0  0  0  0  0  0  0  0  0  0
   -0.0905    1.0266   -1.2225 C   0  0  1  0  0  0  0  0  0  0  0  0
   -0.1087    0.2219   -2.5836 C   0  0  2  0  0  0  0  0  0  0  0  0
   -0.6389    1.3079   -3.5197 C   0  0  0  0  0  0  0  0  0  0  0  0
   -1.6391    1.8613   -2.8194 C   0  0  0  0  0  0  0  0  0  0  0  0
   -1.6396    1.0701   -1.5146 C   0  0  1  0  0  0  0  0  0  0  0  0
   -1.4901   -0.3813   -2.1474 C   0  0  2  0  0  0  0  0  0  0  0  0
   -1.3828   -1.4911   -1.2914 O   0  0  0  0  0  0  0  0  0  0  0  0
    2.1212   -0.3356   -0.5815 H   0  0  0  0  0  0  0  0  0  0  0  0
   -0.0015   -0.6089    0.2306 H   0  0  0  0  0  0  0  0  0  0  0  0
    0.1591    1.0201    0.9040 H   0  0  0  0  0  0  0  0  0  0  0  0
    0.3964    2.0012   -1.3176 H   0  0  0  0  0  0  0  0  0  0  0  0
    0.7128   -0.4126   -2.9182 H   0  0  0  0  0  0  0  0  0  0  0  0
   -0.2839    1.5249   -4.5171 H   0  0  0  0  0  0  0  0  0  0  0  0
   -2.3258    2.6492   -3.0951 H   0  0  0  0  0  0  0  0  0  0  0  0
   -2.3803    1.3023   -0.7483 H   0  0  0  0  0  0  0  0  0  0  0  0
   -2.1858   -0.5880   -2.9699 H   0  0  0  0  0  0  0  0  0  0  0  0
   -2.2713   -1.7743   -1.0539 H   0  0  0  0  0  0  0  0  0  0  0  0
  2  1  1  0  0  0  0
  2 11  1  0  0  0  0
  2 12  1  0  0  0  0
  3 13  1  6  0  0  0
  3  2  1  0  0  0  0
  4 14  1  6  0  0  0
  4  8  1  0  0  0  0
  4  3  1  0  0  0  0
  5  6  2  0  0  0  0
  5  4  1  0  0  0  0
  6  7  1  0  0  0  0
  7  3  1  0  0  0  0
  7 17  1  1  0  0  0
  8 18  1  6  0  0  0
  8  7  1  0  0  0  0
  8  9  1  0  0  0  0
  9 19  1  0  0  0  0
 10  1  1  0  0  0  0
 15  5  1  0  0  0  0
 16  6  1  0  0  0  0
M TOR 0 0 1 2 3
M TOR 1 0 1 2 6
M TOR 2 0 1 2 12
M TOR 3 1 2 3 4
M TOR 4 1 2 3 7
M TOR 5 1 2 3 13
M TOR 6 1 2 6 5
M TOR 7 1 2 6 7
M TOR 8 1 2 6 16
M TOR 9 2 1 0 9
M TOR 10 2 3 4 5
M TOR 11 2 3 4 14
M TOR 12 2 3 7 6
M TOR 13 2 3 7 8
M TOR 14 2 3 7 17
M TOR 15 2 6 5 4
M TOR 16 2 6 5 15
M TOR 17 2 6 7 8
M TOR 18 2 6 7 17
M TOR 19 3 2 1 10
M TOR 20 3 2 1 11
M TOR 21 3 2 6 5
M TOR 22 3 2 6 16
M TOR 23 3 4 5 6
M TOR 24 3 4 5 15
M TOR 25 3 7 6 5
M TOR 26 3 7 6 16
M TOR 27 3 7 8 18
M TOR 28 4 3 2 6
M TOR 29 4 3 2 12
M TOR 30 4 3 7 6
M TOR 31 4 3 7 8
M TOR 32 4 3 7 17
M TOR 33 4 5 6 7
M TOR 34 4 5 6 16
M TOR 35 5 4 3 7
M TOR 36 5 4 3 13
M TOR 37 5 6 2 12
M TOR 38 5 6 7 8
M TOR 39 5 6 7 17
M TOR 40 6 2 1 10
M TOR 41 6 2 1 11
M TOR 42 6 2 3 13
M TOR 43 6 5 4 14
M TOR 44 6 7 3 13
M TOR 45 6 7 8 18
M TOR 46 7 3 2 12
M TOR 47 7 3 4 14
M TOR 48 7 6 2 12
M TOR 49 7 6 5 15
M TOR 50 8 7 3 13
M TOR 51 8 7 6 16
M  END
$$$$
