
     RDKit          3D

 19 20  0  0  0  0  0  0  0  0999 V2000
   -0.0085    1.5810    0.0512 C   0  0  0  0  0  0  0  0  0  0  0  0
    0.0220    0.0506    0.0423 C   0  0  0  0  0  0  0  0  0  0  0  0
   -1.3890   -0.5744    0.1573 C   0  0  0  0  0  0  0  0  0  0  0  0
   -2.6241    0.2254    0.1314 O   0  0  0  0  0  0  0  0  0  0  0  0
   -2.9955   -0.2625    1.4597 C   0  0  0  0  0  0  0  0  0  0  0  0
   -1.5835   -0.7602    1.6237 C   0  0  0  0  0  0  0  0  0  0  0  0
   -0.4597   -0.6720    2.3202 C   0  0  0  0  0  0  0  0  0  0  0  0
    0.7087   -0.5437    1.3300 C   0  0  0  0  0  0  0  0  0  0  0  0
    1.7308    0.3294    1.7826 O   0  0  0  0  0  0  0  0  0  0  0  0
    1.0066    1.9813    0.0512 H   0  0  0  0  0  0  0  0  0  0  0  0
   -0.5381    1.9492   -0.8314 H   0  0  0  0  0  0  0  0  0  0  0  0
   -0.5256    1.9640    0.9345 H   0  0  0  0  0  0  0  0  0  0  0  0
    0.5433   -0.2945   -0.8567 H   0  0  0  0  0  0  0  0  0  0  0  0
   -1.5187   -1.4479   -0.4951 H   0  0  0  0  0  0  0  0  0  0  0  0
   -3.3236    0.5381    2.1312 H   0  0  0  0  0  0  0  0  0  0  0  0
   -3.7781   -1.0292    1.3892 H   0  0  0  0  0  0  0  0  0  0  0  0
   -0.3269   -0.5770    3.3916 H   0  0  0  0  0  0  0  0  0  0  0  0
    1.1459   -1.5266    1.0907 H   0  0  0  0  0  0  0  0  0  0  0  0
    2.2845   -0.1520    2.4041 H   0  0  0  0  0  0  0  0  0  0  0  0
  1  2  1  0
  2  3  1  0
  3  4  1  0
  4  5  1  0
  5  6  1  0
  6  7  2  0
  7  8  1  0
  8  9  1  0
  8  2  1  0
  6  3  1  0
  1 10  1  0
  1 11  1  0
  1 12  1  0
  2 13  1  0
  3 14  1  0
  5 15  1  0
  5 16  1  0
  7 17  1  0
  8 18  1  0
  9 19  1  0
M  END
$$$$
