
     RDKit          3D

 19 21  0  0  0  0  0  0  0  0999 V2000
    0.7327    0.8724    0.2620 C   0  0  0  0  0  0  0  0  0  0  0  0
    0.9895   -0.6177    0.2344 C   0  0  0  0  0  0  0  0  0  0  0  0
    2.3034   -1.1966    0.7737 C   0  0  0  0  0  0  0  0  0  0  0  0
    3.3159   -0.3389    1.1968 O   0  0  0  0  0  0  0  0  0  0  0  0
    2.0080   -1.2131   -0.6921 C   0  0  0  0  0  0  0  0  0  0  0  0
    2.8619   -0.3735   -1.5079 O   0  0  0  0  0  0  0  0  0  0  0  0
    2.9760   -1.4452   -2.4612 C   0  0  0  0  0  0  0  0  0  0  0  0
    1.6451   -1.7676   -3.0602 C   0  0  0  0  0  0  0  0  0  0  0  0
    2.0196   -2.3320   -1.6998 C   0  0  0  0  0  0  0  0  0  0  0  0
    0.2680    1.1648    1.2091 H   0  0  0  0  0  0  0  0  0  0  0  0
    1.6654    1.4303    0.1626 H   0  0  0  0  0  0  0  0  0  0  0  0
    0.0661    1.1755   -0.5517 H   0  0  0  0  0  0  0  0  0  0  0  0
    0.1187   -1.2470    0.4081 H   0  0  0  0  0  0  0  0  0  0  0  0
    2.2600   -2.1252    1.3393 H   0  0  0  0  0  0  0  0  0  0  0  0
    3.8042   -0.0859    0.4001 H   0  0  0  0  0  0  0  0  0  0  0  0
    3.9463   -1.6156   -2.9105 H   0  0  0  0  0  0  0  0  0  0  0  0
    0.8938   -0.9884   -3.1472 H   0  0  0  0  0  0  0  0  0  0  0  0
    1.6629   -2.4899   -3.8707 H   0  0  0  0  0  0  0  0  0  0  0  0
    2.0594   -3.3889   -1.4755 H   0  0  0  0  0  0  0  0  0  0  0  0
  1  2  1  0
  2  3  1  0
  3  4  1  0
  3  5  1  0
  5  6  1  0
  6  7  1  0
  7  8  1  0
  8  9  1  0
  5  2  1  0
  9  5  1  0
  9  7  1  0
  1 10  1  0
  1 11  1  0
  1 12  1  0
  2 13  1  0
  3 14  1  0
  4 15  1  0
  7 16  1  0
  8 17  1  0
  8 18  1  0
  9 19  1  0
M  END
$$$$
