
     RDKit          3D

 19 19  0  0  0  0  0  0  0  0999 V2000
    2.4035    1.5249   -2.2638 C   0  0  0  0  0  0  0  0  0  0  0  0
    1.2307    0.5909   -2.0836 C   0  0  0  0  0  0  0  0  0  0  0  0
   -0.1688    1.0893   -2.0767 C   0  0  0  0  0  0  0  0  0  0  0  0
    0.4497    0.6095   -0.7651 C   0  0  0  0  0  0  0  0  0  0  0  0
   -0.0082   -0.6876   -0.2337 C   0  0  0  0  0  0  0  0  0  0  0  0
   -0.3800   -1.6184   -0.9223 O   0  0  0  0  0  0  0  0  0  0  0  0
    0.0054   -0.8470    1.3082 C   0  0  0  0  0  0  0  0  0  0  0  0
   -0.4581   -2.1832    1.8326 C   0  0  0  0  0  0  0  0  0  0  0  0
    0.3715    0.0664    2.0112 O   0  0  0  0  0  0  0  0  0  0  0  0
    3.3105    1.1224   -1.8011 H   0  0  0  0  0  0  0  0  0  0  0  0
    2.6118    1.6826   -3.3279 H   0  0  0  0  0  0  0  0  0  0  0  0
    2.2040    2.5037   -1.8156 H   0  0  0  0  0  0  0  0  0  0  0  0
    1.3570   -0.4109   -2.4856 H   0  0  0  0  0  0  0  0  0  0  0  0
   -0.3436    2.1565   -2.1624 H   0  0  0  0  0  0  0  0  0  0  0  0
   -0.9409    0.4506   -2.4912 H   0  0  0  0  0  0  0  0  0  0  0  0
    0.7257    1.3489   -0.0254 H   0  0  0  0  0  0  0  0  0  0  0  0
   -0.4147   -2.1870    2.9217 H   0  0  0  0  0  0  0  0  0  0  0  0
   -1.4764   -2.3877    1.4875 H   0  0  0  0  0  0  0  0  0  0  0  0
    0.1659   -2.9827    1.4209 H   0  0  0  0  0  0  0  0  0  0  0  0
  1  2  1  0
  2  3  1  0
  3  4  1  0
  4  5  1  0
  5  6  2  0
  5  7  1  0
  7  8  1  0
  7  9  2  0
  4  2  1  0
  1 10  1  0
  1 11  1  0
  1 12  1  0
  2 13  1  0
  3 14  1  0
  3 15  1  0
  4 16  1  0
  8 17  1  0
  8 18  1  0
  8 19  1  0
M  END
$$$$
