gdb 1908	2.6279998	1.5363027	1.1787906	2.1929	76.36	-0.23618	-0.0146	0.22158	1096.784	0.156926	-422.571103	-422.562777	-422.561833	-422.603827	32.024
 OpenBabel02181911403D

 19 20  0  0  1  0  0  0  0  0999 V2000
   -2.7803   -2.2372    1.3904 C   0  0  0  0  0  0  0  0  0  0  0  0
   -2.2698   -1.2070    0.4133 C   0  0  2  0  0  0  0  0  0  0  0  0
   -1.9737   -1.5516   -1.0086 C   0  0  0  0  0  0  0  0  0  0  0  0
   -0.8173   -1.2414   -0.0467 C   0  0  1  0  0  0  0  0  0  0  0  0
   -0.0421    0.0290   -0.1451 C   0  0  0  0  0  0  0  0  0  0  0  0
    1.1654    0.0364   -0.2435 O   0  0  0  0  0  0  0  0  0  0  0  0
   -0.8641    1.3030   -0.0100 C   0  0  0  0  0  0  0  0  0  0  0  0
   -1.9719    1.0818    1.0282 C   0  0  0  0  0  0  0  0  0  0  0  0
   -2.8566    0.0592    0.6003 O   0  0  0  0  0  0  0  0  0  0  0  0
   -2.5240   -1.9594    2.4180 H   0  0  0  0  0  0  0  0  0  0  0  0
   -3.8699   -2.3134    1.3202 H   0  0  0  0  0  0  0  0  0  0  0  0
   -2.3511   -3.2216    1.1835 H   0  0  0  0  0  0  0  0  0  0  0  0
   -2.0550   -2.5807   -1.3400 H   0  0  0  0  0  0  0  0  0  0  0  0
   -2.2260   -0.8064   -1.7538 H   0  0  0  0  0  0  0  0  0  0  0  0
   -0.2103   -2.0911    0.2467 H   0  0  0  0  0  0  0  0  0  0  0  0
   -0.1922    2.1202    0.2653 H   0  0  0  0  0  0  0  0  0  0  0  0
   -1.3314    1.5532   -0.9704 H   0  0  0  0  0  0  0  0  0  0  0  0
   -1.5317    0.8370    2.0073 H   0  0  0  0  0  0  0  0  0  0  0  0
   -2.5852    1.9785    1.1503 H   0  0  0  0  0  0  0  0  0  0  0  0
  1 10  1  0  0  0  0
  2  9  1  0  0  0  0
  2  1  1  1  0  0  0
  3  4  1  0  0  0  0
  3  2  1  0  0  0  0
  4 15  1  1  0  0  0
  4  2  1  0  0  0  0
  5  4  1  0  0  0  0
  5  7  1  0  0  0  0
  6  5  2  0  0  0  0
  7 16  1  0  0  0  0
  7  8  1  0  0  0  0
  8 19  1  0  0  0  0
  8 18  1  0  0  0  0
  9  8  1  0  0  0  0
 11  1  1  0  0  0  0
 12  1  1  0  0  0  0
 13  3  1  0  0  0  0
 14  3  1  0  0  0  0
 17  7  1  0  0  0  0
M TOR 0 0 1 2 3
M TOR 1 0 1 2 12
M TOR 2 0 1 2 13
M TOR 3 0 1 3 4
M TOR 4 0 1 3 14
M TOR 5 0 1 8 7
M TOR 6 1 2 3 4
M TOR 7 1 2 3 14
M TOR 8 1 3 2 12
M TOR 9 1 3 2 13
M TOR 10 1 3 4 5
M TOR 11 1 3 4 6
M TOR 12 1 8 7 6
M TOR 13 1 8 7 17
M TOR 14 1 8 7 18
M TOR 15 2 1 0 9
M TOR 16 2 1 0 10
M TOR 17 2 1 0 11
M TOR 18 2 1 8 7
M TOR 19 2 3 1 8
M TOR 20 2 3 4 5
M TOR 21 2 3 4 6
M TOR 22 3 1 0 9
M TOR 23 3 1 0 10
M TOR 24 3 1 0 11
M TOR 25 3 1 8 7
M TOR 26 3 4 6 7
M TOR 27 3 4 6 15
M TOR 28 3 4 6 16
M TOR 29 4 3 1 8
M TOR 30 4 3 2 12
M TOR 31 4 3 2 13
M TOR 32 4 6 7 8
M TOR 33 4 6 7 17
M TOR 34 4 6 7 18
M TOR 35 5 4 3 14
M TOR 36 5 4 6 7
M TOR 37 5 4 6 15
M TOR 38 5 4 6 16
M TOR 39 6 4 3 14
M TOR 40 8 1 0 9
M TOR 41 8 1 0 10
M TOR 42 8 1 0 11
M TOR 43 8 1 2 12
M TOR 44 8 1 2 13
M TOR 45 8 1 3 14
M TOR 46 8 7 6 15
M TOR 47 8 7 6 16
M  END
$$$$
