
     RDKit          3D

 19 19  0  0  0  0  0  0  0  0999 V2000
   -0.1336   -0.7558   -0.8395 O   0  0  0  0  0  0  0  0  0  0  0  0
    0.2580    0.5247   -0.3747 C   0  0  0  0  0  0  0  0  0  0  0  0
   -0.3347    0.8715    1.0042 C   0  0  0  0  0  0  0  0  0  0  0  0
   -1.8862    0.9257    0.9891 C   0  0  0  0  0  0  0  0  0  0  0  0
   -2.2496    2.4311    0.8890 C   0  0  0  0  0  0  0  0  0  0  0  0
   -0.9930    3.1212    1.3392 C   0  0  0  0  0  0  0  0  0  0  0  0
    0.0478    2.2793    1.4300 C   0  0  0  0  0  0  0  0  0  0  0  0
    1.4020    2.6748    1.8552 C   0  0  0  0  0  0  0  0  0  0  0  0
    1.7320    3.7995    2.1611 O   0  0  0  0  0  0  0  0  0  0  0  0
    0.2309   -1.4143   -0.2391 H   0  0  0  0  0  0  0  0  0  0  0  0
    1.3551    0.6232   -0.3479 H   0  0  0  0  0  0  0  0  0  0  0  0
   -0.1097    1.2372   -1.1216 H   0  0  0  0  0  0  0  0  0  0  0  0
    0.0310    0.1204    1.7190 H   0  0  0  0  0  0  0  0  0  0  0  0
   -2.2970    0.3233    0.1762 H   0  0  0  0  0  0  0  0  0  0  0  0
   -2.2788    0.5195    1.9259 H   0  0  0  0  0  0  0  0  0  0  0  0
   -2.5046    2.7372   -0.1357 H   0  0  0  0  0  0  0  0  0  0  0  0
   -3.1165    2.7006    1.5029 H   0  0  0  0  0  0  0  0  0  0  0  0
   -0.9265    4.1819    1.5545 H   0  0  0  0  0  0  0  0  0  0  0  0
    2.1402    1.8410    1.8944 H   0  0  0  0  0  0  0  0  0  0  0  0
  1  2  1  0
  2  3  1  0
  3  4  1  0
  4  5  1  0
  5  6  1  0
  6  7  2  0
  7  8  1  0
  8  9  2  0
  7  3  1  0
  1 10  1  0
  2 11  1  0
  2 12  1  0
  3 13  1  0
  4 14  1  0
  4 15  1  0
  5 16  1  0
  5 17  1  0
  6 18  1  0
  8 19  1  0
M  END
$$$$
