
     RDKit          3D

 19 21  0  0  0  0  0  0  0  0999 V2000
    1.3949    0.7945    0.0347 O   0  0  0  0  0  0  0  0  0  0  0  0
    0.3077   -0.0463    0.3846 C   0  0  0  0  0  0  0  0  0  0  0  0
   -0.8694    0.7231    0.9389 C   0  0  0  0  0  0  0  0  0  0  0  0
   -1.8333    0.0004    1.8311 C   0  0  0  0  0  0  0  0  0  0  0  0
   -3.0253    0.9122    2.1707 C   0  0  0  0  0  0  0  0  0  0  0  0
   -2.0141    1.8998    2.7918 C   0  0  0  0  0  0  0  0  0  0  0  0
   -2.1858    2.7635    3.9573 C   0  0  0  0  0  0  0  0  0  0  0  0
   -2.0427    3.3096    2.6369 O   0  0  0  0  0  0  0  0  0  0  0  0
   -0.8463    1.0190    2.4260 C   0  0  0  0  0  0  0  0  0  0  0  0
    1.5919    1.3448    0.8001 H   0  0  0  0  0  0  0  0  0  0  0  0
    0.0237   -0.5589   -0.5407 H   0  0  0  0  0  0  0  0  0  0  0  0
    0.6130   -0.8235    1.1061 H   0  0  0  0  0  0  0  0  0  0  0  0
   -1.2520    1.4900    0.2673 H   0  0  0  0  0  0  0  0  0  0  0  0
   -1.8191   -1.0756    1.9481 H   0  0  0  0  0  0  0  0  0  0  0  0
   -3.6006    1.2865    1.3186 H   0  0  0  0  0  0  0  0  0  0  0  0
   -3.7096    0.4897    2.9105 H   0  0  0  0  0  0  0  0  0  0  0  0
   -3.1717    2.8762    4.4077 H   0  0  0  0  0  0  0  0  0  0  0  0
   -1.3474    2.9455    4.6296 H   0  0  0  0  0  0  0  0  0  0  0  0
    0.0359    0.8439    3.0322 H   0  0  0  0  0  0  0  0  0  0  0  0
  1  2  1  0
  2  3  1  0
  3  4  1  0
  4  5  1  0
  5  6  1  0
  6  7  1  0
  7  8  1  0
  6  9  1  0
  9  3  1  0
  9  4  1  0
  8  6  1  0
  1 10  1  0
  2 11  1  0
  2 12  1  0
  3 13  1  0
  4 14  1  0
  5 15  1  0
  5 16  1  0
  7 17  1  0
  7 18  1  0
  9 19  1  0
M  END
$$$$
