gdb 4482	2.8843331	1.8070207	1.3844233	2.3787	74.28	-0.22774	0.07818	0.30591999999999997	980.8496	0.158237	-422.515388	-422.507979	-422.507035	-422.5469	29.488
 OpenBabel02181911413D

 19 21  0  0  1  0  0  0  0  0999 V2000
    1.0224   -3.1201   -3.1218 C   0  0  0  0  0  0  0  0  0  0  0  0
    0.7521   -1.7814   -2.4490 C   0  0  1  0  0  0  0  0  0  0  0  0
   -0.0966   -2.0599   -1.3451 O   0  0  0  0  0  0  0  0  0  0  0  0
   -0.3664   -0.9894   -0.4590 C   0  0  0  0  0  0  0  0  0  0  0  0
    0.8301   -0.1172   -0.1269 C   0  0  1  0  0  0  0  0  0  0  0  0
    2.2656   -0.5746   -0.0148 C   0  0  1  0  0  0  0  0  0  0  0  0
    2.5469   -1.7506   -0.7709 O   0  0  0  0  0  0  0  0  0  0  0  0
    2.0345   -1.0968   -1.9716 C   0  0  2  0  0  0  0  0  0  0  0  0
    1.8206    0.2222   -1.2141 C   0  0  1  0  0  0  0  0  0  0  0  0
    1.5859   -3.7660   -2.4429 H   0  0  0  0  0  0  0  0  0  0  0  0
    0.0797   -3.6144   -3.3695 H   0  0  0  0  0  0  0  0  0  0  0  0
    1.5983   -2.9821   -4.0420 H   0  0  0  0  0  0  0  0  0  0  0  0
    0.2528   -1.0941   -3.1572 H   0  0  0  0  0  0  0  0  0  0  0  0
   -1.1507   -0.3345   -0.8795 H   0  0  0  0  0  0  0  0  0  0  0  0
   -0.7769   -1.4561    0.4431 H   0  0  0  0  0  0  0  0  0  0  0  0
    0.5962    0.7151    0.5336 H   0  0  0  0  0  0  0  0  0  0  0  0
    2.9231   -0.3414    0.8147 H   0  0  0  0  0  0  0  0  0  0  0  0
    2.7986   -1.0648   -2.7542 H   0  0  0  0  0  0  0  0  0  0  0  0
    2.0693    1.2158   -1.5610 H   0  0  0  0  0  0  0  0  0  0  0  0
  1  2  1  0  0  0  0
  1 10  1  0  0  0  0
  2 13  1  6  0  0  0
  2  8  1  0  0  0  0
  2  3  1  0  0  0  0
  3  4  1  0  0  0  0
  4  5  1  0  0  0  0
  4 15  1  0  0  0  0
  5  6  1  0  0  0  0
  5 16  1  1  0  0  0
  6 17  1  1  0  0  0
  7  6  1  0  0  0  0
  8 18  1  6  0  0  0
  8  9  1  0  0  0  0
  8  7  1  0  0  0  0
  9 19  1  6  0  0  0
  9  5  1  0  0  0  0
  9  6  1  0  0  0  0
 11  1  1  0  0  0  0
 12  1  1  0  0  0  0
 14  4  1  0  0  0  0
M TOR 0 0 1 2 3
M TOR 1 0 1 7 6
M TOR 2 0 1 7 8
M TOR 3 0 1 7 17
M TOR 4 1 2 3 4
M TOR 5 1 2 3 13
M TOR 6 1 2 3 14
M TOR 7 1 7 6 5
M TOR 8 1 7 8 4
M TOR 9 1 7 8 5
M TOR 10 1 7 8 18
M TOR 11 2 1 0 9
M TOR 12 2 1 0 10
M TOR 13 2 1 0 11
M TOR 14 2 1 7 6
M TOR 15 2 1 7 8
M TOR 16 2 1 7 17
M TOR 17 2 3 4 5
M TOR 18 2 3 4 8
M TOR 19 2 3 4 15
M TOR 20 3 2 1 7
M TOR 21 3 2 1 12
M TOR 22 3 4 5 6
M TOR 23 3 4 5 8
M TOR 24 3 4 5 16
M TOR 25 3 4 8 7
M TOR 26 3 4 8 18
M TOR 27 4 5 6 7
M TOR 28 4 5 8 7
M TOR 29 4 5 8 18
M TOR 30 4 8 5 6
M TOR 31 4 8 5 16
M TOR 32 4 8 7 6
M TOR 33 4 8 7 17
M TOR 34 5 4 3 13
M TOR 35 5 4 3 14
M TOR 36 5 6 7 8
M TOR 37 5 6 7 17
M TOR 38 5 8 4 15
M TOR 39 5 8 7 17
M TOR 40 6 5 4 15
M TOR 41 6 5 8 18
M TOR 42 6 7 1 12
M TOR 43 6 7 8 18
M TOR 44 7 1 0 9
M TOR 45 7 1 0 10
M TOR 46 7 1 0 11
M TOR 47 7 6 5 16
M TOR 48 7 8 4 15
M TOR 49 7 8 5 16
M TOR 50 8 4 3 13
M TOR 51 8 4 3 14
M TOR 52 8 7 1 12
M  END
$$$$
