gdb 1051	5.7762011	0.5494207	0.5267706	0.8582	82.63	-0.24041	0.04178	0.28219	2105.7216	0.153223	-422.490384	-422.479704	-422.47876	-422.52824	36.38
 OpenBabel02181911403D

 19 19  0  0  1  0  0  0  0  0999 V2000
    1.5111   -0.1493   -0.0448 C   0  0  0  0  0  0  0  0  0  0  0  0
    0.0577   -0.0800   -0.0262 C   0  0  0  0  0  0  0  0  0  0  0  0
   -1.1440   -0.0246   -0.0034 C   0  0  0  0  0  0  0  0  0  0  0  0
   -2.5970    0.0548   -0.0017 C   0  0  0  0  0  0  0  0  0  0  0  0
   -3.1148   -0.5126    1.1993 O   0  0  0  0  0  0  0  0  0  0  0  0
   -4.5044   -0.4765    1.2419 C   0  0  2  0  0  0  0  0  0  0  0  0
   -5.1779   -1.5042    2.1040 C   0  0  0  0  0  0  0  0  0  0  0  0
   -5.2978   -1.5732    0.5935 C   0  0  1  0  0  0  0  0  0  0  0  0
   -6.4897   -1.2007   -0.0317 O   0  0  0  0  0  0  0  0  0  0  0  0
    1.8964   -0.5214    0.9109 H   0  0  0  0  0  0  0  0  0  0  0  0
    1.8708   -0.8215   -0.8315 H   0  0  0  0  0  0  0  0  0  0  0  0
    1.9556    0.8368   -0.2188 H   0  0  0  0  0  0  0  0  0  0  0  0
   -2.9187    1.1060   -0.0880 H   0  0  0  0  0  0  0  0  0  0  0  0
   -3.0099   -0.4736   -0.8756 H   0  0  0  0  0  0  0  0  0  0  0  0
   -4.9509    0.5186    1.2053 H   0  0  0  0  0  0  0  0  0  0  0  0
   -4.5417   -2.2353    2.5900 H   0  0  0  0  0  0  0  0  0  0  0  0
   -6.0476   -1.1857    2.6678 H   0  0  0  0  0  0  0  0  0  0  0  0
   -4.7231   -2.3560    0.0984 H   0  0  0  0  0  0  0  0  0  0  0  0
   -7.1487   -1.8778    0.1549 H   0  0  0  0  0  0  0  0  0  0  0  0
  1  2  1  0  0  0  0
  1 10  1  0  0  0  0
  2  3  3  0  0  0  0
  3  4  1  0  0  0  0
  4  5  1  0  0  0  0
  5  6  1  0  0  0  0
  6 15  1  6  0  0  0
  6  7  1  0  0  0  0
  7 16  1  0  0  0  0
  7 17  1  0  0  0  0
  8 18  1  6  0  0  0
  8  6  1  0  0  0  0
  8  7  1  0  0  0  0
  9 19  1  0  0  0  0
  9  8  1  0  0  0  0
 11  1  1  0  0  0  0
 12  1  1  0  0  0  0
 13  4  1  0  0  0  0
 14  4  1  0  0  0  0
M TOR 0 0 1 2 3
M TOR 1 1 2 3 4
M TOR 2 1 2 3 12
M TOR 3 1 2 3 13
M TOR 4 2 1 0 9
M TOR 5 2 1 0 10
M TOR 6 2 1 0 11
M TOR 7 2 3 4 5
M TOR 8 3 4 5 6
M TOR 9 3 4 5 7
M TOR 10 3 4 5 14
M TOR 11 4 5 6 7
M TOR 12 4 5 6 15
M TOR 13 4 5 6 16
M TOR 14 4 5 7 8
M TOR 15 4 5 7 17
M TOR 16 5 4 3 12
M TOR 17 5 4 3 13
M TOR 18 5 6 7 8
M TOR 19 5 6 7 17
M TOR 20 5 7 6 15
M TOR 21 5 7 6 16
M TOR 22 5 7 8 18
M TOR 23 6 7 5 14
M TOR 24 6 7 8 18
M TOR 25 8 7 5 14
M TOR 26 8 7 6 15
M TOR 27 8 7 6 16
M  END
$$$$
