
     RDKit          3D

 19 21  0  0  0  0  0  0  0  0999 V2000
   -0.0875    0.1139    0.2719 C   0  0  0  0  0  0  0  0  0  0  0  0
    1.3880    0.1017   -0.1145 C   0  0  0  0  0  0  0  0  0  0  0  0
    2.1657    1.4371    0.1101 C   0  0  0  0  0  0  0  0  0  0  0  0
    3.5691    1.0759   -0.4175 C   0  0  0  0  0  0  0  0  0  0  0  0
    3.8096    0.0285    0.6836 C   0  0  0  0  0  0  0  0  0  0  0  0
    3.8107    0.8668    1.8792 O   0  0  0  0  0  0  0  0  0  0  0  0
    2.4038    0.9948    1.6370 C   0  0  0  0  0  0  0  0  0  0  0  0
    2.3078   -0.4173    0.9940 C   0  0  0  0  0  0  0  0  0  0  0  0
    2.0397   -1.6165    1.6247 O   0  0  0  0  0  0  0  0  0  0  0  0
   -0.2499    0.5727    1.2526 H   0  0  0  0  0  0  0  0  0  0  0  0
   -0.6750    0.6759   -0.4613 H   0  0  0  0  0  0  0  0  0  0  0  0
   -0.4837   -0.9048    0.3175 H   0  0  0  0  0  0  0  0  0  0  0  0
    1.5175   -0.3463   -1.1062 H   0  0  0  0  0  0  0  0  0  0  0  0
    1.7248    2.3961   -0.1526 H   0  0  0  0  0  0  0  0  0  0  0  0
    3.5468    0.6765   -1.4348 H   0  0  0  0  0  0  0  0  0  0  0  0
    4.3072    1.8781   -0.3499 H   0  0  0  0  0  0  0  0  0  0  0  0
    4.6474   -0.6664    0.6280 H   0  0  0  0  0  0  0  0  0  0  0  0
    1.8221    1.4192    2.4525 H   0  0  0  0  0  0  0  0  0  0  0  0
    2.6255   -1.6933    2.3873 H   0  0  0  0  0  0  0  0  0  0  0  0
  1  2  1  0
  2  3  1  0
  3  4  1  0
  4  5  1  0
  5  6  1  0
  6  7  1  0
  7  8  1  0
  8  9  1  0
  8  2  1  0
  7  3  1  0
  8  5  1  0
  1 10  1  0
  1 11  1  0
  1 12  1  0
  2 13  1  0
  3 14  1  0
  4 15  1  0
  4 16  1  0
  5 17  1  0
  7 18  1  0
  9 19  1  0
M  END
$$$$
