gdb 3056	3.4822269	1.4408574	1.2542197	2.3001	74.82	-0.24255	0.06905	0.3116	1043.2997	0.158449	-422.489838	-422.482319	-422.481375	-422.521675	30.093
 OpenBabel02181911413D

 19 21  0  0  1  0  0  0  0  0999 V2000
    0.4539    0.1189    0.9992 O   0  0  0  0  0  0  0  0  0  0  0  0
   -0.8547    0.5772    0.8840 C   0  0  2  0  0  0  0  0  0  0  0  0
   -1.7423    0.9228    2.1719 C   0  0  2  0  0  0  0  0  0  0  0  0
   -1.8887   -0.5977    2.4020 C   0  0  0  0  0  0  0  0  0  0  0  0
   -2.0990   -0.3617    0.8595 C   0  0  2  0  0  0  0  0  0  0  0  0
   -2.7597   -1.2157   -0.0058 O   0  0  0  0  0  0  0  0  0  0  0  0
   -4.1744   -0.9183    0.1632 C   0  0  0  0  0  0  0  0  0  0  0  0
   -4.3317    0.2065    1.2537 C   0  0  0  0  0  0  0  0  0  0  0  0
   -2.9515    0.8645    1.1824 C   0  0  1  0  0  0  0  0  0  0  0  0
    0.4753   -0.6597    1.5647 H   0  0  0  0  0  0  0  0  0  0  0  0
   -0.8406    1.3574    0.1194 H   0  0  0  0  0  0  0  0  0  0  0  0
   -1.5122    1.6845    2.9136 H   0  0  0  0  0  0  0  0  0  0  0  0
   -1.0009   -1.1483    2.7256 H   0  0  0  0  0  0  0  0  0  0  0  0
   -2.7508   -0.9345    2.9770 H   0  0  0  0  0  0  0  0  0  0  0  0
   -4.5627   -0.5884   -0.8071 H   0  0  0  0  0  0  0  0  0  0  0  0
   -4.6943   -1.8394    0.4455 H   0  0  0  0  0  0  0  0  0  0  0  0
   -5.1457    0.8877    0.9961 H   0  0  0  0  0  0  0  0  0  0  0  0
   -4.5665   -0.2309    2.2257 H   0  0  0  0  0  0  0  0  0  0  0  0
   -2.9266    1.6432    0.4125 H   0  0  0  0  0  0  0  0  0  0  0  0
  1 10  1  0  0  0  0
  2 11  1  6  0  0  0
  2  1  1  0  0  0  0
  2  3  1  0  0  0  0
  3  4  1  0  0  0  0
  3 12  1  1  0  0  0
  4 13  1  0  0  0  0
  4 14  1  0  0  0  0
  5  6  1  6  0  0  0
  5  2  1  0  0  0  0
  5  9  1  0  0  0  0
  5  4  1  0  0  0  0
  6  7  1  0  0  0  0
  7 16  1  0  0  0  0
  7  8  1  0  0  0  0
  8 18  1  0  0  0  0
  9 19  1  6  0  0  0
  9  8  1  0  0  0  0
  9  3  1  0  0  0  0
 15  7  1  0  0  0  0
 17  8  1  0  0  0  0
M TOR 0 0 1 2 3
M TOR 1 0 1 2 8
M TOR 2 0 1 2 11
M TOR 3 0 1 4 3
M TOR 4 0 1 4 5
M TOR 5 0 1 4 8
M TOR 6 1 2 3 4
M TOR 7 1 2 3 12
M TOR 8 1 2 3 13
M TOR 9 1 2 8 4
M TOR 10 1 2 8 7
M TOR 11 1 2 8 18
M TOR 12 1 4 3 12
M TOR 13 1 4 3 13
M TOR 14 1 4 5 6
M TOR 15 1 4 8 7
M TOR 16 1 4 8 18
M TOR 17 2 1 0 9
M TOR 18 2 1 4 5
M TOR 19 2 3 4 5
M TOR 20 2 3 4 8
M TOR 21 2 8 4 5
M TOR 22 2 8 7 6
M TOR 23 2 8 7 16
M TOR 24 2 8 7 17
M TOR 25 3 2 1 10
M TOR 26 3 2 8 7
M TOR 27 3 2 8 18
M TOR 28 3 4 1 10
M TOR 29 3 4 5 6
M TOR 30 3 4 8 7
M TOR 31 3 4 8 18
M TOR 32 4 1 0 9
M TOR 33 4 1 2 11
M TOR 34 4 3 2 11
M TOR 35 4 5 6 7
M TOR 36 4 5 6 14
M TOR 37 4 5 6 15
M TOR 38 4 8 2 11
M TOR 39 4 8 7 6
M TOR 40 4 8 7 16
M TOR 41 4 8 7 17
M TOR 42 5 4 1 10
M TOR 43 5 4 3 12
M TOR 44 5 4 3 13
M TOR 45 5 4 8 7
M TOR 46 5 4 8 18
M TOR 47 5 6 7 8
M TOR 48 5 6 7 16
M TOR 49 5 6 7 17
M TOR 50 6 5 4 8
M TOR 51 6 7 8 18
M TOR 52 7 8 2 11
M TOR 53 8 2 1 10
M TOR 54 8 2 3 12
M TOR 55 8 2 3 13
M TOR 56 8 4 1 10
M TOR 57 8 4 3 12
M TOR 58 8 4 3 13
M TOR 59 8 7 6 14
M TOR 60 8 7 6 15
M  END
$$$$
