
     RDKit          3D

 19 19  0  0  0  0  0  0  0  0999 V2000
   -3.0725   -1.0211    1.2503 C   0  0  0  0  0  0  0  0  0  0  0  0
   -2.3699   -0.7023   -0.0848 C   0  0  0  0  0  0  0  0  0  0  0  0
   -3.2348   -1.1702   -1.2650 C   0  0  0  0  0  0  0  0  0  0  0  0
   -2.0688    0.7852   -0.1663 C   0  0  0  0  0  0  0  0  0  0  0  0
   -0.7867    1.1043    0.0632 C   0  0  0  0  0  0  0  0  0  0  0  0
   -0.0358   -0.1352    0.3307 C   0  0  0  0  0  0  0  0  0  0  0  0
    1.0477   -0.2936    0.8509 O   0  0  0  0  0  0  0  0  0  0  0  0
   -0.9318   -1.2972   -0.1131 C   0  0  0  0  0  0  0  0  0  0  0  0
   -0.7263   -2.4442    0.6645 O   0  0  0  0  0  0  0  0  0  0  0  0
   -3.2433   -2.0968    1.3351 H   0  0  0  0  0  0  0  0  0  0  0  0
   -2.4646   -0.7099    2.1037 H   0  0  0  0  0  0  0  0  0  0  0  0
   -4.0370   -0.5062    1.3092 H   0  0  0  0  0  0  0  0  0  0  0  0
   -3.3911   -2.2525   -1.2190 H   0  0  0  0  0  0  0  0  0  0  0  0
   -4.2183   -0.6879   -1.2472 H   0  0  0  0  0  0  0  0  0  0  0  0
   -2.7616   -0.9364   -2.2242 H   0  0  0  0  0  0  0  0  0  0  0  0
   -2.8614    1.5013   -0.3656 H   0  0  0  0  0  0  0  0  0  0  0  0
   -0.3561    2.0956    0.1193 H   0  0  0  0  0  0  0  0  0  0  0  0
   -0.6755   -1.4959   -1.1699 H   0  0  0  0  0  0  0  0  0  0  0  0
    0.1493   -2.3290    1.0644 H   0  0  0  0  0  0  0  0  0  0  0  0
  1  2  1  0
  2  3  1  0
  2  4  1  0
  4  5  2  0
  5  6  1  0
  6  7  2  0
  6  8  1  0
  8  9  1  0
  8  2  1  0
  1 10  1  0
  1 11  1  0
  1 12  1  0
  3 13  1  0
  3 14  1  0
  3 15  1  0
  4 16  1  0
  5 17  1  0
  8 18  1  0
  9 19  1  0
M  END
$$$$
