
     RDKit          3D

 19 21  0  0  0  0  0  0  0  0999 V2000
    0.0559   -0.0415    0.3116 O   0  0  0  0  0  0  0  0  0  0  0  0
   -0.5578    1.1707    0.6414 C   0  0  0  0  0  0  0  0  0  0  0  0
   -1.1381    1.2804    2.0957 C   0  0  0  0  0  0  0  0  0  0  0  0
   -2.5939    1.2607    1.5211 C   0  0  0  0  0  0  0  0  0  0  0  0
   -2.0056    1.4457    0.1264 C   0  0  0  0  0  0  0  0  0  0  0  0
   -2.4312    1.1416   -1.3001 C   0  0  0  0  0  0  0  0  0  0  0  0
   -1.7496    2.3318   -1.7825 O   0  0  0  0  0  0  0  0  0  0  0  0
   -1.4751    2.7921   -0.4407 C   0  0  0  0  0  0  0  0  0  0  0  0
   -0.0255    2.4932    0.0191 C   0  0  0  0  0  0  0  0  0  0  0  0
    0.9455   -0.0455    0.6826 H   0  0  0  0  0  0  0  0  0  0  0  0
   -0.8821    0.4214    2.7191 H   0  0  0  0  0  0  0  0  0  0  0  0
   -0.8695    2.1987    2.6245 H   0  0  0  0  0  0  0  0  0  0  0  0
   -3.0687    0.2837    1.6509 H   0  0  0  0  0  0  0  0  0  0  0  0
   -3.2850    2.0310    1.8743 H   0  0  0  0  0  0  0  0  0  0  0  0
   -2.0349    0.2232   -1.7475 H   0  0  0  0  0  0  0  0  0  0  0  0
   -3.5130    1.2016   -1.4841 H   0  0  0  0  0  0  0  0  0  0  0  0
   -1.9128    3.7745   -0.2361 H   0  0  0  0  0  0  0  0  0  0  0  0
    0.6380    2.3384   -0.8351 H   0  0  0  0  0  0  0  0  0  0  0  0
    0.4240    3.2059    0.7174 H   0  0  0  0  0  0  0  0  0  0  0  0
  1  2  1  0
  2  3  1  0
  3  4  1  0
  4  5  1  0
  5  6  1  0
  6  7  1  0
  7  8  1  0
  8  9  1  0
  5  2  1  0
  8  5  1  0
  9  2  1  0
  1 10  1  0
  3 11  1  0
  3 12  1  0
  4 13  1  0
  4 14  1  0
  6 15  1  0
  6 16  1  0
  8 17  1  0
  9 18  1  0
  9 19  1  0
M  END
$$$$
