gdb 4742	1.9137764	1.1312843	0.9982844	1.7597	81.26	-0.24126	-0.02991	0.21135	1379.4046	0.151382	-422.525795	-422.514365	-422.513421	-422.563988	38.147
 OpenBabel02181911413D

 19 18  0  0  1  0  0  0  0  0999 V2000
   -2.8922    1.9598    1.3754 C   0  0  0  0  0  0  0  0  0  0  0  0
   -3.2690    0.6093    1.1619 O   0  0  0  0  0  0  0  0  0  0  0  0
   -2.6973   -0.0075    0.0097 C   0  0  1  0  0  0  0  0  0  0  0  0
   -3.1766   -1.4702    0.0571 C   0  0  0  0  0  0  0  0  0  0  0  0
   -3.3492    0.6275   -1.2405 C   0  0  0  0  0  0  0  0  0  0  0  0
   -2.8118    0.8456   -2.2891 O   0  0  0  0  0  0  0  0  0  0  0  0
   -1.2375    0.0734   -0.0296 C   0  0  0  0  0  0  0  0  0  0  0  0
   -0.0357    0.1354   -0.0609 C   0  0  0  0  0  0  0  0  0  0  0  0
    1.4170    0.2074   -0.1093 C   0  0  0  0  0  0  0  0  0  0  0  0
   -3.4315    2.2920    2.2648 H   0  0  0  0  0  0  0  0  0  0  0  0
   -1.8130    2.0550    1.5446 H   0  0  0  0  0  0  0  0  0  0  0  0
   -3.1700    2.6074    0.5307 H   0  0  0  0  0  0  0  0  0  0  0  0
   -2.8225   -1.9271    0.9835 H   0  0  0  0  0  0  0  0  0  0  0  0
   -4.2700   -1.5039    0.0461 H   0  0  0  0  0  0  0  0  0  0  0  0
   -2.7847   -2.0282   -0.7958 H   0  0  0  0  0  0  0  0  0  0  0  0
   -4.4288    0.8408   -1.0621 H   0  0  0  0  0  0  0  0  0  0  0  0
    1.8489    0.1814    0.8970 H   0  0  0  0  0  0  0  0  0  0  0  0
    1.8327   -0.6361   -0.6710 H   0  0  0  0  0  0  0  0  0  0  0  0
    1.7533    1.1294   -0.5955 H   0  0  0  0  0  0  0  0  0  0  0  0
  1 11  1  0  0  0  0
  1 10  1  0  0  0  0
  2  1  1  0  0  0  0
  3  7  1  6  0  0  0
  3  4  1  0  0  0  0
  3  2  1  0  0  0  0
  4 13  1  0  0  0  0
  5 16  1  0  0  0  0
  5  3  1  0  0  0  0
  6  5  2  0  0  0  0
  8  7  3  0  0  0  0
  9  8  1  0  0  0  0
  9 17  1  0  0  0  0
 12  1  1  0  0  0  0
 14  4  1  0  0  0  0
 15  4  1  0  0  0  0
 18  9  1  0  0  0  0
 19  9  1  0  0  0  0
M TOR 0 0 1 2 3
M TOR 1 0 1 2 4
M TOR 2 0 1 2 6
M TOR 3 1 2 3 12
M TOR 4 1 2 3 13
M TOR 5 1 2 3 14
M TOR 6 1 2 4 5
M TOR 7 1 2 4 15
M TOR 8 1 2 6 7
M TOR 9 2 1 0 9
M TOR 10 2 1 0 10
M TOR 11 2 1 0 11
M TOR 12 2 6 7 8
M TOR 13 3 2 4 5
M TOR 14 3 2 4 15
M TOR 15 3 2 6 7
M TOR 16 4 2 3 12
M TOR 17 4 2 3 13
M TOR 18 4 2 3 14
M TOR 19 4 2 6 7
M TOR 20 5 4 2 6
M TOR 21 6 2 3 12
M TOR 22 6 2 3 13
M TOR 23 6 2 3 14
M TOR 24 6 2 4 15
M TOR 25 6 7 8 16
M TOR 26 6 7 8 17
M TOR 27 6 7 8 18
M  END
$$$$
