gdb 1097	2.6376656	1.5106953	1.1541871	3.3018	75.23	-0.24544	-0.02386	0.22158	1109.7377	0.155933	-422.538716	-422.529961	-422.529016	-422.572958	32.026
 OpenBabel02181911403D

 19 20  0  0  1  0  0  0  0  0999 V2000
    0.9799   -1.4925   -4.1848 C   0  0  0  0  0  0  0  0  0  0  0  0
    1.4957   -1.6274   -2.7619 C   0  0  0  0  0  0  0  0  0  0  0  0
    1.9243   -2.6840   -2.3497 O   0  0  0  0  0  0  0  0  0  0  0  0
    1.4876   -0.3951   -1.8928 C   0  0  2  0  0  0  0  0  0  0  0  0
    0.3990    0.7106   -2.0519 C   0  0  0  0  0  0  0  0  0  0  0  0
    1.4991    1.8084   -2.1731 C   0  0  0  0  0  0  0  0  0  0  0  0
    2.5912    0.7308   -1.9964 C   0  0  1  0  0  0  0  0  0  0  0  0
    2.9823    0.5287   -0.6358 O   0  0  0  0  0  0  0  0  0  0  0  0
    2.0224   -0.5451   -0.4585 C   0  0  0  0  0  0  0  0  0  0  0  0
    1.2883   -2.3648   -4.7620 H   0  0  0  0  0  0  0  0  0  0  0  0
   -0.1151   -1.4422   -4.1817 H   0  0  0  0  0  0  0  0  0  0  0  0
    1.3420   -0.5769   -4.6639 H   0  0  0  0  0  0  0  0  0  0  0  0
   -0.2082    0.6072   -2.9527 H   0  0  0  0  0  0  0  0  0  0  0  0
   -0.2756    0.7936   -1.1961 H   0  0  0  0  0  0  0  0  0  0  0  0
    1.5188    2.2990   -3.1501 H   0  0  0  0  0  0  0  0  0  0  0  0
    1.5169    2.5718   -1.3929 H   0  0  0  0  0  0  0  0  0  0  0  0
    3.4402    0.7151   -2.6861 H   0  0  0  0  0  0  0  0  0  0  0  0
    2.5181   -1.5033   -0.2814 H   0  0  0  0  0  0  0  0  0  0  0  0
    1.3089   -0.3349    0.3474 H   0  0  0  0  0  0  0  0  0  0  0  0
  1 11  1  0  0  0  0
  1  2  1  0  0  0  0
  2  3  2  0  0  0  0
  4  2  1  6  0  0  0
  4  9  1  0  0  0  0
  5  4  1  0  0  0  0
  5 14  1  0  0  0  0
  6  5  1  0  0  0  0
  6  7  1  0  0  0  0
  6 16  1  0  0  0  0
  7 17  1  6  0  0  0
  7  4  1  0  0  0  0
  7  8  1  0  0  0  0
  8  9  1  0  0  0  0
  9 18  1  0  0  0  0
  9 19  1  0  0  0  0
 10  1  1  0  0  0  0
 12  1  1  0  0  0  0
 13  5  1  0  0  0  0
 15  6  1  0  0  0  0
M TOR 0 0 1 3 4
M TOR 1 0 1 3 6
M TOR 2 0 1 3 8
M TOR 3 1 3 4 5
M TOR 4 1 3 4 12
M TOR 5 1 3 4 13
M TOR 6 1 3 6 5
M TOR 7 1 3 6 7
M TOR 8 1 3 6 16
M TOR 9 1 3 8 7
M TOR 10 1 3 8 17
M TOR 11 1 3 8 18
M TOR 12 2 1 0 9
M TOR 13 2 1 0 10
M TOR 14 2 1 0 11
M TOR 15 2 1 3 4
M TOR 16 2 1 3 6
M TOR 17 2 1 3 8
M TOR 18 3 1 0 9
M TOR 19 3 1 0 10
M TOR 20 3 1 0 11
M TOR 21 3 4 5 6
M TOR 22 3 4 5 14
M TOR 23 3 4 5 15
M TOR 24 3 6 5 14
M TOR 25 3 6 5 15
M TOR 26 3 6 7 8
M TOR 27 4 3 6 7
M TOR 28 4 3 6 16
M TOR 29 4 3 8 7
M TOR 30 4 3 8 17
M TOR 31 4 3 8 18
M TOR 32 4 5 6 7
M TOR 33 4 5 6 16
M TOR 34 5 4 3 8
M TOR 35 5 6 3 8
M TOR 36 5 6 7 8
M TOR 37 6 3 4 12
M TOR 38 6 3 4 13
M TOR 39 6 3 8 17
M TOR 40 6 3 8 18
M TOR 41 6 5 4 12
M TOR 42 6 5 4 13
M TOR 43 6 7 8 17
M TOR 44 6 7 8 18
M TOR 45 7 6 5 14
M TOR 46 7 6 5 15
M TOR 47 8 3 4 12
M TOR 48 8 3 4 13
M TOR 49 8 3 6 16
M TOR 50 8 7 6 16
M  END
$$$$
