gdb 3737	2.9243085	1.2815024	1.121389	1.0503	75.92	-0.22272	0.06712	0.28984	1157.6197	0.155344	-422.492772	-422.484099	-422.483154	-422.526046	33.067
 OpenBabel02181911413D

 19 21  0  0  1  0  0  0  0  0999 V2000
    0.5181    0.1673    0.8152 O   0  0  0  0  0  0  0  0  0  0  0  0
   -0.7101    0.6864    0.3956 C   0  0  1  0  0  0  0  0  0  0  0  0
   -1.8635   -0.2744    0.3875 C   0  0  0  0  0  0  0  0  0  0  0  0
   -1.8167    0.8340    1.3996 C   0  0  1  0  0  0  0  0  0  0  0  0
   -1.6828    0.7508    2.9139 C   0  0  0  0  0  0  0  0  0  0  0  0
   -2.5238    1.9222    3.0688 O   0  0  0  0  0  0  0  0  0  0  0  0
   -2.7440    1.9958    1.6565 C   0  0  0  0  0  0  0  0  0  0  0  0
   -4.0847    2.3195    1.0857 C   0  0  0  0  0  0  0  0  0  0  0  0
   -2.9220    3.2977    0.9494 C   0  0  0  0  0  0  0  0  0  0  0  0
    1.0074    0.8737    1.2509 H   0  0  0  0  0  0  0  0  0  0  0  0
   -0.6564    1.4184   -0.4115 H   0  0  0  0  0  0  0  0  0  0  0  0
   -2.5809   -0.2110   -0.4246 H   0  0  0  0  0  0  0  0  0  0  0  0
   -1.6615   -1.2797    0.7435 H   0  0  0  0  0  0  0  0  0  0  0  0
   -2.1265   -0.1335    3.3868 H   0  0  0  0  0  0  0  0  0  0  0  0
   -0.6756    0.9106    3.3177 H   0  0  0  0  0  0  0  0  0  0  0  0
   -4.4188    1.7822    0.2035 H   0  0  0  0  0  0  0  0  0  0  0  0
   -4.8705    2.5725    1.7894 H   0  0  0  0  0  0  0  0  0  0  0  0
   -2.4658    3.4324   -0.0264 H   0  0  0  0  0  0  0  0  0  0  0  0
   -2.9461    4.1904    1.5654 H   0  0  0  0  0  0  0  0  0  0  0  0
  1 10  1  0  0  0  0
  2 11  1  6  0  0  0
  2  1  1  0  0  0  0
  2  4  1  0  0  0  0
  3  2  1  0  0  0  0
  3 13  1  0  0  0  0
  4  3  1  6  0  0  0
  4  7  1  0  0  0  0
  4  5  1  0  0  0  0
  5  6  1  0  0  0  0
  5 15  1  0  0  0  0
  5 14  1  0  0  0  0
  7  6  1  0  0  0  0
  8  7  1  0  0  0  0
  8 17  1  0  0  0  0
  9  8  1  0  0  0  0
  9 19  1  0  0  0  0
  9  7  1  0  0  0  0
 12  3  1  0  0  0  0
 16  8  1  0  0  0  0
 18  9  1  0  0  0  0
M TOR 0 0 1 2 3
M TOR 1 0 1 2 11
M TOR 2 0 1 2 12
M TOR 3 0 1 3 4
M TOR 4 0 1 3 6
M TOR 5 1 2 3 4
M TOR 6 1 2 3 6
M TOR 7 1 3 2 11
M TOR 8 1 3 2 12
M TOR 9 1 3 4 5
M TOR 10 1 3 4 13
M TOR 11 1 3 4 14
M TOR 12 1 3 6 5
M TOR 13 1 3 6 7
M TOR 14 1 3 6 8
M TOR 15 2 1 0 9
M TOR 16 2 3 1 10
M TOR 17 2 3 4 5
M TOR 18 2 3 4 13
M TOR 19 2 3 4 14
M TOR 20 2 3 6 5
M TOR 21 2 3 6 7
M TOR 22 2 3 6 8
M TOR 23 3 1 0 9
M TOR 24 3 4 5 6
M TOR 25 3 6 7 8
M TOR 26 3 6 7 15
M TOR 27 3 6 7 16
M TOR 28 3 6 8 17
M TOR 29 3 6 8 18
M TOR 30 4 3 1 10
M TOR 31 4 3 2 11
M TOR 32 4 3 2 12
M TOR 33 4 3 6 7
M TOR 34 4 3 6 8
M TOR 35 4 5 6 7
M TOR 36 4 5 6 8
M TOR 37 5 6 7 8
M TOR 38 5 6 7 15
M TOR 39 5 6 7 16
M TOR 40 5 6 8 17
M TOR 41 5 6 8 18
M TOR 42 6 3 1 10
M TOR 43 6 3 2 11
M TOR 44 6 3 2 12
M TOR 45 6 3 4 13
M TOR 46 6 3 4 14
M TOR 47 6 5 4 13
M TOR 48 6 5 4 14
M TOR 49 6 7 8 17
M TOR 50 6 7 8 18
M TOR 51 6 8 7 15
M TOR 52 6 8 7 16
M  END
$$$$
