
     RDKit          3D

 19 19  0  0  0  0  0  0  0  0999 V2000
    3.1626   -2.0032    1.6333 C   0  0  0  0  0  0  0  0  0  0  0  0
    2.0186   -1.4618    0.8046 C   0  0  0  0  0  0  0  0  0  0  0  0
    1.3755   -2.2178   -0.2853 C   0  0  0  0  0  0  0  0  0  0  0  0
   -0.1187   -2.2662   -0.5056 C   0  0  0  0  0  0  0  0  0  0  0  0
    2.2136   -0.9458   -0.6454 C   0  0  0  0  0  0  0  0  0  0  0  0
    3.4854   -1.2010   -1.3656 C   0  0  0  0  0  0  0  0  0  0  0  0
    3.9857   -0.4440   -2.1634 O   0  0  0  0  0  0  0  0  0  0  0  0
    1.5125    0.3219   -0.9958 C   0  0  0  0  0  0  0  0  0  0  0  0
    0.5452    0.7543   -0.4091 O   0  0  0  0  0  0  0  0  0  0  0  0
    2.7646   -2.5094    2.5192 H   0  0  0  0  0  0  0  0  0  0  0  0
    3.7681   -2.7308    1.0868 H   0  0  0  0  0  0  0  0  0  0  0  0
    3.8225   -1.2005    1.9767 H   0  0  0  0  0  0  0  0  0  0  0  0
    1.3516   -0.7823    1.3317 H   0  0  0  0  0  0  0  0  0  0  0  0
    1.9017   -3.1249   -0.5827 H   0  0  0  0  0  0  0  0  0  0  0  0
   -0.5513   -3.0631    0.1091 H   0  0  0  0  0  0  0  0  0  0  0  0
   -0.5913   -1.3222   -0.2318 H   0  0  0  0  0  0  0  0  0  0  0  0
   -0.3572   -2.4841   -1.5513 H   0  0  0  0  0  0  0  0  0  0  0  0
    3.9650   -2.1786   -1.1356 H   0  0  0  0  0  0  0  0  0  0  0  0
    1.9582    0.8597   -1.8528 H   0  0  0  0  0  0  0  0  0  0  0  0
  1  2  1  0
  2  3  1  0
  3  4  1  0
  3  5  1  0
  5  6  1  0
  6  7  2  0
  5  8  1  0
  8  9  2  0
  5  2  1  0
  1 10  1  0
  1 11  1  0
  1 12  1  0
  2 13  1  0
  3 14  1  0
  4 15  1  0
  4 16  1  0
  4 17  1  0
  6 18  1  0
  8 19  1  0
M  END
$$$$
