gdb 5112	2.513638	1.5868699	1.2035387	1.0663	74.54	-0.22638	0.06067	0.28705	1096.9442	0.15464	-422.481697	-422.472839	-422.471894	-422.515091	33.842
 OpenBabel02181911423D

 19 21  0  0  1  0  0  0  0  0999 V2000
    1.2562    0.9470    0.4924 C   0  0  0  0  0  0  0  0  0  0  0  0
    0.8268   -0.4804    0.1241 C   0  0  0  0  0  0  0  0  0  0  0  0
    1.5283   -0.9925   -1.0917 C   0  0  1  0  0  0  0  0  0  0  0  0
    2.9171   -1.3643   -1.0187 O   0  0  0  0  0  0  0  0  0  0  0  0
    1.9630   -2.3099   -1.5439 C   0  0  2  0  0  0  0  0  0  0  0  0
    1.6455   -1.9653   -3.0312 C   0  0  2  0  0  0  0  0  0  0  0  0
    2.4042   -0.7298   -3.4842 C   0  0  0  0  0  0  0  0  0  0  0  0
    1.2072   -0.5873   -2.5877 C   0  0  2  0  0  0  0  0  0  0  0  0
    0.0405    0.0708   -2.9299 O   0  0  0  0  0  0  0  0  0  0  0  0
    0.7372    1.2913    1.3916 H   0  0  0  0  0  0  0  0  0  0  0  0
    2.3329    0.9923    0.6797 H   0  0  0  0  0  0  0  0  0  0  0  0
    1.0248    1.6497   -0.3151 H   0  0  0  0  0  0  0  0  0  0  0  0
    1.0313   -1.1622    0.9569 H   0  0  0  0  0  0  0  0  0  0  0  0
   -0.2526   -0.5093   -0.0647 H   0  0  0  0  0  0  0  0  0  0  0  0
    1.9196   -3.2852   -1.0730 H   0  0  0  0  0  0  0  0  0  0  0  0
    1.1627   -2.6425   -3.7221 H   0  0  0  0  0  0  0  0  0  0  0  0
    3.4084   -0.5338   -3.1296 H   0  0  0  0  0  0  0  0  0  0  0  0
    2.2033   -0.4604   -4.5169 H   0  0  0  0  0  0  0  0  0  0  0  0
    0.2365    1.0112   -3.0090 H   0  0  0  0  0  0  0  0  0  0  0  0
  1 11  1  0  0  0  0
  1 10  1  0  0  0  0
  2  1  1  0  0  0  0
  2 13  1  0  0  0  0
  3  4  1  0  0  0  0
  3  2  1  1  0  0  0
  5  3  1  0  0  0  0
  5 15  1  1  0  0  0
  5  4  1  0  0  0  0
  6 16  1  6  0  0  0
  6  8  1  0  0  0  0
  6  5  1  0  0  0  0
  7 17  1  0  0  0  0
  7  6  1  0  0  0  0
  7  8  1  0  0  0  0
  8  9  1  6  0  0  0
  8  3  1  0  0  0  0
 12  1  1  0  0  0  0
 14  2  1  0  0  0  0
 18  7  1  0  0  0  0
 19  9  1  0  0  0  0
M TOR 0 0 1 2 3
M TOR 1 0 1 2 4
M TOR 2 0 1 2 7
M TOR 3 1 2 3 4
M TOR 4 1 2 4 5
M TOR 5 1 2 4 14
M TOR 6 1 2 7 5
M TOR 7 1 2 7 6
M TOR 8 1 2 7 8
M TOR 9 2 1 0 9
M TOR 10 2 1 0 10
M TOR 11 2 1 0 11
M TOR 12 2 3 4 5
M TOR 13 2 3 4 14
M TOR 14 2 4 5 6
M TOR 15 2 4 5 7
M TOR 16 2 4 5 15
M TOR 17 2 7 5 6
M TOR 18 2 7 5 15
M TOR 19 2 7 6 16
M TOR 20 2 7 6 17
M TOR 21 2 7 8 18
M TOR 22 3 2 1 12
M TOR 23 3 2 1 13
M TOR 24 3 2 7 5
M TOR 25 3 2 7 6
M TOR 26 3 2 7 8
M TOR 27 3 4 2 7
M TOR 28 3 4 5 6
M TOR 29 3 4 5 7
M TOR 30 3 4 5 15
M TOR 31 4 2 1 12
M TOR 32 4 2 1 13
M TOR 33 4 2 7 6
M TOR 34 4 2 7 8
M TOR 35 4 5 6 7
M TOR 36 4 5 6 16
M TOR 37 4 5 6 17
M TOR 38 4 5 7 8
M TOR 39 5 6 7 8
M TOR 40 5 7 6 16
M TOR 41 5 7 6 17
M TOR 42 5 7 8 18
M TOR 43 6 5 4 14
M TOR 44 6 7 5 15
M TOR 45 6 7 8 18
M TOR 46 7 2 1 12
M TOR 47 7 2 1 13
M TOR 48 7 2 4 14
M TOR 49 7 5 4 14
M TOR 50 8 7 5 15
M TOR 51 8 7 6 16
M TOR 52 8 7 6 17
M  END
$$$$
