gdb 5133	2.5429297	1.5763893	1.2410481	1.1947	76.43	-0.23697	0.01067	0.24764	1072.6348	0.157488	-422.541383	-422.533029	-422.532085	-422.574248	32.032
 OpenBabel02181911423D

 19 20  0  0  1  0  0  0  0  0999 V2000
    1.5629    0.5802   -0.4023 O   0  0  0  0  0  0  0  0  0  0  0  0
    0.1963    0.4089   -0.0665 C   0  0  0  0  0  0  0  0  0  0  0  0
   -0.6934    0.4268   -1.2888 C   0  0  1  0  0  0  0  0  0  0  0  0
   -2.1777    0.6304   -1.1450 C   0  0  0  0  0  0  0  0  0  0  0  0
   -1.3079    1.6921   -1.8148 C   0  0  2  0  0  0  0  0  0  0  0  0
   -1.3304    1.8642   -3.2874 C   0  0  0  0  0  0  0  0  0  0  0  0
   -0.5930    1.0721   -4.0618 C   0  0  0  0  0  0  0  0  0  0  0  0
    0.2505   -0.0178   -3.4547 C   0  0  0  0  0  0  0  0  0  0  0  0
   -0.2817   -0.5356   -2.2349 O   0  0  0  0  0  0  0  0  0  0  0  0
    1.7941   -0.1744   -0.9549 H   0  0  0  0  0  0  0  0  0  0  0  0
    0.0407   -0.5362    0.4777 H   0  0  0  0  0  0  0  0  0  0  0  0
   -0.0723    1.2288    0.6075 H   0  0  0  0  0  0  0  0  0  0  0  0
   -2.8083    0.0295   -1.7897 H   0  0  0  0  0  0  0  0  0  0  0  0
   -2.5836    0.8441   -0.1612 H   0  0  0  0  0  0  0  0  0  0  0  0
   -1.1361    2.5969   -1.2371 H   0  0  0  0  0  0  0  0  0  0  0  0
   -1.9520    2.6506   -3.7063 H   0  0  0  0  0  0  0  0  0  0  0  0
   -0.5656    1.1864   -5.1411 H   0  0  0  0  0  0  0  0  0  0  0  0
    0.3169   -0.8785   -4.1278 H   0  0  0  0  0  0  0  0  0  0  0  0
    1.2767    0.3529   -3.2945 H   0  0  0  0  0  0  0  0  0  0  0  0
  1  2  1  0  0  0  0
  2 11  1  0  0  0  0
  2 12  1  0  0  0  0
  3  4  1  0  0  0  0
  3  2  1  1  0  0  0
  4 14  1  0  0  0  0
  5  3  1  0  0  0  0
  5 15  1  1  0  0  0
  5  4  1  0  0  0  0
  6  5  1  0  0  0  0
  7  8  1  0  0  0  0
  7  6  2  0  0  0  0
  8 19  1  0  0  0  0
  8  9  1  0  0  0  0
  9  3  1  0  0  0  0
 10  1  1  0  0  0  0
 13  4  1  0  0  0  0
 16  6  1  0  0  0  0
 17  7  1  0  0  0  0
 18  8  1  0  0  0  0
M TOR 0 0 1 2 3
M TOR 1 0 1 2 4
M TOR 2 0 1 2 8
M TOR 3 1 2 3 4
M TOR 4 1 2 3 12
M TOR 5 1 2 3 13
M TOR 6 1 2 4 5
M TOR 7 1 2 4 14
M TOR 8 1 2 8 7
M TOR 9 2 1 0 9
M TOR 10 2 3 4 5
M TOR 11 2 3 4 14
M TOR 12 2 4 3 12
M TOR 13 2 4 3 13
M TOR 14 2 4 5 6
M TOR 15 2 4 5 15
M TOR 16 2 8 7 6
M TOR 17 2 8 7 17
M TOR 18 2 8 7 18
M TOR 19 3 2 1 10
M TOR 20 3 2 1 11
M TOR 21 3 2 8 7
M TOR 22 3 4 2 8
M TOR 23 3 4 5 6
M TOR 24 3 4 5 15
M TOR 25 4 2 1 10
M TOR 26 4 2 1 11
M TOR 27 4 2 8 7
M TOR 28 4 5 6 7
M TOR 29 4 5 6 16
M TOR 30 5 4 2 8
M TOR 31 5 4 3 12
M TOR 32 5 4 3 13
M TOR 33 5 6 7 8
M TOR 34 5 6 7 17
M TOR 35 5 6 7 18
M TOR 36 6 5 4 14
M TOR 37 7 6 5 15
M TOR 38 8 2 1 10
M TOR 39 8 2 1 11
M TOR 40 8 2 3 12
M TOR 41 8 2 3 13
M TOR 42 8 2 4 14
M TOR 43 8 7 6 16
M  END
$$$$
