
     RDKit          3D

 19 19  0  0  0  0  0  0  0  0999 V2000
   -3.3499    1.3227    2.0368 C   0  0  0  0  0  0  0  0  0  0  0  0
   -1.8857    0.9068    1.9881 C   0  0  0  0  0  0  0  0  0  0  0  0
   -1.1952    1.0217    3.3471 C   0  0  0  0  0  0  0  0  0  0  0  0
   -1.2596    1.7682    1.0238 O   0  0  0  0  0  0  0  0  0  0  0  0
   -0.1028    1.3448    0.4700 C   0  0  0  0  0  0  0  0  0  0  0  0
    0.6089    0.1901    0.6396 C   0  0  0  0  0  0  0  0  0  0  0  0
    1.7143    0.2111   -0.1705 O   0  0  0  0  0  0  0  0  0  0  0  0
    1.6923    1.3834   -0.8456 C   0  0  0  0  0  0  0  0  0  0  0  0
    0.6099    2.1253   -0.5006 C   0  0  0  0  0  0  0  0  0  0  0  0
   -3.9018    0.6955    2.7429 H   0  0  0  0  0  0  0  0  0  0  0  0
   -3.4370    2.3651    2.3587 H   0  0  0  0  0  0  0  0  0  0  0  0
   -3.8104    1.2274    1.0502 H   0  0  0  0  0  0  0  0  0  0  0  0
   -1.8151   -0.1269    1.6193 H   0  0  0  0  0  0  0  0  0  0  0  0
   -1.6509    0.3318    4.0644 H   0  0  0  0  0  0  0  0  0  0  0  0
   -0.1311    0.7854    3.2728 H   0  0  0  0  0  0  0  0  0  0  0  0
   -1.2948    2.0401    3.7356 H   0  0  0  0  0  0  0  0  0  0  0  0
    0.4928   -0.6853    1.2523 H   0  0  0  0  0  0  0  0  0  0  0  0
    2.5075    1.5453   -1.5316 H   0  0  0  0  0  0  0  0  0  0  0  0
    0.3283    3.0969   -0.8729 H   0  0  0  0  0  0  0  0  0  0  0  0
  1  2  1  0
  2  3  1  0
  2  4  1  0
  4  5  1  0
  5  6  2  0
  6  7  1  0
  7  8  1  0
  8  9  2  0
  9  5  1  0
  1 10  1  0
  1 11  1  0
  1 12  1  0
  2 13  1  0
  3 14  1  0
  3 15  1  0
  3 16  1  0
  6 17  1  0
  8 18  1  0
  9 19  1  0
M  END
$$$$
