
     RDKit          3D

 19 21  0  0  0  0  0  0  0  0999 V2000
    0.3465   -0.4171    0.4155 O   0  0  0  0  0  0  0  0  0  0  0  0
   -0.9902   -0.0138    0.5100 C   0  0  0  0  0  0  0  0  0  0  0  0
   -1.6240    0.2395    1.8502 C   0  0  0  0  0  0  0  0  0  0  0  0
   -1.9739   -1.0125    1.0542 C   0  0  0  0  0  0  0  0  0  0  0  0
   -3.3048   -1.1376    0.3045 C   0  0  0  0  0  0  0  0  0  0  0  0
   -3.3157   -0.1923   -0.9002 C   0  0  0  0  0  0  0  0  0  0  0  0
   -2.0258   -0.2931   -1.7468 C   0  0  0  0  0  0  0  0  0  0  0  0
   -1.5254    0.7300   -0.7076 C   0  0  0  0  0  0  0  0  0  0  0  0
   -2.8961    1.1350   -0.4497 O   0  0  0  0  0  0  0  0  0  0  0  0
    0.9005    0.3552    0.5771 H   0  0  0  0  0  0  0  0  0  0  0  0
   -0.9927    0.0948    2.7204 H   0  0  0  0  0  0  0  0  0  0  0  0
   -2.3672    1.0242    1.9250 H   0  0  0  0  0  0  0  0  0  0  0  0
   -1.5462   -1.9324    1.4376 H   0  0  0  0  0  0  0  0  0  0  0  0
   -3.4418   -2.1675   -0.0463 H   0  0  0  0  0  0  0  0  0  0  0  0
   -4.1530   -0.9071    0.9601 H   0  0  0  0  0  0  0  0  0  0  0  0
   -4.2806   -0.1626   -1.4129 H   0  0  0  0  0  0  0  0  0  0  0  0
   -1.5067   -1.2517   -1.8048 H   0  0  0  0  0  0  0  0  0  0  0  0
   -2.1551    0.1416   -2.7391 H   0  0  0  0  0  0  0  0  0  0  0  0
   -0.8902    1.5662   -1.0180 H   0  0  0  0  0  0  0  0  0  0  0  0
  1  2  1  0
  2  3  1  0
  3  4  1  0
  4  5  1  0
  5  6  1  0
  6  7  1  0
  7  8  1  0
  8  9  1  0
  4  2  1  0
  9  6  1  0
  8  2  1  0
  1 10  1  0
  3 11  1  0
  3 12  1  0
  4 13  1  0
  5 14  1  0
  5 15  1  0
  6 16  1  0
  7 17  1  0
  7 18  1  0
  8 19  1  0
M  END
$$$$
