
     RDKit          3D

 19 21  0  0  0  0  0  0  0  0999 V2000
   -0.0658   -0.0825   -0.0802 C   0  0  0  0  0  0  0  0  0  0  0  0
    1.4440   -0.0373   -0.1641 C   0  0  0  0  0  0  0  0  0  0  0  0
    2.2069    1.0593    0.5449 C   0  0  0  0  0  0  0  0  0  0  0  0
    3.5514    1.3668   -0.0348 C   0  0  0  0  0  0  0  0  0  0  0  0
    4.6321    1.3109    0.9170 O   0  0  0  0  0  0  0  0  0  0  0  0
    4.4063    0.1749    0.0656 C   0  0  0  0  0  0  0  0  0  0  0  0
    3.6835   -0.9363    0.8360 C   0  0  0  0  0  0  0  0  0  0  0  0
    4.3454   -1.2316    2.0509 O   0  0  0  0  0  0  0  0  0  0  0  0
    2.2750   -0.3714    1.0501 C   0  0  0  0  0  0  0  0  0  0  0  0
   -0.4165    0.2508    0.9020 H   0  0  0  0  0  0  0  0  0  0  0  0
   -0.5255    0.5642   -0.8355 H   0  0  0  0  0  0  0  0  0  0  0  0
   -0.4392   -1.1000   -0.2377 H   0  0  0  0  0  0  0  0  0  0  0  0
    1.8505   -0.3526   -1.1240 H   0  0  0  0  0  0  0  0  0  0  0  0
    1.6596    1.8312    1.0757 H   0  0  0  0  0  0  0  0  0  0  0  0
    3.6783    2.1090   -0.8191 H   0  0  0  0  0  0  0  0  0  0  0  0
    5.2101   -0.0501   -0.6297 H   0  0  0  0  0  0  0  0  0  0  0  0
    3.6672   -1.8717    0.2658 H   0  0  0  0  0  0  0  0  0  0  0  0
    4.5617   -0.3739    2.4411 H   0  0  0  0  0  0  0  0  0  0  0  0
    1.7662   -0.6690    1.9601 H   0  0  0  0  0  0  0  0  0  0  0  0
  1  2  1  0
  2  3  1  0
  3  4  1  0
  4  5  1  0
  5  6  1  0
  6  7  1  0
  7  8  1  0
  7  9  1  0
  9  2  1  0
  9  3  1  0
  6  4  1  0
  1 10  1  0
  1 11  1  0
  1 12  1  0
  2 13  1  0
  3 14  1  0
  4 15  1  0
  6 16  1  0
  7 17  1  0
  8 18  1  0
  9 19  1  0
M  END
$$$$
