gdb 4180	2.5636303	1.5572317	1.4486317	3.563	73.88	-0.2295	-0.00607	0.22343000000000002	1004.4821	0.159204	-422.605025	-422.597431	-422.596487	-422.636941	30.314
 OpenBabel02181911413D

 19 20  0  0  1  0  0  0  0  0999 V2000
   -2.4252    0.7482    2.4229 O   0  0  0  0  0  0  0  0  0  0  0  0
   -2.6276   -0.1650    1.3582 C   0  0  2  0  0  0  0  0  0  0  0  0
   -1.6308   -1.3726    1.3395 C   0  0  0  0  0  0  0  0  0  0  0  0
   -0.9385   -1.2548   -0.0494 C   0  0  1  0  0  0  0  0  0  0  0  0
   -2.0905   -0.6849   -0.9090 C   0  0  0  0  0  0  0  0  0  0  0  0
   -2.3517    0.5320    0.0092 C   0  0  2  0  0  0  0  0  0  0  0  0
   -0.9562    1.1861    0.0703 C   0  0  0  0  0  0  0  0  0  0  0  0
   -0.0200   -0.0349    0.0535 C   0  0  0  0  0  0  0  0  0  0  0  0
    1.1815   -0.0284    0.1155 O   0  0  0  0  0  0  0  0  0  0  0  0
   -2.5882    0.2881    3.2517 H   0  0  0  0  0  0  0  0  0  0  0  0
   -3.6640   -0.5314    1.3727 H   0  0  0  0  0  0  0  0  0  0  0  0
   -0.9220   -1.3056    2.1699 H   0  0  0  0  0  0  0  0  0  0  0  0
   -2.1543   -2.3299    1.4178 H   0  0  0  0  0  0  0  0  0  0  0  0
   -0.4275   -2.1551   -0.3879 H   0  0  0  0  0  0  0  0  0  0  0  0
   -1.7826   -0.4003   -1.9196 H   0  0  0  0  0  0  0  0  0  0  0  0
   -2.9443   -1.3656   -0.9819 H   0  0  0  0  0  0  0  0  0  0  0  0
   -3.1498    1.2077   -0.3001 H   0  0  0  0  0  0  0  0  0  0  0  0
   -0.7611    1.8036   -0.8136 H   0  0  0  0  0  0  0  0  0  0  0  0
   -0.7884    1.7996    0.9567 H   0  0  0  0  0  0  0  0  0  0  0  0
  1 10  1  0  0  0  0
  2 11  1  1  0  0  0
  2  1  1  0  0  0  0
  3  2  1  0  0  0  0
  3 13  1  0  0  0  0
  3 12  1  0  0  0  0
  4 14  1  6  0  0  0
  4  8  1  0  0  0  0
  4  3  1  0  0  0  0
  5  4  1  0  0  0  0
  5  6  1  0  0  0  0
  6 17  1  6  0  0  0
  6  7  1  0  0  0  0
  6  2  1  0  0  0  0
  7 19  1  0  0  0  0
  8  7  1  0  0  0  0
  8  9  2  0  0  0  0
 15  5  1  0  0  0  0
 16  5  1  0  0  0  0
 18  7  1  0  0  0  0
M TOR 0 0 1 2 3
M TOR 1 0 1 2 11
M TOR 2 0 1 2 12
M TOR 3 0 1 5 4
M TOR 4 0 1 5 6
M TOR 5 0 1 5 16
M TOR 6 1 2 3 4
M TOR 7 1 2 3 7
M TOR 8 1 2 3 13
M TOR 9 1 5 4 3
M TOR 10 1 5 4 14
M TOR 11 1 5 4 15
M TOR 12 1 5 6 7
M TOR 13 1 5 6 17
M TOR 14 1 5 6 18
M TOR 15 2 1 0 9
M TOR 16 2 1 5 4
M TOR 17 2 1 5 6
M TOR 18 2 1 5 16
M TOR 19 2 3 4 5
M TOR 20 2 3 4 14
M TOR 21 2 3 4 15
M TOR 22 2 3 7 6
M TOR 23 2 3 7 8
M TOR 24 3 2 1 5
M TOR 25 3 2 1 10
M TOR 26 3 4 5 6
M TOR 27 3 4 5 16
M TOR 28 3 7 6 5
M TOR 29 3 7 6 17
M TOR 30 3 7 6 18
M TOR 31 4 3 2 11
M TOR 32 4 3 2 12
M TOR 33 4 3 7 6
M TOR 34 4 3 7 8
M TOR 35 4 5 1 10
M TOR 36 4 5 6 7
M TOR 37 4 5 6 17
M TOR 38 4 5 6 18
M TOR 39 5 1 0 9
M TOR 40 5 1 2 11
M TOR 41 5 1 2 12
M TOR 42 5 4 3 7
M TOR 43 5 4 3 13
M TOR 44 5 6 7 8
M TOR 45 6 5 1 10
M TOR 46 6 5 4 14
M TOR 47 6 5 4 15
M TOR 48 6 7 3 13
M TOR 49 7 3 2 11
M TOR 50 7 3 2 12
M TOR 51 7 3 4 14
M TOR 52 7 3 4 15
M TOR 53 7 6 5 16
M TOR 54 8 7 3 13
M TOR 55 8 7 6 17
M TOR 56 8 7 6 18
M  END
$$$$
