
     RDKit          3D

 19 21  0  0  0  0  0  0  0  0999 V2000
    1.4224   -0.0140    0.0114 C   0  0  0  0  0  0  0  0  0  0  0  0
    0.0034   -0.0674    0.0900 O   0  0  0  0  0  0  0  0  0  0  0  0
   -0.5304    0.5945    1.1548 C   0  0  0  0  0  0  0  0  0  0  0  0
   -2.0304    0.6788    1.4522 C   0  0  0  0  0  0  0  0  0  0  0  0
   -1.3994    1.4890    2.6106 C   0  0  0  0  0  0  0  0  0  0  0  0
   -2.0482    2.1989    3.7614 C   0  0  0  0  0  0  0  0  0  0  0  0
   -0.1458    0.5545    2.6862 C   0  0  0  0  0  0  0  0  0  0  0  0
    0.8129    1.6511    2.6067 O   0  0  0  0  0  0  0  0  0  0  0  0
   -0.2571    2.0515    1.6998 C   0  0  0  0  0  0  0  0  0  0  0  0
    1.8895   -0.4640    0.8959 H   0  0  0  0  0  0  0  0  0  0  0  0
    1.7065   -0.5789   -0.8785 H   0  0  0  0  0  0  0  0  0  0  0  0
    1.7797    1.0188   -0.0804 H   0  0  0  0  0  0  0  0  0  0  0  0
   -2.6363    1.2413    0.7360 H   0  0  0  0  0  0  0  0  0  0  0  0
   -2.5248   -0.2582    1.7240 H   0  0  0  0  0  0  0  0  0  0  0  0
   -2.6221    1.5047    4.3844 H   0  0  0  0  0  0  0  0  0  0  0  0
   -1.2839    2.6702    4.3879 H   0  0  0  0  0  0  0  0  0  0  0  0
   -2.7339    2.9783    3.4123 H   0  0  0  0  0  0  0  0  0  0  0  0
    0.0615   -0.2798    3.3567 H   0  0  0  0  0  0  0  0  0  0  0  0
   -0.1833    3.0114    1.1881 H   0  0  0  0  0  0  0  0  0  0  0  0
  1  2  1  0
  2  3  1  0
  3  4  1  0
  4  5  1  0
  5  6  1  0
  5  7  1  0
  7  8  1  0
  8  9  1  0
  7  3  1  0
  9  3  1  0
  9  5  1  0
  1 10  1  0
  1 11  1  0
  1 12  1  0
  4 13  1  0
  4 14  1  0
  6 15  1  0
  6 16  1  0
  6 17  1  0
  7 18  1  0
  9 19  1  0
M  END
$$$$
