gdb 328	2.4436734	2.1684546	1.7904409	1.5206	73.43	-0.23944	0.07669	0.31612999999999997	860.3034	0.160151	-422.514871	-422.508179	-422.507235	-422.545619	27.706
 OpenBabel02181911403D

 19 21  0  0  1  0  0  0  0  0999 V2000
   -0.2014    2.3075    1.3864 C   0  0  0  0  0  0  0  0  0  0  0  0
    1.3260    1.9951    1.4915 C   0  0  1  0  0  0  0  0  0  0  0  0
    1.6964    1.0140    2.4374 O   0  0  0  0  0  0  0  0  0  0  0  0
    1.0966   -0.2745    2.3945 C   0  0  0  0  0  0  0  0  0  0  0  0
   -0.0820   -0.3917    1.6505 O   0  0  0  0  0  0  0  0  0  0  0  0
   -0.0274   -0.0225    0.2756 C   0  0  2  0  0  0  0  0  0  0  0  0
    1.3964    0.1019   -0.3402 C   0  0  0  0  0  0  0  0  0  0  0  0
    1.3366    1.6058   -0.0421 C   0  0  1  0  0  0  0  0  0  0  0  0
   -0.2237    1.5285    0.0673 C   0  0  2  0  0  0  0  0  0  0  0  0
   -0.8314    1.9580    2.2054 H   0  0  0  0  0  0  0  0  0  0  0  0
   -0.3705    3.3764    1.2247 H   0  0  0  0  0  0  0  0  0  0  0  0
    1.9584    2.8507    1.7354 H   0  0  0  0  0  0  0  0  0  0  0  0
    1.8516   -0.9911    2.0396 H   0  0  0  0  0  0  0  0  0  0  0  0
    0.8183   -0.5331    3.4214 H   0  0  0  0  0  0  0  0  0  0  0  0
   -0.7360   -0.6745   -0.2386 H   0  0  0  0  0  0  0  0  0  0  0  0
    2.2138   -0.5008    0.0593 H   0  0  0  0  0  0  0  0  0  0  0  0
    1.3372   -0.0736   -1.4186 H   0  0  0  0  0  0  0  0  0  0  0  0
    1.8683    2.3086   -0.6853 H   0  0  0  0  0  0  0  0  0  0  0  0
   -0.8986    1.8092   -0.7421 H   0  0  0  0  0  0  0  0  0  0  0  0
  1  2  1  0  0  0  0
  1 10  1  0  0  0  0
  2 12  1  1  0  0  0
  2  3  1  0  0  0  0
  4  3  1  0  0  0  0
  4 14  1  0  0  0  0
  5  4  1  0  0  0  0
  6 15  1  6  0  0  0
  6  5  1  0  0  0  0
  7  8  1  0  0  0  0
  7 16  1  0  0  0  0
  7  6  1  0  0  0  0
  8 18  1  6  0  0  0
  8  9  1  0  0  0  0
  8  2  1  0  0  0  0
  9 19  1  6  0  0  0
  9  6  1  0  0  0  0
  9  1  1  0  0  0  0
 11  1  1  0  0  0  0
 13  4  1  0  0  0  0
 17  7  1  0  0  0  0
M TOR 0 0 1 2 3
M TOR 1 0 1 7 6
M TOR 2 0 1 7 8
M TOR 3 0 1 7 17
M TOR 4 0 8 5 4
M TOR 5 0 8 5 6
M TOR 6 0 8 5 14
M TOR 7 0 8 7 6
M TOR 8 0 8 7 17
M TOR 9 1 0 8 5
M TOR 10 1 0 8 18
M TOR 11 1 2 3 4
M TOR 12 1 2 3 12
M TOR 13 1 2 3 13
M TOR 14 1 7 6 5
M TOR 15 1 7 6 15
M TOR 16 1 7 6 16
M TOR 17 1 7 8 5
M TOR 18 1 7 8 18
M TOR 19 2 1 0 8
M TOR 20 2 1 0 9
M TOR 21 2 1 0 10
M TOR 22 2 1 7 6
M TOR 23 2 1 7 8
M TOR 24 2 1 7 17
M TOR 25 2 3 4 5
M TOR 26 3 2 1 7
M TOR 27 3 2 1 11
M TOR 28 3 4 5 6
M TOR 29 3 4 5 8
M TOR 30 3 4 5 14
M TOR 31 4 5 6 7
M TOR 32 4 5 6 15
M TOR 33 4 5 6 16
M TOR 34 4 5 8 7
M TOR 35 4 5 8 18
M TOR 36 5 4 3 12
M TOR 37 5 4 3 13
M TOR 38 5 6 7 8
M TOR 39 5 6 7 17
M TOR 40 5 8 0 9
M TOR 41 5 8 0 10
M TOR 42 5 8 7 17
M TOR 43 6 5 8 18
M TOR 44 6 7 1 11
M TOR 45 6 7 8 18
M TOR 46 7 1 0 9
M TOR 47 7 1 0 10
M TOR 48 7 6 5 14
M TOR 49 7 8 0 9
M TOR 50 7 8 0 10
M TOR 51 7 8 5 14
M TOR 52 8 0 1 11
M TOR 53 8 5 6 15
M TOR 54 8 5 6 16
M TOR 55 8 7 1 11
M TOR 56 8 7 6 15
M TOR 57 8 7 6 16
M  END
$$$$
