
     RDKit          3D

 19 21  0  0  0  0  0  0  0  0999 V2000
   -0.0333   -0.2168    0.0754 C   0  0  0  0  0  0  0  0  0  0  0  0
    1.4281    0.1301   -0.0528 C   0  0  0  0  0  0  0  0  0  0  0  0
    2.0653    0.5042   -1.4135 C   0  0  0  0  0  0  0  0  0  0  0  0
    3.4100   -0.0325   -0.8605 C   0  0  0  0  0  0  0  0  0  0  0  0
    4.0411    0.9901    0.1143 C   0  0  0  0  0  0  0  0  0  0  0  0
    3.1084    0.7822    1.3232 C   0  0  0  0  0  0  0  0  0  0  0  0
    3.0911   -0.6300    1.4667 O   0  0  0  0  0  0  0  0  0  0  0  0
    2.5960   -0.9025    0.1734 C   0  0  0  0  0  0  0  0  0  0  0  0
    1.7819    1.1207    0.9373 O   0  0  0  0  0  0  0  0  0  0  0  0
   -0.2458   -0.6091    1.0742 H   0  0  0  0  0  0  0  0  0  0  0  0
   -0.6543    0.6717   -0.0799 H   0  0  0  0  0  0  0  0  0  0  0  0
   -0.3193   -0.9677   -0.6675 H   0  0  0  0  0  0  0  0  0  0  0  0
    1.6735   -0.1187   -2.2241 H   0  0  0  0  0  0  0  0  0  0  0  0
    2.0155    1.5567   -1.7036 H   0  0  0  0  0  0  0  0  0  0  0  0
    4.1138   -0.5091   -1.5415 H   0  0  0  0  0  0  0  0  0  0  0  0
    5.0670    0.7236    0.3822 H   0  0  0  0  0  0  0  0  0  0  0  0
    4.0210    2.0152   -0.2625 H   0  0  0  0  0  0  0  0  0  0  0  0
    3.3571    1.2711    2.2641 H   0  0  0  0  0  0  0  0  0  0  0  0
    2.4326   -1.9645    0.0097 H   0  0  0  0  0  0  0  0  0  0  0  0
  1  2  1  0
  2  3  1  0
  3  4  1  0
  4  5  1  0
  5  6  1  0
  6  7  1  0
  7  8  1  0
  6  9  1  0
  8  2  1  0
  9  2  1  0
  8  4  1  0
  1 10  1  0
  1 11  1  0
  1 12  1  0
  3 13  1  0
  3 14  1  0
  4 15  1  0
  5 16  1  0
  5 17  1  0
  6 18  1  0
  8 19  1  0
M  END
$$$$
