
     RDKit          3D

 19 21  0  0  0  0  0  0  0  0999 V2000
    0.0747   -0.0065   -0.0329 C   0  0  0  0  0  0  0  0  0  0  0  0
    1.5839   -0.0313    0.0281 C   0  0  0  0  0  0  0  0  0  0  0  0
    2.1865   -1.3003    0.6170 C   0  0  0  0  0  0  0  0  0  0  0  0
    3.6097   -1.2408    0.7575 O   0  0  0  0  0  0  0  0  0  0  0  0
    4.1650   -0.0492    0.2568 C   0  0  0  0  0  0  0  0  0  0  0  0
    3.7977    0.1340   -1.2290 C   0  0  0  0  0  0  0  0  0  0  0  0
    2.3764    0.6495   -1.0847 C   0  0  0  0  0  0  0  0  0  0  0  0
    2.3384    1.2426    0.3051 C   0  0  0  0  0  0  0  0  0  0  0  0
    3.6016    1.0762    0.9149 O   0  0  0  0  0  0  0  0  0  0  0  0
   -0.3660   -0.1351    0.9624 H   0  0  0  0  0  0  0  0  0  0  0  0
   -0.2870    0.9443   -0.4370 H   0  0  0  0  0  0  0  0  0  0  0  0
   -0.3099   -0.8063   -0.6770 H   0  0  0  0  0  0  0  0  0  0  0  0
    1.7605   -1.4829    1.6130 H   0  0  0  0  0  0  0  0  0  0  0  0
    1.9284   -2.1655   -0.0123 H   0  0  0  0  0  0  0  0  0  0  0  0
    5.2298   -0.0846    0.4866 H   0  0  0  0  0  0  0  0  0  0  0  0
    4.4396    0.8823   -1.7051 H   0  0  0  0  0  0  0  0  0  0  0  0
    3.8927   -0.8114   -1.7685 H   0  0  0  0  0  0  0  0  0  0  0  0
    1.8576    1.1015   -1.9217 H   0  0  0  0  0  0  0  0  0  0  0  0
    1.8515    2.1704    0.5792 H   0  0  0  0  0  0  0  0  0  0  0  0
  1  2  1  0
  2  3  1  0
  3  4  1  0
  4  5  1  0
  5  6  1  0
  6  7  1  0
  7  8  1  0
  8  9  1  0
  7  2  1  0
  8  2  1  0
  9  5  1  0
  1 10  1  0
  1 11  1  0
  1 12  1  0
  3 13  1  0
  3 14  1  0
  5 15  1  0
  6 16  1  0
  6 17  1  0
  7 18  1  0
  8 19  1  0
M  END
$$$$
