
     RDKit          3D

 19 19  0  0  0  0  0  0  0  0999 V2000
    1.3679    0.7481   -0.2198 C   0  0  0  0  0  0  0  0  0  0  0  0
   -0.0059    0.2122    0.0284 C   0  0  0  0  0  0  0  0  0  0  0  0
   -1.1669    0.8316   -0.1942 C   0  0  0  0  0  0  0  0  0  0  0  0
   -2.3753   -0.0029    0.1882 C   0  0  0  0  0  0  0  0  0  0  0  0
   -3.3660   -0.0445   -0.8089 O   0  0  0  0  0  0  0  0  0  0  0  0
   -1.7415   -1.4052    0.4579 C   0  0  0  0  0  0  0  0  0  0  0  0
   -0.2209   -1.1732    0.6034 C   0  0  0  0  0  0  0  0  0  0  0  0
   -2.9861    0.5610    1.4634 C   0  0  0  0  0  0  0  0  0  0  0  0
   -4.1298    0.9439    1.5208 O   0  0  0  0  0  0  0  0  0  0  0  0
    1.9544    0.7745    0.7074 H   0  0  0  0  0  0  0  0  0  0  0  0
    1.9184    0.1029   -0.9160 H   0  0  0  0  0  0  0  0  0  0  0  0
    1.3414    1.7585   -0.6353 H   0  0  0  0  0  0  0  0  0  0  0  0
   -1.2873    1.8331   -0.5922 H   0  0  0  0  0  0  0  0  0  0  0  0
   -4.1644    0.3297   -0.4028 H   0  0  0  0  0  0  0  0  0  0  0  0
   -2.1824   -1.9175    1.3183 H   0  0  0  0  0  0  0  0  0  0  0  0
   -1.9673   -2.0020   -0.4287 H   0  0  0  0  0  0  0  0  0  0  0  0
    0.0982   -1.2065    1.6541 H   0  0  0  0  0  0  0  0  0  0  0  0
    0.3766   -1.9324    0.0840 H   0  0  0  0  0  0  0  0  0  0  0  0
   -2.3087    0.6068    2.3407 H   0  0  0  0  0  0  0  0  0  0  0  0
  1  2  1  0
  2  3  2  0
  3  4  1  0
  4  5  1  0
  4  6  1  0
  6  7  1  0
  4  8  1  0
  8  9  2  0
  7  2  1  0
  1 10  1  0
  1 11  1  0
  1 12  1  0
  3 13  1  0
  5 14  1  0
  6 15  1  0
  6 16  1  0
  7 17  1  0
  7 18  1  0
  8 19  1  0
M  END
$$$$
