gdb 3393	2.6463412	1.7811679	1.2978521	0.6526	73.95	-0.22033	0.07554	0.29586999999999997	1015.2365	0.15743	-422.531138	-422.523239	-422.522295	-422.562962	31.287
 OpenBabel02181911413D

 19 21  0  0  1  0  0  0  0  0999 V2000
    0.7010    0.6847   -0.0630 C   0  0  0  0  0  0  0  0  0  0  0  0
    0.9396   -0.8054    0.1466 C   0  0  1  0  0  0  0  0  0  0  0  0
    1.7201   -1.4958   -1.0287 C   0  0  2  0  0  0  0  0  0  0  0  0
    1.3962   -2.9880   -1.0788 C   0  0  0  0  0  0  0  0  0  0  0  0
    1.7517   -3.4735    0.2247 O   0  0  0  0  0  0  0  0  0  0  0  0
    2.6346   -2.5236    0.7832 C   0  0  1  0  0  0  0  0  0  0  0  0
    3.0200   -1.4438   -0.1764 C   0  0  2  0  0  0  0  0  0  0  0  0
    2.1534   -1.1049    1.0338 C   0  0  1  0  0  0  0  0  0  0  0  0
    2.5369   -0.3652    2.1384 O   0  0  0  0  0  0  0  0  0  0  0  0
    0.3712    1.1632    0.8643 H   0  0  0  0  0  0  0  0  0  0  0  0
    1.6193    1.1887   -0.3834 H   0  0  0  0  0  0  0  0  0  0  0  0
   -0.0667    0.8535   -0.8254 H   0  0  0  0  0  0  0  0  0  0  0  0
    0.0059   -1.3072    0.4332 H   0  0  0  0  0  0  0  0  0  0  0  0
    1.7011   -0.9806   -1.9890 H   0  0  0  0  0  0  0  0  0  0  0  0
    0.3336   -3.1952   -1.2430 H   0  0  0  0  0  0  0  0  0  0  0  0
    1.9828   -3.5076   -1.8514 H   0  0  0  0  0  0  0  0  0  0  0  0
    3.3554   -2.9424    1.4758 H   0  0  0  0  0  0  0  0  0  0  0  0
    4.0206   -1.1565   -0.4692 H   0  0  0  0  0  0  0  0  0  0  0  0
    2.1014   -0.7337    2.9155 H   0  0  0  0  0  0  0  0  0  0  0  0
  1  2  1  0  0  0  0
  1 10  1  0  0  0  0
  2 13  1  1  0  0  0
  2  8  1  0  0  0  0
  3 14  1  6  0  0  0
  3  7  1  0  0  0  0
  3  2  1  0  0  0  0
  4  3  1  0  0  0  0
  4  5  1  0  0  0  0
  5  6  1  0  0  0  0
  6  8  1  0  0  0  0
  6 17  1  1  0  0  0
  7 18  1  6  0  0  0
  7  6  1  0  0  0  0
  7  8  1  0  0  0  0
  8  9  1  1  0  0  0
  9 19  1  0  0  0  0
 11  1  1  0  0  0  0
 12  1  1  0  0  0  0
 15  4  1  0  0  0  0
 16  4  1  0  0  0  0
M TOR 0 0 1 2 3
M TOR 1 0 1 2 6
M TOR 2 0 1 2 13
M TOR 3 0 1 7 5
M TOR 4 0 1 7 6
M TOR 5 0 1 7 8
M TOR 6 1 2 3 4
M TOR 7 1 2 3 14
M TOR 8 1 2 3 15
M TOR 9 1 2 6 5
M TOR 10 1 2 6 7
M TOR 11 1 2 6 17
M TOR 12 1 7 5 4
M TOR 13 1 7 5 6
M TOR 14 1 7 5 16
M TOR 15 1 7 6 17
M TOR 16 1 7 8 18
M TOR 17 2 1 0 9
M TOR 18 2 1 0 10
M TOR 19 2 1 0 11
M TOR 20 2 1 7 5
M TOR 21 2 1 7 8
M TOR 22 2 3 4 5
M TOR 23 2 6 5 4
M TOR 24 2 6 5 7
M TOR 25 2 6 5 16
M TOR 26 2 6 7 8
M TOR 27 3 2 1 7
M TOR 28 3 2 1 12
M TOR 29 3 2 6 5
M TOR 30 3 2 6 7
M TOR 31 3 2 6 17
M TOR 32 3 4 5 6
M TOR 33 3 4 5 7
M TOR 34 3 4 5 16
M TOR 35 4 3 2 6
M TOR 36 4 3 2 13
M TOR 37 4 5 6 7
M TOR 38 4 5 6 17
M TOR 39 4 5 7 8
M TOR 40 5 4 3 14
M TOR 41 5 4 3 15
M TOR 42 5 6 2 13
M TOR 43 5 6 7 8
M TOR 44 5 7 1 12
M TOR 45 5 7 6 17
M TOR 46 5 7 8 18
M TOR 47 6 2 1 12
M TOR 48 6 2 3 14
M TOR 49 6 2 3 15
M TOR 50 6 7 1 12
M TOR 51 6 7 5 16
M TOR 52 6 7 8 18
M TOR 53 7 1 0 9
M TOR 54 7 1 0 10
M TOR 55 7 1 0 11
M TOR 56 7 1 2 13
M TOR 57 7 6 2 13
M TOR 58 8 7 1 12
M TOR 59 8 7 5 16
M TOR 60 8 7 6 17
M  END
$$$$
