
     RDKit          3D

 19 20  0  0  0  0  0  0  0  0999 V2000
   -2.8278    0.1804   -1.2733 C   0  0  0  0  0  0  0  0  0  0  0  0
   -2.0370   -0.0389   -0.0044 C   0  0  0  0  0  0  0  0  0  0  0  0
   -2.8322   -0.1723    1.2953 C   0  0  0  0  0  0  0  0  0  0  0  0
   -1.8839   -0.8974    2.2709 C   0  0  0  0  0  0  0  0  0  0  0  0
   -1.1069   -1.8847    1.3741 C   0  0  0  0  0  0  0  0  0  0  0  0
   -0.9235   -1.1245    0.0500 C   0  0  0  0  0  0  0  0  0  0  0  0
    0.0149    0.0783    0.1457 C   0  0  0  0  0  0  0  0  0  0  0  0
    1.1860    0.2758    0.2254 O   0  0  0  0  0  0  0  0  0  0  0  0
   -0.9898    1.0085    0.1393 O   0  0  0  0  0  0  0  0  0  0  0  0
   -3.5167   -0.6533   -1.4418 H   0  0  0  0  0  0  0  0  0  0  0  0
   -3.4167    1.1007   -1.2074 H   0  0  0  0  0  0  0  0  0  0  0  0
   -2.1636    0.2634   -2.1381 H   0  0  0  0  0  0  0  0  0  0  0  0
   -3.1774    0.7997    1.6579 H   0  0  0  0  0  0  0  0  0  0  0  0
   -3.7188   -0.7876    1.0989 H   0  0  0  0  0  0  0  0  0  0  0  0
   -1.1939   -0.1782    2.7239 H   0  0  0  0  0  0  0  0  0  0  0  0
   -2.4146   -1.3949    3.0859 H   0  0  0  0  0  0  0  0  0  0  0  0
   -0.1542   -2.2029    1.8053 H   0  0  0  0  0  0  0  0  0  0  0  0
   -1.7037   -2.7853    1.1904 H   0  0  0  0  0  0  0  0  0  0  0  0
   -0.7672   -1.7551   -0.8259 H   0  0  0  0  0  0  0  0  0  0  0  0
  1  2  1  0
  2  3  1  0
  3  4  1  0
  4  5  1  0
  5  6  1  0
  6  7  1  0
  7  8  2  0
  7  9  1  0
  6  2  1  0
  9  2  1  0
  1 10  1  0
  1 11  1  0
  1 12  1  0
  3 13  1  0
  3 14  1  0
  4 15  1  0
  4 16  1  0
  5 17  1  0
  5 18  1  0
  6 19  1  0
M  END
$$$$
