gdb 1553	2.6953417	1.5846552	1.3307852	2.6348	74.58	-0.24885	-0.0138	0.23504999999999998	1036.2433	0.156243	-422.55652	-422.548186	-422.547242	-422.588893	32.353
 OpenBabel02181911403D

 19 20  0  0  1  0  0  0  0  0999 V2000
   -1.1368    1.2867   -2.6044 C   0  0  0  0  0  0  0  0  0  0  0  0
   -1.8241    0.7984   -1.3252 C   0  0  0  0  0  0  0  0  0  0  0  0
   -3.1829    1.4771   -1.1299 C   0  0  0  0  0  0  0  0  0  0  0  0
   -1.9399   -0.7757   -1.2430 C   0  0  0  0  0  0  0  0  0  0  0  0
   -1.1003   -1.0156    0.0223 C   0  0  2  0  0  0  0  0  0  0  0  0
   -1.5323    0.0738    0.9068 O   0  0  0  0  0  0  0  0  0  0  0  0
   -0.9297    0.9872   -0.0693 C   0  0  1  0  0  0  0  0  0  0  0  0
    0.1370   -0.1194   -0.2183 C   0  0  0  0  0  0  0  0  0  0  0  0
    1.3211   -0.2246   -0.2747 O   0  0  0  0  0  0  0  0  0  0  0  0
   -0.1648    0.8051   -2.7543 H   0  0  0  0  0  0  0  0  0  0  0  0
   -1.7557    1.0725   -3.4818 H   0  0  0  0  0  0  0  0  0  0  0  0
   -0.9711    2.3694   -2.5731 H   0  0  0  0  0  0  0  0  0  0  0  0
   -3.6262    1.1847   -0.1745 H   0  0  0  0  0  0  0  0  0  0  0  0
   -3.0871    2.5686   -1.1473 H   0  0  0  0  0  0  0  0  0  0  0  0
   -3.8746    1.1899   -1.9297 H   0  0  0  0  0  0  0  0  0  0  0  0
   -2.9720   -1.1064   -1.1032 H   0  0  0  0  0  0  0  0  0  0  0  0
   -1.5269   -1.2809   -2.1211 H   0  0  0  0  0  0  0  0  0  0  0  0
   -1.0694   -1.9960    0.4934 H   0  0  0  0  0  0  0  0  0  0  0  0
   -0.7346    1.9900    0.3077 H   0  0  0  0  0  0  0  0  0  0  0  0
  1 12  1  0  0  0  0
  1  2  1  0  0  0  0
  2  4  1  0  0  0  0
  2  3  1  0  0  0  0
  2  7  1  0  0  0  0
  3 13  1  0  0  0  0
  4 16  1  0  0  0  0
  4  5  1  0  0  0  0
  5 18  1  1  0  0  0
  5  6  1  0  0  0  0
  7 19  1  1  0  0  0
  7  6  1  0  0  0  0
  8  7  1  0  0  0  0
  8  5  1  0  0  0  0
  9  8  2  0  0  0  0
 10  1  1  0  0  0  0
 11  1  1  0  0  0  0
 14  3  1  0  0  0  0
 15  3  1  0  0  0  0
 17  4  1  0  0  0  0
M TOR 0 0 1 2 12
M TOR 1 0 1 2 13
M TOR 2 0 1 2 14
M TOR 3 0 1 3 4
M TOR 4 0 1 3 15
M TOR 5 0 1 3 16
M TOR 6 0 1 6 5
M TOR 7 0 1 6 7
M TOR 8 0 1 6 18
M TOR 9 1 3 4 5
M TOR 10 1 3 4 7
M TOR 11 1 3 4 17
M TOR 12 1 6 5 4
M TOR 13 1 6 7 4
M TOR 14 1 6 7 8
M TOR 15 2 1 0 9
M TOR 16 2 1 0 10
M TOR 17 2 1 0 11
M TOR 18 2 1 3 4
M TOR 19 2 1 3 15
M TOR 20 2 1 3 16
M TOR 21 2 1 6 5
M TOR 22 2 1 6 7
M TOR 23 2 1 6 18
M TOR 24 3 1 0 9
M TOR 25 3 1 0 10
M TOR 26 3 1 0 11
M TOR 27 3 1 2 12
M TOR 28 3 1 2 13
M TOR 29 3 1 2 14
M TOR 30 3 1 6 5
M TOR 31 3 1 6 7
M TOR 32 3 1 6 18
M TOR 33 3 4 5 6
M TOR 34 3 4 7 6
M TOR 35 3 4 7 8
M TOR 36 4 3 1 6
M TOR 37 4 5 6 7
M TOR 38 4 5 6 18
M TOR 39 4 7 6 18
M TOR 40 5 4 3 15
M TOR 41 5 4 3 16
M TOR 42 5 4 7 8
M TOR 43 5 6 7 8
M TOR 44 6 1 0 9
M TOR 45 6 1 0 10
M TOR 46 6 1 0 11
M TOR 47 6 1 2 12
M TOR 48 6 1 2 13
M TOR 49 6 1 2 14
M TOR 50 6 1 3 15
M TOR 51 6 1 3 16
M TOR 52 6 5 4 17
M TOR 53 6 7 4 17
M TOR 54 7 4 3 15
M TOR 55 7 4 3 16
M TOR 56 8 7 4 17
M TOR 57 8 7 6 18
M  END
$$$$
