
     RDKit          3D

 19 19  0  0  0  0  0  0  0  0999 V2000
    3.9879    1.5517    0.1945 C   0  0  0  0  0  0  0  0  0  0  0  0
    2.5269    1.4144   -0.1856 C   0  0  0  0  0  0  0  0  0  0  0  0
    1.8450    2.3768   -0.4734 O   0  0  0  0  0  0  0  0  0  0  0  0
    1.9873    0.0186   -0.1888 C   0  0  0  0  0  0  0  0  0  0  0  0
    0.7584   -0.2984   -0.9866 C   0  0  0  0  0  0  0  0  0  0  0  0
    0.6400   -0.2917    0.5188 C   0  0  0  0  0  0  0  0  0  0  0  0
   -0.1602    0.7782    1.2308 C   0  0  0  0  0  0  0  0  0  0  0  0
    0.6198   -1.6465    1.1534 C   0  0  0  0  0  0  0  0  0  0  0  0
    1.2268   -2.6084    0.7475 O   0  0  0  0  0  0  0  0  0  0  0  0
    4.1654    1.1167    1.1847 H   0  0  0  0  0  0  0  0  0  0  0  0
    4.6141    0.9938   -0.5114 H   0  0  0  0  0  0  0  0  0  0  0  0
    4.2770    2.6030    0.1916 H   0  0  0  0  0  0  0  0  0  0  0  0
    2.7133   -0.7802   -0.0832 H   0  0  0  0  0  0  0  0  0  0  0  0
    0.3030    0.5371   -1.5068 H   0  0  0  0  0  0  0  0  0  0  0  0
    0.7269   -1.2625   -1.4806 H   0  0  0  0  0  0  0  0  0  0  0  0
    0.1702    0.8978    2.2687 H   0  0  0  0  0  0  0  0  0  0  0  0
   -0.0593    1.7401    0.7287 H   0  0  0  0  0  0  0  0  0  0  0  0
   -1.2215    0.5068    1.2482 H   0  0  0  0  0  0  0  0  0  0  0  0
   -0.0221   -1.7172    2.0597 H   0  0  0  0  0  0  0  0  0  0  0  0
  1  2  1  0
  2  3  2  0
  2  4  1  0
  4  5  1  0
  5  6  1  0
  6  7  1  0
  6  8  1  0
  8  9  2  0
  6  4  1  0
  1 10  1  0
  1 11  1  0
  1 12  1  0
  4 13  1  0
  5 14  1  0
  5 15  1  0
  7 16  1  0
  7 17  1  0
  7 18  1  0
  8 19  1  0
M  END
$$$$
