gdb 2685	2.3897993	1.1171512	0.864674	2.4555	79.48	-0.24402	-0.01945	0.22457	1373.1301	0.155291	-422.534797	-422.52548	-422.524536	-422.569438	33.817
 OpenBabel02181911413D

 19 20  0  0  1  0  0  0  0  0999 V2000
    1.7944    3.7045   -0.7777 O   0  0  0  0  0  0  0  0  0  0  0  0
    2.1838    2.6008   -0.0307 C   0  0  1  0  0  0  0  0  0  0  0  0
    1.9026    1.1907   -0.5956 C   0  0  2  0  0  0  0  0  0  0  0  0
    1.5646    0.1310    0.3662 C   0  0  0  0  0  0  0  0  0  0  0  0
    2.0441    0.0483    1.4776 O   0  0  0  0  0  0  0  0  0  0  0  0
    3.3179    1.8034   -0.5404 C   0  0  1  0  0  0  0  0  0  0  0  0
    4.0210    2.1600   -1.8078 C   0  0  0  0  0  0  0  0  0  0  0  0
    5.4861    2.5259   -1.7669 C   0  0  0  0  0  0  0  0  0  0  0  0
    5.0521    1.2230   -2.3887 C   0  0  0  0  0  0  0  0  0  0  0  0
    0.8606    3.8698   -0.6109 H   0  0  0  0  0  0  0  0  0  0  0  0
    2.0695    2.6804    1.0496 H   0  0  0  0  0  0  0  0  0  0  0  0
    1.4262    1.1608   -1.5696 H   0  0  0  0  0  0  0  0  0  0  0  0
    0.8118   -0.6098    0.0166 H   0  0  0  0  0  0  0  0  0  0  0  0
    3.9330    1.3472    0.2315 H   0  0  0  0  0  0  0  0  0  0  0  0
    3.4121    2.7133   -2.5139 H   0  0  0  0  0  0  0  0  0  0  0  0
    5.8304    3.3229   -2.4162 H   0  0  0  0  0  0  0  0  0  0  0  0
    5.9908    2.4856   -0.8074 H   0  0  0  0  0  0  0  0  0  0  0  0
    5.1019    1.1218   -3.4672 H   0  0  0  0  0  0  0  0  0  0  0  0
    5.2657    0.3076   -1.8466 H   0  0  0  0  0  0  0  0  0  0  0  0
  1 10  1  0  0  0  0
  1  2  1  0  0  0  0
  2 11  1  1  0  0  0
  3 12  1  6  0  0  0
  3  6  1  0  0  0  0
  3  2  1  0  0  0  0
  3  4  1  0  0  0  0
  4  5  2  0  0  0  0
  6  2  1  0  0  0  0
  6 14  1  1  0  0  0
  7  8  1  0  0  0  0
  7  6  1  0  0  0  0
  8 17  1  0  0  0  0
  9 19  1  0  0  0  0
  9  7  1  0  0  0  0
  9  8  1  0  0  0  0
 13  4  1  0  0  0  0
 15  7  1  0  0  0  0
 16  8  1  0  0  0  0
 18  9  1  0  0  0  0
M TOR 0 0 1 2 3
M TOR 1 0 1 2 5
M TOR 2 0 1 2 11
M TOR 3 0 1 5 6
M TOR 4 0 1 5 13
M TOR 5 1 2 3 4
M TOR 6 1 2 3 12
M TOR 7 1 2 5 6
M TOR 8 1 2 5 13
M TOR 9 1 5 2 3
M TOR 10 1 5 2 11
M TOR 11 1 5 6 7
M TOR 12 1 5 6 8
M TOR 13 1 5 6 14
M TOR 14 2 1 0 9
M TOR 15 2 5 1 10
M TOR 16 2 5 6 7
M TOR 17 2 5 6 8
M TOR 18 2 5 6 14
M TOR 19 3 2 1 10
M TOR 20 3 2 5 6
M TOR 21 3 2 5 13
M TOR 22 4 3 2 5
M TOR 23 4 3 2 11
M TOR 24 5 1 0 9
M TOR 25 5 2 3 12
M TOR 26 5 6 7 8
M TOR 27 5 6 7 15
M TOR 28 5 6 7 16
M TOR 29 5 6 8 17
M TOR 30 5 6 8 18
M TOR 31 6 5 1 10
M TOR 32 6 5 2 11
M TOR 33 6 7 8 17
M TOR 34 6 7 8 18
M TOR 35 6 8 7 15
M TOR 36 6 8 7 16
M TOR 37 7 6 5 13
M TOR 38 7 8 6 14
M TOR 39 8 6 5 13
M  END
$$$$
