
     RDKit          3D

 19 21  0  0  0  0  0  0  0  0999 V2000
    1.7762   -2.7539    5.3130 O   0  0  0  0  0  0  0  0  0  0  0  0
    1.1605   -1.5981    4.8271 C   0  0  0  0  0  0  0  0  0  0  0  0
    1.2782   -0.2637    5.5023 C   0  0  0  0  0  0  0  0  0  0  0  0
    1.9397   -0.4943    4.1475 C   0  0  0  0  0  0  0  0  0  0  0  0
    1.4038    0.1416    2.9252 C   0  0  0  0  0  0  0  0  0  0  0  0
    2.0267    0.1734    1.5647 C   0  0  0  0  0  0  0  0  0  0  0  0
    1.5970    1.4754    2.2189 C   0  0  0  0  0  0  0  0  0  0  0  0
    0.0781    1.5461    2.2161 C   0  0  0  0  0  0  0  0  0  0  0  0
   -0.0278    0.2214    2.8086 O   0  0  0  0  0  0  0  0  0  0  0  0
    2.5469   -2.4992    5.8298 H   0  0  0  0  0  0  0  0  0  0  0  0
    0.1984   -1.8472    4.3945 H   0  0  0  0  0  0  0  0  0  0  0  0
    0.3974    0.3679    5.5358 H   0  0  0  0  0  0  0  0  0  0  0  0
    1.9333   -0.1802    6.3649 H   0  0  0  0  0  0  0  0  0  0  0  0
    3.0201   -0.6101    4.1540 H   0  0  0  0  0  0  0  0  0  0  0  0
    3.1012    0.0186    1.5391 H   0  0  0  0  0  0  0  0  0  0  0  0
    1.4838   -0.2255    0.7112 H   0  0  0  0  0  0  0  0  0  0  0  0
    2.2760    2.2928    2.4200 H   0  0  0  0  0  0  0  0  0  0  0  0
   -0.3318    2.3029    2.8942 H   0  0  0  0  0  0  0  0  0  0  0  0
   -0.4307    1.6038    1.2462 H   0  0  0  0  0  0  0  0  0  0  0  0
  1  2  1  0
  2  3  1  0
  3  4  1  0
  4  5  1  0
  5  6  1  0
  6  7  1  0
  7  8  1  0
  8  9  1  0
  4  2  1  0
  7  5  1  0
  9  5  1  0
  1 10  1  0
  2 11  1  0
  3 12  1  0
  3 13  1  0
  4 14  1  0
  6 15  1  0
  6 16  1  0
  7 17  1  0
  8 18  1  0
  8 19  1  0
M  END
$$$$
