gdb 1923	3.9772615	1.020451	0.9485707	1.2694	76.39	-0.23595	0.07065	0.3066	1303.0449	0.155503	-422.492558	-422.483976	-422.483031	-422.52615	32.021
 OpenBabel02181911403D

 19 21  0  0  1  0  0  0  0  0999 V2000
    0.0938    0.0898   -0.3632 C   0  0  0  0  0  0  0  0  0  0  0  0
    1.5227   -0.0870    0.0312 C   0  0  2  0  0  0  0  0  0  0  0  0
    2.1018    0.0004    1.4090 C   0  0  0  0  0  0  0  0  0  0  0  0
    2.6905    0.8435    0.2921 C   0  0  1  0  0  0  0  0  0  0  0  0
    3.4718   -0.0720   -0.6441 C   0  0  1  0  0  0  0  0  0  0  0  0
    2.3291   -0.9687   -0.7734 O   0  0  0  0  0  0  0  0  0  0  0  0
    3.8231    0.5194   -1.9817 C   0  0  2  0  0  0  0  0  0  0  0  0
    4.9233   -0.0175   -2.7887 C   0  0  0  0  0  0  0  0  0  0  0  0
    5.0831    1.1931   -2.0457 O   0  0  0  0  0  0  0  0  0  0  0  0
   -0.3882    0.8391    0.2711 H   0  0  0  0  0  0  0  0  0  0  0  0
    0.0081    0.4061   -1.4075 H   0  0  0  0  0  0  0  0  0  0  0  0
   -0.4536   -0.8526   -0.2480 H   0  0  0  0  0  0  0  0  0  0  0  0
    1.5148    0.5590    2.1319 H   0  0  0  0  0  0  0  0  0  0  0  0
    2.6584   -0.8392    1.8174 H   0  0  0  0  0  0  0  0  0  0  0  0
    2.7572    1.9229    0.3243 H   0  0  0  0  0  0  0  0  0  0  0  0
    4.3476   -0.5773   -0.2176 H   0  0  0  0  0  0  0  0  0  0  0  0
    3.0046    1.0302   -2.4902 H   0  0  0  0  0  0  0  0  0  0  0  0
    5.4922   -0.8705   -2.4214 H   0  0  0  0  0  0  0  0  0  0  0  0
    4.9013    0.0975   -3.8712 H   0  0  0  0  0  0  0  0  0  0  0  0
  1 12  1  0  0  0  0
  1 10  1  0  0  0  0
  2  1  1  6  0  0  0
  2  4  1  0  0  0  0
  2  3  1  0  0  0  0
  3 14  1  0  0  0  0
  3 13  1  0  0  0  0
  4 15  1  6  0  0  0
  4  3  1  0  0  0  0
  5 16  1  1  0  0  0
  5  4  1  0  0  0  0
  6  5  1  0  0  0  0
  6  2  1  0  0  0  0
  7 17  1  6  0  0  0
  7  5  1  0  0  0  0
  8 18  1  0  0  0  0
  8  9  1  0  0  0  0
  8  7  1  0  0  0  0
  9  7  1  0  0  0  0
 11  1  1  0  0  0  0
 19  8  1  0  0  0  0
M TOR 0 0 1 2 3
M TOR 1 0 1 2 12
M TOR 2 0 1 2 13
M TOR 3 0 1 3 4
M TOR 4 0 1 3 14
M TOR 5 0 1 5 4
M TOR 6 1 2 3 4
M TOR 7 1 2 3 14
M TOR 8 1 3 2 12
M TOR 9 1 3 2 13
M TOR 10 1 3 4 5
M TOR 11 1 3 4 6
M TOR 12 1 3 4 15
M TOR 13 1 5 4 6
M TOR 14 1 5 4 15
M TOR 15 2 1 0 9
M TOR 16 2 1 0 10
M TOR 17 2 1 0 11
M TOR 18 2 1 5 4
M TOR 19 2 3 1 5
M TOR 20 2 3 4 5
M TOR 21 2 3 4 6
M TOR 22 2 3 4 15
M TOR 23 3 1 0 9
M TOR 24 3 1 0 10
M TOR 25 3 1 0 11
M TOR 26 3 4 6 7
M TOR 27 3 4 6 8
M TOR 28 3 4 6 16
M TOR 29 4 3 2 12
M TOR 30 4 3 2 13
M TOR 31 4 6 7 8
M TOR 32 4 6 7 17
M TOR 33 4 6 7 18
M TOR 34 5 1 0 9
M TOR 35 5 1 0 10
M TOR 36 5 1 0 11
M TOR 37 5 1 2 12
M TOR 38 5 1 2 13
M TOR 39 5 1 3 14
M TOR 40 5 4 3 14
M TOR 41 5 4 6 7
M TOR 42 5 4 6 8
M TOR 43 5 4 6 16
M TOR 44 6 4 3 14
M TOR 45 6 8 7 17
M TOR 46 6 8 7 18
M TOR 47 7 6 4 15
M TOR 48 7 8 6 16
M TOR 49 8 6 4 15
M  END
$$$$
