
     RDKit          3D

 19 21  0  0  0  0  0  0  0  0999 V2000
   -3.1364    2.9471   -1.2005 O   0  0  0  0  0  0  0  0  0  0  0  0
   -3.8442    2.0152   -0.4141 C   0  0  0  0  0  0  0  0  0  0  0  0
   -3.0755    1.3681    0.7743 C   0  0  0  0  0  0  0  0  0  0  0  0
   -4.1990    0.5082    1.3967 C   0  0  0  0  0  0  0  0  0  0  0  0
   -4.3639   -0.4112    0.1651 C   0  0  0  0  0  0  0  0  0  0  0  0
   -2.9673   -1.0972    0.1391 C   0  0  0  0  0  0  0  0  0  0  0  0
   -2.7599   -2.0858   -0.8444 O   0  0  0  0  0  0  0  0  0  0  0  0
   -2.4728    0.3084   -0.2483 C   0  0  0  0  0  0  0  0  0  0  0  0
   -3.8511    0.5794   -0.9696 C   0  0  0  0  0  0  0  0  0  0  0  0
   -2.3156    2.5393   -1.4977 H   0  0  0  0  0  0  0  0  0  0  0  0
   -4.7978    2.4978   -0.1785 H   0  0  0  0  0  0  0  0  0  0  0  0
   -2.4467    1.9693    1.4304 H   0  0  0  0  0  0  0  0  0  0  0  0
   -3.9012   -0.0480    2.2903 H   0  0  0  0  0  0  0  0  0  0  0  0
   -5.0853    1.1008    1.6412 H   0  0  0  0  0  0  0  0  0  0  0  0
   -5.2783   -0.9947    0.0612 H   0  0  0  0  0  0  0  0  0  0  0  0
   -2.6204   -1.5423    1.0769 H   0  0  0  0  0  0  0  0  0  0  0  0
   -2.9816   -1.7152   -1.7057 H   0  0  0  0  0  0  0  0  0  0  0  0
   -1.4878    0.4806   -0.6829 H   0  0  0  0  0  0  0  0  0  0  0  0
   -4.0710    0.3597   -2.0148 H   0  0  0  0  0  0  0  0  0  0  0  0
  1  2  1  0
  2  3  1  0
  3  4  1  0
  4  5  1  0
  5  6  1  0
  6  7  1  0
  6  8  1  0
  8  9  1  0
  9  2  1  0
  8  3  1  0
  9  5  1  0
  1 10  1  0
  2 11  1  0
  3 12  1  0
  4 13  1  0
  4 14  1  0
  5 15  1  0
  6 16  1  0
  7 17  1  0
  8 18  1  0
  9 19  1  0
M  END
$$$$
