
     RDKit          3D

 19 20  0  0  0  0  0  0  0  0999 V2000
    0.2359   -1.1028    1.3353 O   0  0  0  0  0  0  0  0  0  0  0  0
   -0.8258   -0.4170    0.6939 C   0  0  0  0  0  0  0  0  0  0  0  0
   -1.5572   -1.4497   -0.1555 C   0  0  0  0  0  0  0  0  0  0  0  0
   -2.6681   -1.2899   -0.5877 O   0  0  0  0  0  0  0  0  0  0  0  0
   -0.3435    0.6992   -0.2083 C   0  0  0  0  0  0  0  0  0  0  0  0
    0.8955    0.5832   -1.0525 C   0  0  0  0  0  0  0  0  0  0  0  0
    0.8289    1.6725   -0.0148 C   0  0  0  0  0  0  0  0  0  0  0  0
   -0.0358    2.8339   -0.5216 C   0  0  0  0  0  0  0  0  0  0  0  0
   -1.2285    1.8416   -0.7253 C   0  0  0  0  0  0  0  0  0  0  0  0
    0.7149   -0.4646    1.8738 H   0  0  0  0  0  0  0  0  0  0  0  0
   -1.5481   -0.0120    1.4203 H   0  0  0  0  0  0  0  0  0  0  0  0
   -0.9521   -2.3580   -0.3715 H   0  0  0  0  0  0  0  0  0  0  0  0
    1.5389   -0.2515   -0.7950 H   0  0  0  0  0  0  0  0  0  0  0  0
    0.8670    0.8300   -2.1117 H   0  0  0  0  0  0  0  0  0  0  0  0
    1.5545    1.7289    0.7898 H   0  0  0  0  0  0  0  0  0  0  0  0
   -0.2482    3.5813    0.2456 H   0  0  0  0  0  0  0  0  0  0  0  0
    0.3389    3.3468   -1.4134 H   0  0  0  0  0  0  0  0  0  0  0  0
   -2.0685    2.0599   -0.0618 H   0  0  0  0  0  0  0  0  0  0  0  0
   -1.6140    1.7212   -1.7415 H   0  0  0  0  0  0  0  0  0  0  0  0
  1  2  1  0
  2  3  1  0
  3  4  2  0
  2  5  1  0
  5  6  1  0
  6  7  1  0
  7  8  1  0
  8  9  1  0
  7  5  1  0
  9  5  1  0
  1 10  1  0
  2 11  1  0
  3 12  1  0
  6 13  1  0
  6 14  1  0
  7 15  1  0
  8 16  1  0
  8 17  1  0
  9 18  1  0
  9 19  1  0
M  END
$$$$
