
     RDKit          3D

 19 19  0  0  0  0  0  0  0  0999 V2000
    1.3146    1.0343    0.2726 C   0  0  0  0  0  0  0  0  0  0  0  0
   -0.0269    0.3737    0.2565 C   0  0  0  0  0  0  0  0  0  0  0  0
   -1.1870    0.8963   -0.1479 C   0  0  0  0  0  0  0  0  0  0  0  0
   -2.3502   -0.0329    0.0737 C   0  0  0  0  0  0  0  0  0  0  0  0
   -3.2498   -0.0454   -1.0211 O   0  0  0  0  0  0  0  0  0  0  0  0
   -1.6409   -1.3906    0.3011 C   0  0  0  0  0  0  0  0  0  0  0  0
   -0.2151   -1.0373    0.7880 C   0  0  0  0  0  0  0  0  0  0  0  0
   -2.4329   -2.3611    1.1362 C   0  0  0  0  0  0  0  0  0  0  0  0
   -3.6258   -2.2735    1.3077 O   0  0  0  0  0  0  0  0  0  0  0  0
    1.7133    1.0982    1.2933 H   0  0  0  0  0  0  0  0  0  0  0  0
    2.0451    0.4590   -0.3103 H   0  0  0  0  0  0  0  0  0  0  0  0
    1.2699    2.0463   -0.1379 H   0  0  0  0  0  0  0  0  0  0  0  0
   -1.3268    1.8997   -0.5341 H   0  0  0  0  0  0  0  0  0  0  0  0
   -2.8958    0.2567    0.9869 H   0  0  0  0  0  0  0  0  0  0  0  0
   -4.0206   -0.5462   -0.7306 H   0  0  0  0  0  0  0  0  0  0  0  0
   -1.5542   -1.8533   -0.6936 H   0  0  0  0  0  0  0  0  0  0  0  0
   -0.1443   -1.0478    1.8858 H   0  0  0  0  0  0  0  0  0  0  0  0
    0.5494   -1.7342    0.4246 H   0  0  0  0  0  0  0  0  0  0  0  0
   -1.8576   -3.2038    1.5837 H   0  0  0  0  0  0  0  0  0  0  0  0
  1  2  1  0
  2  3  2  0
  3  4  1  0
  4  5  1  0
  4  6  1  0
  6  7  1  0
  6  8  1  0
  8  9  2  0
  7  2  1  0
  1 10  1  0
  1 11  1  0
  1 12  1  0
  3 13  1  0
  4 14  1  0
  5 15  1  0
  6 16  1  0
  7 17  1  0
  7 18  1  0
  8 19  1  0
M  END
$$$$
