
     RDKit          3D

 19 21  0  0  0  0  0  0  0  0999 V2000
   -1.4511   -2.4127    1.4057 C   0  0  0  0  0  0  0  0  0  0  0  0
   -0.5736   -2.2495    0.1820 C   0  0  0  0  0  0  0  0  0  0  0  0
   -0.4120   -3.3856   -0.7366 C   0  0  0  0  0  0  0  0  0  0  0  0
    0.6241   -3.0444    0.1900 O   0  0  0  0  0  0  0  0  0  0  0  0
   -0.4283   -0.8275   -0.3242 C   0  0  0  0  0  0  0  0  0  0  0  0
    0.7063   -0.5645   -1.3786 C   0  0  0  0  0  0  0  0  0  0  0  0
    1.3392    0.4239   -0.3923 C   0  0  0  0  0  0  0  0  0  0  0  0
    0.3553    1.4146   -0.0670 O   0  0  0  0  0  0  0  0  0  0  0  0
    0.3058    0.1587    0.6166 C   0  0  0  0  0  0  0  0  0  0  0  0
   -1.4954   -3.4612    1.7093 H   0  0  0  0  0  0  0  0  0  0  0  0
   -1.0636   -1.8323    2.2492 H   0  0  0  0  0  0  0  0  0  0  0  0
   -2.4688   -2.0640    1.2001 H   0  0  0  0  0  0  0  0  0  0  0  0
   -0.9317   -4.3202   -0.5296 H   0  0  0  0  0  0  0  0  0  0  0  0
   -0.1771   -3.2110   -1.7854 H   0  0  0  0  0  0  0  0  0  0  0  0
   -1.4162   -0.4518   -0.6112 H   0  0  0  0  0  0  0  0  0  0  0  0
    1.3302   -1.4497   -1.5163 H   0  0  0  0  0  0  0  0  0  0  0  0
    0.4059   -0.1505   -2.3436 H   0  0  0  0  0  0  0  0  0  0  0  0
    2.3796    0.7065   -0.2843 H   0  0  0  0  0  0  0  0  0  0  0  0
    0.3457    0.1784    1.6996 H   0  0  0  0  0  0  0  0  0  0  0  0
  1  2  1  0
  2  3  1  0
  3  4  1  0
  2  5  1  0
  5  6  1  0
  6  7  1  0
  7  8  1  0
  8  9  1  0
  4  2  1  0
  9  5  1  0
  9  7  1  0
  1 10  1  0
  1 11  1  0
  1 12  1  0
  3 13  1  0
  3 14  1  0
  5 15  1  0
  6 16  1  0
  6 17  1  0
  7 18  1  0
  9 19  1  0
M  END
$$$$
