
     RDKit          3D

 19 20  0  0  0  0  0  0  0  0999 V2000
   -2.0508   -3.1011   -2.2103 C   0  0  0  0  0  0  0  0  0  0  0  0
   -1.0133   -2.2729   -2.9485 C   0  0  0  0  0  0  0  0  0  0  0  0
   -0.5763   -2.6002   -4.0307 O   0  0  0  0  0  0  0  0  0  0  0  0
   -0.5957   -1.0051   -2.2431 C   0  0  0  0  0  0  0  0  0  0  0  0
    0.2598    0.0747   -2.9570 C   0  0  0  0  0  0  0  0  0  0  0  0
   -0.2627    1.1036   -1.9093 C   0  0  0  0  0  0  0  0  0  0  0  0
   -1.5038    0.2916   -2.3841 C   0  0  0  0  0  0  0  0  0  0  0  0
   -2.8289    0.4310   -2.0246 O   0  0  0  0  0  0  0  0  0  0  0  0
   -0.9825    0.4424   -3.8296 C   0  0  0  0  0  0  0  0  0  0  0  0
   -1.6617   -3.4319   -1.2404 H   0  0  0  0  0  0  0  0  0  0  0  0
   -2.9314   -2.4798   -2.0077 H   0  0  0  0  0  0  0  0  0  0  0  0
   -2.3326   -3.9693   -2.8071 H   0  0  0  0  0  0  0  0  0  0  0  0
   -0.3178   -1.2216   -1.2038 H   0  0  0  0  0  0  0  0  0  0  0  0
    1.2833   -0.0436   -3.2996 H   0  0  0  0  0  0  0  0  0  0  0  0
    0.0593    0.9619   -0.8730 H   0  0  0  0  0  0  0  0  0  0  0  0
   -0.2335    2.1548   -2.2069 H   0  0  0  0  0  0  0  0  0  0  0  0
   -2.8845    0.4815   -1.0639 H   0  0  0  0  0  0  0  0  0  0  0  0
   -1.3013   -0.2947   -4.5641 H   0  0  0  0  0  0  0  0  0  0  0  0
   -1.0015    1.4581   -4.2322 H   0  0  0  0  0  0  0  0  0  0  0  0
  1  2  1  0
  2  3  2  0
  2  4  1  0
  4  5  1  0
  5  6  1  0
  6  7  1  0
  7  8  1  0
  7  9  1  0
  7  4  1  0
  9  5  1  0
  1 10  1  0
  1 11  1  0
  1 12  1  0
  4 13  1  0
  5 14  1  0
  6 15  1  0
  6 16  1  0
  8 17  1  0
  9 18  1  0
  9 19  1  0
M  END
$$$$
