gdb 2128	2.6934217	1.9148825	1.4157978	2.2424	74.87	-0.2458	0.06295	0.30874999999999997	972.4493	0.157392	-422.497642	-422.490191	-422.489247	-422.528929	30.217
 OpenBabel02181911403D

 19 21  0  0  1  0  0  0  0  0999 V2000
   -0.0797   -0.1947   -0.1599 C   0  0  0  0  0  0  0  0  0  0  0  0
    1.3908    0.0086    0.0653 C   0  0  2  0  0  0  0  0  0  0  0  0
    2.1115   -0.7497    1.2436 C   0  0  0  0  0  0  0  0  0  0  0  0
    3.6245   -0.4898    0.8499 C   0  0  0  0  0  0  0  0  0  0  0  0
    3.2729    0.4148   -0.3200 C   0  0  2  0  0  0  0  0  0  0  0  0
    3.6878    1.5374   -1.2609 C   0  0  0  0  0  0  0  0  0  0  0  0
    2.3908    2.1703   -1.0326 O   0  0  0  0  0  0  0  0  0  0  0  0
    2.1528    1.3498    0.1400 C   0  0  1  0  0  0  0  0  0  0  0  0
    2.2616   -0.3873   -1.0327 O   0  0  0  0  0  0  0  0  0  0  0  0
   -0.6485    0.1339    0.7160 H   0  0  0  0  0  0  0  0  0  0  0  0
   -0.4135    0.3784   -1.0289 H   0  0  0  0  0  0  0  0  0  0  0  0
   -0.3003   -1.2527   -0.3354 H   0  0  0  0  0  0  0  0  0  0  0  0
    1.8586   -0.3587    2.2338 H   0  0  0  0  0  0  0  0  0  0  0  0
    1.8520   -1.8096    1.2100 H   0  0  0  0  0  0  0  0  0  0  0  0
    4.1905    0.0152    1.6363 H   0  0  0  0  0  0  0  0  0  0  0  0
    4.1454   -1.4038    0.5594 H   0  0  0  0  0  0  0  0  0  0  0  0
    4.5068    2.1727   -0.9003 H   0  0  0  0  0  0  0  0  0  0  0  0
    3.8395    1.2624   -2.3077 H   0  0  0  0  0  0  0  0  0  0  0  0
    2.1469    1.9344    1.0641 H   0  0  0  0  0  0  0  0  0  0  0  0
  1 10  1  0  0  0  0
  2  1  1  6  0  0  0
  2  8  1  0  0  0  0
  2  3  1  0  0  0  0
  3 13  1  0  0  0  0
  4  3  1  0  0  0  0
  4 15  1  0  0  0  0
  5  9  1  6  0  0  0
  5  8  1  0  0  0  0
  5  4  1  0  0  0  0
  6  7  1  0  0  0  0
  6 17  1  0  0  0  0
  6  5  1  0  0  0  0
  7  8  1  0  0  0  0
  8 19  1  1  0  0  0
  9  2  1  0  0  0  0
 11  1  1  0  0  0  0
 12  1  1  0  0  0  0
 14  3  1  0  0  0  0
 16  4  1  0  0  0  0
 18  6  1  0  0  0  0
M TOR 0 0 1 2 3
M TOR 1 0 1 2 12
M TOR 2 0 1 2 13
M TOR 3 0 1 7 4
M TOR 4 0 1 7 6
M TOR 5 0 1 7 18
M TOR 6 0 1 8 4
M TOR 7 1 2 3 4
M TOR 8 1 2 3 14
M TOR 9 1 2 3 15
M TOR 10 1 7 4 3
M TOR 11 1 7 4 5
M TOR 12 1 7 4 8
M TOR 13 1 7 6 5
M TOR 14 1 8 4 3
M TOR 15 1 8 4 5
M TOR 16 2 1 0 9
M TOR 17 2 1 0 10
M TOR 18 2 1 0 11
M TOR 19 2 1 7 4
M TOR 20 2 1 7 6
M TOR 21 2 1 7 18
M TOR 22 2 1 8 4
M TOR 23 2 3 4 5
M TOR 24 2 3 4 7
M TOR 25 2 3 4 8
M TOR 26 3 2 1 7
M TOR 27 3 2 1 8
M TOR 28 3 4 5 6
M TOR 29 3 4 5 16
M TOR 30 3 4 5 17
M TOR 31 3 4 7 6
M TOR 32 3 4 7 18
M TOR 33 4 3 2 12
M TOR 34 4 3 2 13
M TOR 35 4 5 6 7
M TOR 36 5 4 3 14
M TOR 37 5 4 3 15
M TOR 38 5 4 7 18
M TOR 39 5 6 7 18
M TOR 40 6 5 4 8
M TOR 41 6 7 1 8
M TOR 42 6 7 4 8
M TOR 43 7 1 0 9
M TOR 44 7 1 0 10
M TOR 45 7 1 0 11
M TOR 46 7 1 2 12
M TOR 47 7 1 2 13
M TOR 48 7 4 3 14
M TOR 49 7 4 3 15
M TOR 50 7 4 5 16
M TOR 51 7 4 5 17
M TOR 52 7 6 5 16
M TOR 53 7 6 5 17
M TOR 54 8 1 0 9
M TOR 55 8 1 0 10
M TOR 56 8 1 0 11
M TOR 57 8 1 2 12
M TOR 58 8 1 2 13
M TOR 59 8 1 7 18
M TOR 60 8 4 3 14
M TOR 61 8 4 3 15
M TOR 62 8 4 5 16
M TOR 63 8 4 5 17
M TOR 64 8 4 7 18
M  END
$$$$
