
     RDKit          3D

 19 21  0  0  0  0  0  0  0  0999 V2000
    0.7090    1.3202   -0.0537 C   0  0  0  0  0  0  0  0  0  0  0  0
    1.5070    0.0322   -0.0371 C   0  0  0  0  0  0  0  0  0  0  0  0
    0.0162   -0.0226    0.0648 C   0  0  0  0  0  0  0  0  0  0  0  0
   -0.6312   -0.5170   -1.0733 O   0  0  0  0  0  0  0  0  0  0  0  0
   -2.0101   -0.1731   -1.1007 C   0  0  0  0  0  0  0  0  0  0  0  0
   -2.7898   -0.8913    0.0078 C   0  0  0  0  0  0  0  0  0  0  0  0
   -2.0626   -0.7917    1.3388 C   0  0  0  0  0  0  0  0  0  0  0  0
   -1.0075   -1.7395    1.5470 O   0  0  0  0  0  0  0  0  0  0  0  0
   -0.6509   -0.3698    1.3576 C   0  0  0  0  0  0  0  0  0  0  0  0
    0.7511    1.9705    0.8139 H   0  0  0  0  0  0  0  0  0  0  0  0
    0.6083    1.8300   -1.0048 H   0  0  0  0  0  0  0  0  0  0  0  0
    1.9297   -0.3039   -0.9768 H   0  0  0  0  0  0  0  0  0  0  0  0
    2.0931   -0.2097    0.8424 H   0  0  0  0  0  0  0  0  0  0  0  0
   -2.1237    0.9173   -0.9955 H   0  0  0  0  0  0  0  0  0  0  0  0
   -2.3764   -0.4588   -2.0902 H   0  0  0  0  0  0  0  0  0  0  0  0
   -3.7909   -0.4538    0.0920 H   0  0  0  0  0  0  0  0  0  0  0  0
   -2.9132   -1.9505   -0.2415 H   0  0  0  0  0  0  0  0  0  0  0  0
   -2.6743   -0.6146    2.2231 H   0  0  0  0  0  0  0  0  0  0  0  0
   -0.2446    0.1258    2.2398 H   0  0  0  0  0  0  0  0  0  0  0  0
  1  2  1  0
  2  3  1  0
  3  4  1  0
  4  5  1  0
  5  6  1  0
  6  7  1  0
  7  8  1  0
  8  9  1  0
  3  1  1  0
  9  3  1  0
  9  7  1  0
  1 10  1  0
  1 11  1  0
  2 12  1  0
  2 13  1  0
  5 14  1  0
  5 15  1  0
  6 16  1  0
  6 17  1  0
  7 18  1  0
  9 19  1  0
M  END
$$$$
