gdb 3942	3.440985	1.4433799	1.2490581	2.2854	74.21	-0.24972	0.0791	0.32882	1053.367	0.158306	-422.531732	-422.524099	-422.523155	-422.563448	30.58
 OpenBabel02181911413D

 19 21  0  0  1  0  0  0  0  0999 V2000
    0.3906   -0.1245    0.3907 O   0  0  0  0  0  0  0  0  0  0  0  0
   -0.4387    0.7321    1.1202 C   0  0  2  0  0  0  0  0  0  0  0  0
   -1.5102    0.1010    2.1066 C   0  0  0  0  0  0  0  0  0  0  0  0
   -2.5942    0.7800    1.2595 C   0  0  1  0  0  0  0  0  0  0  0  0
   -3.7635    1.7107    1.4517 C   0  0  0  0  0  0  0  0  0  0  0  0
   -3.6017    2.7071    0.2580 C   0  0  0  0  0  0  0  0  0  0  0  0
   -2.0783    2.7489   -0.0956 C   0  0  0  0  0  0  0  0  0  0  0  0
   -1.6115    1.3914    0.3576 C   0  0  1  0  0  0  0  0  0  0  0  0
   -2.4357    0.2972   -0.0881 O   0  0  0  0  0  0  0  0  0  0  0  0
   -0.1987   -0.6628   -0.1531 H   0  0  0  0  0  0  0  0  0  0  0  0
    0.2058    1.4555    1.6254 H   0  0  0  0  0  0  0  0  0  0  0  0
   -1.5444   -0.9904    2.1466 H   0  0  0  0  0  0  0  0  0  0  0  0
   -1.4282    0.5026    3.1198 H   0  0  0  0  0  0  0  0  0  0  0  0
   -4.7428    1.2228    1.4507 H   0  0  0  0  0  0  0  0  0  0  0  0
   -3.6527    2.2232    2.4149 H   0  0  0  0  0  0  0  0  0  0  0  0
   -4.1588    2.3304   -0.6021 H   0  0  0  0  0  0  0  0  0  0  0  0
   -3.9952    3.6987    0.4953 H   0  0  0  0  0  0  0  0  0  0  0  0
   -1.9076    2.9639   -1.1545 H   0  0  0  0  0  0  0  0  0  0  0  0
   -1.5559    3.5185    0.4853 H   0  0  0  0  0  0  0  0  0  0  0  0
  1  2  1  0  0  0  0
  2 11  1  1  0  0  0
  2  3  1  0  0  0  0
  3 12  1  0  0  0  0
  3 13  1  0  0  0  0
  4  9  1  6  0  0  0
  4  5  1  0  0  0  0
  4  3  1  0  0  0  0
  5 15  1  0  0  0  0
  6 17  1  0  0  0  0
  6  5  1  0  0  0  0
  7  6  1  0  0  0  0
  7  8  1  0  0  0  0
  7 19  1  0  0  0  0
  8  9  1  6  0  0  0
  8  2  1  0  0  0  0
  8  4  1  0  0  0  0
 10  1  1  0  0  0  0
 14  5  1  0  0  0  0
 16  6  1  0  0  0  0
 18  7  1  0  0  0  0
M TOR 0 0 1 2 3
M TOR 1 0 1 2 11
M TOR 2 0 1 2 12
M TOR 3 0 1 7 3
M TOR 4 0 1 7 6
M TOR 5 0 1 7 8
M TOR 6 1 2 3 4
M TOR 7 1 2 3 7
M TOR 8 1 2 3 8
M TOR 9 1 7 3 4
M TOR 10 1 7 3 8
M TOR 11 1 7 6 5
M TOR 12 1 7 6 17
M TOR 13 1 7 6 18
M TOR 14 2 1 0 9
M TOR 15 2 1 7 6
M TOR 16 2 1 7 8
M TOR 17 2 3 4 5
M TOR 18 2 3 4 13
M TOR 19 2 3 4 14
M TOR 20 2 3 7 6
M TOR 21 2 3 7 8
M TOR 22 3 2 1 10
M TOR 23 3 4 5 6
M TOR 24 3 4 5 15
M TOR 25 3 4 5 16
M TOR 26 3 7 1 10
M TOR 27 3 7 6 5
M TOR 28 3 7 6 17
M TOR 29 3 7 6 18
M TOR 30 3 8 7 6
M TOR 31 4 3 2 11
M TOR 32 4 3 2 12
M TOR 33 4 3 7 6
M TOR 34 4 3 7 8
M TOR 35 4 5 6 7
M TOR 36 4 5 6 17
M TOR 37 4 5 6 18
M TOR 38 5 4 3 7
M TOR 39 5 4 3 8
M TOR 40 5 6 7 8
M TOR 41 6 5 4 13
M TOR 42 6 5 4 14
M TOR 43 6 7 1 10
M TOR 44 7 1 0 9
M TOR 45 7 1 2 11
M TOR 46 7 1 2 12
M TOR 47 7 3 2 11
M TOR 48 7 3 2 12
M TOR 49 7 3 4 13
M TOR 50 7 3 4 14
M TOR 51 7 6 5 15
M TOR 52 7 6 5 16
M TOR 53 8 3 2 11
M TOR 54 8 3 2 12
M TOR 55 8 3 4 13
M TOR 56 8 3 4 14
M TOR 57 8 7 1 10
M TOR 58 8 7 6 17
M TOR 59 8 7 6 18
M  END
$$$$
