gdb 4451	2.8127402	1.4599822	1.0801476	2.9481	76.14	-0.24746	-0.02529	0.22217	1136.7845	0.157429	-422.582967	-422.574587	-422.573643	-422.61587	32.182
 OpenBabel02181911413D

 19 20  0  0  1  0  0  0  0  0999 V2000
   -0.1487    2.3693   -0.4890 O   0  0  0  0  0  0  0  0  0  0  0  0
   -1.0037    1.3554   -0.0415 C   0  0  1  0  0  0  0  0  0  0  0  0
   -1.9699    0.7875   -1.0890 C   0  0  0  0  0  0  0  0  0  0  0  0
   -2.3798   -0.5793   -0.4831 C   0  0  0  0  0  0  0  0  0  0  0  0
   -1.1020   -1.0788    0.1885 C   0  0  0  0  0  0  0  0  0  0  0  0
   -1.0201   -2.2515    1.1465 C   0  0  0  0  0  0  0  0  0  0  0  0
   -0.3940   -2.3708   -0.2013 C   0  0  0  0  0  0  0  0  0  0  0  0
   -0.2394    0.1136    0.4182 C   0  0  0  0  0  0  0  0  0  0  0  0
    0.9012    0.1464    0.8257 O   0  0  0  0  0  0  0  0  0  0  0  0
    0.7122    2.1789   -0.0868 H   0  0  0  0  0  0  0  0  0  0  0  0
   -1.5967    1.6940    0.8315 H   0  0  0  0  0  0  0  0  0  0  0  0
   -2.8218    1.4407   -1.2879 H   0  0  0  0  0  0  0  0  0  0  0  0
   -1.4221    0.6460   -2.0273 H   0  0  0  0  0  0  0  0  0  0  0  0
   -3.1752   -0.4374    0.2589 H   0  0  0  0  0  0  0  0  0  0  0  0
   -2.7618   -1.2710   -1.2381 H   0  0  0  0  0  0  0  0  0  0  0  0
   -0.3648   -2.1317    2.0028 H   0  0  0  0  0  0  0  0  0  0  0  0
   -1.9446   -2.7850    1.3404 H   0  0  0  0  0  0  0  0  0  0  0  0
    0.6875   -2.3225   -0.2654 H   0  0  0  0  0  0  0  0  0  0  0  0
   -0.8830   -2.9832   -0.9512 H   0  0  0  0  0  0  0  0  0  0  0  0
  1 10  1  0  0  0  0
  1  2  1  0  0  0  0
  2  8  1  0  0  0  0
  2 11  1  1  0  0  0
  3  4  1  0  0  0  0
  3  2  1  0  0  0  0
  4  5  1  0  0  0  0
  4 14  1  0  0  0  0
  5  8  1  0  0  0  0
  5  6  1  0  0  0  0
  6 17  1  0  0  0  0
  6 16  1  0  0  0  0
  7  5  1  0  0  0  0
  7  6  1  0  0  0  0
  8  9  2  0  0  0  0
 12  3  1  0  0  0  0
 13  3  1  0  0  0  0
 15  4  1  0  0  0  0
 18  7  1  0  0  0  0
 19  7  1  0  0  0  0
M TOR 0 0 1 2 3
M TOR 1 0 1 2 11
M TOR 2 0 1 2 12
M TOR 3 0 1 7 4
M TOR 4 0 1 7 8
M TOR 5 1 2 3 4
M TOR 6 1 2 3 13
M TOR 7 1 2 3 14
M TOR 8 1 7 4 3
M TOR 9 1 7 4 5
M TOR 10 1 7 4 6
M TOR 11 2 1 0 9
M TOR 12 2 1 7 4
M TOR 13 2 1 7 8
M TOR 14 2 3 4 5
M TOR 15 2 3 4 6
M TOR 16 2 3 4 7
M TOR 17 3 2 1 7
M TOR 18 3 2 1 10
M TOR 19 3 4 5 6
M TOR 20 3 4 5 15
M TOR 21 3 4 5 16
M TOR 22 3 4 6 17
M TOR 23 3 4 6 18
M TOR 24 3 4 7 8
M TOR 25 4 3 2 11
M TOR 26 4 3 2 12
M TOR 27 4 5 6 17
M TOR 28 4 5 6 18
M TOR 29 4 6 5 15
M TOR 30 4 6 5 16
M TOR 31 4 7 1 10
M TOR 32 5 4 3 13
M TOR 33 5 4 3 14
M TOR 34 5 4 7 8
M TOR 35 5 6 4 7
M TOR 36 6 4 3 13
M TOR 37 6 4 3 14
M TOR 38 6 4 7 8
M TOR 39 7 1 0 9
M TOR 40 7 1 2 11
M TOR 41 7 1 2 12
M TOR 42 7 4 3 13
M TOR 43 7 4 3 14
M TOR 44 7 4 5 15
M TOR 45 7 4 5 16
M TOR 46 7 4 6 17
M TOR 47 7 4 6 18
M TOR 48 8 7 1 10
M  END
$$$$
