
     RDKit          3D

 19 21  0  0  0  0  0  0  0  0999 V2000
   -1.8032    1.2024   -2.2583 C   0  0  0  0  0  0  0  0  0  0  0  0
   -1.2706    1.9425   -1.0670 C   0  0  0  0  0  0  0  0  0  0  0  0
   -1.2717    3.4600   -0.9363 C   0  0  0  0  0  0  0  0  0  0  0  0
   -1.9347    2.6179    0.1080 C   0  0  0  0  0  0  0  0  0  0  0  0
   -0.9572    2.1315    1.0368 O   0  0  0  0  0  0  0  0  0  0  0  0
   -0.2975    1.3988   -0.0180 C   0  0  0  0  0  0  0  0  0  0  0  0
    1.2348    1.4639   -0.1259 C   0  0  0  0  0  0  0  0  0  0  0  0
    1.3323    0.0243   -0.0780 O   0  0  0  0  0  0  0  0  0  0  0  0
   -0.0756   -0.1085    0.2059 C   0  0  0  0  0  0  0  0  0  0  0  0
   -2.1521    0.1991   -1.9920 H   0  0  0  0  0  0  0  0  0  0  0  0
   -2.6475    1.7395   -2.7012 H   0  0  0  0  0  0  0  0  0  0  0  0
   -1.0385    1.0953   -3.0368 H   0  0  0  0  0  0  0  0  0  0  0  0
   -0.3689    4.0086   -0.6806 H   0  0  0  0  0  0  0  0  0  0  0  0
   -1.9348    3.9646   -1.6331 H   0  0  0  0  0  0  0  0  0  0  0  0
   -2.9627    2.6898    0.4428 H   0  0  0  0  0  0  0  0  0  0  0  0
    1.6468    1.8806   -1.0529 H   0  0  0  0  0  0  0  0  0  0  0  0
    1.7095    1.9440    0.7392 H   0  0  0  0  0  0  0  0  0  0  0  0
   -0.5720   -0.8027   -0.4818 H   0  0  0  0  0  0  0  0  0  0  0  0
   -0.2712   -0.4120    1.2422 H   0  0  0  0  0  0  0  0  0  0  0  0
  1  2  1  0
  2  3  1  0
  3  4  1  0
  4  5  1  0
  5  6  1  0
  6  7  1  0
  7  8  1  0
  8  9  1  0
  4  2  1  0
  9  6  1  0
  6  2  1  0
  1 10  1  0
  1 11  1  0
  1 12  1  0
  3 13  1  0
  3 14  1  0
  4 15  1  0
  7 16  1  0
  7 17  1  0
  9 18  1  0
  9 19  1  0
M  END
$$$$
