
     RDKit          3D

 19 21  0  0  0  0  0  0  0  0999 V2000
   -0.8515    3.7451   -0.4748 C   0  0  0  0  0  0  0  0  0  0  0  0
   -0.8745    2.7601    0.6558 C   0  0  0  0  0  0  0  0  0  0  0  0
   -0.3897    1.3052    0.7097 C   0  0  0  0  0  0  0  0  0  0  0  0
    1.0060    1.1812    0.5277 O   0  0  0  0  0  0  0  0  0  0  0  0
   -0.9100    1.5102    2.1503 C   0  0  0  0  0  0  0  0  0  0  0  0
   -0.9467    0.5760    3.3234 C   0  0  0  0  0  0  0  0  0  0  0  0
   -2.0522    2.4471    1.6371 C   0  0  0  0  0  0  0  0  0  0  0  0
   -1.7374    3.5365    2.5560 O   0  0  0  0  0  0  0  0  0  0  0  0
   -0.4413    3.0060    2.1421 C   0  0  0  0  0  0  0  0  0  0  0  0
   -1.4503    3.3934   -1.3221 H   0  0  0  0  0  0  0  0  0  0  0  0
   -1.2573    4.7066   -0.1440 H   0  0  0  0  0  0  0  0  0  0  0  0
    0.1714    3.9048   -0.8302 H   0  0  0  0  0  0  0  0  0  0  0  0
   -0.9445    0.5849    0.0901 H   0  0  0  0  0  0  0  0  0  0  0  0
    1.2526    0.2632    0.6762 H   0  0  0  0  0  0  0  0  0  0  0  0
   -1.5620   -0.3066    3.1152 H   0  0  0  0  0  0  0  0  0  0  0  0
    0.0600    0.2303    3.5840 H   0  0  0  0  0  0  0  0  0  0  0  0
   -1.3662    1.0854    4.1971 H   0  0  0  0  0  0  0  0  0  0  0  0
   -3.0988    2.2266    1.4253 H   0  0  0  0  0  0  0  0  0  0  0  0
    0.4631    3.4610    2.5424 H   0  0  0  0  0  0  0  0  0  0  0  0
  1  2  1  0
  2  3  1  0
  3  4  1  0
  3  5  1  0
  5  6  1  0
  5  7  1  0
  7  8  1  0
  8  9  1  0
  7  2  1  0
  9  2  1  0
  9  5  1  0
  1 10  1  0
  1 11  1  0
  1 12  1  0
  3 13  1  0
  4 14  1  0
  6 15  1  0
  6 16  1  0
  6 17  1  0
  7 18  1  0
  9 19  1  0
M  END
$$$$
