gdb 5018	2.4501818	1.3654021	1.0874187	2.9237	76.55	-0.24628	-0.02806	0.21822	1166.1636	0.15627	-422.515832	-422.507099	-422.506155	-422.549654	32.226
 OpenBabel02181911413D

 19 20  0  0  1  0  0  0  0  0999 V2000
   -0.1903    0.4081    0.8955 O   0  0  0  0  0  0  0  0  0  0  0  0
    0.6908   -0.0844   -0.1032 C   0  0  0  0  0  0  0  0  0  0  0  0
    0.3577    0.4380   -1.4762 C   0  0  1  0  0  0  0  0  0  0  0  0
    1.1131    0.1899   -2.8166 C   0  0  0  0  0  0  0  0  0  0  0  0
   -0.0778    1.1301   -3.1755 C   0  0  1  0  0  0  0  0  0  0  0  0
   -0.9658    0.2203   -2.2782 C   0  0  0  0  0  0  0  0  0  0  0  0
    0.2324    1.9619   -1.9000 C   0  0  2  0  0  0  0  0  0  0  0  0
    1.4314    2.8594   -1.8155 C   0  0  0  0  0  0  0  0  0  0  0  0
    2.2607    3.0150   -2.6797 O   0  0  0  0  0  0  0  0  0  0  0  0
   -1.0756    0.0953    0.6827 H   0  0  0  0  0  0  0  0  0  0  0  0
    1.6934    0.2431    0.1935 H   0  0  0  0  0  0  0  0  0  0  0  0
    0.7044   -1.1865   -0.1267 H   0  0  0  0  0  0  0  0  0  0  0  0
    2.1151    0.6031   -2.9165 H   0  0  0  0  0  0  0  0  0  0  0  0
    1.0521   -0.8289   -3.2089 H   0  0  0  0  0  0  0  0  0  0  0  0
   -0.3270    1.5305   -4.1573 H   0  0  0  0  0  0  0  0  0  0  0  0
   -1.8767    0.6676   -1.8686 H   0  0  0  0  0  0  0  0  0  0  0  0
   -1.1428   -0.7951   -2.6439 H   0  0  0  0  0  0  0  0  0  0  0  0
   -0.6220    2.4604   -1.4270 H   0  0  0  0  0  0  0  0  0  0  0  0
    1.5108    3.4122   -0.8505 H   0  0  0  0  0  0  0  0  0  0  0  0
  2 11  1  0  0  0  0
  2  1  1  0  0  0  0
  3  2  1  1  0  0  0
  4  3  1  0  0  0  0
  5 15  1  6  0  0  0
  5  4  1  0  0  0  0
  5  6  1  0  0  0  0
  5  7  1  0  0  0  0
  6 16  1  0  0  0  0
  6  3  1  0  0  0  0
  7  8  1  0  0  0  0
  7  3  1  0  0  0  0
  7 18  1  1  0  0  0
  8 19  1  0  0  0  0
  9  8  2  0  0  0  0
 10  1  1  0  0  0  0
 12  2  1  0  0  0  0
 13  4  1  0  0  0  0
 14  4  1  0  0  0  0
 17  6  1  0  0  0  0
M TOR 0 0 1 2 3
M TOR 1 0 1 2 5
M TOR 2 0 1 2 6
M TOR 3 1 2 3 4
M TOR 4 1 2 3 12
M TOR 5 1 2 3 13
M TOR 6 1 2 5 4
M TOR 7 1 2 5 15
M TOR 8 1 2 5 16
M TOR 9 1 2 6 4
M TOR 10 1 2 6 7
M TOR 11 1 2 6 17
M TOR 12 2 1 0 9
M TOR 13 2 3 4 5
M TOR 14 2 3 4 6
M TOR 15 2 3 4 14
M TOR 16 2 5 4 6
M TOR 17 2 5 4 14
M TOR 18 2 6 4 14
M TOR 19 2 6 7 8
M TOR 20 2 6 7 18
M TOR 21 3 2 1 10
M TOR 22 3 2 1 11
M TOR 23 3 2 5 15
M TOR 24 3 2 5 16
M TOR 25 3 2 6 7
M TOR 26 3 2 6 17
M TOR 27 3 4 5 15
M TOR 28 3 4 5 16
M TOR 29 3 4 6 7
M TOR 30 3 4 6 17
M TOR 31 4 6 7 8
M TOR 32 4 6 7 18
M TOR 33 5 2 1 10
M TOR 34 5 2 1 11
M TOR 35 5 2 3 12
M TOR 36 5 2 3 13
M TOR 37 5 2 6 7
M TOR 38 5 2 6 17
M TOR 39 5 4 3 12
M TOR 40 5 4 3 13
M TOR 41 5 4 6 7
M TOR 42 5 4 6 17
M TOR 43 6 2 1 10
M TOR 44 6 2 1 11
M TOR 45 6 2 3 12
M TOR 46 6 2 3 13
M TOR 47 6 2 5 15
M TOR 48 6 2 5 16
M TOR 49 6 4 3 12
M TOR 50 6 4 3 13
M TOR 51 6 4 5 15
M TOR 52 6 4 5 16
M TOR 53 7 6 4 14
M TOR 54 8 7 6 17
M  END
$$$$
