
     RDKit          3D

 19 21  0  0  0  0  0  0  0  0999 V2000
    0.3859    0.3380    0.5814 O   0  0  0  0  0  0  0  0  0  0  0  0
   -0.9029    0.7299    1.0085 C   0  0  0  0  0  0  0  0  0  0  0  0
   -1.2019    2.1955    0.6405 C   0  0  0  0  0  0  0  0  0  0  0  0
   -0.9430    2.9358    2.0169 C   0  0  0  0  0  0  0  0  0  0  0  0
   -0.7145    1.9442    3.0586 O   0  0  0  0  0  0  0  0  0  0  0  0
   -1.2046    0.7704    2.5037 C   0  0  0  0  0  0  0  0  0  0  0  0
   -0.9525   -0.7567    2.5811 C   0  0  0  0  0  0  0  0  0  0  0  0
   -1.8460   -0.4853    1.2934 C   0  0  0  0  0  0  0  0  0  0  0  0
   -2.7039    0.4443    2.1852 C   0  0  0  0  0  0  0  0  0  0  0  0
    1.0292    0.9486    0.9599 H   0  0  0  0  0  0  0  0  0  0  0  0
   -0.5226    2.5399   -0.1411 H   0  0  0  0  0  0  0  0  0  0  0  0
   -2.2196    2.3778    0.2945 H   0  0  0  0  0  0  0  0  0  0  0  0
   -0.0623    3.5839    1.9906 H   0  0  0  0  0  0  0  0  0  0  0  0
   -1.8088    3.5466    2.2951 H   0  0  0  0  0  0  0  0  0  0  0  0
    0.0618   -1.1016    2.3974 H   0  0  0  0  0  0  0  0  0  0  0  0
   -1.4465   -1.3000    3.3891 H   0  0  0  0  0  0  0  0  0  0  0  0
   -2.2014   -1.2404    0.5950 H   0  0  0  0  0  0  0  0  0  0  0  0
   -3.3072    1.2043    1.6886 H   0  0  0  0  0  0  0  0  0  0  0  0
   -3.2636   -0.0458    2.9836 H   0  0  0  0  0  0  0  0  0  0  0  0
  1  2  1  0
  2  3  1  0
  3  4  1  0
  4  5  1  0
  5  6  1  0
  6  7  1  0
  7  8  1  0
  8  9  1  0
  6  2  1  0
  9  6  1  0
  8  2  1  0
  1 10  1  0
  3 11  1  0
  3 12  1  0
  4 13  1  0
  4 14  1  0
  7 15  1  0
  7 16  1  0
  8 17  1  0
  9 18  1  0
  9 19  1  0
M  END
$$$$
