
     RDKit          3D

 19 21  0  0  0  0  0  0  0  0999 V2000
    0.3180    0.1605    0.3264 O   0  0  0  0  0  0  0  0  0  0  0  0
   -0.9016    0.4299    0.9823 C   0  0  0  0  0  0  0  0  0  0  0  0
   -2.1113   -0.3698    0.4677 C   0  0  0  0  0  0  0  0  0  0  0  0
   -3.3667    0.1803    1.0810 C   0  0  0  0  0  0  0  0  0  0  0  0
   -2.7390    0.9114   -0.0756 C   0  0  0  0  0  0  0  0  0  0  0  0
   -1.5450    1.7320    0.4098 C   0  0  0  0  0  0  0  0  0  0  0  0
   -1.6922    3.0460    1.2010 C   0  0  0  0  0  0  0  0  0  0  0  0
   -0.9477    3.7826    0.2124 O   0  0  0  0  0  0  0  0  0  0  0  0
   -0.7380    2.5937   -0.5810 C   0  0  0  0  0  0  0  0  0  0  0  0
    0.6232   -0.7070    0.6106 H   0  0  0  0  0  0  0  0  0  0  0  0
   -0.7705    0.4167    2.0760 H   0  0  0  0  0  0  0  0  0  0  0  0
   -2.0570   -1.3555    0.0210 H   0  0  0  0  0  0  0  0  0  0  0  0
   -4.2774   -0.3630    0.8508 H   0  0  0  0  0  0  0  0  0  0  0  0
   -3.3499    0.6095    2.0813 H   0  0  0  0  0  0  0  0  0  0  0  0
   -3.2690    1.0794   -1.0061 H   0  0  0  0  0  0  0  0  0  0  0  0
   -2.7206    3.4156    1.3089 H   0  0  0  0  0  0  0  0  0  0  0  0
   -1.2012    3.0643    2.1837 H   0  0  0  0  0  0  0  0  0  0  0  0
   -1.1779    2.6854   -1.5827 H   0  0  0  0  0  0  0  0  0  0  0  0
    0.3203    2.3335   -0.6696 H   0  0  0  0  0  0  0  0  0  0  0  0
  1  2  1  0
  2  3  1  0
  3  4  1  0
  4  5  1  0
  5  6  1  0
  6  7  1  0
  7  8  1  0
  8  9  1  0
  6  2  1  0
  9  6  1  0
  5  3  1  0
  1 10  1  0
  2 11  1  0
  3 12  1  0
  4 13  1  0
  4 14  1  0
  5 15  1  0
  7 16  1  0
  7 17  1  0
  9 18  1  0
  9 19  1  0
M  END
$$$$
