gdb 279	2.5053354	1.9956511	1.5007282	3.1556	73.36	-0.24653	0.06754	0.31407	942.1943	0.159739	-422.526575	-422.519578	-422.518634	-422.557665	28.332
 OpenBabel02181911403D

 19 21  0  0  1  0  0  0  0  0999 V2000
   -0.4021   -0.1292   -2.9432 C   0  0  0  0  0  0  0  0  0  0  0  0
   -1.0254   -1.4365   -2.3945 C   0  0  2  0  0  0  0  0  0  0  0  0
   -2.3591   -1.9000   -2.9824 C   0  0  0  0  0  0  0  0  0  0  0  0
   -3.2659   -0.8170   -3.5994 C   0  0  0  0  0  0  0  0  0  0  0  0
   -3.4473    0.5024   -2.8703 C   0  0  1  0  0  0  0  0  0  0  0  0
   -3.6026    0.5359   -1.4506 O   0  0  0  0  0  0  0  0  0  0  0  0
   -2.4396    1.1470   -2.0127 C   0  0  1  0  0  0  0  0  0  0  0  0
   -1.0888    0.5009   -1.7083 C   0  0  1  0  0  0  0  0  0  0  0  0
   -1.2396   -0.7968   -1.1099 O   0  0  0  0  0  0  0  0  0  0  0  0
    0.6863   -0.1267   -2.8664 H   0  0  0  0  0  0  0  0  0  0  0  0
   -0.7029    0.2227   -3.9312 H   0  0  0  0  0  0  0  0  0  0  0  0
   -0.3460   -2.2894   -2.2897 H   0  0  0  0  0  0  0  0  0  0  0  0
   -2.1737   -2.6589   -3.7527 H   0  0  0  0  0  0  0  0  0  0  0  0
   -2.8863   -2.4037   -2.1649 H   0  0  0  0  0  0  0  0  0  0  0  0
   -2.8995   -0.5590   -4.6027 H   0  0  0  0  0  0  0  0  0  0  0  0
   -4.2595   -1.2541   -3.7596 H   0  0  0  0  0  0  0  0  0  0  0  0
   -4.1370    1.1708   -3.3931 H   0  0  0  0  0  0  0  0  0  0  0  0
   -2.4393    2.2380   -1.9669 H   0  0  0  0  0  0  0  0  0  0  0  0
   -0.4840    1.1644   -1.0814 H   0  0  0  0  0  0  0  0  0  0  0  0
  1 10  1  0  0  0  0
  1  2  1  0  0  0  0
  1  8  1  0  0  0  0
  2 12  1  1  0  0  0
  2  9  1  0  0  0  0
  3  2  1  0  0  0  0
  3 14  1  0  0  0  0
  4  3  1  0  0  0  0
  4  5  1  0  0  0  0
  5 17  1  6  0  0  0
  5  7  1  0  0  0  0
  5  6  1  0  0  0  0
  7 18  1  6  0  0  0
  7  8  1  0  0  0  0
  7  6  1  0  0  0  0
  8  9  1  0  0  0  0
  8 19  1  1  0  0  0
 11  1  1  0  0  0  0
 13  3  1  0  0  0  0
 15  4  1  0  0  0  0
 16  4  1  0  0  0  0
M TOR 0 0 1 2 3
M TOR 1 0 1 2 12
M TOR 2 0 1 2 13
M TOR 3 0 1 8 7
M TOR 4 0 7 6 4
M TOR 5 0 7 6 5
M TOR 6 0 7 6 17
M TOR 7 1 0 7 6
M TOR 8 1 0 7 18
M TOR 9 1 2 3 4
M TOR 10 1 2 3 14
M TOR 11 1 2 3 15
M TOR 12 1 8 7 6
M TOR 13 1 8 7 18
M TOR 14 2 1 0 7
M TOR 15 2 1 0 9
M TOR 16 2 1 0 10
M TOR 17 2 1 8 7
M TOR 18 2 3 4 5
M TOR 19 2 3 4 6
M TOR 20 2 3 4 16
M TOR 21 3 2 1 8
M TOR 22 3 2 1 11
M TOR 23 3 4 5 6
M TOR 24 3 4 6 7
M TOR 25 3 4 6 17
M TOR 26 4 3 2 12
M TOR 27 4 3 2 13
M TOR 28 4 5 6 7
M TOR 29 4 5 6 17
M TOR 30 4 6 7 8
M TOR 31 4 6 7 18
M TOR 32 5 4 3 14
M TOR 33 5 4 3 15
M TOR 34 5 6 4 16
M TOR 35 5 6 7 8
M TOR 36 5 6 7 18
M TOR 37 6 4 3 14
M TOR 38 6 4 3 15
M TOR 39 6 7 0 9
M TOR 40 6 7 0 10
M TOR 41 7 0 1 11
M TOR 42 7 6 4 16
M TOR 43 7 8 1 11
M TOR 44 8 1 0 9
M TOR 45 8 1 0 10
M TOR 46 8 1 2 12
M TOR 47 8 1 2 13
M TOR 48 8 7 0 9
M TOR 49 8 7 0 10
M TOR 50 8 7 6 17
M  END
$$$$
