gdb 2728	2.9165523	1.3226956	1.0977891	2.6932	77.28	-0.24703	-0.03895	0.20808	1165.3499	0.153598	-422.512548	-422.503177	-422.502233	-422.546805	34.215
 OpenBabel02181911413D

 19 20  0  0  1  0  0  0  0  0999 V2000
   -0.2328    0.0073    0.2443 C   0  0  0  0  0  0  0  0  0  0  0  0
    1.2591    0.0008   -0.0224 C   0  0  2  0  0  0  0  0  0  0  0  0
    2.2431   -0.3711    1.1348 C   0  0  1  0  0  0  0  0  0  0  0  0
    2.2979   -1.5973    1.9893 C   0  0  0  0  0  0  0  0  0  0  0  0
    3.3801    0.3645    0.3784 C   0  0  0  0  0  0  0  0  0  0  0  0
    2.1015    1.2496    0.3723 C   0  0  2  0  0  0  0  0  0  0  0  0
    1.9116    0.9283    1.8013 O   0  0  0  0  0  0  0  0  0  0  0  0
    1.9676    2.6757   -0.0490 C   0  0  0  0  0  0  0  0  0  0  0  0
    1.8226    3.0178   -1.1952 O   0  0  0  0  0  0  0  0  0  0  0  0
   -0.4441    0.4352    1.2267 H   0  0  0  0  0  0  0  0  0  0  0  0
   -0.7600    0.5937   -0.5150 H   0  0  0  0  0  0  0  0  0  0  0  0
   -0.6362   -1.0105    0.2119 H   0  0  0  0  0  0  0  0  0  0  0  0
    1.5143   -0.4277   -0.9961 H   0  0  0  0  0  0  0  0  0  0  0  0
    3.0339   -1.4750    2.7894 H   0  0  0  0  0  0  0  0  0  0  0  0
    1.3219   -1.7947    2.4428 H   0  0  0  0  0  0  0  0  0  0  0  0
    2.5813   -2.4655    1.3859 H   0  0  0  0  0  0  0  0  0  0  0  0
    4.1867    0.7388    1.0095 H   0  0  0  0  0  0  0  0  0  0  0  0
    3.7232   -0.0418   -0.5754 H   0  0  0  0  0  0  0  0  0  0  0  0
    2.0234    3.4046    0.7896 H   0  0  0  0  0  0  0  0  0  0  0  0
  1 10  1  0  0  0  0
  2 13  1  6  0  0  0
  2  1  1  0  0  0  0
  2  6  1  0  0  0  0
  2  3  1  0  0  0  0
  3  7  1  0  0  0  0
  3  4  1  1  0  0  0
  4 15  1  0  0  0  0
  4 14  1  0  0  0  0
  5 17  1  0  0  0  0
  5  3  1  0  0  0  0
  6  8  1  6  0  0  0
  6  5  1  0  0  0  0
  6  7  1  0  0  0  0
  8 19  1  0  0  0  0
  9  8  2  0  0  0  0
 11  1  1  0  0  0  0
 12  1  1  0  0  0  0
 16  4  1  0  0  0  0
 18  5  1  0  0  0  0
M TOR 0 0 1 2 3
M TOR 1 0 1 2 4
M TOR 2 0 1 2 6
M TOR 3 0 1 5 4
M TOR 4 0 1 5 6
M TOR 5 0 1 5 7
M TOR 6 1 2 3 13
M TOR 7 1 2 3 14
M TOR 8 1 2 3 15
M TOR 9 1 2 4 5
M TOR 10 1 2 4 16
M TOR 11 1 2 4 17
M TOR 12 1 2 6 5
M TOR 13 1 5 4 16
M TOR 14 1 5 4 17
M TOR 15 1 5 7 8
M TOR 16 1 5 7 18
M TOR 17 2 1 0 9
M TOR 18 2 1 0 10
M TOR 19 2 1 0 11
M TOR 20 2 1 5 7
M TOR 21 2 4 5 6
M TOR 22 2 4 5 7
M TOR 23 2 6 5 7
M TOR 24 3 2 1 5
M TOR 25 3 2 1 12
M TOR 26 3 2 4 5
M TOR 27 3 2 4 16
M TOR 28 3 2 4 17
M TOR 29 3 2 6 5
M TOR 30 4 2 1 12
M TOR 31 4 2 3 13
M TOR 32 4 2 3 14
M TOR 33 4 2 3 15
M TOR 34 4 5 1 12
M TOR 35 4 5 7 8
M TOR 36 4 5 7 18
M TOR 37 5 1 0 9
M TOR 38 5 1 0 10
M TOR 39 5 1 0 11
M TOR 40 6 2 1 12
M TOR 41 6 2 3 13
M TOR 42 6 2 3 14
M TOR 43 6 2 3 15
M TOR 44 6 2 4 16
M TOR 45 6 2 4 17
M TOR 46 6 5 1 12
M TOR 47 6 5 4 16
M TOR 48 6 5 4 17
M TOR 49 6 5 7 8
M TOR 50 6 5 7 18
M TOR 51 7 5 1 12
M TOR 52 7 5 4 16
M TOR 53 7 5 4 17
M  END
$$$$
