gdb 4862	2.3583627	1.433172	1.2342012	4.7153	77.33	-0.26513	-0.04179	0.22333999999999998	1130.7085	0.15593	-422.618837	-422.609821	-422.608877	-422.652417	33.564
 OpenBabel02181911413D

 19 19  0  0  1  0  0  0  0  0999 V2000
    1.9077    1.4710   -0.1297 C   0  0  0  0  0  0  0  0  0  0  0  0
    1.1544    0.1570   -0.3442 C   0  0  0  0  0  0  0  0  0  0  0  0
    1.6073   -0.6641   -1.5689 C   0  0  2  0  0  0  0  0  0  0  0  0
    0.8560   -2.0000   -1.6399 C   0  0  0  0  0  0  0  0  0  0  0  0
    3.0174   -0.9506   -1.4448 O   0  0  0  0  0  0  0  0  0  0  0  0
    3.7109   -0.4621   -2.5241 C   0  0  0  0  0  0  0  0  0  0  0  0
    4.8961   -0.5923   -2.6455 O   0  0  0  0  0  0  0  0  0  0  0  0
    2.7281    0.2020   -3.4169 C   0  0  0  0  0  0  0  0  0  0  0  0
    1.5202    0.0957   -2.8700 C   0  0  0  0  0  0  0  0  0  0  0  0
    1.5506    1.9679    0.7769 H   0  0  0  0  0  0  0  0  0  0  0  0
    2.9797    1.2915   -0.0148 H   0  0  0  0  0  0  0  0  0  0  0  0
    1.7685    2.1622   -0.9663 H   0  0  0  0  0  0  0  0  0  0  0  0
    1.2697   -0.4839    0.5373 H   0  0  0  0  0  0  0  0  0  0  0  0
    0.0795    0.3473   -0.4523 H   0  0  0  0  0  0  0  0  0  0  0  0
    1.0207   -2.5692   -0.7211 H   0  0  0  0  0  0  0  0  0  0  0  0
   -0.2189   -1.8306   -1.7557 H   0  0  0  0  0  0  0  0  0  0  0  0
    1.2091   -2.5937   -2.4866 H   0  0  0  0  0  0  0  0  0  0  0  0
    3.0202    0.6704   -4.3452 H   0  0  0  0  0  0  0  0  0  0  0  0
    0.5802    0.4671   -3.2595 H   0  0  0  0  0  0  0  0  0  0  0  0
  1 11  1  0  0  0  0
  1 10  1  0  0  0  0
  2  1  1  0  0  0  0
  2 13  1  0  0  0  0
  3  4  1  6  0  0  0
  3  5  1  0  0  0  0
  3  2  1  0  0  0  0
  4 15  1  0  0  0  0
  6  5  1  0  0  0  0
  7  6  2  0  0  0  0
  8  9  2  0  0  0  0
  8  6  1  0  0  0  0
  9  3  1  0  0  0  0
 12  1  1  0  0  0  0
 14  2  1  0  0  0  0
 16  4  1  0  0  0  0
 17  4  1  0  0  0  0
 18  8  1  0  0  0  0
 19  9  1  0  0  0  0
M TOR 0 0 1 2 3
M TOR 1 0 1 2 4
M TOR 2 0 1 2 8
M TOR 3 1 2 3 14
M TOR 4 1 2 3 15
M TOR 5 1 2 3 16
M TOR 6 1 2 4 5
M TOR 7 1 2 8 7
M TOR 8 1 2 8 18
M TOR 9 2 1 0 9
M TOR 10 2 1 0 10
M TOR 11 2 1 0 11
M TOR 12 2 4 5 6
M TOR 13 2 4 5 7
M TOR 14 2 8 7 5
M TOR 15 2 8 7 17
M TOR 16 3 2 1 12
M TOR 17 3 2 1 13
M TOR 18 3 2 4 5
M TOR 19 3 2 8 7
M TOR 20 3 2 8 18
M TOR 21 4 2 1 12
M TOR 22 4 2 1 13
M TOR 23 4 2 3 14
M TOR 24 4 2 3 15
M TOR 25 4 2 3 16
M TOR 26 4 2 8 7
M TOR 27 4 2 8 18
M TOR 28 4 5 7 8
M TOR 29 4 5 7 17
M TOR 30 5 4 2 8
M TOR 31 5 7 8 18
M TOR 32 6 5 7 8
M TOR 33 6 5 7 17
M TOR 34 8 2 1 12
M TOR 35 8 2 1 13
M TOR 36 8 2 3 14
M TOR 37 8 2 3 15
M TOR 38 8 2 3 16
M  END
$$$$
