gdb 133	2.5709058	1.9451189	1.9022464	1.1184	72.74	-0.24291	0.08193	0.32484	874.2365	0.160936	-422.545228	-422.538663	-422.537719	-422.575668	27.61
 OpenBabel02181911403D

 19 21  0  0  1  0  0  0  0  0999 V2000
    1.1314    0.5287    3.2788 C   0  0  0  0  0  0  0  0  0  0  0  0
    0.9356   -0.7820    2.5729 C   0  0  2  0  0  0  0  0  0  0  0  0
    0.8720    0.5122    1.7882 C   0  0  1  0  0  0  0  0  0  0  0  0
   -0.5294    0.6506    1.2066 C   0  0  2  0  0  0  0  0  0  0  0  0
   -1.5996    0.6290    2.2951 C   0  0  0  0  0  0  0  0  0  0  0  0
   -1.4319   -0.5469    3.1012 O   0  0  0  0  0  0  0  0  0  0  0  0
   -0.4491   -1.4249    2.5516 C   0  0  1  0  0  0  0  0  0  0  0  0
   -0.8058   -1.6993    1.0811 C   0  0  0  0  0  0  0  0  0  0  0  0
   -0.7671   -0.4735    0.3397 O   0  0  0  0  0  0  0  0  0  0  0  0
    0.3653    0.8669    3.9647 H   0  0  0  0  0  0  0  0  0  0  0  0
    2.1438    0.7741    3.5803 H   0  0  0  0  0  0  0  0  0  0  0  0
    1.7786   -1.4540    2.4476 H   0  0  0  0  0  0  0  0  0  0  0  0
    1.6867    0.7767    1.1234 H   0  0  0  0  0  0  0  0  0  0  0  0
   -0.6405    1.5357    0.5760 H   0  0  0  0  0  0  0  0  0  0  0  0
   -1.5369    1.5118    2.9428 H   0  0  0  0  0  0  0  0  0  0  0  0
   -2.5918    0.6131    1.8258 H   0  0  0  0  0  0  0  0  0  0  0  0
   -0.4981   -2.3425    3.1431 H   0  0  0  0  0  0  0  0  0  0  0  0
   -0.0959   -2.4089    0.6354 H   0  0  0  0  0  0  0  0  0  0  0  0
   -1.8139   -2.1300    1.0160 H   0  0  0  0  0  0  0  0  0  0  0  0
  1 11  1  0  0  0  0
  1 10  1  0  0  0  0
  2 12  1  6  0  0  0
  2  1  1  0  0  0  0
  3 13  1  6  0  0  0
  3  2  1  0  0  0  0
  3  1  1  0  0  0  0
  4 14  1  6  0  0  0
  4  3  1  0  0  0  0
  4  5  1  0  0  0  0
  5 15  1  0  0  0  0
  5  6  1  0  0  0  0
  7  2  1  0  0  0  0
  7  6  1  0  0  0  0
  7 17  1  1  0  0  0
  8  7  1  0  0  0  0
  9  8  1  0  0  0  0
  9  4  1  0  0  0  0
 16  5  1  0  0  0  0
 18  8  1  0  0  0  0
 19  8  1  0  0  0  0
M TOR 0 0 1 2 3
M TOR 1 0 1 2 12
M TOR 2 0 1 6 5
M TOR 3 0 1 6 7
M TOR 4 0 1 6 16
M TOR 5 0 2 1 6
M TOR 6 0 2 1 11
M TOR 7 0 2 3 4
M TOR 8 0 2 3 8
M TOR 9 0 2 3 13
M TOR 10 1 2 0 9
M TOR 11 1 2 0 10
M TOR 12 1 2 3 4
M TOR 13 1 2 3 8
M TOR 14 1 2 3 13
M TOR 15 1 6 5 4
M TOR 16 1 6 7 8
M TOR 17 1 6 7 17
M TOR 18 1 6 7 18
M TOR 19 2 1 6 5
M TOR 20 2 1 6 7
M TOR 21 2 1 6 16
M TOR 22 2 3 4 5
M TOR 23 2 3 4 14
M TOR 24 2 3 4 15
M TOR 25 2 3 8 7
M TOR 26 3 2 0 9
M TOR 27 3 2 0 10
M TOR 28 3 2 1 6
M TOR 29 3 2 1 11
M TOR 30 3 4 5 6
M TOR 31 3 8 7 6
M TOR 32 3 8 7 17
M TOR 33 3 8 7 18
M TOR 34 4 3 2 12
M TOR 35 4 3 8 7
M TOR 36 4 5 6 7
M TOR 37 4 5 6 16
M TOR 38 5 4 3 8
M TOR 39 5 4 3 13
M TOR 40 5 6 1 11
M TOR 41 5 6 7 8
M TOR 42 5 6 7 17
M TOR 43 5 6 7 18
M TOR 44 6 1 0 9
M TOR 45 6 1 0 10
M TOR 46 6 1 2 12
M TOR 47 6 5 4 14
M TOR 48 6 5 4 15
M TOR 49 7 6 1 11
M TOR 50 7 8 3 13
M TOR 51 8 3 2 12
M TOR 52 8 3 4 14
M TOR 53 8 3 4 15
M TOR 54 8 7 6 16
M  END
$$$$
