gdb 2481	3.0216949	1.3308409	1.103269	3.1576	77.36	-0.23682	-0.02264	0.21418	1143.0985	0.156656	-422.559115	-422.550549	-422.549605	-422.592017	32.022
 OpenBabel02181911413D

 19 20  0  0  1  0  0  0  0  0999 V2000
    1.8456    1.4589   -2.6233 C   0  0  0  0  0  0  0  0  0  0  0  0
    0.6355    0.5896   -2.3818 C   0  0  1  0  0  0  0  0  0  0  0  0
   -0.6365    0.8747   -3.1824 C   0  0  0  0  0  0  0  0  0  0  0  0
   -1.3901   -0.4731   -3.1836 C   0  0  0  0  0  0  0  0  0  0  0  0
   -0.4159   -1.4881   -2.9063 O   0  0  0  0  0  0  0  0  0  0  0  0
    0.6509   -0.8840   -2.2535 C   0  0  2  0  0  0  0  0  0  0  0  0
    0.3492   -0.0362   -0.9911 C   0  0  1  0  0  0  0  0  0  0  0  0
    1.3668   -0.0643    0.0726 C   0  0  0  0  0  0  0  0  0  0  0  0
    2.5646   -0.1519   -0.1022 O   0  0  0  0  0  0  0  0  0  0  0  0
    2.7054    1.1076   -2.0520 H   0  0  0  0  0  0  0  0  0  0  0  0
    2.1029    1.4526   -3.6885 H   0  0  0  0  0  0  0  0  0  0  0  0
    1.6451    2.4967   -2.3348 H   0  0  0  0  0  0  0  0  0  0  0  0
   -1.2440    1.6848   -2.7686 H   0  0  0  0  0  0  0  0  0  0  0  0
   -0.3429    1.1633   -4.1975 H   0  0  0  0  0  0  0  0  0  0  0  0
   -2.1710   -0.4938   -2.4123 H   0  0  0  0  0  0  0  0  0  0  0  0
   -1.8583   -0.7120   -4.1417 H   0  0  0  0  0  0  0  0  0  0  0  0
    1.5530   -1.4836   -2.2343 H   0  0  0  0  0  0  0  0  0  0  0  0
   -0.6776   -0.0124   -0.6406 H   0  0  0  0  0  0  0  0  0  0  0  0
    0.9522   -0.0311    1.1046 H   0  0  0  0  0  0  0  0  0  0  0  0
  1 12  1  0  0  0  0
  1 10  1  0  0  0  0
  2  1  1  6  0  0  0
  2  6  1  0  0  0  0
  2  7  1  0  0  0  0
  3 13  1  0  0  0  0
  3  2  1  0  0  0  0
  4  3  1  0  0  0  0
  4  5  1  0  0  0  0
  4 15  1  0  0  0  0
  5  6  1  0  0  0  0
  6 17  1  6  0  0  0
  6  7  1  0  0  0  0
  7 18  1  1  0  0  0
  7  8  1  0  0  0  0
  8 19  1  0  0  0  0
  9  8  2  0  0  0  0
 11  1  1  0  0  0  0
 14  3  1  0  0  0  0
 16  4  1  0  0  0  0
M TOR 0 0 1 2 3
M TOR 1 0 1 2 12
M TOR 2 0 1 2 13
M TOR 3 0 1 5 4
M TOR 4 0 1 5 6
M TOR 5 0 1 5 16
M TOR 6 0 1 6 7
M TOR 7 0 1 6 17
M TOR 8 1 2 3 4
M TOR 9 1 2 3 14
M TOR 10 1 2 3 15
M TOR 11 1 5 4 3
M TOR 12 1 5 6 7
M TOR 13 1 5 6 17
M TOR 14 1 6 5 4
M TOR 15 1 6 5 16
M TOR 16 1 6 7 8
M TOR 17 1 6 7 18
M TOR 18 2 1 0 9
M TOR 19 2 1 0 10
M TOR 20 2 1 0 11
M TOR 21 2 1 5 4
M TOR 22 2 1 5 6
M TOR 23 2 1 5 16
M TOR 24 2 1 6 7
M TOR 25 2 1 6 17
M TOR 26 2 3 4 5
M TOR 27 3 2 1 5
M TOR 28 3 2 1 6
M TOR 29 3 4 5 6
M TOR 30 3 4 5 16
M TOR 31 4 3 2 12
M TOR 32 4 3 2 13
M TOR 33 4 5 6 7
M TOR 34 4 5 6 17
M TOR 35 5 1 0 9
M TOR 36 5 1 0 10
M TOR 37 5 1 0 11
M TOR 38 5 1 2 12
M TOR 39 5 1 2 13
M TOR 40 5 4 3 14
M TOR 41 5 4 3 15
M TOR 42 5 6 7 8
M TOR 43 5 6 7 18
M TOR 44 6 1 0 9
M TOR 45 6 1 0 10
M TOR 46 6 1 0 11
M TOR 47 6 1 2 12
M TOR 48 6 1 2 13
M TOR 49 7 6 5 16
M TOR 50 8 7 6 17
M  END
$$$$
