gdb 2256	2.7336057	1.8547161	1.635898	1.4248	73.66	-0.239	0.07453	0.31353	912.1583	0.159173	-422.536221	-422.52926	-422.528316	-422.566896	29.359
 OpenBabel02181911413D

 19 21  0  0  1  0  0  0  0  0999 V2000
    0.3837    0.1234    0.3339 O   0  0  0  0  0  0  0  0  0  0  0  0
   -0.6197    1.0487    0.6111 C   0  0  1  0  0  0  0  0  0  0  0  0
   -0.7929    1.7054    1.9900 C   0  0  0  0  0  0  0  0  0  0  0  0
   -2.2429    2.0200    1.5200 C   0  0  1  0  0  0  0  0  0  0  0  0
   -2.3179    3.2680    0.8482 O   0  0  0  0  0  0  0  0  0  0  0  0
   -1.2301    3.4143   -0.0688 C   0  0  0  0  0  0  0  0  0  0  0  0
   -0.8448    2.0363   -0.5993 C   0  0  2  0  0  0  0  0  0  0  0  0
   -2.1537    1.2723   -0.9576 C   0  0  0  0  0  0  0  0  0  0  0  0
   -2.1667    0.8067    0.5033 C   0  0  1  0  0  0  0  0  0  0  0  0
    0.3862   -0.5383    1.0344 H   0  0  0  0  0  0  0  0  0  0  0  0
   -0.7981    0.9404    2.7754 H   0  0  0  0  0  0  0  0  0  0  0  0
   -0.1559    2.5380    2.3024 H   0  0  0  0  0  0  0  0  0  0  0  0
   -3.0431    2.0097    2.2595 H   0  0  0  0  0  0  0  0  0  0  0  0
   -1.5805    4.0701   -0.8730 H   0  0  0  0  0  0  0  0  0  0  0  0
   -0.3753    3.9051    0.4198 H   0  0  0  0  0  0  0  0  0  0  0  0
   -0.0347    2.0764   -1.3294 H   0  0  0  0  0  0  0  0  0  0  0  0
   -2.9938    1.8712   -1.3194 H   0  0  0  0  0  0  0  0  0  0  0  0
   -1.9721    0.4368   -1.6376 H   0  0  0  0  0  0  0  0  0  0  0  0
   -2.6708   -0.1069    0.8254 H   0  0  0  0  0  0  0  0  0  0  0  0
  1 10  1  0  0  0  0
  2  1  1  6  0  0  0
  2  3  1  0  0  0  0
  3 12  1  0  0  0  0
  3 11  1  0  0  0  0
  4  3  1  0  0  0  0
  4 13  1  1  0  0  0
  5  4  1  0  0  0  0
  6 15  1  0  0  0  0
  6  5  1  0  0  0  0
  7 16  1  6  0  0  0
  7  6  1  0  0  0  0
  7  2  1  0  0  0  0
  8  7  1  0  0  0  0
  8  9  1  0  0  0  0
  9  2  1  0  0  0  0
  9 19  1  1  0  0  0
  9  4  1  0  0  0  0
 14  6  1  0  0  0  0
 17  8  1  0  0  0  0
 18  8  1  0  0  0  0
M TOR 0 0 1 2 3
M TOR 1 0 1 2 10
M TOR 2 0 1 2 11
M TOR 3 0 1 6 5
M TOR 4 0 1 6 7
M TOR 5 0 1 6 15
M TOR 6 0 1 8 3
M TOR 7 0 1 8 7
M TOR 8 0 1 8 18
M TOR 9 1 2 3 4
M TOR 10 1 2 3 8
M TOR 11 1 2 3 12
M TOR 12 1 6 5 4
M TOR 13 1 6 5 13
M TOR 14 1 6 5 14
M TOR 15 1 6 7 8
M TOR 16 1 6 7 16
M TOR 17 1 6 7 17
M TOR 18 1 8 3 4
M TOR 19 1 8 3 12
M TOR 20 1 8 7 16
M TOR 21 1 8 7 17
M TOR 22 2 1 0 9
M TOR 23 2 1 6 5
M TOR 24 2 1 6 7
M TOR 25 2 1 6 15
M TOR 26 2 1 8 7
M TOR 27 2 1 8 18
M TOR 28 2 3 4 5
M TOR 29 2 3 8 7
M TOR 30 2 3 8 18
M TOR 31 3 2 1 6
M TOR 32 3 4 5 6
M TOR 33 3 4 5 13
M TOR 34 3 4 5 14
M TOR 35 3 8 1 6
M TOR 36 3 8 7 6
M TOR 37 3 8 7 16
M TOR 38 3 8 7 17
M TOR 39 4 3 2 10
M TOR 40 4 3 2 11
M TOR 41 4 3 8 7
M TOR 42 4 3 8 18
M TOR 43 4 5 6 7
M TOR 44 4 5 6 15
M TOR 45 5 4 3 8
M TOR 46 5 4 3 12
M TOR 47 5 6 1 8
M TOR 48 5 6 7 8
M TOR 49 5 6 7 16
M TOR 50 5 6 7 17
M TOR 51 6 1 0 9
M TOR 52 6 1 2 10
M TOR 53 6 1 2 11
M TOR 54 6 1 8 18
M TOR 55 6 7 8 18
M TOR 56 7 6 5 13
M TOR 57 7 6 5 14
M TOR 58 7 8 3 12
M TOR 59 8 1 0 9
M TOR 60 8 1 2 10
M TOR 61 8 1 2 11
M TOR 62 8 1 6 15
M TOR 63 8 3 2 10
M TOR 64 8 3 2 11
M TOR 65 8 7 6 15
M  END
$$$$
