
     RDKit          3D

 19 21  0  0  0  0  0  0  0  0999 V2000
   -0.0660    0.0444    0.0849 C   0  0  0  0  0  0  0  0  0  0  0  0
    1.4420    0.0015    0.0689 C   0  0  0  0  0  0  0  0  0  0  0  0
    1.9983    0.0179   -1.2763 O   0  0  0  0  0  0  0  0  0  0  0  0
    2.7441    1.2268   -1.0035 C   0  0  0  0  0  0  0  0  0  0  0  0
    2.3175    1.2212    0.4755 C   0  0  0  0  0  0  0  0  0  0  0  0
    3.1887    0.4944    1.5210 C   0  0  0  0  0  0  0  0  0  0  0  0
    3.5946   -0.8498    0.8724 C   0  0  0  0  0  0  0  0  0  0  0  0
    2.0782   -1.0412    1.0335 C   0  0  0  0  0  0  0  0  0  0  0  0
    2.1455   -0.2359    2.2598 O   0  0  0  0  0  0  0  0  0  0  0  0
   -0.4276    0.0579    1.1173 H   0  0  0  0  0  0  0  0  0  0  0  0
   -0.4420    0.9323   -0.4316 H   0  0  0  0  0  0  0  0  0  0  0  0
   -0.4753   -0.8386   -0.4184 H   0  0  0  0  0  0  0  0  0  0  0  0
    3.8143    1.1146   -1.2156 H   0  0  0  0  0  0  0  0  0  0  0  0
    2.3539    2.0728   -1.5818 H   0  0  0  0  0  0  0  0  0  0  0  0
    1.8357    2.1153    0.8696 H   0  0  0  0  0  0  0  0  0  0  0  0
    3.8553    1.0771    2.1563 H   0  0  0  0  0  0  0  0  0  0  0  0
    4.0327   -0.8783   -0.1250 H   0  0  0  0  0  0  0  0  0  0  0  0
    4.1500   -1.4701    1.5756 H   0  0  0  0  0  0  0  0  0  0  0  0
    1.5930   -2.0092    1.1598 H   0  0  0  0  0  0  0  0  0  0  0  0
  1  2  1  0
  2  3  1  0
  3  4  1  0
  4  5  1  0
  5  6  1  0
  6  7  1  0
  7  8  1  0
  8  9  1  0
  5  2  1  0
  9  6  1  0
  8  2  1  0
  1 10  1  0
  1 11  1  0
  1 12  1  0
  4 13  1  0
  4 14  1  0
  5 15  1  0
  6 16  1  0
  7 17  1  0
  7 18  1  0
  8 19  1  0
M  END
$$$$
