
     RDKit          3D

 19 18  0  0  0  0  0  0  0  0999 V2000
    2.6545    0.9912    2.4036 C   0  0  0  0  0  0  0  0  0  0  0  0
    3.1793   -0.0783    1.4475 C   0  0  0  0  0  0  0  0  0  0  0  0
    4.7088   -0.0619    1.3825 C   0  0  0  0  0  0  0  0  0  0  0  0
    2.5740    0.0871    0.0291 C   0  0  0  0  0  0  0  0  0  0  0  0
    1.1205   -0.0002   -0.0147 C   0  0  0  0  0  0  0  0  0  0  0  0
   -0.0782   -0.0798   -0.0513 C   0  0  0  0  0  0  0  0  0  0  0  0
    2.7142   -1.3287    2.0568 O   0  0  0  0  0  0  0  0  0  0  0  0
    2.9495   -2.5113    1.4833 C   0  0  0  0  0  0  0  0  0  0  0  0
    3.5439   -2.7312    0.4611 O   0  0  0  0  0  0  0  0  0  0  0  0
    3.0564    0.8305    3.4074 H   0  0  0  0  0  0  0  0  0  0  0  0
    2.9613    1.9839    2.0617 H   0  0  0  0  0  0  0  0  0  0  0  0
    1.5640    0.9595    2.4523 H   0  0  0  0  0  0  0  0  0  0  0  0
    5.1277   -0.2356    2.3777 H   0  0  0  0  0  0  0  0  0  0  0  0
    5.0854   -0.8263    0.7026 H   0  0  0  0  0  0  0  0  0  0  0  0
    5.0509    0.9186    1.0374 H   0  0  0  0  0  0  0  0  0  0  0  0
    2.8968    1.0659   -0.3474 H   0  0  0  0  0  0  0  0  0  0  0  0
    3.0091   -0.6696   -0.6285 H   0  0  0  0  0  0  0  0  0  0  0  0
   -1.1370   -0.1503   -0.0910 H   0  0  0  0  0  0  0  0  0  0  0  0
    2.4984   -3.2919    2.1170 H   0  0  0  0  0  0  0  0  0  0  0  0
  1  2  1  0
  2  3  1  0
  2  4  1  0
  4  5  1  0
  5  6  3  0
  2  7  1  0
  7  8  1  0
  8  9  2  0
  1 10  1  0
  1 11  1  0
  1 12  1  0
  3 13  1  0
  3 14  1  0
  3 15  1  0
  4 16  1  0
  4 17  1  0
  6 18  1  0
  8 19  1  0
M  END
$$$$
