
     RDKit          3D

 19 19  0  0  0  0  0  0  0  0999 V2000
    0.2845    0.3114   -0.6080 C   0  0  0  0  0  0  0  0  0  0  0  0
    0.9449   -0.6006    0.4103 C   0  0  0  0  0  0  0  0  0  0  0  0
    1.7019    0.2189    1.2964 O   0  0  0  0  0  0  0  0  0  0  0  0
    2.3477   -0.5272    2.2913 C   0  0  0  0  0  0  0  0  0  0  0  0
    3.2809   -1.4328    1.7641 O   0  0  0  0  0  0  0  0  0  0  0  0
    2.6499   -2.3758    0.9189 C   0  0  0  0  0  0  0  0  0  0  0  0
    1.8896   -1.6588   -0.2220 C   0  0  0  0  0  0  0  0  0  0  0  0
    1.1759   -2.6186   -1.0505 C   0  0  0  0  0  0  0  0  0  0  0  0
    0.5797   -3.4349   -1.7021 C   0  0  0  0  0  0  0  0  0  0  0  0
   -0.3582    1.0364   -0.1020 H   0  0  0  0  0  0  0  0  0  0  0  0
    1.0431    0.8613   -1.1734 H   0  0  0  0  0  0  0  0  0  0  0  0
   -0.3196   -0.2733   -1.3058 H   0  0  0  0  0  0  0  0  0  0  0  0
    0.1750   -1.1406    0.9880 H   0  0  0  0  0  0  0  0  0  0  0  0
    2.9006    0.1777    2.9147 H   0  0  0  0  0  0  0  0  0  0  0  0
    1.5989   -1.0734    2.8974 H   0  0  0  0  0  0  0  0  0  0  0  0
    3.4315   -3.0250    0.5191 H   0  0  0  0  0  0  0  0  0  0  0  0
    1.9411   -2.9966    1.4909 H   0  0  0  0  0  0  0  0  0  0  0  0
    2.6273   -1.1161   -0.8271 H   0  0  0  0  0  0  0  0  0  0  0  0
    0.0594   -4.1483   -2.2921 H   0  0  0  0  0  0  0  0  0  0  0  0
  1  2  1  0
  2  3  1  0
  3  4  1  0
  4  5  1  0
  5  6  1  0
  6  7  1  0
  7  8  1  0
  8  9  3  0
  7  2  1  0
  1 10  1  0
  1 11  1  0
  1 12  1  0
  2 13  1  0
  4 14  1  0
  4 15  1  0
  6 16  1  0
  6 17  1  0
  7 18  1  0
  9 19  1  0
M  END
$$$$
