
     RDKit          3D

 19 21  0  0  0  0  0  0  0  0999 V2000
    0.1256    0.2024    0.0969 O   0  0  0  0  0  0  0  0  0  0  0  0
   -0.7929    0.6515    1.0422 C   0  0  0  0  0  0  0  0  0  0  0  0
   -1.1094    2.1520    0.8944 C   0  0  0  0  0  0  0  0  0  0  0  0
   -2.6341    1.8621    1.0193 C   0  0  0  0  0  0  0  0  0  0  0  0
   -2.3629    0.3372    1.0960 C   0  0  0  0  0  0  0  0  0  0  0  0
   -2.1802   -0.1572    2.5313 C   0  0  0  0  0  0  0  0  0  0  0  0
   -1.8775   -1.5684    2.5847 O   0  0  0  0  0  0  0  0  0  0  0  0
   -0.4632   -1.3107    2.7070 C   0  0  0  0  0  0  0  0  0  0  0  0
   -0.6552    0.1994    2.5205 C   0  0  0  0  0  0  0  0  0  0  0  0
    0.2054   -0.7552    0.1670 H   0  0  0  0  0  0  0  0  0  0  0  0
   -0.6620    2.8162    1.6393 H   0  0  0  0  0  0  0  0  0  0  0  0
   -0.8265    2.5010   -0.1009 H   0  0  0  0  0  0  0  0  0  0  0  0
   -3.1199    2.2816    1.9056 H   0  0  0  0  0  0  0  0  0  0  0  0
   -3.2125    2.1644    0.1446 H   0  0  0  0  0  0  0  0  0  0  0  0
   -2.8941   -0.3254    0.4123 H   0  0  0  0  0  0  0  0  0  0  0  0
   -2.8974    0.1483    3.2989 H   0  0  0  0  0  0  0  0  0  0  0  0
   -0.0865   -1.5947    3.6982 H   0  0  0  0  0  0  0  0  0  0  0  0
    0.1313   -1.8495    1.9543 H   0  0  0  0  0  0  0  0  0  0  0  0
   -0.1445    0.8682    3.2140 H   0  0  0  0  0  0  0  0  0  0  0  0
  1  2  1  0
  2  3  1  0
  3  4  1  0
  4  5  1  0
  5  6  1  0
  6  7  1  0
  7  8  1  0
  8  9  1  0
  5  2  1  0
  9  6  1  0
  9  2  1  0
  1 10  1  0
  3 11  1  0
  3 12  1  0
  4 13  1  0
  4 14  1  0
  5 15  1  0
  6 16  1  0
  8 17  1  0
  8 18  1  0
  9 19  1  0
M  END
$$$$
