
     RDKit          3D

 19 20  0  0  0  0  0  0  0  0999 V2000
   -3.2017    0.9334    3.4574 C   0  0  0  0  0  0  0  0  0  0  0  0
   -2.2885    0.9033    2.2662 C   0  0  0  0  0  0  0  0  0  0  0  0
   -1.0171    1.6183    2.4063 O   0  0  0  0  0  0  0  0  0  0  0  0
   -1.0009    0.1979    2.1574 C   0  0  0  0  0  0  0  0  0  0  0  0
   -0.3358   -0.6682    3.1871 C   0  0  0  0  0  0  0  0  0  0  0  0
   -0.7352   -0.0630    0.6610 C   0  0  0  0  0  0  0  0  0  0  0  0
    0.4578    0.5666    0.2219 O   0  0  0  0  0  0  0  0  0  0  0  0
   -1.9810    0.4921   -0.0121 C   0  0  0  0  0  0  0  0  0  0  0  0
   -2.8286    1.0245    0.8677 C   0  0  0  0  0  0  0  0  0  0  0  0
   -3.9613    0.1483    3.3793 H   0  0  0  0  0  0  0  0  0  0  0  0
   -2.6454    0.7930    4.3863 H   0  0  0  0  0  0  0  0  0  0  0  0
   -3.7212    1.8962    3.5163 H   0  0  0  0  0  0  0  0  0  0  0  0
   -0.6476   -1.7122    3.0764 H   0  0  0  0  0  0  0  0  0  0  0  0
    0.7510   -0.6266    3.0552 H   0  0  0  0  0  0  0  0  0  0  0  0
   -0.5702   -0.3361    4.2008 H   0  0  0  0  0  0  0  0  0  0  0  0
   -0.5989   -1.1321    0.4602 H   0  0  0  0  0  0  0  0  0  0  0  0
    0.3963    1.4743    0.5504 H   0  0  0  0  0  0  0  0  0  0  0  0
   -2.0838    0.5028   -1.0911 H   0  0  0  0  0  0  0  0  0  0  0  0
   -3.7696    1.5136    0.6424 H   0  0  0  0  0  0  0  0  0  0  0  0
  1  2  1  0
  2  3  1  0
  3  4  1  0
  4  5  1  0
  4  6  1  0
  6  7  1  0
  6  8  1  0
  8  9  2  0
  4  2  1  0
  9  2  1  0
  1 10  1  0
  1 11  1  0
  1 12  1  0
  5 13  1  0
  5 14  1  0
  5 15  1  0
  6 16  1  0
  7 17  1  0
  8 18  1  0
  9 19  1  0
M  END
$$$$
