
     RDKit          3D

 19 20  0  0  0  0  0  0  0  0999 V2000
   -1.8516    0.0551    2.4627 C   0  0  0  0  0  0  0  0  0  0  0  0
   -2.5591    0.0630    1.1175 C   0  0  0  0  0  0  0  0  0  0  0  0
   -2.2952   -1.0226    0.0207 C   0  0  0  0  0  0  0  0  0  0  0  0
   -2.6964    0.0582   -1.0246 C   0  0  0  0  0  0  0  0  0  0  0  0
   -2.1669    1.0754    0.0085 C   0  0  0  0  0  0  0  0  0  0  0  0
   -0.7332    1.1970   -0.0984 O   0  0  0  0  0  0  0  0  0  0  0  0
   -0.0029    0.0520   -0.1821 C   0  0  0  0  0  0  0  0  0  0  0  0
    1.1898    0.1108   -0.2941 O   0  0  0  0  0  0  0  0  0  0  0  0
   -0.7899   -1.2592   -0.1133 C   0  0  0  0  0  0  0  0  0  0  0  0
   -2.1371   -0.8278    3.0447 H   0  0  0  0  0  0  0  0  0  0  0  0
   -0.7626    0.0562    2.3679 H   0  0  0  0  0  0  0  0  0  0  0  0
   -2.1263    0.9397    3.0468 H   0  0  0  0  0  0  0  0  0  0  0  0
   -3.6412    0.1427    1.2675 H   0  0  0  0  0  0  0  0  0  0  0  0
   -2.8586   -1.9572    0.0634 H   0  0  0  0  0  0  0  0  0  0  0  0
   -2.2087    0.0432   -2.0027 H   0  0  0  0  0  0  0  0  0  0  0  0
   -3.7782    0.1393   -1.1496 H   0  0  0  0  0  0  0  0  0  0  0  0
   -2.5409    2.0990    0.0320 H   0  0  0  0  0  0  0  0  0  0  0  0
   -0.5537   -1.8255   -1.0208 H   0  0  0  0  0  0  0  0  0  0  0  0
   -0.3806   -1.8354    0.7232 H   0  0  0  0  0  0  0  0  0  0  0  0
  1  2  1  0
  2  3  1  0
  3  4  1  0
  4  5  1  0
  5  6  1  0
  6  7  1  0
  7  8  2  0
  7  9  1  0
  5  2  1  0
  9  3  1  0
  1 10  1  0
  1 11  1  0
  1 12  1  0
  2 13  1  0
  3 14  1  0
  4 15  1  0
  4 16  1  0
  5 17  1  0
  9 18  1  0
  9 19  1  0
M  END
$$$$
