
     RDKit          3D

 19 19  0  0  0  0  0  0  0  0999 V2000
   -1.2218   -1.1139    2.5158 C   0  0  0  0  0  0  0  0  0  0  0  0
   -1.9219   -0.8931    1.1635 C   0  0  0  0  0  0  0  0  0  0  0  0
   -2.2433    0.6001    0.8968 C   0  0  0  0  0  0  0  0  0  0  0  0
   -0.9554    1.2024    0.3182 C   0  0  0  0  0  0  0  0  0  0  0  0
   -0.2198    0.0319   -0.3402 C   0  0  0  0  0  0  0  0  0  0  0  0
    0.7783    0.1021   -1.0063 O   0  0  0  0  0  0  0  0  0  0  0  0
   -0.9715   -1.2664   -0.0074 C   0  0  0  0  0  0  0  0  0  0  0  0
   -3.1589   -1.7732    1.1001 C   0  0  0  0  0  0  0  0  0  0  0  0
   -4.2415   -1.4259    0.7033 O   0  0  0  0  0  0  0  0  0  0  0  0
   -1.0031   -2.1750    2.6778 H   0  0  0  0  0  0  0  0  0  0  0  0
   -0.2709   -0.5737    2.5606 H   0  0  0  0  0  0  0  0  0  0  0  0
   -1.8450   -0.7649    3.3454 H   0  0  0  0  0  0  0  0  0  0  0  0
   -3.0621    0.6540    0.1741 H   0  0  0  0  0  0  0  0  0  0  0  0
   -2.5842    1.1061    1.8035 H   0  0  0  0  0  0  0  0  0  0  0  0
   -1.1143    2.0081   -0.4031 H   0  0  0  0  0  0  0  0  0  0  0  0
   -0.2987    1.6079    1.0977 H   0  0  0  0  0  0  0  0  0  0  0  0
   -1.5402   -1.5433   -0.9054 H   0  0  0  0  0  0  0  0  0  0  0  0
   -0.2774   -2.0828    0.2045 H   0  0  0  0  0  0  0  0  0  0  0  0
   -2.9876   -2.8212    1.4417 H   0  0  0  0  0  0  0  0  0  0  0  0
  1  2  1  0
  2  3  1  0
  3  4  1  0
  4  5  1  0
  5  6  2  0
  5  7  1  0
  2  8  1  0
  8  9  2  0
  7  2  1  0
  1 10  1  0
  1 11  1  0
  1 12  1  0
  3 13  1  0
  3 14  1  0
  4 15  1  0
  4 16  1  0
  7 17  1  0
  7 18  1  0
  8 19  1  0
M  END
$$$$
