gdb 3312	3.0389888	1.2533792	1.0973453	4.4118	75.54	-0.26012	0.01583	0.27595000000000003	1177.6491	0.158012	-422.590328	-422.582062	-422.581118	-422.623172	31.261
 OpenBabel02181911413D

 19 20  0  0  1  0  0  0  0  0999 V2000
   -4.6068    1.0189   -0.5023 C   0  0  0  0  0  0  0  0  0  0  0  0
   -3.2002    0.4854   -0.3470 C   0  0  1  0  0  0  0  0  0  0  0  0
   -2.4586   -0.0482   -1.5479 C   0  0  2  0  0  0  0  0  0  0  0  0
   -1.4818   -1.1922   -1.4036 C   0  0  0  0  0  0  0  0  0  0  0  0
   -0.8156   -1.2206   -0.1315 O   0  0  0  0  0  0  0  0  0  0  0  0
   -0.3323   -0.0836    0.4349 C   0  0  0  0  0  0  0  0  0  0  0  0
    0.3278   -0.1659    1.4335 O   0  0  0  0  0  0  0  0  0  0  0  0
   -0.6778    1.2372   -0.2389 C   0  0  0  0  0  0  0  0  0  0  0  0
   -2.0305    1.2525   -0.9246 C   0  0  2  0  0  0  0  0  0  0  0  0
   -4.8474    1.7381    0.2880 H   0  0  0  0  0  0  0  0  0  0  0  0
   -4.7326    1.5284   -1.4638 H   0  0  0  0  0  0  0  0  0  0  0  0
   -5.3455    0.2115   -0.4556 H   0  0  0  0  0  0  0  0  0  0  0  0
   -3.0145   -0.0308    0.5916 H   0  0  0  0  0  0  0  0  0  0  0  0
   -2.9680   -0.0250   -2.5073 H   0  0  0  0  0  0  0  0  0  0  0  0
   -1.9800   -2.1635   -1.4742 H   0  0  0  0  0  0  0  0  0  0  0  0
   -0.7250   -1.1478   -2.1993 H   0  0  0  0  0  0  0  0  0  0  0  0
   -0.5852    2.0091    0.5293 H   0  0  0  0  0  0  0  0  0  0  0  0
    0.1100    1.4359   -0.9794 H   0  0  0  0  0  0  0  0  0  0  0  0
   -2.2656    2.1739   -1.4496 H   0  0  0  0  0  0  0  0  0  0  0  0
  1 12  1  0  0  0  0
  1  2  1  0  0  0  0
  1 10  1  0  0  0  0
  2 13  1  1  0  0  0
  3 14  1  6  0  0  0
  3  4  1  0  0  0  0
  3  9  1  0  0  0  0
  3  2  1  0  0  0  0
  4  5  1  0  0  0  0
  5  6  1  0  0  0  0
  6  7  2  0  0  0  0
  8  6  1  0  0  0  0
  8 17  1  0  0  0  0
  9 19  1  6  0  0  0
  9  2  1  0  0  0  0
  9  8  1  0  0  0  0
 11  1  1  0  0  0  0
 15  4  1  0  0  0  0
 16  4  1  0  0  0  0
 18  8  1  0  0  0  0
M TOR 0 0 1 2 3
M TOR 1 0 1 2 8
M TOR 2 0 1 2 13
M TOR 3 0 1 8 7
M TOR 4 0 1 8 18
M TOR 5 1 2 3 4
M TOR 6 1 2 3 14
M TOR 7 1 2 3 15
M TOR 8 1 2 8 7
M TOR 9 1 2 8 18
M TOR 10 1 8 2 3
M TOR 11 1 8 2 13
M TOR 12 1 8 7 5
M TOR 13 1 8 7 16
M TOR 14 1 8 7 17
M TOR 15 2 1 0 9
M TOR 16 2 1 0 10
M TOR 17 2 1 0 11
M TOR 18 2 3 4 5
M TOR 19 2 8 1 12
M TOR 20 2 8 7 5
M TOR 21 2 8 7 16
M TOR 22 2 8 7 17
M TOR 23 3 2 1 12
M TOR 24 3 2 8 7
M TOR 25 3 2 8 18
M TOR 26 3 4 5 6
M TOR 27 3 4 5 7
M TOR 28 4 3 2 8
M TOR 29 4 3 2 13
M TOR 30 4 5 7 8
M TOR 31 4 5 7 16
M TOR 32 4 5 7 17
M TOR 33 5 4 3 14
M TOR 34 5 4 3 15
M TOR 35 5 7 8 18
M TOR 36 6 5 7 8
M TOR 37 6 5 7 16
M TOR 38 6 5 7 17
M TOR 39 7 8 1 12
M TOR 40 7 8 2 13
M TOR 41 8 1 0 9
M TOR 42 8 1 0 10
M TOR 43 8 1 0 11
M TOR 44 8 2 3 14
M TOR 45 8 2 3 15
M  END
$$$$
