
     RDKit          3D

 19 20  0  0  0  0  0  0  0  0999 V2000
   -3.0541   -0.9231    0.9627 C   0  0  0  0  0  0  0  0  0  0  0  0
   -2.3811   -0.8315   -0.4050 C   0  0  0  0  0  0  0  0  0  0  0  0
   -0.9309   -1.3425   -0.4105 C   0  0  0  0  0  0  0  0  0  0  0  0
   -0.1153   -0.0666   -0.1950 C   0  0  0  0  0  0  0  0  0  0  0  0
    1.0458    0.0250    0.1174 O   0  0  0  0  0  0  0  0  0  0  0  0
   -1.0604    1.0640   -0.4405 C   0  0  0  0  0  0  0  0  0  0  0  0
   -0.5884    2.3700   -1.0101 C   0  0  0  0  0  0  0  0  0  0  0  0
   -0.9852    2.2992    0.4395 C   0  0  0  0  0  0  0  0  0  0  0  0
   -2.2942    0.5423   -0.8481 O   0  0  0  0  0  0  0  0  0  0  0  0
   -2.4483   -0.4374    1.7350 H   0  0  0  0  0  0  0  0  0  0  0  0
   -4.0317   -0.4348    0.9354 H   0  0  0  0  0  0  0  0  0  0  0  0
   -3.1963   -1.9702    1.2504 H   0  0  0  0  0  0  0  0  0  0  0  0
   -2.9961   -1.3402   -1.1522 H   0  0  0  0  0  0  0  0  0  0  0  0
   -0.7071   -2.0915    0.3515 H   0  0  0  0  0  0  0  0  0  0  0  0
   -0.6548   -1.7588   -1.3861 H   0  0  0  0  0  0  0  0  0  0  0  0
    0.4665    2.4417   -1.2522 H   0  0  0  0  0  0  0  0  0  0  0  0
   -1.2685    2.8586   -1.6986 H   0  0  0  0  0  0  0  0  0  0  0  0
   -0.2034    2.3242    1.1909 H   0  0  0  0  0  0  0  0  0  0  0  0
   -1.9377    2.7318    0.7235 H   0  0  0  0  0  0  0  0  0  0  0  0
  1  2  1  0
  2  3  1  0
  3  4  1  0
  4  5  2  0
  4  6  1  0
  6  7  1  0
  7  8  1  0
  6  9  1  0
  9  2  1  0
  8  6  1  0
  1 10  1  0
  1 11  1  0
  1 12  1  0
  2 13  1  0
  3 14  1  0
  3 15  1  0
  7 16  1  0
  7 17  1  0
  8 18  1  0
  8 19  1  0
M  END
$$$$
