
     RDKit          3D

 19 20  0  0  0  0  0  0  0  0999 V2000
    1.1410   -1.1206    0.5178 C   0  0  0  0  0  0  0  0  0  0  0  0
    1.7199    0.2048    0.0057 C   0  0  0  0  0  0  0  0  0  0  0  0
    2.2952    0.0902   -1.3789 C   0  0  0  0  0  0  0  0  0  0  0  0
    3.0051    1.2014   -2.2344 C   0  0  0  0  0  0  0  0  0  0  0  0
    3.0466   -0.0635   -3.1693 C   0  0  0  0  0  0  0  0  0  0  0  0
    3.5534   -0.1566   -4.4396 O   0  0  0  0  0  0  0  0  0  0  0  0
    1.5665   -0.3202   -2.7148 C   0  0  0  0  0  0  0  0  0  0  0  0
    3.4250   -0.8185   -1.8943 C   0  0  0  0  0  0  0  0  0  0  0  0
    4.1943   -1.6564   -1.5255 O   0  0  0  0  0  0  0  0  0  0  0  0
    0.7577   -1.0109    1.5363 H   0  0  0  0  0  0  0  0  0  0  0  0
    0.3155   -1.4624   -0.1151 H   0  0  0  0  0  0  0  0  0  0  0  0
    1.9063   -1.9025    0.5245 H   0  0  0  0  0  0  0  0  0  0  0  0
    0.9470    0.9832    0.0174 H   0  0  0  0  0  0  0  0  0  0  0  0
    2.5112    0.5473    0.6842 H   0  0  0  0  0  0  0  0  0  0  0  0
    2.3375    1.9922   -2.5849 H   0  0  0  0  0  0  0  0  0  0  0  0
    3.9544    1.5953   -1.8652 H   0  0  0  0  0  0  0  0  0  0  0  0
    4.2930   -0.7751   -4.4220 H   0  0  0  0  0  0  0  0  0  0  0  0
    0.8529    0.4223   -3.0799 H   0  0  0  0  0  0  0  0  0  0  0  0
    1.1809   -1.3383   -2.7951 H   0  0  0  0  0  0  0  0  0  0  0  0
  1  2  1  0
  2  3  1  0
  3  4  1  0
  4  5  1  0
  5  6  1  0
  5  7  1  0
  5  8  1  0
  8  9  2  0
  7  3  1  0
  8  3  1  0
  1 10  1  0
  1 11  1  0
  1 12  1  0
  2 13  1  0
  2 14  1  0
  4 15  1  0
  4 16  1  0
  6 17  1  0
  7 18  1  0
  7 19  1  0
M  END
$$$$
