gdb 2404	2.2619658	1.5054171	1.3757377	2.8732	75.3	-0.24269	-0.02675	0.21594	1067.3313	0.155503	-422.532567	-422.523834	-422.52289	-422.566329	31.999
 OpenBabel02181911413D

 19 20  0  0  1  0  0  0  0  0999 V2000
    0.1445   -1.2010   -3.2056 C   0  0  0  0  0  0  0  0  0  0  0  0
   -0.1657   -0.5683   -1.8688 C   0  0  1  0  0  0  0  0  0  0  0  0
   -0.5850    0.9212   -1.8477 C   0  0  0  0  0  0  0  0  0  0  0  0
   -1.7706    0.6328   -1.0626 O   0  0  0  0  0  0  0  0  0  0  0  0
   -1.4725   -0.7695   -1.0393 C   0  0  2  0  0  0  0  0  0  0  0  0
   -0.6613   -1.1874    0.2132 C   0  0  0  0  0  0  0  0  0  0  0  0
    0.6551   -1.0318   -0.6291 C   0  0  2  0  0  0  0  0  0  0  0  0
    1.7512   -0.1713   -0.0672 C   0  0  0  0  0  0  0  0  0  0  0  0
    2.2771    0.7506   -0.6404 O   0  0  0  0  0  0  0  0  0  0  0  0
    0.1953   -2.2932   -3.1312 H   0  0  0  0  0  0  0  0  0  0  0  0
   -0.6182   -0.9498   -3.9502 H   0  0  0  0  0  0  0  0  0  0  0  0
    1.1113   -0.8487   -3.5837 H   0  0  0  0  0  0  0  0  0  0  0  0
    0.0890    1.6258   -1.3551 H   0  0  0  0  0  0  0  0  0  0  0  0
   -0.8540    1.3116   -2.8376 H   0  0  0  0  0  0  0  0  0  0  0  0
   -2.3212   -1.3923   -1.3368 H   0  0  0  0  0  0  0  0  0  0  0  0
   -0.7796   -0.4846    1.0412 H   0  0  0  0  0  0  0  0  0  0  0  0
   -0.8449   -2.2022    0.5725 H   0  0  0  0  0  0  0  0  0  0  0  0
    1.1029   -2.0193   -0.8044 H   0  0  0  0  0  0  0  0  0  0  0  0
    2.0652   -0.4552    0.9652 H   0  0  0  0  0  0  0  0  0  0  0  0
  1 10  1  0  0  0  0
  2  1  1  6  0  0  0
  2  3  1  0  0  0  0
  2  5  1  0  0  0  0
  2  7  1  0  0  0  0
  3 13  1  0  0  0  0
  3  4  1  0  0  0  0
  4  5  1  0  0  0  0
  5 15  1  6  0  0  0
  5  6  1  0  0  0  0
  6 17  1  0  0  0  0
  6 16  1  0  0  0  0
  7 18  1  6  0  0  0
  7  8  1  0  0  0  0
  7  6  1  0  0  0  0
  8 19  1  0  0  0  0
  9  8  2  0  0  0  0
 11  1  1  0  0  0  0
 12  1  1  0  0  0  0
 14  3  1  0  0  0  0
M TOR 0 0 1 2 3
M TOR 1 0 1 2 12
M TOR 2 0 1 2 13
M TOR 3 0 1 4 3
M TOR 4 0 1 4 5
M TOR 5 0 1 4 14
M TOR 6 0 1 6 5
M TOR 7 0 1 6 7
M TOR 8 0 1 6 17
M TOR 9 1 2 3 4
M TOR 10 1 4 5 6
M TOR 11 1 4 5 15
M TOR 12 1 4 5 16
M TOR 13 1 6 5 15
M TOR 14 1 6 5 16
M TOR 15 1 6 7 8
M TOR 16 1 6 7 18
M TOR 17 2 1 0 9
M TOR 18 2 1 0 10
M TOR 19 2 1 0 11
M TOR 20 2 1 4 5
M TOR 21 2 1 4 14
M TOR 22 2 1 6 5
M TOR 23 2 1 6 7
M TOR 24 2 1 6 17
M TOR 25 2 3 4 5
M TOR 26 2 3 4 14
M TOR 27 3 2 1 6
M TOR 28 3 4 1 6
M TOR 29 3 4 5 6
M TOR 30 3 4 5 15
M TOR 31 3 4 5 16
M TOR 32 4 1 0 9
M TOR 33 4 1 0 10
M TOR 34 4 1 0 11
M TOR 35 4 1 2 12
M TOR 36 4 1 2 13
M TOR 37 4 1 6 7
M TOR 38 4 1 6 17
M TOR 39 4 3 2 12
M TOR 40 4 3 2 13
M TOR 41 4 5 6 7
M TOR 42 4 5 6 17
M TOR 43 5 6 7 8
M TOR 44 5 6 7 18
M TOR 45 6 1 0 9
M TOR 46 6 1 0 10
M TOR 47 6 1 0 11
M TOR 48 6 1 2 12
M TOR 49 6 1 2 13
M TOR 50 6 1 4 14
M TOR 51 6 5 4 14
M TOR 52 7 6 5 15
M TOR 53 7 6 5 16
M TOR 54 8 7 6 17
M  END
$$$$
