
     RDKit          3D

 19 20  0  0  0  0  0  0  0  0999 V2000
    1.4633    0.7622    0.1400 O   0  0  0  0  0  0  0  0  0  0  0  0
    0.4903   -0.1530    0.6257 C   0  0  0  0  0  0  0  0  0  0  0  0
   -0.3903    0.4526    1.7352 C   0  0  0  0  0  0  0  0  0  0  0  0
   -1.5064   -0.5009    2.1199 C   0  0  0  0  0  0  0  0  0  0  0  0
   -1.5646   -0.9592    3.3704 C   0  0  0  0  0  0  0  0  0  0  0  0
   -0.4960   -0.4474    4.3153 C   0  0  0  0  0  0  0  0  0  0  0  0
   -0.4440    1.0977    4.2241 C   0  0  0  0  0  0  0  0  0  0  0  0
    0.4330    0.7634    2.9991 C   0  0  0  0  0  0  0  0  0  0  0  0
    0.7966   -0.5027    3.6291 O   0  0  0  0  0  0  0  0  0  0  0  0
    2.2351    0.7072    0.7099 H   0  0  0  0  0  0  0  0  0  0  0  0
   -0.1375   -0.4215   -0.2312 H   0  0  0  0  0  0  0  0  0  0  0  0
    0.9524   -1.0739    1.0039 H   0  0  0  0  0  0  0  0  0  0  0  0
   -0.8097    1.3893    1.3412 H   0  0  0  0  0  0  0  0  0  0  0  0
   -2.2156   -0.8052    1.3547 H   0  0  0  0  0  0  0  0  0  0  0  0
   -2.3350   -1.6376    3.7212 H   0  0  0  0  0  0  0  0  0  0  0  0
   -0.4690   -0.9422    5.2877 H   0  0  0  0  0  0  0  0  0  0  0  0
   -1.3806    1.6386    4.0795 H   0  0  0  0  0  0  0  0  0  0  0  0
    0.1479    1.5409    5.0268 H   0  0  0  0  0  0  0  0  0  0  0  0
    1.3042    1.3898    2.7879 H   0  0  0  0  0  0  0  0  0  0  0  0
  1  2  1  0
  2  3  1  0
  3  4  1  0
  4  5  2  0
  5  6  1  0
  6  7  1  0
  7  8  1  0
  8  9  1  0
  8  3  1  0
  9  6  1  0
  1 10  1  0
  2 11  1  0
  2 12  1  0
  3 13  1  0
  4 14  1  0
  5 15  1  0
  6 16  1  0
  7 17  1  0
  7 18  1  0
  8 19  1  0
M  END
$$$$
