
     RDKit          3D

 19 21  0  0  0  0  0  0  0  0999 V2000
   -0.1577   -0.5456   -0.2106 C   0  0  0  0  0  0  0  0  0  0  0  0
    1.2288    0.0173   -0.3089 C   0  0  0  0  0  0  0  0  0  0  0  0
    2.5013   -0.7570    0.0005 C   0  0  0  0  0  0  0  0  0  0  0  0
    2.3211   -0.1253   -1.3428 C   0  0  0  0  0  0  0  0  0  0  0  0
    2.6628    1.2682   -1.2970 O   0  0  0  0  0  0  0  0  0  0  0  0
    1.5696    1.5165   -0.3777 C   0  0  0  0  0  0  0  0  0  0  0  0
    1.9536    2.2965    0.8524 C   0  0  0  0  0  0  0  0  0  0  0  0
    3.1841    3.0969    0.9016 C   0  0  0  0  0  0  0  0  0  0  0  0
    3.0787    1.8596    1.6124 O   0  0  0  0  0  0  0  0  0  0  0  0
   -0.5474   -0.4759    0.8122 H   0  0  0  0  0  0  0  0  0  0  0  0
   -0.8542   -0.0162   -0.8712 H   0  0  0  0  0  0  0  0  0  0  0  0
   -0.1718   -1.6036   -0.4911 H   0  0  0  0  0  0  0  0  0  0  0  0
    3.2448   -0.3627    0.6828 H   0  0  0  0  0  0  0  0  0  0  0  0
    2.3580   -1.8339    0.0253 H   0  0  0  0  0  0  0  0  0  0  0  0
    2.3666   -0.6217   -2.3051 H   0  0  0  0  0  0  0  0  0  0  0  0
    0.7713    2.0706   -0.8957 H   0  0  0  0  0  0  0  0  0  0  0  0
    1.1022    2.6156    1.4573 H   0  0  0  0  0  0  0  0  0  0  0  0
    3.8513    3.0760    0.0437 H   0  0  0  0  0  0  0  0  0  0  0  0
    3.2227    3.9899    1.5231 H   0  0  0  0  0  0  0  0  0  0  0  0
  1  2  1  0
  2  3  1  0
  3  4  1  0
  4  5  1  0
  5  6  1  0
  6  7  1  0
  7  8  1  0
  8  9  1  0
  4  2  1  0
  9  7  1  0
  6  2  1  0
  1 10  1  0
  1 11  1  0
  1 12  1  0
  3 13  1  0
  3 14  1  0
  4 15  1  0
  6 16  1  0
  7 17  1  0
  8 18  1  0
  8 19  1  0
M  END
$$$$
