gdb 1844	4.0266547	1.1052984	1.015794	1.8564	76.85	-0.27654	0.00657	0.28311000000000003	1224.9906	0.156395	-422.54651	-422.538029	-422.537085	-422.579709	31.944
 OpenBabel02181911403D

 19 20  0  0  1  0  0  0  0  0999 V2000
   -2.2621    4.6603   -0.5719 C   0  0  0  0  0  0  0  0  0  0  0  0
   -1.7076    3.3438   -0.1032 C   0  0  1  0  0  0  0  0  0  0  0  0
   -0.2068    2.8993   -0.0932 C   0  0  0  0  0  0  0  0  0  0  0  0
   -1.0281    1.7218    0.4857 C   0  0  1  0  0  0  0  0  0  0  0  0
   -1.8202    2.7281    1.3339 C   0  0  0  0  0  0  0  0  0  0  0  0
   -2.0531    1.9211   -0.6570 C   0  0  0  0  0  0  0  0  0  0  0  0
   -0.5462    0.5047    1.0181 O   0  0  0  0  0  0  0  0  0  0  0  0
    0.1379   -0.3034    0.1909 C   0  0  0  0  0  0  0  0  0  0  0  0
    0.3853   -0.0997   -0.9648 O   0  0  0  0  0  0  0  0  0  0  0  0
   -1.8401    5.4918    0.0027 H   0  0  0  0  0  0  0  0  0  0  0  0
   -2.0295    4.8295   -1.6285 H   0  0  0  0  0  0  0  0  0  0  0  0
   -3.3509    4.6915   -0.4580 H   0  0  0  0  0  0  0  0  0  0  0  0
    0.2662    2.7334   -1.0616 H   0  0  0  0  0  0  0  0  0  0  0  0
    0.4494    3.4254    0.6057 H   0  0  0  0  0  0  0  0  0  0  0  0
   -2.8182    2.4202    1.6569 H   0  0  0  0  0  0  0  0  0  0  0  0
   -1.2717    3.2395    2.1293 H   0  0  0  0  0  0  0  0  0  0  0  0
   -1.7101    1.6863   -1.6651 H   0  0  0  0  0  0  0  0  0  0  0  0
   -3.0685    1.5616   -0.4686 H   0  0  0  0  0  0  0  0  0  0  0  0
    0.4411   -1.2000    0.7538 H   0  0  0  0  0  0  0  0  0  0  0  0
  1 12  1  0  0  0  0
  1 10  1  0  0  0  0
  2  1  1  6  0  0  0
  2  3  1  0  0  0  0
  2  5  1  0  0  0  0
  3  4  1  0  0  0  0
  3 14  1  0  0  0  0
  4  7  1  1  0  0  0
  4  5  1  0  0  0  0
  5 15  1  0  0  0  0
  5 16  1  0  0  0  0
  6 18  1  0  0  0  0
  6  2  1  0  0  0  0
  6  4  1  0  0  0  0
  8 19  1  0  0  0  0
  8  7  1  0  0  0  0
  9  8  2  0  0  0  0
 11  1  1  0  0  0  0
 13  3  1  0  0  0  0
 17  6  1  0  0  0  0
M TOR 0 0 1 2 3
M TOR 1 0 1 2 12
M TOR 2 0 1 2 13
M TOR 3 0 1 4 3
M TOR 4 0 1 4 14
M TOR 5 0 1 4 15
M TOR 6 0 1 5 3
M TOR 7 0 1 5 16
M TOR 8 0 1 5 17
M TOR 9 1 2 3 4
M TOR 10 1 2 3 5
M TOR 11 1 2 3 6
M TOR 12 1 4 3 5
M TOR 13 1 4 3 6
M TOR 14 1 5 3 6
M TOR 15 2 1 0 9
M TOR 16 2 1 0 10
M TOR 17 2 1 0 11
M TOR 18 2 1 4 14
M TOR 19 2 1 4 15
M TOR 20 2 1 5 16
M TOR 21 2 1 5 17
M TOR 22 2 3 4 14
M TOR 23 2 3 4 15
M TOR 24 2 3 5 16
M TOR 25 2 3 5 17
M TOR 26 2 3 6 7
M TOR 27 3 6 7 8
M TOR 28 3 6 7 18
M TOR 29 4 1 0 9
M TOR 30 4 1 0 10
M TOR 31 4 1 0 11
M TOR 32 4 1 2 12
M TOR 33 4 1 2 13
M TOR 34 4 1 5 16
M TOR 35 4 1 5 17
M TOR 36 4 3 2 12
M TOR 37 4 3 2 13
M TOR 38 4 3 5 16
M TOR 39 4 3 5 17
M TOR 40 4 3 6 7
M TOR 41 5 1 0 9
M TOR 42 5 1 0 10
M TOR 43 5 1 0 11
M TOR 44 5 1 2 12
M TOR 45 5 1 2 13
M TOR 46 5 1 4 14
M TOR 47 5 1 4 15
M TOR 48 5 3 2 12
M TOR 49 5 3 2 13
M TOR 50 5 3 4 14
M TOR 51 5 3 4 15
M TOR 52 5 3 6 7
M TOR 53 6 3 2 12
M TOR 54 6 3 2 13
M TOR 55 6 3 4 14
M TOR 56 6 3 4 15
M TOR 57 6 3 5 16
M TOR 58 6 3 5 17
M  END
$$$$
