gdb 943	2.1333426	1.316313	0.9234237	3.9375	76.83	-0.24656	-0.02792	0.21864	1289.2392	0.154685	-422.56507	-422.555515	-422.55457	-422.601301	32.876
 OpenBabel02181911403D

 19 19  0  0  1  0  0  0  0  0999 V2000
    0.3089   -0.9298   -0.4206 O   0  0  0  0  0  0  0  0  0  0  0  0
    0.4492    0.2376   -0.1595 C   0  0  0  0  0  0  0  0  0  0  0  0
   -0.1491    0.9199    1.0536 C   0  0  0  0  0  0  0  0  0  0  0  0
   -1.1357    2.0153    0.6479 C   0  0  2  0  0  0  0  0  0  0  0  0
   -1.9599    2.7396    1.7482 C   0  0  0  0  0  0  0  0  0  0  0  0
   -3.1981    2.7080    0.8111 C   0  0  0  0  0  0  0  0  0  0  0  0
   -2.4677    1.6038   -0.0282 C   0  0  1  0  0  0  0  0  0  0  0  0
   -2.5646    1.7030   -1.5233 C   0  0  0  0  0  0  0  0  0  0  0  0
   -1.6436    2.0009   -2.2442 O   0  0  0  0  0  0  0  0  0  0  0  0
    1.0323    0.9102   -0.8278 H   0  0  0  0  0  0  0  0  0  0  0  0
   -0.6325    0.1597    1.6759 H   0  0  0  0  0  0  0  0  0  0  0  0
    0.6699    1.3713    1.6317 H   0  0  0  0  0  0  0  0  0  0  0  0
   -0.6346    2.7446    0.0029 H   0  0  0  0  0  0  0  0  0  0  0  0
   -2.1054    2.1029    2.6263 H   0  0  0  0  0  0  0  0  0  0  0  0
   -1.6048    3.7174    2.0808 H   0  0  0  0  0  0  0  0  0  0  0  0
   -4.1612    2.4439    1.2505 H   0  0  0  0  0  0  0  0  0  0  0  0
   -3.3109    3.6371    0.2457 H   0  0  0  0  0  0  0  0  0  0  0  0
   -2.8067    0.6079    0.2836 H   0  0  0  0  0  0  0  0  0  0  0  0
   -3.5763    1.5023   -1.9447 H   0  0  0  0  0  0  0  0  0  0  0  0
  1  2  2  0  0  0  0
  2  3  1  0  0  0  0
  3 12  1  0  0  0  0
  3 11  1  0  0  0  0
  4 13  1  6  0  0  0
  4  3  1  0  0  0  0
  4  5  1  0  0  0  0
  5 15  1  0  0  0  0
  5 14  1  0  0  0  0
  6 16  1  0  0  0  0
  6  5  1  0  0  0  0
  7 18  1  1  0  0  0
  7  4  1  0  0  0  0
  7  6  1  0  0  0  0
  8  7  1  0  0  0  0
  9  8  2  0  0  0  0
 10  2  1  0  0  0  0
 17  6  1  0  0  0  0
 19  8  1  0  0  0  0
M TOR 0 0 1 2 3
M TOR 1 0 1 2 10
M TOR 2 0 1 2 11
M TOR 3 1 2 3 4
M TOR 4 1 2 3 6
M TOR 5 1 2 3 12
M TOR 6 2 3 4 5
M TOR 7 2 3 4 13
M TOR 8 2 3 4 14
M TOR 9 2 3 6 5
M TOR 10 2 3 6 7
M TOR 11 2 3 6 17
M TOR 12 3 2 1 9
M TOR 13 3 4 5 6
M TOR 14 3 4 5 15
M TOR 15 3 4 5 16
M TOR 16 3 6 5 15
M TOR 17 3 6 5 16
M TOR 18 3 6 7 8
M TOR 19 3 6 7 18
M TOR 20 4 3 2 10
M TOR 21 4 3 2 11
M TOR 22 4 3 6 7
M TOR 23 4 3 6 17
M TOR 24 4 5 6 7
M TOR 25 4 5 6 17
M TOR 26 5 4 3 12
M TOR 27 5 6 3 12
M TOR 28 5 6 7 8
M TOR 29 5 6 7 18
M TOR 30 6 3 2 10
M TOR 31 6 3 2 11
M TOR 32 6 3 4 13
M TOR 33 6 3 4 14
M TOR 34 6 5 4 13
M TOR 35 6 5 4 14
M TOR 36 7 6 3 12
M TOR 37 7 6 5 15
M TOR 38 7 6 5 16
M TOR 39 8 7 6 17
M  END
$$$$
