gdb 1882	2.5645024	1.748045	1.2801395	2.9583	75.21	-0.23561	0.06209	0.2977	1048.4329	0.155323	-422.498349	-422.489905	-422.48896	-422.530871	32.236
 OpenBabel02181911403D

 19 21  0  0  1  0  0  0  0  0999 V2000
    1.7239    2.5250    0.7933 C   0  0  0  0  0  0  0  0  0  0  0  0
    1.9016    1.0621    1.0392 C   0  0  1  0  0  0  0  0  0  0  0  0
    1.0100    0.4110    1.9534 O   0  0  0  0  0  0  0  0  0  0  0  0
    1.1293   -0.1443    0.6356 C   0  0  1  0  0  0  0  0  0  0  0  0
   -0.1196   -0.3635   -0.1538 C   0  0  0  0  0  0  0  0  0  0  0  0
    2.4425   -0.9922    0.6290 C   0  0  2  0  0  0  0  0  0  0  0  0
    2.7574   -1.6953    1.8397 O   0  0  0  0  0  0  0  0  0  0  0  0
    3.5244   -0.5686    2.3418 C   0  0  0  0  0  0  0  0  0  0  0  0
    3.2327    0.2585    1.0679 C   0  0  2  0  0  0  0  0  0  0  0  0
    2.0826    3.1077    1.6498 H   0  0  0  0  0  0  0  0  0  0  0  0
    2.2892    2.8424   -0.0890 H   0  0  0  0  0  0  0  0  0  0  0  0
    0.6684    2.7653    0.6403 H   0  0  0  0  0  0  0  0  0  0  0  0
   -0.6768   -1.2208    0.2408 H   0  0  0  0  0  0  0  0  0  0  0  0
   -0.7702    0.5140   -0.1046 H   0  0  0  0  0  0  0  0  0  0  0  0
    0.1145   -0.5681   -1.2036 H   0  0  0  0  0  0  0  0  0  0  0  0
    2.6400   -1.5645   -0.2820 H   0  0  0  0  0  0  0  0  0  0  0  0
    3.1145   -0.1786    3.2776 H   0  0  0  0  0  0  0  0  0  0  0  0
    4.5781   -0.8411    2.4721 H   0  0  0  0  0  0  0  0  0  0  0  0
    4.0641    0.6606    0.4915 H   0  0  0  0  0  0  0  0  0  0  0  0
  1 10  1  0  0  0  0
  2  1  1  6  0  0  0
  2  9  1  0  0  0  0
  2  3  1  0  0  0  0
  4  5  1  6  0  0  0
  4  2  1  0  0  0  0
  4  3  1  0  0  0  0
  5 14  1  0  0  0  0
  5 13  1  0  0  0  0
  6 16  1  6  0  0  0
  6  4  1  0  0  0  0
  6  9  1  0  0  0  0
  6  7  1  0  0  0  0
  7  8  1  0  0  0  0
  8 18  1  0  0  0  0
  8 17  1  0  0  0  0
  9 19  1  6  0  0  0
  9  8  1  0  0  0  0
 11  1  1  0  0  0  0
 12  1  1  0  0  0  0
 15  5  1  0  0  0  0
M TOR 0 0 1 2 3
M TOR 1 0 1 3 4
M TOR 2 0 1 3 5
M TOR 3 0 1 8 5
M TOR 4 0 1 8 7
M TOR 5 0 1 8 18
M TOR 6 1 2 3 4
M TOR 7 1 2 3 5
M TOR 8 1 3 4 12
M TOR 9 1 3 4 13
M TOR 10 1 3 4 14
M TOR 11 1 3 5 6
M TOR 12 1 3 5 8
M TOR 13 1 3 5 15
M TOR 14 1 8 5 6
M TOR 15 1 8 5 15
M TOR 16 1 8 7 6
M TOR 17 1 8 7 16
M TOR 18 1 8 7 17
M TOR 19 2 1 0 9
M TOR 20 2 1 0 10
M TOR 21 2 1 0 11
M TOR 22 2 1 8 5
M TOR 23 2 1 8 7
M TOR 24 2 1 8 18
M TOR 25 2 3 1 8
M TOR 26 2 3 4 12
M TOR 27 2 3 4 13
M TOR 28 2 3 4 14
M TOR 29 2 3 5 6
M TOR 30 2 3 5 8
M TOR 31 2 3 5 15
M TOR 32 3 1 0 9
M TOR 33 3 1 0 10
M TOR 34 3 1 0 11
M TOR 35 3 1 8 7
M TOR 36 3 1 8 18
M TOR 37 3 5 6 7
M TOR 38 3 5 8 7
M TOR 39 3 5 8 18
M TOR 40 4 3 1 8
M TOR 41 4 3 5 6
M TOR 42 4 3 5 8
M TOR 43 4 3 5 15
M TOR 44 5 3 4 12
M TOR 45 5 3 4 13
M TOR 46 5 3 4 14
M TOR 47 5 6 7 8
M TOR 48 5 6 7 16
M TOR 49 5 6 7 17
M TOR 50 5 8 7 16
M TOR 51 5 8 7 17
M TOR 52 6 5 8 18
M TOR 53 6 7 8 18
M TOR 54 7 6 5 15
M TOR 55 7 8 5 15
M TOR 56 8 1 0 9
M TOR 57 8 1 0 10
M TOR 58 8 1 0 11
M  END
$$$$
