gdb 3513	2.2158775	1.7474401	1.0620137	3.1739	75.89	-0.24894	0.00766	0.2566	1129.6869	0.157883	-422.543968	-422.53586	-422.534916	-422.576427	31.642
 OpenBabel02181911413D

 19 20  0  0  1  0  0  0  0  0999 V2000
   -2.5890    1.4000    1.1198 O   0  0  0  0  0  0  0  0  0  0  0  0
   -1.8043    0.8451    0.0690 C   0  0  2  0  0  0  0  0  0  0  0  0
   -2.3409   -0.5154   -0.3411 C   0  0  0  0  0  0  0  0  0  0  0  0
   -1.7721   -1.4590   -1.0950 C   0  0  0  0  0  0  0  0  0  0  0  0
   -0.4415   -1.4623   -1.8082 C   0  0  0  0  0  0  0  0  0  0  0  0
    0.2921   -0.1136   -1.8726 C   0  0  0  0  0  0  0  0  0  0  0  0
    0.6940    0.3545   -0.4921 C   0  0  1  0  0  0  0  0  0  0  0  0
    0.5531    1.7443   -0.1735 O   0  0  0  0  0  0  0  0  0  0  0  0
   -0.3284    0.8079    0.4525 C   0  0  1  0  0  0  0  0  0  0  0  0
   -2.5773    0.7773    1.8553 H   0  0  0  0  0  0  0  0  0  0  0  0
   -1.9142    1.5601   -0.7539 H   0  0  0  0  0  0  0  0  0  0  0  0
   -3.3460   -0.6981    0.0351 H   0  0  0  0  0  0  0  0  0  0  0  0
   -2.3518   -2.3677   -1.2531 H   0  0  0  0  0  0  0  0  0  0  0  0
    0.2098   -2.2179   -1.3420 H   0  0  0  0  0  0  0  0  0  0  0  0
   -0.6070   -1.8302   -2.8294 H   0  0  0  0  0  0  0  0  0  0  0  0
    1.1768   -0.2042   -2.5123 H   0  0  0  0  0  0  0  0  0  0  0  0
   -0.3536    0.6414   -2.3311 H   0  0  0  0  0  0  0  0  0  0  0  0
    1.5965   -0.1045   -0.0844 H   0  0  0  0  0  0  0  0  0  0  0  0
   -0.1554    0.6735    1.5223 H   0  0  0  0  0  0  0  0  0  0  0  0
  1 10  1  0  0  0  0
  2 11  1  6  0  0  0
  2  9  1  0  0  0  0
  2  1  1  0  0  0  0
  3 12  1  0  0  0  0
  3  2  1  0  0  0  0
  4  3  2  0  0  0  0
  5 14  1  0  0  0  0
  5  4  1  0  0  0  0
  6  5  1  0  0  0  0
  6  7  1  0  0  0  0
  7  8  1  0  0  0  0
  7 18  1  1  0  0  0
  7  9  1  0  0  0  0
  8  9  1  0  0  0  0
  9 19  1  1  0  0  0
 13  4  1  0  0  0  0
 15  5  1  0  0  0  0
 16  6  1  0  0  0  0
 17  6  1  0  0  0  0
M TOR 0 0 1 2 3
M TOR 1 0 1 2 11
M TOR 2 0 1 8 6
M TOR 3 0 1 8 7
M TOR 4 0 1 8 18
M TOR 5 1 2 3 4
M TOR 6 1 2 3 12
M TOR 7 1 8 6 5
M TOR 8 1 8 6 7
M TOR 9 1 8 6 17
M TOR 10 2 1 0 9
M TOR 11 2 1 8 6
M TOR 12 2 1 8 7
M TOR 13 2 1 8 18
M TOR 14 2 3 4 5
M TOR 15 2 3 4 13
M TOR 16 2 3 4 14
M TOR 17 3 2 1 8
M TOR 18 3 2 1 10
M TOR 19 3 4 5 6
M TOR 20 3 4 5 15
M TOR 21 3 4 5 16
M TOR 22 4 3 2 11
M TOR 23 4 5 6 7
M TOR 24 4 5 6 8
M TOR 25 4 5 6 17
M TOR 26 5 4 3 12
M TOR 27 5 6 7 8
M TOR 28 5 6 8 18
M TOR 29 6 5 4 13
M TOR 30 6 5 4 14
M TOR 31 6 7 8 18
M TOR 32 6 8 1 10
M TOR 33 7 6 5 15
M TOR 34 7 6 5 16
M TOR 35 7 8 1 10
M TOR 36 7 8 6 17
M TOR 37 8 1 0 9
M TOR 38 8 1 2 11
M TOR 39 8 6 5 15
M TOR 40 8 6 5 16
M  END
$$$$
