
     RDKit          3D

 19 19  0  0  0  0  0  0  0  0999 V2000
    0.3241   -1.1156   -0.5277 C   0  0  0  0  0  0  0  0  0  0  0  0
    1.4650   -0.2045   -0.0934 C   0  0  0  0  0  0  0  0  0  0  0  0
    2.2734   -0.8143    1.0585 C   0  0  0  0  0  0  0  0  0  0  0  0
    0.9059    1.0505    0.3355 O   0  0  0  0  0  0  0  0  0  0  0  0
    1.6989    2.1059   -0.1686 C   0  0  0  0  0  0  0  0  0  0  0  0
    2.8463    1.5343   -0.7580 O   0  0  0  0  0  0  0  0  0  0  0  0
    2.4309    0.2534   -1.2306 C   0  0  0  0  0  0  0  0  0  0  0  0
    1.8302    0.3335   -2.5641 C   0  0  0  0  0  0  0  0  0  0  0  0
    1.3583    0.4151   -3.6665 C   0  0  0  0  0  0  0  0  0  0  0  0
   -0.3223   -1.3287    0.3283 H   0  0  0  0  0  0  0  0  0  0  0  0
   -0.2732   -0.6422   -1.3083 H   0  0  0  0  0  0  0  0  0  0  0  0
    0.7097   -2.0658   -0.9100 H   0  0  0  0  0  0  0  0  0  0  0  0
    1.6384   -0.9055    1.9437 H   0  0  0  0  0  0  0  0  0  0  0  0
    2.6459   -1.8101    0.7960 H   0  0  0  0  0  0  0  0  0  0  0  0
    3.1254   -0.1763    1.3083 H   0  0  0  0  0  0  0  0  0  0  0  0
    1.1154    2.6758   -0.9092 H   0  0  0  0  0  0  0  0  0  0  0  0
    2.0324    2.7686    0.6386 H   0  0  0  0  0  0  0  0  0  0  0  0
    3.3247   -0.3758   -1.2675 H   0  0  0  0  0  0  0  0  0  0  0  0
    0.9446    0.4839   -4.6426 H   0  0  0  0  0  0  0  0  0  0  0  0
  1  2  1  0
  2  3  1  0
  2  4  1  0
  4  5  1  0
  5  6  1  0
  6  7  1  0
  7  8  1  0
  8  9  3  0
  7  2  1  0
  1 10  1  0
  1 11  1  0
  1 12  1  0
  3 13  1  0
  3 14  1  0
  3 15  1  0
  5 16  1  0
  5 17  1  0
  7 18  1  0
  9 19  1  0
M  END
$$$$
