
     RDKit          3D

 19 19  0  0  0  0  0  0  0  0999 V2000
    1.3479    0.8668    0.4670 C   0  0  0  0  0  0  0  0  0  0  0  0
   -0.0182    0.2748    0.3394 C   0  0  0  0  0  0  0  0  0  0  0  0
   -1.1685    0.8657   -0.0439 C   0  0  0  0  0  0  0  0  0  0  0  0
   -1.3653    2.2523   -0.4412 C   0  0  0  0  0  0  0  0  0  0  0  0
   -2.4460    2.6990   -0.7895 O   0  0  0  0  0  0  0  0  0  0  0  0
   -2.3517   -0.0913    0.0120 C   0  0  0  0  0  0  0  0  0  0  0  0
   -3.1749   -0.0573   -1.1365 O   0  0  0  0  0  0  0  0  0  0  0  0
   -1.6736   -1.4683    0.1408 C   0  0  0  0  0  0  0  0  0  0  0  0
   -0.2618   -1.1759    0.6949 C   0  0  0  0  0  0  0  0  0  0  0  0
    1.7212    0.7432    1.4914 H   0  0  0  0  0  0  0  0  0  0  0  0
    2.0530    0.3339   -0.1831 H   0  0  0  0  0  0  0  0  0  0  0  0
    1.3864    1.9279    0.2154 H   0  0  0  0  0  0  0  0  0  0  0  0
   -0.4745    2.9132   -0.4222 H   0  0  0  0  0  0  0  0  0  0  0  0
   -2.9508    0.1360    0.9114 H   0  0  0  0  0  0  0  0  0  0  0  0
   -3.4340    0.8686   -1.2446 H   0  0  0  0  0  0  0  0  0  0  0  0
   -2.2410   -2.1708    0.7542 H   0  0  0  0  0  0  0  0  0  0  0  0
   -1.6045   -1.8820   -0.8696 H   0  0  0  0  0  0  0  0  0  0  0  0
   -0.2154   -1.2952    1.7874 H   0  0  0  0  0  0  0  0  0  0  0  0
    0.5129   -1.8365    0.2881 H   0  0  0  0  0  0  0  0  0  0  0  0
  1  2  1  0
  2  3  2  0
  3  4  1  0
  4  5  2  0
  3  6  1  0
  6  7  1  0
  6  8  1  0
  8  9  1  0
  9  2  1  0
  1 10  1  0
  1 11  1  0
  1 12  1  0
  4 13  1  0
  6 14  1  0
  7 15  1  0
  8 16  1  0
  8 17  1  0
  9 18  1  0
  9 19  1  0
M  END
$$$$
