
     RDKit          3D

 19 21  0  0  0  0  0  0  0  0999 V2000
   -1.6847    2.4900    0.8690 C   0  0  0  0  0  0  0  0  0  0  0  0
   -1.6415    1.6797   -0.3326 O   0  0  0  0  0  0  0  0  0  0  0  0
   -0.2662    1.3695   -0.1222 C   0  0  0  0  0  0  0  0  0  0  0  0
    0.7637    1.4714   -1.2487 C   0  0  0  0  0  0  0  0  0  0  0  0
    1.3549    0.2145   -0.8502 O   0  0  0  0  0  0  0  0  0  0  0  0
    0.2810   -0.0567    0.0916 C   0  0  0  0  0  0  0  0  0  0  0  0
    0.7343   -0.1414    1.5595 C   0  0  0  0  0  0  0  0  0  0  0  0
   -0.0214    1.0030    2.2876 C   0  0  0  0  0  0  0  0  0  0  0  0
   -0.2323    2.1088    1.2291 C   0  0  0  0  0  0  0  0  0  0  0  0
   -1.8493    3.5464    0.6275 H   0  0  0  0  0  0  0  0  0  0  0  0
   -2.4610    2.1522    1.5653 H   0  0  0  0  0  0  0  0  0  0  0  0
    0.3059    1.4152   -2.2452 H   0  0  0  0  0  0  0  0  0  0  0  0
    1.4789    2.3022   -1.2195 H   0  0  0  0  0  0  0  0  0  0  0  0
   -0.3472   -0.8893   -0.2430 H   0  0  0  0  0  0  0  0  0  0  0  0
    0.5469   -1.1159    2.0182 H   0  0  0  0  0  0  0  0  0  0  0  0
    1.8147    0.0323    1.5802 H   0  0  0  0  0  0  0  0  0  0  0  0
   -0.9946    0.6377    2.6354 H   0  0  0  0  0  0  0  0  0  0  0  0
    0.5160    1.3569    3.1713 H   0  0  0  0  0  0  0  0  0  0  0  0
    0.4668    2.9407    1.3290 H   0  0  0  0  0  0  0  0  0  0  0  0
  1  2  1  0
  2  3  1  0
  3  4  1  0
  4  5  1  0
  5  6  1  0
  6  7  1  0
  7  8  1  0
  8  9  1  0
  9  1  1  0
  6  3  1  0
  9  3  1  0
  1 10  1  0
  1 11  1  0
  4 12  1  0
  4 13  1  0
  6 14  1  0
  7 15  1  0
  7 16  1  0
  8 17  1  0
  8 18  1  0
  9 19  1  0
M  END
$$$$
