
     RDKit          3D

 19 21  0  0  0  0  0  0  0  0999 V2000
    0.4563   -0.0161    0.0941 O   0  0  0  0  0  0  0  0  0  0  0  0
   -0.7247    0.4967    0.6445 C   0  0  0  0  0  0  0  0  0  0  0  0
   -2.1380    0.0964    0.1032 C   0  0  0  0  0  0  0  0  0  0  0  0
   -2.6195    1.4223    0.7608 C   0  0  0  0  0  0  0  0  0  0  0  0
   -1.2182    1.9413    0.3189 C   0  0  0  0  0  0  0  0  0  0  0  0
   -1.3557    1.8663   -1.1962 C   0  0  0  0  0  0  0  0  0  0  0  0
   -0.4967    2.5508   -2.1694 C   0  0  0  0  0  0  0  0  0  0  0  0
   -1.8350    2.9980   -1.9110 O   0  0  0  0  0  0  0  0  0  0  0  0
   -2.0372    0.4942   -1.3839 C   0  0  0  0  0  0  0  0  0  0  0  0
    0.4983    0.2243   -0.8369 H   0  0  0  0  0  0  0  0  0  0  0  0
   -0.6533    0.3336    1.7219 H   0  0  0  0  0  0  0  0  0  0  0  0
   -2.5921   -0.8660    0.3365 H   0  0  0  0  0  0  0  0  0  0  0  0
   -3.4917    1.9157    0.3276 H   0  0  0  0  0  0  0  0  0  0  0  0
   -2.7211    1.3505    1.8456 H   0  0  0  0  0  0  0  0  0  0  0  0
   -0.7543    2.8358    0.7325 H   0  0  0  0  0  0  0  0  0  0  0  0
    0.2918    3.2203   -1.8265 H   0  0  0  0  0  0  0  0  0  0  0  0
   -0.3364    2.1156   -3.1559 H   0  0  0  0  0  0  0  0  0  0  0  0
   -3.0125    0.6058   -1.8648 H   0  0  0  0  0  0  0  0  0  0  0  0
   -1.4435   -0.2096   -1.9766 H   0  0  0  0  0  0  0  0  0  0  0  0
  1  2  1  0
  2  3  1  0
  3  4  1  0
  4  5  1  0
  5  6  1  0
  6  7  1  0
  7  8  1  0
  6  9  1  0
  5  2  1  0
  8  6  1  0
  9  3  1  0
  1 10  1  0
  2 11  1  0
  3 12  1  0
  4 13  1  0
  4 14  1  0
  5 15  1  0
  7 16  1  0
  7 17  1  0
  9 18  1  0
  9 19  1  0
M  END
$$$$
