
     RDKit          3D

 19 19  0  0  0  0  0  0  0  0999 V2000
    1.6148    0.0367   -0.1094 C   0  0  0  0  0  0  0  0  0  0  0  0
    0.1629    0.0644   -0.0136 C   0  0  0  0  0  0  0  0  0  0  0  0
   -1.0384    0.0749    0.0710 C   0  0  0  0  0  0  0  0  0  0  0  0
   -2.4696    0.1043    0.1455 C   0  0  0  0  0  0  0  0  0  0  0  0
   -3.1869    0.0720    1.5010 C   0  0  0  0  0  0  0  0  0  0  0  0
   -3.2548   -1.1147    0.5690 C   0  0  0  0  0  0  0  0  0  0  0  0
   -2.5133   -2.2482    0.8943 O   0  0  0  0  0  0  0  0  0  0  0  0
   -4.5523   -1.4501   -0.1285 C   0  0  0  0  0  0  0  0  0  0  0  0
   -5.3176   -2.3535    0.6679 O   0  0  0  0  0  0  0  0  0  0  0  0
    2.0812    0.6683    0.6552 H   0  0  0  0  0  0  0  0  0  0  0  0
    2.0010   -0.9806    0.0202 H   0  0  0  0  0  0  0  0  0  0  0  0
    1.9554    0.3966   -1.0869 H   0  0  0  0  0  0  0  0  0  0  0  0
   -2.9518    0.7162   -0.6140 H   0  0  0  0  0  0  0  0  0  0  0  0
   -2.5519   -0.0382    2.3715 H   0  0  0  0  0  0  0  0  0  0  0  0
   -4.0503    0.7181    1.6261 H   0  0  0  0  0  0  0  0  0  0  0  0
   -3.1581   -2.8883    1.2244 H   0  0  0  0  0  0  0  0  0  0  0  0
   -5.1174   -0.5389   -0.3699 H   0  0  0  0  0  0  0  0  0  0  0  0
   -4.3466   -1.9861   -1.0603 H   0  0  0  0  0  0  0  0  0  0  0  0
   -5.5967   -1.8770    1.4580 H   0  0  0  0  0  0  0  0  0  0  0  0
  1  2  1  0
  2  3  3  0
  3  4  1  0
  4  5  1  0
  5  6  1  0
  6  7  1  0
  6  8  1  0
  8  9  1  0
  6  4  1  0
  1 10  1  0
  1 11  1  0
  1 12  1  0
  4 13  1  0
  5 14  1  0
  5 15  1  0
  7 16  1  0
  8 17  1  0
  8 18  1  0
  9 19  1  0
M  END
$$$$
