gdb 2451	2.5072833	2.1798286	1.5578416	1.2551	73.	-0.23278	0.0869	0.31967999999999996	913.6814	0.15935	-422.545511	-422.538604	-422.537659	-422.57626	28.643
 OpenBabel02181911413D

 19 21  0  0  1  0  0  0  0  0999 V2000
    0.0761   -0.0444   -0.3286 C   0  0  0  0  0  0  0  0  0  0  0  0
    1.5254    0.0439    0.0985 C   0  0  1  0  0  0  0  0  0  0  0  0
    1.8371   -0.1645    1.5783 C   0  0  0  0  0  0  0  0  0  0  0  0
    3.0361    0.5917    1.8162 O   0  0  0  0  0  0  0  0  0  0  0  0
    3.5829    0.8748    0.5323 C   0  0  1  0  0  0  0  0  0  0  0  0
    3.9161   -0.4552   -0.1999 C   0  0  0  0  0  0  0  0  0  0  0  0
    2.5619   -0.5632   -0.9237 C   0  0  2  0  0  0  0  0  0  0  0  0
    2.5522    0.7077   -1.6480 O   0  0  0  0  0  0  0  0  0  0  0  0
    2.3502    1.2839   -0.3378 C   0  0  1  0  0  0  0  0  0  0  0  0
   -0.5483    0.6506    0.2432 H   0  0  0  0  0  0  0  0  0  0  0  0
   -0.0197    0.1983   -1.3904 H   0  0  0  0  0  0  0  0  0  0  0  0
   -0.3219   -1.0537   -0.1727 H   0  0  0  0  0  0  0  0  0  0  0  0
    1.0433    0.2306    2.2230 H   0  0  0  0  0  0  0  0  0  0  0  0
    1.9872   -1.2227    1.8376 H   0  0  0  0  0  0  0  0  0  0  0  0
    4.3920    1.5928    0.6529 H   0  0  0  0  0  0  0  0  0  0  0  0
    4.7242   -0.3688   -0.9291 H   0  0  0  0  0  0  0  0  0  0  0  0
    4.1432   -1.2542    0.5098 H   0  0  0  0  0  0  0  0  0  0  0  0
    2.3400   -1.4312   -1.5453 H   0  0  0  0  0  0  0  0  0  0  0  0
    1.9947    2.3135   -0.3294 H   0  0  0  0  0  0  0  0  0  0  0  0
  1 12  1  0  0  0  0
  1 10  1  0  0  0  0
  2  1  1  6  0  0  0
  2  3  1  0  0  0  0
  3  4  1  0  0  0  0
  3 14  1  0  0  0  0
  3 13  1  0  0  0  0
  5 15  1  1  0  0  0
  5  4  1  0  0  0  0
  6 17  1  0  0  0  0
  6  5  1  0  0  0  0
  7 18  1  6  0  0  0
  7  6  1  0  0  0  0
  7  2  1  0  0  0  0
  8  7  1  0  0  0  0
  8  9  1  0  0  0  0
  9 19  1  1  0  0  0
  9  2  1  0  0  0  0
  9  5  1  0  0  0  0
 11  1  1  0  0  0  0
 16  6  1  0  0  0  0
M TOR 0 0 1 2 3
M TOR 1 0 1 2 12
M TOR 2 0 1 2 13
M TOR 3 0 1 6 5
M TOR 4 0 1 6 7
M TOR 5 0 1 6 17
M TOR 6 0 1 8 4
M TOR 7 0 1 8 7
M TOR 8 0 1 8 18
M TOR 9 1 2 3 4
M TOR 10 1 6 5 4
M TOR 11 1 6 5 15
M TOR 12 1 6 5 16
M TOR 13 1 6 7 8
M TOR 14 1 8 4 3
M TOR 15 1 8 4 5
M TOR 16 1 8 4 14
M TOR 17 2 1 0 9
M TOR 18 2 1 0 10
M TOR 19 2 1 0 11
M TOR 20 2 1 6 5
M TOR 21 2 1 6 7
M TOR 22 2 1 6 17
M TOR 23 2 1 8 4
M TOR 24 2 1 8 7
M TOR 25 2 1 8 18
M TOR 26 2 3 4 5
M TOR 27 2 3 4 8
M TOR 28 2 3 4 14
M TOR 29 3 2 1 6
M TOR 30 3 2 1 8
M TOR 31 3 4 5 6
M TOR 32 3 4 5 15
M TOR 33 3 4 5 16
M TOR 34 3 4 8 7
M TOR 35 3 4 8 18
M TOR 36 4 3 2 12
M TOR 37 4 3 2 13
M TOR 38 4 5 6 7
M TOR 39 4 5 6 17
M TOR 40 4 8 1 6
M TOR 41 4 8 7 6
M TOR 42 5 4 8 7
M TOR 43 5 4 8 18
M TOR 44 5 6 1 8
M TOR 45 5 6 7 8
M TOR 46 6 1 0 9
M TOR 47 6 1 0 10
M TOR 48 6 1 0 11
M TOR 49 6 1 2 12
M TOR 50 6 1 2 13
M TOR 51 6 1 8 18
M TOR 52 6 5 4 8
M TOR 53 6 5 4 14
M TOR 54 6 7 8 18
M TOR 55 7 6 5 15
M TOR 56 7 6 5 16
M TOR 57 7 8 4 14
M TOR 58 8 1 0 9
M TOR 59 8 1 0 10
M TOR 60 8 1 0 11
M TOR 61 8 1 2 12
M TOR 62 8 1 2 13
M TOR 63 8 1 6 17
M TOR 64 8 4 5 15
M TOR 65 8 4 5 16
M TOR 66 8 7 6 17
M  END
$$$$
