
     RDKit          3D

 19 21  0  0  0  0  0  0  0  0999 V2000
   -0.1722   -0.0330   -0.0010 C   0  0  0  0  0  0  0  0  0  0  0  0
    1.3481   -0.0133   -0.1274 C   0  0  0  0  0  0  0  0  0  0  0  0
    2.0878   -0.3517    1.1853 C   0  0  0  0  0  0  0  0  0  0  0  0
    2.0350    1.1305    1.6206 C   0  0  0  0  0  0  0  0  0  0  0  0
    3.3971    1.1179    2.0969 O   0  0  0  0  0  0  0  0  0  0  0  0
    3.5887    0.0992    1.0602 C   0  0  0  0  0  0  0  0  0  0  0  0
    3.5213    1.0038   -0.1978 C   0  0  0  0  0  0  0  0  0  0  0  0
    4.4433    2.0578   -0.1561 O   0  0  0  0  0  0  0  0  0  0  0  0
    2.0341    1.3735    0.0405 C   0  0  0  0  0  0  0  0  0  0  0  0
   -0.5182    0.5083    0.8859 H   0  0  0  0  0  0  0  0  0  0  0  0
   -0.6415    0.4300   -0.8753 H   0  0  0  0  0  0  0  0  0  0  0  0
   -0.5453   -1.0604    0.0728 H   0  0  0  0  0  0  0  0  0  0  0  0
    1.6534   -0.5713   -1.0201 H   0  0  0  0  0  0  0  0  0  0  0  0
    1.8466   -1.1896    1.8385 H   0  0  0  0  0  0  0  0  0  0  0  0
    1.3209    1.6167    2.2808 H   0  0  0  0  0  0  0  0  0  0  0  0
    4.4526   -0.5406    1.2318 H   0  0  0  0  0  0  0  0  0  0  0  0
    3.6704    0.4712   -1.1402 H   0  0  0  0  0  0  0  0  0  0  0  0
    4.4500    2.3477    0.7678 H   0  0  0  0  0  0  0  0  0  0  0  0
    1.6565    2.2797   -0.4297 H   0  0  0  0  0  0  0  0  0  0  0  0
  1  2  1  0
  2  3  1  0
  3  4  1  0
  4  5  1  0
  5  6  1  0
  6  7  1  0
  7  8  1  0
  7  9  1  0
  9  2  1  0
  6  3  1  0
  9  4  1  0
  1 10  1  0
  1 11  1  0
  1 12  1  0
  2 13  1  0
  3 14  1  0
  4 15  1  0
  6 16  1  0
  7 17  1  0
  8 18  1  0
  9 19  1  0
M  END
$$$$
