
     RDKit          3D

 19 19  0  0  0  0  0  0  0  0999 V2000
   -0.8104    2.2079   -1.1823 C   0  0  0  0  0  0  0  0  0  0  0  0
   -0.9822    1.1804   -0.0630 C   0  0  0  0  0  0  0  0  0  0  0  0
   -2.3957    0.5978    0.1319 C   0  0  0  0  0  0  0  0  0  0  0  0
   -2.1697   -0.8251    0.6469 C   0  0  0  0  0  0  0  0  0  0  0  0
   -2.8873   -1.4331    1.3979 O   0  0  0  0  0  0  0  0  0  0  0  0
   -0.8463   -1.3283    0.0724 C   0  0  0  0  0  0  0  0  0  0  0  0
   -0.1075   -2.3840    0.8889 C   0  0  0  0  0  0  0  0  0  0  0  0
   -0.0641   -0.0457   -0.2255 C   0  0  0  0  0  0  0  0  0  0  0  0
    1.1011    0.0054   -0.5251 O   0  0  0  0  0  0  0  0  0  0  0  0
   -1.1644    1.8073   -2.1385 H   0  0  0  0  0  0  0  0  0  0  0  0
   -1.3744    3.1204   -0.9695 H   0  0  0  0  0  0  0  0  0  0  0  0
    0.2453    2.4666   -1.2942 H   0  0  0  0  0  0  0  0  0  0  0  0
   -0.6586    1.6382    0.8839 H   0  0  0  0  0  0  0  0  0  0  0  0
   -3.0390    1.1628    0.8088 H   0  0  0  0  0  0  0  0  0  0  0  0
   -2.9149    0.5276   -0.8343 H   0  0  0  0  0  0  0  0  0  0  0  0
   -1.0979   -1.7413   -0.9202 H   0  0  0  0  0  0  0  0  0  0  0  0
    0.1331   -2.0045    1.8861 H   0  0  0  0  0  0  0  0  0  0  0  0
   -0.7282   -3.2742    1.0102 H   0  0  0  0  0  0  0  0  0  0  0  0
    0.8265   -2.6563    0.3927 H   0  0  0  0  0  0  0  0  0  0  0  0
  1  2  1  0
  2  3  1  0
  3  4  1  0
  4  5  2  0
  4  6  1  0
  6  7  1  0
  6  8  1  0
  8  9  2  0
  8  2  1  0
  1 10  1  0
  1 11  1  0
  1 12  1  0
  2 13  1  0
  3 14  1  0
  3 15  1  0
  6 16  1  0
  7 17  1  0
  7 18  1  0
  7 19  1  0
M  END
$$$$
