gdb 5121	3.3299238	1.3631514	1.1866874	2.6549	74.64	-0.23908	0.05404	0.29312	1113.7343	0.156413	-422.487819	-422.479693	-422.478749	-422.520661	30.861
 OpenBabel02181911423D

 19 21  0  0  1  0  0  0  0  0999 V2000
    1.3135    0.9930    0.4336 C   0  0  0  0  0  0  0  0  0  0  0  0
    0.8247   -0.4160    0.0679 C   0  0  0  0  0  0  0  0  0  0  0  0
    1.4638   -0.9296   -1.1838 C   0  0  1  0  0  0  0  0  0  0  0  0
    2.8390   -1.3303   -1.1296 O   0  0  0  0  0  0  0  0  0  0  0  0
    1.8935   -2.2711   -1.6446 C   0  0  2  0  0  0  0  0  0  0  0  0
    1.6363   -1.9160   -3.1296 C   0  0  2  0  0  0  0  0  0  0  0  0
    2.7570   -1.1355   -3.8565 C   0  0  0  0  0  0  0  0  0  0  0  0
    2.2471    0.1351   -3.3703 O   0  0  0  0  0  0  0  0  0  0  0  0
    1.1783   -0.5147   -2.6696 C   0  0  2  0  0  0  0  0  0  0  0  0
    0.8292    1.3480    1.3479 H   0  0  0  0  0  0  0  0  0  0  0  0
    2.3952    0.9946    0.5937 H   0  0  0  0  0  0  0  0  0  0  0  0
    1.0932    1.7086   -0.3650 H   0  0  0  0  0  0  0  0  0  0  0  0
    1.0433   -1.1148    0.8834 H   0  0  0  0  0  0  0  0  0  0  0  0
   -0.2643   -0.4131   -0.0672 H   0  0  0  0  0  0  0  0  0  0  0  0
    1.8469   -3.2408   -1.1604 H   0  0  0  0  0  0  0  0  0  0  0  0
    0.9971   -2.5890   -3.6973 H   0  0  0  0  0  0  0  0  0  0  0  0
    3.7784   -1.3246   -3.5153 H   0  0  0  0  0  0  0  0  0  0  0  0
    2.7052   -1.1838   -4.9501 H   0  0  0  0  0  0  0  0  0  0  0  0
    0.1907   -0.0875   -2.8658 H   0  0  0  0  0  0  0  0  0  0  0  0
  1 11  1  0  0  0  0
  1 10  1  0  0  0  0
  2  1  1  0  0  0  0
  2 13  1  0  0  0  0
  3  4  1  0  0  0  0
  3  2  1  1  0  0  0
  5  3  1  0  0  0  0
  5 15  1  1  0  0  0
  5  4  1  0  0  0  0
  6 16  1  6  0  0  0
  6  9  1  0  0  0  0
  6  5  1  0  0  0  0
  7 17  1  0  0  0  0
  7  8  1  0  0  0  0
  7  6  1  0  0  0  0
  8  9  1  0  0  0  0
  9 19  1  6  0  0  0
  9  3  1  0  0  0  0
 12  1  1  0  0  0  0
 14  2  1  0  0  0  0
 18  7  1  0  0  0  0
M TOR 0 0 1 2 3
M TOR 1 0 1 2 4
M TOR 2 0 1 2 8
M TOR 3 1 2 3 4
M TOR 4 1 2 4 5
M TOR 5 1 2 4 14
M TOR 6 1 2 8 5
M TOR 7 1 2 8 7
M TOR 8 1 2 8 18
M TOR 9 2 1 0 9
M TOR 10 2 1 0 10
M TOR 11 2 1 0 11
M TOR 12 2 3 4 5
M TOR 13 2 3 4 14
M TOR 14 2 4 5 6
M TOR 15 2 4 5 8
M TOR 16 2 4 5 15
M TOR 17 2 8 5 6
M TOR 18 2 8 5 15
M TOR 19 2 8 7 6
M TOR 20 3 2 1 12
M TOR 21 3 2 1 13
M TOR 22 3 2 8 5
M TOR 23 3 2 8 7
M TOR 24 3 2 8 18
M TOR 25 3 4 2 8
M TOR 26 3 4 5 6
M TOR 27 3 4 5 8
M TOR 28 3 4 5 15
M TOR 29 4 2 1 12
M TOR 30 4 2 1 13
M TOR 31 4 2 8 7
M TOR 32 4 2 8 18
M TOR 33 4 5 6 7
M TOR 34 4 5 6 16
M TOR 35 4 5 6 17
M TOR 36 4 5 8 7
M TOR 37 4 5 8 18
M TOR 38 5 6 7 8
M TOR 39 6 5 4 14
M TOR 40 6 5 8 18
M TOR 41 6 7 8 18
M TOR 42 7 6 5 15
M TOR 43 7 8 5 15
M TOR 44 8 2 1 12
M TOR 45 8 2 1 13
M TOR 46 8 2 4 14
M TOR 47 8 5 4 14
M TOR 48 8 5 6 16
M TOR 49 8 5 6 17
M TOR 50 8 7 6 16
M TOR 51 8 7 6 17
M  END
$$$$
