
     RDKit          3D

 19 19  0  0  0  0  0  0  0  0999 V2000
    3.1203   -2.9496   -0.2877 C   0  0  0  0  0  0  0  0  0  0  0  0
    3.1259   -2.0131   -1.5033 C   0  0  0  0  0  0  0  0  0  0  0  0
    2.3560   -0.7399   -1.2210 C   0  0  0  0  0  0  0  0  0  0  0  0
    0.9003   -0.6200   -1.4247 C   0  0  0  0  0  0  0  0  0  0  0  0
    1.8176    0.1683   -2.3715 C   0  0  0  0  0  0  0  0  0  0  0  0
    1.9149   -0.2858   -3.7877 C   0  0  0  0  0  0  0  0  0  0  0  0
    1.6350   -1.3991   -4.1710 O   0  0  0  0  0  0  0  0  0  0  0  0
    1.9630    1.6254   -2.1292 C   0  0  0  0  0  0  0  0  0  0  0  0
    2.2063    2.4490   -2.9768 O   0  0  0  0  0  0  0  0  0  0  0  0
    3.6877   -3.8602   -0.5003 H   0  0  0  0  0  0  0  0  0  0  0  0
    3.5711   -2.4726    0.5895 H   0  0  0  0  0  0  0  0  0  0  0  0
    2.1002   -3.2433   -0.0201 H   0  0  0  0  0  0  0  0  0  0  0  0
    4.1596   -1.7588   -1.7670 H   0  0  0  0  0  0  0  0  0  0  0  0
    2.6924   -2.5173   -2.3699 H   0  0  0  0  0  0  0  0  0  0  0  0
    2.7620   -0.1485   -0.4009 H   0  0  0  0  0  0  0  0  0  0  0  0
    0.3888   -1.4410   -1.9168 H   0  0  0  0  0  0  0  0  0  0  0  0
    0.3021   -0.0413   -0.7286 H   0  0  0  0  0  0  0  0  0  0  0  0
    2.2645    0.4978   -4.4856 H   0  0  0  0  0  0  0  0  0  0  0  0
    1.8329    1.9201   -1.0607 H   0  0  0  0  0  0  0  0  0  0  0  0
  1  2  1  0
  2  3  1  0
  3  4  1  0
  4  5  1  0
  5  6  1  0
  6  7  2  0
  5  8  1  0
  8  9  2  0
  5  3  1  0
  1 10  1  0
  1 11  1  0
  1 12  1  0
  2 13  1  0
  2 14  1  0
  3 15  1  0
  4 16  1  0
  4 17  1  0
  6 18  1  0
  8 19  1  0
M  END
$$$$
