
     RDKit          3D

 19 21  0  0  0  0  0  0  0  0999 V2000
    0.0335    0.0181    0.2493 C   0  0  0  0  0  0  0  0  0  0  0  0
    1.5397    0.0963    0.1723 C   0  0  0  0  0  0  0  0  0  0  0  0
    2.2198    0.8642   -0.9855 C   0  0  0  0  0  0  0  0  0  0  0  0
    3.0551    1.6031   -0.0576 O   0  0  0  0  0  0  0  0  0  0  0  0
    2.3962    0.9982    1.0866 C   0  0  0  0  0  0  0  0  0  0  0  0
    3.0818   -0.2284    1.7194 C   0  0  0  0  0  0  0  0  0  0  0  0
    3.7933   -1.0269    0.6491 C   0  0  0  0  0  0  0  0  0  0  0  0
    2.3022   -1.1317    0.7615 C   0  0  0  0  0  0  0  0  0  0  0  0
    1.6640   -2.3233    1.0611 O   0  0  0  0  0  0  0  0  0  0  0  0
   -0.2925   -0.3176    1.2383 H   0  0  0  0  0  0  0  0  0  0  0  0
   -0.4195    0.9940    0.0468 H   0  0  0  0  0  0  0  0  0  0  0  0
   -0.3620   -0.6977   -0.4802 H   0  0  0  0  0  0  0  0  0  0  0  0
    2.8078    0.2846   -1.7076 H   0  0  0  0  0  0  0  0  0  0  0  0
    1.5443    1.5376   -1.5290 H   0  0  0  0  0  0  0  0  0  0  0  0
    1.9761    1.7376    1.7731 H   0  0  0  0  0  0  0  0  0  0  0  0
    3.3119   -0.3520    2.7705 H   0  0  0  0  0  0  0  0  0  0  0  0
    4.2909   -0.5154   -0.1674 H   0  0  0  0  0  0  0  0  0  0  0  0
    4.3145   -1.8989    1.0322 H   0  0  0  0  0  0  0  0  0  0  0  0
    1.8566   -2.9578    0.3621 H   0  0  0  0  0  0  0  0  0  0  0  0
  1  2  1  0
  2  3  1  0
  3  4  1  0
  4  5  1  0
  5  6  1  0
  6  7  1  0
  7  8  1  0
  8  9  1  0
  5  2  1  0
  8  6  1  0
  8  2  1  0
  1 10  1  0
  1 11  1  0
  1 12  1  0
  3 13  1  0
  3 14  1  0
  5 15  1  0
  6 16  1  0
  7 17  1  0
  7 18  1  0
  9 19  1  0
M  END
$$$$
