gdb 5602	2.4327443	1.4485685	0.9959039	3.7768	76.47	-0.23863	-0.02817	0.21046	1216.8321	0.155834	-422.524419	-422.515577	-422.514633	-422.558734	31.892
 OpenBabel02181911423D

 19 20  0  0  1  0  0  0  0  0999 V2000
    1.4934    0.1671   -0.0726 C   0  0  0  0  0  0  0  0  0  0  0  0
    0.0925    0.0276    0.0491 O   0  0  0  0  0  0  0  0  0  0  0  0
   -0.4201    0.5678    1.2291 C   0  0  2  0  0  0  0  0  0  0  0  0
   -0.3385   -0.3017    2.5351 C   0  0  1  0  0  0  0  0  0  0  0  0
   -0.1916    0.5125    3.8414 C   0  0  0  0  0  0  0  0  0  0  0  0
   -1.7353    0.7211    3.8853 C   0  0  0  0  0  0  0  0  0  0  0  0
   -1.9103   -0.2501    2.6680 C   0  0  1  0  0  0  0  0  0  0  0  0
   -1.9694    0.4365    1.3057 C   0  0  0  0  0  0  0  0  0  0  0  0
   -2.8417    0.6614    0.5204 O   0  0  0  0  0  0  0  0  0  0  0  0
    2.0319   -0.3673    0.7237 H   0  0  0  0  0  0  0  0  0  0  0  0
    1.7758   -0.2594   -1.0376 H   0  0  0  0  0  0  0  0  0  0  0  0
    1.7942    1.2257   -0.0449 H   0  0  0  0  0  0  0  0  0  0  0  0
   -0.0616    1.6006    1.3833 H   0  0  0  0  0  0  0  0  0  0  0  0
    0.2106   -1.2349    2.4137 H   0  0  0  0  0  0  0  0  0  0  0  0
    0.1713   -0.0873    4.6795 H   0  0  0  0  0  0  0  0  0  0  0  0
    0.4246    1.4146    3.7771 H   0  0  0  0  0  0  0  0  0  0  0  0
   -2.2157    0.3598    4.7961 H   0  0  0  0  0  0  0  0  0  0  0  0
   -2.0800    1.7426    3.7053 H   0  0  0  0  0  0  0  0  0  0  0  0
   -2.5600   -1.1133    2.8145 H   0  0  0  0  0  0  0  0  0  0  0  0
  1 12  1  0  0  0  0
  1  2  1  0  0  0  0
  1 10  1  0  0  0  0
  2  3  1  0  0  0  0
  3  8  1  0  0  0  0
  3 13  1  1  0  0  0
  3  4  1  0  0  0  0
  4 14  1  6  0  0  0
  4  7  1  0  0  0  0
  4  5  1  0  0  0  0
  5  6  1  0  0  0  0
  5 15  1  0  0  0  0
  6 17  1  0  0  0  0
  7 19  1  1  0  0  0
  7  6  1  0  0  0  0
  8  7  1  0  0  0  0
  9  8  2  0  0  0  0
 11  1  1  0  0  0  0
 16  5  1  0  0  0  0
 18  6  1  0  0  0  0
M TOR 0 0 1 2 3
M TOR 1 0 1 2 7
M TOR 2 0 1 2 12
M TOR 3 1 2 3 4
M TOR 4 1 2 3 6
M TOR 5 1 2 3 13
M TOR 6 1 2 7 6
M TOR 7 1 2 7 8
M TOR 8 2 1 0 9
M TOR 9 2 1 0 10
M TOR 10 2 1 0 11
M TOR 11 2 3 4 5
M TOR 12 2 3 4 14
M TOR 13 2 3 4 15
M TOR 14 2 3 6 5
M TOR 15 2 3 6 7
M TOR 16 2 3 6 18
M TOR 17 2 7 6 5
M TOR 18 2 7 6 18
M TOR 19 3 2 7 8
M TOR 20 3 4 5 6
M TOR 21 3 4 5 16
M TOR 22 3 4 5 17
M TOR 23 3 6 5 16
M TOR 24 3 6 5 17
M TOR 25 3 6 7 8
M TOR 26 4 3 2 7
M TOR 27 4 3 2 12
M TOR 28 4 3 6 7
M TOR 29 4 3 6 18
M TOR 30 4 5 6 7
M TOR 31 4 5 6 18
M TOR 32 5 4 3 13
M TOR 33 5 6 3 13
M TOR 34 5 6 7 8
M TOR 35 6 3 2 12
M TOR 36 6 3 4 14
M TOR 37 6 3 4 15
M TOR 38 6 5 4 14
M TOR 39 6 5 4 15
M TOR 40 6 7 2 12
M TOR 41 7 2 3 13
M TOR 42 7 6 3 13
M TOR 43 7 6 5 16
M TOR 44 7 6 5 17
M TOR 45 8 7 2 12
M TOR 46 8 7 6 18
M  END
$$$$
