gdb 4690	3.1753635	1.09478	0.9572103	2.7764	77.4	-0.22637	-0.01814	0.20823	1304.1182	0.155412	-422.576033	-422.566748	-422.565804	-422.611311	32.831
 OpenBabel02181911413D

 19 19  0  0  1  0  0  0  0  0999 V2000
    0.9029   -0.8170    0.4410 C   0  0  0  0  0  0  0  0  0  0  0  0
    0.8920    0.4186   -0.4545 C   0  0  0  0  0  0  0  0  0  0  0  0
    1.7853    1.5322    0.0534 C   0  0  0  0  0  0  0  0  0  0  0  0
    2.4620    1.4449    1.0518 O   0  0  0  0  0  0  0  0  0  0  0  0
    1.7940    2.8529   -0.7429 C   0  0  1  0  0  0  0  0  0  0  0  0
    1.2459    2.7140   -2.0490 O   0  0  0  0  0  0  0  0  0  0  0  0
    0.1513    3.6154   -2.2328 C   0  0  0  0  0  0  0  0  0  0  0  0
    0.0007    4.3155   -0.9121 C   0  0  0  0  0  0  0  0  0  0  0  0
    0.9355    3.8944   -0.0687 C   0  0  0  0  0  0  0  0  0  0  0  0
    0.5571   -0.5744    1.4493 H   0  0  0  0  0  0  0  0  0  0  0  0
    0.2553   -1.5970    0.0311 H   0  0  0  0  0  0  0  0  0  0  0  0
    1.9142   -1.2208    0.5353 H   0  0  0  0  0  0  0  0  0  0  0  0
    1.2060    0.1877   -1.4800 H   0  0  0  0  0  0  0  0  0  0  0  0
   -0.1200    0.8310   -0.5674 H   0  0  0  0  0  0  0  0  0  0  0  0
    2.8466    3.1698   -0.8027 H   0  0  0  0  0  0  0  0  0  0  0  0
    0.3766    4.3122   -3.0550 H   0  0  0  0  0  0  0  0  0  0  0  0
   -0.7480    3.0512   -2.5226 H   0  0  0  0  0  0  0  0  0  0  0  0
   -0.7626    5.0583   -0.7190 H   0  0  0  0  0  0  0  0  0  0  0  0
    1.1013    4.2037    0.9541 H   0  0  0  0  0  0  0  0  0  0  0  0
  1 12  1  0  0  0  0
  1 10  1  0  0  0  0
  2  3  1  0  0  0  0
  2  1  1  0  0  0  0
  3  4  2  0  0  0  0
  5 15  1  6  0  0  0
  5  9  1  0  0  0  0
  5  3  1  0  0  0  0
  6  5  1  0  0  0  0
  7  6  1  0  0  0  0
  7  8  1  0  0  0  0
  8 18  1  0  0  0  0
  8  9  2  0  0  0  0
  9 19  1  0  0  0  0
 11  1  1  0  0  0  0
 13  2  1  0  0  0  0
 14  2  1  0  0  0  0
 16  7  1  0  0  0  0
 17  7  1  0  0  0  0
M TOR 0 0 1 2 3
M TOR 1 0 1 2 4
M TOR 2 1 2 4 5
M TOR 3 1 2 4 8
M TOR 4 1 2 4 14
M TOR 5 2 1 0 9
M TOR 6 2 1 0 10
M TOR 7 2 1 0 11
M TOR 8 2 4 5 6
M TOR 9 2 4 8 7
M TOR 10 2 4 8 18
M TOR 11 3 2 1 12
M TOR 12 3 2 1 13
M TOR 13 3 2 4 5
M TOR 14 3 2 4 8
M TOR 15 3 2 4 14
M TOR 16 4 2 1 12
M TOR 17 4 2 1 13
M TOR 18 4 5 6 7
M TOR 19 4 5 6 15
M TOR 20 4 5 6 16
M TOR 21 4 8 7 6
M TOR 22 4 8 7 17
M TOR 23 5 4 8 7
M TOR 24 5 4 8 18
M TOR 25 5 6 7 8
M TOR 26 5 6 7 17
M TOR 27 6 5 4 8
M TOR 28 6 5 4 14
M TOR 29 6 7 8 18
M TOR 30 7 8 4 14
M TOR 31 8 7 6 15
M TOR 32 8 7 6 16
M  END
$$$$
