
     RDKit          3D

 19 20  0  0  0  0  0  0  0  0999 V2000
    1.4825    1.5722   -1.8955 O   0  0  0  0  0  0  0  0  0  0  0  0
    2.0782    0.3920   -1.4804 C   0  0  0  0  0  0  0  0  0  0  0  0
    2.1648   -0.7477   -2.4753 C   0  0  0  0  0  0  0  0  0  0  0  0
    3.4247   -0.0197   -2.1054 C   0  0  0  0  0  0  0  0  0  0  0  0
    4.0874    0.9294   -3.0482 C   0  0  0  0  0  0  0  0  0  0  0  0
    5.3805    0.5401   -3.7255 C   0  0  0  0  0  0  0  0  0  0  0  0
    5.3780    1.6058   -2.6583 C   0  0  0  0  0  0  0  0  0  0  0  0
    1.8954    0.1034   -0.0483 C   0  0  0  0  0  0  0  0  0  0  0  0
    1.3309    0.8796    0.6925 O   0  0  0  0  0  0  0  0  0  0  0  0
    1.1768    1.9946   -1.0768 H   0  0  0  0  0  0  0  0  0  0  0  0
    2.0123   -1.7634   -2.1249 H   0  0  0  0  0  0  0  0  0  0  0  0
    1.7208   -0.5227   -3.4390 H   0  0  0  0  0  0  0  0  0  0  0  0
    4.1055   -0.5519   -1.4441 H   0  0  0  0  0  0  0  0  0  0  0  0
    3.3941    1.5265   -3.6301 H   0  0  0  0  0  0  0  0  0  0  0  0
    5.8126   -0.4240   -3.4780 H   0  0  0  0  0  0  0  0  0  0  0  0
    5.5273    0.8388   -4.7576 H   0  0  0  0  0  0  0  0  0  0  0  0
    5.8097    1.3572   -1.6940 H   0  0  0  0  0  0  0  0  0  0  0  0
    5.5236    2.6384   -2.9545 H   0  0  0  0  0  0  0  0  0  0  0  0
    2.3233   -0.8533    0.3161 H   0  0  0  0  0  0  0  0  0  0  0  0
  1  2  1  0
  2  3  1  0
  3  4  1  0
  4  5  1  0
  5  6  1  0
  6  7  1  0
  2  8  1  0
  8  9  2  0
  4  2  1  0
  7  5  1  0
  1 10  1  0
  3 11  1  0
  3 12  1  0
  4 13  1  0
  5 14  1  0
  6 15  1  0
  6 16  1  0
  7 17  1  0
  7 18  1  0
  8 19  1  0
M  END
$$$$
