
     RDKit          3D

 19 20  0  0  0  0  0  0  0  0999 V2000
   -0.9973   -2.3848    0.8956 C   0  0  0  0  0  0  0  0  0  0  0  0
   -1.0206   -1.0939    0.1286 C   0  0  0  0  0  0  0  0  0  0  0  0
   -1.8826   -0.8749   -1.1115 C   0  0  0  0  0  0  0  0  0  0  0  0
   -2.0662    0.0663    0.0218 C   0  0  0  0  0  0  0  0  0  0  0  0
   -0.9588    1.1313   -0.0263 C   0  0  0  0  0  0  0  0  0  0  0  0
   -0.9121    2.1085    1.1359 C   0  0  0  0  0  0  0  0  0  0  0  0
   -2.0230    2.9850    1.0091 O   0  0  0  0  0  0  0  0  0  0  0  0
    0.0425   -0.0422    0.1744 C   0  0  0  0  0  0  0  0  0  0  0  0
    1.1924   -0.0614    0.5232 O   0  0  0  0  0  0  0  0  0  0  0  0
   -0.3348   -3.1130    0.4154 H   0  0  0  0  0  0  0  0  0  0  0  0
   -0.6339   -2.2298    1.9163 H   0  0  0  0  0  0  0  0  0  0  0  0
   -1.9961   -2.8291    0.9501 H   0  0  0  0  0  0  0  0  0  0  0  0
   -1.4408   -0.5312   -2.0435 H   0  0  0  0  0  0  0  0  0  0  0  0
   -2.6434   -1.6391   -1.2395 H   0  0  0  0  0  0  0  0  0  0  0  0
   -2.9860    0.1613    0.5833 H   0  0  0  0  0  0  0  0  0  0  0  0
   -0.8957    1.6815   -0.9712 H   0  0  0  0  0  0  0  0  0  0  0  0
   -0.9463    1.5562    2.0890 H   0  0  0  0  0  0  0  0  0  0  0  0
    0.0435    2.6516    1.1065 H   0  0  0  0  0  0  0  0  0  0  0  0
   -1.9933    3.6126    1.7376 H   0  0  0  0  0  0  0  0  0  0  0  0
  1  2  1  0
  2  3  1  0
  3  4  1  0
  4  5  1  0
  5  6  1  0
  6  7  1  0
  5  8  1  0
  8  9  2  0
  4  2  1  0
  8  2  1  0
  1 10  1  0
  1 11  1  0
  1 12  1  0
  3 13  1  0
  3 14  1  0
  4 15  1  0
  5 16  1  0
  6 17  1  0
  6 18  1  0
  7 19  1  0
M  END
$$$$
