
     RDKit          3D

 19 19  0  0  0  0  0  0  0  0999 V2000
    5.8458   -1.2366    1.3495 C   0  0  0  0  0  0  0  0  0  0  0  0
    4.6660   -0.2923    1.3535 C   0  0  0  0  0  0  0  0  0  0  0  0
    4.7236    1.0257    0.6291 C   0  0  0  0  0  0  0  0  0  0  0  0
    5.8404    1.3534   -0.1424 O   0  0  0  0  0  0  0  0  0  0  0  0
    3.8592   -0.0828    0.0655 C   0  0  0  0  0  0  0  0  0  0  0  0
    2.4310    0.0061    0.0963 C   0  0  0  0  0  0  0  0  0  0  0  0
    1.2259    0.0631    0.1244 C   0  0  0  0  0  0  0  0  0  0  0  0
   -0.2284    0.1993    0.1430 C   0  0  0  0  0  0  0  0  0  0  0  0
   -0.7347    1.0728   -0.8593 O   0  0  0  0  0  0  0  0  0  0  0  0
    6.5092   -1.0384    2.1994 H   0  0  0  0  0  0  0  0  0  0  0  0
    5.5181   -2.2784    1.4219 H   0  0  0  0  0  0  0  0  0  0  0  0
    6.4314   -1.1245    0.4336 H   0  0  0  0  0  0  0  0  0  0  0  0
    4.0691   -0.2925    2.2610 H   0  0  0  0  0  0  0  0  0  0  0  0
    4.2004    1.8723    1.0718 H   0  0  0  0  0  0  0  0  0  0  0  0
    6.5462    1.6267    0.4539 H   0  0  0  0  0  0  0  0  0  0  0  0
    4.2895   -0.5571   -0.8129 H   0  0  0  0  0  0  0  0  0  0  0  0
   -0.7040   -0.7706   -0.0427 H   0  0  0  0  0  0  0  0  0  0  0  0
   -0.5487    0.5192    1.1483 H   0  0  0  0  0  0  0  0  0  0  0  0
   -0.2056    1.8767   -0.8297 H   0  0  0  0  0  0  0  0  0  0  0  0
  1  2  1  0
  2  3  1  0
  3  4  1  0
  3  5  1  0
  5  6  1  0
  6  7  3  0
  7  8  1  0
  8  9  1  0
  5  2  1  0
  1 10  1  0
  1 11  1  0
  1 12  1  0
  2 13  1  0
  3 14  1  0
  4 15  1  0
  5 16  1  0
  8 17  1  0
  8 18  1  0
  9 19  1  0
M  END
$$$$
