
     RDKit          3D

 19 20  0  0  0  0  0  0  0  0999 V2000
   -0.1607    1.6770   -0.2536 C   0  0  0  0  0  0  0  0  0  0  0  0
    0.0630    0.1837   -0.0597 C   0  0  0  0  0  0  0  0  0  0  0  0
   -1.1965   -0.5742    0.5265 C   0  0  0  0  0  0  0  0  0  0  0  0
   -0.5105   -0.5384    1.9507 C   0  0  0  0  0  0  0  0  0  0  0  0
   -0.8697    0.5841    2.7349 O   0  0  0  0  0  0  0  0  0  0  0  0
    0.7663   -0.3131    1.1705 C   0  0  0  0  0  0  0  0  0  0  0  0
    1.8619   -0.9861    0.8429 C   0  0  0  0  0  0  0  0  0  0  0  0
    2.0435   -0.8616   -0.6621 C   0  0  0  0  0  0  0  0  0  0  0  0
    0.7913   -0.3583   -1.1584 O   0  0  0  0  0  0  0  0  0  0  0  0
    0.7941    2.1897   -0.4034 H   0  0  0  0  0  0  0  0  0  0  0  0
   -0.7841    1.8477   -1.1376 H   0  0  0  0  0  0  0  0  0  0  0  0
   -0.6575    2.1061    0.6195 H   0  0  0  0  0  0  0  0  0  0  0  0
   -2.1620   -0.0633    0.4563 H   0  0  0  0  0  0  0  0  0  0  0  0
   -1.2667   -1.5899    0.1336 H   0  0  0  0  0  0  0  0  0  0  0  0
   -0.5559   -1.4633    2.5381 H   0  0  0  0  0  0  0  0  0  0  0  0
   -1.7865    0.4682    3.0063 H   0  0  0  0  0  0  0  0  0  0  0  0
    2.4514   -1.6553    1.4573 H   0  0  0  0  0  0  0  0  0  0  0  0
    2.8683   -0.1942   -0.9597 H   0  0  0  0  0  0  0  0  0  0  0  0
    2.2380   -1.8417   -1.1181 H   0  0  0  0  0  0  0  0  0  0  0  0
  1  2  1  0
  2  3  1  0
  3  4  1  0
  4  5  1  0
  4  6  1  0
  6  7  2  0
  7  8  1  0
  8  9  1  0
  6  2  1  0
  9  2  1  0
  1 10  1  0
  1 11  1  0
  1 12  1  0
  3 13  1  0
  3 14  1  0
  4 15  1  0
  5 16  1  0
  7 17  1  0
  8 18  1  0
  8 19  1  0
M  END
$$$$
