
     RDKit          3D

 19 21  0  0  0  0  0  0  0  0999 V2000
   -0.3420    1.3498    0.0300 C   0  0  0  0  0  0  0  0  0  0  0  0
    0.2093    0.0780    0.3869 O   0  0  0  0  0  0  0  0  0  0  0  0
    1.3579   -0.1935   -0.4341 C   0  0  0  0  0  0  0  0  0  0  0  0
    1.8087    1.1872   -0.9237 C   0  0  0  0  0  0  0  0  0  0  0  0
    0.4257    1.7878   -1.2271 C   0  0  0  0  0  0  0  0  0  0  0  0
   -0.1789    1.0884   -2.4382 C   0  0  0  0  0  0  0  0  0  0  0  0
    0.7183    0.6214   -3.4458 O   0  0  0  0  0  0  0  0  0  0  0  0
    0.0719   -0.3536   -2.6096 C   0  0  0  0  0  0  0  0  0  0  0  0
    0.9465   -1.0948   -1.6102 C   0  0  0  0  0  0  0  0  0  0  0  0
   -1.4198    1.2387   -0.1422 H   0  0  0  0  0  0  0  0  0  0  0  0
   -0.2004    2.0630    0.8543 H   0  0  0  0  0  0  0  0  0  0  0  0
    2.0952   -0.7004    0.1953 H   0  0  0  0  0  0  0  0  0  0  0  0
    2.3049    1.7433   -0.1233 H   0  0  0  0  0  0  0  0  0  0  0  0
    2.4562    1.1493   -1.7992 H   0  0  0  0  0  0  0  0  0  0  0  0
    0.4350    2.8726   -1.3605 H   0  0  0  0  0  0  0  0  0  0  0  0
   -1.1066    1.5140   -2.8221 H   0  0  0  0  0  0  0  0  0  0  0  0
   -0.6670   -0.9521   -3.1415 H   0  0  0  0  0  0  0  0  0  0  0  0
    0.3893   -1.9490   -1.2117 H   0  0  0  0  0  0  0  0  0  0  0  0
    1.8331   -1.4912   -2.1209 H   0  0  0  0  0  0  0  0  0  0  0  0
  1  2  1  0
  2  3  1  0
  3  4  1  0
  4  5  1  0
  5  6  1  0
  6  7  1  0
  7  8  1  0
  8  9  1  0
  5  1  1  0
  8  6  1  0
  9  3  1  0
  1 10  1  0
  1 11  1  0
  3 12  1  0
  4 13  1  0
  4 14  1  0
  5 15  1  0
  6 16  1  0
  8 17  1  0
  9 18  1  0
  9 19  1  0
M  END
$$$$
