
     RDKit          3D

 19 19  0  0  0  0  0  0  0  0999 V2000
   -0.0699    0.2924    0.1949 C   0  0  0  0  0  0  0  0  0  0  0  0
    1.3845   -0.1266   -0.0283 C   0  0  0  0  0  0  0  0  0  0  0  0
    1.9733    0.3109   -1.4031 C   0  0  0  0  0  0  0  0  0  0  0  0
    2.9110   -0.8230   -1.8559 C   0  0  0  0  0  0  0  0  0  0  0  0
    4.2487   -0.4681   -1.4774 O   0  0  0  0  0  0  0  0  0  0  0  0
    2.3951   -2.0106   -1.0718 C   0  0  0  0  0  0  0  0  0  0  0  0
    1.5888   -1.6324   -0.0810 C   0  0  0  0  0  0  0  0  0  0  0  0
    2.2824    0.4051    1.0969 C   0  0  0  0  0  0  0  0  0  0  0  0
    1.8825    0.9181    2.1099 O   0  0  0  0  0  0  0  0  0  0  0  0
   -0.4228   -0.0359    1.1756 H   0  0  0  0  0  0  0  0  0  0  0  0
   -0.1689    1.3815    0.1626 H   0  0  0  0  0  0  0  0  0  0  0  0
   -0.7163   -0.1393   -0.5750 H   0  0  0  0  0  0  0  0  0  0  0  0
    1.1478    0.4141   -2.1133 H   0  0  0  0  0  0  0  0  0  0  0  0
    2.5081    1.2642   -1.3699 H   0  0  0  0  0  0  0  0  0  0  0  0
    2.8731   -0.9792   -2.9434 H   0  0  0  0  0  0  0  0  0  0  0  0
    4.8049   -1.2484   -1.5736 H   0  0  0  0  0  0  0  0  0  0  0  0
    2.6989   -3.0311   -1.2819 H   0  0  0  0  0  0  0  0  0  0  0  0
    1.1349   -2.2887    0.6544 H   0  0  0  0  0  0  0  0  0  0  0  0
    3.3659    0.2638    0.8963 H   0  0  0  0  0  0  0  0  0  0  0  0
  1  2  1  0
  2  3  1  0
  3  4  1  0
  4  5  1  0
  4  6  1  0
  6  7  2  0
  2  8  1  0
  8  9  2  0
  7  2  1  0
  1 10  1  0
  1 11  1  0
  1 12  1  0
  3 13  1  0
  3 14  1  0
  4 15  1  0
  5 16  1  0
  6 17  1  0
  7 18  1  0
  8 19  1  0
M  END
$$$$
