gdb 2782	2.2302589	1.5564115	1.0302519	4.6464	76.2	-0.25734	0.01491	0.27225	1203.1531	0.156996	-422.60169	-422.593101	-422.592157	-422.63477	32.207
 OpenBabel02181911413D

 19 20  0  0  1  0  0  0  0  0999 V2000
   -2.1814    2.8564    1.6302 C   0  0  0  0  0  0  0  0  0  0  0  0
   -1.7156    1.4608    1.2823 C   0  0  1  0  0  0  0  0  0  0  0  0
   -2.3877    0.6917    0.1890 C   0  0  1  0  0  0  0  0  0  0  0  0
   -0.9976    1.2389   -0.0429 C   0  0  2  0  0  0  0  0  0  0  0  0
   -0.0852    0.0572   -0.0676 C   0  0  0  0  0  0  0  0  0  0  0  0
    1.0872    0.0160   -0.3063 O   0  0  0  0  0  0  0  0  0  0  0  0
   -0.8039   -1.0652    0.2505 O   0  0  0  0  0  0  0  0  0  0  0  0
   -2.2298   -0.8240    0.2273 C   0  0  2  0  0  0  0  0  0  0  0  0
   -2.8415   -1.5300   -0.9749 C   0  0  0  0  0  0  0  0  0  0  0  0
   -3.0012    2.8243    2.3556 H   0  0  0  0  0  0  0  0  0  0  0  0
   -1.3691    3.4465    2.0663 H   0  0  0  0  0  0  0  0  0  0  0  0
   -2.5412    3.3869    0.7426 H   0  0  0  0  0  0  0  0  0  0  0  0
   -1.3456    0.8788    2.1240 H   0  0  0  0  0  0  0  0  0  0  0  0
   -3.2545    1.1084   -0.3113 H   0  0  0  0  0  0  0  0  0  0  0  0
   -0.7591    2.0842   -0.6742 H   0  0  0  0  0  0  0  0  0  0  0  0
   -2.6271   -1.2493    1.1562 H   0  0  0  0  0  0  0  0  0  0  0  0
   -2.5918   -2.5938   -0.9582 H   0  0  0  0  0  0  0  0  0  0  0  0
   -3.9316   -1.4283   -0.9588 H   0  0  0  0  0  0  0  0  0  0  0  0
   -2.4656   -1.1005   -1.9088 H   0  0  0  0  0  0  0  0  0  0  0  0
  1 11  1  0  0  0  0
  1 10  1  0  0  0  0
  2  1  1  0  0  0  0
  2 13  1  1  0  0  0
  3 14  1  6  0  0  0
  3  8  1  0  0  0  0
  3  2  1  0  0  0  0
  4 15  1  6  0  0  0
  4  3  1  0  0  0  0
  4  2  1  0  0  0  0
  5  4  1  0  0  0  0
  5  7  1  0  0  0  0
  6  5  2  0  0  0  0
  8  7  1  0  0  0  0
  8 16  1  1  0  0  0
  9 18  1  0  0  0  0
  9 17  1  0  0  0  0
  9  8  1  0  0  0  0
 12  1  1  0  0  0  0
 19  9  1  0  0  0  0
M TOR 0 0 1 2 3
M TOR 1 0 1 2 7
M TOR 2 0 1 2 13
M TOR 3 0 1 3 4
M TOR 4 0 1 3 14
M TOR 5 1 2 3 4
M TOR 6 1 2 3 14
M TOR 7 1 2 7 6
M TOR 8 1 2 7 8
M TOR 9 1 2 7 15
M TOR 10 1 3 2 7
M TOR 11 1 3 2 13
M TOR 12 1 3 4 5
M TOR 13 1 3 4 6
M TOR 14 2 1 0 9
M TOR 15 2 1 0 10
M TOR 16 2 1 0 11
M TOR 17 2 3 1 12
M TOR 18 2 3 4 5
M TOR 19 2 3 4 6
M TOR 20 2 7 6 4
M TOR 21 2 7 8 16
M TOR 22 2 7 8 17
M TOR 23 2 7 8 18
M TOR 24 3 1 0 9
M TOR 25 3 1 0 10
M TOR 26 3 1 0 11
M TOR 27 3 2 7 6
M TOR 28 3 2 7 8
M TOR 29 3 2 7 15
M TOR 30 3 4 6 7
M TOR 31 4 3 1 12
M TOR 32 4 3 2 7
M TOR 33 4 3 2 13
M TOR 34 4 6 7 8
M TOR 35 4 6 7 15
M TOR 36 5 4 3 14
M TOR 37 5 4 6 7
M TOR 38 6 4 3 14
M TOR 39 6 7 2 13
M TOR 40 6 7 8 16
M TOR 41 6 7 8 17
M TOR 42 6 7 8 18
M TOR 43 7 2 1 12
M TOR 44 7 2 3 14
M TOR 45 8 7 2 13
M  END
$$$$
