gdb 1693	2.7552567	1.1544832	1.0226253	3.1061	76.33	-0.24198	-0.02211	0.21987	1232.889	0.155211	-422.581874	-422.572713	-422.571769	-422.616785	33.503
 OpenBabel02181911403D

 19 19  0  0  1  0  0  0  0  0999 V2000
   -0.0247    2.9139   -0.1805 O   0  0  0  0  0  0  0  0  0  0  0  0
   -1.0235    2.2051    0.5506 C   0  0  2  0  0  0  0  0  0  0  0  0
   -0.4188    0.9260    1.1728 C   0  0  0  0  0  0  0  0  0  0  0  0
    0.2052    0.0002    0.1496 C   0  0  0  0  0  0  0  0  0  0  0  0
   -0.0015   -1.1860    0.0902 O   0  0  0  0  0  0  0  0  0  0  0  0
   -2.1772    1.8594   -0.4318 C   0  0  0  0  0  0  0  0  0  0  0  0
   -3.4264    2.1396    0.3625 C   0  0  0  0  0  0  0  0  0  0  0  0
   -3.1681    2.7949    1.4930 C   0  0  0  0  0  0  0  0  0  0  0  0
   -1.6961    3.0730    1.6585 C   0  0  0  0  0  0  0  0  0  0  0  0
    0.6518    3.2062    0.4404 H   0  0  0  0  0  0  0  0  0  0  0  0
    0.3740    1.2237    1.8769 H   0  0  0  0  0  0  0  0  0  0  0  0
   -1.1740    0.3722    1.7384 H   0  0  0  0  0  0  0  0  0  0  0  0
    0.8913    0.5029   -0.5649 H   0  0  0  0  0  0  0  0  0  0  0  0
   -2.1038    2.5080   -1.3135 H   0  0  0  0  0  0  0  0  0  0  0  0
   -2.1228    0.8268   -0.7948 H   0  0  0  0  0  0  0  0  0  0  0  0
   -4.4124    1.8527    0.0148 H   0  0  0  0  0  0  0  0  0  0  0  0
   -3.9100    3.1284    2.2099 H   0  0  0  0  0  0  0  0  0  0  0  0
   -1.4681    4.1324    1.4767 H   0  0  0  0  0  0  0  0  0  0  0  0
   -1.3201    2.8328    2.6608 H   0  0  0  0  0  0  0  0  0  0  0  0
  1 10  1  0  0  0  0
  2  1  1  6  0  0  0
  2  3  1  0  0  0  0
  2  9  1  0  0  0  0
  3 12  1  0  0  0  0
  3 11  1  0  0  0  0
  4  3  1  0  0  0  0
  5  4  2  0  0  0  0
  6  7  1  0  0  0  0
  6  2  1  0  0  0  0
  7  8  2  0  0  0  0
  8  9  1  0  0  0  0
  8 17  1  0  0  0  0
  9 19  1  0  0  0  0
 13  4  1  0  0  0  0
 14  6  1  0  0  0  0
 15  6  1  0  0  0  0
 16  7  1  0  0  0  0
 18  9  1  0  0  0  0
M TOR 0 0 1 2 3
M TOR 1 0 1 2 10
M TOR 2 0 1 2 11
M TOR 3 0 1 5 6
M TOR 4 0 1 5 13
M TOR 5 0 1 5 14
M TOR 6 0 1 8 7
M TOR 7 0 1 8 17
M TOR 8 0 1 8 18
M TOR 9 1 2 3 4
M TOR 10 1 2 3 12
M TOR 11 1 5 6 7
M TOR 12 1 5 6 15
M TOR 13 1 8 7 6
M TOR 14 1 8 7 16
M TOR 15 2 1 0 9
M TOR 16 2 1 5 6
M TOR 17 2 1 5 13
M TOR 18 2 1 5 14
M TOR 19 2 1 8 7
M TOR 20 2 1 8 17
M TOR 21 2 1 8 18
M TOR 22 3 2 1 5
M TOR 23 3 2 1 8
M TOR 24 4 3 2 10
M TOR 25 4 3 2 11
M TOR 26 5 1 0 9
M TOR 27 5 1 2 10
M TOR 28 5 1 2 11
M TOR 29 5 1 8 7
M TOR 30 5 1 8 17
M TOR 31 5 1 8 18
M TOR 32 5 6 7 8
M TOR 33 5 6 7 16
M TOR 34 6 5 1 8
M TOR 35 6 7 8 17
M TOR 36 6 7 8 18
M TOR 37 7 6 5 13
M TOR 38 7 6 5 14
M TOR 39 8 1 0 9
M TOR 40 8 1 2 10
M TOR 41 8 1 2 11
M TOR 42 8 1 5 13
M TOR 43 8 1 5 14
M TOR 44 8 7 6 15
M  END
$$$$
