
     RDKit          3D

 19 20  0  0  0  0  0  0  0  0999 V2000
    0.0845    0.1982    0.0964 C   0  0  0  0  0  0  0  0  0  0  0  0
    1.5822   -0.1360    0.0797 C   0  0  0  0  0  0  0  0  0  0  0  0
    2.0523   -0.8785   -1.1612 C   0  0  0  0  0  0  0  0  0  0  0  0
    2.7629   -1.9724   -0.8759 C   0  0  0  0  0  0  0  0  0  0  0  0
    2.8422   -2.1901    0.5985 C   0  0  0  0  0  0  0  0  0  0  0  0
    4.0244   -2.6511    1.1651 O   0  0  0  0  0  0  0  0  0  0  0  0
    1.5140   -2.4679    1.2956 C   0  0  0  0  0  0  0  0  0  0  0  0
    2.0560   -1.0558    1.2098 C   0  0  0  0  0  0  0  0  0  0  0  0
    2.5992   -0.4715    2.3600 O   0  0  0  0  0  0  0  0  0  0  0  0
   -0.1855    0.7257    1.0174 H   0  0  0  0  0  0  0  0  0  0  0  0
   -0.1833    0.8441   -0.7460 H   0  0  0  0  0  0  0  0  0  0  0  0
   -0.5273   -0.7071    0.0309 H   0  0  0  0  0  0  0  0  0  0  0  0
    2.1400    0.8076    0.1733 H   0  0  0  0  0  0  0  0  0  0  0  0
    1.8029   -0.5354   -2.1596 H   0  0  0  0  0  0  0  0  0  0  0  0
    3.2158   -2.6504   -1.5895 H   0  0  0  0  0  0  0  0  0  0  0  0
    4.2721   -2.0057    1.8406 H   0  0  0  0  0  0  0  0  0  0  0  0
    0.6476   -2.7594    0.7114 H   0  0  0  0  0  0  0  0  0  0  0  0
    1.6051   -2.9378    2.2705 H   0  0  0  0  0  0  0  0  0  0  0  0
    1.9296   -0.4610    3.0513 H   0  0  0  0  0  0  0  0  0  0  0  0
  1  2  1  0
  2  3  1  0
  3  4  2  0
  4  5  1  0
  5  6  1  0
  5  7  1  0
  7  8  1  0
  8  9  1  0
  8  2  1  0
  8  5  1  0
  1 10  1  0
  1 11  1  0
  1 12  1  0
  2 13  1  0
  3 14  1  0
  4 15  1  0
  6 16  1  0
  7 17  1  0
  7 18  1  0
  9 19  1  0
M  END
$$$$
