gdb 1771	2.0955578	1.917933	1.2990115	2.9084	76.54	-0.23589	0.08504	0.32093	1061.7716	0.153896	-422.478364	-422.469422	-422.468478	-422.511354	33.835
 OpenBabel02181911403D

 19 21  0  0  1  0  0  0  0  0999 V2000
    4.6739   -0.8855    0.1006 C   0  0  0  0  0  0  0  0  0  0  0  0
    3.2967   -0.3072    0.1034 C   0  0  2  0  0  0  0  0  0  0  0  0
    2.5562    0.5634    1.1557 C   0  0  0  0  0  0  0  0  0  0  0  0
    1.5071    0.1123    0.1024 C   0  0  2  0  0  0  0  0  0  0  0  0
    0.0163    0.2062    0.0980 C   0  0  0  0  0  0  0  0  0  0  0  0
    2.1335   -1.2426    0.1403 O   0  0  0  0  0  0  0  0  0  0  0  0
    2.5361    0.4727   -0.9818 C   0  0  1  0  0  0  0  0  0  0  0  0
    2.7907    1.5565   -1.9187 C   0  0  0  0  0  0  0  0  0  0  0  0
    2.4742    0.2053   -2.3484 O   0  0  0  0  0  0  0  0  0  0  0  0
    4.8294   -1.5145    0.9819 H   0  0  0  0  0  0  0  0  0  0  0  0
    4.8248   -1.4945   -0.7956 H   0  0  0  0  0  0  0  0  0  0  0  0
    5.4223   -0.0867    0.1089 H   0  0  0  0  0  0  0  0  0  0  0  0
    2.4420    0.0783    2.1259 H   0  0  0  0  0  0  0  0  0  0  0  0
    2.8053    1.6262    1.2275 H   0  0  0  0  0  0  0  0  0  0  0  0
   -0.4033   -0.2880    0.9789 H   0  0  0  0  0  0  0  0  0  0  0  0
   -0.2992    1.2543    0.1058 H   0  0  0  0  0  0  0  0  0  0  0  0
   -0.3885   -0.2725   -0.7985 H   0  0  0  0  0  0  0  0  0  0  0  0
    2.0196    2.2966   -2.1271 H   0  0  0  0  0  0  0  0  0  0  0  0
    3.8105    1.8769   -2.1261 H   0  0  0  0  0  0  0  0  0  0  0  0
  1 12  1  0  0  0  0
  1 10  1  0  0  0  0
  2  1  1  6  0  0  0
  2  6  1  0  0  0  0
  2  3  1  0  0  0  0
  3 14  1  0  0  0  0
  3 13  1  0  0  0  0
  4  5  1  6  0  0  0
  4  6  1  0  0  0  0
  4  3  1  0  0  0  0
  5 16  1  0  0  0  0
  5 15  1  0  0  0  0
  7  9  1  6  0  0  0
  7  4  1  0  0  0  0
  7  2  1  0  0  0  0
  8  7  1  0  0  0  0
  9  8  1  0  0  0  0
 11  1  1  0  0  0  0
 17  5  1  0  0  0  0
 18  8  1  0  0  0  0
 19  8  1  0  0  0  0
M TOR 0 0 1 2 3
M TOR 1 0 1 2 12
M TOR 2 0 1 2 13
M TOR 3 0 1 5 3
M TOR 4 0 1 6 3
M TOR 5 0 1 6 7
M TOR 6 0 1 6 8
M TOR 7 1 2 3 4
M TOR 8 1 2 3 5
M TOR 9 1 2 3 6
M TOR 10 1 5 3 4
M TOR 11 1 5 3 6
M TOR 12 1 6 3 4
M TOR 13 1 6 7 8
M TOR 14 1 6 7 17
M TOR 15 1 6 7 18
M TOR 16 2 1 0 9
M TOR 17 2 1 0 10
M TOR 18 2 1 0 11
M TOR 19 2 1 6 7
M TOR 20 2 1 6 8
M TOR 21 2 3 4 14
M TOR 22 2 3 4 15
M TOR 23 2 3 4 16
M TOR 24 2 3 6 7
M TOR 25 2 3 6 8
M TOR 26 3 6 7 8
M TOR 27 3 6 7 17
M TOR 28 3 6 7 18
M TOR 29 4 3 2 12
M TOR 30 4 3 2 13
M TOR 31 4 3 6 7
M TOR 32 4 3 6 8
M TOR 33 5 1 0 9
M TOR 34 5 1 0 10
M TOR 35 5 1 0 11
M TOR 36 5 1 2 12
M TOR 37 5 1 2 13
M TOR 38 5 1 6 7
M TOR 39 5 1 6 8
M TOR 40 5 3 2 12
M TOR 41 5 3 2 13
M TOR 42 5 3 4 14
M TOR 43 5 3 4 15
M TOR 44 5 3 4 16
M TOR 45 5 3 6 7
M TOR 46 5 3 6 8
M TOR 47 6 1 0 9
M TOR 48 6 1 0 10
M TOR 49 6 1 0 11
M TOR 50 6 1 2 12
M TOR 51 6 1 2 13
M TOR 52 6 3 2 12
M TOR 53 6 3 2 13
M TOR 54 6 3 4 14
M TOR 55 6 3 4 15
M TOR 56 6 3 4 16
M TOR 57 6 8 7 17
M TOR 58 6 8 7 18
M  END
$$$$
