
     RDKit          3D

 19 20  0  0  0  0  0  0  0  0999 V2000
    1.0700   -0.7559    0.5320 O   0  0  0  0  0  0  0  0  0  0  0  0
    0.2042   -0.0649    0.0575 C   0  0  0  0  0  0  0  0  0  0  0  0
    0.3036    1.4194   -0.0575 C   0  0  0  0  0  0  0  0  0  0  0  0
   -0.9439    2.1168   -0.1789 O   0  0  0  0  0  0  0  0  0  0  0  0
   -0.0840    2.1100   -1.3137 C   0  0  0  0  0  0  0  0  0  0  0  0
   -0.5612    1.3957   -2.5816 C   0  0  0  0  0  0  0  0  0  0  0  0
   -0.6559    2.5233   -3.6254 C   0  0  0  0  0  0  0  0  0  0  0  0
    0.5279    3.4402   -3.2654 C   0  0  0  0  0  0  0  0  0  0  0  0
    0.5318    3.4560   -1.7235 C   0  0  0  0  0  0  0  0  0  0  0  0
   -0.7470   -0.4866   -0.3350 H   0  0  0  0  0  0  0  0  0  0  0  0
    1.0518    1.8822    0.5854 H   0  0  0  0  0  0  0  0  0  0  0  0
    0.1863    0.6585   -2.8982 H   0  0  0  0  0  0  0  0  0  0  0  0
   -1.5013    0.8671   -2.4097 H   0  0  0  0  0  0  0  0  0  0  0  0
   -0.6190    2.1562   -4.6540 H   0  0  0  0  0  0  0  0  0  0  0  0
   -1.6002    3.0670   -3.5028 H   0  0  0  0  0  0  0  0  0  0  0  0
    1.4607    3.0029   -3.6404 H   0  0  0  0  0  0  0  0  0  0  0  0
    0.4428    4.4413   -3.6952 H   0  0  0  0  0  0  0  0  0  0  0  0
    1.5258    3.6125   -1.2973 H   0  0  0  0  0  0  0  0  0  0  0  0
   -0.1181    4.2481   -1.3362 H   0  0  0  0  0  0  0  0  0  0  0  0
  1  2  2  0
  2  3  1  0
  3  4  1  0
  4  5  1  0
  5  6  1  0
  6  7  1  0
  7  8  1  0
  8  9  1  0
  5  3  1  0
  9  5  1  0
  2 10  1  0
  3 11  1  0
  6 12  1  0
  6 13  1  0
  7 14  1  0
  7 15  1  0
  8 16  1  0
  8 17  1  0
  9 18  1  0
  9 19  1  0
M  END
$$$$
