
     RDKit          3D

 19 19  0  0  0  0  0  0  0  0999 V2000
   -2.0882   -2.0673    1.7081 C   0  0  0  0  0  0  0  0  0  0  0  0
   -1.7030   -1.2624    0.4668 C   0  0  0  0  0  0  0  0  0  0  0  0
   -2.2039    0.0739    0.5906 O   0  0  0  0  0  0  0  0  0  0  0  0
   -1.1583    1.0140    0.4143 C   0  0  0  0  0  0  0  0  0  0  0  0
    0.1035    0.2156    0.2363 C   0  0  0  0  0  0  0  0  0  0  0  0
    1.4279    0.8761    0.0583 C   0  0  0  0  0  0  0  0  0  0  0  0
   -0.2111   -1.0925    0.2544 C   0  0  0  0  0  0  0  0  0  0  0  0
    0.6894   -2.2357    0.0600 C   0  0  0  0  0  0  0  0  0  0  0  0
    1.8944   -2.1824   -0.0764 O   0  0  0  0  0  0  0  0  0  0  0  0
   -1.7797   -3.1134    1.6085 H   0  0  0  0  0  0  0  0  0  0  0  0
   -1.6157   -1.6458    2.6002 H   0  0  0  0  0  0  0  0  0  0  0  0
   -3.1731   -2.0438    1.8432 H   0  0  0  0  0  0  0  0  0  0  0  0
   -2.1712   -1.7308   -0.4156 H   0  0  0  0  0  0  0  0  0  0  0  0
   -1.3502    1.6502   -0.4668 H   0  0  0  0  0  0  0  0  0  0  0  0
   -1.0998    1.6882    1.2840 H   0  0  0  0  0  0  0  0  0  0  0  0
    1.6752    1.4730    0.9457 H   0  0  0  0  0  0  0  0  0  0  0  0
    2.2154    0.1436   -0.1086 H   0  0  0  0  0  0  0  0  0  0  0  0
    1.3935    1.5780   -0.7846 H   0  0  0  0  0  0  0  0  0  0  0  0
    0.1742   -3.2222    0.0350 H   0  0  0  0  0  0  0  0  0  0  0  0
  1  2  1  0
  2  3  1  0
  3  4  1  0
  4  5  1  0
  5  6  1  0
  5  7  2  0
  7  8  1  0
  8  9  2  0
  7  2  1  0
  1 10  1  0
  1 11  1  0
  1 12  1  0
  2 13  1  0
  4 14  1  0
  4 15  1  0
  6 16  1  0
  6 17  1  0
  6 18  1  0
  8 19  1  0
M  END
$$$$
