gdb 1122	3.727969	1.0309421	0.9368665	1.6868	76.27	-0.22787	-0.01691	0.21095999999999998	1312.3176	0.154255	-422.536781	-422.527488	-422.526544	-422.572456	33.508
 OpenBabel02181911403D

 19 20  0  0  1  0  0  0  0  0999 V2000
   -2.2578    1.6880   -3.3835 C   0  0  0  0  0  0  0  0  0  0  0  0
   -0.9828    0.8840   -3.4966 C   0  0  0  0  0  0  0  0  0  0  0  0
   -0.4258    0.6546   -4.5454 O   0  0  0  0  0  0  0  0  0  0  0  0
   -0.3820    0.3743   -2.1888 C   0  0  2  0  0  0  0  0  0  0  0  0
    0.1311   -1.0794   -2.1769 C   0  0  0  0  0  0  0  0  0  0  0  0
   -0.9280   -1.2756   -1.0974 C   0  0  0  0  0  0  0  0  0  0  0  0
   -1.8866   -2.3931   -0.8636 C   0  0  0  0  0  0  0  0  0  0  0  0
   -0.8620   -2.0069    0.1993 C   0  0  0  0  0  0  0  0  0  0  0  0
   -1.3673    0.0897   -1.1658 O   0  0  0  0  0  0  0  0  0  0  0  0
   -3.0357    1.0786   -2.9143 H   0  0  0  0  0  0  0  0  0  0  0  0
   -2.1035    2.5484   -2.7219 H   0  0  0  0  0  0  0  0  0  0  0  0
   -2.5733    2.0262   -4.3708 H   0  0  0  0  0  0  0  0  0  0  0  0
    0.3438    1.1236   -1.8401 H   0  0  0  0  0  0  0  0  0  0  0  0
   -0.0285   -1.6143   -3.1142 H   0  0  0  0  0  0  0  0  0  0  0  0
    1.1642   -1.2089   -1.8519 H   0  0  0  0  0  0  0  0  0  0  0  0
   -2.9209   -2.1258   -0.6750 H   0  0  0  0  0  0  0  0  0  0  0  0
   -1.7475   -3.3193   -1.4119 H   0  0  0  0  0  0  0  0  0  0  0  0
   -1.2305   -1.4882    1.0778 H   0  0  0  0  0  0  0  0  0  0  0  0
   -0.0221   -2.6702    0.3803 H   0  0  0  0  0  0  0  0  0  0  0  0
  1 10  1  0  0  0  0
  1 11  1  0  0  0  0
  2  1  1  0  0  0  0
  2  4  1  0  0  0  0
  3  2  2  0  0  0  0
  4  5  1  0  0  0  0
  4 13  1  1  0  0  0
  4  9  1  0  0  0  0
  5 15  1  0  0  0  0
  5  6  1  0  0  0  0
  6  7  1  0  0  0  0
  6  8  1  0  0  0  0
  7 16  1  0  0  0  0
  7  8  1  0  0  0  0
  8 19  1  0  0  0  0
  8 18  1  0  0  0  0
  9  6  1  0  0  0  0
 12  1  1  0  0  0  0
 14  5  1  0  0  0  0
 17  7  1  0  0  0  0
M TOR 0 0 1 3 4
M TOR 1 0 1 3 8
M TOR 2 0 1 3 12
M TOR 3 1 3 4 5
M TOR 4 1 3 4 13
M TOR 5 1 3 4 14
M TOR 6 1 3 8 5
M TOR 7 2 1 0 9
M TOR 8 2 1 0 10
M TOR 9 2 1 0 11
M TOR 10 2 1 3 4
M TOR 11 2 1 3 8
M TOR 12 2 1 3 12
M TOR 13 3 1 0 9
M TOR 14 3 1 0 10
M TOR 15 3 1 0 11
M TOR 16 3 4 5 6
M TOR 17 3 4 5 7
M TOR 18 3 4 5 8
M TOR 19 3 8 5 6
M TOR 20 3 8 5 7
M TOR 21 4 5 6 7
M TOR 22 4 5 6 15
M TOR 23 4 5 6 16
M TOR 24 4 5 7 17
M TOR 25 4 5 7 18
M TOR 26 5 4 3 12
M TOR 27 5 6 7 17
M TOR 28 5 6 7 18
M TOR 29 5 7 6 15
M TOR 30 5 7 6 16
M TOR 31 5 8 3 12
M TOR 32 6 5 4 13
M TOR 33 6 5 4 14
M TOR 34 6 7 5 8
M TOR 35 7 5 4 13
M TOR 36 7 5 4 14
M TOR 37 8 3 4 13
M TOR 38 8 3 4 14
M TOR 39 8 5 4 13
M TOR 40 8 5 4 14
M TOR 41 8 5 6 15
M TOR 42 8 5 6 16
M TOR 43 8 5 7 17
M TOR 44 8 5 7 18
M  END
$$$$
