
     RDKit          3D

 19 20  0  0  0  0  0  0  0  0999 V2000
    1.5547    0.0515   -0.9215 C   0  0  0  0  0  0  0  0  0  0  0  0
    0.1194   -0.0897   -0.4955 C   0  0  0  0  0  0  0  0  0  0  0  0
   -0.7875    0.8801   -0.6468 C   0  0  0  0  0  0  0  0  0  0  0  0
   -2.1979    0.7794   -0.1365 C   0  0  0  0  0  0  0  0  0  0  0  0
   -2.3665   -0.2477    0.8198 O   0  0  0  0  0  0  0  0  0  0  0  0
   -1.8102   -1.4689    0.3800 C   0  0  0  0  0  0  0  0  0  0  0  0
   -0.3132   -1.3621    0.1548 C   0  0  0  0  0  0  0  0  0  0  0  0
    0.4576   -2.6121    0.0417 C   0  0  0  0  0  0  0  0  0  0  0  0
    0.5256   -1.8365    1.2343 O   0  0  0  0  0  0  0  0  0  0  0  0
    2.2238   -0.2131   -0.0958 H   0  0  0  0  0  0  0  0  0  0  0  0
    1.7982   -0.6098   -1.7620 H   0  0  0  0  0  0  0  0  0  0  0  0
    1.7726    1.0772   -1.2280 H   0  0  0  0  0  0  0  0  0  0  0  0
   -0.5188    1.8088   -1.1453 H   0  0  0  0  0  0  0  0  0  0  0  0
   -2.4857    1.7108    0.3639 H   0  0  0  0  0  0  0  0  0  0  0  0
   -2.9006    0.6415   -0.9811 H   0  0  0  0  0  0  0  0  0  0  0  0
   -2.0107   -2.2103    1.1575 H   0  0  0  0  0  0  0  0  0  0  0  0
   -2.2949   -1.7978   -0.5565 H   0  0  0  0  0  0  0  0  0  0  0  0
   -0.0669   -3.5646    0.1302 H   0  0  0  0  0  0  0  0  0  0  0  0
    1.3681   -2.6475   -0.5530 H   0  0  0  0  0  0  0  0  0  0  0  0
  1  2  1  0
  2  3  2  0
  3  4  1  0
  4  5  1  0
  5  6  1  0
  6  7  1  0
  7  8  1  0
  8  9  1  0
  7  2  1  0
  9  7  1  0
  1 10  1  0
  1 11  1  0
  1 12  1  0
  3 13  1  0
  4 14  1  0
  4 15  1  0
  6 16  1  0
  6 17  1  0
  8 18  1  0
  8 19  1  0
M  END
$$$$
