gdb 426	2.8611551	1.4678239	1.1444427	1.1839	77.6	-0.24282	0.00611	0.24893	1103.5483	0.1578	-422.531442	-422.523446	-422.522502	-422.563978	30.831
 OpenBabel02181911403D

 19 20  0  0  1  0  0  0  0  0999 V2000
    0.5940    0.8286   -0.8656 C   0  0  0  0  0  0  0  0  0  0  0  0
    0.0302   -0.0951    0.0599 O   0  0  0  0  0  0  0  0  0  0  0  0
    1.4415    0.1905    0.1606 C   0  0  1  0  0  0  0  0  0  0  0  0
    2.3452   -0.9737   -0.2046 C   0  0  0  0  0  0  0  0  0  0  0  0
    3.7030   -0.5389   -0.7794 C   0  0  0  0  0  0  0  0  0  0  0  0
    4.2347    0.6394   -0.2054 O   0  0  0  0  0  0  0  0  0  0  0  0
    4.3153    0.6591    1.2071 C   0  0  0  0  0  0  0  0  0  0  0  0
    3.0345    1.0926    1.8813 C   0  0  0  0  0  0  0  0  0  0  0  0
    1.8033    0.9398    1.3953 C   0  0  0  0  0  0  0  0  0  0  0  0
    0.6544    0.4854   -1.8986 H   0  0  0  0  0  0  0  0  0  0  0  0
    0.2887    1.8667   -0.7414 H   0  0  0  0  0  0  0  0  0  0  0  0
    2.4915   -1.5810    0.6960 H   0  0  0  0  0  0  0  0  0  0  0  0
    1.8336   -1.6099   -0.9338 H   0  0  0  0  0  0  0  0  0  0  0  0
    4.4194   -1.3720   -0.6871 H   0  0  0  0  0  0  0  0  0  0  0  0
    3.6038   -0.3055   -1.8443 H   0  0  0  0  0  0  0  0  0  0  0  0
    4.6604   -0.3145    1.5973 H   0  0  0  0  0  0  0  0  0  0  0  0
    5.1013    1.3834    1.4511 H   0  0  0  0  0  0  0  0  0  0  0  0
    3.1627    1.6164    2.8259 H   0  0  0  0  0  0  0  0  0  0  0  0
    0.9514    1.3476    1.9329 H   0  0  0  0  0  0  0  0  0  0  0  0
  1 11  1  0  0  0  0
  1  2  1  0  0  0  0
  1  3  1  0  0  0  0
  3  2  1  1  0  0  0
  3  9  1  0  0  0  0
  4  3  1  0  0  0  0
  4 12  1  0  0  0  0
  5 14  1  0  0  0  0
  5  6  1  0  0  0  0
  5  4  1  0  0  0  0
  6  7  1  0  0  0  0
  7 17  1  0  0  0  0
  7 16  1  0  0  0  0
  7  8  1  0  0  0  0
  8 18  1  0  0  0  0
  9  8  2  0  0  0  0
  9 19  1  0  0  0  0
 10  1  1  0  0  0  0
 13  4  1  0  0  0  0
 15  5  1  0  0  0  0
M TOR 0 0 1 2 3
M TOR 1 0 1 2 8
M TOR 2 0 2 3 4
M TOR 3 0 2 3 11
M TOR 4 0 2 3 12
M TOR 5 0 2 8 7
M TOR 6 0 2 8 18
M TOR 7 1 2 0 9
M TOR 8 1 2 0 10
M TOR 9 1 2 3 4
M TOR 10 1 2 3 11
M TOR 11 1 2 3 12
M TOR 12 1 2 8 7
M TOR 13 1 2 8 18
M TOR 14 2 3 4 5
M TOR 15 2 3 4 13
M TOR 16 2 3 4 14
M TOR 17 2 8 7 6
M TOR 18 2 8 7 17
M TOR 19 3 2 0 9
M TOR 20 3 2 0 10
M TOR 21 3 2 8 7
M TOR 22 3 2 8 18
M TOR 23 3 4 5 6
M TOR 24 4 3 2 8
M TOR 25 4 5 6 7
M TOR 26 4 5 6 15
M TOR 27 4 5 6 16
M TOR 28 5 4 3 11
M TOR 29 5 4 3 12
M TOR 30 5 6 7 8
M TOR 31 5 6 7 17
M TOR 32 6 5 4 13
M TOR 33 6 5 4 14
M TOR 34 6 7 8 18
M TOR 35 8 2 0 9
M TOR 36 8 2 0 10
M TOR 37 8 2 3 11
M TOR 38 8 2 3 12
M TOR 39 8 7 6 15
M TOR 40 8 7 6 16
M  END
$$$$
