gdb 205	2.4136539	2.2969816	1.8351273	1.7055	72.42	-0.24504	0.0757	0.32074	859.6894	0.161454	-422.567727	-422.561418	-422.560474	-422.59801	26.713
 OpenBabel02181911403D

 19 21  0  0  1  0  0  0  0  0999 V2000
    1.4911    0.1805   -0.1448 C   0  0  0  0  0  0  0  0  0  0  0  0
    1.2543    1.7063    0.0309 C   0  0  2  0  0  0  0  0  0  0  0  0
    1.4271    2.2289    1.4672 C   0  0  0  0  0  0  0  0  0  0  0  0
    0.1120    1.7930    2.1384 C   0  0  1  0  0  0  0  0  0  0  0  0
   -0.8714    2.0052    1.1489 O   0  0  0  0  0  0  0  0  0  0  0  0
   -0.2889    1.4530   -0.0278 C   0  0  2  0  0  0  0  0  0  0  0  0
   -0.0187   -0.0787    0.1228 C   0  0  2  0  0  0  0  0  0  0  0  0
   -0.3633   -0.4801    1.5567 C   0  0  0  0  0  0  0  0  0  0  0  0
    0.1819    0.4215    2.5191 O   0  0  0  0  0  0  0  0  0  0  0  0
    1.7807   -0.0810   -1.1655 H   0  0  0  0  0  0  0  0  0  0  0  0
    2.1966   -0.2847    0.5494 H   0  0  0  0  0  0  0  0  0  0  0  0
    1.7020    2.3608   -0.7173 H   0  0  0  0  0  0  0  0  0  0  0  0
    2.2980    1.8213    1.9848 H   0  0  0  0  0  0  0  0  0  0  0  0
    1.4897    3.3214    1.4742 H   0  0  0  0  0  0  0  0  0  0  0  0
   -0.1620    2.3654    3.0280 H   0  0  0  0  0  0  0  0  0  0  0  0
   -0.8596    1.7869   -0.8936 H   0  0  0  0  0  0  0  0  0  0  0  0
   -0.5270   -0.7436   -0.5808 H   0  0  0  0  0  0  0  0  0  0  0  0
   -1.4561   -0.5277    1.6632 H   0  0  0  0  0  0  0  0  0  0  0  0
    0.0460   -1.4647    1.8044 H   0  0  0  0  0  0  0  0  0  0  0  0
  1  2  1  0  0  0  0
  1  7  1  0  0  0  0
  1 11  1  0  0  0  0
  2 12  1  6  0  0  0
  2  3  1  0  0  0  0
  3 14  1  0  0  0  0
  3 13  1  0  0  0  0
  3  4  1  0  0  0  0
  4  9  1  0  0  0  0
  4 15  1  1  0  0  0
  5  4  1  0  0  0  0
  6 16  1  6  0  0  0
  6  2  1  0  0  0  0
  6  7  1  0  0  0  0
  6  5  1  0  0  0  0
  7 17  1  6  0  0  0
  7  8  1  0  0  0  0
  8 18  1  0  0  0  0
  8 19  1  0  0  0  0
  8  9  1  0  0  0  0
 10  1  1  0  0  0  0
M TOR 0 0 1 2 3
M TOR 1 0 1 2 12
M TOR 2 0 1 2 13
M TOR 3 0 1 5 4
M TOR 4 0 1 5 6
M TOR 5 0 1 5 15
M TOR 6 0 6 5 4
M TOR 7 0 6 5 15
M TOR 8 0 6 7 8
M TOR 9 0 6 7 17
M TOR 10 0 6 7 18
M TOR 11 1 0 6 7
M TOR 12 1 0 6 16
M TOR 13 1 2 3 4
M TOR 14 1 2 3 8
M TOR 15 1 2 3 14
M TOR 16 1 5 4 3
M TOR 17 1 5 6 7
M TOR 18 1 5 6 16
M TOR 19 2 1 0 6
M TOR 20 2 1 0 9
M TOR 21 2 1 0 10
M TOR 22 2 1 5 4
M TOR 23 2 1 5 6
M TOR 24 2 1 5 15
M TOR 25 2 3 4 5
M TOR 26 2 3 8 7
M TOR 27 3 2 1 5
M TOR 28 3 2 1 11
M TOR 29 3 4 5 6
M TOR 30 3 4 5 15
M TOR 31 3 8 7 6
M TOR 32 3 8 7 17
M TOR 33 3 8 7 18
M TOR 34 4 3 2 12
M TOR 35 4 3 2 13
M TOR 36 4 3 8 7
M TOR 37 4 5 1 11
M TOR 38 4 5 6 7
M TOR 39 4 5 6 16
M TOR 40 5 1 0 9
M TOR 41 5 1 0 10
M TOR 42 5 1 2 12
M TOR 43 5 1 2 13
M TOR 44 5 4 3 8
M TOR 45 5 4 3 14
M TOR 46 5 6 0 9
M TOR 47 5 6 0 10
M TOR 48 5 6 7 8
M TOR 49 5 6 7 17
M TOR 50 5 6 7 18
M TOR 51 6 0 1 11
M TOR 52 6 5 1 11
M TOR 53 7 6 0 9
M TOR 54 7 6 0 10
M TOR 55 7 6 5 15
M TOR 56 7 8 3 14
M TOR 57 8 3 2 12
M TOR 58 8 3 2 13
M TOR 59 8 7 6 16
M  END
$$$$
