
     RDKit          3D

 19 20  0  0  0  0  0  0  0  0999 V2000
   -1.6395   -0.1462   -2.6225 C   0  0  0  0  0  0  0  0  0  0  0  0
   -2.4910   -0.0952   -1.3786 C   0  0  0  0  0  0  0  0  0  0  0  0
   -3.8431   -0.1301   -1.7682 O   0  0  0  0  0  0  0  0  0  0  0  0
   -2.1316   -0.7996   -0.0902 C   0  0  0  0  0  0  0  0  0  0  0  0
   -0.7083   -1.2561    0.1547 C   0  0  0  0  0  0  0  0  0  0  0  0
    0.1669    0.0063    0.0557 C   0  0  0  0  0  0  0  0  0  0  0  0
    1.3681    0.0178    0.0023 O   0  0  0  0  0  0  0  0  0  0  0  0
   -0.7377    1.2516    0.0319 C   0  0  0  0  0  0  0  0  0  0  0  0
   -2.1496    0.7401   -0.1656 C   0  0  0  0  0  0  0  0  0  0  0  0
   -1.8530   -1.0625   -3.1815 H   0  0  0  0  0  0  0  0  0  0  0  0
   -1.8745    0.7053   -3.2686 H   0  0  0  0  0  0  0  0  0  0  0  0
   -0.5700   -0.1225   -2.4052 H   0  0  0  0  0  0  0  0  0  0  0  0
   -4.3963   -0.1006   -0.9813 H   0  0  0  0  0  0  0  0  0  0  0  0
   -2.9337   -1.3290    0.4147 H   0  0  0  0  0  0  0  0  0  0  0  0
   -0.5949   -1.6665    1.1662 H   0  0  0  0  0  0  0  0  0  0  0  0
   -0.3347   -2.0177   -0.5367 H   0  0  0  0  0  0  0  0  0  0  0  0
   -0.6351    1.7614    0.9983 H   0  0  0  0  0  0  0  0  0  0  0  0
   -0.3812    1.9505   -0.7310 H   0  0  0  0  0  0  0  0  0  0  0  0
   -2.9646    1.2975    0.2858 H   0  0  0  0  0  0  0  0  0  0  0  0
  1  2  1  0
  2  3  1  0
  2  4  1  0
  4  5  1  0
  5  6  1  0
  6  7  2  0
  6  8  1  0
  8  9  1  0
  9  2  1  0
  9  4  1  0
  1 10  1  0
  1 11  1  0
  1 12  1  0
  3 13  1  0
  4 14  1  0
  5 15  1  0
  5 16  1  0
  8 17  1  0
  8 18  1  0
  9 19  1  0
M  END
$$$$
