gdb 39	4.020341	0.8518241	0.7756609	1.3125	79.85	-0.21715	0.01762	0.23477	1528.6291	0.15679	-422.586148	-422.576764	-422.575819	-422.621244	33.546
 OpenBabel02181911403D

 19 19  0  0  0  0  0  0  0  0999 V2000
    1.6511   -0.9106   -0.5540 C   0  0  0  0  0  0  0  0  0  0  0  0
    0.8717    0.1867    0.1914 C   0  0  0  0  0  0  0  0  0  0  0  0
    1.4676    1.5440    0.0408 C   0  0  0  0  0  0  0  0  0  0  0  0
    1.0342    2.7067   -0.5142 C   0  0  0  0  0  0  0  0  0  0  0  0
    2.0890    3.6723   -0.3456 C   0  0  0  0  0  0  0  0  0  0  0  0
    2.0932    5.0970   -0.8029 C   0  0  0  0  0  0  0  0  0  0  0  0
    1.8352    5.2298   -2.1975 O   0  0  0  0  0  0  0  0  0  0  0  0
    3.0872    3.0067    0.2936 C   0  0  0  0  0  0  0  0  0  0  0  0
    2.7294    1.7182    0.5424 O   0  0  0  0  0  0  0  0  0  0  0  0
    1.1882   -1.8892   -0.3961 H   0  0  0  0  0  0  0  0  0  0  0  0
    1.6737   -0.7116   -1.6298 H   0  0  0  0  0  0  0  0  0  0  0  0
    2.6839   -0.9599   -0.1987 H   0  0  0  0  0  0  0  0  0  0  0  0
   -0.1594    0.2321   -0.1732 H   0  0  0  0  0  0  0  0  0  0  0  0
    0.8160   -0.0714    1.2571 H   0  0  0  0  0  0  0  0  0  0  0  0
    0.0809    2.8718   -0.9921 H   0  0  0  0  0  0  0  0  0  0  0  0
    1.2940    5.6646   -0.3130 H   0  0  0  0  0  0  0  0  0  0  0  0
    3.0456    5.5730   -0.5214 H   0  0  0  0  0  0  0  0  0  0  0  0
    2.4496    4.6467   -2.6557 H   0  0  0  0  0  0  0  0  0  0  0  0
    4.0662    3.2990    0.6380 H   0  0  0  0  0  0  0  0  0  0  0  0
  1 10  1  0  0  0  0
  1 12  1  0  0  0  0
  1  2  1  0  0  0  0
  2 14  1  0  0  0  0
  3  2  1  0  0  0  0
  3  9  1  0  0  0  0
  4  5  1  0  0  0  0
  4  3  2  0  0  0  0
  5  8  2  0  0  0  0
  6 17  1  0  0  0  0
  6  5  1  0  0  0  0
  6 16  1  0  0  0  0
  7  6  1  0  0  0  0
  8  9  1  0  0  0  0
  8 19  1  0  0  0  0
 11  1  1  0  0  0  0
 13  2  1  0  0  0  0
 15  4  1  0  0  0  0
 18  7  1  0  0  0  0
M TOR 0 0 1 2 3
M TOR 1 0 1 2 8
M TOR 2 1 2 3 4
M TOR 3 1 2 3 14
M TOR 4 1 2 8 7
M TOR 5 2 1 0 9
M TOR 6 2 1 0 10
M TOR 7 2 1 0 11
M TOR 8 2 3 4 5
M TOR 9 2 3 4 7
M TOR 10 2 8 7 4
M TOR 11 2 8 7 18
M TOR 12 3 2 1 12
M TOR 13 3 2 1 13
M TOR 14 3 2 8 7
M TOR 15 3 4 5 6
M TOR 16 3 4 5 15
M TOR 17 3 4 5 16
M TOR 18 3 4 7 8
M TOR 19 3 4 7 18
M TOR 20 4 3 2 8
M TOR 21 4 5 6 17
M TOR 22 5 4 3 14
M TOR 23 5 4 7 8
M TOR 24 5 4 7 18
M TOR 25 6 5 4 7
M TOR 26 7 4 3 14
M TOR 27 7 4 5 15
M TOR 28 7 4 5 16
M TOR 29 8 2 1 12
M TOR 30 8 2 1 13
M TOR 31 8 2 3 14
M  END
$$$$
