gdb 4917	2.5083299	1.4579666	1.1638568	2.5896	75.33	-0.24035	-0.03252	0.20783000000000001	1130.5248	0.154604	-422.524562	-422.51553	-422.514586	-422.558553	33.207
 OpenBabel02181911413D

 19 20  0  0  1  0  0  0  0  0999 V2000
   -0.1068    0.2799    0.0308 C   0  0  0  0  0  0  0  0  0  0  0  0
    1.3912   -0.0359    0.1192 C   0  0  0  0  0  0  0  0  0  0  0  0
    1.9025   -0.8146   -1.0803 C   0  0  2  0  0  0  0  0  0  0  0  0
    1.1525   -2.0390   -1.3812 O   0  0  0  0  0  0  0  0  0  0  0  0
    2.3634   -2.7987   -1.4258 C   0  0  2  0  0  0  0  0  0  0  0  0
    3.0195   -2.8228   -0.0878 C   0  0  0  0  0  0  0  0  0  0  0  0
    3.2117   -1.6226   -0.9952 C   0  0  2  0  0  0  0  0  0  0  0  0
    1.9423    0.0170   -2.3611 C   0  0  0  0  0  0  0  0  0  0  0  0
    2.0849    1.2110   -2.3936 O   0  0  0  0  0  0  0  0  0  0  0  0
   -0.4415    0.8062    0.9290 H   0  0  0  0  0  0  0  0  0  0  0  0
   -0.3274    0.9173   -0.8304 H   0  0  0  0  0  0  0  0  0  0  0  0
   -0.6896   -0.6402   -0.0654 H   0  0  0  0  0  0  0  0  0  0  0  0
    1.9706    0.8922    0.1713 H   0  0  0  0  0  0  0  0  0  0  0  0
    1.6015   -0.6058    1.0294 H   0  0  0  0  0  0  0  0  0  0  0  0
    2.4678   -3.5407   -2.2079 H   0  0  0  0  0  0  0  0  0  0  0  0
    2.4156   -2.7634    0.8123 H   0  0  0  0  0  0  0  0  0  0  0  0
    3.9003   -3.4533   -0.0124 H   0  0  0  0  0  0  0  0  0  0  0  0
    4.1817   -1.2786   -1.3268 H   0  0  0  0  0  0  0  0  0  0  0  0
    1.8448   -0.5972   -3.2832 H   0  0  0  0  0  0  0  0  0  0  0  0
  1  2  1  0  0  0  0
  1 10  1  0  0  0  0
  2 13  1  0  0  0  0
  2 14  1  0  0  0  0
  3  8  1  6  0  0  0
  3  7  1  0  0  0  0
  3  2  1  0  0  0  0
  4  3  1  0  0  0  0
  5 15  1  6  0  0  0
  5  4  1  0  0  0  0
  5  7  1  0  0  0  0
  5  6  1  0  0  0  0
  6 17  1  0  0  0  0
  6 16  1  0  0  0  0
  7 18  1  6  0  0  0
  7  6  1  0  0  0  0
  9  8  2  0  0  0  0
 11  1  1  0  0  0  0
 12  1  1  0  0  0  0
 19  8  1  0  0  0  0
M TOR 0 0 1 2 3
M TOR 1 0 1 2 6
M TOR 2 0 1 2 7
M TOR 3 1 2 3 4
M TOR 4 1 2 6 4
M TOR 5 1 2 6 5
M TOR 6 1 2 6 17
M TOR 7 1 2 7 8
M TOR 8 1 2 7 18
M TOR 9 2 1 0 9
M TOR 10 2 1 0 10
M TOR 11 2 1 0 11
M TOR 12 2 3 4 5
M TOR 13 2 3 4 6
M TOR 14 2 3 4 14
M TOR 15 2 6 4 5
M TOR 16 2 6 4 14
M TOR 17 2 6 5 15
M TOR 18 2 6 5 16
M TOR 19 3 2 1 12
M TOR 20 3 2 1 13
M TOR 21 3 2 6 5
M TOR 22 3 2 6 17
M TOR 23 3 2 7 8
M TOR 24 3 2 7 18
M TOR 25 3 4 5 6
M TOR 26 3 4 5 15
M TOR 27 3 4 5 16
M TOR 28 3 4 6 17
M TOR 29 4 3 2 7
M TOR 30 4 5 6 17
M TOR 31 4 6 2 7
M TOR 32 4 6 5 15
M TOR 33 4 6 5 16
M TOR 34 5 6 2 7
M TOR 35 5 6 4 14
M TOR 36 6 2 1 12
M TOR 37 6 2 1 13
M TOR 38 6 2 7 8
M TOR 39 6 2 7 18
M TOR 40 7 2 1 12
M TOR 41 7 2 1 13
M TOR 42 7 2 6 17
M  END
$$$$
