gdb 5031	2.429378	1.6673461	1.2433879	1.2343	75.47	-0.24539	-0.00138	0.24401	1074.0313	0.156516	-422.526852	-422.51859	-422.517646	-422.55948	32.364
 OpenBabel02181911413D

 19 20  0  0  1  0  0  0  0  0999 V2000
    1.2313   -0.3624    1.1520 C   0  0  0  0  0  0  0  0  0  0  0  0
    0.7283    0.0023   -0.2502 C   0  0  0  0  0  0  0  0  0  0  0  0
    1.4440   -0.7431   -1.3427 C   0  0  1  0  0  0  0  0  0  0  0  0
    2.9238   -0.6144   -1.3331 O   0  0  0  0  0  0  0  0  0  0  0  0
    2.8144   -1.1318   -2.7033 C   0  0  1  0  0  0  0  0  0  0  0  0
    2.1921   -2.5049   -2.4972 C   0  0  0  0  0  0  0  0  0  0  0  0
    1.2617   -2.2415   -1.5725 C   0  0  0  0  0  0  0  0  0  0  0  0
    1.5290   -0.2350   -2.8469 C   0  0  2  0  0  0  0  0  0  0  0  0
    1.7469    1.1265   -3.0042 O   0  0  0  0  0  0  0  0  0  0  0  0
    1.0690   -1.4227    1.3704 H   0  0  0  0  0  0  0  0  0  0  0  0
    2.3035   -0.1674    1.2377 H   0  0  0  0  0  0  0  0  0  0  0  0
    0.7116    0.2231    1.9158 H   0  0  0  0  0  0  0  0  0  0  0  0
   -0.3447   -0.2095   -0.3399 H   0  0  0  0  0  0  0  0  0  0  0  0
    0.8469    1.0774   -0.4276 H   0  0  0  0  0  0  0  0  0  0  0  0
    3.7093   -0.9993   -3.3097 H   0  0  0  0  0  0  0  0  0  0  0  0
    2.4277   -3.4176   -3.0242 H   0  0  0  0  0  0  0  0  0  0  0  0
    0.5146   -2.8787   -1.1212 H   0  0  0  0  0  0  0  0  0  0  0  0
    0.7496   -0.5461   -3.5451 H   0  0  0  0  0  0  0  0  0  0  0  0
    2.4570    1.3504   -2.3857 H   0  0  0  0  0  0  0  0  0  0  0  0
  1 11  1  0  0  0  0
  1 10  1  0  0  0  0
  1 12  1  0  0  0  0
  2  1  1  0  0  0  0
  3  4  1  0  0  0  0
  3  2  1  1  0  0  0
  5 15  1  6  0  0  0
  5  6  1  0  0  0  0
  5  4  1  0  0  0  0
  6  7  2  0  0  0  0
  7  3  1  0  0  0  0
  7 17  1  0  0  0  0
  8 18  1  6  0  0  0
  8  5  1  0  0  0  0
  8  3  1  0  0  0  0
  9  8  1  0  0  0  0
  9 19  1  0  0  0  0
 13  2  1  0  0  0  0
 14  2  1  0  0  0  0
 16  6  1  0  0  0  0
M TOR 0 0 1 2 3
M TOR 1 0 1 2 6
M TOR 2 0 1 2 7
M TOR 3 1 2 3 4
M TOR 4 1 2 6 5
M TOR 5 1 2 6 16
M TOR 6 1 2 7 4
M TOR 7 1 2 7 8
M TOR 8 1 2 7 17
M TOR 9 2 1 0 9
M TOR 10 2 1 0 10
M TOR 11 2 1 0 11
M TOR 12 2 3 4 5
M TOR 13 2 3 4 7
M TOR 14 2 3 4 14
M TOR 15 2 6 5 4
M TOR 16 2 6 5 15
M TOR 17 2 7 4 5
M TOR 18 2 7 4 14
M TOR 19 2 7 8 18
M TOR 20 3 2 1 12
M TOR 21 3 2 1 13
M TOR 22 3 2 6 5
M TOR 23 3 2 6 16
M TOR 24 3 2 7 8
M TOR 25 3 2 7 17
M TOR 26 3 4 5 6
M TOR 27 3 4 5 15
M TOR 28 3 4 7 8
M TOR 29 3 4 7 17
M TOR 30 4 3 2 6
M TOR 31 4 5 6 16
M TOR 32 4 7 2 6
M TOR 33 4 7 8 18
M TOR 34 5 4 7 8
M TOR 35 5 4 7 17
M TOR 36 5 6 2 7
M TOR 37 6 2 1 12
M TOR 38 6 2 1 13
M TOR 39 6 2 7 8
M TOR 40 6 2 7 17
M TOR 41 6 5 4 7
M TOR 42 6 5 4 14
M TOR 43 7 2 1 12
M TOR 44 7 2 1 13
M TOR 45 7 2 6 16
M TOR 46 7 4 5 15
M TOR 47 8 7 4 14
M  END
$$$$
