gdb 1326	2.4098363	1.2224322	0.9088328	0.8848	78.35	-0.25077	-0.04866	0.20210999999999998	1323.4	0.15415	-422.57297	-422.563031	-422.562087	-422.608931	34.554
 OpenBabel02181911403D

 19 19  0  0  1  0  0  0  0  0999 V2000
    0.9601    2.0553    1.0237 C   0  0  0  0  0  0  0  0  0  0  0  0
    0.6781    0.6175    0.5926 C   0  0  1  0  0  0  0  0  0  0  0  0
    1.3959   -0.3920    1.4824 C   0  0  0  0  0  0  0  0  0  0  0  0
    1.7430   -1.4902    1.1315 O   0  0  0  0  0  0  0  0  0  0  0  0
   -0.8368    0.2985    0.6088 C   0  0  0  0  0  0  0  0  0  0  0  0
   -1.6320    1.0900    1.0666 O   0  0  0  0  0  0  0  0  0  0  0  0
   -1.2397   -1.0053    0.0221 C   0  0  0  0  0  0  0  0  0  0  0  0
   -2.5412   -1.0319   -0.7740 C   0  0  0  0  0  0  0  0  0  0  0  0
   -2.4992   -1.6610    0.5733 C   0  0  0  0  0  0  0  0  0  0  0  0
    0.6091    2.2289    2.0444 H   0  0  0  0  0  0  0  0  0  0  0  0
    2.0314    2.2730    0.9793 H   0  0  0  0  0  0  0  0  0  0  0  0
    0.4334    2.7602    0.3774 H   0  0  0  0  0  0  0  0  0  0  0  0
    1.0245    0.4180   -0.4288 H   0  0  0  0  0  0  0  0  0  0  0  0
    1.5689   -0.0376    2.5236 H   0  0  0  0  0  0  0  0  0  0  0  0
   -0.4350   -1.6537   -0.3001 H   0  0  0  0  0  0  0  0  0  0  0  0
   -3.0539   -0.0814   -0.8670 H   0  0  0  0  0  0  0  0  0  0  0  0
   -2.5628   -1.6653   -1.6531 H   0  0  0  0  0  0  0  0  0  0  0  0
   -2.9838   -1.1336    1.3867 H   0  0  0  0  0  0  0  0  0  0  0  0
   -2.4903   -2.7418    0.6507 H   0  0  0  0  0  0  0  0  0  0  0  0
  1 10  1  0  0  0  0
  2 13  1  6  0  0  0
  2  5  1  0  0  0  0
  2  1  1  0  0  0  0
  2  3  1  0  0  0  0
  3 14  1  0  0  0  0
  4  3  2  0  0  0  0
  5  6  2  0  0  0  0
  7  9  1  0  0  0  0
  7  5  1  0  0  0  0
  8  7  1  0  0  0  0
  8  9  1  0  0  0  0
  9 19  1  0  0  0  0
  9 18  1  0  0  0  0
 11  1  1  0  0  0  0
 12  1  1  0  0  0  0
 15  7  1  0  0  0  0
 16  8  1  0  0  0  0
 17  8  1  0  0  0  0
M TOR 0 0 1 2 3
M TOR 1 0 1 2 13
M TOR 2 0 1 4 5
M TOR 3 0 1 4 6
M TOR 4 1 4 6 7
M TOR 5 1 4 6 8
M TOR 6 1 4 6 14
M TOR 7 2 1 0 9
M TOR 8 2 1 0 10
M TOR 9 2 1 0 11
M TOR 10 2 1 4 5
M TOR 11 2 1 4 6
M TOR 12 3 2 1 4
M TOR 13 3 2 1 12
M TOR 14 4 1 0 9
M TOR 15 4 1 0 10
M TOR 16 4 1 0 11
M TOR 17 4 1 2 13
M TOR 18 4 6 7 8
M TOR 19 4 6 7 15
M TOR 20 4 6 7 16
M TOR 21 4 6 8 17
M TOR 22 4 6 8 18
M TOR 23 5 4 1 12
M TOR 24 5 4 6 7
M TOR 25 5 4 6 8
M TOR 26 5 4 6 14
M TOR 27 6 4 1 12
M TOR 28 6 7 8 17
M TOR 29 6 7 8 18
M TOR 30 6 8 7 15
M TOR 31 6 8 7 16
M TOR 32 7 8 6 14
M  END
$$$$
