gdb 2147	2.2835446	2.0751676	1.6153249	0.5261	74.1	-0.23654	0.0792	0.31574	942.1302	0.156347	-422.529469	-422.521597	-422.520652	-422.561206	31.294
 OpenBabel02181911403D

 19 21  0  0  1  0  0  0  0  0999 V2000
    2.6054    2.2524    0.7129 C   0  0  0  0  0  0  0  0  0  0  0  0
    2.4128    0.8360    1.1654 C   0  0  1  0  0  0  0  0  0  0  0  0
    2.7052    0.3962    2.6163 C   0  0  0  0  0  0  0  0  0  0  0  0
    1.9977   -0.9534    2.4247 C   0  0  1  0  0  0  0  0  0  0  0  0
    0.6212   -0.5277    2.1938 O   0  0  0  0  0  0  0  0  0  0  0  0
    1.0874   -0.0635    0.9202 C   0  0  1  0  0  0  0  0  0  0  0  0
    0.0547    0.2969   -0.0999 C   0  0  0  0  0  0  0  0  0  0  0  0
    2.2116   -1.1023    0.8503 C   0  0  1  0  0  0  0  0  0  0  0  0
    3.1924   -0.1621    0.4224 O   0  0  0  0  0  0  0  0  0  0  0  0
    1.9674    2.9244    1.2955 H   0  0  0  0  0  0  0  0  0  0  0  0
    3.6457    2.5645    0.8531 H   0  0  0  0  0  0  0  0  0  0  0  0
    2.3566    2.3668   -0.3460 H   0  0  0  0  0  0  0  0  0  0  0  0
    3.7813    0.3397    2.7934 H   0  0  0  0  0  0  0  0  0  0  0  0
    2.2098    0.9871    3.3892 H   0  0  0  0  0  0  0  0  0  0  0  0
    2.0973   -1.7559    3.1524 H   0  0  0  0  0  0  0  0  0  0  0  0
   -0.6430   -0.5315   -0.2527 H   0  0  0  0  0  0  0  0  0  0  0  0
   -0.5190    1.1737    0.2185 H   0  0  0  0  0  0  0  0  0  0  0  0
    0.5364    0.5284   -1.0545 H   0  0  0  0  0  0  0  0  0  0  0  0
    2.2167   -2.0715    0.3544 H   0  0  0  0  0  0  0  0  0  0  0  0
  1 11  1  0  0  0  0
  1 10  1  0  0  0  0
  2  1  1  6  0  0  0
  2  3  1  0  0  0  0
  3 13  1  0  0  0  0
  3 14  1  0  0  0  0
  4  3  1  0  0  0  0
  4 15  1  1  0  0  0
  5  4  1  0  0  0  0
  6  7  1  6  0  0  0
  6  2  1  0  0  0  0
  6  5  1  0  0  0  0
  7 17  1  0  0  0  0
  8 19  1  6  0  0  0
  8  6  1  0  0  0  0
  8  4  1  0  0  0  0
  9  8  1  0  0  0  0
  9  2  1  0  0  0  0
 12  1  1  0  0  0  0
 16  7  1  0  0  0  0
 18  7  1  0  0  0  0
M TOR 0 0 1 2 3
M TOR 1 0 1 2 12
M TOR 2 0 1 2 13
M TOR 3 0 1 5 4
M TOR 4 0 1 5 6
M TOR 5 0 1 5 7
M TOR 6 0 1 8 7
M TOR 7 1 2 3 4
M TOR 8 1 2 3 7
M TOR 9 1 2 3 14
M TOR 10 1 5 4 3
M TOR 11 1 5 6 15
M TOR 12 1 5 6 16
M TOR 13 1 5 6 17
M TOR 14 1 5 7 3
M TOR 15 1 5 7 8
M TOR 16 1 5 7 18
M TOR 17 1 8 7 3
M TOR 18 1 8 7 18
M TOR 19 2 1 0 9
M TOR 20 2 1 0 10
M TOR 21 2 1 0 11
M TOR 22 2 1 5 4
M TOR 23 2 1 5 6
M TOR 24 2 1 5 7
M TOR 25 2 1 8 7
M TOR 26 2 3 4 5
M TOR 27 2 3 7 5
M TOR 28 2 3 7 8
M TOR 29 2 3 7 18
M TOR 30 3 2 1 5
M TOR 31 3 2 1 8
M TOR 32 3 4 5 6
M TOR 33 3 4 5 7
M TOR 34 3 7 5 6
M TOR 35 4 3 2 12
M TOR 36 4 3 2 13
M TOR 37 4 3 7 8
M TOR 38 4 3 7 18
M TOR 39 4 5 1 8
M TOR 40 4 5 6 15
M TOR 41 4 5 6 16
M TOR 42 4 5 6 17
M TOR 43 4 5 7 8
M TOR 44 4 5 7 18
M TOR 45 5 1 0 9
M TOR 46 5 1 0 10
M TOR 47 5 1 0 11
M TOR 48 5 1 2 12
M TOR 49 5 1 2 13
M TOR 50 5 4 3 14
M TOR 51 5 7 3 14
M TOR 52 6 5 1 8
M TOR 53 6 5 7 8
M TOR 54 6 5 7 18
M TOR 55 7 3 2 12
M TOR 56 7 3 2 13
M TOR 57 7 5 6 15
M TOR 58 7 5 6 16
M TOR 59 7 5 6 17
M TOR 60 8 1 0 9
M TOR 61 8 1 0 10
M TOR 62 8 1 0 11
M TOR 63 8 1 2 12
M TOR 64 8 1 2 13
M TOR 65 8 7 3 14
M  END
$$$$
