gdb 5838	3.4795496	0.7454534	0.6568471	2.6453	81.6	-0.24717	0.0424	0.28957	1691.8128	0.155139	-422.508564	-422.498293	-422.497348	-422.546851	34.756
 OpenBabel02181911423D

 19 19  0  0  1  0  0  0  0  0999 V2000
    1.5416    0.0659   -0.0119 C   0  0  0  0  0  0  0  0  0  0  0  0
    0.0862    0.0560    0.0175 C   0  0  0  0  0  0  0  0  0  0  0  0
   -1.1181    0.0521    0.0443 C   0  0  0  0  0  0  0  0  0  0  0  0
   -2.5646    0.0272    0.0667 C   0  0  1  0  0  0  0  0  0  0  0  0
   -3.3282   -0.0415   -1.2863 C   0  0  0  0  0  0  0  0  0  0  0  0
   -4.0612   -1.2102   -0.8689 O   0  0  0  0  0  0  0  0  0  0  0  0
   -3.2849   -1.3237    0.3502 C   0  0  2  0  0  0  0  0  0  0  0  0
   -4.2086   -1.4076    1.5506 C   0  0  0  0  0  0  0  0  0  0  0  0
   -5.0742   -2.5184    1.4312 O   0  0  0  0  0  0  0  0  0  0  0  0
    1.9485    0.8399    0.6481 H   0  0  0  0  0  0  0  0  0  0  0  0
    1.9519   -0.8966    0.3132 H   0  0  0  0  0  0  0  0  0  0  0  0
    1.9173    0.2607   -1.0225 H   0  0  0  0  0  0  0  0  0  0  0  0
   -2.9552    0.8234    0.7094 H   0  0  0  0  0  0  0  0  0  0  0  0
   -3.9880    0.8026   -1.5134 H   0  0  0  0  0  0  0  0  0  0  0  0
   -2.6840   -0.2482   -2.1482 H   0  0  0  0  0  0  0  0  0  0  0  0
   -2.6220   -2.1962    0.3095 H   0  0  0  0  0  0  0  0  0  0  0  0
   -3.6271   -1.5444    2.4693 H   0  0  0  0  0  0  0  0  0  0  0  0
   -4.7719   -0.4637    1.6413 H   0  0  0  0  0  0  0  0  0  0  0  0
   -5.4948   -2.4357    0.5664 H   0  0  0  0  0  0  0  0  0  0  0  0
  1  2  1  0  0  0  0
  1 11  1  0  0  0  0
  1 10  1  0  0  0  0
  2  3  3  0  0  0  0
  3  4  1  0  0  0  0
  4  7  1  0  0  0  0
  4 13  1  1  0  0  0
  5  6  1  0  0  0  0
  5  4  1  0  0  0  0
  6  7  1  0  0  0  0
  7 16  1  6  0  0  0
  7  8  1  0  0  0  0
  8 18  1  0  0  0  0
  8 17  1  0  0  0  0
  9  8  1  0  0  0  0
 12  1  1  0  0  0  0
 14  5  1  0  0  0  0
 15  5  1  0  0  0  0
 19  9  1  0  0  0  0
M TOR 0 0 1 2 3
M TOR 1 1 2 3 4
M TOR 2 1 2 3 6
M TOR 3 1 2 3 12
M TOR 4 2 1 0 9
M TOR 5 2 1 0 10
M TOR 6 2 1 0 11
M TOR 7 2 3 4 5
M TOR 8 2 3 4 13
M TOR 9 2 3 4 14
M TOR 10 2 3 6 5
M TOR 11 2 3 6 7
M TOR 12 2 3 6 15
M TOR 13 3 4 5 6
M TOR 14 3 6 7 8
M TOR 15 3 6 7 16
M TOR 16 3 6 7 17
M TOR 17 4 3 6 7
M TOR 18 4 3 6 15
M TOR 19 4 5 6 7
M TOR 20 4 5 6 15
M TOR 21 5 4 3 12
M TOR 22 5 6 3 12
M TOR 23 5 6 7 8
M TOR 24 5 6 7 16
M TOR 25 5 6 7 17
M TOR 26 6 3 4 13
M TOR 27 6 3 4 14
M TOR 28 6 5 4 13
M TOR 29 6 5 4 14
M TOR 30 6 7 8 18
M TOR 31 7 6 3 12
M TOR 32 8 7 6 15
M  END
$$$$
