gdb 4202	2.3953706	1.7864782	1.2256719	2.4785	74.43	-0.26015	0.07108	0.33123	1047.0711	0.157682	-422.538135	-422.530202	-422.529258	-422.570326	31.38
 OpenBabel02181911413D

 19 21  0  0  1  0  0  0  0  0999 V2000
    0.1745    0.0018   -0.0164 O   0  0  0  0  0  0  0  0  0  0  0  0
   -1.0853    0.6411    0.0268 C   0  0  2  0  0  0  0  0  0  0  0  0
   -1.0692    2.0539    0.6741 C   0  0  0  0  0  0  0  0  0  0  0  0
   -2.4623    2.2274    1.2409 C   0  0  1  0  0  0  0  0  0  0  0  0
   -3.5056    1.8857    0.3168 O   0  0  0  0  0  0  0  0  0  0  0  0
   -3.1215    0.9157    1.3094 C   0  0  1  0  0  0  0  0  0  0  0  0
   -2.1862   -0.1283    0.7889 C   0  0  0  0  0  0  0  0  0  0  0  0
   -2.6421   -1.4928    0.3598 C   0  0  0  0  0  0  0  0  0  0  0  0
   -1.8606   -1.3342    1.6395 C   0  0  0  0  0  0  0  0  0  0  0  0
    0.5239   -0.0215    0.8813 H   0  0  0  0  0  0  0  0  0  0  0  0
   -1.3858    0.7304   -1.0200 H   0  0  0  0  0  0  0  0  0  0  0  0
   -0.3411    2.0802    1.4967 H   0  0  0  0  0  0  0  0  0  0  0  0
   -0.7878    2.8328   -0.0398 H   0  0  0  0  0  0  0  0  0  0  0  0
   -2.6916    3.0410    1.9246 H   0  0  0  0  0  0  0  0  0  0  0  0
   -3.8866    0.6665    2.0412 H   0  0  0  0  0  0  0  0  0  0  0  0
   -3.6995   -1.7267    0.4230 H   0  0  0  0  0  0  0  0  0  0  0  0
   -2.1285   -1.9433   -0.4835 H   0  0  0  0  0  0  0  0  0  0  0  0
   -2.3788   -1.4516    2.5858 H   0  0  0  0  0  0  0  0  0  0  0  0
   -0.8358   -1.6888    1.6390 H   0  0  0  0  0  0  0  0  0  0  0  0
  1  2  1  0  0  0  0
  1 10  1  0  0  0  0
  2 11  1  6  0  0  0
  2  3  1  0  0  0  0
  2  7  1  0  0  0  0
  3  4  1  0  0  0  0
  3 12  1  0  0  0  0
  4  6  1  0  0  0  0
  4 14  1  1  0  0  0
  5  4  1  0  0  0  0
  5  6  1  0  0  0  0
  6 15  1  1  0  0  0
  7  6  1  0  0  0  0
  7  9  1  0  0  0  0
  8 16  1  0  0  0  0
  8  7  1  0  0  0  0
  8  9  1  0  0  0  0
  9 18  1  0  0  0  0
 13  3  1  0  0  0  0
 17  8  1  0  0  0  0
 19  9  1  0  0  0  0
M TOR 0 0 1 2 3
M TOR 1 0 1 2 11
M TOR 2 0 1 2 12
M TOR 3 0 1 6 5
M TOR 4 0 1 6 7
M TOR 5 0 1 6 8
M TOR 6 1 2 3 4
M TOR 7 1 2 3 5
M TOR 8 1 2 3 13
M TOR 9 1 6 5 3
M TOR 10 1 6 5 4
M TOR 11 1 6 5 14
M TOR 12 1 6 7 8
M TOR 13 1 6 7 15
M TOR 14 1 6 7 16
M TOR 15 1 6 8 17
M TOR 16 1 6 8 18
M TOR 17 2 1 0 9
M TOR 18 2 1 6 5
M TOR 19 2 1 6 7
M TOR 20 2 1 6 8
M TOR 21 2 3 4 5
M TOR 22 2 3 5 6
M TOR 23 2 3 5 14
M TOR 24 3 2 1 6
M TOR 25 3 2 1 10
M TOR 26 3 4 5 6
M TOR 27 3 4 5 14
M TOR 28 3 5 6 7
M TOR 29 3 5 6 8
M TOR 30 4 3 2 11
M TOR 31 4 3 2 12
M TOR 32 4 5 3 13
M TOR 33 4 5 6 7
M TOR 34 4 5 6 8
M TOR 35 5 3 2 11
M TOR 36 5 3 2 12
M TOR 37 5 6 1 10
M TOR 38 5 6 7 8
M TOR 39 5 6 7 15
M TOR 40 5 6 7 16
M TOR 41 5 6 8 17
M TOR 42 5 6 8 18
M TOR 43 6 1 0 9
M TOR 44 6 1 2 11
M TOR 45 6 1 2 12
M TOR 46 6 5 3 13
M TOR 47 6 7 8 17
M TOR 48 6 7 8 18
M TOR 49 6 8 7 15
M TOR 50 6 8 7 16
M TOR 51 7 6 1 10
M TOR 52 7 6 5 14
M TOR 53 8 6 1 10
M TOR 54 8 6 5 14
M  END
$$$$
