gdb 4487	2.928615	1.6503412	1.3442397	1.3826	73.73	-0.23035	0.06278	0.29313	993.6556	0.159049	-422.508959	-422.501694	-422.50075	-422.540368	29.379
 OpenBabel02181911413D

 19 21  0  0  1  0  0  0  0  0999 V2000
   -2.3847   -0.3751   -0.0085 O   0  0  0  0  0  0  0  0  0  0  0  0
   -1.1326   -0.7989   -0.5553 C   0  0  1  0  0  0  0  0  0  0  0  0
   -1.1410   -0.4426   -2.0413 C   0  0  0  0  0  0  0  0  0  0  0  0
   -0.8432    1.0488   -2.2557 C   0  0  0  0  0  0  0  0  0  0  0  0
    0.2557    1.5171   -1.3058 C   0  0  2  0  0  0  0  0  0  0  0  0
    1.2250    0.4796   -0.6581 C   0  0  1  0  0  0  0  0  0  0  0  0
    1.4750    1.4330    0.4402 O   0  0  0  0  0  0  0  0  0  0  0  0
    0.0109    1.4482    0.2242 C   0  0  2  0  0  0  0  0  0  0  0  0
    0.0282   -0.1012    0.1546 C   0  0  1  0  0  0  0  0  0  0  0  0
   -2.3556   -0.5089    0.9446 H   0  0  0  0  0  0  0  0  0  0  0  0
   -1.0313   -1.8898   -0.4454 H   0  0  0  0  0  0  0  0  0  0  0  0
   -0.3646   -1.0411   -2.5329 H   0  0  0  0  0  0  0  0  0  0  0  0
   -2.1004   -0.7317   -2.4793 H   0  0  0  0  0  0  0  0  0  0  0  0
   -0.5453    1.2270   -3.2945 H   0  0  0  0  0  0  0  0  0  0  0  0
   -1.7448    1.6477   -2.0827 H   0  0  0  0  0  0  0  0  0  0  0  0
    0.7581    2.4378   -1.6096 H   0  0  0  0  0  0  0  0  0  0  0  0
    2.0901   -0.0342   -1.0799 H   0  0  0  0  0  0  0  0  0  0  0  0
   -0.5878    2.1022    0.8587 H   0  0  0  0  0  0  0  0  0  0  0  0
    0.3311   -0.5706    1.0948 H   0  0  0  0  0  0  0  0  0  0  0  0
  1 10  1  0  0  0  0
  2 11  1  1  0  0  0
  2  1  1  0  0  0  0
  2  9  1  0  0  0  0
  3  2  1  0  0  0  0
  4 15  1  0  0  0  0
  4  3  1  0  0  0  0
  4  5  1  0  0  0  0
  5 16  1  6  0  0  0
  5  6  1  0  0  0  0
  5  8  1  0  0  0  0
  6 17  1  6  0  0  0
  6  9  1  0  0  0  0
  6  7  1  0  0  0  0
  8  7  1  0  0  0  0
  8 18  1  1  0  0  0
  9  8  1  0  0  0  0
  9 19  1  1  0  0  0
 12  3  1  0  0  0  0
 13  3  1  0  0  0  0
 14  4  1  0  0  0  0
M TOR 0 0 1 2 3
M TOR 1 0 1 2 11
M TOR 2 0 1 2 12
M TOR 3 0 1 8 5
M TOR 4 0 1 8 7
M TOR 5 0 1 8 18
M TOR 6 1 2 3 4
M TOR 7 1 2 3 13
M TOR 8 1 2 3 14
M TOR 9 1 8 5 4
M TOR 10 1 8 5 6
M TOR 11 1 8 5 16
M TOR 12 1 8 7 4
M TOR 13 1 8 7 6
M TOR 14 1 8 7 17
M TOR 15 2 1 0 9
M TOR 16 2 1 8 5
M TOR 17 2 1 8 7
M TOR 18 2 1 8 18
M TOR 19 2 3 4 5
M TOR 20 2 3 4 7
M TOR 21 2 3 4 15
M TOR 22 3 2 1 8
M TOR 23 3 2 1 10
M TOR 24 3 4 5 6
M TOR 25 3 4 5 8
M TOR 26 3 4 5 16
M TOR 27 3 4 7 6
M TOR 28 3 4 7 8
M TOR 29 3 4 7 17
M TOR 30 4 3 2 11
M TOR 31 4 3 2 12
M TOR 32 4 5 6 7
M TOR 33 4 5 8 7
M TOR 34 4 5 8 18
M TOR 35 4 7 8 18
M TOR 36 5 4 3 13
M TOR 37 5 4 3 14
M TOR 38 5 4 7 17
M TOR 39 5 6 7 8
M TOR 40 5 6 7 17
M TOR 41 5 8 1 10
M TOR 42 5 8 7 17
M TOR 43 6 5 4 15
M TOR 44 6 5 8 18
M TOR 45 6 7 4 15
M TOR 46 6 7 8 18
M TOR 47 7 4 3 13
M TOR 48 7 4 3 14
M TOR 49 7 4 5 16
M TOR 50 7 6 5 16
M TOR 51 7 8 1 10
M TOR 52 7 8 5 16
M TOR 53 8 1 0 9
M TOR 54 8 1 2 11
M TOR 55 8 1 2 12
M TOR 56 8 5 4 15
M TOR 57 8 7 4 15
M  END
$$$$
