gdb 1260	3.0127035	1.3765409	1.1886905	1.6607	74.35	-0.23086	0.06992	0.30078	1105.5473	0.156322	-422.492849	-422.484477	-422.483533	-422.525957	31.941
 OpenBabel02181911403D

 19 21  0  0  1  0  0  0  0  0999 V2000
    1.4014    3.4829    1.5782 C   0  0  0  0  0  0  0  0  0  0  0  0
    0.8813    2.0909    1.2339 C   0  0  2  0  0  0  0  0  0  0  0  0
    0.2802    2.1884   -0.0583 O   0  0  0  0  0  0  0  0  0  0  0  0
   -0.0862    1.5682    2.2471 C   0  0  2  0  0  0  0  0  0  0  0  0
   -0.7622    0.2014    2.4345 C   0  0  2  0  0  0  0  0  0  0  0  0
   -2.1486    0.8419    2.5012 C   0  0  0  0  0  0  0  0  0  0  0  0
   -1.3944    2.1179    2.9518 C   0  0  1  0  0  0  0  0  0  0  0  0
   -0.8636    1.7583    4.2606 O   0  0  0  0  0  0  0  0  0  0  0  0
    0.0254    0.8866    3.5676 C   0  0  2  0  0  0  0  0  0  0  0  0
    1.9114    3.4747    2.5450 H   0  0  0  0  0  0  0  0  0  0  0  0
    2.1010    3.8214    0.8097 H   0  0  0  0  0  0  0  0  0  0  0  0
    0.5724    4.1951    1.6243 H   0  0  0  0  0  0  0  0  0  0  0  0
    1.7347    1.3909    1.2002 H   0  0  0  0  0  0  0  0  0  0  0  0
   -0.1057    1.3297   -0.2609 H   0  0  0  0  0  0  0  0  0  0  0  0
   -0.4671   -0.7560    2.0219 H   0  0  0  0  0  0  0  0  0  0  0  0
   -2.5848    0.9620    1.5063 H   0  0  0  0  0  0  0  0  0  0  0  0
   -2.8871    0.4443    3.2041 H   0  0  0  0  0  0  0  0  0  0  0  0
   -1.8247    3.1160    2.9149 H   0  0  0  0  0  0  0  0  0  0  0  0
    0.8624    0.4502    4.0972 H   0  0  0  0  0  0  0  0  0  0  0  0
  1 12  1  0  0  0  0
  1 10  1  0  0  0  0
  2 13  1  6  0  0  0
  2  1  1  0  0  0  0
  3  2  1  0  0  0  0
  4  2  1  6  0  0  0
  4  5  1  0  0  0  0
  4  7  1  0  0  0  0
  4  9  1  0  0  0  0
  5 15  1  6  0  0  0
  5  6  1  0  0  0  0
  5  9  1  0  0  0  0
  6  7  1  0  0  0  0
  6 17  1  0  0  0  0
  7 18  1  6  0  0  0
  7  8  1  0  0  0  0
  9 19  1  1  0  0  0
  9  8  1  0  0  0  0
 11  1  1  0  0  0  0
 14  3  1  0  0  0  0
 16  6  1  0  0  0  0
M TOR 0 0 1 2 13
M TOR 1 0 1 3 4
M TOR 2 0 1 3 6
M TOR 3 0 1 3 8
M TOR 4 1 3 4 5
M TOR 5 1 3 4 8
M TOR 6 1 3 4 14
M TOR 7 1 3 6 5
M TOR 8 1 3 6 7
M TOR 9 1 3 6 17
M TOR 10 1 3 8 7
M TOR 11 1 3 8 18
M TOR 12 2 1 0 9
M TOR 13 2 1 0 10
M TOR 14 2 1 0 11
M TOR 15 2 1 3 4
M TOR 16 2 1 3 6
M TOR 17 2 1 3 8
M TOR 18 3 1 0 9
M TOR 19 3 1 0 10
M TOR 20 3 1 0 11
M TOR 21 3 1 2 13
M TOR 22 3 4 5 6
M TOR 23 3 4 5 15
M TOR 24 3 4 5 16
M TOR 25 3 4 8 7
M TOR 26 3 4 8 18
M TOR 27 3 6 5 15
M TOR 28 3 6 5 16
M TOR 29 3 6 7 8
M TOR 30 3 8 4 5
M TOR 31 3 8 4 14
M TOR 32 4 3 1 12
M TOR 33 4 3 6 7
M TOR 34 4 3 6 17
M TOR 35 4 5 6 7
M TOR 36 4 5 6 17
M TOR 37 4 8 3 6
M TOR 38 4 8 7 6
M TOR 39 5 4 8 7
M TOR 40 5 4 8 18
M TOR 41 5 6 3 8
M TOR 42 5 6 7 8
M TOR 43 6 3 1 12
M TOR 44 6 3 4 14
M TOR 45 6 3 8 18
M TOR 46 6 5 4 8
M TOR 47 6 5 4 14
M TOR 48 6 7 8 18
M TOR 49 7 6 5 15
M TOR 50 7 6 5 16
M TOR 51 7 8 4 14
M TOR 52 8 3 1 12
M TOR 53 8 3 6 17
M TOR 54 8 4 5 15
M TOR 55 8 4 5 16
M TOR 56 8 7 6 17
M  END
$$$$
