gdb 4700	3.571181	0.6908956	0.5872703	2.3179	79.25	-0.24723	-0.01326	0.23397	1851.6453	0.151941	-422.521931	-422.510981	-422.510037	-422.560007	36.909
 OpenBabel02181911413D

 19 18  0  0  0  0  0  0  0  0999 V2000
   -1.6864    3.0893    2.7540 C   0  0  0  0  0  0  0  0  0  0  0  0
   -0.6650    2.5342    1.7660 C   0  0  0  0  0  0  0  0  0  0  0  0
   -1.2845    1.6614    0.6947 C   0  0  0  0  0  0  0  0  0  0  0  0
   -2.4684    1.4254    0.6267 O   0  0  0  0  0  0  0  0  0  0  0  0
   -0.3518    1.0500   -0.3539 C   0  0  0  0  0  0  0  0  0  0  0  0
    0.9868    1.4232   -0.1279 O   0  0  0  0  0  0  0  0  0  0  0  0
    1.8749    0.8725   -1.0842 C   0  0  0  0  0  0  0  0  0  0  0  0
    3.2387    1.2939   -0.7966 C   0  0  0  0  0  0  0  0  0  0  0  0
    4.3723    1.6261   -0.5823 C   0  0  0  0  0  0  0  0  0  0  0  0
   -2.2169    2.2813    3.2646 H   0  0  0  0  0  0  0  0  0  0  0  0
   -1.1946    3.7110    3.5071 H   0  0  0  0  0  0  0  0  0  0  0  0
   -2.4380    3.6955    2.2417 H   0  0  0  0  0  0  0  0  0  0  0  0
   -0.1048    3.3313    1.2598 H   0  0  0  0  0  0  0  0  0  0  0  0
    0.1130    1.9420    2.2655 H   0  0  0  0  0  0  0  0  0  0  0  0
   -0.4790   -0.0447   -0.3186 H   0  0  0  0  0  0  0  0  0  0  0  0
   -0.7021    1.3785   -1.3466 H   0  0  0  0  0  0  0  0  0  0  0  0
    1.8141   -0.2290   -1.0735 H   0  0  0  0  0  0  0  0  0  0  0  0
    1.5909    1.1944   -2.1005 H   0  0  0  0  0  0  0  0  0  0  0  0
    5.3734    1.9226   -0.3878 H   0  0  0  0  0  0  0  0  0  0  0  0
  1 10  1  0  0  0  0
  1 11  1  0  0  0  0
  2 14  1  0  0  0  0
  2  1  1  0  0  0  0
  3  2  1  0  0  0  0
  4  3  2  0  0  0  0
  5 15  1  0  0  0  0
  5  6  1  0  0  0  0
  5  3  1  0  0  0  0
  7 17  1  0  0  0  0
  7  8  1  0  0  0  0
  7  6  1  0  0  0  0
  8  9  3  0  0  0  0
  9 19  1  0  0  0  0
 12  1  1  0  0  0  0
 13  2  1  0  0  0  0
 16  5  1  0  0  0  0
 18  7  1  0  0  0  0
M TOR 0 0 1 2 3
M TOR 1 0 1 2 4
M TOR 2 1 2 4 5
M TOR 3 1 2 4 14
M TOR 4 1 2 4 15
M TOR 5 2 1 0 9
M TOR 6 2 1 0 10
M TOR 7 2 1 0 11
M TOR 8 2 4 5 6
M TOR 9 3 2 1 12
M TOR 10 3 2 1 13
M TOR 11 3 2 4 5
M TOR 12 3 2 4 14
M TOR 13 3 2 4 15
M TOR 14 4 2 1 12
M TOR 15 4 2 1 13
M TOR 16 4 5 6 7
M TOR 17 4 5 6 16
M TOR 18 4 5 6 17
M TOR 19 5 6 7 8
M TOR 20 6 5 4 14
M TOR 21 6 5 4 15
M TOR 22 6 7 8 18
M TOR 23 8 7 6 16
M TOR 24 8 7 6 17
M  END
$$$$
