
     RDKit          3D

 19 21  0  0  0  0  0  0  0  0999 V2000
    0.6779    0.7569    1.4073 C   0  0  0  0  0  0  0  0  0  0  0  0
   -0.5634    1.2380    0.5607 C   0  0  0  0  0  0  0  0  0  0  0  0
    0.1020    0.5536   -0.6392 C   0  0  0  0  0  0  0  0  0  0  0  0
   -0.0194   -0.9776   -0.8138 C   0  0  0  0  0  0  0  0  0  0  0  0
    1.3634   -0.9875   -1.4721 C   0  0  0  0  0  0  0  0  0  0  0  0
    1.1463    0.1083   -2.5570 C   0  0  0  0  0  0  0  0  0  0  0  0
    0.1496    1.0040   -1.9854 O   0  0  0  0  0  0  0  0  0  0  0  0
    2.2067   -0.4783   -0.4117 O   0  0  0  0  0  0  0  0  0  0  0  0
    1.4535    0.6462    0.0552 C   0  0  0  0  0  0  0  0  0  0  0  0
    1.0744    1.4589    2.1416 H   0  0  0  0  0  0  0  0  0  0  0  0
    0.5100   -0.2090    1.8854 H   0  0  0  0  0  0  0  0  0  0  0  0
   -1.5568    0.8986    0.8581 H   0  0  0  0  0  0  0  0  0  0  0  0
   -0.5695    2.3254    0.4538 H   0  0  0  0  0  0  0  0  0  0  0  0
   -0.0468   -1.5662    0.1028 H   0  0  0  0  0  0  0  0  0  0  0  0
   -0.8518   -1.2365   -1.4711 H   0  0  0  0  0  0  0  0  0  0  0  0
    1.7879   -1.9219   -1.8367 H   0  0  0  0  0  0  0  0  0  0  0  0
    2.0752    0.6525   -2.7604 H   0  0  0  0  0  0  0  0  0  0  0  0
    0.7559   -0.3050   -3.4931 H   0  0  0  0  0  0  0  0  0  0  0  0
    1.9908    1.5761   -0.1586 H   0  0  0  0  0  0  0  0  0  0  0  0
  1  2  1  0
  2  3  1  0
  3  4  1  0
  4  5  1  0
  5  6  1  0
  6  7  1  0
  5  8  1  0
  8  9  1  0
  9  1  1  0
  7  3  1  0
  9  3  1  0
  1 10  1  0
  1 11  1  0
  2 12  1  0
  2 13  1  0
  4 14  1  0
  4 15  1  0
  5 16  1  0
  6 17  1  0
  6 18  1  0
  9 19  1  0
M  END
$$$$
