gdb 2126	2.8849034	1.7774971	1.3926177	1.3452	75.16	-0.2401	0.0601	0.3002	979.5984	0.157779	-422.4863	-422.478962	-422.478018	-422.517455	29.995
 OpenBabel02181911403D

 19 21  0  0  1  0  0  0  0  0999 V2000
    0.2435   -0.7926    0.7231 C   0  0  0  0  0  0  0  0  0  0  0  0
    1.5108   -0.2397    0.1392 C   0  0  2  0  0  0  0  0  0  0  0  0
    2.2323   -0.7191   -1.1227 C   0  0  0  0  0  0  0  0  0  0  0  0
    3.3176    0.3032   -0.6085 C   0  0  2  0  0  0  0  0  0  0  0  0
    4.6476   -0.3627   -0.2651 C   0  0  0  0  0  0  0  0  0  0  0  0
    3.9751   -1.0902    0.8127 O   0  0  0  0  0  0  0  0  0  0  0  0
    2.8983   -0.1063    0.8216 C   0  0  2  0  0  0  0  0  0  0  0  0
    2.5902    1.6163   -0.7825 C   0  0  0  0  0  0  0  0  0  0  0  0
    1.3308    1.1929   -0.1591 O   0  0  0  0  0  0  0  0  0  0  0  0
   -0.0331   -0.2405    1.6265 H   0  0  0  0  0  0  0  0  0  0  0  0
   -0.5805   -0.7126    0.0074 H   0  0  0  0  0  0  0  0  0  0  0  0
    0.3785   -1.8457    0.9854 H   0  0  0  0  0  0  0  0  0  0  0  0
    2.5789   -1.7498   -1.0712 H   0  0  0  0  0  0  0  0  0  0  0  0
    1.7469   -0.5015   -2.0764 H   0  0  0  0  0  0  0  0  0  0  0  0
    5.0894   -1.0391   -1.0031 H   0  0  0  0  0  0  0  0  0  0  0  0
    5.4144    0.3116    0.1377 H   0  0  0  0  0  0  0  0  0  0  0  0
    2.9647    0.5666    1.6820 H   0  0  0  0  0  0  0  0  0  0  0  0
    3.0175    2.4501   -0.2169 H   0  0  0  0  0  0  0  0  0  0  0  0
    2.4001    1.9301   -1.8147 H   0  0  0  0  0  0  0  0  0  0  0  0
  1 12  1  0  0  0  0
  1 10  1  0  0  0  0
  2  1  1  1  0  0  0
  2  7  1  0  0  0  0
  3 13  1  0  0  0  0
  3  2  1  0  0  0  0
  4  3  1  6  0  0  0
  4  5  1  0  0  0  0
  4  7  1  0  0  0  0
  5 16  1  0  0  0  0
  5  6  1  0  0  0  0
  6  7  1  0  0  0  0
  7 17  1  1  0  0  0
  8  4  1  0  0  0  0
  8 18  1  0  0  0  0
  8  9  1  0  0  0  0
  9  2  1  0  0  0  0
 11  1  1  0  0  0  0
 14  3  1  0  0  0  0
 15  5  1  0  0  0  0
 19  8  1  0  0  0  0
M TOR 0 0 1 2 3
M TOR 1 0 1 2 12
M TOR 2 0 1 2 13
M TOR 3 0 1 6 3
M TOR 4 0 1 6 5
M TOR 5 0 1 6 16
M TOR 6 0 1 8 7
M TOR 7 1 2 3 4
M TOR 8 1 2 3 6
M TOR 9 1 2 3 7
M TOR 10 1 6 3 4
M TOR 11 1 6 3 7
M TOR 12 1 6 5 4
M TOR 13 1 8 7 3
M TOR 14 1 8 7 17
M TOR 15 1 8 7 18
M TOR 16 2 1 0 9
M TOR 17 2 1 0 10
M TOR 18 2 1 0 11
M TOR 19 2 1 6 5
M TOR 20 2 1 6 16
M TOR 21 2 1 8 7
M TOR 22 2 3 4 5
M TOR 23 2 3 4 14
M TOR 24 2 3 4 15
M TOR 25 2 3 6 5
M TOR 26 2 3 6 16
M TOR 27 2 3 7 8
M TOR 28 2 3 7 17
M TOR 29 2 3 7 18
M TOR 30 3 2 1 8
M TOR 31 3 4 5 6
M TOR 32 3 6 1 8
M TOR 33 4 3 2 12
M TOR 34 4 3 2 13
M TOR 35 4 3 6 16
M TOR 36 4 3 7 8
M TOR 37 4 3 7 17
M TOR 38 4 3 7 18
M TOR 39 4 5 6 16
M TOR 40 5 4 3 7
M TOR 41 5 6 1 8
M TOR 42 5 6 3 7
M TOR 43 6 1 0 9
M TOR 44 6 1 0 10
M TOR 45 6 1 0 11
M TOR 46 6 1 2 12
M TOR 47 6 1 2 13
M TOR 48 6 1 8 7
M TOR 49 6 3 2 12
M TOR 50 6 3 2 13
M TOR 51 6 3 4 14
M TOR 52 6 3 4 15
M TOR 53 6 3 7 8
M TOR 54 6 3 7 17
M TOR 55 6 3 7 18
M TOR 56 6 5 4 14
M TOR 57 6 5 4 15
M TOR 58 7 3 2 12
M TOR 59 7 3 2 13
M TOR 60 7 3 4 14
M TOR 61 7 3 4 15
M TOR 62 7 3 6 16
M TOR 63 8 1 0 9
M TOR 64 8 1 0 10
M TOR 65 8 1 0 11
M TOR 66 8 1 2 12
M TOR 67 8 1 2 13
M TOR 68 8 1 6 16
M  END
$$$$
