
     RDKit          3D

 19 19  0  0  0  0  0  0  0  0999 V2000
    0.2261   -0.7635   -0.0334 C   0  0  0  0  0  0  0  0  0  0  0  0
    0.6165    0.6962    0.0959 C   0  0  0  0  0  0  0  0  0  0  0  0
    2.0389    0.7757   -0.0770 O   0  0  0  0  0  0  0  0  0  0  0  0
    2.6072    1.9823   -0.0023 C   0  0  0  0  0  0  0  0  0  0  0  0
    3.9122    2.3464   -0.1229 C   0  0  0  0  0  0  0  0  0  0  0  0
    3.9336    3.7781    0.0477 C   0  0  0  0  0  0  0  0  0  0  0  0
    5.1367    4.6672    0.0036 C   0  0  0  0  0  0  0  0  0  0  0  0
    2.6468    4.1531    0.2554 C   0  0  0  0  0  0  0  0  0  0  0  0
    1.8136    3.0527    0.2274 O   0  0  0  0  0  0  0  0  0  0  0  0
    0.7263   -1.3673    0.7286 H   0  0  0  0  0  0  0  0  0  0  0  0
   -0.8553   -0.8711    0.0927 H   0  0  0  0  0  0  0  0  0  0  0  0
    0.5013   -1.1525   -1.0175 H   0  0  0  0  0  0  0  0  0  0  0  0
    0.1211    1.3128   -0.6633 H   0  0  0  0  0  0  0  0  0  0  0  0
    0.3449    1.0986    1.0790 H   0  0  0  0  0  0  0  0  0  0  0  0
    4.7446    1.6877   -0.3076 H   0  0  0  0  0  0  0  0  0  0  0  0
    5.8673    4.3897    0.7720 H   0  0  0  0  0  0  0  0  0  0  0  0
    5.6477    4.6007   -0.9637 H   0  0  0  0  0  0  0  0  0  0  0  0
    4.8615    5.7132    0.1656 H   0  0  0  0  0  0  0  0  0  0  0  0
    2.1608    5.0973    0.4311 H   0  0  0  0  0  0  0  0  0  0  0  0
  1  2  1  0
  2  3  1  0
  3  4  1  0
  4  5  2  0
  5  6  1  0
  6  7  1  0
  6  8  2  0
  8  9  1  0
  9  4  1  0
  1 10  1  0
  1 11  1  0
  1 12  1  0
  2 13  1  0
  2 14  1  0
  5 15  1  0
  7 16  1  0
  7 17  1  0
  7 18  1  0
  8 19  1  0
M  END
$$$$
