
     RDKit          3D

 19 20  0  0  0  0  0  0  0  0999 V2000
    1.0043    2.1626   -0.2652 O   0  0  0  0  0  0  0  0  0  0  0  0
    2.0494    1.3313   -0.6541 C   0  0  0  0  0  0  0  0  0  0  0  0
    2.1189    0.9060   -2.1608 C   0  0  0  0  0  0  0  0  0  0  0  0
    3.6396    1.2333   -2.1780 C   0  0  0  0  0  0  0  0  0  0  0  0
    3.4479    1.9752   -0.8521 C   0  0  0  0  0  0  0  0  0  0  0  0
    4.4358    2.3923    0.1992 C   0  0  0  0  0  0  0  0  0  0  0  0
    3.6912    3.4322   -0.6033 C   0  0  0  0  0  0  0  0  0  0  0  0
    2.1319    0.1413    0.2707 C   0  0  0  0  0  0  0  0  0  0  0  0
    1.3909    0.0107    1.2170 O   0  0  0  0  0  0  0  0  0  0  0  0
    0.6115    1.7453    0.5192 H   0  0  0  0  0  0  0  0  0  0  0  0
    1.8115   -0.1119   -2.4140 H   0  0  0  0  0  0  0  0  0  0  0  0
    1.5307    1.6151   -2.7458 H   0  0  0  0  0  0  0  0  0  0  0  0
    4.2664    0.3404   -2.0869 H   0  0  0  0  0  0  0  0  0  0  0  0
    4.0014    1.8240   -3.0229 H   0  0  0  0  0  0  0  0  0  0  0  0
    4.1617    2.2622    1.2420 H   0  0  0  0  0  0  0  0  0  0  0  0
    5.4907    2.2399   -0.0061 H   0  0  0  0  0  0  0  0  0  0  0  0
    2.8958    3.9836   -0.1144 H   0  0  0  0  0  0  0  0  0  0  0  0
    4.2394    3.9876   -1.3578 H   0  0  0  0  0  0  0  0  0  0  0  0
    2.9178   -0.6060    0.0407 H   0  0  0  0  0  0  0  0  0  0  0  0
  1  2  1  0
  2  3  1  0
  3  4  1  0
  4  5  1  0
  5  6  1  0
  6  7  1  0
  2  8  1  0
  8  9  2  0
  5  2  1  0
  7  5  1  0
  1 10  1  0
  3 11  1  0
  3 12  1  0
  4 13  1  0
  4 14  1  0
  6 15  1  0
  6 16  1  0
  7 17  1  0
  7 18  1  0
  8 19  1  0
M  END
$$$$
