gdb 2549	2.6798351	1.7116379	1.5103677	2.2133	75.03	-0.24541	0.00875	0.25416	981.5399	0.159172	-422.570775	-422.563268	-422.562324	-422.602369	29.751
 OpenBabel02181911413D

 19 20  0  0  1  0  0  0  0  0999 V2000
    1.2129    1.6094    1.3826 C   0  0  0  0  0  0  0  0  0  0  0  0
    0.2668    0.5132    1.0294 C   0  0  0  0  0  0  0  0  0  0  0  0
    0.1235   -0.7135    1.5286 C   0  0  0  0  0  0  0  0  0  0  0  0
   -1.0945   -1.3447    0.8685 C   0  0  1  0  0  0  0  0  0  0  0  0
   -2.3872   -1.0026    1.6362 C   0  0  0  0  0  0  0  0  0  0  0  0
   -2.4509    0.5292    1.8375 C   0  0  0  0  0  0  0  0  0  0  0  0
   -2.0204    1.2755    0.6926 O   0  0  0  0  0  0  0  0  0  0  0  0
   -0.8938    0.7008    0.0451 C   0  0  2  0  0  0  0  0  0  0  0  0
   -1.1926   -0.6126   -0.3659 O   0  0  0  0  0  0  0  0  0  0  0  0
    1.9093    1.3076    2.1694 H   0  0  0  0  0  0  0  0  0  0  0  0
    1.7985    1.9261    0.5104 H   0  0  0  0  0  0  0  0  0  0  0  0
    0.6644    2.4943    1.7282 H   0  0  0  0  0  0  0  0  0  0  0  0
    0.6917   -1.1720    2.3284 H   0  0  0  0  0  0  0  0  0  0  0  0
   -1.0036   -2.4096    0.6419 H   0  0  0  0  0  0  0  0  0  0  0  0
   -3.2340   -1.3508    1.0370 H   0  0  0  0  0  0  0  0  0  0  0  0
   -2.4340   -1.4972    2.6133 H   0  0  0  0  0  0  0  0  0  0  0  0
   -3.4757    0.8549    2.0343 H   0  0  0  0  0  0  0  0  0  0  0  0
   -1.8405    0.8037    2.7081 H   0  0  0  0  0  0  0  0  0  0  0  0
   -0.7008    1.3250   -0.8296 H   0  0  0  0  0  0  0  0  0  0  0  0
  1 12  1  0  0  0  0
  1 10  1  0  0  0  0
  2  1  1  0  0  0  0
  2  3  2  0  0  0  0
  3 13  1  0  0  0  0
  4 14  1  6  0  0  0
  4  3  1  0  0  0  0
  4  5  1  0  0  0  0
  5  6  1  0  0  0  0
  5 16  1  0  0  0  0
  6 17  1  0  0  0  0
  6 18  1  0  0  0  0
  7  6  1  0  0  0  0
  8 19  1  6  0  0  0
  8  7  1  0  0  0  0
  8  2  1  0  0  0  0
  9  8  1  0  0  0  0
  9  4  1  0  0  0  0
 11  1  1  0  0  0  0
 15  5  1  0  0  0  0
M TOR 0 0 1 2 3
M TOR 1 0 1 2 12
M TOR 2 0 1 7 6
M TOR 3 0 1 7 8
M TOR 4 0 1 7 18
M TOR 5 1 2 3 4
M TOR 6 1 2 3 8
M TOR 7 1 2 3 13
M TOR 8 1 7 6 5
M TOR 9 1 7 8 3
M TOR 10 2 1 0 9
M TOR 11 2 1 0 10
M TOR 12 2 1 0 11
M TOR 13 2 1 7 6
M TOR 14 2 1 7 8
M TOR 15 2 1 7 18
M TOR 16 2 3 4 5
M TOR 17 2 3 4 14
M TOR 18 2 3 4 15
M TOR 19 2 3 8 7
M TOR 20 3 2 1 7
M TOR 21 3 4 5 6
M TOR 22 3 4 5 16
M TOR 23 3 4 5 17
M TOR 24 3 8 7 6
M TOR 25 3 8 7 18
M TOR 26 4 3 2 12
M TOR 27 4 3 8 7
M TOR 28 4 5 6 7
M TOR 29 5 4 3 8
M TOR 30 5 4 3 13
M TOR 31 5 6 7 8
M TOR 32 5 6 7 18
M TOR 33 6 5 4 14
M TOR 34 6 5 4 15
M TOR 35 7 1 0 9
M TOR 36 7 1 0 10
M TOR 37 7 1 0 11
M TOR 38 7 1 2 12
M TOR 39 7 6 5 16
M TOR 40 7 6 5 17
M TOR 41 7 8 3 13
M TOR 42 8 3 2 12
M TOR 43 8 3 4 14
M TOR 44 8 3 4 15
M  END
$$$$
