gdb 3401	3.0724271	1.3801762	1.1443454	2.4846	73.98	-0.25094	0.07952	0.33046	1103.2017	0.15869	-422.539746	-422.532015	-422.531071	-422.571569	30.64
 OpenBabel02181911413D

 19 21  0  0  1  0  0  0  0  0999 V2000
    0.2660   -0.0238    0.1983 O   0  0  0  0  0  0  0  0  0  0  0  0
   -0.4582    0.6566    1.1825 C   0  0  1  0  0  0  0  0  0  0  0  0
   -1.6378   -0.0232    1.8305 C   0  0  2  0  0  0  0  0  0  0  0  0
   -2.8700    0.7132    2.3314 C   0  0  0  0  0  0  0  0  0  0  0  0
   -2.5652    2.0783    2.9677 C   0  0  0  0  0  0  0  0  0  0  0  0
   -1.3857    2.0409    3.9183 C   0  0  1  0  0  0  0  0  0  0  0  0
   -1.2603    0.9007    4.7704 O   0  0  0  0  0  0  0  0  0  0  0  0
   -0.2881    1.0828    3.7202 C   0  0  1  0  0  0  0  0  0  0  0  0
   -0.3296    0.1173    2.5842 C   0  0  2  0  0  0  0  0  0  0  0  0
   -0.2612   -0.0301   -0.6076 H   0  0  0  0  0  0  0  0  0  0  0  0
   -0.4772    1.7407    1.0683 H   0  0  0  0  0  0  0  0  0  0  0  0
   -1.8285   -1.0206    1.4435 H   0  0  0  0  0  0  0  0  0  0  0  0
   -3.5902    0.8466    1.5150 H   0  0  0  0  0  0  0  0  0  0  0  0
   -3.3577    0.0809    3.0812 H   0  0  0  0  0  0  0  0  0  0  0  0
   -2.3477    2.8279    2.1952 H   0  0  0  0  0  0  0  0  0  0  0  0
   -3.4526    2.4409    3.4999 H   0  0  0  0  0  0  0  0  0  0  0  0
   -1.1560    2.9885    4.4088 H   0  0  0  0  0  0  0  0  0  0  0  0
    0.7025    1.3499    4.0886 H   0  0  0  0  0  0  0  0  0  0  0  0
    0.2828   -0.7732    2.6855 H   0  0  0  0  0  0  0  0  0  0  0  0
  1  2  1  0  0  0  0
  2 11  1  6  0  0  0
  2  3  1  0  0  0  0
  2  9  1  0  0  0  0
  3 12  1  6  0  0  0
  3  4  1  0  0  0  0
  3  9  1  0  0  0  0
  4  5  1  0  0  0  0
  4 14  1  0  0  0  0
  5 16  1  0  0  0  0
  5  6  1  0  0  0  0
  6 17  1  1  0  0  0
  6  7  1  0  0  0  0
  8  6  1  0  0  0  0
  8 18  1  1  0  0  0
  8  7  1  0  0  0  0
  9 19  1  1  0  0  0
  9  8  1  0  0  0  0
 10  1  1  0  0  0  0
 13  4  1  0  0  0  0
 15  5  1  0  0  0  0
M TOR 0 0 1 2 3
M TOR 1 0 1 2 8
M TOR 2 0 1 2 11
M TOR 3 0 1 8 7
M TOR 4 0 1 8 18
M TOR 5 1 2 3 4
M TOR 6 1 2 3 12
M TOR 7 1 2 3 13
M TOR 8 1 2 8 7
M TOR 9 1 2 8 18
M TOR 10 1 8 2 3
M TOR 11 1 8 2 11
M TOR 12 1 8 7 5
M TOR 13 1 8 7 6
M TOR 14 1 8 7 17
M TOR 15 2 1 0 9
M TOR 16 2 3 4 5
M TOR 17 2 3 4 14
M TOR 18 2 3 4 15
M TOR 19 2 8 1 10
M TOR 20 2 8 7 5
M TOR 21 2 8 7 6
M TOR 22 2 8 7 17
M TOR 23 3 2 1 10
M TOR 24 3 2 8 7
M TOR 25 3 2 8 18
M TOR 26 3 4 5 6
M TOR 27 3 4 5 7
M TOR 28 3 4 5 16
M TOR 29 4 3 2 8
M TOR 30 4 3 2 11
M TOR 31 4 5 6 7
M TOR 32 4 5 7 8
M TOR 33 4 5 7 17
M TOR 34 5 4 3 12
M TOR 35 5 4 3 13
M TOR 36 5 6 7 8
M TOR 37 5 6 7 17
M TOR 38 5 7 8 18
M TOR 39 6 5 4 14
M TOR 40 6 5 4 15
M TOR 41 6 7 5 16
M TOR 42 6 7 8 18
M TOR 43 7 5 4 14
M TOR 44 7 5 4 15
M TOR 45 7 8 1 10
M TOR 46 7 8 2 11
M TOR 47 8 1 0 9
M TOR 48 8 2 3 12
M TOR 49 8 2 3 13
M TOR 50 8 7 5 16
M  END
$$$$
