
     RDKit          3D

 19 20  0  0  0  0  0  0  0  0999 V2000
    2.0703    1.5313    0.2288 C   0  0  0  0  0  0  0  0  0  0  0  0
    1.5880    0.0766    0.1935 C   0  0  0  0  0  0  0  0  0  0  0  0
    2.0827   -0.6808   -1.0290 C   0  0  0  0  0  0  0  0  0  0  0  0
    3.5530   -1.2433   -1.1029 C   0  0  0  0  0  0  0  0  0  0  0  0
    3.0303   -2.2093   -2.2175 C   0  0  0  0  0  0  0  0  0  0  0  0
    1.8901   -2.2369   -1.1269 C   0  0  0  0  0  0  0  0  0  0  0  0
    0.6918   -2.9032   -1.1504 O   0  0  0  0  0  0  0  0  0  0  0  0
    3.0534   -2.3215   -0.1300 C   0  0  0  0  0  0  0  0  0  0  0  0
    3.3722   -2.9301    0.8465 O   0  0  0  0  0  0  0  0  0  0  0  0
    1.6772    2.0559    1.1047 H   0  0  0  0  0  0  0  0  0  0  0  0
    3.1632    1.5873    0.2691 H   0  0  0  0  0  0  0  0  0  0  0  0
    1.7430    2.0788   -0.6620 H   0  0  0  0  0  0  0  0  0  0  0  0
    1.9040   -0.4400    1.1083 H   0  0  0  0  0  0  0  0  0  0  0  0
    0.4910    0.0517    0.1921 H   0  0  0  0  0  0  0  0  0  0  0  0
    1.7992   -0.1792   -1.9608 H   0  0  0  0  0  0  0  0  0  0  0  0
    4.4821   -0.6839   -1.1024 H   0  0  0  0  0  0  0  0  0  0  0  0
    2.7440   -1.7134   -3.1471 H   0  0  0  0  0  0  0  0  0  0  0  0
    3.5924   -3.1281   -2.3929 H   0  0  0  0  0  0  0  0  0  0  0  0
    0.7505   -3.6514   -0.5449 H   0  0  0  0  0  0  0  0  0  0  0  0
  1  2  1  0
  2  3  1  0
  3  4  1  0
  4  5  1  0
  5  6  1  0
  6  7  1  0
  6  8  1  0
  8  9  2  0
  6  3  1  0
  8  4  1  0
  1 10  1  0
  1 11  1  0
  1 12  1  0
  2 13  1  0
  2 14  1  0
  3 15  1  0
  4 16  1  0
  5 17  1  0
  5 18  1  0
  7 19  1  0
M  END
$$$$
