gdb 5046	2.4062075	1.4864232	1.1236313	2.6857	74.7	-0.21846	0.05805	0.27651	1150.5152	0.15477	-422.476111	-422.467313	-422.466369	-422.509464	33.636
 OpenBabel02181911413D

 19 21  0  0  1  0  0  0  0  0999 V2000
    2.1914    1.7302   -0.5106 C   0  0  0  0  0  0  0  0  0  0  0  0
    1.6401    0.3228   -0.2400 C   0  0  0  0  0  0  0  0  0  0  0  0
    2.1914   -0.7207   -1.1705 C   0  0  2  0  0  0  0  0  0  0  0  0
    1.6864   -0.9675   -2.5857 C   0  0  0  0  0  0  0  0  0  0  0  0
    1.6585   -2.0887   -1.6002 C   0  0  2  0  0  0  0  0  0  0  0  0
    0.4849   -2.7530   -1.3038 O   0  0  0  0  0  0  0  0  0  0  0  0
    3.0912   -2.6942   -1.3845 C   0  0  1  0  0  0  0  0  0  0  0  0
    4.0345   -2.0017   -2.2155 O   0  0  0  0  0  0  0  0  0  0  0  0
    3.6010   -1.3875   -0.9898 C   0  0  1  0  0  0  0  0  0  0  0  0
    1.7801    2.4580    0.1959 H   0  0  0  0  0  0  0  0  0  0  0  0
    3.2824    1.7530   -0.4171 H   0  0  0  0  0  0  0  0  0  0  0  0
    1.9403    2.0584   -1.5240 H   0  0  0  0  0  0  0  0  0  0  0  0
    1.8582    0.0415    0.8000 H   0  0  0  0  0  0  0  0  0  0  0  0
    0.5466    0.3312   -0.3281 H   0  0  0  0  0  0  0  0  0  0  0  0
    0.7038   -0.5416   -2.7669 H   0  0  0  0  0  0  0  0  0  0  0  0
    2.3584   -0.9764   -3.4350 H   0  0  0  0  0  0  0  0  0  0  0  0
    0.4830   -2.9738   -0.3655 H   0  0  0  0  0  0  0  0  0  0  0  0
    3.3347   -3.7011   -1.0625 H   0  0  0  0  0  0  0  0  0  0  0  0
    4.3640   -1.1015   -0.2746 H   0  0  0  0  0  0  0  0  0  0  0  0
  1 11  1  0  0  0  0
  1  2  1  0  0  0  0
  1 10  1  0  0  0  0
  2 13  1  0  0  0  0
  3  9  1  0  0  0  0
  3  2  1  1  0  0  0
  4  5  1  0  0  0  0
  4  3  1  0  0  0  0
  5  7  1  0  0  0  0
  5  6  1  1  0  0  0
  5  3  1  0  0  0  0
  6 17  1  0  0  0  0
  7 18  1  1  0  0  0
  7  9  1  0  0  0  0
  8  7  1  0  0  0  0
  8  9  1  0  0  0  0
  9 19  1  1  0  0  0
 12  1  1  0  0  0  0
 14  2  1  0  0  0  0
 15  4  1  0  0  0  0
 16  4  1  0  0  0  0
M TOR 0 0 1 2 3
M TOR 1 0 1 2 4
M TOR 2 0 1 2 8
M TOR 3 1 2 3 4
M TOR 4 1 2 3 14
M TOR 5 1 2 3 15
M TOR 6 1 2 4 5
M TOR 7 1 2 4 6
M TOR 8 1 2 8 6
M TOR 9 1 2 8 7
M TOR 10 1 2 8 18
M TOR 11 2 1 0 9
M TOR 12 2 1 0 10
M TOR 13 2 1 0 11
M TOR 14 2 3 4 5
M TOR 15 2 3 4 6
M TOR 16 2 4 3 14
M TOR 17 2 4 3 15
M TOR 18 2 4 5 16
M TOR 19 2 4 6 7
M TOR 20 2 4 6 8
M TOR 21 2 4 6 17
M TOR 22 2 8 6 7
M TOR 23 2 8 6 17
M TOR 24 3 2 1 12
M TOR 25 3 2 1 13
M TOR 26 3 2 8 6
M TOR 27 3 2 8 7
M TOR 28 3 2 8 18
M TOR 29 3 4 2 8
M TOR 30 3 4 5 16
M TOR 31 3 4 6 7
M TOR 32 3 4 6 8
M TOR 33 3 4 6 17
M TOR 34 4 2 1 12
M TOR 35 4 2 1 13
M TOR 36 4 2 8 7
M TOR 37 4 2 8 18
M TOR 38 4 6 7 8
M TOR 39 4 6 8 18
M TOR 40 5 4 2 8
M TOR 41 5 4 3 14
M TOR 42 5 4 3 15
M TOR 43 5 4 6 7
M TOR 44 5 4 6 8
M TOR 45 5 4 6 17
M TOR 46 6 4 3 14
M TOR 47 6 4 3 15
M TOR 48 6 4 5 16
M TOR 49 6 7 8 18
M TOR 50 7 8 6 17
M TOR 51 8 2 1 12
M TOR 52 8 2 1 13
M TOR 53 8 2 3 14
M TOR 54 8 2 3 15
M  END
$$$$
