gdb 1840	2.4451968	1.495516	1.2574721	2.8581	76.03	-0.2387	-0.02971	0.20899	1085.6824	0.156685	-422.553944	-422.545689	-422.544744	-422.586863	31.442
 OpenBabel02181911403D

 19 20  0  0  1  0  0  0  0  0999 V2000
    0.9374   -3.3569   -0.0770 C   0  0  0  0  0  0  0  0  0  0  0  0
    0.6424   -2.1817   -0.9644 C   0  0  2  0  0  0  0  0  0  0  0  0
   -0.6843   -1.9518   -1.7328 C   0  0  0  0  0  0  0  0  0  0  0  0
   -0.0546   -0.5401   -1.9268 C   0  0  2  0  0  0  0  0  0  0  0  0
    1.1754   -0.9222   -2.7554 C   0  0  0  0  0  0  0  0  0  0  0  0
    1.6407   -2.0635   -2.0029 O   0  0  0  0  0  0  0  0  0  0  0  0
    0.4959   -0.7022   -0.4572 C   0  0  2  0  0  0  0  0  0  0  0  0
    1.7124    0.0390    0.0124 C   0  0  0  0  0  0  0  0  0  0  0  0
    1.7122    0.7978    0.9523 O   0  0  0  0  0  0  0  0  0  0  0  0
    0.1901   -3.4353    0.7171 H   0  0  0  0  0  0  0  0  0  0  0  0
    0.9271   -4.2832   -0.6595 H   0  0  0  0  0  0  0  0  0  0  0  0
    1.9251   -3.2560    0.3831 H   0  0  0  0  0  0  0  0  0  0  0  0
   -0.8531   -2.5650   -2.6219 H   0  0  0  0  0  0  0  0  0  0  0  0
   -1.5629   -1.9441   -1.0864 H   0  0  0  0  0  0  0  0  0  0  0  0
   -0.6292    0.3342   -2.2274 H   0  0  0  0  0  0  0  0  0  0  0  0
    0.9198   -1.2203   -3.7789 H   0  0  0  0  0  0  0  0  0  0  0  0
    1.9534   -0.1526   -2.7969 H   0  0  0  0  0  0  0  0  0  0  0  0
   -0.3051   -0.5842    0.2746 H   0  0  0  0  0  0  0  0  0  0  0  0
    2.6458   -0.1660   -0.5531 H   0  0  0  0  0  0  0  0  0  0  0  0
  1 12  1  0  0  0  0
  1 10  1  0  0  0  0
  2  7  1  0  0  0  0
  2  1  1  1  0  0  0
  3 14  1  0  0  0  0
  3  2  1  0  0  0  0
  4 15  1  6  0  0  0
  4  3  1  0  0  0  0
  4  7  1  0  0  0  0
  5  6  1  0  0  0  0
  5  4  1  0  0  0  0
  6  2  1  0  0  0  0
  7  8  1  0  0  0  0
  7 18  1  1  0  0  0
  8  9  2  0  0  0  0
 11  1  1  0  0  0  0
 13  3  1  0  0  0  0
 16  5  1  0  0  0  0
 17  5  1  0  0  0  0
 19  8  1  0  0  0  0
M TOR 0 0 1 2 3
M TOR 1 0 1 2 12
M TOR 2 0 1 2 13
M TOR 3 0 1 5 4
M TOR 4 0 1 6 3
M TOR 5 0 1 6 7
M TOR 6 0 1 6 17
M TOR 7 1 2 3 4
M TOR 8 1 2 3 6
M TOR 9 1 2 3 14
M TOR 10 1 5 4 3
M TOR 11 1 5 4 15
M TOR 12 1 5 4 16
M TOR 13 1 6 3 4
M TOR 14 1 6 3 14
M TOR 15 1 6 7 8
M TOR 16 1 6 7 18
M TOR 17 2 1 0 9
M TOR 18 2 1 0 10
M TOR 19 2 1 0 11
M TOR 20 2 1 5 4
M TOR 21 2 1 6 7
M TOR 22 2 1 6 17
M TOR 23 2 3 4 5
M TOR 24 2 3 4 15
M TOR 25 2 3 4 16
M TOR 26 2 3 6 7
M TOR 27 2 3 6 17
M TOR 28 3 2 1 5
M TOR 29 3 6 1 5
M TOR 30 3 6 7 8
M TOR 31 3 6 7 18
M TOR 32 4 3 2 12
M TOR 33 4 3 2 13
M TOR 34 4 3 6 7
M TOR 35 4 3 6 17
M TOR 36 4 5 1 6
M TOR 37 5 1 0 9
M TOR 38 5 1 0 10
M TOR 39 5 1 0 11
M TOR 40 5 1 2 12
M TOR 41 5 1 2 13
M TOR 42 5 1 6 7
M TOR 43 5 1 6 17
M TOR 44 5 4 3 6
M TOR 45 5 4 3 14
M TOR 46 6 1 0 9
M TOR 47 6 1 0 10
M TOR 48 6 1 0 11
M TOR 49 6 1 2 12
M TOR 50 6 1 2 13
M TOR 51 6 3 2 12
M TOR 52 6 3 2 13
M TOR 53 6 3 4 15
M TOR 54 6 3 4 16
M TOR 55 7 6 3 14
M TOR 56 8 7 6 17
M  END
$$$$
