gdb 31	1.9932759	1.7536601	0.9927957	1.2987	79.62	-0.20392	0.02775	0.23167	1222.8168	0.155052	-422.572063	-422.562143	-422.561199	-422.607192	34.625
 OpenBabel02181911403D

 19 19  0  0  0  0  0  0  0  0999 V2000
    1.6311   -0.1820    0.1533 C   0  0  0  0  0  0  0  0  0  0  0  0
    0.2365    0.0596    0.0081 O   0  0  0  0  0  0  0  0  0  0  0  0
   -0.3526    0.6687    1.0815 C   0  0  0  0  0  0  0  0  0  0  0  0
   -0.7527    1.9711    1.1282 C   0  0  0  0  0  0  0  0  0  0  0  0
   -0.6630    3.0860    0.1538 C   0  0  0  0  0  0  0  0  0  0  0  0
   -1.3719    2.2006    2.3224 O   0  0  0  0  0  0  0  0  0  0  0  0
   -1.3543    1.0317    3.0235 C   0  0  0  0  0  0  0  0  0  0  0  0
   -0.7432    0.0424    2.3220 C   0  0  0  0  0  0  0  0  0  0  0  0
   -0.5461   -1.3872    2.7161 C   0  0  0  0  0  0  0  0  0  0  0  0
    1.8431   -0.8526    0.9957 H   0  0  0  0  0  0  0  0  0  0  0  0
    1.9657   -0.6561   -0.7722 H   0  0  0  0  0  0  0  0  0  0  0  0
    2.1826    0.7553    0.3035 H   0  0  0  0  0  0  0  0  0  0  0  0
   -0.1807    2.7219   -0.7563 H   0  0  0  0  0  0  0  0  0  0  0  0
   -1.6541    3.4708   -0.1129 H   0  0  0  0  0  0  0  0  0  0  0  0
   -0.0789    3.9270    0.5454 H   0  0  0  0  0  0  0  0  0  0  0  0
   -1.8205    1.0616    3.9951 H   0  0  0  0  0  0  0  0  0  0  0  0
    0.5026   -1.6121    2.9449 H   0  0  0  0  0  0  0  0  0  0  0  0
   -1.1352   -1.6358    3.6033 H   0  0  0  0  0  0  0  0  0  0  0  0
   -0.8491   -2.0613    1.9079 H   0  0  0  0  0  0  0  0  0  0  0  0
  1 12  1  0  0  0  0
  1 10  1  0  0  0  0
  2  1  1  0  0  0  0
  2  3  1  0  0  0  0
  3  4  2  0  0  0  0
  3  8  1  0  0  0  0
  4  6  1  0  0  0  0
  5 15  1  0  0  0  0
  5  4  1  0  0  0  0
  6  7  1  0  0  0  0
  7 16  1  0  0  0  0
  8  9  1  0  0  0  0
  8  7  2  0  0  0  0
  9 17  1  0  0  0  0
  9 18  1  0  0  0  0
 11  1  1  0  0  0  0
 13  5  1  0  0  0  0
 14  5  1  0  0  0  0
 19  9  1  0  0  0  0
M TOR 0 0 1 2 3
M TOR 1 0 1 2 7
M TOR 2 1 2 3 4
M TOR 3 1 2 3 5
M TOR 4 1 2 7 6
M TOR 5 1 2 7 8
M TOR 6 2 1 0 9
M TOR 7 2 1 0 10
M TOR 8 2 1 0 11
M TOR 9 2 3 4 12
M TOR 10 2 3 4 13
M TOR 11 2 3 4 14
M TOR 12 2 3 5 6
M TOR 13 2 7 6 5
M TOR 14 2 7 6 15
M TOR 15 2 7 8 16
M TOR 16 2 7 8 17
M TOR 17 2 7 8 18
M TOR 18 3 2 7 6
M TOR 19 3 2 7 8
M TOR 20 3 5 6 7
M TOR 21 3 5 6 15
M TOR 22 4 3 2 7
M TOR 23 4 3 5 6
M TOR 24 5 3 2 7
M TOR 25 5 3 4 12
M TOR 26 5 3 4 13
M TOR 27 5 3 4 14
M TOR 28 5 6 7 8
M TOR 29 6 7 8 16
M TOR 30 6 7 8 17
M TOR 31 6 7 8 18
M TOR 32 8 7 6 15
M  END
$$$$
