
     RDKit          3D

 19 20  0  0  0  0  0  0  0  0999 V2000
    0.4298    0.0154    1.5371 C   0  0  0  0  0  0  0  0  0  0  0  0
   -0.0261    0.0226    0.1206 C   0  0  0  0  0  0  0  0  0  0  0  0
    0.1676   -0.8088   -0.9072 C   0  0  0  0  0  0  0  0  0  0  0  0
   -0.5867   -0.1239   -2.0642 C   0  0  0  0  0  0  0  0  0  0  0  0
   -0.5441   -0.6681   -3.3429 O   0  0  0  0  0  0  0  0  0  0  0  0
   -1.9214    0.2836   -1.3365 C   0  0  0  0  0  0  0  0  0  0  0  0
   -0.8888    1.1404   -0.5191 C   0  0  0  0  0  0  0  0  0  0  0  0
   -1.2335    2.2567    0.2378 O   0  0  0  0  0  0  0  0  0  0  0  0
   -0.1369    1.3552   -1.8676 C   0  0  0  0  0  0  0  0  0  0  0  0
    1.0714   -0.8449    1.7456 H   0  0  0  0  0  0  0  0  0  0  0  0
    0.9858    0.9300    1.7758 H   0  0  0  0  0  0  0  0  0  0  0  0
   -0.4164   -0.0216    2.2368 H   0  0  0  0  0  0  0  0  0  0  0  0
    0.7318   -1.7304   -0.9708 H   0  0  0  0  0  0  0  0  0  0  0  0
   -0.8660   -1.5747   -3.2962 H   0  0  0  0  0  0  0  0  0  0  0  0
   -2.5815    0.8926   -1.9612 H   0  0  0  0  0  0  0  0  0  0  0  0
   -2.4695   -0.4982   -0.8037 H   0  0  0  0  0  0  0  0  0  0  0  0
   -1.8252    1.9763    0.9441 H   0  0  0  0  0  0  0  0  0  0  0  0
   -0.6517    2.0530   -2.5342 H   0  0  0  0  0  0  0  0  0  0  0  0
    0.9353    1.5541   -1.8236 H   0  0  0  0  0  0  0  0  0  0  0  0
  1  2  1  0
  2  3  2  0
  3  4  1  0
  4  5  1  0
  4  6  1  0
  6  7  1  0
  7  8  1  0
  7  9  1  0
  7  2  1  0
  9  4  1  0
  1 10  1  0
  1 11  1  0
  1 12  1  0
  3 13  1  0
  5 14  1  0
  6 15  1  0
  6 16  1  0
  8 17  1  0
  9 18  1  0
  9 19  1  0
M  END
$$$$
