gdb 2979	3.9617348	1.0080285	0.8832362	2.176	76.29	-0.23189	-0.01739	0.21450000000000002	1359.1629	0.154063	-422.530873	-422.521484	-422.52054	-422.566673	33.632
 OpenBabel02181911413D

 19 20  0  0  1  0  0  0  0  0999 V2000
   -3.4742    2.3130    2.5704 C   0  0  0  0  0  0  0  0  0  0  0  0
   -3.1734    1.2140    1.5749 C   0  0  2  0  0  0  0  0  0  0  0  0
   -1.9408    0.3927    1.7909 C   0  0  1  0  0  0  0  0  0  0  0  0
   -1.8845   -0.7090    0.8752 O   0  0  0  0  0  0  0  0  0  0  0  0
   -1.8178    0.2107   -0.2481 C   0  0  1  0  0  0  0  0  0  0  0  0
   -1.9659    1.4175    0.6767 C   0  0  1  0  0  0  0  0  0  0  0  0
   -0.4896    0.1693   -1.0046 C   0  0  0  0  0  0  0  0  0  0  0  0
    0.4889   -0.9217   -0.6414 C   0  0  0  0  0  0  0  0  0  0  0  0
   -0.2821    1.0027   -1.8559 O   0  0  0  0  0  0  0  0  0  0  0  0
   -4.0607    1.9313    3.4124 H   0  0  0  0  0  0  0  0  0  0  0  0
   -2.5520    2.7445    2.9747 H   0  0  0  0  0  0  0  0  0  0  0  0
   -4.0408    3.1255    2.1039 H   0  0  0  0  0  0  0  0  0  0  0  0
   -4.0390    0.7005    1.1593 H   0  0  0  0  0  0  0  0  0  0  0  0
   -1.3848    0.3129    2.7185 H   0  0  0  0  0  0  0  0  0  0  0  0
   -2.6295    0.0420   -0.9687 H   0  0  0  0  0  0  0  0  0  0  0  0
   -1.4589    2.3647    0.5537 H   0  0  0  0  0  0  0  0  0  0  0  0
    0.8051   -0.8073    0.4006 H   0  0  0  0  0  0  0  0  0  0  0  0
    0.0051   -1.9021   -0.7026 H   0  0  0  0  0  0  0  0  0  0  0  0
    1.3529   -0.8758   -1.3052 H   0  0  0  0  0  0  0  0  0  0  0  0
  1 11  1  0  0  0  0
  1 10  1  0  0  0  0
  2 13  1  6  0  0  0
  2  3  1  0  0  0  0
  2  1  1  0  0  0  0
  3 14  1  1  0  0  0
  4  3  1  0  0  0  0
  5 15  1  6  0  0  0
  5  6  1  0  0  0  0
  5  4  1  0  0  0  0
  6 16  1  6  0  0  0
  6  2  1  0  0  0  0
  6  3  1  0  0  0  0
  7  8  1  0  0  0  0
  7  5  1  0  0  0  0
  8 17  1  0  0  0  0
  9  7  2  0  0  0  0
 12  1  1  0  0  0  0
 18  8  1  0  0  0  0
 19  8  1  0  0  0  0
M TOR 0 0 1 2 3
M TOR 1 0 1 2 5
M TOR 2 0 1 2 13
M TOR 3 0 1 5 4
M TOR 4 0 1 5 15
M TOR 5 1 2 3 4
M TOR 6 1 2 5 4
M TOR 7 1 2 5 15
M TOR 8 1 5 2 3
M TOR 9 1 5 2 13
M TOR 10 1 5 4 3
M TOR 11 1 5 4 6
M TOR 12 1 5 4 14
M TOR 13 2 1 0 9
M TOR 14 2 1 0 10
M TOR 15 2 1 0 11
M TOR 16 2 3 4 5
M TOR 17 2 3 4 6
M TOR 18 2 3 4 14
M TOR 19 2 5 1 12
M TOR 20 2 5 4 6
M TOR 21 2 5 4 14
M TOR 22 3 2 1 12
M TOR 23 3 2 5 15
M TOR 24 3 4 5 15
M TOR 25 3 4 6 7
M TOR 26 3 4 6 8
M TOR 27 4 3 2 13
M TOR 28 4 5 1 12
M TOR 29 4 5 2 13
M TOR 30 4 6 7 16
M TOR 31 4 6 7 17
M TOR 32 4 6 7 18
M TOR 33 5 1 0 9
M TOR 34 5 1 0 10
M TOR 35 5 1 0 11
M TOR 36 5 4 6 7
M TOR 37 5 4 6 8
M TOR 38 6 4 5 15
M TOR 39 7 6 4 14
M TOR 40 8 6 4 14
M TOR 41 8 6 7 16
M TOR 42 8 6 7 17
M TOR 43 8 6 7 18
M  END
$$$$
