
     RDKit          3D

 19 20  0  0  0  0  0  0  0  0999 V2000
    1.1998   -0.0469   -0.2630 C   0  0  0  0  0  0  0  0  0  0  0  0
   -0.1895   -0.2777   -0.1084 O   0  0  0  0  0  0  0  0  0  0  0  0
   -0.7083    0.2151    1.1089 C   0  0  0  0  0  0  0  0  0  0  0  0
   -2.2481   -0.0108    1.2485 C   0  0  0  0  0  0  0  0  0  0  0  0
   -2.4687    0.6454    2.5991 C   0  0  0  0  0  0  0  0  0  0  0  0
   -1.7516    1.7795    2.5248 C   0  0  0  0  0  0  0  0  0  0  0  0
   -1.1466    1.7341    1.1371 C   0  0  0  0  0  0  0  0  0  0  0  0
   -2.4295    1.2644    0.3116 C   0  0  0  0  0  0  0  0  0  0  0  0
   -2.3201    1.1040   -1.0621 O   0  0  0  0  0  0  0  0  0  0  0  0
    1.7670   -0.5080    0.5580 H   0  0  0  0  0  0  0  0  0  0  0  0
    1.5012   -0.5058   -1.2069 H   0  0  0  0  0  0  0  0  0  0  0  0
    1.4362    1.0254   -0.2928 H   0  0  0  0  0  0  0  0  0  0  0  0
   -0.0845   -0.1187    1.9493 H   0  0  0  0  0  0  0  0  0  0  0  0
   -2.7092   -0.9721    1.0244 H   0  0  0  0  0  0  0  0  0  0  0  0
   -3.0903    0.2713    3.4000 H   0  0  0  0  0  0  0  0  0  0  0  0
   -1.6332    2.5690    3.2535 H   0  0  0  0  0  0  0  0  0  0  0  0
   -0.5001    2.5431    0.7981 H   0  0  0  0  0  0  0  0  0  0  0  0
   -3.3317    1.8495    0.5044 H   0  0  0  0  0  0  0  0  0  0  0  0
   -1.5437    0.5472   -1.2185 H   0  0  0  0  0  0  0  0  0  0  0  0
  1  2  1  0
  2  3  1  0
  3  4  1  0
  4  5  1  0
  5  6  2  0
  6  7  1  0
  7  8  1  0
  8  9  1  0
  7  3  1  0
  8  4  1  0
  1 10  1  0
  1 11  1  0
  1 12  1  0
  3 13  1  0
  4 14  1  0
  5 15  1  0
  6 16  1  0
  7 17  1  0
  8 18  1  0
  9 19  1  0
M  END
$$$$
