gdb 5365	3.5219931	1.0778518	1.0138838	0.9189	76.7	-0.24102	0.00198	0.24300000000000002	1241.1692	0.158238	-422.547664	-422.539424	-422.53848	-422.581078	30.774
 OpenBabel02181911423D

 19 20  0  0  1  0  0  0  0  0999 V2000
    0.9647   -0.8887    0.5145 O   0  0  0  0  0  0  0  0  0  0  0  0
    0.7080    0.5109    0.6114 C   0  0  0  0  0  0  0  0  0  0  0  0
   -0.7494    0.8041    0.8125 C   0  0  0  0  0  0  0  0  0  0  0  0
   -1.2921    1.4687    1.8380 C   0  0  0  0  0  0  0  0  0  0  0  0
   -2.7901    1.5357    1.7444 C   0  0  2  0  0  0  0  0  0  0  0  0
   -3.4737    0.5943    2.6187 O   0  0  0  0  0  0  0  0  0  0  0  0
   -3.7204   -0.3015    1.5131 C   0  0  0  0  0  0  0  0  0  0  0  0
   -3.1273    0.6906    0.4873 C   0  0  2  0  0  0  0  0  0  0  0  0
   -1.7920    0.3204   -0.1802 C   0  0  0  0  0  0  0  0  0  0  0  0
    0.6810   -1.2872    1.3442 H   0  0  0  0  0  0  0  0  0  0  0  0
    1.3035    0.9765    1.4104 H   0  0  0  0  0  0  0  0  0  0  0  0
    1.0540    0.9290   -0.3419 H   0  0  0  0  0  0  0  0  0  0  0  0
   -0.7356    1.8988    2.6642 H   0  0  0  0  0  0  0  0  0  0  0  0
   -3.2089    2.5417    1.8605 H   0  0  0  0  0  0  0  0  0  0  0  0
   -3.1685   -1.2464    1.6127 H   0  0  0  0  0  0  0  0  0  0  0  0
   -4.7885   -0.5248    1.4077 H   0  0  0  0  0  0  0  0  0  0  0  0
   -3.8609    1.1097   -0.2012 H   0  0  0  0  0  0  0  0  0  0  0  0
   -1.6923   -0.7541   -0.3728 H   0  0  0  0  0  0  0  0  0  0  0  0
   -1.6644    0.8163   -1.1519 H   0  0  0  0  0  0  0  0  0  0  0  0
  1  2  1  0  0  0  0
  1 10  1  0  0  0  0
  2  3  1  0  0  0  0
  2 11  1  0  0  0  0
  3  4  2  0  0  0  0
  4 13  1  0  0  0  0
  5  4  1  0  0  0  0
  5 14  1  6  0  0  0
  5  6  1  0  0  0  0
  7 15  1  0  0  0  0
  7  6  1  0  0  0  0
  8 17  1  6  0  0  0
  8  7  1  0  0  0  0
  8  5  1  0  0  0  0
  9  8  1  0  0  0  0
  9  3  1  0  0  0  0
 12  2  1  0  0  0  0
 16  7  1  0  0  0  0
 18  9  1  0  0  0  0
 19  9  1  0  0  0  0
M TOR 0 0 1 2 3
M TOR 1 0 1 2 8
M TOR 2 1 2 3 4
M TOR 3 1 2 3 12
M TOR 4 1 2 8 7
M TOR 5 1 2 8 17
M TOR 6 1 2 8 18
M TOR 7 2 1 0 9
M TOR 8 2 3 4 5
M TOR 9 2 3 4 7
M TOR 10 2 3 4 13
M TOR 11 2 8 7 4
M TOR 12 2 8 7 6
M TOR 13 2 8 7 16
M TOR 14 3 2 1 10
M TOR 15 3 2 1 11
M TOR 16 3 2 8 7
M TOR 17 3 2 8 17
M TOR 18 3 2 8 18
M TOR 19 3 4 5 6
M TOR 20 3 4 7 6
M TOR 21 3 4 7 8
M TOR 22 3 4 7 16
M TOR 23 4 3 2 8
M TOR 24 4 5 6 7
M TOR 25 4 5 6 14
M TOR 26 4 5 6 15
M TOR 27 4 7 6 14
M TOR 28 4 7 6 15
M TOR 29 4 7 8 17
M TOR 30 4 7 8 18
M TOR 31 5 4 3 12
M TOR 32 5 4 7 8
M TOR 33 5 4 7 16
M TOR 34 5 6 7 8
M TOR 35 5 6 7 16
M TOR 36 6 5 4 13
M TOR 37 6 7 4 13
M TOR 38 6 7 8 17
M TOR 39 6 7 8 18
M TOR 40 7 4 3 12
M TOR 41 8 2 1 10
M TOR 42 8 2 1 11
M TOR 43 8 2 3 12
M TOR 44 8 7 4 13
M TOR 45 8 7 6 14
M TOR 46 8 7 6 15
M  END
$$$$
