gdb 4874	3.7239332	0.7924893	0.762932	2.0547	78.13	-0.25683	0.04638	0.30321	1551.5371	0.152835	-422.504846	-422.494308	-422.493364	-422.541022	37.318
 OpenBabel02181911413D

 19 19  0  0  1  0  0  0  0  0999 V2000
    5.2549    0.5799    1.2991 C   0  0  0  0  0  0  0  0  0  0  0  0
    4.3920    1.5460    0.5190 C   0  0  2  0  0  0  0  0  0  0  0  0
    5.1609    2.6081   -0.2563 C   0  0  0  0  0  0  0  0  0  0  0  0
    6.0231    2.0535   -1.2394 O   0  0  0  0  0  0  0  0  0  0  0  0
    3.2453    2.0807    1.2031 O   0  0  0  0  0  0  0  0  0  0  0  0
    3.0240    1.2279    0.0754 C   0  0  2  0  0  0  0  0  0  0  0  0
    2.3188   -0.0963    0.3241 C   0  0  0  0  0  0  0  0  0  0  0  0
    0.8667    0.0480    0.3476 C   0  0  0  0  0  0  0  0  0  0  0  0
   -0.3267    0.1860    0.3533 C   0  0  0  0  0  0  0  0  0  0  0  0
    4.6619   -0.1219    1.8866 H   0  0  0  0  0  0  0  0  0  0  0  0
    5.8946    0.0068    0.6198 H   0  0  0  0  0  0  0  0  0  0  0  0
    5.9006    1.1306    1.9931 H   0  0  0  0  0  0  0  0  0  0  0  0
    4.4497    3.2509   -0.7827 H   0  0  0  0  0  0  0  0  0  0  0  0
    5.7123    3.2422    0.4547 H   0  0  0  0  0  0  0  0  0  0  0  0
    6.8268    1.7572   -0.8031 H   0  0  0  0  0  0  0  0  0  0  0  0
    2.6551    1.7514   -0.8082 H   0  0  0  0  0  0  0  0  0  0  0  0
    2.6046   -0.7979   -0.4714 H   0  0  0  0  0  0  0  0  0  0  0  0
    2.6606   -0.5297    1.2686 H   0  0  0  0  0  0  0  0  0  0  0  0
   -1.3818    0.3036    0.3690 H   0  0  0  0  0  0  0  0  0  0  0  0
  1 10  1  0  0  0  0
  1 12  1  0  0  0  0
  2  3  1  6  0  0  0
  2  5  1  0  0  0  0
  2  1  1  0  0  0  0
  3 14  1  0  0  0  0
  4 15  1  0  0  0  0
  4  3  1  0  0  0  0
  6 16  1  6  0  0  0
  6  7  1  0  0  0  0
  6  2  1  0  0  0  0
  6  5  1  0  0  0  0
  7  8  1  0  0  0  0
  7 18  1  0  0  0  0
  8  9  3  0  0  0  0
  9 19  1  0  0  0  0
 11  1  1  0  0  0  0
 13  3  1  0  0  0  0
 17  7  1  0  0  0  0
M TOR 0 0 1 2 3
M TOR 1 0 1 2 12
M TOR 2 0 1 2 13
M TOR 3 0 1 4 5
M TOR 4 0 1 5 6
M TOR 5 0 1 5 15
M TOR 6 1 2 3 14
M TOR 7 1 4 5 6
M TOR 8 1 4 5 15
M TOR 9 1 5 6 7
M TOR 10 1 5 6 16
M TOR 11 1 5 6 17
M TOR 12 2 1 0 9
M TOR 13 2 1 0 10
M TOR 14 2 1 0 11
M TOR 15 2 1 4 5
M TOR 16 2 1 5 6
M TOR 17 2 1 5 15
M TOR 18 3 2 1 4
M TOR 19 3 2 1 5
M TOR 20 4 1 0 9
M TOR 21 4 1 0 10
M TOR 22 4 1 0 11
M TOR 23 4 1 2 12
M TOR 24 4 1 2 13
M TOR 25 4 5 6 7
M TOR 26 4 5 6 16
M TOR 27 4 5 6 17
M TOR 28 5 1 0 9
M TOR 29 5 1 0 10
M TOR 30 5 1 0 11
M TOR 31 5 1 2 12
M TOR 32 5 1 2 13
M TOR 33 5 6 7 8
M TOR 34 6 7 8 18
M TOR 35 7 6 5 15
M TOR 36 8 7 6 16
M TOR 37 8 7 6 17
M  END
$$$$
