
     RDKit          3D

 19 19  0  0  0  0  0  0  0  0999 V2000
   -1.6025    3.9695    1.0047 C   0  0  0  0  0  0  0  0  0  0  0  0
   -0.8292    3.5266   -0.2246 C   0  0  0  0  0  0  0  0  0  0  0  0
   -1.2913    3.9983   -1.6318 C   0  0  0  0  0  0  0  0  0  0  0  0
   -1.0215    2.5745   -2.1826 C   0  0  0  0  0  0  0  0  0  0  0  0
   -1.0116    2.0387   -0.7319 C   0  0  0  0  0  0  0  0  0  0  0  0
    0.0751    1.0877   -0.3353 C   0  0  0  0  0  0  0  0  0  0  0  0
    1.0613    0.8400   -0.9947 O   0  0  0  0  0  0  0  0  0  0  0  0
   -0.0394    0.4152    1.0418 C   0  0  0  0  0  0  0  0  0  0  0  0
   -0.9430    0.6126    1.8117 O   0  0  0  0  0  0  0  0  0  0  0  0
   -1.2852    3.4201    1.8961 H   0  0  0  0  0  0  0  0  0  0  0  0
   -1.4555    5.0391    1.1920 H   0  0  0  0  0  0  0  0  0  0  0  0
   -2.6764    3.7965    0.8740 H   0  0  0  0  0  0  0  0  0  0  0  0
    0.2400    3.7309   -0.0982 H   0  0  0  0  0  0  0  0  0  0  0  0
   -2.3585    4.2417   -1.6331 H   0  0  0  0  0  0  0  0  0  0  0  0
   -0.7450    4.8290   -2.0842 H   0  0  0  0  0  0  0  0  0  0  0  0
   -1.7621    2.1455   -2.8603 H   0  0  0  0  0  0  0  0  0  0  0  0
   -0.0307    2.4756   -2.6315 H   0  0  0  0  0  0  0  0  0  0  0  0
   -1.9794    1.6584   -0.3941 H   0  0  0  0  0  0  0  0  0  0  0  0
    0.8073   -0.2716    1.2548 H   0  0  0  0  0  0  0  0  0  0  0  0
  1  2  1  0
  2  3  1  0
  3  4  1  0
  4  5  1  0
  5  6  1  0
  6  7  2  0
  6  8  1  0
  8  9  2  0
  5  2  1  0
  1 10  1  0
  1 11  1  0
  1 12  1  0
  2 13  1  0
  3 14  1  0
  3 15  1  0
  4 16  1  0
  4 17  1  0
  5 18  1  0
  8 19  1  0
M  END
$$$$
