
     RDKit          3D

 19 20  0  0  0  0  0  0  0  0999 V2000
    1.2098    0.0076   -0.1867 O   0  0  0  0  0  0  0  0  0  0  0  0
    0.0066    0.0156   -0.0827 C   0  0  0  0  0  0  0  0  0  0  0  0
   -0.8170    1.2923    0.0058 C   0  0  0  0  0  0  0  0  0  0  0  0
   -1.8586    1.1884    1.1346 C   0  0  0  0  0  0  0  0  0  0  0  0
   -2.6455    0.0139    1.0037 O   0  0  0  0  0  0  0  0  0  0  0  0
   -1.8675   -1.1506    1.0934 C   0  0  0  0  0  0  0  0  0  0  0  0
   -1.5568   -1.6707    2.4776 C   0  0  0  0  0  0  0  0  0  0  0  0
   -2.5885   -2.3557    1.5970 C   0  0  0  0  0  0  0  0  0  0  0  0
   -0.8331   -1.2553   -0.0201 C   0  0  0  0  0  0  0  0  0  0  0  0
   -0.1510    2.1472    0.1465 H   0  0  0  0  0  0  0  0  0  0  0  0
   -1.3489    1.4179   -0.9464 H   0  0  0  0  0  0  0  0  0  0  0  0
   -1.3526    1.1987    2.1119 H   0  0  0  0  0  0  0  0  0  0  0  0
   -2.5540    2.0309    1.1009 H   0  0  0  0  0  0  0  0  0  0  0  0
   -0.6085   -2.1676    2.6512 H   0  0  0  0  0  0  0  0  0  0  0  0
   -1.9315   -1.0950    3.3164 H   0  0  0  0  0  0  0  0  0  0  0  0
   -2.3461   -3.3196    1.1632 H   0  0  0  0  0  0  0  0  0  0  0  0
   -3.6315   -2.2196    1.8584 H   0  0  0  0  0  0  0  0  0  0  0  0
   -0.1751   -2.1175    0.1076 H   0  0  0  0  0  0  0  0  0  0  0  0
   -1.3605   -1.3608   -0.9787 H   0  0  0  0  0  0  0  0  0  0  0  0
  1  2  2  0
  2  3  1  0
  3  4  1  0
  4  5  1  0
  5  6  1  0
  6  7  1  0
  7  8  1  0
  6  9  1  0
  9  2  1  0
  8  6  1  0
  3 10  1  0
  3 11  1  0
  4 12  1  0
  4 13  1  0
  7 14  1  0
  7 15  1  0
  8 16  1  0
  8 17  1  0
  9 18  1  0
  9 19  1  0
M  END
$$$$
