
     RDKit          3D

 19 21  0  0  0  0  0  0  0  0999 V2000
    0.5072    0.8749   -0.0594 C   0  0  0  0  0  0  0  0  0  0  0  0
    0.9122   -0.5876    0.0246 C   0  0  0  0  0  0  0  0  0  0  0  0
    2.0216   -1.2216   -0.8636 C   0  0  0  0  0  0  0  0  0  0  0  0
    2.0987   -2.3349    0.1117 O   0  0  0  0  0  0  0  0  0  0  0  0
    2.0533   -1.1054    0.9619 C   0  0  0  0  0  0  0  0  0  0  0  0
    2.1124   -1.2635    2.4465 C   0  0  0  0  0  0  0  0  0  0  0  0
    3.0787   -0.5015   -0.0203 C   0  0  0  0  0  0  0  0  0  0  0  0
    3.9654    0.6507   -0.1055 C   0  0  0  0  0  0  0  0  0  0  0  0
    4.4581   -0.7081   -0.0213 O   0  0  0  0  0  0  0  0  0  0  0  0
   -0.0912    1.1572    0.8135 H   0  0  0  0  0  0  0  0  0  0  0  0
    1.3662    1.5480   -0.1088 H   0  0  0  0  0  0  0  0  0  0  0  0
   -0.1094    1.0517   -0.9471 H   0  0  0  0  0  0  0  0  0  0  0  0
    0.0521   -1.2597    0.0797 H   0  0  0  0  0  0  0  0  0  0  0  0
    2.0132   -1.4769   -1.9226 H   0  0  0  0  0  0  0  0  0  0  0  0
    1.3040   -1.9120    2.7965 H   0  0  0  0  0  0  0  0  0  0  0  0
    3.0691   -1.7042    2.7419 H   0  0  0  0  0  0  0  0  0  0  0  0
    2.0124   -0.2897    2.9366 H   0  0  0  0  0  0  0  0  0  0  0  0
    4.1338    1.1441   -1.0617 H   0  0  0  0  0  0  0  0  0  0  0  0
    4.1540    1.2657    0.7734 H   0  0  0  0  0  0  0  0  0  0  0  0
  1  2  1  0
  2  3  1  0
  3  4  1  0
  4  5  1  0
  5  6  1  0
  5  7  1  0
  7  8  1  0
  8  9  1  0
  5  2  1  0
  9  7  1  0
  7  3  1  0
  1 10  1  0
  1 11  1  0
  1 12  1  0
  2 13  1  0
  3 14  1  0
  6 15  1  0
  6 16  1  0
  6 17  1  0
  8 18  1  0
  8 19  1  0
M  END
$$$$
