
     RDKit          3D

 19 21  0  0  0  0  0  0  0  0999 V2000
    3.1327    0.3137   -1.9524 C   0  0  0  0  0  0  0  0  0  0  0  0
    2.4807   -0.1134   -0.6649 C   0  0  0  0  0  0  0  0  0  0  0  0
    1.4280   -1.0246   -0.7937 O   0  0  0  0  0  0  0  0  0  0  0  0
    0.1665   -0.6697   -0.2683 C   0  0  0  0  0  0  0  0  0  0  0  0
   -0.4434    0.5911   -0.9330 C   0  0  0  0  0  0  0  0  0  0  0  0
    0.0352    1.9486   -0.3798 C   0  0  0  0  0  0  0  0  0  0  0  0
    1.0233    1.8741   -1.5626 C   0  0  0  0  0  0  0  0  0  0  0  0
    0.1978    0.8672   -2.2026 O   0  0  0  0  0  0  0  0  0  0  0  0
    2.3631    1.3217   -1.1349 C   0  0  0  0  0  0  0  0  0  0  0  0
    4.2125    0.3932   -2.0084 H   0  0  0  0  0  0  0  0  0  0  0  0
    2.6396   -0.0567   -2.8441 H   0  0  0  0  0  0  0  0  0  0  0  0
    3.1135   -0.3027    0.2024 H   0  0  0  0  0  0  0  0  0  0  0  0
   -0.4658   -1.5398   -0.4695 H   0  0  0  0  0  0  0  0  0  0  0  0
    0.1979   -0.5250    0.8246 H   0  0  0  0  0  0  0  0  0  0  0  0
   -1.5258    0.4678   -1.0439 H   0  0  0  0  0  0  0  0  0  0  0  0
   -0.7141    2.7344   -0.4925 H   0  0  0  0  0  0  0  0  0  0  0  0
    0.4563    1.9725    0.6278 H   0  0  0  0  0  0  0  0  0  0  0  0
    1.1308    2.7617   -2.1951 H   0  0  0  0  0  0  0  0  0  0  0  0
    2.9526    2.0413   -0.5696 H   0  0  0  0  0  0  0  0  0  0  0  0
  1  2  1  0
  2  3  1  0
  3  4  1  0
  4  5  1  0
  5  6  1  0
  6  7  1  0
  7  8  1  0
  7  9  1  0
  9  1  1  0
  9  2  1  0
  8  5  1  0
  1 10  1  0
  1 11  1  0
  2 12  1  0
  4 13  1  0
  4 14  1  0
  5 15  1  0
  6 16  1  0
  6 17  1  0
  7 18  1  0
  9 19  1  0
M  END
$$$$
