gdb 3458	2.6232285	1.3156584	0.9890921	2.2308	77.25	-0.24586	-0.03203	0.21383	1224.9351	0.155491	-422.583537	-422.574391	-422.573447	-422.617651	33.624
 OpenBabel02181911413D

 19 19  0  0  1  0  0  0  0  0999 V2000
    0.9213    1.1648    0.1806 C   0  0  0  0  0  0  0  0  0  0  0  0
    1.2521   -0.3203    0.0205 C   0  0  1  0  0  0  0  0  0  0  0  0
    1.9937   -0.6958   -1.2465 C   0  0  0  0  0  0  0  0  0  0  0  0
    2.9186   -1.6331   -1.0374 C   0  0  0  0  0  0  0  0  0  0  0  0
    2.9355   -2.0464    0.4180 C   0  0  1  0  0  0  0  0  0  0  0  0
    4.2712   -2.3549    1.0495 C   0  0  0  0  0  0  0  0  0  0  0  0
    4.5429   -2.0625    2.1898 O   0  0  0  0  0  0  0  0  0  0  0  0
    2.1940   -0.8743    1.1086 C   0  0  2  0  0  0  0  0  0  0  0  0
    1.4935   -1.2268    2.2792 O   0  0  0  0  0  0  0  0  0  0  0  0
    0.4596    1.3471    1.1556 H   0  0  0  0  0  0  0  0  0  0  0  0
    1.8258    1.7791    0.1110 H   0  0  0  0  0  0  0  0  0  0  0  0
    0.2242    1.5034   -0.5927 H   0  0  0  0  0  0  0  0  0  0  0  0
    0.3136   -0.8943    0.0735 H   0  0  0  0  0  0  0  0  0  0  0  0
    1.7569   -0.2572   -2.2101 H   0  0  0  0  0  0  0  0  0  0  0  0
    3.5521   -2.0839   -1.7937 H   0  0  0  0  0  0  0  0  0  0  0  0
    2.3405   -2.9692    0.5503 H   0  0  0  0  0  0  0  0  0  0  0  0
    5.0039   -2.9011    0.4133 H   0  0  0  0  0  0  0  0  0  0  0  0
    2.9478   -0.1026    1.3308 H   0  0  0  0  0  0  0  0  0  0  0  0
    2.1625   -1.4436    2.9391 H   0  0  0  0  0  0  0  0  0  0  0  0
  1 10  1  0  0  0  0
  2 13  1  1  0  0  0
  2  1  1  0  0  0  0
  2  8  1  0  0  0  0
  3  4  2  0  0  0  0
  3  2  1  0  0  0  0
  4  5  1  0  0  0  0
  5 16  1  1  0  0  0
  5  6  1  0  0  0  0
  5  8  1  0  0  0  0
  6  7  2  0  0  0  0
  8 18  1  1  0  0  0
  8  9  1  0  0  0  0
  9 19  1  0  0  0  0
 11  1  1  0  0  0  0
 12  1  1  0  0  0  0
 14  3  1  0  0  0  0
 15  4  1  0  0  0  0
 17  6  1  0  0  0  0
M TOR 0 0 1 2 3
M TOR 1 0 1 2 13
M TOR 2 0 1 7 4
M TOR 3 0 1 7 8
M TOR 4 0 1 7 17
M TOR 5 1 2 3 4
M TOR 6 1 2 3 14
M TOR 7 1 7 4 3
M TOR 8 1 7 4 5
M TOR 9 1 7 4 15
M TOR 10 1 7 8 18
M TOR 11 2 1 0 9
M TOR 12 2 1 0 10
M TOR 13 2 1 0 11
M TOR 14 2 1 7 4
M TOR 15 2 1 7 8
M TOR 16 2 1 7 17
M TOR 17 2 3 4 5
M TOR 18 2 3 4 7
M TOR 19 2 3 4 15
M TOR 20 3 2 1 7
M TOR 21 3 2 1 12
M TOR 22 3 4 5 6
M TOR 23 3 4 5 16
M TOR 24 3 4 7 8
M TOR 25 3 4 7 17
M TOR 26 4 3 2 13
M TOR 27 4 7 1 12
M TOR 28 4 7 8 18
M TOR 29 5 4 3 14
M TOR 30 5 4 7 8
M TOR 31 5 4 7 17
M TOR 32 6 5 4 7
M TOR 33 6 5 4 15
M TOR 34 7 1 0 9
M TOR 35 7 1 0 10
M TOR 36 7 1 0 11
M TOR 37 7 1 2 13
M TOR 38 7 4 3 14
M TOR 39 7 4 5 16
M TOR 40 8 7 1 12
M TOR 41 8 7 4 15
M  END
$$$$
