
     RDKit          3D

 19 20  0  0  0  0  0  0  0  0999 V2000
    0.2719   -0.1027    0.4714 O   0  0  0  0  0  0  0  0  0  0  0  0
   -0.4681    0.9361    1.0993 C   0  0  0  0  0  0  0  0  0  0  0  0
   -1.4776    0.4047    2.1423 C   0  0  0  0  0  0  0  0  0  0  0  0
   -2.7261   -0.0143    1.5906 O   0  0  0  0  0  0  0  0  0  0  0  0
   -3.2798    0.9000    0.6213 C   0  0  0  0  0  0  0  0  0  0  0  0
   -2.3226    0.9669   -0.5766 C   0  0  0  0  0  0  0  0  0  0  0  0
   -1.2060    1.8255    0.0586 C   0  0  0  0  0  0  0  0  0  0  0  0
   -2.0466    2.8644    0.7947 C   0  0  0  0  0  0  0  0  0  0  0  0
   -3.2345    2.3441    1.1108 C   0  0  0  0  0  0  0  0  0  0  0  0
   -0.3515   -0.7783    0.1852 H   0  0  0  0  0  0  0  0  0  0  0  0
    0.2824    1.5317    1.6319 H   0  0  0  0  0  0  0  0  0  0  0  0
   -1.0553   -0.4772    2.6326 H   0  0  0  0  0  0  0  0  0  0  0  0
   -1.6369    1.1733    2.9092 H   0  0  0  0  0  0  0  0  0  0  0  0
   -4.2760    0.5115    0.4035 H   0  0  0  0  0  0  0  0  0  0  0  0
   -2.0048   -0.0237   -0.9127 H   0  0  0  0  0  0  0  0  0  0  0  0
   -2.7790    1.4908   -1.4210 H   0  0  0  0  0  0  0  0  0  0  0  0
   -0.4873    2.2367   -0.6537 H   0  0  0  0  0  0  0  0  0  0  0  0
   -1.6784    3.8450    1.0740 H   0  0  0  0  0  0  0  0  0  0  0  0
   -4.0107    2.8081    1.7066 H   0  0  0  0  0  0  0  0  0  0  0  0
  1  2  1  0
  2  3  1  0
  3  4  1  0
  4  5  1  0
  5  6  1  0
  6  7  1  0
  7  8  1  0
  8  9  2  0
  7  2  1  0
  9  5  1  0
  1 10  1  0
  2 11  1  0
  3 12  1  0
  3 13  1  0
  5 14  1  0
  6 15  1  0
  6 16  1  0
  7 17  1  0
  8 18  1  0
  9 19  1  0
M  END
$$$$
