
     RDKit          3D

 19 21  0  0  0  0  0  0  0  0999 V2000
   -0.2064   -0.1694    0.0677 C   0  0  0  0  0  0  0  0  0  0  0  0
    1.2868   -0.0061   -0.1088 C   0  0  0  0  0  0  0  0  0  0  0  0
    1.9989   -0.5912    0.9662 O   0  0  0  0  0  0  0  0  0  0  0  0
    2.0697    1.1987   -0.5510 C   0  0  0  0  0  0  0  0  0  0  0  0
    1.5380    1.9436   -1.8068 C   0  0  0  0  0  0  0  0  0  0  0  0
    0.3323    1.3306   -2.2972 O   0  0  0  0  0  0  0  0  0  0  0  0
    1.5995    0.7252   -2.6147 C   0  0  0  0  0  0  0  0  0  0  0  0
    1.9200    0.4453   -4.0444 C   0  0  0  0  0  0  0  0  0  0  0  0
    2.1119   -0.0960   -1.3858 C   0  0  0  0  0  0  0  0  0  0  0  0
   -0.5016    0.2581    1.0317 H   0  0  0  0  0  0  0  0  0  0  0  0
   -0.7707    0.3026   -0.7304 H   0  0  0  0  0  0  0  0  0  0  0  0
   -0.4563   -1.2390    0.0871 H   0  0  0  0  0  0  0  0  0  0  0  0
    1.7300   -1.5154    1.0150 H   0  0  0  0  0  0  0  0  0  0  0  0
    2.8569    1.5945    0.0773 H   0  0  0  0  0  0  0  0  0  0  0  0
    1.6969    2.9879   -2.0511 H   0  0  0  0  0  0  0  0  0  0  0  0
    1.4113   -0.4639   -4.3855 H   0  0  0  0  0  0  0  0  0  0  0  0
    1.5970    1.2777   -4.6751 H   0  0  0  0  0  0  0  0  0  0  0  0
    2.9967    0.2973   -4.1777 H   0  0  0  0  0  0  0  0  0  0  0  0
    2.9368   -0.7946   -1.4493 H   0  0  0  0  0  0  0  0  0  0  0  0
  1  2  1  0
  2  3  1  0
  2  4  1  0
  4  5  1  0
  5  6  1  0
  6  7  1  0
  7  8  1  0
  7  9  1  0
  9  2  1  0
  9  4  1  0
  7  5  1  0
  1 10  1  0
  1 11  1  0
  1 12  1  0
  3 13  1  0
  4 14  1  0
  5 15  1  0
  8 16  1  0
  8 17  1  0
  8 18  1  0
  9 19  1  0
M  END
$$$$
