
     RDKit          3D

 19 19  0  0  0  0  0  0  0  0999 V2000
   -0.7699    4.4599    2.8049 C   0  0  0  0  0  0  0  0  0  0  0  0
   -1.3573    3.6184    1.6837 C   0  0  0  0  0  0  0  0  0  0  0  0
   -1.2401    2.0709    1.7729 C   0  0  0  0  0  0  0  0  0  0  0  0
   -0.9426    2.0502    0.2282 C   0  0  0  0  0  0  0  0  0  0  0  0
   -0.6152    3.5596    0.3187 C   0  0  0  0  0  0  0  0  0  0  0  0
    0.1443    1.1099   -0.1961 C   0  0  0  0  0  0  0  0  0  0  0  0
    1.3258    1.3765   -0.2268 O   0  0  0  0  0  0  0  0  0  0  0  0
   -0.2699   -0.3206   -0.5769 C   0  0  0  0  0  0  0  0  0  0  0  0
   -1.4113   -0.6985   -0.6136 O   0  0  0  0  0  0  0  0  0  0  0  0
    0.2790    4.1975    2.9830 H   0  0  0  0  0  0  0  0  0  0  0  0
   -0.8098    5.5273    2.5611 H   0  0  0  0  0  0  0  0  0  0  0  0
   -1.3166    4.3124    3.7431 H   0  0  0  0  0  0  0  0  0  0  0  0
   -2.4057    3.8922    1.5204 H   0  0  0  0  0  0  0  0  0  0  0  0
   -0.3597    1.7699    2.3497 H   0  0  0  0  0  0  0  0  0  0  0  0
   -2.1051    1.5003    2.1153 H   0  0  0  0  0  0  0  0  0  0  0  0
   -1.8581    1.8280   -0.3237 H   0  0  0  0  0  0  0  0  0  0  0  0
    0.4630    3.7052    0.4323 H   0  0  0  0  0  0  0  0  0  0  0  0
   -0.9784    4.1976   -0.4899 H   0  0  0  0  0  0  0  0  0  0  0  0
    0.5990   -0.9681   -0.8215 H   0  0  0  0  0  0  0  0  0  0  0  0
  1  2  1  0
  2  3  1  0
  3  4  1  0
  4  5  1  0
  4  6  1  0
  6  7  2  0
  6  8  1  0
  8  9  2  0
  5  2  1  0
  1 10  1  0
  1 11  1  0
  1 12  1  0
  2 13  1  0
  3 14  1  0
  3 15  1  0
  4 16  1  0
  5 17  1  0
  5 18  1  0
  8 19  1  0
M  END
$$$$
