gdb 1838	2.3364803	1.8539852	1.4861399	2.8689	74.63	-0.2473	0.07059	0.31789	977.8034	0.157488	-422.527257	-422.519399	-422.518455	-422.55903	31.304
 OpenBabel02181911403D

 19 21  0  0  1  0  0  0  0  0999 V2000
   -1.5068   -1.1777    0.2139 O   0  0  0  0  0  0  0  0  0  0  0  0
   -0.9002   -0.1738    0.9537 C   0  0  2  0  0  0  0  0  0  0  0  0
   -0.0069   -0.4271    2.2218 C   0  0  0  0  0  0  0  0  0  0  0  0
    0.5913    0.9594    1.8275 C   0  0  2  0  0  0  0  0  0  0  0  0
   -0.6088    1.9062    2.0510 C   0  0  0  0  0  0  0  0  0  0  0  0
   -1.7381    1.0497    1.3854 C   0  0  0  0  0  0  0  0  0  0  0  0
    0.3488    0.5099    0.3782 C   0  0  2  0  0  0  0  0  0  0  0  0
    0.7060    1.0057   -0.9437 C   0  0  0  0  0  0  0  0  0  0  0  0
    1.3084   -0.1842   -0.3832 O   0  0  0  0  0  0  0  0  0  0  0  0
   -2.3385   -1.4135    0.6382 H   0  0  0  0  0  0  0  0  0  0  0  0
   -0.5028   -0.5082    3.1937 H   0  0  0  0  0  0  0  0  0  0  0  0
    0.6919   -1.2493    2.0632 H   0  0  0  0  0  0  0  0  0  0  0  0
    1.5761    1.2781    2.1629 H   0  0  0  0  0  0  0  0  0  0  0  0
   -0.7929    2.0889    3.1131 H   0  0  0  0  0  0  0  0  0  0  0  0
   -0.4749    2.8735    1.5594 H   0  0  0  0  0  0  0  0  0  0  0  0
   -2.5305    0.7712    2.0886 H   0  0  0  0  0  0  0  0  0  0  0  0
   -2.2023    1.5433    0.5269 H   0  0  0  0  0  0  0  0  0  0  0  0
    0.0416    0.8261   -1.7875 H   0  0  0  0  0  0  0  0  0  0  0  0
    1.3778    1.8565   -1.0497 H   0  0  0  0  0  0  0  0  0  0  0  0
  1 10  1  0  0  0  0
  2  1  1  6  0  0  0
  2  6  1  0  0  0  0
  2  3  1  0  0  0  0
  3 11  1  0  0  0  0
  4  5  1  0  0  0  0
  4 13  1  1  0  0  0
  4  3  1  0  0  0  0
  5 14  1  0  0  0  0
  6  5  1  0  0  0  0
  6 16  1  0  0  0  0
  7  9  1  1  0  0  0
  7  2  1  0  0  0  0
  7  4  1  0  0  0  0
  8  9  1  0  0  0  0
  8  7  1  0  0  0  0
 12  3  1  0  0  0  0
 15  5  1  0  0  0  0
 17  6  1  0  0  0  0
 18  8  1  0  0  0  0
 19  8  1  0  0  0  0
M TOR 0 0 1 2 3
M TOR 1 0 1 2 10
M TOR 2 0 1 2 11
M TOR 3 0 1 5 4
M TOR 4 0 1 5 15
M TOR 5 0 1 5 16
M TOR 6 0 1 6 3
M TOR 7 0 1 6 7
M TOR 8 0 1 6 8
M TOR 9 1 2 3 4
M TOR 10 1 2 3 6
M TOR 11 1 2 3 12
M TOR 12 1 5 4 3
M TOR 13 1 5 4 13
M TOR 14 1 5 4 14
M TOR 15 1 6 3 4
M TOR 16 1 6 3 12
M TOR 17 1 6 7 8
M TOR 18 1 6 7 17
M TOR 19 1 6 7 18
M TOR 20 2 1 0 9
M TOR 21 2 1 5 4
M TOR 22 2 1 5 15
M TOR 23 2 1 5 16
M TOR 24 2 1 6 7
M TOR 25 2 1 6 8
M TOR 26 2 3 4 5
M TOR 27 2 3 4 13
M TOR 28 2 3 4 14
M TOR 29 2 3 6 7
M TOR 30 2 3 6 8
M TOR 31 3 2 1 5
M TOR 32 3 4 5 15
M TOR 33 3 4 5 16
M TOR 34 3 6 1 5
M TOR 35 3 6 7 8
M TOR 36 3 6 7 17
M TOR 37 3 6 7 18
M TOR 38 4 3 2 10
M TOR 39 4 3 2 11
M TOR 40 4 3 6 7
M TOR 41 4 3 6 8
M TOR 42 4 5 1 6
M TOR 43 5 1 0 9
M TOR 44 5 1 2 10
M TOR 45 5 1 2 11
M TOR 46 5 1 6 7
M TOR 47 5 1 6 8
M TOR 48 5 4 3 6
M TOR 49 5 4 3 12
M TOR 50 6 1 0 9
M TOR 51 6 1 2 10
M TOR 52 6 1 2 11
M TOR 53 6 1 5 15
M TOR 54 6 1 5 16
M TOR 55 6 3 2 10
M TOR 56 6 3 2 11
M TOR 57 6 3 4 13
M TOR 58 6 3 4 14
M TOR 59 6 8 7 17
M TOR 60 6 8 7 18
M TOR 61 7 6 3 12
M TOR 62 8 6 3 12
M  END
$$$$
