
     RDKit          3D

 19 21  0  0  0  0  0  0  0  0999 V2000
    0.4069    0.1348    0.6376 O   0  0  0  0  0  0  0  0  0  0  0  0
   -0.8159    0.7356    0.2672 C   0  0  0  0  0  0  0  0  0  0  0  0
   -2.0752   -0.1810    0.3486 C   0  0  0  0  0  0  0  0  0  0  0  0
   -2.2905   -0.0408   -1.1781 C   0  0  0  0  0  0  0  0  0  0  0  0
   -3.0963    1.2113   -1.5968 C   0  0  0  0  0  0  0  0  0  0  0  0
   -3.1955    1.3996   -3.1187 C   0  0  0  0  0  0  0  0  0  0  0  0
   -1.9085    2.0559   -3.1794 O   0  0  0  0  0  0  0  0  0  0  0  0
   -1.7618    2.0149   -1.7475 C   0  0  0  0  0  0  0  0  0  0  0  0
   -0.9526    0.8014   -1.2723 C   0  0  0  0  0  0  0  0  0  0  0  0
    0.4102    0.0291    1.5949 H   0  0  0  0  0  0  0  0  0  0  0  0
   -0.9365    1.7121    0.7621 H   0  0  0  0  0  0  0  0  0  0  0  0
   -1.7806   -1.1960    0.6283 H   0  0  0  0  0  0  0  0  0  0  0  0
   -2.8957    0.1450    0.9957 H   0  0  0  0  0  0  0  0  0  0  0  0
   -2.4847   -0.9558   -1.7406 H   0  0  0  0  0  0  0  0  0  0  0  0
   -3.9515    1.5061   -0.9875 H   0  0  0  0  0  0  0  0  0  0  0  0
   -3.2285    0.4854   -3.7252 H   0  0  0  0  0  0  0  0  0  0  0  0
   -3.9993    2.0726   -3.4449 H   0  0  0  0  0  0  0  0  0  0  0  0
   -1.5414    2.9997   -1.3217 H   0  0  0  0  0  0  0  0  0  0  0  0
   -0.0667    0.5222   -1.8417 H   0  0  0  0  0  0  0  0  0  0  0  0
  1  2  1  0
  2  3  1  0
  3  4  1  0
  4  5  1  0
  5  6  1  0
  6  7  1  0
  7  8  1  0
  8  9  1  0
  9  2  1  0
  9  4  1  0
  8  5  1  0
  1 10  1  0
  2 11  1  0
  3 12  1  0
  3 13  1  0
  4 14  1  0
  5 15  1  0
  6 16  1  0
  6 17  1  0
  8 18  1  0
  9 19  1  0
M  END
$$$$
