gdb 2924	2.9965249	1.7300919	1.2863746	2.381	75.13	-0.23379	0.07581	0.3096	1004.3009	0.15748	-422.524843	-422.517116	-422.516172	-422.556391	31.007
 OpenBabel02181911413D

 19 21  0  0  1  0  0  0  0  0999 V2000
   -1.6940   -1.2939   -0.2332 C   0  0  0  0  0  0  0  0  0  0  0  0
   -2.0842   -0.2603    0.7887 C   0  0  2  0  0  0  0  0  0  0  0  0
   -3.4468   -0.4616    1.1628 O   0  0  0  0  0  0  0  0  0  0  0  0
   -3.6865    0.5697    2.1224 C   0  0  0  0  0  0  0  0  0  0  0  0
   -2.3292    1.2490    2.1494 C   0  0  2  0  0  0  0  0  0  0  0  0
   -1.8100    1.2823    0.6719 C   0  0  1  0  0  0  0  0  0  0  0  0
   -0.3860    1.0771    1.2493 C   0  0  2  0  0  0  0  0  0  0  0  0
    0.6344    0.4932    0.4727 O   0  0  0  0  0  0  0  0  0  0  0  0
   -1.2527    0.1118    2.0707 C   0  0  2  0  0  0  0  0  0  0  0  0
   -0.6546   -1.1696   -0.5312 H   0  0  0  0  0  0  0  0  0  0  0  0
   -1.8340   -2.2966    0.1832 H   0  0  0  0  0  0  0  0  0  0  0  0
   -2.3404   -1.2075   -1.1126 H   0  0  0  0  0  0  0  0  0  0  0  0
   -4.4949    1.2297    1.7821 H   0  0  0  0  0  0  0  0  0  0  0  0
   -3.9730    0.1347    3.0887 H   0  0  0  0  0  0  0  0  0  0  0  0
   -2.1697    2.1054    2.8049 H   0  0  0  0  0  0  0  0  0  0  0  0
   -2.1370    1.9602   -0.1191 H   0  0  0  0  0  0  0  0  0  0  0  0
    0.0004    1.9356    1.8147 H   0  0  0  0  0  0  0  0  0  0  0  0
    1.0102    1.1773   -0.0899 H   0  0  0  0  0  0  0  0  0  0  0  0
   -0.9394   -0.5506    2.8789 H   0  0  0  0  0  0  0  0  0  0  0  0
  1 11  1  0  0  0  0
  2  1  1  6  0  0  0
  2  3  1  0  0  0  0
  2  9  1  0  0  0  0
  3  4  1  0  0  0  0
  4  5  1  0  0  0  0
  4 14  1  0  0  0  0
  5 15  1  1  0  0  0
  6 16  1  6  0  0  0
  6  2  1  0  0  0  0
  6  7  1  0  0  0  0
  6  5  1  0  0  0  0
  7 17  1  1  0  0  0
  7  9  1  0  0  0  0
  8  7  1  0  0  0  0
  9  5  1  0  0  0  0
  9 19  1  1  0  0  0
 10  1  1  0  0  0  0
 12  1  1  0  0  0  0
 13  4  1  0  0  0  0
 18  8  1  0  0  0  0
M TOR 0 0 1 2 3
M TOR 1 0 1 5 4
M TOR 2 0 1 5 6
M TOR 3 0 1 5 15
M TOR 4 0 1 8 4
M TOR 5 0 1 8 6
M TOR 6 0 1 8 18
M TOR 7 1 2 3 4
M TOR 8 1 2 3 12
M TOR 9 1 2 3 13
M TOR 10 1 5 4 3
M TOR 11 1 5 4 8
M TOR 12 1 5 4 14
M TOR 13 1 5 6 7
M TOR 14 1 5 6 8
M TOR 15 1 5 6 16
M TOR 16 1 8 4 3
M TOR 17 1 8 4 14
M TOR 18 1 8 6 7
M TOR 19 1 8 6 16
M TOR 20 2 1 0 9
M TOR 21 2 1 0 10
M TOR 22 2 1 0 11
M TOR 23 2 1 5 4
M TOR 24 2 1 5 6
M TOR 25 2 1 5 15
M TOR 26 2 1 8 4
M TOR 27 2 1 8 6
M TOR 28 2 1 8 18
M TOR 29 2 3 4 5
M TOR 30 2 3 4 8
M TOR 31 2 3 4 14
M TOR 32 3 2 1 5
M TOR 33 3 2 1 8
M TOR 34 3 4 5 6
M TOR 35 3 4 5 15
M TOR 36 3 4 8 6
M TOR 37 3 4 8 18
M TOR 38 4 5 6 7
M TOR 39 4 5 6 8
M TOR 40 4 5 6 16
M TOR 41 4 8 6 7
M TOR 42 4 8 6 16
M TOR 43 5 1 0 9
M TOR 44 5 1 0 10
M TOR 45 5 1 0 11
M TOR 46 5 1 8 18
M TOR 47 5 4 3 12
M TOR 48 5 4 3 13
M TOR 49 5 4 8 18
M TOR 50 5 6 7 17
M TOR 51 5 6 8 18
M TOR 52 6 5 4 14
M TOR 53 6 8 4 14
M TOR 54 7 6 5 15
M TOR 55 7 6 8 18
M TOR 56 8 1 0 9
M TOR 57 8 1 0 10
M TOR 58 8 1 0 11
M TOR 59 8 1 5 15
M TOR 60 8 4 3 12
M TOR 61 8 4 3 13
M TOR 62 8 4 5 15
M TOR 63 8 6 5 15
M TOR 64 8 6 7 17
M  END
$$$$
