gdb 4801	1.9384468	1.2903021	0.8809853	2.9714	79.85	-0.24982	-0.06118	0.18863999999999997	1372.6037	0.152642	-422.521036	-422.510262	-422.509318	-422.557444	37.151
 OpenBabel02181911413D

 19 18  0  0  1  0  0  0  0  0999 V2000
    1.4838    2.8953    1.5351 C   0  0  0  0  0  0  0  0  0  0  0  0
    0.0561    2.4084    1.2786 C   0  0  0  0  0  0  0  0  0  0  0  0
   -0.0076    0.8973    1.0019 C   0  0  2  0  0  0  0  0  0  0  0  0
    0.7182    0.6410   -0.1667 O   0  0  0  0  0  0  0  0  0  0  0  0
    1.0146   -0.7234   -0.4006 C   0  0  0  0  0  0  0  0  0  0  0  0
   -1.4728    0.4413    0.8836 C   0  0  0  0  0  0  0  0  0  0  0  0
   -1.9681    0.0666   -0.1545 O   0  0  0  0  0  0  0  0  0  0  0  0
   -2.2340    0.4861    2.1243 C   0  0  0  0  0  0  0  0  0  0  0  0
   -2.8488    0.5154    3.1593 C   0  0  0  0  0  0  0  0  0  0  0  0
    1.9067    2.4250    2.4300 H   0  0  0  0  0  0  0  0  0  0  0  0
    2.1295    2.6535    0.6880 H   0  0  0  0  0  0  0  0  0  0  0  0
    1.5027    3.9787    1.6860 H   0  0  0  0  0  0  0  0  0  0  0  0
   -0.5860    2.6355    2.1357 H   0  0  0  0  0  0  0  0  0  0  0  0
   -0.3696    2.9227    0.4092 H   0  0  0  0  0  0  0  0  0  0  0  0
    0.4278    0.3570    1.8638 H   0  0  0  0  0  0  0  0  0  0  0  0
    1.5613   -1.1631    0.4479 H   0  0  0  0  0  0  0  0  0  0  0  0
    0.1098   -1.3116   -0.5897 H   0  0  0  0  0  0  0  0  0  0  0  0
    1.6530   -0.7586   -1.2861 H   0  0  0  0  0  0  0  0  0  0  0  0
   -3.4052    0.5375    4.0651 H   0  0  0  0  0  0  0  0  0  0  0  0
  1 12  1  0  0  0  0
  1 10  1  0  0  0  0
  2  1  1  0  0  0  0
  2 13  1  0  0  0  0
  3  2  1  0  0  0  0
  3 15  1  1  0  0  0
  4  3  1  0  0  0  0
  5  4  1  0  0  0  0
  5 16  1  0  0  0  0
  6  3  1  0  0  0  0
  6  8  1  0  0  0  0
  7  6  2  0  0  0  0
  8  9  3  0  0  0  0
  9 19  1  0  0  0  0
 11  1  1  0  0  0  0
 14  2  1  0  0  0  0
 17  5  1  0  0  0  0
 18  5  1  0  0  0  0
M TOR 0 0 1 2 3
M TOR 1 0 1 2 5
M TOR 2 0 1 2 14
M TOR 3 1 2 3 4
M TOR 4 1 2 5 6
M TOR 5 1 2 5 7
M TOR 6 2 1 0 9
M TOR 7 2 1 0 10
M TOR 8 2 1 0 11
M TOR 9 2 3 4 15
M TOR 10 2 3 4 16
M TOR 11 2 3 4 17
M TOR 12 2 5 7 8
M TOR 13 3 2 1 12
M TOR 14 3 2 1 13
M TOR 15 3 2 5 6
M TOR 16 3 2 5 7
M TOR 17 4 3 2 5
M TOR 18 4 3 2 14
M TOR 19 5 2 1 12
M TOR 20 5 2 1 13
M TOR 21 5 7 8 18
M TOR 22 6 5 2 14
M TOR 23 6 5 7 8
M TOR 24 7 5 2 14
M  END
$$$$
