gdb 2087	2.543663	1.6742291	1.2678569	2.1675	76.94	-0.2305	0.00184	0.23234000000000002	1045.5699	0.157524	-422.537357	-422.529255	-422.528311	-422.56942	32.043
 OpenBabel02181911403D

 19 20  0  0  1  0  0  0  0  0999 V2000
    0.3831    0.2456    0.6528 O   0  0  0  0  0  0  0  0  0  0  0  0
   -0.9231    0.7171    0.4133 C   0  0  1  0  0  0  0  0  0  0  0  0
   -1.9759   -0.1423    1.0585 C   0  0  0  0  0  0  0  0  0  0  0  0
   -1.7198    1.2397    1.5977 C   0  0  2  0  0  0  0  0  0  0  0  0
   -2.7551    2.1420    1.3611 O   0  0  0  0  0  0  0  0  0  0  0  0
   -2.3714    3.4803    1.1010 C   0  0  0  0  0  0  0  0  0  0  0  0
   -1.1935    3.6264    0.1110 C   0  0  0  0  0  0  0  0  0  0  0  0
   -1.2498    2.6730   -1.0593 C   0  0  0  0  0  0  0  0  0  0  0  0
   -1.1344    1.3505   -0.9175 C   0  0  0  0  0  0  0  0  0  0  0  0
    0.9892    0.9750    0.4796 H   0  0  0  0  0  0  0  0  0  0  0  0
   -2.9125   -0.2862    0.5326 H   0  0  0  0  0  0  0  0  0  0  0  0
   -1.6193   -0.9871    1.6363 H   0  0  0  0  0  0  0  0  0  0  0  0
   -1.1979    1.3386    2.5505 H   0  0  0  0  0  0  0  0  0  0  0  0
   -3.2708    3.9536    0.6949 H   0  0  0  0  0  0  0  0  0  0  0  0
   -2.1120    4.0011    2.0362 H   0  0  0  0  0  0  0  0  0  0  0  0
   -1.1746    4.6654   -0.2331 H   0  0  0  0  0  0  0  0  0  0  0  0
   -0.2572    3.4730    0.6599 H   0  0  0  0  0  0  0  0  0  0  0  0
   -1.3935    3.0951   -2.0508 H   0  0  0  0  0  0  0  0  0  0  0  0
   -1.1430    0.6953   -1.7861 H   0  0  0  0  0  0  0  0  0  0  0  0
  2  1  1  1  0  0  0
  2  3  1  0  0  0  0
  2  4  1  0  0  0  0
  3  4  1  0  0  0  0
  3 12  1  0  0  0  0
  4 13  1  1  0  0  0
  5  4  1  0  0  0  0
  6  5  1  0  0  0  0
  6 15  1  0  0  0  0
  7 17  1  0  0  0  0
  7  6  1  0  0  0  0
  8  9  2  0  0  0  0
  8  7  1  0  0  0  0
  9  2  1  0  0  0  0
 10  1  1  0  0  0  0
 11  3  1  0  0  0  0
 14  6  1  0  0  0  0
 16  7  1  0  0  0  0
 18  8  1  0  0  0  0
 19  9  1  0  0  0  0
M TOR 0 0 1 2 3
M TOR 1 0 1 2 10
M TOR 2 0 1 2 11
M TOR 3 0 1 3 4
M TOR 4 0 1 3 12
M TOR 5 0 1 8 7
M TOR 6 0 1 8 18
M TOR 7 1 2 3 4
M TOR 8 1 2 3 12
M TOR 9 1 3 2 10
M TOR 10 1 3 2 11
M TOR 11 1 3 4 5
M TOR 12 1 8 7 6
M TOR 13 1 8 7 17
M TOR 14 2 1 0 9
M TOR 15 2 1 8 7
M TOR 16 2 1 8 18
M TOR 17 2 3 1 8
M TOR 18 2 3 4 5
M TOR 19 3 1 0 9
M TOR 20 3 1 8 7
M TOR 21 3 1 8 18
M TOR 22 3 4 5 6
M TOR 23 3 4 5 13
M TOR 24 3 4 5 14
M TOR 25 4 3 1 8
M TOR 26 4 3 2 10
M TOR 27 4 3 2 11
M TOR 28 4 5 6 7
M TOR 29 4 5 6 15
M TOR 30 4 5 6 16
M TOR 31 5 4 3 12
M TOR 32 5 6 7 8
M TOR 33 5 6 7 17
M TOR 34 6 7 8 18
M TOR 35 7 6 5 13
M TOR 36 7 6 5 14
M TOR 37 8 1 0 9
M TOR 38 8 1 2 10
M TOR 39 8 1 2 11
M TOR 40 8 1 3 12
M TOR 41 8 7 6 15
M TOR 42 8 7 6 16
M  END
$$$$
