
     RDKit          3D

 19 19  0  0  0  0  0  0  0  0999 V2000
   -0.6777    1.8397   -1.2751 C   0  0  0  0  0  0  0  0  0  0  0  0
   -0.8939    1.2546    0.1408 C   0  0  0  0  0  0  0  0  0  0  0  0
   -0.5535    2.3012    1.2041 C   0  0  0  0  0  0  0  0  0  0  0  0
   -2.3227    0.6598    0.2815 C   0  0  0  0  0  0  0  0  0  0  0  0
   -2.2703   -0.7621   -0.3190 C   0  0  0  0  0  0  0  0  0  0  0  0
   -0.8508   -1.2403   -0.0600 C   0  0  0  0  0  0  0  0  0  0  0  0
   -0.4246   -2.3628   -0.0738 O   0  0  0  0  0  0  0  0  0  0  0  0
    0.0067    0.0239    0.2605 C   0  0  0  0  0  0  0  0  0  0  0  0
    1.1732   -0.0039    0.5485 O   0  0  0  0  0  0  0  0  0  0  0  0
   -0.8977    1.1142   -2.0653 H   0  0  0  0  0  0  0  0  0  0  0  0
   -1.3348    2.7032   -1.4219 H   0  0  0  0  0  0  0  0  0  0  0  0
    0.3587    2.1660   -1.4002 H   0  0  0  0  0  0  0  0  0  0  0  0
   -0.7150    1.9088    2.2131 H   0  0  0  0  0  0  0  0  0  0  0  0
    0.4965    2.5956    1.1247 H   0  0  0  0  0  0  0  0  0  0  0  0
   -1.1761    3.1937    1.0830 H   0  0  0  0  0  0  0  0  0  0  0  0
   -2.5857    0.5982    1.3433 H   0  0  0  0  0  0  0  0  0  0  0  0
   -3.0743    1.2913   -0.1997 H   0  0  0  0  0  0  0  0  0  0  0  0
   -3.0047   -1.4563    0.0953 H   0  0  0  0  0  0  0  0  0  0  0  0
   -2.4261   -0.7446   -1.4054 H   0  0  0  0  0  0  0  0  0  0  0  0
  1  2  1  0
  2  3  1  0
  2  4  1  0
  4  5  1  0
  5  6  1  0
  6  7  2  0
  6  8  1  0
  8  9  2  0
  8  2  1  0
  1 10  1  0
  1 11  1  0
  1 12  1  0
  3 13  1  0
  3 14  1  0
  3 15  1  0
  4 16  1  0
  4 17  1  0
  5 18  1  0
  5 19  1  0
M  END
$$$$
