gdb 2070	2.3940625	1.8842979	1.3008402	0.3524	74.37	-0.25182	0.07976	0.33158	1022.8803	0.156591	-422.540746	-422.532566	-422.531622	-422.573116	31.651
 OpenBabel02181911403D

 19 21  0  0  1  0  0  0  0  0999 V2000
    0.1844   -0.4604   -0.4247 C   0  0  0  0  0  0  0  0  0  0  0  0
    1.5497    0.0343   -0.0442 C   0  0  2  0  0  0  0  0  0  0  0  0
    1.8244    1.4385   -0.2270 O   0  0  0  0  0  0  0  0  0  0  0  0
    2.5958    0.4872   -0.9774 C   0  0  1  0  0  0  0  0  0  0  0  0
    3.9734    0.2387   -0.3946 C   0  0  0  0  0  0  0  0  0  0  0  0
    3.7012    0.0092    1.1143 C   0  0  0  0  0  0  0  0  0  0  0  0
    2.2608   -0.4920    1.1821 C   0  0  1  0  0  0  0  0  0  0  0  0
    1.5898   -0.9071    2.4152 C   0  0  0  0  0  0  0  0  0  0  0  0
    2.0423   -1.8830    1.4681 O   0  0  0  0  0  0  0  0  0  0  0  0
   -0.5674   -0.1173    0.2944 H   0  0  0  0  0  0  0  0  0  0  0  0
   -0.0987   -0.0844   -1.4105 H   0  0  0  0  0  0  0  0  0  0  0  0
    0.1701   -1.5533   -0.4365 H   0  0  0  0  0  0  0  0  0  0  0  0
    2.4381    0.5074   -2.0533 H   0  0  0  0  0  0  0  0  0  0  0  0
    4.4033   -0.6543   -0.8628 H   0  0  0  0  0  0  0  0  0  0  0  0
    4.6603    1.0707   -0.5752 H   0  0  0  0  0  0  0  0  0  0  0  0
    4.3819   -0.7134    1.5687 H   0  0  0  0  0  0  0  0  0  0  0  0
    3.7865    0.9518    1.6604 H   0  0  0  0  0  0  0  0  0  0  0  0
    2.1395   -0.8812    3.3556 H   0  0  0  0  0  0  0  0  0  0  0  0
    0.5090   -0.8152    2.5118 H   0  0  0  0  0  0  0  0  0  0  0  0
  1 10  1  0  0  0  0
  2  1  1  6  0  0  0
  2  7  1  0  0  0  0
  3  2  1  0  0  0  0
  4 13  1  6  0  0  0
  4  5  1  0  0  0  0
  4  3  1  0  0  0  0
  4  2  1  0  0  0  0
  5  6  1  0  0  0  0
  6  7  1  0  0  0  0
  6 16  1  0  0  0  0
  6 17  1  0  0  0  0
  7  9  1  6  0  0  0
  7  8  1  0  0  0  0
  8 19  1  0  0  0  0
  8 18  1  0  0  0  0
  9  8  1  0  0  0  0
 11  1  1  0  0  0  0
 12  1  1  0  0  0  0
 14  5  1  0  0  0  0
 15  5  1  0  0  0  0
M TOR 0 0 1 2 3
M TOR 1 0 1 3 4
M TOR 2 0 1 3 12
M TOR 3 0 1 6 5
M TOR 4 0 1 6 7
M TOR 5 0 1 6 8
M TOR 6 1 2 3 4
M TOR 7 1 2 3 12
M TOR 8 1 3 4 5
M TOR 9 1 3 4 13
M TOR 10 1 3 4 14
M TOR 11 1 6 5 4
M TOR 12 1 6 5 15
M TOR 13 1 6 5 16
M TOR 14 1 6 7 8
M TOR 15 1 6 7 17
M TOR 16 1 6 7 18
M TOR 17 2 1 0 9
M TOR 18 2 1 0 10
M TOR 19 2 1 0 11
M TOR 20 2 1 6 5
M TOR 21 2 1 6 7
M TOR 22 2 1 6 8
M TOR 23 2 3 1 6
M TOR 24 2 3 4 5
M TOR 25 2 3 4 13
M TOR 26 2 3 4 14
M TOR 27 3 1 0 9
M TOR 28 3 1 0 10
M TOR 29 3 1 0 11
M TOR 30 3 1 6 5
M TOR 31 3 1 6 7
M TOR 32 3 1 6 8
M TOR 33 3 4 5 6
M TOR 34 3 4 5 15
M TOR 35 3 4 5 16
M TOR 36 4 3 1 6
M TOR 37 4 5 6 7
M TOR 38 4 5 6 8
M TOR 39 5 4 3 12
M TOR 40 5 6 7 8
M TOR 41 5 6 7 17
M TOR 42 5 6 7 18
M TOR 43 6 1 0 9
M TOR 44 6 1 0 10
M TOR 45 6 1 0 11
M TOR 46 6 1 3 12
M TOR 47 6 5 4 13
M TOR 48 6 5 4 14
M TOR 49 6 8 7 17
M TOR 50 6 8 7 18
M TOR 51 7 6 5 15
M TOR 52 7 6 5 16
M TOR 53 8 6 5 15
M TOR 54 8 6 5 16
M  END
$$$$
