
     RDKit          3D

 19 21  0  0  0  0  0  0  0  0999 V2000
    0.7145    1.0815    1.2511 C   0  0  0  0  0  0  0  0  0  0  0  0
   -0.1133    1.7062    0.0500 C   0  0  0  0  0  0  0  0  0  0  0  0
    0.1185    0.3390   -0.6620 C   0  0  0  0  0  0  0  0  0  0  0  0
   -0.9589   -0.7415   -0.3873 C   0  0  0  0  0  0  0  0  0  0  0  0
   -0.7086   -1.3846   -1.6536 O   0  0  0  0  0  0  0  0  0  0  0  0
    0.4203   -0.5365   -1.9095 C   0  0  0  0  0  0  0  0  0  0  0  0
    1.7407   -1.2426   -1.4364 C   0  0  0  0  0  0  0  0  0  0  0  0
    1.8584   -1.0794    0.0004 O   0  0  0  0  0  0  0  0  0  0  0  0
    1.3848    0.2429    0.1342 C   0  0  0  0  0  0  0  0  0  0  0  0
    1.3473    1.7413    1.8464 H   0  0  0  0  0  0  0  0  0  0  0  0
    0.0659    0.4968    1.9066 H   0  0  0  0  0  0  0  0  0  0  0  0
   -1.1521    1.9763    0.2461 H   0  0  0  0  0  0  0  0  0  0  0  0
    0.4070    2.5520   -0.4043 H   0  0  0  0  0  0  0  0  0  0  0  0
   -0.7795   -1.4130    0.4608 H   0  0  0  0  0  0  0  0  0  0  0  0
   -1.9825   -0.3488   -0.3394 H   0  0  0  0  0  0  0  0  0  0  0  0
    0.4659   -0.1858   -2.9441 H   0  0  0  0  0  0  0  0  0  0  0  0
    1.7196   -2.3110   -1.6573 H   0  0  0  0  0  0  0  0  0  0  0  0
    2.6089   -0.7781   -1.9291 H   0  0  0  0  0  0  0  0  0  0  0  0
    2.1234    0.9218   -0.3319 H   0  0  0  0  0  0  0  0  0  0  0  0
  1  2  1  0
  2  3  1  0
  3  4  1  0
  4  5  1  0
  5  6  1  0
  6  7  1  0
  7  8  1  0
  8  9  1  0
  9  1  1  0
  6  3  1  0
  9  3  1  0
  1 10  1  0
  1 11  1  0
  2 12  1  0
  2 13  1  0
  4 14  1  0
  4 15  1  0
  6 16  1  0
  7 17  1  0
  7 18  1  0
  9 19  1  0
M  END
$$$$
