gdb 3100	2.6901595	1.4636767	1.0820585	3.9978	77.11	-0.24114	-0.03807	0.20307	1152.0196	0.156874	-422.526723	-422.518415	-422.517471	-422.56059	31.646
 OpenBabel02181911413D

 19 20  0  0  1  0  0  0  0  0999 V2000
    1.3988   -5.5074    0.8990 C   0  0  0  0  0  0  0  0  0  0  0  0
    2.0504   -4.2621    1.4655 C   0  0  0  0  0  0  0  0  0  0  0  0
    2.6116   -4.3089    2.5458 O   0  0  0  0  0  0  0  0  0  0  0  0
    1.9206   -3.0260    0.6006 C   0  0  1  0  0  0  0  0  0  0  0  0
    1.8022   -1.5543    1.1459 C   0  0  2  0  0  0  0  0  0  0  0  0
    2.1275   -1.1106   -0.3108 C   0  0  0  0  0  0  0  0  0  0  0  0
    3.1532   -2.2361    0.0053 C   0  0  1  0  0  0  0  0  0  0  0  0
    3.3535   -1.4977    1.3825 C   0  0  2  0  0  0  0  0  0  0  0  0
    3.9895   -2.0435    2.4742 O   0  0  0  0  0  0  0  0  0  0  0  0
    1.5926   -6.3611    1.5487 H   0  0  0  0  0  0  0  0  0  0  0  0
    0.3177   -5.3528    0.8036 H   0  0  0  0  0  0  0  0  0  0  0  0
    1.7768   -5.7079   -0.1100 H   0  0  0  0  0  0  0  0  0  0  0  0
    1.1759   -3.2467   -0.1711 H   0  0  0  0  0  0  0  0  0  0  0  0
    1.0065   -1.1775    1.7902 H   0  0  0  0  0  0  0  0  0  0  0  0
    1.3747   -1.3406   -1.0665 H   0  0  0  0  0  0  0  0  0  0  0  0
    2.5300   -0.1032   -0.4361 H   0  0  0  0  0  0  0  0  0  0  0  0
    3.9104   -2.6499   -0.6624 H   0  0  0  0  0  0  0  0  0  0  0  0
    3.7655   -0.4917    1.2566 H   0  0  0  0  0  0  0  0  0  0  0  0
    3.5594   -2.8874    2.7081 H   0  0  0  0  0  0  0  0  0  0  0  0
  1  2  1  0  0  0  0
  1 10  1  0  0  0  0
  2  3  2  0  0  0  0
  4 13  1  6  0  0  0
  4  5  1  0  0  0  0
  4  2  1  0  0  0  0
  5  8  1  0  0  0  0
  5 14  1  1  0  0  0
  6  7  1  0  0  0  0
  6  5  1  0  0  0  0
  7 17  1  6  0  0  0
  7  4  1  0  0  0  0
  7  8  1  0  0  0  0
  8 18  1  6  0  0  0
  8  9  1  0  0  0  0
  9 19  1  0  0  0  0
 11  1  1  0  0  0  0
 12  1  1  0  0  0  0
 15  6  1  0  0  0  0
 16  6  1  0  0  0  0
M TOR 0 0 1 3 4
M TOR 1 0 1 3 6
M TOR 2 0 1 3 12
M TOR 3 1 3 4 5
M TOR 4 1 3 4 7
M TOR 5 1 3 4 13
M TOR 6 1 3 6 5
M TOR 7 1 3 6 7
M TOR 8 1 3 6 16
M TOR 9 2 1 0 9
M TOR 10 2 1 0 10
M TOR 11 2 1 0 11
M TOR 12 2 1 3 4
M TOR 13 2 1 3 6
M TOR 14 2 1 3 12
M TOR 15 3 1 0 9
M TOR 16 3 1 0 10
M TOR 17 3 1 0 11
M TOR 18 3 4 5 6
M TOR 19 3 4 5 14
M TOR 20 3 4 5 15
M TOR 21 3 4 7 6
M TOR 22 3 4 7 8
M TOR 23 3 4 7 17
M TOR 24 3 6 5 14
M TOR 25 3 6 5 15
M TOR 26 3 6 7 8
M TOR 27 3 6 7 17
M TOR 28 4 3 6 16
M TOR 29 4 5 6 7
M TOR 30 4 5 6 16
M TOR 31 4 7 6 16
M TOR 32 4 7 8 18
M TOR 33 5 4 3 12
M TOR 34 5 4 7 8
M TOR 35 5 4 7 17
M TOR 36 5 6 3 12
M TOR 37 5 6 7 8
M TOR 38 5 6 7 17
M TOR 39 6 3 4 13
M TOR 40 6 5 4 13
M TOR 41 6 7 4 13
M TOR 42 6 7 8 18
M TOR 43 7 4 3 12
M TOR 44 7 4 5 14
M TOR 45 7 4 5 15
M TOR 46 7 6 3 12
M TOR 47 7 6 5 14
M TOR 48 7 6 5 15
M TOR 49 8 7 4 13
M TOR 50 8 7 6 16
M  END
$$$$
