gdb 3433	2.3314347	1.5281449	1.1653018	2.667	77.33	-0.23376	0.01123	0.24498999999999999	1127.3265	0.155899	-422.56207	-422.553093	-422.552148	-422.595097	34.516
 OpenBabel02181911413D

 19 20  0  0  1  0  0  0  0  0999 V2000
    1.1907    0.5301   -0.3513 C   0  0  0  0  0  0  0  0  0  0  0  0
   -0.1953    0.0548   -0.0562 C   0  0  0  0  0  0  0  0  0  0  0  0
   -1.3212    0.7734    0.0358 C   0  0  0  0  0  0  0  0  0  0  0  0
   -2.5433   -0.0852    0.2891 C   0  0  1  0  0  0  0  0  0  0  0  0
   -3.4972   -0.0192   -0.7667 O   0  0  0  0  0  0  0  0  0  0  0  0
   -1.9557   -1.4858    0.4768 C   0  0  2  0  0  0  0  0  0  0  0  0
   -0.9754   -1.7058    1.6097 C   0  0  0  0  0  0  0  0  0  0  0  0
   -0.4731   -1.3979    0.2141 C   0  0  2  0  0  0  0  0  0  0  0  0
    0.2000   -2.3681   -0.5306 O   0  0  0  0  0  0  0  0  0  0  0  0
    1.8623    0.3501    0.4986 H   0  0  0  0  0  0  0  0  0  0  0  0
    1.6079   -0.0191   -1.2033 H   0  0  0  0  0  0  0  0  0  0  0  0
    1.2130    1.5979   -0.5814 H   0  0  0  0  0  0  0  0  0  0  0  0
   -1.3907    1.8515   -0.0591 H   0  0  0  0  0  0  0  0  0  0  0  0
   -3.0961    0.2374    1.1795 H   0  0  0  0  0  0  0  0  0  0  0  0
   -3.0126   -0.1567   -1.5887 H   0  0  0  0  0  0  0  0  0  0  0  0
   -2.5348   -2.3324    0.1288 H   0  0  0  0  0  0  0  0  0  0  0  0
   -0.8703   -0.9493    2.3816 H   0  0  0  0  0  0  0  0  0  0  0  0
   -0.8702   -2.7324    1.9485 H   0  0  0  0  0  0  0  0  0  0  0  0
    1.0067   -2.6037   -0.0607 H   0  0  0  0  0  0  0  0  0  0  0  0
  1  2  1  0  0  0  0
  1 10  1  0  0  0  0
  2  3  2  0  0  0  0
  2  8  1  0  0  0  0
  3  4  1  0  0  0  0
  4  6  1  0  0  0  0
  4 14  1  1  0  0  0
  5  4  1  0  0  0  0
  6 16  1  6  0  0  0
  6  7  1  0  0  0  0
  7 18  1  0  0  0  0
  7 17  1  0  0  0  0
  8  9  1  6  0  0  0
  8  6  1  0  0  0  0
  8  7  1  0  0  0  0
  9 19  1  0  0  0  0
 11  1  1  0  0  0  0
 12  1  1  0  0  0  0
 13  3  1  0  0  0  0
 15  5  1  0  0  0  0
M TOR 0 0 1 2 3
M TOR 1 0 1 2 12
M TOR 2 0 1 7 5
M TOR 3 0 1 7 6
M TOR 4 0 1 7 8
M TOR 5 1 2 3 4
M TOR 6 1 2 3 5
M TOR 7 1 2 3 13
M TOR 8 1 7 5 3
M TOR 9 1 7 5 6
M TOR 10 1 7 5 15
M TOR 11 1 7 6 16
M TOR 12 1 7 6 17
M TOR 13 1 7 8 18
M TOR 14 2 1 0 9
M TOR 15 2 1 0 10
M TOR 16 2 1 0 11
M TOR 17 2 1 7 5
M TOR 18 2 1 7 6
M TOR 19 2 1 7 8
M TOR 20 2 3 4 14
M TOR 21 2 3 5 6
M TOR 22 2 3 5 7
M TOR 23 2 3 5 15
M TOR 24 3 2 1 7
M TOR 25 3 5 6 7
M TOR 26 3 5 6 16
M TOR 27 3 5 6 17
M TOR 28 3 5 7 8
M TOR 29 4 3 2 12
M TOR 30 4 3 5 6
M TOR 31 4 3 5 7
M TOR 32 4 3 5 15
M TOR 33 5 3 2 12
M TOR 34 5 3 4 14
M TOR 35 5 6 7 8
M TOR 36 5 7 6 16
M TOR 37 5 7 6 17
M TOR 38 5 7 8 18
M TOR 39 6 5 3 13
M TOR 40 6 7 5 15
M TOR 41 6 7 8 18
M TOR 42 7 1 0 9
M TOR 43 7 1 0 10
M TOR 44 7 1 0 11
M TOR 45 7 1 2 12
M TOR 46 7 5 3 13
M TOR 47 8 7 5 15
M TOR 48 8 7 6 16
M TOR 49 8 7 6 17
M  END
$$$$
