gdb 5715	2.552388	0.982704	0.808045	2.3397	77.55	-0.25685	0.04423	0.30108	1466.7287	0.153707	-422.500905	-422.490669	-422.489725	-422.536633	36.484
 OpenBabel02181911423D

 19 19  0  0  1  0  0  0  0  0999 V2000
    3.0725   -2.2710    2.9988 C   0  0  0  0  0  0  0  0  0  0  0  0
    2.0306   -2.7467    1.9659 C   0  0  2  0  0  0  0  0  0  0  0  0
    2.6091   -3.6723    0.9934 C   0  0  0  0  0  0  0  0  0  0  0  0
    3.0962   -4.4081    0.1768 C   0  0  0  0  0  0  0  0  0  0  0  0
    1.4132   -1.5558    1.2434 C   0  0  2  0  0  0  0  0  0  0  0  0
    0.4969   -0.7676    2.0009 O   0  0  0  0  0  0  0  0  0  0  0  0
   -0.0072   -1.5043    0.8799 C   0  0  1  0  0  0  0  0  0  0  0  0
   -0.5359   -0.7014   -0.2929 C   0  0  0  0  0  0  0  0  0  0  0  0
    0.3995    0.1922   -0.8633 O   0  0  0  0  0  0  0  0  0  0  0  0
    3.4859   -3.1188    3.5504 H   0  0  0  0  0  0  0  0  0  0  0  0
    3.8983   -1.7517    2.5033 H   0  0  0  0  0  0  0  0  0  0  0  0
    2.5998   -1.5834    3.7049 H   0  0  0  0  0  0  0  0  0  0  0  0
    1.2214   -3.2577    2.5035 H   0  0  0  0  0  0  0  0  0  0  0  0
    3.5219   -5.0722   -0.5340 H   0  0  0  0  0  0  0  0  0  0  0  0
    2.1143   -0.9663    0.6526 H   0  0  0  0  0  0  0  0  0  0  0  0
   -0.6358   -2.3543    1.1562 H   0  0  0  0  0  0  0  0  0  0  0  0
   -0.9399   -1.4043   -1.0385 H   0  0  0  0  0  0  0  0  0  0  0  0
   -1.3720   -0.0843    0.0555 H   0  0  0  0  0  0  0  0  0  0  0  0
    1.0371   -0.3259   -1.3642 H   0  0  0  0  0  0  0  0  0  0  0  0
  1 10  1  0  0  0  0
  1 12  1  0  0  0  0
  2 13  1  1  0  0  0
  2  1  1  0  0  0  0
  3  2  1  0  0  0  0
  4  3  3  0  0  0  0
  5 15  1  6  0  0  0
  5  2  1  0  0  0  0
  5  6  1  0  0  0  0
  7 16  1  1  0  0  0
  7  5  1  0  0  0  0
  7  6  1  0  0  0  0
  8 18  1  0  0  0  0
  8  7  1  0  0  0  0
  9  8  1  0  0  0  0
 11  1  1  0  0  0  0
 14  4  1  0  0  0  0
 17  8  1  0  0  0  0
 19  9  1  0  0  0  0
M TOR 0 0 1 2 3
M TOR 1 0 1 4 5
M TOR 2 0 1 4 6
M TOR 3 0 1 4 14
M TOR 4 1 2 3 13
M TOR 5 1 4 5 6
M TOR 6 1 4 6 7
M TOR 7 1 4 6 15
M TOR 8 2 1 0 9
M TOR 9 2 1 0 10
M TOR 10 2 1 0 11
M TOR 11 2 1 4 5
M TOR 12 2 1 4 6
M TOR 13 2 1 4 14
M TOR 14 3 2 1 4
M TOR 15 3 2 1 12
M TOR 16 4 1 0 9
M TOR 17 4 1 0 10
M TOR 18 4 1 0 11
M TOR 19 4 5 6 7
M TOR 20 4 5 6 15
M TOR 21 4 6 7 8
M TOR 22 4 6 7 16
M TOR 23 4 6 7 17
M TOR 24 5 4 1 12
M TOR 25 5 6 4 14
M TOR 26 5 6 7 8
M TOR 27 5 6 7 16
M TOR 28 5 6 7 17
M TOR 29 6 4 1 12
M TOR 30 6 7 8 18
M TOR 31 7 6 4 14
M TOR 32 8 7 6 15
M  END
$$$$
