gdb 1369	3.9345934	0.8230375	0.7181927	2.5323	78.4	-0.25028	0.03872	0.289	1550.0413	0.15398	-422.502581	-422.492534	-422.491589	-422.537848	36.853
 OpenBabel02181911403D

 19 19  0  0  1  0  0  0  0  0999 V2000
   -0.4069   -0.1779   -2.4097 O   0  0  0  0  0  0  0  0  0  0  0  0
    0.0185    0.8494   -1.5207 C   0  0  1  0  0  0  0  0  0  0  0  0
   -0.2823    0.5002   -0.0441 C   0  0  0  0  0  0  0  0  0  0  0  0
   -1.7588    0.2670    0.1816 C   0  0  2  0  0  0  0  0  0  0  0  0
   -2.2820   -0.5578    1.3442 C   0  0  0  0  0  0  0  0  0  0  0  0
   -2.3716   -1.0797   -0.0654 C   0  0  1  0  0  0  0  0  0  0  0  0
   -3.5929   -1.0794   -0.7485 O   0  0  0  0  0  0  0  0  0  0  0  0
    1.4494    1.0679   -1.7238 C   0  0  0  0  0  0  0  0  0  0  0  0
    2.6283    1.2623   -1.8470 C   0  0  0  0  0  0  0  0  0  0  0  0
   -1.3624   -0.2609   -2.3103 H   0  0  0  0  0  0  0  0  0  0  0  0
   -0.5052    1.7914   -1.7591 H   0  0  0  0  0  0  0  0  0  0  0  0
    0.2914   -0.3940    0.2228 H   0  0  0  0  0  0  0  0  0  0  0  0
    0.0817    1.3179    0.5890 H   0  0  0  0  0  0  0  0  0  0  0  0
   -2.4052    1.0972   -0.0963 H   0  0  0  0  0  0  0  0  0  0  0  0
   -1.5676   -1.0178    2.0195 H   0  0  0  0  0  0  0  0  0  0  0  0
   -3.2015   -0.2194    1.8088 H   0  0  0  0  0  0  0  0  0  0  0  0
   -1.6921   -1.8864   -0.3393 H   0  0  0  0  0  0  0  0  0  0  0  0
   -4.1080   -1.8352   -0.4467 H   0  0  0  0  0  0  0  0  0  0  0  0
    3.6686    1.4348   -1.9722 H   0  0  0  0  0  0  0  0  0  0  0  0
  1 10  1  0  0  0  0
  1  2  1  0  0  0  0
  2 11  1  6  0  0  0
  2  3  1  0  0  0  0
  3  4  1  0  0  0  0
  3 12  1  0  0  0  0
  3 13  1  0  0  0  0
  4 14  1  6  0  0  0
  4  5  1  0  0  0  0
  5 16  1  0  0  0  0
  5 15  1  0  0  0  0
  6 17  1  6  0  0  0
  6  4  1  0  0  0  0
  6  5  1  0  0  0  0
  7 18  1  0  0  0  0
  7  6  1  0  0  0  0
  8  2  1  0  0  0  0
  9  8  3  0  0  0  0
 19  9  1  0  0  0  0
M TOR 0 0 1 2 3
M TOR 1 0 1 2 11
M TOR 2 0 1 2 12
M TOR 3 0 1 7 8
M TOR 4 1 2 3 4
M TOR 5 1 2 3 5
M TOR 6 1 2 3 13
M TOR 7 1 7 8 18
M TOR 8 2 1 0 9
M TOR 9 2 1 7 8
M TOR 10 2 3 4 5
M TOR 11 2 3 4 14
M TOR 12 2 3 4 15
M TOR 13 2 3 5 6
M TOR 14 2 3 5 16
M TOR 15 3 2 1 7
M TOR 16 3 2 1 10
M TOR 17 3 4 5 6
M TOR 18 3 4 5 16
M TOR 19 3 5 4 14
M TOR 20 3 5 4 15
M TOR 21 3 5 6 17
M TOR 22 4 3 2 11
M TOR 23 4 3 2 12
M TOR 24 4 5 3 13
M TOR 25 4 5 6 17
M TOR 26 5 3 2 11
M TOR 27 5 3 2 12
M TOR 28 6 5 3 13
M TOR 29 6 5 4 14
M TOR 30 6 5 4 15
M TOR 31 7 1 0 9
M TOR 32 7 1 2 11
M TOR 33 7 1 2 12
M TOR 34 8 7 1 10
M  END
$$$$
