gdb 4879	2.2085139	1.3027278	1.1052649	2.7691	77.27	-0.2493	0.0176	0.26689999999999997	1203.9667	0.154185	-422.501268	-422.491374	-422.49043	-422.535989	35.946
 OpenBabel02181911413D

 19 19  0  0  1  0  0  0  0  0999 V2000
    2.6414   -3.0769    0.3798 C   0  0  0  0  0  0  0  0  0  0  0  0
    2.5937   -1.5596    0.4941 C   0  0  2  0  0  0  0  0  0  0  0  0
    1.1591   -1.0203    0.5128 C   0  0  0  0  0  0  0  0  0  0  0  0
    0.4858   -1.2483   -0.7171 O   0  0  0  0  0  0  0  0  0  0  0  0
    3.4930   -0.7445   -0.4627 C   0  0  0  0  0  0  0  0  0  0  0  0
    4.0892   -0.0219    0.6388 O   0  0  0  0  0  0  0  0  0  0  0  0
    3.4995   -0.9248    1.6033 C   0  0  1  0  0  0  0  0  0  0  0  0
    2.8926   -0.2616    2.7446 C   0  0  0  0  0  0  0  0  0  0  0  0
    2.3953    0.2694    3.7018 C   0  0  0  0  0  0  0  0  0  0  0  0
    2.1302   -3.5534    1.2247 H   0  0  0  0  0  0  0  0  0  0  0  0
    2.1589   -3.4159   -0.5437 H   0  0  0  0  0  0  0  0  0  0  0  0
    3.6721   -3.4438    0.3598 H   0  0  0  0  0  0  0  0  0  0  0  0
    0.6065   -1.4467    1.3626 H   0  0  0  0  0  0  0  0  0  0  0  0
    1.1786    0.0645    0.6498 H   0  0  0  0  0  0  0  0  0  0  0  0
    0.2369   -2.1761   -0.7578 H   0  0  0  0  0  0  0  0  0  0  0  0
    4.2383   -1.3408   -1.0061 H   0  0  0  0  0  0  0  0  0  0  0  0
    2.9775   -0.0815   -1.1640 H   0  0  0  0  0  0  0  0  0  0  0  0
    4.2505   -1.6438    1.9644 H   0  0  0  0  0  0  0  0  0  0  0  0
    1.9578    0.7463    4.5442 H   0  0  0  0  0  0  0  0  0  0  0  0
  1 10  1  0  0  0  0
  2  1  1  6  0  0  0
  2  3  1  0  0  0  0
  2  7  1  0  0  0  0
  3 14  1  0  0  0  0
  3 13  1  0  0  0  0
  4  3  1  0  0  0  0
  5  2  1  0  0  0  0
  5  6  1  0  0  0  0
  6  7  1  0  0  0  0
  7 18  1  1  0  0  0
  7  8  1  0  0  0  0
  8  9  3  0  0  0  0
  9 19  1  0  0  0  0
 11  1  1  0  0  0  0
 12  1  1  0  0  0  0
 15  4  1  0  0  0  0
 16  5  1  0  0  0  0
 17  5  1  0  0  0  0
M TOR 0 0 1 2 3
M TOR 1 0 1 2 12
M TOR 2 0 1 2 13
M TOR 3 0 1 4 5
M TOR 4 0 1 4 15
M TOR 5 0 1 4 16
M TOR 6 0 1 6 5
M TOR 7 0 1 6 7
M TOR 8 0 1 6 17
M TOR 9 1 2 3 14
M TOR 10 1 4 5 6
M TOR 11 1 6 7 8
M TOR 12 2 1 0 9
M TOR 13 2 1 0 10
M TOR 14 2 1 0 11
M TOR 15 2 1 4 5
M TOR 16 2 1 4 15
M TOR 17 2 1 4 16
M TOR 18 2 1 6 5
M TOR 19 2 1 6 7
M TOR 20 2 1 6 17
M TOR 21 3 2 1 4
M TOR 22 3 2 1 6
M TOR 23 4 1 0 9
M TOR 24 4 1 0 10
M TOR 25 4 1 0 11
M TOR 26 4 1 2 12
M TOR 27 4 1 2 13
M TOR 28 4 1 6 7
M TOR 29 4 1 6 17
M TOR 30 4 5 6 7
M TOR 31 4 5 6 17
M TOR 32 5 6 7 8
M TOR 33 6 1 0 9
M TOR 34 6 1 0 10
M TOR 35 6 1 0 11
M TOR 36 6 1 2 12
M TOR 37 6 1 2 13
M TOR 38 6 1 4 15
M TOR 39 6 1 4 16
M TOR 40 6 5 4 15
M TOR 41 6 5 4 16
M TOR 42 6 7 8 18
M TOR 43 8 7 6 17
M  END
$$$$
