
     RDKit          3D

 19 20  0  0  0  0  0  0  0  0999 V2000
   -3.1846    0.0988    1.1039 C   0  0  0  0  0  0  0  0  0  0  0  0
   -1.6684    0.1012    0.9586 C   0  0  0  0  0  0  0  0  0  0  0  0
   -0.9951   -1.0347    0.1258 C   0  0  0  0  0  0  0  0  0  0  0  0
   -1.5674   -0.8671   -1.1807 O   0  0  0  0  0  0  0  0  0  0  0  0
   -1.3983    0.5615   -1.4403 C   0  0  0  0  0  0  0  0  0  0  0  0
   -2.6607    1.1886   -2.0081 C   0  0  0  0  0  0  0  0  0  0  0  0
   -0.8814    1.0212   -0.0575 C   0  0  0  0  0  0  0  0  0  0  0  0
    0.2114   -0.0674    0.0979 C   0  0  0  0  0  0  0  0  0  0  0  0
    1.3914   -0.1047    0.2629 O   0  0  0  0  0  0  0  0  0  0  0  0
   -3.4723   -0.5364    1.9480 H   0  0  0  0  0  0  0  0  0  0  0  0
   -3.5734    1.1029    1.3006 H   0  0  0  0  0  0  0  0  0  0  0  0
   -3.6689   -0.2957    0.2099 H   0  0  0  0  0  0  0  0  0  0  0  0
   -1.1895    0.1855    1.9400 H   0  0  0  0  0  0  0  0  0  0  0  0
   -0.9691   -2.0844    0.4075 H   0  0  0  0  0  0  0  0  0  0  0  0
   -0.5983    0.6770   -2.1866 H   0  0  0  0  0  0  0  0  0  0  0  0
   -3.4752    1.2422   -1.2854 H   0  0  0  0  0  0  0  0  0  0  0  0
   -2.4419    2.2035   -2.3562 H   0  0  0  0  0  0  0  0  0  0  0  0
   -2.9992    0.6032   -2.8689 H   0  0  0  0  0  0  0  0  0  0  0  0
   -0.6953    2.0803    0.1056 H   0  0  0  0  0  0  0  0  0  0  0  0
  1  2  1  0
  2  3  1  0
  3  4  1  0
  4  5  1  0
  5  6  1  0
  5  7  1  0
  7  8  1  0
  8  9  2  0
  7  2  1  0
  8  3  1  0
  1 10  1  0
  1 11  1  0
  1 12  1  0
  2 13  1  0
  3 14  1  0
  5 15  1  0
  6 16  1  0
  6 17  1  0
  6 18  1  0
  7 19  1  0
M  END
$$$$
