gdb 2959	2.4383458	1.5180854	1.2368382	4.2616	75.02	-0.26462	0.01169	0.27631	1100.6583	0.156483	-422.594805	-422.586111	-422.585167	-422.627913	32.626
 OpenBabel02181911413D

 19 20  0  0  1  0  0  0  0  0999 V2000
   -1.5220    0.3531    2.5613 C   0  0  0  0  0  0  0  0  0  0  0  0
   -2.3921    0.2568    1.3275 C   0  0  1  0  0  0  0  0  0  0  0  0
   -1.9884    0.8061   -0.0164 C   0  0  1  0  0  0  0  0  0  0  0  0
   -0.6250    1.1345   -0.2008 O   0  0  0  0  0  0  0  0  0  0  0  0
    0.1557    0.0101   -0.1983 C   0  0  0  0  0  0  0  0  0  0  0  0
    1.3430    0.0596   -0.3203 O   0  0  0  0  0  0  0  0  0  0  0  0
   -0.7301   -1.2237   -0.0017 C   0  0  0  0  0  0  0  0  0  0  0  0
   -2.1413   -0.6872    0.1527 C   0  0  1  0  0  0  0  0  0  0  0  0
   -3.2866   -1.4671   -0.4483 C   0  0  0  0  0  0  0  0  0  0  0  0
   -1.7311   -0.4718    3.2506 H   0  0  0  0  0  0  0  0  0  0  0  0
   -0.4546    0.3321    2.3304 H   0  0  0  0  0  0  0  0  0  0  0  0
   -1.7173    1.2901    3.0924 H   0  0  0  0  0  0  0  0  0  0  0  0
   -3.4530    0.3872    1.5313 H   0  0  0  0  0  0  0  0  0  0  0  0
   -2.6424    1.4283   -0.6158 H   0  0  0  0  0  0  0  0  0  0  0  0
   -0.6359   -1.8643   -0.8850 H   0  0  0  0  0  0  0  0  0  0  0  0
   -0.3534   -1.7977    0.8502 H   0  0  0  0  0  0  0  0  0  0  0  0
   -3.4510   -2.4089    0.0876 H   0  0  0  0  0  0  0  0  0  0  0  0
   -4.2198   -0.8968   -0.4041 H   0  0  0  0  0  0  0  0  0  0  0  0
   -3.0930   -1.7109   -1.4993 H   0  0  0  0  0  0  0  0  0  0  0  0
  1 12  1  0  0  0  0
  1 10  1  0  0  0  0
  2 13  1  1  0  0  0
  2  1  1  0  0  0  0
  3 14  1  6  0  0  0
  3  8  1  0  0  0  0
  3  2  1  0  0  0  0
  4  5  1  0  0  0  0
  4  3  1  0  0  0  0
  5  7  1  0  0  0  0
  6  5  2  0  0  0  0
  7  8  1  0  0  0  0
  7 16  1  0  0  0  0
  8  9  1  6  0  0  0
  8  2  1  0  0  0  0
  9 18  1  0  0  0  0
  9 17  1  0  0  0  0
 11  1  1  0  0  0  0
 15  7  1  0  0  0  0
 19  9  1  0  0  0  0
M TOR 0 0 1 2 3
M TOR 1 0 1 2 7
M TOR 2 0 1 2 13
M TOR 3 0 1 7 6
M TOR 4 0 1 7 8
M TOR 5 1 2 3 4
M TOR 6 1 2 7 6
M TOR 7 1 2 7 8
M TOR 8 1 7 2 3
M TOR 9 1 7 2 13
M TOR 10 1 7 6 4
M TOR 11 1 7 6 14
M TOR 12 1 7 6 15
M TOR 13 1 7 8 16
M TOR 14 1 7 8 17
M TOR 15 1 7 8 18
M TOR 16 2 1 0 9
M TOR 17 2 1 0 10
M TOR 18 2 1 0 11
M TOR 19 2 3 4 5
M TOR 20 2 3 4 6
M TOR 21 2 7 1 12
M TOR 22 2 7 6 4
M TOR 23 2 7 6 14
M TOR 24 2 7 6 15
M TOR 25 2 7 8 16
M TOR 26 2 7 8 17
M TOR 27 2 7 8 18
M TOR 28 3 2 1 12
M TOR 29 3 2 7 6
M TOR 30 3 2 7 8
M TOR 31 3 4 6 7
M TOR 32 3 4 6 14
M TOR 33 3 4 6 15
M TOR 34 4 3 2 7
M TOR 35 4 3 2 13
M TOR 36 4 6 7 8
M TOR 37 5 4 6 7
M TOR 38 5 4 6 14
M TOR 39 5 4 6 15
M TOR 40 6 7 1 12
M TOR 41 6 7 2 13
M TOR 42 6 7 8 16
M TOR 43 6 7 8 17
M TOR 44 6 7 8 18
M TOR 45 7 1 0 9
M TOR 46 7 1 0 10
M TOR 47 7 1 0 11
M TOR 48 8 7 1 12
M TOR 49 8 7 2 13
M TOR 50 8 7 6 14
M TOR 51 8 7 6 15
M  END
$$$$
