gdb 3041	2.5969777	1.5556016	1.3340523	2.0611	75.39	-0.25027	-0.02758	0.22269	1034.2019	0.157903	-422.569432	-422.561286	-422.560342	-422.602192	31.243
 OpenBabel02181911413D

 19 20  0  0  1  0  0  0  0  0999 V2000
   -2.4172    0.8291    0.6271 O   0  0  0  0  0  0  0  0  0  0  0  0
   -1.0840    1.2067    0.8312 C   0  0  2  0  0  0  0  0  0  0  0  0
   -0.0336    0.6206   -0.1428 C   0  0  1  0  0  0  0  0  0  0  0  0
    0.9964    0.8511    1.0063 C   0  0  0  0  0  0  0  0  0  0  0  0
   -0.2265    0.4689    1.9002 C   0  0  2  0  0  0  0  0  0  0  0  0
   -0.4398   -1.0199    1.5162 C   0  0  0  0  0  0  0  0  0  0  0  0
   -0.2958   -0.8934   -0.0364 C   0  0  0  0  0  0  0  0  0  0  0  0
   -0.3350    0.8188    3.3425 C   0  0  0  0  0  0  0  0  0  0  0  0
   -1.2634    1.4391    3.8086 O   0  0  0  0  0  0  0  0  0  0  0  0
   -2.9201    1.1396    1.3883 H   0  0  0  0  0  0  0  0  0  0  0  0
   -0.9794    2.2941    0.9348 H   0  0  0  0  0  0  0  0  0  0  0  0
    0.1191    1.0430   -1.1356 H   0  0  0  0  0  0  0  0  0  0  0  0
    1.8707    0.1972    1.0388 H   0  0  0  0  0  0  0  0  0  0  0  0
    1.2963    1.8956    1.1153 H   0  0  0  0  0  0  0  0  0  0  0  0
    0.3112   -1.6731    1.9690 H   0  0  0  0  0  0  0  0  0  0  0  0
   -1.4312   -1.3675    1.8125 H   0  0  0  0  0  0  0  0  0  0  0  0
    0.5350   -1.4830   -0.4327 H   0  0  0  0  0  0  0  0  0  0  0  0
   -1.2112   -1.1873   -0.5524 H   0  0  0  0  0  0  0  0  0  0  0  0
    0.4950    0.4628    3.9960 H   0  0  0  0  0  0  0  0  0  0  0  0
  1  2  1  0  0  0  0
  1 10  1  0  0  0  0
  2 11  1  1  0  0  0
  2  5  1  0  0  0  0
  3 12  1  6  0  0  0
  3  7  1  0  0  0  0
  3  2  1  0  0  0  0
  3  4  1  0  0  0  0
  4 13  1  0  0  0  0
  4 14  1  0  0  0  0
  4  5  1  0  0  0  0
  5  8  1  1  0  0  0
  6 16  1  0  0  0  0
  6  5  1  0  0  0  0
  6 15  1  0  0  0  0
  7  6  1  0  0  0  0
  8  9  2  0  0  0  0
  8 19  1  0  0  0  0
 17  7  1  0  0  0  0
 18  7  1  0  0  0  0
M TOR 0 0 1 2 3
M TOR 1 0 1 2 6
M TOR 2 0 1 2 11
M TOR 3 0 1 4 3
M TOR 4 0 1 4 5
M TOR 5 0 1 4 7
M TOR 6 1 2 3 4
M TOR 7 1 2 3 12
M TOR 8 1 2 3 13
M TOR 9 1 2 6 5
M TOR 10 1 2 6 16
M TOR 11 1 2 6 17
M TOR 12 1 4 3 12
M TOR 13 1 4 3 13
M TOR 14 1 4 5 6
M TOR 15 1 4 5 14
M TOR 16 1 4 5 15
M TOR 17 1 4 7 8
M TOR 18 1 4 7 18
M TOR 19 2 1 0 9
M TOR 20 2 1 4 5
M TOR 21 2 1 4 7
M TOR 22 2 3 4 5
M TOR 23 2 3 4 7
M TOR 24 2 6 5 4
M TOR 25 2 6 5 14
M TOR 26 2 6 5 15
M TOR 27 3 2 1 10
M TOR 28 3 2 6 5
M TOR 29 3 2 6 16
M TOR 30 3 2 6 17
M TOR 31 3 4 1 10
M TOR 32 3 4 5 6
M TOR 33 3 4 5 14
M TOR 34 3 4 5 15
M TOR 35 3 4 7 8
M TOR 36 3 4 7 18
M TOR 37 4 1 0 9
M TOR 38 4 1 2 6
M TOR 39 4 1 2 11
M TOR 40 4 3 2 6
M TOR 41 4 3 2 11
M TOR 42 4 5 6 16
M TOR 43 4 5 6 17
M TOR 44 5 4 1 10
M TOR 45 5 4 3 12
M TOR 46 5 4 3 13
M TOR 47 5 4 7 8
M TOR 48 5 4 7 18
M TOR 49 5 6 2 11
M TOR 50 6 2 1 10
M TOR 51 6 2 3 12
M TOR 52 6 2 3 13
M TOR 53 6 5 4 7
M TOR 54 7 4 1 10
M TOR 55 7 4 3 12
M TOR 56 7 4 3 13
M TOR 57 7 4 5 14
M TOR 58 7 4 5 15
M  END
$$$$
