
     RDKit          3D

 19 18  0  0  0  0  0  0  0  0999 V2000
   -4.9510   -1.1411    2.6560 C   0  0  0  0  0  0  0  0  0  0  0  0
   -4.5642   -0.4746    1.3482 C   0  0  0  0  0  0  0  0  0  0  0  0
   -3.1651   -0.6612    1.1567 O   0  0  0  0  0  0  0  0  0  0  0  0
   -2.6746   -0.0625   -0.0311 C   0  0  0  0  0  0  0  0  0  0  0  0
   -3.0879   -0.9164   -1.2472 C   0  0  0  0  0  0  0  0  0  0  0  0
   -3.6115   -0.4852   -2.2377 O   0  0  0  0  0  0  0  0  0  0  0  0
   -1.2191   -0.0144    0.0066 C   0  0  0  0  0  0  0  0  0  0  0  0
   -0.0156   -0.0090   -0.0318 C   0  0  0  0  0  0  0  0  0  0  0  0
    1.4385    0.0126   -0.0553 C   0  0  0  0  0  0  0  0  0  0  0  0
   -4.7330   -2.2120    2.6212 H   0  0  0  0  0  0  0  0  0  0  0  0
   -4.3924   -0.7040    3.4882 H   0  0  0  0  0  0  0  0  0  0  0  0
   -6.0204   -1.0097    2.8456 H   0  0  0  0  0  0  0  0  0  0  0  0
   -5.1335   -0.9061    0.5101 H   0  0  0  0  0  0  0  0  0  0  0  0
   -4.7940    0.6026    1.3735 H   0  0  0  0  0  0  0  0  0  0  0  0
   -3.0950    0.9453   -0.1731 H   0  0  0  0  0  0  0  0  0  0  0  0
   -2.8578   -1.9954   -1.1050 H   0  0  0  0  0  0  0  0  0  0  0  0
    1.8520   -0.6004    0.7526 H   0  0  0  0  0  0  0  0  0  0  0  0
    1.8241   -0.3802   -1.0023 H   0  0  0  0  0  0  0  0  0  0  0  0
    1.8231    1.0309    0.0663 H   0  0  0  0  0  0  0  0  0  0  0  0
  1  2  1  0
  2  3  1  0
  3  4  1  0
  4  5  1  0
  5  6  2  0
  4  7  1  0
  7  8  3  0
  8  9  1  0
  1 10  1  0
  1 11  1  0
  1 12  1  0
  2 13  1  0
  2 14  1  0
  4 15  1  0
  5 16  1  0
  9 17  1  0
  9 18  1  0
  9 19  1  0
M  END
$$$$
