
     RDKit          3D

 19 21  0  0  0  0  0  0  0  0999 V2000
   -0.2575    2.6009    1.1475 C   0  0  0  0  0  0  0  0  0  0  0  0
    1.2783    2.4804    0.8905 C   0  0  0  0  0  0  0  0  0  0  0  0
    1.9663    1.5935    1.9418 C   0  0  0  0  0  0  0  0  0  0  0  0
    1.0653    0.7060    2.5935 O   0  0  0  0  0  0  0  0  0  0  0  0
    0.4980   -0.3242    1.8063 C   0  0  0  0  0  0  0  0  0  0  0  0
    0.0940    0.0676    0.3908 C   0  0  0  0  0  0  0  0  0  0  0  0
    1.2829    0.3263   -0.4161 O   0  0  0  0  0  0  0  0  0  0  0  0
    0.9520    1.7173   -0.4482 C   0  0  0  0  0  0  0  0  0  0  0  0
   -0.4752    1.4983    0.0904 C   0  0  0  0  0  0  0  0  0  0  0  0
   -0.6066    2.4320    2.1659 H   0  0  0  0  0  0  0  0  0  0  0  0
   -0.6559    3.5509    0.7797 H   0  0  0  0  0  0  0  0  0  0  0  0
    1.8300    3.4169    0.7755 H   0  0  0  0  0  0  0  0  0  0  0  0
    2.8029    1.0439    1.4881 H   0  0  0  0  0  0  0  0  0  0  0  0
    2.3587    2.2209    2.7477 H   0  0  0  0  0  0  0  0  0  0  0  0
    1.1999   -1.1692    1.7101 H   0  0  0  0  0  0  0  0  0  0  0  0
   -0.3783   -0.6770    2.3630 H   0  0  0  0  0  0  0  0  0  0  0  0
   -0.4917   -0.7497   -0.0464 H   0  0  0  0  0  0  0  0  0  0  0  0
    1.2143    2.2049   -1.3890 H   0  0  0  0  0  0  0  0  0  0  0  0
   -1.3700    1.5070   -0.5320 H   0  0  0  0  0  0  0  0  0  0  0  0
  1  2  1  0
  2  3  1  0
  3  4  1  0
  4  5  1  0
  5  6  1  0
  6  7  1  0
  7  8  1  0
  8  9  1  0
  9  1  1  0
  8  2  1  0
  9  6  1  0
  1 10  1  0
  1 11  1  0
  2 12  1  0
  3 13  1  0
  3 14  1  0
  5 15  1  0
  5 16  1  0
  6 17  1  0
  8 18  1  0
  9 19  1  0
M  END
$$$$
