
     RDKit          3D

 19 19  0  0  0  0  0  0  0  0999 V2000
    1.1098   -1.0474   -0.6437 O   0  0  0  0  0  0  0  0  0  0  0  0
    1.1672    0.2705   -0.1346 C   0  0  0  0  0  0  0  0  0  0  0  0
   -0.1298    0.6678    0.6029 C   0  0  0  0  0  0  0  0  0  0  0  0
   -0.1085    2.0783    1.1045 C   0  0  0  0  0  0  0  0  0  0  0  0
   -0.7714    3.1243    0.5850 C   0  0  0  0  0  0  0  0  0  0  0  0
   -0.4918    4.3654    1.3344 C   0  0  0  0  0  0  0  0  0  0  0  0
   -0.9306    5.4712    1.1157 O   0  0  0  0  0  0  0  0  0  0  0  0
    0.4779    3.9911    2.4698 C   0  0  0  0  0  0  0  0  0  0  0  0
    0.7268    2.4812    2.3065 C   0  0  0  0  0  0  0  0  0  0  0  0
    1.0858   -1.6562    0.1016 H   0  0  0  0  0  0  0  0  0  0  0  0
    2.0383    0.4116    0.5231 H   0  0  0  0  0  0  0  0  0  0  0  0
    1.3058    0.9229   -1.0023 H   0  0  0  0  0  0  0  0  0  0  0  0
   -0.9692    0.5143   -0.0817 H   0  0  0  0  0  0  0  0  0  0  0  0
   -0.2665   -0.0197    1.4505 H   0  0  0  0  0  0  0  0  0  0  0  0
   -1.4395    3.1014   -0.2673 H   0  0  0  0  0  0  0  0  0  0  0  0
    1.3888    4.5897    2.3801 H   0  0  0  0  0  0  0  0  0  0  0  0
    0.0246    4.2491    3.4312 H   0  0  0  0  0  0  0  0  0  0  0  0
    1.7858    2.2454    2.1460 H   0  0  0  0  0  0  0  0  0  0  0  0
    0.4229    1.9036    3.1887 H   0  0  0  0  0  0  0  0  0  0  0  0
  1  2  1  0
  2  3  1  0
  3  4  1  0
  4  5  2  0
  5  6  1  0
  6  7  2  0
  6  8  1  0
  8  9  1  0
  9  4  1  0
  1 10  1  0
  2 11  1  0
  2 12  1  0
  3 13  1  0
  3 14  1  0
  5 15  1  0
  8 16  1  0
  8 17  1  0
  9 18  1  0
  9 19  1  0
M  END
$$$$
