
     RDKit          3D

 19 21  0  0  0  0  0  0  0  0999 V2000
   -0.0447   -0.0196   -0.4174 C   0  0  0  0  0  0  0  0  0  0  0  0
    1.3821    0.0751    0.0219 C   0  0  0  0  0  0  0  0  0  0  0  0
    2.1109   -0.2568    1.2935 C   0  0  0  0  0  0  0  0  0  0  0  0
    2.8518    0.9616    1.3338 O   0  0  0  0  0  0  0  0  0  0  0  0
    2.3638    1.2718   -0.0188 C   0  0  0  0  0  0  0  0  0  0  0  0
    3.4659    0.9094   -1.0108 C   0  0  0  0  0  0  0  0  0  0  0  0
    3.6772   -0.6100   -0.7583 C   0  0  0  0  0  0  0  0  0  0  0  0
    2.4251   -1.0285    0.0166 C   0  0  0  0  0  0  0  0  0  0  0  0
    1.9385   -2.3308   -0.0819 O   0  0  0  0  0  0  0  0  0  0  0  0
   -0.6832    0.6929    0.1160 H   0  0  0  0  0  0  0  0  0  0  0  0
   -0.1446    0.1778   -1.4915 H   0  0  0  0  0  0  0  0  0  0  0  0
   -0.4250   -1.0282   -0.2320 H   0  0  0  0  0  0  0  0  0  0  0  0
    1.7931   -0.7112    2.2267 H   0  0  0  0  0  0  0  0  0  0  0  0
    1.9658    2.2873   -0.0746 H   0  0  0  0  0  0  0  0  0  0  0  0
    3.1196    1.0983   -2.0339 H   0  0  0  0  0  0  0  0  0  0  0  0
    4.3694    1.5019   -0.8439 H   0  0  0  0  0  0  0  0  0  0  0  0
    3.7384   -1.1822   -1.6882 H   0  0  0  0  0  0  0  0  0  0  0  0
    4.5927   -0.7982   -0.1884 H   0  0  0  0  0  0  0  0  0  0  0  0
    2.4716   -2.8962    0.4875 H   0  0  0  0  0  0  0  0  0  0  0  0
  1  2  1  0
  2  3  1  0
  3  4  1  0
  4  5  1  0
  5  6  1  0
  6  7  1  0
  7  8  1  0
  8  9  1  0
  5  2  1  0
  8  2  1  0
  8  3  1  0
  1 10  1  0
  1 11  1  0
  1 12  1  0
  3 13  1  0
  5 14  1  0
  6 15  1  0
  6 16  1  0
  7 17  1  0
  7 18  1  0
  9 19  1  0
M  END
$$$$
