
     RDKit          3D

 19 20  0  0  0  0  0  0  0  0999 V2000
   -0.8921    1.9467    1.2509 C   0  0  0  0  0  0  0  0  0  0  0  0
   -1.0205    1.0868    0.0037 C   0  0  0  0  0  0  0  0  0  0  0  0
   -1.2262    1.8559   -1.3194 C   0  0  0  0  0  0  0  0  0  0  0  0
   -1.9252    0.8579   -2.2653 C   0  0  0  0  0  0  0  0  0  0  0  0
   -2.8378    0.0363   -1.3304 C   0  0  0  0  0  0  0  0  0  0  0  0
   -2.0325   -0.0943   -0.0468 C   0  0  0  0  0  0  0  0  0  0  0  0
   -0.9139   -1.0447   -0.1911 O   0  0  0  0  0  0  0  0  0  0  0  0
    0.0155   -0.0386   -0.1260 C   0  0  0  0  0  0  0  0  0  0  0  0
    1.2006   -0.1396   -0.1649 O   0  0  0  0  0  0  0  0  0  0  0  0
   -0.7997    1.3375    2.1553 H   0  0  0  0  0  0  0  0  0  0  0  0
   -0.0020    2.5801    1.1853 H   0  0  0  0  0  0  0  0  0  0  0  0
   -1.7642    2.5992    1.3646 H   0  0  0  0  0  0  0  0  0  0  0  0
   -1.8790    2.7155   -1.1230 H   0  0  0  0  0  0  0  0  0  0  0  0
   -0.2852    2.2439   -1.7189 H   0  0  0  0  0  0  0  0  0  0  0  0
   -2.4764    1.3528   -3.0681 H   0  0  0  0  0  0  0  0  0  0  0  0
   -1.1867    0.2010   -2.7359 H   0  0  0  0  0  0  0  0  0  0  0  0
   -3.7570    0.5920   -1.1070 H   0  0  0  0  0  0  0  0  0  0  0  0
   -3.1282   -0.9357   -1.7376 H   0  0  0  0  0  0  0  0  0  0  0  0
   -2.6011   -0.3329    0.8531 H   0  0  0  0  0  0  0  0  0  0  0  0
  1  2  1  0
  2  3  1  0
  3  4  1  0
  4  5  1  0
  5  6  1  0
  6  7  1  0
  7  8  1  0
  8  9  2  0
  6  2  1  0
  8  2  1  0
  1 10  1  0
  1 11  1  0
  1 12  1  0
  3 13  1  0
  3 14  1  0
  4 15  1  0
  4 16  1  0
  5 17  1  0
  5 18  1  0
  6 19  1  0
M  END
$$$$
