
     RDKit          3D

 19 19  0  0  0  0  0  0  0  0999 V2000
    3.8805    0.5288    2.6363 C   0  0  0  0  0  0  0  0  0  0  0  0
    4.6086    0.2704    1.3450 C   0  0  0  0  0  0  0  0  0  0  0  0
    4.4749   -1.0281    0.7622 O   0  0  0  0  0  0  0  0  0  0  0  0
    3.9350    0.0970    0.0349 C   0  0  0  0  0  0  0  0  0  0  0  0
    4.6636    0.4376   -1.2496 C   0  0  0  0  0  0  0  0  0  0  0  0
    2.4925    0.1460   -0.0458 C   0  0  0  0  0  0  0  0  0  0  0  0
    1.2934    0.2069   -0.1552 C   0  0  0  0  0  0  0  0  0  0  0  0
   -0.1678    0.2148   -0.2327 C   0  0  0  0  0  0  0  0  0  0  0  0
   -0.7964   -0.1725    0.9806 O   0  0  0  0  0  0  0  0  0  0  0  0
    2.8416    0.1992    2.5735 H   0  0  0  0  0  0  0  0  0  0  0  0
    4.3702   -0.0034    3.4583 H   0  0  0  0  0  0  0  0  0  0  0  0
    3.8945    1.5984    2.8716 H   0  0  0  0  0  0  0  0  0  0  0  0
    5.6277    0.6623    1.3013 H   0  0  0  0  0  0  0  0  0  0  0  0
    4.3826   -0.2617   -2.0425 H   0  0  0  0  0  0  0  0  0  0  0  0
    4.4085    1.4486   -1.5815 H   0  0  0  0  0  0  0  0  0  0  0  0
    5.7436    0.3742   -1.0960 H   0  0  0  0  0  0  0  0  0  0  0  0
   -0.5272    1.2280   -0.4450 H   0  0  0  0  0  0  0  0  0  0  0  0
   -0.4917   -0.4187   -1.0740 H   0  0  0  0  0  0  0  0  0  0  0  0
   -0.4312   -1.0269    1.2337 H   0  0  0  0  0  0  0  0  0  0  0  0
  1  2  1  0
  2  3  1  0
  3  4  1  0
  4  5  1  0
  4  6  1  0
  6  7  3  0
  7  8  1  0
  8  9  1  0
  4  2  1  0
  1 10  1  0
  1 11  1  0
  1 12  1  0
  2 13  1  0
  5 14  1  0
  5 15  1  0
  5 16  1  0
  8 17  1  0
  8 18  1  0
  9 19  1  0
M  END
$$$$
