gdb 4404	3.6192115	0.8449795	0.7930249	1.0602	79.36	-0.24301	-0.03518	0.20783000000000001	1476.4701	0.155893	-422.582212	-422.572843	-422.571899	-422.618247	33.184
 OpenBabel02181911413D

 19 19  0  0  1  0  0  0  0  0999 V2000
   -1.9693    4.3546    2.1023 O   0  0  0  0  0  0  0  0  0  0  0  0
   -1.8648    3.9332    0.7488 C   0  0  2  0  0  0  0  0  0  0  0  0
   -2.9359    2.8932    0.3194 C   0  0  0  0  0  0  0  0  0  0  0  0
   -2.2127    1.9085   -0.6278 C   0  0  0  0  0  0  0  0  0  0  0  0
   -0.7447    2.1417   -0.3276 C   0  0  0  0  0  0  0  0  0  0  0  0
    0.3156    1.2047   -0.8396 C   0  0  0  0  0  0  0  0  0  0  0  0
    0.2877   -0.0862   -0.0309 C   0  0  0  0  0  0  0  0  0  0  0  0
   -0.0691   -1.1541   -0.4529 O   0  0  0  0  0  0  0  0  0  0  0  0
   -0.5651    3.2398    0.4103 C   0  0  0  0  0  0  0  0  0  0  0  0
   -1.8219    3.5794    2.6561 H   0  0  0  0  0  0  0  0  0  0  0  0
   -1.9643    4.8655    0.1777 H   0  0  0  0  0  0  0  0  0  0  0  0
   -3.2710    2.3687    1.2215 H   0  0  0  0  0  0  0  0  0  0  0  0
   -3.8185    3.3557   -0.1278 H   0  0  0  0  0  0  0  0  0  0  0  0
   -2.5125    0.8643   -0.4825 H   0  0  0  0  0  0  0  0  0  0  0  0
   -2.4183    2.1370   -1.6827 H   0  0  0  0  0  0  0  0  0  0  0  0
    0.1526    0.9492   -1.8915 H   0  0  0  0  0  0  0  0  0  0  0  0
    1.3069    1.6592   -0.7265 H   0  0  0  0  0  0  0  0  0  0  0  0
    0.6035    0.0424    1.0298 H   0  0  0  0  0  0  0  0  0  0  0  0
    0.3929    3.6446    0.7199 H   0  0  0  0  0  0  0  0  0  0  0  0
  1 10  1  0  0  0  0
  2 11  1  6  0  0  0
  2  1  1  0  0  0  0
  3  2  1  0  0  0  0
  3 12  1  0  0  0  0
  4 14  1  0  0  0  0
  4  5  1  0  0  0  0
  4  3  1  0  0  0  0
  5  9  2  0  0  0  0
  6 17  1  0  0  0  0
  6  5  1  0  0  0  0
  6  7  1  0  0  0  0
  7 18  1  0  0  0  0
  8  7  2  0  0  0  0
  9 19  1  0  0  0  0
  9  2  1  0  0  0  0
 13  3  1  0  0  0  0
 15  4  1  0  0  0  0
 16  6  1  0  0  0  0
M TOR 0 0 1 2 3
M TOR 1 0 1 2 11
M TOR 2 0 1 2 12
M TOR 3 0 1 8 4
M TOR 4 0 1 8 18
M TOR 5 1 2 3 4
M TOR 6 1 2 3 13
M TOR 7 1 2 3 14
M TOR 8 1 8 4 3
M TOR 9 1 8 4 5
M TOR 10 2 1 0 9
M TOR 11 2 1 8 4
M TOR 12 2 1 8 18
M TOR 13 2 3 4 5
M TOR 14 2 3 4 8
M TOR 15 3 2 1 8
M TOR 16 3 2 1 10
M TOR 17 3 4 5 6
M TOR 18 3 4 5 15
M TOR 19 3 4 5 16
M TOR 20 3 4 8 18
M TOR 21 4 3 2 11
M TOR 22 4 3 2 12
M TOR 23 4 5 6 7
M TOR 24 4 5 6 17
M TOR 25 4 8 1 10
M TOR 26 5 4 3 13
M TOR 27 5 4 3 14
M TOR 28 5 4 8 18
M TOR 29 6 5 4 8
M TOR 30 7 6 5 15
M TOR 31 7 6 5 16
M TOR 32 8 1 0 9
M TOR 33 8 1 2 11
M TOR 34 8 1 2 12
M TOR 35 8 4 3 13
M TOR 36 8 4 3 14
M TOR 37 8 4 5 15
M TOR 38 8 4 5 16
M  END
$$$$
