gdb 4932	2.0664402	1.5399936	1.1884898	2.1056	77.74	-0.25022	0.02557	0.27579	1148.4325	0.153492	-422.489321	-422.479351	-422.478407	-422.524241	35.783
 OpenBabel02181911413D

 19 19  0  0  1  0  0  0  0  0999 V2000
    1.4496   -0.3315   -0.1021 C   0  0  0  0  0  0  0  0  0  0  0  0
    0.0655   -0.0199   -0.0612 O   0  0  0  0  0  0  0  0  0  0  0  0
   -0.3981    0.6240    1.1041 C   0  0  2  0  0  0  0  0  0  0  0  0
   -1.9223    0.8661    0.9870 C   0  0  0  0  0  0  0  0  0  0  0  0
   -1.7605    2.2918    0.9788 O   0  0  0  0  0  0  0  0  0  0  0  0
   -0.3233    2.2026    1.1084 C   0  0  2  0  0  0  0  0  0  0  0  0
    0.3947    2.8963   -0.0298 C   0  0  0  0  0  0  0  0  0  0  0  0
    0.0490   -0.0120    2.3380 C   0  0  0  0  0  0  0  0  0  0  0  0
    0.4123   -0.5150    3.3681 C   0  0  0  0  0  0  0  0  0  0  0  0
    1.7292   -1.0288    0.6962 H   0  0  0  0  0  0  0  0  0  0  0  0
    1.6258   -0.8015   -1.0719 H   0  0  0  0  0  0  0  0  0  0  0  0
    2.0774    0.5652   -0.0225 H   0  0  0  0  0  0  0  0  0  0  0  0
   -2.3320    0.4808    0.0469 H   0  0  0  0  0  0  0  0  0  0  0  0
   -2.5194    0.5141    1.8344 H   0  0  0  0  0  0  0  0  0  0  0  0
   -0.0007    2.5988    2.0792 H   0  0  0  0  0  0  0  0  0  0  0  0
    0.1890    2.4013   -0.9816 H   0  0  0  0  0  0  0  0  0  0  0  0
    0.0430    3.9310   -0.0902 H   0  0  0  0  0  0  0  0  0  0  0  0
    1.4764    2.9154    0.1383 H   0  0  0  0  0  0  0  0  0  0  0  0
    0.7282   -0.9627    4.2782 H   0  0  0  0  0  0  0  0  0  0  0  0
  1  2  1  0  0  0  0
  1 12  1  0  0  0  0
  1 10  1  0  0  0  0
  2  3  1  0  0  0  0
  3  6  1  0  0  0  0
  3  8  1  1  0  0  0
  4  3  1  0  0  0  0
  4 14  1  0  0  0  0
  5  4  1  0  0  0  0
  5  6  1  0  0  0  0
  6 15  1  1  0  0  0
  7 18  1  0  0  0  0
  7  6  1  0  0  0  0
  8  9  3  0  0  0  0
  9 19  1  0  0  0  0
 11  1  1  0  0  0  0
 13  4  1  0  0  0  0
 16  7  1  0  0  0  0
 17  7  1  0  0  0  0
M TOR 0 0 1 2 3
M TOR 1 0 1 2 5
M TOR 2 0 1 2 7
M TOR 3 1 2 3 4
M TOR 4 1 2 3 12
M TOR 5 1 2 3 13
M TOR 6 1 2 5 4
M TOR 7 1 2 5 6
M TOR 8 1 2 5 14
M TOR 9 1 2 7 8
M TOR 10 2 1 0 9
M TOR 11 2 1 0 10
M TOR 12 2 1 0 11
M TOR 13 2 3 4 5
M TOR 14 2 5 6 15
M TOR 15 2 5 6 16
M TOR 16 2 5 6 17
M TOR 17 2 7 8 18
M TOR 18 3 2 5 6
M TOR 19 3 2 5 14
M TOR 20 3 2 7 8
M TOR 21 3 4 5 6
M TOR 22 3 4 5 14
M TOR 23 4 3 2 7
M TOR 24 4 5 2 7
M TOR 25 4 5 6 15
M TOR 26 4 5 6 16
M TOR 27 4 5 6 17
M TOR 28 5 2 3 12
M TOR 29 5 2 3 13
M TOR 30 5 2 7 8
M TOR 31 5 4 3 12
M TOR 32 5 4 3 13
M TOR 33 6 5 2 7
M TOR 34 7 2 3 12
M TOR 35 7 2 3 13
M TOR 36 7 2 5 14
M  END
$$$$
