gdb 81	3.1437544	1.219741	0.9400767	0.9375	78.4	-0.24646	0.03472	0.28118	1248.7588	0.156956	-422.507205	-422.498482	-422.497537	-422.540675	32.741
 OpenBabel02181911403D

 19 19  0  0  1  0  0  0  0  0999 V2000
    0.0362   -0.0567    0.3185 C   0  0  0  0  0  0  0  0  0  0  0  0
    1.2320   -0.0431    0.2047 C   0  0  0  0  0  0  0  0  0  0  0  0
    2.6877    0.0263    0.0924 C   0  0  2  0  0  0  0  0  0  0  0  0
    3.1867    1.4414    0.4567 C   0  0  0  0  0  0  0  0  0  0  0  0
    4.5854    1.5279    0.5783 O   0  0  0  0  0  0  0  0  0  0  0  0
    5.3309    1.2437   -0.5986 C   0  0  0  0  0  0  0  0  0  0  0  0
    5.5243   -0.2623   -0.8080 C   0  0  0  0  0  0  0  0  0  0  0  0
    4.2896   -0.9855   -1.3941 C   0  0  0  0  0  0  0  0  0  0  0  0
    3.0642   -0.2852   -1.2460 O   0  0  0  0  0  0  0  0  0  0  0  0
   -1.0213   -0.0854    0.4133 H   0  0  0  0  0  0  0  0  0  0  0  0
    3.1379   -0.6945    0.7925 H   0  0  0  0  0  0  0  0  0  0  0  0
    2.8062    2.1313   -0.3121 H   0  0  0  0  0  0  0  0  0  0  0  0
    2.7762    1.7369    1.4268 H   0  0  0  0  0  0  0  0  0  0  0  0
    4.8618    1.7106   -1.4766 H   0  0  0  0  0  0  0  0  0  0  0  0
    6.3064    1.7148   -0.4427 H   0  0  0  0  0  0  0  0  0  0  0  0
    6.3796   -0.4297   -1.4736 H   0  0  0  0  0  0  0  0  0  0  0  0
    5.7980   -0.6863    0.1641 H   0  0  0  0  0  0  0  0  0  0  0  0
    4.3969   -1.1000   -2.4766 H   0  0  0  0  0  0  0  0  0  0  0  0
    4.2051   -1.9956   -0.9648 H   0  0  0  0  0  0  0  0  0  0  0  0
  1 10  1  0  0  0  0
  2  1  3  0  0  0  0
  3  2  1  0  0  0  0
  3  4  1  0  0  0  0
  3 11  1  1  0  0  0
  4  5  1  0  0  0  0
  4 13  1  0  0  0  0
  6 15  1  0  0  0  0
  6  5  1  0  0  0  0
  7  6  1  0  0  0  0
  7 17  1  0  0  0  0
  8  9  1  0  0  0  0
  8 19  1  0  0  0  0
  8  7  1  0  0  0  0
  9  3  1  0  0  0  0
 12  4  1  0  0  0  0
 14  6  1  0  0  0  0
 16  7  1  0  0  0  0
 18  8  1  0  0  0  0
M TOR 0 0 1 2 3
M TOR 1 0 1 2 8
M TOR 2 0 1 2 10
M TOR 3 1 2 3 4
M TOR 4 1 2 3 11
M TOR 5 1 2 3 12
M TOR 6 1 2 8 7
M TOR 7 2 1 0 9
M TOR 8 2 3 4 5
M TOR 9 2 8 7 6
M TOR 10 2 8 7 17
M TOR 11 2 8 7 18
M TOR 12 3 2 8 7
M TOR 13 3 4 5 6
M TOR 14 3 4 5 13
M TOR 15 3 4 5 14
M TOR 16 4 3 2 8
M TOR 17 4 3 2 10
M TOR 18 4 5 6 7
M TOR 19 4 5 6 15
M TOR 20 4 5 6 16
M TOR 21 5 4 3 11
M TOR 22 5 4 3 12
M TOR 23 5 6 7 8
M TOR 24 5 6 7 17
M TOR 25 5 6 7 18
M TOR 26 7 6 5 13
M TOR 27 7 6 5 14
M TOR 28 7 8 2 10
M TOR 29 8 2 3 11
M TOR 30 8 2 3 12
M TOR 31 8 7 6 15
M TOR 32 8 7 6 16
M  END
$$$$
