gdb 598	3.2655409	1.5256247	1.0961286	1.2059	76.05	-0.24786	0.01716	0.26502	1091.2333	0.159779	-422.571774	-422.56431	-422.563366	-422.603998	28.788
 OpenBabel02181911403D

 19 20  0  0  1  0  0  0  0  0999 V2000
   -0.3338    1.2982   -0.1539 C   0  0  0  0  0  0  0  0  0  0  0  0
    0.6970    2.1897   -0.5637 O   0  0  0  0  0  0  0  0  0  0  0  0
    1.8756    1.7312    0.0831 C   0  0  2  0  0  0  0  0  0  0  0  0
    3.1875    2.0552   -0.6034 C   0  0  0  0  0  0  0  0  0  0  0  0
    4.2502    1.1631    0.0124 C   0  0  0  0  0  0  0  0  0  0  0  0
    3.9962    0.0869    0.7642 C   0  0  0  0  0  0  0  0  0  0  0  0
    2.6064   -0.4349    1.0815 C   0  0  0  0  0  0  0  0  0  0  0  0
    1.6449    0.2326    0.1185 C   0  0  1  0  0  0  0  0  0  0  0  0
    0.2666    0.1603    0.4544 O   0  0  0  0  0  0  0  0  0  0  0  0
   -0.9969    1.7645    0.5886 H   0  0  0  0  0  0  0  0  0  0  0  0
   -0.9105    1.0192   -1.0471 H   0  0  0  0  0  0  0  0  0  0  0  0
    1.9074    2.1076    1.1196 H   0  0  0  0  0  0  0  0  0  0  0  0
    3.1037    1.8766   -1.6839 H   0  0  0  0  0  0  0  0  0  0  0  0
    3.4577    3.1100   -0.4830 H   0  0  0  0  0  0  0  0  0  0  0  0
    5.2836    1.4457   -0.1709 H   0  0  0  0  0  0  0  0  0  0  0  0
    4.8294   -0.4774    1.1747 H   0  0  0  0  0  0  0  0  0  0  0  0
    2.5782   -1.5262    0.9904 H   0  0  0  0  0  0  0  0  0  0  0  0
    2.3274   -0.2016    2.1179 H   0  0  0  0  0  0  0  0  0  0  0  0
    1.8078   -0.1733   -0.8943 H   0  0  0  0  0  0  0  0  0  0  0  0
  1  9  1  0  0  0  0
  1 10  1  0  0  0  0
  2  1  1  0  0  0  0
  2  3  1  0  0  0  0
  3  8  1  0  0  0  0
  3 12  1  1  0  0  0
  4 14  1  0  0  0  0
  4  5  1  0  0  0  0
  4  3  1  0  0  0  0
  5  6  2  0  0  0  0
  6  7  1  0  0  0  0
  6 16  1  0  0  0  0
  7 18  1  0  0  0  0
  8 19  1  6  0  0  0
  8  9  1  0  0  0  0
  8  7  1  0  0  0  0
 11  1  1  0  0  0  0
 13  4  1  0  0  0  0
 15  5  1  0  0  0  0
 17  7  1  0  0  0  0
M TOR 0 0 1 2 3
M TOR 1 0 1 2 7
M TOR 2 0 1 2 11
M TOR 3 0 8 7 2
M TOR 4 0 8 7 6
M TOR 5 0 8 7 18
M TOR 6 1 0 8 7
M TOR 7 1 2 3 4
M TOR 8 1 2 3 12
M TOR 9 1 2 3 13
M TOR 10 1 2 7 6
M TOR 11 1 2 7 8
M TOR 12 1 2 7 18
M TOR 13 2 1 0 8
M TOR 14 2 1 0 9
M TOR 15 2 1 0 10
M TOR 16 2 3 4 5
M TOR 17 2 3 4 14
M TOR 18 2 7 6 5
M TOR 19 2 7 6 16
M TOR 20 2 7 6 17
M TOR 21 3 2 7 6
M TOR 22 3 2 7 8
M TOR 23 3 2 7 18
M TOR 24 3 4 5 6
M TOR 25 3 4 5 15
M TOR 26 4 3 2 7
M TOR 27 4 3 2 11
M TOR 28 4 5 6 7
M TOR 29 4 5 6 16
M TOR 30 4 5 6 17
M TOR 31 5 4 3 12
M TOR 32 5 4 3 13
M TOR 33 5 6 7 8
M TOR 34 5 6 7 18
M TOR 35 6 5 4 14
M TOR 36 6 7 2 11
M TOR 37 7 2 3 12
M TOR 38 7 2 3 13
M TOR 39 7 6 5 15
M TOR 40 7 8 0 9
M TOR 41 7 8 0 10
M TOR 42 8 7 2 11
M TOR 43 8 7 6 16
M TOR 44 8 7 6 17
M  END
$$$$
