gdb 1165	4.1837597	0.9029341	0.8322489	2.1049	75.52	-0.24433	-0.01627	0.22805999999999998	1405.2108	0.154982	-422.534129	-422.525074	-422.52413	-422.568979	32.597
 OpenBabel02181911403D

 19 20  0  0  1  0  0  0  0  0999 V2000
   -1.7904   -2.9937    1.1748 C   0  0  0  0  0  0  0  0  0  0  0  0
   -0.5275   -2.3341    1.6961 C   0  0  0  0  0  0  0  0  0  0  0  0
    0.0427   -2.7301    2.6876 O   0  0  0  0  0  0  0  0  0  0  0  0
    0.0156   -1.1561    0.8930 C   0  0  0  0  0  0  0  0  0  0  0  0
    1.0106   -1.6315   -0.1765 C   0  0  2  0  0  0  0  0  0  0  0  0
    2.3498   -2.2269    0.4001 C   0  0  0  0  0  0  0  0  0  0  0  0
    3.0953   -1.0550   -0.2494 C   0  0  1  0  0  0  0  0  0  0  0  0
    2.8158   -1.1016   -1.6561 O   0  0  0  0  0  0  0  0  0  0  0  0
    1.8495   -0.4959   -0.7979 C   0  0  1  0  0  0  0  0  0  0  0  0
   -1.9990   -3.9041    1.7376 H   0  0  0  0  0  0  0  0  0  0  0  0
   -2.6344   -2.3007    1.2767 H   0  0  0  0  0  0  0  0  0  0  0  0
   -1.6998   -3.2235    0.1073 H   0  0  0  0  0  0  0  0  0  0  0  0
   -0.8023   -0.6085    0.4098 H   0  0  0  0  0  0  0  0  0  0  0  0
    0.5219   -0.4807    1.5903 H   0  0  0  0  0  0  0  0  0  0  0  0
    0.5126   -2.2537   -0.9265 H   0  0  0  0  0  0  0  0  0  0  0  0
    2.3594   -2.2133    1.4916 H   0  0  0  0  0  0  0  0  0  0  0  0
    2.6445   -3.2162    0.0432 H   0  0  0  0  0  0  0  0  0  0  0  0
    4.0168   -0.5713    0.0523 H   0  0  0  0  0  0  0  0  0  0  0  0
    1.5521    0.5245   -1.0157 H   0  0  0  0  0  0  0  0  0  0  0  0
  1 11  1  0  0  0  0
  1  2  1  0  0  0  0
  1 10  1  0  0  0  0
  2  3  2  0  0  0  0
  4 14  1  0  0  0  0
  4  2  1  0  0  0  0
  5 15  1  6  0  0  0
  5  6  1  0  0  0  0
  5  4  1  0  0  0  0
  6 16  1  0  0  0  0
  7 18  1  1  0  0  0
  7  6  1  0  0  0  0
  8  9  1  0  0  0  0
  8  7  1  0  0  0  0
  9 19  1  6  0  0  0
  9  7  1  0  0  0  0
  9  5  1  0  0  0  0
 12  1  1  0  0  0  0
 13  4  1  0  0  0  0
 17  6  1  0  0  0  0
M TOR 0 0 1 3 4
M TOR 1 0 1 3 12
M TOR 2 0 1 3 13
M TOR 3 1 3 4 5
M TOR 4 1 3 4 8
M TOR 5 1 3 4 14
M TOR 6 2 1 0 9
M TOR 7 2 1 0 10
M TOR 8 2 1 0 11
M TOR 9 2 1 3 4
M TOR 10 2 1 3 12
M TOR 11 2 1 3 13
M TOR 12 3 1 0 9
M TOR 13 3 1 0 10
M TOR 14 3 1 0 11
M TOR 15 3 4 5 6
M TOR 16 3 4 5 15
M TOR 17 3 4 5 16
M TOR 18 3 4 8 6
M TOR 19 3 4 8 7
M TOR 20 3 4 8 18
M TOR 21 4 5 6 7
M TOR 22 4 5 6 8
M TOR 23 4 5 6 17
M TOR 24 4 8 6 7
M TOR 25 4 8 6 17
M TOR 26 5 4 3 12
M TOR 27 5 4 3 13
M TOR 28 5 4 8 7
M TOR 29 5 4 8 18
M TOR 30 5 6 7 8
M TOR 31 5 6 8 18
M TOR 32 6 5 4 14
M TOR 33 6 7 8 18
M TOR 34 6 8 4 14
M TOR 35 7 6 5 15
M TOR 36 7 6 5 16
M TOR 37 7 8 4 14
M TOR 38 7 8 6 17
M TOR 39 8 4 3 12
M TOR 40 8 4 3 13
M TOR 41 8 4 5 15
M TOR 42 8 4 5 16
M TOR 43 8 6 5 15
M TOR 44 8 6 5 16
M  END
$$$$
