gdb 3428	3.2257761	1.3139336	1.0310289	1.8922	77.51	-0.23409	0.01272	0.24681	1170.3515	0.15777	-422.533234	-422.525104	-422.52416	-422.56548	31.735
 OpenBabel02181911413D

 19 20  0  0  1  0  0  0  0  0999 V2000
    0.2841    0.2847   -0.1158 O   0  0  0  0  0  0  0  0  0  0  0  0
   -0.7814    0.3974    0.7782 C   0  0  1  0  0  0  0  0  0  0  0  0
   -2.1053   -0.0928    0.3017 C   0  0  2  0  0  0  0  0  0  0  0  0
   -3.1836    0.7085    0.6619 O   0  0  0  0  0  0  0  0  0  0  0  0
   -4.3946    0.0290    0.9570 C   0  0  0  0  0  0  0  0  0  0  0  0
   -4.2416   -1.1926    1.8904 C   0  0  0  0  0  0  0  0  0  0  0  0
   -3.2462   -0.9850    3.0071 C   0  0  0  0  0  0  0  0  0  0  0  0
   -1.9392   -0.8495    2.7751 C   0  0  0  0  0  0  0  0  0  0  0  0
   -1.3749   -0.8600    1.3991 C   0  0  2  0  0  0  0  0  0  0  0  0
    1.0806    0.0993    0.3929 H   0  0  0  0  0  0  0  0  0  0  0  0
   -0.8123    1.3043    1.3817 H   0  0  0  0  0  0  0  0  0  0  0  0
   -2.1453   -0.5390   -0.6923 H   0  0  0  0  0  0  0  0  0  0  0  0
   -5.0262    0.7893    1.4266 H   0  0  0  0  0  0  0  0  0  0  0  0
   -4.8925   -0.2921    0.0288 H   0  0  0  0  0  0  0  0  0  0  0  0
   -5.2337   -1.4313    2.2872 H   0  0  0  0  0  0  0  0  0  0  0  0
   -3.9342   -2.0585    1.2932 H   0  0  0  0  0  0  0  0  0  0  0  0
   -3.6190   -0.9526    4.0275 H   0  0  0  0  0  0  0  0  0  0  0  0
   -1.2469   -0.7282    3.6063 H   0  0  0  0  0  0  0  0  0  0  0  0
   -0.8807   -1.7754    1.0743 H   0  0  0  0  0  0  0  0  0  0  0  0
  1 10  1  0  0  0  0
  1  2  1  0  0  0  0
  2 11  1  1  0  0  0
  2  9  1  0  0  0  0
  3 12  1  6  0  0  0
  3  4  1  0  0  0  0
  3  2  1  0  0  0  0
  3  9  1  0  0  0  0
  4  5  1  0  0  0  0
  5 13  1  0  0  0  0
  5  6  1  0  0  0  0
  6 15  1  0  0  0  0
  6  7  1  0  0  0  0
  7 17  1  0  0  0  0
  8  7  2  0  0  0  0
  8 18  1  0  0  0  0
  9 19  1  6  0  0  0
  9  8  1  0  0  0  0
 14  5  1  0  0  0  0
 16  6  1  0  0  0  0
M TOR 0 0 1 2 3
M TOR 1 0 1 2 8
M TOR 2 0 1 2 11
M TOR 3 0 1 8 7
M TOR 4 0 1 8 18
M TOR 5 1 2 3 4
M TOR 6 1 2 8 7
M TOR 7 1 2 8 18
M TOR 8 1 8 2 3
M TOR 9 1 8 2 11
M TOR 10 1 8 7 6
M TOR 11 1 8 7 17
M TOR 12 2 1 0 9
M TOR 13 2 3 4 5
M TOR 14 2 3 4 12
M TOR 15 2 3 4 13
M TOR 16 2 8 1 10
M TOR 17 2 8 7 6
M TOR 18 2 8 7 17
M TOR 19 3 2 1 10
M TOR 20 3 2 8 7
M TOR 21 3 2 8 18
M TOR 22 3 4 5 6
M TOR 23 3 4 5 14
M TOR 24 3 4 5 15
M TOR 25 4 3 2 8
M TOR 26 4 3 2 11
M TOR 27 4 5 6 7
M TOR 28 4 5 6 16
M TOR 29 5 6 7 8
M TOR 30 5 6 7 17
M TOR 31 6 5 4 12
M TOR 32 6 5 4 13
M TOR 33 6 7 8 18
M TOR 34 7 6 5 14
M TOR 35 7 6 5 15
M TOR 36 7 8 1 10
M TOR 37 7 8 2 11
M TOR 38 8 1 0 9
M TOR 39 8 7 6 16
M  END
$$$$
