gdb 3237	2.4060323	1.978329	1.6104655	2.1497	73.64	-0.24017	0.07566	0.31583	934.805	0.158203	-422.53435	-422.527004	-422.52606	-422.565523	30.224
 OpenBabel02181911413D

 19 21  0  0  1  0  0  0  0  0999 V2000
    1.8057   -0.0464   -2.9652 C   0  0  0  0  0  0  0  0  0  0  0  0
    0.5405    0.2546   -2.2206 C   0  0  1  0  0  0  0  0  0  0  0  0
    0.3211    1.6894   -1.9401 O   0  0  0  0  0  0  0  0  0  0  0  0
   -1.0596    1.3051   -1.8089 C   0  0  2  0  0  0  0  0  0  0  0  0
   -1.1752    0.1213   -0.7431 C   0  0  1  0  0  0  0  0  0  0  0  0
   -1.7642   -0.7632   -1.8726 C   0  0  0  0  0  0  0  0  0  0  0  0
   -0.9238    0.1334   -2.8004 C   0  0  2  0  0  0  0  0  0  0  0  0
    0.3150   -0.2956   -0.7824 C   0  0  2  0  0  0  0  0  0  0  0  0
    1.1600    0.3077    0.1604 O   0  0  0  0  0  0  0  0  0  0  0  0
    2.6730    0.1991   -2.3442 H   0  0  0  0  0  0  0  0  0  0  0  0
    1.8524   -1.1125   -3.2100 H   0  0  0  0  0  0  0  0  0  0  0  0
    1.8646    0.5277   -3.8939 H   0  0  0  0  0  0  0  0  0  0  0  0
   -1.7798    2.1206   -1.8368 H   0  0  0  0  0  0  0  0  0  0  0  0
   -1.6432    0.2305    0.2330 H   0  0  0  0  0  0  0  0  0  0  0  0
   -1.5623   -1.8377   -1.8310 H   0  0  0  0  0  0  0  0  0  0  0  0
   -2.8329   -0.5995   -2.0351 H   0  0  0  0  0  0  0  0  0  0  0  0
   -1.0574    0.2242   -3.8776 H   0  0  0  0  0  0  0  0  0  0  0  0
    0.4479   -1.3774   -0.6969 H   0  0  0  0  0  0  0  0  0  0  0  0
    1.1820    1.2432   -0.0898 H   0  0  0  0  0  0  0  0  0  0  0  0
  1 10  1  0  0  0  0
  2  1  1  6  0  0  0
  2  3  1  0  0  0  0
  2  8  1  0  0  0  0
  3  4  1  0  0  0  0
  4 13  1  6  0  0  0
  4  5  1  0  0  0  0
  5 14  1  1  0  0  0
  6 15  1  0  0  0  0
  6  5  1  0  0  0  0
  7 17  1  6  0  0  0
  7  2  1  0  0  0  0
  7  6  1  0  0  0  0
  7  4  1  0  0  0  0
  8  5  1  0  0  0  0
  8 18  1  1  0  0  0
  8  9  1  0  0  0  0
 11  1  1  0  0  0  0
 12  1  1  0  0  0  0
 16  6  1  0  0  0  0
 19  9  1  0  0  0  0
M TOR 0 0 1 2 3
M TOR 1 0 1 6 3
M TOR 2 0 1 6 5
M TOR 3 0 1 6 16
M TOR 4 0 1 7 4
M TOR 5 0 1 7 8
M TOR 6 0 1 7 17
M TOR 7 1 2 3 4
M TOR 8 1 2 3 6
M TOR 9 1 2 3 12
M TOR 10 1 6 3 4
M TOR 11 1 6 3 12
M TOR 12 1 6 5 4
M TOR 13 1 6 5 14
M TOR 14 1 6 5 15
M TOR 15 1 7 4 3
M TOR 16 1 7 4 5
M TOR 17 1 7 4 13
M TOR 18 1 7 8 18
M TOR 19 2 1 0 9
M TOR 20 2 1 0 10
M TOR 21 2 1 0 11
M TOR 22 2 1 6 5
M TOR 23 2 1 6 16
M TOR 24 2 1 7 4
M TOR 25 2 1 7 8
M TOR 26 2 1 7 17
M TOR 27 2 3 4 5
M TOR 28 2 3 4 7
M TOR 29 2 3 4 13
M TOR 30 2 3 6 5
M TOR 31 2 3 6 16
M TOR 32 3 2 1 7
M TOR 33 3 4 5 6
M TOR 34 3 4 5 14
M TOR 35 3 4 5 15
M TOR 36 3 4 7 8
M TOR 37 3 4 7 17
M TOR 38 3 6 1 7
M TOR 39 3 6 5 14
M TOR 40 3 6 5 15
M TOR 41 4 3 6 16
M TOR 42 4 5 6 16
M TOR 43 4 7 1 6
M TOR 44 4 7 8 18
M TOR 45 5 4 3 12
M TOR 46 5 4 7 8
M TOR 47 5 4 7 17
M TOR 48 5 6 1 7
M TOR 49 5 6 3 12
M TOR 50 6 1 0 9
M TOR 51 6 1 0 10
M TOR 52 6 1 0 11
M TOR 53 6 1 7 8
M TOR 54 6 1 7 17
M TOR 55 6 3 4 7
M TOR 56 6 3 4 13
M TOR 57 6 5 4 7
M TOR 58 6 5 4 13
M TOR 59 7 1 0 9
M TOR 60 7 1 0 10
M TOR 61 7 1 0 11
M TOR 62 7 1 6 16
M TOR 63 7 4 3 12
M TOR 64 7 4 5 14
M TOR 65 7 4 5 15
M TOR 66 8 7 4 13
M  END
$$$$
