
     RDKit          3D

 19 20  0  0  0  0  0  0  0  0999 V2000
   -3.2405   -0.6506   -0.6498 C   0  0  0  0  0  0  0  0  0  0  0  0
   -2.2216   -0.7272    0.4942 C   0  0  0  0  0  0  0  0  0  0  0  0
   -0.8569   -1.2538    0.0181 C   0  0  0  0  0  0  0  0  0  0  0  0
   -0.0847    0.0102   -0.3473 C   0  0  0  0  0  0  0  0  0  0  0  0
    0.9005    0.1225   -1.0151 O   0  0  0  0  0  0  0  0  0  0  0  0
   -0.7020    1.0823    0.2289 O   0  0  0  0  0  0  0  0  0  0  0  0
   -1.8145    0.6511    1.0108 C   0  0  0  0  0  0  0  0  0  0  0  0
   -2.7376    1.7223    1.4797 C   0  0  0  0  0  0  0  0  0  0  0  0
   -1.7935    1.0423    2.4595 C   0  0  0  0  0  0  0  0  0  0  0  0
   -4.1834   -0.2108   -0.3126 H   0  0  0  0  0  0  0  0  0  0  0  0
   -2.8620   -0.0369   -1.4743 H   0  0  0  0  0  0  0  0  0  0  0  0
   -3.4546   -1.6491   -1.0435 H   0  0  0  0  0  0  0  0  0  0  0  0
   -2.6284   -1.3326    1.3086 H   0  0  0  0  0  0  0  0  0  0  0  0
   -0.3082   -1.7580    0.8215 H   0  0  0  0  0  0  0  0  0  0  0  0
   -0.8997   -1.9341   -0.8339 H   0  0  0  0  0  0  0  0  0  0  0  0
   -2.5038    2.7387    1.1848 H   0  0  0  0  0  0  0  0  0  0  0  0
   -3.7973    1.4979    1.5394 H   0  0  0  0  0  0  0  0  0  0  0  0
   -0.9390    1.6140    2.8028 H   0  0  0  0  0  0  0  0  0  0  0  0
   -2.2098    0.3537    3.1874 H   0  0  0  0  0  0  0  0  0  0  0  0
  1  2  1  0
  2  3  1  0
  3  4  1  0
  4  5  2  0
  4  6  1  0
  6  7  1  0
  7  8  1  0
  8  9  1  0
  7  2  1  0
  9  7  1  0
  1 10  1  0
  1 11  1  0
  1 12  1  0
  2 13  1  0
  3 14  1  0
  3 15  1  0
  8 16  1  0
  8 17  1  0
  9 18  1  0
  9 19  1  0
M  END
$$$$
