
     RDKit          3D

 19 20  0  0  0  0  0  0  0  0999 V2000
   -2.0276   -1.0716   -2.2587 C   0  0  0  0  0  0  0  0  0  0  0  0
   -2.1481   -0.7684   -0.7710 C   0  0  0  0  0  0  0  0  0  0  0  0
   -0.9509   -1.2232   -0.0952 O   0  0  0  0  0  0  0  0  0  0  0  0
   -0.1471   -0.1934    0.2934 C   0  0  0  0  0  0  0  0  0  0  0  0
    0.9219   -0.3769    0.8007 O   0  0  0  0  0  0  0  0  0  0  0  0
   -0.8312    1.1372    0.0113 C   0  0  0  0  0  0  0  0  0  0  0  0
   -1.4217    1.7960    1.2896 C   0  0  0  0  0  0  0  0  0  0  0  0
   -2.7842    1.1132    0.9752 C   0  0  0  0  0  0  0  0  0  0  0  0
   -2.2534    0.7252   -0.4387 C   0  0  0  0  0  0  0  0  0  0  0  0
   -1.7996   -2.1287   -2.4172 H   0  0  0  0  0  0  0  0  0  0  0  0
   -2.9669   -0.8369   -2.7697 H   0  0  0  0  0  0  0  0  0  0  0  0
   -1.2292   -0.4765   -2.7147 H   0  0  0  0  0  0  0  0  0  0  0  0
   -2.9770   -1.3373   -0.3360 H   0  0  0  0  0  0  0  0  0  0  0  0
   -0.1965    1.7552   -0.6256 H   0  0  0  0  0  0  0  0  0  0  0  0
   -0.9318    1.5438    2.2321 H   0  0  0  0  0  0  0  0  0  0  0  0
   -1.4658    2.8834    1.1981 H   0  0  0  0  0  0  0  0  0  0  0  0
   -2.9831    0.2397    1.6028 H   0  0  0  0  0  0  0  0  0  0  0  0
   -3.6646    1.7581    0.9959 H   0  0  0  0  0  0  0  0  0  0  0  0
   -2.6952    1.3003   -1.2534 H   0  0  0  0  0  0  0  0  0  0  0  0
  1  2  1  0
  2  3  1  0
  3  4  1  0
  4  5  2  0
  4  6  1  0
  6  7  1  0
  7  8  1  0
  8  9  1  0
  9  2  1  0
  9  6  1  0
  1 10  1  0
  1 11  1  0
  1 12  1  0
  2 13  1  0
  6 14  1  0
  7 15  1  0
  7 16  1  0
  8 17  1  0
  8 18  1  0
  9 19  1  0
M  END
$$$$
