gdb 5459	2.7884125	1.3200852	1.1111184	0.5032	74.68	-0.22787	0.07577	0.30364	1158.6048	0.156309	-422.488932	-422.480442	-422.479498	-422.522017	32.102
 OpenBabel02181911423D

 19 21  0  0  1  0  0  0  0  0999 V2000
    4.4540   -2.0364   -1.2126 C   0  0  0  0  0  0  0  0  0  0  0  0
    3.2993   -2.8634   -0.7521 C   0  0  1  0  0  0  0  0  0  0  0  0
    2.8711   -4.2743   -0.9649 C   0  0  1  0  0  0  0  0  0  0  0  0
    2.7219   -4.5982    0.4189 O   0  0  0  0  0  0  0  0  0  0  0  0
    2.6248   -3.1666    0.6509 C   0  0  2  0  0  0  0  0  0  0  0  0
    1.2424   -2.7899    0.0438 C   0  0  1  0  0  0  0  0  0  0  0  0
    0.8631   -1.3245    0.1955 C   0  0  0  0  0  0  0  0  0  0  0  0
   -0.1731   -0.9282   -0.6930 O   0  0  0  0  0  0  0  0  0  0  0  0
    1.8922   -3.1307   -1.2968 C   0  0  1  0  0  0  0  0  0  0  0  0
    5.3804   -2.3226   -0.7019 H   0  0  0  0  0  0  0  0  0  0  0  0
    4.6117   -2.1686   -2.2885 H   0  0  0  0  0  0  0  0  0  0  0  0
    4.2871   -0.9680   -1.0355 H   0  0  0  0  0  0  0  0  0  0  0  0
    3.1917   -5.0430   -1.6562 H   0  0  0  0  0  0  0  0  0  0  0  0
    2.9439   -2.8612    1.6468 H   0  0  0  0  0  0  0  0  0  0  0  0
    0.4214   -3.4383    0.3798 H   0  0  0  0  0  0  0  0  0  0  0  0
    0.5879   -1.1180    1.2428 H   0  0  0  0  0  0  0  0  0  0  0  0
    1.7179   -0.6843   -0.0493 H   0  0  0  0  0  0  0  0  0  0  0  0
   -0.9502   -1.4590   -0.4898 H   0  0  0  0  0  0  0  0  0  0  0  0
    1.5126   -2.9457   -2.2935 H   0  0  0  0  0  0  0  0  0  0  0  0
  1 12  1  0  0  0  0
  1 10  1  0  0  0  0
  2  1  1  6  0  0  0
  2  5  1  0  0  0  0
  3 13  1  6  0  0  0
  3  2  1  0  0  0  0
  3  4  1  0  0  0  0
  4  5  1  0  0  0  0
  5 14  1  1  0  0  0
  6  7  1  0  0  0  0
  6 15  1  1  0  0  0
  6  5  1  0  0  0  0
  7 16  1  0  0  0  0
  8 18  1  0  0  0  0
  8  7  1  0  0  0  0
  9 19  1  6  0  0  0
  9  3  1  0  0  0  0
  9  2  1  0  0  0  0
  9  6  1  0  0  0  0
 11  1  1  0  0  0  0
 17  7  1  0  0  0  0
M TOR 0 0 1 2 3
M TOR 1 0 1 2 8
M TOR 2 0 1 2 12
M TOR 3 0 1 4 3
M TOR 4 0 1 4 5
M TOR 5 0 1 4 13
M TOR 6 0 1 8 5
M TOR 7 0 1 8 18
M TOR 8 1 2 3 4
M TOR 9 1 2 8 5
M TOR 10 1 2 8 18
M TOR 11 1 4 5 6
M TOR 12 1 4 5 8
M TOR 13 1 4 5 14
M TOR 14 1 8 2 3
M TOR 15 1 8 2 12
M TOR 16 1 8 5 6
M TOR 17 1 8 5 14
M TOR 18 2 1 0 9
M TOR 19 2 1 0 10
M TOR 20 2 1 0 11
M TOR 21 2 1 4 5
M TOR 22 2 1 4 13
M TOR 23 2 3 4 5
M TOR 24 2 3 4 13
M TOR 25 2 8 1 4
M TOR 26 2 8 5 4
M TOR 27 2 8 5 6
M TOR 28 2 8 5 14
M TOR 29 3 2 8 5
M TOR 30 3 2 8 18
M TOR 31 3 4 1 8
M TOR 32 3 4 5 6
M TOR 33 3 4 5 8
M TOR 34 3 4 5 14
M TOR 35 4 1 0 9
M TOR 36 4 1 0 10
M TOR 37 4 1 0 11
M TOR 38 4 1 2 12
M TOR 39 4 1 8 18
M TOR 40 4 3 2 8
M TOR 41 4 3 2 12
M TOR 42 4 5 6 7
M TOR 43 4 5 6 15
M TOR 44 4 5 6 16
M TOR 45 4 5 8 18
M TOR 46 5 6 7 17
M TOR 47 5 8 2 12
M TOR 48 6 5 4 13
M TOR 49 6 5 8 18
M TOR 50 7 6 5 8
M TOR 51 7 6 5 14
M TOR 52 8 1 0 9
M TOR 53 8 1 0 10
M TOR 54 8 1 0 11
M TOR 55 8 1 4 13
M TOR 56 8 5 4 13
M TOR 57 8 5 6 15
M TOR 58 8 5 6 16
M  END
$$$$
