
     RDKit          3D

 19 20  0  0  0  0  0  0  0  0999 V2000
    1.0093   -0.6776   -0.9692 C   0  0  0  0  0  0  0  0  0  0  0  0
    0.8561    0.1057    0.3248 C   0  0  0  0  0  0  0  0  0  0  0  0
    1.7301    1.3993    0.4683 C   0  0  0  0  0  0  0  0  0  0  0  0
    2.8641    0.5392    0.8278 O   0  0  0  0  0  0  0  0  0  0  0  0
    1.8192   -0.2288    1.5342 C   0  0  0  0  0  0  0  0  0  0  0  0
    2.2776   -1.5984    1.9677 C   0  0  0  0  0  0  0  0  0  0  0  0
    2.8824   -2.3212    0.9154 O   0  0  0  0  0  0  0  0  0  0  0  0
    1.3429    0.8023    2.5746 C   0  0  0  0  0  0  0  0  0  0  0  0
    1.2877    1.9180    1.8444 C   0  0  0  0  0  0  0  0  0  0  0  0
    0.6532   -1.7049   -0.8524 H   0  0  0  0  0  0  0  0  0  0  0  0
    0.4180   -0.2054   -1.7621 H   0  0  0  0  0  0  0  0  0  0  0  0
    2.0506   -0.7175   -1.2936 H   0  0  0  0  0  0  0  0  0  0  0  0
   -0.1957    0.2218    0.5998 H   0  0  0  0  0  0  0  0  0  0  0  0
    1.9301    2.0893   -0.3508 H   0  0  0  0  0  0  0  0  0  0  0  0
    2.9644   -1.4837    2.8228 H   0  0  0  0  0  0  0  0  0  0  0  0
    1.4178   -2.1833    2.3136 H   0  0  0  0  0  0  0  0  0  0  0  0
    3.4974   -1.7094    0.4927 H   0  0  0  0  0  0  0  0  0  0  0  0
    1.1137    0.6186    3.6143 H   0  0  0  0  0  0  0  0  0  0  0  0
    0.9962    2.9245    2.1061 H   0  0  0  0  0  0  0  0  0  0  0  0
  1  2  1  0
  2  3  1  0
  3  4  1  0
  4  5  1  0
  5  6  1  0
  6  7  1  0
  5  8  1  0
  8  9  2  0
  5  2  1  0
  9  3  1  0
  1 10  1  0
  1 11  1  0
  1 12  1  0
  2 13  1  0
  3 14  1  0
  6 15  1  0
  6 16  1  0
  7 17  1  0
  8 18  1  0
  9 19  1  0
M  END
$$$$
