
     RDKit          3D

 19 21  0  0  0  0  0  0  0  0999 V2000
   -2.7672    3.8152    1.4625 O   0  0  0  0  0  0  0  0  0  0  0  0
   -1.9095    2.7461    1.6914 C   0  0  0  0  0  0  0  0  0  0  0  0
   -1.4262    1.9704    0.4806 C   0  0  0  0  0  0  0  0  0  0  0  0
   -0.5558    0.9550    1.2520 C   0  0  0  0  0  0  0  0  0  0  0  0
    0.0794    0.0326    0.4114 O   0  0  0  0  0  0  0  0  0  0  0  0
   -1.5627    0.4088    2.3044 C   0  0  0  0  0  0  0  0  0  0  0  0
   -2.0049    1.7617    2.8414 C   0  0  0  0  0  0  0  0  0  0  0  0
   -0.7950    2.7061    2.7194 C   0  0  0  0  0  0  0  0  0  0  0  0
    0.3384    1.8927    2.1127 C   0  0  0  0  0  0  0  0  0  0  0  0
   -2.9922    4.2176    2.3073 H   0  0  0  0  0  0  0  0  0  0  0  0
   -2.2386    1.4866   -0.0695 H   0  0  0  0  0  0  0  0  0  0  0  0
   -0.8374    2.5803   -0.2108 H   0  0  0  0  0  0  0  0  0  0  0  0
    0.5995   -0.5635    0.9607 H   0  0  0  0  0  0  0  0  0  0  0  0
   -2.3692   -0.1617    1.8332 H   0  0  0  0  0  0  0  0  0  0  0  0
   -1.0766   -0.2237    3.0576 H   0  0  0  0  0  0  0  0  0  0  0  0
   -2.7287    1.8799    3.6389 H   0  0  0  0  0  0  0  0  0  0  0  0
   -0.6395    3.5106    3.4283 H   0  0  0  0  0  0  0  0  0  0  0  0
    1.0192    2.4831    1.4915 H   0  0  0  0  0  0  0  0  0  0  0  0
    0.9277    1.3408    2.8555 H   0  0  0  0  0  0  0  0  0  0  0  0
  1  2  1  0
  2  3  1  0
  3  4  1  0
  4  5  1  0
  4  6  1  0
  6  7  1  0
  7  8  1  0
  8  9  1  0
  7  2  1  0
  8  2  1  0
  9  4  1  0
  1 10  1  0
  3 11  1  0
  3 12  1  0
  5 13  1  0
  6 14  1  0
  6 15  1  0
  7 16  1  0
  8 17  1  0
  9 18  1  0
  9 19  1  0
M  END
$$$$
