
     RDKit          3D

 19 21  0  0  0  0  0  0  0  0999 V2000
   -0.1100    0.1326    0.0478 C   0  0  0  0  0  0  0  0  0  0  0  0
    1.3942   -0.0123   -0.0533 C   0  0  0  0  0  0  0  0  0  0  0  0
    2.1941   -0.2227    1.2309 C   0  0  0  0  0  0  0  0  0  0  0  0
    1.6387   -0.6271    2.5649 C   0  0  0  0  0  0  0  0  0  0  0  0
    3.7160   -0.3931    0.8844 C   0  0  0  0  0  0  0  0  0  0  0  0
    3.9340   -0.3395   -0.5361 O   0  0  0  0  0  0  0  0  0  0  0  0
    3.7581    0.8869    0.1888 C   0  0  0  0  0  0  0  0  0  0  0  0
    2.2334    1.1134    0.4825 C   0  0  0  0  0  0  0  0  0  0  0  0
    1.6844    2.3490    0.7653 O   0  0  0  0  0  0  0  0  0  0  0  0
   -0.4089    0.7622    0.8891 H   0  0  0  0  0  0  0  0  0  0  0  0
   -0.5027    0.6007   -0.8603 H   0  0  0  0  0  0  0  0  0  0  0  0
   -0.5917   -0.8450    0.1562 H   0  0  0  0  0  0  0  0  0  0  0  0
    1.7418   -0.5218   -0.9457 H   0  0  0  0  0  0  0  0  0  0  0  0
    1.5936   -1.7193    2.6601 H   0  0  0  0  0  0  0  0  0  0  0  0
    2.2585   -0.2546    3.3901 H   0  0  0  0  0  0  0  0  0  0  0  0
    0.6264   -0.2427    2.7143 H   0  0  0  0  0  0  0  0  0  0  0  0
    4.4565   -0.9117    1.4835 H   0  0  0  0  0  0  0  0  0  0  0  0
    4.5274    1.6467    0.1007 H   0  0  0  0  0  0  0  0  0  0  0  0
    2.0619    2.6759    1.5895 H   0  0  0  0  0  0  0  0  0  0  0  0
  1  2  1  0
  2  3  1  0
  3  4  1  0
  3  5  1  0
  5  6  1  0
  6  7  1  0
  7  8  1  0
  8  9  1  0
  8  2  1  0
  8  3  1  0
  7  5  1  0
  1 10  1  0
  1 11  1  0
  1 12  1  0
  2 13  1  0
  4 14  1  0
  4 15  1  0
  4 16  1  0
  5 17  1  0
  7 18  1  0
  9 19  1  0
M  END
$$$$
