gdb 1504	2.5581857	1.5172671	1.236863	3.4749	75.11	-0.23494	-0.008	0.22694	1079.841	0.156202	-422.588356	-422.579833	-422.578889	-422.620965	33.394
 OpenBabel02181911403D

 19 20  0  0  1  0  0  0  0  0999 V2000
   -3.1807   -1.4034    1.2945 C   0  0  0  0  0  0  0  0  0  0  0  0
   -2.2747   -0.7692    0.2394 C   0  0  2  0  0  0  0  0  0  0  0  0
   -2.8072   -0.9876   -1.0702 O   0  0  0  0  0  0  0  0  0  0  0  0
   -0.8036   -1.2471    0.2911 C   0  0  0  0  0  0  0  0  0  0  0  0
    0.0187   -0.0643   -0.2486 C   0  0  0  0  0  0  0  0  0  0  0  0
    1.0795   -0.1441   -0.8146 O   0  0  0  0  0  0  0  0  0  0  0  0
   -0.7646    1.1840   -0.0011 C   0  0  2  0  0  0  0  0  0  0  0  0
   -1.3138    1.3305    1.4149 C   0  0  0  0  0  0  0  0  0  0  0  0
   -2.1796    0.7545    0.3471 C   0  0  2  0  0  0  0  0  0  0  0  0
   -3.2065   -2.4938    1.1805 H   0  0  0  0  0  0  0  0  0  0  0  0
   -2.8315   -1.1836    2.3079 H   0  0  0  0  0  0  0  0  0  0  0  0
   -4.2019   -1.0257    1.1885 H   0  0  0  0  0  0  0  0  0  0  0  0
   -2.8919   -1.9381   -1.2012 H   0  0  0  0  0  0  0  0  0  0  0  0
   -0.4786   -1.4803    1.3119 H   0  0  0  0  0  0  0  0  0  0  0  0
   -0.6329   -2.1380   -0.3168 H   0  0  0  0  0  0  0  0  0  0  0  0
   -0.5254    2.0705   -0.5735 H   0  0  0  0  0  0  0  0  0  0  0  0
   -0.9178    0.6959    2.2009 H   0  0  0  0  0  0  0  0  0  0  0  0
   -1.5228    2.3456    1.7323 H   0  0  0  0  0  0  0  0  0  0  0  0
   -3.0342    1.3144   -0.0139 H   0  0  0  0  0  0  0  0  0  0  0  0
  1 11  1  0  0  0  0
  2  3  1  6  0  0  0
  2  4  1  0  0  0  0
  2  9  1  0  0  0  0
  2  1  1  0  0  0  0
  4 14  1  0  0  0  0
  5  7  1  0  0  0  0
  5  4  1  0  0  0  0
  6  5  2  0  0  0  0
  7 16  1  6  0  0  0
  7  9  1  0  0  0  0
  7  8  1  0  0  0  0
  8 18  1  0  0  0  0
  8 17  1  0  0  0  0
  9 19  1  6  0  0  0
  9  8  1  0  0  0  0
 10  1  1  0  0  0  0
 12  1  1  0  0  0  0
 13  3  1  0  0  0  0
 15  4  1  0  0  0  0
M TOR 0 0 1 2 12
M TOR 1 0 1 3 4
M TOR 2 0 1 3 13
M TOR 3 0 1 3 14
M TOR 4 0 1 8 6
M TOR 5 0 1 8 7
M TOR 6 0 1 8 18
M TOR 7 1 3 4 5
M TOR 8 1 3 4 6
M TOR 9 1 8 6 4
M TOR 10 1 8 6 7
M TOR 11 1 8 6 15
M TOR 12 1 8 7 16
M TOR 13 1 8 7 17
M TOR 14 2 1 0 9
M TOR 15 2 1 0 10
M TOR 16 2 1 0 11
M TOR 17 2 1 3 4
M TOR 18 2 1 3 13
M TOR 19 2 1 3 14
M TOR 20 2 1 8 6
M TOR 21 2 1 8 7
M TOR 22 2 1 8 18
M TOR 23 3 1 0 9
M TOR 24 3 1 0 10
M TOR 25 3 1 0 11
M TOR 26 3 1 2 12
M TOR 27 3 1 8 6
M TOR 28 3 1 8 7
M TOR 29 3 1 8 18
M TOR 30 3 4 6 7
M TOR 31 3 4 6 8
M TOR 32 3 4 6 15
M TOR 33 4 3 1 8
M TOR 34 4 6 7 8
M TOR 35 4 6 7 16
M TOR 36 4 6 7 17
M TOR 37 4 6 8 18
M TOR 38 5 4 3 13
M TOR 39 5 4 3 14
M TOR 40 5 4 6 7
M TOR 41 5 4 6 8
M TOR 42 5 4 6 15
M TOR 43 6 4 3 13
M TOR 44 6 4 3 14
M TOR 45 6 7 8 18
M TOR 46 6 8 7 16
M TOR 47 6 8 7 17
M TOR 48 7 8 6 15
M TOR 49 8 1 0 9
M TOR 50 8 1 0 10
M TOR 51 8 1 0 11
M TOR 52 8 1 2 12
M TOR 53 8 1 3 13
M TOR 54 8 1 3 14
M  END
$$$$
