gdb 1443	3.1999351	1.4714758	1.3588526	1.8887	76.57	-0.24184	0.06678	0.30862	1031.3415	0.155822	-422.445665	-422.437794	-422.43685	-422.477343	32.026
 OpenBabel02181911403D

 19 21  0  0  1  0  0  0  0  0999 V2000
   -0.1513   -0.2420    0.1419 C   0  0  0  0  0  0  0  0  0  0  0  0
    1.3459   -0.1220   -0.0336 C   0  0  1  0  0  0  0  0  0  0  0  0
    1.9565   -0.7932    1.0113 O   0  0  0  0  0  0  0  0  0  0  0  0
    2.0850   -0.3117   -1.4682 C   0  0  2  0  0  0  0  0  0  0  0  0
    3.2293    0.3853   -0.8790 O   0  0  0  0  0  0  0  0  0  0  0  0
    2.0138    1.2281   -0.5251 C   0  0  2  0  0  0  0  0  0  0  0  0
    2.3803    2.7006   -0.7716 C   0  0  0  0  0  0  0  0  0  0  0  0
    2.3706    2.3147   -2.3051 C   0  0  0  0  0  0  0  0  0  0  0  0
    1.5208    1.0300   -1.9633 C   0  0  1  0  0  0  0  0  0  0  0  0
   -0.4355    0.1631    1.1176 H   0  0  0  0  0  0  0  0  0  0  0  0
   -0.7129    0.2815   -0.6316 H   0  0  0  0  0  0  0  0  0  0  0  0
   -0.4336   -1.2987    0.1279 H   0  0  0  0  0  0  0  0  0  0  0  0
    2.9061   -0.6787    0.8487 H   0  0  0  0  0  0  0  0  0  0  0  0
    2.2865   -1.2581   -1.9799 H   0  0  0  0  0  0  0  0  0  0  0  0
    1.5633    3.3806   -0.5169 H   0  0  0  0  0  0  0  0  0  0  0  0
    3.3131    3.0544   -0.3278 H   0  0  0  0  0  0  0  0  0  0  0  0
    1.8454    3.0167   -2.9548 H   0  0  0  0  0  0  0  0  0  0  0  0
    3.3639    2.1177   -2.7019 H   0  0  0  0  0  0  0  0  0  0  0  0
    0.4599    1.1055   -2.1952 H   0  0  0  0  0  0  0  0  0  0  0  0
  1 10  1  0  0  0  0
  2  1  1  0  0  0  0
  2  3  1  1  0  0  0
  4 14  1  6  0  0  0
  4  5  1  0  0  0  0
  4  2  1  0  0  0  0
  6  5  1  6  0  0  0
  6  2  1  0  0  0  0
  7  6  1  0  0  0  0
  7 15  1  0  0  0  0
  7 16  1  0  0  0  0
  8  9  1  0  0  0  0
  8  7  1  0  0  0  0
  9 19  1  6  0  0  0
  9  4  1  0  0  0  0
  9  6  1  0  0  0  0
 11  1  1  0  0  0  0
 12  1  1  0  0  0  0
 13  3  1  0  0  0  0
 17  8  1  0  0  0  0
 18  8  1  0  0  0  0
M TOR 0 0 1 2 12
M TOR 1 0 1 3 4
M TOR 2 0 1 3 8
M TOR 3 0 1 3 13
M TOR 4 0 1 5 4
M TOR 5 0 1 5 6
M TOR 6 0 1 5 8
M TOR 7 1 3 4 5
M TOR 8 1 3 8 5
M TOR 9 1 3 8 7
M TOR 10 1 3 8 18
M TOR 11 1 5 6 7
M TOR 12 1 5 6 14
M TOR 13 1 5 6 15
M TOR 14 1 5 8 7
M TOR 15 1 5 8 18
M TOR 16 2 1 0 9
M TOR 17 2 1 0 10
M TOR 18 2 1 0 11
M TOR 19 2 1 3 4
M TOR 20 2 1 3 8
M TOR 21 2 1 3 13
M TOR 22 2 1 5 4
M TOR 23 2 1 5 6
M TOR 24 2 1 5 8
M TOR 25 3 1 0 9
M TOR 26 3 1 0 10
M TOR 27 3 1 0 11
M TOR 28 3 1 2 12
M TOR 29 3 1 5 6
M TOR 30 3 4 5 6
M TOR 31 3 4 5 8
M TOR 32 3 8 5 6
M TOR 33 3 8 7 6
M TOR 34 3 8 7 16
M TOR 35 3 8 7 17
M TOR 36 4 3 8 7
M TOR 37 4 3 8 18
M TOR 38 4 5 6 7
M TOR 39 4 5 6 14
M TOR 40 4 5 6 15
M TOR 41 4 5 8 7
M TOR 42 4 5 8 18
M TOR 43 5 1 0 9
M TOR 44 5 1 0 10
M TOR 45 5 1 0 11
M TOR 46 5 1 2 12
M TOR 47 5 1 3 13
M TOR 48 5 4 3 13
M TOR 49 5 6 7 8
M TOR 50 5 6 7 16
M TOR 51 5 6 7 17
M TOR 52 5 8 3 13
M TOR 53 5 8 7 16
M TOR 54 5 8 7 17
M TOR 55 6 5 8 18
M TOR 56 6 7 8 18
M TOR 57 7 8 3 13
M TOR 58 8 5 6 14
M TOR 59 8 5 6 15
M TOR 60 8 7 6 14
M TOR 61 8 7 6 15
M  END
$$$$
