gdb 3511	2.616803	1.4302959	0.9775664	2.6554	77.73	-0.25134	-0.02878	0.22256	1200.5641	0.155919	-422.570537	-422.561602	-422.560658	-422.604772	32.56
 OpenBabel02181911413D

 19 19  0  0  1  0  0  0  0  0999 V2000
    0.8332    0.9636    0.2076 C   0  0  0  0  0  0  0  0  0  0  0  0
    0.9743   -0.5465   -0.0386 C   0  0  2  0  0  0  0  0  0  0  0  0
    1.4950   -1.2543    1.1897 C   0  0  0  0  0  0  0  0  0  0  0  0
    2.4499   -2.1784    1.1456 C   0  0  0  0  0  0  0  0  0  0  0  0
    3.0354   -2.6472   -0.1547 C   0  0  0  0  0  0  0  0  0  0  0  0
    2.2900   -2.2133   -1.2767 O   0  0  0  0  0  0  0  0  0  0  0  0
    1.9237   -0.8471   -1.2233 C   0  0  1  0  0  0  0  0  0  0  0  0
    1.2829   -0.5515   -2.5719 C   0  0  0  0  0  0  0  0  0  0  0  0
    0.9006    0.5331   -2.9273 O   0  0  0  0  0  0  0  0  0  0  0  0
    0.1244    1.1516    1.0203 H   0  0  0  0  0  0  0  0  0  0  0  0
    1.7961    1.3999    0.4959 H   0  0  0  0  0  0  0  0  0  0  0  0
    0.4818    1.4755   -0.6902 H   0  0  0  0  0  0  0  0  0  0  0  0
   -0.0199   -0.9482   -0.2856 H   0  0  0  0  0  0  0  0  0  0  0  0
    1.0672   -0.9481    2.1418 H   0  0  0  0  0  0  0  0  0  0  0  0
    2.8393   -2.6344    2.0517 H   0  0  0  0  0  0  0  0  0  0  0  0
    4.0878   -2.3197   -0.2416 H   0  0  0  0  0  0  0  0  0  0  0  0
    3.0412   -3.7424   -0.2034 H   0  0  0  0  0  0  0  0  0  0  0  0
    2.8183   -0.2073   -1.1219 H   0  0  0  0  0  0  0  0  0  0  0  0
    1.1892   -1.4545   -3.2144 H   0  0  0  0  0  0  0  0  0  0  0  0
  1 11  1  0  0  0  0
  1 10  1  0  0  0  0
  2 13  1  6  0  0  0
  2  1  1  0  0  0  0
  2  3  1  0  0  0  0
  3 14  1  0  0  0  0
  4  3  2  0  0  0  0
  4 15  1  0  0  0  0
  5  4  1  0  0  0  0
  6  7  1  0  0  0  0
  6  5  1  0  0  0  0
  7 18  1  1  0  0  0
  7  2  1  0  0  0  0
  8  7  1  0  0  0  0
  9  8  2  0  0  0  0
 12  1  1  0  0  0  0
 16  5  1  0  0  0  0
 17  5  1  0  0  0  0
 19  8  1  0  0  0  0
M TOR 0 0 1 2 3
M TOR 1 0 1 2 13
M TOR 2 0 1 6 5
M TOR 3 0 1 6 7
M TOR 4 0 1 6 17
M TOR 5 1 2 3 4
M TOR 6 1 2 3 14
M TOR 7 1 6 5 4
M TOR 8 1 6 7 8
M TOR 9 1 6 7 18
M TOR 10 2 1 0 9
M TOR 11 2 1 0 10
M TOR 12 2 1 0 11
M TOR 13 2 1 6 5
M TOR 14 2 1 6 7
M TOR 15 2 1 6 17
M TOR 16 2 3 4 5
M TOR 17 2 3 4 15
M TOR 18 2 3 4 16
M TOR 19 3 2 1 6
M TOR 20 3 2 1 12
M TOR 21 3 4 5 6
M TOR 22 4 3 2 13
M TOR 23 4 5 6 7
M TOR 24 4 5 6 17
M TOR 25 5 4 3 14
M TOR 26 5 6 1 12
M TOR 27 5 6 7 8
M TOR 28 5 6 7 18
M TOR 29 6 1 0 9
M TOR 30 6 1 0 10
M TOR 31 6 1 0 11
M TOR 32 6 1 2 13
M TOR 33 6 5 4 15
M TOR 34 6 5 4 16
M TOR 35 7 6 1 12
M TOR 36 8 7 6 17
M  END
$$$$
