gdb 3894	3.4240498	0.9139654	0.8267398	3.7357	78.05	-0.24676	-0.02087	0.22589	1412.3747	0.155411	-422.540813	-422.531858	-422.530914	-422.574853	33.394
 OpenBabel02181911413D

 19 20  0  0  1  0  0  0  0  0999 V2000
    1.2689   -0.3796   -5.4695 O   0  0  0  0  0  0  0  0  0  0  0  0
    1.0797   -0.2123   -4.0916 C   0  0  1  0  0  0  0  0  0  0  0  0
   -0.2095   -0.7610   -3.4119 C   0  0  0  0  0  0  0  0  0  0  0  0
    0.6688   -1.1724   -2.2228 C   0  0  2  0  0  0  0  0  0  0  0  0
    0.3610   -2.1136   -1.1228 C   0  0  0  0  0  0  0  0  0  0  0  0
    0.4687   -0.6172   -0.8178 C   0  0  1  0  0  0  0  0  0  0  0  0
    1.6309   -0.1567   -0.0301 C   0  0  0  0  0  0  0  0  0  0  0  0
    1.6216    0.7792    0.7318 O   0  0  0  0  0  0  0  0  0  0  0  0
    1.9365   -1.0347   -3.0840 C   0  0  0  0  0  0  0  0  0  0  0  0
    1.1820   -1.3169   -5.6744 H   0  0  0  0  0  0  0  0  0  0  0  0
    1.1884    0.8595   -3.9063 H   0  0  0  0  0  0  0  0  0  0  0  0
   -1.0311   -0.0632   -3.2338 H   0  0  0  0  0  0  0  0  0  0  0  0
   -0.5970   -1.6359   -3.9485 H   0  0  0  0  0  0  0  0  0  0  0  0
   -0.6290   -2.5531   -1.0630 H   0  0  0  0  0  0  0  0  0  0  0  0
    1.1598   -2.7480   -0.7485 H   0  0  0  0  0  0  0  0  0  0  0  0
   -0.4489   -0.0699   -0.6278 H   0  0  0  0  0  0  0  0  0  0  0  0
    2.5561   -0.7612   -0.1852 H   0  0  0  0  0  0  0  0  0  0  0  0
    2.8212   -0.5555   -2.6606 H   0  0  0  0  0  0  0  0  0  0  0  0
    2.2315   -1.9994   -3.5146 H   0  0  0  0  0  0  0  0  0  0  0  0
  1  2  1  0  0  0  0
  2 11  1  1  0  0  0
  2  3  1  0  0  0  0
  2  9  1  0  0  0  0
  3 12  1  0  0  0  0
  4  3  1  6  0  0  0
  4  5  1  0  0  0  0
  4  6  1  0  0  0  0
  5 14  1  0  0  0  0
  5  6  1  0  0  0  0
  5 15  1  0  0  0  0
  6 16  1  1  0  0  0
  6  7  1  0  0  0  0
  7  8  2  0  0  0  0
  9 18  1  0  0  0  0
  9  4  1  0  0  0  0
 10  1  1  0  0  0  0
 13  3  1  0  0  0  0
 17  7  1  0  0  0  0
 19  9  1  0  0  0  0
M TOR 0 0 1 2 3
M TOR 1 0 1 2 11
M TOR 2 0 1 2 12
M TOR 3 0 1 8 3
M TOR 4 0 1 8 17
M TOR 5 0 1 8 18
M TOR 6 1 2 3 4
M TOR 7 1 2 3 5
M TOR 8 1 2 3 8
M TOR 9 1 8 3 4
M TOR 10 1 8 3 5
M TOR 11 2 1 0 9
M TOR 12 2 1 8 17
M TOR 13 2 1 8 18
M TOR 14 2 3 4 5
M TOR 15 2 3 4 13
M TOR 16 2 3 4 14
M TOR 17 2 3 5 6
M TOR 18 2 3 5 15
M TOR 19 2 3 8 17
M TOR 20 2 3 8 18
M TOR 21 3 2 1 10
M TOR 22 3 4 5 6
M TOR 23 3 4 5 15
M TOR 24 3 5 4 13
M TOR 25 3 5 4 14
M TOR 26 3 5 6 7
M TOR 27 3 5 6 16
M TOR 28 3 8 1 10
M TOR 29 4 3 2 11
M TOR 30 4 3 2 12
M TOR 31 4 3 8 17
M TOR 32 4 3 8 18
M TOR 33 4 5 3 8
M TOR 34 4 5 6 7
M TOR 35 4 5 6 16
M TOR 36 5 3 2 11
M TOR 37 5 3 2 12
M TOR 38 5 3 8 17
M TOR 39 5 3 8 18
M TOR 40 6 5 3 8
M TOR 41 6 5 4 13
M TOR 42 6 5 4 14
M TOR 43 7 6 5 15
M TOR 44 8 1 0 9
M TOR 45 8 1 2 11
M TOR 46 8 1 2 12
M TOR 47 8 3 2 11
M TOR 48 8 3 2 12
M TOR 49 8 3 4 13
M TOR 50 8 3 4 14
M TOR 51 8 3 5 15
M  END
$$$$
