
     RDKit          3D

 19 21  0  0  0  0  0  0  0  0999 V2000
   -3.7488   -1.1118    1.7737 C   0  0  0  0  0  0  0  0  0  0  0  0
   -2.3705   -0.5574    1.6020 C   0  0  0  0  0  0  0  0  0  0  0  0
   -1.8315    0.8737    1.8768 C   0  0  0  0  0  0  0  0  0  0  0  0
   -0.7597    0.0691    1.0983 C   0  0  0  0  0  0  0  0  0  0  0  0
   -1.0004   -1.1405    2.0381 C   0  0  0  0  0  0  0  0  0  0  0  0
   -1.8314   -0.4452    0.2135 O   0  0  0  0  0  0  0  0  0  0  0  0
    0.5038    0.5489    0.4789 C   0  0  0  0  0  0  0  0  0  0  0  0
    0.6089    0.7475   -0.9719 C   0  0  0  0  0  0  0  0  0  0  0  0
    1.2064   -0.3868   -0.3391 O   0  0  0  0  0  0  0  0  0  0  0  0
   -4.0172   -1.1365    2.8346 H   0  0  0  0  0  0  0  0  0  0  0  0
   -4.4806   -0.4935    1.2451 H   0  0  0  0  0  0  0  0  0  0  0  0
   -3.8033   -2.1305    1.3784 H   0  0  0  0  0  0  0  0  0  0  0  0
   -2.3170    1.6681    1.3076 H   0  0  0  0  0  0  0  0  0  0  0  0
   -1.6172    1.1542    2.9117 H   0  0  0  0  0  0  0  0  0  0  0  0
   -0.7472   -2.1085    1.6050 H   0  0  0  0  0  0  0  0  0  0  0  0
   -0.7100   -1.0449    3.0877 H   0  0  0  0  0  0  0  0  0  0  0  0
    1.1377    1.1397    1.1422 H   0  0  0  0  0  0  0  0  0  0  0  0
   -0.2586    0.5287   -1.5897 H   0  0  0  0  0  0  0  0  0  0  0  0
    1.3052    1.4872   -1.3643 H   0  0  0  0  0  0  0  0  0  0  0  0
  1  2  1  0
  2  3  1  0
  3  4  1  0
  4  5  1  0
  4  6  1  0
  4  7  1  0
  7  8  1  0
  8  9  1  0
  5  2  1  0
  9  7  1  0
  6  2  1  0
  1 10  1  0
  1 11  1  0
  1 12  1  0
  3 13  1  0
  3 14  1  0
  5 15  1  0
  5 16  1  0
  7 17  1  0
  8 18  1  0
  8 19  1  0
M  END
$$$$
