gdb 3483	2.977565	1.6554036	1.4272834	1.8429	74.63	-0.24253	0.00591	0.24844	987.5442	0.159409	-422.573193	-422.56578	-422.564836	-422.604745	29.399
 OpenBabel02181911413D

 19 20  0  0  1  0  0  0  0  0999 V2000
    2.5042   -0.7148   -1.3941 C   0  0  0  0  0  0  0  0  0  0  0  0
    1.8141    0.1283   -0.3089 C   0  0  2  0  0  0  0  0  0  0  0  0
    2.3970    1.5253   -0.2354 C   0  0  0  0  0  0  0  0  0  0  0  0
    3.0583    1.9428    0.8426 C   0  0  0  0  0  0  0  0  0  0  0  0
    3.2041    1.0021    2.0257 C   0  0  1  0  0  0  0  0  0  0  0  0
    2.0428    1.0530    2.8462 O   0  0  0  0  0  0  0  0  0  0  0  0
    1.0911    0.2259    2.1705 C   0  0  0  0  0  0  0  0  0  0  0  0
    1.9270   -0.5152    1.0870 C   0  0  2  0  0  0  0  0  0  0  0  0
    3.2617   -0.3338    1.5724 O   0  0  0  0  0  0  0  0  0  0  0  0
    2.0187   -1.6906   -1.5024 H   0  0  0  0  0  0  0  0  0  0  0  0
    2.4679   -0.2113   -2.3653 H   0  0  0  0  0  0  0  0  0  0  0  0
    3.5536   -0.8781   -1.1337 H   0  0  0  0  0  0  0  0  0  0  0  0
    0.7463    0.2064   -0.5595 H   0  0  0  0  0  0  0  0  0  0  0  0
    2.2724    2.1677   -1.1038 H   0  0  0  0  0  0  0  0  0  0  0  0
    3.4613    2.9467    0.9279 H   0  0  0  0  0  0  0  0  0  0  0  0
    4.0784    1.2087    2.6461 H   0  0  0  0  0  0  0  0  0  0  0  0
    0.6557   -0.4618    2.9016 H   0  0  0  0  0  0  0  0  0  0  0  0
    0.2914    0.8309    1.7272 H   0  0  0  0  0  0  0  0  0  0  0  0
    1.7236   -1.5879    1.0530 H   0  0  0  0  0  0  0  0  0  0  0  0
  1 12  1  0  0  0  0
  1  2  1  0  0  0  0
  2 13  1  6  0  0  0
  2  3  1  0  0  0  0
  2  8  1  0  0  0  0
  3  4  2  0  0  0  0
  4 15  1  0  0  0  0
  4  5  1  0  0  0  0
  5 16  1  1  0  0  0
  5  6  1  0  0  0  0
  7  6  1  0  0  0  0
  7 17  1  0  0  0  0
  8 19  1  6  0  0  0
  8  9  1  0  0  0  0
  8  7  1  0  0  0  0
  9  5  1  0  0  0  0
 10  1  1  0  0  0  0
 11  1  1  0  0  0  0
 14  3  1  0  0  0  0
 18  7  1  0  0  0  0
M TOR 0 0 1 2 3
M TOR 1 0 1 2 13
M TOR 2 0 1 7 6
M TOR 3 0 1 7 8
M TOR 4 0 1 7 18
M TOR 5 1 2 3 4
M TOR 6 1 2 3 14
M TOR 7 1 7 6 5
M TOR 8 1 7 6 16
M TOR 9 1 7 6 17
M TOR 10 1 7 8 4
M TOR 11 2 1 0 9
M TOR 12 2 1 0 10
M TOR 13 2 1 0 11
M TOR 14 2 1 7 6
M TOR 15 2 1 7 8
M TOR 16 2 1 7 18
M TOR 17 2 3 4 5
M TOR 18 2 3 4 8
M TOR 19 2 3 4 15
M TOR 20 3 2 1 7
M TOR 21 3 2 1 12
M TOR 22 3 4 5 6
M TOR 23 3 4 8 7
M TOR 24 4 3 2 13
M TOR 25 4 5 6 7
M TOR 26 4 5 6 16
M TOR 27 4 5 6 17
M TOR 28 4 8 7 6
M TOR 29 4 8 7 18
M TOR 30 5 4 3 14
M TOR 31 5 4 8 7
M TOR 32 5 6 7 8
M TOR 33 5 6 7 18
M TOR 34 6 5 4 8
M TOR 35 6 5 4 15
M TOR 36 6 7 1 12
M TOR 37 7 1 0 9
M TOR 38 7 1 0 10
M TOR 39 7 1 0 11
M TOR 40 7 1 2 13
M TOR 41 7 8 4 15
M TOR 42 8 4 3 14
M TOR 43 8 7 1 12
M TOR 44 8 7 6 16
M TOR 45 8 7 6 17
M  END
$$$$
