gdb 2382	3.5003826	1.0483631	0.9106382	2.7185	76.6	-0.23388	-0.02514	0.20874	1300.3183	0.154549	-422.523839	-422.514629	-422.513685	-422.558539	33.062
 OpenBabel02181911413D

 19 20  0  0  1  0  0  0  0  0999 V2000
   -3.2688    0.6742   -0.0719 C   0  0  0  0  0  0  0  0  0  0  0  0
   -2.5355    1.9534   -0.3126 C   0  0  2  0  0  0  0  0  0  0  0  0
   -3.0429    3.1244    0.3497 O   0  0  0  0  0  0  0  0  0  0  0  0
   -2.7690    3.9338   -0.8258 C   0  0  0  0  0  0  0  0  0  0  0  0
   -2.1136    2.7576   -1.5299 C   0  0  1  0  0  0  0  0  0  0  0  0
   -1.0704    2.1535   -0.6010 C   0  0  2  0  0  0  0  0  0  0  0  0
   -0.2560    0.9953   -1.1559 C   0  0  0  0  0  0  0  0  0  0  0  0
    0.2008    0.0622   -0.0532 C   0  0  0  0  0  0  0  0  0  0  0  0
   -0.0754   -1.1080    0.0114 O   0  0  0  0  0  0  0  0  0  0  0  0
   -3.2746    0.4502    1.0009 H   0  0  0  0  0  0  0  0  0  0  0  0
   -4.3081    0.7501   -0.4057 H   0  0  0  0  0  0  0  0  0  0  0  0
   -2.7919   -0.1656   -0.5824 H   0  0  0  0  0  0  0  0  0  0  0  0
   -3.7046    4.2634   -1.2921 H   0  0  0  0  0  0  0  0  0  0  0  0
   -2.1438    4.8053   -0.5964 H   0  0  0  0  0  0  0  0  0  0  0  0
   -2.1577    2.5267   -2.5864 H   0  0  0  0  0  0  0  0  0  0  0  0
   -0.5268    2.8249    0.0631 H   0  0  0  0  0  0  0  0  0  0  0  0
   -0.8235    0.4122   -1.8869 H   0  0  0  0  0  0  0  0  0  0  0  0
    0.6354    1.3925   -1.6623 H   0  0  0  0  0  0  0  0  0  0  0  0
    0.8207    0.5486    0.7356 H   0  0  0  0  0  0  0  0  0  0  0  0
  1 10  1  0  0  0  0
  2  1  1  6  0  0  0
  2  3  1  0  0  0  0
  4 14  1  0  0  0  0
  4  3  1  0  0  0  0
  5 15  1  6  0  0  0
  5  4  1  0  0  0  0
  5  6  1  0  0  0  0
  5  2  1  0  0  0  0
  6  2  1  0  0  0  0
  6 16  1  1  0  0  0
  7  6  1  0  0  0  0
  7  8  1  0  0  0  0
  8  9  2  0  0  0  0
  8 19  1  0  0  0  0
 11  1  1  0  0  0  0
 12  1  1  0  0  0  0
 13  4  1  0  0  0  0
 17  7  1  0  0  0  0
 18  7  1  0  0  0  0
M TOR 0 0 1 2 3
M TOR 1 0 1 4 3
M TOR 2 0 1 4 5
M TOR 3 0 1 4 14
M TOR 4 0 1 5 6
M TOR 5 0 1 5 15
M TOR 6 1 2 3 4
M TOR 7 1 2 3 12
M TOR 8 1 2 3 13
M TOR 9 1 4 3 12
M TOR 10 1 4 3 13
M TOR 11 1 4 5 6
M TOR 12 1 4 5 15
M TOR 13 1 5 4 3
M TOR 14 1 5 4 14
M TOR 15 1 5 6 7
M TOR 16 1 5 6 16
M TOR 17 1 5 6 17
M TOR 18 2 1 0 9
M TOR 19 2 1 0 10
M TOR 20 2 1 0 11
M TOR 21 2 1 4 5
M TOR 22 2 1 4 14
M TOR 23 2 1 5 6
M TOR 24 2 1 5 15
M TOR 25 2 3 4 5
M TOR 26 2 3 4 14
M TOR 27 3 2 1 5
M TOR 28 3 4 5 6
M TOR 29 3 4 5 15
M TOR 30 4 1 0 9
M TOR 31 4 1 0 10
M TOR 32 4 1 0 11
M TOR 33 4 5 6 7
M TOR 34 4 5 6 16
M TOR 35 4 5 6 17
M TOR 36 5 1 0 9
M TOR 37 5 1 0 10
M TOR 38 5 1 0 11
M TOR 39 5 4 3 12
M TOR 40 5 4 3 13
M TOR 41 5 6 7 8
M TOR 42 5 6 7 18
M TOR 43 6 5 4 14
M TOR 44 7 6 5 15
M TOR 45 8 7 6 16
M TOR 46 8 7 6 17
M  END
$$$$
