
     RDKit          3D

 19 19  0  0  0  0  0  0  0  0999 V2000
   -0.3321    0.7874    0.2294 C   0  0  0  0  0  0  0  0  0  0  0  0
    0.8570    1.7590    0.1299 C   0  0  0  0  0  0  0  0  0  0  0  0
    1.9655    1.3019    1.0603 C   0  0  0  0  0  0  0  0  0  0  0  0
    3.0377    0.8884    0.6980 O   0  0  0  0  0  0  0  0  0  0  0  0
    0.4173    3.2049    0.4561 C   0  0  0  0  0  0  0  0  0  0  0  0
   -0.1210    3.2765    1.7809 O   0  0  0  0  0  0  0  0  0  0  0  0
    0.5102    4.3204    2.5228 C   0  0  0  0  0  0  0  0  0  0  0  0
    1.5795    4.8531    1.6122 C   0  0  0  0  0  0  0  0  0  0  0  0
    1.5249    4.2267    0.4430 C   0  0  0  0  0  0  0  0  0  0  0  0
   -0.7400    0.7784    1.2439 H   0  0  0  0  0  0  0  0  0  0  0  0
   -1.1319    1.0977   -0.4507 H   0  0  0  0  0  0  0  0  0  0  0  0
   -0.0328   -0.2299   -0.0380 H   0  0  0  0  0  0  0  0  0  0  0  0
    1.2654    1.7478   -0.8870 H   0  0  0  0  0  0  0  0  0  0  0  0
    1.7033    1.3523    2.1405 H   0  0  0  0  0  0  0  0  0  0  0  0
   -0.3742    3.4708   -0.2667 H   0  0  0  0  0  0  0  0  0  0  0  0
   -0.2300    5.0904    2.7932 H   0  0  0  0  0  0  0  0  0  0  0  0
    0.9129    3.9130    3.4623 H   0  0  0  0  0  0  0  0  0  0  0  0
    2.2671    5.6377    1.9009 H   0  0  0  0  0  0  0  0  0  0  0  0
    2.1581    4.3937   -0.4188 H   0  0  0  0  0  0  0  0  0  0  0  0
  1  2  1  0
  2  3  1  0
  3  4  2  0
  2  5  1  0
  5  6  1  0
  6  7  1  0
  7  8  1  0
  8  9  2  0
  9  5  1  0
  1 10  1  0
  1 11  1  0
  1 12  1  0
  2 13  1  0
  3 14  1  0
  5 15  1  0
  7 16  1  0
  7 17  1  0
  8 18  1  0
  9 19  1  0
M  END
$$$$
