gdb 41	3.9929417	0.8483133	0.7770541	1.7207	79.58	-0.2189	0.0131	0.232	1531.5112	0.156724	-422.584552	-422.575125	-422.57418	-422.619799	33.581
 OpenBabel02181911403D

 19 19  0  0  0  0  0  0  0  0999 V2000
    1.5051   -0.8207    0.6701 C   0  0  0  0  0  0  0  0  0  0  0  0
    0.8993    0.3074   -0.1813 C   0  0  0  0  0  0  0  0  0  0  0  0
    1.6915    1.5806   -0.1306 C   0  0  0  0  0  0  0  0  0  0  0  0
    1.3099    2.7695    0.4076 C   0  0  0  0  0  0  0  0  0  0  0  0
    2.2905    3.7063    0.2770 O   0  0  0  0  0  0  0  0  0  0  0  0
    3.3390    3.0999   -0.3576 C   0  0  0  0  0  0  0  0  0  0  0  0
    4.5414    3.9503   -0.5787 C   0  0  0  0  0  0  0  0  0  0  0  0
    5.2114    4.3032    0.6275 O   0  0  0  0  0  0  0  0  0  0  0  0
    3.0252    1.8052   -0.6253 C   0  0  0  0  0  0  0  0  0  0  0  0
    1.5567   -0.5296    1.7237 H   0  0  0  0  0  0  0  0  0  0  0  0
    0.9036   -1.7321    0.5954 H   0  0  0  0  0  0  0  0  0  0  0  0
    2.5217   -1.0609    0.3431 H   0  0  0  0  0  0  0  0  0  0  0  0
    0.8194   -0.0328   -1.2218 H   0  0  0  0  0  0  0  0  0  0  0  0
   -0.1249    0.5080    0.1531 H   0  0  0  0  0  0  0  0  0  0  0  0
    0.4067    3.0997    0.8951 H   0  0  0  0  0  0  0  0  0  0  0  0
    5.2628    3.3923   -1.1812 H   0  0  0  0  0  0  0  0  0  0  0  0
    4.2608    4.8525   -1.1450 H   0  0  0  0  0  0  0  0  0  0  0  0
    4.5618    4.7307    1.1956 H   0  0  0  0  0  0  0  0  0  0  0  0
    3.6646    1.0886   -1.1187 H   0  0  0  0  0  0  0  0  0  0  0  0
  1 10  1  0  0  0  0
  2  3  1  0  0  0  0
  2 14  1  0  0  0  0
  2  1  1  0  0  0  0
  3  4  2  0  0  0  0
  4 15  1  0  0  0  0
  5  4  1  0  0  0  0
  6  5  1  0  0  0  0
  7  6  1  0  0  0  0
  7  8  1  0  0  0  0
  8 18  1  0  0  0  0
  9  6  2  0  0  0  0
  9  3  1  0  0  0  0
 11  1  1  0  0  0  0
 12  1  1  0  0  0  0
 13  2  1  0  0  0  0
 16  7  1  0  0  0  0
 17  7  1  0  0  0  0
 19  9  1  0  0  0  0
M TOR 0 0 1 2 3
M TOR 1 0 1 2 8
M TOR 2 1 2 3 4
M TOR 3 1 2 3 14
M TOR 4 1 2 8 5
M TOR 5 1 2 8 18
M TOR 6 2 1 0 9
M TOR 7 2 1 0 10
M TOR 8 2 1 0 11
M TOR 9 2 3 4 5
M TOR 10 2 8 5 4
M TOR 11 2 8 5 6
M TOR 12 3 2 1 12
M TOR 13 3 2 1 13
M TOR 14 3 2 8 5
M TOR 15 3 2 8 18
M TOR 16 3 4 5 6
M TOR 17 3 4 5 8
M TOR 18 4 3 2 8
M TOR 19 4 5 6 7
M TOR 20 4 5 6 15
M TOR 21 4 5 6 16
M TOR 22 4 5 8 18
M TOR 23 5 4 3 14
M TOR 24 5 6 7 17
M TOR 25 6 5 8 18
M TOR 26 7 6 5 8
M TOR 27 8 2 1 12
M TOR 28 8 2 1 13
M TOR 29 8 2 3 14
M TOR 30 8 5 6 15
M TOR 31 8 5 6 16
M  END
$$$$
