gdb 4397	3.0596356	1.0761234	0.8818704	1.1518	77.54	-0.25166	0.05293	0.30458999999999997	1306.6417	0.155241	-422.530984	-422.521617	-422.520673	-422.566051	33.867
 OpenBabel02181911413D

 19 19  0  0  1  0  0  0  0  0999 V2000
    3.4817   -2.4464    3.7579 C   0  0  0  0  0  0  0  0  0  0  0  0
    3.6450   -2.6335    2.2673 C   0  0  2  0  0  0  0  0  0  0  0  0
    4.7846   -1.9478    1.7993 O   0  0  0  0  0  0  0  0  0  0  0  0
    4.5403   -1.7534    0.4172 C   0  0  0  0  0  0  0  0  0  0  0  0
    3.0176   -1.4973    0.3578 C   0  0  2  0  0  0  0  0  0  0  0  0
    2.6648    0.0010    0.3233 C   0  0  0  0  0  0  0  0  0  0  0  0
    1.2322    0.2588    0.3700 C   0  0  0  0  0  0  0  0  0  0  0  0
    0.0486    0.4644    0.3891 C   0  0  0  0  0  0  0  0  0  0  0  0
    2.5388   -2.0805    1.5664 O   0  0  0  0  0  0  0  0  0  0  0  0
    4.3356   -2.8793    4.2853 H   0  0  0  0  0  0  0  0  0  0  0  0
    3.4142   -1.3811    3.9909 H   0  0  0  0  0  0  0  0  0  0  0  0
    2.5695   -2.9447    4.0948 H   0  0  0  0  0  0  0  0  0  0  0  0
    3.7295   -3.7062    2.0079 H   0  0  0  0  0  0  0  0  0  0  0  0
    5.1437   -0.9108    0.0717 H   0  0  0  0  0  0  0  0  0  0  0  0
    4.8108   -2.6490   -0.1619 H   0  0  0  0  0  0  0  0  0  0  0  0
    2.5549   -2.0007   -0.4995 H   0  0  0  0  0  0  0  0  0  0  0  0
    3.1665    0.4882    1.1684 H   0  0  0  0  0  0  0  0  0  0  0  0
    3.0856    0.4358   -0.5933 H   0  0  0  0  0  0  0  0  0  0  0  0
   -0.9969    0.6463    0.4174 H   0  0  0  0  0  0  0  0  0  0  0  0
  1 11  1  0  0  0  0
  1 12  1  0  0  0  0
  1 10  1  0  0  0  0
  2 13  1  6  0  0  0
  2  1  1  0  0  0  0
  3  2  1  0  0  0  0
  4  3  1  0  0  0  0
  5 16  1  6  0  0  0
  5  4  1  0  0  0  0
  5  9  1  0  0  0  0
  6  5  1  0  0  0  0
  6  7  1  0  0  0  0
  6 17  1  0  0  0  0
  7  8  3  0  0  0  0
  8 19  1  0  0  0  0
  9  2  1  0  0  0  0
 14  4  1  0  0  0  0
 15  4  1  0  0  0  0
 18  6  1  0  0  0  0
M TOR 0 0 1 2 3
M TOR 1 0 1 8 4
M TOR 2 1 2 3 4
M TOR 3 1 2 3 13
M TOR 4 1 2 3 14
M TOR 5 1 8 4 3
M TOR 6 1 8 4 5
M TOR 7 1 8 4 15
M TOR 8 2 1 0 9
M TOR 9 2 1 0 10
M TOR 10 2 1 0 11
M TOR 11 2 1 8 4
M TOR 12 2 3 4 5
M TOR 13 2 3 4 8
M TOR 14 2 3 4 15
M TOR 15 3 2 1 8
M TOR 16 3 2 1 12
M TOR 17 3 4 5 6
M TOR 18 3 4 5 16
M TOR 19 3 4 5 17
M TOR 20 4 5 6 7
M TOR 21 4 8 1 12
M TOR 22 5 4 3 13
M TOR 23 5 4 3 14
M TOR 24 5 6 7 18
M TOR 25 6 5 4 8
M TOR 26 6 5 4 15
M TOR 27 7 6 5 16
M TOR 28 7 6 5 17
M TOR 29 8 1 0 9
M TOR 30 8 1 0 10
M TOR 31 8 1 0 11
M TOR 32 8 4 3 13
M TOR 33 8 4 3 14
M TOR 34 8 4 5 16
M TOR 35 8 4 5 17
M  END
$$$$
