
     RDKit          3D

 19 21  0  0  0  0  0  0  0  0999 V2000
   -0.0499    0.1356   -0.1434 C   0  0  0  0  0  0  0  0  0  0  0  0
    1.4569    0.0153   -0.1140 C   0  0  0  0  0  0  0  0  0  0  0  0
    2.2543    1.2702    0.3506 C   0  0  0  0  0  0  0  0  0  0  0  0
    2.7837    0.5763    1.5203 O   0  0  0  0  0  0  0  0  0  0  0  0
    2.2644   -0.6403    1.0395 C   0  0  0  0  0  0  0  0  0  0  0  0
    1.8331   -1.8856    1.7832 C   0  0  0  0  0  0  0  0  0  0  0  0
    2.1827   -2.6738    0.6101 O   0  0  0  0  0  0  0  0  0  0  0  0
    2.9319   -1.5840    0.0032 C   0  0  0  0  0  0  0  0  0  0  0  0
    2.1779   -0.8958   -1.1584 C   0  0  0  0  0  0  0  0  0  0  0  0
   -0.4301    0.6325    0.7559 H   0  0  0  0  0  0  0  0  0  0  0  0
   -0.3797    0.7198   -1.0111 H   0  0  0  0  0  0  0  0  0  0  0  0
   -0.5204   -0.8508   -0.2124 H   0  0  0  0  0  0  0  0  0  0  0  0
    3.0565    1.6022   -0.3191 H   0  0  0  0  0  0  0  0  0  0  0  0
    1.6458    2.1304    0.6488 H   0  0  0  0  0  0  0  0  0  0  0  0
    2.4648   -2.1403    2.6455 H   0  0  0  0  0  0  0  0  0  0  0  0
    0.7769   -1.9883    2.0570 H   0  0  0  0  0  0  0  0  0  0  0  0
    3.9996   -1.8050   -0.0771 H   0  0  0  0  0  0  0  0  0  0  0  0
    2.8168   -0.3684   -1.8737 H   0  0  0  0  0  0  0  0  0  0  0  0
    1.5154   -1.5735   -1.7028 H   0  0  0  0  0  0  0  0  0  0  0  0
  1  2  1  0
  2  3  1  0
  3  4  1  0
  4  5  1  0
  5  6  1  0
  6  7  1  0
  7  8  1  0
  8  9  1  0
  5  2  1  0
  8  5  1  0
  9  2  1  0
  1 10  1  0
  1 11  1  0
  1 12  1  0
  3 13  1  0
  3 14  1  0
  6 15  1  0
  6 16  1  0
  8 17  1  0
  9 18  1  0
  9 19  1  0
M  END
$$$$
