gdb 3611	2.8738292	1.0418712	0.9057512	2.5177	77.05	-0.249	0.04775	0.29675	1338.0336	0.154921	-422.512984	-422.503482	-422.502538	-422.547378	35.611
 OpenBabel02181911413D

 19 19  0  0  1  0  0  0  0  0999 V2000
    2.6078    3.6587    0.7799 O   0  0  0  0  0  0  0  0  0  0  0  0
    2.7776    2.5438   -0.0630 C   0  0  1  0  0  0  0  0  0  0  0  0
    4.1960    2.4410   -0.6998 C   0  0  0  0  0  0  0  0  0  0  0  0
    4.5909    1.4737    0.4375 C   0  0  1  0  0  0  0  0  0  0  0  0
    5.1843    2.2484    1.4755 O   0  0  0  0  0  0  0  0  0  0  0  0
    3.0765    1.2111    0.7006 C   0  0  2  0  0  0  0  0  0  0  0  0
    2.5397   -0.0602    0.0240 C   0  0  0  0  0  0  0  0  0  0  0  0
    1.0869   -0.1668    0.0914 C   0  0  0  0  0  0  0  0  0  0  0  0
   -0.1112   -0.2302    0.1611 C   0  0  0  0  0  0  0  0  0  0  0  0
    3.3893    3.6966    1.3466 H   0  0  0  0  0  0  0  0  0  0  0  0
    1.9193    2.5277   -0.7386 H   0  0  0  0  0  0  0  0  0  0  0  0
    4.1912    1.9530   -1.6775 H   0  0  0  0  0  0  0  0  0  0  0  0
    4.7715    3.3670   -0.7581 H   0  0  0  0  0  0  0  0  0  0  0  0
    5.2165    0.6067    0.1847 H   0  0  0  0  0  0  0  0  0  0  0  0
    5.2054    1.7109    2.2750 H   0  0  0  0  0  0  0  0  0  0  0  0
    2.7807    1.2288    1.7543 H   0  0  0  0  0  0  0  0  0  0  0  0
    2.8556   -0.0861   -1.0276 H   0  0  0  0  0  0  0  0  0  0  0  0
    2.9959   -0.9420    0.4939 H   0  0  0  0  0  0  0  0  0  0  0  0
   -1.1696   -0.2918    0.2185 H   0  0  0  0  0  0  0  0  0  0  0  0
  1 10  1  0  0  0  0
  2 11  1  6  0  0  0
  2  6  1  0  0  0  0
  2  1  1  0  0  0  0
  3  2  1  0  0  0  0
  3  4  1  0  0  0  0
  4 14  1  6  0  0  0
  4  6  1  0  0  0  0
  4  5  1  0  0  0  0
  5 15  1  0  0  0  0
  6 16  1  1  0  0  0
  7  8  1  0  0  0  0
  7 18  1  0  0  0  0
  7  6  1  0  0  0  0
  8  9  3  0  0  0  0
  9 19  1  0  0  0  0
 12  3  1  0  0  0  0
 13  3  1  0  0  0  0
 17  7  1  0  0  0  0
M TOR 0 0 1 2 3
M TOR 1 0 1 2 11
M TOR 2 0 1 2 12
M TOR 3 0 1 5 3
M TOR 4 0 1 5 6
M TOR 5 0 1 5 15
M TOR 6 1 2 3 4
M TOR 7 1 2 3 5
M TOR 8 1 2 3 13
M TOR 9 1 5 3 4
M TOR 10 1 5 3 13
M TOR 11 1 5 6 7
M TOR 12 1 5 6 16
M TOR 13 1 5 6 17
M TOR 14 2 1 0 9
M TOR 15 2 1 5 6
M TOR 16 2 1 5 15
M TOR 17 2 3 4 14
M TOR 18 2 3 5 6
M TOR 19 2 3 5 15
M TOR 20 3 2 1 10
M TOR 21 3 5 1 10
M TOR 22 3 5 6 7
M TOR 23 3 5 6 16
M TOR 24 3 5 6 17
M TOR 25 4 3 2 11
M TOR 26 4 3 2 12
M TOR 27 4 3 5 6
M TOR 28 4 3 5 15
M TOR 29 5 1 0 9
M TOR 30 5 1 2 11
M TOR 31 5 1 2 12
M TOR 32 5 3 2 11
M TOR 33 5 3 2 12
M TOR 34 5 3 4 14
M TOR 35 5 6 7 8
M TOR 36 6 5 1 10
M TOR 37 6 5 3 13
M TOR 38 6 7 8 18
M TOR 39 7 6 5 15
M TOR 40 8 7 6 16
M TOR 41 8 7 6 17
M  END
$$$$
