
     RDKit          3D

 19 19  0  0  0  0  0  0  0  0999 V2000
   -0.0247    2.9139   -0.1805 O   0  0  0  0  0  0  0  0  0  0  0  0
   -1.0235    2.2051    0.5506 C   0  0  0  0  0  0  0  0  0  0  0  0
   -0.4188    0.9260    1.1728 C   0  0  0  0  0  0  0  0  0  0  0  0
    0.2052    0.0002    0.1496 C   0  0  0  0  0  0  0  0  0  0  0  0
   -0.0015   -1.1860    0.0902 O   0  0  0  0  0  0  0  0  0  0  0  0
   -2.1772    1.8594   -0.4318 C   0  0  0  0  0  0  0  0  0  0  0  0
   -3.4264    2.1396    0.3625 C   0  0  0  0  0  0  0  0  0  0  0  0
   -3.1681    2.7949    1.4930 C   0  0  0  0  0  0  0  0  0  0  0  0
   -1.6961    3.0730    1.6585 C   0  0  0  0  0  0  0  0  0  0  0  0
    0.6518    3.2062    0.4404 H   0  0  0  0  0  0  0  0  0  0  0  0
    0.3740    1.2237    1.8769 H   0  0  0  0  0  0  0  0  0  0  0  0
   -1.1740    0.3722    1.7384 H   0  0  0  0  0  0  0  0  0  0  0  0
    0.8913    0.5029   -0.5649 H   0  0  0  0  0  0  0  0  0  0  0  0
   -2.1038    2.5080   -1.3135 H   0  0  0  0  0  0  0  0  0  0  0  0
   -2.1228    0.8268   -0.7948 H   0  0  0  0  0  0  0  0  0  0  0  0
   -4.4124    1.8527    0.0148 H   0  0  0  0  0  0  0  0  0  0  0  0
   -3.9100    3.1284    2.2099 H   0  0  0  0  0  0  0  0  0  0  0  0
   -1.4681    4.1324    1.4767 H   0  0  0  0  0  0  0  0  0  0  0  0
   -1.3201    2.8328    2.6608 H   0  0  0  0  0  0  0  0  0  0  0  0
  1  2  1  0
  2  3  1  0
  3  4  1  0
  4  5  2  0
  2  6  1  0
  6  7  1  0
  7  8  2  0
  8  9  1  0
  9  2  1  0
  1 10  1  0
  3 11  1  0
  3 12  1  0
  4 13  1  0
  6 14  1  0
  6 15  1  0
  7 16  1  0
  8 17  1  0
  9 18  1  0
  9 19  1  0
M  END
$$$$
