
     RDKit          3D

 19 20  0  0  0  0  0  0  0  0999 V2000
   -0.2293   -0.9315    2.6596 C   0  0  0  0  0  0  0  0  0  0  0  0
    0.0860   -2.3230    2.4718 O   0  0  0  0  0  0  0  0  0  0  0  0
   -0.3429   -2.2836    1.0987 C   0  0  0  0  0  0  0  0  0  0  0  0
   -0.8864   -0.8348    1.2534 C   0  0  0  0  0  0  0  0  0  0  0  0
   -0.4353    0.2207    0.3058 C   0  0  0  0  0  0  0  0  0  0  0  0
   -1.1934    1.0741   -0.3807 C   0  0  0  0  0  0  0  0  0  0  0  0
   -0.3413    1.9752   -1.2234 C   0  0  0  0  0  0  0  0  0  0  0  0
    0.9997    1.5669   -0.9648 O   0  0  0  0  0  0  0  0  0  0  0  0
    1.0143    0.4921   -0.0330 C   0  0  0  0  0  0  0  0  0  0  0  0
   -0.8956   -0.7681    3.5141 H   0  0  0  0  0  0  0  0  0  0  0  0
    0.6725   -0.3189    2.7903 H   0  0  0  0  0  0  0  0  0  0  0  0
    0.4986   -2.3883    0.4012 H   0  0  0  0  0  0  0  0  0  0  0  0
   -1.0877   -3.0554    0.8738 H   0  0  0  0  0  0  0  0  0  0  0  0
   -1.9762   -0.8221    1.3218 H   0  0  0  0  0  0  0  0  0  0  0  0
   -2.2747    1.1335   -0.3551 H   0  0  0  0  0  0  0  0  0  0  0  0
   -0.5609    1.8801   -2.2991 H   0  0  0  0  0  0  0  0  0  0  0  0
   -0.4656    3.0389   -0.9638 H   0  0  0  0  0  0  0  0  0  0  0  0
    1.5118   -0.3827   -0.4814 H   0  0  0  0  0  0  0  0  0  0  0  0
    1.6068    0.7745    0.8519 H   0  0  0  0  0  0  0  0  0  0  0  0
  1  2  1  0
  2  3  1  0
  3  4  1  0
  4  5  1  0
  5  6  2  0
  6  7  1  0
  7  8  1  0
  8  9  1  0
  4  1  1  0
  9  5  1  0
  1 10  1  0
  1 11  1  0
  3 12  1  0
  3 13  1  0
  4 14  1  0
  6 15  1  0
  7 16  1  0
  7 17  1  0
  9 18  1  0
  9 19  1  0
M  END
$$$$
