
     RDKit          3D

 19 19  0  0  0  0  0  0  0  0999 V2000
   -1.3142    5.6482    2.2241 O   0  0  0  0  0  0  0  0  0  0  0  0
   -0.9205    4.2859    2.2662 C   0  0  0  0  0  0  0  0  0  0  0  0
   -2.0518    3.3555    1.8848 C   0  0  0  0  0  0  0  0  0  0  0  0
   -1.6761    2.0169    1.5489 O   0  0  0  0  0  0  0  0  0  0  0  0
   -2.2267    2.8550    0.5175 C   0  0  0  0  0  0  0  0  0  0  0  0
   -3.5646    2.4360   -0.0368 C   0  0  0  0  0  0  0  0  0  0  0  0
   -3.4426    1.1768   -0.9231 C   0  0  0  0  0  0  0  0  0  0  0  0
   -4.7192    0.7539   -1.4835 C   0  0  0  0  0  0  0  0  0  0  0  0
   -5.7860    0.4289   -1.9320 C   0  0  0  0  0  0  0  0  0  0  0  0
   -1.9104    5.8106    2.9617 H   0  0  0  0  0  0  0  0  0  0  0  0
   -0.1021    4.1714    1.5491 H   0  0  0  0  0  0  0  0  0  0  0  0
   -0.5297    4.0039    3.2559 H   0  0  0  0  0  0  0  0  0  0  0  0
   -2.9421    3.4253    2.5162 H   0  0  0  0  0  0  0  0  0  0  0  0
   -1.4889    3.1690   -0.2245 H   0  0  0  0  0  0  0  0  0  0  0  0
   -4.2573    2.2325    0.7856 H   0  0  0  0  0  0  0  0  0  0  0  0
   -3.9877    3.2587   -0.6246 H   0  0  0  0  0  0  0  0  0  0  0  0
   -2.7313    1.3696   -1.7371 H   0  0  0  0  0  0  0  0  0  0  0  0
   -3.0106    0.3665   -0.3237 H   0  0  0  0  0  0  0  0  0  0  0  0
   -6.7212    0.1294   -2.3354 H   0  0  0  0  0  0  0  0  0  0  0  0
  1  2  1  0
  2  3  1  0
  3  4  1  0
  4  5  1  0
  5  6  1  0
  6  7  1  0
  7  8  1  0
  8  9  3  0
  5  3  1  0
  1 10  1  0
  2 11  1  0
  2 12  1  0
  3 13  1  0
  5 14  1  0
  6 15  1  0
  6 16  1  0
  7 17  1  0
  7 18  1  0
  9 19  1  0
M  END
$$$$
