gdb 4950	1.9801236	1.7568398	1.0662001	3.7357	76.86	-0.23876	-0.01046	0.2283	1161.4735	0.155151	-422.548405	-422.53906	-422.538116	-422.58261	34.26
 OpenBabel02181911413D

 19 20  0  0  1  0  0  0  0  0999 V2000
    2.1205    0.5592    0.9920 C   0  0  0  0  0  0  0  0  0  0  0  0
    1.6015    0.7203   -0.4449 C   0  0  0  0  0  0  0  0  0  0  0  0
    1.9461   -0.4672   -1.3027 C   0  0  1  0  0  0  0  0  0  0  0  0
    1.0711   -1.7192   -1.3641 C   0  0  1  0  0  0  0  0  0  0  0  0
   -0.1853   -1.5167   -0.7894 O   0  0  0  0  0  0  0  0  0  0  0  0
    1.3778   -1.0329   -2.6505 C   0  0  2  0  0  0  0  0  0  0  0  0
    2.7788   -1.4488   -3.1158 C   0  0  0  0  0  0  0  0  0  0  0  0
    3.3157   -0.8224   -1.8011 C   0  0  0  0  0  0  0  0  0  0  0  0
    4.4192   -0.5362   -1.4259 O   0  0  0  0  0  0  0  0  0  0  0  0
    1.6535   -0.3021    1.4797 H   0  0  0  0  0  0  0  0  0  0  0  0
    3.2037    0.4101    0.9963 H   0  0  0  0  0  0  0  0  0  0  0  0
    1.8938    1.4489    1.5874 H   0  0  0  0  0  0  0  0  0  0  0  0
    0.5162    0.8531   -0.4406 H   0  0  0  0  0  0  0  0  0  0  0  0
    2.0379    1.6203   -0.8947 H   0  0  0  0  0  0  0  0  0  0  0  0
    1.5064   -2.7001   -1.1588 H   0  0  0  0  0  0  0  0  0  0  0  0
   -0.8258   -2.0399   -1.2827 H   0  0  0  0  0  0  0  0  0  0  0  0
    0.6052   -0.5844   -3.2616 H   0  0  0  0  0  0  0  0  0  0  0  0
    2.9534   -2.5181   -3.2748 H   0  0  0  0  0  0  0  0  0  0  0  0
    3.1516   -0.8924   -3.9804 H   0  0  0  0  0  0  0  0  0  0  0  0
  1 11  1  0  0  0  0
  1 10  1  0  0  0  0
  1 12  1  0  0  0  0
  2 13  1  0  0  0  0
  2  1  1  0  0  0  0
  3  2  1  1  0  0  0
  4  3  1  0  0  0  0
  4 15  1  1  0  0  0
  4  5  1  0  0  0  0
  6 17  1  6  0  0  0
  6  4  1  0  0  0  0
  6  3  1  0  0  0  0
  7  6  1  0  0  0  0
  7  8  1  0  0  0  0
  8  9  2  0  0  0  0
  8  3  1  0  0  0  0
 14  2  1  0  0  0  0
 16  5  1  0  0  0  0
 18  7  1  0  0  0  0
 19  7  1  0  0  0  0
M TOR 0 0 1 2 3
M TOR 1 0 1 2 5
M TOR 2 0 1 2 7
M TOR 3 1 2 3 4
M TOR 4 1 2 3 5
M TOR 5 1 2 3 14
M TOR 6 1 2 5 6
M TOR 7 1 2 5 16
M TOR 8 1 2 7 6
M TOR 9 1 2 7 8
M TOR 10 2 1 0 9
M TOR 11 2 1 0 10
M TOR 12 2 1 0 11
M TOR 13 2 3 4 15
M TOR 14 2 3 5 6
M TOR 15 2 3 5 16
M TOR 16 2 5 3 4
M TOR 17 2 5 3 14
M TOR 18 2 5 6 7
M TOR 19 2 5 6 17
M TOR 20 2 5 6 18
M TOR 21 2 7 6 17
M TOR 22 2 7 6 18
M TOR 23 3 2 1 12
M TOR 24 3 2 1 13
M TOR 25 3 2 7 6
M TOR 26 3 2 7 8
M TOR 27 3 5 2 7
M TOR 28 3 5 6 7
M TOR 29 3 5 6 17
M TOR 30 3 5 6 18
M TOR 31 4 3 2 7
M TOR 32 4 3 5 6
M TOR 33 4 3 5 16
M TOR 34 5 2 1 12
M TOR 35 5 2 1 13
M TOR 36 5 2 7 8
M TOR 37 5 3 4 15
M TOR 38 5 6 7 8
M TOR 39 6 5 3 14
M TOR 40 7 2 1 12
M TOR 41 7 2 1 13
M TOR 42 7 2 3 14
M TOR 43 7 2 5 16
M TOR 44 7 6 5 16
M TOR 45 8 7 6 17
M TOR 46 8 7 6 18
M  END
$$$$
