
     RDKit          3D

 19 18  0  0  0  0  0  0  0  0999 V2000
   -0.3801    2.8090   -0.7149 C   0  0  0  0  0  0  0  0  0  0  0  0
   -1.0268    2.1179    0.4836 C   0  0  0  0  0  0  0  0  0  0  0  0
   -1.5060    3.0683    1.4282 O   0  0  0  0  0  0  0  0  0  0  0  0
   -0.0784    1.0884    1.1653 C   0  0  0  0  0  0  0  0  0  0  0  0
   -0.7087    0.5388    2.4650 C   0  0  0  0  0  0  0  0  0  0  0  0
    0.1869   -0.3544    3.1890 C   0  0  0  0  0  0  0  0  0  0  0  0
    0.9505   -1.0876    3.7584 C   0  0  0  0  0  0  0  0  0  0  0  0
    0.2180   -0.0523    0.2062 C   0  0  0  0  0  0  0  0  0  0  0  0
    1.1782   -0.1159   -0.5161 O   0  0  0  0  0  0  0  0  0  0  0  0
   -0.0532    2.0914   -1.4710 H   0  0  0  0  0  0  0  0  0  0  0  0
   -1.0908    3.5047   -1.1683 H   0  0  0  0  0  0  0  0  0  0  0  0
    0.5051    3.3753   -0.3993 H   0  0  0  0  0  0  0  0  0  0  0  0
   -1.9301    1.5870    0.1554 H   0  0  0  0  0  0  0  0  0  0  0  0
   -0.7842    3.6770    1.6241 H   0  0  0  0  0  0  0  0  0  0  0  0
    0.8737    1.5832    1.3892 H   0  0  0  0  0  0  0  0  0  0  0  0
   -1.0045    1.3852    3.0909 H   0  0  0  0  0  0  0  0  0  0  0  0
   -1.6393    0.0089    2.2174 H   0  0  0  0  0  0  0  0  0  0  0  0
    1.6159   -1.7381    4.2698 H   0  0  0  0  0  0  0  0  0  0  0  0
   -0.5638   -0.8484    0.1921 H   0  0  0  0  0  0  0  0  0  0  0  0
  1  2  1  0
  2  3  1  0
  2  4  1  0
  4  5  1  0
  5  6  1  0
  6  7  3  0
  4  8  1  0
  8  9  2  0
  1 10  1  0
  1 11  1  0
  1 12  1  0
  2 13  1  0
  3 14  1  0
  4 15  1  0
  5 16  1  0
  5 17  1  0
  7 18  1  0
  8 19  1  0
M  END
$$$$
