gdb 5709	3.3013589	1.0541095	0.9311896	2.7249	78.99	-0.23482	-0.01778	0.21704	1323.8738	0.154877	-422.531941	-422.522639	-422.521695	-422.566673	33.286
 OpenBabel02181911423D

 19 20  0  0  1  0  0  0  0  0999 V2000
    1.4602   -0.1058   -0.0460 C   0  0  0  0  0  0  0  0  0  0  0  0
    0.0568    0.0739    0.0205 O   0  0  0  0  0  0  0  0  0  0  0  0
   -0.3479    0.7779    1.1447 C   0  0  1  0  0  0  0  0  0  0  0  0
   -0.3754    2.2747    1.1123 C   0  0  0  0  0  0  0  0  0  0  0  0
   -1.6709    1.4915    1.0134 C   0  0  1  0  0  0  0  0  0  0  0  0
   -2.6818    1.3555   -0.1357 C   0  0  0  0  0  0  0  0  0  0  0  0
   -3.8284    1.2044    0.9194 C   0  0  0  0  0  0  0  0  0  0  0  0
   -2.7756    1.4134    2.0285 C   0  0  0  0  0  0  0  0  0  0  0  0
   -2.8123    1.4935    3.2248 O   0  0  0  0  0  0  0  0  0  0  0  0
    1.8347   -0.6749    0.8175 H   0  0  0  0  0  0  0  0  0  0  0  0
    1.6670   -0.6682   -0.9590 H   0  0  0  0  0  0  0  0  0  0  0  0
    1.9894    0.8566   -0.0846 H   0  0  0  0  0  0  0  0  0  0  0  0
   -0.1438    0.2874    2.0983 H   0  0  0  0  0  0  0  0  0  0  0  0
   -0.2008    2.8229    2.0326 H   0  0  0  0  0  0  0  0  0  0  0  0
   -0.0394    2.7570    0.2002 H   0  0  0  0  0  0  0  0  0  0  0  0
   -2.7733    2.2442   -0.7637 H   0  0  0  0  0  0  0  0  0  0  0  0
   -2.5186    0.4846   -0.7720 H   0  0  0  0  0  0  0  0  0  0  0  0
   -4.6101    1.9686    0.8966 H   0  0  0  0  0  0  0  0  0  0  0  0
   -4.3063    0.2213    0.9543 H   0  0  0  0  0  0  0  0  0  0  0  0
  1  2  1  0  0  0  0
  1 10  1  0  0  0  0
  2  3  1  0  0  0  0
  3 13  1  1  0  0  0
  4  3  1  0  0  0  0
  4 14  1  0  0  0  0
  5  4  1  0  0  0  0
  5  3  1  0  0  0  0
  5  8  1  1  0  0  0
  6  7  1  0  0  0  0
  6  5  1  0  0  0  0
  7 19  1  0  0  0  0
  7  8  1  0  0  0  0
  8  9  2  0  0  0  0
 11  1  1  0  0  0  0
 12  1  1  0  0  0  0
 15  4  1  0  0  0  0
 16  6  1  0  0  0  0
 17  6  1  0  0  0  0
 18  7  1  0  0  0  0
M TOR 0 0 1 2 3
M TOR 1 0 1 2 4
M TOR 2 0 1 2 12
M TOR 3 1 2 3 4
M TOR 4 1 2 3 13
M TOR 5 1 2 3 14
M TOR 6 1 2 4 5
M TOR 7 1 2 4 7
M TOR 8 2 1 0 9
M TOR 9 2 1 0 10
M TOR 10 2 1 0 11
M TOR 11 2 3 4 5
M TOR 12 2 3 4 7
M TOR 13 2 4 3 13
M TOR 14 2 4 3 14
M TOR 15 2 4 5 6
M TOR 16 2 4 5 15
M TOR 17 2 4 5 16
M TOR 18 2 4 7 6
M TOR 19 2 4 7 8
M TOR 20 3 4 2 12
M TOR 21 3 4 5 6
M TOR 22 3 4 5 15
M TOR 23 3 4 5 16
M TOR 24 3 4 7 6
M TOR 25 3 4 7 8
M TOR 26 4 5 6 7
M TOR 27 4 5 6 17
M TOR 28 4 5 6 18
M TOR 29 4 7 6 17
M TOR 30 4 7 6 18
M TOR 31 5 4 2 12
M TOR 32 5 4 3 13
M TOR 33 5 4 3 14
M TOR 34 5 4 7 8
M TOR 35 5 6 7 8
M TOR 36 7 4 2 12
M TOR 37 7 4 3 13
M TOR 38 7 4 3 14
M TOR 39 7 4 5 15
M TOR 40 7 4 5 16
M TOR 41 7 6 5 15
M TOR 42 7 6 5 16
M TOR 43 8 7 6 17
M TOR 44 8 7 6 18
M  END
$$$$
