
     RDKit          3D

 19 21  0  0  0  0  0  0  0  0999 V2000
   -1.0421    2.2706   -0.0669 C   0  0  0  0  0  0  0  0  0  0  0  0
    0.2088    1.8085    0.5964 C   0  0  0  0  0  0  0  0  0  0  0  0
    0.3477    1.9254    2.0185 O   0  0  0  0  0  0  0  0  0  0  0  0
    1.5324    1.0917    1.8859 C   0  0  0  0  0  0  0  0  0  0  0  0
    2.5639    2.0238    1.1944 C   0  0  0  0  0  0  0  0  0  0  0  0
    1.6228    1.9117   -0.0027 C   0  0  0  0  0  0  0  0  0  0  0  0
    1.7795    2.3808   -1.2895 O   0  0  0  0  0  0  0  0  0  0  0  0
    1.0508    0.5657    0.4787 C   0  0  0  0  0  0  0  0  0  0  0  0
    0.8734   -0.7777   -0.1483 C   0  0  0  0  0  0  0  0  0  0  0  0
   -1.9106    1.7006    0.2773 H   0  0  0  0  0  0  0  0  0  0  0  0
   -1.2172    3.3296    0.1516 H   0  0  0  0  0  0  0  0  0  0  0  0
   -0.9508    2.1614   -1.1507 H   0  0  0  0  0  0  0  0  0  0  0  0
    1.7677    0.5098    2.7746 H   0  0  0  0  0  0  0  0  0  0  0  0
    2.7318    2.9995    1.6611 H   0  0  0  0  0  0  0  0  0  0  0  0
    3.5140    1.5106    1.0133 H   0  0  0  0  0  0  0  0  0  0  0  0
    2.5291    1.9289   -1.6933 H   0  0  0  0  0  0  0  0  0  0  0  0
    0.1453   -1.3887    0.3971 H   0  0  0  0  0  0  0  0  0  0  0  0
    0.5127   -0.6718   -1.1774 H   0  0  0  0  0  0  0  0  0  0  0  0
    1.8156   -1.3377   -0.1862 H   0  0  0  0  0  0  0  0  0  0  0  0
  1  2  1  0
  2  3  1  0
  3  4  1  0
  4  5  1  0
  5  6  1  0
  6  7  1  0
  6  8  1  0
  8  9  1  0
  6  2  1  0
  8  2  1  0
  8  4  1  0
  1 10  1  0
  1 11  1  0
  1 12  1  0
  4 13  1  0
  5 14  1  0
  5 15  1  0
  7 16  1  0
  9 17  1  0
  9 18  1  0
  9 19  1  0
M  END
$$$$
