
     RDKit          3D

 19 20  0  0  0  0  0  0  0  0999 V2000
   -1.8992   -1.2946   -1.5798 C   0  0  0  0  0  0  0  0  0  0  0  0
   -1.1364   -0.0930   -2.1065 C   0  0  0  0  0  0  0  0  0  0  0  0
   -1.6045    0.6408   -2.9574 O   0  0  0  0  0  0  0  0  0  0  0  0
    0.2078    0.1364   -1.5137 C   0  0  0  0  0  0  0  0  0  0  0  0
    1.1917    0.9376   -2.3708 C   0  0  0  0  0  0  0  0  0  0  0  0
    2.5105    1.0192   -1.6218 C   0  0  0  0  0  0  0  0  0  0  0  0
    1.8357    1.5461   -0.4430 O   0  0  0  0  0  0  0  0  0  0  0  0
    0.5979    1.5815   -1.1590 C   0  0  0  0  0  0  0  0  0  0  0  0
   -0.3320    2.7165   -0.8943 C   0  0  0  0  0  0  0  0  0  0  0  0
   -2.0084   -1.2303   -0.4913 H   0  0  0  0  0  0  0  0  0  0  0  0
   -2.8819   -1.3443   -2.0497 H   0  0  0  0  0  0  0  0  0  0  0  0
   -1.3438   -2.2164   -1.7884 H   0  0  0  0  0  0  0  0  0  0  0  0
    0.5935   -0.6399   -0.8580 H   0  0  0  0  0  0  0  0  0  0  0  0
    0.9947    1.1055   -3.4202 H   0  0  0  0  0  0  0  0  0  0  0  0
    3.0467    0.0860   -1.4153 H   0  0  0  0  0  0  0  0  0  0  0  0
    3.2016    1.7652   -2.0288 H   0  0  0  0  0  0  0  0  0  0  0  0
   -0.6570    2.7059    0.1519 H   0  0  0  0  0  0  0  0  0  0  0  0
    0.1715    3.6694   -1.0831 H   0  0  0  0  0  0  0  0  0  0  0  0
   -1.2075    2.6441   -1.5411 H   0  0  0  0  0  0  0  0  0  0  0  0
  1  2  1  0
  2  3  2  0
  2  4  1  0
  4  5  1  0
  5  6  1  0
  6  7  1  0
  7  8  1  0
  8  9  1  0
  8  4  1  0
  8  5  1  0
  1 10  1  0
  1 11  1  0
  1 12  1  0
  4 13  1  0
  5 14  1  0
  6 15  1  0
  6 16  1  0
  9 17  1  0
  9 18  1  0
  9 19  1  0
M  END
$$$$
