
     RDKit          3D

 19 21  0  0  0  0  0  0  0  0999 V2000
   -1.2017   -1.2381   -1.7664 C   0  0  0  0  0  0  0  0  0  0  0  0
   -1.0751   -0.3459   -0.5644 C   0  0  0  0  0  0  0  0  0  0  0  0
   -1.8629    0.8660   -0.6663 O   0  0  0  0  0  0  0  0  0  0  0  0
   -2.3999    0.6923    0.6702 C   0  0  0  0  0  0  0  0  0  0  0  0
   -1.5592   -0.5725    0.8900 C   0  0  0  0  0  0  0  0  0  0  0  0
   -0.2479   -0.3041    1.4190 O   0  0  0  0  0  0  0  0  0  0  0  0
    0.2800   -0.0942    0.0979 C   0  0  0  0  0  0  0  0  0  0  0  0
    1.3085    0.9377   -0.1985 C   0  0  0  0  0  0  0  0  0  0  0  0
    1.6526   -0.5454   -0.2789 C   0  0  0  0  0  0  0  0  0  0  0  0
   -0.6563   -2.1742   -1.6166 H   0  0  0  0  0  0  0  0  0  0  0  0
   -2.2518   -1.4655   -1.9692 H   0  0  0  0  0  0  0  0  0  0  0  0
   -0.7911   -0.7384   -2.6514 H   0  0  0  0  0  0  0  0  0  0  0  0
   -2.1597    1.5259    1.3383 H   0  0  0  0  0  0  0  0  0  0  0  0
   -3.4852    0.5325    0.6420 H   0  0  0  0  0  0  0  0  0  0  0  0
   -2.0132   -1.4715    1.3090 H   0  0  0  0  0  0  0  0  0  0  0  0
    1.2134    1.5071   -1.1171 H   0  0  0  0  0  0  0  0  0  0  0  0
    1.7019    1.4942    0.6452 H   0  0  0  0  0  0  0  0  0  0  0  0
    1.8054   -0.9935   -1.2555 H   0  0  0  0  0  0  0  0  0  0  0  0
    2.2651   -0.9605    0.5143 H   0  0  0  0  0  0  0  0  0  0  0  0
  1  2  1  0
  2  3  1  0
  3  4  1  0
  4  5  1  0
  5  6  1  0
  6  7  1  0
  7  8  1  0
  8  9  1  0
  5  2  1  0
  9  7  1  0
  7  2  1  0
  1 10  1  0
  1 11  1  0
  1 12  1  0
  4 13  1  0
  4 14  1  0
  5 15  1  0
  8 16  1  0
  8 17  1  0
  9 18  1  0
  9 19  1  0
M  END
$$$$
