gdb 1257	2.1670467	1.3271065	1.1159681	2.9738	77.82	-0.2581	0.01796	0.27605999999999997	1220.0704	0.152419	-422.511041	-422.50063	-422.499686	-422.546025	37.83
 OpenBabel02181911403D

 19 19  0  0  1  0  0  0  0  0999 V2000
    4.9751   -0.3758    1.7388 C   0  0  0  0  0  0  0  0  0  0  0  0
    5.2841   -0.8361    0.3122 C   0  0  2  0  0  0  0  0  0  0  0  0
    5.7576    0.2279   -0.4949 O   0  0  0  0  0  0  0  0  0  0  0  0
    4.0844   -1.5290   -0.3391 C   0  0  1  0  0  0  0  0  0  0  0  0
    4.4077   -2.4988   -1.3519 O   0  0  0  0  0  0  0  0  0  0  0  0
    3.8544   -2.9774   -0.1265 C   0  0  2  0  0  0  0  0  0  0  0  0
    2.4981   -3.6276   -0.1803 C   0  0  0  0  0  0  0  0  0  0  0  0
    2.9836   -0.6442   -0.6473 C   0  0  0  0  0  0  0  0  0  0  0  0
    2.1152    0.1569   -0.8754 C   0  0  0  0  0  0  0  0  0  0  0  0
    4.7225   -1.2220    2.3861 H   0  0  0  0  0  0  0  0  0  0  0  0
    5.8475    0.1347    2.1542 H   0  0  0  0  0  0  0  0  0  0  0  0
    4.1303    0.3215    1.7472 H   0  0  0  0  0  0  0  0  0  0  0  0
    6.0964   -1.5703    0.3218 H   0  0  0  0  0  0  0  0  0  0  0  0
    5.0283    0.8489   -0.6139 H   0  0  0  0  0  0  0  0  0  0  0  0
    4.5849   -3.4802    0.5122 H   0  0  0  0  0  0  0  0  0  0  0  0
    2.0859   -3.7307    0.8291 H   0  0  0  0  0  0  0  0  0  0  0  0
    1.8054   -3.0391   -0.7849 H   0  0  0  0  0  0  0  0  0  0  0  0
    2.5792   -4.6291   -0.6151 H   0  0  0  0  0  0  0  0  0  0  0  0
    1.3301    0.8400   -1.0900 H   0  0  0  0  0  0  0  0  0  0  0  0
  1 12  1  0  0  0  0
  1 11  1  0  0  0  0
  1 10  1  0  0  0  0
  2 13  1  1  0  0  0
  2  1  1  0  0  0  0
  3  2  1  0  0  0  0
  4  8  1  6  0  0  0
  4  6  1  0  0  0  0
  4  2  1  0  0  0  0
  5  4  1  0  0  0  0
  5  6  1  0  0  0  0
  6 15  1  1  0  0  0
  7  6  1  0  0  0  0
  7 16  1  0  0  0  0
  9  8  3  0  0  0  0
 14  3  1  0  0  0  0
 17  7  1  0  0  0  0
 18  7  1  0  0  0  0
 19  9  1  0  0  0  0
M TOR 0 0 1 2 13
M TOR 1 0 1 3 4
M TOR 2 0 1 3 5
M TOR 3 0 1 3 7
M TOR 4 1 3 4 5
M TOR 5 1 3 5 6
M TOR 6 1 3 5 14
M TOR 7 1 3 7 8
M TOR 8 2 1 0 9
M TOR 9 2 1 0 10
M TOR 10 2 1 0 11
M TOR 11 2 1 3 4
M TOR 12 2 1 3 5
M TOR 13 2 1 3 7
M TOR 14 3 1 0 9
M TOR 15 3 1 0 10
M TOR 16 3 1 0 11
M TOR 17 3 1 2 13
M TOR 18 3 4 5 6
M TOR 19 3 4 5 14
M TOR 20 3 5 6 15
M TOR 21 3 5 6 16
M TOR 22 3 5 6 17
M TOR 23 3 7 8 18
M TOR 24 4 3 1 12
M TOR 25 4 3 7 8
M TOR 26 4 5 3 7
M TOR 27 4 5 6 15
M TOR 28 4 5 6 16
M TOR 29 4 5 6 17
M TOR 30 5 3 1 12
M TOR 31 5 3 7 8
M TOR 32 6 5 3 7
M TOR 33 7 3 1 12
M TOR 34 7 3 5 14
M  END
$$$$
