gdb 5738	3.054844	1.3346832	1.1920423	2.1652	78.92	-0.22385	0.00961	0.23346	1129.647	0.156647	-422.503924	-422.49553	-422.494586	-422.537201	31.
 OpenBabel02181911423D

 19 20  0  0  1  0  0  0  0  0999 V2000
   -0.2955    1.1823   -0.0216 C   0  0  0  0  0  0  0  0  0  0  0  0
    0.3466   -0.0689    0.0857 O   0  0  0  0  0  0  0  0  0  0  0  0
    0.8409   -0.5516   -1.1266 C   0  0  2  0  0  0  0  0  0  0  0  0
   -0.2549   -1.2647   -2.0341 C   0  0  0  0  0  0  0  0  0  0  0  0
    0.1641   -2.5242   -1.3086 C   0  0  2  0  0  3  0  0  0  0  0  0
   -0.2541   -3.3789   -0.3841 C   0  0  0  0  0  3  0  0  0  0  0  0
    0.8679   -3.5518    0.6275 C   0  0  0  0  0  0  0  0  0  0  0  0
    1.8372   -2.5291    0.3201 O   0  0  0  0  0  0  0  0  0  0  0  0
    1.5000   -1.9802   -0.9275 C   0  0  2  0  0  0  0  0  0  0  0  0
    0.3845    1.9526   -0.4174 H   0  0  0  0  0  0  0  0  0  0  0  0
   -1.1830    1.1413   -0.6705 H   0  0  0  0  0  0  0  0  0  0  0  0
   -0.6091    1.4697    0.9846 H   0  0  0  0  0  0  0  0  0  0  0  0
    1.4582    0.2024   -1.6373 H   0  0  0  0  0  0  0  0  0  0  0  0
   -1.2900   -0.9384   -1.9180 H   0  0  0  0  0  0  0  0  0  0  0  0
    0.0217   -1.2331   -3.0922 H   0  0  0  0  0  0  0  0  0  0  0  0
   -1.2511   -3.7699   -0.2254 H   0  0  0  0  0  0  0  0  0  0  0  0
    0.4987   -3.3970    1.6504 H   0  0  0  0  0  0  0  0  0  0  0  0
    1.3570   -4.5382    0.5977 H   0  0  0  0  0  0  0  0  0  0  0  0
    2.3197   -2.1096   -1.6485 H   0  0  0  0  0  0  0  0  0  0  0  0
  1  2  1  0  0  0  0
  1 12  1  0  0  0  0
  3 13  1  6  0  0  0
  3  9  1  0  0  0  0
  3  2  1  0  0  0  0
  4 14  1  0  0  0  0
  4  5  1  0  0  0  0
  4  3  1  0  0  0  0
  5  9  1  0  0  0  0
  5  6  1  1  0  0  0
  6 16  1  0  0  0  0
  6  7  1  0  0  0  0
  7 17  1  0  0  0  0
  8  7  1  0  0  0  0
  9 19  1  6  0  0  0
  9  8  1  0  0  0  0
 10  1  1  0  0  0  0
 11  1  1  0  0  0  0
 15  4  1  0  0  0  0
 18  7  1  0  0  0  0
M TOR 0 0 1 2 3
M TOR 1 0 1 2 8
M TOR 2 0 1 2 12
M TOR 3 1 2 3 4
M TOR 4 1 2 3 13
M TOR 5 1 2 3 14
M TOR 6 1 2 8 4
M TOR 7 1 2 8 7
M TOR 8 1 2 8 18
M TOR 9 2 1 0 9
M TOR 10 2 1 0 10
M TOR 11 2 1 0 11
M TOR 12 2 3 4 5
M TOR 13 2 3 4 8
M TOR 14 2 8 4 5
M TOR 15 2 8 7 6
M TOR 16 3 2 8 7
M TOR 17 3 2 8 18
M TOR 18 3 4 5 6
M TOR 19 3 4 5 15
M TOR 20 3 4 8 7
M TOR 21 3 4 8 18
M TOR 22 4 3 2 12
M TOR 23 4 5 6 7
M TOR 24 4 5 6 16
M TOR 25 4 5 6 17
M TOR 26 4 8 2 12
M TOR 27 4 8 7 6
M TOR 28 5 4 3 13
M TOR 29 5 4 3 14
M TOR 30 5 4 8 7
M TOR 31 5 4 8 18
M TOR 32 5 6 7 8
M TOR 33 6 5 4 8
M TOR 34 6 7 8 18
M TOR 35 7 6 5 15
M TOR 36 7 8 2 12
M TOR 37 8 2 3 13
M TOR 38 8 2 3 14
M TOR 39 8 4 3 13
M TOR 40 8 4 3 14
M TOR 41 8 4 5 15
M TOR 42 8 7 6 16
M TOR 43 8 7 6 17
M  END
$$$$
