gdb 3218	3.8941248	1.0674293	0.9846615	2.1462	74.95	-0.24093	0.06709	0.30802	1236.4055	0.156339	-422.492043	-422.483543	-422.482599	-422.525618	31.597
 OpenBabel02181911413D

 19 21  0  0  1  0  0  0  0  0999 V2000
    0.3349   -0.0083    0.1515 O   0  0  0  0  0  0  0  0  0  0  0  0
   -0.6651    0.7210    0.8015 C   0  0  1  0  0  0  0  0  0  0  0  0
   -1.4891    0.0491    1.8576 C   0  0  2  0  0  0  0  0  0  0  0  0
   -2.6142    0.9778    2.3236 C   0  0  0  0  0  0  0  0  0  0  0  0
   -1.5558    2.0585    2.7101 C   0  0  0  0  0  0  0  0  0  0  0  0
   -1.6356    3.5406    2.2870 C   0  0  0  0  0  0  0  0  0  0  0  0
   -1.5723    3.9851    3.6581 O   0  0  0  0  0  0  0  0  0  0  0  0
   -1.5281    2.6300    4.1426 C   0  0  0  0  0  0  0  0  0  0  0  0
   -0.4447    1.1277    2.2347 C   0  0  2  0  0  0  0  0  0  0  0  0
    0.7285   -0.6225    0.7804 H   0  0  0  0  0  0  0  0  0  0  0  0
   -1.1245    1.4065    0.0917 H   0  0  0  0  0  0  0  0  0  0  0  0
   -1.4528   -1.0260    1.9944 H   0  0  0  0  0  0  0  0  0  0  0  0
   -3.3503    1.2625    1.5628 H   0  0  0  0  0  0  0  0  0  0  0  0
   -3.1473    0.6056    3.2027 H   0  0  0  0  0  0  0  0  0  0  0  0
   -0.7890    3.9086    1.6931 H   0  0  0  0  0  0  0  0  0  0  0  0
   -2.5730    3.8439    1.8015 H   0  0  0  0  0  0  0  0  0  0  0  0
   -0.6154    2.4272    4.7188 H   0  0  0  0  0  0  0  0  0  0  0  0
   -2.4022    2.3827    4.7609 H   0  0  0  0  0  0  0  0  0  0  0  0
    0.5336    1.0265    2.6945 H   0  0  0  0  0  0  0  0  0  0  0  0
  1 10  1  0  0  0  0
  1  2  1  0  0  0  0
  2 11  1  6  0  0  0
  2  3  1  0  0  0  0
  2  9  1  0  0  0  0
  3 12  1  1  0  0  0
  3  9  1  0  0  0  0
  3  4  1  0  0  0  0
  4  5  1  0  0  0  0
  4 14  1  0  0  0  0
  5  8  1  0  0  0  0
  6  5  1  0  0  0  0
  6  7  1  0  0  0  0
  7  8  1  0  0  0  0
  8 17  1  0  0  0  0
  8 18  1  0  0  0  0
  9 19  1  1  0  0  0
  9  5  1  0  0  0  0
 13  4  1  0  0  0  0
 15  6  1  0  0  0  0
 16  6  1  0  0  0  0
M TOR 0 0 1 2 3
M TOR 1 0 1 2 8
M TOR 2 0 1 2 11
M TOR 3 0 1 8 4
M TOR 4 0 1 8 18
M TOR 5 1 2 3 4
M TOR 6 1 2 3 12
M TOR 7 1 2 3 13
M TOR 8 1 2 8 4
M TOR 9 1 2 8 18
M TOR 10 1 8 2 3
M TOR 11 1 8 2 11
M TOR 12 1 8 4 3
M TOR 13 1 8 4 5
M TOR 14 1 8 4 7
M TOR 15 2 1 0 9
M TOR 16 2 3 4 5
M TOR 17 2 3 4 7
M TOR 18 2 3 4 8
M TOR 19 2 8 1 10
M TOR 20 2 8 4 5
M TOR 21 2 8 4 7
M TOR 22 3 2 1 10
M TOR 23 3 2 8 18
M TOR 24 3 4 5 6
M TOR 25 3 4 5 14
M TOR 26 3 4 5 15
M TOR 27 3 4 7 6
M TOR 28 3 4 7 16
M TOR 29 3 4 7 17
M TOR 30 3 4 8 18
M TOR 31 4 3 2 11
M TOR 32 4 5 6 7
M TOR 33 4 8 1 10
M TOR 34 4 8 2 11
M TOR 35 5 4 3 12
M TOR 36 5 4 3 13
M TOR 37 5 4 7 16
M TOR 38 5 4 7 17
M TOR 39 5 4 8 18
M TOR 40 5 6 7 16
M TOR 41 5 6 7 17
M TOR 42 6 5 4 8
M TOR 43 6 7 4 8
M TOR 44 7 4 3 12
M TOR 45 7 4 3 13
M TOR 46 7 4 5 14
M TOR 47 7 4 5 15
M TOR 48 7 4 8 18
M TOR 49 7 6 5 14
M TOR 50 7 6 5 15
M TOR 51 8 1 0 9
M TOR 52 8 2 3 12
M TOR 53 8 2 3 13
M TOR 54 8 4 3 12
M TOR 55 8 4 3 13
M TOR 56 8 4 5 14
M TOR 57 8 4 5 15
M TOR 58 8 4 7 16
M TOR 59 8 4 7 17
M  END
$$$$
