gdb 1098	2.4383246	1.4199206	0.9177998	0.9166	81.3	-0.23908	-0.0521	0.18697999999999998	1266.3905	0.154779	-422.582172	-422.572396	-422.571451	-422.617735	33.856
 OpenBabel02181911403D

 19 19  0  0  0  0  0  0  0  0999 V2000
    1.3881    1.9148   -1.3329 C   0  0  0  0  0  0  0  0  0  0  0  0
    1.3640    0.7252   -0.3873 C   0  0  0  0  0  0  0  0  0  0  0  0
    2.3980    0.2803    0.0770 O   0  0  0  0  0  0  0  0  0  0  0  0
    0.0301    0.1566   -0.0759 C   0  0  0  0  0  0  0  0  0  0  0  0
   -0.2464   -0.8874    0.7263 C   0  0  0  0  0  0  0  0  0  0  0  0
    0.6644   -1.7624    1.5195 C   0  0  0  0  0  0  0  0  0  0  0  0
   -1.7345   -1.1062    0.7429 C   0  0  0  0  0  0  0  0  0  0  0  0
   -2.2962   -0.1173   -0.1043 O   0  0  0  0  0  0  0  0  0  0  0  0
   -1.2639    0.6991   -0.6452 C   0  0  0  0  0  0  0  0  0  0  0  0
    0.7977    2.7439   -0.9258 H   0  0  0  0  0  0  0  0  0  0  0  0
    2.4186    2.2375   -1.4819 H   0  0  0  0  0  0  0  0  0  0  0  0
    0.9415    1.6504   -2.2983 H   0  0  0  0  0  0  0  0  0  0  0  0
    0.3977   -1.7205    2.5835 H   0  0  0  0  0  0  0  0  0  0  0  0
    0.5440   -2.8097    1.2138 H   0  0  0  0  0  0  0  0  0  0  0  0
    1.7036   -1.4666    1.3951 H   0  0  0  0  0  0  0  0  0  0  0  0
   -1.9987   -2.1146    0.3831 H   0  0  0  0  0  0  0  0  0  0  0  0
   -2.1448   -1.0157    1.7626 H   0  0  0  0  0  0  0  0  0  0  0  0
   -1.2952    0.6513   -1.7452 H   0  0  0  0  0  0  0  0  0  0  0  0
   -1.4413    1.7498   -0.3660 H   0  0  0  0  0  0  0  0  0  0  0  0
  1 10  1  0  0  0  0
  1  2  1  0  0  0  0
  2  4  1  0  0  0  0
  2  3  2  0  0  0  0
  4  5  2  0  0  0  0
  5  7  1  0  0  0  0
  5  6  1  0  0  0  0
  6 13  1  0  0  0  0
  7 17  1  0  0  0  0
  8  7  1  0  0  0  0
  9 19  1  0  0  0  0
  9  8  1  0  0  0  0
  9  4  1  0  0  0  0
 11  1  1  0  0  0  0
 12  1  1  0  0  0  0
 14  6  1  0  0  0  0
 15  6  1  0  0  0  0
 16  7  1  0  0  0  0
 18  9  1  0  0  0  0
M TOR 0 0 1 3 4
M TOR 1 0 1 3 8
M TOR 2 1 3 4 5
M TOR 3 1 3 4 6
M TOR 4 1 3 8 7
M TOR 5 1 3 8 17
M TOR 6 1 3 8 18
M TOR 7 2 1 0 9
M TOR 8 2 1 0 10
M TOR 9 2 1 0 11
M TOR 10 2 1 3 4
M TOR 11 2 1 3 8
M TOR 12 3 1 0 9
M TOR 13 3 1 0 10
M TOR 14 3 1 0 11
M TOR 15 3 4 5 12
M TOR 16 3 4 5 13
M TOR 17 3 4 5 14
M TOR 18 3 4 6 7
M TOR 19 3 4 6 15
M TOR 20 3 4 6 16
M TOR 21 3 8 7 6
M TOR 22 4 3 8 7
M TOR 23 4 3 8 17
M TOR 24 4 3 8 18
M TOR 25 4 6 7 8
M TOR 26 5 4 3 8
M TOR 27 5 4 6 7
M TOR 28 5 4 6 15
M TOR 29 5 4 6 16
M TOR 30 6 4 3 8
M TOR 31 6 4 5 12
M TOR 32 6 4 5 13
M TOR 33 6 4 5 14
M TOR 34 6 7 8 17
M TOR 35 6 7 8 18
M TOR 36 8 7 6 15
M TOR 37 8 7 6 16
M  END
$$$$
