
     RDKit          3D

 19 20  0  0  0  0  0  0  0  0999 V2000
    1.1230    0.0221    0.2591 O   0  0  0  0  0  0  0  0  0  0  0  0
   -0.0619   -0.0156    0.0277 C   0  0  0  0  0  0  0  0  0  0  0  0
   -0.8542   -1.3106   -0.0661 C   0  0  0  0  0  0  0  0  0  0  0  0
   -1.9693   -1.2393   -1.1272 C   0  0  0  0  0  0  0  0  0  0  0  0
   -2.7207    0.0671   -1.0006 C   0  0  0  0  0  0  0  0  0  0  0  0
   -4.0882    0.2532   -1.5670 C   0  0  0  0  0  0  0  0  0  0  0  0
   -3.8970    0.2077   -0.0608 C   0  0  0  0  0  0  0  0  0  0  0  0
   -1.8748    1.1810   -1.1411 O   0  0  0  0  0  0  0  0  0  0  0  0
   -0.8887    1.2635   -0.1217 C   0  0  0  0  0  0  0  0  0  0  0  0
   -0.1613   -2.1392   -0.2302 H   0  0  0  0  0  0  0  0  0  0  0  0
   -1.3126   -1.4578    0.9229 H   0  0  0  0  0  0  0  0  0  0  0  0
   -1.5300   -1.2946   -2.1305 H   0  0  0  0  0  0  0  0  0  0  0  0
   -2.6503   -2.0898   -1.0228 H   0  0  0  0  0  0  0  0  0  0  0  0
   -4.3005    1.2190   -2.0104 H   0  0  0  0  0  0  0  0  0  0  0  0
   -4.5617   -0.5902   -2.0578 H   0  0  0  0  0  0  0  0  0  0  0  0
   -3.9953    1.1450    0.4754 H   0  0  0  0  0  0  0  0  0  0  0  0
   -4.2433   -0.6664    0.4806 H   0  0  0  0  0  0  0  0  0  0  0  0
   -0.2243    2.0916   -0.3743 H   0  0  0  0  0  0  0  0  0  0  0  0
   -1.3556    1.4763    0.8567 H   0  0  0  0  0  0  0  0  0  0  0  0
  1  2  2  0
  2  3  1  0
  3  4  1  0
  4  5  1  0
  5  6  1  0
  6  7  1  0
  5  8  1  0
  8  9  1  0
  9  2  1  0
  7  5  1  0
  3 10  1  0
  3 11  1  0
  4 12  1  0
  4 13  1  0
  6 14  1  0
  6 15  1  0
  7 16  1  0
  7 17  1  0
  9 18  1  0
  9 19  1  0
M  END
$$$$
