gdb 5588	2.8398647	1.1724709	0.9118196	2.5644	76.55	-0.23578	-0.01988	0.21589999999999998	1311.9047	0.1564	-422.560746	-422.552042	-422.551098	-422.594528	32.035
 OpenBabel02181911423D

 19 20  0  0  1  0  0  0  0  0999 V2000
    0.2221   -0.8598    1.0791 C   0  0  0  0  0  0  0  0  0  0  0  0
    0.2176   -0.1296   -0.2684 C   0  0  0  0  0  0  0  0  0  0  0  0
    1.2074   -0.7041   -1.2613 C   0  0  2  0  0  0  0  0  0  0  0  0
    0.9586   -0.6295   -2.7264 C   0  0  1  0  0  0  0  0  0  0  0  0
    2.0772   -0.6513   -3.5843 O   0  0  0  0  0  0  0  0  0  0  0  0
    2.7801   -1.8748   -3.4217 C   0  0  0  0  0  0  0  0  0  0  0  0
    1.9019   -2.8049   -2.5654 C   0  0  0  0  0  0  0  0  0  0  0  0
    2.0846   -3.9858   -2.4113 O   0  0  0  0  0  0  0  0  0  0  0  0
    0.7860   -1.9673   -2.0450 C   0  0  1  0  0  0  0  0  0  0  0  0
   -0.0334   -1.9171    0.9567 H   0  0  0  0  0  0  0  0  0  0  0  0
    1.2095   -0.8105    1.5502 H   0  0  0  0  0  0  0  0  0  0  0  0
   -0.5003   -0.4145    1.7696 H   0  0  0  0  0  0  0  0  0  0  0  0
   -0.7896   -0.1603   -0.7029 H   0  0  0  0  0  0  0  0  0  0  0  0
    0.4527    0.9315   -0.1159 H   0  0  0  0  0  0  0  0  0  0  0  0
    2.2487   -0.6608   -0.9489 H   0  0  0  0  0  0  0  0  0  0  0  0
    0.1318   -0.0582   -3.1335 H   0  0  0  0  0  0  0  0  0  0  0  0
    2.9651   -2.3285   -4.4011 H   0  0  0  0  0  0  0  0  0  0  0  0
    3.7519   -1.7184   -2.9321 H   0  0  0  0  0  0  0  0  0  0  0  0
   -0.1647   -2.4341   -1.8214 H   0  0  0  0  0  0  0  0  0  0  0  0
  1 11  1  0  0  0  0
  1 12  1  0  0  0  0
  2 14  1  0  0  0  0
  2  1  1  0  0  0  0
  3 15  1  1  0  0  0
  3  2  1  0  0  0  0
  4 16  1  6  0  0  0
  4  9  1  0  0  0  0
  4  3  1  0  0  0  0
  5  6  1  0  0  0  0
  5  4  1  0  0  0  0
  6 18  1  0  0  0  0
  6  7  1  0  0  0  0
  7  8  2  0  0  0  0
  7  9  1  0  0  0  0
  9 19  1  1  0  0  0
  9  3  1  0  0  0  0
 10  1  1  0  0  0  0
 13  2  1  0  0  0  0
 17  6  1  0  0  0  0
M TOR 0 0 1 2 3
M TOR 1 0 1 2 8
M TOR 2 0 1 2 14
M TOR 3 1 2 3 4
M TOR 4 1 2 3 8
M TOR 5 1 2 3 15
M TOR 6 1 2 8 6
M TOR 7 1 2 8 18
M TOR 8 2 1 0 9
M TOR 9 2 1 0 10
M TOR 10 2 1 0 11
M TOR 11 2 3 4 5
M TOR 12 2 3 8 6
M TOR 13 2 3 8 18
M TOR 14 2 8 3 4
M TOR 15 2 8 3 15
M TOR 16 2 8 6 5
M TOR 17 2 8 6 7
M TOR 18 3 2 1 12
M TOR 19 3 2 1 13
M TOR 20 3 4 5 6
M TOR 21 3 4 5 16
M TOR 22 3 4 5 17
M TOR 23 3 8 2 14
M TOR 24 3 8 6 5
M TOR 25 3 8 6 7
M TOR 26 4 3 2 14
M TOR 27 4 3 8 6
M TOR 28 4 3 8 18
M TOR 29 4 5 6 7
M TOR 30 4 5 6 8
M TOR 31 5 4 3 8
M TOR 32 5 4 3 15
M TOR 33 5 6 8 18
M TOR 34 6 8 2 14
M TOR 35 6 8 3 15
M TOR 36 7 6 5 16
M TOR 37 7 6 5 17
M TOR 38 7 6 8 18
M TOR 39 8 2 1 12
M TOR 40 8 2 1 13
M TOR 41 8 6 5 16
M TOR 42 8 6 5 17
M  END
$$$$
