
     RDKit          3D

 19 20  0  0  0  0  0  0  0  0999 V2000
    1.3989   -0.0715   -0.8608 O   0  0  0  0  0  0  0  0  0  0  0  0
    0.5062    0.1441   -0.0828 C   0  0  0  0  0  0  0  0  0  0  0  0
    0.3598    1.4016    0.7465 C   0  0  0  0  0  0  0  0  0  0  0  0
   -0.9588    2.1267    0.3604 C   0  0  0  0  0  0  0  0  0  0  0  0
   -1.5236    2.8960    1.4143 O   0  0  0  0  0  0  0  0  0  0  0  0
   -1.2896    2.3624    2.7116 C   0  0  0  0  0  0  0  0  0  0  0  0
    0.2260    2.4092    3.0353 C   0  0  0  0  0  0  0  0  0  0  0  0
    0.3099    1.0649    2.2573 C   0  0  0  0  0  0  0  0  0  0  0  0
   -1.1652    0.8138    2.6999 C   0  0  0  0  0  0  0  0  0  0  0  0
   -0.3001   -0.6096    0.0856 H   0  0  0  0  0  0  0  0  0  0  0  0
    1.2313    2.0309    0.5417 H   0  0  0  0  0  0  0  0  0  0  0  0
   -0.7920    2.8120   -0.4744 H   0  0  0  0  0  0  0  0  0  0  0  0
   -1.6925    1.3779    0.0225 H   0  0  0  0  0  0  0  0  0  0  0  0
   -2.0045    2.8483    3.3775 H   0  0  0  0  0  0  0  0  0  0  0  0
    0.7852    3.2661    2.6520 H   0  0  0  0  0  0  0  0  0  0  0  0
    0.4246    2.2750    4.1019 H   0  0  0  0  0  0  0  0  0  0  0  0
    1.0782    0.3417    2.5400 H   0  0  0  0  0  0  0  0  0  0  0  0
   -1.8365    0.2381    2.0590 H   0  0  0  0  0  0  0  0  0  0  0  0
   -1.2107    0.4148    3.7157 H   0  0  0  0  0  0  0  0  0  0  0  0
  1  2  2  0
  2  3  1  0
  3  4  1  0
  4  5  1  0
  5  6  1  0
  6  7  1  0
  7  8  1  0
  8  9  1  0
  8  3  1  0
  9  6  1  0
  2 10  1  0
  3 11  1  0
  4 12  1  0
  4 13  1  0
  6 14  1  0
  7 15  1  0
  7 16  1  0
  8 17  1  0
  9 18  1  0
  9 19  1  0
M  END
$$$$
