gdb 5284	2.4708612	1.5249862	1.0860681	3.4375	77.42	-0.25499	-0.03471	0.22028	1140.4405	0.156298	-422.533116	-422.52429	-422.523346	-422.566848	32.494
 OpenBabel02181911423D

 19 20  0  0  1  0  0  0  0  0999 V2000
    1.3430    0.0266    0.5320 O   0  0  0  0  0  0  0  0  0  0  0  0
    0.1426   -0.4063   -0.0557 C   0  0  0  0  0  0  0  0  0  0  0  0
   -0.3431    0.3355   -1.2832 C   0  0  2  0  0  0  0  0  0  0  0  0
   -1.7602    0.0813   -1.8340 C   0  0  0  0  0  0  0  0  0  0  0  0
   -1.2088    0.2390   -3.2887 C   0  0  0  0  0  0  0  0  0  0  0  0
    0.1694    0.5182   -2.6952 C   0  0  1  0  0  0  0  0  0  0  0  0
    0.0880    1.7277   -1.7599 C   0  0  2  0  0  0  0  0  0  0  0  0
    1.3998    2.2994   -1.3803 C   0  0  0  0  0  0  0  0  0  0  0  0
    2.4573    1.7025   -1.3786 O   0  0  0  0  0  0  0  0  0  0  0  0
    1.9974    0.1714   -0.1640 H   0  0  0  0  0  0  0  0  0  0  0  0
    0.1770   -1.4801   -0.3142 H   0  0  0  0  0  0  0  0  0  0  0  0
   -0.6278   -0.3037    0.7206 H   0  0  0  0  0  0  0  0  0  0  0  0
   -2.1059   -0.9346   -1.6261 H   0  0  0  0  0  0  0  0  0  0  0  0
   -2.5333    0.7848   -1.5102 H   0  0  0  0  0  0  0  0  0  0  0  0
   -1.2497   -0.6973   -3.8498 H   0  0  0  0  0  0  0  0  0  0  0  0
   -1.6416    1.0343   -3.9033 H   0  0  0  0  0  0  0  0  0  0  0  0
    1.1390    0.2686   -3.1097 H   0  0  0  0  0  0  0  0  0  0  0  0
   -0.6893    2.4743   -1.9132 H   0  0  0  0  0  0  0  0  0  0  0  0
    1.3736    3.3818   -1.1335 H   0  0  0  0  0  0  0  0  0  0  0  0
  2  1  1  0  0  0  0
  2 12  1  0  0  0  0
  3  2  1  1  0  0  0
  4 13  1  0  0  0  0
  4 14  1  0  0  0  0
  4  3  1  0  0  0  0
  5  6  1  0  0  0  0
  5  4  1  0  0  0  0
  6 17  1  6  0  0  0
  6  7  1  0  0  0  0
  6  3  1  0  0  0  0
  7 18  1  6  0  0  0
  7  8  1  0  0  0  0
  7  3  1  0  0  0  0
  8  9  2  0  0  0  0
  8 19  1  0  0  0  0
 10  1  1  0  0  0  0
 11  2  1  0  0  0  0
 15  5  1  0  0  0  0
 16  5  1  0  0  0  0
M TOR 0 0 1 2 3
M TOR 1 0 1 2 5
M TOR 2 0 1 2 6
M TOR 3 1 2 3 4
M TOR 4 1 2 3 12
M TOR 5 1 2 3 13
M TOR 6 1 2 5 4
M TOR 7 1 2 5 6
M TOR 8 1 2 5 16
M TOR 9 1 2 6 7
M TOR 10 1 2 6 17
M TOR 11 2 1 0 9
M TOR 12 2 3 4 5
M TOR 13 2 3 4 14
M TOR 14 2 3 4 15
M TOR 15 2 5 4 14
M TOR 16 2 5 4 15
M TOR 17 2 5 6 7
M TOR 18 2 5 6 17
M TOR 19 2 6 5 4
M TOR 20 2 6 5 16
M TOR 21 2 6 7 8
M TOR 22 2 6 7 18
M TOR 23 3 2 1 10
M TOR 24 3 2 1 11
M TOR 25 3 2 5 6
M TOR 26 3 2 5 16
M TOR 27 3 2 6 7
M TOR 28 3 2 6 17
M TOR 29 3 4 5 6
M TOR 30 3 4 5 16
M TOR 31 4 3 2 6
M TOR 32 4 5 6 7
M TOR 33 4 5 6 17
M TOR 34 5 2 1 10
M TOR 35 5 2 1 11
M TOR 36 5 2 3 12
M TOR 37 5 2 3 13
M TOR 38 5 4 3 12
M TOR 39 5 4 3 13
M TOR 40 5 6 7 8
M TOR 41 5 6 7 18
M TOR 42 6 2 1 10
M TOR 43 6 2 1 11
M TOR 44 6 2 3 12
M TOR 45 6 2 3 13
M TOR 46 6 5 4 14
M TOR 47 6 5 4 15
M TOR 48 7 6 5 16
M TOR 49 8 7 6 17
M  END
$$$$
