gdb 188	3.9460512	1.2626536	1.180539	1.6183	74.2	-0.23516	0.07474	0.3099	1100.6586	0.157958	-422.515297	-422.507671	-422.506727	-422.548094	29.558
 OpenBabel02181911403D

 19 21  0  0  1  0  0  0  0  0999 V2000
   -0.0782    0.2502   -0.7815 C   0  0  0  0  0  0  0  0  0  0  0  0
    1.2245   -0.1678   -0.1782 C   0  0  1  0  0  0  0  0  0  0  0  0
    2.2827   -0.0815   -1.1363 O   0  0  0  0  0  0  0  0  0  0  0  0
    2.1035    1.3701   -1.2276 C   0  0  2  0  0  0  0  0  0  0  0  0
    1.9471    1.9221   -2.6590 C   0  0  0  0  0  0  0  0  0  0  0  0
    3.2150    2.7661   -2.8599 C   0  0  0  0  0  0  0  0  0  0  0  0
    3.5600    3.2182   -1.5555 O   0  0  0  0  0  0  0  0  0  0  0  0
    3.3513    2.1122   -0.6975 C   0  0  0  0  0  0  0  0  0  0  0  0
    0.9003    1.2986   -0.2856 C   0  0  1  0  0  0  0  0  0  0  0  0
   -0.2518    0.1030   -1.8435 H   0  0  0  0  0  0  0  0  0  0  0  0
   -0.9517    0.1198   -0.1494 H   0  0  0  0  0  0  0  0  0  0  0  0
    1.3542   -0.8377    0.6632 H   0  0  0  0  0  0  0  0  0  0  0  0
    1.8485    1.1088   -3.3804 H   0  0  0  0  0  0  0  0  0  0  0  0
    1.0517    2.5476   -2.7175 H   0  0  0  0  0  0  0  0  0  0  0  0
    4.0289    2.1560   -3.2841 H   0  0  0  0  0  0  0  0  0  0  0  0
    3.0732    3.6439   -3.4945 H   0  0  0  0  0  0  0  0  0  0  0  0
    4.1964    1.4064   -0.7309 H   0  0  0  0  0  0  0  0  0  0  0  0
    3.2425    2.4860    0.3238 H   0  0  0  0  0  0  0  0  0  0  0  0
    0.6546    2.0337    0.4694 H   0  0  0  0  0  0  0  0  0  0  0  0
  1  9  1  0  0  0  0
  1  2  1  0  0  0  0
  1 11  1  0  0  0  0
  2 12  1  1  0  0  0
  3  2  1  0  0  0  0
  4  3  1  6  0  0  0
  4  8  1  0  0  0  0
  4  9  1  0  0  0  0
  5  4  1  0  0  0  0
  6  5  1  0  0  0  0
  6  7  1  0  0  0  0
  7  8  1  0  0  0  0
  8 18  1  0  0  0  0
  9  2  1  0  0  0  0
  9 19  1  1  0  0  0
 10  1  1  0  0  0  0
 13  5  1  0  0  0  0
 14  5  1  0  0  0  0
 15  6  1  0  0  0  0
 16  6  1  0  0  0  0
 17  8  1  0  0  0  0
M TOR 0 0 1 2 3
M TOR 1 0 1 8 3
M TOR 2 0 1 8 18
M TOR 3 0 8 1 2
M TOR 4 0 8 1 11
M TOR 5 0 8 3 2
M TOR 6 0 8 3 4
M TOR 7 0 8 3 7
M TOR 8 1 2 3 4
M TOR 9 1 2 3 7
M TOR 10 1 2 3 8
M TOR 11 1 8 0 9
M TOR 12 1 8 0 10
M TOR 13 1 8 3 4
M TOR 14 1 8 3 7
M TOR 15 2 1 0 9
M TOR 16 2 1 0 10
M TOR 17 2 1 8 18
M TOR 18 2 3 4 5
M TOR 19 2 3 4 12
M TOR 20 2 3 4 13
M TOR 21 2 3 7 6
M TOR 22 2 3 7 16
M TOR 23 2 3 7 17
M TOR 24 2 3 8 18
M TOR 25 3 2 1 11
M TOR 26 3 4 5 6
M TOR 27 3 4 5 14
M TOR 28 3 4 5 15
M TOR 29 3 7 6 5
M TOR 30 3 8 0 9
M TOR 31 3 8 0 10
M TOR 32 3 8 1 11
M TOR 33 4 3 7 6
M TOR 34 4 3 7 16
M TOR 35 4 3 7 17
M TOR 36 4 3 8 18
M TOR 37 4 5 6 7
M TOR 38 5 4 3 7
M TOR 39 5 4 3 8
M TOR 40 5 6 7 16
M TOR 41 5 6 7 17
M TOR 42 6 5 4 12
M TOR 43 6 5 4 13
M TOR 44 6 7 3 8
M TOR 45 7 3 4 12
M TOR 46 7 3 4 13
M TOR 47 7 3 8 18
M TOR 48 7 6 5 14
M TOR 49 7 6 5 15
M TOR 50 8 3 4 12
M TOR 51 8 3 4 13
M TOR 52 8 3 7 16
M TOR 53 8 3 7 17
M  END
$$$$
