
     RDKit          3D

 19 21  0  0  0  0  0  0  0  0999 V2000
    4.1194   -0.0176   -0.0707 O   0  0  0  0  0  0  0  0  0  0  0  0
    2.9398   -0.5648    0.4924 C   0  0  0  0  0  0  0  0  0  0  0  0
    1.9034   -0.9809   -0.5920 C   0  0  0  0  0  0  0  0  0  0  0  0
    0.7105   -0.0364   -0.6316 C   0  0  0  0  0  0  0  0  0  0  0  0
    0.0537    0.3468    0.6896 C   0  0  0  0  0  0  0  0  0  0  0  0
    0.9062    0.0272    1.9090 C   0  0  0  0  0  0  0  0  0  0  0  0
    2.2979    0.4738    1.4244 C   0  0  0  0  0  0  0  0  0  0  0  0
    2.0553    1.6413    0.6110 O   0  0  0  0  0  0  0  0  0  0  0  0
    0.8551    1.3606   -0.0816 C   0  0  0  0  0  0  0  0  0  0  0  0
    3.8879    0.8886   -0.3167 H   0  0  0  0  0  0  0  0  0  0  0  0
    3.2592   -1.4400    1.0677 H   0  0  0  0  0  0  0  0  0  0  0  0
    2.4243   -0.9954   -1.5540 H   0  0  0  0  0  0  0  0  0  0  0  0
    1.5487   -2.0022   -0.4092 H   0  0  0  0  0  0  0  0  0  0  0  0
    0.0409   -0.1482   -1.4792 H   0  0  0  0  0  0  0  0  0  0  0  0
   -1.0244    0.4004    0.7760 H   0  0  0  0  0  0  0  0  0  0  0  0
    0.5802    0.6142    2.7731 H   0  0  0  0  0  0  0  0  0  0  0  0
    0.9001   -1.0307    2.1916 H   0  0  0  0  0  0  0  0  0  0  0  0
    2.9908    0.7685    2.2146 H   0  0  0  0  0  0  0  0  0  0  0  0
    0.4480    2.2342   -0.5747 H   0  0  0  0  0  0  0  0  0  0  0  0
  1  2  1  0
  2  3  1  0
  3  4  1  0
  4  5  1  0
  5  6  1  0
  6  7  1  0
  7  8  1  0
  8  9  1  0
  7  2  1  0
  9  4  1  0
  9  5  1  0
  1 10  1  0
  2 11  1  0
  3 12  1  0
  3 13  1  0
  4 14  1  0
  5 15  1  0
  6 16  1  0
  6 17  1  0
  7 18  1  0
  9 19  1  0
M  END
$$$$
