
     RDKit          3D

 19 19  0  0  0  0  0  0  0  0999 V2000
   -1.5268    1.4559    1.4248 C   0  0  0  0  0  0  0  0  0  0  0  0
   -0.9311    1.3267    0.0088 C   0  0  0  0  0  0  0  0  0  0  0  0
   -2.0415    1.2787   -1.0701 C   0  0  0  0  0  0  0  0  0  0  0  0
   -1.5645    1.7051   -2.3468 O   0  0  0  0  0  0  0  0  0  0  0  0
   -2.6899   -0.0795   -1.1702 C   0  0  0  0  0  0  0  0  0  0  0  0
   -2.1231   -1.2009   -0.7244 C   0  0  0  0  0  0  0  0  0  0  0  0
   -0.7846   -1.2446   -0.0345 C   0  0  0  0  0  0  0  0  0  0  0  0
   -0.0479    0.0906   -0.0851 C   0  0  0  0  0  0  0  0  0  0  0  0
    1.1542    0.1498   -0.1982 O   0  0  0  0  0  0  0  0  0  0  0  0
   -2.2009    0.6267    1.6595 H   0  0  0  0  0  0  0  0  0  0  0  0
   -0.7373    1.4836    2.1812 H   0  0  0  0  0  0  0  0  0  0  0  0
   -2.1012    2.3841    1.5040 H   0  0  0  0  0  0  0  0  0  0  0  0
   -0.2984    2.1931   -0.2015 H   0  0  0  0  0  0  0  0  0  0  0  0
   -2.7967    2.0292   -0.8072 H   0  0  0  0  0  0  0  0  0  0  0  0
   -1.0175    0.9985   -2.7080 H   0  0  0  0  0  0  0  0  0  0  0  0
   -3.6457   -0.1187   -1.6855 H   0  0  0  0  0  0  0  0  0  0  0  0
   -2.6292   -2.1544   -0.8566 H   0  0  0  0  0  0  0  0  0  0  0  0
   -0.9161   -1.5258    1.0221 H   0  0  0  0  0  0  0  0  0  0  0  0
   -0.1311   -2.0105   -0.4650 H   0  0  0  0  0  0  0  0  0  0  0  0
  1  2  1  0
  2  3  1  0
  3  4  1  0
  3  5  1  0
  5  6  2  0
  6  7  1  0
  7  8  1  0
  8  9  2  0
  8  2  1  0
  1 10  1  0
  1 11  1  0
  1 12  1  0
  2 13  1  0
  3 14  1  0
  4 15  1  0
  5 16  1  0
  6 17  1  0
  7 18  1  0
  7 19  1  0
M  END
$$$$
