
     RDKit          3D

 19 20  0  0  0  0  0  0  0  0999 V2000
   -1.2940   -1.2828   -0.3706 O   0  0  0  0  0  0  0  0  0  0  0  0
   -0.5407   -0.0923   -0.1880 C   0  0  0  0  0  0  0  0  0  0  0  0
   -0.8599    0.8270   -1.3584 C   0  0  0  0  0  0  0  0  0  0  0  0
   -0.4578    0.2511   -2.7671 C   0  0  0  0  0  0  0  0  0  0  0  0
    0.4276    1.4038   -3.2956 C   0  0  0  0  0  0  0  0  0  0  0  0
    1.3027    1.7247   -2.0389 C   0  0  0  0  0  0  0  0  0  0  0  0
   -0.0574    2.1514   -1.3854 C   0  0  0  0  0  0  0  0  0  0  0  0
   -0.3836    2.6239   -2.8196 C   0  0  0  0  0  0  0  0  0  0  0  0
   -0.8921    3.5820   -3.3191 O   0  0  0  0  0  0  0  0  0  0  0  0
   -1.0743   -1.8925    0.3397 H   0  0  0  0  0  0  0  0  0  0  0  0
   -0.8075    0.4082    0.7566 H   0  0  0  0  0  0  0  0  0  0  0  0
    0.5382   -0.3096   -0.1506 H   0  0  0  0  0  0  0  0  0  0  0  0
   -1.9343    1.0348   -1.3222 H   0  0  0  0  0  0  0  0  0  0  0  0
    0.1030   -0.6829   -2.6747 H   0  0  0  0  0  0  0  0  0  0  0  0
   -1.3247    0.0589   -3.4028 H   0  0  0  0  0  0  0  0  0  0  0  0
    0.8390    1.3278   -4.3000 H   0  0  0  0  0  0  0  0  0  0  0  0
    1.8288    0.8800   -1.5903 H   0  0  0  0  0  0  0  0  0  0  0  0
    1.9834    2.5648   -2.1867 H   0  0  0  0  0  0  0  0  0  0  0  0
   -0.1199    2.8167   -0.5261 H   0  0  0  0  0  0  0  0  0  0  0  0
  1  2  1  0
  2  3  1  0
  3  4  1  0
  4  5  1  0
  5  6  1  0
  6  7  1  0
  7  8  1  0
  8  9  2  0
  7  3  1  0
  8  5  1  0
  1 10  1  0
  2 11  1  0
  2 12  1  0
  3 13  1  0
  4 14  1  0
  4 15  1  0
  5 16  1  0
  6 17  1  0
  6 18  1  0
  7 19  1  0
M  END
$$$$
