
     RDKit          3D

 19 21  0  0  0  0  0  0  0  0999 V2000
    1.3267    1.2183   -0.0263 C   0  0  0  0  0  0  0  0  0  0  0  0
    1.1369   -0.3018   -0.0768 C   0  0  0  0  0  0  0  0  0  0  0  0
    1.8059   -0.9375   -1.2995 C   0  0  0  0  0  0  0  0  0  0  0  0
    3.2087   -0.6679   -1.3958 O   0  0  0  0  0  0  0  0  0  0  0  0
    2.7936   -1.9502   -0.8958 C   0  0  0  0  0  0  0  0  0  0  0  0
    2.8136   -2.0401    0.5980 C   0  0  0  0  0  0  0  0  0  0  0  0
    1.5280   -2.5001    1.2505 C   0  0  0  0  0  0  0  0  0  0  0  0
    1.5802   -2.9941    2.5556 O   0  0  0  0  0  0  0  0  0  0  0  0
    1.7893   -1.0314    1.1045 C   0  0  0  0  0  0  0  0  0  0  0  0
    0.8771    1.6376    0.8791 H   0  0  0  0  0  0  0  0  0  0  0  0
    2.3913    1.4665   -0.0345 H   0  0  0  0  0  0  0  0  0  0  0  0
    0.8582    1.7029   -0.8893 H   0  0  0  0  0  0  0  0  0  0  0  0
    0.0621   -0.5262   -0.1154 H   0  0  0  0  0  0  0  0  0  0  0  0
    1.2788   -0.9785   -2.2504 H   0  0  0  0  0  0  0  0  0  0  0  0
    3.0605   -2.7975   -1.5237 H   0  0  0  0  0  0  0  0  0  0  0  0
    3.7455   -2.2060    1.1277 H   0  0  0  0  0  0  0  0  0  0  0  0
    0.7614   -2.9490    0.6151 H   0  0  0  0  0  0  0  0  0  0  0  0
    1.9365   -3.8883    2.5223 H   0  0  0  0  0  0  0  0  0  0  0  0
    1.9845   -0.4856    2.0204 H   0  0  0  0  0  0  0  0  0  0  0  0
  1  2  1  0
  2  3  1  0
  3  4  1  0
  4  5  1  0
  5  6  1  0
  6  7  1  0
  7  8  1  0
  7  9  1  0
  9  2  1  0
  5  3  1  0
  9  6  1  0
  1 10  1  0
  1 11  1  0
  1 12  1  0
  2 13  1  0
  3 14  1  0
  5 15  1  0
  6 16  1  0
  7 17  1  0
  8 18  1  0
  9 19  1  0
M  END
$$$$
