
     RDKit          3D

 19 21  0  0  0  0  0  0  0  0999 V2000
   -1.8977    0.8098   -1.5962 C   0  0  0  0  0  0  0  0  0  0  0  0
   -1.7338    0.4547   -3.0958 C   0  0  0  0  0  0  0  0  0  0  0  0
   -1.7036   -1.0560   -2.6290 C   0  0  0  0  0  0  0  0  0  0  0  0
   -0.9470   -0.4094   -1.4472 C   0  0  0  0  0  0  0  0  0  0  0  0
   -0.5282   -0.8936   -0.2065 O   0  0  0  0  0  0  0  0  0  0  0  0
    0.7093   -0.1989    0.0596 C   0  0  0  0  0  0  0  0  0  0  0  0
    1.0028    0.6651   -1.0303 O   0  0  0  0  0  0  0  0  0  0  0  0
    0.3380    0.0411   -2.1226 C   0  0  0  0  0  0  0  0  0  0  0  0
   -0.2379    0.8432   -3.3064 C   0  0  0  0  0  0  0  0  0  0  0  0
   -1.5452    1.7856   -1.2542 H   0  0  0  0  0  0  0  0  0  0  0  0
   -2.8948    0.5949   -1.2067 H   0  0  0  0  0  0  0  0  0  0  0  0
   -2.4536    0.7837   -3.8434 H   0  0  0  0  0  0  0  0  0  0  0  0
   -2.7038   -1.4150   -2.3807 H   0  0  0  0  0  0  0  0  0  0  0  0
   -1.1714   -1.7894   -3.2415 H   0  0  0  0  0  0  0  0  0  0  0  0
    0.6178    0.4131    0.9633 H   0  0  0  0  0  0  0  0  0  0  0  0
    1.4950   -0.9584    0.1900 H   0  0  0  0  0  0  0  0  0  0  0  0
    0.9312   -0.8205   -2.4646 H   0  0  0  0  0  0  0  0  0  0  0  0
   -0.0849    1.9210   -3.2071 H   0  0  0  0  0  0  0  0  0  0  0  0
    0.1768    0.5204   -4.2644 H   0  0  0  0  0  0  0  0  0  0  0  0
  1  2  1  0
  2  3  1  0
  3  4  1  0
  4  5  1  0
  5  6  1  0
  6  7  1  0
  7  8  1  0
  8  9  1  0
  4  1  1  0
  8  4  1  0
  9  2  1  0
  1 10  1  0
  1 11  1  0
  2 12  1  0
  3 13  1  0
  3 14  1  0
  6 15  1  0
  6 16  1  0
  8 17  1  0
  9 18  1  0
  9 19  1  0
M  END
$$$$
