
     RDKit          3D

 19 21  0  0  0  0  0  0  0  0999 V2000
    1.6522   -0.2711    0.7810 O   0  0  0  0  0  0  0  0  0  0  0  0
    0.6659    0.5179    0.1332 C   0  0  0  0  0  0  0  0  0  0  0  0
   -0.2289    1.2168    1.1331 C   0  0  0  0  0  0  0  0  0  0  0  0
   -1.4698    1.7609    0.6004 O   0  0  0  0  0  0  0  0  0  0  0  0
   -1.5335    0.6904    1.5080 C   0  0  0  0  0  0  0  0  0  0  0  0
   -2.3690    0.6040    2.7939 C   0  0  0  0  0  0  0  0  0  0  0  0
   -1.9308   -0.8924    2.8421 C   0  0  0  0  0  0  0  0  0  0  0  0
   -2.2940   -0.6375    1.3454 C   0  0  0  0  0  0  0  0  0  0  0  0
   -3.5434    0.1433    1.8694 C   0  0  0  0  0  0  0  0  0  0  0  0
    1.1984   -0.9764    1.2539 H   0  0  0  0  0  0  0  0  0  0  0  0
    1.2142    1.2582   -0.4583 H   0  0  0  0  0  0  0  0  0  0  0  0
    0.0461   -0.0684   -0.5604 H   0  0  0  0  0  0  0  0  0  0  0  0
    0.2879    1.8828    1.8253 H   0  0  0  0  0  0  0  0  0  0  0  0
   -2.4071    1.3139    3.6194 H   0  0  0  0  0  0  0  0  0  0  0  0
   -0.8823   -1.0957    3.0784 H   0  0  0  0  0  0  0  0  0  0  0  0
   -2.6025   -1.5639    3.3811 H   0  0  0  0  0  0  0  0  0  0  0  0
   -2.2530   -1.3464    0.5186 H   0  0  0  0  0  0  0  0  0  0  0  0
   -3.9668    0.8957    1.2021 H   0  0  0  0  0  0  0  0  0  0  0  0
   -4.3171   -0.4629    2.3474 H   0  0  0  0  0  0  0  0  0  0  0  0
  1  2  1  0
  2  3  1  0
  3  4  1  0
  4  5  1  0
  5  6  1  0
  6  7  1  0
  7  8  1  0
  8  9  1  0
  5  3  1  0
  8  5  1  0
  9  6  1  0
  1 10  1  0
  2 11  1  0
  2 12  1  0
  3 13  1  0
  6 14  1  0
  7 15  1  0
  7 16  1  0
  8 17  1  0
  9 18  1  0
  9 19  1  0
M  END
$$$$
