
     RDKit          3D

 19 18  0  0  0  0  0  0  0  0999 V2000
   -5.9889   -2.5017    1.2488 C   0  0  0  0  0  0  0  0  0  0  0  0
   -4.6408   -3.1935    1.1538 C   0  0  0  0  0  0  0  0  0  0  0  0
   -3.6572   -2.2165    0.8583 O   0  0  0  0  0  0  0  0  0  0  0  0
   -2.3649   -2.7705    0.7506 C   0  0  0  0  0  0  0  0  0  0  0  0
   -1.3909   -1.7333    0.4481 C   0  0  0  0  0  0  0  0  0  0  0  0
   -0.5547   -0.9003    0.1970 C   0  0  0  0  0  0  0  0  0  0  0  0
    0.4430    0.1088   -0.1054 C   0  0  0  0  0  0  0  0  0  0  0  0
   -0.0859    1.5218   -0.2413 C   0  0  0  0  0  0  0  0  0  0  0  0
    1.6144   -0.1763   -0.2371 O   0  0  0  0  0  0  0  0  0  0  0  0
   -5.9764   -1.7446    2.0376 H   0  0  0  0  0  0  0  0  0  0  0  0
   -6.2345   -2.0094    0.3038 H   0  0  0  0  0  0  0  0  0  0  0  0
   -6.7733   -3.2294    1.4767 H   0  0  0  0  0  0  0  0  0  0  0  0
   -4.3957   -3.7021    2.1015 H   0  0  0  0  0  0  0  0  0  0  0  0
   -4.6538   -3.9668    0.3671 H   0  0  0  0  0  0  0  0  0  0  0  0
   -2.0737   -3.2772    1.6878 H   0  0  0  0  0  0  0  0  0  0  0  0
   -2.3305   -3.5404   -0.0406 H   0  0  0  0  0  0  0  0  0  0  0  0
   -0.5819    1.8283    0.6860 H   0  0  0  0  0  0  0  0  0  0  0  0
    0.7387    2.1994   -0.4675 H   0  0  0  0  0  0  0  0  0  0  0  0
   -0.8392    1.5665   -1.0352 H   0  0  0  0  0  0  0  0  0  0  0  0
  1  2  1  0
  2  3  1  0
  3  4  1  0
  4  5  1  0
  5  6  3  0
  6  7  1  0
  7  8  1  0
  7  9  2  0
  1 10  1  0
  1 11  1  0
  1 12  1  0
  2 13  1  0
  2 14  1  0
  4 15  1  0
  4 16  1  0
  8 17  1  0
  8 18  1  0
  8 19  1  0
M  END
$$$$
