
     RDKit          3D

 19 20  0  0  0  0  0  0  0  0999 V2000
    1.0479   -0.9475    0.2675 C   0  0  0  0  0  0  0  0  0  0  0  0
    0.8989    0.3513   -0.5194 C   0  0  0  0  0  0  0  0  0  0  0  0
    1.5129    1.5583    0.1744 C   0  0  0  0  0  0  0  0  0  0  0  0
    2.0415    1.4807    1.2673 O   0  0  0  0  0  0  0  0  0  0  0  0
    1.4540    2.8456   -0.5710 C   0  0  0  0  0  0  0  0  0  0  0  0
    1.5068    4.1077    0.2887 C   0  0  0  0  0  0  0  0  0  0  0  0
    1.5131    5.3234   -0.6301 C   0  0  0  0  0  0  0  0  0  0  0  0
    2.6536    4.7935   -1.3705 O   0  0  0  0  0  0  0  0  0  0  0  0
    2.7184    3.6946   -0.4740 C   0  0  0  0  0  0  0  0  0  0  0  0
    0.5819   -0.8616    1.2522 H   0  0  0  0  0  0  0  0  0  0  0  0
    0.5812   -1.7793   -0.2674 H   0  0  0  0  0  0  0  0  0  0  0  0
    2.1021   -1.1869    0.4287 H   0  0  0  0  0  0  0  0  0  0  0  0
    1.3530    0.2709   -1.5171 H   0  0  0  0  0  0  0  0  0  0  0  0
   -0.1590    0.5832   -0.7099 H   0  0  0  0  0  0  0  0  0  0  0  0
    0.9137    2.8605   -1.5136 H   0  0  0  0  0  0  0  0  0  0  0  0
    1.3025    4.0684    1.3487 H   0  0  0  0  0  0  0  0  0  0  0  0
    0.6417    5.4936   -1.2721 H   0  0  0  0  0  0  0  0  0  0  0  0
    1.7919    6.2515   -0.1206 H   0  0  0  0  0  0  0  0  0  0  0  0
    3.6806    3.2934   -0.1820 H   0  0  0  0  0  0  0  0  0  0  0  0
  1  2  1  0
  2  3  1  0
  3  4  2  0
  3  5  1  0
  5  6  1  0
  6  7  1  0
  7  8  1  0
  8  9  1  0
  9  5  1  0
  9  6  1  0
  1 10  1  0
  1 11  1  0
  1 12  1  0
  2 13  1  0
  2 14  1  0
  5 15  1  0
  6 16  1  0
  7 17  1  0
  7 18  1  0
  9 19  1  0
M  END
$$$$
