
     RDKit          3D

 19 20  0  0  0  0  0  0  0  0999 V2000
   -3.6456    1.7511    0.3148 O   0  0  0  0  0  0  0  0  0  0  0  0
   -3.0132    0.7269    1.0643 C   0  0  0  0  0  0  0  0  0  0  0  0
   -2.0204    1.2429    2.0834 C   0  0  0  0  0  0  0  0  0  0  0  0
   -0.7448    0.5022    2.3262 C   0  0  0  0  0  0  0  0  0  0  0  0
   -0.0591    0.7093    3.6782 C   0  0  0  0  0  0  0  0  0  0  0  0
    0.0556    2.2380    3.8532 C   0  0  0  0  0  0  0  0  0  0  0  0
   -0.0400    2.8242    2.4319 C   0  0  0  0  0  0  0  0  0  0  0  0
    0.3956    3.8940    2.0856 O   0  0  0  0  0  0  0  0  0  0  0  0
   -0.7062    1.8136    1.5552 C   0  0  0  0  0  0  0  0  0  0  0  0
   -4.1050    2.3322    0.9294 H   0  0  0  0  0  0  0  0  0  0  0  0
   -3.7536    0.0865    1.5702 H   0  0  0  0  0  0  0  0  0  0  0  0
   -2.4962    0.1027    0.3276 H   0  0  0  0  0  0  0  0  0  0  0  0
   -2.4740    1.7510    2.9335 H   0  0  0  0  0  0  0  0  0  0  0  0
   -0.5915   -0.4380    1.8072 H   0  0  0  0  0  0  0  0  0  0  0  0
   -0.6034    0.2256    4.4957 H   0  0  0  0  0  0  0  0  0  0  0  0
    0.9394    0.2610    3.6453 H   0  0  0  0  0  0  0  0  0  0  0  0
   -0.7630    2.6501    4.4553 H   0  0  0  0  0  0  0  0  0  0  0  0
    0.9847    2.5617    4.3254 H   0  0  0  0  0  0  0  0  0  0  0  0
   -0.5786    1.8902    0.4829 H   0  0  0  0  0  0  0  0  0  0  0  0
  1  2  1  0
  2  3  1  0
  3  4  1  0
  4  5  1  0
  5  6  1  0
  6  7  1  0
  7  8  2  0
  7  9  1  0
  9  3  1  0
  9  4  1  0
  1 10  1  0
  2 11  1  0
  2 12  1  0
  3 13  1  0
  4 14  1  0
  5 15  1  0
  5 16  1  0
  6 17  1  0
  6 18  1  0
  9 19  1  0
M  END
$$$$
