gdb 829	3.1468286	0.8081403	0.6991869	3.7641	78.37	-0.2479	-0.01638	0.23152	1609.287	0.1553	-422.529362	-422.520193	-422.519248	-422.564595	32.636
 OpenBabel02181911403D

 19 20  0  0  1  0  0  0  0  0999 V2000
    0.6073   -1.2078    0.2033 O   0  0  0  0  0  0  0  0  0  0  0  0
    0.3417   -0.0637   -0.0704 C   0  0  0  0  0  0  0  0  0  0  0  0
    0.0485    0.9988    0.9141 C   0  0  2  0  0  0  0  0  0  0  0  0
   -0.9541    2.0841    0.5355 C   0  0  0  0  0  0  0  0  0  0  0  0
    0.4930    2.4263    0.5990 C   0  0  1  0  0  0  0  0  0  0  0  0
    1.0623    3.2886    1.7083 C   0  0  0  0  0  0  0  0  0  0  0  0
    2.5406    3.0492    1.9099 C   0  0  2  0  0  0  0  0  0  0  0  0
    3.4704    4.1320    2.2495 C   0  0  0  0  0  0  0  0  0  0  0  0
    3.4060    3.6137    0.9195 O   0  0  0  0  0  0  0  0  0  0  0  0
    0.3002    0.2818   -1.1321 H   0  0  0  0  0  0  0  0  0  0  0  0
    0.0760    0.6772    1.9499 H   0  0  0  0  0  0  0  0  0  0  0  0
   -1.4282    2.0107   -0.4378 H   0  0  0  0  0  0  0  0  0  0  0  0
   -1.6085    2.4285    1.3290 H   0  0  0  0  0  0  0  0  0  0  0  0
    0.9974    2.5505   -0.3561 H   0  0  0  0  0  0  0  0  0  0  0  0
    0.9057    4.3465    1.4659 H   0  0  0  0  0  0  0  0  0  0  0  0
    0.5292    3.0889    2.6468 H   0  0  0  0  0  0  0  0  0  0  0  0
    2.8132    2.0336    2.2022 H   0  0  0  0  0  0  0  0  0  0  0  0
    3.0901    5.1454    2.3747 H   0  0  0  0  0  0  0  0  0  0  0  0
    4.3863    3.9103    2.7952 H   0  0  0  0  0  0  0  0  0  0  0  0
  2  1  2  0  0  0  0
  2  3  1  0  0  0  0
  3 11  1  1  0  0  0
  4  5  1  0  0  0  0
  4  3  1  0  0  0  0
  4 13  1  0  0  0  0
  5 14  1  6  0  0  0
  5  3  1  0  0  0  0
  5  6  1  0  0  0  0
  6  7  1  0  0  0  0
  6 16  1  0  0  0  0
  7 17  1  1  0  0  0
  7  8  1  0  0  0  0
  8 18  1  0  0  0  0
  8 19  1  0  0  0  0
  9  7  1  0  0  0  0
  9  8  1  0  0  0  0
 10  2  1  0  0  0  0
 12  4  1  0  0  0  0
 15  6  1  0  0  0  0
M TOR 0 0 1 2 3
M TOR 1 0 1 2 4
M TOR 2 0 1 2 10
M TOR 3 1 2 3 4
M TOR 4 1 2 3 11
M TOR 5 1 2 3 12
M TOR 6 1 2 4 5
M TOR 7 1 2 4 13
M TOR 8 2 3 4 5
M TOR 9 2 3 4 13
M TOR 10 2 4 3 11
M TOR 11 2 4 3 12
M TOR 12 2 4 5 6
M TOR 13 2 4 5 14
M TOR 14 2 4 5 15
M TOR 15 3 2 1 9
M TOR 16 3 4 2 10
M TOR 17 3 4 5 6
M TOR 18 3 4 5 14
M TOR 19 3 4 5 15
M TOR 20 4 2 1 9
M TOR 21 4 5 6 7
M TOR 22 4 5 6 8
M TOR 23 4 5 6 16
M TOR 24 5 4 2 10
M TOR 25 5 4 3 11
M TOR 26 5 4 3 12
M TOR 27 5 6 7 8
M TOR 28 5 6 7 17
M TOR 29 5 6 7 18
M TOR 30 6 5 4 13
M TOR 31 6 8 7 17
M TOR 32 6 8 7 18
M TOR 33 7 6 5 14
M TOR 34 7 6 5 15
M TOR 35 7 8 6 16
M TOR 36 8 6 5 14
M TOR 37 8 6 5 15
M  END
$$$$
