
     RDKit          3D

 19 21  0  0  0  0  0  0  0  0999 V2000
    1.6014   -0.5878   -1.2081 C   0  0  0  0  0  0  0  0  0  0  0  0
    1.2448    0.1183    0.1018 C   0  0  0  0  0  0  0  0  0  0  0  0
    1.8405    1.5566    0.2108 C   0  0  0  0  0  0  0  0  0  0  0  0
    2.2947    1.6464    1.6606 C   0  0  0  0  0  0  0  0  0  0  0  0
    1.1318    1.4135    2.5262 O   0  0  0  0  0  0  0  0  0  0  0  0
    1.5392    0.0567    2.7035 C   0  0  0  0  0  0  0  0  0  0  0  0
    1.8155   -0.5883    1.3377 C   0  0  0  0  0  0  0  0  0  0  0  0
    2.8612    0.2431    2.0252 C   0  0  0  0  0  0  0  0  0  0  0  0
    4.1609   -0.1466    2.2489 O   0  0  0  0  0  0  0  0  0  0  0  0
    1.1557   -1.5870   -1.2575 H   0  0  0  0  0  0  0  0  0  0  0  0
    1.2390   -0.0188   -2.0712 H   0  0  0  0  0  0  0  0  0  0  0  0
    2.6866   -0.6993   -1.3120 H   0  0  0  0  0  0  0  0  0  0  0  0
    0.1541    0.1762    0.1860 H   0  0  0  0  0  0  0  0  0  0  0  0
    2.7084    1.6694   -0.4522 H   0  0  0  0  0  0  0  0  0  0  0  0
    1.1160    2.3352   -0.0439 H   0  0  0  0  0  0  0  0  0  0  0  0
    2.8422    2.5432    1.9594 H   0  0  0  0  0  0  0  0  0  0  0  0
    1.1950   -0.4762    3.5819 H   0  0  0  0  0  0  0  0  0  0  0  0
    1.9361   -1.6669    1.3525 H   0  0  0  0  0  0  0  0  0  0  0  0
    4.4713    0.2764    3.0578 H   0  0  0  0  0  0  0  0  0  0  0  0
  1  2  1  0
  2  3  1  0
  3  4  1  0
  4  5  1  0
  5  6  1  0
  6  7  1  0
  7  8  1  0
  8  9  1  0
  7  2  1  0
  8  4  1  0
  8  6  1  0
  1 10  1  0
  1 11  1  0
  1 12  1  0
  2 13  1  0
  3 14  1  0
  3 15  1  0
  4 16  1  0
  6 17  1  0
  7 18  1  0
  9 19  1  0
M  END
$$$$
