gdb 3194	3.2023484	1.5947985	1.3793761	0.577	73.94	-0.24008	0.07835	0.31843	995.8929	0.157775	-422.526422	-422.518889	-422.517945	-422.557773	30.711
 OpenBabel02181911413D

 19 21  0  0  1  0  0  0  0  0999 V2000
   -0.2515   -0.2108   -0.2105 C   0  0  0  0  0  0  0  0  0  0  0  0
    1.2678   -0.1051   -0.1361 C   0  0  1  0  0  0  0  0  0  0  0  0
    1.8650    1.3191    0.0027 C   0  0  2  0  0  0  0  0  0  0  0  0
    3.3902    1.0353   -0.0996 C   0  0  0  0  0  0  0  0  0  0  0  0
    3.1885    0.3582    1.2532 C   0  0  1  0  0  0  0  0  0  0  0  0
    4.2681    0.0209    2.0449 O   0  0  0  0  0  0  0  0  0  0  0  0
    2.0288    1.3309    1.5987 C   0  0  2  0  0  0  0  0  0  0  0  0
    1.2290    0.2884    2.1717 O   0  0  0  0  0  0  0  0  0  0  0  0
    1.8911   -0.5739    1.1958 C   0  0  1  0  0  0  0  0  0  0  0  0
   -0.7169    0.2642    0.6554 H   0  0  0  0  0  0  0  0  0  0  0  0
   -0.6272    0.2739   -1.1179 H   0  0  0  0  0  0  0  0  0  0  0  0
   -0.5716   -1.2585   -0.2365 H   0  0  0  0  0  0  0  0  0  0  0  0
    1.7234   -0.6232   -0.9871 H   0  0  0  0  0  0  0  0  0  0  0  0
    1.3974    2.1385   -0.5385 H   0  0  0  0  0  0  0  0  0  0  0  0
    3.7459    0.4514   -0.9527 H   0  0  0  0  0  0  0  0  0  0  0  0
    4.0017    1.9342    0.0198 H   0  0  0  0  0  0  0  0  0  0  0  0
    3.9326   -0.2622    2.9040 H   0  0  0  0  0  0  0  0  0  0  0  0
    2.0731    2.2649    2.1566 H   0  0  0  0  0  0  0  0  0  0  0  0
    1.8918   -1.6294    1.4706 H   0  0  0  0  0  0  0  0  0  0  0  0
  1  2  1  0  0  0  0
  1 10  1  0  0  0  0
  2 13  1  6  0  0  0
  2  3  1  0  0  0  0
  2  9  1  0  0  0  0
  3 14  1  6  0  0  0
  3  7  1  0  0  0  0
  4  3  1  0  0  0  0
  4 16  1  0  0  0  0
  4  5  1  0  0  0  0
  5  7  1  0  0  0  0
  5  6  1  1  0  0  0
  6 17  1  0  0  0  0
  7 18  1  1  0  0  0
  7  8  1  0  0  0  0
  9  5  1  0  0  0  0
  9 19  1  1  0  0  0
  9  8  1  0  0  0  0
 11  1  1  0  0  0  0
 12  1  1  0  0  0  0
 15  4  1  0  0  0  0
M TOR 0 0 1 2 3
M TOR 1 0 1 2 6
M TOR 2 0 1 2 13
M TOR 3 0 1 8 4
M TOR 4 0 1 8 7
M TOR 5 0 1 8 18
M TOR 6 1 2 3 4
M TOR 7 1 2 3 14
M TOR 8 1 2 3 15
M TOR 9 1 2 6 4
M TOR 10 1 2 6 7
M TOR 11 1 2 6 17
M TOR 12 1 8 4 3
M TOR 13 1 8 4 5
M TOR 14 1 8 4 6
M TOR 15 1 8 7 6
M TOR 16 2 1 0 9
M TOR 17 2 1 0 10
M TOR 18 2 1 0 11
M TOR 19 2 1 8 4
M TOR 20 2 1 8 7
M TOR 21 2 1 8 18
M TOR 22 2 3 4 5
M TOR 23 2 3 4 6
M TOR 24 2 3 4 8
M TOR 25 2 6 4 5
M TOR 26 2 6 4 8
M TOR 27 2 6 7 8
M TOR 28 3 2 1 8
M TOR 29 3 2 1 12
M TOR 30 3 2 6 7
M TOR 31 3 2 6 17
M TOR 32 3 4 5 16
M TOR 33 3 4 6 7
M TOR 34 3 4 6 17
M TOR 35 3 4 8 7
M TOR 36 3 4 8 18
M TOR 37 4 3 2 13
M TOR 38 4 6 2 13
M TOR 39 4 6 7 8
M TOR 40 4 8 1 12
M TOR 41 5 4 3 14
M TOR 42 5 4 3 15
M TOR 43 5 4 6 7
M TOR 44 5 4 6 17
M TOR 45 5 4 8 7
M TOR 46 5 4 8 18
M TOR 47 6 2 1 8
M TOR 48 6 2 1 12
M TOR 49 6 2 3 14
M TOR 50 6 2 3 15
M TOR 51 6 4 3 14
M TOR 52 6 4 3 15
M TOR 53 6 4 5 16
M TOR 54 6 4 8 18
M TOR 55 6 7 8 18
M TOR 56 7 6 2 13
M TOR 57 7 8 1 12
M TOR 58 8 1 0 9
M TOR 59 8 1 0 10
M TOR 60 8 1 0 11
M TOR 61 8 1 2 13
M TOR 62 8 4 3 14
M TOR 63 8 4 3 15
M TOR 64 8 4 5 16
M TOR 65 8 4 6 17
M TOR 66 8 7 6 17
M  END
$$$$
