gdb 2799	2.9342043	1.4196489	1.2074099	0.6591	74.78	-0.23423	0.0578	0.29203	1101.9602	0.156131	-422.498011	-422.489851	-422.488907	-422.530114	32.169
 OpenBabel02181911413D

 19 21  0  0  1  0  0  0  0  0999 V2000
    1.5501   -0.8595   -0.9493 C   0  0  0  0  0  0  0  0  0  0  0  0
    1.2685   -0.0769    0.3168 C   0  0  2  0  0  0  0  0  0  0  0  0
    2.0823    1.1633    0.5585 C   0  0  2  0  0  0  0  0  0  0  0  0
    2.3177   -0.1126    1.3928 C   0  0  1  0  0  0  0  0  0  0  0  0
    1.9061    0.6312    2.6818 C   0  0  2  0  0  0  0  0  0  0  0  0
    2.8813    0.5100    3.6649 O   0  0  0  0  0  0  0  0  0  0  0  0
    0.4076    0.7003    3.0637 C   0  0  0  0  0  0  0  0  0  0  0  0
    0.2007    1.8105    2.1543 O   0  0  0  0  0  0  0  0  0  0  0  0
    1.6163    1.8939    1.8353 C   0  0  2  0  0  0  0  0  0  0  0  0
    1.2443   -1.9055   -0.8411 H   0  0  0  0  0  0  0  0  0  0  0  0
    1.0059   -0.4364   -1.8001 H   0  0  0  0  0  0  0  0  0  0  0  0
    2.6171   -0.8485   -1.1960 H   0  0  0  0  0  0  0  0  0  0  0  0
    0.2205   -0.0464    0.5998 H   0  0  0  0  0  0  0  0  0  0  0  0
    2.7019    1.6011   -0.2156 H   0  0  0  0  0  0  0  0  0  0  0  0
    3.1496   -0.8062    1.3681 H   0  0  0  0  0  0  0  0  0  0  0  0
    2.6730    1.1217    4.3800 H   0  0  0  0  0  0  0  0  0  0  0  0
   -0.2312   -0.1598    2.8340 H   0  0  0  0  0  0  0  0  0  0  0  0
    0.2431    1.0028    4.1087 H   0  0  0  0  0  0  0  0  0  0  0  0
    2.0465    2.8790    2.0318 H   0  0  0  0  0  0  0  0  0  0  0  0
  1 10  1  0  0  0  0
  1  2  1  0  0  0  0
  2  3  1  0  0  0  0
  2 13  1  1  0  0  0
  2  4  1  0  0  0  0
  3 14  1  6  0  0  0
  3  4  1  0  0  0  0
  3  9  1  0  0  0  0
  4 15  1  6  0  0  0
  4  5  1  0  0  0  0
  5  7  1  0  0  0  0
  5  6  1  1  0  0  0
  6 16  1  0  0  0  0
  7 18  1  0  0  0  0
  8  7  1  0  0  0  0
  9 19  1  1  0  0  0
  9  8  1  0  0  0  0
  9  5  1  0  0  0  0
 11  1  1  0  0  0  0
 12  1  1  0  0  0  0
 17  7  1  0  0  0  0
M TOR 0 0 1 2 3
M TOR 1 0 1 2 8
M TOR 2 0 1 2 13
M TOR 3 0 1 3 4
M TOR 4 0 1 3 14
M TOR 5 1 2 3 4
M TOR 6 1 2 3 14
M TOR 7 1 2 8 4
M TOR 8 1 2 8 7
M TOR 9 1 2 8 18
M TOR 10 1 3 2 8
M TOR 11 1 3 2 13
M TOR 12 1 3 4 5
M TOR 13 1 3 4 6
M TOR 14 1 3 4 8
M TOR 15 2 1 0 9
M TOR 16 2 1 0 10
M TOR 17 2 1 0 11
M TOR 18 2 3 1 12
M TOR 19 2 3 4 5
M TOR 20 2 3 4 6
M TOR 21 2 3 4 8
M TOR 22 2 8 4 5
M TOR 23 2 8 4 6
M TOR 24 2 8 7 6
M TOR 25 3 1 0 9
M TOR 26 3 1 0 10
M TOR 27 3 1 0 11
M TOR 28 3 2 8 7
M TOR 29 3 2 8 18
M TOR 30 3 4 5 15
M TOR 31 3 4 6 7
M TOR 32 3 4 6 16
M TOR 33 3 4 6 17
M TOR 34 3 4 8 7
M TOR 35 3 4 8 18
M TOR 36 4 3 1 12
M TOR 37 4 3 2 13
M TOR 38 4 6 7 8
M TOR 39 4 8 2 13
M TOR 40 5 4 3 14
M TOR 41 5 4 6 7
M TOR 42 5 4 6 16
M TOR 43 5 4 6 17
M TOR 44 5 4 8 7
M TOR 45 5 4 8 18
M TOR 46 6 4 3 14
M TOR 47 6 4 5 15
M TOR 48 6 4 8 18
M TOR 49 6 7 8 18
M TOR 50 7 8 2 13
M TOR 51 8 2 1 12
M TOR 52 8 2 3 14
M TOR 53 8 4 3 14
M TOR 54 8 4 5 15
M TOR 55 8 4 6 16
M TOR 56 8 4 6 17
M TOR 57 8 7 6 16
M TOR 58 8 7 6 17
M  END
$$$$
