
     RDKit          3D

 19 20  0  0  0  0  0  0  0  0999 V2000
    1.0616    1.1569    0.0489 C   0  0  0  0  0  0  0  0  0  0  0  0
    1.0074   -0.3507    0.1733 C   0  0  0  0  0  0  0  0  0  0  0  0
    1.5884   -1.2311   -0.8800 C   0  0  0  0  0  0  0  0  0  0  0  0
    1.0283   -2.6389   -0.9993 C   0  0  0  0  0  0  0  0  0  0  0  0
    0.8798   -3.1067    0.3343 O   0  0  0  0  0  0  0  0  0  0  0  0
    1.9379   -2.5581    1.1192 C   0  0  0  0  0  0  0  0  0  0  0  0
    2.2403   -1.1950    0.5120 C   0  0  0  0  0  0  0  0  0  0  0  0
    3.5699   -0.6014    0.7324 C   0  0  0  0  0  0  0  0  0  0  0  0
    4.4241   -1.1037    1.4270 O   0  0  0  0  0  0  0  0  0  0  0  0
    1.0968    1.6405    1.0305 H   0  0  0  0  0  0  0  0  0  0  0  0
    1.9292    1.4968   -0.5236 H   0  0  0  0  0  0  0  0  0  0  0  0
    0.1677    1.5196   -0.4694 H   0  0  0  0  0  0  0  0  0  0  0  0
    0.1057   -0.7309    0.6493 H   0  0  0  0  0  0  0  0  0  0  0  0
    2.0916   -0.7855   -1.7315 H   0  0  0  0  0  0  0  0  0  0  0  0
    0.0423   -2.6850   -1.4735 H   0  0  0  0  0  0  0  0  0  0  0  0
    1.7226   -3.2707   -1.5764 H   0  0  0  0  0  0  0  0  0  0  0  0
    1.5867   -2.5177    2.1543 H   0  0  0  0  0  0  0  0  0  0  0  0
    2.8425   -3.1808    1.0826 H   0  0  0  0  0  0  0  0  0  0  0  0
    3.7591    0.3600    0.2074 H   0  0  0  0  0  0  0  0  0  0  0  0
  1  2  1  0
  2  3  1  0
  3  4  1  0
  4  5  1  0
  5  6  1  0
  6  7  1  0
  7  8  1  0
  8  9  2  0
  7  2  1  0
  7  3  1  0
  1 10  1  0
  1 11  1  0
  1 12  1  0
  2 13  1  0
  3 14  1  0
  4 15  1  0
  4 16  1  0
  6 17  1  0
  6 18  1  0
  8 19  1  0
M  END
$$$$
