gdb 2106	2.5343201	1.5863752	1.3591253	2.6209	75.64	-0.22462	0.06093	0.28554999999999997	1056.2084	0.154697	-422.500611	-422.491692	-422.490748	-422.533446	34.087
 OpenBabel02181911403D

 19 21  0  0  1  0  0  0  0  0999 V2000
    4.6236   -0.3905    1.6751 C   0  0  0  0  0  0  0  0  0  0  0  0
    3.3442   -0.2456    0.9082 C   0  0  2  0  0  0  0  0  0  0  0  0
    2.1654   -1.2129    0.7990 C   0  0  0  0  0  0  0  0  0  0  0  0
    1.4148   -0.0680    0.0625 C   0  0  2  0  0  0  0  0  0  0  0  0
   -0.0698    0.0065   -0.1026 C   0  0  0  0  0  0  0  0  0  0  0  0
    2.1659    0.0498   -1.1868 O   0  0  0  0  0  0  0  0  0  0  0  0
    3.2373    0.5803   -0.4166 C   0  0  1  0  0  0  0  0  0  0  0  0
    2.4253    0.9660    0.7590 C   0  0  2  0  0  0  0  0  0  0  0  0
    2.2973    2.1624    1.4141 O   0  0  0  0  0  0  0  0  0  0  0  0
    5.2351   -1.2092    1.2788 H   0  0  0  0  0  0  0  0  0  0  0  0
    5.2211    0.5263    1.6211 H   0  0  0  0  0  0  0  0  0  0  0  0
    4.4391   -0.6005    2.7355 H   0  0  0  0  0  0  0  0  0  0  0  0
    2.2931   -2.1369    0.2251 H   0  0  0  0  0  0  0  0  0  0  0  0
    1.7280   -1.4286    1.7791 H   0  0  0  0  0  0  0  0  0  0  0  0
   -0.5713   -0.0815    0.8661 H   0  0  0  0  0  0  0  0  0  0  0  0
   -0.3612    0.9550   -0.5623 H   0  0  0  0  0  0  0  0  0  0  0  0
   -0.4196   -0.8093   -0.7449 H   0  0  0  0  0  0  0  0  0  0  0  0
    4.0824    1.0393   -0.9127 H   0  0  0  0  0  0  0  0  0  0  0  0
    2.1115    1.9886    2.3443 H   0  0  0  0  0  0  0  0  0  0  0  0
  1 12  1  0  0  0  0
  2  1  1  1  0  0  0
  3  2  1  0  0  0  0
  3 14  1  0  0  0  0
  4  5  1  1  0  0  0
  4  8  1  0  0  0  0
  4  3  1  0  0  0  0
  5 15  1  0  0  0  0
  6  7  1  0  0  0  0
  6  4  1  0  0  0  0
  7 18  1  6  0  0  0
  7  8  1  0  0  0  0
  7  2  1  0  0  0  0
  8  2  1  0  0  0  0
  8  9  1  1  0  0  0
  9 19  1  0  0  0  0
 10  1  1  0  0  0  0
 11  1  1  0  0  0  0
 13  3  1  0  0  0  0
 16  5  1  0  0  0  0
 17  5  1  0  0  0  0
M TOR 0 0 1 2 3
M TOR 1 0 1 2 12
M TOR 2 0 1 2 13
M TOR 3 0 1 6 5
M TOR 4 0 1 6 7
M TOR 5 0 1 6 17
M TOR 6 0 1 7 3
M TOR 7 0 1 7 8
M TOR 8 1 2 3 4
M TOR 9 1 2 3 5
M TOR 10 1 2 3 7
M TOR 11 1 6 5 3
M TOR 12 1 6 7 3
M TOR 13 1 6 7 8
M TOR 14 1 7 3 4
M TOR 15 1 7 3 5
M TOR 16 1 7 6 5
M TOR 17 1 7 6 17
M TOR 18 1 7 8 18
M TOR 19 2 1 0 9
M TOR 20 2 1 0 10
M TOR 21 2 1 0 11
M TOR 22 2 1 6 5
M TOR 23 2 1 6 7
M TOR 24 2 1 6 17
M TOR 25 2 1 7 8
M TOR 26 2 3 4 14
M TOR 27 2 3 4 15
M TOR 28 2 3 4 16
M TOR 29 2 3 5 6
M TOR 30 2 3 7 6
M TOR 31 2 3 7 8
M TOR 32 3 2 1 6
M TOR 33 3 5 6 7
M TOR 34 3 5 6 17
M TOR 35 3 7 6 17
M TOR 36 3 7 8 18
M TOR 37 4 3 2 12
M TOR 38 4 3 2 13
M TOR 39 4 3 5 6
M TOR 40 4 3 7 6
M TOR 41 4 3 7 8
M TOR 42 5 3 2 12
M TOR 43 5 3 2 13
M TOR 44 5 3 4 14
M TOR 45 5 3 4 15
M TOR 46 5 3 4 16
M TOR 47 5 3 7 8
M TOR 48 5 6 7 8
M TOR 49 6 1 0 9
M TOR 50 6 1 0 10
M TOR 51 6 1 0 11
M TOR 52 6 1 2 12
M TOR 53 6 1 2 13
M TOR 54 6 7 8 18
M TOR 55 7 1 0 9
M TOR 56 7 1 0 10
M TOR 57 7 1 0 11
M TOR 58 7 1 2 12
M TOR 59 7 1 2 13
M TOR 60 7 3 2 12
M TOR 61 7 3 2 13
M TOR 62 7 3 4 14
M TOR 63 7 3 4 15
M TOR 64 7 3 4 16
M TOR 65 8 7 6 17
M  END
$$$$
