gdb 4384	2.4583458	1.4184284	1.0405736	3.0628	80.5	-0.23101	-0.04917	0.18184	1197.0722	0.157166	-422.602943	-422.594052	-422.593108	-422.636546	33.186
 OpenBabel02181911413D

 19 19  0  0  1  0  0  0  0  0999 V2000
    1.3614    0.6899   -0.4397 C   0  0  0  0  0  0  0  0  0  0  0  0
    0.0292    0.0515   -0.1787 C   0  0  0  0  0  0  0  0  0  0  0  0
   -0.1072   -1.2772   -0.0123 C   0  0  0  0  0  0  0  0  0  0  0  0
   -1.3850   -1.9165    0.3185 C   0  0  0  0  0  0  0  0  0  0  0  0
   -1.4812   -3.1065    0.5653 O   0  0  0  0  0  0  0  0  0  0  0  0
   -2.6187   -1.0093    0.4560 C   0  0  1  0  0  0  0  0  0  0  0  0
   -2.7395   -0.6485    1.8330 O   0  0  0  0  0  0  0  0  0  0  0  0
   -2.4875    0.2723   -0.3529 C   0  0  0  0  0  0  0  0  0  0  0  0
   -1.1561    0.9784   -0.0715 C   0  0  0  0  0  0  0  0  0  0  0  0
    1.5798    1.4489    0.3222 H   0  0  0  0  0  0  0  0  0  0  0  0
    2.1733   -0.0407   -0.4441 H   0  0  0  0  0  0  0  0  0  0  0  0
    1.3565    1.2142   -1.4037 H   0  0  0  0  0  0  0  0  0  0  0  0
    0.7491   -1.9435   -0.0714 H   0  0  0  0  0  0  0  0  0  0  0  0
   -3.4932   -1.5896    0.1306 H   0  0  0  0  0  0  0  0  0  0  0  0
   -2.7462   -1.4694    2.3389 H   0  0  0  0  0  0  0  0  0  0  0  0
   -2.5481    0.0153   -1.4170 H   0  0  0  0  0  0  0  0  0  0  0  0
   -3.3302    0.9327   -0.1259 H   0  0  0  0  0  0  0  0  0  0  0  0
   -1.0226    1.8296   -0.7491 H   0  0  0  0  0  0  0  0  0  0  0  0
   -1.1716    1.3987    0.9435 H   0  0  0  0  0  0  0  0  0  0  0  0
  1  2  1  0  0  0  0
  1 10  1  0  0  0  0
  2  9  1  0  0  0  0
  2  3  2  0  0  0  0
  3  4  1  0  0  0  0
  4  6  1  0  0  0  0
  4  5  2  0  0  0  0
  6 14  1  6  0  0  0
  6  7  1  0  0  0  0
  7 15  1  0  0  0  0
  8 17  1  0  0  0  0
  8  9  1  0  0  0  0
  8  6  1  0  0  0  0
  9 19  1  0  0  0  0
 11  1  1  0  0  0  0
 12  1  1  0  0  0  0
 13  3  1  0  0  0  0
 16  8  1  0  0  0  0
 18  9  1  0  0  0  0
M TOR 0 0 1 2 3
M TOR 1 0 1 2 12
M TOR 2 0 1 8 7
M TOR 3 0 1 8 17
M TOR 4 0 1 8 18
M TOR 5 1 2 3 4
M TOR 6 1 2 3 5
M TOR 7 1 8 7 5
M TOR 8 1 8 7 15
M TOR 9 1 8 7 16
M TOR 10 2 1 0 9
M TOR 11 2 1 0 10
M TOR 12 2 1 0 11
M TOR 13 2 1 8 7
M TOR 14 2 1 8 17
M TOR 15 2 1 8 18
M TOR 16 2 3 5 6
M TOR 17 2 3 5 7
M TOR 18 2 3 5 13
M TOR 19 3 2 1 8
M TOR 20 3 5 6 14
M TOR 21 3 5 7 8
M TOR 22 3 5 7 15
M TOR 23 3 5 7 16
M TOR 24 4 3 2 12
M TOR 25 4 3 5 6
M TOR 26 4 3 5 7
M TOR 27 4 3 5 13
M TOR 28 5 3 2 12
M TOR 29 5 7 8 17
M TOR 30 5 7 8 18
M TOR 31 6 5 7 8
M TOR 32 6 5 7 15
M TOR 33 6 5 7 16
M TOR 34 7 5 6 14
M TOR 35 8 1 0 9
M TOR 36 8 1 0 10
M TOR 37 8 1 0 11
M TOR 38 8 1 2 12
M TOR 39 8 7 5 13
M  END
$$$$
