gdb 1057	11.3061082	0.4086748	0.3983356	3.0354	82.78	-0.25097	-0.02899	0.22198000000000004	2575.1729	0.152247	-422.52337	-422.511951	-422.511007	-422.56379	36.343
 OpenBabel02181911403D

 19 18  0  0  0  0  0  0  0  0999 V2000
   -5.0628   -5.3236    0.1202 C   0  0  0  0  0  0  0  0  0  0  0  0
   -3.8664   -4.5584    0.4413 C   0  0  0  0  0  0  0  0  0  0  0  0
   -2.8745   -3.9345    0.7175 C   0  0  0  0  0  0  0  0  0  0  0  0
   -1.6807   -3.1565    1.0238 C   0  0  0  0  0  0  0  0  0  0  0  0
   -1.4921   -1.9841    0.0566 C   0  0  0  0  0  0  0  0  0  0  0  0
   -0.3163   -1.2979    0.4356 O   0  0  0  0  0  0  0  0  0  0  0  0
   -0.0236   -0.1913   -0.3756 C   0  0  0  0  0  0  0  0  0  0  0  0
    1.2544    0.4493    0.1384 C   0  0  0  0  0  0  0  0  0  0  0  0
    1.7578    1.4220   -0.3563 O   0  0  0  0  0  0  0  0  0  0  0  0
   -5.7695   -5.3287    0.9574 H   0  0  0  0  0  0  0  0  0  0  0  0
   -5.5825   -4.9034   -0.7480 H   0  0  0  0  0  0  0  0  0  0  0  0
   -4.8188   -6.3658   -0.1136 H   0  0  0  0  0  0  0  0  0  0  0  0
   -1.7300   -2.7593    2.0450 H   0  0  0  0  0  0  0  0  0  0  0  0
   -0.7858   -3.7892    0.9808 H   0  0  0  0  0  0  0  0  0  0  0  0
   -1.4100   -2.3542   -0.9773 H   0  0  0  0  0  0  0  0  0  0  0  0
   -2.3643   -1.3132    0.0984 H   0  0  0  0  0  0  0  0  0  0  0  0
    0.1232   -0.4769   -1.4313 H   0  0  0  0  0  0  0  0  0  0  0  0
   -0.8295    0.5623   -0.3574 H   0  0  0  0  0  0  0  0  0  0  0  0
    1.6862   -0.0689    1.0229 H   0  0  0  0  0  0  0  0  0  0  0  0
  1  2  1  0  0  0  0
  1 10  1  0  0  0  0
  2  3  3  0  0  0  0
  3  4  1  0  0  0  0
  4 13  1  0  0  0  0
  5 16  1  0  0  0  0
  5  6  1  0  0  0  0
  5  4  1  0  0  0  0
  7 18  1  0  0  0  0
  7  8  1  0  0  0  0
  7  6  1  0  0  0  0
  8 19  1  0  0  0  0
  9  8  2  0  0  0  0
 11  1  1  0  0  0  0
 12  1  1  0  0  0  0
 14  4  1  0  0  0  0
 15  5  1  0  0  0  0
 17  7  1  0  0  0  0
M TOR 0 0 1 2 3
M TOR 1 1 2 3 4
M TOR 2 1 2 3 12
M TOR 3 1 2 3 13
M TOR 4 2 1 0 9
M TOR 5 2 1 0 10
M TOR 6 2 1 0 11
M TOR 7 2 3 4 5
M TOR 8 2 3 4 14
M TOR 9 2 3 4 15
M TOR 10 3 4 5 6
M TOR 11 4 5 6 7
M TOR 12 4 5 6 16
M TOR 13 4 5 6 17
M TOR 14 5 4 3 12
M TOR 15 5 4 3 13
M TOR 16 5 6 7 8
M TOR 17 5 6 7 18
M TOR 18 6 5 4 14
M TOR 19 6 5 4 15
M TOR 20 8 7 6 16
M TOR 21 8 7 6 17
M  END
$$$$
