
     RDKit          3D

 19 21  0  0  0  0  0  0  0  0999 V2000
   -0.0950    0.0614   -0.1353 C   0  0  0  0  0  0  0  0  0  0  0  0
    1.4144   -0.0108    0.0235 C   0  0  0  0  0  0  0  0  0  0  0  0
    1.9810    1.2849    0.2982 O   0  0  0  0  0  0  0  0  0  0  0  0
    2.6631    1.0714    1.5172 C   0  0  0  0  0  0  0  0  0  0  0  0
    3.3877   -0.3050    1.5181 C   0  0  0  0  0  0  0  0  0  0  0  0
    3.1288   -0.4044    3.0396 C   0  0  0  0  0  0  0  0  0  0  0  0
    1.8152    0.1964    2.4847 C   0  0  0  0  0  0  0  0  0  0  0  0
    1.9104   -0.7802    1.2491 C   0  0  0  0  0  0  0  0  0  0  0  0
    1.5031   -2.1044    1.2695 O   0  0  0  0  0  0  0  0  0  0  0  0
   -0.5652    0.4535    0.7715 H   0  0  0  0  0  0  0  0  0  0  0  0
   -0.3594    0.7174   -0.9694 H   0  0  0  0  0  0  0  0  0  0  0  0
   -0.4974   -0.9364   -0.3334 H   0  0  0  0  0  0  0  0  0  0  0  0
    1.8702   -0.4136   -0.8915 H   0  0  0  0  0  0  0  0  0  0  0  0
    3.1626    1.9746    1.8620 H   0  0  0  0  0  0  0  0  0  0  0  0
    4.2812   -0.5830    0.9581 H   0  0  0  0  0  0  0  0  0  0  0  0
    3.0734   -1.4096    3.4699 H   0  0  0  0  0  0  0  0  0  0  0  0
    3.7308    0.2402    3.6859 H   0  0  0  0  0  0  0  0  0  0  0  0
    0.9203    0.4921    3.0326 H   0  0  0  0  0  0  0  0  0  0  0  0
    1.8409   -2.5273    2.0664 H   0  0  0  0  0  0  0  0  0  0  0  0
  1  2  1  0
  2  3  1  0
  3  4  1  0
  4  5  1  0
  5  6  1  0
  6  7  1  0
  7  8  1  0
  8  9  1  0
  8  2  1  0
  7  4  1  0
  8  5  1  0
  1 10  1  0
  1 11  1  0
  1 12  1  0
  2 13  1  0
  4 14  1  0
  5 15  1  0
  6 16  1  0
  6 17  1  0
  7 18  1  0
  9 19  1  0
M  END
$$$$
