gdb 264	3.4478156	1.6941953	1.4581513	1.8469	73.93	-0.23944	0.08571	0.32515	950.5102	0.159926	-422.540372	-422.533584	-422.53264	-422.571155	27.992
 OpenBabel02181911403D

 19 21  0  0  1  0  0  0  0  0999 V2000
    3.0171    1.4336    1.4802 C   0  0  0  0  0  0  0  0  0  0  0  0
    2.7410    2.1677    0.1420 C   0  0  0  0  0  0  0  0  0  0  0  0
    1.8474    1.1593   -0.5191 C   0  0  2  0  0  0  0  0  0  0  0  0
    1.3787    0.9234   -1.9537 C   0  0  0  0  0  0  0  0  0  0  0  0
    0.5678   -0.3946   -1.6494 C   0  0  0  0  0  0  0  0  0  0  0  0
    0.7930   -0.4431   -0.1145 C   0  0  2  0  0  0  0  0  0  0  0  0
    0.5984    0.9549    0.2437 O   0  0  0  0  0  0  0  0  0  0  0  0
    2.3205   -0.2220   -0.0174 C   0  0  2  0  0  0  0  0  0  0  0  0
    2.9205    0.0188    1.2285 O   0  0  0  0  0  0  0  0  0  0  0  0
    4.0138    1.6385    1.8840 H   0  0  0  0  0  0  0  0  0  0  0  0
    2.2670    1.7195    2.2248 H   0  0  0  0  0  0  0  0  0  0  0  0
    2.2710    3.1416    0.2977 H   0  0  0  0  0  0  0  0  0  0  0  0
    3.6559    2.3056   -0.4442 H   0  0  0  0  0  0  0  0  0  0  0  0
    0.7435    1.7310   -2.3225 H   0  0  0  0  0  0  0  0  0  0  0  0
    2.2020    0.7711   -2.6566 H   0  0  0  0  0  0  0  0  0  0  0  0
   -0.4931   -0.2973   -1.8858 H   0  0  0  0  0  0  0  0  0  0  0  0
    0.9636   -1.2698   -2.1728 H   0  0  0  0  0  0  0  0  0  0  0  0
    0.2248   -1.1518    0.4875 H   0  0  0  0  0  0  0  0  0  0  0  0
    2.9655   -0.8560   -0.6368 H   0  0  0  0  0  0  0  0  0  0  0  0
  1 10  1  0  0  0  0
  1 11  1  0  0  0  0
  2 12  1  0  0  0  0
  2  1  1  0  0  0  0
  3  8  1  0  0  0  0
  3  2  1  0  0  0  0
  3  7  1  1  0  0  0
  4  5  1  0  0  0  0
  4  3  1  0  0  0  0
  5  6  1  0  0  0  0
  6  8  1  0  0  0  0
  6  7  1  0  0  0  0
  6 18  1  1  0  0  0
  8 19  1  6  0  0  0
  8  9  1  0  0  0  0
  9  1  1  0  0  0  0
 13  2  1  0  0  0  0
 14  4  1  0  0  0  0
 15  4  1  0  0  0  0
 16  5  1  0  0  0  0
 17  5  1  0  0  0  0
M TOR 0 0 1 2 3
M TOR 1 0 1 2 6
M TOR 2 0 1 2 7
M TOR 3 0 8 7 2
M TOR 4 0 8 7 5
M TOR 5 0 8 7 18
M TOR 6 1 0 8 7
M TOR 7 1 2 3 4
M TOR 8 1 2 3 13
M TOR 9 1 2 3 14
M TOR 10 1 2 6 5
M TOR 11 1 2 7 5
M TOR 12 1 2 7 8
M TOR 13 1 2 7 18
M TOR 14 2 1 0 8
M TOR 15 2 1 0 9
M TOR 16 2 1 0 10
M TOR 17 2 3 4 5
M TOR 18 2 3 4 15
M TOR 19 2 3 4 16
M TOR 20 2 6 5 4
M TOR 21 2 6 5 7
M TOR 22 2 6 5 17
M TOR 23 2 7 5 4
M TOR 24 2 7 5 17
M TOR 25 3 2 1 11
M TOR 26 3 2 1 12
M TOR 27 3 2 6 5
M TOR 28 3 2 7 5
M TOR 29 3 2 7 8
M TOR 30 3 2 7 18
M TOR 31 3 4 5 6
M TOR 32 3 4 5 7
M TOR 33 3 4 5 17
M TOR 34 4 3 2 6
M TOR 35 4 3 2 7
M TOR 36 4 5 7 8
M TOR 37 4 5 7 18
M TOR 38 5 4 3 13
M TOR 39 5 4 3 14
M TOR 40 6 2 1 11
M TOR 41 6 2 1 12
M TOR 42 6 2 3 13
M TOR 43 6 2 3 14
M TOR 44 6 2 7 8
M TOR 45 6 2 7 18
M TOR 46 6 5 4 15
M TOR 47 6 5 4 16
M TOR 48 6 5 7 8
M TOR 49 6 5 7 18
M TOR 50 7 2 1 11
M TOR 51 7 2 1 12
M TOR 52 7 2 3 13
M TOR 53 7 2 3 14
M TOR 54 7 5 4 15
M TOR 55 7 5 4 16
M TOR 56 7 8 0 9
M TOR 57 7 8 0 10
M TOR 58 8 0 1 11
M TOR 59 8 0 1 12
M TOR 60 8 7 5 17
M  END
$$$$
