
     RDKit          3D

 19 20  0  0  0  0  0  0  0  0999 V2000
    1.3925    0.0375   -0.1477 O   0  0  0  0  0  0  0  0  0  0  0  0
    0.1924   -0.0131   -0.0963 C   0  0  0  0  0  0  0  0  0  0  0  0
   -0.6680   -1.2766   -0.0882 C   0  0  0  0  0  0  0  0  0  0  0  0
   -1.9273   -0.8750    0.4024 O   0  0  0  0  0  0  0  0  0  0  0  0
   -2.1657    0.5044    0.0566 C   0  0  0  0  0  0  0  0  0  0  0  0
   -2.8956    1.1694    1.2231 C   0  0  0  0  0  0  0  0  0  0  0  0
   -1.7628    1.5140    2.2052 C   0  0  0  0  0  0  0  0  0  0  0  0
   -0.6301    2.0130    1.2878 C   0  0  0  0  0  0  0  0  0  0  0  0
   -0.7728    1.1715   -0.0136 C   0  0  0  0  0  0  0  0  0  0  0  0
   -0.7240   -1.6813   -1.1144 H   0  0  0  0  0  0  0  0  0  0  0  0
   -0.2480   -2.0501    0.5608 H   0  0  0  0  0  0  0  0  0  0  0  0
   -2.7204    0.5492   -0.8900 H   0  0  0  0  0  0  0  0  0  0  0  0
   -3.3873    2.0836    0.8687 H   0  0  0  0  0  0  0  0  0  0  0  0
   -3.6630    0.5126    1.6401 H   0  0  0  0  0  0  0  0  0  0  0  0
   -2.0528    2.2525    2.9567 H   0  0  0  0  0  0  0  0  0  0  0  0
   -1.4523    0.6070    2.7343 H   0  0  0  0  0  0  0  0  0  0  0  0
   -0.7787    3.0710    1.0487 H   0  0  0  0  0  0  0  0  0  0  0  0
    0.3675    1.9177    1.7243 H   0  0  0  0  0  0  0  0  0  0  0  0
   -0.6202    1.7877   -0.9034 H   0  0  0  0  0  0  0  0  0  0  0  0
  1  2  2  0
  2  3  1  0
  3  4  1  0
  4  5  1  0
  5  6  1  0
  6  7  1  0
  7  8  1  0
  8  9  1  0
  9  2  1  0
  9  5  1  0
  3 10  1  0
  3 11  1  0
  5 12  1  0
  6 13  1  0
  6 14  1  0
  7 15  1  0
  7 16  1  0
  8 17  1  0
  8 18  1  0
  9 19  1  0
M  END
$$$$
