
     RDKit          3D

 19 21  0  0  0  0  0  0  0  0999 V2000
    0.3131    0.2823    0.4090 C   0  0  0  0  0  0  0  0  0  0  0  0
    0.9464   -0.5802   -0.6687 C   0  0  0  0  0  0  0  0  0  0  0  0
    2.4207   -0.4404   -0.6549 O   0  0  0  0  0  0  0  0  0  0  0  0
    2.9288   -1.8001   -0.4790 C   0  0  0  0  0  0  0  0  0  0  0  0
    1.9972   -2.3634    0.5875 C   0  0  0  0  0  0  0  0  0  0  0  0
    0.9352   -2.0935   -0.5540 C   0  0  0  0  0  0  0  0  0  0  0  0
    0.2501   -3.3718   -1.0333 C   0  0  0  0  0  0  0  0  0  0  0  0
    1.5412   -3.8504   -1.5316 O   0  0  0  0  0  0  0  0  0  0  0  0
    2.0516   -2.4861   -1.5522 C   0  0  0  0  0  0  0  0  0  0  0  0
    0.5939   -0.0420    1.4136 H   0  0  0  0  0  0  0  0  0  0  0  0
    0.6294    1.3223    0.2872 H   0  0  0  0  0  0  0  0  0  0  0  0
   -0.7785    0.2465    0.3238 H   0  0  0  0  0  0  0  0  0  0  0  0
    0.5885   -0.2554   -1.6532 H   0  0  0  0  0  0  0  0  0  0  0  0
    4.0166   -1.7514   -0.4336 H   0  0  0  0  0  0  0  0  0  0  0  0
    2.1259   -3.4285    0.7698 H   0  0  0  0  0  0  0  0  0  0  0  0
    1.9136   -1.8035    1.5188 H   0  0  0  0  0  0  0  0  0  0  0  0
   -0.1717   -4.0424   -0.2785 H   0  0  0  0  0  0  0  0  0  0  0  0
   -0.4608   -3.2361   -1.8586 H   0  0  0  0  0  0  0  0  0  0  0  0
    2.1104   -2.0861   -2.5684 H   0  0  0  0  0  0  0  0  0  0  0  0
  1  2  1  0
  2  3  1  0
  3  4  1  0
  4  5  1  0
  5  6  1  0
  6  7  1  0
  7  8  1  0
  8  9  1  0
  6  2  1  0
  9  6  1  0
  9  4  1  0
  1 10  1  0
  1 11  1  0
  1 12  1  0
  2 13  1  0
  4 14  1  0
  5 15  1  0
  5 16  1  0
  7 17  1  0
  7 18  1  0
  9 19  1  0
M  END
$$$$
