
     RDKit          3D

 19 18  0  0  0  0  0  0  0  0999 V2000
    2.7136   -2.1854   -0.7336 C   0  0  0  0  0  0  0  0  0  0  0  0
    1.8186   -2.2923    0.4926 C   0  0  0  0  0  0  0  0  0  0  0  0
    0.7838   -3.2069    0.1799 O   0  0  0  0  0  0  0  0  0  0  0  0
    1.2338   -0.9139    0.8904 C   0  0  0  0  0  0  0  0  0  0  0  0
    0.3196   -1.0126    2.0185 C   0  0  0  0  0  0  0  0  0  0  0  0
   -0.4372   -1.1410    2.9525 C   0  0  0  0  0  0  0  0  0  0  0  0
   -1.3435   -1.2492    4.0826 C   0  0  0  0  0  0  0  0  0  0  0  0
   -1.9647   -2.6151    4.2947 C   0  0  0  0  0  0  0  0  0  0  0  0
   -1.5778   -0.3004    4.7999 O   0  0  0  0  0  0  0  0  0  0  0  0
    3.1055   -3.1711   -0.9960 H   0  0  0  0  0  0  0  0  0  0  0  0
    2.1446   -1.8058   -1.5882 H   0  0  0  0  0  0  0  0  0  0  0  0
    3.5564   -1.5139   -0.5452 H   0  0  0  0  0  0  0  0  0  0  0  0
    2.4120   -2.6616    1.3449 H   0  0  0  0  0  0  0  0  0  0  0  0
    0.1857   -3.2380    0.9358 H   0  0  0  0  0  0  0  0  0  0  0  0
    2.0461   -0.2158    1.1278 H   0  0  0  0  0  0  0  0  0  0  0  0
    0.6953   -0.5001    0.0279 H   0  0  0  0  0  0  0  0  0  0  0  0
   -2.6205   -2.5874    5.1660 H   0  0  0  0  0  0  0  0  0  0  0  0
   -2.5346   -2.9113    3.4071 H   0  0  0  0  0  0  0  0  0  0  0  0
   -1.1815   -3.3673    4.4396 H   0  0  0  0  0  0  0  0  0  0  0  0
  1  2  1  0
  2  3  1  0
  2  4  1  0
  4  5  1  0
  5  6  3  0
  6  7  1  0
  7  8  1  0
  7  9  2  0
  1 10  1  0
  1 11  1  0
  1 12  1  0
  2 13  1  0
  3 14  1  0
  4 15  1  0
  4 16  1  0
  8 17  1  0
  8 18  1  0
  8 19  1  0
M  END
$$$$
