gdb 5554	3.0962318	1.3312874	1.0795154	3.3618	73.67	-0.25867	0.05951	0.31818	1164.5751	0.156923	-422.520873	-422.512865	-422.511921	-422.553561	30.621
 OpenBabel02181911423D

 19 21  0  0  1  0  0  0  0  0999 V2000
    3.9838   -0.1419   -1.6950 C   0  0  0  0  0  0  0  0  0  0  0  0
    2.7986   -1.0361   -1.3176 C   0  0  0  0  0  0  0  0  0  0  0  0
    1.5675   -0.2594   -0.8186 C   0  0  2  0  0  0  0  0  0  0  0  0
    0.5031   -1.2110   -0.2597 C   0  0  1  0  0  0  0  0  0  0  0  0
   -0.6587   -0.5922    0.2910 O   0  0  0  0  0  0  0  0  0  0  0  0
   -0.7423   -1.0972   -1.0413 C   0  0  1  0  0  0  0  0  0  0  0  0
   -0.5220   -0.0397   -2.1095 C   0  0  1  0  0  0  0  0  0  0  0  0
   -0.2744    1.2649   -1.5857 O   0  0  0  0  0  0  0  0  0  0  0  0
    0.8528    0.4740   -1.9607 C   0  0  1  0  0  0  0  0  0  0  0  0
    4.3125    0.4551   -0.8376 H   0  0  0  0  0  0  0  0  0  0  0  0
    4.8348   -0.7420   -2.0308 H   0  0  0  0  0  0  0  0  0  0  0  0
    3.7331    0.5532   -2.5027 H   0  0  0  0  0  0  0  0  0  0  0  0
    2.5121   -1.6585   -2.1758 H   0  0  0  0  0  0  0  0  0  0  0  0
    3.1121   -1.7333   -0.5308 H   0  0  0  0  0  0  0  0  0  0  0  0
    1.8737    0.4545   -0.0441 H   0  0  0  0  0  0  0  0  0  0  0  0
    0.8184   -2.1280    0.2365 H   0  0  0  0  0  0  0  0  0  0  0  0
   -1.4394   -1.9135   -1.2068 H   0  0  0  0  0  0  0  0  0  0  0  0
   -1.0590   -0.0879   -3.0525 H   0  0  0  0  0  0  0  0  0  0  0  0
    1.4318    0.8669   -2.7940 H   0  0  0  0  0  0  0  0  0  0  0  0
  1  2  1  0  0  0  0
  1 10  1  0  0  0  0
  2  3  1  0  0  0  0
  2 14  1  0  0  0  0
  3  4  1  0  0  0  0
  3 15  1  1  0  0  0
  4 16  1  1  0  0  0
  4  5  1  0  0  0  0
  6 17  1  6  0  0  0
  6  4  1  0  0  0  0
  6  5  1  0  0  0  0
  7 18  1  6  0  0  0
  7  9  1  0  0  0  0
  7  8  1  0  0  0  0
  7  6  1  0  0  0  0
  9 19  1  6  0  0  0
  9  8  1  0  0  0  0
  9  3  1  0  0  0  0
 11  1  1  0  0  0  0
 12  1  1  0  0  0  0
 13  2  1  0  0  0  0
M TOR 0 0 1 2 3
M TOR 1 0 1 2 8
M TOR 2 0 1 2 14
M TOR 3 1 2 3 4
M TOR 4 1 2 3 5
M TOR 5 1 2 3 15
M TOR 6 1 2 8 6
M TOR 7 1 2 8 7
M TOR 8 1 2 8 18
M TOR 9 2 1 0 9
M TOR 10 2 1 0 10
M TOR 11 2 1 0 11
M TOR 12 2 3 4 5
M TOR 13 2 3 5 6
M TOR 14 2 3 5 16
M TOR 15 2 8 6 5
M TOR 16 2 8 6 7
M TOR 17 2 8 6 17
M TOR 18 3 2 1 12
M TOR 19 3 2 1 13
M TOR 20 3 2 8 6
M TOR 21 3 2 8 7
M TOR 22 3 2 8 18
M TOR 23 3 4 5 6
M TOR 24 3 4 5 16
M TOR 25 3 5 6 7
M TOR 26 3 5 6 8
M TOR 27 3 5 6 17
M TOR 28 4 3 2 8
M TOR 29 4 3 2 14
M TOR 30 4 5 3 15
M TOR 31 4 5 6 7
M TOR 32 4 5 6 8
M TOR 33 4 5 6 17
M TOR 34 5 3 2 8
M TOR 35 5 3 2 14
M TOR 36 5 6 7 8
M TOR 37 5 6 8 18
M TOR 38 6 5 3 15
M TOR 39 6 7 8 18
M TOR 40 6 8 2 14
M TOR 41 7 6 5 16
M TOR 42 7 8 2 14
M TOR 43 7 8 6 17
M TOR 44 8 2 1 12
M TOR 45 8 2 1 13
M TOR 46 8 2 3 15
M TOR 47 8 6 5 16
M  END
$$$$
