
     RDKit          3D

 19 21  0  0  0  0  0  0  0  0999 V2000
   -0.1648    0.2733    0.0220 C   0  0  0  0  0  0  0  0  0  0  0  0
    1.3244    0.0648    0.0037 C   0  0  0  0  0  0  0  0  0  0  0  0
    1.9985    1.3162    0.0803 O   0  0  0  0  0  0  0  0  0  0  0  0
    3.3841    0.9499    0.0795 C   0  0  0  0  0  0  0  0  0  0  0  0
    3.2775   -0.5609   -0.0339 C   0  0  0  0  0  0  0  0  0  0  0  0
    2.0842   -0.8731   -0.9950 C   0  0  0  0  0  0  0  0  0  0  0  0
    1.7122   -2.1009   -0.1302 C   0  0  0  0  0  0  0  0  0  0  0  0
    2.0687   -0.9848    0.8815 C   0  0  0  0  0  0  0  0  0  0  0  0
    2.0086   -0.9933    2.2606 O   0  0  0  0  0  0  0  0  0  0  0  0
   -0.4608    0.7619    0.9548 H   0  0  0  0  0  0  0  0  0  0  0  0
   -0.4661    0.9176   -0.8090 H   0  0  0  0  0  0  0  0  0  0  0  0
   -0.7043   -0.6732   -0.0581 H   0  0  0  0  0  0  0  0  0  0  0  0
    3.8994    1.4228   -0.7658 H   0  0  0  0  0  0  0  0  0  0  0  0
    3.8621    1.2750    1.0126 H   0  0  0  0  0  0  0  0  0  0  0  0
    4.1802   -1.1717   -0.0714 H   0  0  0  0  0  0  0  0  0  0  0  0
    2.0959   -0.8018   -2.0802 H   0  0  0  0  0  0  0  0  0  0  0  0
    0.6753   -2.4433   -0.1593 H   0  0  0  0  0  0  0  0  0  0  0  0
    2.4051   -2.9453   -0.1811 H   0  0  0  0  0  0  0  0  0  0  0  0
    2.5880   -1.6873    2.5935 H   0  0  0  0  0  0  0  0  0  0  0  0
  1  2  1  0
  2  3  1  0
  3  4  1  0
  4  5  1  0
  5  6  1  0
  6  7  1  0
  7  8  1  0
  8  9  1  0
  6  2  1  0
  8  2  1  0
  8  5  1  0
  1 10  1  0
  1 11  1  0
  1 12  1  0
  4 13  1  0
  4 14  1  0
  5 15  1  0
  6 16  1  0
  7 17  1  0
  7 18  1  0
  9 19  1  0
M  END
$$$$
