gdb 3871	3.3875086	1.2465604	1.1171855	2.626	75.46	-0.25551	-0.03824	0.21727000000000002	1150.0712	0.15649	-422.553533	-422.545186	-422.544241	-422.586697	31.484
 OpenBabel02181911413D

 19 20  0  0  1  0  0  0  0  0999 V2000
    2.4656   -0.2473   -1.6884 C   0  0  0  0  0  0  0  0  0  0  0  0
    1.9173   -0.0497   -0.2780 C   0  0  1  0  0  0  0  0  0  0  0  0
    2.8153   -0.6562    0.8547 C   0  0  0  0  0  0  0  0  0  0  0  0
    3.1211    0.6610    1.5970 C   0  0  2  0  0  0  0  0  0  0  0  0
    1.7212    1.3335    1.7223 C   0  0  0  0  0  0  0  0  0  0  0  0
    1.9833    1.4207    0.2059 C   0  0  1  0  0  0  0  0  0  0  0  0
    3.4095    1.5881    0.5032 O   0  0  0  0  0  0  0  0  0  0  0  0
    4.1026    0.6965    2.7283 C   0  0  0  0  0  0  0  0  0  0  0  0
    4.2434   -0.2034    3.5172 O   0  0  0  0  0  0  0  0  0  0  0  0
    2.5338   -1.3106   -1.9397 H   0  0  0  0  0  0  0  0  0  0  0  0
    1.8235    0.2316   -2.4358 H   0  0  0  0  0  0  0  0  0  0  0  0
    3.4668    0.1865   -1.7680 H   0  0  0  0  0  0  0  0  0  0  0  0
    0.8905   -0.4259   -0.2183 H   0  0  0  0  0  0  0  0  0  0  0  0
    2.3083   -1.3858    1.4883 H   0  0  0  0  0  0  0  0  0  0  0  0
    3.7298   -1.1085    0.4646 H   0  0  0  0  0  0  0  0  0  0  0  0
    0.8875    0.7358    2.0973 H   0  0  0  0  0  0  0  0  0  0  0  0
    1.7770    2.3076    2.2094 H   0  0  0  0  0  0  0  0  0  0  0  0
    1.5703    2.2042   -0.4302 H   0  0  0  0  0  0  0  0  0  0  0  0
    4.6793    1.6450    2.7992 H   0  0  0  0  0  0  0  0  0  0  0  0
  1  2  1  0  0  0  0
  2 13  1  1  0  0  0
  2  6  1  0  0  0  0
  2  3  1  0  0  0  0
  3 14  1  0  0  0  0
  3  4  1  0  0  0  0
  4  5  1  0  0  0  0
  4  8  1  1  0  0  0
  5 16  1  0  0  0  0
  5 17  1  0  0  0  0
  6 18  1  6  0  0  0
  6  7  1  0  0  0  0
  6  5  1  0  0  0  0
  7  4  1  0  0  0  0
  8 19  1  0  0  0  0
  8  9  2  0  0  0  0
 10  1  1  0  0  0  0
 11  1  1  0  0  0  0
 12  1  1  0  0  0  0
 15  3  1  0  0  0  0
M TOR 0 0 1 2 3
M TOR 1 0 1 2 13
M TOR 2 0 1 2 14
M TOR 3 0 1 5 4
M TOR 4 0 1 5 6
M TOR 5 0 1 5 17
M TOR 6 1 2 3 4
M TOR 7 1 2 3 6
M TOR 8 1 2 3 7
M TOR 9 1 5 4 3
M TOR 10 1 5 4 15
M TOR 11 1 5 4 16
M TOR 12 1 5 6 3
M TOR 13 2 1 0 9
M TOR 14 2 1 0 10
M TOR 15 2 1 0 11
M TOR 16 2 1 5 4
M TOR 17 2 1 5 6
M TOR 18 2 1 5 17
M TOR 19 2 3 4 5
M TOR 20 2 3 4 15
M TOR 21 2 3 4 16
M TOR 22 2 3 6 5
M TOR 23 2 3 7 8
M TOR 24 2 3 7 18
M TOR 25 3 2 1 5
M TOR 26 3 2 1 12
M TOR 27 3 4 5 6
M TOR 28 3 4 5 17
M TOR 29 3 6 5 17
M TOR 30 4 3 2 13
M TOR 31 4 3 2 14
M TOR 32 4 3 7 8
M TOR 33 4 3 7 18
M TOR 34 4 5 1 12
M TOR 35 5 1 0 9
M TOR 36 5 1 0 10
M TOR 37 5 1 0 11
M TOR 38 5 1 2 13
M TOR 39 5 1 2 14
M TOR 40 5 4 3 7
M TOR 41 5 6 3 7
M TOR 42 6 3 2 13
M TOR 43 6 3 2 14
M TOR 44 6 3 4 15
M TOR 45 6 3 4 16
M TOR 46 6 3 7 8
M TOR 47 6 3 7 18
M TOR 48 6 5 1 12
M TOR 49 6 5 4 15
M TOR 50 6 5 4 16
M TOR 51 7 3 2 13
M TOR 52 7 3 2 14
M TOR 53 7 3 4 15
M TOR 54 7 3 4 16
M  END
$$$$
