gdb 2024	3.0383564	1.5623587	1.2741103	3.3175	74.26	-0.24325	0.08692	0.33016999999999996	1044.1027	0.157389	-422.540888	-422.533042	-422.532098	-422.57279	30.786
 OpenBabel02181911403D

 19 21  0  0  1  0  0  0  0  0999 V2000
    0.1726   -0.4529    0.0009 C   0  0  0  0  0  0  0  0  0  0  0  0
    1.0624    0.5601   -0.6857 C   0  0  2  0  0  0  0  0  0  0  0  0
    0.3511    1.4770   -1.6687 C   0  0  0  0  0  0  0  0  0  0  0  0
    1.2437    2.2654   -2.6028 C   0  0  1  0  0  0  0  0  0  0  0  0
    2.2191    3.1343   -2.0232 O   0  0  0  0  0  0  0  0  0  0  0  0
    2.6796    1.9830   -2.7343 C   0  0  1  0  0  0  0  0  0  0  0  0
    3.3504    0.8894   -1.9332 C   0  0  0  0  0  0  0  0  0  0  0  0
    2.5068    0.3029   -0.8218 C   0  0  1  0  0  0  0  0  0  0  0  0
    2.0143    1.1974    0.1803 O   0  0  0  0  0  0  0  0  0  0  0  0
    0.7436   -1.0269    0.7346 H   0  0  0  0  0  0  0  0  0  0  0  0
   -0.6475    0.0499    0.5258 H   0  0  0  0  0  0  0  0  0  0  0  0
   -0.2684   -1.1468   -0.7230 H   0  0  0  0  0  0  0  0  0  0  0  0
   -0.3232    0.8679   -2.2851 H   0  0  0  0  0  0  0  0  0  0  0  0
   -0.2895    2.1701   -1.1070 H   0  0  0  0  0  0  0  0  0  0  0  0
    0.7240    2.6994   -3.4589 H   0  0  0  0  0  0  0  0  0  0  0  0
    3.1674    2.2167   -3.6822 H   0  0  0  0  0  0  0  0  0  0  0  0
    3.6248    0.0783   -2.6209 H   0  0  0  0  0  0  0  0  0  0  0  0
    4.2909    1.2690   -1.5126 H   0  0  0  0  0  0  0  0  0  0  0  0
    2.8917   -0.6366   -0.4190 H   0  0  0  0  0  0  0  0  0  0  0  0
  1 11  1  0  0  0  0
  1 10  1  0  0  0  0
  2  1  1  1  0  0  0
  2  9  1  0  0  0  0
  3 14  1  0  0  0  0
  3  2  1  0  0  0  0
  4 15  1  6  0  0  0
  4  5  1  0  0  0  0
  4  3  1  0  0  0  0
  6 16  1  6  0  0  0
  6  4  1  0  0  0  0
  6  5  1  0  0  0  0
  6  7  1  0  0  0  0
  7 18  1  0  0  0  0
  7  8  1  0  0  0  0
  8  2  1  0  0  0  0
  8 19  1  1  0  0  0
  8  9  1  0  0  0  0
 12  1  1  0  0  0  0
 13  3  1  0  0  0  0
 17  7  1  0  0  0  0
M TOR 0 0 1 2 3
M TOR 1 0 1 2 12
M TOR 2 0 1 2 13
M TOR 3 0 1 7 6
M TOR 4 0 1 7 8
M TOR 5 0 1 7 18
M TOR 6 1 2 3 4
M TOR 7 1 2 3 5
M TOR 8 1 2 3 14
M TOR 9 1 7 6 5
M TOR 10 1 7 6 16
M TOR 11 1 7 6 17
M TOR 12 1 8 7 6
M TOR 13 1 8 7 18
M TOR 14 2 1 0 9
M TOR 15 2 1 0 10
M TOR 16 2 1 0 11
M TOR 17 2 1 7 6
M TOR 18 2 1 7 8
M TOR 19 2 1 7 18
M TOR 20 2 3 4 5
M TOR 21 2 3 5 6
M TOR 22 2 3 5 15
M TOR 23 3 2 1 7
M TOR 24 3 2 1 8
M TOR 25 3 4 5 6
M TOR 26 3 4 5 15
M TOR 27 3 5 6 7
M TOR 28 3 5 6 16
M TOR 29 3 5 6 17
M TOR 30 4 3 2 12
M TOR 31 4 3 2 13
M TOR 32 4 5 3 14
M TOR 33 4 5 6 7
M TOR 34 4 5 6 16
M TOR 35 4 5 6 17
M TOR 36 5 3 2 12
M TOR 37 5 3 2 13
M TOR 38 5 6 7 8
M TOR 39 5 6 7 18
M TOR 40 6 5 3 14
M TOR 41 7 1 0 9
M TOR 42 7 1 0 10
M TOR 43 7 1 0 11
M TOR 44 7 1 2 12
M TOR 45 7 1 2 13
M TOR 46 7 6 5 15
M TOR 47 8 1 0 9
M TOR 48 8 1 0 10
M TOR 49 8 1 0 11
M TOR 50 8 1 2 12
M TOR 51 8 1 2 13
M TOR 52 8 7 6 16
M TOR 53 8 7 6 17
M  END
$$$$
