
     RDKit          3D

 19 19  0  0  0  0  0  0  0  0999 V2000
    1.3614    0.6899   -0.4397 C   0  0  0  0  0  0  0  0  0  0  0  0
    0.0292    0.0515   -0.1787 C   0  0  0  0  0  0  0  0  0  0  0  0
   -0.1072   -1.2772   -0.0123 C   0  0  0  0  0  0  0  0  0  0  0  0
   -1.3850   -1.9165    0.3185 C   0  0  0  0  0  0  0  0  0  0  0  0
   -1.4812   -3.1065    0.5653 O   0  0  0  0  0  0  0  0  0  0  0  0
   -2.6187   -1.0093    0.4560 C   0  0  0  0  0  0  0  0  0  0  0  0
   -2.7395   -0.6485    1.8330 O   0  0  0  0  0  0  0  0  0  0  0  0
   -2.4875    0.2723   -0.3529 C   0  0  0  0  0  0  0  0  0  0  0  0
   -1.1561    0.9784   -0.0715 C   0  0  0  0  0  0  0  0  0  0  0  0
    1.5798    1.4489    0.3222 H   0  0  0  0  0  0  0  0  0  0  0  0
    2.1733   -0.0407   -0.4441 H   0  0  0  0  0  0  0  0  0  0  0  0
    1.3565    1.2142   -1.4037 H   0  0  0  0  0  0  0  0  0  0  0  0
    0.7491   -1.9435   -0.0714 H   0  0  0  0  0  0  0  0  0  0  0  0
   -3.4932   -1.5896    0.1306 H   0  0  0  0  0  0  0  0  0  0  0  0
   -2.7462   -1.4694    2.3389 H   0  0  0  0  0  0  0  0  0  0  0  0
   -2.5481    0.0153   -1.4170 H   0  0  0  0  0  0  0  0  0  0  0  0
   -3.3302    0.9327   -0.1259 H   0  0  0  0  0  0  0  0  0  0  0  0
   -1.0226    1.8296   -0.7491 H   0  0  0  0  0  0  0  0  0  0  0  0
   -1.1716    1.3987    0.9435 H   0  0  0  0  0  0  0  0  0  0  0  0
  1  2  1  0
  2  3  2  0
  3  4  1  0
  4  5  2  0
  4  6  1  0
  6  7  1  0
  6  8  1  0
  8  9  1  0
  9  2  1  0
  1 10  1  0
  1 11  1  0
  1 12  1  0
  3 13  1  0
  6 14  1  0
  7 15  1  0
  8 16  1  0
  8 17  1  0
  9 18  1  0
  9 19  1  0
M  END
$$$$
