gdb 868	3.2847448	1.2191046	1.0432902	1.4017	74.93	-0.24852	-0.02441	0.22410999999999998	1169.9567	0.157915	-422.563357	-422.555276	-422.554332	-422.596789	29.879
 OpenBabel02181911403D

 19 20  0  0  1  0  0  0  0  0999 V2000
    0.8012   -0.6469    0.4291 O   0  0  0  0  0  0  0  0  0  0  0  0
   -0.2438   -0.1440    0.1048 C   0  0  0  0  0  0  0  0  0  0  0  0
   -0.4670    0.6343   -1.1735 C   0  0  2  0  0  0  0  0  0  0  0  0
   -1.0382    2.0513   -0.8734 C   0  0  0  0  0  0  0  0  0  0  0  0
   -2.5670    1.8648   -0.8116 C   0  0  0  0  0  0  0  0  0  0  0  0
   -2.8547    0.7973   -1.8591 C   0  0  1  0  0  0  0  0  0  0  0  0
   -2.7509    1.3039   -3.2121 O   0  0  0  0  0  0  0  0  0  0  0  0
   -1.6287    0.4453   -3.5014 C   0  0  0  0  0  0  0  0  0  0  0  0
   -1.5577   -0.0418   -2.0400 C   0  0  1  0  0  0  0  0  0  0  0  0
   -1.1422   -0.2313    0.7618 H   0  0  0  0  0  0  0  0  0  0  0  0
    0.4951    0.6757   -1.6920 H   0  0  0  0  0  0  0  0  0  0  0  0
   -0.6207    2.4886    0.0381 H   0  0  0  0  0  0  0  0  0  0  0  0
   -0.7779    2.7187   -1.6998 H   0  0  0  0  0  0  0  0  0  0  0  0
   -2.8801    1.4972    0.1733 H   0  0  0  0  0  0  0  0  0  0  0  0
   -3.1192    2.7873   -1.0110 H   0  0  0  0  0  0  0  0  0  0  0  0
   -3.7983    0.2622   -1.7070 H   0  0  0  0  0  0  0  0  0  0  0  0
   -1.8889   -0.3333   -4.2295 H   0  0  0  0  0  0  0  0  0  0  0  0
   -0.7620    1.0061   -3.8728 H   0  0  0  0  0  0  0  0  0  0  0  0
   -1.6170   -1.1223   -1.9008 H   0  0  0  0  0  0  0  0  0  0  0  0
  2  1  2  0  0  0  0
  2 10  1  0  0  0  0
  3 11  1  6  0  0  0
  3  4  1  0  0  0  0
  3  2  1  0  0  0  0
  4  5  1  0  0  0  0
  4 12  1  0  0  0  0
  5 14  1  0  0  0  0
  6 16  1  1  0  0  0
  6  5  1  0  0  0  0
  7  6  1  0  0  0  0
  8  7  1  0  0  0  0
  8  9  1  0  0  0  0
  9 19  1  1  0  0  0
  9  6  1  0  0  0  0
  9  3  1  0  0  0  0
 13  4  1  0  0  0  0
 15  5  1  0  0  0  0
 17  8  1  0  0  0  0
 18  8  1  0  0  0  0
M TOR 0 0 1 2 3
M TOR 1 0 1 2 8
M TOR 2 0 1 2 10
M TOR 3 1 2 3 4
M TOR 4 1 2 3 11
M TOR 5 1 2 3 12
M TOR 6 1 2 8 5
M TOR 7 1 2 8 7
M TOR 8 1 2 8 18
M TOR 9 2 3 4 5
M TOR 10 2 3 4 13
M TOR 11 2 3 4 14
M TOR 12 2 8 5 4
M TOR 13 2 8 5 6
M TOR 14 2 8 5 15
M TOR 15 2 8 7 6
M TOR 16 2 8 7 16
M TOR 17 2 8 7 17
M TOR 18 3 2 1 9
M TOR 19 3 2 8 5
M TOR 20 3 2 8 7
M TOR 21 3 2 8 18
M TOR 22 3 4 5 6
M TOR 23 3 4 5 8
M TOR 24 3 4 5 15
M TOR 25 4 3 2 8
M TOR 26 4 3 2 10
M TOR 27 4 5 6 7
M TOR 28 4 5 8 7
M TOR 29 4 5 8 18
M TOR 30 5 4 3 11
M TOR 31 5 4 3 12
M TOR 32 5 6 7 8
M TOR 33 5 6 7 16
M TOR 34 5 6 7 17
M TOR 35 5 8 2 10
M TOR 36 5 8 7 16
M TOR 37 5 8 7 17
M TOR 38 6 5 4 13
M TOR 39 6 5 4 14
M TOR 40 6 5 8 18
M TOR 41 6 7 8 18
M TOR 42 7 6 5 15
M TOR 43 7 8 2 10
M TOR 44 7 8 5 15
M TOR 45 8 2 1 9
M TOR 46 8 2 3 11
M TOR 47 8 2 3 12
M TOR 48 8 5 4 13
M TOR 49 8 5 4 14
M  END
$$$$
