gdb 5007	3.2855832	1.2381003	1.0889594	2.4193	76.6	-0.22882	0.00704	0.23586	1183.802	0.156188	-422.521356	-422.512723	-422.511779	-422.554563	32.769
 OpenBabel02181911413D

 19 20  0  0  1  0  0  0  0  0999 V2000
    1.4910    0.7286   -0.0623 C   0  0  0  0  0  0  0  0  0  0  0  0
    0.1037    0.2031    0.0486 C   0  0  0  0  0  0  0  0  0  0  0  0
   -1.0956    0.7905    0.0879 C   0  0  0  0  0  0  0  0  0  0  0  0
   -2.0442   -0.4180    0.2175 C   0  0  2  0  0  0  0  0  0  0  0  0
   -3.5300   -0.2580    0.0447 C   0  0  0  0  0  0  0  0  0  0  0  0
   -3.8297    0.2990   -1.2229 O   0  0  0  0  0  0  0  0  0  0  0  0
   -1.3305   -1.2563    1.3238 C   0  0  0  0  0  0  0  0  0  0  0  0
   -0.3065   -1.2863    0.1527 C   0  0  1  0  0  0  0  0  0  0  0  0
   -1.4461   -1.3513   -0.7677 O   0  0  0  0  0  0  0  0  0  0  0  0
    2.1033    0.4284    0.7979 H   0  0  0  0  0  0  0  0  0  0  0  0
    1.9945    0.3365   -0.9551 H   0  0  0  0  0  0  0  0  0  0  0  0
    1.5012    1.8205   -0.1184 H   0  0  0  0  0  0  0  0  0  0  0  0
   -1.3790    1.8316    0.0373 H   0  0  0  0  0  0  0  0  0  0  0  0
   -4.0209   -1.2328    0.1875 H   0  0  0  0  0  0  0  0  0  0  0  0
   -3.9246    0.4315    0.7994 H   0  0  0  0  0  0  0  0  0  0  0  0
   -3.3365   -0.2183   -1.8708 H   0  0  0  0  0  0  0  0  0  0  0  0
   -1.0515   -0.7608    2.2557 H   0  0  0  0  0  0  0  0  0  0  0  0
   -1.8057   -2.2258    1.4951 H   0  0  0  0  0  0  0  0  0  0  0  0
    0.4373   -2.0703    0.0103 H   0  0  0  0  0  0  0  0  0  0  0  0
  1  2  1  0  0  0  0
  1 10  1  0  0  0  0
  2  3  2  0  0  0  0
  2  8  1  0  0  0  0
  3  4  1  0  0  0  0
  4  5  1  1  0  0  0
  4  7  1  0  0  0  0
  5 14  1  0  0  0  0
  5 15  1  0  0  0  0
  6  5  1  0  0  0  0
  7 18  1  0  0  0  0
  7 17  1  0  0  0  0
  8 19  1  6  0  0  0
  8  7  1  0  0  0  0
  9  8  1  0  0  0  0
  9  4  1  0  0  0  0
 11  1  1  0  0  0  0
 12  1  1  0  0  0  0
 13  3  1  0  0  0  0
 16  6  1  0  0  0  0
M TOR 0 0 1 2 3
M TOR 1 0 1 2 12
M TOR 2 0 1 7 6
M TOR 3 0 1 7 8
M TOR 4 0 1 7 18
M TOR 5 1 2 3 4
M TOR 6 1 2 3 6
M TOR 7 1 2 3 8
M TOR 8 1 7 6 3
M TOR 9 1 7 6 16
M TOR 10 1 7 6 17
M TOR 11 1 7 8 3
M TOR 12 2 1 0 9
M TOR 13 2 1 0 10
M TOR 14 2 1 0 11
M TOR 15 2 1 7 6
M TOR 16 2 1 7 8
M TOR 17 2 1 7 18
M TOR 18 2 3 4 5
M TOR 19 2 3 4 13
M TOR 20 2 3 4 14
M TOR 21 2 3 6 7
M TOR 22 2 3 6 16
M TOR 23 2 3 6 17
M TOR 24 2 3 8 7
M TOR 25 3 2 1 7
M TOR 26 3 4 5 15
M TOR 27 3 6 7 8
M TOR 28 3 6 7 18
M TOR 29 3 8 7 18
M TOR 30 4 3 2 12
M TOR 31 4 3 6 7
M TOR 32 4 3 6 16
M TOR 33 4 3 6 17
M TOR 34 4 3 8 7
M TOR 35 5 4 3 6
M TOR 36 5 4 3 8
M TOR 37 6 3 2 12
M TOR 38 6 3 4 13
M TOR 39 6 3 4 14
M TOR 40 7 1 0 9
M TOR 41 7 1 0 10
M TOR 42 7 1 0 11
M TOR 43 7 1 2 12
M TOR 44 8 3 2 12
M TOR 45 8 3 4 13
M TOR 46 8 3 4 14
M TOR 47 8 3 6 16
M TOR 48 8 3 6 17
M TOR 49 8 7 6 16
M TOR 50 8 7 6 17
M  END
$$$$
