gdb 2352	2.6469823	1.7132673	1.4122948	2.7731	73.58	-0.24605	0.07749	0.32354	995.8585	0.157605	-422.544281	-422.536506	-422.535562	-422.576443	30.708
 OpenBabel02181911413D

 19 21  0  0  1  0  0  0  0  0999 V2000
    0.2397    0.4250   -0.1512 O   0  0  0  0  0  0  0  0  0  0  0  0
   -0.5312    0.9576    0.9008 C   0  0  2  0  0  0  0  0  0  0  0  0
   -1.2891   -0.0757    1.7904 C   0  0  0  0  0  0  0  0  0  0  0  0
   -2.6136    0.7005    1.5433 C   0  0  0  0  0  0  0  0  0  0  0  0
   -1.9059    1.5284    0.4292 C   0  0  1  0  0  0  0  0  0  0  0  0
   -1.8500    3.0196    0.6344 C   0  0  2  0  0  0  0  0  0  0  0  0
   -0.7420    3.6324   -0.0349 O   0  0  0  0  0  0  0  0  0  0  0  0
   -0.6206    3.3609    1.3663 C   0  0  2  0  0  0  0  0  0  0  0  0
    0.1835    2.1088    1.6699 C   0  0  0  0  0  0  0  0  0  0  0  0
    1.0507    0.0630    0.2220 H   0  0  0  0  0  0  0  0  0  0  0  0
   -1.2913   -1.0551    1.3061 H   0  0  0  0  0  0  0  0  0  0  0  0
   -0.9584   -0.1893    2.8266 H   0  0  0  0  0  0  0  0  0  0  0  0
   -3.4706    0.1026    1.2295 H   0  0  0  0  0  0  0  0  0  0  0  0
   -2.9185    1.3169    2.3941 H   0  0  0  0  0  0  0  0  0  0  0  0
   -2.1704    1.2331   -0.5878 H   0  0  0  0  0  0  0  0  0  0  0  0
   -2.7576    3.6177    0.6916 H   0  0  0  0  0  0  0  0  0  0  0  0
   -0.5358    4.2393    2.0025 H   0  0  0  0  0  0  0  0  0  0  0  0
    1.2163    2.2130    1.3215 H   0  0  0  0  0  0  0  0  0  0  0  0
    0.2089    1.9303    2.7511 H   0  0  0  0  0  0  0  0  0  0  0  0
  1 10  1  0  0  0  0
  2  1  1  6  0  0  0
  2  9  1  0  0  0  0
  2  3  1  0  0  0  0
  3 12  1  0  0  0  0
  4  3  1  0  0  0  0
  4 14  1  0  0  0  0
  5 15  1  6  0  0  0
  5  6  1  0  0  0  0
  5  2  1  0  0  0  0
  5  4  1  0  0  0  0
  6 16  1  1  0  0  0
  6  8  1  0  0  0  0
  7  6  1  0  0  0  0
  7  8  1  0  0  0  0
  8  9  1  0  0  0  0
  8 17  1  1  0  0  0
  9 19  1  0  0  0  0
 11  3  1  0  0  0  0
 13  4  1  0  0  0  0
 18  9  1  0  0  0  0
M TOR 0 0 1 2 3
M TOR 1 0 1 2 10
M TOR 2 0 1 2 11
M TOR 3 0 1 4 3
M TOR 4 0 1 4 5
M TOR 5 0 1 4 14
M TOR 6 0 1 8 7
M TOR 7 0 1 8 17
M TOR 8 0 1 8 18
M TOR 9 1 2 3 4
M TOR 10 1 2 3 12
M TOR 11 1 2 3 13
M TOR 12 1 4 3 12
M TOR 13 1 4 3 13
M TOR 14 1 4 5 6
M TOR 15 1 4 5 7
M TOR 16 1 4 5 15
M TOR 17 1 8 7 5
M TOR 18 1 8 7 6
M TOR 19 1 8 7 16
M TOR 20 2 1 0 9
M TOR 21 2 1 4 5
M TOR 22 2 1 4 14
M TOR 23 2 1 8 7
M TOR 24 2 1 8 17
M TOR 25 2 1 8 18
M TOR 26 2 3 4 5
M TOR 27 2 3 4 14
M TOR 28 3 2 1 8
M TOR 29 3 4 1 8
M TOR 30 3 4 5 6
M TOR 31 3 4 5 7
M TOR 32 3 4 5 15
M TOR 33 4 1 0 9
M TOR 34 4 1 2 10
M TOR 35 4 1 2 11
M TOR 36 4 1 8 7
M TOR 37 4 1 8 17
M TOR 38 4 1 8 18
M TOR 39 4 3 2 10
M TOR 40 4 3 2 11
M TOR 41 4 5 6 7
M TOR 42 4 5 7 8
M TOR 43 4 5 7 16
M TOR 44 5 4 1 8
M TOR 45 5 4 3 12
M TOR 46 5 4 3 13
M TOR 47 5 6 7 8
M TOR 48 5 6 7 16
M TOR 49 5 7 8 17
M TOR 50 5 7 8 18
M TOR 51 6 5 4 14
M TOR 52 6 7 5 15
M TOR 53 6 7 8 17
M TOR 54 6 7 8 18
M TOR 55 7 5 4 14
M TOR 56 8 1 0 9
M TOR 57 8 1 2 10
M TOR 58 8 1 2 11
M TOR 59 8 1 4 14
M TOR 60 8 7 5 15
M  END
$$$$
