
     RDKit          3D

 19 20  0  0  0  0  0  0  0  0999 V2000
    1.2148    0.0446   -0.5552 O   0  0  0  0  0  0  0  0  0  0  0  0
    0.0914    0.0747   -0.1273 C   0  0  0  0  0  0  0  0  0  0  0  0
   -0.8168   -1.1433    0.0900 C   0  0  0  0  0  0  0  0  0  0  0  0
   -2.0304   -0.6432    0.8959 C   0  0  0  0  0  0  0  0  0  0  0  0
   -3.4057   -1.1487    0.4127 C   0  0  0  0  0  0  0  0  0  0  0  0
   -3.9040   -0.0102   -0.5207 C   0  0  0  0  0  0  0  0  0  0  0  0
   -2.8393    0.9286   -0.6305 O   0  0  0  0  0  0  0  0  0  0  0  0
   -2.0897    0.8745    0.5773 C   0  0  0  0  0  0  0  0  0  0  0  0
   -0.6666    1.3364    0.3056 C   0  0  0  0  0  0  0  0  0  0  0  0
   -1.1148   -1.5029   -0.9022 H   0  0  0  0  0  0  0  0  0  0  0  0
   -0.2603   -1.9548    0.5651 H   0  0  0  0  0  0  0  0  0  0  0  0
   -1.8799   -0.8242    1.9634 H   0  0  0  0  0  0  0  0  0  0  0  0
   -3.3251   -2.1056   -0.1093 H   0  0  0  0  0  0  0  0  0  0  0  0
   -4.0936   -1.2929    1.2497 H   0  0  0  0  0  0  0  0  0  0  0  0
   -4.1495   -0.3483   -1.5311 H   0  0  0  0  0  0  0  0  0  0  0  0
   -4.7972    0.4740   -0.0987 H   0  0  0  0  0  0  0  0  0  0  0  0
   -2.5914    1.4513    1.3688 H   0  0  0  0  0  0  0  0  0  0  0  0
   -0.6088    2.1161   -0.4572 H   0  0  0  0  0  0  0  0  0  0  0  0
   -0.1924    1.7272    1.2140 H   0  0  0  0  0  0  0  0  0  0  0  0
  1  2  2  0
  2  3  1  0
  3  4  1  0
  4  5  1  0
  5  6  1  0
  6  7  1  0
  7  8  1  0
  8  9  1  0
  9  2  1  0
  8  4  1  0
  3 10  1  0
  3 11  1  0
  4 12  1  0
  5 13  1  0
  5 14  1  0
  6 15  1  0
  6 16  1  0
  8 17  1  0
  9 18  1  0
  9 19  1  0
M  END
$$$$
