
     RDKit          3D

 19 18  0  0  0  0  0  0  0  0999 V2000
    1.4740   -0.0703   -0.0213 C   0  0  0  0  0  0  0  0  0  0  0  0
    0.0728   -0.1374    0.1055 O   0  0  0  0  0  0  0  0  0  0  0  0
   -0.4240    0.6703    1.1409 C   0  0  0  0  0  0  0  0  0  0  0  0
   -1.9580    0.5690    1.1444 C   0  0  0  0  0  0  0  0  0  0  0  0
   -2.5359    1.2854    2.3911 C   0  0  0  0  0  0  0  0  0  0  0  0
   -4.0337    1.1114    2.5405 C   0  0  0  0  0  0  0  0  0  0  0  0
   -4.5752    0.8018    3.5707 O   0  0  0  0  0  0  0  0  0  0  0  0
   -2.5259    1.1021   -0.0928 C   0  0  0  0  0  0  0  0  0  0  0  0
   -2.9976    1.5757   -1.0917 C   0  0  0  0  0  0  0  0  0  0  0  0
    1.9841   -0.4049    0.8959 H   0  0  0  0  0  0  0  0  0  0  0  0
    1.7576   -0.7303   -0.8440 H   0  0  0  0  0  0  0  0  0  0  0  0
    1.8137    0.9518   -0.2504 H   0  0  0  0  0  0  0  0  0  0  0  0
   -0.0367    0.3358    2.1184 H   0  0  0  0  0  0  0  0  0  0  0  0
   -0.1207    1.7219    1.0042 H   0  0  0  0  0  0  0  0  0  0  0  0
   -2.2000   -0.5001    1.2104 H   0  0  0  0  0  0  0  0  0  0  0  0
   -2.0581    0.9212    3.3048 H   0  0  0  0  0  0  0  0  0  0  0  0
   -2.3337    2.3620    2.3032 H   0  0  0  0  0  0  0  0  0  0  0  0
   -4.6177    1.2999    1.6141 H   0  0  0  0  0  0  0  0  0  0  0  0
   -3.4102    1.9747   -1.9853 H   0  0  0  0  0  0  0  0  0  0  0  0
  1  2  1  0
  2  3  1  0
  3  4  1  0
  4  5  1  0
  5  6  1  0
  6  7  2  0
  4  8  1  0
  8  9  3  0
  1 10  1  0
  1 11  1  0
  1 12  1  0
  3 13  1  0
  3 14  1  0
  4 15  1  0
  5 16  1  0
  5 17  1  0
  6 18  1  0
  9 19  1  0
M  END
$$$$
