
     RDKit          3D

 19 19  0  0  0  0  0  0  0  0999 V2000
    1.4201   -0.7299    0.8698 C   0  0  0  0  0  0  0  0  0  0  0  0
    0.8742    0.2416   -0.1906 C   0  0  0  0  0  0  0  0  0  0  0  0
    1.6248    1.5398   -0.2618 C   0  0  0  0  0  0  0  0  0  0  0  0
    1.1907    2.7603    0.1525 C   0  0  0  0  0  0  0  0  0  0  0  0
    2.1327    3.7176   -0.0568 O   0  0  0  0  0  0  0  0  0  0  0  0
    3.2019    3.0927   -0.6165 C   0  0  0  0  0  0  0  0  0  0  0  0
    2.9604    1.7627   -0.7706 C   0  0  0  0  0  0  0  0  0  0  0  0
    3.9015    0.7606   -1.3732 C   0  0  0  0  0  0  0  0  0  0  0  0
    4.9044    1.3615   -2.1782 O   0  0  0  0  0  0  0  0  0  0  0  0
    1.3755   -0.2817    1.8670 H   0  0  0  0  0  0  0  0  0  0  0  0
    0.8391   -1.6574    0.8844 H   0  0  0  0  0  0  0  0  0  0  0  0
    2.4641   -0.9928    0.6717 H   0  0  0  0  0  0  0  0  0  0  0  0
    0.8944   -0.2510   -1.1718 H   0  0  0  0  0  0  0  0  0  0  0  0
   -0.1804    0.4514    0.0203 H   0  0  0  0  0  0  0  0  0  0  0  0
    0.2655    3.0991    0.5905 H   0  0  0  0  0  0  0  0  0  0  0  0
    4.0501    3.7150   -0.8463 H   0  0  0  0  0  0  0  0  0  0  0  0
    4.4472    0.2158   -0.5932 H   0  0  0  0  0  0  0  0  0  0  0  0
    3.3312    0.0043   -1.9374 H   0  0  0  0  0  0  0  0  0  0  0  0
    4.4526    1.8758   -2.8560 H   0  0  0  0  0  0  0  0  0  0  0  0
  1  2  1  0
  2  3  1  0
  3  4  2  0
  4  5  1  0
  5  6  1  0
  6  7  2  0
  7  8  1  0
  8  9  1  0
  7  3  1  0
  1 10  1  0
  1 11  1  0
  1 12  1  0
  2 13  1  0
  2 14  1  0
  4 15  1  0
  6 16  1  0
  8 17  1  0
  8 18  1  0
  9 19  1  0
M  END
$$$$
