
     RDKit          3D

 19 19  0  0  0  0  0  0  0  0999 V2000
   -1.9693    4.3546    2.1023 O   0  0  0  0  0  0  0  0  0  0  0  0
   -1.8648    3.9332    0.7488 C   0  0  0  0  0  0  0  0  0  0  0  0
   -2.9359    2.8932    0.3194 C   0  0  0  0  0  0  0  0  0  0  0  0
   -2.2127    1.9085   -0.6278 C   0  0  0  0  0  0  0  0  0  0  0  0
   -0.7447    2.1417   -0.3276 C   0  0  0  0  0  0  0  0  0  0  0  0
    0.3156    1.2047   -0.8396 C   0  0  0  0  0  0  0  0  0  0  0  0
    0.2877   -0.0862   -0.0309 C   0  0  0  0  0  0  0  0  0  0  0  0
   -0.0691   -1.1541   -0.4529 O   0  0  0  0  0  0  0  0  0  0  0  0
   -0.5651    3.2398    0.4103 C   0  0  0  0  0  0  0  0  0  0  0  0
   -1.8219    3.5794    2.6561 H   0  0  0  0  0  0  0  0  0  0  0  0
   -1.9643    4.8655    0.1777 H   0  0  0  0  0  0  0  0  0  0  0  0
   -3.2710    2.3687    1.2215 H   0  0  0  0  0  0  0  0  0  0  0  0
   -3.8185    3.3557   -0.1278 H   0  0  0  0  0  0  0  0  0  0  0  0
   -2.5125    0.8643   -0.4825 H   0  0  0  0  0  0  0  0  0  0  0  0
   -2.4183    2.1370   -1.6827 H   0  0  0  0  0  0  0  0  0  0  0  0
    0.1526    0.9492   -1.8915 H   0  0  0  0  0  0  0  0  0  0  0  0
    1.3069    1.6592   -0.7265 H   0  0  0  0  0  0  0  0  0  0  0  0
    0.6035    0.0424    1.0298 H   0  0  0  0  0  0  0  0  0  0  0  0
    0.3929    3.6446    0.7199 H   0  0  0  0  0  0  0  0  0  0  0  0
  1  2  1  0
  2  3  1  0
  3  4  1  0
  4  5  1  0
  5  6  1  0
  6  7  1  0
  7  8  2  0
  5  9  2  0
  9  2  1  0
  1 10  1  0
  2 11  1  0
  3 12  1  0
  3 13  1  0
  4 14  1  0
  4 15  1  0
  6 16  1  0
  6 17  1  0
  7 18  1  0
  9 19  1  0
M  END
$$$$
