gdb 4026	3.8898399	1.3831389	1.2981846	1.4047	73.51	-0.24165	0.07315	0.3148	1039.8751	0.158837	-422.520065	-422.512955	-422.512011	-422.551313	28.748
 OpenBabel02181911413D

 19 21  0  0  1  0  0  0  0  0999 V2000
    0.2585    0.3939    0.0570 C   0  0  0  0  0  0  0  0  0  0  0  0
    0.8717   -0.9591   -0.2482 C   0  0  1  0  0  0  0  0  0  0  0  0
    2.0952   -0.8345   -1.0306 O   0  0  0  0  0  0  0  0  0  0  0  0
    2.8948   -1.3709    0.0458 C   0  0  2  0  0  0  0  0  0  0  0  0
    3.3872   -2.8332   -0.1075 C   0  0  2  0  0  0  0  0  0  0  0  0
    2.1223   -3.6185   -0.4955 C   0  0  0  0  0  0  0  0  0  0  0  0
    1.7748   -3.1830    0.9473 C   0  0  1  0  0  0  0  0  0  0  0  0
    3.2064   -3.3012    1.2723 O   0  0  0  0  0  0  0  0  0  0  0  0
    1.6393   -1.6456    0.9056 C   0  0  2  0  0  0  0  0  0  0  0  0
   -0.6454    0.2740    0.6650 H   0  0  0  0  0  0  0  0  0  0  0  0
    0.9621    1.0306    0.6022 H   0  0  0  0  0  0  0  0  0  0  0  0
   -0.0171    0.9041   -0.8709 H   0  0  0  0  0  0  0  0  0  0  0  0
    0.1432   -1.5959   -0.7676 H   0  0  0  0  0  0  0  0  0  0  0  0
    3.6696   -0.6779    0.3822 H   0  0  0  0  0  0  0  0  0  0  0  0
    4.3764   -3.0267   -0.5204 H   0  0  0  0  0  0  0  0  0  0  0  0
    1.5210   -3.2820   -1.3399 H   0  0  0  0  0  0  0  0  0  0  0  0
    2.3214   -4.6889   -0.5423 H   0  0  0  0  0  0  0  0  0  0  0  0
    1.1222   -3.7567    1.6048 H   0  0  0  0  0  0  0  0  0  0  0  0
    1.5496   -1.1985    1.8951 H   0  0  0  0  0  0  0  0  0  0  0  0
  1 11  1  0  0  0  0
  1 10  1  0  0  0  0
  2 13  1  6  0  0  0
  2  1  1  0  0  0  0
  2  9  1  0  0  0  0
  3  2  1  0  0  0  0
  3  4  1  0  0  0  0
  4 14  1  1  0  0  0
  4  9  1  0  0  0  0
  5 15  1  6  0  0  0
  5  4  1  0  0  0  0
  5  8  1  0  0  0  0
  6  5  1  0  0  0  0
  6  7  1  0  0  0  0
  7  8  1  0  0  0  0
  7 18  1  1  0  0  0
  9  7  1  0  0  0  0
  9 19  1  1  0  0  0
 12  1  1  0  0  0  0
 16  6  1  0  0  0  0
 17  6  1  0  0  0  0
M TOR 0 0 1 2 3
M TOR 1 0 1 8 3
M TOR 2 0 1 8 6
M TOR 3 0 1 8 18
M TOR 4 1 2 3 4
M TOR 5 1 2 3 8
M TOR 6 1 2 3 13
M TOR 7 1 8 3 4
M TOR 8 1 8 3 13
M TOR 9 1 8 6 5
M TOR 10 1 8 6 7
M TOR 11 1 8 6 17
M TOR 12 2 1 0 9
M TOR 13 2 1 0 10
M TOR 14 2 1 0 11
M TOR 15 2 1 8 6
M TOR 16 2 1 8 18
M TOR 17 2 3 4 5
M TOR 18 2 3 4 7
M TOR 19 2 3 4 14
M TOR 20 2 3 8 6
M TOR 21 2 3 8 18
M TOR 22 3 2 1 12
M TOR 23 3 4 5 6
M TOR 24 3 4 5 15
M TOR 25 3 4 5 16
M TOR 26 3 4 7 6
M TOR 27 3 8 1 12
M TOR 28 3 8 6 5
M TOR 29 3 8 6 7
M TOR 30 3 8 6 17
M TOR 31 4 3 8 6
M TOR 32 4 3 8 18
M TOR 33 4 5 6 7
M TOR 34 4 5 6 8
M TOR 35 4 5 6 17
M TOR 36 4 7 6 8
M TOR 37 4 7 6 17
M TOR 38 5 4 3 8
M TOR 39 5 4 3 13
M TOR 40 5 6 8 18
M TOR 41 6 5 4 14
M TOR 42 6 7 4 14
M TOR 43 6 8 1 12
M TOR 44 6 8 3 13
M TOR 45 7 4 3 8
M TOR 46 7 4 3 13
M TOR 47 7 4 5 15
M TOR 48 7 4 5 16
M TOR 49 7 6 5 15
M TOR 50 7 6 5 16
M TOR 51 7 6 8 18
M TOR 52 8 1 0 9
M TOR 53 8 1 0 10
M TOR 54 8 1 0 11
M TOR 55 8 3 4 14
M TOR 56 8 6 5 15
M TOR 57 8 6 5 16
M  END
$$$$
