gdb 3800	2.4648457	0.9684432	0.9252312	1.1564	76.97	-0.24574	-0.09436	0.15138	1403.1346	0.154048	-422.562655	-422.552721	-422.551777	-422.598936	34.566
 OpenBabel02181911413D

 19 19  0  0  1  0  0  0  0  0999 V2000
   -2.4660    0.8707   -1.2987 C   0  0  0  0  0  0  0  0  0  0  0  0
   -1.1558    1.1855   -1.9850 C   0  0  2  0  0  0  0  0  0  0  0  0
   -0.8941    0.7217   -3.3972 C   0  0  0  0  0  0  0  0  0  0  0  0
   -0.1392    0.1008   -2.2449 C   0  0  1  0  0  0  0  0  0  0  0  0
    1.3494    0.3822   -2.0713 C   0  0  0  0  0  0  0  0  0  0  0  0
    1.7206    0.3932   -0.6053 C   0  0  0  0  0  0  0  0  0  0  0  0
    1.9369    1.3876    0.0486 O   0  0  0  0  0  0  0  0  0  0  0  0
    1.8011   -0.9618    0.1145 C   0  0  0  0  0  0  0  0  0  0  0  0
    1.6152   -2.0193   -0.4286 O   0  0  0  0  0  0  0  0  0  0  0  0
   -2.3604    0.8858   -0.2082 H   0  0  0  0  0  0  0  0  0  0  0  0
   -3.2404    1.5969   -1.5690 H   0  0  0  0  0  0  0  0  0  0  0  0
   -2.8299   -0.1223   -1.5838 H   0  0  0  0  0  0  0  0  0  0  0  0
   -0.7354    2.1559   -1.7312 H   0  0  0  0  0  0  0  0  0  0  0  0
   -1.6524    0.1179   -3.8854 H   0  0  0  0  0  0  0  0  0  0  0  0
   -0.3517    1.3805   -4.0674 H   0  0  0  0  0  0  0  0  0  0  0  0
   -0.4313   -0.9085   -1.9709 H   0  0  0  0  0  0  0  0  0  0  0  0
    1.9317   -0.3889   -2.5879 H   0  0  0  0  0  0  0  0  0  0  0  0
    1.6058    1.3613   -2.4848 H   0  0  0  0  0  0  0  0  0  0  0  0
    2.0576   -0.8610    1.1906 H   0  0  0  0  0  0  0  0  0  0  0  0
  1 10  1  0  0  0  0
  2 13  1  1  0  0  0
  2  1  1  0  0  0  0
  3  4  1  0  0  0  0
  3  2  1  0  0  0  0
  4  5  1  0  0  0  0
  4  2  1  0  0  0  0
  4 16  1  1  0  0  0
  5  6  1  0  0  0  0
  6  7  2  0  0  0  0
  6  8  1  0  0  0  0
  8 19  1  0  0  0  0
  9  8  2  0  0  0  0
 11  1  1  0  0  0  0
 12  1  1  0  0  0  0
 14  3  1  0  0  0  0
 15  3  1  0  0  0  0
 17  5  1  0  0  0  0
 18  5  1  0  0  0  0
M TOR 0 0 1 2 3
M TOR 1 0 1 2 13
M TOR 2 0 1 2 14
M TOR 3 0 1 3 4
M TOR 4 0 1 3 15
M TOR 5 1 2 3 4
M TOR 6 1 2 3 15
M TOR 7 1 3 2 13
M TOR 8 1 3 2 14
M TOR 9 1 3 4 5
M TOR 10 1 3 4 16
M TOR 11 1 3 4 17
M TOR 12 2 1 0 9
M TOR 13 2 1 0 10
M TOR 14 2 1 0 11
M TOR 15 2 3 1 12
M TOR 16 2 3 4 5
M TOR 17 2 3 4 16
M TOR 18 2 3 4 17
M TOR 19 3 1 0 9
M TOR 20 3 1 0 10
M TOR 21 3 1 0 11
M TOR 22 3 4 5 6
M TOR 23 3 4 5 7
M TOR 24 4 3 1 12
M TOR 25 4 3 2 13
M TOR 26 4 3 2 14
M TOR 27 4 5 7 8
M TOR 28 4 5 7 18
M TOR 29 5 4 3 15
M TOR 30 6 5 4 16
M TOR 31 6 5 4 17
M TOR 32 6 5 7 8
M TOR 33 6 5 7 18
M TOR 34 7 5 4 16
M TOR 35 7 5 4 17
M  END
$$$$
