gdb 1179	2.1158817	1.3997094	0.8931561	1.962	77.15	-0.25729	0.05158	0.30887000000000003	1302.5172	0.153324	-422.500301	-422.490083	-422.489139	-422.535718	36.706
 OpenBabel02181911403D

 19 19  0  0  1  0  0  0  0  0999 V2000
   16.2889    8.8957    6.7178 C   0  0  0  0  0  0  0  0  0  0  0  0
   16.5358    8.1820    8.0621 C   0  0  1  0  0  0  0  0  0  0  0  0
   16.3993    9.1092    9.1827 C   0  0  0  0  0  0  0  0  0  0  0  0
   16.2862    9.8963   10.0835 C   0  0  0  0  0  0  0  0  0  0  0  0
   15.6100    6.9566    8.2237 C   0  0  1  0  0  0  0  0  0  0  0  0
   15.9212    6.0930    7.1355 O   0  0  0  0  0  0  0  0  0  0  0  0
   15.8147    6.2198    9.5333 C   0  0  2  0  0  0  0  0  0  0  0  0
   14.7622    5.3395   10.0658 C   0  0  0  0  0  0  0  0  0  0  0  0
   15.0208    6.6169   10.6456 O   0  0  0  0  0  0  0  0  0  0  0  0
   16.4154    8.1923    5.8932 H   0  0  0  0  0  0  0  0  0  0  0  0
   15.2734    9.3023    6.6821 H   0  0  0  0  0  0  0  0  0  0  0  0
   16.9891    9.7253    6.5939 H   0  0  0  0  0  0  0  0  0  0  0  0
   17.5622    7.7883    8.0571 H   0  0  0  0  0  0  0  0  0  0  0  0
   16.1836   10.5757   10.8930 H   0  0  0  0  0  0  0  0  0  0  0  0
   14.5625    7.2948    8.1844 H   0  0  0  0  0  0  0  0  0  0  0  0
   15.3710    5.3070    7.2140 H   0  0  0  0  0  0  0  0  0  0  0  0
   16.8525    5.9824    9.7735 H   0  0  0  0  0  0  0  0  0  0  0  0
   13.8110    5.2527    9.5393 H   0  0  0  0  0  0  0  0  0  0  0  0
   15.0335    4.4800   10.6767 H   0  0  0  0  0  0  0  0  0  0  0  0
  1  2  1  0  0  0  0
  2 13  1  6  0  0  0
  2  5  1  0  0  0  0
  2  3  1  0  0  0  0
  3  4  3  0  0  0  0
  4 14  1  0  0  0  0
  5 15  1  6  0  0  0
  5  7  1  0  0  0  0
  6 16  1  0  0  0  0
  6  5  1  0  0  0  0
  7 17  1  1  0  0  0
  7  8  1  0  0  0  0
  7  9  1  0  0  0  0
  8  9  1  0  0  0  0
  8 19  1  0  0  0  0
 10  1  1  0  0  0  0
 11  1  1  0  0  0  0
 12  1  1  0  0  0  0
 18  8  1  0  0  0  0
M TOR 0 0 1 2 3
M TOR 1 0 1 4 5
M TOR 2 0 1 4 6
M TOR 3 0 1 4 14
M TOR 4 1 2 3 13
M TOR 5 1 4 5 15
M TOR 6 1 4 6 7
M TOR 7 1 4 6 8
M TOR 8 1 4 6 16
M TOR 9 2 1 0 9
M TOR 10 2 1 0 10
M TOR 11 2 1 0 11
M TOR 12 2 1 4 5
M TOR 13 2 1 4 6
M TOR 14 2 1 4 14
M TOR 15 3 2 1 4
M TOR 16 3 2 1 12
M TOR 17 4 1 0 9
M TOR 18 4 1 0 10
M TOR 19 4 1 0 11
M TOR 20 4 6 7 8
M TOR 21 4 6 7 17
M TOR 22 4 6 7 18
M TOR 23 5 4 1 12
M TOR 24 5 4 6 7
M TOR 25 5 4 6 8
M TOR 26 5 4 6 16
M TOR 27 6 4 1 12
M TOR 28 6 4 5 15
M TOR 29 6 8 7 17
M TOR 30 6 8 7 18
M TOR 31 7 6 4 14
M TOR 32 7 8 6 16
M TOR 33 8 6 4 14
M  END
$$$$
