
     RDKit          3D

 19 20  0  0  0  0  0  0  0  0999 V2000
   -0.8868   -1.9137   -1.3129 C   0  0  0  0  0  0  0  0  0  0  0  0
   -0.9884   -1.0882   -0.0305 C   0  0  0  0  0  0  0  0  0  0  0  0
   -0.8694   -1.9465    1.2285 C   0  0  0  0  0  0  0  0  0  0  0  0
   -0.0664    0.1445   -0.0209 C   0  0  0  0  0  0  0  0  0  0  0  0
    1.1010    0.3705   -0.0260 O   0  0  0  0  0  0  0  0  0  0  0  0
   -1.0985    1.0527   -0.0021 O   0  0  0  0  0  0  0  0  0  0  0  0
   -2.0836   -0.0129   -0.0092 C   0  0  0  0  0  0  0  0  0  0  0  0
   -3.3556    0.1363   -0.7621 C   0  0  0  0  0  0  0  0  0  0  0  0
   -3.3452    0.1166    0.7647 C   0  0  0  0  0  0  0  0  0  0  0  0
   -1.6750   -2.6738   -1.3437 H   0  0  0  0  0  0  0  0  0  0  0  0
   -0.9819   -1.2869   -2.2037 H   0  0  0  0  0  0  0  0  0  0  0  0
    0.0791   -2.4255   -1.3571 H   0  0  0  0  0  0  0  0  0  0  0  0
   -1.6572   -2.7073    1.2505 H   0  0  0  0  0  0  0  0  0  0  0  0
    0.0969   -2.4591    1.2463 H   0  0  0  0  0  0  0  0  0  0  0  0
   -0.9522   -1.3429    2.1365 H   0  0  0  0  0  0  0  0  0  0  0  0
   -3.5380    1.0886   -1.2477 H   0  0  0  0  0  0  0  0  0  0  0  0
   -3.7490   -0.7268   -1.2892 H   0  0  0  0  0  0  0  0  0  0  0  0
   -3.5207    1.0560    1.2773 H   0  0  0  0  0  0  0  0  0  0  0  0
   -3.7315   -0.7599    1.2747 H   0  0  0  0  0  0  0  0  0  0  0  0
  1  2  1  0
  2  3  1  0
  2  4  1  0
  4  5  2  0
  4  6  1  0
  6  7  1  0
  7  8  1  0
  8  9  1  0
  7  2  1  0
  9  7  1  0
  1 10  1  0
  1 11  1  0
  1 12  1  0
  3 13  1  0
  3 14  1  0
  3 15  1  0
  8 16  1  0
  8 17  1  0
  9 18  1  0
  9 19  1  0
M  END
$$$$
