gdb 1790	3.0773083	1.4038571	1.2291864	3.3197	75.96	-0.24076	-0.02583	0.21493	1084.3189	0.15628	-422.553256	-422.545087	-422.544143	-422.585896	31.338
 OpenBabel02181911403D

 19 20  0  0  1  0  0  0  0  0999 V2000
   -1.2189    3.8669    0.2352 C   0  0  0  0  0  0  0  0  0  0  0  0
   -0.2722    2.8775   -0.3793 C   0  0  2  0  0  0  0  0  0  0  0  0
    1.2663    3.0539   -0.4811 C   0  0  0  0  0  0  0  0  0  0  0  0
    1.1044    1.8238   -1.4291 C   0  0  2  0  0  0  0  0  0  0  0  0
   -0.2413    2.4694   -1.8785 C   0  0  0  0  0  0  0  0  0  0  0  0
    0.5532    0.7836   -0.4183 C   0  0  2  0  0  0  0  0  0  0  0  0
   -0.3918    1.5892    0.2828 O   0  0  0  0  0  0  0  0  0  0  0  0
    1.6306    0.1997    0.4734 C   0  0  0  0  0  0  0  0  0  0  0  0
    1.8975    0.5731    1.5847 O   0  0  0  0  0  0  0  0  0  0  0  0
   -0.9962    3.9964    1.2985 H   0  0  0  0  0  0  0  0  0  0  0  0
   -1.1336    4.8379   -0.2604 H   0  0  0  0  0  0  0  0  0  0  0  0
   -2.2521    3.5181    0.1437 H   0  0  0  0  0  0  0  0  0  0  0  0
    1.5617    3.9542   -1.0223 H   0  0  0  0  0  0  0  0  0  0  0  0
    1.8391    2.9354    0.4398 H   0  0  0  0  0  0  0  0  0  0  0  0
    1.8733    1.4977   -2.1278 H   0  0  0  0  0  0  0  0  0  0  0  0
   -0.0927    3.3148   -2.5529 H   0  0  0  0  0  0  0  0  0  0  0  0
   -1.0399    1.8150   -2.2375 H   0  0  0  0  0  0  0  0  0  0  0  0
    0.0509   -0.0509   -0.9316 H   0  0  0  0  0  0  0  0  0  0  0  0
    2.1994   -0.6275   -0.0155 H   0  0  0  0  0  0  0  0  0  0  0  0
  1 10  1  0  0  0  0
  2  1  1  1  0  0  0
  2  7  1  0  0  0  0
  3  2  1  0  0  0  0
  3 14  1  0  0  0  0
  4 15  1  6  0  0  0
  4  3  1  0  0  0  0
  4  6  1  0  0  0  0
  5  4  1  0  0  0  0
  5  2  1  0  0  0  0
  6 18  1  6  0  0  0
  6  7  1  0  0  0  0
  6  8  1  0  0  0  0
  8  9  2  0  0  0  0
 11  1  1  0  0  0  0
 12  1  1  0  0  0  0
 13  3  1  0  0  0  0
 16  5  1  0  0  0  0
 17  5  1  0  0  0  0
 19  8  1  0  0  0  0
M TOR 0 0 1 2 3
M TOR 1 0 1 2 12
M TOR 2 0 1 2 13
M TOR 3 0 1 4 3
M TOR 4 0 1 4 15
M TOR 5 0 1 4 16
M TOR 6 0 1 6 5
M TOR 7 1 2 3 4
M TOR 8 1 2 3 5
M TOR 9 1 2 3 14
M TOR 10 1 4 3 5
M TOR 11 1 4 3 14
M TOR 12 1 6 5 3
M TOR 13 1 6 5 7
M TOR 14 1 6 5 17
M TOR 15 2 1 0 9
M TOR 16 2 1 0 10
M TOR 17 2 1 0 11
M TOR 18 2 1 4 15
M TOR 19 2 1 4 16
M TOR 20 2 1 6 5
M TOR 21 2 3 4 15
M TOR 22 2 3 4 16
M TOR 23 2 3 5 6
M TOR 24 2 3 5 7
M TOR 25 2 3 5 17
M TOR 26 3 2 1 6
M TOR 27 3 4 1 6
M TOR 28 3 5 7 8
M TOR 29 3 5 7 18
M TOR 30 4 1 0 9
M TOR 31 4 1 0 10
M TOR 32 4 1 0 11
M TOR 33 4 1 2 12
M TOR 34 4 1 2 13
M TOR 35 4 1 6 5
M TOR 36 4 3 2 12
M TOR 37 4 3 2 13
M TOR 38 4 3 5 6
M TOR 39 4 3 5 7
M TOR 40 4 3 5 17
M TOR 41 5 3 2 12
M TOR 42 5 3 2 13
M TOR 43 5 3 4 15
M TOR 44 5 3 4 16
M TOR 45 6 1 0 9
M TOR 46 6 1 0 10
M TOR 47 6 1 0 11
M TOR 48 6 1 2 12
M TOR 49 6 1 2 13
M TOR 50 6 1 4 15
M TOR 51 6 1 4 16
M TOR 52 6 5 3 14
M TOR 53 6 5 7 8
M TOR 54 6 5 7 18
M TOR 55 7 5 3 14
M TOR 56 8 7 5 17
M  END
$$$$
