
     RDKit          3D

 19 20  0  0  0  0  0  0  0  0999 V2000
    0.8005    4.1424    1.7587 C   0  0  0  0  0  0  0  0  0  0  0  0
    1.9968    3.2963    2.1953 C   0  0  0  0  0  0  0  0  0  0  0  0
    1.5666    2.0351    2.7019 O   0  0  0  0  0  0  0  0  0  0  0  0
    2.9018    4.0099    3.2238 C   0  0  0  0  0  0  0  0  0  0  0  0
    4.0638    3.1431    3.6787 C   0  0  0  0  0  0  0  0  0  0  0  0
    5.2512    3.6921    3.4095 C   0  0  0  0  0  0  0  0  0  0  0  0
    5.0673    5.0396    2.7954 C   0  0  0  0  0  0  0  0  0  0  0  0
    4.3702    5.9698    3.6598 O   0  0  0  0  0  0  0  0  0  0  0  0
    3.6135    5.2544    2.6840 C   0  0  0  0  0  0  0  0  0  0  0  0
    0.1886    4.4239    2.6253 H   0  0  0  0  0  0  0  0  0  0  0  0
    1.1078    5.0652    1.2578 H   0  0  0  0  0  0  0  0  0  0  0  0
    0.1748    3.5701    1.0687 H   0  0  0  0  0  0  0  0  0  0  0  0
    2.6038    3.0427    1.3177 H   0  0  0  0  0  0  0  0  0  0  0  0
    0.9578    2.2057    3.4297 H   0  0  0  0  0  0  0  0  0  0  0  0
    2.2738    4.2909    4.0835 H   0  0  0  0  0  0  0  0  0  0  0  0
    3.8998    2.1935    4.1721 H   0  0  0  0  0  0  0  0  0  0  0  0
    6.2196    3.2604    3.6293 H   0  0  0  0  0  0  0  0  0  0  0  0
    5.8017    5.4911    2.1355 H   0  0  0  0  0  0  0  0  0  0  0  0
    3.1609    5.8667    1.9086 H   0  0  0  0  0  0  0  0  0  0  0  0
  1  2  1  0
  2  3  1  0
  2  4  1  0
  4  5  1  0
  5  6  2  0
  6  7  1  0
  7  8  1  0
  8  9  1  0
  9  4  1  0
  9  7  1  0
  1 10  1  0
  1 11  1  0
  1 12  1  0
  2 13  1  0
  3 14  1  0
  4 15  1  0
  5 16  1  0
  6 17  1  0
  7 18  1  0
  9 19  1  0
M  END
$$$$
