gdb 1004	3.9676257	0.667399	0.637946	3.238	82.02	-0.23782	-0.00925	0.22857	1817.2851	0.152383	-422.549698	-422.538311	-422.537367	-422.588777	38.035
 OpenBabel02181911403D

 19 18  0  0  1  0  0  0  0  0999 V2000
    1.5028    0.1884    0.0218 C   0  0  0  0  0  0  0  0  0  0  0  0
    0.0576    0.0180    0.0436 C   0  0  0  0  0  0  0  0  0  0  0  0
   -1.1374   -0.1336    0.0492 C   0  0  0  0  0  0  0  0  0  0  0  0
   -2.5947   -0.2655    0.0820 C   0  0  2  0  0  0  0  0  0  0  0  0
   -3.2430    0.6780   -0.7713 O   0  0  0  0  0  0  0  0  0  0  0  0
   -3.1288   -0.1642    1.5268 C   0  0  0  0  0  0  0  0  0  0  0  0
   -4.6550   -0.1355    1.6139 C   0  0  0  0  0  0  0  0  0  0  0  0
   -5.4202   -1.1853    0.8303 C   0  0  0  0  0  0  0  0  0  0  0  0
   -5.2164    0.6896    2.2954 O   0  0  0  0  0  0  0  0  0  0  0  0
    1.9122    0.2535    1.0357 H   0  0  0  0  0  0  0  0  0  0  0  0
    1.9938   -0.6499   -0.4843 H   0  0  0  0  0  0  0  0  0  0  0  0
    1.7824    1.1052   -0.5086 H   0  0  0  0  0  0  0  0  0  0  0  0
   -2.8763   -1.2398   -0.3343 H   0  0  0  0  0  0  0  0  0  0  0  0
   -2.9270    1.5558   -0.5279 H   0  0  0  0  0  0  0  0  0  0  0  0
   -2.7587   -1.0237    2.1014 H   0  0  0  0  0  0  0  0  0  0  0  0
   -2.7511    0.7415    2.0094 H   0  0  0  0  0  0  0  0  0  0  0  0
   -4.9885   -2.1829    0.9654 H   0  0  0  0  0  0  0  0  0  0  0  0
   -6.4653   -1.1836    1.1417 H   0  0  0  0  0  0  0  0  0  0  0  0
   -5.3616   -0.9426   -0.2365 H   0  0  0  0  0  0  0  0  0  0  0  0
  1  2  1  0  0  0  0
  1 10  1  0  0  0  0
  2  3  3  0  0  0  0
  3  4  1  0  0  0  0
  4 13  1  6  0  0  0
  4  6  1  0  0  0  0
  5 14  1  0  0  0  0
  5  4  1  0  0  0  0
  6  7  1  0  0  0  0
  6 16  1  0  0  0  0
  6 15  1  0  0  0  0
  7  9  2  0  0  0  0
  8 17  1  0  0  0  0
  8 18  1  0  0  0  0
  8  7  1  0  0  0  0
 11  1  1  0  0  0  0
 12  1  1  0  0  0  0
 19  8  1  0  0  0  0
M TOR 0 0 1 2 3
M TOR 1 1 2 3 4
M TOR 2 1 2 3 5
M TOR 3 1 2 3 12
M TOR 4 2 1 0 9
M TOR 5 2 1 0 10
M TOR 6 2 1 0 11
M TOR 7 2 3 4 13
M TOR 8 2 3 5 6
M TOR 9 2 3 5 14
M TOR 10 2 3 5 15
M TOR 11 3 5 6 7
M TOR 12 3 5 6 8
M TOR 13 4 3 5 6
M TOR 14 4 3 5 14
M TOR 15 4 3 5 15
M TOR 16 5 3 4 13
M TOR 17 5 6 7 16
M TOR 18 5 6 7 17
M TOR 19 5 6 7 18
M TOR 20 6 5 3 12
M TOR 21 7 6 5 14
M TOR 22 7 6 5 15
M TOR 23 8 6 5 14
M TOR 24 8 6 5 15
M TOR 25 8 6 7 16
M TOR 26 8 6 7 17
M TOR 27 8 6 7 18
M  END
$$$$
