
     RDKit          3D

 19 19  0  0  0  0  0  0  0  0999 V2000
    3.2385   -2.2637   -0.3777 C   0  0  0  0  0  0  0  0  0  0  0  0
    2.2653   -2.0843    0.7701 C   0  0  0  0  0  0  0  0  0  0  0  0
    1.1587   -1.0755    0.5145 C   0  0  0  0  0  0  0  0  0  0  0  0
    0.3741   -1.4160   -0.6196 O   0  0  0  0  0  0  0  0  0  0  0  0
    1.9174   -3.2684    1.6247 C   0  0  0  0  0  0  0  0  0  0  0  0
    2.4504   -4.5062    1.2763 O   0  0  0  0  0  0  0  0  0  0  0  0
    2.8338   -2.1861    2.1961 C   0  0  0  0  0  0  0  0  0  0  0  0
    2.4025   -1.3392    3.2670 C   0  0  0  0  0  0  0  0  0  0  0  0
    2.0456   -0.6369    4.1774 C   0  0  0  0  0  0  0  0  0  0  0  0
    3.9055   -3.1102   -0.2074 H   0  0  0  0  0  0  0  0  0  0  0  0
    2.6856   -2.4407   -1.3044 H   0  0  0  0  0  0  0  0  0  0  0  0
    3.8418   -1.3595   -0.5134 H   0  0  0  0  0  0  0  0  0  0  0  0
    0.5388   -0.9568    1.4138 H   0  0  0  0  0  0  0  0  0  0  0  0
    1.5936   -0.0956    0.2895 H   0  0  0  0  0  0  0  0  0  0  0  0
   -0.0253   -2.2756   -0.4486 H   0  0  0  0  0  0  0  0  0  0  0  0
    0.9108   -3.2980    2.0449 H   0  0  0  0  0  0  0  0  0  0  0  0
    2.6089   -5.0049    2.0849 H   0  0  0  0  0  0  0  0  0  0  0  0
    3.8829   -2.4704    2.2223 H   0  0  0  0  0  0  0  0  0  0  0  0
    1.7324   -0.0126    4.9769 H   0  0  0  0  0  0  0  0  0  0  0  0
  1  2  1  0
  2  3  1  0
  3  4  1  0
  2  5  1  0
  5  6  1  0
  5  7  1  0
  7  8  1  0
  8  9  3  0
  7  2  1  0
  1 10  1  0
  1 11  1  0
  1 12  1  0
  3 13  1  0
  3 14  1  0
  4 15  1  0
  5 16  1  0
  6 17  1  0
  7 18  1  0
  9 19  1  0
M  END
$$$$
