
     RDKit          3D

 19 20  0  0  0  0  0  0  0  0999 V2000
    0.0169    1.5490    0.0234 O   0  0  0  0  0  0  0  0  0  0  0  0
    0.1329    0.1391    0.0596 C   0  0  0  0  0  0  0  0  0  0  0  0
   -1.2471   -0.5107    0.0062 C   0  0  0  0  0  0  0  0  0  0  0  0
   -2.0170   -0.4794    1.3775 C   0  0  0  0  0  0  0  0  0  0  0  0
   -1.5924   -1.9859    1.5897 C   0  0  0  0  0  0  0  0  0  0  0  0
   -1.3744   -1.9973    0.0909 C   0  0  0  0  0  0  0  0  0  0  0  0
   -1.8705   -2.4856   -1.0393 C   0  0  0  0  0  0  0  0  0  0  0  0
   -2.0048   -1.3278   -2.0201 C   0  0  0  0  0  0  0  0  0  0  0  0
   -1.8729   -0.1327   -1.2205 O   0  0  0  0  0  0  0  0  0  0  0  0
   -0.5383    1.7432   -0.7419 H   0  0  0  0  0  0  0  0  0  0  0  0
    0.7401   -0.2395   -0.7780 H   0  0  0  0  0  0  0  0  0  0  0  0
    0.6508   -0.1140    0.9907 H   0  0  0  0  0  0  0  0  0  0  0  0
   -1.6719    0.2489    2.1143 H   0  0  0  0  0  0  0  0  0  0  0  0
   -3.0925   -0.3860    1.2214 H   0  0  0  0  0  0  0  0  0  0  0  0
   -0.6738   -2.0665    2.1782 H   0  0  0  0  0  0  0  0  0  0  0  0
   -2.3339   -2.6788    1.9902 H   0  0  0  0  0  0  0  0  0  0  0  0
   -2.2786   -3.4696   -1.2330 H   0  0  0  0  0  0  0  0  0  0  0  0
   -1.2513   -1.3307   -2.8233 H   0  0  0  0  0  0  0  0  0  0  0  0
   -2.9930   -1.3196   -2.4975 H   0  0  0  0  0  0  0  0  0  0  0  0
  1  2  1  0
  2  3  1  0
  3  4  1  0
  4  5  1  0
  5  6  1  0
  6  7  2  0
  7  8  1  0
  8  9  1  0
  6  3  1  0
  9  3  1  0
  1 10  1  0
  2 11  1  0
  2 12  1  0
  4 13  1  0
  4 14  1  0
  5 15  1  0
  5 16  1  0
  7 17  1  0
  8 18  1  0
  8 19  1  0
M  END
$$$$
