
     RDKit          3D

 19 20  0  0  0  0  0  0  0  0999 V2000
    1.0843   -0.2464    0.9777 O   0  0  0  0  0  0  0  0  0  0  0  0
    0.2353    0.2027   -0.0665 C   0  0  0  0  0  0  0  0  0  0  0  0
   -0.8906    1.0665    0.4933 C   0  0  0  0  0  0  0  0  0  0  0  0
   -2.1786    1.3622   -0.3743 C   0  0  0  0  0  0  0  0  0  0  0  0
   -2.6719   -0.0760    0.0113 C   0  0  0  0  0  0  0  0  0  0  0  0
   -1.9729    0.3295    1.3568 C   0  0  0  0  0  0  0  0  0  0  0  0
   -1.5253   -0.5903    2.3121 O   0  0  0  0  0  0  0  0  0  0  0  0
   -2.8520    1.5229    1.7729 C   0  0  0  0  0  0  0  0  0  0  0  0
   -2.9829    2.2019    0.6304 C   0  0  0  0  0  0  0  0  0  0  0  0
    0.5160   -0.6880    1.6214 H   0  0  0  0  0  0  0  0  0  0  0  0
    0.8610    0.8035   -0.7367 H   0  0  0  0  0  0  0  0  0  0  0  0
   -0.1456   -0.6414   -0.6601 H   0  0  0  0  0  0  0  0  0  0  0  0
   -0.4572    1.9427    0.9824 H   0  0  0  0  0  0  0  0  0  0  0  0
   -2.1164    1.6922   -1.4093 H   0  0  0  0  0  0  0  0  0  0  0  0
   -3.7519   -0.2362    0.0390 H   0  0  0  0  0  0  0  0  0  0  0  0
   -2.1700   -0.8842   -0.5241 H   0  0  0  0  0  0  0  0  0  0  0  0
   -2.2756   -1.0923    2.6474 H   0  0  0  0  0  0  0  0  0  0  0  0
   -3.2180    1.7249    2.7698 H   0  0  0  0  0  0  0  0  0  0  0  0
   -3.5028    3.1265    0.4228 H   0  0  0  0  0  0  0  0  0  0  0  0
  1  2  1  0
  2  3  1  0
  3  4  1  0
  4  5  1  0
  5  6  1  0
  6  7  1  0
  6  8  1  0
  8  9  2  0
  6  3  1  0
  9  4  1  0
  1 10  1  0
  2 11  1  0
  2 12  1  0
  3 13  1  0
  4 14  1  0
  5 15  1  0
  5 16  1  0
  7 17  1  0
  8 18  1  0
  9 19  1  0
M  END
$$$$
