
     RDKit          3D

 19 19  0  0  0  0  0  0  0  0999 V2000
    1.4473    0.0198   -0.1308 C   0  0  0  0  0  0  0  0  0  0  0  0
    0.0425    0.1321   -0.0158 O   0  0  0  0  0  0  0  0  0  0  0  0
   -0.4101    0.7469    1.1865 C   0  0  0  0  0  0  0  0  0  0  0  0
    0.0490    2.1374    1.3055 C   0  0  0  0  0  0  0  0  0  0  0  0
    0.4370    3.2699    1.4126 C   0  0  0  0  0  0  0  0  0  0  0  0
   -1.9269    0.6454    1.1372 C   0  0  0  0  0  0  0  0  0  0  0  0
   -2.4781    1.2366    0.0005 O   0  0  0  0  0  0  0  0  0  0  0  0
   -2.7292    0.7657    2.3886 C   0  0  0  0  0  0  0  0  0  0  0  0
   -2.5920   -0.5842    1.7063 C   0  0  0  0  0  0  0  0  0  0  0  0
    1.8678   -0.5843    0.6874 H   0  0  0  0  0  0  0  0  0  0  0  0
    1.6474   -0.4815   -1.0803 H   0  0  0  0  0  0  0  0  0  0  0  0
    1.9355    1.0026   -0.1286 H   0  0  0  0  0  0  0  0  0  0  0  0
   -0.0399    0.1783    2.0555 H   0  0  0  0  0  0  0  0  0  0  0  0
    0.7652    4.2758    1.5060 H   0  0  0  0  0  0  0  0  0  0  0  0
   -1.9951    0.8694   -0.7507 H   0  0  0  0  0  0  0  0  0  0  0  0
   -2.2110    0.9333    3.3265 H   0  0  0  0  0  0  0  0  0  0  0  0
   -3.6781    1.2806    2.2949 H   0  0  0  0  0  0  0  0  0  0  0  0
   -1.9807   -1.3462    2.1780 H   0  0  0  0  0  0  0  0  0  0  0  0
   -3.4533   -0.9561    1.1639 H   0  0  0  0  0  0  0  0  0  0  0  0
  1  2  1  0
  2  3  1  0
  3  4  1  0
  4  5  3  0
  3  6  1  0
  6  7  1  0
  6  8  1  0
  8  9  1  0
  9  6  1  0
  1 10  1  0
  1 11  1  0
  1 12  1  0
  3 13  1  0
  5 14  1  0
  7 15  1  0
  8 16  1  0
  8 17  1  0
  9 18  1  0
  9 19  1  0
M  END
$$$$
