
     RDKit          3D

 19 19  0  0  0  0  0  0  0  0999 V2000
    2.4697    0.0220    0.8997 C   0  0  0  0  0  0  0  0  0  0  0  0
    2.3072   -1.1197   -0.1100 C   0  0  0  0  0  0  0  0  0  0  0  0
    2.5090   -0.6476   -1.5382 C   0  0  0  0  0  0  0  0  0  0  0  0
    1.3632   -0.0716   -2.3315 C   0  0  0  0  0  0  0  0  0  0  0  0
    1.5878    1.1147   -3.1922 C   0  0  0  0  0  0  0  0  0  0  0  0
    0.7687    1.9720   -3.4032 O   0  0  0  0  0  0  0  0  0  0  0  0
    2.0259   -1.3965   -2.7583 C   0  0  0  0  0  0  0  0  0  0  0  0
    1.2153   -2.6368   -2.6636 C   0  0  0  0  0  0  0  0  0  0  0  0
    1.3079   -3.5546   -3.4395 O   0  0  0  0  0  0  0  0  0  0  0  0
    2.3370   -0.3406    1.9229 H   0  0  0  0  0  0  0  0  0  0  0  0
    3.4661    0.4717    0.8314 H   0  0  0  0  0  0  0  0  0  0  0  0
    1.7345    0.8136    0.7234 H   0  0  0  0  0  0  0  0  0  0  0  0
    3.0333   -1.9129    0.1063 H   0  0  0  0  0  0  0  0  0  0  0  0
    1.3161   -1.5704    0.0047 H   0  0  0  0  0  0  0  0  0  0  0  0
    3.4652   -0.1526   -1.7017 H   0  0  0  0  0  0  0  0  0  0  0  0
    0.3689   -0.1399   -1.9002 H   0  0  0  0  0  0  0  0  0  0  0  0
    2.6086    1.1618   -3.6409 H   0  0  0  0  0  0  0  0  0  0  0  0
    2.6621   -1.3662   -3.6376 H   0  0  0  0  0  0  0  0  0  0  0  0
    0.4902   -2.6682   -1.8205 H   0  0  0  0  0  0  0  0  0  0  0  0
  1  2  1  0
  2  3  1  0
  3  4  1  0
  4  5  1  0
  5  6  2  0
  4  7  1  0
  7  8  1  0
  8  9  2  0
  7  3  1  0
  1 10  1  0
  1 11  1  0
  1 12  1  0
  2 13  1  0
  2 14  1  0
  3 15  1  0
  4 16  1  0
  5 17  1  0
  7 18  1  0
  8 19  1  0
M  END
$$$$
