
     RDKit          3D

 19 21  0  0  0  0  0  0  0  0999 V2000
    1.4926    0.5936   -0.2553 O   0  0  0  0  0  0  0  0  0  0  0  0
    0.1449    0.2283    0.0184 C   0  0  0  0  0  0  0  0  0  0  0  0
   -0.7252    0.3024   -1.2277 C   0  0  0  0  0  0  0  0  0  0  0  0
   -2.2422   -0.1299   -1.2231 C   0  0  0  0  0  0  0  0  0  0  0  0
   -2.0735   -0.2835   -2.7612 C   0  0  0  0  0  0  0  0  0  0  0  0
   -0.6610   -0.7974   -2.3667 C   0  0  0  0  0  0  0  0  0  0  0  0
   -0.9961   -2.0661   -1.5512 C   0  0  0  0  0  0  0  0  0  0  0  0
   -2.3170   -2.5997   -1.7437 O   0  0  0  0  0  0  0  0  0  0  0  0
   -2.1170   -1.5924   -0.7381 C   0  0  0  0  0  0  0  0  0  0  0  0
    1.8464   -0.0432   -0.8843 H   0  0  0  0  0  0  0  0  0  0  0  0
    0.0915   -0.7610    0.4938 H   0  0  0  0  0  0  0  0  0  0  0  0
   -0.2121    0.9582    0.7540 H   0  0  0  0  0  0  0  0  0  0  0  0
   -0.6091    1.3005   -1.6626 H   0  0  0  0  0  0  0  0  0  0  0  0
   -3.0192    0.4922   -0.7795 H   0  0  0  0  0  0  0  0  0  0  0  0
   -2.7378   -0.9688   -3.2818 H   0  0  0  0  0  0  0  0  0  0  0  0
   -2.0279    0.6840   -3.2622 H   0  0  0  0  0  0  0  0  0  0  0  0
    0.1577   -0.8484   -3.0848 H   0  0  0  0  0  0  0  0  0  0  0  0
   -0.2414   -2.7751   -1.2285 H   0  0  0  0  0  0  0  0  0  0  0  0
   -2.3254   -1.8914    0.2832 H   0  0  0  0  0  0  0  0  0  0  0  0
  1  2  1  0
  2  3  1  0
  3  4  1  0
  4  5  1  0
  5  6  1  0
  6  7  1  0
  7  8  1  0
  8  9  1  0
  6  3  1  0
  9  7  1  0
  9  4  1  0
  1 10  1  0
  2 11  1  0
  2 12  1  0
  3 13  1  0
  4 14  1  0
  5 15  1  0
  5 16  1  0
  6 17  1  0
  7 18  1  0
  9 19  1  0
M  END
$$$$
