
     RDKit          3D

 19 20  0  0  0  0  0  0  0  0999 V2000
    1.1736   -0.3519    0.0038 O   0  0  0  0  0  0  0  0  0  0  0  0
    0.4647    0.1514    0.8396 C   0  0  0  0  0  0  0  0  0  0  0  0
   -0.3380    1.4051    0.6380 C   0  0  0  0  0  0  0  0  0  0  0  0
   -1.8685    1.1862    0.3612 C   0  0  0  0  0  0  0  0  0  0  0  0
   -1.7784    2.2846   -0.7390 C   0  0  0  0  0  0  0  0  0  0  0  0
   -0.2297    2.1388   -0.7183 C   0  0  0  0  0  0  0  0  0  0  0  0
   -2.4911    2.0425   -2.0369 C   0  0  0  0  0  0  0  0  0  0  0  0
   -2.9635    3.1392   -2.8923 C   0  0  0  0  0  0  0  0  0  0  0  0
   -3.8783    2.3930   -2.0889 O   0  0  0  0  0  0  0  0  0  0  0  0
    0.3321   -0.3285    1.8372 H   0  0  0  0  0  0  0  0  0  0  0  0
   -0.1989    2.0644    1.5017 H   0  0  0  0  0  0  0  0  0  0  0  0
   -2.0628    0.1985   -0.0686 H   0  0  0  0  0  0  0  0  0  0  0  0
   -2.5601    1.3534    1.1882 H   0  0  0  0  0  0  0  0  0  0  0  0
   -2.0907    3.2525   -0.3355 H   0  0  0  0  0  0  0  0  0  0  0  0
    0.1374    1.4535   -1.4876 H   0  0  0  0  0  0  0  0  0  0  0  0
    0.3620    3.0553   -0.7519 H   0  0  0  0  0  0  0  0  0  0  0  0
   -2.2597    1.0903   -2.5203 H   0  0  0  0  0  0  0  0  0  0  0  0
   -2.8016    4.1705   -2.5802 H   0  0  0  0  0  0  0  0  0  0  0  0
   -3.0518    2.9893   -3.9674 H   0  0  0  0  0  0  0  0  0  0  0  0
  1  2  2  0
  2  3  1  0
  3  4  1  0
  4  5  1  0
  5  6  1  0
  5  7  1  0
  7  8  1  0
  8  9  1  0
  6  3  1  0
  9  7  1  0
  2 10  1  0
  3 11  1  0
  4 12  1  0
  4 13  1  0
  5 14  1  0
  6 15  1  0
  6 16  1  0
  7 17  1  0
  8 18  1  0
  8 19  1  0
M  END
$$$$
