
     RDKit          3D

 19 21  0  0  0  0  0  0  0  0999 V2000
    1.6387    0.1797   -0.0144 C   0  0  0  0  0  0  0  0  0  0  0  0
    0.2251    0.0485    0.0447 O   0  0  0  0  0  0  0  0  0  0  0  0
   -0.3402    0.7071    1.1074 C   0  0  0  0  0  0  0  0  0  0  0  0
   -0.4790    2.2160    1.3410 C   0  0  0  0  0  0  0  0  0  0  0  0
   -1.4948    1.7857    2.4319 C   0  0  0  0  0  0  0  0  0  0  0  0
   -0.6757    1.1371    3.4467 O   0  0  0  0  0  0  0  0  0  0  0  0
   -0.5126    0.0631    2.5107 C   0  0  0  0  0  0  0  0  0  0  0  0
    0.0591   -1.2374    2.9564 C   0  0  0  0  0  0  0  0  0  0  0  0
   -1.7150    0.4212    1.6851 C   0  0  0  0  0  0  0  0  0  0  0  0
    2.1178   -0.2081    0.8941 H   0  0  0  0  0  0  0  0  0  0  0  0
    1.9747   -0.4002   -0.8764 H   0  0  0  0  0  0  0  0  0  0  0  0
    1.9384    1.2277   -0.1495 H   0  0  0  0  0  0  0  0  0  0  0  0
    0.3807    2.8006    1.6826 H   0  0  0  0  0  0  0  0  0  0  0  0
   -0.9737    2.7000    0.4946 H   0  0  0  0  0  0  0  0  0  0  0  0
   -2.2472    2.4585    2.8361 H   0  0  0  0  0  0  0  0  0  0  0  0
    1.0522   -1.0927    3.3958 H   0  0  0  0  0  0  0  0  0  0  0  0
   -0.5780   -1.7164    3.7066 H   0  0  0  0  0  0  0  0  0  0  0  0
    0.1555   -1.9101    2.0993 H   0  0  0  0  0  0  0  0  0  0  0  0
   -2.5750   -0.1245    1.3222 H   0  0  0  0  0  0  0  0  0  0  0  0
  1  2  1  0
  2  3  1  0
  3  4  1  0
  4  5  1  0
  5  6  1  0
  6  7  1  0
  7  8  1  0
  7  9  1  0
  7  3  1  0
  9  3  1  0
  9  5  1  0
  1 10  1  0
  1 11  1  0
  1 12  1  0
  4 13  1  0
  4 14  1  0
  5 15  1  0
  8 16  1  0
  8 17  1  0
  8 18  1  0
  9 19  1  0
M  END
$$$$
