gdb 482	3.4759521	1.3343516	1.2988738	2.2029	75.08	-0.2122	0.06422	0.27642	1069.6706	0.15847	-422.513316	-422.505579	-422.504634	-422.545869	29.312
 OpenBabel02181911403D

 19 21  0  0  1  0  0  0  0  0999 V2000
    1.8607    2.8120   -0.3113 C   0  0  0  0  0  0  0  0  0  0  0  0
    2.5007    1.8216    0.6864 C   0  0  0  0  0  0  0  0  0  0  0  0
    1.4110    0.8753    0.1957 C   0  0  1  0  0  0  0  0  0  0  0  0
    0.8900    1.8257   -0.7373 O   0  0  0  0  0  0  0  0  0  0  0  0
    1.5033   -0.6009   -0.0787 C   0  0  2  0  0  0  0  0  0  0  0  0
    0.5736   -1.1624   -1.1466 C   0  0  0  0  0  0  0  0  0  0  0  0
   -0.8074   -0.5802   -0.7686 C   0  0  0  0  0  0  0  0  0  0  0  0
   -0.7651   -0.2848    0.6327 O   0  0  0  0  0  0  0  0  0  0  0  0
    0.5667   -0.0693    0.9999 C   0  0  2  0  0  0  0  0  0  0  0  0
    1.3756    3.6866    0.1360 H   0  0  0  0  0  0  0  0  0  0  0  0
    2.4977    3.1356   -1.1415 H   0  0  0  0  0  0  0  0  0  0  0  0
    3.5224    1.5181    0.4480 H   0  0  0  0  0  0  0  0  0  0  0  0
    2.4418    2.1048    1.7393 H   0  0  0  0  0  0  0  0  0  0  0  0
    2.4248   -1.1288    0.1460 H   0  0  0  0  0  0  0  0  0  0  0  0
    0.8575   -0.8748   -2.1627 H   0  0  0  0  0  0  0  0  0  0  0  0
    0.5784   -2.2555   -1.0876 H   0  0  0  0  0  0  0  0  0  0  0  0
   -0.9962    0.3395   -1.3316 H   0  0  0  0  0  0  0  0  0  0  0  0
   -1.6327   -1.2781   -0.9350 H   0  0  0  0  0  0  0  0  0  0  0  0
    0.7252   -0.1869    2.0675 H   0  0  0  0  0  0  0  0  0  0  0  0
  1 10  1  0  0  0  0
  1  2  1  0  0  0  0
  2 13  1  0  0  0  0
  3  4  1  6  0  0  0
  3  2  1  0  0  0  0
  3  9  1  0  0  0  0
  4  1  1  0  0  0  0
  5 14  1  1  0  0  0
  5  3  1  0  0  0  0
  5  9  1  0  0  0  0
  6 16  1  0  0  0  0
  6  7  1  0  0  0  0
  6  5  1  0  0  0  0
  7  8  1  0  0  0  0
  8  9  1  0  0  0  0
  9 19  1  1  0  0  0
 11  1  1  0  0  0  0
 12  2  1  0  0  0  0
 15  6  1  0  0  0  0
 17  7  1  0  0  0  0
 18  7  1  0  0  0  0
M TOR 0 0 1 2 3
M TOR 1 0 1 2 4
M TOR 2 0 1 2 8
M TOR 3 0 3 2 4
M TOR 4 0 3 2 8
M TOR 5 1 2 4 5
M TOR 6 1 2 4 8
M TOR 7 1 2 4 13
M TOR 8 1 2 8 7
M TOR 9 1 2 8 18
M TOR 10 2 1 0 9
M TOR 11 2 1 0 10
M TOR 12 2 3 0 9
M TOR 13 2 3 0 10
M TOR 14 2 4 5 6
M TOR 15 2 4 5 14
M TOR 16 2 4 5 15
M TOR 17 2 4 8 7
M TOR 18 2 4 8 18
M TOR 19 2 8 4 5
M TOR 20 2 8 4 13
M TOR 21 2 8 7 6
M TOR 22 3 0 1 11
M TOR 23 3 0 1 12
M TOR 24 3 2 1 11
M TOR 25 3 2 1 12
M TOR 26 3 2 4 5
M TOR 27 3 2 4 8
M TOR 28 3 2 4 13
M TOR 29 3 2 8 7
M TOR 30 3 2 8 18
M TOR 31 4 2 1 11
M TOR 32 4 2 1 12
M TOR 33 4 5 6 7
M TOR 34 4 5 6 16
M TOR 35 4 5 6 17
M TOR 36 4 8 7 6
M TOR 37 5 4 8 7
M TOR 38 5 4 8 18
M TOR 39 5 6 7 8
M TOR 40 6 5 4 8
M TOR 41 6 5 4 13
M TOR 42 6 7 8 18
M TOR 43 7 6 5 14
M TOR 44 7 6 5 15
M TOR 45 7 8 4 13
M TOR 46 8 2 1 11
M TOR 47 8 2 1 12
M TOR 48 8 4 5 14
M TOR 49 8 4 5 15
M TOR 50 8 7 6 16
M TOR 51 8 7 6 17
M  END
$$$$
