gdb 3620	2.2798246	1.323442	0.9243325	2.8835	76.74	-0.24636	-0.03684	0.20951999999999998	1284.2971	0.155644	-422.606008	-422.59695	-422.596006	-422.640379	32.886
 OpenBabel02181911413D

 19 19  0  0  1  0  0  0  0  0999 V2000
   -2.5319   -1.4715   -2.1066 C   0  0  0  0  0  0  0  0  0  0  0  0
   -2.0149   -0.7523   -0.8633 C   0  0  2  0  0  0  0  0  0  0  0  0
   -1.9717    0.7889   -1.0016 C   0  0  0  0  0  0  0  0  0  0  0  0
   -1.0054    1.2685    0.0849 C   0  0  2  0  0  0  0  0  0  0  0  0
   -0.1513    2.4738   -0.2629 C   0  0  0  0  0  0  0  0  0  0  0  0
   -0.2277    3.0812   -1.2992 O   0  0  0  0  0  0  0  0  0  0  0  0
   -0.0995    0.0474    0.3998 C   0  0  0  0  0  0  0  0  0  0  0  0
    0.8054    0.0502    1.1914 O   0  0  0  0  0  0  0  0  0  0  0  0
   -0.5750   -1.1161   -0.4627 C   0  0  0  0  0  0  0  0  0  0  0  0
   -2.5505   -2.5567   -1.9634 H   0  0  0  0  0  0  0  0  0  0  0  0
   -3.5494   -1.1497   -2.3522 H   0  0  0  0  0  0  0  0  0  0  0  0
   -1.8960   -1.2577   -2.9733 H   0  0  0  0  0  0  0  0  0  0  0  0
   -2.6705   -1.0004   -0.0170 H   0  0  0  0  0  0  0  0  0  0  0  0
   -1.5705    1.0731   -1.9811 H   0  0  0  0  0  0  0  0  0  0  0  0
   -2.9627    1.2417   -0.9203 H   0  0  0  0  0  0  0  0  0  0  0  0
   -1.5090    1.5075    1.0327 H   0  0  0  0  0  0  0  0  0  0  0  0
    0.5833    2.7461    0.5228 H   0  0  0  0  0  0  0  0  0  0  0  0
    0.0713   -1.1442   -1.3531 H   0  0  0  0  0  0  0  0  0  0  0  0
   -0.4547   -2.0693    0.0568 H   0  0  0  0  0  0  0  0  0  0  0  0
  1 10  1  0  0  0  0
  1  2  1  0  0  0  0
  2  9  1  0  0  0  0
  2 13  1  1  0  0  0
  3 15  1  0  0  0  0
  3  2  1  0  0  0  0
  3  4  1  0  0  0  0
  4  7  1  0  0  0  0
  4 16  1  1  0  0  0
  5  4  1  0  0  0  0
  5 17  1  0  0  0  0
  6  5  2  0  0  0  0
  7  8  2  0  0  0  0
  9 19  1  0  0  0  0
  9  7  1  0  0  0  0
 11  1  1  0  0  0  0
 12  1  1  0  0  0  0
 14  3  1  0  0  0  0
 18  9  1  0  0  0  0
M TOR 0 0 1 2 3
M TOR 1 0 1 2 13
M TOR 2 0 1 2 14
M TOR 3 0 1 8 6
M TOR 4 0 1 8 17
M TOR 5 0 1 8 18
M TOR 6 1 2 3 4
M TOR 7 1 2 3 6
M TOR 8 1 2 3 15
M TOR 9 1 8 6 3
M TOR 10 1 8 6 7
M TOR 11 2 1 0 9
M TOR 12 2 1 0 10
M TOR 13 2 1 0 11
M TOR 14 2 1 8 6
M TOR 15 2 1 8 17
M TOR 16 2 1 8 18
M TOR 17 2 3 4 5
M TOR 18 2 3 4 16
M TOR 19 2 3 6 7
M TOR 20 2 3 6 8
M TOR 21 3 2 1 8
M TOR 22 3 2 1 12
M TOR 23 3 6 8 17
M TOR 24 3 6 8 18
M TOR 25 4 3 2 13
M TOR 26 4 3 2 14
M TOR 27 4 3 6 7
M TOR 28 4 3 6 8
M TOR 29 5 4 3 6
M TOR 30 5 4 3 15
M TOR 31 6 3 2 13
M TOR 32 6 3 2 14
M TOR 33 6 3 4 16
M TOR 34 6 8 1 12
M TOR 35 7 6 3 15
M TOR 36 7 6 8 17
M TOR 37 7 6 8 18
M TOR 38 8 1 0 9
M TOR 39 8 1 0 10
M TOR 40 8 1 0 11
M TOR 41 8 1 2 13
M TOR 42 8 1 2 14
M TOR 43 8 6 3 15
M  END
$$$$
