gdb 926	5.7440072	0.7078924	0.6813568	1.6737	77.25	-0.25131	-0.02522	0.22608999999999999	1625.1259	0.154976	-422.530092	-422.521076	-422.520132	-422.565111	32.413
 OpenBabel02181911403D

 19 20  0  0  1  0  0  0  0  0999 V2000
    1.5442   -0.0858    0.2534 O   0  0  0  0  0  0  0  0  0  0  0  0
    0.3637    0.0452    0.0550 C   0  0  0  0  0  0  0  0  0  0  0  0
   -0.2399    0.7843   -1.1187 C   0  0  0  0  0  0  0  0  0  0  0  0
   -1.1370    1.9401   -0.6688 C   0  0  1  0  0  0  0  0  0  0  0  0
   -1.9445    2.7011   -1.7664 C   0  0  0  0  0  0  0  0  0  0  0  0
   -3.1328    2.6955   -0.8028 C   0  0  1  0  0  0  0  0  0  0  0  0
   -3.9823    3.8122   -0.3871 C   0  0  0  0  0  0  0  0  0  0  0  0
   -4.4916    2.7285   -1.1819 O   0  0  0  0  0  0  0  0  0  0  0  0
   -2.4817    1.6137    0.0605 C   0  0  0  0  0  0  0  0  0  0  0  0
   -0.3833   -0.3820    0.7644 H   0  0  0  0  0  0  0  0  0  0  0  0
    0.5735    1.1398   -1.7588 H   0  0  0  0  0  0  0  0  0  0  0  0
   -0.8440    0.0682   -1.6949 H   0  0  0  0  0  0  0  0  0  0  0  0
   -0.5509    2.6493   -0.0761 H   0  0  0  0  0  0  0  0  0  0  0  0
   -1.5599    3.6653   -2.1063 H   0  0  0  0  0  0  0  0  0  0  0  0
   -2.1413    2.0681   -2.6381 H   0  0  0  0  0  0  0  0  0  0  0  0
   -4.3595    3.8573    0.6339 H   0  0  0  0  0  0  0  0  0  0  0  0
   -3.9095    4.7707   -0.8998 H   0  0  0  0  0  0  0  0  0  0  0  0
   -2.5208    1.7290    1.1460 H   0  0  0  0  0  0  0  0  0  0  0  0
   -2.8618    0.6213   -0.2055 H   0  0  0  0  0  0  0  0  0  0  0  0
  2  1  2  0  0  0  0
  2 10  1  0  0  0  0
  3  4  1  0  0  0  0
  3  2  1  0  0  0  0
  4 13  1  1  0  0  0
  4  9  1  0  0  0  0
  5  6  1  0  0  0  0
  5  4  1  0  0  0  0
  6  8  1  6  0  0  0
  6  7  1  0  0  0  0
  6  9  1  0  0  0  0
  7 16  1  0  0  0  0
  8  7  1  0  0  0  0
  9 18  1  0  0  0  0
 11  3  1  0  0  0  0
 12  3  1  0  0  0  0
 14  5  1  0  0  0  0
 15  5  1  0  0  0  0
 17  7  1  0  0  0  0
 19  9  1  0  0  0  0
M TOR 0 0 1 2 3
M TOR 1 0 1 2 10
M TOR 2 0 1 2 11
M TOR 3 1 2 3 4
M TOR 4 1 2 3 8
M TOR 5 1 2 3 12
M TOR 6 2 3 4 5
M TOR 7 2 3 4 13
M TOR 8 2 3 4 14
M TOR 9 2 3 8 5
M TOR 10 2 3 8 17
M TOR 11 2 3 8 18
M TOR 12 3 2 1 9
M TOR 13 3 4 5 6
M TOR 14 3 4 5 7
M TOR 15 3 4 5 8
M TOR 16 3 8 5 6
M TOR 17 3 8 5 7
M TOR 18 4 3 2 10
M TOR 19 4 3 2 11
M TOR 20 4 3 8 17
M TOR 21 4 3 8 18
M TOR 22 4 5 6 7
M TOR 23 4 5 6 15
M TOR 24 4 5 6 16
M TOR 25 4 5 8 17
M TOR 26 4 5 8 18
M TOR 27 5 4 3 12
M TOR 28 5 7 6 15
M TOR 29 5 7 6 16
M TOR 30 5 8 3 12
M TOR 31 6 5 4 13
M TOR 32 6 5 4 14
M TOR 33 6 5 8 17
M TOR 34 6 5 8 18
M TOR 35 6 7 5 8
M TOR 36 7 5 4 13
M TOR 37 7 5 4 14
M TOR 38 7 5 8 17
M TOR 39 7 5 8 18
M TOR 40 8 3 2 10
M TOR 41 8 3 2 11
M TOR 42 8 3 4 13
M TOR 43 8 3 4 14
M TOR 44 8 5 4 13
M TOR 45 8 5 4 14
M TOR 46 8 5 6 15
M TOR 47 8 5 6 16
M  END
$$$$
