
     RDKit          3D

 19 20  0  0  0  0  0  0  0  0999 V2000
    0.1069    1.4208   -0.0962 O   0  0  0  0  0  0  0  0  0  0  0  0
    0.0576    0.0051   -0.0259 C   0  0  0  0  0  0  0  0  0  0  0  0
   -1.3881   -0.5804    0.0507 C   0  0  0  0  0  0  0  0  0  0  0  0
   -1.2264   -1.8490    0.8932 C   0  0  0  0  0  0  0  0  0  0  0  0
   -2.2263   -2.0868    1.8811 O   0  0  0  0  0  0  0  0  0  0  0  0
   -1.5882   -2.8321    2.9207 C   0  0  0  0  0  0  0  0  0  0  0  0
   -0.0823   -2.4027    2.9575 C   0  0  0  0  0  0  0  0  0  0  0  0
    0.0130   -1.5835    1.7063 C   0  0  0  0  0  0  0  0  0  0  0  0
    0.7231   -0.5727    1.2150 C   0  0  0  0  0  0  0  0  0  0  0  0
   -0.2897    1.7620    0.7136 H   0  0  0  0  0  0  0  0  0  0  0  0
    0.5605   -0.3207   -0.9453 H   0  0  0  0  0  0  0  0  0  0  0  0
   -2.0169    0.1221    0.6090 H   0  0  0  0  0  0  0  0  0  0  0  0
   -1.8406   -0.7405   -0.9301 H   0  0  0  0  0  0  0  0  0  0  0  0
   -1.1174   -2.7451    0.2561 H   0  0  0  0  0  0  0  0  0  0  0  0
   -2.1173   -2.6191    3.8528 H   0  0  0  0  0  0  0  0  0  0  0  0
   -1.6690   -3.9107    2.7194 H   0  0  0  0  0  0  0  0  0  0  0  0
    0.1639   -1.8200    3.8494 H   0  0  0  0  0  0  0  0  0  0  0  0
    0.5758   -3.2781    2.9480 H   0  0  0  0  0  0  0  0  0  0  0  0
    1.6357   -0.1472    1.6177 H   0  0  0  0  0  0  0  0  0  0  0  0
  1  2  1  0
  2  3  1  0
  3  4  1  0
  4  5  1  0
  5  6  1  0
  6  7  1  0
  7  8  1  0
  8  9  2  0
  9  2  1  0
  8  4  1  0
  1 10  1  0
  2 11  1  0
  3 12  1  0
  3 13  1  0
  4 14  1  0
  6 15  1  0
  6 16  1  0
  7 17  1  0
  7 18  1  0
  9 19  1  0
M  END
$$$$
