gdb 1348	2.7305724	1.1602529	0.8594578	3.9854	76.57	-0.24473	-0.0313	0.21343	1334.2486	0.154263	-422.575438	-422.565825	-422.56488	-422.610689	33.912
 OpenBabel02181911403D

 19 19  0  0  1  0  0  0  0  0999 V2000
   -2.5076   -2.3801    1.4699 C   0  0  0  0  0  0  0  0  0  0  0  0
   -1.0732   -2.0946    1.0231 C   0  0  2  0  0  0  0  0  0  0  0  0
   -0.2341   -1.4914    2.1442 C   0  0  0  0  0  0  0  0  0  0  0  0
   -0.6535   -1.2645    3.2513 O   0  0  0  0  0  0  0  0  0  0  0  0
   -1.0064   -1.1837   -0.2145 C   0  0  2  0  0  0  0  0  0  0  0  0
   -1.6144   -1.6622   -1.5750 C   0  0  0  0  0  0  0  0  0  0  0  0
   -0.3455   -1.1642   -2.3298 C   0  0  0  0  0  0  0  0  0  0  0  0
    0.3355   -1.0343   -0.9605 C   0  0  0  0  0  0  0  0  0  0  0  0
    1.4763   -0.9845   -0.5979 O   0  0  0  0  0  0  0  0  0  0  0  0
   -2.5163   -3.0327    2.3460 H   0  0  0  0  0  0  0  0  0  0  0  0
   -3.0178   -1.4537    1.7497 H   0  0  0  0  0  0  0  0  0  0  0  0
   -3.0780   -2.8617    0.6707 H   0  0  0  0  0  0  0  0  0  0  0  0
   -0.5699   -3.0380    0.7556 H   0  0  0  0  0  0  0  0  0  0  0  0
    0.8147   -1.2652    1.8620 H   0  0  0  0  0  0  0  0  0  0  0  0
   -1.3890   -0.1851    0.0370 H   0  0  0  0  0  0  0  0  0  0  0  0
   -1.7146   -2.7497   -1.6141 H   0  0  0  0  0  0  0  0  0  0  0  0
   -2.5622   -1.2082   -1.8642 H   0  0  0  0  0  0  0  0  0  0  0  0
    0.1345   -1.8348   -3.0460 H   0  0  0  0  0  0  0  0  0  0  0  0
   -0.4805   -0.1865   -2.8038 H   0  0  0  0  0  0  0  0  0  0  0  0
  1 11  1  0  0  0  0
  1 10  1  0  0  0  0
  2 13  1  6  0  0  0
  2  1  1  0  0  0  0
  2  3  1  0  0  0  0
  3  4  2  0  0  0  0
  5 15  1  1  0  0  0
  5  2  1  0  0  0  0
  6  5  1  0  0  0  0
  7  6  1  0  0  0  0
  7  8  1  0  0  0  0
  8  9  2  0  0  0  0
  8  5  1  0  0  0  0
 12  1  1  0  0  0  0
 14  3  1  0  0  0  0
 16  6  1  0  0  0  0
 17  6  1  0  0  0  0
 18  7  1  0  0  0  0
 19  7  1  0  0  0  0
M TOR 0 0 1 2 3
M TOR 1 0 1 2 13
M TOR 2 0 1 4 5
M TOR 3 0 1 4 7
M TOR 4 0 1 4 14
M TOR 5 1 4 5 6
M TOR 6 1 4 5 15
M TOR 7 1 4 5 16
M TOR 8 1 4 7 6
M TOR 9 1 4 7 8
M TOR 10 2 1 0 9
M TOR 11 2 1 0 10
M TOR 12 2 1 0 11
M TOR 13 2 1 4 5
M TOR 14 2 1 4 7
M TOR 15 2 1 4 14
M TOR 16 3 2 1 4
M TOR 17 3 2 1 12
M TOR 18 4 1 0 9
M TOR 19 4 1 0 10
M TOR 20 4 1 0 11
M TOR 21 4 1 2 13
M TOR 22 4 5 6 7
M TOR 23 4 5 6 17
M TOR 24 4 5 6 18
M TOR 25 4 7 6 17
M TOR 26 4 7 6 18
M TOR 27 5 4 1 12
M TOR 28 5 4 7 8
M TOR 29 5 6 7 8
M TOR 30 6 5 4 14
M TOR 31 6 7 4 14
M TOR 32 7 4 1 12
M TOR 33 7 4 5 15
M TOR 34 7 4 5 16
M TOR 35 7 6 5 15
M TOR 36 7 6 5 16
M TOR 37 8 7 4 14
M TOR 38 8 7 6 17
M TOR 39 8 7 6 18
M  END
$$$$
