gdb 820	3.5428868	1.0432917	0.9342063	3.8311	77.75	-0.24549	-0.01534	0.23015000000000002	1285.9671	0.158366	-422.55924	-422.551196	-422.550252	-422.592129	30.31
 OpenBabel02181911403D

 19 20  0  0  1  0  0  0  0  0999 V2000
    0.8809   -0.9992   -0.2099 O   0  0  0  0  0  0  0  0  0  0  0  0
    0.4447    0.0780    0.1132 C   0  0  0  0  0  0  0  0  0  0  0  0
    0.2036    1.2107   -0.8016 C   0  0  1  0  0  0  0  0  0  0  0  0
   -0.9682    2.1471   -0.4961 C   0  0  2  0  0  0  0  0  0  0  0  0
   -1.7776    2.7032   -1.6658 C   0  0  0  0  0  0  0  0  0  0  0  0
   -1.0700    3.9008   -2.3117 C   0  0  0  0  0  0  0  0  0  0  0  0
    0.3186    3.6589   -2.4817 O   0  0  0  0  0  0  0  0  0  0  0  0
    0.9993    3.6523   -1.2417 C   0  0  0  0  0  0  0  0  0  0  0  0
    0.4349    2.6218   -0.2810 C   0  0  2  0  0  0  0  0  0  0  0  0
    0.1812    0.2960    1.1781 H   0  0  0  0  0  0  0  0  0  0  0  0
    0.4275    1.0281   -1.8474 H   0  0  0  0  0  0  0  0  0  0  0  0
   -1.5360    1.8907    0.3935 H   0  0  0  0  0  0  0  0  0  0  0  0
   -1.9429    1.9215   -2.4147 H   0  0  0  0  0  0  0  0  0  0  0  0
   -2.7661    3.0193   -1.3157 H   0  0  0  0  0  0  0  0  0  0  0  0
   -1.4731    4.1061   -3.3069 H   0  0  0  0  0  0  0  0  0  0  0  0
   -1.2134    4.8029   -1.6942 H   0  0  0  0  0  0  0  0  0  0  0  0
    2.0504    3.4474   -1.4679 H   0  0  0  0  0  0  0  0  0  0  0  0
    0.9401    4.6502   -0.7735 H   0  0  0  0  0  0  0  0  0  0  0  0
    0.7869    2.7118    0.7434 H   0  0  0  0  0  0  0  0  0  0  0  0
  1  2  2  0  0  0  0
  2 10  1  0  0  0  0
  3 11  1  6  0  0  0
  3  4  1  0  0  0  0
  3  9  1  0  0  0  0
  3  2  1  0  0  0  0
  4  9  1  0  0  0  0
  4 12  1  1  0  0  0
  5 14  1  0  0  0  0
  5  4  1  0  0  0  0
  6 16  1  0  0  0  0
  6  5  1  0  0  0  0
  7  6  1  0  0  0  0
  7  8  1  0  0  0  0
  8 18  1  0  0  0  0
  8  9  1  0  0  0  0
  9 19  1  1  0  0  0
 13  5  1  0  0  0  0
 15  6  1  0  0  0  0
 17  8  1  0  0  0  0
M TOR 0 0 1 2 3
M TOR 1 0 1 2 8
M TOR 2 0 1 2 10
M TOR 3 1 2 3 4
M TOR 4 1 2 3 8
M TOR 5 1 2 3 11
M TOR 6 1 2 8 7
M TOR 7 1 2 8 18
M TOR 8 2 3 4 5
M TOR 9 2 3 4 12
M TOR 10 2 3 4 13
M TOR 11 2 3 8 7
M TOR 12 2 3 8 18
M TOR 13 2 8 3 4
M TOR 14 2 8 3 11
M TOR 15 2 8 7 6
M TOR 16 2 8 7 16
M TOR 17 2 8 7 17
M TOR 18 3 2 1 9
M TOR 19 3 4 5 6
M TOR 20 3 4 5 14
M TOR 21 3 4 5 15
M TOR 22 3 8 2 10
M TOR 23 3 8 7 6
M TOR 24 3 8 7 16
M TOR 25 3 8 7 17
M TOR 26 4 3 2 10
M TOR 27 4 3 8 7
M TOR 28 4 3 8 18
M TOR 29 4 5 6 7
M TOR 30 5 4 3 8
M TOR 31 5 4 3 11
M TOR 32 5 6 7 8
M TOR 33 5 6 7 16
M TOR 34 5 6 7 17
M TOR 35 6 5 4 12
M TOR 36 6 5 4 13
M TOR 37 6 7 8 18
M TOR 38 7 6 5 14
M TOR 39 7 6 5 15
M TOR 40 7 8 2 10
M TOR 41 7 8 3 11
M TOR 42 8 2 1 9
M TOR 43 8 3 4 12
M TOR 44 8 3 4 13
M  END
$$$$
