
     RDKit          3D

 19 21  0  0  0  0  0  0  0  0999 V2000
    1.1393    0.4398   -1.2381 C   0  0  0  0  0  0  0  0  0  0  0  0
    1.8242    1.0133    0.0266 C   0  0  0  0  0  0  0  0  0  0  0  0
    0.4787    1.1976    0.6170 O   0  0  0  0  0  0  0  0  0  0  0  0
    0.4553   -0.1556    0.0156 C   0  0  0  0  0  0  0  0  0  0  0  0
    1.8615   -0.4182    0.6422 C   0  0  0  0  0  0  0  0  0  0  0  0
    2.7942   -1.5322    0.1239 C   0  0  0  0  0  0  0  0  0  0  0  0
    3.6107   -1.9174    1.3676 C   0  0  0  0  0  0  0  0  0  0  0  0
    2.6110   -1.6129    2.4834 C   0  0  0  0  0  0  0  0  0  0  0  0
    1.9139   -0.4520    2.0487 O   0  0  0  0  0  0  0  0  0  0  0  0
    0.5229    1.1677   -1.7643 H   0  0  0  0  0  0  0  0  0  0  0  0
    1.6989   -0.2130   -1.9113 H   0  0  0  0  0  0  0  0  0  0  0  0
    2.5350    1.8345    0.1273 H   0  0  0  0  0  0  0  0  0  0  0  0
   -0.4673   -0.7313    0.1019 H   0  0  0  0  0  0  0  0  0  0  0  0
    2.2001   -2.3846   -0.2243 H   0  0  0  0  0  0  0  0  0  0  0  0
    3.4189   -1.2066   -0.7097 H   0  0  0  0  0  0  0  0  0  0  0  0
    3.9492   -2.9561    1.3602 H   0  0  0  0  0  0  0  0  0  0  0  0
    4.4889   -1.2713    1.4660 H   0  0  0  0  0  0  0  0  0  0  0  0
    1.9128   -2.4533    2.6265 H   0  0  0  0  0  0  0  0  0  0  0  0
    3.0727   -1.3853    3.4480 H   0  0  0  0  0  0  0  0  0  0  0  0
  1  2  1  0
  2  3  1  0
  3  4  1  0
  4  5  1  0
  5  6  1  0
  6  7  1  0
  7  8  1  0
  8  9  1  0
  4  1  1  0
  9  5  1  0
  5  2  1  0
  1 10  1  0
  1 11  1  0
  2 12  1  0
  4 13  1  0
  6 14  1  0
  6 15  1  0
  7 16  1  0
  7 17  1  0
  8 18  1  0
  8 19  1  0
M  END
$$$$
