
     RDKit          3D

 19 21  0  0  0  0  0  0  0  0999 V2000
    0.0875    0.3917   -0.0310 C   0  0  0  0  0  0  0  0  0  0  0  0
    1.0371   -0.7768   -0.0213 C   0  0  0  0  0  0  0  0  0  0  0  0
    2.2067   -0.6676    0.8155 O   0  0  0  0  0  0  0  0  0  0  0  0
    2.3837   -0.7141   -0.5904 C   0  0  0  0  0  0  0  0  0  0  0  0
    3.2471   -1.7786   -1.2897 C   0  0  0  0  0  0  0  0  0  0  0  0
    3.8624   -0.6599   -2.1760 C   0  0  0  0  0  0  0  0  0  0  0  0
    3.0109   -0.2295   -3.3852 C   0  0  0  0  0  0  0  0  0  0  0  0
    2.2667    0.7318   -2.5965 O   0  0  0  0  0  0  0  0  0  0  0  0
    3.0269    0.4120   -1.4127 C   0  0  0  0  0  0  0  0  0  0  0  0
   -0.5220    0.3995    0.8788 H   0  0  0  0  0  0  0  0  0  0  0  0
    0.6314    1.3370   -0.0915 H   0  0  0  0  0  0  0  0  0  0  0  0
   -0.5846    0.3260   -0.8923 H   0  0  0  0  0  0  0  0  0  0  0  0
    0.5692   -1.7624    0.0261 H   0  0  0  0  0  0  0  0  0  0  0  0
    3.9727   -2.2172   -0.5992 H   0  0  0  0  0  0  0  0  0  0  0  0
    2.7222   -2.5847   -1.8105 H   0  0  0  0  0  0  0  0  0  0  0  0
    4.9448   -0.6323   -2.2835 H   0  0  0  0  0  0  0  0  0  0  0  0
    3.5673    0.2692   -4.1880 H   0  0  0  0  0  0  0  0  0  0  0  0
    2.3650   -1.0010   -3.8239 H   0  0  0  0  0  0  0  0  0  0  0  0
    3.4091    1.2919   -0.8892 H   0  0  0  0  0  0  0  0  0  0  0  0
  1  2  1  0
  2  3  1  0
  3  4  1  0
  4  5  1  0
  5  6  1  0
  6  7  1  0
  7  8  1  0
  8  9  1  0
  4  2  1  0
  9  4  1  0
  9  6  1  0
  1 10  1  0
  1 11  1  0
  1 12  1  0
  2 13  1  0
  5 14  1  0
  5 15  1  0
  6 16  1  0
  7 17  1  0
  7 18  1  0
  9 19  1  0
M  END
$$$$
