
     RDKit          3D

 19 20  0  0  0  0  0  0  0  0999 V2000
    1.4719   -0.3945    0.7510 C   0  0  0  0  0  0  0  0  0  0  0  0
    0.0979   -0.2506    1.0270 O   0  0  0  0  0  0  0  0  0  0  0  0
   -0.4891    0.8348    0.3411 C   0  0  0  0  0  0  0  0  0  0  0  0
   -1.9502    0.8914    0.6839 C   0  0  0  0  0  0  0  0  0  0  0  0
   -2.7950   -0.3586    0.8977 C   0  0  0  0  0  0  0  0  0  0  0  0
   -2.7165    0.6238    2.0116 C   0  0  0  0  0  0  0  0  0  0  0  0
   -3.6894    1.7810    1.7347 C   0  0  0  0  0  0  0  0  0  0  0  0
   -2.8473    2.0702    0.4626 C   0  0  0  0  0  0  0  0  0  0  0  0
   -2.7824    3.0123   -0.2782 O   0  0  0  0  0  0  0  0  0  0  0  0
    2.0430    0.4979    1.0508 H   0  0  0  0  0  0  0  0  0  0  0  0
    1.8310   -1.2533    1.3228 H   0  0  0  0  0  0  0  0  0  0  0  0
    1.6552   -0.5758   -0.3195 H   0  0  0  0  0  0  0  0  0  0  0  0
    0.0010    1.7824    0.6216 H   0  0  0  0  0  0  0  0  0  0  0  0
   -0.3614    0.7204   -0.7490 H   0  0  0  0  0  0  0  0  0  0  0  0
   -3.7251   -0.4968    0.3524 H   0  0  0  0  0  0  0  0  0  0  0  0
   -2.1867   -1.2499    1.0028 H   0  0  0  0  0  0  0  0  0  0  0  0
   -2.2632    0.3973    2.9668 H   0  0  0  0  0  0  0  0  0  0  0  0
   -4.7435    1.5175    1.6065 H   0  0  0  0  0  0  0  0  0  0  0  0
   -3.6112    2.6230    2.4283 H   0  0  0  0  0  0  0  0  0  0  0  0
  1  2  1  0
  2  3  1  0
  3  4  1  0
  4  5  1  0
  5  6  1  0
  6  7  1  0
  7  8  1  0
  8  9  2  0
  6  4  1  0
  8  4  1  0
  1 10  1  0
  1 11  1  0
  1 12  1  0
  3 13  1  0
  3 14  1  0
  5 15  1  0
  5 16  1  0
  6 17  1  0
  7 18  1  0
  7 19  1  0
M  END
$$$$
