
     RDKit          3D

 19 21  0  0  0  0  0  0  0  0999 V2000
    0.2205    0.9829    0.6653 O   0  0  0  0  0  0  0  0  0  0  0  0
    0.4558    0.0225   -0.3699 C   0  0  0  0  0  0  0  0  0  0  0  0
   -0.4853    0.2298   -1.5239 C   0  0  0  0  0  0  0  0  0  0  0  0
   -0.5196    1.5585   -2.3409 C   0  0  0  0  0  0  0  0  0  0  0  0
   -2.0142    1.3054   -2.5130 C   0  0  0  0  0  0  0  0  0  0  0  0
   -2.1906   -0.2440   -2.6675 C   0  0  0  0  0  0  0  0  0  0  0  0
   -0.7943   -0.8619   -2.5933 C   0  0  0  0  0  0  0  0  0  0  0  0
   -2.0567    0.3826   -1.3200 C   0  0  0  0  0  0  0  0  0  0  0  0
   -2.8276    0.2685   -0.1951 O   0  0  0  0  0  0  0  0  0  0  0  0
    0.5438    1.8336    0.3528 H   0  0  0  0  0  0  0  0  0  0  0  0
    1.5080    0.0382   -0.6944 H   0  0  0  0  0  0  0  0  0  0  0  0
    0.2720   -0.9527    0.0938 H   0  0  0  0  0  0  0  0  0  0  0  0
   -0.3387    2.4388   -1.7144 H   0  0  0  0  0  0  0  0  0  0  0  0
    0.1198    1.6074   -3.2301 H   0  0  0  0  0  0  0  0  0  0  0  0
   -2.7798    1.9744   -2.8841 H   0  0  0  0  0  0  0  0  0  0  0  0
   -3.0831   -0.6383   -3.1355 H   0  0  0  0  0  0  0  0  0  0  0  0
   -0.8246   -1.8633   -2.1533 H   0  0  0  0  0  0  0  0  0  0  0  0
   -0.1679   -0.8730   -3.4927 H   0  0  0  0  0  0  0  0  0  0  0  0
   -2.4147    0.8208    0.4817 H   0  0  0  0  0  0  0  0  0  0  0  0
  1  2  1  0
  2  3  1  0
  3  4  1  0
  4  5  1  0
  5  6  1  0
  6  7  1  0
  6  8  1  0
  8  9  1  0
  7  3  1  0
  8  3  1  0
  8  5  1  0
  1 10  1  0
  2 11  1  0
  2 12  1  0
  4 13  1  0
  4 14  1  0
  5 15  1  0
  6 16  1  0
  7 17  1  0
  7 18  1  0
  9 19  1  0
M  END
$$$$
