
     RDKit          3D

 19 21  0  0  0  0  0  0  0  0999 V2000
    1.4252   -0.0564    0.0761 C   0  0  0  0  0  0  0  0  0  0  0  0
    0.0263   -0.1316    0.2338 O   0  0  0  0  0  0  0  0  0  0  0  0
   -0.4790    0.7550    1.2084 C   0  0  0  0  0  0  0  0  0  0  0  0
   -0.2716    0.2690    2.6442 C   0  0  0  0  0  0  0  0  0  0  0  0
   -1.5258    0.7247    3.4515 C   0  0  0  0  0  0  0  0  0  0  0  0
   -2.4223    1.5034    2.4884 C   0  0  0  0  0  0  0  0  0  0  0  0
   -1.9850    0.4753    1.4122 C   0  0  0  0  0  0  0  0  0  0  0  0
   -1.5658   -0.5077    2.6063 C   0  0  0  0  0  0  0  0  0  0  0  0
   -1.9081   -1.7855    2.9474 O   0  0  0  0  0  0  0  0  0  0  0  0
    1.9649   -0.3540    0.9875 H   0  0  0  0  0  0  0  0  0  0  0  0
    1.6981   -0.7401   -0.7316 H   0  0  0  0  0  0  0  0  0  0  0  0
    1.7484    0.9604   -0.1970 H   0  0  0  0  0  0  0  0  0  0  0  0
   -0.1906    1.7903    0.9643 H   0  0  0  0  0  0  0  0  0  0  0  0
    0.6479    0.0288    3.1623 H   0  0  0  0  0  0  0  0  0  0  0  0
   -1.4728    0.7849    4.5312 H   0  0  0  0  0  0  0  0  0  0  0  0
   -3.4777    1.3973    2.7526 H   0  0  0  0  0  0  0  0  0  0  0  0
   -2.1968    2.5577    2.2912 H   0  0  0  0  0  0  0  0  0  0  0  0
   -2.6011    0.2390    0.5478 H   0  0  0  0  0  0  0  0  0  0  0  0
   -1.4602   -2.3851    2.3388 H   0  0  0  0  0  0  0  0  0  0  0  0
  1  2  1  0
  2  3  1  0
  3  4  1  0
  4  5  1  0
  5  6  1  0
  6  7  1  0
  7  8  1  0
  8  9  1  0
  7  3  1  0
  8  4  1  0
  8  5  1  0
  1 10  1  0
  1 11  1  0
  1 12  1  0
  3 13  1  0
  4 14  1  0
  5 15  1  0
  6 16  1  0
  6 17  1  0
  7 18  1  0
  9 19  1  0
M  END
$$$$
