gdb 425	2.9551794	1.5572793	1.2097437	0.5987	78.48	-0.23025	0.01401	0.24426	1069.102	0.157857	-422.533172	-422.525309	-422.524365	-422.565314	30.883
 OpenBabel02181911403D

 19 20  0  0  0  0  0  0  0  0999 V2000
    0.6980    1.3657   -0.0797 C   0  0  0  0  0  0  0  0  0  0  0  0
    1.6063    0.1624   -0.1011 C   0  0  0  0  0  0  0  0  0  0  0  0
    0.1087   -0.0133    0.0674 C   0  0  0  0  0  0  0  0  0  0  0  0
   -0.6333   -0.4358   -1.0522 O   0  0  0  0  0  0  0  0  0  0  0  0
   -0.4425   -1.7717   -1.4464 C   0  0  0  0  0  0  0  0  0  0  0  0
   -0.5169   -2.6895   -0.3969 O   0  0  0  0  0  0  0  0  0  0  0  0
   -1.6031   -2.4835    0.5002 C   0  0  0  0  0  0  0  0  0  0  0  0
   -1.2728   -1.4622    1.5622 C   0  0  0  0  0  0  0  0  0  0  0  0
   -0.4679   -0.4170    1.3760 C   0  0  0  0  0  0  0  0  0  0  0  0
    0.7049    2.0126    0.7908 H   0  0  0  0  0  0  0  0  0  0  0  0
    0.5052    1.8649   -1.0217 H   0  0  0  0  0  0  0  0  0  0  0  0
    2.0277   -0.1289   -1.0569 H   0  0  0  0  0  0  0  0  0  0  0  0
    2.2428   -0.0357    0.7536 H   0  0  0  0  0  0  0  0  0  0  0  0
   -1.2259   -1.9421   -2.2003 H   0  0  0  0  0  0  0  0  0  0  0  0
    0.5494   -1.9312   -1.8916 H   0  0  0  0  0  0  0  0  0  0  0  0
   -2.5179   -2.2125   -0.0507 H   0  0  0  0  0  0  0  0  0  0  0  0
   -1.7863   -3.4542    0.9727 H   0  0  0  0  0  0  0  0  0  0  0  0
   -1.6966   -1.6392    2.5473 H   0  0  0  0  0  0  0  0  0  0  0  0
   -0.2269    0.2297    2.2163 H   0  0  0  0  0  0  0  0  0  0  0  0
  1  3  1  0  0  0  0
  1 10  1  0  0  0  0
  2  1  1  0  0  0  0
  2  3  1  0  0  0  0
  2 13  1  0  0  0  0
  3  9  1  0  0  0  0
  4  3  1  0  0  0  0
  5  4  1  0  0  0  0
  5  6  1  0  0  0  0
  6  7  1  0  0  0  0
  7 17  1  0  0  0  0
  7  8  1  0  0  0  0
  8 18  1  0  0  0  0
  9  8  2  0  0  0  0
  9 19  1  0  0  0  0
 11  1  1  0  0  0  0
 12  2  1  0  0  0  0
 14  5  1  0  0  0  0
 15  5  1  0  0  0  0
 16  7  1  0  0  0  0
M TOR 0 0 1 2 3
M TOR 1 0 1 2 8
M TOR 2 0 2 1 11
M TOR 3 0 2 1 12
M TOR 4 0 2 3 4
M TOR 5 0 2 8 7
M TOR 6 0 2 8 18
M TOR 7 1 2 0 9
M TOR 8 1 2 0 10
M TOR 9 1 2 3 4
M TOR 10 1 2 8 7
M TOR 11 1 2 8 18
M TOR 12 2 3 4 5
M TOR 13 2 3 4 13
M TOR 14 2 3 4 14
M TOR 15 2 8 7 6
M TOR 16 2 8 7 17
M TOR 17 3 2 0 9
M TOR 18 3 2 0 10
M TOR 19 3 2 1 11
M TOR 20 3 2 1 12
M TOR 21 3 2 8 7
M TOR 22 3 2 8 18
M TOR 23 3 4 5 6
M TOR 24 4 3 2 8
M TOR 25 4 5 6 7
M TOR 26 4 5 6 15
M TOR 27 4 5 6 16
M TOR 28 5 6 7 8
M TOR 29 5 6 7 17
M TOR 30 6 5 4 13
M TOR 31 6 5 4 14
M TOR 32 6 7 8 18
M TOR 33 8 2 0 9
M TOR 34 8 2 0 10
M TOR 35 8 2 1 11
M TOR 36 8 2 1 12
M TOR 37 8 7 6 15
M TOR 38 8 7 6 16
M  END
$$$$
