
     RDKit          3D

 19 20  0  0  0  0  0  0  0  0999 V2000
    1.0407    1.1691   -0.2325 C   0  0  0  0  0  0  0  0  0  0  0  0
    0.9078   -0.3127    0.0960 C   0  0  0  0  0  0  0  0  0  0  0  0
    1.5280   -1.2876   -0.9606 C   0  0  0  0  0  0  0  0  0  0  0  0
    2.6619   -1.5719    0.0218 C   0  0  0  0  0  0  0  0  0  0  0  0
    4.1042   -1.6670   -0.2039 C   0  0  0  0  0  0  0  0  0  0  0  0
    3.3241   -2.8136    0.1692 O   0  0  0  0  0  0  0  0  0  0  0  0
    1.9117   -0.8425    1.1617 C   0  0  0  0  0  0  0  0  0  0  0  0
    1.3396   -1.8006    2.1822 C   0  0  0  0  0  0  0  0  0  0  0  0
    0.1749   -2.0964    2.2703 O   0  0  0  0  0  0  0  0  0  0  0  0
    0.7404    1.7909    0.6177 H   0  0  0  0  0  0  0  0  0  0  0  0
    2.0732    1.4325   -0.4910 H   0  0  0  0  0  0  0  0  0  0  0  0
    0.4072    1.4386   -1.0840 H   0  0  0  0  0  0  0  0  0  0  0  0
   -0.1217   -0.5612    0.3595 H   0  0  0  0  0  0  0  0  0  0  0  0
    0.9130   -2.1736   -1.1387 H   0  0  0  0  0  0  0  0  0  0  0  0
    1.8131   -0.8514   -1.9217 H   0  0  0  0  0  0  0  0  0  0  0  0
    4.4904   -1.6809   -1.2224 H   0  0  0  0  0  0  0  0  0  0  0  0
    4.8000   -1.3087    0.5542 H   0  0  0  0  0  0  0  0  0  0  0  0
    2.5135   -0.0938    1.6916 H   0  0  0  0  0  0  0  0  0  0  0  0
    2.0954   -2.2446    2.8658 H   0  0  0  0  0  0  0  0  0  0  0  0
  1  2  1  0
  2  3  1  0
  3  4  1  0
  4  5  1  0
  5  6  1  0
  4  7  1  0
  7  8  1  0
  8  9  2  0
  7  2  1  0
  6  4  1  0
  1 10  1  0
  1 11  1  0
  1 12  1  0
  2 13  1  0
  3 14  1  0
  3 15  1  0
  5 16  1  0
  5 17  1  0
  7 18  1  0
  8 19  1  0
M  END
$$$$
