
     RDKit          3D

 19 20  0  0  0  0  0  0  0  0999 V2000
    1.3761   -0.6051   -1.1711 C   0  0  0  0  0  0  0  0  0  0  0  0
    1.0381    0.1710    0.0844 C   0  0  0  0  0  0  0  0  0  0  0  0
    1.8505    1.3928    0.3923 C   0  0  0  0  0  0  0  0  0  0  0  0
    1.2718    2.1361    1.4725 O   0  0  0  0  0  0  0  0  0  0  0  0
    1.5069    1.0326    2.3760 C   0  0  0  0  0  0  0  0  0  0  0  0
    0.2773    0.5426    3.1081 C   0  0  0  0  0  0  0  0  0  0  0  0
    0.3358   -0.1885    4.0640 O   0  0  0  0  0  0  0  0  0  0  0  0
    2.0471    0.1465    1.2337 C   0  0  0  0  0  0  0  0  0  0  0  0
    3.1576   -0.8439    1.4238 C   0  0  0  0  0  0  0  0  0  0  0  0
    1.1747   -1.6747   -1.0498 H   0  0  0  0  0  0  0  0  0  0  0  0
    0.7781   -0.2433   -2.0134 H   0  0  0  0  0  0  0  0  0  0  0  0
    2.4297   -0.4959   -1.4473 H   0  0  0  0  0  0  0  0  0  0  0  0
   -0.0239    0.2150    0.3156 H   0  0  0  0  0  0  0  0  0  0  0  0
    2.4882    1.9232   -0.3065 H   0  0  0  0  0  0  0  0  0  0  0  0
    2.2899    1.2773    3.1044 H   0  0  0  0  0  0  0  0  0  0  0  0
   -0.6905    0.8867    2.6818 H   0  0  0  0  0  0  0  0  0  0  0  0
    2.8230   -1.6796    2.0494 H   0  0  0  0  0  0  0  0  0  0  0  0
    3.5001   -1.2605    0.4734 H   0  0  0  0  0  0  0  0  0  0  0  0
    4.0190   -0.3832    1.9196 H   0  0  0  0  0  0  0  0  0  0  0  0
  1  2  1  0
  2  3  1  0
  3  4  1  0
  4  5  1  0
  5  6  1  0
  6  7  2  0
  5  8  1  0
  8  9  1  0
  8  2  1  0
  8  3  1  0
  1 10  1  0
  1 11  1  0
  1 12  1  0
  2 13  1  0
  3 14  1  0
  5 15  1  0
  6 16  1  0
  9 17  1  0
  9 18  1  0
  9 19  1  0
M  END
$$$$
