gdb 1365	3.3324237	0.8884439	0.8606147	1.765	77.52	-0.26041	0.02603	0.28644	1421.6691	0.152887	-422.501417	-422.491153	-422.490209	-422.537014	37.037
 OpenBabel02181911403D

 19 19  0  0  1  0  0  0  0  0999 V2000
    2.7839   -2.0633   -0.6688 C   0  0  0  0  0  0  0  0  0  0  0  0
    3.0517   -2.3376   -2.1334 C   0  0  2  0  0  0  0  0  0  0  0  0
    3.3988   -1.1448   -3.0089 C   0  0  0  0  0  0  0  0  0  0  0  0
    2.2168   -0.1756   -3.2375 C   0  0  2  0  0  0  0  0  0  0  0  0
    1.1265   -0.8126   -3.8999 O   0  0  0  0  0  0  0  0  0  0  0  0
    2.6374    0.9631   -4.0512 C   0  0  0  0  0  0  0  0  0  0  0  0
    3.0212    1.8965   -4.7019 C   0  0  0  0  0  0  0  0  0  0  0  0
    2.4941   -3.5512   -2.7644 C   0  0  0  0  0  0  0  0  0  0  0  0
    3.8672   -3.4911   -2.3781 O   0  0  0  0  0  0  0  0  0  0  0  0
    2.5969   -2.9970   -0.1335 H   0  0  0  0  0  0  0  0  0  0  0  0
    3.6480   -1.5719   -0.2088 H   0  0  0  0  0  0  0  0  0  0  0  0
    1.9170   -1.4078   -0.5306 H   0  0  0  0  0  0  0  0  0  0  0  0
    4.2253   -0.5869   -2.5531 H   0  0  0  0  0  0  0  0  0  0  0  0
    3.7425   -1.5075   -3.9812 H   0  0  0  0  0  0  0  0  0  0  0  0
    1.8844    0.2159   -2.2619 H   0  0  0  0  0  0  0  0  0  0  0  0
    0.8002   -1.5026   -3.3130 H   0  0  0  0  0  0  0  0  0  0  0  0
    3.3470    2.7256   -5.2803 H   0  0  0  0  0  0  0  0  0  0  0  0
    1.8754   -4.2300   -2.1778 H   0  0  0  0  0  0  0  0  0  0  0  0
    2.3097   -3.5646   -3.8375 H   0  0  0  0  0  0  0  0  0  0  0  0
  1 12  1  0  0  0  0
  1 11  1  0  0  0  0
  1 10  1  0  0  0  0
  2  3  1  6  0  0  0
  2  1  1  0  0  0  0
  3 13  1  0  0  0  0
  4  3  1  0  0  0  0
  4 15  1  1  0  0  0
  5 16  1  0  0  0  0
  5  4  1  0  0  0  0
  6  4  1  0  0  0  0
  7  6  3  0  0  0  0
  8  9  1  0  0  0  0
  8 18  1  0  0  0  0
  8  2  1  0  0  0  0
  9  2  1  0  0  0  0
 14  3  1  0  0  0  0
 17  7  1  0  0  0  0
 19  8  1  0  0  0  0
M TOR 0 0 1 2 3
M TOR 1 0 1 2 12
M TOR 2 0 1 2 13
M TOR 3 0 1 7 8
M TOR 4 0 1 7 17
M TOR 5 0 1 7 18
M TOR 6 1 2 3 4
M TOR 7 1 2 3 5
M TOR 8 1 2 3 14
M TOR 9 1 8 7 17
M TOR 10 1 8 7 18
M TOR 11 2 1 0 9
M TOR 12 2 1 0 10
M TOR 13 2 1 0 11
M TOR 14 2 1 7 8
M TOR 15 2 1 7 17
M TOR 16 2 1 7 18
M TOR 17 2 3 4 15
M TOR 18 2 3 5 6
M TOR 19 3 2 1 7
M TOR 20 3 2 1 8
M TOR 21 3 5 6 16
M TOR 22 4 3 2 12
M TOR 23 4 3 2 13
M TOR 24 4 3 5 6
M TOR 25 5 3 2 12
M TOR 26 5 3 2 13
M TOR 27 5 3 4 15
M TOR 28 6 5 3 14
M TOR 29 7 1 0 9
M TOR 30 7 1 0 10
M TOR 31 7 1 0 11
M TOR 32 7 1 2 12
M TOR 33 7 1 2 13
M TOR 34 8 1 0 9
M TOR 35 8 1 0 10
M TOR 36 8 1 0 11
M TOR 37 8 1 2 12
M TOR 38 8 1 2 13
M  END
$$$$
