gdb 3708	2.6419751	1.5171476	1.1932886	2.5668	75.77	-0.24441	0.06245	0.30685999999999997	1090.2575	0.154971	-422.500841	-422.492064	-422.49112	-422.533837	33.594
 OpenBabel02181911413D

 19 21  0  0  1  0  0  0  0  0999 V2000
    2.0887   -2.3779    1.9538 C   0  0  0  0  0  0  0  0  0  0  0  0
    0.6225   -2.3326    1.6738 C   0  0  1  0  0  0  0  0  0  0  0  0
   -0.1054   -3.5789    1.7036 O   0  0  0  0  0  0  0  0  0  0  0  0
   -0.5702   -2.5034    2.5278 C   0  0  2  0  0  0  0  0  0  0  0  0
   -1.4201   -1.5813    1.6368 C   0  0  0  0  0  0  0  0  0  0  0  0
   -0.1668   -1.4181    0.7412 C   0  0  2  0  0  0  0  0  0  0  0  0
   -0.0656   -1.3320   -0.7595 C   0  0  0  0  0  0  0  0  0  0  0  0
    0.3012   -0.1480    0.0834 C   0  0  2  0  0  0  0  0  0  0  0  0
    1.6580    0.1996    0.0901 O   0  0  0  0  0  0  0  0  0  0  0  0
    2.2890   -3.0875    2.7608 H   0  0  0  0  0  0  0  0  0  0  0  0
    2.6460   -2.6972    1.0670 H   0  0  0  0  0  0  0  0  0  0  0  0
    2.4678   -1.3934    2.2412 H   0  0  0  0  0  0  0  0  0  0  0  0
   -0.6591   -2.6934    3.5918 H   0  0  0  0  0  0  0  0  0  0  0  0
   -2.2948   -2.0571    1.1855 H   0  0  0  0  0  0  0  0  0  0  0  0
   -1.7170   -0.6501    2.1292 H   0  0  0  0  0  0  0  0  0  0  0  0
    0.7579   -1.8583   -1.2313 H   0  0  0  0  0  0  0  0  0  0  0  0
   -0.9781   -1.2926   -1.3449 H   0  0  0  0  0  0  0  0  0  0  0  0
   -0.3882    0.6979    0.0944 H   0  0  0  0  0  0  0  0  0  0  0  0
    1.8446    0.6572    0.9166 H   0  0  0  0  0  0  0  0  0  0  0  0
  1 12  1  0  0  0  0
  1 10  1  0  0  0  0
  2  3  1  0  0  0  0
  2  1  1  1  0  0  0
  2  4  1  0  0  0  0
  3  4  1  0  0  0  0
  4 13  1  1  0  0  0
  5 15  1  0  0  0  0
  5  4  1  0  0  0  0
  6  7  1  6  0  0  0
  6  5  1  0  0  0  0
  6  2  1  0  0  0  0
  7  8  1  0  0  0  0
  8  9  1  0  0  0  0
  8 18  1  6  0  0  0
  8  6  1  0  0  0  0
  9 19  1  0  0  0  0
 11  1  1  0  0  0  0
 14  5  1  0  0  0  0
 16  7  1  0  0  0  0
 17  7  1  0  0  0  0
M TOR 0 0 1 2 3
M TOR 1 0 1 3 4
M TOR 2 0 1 3 12
M TOR 3 0 1 5 4
M TOR 4 0 1 5 6
M TOR 5 0 1 5 7
M TOR 6 1 2 3 4
M TOR 7 1 2 3 12
M TOR 8 1 3 4 5
M TOR 9 1 3 4 13
M TOR 10 1 3 4 14
M TOR 11 1 5 4 13
M TOR 12 1 5 4 14
M TOR 13 1 5 6 7
M TOR 14 1 5 6 15
M TOR 15 1 5 6 16
M TOR 16 1 5 7 8
M TOR 17 1 5 7 17
M TOR 18 2 1 0 9
M TOR 19 2 1 0 10
M TOR 20 2 1 0 11
M TOR 21 2 1 5 4
M TOR 22 2 1 5 6
M TOR 23 2 1 5 7
M TOR 24 2 3 1 5
M TOR 25 2 3 4 5
M TOR 26 2 3 4 13
M TOR 27 2 3 4 14
M TOR 28 3 1 0 9
M TOR 29 3 1 0 10
M TOR 30 3 1 0 11
M TOR 31 3 1 5 6
M TOR 32 3 1 5 7
M TOR 33 3 4 5 6
M TOR 34 3 4 5 7
M TOR 35 4 5 6 7
M TOR 36 4 5 6 15
M TOR 37 4 5 6 16
M TOR 38 4 5 7 8
M TOR 39 4 5 7 17
M TOR 40 5 1 0 9
M TOR 41 5 1 0 10
M TOR 42 5 1 0 11
M TOR 43 5 1 3 12
M TOR 44 5 4 3 12
M TOR 45 5 6 7 8
M TOR 46 5 6 7 17
M TOR 47 5 7 6 15
M TOR 48 5 7 6 16
M TOR 49 5 7 8 18
M TOR 50 6 5 4 13
M TOR 51 6 5 4 14
M TOR 52 6 7 8 18
M TOR 53 7 5 4 13
M TOR 54 7 5 4 14
M TOR 55 8 7 6 15
M TOR 56 8 7 6 16
M  END
$$$$
