
     RDKit          3D

 19 21  0  0  0  0  0  0  0  0999 V2000
    1.4833   -0.3810    0.4512 C   0  0  0  0  0  0  0  0  0  0  0  0
    0.7338    0.0468   -0.7845 C   0  0  0  0  0  0  0  0  0  0  0  0
    1.5345    0.7359   -1.8683 C   0  0  0  0  0  0  0  0  0  0  0  0
    2.3501    1.6950   -1.1879 O   0  0  0  0  0  0  0  0  0  0  0  0
    1.6514    2.1444   -0.0226 C   0  0  0  0  0  0  0  0  0  0  0  0
    0.8102    0.9672    0.4217 C   0  0  0  0  0  0  0  0  0  0  0  0
   -0.6017    1.0410    0.9621 C   0  0  0  0  0  0  0  0  0  0  0  0
   -1.2839   -0.0846    0.4002 O   0  0  0  0  0  0  0  0  0  0  0  0
   -0.7185   -0.3675   -0.8837 C   0  0  0  0  0  0  0  0  0  0  0  0
    1.0313   -1.1510    1.0674 H   0  0  0  0  0  0  0  0  0  0  0  0
    2.5666   -0.3991    0.3965 H   0  0  0  0  0  0  0  0  0  0  0  0
    2.2152    0.0873   -2.4287 H   0  0  0  0  0  0  0  0  0  0  0  0
    0.8529    1.2247   -2.5846 H   0  0  0  0  0  0  0  0  0  0  0  0
    2.4129    2.4697    0.6932 H   0  0  0  0  0  0  0  0  0  0  0  0
    1.0006    3.0050   -0.2517 H   0  0  0  0  0  0  0  0  0  0  0  0
   -0.6900    0.9500    2.0493 H   0  0  0  0  0  0  0  0  0  0  0  0
   -1.0719    1.9901    0.6543 H   0  0  0  0  0  0  0  0  0  0  0  0
   -0.8876   -1.4323   -1.0725 H   0  0  0  0  0  0  0  0  0  0  0  0
   -1.2196    0.2096   -1.6790 H   0  0  0  0  0  0  0  0  0  0  0  0
  1  2  1  0
  2  3  1  0
  3  4  1  0
  4  5  1  0
  5  6  1  0
  6  7  1  0
  7  8  1  0
  8  9  1  0
  6  1  1  0
  6  2  1  0
  9  2  1  0
  1 10  1  0
  1 11  1  0
  3 12  1  0
  3 13  1  0
  5 14  1  0
  5 15  1  0
  7 16  1  0
  7 17  1  0
  9 18  1  0
  9 19  1  0
M  END
$$$$
