
     RDKit          3D

 19 21  0  0  0  0  0  0  0  0999 V2000
    0.0270   -0.0078    0.6679 O   0  0  0  0  0  0  0  0  0  0  0  0
   -0.7745    1.1306    0.7346 C   0  0  0  0  0  0  0  0  0  0  0  0
   -1.8489    1.1527   -0.3762 C   0  0  0  0  0  0  0  0  0  0  0  0
   -2.9593    1.5173    0.6604 C   0  0  0  0  0  0  0  0  0  0  0  0
   -3.4059    2.9728    0.6783 C   0  0  0  0  0  0  0  0  0  0  0  0
   -2.2858    3.7283    1.1381 O   0  0  0  0  0  0  0  0  0  0  0  0
   -1.3948    2.8928    1.8677 C   0  0  0  0  0  0  0  0  0  0  0  0
   -0.1284    2.4972    1.0530 C   0  0  0  0  0  0  0  0  0  0  0  0
   -1.9123    1.4280    1.8007 C   0  0  0  0  0  0  0  0  0  0  0  0
    0.6898    0.0419    1.3649 H   0  0  0  0  0  0  0  0  0  0  0  0
   -1.6898    1.8539   -1.2008 H   0  0  0  0  0  0  0  0  0  0  0  0
   -1.9808    0.1475   -0.7815 H   0  0  0  0  0  0  0  0  0  0  0  0
   -3.7952    0.8175    0.6948 H   0  0  0  0  0  0  0  0  0  0  0  0
   -3.6892    3.3547   -0.3092 H   0  0  0  0  0  0  0  0  0  0  0  0
   -4.2636    3.1078    1.3565 H   0  0  0  0  0  0  0  0  0  0  0  0
   -1.2115    3.3300    2.8528 H   0  0  0  0  0  0  0  0  0  0  0  0
    0.1503    3.1554    0.2257 H   0  0  0  0  0  0  0  0  0  0  0  0
    0.7351    2.3663    1.7168 H   0  0  0  0  0  0  0  0  0  0  0  0
   -2.1027    0.8681    2.7146 H   0  0  0  0  0  0  0  0  0  0  0  0
  1  2  1  0
  2  3  1  0
  3  4  1  0
  4  5  1  0
  5  6  1  0
  6  7  1  0
  7  8  1  0
  7  9  1  0
  8  2  1  0
  9  2  1  0
  9  4  1  0
  1 10  1  0
  3 11  1  0
  3 12  1  0
  4 13  1  0
  5 14  1  0
  5 15  1  0
  7 16  1  0
  8 17  1  0
  8 18  1  0
  9 19  1  0
M  END
$$$$
