
     RDKit          3D

 19 20  0  0  0  0  0  0  0  0999 V2000
    1.1617    1.1792    0.1179 C   0  0  0  0  0  0  0  0  0  0  0  0
    0.9156   -0.3284   -0.0196 C   0  0  0  0  0  0  0  0  0  0  0  0
    1.5967   -0.9200   -1.2378 C   0  0  0  0  0  0  0  0  0  0  0  0
    1.8441   -2.4484   -1.2294 C   0  0  0  0  0  0  0  0  0  0  0  0
    2.4406   -2.8158   -2.5551 C   0  0  0  0  0  0  0  0  0  0  0  0
    2.2929   -3.6314   -3.4060 O   0  0  0  0  0  0  0  0  0  0  0  0
    3.4058   -1.8139   -2.5086 O   0  0  0  0  0  0  0  0  0  0  0  0
    2.9837   -1.4536   -1.1516 C   0  0  0  0  0  0  0  0  0  0  0  0
    4.0730   -1.2087   -0.1636 C   0  0  0  0  0  0  0  0  0  0  0  0
    0.6339    1.5837    0.9864 H   0  0  0  0  0  0  0  0  0  0  0  0
    2.2271    1.4001    0.2371 H   0  0  0  0  0  0  0  0  0  0  0  0
    0.8092    1.7173   -0.7682 H   0  0  0  0  0  0  0  0  0  0  0  0
    1.2537   -0.8475    0.8856 H   0  0  0  0  0  0  0  0  0  0  0  0
   -0.1615   -0.5214   -0.0932 H   0  0  0  0  0  0  0  0  0  0  0  0
    1.3076   -0.4711   -2.1861 H   0  0  0  0  0  0  0  0  0  0  0  0
    1.4010   -3.1070   -0.4960 H   0  0  0  0  0  0  0  0  0  0  0  0
    4.7422   -2.0718   -0.1034 H   0  0  0  0  0  0  0  0  0  0  0  0
    4.6661   -0.3368   -0.4591 H   0  0  0  0  0  0  0  0  0  0  0  0
    3.6597   -1.0184    0.8300 H   0  0  0  0  0  0  0  0  0  0  0  0
  1  2  1  0
  2  3  1  0
  3  4  1  0
  4  5  1  0
  5  6  2  0
  5  7  1  0
  7  8  1  0
  8  9  1  0
  8  3  1  0
  8  4  1  0
  1 10  1  0
  1 11  1  0
  1 12  1  0
  2 13  1  0
  2 14  1  0
  3 15  1  0
  4 16  1  0
  9 17  1  0
  9 18  1  0
  9 19  1  0
M  END
$$$$
