gdb 5767	2.412074	1.3087517	1.0006769	2.3924	77.68	-0.24828	-0.02654	0.22174	1248.366	0.15521	-422.528722	-422.519702	-422.518758	-422.56274	32.899
 OpenBabel02181911423D

 19 20  0  0  1  0  0  0  0  0999 V2000
    1.9286   -0.1875    1.1838 C   0  0  0  0  0  0  0  0  0  0  0  0
    1.4017    0.3442   -0.1533 C   0  0  0  0  0  0  0  0  0  0  0  0
    1.9744   -0.4123   -1.3343 C   0  0  2  0  0  0  0  0  0  0  0  0
    3.4395   -0.3329   -1.4400 O   0  0  0  0  0  0  0  0  0  0  0  0
    3.3537    0.0545   -2.7966 C   0  0  2  0  0  0  0  0  0  0  0  0
    2.6682    1.3505   -2.9819 C   0  0  0  0  0  0  0  0  0  0  0  0
    1.8082    0.1076   -2.7631 C   0  0  2  0  0  0  0  0  0  0  0  0
    0.8421   -0.3983   -3.7372 C   0  0  0  0  0  0  0  0  0  0  0  0
   -0.0348   -1.1898   -3.4737 O   0  0  0  0  0  0  0  0  0  0  0  0
    1.6636   -1.2412    1.3226 H   0  0  0  0  0  0  0  0  0  0  0  0
    3.0184   -0.1072    1.2263 H   0  0  0  0  0  0  0  0  0  0  0  0
    1.5107    0.3764    2.0225 H   0  0  0  0  0  0  0  0  0  0  0  0
    0.3096    0.2482   -0.2012 H   0  0  0  0  0  0  0  0  0  0  0  0
    1.6325    1.4111   -0.2485 H   0  0  0  0  0  0  0  0  0  0  0  0
    1.6898   -1.4698   -1.2910 H   0  0  0  0  0  0  0  0  0  0  0  0
    4.0187   -0.4173   -3.5113 H   0  0  0  0  0  0  0  0  0  0  0  0
    2.7214    2.1122   -2.2107 H   0  0  0  0  0  0  0  0  0  0  0  0
    2.6400    1.7243   -4.0018 H   0  0  0  0  0  0  0  0  0  0  0  0
    0.9721   -0.0019   -4.7706 H   0  0  0  0  0  0  0  0  0  0  0  0
  1 11  1  0  0  0  0
  1 10  1  0  0  0  0
  1 12  1  0  0  0  0
  2  1  1  0  0  0  0
  3 15  1  1  0  0  0
  3  2  1  0  0  0  0
  4  3  1  0  0  0  0
  5 16  1  6  0  0  0
  5  7  1  0  0  0  0
  5  4  1  0  0  0  0
  6  5  1  0  0  0  0
  6  7  1  0  0  0  0
  6 17  1  0  0  0  0
  7  8  1  6  0  0  0
  7  3  1  0  0  0  0
  8  9  2  0  0  0  0
 13  2  1  0  0  0  0
 14  2  1  0  0  0  0
 18  6  1  0  0  0  0
 19  8  1  0  0  0  0
M TOR 0 0 1 2 3
M TOR 1 0 1 2 6
M TOR 2 0 1 2 14
M TOR 3 1 2 3 4
M TOR 4 1 2 6 4
M TOR 5 1 2 6 5
M TOR 6 1 2 6 7
M TOR 7 2 1 0 9
M TOR 8 2 1 0 10
M TOR 9 2 1 0 11
M TOR 10 2 3 4 5
M TOR 11 2 3 4 6
M TOR 12 2 3 4 15
M TOR 13 2 6 4 5
M TOR 14 2 6 4 15
M TOR 15 2 6 5 16
M TOR 16 2 6 5 17
M TOR 17 2 6 7 8
M TOR 18 2 6 7 18
M TOR 19 3 2 1 12
M TOR 20 3 2 1 13
M TOR 21 3 2 6 5
M TOR 22 3 2 6 7
M TOR 23 3 4 5 6
M TOR 24 3 4 5 16
M TOR 25 3 4 5 17
M TOR 26 3 4 6 7
M TOR 27 4 3 2 14
M TOR 28 4 5 6 7
M TOR 29 4 6 2 14
M TOR 30 4 6 5 16
M TOR 31 4 6 5 17
M TOR 32 4 6 7 8
M TOR 33 4 6 7 18
M TOR 34 5 6 2 14
M TOR 35 5 6 4 15
M TOR 36 5 6 7 8
M TOR 37 5 6 7 18
M TOR 38 6 2 1 12
M TOR 39 6 2 1 13
M TOR 40 7 6 2 14
M TOR 41 7 6 4 15
M TOR 42 7 6 5 16
M TOR 43 7 6 5 17
M  END
$$$$
