gdb 5518	2.4498134	1.2978626	1.0152372	2.201	76.83	-0.25066	-0.04229	0.20837	1242.5043	0.154632	-422.499213	-422.490142	-422.489197	-422.533937	32.75
 OpenBabel02181911423D

 19 20  0  0  1  0  0  0  0  0999 V2000
    1.1669    1.6818    0.3568 C   0  0  0  0  0  0  0  0  0  0  0  0
    0.8710    0.1988    0.1033 C   0  0  0  0  0  0  0  0  0  0  0  0
    1.9465   -0.4727   -0.7314 C   0  0  2  0  0  0  0  0  0  0  0  0
    1.9411   -0.3097   -2.2803 C   0  0  1  0  0  0  0  0  0  0  0  0
    2.8050   -1.5830   -2.4149 C   0  0  0  0  0  0  0  0  0  0  0  0
    1.6384   -1.8428   -1.4147 C   0  0  2  0  0  0  0  0  0  0  0  0
    0.7253   -1.1612   -2.3608 O   0  0  0  0  0  0  0  0  0  0  0  0
    1.1936   -3.1388   -0.8188 C   0  0  0  0  0  0  0  0  0  0  0  0
    1.7286   -3.6466    0.1336 O   0  0  0  0  0  0  0  0  0  0  0  0
    0.3868    2.1370    0.9741 H   0  0  0  0  0  0  0  0  0  0  0  0
    2.1224    1.8162    0.8759 H   0  0  0  0  0  0  0  0  0  0  0  0
    1.2172    2.2447   -0.5816 H   0  0  0  0  0  0  0  0  0  0  0  0
    0.7924   -0.3275    1.0628 H   0  0  0  0  0  0  0  0  0  0  0  0
   -0.0910    0.0851   -0.4050 H   0  0  0  0  0  0  0  0  0  0  0  0
    2.9361   -0.4123   -0.2675 H   0  0  0  0  0  0  0  0  0  0  0  0
    1.9481    0.5958   -2.8867 H   0  0  0  0  0  0  0  0  0  0  0  0
    2.7109   -2.1068   -3.3660 H   0  0  0  0  0  0  0  0  0  0  0  0
    3.8217   -1.5737   -2.0175 H   0  0  0  0  0  0  0  0  0  0  0  0
    0.3260   -3.6035   -1.3371 H   0  0  0  0  0  0  0  0  0  0  0  0
  1 11  1  0  0  0  0
  1 10  1  0  0  0  0
  2  1  1  0  0  0  0
  2 13  1  0  0  0  0
  3 15  1  1  0  0  0
  3  2  1  0  0  0  0
  4 16  1  6  0  0  0
  4  3  1  0  0  0  0
  5  4  1  0  0  0  0
  5 18  1  0  0  0  0
  5  6  1  0  0  0  0
  6  8  1  1  0  0  0
  6  3  1  0  0  0  0
  7  4  1  0  0  0  0
  7  6  1  0  0  0  0
  8  9  2  0  0  0  0
 12  1  1  0  0  0  0
 14  2  1  0  0  0  0
 17  5  1  0  0  0  0
 19  8  1  0  0  0  0
M TOR 0 0 1 2 3
M TOR 1 0 1 2 5
M TOR 2 0 1 2 14
M TOR 3 1 2 3 4
M TOR 4 1 2 3 6
M TOR 5 1 2 3 15
M TOR 6 1 2 5 4
M TOR 7 1 2 5 6
M TOR 8 1 2 5 7
M TOR 9 2 1 0 9
M TOR 10 2 1 0 10
M TOR 11 2 1 0 11
M TOR 12 2 3 4 5
M TOR 13 2 3 4 16
M TOR 14 2 3 4 17
M TOR 15 2 3 6 5
M TOR 16 2 5 4 16
M TOR 17 2 5 4 17
M TOR 18 2 5 7 8
M TOR 19 2 5 7 18
M TOR 20 3 2 1 12
M TOR 21 3 2 1 13
M TOR 22 3 2 5 7
M TOR 23 3 4 5 6
M TOR 24 3 4 5 7
M TOR 25 3 6 5 7
M TOR 26 4 3 2 14
M TOR 27 4 5 2 14
M TOR 28 4 5 7 8
M TOR 29 4 5 7 18
M TOR 30 5 2 1 12
M TOR 31 5 2 1 13
M TOR 32 5 2 3 15
M TOR 33 5 4 3 15
M TOR 34 5 6 3 15
M TOR 35 6 3 2 14
M TOR 36 6 3 4 16
M TOR 37 6 3 4 17
M TOR 38 6 5 2 14
M TOR 39 6 5 4 16
M TOR 40 6 5 4 17
M TOR 41 6 5 7 8
M TOR 42 6 5 7 18
M TOR 43 7 5 2 14
M TOR 44 7 5 4 16
M TOR 45 7 5 4 17
M  END
$$$$
