
     RDKit          3D

 19 20  0  0  0  0  0  0  0  0999 V2000
    1.6355    0.5357    0.0086 O   0  0  0  0  0  0  0  0  0  0  0  0
    0.2685    0.2036   -0.1801 C   0  0  0  0  0  0  0  0  0  0  0  0
    0.0029    0.1486   -1.6854 C   0  0  0  0  0  0  0  0  0  0  0  0
   -1.4516   -0.1243   -2.0066 C   0  0  0  0  0  0  0  0  0  0  0  0
   -1.6413   -1.2957   -2.6167 C   0  0  0  0  0  0  0  0  0  0  0  0
   -0.3509   -2.0189   -2.8833 C   0  0  0  0  0  0  0  0  0  0  0  0
    0.2759   -1.7641   -4.2761 C   0  0  0  0  0  0  0  0  0  0  0  0
    1.0998   -0.7043   -3.7524 O   0  0  0  0  0  0  0  0  0  0  0  0
    0.7262   -1.0133   -2.3887 C   0  0  0  0  0  0  0  0  0  0  0  0
    1.8298    0.4980    0.9495 H   0  0  0  0  0  0  0  0  0  0  0  0
    0.0254   -0.7721    0.2719 H   0  0  0  0  0  0  0  0  0  0  0  0
   -0.3948    0.9510    0.2837 H   0  0  0  0  0  0  0  0  0  0  0  0
    0.3520    1.0941   -2.1196 H   0  0  0  0  0  0  0  0  0  0  0  0
   -2.2412    0.5720   -1.7426 H   0  0  0  0  0  0  0  0  0  0  0  0
   -2.6048   -1.6865   -2.9268 H   0  0  0  0  0  0  0  0  0  0  0  0
   -0.3295   -3.0529   -2.5313 H   0  0  0  0  0  0  0  0  0  0  0  0
    0.8792   -2.5987   -4.6586 H   0  0  0  0  0  0  0  0  0  0  0  0
   -0.3992   -1.4140   -5.0659 H   0  0  0  0  0  0  0  0  0  0  0  0
    1.5786   -1.3944   -1.8181 H   0  0  0  0  0  0  0  0  0  0  0  0
  1  2  1  0
  2  3  1  0
  3  4  1  0
  4  5  2  0
  5  6  1  0
  6  7  1  0
  7  8  1  0
  8  9  1  0
  9  3  1  0
  9  6  1  0
  1 10  1  0
  2 11  1  0
  2 12  1  0
  3 13  1  0
  4 14  1  0
  5 15  1  0
  6 16  1  0
  7 17  1  0
  7 18  1  0
  9 19  1  0
M  END
$$$$
