
     RDKit          3D

 19 21  0  0  0  0  0  0  0  0999 V2000
    0.6535    1.2377   -3.2526 C   0  0  0  0  0  0  0  0  0  0  0  0
    0.3949    0.1189   -2.2857 C   0  0  0  0  0  0  0  0  0  0  0  0
    1.0130   -1.1503   -2.5983 O   0  0  0  0  0  0  0  0  0  0  0  0
   -0.4255   -1.0791   -2.5133 C   0  0  0  0  0  0  0  0  0  0  0  0
   -0.9989   -1.5838   -1.2050 C   0  0  0  0  0  0  0  0  0  0  0  0
   -0.0057   -2.1601   -0.2267 C   0  0  0  0  0  0  0  0  0  0  0  0
   -0.4069   -0.7099   -0.1176 C   0  0  0  0  0  0  0  0  0  0  0  0
    0.4547    0.3829   -0.7705 C   0  0  0  0  0  0  0  0  0  0  0  0
    1.7884    0.4776   -0.3036 O   0  0  0  0  0  0  0  0  0  0  0  0
   -0.1009    2.0248   -3.1494 H   0  0  0  0  0  0  0  0  0  0  0  0
    1.6342    1.6835   -3.0548 H   0  0  0  0  0  0  0  0  0  0  0  0
    0.6409    0.8701   -4.2817 H   0  0  0  0  0  0  0  0  0  0  0  0
   -0.9465   -1.2709   -3.4477 H   0  0  0  0  0  0  0  0  0  0  0  0
   -2.0321   -1.9096   -1.1951 H   0  0  0  0  0  0  0  0  0  0  0  0
   -0.3914   -2.8241    0.5391 H   0  0  0  0  0  0  0  0  0  0  0  0
    0.9744   -2.4215   -0.6049 H   0  0  0  0  0  0  0  0  0  0  0  0
   -0.9954   -0.4229    0.7462 H   0  0  0  0  0  0  0  0  0  0  0  0
    0.0061    1.3599   -0.5586 H   0  0  0  0  0  0  0  0  0  0  0  0
    2.2352   -0.3260   -0.5960 H   0  0  0  0  0  0  0  0  0  0  0  0
  1  2  1  0
  2  3  1  0
  3  4  1  0
  4  5  1  0
  5  6  1  0
  6  7  1  0
  7  8  1  0
  8  9  1  0
  4  2  1  0
  7  5  1  0
  8  2  1  0
  1 10  1  0
  1 11  1  0
  1 12  1  0
  4 13  1  0
  5 14  1  0
  6 15  1  0
  6 16  1  0
  7 17  1  0
  8 18  1  0
  9 19  1  0
M  END
$$$$
