gdb 3653	1.944646	1.5508933	1.0964995	2.1378	76.52	-0.25094	-0.02219	0.22875	1186.6165	0.154834	-422.53212	-422.522813	-422.521869	-422.566423	33.647
 OpenBabel02181911413D

 19 20  0  0  1  0  0  0  0  0999 V2000
    1.0819   -0.4466    1.0296 C   0  0  0  0  0  0  0  0  0  0  0  0
    1.1065    0.2517   -0.3134 C   0  0  2  0  0  0  0  0  0  0  0  0
    1.9054   -0.2551   -1.4640 C   0  0  0  0  0  0  0  0  0  0  0  0
    2.2925    1.0804   -0.8158 C   0  0  2  0  0  0  0  0  0  0  0  0
    3.5636    1.0971   -0.0566 C   0  0  0  0  0  0  0  0  0  0  0  0
    4.2984    2.0550    0.0075 O   0  0  0  0  0  0  0  0  0  0  0  0
    2.0156    2.3473   -1.5763 C   0  0  2  0  0  0  0  0  0  0  0  0
    1.0833    3.3716   -1.0954 C   0  0  0  0  0  0  0  0  0  0  0  0
    0.7154    2.4767   -2.1533 O   0  0  0  0  0  0  0  0  0  0  0  0
    0.2755   -1.1874    1.0464 H   0  0  0  0  0  0  0  0  0  0  0  0
    2.0138   -0.9764    1.2434 H   0  0  0  0  0  0  0  0  0  0  0  0
    0.9018    0.2596    1.8469 H   0  0  0  0  0  0  0  0  0  0  0  0
    0.1650    0.7111   -0.6019 H   0  0  0  0  0  0  0  0  0  0  0  0
    2.5746   -1.0941   -1.2977 H   0  0  0  0  0  0  0  0  0  0  0  0
    1.4852   -0.1942   -2.4614 H   0  0  0  0  0  0  0  0  0  0  0  0
    3.8271    0.1429    0.4508 H   0  0  0  0  0  0  0  0  0  0  0  0
    2.8290    2.6700   -2.2249 H   0  0  0  0  0  0  0  0  0  0  0  0
    0.5583    3.2163   -0.1545 H   0  0  0  0  0  0  0  0  0  0  0  0
    1.2204    4.4097   -1.3914 H   0  0  0  0  0  0  0  0  0  0  0  0
  1 10  1  0  0  0  0
  1 11  1  0  0  0  0
  1 12  1  0  0  0  0
  2 13  1  6  0  0  0
  2  1  1  0  0  0  0
  3 14  1  0  0  0  0
  3  4  1  0  0  0  0
  3  2  1  0  0  0  0
  4  2  1  0  0  0  0
  4  5  1  1  0  0  0
  5  6  2  0  0  0  0
  5 16  1  0  0  0  0
  7 17  1  6  0  0  0
  7  8  1  0  0  0  0
  7  4  1  0  0  0  0
  8 18  1  0  0  0  0
  9  7  1  0  0  0  0
  9  8  1  0  0  0  0
 15  3  1  0  0  0  0
 19  8  1  0  0  0  0
M TOR 0 0 1 2 3
M TOR 1 0 1 2 13
M TOR 2 0 1 2 14
M TOR 3 0 1 3 4
M TOR 4 0 1 3 6
M TOR 5 1 2 3 4
M TOR 6 1 2 3 6
M TOR 7 1 3 2 13
M TOR 8 1 3 2 14
M TOR 9 1 3 4 5
M TOR 10 1 3 4 15
M TOR 11 1 3 6 7
M TOR 12 1 3 6 8
M TOR 13 1 3 6 16
M TOR 14 2 1 0 9
M TOR 15 2 1 0 10
M TOR 16 2 1 0 11
M TOR 17 2 3 1 12
M TOR 18 2 3 4 5
M TOR 19 2 3 4 15
M TOR 20 2 3 6 7
M TOR 21 2 3 6 8
M TOR 22 2 3 6 16
M TOR 23 3 1 0 9
M TOR 24 3 1 0 10
M TOR 25 3 1 0 11
M TOR 26 3 6 7 8
M TOR 27 3 6 7 17
M TOR 28 3 6 7 18
M TOR 29 4 3 1 12
M TOR 30 4 3 2 13
M TOR 31 4 3 2 14
M TOR 32 4 3 6 7
M TOR 33 4 3 6 8
M TOR 34 4 3 6 16
M TOR 35 5 4 3 6
M TOR 36 6 3 1 12
M TOR 37 6 3 2 13
M TOR 38 6 3 2 14
M TOR 39 6 3 4 15
M TOR 40 6 8 7 17
M TOR 41 6 8 7 18
M TOR 42 7 8 6 16
M  END
$$$$
