gdb 5855	2.3730027	1.314603	0.9524147	0.5565	77.97	-0.25861	0.05232	0.31093	1275.5209	0.156063	-422.525132	-422.515831	-422.514886	-422.559871	33.603
 OpenBabel02181911423D

 19 19  0  0  1  0  0  0  0  0999 V2000
    1.4056    0.2247   -0.1518 C   0  0  0  0  0  0  0  0  0  0  0  0
    0.0009    0.3279    0.0067 O   0  0  0  0  0  0  0  0  0  0  0  0
   -0.3903    0.6534    1.3141 C   0  0  1  0  0  0  0  0  0  0  0  0
    0.0076    1.9532    1.6869 O   0  0  0  0  0  0  0  0  0  0  0  0
   -1.0348    2.8524    1.3091 C   0  0  0  0  0  0  0  0  0  0  0  0
   -2.3191    2.1068    1.6769 C   0  0  0  0  0  0  0  0  0  0  0  0
   -1.9519    0.6360    1.3351 C   0  0  2  0  0  0  0  0  0  0  0  0
   -2.5174   -0.3463    2.2455 C   0  0  0  0  0  0  0  0  0  0  0  0
   -2.9816   -1.1519    3.0075 C   0  0  0  0  0  0  0  0  0  0  0  0
    1.8222   -0.5589    0.4988 H   0  0  0  0  0  0  0  0  0  0  0  0
    1.5899   -0.0438   -1.1941 H   0  0  0  0  0  0  0  0  0  0  0  0
    1.9062    1.1728    0.0759 H   0  0  0  0  0  0  0  0  0  0  0  0
    0.0713   -0.0352    2.0331 H   0  0  0  0  0  0  0  0  0  0  0  0
   -0.8882    3.7838    1.8603 H   0  0  0  0  0  0  0  0  0  0  0  0
   -0.9898    3.0674    0.2320 H   0  0  0  0  0  0  0  0  0  0  0  0
   -2.5183    2.2013    2.7469 H   0  0  0  0  0  0  0  0  0  0  0  0
   -3.1969    2.4540    1.1280 H   0  0  0  0  0  0  0  0  0  0  0  0
   -2.2642    0.4029    0.3122 H   0  0  0  0  0  0  0  0  0  0  0  0
   -3.3943   -1.8664    3.6756 H   0  0  0  0  0  0  0  0  0  0  0  0
  1  2  1  0  0  0  0
  1 12  1  0  0  0  0
  1 10  1  0  0  0  0
  2  3  1  0  0  0  0
  3  7  1  0  0  0  0
  3  4  1  0  0  0  0
  3 13  1  1  0  0  0
  5  6  1  0  0  0  0
  5  4  1  0  0  0  0
  5 14  1  0  0  0  0
  6 16  1  0  0  0  0
  7 18  1  6  0  0  0
  7  6  1  0  0  0  0
  7  8  1  0  0  0  0
  8  9  3  0  0  0  0
  9 19  1  0  0  0  0
 11  1  1  0  0  0  0
 15  5  1  0  0  0  0
 17  6  1  0  0  0  0
M TOR 0 0 1 2 3
M TOR 1 0 1 2 6
M TOR 2 0 1 2 12
M TOR 3 1 2 3 4
M TOR 4 1 2 6 5
M TOR 5 1 2 6 7
M TOR 6 1 2 6 17
M TOR 7 2 1 0 9
M TOR 8 2 1 0 10
M TOR 9 2 1 0 11
M TOR 10 2 3 4 5
M TOR 11 2 3 4 13
M TOR 12 2 3 4 14
M TOR 13 2 6 5 4
M TOR 14 2 6 5 15
M TOR 15 2 6 5 16
M TOR 16 2 6 7 8
M TOR 17 3 2 6 5
M TOR 18 3 2 6 7
M TOR 19 3 2 6 17
M TOR 20 3 4 5 6
M TOR 21 3 4 5 15
M TOR 22 3 4 5 16
M TOR 23 4 3 2 6
M TOR 24 4 3 2 12
M TOR 25 4 5 6 7
M TOR 26 4 5 6 17
M TOR 27 5 6 2 12
M TOR 28 5 6 7 8
M TOR 29 6 5 4 13
M TOR 30 6 5 4 14
M TOR 31 6 7 8 18
M TOR 32 7 6 2 12
M TOR 33 7 6 5 15
M TOR 34 7 6 5 16
M TOR 35 8 7 6 17
M  END
$$$$
