
     RDKit          3D

 19 19  0  0  0  0  0  0  0  0999 V2000
    1.3303   -0.0698   -0.1999 C   0  0  0  0  0  0  0  0  0  0  0  0
   -0.0557    0.0985    0.0231 O   0  0  0  0  0  0  0  0  0  0  0  0
   -0.3390    0.6551    1.2646 C   0  0  0  0  0  0  0  0  0  0  0  0
   -0.4238   -0.2345    2.4821 C   0  0  0  0  0  0  0  0  0  0  0  0
   -1.6766    0.3358    1.8501 C   0  0  0  0  0  0  0  0  0  0  0  0
   -2.4749    1.4033    2.5799 C   0  0  0  0  0  0  0  0  0  0  0  0
   -3.2156    0.8713    3.6758 O   0  0  0  0  0  0  0  0  0  0  0  0
   -3.3413    2.1405    1.6523 C   0  0  0  0  0  0  0  0  0  0  0  0
   -4.0788    2.7027    0.8873 C   0  0  0  0  0  0  0  0  0  0  0  0
    1.7840   -0.7376    0.5464 H   0  0  0  0  0  0  0  0  0  0  0  0
    1.4448   -0.5099   -1.1931 H   0  0  0  0  0  0  0  0  0  0  0  0
    1.8647    0.8921   -0.1735 H   0  0  0  0  0  0  0  0  0  0  0  0
    0.0534    1.6648    1.4050 H   0  0  0  0  0  0  0  0  0  0  0  0
   -0.2394   -1.2930    2.3372 H   0  0  0  0  0  0  0  0  0  0  0  0
   -0.1064    0.1594    3.4421 H   0  0  0  0  0  0  0  0  0  0  0  0
   -2.2741   -0.3555    1.2626 H   0  0  0  0  0  0  0  0  0  0  0  0
   -1.7728    2.1068    3.0449 H   0  0  0  0  0  0  0  0  0  0  0  0
   -3.9335    0.3427    3.3096 H   0  0  0  0  0  0  0  0  0  0  0  0
   -4.7219    3.2152    0.2152 H   0  0  0  0  0  0  0  0  0  0  0  0
  1  2  1  0
  2  3  1  0
  3  4  1  0
  4  5  1  0
  5  6  1  0
  6  7  1  0
  6  8  1  0
  8  9  3  0
  5  3  1  0
  1 10  1  0
  1 11  1  0
  1 12  1  0
  3 13  1  0
  4 14  1  0
  4 15  1  0
  5 16  1  0
  6 17  1  0
  7 18  1  0
  9 19  1  0
M  END
$$$$
