gdb 5251	3.4828506	1.3314444	1.2753868	1.9363	74.59	-0.21292	0.07603	0.28895	1087.8977	0.157262	-422.514255	-422.506389	-422.505445	-422.546724	30.263
 OpenBabel02181911423D

 19 21  0  0  1  0  0  0  0  0999 V2000
    1.3144    0.8871    0.3915 C   0  0  0  0  0  0  0  0  0  0  0  0
    0.7848   -0.4643   -0.1084 C   0  0  0  0  0  0  0  0  0  0  0  0
    1.5809   -0.9921   -1.2575 C   0  0  2  0  0  0  0  0  0  0  0  0
    2.9677   -1.2911   -1.0360 O   0  0  0  0  0  0  0  0  0  0  0  0
    2.9299   -2.2320   -2.1540 C   0  0  2  0  0  0  0  0  0  0  0  0
    3.4439   -1.4789   -3.3717 C   0  0  0  0  0  0  0  0  0  0  0  0
    2.5219   -0.3898   -3.5164 O   0  0  0  0  0  0  0  0  0  0  0  0
    1.3874   -0.6997   -2.7412 C   0  0  1  0  0  0  0  0  0  0  0  0
    1.3921   -2.1205   -2.2511 C   0  0  2  0  0  0  0  0  0  0  0  0
    0.7396    1.2359    1.2542 H   0  0  0  0  0  0  0  0  0  0  0  0
    2.3627    0.8013    0.6904 H   0  0  0  0  0  0  0  0  0  0  0  0
    1.2514    1.6480   -0.3926 H   0  0  0  0  0  0  0  0  0  0  0  0
    0.8055   -1.1994    0.7060 H   0  0  0  0  0  0  0  0  0  0  0  0
   -0.2613   -0.3724   -0.4250 H   0  0  0  0  0  0  0  0  0  0  0  0
    3.4053   -3.1849   -1.9198 H   0  0  0  0  0  0  0  0  0  0  0  0
    4.4459   -1.0719   -3.2069 H   0  0  0  0  0  0  0  0  0  0  0  0
    3.4478   -2.1088   -4.2749 H   0  0  0  0  0  0  0  0  0  0  0  0
    0.4805   -0.2144   -3.0823 H   0  0  0  0  0  0  0  0  0  0  0  0
    0.6525   -2.8978   -2.3888 H   0  0  0  0  0  0  0  0  0  0  0  0
  1 11  1  0  0  0  0
  1 10  1  0  0  0  0
  2  1  1  0  0  0  0
  2 13  1  0  0  0  0
  3  4  1  0  0  0  0
  3  2  1  1  0  0  0
  5 15  1  1  0  0  0
  5  4  1  0  0  0  0
  6 16  1  0  0  0  0
  6  5  1  0  0  0  0
  7  6  1  0  0  0  0
  7  8  1  0  0  0  0
  8 18  1  6  0  0  0
  8  9  1  0  0  0  0
  8  3  1  0  0  0  0
  9 19  1  6  0  0  0
  9  5  1  0  0  0  0
  9  3  1  0  0  0  0
 12  1  1  0  0  0  0
 14  2  1  0  0  0  0
 17  6  1  0  0  0  0
M TOR 0 0 1 2 3
M TOR 1 0 1 2 7
M TOR 2 0 1 2 8
M TOR 3 1 2 3 4
M TOR 4 1 2 7 6
M TOR 5 1 2 7 8
M TOR 6 1 2 7 17
M TOR 7 1 2 8 4
M TOR 8 1 2 8 18
M TOR 9 2 1 0 9
M TOR 10 2 1 0 10
M TOR 11 2 1 0 11
M TOR 12 2 3 4 5
M TOR 13 2 3 4 8
M TOR 14 2 3 4 14
M TOR 15 2 7 6 5
M TOR 16 2 7 8 4
M TOR 17 2 7 8 18
M TOR 18 2 8 4 5
M TOR 19 2 8 4 14
M TOR 20 2 8 7 6
M TOR 21 2 8 7 17
M TOR 22 3 2 1 12
M TOR 23 3 2 1 13
M TOR 24 3 2 7 6
M TOR 25 3 2 7 8
M TOR 26 3 2 7 17
M TOR 27 3 2 8 18
M TOR 28 3 4 5 6
M TOR 29 3 4 5 15
M TOR 30 3 4 5 16
M TOR 31 3 4 8 7
M TOR 32 3 4 8 18
M TOR 33 4 3 2 7
M TOR 34 4 5 6 7
M TOR 35 4 8 7 6
M TOR 36 4 8 7 17
M TOR 37 5 4 8 7
M TOR 38 5 4 8 18
M TOR 39 5 6 7 8
M TOR 40 5 6 7 17
M TOR 41 6 5 4 8
M TOR 42 6 5 4 14
M TOR 43 6 7 8 18
M TOR 44 7 2 1 12
M TOR 45 7 2 1 13
M TOR 46 7 6 5 15
M TOR 47 7 6 5 16
M TOR 48 7 8 4 14
M TOR 49 8 2 1 12
M TOR 50 8 2 1 13
M TOR 51 8 4 5 15
M TOR 52 8 4 5 16
M  END
$$$$
