gdb 5752	4.6925268	1.1401643	1.070002	1.6042	74.36	-0.23503	0.0693	0.30433	1178.5968	0.157179	-422.496454	-422.488801	-422.487857	-422.528715	29.804
 OpenBabel02181911423D

 19 21  0  0  1  0  0  0  0  0999 V2000
    2.7176   -0.9025    1.1941 C   0  0  0  0  0  0  0  0  0  0  0  0
    1.8092   -0.1743    0.1998 C   0  0  0  0  0  0  0  0  0  0  0  0
    2.0360   -0.6191   -1.2412 C   0  0  1  0  0  0  0  0  0  0  0  0
    1.7638   -2.0438   -1.3863 O   0  0  0  0  0  0  0  0  0  0  0  0
    0.7818   -2.0787   -2.3840 C   0  0  1  0  0  0  0  0  0  0  0  0
   -0.2288   -0.9019   -2.2382 C   0  0  2  0  0  0  0  0  0  0  0  0
   -0.3803   -0.8178   -3.6929 O   0  0  0  0  0  0  0  0  0  0  0  0
    1.0567   -1.0178   -3.4923 C   0  0  1  0  0  0  0  0  0  0  0  0
    1.0765   -0.0435   -2.2743 C   0  0  2  0  0  0  0  0  0  0  0  0
    2.5189   -0.5787    2.2199 H   0  0  0  0  0  0  0  0  0  0  0  0
    2.5579   -1.9823    1.1371 H   0  0  0  0  0  0  0  0  0  0  0  0
    3.7743   -0.7069    0.9803 H   0  0  0  0  0  0  0  0  0  0  0  0
    0.7570   -0.3423    0.4604 H   0  0  0  0  0  0  0  0  0  0  0  0
    1.9791    0.9089    0.2543 H   0  0  0  0  0  0  0  0  0  0  0  0
    3.0850   -0.4466   -1.5213 H   0  0  0  0  0  0  0  0  0  0  0  0
    0.4558   -3.0886   -2.6230 H   0  0  0  0  0  0  0  0  0  0  0  0
   -1.1201   -0.7973   -1.6206 H   0  0  0  0  0  0  0  0  0  0  0  0
    1.7032   -1.0516   -4.3688 H   0  0  0  0  0  0  0  0  0  0  0  0
    1.0185    1.0313   -2.4357 H   0  0  0  0  0  0  0  0  0  0  0  0
  1 10  1  0  0  0  0
  2 14  1  0  0  0  0
  2 13  1  0  0  0  0
  2  1  1  0  0  0  0
  3 15  1  6  0  0  0
  3  2  1  0  0  0  0
  4  3  1  0  0  0  0
  5 16  1  6  0  0  0
  5  6  1  0  0  0  0
  5  4  1  0  0  0  0
  6 17  1  1  0  0  0
  7  8  1  0  0  0  0
  7  6  1  0  0  0  0
  8 18  1  6  0  0  0
  8  5  1  0  0  0  0
  8  9  1  0  0  0  0
  9 19  1  6  0  0  0
  9  6  1  0  0  0  0
  9  3  1  0  0  0  0
 11  1  1  0  0  0  0
 12  1  1  0  0  0  0
M TOR 0 0 1 2 3
M TOR 1 0 1 2 8
M TOR 2 0 1 2 14
M TOR 3 1 2 3 4
M TOR 4 1 2 8 5
M TOR 5 1 2 8 7
M TOR 6 1 2 8 18
M TOR 7 2 1 0 9
M TOR 8 2 1 0 10
M TOR 9 2 1 0 11
M TOR 10 2 3 4 5
M TOR 11 2 3 4 7
M TOR 12 2 3 4 15
M TOR 13 2 8 5 4
M TOR 14 2 8 5 6
M TOR 15 2 8 5 16
M TOR 16 2 8 7 4
M TOR 17 2 8 7 6
M TOR 18 2 8 7 17
M TOR 19 3 2 1 12
M TOR 20 3 2 1 13
M TOR 21 3 2 8 5
M TOR 22 3 2 8 7
M TOR 23 3 2 8 18
M TOR 24 3 4 5 6
M TOR 25 3 4 5 8
M TOR 26 3 4 5 16
M TOR 27 3 4 7 6
M TOR 28 3 4 7 8
M TOR 29 3 4 7 17
M TOR 30 4 3 2 8
M TOR 31 4 3 2 14
M TOR 32 4 5 6 7
M TOR 33 4 5 8 7
M TOR 34 4 5 8 18
M TOR 35 4 7 8 18
M TOR 36 5 4 7 17
M TOR 37 5 6 7 8
M TOR 38 5 6 7 17
M TOR 39 5 8 2 14
M TOR 40 5 8 7 17
M TOR 41 6 5 4 15
M TOR 42 6 5 8 18
M TOR 43 6 7 4 15
M TOR 44 6 7 8 18
M TOR 45 7 4 5 16
M TOR 46 7 6 5 16
M TOR 47 7 8 2 14
M TOR 48 7 8 5 16
M TOR 49 8 2 1 12
M TOR 50 8 2 1 13
M TOR 51 8 5 4 15
M TOR 52 8 7 4 15
M  END
$$$$
