
     RDKit          3D

 19 20  0  0  0  0  0  0  0  0999 V2000
    1.4266    0.5836   -0.4536 O   0  0  0  0  0  0  0  0  0  0  0  0
    0.0846    0.3535   -0.0455 C   0  0  0  0  0  0  0  0  0  0  0  0
   -0.8039    0.3976   -1.2818 C   0  0  0  0  0  0  0  0  0  0  0  0
   -0.4679   -0.7262   -2.3082 C   0  0  0  0  0  0  0  0  0  0  0  0
   -1.8117   -1.5233   -2.3276 C   0  0  0  0  0  0  0  0  0  0  0  0
   -2.2200   -1.4142   -0.9558 O   0  0  0  0  0  0  0  0  0  0  0  0
   -2.2856    0.0179   -0.9309 C   0  0  0  0  0  0  0  0  0  0  0  0
   -3.1304    0.3225   -2.1628 C   0  0  0  0  0  0  0  0  0  0  0  0
   -2.8386   -0.6428   -3.0339 C   0  0  0  0  0  0  0  0  0  0  0  0
    1.9959    0.4756    0.3138 H   0  0  0  0  0  0  0  0  0  0  0  0
   -0.0268   -0.6285    0.4383 H   0  0  0  0  0  0  0  0  0  0  0  0
   -0.2444    1.1219    0.6737 H   0  0  0  0  0  0  0  0  0  0  0  0
   -0.7388    1.3938   -1.7272 H   0  0  0  0  0  0  0  0  0  0  0  0
   -0.1868   -0.3450   -3.2916 H   0  0  0  0  0  0  0  0  0  0  0  0
    0.3482   -1.3515   -1.9402 H   0  0  0  0  0  0  0  0  0  0  0  0
   -1.7468   -2.5683   -2.6279 H   0  0  0  0  0  0  0  0  0  0  0  0
   -2.6509    0.3699    0.0343 H   0  0  0  0  0  0  0  0  0  0  0  0
   -3.7401    1.2047   -2.3021 H   0  0  0  0  0  0  0  0  0  0  0  0
   -3.1526   -0.7462   -4.0636 H   0  0  0  0  0  0  0  0  0  0  0  0
  1  2  1  0
  2  3  1  0
  3  4  1  0
  4  5  1  0
  5  6  1  0
  6  7  1  0
  7  8  1  0
  8  9  2  0
  7  3  1  0
  9  5  1  0
  1 10  1  0
  2 11  1  0
  2 12  1  0
  3 13  1  0
  4 14  1  0
  4 15  1  0
  5 16  1  0
  7 17  1  0
  8 18  1  0
  9 19  1  0
M  END
$$$$
