
     RDKit          3D

 19 21  0  0  0  0  0  0  0  0999 V2000
   -0.0469    0.2353    0.1534 C   0  0  0  0  0  0  0  0  0  0  0  0
    1.4312   -0.0734   -0.0253 C   0  0  0  0  0  0  0  0  0  0  0  0
    1.5452   -0.8484   -1.2058 O   0  0  0  0  0  0  0  0  0  0  0  0
    2.1290   -0.7345    1.1730 C   0  0  0  0  0  0  0  0  0  0  0  0
    2.7298    0.3814    2.0314 C   0  0  0  0  0  0  0  0  0  0  0  0
    2.3829    1.7084    1.3618 C   0  0  0  0  0  0  0  0  0  0  0  0
    2.3952    1.1517   -0.0714 C   0  0  0  0  0  0  0  0  0  0  0  0
    3.6781    0.4915   -0.1514 O   0  0  0  0  0  0  0  0  0  0  0  0
    3.5723   -0.3350    1.0055 C   0  0  0  0  0  0  0  0  0  0  0  0
   -0.2513    0.7398    1.0998 H   0  0  0  0  0  0  0  0  0  0  0  0
   -0.4089    0.8598   -0.6693 H   0  0  0  0  0  0  0  0  0  0  0  0
   -0.6147   -0.6993    0.1357 H   0  0  0  0  0  0  0  0  0  0  0  0
    2.4893   -0.8807   -1.4092 H   0  0  0  0  0  0  0  0  0  0  0  0
    1.8180   -1.6920    1.5680 H   0  0  0  0  0  0  0  0  0  0  0  0
    2.8966    0.2759    3.0950 H   0  0  0  0  0  0  0  0  0  0  0  0
    1.4139    2.1189    1.6526 H   0  0  0  0  0  0  0  0  0  0  0  0
    3.1543    2.4693    1.5116 H   0  0  0  0  0  0  0  0  0  0  0  0
    2.2796    1.8361   -0.9091 H   0  0  0  0  0  0  0  0  0  0  0  0
    4.4400   -0.9472    1.2034 H   0  0  0  0  0  0  0  0  0  0  0  0
  1  2  1  0
  2  3  1  0
  2  4  1  0
  4  5  1  0
  5  6  1  0
  6  7  1  0
  7  8  1  0
  8  9  1  0
  7  2  1  0
  9  4  1  0
  9  5  1  0
  1 10  1  0
  1 11  1  0
  1 12  1  0
  3 13  1  0
  4 14  1  0
  5 15  1  0
  6 16  1  0
  6 17  1  0
  7 18  1  0
  9 19  1  0
M  END
$$$$
