gdb 6036	4.4466629	0.824374	0.7342499	3.2876	79.8	-0.23904	-0.04884	0.1902	1554.1602	0.155987	-422.581177	-422.572073	-422.571129	-422.616006	32.681
 OpenBabel02181911423D

 19 19  0  0  1  0  0  0  0  0999 V2000
    0.6008   -1.0027    0.5643 C   0  0  0  0  0  0  0  0  0  0  0  0
    0.3889    0.0545   -0.5054 C   0  0  0  0  0  0  0  0  0  0  0  0
    1.4784    0.9609   -0.4596 O   0  0  0  0  0  0  0  0  0  0  0  0
    1.3725    2.0362   -1.3694 C   0  0  2  0  0  0  0  0  0  0  0  0
    1.6812    1.6898   -2.8434 C   0  0  0  0  0  0  0  0  0  0  0  0
    2.7096    2.7408   -3.2930 C   0  0  0  0  0  0  0  0  0  0  0  0
    3.0912    2.9263   -4.4235 O   0  0  0  0  0  0  0  0  0  0  0  0
    3.1301    3.4754   -2.0731 C   0  0  0  0  0  0  0  0  0  0  0  0
    2.4152    3.0732   -1.0190 C   0  0  0  0  0  0  0  0  0  0  0  0
    0.6567   -0.5416    1.5543 H   0  0  0  0  0  0  0  0  0  0  0  0
   -0.2259   -1.7193    0.5595 H   0  0  0  0  0  0  0  0  0  0  0  0
    1.5326   -1.5468    0.3866 H   0  0  0  0  0  0  0  0  0  0  0  0
    0.3182   -0.4137   -1.4999 H   0  0  0  0  0  0  0  0  0  0  0  0
   -0.5563    0.5973   -0.3357 H   0  0  0  0  0  0  0  0  0  0  0  0
    0.3673    2.4854   -1.2824 H   0  0  0  0  0  0  0  0  0  0  0  0
    2.1500    0.7013   -2.8927 H   0  0  0  0  0  0  0  0  0  0  0  0
    0.8167    1.6871   -3.5107 H   0  0  0  0  0  0  0  0  0  0  0  0
    3.9076    4.2285   -2.0895 H   0  0  0  0  0  0  0  0  0  0  0  0
    2.5172    3.4237    0.0019 H   0  0  0  0  0  0  0  0  0  0  0  0
  1 10  1  0  0  0  0
  2  3  1  0  0  0  0
  2 14  1  0  0  0  0
  2  1  1  0  0  0  0
  4 15  1  1  0  0  0
  4  9  1  0  0  0  0
  4  3  1  0  0  0  0
  5  4  1  0  0  0  0
  6  5  1  0  0  0  0
  6  8  1  0  0  0  0
  7  6  2  0  0  0  0
  8  9  2  0  0  0  0
  9 19  1  0  0  0  0
 11  1  1  0  0  0  0
 12  1  1  0  0  0  0
 13  2  1  0  0  0  0
 16  5  1  0  0  0  0
 17  5  1  0  0  0  0
 18  8  1  0  0  0  0
M TOR 0 0 1 2 3
M TOR 1 1 2 3 4
M TOR 2 1 2 3 8
M TOR 3 1 2 3 14
M TOR 4 2 1 0 9
M TOR 5 2 1 0 10
M TOR 6 2 1 0 11
M TOR 7 2 3 4 5
M TOR 8 2 3 4 15
M TOR 9 2 3 4 16
M TOR 10 2 3 8 7
M TOR 11 2 3 8 18
M TOR 12 3 2 1 12
M TOR 13 3 2 1 13
M TOR 14 3 4 5 6
M TOR 15 3 4 5 7
M TOR 16 3 8 7 5
M TOR 17 3 8 7 17
M TOR 18 4 3 8 7
M TOR 19 4 3 8 18
M TOR 20 4 5 7 8
M TOR 21 4 5 7 17
M TOR 22 5 4 3 8
M TOR 23 5 4 3 14
M TOR 24 5 7 8 18
M TOR 25 6 5 4 15
M TOR 26 6 5 4 16
M TOR 27 6 5 7 8
M TOR 28 6 5 7 17
M TOR 29 7 5 4 15
M TOR 30 7 5 4 16
M TOR 31 7 8 3 14
M TOR 32 8 3 4 15
M TOR 33 8 3 4 16
M  END
$$$$
