
     RDKit          3D

 19 21  0  0  0  0  0  0  0  0999 V2000
    0.0281    2.3640    3.5306 C   0  0  0  0  0  0  0  0  0  0  0  0
   -0.8258    1.7666    2.4615 C   0  0  0  0  0  0  0  0  0  0  0  0
   -1.2560    0.3330    2.1349 C   0  0  0  0  0  0  0  0  0  0  0  0
   -0.8284    0.4805    0.6790 C   0  0  0  0  0  0  0  0  0  0  0  0
    0.4881    0.0514    0.4040 O   0  0  0  0  0  0  0  0  0  0  0  0
   -0.9897    2.0135    0.8952 C   0  0  0  0  0  0  0  0  0  0  0  0
   -2.5160    2.2134    1.1181 C   0  0  0  0  0  0  0  0  0  0  0  0
   -2.2899    1.4462    2.4182 C   0  0  0  0  0  0  0  0  0  0  0  0
   -3.1151    1.3959    3.5231 O   0  0  0  0  0  0  0  0  0  0  0  0
   -0.2421    1.9474    4.5064 H   0  0  0  0  0  0  0  0  0  0  0  0
    1.0949    2.1713    3.3675 H   0  0  0  0  0  0  0  0  0  0  0  0
   -0.1061    3.4505    3.5871 H   0  0  0  0  0  0  0  0  0  0  0  0
   -1.2033   -0.5399    2.7758 H   0  0  0  0  0  0  0  0  0  0  0  0
   -1.4512    0.0290   -0.1011 H   0  0  0  0  0  0  0  0  0  0  0  0
    1.0436    0.3270    1.1426 H   0  0  0  0  0  0  0  0  0  0  0  0
   -0.4094    2.7094    0.2922 H   0  0  0  0  0  0  0  0  0  0  0  0
   -2.7716    3.2579    1.3185 H   0  0  0  0  0  0  0  0  0  0  0  0
   -3.1945    1.8031    0.3601 H   0  0  0  0  0  0  0  0  0  0  0  0
   -3.7613    0.6929    3.3928 H   0  0  0  0  0  0  0  0  0  0  0  0
  1  2  1  0
  2  3  1  0
  3  4  1  0
  4  5  1  0
  4  6  1  0
  6  7  1  0
  7  8  1  0
  8  9  1  0
  6  2  1  0
  8  2  1  0
  8  3  1  0
  1 10  1  0
  1 11  1  0
  1 12  1  0
  3 13  1  0
  4 14  1  0
  5 15  1  0
  6 16  1  0
  7 17  1  0
  7 18  1  0
  9 19  1  0
M  END
$$$$
