gdb 2314	2.5786642	2.0339815	1.6450183	0.7294	74.3	-0.24165	0.06235	0.304	908.4574	0.157635	-422.481993	-422.47483	-422.473886	-422.512863	29.969
 OpenBabel02181911413D

 19 21  0  0  1  0  0  0  0  0999 V2000
   -0.1655    0.1213   -0.0995 C   0  0  0  0  0  0  0  0  0  0  0  0
    1.3507    0.1852    0.0189 C   0  0  2  0  0  0  0  0  0  0  0  0
    1.9538    0.6696   -1.3526 C   0  0  0  0  0  0  0  0  0  0  0  0
    2.1467   -0.7501   -1.7113 O   0  0  0  0  0  0  0  0  0  0  0  0
    2.1770   -1.0376   -0.3048 C   0  0  2  0  0  0  0  0  0  0  0  0
    1.7378   -2.0171    0.8100 C   0  0  0  0  0  0  0  0  0  0  0  0
    2.4446   -0.8431    1.6334 C   0  0  1  0  0  0  0  0  0  0  0  0
    3.4860   -0.7992    0.5107 C   0  0  0  0  0  0  0  0  0  0  0  0
    1.7211    0.4044    1.3911 O   0  0  0  0  0  0  0  0  0  0  0  0
   -0.6098   -0.4545    0.7143 H   0  0  0  0  0  0  0  0  0  0  0  0
   -0.5749    1.1362   -0.0468 H   0  0  0  0  0  0  0  0  0  0  0  0
   -0.4612   -0.3186   -1.0565 H   0  0  0  0  0  0  0  0  0  0  0  0
    1.2658    1.1600   -2.0447 H   0  0  0  0  0  0  0  0  0  0  0  0
    2.9072    1.2028   -1.3087 H   0  0  0  0  0  0  0  0  0  0  0  0
    0.6739   -2.2069    0.9481 H   0  0  0  0  0  0  0  0  0  0  0  0
    2.3163   -2.9373    0.9059 H   0  0  0  0  0  0  0  0  0  0  0  0
    2.6735   -0.9439    2.6912 H   0  0  0  0  0  0  0  0  0  0  0  0
    4.0311    0.1379    0.3964 H   0  0  0  0  0  0  0  0  0  0  0  0
    4.1545   -1.6608    0.4707 H   0  0  0  0  0  0  0  0  0  0  0  0
  1 11  1  0  0  0  0
  1 10  1  0  0  0  0
  2  1  1  6  0  0  0
  2  9  1  0  0  0  0
  3 14  1  0  0  0  0
  3  2  1  0  0  0  0
  4  3  1  0  0  0  0
  5  4  1  6  0  0  0
  5  2  1  0  0  0  0
  5  8  1  0  0  0  0
  5  6  1  0  0  0  0
  6 16  1  0  0  0  0
  6 15  1  0  0  0  0
  6  7  1  0  0  0  0
  7 17  1  1  0  0  0
  8  7  1  0  0  0  0
  9  7  1  0  0  0  0
 12  1  1  0  0  0  0
 13  3  1  0  0  0  0
 18  8  1  0  0  0  0
 19  8  1  0  0  0  0
M TOR 0 0 1 2 3
M TOR 1 0 1 2 12
M TOR 2 0 1 2 13
M TOR 3 0 1 4 3
M TOR 4 0 1 4 5
M TOR 5 0 1 4 7
M TOR 6 0 1 8 6
M TOR 7 1 2 3 4
M TOR 8 1 4 5 6
M TOR 9 1 4 5 14
M TOR 10 1 4 5 15
M TOR 11 1 4 7 6
M TOR 12 1 4 7 17
M TOR 13 1 4 7 18
M TOR 14 1 8 6 5
M TOR 15 1 8 6 7
M TOR 16 1 8 6 16
M TOR 17 2 1 0 9
M TOR 18 2 1 0 10
M TOR 19 2 1 0 11
M TOR 20 2 1 4 5
M TOR 21 2 1 4 7
M TOR 22 2 1 8 6
M TOR 23 2 3 4 5
M TOR 24 2 3 4 7
M TOR 25 3 2 1 8
M TOR 26 3 4 1 8
M TOR 27 3 4 5 6
M TOR 28 3 4 5 14
M TOR 29 3 4 5 15
M TOR 30 3 4 7 6
M TOR 31 3 4 7 17
M TOR 32 3 4 7 18
M TOR 33 4 1 0 9
M TOR 34 4 1 0 10
M TOR 35 4 1 0 11
M TOR 36 4 1 2 12
M TOR 37 4 1 2 13
M TOR 38 4 1 8 6
M TOR 39 4 3 2 12
M TOR 40 4 3 2 13
M TOR 41 4 5 6 7
M TOR 42 4 5 6 8
M TOR 43 4 5 6 16
M TOR 44 4 7 6 8
M TOR 45 4 7 6 16
M TOR 46 5 4 1 8
M TOR 47 5 4 7 17
M TOR 48 5 4 7 18
M TOR 49 5 6 7 17
M TOR 50 5 6 7 18
M TOR 51 7 4 1 8
M TOR 52 7 4 5 14
M TOR 53 7 4 5 15
M TOR 54 7 6 5 14
M TOR 55 7 6 5 15
M TOR 56 8 1 0 9
M TOR 57 8 1 0 10
M TOR 58 8 1 0 11
M TOR 59 8 1 2 12
M TOR 60 8 1 2 13
M TOR 61 8 6 5 14
M TOR 62 8 6 5 15
M TOR 63 8 6 7 17
M TOR 64 8 6 7 18
M  END
$$$$
