gdb 3389	2.9981527	1.3457125	1.0929797	2.1687	75.73	-0.22778	0.07517	0.30295	1147.3667	0.156721	-422.523938	-422.515652	-422.514708	-422.556568	32.054
 OpenBabel02181911413D

 19 21  0  0  1  0  0  0  0  0999 V2000
    0.3655   -0.3198    0.2067 O   0  0  0  0  0  0  0  0  0  0  0  0
   -0.6168    0.5507    0.6869 C   0  0  1  0  0  0  0  0  0  0  0  0
   -1.4775    0.1786    1.8635 C   0  0  2  0  0  0  0  0  0  0  0  0
   -2.8184    0.8822    1.9814 C   0  0  0  0  0  0  0  0  0  0  0  0
   -2.5488    2.2616    1.7224 O   0  0  0  0  0  0  0  0  0  0  0  0
   -1.2353    2.5466    2.1609 C   0  0  0  0  0  0  0  0  0  0  0  0
   -0.7524    3.9370    1.9183 C   0  0  0  0  0  0  0  0  0  0  0  0
   -1.0502    3.4704    3.3369 C   0  0  0  0  0  0  0  0  0  0  0  0
   -0.4360    1.2877    1.9902 C   0  0  2  0  0  0  0  0  0  0  0  0
    0.7414   -0.8042    0.9487 H   0  0  0  0  0  0  0  0  0  0  0  0
   -1.0745    1.0819   -0.1419 H   0  0  0  0  0  0  0  0  0  0  0  0
   -1.3426   -0.7886    2.3366 H   0  0  0  0  0  0  0  0  0  0  0  0
   -3.5655    0.5595    1.2492 H   0  0  0  0  0  0  0  0  0  0  0  0
   -3.2336    0.7415    2.9917 H   0  0  0  0  0  0  0  0  0  0  0  0
    0.2817    4.0786    1.6237 H   0  0  0  0  0  0  0  0  0  0  0  0
   -1.4541    4.6276    1.4641 H   0  0  0  0  0  0  0  0  0  0  0  0
   -0.2188    3.3018    4.0139 H   0  0  0  0  0  0  0  0  0  0  0  0
   -1.9515    3.8526    3.8029 H   0  0  0  0  0  0  0  0  0  0  0  0
    0.4793    1.1562    2.5571 H   0  0  0  0  0  0  0  0  0  0  0  0
  1  2  1  0  0  0  0
  1 10  1  0  0  0  0
  2 11  1  6  0  0  0
  2  3  1  0  0  0  0
  2  9  1  0  0  0  0
  3  4  1  0  0  0  0
  3  9  1  0  0  0  0
  3 12  1  1  0  0  0
  4 14  1  0  0  0  0
  5  4  1  0  0  0  0
  5  6  1  0  0  0  0
  6  8  1  0  0  0  0
  7  6  1  0  0  0  0
  7  8  1  0  0  0  0
  8 18  1  0  0  0  0
  8 17  1  0  0  0  0
  9  6  1  0  0  0  0
  9 19  1  1  0  0  0
 13  4  1  0  0  0  0
 15  7  1  0  0  0  0
 16  7  1  0  0  0  0
M TOR 0 0 1 2 3
M TOR 1 0 1 2 8
M TOR 2 0 1 2 11
M TOR 3 0 1 8 5
M TOR 4 0 1 8 18
M TOR 5 1 2 3 4
M TOR 6 1 2 3 12
M TOR 7 1 2 3 13
M TOR 8 1 2 8 5
M TOR 9 1 2 8 18
M TOR 10 1 8 2 3
M TOR 11 1 8 2 11
M TOR 12 1 8 5 4
M TOR 13 1 8 5 6
M TOR 14 1 8 5 7
M TOR 15 2 1 0 9
M TOR 16 2 3 4 5
M TOR 17 2 8 1 10
M TOR 18 2 8 5 4
M TOR 19 2 8 5 6
M TOR 20 2 8 5 7
M TOR 21 3 2 1 10
M TOR 22 3 2 8 5
M TOR 23 3 2 8 18
M TOR 24 3 4 5 6
M TOR 25 3 4 5 7
M TOR 26 3 4 5 8
M TOR 27 4 3 2 8
M TOR 28 4 3 2 11
M TOR 29 4 5 6 7
M TOR 30 4 5 6 14
M TOR 31 4 5 6 15
M TOR 32 4 5 7 16
M TOR 33 4 5 7 17
M TOR 34 4 5 8 18
M TOR 35 5 4 3 12
M TOR 36 5 4 3 13
M TOR 37 5 6 7 16
M TOR 38 5 6 7 17
M TOR 39 5 7 6 14
M TOR 40 5 7 6 15
M TOR 41 5 8 1 10
M TOR 42 5 8 2 11
M TOR 43 6 5 8 18
M TOR 44 6 7 5 8
M TOR 45 7 5 8 18
M TOR 46 8 1 0 9
M TOR 47 8 2 3 12
M TOR 48 8 2 3 13
M TOR 49 8 5 6 14
M TOR 50 8 5 6 15
M TOR 51 8 5 7 16
M TOR 52 8 5 7 17
M  END
$$$$
