
     RDKit          3D

 19 19  0  0  0  0  0  0  0  0999 V2000
    3.1356   -3.5163   -1.6573 C   0  0  0  0  0  0  0  0  0  0  0  0
    3.3476   -2.0275   -1.5659 C   0  0  0  0  0  0  0  0  0  0  0  0
    3.0075   -1.3628   -2.7484 O   0  0  0  0  0  0  0  0  0  0  0  0
    4.5125   -1.4423   -0.8092 C   0  0  0  0  0  0  0  0  0  0  0  0
    5.1229   -0.3585   -1.4608 O   0  0  0  0  0  0  0  0  0  0  0  0
    3.1042   -1.2909   -0.2529 C   0  0  0  0  0  0  0  0  0  0  0  0
    2.4115    0.0654   -0.2499 C   0  0  0  0  0  0  0  0  0  0  0  0
    1.0434   -0.0146    0.2504 C   0  0  0  0  0  0  0  0  0  0  0  0
   -0.0777   -0.0943    0.6756 C   0  0  0  0  0  0  0  0  0  0  0  0
    3.4036   -4.0092   -0.7181 H   0  0  0  0  0  0  0  0  0  0  0  0
    2.0847   -3.7370   -1.8703 H   0  0  0  0  0  0  0  0  0  0  0  0
    3.7439   -3.9422   -2.4616 H   0  0  0  0  0  0  0  0  0  0  0  0
    3.7214   -0.7338   -2.9235 H   0  0  0  0  0  0  0  0  0  0  0  0
    5.2063   -2.1068   -0.2960 H   0  0  0  0  0  0  0  0  0  0  0  0
    5.2456    0.3602   -0.8321 H   0  0  0  0  0  0  0  0  0  0  0  0
    2.8843   -1.9099    0.6118 H   0  0  0  0  0  0  0  0  0  0  0  0
    2.9715    0.7851    0.3645 H   0  0  0  0  0  0  0  0  0  0  0  0
    2.4002    0.4610   -1.2710 H   0  0  0  0  0  0  0  0  0  0  0  0
   -1.0724   -0.1557    1.0413 H   0  0  0  0  0  0  0  0  0  0  0  0
  1  2  1  0
  2  3  1  0
  2  4  1  0
  4  5  1  0
  4  6  1  0
  6  7  1  0
  7  8  1  0
  8  9  3  0
  6  2  1  0
  1 10  1  0
  1 11  1  0
  1 12  1  0
  3 13  1  0
  4 14  1  0
  5 15  1  0
  6 16  1  0
  7 17  1  0
  7 18  1  0
  9 19  1  0
M  END
$$$$
