
     RDKit          3D

 19 20  0  0  0  0  0  0  0  0999 V2000
   -0.2272    2.5391   -0.3612 C   0  0  0  0  0  0  0  0  0  0  0  0
   -0.7439    1.2471    0.2155 C   0  0  0  0  0  0  0  0  0  0  0  0
   -1.5884    1.2589    1.5023 C   0  0  0  0  0  0  0  0  0  0  0  0
   -2.2034    0.8168    0.2145 C   0  0  0  0  0  0  0  0  0  0  0  0
   -3.1356    1.6315   -0.4237 O   0  0  0  0  0  0  0  0  0  0  0  0
   -2.2840   -0.6883   -0.0347 C   0  0  0  0  0  0  0  0  0  0  0  0
   -0.8601   -1.2197    0.2272 C   0  0  0  0  0  0  0  0  0  0  0  0
    0.0603   -0.0041    0.0339 C   0  0  0  0  0  0  0  0  0  0  0  0
    1.2244   -0.0488   -0.2815 O   0  0  0  0  0  0  0  0  0  0  0  0
    0.6524    2.8864    0.1888 H   0  0  0  0  0  0  0  0  0  0  0  0
    0.0697    2.4043   -1.4054 H   0  0  0  0  0  0  0  0  0  0  0  0
   -0.9979    3.3127   -0.3224 H   0  0  0  0  0  0  0  0  0  0  0  0
   -1.3860    0.5455    2.2951 H   0  0  0  0  0  0  0  0  0  0  0  0
   -1.8488    2.2556    1.8430 H   0  0  0  0  0  0  0  0  0  0  0  0
   -3.9382    1.6483    0.1086 H   0  0  0  0  0  0  0  0  0  0  0  0
   -3.0457   -1.1738    0.5855 H   0  0  0  0  0  0  0  0  0  0  0  0
   -2.5643   -0.8398   -1.0821 H   0  0  0  0  0  0  0  0  0  0  0  0
   -0.7434   -1.5921    1.2519 H   0  0  0  0  0  0  0  0  0  0  0  0
   -0.5550   -2.0274   -0.4402 H   0  0  0  0  0  0  0  0  0  0  0  0
  1  2  1  0
  2  3  1  0
  3  4  1  0
  4  5  1  0
  4  6  1  0
  6  7  1  0
  7  8  1  0
  8  9  2  0
  4  2  1  0
  8  2  1  0
  1 10  1  0
  1 11  1  0
  1 12  1  0
  3 13  1  0
  3 14  1  0
  5 15  1  0
  6 16  1  0
  6 17  1  0
  7 18  1  0
  7 19  1  0
M  END
$$$$
