gdb 5170	3.1682024	1.3476455	1.1262063	0.3103	75.62	-0.23801	0.06273	0.30074	1158.7683	0.15398	-422.463529	-422.454745	-422.453801	-422.496855	33.008
 OpenBabel02181911423D

 19 21  0  0  1  0  0  0  0  0999 V2000
    0.1988    0.0106   -0.3176 C   0  0  0  0  0  0  0  0  0  0  0  0
    1.6626   -0.0169    0.1389 C   0  0  0  0  0  0  0  0  0  0  0  0
    2.5088   -0.9291   -0.6888 C   0  0  1  0  0  0  0  0  0  0  0  0
    2.6515   -0.6877   -2.1250 O   0  0  0  0  0  0  0  0  0  0  0  0
    3.4710   -1.8808   -1.9334 C   0  0  1  0  0  0  0  0  0  0  0  0
    4.1758   -2.4986   -3.0933 C   0  0  0  0  0  0  0  0  0  0  0  0
    3.9775   -1.4403   -0.5184 C   0  0  2  0  0  0  0  0  0  0  0  0
    3.5928   -2.6842    0.1335 O   0  0  0  0  0  0  0  0  0  0  0  0
    2.5292   -2.4893   -0.8412 C   0  0  1  0  0  0  0  0  0  0  0  0
   -0.3832    0.7133    0.2851 H   0  0  0  0  0  0  0  0  0  0  0  0
    0.1269    0.3138   -1.3655 H   0  0  0  0  0  0  0  0  0  0  0  0
   -0.2620   -0.9778   -0.2214 H   0  0  0  0  0  0  0  0  0  0  0  0
    2.0922    0.9913    0.0935 H   0  0  0  0  0  0  0  0  0  0  0  0
    1.7395   -0.3498    1.1811 H   0  0  0  0  0  0  0  0  0  0  0  0
    4.7352   -3.3761   -2.7551 H   0  0  0  0  0  0  0  0  0  0  0  0
    3.4597   -2.8121   -3.8589 H   0  0  0  0  0  0  0  0  0  0  0  0
    4.8753   -1.7882   -3.5440 H   0  0  0  0  0  0  0  0  0  0  0  0
    4.8883   -0.9318   -0.2003 H   0  0  0  0  0  0  0  0  0  0  0  0
    1.7269   -3.2249   -0.9070 H   0  0  0  0  0  0  0  0  0  0  0  0
  1 12  1  0  0  0  0
  1  2  1  0  0  0  0
  1 10  1  0  0  0  0
  2 14  1  0  0  0  0
  3  7  1  0  0  0  0
  3  2  1  1  0  0  0
  4  5  1  0  0  0  0
  4  3  1  0  0  0  0
  5  6  1  6  0  0  0
  5  9  1  0  0  0  0
  5  7  1  0  0  0  0
  6 15  1  0  0  0  0
  7 18  1  1  0  0  0
  7  8  1  0  0  0  0
  9 19  1  6  0  0  0
  9  3  1  0  0  0  0
  9  8  1  0  0  0  0
 11  1  1  0  0  0  0
 13  2  1  0  0  0  0
 16  6  1  0  0  0  0
 17  6  1  0  0  0  0
M TOR 0 0 1 2 3
M TOR 1 0 1 2 6
M TOR 2 0 1 2 8
M TOR 3 1 2 3 4
M TOR 4 1 2 6 4
M TOR 5 1 2 6 7
M TOR 6 1 2 6 17
M TOR 7 1 2 8 4
M TOR 8 1 2 8 7
M TOR 9 1 2 8 18
M TOR 10 2 1 0 9
M TOR 11 2 1 0 10
M TOR 12 2 1 0 11
M TOR 13 2 3 4 5
M TOR 14 2 3 4 6
M TOR 15 2 3 4 8
M TOR 16 2 6 4 5
M TOR 17 2 6 4 8
M TOR 18 2 6 7 8
M TOR 19 2 8 4 5
M TOR 20 3 2 1 12
M TOR 21 3 2 1 13
M TOR 22 3 2 6 7
M TOR 23 3 2 6 17
M TOR 24 3 2 8 7
M TOR 25 3 2 8 18
M TOR 26 3 4 5 14
M TOR 27 3 4 5 15
M TOR 28 3 4 5 16
M TOR 29 3 4 6 7
M TOR 30 3 4 6 17
M TOR 31 3 4 8 7
M TOR 32 3 4 8 18
M TOR 33 4 6 7 8
M TOR 34 5 4 6 7
M TOR 35 5 4 6 17
M TOR 36 5 4 8 7
M TOR 37 5 4 8 18
M TOR 38 6 2 1 12
M TOR 39 6 2 1 13
M TOR 40 6 2 8 18
M TOR 41 6 4 5 14
M TOR 42 6 4 5 15
M TOR 43 6 4 5 16
M TOR 44 6 4 8 18
M TOR 45 6 7 8 18
M TOR 46 8 2 1 12
M TOR 47 8 2 1 13
M TOR 48 8 2 6 17
M TOR 49 8 4 5 14
M TOR 50 8 4 5 15
M TOR 51 8 4 5 16
M TOR 52 8 4 6 17
M TOR 53 8 7 6 17
M  END
$$$$
