
     RDKit          3D

 19 21  0  0  0  0  0  0  0  0999 V2000
   -0.7072    0.6612    0.0425 O   0  0  0  0  0  0  0  0  0  0  0  0
   -1.7231    0.2935    0.9218 C   0  0  0  0  0  0  0  0  0  0  0  0
   -3.1494    0.9871    0.8948 C   0  0  0  0  0  0  0  0  0  0  0  0
   -2.4953    2.2100    1.5829 C   0  0  0  0  0  0  0  0  0  0  0  0
   -1.9114    0.9607    2.3258 C   0  0  0  0  0  0  0  0  0  0  0  0
   -1.5096    0.9586    3.7747 C   0  0  0  0  0  0  0  0  0  0  0  0
   -2.7626    1.1768    4.4567 O   0  0  0  0  0  0  0  0  0  0  0  0
   -3.9072    0.9296    3.5977 C   0  0  0  0  0  0  0  0  0  0  0  0
   -3.3361    0.3513    2.3086 C   0  0  0  0  0  0  0  0  0  0  0  0
   -0.6505    1.6211   -0.0029 H   0  0  0  0  0  0  0  0  0  0  0  0
   -1.7398   -0.7991    0.9211 H   0  0  0  0  0  0  0  0  0  0  0  0
   -3.8548    0.9879    0.0627 H   0  0  0  0  0  0  0  0  0  0  0  0
   -1.7988    2.8157    0.9946 H   0  0  0  0  0  0  0  0  0  0  0  0
   -3.1479    2.8709    2.1522 H   0  0  0  0  0  0  0  0  0  0  0  0
   -1.0694   -0.0032    4.0759 H   0  0  0  0  0  0  0  0  0  0  0  0
   -0.8277    1.7639    4.0663 H   0  0  0  0  0  0  0  0  0  0  0  0
   -4.5654    0.2156    4.1038 H   0  0  0  0  0  0  0  0  0  0  0  0
   -4.4619    1.8665    3.4737 H   0  0  0  0  0  0  0  0  0  0  0  0
   -3.3653   -0.7431    2.3079 H   0  0  0  0  0  0  0  0  0  0  0  0
  1  2  1  0
  2  3  1  0
  3  4  1  0
  4  5  1  0
  5  6  1  0
  6  7  1  0
  7  8  1  0
  8  9  1  0
  5  2  1  0
  9  5  1  0
  9  3  1  0
  1 10  1  0
  2 11  1  0
  3 12  1  0
  4 13  1  0
  4 14  1  0
  6 15  1  0
  6 16  1  0
  8 17  1  0
  8 18  1  0
  9 19  1  0
M  END
$$$$
