gdb 3883	2.5903237	1.664219	1.2409009	2.2053	75.32	-0.23241	0.08704	0.31945	1066.3412	0.156301	-422.526692	-422.518602	-422.517658	-422.559146	31.505
 OpenBabel02181911413D

 19 21  0  0  1  0  0  0  0  0999 V2000
    0.5805    0.0085   -0.4801 C   0  0  0  0  0  0  0  0  0  0  0  0
    0.9779   -0.3917    0.9396 C   0  0  2  0  0  0  0  0  0  0  0  0
    2.4005   -0.5501    1.0710 O   0  0  0  0  0  0  0  0  0  0  0  0
    2.7409   -1.9188    1.0173 C   0  0  0  0  0  0  0  0  0  0  0  0
    3.6844   -2.4094   -0.0534 C   0  0  0  0  0  0  0  0  0  0  0  0
    4.1384   -2.2856    1.3913 C   0  0  0  0  0  0  0  0  0  0  0  0
    1.5151   -2.6877    1.3843 C   0  0  1  0  0  0  0  0  0  0  0  0
    0.8956   -2.2180    2.5914 O   0  0  0  0  0  0  0  0  0  0  0  0
    0.4009   -1.7388    1.3392 C   0  0  1  0  0  0  0  0  0  0  0  0
    0.8315   -0.7806   -1.1961 H   0  0  0  0  0  0  0  0  0  0  0  0
   -0.4961    0.2017   -0.5422 H   0  0  0  0  0  0  0  0  0  0  0  0
    1.1100    0.9187   -0.7725 H   0  0  0  0  0  0  0  0  0  0  0  0
    0.6910    0.3930    1.6494 H   0  0  0  0  0  0  0  0  0  0  0  0
    3.5399   -3.4001   -0.4733 H   0  0  0  0  0  0  0  0  0  0  0  0
    4.0469   -1.6643   -0.7523 H   0  0  0  0  0  0  0  0  0  0  0  0
    4.3003   -3.1888    1.9692 H   0  0  0  0  0  0  0  0  0  0  0  0
    4.8017   -1.4639    1.6358 H   0  0  0  0  0  0  0  0  0  0  0  0
    1.4285   -3.7497    1.1739 H   0  0  0  0  0  0  0  0  0  0  0  0
   -0.6210   -2.0061    1.0832 H   0  0  0  0  0  0  0  0  0  0  0  0
  1  2  1  0  0  0  0
  2  3  1  0  0  0  0
  2  9  1  0  0  0  0
  2 13  1  1  0  0  0
  4  3  1  0  0  0  0
  4  7  1  0  0  0  0
  4  6  1  0  0  0  0
  5  4  1  0  0  0  0
  5  6  1  0  0  0  0
  6 17  1  0  0  0  0
  6 16  1  0  0  0  0
  7 18  1  6  0  0  0
  7  8  1  0  0  0  0
  9 19  1  6  0  0  0
  9  7  1  0  0  0  0
  9  8  1  0  0  0  0
 10  1  1  0  0  0  0
 11  1  1  0  0  0  0
 12  1  1  0  0  0  0
 14  5  1  0  0  0  0
 15  5  1  0  0  0  0
M TOR 0 0 1 2 3
M TOR 1 0 1 8 6
M TOR 2 0 1 8 7
M TOR 3 0 1 8 18
M TOR 4 1 2 3 4
M TOR 5 1 2 3 5
M TOR 6 1 2 3 6
M TOR 7 1 8 6 3
M TOR 8 1 8 6 7
M TOR 9 1 8 6 17
M TOR 10 2 1 0 9
M TOR 11 2 1 0 10
M TOR 12 2 1 0 11
M TOR 13 2 1 8 6
M TOR 14 2 1 8 7
M TOR 15 2 1 8 18
M TOR 16 2 3 4 5
M TOR 17 2 3 4 13
M TOR 18 2 3 4 14
M TOR 19 2 3 5 15
M TOR 20 2 3 5 16
M TOR 21 2 3 6 7
M TOR 22 2 3 6 8
M TOR 23 2 3 6 17
M TOR 24 3 2 1 8
M TOR 25 3 2 1 12
M TOR 26 3 4 5 15
M TOR 27 3 4 5 16
M TOR 28 3 5 4 13
M TOR 29 3 5 4 14
M TOR 30 3 6 7 8
M TOR 31 3 6 8 18
M TOR 32 4 3 6 7
M TOR 33 4 3 6 8
M TOR 34 4 3 6 17
M TOR 35 4 5 3 6
M TOR 36 5 3 6 7
M TOR 37 5 3 6 8
M TOR 38 5 3 6 17
M TOR 39 6 3 4 13
M TOR 40 6 3 4 14
M TOR 41 6 3 5 15
M TOR 42 6 3 5 16
M TOR 43 6 7 8 18
M TOR 44 6 8 1 12
M TOR 45 7 8 1 12
M TOR 46 7 8 6 17
M TOR 47 8 1 0 9
M TOR 48 8 1 0 10
M TOR 49 8 1 0 11
M  END
$$$$
