gdb 5329	2.9931171	1.0367904	0.8621908	2.8098	78.48	-0.24036	-0.0183	0.22205999999999998	1375.7681	0.155712	-422.591105	-422.581701	-422.580756	-422.625951	34.015
 OpenBabel02181911423D

 19 19  0  0  1  0  0  0  0  0999 V2000
    2.8777    3.2503    0.6321 C   0  0  0  0  0  0  0  0  0  0  0  0
    1.8894    2.5173   -0.2879 C   0  0  2  0  0  0  0  0  0  0  0  0
    0.9155    1.5900    0.3905 C   0  0  0  0  0  0  0  0  0  0  0  0
    0.9329    0.3445   -0.0971 C   0  0  0  0  0  0  0  0  0  0  0  0
    0.0935   -0.8061    0.3679 C   0  0  0  0  0  0  0  0  0  0  0  0
    0.8824   -1.9238    0.7691 O   0  0  0  0  0  0  0  0  0  0  0  0
    1.9452    0.1918   -1.2063 C   0  0  0  0  0  0  0  0  0  0  0  0
    2.6094    1.5730   -1.2755 C   0  0  0  0  0  0  0  0  0  0  0  0
    3.5483    1.8766   -1.9638 O   0  0  0  0  0  0  0  0  0  0  0  0
    2.3596    3.9739    1.2683 H   0  0  0  0  0  0  0  0  0  0  0  0
    3.4065    2.5448    1.2810 H   0  0  0  0  0  0  0  0  0  0  0  0
    3.6188    3.7813    0.0291 H   0  0  0  0  0  0  0  0  0  0  0  0
    1.3597    3.2740   -0.8872 H   0  0  0  0  0  0  0  0  0  0  0  0
    0.2638    1.9202    1.1940 H   0  0  0  0  0  0  0  0  0  0  0  0
   -0.5835   -0.4778    1.1709 H   0  0  0  0  0  0  0  0  0  0  0  0
   -0.5301   -1.1816   -0.4528 H   0  0  0  0  0  0  0  0  0  0  0  0
    1.4327   -1.6358    1.5052 H   0  0  0  0  0  0  0  0  0  0  0  0
    2.6856   -0.5937   -1.0181 H   0  0  0  0  0  0  0  0  0  0  0  0
    1.4878   -0.0522   -2.1753 H   0  0  0  0  0  0  0  0  0  0  0  0
  1 10  1  0  0  0  0
  1 11  1  0  0  0  0
  2 13  1  6  0  0  0
  2  3  1  0  0  0  0
  2  1  1  0  0  0  0
  3 14  1  0  0  0  0
  4  5  1  0  0  0  0
  4  3  2  0  0  0  0
  5  6  1  0  0  0  0
  5 15  1  0  0  0  0
  6 17  1  0  0  0  0
  7 18  1  0  0  0  0
  7  4  1  0  0  0  0
  8  7  1  0  0  0  0
  8  2  1  0  0  0  0
  9  8  2  0  0  0  0
 12  1  1  0  0  0  0
 16  5  1  0  0  0  0
 19  7  1  0  0  0  0
M TOR 0 0 1 2 3
M TOR 1 0 1 2 13
M TOR 2 0 1 7 6
M TOR 3 0 1 7 8
M TOR 4 1 2 3 4
M TOR 5 1 2 3 6
M TOR 6 1 7 6 3
M TOR 7 1 7 6 17
M TOR 8 1 7 6 18
M TOR 9 2 1 0 9
M TOR 10 2 1 0 10
M TOR 11 2 1 0 11
M TOR 12 2 1 7 6
M TOR 13 2 1 7 8
M TOR 14 2 3 4 5
M TOR 15 2 3 4 14
M TOR 16 2 3 4 15
M TOR 17 2 3 6 7
M TOR 18 2 3 6 17
M TOR 19 2 3 6 18
M TOR 20 3 2 1 7
M TOR 21 3 2 1 12
M TOR 22 3 4 5 16
M TOR 23 3 6 7 8
M TOR 24 4 3 2 13
M TOR 25 4 3 6 7
M TOR 26 4 3 6 17
M TOR 27 4 3 6 18
M TOR 28 5 4 3 6
M TOR 29 6 3 2 13
M TOR 30 6 3 4 14
M TOR 31 6 3 4 15
M TOR 32 6 7 1 12
M TOR 33 7 1 0 9
M TOR 34 7 1 0 10
M TOR 35 7 1 0 11
M TOR 36 7 1 2 13
M TOR 37 8 7 1 12
M TOR 38 8 7 6 17
M TOR 39 8 7 6 18
M  END
$$$$
