
     RDKit          3D

 19 19  0  0  0  0  0  0  0  0999 V2000
    2.8631   -3.7243   -1.2170 C   0  0  0  0  0  0  0  0  0  0  0  0
    3.2130   -2.2532   -1.2075 C   0  0  0  0  0  0  0  0  0  0  0  0
    4.4968   -1.7676   -0.5530 C   0  0  0  0  0  0  0  0  0  0  0  0
    3.1757   -1.4590    0.0752 C   0  0  0  0  0  0  0  0  0  0  0  0
    2.9209   -2.1172    1.2918 O   0  0  0  0  0  0  0  0  0  0  0  0
    2.6517   -0.0289    0.0961 C   0  0  0  0  0  0  0  0  0  0  0  0
    3.2574    0.7128    1.1419 O   0  0  0  0  0  0  0  0  0  0  0  0
    1.1827   -0.0507    0.2254 C   0  0  0  0  0  0  0  0  0  0  0  0
   -0.0092   -0.1228    0.3714 C   0  0  0  0  0  0  0  0  0  0  0  0
    3.1141   -4.1884   -0.2598 H   0  0  0  0  0  0  0  0  0  0  0  0
    1.7925   -3.8754   -1.3946 H   0  0  0  0  0  0  0  0  0  0  0  0
    3.4084   -4.2523   -2.0061 H   0  0  0  0  0  0  0  0  0  0  0  0
    2.9070   -1.7074   -2.0973 H   0  0  0  0  0  0  0  0  0  0  0  0
    5.1032   -2.5092   -0.0441 H   0  0  0  0  0  0  0  0  0  0  0  0
    5.0548   -0.9585   -1.0112 H   0  0  0  0  0  0  0  0  0  0  0  0
    1.9625   -2.2231    1.3620 H   0  0  0  0  0  0  0  0  0  0  0  0
    2.9260    0.4755   -0.8370 H   0  0  0  0  0  0  0  0  0  0  0  0
    3.2342    0.1357    1.9168 H   0  0  0  0  0  0  0  0  0  0  0  0
   -1.0651   -0.1512    0.4849 H   0  0  0  0  0  0  0  0  0  0  0  0
  1  2  1  0
  2  3  1  0
  3  4  1  0
  4  5  1  0
  4  6  1  0
  6  7  1  0
  6  8  1  0
  8  9  3  0
  4  2  1  0
  1 10  1  0
  1 11  1  0
  1 12  1  0
  2 13  1  0
  3 14  1  0
  3 15  1  0
  5 16  1  0
  6 17  1  0
  7 18  1  0
  9 19  1  0
M  END
$$$$
