gdb 2388	2.8175949	1.4822631	1.2160457	4.4088	74.53	-0.26252	0.01646	0.27897999999999995	1082.7214	0.157607	-422.602749	-422.594661	-422.593717	-422.635474	31.041
 OpenBabel02181911413D

 19 20  0  0  1  0  0  0  0  0999 V2000
   -3.1681   -1.2771   -1.0247 C   0  0  0  0  0  0  0  0  0  0  0  0
   -2.1872   -0.7381    0.0058 C   0  0  2  0  0  0  0  0  0  0  0  0
   -2.7901   -0.5523    1.4413 C   0  0  0  0  0  0  0  0  0  0  0  0
   -2.7737    0.9909    1.2456 C   0  0  0  0  0  0  0  0  0  0  0  0
   -1.9292    0.8054   -0.0315 C   0  0  1  0  0  0  0  0  0  0  0  0
   -0.5313    0.9958    0.2043 O   0  0  0  0  0  0  0  0  0  0  0  0
    0.1581   -0.1817    0.2422 C   0  0  0  0  0  0  0  0  0  0  0  0
    1.3328   -0.2224    0.4598 O   0  0  0  0  0  0  0  0  0  0  0  0
   -0.7900   -1.3453   -0.0468 C   0  0  0  0  0  0  0  0  0  0  0  0
   -3.3861   -2.3349   -0.8413 H   0  0  0  0  0  0  0  0  0  0  0  0
   -4.1195   -0.7347   -0.9928 H   0  0  0  0  0  0  0  0  0  0  0  0
   -2.7653   -1.1875   -2.0398 H   0  0  0  0  0  0  0  0  0  0  0  0
   -3.7714   -1.0068    1.5947 H   0  0  0  0  0  0  0  0  0  0  0  0
   -2.1244   -0.8984    2.2361 H   0  0  0  0  0  0  0  0  0  0  0  0
   -3.7603    1.4095    1.0323 H   0  0  0  0  0  0  0  0  0  0  0  0
   -2.2976    1.5879    2.0251 H   0  0  0  0  0  0  0  0  0  0  0  0
   -2.2057    1.3726   -0.9241 H   0  0  0  0  0  0  0  0  0  0  0  0
   -0.5415   -1.7398   -1.0391 H   0  0  0  0  0  0  0  0  0  0  0  0
   -0.6156   -2.1480    0.6735 H   0  0  0  0  0  0  0  0  0  0  0  0
  1 11  1  0  0  0  0
  1 10  1  0  0  0  0
  2  1  1  6  0  0  0
  2  3  1  0  0  0  0
  3 13  1  0  0  0  0
  3 14  1  0  0  0  0
  4  3  1  0  0  0  0
  4 16  1  0  0  0  0
  5 17  1  6  0  0  0
  5  2  1  0  0  0  0
  5  6  1  0  0  0  0
  5  4  1  0  0  0  0
  6  7  1  0  0  0  0
  7  8  2  0  0  0  0
  9  2  1  0  0  0  0
  9  7  1  0  0  0  0
  9 19  1  0  0  0  0
 12  1  1  0  0  0  0
 15  4  1  0  0  0  0
 18  9  1  0  0  0  0
M TOR 0 0 1 2 3
M TOR 1 0 1 2 12
M TOR 2 0 1 2 13
M TOR 3 0 1 4 3
M TOR 4 0 1 4 5
M TOR 5 0 1 4 16
M TOR 6 0 1 8 6
M TOR 7 0 1 8 17
M TOR 8 0 1 8 18
M TOR 9 1 2 3 4
M TOR 10 1 2 3 14
M TOR 11 1 2 3 15
M TOR 12 1 4 3 14
M TOR 13 1 4 3 15
M TOR 14 1 4 5 6
M TOR 15 1 8 6 5
M TOR 16 1 8 6 7
M TOR 17 2 1 0 9
M TOR 18 2 1 0 10
M TOR 19 2 1 0 11
M TOR 20 2 1 4 5
M TOR 21 2 1 4 16
M TOR 22 2 1 8 6
M TOR 23 2 1 8 17
M TOR 24 2 1 8 18
M TOR 25 2 3 4 5
M TOR 26 2 3 4 16
M TOR 27 3 2 1 8
M TOR 28 3 4 1 8
M TOR 29 3 4 5 6
M TOR 30 4 1 0 9
M TOR 31 4 1 0 10
M TOR 32 4 1 0 11
M TOR 33 4 1 2 12
M TOR 34 4 1 2 13
M TOR 35 4 1 8 6
M TOR 36 4 1 8 17
M TOR 37 4 1 8 18
M TOR 38 4 3 2 12
M TOR 39 4 3 2 13
M TOR 40 4 5 6 7
M TOR 41 4 5 6 8
M TOR 42 5 4 1 8
M TOR 43 5 4 3 14
M TOR 44 5 4 3 15
M TOR 45 5 6 8 17
M TOR 46 5 6 8 18
M TOR 47 6 5 4 16
M TOR 48 7 6 8 17
M TOR 49 7 6 8 18
M TOR 50 8 1 0 9
M TOR 51 8 1 0 10
M TOR 52 8 1 0 11
M TOR 53 8 1 2 12
M TOR 54 8 1 2 13
M TOR 55 8 1 4 16
M  END
$$$$
