
     RDKit          3D

 19 21  0  0  0  0  0  0  0  0999 V2000
   -1.5068   -1.1777    0.2139 O   0  0  0  0  0  0  0  0  0  0  0  0
   -0.9002   -0.1738    0.9537 C   0  0  0  0  0  0  0  0  0  0  0  0
   -0.0069   -0.4271    2.2218 C   0  0  0  0  0  0  0  0  0  0  0  0
    0.5913    0.9594    1.8275 C   0  0  0  0  0  0  0  0  0  0  0  0
   -0.6088    1.9062    2.0510 C   0  0  0  0  0  0  0  0  0  0  0  0
   -1.7381    1.0497    1.3854 C   0  0  0  0  0  0  0  0  0  0  0  0
    0.3488    0.5099    0.3782 C   0  0  0  0  0  0  0  0  0  0  0  0
    0.7060    1.0057   -0.9437 C   0  0  0  0  0  0  0  0  0  0  0  0
    1.3084   -0.1842   -0.3832 O   0  0  0  0  0  0  0  0  0  0  0  0
   -2.3385   -1.4135    0.6382 H   0  0  0  0  0  0  0  0  0  0  0  0
   -0.5028   -0.5082    3.1937 H   0  0  0  0  0  0  0  0  0  0  0  0
    0.6919   -1.2493    2.0632 H   0  0  0  0  0  0  0  0  0  0  0  0
    1.5761    1.2781    2.1629 H   0  0  0  0  0  0  0  0  0  0  0  0
   -0.7929    2.0889    3.1131 H   0  0  0  0  0  0  0  0  0  0  0  0
   -0.4749    2.8735    1.5594 H   0  0  0  0  0  0  0  0  0  0  0  0
   -2.5305    0.7712    2.0886 H   0  0  0  0  0  0  0  0  0  0  0  0
   -2.2023    1.5433    0.5269 H   0  0  0  0  0  0  0  0  0  0  0  0
    0.0416    0.8261   -1.7875 H   0  0  0  0  0  0  0  0  0  0  0  0
    1.3778    1.8565   -1.0497 H   0  0  0  0  0  0  0  0  0  0  0  0
  1  2  1  0
  2  3  1  0
  3  4  1  0
  4  5  1  0
  5  6  1  0
  4  7  1  0
  7  8  1  0
  8  9  1  0
  6  2  1  0
  9  7  1  0
  7  2  1  0
  1 10  1  0
  3 11  1  0
  3 12  1  0
  4 13  1  0
  5 14  1  0
  5 15  1  0
  6 16  1  0
  6 17  1  0
  8 18  1  0
  8 19  1  0
M  END
$$$$
