
     RDKit          3D

 19 19  0  0  0  0  0  0  0  0999 V2000
    1.3925   -0.2247   -0.1765 O   0  0  0  0  0  0  0  0  0  0  0  0
    0.2249    0.0343   -0.0467 C   0  0  0  0  0  0  0  0  0  0  0  0
   -0.3801    1.4197   -0.1472 C   0  0  0  0  0  0  0  0  0  0  0  0
   -1.0575    1.7928    1.1873 C   0  0  0  0  0  0  0  0  0  0  0  0
   -1.7421    3.1719    1.1151 C   0  0  0  0  0  0  0  0  0  0  0  0
   -2.6903    3.2771   -0.0720 C   0  0  0  0  0  0  0  0  0  0  0  0
   -3.8230    3.6841    0.0323 O   0  0  0  0  0  0  0  0  0  0  0  0
   -2.0947    2.8352   -1.4021 C   0  0  0  0  0  0  0  0  0  0  0  0
   -1.4057    1.4603   -1.2983 C   0  0  0  0  0  0  0  0  0  0  0  0
   -0.5214   -0.7692    0.1660 H   0  0  0  0  0  0  0  0  0  0  0  0
    0.4411    2.1157   -0.3553 H   0  0  0  0  0  0  0  0  0  0  0  0
   -1.8068    1.0295    1.4365 H   0  0  0  0  0  0  0  0  0  0  0  0
   -0.3229    1.7877    1.9992 H   0  0  0  0  0  0  0  0  0  0  0  0
   -2.2982    3.3946    2.0287 H   0  0  0  0  0  0  0  0  0  0  0  0
   -0.9719    3.9469    0.9947 H   0  0  0  0  0  0  0  0  0  0  0  0
   -2.8845    2.8347   -2.1569 H   0  0  0  0  0  0  0  0  0  0  0  0
   -1.3492    3.5866   -1.6982 H   0  0  0  0  0  0  0  0  0  0  0  0
   -2.1664    0.6861   -1.1304 H   0  0  0  0  0  0  0  0  0  0  0  0
   -0.9179    1.2195   -2.2486 H   0  0  0  0  0  0  0  0  0  0  0  0
  1  2  2  0
  2  3  1  0
  3  4  1  0
  4  5  1  0
  5  6  1  0
  6  7  2  0
  6  8  1  0
  8  9  1  0
  9  3  1  0
  2 10  1  0
  3 11  1  0
  4 12  1  0
  4 13  1  0
  5 14  1  0
  5 15  1  0
  8 16  1  0
  8 17  1  0
  9 18  1  0
  9 19  1  0
M  END
$$$$
