
     RDKit          3D

 19 20  0  0  0  0  0  0  0  0999 V2000
   -2.5529    2.2068   -1.4591 C   0  0  0  0  0  0  0  0  0  0  0  0
   -2.4301    2.0830    0.0446 C   0  0  0  0  0  0  0  0  0  0  0  0
   -2.7884    3.2988    0.7722 O   0  0  0  0  0  0  0  0  0  0  0  0
   -1.5735    3.2304    1.5152 C   0  0  0  0  0  0  0  0  0  0  0  0
   -0.3903    3.3998    0.6166 C   0  0  0  0  0  0  0  0  0  0  0  0
   -1.0596    2.0382    0.7397 C   0  0  0  0  0  0  0  0  0  0  0  0
   -0.3511    0.7755    1.1561 C   0  0  0  0  0  0  0  0  0  0  0  0
    0.3531    0.1284   -0.0231 C   0  0  0  0  0  0  0  0  0  0  0  0
    0.1528   -0.9932   -0.4109 O   0  0  0  0  0  0  0  0  0  0  0  0
   -2.2888    1.2565   -1.9357 H   0  0  0  0  0  0  0  0  0  0  0  0
   -3.5844    2.4484   -1.7339 H   0  0  0  0  0  0  0  0  0  0  0  0
   -1.9020    2.9907   -1.8550 H   0  0  0  0  0  0  0  0  0  0  0  0
   -3.0598    1.2608    0.4112 H   0  0  0  0  0  0  0  0  0  0  0  0
   -1.6064    3.4547    2.5754 H   0  0  0  0  0  0  0  0  0  0  0  0
   -0.4806    4.0043   -0.2809 H   0  0  0  0  0  0  0  0  0  0  0  0
    0.5709    3.4668    1.1183 H   0  0  0  0  0  0  0  0  0  0  0  0
    0.4121    1.0160    1.9093 H   0  0  0  0  0  0  0  0  0  0  0  0
   -1.0422    0.0461    1.5907 H   0  0  0  0  0  0  0  0  0  0  0  0
    1.0839    0.7942   -0.5372 H   0  0  0  0  0  0  0  0  0  0  0  0
  1  2  1  0
  2  3  1  0
  3  4  1  0
  4  5  1  0
  5  6  1  0
  6  7  1  0
  7  8  1  0
  8  9  2  0
  6  2  1  0
  6  4  1  0
  1 10  1  0
  1 11  1  0
  1 12  1  0
  2 13  1  0
  4 14  1  0
  5 15  1  0
  5 16  1  0
  7 17  1  0
  7 18  1  0
  8 19  1  0
M  END
$$$$
