
     RDKit          3D

 19 20  0  0  0  0  0  0  0  0999 V2000
    1.4311    0.1428   -0.1574 C   0  0  0  0  0  0  0  0  0  0  0  0
    0.0311   -0.0295    0.0178 O   0  0  0  0  0  0  0  0  0  0  0  0
   -0.4584    0.5689    1.1519 C   0  0  0  0  0  0  0  0  0  0  0  0
   -0.6970    2.0306    1.2692 C   0  0  0  0  0  0  0  0  0  0  0  0
   -1.9045    1.0801    1.3282 C   0  0  0  0  0  0  0  0  0  0  0  0
   -1.9375    0.4080    2.6652 C   0  0  0  0  0  0  0  0  0  0  0  0
   -2.8077    0.1662    3.4542 O   0  0  0  0  0  0  0  0  0  0  0  0
   -0.4675   -0.0942    2.5528 C   0  0  0  0  0  0  0  0  0  0  0  0
   -0.3965   -1.6197    2.5623 C   0  0  0  0  0  0  0  0  0  0  0  0
    2.0014   -0.3073    0.6662 H   0  0  0  0  0  0  0  0  0  0  0  0
    1.6953   -0.3596   -1.0898 H   0  0  0  0  0  0  0  0  0  0  0  0
    1.6960    1.2061   -0.2292 H   0  0  0  0  0  0  0  0  0  0  0  0
   -0.3931    2.5939    2.1474 H   0  0  0  0  0  0  0  0  0  0  0  0
   -0.6551    2.5839    0.3362 H   0  0  0  0  0  0  0  0  0  0  0  0
   -2.7153    1.1764    0.6169 H   0  0  0  0  0  0  0  0  0  0  0  0
    0.2350    0.3349    3.2764 H   0  0  0  0  0  0  0  0  0  0  0  0
   -0.7008   -1.9999    3.5412 H   0  0  0  0  0  0  0  0  0  0  0  0
   -1.0602   -2.0513    1.8072 H   0  0  0  0  0  0  0  0  0  0  0  0
    0.6192   -1.9699    2.3556 H   0  0  0  0  0  0  0  0  0  0  0  0
  1  2  1  0
  2  3  1  0
  3  4  1  0
  4  5  1  0
  5  6  1  0
  6  7  2  0
  6  8  1  0
  8  9  1  0
  5  3  1  0
  8  3  1  0
  1 10  1  0
  1 11  1  0
  1 12  1  0
  4 13  1  0
  4 14  1  0
  5 15  1  0
  8 16  1  0
  9 17  1  0
  9 18  1  0
  9 19  1  0
M  END
$$$$
