gdb 5424	1.8706227	1.3602136	0.8689358	2.8762	78.6	-0.25879	0.04029	0.29908	1338.5395	0.154709	-422.513926	-422.504017	-422.503073	-422.548861	36.204
 OpenBabel02181911423D

 19 19  0  0  1  0  0  0  0  0999 V2000
    0.9399    1.2396   -0.2678 O   0  0  0  0  0  0  0  0  0  0  0  0
    0.2288    0.1619    0.3181 C   0  0  0  0  0  0  0  0  0  0  0  0
   -0.9730    0.6281    1.1180 C   0  0  1  0  0  0  0  0  0  0  0  0
   -1.8726   -0.3809    1.8581 C   0  0  2  0  0  0  0  0  0  0  0  0
   -3.0031   -0.7764    1.1230 O   0  0  0  0  0  0  0  0  0  0  0  0
   -2.0321    0.6485    3.0109 C   0  0  0  0  0  0  0  0  0  0  0  0
   -0.7250    1.3326    2.4974 C   0  0  2  0  0  0  0  0  0  0  0  0
   -0.5936    2.7731    2.5324 C   0  0  0  0  0  0  0  0  0  0  0  0
   -0.4786    3.9711    2.5337 C   0  0  0  0  0  0  0  0  0  0  0  0
    1.1039    1.8959    0.4184 H   0  0  0  0  0  0  0  0  0  0  0  0
   -0.0978   -0.4752   -0.5114 H   0  0  0  0  0  0  0  0  0  0  0  0
    0.8861   -0.4504    0.9604 H   0  0  0  0  0  0  0  0  0  0  0  0
   -1.6089    1.2675    0.4977 H   0  0  0  0  0  0  0  0  0  0  0  0
   -1.2873   -1.2509    2.1944 H   0  0  0  0  0  0  0  0  0  0  0  0
   -3.4738   -1.4523    1.6208 H   0  0  0  0  0  0  0  0  0  0  0  0
   -2.9010    1.2844    2.8271 H   0  0  0  0  0  0  0  0  0  0  0  0
   -2.0429    0.2920    4.0430 H   0  0  0  0  0  0  0  0  0  0  0  0
    0.1427    0.8711    2.9856 H   0  0  0  0  0  0  0  0  0  0  0  0
   -0.3852    5.0288    2.5417 H   0  0  0  0  0  0  0  0  0  0  0  0
  1  2  1  0  0  0  0
  1 10  1  0  0  0  0
  2 12  1  0  0  0  0
  2  3  1  0  0  0  0
  3 13  1  6  0  0  0
  3  4  1  0  0  0  0
  3  7  1  0  0  0  0
  4 14  1  1  0  0  0
  4  6  1  0  0  0  0
  5 15  1  0  0  0  0
  5  4  1  0  0  0  0
  6 17  1  0  0  0  0
  7  8  1  0  0  0  0
  7 18  1  1  0  0  0
  7  6  1  0  0  0  0
  8  9  3  0  0  0  0
  9 19  1  0  0  0  0
 11  2  1  0  0  0  0
 16  6  1  0  0  0  0
M TOR 0 0 1 2 3
M TOR 1 0 1 2 6
M TOR 2 0 1 2 12
M TOR 3 1 2 3 4
M TOR 4 1 2 3 5
M TOR 5 1 2 3 13
M TOR 6 1 2 6 5
M TOR 7 1 2 6 7
M TOR 8 1 2 6 17
M TOR 9 2 1 0 9
M TOR 10 2 3 4 14
M TOR 11 2 3 5 6
M TOR 12 2 3 5 15
M TOR 13 2 3 5 16
M TOR 14 2 6 5 15
M TOR 15 2 6 5 16
M TOR 16 2 6 7 8
M TOR 17 3 2 1 10
M TOR 18 3 2 1 11
M TOR 19 3 2 6 7
M TOR 20 3 2 6 17
M TOR 21 3 5 6 7
M TOR 22 3 5 6 17
M TOR 23 4 3 2 6
M TOR 24 4 3 2 12
M TOR 25 4 3 5 6
M TOR 26 4 3 5 15
M TOR 27 4 3 5 16
M TOR 28 5 3 2 12
M TOR 29 5 3 4 14
M TOR 30 5 6 2 12
M TOR 31 5 6 7 8
M TOR 32 6 2 1 10
M TOR 33 6 2 1 11
M TOR 34 6 2 3 13
M TOR 35 6 5 3 13
M TOR 36 6 7 8 18
M TOR 37 7 6 2 12
M TOR 38 7 6 5 15
M TOR 39 7 6 5 16
M TOR 40 8 7 6 17
M  END
$$$$
