
     RDKit          3D

 19 20  0  0  0  0  0  0  0  0999 V2000
    1.1595   -0.4362    0.0983 O   0  0  0  0  0  0  0  0  0  0  0  0
    0.0328   -0.0236    0.0010 C   0  0  0  0  0  0  0  0  0  0  0  0
   -0.3706    1.4353    0.1385 C   0  0  0  0  0  0  0  0  0  0  0  0
   -1.0014    1.9002   -1.2167 C   0  0  0  0  0  0  0  0  0  0  0  0
   -2.5234    1.9733   -1.1083 C   0  0  0  0  0  0  0  0  0  0  0  0
   -2.9635    2.9580   -0.0100 C   0  0  0  0  0  0  0  0  0  0  0  0
   -2.7905    1.7122    0.8775 C   0  0  0  0  0  0  0  0  0  0  0  0
   -1.3473    1.5622    1.3554 C   0  0  0  0  0  0  0  0  0  0  0  0
   -2.9851    0.8558   -0.2893 O   0  0  0  0  0  0  0  0  0  0  0  0
   -0.8247   -0.7028   -0.2036 H   0  0  0  0  0  0  0  0  0  0  0  0
    0.5492    1.9900    0.3351 H   0  0  0  0  0  0  0  0  0  0  0  0
   -0.6025    2.8770   -1.5106 H   0  0  0  0  0  0  0  0  0  0  0  0
   -0.7216    1.1999   -2.0125 H   0  0  0  0  0  0  0  0  0  0  0  0
   -3.0229    2.0050   -2.0798 H   0  0  0  0  0  0  0  0  0  0  0  0
   -2.3333    3.8282    0.1891 H   0  0  0  0  0  0  0  0  0  0  0  0
   -4.0078    3.2569   -0.1111 H   0  0  0  0  0  0  0  0  0  0  0  0
   -3.5259    1.5133    1.6610 H   0  0  0  0  0  0  0  0  0  0  0  0
   -1.0720    2.4180    1.9808 H   0  0  0  0  0  0  0  0  0  0  0  0
   -1.2601    0.6736    1.9916 H   0  0  0  0  0  0  0  0  0  0  0  0
  1  2  2  0
  2  3  1  0
  3  4  1  0
  4  5  1  0
  5  6  1  0
  6  7  1  0
  7  8  1  0
  7  9  1  0
  8  3  1  0
  9  5  1  0
  2 10  1  0
  3 11  1  0
  4 12  1  0
  4 13  1  0
  5 14  1  0
  6 15  1  0
  6 16  1  0
  7 17  1  0
  8 18  1  0
  8 19  1  0
M  END
$$$$
