gdb 2500	2.7190518	1.9145695	1.3282371	2.0054	73.85	-0.24551	0.06495	0.31046	978.6875	0.159071	-422.518065	-422.511042	-422.510098	-422.548976	29.394
 OpenBabel02181911413D

 19 21  0  0  1  0  0  0  0  0999 V2000
    0.2805    0.4284    0.9262 O   0  0  0  0  0  0  0  0  0  0  0  0
   -1.0238    0.8602    0.7167 C   0  0  1  0  0  0  0  0  0  0  0  0
   -1.1262    2.3600    0.9464 C   0  0  0  0  0  0  0  0  0  0  0  0
   -2.5766    2.7625    1.2469 C   0  0  0  0  0  0  0  0  0  0  0  0
   -3.5533    2.0133    0.3268 C   0  0  0  0  0  0  0  0  0  0  0  0
   -3.1275    0.5543    0.1764 C   0  0  1  0  0  0  0  0  0  0  0  0
   -1.7749    0.2359   -0.5022 C   0  0  2  0  0  0  0  0  0  0  0  0
   -1.7482   -1.0726    0.2038 O   0  0  0  0  0  0  0  0  0  0  0  0
   -2.1773   -0.0838    1.2268 C   0  0  1  0  0  0  0  0  0  0  0  0
    0.2614   -0.5209    0.7325 H   0  0  0  0  0  0  0  0  0  0  0  0
   -0.4644    2.6325    1.7741 H   0  0  0  0  0  0  0  0  0  0  0  0
   -0.7460    2.8795    0.0578 H   0  0  0  0  0  0  0  0  0  0  0  0
   -2.8042    2.4952    2.2864 H   0  0  0  0  0  0  0  0  0  0  0  0
   -2.7087    3.8459    1.1683 H   0  0  0  0  0  0  0  0  0  0  0  0
   -4.5710    2.0710    0.7274 H   0  0  0  0  0  0  0  0  0  0  0  0
   -3.5868    2.4795   -0.6669 H   0  0  0  0  0  0  0  0  0  0  0  0
   -3.9181   -0.1267   -0.1430 H   0  0  0  0  0  0  0  0  0  0  0  0
   -1.5078    0.2390   -1.5609 H   0  0  0  0  0  0  0  0  0  0  0  0
   -2.3862   -0.4691    2.2261 H   0  0  0  0  0  0  0  0  0  0  0  0
  2  1  1  1  0  0  0
  2  3  1  0  0  0  0
  2  9  1  0  0  0  0
  3  4  1  0  0  0  0
  3 11  1  0  0  0  0
  4 13  1  0  0  0  0
  5 15  1  0  0  0  0
  5  4  1  0  0  0  0
  6 17  1  6  0  0  0
  6  5  1  0  0  0  0
  6  9  1  0  0  0  0
  7 18  1  6  0  0  0
  7  6  1  0  0  0  0
  7  8  1  0  0  0  0
  7  2  1  0  0  0  0
  8  9  1  0  0  0  0
  9 19  1  1  0  0  0
 10  1  1  0  0  0  0
 12  3  1  0  0  0  0
 14  4  1  0  0  0  0
 16  5  1  0  0  0  0
M TOR 0 0 1 2 3
M TOR 1 0 1 2 10
M TOR 2 0 1 2 11
M TOR 3 0 1 6 5
M TOR 4 0 1 6 7
M TOR 5 0 1 6 17
M TOR 6 0 1 8 5
M TOR 7 0 1 8 7
M TOR 8 0 1 8 18
M TOR 9 1 2 3 4
M TOR 10 1 2 3 12
M TOR 11 1 2 3 13
M TOR 12 1 6 5 4
M TOR 13 1 6 5 8
M TOR 14 1 6 5 16
M TOR 15 1 6 7 8
M TOR 16 1 8 5 4
M TOR 17 1 8 5 16
M TOR 18 2 1 0 9
M TOR 19 2 1 6 5
M TOR 20 2 1 6 7
M TOR 21 2 1 6 17
M TOR 22 2 1 8 5
M TOR 23 2 1 8 7
M TOR 24 2 1 8 18
M TOR 25 2 3 4 5
M TOR 26 2 3 4 14
M TOR 27 2 3 4 15
M TOR 28 3 2 1 6
M TOR 29 3 2 1 8
M TOR 30 3 4 5 6
M TOR 31 3 4 5 8
M TOR 32 3 4 5 16
M TOR 33 4 3 2 10
M TOR 34 4 3 2 11
M TOR 35 4 5 6 7
M TOR 36 4 5 6 17
M TOR 37 4 5 8 7
M TOR 38 4 5 8 18
M TOR 39 5 4 3 12
M TOR 40 5 4 3 13
M TOR 41 5 6 7 8
M TOR 42 6 1 0 9
M TOR 43 6 1 2 10
M TOR 44 6 1 2 11
M TOR 45 6 1 8 18
M TOR 46 6 5 4 14
M TOR 47 6 5 4 15
M TOR 48 6 5 8 18
M TOR 49 6 7 8 18
M TOR 50 7 6 5 16
M TOR 51 7 8 5 16
M TOR 52 8 1 0 9
M TOR 53 8 1 2 10
M TOR 54 8 1 2 11
M TOR 55 8 1 6 17
M TOR 56 8 5 4 14
M TOR 57 8 5 4 15
M TOR 58 8 5 6 17
M TOR 59 8 7 6 17
M  END
$$$$
