gdb 485	3.5359702	1.276614	1.2348551	2.4393	74.71	-0.24183	0.07332	0.31515	1085.7031	0.158668	-422.516797	-422.509182	-422.508238	-422.549099	28.958
 OpenBabel02181911403D

 19 21  0  0  1  0  0  0  0  0999 V2000
    0.0904   -1.1846    1.4058 C   0  0  0  0  0  0  0  0  0  0  0  0
   -1.3573   -1.2131    1.3990 O   0  0  0  0  0  0  0  0  0  0  0  0
   -1.4334   -0.1375    0.4410 C   0  0  0  0  0  0  0  0  0  0  0  0
    0.0880   -0.0441    0.3918 C   0  0  0  0  0  0  0  0  0  0  0  0
    0.9327    1.1916    0.3280 C   0  0  1  0  0  0  0  0  0  0  0  0
    2.3018    1.0920    0.9777 C   0  0  0  0  0  0  0  0  0  0  0  0
    2.8297   -0.1647    0.5600 O   0  0  0  0  0  0  0  0  0  0  0  0
    2.3403   -0.4435   -0.7496 C   0  0  0  0  0  0  0  0  0  0  0  0
    0.9579    0.1829   -0.8066 C   0  0  1  0  0  0  0  0  0  0  0  0
    0.4909   -0.9484    2.3993 H   0  0  0  0  0  0  0  0  0  0  0  0
    0.5205   -2.1345    1.0651 H   0  0  0  0  0  0  0  0  0  0  0  0
   -1.9264   -0.4484   -0.4903 H   0  0  0  0  0  0  0  0  0  0  0  0
   -1.9561    0.7398    0.8461 H   0  0  0  0  0  0  0  0  0  0  0  0
    0.4627    2.1637    0.2249 H   0  0  0  0  0  0  0  0  0  0  0  0
    2.9394    1.9269    0.6447 H   0  0  0  0  0  0  0  0  0  0  0  0
    2.2872    1.0856    2.0725 H   0  0  0  0  0  0  0  0  0  0  0  0
    2.9877   -0.0008   -1.5238 H   0  0  0  0  0  0  0  0  0  0  0  0
    2.3527   -1.5316   -0.8715 H   0  0  0  0  0  0  0  0  0  0  0  0
    0.5071    0.3890   -1.7714 H   0  0  0  0  0  0  0  0  0  0  0  0
  1 10  1  0  0  0  0
  2  1  1  0  0  0  0
  3 13  1  0  0  0  0
  3  2  1  0  0  0  0
  4  3  1  0  0  0  0
  4  1  1  0  0  0  0
  5 14  1  6  0  0  0
  5  4  1  0  0  0  0
  5  6  1  0  0  0  0
  6 16  1  0  0  0  0
  7  6  1  0  0  0  0
  8  7  1  0  0  0  0
  9 19  1  6  0  0  0
  9  8  1  0  0  0  0
  9  5  1  0  0  0  0
  9  4  1  0  0  0  0
 11  1  1  0  0  0  0
 12  3  1  0  0  0  0
 15  6  1  0  0  0  0
 17  8  1  0  0  0  0
 18  8  1  0  0  0  0
M TOR 0 0 1 2 3
M TOR 1 0 1 2 11
M TOR 2 0 1 2 12
M TOR 3 0 3 2 11
M TOR 4 0 3 2 12
M TOR 5 0 3 4 5
M TOR 6 0 3 4 8
M TOR 7 0 3 4 13
M TOR 8 0 3 8 7
M TOR 9 0 3 8 18
M TOR 10 1 0 3 4
M TOR 11 1 0 3 8
M TOR 12 1 2 3 4
M TOR 13 1 2 3 8
M TOR 14 2 1 0 9
M TOR 15 2 1 0 10
M TOR 16 2 3 0 9
M TOR 17 2 3 0 10
M TOR 18 2 3 4 5
M TOR 19 2 3 4 8
M TOR 20 2 3 4 13
M TOR 21 2 3 8 7
M TOR 22 2 3 8 18
M TOR 23 3 4 5 6
M TOR 24 3 4 5 14
M TOR 25 3 4 5 15
M TOR 26 3 4 8 7
M TOR 27 3 4 8 18
M TOR 28 3 8 4 5
M TOR 29 3 8 4 13
M TOR 30 3 8 7 6
M TOR 31 3 8 7 16
M TOR 32 3 8 7 17
M TOR 33 4 3 0 9
M TOR 34 4 3 0 10
M TOR 35 4 3 2 11
M TOR 36 4 3 2 12
M TOR 37 4 5 6 7
M TOR 38 4 8 7 6
M TOR 39 4 8 7 16
M TOR 40 4 8 7 17
M TOR 41 5 4 8 7
M TOR 42 5 4 8 18
M TOR 43 5 6 7 8
M TOR 44 5 6 7 16
M TOR 45 5 6 7 17
M TOR 46 6 5 4 8
M TOR 47 6 5 4 13
M TOR 48 6 7 8 18
M TOR 49 7 6 5 14
M TOR 50 7 6 5 15
M TOR 51 7 8 4 13
M TOR 52 8 3 0 9
M TOR 53 8 3 0 10
M TOR 54 8 3 2 11
M TOR 55 8 3 2 12
M TOR 56 8 4 5 14
M TOR 57 8 4 5 15
M  END
$$$$
