
     RDKit          3D

 19 20  0  0  0  0  0  0  0  0999 V2000
   -0.2022   -0.1425    0.1074 C   0  0  0  0  0  0  0  0  0  0  0  0
    1.3158   -0.0167    0.0054 C   0  0  0  0  0  0  0  0  0  0  0  0
    1.9764    0.0476   -1.4025 C   0  0  0  0  0  0  0  0  0  0  0  0
    2.8534    1.2506   -0.9421 C   0  0  0  0  0  0  0  0  0  0  0  0
    1.9453    1.3781    0.2777 C   0  0  0  0  0  0  0  0  0  0  0  0
    1.3068    2.5662    0.8464 C   0  0  0  0  0  0  0  0  0  0  0  0
    2.3368    1.8554    1.5516 O   0  0  0  0  0  0  0  0  0  0  0  0
    1.9833   -1.0393    0.9117 C   0  0  0  0  0  0  0  0  0  0  0  0
    2.8720   -1.7826    0.5837 O   0  0  0  0  0  0  0  0  0  0  0  0
   -0.5411   -0.0657    1.1471 H   0  0  0  0  0  0  0  0  0  0  0  0
   -0.6943    0.6471   -0.4677 H   0  0  0  0  0  0  0  0  0  0  0  0
   -0.5434   -1.1075   -0.2830 H   0  0  0  0  0  0  0  0  0  0  0  0
    2.5161   -0.8548   -1.6888 H   0  0  0  0  0  0  0  0  0  0  0  0
    1.2581    0.3161   -2.1799 H   0  0  0  0  0  0  0  0  0  0  0  0
    3.8625    0.9410   -0.6584 H   0  0  0  0  0  0  0  0  0  0  0  0
    2.9169    2.1157   -1.6053 H   0  0  0  0  0  0  0  0  0  0  0  0
    1.5906    3.5521    0.4799 H   0  0  0  0  0  0  0  0  0  0  0  0
    0.3126    2.5023    1.2860 H   0  0  0  0  0  0  0  0  0  0  0  0
    1.5834   -1.0475    1.9499 H   0  0  0  0  0  0  0  0  0  0  0  0
  1  2  1  0
  2  3  1  0
  3  4  1  0
  4  5  1  0
  5  6  1  0
  6  7  1  0
  2  8  1  0
  8  9  2  0
  5  2  1  0
  7  5  1  0
  1 10  1  0
  1 11  1  0
  1 12  1  0
  3 13  1  0
  3 14  1  0
  4 15  1  0
  4 16  1  0
  6 17  1  0
  6 18  1  0
  8 19  1  0
M  END
$$$$
