gdb 5402	1.8600177	1.748623	1.0167631	3.4704	77.04	-0.23783	-0.02477	0.21306000000000003	1205.6149	0.15451	-422.524386	-422.515085	-422.514141	-422.559212	33.497
 OpenBabel02181911423D

 19 20  0  0  1  0  0  0  0  0999 V2000
    1.4997    0.3443   -0.3103 C   0  0  0  0  0  0  0  0  0  0  0  0
    0.2573   -0.2054    0.0856 O   0  0  0  0  0  0  0  0  0  0  0  0
   -0.3708    0.4621    1.1316 C   0  0  1  0  0  0  0  0  0  0  0  0
   -1.9020    0.2553    1.2608 C   0  0  0  0  0  0  0  0  0  0  0  0
   -2.7894    0.1492    0.4695 O   0  0  0  0  0  0  0  0  0  0  0  0
   -1.7935    0.0873    2.7917 C   0  0  0  0  0  0  0  0  0  0  0  0
   -0.2786   -0.0724    2.5850 C   0  0  0  0  0  0  0  0  0  0  0  0
    0.8404    0.0816    3.5669 C   0  0  0  0  0  0  0  0  0  0  0  0
    0.5266   -1.2749    2.9722 C   0  0  0  0  0  0  0  0  0  0  0  0
    2.2594    0.2707    0.4810 H   0  0  0  0  0  0  0  0  0  0  0  0
    1.8396   -0.2280   -1.1763 H   0  0  0  0  0  0  0  0  0  0  0  0
    1.3974    1.4006   -0.5990 H   0  0  0  0  0  0  0  0  0  0  0  0
   -0.1598    1.5456    1.1018 H   0  0  0  0  0  0  0  0  0  0  0  0
   -2.0875    0.9945    3.3317 H   0  0  0  0  0  0  0  0  0  0  0  0
   -2.3425   -0.7626    3.2053 H   0  0  0  0  0  0  0  0  0  0  0  0
    1.7440    0.5891    3.2432 H   0  0  0  0  0  0  0  0  0  0  0  0
    0.5864    0.2526    4.6083 H   0  0  0  0  0  0  0  0  0  0  0  0
    1.2025   -1.6822    2.2278 H   0  0  0  0  0  0  0  0  0  0  0  0
    0.0618   -2.0183    3.6118 H   0  0  0  0  0  0  0  0  0  0  0  0
  1  2  1  0  0  0  0
  1 10  1  0  0  0  0
  2  3  1  0  0  0  0
  3 13  1  6  0  0  0
  3  4  1  0  0  0  0
  3  7  1  0  0  0  0
  4  6  1  0  0  0  0
  5  4  2  0  0  0  0
  6 15  1  0  0  0  0
  6 14  1  0  0  0  0
  7  6  1  0  0  0  0
  7  9  1  0  0  0  0
  7  8  1  0  0  0  0
  8 17  1  0  0  0  0
  9  8  1  0  0  0  0
  9 19  1  0  0  0  0
 11  1  1  0  0  0  0
 12  1  1  0  0  0  0
 16  8  1  0  0  0  0
 18  9  1  0  0  0  0
M TOR 0 0 1 2 3
M TOR 1 0 1 2 6
M TOR 2 0 1 2 12
M TOR 3 1 2 3 4
M TOR 4 1 2 3 5
M TOR 5 1 2 6 5
M TOR 6 1 2 6 7
M TOR 7 1 2 6 8
M TOR 8 2 1 0 9
M TOR 9 2 1 0 10
M TOR 10 2 1 0 11
M TOR 11 2 3 5 6
M TOR 12 2 3 5 13
M TOR 13 2 3 5 14
M TOR 14 2 6 5 13
M TOR 15 2 6 5 14
M TOR 16 2 6 7 8
M TOR 17 2 6 7 15
M TOR 18 2 6 7 16
M TOR 19 2 6 8 17
M TOR 20 2 6 8 18
M TOR 21 3 2 6 7
M TOR 22 3 2 6 8
M TOR 23 3 5 6 7
M TOR 24 3 5 6 8
M TOR 25 4 3 2 6
M TOR 26 4 3 2 12
M TOR 27 4 3 5 6
M TOR 28 4 3 5 13
M TOR 29 4 3 5 14
M TOR 30 5 3 2 12
M TOR 31 5 6 2 12
M TOR 32 5 6 7 8
M TOR 33 5 6 7 15
M TOR 34 5 6 7 16
M TOR 35 5 6 8 17
M TOR 36 5 6 8 18
M TOR 37 6 7 8 17
M TOR 38 6 7 8 18
M TOR 39 6 8 7 15
M TOR 40 6 8 7 16
M TOR 41 7 6 2 12
M TOR 42 7 6 5 13
M TOR 43 7 6 5 14
M TOR 44 8 6 2 12
M TOR 45 8 6 5 13
M TOR 46 8 6 5 14
M  END
$$$$
