
     RDKit          3D

 19 20  0  0  0  0  0  0  0  0999 V2000
    0.4998    0.7135    1.0827 O   0  0  0  0  0  0  0  0  0  0  0  0
   -0.7573    1.0328    0.5320 C   0  0  0  0  0  0  0  0  0  0  0  0
   -1.6638   -0.1597    0.1359 C   0  0  0  0  0  0  0  0  0  0  0  0
   -2.6930    0.2559    1.0499 O   0  0  0  0  0  0  0  0  0  0  0  0
   -1.9011    1.3638    1.5397 C   0  0  0  0  0  0  0  0  0  0  0  0
   -2.6327    2.6915    1.3832 C   0  0  0  0  0  0  0  0  0  0  0  0
   -2.7140    3.1218   -0.0592 C   0  0  0  0  0  0  0  0  0  0  0  0
   -1.7536    2.8378   -0.9374 C   0  0  0  0  0  0  0  0  0  0  0  0
   -0.5107    2.0736   -0.5589 C   0  0  0  0  0  0  0  0  0  0  0  0
    0.3771    0.0231    1.7433 H   0  0  0  0  0  0  0  0  0  0  0  0
   -2.0184   -0.1790   -0.9017 H   0  0  0  0  0  0  0  0  0  0  0  0
   -1.2422   -1.1424    0.3921 H   0  0  0  0  0  0  0  0  0  0  0  0
   -1.6013    1.2029    2.5857 H   0  0  0  0  0  0  0  0  0  0  0  0
   -3.6320    2.5882    1.8210 H   0  0  0  0  0  0  0  0  0  0  0  0
   -2.1137    3.4570    1.9794 H   0  0  0  0  0  0  0  0  0  0  0  0
   -3.5825    3.6968   -0.3671 H   0  0  0  0  0  0  0  0  0  0  0  0
   -1.8332    3.1835   -1.9640 H   0  0  0  0  0  0  0  0  0  0  0  0
   -0.0714    1.5776   -1.4318 H   0  0  0  0  0  0  0  0  0  0  0  0
    0.2593    2.7629   -0.1854 H   0  0  0  0  0  0  0  0  0  0  0  0
  1  2  1  0
  2  3  1  0
  3  4  1  0
  4  5  1  0
  5  6  1  0
  6  7  1  0
  7  8  2  0
  8  9  1  0
  5  2  1  0
  9  2  1  0
  1 10  1  0
  3 11  1  0
  3 12  1  0
  5 13  1  0
  6 14  1  0
  6 15  1  0
  7 16  1  0
  8 17  1  0
  9 18  1  0
  9 19  1  0
M  END
$$$$
