
     RDKit          3D

 19 21  0  0  0  0  0  0  0  0999 V2000
    0.2631    0.2088   -0.4392 C   0  0  0  0  0  0  0  0  0  0  0  0
    1.0385   -0.4249    0.6993 C   0  0  0  0  0  0  0  0  0  0  0  0
    2.4636   -0.4887    0.4050 O   0  0  0  0  0  0  0  0  0  0  0  0
    2.4516   -1.9268    0.3777 C   0  0  0  0  0  0  0  0  0  0  0  0
    0.9567   -1.9590    0.8299 C   0  0  0  0  0  0  0  0  0  0  0  0
    1.3858   -2.4990    2.2266 C   0  0  0  0  0  0  0  0  0  0  0  0
    2.8332   -2.5729    1.7104 C   0  0  0  0  0  0  0  0  0  0  0  0
    3.8395   -3.6099    1.9548 C   0  0  0  0  0  0  0  0  0  0  0  0
    3.9940   -2.2739    2.4512 O   0  0  0  0  0  0  0  0  0  0  0  0
   -0.8066    0.2407   -0.2035 H   0  0  0  0  0  0  0  0  0  0  0  0
    0.6099    1.2330   -0.6073 H   0  0  0  0  0  0  0  0  0  0  0  0
    0.3991   -0.3549   -1.3677 H   0  0  0  0  0  0  0  0  0  0  0  0
    0.8601    0.1208    1.6358 H   0  0  0  0  0  0  0  0  0  0  0  0
    2.8722   -2.3322   -0.5470 H   0  0  0  0  0  0  0  0  0  0  0  0
    0.1622   -2.4800    0.2985 H   0  0  0  0  0  0  0  0  0  0  0  0
    1.2312   -1.7963    3.0503 H   0  0  0  0  0  0  0  0  0  0  0  0
    0.9553   -3.4648    2.5023 H   0  0  0  0  0  0  0  0  0  0  0  0
    3.6521   -4.3722    2.7104 H   0  0  0  0  0  0  0  0  0  0  0  0
    4.5313   -3.8962    1.1632 H   0  0  0  0  0  0  0  0  0  0  0  0
  1  2  1  0
  2  3  1  0
  3  4  1  0
  4  5  1  0
  5  6  1  0
  6  7  1  0
  7  8  1  0
  8  9  1  0
  5  2  1  0
  9  7  1  0
  7  4  1  0
  1 10  1  0
  1 11  1  0
  1 12  1  0
  2 13  1  0
  4 14  1  0
  5 15  1  0
  6 16  1  0
  6 17  1  0
  8 18  1  0
  8 19  1  0
M  END
$$$$
