gdb 4220	3.0687589	1.3064976	1.0743134	1.1375	74.94	-0.2494	0.06732	0.31672	1152.5507	0.156409	-422.50436	-422.496169	-422.495225	-422.537566	31.505
 OpenBabel02181911413D

 19 21  0  0  1  0  0  0  0  0999 V2000
    0.2979   -0.1925    0.0400 O   0  0  0  0  0  0  0  0  0  0  0  0
   -0.8083    0.4129    0.6792 C   0  0  2  0  0  0  0  0  0  0  0  0
   -2.1115    0.0153   -0.0610 C   0  0  0  0  0  0  0  0  0  0  0  0
   -2.3343    1.4844   -0.5126 C   0  0  1  0  0  0  0  0  0  0  0  0
   -3.2136    2.3515    0.4315 C   0  0  0  0  0  0  0  0  0  0  0  0
   -1.9629    2.6606    1.2640 C   0  0  2  0  0  0  0  0  0  0  0  0
   -1.8104    2.8961    2.7033 C   0  0  0  0  0  0  0  0  0  0  0  0
   -1.6727    3.9595    1.7517 O   0  0  0  0  0  0  0  0  0  0  0  0
   -1.0474    1.9035    0.2959 C   0  0  1  0  0  0  0  0  0  0  0  0
    1.1013    0.1804    0.4184 H   0  0  0  0  0  0  0  0  0  0  0  0
   -0.7936    0.2184    1.7615 H   0  0  0  0  0  0  0  0  0  0  0  0
   -1.8892   -0.6705   -0.8809 H   0  0  0  0  0  0  0  0  0  0  0  0
   -2.9027   -0.4165    0.5578 H   0  0  0  0  0  0  0  0  0  0  0  0
   -2.4479    1.6572   -1.5818 H   0  0  0  0  0  0  0  0  0  0  0  0
   -3.5924    3.2560   -0.0532 H   0  0  0  0  0  0  0  0  0  0  0  0
   -4.0432    1.8483    0.9373 H   0  0  0  0  0  0  0  0  0  0  0  0
   -2.6939    2.9497    3.3389 H   0  0  0  0  0  0  0  0  0  0  0  0
   -0.8920    2.6038    3.2120 H   0  0  0  0  0  0  0  0  0  0  0  0
   -0.2046    2.4589   -0.1189 H   0  0  0  0  0  0  0  0  0  0  0  0
  1 10  1  0  0  0  0
  1  2  1  0  0  0  0
  2 11  1  1  0  0  0
  3 13  1  0  0  0  0
  3  2  1  0  0  0  0
  4 14  1  6  0  0  0
  4  3  1  0  0  0  0
  4  9  1  0  0  0  0
  4  5  1  0  0  0  0
  5 16  1  0  0  0  0
  5  6  1  0  0  0  0
  6  8  1  6  0  0  0
  6  7  1  0  0  0  0
  7 18  1  0  0  0  0
  7 17  1  0  0  0  0
  8  7  1  0  0  0  0
  9 19  1  6  0  0  0
  9  2  1  0  0  0  0
  9  6  1  0  0  0  0
 12  3  1  0  0  0  0
 15  5  1  0  0  0  0
M TOR 0 0 1 2 3
M TOR 1 0 1 2 11
M TOR 2 0 1 2 12
M TOR 3 0 1 8 3
M TOR 4 0 1 8 5
M TOR 5 0 1 8 18
M TOR 6 1 2 3 4
M TOR 7 1 2 3 8
M TOR 8 1 2 3 13
M TOR 9 1 8 3 4
M TOR 10 1 8 3 13
M TOR 11 1 8 5 4
M TOR 12 1 8 5 6
M TOR 13 1 8 5 7
M TOR 14 2 1 0 9
M TOR 15 2 1 8 5
M TOR 16 2 1 8 18
M TOR 17 2 3 4 5
M TOR 18 2 3 4 14
M TOR 19 2 3 4 15
M TOR 20 2 3 8 5
M TOR 21 2 3 8 18
M TOR 22 3 2 1 10
M TOR 23 3 4 5 6
M TOR 24 3 4 5 7
M TOR 25 3 4 5 8
M TOR 26 3 8 1 10
M TOR 27 3 8 5 6
M TOR 28 3 8 5 7
M TOR 29 4 3 2 11
M TOR 30 4 3 2 12
M TOR 31 4 3 8 18
M TOR 32 4 5 6 7
M TOR 33 4 5 6 16
M TOR 34 4 5 6 17
M TOR 35 4 5 8 18
M TOR 36 5 4 3 13
M TOR 37 5 7 6 16
M TOR 38 5 7 6 17
M TOR 39 5 8 1 10
M TOR 40 5 8 3 13
M TOR 41 6 5 4 14
M TOR 42 6 5 4 15
M TOR 43 6 5 8 18
M TOR 44 6 7 5 8
M TOR 45 7 5 4 14
M TOR 46 7 5 4 15
M TOR 47 7 5 8 18
M TOR 48 8 1 0 9
M TOR 49 8 1 2 11
M TOR 50 8 1 2 12
M TOR 51 8 3 2 11
M TOR 52 8 3 2 12
M TOR 53 8 3 4 14
M TOR 54 8 3 4 15
M TOR 55 8 5 4 14
M TOR 56 8 5 4 15
M TOR 57 8 5 6 16
M TOR 58 8 5 6 17
M  END
$$$$
