gdb 3157	2.6253139	1.6267163	1.3174075	1.4056	73.89	-0.24521	0.07756	0.32277	1037.1866	0.157053	-422.541917	-422.533844	-422.5329	-422.573976	31.981
 OpenBabel02181911413D

 19 21  0  0  1  0  0  0  0  0999 V2000
    2.2840    1.5488    0.0415 C   0  0  0  0  0  0  0  0  0  0  0  0
    1.6965    0.1628   -0.2445 C   0  0  1  0  0  0  0  0  0  0  0  0
    2.4607   -0.5803   -1.3452 C   0  0  1  0  0  0  0  0  0  0  0  0
    3.8506   -0.7853   -1.0546 O   0  0  0  0  0  0  0  0  0  0  0  0
    2.9363   -1.8850   -0.8732 C   0  0  1  0  0  0  0  0  0  0  0  0
    2.5433   -2.0517    0.5649 C   0  0  2  0  0  0  0  0  0  0  0  0
    3.4075   -2.7226    1.4244 O   0  0  0  0  0  0  0  0  0  0  0  0
    1.0786   -2.1366    0.8465 C   0  0  0  0  0  0  0  0  0  0  0  0
    1.7829   -0.7927    0.9494 C   0  0  2  0  0  0  0  0  0  0  0  0
    1.7483    2.0391    0.8602 H   0  0  0  0  0  0  0  0  0  0  0  0
    3.3386    1.4629    0.3181 H   0  0  0  0  0  0  0  0  0  0  0  0
    2.2167    2.1960   -0.8392 H   0  0  0  0  0  0  0  0  0  0  0  0
    0.6532    0.2769   -0.5694 H   0  0  0  0  0  0  0  0  0  0  0  0
    2.2378   -0.3887   -2.3923 H   0  0  0  0  0  0  0  0  0  0  0  0
    3.1023   -2.7425   -1.5211 H   0  0  0  0  0  0  0  0  0  0  0  0
    4.2455   -2.2445    1.4157 H   0  0  0  0  0  0  0  0  0  0  0  0
    0.3846   -2.3122    0.0293 H   0  0  0  0  0  0  0  0  0  0  0  0
    0.8106   -2.6123    1.7833 H   0  0  0  0  0  0  0  0  0  0  0  0
    1.9147   -0.3798    1.9433 H   0  0  0  0  0  0  0  0  0  0  0  0
  1 11  1  0  0  0  0
  1 10  1  0  0  0  0
  2 13  1  6  0  0  0
  2  1  1  0  0  0  0
  2  9  1  0  0  0  0
  3 14  1  6  0  0  0
  3  4  1  0  0  0  0
  3  5  1  0  0  0  0
  3  2  1  0  0  0  0
  4  5  1  0  0  0  0
  5 15  1  6  0  0  0
  5  6  1  0  0  0  0
  6  8  1  0  0  0  0
  6  9  1  0  0  0  0
  6  7  1  1  0  0  0
  8  9  1  0  0  0  0
  8 18  1  0  0  0  0
  9 19  1  1  0  0  0
 12  1  1  0  0  0  0
 16  7  1  0  0  0  0
 17  8  1  0  0  0  0
M TOR 0 0 1 2 3
M TOR 1 0 1 2 4
M TOR 2 0 1 2 13
M TOR 3 0 1 8 5
M TOR 4 0 1 8 7
M TOR 5 0 1 8 18
M TOR 6 1 2 3 4
M TOR 7 1 2 4 5
M TOR 8 1 2 4 14
M TOR 9 1 8 5 4
M TOR 10 1 8 5 6
M TOR 11 1 8 5 7
M TOR 12 1 8 7 16
M TOR 13 1 8 7 17
M TOR 14 2 1 0 9
M TOR 15 2 1 0 10
M TOR 16 2 1 0 11
M TOR 17 2 1 8 5
M TOR 18 2 1 8 7
M TOR 19 2 1 8 18
M TOR 20 2 3 4 5
M TOR 21 2 3 4 14
M TOR 22 2 4 5 6
M TOR 23 2 4 5 7
M TOR 24 2 4 5 8
M TOR 25 3 2 1 8
M TOR 26 3 2 1 12
M TOR 27 3 4 2 13
M TOR 28 3 4 5 6
M TOR 29 3 4 5 7
M TOR 30 3 4 5 8
M TOR 31 4 2 1 8
M TOR 32 4 2 1 12
M TOR 33 4 5 6 15
M TOR 34 4 5 7 8
M TOR 35 4 5 7 16
M TOR 36 4 5 7 17
M TOR 37 4 5 8 18
M TOR 38 5 4 2 13
M TOR 39 5 7 8 18
M TOR 40 5 8 1 12
M TOR 41 5 8 7 16
M TOR 42 5 8 7 17
M TOR 43 6 5 4 14
M TOR 44 6 5 7 8
M TOR 45 6 5 7 16
M TOR 46 6 5 7 17
M TOR 47 6 5 8 18
M TOR 48 7 5 4 14
M TOR 49 7 5 6 15
M TOR 50 7 8 1 12
M TOR 51 8 1 0 9
M TOR 52 8 1 0 10
M TOR 53 8 1 0 11
M TOR 54 8 1 2 13
M TOR 55 8 5 4 14
M TOR 56 8 5 6 15
M  END
$$$$
