gdb 4986	3.0431927	1.3484946	1.3112363	1.6502	73.89	-0.2267	0.07774	0.30444000000000004	1070.6656	0.158345	-422.526404	-422.518568	-422.517624	-422.558801	30.337
 OpenBabel02181911413D

 19 21  0  0  1  0  0  0  0  0999 V2000
    1.6298    0.8476   -0.0153 O   0  0  0  0  0  0  0  0  0  0  0  0
    0.2795    0.4655    0.2104 C   0  0  0  0  0  0  0  0  0  0  0  0
   -0.6541    0.9817   -0.8355 C   0  0  2  0  0  0  0  0  0  0  0  0
   -2.1540    1.2133   -0.7561 C   0  0  2  0  0  0  0  0  0  0  0  0
   -2.8789    0.4999   -1.9001 C   0  0  0  0  0  0  0  0  0  0  0  0
   -1.7300    0.0120   -2.8297 C   0  0  0  0  0  0  0  0  0  0  0  0
   -0.5463    0.8559   -2.3758 C   0  0  1  0  0  0  0  0  0  0  0  0
   -0.9118    2.2712   -2.5445 O   0  0  0  0  0  0  0  0  0  0  0  0
   -1.2149    2.3381   -1.1525 C   0  0  2  0  0  0  0  0  0  0  0  0
    1.6448    1.8064   -0.1065 H   0  0  0  0  0  0  0  0  0  0  0  0
    0.2867   -0.6313    0.2147 H   0  0  0  0  0  0  0  0  0  0  0  0
   -0.0727    0.7862    1.2045 H   0  0  0  0  0  0  0  0  0  0  0  0
   -2.6129    1.2913    0.2243 H   0  0  0  0  0  0  0  0  0  0  0  0
   -3.4833   -0.3314   -1.5269 H   0  0  0  0  0  0  0  0  0  0  0  0
   -3.5507    1.1830   -2.4276 H   0  0  0  0  0  0  0  0  0  0  0  0
   -1.5108   -1.0511   -2.6727 H   0  0  0  0  0  0  0  0  0  0  0  0
   -1.9503    0.1588   -3.8906 H   0  0  0  0  0  0  0  0  0  0  0  0
    0.4273    0.6398   -2.8176 H   0  0  0  0  0  0  0  0  0  0  0  0
   -1.1521    3.3035   -0.6614 H   0  0  0  0  0  0  0  0  0  0  0  0
  1  2  1  0  0  0  0
  2 11  1  0  0  0  0
  2 12  1  0  0  0  0
  3  4  1  0  0  0  0
  3  2  1  1  0  0  0
  4 13  1  1  0  0  0
  5 14  1  0  0  0  0
  5  4  1  0  0  0  0
  6 16  1  0  0  0  0
  6  7  1  0  0  0  0
  6  5  1  0  0  0  0
  7 18  1  6  0  0  0
  7  3  1  0  0  0  0
  8  7  1  0  0  0  0
  8  9  1  0  0  0  0
  9  3  1  0  0  0  0
  9  4  1  0  0  0  0
  9 19  1  1  0  0  0
 10  1  1  0  0  0  0
 15  5  1  0  0  0  0
 17  6  1  0  0  0  0
M TOR 0 0 1 2 3
M TOR 1 0 1 2 6
M TOR 2 0 1 2 8
M TOR 3 1 2 3 4
M TOR 4 1 2 3 8
M TOR 5 1 2 3 12
M TOR 6 1 2 6 5
M TOR 7 1 2 6 7
M TOR 8 1 2 6 17
M TOR 9 1 2 8 7
M TOR 10 1 2 8 18
M TOR 11 2 1 0 9
M TOR 12 2 3 4 5
M TOR 13 2 3 4 13
M TOR 14 2 3 4 14
M TOR 15 2 3 8 7
M TOR 16 2 3 8 18
M TOR 17 2 6 5 4
M TOR 18 2 6 5 15
M TOR 19 2 6 5 16
M TOR 20 2 6 7 8
M TOR 21 2 8 3 4
M TOR 22 2 8 3 12
M TOR 23 3 2 1 10
M TOR 24 3 2 1 11
M TOR 25 3 2 6 5
M TOR 26 3 2 6 7
M TOR 27 3 2 6 17
M TOR 28 3 4 5 6
M TOR 29 3 4 5 15
M TOR 30 3 4 5 16
M TOR 31 3 8 2 6
M TOR 32 3 8 7 6
M TOR 33 4 3 2 6
M TOR 34 4 3 8 7
M TOR 35 4 3 8 18
M TOR 36 4 5 6 7
M TOR 37 4 5 6 17
M TOR 38 5 4 3 8
M TOR 39 5 4 3 12
M TOR 40 5 6 2 8
M TOR 41 5 6 7 8
M TOR 42 6 2 1 10
M TOR 43 6 2 1 11
M TOR 44 6 2 3 12
M TOR 45 6 2 8 18
M TOR 46 6 5 4 13
M TOR 47 6 5 4 14
M TOR 48 6 7 8 18
M TOR 49 7 6 5 15
M TOR 50 7 6 5 16
M TOR 51 7 8 3 12
M TOR 52 8 2 1 10
M TOR 53 8 2 1 11
M TOR 54 8 2 6 17
M TOR 55 8 3 4 13
M TOR 56 8 3 4 14
M TOR 57 8 7 6 17
M  END
$$$$
