
     RDKit          3D

 19 21  0  0  0  0  0  0  0  0999 V2000
    1.5966   -4.3384    0.2049 C   0  0  0  0  0  0  0  0  0  0  0  0
    0.4214   -3.6892    0.8591 C   0  0  0  0  0  0  0  0  0  0  0  0
   -0.8994   -3.7899    0.2250 O   0  0  0  0  0  0  0  0  0  0  0  0
   -1.1301   -2.9993    1.4244 C   0  0  0  0  0  0  0  0  0  0  0  0
   -0.1407   -3.8024    2.3168 C   0  0  0  0  0  0  0  0  0  0  0  0
    0.5948   -2.5241    2.7743 C   0  0  0  0  0  0  0  0  0  0  0  0
    0.2059   -2.1970    1.3109 C   0  0  0  0  0  0  0  0  0  0  0  0
    0.4703   -0.9768    0.4770 C   0  0  0  0  0  0  0  0  0  0  0  0
    1.8602   -0.7660    0.2511 O   0  0  0  0  0  0  0  0  0  0  0  0
    2.4983   -4.1787    0.8039 H   0  0  0  0  0  0  0  0  0  0  0  0
    1.4321   -5.4154    0.1015 H   0  0  0  0  0  0  0  0  0  0  0  0
    1.7662   -3.9118   -0.7877 H   0  0  0  0  0  0  0  0  0  0  0  0
   -2.1403   -2.6497    1.6374 H   0  0  0  0  0  0  0  0  0  0  0  0
   -0.3542   -4.7201    2.8649 H   0  0  0  0  0  0  0  0  0  0  0  0
    0.1063   -1.9325    3.5545 H   0  0  0  0  0  0  0  0  0  0  0  0
    1.6625   -2.6290    2.9903 H   0  0  0  0  0  0  0  0  0  0  0  0
    0.0205   -1.1210   -0.5113 H   0  0  0  0  0  0  0  0  0  0  0  0
   -0.0017   -0.0896    0.9287 H   0  0  0  0  0  0  0  0  0  0  0  0
    2.2689   -0.5866    1.1039 H   0  0  0  0  0  0  0  0  0  0  0  0
  1  2  1  0
  2  3  1  0
  3  4  1  0
  4  5  1  0
  5  6  1  0
  6  7  1  0
  7  8  1  0
  8  9  1  0
  5  2  1  0
  7  2  1  0
  7  4  1  0
  1 10  1  0
  1 11  1  0
  1 12  1  0
  4 13  1  0
  5 14  1  0
  6 15  1  0
  6 16  1  0
  8 17  1  0
  8 18  1  0
  9 19  1  0
M  END
$$$$
