
     RDKit          3D

 19 19  0  0  0  0  0  0  0  0999 V2000
    2.5879   -0.6377    1.3771 C   0  0  0  0  0  0  0  0  0  0  0  0
    1.9803    0.1397    0.2042 C   0  0  0  0  0  0  0  0  0  0  0  0
    1.9793   -0.6383   -1.1133 C   0  0  0  0  0  0  0  0  0  0  0  0
    1.1216   -1.9449   -1.2473 C   0  0  0  0  0  0  0  0  0  0  0  0
    0.4229   -1.4018   -2.5279 C   0  0  0  0  0  0  0  0  0  0  0  0
    1.0438   -0.0395   -2.2228 C   0  0  0  0  0  0  0  0  0  0  0  0
    0.8335    1.0822   -2.5703 O   0  0  0  0  0  0  0  0  0  0  0  0
    3.3711   -0.8248   -1.6865 C   0  0  0  0  0  0  0  0  0  0  0  0
    4.3438   -0.2062   -1.3403 O   0  0  0  0  0  0  0  0  0  0  0  0
    2.0504   -1.5744    1.5613 H   0  0  0  0  0  0  0  0  0  0  0  0
    3.6377   -0.8766    1.1890 H   0  0  0  0  0  0  0  0  0  0  0  0
    2.5381   -0.0437    2.2944 H   0  0  0  0  0  0  0  0  0  0  0  0
    0.9495    0.4279    0.4410 H   0  0  0  0  0  0  0  0  0  0  0  0
    2.5376    1.0668    0.0420 H   0  0  0  0  0  0  0  0  0  0  0  0
    1.6864   -2.8712   -1.3708 H   0  0  0  0  0  0  0  0  0  0  0  0
    0.4355   -2.0605   -0.4065 H   0  0  0  0  0  0  0  0  0  0  0  0
    0.8334   -1.8197   -3.4544 H   0  0  0  0  0  0  0  0  0  0  0  0
   -0.6674   -1.4373   -2.5880 H   0  0  0  0  0  0  0  0  0  0  0  0
    3.4398   -1.5935   -2.4915 H   0  0  0  0  0  0  0  0  0  0  0  0
  1  2  1  0
  2  3  1  0
  3  4  1  0
  4  5  1  0
  5  6  1  0
  6  7  2  0
  3  8  1  0
  8  9  2  0
  6  3  1  0
  1 10  1  0
  1 11  1  0
  1 12  1  0
  2 13  1  0
  2 14  1  0
  4 15  1  0
  4 16  1  0
  5 17  1  0
  5 18  1  0
  8 19  1  0
M  END
$$$$
