gdb 2721	2.1255644	1.5261023	1.4356389	2.2168	76.3	-0.23735	0.00399	0.24134	1081.0669	0.154641	-422.545431	-422.535885	-422.534941	-422.579243	35.057
 OpenBabel02181911413D

 19 20  0  0  1  0  0  0  0  0999 V2000
   -1.2629    2.4670   -0.1067 C   0  0  0  0  0  0  0  0  0  0  0  0
   -1.2563    0.9672   -0.1411 C   0  0  2  0  0  0  0  0  0  0  0  0
   -1.5409   -0.0089   -1.3371 C   0  0  0  0  0  0  0  0  0  0  0  0
   -1.2536   -1.0142   -0.1661 C   0  0  2  0  0  0  0  0  0  0  0  0
   -1.2563   -2.5143   -0.1698 C   0  0  0  0  0  0  0  0  0  0  0  0
   -2.1348   -0.0354    0.6968 C   0  0  1  0  0  0  0  0  0  0  0  0
   -2.0774   -0.0530    2.0916 O   0  0  0  0  0  0  0  0  0  0  0  0
   -0.1308   -0.0264    0.1981 C   0  0  0  0  0  0  0  0  0  0  0  0
    0.9941   -0.0301    0.6050 O   0  0  0  0  0  0  0  0  0  0  0  0
   -1.1110    2.8252    0.9167 H   0  0  0  0  0  0  0  0  0  0  0  0
   -0.4624    2.8804   -0.7284 H   0  0  0  0  0  0  0  0  0  0  0  0
   -2.2154    2.8700   -0.4655 H   0  0  0  0  0  0  0  0  0  0  0  0
   -2.5758   -0.0058   -1.6906 H   0  0  0  0  0  0  0  0  0  0  0  0
   -0.8305    0.0025   -2.1645 H   0  0  0  0  0  0  0  0  0  0  0  0
   -1.1023   -2.8981    0.8440 H   0  0  0  0  0  0  0  0  0  0  0  0
   -2.2081   -2.9107   -0.5378 H   0  0  0  0  0  0  0  0  0  0  0  0
   -0.4554   -2.9097   -0.8025 H   0  0  0  0  0  0  0  0  0  0  0  0
   -3.1921   -0.0334    0.4198 H   0  0  0  0  0  0  0  0  0  0  0  0
   -1.1561   -0.0554    2.3789 H   0  0  0  0  0  0  0  0  0  0  0  0
  1 10  1  0  0  0  0
  2  1  1  1  0  0  0
  2  8  1  0  0  0  0
  2  6  1  0  0  0  0
  3  4  1  0  0  0  0
  3  2  1  0  0  0  0
  4  5  1  6  0  0  0
  4  8  1  0  0  0  0
  4  6  1  0  0  0  0
  5 15  1  0  0  0  0
  6 18  1  6  0  0  0
  6  7  1  0  0  0  0
  7 19  1  0  0  0  0
  8  9  2  0  0  0  0
 11  1  1  0  0  0  0
 12  1  1  0  0  0  0
 13  3  1  0  0  0  0
 14  3  1  0  0  0  0
 16  5  1  0  0  0  0
 17  5  1  0  0  0  0
M TOR 0 0 1 2 3
M TOR 1 0 1 2 12
M TOR 2 0 1 2 13
M TOR 3 0 1 5 3
M TOR 4 0 1 5 6
M TOR 5 0 1 5 17
M TOR 6 0 1 7 3
M TOR 7 0 1 7 8
M TOR 8 1 2 3 4
M TOR 9 1 2 3 5
M TOR 10 1 2 3 7
M TOR 11 1 5 3 4
M TOR 12 1 5 3 7
M TOR 13 1 5 6 18
M TOR 14 1 7 3 4
M TOR 15 2 1 0 9
M TOR 16 2 1 0 10
M TOR 17 2 1 0 11
M TOR 18 2 1 5 6
M TOR 19 2 1 5 17
M TOR 20 2 1 7 8
M TOR 21 2 3 4 14
M TOR 22 2 3 4 15
M TOR 23 2 3 4 16
M TOR 24 2 3 5 6
M TOR 25 2 3 5 17
M TOR 26 2 3 7 8
M TOR 27 3 5 6 18
M TOR 28 4 3 2 12
M TOR 29 4 3 2 13
M TOR 30 4 3 5 6
M TOR 31 4 3 5 17
M TOR 32 4 3 7 8
M TOR 33 5 1 0 9
M TOR 34 5 1 0 10
M TOR 35 5 1 0 11
M TOR 36 5 1 2 12
M TOR 37 5 1 2 13
M TOR 38 5 1 7 8
M TOR 39 5 3 2 12
M TOR 40 5 3 2 13
M TOR 41 5 3 4 14
M TOR 42 5 3 4 15
M TOR 43 5 3 4 16
M TOR 44 5 3 7 8
M TOR 45 6 5 1 7
M TOR 46 6 5 3 7
M TOR 47 7 1 0 9
M TOR 48 7 1 0 10
M TOR 49 7 1 0 11
M TOR 50 7 1 2 12
M TOR 51 7 1 2 13
M TOR 52 7 1 5 17
M TOR 53 7 3 2 12
M TOR 54 7 3 2 13
M TOR 55 7 3 4 14
M TOR 56 7 3 4 15
M TOR 57 7 3 4 16
M TOR 58 7 3 5 17
M  END
$$$$
