gdb 1560	2.4254916	1.6572181	1.3524808	2.9026	74.81	-0.24322	-0.02288	0.22033999999999998	1033.0537	0.156915	-422.584863	-422.576426	-422.575482	-422.617405	32.924
 OpenBabel02181911403D

 19 20  0  0  1  0  0  0  0  0999 V2000
   -0.4544    2.0844   -1.1804 C   0  0  0  0  0  0  0  0  0  0  0  0
   -0.9577    1.2613    0.0137 C   0  0  1  0  0  0  0  0  0  0  0  0
   -0.8910    2.0555    1.1897 O   0  0  0  0  0  0  0  0  0  0  0  0
   -2.3856    0.6905   -0.1456 C   0  0  0  0  0  0  0  0  0  0  0  0
   -2.2413   -0.8132   -0.3960 C   0  0  1  0  0  0  0  0  0  0  0  0
   -1.4001   -1.2461   -1.5459 C   0  0  0  0  0  0  0  0  0  0  0  0
   -0.7903   -1.2251   -0.1453 C   0  0  1  0  0  0  0  0  0  0  0  0
   -0.0739    0.0060    0.2606 C   0  0  0  0  0  0  0  0  0  0  0  0
    0.9865    0.0826    0.8386 O   0  0  0  0  0  0  0  0  0  0  0  0
    0.6002    2.3394   -1.0376 H   0  0  0  0  0  0  0  0  0  0  0  0
   -0.5531    1.5579   -2.1345 H   0  0  0  0  0  0  0  0  0  0  0  0
   -1.0305    3.0125   -1.2376 H   0  0  0  0  0  0  0  0  0  0  0  0
    0.0175    1.9619    1.5131 H   0  0  0  0  0  0  0  0  0  0  0  0
   -2.9136    0.8622    0.7956 H   0  0  0  0  0  0  0  0  0  0  0  0
   -2.9502    1.1854   -0.9421 H   0  0  0  0  0  0  0  0  0  0  0  0
   -3.0433   -1.4653   -0.0703 H   0  0  0  0  0  0  0  0  0  0  0  0
   -1.5662   -2.2384   -1.9502 H   0  0  0  0  0  0  0  0  0  0  0  0
   -1.0666   -0.5222   -2.2801 H   0  0  0  0  0  0  0  0  0  0  0  0
   -0.4958   -2.1630    0.3080 H   0  0  0  0  0  0  0  0  0  0  0  0
  1 10  1  0  0  0  0
  1  2  1  0  0  0  0
  2  8  1  0  0  0  0
  2  3  1  1  0  0  0
  3 13  1  0  0  0  0
  4  2  1  0  0  0  0
  4 14  1  0  0  0  0
  5  4  1  0  0  0  0
  5  7  1  0  0  0  0
  5 16  1  1  0  0  0
  6  5  1  0  0  0  0
  6  7  1  0  0  0  0
  7  8  1  0  0  0  0
  7 19  1  1  0  0  0
  8  9  2  0  0  0  0
 11  1  1  0  0  0  0
 12  1  1  0  0  0  0
 15  4  1  0  0  0  0
 17  6  1  0  0  0  0
 18  6  1  0  0  0  0
M TOR 0 0 1 2 12
M TOR 1 0 1 3 4
M TOR 2 0 1 3 13
M TOR 3 0 1 3 14
M TOR 4 0 1 7 6
M TOR 5 0 1 7 8
M TOR 6 1 3 4 5
M TOR 7 1 3 4 6
M TOR 8 1 3 4 15
M TOR 9 1 7 6 4
M TOR 10 1 7 6 5
M TOR 11 1 7 6 18
M TOR 12 2 1 0 9
M TOR 13 2 1 0 10
M TOR 14 2 1 0 11
M TOR 15 2 1 3 4
M TOR 16 2 1 3 13
M TOR 17 2 1 3 14
M TOR 18 2 1 7 6
M TOR 19 2 1 7 8
M TOR 20 3 1 0 9
M TOR 21 3 1 0 10
M TOR 22 3 1 0 11
M TOR 23 3 1 2 12
M TOR 24 3 1 7 6
M TOR 25 3 1 7 8
M TOR 26 3 4 5 6
M TOR 27 3 4 5 16
M TOR 28 3 4 5 17
M TOR 29 3 4 6 7
M TOR 30 3 4 6 18
M TOR 31 4 3 1 7
M TOR 32 4 5 6 7
M TOR 33 4 5 6 18
M TOR 34 4 6 5 16
M TOR 35 4 6 5 17
M TOR 36 4 6 7 8
M TOR 37 5 4 3 13
M TOR 38 5 4 3 14
M TOR 39 5 6 4 15
M TOR 40 5 6 7 8
M TOR 41 6 4 3 13
M TOR 42 6 4 3 14
M TOR 43 7 1 0 9
M TOR 44 7 1 0 10
M TOR 45 7 1 0 11
M TOR 46 7 1 2 12
M TOR 47 7 1 3 13
M TOR 48 7 1 3 14
M TOR 49 7 6 4 15
M TOR 50 7 6 5 16
M TOR 51 7 6 5 17
M TOR 52 8 7 6 18
M  END
$$$$
