
     RDKit          3D

 19 20  0  0  0  0  0  0  0  0999 V2000
    2.0968    0.1322   -1.5527 C   0  0  0  0  0  0  0  0  0  0  0  0
    1.5161    0.4829   -0.2018 C   0  0  0  0  0  0  0  0  0  0  0  0
    2.2084    1.4516    0.6793 C   0  0  0  0  0  0  0  0  0  0  0  0
    1.4009    1.8396    1.7843 O   0  0  0  0  0  0  0  0  0  0  0  0
    1.3587    0.4693    2.2692 C   0  0  0  0  0  0  0  0  0  0  0  0
    2.1995   -0.0266    1.0903 C   0  0  0  0  0  0  0  0  0  0  0  0
    3.3046   -1.0103    1.1296 C   0  0  0  0  0  0  0  0  0  0  0  0
    3.3126   -1.9604    2.3168 C   0  0  0  0  0  0  0  0  0  0  0  0
    4.1650   -1.0652    0.2727 O   0  0  0  0  0  0  0  0  0  0  0  0
    1.7954   -0.8741   -1.8599 H   0  0  0  0  0  0  0  0  0  0  0  0
    1.7296    0.8386   -2.3046 H   0  0  0  0  0  0  0  0  0  0  0  0
    3.1866    0.1546   -1.5386 H   0  0  0  0  0  0  0  0  0  0  0  0
    0.4279    0.5017   -0.1527 H   0  0  0  0  0  0  0  0  0  0  0  0
    3.0389    2.0864    0.3903 H   0  0  0  0  0  0  0  0  0  0  0  0
    1.8606    0.3973    3.2404 H   0  0  0  0  0  0  0  0  0  0  0  0
    0.3328    0.0913    2.3551 H   0  0  0  0  0  0  0  0  0  0  0  0
    3.5242   -1.4115    3.2417 H   0  0  0  0  0  0  0  0  0  0  0  0
    2.3358   -2.4400    2.4446 H   0  0  0  0  0  0  0  0  0  0  0  0
    4.0842   -2.7163    2.1679 H   0  0  0  0  0  0  0  0  0  0  0  0
  1  2  1  0
  2  3  1  0
  3  4  1  0
  4  5  1  0
  5  6  1  0
  6  7  1  0
  7  8  1  0
  7  9  2  0
  6  2  1  0
  6  3  1  0
  1 10  1  0
  1 11  1  0
  1 12  1  0
  2 13  1  0
  3 14  1  0
  5 15  1  0
  5 16  1  0
  8 17  1  0
  8 18  1  0
  8 19  1  0
M  END
$$$$
