gdb 3559	2.7199289	1.4075734	0.9658141	4.9398	78.6	-0.25991	-0.04423	0.21567999999999998	1219.8721	0.156781	-422.610978	-422.602172	-422.601228	-422.644353	32.922
 OpenBabel02181911413D

 19 19  0  0  1  0  0  0  0  0999 V2000
   -2.7178   -2.5105    0.0691 C   0  0  0  0  0  0  0  0  0  0  0  0
   -2.1667   -1.1371   -0.2813 C   0  0  2  0  0  0  0  0  0  0  0  0
   -0.7799   -1.1615    0.1256 O   0  0  0  0  0  0  0  0  0  0  0  0
   -0.0398   -0.0239    0.0559 C   0  0  0  0  0  0  0  0  0  0  0  0
    1.1598   -0.0854    0.1405 O   0  0  0  0  0  0  0  0  0  0  0  0
   -0.7892    1.2478   -0.0465 C   0  0  0  0  0  0  0  0  0  0  0  0
   -2.1079    1.2934    0.1469 C   0  0  0  0  0  0  0  0  0  0  0  0
   -2.9197    0.0409    0.3542 C   0  0  1  0  0  0  0  0  0  0  0  0
   -4.3397    0.1948   -0.2119 C   0  0  0  0  0  0  0  0  0  0  0  0
   -2.7350   -2.6539    1.1539 H   0  0  0  0  0  0  0  0  0  0  0  0
   -3.7317   -2.6367   -0.3188 H   0  0  0  0  0  0  0  0  0  0  0  0
   -2.0830   -3.2851   -0.3676 H   0  0  0  0  0  0  0  0  0  0  0  0
   -2.1856   -0.9990   -1.3729 H   0  0  0  0  0  0  0  0  0  0  0  0
   -0.1796    2.1318   -0.1900 H   0  0  0  0  0  0  0  0  0  0  0  0
   -2.6320    2.2465    0.1655 H   0  0  0  0  0  0  0  0  0  0  0  0
   -2.9979   -0.1428    1.4374 H   0  0  0  0  0  0  0  0  0  0  0  0
   -4.8281    1.0749    0.2176 H   0  0  0  0  0  0  0  0  0  0  0  0
   -4.3181    0.3227   -1.2997 H   0  0  0  0  0  0  0  0  0  0  0  0
   -4.9617   -0.6739    0.0169 H   0  0  0  0  0  0  0  0  0  0  0  0
  1 10  1  0  0  0  0
  2 13  1  6  0  0  0
  2  1  1  0  0  0  0
  2  3  1  0  0  0  0
  2  8  1  0  0  0  0
  4  3  1  0  0  0  0
  4  5  2  0  0  0  0
  6  4  1  0  0  0  0
  6  7  2  0  0  0  0
  7 15  1  0  0  0  0
  7  8  1  0  0  0  0
  8 16  1  1  0  0  0
  9 19  1  0  0  0  0
  9 17  1  0  0  0  0
  9  8  1  0  0  0  0
 11  1  1  0  0  0  0
 12  1  1  0  0  0  0
 14  6  1  0  0  0  0
 18  9  1  0  0  0  0
M TOR 0 0 1 2 3
M TOR 1 0 1 7 6
M TOR 2 0 1 7 8
M TOR 3 0 1 7 15
M TOR 4 1 2 3 4
M TOR 5 1 2 3 5
M TOR 6 1 7 6 5
M TOR 7 1 7 6 14
M TOR 8 1 7 8 16
M TOR 9 1 7 8 17
M TOR 10 1 7 8 18
M TOR 11 2 1 0 9
M TOR 12 2 1 0 10
M TOR 13 2 1 0 11
M TOR 14 2 1 7 6
M TOR 15 2 1 7 8
M TOR 16 2 1 7 15
M TOR 17 2 3 5 6
M TOR 18 2 3 5 13
M TOR 19 3 2 1 7
M TOR 20 3 2 1 12
M TOR 21 3 5 6 7
M TOR 22 3 5 6 14
M TOR 23 4 3 5 6
M TOR 24 4 3 5 13
M TOR 25 5 6 7 8
M TOR 26 5 6 7 15
M TOR 27 6 7 1 12
M TOR 28 6 7 8 16
M TOR 29 6 7 8 17
M TOR 30 6 7 8 18
M TOR 31 7 1 0 9
M TOR 32 7 1 0 10
M TOR 33 7 1 0 11
M TOR 34 7 6 5 13
M TOR 35 8 7 1 12
M TOR 36 8 7 6 14
M  END
$$$$
