
     RDKit          3D

 19 21  0  0  0  0  0  0  0  0999 V2000
    1.0165    0.9795    0.3033 O   0  0  0  0  0  0  0  0  0  0  0  0
    0.2699   -0.1997    0.5274 C   0  0  0  0  0  0  0  0  0  0  0  0
   -1.1892    0.1238    0.8204 C   0  0  0  0  0  0  0  0  0  0  0  0
   -1.6739    0.9535   -0.2459 O   0  0  0  0  0  0  0  0  0  0  0  0
   -2.1828   -0.9708    1.1945 C   0  0  0  0  0  0  0  0  0  0  0  0
   -2.1640   -1.1162    2.7286 C   0  0  0  0  0  0  0  0  0  0  0  0
   -1.1456   -0.1193    3.2814 C   0  0  0  0  0  0  0  0  0  0  0  0
   -1.6173    0.8221    2.1435 C   0  0  0  0  0  0  0  0  0  0  0  0
   -2.9593   -0.0190    2.0715 C   0  0  0  0  0  0  0  0  0  0  0  0
    0.4444    1.5370   -0.2401 H   0  0  0  0  0  0  0  0  0  0  0  0
    0.3053   -0.8761   -0.3481 H   0  0  0  0  0  0  0  0  0  0  0  0
    0.7385   -0.7335    1.3585 H   0  0  0  0  0  0  0  0  0  0  0  0
   -1.8292    0.3905   -1.0127 H   0  0  0  0  0  0  0  0  0  0  0  0
   -2.5667   -1.7635    0.5626 H   0  0  0  0  0  0  0  0  0  0  0  0
   -2.5387   -2.0201    3.1927 H   0  0  0  0  0  0  0  0  0  0  0  0
   -1.4621    0.2556    4.2588 H   0  0  0  0  0  0  0  0  0  0  0  0
   -0.0855   -0.3896    3.3260 H   0  0  0  0  0  0  0  0  0  0  0  0
   -1.5303    1.9030    2.2152 H   0  0  0  0  0  0  0  0  0  0  0  0
   -4.0062    0.2418    2.0978 H   0  0  0  0  0  0  0  0  0  0  0  0
  1  2  1  0
  2  3  1  0
  3  4  1  0
  3  5  1  0
  5  6  1  0
  6  7  1  0
  7  8  1  0
  8  9  1  0
  8  3  1  0
  9  5  1  0
  9  6  1  0
  1 10  1  0
  2 11  1  0
  2 12  1  0
  4 13  1  0
  5 14  1  0
  6 15  1  0
  7 16  1  0
  7 17  1  0
  8 18  1  0
  9 19  1  0
M  END
$$$$
