gdb 1366	3.5149496	0.9295977	0.8632634	2.1478	77.75	-0.25289	0.02169	0.27458	1393.1808	0.154195	-422.506536	-422.496719	-422.495774	-422.541237	36.756
 OpenBabel02181911403D

 19 19  0  0  1  0  0  0  0  0999 V2000
   -0.0583    0.9795   -1.5030 O   0  0  0  0  0  0  0  0  0  0  0  0
    1.2493    0.6598   -1.0120 C   0  0  2  0  0  0  0  0  0  0  0  0
    1.2074   -0.3365    0.1702 C   0  0  0  0  0  0  0  0  0  0  0  0
    0.1480   -1.4096   -0.0395 C   0  0  0  0  0  0  0  0  0  0  0  0
    0.0836   -1.9123   -1.3474 O   0  0  0  0  0  0  0  0  0  0  0  0
   -1.1457   -1.3531    0.7386 C   0  0  0  0  0  0  0  0  0  0  0  0
   -0.1069   -2.4186    1.0355 C   0  0  0  0  0  0  0  0  0  0  0  0
    2.0101    1.8626   -0.6730 C   0  0  0  0  0  0  0  0  0  0  0  0
    2.6133    2.8536   -0.3580 C   0  0  0  0  0  0  0  0  0  0  0  0
   -0.5260    1.4609   -0.8110 H   0  0  0  0  0  0  0  0  0  0  0  0
    1.7280    0.1581   -1.8591 H   0  0  0  0  0  0  0  0  0  0  0  0
    2.2040   -0.7852    0.2593 H   0  0  0  0  0  0  0  0  0  0  0  0
    1.0149    0.2013    1.1051 H   0  0  0  0  0  0  0  0  0  0  0  0
   -0.3056   -1.2036   -1.8779 H   0  0  0  0  0  0  0  0  0  0  0  0
   -1.2923   -0.5595    1.4644 H   0  0  0  0  0  0  0  0  0  0  0  0
   -2.0429   -1.6679    0.2176 H   0  0  0  0  0  0  0  0  0  0  0  0
    0.4596   -2.3482    1.9579 H   0  0  0  0  0  0  0  0  0  0  0  0
   -0.3210   -3.4285    0.7059 H   0  0  0  0  0  0  0  0  0  0  0  0
    3.1539    3.7308   -0.1002 H   0  0  0  0  0  0  0  0  0  0  0  0
  1  2  1  0  0  0  0
  1 10  1  0  0  0  0
  2 11  1  6  0  0  0
  2  8  1  0  0  0  0
  2  3  1  0  0  0  0
  3 12  1  0  0  0  0
  3 13  1  0  0  0  0
  4  3  1  0  0  0  0
  4  6  1  0  0  0  0
  4  7  1  0  0  0  0
  5  4  1  0  0  0  0
  6  7  1  0  0  0  0
  6 15  1  0  0  0  0
  7 17  1  0  0  0  0
  8  9  3  0  0  0  0
  9 19  1  0  0  0  0
 14  5  1  0  0  0  0
 16  6  1  0  0  0  0
 18  7  1  0  0  0  0
M TOR 0 0 1 2 3
M TOR 1 0 1 2 11
M TOR 2 0 1 2 12
M TOR 3 0 1 7 8
M TOR 4 1 2 3 4
M TOR 5 1 2 3 5
M TOR 6 1 2 3 6
M TOR 7 1 7 8 18
M TOR 8 2 1 0 9
M TOR 9 2 1 7 8
M TOR 10 2 3 4 13
M TOR 11 2 3 5 6
M TOR 12 2 3 5 14
M TOR 13 2 3 5 15
M TOR 14 2 3 6 16
M TOR 15 2 3 6 17
M TOR 16 3 2 1 7
M TOR 17 3 2 1 10
M TOR 18 3 5 6 16
M TOR 19 3 5 6 17
M TOR 20 3 6 5 14
M TOR 21 3 6 5 15
M TOR 22 4 3 2 11
M TOR 23 4 3 2 12
M TOR 24 4 3 5 6
M TOR 25 4 3 5 14
M TOR 26 4 3 5 15
M TOR 27 4 3 6 16
M TOR 28 4 3 6 17
M TOR 29 5 3 2 11
M TOR 30 5 3 2 12
M TOR 31 5 3 4 13
M TOR 32 6 3 2 11
M TOR 33 6 3 2 12
M TOR 34 6 3 4 13
M TOR 35 7 1 0 9
M TOR 36 7 1 2 11
M TOR 37 7 1 2 12
M TOR 38 8 7 1 10
M  END
$$$$
