gdb 2536	2.6691893	1.2141105	0.9414532	3.2949	80.08	-0.23424	-0.02716	0.20708000000000001	1280.4643	0.156272	-422.573383	-422.564404	-422.56346	-422.607465	32.534
 OpenBabel02181911413D

 19 19  0  0  1  0  0  0  0  0999 V2000
    1.4499    0.8160   -0.4235 C   0  0  0  0  0  0  0  0  0  0  0  0
    0.0424    0.3581   -0.1680 C   0  0  0  0  0  0  0  0  0  0  0  0
   -1.0099    1.1789   -0.1452 C   0  0  0  0  0  0  0  0  0  0  0  0
   -2.4118    0.6963    0.1527 C   0  0  2  0  0  0  0  0  0  0  0  0
   -2.3407   -0.6894    0.8124 C   0  0  0  0  0  0  0  0  0  0  0  0
   -1.4799   -1.5505    0.0900 O   0  0  0  0  0  0  0  0  0  0  0  0
   -0.1352   -1.1165    0.1030 C   0  0  0  0  0  0  0  0  0  0  0  0
   -3.1945    0.6427   -1.1542 C   0  0  0  0  0  0  0  0  0  0  0  0
   -4.0113    1.4582   -1.4967 O   0  0  0  0  0  0  0  0  0  0  0  0
    2.1111    0.5517    0.4118 H   0  0  0  0  0  0  0  0  0  0  0  0
    1.8677    0.3347   -1.3168 H   0  0  0  0  0  0  0  0  0  0  0  0
    1.4985    1.8985   -0.5644 H   0  0  0  0  0  0  0  0  0  0  0  0
   -0.8884    2.2374   -0.3595 H   0  0  0  0  0  0  0  0  0  0  0  0
   -2.9258    1.4068    0.8097 H   0  0  0  0  0  0  0  0  0  0  0  0
   -2.0002   -0.5765    1.8541 H   0  0  0  0  0  0  0  0  0  0  0  0
   -3.3187   -1.1799    0.8269 H   0  0  0  0  0  0  0  0  0  0  0  0
    0.3422   -1.3675    1.0689 H   0  0  0  0  0  0  0  0  0  0  0  0
    0.3806   -1.7068   -0.6638 H   0  0  0  0  0  0  0  0  0  0  0  0
   -2.9257   -0.2236   -1.7979 H   0  0  0  0  0  0  0  0  0  0  0  0
  1  2  1  0  0  0  0
  1 10  1  0  0  0  0
  2  3  2  0  0  0  0
  2  7  1  0  0  0  0
  3  4  1  0  0  0  0
  4 14  1  1  0  0  0
  4  5  1  0  0  0  0
  5 16  1  0  0  0  0
  5 15  1  0  0  0  0
  6  7  1  0  0  0  0
  6  5  1  0  0  0  0
  7 17  1  0  0  0  0
  8  4  1  0  0  0  0
  9  8  2  0  0  0  0
 11  1  1  0  0  0  0
 12  1  1  0  0  0  0
 13  3  1  0  0  0  0
 18  7  1  0  0  0  0
 19  8  1  0  0  0  0
M TOR 0 0 1 2 3
M TOR 1 0 1 2 12
M TOR 2 0 1 6 5
M TOR 3 0 1 6 16
M TOR 4 0 1 6 17
M TOR 5 1 2 3 4
M TOR 6 1 2 3 7
M TOR 7 1 2 3 13
M TOR 8 1 6 5 4
M TOR 9 2 1 0 9
M TOR 10 2 1 0 10
M TOR 11 2 1 0 11
M TOR 12 2 1 6 5
M TOR 13 2 1 6 16
M TOR 14 2 1 6 17
M TOR 15 2 3 4 5
M TOR 16 2 3 4 14
M TOR 17 2 3 4 15
M TOR 18 2 3 7 8
M TOR 19 2 3 7 18
M TOR 20 3 2 1 6
M TOR 21 3 4 5 6
M TOR 22 4 3 2 12
M TOR 23 4 3 7 8
M TOR 24 4 3 7 18
M TOR 25 4 5 6 16
M TOR 26 4 5 6 17
M TOR 27 5 4 3 7
M TOR 28 5 4 3 13
M TOR 29 6 1 0 9
M TOR 30 6 1 0 10
M TOR 31 6 1 0 11
M TOR 32 6 1 2 12
M TOR 33 6 5 4 14
M TOR 34 6 5 4 15
M TOR 35 7 3 2 12
M TOR 36 7 3 4 14
M TOR 37 7 3 4 15
M TOR 38 8 7 3 13
M  END
$$$$
