gdb 4791	3.5320893	0.6984082	0.6199017	3.3955	81.24	-0.25014	-0.03594	0.21419999999999997	1811.0011	0.153681	-422.540735	-422.529872	-422.528928	-422.578639	36.507
 OpenBabel02181911413D

 19 18  0  0  1  0  0  0  0  0999 V2000
    1.6038    0.2705   -0.1184 C   0  0  0  0  0  0  0  0  0  0  0  0
    0.1569    0.1064   -0.1205 C   0  0  0  0  0  0  0  0  0  0  0  0
   -1.0410   -0.0184   -0.1319 C   0  0  0  0  0  0  0  0  0  0  0  0
   -2.4909   -0.1785   -0.1191 C   0  0  0  0  0  0  0  0  0  0  0  0
   -3.0016   -1.2006    0.9316 C   0  0  1  0  0  0  0  0  0  0  0  0
   -4.5360   -1.2123    1.0251 C   0  0  0  0  0  0  0  0  0  0  0  0
   -5.0110   -2.0389    2.0623 O   0  0  0  0  0  0  0  0  0  0  0  0
   -2.4485   -2.5840    0.6510 C   0  0  0  0  0  0  0  0  0  0  0  0
   -3.0930   -3.6059    0.7278 O   0  0  0  0  0  0  0  0  0  0  0  0
    2.0539   -0.1802    0.7729 H   0  0  0  0  0  0  0  0  0  0  0  0
    2.0599   -0.2021   -0.9951 H   0  0  0  0  0  0  0  0  0  0  0  0
    1.8825    1.3298   -0.1297 H   0  0  0  0  0  0  0  0  0  0  0  0
   -2.9660    0.7879    0.0912 H   0  0  0  0  0  0  0  0  0  0  0  0
   -2.8448   -0.4757   -1.1157 H   0  0  0  0  0  0  0  0  0  0  0  0
   -2.5934   -0.9074    1.9104 H   0  0  0  0  0  0  0  0  0  0  0  0
   -4.8925   -0.1986    1.2385 H   0  0  0  0  0  0  0  0  0  0  0  0
   -4.9512   -1.5045    0.0461 H   0  0  0  0  0  0  0  0  0  0  0  0
   -4.7246   -2.9327    1.8314 H   0  0  0  0  0  0  0  0  0  0  0  0
   -1.3779   -2.6143    0.3608 H   0  0  0  0  0  0  0  0  0  0  0  0
  1 10  1  0  0  0  0
  2  1  1  0  0  0  0
  3  2  3  0  0  0  0
  3  4  1  0  0  0  0
  4 13  1  0  0  0  0
  4  5  1  0  0  0  0
  5  6  1  0  0  0  0
  5 15  1  1  0  0  0
  6 16  1  0  0  0  0
  6  7  1  0  0  0  0
  8  9  2  0  0  0  0
  8  5  1  0  0  0  0
 11  1  1  0  0  0  0
 12  1  1  0  0  0  0
 14  4  1  0  0  0  0
 17  6  1  0  0  0  0
 18  7  1  0  0  0  0
 19  8  1  0  0  0  0
M TOR 0 0 1 2 3
M TOR 1 1 2 3 4
M TOR 2 1 2 3 12
M TOR 3 1 2 3 13
M TOR 4 2 1 0 9
M TOR 5 2 1 0 10
M TOR 6 2 1 0 11
M TOR 7 2 3 4 5
M TOR 8 2 3 4 7
M TOR 9 2 3 4 14
M TOR 10 3 4 5 6
M TOR 11 3 4 5 15
M TOR 12 3 4 5 16
M TOR 13 3 4 7 8
M TOR 14 3 4 7 18
M TOR 15 4 5 6 17
M TOR 16 5 4 3 12
M TOR 17 5 4 3 13
M TOR 18 5 4 7 8
M TOR 19 5 4 7 18
M TOR 20 6 5 4 7
M TOR 21 6 5 4 14
M TOR 22 7 4 3 12
M TOR 23 7 4 3 13
M TOR 24 7 4 5 15
M TOR 25 7 4 5 16
M TOR 26 8 7 4 14
M  END
$$$$
