
     RDKit          3D

 19 18  0  0  0  0  0  0  0  0999 V2000
   -6.3085    0.6620   -0.8191 C   0  0  0  0  0  0  0  0  0  0  0  0
   -5.4281    0.0675    0.1050 O   0  0  0  0  0  0  0  0  0  0  0  0
   -4.0862    0.4431   -0.0949 C   0  0  0  0  0  0  0  0  0  0  0  0
   -3.2444   -0.2702    0.9690 C   0  0  0  0  0  0  0  0  0  0  0  0
   -1.8255    0.0428    0.8596 C   0  0  0  0  0  0  0  0  0  0  0  0
   -0.6597    0.3282    0.7611 C   0  0  0  0  0  0  0  0  0  0  0  0
    0.7531    0.6365    0.5935 C   0  0  0  0  0  0  0  0  0  0  0  0
    1.3326    0.0245   -0.6839 C   0  0  0  0  0  0  0  0  0  0  0  0
    2.1342    0.5788   -1.3848 O   0  0  0  0  0  0  0  0  0  0  0  0
   -6.2913    1.7612   -0.7509 H   0  0  0  0  0  0  0  0  0  0  0  0
   -6.0647    0.3794   -1.8554 H   0  0  0  0  0  0  0  0  0  0  0  0
   -7.3156    0.3093   -0.5844 H   0  0  0  0  0  0  0  0  0  0  0  0
   -3.7420    0.1581   -1.1025 H   0  0  0  0  0  0  0  0  0  0  0  0
   -3.9633    1.5346   -0.0042 H   0  0  0  0  0  0  0  0  0  0  0  0
   -3.6218    0.0124    1.9591 H   0  0  0  0  0  0  0  0  0  0  0  0
   -3.4056   -1.3507    0.8737 H   0  0  0  0  0  0  0  0  0  0  0  0
    0.9494    1.7135    0.5755 H   0  0  0  0  0  0  0  0  0  0  0  0
    1.3335    0.2210    1.4321 H   0  0  0  0  0  0  0  0  0  0  0  0
    0.9566   -0.9971   -0.9100 H   0  0  0  0  0  0  0  0  0  0  0  0
  1  2  1  0
  2  3  1  0
  3  4  1  0
  4  5  1  0
  5  6  3  0
  6  7  1  0
  7  8  1  0
  8  9  2  0
  1 10  1  0
  1 11  1  0
  1 12  1  0
  3 13  1  0
  3 14  1  0
  4 15  1  0
  4 16  1  0
  7 17  1  0
  7 18  1  0
  8 19  1  0
M  END
$$$$
