
     RDKit          3D

 19 19  0  0  0  0  0  0  0  0999 V2000
    0.0216   -0.6232   -0.0731 C   0  0  0  0  0  0  0  0  0  0  0  0
    1.4870   -0.2635    0.0645 C   0  0  0  0  0  0  0  0  0  0  0  0
    2.1476   -0.7518    1.3392 C   0  0  0  0  0  0  0  0  0  0  0  0
    2.3316   -0.2072   -1.1848 C   0  0  0  0  0  0  0  0  0  0  0  0
    1.7419   -0.5408   -2.3991 O   0  0  0  0  0  0  0  0  0  0  0  0
    1.9712    1.0966   -0.4922 C   0  0  0  0  0  0  0  0  0  0  0  0
    3.0613    1.7266    0.1333 O   0  0  0  0  0  0  0  0  0  0  0  0
    1.0429    1.9873   -1.1338 C   0  0  0  0  0  0  0  0  0  0  0  0
    0.2903    2.7612   -1.6667 C   0  0  0  0  0  0  0  0  0  0  0  0
   -0.5676   -0.1588    0.7251 H   0  0  0  0  0  0  0  0  0  0  0  0
   -0.3834   -0.3071   -1.0340 H   0  0  0  0  0  0  0  0  0  0  0  0
   -0.1051   -1.7089    0.0042 H   0  0  0  0  0  0  0  0  0  0  0  0
    2.1320   -1.8467    1.3758 H   0  0  0  0  0  0  0  0  0  0  0  0
    3.1844   -0.4184    1.4118 H   0  0  0  0  0  0  0  0  0  0  0  0
    1.6108   -0.3848    2.2220 H   0  0  0  0  0  0  0  0  0  0  0  0
    3.3826   -0.4808   -1.0830 H   0  0  0  0  0  0  0  0  0  0  0  0
    1.8787    0.1891   -3.0135 H   0  0  0  0  0  0  0  0  0  0  0  0
    2.7186    2.2422    0.8725 H   0  0  0  0  0  0  0  0  0  0  0  0
   -0.3795    3.4429   -2.1298 H   0  0  0  0  0  0  0  0  0  0  0  0
  1  2  1  0
  2  3  1  0
  2  4  1  0
  4  5  1  0
  4  6  1  0
  6  7  1  0
  6  8  1  0
  8  9  3  0
  6  2  1  0
  1 10  1  0
  1 11  1  0
  1 12  1  0
  3 13  1  0
  3 14  1  0
  3 15  1  0
  4 16  1  0
  5 17  1  0
  7 18  1  0
  9 19  1  0
M  END
$$$$
