gdb 5812	2.6460769	1.6212448	1.1972536	2.0183	76.23	-0.24557	0.00257	0.24814	1081.0316	0.157433	-422.529228	-422.520939	-422.519995	-422.56238	31.101
 OpenBabel02181911423D

 19 20  0  0  1  0  0  0  0  0999 V2000
    1.4493   -0.0913   -0.0017 C   0  0  0  0  0  0  0  0  0  0  0  0
    0.0421    0.0091    0.0449 O   0  0  0  0  0  0  0  0  0  0  0  0
   -0.4542    0.7547    1.1366 C   0  0  2  0  0  0  0  0  0  0  0  0
   -1.9838    0.6154    1.0966 C   0  0  0  0  0  0  0  0  0  0  0  0
   -2.6742    1.6136    0.2023 C   0  0  0  0  0  0  0  0  0  0  0  0
   -2.1699    2.8154   -0.0754 C   0  0  0  0  0  0  0  0  0  0  0  0
   -0.8655    3.2422    0.4869 C   0  0  2  0  0  0  0  0  0  0  0  0
    0.3298    2.7717   -0.1687 O   0  0  0  0  0  0  0  0  0  0  0  0
    0.0008    2.2286    1.1091 C   0  0  2  0  0  0  0  0  0  0  0  0
    1.8552   -0.5044    0.9363 H   0  0  0  0  0  0  0  0  0  0  0  0
    1.6911   -0.7761   -0.8182 H   0  0  0  0  0  0  0  0  0  0  0  0
    1.9252    0.8770   -0.1995 H   0  0  0  0  0  0  0  0  0  0  0  0
   -0.0812    0.3132    2.0768 H   0  0  0  0  0  0  0  0  0  0  0  0
   -2.2071   -0.4053    0.7715 H   0  0  0  0  0  0  0  0  0  0  0  0
   -2.3869    0.7067    2.1154 H   0  0  0  0  0  0  0  0  0  0  0  0
   -3.6403    1.3242   -0.2031 H   0  0  0  0  0  0  0  0  0  0  0  0
   -2.7018    3.5146   -0.7136 H   0  0  0  0  0  0  0  0  0  0  0  0
   -0.7901    4.2762    0.8235 H   0  0  0  0  0  0  0  0  0  0  0  0
    0.6755    2.5360    1.9081 H   0  0  0  0  0  0  0  0  0  0  0  0
  1  2  1  0  0  0  0
  1 10  1  0  0  0  0
  2  3  1  0  0  0  0
  3 13  1  1  0  0  0
  4  3  1  0  0  0  0
  4 15  1  0  0  0  0
  5  4  1  0  0  0  0
  6  5  2  0  0  0  0
  6  7  1  0  0  0  0
  7 18  1  1  0  0  0
  7  9  1  0  0  0  0
  8  7  1  0  0  0  0
  8  9  1  0  0  0  0
  9  3  1  0  0  0  0
  9 19  1  1  0  0  0
 11  1  1  0  0  0  0
 12  1  1  0  0  0  0
 14  4  1  0  0  0  0
 16  5  1  0  0  0  0
 17  6  1  0  0  0  0
M TOR 0 0 1 2 3
M TOR 1 0 1 2 8
M TOR 2 0 1 2 12
M TOR 3 1 2 3 4
M TOR 4 1 2 3 13
M TOR 5 1 2 3 14
M TOR 6 1 2 8 6
M TOR 7 1 2 8 7
M TOR 8 1 2 8 18
M TOR 9 2 1 0 9
M TOR 10 2 1 0 10
M TOR 11 2 1 0 11
M TOR 12 2 3 4 5
M TOR 13 2 3 4 15
M TOR 14 2 8 6 5
M TOR 15 2 8 6 7
M TOR 16 2 8 6 17
M TOR 17 3 2 8 6
M TOR 18 3 2 8 7
M TOR 19 3 2 8 18
M TOR 20 3 4 5 6
M TOR 21 3 4 5 16
M TOR 22 4 3 2 8
M TOR 23 4 3 2 12
M TOR 24 4 5 6 7
M TOR 25 4 5 6 8
M TOR 26 4 5 6 17
M TOR 27 5 4 3 13
M TOR 28 5 4 3 14
M TOR 29 5 6 7 8
M TOR 30 5 6 8 18
M TOR 31 6 5 4 15
M TOR 32 6 7 8 18
M TOR 33 6 8 2 12
M TOR 34 7 6 5 16
M TOR 35 7 8 2 12
M TOR 36 7 8 6 17
M TOR 37 8 2 3 13
M TOR 38 8 2 3 14
M TOR 39 8 6 5 16
M  END
$$$$
