
     RDKit          3D

 19 20  0  0  0  0  0  0  0  0999 V2000
    0.9764   -0.6156   -0.8818 C   0  0  0  0  0  0  0  0  0  0  0  0
    1.1386    0.2913    0.3419 C   0  0  0  0  0  0  0  0  0  0  0  0
    2.0047    1.5166    0.1091 C   0  0  0  0  0  0  0  0  0  0  0  0
    2.8691    1.7385    1.0977 C   0  0  0  0  0  0  0  0  0  0  0  0
    2.7168    0.7289    2.2172 C   0  0  0  0  0  0  0  0  0  0  0  0
    3.9079    0.2141    2.7654 O   0  0  0  0  0  0  0  0  0  0  0  0
    1.8598   -0.3547    1.5309 C   0  0  0  0  0  0  0  0  0  0  0  0
    1.4939   -1.5983    2.2030 C   0  0  0  0  0  0  0  0  0  0  0  0
    2.5891   -1.5670    1.2704 O   0  0  0  0  0  0  0  0  0  0  0  0
    0.3640   -1.4928   -0.6514 H   0  0  0  0  0  0  0  0  0  0  0  0
    0.4839   -0.0696   -1.6926 H   0  0  0  0  0  0  0  0  0  0  0  0
    1.9470   -0.9677   -1.2381 H   0  0  0  0  0  0  0  0  0  0  0  0
    0.1380    0.6108    0.6720 H   0  0  0  0  0  0  0  0  0  0  0  0
    1.8874    2.1330   -0.7763 H   0  0  0  0  0  0  0  0  0  0  0  0
    3.5761    2.5571    1.1622 H   0  0  0  0  0  0  0  0  0  0  0  0
    2.1623    1.1797    3.0535 H   0  0  0  0  0  0  0  0  0  0  0  0
    4.1297   -0.5581    2.2254 H   0  0  0  0  0  0  0  0  0  0  0  0
    1.7832   -1.7450    3.2425 H   0  0  0  0  0  0  0  0  0  0  0  0
    0.6281   -2.1690    1.8710 H   0  0  0  0  0  0  0  0  0  0  0  0
  1  2  1  0
  2  3  1  0
  3  4  2  0
  4  5  1  0
  5  6  1  0
  5  7  1  0
  7  8  1  0
  8  9  1  0
  7  2  1  0
  9  7  1  0
  1 10  1  0
  1 11  1  0
  1 12  1  0
  2 13  1  0
  3 14  1  0
  4 15  1  0
  5 16  1  0
  6 17  1  0
  8 18  1  0
  8 19  1  0
M  END
$$$$
