gdb 1309	2.5177362	1.1699249	0.8787311	0.6828	77.99	-0.24954	0.04012	0.28966000000000003	1344.0728	0.154109	-422.50696	-422.496999	-422.496055	-422.542318	35.788
 OpenBabel02181911403D

 19 19  0  0  1  0  0  0  0  0999 V2000
   -4.0658    0.0884   -1.2584 C   0  0  0  0  0  0  0  0  0  0  0  0
   -3.4171   -1.2729   -1.4917 C   0  0  2  0  0  0  0  0  0  0  0  0
   -4.3660   -2.3270   -1.6009 O   0  0  0  0  0  0  0  0  0  0  0  0
   -2.4008   -1.6074   -0.4050 C   0  0  2  0  0  0  0  0  0  0  0  0
   -1.2705   -0.7106   -0.4033 O   0  0  0  0  0  0  0  0  0  0  0  0
   -0.3347   -1.8047   -0.4648 C   0  0  0  0  0  0  0  0  0  0  0  0
   -1.4813   -2.8390   -0.6474 C   0  0  1  0  0  0  0  0  0  0  0  0
   -1.5539   -3.9455    0.2807 C   0  0  0  0  0  0  0  0  0  0  0  0
   -1.6112   -4.8497    1.0713 C   0  0  0  0  0  0  0  0  0  0  0  0
   -4.6204    0.0959   -0.3113 H   0  0  0  0  0  0  0  0  0  0  0  0
   -3.3026    0.8701   -1.2071 H   0  0  0  0  0  0  0  0  0  0  0  0
   -4.7632    0.3227   -2.0669 H   0  0  0  0  0  0  0  0  0  0  0  0
   -2.8906   -1.2638   -2.4538 H   0  0  0  0  0  0  0  0  0  0  0  0
   -4.9053   -2.3257   -0.8019 H   0  0  0  0  0  0  0  0  0  0  0  0
   -2.8928   -1.6311    0.5796 H   0  0  0  0  0  0  0  0  0  0  0  0
    0.3638   -1.7043   -1.3021 H   0  0  0  0  0  0  0  0  0  0  0  0
    0.2243   -1.9222    0.4702 H   0  0  0  0  0  0  0  0  0  0  0  0
   -1.5639   -3.1965   -1.6774 H   0  0  0  0  0  0  0  0  0  0  0  0
   -1.6624   -5.6555    1.7609 H   0  0  0  0  0  0  0  0  0  0  0  0
  1 11  1  0  0  0  0
  1 10  1  0  0  0  0
  2 13  1  6  0  0  0
  2  1  1  0  0  0  0
  2  4  1  0  0  0  0
  3  2  1  0  0  0  0
  3 14  1  0  0  0  0
  4  5  1  0  0  0  0
  4 15  1  1  0  0  0
  6  5  1  0  0  0  0
  6 17  1  0  0  0  0
  7 18  1  6  0  0  0
  7  6  1  0  0  0  0
  7  4  1  0  0  0  0
  7  8  1  0  0  0  0
  8  9  3  0  0  0  0
  9 19  1  0  0  0  0
 12  1  1  0  0  0  0
 16  6  1  0  0  0  0
M TOR 0 0 1 2 13
M TOR 1 0 1 3 4
M TOR 2 0 1 3 6
M TOR 3 0 1 3 14
M TOR 4 1 3 4 5
M TOR 5 1 3 6 5
M TOR 6 1 3 6 7
M TOR 7 1 3 6 17
M TOR 8 2 1 0 9
M TOR 9 2 1 0 10
M TOR 10 2 1 0 11
M TOR 11 2 1 3 4
M TOR 12 2 1 3 6
M TOR 13 2 1 3 14
M TOR 14 3 1 0 9
M TOR 15 3 1 0 10
M TOR 16 3 1 0 11
M TOR 17 3 1 2 13
M TOR 18 3 4 5 6
M TOR 19 3 4 5 15
M TOR 20 3 4 5 16
M TOR 21 3 6 5 15
M TOR 22 3 6 5 16
M TOR 23 3 6 7 8
M TOR 24 4 3 1 12
M TOR 25 4 3 6 7
M TOR 26 4 3 6 17
M TOR 27 4 5 6 7
M TOR 28 4 5 6 17
M TOR 29 5 4 3 14
M TOR 30 5 6 3 14
M TOR 31 5 6 7 8
M TOR 32 6 3 1 12
M TOR 33 6 7 8 18
M TOR 34 7 6 3 14
M TOR 35 7 6 5 15
M TOR 36 7 6 5 16
M TOR 37 8 7 6 17
M  END
$$$$
