gdb 5943	2.1116944	1.29648	0.93985	1.8381	78.12	-0.25233	0.0418	0.29413	1311.7821	0.154303	-422.482088	-422.472227	-422.471283	-422.517383	34.715
 OpenBabel02181911423D

 19 19  0  0  0  0  0  0  0  0999 V2000
    1.4477   -0.0379   -0.0390 C   0  0  0  0  0  0  0  0  0  0  0  0
    0.0435   -0.0061    0.0671 O   0  0  0  0  0  0  0  0  0  0  0  0
   -0.4075    0.6811    1.2078 C   0  0  0  0  0  0  0  0  0  0  0  0
   -1.9370    0.6378    1.2273 C   0  0  0  0  0  0  0  0  0  0  0  0
   -2.5315    1.7459    2.1459 C   0  0  0  0  0  0  0  0  0  0  0  0
   -2.8121    2.5881    1.0152 O   0  0  0  0  0  0  0  0  0  0  0  0
   -2.5567    1.5082    0.0947 C   0  0  0  0  0  0  0  0  0  0  0  0
   -2.4524   -0.7071    1.3963 C   0  0  0  0  0  0  0  0  0  0  0  0
   -2.9023   -1.8103    1.5567 C   0  0  0  0  0  0  0  0  0  0  0  0
    1.9090   -0.5519    0.8186 H   0  0  0  0  0  0  0  0  0  0  0  0
    1.6926   -0.5845   -0.9524 H   0  0  0  0  0  0  0  0  0  0  0  0
    1.8755    0.9750   -0.1035 H   0  0  0  0  0  0  0  0  0  0  0  0
   -0.0077    0.2251    2.1286 H   0  0  0  0  0  0  0  0  0  0  0  0
   -0.0813    1.7349    1.1835 H   0  0  0  0  0  0  0  0  0  0  0  0
   -3.4418    1.4338    2.6715 H   0  0  0  0  0  0  0  0  0  0  0  0
   -1.8385    2.2136    2.8553 H   0  0  0  0  0  0  0  0  0  0  0  0
   -3.4811    1.0937   -0.3235 H   0  0  0  0  0  0  0  0  0  0  0  0
   -1.8752    1.7923   -0.7124 H   0  0  0  0  0  0  0  0  0  0  0  0
   -3.2927   -2.7890    1.6883 H   0  0  0  0  0  0  0  0  0  0  0  0
  1  2  1  0  0  0  0
  1 10  1  0  0  0  0
  2  3  1  0  0  0  0
  3  4  1  0  0  0  0
  3 13  1  0  0  0  0
  4  8  1  0  0  0  0
  4  5  1  0  0  0  0
  5 15  1  0  0  0  0
  5 16  1  0  0  0  0
  6  5  1  0  0  0  0
  7  6  1  0  0  0  0
  7  4  1  0  0  0  0
  8  9  3  0  0  0  0
  9 19  1  0  0  0  0
 11  1  1  0  0  0  0
 12  1  1  0  0  0  0
 14  3  1  0  0  0  0
 17  7  1  0  0  0  0
 18  7  1  0  0  0  0
M TOR 0 0 1 2 3
M TOR 1 0 1 2 12
M TOR 2 0 1 2 13
M TOR 3 1 2 3 4
M TOR 4 1 2 3 6
M TOR 5 1 2 3 7
M TOR 6 2 1 0 9
M TOR 7 2 1 0 10
M TOR 8 2 1 0 11
M TOR 9 2 3 4 5
M TOR 10 2 3 4 14
M TOR 11 2 3 4 15
M TOR 12 2 3 6 5
M TOR 13 2 3 6 16
M TOR 14 2 3 6 17
M TOR 15 2 3 7 8
M TOR 16 3 4 5 6
M TOR 17 3 7 8 18
M TOR 18 4 3 2 12
M TOR 19 4 3 2 13
M TOR 20 4 3 6 16
M TOR 21 4 3 6 17
M TOR 22 4 3 7 8
M TOR 23 4 5 6 16
M TOR 24 4 5 6 17
M TOR 25 5 4 3 7
M TOR 26 5 6 3 7
M TOR 27 6 3 2 12
M TOR 28 6 3 2 13
M TOR 29 6 3 4 14
M TOR 30 6 3 4 15
M TOR 31 6 3 7 8
M TOR 32 6 5 4 14
M TOR 33 6 5 4 15
M TOR 34 7 3 2 12
M TOR 35 7 3 2 13
M TOR 36 7 3 4 14
M TOR 37 7 3 4 15
M TOR 38 7 3 6 16
M TOR 39 7 3 6 17
M  END
$$$$
