gdb 1714	2.5126863	1.4648259	1.4122054	1.8041	74.75	-0.23948	-0.02785	0.21162999999999998	1049.2726	0.156018	-422.564749	-422.556156	-422.555212	-422.598063	32.216
 OpenBabel02181911403D

 19 20  0  0  1  0  0  0  0  0999 V2000
   -0.0306   -0.2298   -0.1212 C   0  0  0  0  0  0  0  0  0  0  0  0
    1.4455    0.0769    0.1413 C   0  0  2  0  0  0  0  0  0  0  0  0
    1.7960   -0.5030    1.4037 O   0  0  0  0  0  0  0  0  0  0  0  0
    2.8903    0.2312    1.9635 C   0  0  0  0  0  0  0  0  0  0  0  0
    2.7484    1.6469    1.4372 C   0  0  2  0  0  0  0  0  0  0  0  0
    1.3686    2.2467    1.5164 C   0  0  0  0  0  0  0  0  0  0  0  0
    1.8117    1.5482    0.2573 C   0  0  2  0  0  0  0  0  0  0  0  0
    2.2699   -0.6014   -0.9609 C   0  0  0  0  0  0  0  0  0  0  0  0
    2.6151   -0.0778   -1.9875 O   0  0  0  0  0  0  0  0  0  0  0  0
   -0.6446    0.2127    0.6669 H   0  0  0  0  0  0  0  0  0  0  0  0
   -0.3359    0.1819   -1.0870 H   0  0  0  0  0  0  0  0  0  0  0  0
   -0.2062   -1.3099   -0.1292 H   0  0  0  0  0  0  0  0  0  0  0  0
    2.8118    0.1389    3.0518 H   0  0  0  0  0  0  0  0  0  0  0  0
    3.8558   -0.1959    1.6498 H   0  0  0  0  0  0  0  0  0  0  0  0
    3.6217    2.2875    1.4200 H   0  0  0  0  0  0  0  0  0  0  0  0
    0.6333    1.7621    2.1512 H   0  0  0  0  0  0  0  0  0  0  0  0
    1.2914    3.3275    1.4796 H   0  0  0  0  0  0  0  0  0  0  0  0
    1.9769    2.0970   -0.6602 H   0  0  0  0  0  0  0  0  0  0  0  0
    2.5117   -1.6637   -0.7252 H   0  0  0  0  0  0  0  0  0  0  0  0
  1  2  1  0  0  0  0
  1 10  1  0  0  0  0
  2  8  1  6  0  0  0
  2  7  1  0  0  0  0
  2  3  1  0  0  0  0
  3  4  1  0  0  0  0
  4 13  1  0  0  0  0
  5 15  1  6  0  0  0
  5  6  1  0  0  0  0
  5  4  1  0  0  0  0
  6 16  1  0  0  0  0
  7 18  1  6  0  0  0
  7  5  1  0  0  0  0
  7  6  1  0  0  0  0
  8 19  1  0  0  0  0
  9  8  2  0  0  0  0
 11  1  1  0  0  0  0
 12  1  1  0  0  0  0
 14  4  1  0  0  0  0
 17  6  1  0  0  0  0
M TOR 0 0 1 2 3
M TOR 1 0 1 6 4
M TOR 2 0 1 6 5
M TOR 3 0 1 6 17
M TOR 4 0 1 7 8
M TOR 5 0 1 7 18
M TOR 6 1 2 3 4
M TOR 7 1 2 3 12
M TOR 8 1 2 3 13
M TOR 9 1 6 4 3
M TOR 10 1 6 4 5
M TOR 11 1 6 4 14
M TOR 12 1 6 5 15
M TOR 13 1 6 5 16
M TOR 14 2 1 0 9
M TOR 15 2 1 0 10
M TOR 16 2 1 0 11
M TOR 17 2 1 6 4
M TOR 18 2 1 6 5
M TOR 19 2 1 6 17
M TOR 20 2 1 7 8
M TOR 21 2 1 7 18
M TOR 22 2 3 4 5
M TOR 23 2 3 4 6
M TOR 24 2 3 4 14
M TOR 25 3 2 1 6
M TOR 26 3 2 1 7
M TOR 27 3 4 5 6
M TOR 28 3 4 5 15
M TOR 29 3 4 5 16
M TOR 30 3 4 6 17
M TOR 31 4 5 6 17
M TOR 32 4 6 1 7
M TOR 33 4 6 5 15
M TOR 34 4 6 5 16
M TOR 35 5 4 3 12
M TOR 36 5 4 3 13
M TOR 37 5 6 1 7
M TOR 38 5 6 4 14
M TOR 39 6 1 0 9
M TOR 40 6 1 0 10
M TOR 41 6 1 0 11
M TOR 42 6 1 7 8
M TOR 43 6 1 7 18
M TOR 44 6 4 3 12
M TOR 45 6 4 3 13
M TOR 46 7 1 0 9
M TOR 47 7 1 0 10
M TOR 48 7 1 0 11
M TOR 49 7 1 6 17
M  END
$$$$
