gdb 1087	3.2162351	1.3457032	1.2174996	2.0937	75.02	-0.2431	-0.01833	0.22477000000000003	1099.3881	0.156598	-422.563636	-422.555213	-422.554269	-422.597542	31.54
 OpenBabel02181911403D

 19 20  0  0  1  0  0  0  0  0999 V2000
   -0.3081   -0.0012   -5.7667 C   0  0  0  0  0  0  0  0  0  0  0  0
    0.6765   -0.6906   -4.8514 C   0  0  0  0  0  0  0  0  0  0  0  0
    1.1691   -1.7718   -5.0861 O   0  0  0  0  0  0  0  0  0  0  0  0
    1.0437    0.0304   -3.5790 C   0  0  1  0  0  0  0  0  0  0  0  0
    0.5723   -0.4510   -2.1814 C   0  0  0  0  0  0  0  0  0  0  0  0
    0.7896    1.0565   -1.9372 C   0  0  1  0  0  0  0  0  0  0  0  0
    2.3203    1.2287   -2.0332 C   0  0  0  0  0  0  0  0  0  0  0  0
    2.5312    0.4010   -3.3403 C   0  0  0  0  0  0  0  0  0  0  0  0
    0.3674    1.3032   -3.3179 O   0  0  0  0  0  0  0  0  0  0  0  0
   -0.4770   -0.6090   -6.6561 H   0  0  0  0  0  0  0  0  0  0  0  0
   -1.2495    0.1744   -5.2356 H   0  0  0  0  0  0  0  0  0  0  0  0
    0.0696    0.9892   -6.0442 H   0  0  0  0  0  0  0  0  0  0  0  0
   -0.4836   -0.7231   -2.1788 H   0  0  0  0  0  0  0  0  0  0  0  0
    1.1810   -1.1816   -1.6448 H   0  0  0  0  0  0  0  0  0  0  0  0
    0.2330    1.6292   -1.1960 H   0  0  0  0  0  0  0  0  0  0  0  0
    2.5961    2.2783   -2.1511 H   0  0  0  0  0  0  0  0  0  0  0  0
    2.8490    0.8218   -1.1674 H   0  0  0  0  0  0  0  0  0  0  0  0
    2.9241    1.0015   -4.1631 H   0  0  0  0  0  0  0  0  0  0  0  0
    3.1588   -0.4833   -3.2187 H   0  0  0  0  0  0  0  0  0  0  0  0
  1 11  1  0  0  0  0
  1  2  1  0  0  0  0
  3  2  2  0  0  0  0
  4  2  1  6  0  0  0
  4  8  1  0  0  0  0
  4  9  1  0  0  0  0
  4  5  1  0  0  0  0
  5 13  1  0  0  0  0
  5  6  1  0  0  0  0
  5 14  1  0  0  0  0
  6 15  1  1  0  0  0
  7  6  1  0  0  0  0
  7 17  1  0  0  0  0
  8 19  1  0  0  0  0
  8  7  1  0  0  0  0
  9  6  1  0  0  0  0
 10  1  1  0  0  0  0
 12  1  1  0  0  0  0
 16  7  1  0  0  0  0
 18  8  1  0  0  0  0
M TOR 0 0 1 3 4
M TOR 1 0 1 3 7
M TOR 2 0 1 3 8
M TOR 3 1 3 4 5
M TOR 4 1 3 4 12
M TOR 5 1 3 4 13
M TOR 6 1 3 7 6
M TOR 7 1 3 7 17
M TOR 8 1 3 7 18
M TOR 9 1 3 8 5
M TOR 10 2 1 0 9
M TOR 11 2 1 0 10
M TOR 12 2 1 0 11
M TOR 13 2 1 3 4
M TOR 14 2 1 3 7
M TOR 15 2 1 3 8
M TOR 16 3 1 0 9
M TOR 17 3 1 0 10
M TOR 18 3 1 0 11
M TOR 19 3 4 5 6
M TOR 20 3 4 5 8
M TOR 21 3 4 5 14
M TOR 22 3 7 6 5
M TOR 23 3 7 6 15
M TOR 24 3 7 6 16
M TOR 25 3 8 5 6
M TOR 26 3 8 5 14
M TOR 27 4 3 7 6
M TOR 28 4 3 7 17
M TOR 29 4 3 7 18
M TOR 30 4 5 6 7
M TOR 31 4 5 6 15
M TOR 32 4 5 6 16
M TOR 33 5 4 3 7
M TOR 34 5 6 7 17
M TOR 35 5 6 7 18
M TOR 36 5 8 3 7
M TOR 37 6 5 4 12
M TOR 38 6 5 4 13
M TOR 39 6 7 3 8
M TOR 40 7 3 4 12
M TOR 41 7 3 4 13
M TOR 42 7 6 5 8
M TOR 43 7 6 5 14
M TOR 44 8 3 4 12
M TOR 45 8 3 4 13
M TOR 46 8 3 7 17
M TOR 47 8 3 7 18
M TOR 48 8 5 4 12
M TOR 49 8 5 4 13
M TOR 50 8 5 6 15
M TOR 51 8 5 6 16
M  END
$$$$
