gdb 892	2.3286609	1.3600094	0.9890099	2.7591	75.41	-0.24824	-0.02278	0.22546	1226.9284	0.154756	-422.52993	-422.520739	-422.519795	-422.564857	33.13
 OpenBabel02181911403D

 19 20  0  0  1  0  0  0  0  0999 V2000
    0.3486   -1.2176    0.1999 O   0  0  0  0  0  0  0  0  0  0  0  0
    0.3983   -0.0221    0.3309 C   0  0  0  0  0  0  0  0  0  0  0  0
   -0.4169    0.7670    1.3387 C   0  0  0  0  0  0  0  0  0  0  0  0
   -1.1378    1.9501    0.7064 C   0  0  1  0  0  0  0  0  0  0  0  0
   -1.1870    3.2315    1.4279 C   0  0  0  0  0  0  0  0  0  0  0  0
   -0.2797    3.0389    0.3356 O   0  0  0  0  0  0  0  0  0  0  0  0
   -2.2002    1.5965   -0.2964 C   0  0  0  0  0  0  0  0  0  0  0  0
   -1.8327    1.4136   -1.7519 C   0  0  0  0  0  0  0  0  0  0  0  0
   -2.6590    2.5985   -1.3198 C   0  0  0  0  0  0  0  0  0  0  0  0
    1.0843    0.5999   -0.2854 H   0  0  0  0  0  0  0  0  0  0  0  0
   -1.1227    0.0879    1.8264 H   0  0  0  0  0  0  0  0  0  0  0  0
    0.2821    1.1449    2.0961 H   0  0  0  0  0  0  0  0  0  0  0  0
   -2.0060    3.9203    1.2306 H   0  0  0  0  0  0  0  0  0  0  0  0
   -0.7214    3.3233    2.4081 H   0  0  0  0  0  0  0  0  0  0  0  0
   -2.9512    0.9158    0.0954 H   0  0  0  0  0  0  0  0  0  0  0  0
   -0.8064    1.6136   -2.0390 H   0  0  0  0  0  0  0  0  0  0  0  0
   -2.3095    0.6113   -2.3028 H   0  0  0  0  0  0  0  0  0  0  0  0
   -2.1638    3.5627   -1.3232 H   0  0  0  0  0  0  0  0  0  0  0  0
   -3.7121    2.6209   -1.5758 H   0  0  0  0  0  0  0  0  0  0  0  0
  1  2  2  0  0  0  0
  2  3  1  0  0  0  0
  3 11  1  0  0  0  0
  3 12  1  0  0  0  0
  4  3  1  1  0  0  0
  4  5  1  0  0  0  0
  5 14  1  0  0  0  0
  6  4  1  0  0  0  0
  6  5  1  0  0  0  0
  7 15  1  0  0  0  0
  7  4  1  0  0  0  0
  8  9  1  0  0  0  0
  8  7  1  0  0  0  0
  9  7  1  0  0  0  0
 10  2  1  0  0  0  0
 13  5  1  0  0  0  0
 16  8  1  0  0  0  0
 17  8  1  0  0  0  0
 18  9  1  0  0  0  0
 19  9  1  0  0  0  0
M TOR 0 0 1 2 3
M TOR 1 0 1 2 10
M TOR 2 0 1 2 11
M TOR 3 1 2 3 4
M TOR 4 1 2 3 5
M TOR 5 1 2 3 6
M TOR 6 2 3 4 5
M TOR 7 2 3 4 12
M TOR 8 2 3 4 13
M TOR 9 2 3 6 7
M TOR 10 2 3 6 8
M TOR 11 2 3 6 14
M TOR 12 3 2 1 9
M TOR 13 3 5 4 12
M TOR 14 3 5 4 13
M TOR 15 3 6 7 8
M TOR 16 3 6 7 15
M TOR 17 3 6 7 16
M TOR 18 3 6 8 17
M TOR 19 3 6 8 18
M TOR 20 4 3 2 10
M TOR 21 4 3 2 11
M TOR 22 4 3 6 7
M TOR 23 4 3 6 8
M TOR 24 4 3 6 14
M TOR 25 4 5 3 6
M TOR 26 5 3 2 10
M TOR 27 5 3 2 11
M TOR 28 5 3 6 7
M TOR 29 5 3 6 8
M TOR 30 5 3 6 14
M TOR 31 6 3 2 10
M TOR 32 6 3 2 11
M TOR 33 6 3 4 12
M TOR 34 6 3 4 13
M TOR 35 6 7 8 17
M TOR 36 6 7 8 18
M TOR 37 6 8 7 15
M TOR 38 6 8 7 16
M TOR 39 7 8 6 14
M  END
$$$$
