gdb 1810	3.1423148	1.178229	1.0195859	2.4972	76.1	-0.23714	0.08033	0.31747	1222.2407	0.155567	-422.468865	-422.460467	-422.459523	-422.50227	31.681
 OpenBabel02181911403D

 19 21  0  0  1  0  0  0  0  0999 V2000
   -0.9616   -1.2410   -0.2390 C   0  0  0  0  0  0  0  0  0  0  0  0
   -0.3319    0.1164   -0.2114 C   0  0  1  0  0  0  0  0  0  0  0  0
    1.0607    0.5622    0.3183 C   0  0  0  0  0  0  0  0  0  0  0  0
    0.4272    1.7273   -0.4720 C   0  0  1  0  0  0  0  0  0  0  0  0
    0.0189    0.7555   -1.5102 O   0  0  0  0  0  0  0  0  0  0  0  0
   -0.9422    1.4916    0.2231 C   0  0  2  0  0  0  0  0  0  0  0  0
   -1.2024    1.8484    1.6568 C   0  0  2  0  0  0  0  0  0  0  0  0
   -2.5755    1.9506    2.1740 C   0  0  0  0  0  0  0  0  0  0  0  0
   -1.8236    3.1236    1.8738 O   0  0  0  0  0  0  0  0  0  0  0  0
   -1.1732   -1.5832    0.7790 H   0  0  0  0  0  0  0  0  0  0  0  0
   -1.9012   -1.2166   -0.7992 H   0  0  0  0  0  0  0  0  0  0  0  0
   -0.2921   -1.9636   -0.7152 H   0  0  0  0  0  0  0  0  0  0  0  0
    1.2129    0.6650    1.3949 H   0  0  0  0  0  0  0  0  0  0  0  0
    1.9055    0.0841   -0.1791 H   0  0  0  0  0  0  0  0  0  0  0  0
    0.8735    2.6626   -0.8078 H   0  0  0  0  0  0  0  0  0  0  0  0
   -1.7806    1.7913   -0.4109 H   0  0  0  0  0  0  0  0  0  0  0  0
   -0.4181    1.6239    2.3788 H   0  0  0  0  0  0  0  0  0  0  0  0
   -3.4140    1.7490    1.5081 H   0  0  0  0  0  0  0  0  0  0  0  0
   -2.7697    1.7730    3.2310 H   0  0  0  0  0  0  0  0  0  0  0  0
  1 10  1  0  0  0  0
  2  1  1  1  0  0  0
  2  6  1  0  0  0  0
  2  3  1  0  0  0  0
  3 13  1  0  0  0  0
  4 15  1  6  0  0  0
  4  6  1  0  0  0  0
  4  3  1  0  0  0  0
  5  4  1  0  0  0  0
  5  2  1  0  0  0  0
  6 16  1  6  0  0  0
  6  7  1  0  0  0  0
  7  9  1  0  0  0  0
  7  8  1  0  0  0  0
  7 17  1  1  0  0  0
  8 19  1  0  0  0  0
  9  8  1  0  0  0  0
 11  1  1  0  0  0  0
 12  1  1  0  0  0  0
 14  3  1  0  0  0  0
 18  8  1  0  0  0  0
M TOR 0 0 1 2 3
M TOR 1 0 1 2 12
M TOR 2 0 1 2 13
M TOR 3 0 1 4 3
M TOR 4 0 1 5 3
M TOR 5 0 1 5 6
M TOR 6 0 1 5 15
M TOR 7 1 2 3 4
M TOR 8 1 2 3 5
M TOR 9 1 2 3 14
M TOR 10 1 4 3 5
M TOR 11 1 4 3 14
M TOR 12 1 5 3 14
M TOR 13 1 5 6 7
M TOR 14 1 5 6 8
M TOR 15 1 5 6 16
M TOR 16 2 1 0 9
M TOR 17 2 1 0 10
M TOR 18 2 1 0 11
M TOR 19 2 1 5 6
M TOR 20 2 1 5 15
M TOR 21 2 3 5 6
M TOR 22 2 3 5 15
M TOR 23 3 5 6 7
M TOR 24 3 5 6 8
M TOR 25 3 5 6 16
M TOR 26 4 1 0 9
M TOR 27 4 1 0 10
M TOR 28 4 1 0 11
M TOR 29 4 1 2 12
M TOR 30 4 1 2 13
M TOR 31 4 1 5 6
M TOR 32 4 1 5 15
M TOR 33 4 3 2 12
M TOR 34 4 3 2 13
M TOR 35 4 3 5 6
M TOR 36 4 3 5 15
M TOR 37 5 1 0 9
M TOR 38 5 1 0 10
M TOR 39 5 1 0 11
M TOR 40 5 1 2 12
M TOR 41 5 1 2 13
M TOR 42 5 3 2 12
M TOR 43 5 3 2 13
M TOR 44 5 6 7 8
M TOR 45 5 6 7 17
M TOR 46 5 6 7 18
M TOR 47 6 5 3 14
M TOR 48 6 8 7 17
M TOR 49 6 8 7 18
M TOR 50 7 6 5 15
M TOR 51 7 8 6 16
M TOR 52 8 6 5 15
M  END
$$$$
