
     RDKit          3D

 19 21  0  0  0  0  0  0  0  0999 V2000
    0.2484    1.0650    0.2603 O   0  0  0  0  0  0  0  0  0  0  0  0
   -0.6337    0.0320    0.6503 C   0  0  0  0  0  0  0  0  0  0  0  0
   -1.0392    0.1038    2.1760 C   0  0  0  0  0  0  0  0  0  0  0  0
   -2.2911    0.9682    1.7891 C   0  0  0  0  0  0  0  0  0  0  0  0
   -3.7315    0.5270    1.4673 C   0  0  0  0  0  0  0  0  0  0  0  0
   -3.1702   -0.6563    0.6749 C   0  0  0  0  0  0  0  0  0  0  0  0
   -2.0767    0.4295    0.3335 C   0  0  0  0  0  0  0  0  0  0  0  0
   -2.8907    1.3960   -0.4986 C   0  0  0  0  0  0  0  0  0  0  0  0
   -4.0504    1.4718    0.3972 O   0  0  0  0  0  0  0  0  0  0  0  0
    1.1055    0.8936    0.6641 H   0  0  0  0  0  0  0  0  0  0  0  0
   -0.2991   -0.9449    0.2726 H   0  0  0  0  0  0  0  0  0  0  0  0
   -1.2372   -0.8635    2.6414 H   0  0  0  0  0  0  0  0  0  0  0  0
   -0.3154    0.6449    2.7899 H   0  0  0  0  0  0  0  0  0  0  0  0
   -2.1639    2.0331    1.9863 H   0  0  0  0  0  0  0  0  0  0  0  0
   -4.5830    0.4963    2.1476 H   0  0  0  0  0  0  0  0  0  0  0  0
   -2.7972   -1.4828    1.2773 H   0  0  0  0  0  0  0  0  0  0  0  0
   -3.7788   -1.0266   -0.1524 H   0  0  0  0  0  0  0  0  0  0  0  0
   -2.4319    2.3830   -0.6015 H   0  0  0  0  0  0  0  0  0  0  0  0
   -3.2149    1.0337   -1.4806 H   0  0  0  0  0  0  0  0  0  0  0  0
  1  2  1  0
  2  3  1  0
  3  4  1  0
  4  5  1  0
  5  6  1  0
  6  7  1  0
  7  8  1  0
  8  9  1  0
  7  2  1  0
  7  4  1  0
  9  5  1  0
  1 10  1  0
  2 11  1  0
  3 12  1  0
  3 13  1  0
  4 14  1  0
  5 15  1  0
  6 16  1  0
  6 17  1  0
  8 18  1  0
  8 19  1  0
M  END
$$$$
