
     RDKit          3D

 19 20  0  0  0  0  0  0  0  0999 V2000
    1.4410   -0.2474   -0.2032 C   0  0  0  0  0  0  0  0  0  0  0  0
    0.0520    0.2980   -0.1466 C   0  0  0  0  0  0  0  0  0  0  0  0
   -1.1062   -0.3475   -0.0292 C   0  0  0  0  0  0  0  0  0  0  0  0
   -2.2501    0.6156   -0.0155 C   0  0  0  0  0  0  0  0  0  0  0  0
   -3.3195    0.4756    1.1033 C   0  0  0  0  0  0  0  0  0  0  0  0
   -4.3048    0.0171    0.1576 O   0  0  0  0  0  0  0  0  0  0  0  0
   -3.4549    0.3440   -0.9587 C   0  0  0  0  0  0  0  0  0  0  0  0
   -1.6530    1.8957   -0.1365 O   0  0  0  0  0  0  0  0  0  0  0  0
   -0.2367    1.7759   -0.2221 C   0  0  0  0  0  0  0  0  0  0  0  0
    2.0561    0.1505    0.6136 H   0  0  0  0  0  0  0  0  0  0  0  0
    1.4471   -1.3378   -0.1333 H   0  0  0  0  0  0  0  0  0  0  0  0
    1.9405    0.0377   -1.1375 H   0  0  0  0  0  0  0  0  0  0  0  0
   -1.2467   -1.4186    0.0485 H   0  0  0  0  0  0  0  0  0  0  0  0
   -3.1289   -0.2585    1.8947 H   0  0  0  0  0  0  0  0  0  0  0  0
   -3.5811    1.4444    1.5481 H   0  0  0  0  0  0  0  0  0  0  0  0
   -3.3630   -0.4860   -1.6688 H   0  0  0  0  0  0  0  0  0  0  0  0
   -3.7803    1.2508   -1.4847 H   0  0  0  0  0  0  0  0  0  0  0  0
    0.1213    2.2223   -1.1634 H   0  0  0  0  0  0  0  0  0  0  0  0
    0.2373    2.3350    0.6002 H   0  0  0  0  0  0  0  0  0  0  0  0
  1  2  1  0
  2  3  2  0
  3  4  1  0
  4  5  1  0
  5  6  1  0
  6  7  1  0
  4  8  1  0
  8  9  1  0
  9  2  1  0
  7  4  1  0
  1 10  1  0
  1 11  1  0
  1 12  1  0
  3 13  1  0
  5 14  1  0
  5 15  1  0
  7 16  1  0
  7 17  1  0
  9 18  1  0
  9 19  1  0
M  END
$$$$
