
     RDKit          3D

 19 21  0  0  0  0  0  0  0  0999 V2000
   -0.1849    1.3146   -0.7835 C   0  0  0  0  0  0  0  0  0  0  0  0
   -0.4201   -0.0184   -0.2744 O   0  0  0  0  0  0  0  0  0  0  0  0
    0.8791   -0.0710    0.3340 C   0  0  0  0  0  0  0  0  0  0  0  0
    1.2269    1.3619   -0.1671 C   0  0  0  0  0  0  0  0  0  0  0  0
    1.3581    2.1172    1.1642 C   0  0  0  0  0  0  0  0  0  0  0  0
    2.6841    1.7020    1.8427 C   0  0  0  0  0  0  0  0  0  0  0  0
    2.3335    0.2595    2.3263 C   0  0  0  0  0  0  0  0  0  0  0  0
    0.8650    0.1332    1.8550 C   0  0  0  0  0  0  0  0  0  0  0  0
    0.3719    1.4767    1.9883 O   0  0  0  0  0  0  0  0  0  0  0  0
   -0.2178    1.3370   -1.8797 H   0  0  0  0  0  0  0  0  0  0  0  0
   -0.9016    2.0381   -0.3789 H   0  0  0  0  0  0  0  0  0  0  0  0
    1.4629   -0.9360    0.0033 H   0  0  0  0  0  0  0  0  0  0  0  0
    2.0626    1.4993   -0.8526 H   0  0  0  0  0  0  0  0  0  0  0  0
    1.1575    3.1887    1.1254 H   0  0  0  0  0  0  0  0  0  0  0  0
    3.5354    1.7307    1.1576 H   0  0  0  0  0  0  0  0  0  0  0  0
    2.9050    2.3613    2.6847 H   0  0  0  0  0  0  0  0  0  0  0  0
    2.9808   -0.5070    1.8910 H   0  0  0  0  0  0  0  0  0  0  0  0
    2.3970    0.1744    3.4127 H   0  0  0  0  0  0  0  0  0  0  0  0
    0.2275   -0.5505    2.4147 H   0  0  0  0  0  0  0  0  0  0  0  0
  1  2  1  0
  2  3  1  0
  3  4  1  0
  4  5  1  0
  5  6  1  0
  6  7  1  0
  7  8  1  0
  8  9  1  0
  4  1  1  0
  9  5  1  0
  8  3  1  0
  1 10  1  0
  1 11  1  0
  3 12  1  0
  4 13  1  0
  5 14  1  0
  6 15  1  0
  6 16  1  0
  7 17  1  0
  7 18  1  0
  8 19  1  0
M  END
$$$$
