gdb 5835	2.1662473	1.3206397	1.1452239	1.039	78.23	-0.24933	0.03136	0.28069	1209.5526	0.153542	-422.499704	-422.48964	-422.488696	-422.534636	36.363
 OpenBabel02181911423D

 19 19  0  0  1  0  0  0  0  0999 V2000
    1.5429    0.2524   -0.0963 C   0  0  0  0  0  0  0  0  0  0  0  0
    0.1401    0.1705    0.0284 O   0  0  0  0  0  0  0  0  0  0  0  0
   -0.3252    0.5328    1.2910 C   0  0  2  0  0  0  0  0  0  0  0  0
   -0.2079   -0.4532    2.4870 C   0  0  0  0  0  0  0  0  0  0  0  0
   -1.6276   -0.0048    2.9200 C   0  0  0  0  0  0  0  0  0  0  0  0
   -1.8681    0.5377    1.4654 C   0  0  1  0  0  0  0  0  0  0  0  0
   -2.4220    1.8330    1.3401 O   0  0  0  0  0  0  0  0  0  0  0  0
   -2.5622   -0.4276    0.6218 C   0  0  0  0  0  0  0  0  0  0  0  0
   -3.2009   -1.1988   -0.0436 C   0  0  0  0  0  0  0  0  0  0  0  0
    2.0584   -0.4351    0.5907 H   0  0  0  0  0  0  0  0  0  0  0  0
    1.7927   -0.0238   -1.1232 H   0  0  0  0  0  0  0  0  0  0  0  0
    1.9081    1.2731    0.0974 H   0  0  0  0  0  0  0  0  0  0  0  0
    0.0383    1.5322    1.5777 H   0  0  0  0  0  0  0  0  0  0  0  0
   -0.1996   -1.4863    2.1304 H   0  0  0  0  0  0  0  0  0  0  0  0
    0.6094   -0.3036    3.1938 H   0  0  0  0  0  0  0  0  0  0  0  0
   -2.3171   -0.7668    3.2841 H   0  0  0  0  0  0  0  0  0  0  0  0
   -1.6065    0.8387    3.6138 H   0  0  0  0  0  0  0  0  0  0  0  0
   -3.3652    1.7411    1.1697 H   0  0  0  0  0  0  0  0  0  0  0  0
   -3.7427   -1.8828   -0.6492 H   0  0  0  0  0  0  0  0  0  0  0  0
  1  2  1  0  0  0  0
  1 12  1  0  0  0  0
  1 10  1  0  0  0  0
  2  3  1  0  0  0  0
  3  6  1  0  0  0  0
  3 13  1  1  0  0  0
  3  4  1  0  0  0  0
  4  5  1  0  0  0  0
  4 15  1  0  0  0  0
  5 16  1  0  0  0  0
  5 17  1  0  0  0  0
  6  8  1  6  0  0  0
  6  5  1  0  0  0  0
  7  6  1  0  0  0  0
  9  8  3  0  0  0  0
 11  1  1  0  0  0  0
 14  4  1  0  0  0  0
 18  7  1  0  0  0  0
 19  9  1  0  0  0  0
M TOR 0 0 1 2 3
M TOR 1 0 1 2 5
M TOR 2 0 1 2 12
M TOR 3 1 2 3 4
M TOR 4 1 2 3 13
M TOR 5 1 2 3 14
M TOR 6 1 2 5 4
M TOR 7 1 2 5 6
M TOR 8 1 2 5 7
M TOR 9 2 1 0 9
M TOR 10 2 1 0 10
M TOR 11 2 1 0 11
M TOR 12 2 3 4 5
M TOR 13 2 3 4 15
M TOR 14 2 3 4 16
M TOR 15 2 5 4 15
M TOR 16 2 5 4 16
M TOR 17 2 5 6 17
M TOR 18 2 5 7 8
M TOR 19 3 2 5 6
M TOR 20 3 2 5 7
M TOR 21 3 4 5 6
M TOR 22 3 4 5 7
M TOR 23 4 3 2 12
M TOR 24 4 5 2 12
M TOR 25 4 5 6 17
M TOR 26 4 5 7 8
M TOR 27 5 2 3 13
M TOR 28 5 2 3 14
M TOR 29 5 4 3 13
M TOR 30 5 4 3 14
M TOR 31 5 7 8 18
M TOR 32 6 5 2 12
M TOR 33 6 5 4 15
M TOR 34 6 5 4 16
M TOR 35 6 5 7 8
M TOR 36 7 5 2 12
M TOR 37 7 5 4 15
M TOR 38 7 5 4 16
M TOR 39 7 5 6 17
M  END
$$$$
