
     RDKit          3D

 19 19  0  0  0  0  0  0  0  0999 V2000
    1.4998    0.6720    0.0448 C   0  0  0  0  0  0  0  0  0  0  0  0
    0.1163    0.8648    0.2209 O   0  0  0  0  0  0  0  0  0  0  0  0
   -0.5271   -0.2503    0.7934 C   0  0  0  0  0  0  0  0  0  0  0  0
   -1.9995    0.0902    0.9333 C   0  0  0  0  0  0  0  0  0  0  0  0
   -2.3987    1.0493    2.0704 C   0  0  0  0  0  0  0  0  0  0  0  0
   -3.2000   -0.1617    2.6225 C   0  0  0  0  0  0  0  0  0  0  0  0
   -2.7301   -1.0044    1.5353 O   0  0  0  0  0  0  0  0  0  0  0  0
   -2.8418   -0.6610    3.9393 C   0  0  0  0  0  0  0  0  0  0  0  0
   -2.5443   -1.0586    5.0341 C   0  0  0  0  0  0  0  0  0  0  0  0
    1.7111   -0.1746   -0.6273 H   0  0  0  0  0  0  0  0  0  0  0  0
    1.9039    1.5851   -0.3991 H   0  0  0  0  0  0  0  0  0  0  0  0
    2.0110    0.4847    1.0022 H   0  0  0  0  0  0  0  0  0  0  0  0
   -0.4167   -1.1472    0.1605 H   0  0  0  0  0  0  0  0  0  0  0  0
   -0.1058   -0.4921    1.7835 H   0  0  0  0  0  0  0  0  0  0  0  0
   -2.4095    0.3540   -0.0493 H   0  0  0  0  0  0  0  0  0  0  0  0
   -1.5727    1.3731    2.7037 H   0  0  0  0  0  0  0  0  0  0  0  0
   -3.0031    1.9098    1.7845 H   0  0  0  0  0  0  0  0  0  0  0  0
   -4.2883   -0.0338    2.5602 H   0  0  0  0  0  0  0  0  0  0  0  0
   -2.2850   -1.4158    6.0001 H   0  0  0  0  0  0  0  0  0  0  0  0
  1  2  1  0
  2  3  1  0
  3  4  1  0
  4  5  1  0
  5  6  1  0
  6  7  1  0
  6  8  1  0
  8  9  3  0
  7  4  1  0
  1 10  1  0
  1 11  1  0
  1 12  1  0
  3 13  1  0
  3 14  1  0
  4 15  1  0
  5 16  1  0
  5 17  1  0
  6 18  1  0
  9 19  1  0
M  END
$$$$
