
     RDKit          3D

 19 21  0  0  0  0  0  0  0  0999 V2000
    1.2805    0.8045   -0.0526 O   0  0  0  0  0  0  0  0  0  0  0  0
    0.3252   -0.0396    0.5762 C   0  0  0  0  0  0  0  0  0  0  0  0
   -0.9082    0.7021    1.0394 C   0  0  0  0  0  0  0  0  0  0  0  0
   -1.9445    1.0727    0.0097 C   0  0  0  0  0  0  0  0  0  0  0  0
   -2.2328   -0.0236    1.0210 C   0  0  0  0  0  0  0  0  0  0  0  0
   -3.4043    0.6657    1.7591 C   0  0  0  0  0  0  0  0  0  0  0  0
   -4.2927    1.1666    0.5873 C   0  0  0  0  0  0  0  0  0  0  0  0
   -3.0362    2.0710    0.4583 C   0  0  0  0  0  0  0  0  0  0  0  0
   -2.9362    2.0393    1.9157 O   0  0  0  0  0  0  0  0  0  0  0  0
    1.5188    1.4933    0.5761 H   0  0  0  0  0  0  0  0  0  0  0  0
    0.0585   -0.7892   -0.1771 H   0  0  0  0  0  0  0  0  0  0  0  0
    0.7720   -0.5801    1.4261 H   0  0  0  0  0  0  0  0  0  0  0  0
   -0.7478    1.4033    1.8534 H   0  0  0  0  0  0  0  0  0  0  0  0
   -1.7698    0.8896   -1.0435 H   0  0  0  0  0  0  0  0  0  0  0  0
   -2.2961   -1.0745    0.7643 H   0  0  0  0  0  0  0  0  0  0  0  0
   -3.7977    0.2229    2.6740 H   0  0  0  0  0  0  0  0  0  0  0  0
   -4.5318    0.4766   -0.2263 H   0  0  0  0  0  0  0  0  0  0  0  0
   -5.1706    1.7153    0.9327 H   0  0  0  0  0  0  0  0  0  0  0  0
   -3.0514    3.0753    0.0359 H   0  0  0  0  0  0  0  0  0  0  0  0
  1  2  1  0
  2  3  1  0
  3  4  1  0
  4  5  1  0
  5  6  1  0
  6  7  1  0
  7  8  1  0
  8  9  1  0
  5  3  1  0
  9  6  1  0
  8  4  1  0
  1 10  1  0
  2 11  1  0
  2 12  1  0
  3 13  1  0
  4 14  1  0
  5 15  1  0
  6 16  1  0
  7 17  1  0
  7 18  1  0
  8 19  1  0
M  END
$$$$
