
     RDKit          3D

 19 20  0  0  0  0  0  0  0  0999 V2000
    1.0568    1.2376   -1.3473 O   0  0  0  0  0  0  0  0  0  0  0  0
    2.0772    0.3092   -1.1794 C   0  0  0  0  0  0  0  0  0  0  0  0
    1.9673   -1.0306   -1.9917 C   0  0  0  0  0  0  0  0  0  0  0  0
    3.4414   -0.8722   -2.3758 C   0  0  0  0  0  0  0  0  0  0  0  0
    4.5306   -1.8676   -2.0880 C   0  0  0  0  0  0  0  0  0  0  0  0
    4.1849   -1.4957   -3.5138 C   0  0  0  0  0  0  0  0  0  0  0  0
    3.4314    0.5910   -1.9237 C   0  0  0  0  0  0  0  0  0  0  0  0
    2.3046    0.0423    0.2867 C   0  0  0  0  0  0  0  0  0  0  0  0
    1.6560    0.5921    1.1457 O   0  0  0  0  0  0  0  0  0  0  0  0
    0.7585    1.4688   -0.4524 H   0  0  0  0  0  0  0  0  0  0  0  0
    1.6677   -1.9324   -1.4489 H   0  0  0  0  0  0  0  0  0  0  0  0
    1.2847   -0.8723   -2.8312 H   0  0  0  0  0  0  0  0  0  0  0  0
    5.4672   -1.5012   -1.6788 H   0  0  0  0  0  0  0  0  0  0  0  0
    4.2456   -2.8542   -1.7356 H   0  0  0  0  0  0  0  0  0  0  0  0
    4.8875   -0.8785   -4.0647 H   0  0  0  0  0  0  0  0  0  0  0  0
    3.6667   -2.2308   -4.1214 H   0  0  0  0  0  0  0  0  0  0  0  0
    4.2741    0.9547   -1.3278 H   0  0  0  0  0  0  0  0  0  0  0  0
    3.2389    1.2923   -2.7405 H   0  0  0  0  0  0  0  0  0  0  0  0
    3.1018   -0.6877    0.5332 H   0  0  0  0  0  0  0  0  0  0  0  0
  1  2  1  0
  2  3  1  0
  3  4  1  0
  4  5  1  0
  5  6  1  0
  4  7  1  0
  2  8  1  0
  8  9  2  0
  7  2  1  0
  6  4  1  0
  1 10  1  0
  3 11  1  0
  3 12  1  0
  5 13  1  0
  5 14  1  0
  6 15  1  0
  6 16  1  0
  7 17  1  0
  7 18  1  0
  8 19  1  0
M  END
$$$$
