gdb 275	3.3822379	1.4273053	1.2751388	2.0645	74.91	-0.2469	0.08643	0.33333	1053.7121	0.157832	-422.531386	-422.523822	-422.522878	-422.563434	29.578
 OpenBabel02181911403D

 19 21  0  0  1  0  0  0  0  0999 V2000
    1.1693    1.5594   -0.2533 C   0  0  0  0  0  0  0  0  0  0  0  0
   -0.3335    1.4896    0.1373 C   0  0  0  0  0  0  0  0  0  0  0  0
   -0.2421   -0.0522    0.0745 C   0  0  0  0  0  0  0  0  0  0  0  0
    1.3105    0.0666    0.1537 C   0  0  0  0  0  0  0  0  0  0  0  0
   -0.9217   -0.7250    1.1256 O   0  0  0  0  0  0  0  0  0  0  0  0
   -1.3915   -2.0009    0.7000 C   0  0  0  0  0  0  0  0  0  0  0  0
   -1.4500   -1.9268   -0.8087 C   0  0  1  0  0  0  0  0  0  0  0  0
   -2.1599   -0.7761   -1.2797 O   0  0  0  0  0  0  0  0  0  0  0  0
   -0.7312   -0.7130   -1.1962 C   0  0  1  0  0  0  0  0  0  0  0  0
    1.3120    1.7108   -1.3267 H   0  0  0  0  0  0  0  0  0  0  0  0
    1.7899    2.2804    0.2813 H   0  0  0  0  0  0  0  0  0  0  0  0
   -0.5022    1.8056    1.1696 H   0  0  0  0  0  0  0  0  0  0  0  0
   -1.0705    1.9709   -0.5089 H   0  0  0  0  0  0  0  0  0  0  0  0
    1.6329   -0.0469    1.1916 H   0  0  0  0  0  0  0  0  0  0  0  0
    1.9111   -0.5916   -0.4811 H   0  0  0  0  0  0  0  0  0  0  0  0
   -0.7083   -2.8090    1.0064 H   0  0  0  0  0  0  0  0  0  0  0  0
   -2.3678   -2.1753    1.1649 H   0  0  0  0  0  0  0  0  0  0  0  0
   -1.5134   -2.8230   -1.4196 H   0  0  0  0  0  0  0  0  0  0  0  0
   -0.1961   -0.5928   -2.1342 H   0  0  0  0  0  0  0  0  0  0  0  0
  1  2  1  0  0  0  0
  1  4  1  0  0  0  0
  1 11  1  0  0  0  0
  2 12  1  0  0  0  0
  3  2  1  0  0  0  0
  3  4  1  0  0  0  0
  3  5  1  0  0  0  0
  4 14  1  0  0  0  0
  6 16  1  0  0  0  0
  6  5  1  0  0  0  0
  6 17  1  0  0  0  0
  7 18  1  6  0  0  0
  7  6  1  0  0  0  0
  8  9  1  0  0  0  0
  8  7  1  0  0  0  0
  9 19  1  6  0  0  0
  9  7  1  0  0  0  0
  9  3  1  0  0  0  0
 10  1  1  0  0  0  0
 13  2  1  0  0  0  0
 15  4  1  0  0  0  0
M TOR 0 0 1 2 3
M TOR 1 0 1 2 4
M TOR 2 0 1 2 8
M TOR 3 0 3 2 4
M TOR 4 0 3 2 8
M TOR 5 1 0 3 13
M TOR 6 1 0 3 14
M TOR 7 1 2 3 13
M TOR 8 1 2 3 14
M TOR 9 1 2 4 5
M TOR 10 1 2 8 6
M TOR 11 1 2 8 7
M TOR 12 1 2 8 18
M TOR 13 2 1 0 9
M TOR 14 2 1 0 10
M TOR 15 2 3 0 9
M TOR 16 2 3 0 10
M TOR 17 2 4 5 6
M TOR 18 2 4 5 15
M TOR 19 2 4 5 16
M TOR 20 2 8 6 5
M TOR 21 2 8 6 7
M TOR 22 2 8 6 17
M TOR 23 3 0 1 11
M TOR 24 3 0 1 12
M TOR 25 3 2 1 11
M TOR 26 3 2 1 12
M TOR 27 3 2 4 5
M TOR 28 3 2 8 6
M TOR 29 3 2 8 7
M TOR 30 3 2 8 18
M TOR 31 4 2 1 11
M TOR 32 4 2 1 12
M TOR 33 4 2 3 13
M TOR 34 4 2 3 14
M TOR 35 4 2 8 6
M TOR 36 4 2 8 7
M TOR 37 4 2 8 18
M TOR 38 4 5 6 7
M TOR 39 4 5 6 8
M TOR 40 4 5 6 17
M TOR 41 5 4 2 8
M TOR 42 5 6 7 8
M TOR 43 5 6 8 18
M TOR 44 6 7 8 18
M TOR 45 7 6 5 15
M TOR 46 7 6 5 16
M TOR 47 7 8 6 17
M TOR 48 8 2 1 11
M TOR 49 8 2 1 12
M TOR 50 8 2 3 13
M TOR 51 8 2 3 14
M TOR 52 8 6 5 15
M TOR 53 8 6 5 16
M  END
$$$$
