
     RDKit          3D

 19 20  0  0  0  0  0  0  0  0999 V2000
   -0.7944    2.3378    1.2762 C   0  0  0  0  0  0  0  0  0  0  0  0
   -1.0120    1.3500    0.1300 C   0  0  0  0  0  0  0  0  0  0  0  0
   -2.3183    0.5236    0.1050 C   0  0  0  0  0  0  0  0  0  0  0  0
   -2.0013   -0.5289   -0.9981 C   0  0  0  0  0  0  0  0  0  0  0  0
   -0.9596   -1.0434    0.0531 C   0  0  0  0  0  0  0  0  0  0  0  0
   -2.0296   -0.6031    1.1321 C   0  0  0  0  0  0  0  0  0  0  0  0
   -3.1357   -1.4622    1.2636 O   0  0  0  0  0  0  0  0  0  0  0  0
   -0.0290    0.1506    0.1458 C   0  0  0  0  0  0  0  0  0  0  0  0
    1.1684    0.1830    0.2579 O   0  0  0  0  0  0  0  0  0  0  0  0
   -0.9716    1.8803    2.2543 H   0  0  0  0  0  0  0  0  0  0  0  0
    0.2376    2.6994    1.2617 H   0  0  0  0  0  0  0  0  0  0  0  0
   -1.4630    3.1990    1.1832 H   0  0  0  0  0  0  0  0  0  0  0  0
   -0.8924    1.8809   -0.8233 H   0  0  0  0  0  0  0  0  0  0  0  0
   -3.2642    1.0642    0.1324 H   0  0  0  0  0  0  0  0  0  0  0  0
   -2.8096   -1.2429   -1.1422 H   0  0  0  0  0  0  0  0  0  0  0  0
   -1.6205   -0.1685   -1.9574 H   0  0  0  0  0  0  0  0  0  0  0  0
   -0.5095   -2.0346    0.0342 H   0  0  0  0  0  0  0  0  0  0  0  0
   -1.6408   -0.3127    2.1163 H   0  0  0  0  0  0  0  0  0  0  0  0
   -2.8591   -2.2339    1.7680 H   0  0  0  0  0  0  0  0  0  0  0  0
  1  2  1  0
  2  3  1  0
  3  4  1  0
  4  5  1  0
  5  6  1  0
  6  7  1  0
  5  8  1  0
  8  9  2  0
  8  2  1  0
  6  3  1  0
  1 10  1  0
  1 11  1  0
  1 12  1  0
  2 13  1  0
  3 14  1  0
  4 15  1  0
  4 16  1  0
  5 17  1  0
  6 18  1  0
  7 19  1  0
M  END
$$$$
