gdb 4442	3.2329044	0.9985839	0.8556601	0.932	77.31	-0.24641	0.02571	0.27212	1378.617	0.155021	-422.495051	-422.485565	-422.484621	-422.530123	34.668
 OpenBabel02181911413D

 19 19  0  0  1  0  0  0  0  0999 V2000
   -2.8195    2.8436    1.3589 O   0  0  0  0  0  0  0  0  0  0  0  0
   -1.4345    3.0581    1.4265 C   0  0  2  0  0  0  0  0  0  0  0  0
   -0.8137    4.2284    0.6105 C   0  0  0  0  0  0  0  0  0  0  0  0
    0.3095    3.2629    0.1374 C   0  0  0  0  0  0  0  0  0  0  0  0
   -0.5203    2.0587    0.6356 C   0  0  2  0  0  0  0  0  0  0  0  0
   -1.2303    1.4719   -0.4482 O   0  0  0  0  0  0  0  0  0  0  0  0
   -1.8260    0.2169   -0.1305 C   0  0  0  0  0  0  0  0  0  0  0  0
   -0.8513   -0.8662    0.0163 C   0  0  0  0  0  0  0  0  0  0  0  0
   -0.0510   -1.7543    0.1399 C   0  0  0  0  0  0  0  0  0  0  0  0
   -3.0157    2.6853    0.4270 H   0  0  0  0  0  0  0  0  0  0  0  0
   -1.1724    3.1038    2.4872 H   0  0  0  0  0  0  0  0  0  0  0  0
   -1.4733    4.5285   -0.2090 H   0  0  0  0  0  0  0  0  0  0  0  0
   -0.5193    5.1223    1.1644 H   0  0  0  0  0  0  0  0  0  0  0  0
    0.5341    3.2475   -0.9303 H   0  0  0  0  0  0  0  0  0  0  0  0
    1.2423    3.3764    0.6948 H   0  0  0  0  0  0  0  0  0  0  0  0
    0.0058    1.2850    1.2047 H   0  0  0  0  0  0  0  0  0  0  0  0
   -2.4352    0.2967    0.7798 H   0  0  0  0  0  0  0  0  0  0  0  0
   -2.5028   -0.0072   -0.9623 H   0  0  0  0  0  0  0  0  0  0  0  0
    0.6519   -2.5436    0.2446 H   0  0  0  0  0  0  0  0  0  0  0  0
  1  2  1  0  0  0  0
  2 11  1  1  0  0  0
  3 13  1  0  0  0  0
  3  2  1  0  0  0  0
  4  3  1  0  0  0  0
  4  5  1  0  0  0  0
  4 15  1  0  0  0  0
  5 16  1  1  0  0  0
  5  2  1  0  0  0  0
  6  7  1  0  0  0  0
  6  5  1  0  0  0  0
  7  8  1  0  0  0  0
  7 17  1  0  0  0  0
  8  9  3  0  0  0  0
  9 19  1  0  0  0  0
 10  1  1  0  0  0  0
 12  3  1  0  0  0  0
 14  4  1  0  0  0  0
 18  7  1  0  0  0  0
M TOR 0 0 1 2 3
M TOR 1 0 1 2 11
M TOR 2 0 1 2 12
M TOR 3 0 1 4 3
M TOR 4 0 1 4 5
M TOR 5 0 1 4 15
M TOR 6 1 2 3 4
M TOR 7 1 2 3 13
M TOR 8 1 2 3 14
M TOR 9 1 4 3 13
M TOR 10 1 4 3 14
M TOR 11 1 4 5 6
M TOR 12 2 1 0 9
M TOR 13 2 1 4 5
M TOR 14 2 1 4 15
M TOR 15 2 3 4 5
M TOR 16 2 3 4 15
M TOR 17 3 2 1 10
M TOR 18 3 4 1 10
M TOR 19 3 4 5 6
M TOR 20 4 1 0 9
M TOR 21 4 1 2 11
M TOR 22 4 1 2 12
M TOR 23 4 3 2 11
M TOR 24 4 3 2 12
M TOR 25 4 5 6 7
M TOR 26 4 5 6 16
M TOR 27 4 5 6 17
M TOR 28 5 4 1 10
M TOR 29 5 4 3 13
M TOR 30 5 4 3 14
M TOR 31 5 6 7 8
M TOR 32 6 5 4 15
M TOR 33 6 7 8 18
M TOR 34 8 7 6 16
M TOR 35 8 7 6 17
M  END
$$$$
