gdb 5800	2.9532108	1.2797009	0.9354409	2.5665	79.69	-0.22123	-0.04548	0.17575000000000002	1274.783	0.155639	-422.581403	-422.571888	-422.570944	-422.616419	33.575
 OpenBabel02181911423D

 19 19  0  0  1  0  0  0  0  0999 V2000
    0.8474   -0.7722    0.0465 C   0  0  0  0  0  0  0  0  0  0  0  0
    0.6267    0.6279   -0.0134 O   0  0  0  0  0  0  0  0  0  0  0  0
   -0.1147    1.1454    1.0659 C   0  0  1  0  0  0  0  0  0  0  0  0
   -0.0034    2.6792    1.1059 C   0  0  0  0  0  0  0  0  0  0  0  0
   -1.4271    3.1499    1.2520 C   0  0  0  0  0  0  0  0  0  0  0  0
   -2.3396    2.1698    1.1630 C   0  0  0  0  0  0  0  0  0  0  0  0
   -3.8302    2.2504    1.2123 C   0  0  0  0  0  0  0  0  0  0  0  0
   -1.6380    0.8795    0.9590 C   0  0  0  0  0  0  0  0  0  0  0  0
   -2.1560   -0.1946    0.7416 O   0  0  0  0  0  0  0  0  0  0  0  0
   -0.0896   -1.3353    0.0034 H   0  0  0  0  0  0  0  0  0  0  0  0
    1.4709   -1.0265   -0.8141 H   0  0  0  0  0  0  0  0  0  0  0  0
    1.3846   -1.0464    0.9685 H   0  0  0  0  0  0  0  0  0  0  0  0
    0.2337    0.7055    2.0162 H   0  0  0  0  0  0  0  0  0  0  0  0
    0.6390    3.0432    1.9150 H   0  0  0  0  0  0  0  0  0  0  0  0
    0.4396    3.0316    0.1671 H   0  0  0  0  0  0  0  0  0  0  0  0
   -1.6665    4.1986    1.4014 H   0  0  0  0  0  0  0  0  0  0  0  0
   -4.2239    1.6541    2.0430 H   0  0  0  0  0  0  0  0  0  0  0  0
   -4.1785    3.2800    1.3252 H   0  0  0  0  0  0  0  0  0  0  0  0
   -4.2650    1.8288    0.2997 H   0  0  0  0  0  0  0  0  0  0  0  0
  1 12  1  0  0  0  0
  2  1  1  0  0  0  0
  2  3  1  0  0  0  0
  3  4  1  0  0  0  0
  3 13  1  1  0  0  0
  4  5  1  0  0  0  0
  4 14  1  0  0  0  0
  5 16  1  0  0  0  0
  6  7  1  0  0  0  0
  6  5  2  0  0  0  0
  7 18  1  0  0  0  0
  7 17  1  0  0  0  0
  8  3  1  0  0  0  0
  8  6  1  0  0  0  0
  9  8  2  0  0  0  0
 10  1  1  0  0  0  0
 11  1  1  0  0  0  0
 15  4  1  0  0  0  0
 19  7  1  0  0  0  0
M TOR 0 0 1 2 3
M TOR 1 0 1 2 7
M TOR 2 0 1 2 12
M TOR 3 1 2 3 4
M TOR 4 1 2 3 13
M TOR 5 1 2 3 14
M TOR 6 1 2 7 5
M TOR 7 1 2 7 8
M TOR 8 2 1 0 9
M TOR 9 2 1 0 10
M TOR 10 2 1 0 11
M TOR 11 2 3 4 5
M TOR 12 2 3 4 15
M TOR 13 2 7 5 4
M TOR 14 2 7 5 6
M TOR 15 3 2 7 5
M TOR 16 3 2 7 8
M TOR 17 3 4 5 6
M TOR 18 3 4 5 7
M TOR 19 4 3 2 7
M TOR 20 4 3 2 12
M TOR 21 4 5 6 16
M TOR 22 4 5 6 17
M TOR 23 4 5 6 18
M TOR 24 4 5 7 8
M TOR 25 5 4 3 13
M TOR 26 5 4 3 14
M TOR 27 5 7 2 12
M TOR 28 6 5 4 15
M TOR 29 6 5 7 8
M TOR 30 7 2 3 13
M TOR 31 7 2 3 14
M TOR 32 7 5 4 15
M TOR 33 7 5 6 16
M TOR 34 7 5 6 17
M TOR 35 7 5 6 18
M TOR 36 8 7 2 12
M  END
$$$$
