gdb 3145	2.52518	1.6046494	1.1946564	2.179	74.51	-0.24766	0.0588	0.30646	1079.1889	0.156583	-422.501123	-422.492936	-422.491992	-422.533809	31.557
 OpenBabel02181911413D

 19 21  0  0  1  0  0  0  0  0999 V2000
    0.3670   -0.1798    0.6952 O   0  0  0  0  0  0  0  0  0  0  0  0
   -0.9507    0.2757    0.8802 C   0  0  1  0  0  0  0  0  0  0  0  0
   -1.4259    0.4304    2.3412 C   0  0  2  0  0  0  0  0  0  0  0  0
   -2.7502    0.9716    2.2724 O   0  0  0  0  0  0  0  0  0  0  0  0
   -1.6430    1.8755    2.1609 C   0  0  2  0  0  0  0  0  0  0  0  0
   -1.1726    1.8258    0.6998 C   0  0  0  0  0  0  0  0  0  0  0  0
    0.0215    2.7374    0.3062 C   0  0  0  0  0  0  0  0  0  0  0  0
   -0.9778    3.6473   -0.4616 C   0  0  0  0  0  0  0  0  0  0  0  0
   -2.0221    2.4986   -0.4028 C   0  0  0  0  0  0  0  0  0  0  0  0
    0.9590    0.3838    1.2063 H   0  0  0  0  0  0  0  0  0  0  0  0
   -1.5900   -0.3657    0.2683 H   0  0  0  0  0  0  0  0  0  0  0  0
   -1.1597   -0.1560    3.2143 H   0  0  0  0  0  0  0  0  0  0  0  0
   -1.5994    2.6963    2.8697 H   0  0  0  0  0  0  0  0  0  0  0  0
    0.5996    3.1928    1.1166 H   0  0  0  0  0  0  0  0  0  0  0  0
    0.7096    2.2153   -0.3649 H   0  0  0  0  0  0  0  0  0  0  0  0
   -1.2839    4.5124    0.1325 H   0  0  0  0  0  0  0  0  0  0  0  0
   -0.6697    3.9989   -1.4485 H   0  0  0  0  0  0  0  0  0  0  0  0
   -3.0528    2.7505   -0.1433 H   0  0  0  0  0  0  0  0  0  0  0  0
   -2.0300    1.9027   -1.3208 H   0  0  0  0  0  0  0  0  0  0  0  0
  1  2  1  0  0  0  0
  1 10  1  0  0  0  0
  2 11  1  6  0  0  0
  2  3  1  0  0  0  0
  3 12  1  1  0  0  0
  4  3  1  0  0  0  0
  5  4  1  0  0  0  0
  5  3  1  0  0  0  0
  5 13  1  1  0  0  0
  6  2  1  0  0  0  0
  6  5  1  0  0  0  0
  7  6  1  0  0  0  0
  7 14  1  0  0  0  0
  8  9  1  0  0  0  0
  8 16  1  0  0  0  0
  8  7  1  0  0  0  0
  9 18  1  0  0  0  0
  9  6  1  0  0  0  0
 15  7  1  0  0  0  0
 17  8  1  0  0  0  0
 19  9  1  0  0  0  0
M TOR 0 0 1 2 3
M TOR 1 0 1 2 4
M TOR 2 0 1 2 11
M TOR 3 0 1 5 4
M TOR 4 0 1 5 6
M TOR 5 0 1 5 8
M TOR 6 1 2 3 4
M TOR 7 1 2 4 5
M TOR 8 1 2 4 12
M TOR 9 1 5 4 3
M TOR 10 1 5 4 12
M TOR 11 1 5 6 7
M TOR 12 1 5 6 13
M TOR 13 1 5 6 14
M TOR 14 1 5 8 7
M TOR 15 1 5 8 17
M TOR 16 1 5 8 18
M TOR 17 2 1 0 9
M TOR 18 2 1 5 6
M TOR 19 2 1 5 8
M TOR 20 2 3 4 5
M TOR 21 2 3 4 12
M TOR 22 2 4 5 6
M TOR 23 2 4 5 8
M TOR 24 3 2 1 5
M TOR 25 3 2 1 10
M TOR 26 3 4 2 11
M TOR 27 3 4 5 6
M TOR 28 3 4 5 8
M TOR 29 4 2 1 10
M TOR 30 4 5 1 10
M TOR 31 4 5 6 7
M TOR 32 4 5 6 13
M TOR 33 4 5 6 14
M TOR 34 4 5 8 7
M TOR 35 4 5 8 17
M TOR 36 4 5 8 18
M TOR 37 5 1 0 9
M TOR 38 5 1 2 11
M TOR 39 5 4 2 11
M TOR 40 5 6 7 8
M TOR 41 5 6 7 15
M TOR 42 5 6 7 16
M TOR 43 5 8 7 15
M TOR 44 5 8 7 16
M TOR 45 6 5 1 10
M TOR 46 6 5 4 12
M TOR 47 6 5 8 17
M TOR 48 6 5 8 18
M TOR 49 6 7 8 17
M TOR 50 6 7 8 18
M TOR 51 8 5 1 10
M TOR 52 8 5 4 12
M TOR 53 8 5 6 13
M TOR 54 8 5 6 14
M TOR 55 8 7 6 13
M TOR 56 8 7 6 14
M  END
$$$$
