gdb 3158	2.3083076	1.6599174	1.3151805	2.3509	73.8	-0.24426	0.07766	0.32192	1044.2757	0.15734	-422.535144	-422.527089	-422.526145	-422.567145	32.572
 OpenBabel02181911413D

 19 21  0  0  1  0  0  0  0  0999 V2000
    0.5239    0.5146    0.5876 O   0  0  0  0  0  0  0  0  0  0  0  0
   -0.6978   -0.1095    0.9667 C   0  0  2  0  0  0  0  0  0  0  0  0
   -1.7996    0.1992   -0.0589 C   0  0  1  0  0  0  0  0  0  0  0  0
   -3.1839   -0.3790    0.0815 C   0  0  0  0  0  0  0  0  0  0  0  0
   -2.8925    0.9943    0.6303 C   0  0  1  0  0  0  0  0  0  0  0  0
   -2.5015    1.1578    2.0973 C   0  0  1  0  0  0  0  0  0  0  0  0
   -2.7091    2.4182    2.6607 O   0  0  0  0  0  0  0  0  0  0  0  0
   -2.4511   -0.0599    2.9818 C   0  0  0  0  0  0  0  0  0  0  0  0
   -1.1880    0.4494    2.3071 C   0  0  1  0  0  0  0  0  0  0  0  0
    0.3612    1.4647    0.5573 H   0  0  0  0  0  0  0  0  0  0  0  0
   -0.4590   -1.1773    1.0154 H   0  0  0  0  0  0  0  0  0  0  0  0
   -1.4440    0.4384   -1.0552 H   0  0  0  0  0  0  0  0  0  0  0  0
   -3.7754   -0.4308   -0.8271 H   0  0  0  0  0  0  0  0  0  0  0  0
   -3.3639   -1.2083    0.7555 H   0  0  0  0  0  0  0  0  0  0  0  0
   -3.3554    1.8613    0.1735 H   0  0  0  0  0  0  0  0  0  0  0  0
   -3.6318    2.4746    2.9319 H   0  0  0  0  0  0  0  0  0  0  0  0
   -2.4999    0.1330    4.0488 H   0  0  0  0  0  0  0  0  0  0  0  0
   -2.9088   -0.9950    2.6811 H   0  0  0  0  0  0  0  0  0  0  0  0
   -0.4220    0.8626    2.9541 H   0  0  0  0  0  0  0  0  0  0  0  0
  1  2  1  0  0  0  0
  2 11  1  1  0  0  0
  2  9  1  0  0  0  0
  3 12  1  6  0  0  0
  3  4  1  0  0  0  0
  3  5  1  0  0  0  0
  3  2  1  0  0  0  0
  4  5  1  0  0  0  0
  4 14  1  0  0  0  0
  5 15  1  6  0  0  0
  5  6  1  0  0  0  0
  6  9  1  0  0  0  0
  6  7  1  1  0  0  0
  6  8  1  0  0  0  0
  7 16  1  0  0  0  0
  8 17  1  0  0  0  0
  9 19  1  1  0  0  0
  9  8  1  0  0  0  0
 10  1  1  0  0  0  0
 13  4  1  0  0  0  0
 18  8  1  0  0  0  0
M TOR 0 0 1 2 3
M TOR 1 0 1 2 4
M TOR 2 0 1 2 11
M TOR 3 0 1 8 5
M TOR 4 0 1 8 7
M TOR 5 0 1 8 18
M TOR 6 1 2 3 4
M TOR 7 1 2 3 12
M TOR 8 1 2 3 13
M TOR 9 1 2 4 5
M TOR 10 1 2 4 14
M TOR 11 1 8 5 4
M TOR 12 1 8 5 6
M TOR 13 1 8 5 7
M TOR 14 1 8 7 16
M TOR 15 1 8 7 17
M TOR 16 2 1 0 9
M TOR 17 2 1 8 5
M TOR 18 2 1 8 7
M TOR 19 2 1 8 18
M TOR 20 2 3 4 5
M TOR 21 2 3 4 14
M TOR 22 2 4 3 12
M TOR 23 2 4 3 13
M TOR 24 2 4 5 6
M TOR 25 2 4 5 7
M TOR 26 2 4 5 8
M TOR 27 3 2 1 8
M TOR 28 3 2 1 10
M TOR 29 3 4 2 11
M TOR 30 3 4 5 6
M TOR 31 3 4 5 7
M TOR 32 3 4 5 8
M TOR 33 4 2 1 8
M TOR 34 4 2 1 10
M TOR 35 4 5 6 15
M TOR 36 4 5 7 8
M TOR 37 4 5 7 16
M TOR 38 4 5 7 17
M TOR 39 4 5 8 18
M TOR 40 5 4 2 11
M TOR 41 5 4 3 12
M TOR 42 5 4 3 13
M TOR 43 5 7 8 18
M TOR 44 5 8 1 10
M TOR 45 5 8 7 16
M TOR 46 5 8 7 17
M TOR 47 6 5 4 14
M TOR 48 6 5 7 8
M TOR 49 6 5 7 16
M TOR 50 6 5 7 17
M TOR 51 6 5 8 18
M TOR 52 7 5 4 14
M TOR 53 7 5 6 15
M TOR 54 7 8 1 10
M TOR 55 8 1 0 9
M TOR 56 8 1 2 11
M TOR 57 8 5 4 14
M TOR 58 8 5 6 15
M  END
$$$$
