gdb 503	2.9150182	1.853641	1.4305002	1.6993	74.29	-0.24089	0.06771	0.3086	944.3359	0.159826	-422.508026	-422.501285	-422.500341	-422.538713	28.086
 OpenBabel02181911403D

 19 21  0  0  1  0  0  0  0  0999 V2000
    0.1994    0.8192   -1.1698 C   0  0  0  0  0  0  0  0  0  0  0  0
    0.3590   -0.4066   -0.3907 O   0  0  0  0  0  0  0  0  0  0  0  0
    0.4907    0.3918    0.8083 C   0  0  1  0  0  0  0  0  0  0  0  0
    1.5536    0.1238    1.8660 C   0  0  0  0  0  0  0  0  0  0  0  0
    1.9516    1.4052    2.3832 O   0  0  0  0  0  0  0  0  0  0  0  0
    2.0930    2.4350    1.3996 C   0  0  2  0  0  0  0  0  0  0  0  0
    0.7093    2.8949    0.8087 C   0  0  0  0  0  0  0  0  0  0  0  0
    0.8627    1.6129   -0.0373 C   0  0  2  0  0  0  0  0  0  0  0  0
    2.3935    1.8356    0.0068 C   0  0  0  0  0  0  0  0  0  0  0  0
    0.7247    0.7658   -2.1282 H   0  0  0  0  0  0  0  0  0  0  0  0
   -0.8622    1.0476   -1.3382 H   0  0  0  0  0  0  0  0  0  0  0  0
   -0.4965    0.5167    1.2799 H   0  0  0  0  0  0  0  0  0  0  0  0
    1.1901   -0.4443    2.7253 H   0  0  0  0  0  0  0  0  0  0  0  0
    2.4034   -0.4177    1.4315 H   0  0  0  0  0  0  0  0  0  0  0  0
    2.7514    3.1870    1.8360 H   0  0  0  0  0  0  0  0  0  0  0  0
   -0.1398    2.9486    1.4944 H   0  0  0  0  0  0  0  0  0  0  0  0
    0.8119    3.8308    0.2517 H   0  0  0  0  0  0  0  0  0  0  0  0
    3.0714    0.9843   -0.0733 H   0  0  0  0  0  0  0  0  0  0  0  0
    2.6987    2.6128   -0.6990 H   0  0  0  0  0  0  0  0  0  0  0  0
  1  2  1  0  0  0  0
  2  3  1  0  0  0  0
  3 12  1  1  0  0  0
  3  4  1  0  0  0  0
  4  5  1  0  0  0  0
  4 13  1  0  0  0  0
  6 15  1  1  0  0  0
  6  5  1  0  0  0  0
  7  6  1  0  0  0  0
  7 16  1  0  0  0  0
  8  1  1  6  0  0  0
  8  9  1  0  0  0  0
  8  3  1  0  0  0  0
  8  7  1  0  0  0  0
  9  6  1  0  0  0  0
 10  1  1  0  0  0  0
 11  1  1  0  0  0  0
 14  4  1  0  0  0  0
 17  7  1  0  0  0  0
 18  9  1  0  0  0  0
 19  9  1  0  0  0  0
M TOR 0 0 1 2 3
M TOR 1 0 1 2 7
M TOR 2 0 1 2 11
M TOR 3 0 7 2 3
M TOR 4 0 7 2 11
M TOR 5 0 7 6 5
M TOR 6 0 7 6 15
M TOR 7 0 7 6 16
M TOR 8 0 7 8 5
M TOR 9 0 7 8 17
M TOR 10 0 7 8 18
M TOR 11 1 0 7 6
M TOR 12 1 0 7 8
M TOR 13 1 2 3 4
M TOR 14 1 2 3 12
M TOR 15 1 2 3 13
M TOR 16 1 2 7 6
M TOR 17 1 2 7 8
M TOR 18 2 1 0 9
M TOR 19 2 1 0 10
M TOR 20 2 3 4 5
M TOR 21 2 7 0 9
M TOR 22 2 7 0 10
M TOR 23 2 7 6 5
M TOR 24 2 7 6 15
M TOR 25 2 7 6 16
M TOR 26 2 7 8 5
M TOR 27 2 7 8 17
M TOR 28 2 7 8 18
M TOR 29 3 2 7 6
M TOR 30 3 2 7 8
M TOR 31 3 4 5 6
M TOR 32 3 4 5 8
M TOR 33 3 4 5 14
M TOR 34 4 3 2 7
M TOR 35 4 3 2 11
M TOR 36 4 5 6 7
M TOR 37 4 5 6 15
M TOR 38 4 5 6 16
M TOR 39 4 5 8 7
M TOR 40 4 5 8 17
M TOR 41 4 5 8 18
M TOR 42 5 4 3 12
M TOR 43 5 4 3 13
M TOR 44 5 6 7 8
M TOR 45 6 5 8 17
M TOR 46 6 5 8 18
M TOR 47 6 7 0 9
M TOR 48 6 7 0 10
M TOR 49 6 7 2 11
M TOR 50 6 7 8 17
M TOR 51 6 7 8 18
M TOR 52 7 2 3 12
M TOR 53 7 2 3 13
M TOR 54 7 6 5 14
M TOR 55 7 8 5 14
M TOR 56 8 5 6 15
M TOR 57 8 5 6 16
M TOR 58 8 7 0 9
M TOR 59 8 7 0 10
M TOR 60 8 7 2 11
M TOR 61 8 7 6 15
M TOR 62 8 7 6 16
M  END
$$$$
