gdb 1159	4.3003684	0.9486747	0.8843921	2.2765	76.21	-0.23903	-0.00992	0.22910999999999998	1367.7214	0.154921	-422.508208	-422.499386	-422.498442	-422.542847	32.139
 OpenBabel02181911403D

 19 20  0  0  1  0  0  0  0  0999 V2000
    4.0675    1.9139   -1.8570 C   0  0  0  0  0  0  0  0  0  0  0  0
    3.5778    0.4866   -1.6910 C   0  0  0  0  0  0  0  0  0  0  0  0
    4.1161   -0.4438   -2.2486 O   0  0  0  0  0  0  0  0  0  0  0  0
    2.3644    0.2910   -0.7909 C   0  0  0  0  0  0  0  0  0  0  0  0
    2.0598   -1.1671   -0.5138 C   0  0  1  0  0  0  0  0  0  0  0  0
    0.6278   -1.5533   -0.0467 C   0  0  2  0  0  0  0  0  0  0  0  0
    0.8641   -2.9972   -0.5461 C   0  0  0  0  0  0  0  0  0  0  0  0
    1.3529   -1.9979   -1.6192 C   0  0  1  0  0  0  0  0  0  0  0  0
    0.1130   -1.2061   -1.3939 O   0  0  0  0  0  0  0  0  0  0  0  0
    3.2452    2.5739   -2.1539 H   0  0  0  0  0  0  0  0  0  0  0  0
    4.4475    2.2919   -0.9006 H   0  0  0  0  0  0  0  0  0  0  0  0
    4.8630    1.9508   -2.6022 H   0  0  0  0  0  0  0  0  0  0  0  0
    2.5204    0.8510    0.1410 H   0  0  0  0  0  0  0  0  0  0  0  0
    1.4980    0.7535   -1.2806 H   0  0  0  0  0  0  0  0  0  0  0  0
    2.8811   -1.6786   -0.0048 H   0  0  0  0  0  0  0  0  0  0  0  0
    0.0569   -1.1988    0.8129 H   0  0  0  0  0  0  0  0  0  0  0  0
    1.6092   -3.6091   -0.0317 H   0  0  0  0  0  0  0  0  0  0  0  0
   -0.0411   -3.5460   -0.8062 H   0  0  0  0  0  0  0  0  0  0  0  0
    1.6616   -2.1715   -2.6486 H   0  0  0  0  0  0  0  0  0  0  0  0
  1  2  1  0  0  0  0
  1 11  1  0  0  0  0
  2  4  1  0  0  0  0
  3  2  2  0  0  0  0
  4  5  1  0  0  0  0
  4 13  1  0  0  0  0
  5  6  1  0  0  0  0
  5 15  1  1  0  0  0
  6 16  1  1  0  0  0
  7  6  1  0  0  0  0
  7 17  1  0  0  0  0
  8 19  1  6  0  0  0
  8  9  1  0  0  0  0
  8  7  1  0  0  0  0
  8  5  1  0  0  0  0
  9  6  1  0  0  0  0
 10  1  1  0  0  0  0
 12  1  1  0  0  0  0
 14  4  1  0  0  0  0
 18  7  1  0  0  0  0
M TOR 0 0 1 3 4
M TOR 1 0 1 3 12
M TOR 2 0 1 3 13
M TOR 3 1 3 4 5
M TOR 4 1 3 4 7
M TOR 5 1 3 4 14
M TOR 6 2 1 0 9
M TOR 7 2 1 0 10
M TOR 8 2 1 0 11
M TOR 9 2 1 3 4
M TOR 10 2 1 3 12
M TOR 11 2 1 3 13
M TOR 12 3 1 0 9
M TOR 13 3 1 0 10
M TOR 14 3 1 0 11
M TOR 15 3 4 5 6
M TOR 16 3 4 5 8
M TOR 17 3 4 5 15
M TOR 18 3 4 7 6
M TOR 19 3 4 7 8
M TOR 20 3 4 7 18
M TOR 21 4 5 6 7
M TOR 22 4 5 6 16
M TOR 23 4 5 6 17
M TOR 24 4 5 8 7
M TOR 25 4 7 6 16
M TOR 26 4 7 6 17
M TOR 27 5 4 3 12
M TOR 28 5 4 3 13
M TOR 29 5 4 7 18
M TOR 30 5 6 7 8
M TOR 31 5 6 7 18
M TOR 32 5 8 7 18
M TOR 33 6 5 4 14
M TOR 34 6 7 4 14
M TOR 35 7 4 3 12
M TOR 36 7 4 3 13
M TOR 37 7 4 5 15
M TOR 38 7 6 5 15
M TOR 39 7 8 5 15
M TOR 40 8 5 4 14
M TOR 41 8 5 6 16
M TOR 42 8 5 6 17
M TOR 43 8 7 4 14
M TOR 44 8 7 6 16
M TOR 45 8 7 6 17
M  END
$$$$
