gdb 967	5.7896298	0.7378754	0.7295667	2.747	77.37	-0.25763	-0.02864	0.22899000000000003	1572.6675	0.155786	-422.500965	-422.492376	-422.491432	-422.535753	30.861
 OpenBabel02181911403D

 19 20  0  0  1  0  0  0  0  0999 V2000
   -3.6482    1.0878   -3.2588 O   0  0  0  0  0  0  0  0  0  0  0  0
   -2.7802    1.6064   -2.6093 C   0  0  0  0  0  0  0  0  0  0  0  0
   -1.7565    0.8301   -1.7991 C   0  0  0  0  0  0  0  0  0  0  0  0
   -0.8273    1.7451   -1.2737 O   0  0  0  0  0  0  0  0  0  0  0  0
    0.0878    1.1738   -0.3769 C   0  0  2  0  0  0  0  0  0  0  0  0
    1.2795    2.0674    0.0320 C   0  0  1  0  0  0  0  0  0  0  0  0
    1.9867    0.7506    0.4676 C   0  0  0  0  0  0  0  0  0  0  0  0
    1.3546    0.4321   -0.9167 C   0  0  2  0  0  0  0  0  0  0  0  0
    1.8722    1.8241   -1.3908 C   0  0  0  0  0  0  0  0  0  0  0  0
   -2.6564    2.7097   -2.5406 H   0  0  0  0  0  0  0  0  0  0  0  0
   -2.2878    0.2837   -1.0005 H   0  0  0  0  0  0  0  0  0  0  0  0
   -1.2846    0.0747   -2.4467 H   0  0  0  0  0  0  0  0  0  0  0  0
   -0.4468    0.6663    0.4400 H   0  0  0  0  0  0  0  0  0  0  0  0
    1.2297    3.0073    0.5823 H   0  0  0  0  0  0  0  0  0  0  0  0
    3.0774    0.7836    0.4965 H   0  0  0  0  0  0  0  0  0  0  0  0
    1.5775    0.2283    1.3374 H   0  0  0  0  0  0  0  0  0  0  0  0
    1.3971   -0.5151   -1.4559 H   0  0  0  0  0  0  0  0  0  0  0  0
    2.9562    1.9269   -1.4845 H   0  0  0  0  0  0  0  0  0  0  0  0
    1.3448    2.2879   -2.2236 H   0  0  0  0  0  0  0  0  0  0  0  0
  1  2  2  0  0  0  0
  2 10  1  0  0  0  0
  2  3  1  0  0  0  0
  3  4  1  0  0  0  0
  3 11  1  0  0  0  0
  4  5  1  0  0  0  0
  5  6  1  0  0  0  0
  5 13  1  1  0  0  0
  6  7  1  0  0  0  0
  6 14  1  1  0  0  0
  7 15  1  0  0  0  0
  7 16  1  0  0  0  0
  8 17  1  6  0  0  0
  8  5  1  0  0  0  0
  8  7  1  0  0  0  0
  9  8  1  0  0  0  0
  9  6  1  0  0  0  0
 12  3  1  0  0  0  0
 18  9  1  0  0  0  0
 19  9  1  0  0  0  0
M TOR 0 0 1 2 3
M TOR 1 0 1 2 10
M TOR 2 0 1 2 11
M TOR 3 1 2 3 4
M TOR 4 2 3 4 5
M TOR 5 2 3 4 7
M TOR 6 2 3 4 12
M TOR 7 3 2 1 9
M TOR 8 3 4 5 6
M TOR 9 3 4 5 8
M TOR 10 3 4 5 13
M TOR 11 3 4 7 6
M TOR 12 3 4 7 8
M TOR 13 3 4 7 16
M TOR 14 4 3 2 10
M TOR 15 4 3 2 11
M TOR 16 4 5 6 7
M TOR 17 4 5 6 14
M TOR 18 4 5 6 15
M TOR 19 4 5 8 7
M TOR 20 4 5 8 17
M TOR 21 4 5 8 18
M TOR 22 4 7 6 14
M TOR 23 4 7 6 15
M TOR 24 4 7 8 17
M TOR 25 4 7 8 18
M TOR 26 5 4 7 16
M TOR 27 5 6 7 8
M TOR 28 5 6 7 16
M TOR 29 5 8 7 16
M TOR 30 6 5 4 12
M TOR 31 6 5 8 17
M TOR 32 6 5 8 18
M TOR 33 6 7 4 12
M TOR 34 6 7 8 17
M TOR 35 6 7 8 18
M TOR 36 7 4 5 13
M TOR 37 7 6 5 13
M TOR 38 7 8 5 13
M TOR 39 8 5 4 12
M TOR 40 8 5 6 14
M TOR 41 8 5 6 15
M TOR 42 8 7 4 12
M TOR 43 8 7 6 14
M TOR 44 8 7 6 15
M  END
$$$$
