
     RDKit          3D

 19 20  0  0  0  0  0  0  0  0999 V2000
    1.2132    1.1233   -0.0893 C   0  0  0  0  0  0  0  0  0  0  0  0
   -0.0380    0.3408    0.1506 C   0  0  0  0  0  0  0  0  0  0  0  0
   -0.1616   -0.9531    0.4545 C   0  0  0  0  0  0  0  0  0  0  0  0
   -1.5922   -1.3991    0.6239 C   0  0  0  0  0  0  0  0  0  0  0  0
   -2.4196   -0.1578    0.2133 C   0  0  0  0  0  0  0  0  0  0  0  0
   -3.0249   -0.2780   -1.0738 O   0  0  0  0  0  0  0  0  0  0  0  0
   -2.2244    0.4462   -1.9826 C   0  0  0  0  0  0  0  0  0  0  0  0
   -1.6698    1.5235   -1.2684 O   0  0  0  0  0  0  0  0  0  0  0  0
   -1.3958    1.0037    0.0366 C   0  0  0  0  0  0  0  0  0  0  0  0
    1.3269    1.9258    0.6511 H   0  0  0  0  0  0  0  0  0  0  0  0
    2.1034    0.4903   -0.0444 H   0  0  0  0  0  0  0  0  0  0  0  0
    1.1777    1.6087   -1.0712 H   0  0  0  0  0  0  0  0  0  0  0  0
    0.6751   -1.6323    0.5890 H   0  0  0  0  0  0  0  0  0  0  0  0
   -1.8549   -2.2576   -0.0043 H   0  0  0  0  0  0  0  0  0  0  0  0
   -1.8043   -1.6935    1.6602 H   0  0  0  0  0  0  0  0  0  0  0  0
   -3.2182    0.0638    0.9253 H   0  0  0  0  0  0  0  0  0  0  0  0
   -1.4324   -0.1989   -2.4013 H   0  0  0  0  0  0  0  0  0  0  0  0
   -2.8553    0.8390   -2.7852 H   0  0  0  0  0  0  0  0  0  0  0  0
   -1.5232    1.8375    0.7348 H   0  0  0  0  0  0  0  0  0  0  0  0
  1  2  1  0
  2  3  2  0
  3  4  1  0
  4  5  1  0
  5  6  1  0
  6  7  1  0
  7  8  1  0
  8  9  1  0
  9  2  1  0
  9  5  1  0
  1 10  1  0
  1 11  1  0
  1 12  1  0
  3 13  1  0
  4 14  1  0
  4 15  1  0
  5 16  1  0
  7 17  1  0
  7 18  1  0
  9 19  1  0
M  END
$$$$
