gdb 837	3.430213	1.3357285	1.2471406	1.1906	74.24	-0.24412	-0.02419	0.21993000000000001	1057.7937	0.158976	-422.583941	-422.576446	-422.575502	-422.616185	28.95
 OpenBabel02181911403D

 19 20  0  0  1  0  0  0  0  0999 V2000
    0.9914   -0.5765   -0.7250 O   0  0  0  0  0  0  0  0  0  0  0  0
    0.2077   -0.0865    0.0482 C   0  0  0  0  0  0  0  0  0  0  0  0
    0.3199    1.2937    0.6525 C   0  0  2  0  0  0  0  0  0  0  0  0
   -0.9097    2.1957    0.2566 C   0  0  0  0  0  0  0  0  0  0  0  0
   -0.1990    3.3949   -0.4024 C   0  0  2  0  0  0  0  0  0  0  0  0
    0.9634    2.7343   -1.1531 C   0  0  0  0  0  0  0  0  0  0  0  0
    1.5284    2.1137    0.1432 C   0  0  1  0  0  0  0  0  0  0  0  0
    1.6194    3.3787    1.0084 C   0  0  0  0  0  0  0  0  0  0  0  0
    0.4567    4.1447    0.6316 O   0  0  0  0  0  0  0  0  0  0  0  0
   -0.7004   -0.6482    0.3720 H   0  0  0  0  0  0  0  0  0  0  0  0
    0.3476    1.1539    1.7411 H   0  0  0  0  0  0  0  0  0  0  0  0
   -1.5826    1.6894   -0.4455 H   0  0  0  0  0  0  0  0  0  0  0  0
   -1.4954    2.5121    1.1212 H   0  0  0  0  0  0  0  0  0  0  0  0
   -0.8499    4.0733   -0.9545 H   0  0  0  0  0  0  0  0  0  0  0  0
    0.6571    1.9901   -1.8906 H   0  0  0  0  0  0  0  0  0  0  0  0
    1.6328    3.4626   -1.6170 H   0  0  0  0  0  0  0  0  0  0  0  0
    2.4517    1.5433    0.0574 H   0  0  0  0  0  0  0  0  0  0  0  0
    1.5891    3.1691    2.0848 H   0  0  0  0  0  0  0  0  0  0  0  0
    2.5255    3.9610    0.7953 H   0  0  0  0  0  0  0  0  0  0  0  0
  1  2  2  0  0  0  0
  2 10  1  0  0  0  0
  2  3  1  0  0  0  0
  3 11  1  1  0  0  0
  4  3  1  0  0  0  0
  4 13  1  0  0  0  0
  5 14  1  6  0  0  0
  5  4  1  0  0  0  0
  5  9  1  0  0  0  0
  6  5  1  0  0  0  0
  6  7  1  0  0  0  0
  7 17  1  6  0  0  0
  7  3  1  0  0  0  0
  7  8  1  0  0  0  0
  8 18  1  0  0  0  0
  9  8  1  0  0  0  0
 12  4  1  0  0  0  0
 15  6  1  0  0  0  0
 16  6  1  0  0  0  0
 19  8  1  0  0  0  0
M TOR 0 0 1 2 3
M TOR 1 0 1 2 6
M TOR 2 0 1 2 10
M TOR 3 1 2 3 4
M TOR 4 1 2 3 11
M TOR 5 1 2 3 12
M TOR 6 1 2 6 5
M TOR 7 1 2 6 7
M TOR 8 1 2 6 16
M TOR 9 2 3 4 5
M TOR 10 2 3 4 8
M TOR 11 2 3 4 13
M TOR 12 2 6 5 4
M TOR 13 2 6 5 14
M TOR 14 2 6 5 15
M TOR 15 2 6 7 8
M TOR 16 2 6 7 17
M TOR 17 2 6 7 18
M TOR 18 3 2 1 9
M TOR 19 3 2 6 5
M TOR 20 3 2 6 7
M TOR 21 3 2 6 16
M TOR 22 3 4 5 6
M TOR 23 3 4 5 14
M TOR 24 3 4 5 15
M TOR 25 3 4 8 7
M TOR 26 4 3 2 6
M TOR 27 4 3 2 10
M TOR 28 4 5 6 7
M TOR 29 4 5 6 16
M TOR 30 4 8 7 6
M TOR 31 4 8 7 17
M TOR 32 4 8 7 18
M TOR 33 5 4 3 11
M TOR 34 5 4 3 12
M TOR 35 5 4 8 7
M TOR 36 5 6 2 10
M TOR 37 5 6 7 8
M TOR 38 5 6 7 17
M TOR 39 5 6 7 18
M TOR 40 6 2 1 9
M TOR 41 6 2 3 11
M TOR 42 6 2 3 12
M TOR 43 6 5 4 8
M TOR 44 6 5 4 13
M TOR 45 7 6 2 10
M TOR 46 7 6 5 14
M TOR 47 7 6 5 15
M TOR 48 7 8 4 13
M TOR 49 8 4 3 11
M TOR 50 8 4 3 12
M TOR 51 8 4 5 14
M TOR 52 8 4 5 15
M TOR 53 8 7 6 16
M  END
$$$$
