
     RDKit          3D

 19 20  0  0  0  0  0  0  0  0999 V2000
   -0.9587   -2.3517   -2.1148 O   0  0  0  0  0  0  0  0  0  0  0  0
   -1.6008   -1.2881   -1.4381 C   0  0  0  0  0  0  0  0  0  0  0  0
   -1.5216    0.0293   -2.2443 C   0  0  0  0  0  0  0  0  0  0  0  0
   -1.7161    1.3016   -1.3862 C   0  0  0  0  0  0  0  0  0  0  0  0
   -1.1374    1.0965    0.0334 C   0  0  0  0  0  0  0  0  0  0  0  0
   -1.9373   -0.0420    0.7386 C   0  0  0  0  0  0  0  0  0  0  0  0
   -1.0352   -1.0706   -0.0082 C   0  0  0  0  0  0  0  0  0  0  0  0
    0.0042    0.0631   -0.0479 C   0  0  0  0  0  0  0  0  0  0  0  0
    1.2007    0.1153   -0.0238 O   0  0  0  0  0  0  0  0  0  0  0  0
   -0.0306   -2.1161   -2.2294 H   0  0  0  0  0  0  0  0  0  0  0  0
   -2.6413   -1.6167   -1.3349 H   0  0  0  0  0  0  0  0  0  0  0  0
   -0.5140    0.0643   -2.6794 H   0  0  0  0  0  0  0  0  0  0  0  0
   -2.2178    0.0033   -3.0869 H   0  0  0  0  0  0  0  0  0  0  0  0
   -1.2239    2.1459   -1.8782 H   0  0  0  0  0  0  0  0  0  0  0  0
   -2.7769    1.5616   -1.2956 H   0  0  0  0  0  0  0  0  0  0  0  0
   -0.9603    2.0349    0.5607 H   0  0  0  0  0  0  0  0  0  0  0  0
   -1.7833   -0.0610    1.8191 H   0  0  0  0  0  0  0  0  0  0  0  0
   -3.0070   -0.0865    0.5169 H   0  0  0  0  0  0  0  0  0  0  0  0
   -0.7784   -2.0223    0.4582 H   0  0  0  0  0  0  0  0  0  0  0  0
  1  2  1  0
  2  3  1  0
  3  4  1  0
  4  5  1  0
  5  6  1  0
  6  7  1  0
  7  8  1  0
  8  9  2  0
  7  2  1  0
  8  5  1  0
  1 10  1  0
  2 11  1  0
  3 12  1  0
  3 13  1  0
  4 14  1  0
  4 15  1  0
  5 16  1  0
  6 17  1  0
  6 18  1  0
  7 19  1  0
M  END
$$$$
