gdb 2231	2.4297855	2.1052458	1.6851609	1.2124	72.99	-0.24139	0.08536	0.32675	905.4906	0.159093	-422.552526	-422.545466	-422.544522	-422.583518	28.834
 OpenBabel02181911413D

 19 21  0  0  1  0  0  0  0  0999 V2000
    0.0192   -0.0383   -0.0692 C   0  0  0  0  0  0  0  0  0  0  0  0
    1.5178    0.0395   -0.0448 C   0  0  2  0  0  0  0  0  0  0  0  0
    2.1959   -1.1404    0.4574 O   0  0  0  0  0  0  0  0  0  0  0  0
    3.3894   -0.5667   -0.1499 C   0  0  2  0  0  0  0  0  0  0  0  0
    3.6468    0.6366    0.7751 C   0  0  0  0  0  0  0  0  0  0  0  0
    2.2428    1.2861    0.5988 C   0  0  1  0  0  0  0  0  0  0  0  0
    2.3276    2.2310   -0.6012 C   0  0  0  0  0  0  0  0  0  0  0  0
    2.7255    1.3679   -1.6894 O   0  0  0  0  0  0  0  0  0  0  0  0
    2.4695    0.0543   -1.2592 C   0  0  2  0  0  0  0  0  0  0  0  0
   -0.3745   -0.1412    0.9477 H   0  0  0  0  0  0  0  0  0  0  0  0
   -0.4082    0.8680   -0.5090 H   0  0  0  0  0  0  0  0  0  0  0  0
   -0.3174   -0.8982   -0.6549 H   0  0  0  0  0  0  0  0  0  0  0  0
    4.1828   -1.2895   -0.3376 H   0  0  0  0  0  0  0  0  0  0  0  0
    3.8412    0.2941    1.7933 H   0  0  0  0  0  0  0  0  0  0  0  0
    4.4614    1.2874    0.4468 H   0  0  0  0  0  0  0  0  0  0  0  0
    1.7860    1.7122    1.4918 H   0  0  0  0  0  0  0  0  0  0  0  0
    1.3656    2.7087   -0.8390 H   0  0  0  0  0  0  0  0  0  0  0  0
    3.0807    3.0162   -0.4814 H   0  0  0  0  0  0  0  0  0  0  0  0
    2.2379   -0.6018   -2.0973 H   0  0  0  0  0  0  0  0  0  0  0  0
  1 10  1  0  0  0  0
  2  1  1  6  0  0  0
  2  3  1  0  0  0  0
  2  6  1  0  0  0  0
  4 13  1  6  0  0  0
  4  3  1  0  0  0  0
  4  5  1  0  0  0  0
  5 14  1  0  0  0  0
  6  5  1  0  0  0  0
  6 16  1  1  0  0  0
  7 18  1  0  0  0  0
  7  6  1  0  0  0  0
  8  9  1  0  0  0  0
  8  7  1  0  0  0  0
  9 19  1  6  0  0  0
  9  4  1  0  0  0  0
  9  2  1  0  0  0  0
 11  1  1  0  0  0  0
 12  1  1  0  0  0  0
 15  5  1  0  0  0  0
 17  7  1  0  0  0  0
M TOR 0 0 1 2 3
M TOR 1 0 1 5 4
M TOR 2 0 1 5 6
M TOR 3 0 1 5 15
M TOR 4 0 1 8 3
M TOR 5 0 1 8 7
M TOR 6 0 1 8 18
M TOR 7 1 2 3 4
M TOR 8 1 2 3 8
M TOR 9 1 2 3 12
M TOR 10 1 5 4 3
M TOR 11 1 5 4 13
M TOR 12 1 5 4 14
M TOR 13 1 5 6 7
M TOR 14 1 5 6 16
M TOR 15 1 5 6 17
M TOR 16 1 8 3 4
M TOR 17 1 8 3 12
M TOR 18 1 8 7 6
M TOR 19 2 1 0 9
M TOR 20 2 1 0 10
M TOR 21 2 1 0 11
M TOR 22 2 1 5 4
M TOR 23 2 1 5 6
M TOR 24 2 1 5 15
M TOR 25 2 1 8 7
M TOR 26 2 1 8 18
M TOR 27 2 3 4 5
M TOR 28 2 3 4 13
M TOR 29 2 3 4 14
M TOR 30 2 3 8 7
M TOR 31 2 3 8 18
M TOR 32 3 2 1 5
M TOR 33 3 4 5 6
M TOR 34 3 4 5 15
M TOR 35 3 8 1 5
M TOR 36 3 8 7 6
M TOR 37 4 3 8 7
M TOR 38 4 3 8 18
M TOR 39 4 5 1 8
M TOR 40 4 5 6 7
M TOR 41 4 5 6 16
M TOR 42 4 5 6 17
M TOR 43 5 1 0 9
M TOR 44 5 1 0 10
M TOR 45 5 1 0 11
M TOR 46 5 1 8 7
M TOR 47 5 1 8 18
M TOR 48 5 4 3 8
M TOR 49 5 4 3 12
M TOR 50 5 6 7 8
M TOR 51 6 5 1 8
M TOR 52 6 5 4 13
M TOR 53 6 5 4 14
M TOR 54 6 7 8 18
M TOR 55 7 6 5 15
M TOR 56 7 8 3 12
M TOR 57 8 1 0 9
M TOR 58 8 1 0 10
M TOR 59 8 1 0 11
M TOR 60 8 1 5 15
M TOR 61 8 3 4 13
M TOR 62 8 3 4 14
M TOR 63 8 7 6 16
M TOR 64 8 7 6 17
M  END
$$$$
