
     RDKit          3D

 19 19  0  0  0  0  0  0  0  0999 V2000
   -3.4324    2.4377   -1.0467 C   0  0  0  0  0  0  0  0  0  0  0  0
   -2.4755    2.3151    0.1324 C   0  0  0  0  0  0  0  0  0  0  0  0
   -3.0577    3.0785    1.1848 O   0  0  0  0  0  0  0  0  0  0  0  0
   -1.0412    2.7977   -0.1896 C   0  0  0  0  0  0  0  0  0  0  0  0
   -0.1237    1.9639    0.5296 O   0  0  0  0  0  0  0  0  0  0  0  0
   -0.8423    0.9893    1.2888 C   0  0  0  0  0  0  0  0  0  0  0  0
   -2.2042    0.8623    0.5800 C   0  0  0  0  0  0  0  0  0  0  0  0
   -0.9662    1.3989    2.6974 C   0  0  0  0  0  0  0  0  0  0  0  0
   -1.0660    1.7458    3.8455 C   0  0  0  0  0  0  0  0  0  0  0  0
   -3.0759    1.8637   -1.9064 H   0  0  0  0  0  0  0  0  0  0  0  0
   -4.4235    2.0729   -0.7639 H   0  0  0  0  0  0  0  0  0  0  0  0
   -3.5334    3.4862   -1.3426 H   0  0  0  0  0  0  0  0  0  0  0  0
   -2.5220    2.9699    1.9811 H   0  0  0  0  0  0  0  0  0  0  0  0
   -0.8126    2.7141   -1.2592 H   0  0  0  0  0  0  0  0  0  0  0  0
   -0.9195    3.8428    0.1154 H   0  0  0  0  0  0  0  0  0  0  0  0
   -0.2681    0.0574    1.2463 H   0  0  0  0  0  0  0  0  0  0  0  0
   -2.0896    0.2082   -0.2895 H   0  0  0  0  0  0  0  0  0  0  0  0
   -2.9996    0.4766    1.2190 H   0  0  0  0  0  0  0  0  0  0  0  0
   -1.1418    2.0426    4.8629 H   0  0  0  0  0  0  0  0  0  0  0  0
  1  2  1  0
  2  3  1  0
  2  4  1  0
  4  5  1  0
  5  6  1  0
  6  7  1  0
  6  8  1  0
  8  9  3  0
  7  2  1  0
  1 10  1  0
  1 11  1  0
  1 12  1  0
  3 13  1  0
  4 14  1  0
  4 15  1  0
  6 16  1  0
  7 17  1  0
  7 18  1  0
  9 19  1  0
M  END
$$$$
