gdb 348	2.4982039	1.8066106	1.1983677	0.2807	78.07	-0.23648	0.02318	0.25966	1056.5995	0.158717	-422.528516	-422.520864	-422.51992	-422.560503	30.02
 OpenBabel02181911403D

 19 20  0  0  1  0  0  0  0  0999 V2000
   -0.2983    0.3027    0.4829 C   0  0  0  0  0  0  0  0  0  0  0  0
    1.1025    0.8223    0.4921 C   0  0  1  0  0  0  0  0  0  0  0  0
    1.8569    0.5994   -0.6616 O   0  0  0  0  0  0  0  0  0  0  0  0
    2.9504    1.4764   -0.7675 C   0  0  0  0  0  0  0  0  0  0  0  0
    2.5962    2.8252   -0.7584 O   0  0  0  0  0  0  0  0  0  0  0  0
    1.8038    3.2428   -1.8554 C   0  0  0  0  0  0  0  0  0  0  0  0
    0.3126    3.1517   -1.6873 C   0  0  0  0  0  0  0  0  0  0  0  0
   -0.4335    2.5839   -0.7394 C   0  0  0  0  0  0  0  0  0  0  0  0
   -0.0351    1.8071    0.4650 C   0  0  1  0  0  0  0  0  0  0  0  0
   -0.6312   -0.1390   -0.4500 H   0  0  0  0  0  0  0  0  0  0  0  0
   -0.6941   -0.1606    1.3797 H   0  0  0  0  0  0  0  0  0  0  0  0
    1.6801    0.7482    1.4148 H   0  0  0  0  0  0  0  0  0  0  0  0
    3.6369    1.3548    0.0827 H   0  0  0  0  0  0  0  0  0  0  0  0
    3.4497    1.1938   -1.7053 H   0  0  0  0  0  0  0  0  0  0  0  0
    2.0620    4.2963   -2.0276 H   0  0  0  0  0  0  0  0  0  0  0  0
    2.1028    2.6981   -2.7680 H   0  0  0  0  0  0  0  0  0  0  0  0
   -0.2152    3.6676   -2.4897 H   0  0  0  0  0  0  0  0  0  0  0  0
   -1.5126    2.6962   -0.8441 H   0  0  0  0  0  0  0  0  0  0  0  0
   -0.2308    2.3160    1.4072 H   0  0  0  0  0  0  0  0  0  0  0  0
  1  2  1  0  0  0  0
  1 11  1  0  0  0  0
  2 12  1  1  0  0  0
  3  2  1  0  0  0  0
  4  5  1  0  0  0  0
  4  3  1  0  0  0  0
  4 13  1  0  0  0  0
  6  7  1  0  0  0  0
  6  5  1  0  0  0  0
  7  8  2  0  0  0  0
  8  9  1  0  0  0  0
  9  1  1  0  0  0  0
  9  2  1  0  0  0  0
  9 19  1  1  0  0  0
 10  1  1  0  0  0  0
 14  4  1  0  0  0  0
 15  6  1  0  0  0  0
 16  6  1  0  0  0  0
 17  7  1  0  0  0  0
 18  8  1  0  0  0  0
M TOR 0 0 1 2 3
M TOR 1 0 1 8 7
M TOR 2 0 1 8 18
M TOR 3 0 8 1 2
M TOR 4 0 8 1 11
M TOR 5 0 8 7 6
M TOR 6 0 8 7 17
M TOR 7 1 2 3 4
M TOR 8 1 2 3 12
M TOR 9 1 2 3 13
M TOR 10 1 8 0 9
M TOR 11 1 8 0 10
M TOR 12 1 8 7 6
M TOR 13 1 8 7 17
M TOR 14 2 1 0 9
M TOR 15 2 1 0 10
M TOR 16 2 1 8 7
M TOR 17 2 1 8 18
M TOR 18 2 3 4 5
M TOR 19 3 2 1 8
M TOR 20 3 2 1 11
M TOR 21 3 4 5 6
M TOR 22 3 4 5 14
M TOR 23 3 4 5 15
M TOR 24 4 5 6 7
M TOR 25 4 5 6 16
M TOR 26 5 4 3 12
M TOR 27 5 4 3 13
M TOR 28 5 6 7 8
M TOR 29 5 6 7 17
M TOR 30 6 7 8 18
M TOR 31 7 6 5 14
M TOR 32 7 6 5 15
M TOR 33 7 8 0 9
M TOR 34 7 8 0 10
M TOR 35 7 8 1 11
M TOR 36 8 7 6 16
M  END
$$$$
