
     RDKit          3D

 19 20  0  0  0  0  0  0  0  0999 V2000
   -0.9748    2.0302   -1.1932 C   0  0  0  0  0  0  0  0  0  0  0  0
   -1.0665    1.1195    0.0282 C   0  0  0  0  0  0  0  0  0  0  0  0
   -2.2283    0.1005    0.0594 C   0  0  0  0  0  0  0  0  0  0  0  0
   -2.0882   -0.7775    1.2517 C   0  0  0  0  0  0  0  0  0  0  0  0
   -1.2376   -1.1058    0.0341 C   0  0  0  0  0  0  0  0  0  0  0  0
   -1.1843   -2.4379   -0.6681 C   0  0  0  0  0  0  0  0  0  0  0  0
   -0.1069   -3.2169   -0.1752 O   0  0  0  0  0  0  0  0  0  0  0  0
   -0.1310   -0.1140   -0.0827 C   0  0  0  0  0  0  0  0  0  0  0  0
    1.0184   -0.2450   -0.4223 O   0  0  0  0  0  0  0  0  0  0  0  0
   -1.0974    1.4629   -2.1218 H   0  0  0  0  0  0  0  0  0  0  0  0
   -1.7476    2.8043   -1.1626 H   0  0  0  0  0  0  0  0  0  0  0  0
    0.0022    2.5198   -1.2281 H   0  0  0  0  0  0  0  0  0  0  0  0
   -0.9674    1.7027    0.9509 H   0  0  0  0  0  0  0  0  0  0  0  0
   -3.1421    0.1898   -0.5143 H   0  0  0  0  0  0  0  0  0  0  0  0
   -1.6321   -0.3969    2.1621 H   0  0  0  0  0  0  0  0  0  0  0  0
   -2.8815   -1.4992    1.4226 H   0  0  0  0  0  0  0  0  0  0  0  0
   -2.0996   -3.0136   -0.4954 H   0  0  0  0  0  0  0  0  0  0  0  0
   -1.0931   -2.2790   -1.7544 H   0  0  0  0  0  0  0  0  0  0  0  0
    0.6928   -2.6929   -0.3121 H   0  0  0  0  0  0  0  0  0  0  0  0
  1  2  1  0
  2  3  1  0
  3  4  1  0
  4  5  1  0
  5  6  1  0
  6  7  1  0
  5  8  1  0
  8  9  2  0
  8  2  1  0
  5  3  1  0
  1 10  1  0
  1 11  1  0
  1 12  1  0
  2 13  1  0
  3 14  1  0
  4 15  1  0
  4 16  1  0
  6 17  1  0
  6 18  1  0
  7 19  1  0
M  END
$$$$
