gdb 3564	2.4647403	1.5372307	1.1609558	4.2335	75.42	-0.26067	0.01514	0.27581	1117.7268	0.156875	-422.594664	-422.58629	-422.585346	-422.627553	32.072
 OpenBabel02181911413D

 19 20  0  0  1  0  0  0  0  0999 V2000
   -3.2405   -0.6506   -0.6498 C   0  0  0  0  0  0  0  0  0  0  0  0
   -2.2216   -0.7272    0.4942 C   0  0  1  0  0  0  0  0  0  0  0  0
   -0.8569   -1.2538    0.0181 C   0  0  0  0  0  0  0  0  0  0  0  0
   -0.0847    0.0102   -0.3473 C   0  0  0  0  0  0  0  0  0  0  0  0
    0.9005    0.1225   -1.0151 O   0  0  0  0  0  0  0  0  0  0  0  0
   -0.7020    1.0823    0.2289 O   0  0  0  0  0  0  0  0  0  0  0  0
   -1.8145    0.6511    1.0108 C   0  0  0  0  0  0  0  0  0  0  0  0
   -2.7376    1.7223    1.4797 C   0  0  0  0  0  0  0  0  0  0  0  0
   -1.7935    1.0423    2.4595 C   0  0  0  0  0  0  0  0  0  0  0  0
   -4.1834   -0.2108   -0.3126 H   0  0  0  0  0  0  0  0  0  0  0  0
   -2.8620   -0.0369   -1.4743 H   0  0  0  0  0  0  0  0  0  0  0  0
   -3.4546   -1.6491   -1.0435 H   0  0  0  0  0  0  0  0  0  0  0  0
   -2.6284   -1.3326    1.3086 H   0  0  0  0  0  0  0  0  0  0  0  0
   -0.3082   -1.7580    0.8215 H   0  0  0  0  0  0  0  0  0  0  0  0
   -0.8997   -1.9341   -0.8339 H   0  0  0  0  0  0  0  0  0  0  0  0
   -2.5038    2.7387    1.1848 H   0  0  0  0  0  0  0  0  0  0  0  0
   -3.7973    1.4979    1.5394 H   0  0  0  0  0  0  0  0  0  0  0  0
   -0.9390    1.6140    2.8028 H   0  0  0  0  0  0  0  0  0  0  0  0
   -2.2098    0.3537    3.1874 H   0  0  0  0  0  0  0  0  0  0  0  0
  1 10  1  0  0  0  0
  1  2  1  0  0  0  0
  2  7  1  0  0  0  0
  2 13  1  1  0  0  0
  3  2  1  0  0  0  0
  3 14  1  0  0  0  0
  4  3  1  0  0  0  0
  4  6  1  0  0  0  0
  5  4  2  0  0  0  0
  6  7  1  0  0  0  0
  7  8  1  0  0  0  0
  7  9  1  0  0  0  0
  8 17  1  0  0  0  0
  8  9  1  0  0  0  0
  9 18  1  0  0  0  0
  9 19  1  0  0  0  0
 11  1  1  0  0  0  0
 12  1  1  0  0  0  0
 15  3  1  0  0  0  0
 16  8  1  0  0  0  0
M TOR 0 0 1 2 3
M TOR 1 0 1 2 13
M TOR 2 0 1 2 14
M TOR 3 0 1 6 5
M TOR 4 0 1 6 7
M TOR 5 0 1 6 8
M TOR 6 1 2 3 4
M TOR 7 1 2 3 5
M TOR 8 1 6 5 3
M TOR 9 1 6 7 8
M TOR 10 1 6 7 15
M TOR 11 1 6 7 16
M TOR 12 1 6 8 17
M TOR 13 1 6 8 18
M TOR 14 2 1 0 9
M TOR 15 2 1 0 10
M TOR 16 2 1 0 11
M TOR 17 2 1 6 5
M TOR 18 2 1 6 7
M TOR 19 2 1 6 8
M TOR 20 2 3 5 6
M TOR 21 3 2 1 6
M TOR 22 3 2 1 12
M TOR 23 3 5 6 7
M TOR 24 3 5 6 8
M TOR 25 4 3 2 13
M TOR 26 4 3 2 14
M TOR 27 4 3 5 6
M TOR 28 5 3 2 13
M TOR 29 5 3 2 14
M TOR 30 5 6 1 12
M TOR 31 5 6 7 8
M TOR 32 5 6 7 15
M TOR 33 5 6 7 16
M TOR 34 5 6 8 17
M TOR 35 5 6 8 18
M TOR 36 6 1 0 9
M TOR 37 6 1 0 10
M TOR 38 6 1 0 11
M TOR 39 6 1 2 13
M TOR 40 6 1 2 14
M TOR 41 6 7 8 17
M TOR 42 6 7 8 18
M TOR 43 6 8 7 15
M TOR 44 6 8 7 16
M TOR 45 7 6 1 12
M TOR 46 8 6 1 12
M  END
$$$$
