gdb 4626	3.3722633	0.6950264	0.6458846	2.619	82.6	-0.2415	0.02721	0.26871	1817.7835	0.154675	-422.503272	-422.492988	-422.492044	-422.540547	35.187
 OpenBabel02181911413D

 19 19  0  0  1  0  0  0  0  0999 V2000
    1.0671   -4.1847   -3.9833 C   0  0  0  0  0  0  0  0  0  0  0  0
    1.1838   -2.8229   -4.6919 C   0  0  0  0  0  0  0  0  0  0  0  0
    0.8452   -1.6939   -3.8329 C   0  0  0  0  0  0  0  0  0  0  0  0
    0.5557   -0.7735   -3.1108 C   0  0  0  0  0  0  0  0  0  0  0  0
    0.2221    0.3354   -2.2414 C   0  0  1  0  0  0  0  0  0  0  0  0
   -1.2062    0.5857   -2.1104 O   0  0  0  0  0  0  0  0  0  0  0  0
   -1.1011    0.6973   -0.6762 C   0  0  0  0  0  0  0  0  0  0  0  0
    0.3474    0.1595   -0.7063 C   0  0  2  0  0  0  0  0  0  0  0  0
    1.3685    0.9376   -0.1420 O   0  0  0  0  0  0  0  0  0  0  0  0
    0.0469   -4.3503   -3.6269 H   0  0  0  0  0  0  0  0  0  0  0  0
    1.3292   -4.9953   -4.6697 H   0  0  0  0  0  0  0  0  0  0  0  0
    1.7380   -4.2328   -3.1212 H   0  0  0  0  0  0  0  0  0  0  0  0
    2.2044   -2.6922   -5.0741 H   0  0  0  0  0  0  0  0  0  0  0  0
    0.5301   -2.8097   -5.5735 H   0  0  0  0  0  0  0  0  0  0  0  0
    0.7468    1.2491   -2.5553 H   0  0  0  0  0  0  0  0  0  0  0  0
   -1.1518    1.7392   -0.3326 H   0  0  0  0  0  0  0  0  0  0  0  0
   -1.8600    0.0973   -0.1622 H   0  0  0  0  0  0  0  0  0  0  0  0
    0.4211   -0.8945   -0.4174 H   0  0  0  0  0  0  0  0  0  0  0  0
    1.5129    0.6510    0.7643 H   0  0  0  0  0  0  0  0  0  0  0  0
  1 10  1  0  0  0  0
  1 12  1  0  0  0  0
  2  1  1  0  0  0  0
  2  3  1  0  0  0  0
  3  4  3  0  0  0  0
  4  5  1  0  0  0  0
  5 15  1  6  0  0  0
  5  6  1  0  0  0  0
  5  8  1  0  0  0  0
  6  7  1  0  0  0  0
  7 16  1  0  0  0  0
  7 17  1  0  0  0  0
  8  7  1  0  0  0  0
  8 18  1  1  0  0  0
  8  9  1  0  0  0  0
  9 19  1  0  0  0  0
 11  1  1  0  0  0  0
 13  2  1  0  0  0  0
 14  2  1  0  0  0  0
M TOR 0 0 1 2 3
M TOR 1 1 2 3 4
M TOR 2 2 1 0 9
M TOR 3 2 1 0 10
M TOR 4 2 1 0 11
M TOR 5 2 3 4 5
M TOR 6 2 3 4 7
M TOR 7 2 3 4 14
M TOR 8 3 2 1 12
M TOR 9 3 2 1 13
M TOR 10 3 4 5 6
M TOR 11 3 4 7 6
M TOR 12 3 4 7 8
M TOR 13 3 4 7 17
M TOR 14 4 5 6 7
M TOR 15 4 5 6 15
M TOR 16 4 5 6 16
M TOR 17 4 7 6 15
M TOR 18 4 7 6 16
M TOR 19 4 7 8 18
M TOR 20 5 4 7 8
M TOR 21 5 4 7 17
M TOR 22 5 6 7 8
M TOR 23 5 6 7 17
M TOR 24 6 5 4 14
M TOR 25 6 7 4 14
M TOR 26 6 7 8 18
M TOR 27 8 7 4 14
M TOR 28 8 7 6 15
M TOR 29 8 7 6 16
M  END
$$$$
