
     RDKit          3D

 19 21  0  0  0  0  0  0  0  0999 V2000
    2.6815   -0.5044   -1.5145 C   0  0  0  0  0  0  0  0  0  0  0  0
    1.8594   -0.0151   -0.3229 C   0  0  0  0  0  0  0  0  0  0  0  0
    2.3526   -0.5795    1.0629 C   0  0  0  0  0  0  0  0  0  0  0  0
    3.0600    0.7750    1.3832 C   0  0  0  0  0  0  0  0  0  0  0  0
    2.3744    1.6291    2.3334 O   0  0  0  0  0  0  0  0  0  0  0  0
    1.5618    2.1749    1.2779 C   0  0  0  0  0  0  0  0  0  0  0  0
    2.1527    3.3796    0.5055 C   0  0  0  0  0  0  0  0  0  0  0  0
    2.6436    2.5081   -0.5588 O   0  0  0  0  0  0  0  0  0  0  0  0
    2.2700    1.3612    0.1833 C   0  0  0  0  0  0  0  0  0  0  0  0
    2.4825   -1.5631   -1.7104 H   0  0  0  0  0  0  0  0  0  0  0  0
    2.4390    0.0638   -2.4176 H   0  0  0  0  0  0  0  0  0  0  0  0
    3.7559   -0.3925   -1.3315 H   0  0  0  0  0  0  0  0  0  0  0  0
    0.7911   -0.1340   -0.5313 H   0  0  0  0  0  0  0  0  0  0  0  0
    1.5558   -0.8075    1.7730 H   0  0  0  0  0  0  0  0  0  0  0  0
    3.0223   -1.4388    0.9831 H   0  0  0  0  0  0  0  0  0  0  0  0
    4.1426    0.7714    1.5189 H   0  0  0  0  0  0  0  0  0  0  0  0
    0.4943    2.1827    1.5080 H   0  0  0  0  0  0  0  0  0  0  0  0
    1.4298    4.1037    0.1149 H   0  0  0  0  0  0  0  0  0  0  0  0
    2.9629    3.8952    1.0310 H   0  0  0  0  0  0  0  0  0  0  0  0
  1  2  1  0
  2  3  1  0
  3  4  1  0
  4  5  1  0
  5  6  1  0
  6  7  1  0
  7  8  1  0
  8  9  1  0
  9  2  1  0
  9  4  1  0
  9  6  1  0
  1 10  1  0
  1 11  1  0
  1 12  1  0
  2 13  1  0
  3 14  1  0
  3 15  1  0
  4 16  1  0
  6 17  1  0
  7 18  1  0
  7 19  1  0
M  END
$$$$
