
     RDKit          3D

 19 20  0  0  0  0  0  0  0  0999 V2000
    0.4515   -1.0911   -0.1519 O   0  0  0  0  0  0  0  0  0  0  0  0
    0.4251    0.1135   -0.1301 C   0  0  0  0  0  0  0  0  0  0  0  0
   -0.2305    0.9728   -1.1899 C   0  0  0  0  0  0  0  0  0  0  0  0
   -1.1474    2.0531   -0.5845 C   0  0  0  0  0  0  0  0  0  0  0  0
   -0.4229    2.9322    0.2844 O   0  0  0  0  0  0  0  0  0  0  0  0
    0.0215    4.0703   -0.4585 C   0  0  0  0  0  0  0  0  0  0  0  0
   -0.9978    4.2602   -1.5640 C   0  0  0  0  0  0  0  0  0  0  0  0
   -2.4428    4.1958   -1.1431 C   0  0  0  0  0  0  0  0  0  0  0  0
   -1.7545    2.9539   -1.6475 C   0  0  0  0  0  0  0  0  0  0  0  0
    0.8953    0.6875    0.6969 H   0  0  0  0  0  0  0  0  0  0  0  0
    0.5649    1.4703   -1.7627 H   0  0  0  0  0  0  0  0  0  0  0  0
   -0.7844    0.3231   -1.8744 H   0  0  0  0  0  0  0  0  0  0  0  0
   -1.9086    1.5735    0.0432 H   0  0  0  0  0  0  0  0  0  0  0  0
    0.0840    4.9051    0.2476 H   0  0  0  0  0  0  0  0  0  0  0  0
    1.0240    3.9070   -0.8839 H   0  0  0  0  0  0  0  0  0  0  0  0
   -0.7132    4.8142   -2.4503 H   0  0  0  0  0  0  0  0  0  0  0  0
   -2.6728    4.2604   -0.0838 H   0  0  0  0  0  0  0  0  0  0  0  0
   -3.1741    4.6576   -1.7966 H   0  0  0  0  0  0  0  0  0  0  0  0
   -2.0467    2.5180   -2.5953 H   0  0  0  0  0  0  0  0  0  0  0  0
  1  2  2  0
  2  3  1  0
  3  4  1  0
  4  5  1  0
  5  6  1  0
  6  7  1  0
  7  8  1  0
  8  9  1  0
  9  4  1  0
  9  7  1  0
  2 10  1  0
  3 11  1  0
  3 12  1  0
  4 13  1  0
  6 14  1  0
  6 15  1  0
  7 16  1  0
  8 17  1  0
  8 18  1  0
  9 19  1  0
M  END
$$$$
