
     RDKit          3D

 19 21  0  0  0  0  0  0  0  0999 V2000
    1.8408    0.5594   -0.0444 O   0  0  0  0  0  0  0  0  0  0  0  0
    0.6208    0.0773    0.5077 C   0  0  0  0  0  0  0  0  0  0  0  0
   -0.3955    1.1601    0.6995 C   0  0  0  0  0  0  0  0  0  0  0  0
   -0.5213    1.9585    1.9773 C   0  0  0  0  0  0  0  0  0  0  0  0
   -1.6854    1.1282    1.5044 C   0  0  0  0  0  0  0  0  0  0  0  0
   -2.4448    1.7269    0.2785 C   0  0  0  0  0  0  0  0  0  0  0  0
   -3.6526    1.1983   -0.1360 O   0  0  0  0  0  0  0  0  0  0  0  0
   -1.9227    3.0576   -0.1846 C   0  0  0  0  0  0  0  0  0  0  0  0
   -1.1608    1.7835   -0.5070 C   0  0  0  0  0  0  0  0  0  0  0  0
    2.1377    1.2844    0.5157 H   0  0  0  0  0  0  0  0  0  0  0  0
    0.2568   -0.6693   -0.2074 H   0  0  0  0  0  0  0  0  0  0  0  0
    0.7873   -0.4418    1.4661 H   0  0  0  0  0  0  0  0  0  0  0  0
    0.0106    1.5295    2.8233 H   0  0  0  0  0  0  0  0  0  0  0  0
   -0.5487    3.0422    1.9960 H   0  0  0  0  0  0  0  0  0  0  0  0
   -2.0887    0.3001    2.0743 H   0  0  0  0  0  0  0  0  0  0  0  0
   -4.3595    1.6633    0.3268 H   0  0  0  0  0  0  0  0  0  0  0  0
   -2.4690    3.4387   -1.0427 H   0  0  0  0  0  0  0  0  0  0  0  0
   -1.5456    3.8341    0.4729 H   0  0  0  0  0  0  0  0  0  0  0  0
   -0.9646    1.4838   -1.5280 H   0  0  0  0  0  0  0  0  0  0  0  0
  1  2  1  0
  2  3  1  0
  3  4  1  0
  4  5  1  0
  5  6  1  0
  6  7  1  0
  6  8  1  0
  8  9  1  0
  5  3  1  0
  9  6  1  0
  9  3  1  0
  1 10  1  0
  2 11  1  0
  2 12  1  0
  4 13  1  0
  4 14  1  0
  5 15  1  0
  7 16  1  0
  8 17  1  0
  8 18  1  0
  9 19  1  0
M  END
$$$$
