gdb 5482	3.3022171	1.2657133	1.1254293	1.0497	75.07	-0.19437	0.07129	0.26566	1155.1677	0.155186	-422.459573	-422.450948	-422.450003	-422.492499	33.224
 OpenBabel02181911423D

 19 21  0  0  1  0  0  0  0  0999 V2000
    1.4239   -0.0984    0.0958 C   0  0  0  0  0  0  0  0  0  0  0  0
    0.0101    0.0291    0.0947 O   0  0  0  0  0  0  0  0  0  0  0  0
   -0.4614    0.7012    1.2373 C   0  0  2  0  0  0  0  0  0  0  0  0
   -1.9028    1.1260    1.0675 C   0  0  1  0  0  0  0  0  0  0  0  0
   -2.4459    1.9539    2.2667 C   0  0  1  0  0  0  0  0  0  0  0  0
   -1.4602    2.1927    3.3835 C   0  0  0  0  0  0  0  0  0  0  0  0
   -1.3303    2.9732    2.1015 C   0  0  1  0  0  0  0  0  0  0  0  0
   -0.7711    2.1448    0.9271 C   0  0  1  0  0  0  0  0  0  0  0  0
   -0.2387    2.7971   -0.1647 O   0  0  0  0  0  0  0  0  0  0  0  0
    1.7679   -0.6933    0.9542 H   0  0  0  0  0  0  0  0  0  0  0  0
    1.6983   -0.6164   -0.8261 H   0  0  0  0  0  0  0  0  0  0  0  0
    1.9225    0.8798    0.1271 H   0  0  0  0  0  0  0  0  0  0  0  0
   -0.0411    0.3080    2.1644 H   0  0  0  0  0  0  0  0  0  0  0  0
   -2.5333    0.6441    0.3309 H   0  0  0  0  0  0  0  0  0  0  0  0
   -3.5038    2.1460    2.3899 H   0  0  0  0  0  0  0  0  0  0  0  0
   -1.8626    2.7696    4.2116 H   0  0  0  0  0  0  0  0  0  0  0  0
   -0.7323    1.4533    3.6965 H   0  0  0  0  0  0  0  0  0  0  0  0
   -1.4015    4.0516    2.0517 H   0  0  0  0  0  0  0  0  0  0  0  0
   -0.0592    2.1113   -0.8216 H   0  0  0  0  0  0  0  0  0  0  0  0
  1 12  1  0  0  0  0
  1 10  1  0  0  0  0
  2  1  1  0  0  0  0
  2  3  1  0  0  0  0
  3 13  1  1  0  0  0
  4 14  1  6  0  0  0
  4  3  1  0  0  0  0
  4  5  1  0  0  0  0
  5 15  1  1  0  0  0
  5  6  1  0  0  0  0
  6 17  1  0  0  0  0
  6 16  1  0  0  0  0
  7 18  1  6  0  0  0
  7  5  1  0  0  0  0
  7  6  1  0  0  0  0
  8  9  1  6  0  0  0
  8  4  1  0  0  0  0
  8  3  1  0  0  0  0
  8  7  1  0  0  0  0
 11  1  1  0  0  0  0
 19  9  1  0  0  0  0
M TOR 0 0 1 2 3
M TOR 1 0 1 2 7
M TOR 2 0 1 2 12
M TOR 3 1 2 3 4
M TOR 4 1 2 3 7
M TOR 5 1 2 3 13
M TOR 6 1 2 7 6
M TOR 7 1 2 7 8
M TOR 8 2 1 0 9
M TOR 9 2 1 0 10
M TOR 10 2 1 0 11
M TOR 11 2 3 4 5
M TOR 12 2 3 4 6
M TOR 13 2 3 4 14
M TOR 14 2 3 7 6
M TOR 15 2 3 7 8
M TOR 16 2 7 3 4
M TOR 17 2 7 3 13
M TOR 18 2 7 6 4
M TOR 19 2 7 6 5
M TOR 20 2 7 6 17
M TOR 21 2 7 8 18
M TOR 22 3 4 5 6
M TOR 23 3 4 5 15
M TOR 24 3 4 5 16
M TOR 25 3 4 6 7
M TOR 26 3 4 6 17
M TOR 27 3 7 2 12
M TOR 28 3 7 6 5
M TOR 29 3 7 6 17
M TOR 30 3 7 8 18
M TOR 31 4 3 2 12
M TOR 32 4 3 7 8
M TOR 33 4 5 6 7
M TOR 34 4 5 6 17
M TOR 35 4 6 5 15
M TOR 36 4 6 5 16
M TOR 37 4 6 7 8
M TOR 38 5 4 3 7
M TOR 39 5 4 3 13
M TOR 40 5 6 4 14
M TOR 41 5 6 7 8
M TOR 42 6 4 3 13
M TOR 43 6 7 2 12
M TOR 44 6 7 3 13
M TOR 45 6 7 8 18
M TOR 46 7 3 4 14
M TOR 47 7 6 4 14
M TOR 48 7 6 5 15
M TOR 49 7 6 5 16
M TOR 50 8 7 2 12
M TOR 51 8 7 3 13
M TOR 52 8 7 6 17
M  END
$$$$
