gdb 3461	2.4928854	1.7149488	1.2454118	2.3012	75.64	-0.24572	-0.00729	0.23843	1063.0497	0.155387	-422.561687	-422.55275	-422.551806	-422.594594	34.217
 OpenBabel02181911413D

 19 20  0  0  1  0  0  0  0  0999 V2000
   -3.2017    0.9334    3.4574 C   0  0  0  0  0  0  0  0  0  0  0  0
   -2.2885    0.9033    2.2662 C   0  0  1  0  0  0  0  0  0  0  0  0
   -1.0171    1.6183    2.4063 O   0  0  0  0  0  0  0  0  0  0  0  0
   -1.0009    0.1979    2.1574 C   0  0  1  0  0  0  0  0  0  0  0  0
   -0.3358   -0.6682    3.1871 C   0  0  0  0  0  0  0  0  0  0  0  0
   -0.7352   -0.0630    0.6610 C   0  0  2  0  0  0  0  0  0  0  0  0
    0.4578    0.5666    0.2219 O   0  0  0  0  0  0  0  0  0  0  0  0
   -1.9810    0.4921   -0.0121 C   0  0  0  0  0  0  0  0  0  0  0  0
   -2.8286    1.0245    0.8677 C   0  0  0  0  0  0  0  0  0  0  0  0
   -3.9613    0.1483    3.3793 H   0  0  0  0  0  0  0  0  0  0  0  0
   -2.6454    0.7930    4.3863 H   0  0  0  0  0  0  0  0  0  0  0  0
   -3.7212    1.8962    3.5163 H   0  0  0  0  0  0  0  0  0  0  0  0
   -0.6476   -1.7122    3.0764 H   0  0  0  0  0  0  0  0  0  0  0  0
    0.7510   -0.6266    3.0552 H   0  0  0  0  0  0  0  0  0  0  0  0
   -0.5702   -0.3361    4.2008 H   0  0  0  0  0  0  0  0  0  0  0  0
   -0.5989   -1.1321    0.4602 H   0  0  0  0  0  0  0  0  0  0  0  0
    0.3963    1.4743    0.5504 H   0  0  0  0  0  0  0  0  0  0  0  0
   -2.0838    0.5028   -1.0911 H   0  0  0  0  0  0  0  0  0  0  0  0
   -3.7696    1.5136    0.6424 H   0  0  0  0  0  0  0  0  0  0  0  0
  1 12  1  0  0  0  0
  1 11  1  0  0  0  0
  2  3  1  0  0  0  0
  2  1  1  1  0  0  0
  4  2  1  0  0  0  0
  4  3  1  0  0  0  0
  4  5  1  1  0  0  0
  5 15  1  0  0  0  0
  6 16  1  6  0  0  0
  6  4  1  0  0  0  0
  7 17  1  0  0  0  0
  7  6  1  0  0  0  0
  8  6  1  0  0  0  0
  8  9  2  0  0  0  0
  9  2  1  0  0  0  0
 10  1  1  0  0  0  0
 13  5  1  0  0  0  0
 14  5  1  0  0  0  0
 18  8  1  0  0  0  0
 19  9  1  0  0  0  0
M TOR 0 0 1 2 3
M TOR 1 0 1 3 4
M TOR 2 0 1 3 5
M TOR 3 0 1 8 7
M TOR 4 0 1 8 18
M TOR 5 1 2 3 4
M TOR 6 1 2 3 5
M TOR 7 1 3 4 12
M TOR 8 1 3 4 13
M TOR 9 1 3 4 14
M TOR 10 1 3 5 6
M TOR 11 1 3 5 7
M TOR 12 1 3 5 15
M TOR 13 1 8 7 5
M TOR 14 1 8 7 17
M TOR 15 2 1 0 9
M TOR 16 2 1 0 10
M TOR 17 2 1 0 11
M TOR 18 2 1 8 7
M TOR 19 2 1 8 18
M TOR 20 2 3 1 8
M TOR 21 2 3 4 12
M TOR 22 2 3 4 13
M TOR 23 2 3 4 14
M TOR 24 2 3 5 6
M TOR 25 2 3 5 7
M TOR 26 2 3 5 15
M TOR 27 3 1 0 9
M TOR 28 3 1 0 10
M TOR 29 3 1 0 11
M TOR 30 3 1 8 7
M TOR 31 3 1 8 18
M TOR 32 3 5 6 16
M TOR 33 3 5 7 8
M TOR 34 3 5 7 17
M TOR 35 4 3 1 8
M TOR 36 4 3 5 6
M TOR 37 4 3 5 7
M TOR 38 4 3 5 15
M TOR 39 5 3 1 8
M TOR 40 5 3 4 12
M TOR 41 5 3 4 13
M TOR 42 5 3 4 14
M TOR 43 5 7 8 18
M TOR 44 6 5 7 8
M TOR 45 6 5 7 17
M TOR 46 7 5 6 16
M TOR 47 8 1 0 9
M TOR 48 8 1 0 10
M TOR 49 8 1 0 11
M TOR 50 8 7 5 15
M  END
$$$$
