
     RDKit          3D

 19 21  0  0  0  0  0  0  0  0999 V2000
    2.8923    1.9311    2.0148 O   0  0  0  0  0  0  0  0  0  0  0  0
    1.7260    1.2045    2.2784 C   0  0  0  0  0  0  0  0  0  0  0  0
    0.4710    1.9260    2.7753 C   0  0  0  0  0  0  0  0  0  0  0  0
   -0.6810    1.1431    2.0792 C   0  0  0  0  0  0  0  0  0  0  0  0
   -0.0300   -0.1899    1.6593 C   0  0  0  0  0  0  0  0  0  0  0  0
    0.5739   -0.9349    2.8994 C   0  0  0  0  0  0  0  0  0  0  0  0
    1.9247   -0.2894    2.6004 C   0  0  0  0  0  0  0  0  0  0  0  0
    1.4107    0.1846    1.2383 C   0  0  0  0  0  0  0  0  0  0  0  0
    1.9291    0.1585   -0.0339 O   0  0  0  0  0  0  0  0  0  0  0  0
    3.4198    1.9833    2.8184 H   0  0  0  0  0  0  0  0  0  0  0  0
    0.3813    1.9088    3.8672 H   0  0  0  0  0  0  0  0  0  0  0  0
    0.5025    2.9749    2.4674 H   0  0  0  0  0  0  0  0  0  0  0  0
   -1.5481    0.9954    2.7302 H   0  0  0  0  0  0  0  0  0  0  0  0
   -1.0223    1.6841    1.1900 H   0  0  0  0  0  0  0  0  0  0  0  0
   -0.6212   -0.7987    0.9763 H   0  0  0  0  0  0  0  0  0  0  0  0
    0.1030   -0.7246    3.8669 H   0  0  0  0  0  0  0  0  0  0  0  0
    0.6073   -2.0170    2.7491 H   0  0  0  0  0  0  0  0  0  0  0  0
    2.9051   -0.6501    2.8948 H   0  0  0  0  0  0  0  0  0  0  0  0
    2.6291    0.8249   -0.0587 H   0  0  0  0  0  0  0  0  0  0  0  0
  1  2  1  0
  2  3  1  0
  3  4  1  0
  4  5  1  0
  5  6  1  0
  6  7  1  0
  7  8  1  0
  8  9  1  0
  7  2  1  0
  8  2  1  0
  8  5  1  0
  1 10  1  0
  3 11  1  0
  3 12  1  0
  4 13  1  0
  4 14  1  0
  5 15  1  0
  6 16  1  0
  6 17  1  0
  7 18  1  0
  9 19  1  0
M  END
$$$$
