gdb 3451	2.5623824	1.4755683	1.1894246	2.3016	76.74	-0.24482	-0.02699	0.21783000000000002	1124.9069	0.154814	-422.596616	-422.587156	-422.586211	-422.630644	35.089
 OpenBabel02181911413D

 19 19  0  0  1  0  0  0  0  0999 V2000
   -0.6268    2.2047   -1.0906 C   0  0  0  0  0  0  0  0  0  0  0  0
   -0.9762    1.1361   -0.0477 C   0  0  1  0  0  0  0  0  0  0  0  0
   -2.3640    0.5394   -0.1399 C   0  0  0  0  0  0  0  0  0  0  0  0
   -2.3716   -0.7943   -0.1126 C   0  0  0  0  0  0  0  0  0  0  0  0
   -0.9912   -1.3771    0.0615 C   0  0  1  0  0  0  0  0  0  0  0  0
   -0.7510   -1.9480    1.4710 C   0  0  0  0  0  0  0  0  0  0  0  0
   -0.7056   -2.3595   -0.9207 O   0  0  0  0  0  0  0  0  0  0  0  0
   -0.1148   -0.1263   -0.1740 C   0  0  0  0  0  0  0  0  0  0  0  0
    1.0426   -0.1859   -0.5049 O   0  0  0  0  0  0  0  0  0  0  0  0
   -0.8234    1.8395   -2.1030 H   0  0  0  0  0  0  0  0  0  0  0  0
   -1.2183    3.1112   -0.9328 H   0  0  0  0  0  0  0  0  0  0  0  0
    0.4330    2.4629   -1.0228 H   0  0  0  0  0  0  0  0  0  0  0  0
   -0.8034    1.5598    0.9545 H   0  0  0  0  0  0  0  0  0  0  0  0
   -3.2472    1.1636   -0.2243 H   0  0  0  0  0  0  0  0  0  0  0  0
   -3.2507   -1.4254   -0.1722 H   0  0  0  0  0  0  0  0  0  0  0  0
   -1.3881   -2.8243    1.6203 H   0  0  0  0  0  0  0  0  0  0  0  0
    0.2947   -2.2568    1.5705 H   0  0  0  0  0  0  0  0  0  0  0  0
   -0.9756   -1.2150    2.2524 H   0  0  0  0  0  0  0  0  0  0  0  0
    0.2451   -2.2986   -1.0884 H   0  0  0  0  0  0  0  0  0  0  0  0
  1 12  1  0  0  0  0
  1 11  1  0  0  0  0
  1  2  1  0  0  0  0
  2 13  1  1  0  0  0
  3  4  2  0  0  0  0
  3  2  1  0  0  0  0
  4  5  1  0  0  0  0
  5  7  1  6  0  0  0
  5  6  1  0  0  0  0
  6 17  1  0  0  0  0
  6 16  1  0  0  0  0
  6 18  1  0  0  0  0
  8  2  1  0  0  0  0
  8  5  1  0  0  0  0
  9  8  2  0  0  0  0
 10  1  1  0  0  0  0
 14  3  1  0  0  0  0
 15  4  1  0  0  0  0
 19  7  1  0  0  0  0
M TOR 0 0 1 2 3
M TOR 1 0 1 2 13
M TOR 2 0 1 7 4
M TOR 3 0 1 7 8
M TOR 4 1 2 3 4
M TOR 5 1 2 3 14
M TOR 6 1 7 4 3
M TOR 7 1 7 4 5
M TOR 8 1 7 4 6
M TOR 9 2 1 0 9
M TOR 10 2 1 0 10
M TOR 11 2 1 0 11
M TOR 12 2 1 7 4
M TOR 13 2 1 7 8
M TOR 14 2 3 4 5
M TOR 15 2 3 4 6
M TOR 16 2 3 4 7
M TOR 17 3 2 1 7
M TOR 18 3 2 1 12
M TOR 19 3 4 5 15
M TOR 20 3 4 5 16
M TOR 21 3 4 5 17
M TOR 22 3 4 6 18
M TOR 23 3 4 7 8
M TOR 24 4 3 2 13
M TOR 25 4 7 1 12
M TOR 26 5 4 3 14
M TOR 27 5 4 6 18
M TOR 28 5 4 7 8
M TOR 29 6 4 3 14
M TOR 30 6 4 5 15
M TOR 31 6 4 5 16
M TOR 32 6 4 5 17
M TOR 33 6 4 7 8
M TOR 34 7 1 0 9
M TOR 35 7 1 0 10
M TOR 36 7 1 0 11
M TOR 37 7 1 2 13
M TOR 38 7 4 3 14
M TOR 39 7 4 5 15
M TOR 40 7 4 5 16
M TOR 41 7 4 5 17
M TOR 42 7 4 6 18
M TOR 43 8 7 1 12
M  END
$$$$
