
     RDKit          3D

 19 20  0  0  0  0  0  0  0  0999 V2000
    0.3456   -1.1682   -0.3430 O   0  0  0  0  0  0  0  0  0  0  0  0
    0.4581   -0.0064   -0.0485 C   0  0  0  0  0  0  0  0  0  0  0  0
   -0.2203    0.6623    1.1248 C   0  0  0  0  0  0  0  0  0  0  0  0
   -1.0702    1.8674    0.6775 C   0  0  0  0  0  0  0  0  0  0  0  0
   -1.7093    2.5943    1.8478 C   0  0  0  0  0  0  0  0  0  0  0  0
   -0.8554    3.5922    2.6875 C   0  0  0  0  0  0  0  0  0  0  0  0
   -2.1515    4.2870    3.1641 C   0  0  0  0  0  0  0  0  0  0  0  0
   -2.2292    4.0458    1.6394 C   0  0  0  0  0  0  0  0  0  0  0  0
   -0.8256    4.5154    1.5274 O   0  0  0  0  0  0  0  0  0  0  0  0
    1.0921    0.6799   -0.6588 H   0  0  0  0  0  0  0  0  0  0  0  0
   -0.8184   -0.0858    1.6538 H   0  0  0  0  0  0  0  0  0  0  0  0
    0.5690    1.0132    1.8056 H   0  0  0  0  0  0  0  0  0  0  0  0
   -0.4524    2.5794    0.1216 H   0  0  0  0  0  0  0  0  0  0  0  0
   -1.8577    1.5180   -0.0021 H   0  0  0  0  0  0  0  0  0  0  0  0
   -2.3687    1.9442    2.4333 H   0  0  0  0  0  0  0  0  0  0  0  0
    0.0812    3.4316    3.2232 H   0  0  0  0  0  0  0  0  0  0  0  0
   -2.8315    3.7302    3.8135 H   0  0  0  0  0  0  0  0  0  0  0  0
   -2.0299    5.3296    3.4577 H   0  0  0  0  0  0  0  0  0  0  0  0
   -2.9446    4.4265    0.9095 H   0  0  0  0  0  0  0  0  0  0  0  0
  1  2  2  0
  2  3  1  0
  3  4  1  0
  4  5  1  0
  5  6  1  0
  6  7  1  0
  7  8  1  0
  8  9  1  0
  8  5  1  0
  9  6  1  0
  2 10  1  0
  3 11  1  0
  3 12  1  0
  4 13  1  0
  4 14  1  0
  5 15  1  0
  6 16  1  0
  7 17  1  0
  7 18  1  0
  8 19  1  0
M  END
$$$$
