gdb 5652	2.6545204	1.3522038	1.0374733	3.3869	76.08	-0.23471	-0.00929	0.22542	1197.2349	0.156917	-422.564749	-422.556286	-422.555342	-422.598089	31.722
 OpenBabel02181911423D

 19 20  0  0  1  0  0  0  0  0999 V2000
    1.2997    0.0022   -0.2298 C   0  0  0  0  0  0  0  0  0  0  0  0
   -0.0503    0.3417   -0.0101 O   0  0  0  0  0  0  0  0  0  0  0  0
   -0.3237    0.8178    1.2970 C   0  0  1  0  0  0  0  0  0  0  0  0
    0.0606    2.3045    1.4644 C   0  0  0  0  0  0  0  0  0  0  0  0
   -1.2146    3.0963    1.1205 C   0  0  0  0  0  0  0  0  0  0  0  0
   -1.2469    4.2312    0.7165 O   0  0  0  0  0  0  0  0  0  0  0  0
   -2.3863    2.1905    1.3190 C   0  0  2  0  0  0  0  0  0  0  0  0
   -2.4131    1.4579    2.6564 C   0  0  0  0  0  0  0  0  0  0  0  0
   -1.8395    0.7789    1.4592 C   0  0  2  0  0  0  0  0  0  0  0  0
    1.6431   -0.7686    0.4780 H   0  0  0  0  0  0  0  0  0  0  0  0
    1.3700   -0.3935   -1.2457 H   0  0  0  0  0  0  0  0  0  0  0  0
    1.9734    0.8680   -0.1462 H   0  0  0  0  0  0  0  0  0  0  0  0
    0.1805    0.1731    2.0339 H   0  0  0  0  0  0  0  0  0  0  0  0
    0.3707    2.5409    2.4887 H   0  0  0  0  0  0  0  0  0  0  0  0
    0.8760    2.6068    0.8055 H   0  0  0  0  0  0  0  0  0  0  0  0
   -3.3195    2.4311    0.8273 H   0  0  0  0  0  0  0  0  0  0  0  0
   -1.7609    1.7954    3.4554 H   0  0  0  0  0  0  0  0  0  0  0  0
   -3.3915    1.1346    2.9926 H   0  0  0  0  0  0  0  0  0  0  0  0
   -2.3532   -0.0668    1.0190 H   0  0  0  0  0  0  0  0  0  0  0  0
  1 12  1  0  0  0  0
  1  2  1  0  0  0  0
  1 10  1  0  0  0  0
  2  3  1  0  0  0  0
  3  9  1  0  0  0  0
  3  4  1  0  0  0  0
  3 13  1  1  0  0  0
  4 14  1  0  0  0  0
  5  7  1  0  0  0  0
  5  4  1  0  0  0  0
  6  5  2  0  0  0  0
  7 16  1  6  0  0  0
  7  9  1  0  0  0  0
  7  8  1  0  0  0  0
  8 18  1  0  0  0  0
  8 17  1  0  0  0  0
  9 19  1  6  0  0  0
  9  8  1  0  0  0  0
 11  1  1  0  0  0  0
 15  4  1  0  0  0  0
M TOR 0 0 1 2 3
M TOR 1 0 1 2 8
M TOR 2 0 1 2 12
M TOR 3 1 2 3 4
M TOR 4 1 2 3 13
M TOR 5 1 2 3 14
M TOR 6 1 2 8 6
M TOR 7 1 2 8 7
M TOR 8 1 2 8 18
M TOR 9 2 1 0 9
M TOR 10 2 1 0 10
M TOR 11 2 1 0 11
M TOR 12 2 3 4 5
M TOR 13 2 3 4 6
M TOR 14 2 8 6 4
M TOR 15 2 8 6 7
M TOR 16 2 8 6 15
M TOR 17 2 8 7 16
M TOR 18 2 8 7 17
M TOR 19 3 2 8 6
M TOR 20 3 2 8 7
M TOR 21 3 2 8 18
M TOR 22 3 4 6 7
M TOR 23 3 4 6 8
M TOR 24 3 4 6 15
M TOR 25 4 3 2 8
M TOR 26 4 3 2 12
M TOR 27 4 6 7 8
M TOR 28 4 6 7 16
M TOR 29 4 6 7 17
M TOR 30 4 6 8 18
M TOR 31 5 4 3 13
M TOR 32 5 4 3 14
M TOR 33 5 4 6 7
M TOR 34 5 4 6 8
M TOR 35 5 4 6 15
M TOR 36 6 4 3 13
M TOR 37 6 4 3 14
M TOR 38 6 7 8 18
M TOR 39 6 8 2 12
M TOR 40 6 8 7 16
M TOR 41 6 8 7 17
M TOR 42 7 8 2 12
M TOR 43 7 8 6 15
M TOR 44 8 2 3 13
M TOR 45 8 2 3 14
M  END
$$$$
