gdb 3204	4.0720534	1.1397439	1.0348641	2.3649	73.98	-0.22531	0.07072	0.29603	1176.9066	0.156747	-422.531366	-422.522978	-422.522033	-422.563841	32.968
 OpenBabel02181911413D

 19 21  0  0  1  0  0  0  0  0999 V2000
    0.2939    0.0604    0.2558 O   0  0  0  0  0  0  0  0  0  0  0  0
   -0.7383    0.7499    0.9023 C   0  0  1  0  0  0  0  0  0  0  0  0
   -1.5312    0.0817    1.9919 C   0  0  2  0  0  0  0  0  0  0  0  0
   -2.9540    0.5302    2.3259 C   0  0  0  0  0  0  0  0  0  0  0  0
   -2.8635    1.9747    2.8481 C   0  0  2  0  0  0  0  0  0  0  0  0
   -3.7617    2.3651    3.8423 O   0  0  0  0  0  0  0  0  0  0  0  0
   -2.4242    3.0627    1.9240 C   0  0  0  0  0  0  0  0  0  0  0  0
   -1.4002    2.3931    2.8325 C   0  0  2  0  0  0  0  0  0  0  0  0
   -0.5720    1.2379    2.3177 C   0  0  2  0  0  0  0  0  0  0  0  0
    0.7593   -0.4771    0.9047 H   0  0  0  0  0  0  0  0  0  0  0  0
   -1.2440    1.3765    0.1761 H   0  0  0  0  0  0  0  0  0  0  0  0
   -1.2564   -0.9434    2.2241 H   0  0  0  0  0  0  0  0  0  0  0  0
   -3.6460    0.4381    1.4813 H   0  0  0  0  0  0  0  0  0  0  0  0
   -3.3557   -0.0967    3.1310 H   0  0  0  0  0  0  0  0  0  0  0  0
   -3.5952    1.8245    4.6231 H   0  0  0  0  0  0  0  0  0  0  0  0
   -2.4069    2.9057    0.8518 H   0  0  0  0  0  0  0  0  0  0  0  0
   -2.7255    4.0614    2.2208 H   0  0  0  0  0  0  0  0  0  0  0  0
   -0.9899    2.9959    3.6346 H   0  0  0  0  0  0  0  0  0  0  0  0
    0.3831    1.0520    2.7993 H   0  0  0  0  0  0  0  0  0  0  0  0
  1  2  1  0  0  0  0
  1 10  1  0  0  0  0
  2 11  1  6  0  0  0
  2  3  1  0  0  0  0
  2  9  1  0  0  0  0
  3 12  1  1  0  0  0
  3  9  1  0  0  0  0
  3  4  1  0  0  0  0
  4  5  1  0  0  0  0
  4 14  1  0  0  0  0
  5  6  1  1  0  0  0
  6 15  1  0  0  0  0
  7 17  1  0  0  0  0
  7  8  1  0  0  0  0
  7  5  1  0  0  0  0
  8  5  1  0  0  0  0
  8 18  1  1  0  0  0
  9 19  1  1  0  0  0
  9  8  1  0  0  0  0
 13  4  1  0  0  0  0
 16  7  1  0  0  0  0
M TOR 0 0 1 2 3
M TOR 1 0 1 2 8
M TOR 2 0 1 2 11
M TOR 3 0 1 8 7
M TOR 4 0 1 8 18
M TOR 5 1 2 3 4
M TOR 6 1 2 3 12
M TOR 7 1 2 3 13
M TOR 8 1 2 8 7
M TOR 9 1 2 8 18
M TOR 10 1 8 2 3
M TOR 11 1 8 2 11
M TOR 12 1 8 7 4
M TOR 13 1 8 7 6
M TOR 14 1 8 7 17
M TOR 15 2 1 0 9
M TOR 16 2 3 4 5
M TOR 17 2 3 4 6
M TOR 18 2 3 4 7
M TOR 19 2 8 1 10
M TOR 20 2 8 7 4
M TOR 21 2 8 7 6
M TOR 22 2 8 7 17
M TOR 23 3 2 1 10
M TOR 24 3 2 8 7
M TOR 25 3 2 8 18
M TOR 26 3 4 5 14
M TOR 27 3 4 6 7
M TOR 28 3 4 6 15
M TOR 29 3 4 6 16
M TOR 30 3 4 7 8
M TOR 31 3 4 7 17
M TOR 32 4 3 2 8
M TOR 33 4 3 2 11
M TOR 34 4 6 7 8
M TOR 35 4 6 7 17
M TOR 36 4 7 6 15
M TOR 37 4 7 6 16
M TOR 38 4 7 8 18
M TOR 39 5 4 3 12
M TOR 40 5 4 3 13
M TOR 41 5 4 6 7
M TOR 42 5 4 6 15
M TOR 43 5 4 6 16
M TOR 44 5 4 7 8
M TOR 45 5 4 7 17
M TOR 46 6 4 3 12
M TOR 47 6 4 3 13
M TOR 48 6 4 5 14
M TOR 49 6 7 8 18
M TOR 50 7 4 3 12
M TOR 51 7 4 3 13
M TOR 52 7 4 5 14
M TOR 53 7 8 1 10
M TOR 54 7 8 2 11
M TOR 55 8 1 0 9
M TOR 56 8 2 3 12
M TOR 57 8 2 3 13
M TOR 58 8 7 6 15
M TOR 59 8 7 6 16
M  END
$$$$
