
     RDKit          3D

 19 20  0  0  0  0  0  0  0  0999 V2000
   -3.1364   -1.4635    1.4180 O   0  0  0  0  0  0  0  0  0  0  0  0
   -2.0570   -0.6286    1.0728 C   0  0  0  0  0  0  0  0  0  0  0  0
   -2.3722    0.5610    0.1285 C   0  0  0  0  0  0  0  0  0  0  0  0
   -2.7183   -0.1637   -1.1945 C   0  0  0  0  0  0  0  0  0  0  0  0
   -1.7479   -1.3910   -1.1947 C   0  0  0  0  0  0  0  0  0  0  0  0
   -0.9710   -1.2444    0.1488 C   0  0  0  0  0  0  0  0  0  0  0  0
   -0.0515   -0.0423   -0.0420 C   0  0  0  0  0  0  0  0  0  0  0  0
    1.1426   -0.0422   -0.1882 O   0  0  0  0  0  0  0  0  0  0  0  0
   -0.9745    1.1932   -0.0151 C   0  0  0  0  0  0  0  0  0  0  0  0
   -3.5363   -1.8113    0.6148 H   0  0  0  0  0  0  0  0  0  0  0  0
   -1.6402   -0.2924    2.0274 H   0  0  0  0  0  0  0  0  0  0  0  0
   -3.1456    1.2419    0.4863 H   0  0  0  0  0  0  0  0  0  0  0  0
   -3.7662   -0.4801   -1.2107 H   0  0  0  0  0  0  0  0  0  0  0  0
   -2.5736    0.4831   -2.0636 H   0  0  0  0  0  0  0  0  0  0  0  0
   -2.2899   -2.3418   -1.2110 H   0  0  0  0  0  0  0  0  0  0  0  0
   -1.0741   -1.4017   -2.0544 H   0  0  0  0  0  0  0  0  0  0  0  0
   -0.4607   -2.1436    0.4897 H   0  0  0  0  0  0  0  0  0  0  0  0
   -0.7072    1.8127    0.8491 H   0  0  0  0  0  0  0  0  0  0  0  0
   -0.8417    1.8078   -0.9103 H   0  0  0  0  0  0  0  0  0  0  0  0
  1  2  1  0
  2  3  1  0
  3  4  1  0
  4  5  1  0
  5  6  1  0
  6  7  1  0
  7  8  2  0
  7  9  1  0
  6  2  1  0
  9  3  1  0
  1 10  1  0
  2 11  1  0
  3 12  1  0
  4 13  1  0
  4 14  1  0
  5 15  1  0
  5 16  1  0
  6 17  1  0
  9 18  1  0
  9 19  1  0
M  END
$$$$
