
     RDKit          3D

 19 20  0  0  0  0  0  0  0  0999 V2000
   -0.5660   -1.4822   -2.6424 C   0  0  0  0  0  0  0  0  0  0  0  0
   -1.4496   -1.6163   -1.4088 C   0  0  0  0  0  0  0  0  0  0  0  0
   -2.6518   -0.6320   -1.2476 C   0  0  0  0  0  0  0  0  0  0  0  0
   -2.1059   -0.1601    0.1227 C   0  0  0  0  0  0  0  0  0  0  0  0
   -2.9695   -0.0747    1.2127 O   0  0  0  0  0  0  0  0  0  0  0  0
   -1.1323    1.0408    0.0620 C   0  0  0  0  0  0  0  0  0  0  0  0
    0.0359    0.0528   -0.1019 C   0  0  0  0  0  0  0  0  0  0  0  0
    1.2195    0.1947   -0.2250 O   0  0  0  0  0  0  0  0  0  0  0  0
   -0.8761   -1.1701   -0.0159 C   0  0  0  0  0  0  0  0  0  0  0  0
    0.3170   -2.1249   -2.5679 H   0  0  0  0  0  0  0  0  0  0  0  0
   -1.1186   -1.7694   -3.5434 H   0  0  0  0  0  0  0  0  0  0  0  0
   -0.2116   -0.4557   -2.7812 H   0  0  0  0  0  0  0  0  0  0  0  0
   -1.7955   -2.6508   -1.3276 H   0  0  0  0  0  0  0  0  0  0  0  0
   -2.7465    0.1472   -2.0102 H   0  0  0  0  0  0  0  0  0  0  0  0
   -3.6173   -1.1413   -1.1655 H   0  0  0  0  0  0  0  0  0  0  0  0
   -3.5282   -0.8589    1.2260 H   0  0  0  0  0  0  0  0  0  0  0  0
   -1.2734    1.7921   -0.7199 H   0  0  0  0  0  0  0  0  0  0  0  0
   -1.0803    1.5428    1.0344 H   0  0  0  0  0  0  0  0  0  0  0  0
   -0.6023   -1.9562    0.6893 H   0  0  0  0  0  0  0  0  0  0  0  0
  1  2  1  0
  2  3  1  0
  3  4  1  0
  4  5  1  0
  4  6  1  0
  6  7  1  0
  7  8  2  0
  7  9  1  0
  9  2  1  0
  9  4  1  0
  1 10  1  0
  1 11  1  0
  1 12  1  0
  2 13  1  0
  3 14  1  0
  3 15  1  0
  5 16  1  0
  6 17  1  0
  6 18  1  0
  9 19  1  0
M  END
$$$$
