gdb 2238	2.5655929	1.9060745	1.3381478	1.2086	74.48	-0.23435	0.06611	0.30046	992.9169	0.157082	-422.53199	-422.524002	-422.523058	-422.563776	31.758
 OpenBabel02181911413D

 19 21  0  0  1  0  0  0  0  0999 V2000
   -0.0793    0.0937    0.1815 C   0  0  0  0  0  0  0  0  0  0  0  0
    1.4163    0.1155    0.0625 C   0  0  2  0  0  0  0  0  0  0  0  0
    2.2454    1.2601   -0.5310 C   0  0  0  0  0  0  0  0  0  0  0  0
    3.4618    0.7548    0.3082 C   0  0  2  0  0  0  0  0  0  0  0  0
    4.3013   -0.1138   -0.4517 O   0  0  0  0  0  0  0  0  0  0  0  0
    3.4905   -1.2188   -0.8488 C   0  0  0  0  0  0  0  0  0  0  0  0
    2.2501   -1.1545    0.0467 C   0  0  2  0  0  0  0  0  0  0  0  0
    1.5468   -2.3272    0.2978 O   0  0  0  0  0  0  0  0  0  0  0  0
    2.5003   -0.1304    1.1258 C   0  0  2  0  0  0  0  0  0  0  0  0
   -0.4432    0.9888    0.6984 H   0  0  0  0  0  0  0  0  0  0  0  0
   -0.5487    0.0689   -0.8093 H   0  0  0  0  0  0  0  0  0  0  0  0
   -0.4164   -0.7885    0.7302 H   0  0  0  0  0  0  0  0  0  0  0  0
    2.3880    1.3111   -1.6161 H   0  0  0  0  0  0  0  0  0  0  0  0
    1.8817    2.2264   -0.1677 H   0  0  0  0  0  0  0  0  0  0  0  0
    4.0913    1.4944    0.7998 H   0  0  0  0  0  0  0  0  0  0  0  0
    3.2472   -1.1606   -1.9186 H   0  0  0  0  0  0  0  0  0  0  0  0
    4.0424   -2.1528   -0.6773 H   0  0  0  0  0  0  0  0  0  0  0  0
    2.1037   -2.9045    0.8324 H   0  0  0  0  0  0  0  0  0  0  0  0
    2.4424   -0.3139    2.1910 H   0  0  0  0  0  0  0  0  0  0  0  0
  1 10  1  0  0  0  0
  1 12  1  0  0  0  0
  2  1  1  1  0  0  0
  2  9  1  0  0  0  0
  3 14  1  0  0  0  0
  3  2  1  0  0  0  0
  3  4  1  0  0  0  0
  4 15  1  1  0  0  0
  4  9  1  0  0  0  0
  5  4  1  0  0  0  0
  6 17  1  0  0  0  0
  6  5  1  0  0  0  0
  6  7  1  0  0  0  0
  7  2  1  0  0  0  0
  7  8  1  1  0  0  0
  7  9  1  0  0  0  0
  8 18  1  0  0  0  0
  9 19  1  1  0  0  0
 11  1  1  0  0  0  0
 13  3  1  0  0  0  0
 16  6  1  0  0  0  0
M TOR 0 0 1 2 3
M TOR 1 0 1 2 12
M TOR 2 0 1 2 13
M TOR 3 0 1 6 5
M TOR 4 0 1 6 7
M TOR 5 0 1 6 8
M TOR 6 0 1 8 3
M TOR 7 0 1 8 18
M TOR 8 1 2 3 4
M TOR 9 1 2 3 8
M TOR 10 1 2 3 14
M TOR 11 1 6 5 4
M TOR 12 1 6 5 15
M TOR 13 1 6 5 16
M TOR 14 1 6 7 17
M TOR 15 1 6 8 3
M TOR 16 1 6 8 18
M TOR 17 1 8 3 4
M TOR 18 1 8 3 14
M TOR 19 1 8 6 5
M TOR 20 1 8 6 7
M TOR 21 2 1 0 9
M TOR 22 2 1 0 10
M TOR 23 2 1 0 11
M TOR 24 2 1 6 5
M TOR 25 2 1 6 7
M TOR 26 2 1 6 8
M TOR 27 2 1 8 18
M TOR 28 2 3 4 5
M TOR 29 2 3 8 6
M TOR 30 2 3 8 18
M TOR 31 3 2 1 6
M TOR 32 3 4 5 6
M TOR 33 3 4 5 15
M TOR 34 3 4 5 16
M TOR 35 3 8 6 5
M TOR 36 3 8 6 7
M TOR 37 4 3 2 12
M TOR 38 4 3 2 13
M TOR 39 4 3 8 6
M TOR 40 4 3 8 18
M TOR 41 4 5 6 7
M TOR 42 4 5 6 8
M TOR 43 5 4 3 8
M TOR 44 5 4 3 14
M TOR 45 5 6 7 17
M TOR 46 5 6 8 18
M TOR 47 6 1 0 9
M TOR 48 6 1 0 10
M TOR 49 6 1 0 11
M TOR 50 6 1 2 12
M TOR 51 6 1 2 13
M TOR 52 6 8 3 14
M TOR 53 7 6 5 15
M TOR 54 7 6 5 16
M TOR 55 7 6 8 18
M TOR 56 8 1 0 9
M TOR 57 8 1 0 10
M TOR 58 8 1 0 11
M TOR 59 8 1 2 12
M TOR 60 8 1 2 13
M TOR 61 8 3 2 12
M TOR 62 8 3 2 13
M TOR 63 8 6 5 15
M TOR 64 8 6 5 16
M TOR 65 8 6 7 17
M  END
$$$$
