
     RDKit          3D

 19 20  0  0  0  0  0  0  0  0999 V2000
   -1.1621   -3.3296   -1.4824 C   0  0  0  0  0  0  0  0  0  0  0  0
   -1.2339   -1.8342   -1.2744 C   0  0  0  0  0  0  0  0  0  0  0  0
   -2.3090   -1.2149   -0.4461 C   0  0  0  0  0  0  0  0  0  0  0  0
   -2.8070    0.1651   -0.8301 C   0  0  0  0  0  0  0  0  0  0  0  0
   -1.7613    0.9498   -1.3801 O   0  0  0  0  0  0  0  0  0  0  0  0
   -0.7312    1.2250   -0.4502 C   0  0  0  0  0  0  0  0  0  0  0  0
   -0.1533    0.0010    0.2690 C   0  0  0  0  0  0  0  0  0  0  0  0
    0.8168    0.1224    0.9849 O   0  0  0  0  0  0  0  0  0  0  0  0
   -0.8912   -1.2771    0.1139 C   0  0  0  0  0  0  0  0  0  0  0  0
   -1.5246   -3.8711   -0.6025 H   0  0  0  0  0  0  0  0  0  0  0  0
   -1.7761   -3.6329   -2.3375 H   0  0  0  0  0  0  0  0  0  0  0  0
   -0.1345   -3.6544   -1.6755 H   0  0  0  0  0  0  0  0  0  0  0  0
   -0.8929   -1.2320   -2.1104 H   0  0  0  0  0  0  0  0  0  0  0  0
   -3.0437   -1.8682    0.0167 H   0  0  0  0  0  0  0  0  0  0  0  0
   -3.5741    0.1014   -1.6087 H   0  0  0  0  0  0  0  0  0  0  0  0
   -3.2516    0.6711    0.0437 H   0  0  0  0  0  0  0  0  0  0  0  0
    0.0693    1.7304   -0.9967 H   0  0  0  0  0  0  0  0  0  0  0  0
   -1.0804    1.9154    0.3372 H   0  0  0  0  0  0  0  0  0  0  0  0
   -0.6528   -2.0133    0.8742 H   0  0  0  0  0  0  0  0  0  0  0  0
  1  2  1  0
  2  3  1  0
  3  4  1  0
  4  5  1  0
  5  6  1  0
  6  7  1  0
  7  8  2  0
  7  9  1  0
  9  2  1  0
  9  3  1  0
  1 10  1  0
  1 11  1  0
  1 12  1  0
  2 13  1  0
  3 14  1  0
  4 15  1  0
  4 16  1  0
  6 17  1  0
  6 18  1  0
  9 19  1  0
M  END
$$$$
