
     RDKit          3D

 19 20  0  0  0  0  0  0  0  0999 V2000
   -0.4812    1.4466   -0.0463 C   0  0  0  0  0  0  0  0  0  0  0  0
    0.6506    2.5000   -0.0754 C   0  0  0  0  0  0  0  0  0  0  0  0
    1.2002    2.8568    1.2827 C   0  0  0  0  0  0  0  0  0  0  0  0
    2.0919    2.1836    2.0159 C   0  0  0  0  0  0  0  0  0  0  0  0
    2.7512    0.8983    1.7042 C   0  0  0  0  0  0  0  0  0  0  0  0
    2.6958    0.3718    0.3750 O   0  0  0  0  0  0  0  0  0  0  0  0
    1.9757   -0.3293    1.3780 C   0  0  0  0  0  0  0  0  0  0  0  0
    0.4448   -0.3417    1.2819 C   0  0  0  0  0  0  0  0  0  0  0  0
   -0.0528    0.1028    0.0407 O   0  0  0  0  0  0  0  0  0  0  0  0
   -1.1864    1.6765    0.7686 H   0  0  0  0  0  0  0  0  0  0  0  0
   -1.0321    1.4982   -0.9908 H   0  0  0  0  0  0  0  0  0  0  0  0
    1.4340    2.1223   -0.7342 H   0  0  0  0  0  0  0  0  0  0  0  0
    0.2351    3.4050   -0.5335 H   0  0  0  0  0  0  0  0  0  0  0  0
    0.7978    3.7667    1.7241 H   0  0  0  0  0  0  0  0  0  0  0  0
    2.3685    2.5857    2.9887 H   0  0  0  0  0  0  0  0  0  0  0  0
    3.7165    0.7497    2.1906 H   0  0  0  0  0  0  0  0  0  0  0  0
    2.4244   -1.2857    1.6528 H   0  0  0  0  0  0  0  0  0  0  0  0
    0.1118   -1.3798    1.3969 H   0  0  0  0  0  0  0  0  0  0  0  0
    0.0119    0.2402    2.1087 H   0  0  0  0  0  0  0  0  0  0  0  0
  1  2  1  0
  2  3  1  0
  3  4  2  0
  4  5  1  0
  5  6  1  0
  6  7  1  0
  7  8  1  0
  8  9  1  0
  9  1  1  0
  7  5  1  0
  1 10  1  0
  1 11  1  0
  2 12  1  0
  2 13  1  0
  3 14  1  0
  4 15  1  0
  5 16  1  0
  7 17  1  0
  8 18  1  0
  8 19  1  0
M  END
$$$$
