gdb 257	3.0197774	1.674297	1.2357074	1.8882	74.59	-0.23093	0.07248	0.30341	1022.595	0.159243	-422.516955	-422.509801	-422.508857	-422.54827	28.891
 OpenBabel02181911403D

 19 21  0  0  1  0  0  0  0  0999 V2000
   -0.0492   -0.3070    0.0496 C   0  0  0  0  0  0  0  0  0  0  0  0
    1.4337   -0.3469   -0.1693 C   0  0  1  0  0  0  0  0  0  0  0  0
    1.7424   -0.1858   -1.5567 O   0  0  0  0  0  0  0  0  0  0  0  0
    1.1737    1.1567   -1.5305 C   0  0  2  0  0  0  0  0  0  0  0  0
    2.2671    2.2285   -1.6233 C   0  0  0  0  0  0  0  0  0  0  0  0
    1.9174    3.3793   -0.8723 O   0  0  0  0  0  0  0  0  0  0  0  0
    1.8730    3.1048    0.5195 C   0  0  0  0  0  0  0  0  0  0  0  0
    0.7200    2.1514    0.8688 C   0  0  0  0  0  0  0  0  0  0  0  0
    0.7175    0.9887   -0.0816 C   0  0  1  0  0  0  0  0  0  0  0  0
   -0.7157   -0.6511   -0.7375 H   0  0  0  0  0  0  0  0  0  0  0  0
   -0.3751   -0.5323    1.0616 H   0  0  0  0  0  0  0  0  0  0  0  0
    2.1558   -0.8566    0.4588 H   0  0  0  0  0  0  0  0  0  0  0  0
    0.3991    1.2859   -2.2953 H   0  0  0  0  0  0  0  0  0  0  0  0
    3.2069    1.7903   -1.2526 H   0  0  0  0  0  0  0  0  0  0  0  0
    2.4219    2.5606   -2.6531 H   0  0  0  0  0  0  0  0  0  0  0  0
    2.8335    2.6705    0.8435 H   0  0  0  0  0  0  0  0  0  0  0  0
    1.7484    4.0690    1.0199 H   0  0  0  0  0  0  0  0  0  0  0  0
    0.8021    1.8205    1.9109 H   0  0  0  0  0  0  0  0  0  0  0  0
   -0.2290    2.6962    0.7791 H   0  0  0  0  0  0  0  0  0  0  0  0
  1 11  1  0  0  0  0
  2  9  1  0  0  0  0
  2  1  1  0  0  0  0
  2 12  1  1  0  0  0
  3  4  1  0  0  0  0
  3  2  1  0  0  0  0
  4 13  1  6  0  0  0
  4  9  1  0  0  0  0
  5  4  1  0  0  0  0
  5 14  1  0  0  0  0
  5  6  1  0  0  0  0
  6  7  1  0  0  0  0
  7 16  1  0  0  0  0
  7  8  1  0  0  0  0
  7 17  1  0  0  0  0
  8 18  1  0  0  0  0
  9  1  1  6  0  0  0
  9  8  1  0  0  0  0
 10  1  1  0  0  0  0
 15  5  1  0  0  0  0
 19  8  1  0  0  0  0
M TOR 0 0 1 2 3
M TOR 1 0 1 8 3
M TOR 2 0 1 8 7
M TOR 3 0 8 1 2
M TOR 4 0 8 1 11
M TOR 5 0 8 3 2
M TOR 6 0 8 3 4
M TOR 7 0 8 3 12
M TOR 8 0 8 7 6
M TOR 9 0 8 7 17
M TOR 10 0 8 7 18
M TOR 11 1 2 3 4
M TOR 12 1 2 3 8
M TOR 13 1 2 3 12
M TOR 14 1 8 0 9
M TOR 15 1 8 0 10
M TOR 16 1 8 3 4
M TOR 17 1 8 3 12
M TOR 18 1 8 7 6
M TOR 19 1 8 7 17
M TOR 20 1 8 7 18
M TOR 21 2 1 0 9
M TOR 22 2 1 0 10
M TOR 23 2 1 8 7
M TOR 24 2 3 4 5
M TOR 25 2 3 4 13
M TOR 26 2 3 4 14
M TOR 27 2 3 8 7
M TOR 28 3 2 1 11
M TOR 29 3 4 5 6
M TOR 30 3 8 0 9
M TOR 31 3 8 0 10
M TOR 32 3 8 1 11
M TOR 33 3 8 7 6
M TOR 34 3 8 7 17
M TOR 35 3 8 7 18
M TOR 36 4 3 8 7
M TOR 37 4 5 6 7
M TOR 38 4 5 6 15
M TOR 39 4 5 6 16
M TOR 40 5 4 3 8
M TOR 41 5 4 3 12
M TOR 42 5 6 7 8
M TOR 43 5 6 7 17
M TOR 44 5 6 7 18
M TOR 45 6 5 4 13
M TOR 46 6 5 4 14
M TOR 47 7 8 0 9
M TOR 48 7 8 0 10
M TOR 49 7 8 1 11
M TOR 50 7 8 3 12
M TOR 51 8 3 4 13
M TOR 52 8 3 4 14
M TOR 53 8 7 6 15
M TOR 54 8 7 6 16
M  END
$$$$
