gdb 2486	2.2169777	1.9391536	1.457371	2.6399	74.66	-0.24467	0.01684	0.26151	981.8873	0.158582	-422.578916	-422.571148	-422.570204	-422.611135	30.632
 OpenBabel02181911413D

 19 20  0  0  1  0  0  0  0  0999 V2000
    0.4196    0.5895   -0.1049 O   0  0  0  0  0  0  0  0  0  0  0  0
   -0.5351    0.9753    0.8761 C   0  0  2  0  0  0  0  0  0  0  0  0
   -1.0909   -0.2286    1.6751 C   0  0  0  0  0  0  0  0  0  0  0  0
   -2.5960    0.0549    1.7313 C   0  0  0  0  0  0  0  0  0  0  0  0
   -2.8953    0.6389    0.4707 O   0  0  0  0  0  0  0  0  0  0  0  0
   -1.8093    1.5103    0.1423 C   0  0  1  0  0  0  0  0  0  0  0  0
   -1.9930    2.9077    0.6745 C   0  0  0  0  0  0  0  0  0  0  0  0
   -1.0458    3.2487    1.5455 C   0  0  0  0  0  0  0  0  0  0  0  0
   -0.0262    2.1583    1.7539 C   0  0  0  0  0  0  0  0  0  0  0  0
    1.1884    0.2330    0.3525 H   0  0  0  0  0  0  0  0  0  0  0  0
   -0.9086   -1.1328    1.0870 H   0  0  0  0  0  0  0  0  0  0  0  0
   -0.6356   -0.3495    2.6618 H   0  0  0  0  0  0  0  0  0  0  0  0
   -3.2114   -0.8419    1.8397 H   0  0  0  0  0  0  0  0  0  0  0  0
   -2.8392    0.7427    2.5568 H   0  0  0  0  0  0  0  0  0  0  0  0
   -1.6902    1.4746   -0.9447 H   0  0  0  0  0  0  0  0  0  0  0  0
   -2.8259    3.5289    0.3657 H   0  0  0  0  0  0  0  0  0  0  0  0
   -0.9800    4.2041    2.0563 H   0  0  0  0  0  0  0  0  0  0  0  0
    0.9670    2.4667    1.4040 H   0  0  0  0  0  0  0  0  0  0  0  0
    0.0799    1.8922    2.8132 H   0  0  0  0  0  0  0  0  0  0  0  0
  1 10  1  0  0  0  0
  2  1  1  6  0  0  0
  2  3  1  0  0  0  0
  2  9  1  0  0  0  0
  3  4  1  0  0  0  0
  3 12  1  0  0  0  0
  4 13  1  0  0  0  0
  4 14  1  0  0  0  0
  5  4  1  0  0  0  0
  6 15  1  6  0  0  0
  6  5  1  0  0  0  0
  6  7  1  0  0  0  0
  6  2  1  0  0  0  0
  7  8  2  0  0  0  0
  8  9  1  0  0  0  0
  8 17  1  0  0  0  0
  9 19  1  0  0  0  0
 11  3  1  0  0  0  0
 16  7  1  0  0  0  0
 18  9  1  0  0  0  0
M TOR 0 0 1 2 3
M TOR 1 0 1 2 10
M TOR 2 0 1 2 11
M TOR 3 0 1 5 4
M TOR 4 0 1 5 6
M TOR 5 0 1 5 14
M TOR 6 0 1 8 7
M TOR 7 0 1 8 17
M TOR 8 0 1 8 18
M TOR 9 1 2 3 4
M TOR 10 1 2 3 12
M TOR 11 1 2 3 13
M TOR 12 1 5 4 3
M TOR 13 1 5 6 7
M TOR 14 1 5 6 15
M TOR 15 1 8 7 6
M TOR 16 1 8 7 16
M TOR 17 2 1 0 9
M TOR 18 2 1 5 4
M TOR 19 2 1 5 6
M TOR 20 2 1 5 14
M TOR 21 2 1 8 7
M TOR 22 2 1 8 17
M TOR 23 2 1 8 18
M TOR 24 2 3 4 5
M TOR 25 3 2 1 5
M TOR 26 3 2 1 8
M TOR 27 3 4 5 6
M TOR 28 3 4 5 14
M TOR 29 4 3 2 10
M TOR 30 4 3 2 11
M TOR 31 4 5 1 8
M TOR 32 4 5 6 7
M TOR 33 4 5 6 15
M TOR 34 5 1 0 9
M TOR 35 5 1 2 10
M TOR 36 5 1 2 11
M TOR 37 5 1 8 7
M TOR 38 5 1 8 17
M TOR 39 5 1 8 18
M TOR 40 5 4 3 12
M TOR 41 5 4 3 13
M TOR 42 5 6 7 8
M TOR 43 5 6 7 16
M TOR 44 6 5 1 8
M TOR 45 6 7 8 17
M TOR 46 6 7 8 18
M TOR 47 7 6 5 14
M TOR 48 8 1 0 9
M TOR 49 8 1 2 10
M TOR 50 8 1 2 11
M TOR 51 8 1 5 14
M TOR 52 8 7 6 15
M  END
$$$$
