gdb 2811	3.3128105	1.4319307	1.4123526	0.9078	73.43	-0.24258	0.08011	0.32269	1002.0637	0.159726	-422.543893	-422.536926	-422.535982	-422.57477	29.109
 OpenBabel02181911413D

 19 21  0  0  1  0  0  0  0  0999 V2000
    0.2206   -0.2655    0.5167 O   0  0  0  0  0  0  0  0  0  0  0  0
   -0.7262    0.6475    0.9956 C   0  0  1  0  0  0  0  0  0  0  0  0
   -1.6289    0.0784    2.0543 C   0  0  1  0  0  0  0  0  0  0  0  0
   -0.5767    1.1280    2.4183 C   0  0  2  0  0  0  0  0  0  0  0  0
   -1.4528    2.3090    2.8772 C   0  0  2  0  0  0  0  0  0  0  0  0
   -2.5557    1.5820    3.6666 C   0  0  0  0  0  0  0  0  0  0  0  0
   -2.9692    0.7600    2.4147 C   0  0  1  0  0  0  0  0  0  0  0  0
   -3.2419    1.9303    1.4620 C   0  0  0  0  0  0  0  0  0  0  0  0
   -2.1766    2.8597    1.7577 O   0  0  0  0  0  0  0  0  0  0  0  0
    1.0070    0.2315    0.2674 H   0  0  0  0  0  0  0  0  0  0  0  0
   -1.1107    1.3431    0.2550 H   0  0  0  0  0  0  0  0  0  0  0  0
   -1.4856   -0.9676    2.2986 H   0  0  0  0  0  0  0  0  0  0  0  0
    0.3260    0.8766    2.9649 H   0  0  0  0  0  0  0  0  0  0  0  0
   -0.9207    3.1236    3.3687 H   0  0  0  0  0  0  0  0  0  0  0  0
   -2.1661    0.9613    4.4764 H   0  0  0  0  0  0  0  0  0  0  0  0
   -3.3364    2.2508    4.0423 H   0  0  0  0  0  0  0  0  0  0  0  0
   -3.8072    0.0723    2.5284 H   0  0  0  0  0  0  0  0  0  0  0  0
   -3.2050    1.6534    0.4031 H   0  0  0  0  0  0  0  0  0  0  0  0
   -4.2122    2.4027    1.6646 H   0  0  0  0  0  0  0  0  0  0  0  0
  1  2  1  0  0  0  0
  2 11  1  6  0  0  0
  2  3  1  0  0  0  0
  2  4  1  0  0  0  0
  3 12  1  1  0  0  0
  3  7  1  0  0  0  0
  3  4  1  0  0  0  0
  4  5  1  0  0  0  0
  4 13  1  1  0  0  0
  5 14  1  1  0  0  0
  5  6  1  0  0  0  0
  6 16  1  0  0  0  0
  6 15  1  0  0  0  0
  7 17  1  1  0  0  0
  7  6  1  0  0  0  0
  8 19  1  0  0  0  0
  8  9  1  0  0  0  0
  8  7  1  0  0  0  0
  9  5  1  0  0  0  0
 10  1  1  0  0  0  0
 18  8  1  0  0  0  0
M TOR 0 0 1 2 3
M TOR 1 0 1 2 6
M TOR 2 0 1 2 11
M TOR 3 0 1 3 4
M TOR 4 0 1 3 12
M TOR 5 1 2 3 4
M TOR 6 1 2 3 12
M TOR 7 1 2 6 5
M TOR 8 1 2 6 7
M TOR 9 1 2 6 16
M TOR 10 1 3 2 6
M TOR 11 1 3 2 11
M TOR 12 1 3 4 5
M TOR 13 1 3 4 8
M TOR 14 1 3 4 13
M TOR 15 2 1 0 9
M TOR 16 2 3 1 10
M TOR 17 2 3 4 5
M TOR 18 2 3 4 8
M TOR 19 2 3 4 13
M TOR 20 2 6 5 4
M TOR 21 2 6 5 14
M TOR 22 2 6 5 15
M TOR 23 2 6 7 8
M TOR 24 2 6 7 17
M TOR 25 2 6 7 18
M TOR 26 3 1 0 9
M TOR 27 3 2 6 5
M TOR 28 3 2 6 7
M TOR 29 3 2 6 16
M TOR 30 3 4 5 6
M TOR 31 3 4 5 14
M TOR 32 3 4 5 15
M TOR 33 3 4 8 7
M TOR 34 4 3 1 10
M TOR 35 4 3 2 6
M TOR 36 4 3 2 11
M TOR 37 4 5 6 7
M TOR 38 4 5 6 16
M TOR 39 4 8 7 6
M TOR 40 4 8 7 17
M TOR 41 4 8 7 18
M TOR 42 5 4 3 12
M TOR 43 5 4 8 7
M TOR 44 5 6 2 11
M TOR 45 5 6 7 8
M TOR 46 5 6 7 17
M TOR 47 5 6 7 18
M TOR 48 6 2 1 10
M TOR 49 6 2 3 12
M TOR 50 6 5 4 8
M TOR 51 6 5 4 13
M TOR 52 7 6 2 11
M TOR 53 7 6 5 14
M TOR 54 7 6 5 15
M TOR 55 7 8 4 13
M TOR 56 8 4 3 12
M TOR 57 8 4 5 14
M TOR 58 8 4 5 15
M TOR 59 8 7 6 16
M  END
$$$$
