gdb 3735	2.9890435	1.2942456	1.1119507	1.8482	76.25	-0.23189	0.07114	0.30303	1175.8048	0.1548	-422.496831	-422.488058	-422.487114	-422.530231	32.856
 OpenBabel02181911413D

 19 21  0  0  1  0  0  0  0  0999 V2000
    0.0264    0.4528   -0.1419 C   0  0  0  0  0  0  0  0  0  0  0  0
    0.9427   -0.7099    0.1339 C   0  0  1  0  0  0  0  0  0  0  0  0
    2.0601   -0.8899   -0.7659 O   0  0  0  0  0  0  0  0  0  0  0  0
    2.3257   -0.5418    0.5754 C   0  0  1  0  0  0  0  0  0  0  0  0
    3.1111    0.6842    1.0369 C   0  0  0  0  0  0  0  0  0  0  0  0
    3.8360   -0.1341    1.9891 O   0  0  0  0  0  0  0  0  0  0  0  0
    3.2006   -1.3277    1.5181 C   0  0  0  0  0  0  0  0  0  0  0  0
    3.9382   -2.5989    1.2610 C   0  0  0  0  0  0  0  0  0  0  0  0
    2.9225   -2.5036    2.3916 C   0  0  0  0  0  0  0  0  0  0  0  0
   -0.6102    0.6509    0.7272 H   0  0  0  0  0  0  0  0  0  0  0  0
    0.5970    1.3570   -0.3702 H   0  0  0  0  0  0  0  0  0  0  0  0
   -0.6257    0.2356   -0.9940 H   0  0  0  0  0  0  0  0  0  0  0  0
    0.4454   -1.6465    0.3930 H   0  0  0  0  0  0  0  0  0  0  0  0
    3.7689    1.1120    0.2715 H   0  0  0  0  0  0  0  0  0  0  0  0
    2.5433    1.4808    1.5305 H   0  0  0  0  0  0  0  0  0  0  0  0
    3.6777   -3.1576    0.3681 H   0  0  0  0  0  0  0  0  0  0  0  0
    4.9875   -2.6231    1.5336 H   0  0  0  0  0  0  0  0  0  0  0  0
    1.9716   -3.0171    2.2898 H   0  0  0  0  0  0  0  0  0  0  0  0
    3.3084   -2.4587    3.4044 H   0  0  0  0  0  0  0  0  0  0  0  0
  1  2  1  0  0  0  0
  1 10  1  0  0  0  0
  2 13  1  1  0  0  0
  2  4  1  0  0  0  0
  3  2  1  0  0  0  0
  4  3  1  6  0  0  0
  4  5  1  0  0  0  0
  4  7  1  0  0  0  0
  5 15  1  0  0  0  0
  5  6  1  0  0  0  0
  7  6  1  0  0  0  0
  7  9  1  0  0  0  0
  8  7  1  0  0  0  0
  8 17  1  0  0  0  0
  8  9  1  0  0  0  0
  9 19  1  0  0  0  0
 11  1  1  0  0  0  0
 12  1  1  0  0  0  0
 14  5  1  0  0  0  0
 16  8  1  0  0  0  0
 18  9  1  0  0  0  0
M TOR 0 0 1 2 3
M TOR 1 0 1 3 4
M TOR 2 0 1 3 6
M TOR 3 1 2 3 4
M TOR 4 1 2 3 6
M TOR 5 1 3 4 5
M TOR 6 1 3 4 13
M TOR 7 1 3 4 14
M TOR 8 1 3 6 5
M TOR 9 1 3 6 7
M TOR 10 1 3 6 8
M TOR 11 2 1 0 9
M TOR 12 2 1 0 10
M TOR 13 2 1 0 11
M TOR 14 2 3 1 12
M TOR 15 2 3 4 5
M TOR 16 2 3 4 13
M TOR 17 2 3 4 14
M TOR 18 2 3 6 5
M TOR 19 2 3 6 7
M TOR 20 2 3 6 8
M TOR 21 3 1 0 9
M TOR 22 3 1 0 10
M TOR 23 3 1 0 11
M TOR 24 3 4 5 6
M TOR 25 3 6 7 8
M TOR 26 3 6 7 15
M TOR 27 3 6 7 16
M TOR 28 3 6 8 17
M TOR 29 3 6 8 18
M TOR 30 4 3 1 12
M TOR 31 4 3 6 7
M TOR 32 4 3 6 8
M TOR 33 4 5 6 7
M TOR 34 4 5 6 8
M TOR 35 5 6 7 8
M TOR 36 5 6 7 15
M TOR 37 5 6 7 16
M TOR 38 5 6 8 17
M TOR 39 5 6 8 18
M TOR 40 6 3 1 12
M TOR 41 6 3 4 13
M TOR 42 6 3 4 14
M TOR 43 6 5 4 13
M TOR 44 6 5 4 14
M TOR 45 6 7 8 17
M TOR 46 6 7 8 18
M TOR 47 6 8 7 15
M TOR 48 6 8 7 16
M  END
$$$$
