gdb 5432	3.237216	1.0911713	0.9295194	4.7945	76.74	-0.2669	0.00807	0.27497000000000005	1311.4312	0.155357	-422.565826	-422.55669	-422.555746	-422.599692	33.556
 OpenBabel02181911423D

 19 20  0  0  1  0  0  0  0  0999 V2000
    1.1617    1.1792    0.1179 C   0  0  0  0  0  0  0  0  0  0  0  0
    0.9156   -0.3284   -0.0196 C   0  0  0  0  0  0  0  0  0  0  0  0
    1.5967   -0.9200   -1.2378 C   0  0  2  0  0  0  0  0  0  0  0  0
    1.8441   -2.4484   -1.2294 C   0  0  1  0  0  0  0  0  0  0  0  0
    2.4406   -2.8158   -2.5551 C   0  0  0  0  0  0  0  0  0  0  0  0
    2.2929   -3.6314   -3.4060 O   0  0  0  0  0  0  0  0  0  0  0  0
    3.4058   -1.8139   -2.5086 O   0  0  0  0  0  0  0  0  0  0  0  0
    2.9837   -1.4536   -1.1516 C   0  0  1  0  0  0  0  0  0  0  0  0
    4.0730   -1.2087   -0.1636 C   0  0  0  0  0  0  0  0  0  0  0  0
    0.6339    1.5837    0.9864 H   0  0  0  0  0  0  0  0  0  0  0  0
    2.2271    1.4001    0.2371 H   0  0  0  0  0  0  0  0  0  0  0  0
    0.8092    1.7173   -0.7682 H   0  0  0  0  0  0  0  0  0  0  0  0
    1.2537   -0.8475    0.8856 H   0  0  0  0  0  0  0  0  0  0  0  0
   -0.1615   -0.5214   -0.0932 H   0  0  0  0  0  0  0  0  0  0  0  0
    1.3076   -0.4711   -2.1861 H   0  0  0  0  0  0  0  0  0  0  0  0
    1.4010   -3.1070   -0.4960 H   0  0  0  0  0  0  0  0  0  0  0  0
    4.7422   -2.0718   -0.1034 H   0  0  0  0  0  0  0  0  0  0  0  0
    4.6661   -0.3368   -0.4591 H   0  0  0  0  0  0  0  0  0  0  0  0
    3.6597   -1.0184    0.8300 H   0  0  0  0  0  0  0  0  0  0  0  0
  1 11  1  0  0  0  0
  1 10  1  0  0  0  0
  2  1  1  0  0  0  0
  2 13  1  0  0  0  0
  3 15  1  6  0  0  0
  3  4  1  0  0  0  0
  3  8  1  0  0  0  0
  3  2  1  0  0  0  0
  4  8  1  0  0  0  0
  4 16  1  1  0  0  0
  5  7  1  0  0  0  0
  5  4  1  0  0  0  0
  6  5  2  0  0  0  0
  7  8  1  0  0  0  0
  8  9  1  1  0  0  0
  9 17  1  0  0  0  0
  9 19  1  0  0  0  0
 12  1  1  0  0  0  0
 14  2  1  0  0  0  0
 18  9  1  0  0  0  0
M TOR 0 0 1 2 3
M TOR 1 0 1 2 7
M TOR 2 0 1 2 14
M TOR 3 1 2 3 4
M TOR 4 1 2 3 7
M TOR 5 1 2 3 15
M TOR 6 1 2 7 6
M TOR 7 1 2 7 8
M TOR 8 2 1 0 9
M TOR 9 2 1 0 10
M TOR 10 2 1 0 11
M TOR 11 2 3 4 5
M TOR 12 2 3 4 6
M TOR 13 2 3 7 6
M TOR 14 2 3 7 8
M TOR 15 2 7 3 4
M TOR 16 2 7 3 15
M TOR 17 2 7 6 4
M TOR 18 2 7 8 16
M TOR 19 2 7 8 17
M TOR 20 2 7 8 18
M TOR 21 3 2 1 12
M TOR 22 3 2 1 13
M TOR 23 3 4 6 7
M TOR 24 3 7 2 14
M TOR 25 3 7 8 16
M TOR 26 3 7 8 17
M TOR 27 3 7 8 18
M TOR 28 4 3 2 14
M TOR 29 4 3 7 8
M TOR 30 4 6 7 8
M TOR 31 5 4 3 7
M TOR 32 5 4 3 15
M TOR 33 5 4 6 7
M TOR 34 6 4 3 15
M TOR 35 6 7 2 14
M TOR 36 6 7 3 15
M TOR 37 6 7 8 16
M TOR 38 6 7 8 17
M TOR 39 6 7 8 18
M TOR 40 7 2 1 12
M TOR 41 7 2 1 13
M TOR 42 8 7 2 14
M TOR 43 8 7 3 15
M  END
$$$$
