
     RDKit          3D

 19 20  0  0  0  0  0  0  0  0999 V2000
   -0.5707   -1.9036   -2.3061 C   0  0  0  0  0  0  0  0  0  0  0  0
   -1.6155   -1.3370   -1.3459 C   0  0  0  0  0  0  0  0  0  0  0  0
   -2.2269   -0.1498   -1.8544 O   0  0  0  0  0  0  0  0  0  0  0  0
   -1.6124    1.0809   -1.5110 C   0  0  0  0  0  0  0  0  0  0  0  0
   -1.0797    1.0575   -0.0550 C   0  0  0  0  0  0  0  0  0  0  0  0
   -1.9338    0.0286    0.7519 C   0  0  0  0  0  0  0  0  0  0  0  0
   -1.0598   -1.0810    0.0842 C   0  0  0  0  0  0  0  0  0  0  0  0
    0.0235   -0.0018   -0.0167 C   0  0  0  0  0  0  0  0  0  0  0  0
    1.2210    0.0142    0.0153 O   0  0  0  0  0  0  0  0  0  0  0  0
   -0.1880   -2.8596   -1.9336 H   0  0  0  0  0  0  0  0  0  0  0  0
   -1.0202   -2.0698   -3.2885 H   0  0  0  0  0  0  0  0  0  0  0  0
    0.2810   -1.2268   -2.4208 H   0  0  0  0  0  0  0  0  0  0  0  0
   -2.4451   -2.0499   -1.2599 H   0  0  0  0  0  0  0  0  0  0  0  0
   -0.7949    1.3356   -2.2026 H   0  0  0  0  0  0  0  0  0  0  0  0
   -2.3919    1.8426   -1.6168 H   0  0  0  0  0  0  0  0  0  0  0  0
   -0.8824    2.0615    0.3238 H   0  0  0  0  0  0  0  0  0  0  0  0
   -1.7654    0.1017    1.8274 H   0  0  0  0  0  0  0  0  0  0  0  0
   -3.0011    0.0026    0.5286 H   0  0  0  0  0  0  0  0  0  0  0  0
   -0.8393   -2.0162    0.6013 H   0  0  0  0  0  0  0  0  0  0  0  0
  1  2  1  0
  2  3  1  0
  3  4  1  0
  4  5  1  0
  5  6  1  0
  6  7  1  0
  7  8  1  0
  8  9  2  0
  7  2  1  0
  8  5  1  0
  1 10  1  0
  1 11  1  0
  1 12  1  0
  2 13  1  0
  4 14  1  0
  4 15  1  0
  5 16  1  0
  6 17  1  0
  6 18  1  0
  7 19  1  0
M  END
$$$$
