gdb 72	5.603084	0.6994806	0.6625586	0.9755	79.57	-0.21598	0.01992	0.2359	1714.4147	0.156773	-422.568346	-422.559189	-422.558244	-422.603651	32.134
 OpenBabel02181911403D

 19 19  0  0  0  0  0  0  0  0999 V2000
    1.4025   -0.2617    0.0495 C   0  0  0  0  0  0  0  0  0  0  0  0
    0.0145   -0.0320    0.0632 O   0  0  0  0  0  0  0  0  0  0  0  0
   -0.4128    0.6768    1.2043 C   0  0  0  0  0  0  0  0  0  0  0  0
   -1.9298    0.8607    1.1057 C   0  0  0  0  0  0  0  0  0  0  0  0
   -2.5046    1.5830    2.2730 C   0  0  0  0  0  0  0  0  0  0  0  0
   -3.0927    2.8006    2.4295 C   0  0  0  0  0  0  0  0  0  0  0  0
   -3.4274    2.9216    3.8188 C   0  0  0  0  0  0  0  0  0  0  0  0
   -3.0151    1.7688    4.4032 C   0  0  0  0  0  0  0  0  0  0  0  0
   -2.4513    0.9428    3.4803 O   0  0  0  0  0  0  0  0  0  0  0  0
    1.7277   -0.8559    0.9184 H   0  0  0  0  0  0  0  0  0  0  0  0
    1.6343   -0.8159   -0.8634 H   0  0  0  0  0  0  0  0  0  0  0  0
    1.9736    0.6806    0.0478 H   0  0  0  0  0  0  0  0  0  0  0  0
   -0.1582    0.1266    2.1247 H   0  0  0  0  0  0  0  0  0  0  0  0
    0.0845    1.6598    1.2634 H   0  0  0  0  0  0  0  0  0  0  0  0
   -2.1627    1.4204    0.1953 H   0  0  0  0  0  0  0  0  0  0  0  0
   -2.3884   -0.1300    1.0025 H   0  0  0  0  0  0  0  0  0  0  0  0
   -3.2703    3.5238    1.6488 H   0  0  0  0  0  0  0  0  0  0  0  0
   -3.9103    3.7532    4.3076 H   0  0  0  0  0  0  0  0  0  0  0  0
   -3.0463    1.3904    5.4115 H   0  0  0  0  0  0  0  0  0  0  0  0
  1  2  1  0  0  0  0
  1 10  1  0  0  0  0
  2  3  1  0  0  0  0
  3 14  1  0  0  0  0
  3 13  1  0  0  0  0
  4  3  1  0  0  0  0
  4  5  1  0  0  0  0
  5  6  2  0  0  0  0
  5  9  1  0  0  0  0
  6  7  1  0  0  0  0
  7 18  1  0  0  0  0
  7  8  2  0  0  0  0
  8 19  1  0  0  0  0
  9  8  1  0  0  0  0
 11  1  1  0  0  0  0
 12  1  1  0  0  0  0
 15  4  1  0  0  0  0
 16  4  1  0  0  0  0
 17  6  1  0  0  0  0
M TOR 0 0 1 2 3
M TOR 1 0 1 2 12
M TOR 2 0 1 2 13
M TOR 3 1 2 3 4
M TOR 4 1 2 3 14
M TOR 5 1 2 3 15
M TOR 6 2 1 0 9
M TOR 7 2 1 0 10
M TOR 8 2 1 0 11
M TOR 9 2 3 4 5
M TOR 10 2 3 4 8
M TOR 11 3 4 5 6
M TOR 12 3 4 5 16
M TOR 13 3 4 8 7
M TOR 14 4 3 2 12
M TOR 15 4 3 2 13
M TOR 16 4 5 6 7
M TOR 17 4 5 6 17
M TOR 18 4 8 7 6
M TOR 19 4 8 7 18
M TOR 20 5 4 3 14
M TOR 21 5 4 3 15
M TOR 22 5 4 8 7
M TOR 23 5 6 7 8
M TOR 24 5 6 7 18
M TOR 25 6 5 4 8
M TOR 26 7 6 5 16
M TOR 27 8 4 3 14
M TOR 28 8 4 3 15
M TOR 29 8 4 5 16
M TOR 30 8 7 6 17
M  END
$$$$
