
     RDKit          3D

 19 21  0  0  0  0  0  0  0  0999 V2000
    0.0625    0.1458    0.2378 C   0  0  0  0  0  0  0  0  0  0  0  0
    1.4920   -0.0451   -0.1840 C   0  0  0  0  0  0  0  0  0  0  0  0
    2.0438    1.0851   -0.8360 O   0  0  0  0  0  0  0  0  0  0  0  0
    3.3538    1.3087   -0.3048 C   0  0  0  0  0  0  0  0  0  0  0  0
    3.8482   -0.0761    0.1322 C   0  0  0  0  0  0  0  0  0  0  0  0
    4.2964   -0.8322   -0.9882 O   0  0  0  0  0  0  0  0  0  0  0  0
    3.1607   -1.4023   -1.6450 C   0  0  0  0  0  0  0  0  0  0  0  0
    2.0223   -1.3950   -0.6351 C   0  0  0  0  0  0  0  0  0  0  0  0
    2.5506   -0.7367    0.6236 C   0  0  0  0  0  0  0  0  0  0  0  0
   -0.0267    0.9816    0.9393 H   0  0  0  0  0  0  0  0  0  0  0  0
   -0.5683    0.3639   -0.6299 H   0  0  0  0  0  0  0  0  0  0  0  0
   -0.3230   -0.7561    0.7218 H   0  0  0  0  0  0  0  0  0  0  0  0
    3.9769    1.7473   -1.0880 H   0  0  0  0  0  0  0  0  0  0  0  0
    3.3074    1.9963    0.5543 H   0  0  0  0  0  0  0  0  0  0  0  0
    4.6586   -0.0383    0.8633 H   0  0  0  0  0  0  0  0  0  0  0  0
    2.9096   -0.8196   -2.5412 H   0  0  0  0  0  0  0  0  0  0  0  0
    3.4205   -2.4214   -1.9511 H   0  0  0  0  0  0  0  0  0  0  0  0
    1.3645   -2.2552   -0.5773 H   0  0  0  0  0  0  0  0  0  0  0  0
    2.4287   -1.1235    1.6271 H   0  0  0  0  0  0  0  0  0  0  0  0
  1  2  1  0
  2  3  1  0
  3  4  1  0
  4  5  1  0
  5  6  1  0
  6  7  1  0
  7  8  1  0
  8  9  1  0
  8  2  1  0
  9  2  1  0
  9  5  1  0
  1 10  1  0
  1 11  1  0
  1 12  1  0
  4 13  1  0
  4 14  1  0
  5 15  1  0
  7 16  1  0
  7 17  1  0
  8 18  1  0
  9 19  1  0
M  END
$$$$
