
     RDKit          3D

 19 20  0  0  0  0  0  0  0  0999 V2000
    0.8404    1.7146    1.4375 C   0  0  0  0  0  0  0  0  0  0  0  0
   -0.2856    0.8374    0.9719 C   0  0  0  0  0  0  0  0  0  0  0  0
   -1.4094    1.3077    0.4243 C   0  0  0  0  0  0  0  0  0  0  0  0
   -2.4789    0.3458   -0.0374 C   0  0  0  0  0  0  0  0  0  0  0  0
   -3.2866   -0.2160    1.1489 C   0  0  0  0  0  0  0  0  0  0  0  0
   -2.4080   -1.2180    1.6651 O   0  0  0  0  0  0  0  0  0  0  0  0
   -1.3742   -1.4068    0.6955 C   0  0  0  0  0  0  0  0  0  0  0  0
   -0.1060   -0.6592    1.1296 C   0  0  0  0  0  0  0  0  0  0  0  0
   -1.8666   -0.8651   -0.5070 O   0  0  0  0  0  0  0  0  0  0  0  0
    1.0375    1.5709    2.5075 H   0  0  0  0  0  0  0  0  0  0  0  0
    1.7736    1.4684    0.9142 H   0  0  0  0  0  0  0  0  0  0  0  0
    0.6242    2.7729    1.2687 H   0  0  0  0  0  0  0  0  0  0  0  0
   -1.5851    2.3739    0.3134 H   0  0  0  0  0  0  0  0  0  0  0  0
   -3.0964    0.7481   -0.8419 H   0  0  0  0  0  0  0  0  0  0  0  0
   -3.4915    0.5251    1.9267 H   0  0  0  0  0  0  0  0  0  0  0  0
   -4.2288   -0.6693    0.8137 H   0  0  0  0  0  0  0  0  0  0  0  0
   -1.2047   -2.4784    0.5536 H   0  0  0  0  0  0  0  0  0  0  0  0
    0.1094   -0.9119    2.1752 H   0  0  0  0  0  0  0  0  0  0  0  0
    0.7557   -1.0037    0.5403 H   0  0  0  0  0  0  0  0  0  0  0  0
  1  2  1  0
  2  3  2  0
  3  4  1  0
  4  5  1  0
  5  6  1  0
  6  7  1  0
  7  8  1  0
  7  9  1  0
  8  2  1  0
  9  4  1  0
  1 10  1  0
  1 11  1  0
  1 12  1  0
  3 13  1  0
  4 14  1  0
  5 15  1  0
  5 16  1  0
  7 17  1  0
  8 18  1  0
  8 19  1  0
M  END
$$$$
