gdb 2786	1.9383217	1.6052152	0.9689245	0.7812	77.89	-0.23522	0.01215	0.24737	1234.6886	0.156142	-422.560605	-422.551634	-422.55069	-422.593818	34.127
 OpenBabel02181911413D

 19 20  0  0  1  0  0  0  0  0999 V2000
    1.2570    0.6803    0.3554 C   0  0  0  0  0  0  0  0  0  0  0  0
   -0.0847    0.0288    0.2332 C   0  0  0  0  0  0  0  0  0  0  0  0
   -0.3498   -1.2829    0.1394 C   0  0  0  0  0  0  0  0  0  0  0  0
   -1.8312   -1.5822    0.0801 C   0  0  1  0  0  0  0  0  0  0  0  0
   -2.2945   -2.3245    1.2071 O   0  0  0  0  0  0  0  0  0  0  0  0
   -2.4610   -0.1897   -0.0181 C   0  0  2  0  0  0  0  0  0  0  0  0
   -2.0754    0.6909   -1.1764 C   0  0  1  0  0  0  0  0  0  0  0  0
   -2.9198    1.7506   -1.5146 O   0  0  0  0  0  0  0  0  0  0  0  0
   -1.3412    0.8314    0.1379 C   0  0  2  0  0  0  0  0  0  0  0  0
    1.3064    1.3094    1.2530 H   0  0  0  0  0  0  0  0  0  0  0  0
    2.0617   -0.0572    0.4109 H   0  0  0  0  0  0  0  0  0  0  0  0
    1.4521    1.3416   -0.4976 H   0  0  0  0  0  0  0  0  0  0  0  0
    0.3932   -2.0729    0.1266 H   0  0  0  0  0  0  0  0  0  0  0  0
   -2.0979   -2.2068   -0.7811 H   0  0  0  0  0  0  0  0  0  0  0  0
   -1.9383   -1.8893    1.9902 H   0  0  0  0  0  0  0  0  0  0  0  0
   -3.4349   -0.0307    0.4304 H   0  0  0  0  0  0  0  0  0  0  0  0
   -1.5232    0.2491   -2.0078 H   0  0  0  0  0  0  0  0  0  0  0  0
   -3.7184    1.3823   -1.9077 H   0  0  0  0  0  0  0  0  0  0  0  0
   -1.4621    1.7633    0.6791 H   0  0  0  0  0  0  0  0  0  0  0  0
  1 11  1  0  0  0  0
  1 10  1  0  0  0  0
  2  1  1  0  0  0  0
  3  2  2  0  0  0  0
  4 14  1  6  0  0  0
  4  3  1  0  0  0  0
  4  5  1  0  0  0  0
  5 15  1  0  0  0  0
  6  4  1  0  0  0  0
  6  9  1  0  0  0  0
  6 16  1  1  0  0  0
  7 17  1  6  0  0  0
  7  6  1  0  0  0  0
  7  9  1  0  0  0  0
  8  7  1  0  0  0  0
  9  2  1  0  0  0  0
  9 19  1  1  0  0  0
 12  1  1  0  0  0  0
 13  3  1  0  0  0  0
 18  8  1  0  0  0  0
M TOR 0 0 1 2 3
M TOR 1 0 1 2 12
M TOR 2 0 1 8 5
M TOR 3 0 1 8 6
M TOR 4 0 1 8 18
M TOR 5 1 2 3 4
M TOR 6 1 2 3 5
M TOR 7 1 2 3 13
M TOR 8 1 8 5 3
M TOR 9 1 8 5 6
M TOR 10 1 8 5 15
M TOR 11 1 8 6 7
M TOR 12 1 8 6 16
M TOR 13 2 1 0 9
M TOR 14 2 1 0 10
M TOR 15 2 1 0 11
M TOR 16 2 1 8 5
M TOR 17 2 1 8 6
M TOR 18 2 1 8 18
M TOR 19 2 3 4 14
M TOR 20 2 3 5 6
M TOR 21 2 3 5 8
M TOR 22 2 3 5 15
M TOR 23 3 2 1 8
M TOR 24 3 5 6 7
M TOR 25 3 5 6 8
M TOR 26 3 5 6 16
M TOR 27 3 5 8 18
M TOR 28 4 3 2 12
M TOR 29 4 3 5 6
M TOR 30 4 3 5 8
M TOR 31 4 3 5 15
M TOR 32 5 3 2 12
M TOR 33 5 3 4 14
M TOR 34 5 6 7 17
M TOR 35 5 6 8 18
M TOR 36 5 8 6 7
M TOR 37 5 8 6 16
M TOR 38 6 5 3 13
M TOR 39 6 8 5 15
M TOR 40 7 6 5 15
M TOR 41 7 6 8 18
M TOR 42 8 1 0 9
M TOR 43 8 1 0 10
M TOR 44 8 1 0 11
M TOR 45 8 1 2 12
M TOR 46 8 5 3 13
M TOR 47 8 6 7 17
M  END
$$$$
