
     RDKit          3D

 19 21  0  0  0  0  0  0  0  0999 V2000
    0.5069    0.7672   -0.6708 C   0  0  0  0  0  0  0  0  0  0  0  0
    0.1224   -0.2074    0.3065 O   0  0  0  0  0  0  0  0  0  0  0  0
    1.5084    0.1548    0.2061 C   0  0  0  0  0  0  0  0  0  0  0  0
    2.1330    0.9328    1.3624 C   0  0  0  0  0  0  0  0  0  0  0  0
    3.1124    0.0642    2.1987 C   0  0  0  0  0  0  0  0  0  0  0  0
    3.6655   -1.0625    1.3156 C   0  0  0  0  0  0  0  0  0  0  0  0
    2.5449   -2.0191    0.8608 C   0  0  0  0  0  0  0  0  0  0  0  0
    2.4074   -0.9774   -0.2647 C   0  0  0  0  0  0  0  0  0  0  0  0
    3.7895   -0.5693   -0.0574 O   0  0  0  0  0  0  0  0  0  0  0  0
    0.4241    0.4472   -1.7093 H   0  0  0  0  0  0  0  0  0  0  0  0
    0.1665    1.7836   -0.4732 H   0  0  0  0  0  0  0  0  0  0  0  0
    2.6955    1.7665    0.9328 H   0  0  0  0  0  0  0  0  0  0  0  0
    1.3380    1.3583    1.9803 H   0  0  0  0  0  0  0  0  0  0  0  0
    3.9259    0.6909    2.5766 H   0  0  0  0  0  0  0  0  0  0  0  0
    2.6166   -0.3758    3.0713 H   0  0  0  0  0  0  0  0  0  0  0  0
    4.6038   -1.4843    1.6841 H   0  0  0  0  0  0  0  0  0  0  0  0
    2.9325   -2.9705    0.4936 H   0  0  0  0  0  0  0  0  0  0  0  0
    1.6889   -2.1781    1.5190 H   0  0  0  0  0  0  0  0  0  0  0  0
    2.2041   -1.3047   -1.2872 H   0  0  0  0  0  0  0  0  0  0  0  0
  1  2  1  0
  2  3  1  0
  3  4  1  0
  4  5  1  0
  5  6  1  0
  6  7  1  0
  7  8  1  0
  8  9  1  0
  3  1  1  0
  8  3  1  0
  9  6  1  0
  1 10  1  0
  1 11  1  0
  4 12  1  0
  4 13  1  0
  5 14  1  0
  5 15  1  0
  6 16  1  0
  7 17  1  0
  7 18  1  0
  8 19  1  0
M  END
$$$$
