gdb 4793	2.6427213	0.9261362	0.8186121	1.4401	77.56	-0.24445	-0.01477	0.22968	1465.3949	0.152878	-422.543813	-422.533061	-422.532117	-422.580568	37.554
 OpenBabel02181911413D

 19 18  0  0  1  0  0  0  0  0999 V2000
    3.8074    0.8740    0.3506 C   0  0  0  0  0  0  0  0  0  0  0  0
    2.3865    0.3985    0.1046 C   0  0  0  0  0  0  0  0  0  0  0  0
    1.8512   -0.4103    0.8248 O   0  0  0  0  0  0  0  0  0  0  0  0
    1.6566    0.9589   -1.1167 C   0  0  0  0  0  0  0  0  0  0  0  0
    1.7667    2.4864   -1.3205 C   0  0  1  0  0  0  0  0  0  0  0  0
    0.9930    2.9286   -2.5867 C   0  0  0  0  0  0  0  0  0  0  0  0
    1.1098    4.3095   -2.8363 O   0  0  0  0  0  0  0  0  0  0  0  0
    1.2766    3.2330   -0.1623 C   0  0  0  0  0  0  0  0  0  0  0  0
    0.8410    3.8669    0.7629 C   0  0  0  0  0  0  0  0  0  0  0  0
    4.2717    0.2499    1.1148 H   0  0  0  0  0  0  0  0  0  0  0  0
    4.4026    0.8490   -0.5687 H   0  0  0  0  0  0  0  0  0  0  0  0
    3.7924    1.9128    0.6993 H   0  0  0  0  0  0  0  0  0  0  0  0
    2.0787    0.4672   -2.0047 H   0  0  0  0  0  0  0  0  0  0  0  0
    0.6100    0.6544   -1.0355 H   0  0  0  0  0  0  0  0  0  0  0  0
    2.8175    2.7570   -1.4840 H   0  0  0  0  0  0  0  0  0  0  0  0
    1.4171    2.4186   -3.4577 H   0  0  0  0  0  0  0  0  0  0  0  0
   -0.0578    2.6142   -2.4898 H   0  0  0  0  0  0  0  0  0  0  0  0
    0.7652    4.7703   -2.0618 H   0  0  0  0  0  0  0  0  0  0  0  0
    0.4699    4.4103    1.5970 H   0  0  0  0  0  0  0  0  0  0  0  0
  1 12  1  0  0  0  0
  1 10  1  0  0  0  0
  2  1  1  0  0  0  0
  2  3  2  0  0  0  0
  4 14  1  0  0  0  0
  4  2  1  0  0  0  0
  5 15  1  6  0  0  0
  5  4  1  0  0  0  0
  5  8  1  0  0  0  0
  6 17  1  0  0  0  0
  6  5  1  0  0  0  0
  7  6  1  0  0  0  0
  7 18  1  0  0  0  0
  8  9  3  0  0  0  0
  9 19  1  0  0  0  0
 11  1  1  0  0  0  0
 13  4  1  0  0  0  0
 16  6  1  0  0  0  0
M TOR 0 0 1 3 4
M TOR 1 0 1 3 12
M TOR 2 0 1 3 13
M TOR 3 1 3 4 5
M TOR 4 1 3 4 7
M TOR 5 1 3 4 14
M TOR 6 2 1 0 9
M TOR 7 2 1 0 10
M TOR 8 2 1 0 11
M TOR 9 2 1 3 4
M TOR 10 2 1 3 12
M TOR 11 2 1 3 13
M TOR 12 3 1 0 9
M TOR 13 3 1 0 10
M TOR 14 3 1 0 11
M TOR 15 3 4 5 6
M TOR 16 3 4 5 15
M TOR 17 3 4 5 16
M TOR 18 3 4 7 8
M TOR 19 4 5 6 17
M TOR 20 4 7 8 18
M TOR 21 5 4 3 12
M TOR 22 5 4 3 13
M TOR 23 5 4 7 8
M TOR 24 6 5 4 7
M TOR 25 6 5 4 14
M TOR 26 7 4 3 12
M TOR 27 7 4 3 13
M TOR 28 7 4 5 15
M TOR 29 7 4 5 16
M TOR 30 8 7 4 14
M  END
$$$$
