
     RDKit          3D

 19 21  0  0  0  0  0  0  0  0999 V2000
    2.3170   -1.1082   -1.1416 C   0  0  0  0  0  0  0  0  0  0  0  0
    1.8253   -0.2325   -0.0013 C   0  0  0  0  0  0  0  0  0  0  0  0
    2.4218    1.2356    0.0882 C   0  0  0  0  0  0  0  0  0  0  0  0
    2.5299    0.9776    1.5948 C   0  0  0  0  0  0  0  0  0  0  0  0
    1.1333    0.9476    2.1924 O   0  0  0  0  0  0  0  0  0  0  0  0
    1.8424   -0.1919    2.7845 C   0  0  0  0  0  0  0  0  0  0  0  0
    3.0649    0.8125    3.0585 C   0  0  0  0  0  0  0  0  0  0  0  0
    2.8806    1.8046    3.9938 O   0  0  0  0  0  0  0  0  0  0  0  0
    2.4523   -0.5420    1.4176 C   0  0  0  0  0  0  0  0  0  0  0  0
    1.9379   -2.1312   -1.0417 H   0  0  0  0  0  0  0  0  0  0  0  0
    1.9812   -0.7186   -2.1088 H   0  0  0  0  0  0  0  0  0  0  0  0
    3.4117   -1.1587   -1.1665 H   0  0  0  0  0  0  0  0  0  0  0  0
    0.7370   -0.2037    0.0279 H   0  0  0  0  0  0  0  0  0  0  0  0
    3.4030    1.2988   -0.3922 H   0  0  0  0  0  0  0  0  0  0  0  0
    1.7971    2.0746   -0.2256 H   0  0  0  0  0  0  0  0  0  0  0  0
    1.3005   -0.7903    3.5228 H   0  0  0  0  0  0  0  0  0  0  0  0
    4.0666    0.3910    3.1688 H   0  0  0  0  0  0  0  0  0  0  0  0
    1.9810    2.1296    3.8347 H   0  0  0  0  0  0  0  0  0  0  0  0
    3.3798   -1.1187    1.3980 H   0  0  0  0  0  0  0  0  0  0  0  0
  1  2  1  0
  2  3  1  0
  3  4  1  0
  4  5  1  0
  5  6  1  0
  6  7  1  0
  7  8  1  0
  6  9  1  0
  9  2  1  0
  7  4  1  0
  9  4  1  0
  1 10  1  0
  1 11  1  0
  1 12  1  0
  2 13  1  0
  3 14  1  0
  3 15  1  0
  6 16  1  0
  7 17  1  0
  8 18  1  0
  9 19  1  0
M  END
$$$$
