gdb 962	5.2211687	0.7636277	0.7293556	2.6848	76.99	-0.25228	-0.02849	0.22379	1563.1397	0.154669	-422.516694	-422.507578	-422.506634	-422.552024	32.448
 OpenBabel02181911403D

 19 20  0  0  1  0  0  0  0  0999 V2000
    2.4206    0.0113    1.4644 O   0  0  0  0  0  0  0  0  0  0  0  0
    1.5256    0.2994    0.7155 C   0  0  0  0  0  0  0  0  0  0  0  0
    0.0577    0.0885    1.0395 C   0  0  0  0  0  0  0  0  0  0  0  0
   -0.7046    0.6380   -0.0155 O   0  0  0  0  0  0  0  0  0  0  0  0
   -2.0647    0.4219    0.1000 C   0  0  2  0  0  0  0  0  0  0  0  0
   -2.6893   -0.9059   -0.2291 C   0  0  0  0  0  0  0  0  0  0  0  0
   -3.0784    0.3258   -1.0233 C   0  0  1  0  0  0  0  0  0  0  0  0
   -4.0728    1.1643   -0.2090 C   0  0  0  0  0  0  0  0  0  0  0  0
   -3.0110    1.2924    0.9372 C   0  0  0  0  0  0  0  0  0  0  0  0
    1.7010    0.7422   -0.2898 H   0  0  0  0  0  0  0  0  0  0  0  0
   -0.1297   -0.9912    1.1530 H   0  0  0  0  0  0  0  0  0  0  0  0
   -0.1671    0.5627    2.0069 H   0  0  0  0  0  0  0  0  0  0  0  0
   -2.0292   -1.5870   -0.7570 H   0  0  0  0  0  0  0  0  0  0  0  0
   -3.4030   -1.3854    0.4380 H   0  0  0  0  0  0  0  0  0  0  0  0
   -2.9252    0.3770   -2.0938 H   0  0  0  0  0  0  0  0  0  0  0  0
   -4.3090    2.1270   -0.6663 H   0  0  0  0  0  0  0  0  0  0  0  0
   -5.0079    0.6601    0.0537 H   0  0  0  0  0  0  0  0  0  0  0  0
   -2.6413    2.3157    1.0347 H   0  0  0  0  0  0  0  0  0  0  0  0
   -3.2879    0.9153    1.9268 H   0  0  0  0  0  0  0  0  0  0  0  0
  2  3  1  0  0  0  0
  2  1  2  0  0  0  0
  3 11  1  0  0  0  0
  3 12  1  0  0  0  0
  4  3  1  0  0  0  0
  5  4  1  6  0  0  0
  5  9  1  0  0  0  0
  6  5  1  0  0  0  0
  6 14  1  0  0  0  0
  7 15  1  6  0  0  0
  7  6  1  0  0  0  0
  7  8  1  0  0  0  0
  7  5  1  0  0  0  0
  8 17  1  0  0  0  0
  8  9  1  0  0  0  0
  9 18  1  0  0  0  0
  9 19  1  0  0  0  0
 10  2  1  0  0  0  0
 13  6  1  0  0  0  0
 16  8  1  0  0  0  0
M TOR 0 0 1 2 3
M TOR 1 0 1 2 10
M TOR 2 0 1 2 11
M TOR 3 1 2 3 4
M TOR 4 2 3 4 5
M TOR 5 2 3 4 6
M TOR 6 2 3 4 8
M TOR 7 3 2 1 9
M TOR 8 3 4 5 6
M TOR 9 3 4 5 12
M TOR 10 3 4 5 13
M TOR 11 3 4 6 7
M TOR 12 3 4 6 14
M TOR 13 3 4 8 7
M TOR 14 3 4 8 17
M TOR 15 3 4 8 18
M TOR 16 4 3 2 10
M TOR 17 4 3 2 11
M TOR 18 4 5 6 7
M TOR 19 4 5 6 14
M TOR 20 4 6 5 12
M TOR 21 4 6 5 13
M TOR 22 4 6 7 8
M TOR 23 4 6 7 15
M TOR 24 4 6 7 16
M TOR 25 4 8 7 15
M TOR 26 4 8 7 16
M TOR 27 5 4 8 7
M TOR 28 5 4 8 17
M TOR 29 5 4 8 18
M TOR 30 5 6 4 8
M TOR 31 5 6 7 8
M TOR 32 5 6 7 15
M TOR 33 5 6 7 16
M TOR 34 6 4 8 17
M TOR 35 6 4 8 18
M TOR 36 6 7 8 17
M TOR 37 6 7 8 18
M TOR 38 7 6 5 12
M TOR 39 7 6 5 13
M TOR 40 8 4 5 12
M TOR 41 8 4 5 13
M TOR 42 8 4 6 14
M TOR 43 8 7 6 14
M  END
$$$$
