
     RDKit          3D

 19 19  0  0  0  0  0  0  0  0999 V2000
    1.3125   -0.3332   -0.0363 C   0  0  0  0  0  0  0  0  0  0  0  0
   -0.0456   -0.3444    0.3444 O   0  0  0  0  0  0  0  0  0  0  0  0
   -0.3866    0.6586    1.2988 C   0  0  0  0  0  0  0  0  0  0  0  0
   -0.0740    0.2419    2.7596 C   0  0  0  0  0  0  0  0  0  0  0  0
   -1.3948   -0.3497    3.3188 C   0  0  0  0  0  0  0  0  0  0  0  0
   -1.4306   -1.8697    3.1954 C   0  0  0  0  0  0  0  0  0  0  0  0
   -1.7971   -2.6215    4.0601 O   0  0  0  0  0  0  0  0  0  0  0  0
   -2.4336    0.2479    2.3903 C   0  0  0  0  0  0  0  0  0  0  0  0
   -1.8899    0.7925    1.3035 C   0  0  0  0  0  0  0  0  0  0  0  0
    1.9884   -0.5408    0.8072 H   0  0  0  0  0  0  0  0  0  0  0  0
    1.4433   -1.1165   -0.7867 H   0  0  0  0  0  0  0  0  0  0  0  0
    1.6018    0.6336   -0.4767 H   0  0  0  0  0  0  0  0  0  0  0  0
    0.1246    1.5939    1.0242 H   0  0  0  0  0  0  0  0  0  0  0  0
    0.7673   -0.4557    2.8087 H   0  0  0  0  0  0  0  0  0  0  0  0
    0.1954    1.1221    3.3503 H   0  0  0  0  0  0  0  0  0  0  0  0
   -1.5684   -0.1010    4.3697 H   0  0  0  0  0  0  0  0  0  0  0  0
   -1.0897   -2.2356    2.2007 H   0  0  0  0  0  0  0  0  0  0  0  0
   -3.4949    0.1767    2.5999 H   0  0  0  0  0  0  0  0  0  0  0  0
   -2.4302    1.2366    0.4762 H   0  0  0  0  0  0  0  0  0  0  0  0
  1  2  1  0
  2  3  1  0
  3  4  1  0
  4  5  1  0
  5  6  1  0
  6  7  2  0
  5  8  1  0
  8  9  2  0
  9  3  1  0
  1 10  1  0
  1 11  1  0
  1 12  1  0
  3 13  1  0
  4 14  1  0
  4 15  1  0
  5 16  1  0
  6 17  1  0
  8 18  1  0
  9 19  1  0
M  END
$$$$
