
     RDKit          3D

 19 20  0  0  0  0  0  0  0  0999 V2000
   -0.2955    1.1823   -0.0216 C   0  0  0  0  0  0  0  0  0  0  0  0
    0.3466   -0.0689    0.0857 O   0  0  0  0  0  0  0  0  0  0  0  0
    0.8409   -0.5516   -1.1266 C   0  0  0  0  0  0  0  0  0  0  0  0
   -0.2549   -1.2647   -2.0341 C   0  0  0  0  0  0  0  0  0  0  0  0
    0.1641   -2.5242   -1.3086 C   0  0  0  0  0  0  0  0  0  0  0  0
   -0.2541   -3.3789   -0.3841 C   0  0  0  0  0  0  0  0  0  0  0  0
    0.8679   -3.5518    0.6275 C   0  0  0  0  0  0  0  0  0  0  0  0
    1.8372   -2.5291    0.3201 O   0  0  0  0  0  0  0  0  0  0  0  0
    1.5000   -1.9802   -0.9275 C   0  0  0  0  0  0  0  0  0  0  0  0
    0.3845    1.9526   -0.4174 H   0  0  0  0  0  0  0  0  0  0  0  0
   -1.1830    1.1413   -0.6705 H   0  0  0  0  0  0  0  0  0  0  0  0
   -0.6091    1.4697    0.9846 H   0  0  0  0  0  0  0  0  0  0  0  0
    1.4582    0.2024   -1.6373 H   0  0  0  0  0  0  0  0  0  0  0  0
   -1.2900   -0.9384   -1.9180 H   0  0  0  0  0  0  0  0  0  0  0  0
    0.0217   -1.2331   -3.0922 H   0  0  0  0  0  0  0  0  0  0  0  0
   -1.2511   -3.7699   -0.2254 H   0  0  0  0  0  0  0  0  0  0  0  0
    0.4987   -3.3970    1.6504 H   0  0  0  0  0  0  0  0  0  0  0  0
    1.3570   -4.5382    0.5977 H   0  0  0  0  0  0  0  0  0  0  0  0
    2.3197   -2.1096   -1.6485 H   0  0  0  0  0  0  0  0  0  0  0  0
  1  2  1  0
  2  3  1  0
  3  4  1  0
  4  5  1  0
  5  6  2  0
  6  7  1  0
  7  8  1  0
  8  9  1  0
  9  3  1  0
  9  5  1  0
  1 10  1  0
  1 11  1  0
  1 12  1  0
  3 13  1  0
  4 14  1  0
  4 15  1  0
  6 16  1  0
  7 17  1  0
  7 18  1  0
  9 19  1  0
M  END
$$$$
