gdb 633	3.7911372	1.2395447	1.2020355	2.3613	77.12	-0.23291	0.01146	0.24437	1107.2612	0.158246	-422.56304	-422.555123	-422.554178	-422.596495	29.735
 OpenBabel02181911403D

 19 20  0  0  1  0  0  0  0  0999 V2000
   -0.5685    1.0064   -0.8939 C   0  0  0  0  0  0  0  0  0  0  0  0
   -0.0768   -0.0418    0.1029 C   0  0  0  0  0  0  0  0  0  0  0  0
    1.3471    0.4703    0.4226 C   0  0  1  0  0  0  0  0  0  0  0  0
    1.7263    1.2036   -0.8988 C   0  0  0  0  0  0  0  0  0  0  0  0
    0.5645    1.2655   -1.7153 O   0  0  0  0  0  0  0  0  0  0  0  0
    1.2952    1.4232    1.5008 O   0  0  0  0  0  0  0  0  0  0  0  0
    2.1004    0.9925    2.5935 C   0  0  0  0  0  0  0  0  0  0  0  0
    2.7548   -0.2746    2.1212 C   0  0  0  0  0  0  0  0  0  0  0  0
    2.3257   -0.5652    0.8993 C   0  0  0  0  0  0  0  0  0  0  0  0
   -1.3806    0.6672   -1.5422 H   0  0  0  0  0  0  0  0  0  0  0  0
   -0.8933    1.9175   -0.3676 H   0  0  0  0  0  0  0  0  0  0  0  0
   -0.6768   -0.1221    1.0109 H   0  0  0  0  0  0  0  0  0  0  0  0
   -0.0248   -1.0223   -0.3820 H   0  0  0  0  0  0  0  0  0  0  0  0
    2.0879    2.2064   -0.6373 H   0  0  0  0  0  0  0  0  0  0  0  0
    2.5085    0.6803   -1.4598 H   0  0  0  0  0  0  0  0  0  0  0  0
    2.8285    1.7771    2.8497 H   0  0  0  0  0  0  0  0  0  0  0  0
    1.4756    0.8291    3.4865 H   0  0  0  0  0  0  0  0  0  0  0  0
    3.4567   -0.8413    2.7193 H   0  0  0  0  0  0  0  0  0  0  0  0
    2.6048   -1.4175    0.2927 H   0  0  0  0  0  0  0  0  0  0  0  0
  1 11  1  0  0  0  0
  1  2  1  0  0  0  0
  2  3  1  0  0  0  0
  2 12  1  0  0  0  0
  3  9  1  1  0  0  0
  3  6  1  0  0  0  0
  4 14  1  0  0  0  0
  4  3  1  0  0  0  0
  5  4  1  0  0  0  0
  5  1  1  0  0  0  0
  6  7  1  0  0  0  0
  7 16  1  0  0  0  0
  7 17  1  0  0  0  0
  8  7  1  0  0  0  0
  8 18  1  0  0  0  0
  9  8  2  0  0  0  0
 10  1  1  0  0  0  0
 13  2  1  0  0  0  0
 15  4  1  0  0  0  0
 19  9  1  0  0  0  0
M TOR 0 0 1 2 3
M TOR 1 0 1 2 5
M TOR 2 0 1 2 8
M TOR 3 0 4 3 2
M TOR 4 0 4 3 13
M TOR 5 0 4 3 14
M TOR 6 1 0 4 3
M TOR 7 1 2 3 4
M TOR 8 1 2 3 13
M TOR 9 1 2 3 14
M TOR 10 1 2 5 6
M TOR 11 1 2 8 7
M TOR 12 1 2 8 18
M TOR 13 2 1 0 4
M TOR 14 2 1 0 9
M TOR 15 2 1 0 10
M TOR 16 2 5 6 7
M TOR 17 2 5 6 15
M TOR 18 2 5 6 16
M TOR 19 2 8 7 6
M TOR 20 2 8 7 17
M TOR 21 3 2 1 11
M TOR 22 3 2 1 12
M TOR 23 3 2 5 6
M TOR 24 3 2 8 7
M TOR 25 3 2 8 18
M TOR 26 3 4 0 9
M TOR 27 3 4 0 10
M TOR 28 4 0 1 11
M TOR 29 4 0 1 12
M TOR 30 4 3 2 5
M TOR 31 4 3 2 8
M TOR 32 5 2 1 11
M TOR 33 5 2 1 12
M TOR 34 5 2 3 13
M TOR 35 5 2 3 14
M TOR 36 5 2 8 7
M TOR 37 5 2 8 18
M TOR 38 5 6 7 8
M TOR 39 5 6 7 17
M TOR 40 6 5 2 8
M TOR 41 6 7 8 18
M TOR 42 8 2 1 11
M TOR 43 8 2 1 12
M TOR 44 8 2 3 13
M TOR 45 8 2 3 14
M TOR 46 8 7 6 15
M TOR 47 8 7 6 16
M  END
$$$$
