
     RDKit          3D

 19 20  0  0  0  0  0  0  0  0999 V2000
    2.4551    1.5998   -0.5259 C   0  0  0  0  0  0  0  0  0  0  0  0
    1.7168    0.2818   -0.2515 C   0  0  0  0  0  0  0  0  0  0  0  0
    2.0331   -0.7652   -1.2719 C   0  0  0  0  0  0  0  0  0  0  0  0
    1.3932   -0.9607   -2.6103 C   0  0  0  0  0  0  0  0  0  0  0  0
    1.4676   -2.1251   -1.6376 C   0  0  0  0  0  0  0  0  0  0  0  0
    2.9188   -2.6061   -1.5744 C   0  0  0  0  0  0  0  0  0  0  0  0
    3.3890   -1.2577   -1.3216 O   0  0  0  0  0  0  0  0  0  0  0  0
    3.1844   -3.4980   -0.3765 C   0  0  0  0  0  0  0  0  0  0  0  0
    3.2603   -4.6965   -0.4394 O   0  0  0  0  0  0  0  0  0  0  0  0
    2.2313    2.3391    0.2483 H   0  0  0  0  0  0  0  0  0  0  0  0
    3.5367    1.4387   -0.5410 H   0  0  0  0  0  0  0  0  0  0  0  0
    2.1637    2.0201   -1.4935 H   0  0  0  0  0  0  0  0  0  0  0  0
    1.9855   -0.0944    0.7430 H   0  0  0  0  0  0  0  0  0  0  0  0
    0.6329    0.4459   -0.2490 H   0  0  0  0  0  0  0  0  0  0  0  0
    0.3974   -0.5409   -2.7181 H   0  0  0  0  0  0  0  0  0  0  0  0
    1.9988   -0.9553   -3.5123 H   0  0  0  0  0  0  0  0  0  0  0  0
    0.6025   -2.6673   -1.2806 H   0  0  0  0  0  0  0  0  0  0  0  0
    3.3465   -3.0506   -2.4798 H   0  0  0  0  0  0  0  0  0  0  0  0
    3.2852   -2.9386    0.5807 H   0  0  0  0  0  0  0  0  0  0  0  0
  1  2  1  0
  2  3  1  0
  3  4  1  0
  4  5  1  0
  5  6  1  0
  6  7  1  0
  6  8  1  0
  8  9  2  0
  5  3  1  0
  7  3  1  0
  1 10  1  0
  1 11  1  0
  1 12  1  0
  2 13  1  0
  2 14  1  0
  4 15  1  0
  4 16  1  0
  5 17  1  0
  6 18  1  0
  8 19  1  0
M  END
$$$$
