gdb 4551	2.1821408	1.6504572	1.0241666	4.5212	75.93	-0.23057	-0.06429	0.16627999999999998	1180.0489	0.156663	-422.604746	-422.595851	-422.594907	-422.638598	32.687
 OpenBabel02181911413D

 19 19  0  0  1  0  0  0  0  0999 V2000
    0.0017    2.5532   -0.0144 C   0  0  0  0  0  0  0  0  0  0  0  0
   -0.8669    1.2966   -0.0044 C   0  0  1  0  0  0  0  0  0  0  0  0
   -1.8584    1.2191   -1.1883 C   0  0  0  0  0  0  0  0  0  0  0  0
   -2.7400   -0.0332   -1.1267 C   0  0  0  0  0  0  0  0  0  0  0  0
   -1.8956   -1.3212   -1.1400 C   0  0  0  0  0  0  0  0  0  0  0  0
   -0.8280   -1.3053   -0.0604 C   0  0  0  0  0  0  0  0  0  0  0  0
   -0.5827   -2.2314    0.6708 O   0  0  0  0  0  0  0  0  0  0  0  0
   -0.0305    0.0223    0.0543 C   0  0  0  0  0  0  0  0  0  0  0  0
    1.1689    0.0019    0.1789 O   0  0  0  0  0  0  0  0  0  0  0  0
    0.6911    2.5593    0.8326 H   0  0  0  0  0  0  0  0  0  0  0  0
    0.6050    2.6004   -0.9262 H   0  0  0  0  0  0  0  0  0  0  0  0
   -0.6214    3.4511    0.0335 H   0  0  0  0  0  0  0  0  0  0  0  0
   -1.4738    1.2812    0.9171 H   0  0  0  0  0  0  0  0  0  0  0  0
   -2.4807    2.1204   -1.1880 H   0  0  0  0  0  0  0  0  0  0  0  0
   -1.2943    1.2309   -2.1309 H   0  0  0  0  0  0  0  0  0  0  0  0
   -3.3506   -0.0075   -0.2151 H   0  0  0  0  0  0  0  0  0  0  0  0
   -3.4384   -0.0470   -1.9694 H   0  0  0  0  0  0  0  0  0  0  0  0
   -2.4980   -2.2263   -1.0270 H   0  0  0  0  0  0  0  0  0  0  0  0
   -1.3703   -1.3908   -2.1048 H   0  0  0  0  0  0  0  0  0  0  0  0
  1  2  1  0  0  0  0
  1 12  1  0  0  0  0
  1 10  1  0  0  0  0
  2  8  1  0  0  0  0
  2 13  1  1  0  0  0
  3 14  1  0  0  0  0
  3  4  1  0  0  0  0
  3  2  1  0  0  0  0
  4 16  1  0  0  0  0
  5  4  1  0  0  0  0
  5 18  1  0  0  0  0
  5  6  1  0  0  0  0
  6  8  1  0  0  0  0
  6  7  2  0  0  0  0
  8  9  2  0  0  0  0
 11  1  1  0  0  0  0
 15  3  1  0  0  0  0
 17  4  1  0  0  0  0
 19  5  1  0  0  0  0
M TOR 0 0 1 2 3
M TOR 1 0 1 2 13
M TOR 2 0 1 2 14
M TOR 3 0 1 7 5
M TOR 4 0 1 7 8
M TOR 5 1 2 3 4
M TOR 6 1 2 3 15
M TOR 7 1 2 3 16
M TOR 8 1 7 5 4
M TOR 9 1 7 5 6
M TOR 10 2 1 0 9
M TOR 11 2 1 0 10
M TOR 12 2 1 0 11
M TOR 13 2 1 7 5
M TOR 14 2 1 7 8
M TOR 15 2 3 4 5
M TOR 16 2 3 4 17
M TOR 17 2 3 4 18
M TOR 18 3 2 1 7
M TOR 19 3 2 1 12
M TOR 20 3 4 5 6
M TOR 21 3 4 5 7
M TOR 22 4 3 2 13
M TOR 23 4 3 2 14
M TOR 24 4 5 7 8
M TOR 25 5 4 3 15
M TOR 26 5 4 3 16
M TOR 27 5 7 1 12
M TOR 28 6 5 4 17
M TOR 29 6 5 4 18
M TOR 30 6 5 7 8
M TOR 31 7 1 0 9
M TOR 32 7 1 0 10
M TOR 33 7 1 0 11
M TOR 34 7 1 2 13
M TOR 35 7 1 2 14
M TOR 36 7 5 4 17
M TOR 37 7 5 4 18
M TOR 38 8 7 1 12
M  END
$$$$
