
     RDKit          3D

 19 21  0  0  0  0  0  0  0  0999 V2000
    0.1994    0.8192   -1.1698 C   0  0  0  0  0  0  0  0  0  0  0  0
    0.3590   -0.4066   -0.3907 O   0  0  0  0  0  0  0  0  0  0  0  0
    0.4907    0.3918    0.8083 C   0  0  0  0  0  0  0  0  0  0  0  0
    1.5536    0.1238    1.8660 C   0  0  0  0  0  0  0  0  0  0  0  0
    1.9516    1.4052    2.3832 O   0  0  0  0  0  0  0  0  0  0  0  0
    2.0930    2.4350    1.3996 C   0  0  0  0  0  0  0  0  0  0  0  0
    0.7093    2.8949    0.8087 C   0  0  0  0  0  0  0  0  0  0  0  0
    0.8627    1.6129   -0.0373 C   0  0  0  0  0  0  0  0  0  0  0  0
    2.3935    1.8356    0.0068 C   0  0  0  0  0  0  0  0  0  0  0  0
    0.7247    0.7658   -2.1282 H   0  0  0  0  0  0  0  0  0  0  0  0
   -0.8622    1.0476   -1.3382 H   0  0  0  0  0  0  0  0  0  0  0  0
   -0.4965    0.5167    1.2799 H   0  0  0  0  0  0  0  0  0  0  0  0
    1.1901   -0.4443    2.7253 H   0  0  0  0  0  0  0  0  0  0  0  0
    2.4034   -0.4177    1.4315 H   0  0  0  0  0  0  0  0  0  0  0  0
    2.7514    3.1870    1.8360 H   0  0  0  0  0  0  0  0  0  0  0  0
   -0.1398    2.9486    1.4944 H   0  0  0  0  0  0  0  0  0  0  0  0
    0.8119    3.8308    0.2517 H   0  0  0  0  0  0  0  0  0  0  0  0
    3.0714    0.9843   -0.0733 H   0  0  0  0  0  0  0  0  0  0  0  0
    2.6987    2.6128   -0.6990 H   0  0  0  0  0  0  0  0  0  0  0  0
  1  2  1  0
  2  3  1  0
  3  4  1  0
  4  5  1  0
  5  6  1  0
  6  7  1  0
  7  8  1  0
  8  9  1  0
  8  1  1  0
  8  3  1  0
  9  6  1  0
  1 10  1  0
  1 11  1  0
  3 12  1  0
  4 13  1  0
  4 14  1  0
  6 15  1  0
  7 16  1  0
  7 17  1  0
  9 18  1  0
  9 19  1  0
M  END
$$$$
