
     RDKit          3D

 19 19  0  0  0  0  0  0  0  0999 V2000
    1.3495   -0.2431    0.0580 C   0  0  0  0  0  0  0  0  0  0  0  0
   -0.0510   -0.1568    0.2558 O   0  0  0  0  0  0  0  0  0  0  0  0
   -0.4334    0.8930    1.1066 C   0  0  0  0  0  0  0  0  0  0  0  0
   -1.9749    0.9053    1.1704 C   0  0  0  0  0  0  0  0  0  0  0  0
   -2.2979    0.5040    2.6237 C   0  0  0  0  0  0  0  0  0  0  0  0
   -0.9572   -0.0844    3.1148 C   0  0  0  0  0  0  0  0  0  0  0  0
    0.0296    0.7019    2.4305 O   0  0  0  0  0  0  0  0  0  0  0  0
   -0.7486   -0.0139    4.5527 C   0  0  0  0  0  0  0  0  0  0  0  0
   -0.6111    0.0252    5.7453 C   0  0  0  0  0  0  0  0  0  0  0  0
    1.8795   -0.4220    1.0004 H   0  0  0  0  0  0  0  0  0  0  0  0
    1.5249   -1.0784   -0.6234 H   0  0  0  0  0  0  0  0  0  0  0  0
    1.7443    0.6781   -0.3971 H   0  0  0  0  0  0  0  0  0  0  0  0
    0.0211    1.8338    0.7661 H   0  0  0  0  0  0  0  0  0  0  0  0
   -2.3749    1.8892    0.9185 H   0  0  0  0  0  0  0  0  0  0  0  0
   -2.3577    0.1857    0.4445 H   0  0  0  0  0  0  0  0  0  0  0  0
   -2.5474    1.3767    3.2316 H   0  0  0  0  0  0  0  0  0  0  0  0
   -3.1155   -0.2148    2.7050 H   0  0  0  0  0  0  0  0  0  0  0  0
   -0.8737   -1.1319    2.7886 H   0  0  0  0  0  0  0  0  0  0  0  0
   -0.4803    0.0628    6.7985 H   0  0  0  0  0  0  0  0  0  0  0  0
  1  2  1  0
  2  3  1  0
  3  4  1  0
  4  5  1  0
  5  6  1  0
  6  7  1  0
  6  8  1  0
  8  9  3  0
  7  3  1  0
  1 10  1  0
  1 11  1  0
  1 12  1  0
  3 13  1  0
  4 14  1  0
  4 15  1  0
  5 16  1  0
  5 17  1  0
  6 18  1  0
  9 19  1  0
M  END
$$$$
