gdb 4590	2.7005883	0.8058484	0.7167379	2.7194	82.78	-0.25275	-0.04004	0.21270999999999998	1678.6608	0.15276	-422.54429	-422.53339	-422.532446	-422.581653	37.754
 OpenBabel02181911413D

 19 18  0  0  1  0  0  0  0  0999 V2000
   -0.0819   -0.1451    0.0078 C   0  0  0  0  0  0  0  0  0  0  0  0
    1.4546   -0.1184   -0.0875 C   0  0  0  0  0  0  0  0  0  0  0  0
    2.0113    1.2277   -0.0062 C   0  0  0  0  0  0  0  0  0  0  0  0
    2.4559    2.3445    0.0862 C   0  0  0  0  0  0  0  0  0  0  0  0
    2.9797    3.7188    0.1579 C   0  0  2  0  0  0  0  0  0  0  0  0
    4.4607    3.7686   -0.2610 C   0  0  0  0  0  0  0  0  0  0  0  0
    2.8357    4.2811    1.4407 O   0  0  0  0  0  0  0  0  0  0  0  0
    2.1378    4.5289   -0.8408 C   0  0  0  0  0  0  0  0  0  0  0  0
    1.4326    5.4373   -0.4831 O   0  0  0  0  0  0  0  0  0  0  0  0
   -0.4193    0.2854    0.9542 H   0  0  0  0  0  0  0  0  0  0  0  0
   -0.5325    0.4310   -0.8048 H   0  0  0  0  0  0  0  0  0  0  0  0
   -0.4480   -1.1740   -0.0544 H   0  0  0  0  0  0  0  0  0  0  0  0
    1.8844   -0.7321    0.7144 H   0  0  0  0  0  0  0  0  0  0  0  0
    1.7749   -0.5852   -1.0277 H   0  0  0  0  0  0  0  0  0  0  0  0
    5.0481    3.1808    0.4476 H   0  0  0  0  0  0  0  0  0  0  0  0
    4.6029    3.3523   -1.2622 H   0  0  0  0  0  0  0  0  0  0  0  0
    4.8145    4.8031   -0.2394 H   0  0  0  0  0  0  0  0  0  0  0  0
    2.1168    4.9289    1.3604 H   0  0  0  0  0  0  0  0  0  0  0  0
    2.2101    4.2114   -1.8992 H   0  0  0  0  0  0  0  0  0  0  0  0
  1 10  1  0  0  0  0
  2  3  1  0  0  0  0
  2  1  1  0  0  0  0
  2 13  1  0  0  0  0
  3  4  3  0  0  0  0
  5  4  1  1  0  0  0
  5  7  1  0  0  0  0
  6 17  1  0  0  0  0
  6  5  1  0  0  0  0
  6 15  1  0  0  0  0
  8  9  2  0  0  0  0
  8  5  1  0  0  0  0
 11  1  1  0  0  0  0
 12  1  1  0  0  0  0
 14  2  1  0  0  0  0
 16  6  1  0  0  0  0
 18  7  1  0  0  0  0
 19  8  1  0  0  0  0
M TOR 0 0 1 2 3
M TOR 1 1 2 3 4
M TOR 2 2 1 0 9
M TOR 3 2 1 0 10
M TOR 4 2 1 0 11
M TOR 5 2 3 4 5
M TOR 6 2 3 4 6
M TOR 7 2 3 4 7
M TOR 8 3 2 1 12
M TOR 9 3 2 1 13
M TOR 10 3 4 5 14
M TOR 11 3 4 5 15
M TOR 12 3 4 5 16
M TOR 13 3 4 6 17
M TOR 14 3 4 7 8
M TOR 15 3 4 7 18
M TOR 16 5 4 6 17
M TOR 17 5 4 7 8
M TOR 18 5 4 7 18
M TOR 19 6 4 5 14
M TOR 20 6 4 5 15
M TOR 21 6 4 5 16
M TOR 22 6 4 7 8
M TOR 23 6 4 7 18
M TOR 24 7 4 5 14
M TOR 25 7 4 5 15
M TOR 26 7 4 5 16
M TOR 27 7 4 6 17
M  END
$$$$
