gdb 1331	2.5956791	1.4347331	1.1123434	1.6386	75.76	-0.2465	-0.03261	0.21389	1132.511	0.15572	-422.517229	-422.508425	-422.507481	-422.552488	32.246
 OpenBabel02181911403D

 19 20  0  0  1  0  0  0  0  0999 V2000
   -0.9912   -1.2970    1.5129 O   0  0  0  0  0  0  0  0  0  0  0  0
   -1.0813   -0.2694    0.5356 C   0  0  2  0  0  0  0  0  0  0  0  0
   -2.5455   -0.0662    0.1354 C   0  0  0  0  0  0  0  0  0  0  0  0
   -2.9246    0.4677   -0.8738 O   0  0  0  0  0  0  0  0  0  0  0  0
   -0.1645   -0.4991   -0.6442 C   0  0  1  0  0  0  0  0  0  0  0  0
    0.0974    0.4406   -1.8593 C   0  0  0  0  0  0  0  0  0  0  0  0
    0.9934   -0.8104   -2.0901 C   0  0  1  0  0  0  0  0  0  0  0  0
    1.3746   -0.7331   -0.5838 C   0  0  0  0  0  0  0  0  0  0  0  0
   -0.2271   -1.6791   -1.6711 C   0  0  0  0  0  0  0  0  0  0  0  0
   -1.0618   -2.1429    1.0562 H   0  0  0  0  0  0  0  0  0  0  0  0
   -0.7748    0.6520    1.0536 H   0  0  0  0  0  0  0  0  0  0  0  0
   -3.2530   -0.4726    0.8949 H   0  0  0  0  0  0  0  0  0  0  0  0
   -0.7395    0.5908   -2.5419 H   0  0  0  0  0  0  0  0  0  0  0  0
    0.6148    1.3789   -1.6394 H   0  0  0  0  0  0  0  0  0  0  0  0
    1.6653   -0.9948   -2.9281 H   0  0  0  0  0  0  0  0  0  0  0  0
    1.7110   -1.6589   -0.1094 H   0  0  0  0  0  0  0  0  0  0  0  0
    1.9836    0.1204   -0.2728 H   0  0  0  0  0  0  0  0  0  0  0  0
   -1.0833   -1.6894   -2.3500 H   0  0  0  0  0  0  0  0  0  0  0  0
    0.0003   -2.6807   -1.2906 H   0  0  0  0  0  0  0  0  0  0  0  0
  2 11  1  1  0  0  0
  2  1  1  0  0  0  0
  3  2  1  0  0  0  0
  3 12  1  0  0  0  0
  4  3  2  0  0  0  0
  5  8  1  0  0  0  0
  5  2  1  1  0  0  0
  6 14  1  0  0  0  0
  6  5  1  0  0  0  0
  7 15  1  6  0  0  0
  7  6  1  0  0  0  0
  7  9  1  0  0  0  0
  7  8  1  0  0  0  0
  8 17  1  0  0  0  0
  8 16  1  0  0  0  0
  9 19  1  0  0  0  0
  9  5  1  0  0  0  0
 10  1  1  0  0  0  0
 13  6  1  0  0  0  0
 18  9  1  0  0  0  0
M TOR 0 0 1 2 3
M TOR 1 0 1 2 11
M TOR 2 0 1 4 5
M TOR 3 0 1 4 7
M TOR 4 0 1 4 8
M TOR 5 1 4 5 6
M TOR 6 1 4 5 12
M TOR 7 1 4 5 13
M TOR 8 1 4 7 6
M TOR 9 1 4 7 15
M TOR 10 1 4 7 16
M TOR 11 1 4 8 6
M TOR 12 1 4 8 17
M TOR 13 1 4 8 18
M TOR 14 2 1 0 9
M TOR 15 2 1 4 5
M TOR 16 2 1 4 7
M TOR 17 2 1 4 8
M TOR 18 3 2 1 4
M TOR 19 3 2 1 10
M TOR 20 4 1 0 9
M TOR 21 4 1 2 11
M TOR 22 4 5 6 7
M TOR 23 4 5 6 8
M TOR 24 4 5 6 14
M TOR 25 4 7 6 8
M TOR 26 4 7 6 14
M TOR 27 4 8 6 14
M TOR 28 5 4 1 10
M TOR 29 5 4 7 15
M TOR 30 5 4 7 16
M TOR 31 5 4 8 17
M TOR 32 5 4 8 18
M TOR 33 5 6 7 15
M TOR 34 5 6 7 16
M TOR 35 5 6 8 17
M TOR 36 5 6 8 18
M TOR 37 7 4 1 10
M TOR 38 7 4 5 12
M TOR 39 7 4 5 13
M TOR 40 7 4 8 17
M TOR 41 7 4 8 18
M TOR 42 7 6 5 12
M TOR 43 7 6 5 13
M TOR 44 7 6 8 17
M TOR 45 7 6 8 18
M TOR 46 8 4 1 10
M TOR 47 8 4 5 12
M TOR 48 8 4 5 13
M TOR 49 8 4 7 15
M TOR 50 8 4 7 16
M TOR 51 8 6 5 12
M TOR 52 8 6 5 13
M TOR 53 8 6 7 15
M TOR 54 8 6 7 16
M  END
$$$$
