
     RDKit          3D

 19 18  0  0  0  0  0  0  0  0999 V2000
   -0.5603   -1.5982   -2.5271 C   0  0  0  0  0  0  0  0  0  0  0  0
   -0.0896   -0.2385   -2.0066 C   0  0  0  0  0  0  0  0  0  0  0  0
   -0.6099    0.9272   -2.8723 C   0  0  0  0  0  0  0  0  0  0  0  0
   -0.5332   -0.0307   -0.5675 C   0  0  0  0  0  0  0  0  0  0  0  0
   -1.4121   -0.6306   -0.0005 O   0  0  0  0  0  0  0  0  0  0  0  0
    0.1827    0.9582    0.0175 O   0  0  0  0  0  0  0  0  0  0  0  0
   -0.2011    1.2589    1.3744 C   0  0  0  0  0  0  0  0  0  0  0  0
    0.6276    2.3464    1.8651 C   0  0  0  0  0  0  0  0  0  0  0  0
    1.2953    3.2437    2.3013 C   0  0  0  0  0  0  0  0  0  0  0  0
   -0.1574   -2.4176   -1.9257 H   0  0  0  0  0  0  0  0  0  0  0  0
   -1.6506   -1.6684   -2.4916 H   0  0  0  0  0  0  0  0  0  0  0  0
   -0.2352   -1.7387   -3.5622 H   0  0  0  0  0  0  0  0  0  0  0  0
    1.0056   -0.1943   -2.0089 H   0  0  0  0  0  0  0  0  0  0  0  0
   -0.2554    1.8892   -2.4943 H   0  0  0  0  0  0  0  0  0  0  0  0
   -0.2628    0.8119   -3.9032 H   0  0  0  0  0  0  0  0  0  0  0  0
   -1.7049    0.9420   -2.8849 H   0  0  0  0  0  0  0  0  0  0  0  0
   -1.2633    1.5251    1.3998 H   0  0  0  0  0  0  0  0  0  0  0  0
   -0.0838    0.3605    1.9900 H   0  0  0  0  0  0  0  0  0  0  0  0
    1.8872    4.0375    2.6854 H   0  0  0  0  0  0  0  0  0  0  0  0
  1  2  1  0
  2  3  1  0
  2  4  1  0
  4  5  2  0
  4  6  1  0
  6  7  1  0
  7  8  1  0
  8  9  3  0
  1 10  1  0
  1 11  1  0
  1 12  1  0
  2 13  1  0
  3 14  1  0
  3 15  1  0
  3 16  1  0
  7 17  1  0
  7 18  1  0
  9 19  1  0
M  END
$$$$
