gdb 2572	2.5437658	1.6283394	1.2122958	1.9139	77.04	-0.21821	0.02514	0.24334999999999998	1080.8721	0.155088	-422.560855	-422.551714	-422.550769	-422.593824	35.078
 OpenBabel02181911413D

 19 20  0  0  1  0  0  0  0  0999 V2000
    1.3209    0.6428   -0.1123 C   0  0  0  0  0  0  0  0  0  0  0  0
   -0.0392    0.0690    0.1181 C   0  0  0  0  0  0  0  0  0  0  0  0
   -1.2231    0.6931    0.0980 C   0  0  0  0  0  0  0  0  0  0  0  0
   -2.3945   -0.2385    0.3404 C   0  0  0  0  0  0  0  0  0  0  0  0
   -1.7170   -1.5801    0.6111 C   0  0  2  0  0  0  0  0  0  0  0  0
   -2.2584   -2.7423    0.0513 O   0  0  0  0  0  0  0  0  0  0  0  0
   -0.8069   -1.6974    1.8150 C   0  0  0  0  0  0  0  0  0  0  0  0
   -0.2320   -1.3828    0.4376 C   0  0  2  0  0  0  0  0  0  0  0  0
    0.5624   -2.3281   -0.2034 O   0  0  0  0  0  0  0  0  0  0  0  0
    1.9481    0.5483    0.7831 H   0  0  0  0  0  0  0  0  0  0  0  0
    1.8347    0.0946   -0.9097 H   0  0  0  0  0  0  0  0  0  0  0  0
    1.2704    1.6992   -0.3889 H   0  0  0  0  0  0  0  0  0  0  0  0
   -1.3559    1.7587   -0.0555 H   0  0  0  0  0  0  0  0  0  0  0  0
   -3.0277    0.0913    1.1744 H   0  0  0  0  0  0  0  0  0  0  0  0
   -3.0445   -0.3180   -0.5411 H   0  0  0  0  0  0  0  0  0  0  0  0
   -2.7894   -3.1914    0.7167 H   0  0  0  0  0  0  0  0  0  0  0  0
   -0.8266   -0.9297    2.5822 H   0  0  0  0  0  0  0  0  0  0  0  0
   -0.6210   -2.7095    2.1618 H   0  0  0  0  0  0  0  0  0  0  0  0
   -0.0434   -2.9479   -0.6312 H   0  0  0  0  0  0  0  0  0  0  0  0
  1  2  1  0  0  0  0
  1 10  1  0  0  0  0
  2  8  1  0  0  0  0
  3  2  2  0  0  0  0
  3  4  1  0  0  0  0
  4  5  1  0  0  0  0
  4 14  1  0  0  0  0
  5  6  1  6  0  0  0
  5  7  1  0  0  0  0
  6 16  1  0  0  0  0
  7 18  1  0  0  0  0
  7 17  1  0  0  0  0
  8  9  1  6  0  0  0
  8  5  1  0  0  0  0
  8  7  1  0  0  0  0
 11  1  1  0  0  0  0
 12  1  1  0  0  0  0
 13  3  1  0  0  0  0
 15  4  1  0  0  0  0
 19  9  1  0  0  0  0
M TOR 0 0 1 2 3
M TOR 1 0 1 2 12
M TOR 2 0 1 7 4
M TOR 3 0 1 7 6
M TOR 4 0 1 7 8
M TOR 5 1 2 3 4
M TOR 6 1 2 3 13
M TOR 7 1 2 3 14
M TOR 8 1 7 4 3
M TOR 9 1 7 4 5
M TOR 10 1 7 4 6
M TOR 11 1 7 6 16
M TOR 12 1 7 6 17
M TOR 13 1 7 8 18
M TOR 14 2 1 0 9
M TOR 15 2 1 0 10
M TOR 16 2 1 0 11
M TOR 17 2 1 7 4
M TOR 18 2 1 7 6
M TOR 19 2 1 7 8
M TOR 20 2 3 4 5
M TOR 21 2 3 4 6
M TOR 22 2 3 4 7
M TOR 23 3 2 1 7
M TOR 24 3 4 5 15
M TOR 25 3 4 6 7
M TOR 26 3 4 6 16
M TOR 27 3 4 6 17
M TOR 28 3 4 7 8
M TOR 29 4 3 2 12
M TOR 30 4 6 7 8
M TOR 31 4 7 6 16
M TOR 32 4 7 6 17
M TOR 33 4 7 8 18
M TOR 34 5 4 3 13
M TOR 35 5 4 3 14
M TOR 36 5 4 6 7
M TOR 37 5 4 6 16
M TOR 38 5 4 6 17
M TOR 39 5 4 7 8
M TOR 40 6 4 3 13
M TOR 41 6 4 3 14
M TOR 42 6 4 5 15
M TOR 43 6 7 8 18
M TOR 44 7 1 0 9
M TOR 45 7 1 0 10
M TOR 46 7 1 0 11
M TOR 47 7 1 2 12
M TOR 48 7 4 3 13
M TOR 49 7 4 3 14
M TOR 50 7 4 5 15
M TOR 51 8 7 6 16
M TOR 52 8 7 6 17
M  END
$$$$
