gdb 1826	2.7123403	1.4996069	1.1762084	3.1091	75.54	-0.24162	-0.02126	0.22036	1089.5785	0.156509	-422.560389	-422.552092	-422.551148	-422.593348	31.518
 OpenBabel02181911403D

 19 20  0  0  1  0  0  0  0  0999 V2000
    0.8092    0.0830   -3.0963 C   0  0  0  0  0  0  0  0  0  0  0  0
   -0.0165   -0.5023   -1.9856 C   0  0  1  0  0  0  0  0  0  0  0  0
   -1.2103   -1.4642   -2.2033 C   0  0  0  0  0  0  0  0  0  0  0  0
   -1.6061   -0.7947   -0.8747 C   0  0  1  0  0  0  0  0  0  0  0  0
   -0.5790   -1.3420    0.1358 C   0  0  0  0  0  0  0  0  0  0  0  0
    0.7028   -1.1344   -0.7415 C   0  0  2  0  0  0  0  0  0  0  0  0
    1.6928   -0.1884   -0.1128 C   0  0  0  0  0  0  0  0  0  0  0  0
    2.8563   -0.4387    0.0808 O   0  0  0  0  0  0  0  0  0  0  0  0
   -0.9500    0.4265   -1.3372 O   0  0  0  0  0  0  0  0  0  0  0  0
    1.4427   -0.6902   -3.5426 H   0  0  0  0  0  0  0  0  0  0  0  0
    0.1661    0.5011   -3.8750 H   0  0  0  0  0  0  0  0  0  0  0  0
    1.4621    0.8789   -2.7243 H   0  0  0  0  0  0  0  0  0  0  0  0
   -1.8370   -1.1344   -3.0331 H   0  0  0  0  0  0  0  0  0  0  0  0
   -1.0342   -2.5426   -2.2324 H   0  0  0  0  0  0  0  0  0  0  0  0
   -2.6371   -0.6521   -0.5534 H   0  0  0  0  0  0  0  0  0  0  0  0
   -0.5647   -0.7417    1.0495 H   0  0  0  0  0  0  0  0  0  0  0  0
   -0.7392   -2.3876    0.4087 H   0  0  0  0  0  0  0  0  0  0  0  0
    1.2188   -2.0644   -0.9911 H   0  0  0  0  0  0  0  0  0  0  0  0
    1.2571    0.7958    0.1702 H   0  0  0  0  0  0  0  0  0  0  0  0
  1 12  1  0  0  0  0
  2  1  1  6  0  0  0
  2  9  1  0  0  0  0
  2  6  1  0  0  0  0
  3  2  1  0  0  0  0
  3  4  1  0  0  0  0
  4 15  1  1  0  0  0
  4  5  1  0  0  0  0
  5 17  1  0  0  0  0
  5 16  1  0  0  0  0
  6 18  1  6  0  0  0
  6  7  1  0  0  0  0
  6  5  1  0  0  0  0
  7  8  2  0  0  0  0
  7 19  1  0  0  0  0
  9  4  1  0  0  0  0
 10  1  1  0  0  0  0
 11  1  1  0  0  0  0
 13  3  1  0  0  0  0
 14  3  1  0  0  0  0
M TOR 0 0 1 2 3
M TOR 1 0 1 2 12
M TOR 2 0 1 2 13
M TOR 3 0 1 5 4
M TOR 4 0 1 5 6
M TOR 5 0 1 5 17
M TOR 6 0 1 8 3
M TOR 7 1 2 3 4
M TOR 8 1 2 3 8
M TOR 9 1 2 3 14
M TOR 10 1 5 4 3
M TOR 11 1 5 4 15
M TOR 12 1 5 4 16
M TOR 13 1 5 6 7
M TOR 14 1 5 6 18
M TOR 15 1 8 3 4
M TOR 16 1 8 3 14
M TOR 17 2 1 0 9
M TOR 18 2 1 0 10
M TOR 19 2 1 0 11
M TOR 20 2 1 5 4
M TOR 21 2 1 5 6
M TOR 22 2 1 5 17
M TOR 23 2 3 4 5
M TOR 24 2 3 4 15
M TOR 25 2 3 4 16
M TOR 26 3 2 1 5
M TOR 27 3 4 5 6
M TOR 28 3 4 5 17
M TOR 29 3 8 1 5
M TOR 30 4 3 2 12
M TOR 31 4 3 2 13
M TOR 32 4 5 1 8
M TOR 33 4 5 6 7
M TOR 34 4 5 6 18
M TOR 35 5 1 0 9
M TOR 36 5 1 0 10
M TOR 37 5 1 0 11
M TOR 38 5 1 2 12
M TOR 39 5 1 2 13
M TOR 40 5 4 3 8
M TOR 41 5 4 3 14
M TOR 42 6 5 1 8
M TOR 43 6 5 4 15
M TOR 44 6 5 4 16
M TOR 45 7 6 5 17
M TOR 46 8 1 0 9
M TOR 47 8 1 0 10
M TOR 48 8 1 0 11
M TOR 49 8 1 2 12
M TOR 50 8 1 2 13
M TOR 51 8 1 5 17
M TOR 52 8 3 2 12
M TOR 53 8 3 2 13
M TOR 54 8 3 4 15
M TOR 55 8 3 4 16
M  END
$$$$
