
     RDKit          3D

 19 19  0  0  0  0  0  0  0  0999 V2000
    1.0610    0.3303   -0.6980 C   0  0  0  0  0  0  0  0  0  0  0  0
    0.4736   -0.3492    0.3957 O   0  0  0  0  0  0  0  0  0  0  0  0
   -0.0620    0.4527    1.3457 C   0  0  0  0  0  0  0  0  0  0  0  0
   -0.1297    1.8102    1.4247 C   0  0  0  0  0  0  0  0  0  0  0  0
   -0.7721    2.1588    2.5841 O   0  0  0  0  0  0  0  0  0  0  0  0
   -1.1071    1.0078    3.2323 C   0  0  0  0  0  0  0  0  0  0  0  0
   -1.8203    1.1698    4.5272 C   0  0  0  0  0  0  0  0  0  0  0  0
   -0.6976   -0.0815    2.5215 C   0  0  0  0  0  0  0  0  0  0  0  0
   -0.8447   -1.5358    2.8373 C   0  0  0  0  0  0  0  0  0  0  0  0
    1.8857    0.9754   -0.3654 H   0  0  0  0  0  0  0  0  0  0  0  0
    1.4464   -0.4327   -1.3760 H   0  0  0  0  0  0  0  0  0  0  0  0
    0.3196    0.9473   -1.2239 H   0  0  0  0  0  0  0  0  0  0  0  0
    0.1983    2.6212    0.7999 H   0  0  0  0  0  0  0  0  0  0  0  0
   -2.0425    0.1935    4.9629 H   0  0  0  0  0  0  0  0  0  0  0  0
   -1.2182    1.7351    5.2480 H   0  0  0  0  0  0  0  0  0  0  0  0
   -2.7662    1.7085    4.3988 H   0  0  0  0  0  0  0  0  0  0  0  0
   -1.3629   -1.6896    3.7874 H   0  0  0  0  0  0  0  0  0  0  0  0
   -1.4108   -2.0580    2.0577 H   0  0  0  0  0  0  0  0  0  0  0  0
    0.1309   -2.0305    2.9030 H   0  0  0  0  0  0  0  0  0  0  0  0
  1  2  1  0
  2  3  1  0
  3  4  2  0
  4  5  1  0
  5  6  1  0
  6  7  1  0
  6  8  2  0
  8  9  1  0
  8  3  1  0
  1 10  1  0
  1 11  1  0
  1 12  1  0
  4 13  1  0
  7 14  1  0
  7 15  1  0
  7 16  1  0
  9 17  1  0
  9 18  1  0
  9 19  1  0
M  END
$$$$
