
     RDKit          3D

 19 18  0  0  0  0  0  0  0  0999 V2000
    0.6406   -0.8844   -0.8955 C   0  0  0  0  0  0  0  0  0  0  0  0
    1.1697   -0.0097    0.2423 C   0  0  0  0  0  0  0  0  0  0  0  0
    1.2021    1.4843   -0.1399 C   0  0  0  0  0  0  0  0  0  0  0  0
    1.7007    2.3480    0.9199 C   0  0  0  0  0  0  0  0  0  0  0  0
    2.1163    3.0436    1.8126 C   0  0  0  0  0  0  0  0  0  0  0  0
    2.6013    3.9512    2.8218 C   0  0  0  0  0  0  0  0  0  0  0  0
    2.7012    5.1465    2.6849 O   0  0  0  0  0  0  0  0  0  0  0  0
    2.9326    3.2891    3.9495 O   0  0  0  0  0  0  0  0  0  0  0  0
    3.4267    4.1173    5.0097 C   0  0  0  0  0  0  0  0  0  0  0  0
    0.6254   -1.9389   -0.6053 H   0  0  0  0  0  0  0  0  0  0  0  0
   -0.3803   -0.6006   -1.1741 H   0  0  0  0  0  0  0  0  0  0  0  0
    1.2657   -0.7942   -1.7908 H   0  0  0  0  0  0  0  0  0  0  0  0
    0.5477   -0.1328    1.1356 H   0  0  0  0  0  0  0  0  0  0  0  0
    2.1805   -0.3247    0.5238 H   0  0  0  0  0  0  0  0  0  0  0  0
    1.8241    1.6244   -1.0345 H   0  0  0  0  0  0  0  0  0  0  0  0
    0.1939    1.8159   -0.4235 H   0  0  0  0  0  0  0  0  0  0  0  0
    3.6465    3.4390    5.8340 H   0  0  0  0  0  0  0  0  0  0  0  0
    4.3302    4.6472    4.6971 H   0  0  0  0  0  0  0  0  0  0  0  0
    2.6752    4.8529    5.3078 H   0  0  0  0  0  0  0  0  0  0  0  0
  1  2  1  0
  2  3  1  0
  3  4  1  0
  4  5  3  0
  5  6  1  0
  6  7  2  0
  6  8  1  0
  8  9  1  0
  1 10  1  0
  1 11  1  0
  1 12  1  0
  2 13  1  0
  2 14  1  0
  3 15  1  0
  3 16  1  0
  9 17  1  0
  9 18  1  0
  9 19  1  0
M  END
$$$$
