
     RDKit          3D

 19 19  0  0  0  0  0  0  0  0999 V2000
    3.4553   -4.6940   -1.1803 C   0  0  0  0  0  0  0  0  0  0  0  0
    3.0540   -3.3202   -0.6547 C   0  0  0  0  0  0  0  0  0  0  0  0
    2.4791   -3.2762    0.7944 C   0  0  0  0  0  0  0  0  0  0  0  0
    1.1834   -2.7771    0.1323 C   0  0  0  0  0  0  0  0  0  0  0  0
    0.7939   -1.3266    0.3698 C   0  0  0  0  0  0  0  0  0  0  0  0
   -0.1133   -0.8920   -0.6218 O   0  0  0  0  0  0  0  0  0  0  0  0
    1.7557   -2.9186   -1.1976 O   0  0  0  0  0  0  0  0  0  0  0  0
    4.0822   -2.3207   -0.9315 C   0  0  0  0  0  0  0  0  0  0  0  0
    4.9364   -1.5040   -1.1524 C   0  0  0  0  0  0  0  0  0  0  0  0
    4.3875   -5.0247   -0.7124 H   0  0  0  0  0  0  0  0  0  0  0  0
    2.6671   -5.4197   -0.9625 H   0  0  0  0  0  0  0  0  0  0  0  0
    3.6059   -4.6525   -2.2623 H   0  0  0  0  0  0  0  0  0  0  0  0
    2.4155   -4.2559    1.2693 H   0  0  0  0  0  0  0  0  0  0  0  0
    2.9671   -2.5706    1.4676 H   0  0  0  0  0  0  0  0  0  0  0  0
    0.3054   -3.4247    0.2371 H   0  0  0  0  0  0  0  0  0  0  0  0
    0.2933   -1.2217    1.3394 H   0  0  0  0  0  0  0  0  0  0  0  0
    1.7042   -0.7055    0.3875 H   0  0  0  0  0  0  0  0  0  0  0  0
    0.3071   -1.0974   -1.4665 H   0  0  0  0  0  0  0  0  0  0  0  0
    5.6861   -0.7781   -1.3513 H   0  0  0  0  0  0  0  0  0  0  0  0
  1  2  1  0
  2  3  1  0
  3  4  1  0
  4  5  1  0
  5  6  1  0
  4  7  1  0
  2  8  1  0
  8  9  3  0
  7  2  1  0
  1 10  1  0
  1 11  1  0
  1 12  1  0
  3 13  1  0
  3 14  1  0
  4 15  1  0
  5 16  1  0
  5 17  1  0
  6 18  1  0
  9 19  1  0
M  END
$$$$
