
     RDKit          3D

 19 18  0  0  0  0  0  0  0  0999 V2000
    1.4774    0.1414    0.1948 C   0  0  0  0  0  0  0  0  0  0  0  0
    0.0259    0.0695    0.1081 C   0  0  0  0  0  0  0  0  0  0  0  0
   -1.1758    0.0159    0.0487 C   0  0  0  0  0  0  0  0  0  0  0  0
   -2.6477   -0.0479   -0.0190 C   0  0  0  0  0  0  0  0  0  0  0  0
   -3.1678    0.9188   -1.0915 C   0  0  0  0  0  0  0  0  0  0  0  0
   -3.2424    0.3693    1.2043 O   0  0  0  0  0  0  0  0  0  0  0  0
   -3.0871   -1.4963   -0.3501 C   0  0  0  0  0  0  0  0  0  0  0  0
   -2.8019   -2.5089    0.7332 C   0  0  0  0  0  0  0  0  0  0  0  0
   -2.4891   -2.2455    1.8705 O   0  0  0  0  0  0  0  0  0  0  0  0
    1.8097    0.1381    1.2387 H   0  0  0  0  0  0  0  0  0  0  0  0
    1.9494   -0.7115   -0.3052 H   0  0  0  0  0  0  0  0  0  0  0  0
    1.8605    1.0549   -0.2731 H   0  0  0  0  0  0  0  0  0  0  0  0
   -2.8543    1.9355   -0.8463 H   0  0  0  0  0  0  0  0  0  0  0  0
   -2.7768    0.6571   -2.0780 H   0  0  0  0  0  0  0  0  0  0  0  0
   -4.2609    0.8860   -1.1145 H   0  0  0  0  0  0  0  0  0  0  0  0
   -2.9212   -0.2471    1.8783 H   0  0  0  0  0  0  0  0  0  0  0  0
   -4.1748   -1.5170   -0.5169 H   0  0  0  0  0  0  0  0  0  0  0  0
   -2.6277   -1.8482   -1.2820 H   0  0  0  0  0  0  0  0  0  0  0  0
   -2.9226   -3.5696    0.4203 H   0  0  0  0  0  0  0  0  0  0  0  0
  1  2  1  0
  2  3  3  0
  3  4  1  0
  4  5  1  0
  4  6  1  0
  4  7  1  0
  7  8  1  0
  8  9  2  0
  1 10  1  0
  1 11  1  0
  1 12  1  0
  5 13  1  0
  5 14  1  0
  5 15  1  0
  6 16  1  0
  7 17  1  0
  7 18  1  0
  8 19  1  0
M  END
$$$$
