gdb 4489	3.0620245	1.4373137	1.1499257	2.6952	74.86	-0.24995	0.06616	0.31611	1099.6057	0.157722	-422.464762	-422.457126	-422.456182	-422.496757	29.933
 OpenBabel02181911413D

 19 21  0  0  1  0  0  0  0  0999 V2000
    1.3921    1.1271   -0.0210 C   0  0  0  0  0  0  0  0  0  0  0  0
    1.0760   -0.3686    0.0143 C   0  0  1  0  0  0  0  0  0  0  0  0
    1.6752   -1.1731   -1.2403 C   0  0  0  0  0  0  0  0  0  0  0  0
    2.7629   -2.0426   -0.8097 O   0  0  0  0  0  0  0  0  0  0  0  0
    3.0758   -1.4838    0.4441 C   0  0  2  0  0  0  0  0  0  0  0  0
    3.6877   -1.9196    1.7920 C   0  0  2  0  0  0  0  0  0  0  0  0
    2.7807   -2.6270    2.6303 O   0  0  0  0  0  0  0  0  0  0  0  0
    2.5514   -1.2202    2.4544 C   0  0  2  0  0  0  0  0  0  0  0  0
    1.7442   -1.2057    1.1067 C   0  0  1  0  0  0  0  0  0  0  0  0
    0.9429    1.6388    0.8363 H   0  0  0  0  0  0  0  0  0  0  0  0
    2.4690    1.3243   -0.0037 H   0  0  0  0  0  0  0  0  0  0  0  0
    0.9908    1.5867   -0.9305 H   0  0  0  0  0  0  0  0  0  0  0  0
   -0.0111   -0.4921    0.0220 H   0  0  0  0  0  0  0  0  0  0  0  0
    0.9230   -1.8093   -1.7141 H   0  0  0  0  0  0  0  0  0  0  0  0
    2.0547   -0.4629   -1.9860 H   0  0  0  0  0  0  0  0  0  0  0  0
    3.5971   -0.5221    0.2832 H   0  0  0  0  0  0  0  0  0  0  0  0
    4.7393   -1.9648    2.0519 H   0  0  0  0  0  0  0  0  0  0  0  0
    2.5391   -0.5942    3.3377 H   0  0  0  0  0  0  0  0  0  0  0  0
    1.1957   -2.1511    1.1555 H   0  0  0  0  0  0  0  0  0  0  0  0
  1 11  1  0  0  0  0
  1  2  1  0  0  0  0
  1 10  1  0  0  0  0
  2 13  1  1  0  0  0
  2  9  1  0  0  0  0
  3  4  1  0  0  0  0
  3  2  1  0  0  0  0
  4  5  1  0  0  0  0
  5 16  1  6  0  0  0
  5  9  1  0  0  0  0
  5  6  1  0  0  0  0
  6 17  1  1  0  0  0
  6  8  1  0  0  0  0
  6  7  1  0  0  0  0
  8  7  1  0  0  0  0
  8 18  1  1  0  0  0
  9 19  1  6  0  0  0
  9  8  1  0  0  0  0
 12  1  1  0  0  0  0
 14  3  1  0  0  0  0
 15  3  1  0  0  0  0
M TOR 0 0 1 2 3
M TOR 1 0 1 2 13
M TOR 2 0 1 2 14
M TOR 3 0 1 8 4
M TOR 4 0 1 8 7
M TOR 5 0 1 8 18
M TOR 6 1 2 3 4
M TOR 7 1 8 4 3
M TOR 8 1 8 4 5
M TOR 9 1 8 4 15
M TOR 10 1 8 7 5
M TOR 11 1 8 7 6
M TOR 12 1 8 7 17
M TOR 13 2 1 0 9
M TOR 14 2 1 0 10
M TOR 15 2 1 0 11
M TOR 16 2 1 8 4
M TOR 17 2 1 8 7
M TOR 18 2 1 8 18
M TOR 19 2 3 4 5
M TOR 20 2 3 4 8
M TOR 21 2 3 4 15
M TOR 22 3 2 1 8
M TOR 23 3 2 1 12
M TOR 24 3 4 5 6
M TOR 25 3 4 5 7
M TOR 26 3 4 5 16
M TOR 27 3 4 8 7
M TOR 28 3 4 8 18
M TOR 29 4 3 2 13
M TOR 30 4 3 2 14
M TOR 31 4 5 6 7
M TOR 32 4 5 7 8
M TOR 33 4 5 7 17
M TOR 34 4 8 1 12
M TOR 35 4 8 7 6
M TOR 36 4 8 7 17
M TOR 37 5 4 8 18
M TOR 38 5 6 7 8
M TOR 39 5 6 7 17
M TOR 40 5 7 8 18
M TOR 41 6 5 4 8
M TOR 42 6 5 4 15
M TOR 43 6 7 5 16
M TOR 44 6 7 8 18
M TOR 45 7 5 4 15
M TOR 46 7 8 1 12
M TOR 47 7 8 4 15
M TOR 48 8 1 0 9
M TOR 49 8 1 0 10
M TOR 50 8 1 0 11
M TOR 51 8 1 2 13
M TOR 52 8 1 2 14
M TOR 53 8 4 5 16
M TOR 54 8 7 5 16
M  END
$$$$
