
     RDKit          3D

 19 19  0  0  0  0  0  0  0  0999 V2000
   -0.5571    2.2842    1.0839 C   0  0  0  0  0  0  0  0  0  0  0  0
   -0.9128    1.1746    0.0939 C   0  0  0  0  0  0  0  0  0  0  0  0
   -2.4313    0.9759   -0.0783 C   0  0  0  0  0  0  0  0  0  0  0  0
   -2.7966   -0.0730   -1.1250 C   0  0  0  0  0  0  0  0  0  0  0  0
   -3.8513   -0.0589   -1.7118 O   0  0  0  0  0  0  0  0  0  0  0  0
   -1.7329   -1.1372   -1.3790 C   0  0  0  0  0  0  0  0  0  0  0  0
   -0.8670   -1.4090   -0.1416 C   0  0  0  0  0  0  0  0  0  0  0  0
   -0.2311   -0.1516    0.4493 C   0  0  0  0  0  0  0  0  0  0  0  0
    0.7458   -0.2097    1.1574 O   0  0  0  0  0  0  0  0  0  0  0  0
   -0.9844    2.0756    2.0703 H   0  0  0  0  0  0  0  0  0  0  0  0
    0.5253    2.3577    1.2031 H   0  0  0  0  0  0  0  0  0  0  0  0
   -0.9445    3.2480    0.7416 H   0  0  0  0  0  0  0  0  0  0  0  0
   -0.5022    1.4450   -0.8933 H   0  0  0  0  0  0  0  0  0  0  0  0
   -2.8692    0.6491    0.8767 H   0  0  0  0  0  0  0  0  0  0  0  0
   -2.9339    1.9113   -0.3387 H   0  0  0  0  0  0  0  0  0  0  0  0
   -2.2242   -2.0404   -1.7485 H   0  0  0  0  0  0  0  0  0  0  0  0
   -1.1020   -0.7681   -2.2003 H   0  0  0  0  0  0  0  0  0  0  0  0
   -1.4840   -1.8507    0.6538 H   0  0  0  0  0  0  0  0  0  0  0  0
   -0.0726   -2.1318   -0.3440 H   0  0  0  0  0  0  0  0  0  0  0  0
  1  2  1  0
  2  3  1  0
  3  4  1  0
  4  5  2  0
  4  6  1  0
  6  7  1  0
  7  8  1  0
  8  9  2  0
  8  2  1  0
  1 10  1  0
  1 11  1  0
  1 12  1  0
  2 13  1  0
  3 14  1  0
  3 15  1  0
  6 16  1  0
  6 17  1  0
  7 18  1  0
  7 19  1  0
M  END
$$$$
