gdb 3454	2.0772461	1.5464588	0.9994463	2.4336	76.93	-0.24507	-0.03037	0.2147	1211.7378	0.155481	-422.582805	-422.573596	-422.572652	-422.617204	33.656
 OpenBabel02181911413D

 19 19  0  0  1  0  0  0  0  0999 V2000
    0.5415    0.9297   -0.4125 C   0  0  0  0  0  0  0  0  0  0  0  0
    0.9338   -0.5268   -0.1400 C   0  0  1  0  0  0  0  0  0  0  0  0
    1.7309   -1.1791   -1.2532 C   0  0  0  0  0  0  0  0  0  0  0  0
    2.7701   -1.8813   -0.8075 C   0  0  0  0  0  0  0  0  0  0  0  0
    2.8398   -1.8849    0.6977 C   0  0  1  0  0  0  0  0  0  0  0  0
    4.1615   -1.7139    1.1772 O   0  0  0  0  0  0  0  0  0  0  0  0
    1.8906   -0.7199    1.0705 C   0  0  2  0  0  0  0  0  0  0  0  0
    1.2497   -0.8714    2.4243 C   0  0  0  0  0  0  0  0  0  0  0  0
    1.6796   -1.5983    3.2887 O   0  0  0  0  0  0  0  0  0  0  0  0
    0.0016    1.3644    0.4357 H   0  0  0  0  0  0  0  0  0  0  0  0
    1.4299    1.5430   -0.5979 H   0  0  0  0  0  0  0  0  0  0  0  0
   -0.1088    1.0036   -1.2902 H   0  0  0  0  0  0  0  0  0  0  0  0
    0.0091   -1.1024    0.0247 H   0  0  0  0  0  0  0  0  0  0  0  0
    1.4345   -1.0846   -2.2928 H   0  0  0  0  0  0  0  0  0  0  0  0
    3.4660   -2.4532   -1.4099 H   0  0  0  0  0  0  0  0  0  0  0  0
    2.4321   -2.8324    1.0855 H   0  0  0  0  0  0  0  0  0  0  0  0
    4.1301   -1.8865    2.1250 H   0  0  0  0  0  0  0  0  0  0  0  0
    2.5246    0.1784    1.1348 H   0  0  0  0  0  0  0  0  0  0  0  0
    0.3441   -0.2499    2.6093 H   0  0  0  0  0  0  0  0  0  0  0  0
  1  2  1  0  0  0  0
  1 10  1  0  0  0  0
  2 13  1  1  0  0  0
  2  7  1  0  0  0  0
  3  4  2  0  0  0  0
  3  2  1  0  0  0  0
  4  5  1  0  0  0  0
  5  7  1  0  0  0  0
  5 16  1  1  0  0  0
  5  6  1  0  0  0  0
  6 17  1  0  0  0  0
  7 18  1  1  0  0  0
  7  8  1  0  0  0  0
  8 19  1  0  0  0  0
  8  9  2  0  0  0  0
 11  1  1  0  0  0  0
 12  1  1  0  0  0  0
 14  3  1  0  0  0  0
 15  4  1  0  0  0  0
M TOR 0 0 1 2 3
M TOR 1 0 1 2 13
M TOR 2 0 1 6 4
M TOR 3 0 1 6 7
M TOR 4 0 1 6 17
M TOR 5 1 2 3 4
M TOR 6 1 2 3 14
M TOR 7 1 6 4 3
M TOR 8 1 6 4 5
M TOR 9 1 6 4 15
M TOR 10 1 6 7 8
M TOR 11 1 6 7 18
M TOR 12 2 1 0 9
M TOR 13 2 1 0 10
M TOR 14 2 1 0 11
M TOR 15 2 1 6 4
M TOR 16 2 1 6 7
M TOR 17 2 1 6 17
M TOR 18 2 3 4 5
M TOR 19 2 3 4 6
M TOR 20 2 3 4 15
M TOR 21 3 2 1 6
M TOR 22 3 2 1 12
M TOR 23 3 4 5 16
M TOR 24 3 4 6 7
M TOR 25 3 4 6 17
M TOR 26 4 3 2 13
M TOR 27 4 6 1 12
M TOR 28 4 6 7 8
M TOR 29 4 6 7 18
M TOR 30 5 4 3 14
M TOR 31 5 4 6 7
M TOR 32 5 4 6 17
M TOR 33 6 1 0 9
M TOR 34 6 1 0 10
M TOR 35 6 1 0 11
M TOR 36 6 1 2 13
M TOR 37 6 4 3 14
M TOR 38 6 4 5 16
M TOR 39 7 6 1 12
M TOR 40 7 6 4 15
M TOR 41 8 7 6 17
M  END
$$$$
