gdb 428	3.2254884	1.1874617	1.0225667	2.0046	74.87	-0.26343	0.08122	0.34465	1205.2432	0.156037	-422.492077	-422.483484	-422.48254	-422.525804	31.834
 OpenBabel02181911403D

 19 21  0  0  1  0  0  0  0  0999 V2000
    4.4084   -1.1679   -0.1910 C   0  0  0  0  0  0  0  0  0  0  0  0
    4.0958   -2.1196    0.8306 O   0  0  0  0  0  0  0  0  0  0  0  0
    3.0373   -1.3108    0.3219 C   0  0  2  0  0  0  0  0  0  0  0  0
    1.9514   -2.0031   -0.4524 C   0  0  0  0  0  0  0  0  0  0  0  0
    1.2853   -3.2081    0.1644 C   0  0  0  0  0  0  0  0  0  0  0  0
    2.2204   -3.3796   -1.0082 C   0  0  0  0  0  0  0  0  0  0  0  0
    1.1183   -1.0531   -1.2655 C   0  0  2  0  0  0  0  0  0  0  0  0
   -0.1428   -0.4812   -0.7693 C   0  0  0  0  0  0  0  0  0  0  0  0
   -0.1380   -1.5289   -1.7436 O   0  0  0  0  0  0  0  0  0  0  0  0
    5.0254   -0.3295    0.1279 H   0  0  0  0  0  0  0  0  0  0  0  0
    4.6595   -1.5967   -1.1597 H   0  0  0  0  0  0  0  0  0  0  0  0
    2.6852   -0.5551    1.0275 H   0  0  0  0  0  0  0  0  0  0  0  0
    1.6379   -3.5271    1.1386 H   0  0  0  0  0  0  0  0  0  0  0  0
    0.2252   -3.3366   -0.0200 H   0  0  0  0  0  0  0  0  0  0  0  0
    3.1942   -3.8121   -0.8105 H   0  0  0  0  0  0  0  0  0  0  0  0
    1.7814   -3.6226   -1.9691 H   0  0  0  0  0  0  0  0  0  0  0  0
    1.6761   -0.4715   -2.0028 H   0  0  0  0  0  0  0  0  0  0  0  0
   -0.5041   -0.7695    0.2164 H   0  0  0  0  0  0  0  0  0  0  0  0
   -0.4816    0.4882   -1.1309 H   0  0  0  0  0  0  0  0  0  0  0  0
  1 10  1  0  0  0  0
  1  3  1  0  0  0  0
  1  2  1  0  0  0  0
  3  2  1  0  0  0  0
  3 12  1  1  0  0  0
  4  5  1  0  0  0  0
  4  3  1  0  0  0  0
  5 13  1  0  0  0  0
  6 15  1  0  0  0  0
  6  4  1  0  0  0  0
  6  5  1  0  0  0  0
  7 17  1  6  0  0  0
  7  8  1  0  0  0  0
  7  4  1  0  0  0  0
  8 18  1  0  0  0  0
  9  7  1  0  0  0  0
  9  8  1  0  0  0  0
 11  1  1  0  0  0  0
 14  5  1  0  0  0  0
 16  6  1  0  0  0  0
 19  8  1  0  0  0  0
M TOR 0 0 1 2 3
M TOR 1 0 1 2 11
M TOR 2 0 2 3 4
M TOR 3 0 2 3 5
M TOR 4 0 2 3 6
M TOR 5 1 2 0 9
M TOR 6 1 2 0 10
M TOR 7 1 2 3 4
M TOR 8 1 2 3 5
M TOR 9 1 2 3 6
M TOR 10 2 3 4 5
M TOR 11 2 3 4 12
M TOR 12 2 3 4 13
M TOR 13 2 3 5 14
M TOR 14 2 3 5 15
M TOR 15 2 3 6 7
M TOR 16 2 3 6 8
M TOR 17 2 3 6 16
M TOR 18 3 2 0 9
M TOR 19 3 2 0 10
M TOR 20 3 4 5 14
M TOR 21 3 4 5 15
M TOR 22 3 5 4 12
M TOR 23 3 5 4 13
M TOR 24 3 6 7 8
M TOR 25 3 6 7 17
M TOR 26 3 6 7 18
M TOR 27 4 3 2 11
M TOR 28 4 3 6 7
M TOR 29 4 3 6 8
M TOR 30 4 3 6 16
M TOR 31 4 5 3 6
M TOR 32 5 3 2 11
M TOR 33 5 3 6 7
M TOR 34 5 3 6 8
M TOR 35 5 3 6 16
M TOR 36 6 3 2 11
M TOR 37 6 3 4 12
M TOR 38 6 3 4 13
M TOR 39 6 3 5 14
M TOR 40 6 3 5 15
M TOR 41 6 8 7 17
M TOR 42 6 8 7 18
M TOR 43 7 8 6 16
M  END
$$$$
