gdb 5628	3.1513209	1.3279802	1.0522789	0.7939	77.31	-0.23921	0.00931	0.24852000000000002	1176.7206	0.157575	-422.532902	-422.524706	-422.523761	-422.565988	30.409
 OpenBabel02181911423D

 19 20  0  0  1  0  0  0  0  0999 V2000
    1.4021   -0.1788   -0.0631 C   0  0  0  0  0  0  0  0  0  0  0  0
    0.0386    0.1836   -0.0829 O   0  0  0  0  0  0  0  0  0  0  0  0
   -0.4183    0.7471    1.1369 C   0  0  2  0  0  0  0  0  0  0  0  0
   -1.9254    0.6911    1.1783 C   0  0  0  0  0  0  0  0  0  0  0  0
   -2.4885    1.8993    1.2218 C   0  0  0  0  0  0  0  0  0  0  0  0
   -1.4779    3.0081    1.2469 C   0  0  1  0  0  0  0  0  0  0  0  0
   -1.0490    3.5109    2.6503 C   0  0  0  0  0  0  0  0  0  0  0  0
    0.1126    2.6574    2.6449 O   0  0  0  0  0  0  0  0  0  0  0  0
   -0.1217    2.2565    1.2757 C   0  0  1  0  0  0  0  0  0  0  0  0
    1.6094   -0.9326    0.7124 H   0  0  0  0  0  0  0  0  0  0  0  0
    1.6374   -0.6032   -1.0422 H   0  0  0  0  0  0  0  0  0  0  0  0
    2.0635    0.6825    0.1141 H   0  0  0  0  0  0  0  0  0  0  0  0
    0.0374    0.2174    1.9898 H   0  0  0  0  0  0  0  0  0  0  0  0
   -2.4557   -0.2539    1.1599 H   0  0  0  0  0  0  0  0  0  0  0  0
   -3.5571    2.0844    1.2597 H   0  0  0  0  0  0  0  0  0  0  0  0
   -1.6455    3.7864    0.4993 H   0  0  0  0  0  0  0  0  0  0  0  0
   -0.7709    4.5722    2.6836 H   0  0  0  0  0  0  0  0  0  0  0  0
   -1.7257    3.2859    3.4825 H   0  0  0  0  0  0  0  0  0  0  0  0
    0.6750    2.5922    0.6034 H   0  0  0  0  0  0  0  0  0  0  0  0
  1 12  1  0  0  0  0
  1 10  1  0  0  0  0
  2  1  1  0  0  0  0
  2  3  1  0  0  0  0
  3  4  1  0  0  0  0
  3  9  1  0  0  0  0
  3 13  1  1  0  0  0
  4  5  2  0  0  0  0
  5  6  1  0  0  0  0
  5 15  1  0  0  0  0
  6 16  1  6  0  0  0
  6  9  1  0  0  0  0
  6  7  1  0  0  0  0
  7 17  1  0  0  0  0
  7 18  1  0  0  0  0
  8  7  1  0  0  0  0
  9 19  1  6  0  0  0
  9  8  1  0  0  0  0
 11  1  1  0  0  0  0
 14  4  1  0  0  0  0
M TOR 0 0 1 2 3
M TOR 1 0 1 2 8
M TOR 2 0 1 2 12
M TOR 3 1 2 3 4
M TOR 4 1 2 3 13
M TOR 5 1 2 8 5
M TOR 6 1 2 8 7
M TOR 7 1 2 8 18
M TOR 8 2 1 0 9
M TOR 9 2 1 0 10
M TOR 10 2 1 0 11
M TOR 11 2 3 4 5
M TOR 12 2 3 4 14
M TOR 13 2 8 5 4
M TOR 14 2 8 5 6
M TOR 15 2 8 5 15
M TOR 16 2 8 7 6
M TOR 17 3 2 8 5
M TOR 18 3 2 8 7
M TOR 19 3 2 8 18
M TOR 20 3 4 5 6
M TOR 21 3 4 5 8
M TOR 22 3 4 5 15
M TOR 23 4 3 2 8
M TOR 24 4 3 2 12
M TOR 25 4 5 6 7
M TOR 26 4 5 6 16
M TOR 27 4 5 6 17
M TOR 28 4 5 8 7
M TOR 29 4 5 8 18
M TOR 30 5 4 3 13
M TOR 31 5 6 7 8
M TOR 32 5 8 2 12
M TOR 33 6 5 4 14
M TOR 34 6 5 8 18
M TOR 35 6 7 8 18
M TOR 36 7 6 5 15
M TOR 37 7 8 2 12
M TOR 38 7 8 5 15
M TOR 39 8 2 3 13
M TOR 40 8 5 4 14
M TOR 41 8 5 6 16
M TOR 42 8 5 6 17
M TOR 43 8 7 6 16
M TOR 44 8 7 6 17
M  END
$$$$
