
     RDKit          3D

 19 21  0  0  0  0  0  0  0  0999 V2000
    3.1470    1.6571    0.0945 C   0  0  0  0  0  0  0  0  0  0  0  0
    1.9355    1.1223   -0.6807 C   0  0  0  0  0  0  0  0  0  0  0  0
    1.1220    2.2688   -1.3052 C   0  0  0  0  0  0  0  0  0  0  0  0
   -0.2175    1.8388   -1.8629 C   0  0  0  0  0  0  0  0  0  0  0  0
   -0.2999    0.5654   -2.5125 O   0  0  0  0  0  0  0  0  0  0  0  0
   -0.9624    0.7385   -1.2436 C   0  0  0  0  0  0  0  0  0  0  0  0
   -0.3473    0.0252   -0.0813 C   0  0  0  0  0  0  0  0  0  0  0  0
    0.0797    0.8532    1.0194 O   0  0  0  0  0  0  0  0  0  0  0  0
    1.0765    0.2315    0.1995 C   0  0  0  0  0  0  0  0  0  0  0  0
    2.8256    2.2696    0.9438 H   0  0  0  0  0  0  0  0  0  0  0  0
    3.7609    0.8382    0.4837 H   0  0  0  0  0  0  0  0  0  0  0  0
    3.7826    2.2756   -0.5471 H   0  0  0  0  0  0  0  0  0  0  0  0
    2.2950    0.4786   -1.4938 H   0  0  0  0  0  0  0  0  0  0  0  0
    0.9287    3.0389   -0.5483 H   0  0  0  0  0  0  0  0  0  0  0  0
    1.7151    2.7451   -2.0949 H   0  0  0  0  0  0  0  0  0  0  0  0
   -0.7910    2.6233   -2.3582 H   0  0  0  0  0  0  0  0  0  0  0  0
   -2.0496    0.7274   -1.3063 H   0  0  0  0  0  0  0  0  0  0  0  0
   -0.8191   -0.9076    0.2252 H   0  0  0  0  0  0  0  0  0  0  0  0
    1.6151   -0.5751    0.7006 H   0  0  0  0  0  0  0  0  0  0  0  0
  1  2  1  0
  2  3  1  0
  3  4  1  0
  4  5  1  0
  5  6  1  0
  6  7  1  0
  7  8  1  0
  8  9  1  0
  9  2  1  0
  6  4  1  0
  9  7  1  0
  1 10  1  0
  1 11  1  0
  1 12  1  0
  2 13  1  0
  3 14  1  0
  3 15  1  0
  4 16  1  0
  6 17  1  0
  7 18  1  0
  9 19  1  0
M  END
$$$$
