
     RDKit          3D

 19 20  0  0  0  0  0  0  0  0999 V2000
    1.1758    3.9550   -1.8874 O   0  0  0  0  0  0  0  0  0  0  0  0
    0.8682    2.9408   -1.3029 C   0  0  0  0  0  0  0  0  0  0  0  0
    0.5988    1.6499   -2.0724 C   0  0  0  0  0  0  0  0  0  0  0  0
    1.1305    0.3462   -1.4439 C   0  0  0  0  0  0  0  0  0  0  0  0
    0.3167   -0.0927   -0.2429 C   0  0  0  0  0  0  0  0  0  0  0  0
    1.0023   -0.5499    1.0295 C   0  0  0  0  0  0  0  0  0  0  0  0
    0.3487    0.7943    0.9774 C   0  0  0  0  0  0  0  0  0  0  0  0
    1.2032    1.8975    0.9485 O   0  0  0  0  0  0  0  0  0  0  0  0
    0.6861    3.0004    0.2239 C   0  0  0  0  0  0  0  0  0  0  0  0
   -0.4928    1.5705   -2.1862 H   0  0  0  0  0  0  0  0  0  0  0  0
    1.0077    1.8067   -3.0744 H   0  0  0  0  0  0  0  0  0  0  0  0
    1.1105   -0.4408   -2.2056 H   0  0  0  0  0  0  0  0  0  0  0  0
    2.1800    0.4768   -1.1635 H   0  0  0  0  0  0  0  0  0  0  0  0
   -0.6386   -0.5549   -0.4790 H   0  0  0  0  0  0  0  0  0  0  0  0
    0.5364   -1.3237    1.6290 H   0  0  0  0  0  0  0  0  0  0  0  0
    2.0869   -0.5611    1.0342 H   0  0  0  0  0  0  0  0  0  0  0  0
   -0.5712    0.9591    1.5400 H   0  0  0  0  0  0  0  0  0  0  0  0
   -0.3881    3.1384    0.4345 H   0  0  0  0  0  0  0  0  0  0  0  0
    1.2132    3.8925    0.5691 H   0  0  0  0  0  0  0  0  0  0  0  0
  1  2  2  0
  2  3  1  0
  3  4  1  0
  4  5  1  0
  5  6  1  0
  6  7  1  0
  7  8  1  0
  8  9  1  0
  9  2  1  0
  7  5  1  0
  3 10  1  0
  3 11  1  0
  4 12  1  0
  4 13  1  0
  5 14  1  0
  6 15  1  0
  6 16  1  0
  7 17  1  0
  9 18  1  0
  9 19  1  0
M  END
$$$$
