gdb 3596	2.5710121	1.5575442	1.1715405	2.6671	76.61	-0.24219	-0.00131	0.24087999999999998	1104.3914	0.157451	-422.556736	-422.548446	-422.547502	-422.589491	32.051
 OpenBabel02181911413D

 19 20  0  0  1  0  0  0  0  0999 V2000
    1.4165    0.7087   -0.5497 C   0  0  0  0  0  0  0  0  0  0  0  0
    0.0532    0.1304   -0.3040 C   0  0  0  0  0  0  0  0  0  0  0  0
   -0.1352   -1.1501    0.0344 C   0  0  0  0  0  0  0  0  0  0  0  0
   -1.4869   -1.6932    0.3022 C   0  0  2  0  0  0  0  0  0  0  0  0
   -2.2944   -2.0968   -0.8407 O   0  0  0  0  0  0  0  0  0  0  0  0
   -2.6603   -0.9163   -0.1157 C   0  0  2  0  0  0  0  0  0  0  0  0
   -2.4223    0.3930   -0.8893 C   0  0  2  0  0  0  0  0  0  0  0  0
   -2.3911    0.1422   -2.2812 O   0  0  0  0  0  0  0  0  0  0  0  0
   -1.1223    1.0797   -0.4310 C   0  0  0  0  0  0  0  0  0  0  0  0
    1.5971    1.5726    0.1030 H   0  0  0  0  0  0  0  0  0  0  0  0
    2.2088   -0.0244   -0.3771 H   0  0  0  0  0  0  0  0  0  0  0  0
    1.5022    1.0763   -1.5799 H   0  0  0  0  0  0  0  0  0  0  0  0
    0.7095   -1.8262    0.1364 H   0  0  0  0  0  0  0  0  0  0  0  0
   -1.5825   -2.3862    1.1369 H   0  0  0  0  0  0  0  0  0  0  0  0
   -3.5930   -1.0051    0.4380 H   0  0  0  0  0  0  0  0  0  0  0  0
   -3.2620    1.0729   -0.7028 H   0  0  0  0  0  0  0  0  0  0  0  0
   -2.1366   -0.7872   -2.3722 H   0  0  0  0  0  0  0  0  0  0  0  0
   -0.8926    1.8679   -1.1554 H   0  0  0  0  0  0  0  0  0  0  0  0
   -1.2826    1.5846    0.5338 H   0  0  0  0  0  0  0  0  0  0  0  0
  1 11  1  0  0  0  0
  1  2  1  0  0  0  0
  1 10  1  0  0  0  0
  2  3  2  0  0  0  0
  3 13  1  0  0  0  0
  3  4  1  0  0  0  0
  4 14  1  1  0  0  0
  5  6  1  0  0  0  0
  5  4  1  0  0  0  0
  6  4  1  0  0  0  0
  6 15  1  1  0  0  0
  7 16  1  1  0  0  0
  7  9  1  0  0  0  0
  7  6  1  0  0  0  0
  8  7  1  0  0  0  0
  9  2  1  0  0  0  0
  9 19  1  0  0  0  0
 12  1  1  0  0  0  0
 17  8  1  0  0  0  0
 18  9  1  0  0  0  0
M TOR 0 0 1 2 3
M TOR 1 0 1 2 12
M TOR 2 0 1 8 6
M TOR 3 0 1 8 17
M TOR 4 0 1 8 18
M TOR 5 1 2 3 4
M TOR 6 1 2 3 5
M TOR 7 1 2 3 13
M TOR 8 1 8 6 5
M TOR 9 1 8 6 7
M TOR 10 1 8 6 15
M TOR 11 2 1 0 9
M TOR 12 2 1 0 10
M TOR 13 2 1 0 11
M TOR 14 2 1 8 6
M TOR 15 2 1 8 17
M TOR 16 2 1 8 18
M TOR 17 2 3 4 5
M TOR 18 2 3 5 6
M TOR 19 2 3 5 14
M TOR 20 3 2 1 8
M TOR 21 3 4 5 6
M TOR 22 3 4 5 14
M TOR 23 3 5 6 7
M TOR 24 3 5 6 8
M TOR 25 3 5 6 15
M TOR 26 4 3 2 12
M TOR 27 4 5 3 13
M TOR 28 4 5 6 7
M TOR 29 4 5 6 8
M TOR 30 4 5 6 15
M TOR 31 5 3 2 12
M TOR 32 5 6 7 16
M TOR 33 5 6 8 17
M TOR 34 5 6 8 18
M TOR 35 6 5 3 13
M TOR 36 7 6 5 14
M TOR 37 7 6 8 17
M TOR 38 7 6 8 18
M TOR 39 8 1 0 9
M TOR 40 8 1 0 10
M TOR 41 8 1 0 11
M TOR 42 8 1 2 12
M TOR 43 8 6 5 14
M TOR 44 8 6 7 16
M  END
$$$$
