gdb 5033	2.6651945	1.6177072	1.2612693	1.8146	75.31	-0.23609	0.00755	0.24364	1038.6958	0.157659	-422.530372	-422.522286	-422.521342	-422.562479	32.284
 OpenBabel02181911413D

 19 20  0  0  1  0  0  0  0  0999 V2000
    1.4042    0.7418    0.0779 O   0  0  0  0  0  0  0  0  0  0  0  0
    0.0386    0.3827    0.2241 C   0  0  0  0  0  0  0  0  0  0  0  0
   -0.8423    1.0369   -0.8161 C   0  0  1  0  0  0  0  0  0  0  0  0
   -0.5944    0.9075   -2.3600 C   0  0  0  0  0  0  0  0  0  0  0  0
   -1.5085    2.1766   -2.4030 C   0  0  1  0  0  0  0  0  0  0  0  0
   -2.7930    1.6176   -1.7973 C   0  0  0  0  0  0  0  0  0  0  0  0
   -2.3602    0.8788   -0.7670 C   0  0  0  0  0  0  0  0  0  0  0  0
   -0.7983    2.6137   -1.0612 C   0  0  2  0  0  0  0  0  0  0  0  0
    0.4671    3.2320   -1.1311 O   0  0  0  0  0  0  0  0  0  0  0  0
    1.4357    1.7067    0.0794 H   0  0  0  0  0  0  0  0  0  0  0  0
   -0.0038   -0.7092    0.1320 H   0  0  0  0  0  0  0  0  0  0  0  0
   -0.3362    0.6356    1.2306 H   0  0  0  0  0  0  0  0  0  0  0  0
    0.4483    1.0760   -2.6516 H   0  0  0  0  0  0  0  0  0  0  0  0
   -0.9713    0.0069   -2.8497 H   0  0  0  0  0  0  0  0  0  0  0  0
   -1.5682    2.8376   -3.2674 H   0  0  0  0  0  0  0  0  0  0  0  0
   -3.8017    1.8351   -2.1185 H   0  0  0  0  0  0  0  0  0  0  0  0
   -2.9206    0.3332   -0.0202 H   0  0  0  0  0  0  0  0  0  0  0  0
   -1.3935    3.2185   -0.3735 H   0  0  0  0  0  0  0  0  0  0  0  0
    0.9679    2.8448   -1.8576 H   0  0  0  0  0  0  0  0  0  0  0  0
  1 10  1  0  0  0  0
  1  2  1  0  0  0  0
  2 12  1  0  0  0  0
  3  7  1  0  0  0  0
  3  2  1  1  0  0  0
  4  3  1  0  0  0  0
  5 15  1  6  0  0  0
  5  4  1  0  0  0  0
  5  6  1  0  0  0  0
  5  8  1  0  0  0  0
  6  7  2  0  0  0  0
  7 17  1  0  0  0  0
  8  3  1  0  0  0  0
  8 18  1  1  0  0  0
  9  8  1  0  0  0  0
 11  2  1  0  0  0  0
 13  4  1  0  0  0  0
 14  4  1  0  0  0  0
 16  6  1  0  0  0  0
 19  9  1  0  0  0  0
M TOR 0 0 1 2 3
M TOR 1 0 1 2 6
M TOR 2 0 1 2 7
M TOR 3 1 2 3 4
M TOR 4 1 2 3 12
M TOR 5 1 2 3 13
M TOR 6 1 2 6 5
M TOR 7 1 2 6 16
M TOR 8 1 2 7 4
M TOR 9 1 2 7 8
M TOR 10 1 2 7 17
M TOR 11 2 1 0 9
M TOR 12 2 3 4 5
M TOR 13 2 3 4 7
M TOR 14 2 3 4 14
M TOR 15 2 6 5 4
M TOR 16 2 6 5 15
M TOR 17 2 7 4 5
M TOR 18 2 7 4 14
M TOR 19 2 7 8 18
M TOR 20 3 2 1 10
M TOR 21 3 2 1 11
M TOR 22 3 2 6 5
M TOR 23 3 2 6 16
M TOR 24 3 2 7 8
M TOR 25 3 2 7 17
M TOR 26 3 4 5 6
M TOR 27 3 4 5 15
M TOR 28 3 4 7 8
M TOR 29 3 4 7 17
M TOR 30 4 3 2 6
M TOR 31 4 5 6 16
M TOR 32 4 7 2 6
M TOR 33 4 7 8 18
M TOR 34 5 4 3 12
M TOR 35 5 4 3 13
M TOR 36 5 4 7 8
M TOR 37 5 4 7 17
M TOR 38 5 6 2 7
M TOR 39 6 2 1 10
M TOR 40 6 2 1 11
M TOR 41 6 2 3 12
M TOR 42 6 2 3 13
M TOR 43 6 2 7 8
M TOR 44 6 2 7 17
M TOR 45 6 5 4 7
M TOR 46 6 5 4 14
M TOR 47 7 2 1 10
M TOR 48 7 2 1 11
M TOR 49 7 2 3 12
M TOR 50 7 2 3 13
M TOR 51 7 2 6 16
M TOR 52 7 4 3 12
M TOR 53 7 4 3 13
M TOR 54 7 4 5 15
M TOR 55 8 7 4 14
M  END
$$$$
