
     RDKit          3D

 19 20  0  0  0  0  0  0  0  0999 V2000
   -2.1209   -3.9156    2.6272 C   0  0  0  0  0  0  0  0  0  0  0  0
   -1.6500   -3.2538    1.3586 C   0  0  0  0  0  0  0  0  0  0  0  0
   -0.2350   -3.1822    1.1552 O   0  0  0  0  0  0  0  0  0  0  0  0
   -0.9496   -1.9590    1.3496 C   0  0  0  0  0  0  0  0  0  0  0  0
   -1.0193   -1.0150    0.1816 C   0  0  0  0  0  0  0  0  0  0  0  0
   -2.0995    0.1175    0.1675 C   0  0  0  0  0  0  0  0  0  0  0  0
   -1.0294    1.1531   -0.2909 C   0  0  0  0  0  0  0  0  0  0  0  0
    0.0402    0.1088    0.0700 C   0  0  0  0  0  0  0  0  0  0  0  0
    1.2093    0.1654    0.3109 O   0  0  0  0  0  0  0  0  0  0  0  0
   -2.0242   -5.0037    2.5519 H   0  0  0  0  0  0  0  0  0  0  0  0
   -1.5289   -3.5793    3.4826 H   0  0  0  0  0  0  0  0  0  0  0  0
   -3.1748   -3.6837    2.8154 H   0  0  0  0  0  0  0  0  0  0  0  0
   -2.2059   -3.5217    0.4574 H   0  0  0  0  0  0  0  0  0  0  0  0
   -0.7584   -1.4860    2.3151 H   0  0  0  0  0  0  0  0  0  0  0  0
   -1.0355   -1.5931   -0.7495 H   0  0  0  0  0  0  0  0  0  0  0  0
   -2.9466   -0.0394   -0.5006 H   0  0  0  0  0  0  0  0  0  0  0  0
   -2.4762    0.3333    1.1707 H   0  0  0  0  0  0  0  0  0  0  0  0
   -1.0518    1.3471   -1.3683 H   0  0  0  0  0  0  0  0  0  0  0  0
   -0.9682    2.1092    0.2340 H   0  0  0  0  0  0  0  0  0  0  0  0
  1  2  1  0
  2  3  1  0
  3  4  1  0
  4  5  1  0
  5  6  1  0
  6  7  1  0
  7  8  1  0
  8  9  2  0
  4  2  1  0
  8  5  1  0
  1 10  1  0
  1 11  1  0
  1 12  1  0
  2 13  1  0
  4 14  1  0
  5 15  1  0
  6 16  1  0
  6 17  1  0
  7 18  1  0
  7 19  1  0
M  END
$$$$
