
     RDKit          3D

 19 20  0  0  0  0  0  0  0  0999 V2000
    5.4925    3.0583   -1.6473 C   0  0  0  0  0  0  0  0  0  0  0  0
    4.0838    3.6168   -1.5757 C   0  0  0  0  0  0  0  0  0  0  0  0
    3.8297    4.6541   -1.0084 O   0  0  0  0  0  0  0  0  0  0  0  0
    2.9886    2.7818   -2.2427 C   0  0  0  0  0  0  0  0  0  0  0  0
    1.7049    3.5346   -2.4184 C   0  0  0  0  0  0  0  0  0  0  0  0
    1.3103    4.2814   -3.6794 C   0  0  0  0  0  0  0  0  0  0  0  0
    0.4126    3.2120   -3.1334 C   0  0  0  0  0  0  0  0  0  0  0  0
   -0.4000    3.7223   -2.0766 O   0  0  0  0  0  0  0  0  0  0  0  0
    0.7925    4.0041   -1.2879 C   0  0  0  0  0  0  0  0  0  0  0  0
    6.1577    3.6383   -1.0068 H   0  0  0  0  0  0  0  0  0  0  0  0
    5.5117    2.0033   -1.3532 H   0  0  0  0  0  0  0  0  0  0  0  0
    5.8544    3.1056   -2.6814 H   0  0  0  0  0  0  0  0  0  0  0  0
    3.3579    2.3927   -3.1996 H   0  0  0  0  0  0  0  0  0  0  0  0
    2.8422    1.8954   -1.6051 H   0  0  0  0  0  0  0  0  0  0  0  0
    0.9924    5.3198   -3.6387 H   0  0  0  0  0  0  0  0  0  0  0  0
    1.8803    4.0070   -4.5630 H   0  0  0  0  0  0  0  0  0  0  0  0
    0.0601    2.3403   -3.6742 H   0  0  0  0  0  0  0  0  0  0  0  0
    0.8640    5.0524   -0.9839 H   0  0  0  0  0  0  0  0  0  0  0  0
    0.8254    3.3569   -0.4034 H   0  0  0  0  0  0  0  0  0  0  0  0
  1  2  1  0
  2  3  2  0
  2  4  1  0
  4  5  1  0
  5  6  1  0
  6  7  1  0
  7  8  1  0
  8  9  1  0
  7  5  1  0
  9  5  1  0
  1 10  1  0
  1 11  1  0
  1 12  1  0
  4 13  1  0
  4 14  1  0
  6 15  1  0
  6 16  1  0
  7 17  1  0
  9 18  1  0
  9 19  1  0
M  END
$$$$
