
     RDKit          3D

 19 20  0  0  0  0  0  0  0  0999 V2000
   -4.3729    2.9377   -5.7104 C   0  0  0  0  0  0  0  0  0  0  0  0
   -3.4063    3.9289   -5.0898 C   0  0  0  0  0  0  0  0  0  0  0  0
   -3.1232    4.9743   -5.6299 O   0  0  0  0  0  0  0  0  0  0  0  0
   -2.8426    3.5554   -3.7313 C   0  0  0  0  0  0  0  0  0  0  0  0
   -1.6114    4.3579   -3.2262 C   0  0  0  0  0  0  0  0  0  0  0  0
   -2.3326    4.5215   -1.8905 C   0  0  0  0  0  0  0  0  0  0  0  0
   -1.8378    4.2632   -0.5379 C   0  0  0  0  0  0  0  0  0  0  0  0
   -2.1587    5.5903   -0.9863 O   0  0  0  0  0  0  0  0  0  0  0  0
   -3.6693    4.1025   -2.5051 C   0  0  0  0  0  0  0  0  0  0  0  0
   -5.1545    2.6588   -4.9947 H   0  0  0  0  0  0  0  0  0  0  0  0
   -4.8225    3.3620   -6.6088 H   0  0  0  0  0  0  0  0  0  0  0  0
   -3.8394    2.0155   -5.9701 H   0  0  0  0  0  0  0  0  0  0  0  0
   -2.7117    2.4732   -3.6515 H   0  0  0  0  0  0  0  0  0  0  0  0
   -0.6430    3.8535   -3.2277 H   0  0  0  0  0  0  0  0  0  0  0  0
   -1.5366    5.3039   -3.7691 H   0  0  0  0  0  0  0  0  0  0  0  0
   -2.5062    3.8532    0.2187 H   0  0  0  0  0  0  0  0  0  0  0  0
   -0.7777    4.0706   -0.3751 H   0  0  0  0  0  0  0  0  0  0  0  0
   -4.2899    3.3914   -1.9561 H   0  0  0  0  0  0  0  0  0  0  0  0
   -4.2691    4.9750   -2.7809 H   0  0  0  0  0  0  0  0  0  0  0  0
  1  2  1  0
  2  3  2  0
  2  4  1  0
  4  5  1  0
  5  6  1  0
  6  7  1  0
  7  8  1  0
  6  9  1  0
  9  4  1  0
  8  6  1  0
  1 10  1  0
  1 11  1  0
  1 12  1  0
  4 13  1  0
  5 14  1  0
  5 15  1  0
  7 16  1  0
  7 17  1  0
  9 18  1  0
  9 19  1  0
M  END
$$$$
