gdb 2974	2.4764153	1.5966825	1.2756412	2.8084	75.64	-0.2262	-0.01672	0.20948	1068.2992	0.156652	-422.548012	-422.539609	-422.538665	-422.580567	32.152
 OpenBabel02181911413D

 19 20  0  0  1  0  0  0  0  0999 V2000
   -3.1846    0.0988    1.1039 C   0  0  0  0  0  0  0  0  0  0  0  0
   -1.6684    0.1012    0.9586 C   0  0  1  0  0  0  0  0  0  0  0  0
   -0.9951   -1.0347    0.1258 C   0  0  1  0  0  0  0  0  0  0  0  0
   -1.5674   -0.8671   -1.1807 O   0  0  0  0  0  0  0  0  0  0  0  0
   -1.3983    0.5615   -1.4403 C   0  0  1  0  0  0  0  0  0  0  0  0
   -2.6607    1.1886   -2.0081 C   0  0  0  0  0  0  0  0  0  0  0  0
   -0.8814    1.0212   -0.0575 C   0  0  2  0  0  0  0  0  0  0  0  0
    0.2114   -0.0674    0.0979 C   0  0  0  0  0  0  0  0  0  0  0  0
    1.3914   -0.1047    0.2629 O   0  0  0  0  0  0  0  0  0  0  0  0
   -3.4723   -0.5364    1.9480 H   0  0  0  0  0  0  0  0  0  0  0  0
   -3.5734    1.1029    1.3006 H   0  0  0  0  0  0  0  0  0  0  0  0
   -3.6689   -0.2957    0.2099 H   0  0  0  0  0  0  0  0  0  0  0  0
   -1.1895    0.1855    1.9400 H   0  0  0  0  0  0  0  0  0  0  0  0
   -0.9691   -2.0844    0.4075 H   0  0  0  0  0  0  0  0  0  0  0  0
   -0.5983    0.6770   -2.1866 H   0  0  0  0  0  0  0  0  0  0  0  0
   -3.4752    1.2422   -1.2854 H   0  0  0  0  0  0  0  0  0  0  0  0
   -2.4419    2.2035   -2.3562 H   0  0  0  0  0  0  0  0  0  0  0  0
   -2.9992    0.6032   -2.8689 H   0  0  0  0  0  0  0  0  0  0  0  0
   -0.6953    2.0803    0.1056 H   0  0  0  0  0  0  0  0  0  0  0  0
  1 11  1  0  0  0  0
  1 10  1  0  0  0  0
  2  1  1  0  0  0  0
  2 13  1  1  0  0  0
  3 14  1  1  0  0  0
  3  2  1  0  0  0  0
  4  3  1  0  0  0  0
  5 15  1  6  0  0  0
  5  4  1  0  0  0  0
  5  7  1  0  0  0  0
  6  5  1  0  0  0  0
  6 16  1  0  0  0  0
  7  8  1  0  0  0  0
  7 19  1  1  0  0  0
  7  2  1  0  0  0  0
  8  3  1  0  0  0  0
  8  9  2  0  0  0  0
 12  1  1  0  0  0  0
 17  6  1  0  0  0  0
 18  6  1  0  0  0  0
M TOR 0 0 1 2 3
M TOR 1 0 1 2 7
M TOR 2 0 1 2 13
M TOR 3 0 1 6 4
M TOR 4 0 1 6 7
M TOR 5 0 1 6 18
M TOR 6 1 2 3 4
M TOR 7 1 2 7 6
M TOR 8 1 2 7 8
M TOR 9 1 6 4 3
M TOR 10 1 6 4 5
M TOR 11 1 6 4 14
M TOR 12 1 6 7 8
M TOR 13 2 1 0 9
M TOR 14 2 1 0 10
M TOR 15 2 1 0 11
M TOR 16 2 1 6 4
M TOR 17 2 1 6 18
M TOR 18 2 3 4 5
M TOR 19 2 3 4 6
M TOR 20 2 3 4 14
M TOR 21 2 7 6 4
M TOR 22 2 7 6 18
M TOR 23 3 2 1 6
M TOR 24 3 2 1 12
M TOR 25 3 2 7 6
M TOR 26 3 2 7 8
M TOR 27 3 4 5 15
M TOR 28 3 4 5 16
M TOR 29 3 4 5 17
M TOR 30 3 4 6 7
M TOR 31 3 4 6 18
M TOR 32 4 3 2 7
M TOR 33 4 3 2 13
M TOR 34 4 6 1 12
M TOR 35 4 6 7 8
M TOR 36 5 4 6 7
M TOR 37 5 4 6 18
M TOR 38 6 1 0 9
M TOR 39 6 1 0 10
M TOR 40 6 1 0 11
M TOR 41 6 1 2 13
M TOR 42 6 4 5 15
M TOR 43 6 4 5 16
M TOR 44 6 4 5 17
M TOR 45 6 7 2 13
M TOR 46 7 2 1 12
M TOR 47 7 6 1 12
M TOR 48 7 6 4 14
M TOR 49 8 7 2 13
M TOR 50 8 7 6 18
M  END
$$$$
