gdb 5405	2.0537187	1.7601726	1.1032448	3.0412	77.54	-0.23171	-0.02626	0.20545	1144.3528	0.155062	-422.574052	-422.564589	-422.563644	-422.608544	33.858
 OpenBabel02181911423D

 19 19  0  0  1  0  0  0  0  0999 V2000
    1.3452   -0.3199   -0.2420 C   0  0  0  0  0  0  0  0  0  0  0  0
   -0.0323   -0.1207    0.0327 O   0  0  0  0  0  0  0  0  0  0  0  0
   -0.3128    0.6938    1.1487 C   0  0  2  0  0  0  0  0  0  0  0  0
    0.3527    2.0972    1.1313 C   0  0  0  0  0  0  0  0  0  0  0  0
    0.5164    2.7769    0.1542 O   0  0  0  0  0  0  0  0  0  0  0  0
    0.8164    2.4170    2.5576 C   0  0  0  0  0  0  0  0  0  0  0  0
    0.6801    1.0885    3.2534 C   0  0  0  0  0  0  0  0  0  0  0  0
    0.0930    0.1478    2.5055 C   0  0  0  0  0  0  0  0  0  0  0  0
   -0.2189   -1.2627    2.8891 C   0  0  0  0  0  0  0  0  0  0  0  0
    1.8865   -0.7157    0.6290 H   0  0  0  0  0  0  0  0  0  0  0  0
    1.3951   -1.0526   -1.0504 H   0  0  0  0  0  0  0  0  0  0  0  0
    1.8316    0.6062   -0.5708 H   0  0  0  0  0  0  0  0  0  0  0  0
   -1.4030    0.8400    1.1085 H   0  0  0  0  0  0  0  0  0  0  0  0
    1.8319    2.8307    2.5535 H   0  0  0  0  0  0  0  0  0  0  0  0
    0.1697    3.1962    2.9854 H   0  0  0  0  0  0  0  0  0  0  0  0
    1.0141    0.9336    4.2744 H   0  0  0  0  0  0  0  0  0  0  0  0
    0.1736   -1.5057    3.8802 H   0  0  0  0  0  0  0  0  0  0  0  0
   -1.3028   -1.4354    2.8964 H   0  0  0  0  0  0  0  0  0  0  0  0
    0.1985   -1.9698    2.1641 H   0  0  0  0  0  0  0  0  0  0  0  0
  1  2  1  0  0  0  0
  1 10  1  0  0  0  0
  2  3  1  0  0  0  0
  3 13  1  1  0  0  0
  3  8  1  0  0  0  0
  4  3  1  0  0  0  0
  4  6  1  0  0  0  0
  5  4  2  0  0  0  0
  6 15  1  0  0  0  0
  6  7  1  0  0  0  0
  7 16  1  0  0  0  0
  8  9  1  0  0  0  0
  8  7  2  0  0  0  0
  9 18  1  0  0  0  0
  9 17  1  0  0  0  0
 11  1  1  0  0  0  0
 12  1  1  0  0  0  0
 14  6  1  0  0  0  0
 19  9  1  0  0  0  0
M TOR 0 0 1 2 3
M TOR 1 0 1 2 7
M TOR 2 0 1 2 12
M TOR 3 1 2 3 4
M TOR 4 1 2 3 5
M TOR 5 1 2 7 6
M TOR 6 1 2 7 8
M TOR 7 2 1 0 9
M TOR 8 2 1 0 10
M TOR 9 2 1 0 11
M TOR 10 2 3 5 6
M TOR 11 2 3 5 13
M TOR 12 2 3 5 14
M TOR 13 2 7 6 5
M TOR 14 2 7 6 15
M TOR 15 2 7 8 16
M TOR 16 2 7 8 17
M TOR 17 2 7 8 18
M TOR 18 3 2 7 6
M TOR 19 3 2 7 8
M TOR 20 3 5 6 7
M TOR 21 3 5 6 15
M TOR 22 4 3 2 7
M TOR 23 4 3 2 12
M TOR 24 4 3 5 6
M TOR 25 4 3 5 13
M TOR 26 4 3 5 14
M TOR 27 5 3 2 7
M TOR 28 5 3 2 12
M TOR 29 5 6 7 8
M TOR 30 6 7 2 12
M TOR 31 6 7 8 16
M TOR 32 6 7 8 17
M TOR 33 6 7 8 18
M TOR 34 7 6 5 13
M TOR 35 7 6 5 14
M TOR 36 8 7 2 12
M TOR 37 8 7 6 15
M  END
$$$$
