
     RDKit          3D

 19 19  0  0  0  0  0  0  0  0999 V2000
    0.8905    2.5392   -0.0706 O   0  0  0  0  0  0  0  0  0  0  0  0
   -0.1885    3.1956   -0.7122 C   0  0  0  0  0  0  0  0  0  0  0  0
   -1.1601    2.1969   -1.3119 C   0  0  0  0  0  0  0  0  0  0  0  0
   -0.6280    1.2732   -2.3901 C   0  0  0  0  0  0  0  0  0  0  0  0
   -0.3890    1.9915   -3.7370 C   0  0  0  0  0  0  0  0  0  0  0  0
    0.0746    1.0830   -4.7781 C   0  0  0  0  0  0  0  0  0  0  0  0
    0.4524    0.3124   -5.6194 C   0  0  0  0  0  0  0  0  0  0  0  0
   -2.6047    2.4416   -1.1904 C   0  0  0  0  0  0  0  0  0  0  0  0
   -1.9475    1.5396   -0.2969 O   0  0  0  0  0  0  0  0  0  0  0  0
    0.5046    1.9776    0.6118 H   0  0  0  0  0  0  0  0  0  0  0  0
   -0.7327    3.8524   -0.0180 H   0  0  0  0  0  0  0  0  0  0  0  0
    0.2564    3.8262   -1.4894 H   0  0  0  0  0  0  0  0  0  0  0  0
    0.3116    0.8320   -2.0437 H   0  0  0  0  0  0  0  0  0  0  0  0
   -1.3407    0.4562   -2.5319 H   0  0  0  0  0  0  0  0  0  0  0  0
   -1.3172    2.4786   -4.0636 H   0  0  0  0  0  0  0  0  0  0  0  0
    0.3468    2.7947   -3.6066 H   0  0  0  0  0  0  0  0  0  0  0  0
    0.7897   -0.3583   -6.3700 H   0  0  0  0  0  0  0  0  0  0  0  0
   -2.9669    3.3651   -0.7404 H   0  0  0  0  0  0  0  0  0  0  0  0
   -3.2866    1.9762   -1.9012 H   0  0  0  0  0  0  0  0  0  0  0  0
  1  2  1  0
  2  3  1  0
  3  4  1  0
  4  5  1  0
  5  6  1  0
  6  7  3  0
  3  8  1  0
  8  9  1  0
  9  3  1  0
  1 10  1  0
  2 11  1  0
  2 12  1  0
  4 13  1  0
  4 14  1  0
  5 15  1  0
  5 16  1  0
  7 17  1  0
  8 18  1  0
  8 19  1  0
M  END
$$$$
