
     RDKit          3D

 19 21  0  0  0  0  0  0  0  0999 V2000
    2.7176   -0.9025    1.1941 C   0  0  0  0  0  0  0  0  0  0  0  0
    1.8092   -0.1743    0.1998 C   0  0  0  0  0  0  0  0  0  0  0  0
    2.0360   -0.6191   -1.2412 C   0  0  0  0  0  0  0  0  0  0  0  0
    1.7638   -2.0438   -1.3863 O   0  0  0  0  0  0  0  0  0  0  0  0
    0.7818   -2.0787   -2.3840 C   0  0  0  0  0  0  0  0  0  0  0  0
   -0.2288   -0.9019   -2.2382 C   0  0  0  0  0  0  0  0  0  0  0  0
   -0.3803   -0.8178   -3.6929 O   0  0  0  0  0  0  0  0  0  0  0  0
    1.0567   -1.0178   -3.4923 C   0  0  0  0  0  0  0  0  0  0  0  0
    1.0765   -0.0435   -2.2743 C   0  0  0  0  0  0  0  0  0  0  0  0
    2.5189   -0.5787    2.2199 H   0  0  0  0  0  0  0  0  0  0  0  0
    2.5579   -1.9823    1.1371 H   0  0  0  0  0  0  0  0  0  0  0  0
    3.7743   -0.7069    0.9803 H   0  0  0  0  0  0  0  0  0  0  0  0
    0.7570   -0.3423    0.4604 H   0  0  0  0  0  0  0  0  0  0  0  0
    1.9791    0.9089    0.2543 H   0  0  0  0  0  0  0  0  0  0  0  0
    3.0850   -0.4466   -1.5213 H   0  0  0  0  0  0  0  0  0  0  0  0
    0.4558   -3.0886   -2.6230 H   0  0  0  0  0  0  0  0  0  0  0  0
   -1.1201   -0.7973   -1.6206 H   0  0  0  0  0  0  0  0  0  0  0  0
    1.7032   -1.0516   -4.3688 H   0  0  0  0  0  0  0  0  0  0  0  0
    1.0185    1.0313   -2.4357 H   0  0  0  0  0  0  0  0  0  0  0  0
  1  2  1  0
  2  3  1  0
  3  4  1  0
  4  5  1  0
  5  6  1  0
  6  7  1  0
  7  8  1  0
  8  9  1  0
  9  3  1  0
  8  5  1  0
  9  6  1  0
  1 10  1  0
  1 11  1  0
  1 12  1  0
  2 13  1  0
  2 14  1  0
  3 15  1  0
  5 16  1  0
  6 17  1  0
  8 18  1  0
  9 19  1  0
M  END
$$$$
