
     RDKit          3D

 19 21  0  0  0  0  0  0  0  0999 V2000
   -1.6661    2.3307    3.3406 O   0  0  0  0  0  0  0  0  0  0  0  0
   -0.4047    2.8841    3.0405 C   0  0  0  0  0  0  0  0  0  0  0  0
    0.7597    1.8337    2.9047 C   0  0  0  0  0  0  0  0  0  0  0  0
    0.8119    2.1563    1.3985 C   0  0  0  0  0  0  0  0  0  0  0  0
    1.0643    3.5702    1.3114 O   0  0  0  0  0  0  0  0  0  0  0  0
   -0.2847    3.1363    1.5324 C   0  0  0  0  0  0  0  0  0  0  0  0
    1.2664    1.2908    0.2875 C   0  0  0  0  0  0  0  0  0  0  0  0
    2.6764    1.4334   -0.2447 C   0  0  0  0  0  0  0  0  0  0  0  0
    1.5047    1.8742   -1.0819 C   0  0  0  0  0  0  0  0  0  0  0  0
   -1.6676    2.0732    4.2678 H   0  0  0  0  0  0  0  0  0  0  0  0
   -0.1787    3.7605    3.6619 H   0  0  0  0  0  0  0  0  0  0  0  0
    1.6840    2.0155    3.4589 H   0  0  0  0  0  0  0  0  0  0  0  0
    0.3800    0.8293    3.1105 H   0  0  0  0  0  0  0  0  0  0  0  0
   -1.0496    3.4675    0.8394 H   0  0  0  0  0  0  0  0  0  0  0  0
    0.8662    0.2819    0.3308 H   0  0  0  0  0  0  0  0  0  0  0  0
    3.2950    2.2091    0.1924 H   0  0  0  0  0  0  0  0  0  0  0  0
    3.2083    0.5313   -0.5251 H   0  0  0  0  0  0  0  0  0  0  0  0
    1.3498    2.9406   -1.1937 H   0  0  0  0  0  0  0  0  0  0  0  0
    1.2262    1.2758   -1.9418 H   0  0  0  0  0  0  0  0  0  0  0  0
  1  2  1  0
  2  3  1  0
  3  4  1  0
  4  5  1  0
  5  6  1  0
  4  7  1  0
  7  8  1  0
  8  9  1  0
  6  2  1  0
  9  7  1  0
  6  4  1  0
  1 10  1  0
  2 11  1  0
  3 12  1  0
  3 13  1  0
  6 14  1  0
  7 15  1  0
  8 16  1  0
  8 17  1  0
  9 18  1  0
  9 19  1  0
M  END
$$$$
