gdb 5225	3.664213	1.3798038	1.2499511	2.4381	74.27	-0.23969	0.06265	0.30234	1054.703	0.15797	-422.511948	-422.504343	-422.503399	-422.544029	30.061
 OpenBabel02181911423D

 19 21  0  0  1  0  0  0  0  0999 V2000
    1.7124    0.1906   -0.0471 O   0  0  0  0  0  0  0  0  0  0  0  0
    0.3023    0.3315   -0.0795 C   0  0  0  0  0  0  0  0  0  0  0  0
   -0.1672    0.5896   -1.4875 C   0  0  2  0  0  0  0  0  0  0  0  0
   -0.1607   -0.5159   -2.5718 C   0  0  0  0  0  0  0  0  0  0  0  0
   -1.3569    0.1871   -3.2709 C   0  0  2  0  0  0  0  0  0  0  0  0
   -0.9319    1.4772   -4.0246 C   0  0  0  0  0  0  0  0  0  0  0  0
   -0.7740    2.1969   -2.6667 C   0  0  2  0  0  0  0  0  0  0  0  0
    0.4518    1.8063   -2.0028 O   0  0  0  0  0  0  0  0  0  0  0  0
   -1.5716    1.0589   -1.9708 C   0  0  2  0  0  0  0  0  0  0  0  0
    2.0688    0.9764   -0.4792 H   0  0  0  0  0  0  0  0  0  0  0  0
   -0.1220   -0.6031    0.3029 H   0  0  0  0  0  0  0  0  0  0  0  0
   -0.0372    1.1520    0.5729 H   0  0  0  0  0  0  0  0  0  0  0  0
    0.7654   -0.6507   -3.1357 H   0  0  0  0  0  0  0  0  0  0  0  0
   -0.4671   -1.4750   -2.1412 H   0  0  0  0  0  0  0  0  0  0  0  0
   -2.1236   -0.4405   -3.7234 H   0  0  0  0  0  0  0  0  0  0  0  0
   -0.0520    1.4387   -4.6727 H   0  0  0  0  0  0  0  0  0  0  0  0
   -1.7771    1.8973   -4.5803 H   0  0  0  0  0  0  0  0  0  0  0  0
   -0.9549    3.2708   -2.5914 H   0  0  0  0  0  0  0  0  0  0  0  0
   -2.4736    1.1514   -1.3715 H   0  0  0  0  0  0  0  0  0  0  0  0
  2  1  1  0  0  0  0
  2 11  1  0  0  0  0
  2 12  1  0  0  0  0
  3  2  1  1  0  0  0
  4 14  1  0  0  0  0
  4  3  1  0  0  0  0
  5 15  1  6  0  0  0
  5  4  1  0  0  0  0
  5  9  1  0  0  0  0
  6  5  1  0  0  0  0
  6  7  1  0  0  0  0
  7 18  1  1  0  0  0
  7  8  1  0  0  0  0
  7  9  1  0  0  0  0
  8  3  1  0  0  0  0
  9  3  1  0  0  0  0
  9 19  1  1  0  0  0
 10  1  1  0  0  0  0
 13  4  1  0  0  0  0
 16  6  1  0  0  0  0
 17  6  1  0  0  0  0
M TOR 0 0 1 2 3
M TOR 1 0 1 2 7
M TOR 2 0 1 2 8
M TOR 3 1 2 3 4
M TOR 4 1 2 3 12
M TOR 5 1 2 3 13
M TOR 6 1 2 7 6
M TOR 7 1 2 8 4
M TOR 8 1 2 8 6
M TOR 9 1 2 8 18
M TOR 10 2 1 0 9
M TOR 11 2 3 4 5
M TOR 12 2 3 4 8
M TOR 13 2 3 4 14
M TOR 14 2 7 6 5
M TOR 15 2 7 6 8
M TOR 16 2 7 6 17
M TOR 17 2 8 4 5
M TOR 18 2 8 4 14
M TOR 19 2 8 6 5
M TOR 20 2 8 6 17
M TOR 21 3 2 1 10
M TOR 22 3 2 1 11
M TOR 23 3 2 7 6
M TOR 24 3 2 8 6
M TOR 25 3 2 8 18
M TOR 26 3 4 5 6
M TOR 27 3 4 5 15
M TOR 28 3 4 5 16
M TOR 29 3 4 8 6
M TOR 30 3 4 8 18
M TOR 31 4 3 2 7
M TOR 32 4 5 6 7
M TOR 33 4 5 6 8
M TOR 34 4 5 6 17
M TOR 35 4 8 2 7
M TOR 36 4 8 6 7
M TOR 37 4 8 6 17
M TOR 38 5 4 3 12
M TOR 39 5 4 3 13
M TOR 40 5 4 8 18
M TOR 41 5 6 8 18
M TOR 42 6 5 4 14
M TOR 43 6 8 4 14
M TOR 44 7 2 1 10
M TOR 45 7 2 1 11
M TOR 46 7 2 3 12
M TOR 47 7 2 3 13
M TOR 48 7 2 8 18
M TOR 49 7 6 5 15
M TOR 50 7 6 5 16
M TOR 51 7 6 8 18
M TOR 52 8 2 1 10
M TOR 53 8 2 1 11
M TOR 54 8 2 3 12
M TOR 55 8 2 3 13
M TOR 56 8 4 3 12
M TOR 57 8 4 3 13
M TOR 58 8 4 5 15
M TOR 59 8 4 5 16
M TOR 60 8 6 5 15
M TOR 61 8 6 5 16
M  END
$$$$
