
     RDKit          3D

 19 20  0  0  0  0  0  0  0  0999 V2000
   -1.3768    3.4577    1.2336 C   0  0  0  0  0  0  0  0  0  0  0  0
   -0.3686    2.4822    0.6713 C   0  0  0  0  0  0  0  0  0  0  0  0
   -0.2446    2.2524   -0.8038 C   0  0  0  0  0  0  0  0  0  0  0  0
   -0.8193    1.1604    0.0870 C   0  0  0  0  0  0  0  0  0  0  0  0
   -2.2477    0.6531    0.0273 C   0  0  0  0  0  0  0  0  0  0  0  0
   -2.0353   -0.8463   -0.2608 C   0  0  0  0  0  0  0  0  0  0  0  0
   -0.7103   -1.1668    0.1977 O   0  0  0  0  0  0  0  0  0  0  0  0
    0.0435   -0.0400    0.3244 C   0  0  0  0  0  0  0  0  0  0  0  0
    1.2137   -0.0731    0.5875 O   0  0  0  0  0  0  0  0  0  0  0  0
   -1.6607    3.1933    2.2580 H   0  0  0  0  0  0  0  0  0  0  0  0
   -0.9608    4.4703    1.2557 H   0  0  0  0  0  0  0  0  0  0  0  0
   -2.2896    3.4887    0.6301 H   0  0  0  0  0  0  0  0  0  0  0  0
    0.5645    2.4058    1.2234 H   0  0  0  0  0  0  0  0  0  0  0  0
   -0.9453    2.7567   -1.4624 H   0  0  0  0  0  0  0  0  0  0  0  0
    0.7418    2.0799   -1.2195 H   0  0  0  0  0  0  0  0  0  0  0  0
   -2.7536    0.7897    0.9892 H   0  0  0  0  0  0  0  0  0  0  0  0
   -2.8591    1.1288   -0.7425 H   0  0  0  0  0  0  0  0  0  0  0  0
   -2.7359   -1.4965    0.2667 H   0  0  0  0  0  0  0  0  0  0  0  0
   -2.0906   -1.0673   -1.3328 H   0  0  0  0  0  0  0  0  0  0  0  0
  1  2  1  0
  2  3  1  0
  3  4  1  0
  4  5  1  0
  5  6  1  0
  6  7  1  0
  7  8  1  0
  8  9  2  0
  4  2  1  0
  8  4  1  0
  1 10  1  0
  1 11  1  0
  1 12  1  0
  2 13  1  0
  3 14  1  0
  3 15  1  0
  5 16  1  0
  5 17  1  0
  6 18  1  0
  6 19  1  0
M  END
$$$$
