gdb 3354	2.213789	1.8261495	1.4162856	2.2214	75.55	-0.23129	0.00299	0.23428	1014.1957	0.158342	-422.56524	-422.557423	-422.556479	-422.597062	31.091
 OpenBabel02181911413D

 19 20  0  0  1  0  0  0  0  0999 V2000
    1.2356    0.8921   -0.0418 C   0  0  0  0  0  0  0  0  0  0  0  0
   -0.0922    0.2098   -0.0564 C   0  0  0  0  0  0  0  0  0  0  0  0
   -0.3966   -1.0692    0.2263 C   0  0  0  0  0  0  0  0  0  0  0  0
   -1.9115   -1.1719    0.2020 C   0  0  1  0  0  0  0  0  0  0  0  0
   -2.4313   -0.4421    1.3454 O   0  0  0  0  0  0  0  0  0  0  0  0
   -2.1310    0.9413    1.0994 C   0  0  0  0  0  0  0  0  0  0  0  0
   -1.4172    0.9338   -0.2794 C   0  0  2  0  0  0  0  0  0  0  0  0
   -2.2501   -0.2003   -0.9537 C   0  0  1  0  0  0  0  0  0  0  0  0
   -1.8692   -0.5780   -2.2471 O   0  0  0  0  0  0  0  0  0  0  0  0
    1.2684    1.6744    0.7273 H   0  0  0  0  0  0  0  0  0  0  0  0
    2.0480    0.1881    0.1579 H   0  0  0  0  0  0  0  0  0  0  0  0
    1.4369    1.3905   -0.9982 H   0  0  0  0  0  0  0  0  0  0  0  0
    0.2874   -1.8480    0.5400 H   0  0  0  0  0  0  0  0  0  0  0  0
   -2.3625   -2.1624    0.1956 H   0  0  0  0  0  0  0  0  0  0  0  0
   -3.0650    1.5162    1.0656 H   0  0  0  0  0  0  0  0  0  0  0  0
   -1.5024    1.3397    1.9051 H   0  0  0  0  0  0  0  0  0  0  0  0
   -1.3771    1.8978   -0.7867 H   0  0  0  0  0  0  0  0  0  0  0  0
   -3.3192    0.0231   -0.9966 H   0  0  0  0  0  0  0  0  0  0  0  0
   -0.9362   -0.8241   -2.2011 H   0  0  0  0  0  0  0  0  0  0  0  0
  1 11  1  0  0  0  0
  1 10  1  0  0  0  0
  2  1  1  0  0  0  0
  2  3  2  0  0  0  0
  3 13  1  0  0  0  0
  4 14  1  6  0  0  0
  4  3  1  0  0  0  0
  4  5  1  0  0  0  0
  6  5  1  0  0  0  0
  6 16  1  0  0  0  0
  7 17  1  6  0  0  0
  7  2  1  0  0  0  0
  7  6  1  0  0  0  0
  8 18  1  1  0  0  0
  8  7  1  0  0  0  0
  8  4  1  0  0  0  0
  9 19  1  0  0  0  0
  9  8  1  0  0  0  0
 12  1  1  0  0  0  0
 15  6  1  0  0  0  0
M TOR 0 0 1 2 3
M TOR 1 0 1 2 12
M TOR 2 0 1 6 5
M TOR 3 0 1 6 7
M TOR 4 0 1 6 16
M TOR 5 1 2 3 4
M TOR 6 1 2 3 7
M TOR 7 1 2 3 13
M TOR 8 1 6 5 4
M TOR 9 1 6 5 14
M TOR 10 1 6 5 15
M TOR 11 1 6 7 3
M TOR 12 1 6 7 8
M TOR 13 1 6 7 17
M TOR 14 2 1 0 9
M TOR 15 2 1 0 10
M TOR 16 2 1 0 11
M TOR 17 2 1 6 5
M TOR 18 2 1 6 7
M TOR 19 2 1 6 16
M TOR 20 2 3 4 5
M TOR 21 2 3 7 6
M TOR 22 2 3 7 8
M TOR 23 2 3 7 17
M TOR 24 3 2 1 6
M TOR 25 3 4 5 6
M TOR 26 3 4 5 14
M TOR 27 3 4 5 15
M TOR 28 3 7 6 5
M TOR 29 3 7 6 16
M TOR 30 3 7 8 18
M TOR 31 4 3 2 12
M TOR 32 4 3 7 6
M TOR 33 4 3 7 8
M TOR 34 4 3 7 17
M TOR 35 4 5 6 7
M TOR 36 4 5 6 16
M TOR 37 5 4 3 7
M TOR 38 5 4 3 13
M TOR 39 5 6 7 8
M TOR 40 5 6 7 17
M TOR 41 6 1 0 9
M TOR 42 6 1 0 10
M TOR 43 6 1 0 11
M TOR 44 6 1 2 12
M TOR 45 6 7 3 13
M TOR 46 6 7 8 18
M TOR 47 7 3 2 12
M TOR 48 7 6 5 14
M TOR 49 7 6 5 15
M TOR 50 8 7 3 13
M TOR 51 8 7 6 16
M  END
$$$$
