
     RDKit          3D

 19 21  0  0  0  0  0  0  0  0999 V2000
    0.5619   -0.1811    1.0848 O   0  0  0  0  0  0  0  0  0  0  0  0
   -0.6937    0.4667    0.9190 C   0  0  0  0  0  0  0  0  0  0  0  0
   -1.4392    0.7257    2.2522 C   0  0  0  0  0  0  0  0  0  0  0  0
   -2.2932   -0.5272    2.4764 C   0  0  0  0  0  0  0  0  0  0  0  0
   -2.0136   -1.5102    3.5937 C   0  0  0  0  0  0  0  0  0  0  0  0
   -3.2626   -0.6625    3.6155 C   0  0  0  0  0  0  0  0  0  0  0  0
   -2.5838   -1.0534    1.1019 C   0  0  0  0  0  0  0  0  0  0  0  0
   -3.0134   -0.0336    0.1843 O   0  0  0  0  0  0  0  0  0  0  0  0
   -1.6427   -0.4447    0.1489 C   0  0  0  0  0  0  0  0  0  0  0  0
    0.4064   -1.0045    1.5615 H   0  0  0  0  0  0  0  0  0  0  0  0
   -0.4710    1.3950    0.3865 H   0  0  0  0  0  0  0  0  0  0  0  0
   -0.7294    0.9180    3.0606 H   0  0  0  0  0  0  0  0  0  0  0  0
   -2.0848    1.6021    2.1477 H   0  0  0  0  0  0  0  0  0  0  0  0
   -2.1210   -2.5712    3.3897 H   0  0  0  0  0  0  0  0  0  0  0  0
   -1.2196   -1.2700    4.2933 H   0  0  0  0  0  0  0  0  0  0  0  0
   -4.2133   -1.1494    3.4259 H   0  0  0  0  0  0  0  0  0  0  0  0
   -3.3151    0.1507    4.3319 H   0  0  0  0  0  0  0  0  0  0  0  0
   -3.0329   -2.0334    0.9583 H   0  0  0  0  0  0  0  0  0  0  0  0
   -1.3040   -0.9289   -0.7635 H   0  0  0  0  0  0  0  0  0  0  0  0
  1  2  1  0
  2  3  1  0
  3  4  1  0
  4  5  1  0
  5  6  1  0
  4  7  1  0
  7  8  1  0
  8  9  1  0
  9  2  1  0
  6  4  1  0
  9  7  1  0
  1 10  1  0
  2 11  1  0
  3 12  1  0
  3 13  1  0
  5 14  1  0
  5 15  1  0
  6 16  1  0
  6 17  1  0
  7 18  1  0
  9 19  1  0
M  END
$$$$
