
     RDKit          3D

 19 18  0  0  0  0  0  0  0  0999 V2000
    0.3696   -0.2367   -0.7151 C   0  0  0  0  0  0  0  0  0  0  0  0
    1.2057    0.0916    0.5355 C   0  0  0  0  0  0  0  0  0  0  0  0
    1.8369    1.4058    0.4724 C   0  0  0  0  0  0  0  0  0  0  0  0
    2.3497    2.4952    0.4180 C   0  0  0  0  0  0  0  0  0  0  0  0
    2.9562    3.8158    0.3025 C   0  0  0  0  0  0  0  0  0  0  0  0
    4.1744    3.7903   -0.6548 C   0  0  0  0  0  0  0  0  0  0  0  0
    4.7087    5.0780   -0.8758 O   0  0  0  0  0  0  0  0  0  0  0  0
    1.9175    4.8105   -0.2282 C   0  0  0  0  0  0  0  0  0  0  0  0
    1.5595    5.7925    0.3607 O   0  0  0  0  0  0  0  0  0  0  0  0
   -0.0825   -1.2281   -0.6196 H   0  0  0  0  0  0  0  0  0  0  0  0
   -0.4307    0.4956   -0.8508 H   0  0  0  0  0  0  0  0  0  0  0  0
    0.9926   -0.2269   -1.6135 H   0  0  0  0  0  0  0  0  0  0  0  0
    0.5687    0.0393    1.4276 H   0  0  0  0  0  0  0  0  0  0  0  0
    1.9792   -0.6749    0.6719 H   0  0  0  0  0  0  0  0  0  0  0  0
    3.2742    4.1851    1.2862 H   0  0  0  0  0  0  0  0  0  0  0  0
    4.9189    3.0840   -0.2618 H   0  0  0  0  0  0  0  0  0  0  0  0
    3.8558    3.4202   -1.6343 H   0  0  0  0  0  0  0  0  0  0  0  0
    5.0271    5.4260   -0.0362 H   0  0  0  0  0  0  0  0  0  0  0  0
    1.5093    4.5362   -1.2264 H   0  0  0  0  0  0  0  0  0  0  0  0
  1  2  1  0
  2  3  1  0
  3  4  3  0
  4  5  1  0
  5  6  1  0
  6  7  1  0
  5  8  1  0
  8  9  2  0
  1 10  1  0
  1 11  1  0
  1 12  1  0
  2 13  1  0
  2 14  1  0
  5 15  1  0
  6 16  1  0
  6 17  1  0
  7 18  1  0
  8 19  1  0
M  END
$$$$
