gdb 1141	3.253781	1.2339059	1.1295865	2.8527	74.78	-0.23407	-0.01454	0.21953	1162.2728	0.156513	-422.559548	-422.550908	-422.549964	-422.593492	31.784
 OpenBabel02181911403D

 19 20  0  0  1  0  0  0  0  0999 V2000
    2.0289   -0.6563   -3.4163 C   0  0  0  0  0  0  0  0  0  0  0  0
    1.3825    0.6410   -2.9599 C   0  0  0  0  0  0  0  0  0  0  0  0
    1.5379    1.6771   -3.5625 O   0  0  0  0  0  0  0  0  0  0  0  0
    0.5165    0.5531   -1.7004 C   0  0  1  0  0  0  0  0  0  0  0  0
    1.3951    0.5532   -0.4059 C   0  0  0  0  0  0  0  0  0  0  0  0
    1.4672    1.8968    0.0434 O   0  0  0  0  0  0  0  0  0  0  0  0
    0.3305    2.5776   -0.4230 C   0  0  2  0  0  0  0  0  0  0  0  0
   -1.0292    1.9750   -0.1784 C   0  0  0  0  0  0  0  0  0  0  0  0
   -0.3326    1.7982   -1.5181 C   0  0  2  0  0  0  0  0  0  0  0  0
    1.2538   -1.3280   -3.8051 H   0  0  0  0  0  0  0  0  0  0  0  0
    2.7541   -0.4530   -4.2049 H   0  0  0  0  0  0  0  0  0  0  0  0
    2.5133   -1.1814   -2.5867 H   0  0  0  0  0  0  0  0  0  0  0  0
   -0.0605   -0.3782   -1.7395 H   0  0  0  0  0  0  0  0  0  0  0  0
    0.9303   -0.0879    0.3553 H   0  0  0  0  0  0  0  0  0  0  0  0
    2.4170    0.1958   -0.5645 H   0  0  0  0  0  0  0  0  0  0  0  0
    0.4807    3.6495   -0.4428 H   0  0  0  0  0  0  0  0  0  0  0  0
   -1.1230    1.1279    0.4934 H   0  0  0  0  0  0  0  0  0  0  0  0
   -1.8738    2.6551   -0.1541 H   0  0  0  0  0  0  0  0  0  0  0  0
   -0.7216    2.2814   -2.4042 H   0  0  0  0  0  0  0  0  0  0  0  0
  1  2  1  0  0  0  0
  1 12  1  0  0  0  0
  2  4  1  0  0  0  0
  3  2  2  0  0  0  0
  4 13  1  6  0  0  0
  4  9  1  0  0  0  0
  4  5  1  0  0  0  0
  5  6  1  0  0  0  0
  5 14  1  0  0  0  0
  7 16  1  6  0  0  0
  7  8  1  0  0  0  0
  7  6  1  0  0  0  0
  8 18  1  0  0  0  0
  8 17  1  0  0  0  0
  9 19  1  6  0  0  0
  9  7  1  0  0  0  0
  9  8  1  0  0  0  0
 10  1  1  0  0  0  0
 11  1  1  0  0  0  0
 15  5  1  0  0  0  0
M TOR 0 0 1 3 4
M TOR 1 0 1 3 8
M TOR 2 0 1 3 12
M TOR 3 1 3 4 5
M TOR 4 1 3 4 13
M TOR 5 1 3 4 14
M TOR 6 1 3 8 6
M TOR 7 1 3 8 7
M TOR 8 1 3 8 18
M TOR 9 2 1 0 9
M TOR 10 2 1 0 10
M TOR 11 2 1 0 11
M TOR 12 2 1 3 4
M TOR 13 2 1 3 8
M TOR 14 2 1 3 12
M TOR 15 3 1 0 9
M TOR 16 3 1 0 10
M TOR 17 3 1 0 11
M TOR 18 3 4 5 6
M TOR 19 3 8 6 5
M TOR 20 3 8 6 7
M TOR 21 3 8 6 15
M TOR 22 3 8 7 16
M TOR 23 3 8 7 17
M TOR 24 4 3 8 6
M TOR 25 4 3 8 7
M TOR 26 4 3 8 18
M TOR 27 4 5 6 7
M TOR 28 4 5 6 8
M TOR 29 4 5 6 15
M TOR 30 5 4 3 8
M TOR 31 5 4 3 12
M TOR 32 5 6 7 8
M TOR 33 5 6 7 16
M TOR 34 5 6 7 17
M TOR 35 5 6 8 18
M TOR 36 6 5 4 13
M TOR 37 6 5 4 14
M TOR 38 6 7 8 18
M TOR 39 6 8 3 12
M TOR 40 6 8 7 16
M TOR 41 6 8 7 17
M TOR 42 7 8 3 12
M TOR 43 7 8 6 15
M TOR 44 8 3 4 13
M TOR 45 8 3 4 14
M  END
$$$$
