
     RDKit          3D

 19 21  0  0  0  0  0  0  0  0999 V2000
   -0.0248    0.0925   -0.0221 C   0  0  0  0  0  0  0  0  0  0  0  0
    1.4697    0.0623    0.1180 C   0  0  0  0  0  0  0  0  0  0  0  0
    2.2236    0.2434   -1.0950 O   0  0  0  0  0  0  0  0  0  0  0  0
    2.3859    1.2034   -0.0398 C   0  0  0  0  0  0  0  0  0  0  0  0
    3.5354    0.9056    0.9333 C   0  0  0  0  0  0  0  0  0  0  0  0
    3.6559   -0.6209    0.8478 C   0  0  0  0  0  0  0  0  0  0  0  0
    2.1605   -0.8247    1.1745 C   0  0  0  0  0  0  0  0  0  0  0  0
    2.0864    0.0052    2.4805 C   0  0  0  0  0  0  0  0  0  0  0  0
    2.9792    1.1148    2.2488 O   0  0  0  0  0  0  0  0  0  0  0  0
   -0.5121    0.2390    0.9471 H   0  0  0  0  0  0  0  0  0  0  0  0
   -0.3332    0.8983   -0.6925 H   0  0  0  0  0  0  0  0  0  0  0  0
   -0.3890   -0.8537   -0.4381 H   0  0  0  0  0  0  0  0  0  0  0  0
    2.0618    2.2185   -0.2477 H   0  0  0  0  0  0  0  0  0  0  0  0
    4.4396    1.5066    0.8451 H   0  0  0  0  0  0  0  0  0  0  0  0
    3.9406   -0.9898   -0.1347 H   0  0  0  0  0  0  0  0  0  0  0  0
    4.3202   -1.0164    1.6185 H   0  0  0  0  0  0  0  0  0  0  0  0
    1.7964   -1.8490    1.2640 H   0  0  0  0  0  0  0  0  0  0  0  0
    1.0818    0.3843    2.6993 H   0  0  0  0  0  0  0  0  0  0  0  0
    2.4357   -0.5689    3.3477 H   0  0  0  0  0  0  0  0  0  0  0  0
  1  2  1  0
  2  3  1  0
  3  4  1  0
  4  5  1  0
  5  6  1  0
  6  7  1  0
  7  8  1  0
  8  9  1  0
  4  2  1  0
  9  5  1  0
  7  2  1  0
  1 10  1  0
  1 11  1  0
  1 12  1  0
  4 13  1  0
  5 14  1  0
  6 15  1  0
  6 16  1  0
  7 17  1  0
  8 18  1  0
  8 19  1  0
M  END
$$$$
