
     RDKit          3D

 19 19  0  0  0  0  0  0  0  0999 V2000
    1.5555   -0.0268    0.0508 C   0  0  0  0  0  0  0  0  0  0  0  0
    0.1012    0.0006    0.0123 C   0  0  0  0  0  0  0  0  0  0  0  0
   -1.1015    0.0198   -0.0119 C   0  0  0  0  0  0  0  0  0  0  0  0
   -2.5549    0.0540   -0.0674 C   0  0  0  0  0  0  0  0  0  0  0  0
   -3.1029   -0.4986    1.1228 O   0  0  0  0  0  0  0  0  0  0  0  0
   -4.5022   -0.4621    1.1454 C   0  0  0  0  0  0  0  0  0  0  0  0
   -5.1012   -1.0921    2.4107 C   0  0  0  0  0  0  0  0  0  0  0  0
   -5.9185   -1.9879    1.6278 O   0  0  0  0  0  0  0  0  0  0  0  0
   -5.2769   -1.5808    0.4019 C   0  0  0  0  0  0  0  0  0  0  0  0
    1.9121   -0.4690    0.9874 H   0  0  0  0  0  0  0  0  0  0  0  0
    1.9661   -0.6201   -0.7734 H   0  0  0  0  0  0  0  0  0  0  0  0
    1.9763    0.9821   -0.0208 H   0  0  0  0  0  0  0  0  0  0  0  0
   -2.9060    1.0927   -0.1937 H   0  0  0  0  0  0  0  0  0  0  0  0
   -2.9091   -0.5072   -0.9482 H   0  0  0  0  0  0  0  0  0  0  0  0
   -4.8716    0.5492    0.9223 H   0  0  0  0  0  0  0  0  0  0  0  0
   -4.3497   -1.6229    3.0082 H   0  0  0  0  0  0  0  0  0  0  0  0
   -5.7010   -0.4443    3.0589 H   0  0  0  0  0  0  0  0  0  0  0  0
   -4.6198   -2.3619   -0.0041 H   0  0  0  0  0  0  0  0  0  0  0  0
   -6.0038   -1.2758   -0.3595 H   0  0  0  0  0  0  0  0  0  0  0  0
  1  2  1  0
  2  3  3  0
  3  4  1  0
  4  5  1  0
  5  6  1  0
  6  7  1  0
  7  8  1  0
  8  9  1  0
  9  6  1  0
  1 10  1  0
  1 11  1  0
  1 12  1  0
  4 13  1  0
  4 14  1  0
  6 15  1  0
  7 16  1  0
  7 17  1  0
  9 18  1  0
  9 19  1  0
M  END
$$$$
