gdb 1160	4.0130832	1.0402913	0.9430864	4.0824	76.99	-0.26285	0.01562	0.27847	1286.0844	0.156653	-422.536179	-422.527802	-422.526858	-422.569992	31.195
 OpenBabel02181911403D

 19 20  0  0  1  0  0  0  0  0999 V2000
   -2.4704    0.5981   -2.3232 C   0  0  0  0  0  0  0  0  0  0  0  0
   -2.2744    0.6800   -0.8220 C   0  0  0  0  0  0  0  0  0  0  0  0
   -3.1665    0.5585   -0.0289 O   0  0  0  0  0  0  0  0  0  0  0  0
   -1.0123    0.8899   -0.3589 O   0  0  0  0  0  0  0  0  0  0  0  0
    0.0891    1.0690   -1.2357 C   0  0  2  0  0  0  0  0  0  0  0  0
    1.4211    1.4092   -0.5298 C   0  0  1  0  0  0  0  0  0  0  0  0
    1.8920    1.9505   -1.9120 C   0  0  0  0  0  0  0  0  0  0  0  0
    0.4499    2.5030   -1.7280 C   0  0  2  0  0  0  0  0  0  0  0  0
    0.8439    2.8320   -0.2550 C   0  0  0  0  0  0  0  0  0  0  0  0
   -1.9703   -0.2858   -2.7323 H   0  0  0  0  0  0  0  0  0  0  0  0
   -3.5390    0.5229   -2.5191 H   0  0  0  0  0  0  0  0  0  0  0  0
   -2.0602    1.4734   -2.8335 H   0  0  0  0  0  0  0  0  0  0  0  0
    0.1284    0.2691   -1.9805 H   0  0  0  0  0  0  0  0  0  0  0  0
    1.9731    0.7673    0.1562 H   0  0  0  0  0  0  0  0  0  0  0  0
    2.6914    2.6928   -1.8837 H   0  0  0  0  0  0  0  0  0  0  0  0
    2.0514    1.2183   -2.7091 H   0  0  0  0  0  0  0  0  0  0  0  0
   -0.1109    3.1275   -2.4248 H   0  0  0  0  0  0  0  0  0  0  0  0
    1.5783    3.6302   -0.1249 H   0  0  0  0  0  0  0  0  0  0  0  0
    0.0340    2.9000    0.4699 H   0  0  0  0  0  0  0  0  0  0  0  0
  1  2  1  0  0  0  0
  2  4  1  0  0  0  0
  2  3  2  0  0  0  0
  5 13  1  6  0  0  0
  5  6  1  0  0  0  0
  5  4  1  0  0  0  0
  6  9  1  0  0  0  0
  6 14  1  1  0  0  0
  7 15  1  0  0  0  0
  7  8  1  0  0  0  0
  7  6  1  0  0  0  0
  8 17  1  6  0  0  0
  8  5  1  0  0  0  0
  8  9  1  0  0  0  0
  9 18  1  0  0  0  0
  9 19  1  0  0  0  0
 10  1  1  0  0  0  0
 11  1  1  0  0  0  0
 12  1  1  0  0  0  0
 16  7  1  0  0  0  0
M TOR 0 0 1 3 4
M TOR 1 1 3 4 5
M TOR 2 1 3 4 7
M TOR 3 1 3 4 12
M TOR 4 2 1 0 9
M TOR 5 2 1 0 10
M TOR 6 2 1 0 11
M TOR 7 2 1 3 4
M TOR 8 3 1 0 9
M TOR 9 3 1 0 10
M TOR 10 3 1 0 11
M TOR 11 3 4 5 6
M TOR 12 3 4 5 8
M TOR 13 3 4 5 13
M TOR 14 3 4 7 6
M TOR 15 3 4 7 8
M TOR 16 3 4 7 16
M TOR 17 4 5 6 7
M TOR 18 4 5 6 14
M TOR 19 4 5 6 15
M TOR 20 4 5 8 7
M TOR 21 4 5 8 17
M TOR 22 4 5 8 18
M TOR 23 4 7 6 14
M TOR 24 4 7 6 15
M TOR 25 4 7 8 17
M TOR 26 4 7 8 18
M TOR 27 5 4 7 16
M TOR 28 5 6 7 8
M TOR 29 5 6 7 16
M TOR 30 5 8 7 16
M TOR 31 6 5 4 12
M TOR 32 6 5 8 17
M TOR 33 6 5 8 18
M TOR 34 6 7 4 12
M TOR 35 6 7 8 17
M TOR 36 6 7 8 18
M TOR 37 7 4 5 13
M TOR 38 7 6 5 13
M TOR 39 7 8 5 13
M TOR 40 8 5 4 12
M TOR 41 8 5 6 14
M TOR 42 8 5 6 15
M TOR 43 8 7 4 12
M TOR 44 8 7 6 14
M TOR 45 8 7 6 15
M  END
$$$$
