
     RDKit          3D

 19 21  0  0  0  0  0  0  0  0999 V2000
   -3.8167    2.6855    3.5716 C   0  0  0  0  0  0  0  0  0  0  0  0
   -2.7655    2.0317    2.7165 C   0  0  0  0  0  0  0  0  0  0  0  0
   -2.9889    0.6220    2.1613 C   0  0  0  0  0  0  0  0  0  0  0  0
   -1.6001    0.0380    1.8923 C   0  0  0  0  0  0  0  0  0  0  0  0
   -0.6871    0.6741    0.8942 C   0  0  0  0  0  0  0  0  0  0  0  0
    0.2592   -0.1952    0.3424 O   0  0  0  0  0  0  0  0  0  0  0  0
   -0.5511    1.0464    2.3591 C   0  0  0  0  0  0  0  0  0  0  0  0
   -1.3104    2.2653    2.8166 C   0  0  0  0  0  0  0  0  0  0  0  0
   -2.0918    2.8994    1.7840 O   0  0  0  0  0  0  0  0  0  0  0  0
   -4.0347    2.0786    4.4568 H   0  0  0  0  0  0  0  0  0  0  0  0
   -3.4840    3.6745    3.8965 H   0  0  0  0  0  0  0  0  0  0  0  0
   -4.7509    2.8102    3.0126 H   0  0  0  0  0  0  0  0  0  0  0  0
   -3.5049    0.0158    2.9145 H   0  0  0  0  0  0  0  0  0  0  0  0
   -3.6265    0.6456    1.2705 H   0  0  0  0  0  0  0  0  0  0  0  0
   -1.4377   -1.0209    2.0586 H   0  0  0  0  0  0  0  0  0  0  0  0
   -1.0868    1.4319    0.2255 H   0  0  0  0  0  0  0  0  0  0  0  0
    1.0410    0.3223    0.1227 H   0  0  0  0  0  0  0  0  0  0  0  0
    0.3368    0.7383    2.8979 H   0  0  0  0  0  0  0  0  0  0  0  0
   -0.8694    2.9459    3.5407 H   0  0  0  0  0  0  0  0  0  0  0  0
  1  2  1  0
  2  3  1  0
  3  4  1  0
  4  5  1  0
  5  6  1  0
  5  7  1  0
  7  8  1  0
  8  9  1  0
  8  2  1  0
  9  2  1  0
  7  4  1  0
  1 10  1  0
  1 11  1  0
  1 12  1  0
  3 13  1  0
  3 14  1  0
  4 15  1  0
  5 16  1  0
  6 17  1  0
  7 18  1  0
  8 19  1  0
M  END
$$$$
