
     RDKit          3D

 19 19  0  0  0  0  0  0  0  0999 V2000
    1.4888   -0.0784   -0.1031 C   0  0  0  0  0  0  0  0  0  0  0  0
    0.0372   -0.0397   -0.0005 C   0  0  0  0  0  0  0  0  0  0  0  0
   -1.1627   -0.0103    0.0901 C   0  0  0  0  0  0  0  0  0  0  0  0
   -2.6158    0.0494    0.1841 C   0  0  0  0  0  0  0  0  0  0  0  0
   -3.1861    1.3838   -0.3075 C   0  0  0  0  0  0  0  0  0  0  0  0
   -2.8932    2.4894    0.5769 O   0  0  0  0  0  0  0  0  0  0  0  0
   -4.2820    2.6739    0.9124 C   0  0  0  0  0  0  0  0  0  0  0  0
   -4.7157    1.6005   -0.1082 C   0  0  0  0  0  0  0  0  0  0  0  0
   -5.5222    0.5341    0.3161 O   0  0  0  0  0  0  0  0  0  0  0  0
    1.9534   -0.2244    0.8784 H   0  0  0  0  0  0  0  0  0  0  0  0
    1.8228   -0.8955   -0.7523 H   0  0  0  0  0  0  0  0  0  0  0  0
    1.8823    0.8561   -0.5182 H   0  0  0  0  0  0  0  0  0  0  0  0
   -3.0734   -0.7531   -0.4099 H   0  0  0  0  0  0  0  0  0  0  0  0
   -2.9259   -0.1173    1.2246 H   0  0  0  0  0  0  0  0  0  0  0  0
   -2.8169    1.5862   -1.3199 H   0  0  0  0  0  0  0  0  0  0  0  0
   -4.5004    2.4076    1.9577 H   0  0  0  0  0  0  0  0  0  0  0  0
   -4.6222    3.7001    0.7324 H   0  0  0  0  0  0  0  0  0  0  0  0
   -5.2054    2.0060   -0.9956 H   0  0  0  0  0  0  0  0  0  0  0  0
   -5.1968    0.2188    1.1660 H   0  0  0  0  0  0  0  0  0  0  0  0
  1  2  1  0
  2  3  3  0
  3  4  1  0
  4  5  1  0
  5  6  1  0
  6  7  1  0
  7  8  1  0
  8  9  1  0
  8  5  1  0
  1 10  1  0
  1 11  1  0
  1 12  1  0
  4 13  1  0
  4 14  1  0
  5 15  1  0
  7 16  1  0
  7 17  1  0
  8 18  1  0
  9 19  1  0
M  END
$$$$
