gdb 3070	2.6701567	1.4880218	1.1803047	1.7718	74.89	-0.24827	-0.02682	0.22144999999999998	1099.835	0.157025	-422.550533	-422.542329	-422.541385	-422.5835	30.868
 OpenBabel02181911413D

 19 20  0  0  1  0  0  0  0  0999 V2000
   -0.0514    0.1065   -0.0765 C   0  0  0  0  0  0  0  0  0  0  0  0
    1.4674    0.0702   -0.0101 C   0  0  2  0  0  0  0  0  0  0  0  0
    2.0706   -0.3838    1.3442 C   0  0  1  0  0  0  0  0  0  0  0  0
    3.5953   -0.3630    1.1004 C   0  0  0  0  0  0  0  0  0  0  0  0
    3.6529    1.0704    0.4440 C   0  0  1  0  0  0  0  0  0  0  0  0
    4.2926    1.1047   -0.9178 C   0  0  0  0  0  0  0  0  0  0  0  0
    3.7015    1.2842   -1.9546 O   0  0  0  0  0  0  0  0  0  0  0  0
    2.1385    1.3706    0.5012 C   0  0  2  0  0  0  0  0  0  0  0  0
    1.8242    0.9577    1.8696 O   0  0  0  0  0  0  0  0  0  0  0  0
   -0.4693    0.5599    0.8258 H   0  0  0  0  0  0  0  0  0  0  0  0
   -0.3864    0.6864   -0.9427 H   0  0  0  0  0  0  0  0  0  0  0  0
   -0.4623   -0.9038   -0.1770 H   0  0  0  0  0  0  0  0  0  0  0  0
    1.8976   -0.3714   -0.9122 H   0  0  0  0  0  0  0  0  0  0  0  0
    1.6524   -1.1870    1.9521 H   0  0  0  0  0  0  0  0  0  0  0  0
    4.1621   -0.4162    2.0311 H   0  0  0  0  0  0  0  0  0  0  0  0
    3.9299   -1.1647    0.4354 H   0  0  0  0  0  0  0  0  0  0  0  0
    4.2112    1.7525    1.0951 H   0  0  0  0  0  0  0  0  0  0  0  0
    5.3963    0.9483   -0.9141 H   0  0  0  0  0  0  0  0  0  0  0  0
    1.7922    2.3696    0.2393 H   0  0  0  0  0  0  0  0  0  0  0  0
  1  2  1  0  0  0  0
  1 10  1  0  0  0  0
  2 13  1  6  0  0  0
  2  8  1  0  0  0  0
  2  3  1  0  0  0  0
  3  9  1  0  0  0  0
  3 14  1  1  0  0  0
  4  3  1  0  0  0  0
  4 15  1  0  0  0  0
  5  8  1  0  0  0  0
  5 17  1  1  0  0  0
  5  4  1  0  0  0  0
  6 18  1  0  0  0  0
  6  5  1  0  0  0  0
  7  6  2  0  0  0  0
  8 19  1  6  0  0  0
  8  9  1  0  0  0  0
 11  1  1  0  0  0  0
 12  1  1  0  0  0  0
 16  4  1  0  0  0  0
M TOR 0 0 1 2 3
M TOR 1 0 1 2 8
M TOR 2 0 1 2 13
M TOR 3 0 1 7 4
M TOR 4 0 1 7 8
M TOR 5 0 1 7 18
M TOR 6 1 2 3 4
M TOR 7 1 2 3 14
M TOR 8 1 2 3 15
M TOR 9 1 2 8 7
M TOR 10 1 7 4 3
M TOR 11 1 7 4 5
M TOR 12 1 7 4 16
M TOR 13 2 1 0 9
M TOR 14 2 1 0 10
M TOR 15 2 1 0 11
M TOR 16 2 1 7 4
M TOR 17 2 1 7 18
M TOR 18 2 3 4 5
M TOR 19 2 3 4 7
M TOR 20 2 3 4 16
M TOR 21 2 8 7 4
M TOR 22 2 8 7 18
M TOR 23 3 2 1 7
M TOR 24 3 2 1 12
M TOR 25 3 2 8 7
M TOR 26 3 4 5 6
M TOR 27 3 4 5 17
M TOR 28 3 4 7 8
M TOR 29 3 4 7 18
M TOR 30 4 3 2 8
M TOR 31 4 3 2 13
M TOR 32 4 7 1 12
M TOR 33 5 4 3 14
M TOR 34 5 4 3 15
M TOR 35 5 4 7 8
M TOR 36 5 4 7 18
M TOR 37 6 5 4 7
M TOR 38 6 5 4 16
M TOR 39 7 1 0 9
M TOR 40 7 1 0 10
M TOR 41 7 1 0 11
M TOR 42 7 1 2 13
M TOR 43 7 4 3 14
M TOR 44 7 4 3 15
M TOR 45 7 4 5 17
M TOR 46 7 8 2 13
M TOR 47 8 2 1 12
M TOR 48 8 2 3 14
M TOR 49 8 2 3 15
M TOR 50 8 7 1 12
M TOR 51 8 7 4 16
M  END
$$$$
