gdb 4353	2.0994159	1.8300853	1.2089219	1.3826	75.57	-0.24122	-0.02053	0.22069	1075.6861	0.156991	-422.583144	-422.574488	-422.573544	-422.61647	32.695
 OpenBabel02181911413D

 19 20  0  0  1  0  0  0  0  0999 V2000
   -2.0359   -1.2795   -2.1465 O   0  0  0  0  0  0  0  0  0  0  0  0
   -2.2331   -0.8000   -0.8186 C   0  0  2  0  0  0  0  0  0  0  0  0
   -2.2527    0.7493   -0.7382 C   0  0  0  0  0  0  0  0  0  0  0  0
   -0.7942    1.1641   -0.4820 C   0  0  0  0  0  0  0  0  0  0  0  0
   -0.2005   -0.0055    0.3099 C   0  0  0  0  0  0  0  0  0  0  0  0
    0.8140    0.0108    0.9658 O   0  0  0  0  0  0  0  0  0  0  0  0
   -1.1068   -1.1873    0.1302 C   0  0  0  0  0  0  0  0  0  0  0  0
   -1.3060   -2.1040    1.3320 C   0  0  0  0  0  0  0  0  0  0  0  0
   -0.5062   -2.5808    0.1714 C   0  0  0  0  0  0  0  0  0  0  0  0
   -1.1183   -1.1233   -2.3934 H   0  0  0  0  0  0  0  0  0  0  0  0
   -3.1956   -1.2224   -0.5186 H   0  0  0  0  0  0  0  0  0  0  0  0
   -2.6827    1.1740   -1.6473 H   0  0  0  0  0  0  0  0  0  0  0  0
   -2.8789    1.0567    0.1067 H   0  0  0  0  0  0  0  0  0  0  0  0
   -0.2280    1.2541   -1.4191 H   0  0  0  0  0  0  0  0  0  0  0  0
   -0.6663    2.1070    0.0534 H   0  0  0  0  0  0  0  0  0  0  0  0
   -0.7729   -1.8217    2.2334 H   0  0  0  0  0  0  0  0  0  0  0  0
   -2.3037   -2.5027    1.4798 H   0  0  0  0  0  0  0  0  0  0  0  0
    0.5714   -2.6275    0.2874 H   0  0  0  0  0  0  0  0  0  0  0  0
   -0.9435   -3.3063   -0.5051 H   0  0  0  0  0  0  0  0  0  0  0  0
  1  2  1  0  0  0  0
  2  3  1  0  0  0  0
  2 11  1  1  0  0  0
  2  7  1  0  0  0  0
  3  4  1  0  0  0  0
  3 13  1  0  0  0  0
  4 15  1  0  0  0  0
  4  5  1  0  0  0  0
  5  6  2  0  0  0  0
  7  9  1  0  0  0  0
  7  5  1  0  0  0  0
  7  8  1  0  0  0  0
  8 17  1  0  0  0  0
  8 16  1  0  0  0  0
  9 18  1  0  0  0  0
  9  8  1  0  0  0  0
 10  1  1  0  0  0  0
 12  3  1  0  0  0  0
 14  4  1  0  0  0  0
 19  9  1  0  0  0  0
M TOR 0 0 1 2 3
M TOR 1 0 1 2 11
M TOR 2 0 1 2 12
M TOR 3 0 1 6 4
M TOR 4 0 1 6 7
M TOR 5 0 1 6 8
M TOR 6 1 2 3 4
M TOR 7 1 2 3 13
M TOR 8 1 2 3 14
M TOR 9 1 6 4 3
M TOR 10 1 6 4 5
M TOR 11 1 6 7 8
M TOR 12 1 6 7 15
M TOR 13 1 6 7 16
M TOR 14 1 6 8 17
M TOR 15 1 6 8 18
M TOR 16 2 1 0 9
M TOR 17 2 1 6 4
M TOR 18 2 1 6 7
M TOR 19 2 1 6 8
M TOR 20 2 3 4 5
M TOR 21 2 3 4 6
M TOR 22 3 2 1 6
M TOR 23 3 2 1 10
M TOR 24 3 4 6 7
M TOR 25 3 4 6 8
M TOR 26 4 3 2 11
M TOR 27 4 3 2 12
M TOR 28 4 6 1 10
M TOR 29 4 6 7 8
M TOR 30 4 6 7 15
M TOR 31 4 6 7 16
M TOR 32 4 6 8 17
M TOR 33 4 6 8 18
M TOR 34 5 4 3 13
M TOR 35 5 4 3 14
M TOR 36 5 4 6 7
M TOR 37 5 4 6 8
M TOR 38 6 1 0 9
M TOR 39 6 1 2 11
M TOR 40 6 1 2 12
M TOR 41 6 4 3 13
M TOR 42 6 4 3 14
M TOR 43 6 7 8 17
M TOR 44 6 7 8 18
M TOR 45 6 8 7 15
M TOR 46 6 8 7 16
M TOR 47 7 6 1 10
M TOR 48 8 6 1 10
M  END
$$$$
