
     RDKit          3D

 19 21  0  0  0  0  0  0  0  0999 V2000
    0.2660   -0.0238    0.1983 O   0  0  0  0  0  0  0  0  0  0  0  0
   -0.4582    0.6566    1.1825 C   0  0  0  0  0  0  0  0  0  0  0  0
   -1.6378   -0.0232    1.8305 C   0  0  0  0  0  0  0  0  0  0  0  0
   -2.8700    0.7132    2.3314 C   0  0  0  0  0  0  0  0  0  0  0  0
   -2.5652    2.0783    2.9677 C   0  0  0  0  0  0  0  0  0  0  0  0
   -1.3857    2.0409    3.9183 C   0  0  0  0  0  0  0  0  0  0  0  0
   -1.2603    0.9007    4.7704 O   0  0  0  0  0  0  0  0  0  0  0  0
   -0.2881    1.0828    3.7202 C   0  0  0  0  0  0  0  0  0  0  0  0
   -0.3296    0.1173    2.5842 C   0  0  0  0  0  0  0  0  0  0  0  0
   -0.2612   -0.0301   -0.6076 H   0  0  0  0  0  0  0  0  0  0  0  0
   -0.4772    1.7407    1.0683 H   0  0  0  0  0  0  0  0  0  0  0  0
   -1.8285   -1.0206    1.4435 H   0  0  0  0  0  0  0  0  0  0  0  0
   -3.5902    0.8466    1.5150 H   0  0  0  0  0  0  0  0  0  0  0  0
   -3.3577    0.0809    3.0812 H   0  0  0  0  0  0  0  0  0  0  0  0
   -2.3477    2.8279    2.1952 H   0  0  0  0  0  0  0  0  0  0  0  0
   -3.4526    2.4409    3.4999 H   0  0  0  0  0  0  0  0  0  0  0  0
   -1.1560    2.9885    4.4088 H   0  0  0  0  0  0  0  0  0  0  0  0
    0.7025    1.3499    4.0886 H   0  0  0  0  0  0  0  0  0  0  0  0
    0.2828   -0.7732    2.6855 H   0  0  0  0  0  0  0  0  0  0  0  0
  1  2  1  0
  2  3  1  0
  3  4  1  0
  4  5  1  0
  5  6  1  0
  6  7  1  0
  7  8  1  0
  8  9  1  0
  9  2  1  0
  9  3  1  0
  8  6  1  0
  1 10  1  0
  2 11  1  0
  3 12  1  0
  4 13  1  0
  4 14  1  0
  5 15  1  0
  5 16  1  0
  6 17  1  0
  8 18  1  0
  9 19  1  0
M  END
$$$$
