gdb 2922	2.2206278	1.7925594	1.3799868	2.5161	73.93	-0.24242	0.0703	0.31272	1016.6671	0.158028	-422.541059	-422.533134	-422.53219	-422.572952	31.661
 OpenBabel02181911413D

 19 21  0  0  1  0  0  0  0  0999 V2000
    0.3280   -0.1917    0.4916 O   0  0  0  0  0  0  0  0  0  0  0  0
   -0.9582    0.3615    0.6707 C   0  0  1  0  0  0  0  0  0  0  0  0
   -1.4865    0.2243    2.0976 C   0  0  2  0  0  0  0  0  0  0  0  0
   -2.6210    1.2329    2.3615 C   0  0  2  0  0  0  0  0  0  0  0  0
   -3.3887    1.8120    1.1737 C   0  0  0  0  0  0  0  0  0  0  0  0
   -2.2915    2.5332    0.3374 C   0  0  0  0  0  0  0  0  0  0  0  0
   -0.9798    1.9196    0.8457 C   0  0  1  0  0  0  0  0  0  0  0  0
   -1.1924    1.6815    2.3801 C   0  0  2  0  0  0  0  0  0  0  0  0
   -0.4895    2.2263    3.4353 O   0  0  0  0  0  0  0  0  0  0  0  0
    0.8651    0.0694    1.2492 H   0  0  0  0  0  0  0  0  0  0  0  0
   -1.5665   -0.0405   -0.1466 H   0  0  0  0  0  0  0  0  0  0  0  0
   -1.3663   -0.6471    2.7323 H   0  0  0  0  0  0  0  0  0  0  0  0
   -3.1195    1.0832    3.3137 H   0  0  0  0  0  0  0  0  0  0  0  0
   -3.8913    1.0303    0.5945 H   0  0  0  0  0  0  0  0  0  0  0  0
   -4.1663    2.5063    1.5071 H   0  0  0  0  0  0  0  0  0  0  0  0
   -2.4264    2.3964   -0.7401 H   0  0  0  0  0  0  0  0  0  0  0  0
   -2.3056    3.6118    0.5330 H   0  0  0  0  0  0  0  0  0  0  0  0
   -0.0613    2.4106    0.5228 H   0  0  0  0  0  0  0  0  0  0  0  0
   -0.8937    3.0684    3.6725 H   0  0  0  0  0  0  0  0  0  0  0  0
  1  2  1  0  0  0  0
  1 10  1  0  0  0  0
  2 11  1  6  0  0  0
  2  7  1  0  0  0  0
  2  3  1  0  0  0  0
  3  4  1  0  0  0  0
  3  8  1  0  0  0  0
  3 12  1  1  0  0  0
  4  8  1  0  0  0  0
  4 13  1  1  0  0  0
  5 15  1  0  0  0  0
  5  4  1  0  0  0  0
  6 17  1  0  0  0  0
  6  7  1  0  0  0  0
  6  5  1  0  0  0  0
  7 18  1  6  0  0  0
  7  8  1  0  0  0  0
  8  9  1  1  0  0  0
  9 19  1  0  0  0  0
 14  5  1  0  0  0  0
 16  6  1  0  0  0  0
M TOR 0 0 1 2 3
M TOR 1 0 1 2 7
M TOR 2 0 1 2 11
M TOR 3 0 1 6 5
M TOR 4 0 1 6 7
M TOR 5 0 1 6 17
M TOR 6 1 2 3 4
M TOR 7 1 2 3 7
M TOR 8 1 2 3 12
M TOR 9 1 2 7 6
M TOR 10 1 2 7 8
M TOR 11 1 6 5 4
M TOR 12 1 6 5 15
M TOR 13 1 6 5 16
M TOR 14 1 6 7 3
M TOR 15 1 6 7 8
M TOR 16 2 1 0 9
M TOR 17 2 1 6 5
M TOR 18 2 1 6 17
M TOR 19 2 3 4 5
M TOR 20 2 3 4 13
M TOR 21 2 3 4 14
M TOR 22 2 3 7 6
M TOR 23 2 3 7 8
M TOR 24 2 7 3 4
M TOR 25 2 7 3 12
M TOR 26 2 7 6 5
M TOR 27 2 7 6 17
M TOR 28 2 7 8 18
M TOR 29 3 2 1 6
M TOR 30 3 2 1 10
M TOR 31 3 4 5 6
M TOR 32 3 4 5 15
M TOR 33 3 4 5 16
M TOR 34 3 7 2 11
M TOR 35 3 7 6 5
M TOR 36 3 7 6 17
M TOR 37 3 7 8 18
M TOR 38 4 3 2 11
M TOR 39 4 3 7 6
M TOR 40 4 3 7 8
M TOR 41 4 5 6 7
M TOR 42 4 5 6 17
M TOR 43 5 4 3 7
M TOR 44 5 4 3 12
M TOR 45 5 6 1 10
M TOR 46 5 6 7 8
M TOR 47 6 1 0 9
M TOR 48 6 1 2 11
M TOR 49 6 5 4 13
M TOR 50 6 5 4 14
M TOR 51 6 7 2 11
M TOR 52 6 7 3 12
M TOR 53 6 7 8 18
M TOR 54 7 2 1 10
M TOR 55 7 3 4 13
M TOR 56 7 3 4 14
M TOR 57 7 6 1 10
M TOR 58 7 6 5 15
M TOR 59 7 6 5 16
M TOR 60 8 7 2 11
M TOR 61 8 7 3 12
M TOR 62 8 7 6 17
M  END
$$$$
