
     RDKit          3D

 19 20  0  0  0  0  0  0  0  0999 V2000
   -2.1368    0.1886   -3.9376 C   0  0  0  0  0  0  0  0  0  0  0  0
   -2.6803    0.3740   -2.5261 C   0  0  0  0  0  0  0  0  0  0  0  0
   -3.6616    1.4026   -2.6016 O   0  0  0  0  0  0  0  0  0  0  0  0
   -1.5962    0.7494   -1.5300 C   0  0  0  0  0  0  0  0  0  0  0  0
   -1.8129    0.4608   -0.0836 C   0  0  0  0  0  0  0  0  0  0  0  0
   -0.6709    1.0726    0.7437 C   0  0  0  0  0  0  0  0  0  0  0  0
    0.2972    0.1534   -0.0562 C   0  0  0  0  0  0  0  0  0  0  0  0
    1.4526   -0.1289    0.0820 O   0  0  0  0  0  0  0  0  0  0  0  0
   -0.8140   -0.4006   -0.8984 C   0  0  0  0  0  0  0  0  0  0  0  0
   -1.4065   -0.6243   -3.9695 H   0  0  0  0  0  0  0  0  0  0  0  0
   -2.9537   -0.0434   -4.6256 H   0  0  0  0  0  0  0  0  0  0  0  0
   -1.6525    1.1083   -4.2800 H   0  0  0  0  0  0  0  0  0  0  0  0
   -3.1442   -0.5708   -2.1929 H   0  0  0  0  0  0  0  0  0  0  0  0
   -3.9716    1.5821   -1.7079 H   0  0  0  0  0  0  0  0  0  0  0  0
   -1.0598    1.6582   -1.8001 H   0  0  0  0  0  0  0  0  0  0  0  0
   -2.7600    0.1202    0.3163 H   0  0  0  0  0  0  0  0  0  0  0  0
   -0.5293    2.1549    0.6719 H   0  0  0  0  0  0  0  0  0  0  0  0
   -0.6706    0.7781    1.7972 H   0  0  0  0  0  0  0  0  0  0  0  0
   -0.8993   -1.4101   -1.2824 H   0  0  0  0  0  0  0  0  0  0  0  0
  1  2  1  0
  2  3  1  0
  2  4  1  0
  4  5  1  0
  5  6  1  0
  6  7  1  0
  7  8  2  0
  7  9  1  0
  9  4  1  0
  9  5  1  0
  1 10  1  0
  1 11  1  0
  1 12  1  0
  2 13  1  0
  3 14  1  0
  4 15  1  0
  5 16  1  0
  6 17  1  0
  6 18  1  0
  9 19  1  0
M  END
$$$$
