
     RDKit          3D

 19 20  0  0  0  0  0  0  0  0999 V2000
   -1.3998    3.4575   -2.9420 C   0  0  0  0  0  0  0  0  0  0  0  0
   -1.4869    3.0684   -1.5032 C   0  0  0  0  0  0  0  0  0  0  0  0
   -0.4389    3.2580   -0.4473 C   0  0  0  0  0  0  0  0  0  0  0  0
   -1.0256    1.8717   -0.6870 C   0  0  0  0  0  0  0  0  0  0  0  0
   -0.2150    0.6494   -1.0267 C   0  0  0  0  0  0  0  0  0  0  0  0
    0.4031    0.0223    0.2109 C   0  0  0  0  0  0  0  0  0  0  0  0
    0.2902   -1.1341    0.5235 O   0  0  0  0  0  0  0  0  0  0  0  0
   -2.4500    1.8717   -0.1378 C   0  0  0  0  0  0  0  0  0  0  0  0
   -2.7855    3.0652   -0.8931 O   0  0  0  0  0  0  0  0  0  0  0  0
   -2.0783    2.8550   -3.5535 H   0  0  0  0  0  0  0  0  0  0  0  0
   -1.6731    4.5112   -3.0681 H   0  0  0  0  0  0  0  0  0  0  0  0
   -0.3799    3.3291   -3.3159 H   0  0  0  0  0  0  0  0  0  0  0  0
    0.5762    3.3876   -0.8119 H   0  0  0  0  0  0  0  0  0  0  0  0
   -0.6772    3.8145    0.4556 H   0  0  0  0  0  0  0  0  0  0  0  0
   -0.8125   -0.1122   -1.5381 H   0  0  0  0  0  0  0  0  0  0  0  0
    0.6109    0.9359   -1.6936 H   0  0  0  0  0  0  0  0  0  0  0  0
    0.9833    0.7364    0.8396 H   0  0  0  0  0  0  0  0  0  0  0  0
   -3.0484    1.0185   -0.4794 H   0  0  0  0  0  0  0  0  0  0  0  0
   -2.5851    2.0077    0.9419 H   0  0  0  0  0  0  0  0  0  0  0  0
  1  2  1  0
  2  3  1  0
  3  4  1  0
  4  5  1  0
  5  6  1  0
  6  7  2  0
  4  8  1  0
  8  9  1  0
  4  2  1  0
  9  2  1  0
  1 10  1  0
  1 11  1  0
  1 12  1  0
  3 13  1  0
  3 14  1  0
  5 15  1  0
  5 16  1  0
  6 17  1  0
  8 18  1  0
  8 19  1  0
M  END
$$$$
