gdb 795	3.3503578	1.4074826	1.1930565	3.0026	75.04	-0.24429	-0.03023	0.21406	1072.3489	0.15783	-422.556293	-422.548422	-422.547478	-422.58886	30.289
 OpenBabel02181911403D

 19 20  0  0  1  0  0  0  0  0999 V2000
    0.5816   -0.1253   -0.8984 O   0  0  0  0  0  0  0  0  0  0  0  0
   -0.0319   -0.1235    0.1389 C   0  0  0  0  0  0  0  0  0  0  0  0
   -0.8159    1.0669    0.6299 C   0  0  2  0  0  0  0  0  0  0  0  0
   -1.8494    1.7366   -0.3241 C   0  0  0  0  0  0  0  0  0  0  0  0
   -1.5311    3.0477    0.4475 C   0  0  2  0  0  0  0  0  0  0  0  0
   -0.1110    2.4597    0.6924 C   0  0  0  0  0  0  0  0  0  0  0  0
   -2.3244    3.0301    1.7667 C   0  0  0  0  0  0  0  0  0  0  0  0
   -1.8700    1.8296    2.6275 C   0  0  0  0  0  0  0  0  0  0  0  0
   -1.4393    0.7086    1.8522 O   0  0  0  0  0  0  0  0  0  0  0  0
   -0.0641   -1.0059    0.8144 H   0  0  0  0  0  0  0  0  0  0  0  0
   -1.4819    1.7495   -1.3522 H   0  0  0  0  0  0  0  0  0  0  0  0
   -2.8668    1.3403   -0.2794 H   0  0  0  0  0  0  0  0  0  0  0  0
   -1.6227    3.9994   -0.0796 H   0  0  0  0  0  0  0  0  0  0  0  0
    0.5390    2.5738   -0.1766 H   0  0  0  0  0  0  0  0  0  0  0  0
    0.4349    2.7207    1.6017 H   0  0  0  0  0  0  0  0  0  0  0  0
   -2.1612    3.9504    2.3387 H   0  0  0  0  0  0  0  0  0  0  0  0
   -3.3960    2.9741    1.5439 H   0  0  0  0  0  0  0  0  0  0  0  0
   -1.0476    2.1444    3.2845 H   0  0  0  0  0  0  0  0  0  0  0  0
   -2.6753    1.4650    3.2706 H   0  0  0  0  0  0  0  0  0  0  0  0
  1  2  2  0  0  0  0
  2 10  1  0  0  0  0
  3  2  1  6  0  0  0
  3  6  1  0  0  0  0
  3  9  1  0  0  0  0
  4 12  1  0  0  0  0
  4  5  1  0  0  0  0
  4  3  1  0  0  0  0
  5 13  1  6  0  0  0
  5  6  1  0  0  0  0
  5  7  1  0  0  0  0
  6 15  1  0  0  0  0
  7 16  1  0  0  0  0
  7  8  1  0  0  0  0
  8 19  1  0  0  0  0
  8 18  1  0  0  0  0
  9  8  1  0  0  0  0
 11  4  1  0  0  0  0
 14  6  1  0  0  0  0
 17  7  1  0  0  0  0
M TOR 0 0 1 2 3
M TOR 1 0 1 2 5
M TOR 2 0 1 2 8
M TOR 3 1 2 3 4
M TOR 4 1 2 3 10
M TOR 5 1 2 3 11
M TOR 6 1 2 5 4
M TOR 7 1 2 5 13
M TOR 8 1 2 5 14
M TOR 9 1 2 8 7
M TOR 10 2 3 4 5
M TOR 11 2 3 4 6
M TOR 12 2 3 4 12
M TOR 13 2 5 4 6
M TOR 14 2 5 4 12
M TOR 15 2 8 7 6
M TOR 16 2 8 7 17
M TOR 17 2 8 7 18
M TOR 18 3 2 1 9
M TOR 19 3 2 5 13
M TOR 20 3 2 5 14
M TOR 21 3 2 8 7
M TOR 22 3 4 5 13
M TOR 23 3 4 5 14
M TOR 24 3 4 6 7
M TOR 25 3 4 6 15
M TOR 26 3 4 6 16
M TOR 27 4 3 2 8
M TOR 28 4 5 2 8
M TOR 29 4 6 7 8
M TOR 30 4 6 7 17
M TOR 31 4 6 7 18
M TOR 32 5 2 1 9
M TOR 33 5 2 3 10
M TOR 34 5 2 3 11
M TOR 35 5 2 8 7
M TOR 36 5 4 3 10
M TOR 37 5 4 3 11
M TOR 38 5 4 6 7
M TOR 39 5 4 6 15
M TOR 40 5 4 6 16
M TOR 41 6 4 3 10
M TOR 42 6 4 3 11
M TOR 43 6 4 5 13
M TOR 44 6 4 5 14
M TOR 45 7 6 4 12
M TOR 46 8 2 1 9
M TOR 47 8 2 3 10
M TOR 48 8 2 3 11
M TOR 49 8 2 5 13
M TOR 50 8 2 5 14
M TOR 51 8 7 6 15
M TOR 52 8 7 6 16
M  END
$$$$
