gdb 1188	2.5009739	1.2454646	1.1282201	2.6427	76.28	-0.24686	0.02352	0.27038	1182.9588	0.15415	-422.501328	-422.491453	-422.490509	-422.535988	35.884
 OpenBabel02181911403D

 19 19  0  0  1  0  0  0  0  0999 V2000
    2.5217    0.4404   -2.4089 C   0  0  0  0  0  0  0  0  0  0  0  0
    3.0815    0.9158   -1.0763 C   0  0  0  0  0  0  0  0  0  0  0  0
    2.9213    2.4125   -0.7132 C   0  0  0  0  0  0  0  0  0  0  0  0
    4.3330    2.5412   -0.4495 O   0  0  0  0  0  0  0  0  0  0  0  0
    4.5939    1.2394   -1.0162 C   0  0  0  0  0  0  0  0  0  0  0  0
    2.6776    0.0015    0.1033 C   0  0  2  0  0  0  0  0  0  0  0  0
    3.2084   -1.3130   -0.0456 O   0  0  0  0  0  0  0  0  0  0  0  0
    1.2272   -0.0165    0.3144 C   0  0  0  0  0  0  0  0  0  0  0  0
    0.0333   -0.0532    0.4543 C   0  0  0  0  0  0  0  0  0  0  0  0
    2.8967   -0.5591   -2.6549 H   0  0  0  0  0  0  0  0  0  0  0  0
    1.4279    0.4005   -2.3885 H   0  0  0  0  0  0  0  0  0  0  0  0
    2.8229    1.1117   -3.2183 H   0  0  0  0  0  0  0  0  0  0  0  0
    2.5994    3.0440   -1.5526 H   0  0  0  0  0  0  0  0  0  0  0  0
    2.3095    2.6484    0.1654 H   0  0  0  0  0  0  0  0  0  0  0  0
    5.0752    1.3115   -2.0011 H   0  0  0  0  0  0  0  0  0  0  0  0
    5.2066    0.6104   -0.3617 H   0  0  0  0  0  0  0  0  0  0  0  0
    3.1582    0.4002    1.0055 H   0  0  0  0  0  0  0  0  0  0  0  0
    2.6153   -1.8068   -0.6213 H   0  0  0  0  0  0  0  0  0  0  0  0
   -1.0189   -0.0835    0.5981 H   0  0  0  0  0  0  0  0  0  0  0  0
  1 11  1  0  0  0  0
  1  2  1  0  0  0  0
  2  5  1  0  0  0  0
  2  3  1  0  0  0  0
  2  6  1  0  0  0  0
  3  4  1  0  0  0  0
  3 14  1  0  0  0  0
  5  4  1  0  0  0  0
  5 16  1  0  0  0  0
  6  8  1  0  0  0  0
  6 17  1  1  0  0  0
  7  6  1  0  0  0  0
  8  9  3  0  0  0  0
  9 19  1  0  0  0  0
 10  1  1  0  0  0  0
 12  1  1  0  0  0  0
 13  3  1  0  0  0  0
 15  5  1  0  0  0  0
 18  7  1  0  0  0  0
M TOR 0 0 1 2 3
M TOR 1 0 1 2 12
M TOR 2 0 1 2 13
M TOR 3 0 1 4 3
M TOR 4 0 1 4 14
M TOR 5 0 1 4 15
M TOR 6 0 1 5 6
M TOR 7 0 1 5 7
M TOR 8 0 1 5 16
M TOR 9 1 2 3 4
M TOR 10 1 5 6 17
M TOR 11 1 5 7 8
M TOR 12 2 1 0 9
M TOR 13 2 1 0 10
M TOR 14 2 1 0 11
M TOR 15 2 1 4 14
M TOR 16 2 1 4 15
M TOR 17 2 1 5 6
M TOR 18 2 1 5 7
M TOR 19 2 1 5 16
M TOR 20 2 3 4 14
M TOR 21 2 3 4 15
M TOR 22 3 2 1 5
M TOR 23 3 4 1 5
M TOR 24 4 1 0 9
M TOR 25 4 1 0 10
M TOR 26 4 1 0 11
M TOR 27 4 1 2 12
M TOR 28 4 1 2 13
M TOR 29 4 1 5 6
M TOR 30 4 1 5 7
M TOR 31 4 1 5 16
M TOR 32 4 3 2 12
M TOR 33 4 3 2 13
M TOR 34 5 1 0 9
M TOR 35 5 1 0 10
M TOR 36 5 1 0 11
M TOR 37 5 1 2 12
M TOR 38 5 1 2 13
M TOR 39 5 1 4 14
M TOR 40 5 1 4 15
M TOR 41 5 7 8 18
M TOR 42 6 5 7 8
M TOR 43 7 5 6 17
M TOR 44 8 7 5 16
M  END
$$$$
