
     RDKit          3D

 19 20  0  0  0  0  0  0  0  0999 V2000
    0.4078    1.5397    0.5809 C   0  0  0  0  0  0  0  0  0  0  0  0
   -0.0626    0.0851    0.4901 C   0  0  0  0  0  0  0  0  0  0  0  0
   -0.7270   -0.1355   -0.8846 C   0  0  0  0  0  0  0  0  0  0  0  0
    0.2236    0.2318   -1.8913 O   0  0  0  0  0  0  0  0  0  0  0  0
    0.5404    1.6027   -1.8033 C   0  0  0  0  0  0  0  0  0  0  0  0
   -0.7000    2.4707   -2.1120 C   0  0  0  0  0  0  0  0  0  0  0  0
   -1.9813    1.8569   -1.6148 C   0  0  0  0  0  0  0  0  0  0  0  0
   -2.0020    0.6549   -1.0449 C   0  0  0  0  0  0  0  0  0  0  0  0
    1.1596    1.9145   -0.5712 O   0  0  0  0  0  0  0  0  0  0  0  0
   -0.4533    2.2102    0.7134 H   0  0  0  0  0  0  0  0  0  0  0  0
    1.0779    1.6847    1.4326 H   0  0  0  0  0  0  0  0  0  0  0  0
    0.7962   -0.5892    0.5695 H   0  0  0  0  0  0  0  0  0  0  0  0
   -0.7565   -0.1410    1.3071 H   0  0  0  0  0  0  0  0  0  0  0  0
   -0.9204   -1.2009   -1.0433 H   0  0  0  0  0  0  0  0  0  0  0  0
    1.3175    1.7781   -2.5513 H   0  0  0  0  0  0  0  0  0  0  0  0
   -0.5467    3.4659   -1.6775 H   0  0  0  0  0  0  0  0  0  0  0  0
   -0.7629    2.6217   -3.1982 H   0  0  0  0  0  0  0  0  0  0  0  0
   -2.8966    2.4270   -1.7531 H   0  0  0  0  0  0  0  0  0  0  0  0
   -2.9211    0.2155   -0.6683 H   0  0  0  0  0  0  0  0  0  0  0  0
  1  2  1  0
  2  3  1  0
  3  4  1  0
  4  5  1  0
  5  6  1  0
  6  7  1  0
  7  8  2  0
  5  9  1  0
  9  1  1  0
  8  3  1  0
  1 10  1  0
  1 11  1  0
  2 12  1  0
  2 13  1  0
  3 14  1  0
  5 15  1  0
  6 16  1  0
  6 17  1  0
  7 18  1  0
  8 19  1  0
M  END
$$$$
