
     RDKit          3D

 19 20  0  0  0  0  0  0  0  0999 V2000
   -4.0534    0.0324   -1.7640 C   0  0  0  0  0  0  0  0  0  0  0  0
   -2.6103    0.0139   -1.3108 C   0  0  0  0  0  0  0  0  0  0  0  0
   -2.2030    0.7780   -0.0596 C   0  0  0  0  0  0  0  0  0  0  0  0
   -0.7727    1.2671    0.0225 C   0  0  0  0  0  0  0  0  0  0  0  0
    0.0958    0.0119   -0.1779 C   0  0  0  0  0  0  0  0  0  0  0  0
    1.2714    0.0120   -0.4300 O   0  0  0  0  0  0  0  0  0  0  0  0
   -0.7786   -1.2398   -0.0023 C   0  0  0  0  0  0  0  0  0  0  0  0
   -2.2129   -0.7485   -0.0783 C   0  0  0  0  0  0  0  0  0  0  0  0
   -3.2099   -1.4988    0.5438 O   0  0  0  0  0  0  0  0  0  0  0  0
   -4.7328   -0.0091   -0.9101 H   0  0  0  0  0  0  0  0  0  0  0  0
   -4.2695    0.9407   -2.3364 H   0  0  0  0  0  0  0  0  0  0  0  0
   -4.2751   -0.8291   -2.4024 H   0  0  0  0  0  0  0  0  0  0  0  0
   -1.8849    0.0123   -2.1243 H   0  0  0  0  0  0  0  0  0  0  0  0
   -2.9870    1.3088    0.4694 H   0  0  0  0  0  0  0  0  0  0  0  0
   -0.4978    2.0280   -0.7155 H   0  0  0  0  0  0  0  0  0  0  0  0
   -0.5404    1.6842    1.0114 H   0  0  0  0  0  0  0  0  0  0  0  0
   -0.5111   -2.0045   -0.7371 H   0  0  0  0  0  0  0  0  0  0  0  0
   -0.5715   -1.6627    0.9914 H   0  0  0  0  0  0  0  0  0  0  0  0
   -3.0732   -1.4541    1.4966 H   0  0  0  0  0  0  0  0  0  0  0  0
  1  2  1  0
  2  3  1  0
  3  4  1  0
  4  5  1  0
  5  6  2  0
  5  7  1  0
  7  8  1  0
  8  9  1  0
  8  2  1  0
  8  3  1  0
  1 10  1  0
  1 11  1  0
  1 12  1  0
  2 13  1  0
  3 14  1  0
  4 15  1  0
  4 16  1  0
  7 17  1  0
  7 18  1  0
  9 19  1  0
M  END
$$$$
