gdb 2257	3.4061296	1.5781795	1.3230552	1.8753	74.22	-0.24375	0.08922	0.33297	1010.4039	0.158658	-422.528476	-422.521044	-422.5201	-422.559871	29.708
 OpenBabel02181911413D

 19 21  0  0  1  0  0  0  0  0999 V2000
    0.0035    0.5302    0.3355 C   0  0  0  0  0  0  0  0  0  0  0  0
    1.3177    0.1839   -0.3015 C   0  0  2  0  0  0  0  0  0  0  0  0
    2.1916    1.1425   -1.1139 C   0  0  0  0  0  0  0  0  0  0  0  0
    3.4689    0.4017   -0.5944 C   0  0  2  0  0  0  0  0  0  0  0  0
    4.2089   -0.3064   -1.5814 O   0  0  0  0  0  0  0  0  0  0  0  0
    3.6563   -1.5708   -1.8635 C   0  0  0  0  0  0  0  0  0  0  0  0
    2.2473   -1.5507   -1.9098 O   0  0  0  0  0  0  0  0  0  0  0  0
    1.7137   -1.2246   -0.6470 C   0  0  1  0  0  0  0  0  0  0  0  0
    2.5811   -0.4648    0.3139 C   0  0  2  0  0  0  0  0  0  0  0  0
    0.0863    1.4281    0.9584 H   0  0  0  0  0  0  0  0  0  0  0  0
   -0.7606    0.7241   -0.4267 H   0  0  0  0  0  0  0  0  0  0  0  0
   -0.3618   -0.2835    0.9708 H   0  0  0  0  0  0  0  0  0  0  0  0
    2.0524    1.1422   -2.1977 H   0  0  0  0  0  0  0  0  0  0  0  0
    2.1426    2.1672   -0.7355 H   0  0  0  0  0  0  0  0  0  0  0  0
    4.1757    1.0537   -0.0803 H   0  0  0  0  0  0  0  0  0  0  0  0
    4.0123   -1.8661   -2.8528 H   0  0  0  0  0  0  0  0  0  0  0  0
    3.9853   -2.3019   -1.1066 H   0  0  0  0  0  0  0  0  0  0  0  0
    1.0845   -2.0106   -0.2362 H   0  0  0  0  0  0  0  0  0  0  0  0
    2.7979   -0.7955    1.3226 H   0  0  0  0  0  0  0  0  0  0  0  0
  1 10  1  0  0  0  0
  1 12  1  0  0  0  0
  2  9  1  0  0  0  0
  2  1  1  1  0  0  0
  3 14  1  0  0  0  0
  3  4  1  0  0  0  0
  3  2  1  0  0  0  0
  4 15  1  1  0  0  0
  4  9  1  0  0  0  0
  5  4  1  0  0  0  0
  6  5  1  0  0  0  0
  6 17  1  0  0  0  0
  7  6  1  0  0  0  0
  7  8  1  0  0  0  0
  8  2  1  0  0  0  0
  8 18  1  1  0  0  0
  8  9  1  0  0  0  0
  9 19  1  1  0  0  0
 11  1  1  0  0  0  0
 13  3  1  0  0  0  0
 16  6  1  0  0  0  0
M TOR 0 0 1 2 3
M TOR 1 0 1 2 12
M TOR 2 0 1 2 13
M TOR 3 0 1 7 6
M TOR 4 0 1 7 8
M TOR 5 0 1 7 17
M TOR 6 0 1 8 3
M TOR 7 0 1 8 18
M TOR 8 1 2 3 4
M TOR 9 1 2 3 8
M TOR 10 1 2 3 14
M TOR 11 1 7 6 5
M TOR 12 1 7 8 3
M TOR 13 1 7 8 18
M TOR 14 1 8 3 4
M TOR 15 1 8 3 14
M TOR 16 1 8 7 6
M TOR 17 1 8 7 17
M TOR 18 2 1 0 9
M TOR 19 2 1 0 10
M TOR 20 2 1 0 11
M TOR 21 2 1 7 6
M TOR 22 2 1 7 8
M TOR 23 2 1 7 17
M TOR 24 2 1 8 18
M TOR 25 2 3 4 5
M TOR 26 2 3 8 7
M TOR 27 2 3 8 18
M TOR 28 3 2 1 7
M TOR 29 3 4 5 6
M TOR 30 3 4 5 15
M TOR 31 3 4 5 16
M TOR 32 3 8 7 6
M TOR 33 3 8 7 17
M TOR 34 4 3 2 12
M TOR 35 4 3 2 13
M TOR 36 4 3 8 7
M TOR 37 4 3 8 18
M TOR 38 4 5 6 7
M TOR 39 5 4 3 8
M TOR 40 5 4 3 14
M TOR 41 5 6 7 8
M TOR 42 5 6 7 17
M TOR 43 6 7 8 18
M TOR 44 7 1 0 9
M TOR 45 7 1 0 10
M TOR 46 7 1 0 11
M TOR 47 7 1 2 12
M TOR 48 7 1 2 13
M TOR 49 7 6 5 15
M TOR 50 7 6 5 16
M TOR 51 7 8 3 14
M TOR 52 8 1 0 9
M TOR 53 8 1 0 10
M TOR 54 8 1 0 11
M TOR 55 8 1 2 12
M TOR 56 8 1 2 13
M TOR 57 8 3 2 12
M TOR 58 8 3 2 13
M  END
$$$$
