
     RDKit          3D

 19 20  0  0  0  0  0  0  0  0999 V2000
   -1.0763    2.0754    1.1282 C   0  0  0  0  0  0  0  0  0  0  0  0
   -1.0776    1.0863   -0.0390 C   0  0  0  0  0  0  0  0  0  0  0  0
   -2.1731   -0.0165   -0.0236 C   0  0  0  0  0  0  0  0  0  0  0  0
   -2.5059   -0.4785   -1.3447 O   0  0  0  0  0  0  0  0  0  0  0  0
   -1.5551   -1.5600   -1.2642 C   0  0  0  0  0  0  0  0  0  0  0  0
   -1.0999   -1.1489    0.1625 C   0  0  0  0  0  0  0  0  0  0  0  0
   -1.0139   -2.2045    1.2408 C   0  0  0  0  0  0  0  0  0  0  0  0
   -0.0321   -0.0427    0.1217 C   0  0  0  0  0  0  0  0  0  0  0  0
    1.1543   -0.0482    0.2885 O   0  0  0  0  0  0  0  0  0  0  0  0
   -1.1846    1.5620    2.0899 H   0  0  0  0  0  0  0  0  0  0  0  0
   -0.1338    2.6292    1.1538 H   0  0  0  0  0  0  0  0  0  0  0  0
   -1.8987    2.7908    1.0331 H   0  0  0  0  0  0  0  0  0  0  0  0
   -1.0270    1.6099   -0.9987 H   0  0  0  0  0  0  0  0  0  0  0  0
   -3.0467    0.1328    0.6158 H   0  0  0  0  0  0  0  0  0  0  0  0
   -2.0566   -2.5360   -1.2853 H   0  0  0  0  0  0  0  0  0  0  0  0
   -0.8026   -1.5261   -2.0606 H   0  0  0  0  0  0  0  0  0  0  0  0
   -0.1455   -2.8497    1.0690 H   0  0  0  0  0  0  0  0  0  0  0  0
   -0.8968   -1.7570    2.2327 H   0  0  0  0  0  0  0  0  0  0  0  0
   -1.9099   -2.8334    1.2521 H   0  0  0  0  0  0  0  0  0  0  0  0
  1  2  1  0
  2  3  1  0
  3  4  1  0
  4  5  1  0
  5  6  1  0
  6  7  1  0
  6  8  1  0
  8  9  2  0
  8  2  1  0
  6  3  1  0
  1 10  1  0
  1 11  1  0
  1 12  1  0
  2 13  1  0
  3 14  1  0
  5 15  1  0
  5 16  1  0
  7 17  1  0
  7 18  1  0
  7 19  1  0
M  END
$$$$
