
     RDKit          3D

 19 20  0  0  0  0  0  0  0  0999 V2000
   -2.7850   -2.8141   -2.5135 O   0  0  0  0  0  0  0  0  0  0  0  0
   -2.4923   -2.0049   -1.3782 C   0  0  0  0  0  0  0  0  0  0  0  0
   -3.7552   -1.7346   -0.5704 C   0  0  0  0  0  0  0  0  0  0  0  0
   -4.2403   -2.6662    0.5929 C   0  0  0  0  0  0  0  0  0  0  0  0
   -5.2092   -1.5089    0.9787 C   0  0  0  0  0  0  0  0  0  0  0  0
   -3.8343   -0.8227    0.7035 C   0  0  0  0  0  0  0  0  0  0  0  0
   -3.2093   -1.9668    1.5491 C   0  0  0  0  0  0  0  0  0  0  0  0
   -1.7318   -2.2392    1.5829 C   0  0  0  0  0  0  0  0  0  0  0  0
   -0.8760   -1.4057    1.4139 O   0  0  0  0  0  0  0  0  0  0  0  0
   -3.0564   -3.6806   -2.1946 H   0  0  0  0  0  0  0  0  0  0  0  0
   -1.6852   -2.4498   -0.7866 H   0  0  0  0  0  0  0  0  0  0  0  0
   -2.1057   -1.0622   -1.7801 H   0  0  0  0  0  0  0  0  0  0  0  0
   -4.5477   -1.5126   -1.2940 H   0  0  0  0  0  0  0  0  0  0  0  0
   -4.4761   -3.7314    0.5491 H   0  0  0  0  0  0  0  0  0  0  0  0
   -6.0099   -1.2942    0.2678 H   0  0  0  0  0  0  0  0  0  0  0  0
   -5.5673   -1.4917    2.0111 H   0  0  0  0  0  0  0  0  0  0  0  0
   -3.5988    0.2389    0.7700 H   0  0  0  0  0  0  0  0  0  0  0  0
   -3.5359   -1.9949    2.6007 H   0  0  0  0  0  0  0  0  0  0  0  0
   -1.4615   -3.2858    1.8625 H   0  0  0  0  0  0  0  0  0  0  0  0
  1  2  1  0
  2  3  1  0
  3  4  1  0
  4  5  1  0
  5  6  1  0
  6  7  1  0
  7  8  1  0
  8  9  2  0
  6  3  1  0
  7  4  1  0
  1 10  1  0
  2 11  1  0
  2 12  1  0
  3 13  1  0
  4 14  1  0
  5 15  1  0
  5 16  1  0
  6 17  1  0
  7 18  1  0
  8 19  1  0
M  END
$$$$
