
     RDKit          3D

 19 21  0  0  0  0  0  0  0  0999 V2000
    1.4542    0.1024   -0.0912 C   0  0  0  0  0  0  0  0  0  0  0  0
    0.0562   -0.0283    0.0944 O   0  0  0  0  0  0  0  0  0  0  0  0
   -0.4087    0.5934    1.2408 C   0  0  0  0  0  0  0  0  0  0  0  0
   -0.6231    2.0869    1.2714 C   0  0  0  0  0  0  0  0  0  0  0  0
   -1.8108    1.1412    1.3277 C   0  0  0  0  0  0  0  0  0  0  0  0
   -2.2156    0.4918    2.6678 C   0  0  0  0  0  0  0  0  0  0  0  0
   -1.0248    0.7196    3.6263 C   0  0  0  0  0  0  0  0  0  0  0  0
   -0.4051   -0.2142    2.5636 C   0  0  0  0  0  0  0  0  0  0  0  0
   -1.7147   -0.8827    2.4880 O   0  0  0  0  0  0  0  0  0  0  0  0
    2.0226   -0.3554    0.7313 H   0  0  0  0  0  0  0  0  0  0  0  0
    1.7017   -0.4159   -1.0202 H   0  0  0  0  0  0  0  0  0  0  0  0
    1.7540    1.1567   -0.1751 H   0  0  0  0  0  0  0  0  0  0  0  0
   -0.3398    2.7072    2.1134 H   0  0  0  0  0  0  0  0  0  0  0  0
   -0.4898    2.5712    0.3080 H   0  0  0  0  0  0  0  0  0  0  0  0
   -2.4893    1.0847    0.4860 H   0  0  0  0  0  0  0  0  0  0  0  0
   -3.2583    0.5436    2.9787 H   0  0  0  0  0  0  0  0  0  0  0  0
   -0.6234    1.7166    3.8096 H   0  0  0  0  0  0  0  0  0  0  0  0
   -1.1786    0.1847    4.5629 H   0  0  0  0  0  0  0  0  0  0  0  0
    0.4278   -0.8904    2.7536 H   0  0  0  0  0  0  0  0  0  0  0  0
  1  2  1  0
  2  3  1  0
  3  4  1  0
  4  5  1  0
  5  6  1  0
  6  7  1  0
  7  8  1  0
  8  9  1  0
  5  3  1  0
  9  6  1  0
  8  3  1  0
  1 10  1  0
  1 11  1  0
  1 12  1  0
  4 13  1  0
  4 14  1  0
  5 15  1  0
  6 16  1  0
  7 17  1  0
  7 18  1  0
  8 19  1  0
M  END
$$$$
