gdb 4822	1.8778362	1.3827924	0.9861159	1.8114	79.85	-0.23035	0.04878	0.27913	1282.7473	0.153636	-422.511965	-422.501732	-422.500788	-422.546726	37.74
 OpenBabel02181911413D

 19 19  0  0  1  0  0  0  0  0999 V2000
    1.3995    1.2167   -0.0600 C   0  0  0  0  0  0  0  0  0  0  0  0
    1.0971   -0.2588    0.0772 C   0  0  2  0  0  0  0  0  0  0  0  0
    1.9487   -1.1553    0.9863 C   0  0  1  0  0  0  0  0  0  0  0  0
    1.3504   -2.1108    1.8646 C   0  0  0  0  0  0  0  0  0  0  0  0
    0.8688   -2.9231    2.6105 C   0  0  0  0  0  0  0  0  0  0  0  0
    1.9007   -1.3455   -0.5489 C   0  0  1  0  0  0  0  0  0  0  0  0
    1.1561   -2.4085   -1.0486 O   0  0  0  0  0  0  0  0  0  0  0  0
    3.1753   -1.1220   -1.3303 C   0  0  0  0  0  0  0  0  0  0  0  0
    3.9235   -2.3358   -1.3853 O   0  0  0  0  0  0  0  0  0  0  0  0
    0.9427    1.7784    0.7614 H   0  0  0  0  0  0  0  0  0  0  0  0
    2.4737    1.4221   -0.0393 H   0  0  0  0  0  0  0  0  0  0  0  0
    1.0014    1.6147   -0.9996 H   0  0  0  0  0  0  0  0  0  0  0  0
    0.0399   -0.5071    0.1085 H   0  0  0  0  0  0  0  0  0  0  0  0
    2.8535   -0.6834    1.3658 H   0  0  0  0  0  0  0  0  0  0  0  0
    0.4330   -3.6363    3.2649 H   0  0  0  0  0  0  0  0  0  0  0  0
    1.7904   -3.1187   -1.2173 H   0  0  0  0  0  0  0  0  0  0  0  0
    2.9369   -0.8798   -2.3710 H   0  0  0  0  0  0  0  0  0  0  0  0
    3.7695   -0.2996   -0.9124 H   0  0  0  0  0  0  0  0  0  0  0  0
    4.2270   -2.5288   -0.4907 H   0  0  0  0  0  0  0  0  0  0  0  0
  1 11  1  0  0  0  0
  1  2  1  0  0  0  0
  1 10  1  0  0  0  0
  2 13  1  1  0  0  0
  2  3  1  0  0  0  0
  3 14  1  1  0  0  0
  3  4  1  0  0  0  0
  4  5  3  0  0  0  0
  5 15  1  0  0  0  0
  6  7  1  6  0  0  0
  6  2  1  0  0  0  0
  6  3  1  0  0  0  0
  8 18  1  0  0  0  0
  8  6  1  0  0  0  0
  9  8  1  0  0  0  0
  9 19  1  0  0  0  0
 12  1  1  0  0  0  0
 16  7  1  0  0  0  0
 17  8  1  0  0  0  0
M TOR 0 0 1 2 3
M TOR 1 0 1 2 5
M TOR 2 0 1 2 13
M TOR 3 0 1 5 6
M TOR 4 0 1 5 7
M TOR 5 1 2 3 4
M TOR 6 1 2 5 6
M TOR 7 1 2 5 7
M TOR 8 1 5 2 3
M TOR 9 1 5 2 13
M TOR 10 1 5 6 15
M TOR 11 1 5 7 8
M TOR 12 1 5 7 16
M TOR 13 1 5 7 17
M TOR 14 2 1 0 9
M TOR 15 2 1 0 10
M TOR 16 2 1 0 11
M TOR 17 2 3 4 14
M TOR 18 2 5 1 12
M TOR 19 2 5 6 15
M TOR 20 2 5 7 8
M TOR 21 2 5 7 16
M TOR 22 2 5 7 17
M TOR 23 3 2 1 12
M TOR 24 3 2 5 6
M TOR 25 3 2 5 7
M TOR 26 4 3 2 5
M TOR 27 4 3 2 13
M TOR 28 5 1 0 9
M TOR 29 5 1 0 10
M TOR 30 5 1 0 11
M TOR 31 5 7 8 18
M TOR 32 6 5 1 12
M TOR 33 6 5 2 13
M TOR 34 6 5 7 8
M TOR 35 6 5 7 16
M TOR 36 6 5 7 17
M TOR 37 7 5 1 12
M TOR 38 7 5 2 13
M TOR 39 7 5 6 15
M  END
$$$$
