gdb 3698	3.5948274	1.077093	1.0658226	1.2591	76.49	-0.24966	0.0762	0.32586	1230.0627	0.154967	-422.509637	-422.500843	-422.499899	-422.542749	33.67
 OpenBabel02181911413D

 19 21  0  0  1  0  0  0  0  0999 V2000
    0.1071   -0.3845   -0.2852 C   0  0  0  0  0  0  0  0  0  0  0  0
    0.9911    0.3929    0.6550 C   0  0  1  0  0  0  0  0  0  0  0  0
    2.1650   -0.2823    1.1469 O   0  0  0  0  0  0  0  0  0  0  0  0
    2.3357    0.8489    0.3014 C   0  0  2  0  0  0  0  0  0  0  0  0
    3.0610    2.1443    0.7258 C   0  0  0  0  0  0  0  0  0  0  0  0
    3.7906    2.0967   -0.6290 C   0  0  1  0  0  0  0  0  0  0  0  0
    3.9999    3.2007   -1.4332 O   0  0  0  0  0  0  0  0  0  0  0  0
    4.5514    0.8142   -0.7827 C   0  0  0  0  0  0  0  0  0  0  0  0
    3.0505    0.8205   -1.0278 C   0  0  1  0  0  0  0  0  0  0  0  0
   -0.4787   -1.1273    0.2663 H   0  0  0  0  0  0  0  0  0  0  0  0
   -0.5942    0.2849   -0.7953 H   0  0  0  0  0  0  0  0  0  0  0  0
    0.7016   -0.9096   -1.0369 H   0  0  0  0  0  0  0  0  0  0  0  0
    0.4623    0.9602    1.4246 H   0  0  0  0  0  0  0  0  0  0  0  0
    2.3817    2.9978    0.7973 H   0  0  0  0  0  0  0  0  0  0  0  0
    3.6779    2.0850    1.6281 H   0  0  0  0  0  0  0  0  0  0  0  0
    4.8591    3.5771   -1.2130 H   0  0  0  0  0  0  0  0  0  0  0  0
    5.1406    0.7522   -1.6922 H   0  0  0  0  0  0  0  0  0  0  0  0
    4.9684    0.2892    0.0729 H   0  0  0  0  0  0  0  0  0  0  0  0
    2.6323    0.5355   -1.9849 H   0  0  0  0  0  0  0  0  0  0  0  0
  1 10  1  0  0  0  0
  1  2  1  0  0  0  0
  2  3  1  0  0  0  0
  2 13  1  1  0  0  0
  4  2  1  0  0  0  0
  4  5  1  0  0  0  0
  4  3  1  1  0  0  0
  5 14  1  0  0  0  0
  5 15  1  0  0  0  0
  6  7  1  6  0  0  0
  6  5  1  0  0  0  0
  7 16  1  0  0  0  0
  8  6  1  0  0  0  0
  8 18  1  0  0  0  0
  9 19  1  6  0  0  0
  9  8  1  0  0  0  0
  9  6  1  0  0  0  0
  9  4  1  0  0  0  0
 11  1  1  0  0  0  0
 12  1  1  0  0  0  0
 17  8  1  0  0  0  0
M TOR 0 0 1 2 3
M TOR 1 0 1 3 4
M TOR 2 0 1 3 8
M TOR 3 1 2 3 4
M TOR 4 1 2 3 8
M TOR 5 1 3 4 5
M TOR 6 1 3 4 13
M TOR 7 1 3 4 14
M TOR 8 1 3 8 5
M TOR 9 1 3 8 7
M TOR 10 1 3 8 18
M TOR 11 2 1 0 9
M TOR 12 2 1 0 10
M TOR 13 2 1 0 11
M TOR 14 2 3 1 12
M TOR 15 2 3 4 5
M TOR 16 2 3 4 13
M TOR 17 2 3 4 14
M TOR 18 2 3 8 5
M TOR 19 2 3 8 7
M TOR 20 2 3 8 18
M TOR 21 3 1 0 9
M TOR 22 3 1 0 10
M TOR 23 3 1 0 11
M TOR 24 3 4 5 6
M TOR 25 3 4 5 7
M TOR 26 3 4 5 8
M TOR 27 3 8 5 6
M TOR 28 3 8 5 7
M TOR 29 3 8 7 16
M TOR 30 3 8 7 17
M TOR 31 4 3 1 12
M TOR 32 4 3 8 7
M TOR 33 4 3 8 18
M TOR 34 4 5 6 15
M TOR 35 4 5 7 8
M TOR 36 4 5 7 16
M TOR 37 4 5 7 17
M TOR 38 4 5 8 18
M TOR 39 5 7 8 18
M TOR 40 5 8 7 16
M TOR 41 5 8 7 17
M TOR 42 6 5 4 13
M TOR 43 6 5 4 14
M TOR 44 6 5 7 8
M TOR 45 6 5 7 16
M TOR 46 6 5 7 17
M TOR 47 6 5 8 18
M TOR 48 7 5 4 13
M TOR 49 7 5 4 14
M TOR 50 7 5 6 15
M TOR 51 8 3 1 12
M TOR 52 8 3 4 13
M TOR 53 8 3 4 14
M TOR 54 8 5 4 13
M TOR 55 8 5 4 14
M TOR 56 8 5 6 15
M  END
$$$$
