
     RDKit          3D

 19 21  0  0  0  0  0  0  0  0999 V2000
    2.2184   -1.8715   -1.3117 C   0  0  0  0  0  0  0  0  0  0  0  0
    0.7840   -1.4084   -1.3145 C   0  0  0  0  0  0  0  0  0  0  0  0
   -0.3683   -2.4150   -1.1183 C   0  0  0  0  0  0  0  0  0  0  0  0
   -1.4213   -1.4929   -1.7667 C   0  0  0  0  0  0  0  0  0  0  0  0
   -0.9101   -1.4056   -3.1313 O   0  0  0  0  0  0  0  0  0  0  0  0
    0.1126   -0.5952   -2.5402 C   0  0  0  0  0  0  0  0  0  0  0  0
   -0.8206   -0.0762   -1.4274 C   0  0  0  0  0  0  0  0  0  0  0  0
    0.2939   -0.2476   -0.3914 C   0  0  0  0  0  0  0  0  0  0  0  0
    1.1100    0.9077   -0.4238 O   0  0  0  0  0  0  0  0  0  0  0  0
    2.4751   -2.3900   -0.3797 H   0  0  0  0  0  0  0  0  0  0  0  0
    2.4107   -2.5656   -2.1370 H   0  0  0  0  0  0  0  0  0  0  0  0
    2.9046   -1.0247   -1.4266 H   0  0  0  0  0  0  0  0  0  0  0  0
   -0.2653   -3.3401   -1.6900 H   0  0  0  0  0  0  0  0  0  0  0  0
   -0.5499   -2.6510   -0.0651 H   0  0  0  0  0  0  0  0  0  0  0  0
   -2.4818   -1.7334   -1.7064 H   0  0  0  0  0  0  0  0  0  0  0  0
    0.7217   -0.0154   -3.2294 H   0  0  0  0  0  0  0  0  0  0  0  0
   -1.4472    0.8090   -1.5090 H   0  0  0  0  0  0  0  0  0  0  0  0
    0.0243   -0.5198    0.6396 H   0  0  0  0  0  0  0  0  0  0  0  0
    1.9130    0.7174    0.0717 H   0  0  0  0  0  0  0  0  0  0  0  0
  1  2  1  0
  2  3  1  0
  3  4  1  0
  4  5  1  0
  5  6  1  0
  6  7  1  0
  7  8  1  0
  8  9  1  0
  6  2  1  0
  8  2  1  0
  7  4  1  0
  1 10  1  0
  1 11  1  0
  1 12  1  0
  3 13  1  0
  3 14  1  0
  4 15  1  0
  6 16  1  0
  7 17  1  0
  8 18  1  0
  9 19  1  0
M  END
$$$$
