
     RDKit          3D

 19 18  0  0  0  0  0  0  0  0999 V2000
    1.4534    0.2376   -0.1575 C   0  0  0  0  0  0  0  0  0  0  0  0
    0.1274   -0.1587    0.1135 O   0  0  0  0  0  0  0  0  0  0  0  0
   -0.4862    0.5075    1.2021 C   0  0  0  0  0  0  0  0  0  0  0  0
   -1.9919    0.4342    0.9900 C   0  0  0  0  0  0  0  0  0  0  0  0
   -0.0528   -0.1572    2.5378 C   0  0  0  0  0  0  0  0  0  0  0  0
   -0.5171    0.5515    3.7170 C   0  0  0  0  0  0  0  0  0  0  0  0
   -0.9090    1.1798    4.6726 C   0  0  0  0  0  0  0  0  0  0  0  0
   -1.3665    1.8854    5.8404 C   0  0  0  0  0  0  0  0  0  0  0  0
   -1.7021    3.0481    5.8540 O   0  0  0  0  0  0  0  0  0  0  0  0
    2.1489   -0.0109    0.6585 H   0  0  0  0  0  0  0  0  0  0  0  0
    1.7713   -0.3009   -1.0534 H   0  0  0  0  0  0  0  0  0  0  0  0
    1.5212    1.3191   -0.3489 H   0  0  0  0  0  0  0  0  0  0  0  0
   -0.1662    1.5610    1.2246 H   0  0  0  0  0  0  0  0  0  0  0  0
   -2.5227    0.9142    1.8163 H   0  0  0  0  0  0  0  0  0  0  0  0
   -2.2648    0.9340    0.0576 H   0  0  0  0  0  0  0  0  0  0  0  0
   -2.3127   -0.6105    0.9250 H   0  0  0  0  0  0  0  0  0  0  0  0
   -0.4150   -1.1928    2.5484 H   0  0  0  0  0  0  0  0  0  0  0  0
    1.0422   -0.2119    2.5762 H   0  0  0  0  0  0  0  0  0  0  0  0
   -1.3912    1.2678    6.7616 H   0  0  0  0  0  0  0  0  0  0  0  0
  1  2  1  0
  2  3  1  0
  3  4  1  0
  3  5  1  0
  5  6  1  0
  6  7  3  0
  7  8  1  0
  8  9  2  0
  1 10  1  0
  1 11  1  0
  1 12  1  0
  3 13  1  0
  4 14  1  0
  4 15  1  0
  4 16  1  0
  5 17  1  0
  5 18  1  0
  8 19  1  0
M  END
$$$$
