
     RDKit          3D

 19 20  0  0  0  0  0  0  0  0999 V2000
   -3.3622    0.2557   -0.8689 C   0  0  0  0  0  0  0  0  0  0  0  0
   -2.1182    0.0723   -0.0491 C   0  0  0  0  0  0  0  0  0  0  0  0
   -2.0318   -0.7563    1.1855 C   0  0  0  0  0  0  0  0  0  0  0  0
   -1.1539   -1.1653    0.0078 C   0  0  0  0  0  0  0  0  0  0  0  0
   -1.1036   -2.5357   -0.6162 C   0  0  0  0  0  0  0  0  0  0  0  0
   -0.0729   -3.3123   -0.0270 O   0  0  0  0  0  0  0  0  0  0  0  0
   -0.0127   -0.2155   -0.0936 C   0  0  0  0  0  0  0  0  0  0  0  0
    1.1516   -0.3969   -0.3467 O   0  0  0  0  0  0  0  0  0  0  0  0
   -0.9148    1.0405   -0.0621 C   0  0  0  0  0  0  0  0  0  0  0  0
   -3.9847   -0.6443   -0.8551 H   0  0  0  0  0  0  0  0  0  0  0  0
   -3.9668    1.0812   -0.4752 H   0  0  0  0  0  0  0  0  0  0  0  0
   -3.1240    0.4888   -1.9123 H   0  0  0  0  0  0  0  0  0  0  0  0
   -1.5899   -0.3622    2.0973 H   0  0  0  0  0  0  0  0  0  0  0  0
   -2.8546   -1.4452    1.3570 H   0  0  0  0  0  0  0  0  0  0  0  0
   -2.0406   -3.0798   -0.4594 H   0  0  0  0  0  0  0  0  0  0  0  0
   -0.9539   -2.4423   -1.7037 H   0  0  0  0  0  0  0  0  0  0  0  0
    0.7441   -2.8097   -0.1399 H   0  0  0  0  0  0  0  0  0  0  0  0
   -0.8201    1.7230    0.7881 H   0  0  0  0  0  0  0  0  0  0  0  0
   -0.8039    1.6077   -0.9917 H   0  0  0  0  0  0  0  0  0  0  0  0
  1  2  1  0
  2  3  1  0
  3  4  1  0
  4  5  1  0
  5  6  1  0
  4  7  1  0
  7  8  2  0
  7  9  1  0
  4  2  1  0
  9  2  1  0
  1 10  1  0
  1 11  1  0
  1 12  1  0
  3 13  1  0
  3 14  1  0
  5 15  1  0
  5 16  1  0
  6 17  1  0
  9 18  1  0
  9 19  1  0
M  END
$$$$
