
     RDKit          3D

 19 20  0  0  0  0  0  0  0  0999 V2000
   -1.2893    3.4705    2.9461 C   0  0  0  0  0  0  0  0  0  0  0  0
   -1.6090    2.9665    1.5771 C   0  0  0  0  0  0  0  0  0  0  0  0
   -2.9405    3.0533    0.8089 C   0  0  0  0  0  0  0  0  0  0  0  0
   -2.5224    1.7661    0.0173 C   0  0  0  0  0  0  0  0  0  0  0  0
   -1.2146    1.7525    0.8271 C   0  0  0  0  0  0  0  0  0  0  0  0
   -0.3290    0.5877    1.1609 C   0  0  0  0  0  0  0  0  0  0  0  0
    0.4904    0.1376   -0.0385 C   0  0  0  0  0  0  0  0  0  0  0  0
    0.5629   -0.9998   -0.4242 O   0  0  0  0  0  0  0  0  0  0  0  0
   -0.5741    3.0196    0.5770 O   0  0  0  0  0  0  0  0  0  0  0  0
   -2.0549    3.1585    3.6636 H   0  0  0  0  0  0  0  0  0  0  0  0
   -0.3184    3.0959    3.2818 H   0  0  0  0  0  0  0  0  0  0  0  0
   -1.2480    4.5656    2.9530 H   0  0  0  0  0  0  0  0  0  0  0  0
   -3.8168    2.8917    1.4415 H   0  0  0  0  0  0  0  0  0  0  0  0
   -3.0735    3.9679    0.2264 H   0  0  0  0  0  0  0  0  0  0  0  0
   -3.1704    0.9123    0.2295 H   0  0  0  0  0  0  0  0  0  0  0  0
   -2.3973    1.8689   -1.0632 H   0  0  0  0  0  0  0  0  0  0  0  0
    0.3793    0.8987    1.9408 H   0  0  0  0  0  0  0  0  0  0  0  0
   -0.9070   -0.2644    1.5298 H   0  0  0  0  0  0  0  0  0  0  0  0
    1.0394    0.9604   -0.5467 H   0  0  0  0  0  0  0  0  0  0  0  0
  1  2  1  0
  2  3  1  0
  3  4  1  0
  4  5  1  0
  5  6  1  0
  6  7  1  0
  7  8  2  0
  5  9  1  0
  5  2  1  0
  9  2  1  0
  1 10  1  0
  1 11  1  0
  1 12  1  0
  3 13  1  0
  3 14  1  0
  4 15  1  0
  4 16  1  0
  6 17  1  0
  6 18  1  0
  7 19  1  0
M  END
$$$$
