
     RDKit          3D

 19 21  0  0  0  0  0  0  0  0999 V2000
    0.0405    0.0703   -0.3005 C   0  0  0  0  0  0  0  0  0  0  0  0
    1.4101   -0.1835    0.2574 C   0  0  0  0  0  0  0  0  0  0  0  0
    2.2134   -1.4815    0.1409 C   0  0  0  0  0  0  0  0  0  0  0  0
    3.5317   -0.6764    0.3847 C   0  0  0  0  0  0  0  0  0  0  0  0
    3.8548   -0.6401    1.8783 C   0  0  0  0  0  0  0  0  0  0  0  0
    2.6583   -0.1210    2.4802 O   0  0  0  0  0  0  0  0  0  0  0  0
    1.9752    0.5838    1.4636 C   0  0  0  0  0  0  0  0  0  0  0  0
    2.7144    0.6376    0.1860 C   0  0  0  0  0  0  0  0  0  0  0  0
    3.0846    1.8041   -0.4478 O   0  0  0  0  0  0  0  0  0  0  0  0
   -0.2284    1.1291   -0.2252 H   0  0  0  0  0  0  0  0  0  0  0  0
   -0.0194   -0.2125   -1.3585 H   0  0  0  0  0  0  0  0  0  0  0  0
   -0.7214   -0.5054    0.2383 H   0  0  0  0  0  0  0  0  0  0  0  0
    1.9927   -2.2714    0.8672 H   0  0  0  0  0  0  0  0  0  0  0  0
    2.1641   -1.8966   -0.8702 H   0  0  0  0  0  0  0  0  0  0  0  0
    4.3758   -0.8790   -0.2743 H   0  0  0  0  0  0  0  0  0  0  0  0
    4.0527   -1.6260    2.3116 H   0  0  0  0  0  0  0  0  0  0  0  0
    4.7097    0.0209    2.0894 H   0  0  0  0  0  0  0  0  0  0  0  0
    1.4159    1.4420    1.8176 H   0  0  0  0  0  0  0  0  0  0  0  0
    3.1581    1.6284   -1.3927 H   0  0  0  0  0  0  0  0  0  0  0  0
  1  2  1  0
  2  3  1  0
  3  4  1  0
  4  5  1  0
  5  6  1  0
  6  7  1  0
  7  8  1  0
  8  9  1  0
  7  2  1  0
  8  2  1  0
  8  4  1  0
  1 10  1  0
  1 11  1  0
  1 12  1  0
  3 13  1  0
  3 14  1  0
  4 15  1  0
  5 16  1  0
  5 17  1  0
  7 18  1  0
  9 19  1  0
M  END
$$$$
