
     RDKit          3D

 19 19  0  0  0  0  0  0  0  0999 V2000
   -3.5529    1.5253    2.3085 C   0  0  0  0  0  0  0  0  0  0  0  0
   -3.1232    2.7361    1.4734 C   0  0  0  0  0  0  0  0  0  0  0  0
   -1.6403    2.7554    1.1747 C   0  0  0  0  0  0  0  0  0  0  0  0
   -1.0868    3.4327   -0.0247 C   0  0  0  0  0  0  0  0  0  0  0  0
   -1.0994    1.9064    0.0153 C   0  0  0  0  0  0  0  0  0  0  0  0
    0.1832    1.2160    0.2226 C   0  0  0  0  0  0  0  0  0  0  0  0
    1.1276    1.6598    0.8464 O   0  0  0  0  0  0  0  0  0  0  0  0
    0.3319   -0.1845   -0.3889 C   0  0  0  0  0  0  0  0  0  0  0  0
   -0.5282   -0.7395   -1.0208 O   0  0  0  0  0  0  0  0  0  0  0  0
   -3.0262    1.5016    3.2686 H   0  0  0  0  0  0  0  0  0  0  0  0
   -4.6264    1.5509    2.5179 H   0  0  0  0  0  0  0  0  0  0  0  0
   -3.3333    0.5888    1.7857 H   0  0  0  0  0  0  0  0  0  0  0  0
   -3.6823    2.7563    0.5295 H   0  0  0  0  0  0  0  0  0  0  0  0
   -3.3853    3.6617    2.0024 H   0  0  0  0  0  0  0  0  0  0  0  0
   -0.9866    2.7487    2.0440 H   0  0  0  0  0  0  0  0  0  0  0  0
   -1.7728    3.8983   -0.7243 H   0  0  0  0  0  0  0  0  0  0  0  0
   -0.1089    3.8945    0.0539 H   0  0  0  0  0  0  0  0  0  0  0  0
   -1.8179    1.3810   -0.6015 H   0  0  0  0  0  0  0  0  0  0  0  0
    1.3268   -0.6326   -0.1824 H   0  0  0  0  0  0  0  0  0  0  0  0
  1  2  1  0
  2  3  1  0
  3  4  1  0
  4  5  1  0
  5  6  1  0
  6  7  2  0
  6  8  1  0
  8  9  2  0
  5  3  1  0
  1 10  1  0
  1 11  1  0
  1 12  1  0
  2 13  1  0
  2 14  1  0
  3 15  1  0
  4 16  1  0
  4 17  1  0
  5 18  1  0
  8 19  1  0
M  END
$$$$
