
     RDKit          3D

 19 21  0  0  0  0  0  0  0  0999 V2000
    0.3991   -0.2585    3.6644 C   0  0  0  0  0  0  0  0  0  0  0  0
    0.7959   -0.3865    2.2140 C   0  0  0  0  0  0  0  0  0  0  0  0
   -0.0986   -0.9803    1.3265 O   0  0  0  0  0  0  0  0  0  0  0  0
   -0.6918   -0.1731    0.3106 C   0  0  0  0  0  0  0  0  0  0  0  0
   -1.9603    0.5575    0.8299 C   0  0  0  0  0  0  0  0  0  0  0  0
   -1.0465    1.7680    1.1647 C   0  0  0  0  0  0  0  0  0  0  0  0
   -0.0471    1.2239    0.1099 C   0  0  0  0  0  0  0  0  0  0  0  0
   -0.5930    1.7248    2.5167 O   0  0  0  0  0  0  0  0  0  0  0  0
    0.5460    0.9806    2.8155 C   0  0  0  0  0  0  0  0  0  0  0  0
   -0.6201   -0.5466    3.8959 H   0  0  0  0  0  0  0  0  0  0  0  0
    1.1310   -0.4647    4.4372 H   0  0  0  0  0  0  0  0  0  0  0  0
    1.8363   -0.6286    1.9985 H   0  0  0  0  0  0  0  0  0  0  0  0
   -0.7972   -0.8194   -0.5641 H   0  0  0  0  0  0  0  0  0  0  0  0
   -2.6656    0.7831    0.0241 H   0  0  0  0  0  0  0  0  0  0  0  0
   -2.4844    0.0933    1.6672 H   0  0  0  0  0  0  0  0  0  0  0  0
   -1.4534    2.7712    1.0157 H   0  0  0  0  0  0  0  0  0  0  0  0
   -0.2994    1.6133   -0.8799 H   0  0  0  0  0  0  0  0  0  0  0  0
    1.0237    1.3465    0.2761 H   0  0  0  0  0  0  0  0  0  0  0  0
    1.4295    1.5976    2.9780 H   0  0  0  0  0  0  0  0  0  0  0  0
  1  2  1  0
  2  3  1  0
  3  4  1  0
  4  5  1  0
  5  6  1  0
  6  7  1  0
  6  8  1  0
  8  9  1  0
  9  1  1  0
  9  2  1  0
  7  4  1  0
  1 10  1  0
  1 11  1  0
  2 12  1  0
  4 13  1  0
  5 14  1  0
  5 15  1  0
  6 16  1  0
  7 17  1  0
  7 18  1  0
  9 19  1  0
M  END
$$$$
