gdb 1029	3.0336802	0.9925568	0.8726068	1.5562	81.06	-0.25093	0.02153	0.27246	1421.8219	0.153857	-422.516804	-422.506591	-422.505647	-422.552929	36.02
 OpenBabel02181911403D

 19 19  0  0  1  0  0  0  0  0999 V2000
    1.4345    0.1677   -0.0413 C   0  0  0  0  0  0  0  0  0  0  0  0
   -0.0183    0.0993    0.0210 C   0  0  0  0  0  0  0  0  0  0  0  0
   -1.2201    0.0033    0.0637 C   0  0  0  0  0  0  0  0  0  0  0  0
   -2.6725   -0.0401    0.1296 C   0  0  2  0  0  0  0  0  0  0  0  0
   -3.3163    0.1035   -1.1599 O   0  0  0  0  0  0  0  0  0  0  0  0
   -3.7165    1.4611   -0.8744 C   0  0  0  0  0  0  0  0  0  0  0  0
   -3.3391    1.3021    0.6220 C   0  0  1  0  0  0  0  0  0  0  0  0
   -4.5214    1.0915    1.5500 C   0  0  0  0  0  0  0  0  0  0  0  0
   -2.5032    2.2656    1.1930 O   0  0  0  0  0  0  0  0  0  0  0  0
    1.8554    0.5057    0.9119 H   0  0  0  0  0  0  0  0  0  0  0  0
    1.8651   -0.8138   -0.2663 H   0  0  0  0  0  0  0  0  0  0  0  0
    1.7665    0.8644   -0.8184 H   0  0  0  0  0  0  0  0  0  0  0  0
   -3.0139   -0.9485    0.6400 H   0  0  0  0  0  0  0  0  0  0  0  0
   -3.0914    2.1958   -1.3994 H   0  0  0  0  0  0  0  0  0  0  0  0
   -4.7706    1.6380   -1.1141 H   0  0  0  0  0  0  0  0  0  0  0  0
   -4.1769    0.7429    2.5280 H   0  0  0  0  0  0  0  0  0  0  0  0
   -5.0569    2.0350    1.6927 H   0  0  0  0  0  0  0  0  0  0  0  0
   -5.2144    0.3554    1.1332 H   0  0  0  0  0  0  0  0  0  0  0  0
   -1.6281    2.1703    0.7931 H   0  0  0  0  0  0  0  0  0  0  0  0
  1  2  1  0  0  0  0
  1 10  1  0  0  0  0
  2  3  3  0  0  0  0
  3  4  1  0  0  0  0
  4  7  1  0  0  0  0
  4 13  1  1  0  0  0
  5  6  1  0  0  0  0
  5  4  1  0  0  0  0
  6  7  1  0  0  0  0
  7  9  1  1  0  0  0
  7  8  1  0  0  0  0
  8 17  1  0  0  0  0
  8 16  1  0  0  0  0
 11  1  1  0  0  0  0
 12  1  1  0  0  0  0
 14  6  1  0  0  0  0
 15  6  1  0  0  0  0
 18  8  1  0  0  0  0
 19  9  1  0  0  0  0
M TOR 0 0 1 2 3
M TOR 1 1 2 3 4
M TOR 2 1 2 3 6
M TOR 3 1 2 3 12
M TOR 4 2 1 0 9
M TOR 5 2 1 0 10
M TOR 6 2 1 0 11
M TOR 7 2 3 4 5
M TOR 8 2 3 6 5
M TOR 9 2 3 6 7
M TOR 10 2 3 6 8
M TOR 11 3 4 5 6
M TOR 12 3 4 5 13
M TOR 13 3 4 5 14
M TOR 14 3 6 5 13
M TOR 15 3 6 5 14
M TOR 16 3 6 7 15
M TOR 17 3 6 7 16
M TOR 18 3 6 7 17
M TOR 19 3 6 8 18
M TOR 20 4 3 6 7
M TOR 21 4 3 6 8
M TOR 22 4 5 6 7
M TOR 23 4 5 6 8
M TOR 24 5 4 3 12
M TOR 25 5 6 3 12
M TOR 26 5 6 7 15
M TOR 27 5 6 7 16
M TOR 28 5 6 7 17
M TOR 29 5 6 8 18
M TOR 30 7 6 3 12
M TOR 31 7 6 5 13
M TOR 32 7 6 5 14
M TOR 33 7 6 8 18
M TOR 34 8 6 3 12
M TOR 35 8 6 5 13
M TOR 36 8 6 5 14
M TOR 37 8 6 7 15
M TOR 38 8 6 7 16
M TOR 39 8 6 7 17
M  END
$$$$
