gdb 4139	3.1612236	1.6223245	1.3644291	1.7366	74.61	-0.24175	0.05822	0.29997	994.9345	0.158123	-422.481409	-422.474167	-422.473222	-422.512567	29.55
 OpenBabel02181911413D

 19 21  0  0  1  0  0  0  0  0999 V2000
    0.3131    0.2823    0.4090 C   0  0  0  0  0  0  0  0  0  0  0  0
    0.9464   -0.5802   -0.6687 C   0  0  1  0  0  0  0  0  0  0  0  0
    2.4207   -0.4404   -0.6549 O   0  0  0  0  0  0  0  0  0  0  0  0
    2.9288   -1.8001   -0.4790 C   0  0  1  0  0  0  0  0  0  0  0  0
    1.9972   -2.3634    0.5875 C   0  0  0  0  0  0  0  0  0  0  0  0
    0.9352   -2.0935   -0.5540 C   0  0  1  0  0  0  0  0  0  0  0  0
    0.2501   -3.3718   -1.0333 C   0  0  0  0  0  0  0  0  0  0  0  0
    1.5412   -3.8504   -1.5316 O   0  0  0  0  0  0  0  0  0  0  0  0
    2.0516   -2.4861   -1.5522 C   0  0  2  0  0  0  0  0  0  0  0  0
    0.5939   -0.0420    1.4136 H   0  0  0  0  0  0  0  0  0  0  0  0
    0.6294    1.3223    0.2872 H   0  0  0  0  0  0  0  0  0  0  0  0
   -0.7785    0.2465    0.3238 H   0  0  0  0  0  0  0  0  0  0  0  0
    0.5885   -0.2554   -1.6532 H   0  0  0  0  0  0  0  0  0  0  0  0
    4.0166   -1.7514   -0.4336 H   0  0  0  0  0  0  0  0  0  0  0  0
    2.1259   -3.4285    0.7698 H   0  0  0  0  0  0  0  0  0  0  0  0
    1.9136   -1.8035    1.5188 H   0  0  0  0  0  0  0  0  0  0  0  0
   -0.1717   -4.0424   -0.2785 H   0  0  0  0  0  0  0  0  0  0  0  0
   -0.4608   -3.2361   -1.8586 H   0  0  0  0  0  0  0  0  0  0  0  0
    2.1104   -2.0861   -2.5684 H   0  0  0  0  0  0  0  0  0  0  0  0
  1 10  1  0  0  0  0
  2 13  1  6  0  0  0
  2  3  1  0  0  0  0
  2  6  1  0  0  0  0
  2  1  1  0  0  0  0
  3  4  1  0  0  0  0
  4 14  1  1  0  0  0
  4  5  1  0  0  0  0
  5 15  1  0  0  0  0
  5 16  1  0  0  0  0
  6  7  1  6  0  0  0
  6  5  1  0  0  0  0
  7 17  1  0  0  0  0
  8  7  1  0  0  0  0
  9 19  1  6  0  0  0
  9  8  1  0  0  0  0
  9  6  1  0  0  0  0
  9  4  1  0  0  0  0
 11  1  1  0  0  0  0
 12  1  1  0  0  0  0
 18  7  1  0  0  0  0
M TOR 0 0 1 2 3
M TOR 1 0 1 5 4
M TOR 2 0 1 5 6
M TOR 3 0 1 5 8
M TOR 4 1 2 3 4
M TOR 5 1 2 3 8
M TOR 6 1 2 3 13
M TOR 7 1 5 4 3
M TOR 8 1 5 4 14
M TOR 9 1 5 4 15
M TOR 10 1 5 6 7
M TOR 11 1 5 6 16
M TOR 12 1 5 6 17
M TOR 13 1 5 8 3
M TOR 14 1 5 8 7
M TOR 15 1 5 8 18
M TOR 16 2 1 0 9
M TOR 17 2 1 0 10
M TOR 18 2 1 0 11
M TOR 19 2 1 5 4
M TOR 20 2 1 5 6
M TOR 21 2 1 5 8
M TOR 22 2 3 4 5
M TOR 23 2 3 4 14
M TOR 24 2 3 4 15
M TOR 25 2 3 8 5
M TOR 26 2 3 8 7
M TOR 27 2 3 8 18
M TOR 28 3 2 1 5
M TOR 29 3 2 1 12
M TOR 30 3 4 5 6
M TOR 31 3 4 5 8
M TOR 32 3 8 5 6
M TOR 33 3 8 7 6
M TOR 34 4 3 8 7
M TOR 35 4 3 8 18
M TOR 36 4 5 1 12
M TOR 37 4 5 6 7
M TOR 38 4 5 6 16
M TOR 39 4 5 6 17
M TOR 40 4 5 8 7
M TOR 41 4 5 8 18
M TOR 42 5 1 0 9
M TOR 43 5 1 0 10
M TOR 44 5 1 0 11
M TOR 45 5 4 3 13
M TOR 46 5 6 7 8
M TOR 47 5 8 3 13
M TOR 48 6 5 1 12
M TOR 49 6 5 4 14
M TOR 50 6 5 4 15
M TOR 51 6 5 8 18
M TOR 52 6 7 8 18
M TOR 53 7 8 3 13
M TOR 54 8 3 4 14
M TOR 55 8 3 4 15
M TOR 56 8 5 1 12
M TOR 57 8 5 4 14
M TOR 58 8 5 4 15
M TOR 59 8 5 6 16
M TOR 60 8 5 6 17
M TOR 61 8 7 6 16
M TOR 62 8 7 6 17
M  END
$$$$
