gdb 3585	2.0604024	1.625925	1.1981447	2.6115	78.08	-0.24392	0.04468	0.28859999999999997	1122.1599	0.153879	-422.522105	-422.512458	-422.511514	-422.555796	36.853
 OpenBabel02181911413D

 19 19  0  0  1  0  0  0  0  0999 V2000
   -2.3348    2.0669   -2.2733 C   0  0  0  0  0  0  0  0  0  0  0  0
   -2.6562    1.6949   -0.8414 C   0  0  1  0  0  0  0  0  0  0  0  0
   -4.0264    1.3765   -0.7839 O   0  0  0  0  0  0  0  0  0  0  0  0
   -1.7671    0.6323   -0.1172 C   0  0  0  0  0  0  0  0  0  0  0  0
   -1.8793    1.4732    1.1798 C   0  0  2  0  0  0  0  0  0  0  0  0
   -3.0313    1.1369    1.9421 O   0  0  0  0  0  0  0  0  0  0  0  0
   -2.2200    2.7118    0.2965 C   0  0  2  0  0  0  0  0  0  0  0  0
   -3.1574    3.7025    0.7705 C   0  0  0  0  0  0  0  0  0  0  0  0
   -3.9465    4.5275    1.1477 C   0  0  0  0  0  0  0  0  0  0  0  0
   -2.5829    1.2359   -2.9411 H   0  0  0  0  0  0  0  0  0  0  0  0
   -2.9282    2.9344   -2.5771 H   0  0  0  0  0  0  0  0  0  0  0  0
   -1.2741    2.3057   -2.3915 H   0  0  0  0  0  0  0  0  0  0  0  0
   -4.2493    1.2411    0.1474 H   0  0  0  0  0  0  0  0  0  0  0  0
   -2.1724   -0.3822   -0.0808 H   0  0  0  0  0  0  0  0  0  0  0  0
   -0.7440    0.6057   -0.5034 H   0  0  0  0  0  0  0  0  0  0  0  0
   -0.9945    1.5559    1.8218 H   0  0  0  0  0  0  0  0  0  0  0  0
   -2.9052    0.2483    2.2920 H   0  0  0  0  0  0  0  0  0  0  0  0
   -1.2792    3.1866   -0.0034 H   0  0  0  0  0  0  0  0  0  0  0  0
   -4.6448    5.2527    1.4847 H   0  0  0  0  0  0  0  0  0  0  0  0
  1  2  1  0  0  0  0
  2  3  1  1  0  0  0
  2  4  1  0  0  0  0
  2  7  1  0  0  0  0
  3 13  1  0  0  0  0
  4 14  1  0  0  0  0
  4  5  1  0  0  0  0
  5 16  1  1  0  0  0
  5  6  1  0  0  0  0
  6 17  1  0  0  0  0
  7 18  1  6  0  0  0
  7  8  1  0  0  0  0
  7  5  1  0  0  0  0
  8  9  3  0  0  0  0
  9 19  1  0  0  0  0
 10  1  1  0  0  0  0
 11  1  1  0  0  0  0
 12  1  1  0  0  0  0
 15  4  1  0  0  0  0
M TOR 0 0 1 2 12
M TOR 1 0 1 3 4
M TOR 2 0 1 3 13
M TOR 3 0 1 3 14
M TOR 4 0 1 6 4
M TOR 5 0 1 6 7
M TOR 6 0 1 6 17
M TOR 7 1 3 4 5
M TOR 8 1 3 4 6
M TOR 9 1 3 4 15
M TOR 10 1 6 4 5
M TOR 11 1 6 4 15
M TOR 12 1 6 7 8
M TOR 13 2 1 0 9
M TOR 14 2 1 0 10
M TOR 15 2 1 0 11
M TOR 16 2 1 3 4
M TOR 17 2 1 3 13
M TOR 18 2 1 3 14
M TOR 19 2 1 6 4
M TOR 20 2 1 6 7
M TOR 21 2 1 6 17
M TOR 22 3 1 0 9
M TOR 23 3 1 0 10
M TOR 24 3 1 0 11
M TOR 25 3 1 2 12
M TOR 26 3 1 6 7
M TOR 27 3 1 6 17
M TOR 28 3 4 5 16
M TOR 29 3 4 6 7
M TOR 30 3 4 6 17
M TOR 31 4 6 7 8
M TOR 32 5 4 3 13
M TOR 33 5 4 3 14
M TOR 34 5 4 6 7
M TOR 35 5 4 6 17
M TOR 36 6 1 0 9
M TOR 37 6 1 0 10
M TOR 38 6 1 0 11
M TOR 39 6 1 2 12
M TOR 40 6 1 3 13
M TOR 41 6 1 3 14
M TOR 42 6 4 3 13
M TOR 43 6 4 3 14
M TOR 44 6 4 5 16
M TOR 45 6 7 8 18
M TOR 46 7 6 4 15
M TOR 47 8 7 6 17
M  END
$$$$
