
     RDKit          3D

 19 21  0  0  0  0  0  0  0  0999 V2000
    0.1289    0.0920    1.0794 O   0  0  0  0  0  0  0  0  0  0  0  0
   -0.6215    1.2310    0.8402 C   0  0  0  0  0  0  0  0  0  0  0  0
   -2.0536    1.1910    0.3965 C   0  0  0  0  0  0  0  0  0  0  0  0
   -1.7045    1.8221    1.7298 C   0  0  0  0  0  0  0  0  0  0  0  0
   -1.1528    3.2325    1.4905 C   0  0  0  0  0  0  0  0  0  0  0  0
   -0.5271    3.8269    2.6064 O   0  0  0  0  0  0  0  0  0  0  0  0
    0.7447    3.2084    2.7863 C   0  0  0  0  0  0  0  0  0  0  0  0
    1.2611    2.9179    1.3685 C   0  0  0  0  0  0  0  0  0  0  0  0
   -0.0184    2.6211    0.5784 C   0  0  0  0  0  0  0  0  0  0  0  0
    0.2812   -0.3548    0.2392 H   0  0  0  0  0  0  0  0  0  0  0  0
   -2.4087    1.8002   -0.4332 H   0  0  0  0  0  0  0  0  0  0  0  0
   -2.5233    0.2155    0.4775 H   0  0  0  0  0  0  0  0  0  0  0  0
   -2.1184    1.4591    2.6626 H   0  0  0  0  0  0  0  0  0  0  0  0
   -1.8474    3.9627    1.0655 H   0  0  0  0  0  0  0  0  0  0  0  0
    1.3723    3.9020    3.3517 H   0  0  0  0  0  0  0  0  0  0  0  0
    0.6483    2.2780    3.3640 H   0  0  0  0  0  0  0  0  0  0  0  0
    1.7567    3.8007    0.9545 H   0  0  0  0  0  0  0  0  0  0  0  0
    1.9641    2.0813    1.3466 H   0  0  0  0  0  0  0  0  0  0  0  0
    0.0393    2.9341   -0.4683 H   0  0  0  0  0  0  0  0  0  0  0  0
  1  2  1  0
  2  3  1  0
  3  4  1  0
  4  5  1  0
  5  6  1  0
  6  7  1  0
  7  8  1  0
  8  9  1  0
  4  2  1  0
  9  5  1  0
  9  2  1  0
  1 10  1  0
  3 11  1  0
  3 12  1  0
  4 13  1  0
  5 14  1  0
  7 15  1  0
  7 16  1  0
  8 17  1  0
  8 18  1  0
  9 19  1  0
M  END
$$$$
