
     RDKit          3D

 19 21  0  0  0  0  0  0  0  0999 V2000
    0.0420   -0.0797    0.1506 C   0  0  0  0  0  0  0  0  0  0  0  0
    1.5167    0.0438   -0.0940 C   0  0  0  0  0  0  0  0  0  0  0  0
    2.2510   -1.1883   -0.0183 O   0  0  0  0  0  0  0  0  0  0  0  0
    3.2695   -0.6073   -0.8957 C   0  0  0  0  0  0  0  0  0  0  0  0
    4.3670   -0.0116   -0.0181 C   0  0  0  0  0  0  0  0  0  0  0  0
    3.6514    0.7763    1.1122 C   0  0  0  0  0  0  0  0  0  0  0  0
    2.3212    1.2549    0.5401 C   0  0  0  0  0  0  0  0  0  0  0  0
    2.5686    1.8004   -0.7973 O   0  0  0  0  0  0  0  0  0  0  0  0
    2.2608    0.5162   -1.3436 C   0  0  0  0  0  0  0  0  0  0  0  0
   -0.1503   -0.3739    1.1885 H   0  0  0  0  0  0  0  0  0  0  0  0
   -0.4551    0.8780   -0.0310 H   0  0  0  0  0  0  0  0  0  0  0  0
   -0.3965   -0.8367   -0.5057 H   0  0  0  0  0  0  0  0  0  0  0  0
    3.6121   -1.3267   -1.6429 H   0  0  0  0  0  0  0  0  0  0  0  0
    5.0068   -0.7999    0.3877 H   0  0  0  0  0  0  0  0  0  0  0  0
    4.9924    0.6556   -0.6189 H   0  0  0  0  0  0  0  0  0  0  0  0
    3.4639    0.1306    1.9756 H   0  0  0  0  0  0  0  0  0  0  0  0
    4.2535    1.6243    1.4503 H   0  0  0  0  0  0  0  0  0  0  0  0
    1.7748    1.9630    1.1686 H   0  0  0  0  0  0  0  0  0  0  0  0
    1.9053    0.5379   -2.3750 H   0  0  0  0  0  0  0  0  0  0  0  0
  1  2  1  0
  2  3  1  0
  3  4  1  0
  4  5  1  0
  5  6  1  0
  6  7  1  0
  7  8  1  0
  8  9  1  0
  7  2  1  0
  9  2  1  0
  9  4  1  0
  1 10  1  0
  1 11  1  0
  1 12  1  0
  4 13  1  0
  5 14  1  0
  5 15  1  0
  6 16  1  0
  6 17  1  0
  7 18  1  0
  9 19  1  0
M  END
$$$$
