gdb 3319	2.7843486	1.247551	0.9935652	2.1394	75.65	-0.24044	-0.0296	0.21083999999999997	1237.8861	0.156152	-422.558986	-422.550285	-422.549341	-422.592756	31.804
 OpenBabel02181911413D

 19 20  0  0  1  0  0  0  0  0999 V2000
    2.2391   -0.9154   -1.4154 C   0  0  0  0  0  0  0  0  0  0  0  0
    1.4815   -0.3961   -0.2137 C   0  0  2  0  0  0  0  0  0  0  0  0
    1.8626    0.9304    0.3954 C   0  0  1  0  0  0  0  0  0  0  0  0
    0.8013    1.6390    1.2135 C   0  0  0  0  0  0  0  0  0  0  0  0
    0.2477    0.6441    2.0854 O   0  0  0  0  0  0  0  0  0  0  0  0
    1.2409   -0.3452    2.3405 C   0  0  2  0  0  0  0  0  0  0  0  0
    1.9877   -0.0464    3.6407 C   0  0  0  0  0  0  0  0  0  0  0  0
    3.0759   -0.4799    3.9155 O   0  0  0  0  0  0  0  0  0  0  0  0
    2.1577   -0.3588    1.1331 C   0  0  1  0  0  0  0  0  0  0  0  0
    2.1793   -2.0071   -1.4810 H   0  0  0  0  0  0  0  0  0  0  0  0
    1.8368   -0.5014   -2.3463 H   0  0  0  0  0  0  0  0  0  0  0  0
    3.2988   -0.6443   -1.3617 H   0  0  0  0  0  0  0  0  0  0  0  0
    0.4191   -0.6326   -0.2019 H   0  0  0  0  0  0  0  0  0  0  0  0
    2.6553    1.5188   -0.0525 H   0  0  0  0  0  0  0  0  0  0  0  0
    1.2509    2.4625    1.7901 H   0  0  0  0  0  0  0  0  0  0  0  0
   -0.0313    2.0434    0.6284 H   0  0  0  0  0  0  0  0  0  0  0  0
    0.7052   -1.2944    2.4943 H   0  0  0  0  0  0  0  0  0  0  0  0
    1.4143    0.6096    4.3350 H   0  0  0  0  0  0  0  0  0  0  0  0
    3.1630   -0.7385    1.2656 H   0  0  0  0  0  0  0  0  0  0  0  0
  1 12  1  0  0  0  0
  1  2  1  0  0  0  0
  2 13  1  1  0  0  0
  2  3  1  0  0  0  0
  2  9  1  0  0  0  0
  3 14  1  6  0  0  0
  3  9  1  0  0  0  0
  3  4  1  0  0  0  0
  4 15  1  0  0  0  0
  4  5  1  0  0  0  0
  5  6  1  0  0  0  0
  6 17  1  1  0  0  0
  6  7  1  0  0  0  0
  7  8  2  0  0  0  0
  7 18  1  0  0  0  0
  9 19  1  1  0  0  0
  9  6  1  0  0  0  0
 10  1  1  0  0  0  0
 11  1  1  0  0  0  0
 16  4  1  0  0  0  0
M TOR 0 0 1 2 3
M TOR 1 0 1 2 8
M TOR 2 0 1 2 13
M TOR 3 0 1 8 5
M TOR 4 0 1 8 18
M TOR 5 1 2 3 4
M TOR 6 1 2 3 14
M TOR 7 1 2 3 15
M TOR 8 1 2 8 5
M TOR 9 1 2 8 18
M TOR 10 1 8 2 3
M TOR 11 1 8 2 13
M TOR 12 1 8 5 4
M TOR 13 1 8 5 6
M TOR 14 1 8 5 16
M TOR 15 2 1 0 9
M TOR 16 2 1 0 10
M TOR 17 2 1 0 11
M TOR 18 2 3 4 5
M TOR 19 2 8 1 12
M TOR 20 2 8 5 4
M TOR 21 2 8 5 6
M TOR 22 2 8 5 16
M TOR 23 3 2 1 12
M TOR 24 3 2 8 5
M TOR 25 3 2 8 18
M TOR 26 3 4 5 6
M TOR 27 3 4 5 8
M TOR 28 3 4 5 16
M TOR 29 4 3 2 8
M TOR 30 4 3 2 13
M TOR 31 4 5 6 7
M TOR 32 4 5 6 17
M TOR 33 4 5 8 18
M TOR 34 5 4 3 14
M TOR 35 5 4 3 15
M TOR 36 5 8 1 12
M TOR 37 5 8 2 13
M TOR 38 6 5 8 18
M TOR 39 7 6 5 8
M TOR 40 7 6 5 16
M TOR 41 8 1 0 9
M TOR 42 8 1 0 10
M TOR 43 8 1 0 11
M TOR 44 8 2 3 14
M TOR 45 8 2 3 15
M TOR 46 8 5 6 17
M  END
$$$$
