gdb 5571	3.0091672	1.4904557	1.1633652	2.4286	74.35	-0.24447	0.06417	0.30864	1080.0713	0.157679	-422.506142	-422.498204	-422.49726	-422.538166	31.686
 OpenBabel02181911423D

 19 21  0  0  1  0  0  0  0  0999 V2000
    1.3616    0.8476    0.1671 O   0  0  0  0  0  0  0  0  0  0  0  0
    0.3121   -0.0518    0.4867 C   0  0  0  0  0  0  0  0  0  0  0  0
   -0.9544    0.6850    0.9085 C   0  0  1  0  0  0  0  0  0  0  0  0
   -1.9868   -0.1906    1.6866 C   0  0  2  0  0  0  0  0  0  0  0  0
   -3.1454    0.7908    2.0281 C   0  0  0  0  0  0  0  0  0  0  0  0
   -2.1385    1.4849    2.9418 C   0  0  1  0  0  0  0  0  0  0  0  0
   -1.2782    0.2347    3.0384 C   0  0  2  0  0  0  0  0  0  0  0  0
   -0.7699    1.4028    2.2451 C   0  0  1  0  0  0  0  0  0  0  0  0
    0.2982    2.2189    2.5958 O   0  0  0  0  0  0  0  0  0  0  0  0
    1.5008    1.3878    0.9552 H   0  0  0  0  0  0  0  0  0  0  0  0
    0.1270   -0.6451   -0.4155 H   0  0  0  0  0  0  0  0  0  0  0  0
    0.6120   -0.7520    1.2845 H   0  0  0  0  0  0  0  0  0  0  0  0
   -1.3476    1.2715    0.0681 H   0  0  0  0  0  0  0  0  0  0  0  0
   -2.1850   -1.2120    1.3677 H   0  0  0  0  0  0  0  0  0  0  0  0
   -3.5899    1.3534    1.1987 H   0  0  0  0  0  0  0  0  0  0  0  0
   -3.9352    0.3014    2.6051 H   0  0  0  0  0  0  0  0  0  0  0  0
   -2.3079    2.2188    3.7203 H   0  0  0  0  0  0  0  0  0  0  0  0
   -0.8811   -0.3036    3.8856 H   0  0  0  0  0  0  0  0  0  0  0  0
    0.0903    3.1226    2.3308 H   0  0  0  0  0  0  0  0  0  0  0  0
  1  2  1  0  0  0  0
  1 10  1  0  0  0  0
  2  3  1  0  0  0  0
  2 12  1  0  0  0  0
  3 13  1  6  0  0  0
  3  4  1  0  0  0  0
  3  8  1  0  0  0  0
  4 14  1  6  0  0  0
  4  5  1  0  0  0  0
  4  7  1  0  0  0  0
  5 16  1  0  0  0  0
  5  6  1  0  0  0  0
  6  7  1  0  0  0  0
  6 17  1  1  0  0  0
  7 18  1  1  0  0  0
  8  9  1  1  0  0  0
  8  6  1  0  0  0  0
  8  7  1  0  0  0  0
 11  2  1  0  0  0  0
 15  5  1  0  0  0  0
 19  9  1  0  0  0  0
M TOR 0 0 1 2 3
M TOR 1 0 1 2 7
M TOR 2 0 1 2 12
M TOR 3 1 2 3 4
M TOR 4 1 2 3 6
M TOR 5 1 2 3 13
M TOR 6 1 2 7 5
M TOR 7 1 2 7 6
M TOR 8 1 2 7 8
M TOR 9 2 1 0 9
M TOR 10 2 3 4 5
M TOR 11 2 3 4 14
M TOR 12 2 3 4 15
M TOR 13 2 3 6 5
M TOR 14 2 3 6 7
M TOR 15 2 3 6 17
M TOR 16 2 7 5 4
M TOR 17 2 7 5 6
M TOR 18 2 7 5 16
M TOR 19 2 7 6 17
M TOR 20 2 7 8 18
M TOR 21 3 2 1 10
M TOR 22 3 2 1 11
M TOR 23 3 2 7 5
M TOR 24 3 2 7 8
M TOR 25 3 4 5 6
M TOR 26 3 4 5 7
M TOR 27 3 4 5 16
M TOR 28 3 6 5 7
M TOR 29 3 6 5 16
M TOR 30 3 6 7 8
M TOR 31 4 3 2 7
M TOR 32 4 3 2 12
M TOR 33 4 3 6 7
M TOR 34 4 3 6 17
M TOR 35 4 5 6 7
M TOR 36 4 5 6 17
M TOR 37 4 5 7 8
M TOR 38 5 4 3 13
M TOR 39 5 6 3 13
M TOR 40 5 6 7 8
M TOR 41 5 7 2 12
M TOR 42 5 7 6 17
M TOR 43 5 7 8 18
M TOR 44 6 3 2 12
M TOR 45 6 3 4 14
M TOR 46 6 3 4 15
M TOR 47 6 5 4 14
M TOR 48 6 5 4 15
M TOR 49 6 7 2 12
M TOR 50 6 7 5 16
M TOR 51 6 7 8 18
M TOR 52 7 2 1 10
M TOR 53 7 2 1 11
M TOR 54 7 2 3 13
M TOR 55 7 5 4 14
M TOR 56 7 5 4 15
M TOR 57 7 6 3 13
M TOR 58 8 7 2 12
M TOR 59 8 7 5 16
M TOR 60 8 7 6 17
M  END
$$$$
