gdb 3366	2.269881	1.7012376	1.1696883	2.3375	76.13	-0.24175	-0.02153	0.22022	1104.9563	0.15578	-422.55516	-422.546224	-422.54528	-422.588717	33.349
 OpenBabel02181911413D

 19 20  0  0  1  0  0  0  0  0999 V2000
   -1.0779    2.0136    1.0546 C   0  0  0  0  0  0  0  0  0  0  0  0
   -1.0802    0.8960    0.0173 C   0  0  2  0  0  0  0  0  0  0  0  0
   -2.2158   -0.1767    0.0723 C   0  0  1  0  0  0  0  0  0  0  0  0
   -2.7266   -0.6256   -1.3094 C   0  0  0  0  0  0  0  0  0  0  0  0
   -1.5258   -1.6046   -1.4513 C   0  0  0  0  0  0  0  0  0  0  0  0
   -1.0885   -1.3511    0.0175 C   0  0  2  0  0  0  0  0  0  0  0  0
   -0.9770   -2.4938    0.7857 O   0  0  0  0  0  0  0  0  0  0  0  0
   -0.0916   -0.2475    0.3025 C   0  0  0  0  0  0  0  0  0  0  0  0
    0.9210   -0.2947    0.9538 O   0  0  0  0  0  0  0  0  0  0  0  0
   -1.2083    1.6133    2.0648 H   0  0  0  0  0  0  0  0  0  0  0  0
   -0.1265    2.5526    1.0342 H   0  0  0  0  0  0  0  0  0  0  0  0
   -1.8841    2.7281    0.8629 H   0  0  0  0  0  0  0  0  0  0  0  0
   -0.9639    1.3106   -0.9904 H   0  0  0  0  0  0  0  0  0  0  0  0
   -2.9084   -0.0715    0.9069 H   0  0  0  0  0  0  0  0  0  0  0  0
   -3.6819   -1.1533   -1.2597 H   0  0  0  0  0  0  0  0  0  0  0  0
   -2.8079    0.1648   -2.0607 H   0  0  0  0  0  0  0  0  0  0  0  0
   -1.8148   -2.6494   -1.5778 H   0  0  0  0  0  0  0  0  0  0  0  0
   -0.7797   -1.3572   -2.2104 H   0  0  0  0  0  0  0  0  0  0  0  0
   -0.3211   -2.3131    1.4730 H   0  0  0  0  0  0  0  0  0  0  0  0
  1 10  1  0  0  0  0
  2 13  1  6  0  0  0
  2  3  1  0  0  0  0
  2  8  1  0  0  0  0
  2  1  1  0  0  0  0
  3 14  1  1  0  0  0
  4 15  1  0  0  0  0
  4  3  1  0  0  0  0
  5  4  1  0  0  0  0
  5  6  1  0  0  0  0
  6  3  1  0  0  0  0
  6  8  1  0  0  0  0
  6  7  1  1  0  0  0
  7 19  1  0  0  0  0
  8  9  2  0  0  0  0
 11  1  1  0  0  0  0
 12  1  1  0  0  0  0
 16  4  1  0  0  0  0
 17  5  1  0  0  0  0
 18  5  1  0  0  0  0
M TOR 0 0 1 2 3
M TOR 1 0 1 2 5
M TOR 2 0 1 2 13
M TOR 3 0 1 7 5
M TOR 4 0 1 7 8
M TOR 5 1 2 3 4
M TOR 6 1 2 3 14
M TOR 7 1 2 3 15
M TOR 8 1 2 5 4
M TOR 9 1 2 5 6
M TOR 10 1 2 5 7
M TOR 11 1 7 5 4
M TOR 12 1 7 5 6
M TOR 13 2 1 0 9
M TOR 14 2 1 0 10
M TOR 15 2 1 0 11
M TOR 16 2 1 7 8
M TOR 17 2 3 4 5
M TOR 18 2 3 4 16
M TOR 19 2 3 4 17
M TOR 20 2 5 4 16
M TOR 21 2 5 4 17
M TOR 22 2 5 6 18
M TOR 23 2 5 7 8
M TOR 24 3 2 1 7
M TOR 25 3 2 1 12
M TOR 26 3 2 5 6
M TOR 27 3 2 5 7
M TOR 28 3 4 5 6
M TOR 29 3 4 5 7
M TOR 30 4 3 2 13
M TOR 31 4 5 2 13
M TOR 32 4 5 6 18
M TOR 33 4 5 7 8
M TOR 34 5 2 1 12
M TOR 35 5 2 3 14
M TOR 36 5 2 3 15
M TOR 37 5 4 3 14
M TOR 38 5 4 3 15
M TOR 39 5 7 1 12
M TOR 40 6 5 2 13
M TOR 41 6 5 4 16
M TOR 42 6 5 4 17
M TOR 43 6 5 7 8
M TOR 44 7 1 0 9
M TOR 45 7 1 0 10
M TOR 46 7 1 0 11
M TOR 47 7 1 2 13
M TOR 48 7 5 2 13
M TOR 49 7 5 4 16
M TOR 50 7 5 4 17
M TOR 51 7 5 6 18
M TOR 52 8 7 1 12
M  END
$$$$
