
     RDKit          3D

 19 21  0  0  0  0  0  0  0  0999 V2000
    1.3936   -0.0914    1.0891 O   0  0  0  0  0  0  0  0  0  0  0  0
    0.3344    0.1561    0.1812 C   0  0  0  0  0  0  0  0  0  0  0  0
   -0.8913    0.7102    0.8534 C   0  0  0  0  0  0  0  0  0  0  0  0
   -1.9692    1.1068   -0.0016 O   0  0  0  0  0  0  0  0  0  0  0  0
   -2.9061    0.8654    1.1083 C   0  0  0  0  0  0  0  0  0  0  0  0
   -3.2340    2.2173    1.7312 C   0  0  0  0  0  0  0  0  0  0  0  0
   -1.8353    2.7453    2.1660 C   0  0  0  0  0  0  0  0  0  0  0  0
   -0.9457    1.4999    2.1522 C   0  0  0  0  0  0  0  0  0  0  0  0
   -1.7812    0.2419    1.9589 C   0  0  0  0  0  0  0  0  0  0  0  0
    1.7285    0.7611    1.3841 H   0  0  0  0  0  0  0  0  0  0  0  0
    0.6297    0.8460   -0.6255 H   0  0  0  0  0  0  0  0  0  0  0  0
    0.0984   -0.8047   -0.2879 H   0  0  0  0  0  0  0  0  0  0  0  0
   -3.7470    0.2469    0.7904 H   0  0  0  0  0  0  0  0  0  0  0  0
   -3.7351    2.8789    1.0193 H   0  0  0  0  0  0  0  0  0  0  0  0
   -3.8964    2.0799    2.5940 H   0  0  0  0  0  0  0  0  0  0  0  0
   -1.4695    3.5075    1.4717 H   0  0  0  0  0  0  0  0  0  0  0  0
   -1.8630    3.1962    3.1619 H   0  0  0  0  0  0  0  0  0  0  0  0
   -0.0802    1.4311    2.8016 H   0  0  0  0  0  0  0  0  0  0  0  0
   -1.7888   -0.6468    2.5738 H   0  0  0  0  0  0  0  0  0  0  0  0
  1  2  1  0
  2  3  1  0
  3  4  1  0
  4  5  1  0
  5  6  1  0
  6  7  1  0
  7  8  1  0
  8  9  1  0
  8  3  1  0
  9  3  1  0
  9  5  1  0
  1 10  1  0
  2 11  1  0
  2 12  1  0
  5 13  1  0
  6 14  1  0
  6 15  1  0
  7 16  1  0
  7 17  1  0
  8 18  1  0
  9 19  1  0
M  END
$$$$
