gdb 4188	3.4028941	1.3048109	1.0959106	1.6177	77.66	-0.23519	0.00778	0.24297000000000002	1153.8357	0.155975	-422.543168	-422.53457	-422.533626	-422.575973	33.315
 OpenBabel02181911413D

 19 20  0  0  1  0  0  0  0  0999 V2000
    0.0656    0.4205   -0.1794 C   0  0  0  0  0  0  0  0  0  0  0  0
    1.4756   -0.0427    0.1702 C   0  0  2  0  0  0  0  0  0  0  0  0
    1.3231   -1.1341    1.0807 O   0  0  0  0  0  0  0  0  0  0  0  0
    2.4955   -1.5872    1.6899 C   0  0  2  0  0  0  0  0  0  0  0  0
    2.6730   -1.2654    3.1585 C   0  0  0  0  0  0  0  0  0  0  0  0
    3.5215   -0.5807    2.0993 C   0  0  1  0  0  0  0  0  0  0  0  0
    4.8569   -1.0000    1.9725 O   0  0  0  0  0  0  0  0  0  0  0  0
    3.2457    0.8194    1.6806 C   0  0  0  0  0  0  0  0  0  0  0  0
    2.3196    1.0681    0.7588 C   0  0  0  0  0  0  0  0  0  0  0  0
   -0.4405    0.8030    0.7118 H   0  0  0  0  0  0  0  0  0  0  0  0
    0.0991    1.2137   -0.9323 H   0  0  0  0  0  0  0  0  0  0  0  0
   -0.5165   -0.4149   -0.5765 H   0  0  0  0  0  0  0  0  0  0  0  0
    1.9674   -0.4052   -0.7504 H   0  0  0  0  0  0  0  0  0  0  0  0
    2.8566   -2.5479    1.3288 H   0  0  0  0  0  0  0  0  0  0  0  0
    1.8813   -0.6940    3.6290 H   0  0  0  0  0  0  0  0  0  0  0  0
    3.1669   -2.0060    3.7788 H   0  0  0  0  0  0  0  0  0  0  0  0
    5.3466   -0.6551    2.7276 H   0  0  0  0  0  0  0  0  0  0  0  0
    3.8483    1.6127    2.1169 H   0  0  0  0  0  0  0  0  0  0  0  0
    2.1334    2.0757    0.3973 H   0  0  0  0  0  0  0  0  0  0  0  0
  1  2  1  0  0  0  0
  1 10  1  0  0  0  0
  2 13  1  6  0  0  0
  2  9  1  0  0  0  0
  2  3  1  0  0  0  0
  3  4  1  0  0  0  0
  4 14  1  6  0  0  0
  4  6  1  0  0  0  0
  4  5  1  0  0  0  0
  5 15  1  0  0  0  0
  5 16  1  0  0  0  0
  6  7  1  6  0  0  0
  6  5  1  0  0  0  0
  7 17  1  0  0  0  0
  8  6  1  0  0  0  0
  8 18  1  0  0  0  0
  9  8  2  0  0  0  0
 11  1  1  0  0  0  0
 12  1  1  0  0  0  0
 19  9  1  0  0  0  0
M TOR 0 0 1 2 3
M TOR 1 0 1 8 7
M TOR 2 0 1 8 18
M TOR 3 1 2 3 4
M TOR 4 1 2 3 5
M TOR 5 1 2 3 13
M TOR 6 1 8 7 5
M TOR 7 1 8 7 17
M TOR 8 2 1 0 9
M TOR 9 2 1 0 10
M TOR 10 2 1 0 11
M TOR 11 2 1 8 7
M TOR 12 2 1 8 18
M TOR 13 2 3 4 5
M TOR 14 2 3 4 14
M TOR 15 2 3 4 15
M TOR 16 2 3 5 6
M TOR 17 2 3 5 7
M TOR 18 3 2 1 8
M TOR 19 3 2 1 12
M TOR 20 3 4 5 6
M TOR 21 3 4 5 7
M TOR 22 3 5 4 14
M TOR 23 3 5 4 15
M TOR 24 3 5 6 16
M TOR 25 3 5 7 8
M TOR 26 3 5 7 17
M TOR 27 4 5 3 13
M TOR 28 4 5 6 16
M TOR 29 4 5 7 8
M TOR 30 4 5 7 17
M TOR 31 5 7 8 18
M TOR 32 6 5 3 13
M TOR 33 6 5 4 14
M TOR 34 6 5 4 15
M TOR 35 6 5 7 8
M TOR 36 6 5 7 17
M TOR 37 7 5 3 13
M TOR 38 7 5 4 14
M TOR 39 7 5 4 15
M TOR 40 7 5 6 16
M TOR 41 7 8 1 12
M TOR 42 8 1 0 9
M TOR 43 8 1 0 10
M TOR 44 8 1 0 11
M  END
$$$$
