
     RDKit          3D

 19 20  0  0  0  0  0  0  0  0999 V2000
    1.2894    0.1381    0.2337 C   0  0  0  0  0  0  0  0  0  0  0  0
    1.3553    1.5001   -0.1853 O   0  0  0  0  0  0  0  0  0  0  0  0
    0.0624    1.9620   -0.5746 C   0  0  0  0  0  0  0  0  0  0  0  0
   -0.8462    0.7812   -0.3881 C   0  0  0  0  0  0  0  0  0  0  0  0
   -0.1491   -0.2593    0.0624 C   0  0  0  0  0  0  0  0  0  0  0  0
   -0.7694   -1.5970    0.3191 C   0  0  0  0  0  0  0  0  0  0  0  0
   -2.1430   -1.6297   -0.3714 C   0  0  0  0  0  0  0  0  0  0  0  0
   -2.8969   -0.4589   -0.1010 O   0  0  0  0  0  0  0  0  0  0  0  0
   -2.3199    0.7194   -0.6404 C   0  0  0  0  0  0  0  0  0  0  0  0
    1.9712   -0.4739   -0.3793 H   0  0  0  0  0  0  0  0  0  0  0  0
    1.6310    0.0500    1.2783 H   0  0  0  0  0  0  0  0  0  0  0  0
   -0.2310    2.8224    0.0494 H   0  0  0  0  0  0  0  0  0  0  0  0
    0.0930    2.3181   -1.6172 H   0  0  0  0  0  0  0  0  0  0  0  0
   -0.1418   -2.4101   -0.0692 H   0  0  0  0  0  0  0  0  0  0  0  0
   -0.8784   -1.7762    1.3974 H   0  0  0  0  0  0  0  0  0  0  0  0
   -2.0026   -1.7515   -1.4581 H   0  0  0  0  0  0  0  0  0  0  0  0
   -2.7486   -2.4660   -0.0123 H   0  0  0  0  0  0  0  0  0  0  0  0
   -2.5291    0.7929   -1.7239 H   0  0  0  0  0  0  0  0  0  0  0  0
   -2.8412    1.5570   -0.1608 H   0  0  0  0  0  0  0  0  0  0  0  0
  1  2  1  0
  2  3  1  0
  3  4  1  0
  4  5  2  0
  5  6  1  0
  6  7  1  0
  7  8  1  0
  8  9  1  0
  5  1  1  0
  9  4  1  0
  1 10  1  0
  1 11  1  0
  3 12  1  0
  3 13  1  0
  6 14  1  0
  6 15  1  0
  7 16  1  0
  7 17  1  0
  9 18  1  0
  9 19  1  0
M  END
$$$$
