
     RDKit          3D

 19 19  0  0  0  0  0  0  0  0999 V2000
    1.5078   -0.3308    0.2787 C   0  0  0  0  0  0  0  0  0  0  0  0
    0.2424    0.2839    0.0215 O   0  0  0  0  0  0  0  0  0  0  0  0
   -0.2941    0.9593    1.0485 C   0  0  0  0  0  0  0  0  0  0  0  0
   -0.8199    2.2106    1.1097 C   0  0  0  0  0  0  0  0  0  0  0  0
   -0.8559    3.2249    0.0110 C   0  0  0  0  0  0  0  0  0  0  0  0
   -1.3297    2.3242    2.4548 C   0  0  0  0  0  0  0  0  0  0  0  0
   -1.0667    1.1575    3.0961 C   0  0  0  0  0  0  0  0  0  0  0  0
   -1.3106    0.6602    4.4742 C   0  0  0  0  0  0  0  0  0  0  0  0
   -0.4303    0.2969    2.2337 O   0  0  0  0  0  0  0  0  0  0  0  0
    1.4244   -1.0927    1.0597 H   0  0  0  0  0  0  0  0  0  0  0  0
    1.8157   -0.7981   -0.6578 H   0  0  0  0  0  0  0  0  0  0  0  0
    2.2498    0.4187    0.5797 H   0  0  0  0  0  0  0  0  0  0  0  0
   -0.3711    4.1618    0.3093 H   0  0  0  0  0  0  0  0  0  0  0  0
   -0.3421    2.8453   -0.8759 H   0  0  0  0  0  0  0  0  0  0  0  0
   -1.8836    3.4737   -0.2795 H   0  0  0  0  0  0  0  0  0  0  0  0
   -1.8247    3.1830    2.8837 H   0  0  0  0  0  0  0  0  0  0  0  0
   -1.9373   -0.2395    4.4777 H   0  0  0  0  0  0  0  0  0  0  0  0
   -0.3749    0.4069    4.9870 H   0  0  0  0  0  0  0  0  0  0  0  0
   -1.8193    1.4312    5.0574 H   0  0  0  0  0  0  0  0  0  0  0  0
  1  2  1  0
  2  3  1  0
  3  4  2  0
  4  5  1  0
  4  6  1  0
  6  7  2  0
  7  8  1  0
  7  9  1  0
  9  3  1  0
  1 10  1  0
  1 11  1  0
  1 12  1  0
  5 13  1  0
  5 14  1  0
  5 15  1  0
  6 16  1  0
  8 17  1  0
  8 18  1  0
  8 19  1  0
M  END
$$$$
