gdb 1815	2.7090417	1.6667296	1.2470204	4.4021	75.21	-0.25716	0.01392	0.27108	1047.3451	0.157806	-422.600935	-422.593165	-422.59222	-422.632819	30.906
 OpenBabel02181911403D

 19 20  0  0  1  0  0  0  0  0999 V2000
   -2.8438   -2.4741    0.0160 C   0  0  0  0  0  0  0  0  0  0  0  0
   -2.2918   -1.0702    0.0053 C   0  0  2  0  0  0  0  0  0  0  0  0
   -2.7516   -0.0048    1.0342 C   0  0  0  0  0  0  0  0  0  0  0  0
   -2.3653    1.0423   -0.0495 C   0  0  2  0  0  0  0  0  0  0  0  0
   -2.6595   -0.0572   -1.1099 C   0  0  0  0  0  0  0  0  0  0  0  0
   -0.8541    1.2591    0.0102 C   0  0  0  0  0  0  0  0  0  0  0  0
   -0.0908   -0.0663    0.0746 C   0  0  0  0  0  0  0  0  0  0  0  0
    1.1049   -0.1456    0.1295 O   0  0  0  0  0  0  0  0  0  0  0  0
   -0.8456   -1.1960    0.0704 O   0  0  0  0  0  0  0  0  0  0  0  0
   -2.5438   -2.9974    0.9288 H   0  0  0  0  0  0  0  0  0  0  0  0
   -3.9360   -2.4519   -0.0322 H   0  0  0  0  0  0  0  0  0  0  0  0
   -2.4667   -3.0412   -0.8404 H   0  0  0  0  0  0  0  0  0  0  0  0
   -3.8313   -0.0532    1.1944 H   0  0  0  0  0  0  0  0  0  0  0  0
   -2.2337    0.0191    1.9968 H   0  0  0  0  0  0  0  0  0  0  0  0
   -2.9204    1.9807   -0.0962 H   0  0  0  0  0  0  0  0  0  0  0  0
   -3.7216   -0.1156   -1.3596 H   0  0  0  0  0  0  0  0  0  0  0  0
   -2.0610   -0.0791   -2.0246 H   0  0  0  0  0  0  0  0  0  0  0  0
   -0.4834    1.8026   -0.8658 H   0  0  0  0  0  0  0  0  0  0  0  0
   -0.5587    1.8447    0.8878 H   0  0  0  0  0  0  0  0  0  0  0  0
  1 10  1  0  0  0  0
  2  1  1  6  0  0  0
  2  9  1  0  0  0  0
  2  3  1  0  0  0  0
  3 13  1  0  0  0  0
  3 14  1  0  0  0  0
  4 15  1  6  0  0  0
  4  6  1  0  0  0  0
  4  3  1  0  0  0  0
  5  4  1  0  0  0  0
  5  2  1  0  0  0  0
  6  7  1  0  0  0  0
  6 19  1  0  0  0  0
  7  8  2  0  0  0  0
  9  7  1  0  0  0  0
 11  1  1  0  0  0  0
 12  1  1  0  0  0  0
 16  5  1  0  0  0  0
 17  5  1  0  0  0  0
 18  6  1  0  0  0  0
M TOR 0 0 1 2 3
M TOR 1 0 1 2 12
M TOR 2 0 1 2 13
M TOR 3 0 1 4 3
M TOR 4 0 1 4 15
M TOR 5 0 1 4 16
M TOR 6 0 1 8 6
M TOR 7 1 2 3 4
M TOR 8 1 2 3 5
M TOR 9 1 2 3 14
M TOR 10 1 4 3 5
M TOR 11 1 4 3 14
M TOR 12 1 8 6 5
M TOR 13 1 8 6 7
M TOR 14 2 1 0 9
M TOR 15 2 1 0 10
M TOR 16 2 1 0 11
M TOR 17 2 1 4 15
M TOR 18 2 1 4 16
M TOR 19 2 1 8 6
M TOR 20 2 3 4 15
M TOR 21 2 3 4 16
M TOR 22 2 3 5 6
M TOR 23 2 3 5 17
M TOR 24 2 3 5 18
M TOR 25 3 2 1 8
M TOR 26 3 4 1 8
M TOR 27 3 5 6 7
M TOR 28 3 5 6 8
M TOR 29 4 1 0 9
M TOR 30 4 1 0 10
M TOR 31 4 1 0 11
M TOR 32 4 1 2 12
M TOR 33 4 1 2 13
M TOR 34 4 1 8 6
M TOR 35 4 3 2 12
M TOR 36 4 3 2 13
M TOR 37 4 3 5 6
M TOR 38 4 3 5 17
M TOR 39 4 3 5 18
M TOR 40 5 3 2 12
M TOR 41 5 3 2 13
M TOR 42 5 3 4 15
M TOR 43 5 3 4 16
M TOR 44 6 5 3 14
M TOR 45 7 6 5 17
M TOR 46 7 6 5 18
M TOR 47 8 1 0 9
M TOR 48 8 1 0 10
M TOR 49 8 1 0 11
M TOR 50 8 1 2 12
M TOR 51 8 1 2 13
M TOR 52 8 1 4 15
M TOR 53 8 1 4 16
M TOR 54 8 6 5 17
M TOR 55 8 6 5 18
M  END
$$$$
