gdb 575	3.6731242	1.456955	1.24313	1.3396	73.82	-0.22293	0.08105	0.30398	1044.6998	0.159658	-422.547418	-422.540231	-422.539287	-422.578751	28.628
 OpenBabel02181911403D

 19 21  0  0  1  0  0  0  0  0999 V2000
   -1.3074    0.7590   -1.4373 C   0  0  0  0  0  0  0  0  0  0  0  0
   -1.4115    0.0892   -0.0398 C   0  0  0  0  0  0  0  0  0  0  0  0
    0.0171    0.0032    0.4829 C   0  0  2  0  0  0  0  0  0  0  0  0
    0.8562    1.2665    0.4040 C   0  0  1  0  0  0  0  0  0  0  0  0
    2.1288    1.2240    1.0108 O   0  0  0  0  0  0  0  0  0  0  0  0
    2.8199    0.1165    0.4520 C   0  0  0  0  0  0  0  0  0  0  0  0
    2.2344   -0.1819   -0.8007 O   0  0  0  0  0  0  0  0  0  0  0  0
    0.9179    0.2868   -0.7235 C   0  0  1  0  0  0  0  0  0  0  0  0
    0.0952    0.3976   -1.9770 C   0  0  0  0  0  0  0  0  0  0  0  0
   -2.1079    0.4403   -2.1089 H   0  0  0  0  0  0  0  0  0  0  0  0
   -1.3911    1.8463   -1.3385 H   0  0  0  0  0  0  0  0  0  0  0  0
   -2.0860    0.6397    0.6252 H   0  0  0  0  0  0  0  0  0  0  0  0
   -1.8114   -0.9270   -0.1337 H   0  0  0  0  0  0  0  0  0  0  0  0
    0.2587   -0.7326    1.2425 H   0  0  0  0  0  0  0  0  0  0  0  0
    0.4469    2.2707    0.3788 H   0  0  0  0  0  0  0  0  0  0  0  0
    3.8731    0.3776    0.3080 H   0  0  0  0  0  0  0  0  0  0  0  0
    2.7373   -0.7541    1.1232 H   0  0  0  0  0  0  0  0  0  0  0  0
    0.4815    1.1409   -2.6812 H   0  0  0  0  0  0  0  0  0  0  0  0
    0.0880   -0.5724   -2.4886 H   0  0  0  0  0  0  0  0  0  0  0  0
  1 11  1  0  0  0  0
  1  2  1  0  0  0  0
  2  3  1  0  0  0  0
  2 12  1  0  0  0  0
  3 14  1  1  0  0  0
  4 15  1  6  0  0  0
  4  3  1  0  0  0  0
  4  5  1  0  0  0  0
  6  5  1  0  0  0  0
  6 17  1  0  0  0  0
  7  6  1  0  0  0  0
  8  7  1  6  0  0  0
  8  4  1  0  0  0  0
  8  3  1  0  0  0  0
  9  1  1  0  0  0  0
  9  8  1  0  0  0  0
 10  1  1  0  0  0  0
 13  2  1  0  0  0  0
 16  6  1  0  0  0  0
 18  9  1  0  0  0  0
 19  9  1  0  0  0  0
M TOR 0 0 1 2 3
M TOR 1 0 1 2 7
M TOR 2 0 1 2 13
M TOR 3 0 8 7 2
M TOR 4 0 8 7 3
M TOR 5 0 8 7 6
M TOR 6 1 0 8 7
M TOR 7 1 0 8 17
M TOR 8 1 0 8 18
M TOR 9 1 2 3 4
M TOR 10 1 2 3 7
M TOR 11 1 2 3 14
M TOR 12 1 2 7 6
M TOR 13 1 2 7 8
M TOR 14 2 1 0 8
M TOR 15 2 1 0 9
M TOR 16 2 1 0 10
M TOR 17 2 3 4 5
M TOR 18 2 3 7 6
M TOR 19 2 3 7 8
M TOR 20 2 7 3 4
M TOR 21 2 7 3 14
M TOR 22 2 7 6 5
M TOR 23 2 7 8 17
M TOR 24 2 7 8 18
M TOR 25 3 2 1 11
M TOR 26 3 2 1 12
M TOR 27 3 4 5 6
M TOR 28 3 4 5 15
M TOR 29 3 4 5 16
M TOR 30 3 7 2 13
M TOR 31 3 7 6 5
M TOR 32 3 7 8 17
M TOR 33 3 7 8 18
M TOR 34 4 3 2 13
M TOR 35 4 3 7 6
M TOR 36 4 3 7 8
M TOR 37 4 5 6 7
M TOR 38 5 4 3 7
M TOR 39 5 4 3 14
M TOR 40 5 6 7 8
M TOR 41 6 7 2 13
M TOR 42 6 7 3 14
M TOR 43 6 7 8 17
M TOR 44 6 7 8 18
M TOR 45 7 2 1 11
M TOR 46 7 2 1 12
M TOR 47 7 6 5 15
M TOR 48 7 6 5 16
M TOR 49 7 8 0 9
M TOR 50 7 8 0 10
M TOR 51 8 0 1 11
M TOR 52 8 0 1 12
M TOR 53 8 7 2 13
M TOR 54 8 7 3 14
M  END
$$$$
