gdb 2170	3.0746051	1.6818743	1.5797286	1.4025	73.14	-0.23046	0.09023	0.32069000000000003	940.0602	0.158988	-422.550557	-422.543521	-422.542577	-422.58152	28.889
 OpenBabel02181911403D

 19 21  0  0  1  0  0  0  0  0999 V2000
   -0.0503    0.1437    0.0183 C   0  0  0  0  0  0  0  0  0  0  0  0
    1.4431    0.0318    0.1220 C   0  0  2  0  0  0  0  0  0  0  0  0
    2.0963   -0.6603    1.3424 C   0  0  0  0  0  0  0  0  0  0  0  0
    3.5638   -0.3845    0.9206 C   0  0  2  0  0  0  0  0  0  0  0  0
    4.0155    0.8330    1.5083 O   0  0  0  0  0  0  0  0  0  0  0  0
    3.1486    1.8652    1.0011 C   0  0  0  0  0  0  0  0  0  0  0  0
    2.4403    1.2139   -0.1786 C   0  0  1  0  0  0  0  0  0  0  0  0
    3.2757   -0.0184   -0.5735 C   0  0  2  0  0  0  0  0  0  0  0  0
    2.0830   -0.7331   -0.9589 O   0  0  0  0  0  0  0  0  0  0  0  0
   -0.4424    0.7662    0.8293 H   0  0  0  0  0  0  0  0  0  0  0  0
   -0.3437    0.5894   -0.9364 H   0  0  0  0  0  0  0  0  0  0  0  0
   -0.5146   -0.8451    0.0942 H   0  0  0  0  0  0  0  0  0  0  0  0
    1.8713   -0.2147    2.3147 H   0  0  0  0  0  0  0  0  0  0  0  0
    1.8296   -1.7195    1.3524 H   0  0  0  0  0  0  0  0  0  0  0  0
    4.2979   -1.1600    1.1317 H   0  0  0  0  0  0  0  0  0  0  0  0
    2.4576    2.2072    1.7846 H   0  0  0  0  0  0  0  0  0  0  0  0
    3.7644    2.7192    0.6977 H   0  0  0  0  0  0  0  0  0  0  0  0
    2.1181    1.8626   -0.9916 H   0  0  0  0  0  0  0  0  0  0  0  0
    4.0853   -0.0313   -1.3009 H   0  0  0  0  0  0  0  0  0  0  0  0
  1 12  1  0  0  0  0
  1 10  1  0  0  0  0
  2  1  1  6  0  0  0
  2  3  1  0  0  0  0
  3 14  1  0  0  0  0
  3 13  1  0  0  0  0
  4 15  1  1  0  0  0
  4  3  1  0  0  0  0
  4  5  1  0  0  0  0
  6  5  1  0  0  0  0
  6 16  1  0  0  0  0
  7 18  1  6  0  0  0
  7  2  1  0  0  0  0
  7  6  1  0  0  0  0
  8 19  1  6  0  0  0
  8  7  1  0  0  0  0
  8  4  1  0  0  0  0
  9  8  1  0  0  0  0
  9  2  1  0  0  0  0
 11  1  1  0  0  0  0
 17  6  1  0  0  0  0
M TOR 0 0 1 2 3
M TOR 1 0 1 2 12
M TOR 2 0 1 2 13
M TOR 3 0 1 6 5
M TOR 4 0 1 6 7
M TOR 5 0 1 6 17
M TOR 6 0 1 8 7
M TOR 7 1 2 3 4
M TOR 8 1 2 3 7
M TOR 9 1 2 3 14
M TOR 10 1 6 5 4
M TOR 11 1 6 5 15
M TOR 12 1 6 5 16
M TOR 13 1 6 7 3
M TOR 14 1 6 7 8
M TOR 15 1 6 7 18
M TOR 16 1 8 7 3
M TOR 17 1 8 7 18
M TOR 18 2 1 0 9
M TOR 19 2 1 0 10
M TOR 20 2 1 0 11
M TOR 21 2 1 6 5
M TOR 22 2 1 6 7
M TOR 23 2 1 6 17
M TOR 24 2 1 8 7
M TOR 25 2 3 4 5
M TOR 26 2 3 7 6
M TOR 27 2 3 7 8
M TOR 28 2 3 7 18
M TOR 29 3 2 1 6
M TOR 30 3 2 1 8
M TOR 31 3 4 5 6
M TOR 32 3 4 5 15
M TOR 33 3 4 5 16
M TOR 34 3 7 6 5
M TOR 35 3 7 6 17
M TOR 36 4 3 2 12
M TOR 37 4 3 2 13
M TOR 38 4 3 7 6
M TOR 39 4 3 7 8
M TOR 40 4 3 7 18
M TOR 41 4 5 6 7
M TOR 42 4 5 6 17
M TOR 43 5 4 3 7
M TOR 44 5 4 3 14
M TOR 45 5 6 1 8
M TOR 46 5 6 7 8
M TOR 47 5 6 7 18
M TOR 48 6 1 0 9
M TOR 49 6 1 0 10
M TOR 50 6 1 0 11
M TOR 51 6 1 2 12
M TOR 52 6 1 2 13
M TOR 53 6 7 3 14
M TOR 54 7 3 2 12
M TOR 55 7 3 2 13
M TOR 56 7 6 5 15
M TOR 57 7 6 5 16
M TOR 58 8 1 0 9
M TOR 59 8 1 0 10
M TOR 60 8 1 0 11
M TOR 61 8 1 2 12
M TOR 62 8 1 2 13
M TOR 63 8 1 6 17
M TOR 64 8 7 3 14
M TOR 65 8 7 6 17
M  END
$$$$
