
     RDKit          3D

 19 21  0  0  0  0  0  0  0  0999 V2000
   -3.2392    1.7261    0.2152 C   0  0  0  0  0  0  0  0  0  0  0  0
   -2.3815    1.1343    1.2233 O   0  0  0  0  0  0  0  0  0  0  0  0
   -1.2876    2.0020    0.8657 C   0  0  0  0  0  0  0  0  0  0  0  0
   -2.1071    2.6345   -0.2938 C   0  0  0  0  0  0  0  0  0  0  0  0
   -1.1488    1.9630   -1.3140 C   0  0  0  0  0  0  0  0  0  0  0  0
   -0.3193    1.3501   -0.1513 C   0  0  0  0  0  0  0  0  0  0  0  0
    1.2000    1.5664   -0.0185 C   0  0  0  0  0  0  0  0  0  0  0  0
    1.4195    0.1739    0.2732 O   0  0  0  0  0  0  0  0  0  0  0  0
    0.0352   -0.1373   -0.0049 C   0  0  0  0  0  0  0  0  0  0  0  0
   -3.6282    0.9827   -0.4923 H   0  0  0  0  0  0  0  0  0  0  0  0
   -4.0817    2.2544    0.6784 H   0  0  0  0  0  0  0  0  0  0  0  0
   -0.8650    2.5233    1.7302 H   0  0  0  0  0  0  0  0  0  0  0  0
   -2.3150    3.6976   -0.4018 H   0  0  0  0  0  0  0  0  0  0  0  0
   -1.6164    1.2467   -1.9970 H   0  0  0  0  0  0  0  0  0  0  0  0
   -0.5754    2.6786   -1.9105 H   0  0  0  0  0  0  0  0  0  0  0  0
    1.6963    1.8763   -0.9497 H   0  0  0  0  0  0  0  0  0  0  0  0
    1.5338    2.2210    0.7976 H   0  0  0  0  0  0  0  0  0  0  0  0
   -0.0729   -0.7273   -0.9257 H   0  0  0  0  0  0  0  0  0  0  0  0
   -0.4555   -0.6612    0.8219 H   0  0  0  0  0  0  0  0  0  0  0  0
  1  2  1  0
  2  3  1  0
  3  4  1  0
  4  5  1  0
  5  6  1  0
  6  7  1  0
  7  8  1  0
  8  9  1  0
  4  1  1  0
  9  6  1  0
  6  3  1  0
  1 10  1  0
  1 11  1  0
  3 12  1  0
  4 13  1  0
  5 14  1  0
  5 15  1  0
  7 16  1  0
  7 17  1  0
  9 18  1  0
  9 19  1  0
M  END
$$$$
