gdb 3268	2.5750324	1.9079025	1.4468909	2.1928	73.97	-0.23883	0.06944	0.30827	960.9859	0.157869	-422.526025	-422.518423	-422.517478	-422.557468	30.666
 OpenBabel02181911413D

 19 21  0  0  1  0  0  0  0  0999 V2000
    1.2031   -0.1344   -3.3373 C   0  0  0  0  0  0  0  0  0  0  0  0
    0.2368   -0.1385   -2.1852 C   0  0  2  0  0  0  0  0  0  0  0  0
   -1.3237   -0.1893   -2.4503 C   0  0  2  0  0  0  0  0  0  0  0  0
   -1.8778    0.2618   -1.0832 C   0  0  0  0  0  0  0  0  0  0  0  0
   -0.6693   -0.2984   -0.3109 C   0  0  2  0  0  0  0  0  0  0  0  0
    0.4702    0.6024   -0.8562 C   0  0  1  0  0  0  0  0  0  0  0  0
    1.7662    0.2627   -0.3993 O   0  0  0  0  0  0  0  0  0  0  0  0
   -0.2243   -1.3943   -1.3973 C   0  0  1  0  0  0  0  0  0  0  0  0
   -1.3198   -1.6390   -2.2860 O   0  0  0  0  0  0  0  0  0  0  0  0
    0.9499   -0.9216   -4.0548 H   0  0  0  0  0  0  0  0  0  0  0  0
    1.1858    0.8246   -3.8684 H   0  0  0  0  0  0  0  0  0  0  0  0
    2.2229   -0.3032   -2.9802 H   0  0  0  0  0  0  0  0  0  0  0  0
   -1.7868    0.1485   -3.3772 H   0  0  0  0  0  0  0  0  0  0  0  0
   -1.9915    1.3440   -0.9693 H   0  0  0  0  0  0  0  0  0  0  0  0
   -2.8270   -0.2336   -0.8707 H   0  0  0  0  0  0  0  0  0  0  0  0
   -0.7655   -0.5159    0.7521 H   0  0  0  0  0  0  0  0  0  0  0  0
    0.3036    1.6891   -0.8164 H   0  0  0  0  0  0  0  0  0  0  0  0
    1.8248    0.4982    0.5318 H   0  0  0  0  0  0  0  0  0  0  0  0
    0.3686   -2.2624   -1.1205 H   0  0  0  0  0  0  0  0  0  0  0  0
  1 12  1  0  0  0  0
  2  1  1  6  0  0  0
  2  8  1  0  0  0  0
  2  6  1  0  0  0  0
  3 13  1  6  0  0  0
  3  9  1  0  0  0  0
  3  2  1  0  0  0  0
  3  4  1  0  0  0  0
  4 14  1  0  0  0  0
  4 15  1  0  0  0  0
  4  5  1  0  0  0  0
  5 16  1  1  0  0  0
  6 17  1  6  0  0  0
  6  7  1  0  0  0  0
  6  5  1  0  0  0  0
  7 18  1  0  0  0  0
  8 19  1  1  0  0  0
  8  5  1  0  0  0  0
  9  8  1  0  0  0  0
 10  1  1  0  0  0  0
 11  1  1  0  0  0  0
M TOR 0 0 1 2 3
M TOR 1 0 1 2 8
M TOR 2 0 1 2 12
M TOR 3 0 1 5 4
M TOR 4 0 1 5 6
M TOR 5 0 1 5 16
M TOR 6 0 1 7 4
M TOR 7 0 1 7 8
M TOR 8 0 1 7 18
M TOR 9 1 2 3 4
M TOR 10 1 2 3 13
M TOR 11 1 2 3 14
M TOR 12 1 2 8 7
M TOR 13 1 5 4 3
M TOR 14 1 5 4 7
M TOR 15 1 5 4 15
M TOR 16 1 5 6 17
M TOR 17 1 7 4 3
M TOR 18 1 7 4 15
M TOR 19 2 1 0 9
M TOR 20 2 1 0 10
M TOR 21 2 1 0 11
M TOR 22 2 1 5 4
M TOR 23 2 1 5 6
M TOR 24 2 1 5 16
M TOR 25 2 1 7 4
M TOR 26 2 1 7 18
M TOR 27 2 3 4 5
M TOR 28 2 3 4 7
M TOR 29 2 3 4 15
M TOR 30 2 8 7 4
M TOR 31 2 8 7 18
M TOR 32 3 2 1 5
M TOR 33 3 2 1 7
M TOR 34 3 2 8 7
M TOR 35 3 4 5 6
M TOR 36 3 4 5 16
M TOR 37 3 4 7 8
M TOR 38 3 4 7 18
M TOR 39 4 3 2 8
M TOR 40 4 3 2 12
M TOR 41 4 5 6 17
M TOR 42 5 1 0 9
M TOR 43 5 1 0 10
M TOR 44 5 1 0 11
M TOR 45 5 1 2 8
M TOR 46 5 1 2 12
M TOR 47 5 1 7 8
M TOR 48 5 1 7 18
M TOR 49 5 4 3 13
M TOR 50 5 4 3 14
M TOR 51 5 4 7 8
M TOR 52 5 4 7 18
M TOR 53 6 5 1 7
M TOR 54 6 5 4 7
M TOR 55 6 5 4 15
M TOR 56 7 1 0 9
M TOR 57 7 1 0 10
M TOR 58 7 1 0 11
M TOR 59 7 1 2 12
M TOR 60 7 1 5 16
M TOR 61 7 4 3 13
M TOR 62 7 4 3 14
M TOR 63 7 4 5 16
M TOR 64 7 8 2 12
M TOR 65 8 2 3 13
M TOR 66 8 2 3 14
M TOR 67 8 7 4 15
M  END
$$$$
