
     RDKit          3D

 19 20  0  0  0  0  0  0  0  0999 V2000
    2.3412    1.3370    2.7805 C   0  0  0  0  0  0  0  0  0  0  0  0
    1.8344    1.3604    1.3371 C   0  0  0  0  0  0  0  0  0  0  0  0
    2.8164    1.9096    0.4544 O   0  0  0  0  0  0  0  0  0  0  0  0
    1.5546   -0.0368    0.8045 C   0  0  0  0  0  0  0  0  0  0  0  0
    0.7501   -0.1048   -0.5376 C   0  0  0  0  0  0  0  0  0  0  0  0
   -0.4652    0.1653    0.2433 O   0  0  0  0  0  0  0  0  0  0  0  0
    0.1979   -0.7007    1.2224 C   0  0  0  0  0  0  0  0  0  0  0  0
    0.2689   -2.0365    0.4598 C   0  0  0  0  0  0  0  0  0  0  0  0
    0.6466   -1.6246   -0.7524 C   0  0  0  0  0  0  0  0  0  0  0  0
    3.2649    0.7539    2.8535 H   0  0  0  0  0  0  0  0  0  0  0  0
    2.5508    2.3533    3.1338 H   0  0  0  0  0  0  0  0  0  0  0  0
    1.5976    0.9023    3.4566 H   0  0  0  0  0  0  0  0  0  0  0  0
    0.9053    1.9438    1.2821 H   0  0  0  0  0  0  0  0  0  0  0  0
    3.0139    2.8033    0.7515 H   0  0  0  0  0  0  0  0  0  0  0  0
    2.4494   -0.6620    0.8661 H   0  0  0  0  0  0  0  0  0  0  0  0
    0.9186    0.5719   -1.3726 H   0  0  0  0  0  0  0  0  0  0  0  0
   -0.2248   -0.6608    2.2261 H   0  0  0  0  0  0  0  0  0  0  0  0
    0.0660   -3.0236    0.8474 H   0  0  0  0  0  0  0  0  0  0  0  0
    0.8499   -2.1731   -1.6599 H   0  0  0  0  0  0  0  0  0  0  0  0
  1  2  1  0
  2  3  1  0
  2  4  1  0
  4  5  1  0
  5  6  1  0
  6  7  1  0
  7  8  1  0
  8  9  2  0
  7  4  1  0
  9  5  1  0
  1 10  1  0
  1 11  1  0
  1 12  1  0
  2 13  1  0
  3 14  1  0
  4 15  1  0
  5 16  1  0
  7 17  1  0
  8 18  1  0
  9 19  1  0
M  END
$$$$
