gdb 4540	2.3749014	1.550442	1.046528	3.397	78.55	-0.24138	-0.05081	0.19057000000000002	1166.2873	0.157162	-422.575529	-422.566987	-422.566043	-422.608672	32.235
 OpenBabel02181911413D

 19 19  0  0  1  0  0  0  0  0999 V2000
   -2.4452   -2.6655   -1.4602 C   0  0  0  0  0  0  0  0  0  0  0  0
   -1.4111   -1.5377   -1.4716 C   0  0  2  0  0  0  0  0  0  0  0  0
   -0.8592   -1.2555   -0.0610 C   0  0  0  0  0  0  0  0  0  0  0  0
    0.0101   -0.0068    0.0397 C   0  0  0  0  0  0  0  0  0  0  0  0
    1.2050   -0.0772    0.2457 O   0  0  0  0  0  0  0  0  0  0  0  0
   -0.6780    1.3075   -0.0275 C   0  0  0  0  0  0  0  0  0  0  0  0
   -1.8751    1.5269   -0.5807 C   0  0  0  0  0  0  0  0  0  0  0  0
   -2.6996    0.5192   -1.3470 C   0  0  0  0  0  0  0  0  0  0  0  0
   -1.9256   -0.3766   -2.1194 O   0  0  0  0  0  0  0  0  0  0  0  0
   -3.3118   -2.4043   -0.8433 H   0  0  0  0  0  0  0  0  0  0  0  0
   -2.7942   -2.8624   -2.4772 H   0  0  0  0  0  0  0  0  0  0  0  0
   -2.0119   -3.5856   -1.0555 H   0  0  0  0  0  0  0  0  0  0  0  0
   -0.5701   -1.8340   -2.1088 H   0  0  0  0  0  0  0  0  0  0  0  0
   -1.6966   -1.1531    0.6414 H   0  0  0  0  0  0  0  0  0  0  0  0
   -0.2543   -2.1068    0.2602 H   0  0  0  0  0  0  0  0  0  0  0  0
   -0.1134    2.1271    0.4076 H   0  0  0  0  0  0  0  0  0  0  0  0
   -2.2927    2.5311   -0.5411 H   0  0  0  0  0  0  0  0  0  0  0  0
   -3.3906   -0.0088   -0.6690 H   0  0  0  0  0  0  0  0  0  0  0  0
   -3.3305    1.0574   -2.0626 H   0  0  0  0  0  0  0  0  0  0  0  0
  1 12  1  0  0  0  0
  1 10  1  0  0  0  0
  2 13  1  6  0  0  0
  2  1  1  0  0  0  0
  2  3  1  0  0  0  0
  3  4  1  0  0  0  0
  3 15  1  0  0  0  0
  3 14  1  0  0  0  0
  4  5  2  0  0  0  0
  6  4  1  0  0  0  0
  6 16  1  0  0  0  0
  7 17  1  0  0  0  0
  7  6  2  0  0  0  0
  8 18  1  0  0  0  0
  8  7  1  0  0  0  0
  9  2  1  0  0  0  0
  9  8  1  0  0  0  0
 11  1  1  0  0  0  0
 19  8  1  0  0  0  0
M TOR 0 0 1 2 3
M TOR 1 0 1 2 13
M TOR 2 0 1 2 14
M TOR 3 0 1 8 7
M TOR 4 1 2 3 4
M TOR 5 1 2 3 5
M TOR 6 1 8 7 6
M TOR 7 1 8 7 17
M TOR 8 1 8 7 18
M TOR 9 2 1 0 9
M TOR 10 2 1 0 10
M TOR 11 2 1 0 11
M TOR 12 2 1 8 7
M TOR 13 2 3 5 6
M TOR 14 2 3 5 15
M TOR 15 3 2 1 8
M TOR 16 3 2 1 12
M TOR 17 3 5 6 7
M TOR 18 3 5 6 16
M TOR 19 4 3 2 13
M TOR 20 4 3 2 14
M TOR 21 4 3 5 6
M TOR 22 4 3 5 15
M TOR 23 5 3 2 13
M TOR 24 5 3 2 14
M TOR 25 5 6 7 8
M TOR 26 5 6 7 17
M TOR 27 5 6 7 18
M TOR 28 7 6 5 15
M TOR 29 7 8 1 12
M TOR 30 8 1 0 9
M TOR 31 8 1 0 10
M TOR 32 8 1 0 11
M TOR 33 8 1 2 13
M TOR 34 8 1 2 14
M TOR 35 8 7 6 16
M  END
$$$$
