
     RDKit          3D

 19 21  0  0  0  0  0  0  0  0999 V2000
   -1.5590    2.0923   -2.2590 O   0  0  0  0  0  0  0  0  0  0  0  0
   -1.4902    2.0459   -0.8815 C   0  0  0  0  0  0  0  0  0  0  0  0
   -1.3362    3.3038    0.0036 C   0  0  0  0  0  0  0  0  0  0  0  0
   -1.3618    2.0895    0.9823 C   0  0  0  0  0  0  0  0  0  0  0  0
   -2.5452    1.5200    0.1454 C   0  0  0  0  0  0  0  0  0  0  0  0
   -0.4010    1.3723    0.0050 C   0  0  0  0  0  0  0  0  0  0  0  0
   -0.0499   -0.1241    0.0030 C   0  0  0  0  0  0  0  0  0  0  0  0
    1.3499    0.1784   -0.1567 O   0  0  0  0  0  0  0  0  0  0  0  0
    1.1111    1.6031   -0.1338 C   0  0  0  0  0  0  0  0  0  0  0  0
   -1.6673    1.1954   -2.5943 H   0  0  0  0  0  0  0  0  0  0  0  0
   -0.3961    3.8542   -0.0807 H   0  0  0  0  0  0  0  0  0  0  0  0
   -2.1959    3.9771    0.0424 H   0  0  0  0  0  0  0  0  0  0  0  0
   -1.2842    2.1185    2.0666 H   0  0  0  0  0  0  0  0  0  0  0  0
   -2.7066    0.4391    0.1894 H   0  0  0  0  0  0  0  0  0  0  0  0
   -3.4876    2.0709    0.1980 H   0  0  0  0  0  0  0  0  0  0  0  0
   -0.2515   -0.6690    0.9352 H   0  0  0  0  0  0  0  0  0  0  0  0
   -0.4389   -0.7165   -0.8384 H   0  0  0  0  0  0  0  0  0  0  0  0
    1.6090    2.0883    0.7161 H   0  0  0  0  0  0  0  0  0  0  0  0
    1.4356    2.0873   -1.0642 H   0  0  0  0  0  0  0  0  0  0  0  0
  1  2  1  0
  2  3  1  0
  3  4  1  0
  4  5  1  0
  4  6  1  0
  6  7  1  0
  7  8  1  0
  8  9  1  0
  5  2  1  0
  9  6  1  0
  6  2  1  0
  1 10  1  0
  3 11  1  0
  3 12  1  0
  4 13  1  0
  5 14  1  0
  5 15  1  0
  7 16  1  0
  7 17  1  0
  9 18  1  0
  9 19  1  0
M  END
$$$$
