gdb 4209	2.4974393	1.6695074	1.125923	2.0347	74.04	-0.25685	0.06874	0.32559000000000005	1085.7714	0.158399	-422.537796	-422.530055	-422.529111	-422.569829	30.739
 OpenBabel02181911413D

 19 21  0  0  1  0  0  0  0  0999 V2000
   -1.1478   -3.1270    0.5697 O   0  0  0  0  0  0  0  0  0  0  0  0
   -0.1339   -2.2572    0.0831 C   0  0  2  0  0  0  0  0  0  0  0  0
    0.0947   -1.0594    1.0252 C   0  0  0  0  0  0  0  0  0  0  0  0
    1.0669   -0.0590    0.4193 C   0  0  2  0  0  0  0  0  0  0  0  0
    0.5027    1.1434   -0.1070 O   0  0  0  0  0  0  0  0  0  0  0  0
    1.0292    0.1908   -1.0381 C   0  0  2  0  0  0  0  0  0  0  0  0
    0.0224   -0.5329   -1.8704 C   0  0  1  0  0  0  0  0  0  0  0  0
    0.3643   -1.8753   -2.4700 C   0  0  0  0  0  0  0  0  0  0  0  0
   -0.5806   -1.7988   -1.2990 C   0  0  1  0  0  0  0  0  0  0  0  0
   -0.8898   -3.4214    1.4492 H   0  0  0  0  0  0  0  0  0  0  0  0
    0.8184   -2.8053   -0.0072 H   0  0  0  0  0  0  0  0  0  0  0  0
   -0.8647   -0.5638    1.2021 H   0  0  0  0  0  0  0  0  0  0  0  0
    0.4701   -1.4139    1.9927 H   0  0  0  0  0  0  0  0  0  0  0  0
    2.0112    0.0912    0.9420 H   0  0  0  0  0  0  0  0  0  0  0  0
    1.9394    0.5242   -1.5384 H   0  0  0  0  0  0  0  0  0  0  0  0
   -0.6289    0.1118   -2.4534 H   0  0  0  0  0  0  0  0  0  0  0  0
   -0.0333   -2.1103   -3.4510 H   0  0  0  0  0  0  0  0  0  0  0  0
    1.3559   -2.2780   -2.2832 H   0  0  0  0  0  0  0  0  0  0  0  0
   -1.6340   -1.9796   -1.4825 H   0  0  0  0  0  0  0  0  0  0  0  0
  1 10  1  0  0  0  0
  2 11  1  6  0  0  0
  2  1  1  0  0  0  0
  2  3  1  0  0  0  0
  3 12  1  0  0  0  0
  3 13  1  0  0  0  0
  4 14  1  1  0  0  0
  4  3  1  0  0  0  0
  5  4  1  0  0  0  0
  6 15  1  6  0  0  0
  6  5  1  0  0  0  0
  6  4  1  0  0  0  0
  7 16  1  6  0  0  0
  7  9  1  0  0  0  0
  7  6  1  0  0  0  0
  8 18  1  0  0  0  0
  8  7  1  0  0  0  0
  8  9  1  0  0  0  0
  9 19  1  6  0  0  0
  9  2  1  0  0  0  0
 17  8  1  0  0  0  0
M TOR 0 0 1 2 3
M TOR 1 0 1 2 11
M TOR 2 0 1 2 12
M TOR 3 0 1 8 6
M TOR 4 0 1 8 7
M TOR 5 0 1 8 18
M TOR 6 1 2 3 4
M TOR 7 1 2 3 5
M TOR 8 1 2 3 13
M TOR 9 1 8 6 5
M TOR 10 1 8 6 7
M TOR 11 1 8 6 15
M TOR 12 1 8 7 16
M TOR 13 1 8 7 17
M TOR 14 2 1 0 9
M TOR 15 2 1 8 6
M TOR 16 2 1 8 7
M TOR 17 2 1 8 18
M TOR 18 2 3 4 5
M TOR 19 2 3 5 6
M TOR 20 2 3 5 14
M TOR 21 3 2 1 8
M TOR 22 3 2 1 10
M TOR 23 3 4 5 6
M TOR 24 3 4 5 14
M TOR 25 3 5 6 7
M TOR 26 3 5 6 8
M TOR 27 3 5 6 15
M TOR 28 4 3 2 11
M TOR 29 4 3 2 12
M TOR 30 4 5 3 13
M TOR 31 4 5 6 7
M TOR 32 4 5 6 8
M TOR 33 4 5 6 15
M TOR 34 5 3 2 11
M TOR 35 5 3 2 12
M TOR 36 5 6 7 8
M TOR 37 5 6 7 16
M TOR 38 5 6 7 17
M TOR 39 5 6 8 18
M TOR 40 6 5 3 13
M TOR 41 6 7 8 18
M TOR 42 6 8 1 10
M TOR 43 6 8 7 16
M TOR 44 6 8 7 17
M TOR 45 7 6 5 14
M TOR 46 7 8 1 10
M TOR 47 7 8 6 15
M TOR 48 8 1 0 9
M TOR 49 8 1 2 11
M TOR 50 8 1 2 12
M TOR 51 8 6 5 14
M  END
$$$$
