
     RDKit          3D

 19 20  0  0  0  0  0  0  0  0999 V2000
   -0.2546    0.2545   -3.3923 O   0  0  0  0  0  0  0  0  0  0  0  0
    0.8432    0.0576   -2.9295 C   0  0  0  0  0  0  0  0  0  0  0  0
    1.4644   -1.3515   -2.9975 C   0  0  0  0  0  0  0  0  0  0  0  0
    2.6431   -1.5210   -2.2499 O   0  0  0  0  0  0  0  0  0  0  0  0
    2.4583   -1.6173   -0.8446 C   0  0  0  0  0  0  0  0  0  0  0  0
    1.6831   -0.4336   -0.2340 C   0  0  0  0  0  0  0  0  0  0  0  0
    2.1098    0.8859   -0.8431 C   0  0  0  0  0  0  0  0  0  0  0  0
    1.0900    1.9560   -1.1635 C   0  0  0  0  0  0  0  0  0  0  0  0
    1.6822    1.1271   -2.2692 C   0  0  0  0  0  0  0  0  0  0  0  0
    0.6801   -2.0749   -2.7252 H   0  0  0  0  0  0  0  0  0  0  0  0
    1.7279   -1.5446   -4.0444 H   0  0  0  0  0  0  0  0  0  0  0  0
    1.9537   -2.5629   -0.5894 H   0  0  0  0  0  0  0  0  0  0  0  0
    3.4725   -1.6598   -0.4352 H   0  0  0  0  0  0  0  0  0  0  0  0
    0.6065   -0.5742   -0.3955 H   0  0  0  0  0  0  0  0  0  0  0  0
    1.8257   -0.4428    0.8529 H   0  0  0  0  0  0  0  0  0  0  0  0
    3.1078    1.2204   -0.5731 H   0  0  0  0  0  0  0  0  0  0  0  0
    0.0524    1.7729   -0.9029 H   0  0  0  0  0  0  0  0  0  0  0  0
    1.3922    2.9942   -1.0851 H   0  0  0  0  0  0  0  0  0  0  0  0
    2.3989    1.5907   -2.9422 H   0  0  0  0  0  0  0  0  0  0  0  0
  1  2  2  0
  2  3  1  0
  3  4  1  0
  4  5  1  0
  5  6  1  0
  6  7  1  0
  7  8  1  0
  8  9  1  0
  9  2  1  0
  9  7  1  0
  3 10  1  0
  3 11  1  0
  5 12  1  0
  5 13  1  0
  6 14  1  0
  6 15  1  0
  7 16  1  0
  8 17  1  0
  8 18  1  0
  9 19  1  0
M  END
$$$$
