gdb 4281	3.3964494	1.3917592	1.1437008	1.3679	76.58	-0.24393	0.00335	0.24728	1109.9856	0.157998	-422.540583	-422.532658	-422.531714	-422.573083	30.421
 OpenBabel02181911413D

 19 20  0  0  1  0  0  0  0  0999 V2000
    0.0119    0.0225    0.0611 C   0  0  0  0  0  0  0  0  0  0  0  0
    1.5379    0.0373   -0.0076 C   0  0  1  0  0  0  0  0  0  0  0  0
    1.9974   -0.5949    1.1861 O   0  0  0  0  0  0  0  0  0  0  0  0
    3.3168   -1.0556    1.1954 C   0  0  2  0  0  0  0  0  0  0  0  0
    4.5252   -0.1072    0.9904 C   0  0  0  0  0  0  0  0  0  0  0  0
    5.1052   -1.0285    0.0414 O   0  0  0  0  0  0  0  0  0  0  0  0
    3.8587   -1.7863   -0.0512 C   0  0  2  0  0  0  0  0  0  0  0  0
    3.0906   -1.4532   -1.2904 C   0  0  0  0  0  0  0  0  0  0  0  0
    2.0608   -0.6100   -1.2629 C   0  0  0  0  0  0  0  0  0  0  0  0
   -0.3239    0.4920    0.9891 H   0  0  0  0  0  0  0  0  0  0  0  0
   -0.4156    0.5715   -0.7832 H   0  0  0  0  0  0  0  0  0  0  0  0
   -0.3587   -1.0061    0.0372 H   0  0  0  0  0  0  0  0  0  0  0  0
    1.8705    1.0913   -0.0043 H   0  0  0  0  0  0  0  0  0  0  0  0
    3.4159   -1.6470    2.1076 H   0  0  0  0  0  0  0  0  0  0  0  0
    4.2732    0.8583    0.5319 H   0  0  0  0  0  0  0  0  0  0  0  0
    5.1792    0.0621    1.8520 H   0  0  0  0  0  0  0  0  0  0  0  0
    4.0580   -2.8598    0.0387 H   0  0  0  0  0  0  0  0  0  0  0  0
    3.4348   -1.8833   -2.2272 H   0  0  0  0  0  0  0  0  0  0  0  0
    1.5462   -0.3327   -2.1801 H   0  0  0  0  0  0  0  0  0  0  0  0
  1 10  1  0  0  0  0
  2 13  1  1  0  0  0
  2  1  1  0  0  0  0
  2  3  1  0  0  0  0
  3  4  1  0  0  0  0
  4 14  1  1  0  0  0
  5  4  1  0  0  0  0
  5 16  1  0  0  0  0
  6  5  1  0  0  0  0
  7 17  1  1  0  0  0
  7  6  1  0  0  0  0
  7  4  1  0  0  0  0
  8  9  2  0  0  0  0
  8  7  1  0  0  0  0
  9  2  1  0  0  0  0
 11  1  1  0  0  0  0
 12  1  1  0  0  0  0
 15  5  1  0  0  0  0
 18  8  1  0  0  0  0
 19  9  1  0  0  0  0
M TOR 0 0 1 2 3
M TOR 1 0 1 8 7
M TOR 2 0 1 8 18
M TOR 3 1 2 3 4
M TOR 4 1 2 3 6
M TOR 5 1 2 3 13
M TOR 6 1 8 7 6
M TOR 7 1 8 7 17
M TOR 8 2 1 0 9
M TOR 9 2 1 0 10
M TOR 10 2 1 0 11
M TOR 11 2 1 8 7
M TOR 12 2 1 8 18
M TOR 13 2 3 4 5
M TOR 14 2 3 4 14
M TOR 15 2 3 4 15
M TOR 16 2 3 6 5
M TOR 17 2 3 6 7
M TOR 18 2 3 6 16
M TOR 19 3 2 1 8
M TOR 20 3 2 1 12
M TOR 21 3 4 5 6
M TOR 22 3 6 7 8
M TOR 23 3 6 7 17
M TOR 24 4 3 6 7
M TOR 25 4 3 6 16
M TOR 26 4 5 6 7
M TOR 27 4 5 6 16
M TOR 28 5 4 3 13
M TOR 29 5 6 3 13
M TOR 30 5 6 7 8
M TOR 31 5 6 7 17
M TOR 32 6 3 4 14
M TOR 33 6 3 4 15
M TOR 34 6 5 4 14
M TOR 35 6 5 4 15
M TOR 36 6 7 8 18
M TOR 37 7 6 3 13
M TOR 38 7 8 1 12
M TOR 39 8 1 0 9
M TOR 40 8 1 0 10
M TOR 41 8 1 0 11
M TOR 42 8 7 6 16
M  END
$$$$
