gdb 5983	4.5210099	0.9999431	0.9724674	1.2121	75.25	-0.21564	0.07944	0.29508	1296.6776	0.155853	-422.473406	-422.465097	-422.464153	-422.506941	31.248
 OpenBabel02181911423D

 19 21  0  0  1  0  0  0  0  0999 V2000
   -0.0013   -0.0162    0.0632 C   0  0  0  0  0  0  0  0  0  0  0  0
    1.5048   -0.1354   -0.0820 C   0  0  0  0  0  0  0  0  0  0  0  0
    2.0592    1.1806   -0.0565 O   0  0  0  0  0  0  0  0  0  0  0  0
    3.4241    1.2119   -0.1478 C   0  0  2  0  0  0  0  0  0  0  0  0
    4.3174    0.9918   -1.3747 C   0  0  0  0  0  0  0  0  0  0  0  0
    5.4269    1.6008   -0.4767 C   0  0  2  0  0  0  0  0  0  0  0  0
    5.6445    0.5927    0.5546 O   0  0  0  0  0  0  0  0  0  0  0  0
    4.3634    0.9678    1.0599 C   0  0  1  0  0  0  0  0  0  0  0  0
    4.3223    2.3079    0.3954 C   0  0  2  0  0  0  0  0  0  0  0  0
   -0.2594    0.4707    1.0080 H   0  0  0  0  0  0  0  0  0  0  0  0
   -0.4205    0.5777   -0.7538 H   0  0  0  0  0  0  0  0  0  0  0  0
   -0.4638   -1.0075    0.0450 H   0  0  0  0  0  0  0  0  0  0  0  0
    1.9364   -0.7337    0.7336 H   0  0  0  0  0  0  0  0  0  0  0  0
    1.7673   -0.6318   -1.0278 H   0  0  0  0  0  0  0  0  0  0  0  0
    4.4980   -0.0213   -1.7468 H   0  0  0  0  0  0  0  0  0  0  0  0
    4.0388    1.6669   -2.1879 H   0  0  0  0  0  0  0  0  0  0  0  0
    6.3435    2.0275   -0.8765 H   0  0  0  0  0  0  0  0  0  0  0  0
    4.0438    0.6289    2.0365 H   0  0  0  0  0  0  0  0  0  0  0  0
    4.1454    3.3180    0.7367 H   0  0  0  0  0  0  0  0  0  0  0  0
  1 10  1  0  0  0  0
  2  3  1  0  0  0  0
  2  1  1  0  0  0  0
  2 13  1  0  0  0  0
  4  3  1  1  0  0  0
  4  9  1  0  0  0  0
  4  8  1  0  0  0  0
  5  6  1  0  0  0  0
  5  4  1  0  0  0  0
  6 17  1  6  0  0  0
  6  9  1  0  0  0  0
  6  7  1  0  0  0  0
  7  8  1  0  0  0  0
  8 18  1  1  0  0  0
  9 19  1  1  0  0  0
  9  8  1  0  0  0  0
 11  1  1  0  0  0  0
 12  1  1  0  0  0  0
 14  2  1  0  0  0  0
 15  5  1  0  0  0  0
 16  5  1  0  0  0  0
M TOR 0 0 1 2 3
M TOR 1 1 2 3 4
M TOR 2 1 2 3 7
M TOR 3 1 2 3 8
M TOR 4 2 1 0 9
M TOR 5 2 1 0 10
M TOR 6 2 1 0 11
M TOR 7 2 3 4 5
M TOR 8 2 3 4 14
M TOR 9 2 3 4 15
M TOR 10 2 3 7 6
M TOR 11 2 3 7 8
M TOR 12 2 3 7 17
M TOR 13 2 3 8 5
M TOR 14 2 3 8 18
M TOR 15 3 2 1 12
M TOR 16 3 2 1 13
M TOR 17 3 4 5 6
M TOR 18 3 4 5 8
M TOR 19 3 4 5 16
M TOR 20 3 7 6 5
M TOR 21 3 7 8 5
M TOR 22 3 7 8 18
M TOR 23 3 8 5 6
M TOR 24 3 8 5 16
M TOR 25 3 8 7 6
M TOR 26 3 8 7 17
M TOR 27 4 3 7 6
M TOR 28 4 3 7 8
M TOR 29 4 3 7 17
M TOR 30 4 3 8 18
M TOR 31 4 5 6 7
M TOR 32 4 5 8 7
M TOR 33 4 5 8 18
M TOR 34 5 4 3 7
M TOR 35 5 6 7 8
M TOR 36 5 6 7 17
M TOR 37 5 8 7 17
M TOR 38 6 5 4 14
M TOR 39 6 5 4 15
M TOR 40 6 5 8 18
M TOR 41 6 7 8 18
M TOR 42 7 3 4 14
M TOR 43 7 3 4 15
M TOR 44 7 6 5 16
M TOR 45 7 8 5 16
M TOR 46 8 3 4 14
M TOR 47 8 3 4 15
M TOR 48 8 5 4 14
M TOR 49 8 5 4 15
M  END
$$$$
