
     RDKit          3D

 19 19  0  0  0  0  0  0  0  0999 V2000
   -2.4868   -1.4586   -2.1099 C   0  0  0  0  0  0  0  0  0  0  0  0
   -2.0226   -0.7069   -0.8646 C   0  0  0  0  0  0  0  0  0  0  0  0
   -0.6808   -1.1767   -0.2817 C   0  0  0  0  0  0  0  0  0  0  0  0
   -0.1159    0.0258    0.4773 C   0  0  0  0  0  0  0  0  0  0  0  0
    0.8124    0.0154    1.2406 O   0  0  0  0  0  0  0  0  0  0  0  0
   -0.9396    1.2632    0.0931 C   0  0  0  0  0  0  0  0  0  0  0  0
   -1.8024    0.8225   -1.1012 C   0  0  0  0  0  0  0  0  0  0  0  0
   -3.1177    1.5580   -1.1793 C   0  0  0  0  0  0  0  0  0  0  0  0
   -3.5689    2.0850   -2.1621 O   0  0  0  0  0  0  0  0  0  0  0  0
   -2.6573   -2.5170   -1.8900 H   0  0  0  0  0  0  0  0  0  0  0  0
   -3.4193   -1.0415   -2.5029 H   0  0  0  0  0  0  0  0  0  0  0  0
   -1.7345   -1.3978   -2.9043 H   0  0  0  0  0  0  0  0  0  0  0  0
   -2.7890   -0.8099   -0.0822 H   0  0  0  0  0  0  0  0  0  0  0  0
   -0.7416   -2.0576    0.3619 H   0  0  0  0  0  0  0  0  0  0  0  0
    0.0263   -1.4156   -1.0887 H   0  0  0  0  0  0  0  0  0  0  0  0
   -1.5689    1.5183    0.9583 H   0  0  0  0  0  0  0  0  0  0  0  0
   -0.2970    2.1252   -0.0978 H   0  0  0  0  0  0  0  0  0  0  0  0
   -1.2723    0.9724   -2.0476 H   0  0  0  0  0  0  0  0  0  0  0  0
   -3.6805    1.5638   -0.2130 H   0  0  0  0  0  0  0  0  0  0  0  0
  1  2  1  0
  2  3  1  0
  3  4  1  0
  4  5  2  0
  4  6  1  0
  6  7  1  0
  7  8  1  0
  8  9  2  0
  7  2  1  0
  1 10  1  0
  1 11  1  0
  1 12  1  0
  2 13  1  0
  3 14  1  0
  3 15  1  0
  6 16  1  0
  6 17  1  0
  7 18  1  0
  8 19  1  0
M  END
$$$$
