gdb 3652	2.0638165	1.5135069	1.0308698	2.4039	78.21	-0.24849	-0.02825	0.22024	1218.475	0.153696	-422.578302	-422.568365	-422.56742	-422.613694	35.422
 OpenBabel02181911413D

 19 19  0  0  1  0  0  0  0  0999 V2000
    1.9654    1.6335   -0.6860 C   0  0  0  0  0  0  0  0  0  0  0  0
    1.5442    0.2536   -0.2319 C   0  0  2  0  0  0  0  0  0  0  0  0
    1.9736   -0.3470    1.0408 C   0  0  0  0  0  0  0  0  0  0  0  0
    2.4975   -0.9848   -0.2672 C   0  0  2  0  0  0  0  0  0  0  0  0
    3.9287   -0.7311   -0.5581 C   0  0  0  0  0  0  0  0  0  0  0  0
    4.6693   -1.4339   -1.2046 O   0  0  0  0  0  0  0  0  0  0  0  0
    1.7982   -2.2668   -0.6664 C   0  0  0  0  0  0  0  0  0  0  0  0
    2.5226   -3.2907   -1.5070 C   0  0  0  0  0  0  0  0  0  0  0  0
    0.6518   -2.4474   -0.3060 O   0  0  0  0  0  0  0  0  0  0  0  0
    1.2133    2.3617   -0.3641 H   0  0  0  0  0  0  0  0  0  0  0  0
    2.9227    1.9471   -0.2627 H   0  0  0  0  0  0  0  0  0  0  0  0
    2.0389    1.6937   -1.7764 H   0  0  0  0  0  0  0  0  0  0  0  0
    0.5521   -0.0494   -0.5533 H   0  0  0  0  0  0  0  0  0  0  0  0
    2.7118    0.1773    1.6401 H   0  0  0  0  0  0  0  0  0  0  0  0
    1.2731   -0.9697    1.5838 H   0  0  0  0  0  0  0  0  0  0  0  0
    4.3138    0.2069   -0.1000 H   0  0  0  0  0  0  0  0  0  0  0  0
    3.4224   -3.6432   -0.9957 H   0  0  0  0  0  0  0  0  0  0  0  0
    1.8411   -4.1196   -1.7033 H   0  0  0  0  0  0  0  0  0  0  0  0
    2.8729   -2.8474   -2.4431 H   0  0  0  0  0  0  0  0  0  0  0  0
  1 10  1  0  0  0  0
  1 11  1  0  0  0  0
  1  2  1  0  0  0  0
  2 13  1  6  0  0  0
  2  3  1  0  0  0  0
  3 15  1  0  0  0  0
  3 14  1  0  0  0  0
  4  7  1  6  0  0  0
  4  2  1  0  0  0  0
  4  3  1  0  0  0  0
  5  4  1  0  0  0  0
  5 16  1  0  0  0  0
  6  5  2  0  0  0  0
  7  9  2  0  0  0  0
  8 17  1  0  0  0  0
  8  7  1  0  0  0  0
 12  1  1  0  0  0  0
 18  8  1  0  0  0  0
 19  8  1  0  0  0  0
M TOR 0 0 1 2 3
M TOR 1 0 1 2 13
M TOR 2 0 1 2 14
M TOR 3 0 1 3 4
M TOR 4 0 1 3 6
M TOR 5 1 2 3 4
M TOR 6 1 2 3 6
M TOR 7 1 3 2 13
M TOR 8 1 3 2 14
M TOR 9 1 3 4 5
M TOR 10 1 3 4 15
M TOR 11 1 3 6 7
M TOR 12 1 3 6 8
M TOR 13 2 1 0 9
M TOR 14 2 1 0 10
M TOR 15 2 1 0 11
M TOR 16 2 3 1 12
M TOR 17 2 3 4 5
M TOR 18 2 3 4 15
M TOR 19 2 3 6 7
M TOR 20 2 3 6 8
M TOR 21 3 1 0 9
M TOR 22 3 1 0 10
M TOR 23 3 1 0 11
M TOR 24 3 6 7 16
M TOR 25 3 6 7 17
M TOR 26 3 6 7 18
M TOR 27 4 3 1 12
M TOR 28 4 3 2 13
M TOR 29 4 3 2 14
M TOR 30 4 3 6 7
M TOR 31 4 3 6 8
M TOR 32 5 4 3 6
M TOR 33 6 3 1 12
M TOR 34 6 3 2 13
M TOR 35 6 3 2 14
M TOR 36 6 3 4 15
M TOR 37 8 6 7 16
M TOR 38 8 6 7 17
M TOR 39 8 6 7 18
M  END
$$$$
