gdb 3171	2.6122996	1.746186	1.3387907	0.9911	73.54	-0.25218	0.06639	0.31857	1004.6921	0.158411	-422.53959	-422.531991	-422.531047	-422.57145	30.033
 OpenBabel02181911413D

 19 21  0  0  1  0  0  0  0  0999 V2000
   -0.0003    0.7377   -0.0412 O   0  0  0  0  0  0  0  0  0  0  0  0
   -0.8275   -0.0192    0.8381 C   0  0  1  0  0  0  0  0  0  0  0  0
   -0.9919    0.7054    2.1705 C   0  0  2  0  0  0  0  0  0  0  0  0
   -1.9653    0.1043    3.0276 O   0  0  0  0  0  0  0  0  0  0  0  0
   -2.3458    1.2729    2.2744 C   0  0  2  0  0  0  0  0  0  0  0  0
   -3.1470    0.9534    1.0308 C   0  0  2  0  0  0  0  0  0  0  0  0
   -4.2318   -0.1551    1.1793 C   0  0  0  0  0  0  0  0  0  0  0  0
   -3.2159   -1.2051    0.6432 C   0  0  0  0  0  0  0  0  0  0  0  0
   -2.2451   -0.0555    0.2433 C   0  0  2  0  0  0  0  0  0  0  0  0
    0.8917    0.7513    0.3210 H   0  0  0  0  0  0  0  0  0  0  0  0
   -0.4259   -1.0340    0.9804 H   0  0  0  0  0  0  0  0  0  0  0  0
   -0.1214    1.1311    2.6689 H   0  0  0  0  0  0  0  0  0  0  0  0
   -2.5673    2.1481    2.8806 H   0  0  0  0  0  0  0  0  0  0  0  0
   -3.4491    1.8720    0.5216 H   0  0  0  0  0  0  0  0  0  0  0  0
   -4.6126   -0.3208    2.1891 H   0  0  0  0  0  0  0  0  0  0  0  0
   -5.0784    0.0017    0.5065 H   0  0  0  0  0  0  0  0  0  0  0  0
   -2.8135   -1.8422    1.4325 H   0  0  0  0  0  0  0  0  0  0  0  0
   -3.5643   -1.8362   -0.1780 H   0  0  0  0  0  0  0  0  0  0  0  0
   -2.1889    0.1157   -0.8325 H   0  0  0  0  0  0  0  0  0  0  0  0
  1 10  1  0  0  0  0
  1  2  1  0  0  0  0
  2 11  1  1  0  0  0
  2  3  1  0  0  0  0
  3  5  1  0  0  0  0
  3 12  1  1  0  0  0
  3  4  1  0  0  0  0
  5 13  1  1  0  0  0
  5  4  1  0  0  0  0
  6 14  1  6  0  0  0
  6  7  1  0  0  0  0
  6  5  1  0  0  0  0
  7 15  1  0  0  0  0
  8  7  1  0  0  0  0
  8 17  1  0  0  0  0
  9 19  1  6  0  0  0
  9  8  1  0  0  0  0
  9  2  1  0  0  0  0
  9  6  1  0  0  0  0
 16  7  1  0  0  0  0
 18  8  1  0  0  0  0
M TOR 0 0 1 2 3
M TOR 1 0 1 2 4
M TOR 2 0 1 2 11
M TOR 3 0 1 8 5
M TOR 4 0 1 8 7
M TOR 5 0 1 8 18
M TOR 6 1 2 3 4
M TOR 7 1 2 4 5
M TOR 8 1 2 4 12
M TOR 9 1 8 5 4
M TOR 10 1 8 5 6
M TOR 11 1 8 5 13
M TOR 12 1 8 7 6
M TOR 13 1 8 7 16
M TOR 14 1 8 7 17
M TOR 15 2 1 0 9
M TOR 16 2 1 8 5
M TOR 17 2 1 8 7
M TOR 18 2 1 8 18
M TOR 19 2 3 4 5
M TOR 20 2 3 4 12
M TOR 21 2 4 5 6
M TOR 22 2 4 5 8
M TOR 23 2 4 5 13
M TOR 24 3 2 1 8
M TOR 25 3 2 1 10
M TOR 26 3 4 2 11
M TOR 27 3 4 5 6
M TOR 28 3 4 5 8
M TOR 29 3 4 5 13
M TOR 30 4 2 1 8
M TOR 31 4 2 1 10
M TOR 32 4 5 6 7
M TOR 33 4 5 6 14
M TOR 34 4 5 6 15
M TOR 35 4 5 8 7
M TOR 36 4 5 8 18
M TOR 37 5 4 2 11
M TOR 38 5 6 7 8
M TOR 39 5 6 7 16
M TOR 40 5 6 7 17
M TOR 41 5 8 1 10
M TOR 42 5 8 7 16
M TOR 43 5 8 7 17
M TOR 44 6 5 4 12
M TOR 45 6 5 8 18
M TOR 46 6 7 8 18
M TOR 47 7 6 5 13
M TOR 48 7 8 1 10
M TOR 49 7 8 5 13
M TOR 50 8 1 0 9
M TOR 51 8 1 2 11
M TOR 52 8 5 4 12
M TOR 53 8 5 6 14
M TOR 54 8 5 6 15
M TOR 55 8 7 6 14
M TOR 56 8 7 6 15
M  END
$$$$
