gdb 5091	3.81095	1.1166982	1.0729705	3.2706	75.54	-0.24274	0.0509	0.29364	1234.5812	0.153737	-422.473116	-422.464112	-422.463168	-422.506741	33.642
 OpenBabel02181911423D

 19 21  0  0  1  0  0  0  0  0999 V2000
    1.8916    1.3594    0.3367 C   0  0  0  0  0  0  0  0  0  0  0  0
    1.2985   -0.0569    0.3263 C   0  0  0  0  0  0  0  0  0  0  0  0
    1.4666   -0.7326   -0.9965 C   0  0  1  0  0  0  0  0  0  0  0  0
    2.7528   -1.2152   -1.3930 O   0  0  0  0  0  0  0  0  0  0  0  0
    1.6485   -2.1222   -1.4192 C   0  0  2  0  0  0  0  0  0  0  0  0
    0.7999   -1.8467   -2.7340 C   0  0  2  0  0  0  0  0  0  0  0  0
   -0.0686   -2.8204   -3.4561 C   0  0  0  0  0  0  0  0  0  0  0  0
    1.4531   -0.7974   -3.4493 O   0  0  0  0  0  0  0  0  0  0  0  0
    0.6409   -0.4495   -2.3254 C   0  0  2  0  0  0  0  0  0  0  0  0
    1.7547    1.8317    1.3136 H   0  0  0  0  0  0  0  0  0  0  0  0
    2.9624    1.3292    0.1163 H   0  0  0  0  0  0  0  0  0  0  0  0
    1.4132    1.9961   -0.4147 H   0  0  0  0  0  0  0  0  0  0  0  0
    1.7786   -0.6726    1.0948 H   0  0  0  0  0  0  0  0  0  0  0  0
    0.2289   -0.0184    0.5702 H   0  0  0  0  0  0  0  0  0  0  0  0
    1.7225   -3.0452   -0.8551 H   0  0  0  0  0  0  0  0  0  0  0  0
   -0.7116   -3.3618   -2.7538 H   0  0  0  0  0  0  0  0  0  0  0  0
   -0.7014   -2.3029   -4.1819 H   0  0  0  0  0  0  0  0  0  0  0  0
    0.5381   -3.5585   -3.9930 H   0  0  0  0  0  0  0  0  0  0  0  0
   -0.1686    0.2569   -2.4704 H   0  0  0  0  0  0  0  0  0  0  0  0
  1 10  1  0  0  0  0
  2  1  1  0  0  0  0
  2 14  1  0  0  0  0
  2 13  1  0  0  0  0
  3  2  1  1  0  0  0
  4  3  1  0  0  0  0
  5  4  1  0  0  0  0
  5  3  1  0  0  0  0
  5 15  1  1  0  0  0
  6  7  1  6  0  0  0
  6  9  1  0  0  0  0
  6  5  1  0  0  0  0
  7 16  1  0  0  0  0
  8  6  1  0  0  0  0
  8  9  1  0  0  0  0
  9 19  1  6  0  0  0
  9  3  1  0  0  0  0
 11  1  1  0  0  0  0
 12  1  1  0  0  0  0
 17  7  1  0  0  0  0
 18  7  1  0  0  0  0
M TOR 0 0 1 2 3
M TOR 1 0 1 2 4
M TOR 2 0 1 2 8
M TOR 3 1 2 3 4
M TOR 4 1 2 4 5
M TOR 5 1 2 4 14
M TOR 6 1 2 8 5
M TOR 7 1 2 8 7
M TOR 8 1 2 8 18
M TOR 9 2 1 0 9
M TOR 10 2 1 0 10
M TOR 11 2 1 0 11
M TOR 12 2 3 4 5
M TOR 13 2 3 4 14
M TOR 14 2 4 5 6
M TOR 15 2 4 5 7
M TOR 16 2 4 5 8
M TOR 17 2 8 5 6
M TOR 18 2 8 5 7
M TOR 19 3 2 1 12
M TOR 20 3 2 1 13
M TOR 21 3 2 8 5
M TOR 22 3 2 8 7
M TOR 23 3 2 8 18
M TOR 24 3 4 2 8
M TOR 25 3 4 5 6
M TOR 26 3 4 5 7
M TOR 27 3 4 5 8
M TOR 28 4 2 1 12
M TOR 29 4 2 1 13
M TOR 30 4 2 8 7
M TOR 31 4 2 8 18
M TOR 32 4 5 6 15
M TOR 33 4 5 6 16
M TOR 34 4 5 6 17
M TOR 35 4 5 7 8
M TOR 36 4 5 8 18
M TOR 37 5 7 8 18
M TOR 38 6 5 4 14
M TOR 39 6 5 7 8
M TOR 40 6 5 8 18
M TOR 41 7 5 4 14
M TOR 42 7 5 6 15
M TOR 43 7 5 6 16
M TOR 44 7 5 6 17
M TOR 45 8 2 1 12
M TOR 46 8 2 1 13
M TOR 47 8 2 4 14
M TOR 48 8 5 4 14
M TOR 49 8 5 6 15
M TOR 50 8 5 6 16
M TOR 51 8 5 6 17
M  END
$$$$
