gdb 836	3.2143639	1.3901662	1.2809605	2.1556	74.44	-0.2394	-0.02727	0.21213	1050.165	0.158169	-422.553259	-422.545652	-422.544708	-422.585473	29.624
 OpenBabel02181911403D

 19 20  0  0  1  0  0  0  0  0999 V2000
    0.4144    0.3366   -0.8175 O   0  0  0  0  0  0  0  0  0  0  0  0
   -0.0732   -0.1306    0.1783 C   0  0  0  0  0  0  0  0  0  0  0  0
   -0.5032    0.6756    1.4084 C   0  0  1  0  0  0  0  0  0  0  0  0
   -0.9785    2.1031    1.0490 C   0  0  0  0  0  0  0  0  0  0  0  0
   -2.5123    2.1545    1.0376 C   0  0  2  0  0  0  0  0  0  0  0  0
   -3.0316    1.7275    2.4412 C   0  0  0  0  0  0  0  0  0  0  0  0
   -2.8044    0.2759    1.9485 C   0  0  1  0  0  0  0  0  0  0  0  0
   -3.0713    0.7988    0.5103 C   0  0  0  0  0  0  0  0  0  0  0  0
   -1.4435   -0.1019    2.1470 O   0  0  0  0  0  0  0  0  0  0  0  0
   -0.2361   -1.2240    0.3062 H   0  0  0  0  0  0  0  0  0  0  0  0
    0.3992    0.7266    2.0348 H   0  0  0  0  0  0  0  0  0  0  0  0
   -0.5909    2.8301    1.7697 H   0  0  0  0  0  0  0  0  0  0  0  0
   -0.5581    2.3516    0.0694 H   0  0  0  0  0  0  0  0  0  0  0  0
   -2.8831    3.0832    0.5995 H   0  0  0  0  0  0  0  0  0  0  0  0
   -2.4668    2.0424    3.3225 H   0  0  0  0  0  0  0  0  0  0  0  0
   -4.0931    1.9506    2.5763 H   0  0  0  0  0  0  0  0  0  0  0  0
   -3.4037   -0.5408    2.3539 H   0  0  0  0  0  0  0  0  0  0  0  0
   -2.5773    0.3074   -0.3321 H   0  0  0  0  0  0  0  0  0  0  0  0
   -4.1444    0.8510    0.3113 H   0  0  0  0  0  0  0  0  0  0  0  0
  1  2  2  0  0  0  0
  2 10  1  0  0  0  0
  2  3  1  0  0  0  0
  3 11  1  1  0  0  0
  3  9  1  0  0  0  0
  4  3  1  0  0  0  0
  4 12  1  0  0  0  0
  5 14  1  6  0  0  0
  5  4  1  0  0  0  0
  5  6  1  0  0  0  0
  6 16  1  0  0  0  0
  6 15  1  0  0  0  0
  7  9  1  0  0  0  0
  7 17  1  1  0  0  0
  7  6  1  0  0  0  0
  8  5  1  0  0  0  0
  8  7  1  0  0  0  0
 13  4  1  0  0  0  0
 18  8  1  0  0  0  0
 19  8  1  0  0  0  0
M TOR 0 0 1 2 3
M TOR 1 0 1 2 8
M TOR 2 0 1 2 10
M TOR 3 1 2 3 4
M TOR 4 1 2 3 11
M TOR 5 1 2 3 12
M TOR 6 1 2 8 6
M TOR 7 2 3 4 5
M TOR 8 2 3 4 7
M TOR 9 2 3 4 13
M TOR 10 2 8 6 5
M TOR 11 2 8 6 7
M TOR 12 2 8 6 16
M TOR 13 3 2 1 9
M TOR 14 3 2 8 6
M TOR 15 3 4 5 6
M TOR 16 3 4 5 14
M TOR 17 3 4 5 15
M TOR 18 3 4 7 6
M TOR 19 3 4 7 17
M TOR 20 3 4 7 18
M TOR 21 4 3 2 8
M TOR 22 4 3 2 10
M TOR 23 4 5 6 7
M TOR 24 4 5 6 8
M TOR 25 4 5 6 16
M TOR 26 4 7 6 8
M TOR 27 4 7 6 16
M TOR 28 5 4 3 11
M TOR 29 5 4 3 12
M TOR 30 5 4 7 17
M TOR 31 5 4 7 18
M TOR 32 5 6 7 17
M TOR 33 5 6 7 18
M TOR 34 6 5 4 13
M TOR 35 6 7 4 13
M TOR 36 6 8 2 10
M TOR 37 7 4 3 11
M TOR 38 7 4 3 12
M TOR 39 7 4 5 14
M TOR 40 7 4 5 15
M TOR 41 7 6 5 14
M TOR 42 7 6 5 15
M TOR 43 8 2 1 9
M TOR 44 8 2 3 11
M TOR 45 8 2 3 12
M TOR 46 8 6 5 14
M TOR 47 8 6 5 15
M TOR 48 8 6 7 17
M TOR 49 8 6 7 18
M  END
$$$$
