gdb 2798	3.0452085	1.3929484	1.2176469	1.001	74.46	-0.23887	0.06929	0.30816	1090.024	0.15616	-422.498169	-422.489981	-422.489037	-422.530276	32.26
 OpenBabel02181911413D

 19 21  0  0  1  0  0  0  0  0999 V2000
   -4.3233    2.4366    0.3134 C   0  0  0  0  0  0  0  0  0  0  0  0
   -3.2875    1.4985    0.8711 C   0  0  1  0  0  0  0  0  0  0  0  0
   -3.1834    1.5678    2.3299 O   0  0  0  0  0  0  0  0  0  0  0  0
   -3.4189    0.1412    2.4593 C   0  0  0  0  0  0  0  0  0  0  0  0
   -3.4036   -0.0436    0.9301 C   0  0  2  0  0  0  0  0  0  0  0  0
   -2.0445   -0.1554    0.2090 C   0  0  2  0  0  0  0  0  0  0  0  0
   -0.9454    0.5801    0.9085 C   0  0  1  0  0  0  0  0  0  0  0  0
    0.3014    0.3793    0.3036 O   0  0  0  0  0  0  0  0  0  0  0  0
   -1.9430    1.3846    0.1182 C   0  0  2  0  0  0  0  0  0  0  0  0
   -5.2906    2.2823    0.8000 H   0  0  0  0  0  0  0  0  0  0  0  0
   -4.0184    3.4760    0.4813 H   0  0  0  0  0  0  0  0  0  0  0  0
   -4.4407    2.2873   -0.7648 H   0  0  0  0  0  0  0  0  0  0  0  0
   -2.6367   -0.3621    3.0386 H   0  0  0  0  0  0  0  0  0  0  0  0
   -4.3931   -0.0567    2.9234 H   0  0  0  0  0  0  0  0  0  0  0  0
   -4.2289   -0.5770    0.4599 H   0  0  0  0  0  0  0  0  0  0  0  0
   -1.7928   -0.8920   -0.5436 H   0  0  0  0  0  0  0  0  0  0  0  0
   -0.9215    0.6710    1.9919 H   0  0  0  0  0  0  0  0  0  0  0  0
    0.8136    1.1872    0.4143 H   0  0  0  0  0  0  0  0  0  0  0  0
   -1.6247    2.0063   -0.7114 H   0  0  0  0  0  0  0  0  0  0  0  0
  1 11  1  0  0  0  0
  1 10  1  0  0  0  0
  2  1  1  6  0  0  0
  2  5  1  0  0  0  0
  2  3  1  0  0  0  0
  3  4  1  0  0  0  0
  4 14  1  0  0  0  0
  4 13  1  0  0  0  0
  5 15  1  6  0  0  0
  5  4  1  0  0  0  0
  6 16  1  6  0  0  0
  6  7  1  0  0  0  0
  6  5  1  0  0  0  0
  7 17  1  1  0  0  0
  8 18  1  0  0  0  0
  8  7  1  0  0  0  0
  9 19  1  6  0  0  0
  9  6  1  0  0  0  0
  9  2  1  0  0  0  0
  9  7  1  0  0  0  0
 12  1  1  0  0  0  0
M TOR 0 0 1 2 3
M TOR 1 0 1 4 3
M TOR 2 0 1 4 5
M TOR 3 0 1 4 14
M TOR 4 0 1 8 5
M TOR 5 0 1 8 6
M TOR 6 0 1 8 18
M TOR 7 1 2 3 4
M TOR 8 1 2 3 12
M TOR 9 1 2 3 13
M TOR 10 1 4 3 12
M TOR 11 1 4 3 13
M TOR 12 1 4 5 6
M TOR 13 1 4 5 8
M TOR 14 1 4 5 15
M TOR 15 1 8 5 6
M TOR 16 1 8 5 15
M TOR 17 1 8 6 7
M TOR 18 1 8 6 16
M TOR 19 2 1 0 9
M TOR 20 2 1 0 10
M TOR 21 2 1 0 11
M TOR 22 2 1 4 5
M TOR 23 2 1 4 14
M TOR 24 2 1 8 5
M TOR 25 2 1 8 6
M TOR 26 2 1 8 18
M TOR 27 2 3 4 5
M TOR 28 2 3 4 14
M TOR 29 3 2 1 8
M TOR 30 3 4 1 8
M TOR 31 3 4 5 6
M TOR 32 3 4 5 8
M TOR 33 3 4 5 15
M TOR 34 4 1 0 9
M TOR 35 4 1 0 10
M TOR 36 4 1 0 11
M TOR 37 4 1 8 6
M TOR 38 4 1 8 18
M TOR 39 4 5 6 7
M TOR 40 4 5 6 8
M TOR 41 4 5 6 16
M TOR 42 4 5 8 18
M TOR 43 5 4 3 12
M TOR 44 5 4 3 13
M TOR 45 5 6 7 17
M TOR 46 5 6 8 18
M TOR 47 5 8 6 7
M TOR 48 5 8 6 16
M TOR 49 6 5 4 14
M TOR 50 6 8 5 15
M TOR 51 7 6 5 15
M TOR 52 7 6 8 18
M TOR 53 8 1 0 9
M TOR 54 8 1 0 10
M TOR 55 8 1 0 11
M TOR 56 8 1 4 14
M TOR 57 8 5 4 14
M TOR 58 8 6 7 17
M  END
$$$$
