gdb 1389	2.1818022	0.9084726	0.6690742	2.974	78.36	-0.25548	-0.02733	0.22815	1645.7361	0.151639	-422.521089	-422.510211	-422.509267	-422.558756	37.04
 OpenBabel02181911403D

 19 18  0  0  1  0  0  0  0  0999 V2000
    4.8516    1.0690   -0.6188 C   0  0  0  0  0  0  0  0  0  0  0  0
    3.3342    1.1396   -0.7962 C   0  0  2  0  0  0  0  0  0  0  0  0
    2.6208    0.0065   -0.0382 C   0  0  0  0  0  0  0  0  0  0  0  0
    1.1691    0.1314   -0.0514 C   0  0  0  0  0  0  0  0  0  0  0  0
   -0.0264    0.2513   -0.0501 C   0  0  0  0  0  0  0  0  0  0  0  0
    2.9561    1.0039   -2.1597 O   0  0  0  0  0  0  0  0  0  0  0  0
    3.1060    2.1526   -2.9519 C   0  0  0  0  0  0  0  0  0  0  0  0
    2.3727    1.9175   -4.2628 C   0  0  0  0  0  0  0  0  0  0  0  0
    2.4637    2.6437   -5.2162 O   0  0  0  0  0  0  0  0  0  0  0  0
    5.1231    1.1793    0.4356 H   0  0  0  0  0  0  0  0  0  0  0  0
    5.2340    0.1088   -0.9794 H   0  0  0  0  0  0  0  0  0  0  0  0
    5.3522    1.8667   -1.1745 H   0  0  0  0  0  0  0  0  0  0  0  0
    2.9628    2.1041   -0.4153 H   0  0  0  0  0  0  0  0  0  0  0  0
    2.9209   -0.9465   -0.4916 H   0  0  0  0  0  0  0  0  0  0  0  0
    2.9831   -0.0079    0.9968 H   0  0  0  0  0  0  0  0  0  0  0  0
   -1.0838    0.3476   -0.0526 H   0  0  0  0  0  0  0  0  0  0  0  0
    2.6616    3.0404   -2.4685 H   0  0  0  0  0  0  0  0  0  0  0  0
    4.1563    2.3958   -3.1732 H   0  0  0  0  0  0  0  0  0  0  0  0
    1.7291    1.0109   -4.2529 H   0  0  0  0  0  0  0  0  0  0  0  0
  1 10  1  0  0  0  0
  2  1  1  0  0  0  0
  2 13  1  1  0  0  0
  2  3  1  0  0  0  0
  3 15  1  0  0  0  0
  4  5  3  0  0  0  0
  4  3  1  0  0  0  0
  6  2  1  0  0  0  0
  7 17  1  0  0  0  0
  7  6  1  0  0  0  0
  8 19  1  0  0  0  0
  8  7  1  0  0  0  0
  9  8  2  0  0  0  0
 11  1  1  0  0  0  0
 12  1  1  0  0  0  0
 14  3  1  0  0  0  0
 16  5  1  0  0  0  0
 18  7  1  0  0  0  0
M TOR 0 0 1 2 3
M TOR 1 0 1 2 13
M TOR 2 0 1 2 14
M TOR 3 0 1 5 6
M TOR 4 1 2 3 4
M TOR 5 1 5 6 7
M TOR 6 1 5 6 16
M TOR 7 1 5 6 17
M TOR 8 2 1 0 9
M TOR 9 2 1 0 10
M TOR 10 2 1 0 11
M TOR 11 2 1 5 6
M TOR 12 2 3 4 15
M TOR 13 3 2 1 5
M TOR 14 3 2 1 12
M TOR 15 4 3 2 13
M TOR 16 4 3 2 14
M TOR 17 5 1 0 9
M TOR 18 5 1 0 10
M TOR 19 5 1 0 11
M TOR 20 5 1 2 13
M TOR 21 5 1 2 14
M TOR 22 5 6 7 8
M TOR 23 5 6 7 18
M TOR 24 6 5 1 12
M TOR 25 8 7 6 16
M TOR 26 8 7 6 17
M  END
$$$$
