gdb 5451	4.794997	1.0983967	1.0221436	0.6527	75.68	-0.22244	0.08222	0.30466	1230.7003	0.15538	-422.478305	-422.469766	-422.468822	-422.51134	31.996
 OpenBabel02181911423D

 19 21  0  0  1  0  0  0  0  0999 V2000
    1.4517    0.0642   -0.0814 C   0  0  0  0  0  0  0  0  0  0  0  0
    0.0762   -0.1529    0.1500 O   0  0  0  0  0  0  0  0  0  0  0  0
   -0.4447    0.6429    1.1853 C   0  0  1  0  0  0  0  0  0  0  0  0
   -1.9125    0.3177    1.4126 C   0  0  1  0  0  0  0  0  0  0  0  0
   -1.5624   -0.7641    2.4415 C   0  0  1  0  0  0  0  0  0  0  0  0
   -0.2330    0.0520    2.6168 C   0  0  2  0  0  0  0  0  0  0  0  0
   -0.8984    1.0217    3.4686 O   0  0  0  0  0  0  0  0  0  0  0  0
   -2.1341    0.5249    2.9219 C   0  0  1  0  0  0  0  0  0  0  0  0
   -3.4178    0.9032    3.5764 C   0  0  0  0  0  0  0  0  0  0  0  0
    2.0706   -0.2005    0.7888 H   0  0  0  0  0  0  0  0  0  0  0  0
    1.7405   -0.5713   -0.9218 H   0  0  0  0  0  0  0  0  0  0  0  0
    1.6575    1.1139   -0.3414 H   0  0  0  0  0  0  0  0  0  0  0  0
   -0.1497    1.6963    1.0620 H   0  0  0  0  0  0  0  0  0  0  0  0
   -2.7171    0.3281    0.6884 H   0  0  0  0  0  0  0  0  0  0  0  0
   -1.8442   -1.8023    2.5435 H   0  0  0  0  0  0  0  0  0  0  0  0
    0.7307   -0.2881    2.9902 H   0  0  0  0  0  0  0  0  0  0  0  0
   -3.4106    0.6218    4.6339 H   0  0  0  0  0  0  0  0  0  0  0  0
   -3.5860    1.9831    3.5076 H   0  0  0  0  0  0  0  0  0  0  0  0
   -4.2550    0.3956    3.0883 H   0  0  0  0  0  0  0  0  0  0  0  0
  1  2  1  0  0  0  0
  1 10  1  0  0  0  0
  2  3  1  0  0  0  0
  3 13  1  6  0  0  0
  3  4  1  0  0  0  0
  3  6  1  0  0  0  0
  4 14  1  6  0  0  0
  4  5  1  0  0  0  0
  4  8  1  0  0  0  0
  5 15  1  1  0  0  0
  5  6  1  0  0  0  0
  5  8  1  0  0  0  0
  6 16  1  1  0  0  0
  6  7  1  0  0  0  0
  8  7  1  0  0  0  0
  8  9  1  1  0  0  0
  9 17  1  0  0  0  0
 11  1  1  0  0  0  0
 12  1  1  0  0  0  0
 18  9  1  0  0  0  0
 19  9  1  0  0  0  0
M TOR 0 0 1 2 3
M TOR 1 0 1 2 5
M TOR 2 0 1 2 12
M TOR 3 1 2 3 4
M TOR 4 1 2 3 7
M TOR 5 1 2 3 13
M TOR 6 1 2 5 4
M TOR 7 1 2 5 6
M TOR 8 1 2 5 15
M TOR 9 2 1 0 9
M TOR 10 2 1 0 10
M TOR 11 2 1 0 11
M TOR 12 2 3 4 5
M TOR 13 2 3 4 7
M TOR 14 2 3 4 14
M TOR 15 2 3 7 6
M TOR 16 2 3 7 8
M TOR 17 2 5 4 7
M TOR 18 2 5 4 14
M TOR 19 2 5 6 7
M TOR 20 3 2 5 6
M TOR 21 3 2 5 15
M TOR 22 3 4 5 6
M TOR 23 3 4 5 15
M TOR 24 3 4 7 6
M TOR 25 3 4 7 8
M TOR 26 3 7 4 5
M TOR 27 3 7 4 14
M TOR 28 3 7 6 5
M TOR 29 3 7 8 16
M TOR 30 3 7 8 17
M TOR 31 3 7 8 18
M TOR 32 4 3 2 12
M TOR 33 4 5 2 12
M TOR 34 4 5 6 7
M TOR 35 4 7 3 13
M TOR 36 4 7 8 16
M TOR 37 4 7 8 17
M TOR 38 4 7 8 18
M TOR 39 5 2 3 7
M TOR 40 5 2 3 13
M TOR 41 5 4 3 13
M TOR 42 5 4 7 8
M TOR 43 5 6 7 8
M TOR 44 6 5 2 12
M TOR 45 6 5 4 14
M TOR 46 6 7 3 13
M TOR 47 6 7 4 14
M TOR 48 6 7 8 16
M TOR 49 6 7 8 17
M TOR 50 6 7 8 18
M TOR 51 7 3 2 12
M TOR 52 7 4 5 15
M TOR 53 7 6 5 15
M TOR 54 8 7 3 13
M TOR 55 8 7 4 14
M  END
$$$$
