
     RDKit          3D

 19 20  0  0  0  0  0  0  0  0999 V2000
   -4.7980   -1.1748   -2.6816 C   0  0  0  0  0  0  0  0  0  0  0  0
   -4.2112   -0.6472   -1.3985 C   0  0  0  0  0  0  0  0  0  0  0  0
   -4.0443    0.7737   -1.3023 O   0  0  0  0  0  0  0  0  0  0  0  0
   -2.8714   -0.0474   -1.3215 C   0  0  0  0  0  0  0  0  0  0  0  0
   -2.0358   -0.0610   -0.0741 C   0  0  0  0  0  0  0  0  0  0  0  0
   -0.8632   -1.0948   -0.0294 C   0  0  0  0  0  0  0  0  0  0  0  0
    0.0639    0.0547    0.4032 C   0  0  0  0  0  0  0  0  0  0  0  0
    1.1666    0.0990    0.8627 O   0  0  0  0  0  0  0  0  0  0  0  0
   -1.0130    1.1097    0.1053 C   0  0  0  0  0  0  0  0  0  0  0  0
   -4.6430   -2.2563   -2.7605 H   0  0  0  0  0  0  0  0  0  0  0  0
   -5.8759   -0.9863   -2.7176 H   0  0  0  0  0  0  0  0  0  0  0  0
   -4.3378   -0.6905   -3.5471 H   0  0  0  0  0  0  0  0  0  0  0  0
   -4.6032   -1.0999   -0.4851 H   0  0  0  0  0  0  0  0  0  0  0  0
   -2.3009    0.0229   -2.2525 H   0  0  0  0  0  0  0  0  0  0  0  0
   -2.6864   -0.1513    0.7989 H   0  0  0  0  0  0  0  0  0  0  0  0
   -0.9459   -1.9398    0.6582 H   0  0  0  0  0  0  0  0  0  0  0  0
   -0.5887   -1.4795   -1.0190 H   0  0  0  0  0  0  0  0  0  0  0  0
   -1.2050    1.8448    0.8901 H   0  0  0  0  0  0  0  0  0  0  0  0
   -0.8058    1.6465   -0.8278 H   0  0  0  0  0  0  0  0  0  0  0  0
  1  2  1  0
  2  3  1  0
  3  4  1  0
  4  5  1  0
  5  6  1  0
  6  7  1  0
  7  8  2  0
  7  9  1  0
  4  2  1  0
  9  5  1  0
  1 10  1  0
  1 11  1  0
  1 12  1  0
  2 13  1  0
  4 14  1  0
  5 15  1  0
  6 16  1  0
  6 17  1  0
  9 18  1  0
  9 19  1  0
M  END
$$$$
