gdb 1452	3.1755822	1.5053137	1.177153	1.7819	76.69	-0.23275	0.06902	0.30177	1085.8674	0.154646	-422.467248	-422.458703	-422.457758	-422.499627	33.607
 OpenBabel02181911403D

 19 21  0  0  1  0  0  0  0  0999 V2000
   -0.0017   -0.2771    0.1002 C   0  0  0  0  0  0  0  0  0  0  0  0
    1.3311    0.3385    0.4866 C   0  0  2  0  0  0  0  0  0  0  0  0
    2.0754   -0.4982    1.3349 O   0  0  0  0  0  0  0  0  0  0  0  0
    1.3701    1.8942    0.7507 C   0  0  2  0  0  0  0  0  0  0  0  0
    1.1243    2.0797   -0.7001 O   0  0  0  0  0  0  0  0  0  0  0  0
    2.1743    1.0350   -0.6256 C   0  0  1  0  0  0  0  0  0  0  0  0
    2.8727    1.8820    0.4474 C   0  0  0  0  0  0  0  0  0  0  0  0
    4.1193    1.7728    1.2446 C   0  0  0  0  0  0  0  0  0  0  0  0
    3.8720    2.9785    0.3441 C   0  0  0  0  0  0  0  0  0  0  0  0
   -0.6203   -0.4373    0.9929 H   0  0  0  0  0  0  0  0  0  0  0  0
   -0.5460    0.3735   -0.5833 H   0  0  0  0  0  0  0  0  0  0  0  0
    0.1576   -1.2506   -0.3751 H   0  0  0  0  0  0  0  0  0  0  0  0
    1.4630   -0.9397    1.9315 H   0  0  0  0  0  0  0  0  0  0  0  0
    0.7964    2.5125    1.4434 H   0  0  0  0  0  0  0  0  0  0  0  0
    2.5577    0.6318   -1.5642 H   0  0  0  0  0  0  0  0  0  0  0  0
    4.0563    1.9131    2.3187 H   0  0  0  0  0  0  0  0  0  0  0  0
    4.8635    1.0455    0.9378 H   0  0  0  0  0  0  0  0  0  0  0  0
    3.6460    3.9302    0.8143 H   0  0  0  0  0  0  0  0  0  0  0  0
    4.4545    3.0626   -0.5678 H   0  0  0  0  0  0  0  0  0  0  0  0
  1  2  1  0  0  0  0
  1 10  1  0  0  0  0
  2  4  1  0  0  0  0
  2  3  1  1  0  0  0
  3 13  1  0  0  0  0
  4 14  1  1  0  0  0
  5  6  1  0  0  0  0
  5  4  1  0  0  0  0
  6 15  1  6  0  0  0
  6  7  1  0  0  0  0
  6  2  1  0  0  0  0
  7  4  1  0  0  0  0
  7  8  1  0  0  0  0
  8 16  1  0  0  0  0
  9  7  1  0  0  0  0
  9 18  1  0  0  0  0
  9  8  1  0  0  0  0
 11  1  1  0  0  0  0
 12  1  1  0  0  0  0
 17  8  1  0  0  0  0
 19  9  1  0  0  0  0
M TOR 0 0 1 2 12
M TOR 1 0 1 3 4
M TOR 2 0 1 3 6
M TOR 3 0 1 3 13
M TOR 4 0 1 5 4
M TOR 5 0 1 5 6
M TOR 6 0 1 5 14
M TOR 7 1 3 4 5
M TOR 8 1 3 6 5
M TOR 9 1 3 6 7
M TOR 10 1 3 6 8
M TOR 11 1 5 6 7
M TOR 12 1 5 6 8
M TOR 13 2 1 0 9
M TOR 14 2 1 0 10
M TOR 15 2 1 0 11
M TOR 16 2 1 3 4
M TOR 17 2 1 3 6
M TOR 18 2 1 3 13
M TOR 19 2 1 5 4
M TOR 20 2 1 5 6
M TOR 21 2 1 5 14
M TOR 22 3 1 0 9
M TOR 23 3 1 0 10
M TOR 24 3 1 0 11
M TOR 25 3 1 2 12
M TOR 26 3 1 5 14
M TOR 27 3 4 5 6
M TOR 28 3 4 5 14
M TOR 29 3 6 5 14
M TOR 30 3 6 7 8
M TOR 31 3 6 7 15
M TOR 32 3 6 7 16
M TOR 33 3 6 8 17
M TOR 34 3 6 8 18
M TOR 35 4 3 6 7
M TOR 36 4 3 6 8
M TOR 37 4 5 6 7
M TOR 38 4 5 6 8
M TOR 39 5 1 0 9
M TOR 40 5 1 0 10
M TOR 41 5 1 0 11
M TOR 42 5 1 2 12
M TOR 43 5 1 3 13
M TOR 44 5 4 3 13
M TOR 45 5 6 3 13
M TOR 46 5 6 7 8
M TOR 47 5 6 7 15
M TOR 48 5 6 7 16
M TOR 49 5 6 8 17
M TOR 50 5 6 8 18
M TOR 51 6 7 8 17
M TOR 52 6 7 8 18
M TOR 53 6 8 7 15
M TOR 54 6 8 7 16
M TOR 55 7 6 3 13
M TOR 56 7 6 5 14
M TOR 57 8 6 3 13
M TOR 58 8 6 5 14
M  END
$$$$
