
     RDKit          3D

 19 20  0  0  0  0  0  0  0  0999 V2000
    3.7427    0.4507    1.5026 C   0  0  0  0  0  0  0  0  0  0  0  0
    2.9387   -0.8361    1.5333 C   0  0  0  0  0  0  0  0  0  0  0  0
    3.3260   -1.7985    2.1694 O   0  0  0  0  0  0  0  0  0  0  0  0
    1.6389   -0.8812    0.7806 C   0  0  0  0  0  0  0  0  0  0  0  0
    1.2315    0.2899   -0.0877 C   0  0  0  0  0  0  0  0  0  0  0  0
    1.2572   -2.3318    0.4406 C   0  0  0  0  0  0  0  0  0  0  0  0
   -0.1386   -2.3774   -0.1659 C   0  0  0  0  0  0  0  0  0  0  0  0
   -0.6838   -1.6243    0.9582 O   0  0  0  0  0  0  0  0  0  0  0  0
    0.5878   -1.6576    1.5905 C   0  0  0  0  0  0  0  0  0  0  0  0
    4.6645    0.3032    2.0659 H   0  0  0  0  0  0  0  0  0  0  0  0
    3.9774    0.7455    0.4745 H   0  0  0  0  0  0  0  0  0  0  0  0
    3.1726    1.2745    1.9465 H   0  0  0  0  0  0  0  0  0  0  0  0
    1.8091    0.3305   -1.0176 H   0  0  0  0  0  0  0  0  0  0  0  0
    0.1722    0.2221   -0.3428 H   0  0  0  0  0  0  0  0  0  0  0  0
    1.3705    1.2402    0.4355 H   0  0  0  0  0  0  0  0  0  0  0  0
    2.0021   -3.1139    0.4405 H   0  0  0  0  0  0  0  0  0  0  0  0
   -0.3147   -1.8832   -1.1272 H   0  0  0  0  0  0  0  0  0  0  0  0
   -0.5625   -3.3866   -0.1814 H   0  0  0  0  0  0  0  0  0  0  0  0
    0.6443   -1.7907    2.6635 H   0  0  0  0  0  0  0  0  0  0  0  0
  1  2  1  0
  2  3  2  0
  2  4  1  0
  4  5  1  0
  4  6  1  0
  6  7  1  0
  7  8  1  0
  8  9  1  0
  9  4  1  0
  9  6  1  0
  1 10  1  0
  1 11  1  0
  1 12  1  0
  5 13  1  0
  5 14  1  0
  5 15  1  0
  6 16  1  0
  7 17  1  0
  7 18  1  0
  9 19  1  0
M  END
$$$$
