gdb 3402	3.1435944	1.3974456	1.1592131	0.887	74.28	-0.23101	0.08077	0.31178	1093.3872	0.15859	-422.524024	-422.516333	-422.515389	-422.555764	30.784
 OpenBabel02181911413D

 19 21  0  0  1  0  0  0  0  0999 V2000
    0.3985   -0.0988    0.3549 O   0  0  0  0  0  0  0  0  0  0  0  0
   -0.7419    0.6577    0.6439 C   0  0  2  0  0  0  0  0  0  0  0  0
   -2.1032    0.0593    0.3955 C   0  0  1  0  0  0  0  0  0  0  0  0
   -3.2964    0.4146    1.2633 C   0  0  0  0  0  0  0  0  0  0  0  0
   -3.3304    1.7792    1.6432 O   0  0  0  0  0  0  0  0  0  0  0  0
   -3.1569    2.7150    0.6131 C   0  0  2  0  0  0  0  0  0  0  0  0
   -3.6908    2.5532   -0.7842 C   0  0  0  0  0  0  0  0  0  0  0  0
   -2.1889    2.4670   -0.5100 C   0  0  2  0  0  0  0  0  0  0  0  0
   -1.5452    1.1172   -0.5425 C   0  0  1  0  0  0  0  0  0  0  0  0
    0.5176   -0.7396    1.0637 H   0  0  0  0  0  0  0  0  0  0  0  0
   -0.6455    1.3568    1.4744 H   0  0  0  0  0  0  0  0  0  0  0  0
   -2.1028   -0.9607    0.0211 H   0  0  0  0  0  0  0  0  0  0  0  0
   -4.2271    0.1390    0.7418 H   0  0  0  0  0  0  0  0  0  0  0  0
   -3.2757   -0.1435    2.2059 H   0  0  0  0  0  0  0  0  0  0  0  0
   -3.1974    3.7077    1.0478 H   0  0  0  0  0  0  0  0  0  0  0  0
   -4.1885    1.6309   -1.0597 H   0  0  0  0  0  0  0  0  0  0  0  0
   -4.0860    3.4360   -1.2749 H   0  0  0  0  0  0  0  0  0  0  0  0
   -1.5686    3.2985   -0.8332 H   0  0  0  0  0  0  0  0  0  0  0  0
   -1.1843    0.7657   -1.5050 H   0  0  0  0  0  0  0  0  0  0  0  0
  1  2  1  0  0  0  0
  1 10  1  0  0  0  0
  2 11  1  1  0  0  0
  3 12  1  6  0  0  0
  3  2  1  0  0  0  0
  3  4  1  0  0  0  0
  4  5  1  0  0  0  0
  4 14  1  0  0  0  0
  6 15  1  1  0  0  0
  6  5  1  0  0  0  0
  7  8  1  0  0  0  0
  7  6  1  0  0  0  0
  8 18  1  6  0  0  0
  8  6  1  0  0  0  0
  9 19  1  6  0  0  0
  9  8  1  0  0  0  0
  9  3  1  0  0  0  0
  9  2  1  0  0  0  0
 13  4  1  0  0  0  0
 16  7  1  0  0  0  0
 17  7  1  0  0  0  0
M TOR 0 0 1 2 3
M TOR 1 0 1 2 8
M TOR 2 0 1 2 11
M TOR 3 0 1 8 7
M TOR 4 0 1 8 18
M TOR 5 1 2 3 4
M TOR 6 1 2 3 12
M TOR 7 1 2 3 13
M TOR 8 1 2 8 7
M TOR 9 1 2 8 18
M TOR 10 1 8 2 3
M TOR 11 1 8 2 11
M TOR 12 1 8 7 5
M TOR 13 1 8 7 6
M TOR 14 1 8 7 17
M TOR 15 2 1 0 9
M TOR 16 2 3 4 5
M TOR 17 2 8 1 10
M TOR 18 2 8 7 5
M TOR 19 2 8 7 6
M TOR 20 2 8 7 17
M TOR 21 3 2 1 10
M TOR 22 3 2 8 7
M TOR 23 3 2 8 18
M TOR 24 3 4 5 6
M TOR 25 3 4 5 7
M TOR 26 3 4 5 14
M TOR 27 4 3 2 8
M TOR 28 4 3 2 11
M TOR 29 4 5 6 7
M TOR 30 4 5 6 15
M TOR 31 4 5 6 16
M TOR 32 4 5 7 8
M TOR 33 4 5 7 17
M TOR 34 5 4 3 12
M TOR 35 5 4 3 13
M TOR 36 5 6 7 8
M TOR 37 5 6 7 17
M TOR 38 5 7 6 15
M TOR 39 5 7 6 16
M TOR 40 5 7 8 18
M TOR 41 6 7 5 14
M TOR 42 6 7 8 18
M TOR 43 7 8 1 10
M TOR 44 7 8 2 11
M TOR 45 8 1 0 9
M TOR 46 8 2 3 12
M TOR 47 8 2 3 13
M TOR 48 8 7 5 14
M TOR 49 8 7 6 15
M TOR 50 8 7 6 16
M  END
$$$$
