gdb 3090	2.5753588	2.0051057	1.6338684	2.5711	73.04	-0.24734	0.06998	0.31732	904.9192	0.160874	-422.530412	-422.523855	-422.522911	-422.56088	27.844
 OpenBabel02181911413D

 19 21  0  0  1  0  0  0  0  0999 V2000
   -0.5423    0.7935    0.3061 O   0  0  0  0  0  0  0  0  0  0  0  0
   -1.8371    0.2723    0.3501 C   0  0  1  0  0  0  0  0  0  0  0  0
   -2.9274    0.5097   -0.7604 C   0  0  2  0  0  0  0  0  0  0  0  0
   -3.6057   -0.7569   -0.1377 C   0  0  0  0  0  0  0  0  0  0  0  0
   -2.1257   -1.2277    0.0605 C   0  0  1  0  0  0  0  0  0  0  0  0
   -1.7158   -1.3881   -1.4126 C   0  0  2  0  0  0  0  0  0  0  0  0
   -0.3823   -0.9143   -1.7872 O   0  0  0  0  0  0  0  0  0  0  0  0
   -0.9504    0.1979   -2.5426 C   0  0  0  0  0  0  0  0  0  0  0  0
   -2.3687   -0.1292   -2.0448 C   0  0  2  0  0  0  0  0  0  0  0  0
   -0.0399    0.2273   -0.2980 H   0  0  0  0  0  0  0  0  0  0  0  0
   -2.2625    0.5590    1.3164 H   0  0  0  0  0  0  0  0  0  0  0  0
   -3.4501    1.4619   -0.8479 H   0  0  0  0  0  0  0  0  0  0  0  0
   -4.1159   -0.5644    0.8074 H   0  0  0  0  0  0  0  0  0  0  0  0
   -4.2424   -1.3545   -0.7945 H   0  0  0  0  0  0  0  0  0  0  0  0
   -1.8482   -2.0155    0.7605 H   0  0  0  0  0  0  0  0  0  0  0  0
   -1.9102   -2.3784   -1.8334 H   0  0  0  0  0  0  0  0  0  0  0  0
   -0.5170    1.1569   -2.2468 H   0  0  0  0  0  0  0  0  0  0  0  0
   -0.8087    0.0415   -3.6179 H   0  0  0  0  0  0  0  0  0  0  0  0
   -3.1292   -0.2610   -2.8155 H   0  0  0  0  0  0  0  0  0  0  0  0
  1  2  1  0  0  0  0
  2 11  1  1  0  0  0
  3 12  1  6  0  0  0
  3  4  1  0  0  0  0
  3  2  1  0  0  0  0
  4  5  1  0  0  0  0
  4 13  1  0  0  0  0
  5  2  1  0  0  0  0
  5 15  1  1  0  0  0
  6 16  1  6  0  0  0
  6  5  1  0  0  0  0
  7  6  1  0  0  0  0
  8 17  1  0  0  0  0
  8  9  1  0  0  0  0
  8  7  1  0  0  0  0
  9 19  1  6  0  0  0
  9  6  1  0  0  0  0
  9  3  1  0  0  0  0
 10  1  1  0  0  0  0
 14  4  1  0  0  0  0
 18  8  1  0  0  0  0
M TOR 0 0 1 2 3
M TOR 1 0 1 2 8
M TOR 2 0 1 2 11
M TOR 3 0 1 4 3
M TOR 4 0 1 4 5
M TOR 5 0 1 4 14
M TOR 6 1 2 3 4
M TOR 7 1 2 3 12
M TOR 8 1 2 3 13
M TOR 9 1 2 8 5
M TOR 10 1 2 8 7
M TOR 11 1 2 8 18
M TOR 12 1 4 3 12
M TOR 13 1 4 3 13
M TOR 14 1 4 5 6
M TOR 15 1 4 5 8
M TOR 16 1 4 5 15
M TOR 17 2 1 0 9
M TOR 18 2 1 4 5
M TOR 19 2 1 4 14
M TOR 20 2 3 4 5
M TOR 21 2 3 4 14
M TOR 22 2 8 5 4
M TOR 23 2 8 5 6
M TOR 24 2 8 5 15
M TOR 25 2 8 7 6
M TOR 26 2 8 7 16
M TOR 27 2 8 7 17
M TOR 28 3 2 1 10
M TOR 29 3 2 8 5
M TOR 30 3 2 8 7
M TOR 31 3 2 8 18
M TOR 32 3 4 1 10
M TOR 33 3 4 5 6
M TOR 34 3 4 5 8
M TOR 35 3 4 5 15
M TOR 36 4 1 0 9
M TOR 37 4 1 2 8
M TOR 38 4 1 2 11
M TOR 39 4 3 2 8
M TOR 40 4 3 2 11
M TOR 41 4 5 6 7
M TOR 42 4 5 8 7
M TOR 43 4 5 8 18
M TOR 44 5 4 1 10
M TOR 45 5 4 3 12
M TOR 46 5 4 3 13
M TOR 47 5 6 7 8
M TOR 48 5 6 7 16
M TOR 49 5 6 7 17
M TOR 50 5 8 2 11
M TOR 51 5 8 7 16
M TOR 52 5 8 7 17
M TOR 53 6 5 4 14
M TOR 54 6 5 8 18
M TOR 55 6 7 8 18
M TOR 56 7 6 5 15
M TOR 57 7 8 2 11
M TOR 58 7 8 5 15
M TOR 59 8 2 1 10
M TOR 60 8 2 3 12
M TOR 61 8 2 3 13
M TOR 62 8 5 4 14
M  END
$$$$
