gdb 1632	3.5744903	1.2421189	1.1055374	1.8535	75.56	-0.2404	0.08143	0.32183	1148.3948	0.155908	-422.464388	-422.456288	-422.455344	-422.497366	31.188
 OpenBabel02181911403D

 19 21  0  0  1  0  0  0  0  0999 V2000
   -0.5502    2.7581   -0.1295 C   0  0  0  0  0  0  0  0  0  0  0  0
   -0.6984    1.4044   -0.7867 C   0  0  2  0  0  0  0  0  0  0  0  0
   -1.6056    1.2710   -1.9415 C   0  0  0  0  0  0  0  0  0  0  0  0
   -2.0160    0.8269   -0.6500 O   0  0  0  0  0  0  0  0  0  0  0  0
    0.3868    0.3595   -0.6607 C   0  0  1  0  0  0  0  0  0  0  0  0
    1.8747    0.6644   -0.9989 C   0  0  2  0  0  0  0  0  0  0  0  0
    2.2980   -0.5854   -0.1907 C   0  0  0  0  0  0  0  0  0  0  0  0
    1.2592    0.2237    0.6214 C   0  0  1  0  0  0  0  0  0  0  0  0
    1.9885    1.4618    0.2462 O   0  0  0  0  0  0  0  0  0  0  0  0
   -0.3997    2.6555    0.9483 H   0  0  0  0  0  0  0  0  0  0  0  0
    0.3096    3.3016   -0.5258 H   0  0  0  0  0  0  0  0  0  0  0  0
   -1.4594    3.3421   -0.2970 H   0  0  0  0  0  0  0  0  0  0  0  0
   -2.1189    2.1543   -2.3203 H   0  0  0  0  0  0  0  0  0  0  0  0
   -1.4415    0.4841   -2.6780 H   0  0  0  0  0  0  0  0  0  0  0  0
    0.0100   -0.5881   -1.0561 H   0  0  0  0  0  0  0  0  0  0  0  0
    2.3087    1.0860   -1.9062 H   0  0  0  0  0  0  0  0  0  0  0  0
    2.0162   -1.5723   -0.5652 H   0  0  0  0  0  0  0  0  0  0  0  0
    3.3128   -0.5451    0.2050 H   0  0  0  0  0  0  0  0  0  0  0  0
    0.9530    0.1161    1.6619 H   0  0  0  0  0  0  0  0  0  0  0  0
  1 10  1  0  0  0  0
  2  5  1  0  0  0  0
  2  4  1  0  0  0  0
  2  1  1  1  0  0  0
  3  2  1  0  0  0  0
  3  4  1  0  0  0  0
  5 15  1  6  0  0  0
  5  8  1  0  0  0  0
  6 16  1  6  0  0  0
  6  5  1  0  0  0  0
  6  7  1  0  0  0  0
  6  9  1  0  0  0  0
  7 18  1  0  0  0  0
  7  8  1  0  0  0  0
  8 19  1  1  0  0  0
  9  8  1  0  0  0  0
 11  1  1  0  0  0  0
 12  1  1  0  0  0  0
 13  3  1  0  0  0  0
 14  3  1  0  0  0  0
 17  7  1  0  0  0  0
M TOR 0 0 1 2 3
M TOR 1 0 1 2 12
M TOR 2 0 1 2 13
M TOR 3 0 1 4 5
M TOR 4 0 1 4 7
M TOR 5 0 1 4 14
M TOR 6 1 3 2 12
M TOR 7 1 3 2 13
M TOR 8 1 4 5 6
M TOR 9 1 4 5 8
M TOR 10 1 4 5 15
M TOR 11 1 4 7 6
M TOR 12 1 4 7 8
M TOR 13 1 4 7 18
M TOR 14 2 1 0 9
M TOR 15 2 1 0 10
M TOR 16 2 1 0 11
M TOR 17 2 1 4 5
M TOR 18 2 1 4 7
M TOR 19 2 1 4 14
M TOR 20 2 3 1 4
M TOR 21 3 1 0 9
M TOR 22 3 1 0 10
M TOR 23 3 1 0 11
M TOR 24 3 1 4 5
M TOR 25 3 1 4 7
M TOR 26 3 1 4 14
M TOR 27 4 1 0 9
M TOR 28 4 1 0 10
M TOR 29 4 1 0 11
M TOR 30 4 1 2 12
M TOR 31 4 1 2 13
M TOR 32 4 5 6 7
M TOR 33 4 5 6 16
M TOR 34 4 5 6 17
M TOR 35 4 5 8 7
M TOR 36 4 7 6 16
M TOR 37 4 7 6 17
M TOR 38 5 4 7 18
M TOR 39 5 6 7 8
M TOR 40 5 6 7 18
M TOR 41 5 8 7 18
M TOR 42 6 5 4 14
M TOR 43 6 7 4 14
M TOR 44 7 4 5 15
M TOR 45 7 6 5 15
M TOR 46 7 8 5 15
M TOR 47 8 5 4 14
M TOR 48 8 5 6 16
M TOR 49 8 5 6 17
M TOR 50 8 7 4 14
M TOR 51 8 7 6 16
M TOR 52 8 7 6 17
M  END
$$$$
