
     RDKit          3D

 19 18  0  0  0  0  0  0  0  0999 V2000
   -1.6864    3.0893    2.7540 C   0  0  0  0  0  0  0  0  0  0  0  0
   -0.6650    2.5342    1.7660 C   0  0  0  0  0  0  0  0  0  0  0  0
   -1.2845    1.6614    0.6947 C   0  0  0  0  0  0  0  0  0  0  0  0
   -2.4684    1.4254    0.6267 O   0  0  0  0  0  0  0  0  0  0  0  0
   -0.3518    1.0500   -0.3539 C   0  0  0  0  0  0  0  0  0  0  0  0
    0.9868    1.4232   -0.1279 O   0  0  0  0  0  0  0  0  0  0  0  0
    1.8749    0.8725   -1.0842 C   0  0  0  0  0  0  0  0  0  0  0  0
    3.2387    1.2939   -0.7966 C   0  0  0  0  0  0  0  0  0  0  0  0
    4.3723    1.6261   -0.5823 C   0  0  0  0  0  0  0  0  0  0  0  0
   -2.2169    2.2813    3.2646 H   0  0  0  0  0  0  0  0  0  0  0  0
   -1.1946    3.7110    3.5071 H   0  0  0  0  0  0  0  0  0  0  0  0
   -2.4380    3.6955    2.2417 H   0  0  0  0  0  0  0  0  0  0  0  0
   -0.1048    3.3313    1.2598 H   0  0  0  0  0  0  0  0  0  0  0  0
    0.1130    1.9420    2.2655 H   0  0  0  0  0  0  0  0  0  0  0  0
   -0.4790   -0.0447   -0.3186 H   0  0  0  0  0  0  0  0  0  0  0  0
   -0.7021    1.3785   -1.3466 H   0  0  0  0  0  0  0  0  0  0  0  0
    1.8141   -0.2290   -1.0735 H   0  0  0  0  0  0  0  0  0  0  0  0
    1.5909    1.1944   -2.1005 H   0  0  0  0  0  0  0  0  0  0  0  0
    5.3734    1.9226   -0.3878 H   0  0  0  0  0  0  0  0  0  0  0  0
  1  2  1  0
  2  3  1  0
  3  4  2  0
  3  5  1  0
  5  6  1  0
  6  7  1  0
  7  8  1  0
  8  9  3  0
  1 10  1  0
  1 11  1  0
  1 12  1  0
  2 13  1  0
  2 14  1  0
  5 15  1  0
  5 16  1  0
  7 17  1  0
  7 18  1  0
  9 19  1  0
M  END
$$$$
