
     RDKit          3D

 19 20  0  0  0  0  0  0  0  0999 V2000
   -2.1910    2.4475   -1.8881 C   0  0  0  0  0  0  0  0  0  0  0  0
   -1.0174    2.2350   -0.9559 C   0  0  0  0  0  0  0  0  0  0  0  0
   -0.9983    3.1850    0.1350 O   0  0  0  0  0  0  0  0  0  0  0  0
   -0.9393    2.1318    1.1099 C   0  0  0  0  0  0  0  0  0  0  0  0
   -1.0450    1.0319    0.0301 C   0  0  0  0  0  0  0  0  0  0  0  0
   -2.1320   -0.0793    0.0578 C   0  0  0  0  0  0  0  0  0  0  0  0
   -1.0317   -1.1872    0.0321 C   0  0  0  0  0  0  0  0  0  0  0  0
    0.0180   -0.0678   -0.0548 C   0  0  0  0  0  0  0  0  0  0  0  0
    1.2100   -0.0391   -0.1675 O   0  0  0  0  0  0  0  0  0  0  0  0
   -3.1423    2.3782   -1.3526 H   0  0  0  0  0  0  0  0  0  0  0  0
   -2.1239    3.4432   -2.3376 H   0  0  0  0  0  0  0  0  0  0  0  0
   -2.1852    1.7091   -2.6973 H   0  0  0  0  0  0  0  0  0  0  0  0
   -0.0693    2.2737   -1.5101 H   0  0  0  0  0  0  0  0  0  0  0  0
    0.0071    2.1342    1.6653 H   0  0  0  0  0  0  0  0  0  0  0  0
   -1.7791    2.1699    1.8153 H   0  0  0  0  0  0  0  0  0  0  0  0
   -2.7543   -0.0740    0.9553 H   0  0  0  0  0  0  0  0  0  0  0  0
   -2.7862   -0.0846   -0.8162 H   0  0  0  0  0  0  0  0  0  0  0  0
   -0.9477   -1.7905    0.9410 H   0  0  0  0  0  0  0  0  0  0  0  0
   -1.0400   -1.8645   -0.8266 H   0  0  0  0  0  0  0  0  0  0  0  0
  1  2  1  0
  2  3  1  0
  3  4  1  0
  4  5  1  0
  5  6  1  0
  6  7  1  0
  7  8  1  0
  8  9  2  0
  5  2  1  0
  8  5  1  0
  1 10  1  0
  1 11  1  0
  1 12  1  0
  2 13  1  0
  4 14  1  0
  4 15  1  0
  6 16  1  0
  6 17  1  0
  7 18  1  0
  7 19  1  0
M  END
$$$$
