
     RDKit          3D

 19 21  0  0  0  0  0  0  0  0999 V2000
    0.6013    0.1895    0.5408 O   0  0  0  0  0  0  0  0  0  0  0  0
   -0.7372    0.5687    0.7644 C   0  0  0  0  0  0  0  0  0  0  0  0
   -1.3213    0.4316    2.2029 C   0  0  0  0  0  0  0  0  0  0  0  0
   -1.7232    1.9193    2.2050 C   0  0  0  0  0  0  0  0  0  0  0  0
   -3.0539    2.1191    2.5721 O   0  0  0  0  0  0  0  0  0  0  0  0
   -0.6468    2.8448    2.7441 C   0  0  0  0  0  0  0  0  0  0  0  0
   -0.6643    4.1587    2.0067 C   0  0  0  0  0  0  0  0  0  0  0  0
   -0.0298    2.9746    1.3391 C   0  0  0  0  0  0  0  0  0  0  0  0
   -1.0953    2.0809    0.7293 C   0  0  0  0  0  0  0  0  0  0  0  0
    1.1434    0.6092    1.2170 H   0  0  0  0  0  0  0  0  0  0  0  0
   -1.3213    0.0038    0.0342 H   0  0  0  0  0  0  0  0  0  0  0  0
   -2.1916   -0.2256    2.2556 H   0  0  0  0  0  0  0  0  0  0  0  0
   -0.6088    0.1315    2.9779 H   0  0  0  0  0  0  0  0  0  0  0  0
   -3.2115    3.0678    2.6291 H   0  0  0  0  0  0  0  0  0  0  0  0
   -0.1485    2.7344    3.7019 H   0  0  0  0  0  0  0  0  0  0  0  0
   -1.5913    4.5731    1.6139 H   0  0  0  0  0  0  0  0  0  0  0  0
    0.0211    4.9081    2.3888 H   0  0  0  0  0  0  0  0  0  0  0  0
    1.0212    2.9731    1.0744 H   0  0  0  0  0  0  0  0  0  0  0  0
   -1.6362    2.4525   -0.1440 H   0  0  0  0  0  0  0  0  0  0  0  0
  1  2  1  0
  2  3  1  0
  3  4  1  0
  4  5  1  0
  4  6  1  0
  6  7  1  0
  7  8  1  0
  8  9  1  0
  9  2  1  0
  9  4  1  0
  8  6  1  0
  1 10  1  0
  2 11  1  0
  3 12  1  0
  3 13  1  0
  5 14  1  0
  6 15  1  0
  7 16  1  0
  7 17  1  0
  8 18  1  0
  9 19  1  0
M  END
$$$$
