
     RDKit          3D

 19 21  0  0  0  0  0  0  0  0999 V2000
    0.1403    0.0671   -0.5946 C   0  0  0  0  0  0  0  0  0  0  0  0
    1.2013    0.0655    0.4986 C   0  0  0  0  0  0  0  0  0  0  0  0
    1.7047    1.4062    0.7217 O   0  0  0  0  0  0  0  0  0  0  0  0
    3.0504    1.4026    0.3222 C   0  0  0  0  0  0  0  0  0  0  0  0
    4.0432    0.5310    1.1759 C   0  0  0  0  0  0  0  0  0  0  0  0
    4.7562    0.1731   -0.1460 C   0  0  0  0  0  0  0  0  0  0  0  0
    3.3120    0.2552   -0.6962 C   0  0  0  0  0  0  0  0  0  0  0  0
    2.4893   -0.7116    0.1976 C   0  0  0  0  0  0  0  0  0  0  0  0
    3.2564   -0.6461    1.4260 O   0  0  0  0  0  0  0  0  0  0  0  0
   -0.2957   -0.9312   -0.7096 H   0  0  0  0  0  0  0  0  0  0  0  0
   -0.6616    0.7628   -0.3330 H   0  0  0  0  0  0  0  0  0  0  0  0
    0.5556    0.3777   -1.5581 H   0  0  0  0  0  0  0  0  0  0  0  0
    0.7782   -0.2969    1.4418 H   0  0  0  0  0  0  0  0  0  0  0  0
    3.3845    2.4078    0.0688 H   0  0  0  0  0  0  0  0  0  0  0  0
    4.5418    0.8544    2.0877 H   0  0  0  0  0  0  0  0  0  0  0  0
    5.3893    0.9725   -0.5382 H   0  0  0  0  0  0  0  0  0  0  0  0
    5.2754   -0.7861   -0.1700 H   0  0  0  0  0  0  0  0  0  0  0  0
    3.0633    0.3187   -1.7535 H   0  0  0  0  0  0  0  0  0  0  0  0
    2.3643   -1.7464   -0.1236 H   0  0  0  0  0  0  0  0  0  0  0  0
  1  2  1  0
  2  3  1  0
  3  4  1  0
  4  5  1  0
  5  6  1  0
  6  7  1  0
  7  8  1  0
  8  9  1  0
  8  2  1  0
  7  4  1  0
  9  5  1  0
  1 10  1  0
  1 11  1  0
  1 12  1  0
  2 13  1  0
  4 14  1  0
  5 15  1  0
  6 16  1  0
  6 17  1  0
  7 18  1  0
  8 19  1  0
M  END
$$$$
