gdb 3185	2.1925624	1.6733095	1.2982127	3.6906	74.46	-0.2396	-0.01463	0.22497	1067.865	0.157509	-422.574663	-422.566268	-422.565323	-422.607913	31.421
 OpenBabel02181911413D

 19 20  0  0  1  0  0  0  0  0999 V2000
   -0.4530   -1.8093   -1.4223 C   0  0  0  0  0  0  0  0  0  0  0  0
   -0.7198   -1.4364    0.0501 C   0  0  2  0  0  0  0  0  0  0  0  0
   -2.2027   -1.3054    0.3297 C   0  0  1  0  0  0  0  0  0  0  0  0
   -2.5431   -0.8639    1.6447 O   0  0  0  0  0  0  0  0  0  0  0  0
   -2.8464    0.0046    0.5451 C   0  0  1  0  0  0  0  0  0  0  0  0
   -2.0686    1.3062    0.5074 C   0  0  0  0  0  0  0  0  0  0  0  0
   -0.6225    1.1468   -0.0084 C   0  0  0  0  0  0  0  0  0  0  0  0
    0.0368   -0.1560    0.4203 C   0  0  0  0  0  0  0  0  0  0  0  0
    1.1163   -0.1944    0.9598 O   0  0  0  0  0  0  0  0  0  0  0  0
   -0.9367   -2.7600   -1.6678 H   0  0  0  0  0  0  0  0  0  0  0  0
   -0.8410   -1.0518   -2.1110 H   0  0  0  0  0  0  0  0  0  0  0  0
    0.6197   -1.9195   -1.6010 H   0  0  0  0  0  0  0  0  0  0  0  0
   -0.3126   -2.2285    0.6882 H   0  0  0  0  0  0  0  0  0  0  0  0
   -2.8172   -2.1298   -0.0383 H   0  0  0  0  0  0  0  0  0  0  0  0
   -3.9144    0.0853    0.3402 H   0  0  0  0  0  0  0  0  0  0  0  0
   -2.6004    2.0297   -0.1190 H   0  0  0  0  0  0  0  0  0  0  0  0
   -2.0616    1.7165    1.5232 H   0  0  0  0  0  0  0  0  0  0  0  0
   -0.6397    1.1449   -1.1067 H   0  0  0  0  0  0  0  0  0  0  0  0
    0.0125    1.9762    0.3087 H   0  0  0  0  0  0  0  0  0  0  0  0
  1  2  1  0  0  0  0
  2  3  1  0  0  0  0
  2  8  1  0  0  0  0
  2 13  1  1  0  0  0
  3 14  1  6  0  0  0
  3  5  1  0  0  0  0
  3  4  1  0  0  0  0
  5 15  1  6  0  0  0
  5  4  1  0  0  0  0
  6  5  1  0  0  0  0
  6 17  1  0  0  0  0
  7 19  1  0  0  0  0
  7  8  1  0  0  0  0
  7  6  1  0  0  0  0
  8  9  2  0  0  0  0
 10  1  1  0  0  0  0
 11  1  1  0  0  0  0
 12  1  1  0  0  0  0
 16  6  1  0  0  0  0
 18  7  1  0  0  0  0
M TOR 0 0 1 2 3
M TOR 1 0 1 2 4
M TOR 2 0 1 2 13
M TOR 3 0 1 7 6
M TOR 4 0 1 7 8
M TOR 5 1 2 3 4
M TOR 6 1 2 4 5
M TOR 7 1 2 4 14
M TOR 8 1 7 6 5
M TOR 9 1 7 6 17
M TOR 10 1 7 6 18
M TOR 11 2 1 0 9
M TOR 12 2 1 0 10
M TOR 13 2 1 0 11
M TOR 14 2 1 7 6
M TOR 15 2 1 7 8
M TOR 16 2 3 4 5
M TOR 17 2 3 4 14
M TOR 18 2 4 5 6
M TOR 19 2 4 5 15
M TOR 20 2 4 5 16
M TOR 21 3 2 1 7
M TOR 22 3 2 1 12
M TOR 23 3 4 2 13
M TOR 24 3 4 5 6
M TOR 25 3 4 5 15
M TOR 26 3 4 5 16
M TOR 27 4 2 1 7
M TOR 28 4 2 1 12
M TOR 29 4 5 6 7
M TOR 30 4 5 6 17
M TOR 31 4 5 6 18
M TOR 32 5 4 2 13
M TOR 33 5 6 7 8
M TOR 34 6 5 4 14
M TOR 35 6 7 1 12
M TOR 36 7 1 0 9
M TOR 37 7 1 0 10
M TOR 38 7 1 0 11
M TOR 39 7 1 2 13
M TOR 40 7 6 5 15
M TOR 41 7 6 5 16
M TOR 42 8 7 1 12
M TOR 43 8 7 6 17
M TOR 44 8 7 6 18
M  END
$$$$
