gdb 973	3.4237606	0.6470245	0.5711664	3.0207	79.37	-0.25372	-0.02797	0.22575	1868.1552	0.154156	-422.563698	-422.553854	-422.55291	-422.600291	33.815
 OpenBabel02181911403D

 19 19  0  0  1  0  0  0  0  0999 V2000
    0.5222   -1.0143    0.1058 O   0  0  0  0  0  0  0  0  0  0  0  0
    0.5500    0.1691   -0.1096 C   0  0  0  0  0  0  0  0  0  0  0  0
   -0.1859    0.8665   -1.2311 C   0  0  0  0  0  0  0  0  0  0  0  0
   -1.1364    1.9557   -0.6988 C   0  0  0  0  0  0  0  0  0  0  0  0
   -1.7978    2.7462   -1.8079 C   0  0  1  0  0  0  0  0  0  0  0  0
   -2.2825    4.1379   -1.5942 C   0  0  0  0  0  0  0  0  0  0  0  0
   -1.0396    3.9072   -2.4477 C   0  0  2  0  0  0  0  0  0  0  0  0
   -1.1428    4.0944   -3.9105 C   0  0  0  0  0  0  0  0  0  0  0  0
   -0.2541    4.4895   -4.6230 O   0  0  0  0  0  0  0  0  0  0  0  0
    1.1434    0.8552    0.5412 H   0  0  0  0  0  0  0  0  0  0  0  0
    0.5644    1.3372   -1.8823 H   0  0  0  0  0  0  0  0  0  0  0  0
   -0.7240    0.1158   -1.8170 H   0  0  0  0  0  0  0  0  0  0  0  0
   -1.9100    1.4903   -0.0754 H   0  0  0  0  0  0  0  0  0  0  0  0
   -0.5827    2.6414   -0.0445 H   0  0  0  0  0  0  0  0  0  0  0  0
   -2.3815    2.1452   -2.5023 H   0  0  0  0  0  0  0  0  0  0  0  0
   -3.1871    4.4566   -2.1018 H   0  0  0  0  0  0  0  0  0  0  0  0
   -2.1202    4.6053   -0.6292 H   0  0  0  0  0  0  0  0  0  0  0  0
   -0.0781    4.1754   -2.0224 H   0  0  0  0  0  0  0  0  0  0  0  0
   -2.1446    3.8295   -4.3291 H   0  0  0  0  0  0  0  0  0  0  0  0
  2  1  2  0  0  0  0
  2 10  1  0  0  0  0
  3  4  1  0  0  0  0
  3  2  1  0  0  0  0
  4 13  1  0  0  0  0
  4 14  1  0  0  0  0
  5 15  1  6  0  0  0
  5  6  1  0  0  0  0
  5  4  1  0  0  0  0
  6 17  1  0  0  0  0
  7 18  1  1  0  0  0
  7  5  1  0  0  0  0
  7  6  1  0  0  0  0
  8  7  1  0  0  0  0
  9  8  2  0  0  0  0
 11  3  1  0  0  0  0
 12  3  1  0  0  0  0
 16  6  1  0  0  0  0
 19  8  1  0  0  0  0
M TOR 0 0 1 2 3
M TOR 1 0 1 2 10
M TOR 2 0 1 2 11
M TOR 3 1 2 3 4
M TOR 4 1 2 3 12
M TOR 5 1 2 3 13
M TOR 6 2 3 4 5
M TOR 7 2 3 4 6
M TOR 8 2 3 4 14
M TOR 9 3 2 1 9
M TOR 10 3 4 5 6
M TOR 11 3 4 5 15
M TOR 12 3 4 5 16
M TOR 13 3 4 6 7
M TOR 14 3 4 6 17
M TOR 15 4 3 2 10
M TOR 16 4 3 2 11
M TOR 17 4 5 6 7
M TOR 18 4 5 6 17
M TOR 19 4 6 5 15
M TOR 20 4 6 5 16
M TOR 21 4 6 7 8
M TOR 22 4 6 7 18
M TOR 23 5 4 3 12
M TOR 24 5 4 3 13
M TOR 25 5 6 4 14
M TOR 26 5 6 7 8
M TOR 27 5 6 7 18
M TOR 28 6 4 3 12
M TOR 29 6 4 3 13
M TOR 30 7 6 4 14
M TOR 31 7 6 5 15
M TOR 32 7 6 5 16
M TOR 33 8 7 6 17
M  END
$$$$
