
     RDKit          3D

 19 19  0  0  0  0  0  0  0  0999 V2000
   -2.1496    3.4485   -0.7395 C   0  0  0  0  0  0  0  0  0  0  0  0
   -0.8717    3.5977    0.0650 C   0  0  0  0  0  0  0  0  0  0  0  0
   -0.7852    4.3720    0.9886 O   0  0  0  0  0  0  0  0  0  0  0  0
    0.3151    2.7118   -0.3195 C   0  0  0  0  0  0  0  0  0  0  0  0
    0.5361    2.5592   -1.8321 C   0  0  0  0  0  0  0  0  0  0  0  0
    0.5652    3.8506   -2.4514 O   0  0  0  0  0  0  0  0  0  0  0  0
    1.7832    4.0372   -3.1705 C   0  0  0  0  0  0  0  0  0  0  0  0
    2.5636    2.7731   -2.9462 C   0  0  0  0  0  0  0  0  0  0  0  0
    1.8566    1.9349   -2.1983 C   0  0  0  0  0  0  0  0  0  0  0  0
   -2.9539    3.9999   -0.2514 H   0  0  0  0  0  0  0  0  0  0  0  0
   -1.9867    3.8519   -1.7448 H   0  0  0  0  0  0  0  0  0  0  0  0
   -2.4308    2.3955   -0.8523 H   0  0  0  0  0  0  0  0  0  0  0  0
    1.2041    3.1284    0.1609 H   0  0  0  0  0  0  0  0  0  0  0  0
    0.1382    1.7152    0.1105 H   0  0  0  0  0  0  0  0  0  0  0  0
   -0.3019    1.9840   -2.2599 H   0  0  0  0  0  0  0  0  0  0  0  0
    1.5662    4.2115   -4.2362 H   0  0  0  0  0  0  0  0  0  0  0  0
    2.3046    4.9308   -2.7953 H   0  0  0  0  0  0  0  0  0  0  0  0
    3.5518    2.6070   -3.3557 H   0  0  0  0  0  0  0  0  0  0  0  0
    2.1478    0.9447   -1.8720 H   0  0  0  0  0  0  0  0  0  0  0  0
  1  2  1  0
  2  3  2  0
  2  4  1  0
  4  5  1  0
  5  6  1  0
  6  7  1  0
  7  8  1  0
  8  9  2  0
  9  5  1  0
  1 10  1  0
  1 11  1  0
  1 12  1  0
  4 13  1  0
  4 14  1  0
  5 15  1  0
  7 16  1  0
  7 17  1  0
  8 18  1  0
  9 19  1  0
M  END
$$$$
