gdb 3725	2.7720074	1.5189917	1.1560478	2.2352	76.19	-0.2534	0.01422	0.26762	1105.4529	0.156489	-422.556281	-422.547777	-422.546833	-422.589021	32.806
 OpenBabel02181911413D

 19 20  0  0  1  0  0  0  0  0999 V2000
    0.2991    0.0099   -0.5792 C   0  0  0  0  0  0  0  0  0  0  0  0
    1.1459    0.3893    0.6086 C   0  0  2  0  0  0  0  0  0  0  0  0
    2.4859    0.8635    0.3465 O   0  0  0  0  0  0  0  0  0  0  0  0
    2.3127   -0.3769    1.0554 C   0  0  1  0  0  0  0  0  0  0  0  0
    2.8440   -0.4175    2.4864 C   0  0  0  0  0  0  0  0  0  0  0  0
    4.0064   -1.3778    2.3751 C   0  0  0  0  0  0  0  0  0  0  0  0
    4.0360   -2.0040    1.2003 C   0  0  0  0  0  0  0  0  0  0  0  0
    2.8818   -1.6037    0.3043 C   0  0  2  0  0  0  0  0  0  0  0  0
    3.2312   -1.3151   -1.0341 O   0  0  0  0  0  0  0  0  0  0  0  0
   -0.5734   -0.5649   -0.2495 H   0  0  0  0  0  0  0  0  0  0  0  0
   -0.0674    0.9081   -1.0870 H   0  0  0  0  0  0  0  0  0  0  0  0
    0.8719   -0.5884   -1.2901 H   0  0  0  0  0  0  0  0  0  0  0  0
    0.6363    0.9894    1.3655 H   0  0  0  0  0  0  0  0  0  0  0  0
    3.1316    0.5850    2.8216 H   0  0  0  0  0  0  0  0  0  0  0  0
    2.0828   -0.7850    3.1883 H   0  0  0  0  0  0  0  0  0  0  0  0
    4.7075   -1.5323    3.1878 H   0  0  0  0  0  0  0  0  0  0  0  0
    4.7607   -2.7454    0.8856 H   0  0  0  0  0  0  0  0  0  0  0  0
    2.1366   -2.4118    0.2636 H   0  0  0  0  0  0  0  0  0  0  0  0
    3.3888   -0.3602   -1.0590 H   0  0  0  0  0  0  0  0  0  0  0  0
  1 10  1  0  0  0  0
  1  2  1  0  0  0  0
  2  4  1  0  0  0  0
  2 13  1  1  0  0  0
  3  2  1  0  0  0  0
  4  3  1  6  0  0  0
  4  5  1  0  0  0  0
  5 14  1  0  0  0  0
  5 15  1  0  0  0  0
  6  5  1  0  0  0  0
  6 16  1  0  0  0  0
  7  6  2  0  0  0  0
  8 18  1  1  0  0  0
  8  4  1  0  0  0  0
  8  7  1  0  0  0  0
  9  8  1  0  0  0  0
 11  1  1  0  0  0  0
 12  1  1  0  0  0  0
 17  7  1  0  0  0  0
 19  9  1  0  0  0  0
M TOR 0 0 1 2 3
M TOR 1 0 1 3 4
M TOR 2 0 1 3 7
M TOR 3 1 2 3 4
M TOR 4 1 2 3 7
M TOR 5 1 3 4 5
M TOR 6 1 3 4 13
M TOR 7 1 3 4 14
M TOR 8 1 3 7 6
M TOR 9 1 3 7 8
M TOR 10 1 3 7 17
M TOR 11 2 1 0 9
M TOR 12 2 1 0 10
M TOR 13 2 1 0 11
M TOR 14 2 3 1 12
M TOR 15 2 3 4 5
M TOR 16 2 3 4 13
M TOR 17 2 3 4 14
M TOR 18 2 3 7 6
M TOR 19 2 3 7 8
M TOR 20 2 3 7 17
M TOR 21 3 1 0 9
M TOR 22 3 1 0 10
M TOR 23 3 1 0 11
M TOR 24 3 4 5 6
M TOR 25 3 4 5 15
M TOR 26 3 7 6 5
M TOR 27 3 7 6 16
M TOR 28 3 7 8 18
M TOR 29 4 3 1 12
M TOR 30 4 3 7 6
M TOR 31 4 3 7 8
M TOR 32 4 3 7 17
M TOR 33 4 5 6 7
M TOR 34 4 5 6 16
M TOR 35 5 4 3 7
M TOR 36 5 6 7 8
M TOR 37 5 6 7 17
M TOR 38 6 5 4 13
M TOR 39 6 5 4 14
M TOR 40 6 7 8 18
M TOR 41 7 3 1 12
M TOR 42 7 3 4 13
M TOR 43 7 3 4 14
M TOR 44 7 6 5 15
M TOR 45 8 7 6 16
M  END
$$$$
