gdb 4316	2.2372784	1.6176129	1.2030917	1.342	76.99	-0.2334	-0.01976	0.21364	1110.1781	0.156592	-422.592197	-422.583221	-422.582277	-422.625831	33.456
 OpenBabel02181911413D

 19 19  0  0  1  0  0  0  0  0999 V2000
    0.0507    2.3964    0.3057 C   0  0  0  0  0  0  0  0  0  0  0  0
   -0.8285    1.1918   -0.0432 C   0  0  2  0  0  0  0  0  0  0  0  0
   -2.1272    1.1593    0.7379 C   0  0  0  0  0  0  0  0  0  0  0  0
   -2.6805    0.0543    1.2328 C   0  0  0  0  0  0  0  0  0  0  0  0
   -2.0871   -1.3220    1.0863 C   0  0  0  0  0  0  0  0  0  0  0  0
   -0.9802   -1.3738    0.0279 C   0  0  1  0  0  0  0  0  0  0  0  0
   -1.6186   -1.3909   -1.2494 O   0  0  0  0  0  0  0  0  0  0  0  0
   -0.0905   -0.1307    0.1434 C   0  0  0  0  0  0  0  0  0  0  0  0
    1.0952   -0.2100    0.3662 O   0  0  0  0  0  0  0  0  0  0  0  0
    0.3371    2.3775    1.3612 H   0  0  0  0  0  0  0  0  0  0  0  0
    0.9685    2.3912   -0.2861 H   0  0  0  0  0  0  0  0  0  0  0  0
   -0.4864    3.3298    0.1114 H   0  0  0  0  0  0  0  0  0  0  0  0
   -1.0909    1.2401   -1.1124 H   0  0  0  0  0  0  0  0  0  0  0  0
   -2.6124    2.1218    0.8838 H   0  0  0  0  0  0  0  0  0  0  0  0
   -3.6131    0.1243    1.7868 H   0  0  0  0  0  0  0  0  0  0  0  0
   -1.6824   -1.6621    2.0494 H   0  0  0  0  0  0  0  0  0  0  0  0
   -2.8570   -2.0496    0.8021 H   0  0  0  0  0  0  0  0  0  0  0  0
   -0.3493   -2.2603    0.1690 H   0  0  0  0  0  0  0  0  0  0  0  0
   -0.9389   -1.5324   -1.9169 H   0  0  0  0  0  0  0  0  0  0  0  0
  1 10  1  0  0  0  0
  2 13  1  6  0  0  0
  2  8  1  0  0  0  0
  2  1  1  0  0  0  0
  2  3  1  0  0  0  0
  3 14  1  0  0  0  0
  3  4  2  0  0  0  0
  4 15  1  0  0  0  0
  5  4  1  0  0  0  0
  5 16  1  0  0  0  0
  6  8  1  0  0  0  0
  6 18  1  1  0  0  0
  6  5  1  0  0  0  0
  7  6  1  0  0  0  0
  8  9  2  0  0  0  0
 11  1  1  0  0  0  0
 12  1  1  0  0  0  0
 17  5  1  0  0  0  0
 19  7  1  0  0  0  0
M TOR 0 0 1 2 3
M TOR 1 0 1 2 13
M TOR 2 0 1 7 5
M TOR 3 0 1 7 8
M TOR 4 1 2 3 4
M TOR 5 1 2 3 14
M TOR 6 1 7 5 4
M TOR 7 1 7 5 6
M TOR 8 1 7 5 17
M TOR 9 2 1 0 9
M TOR 10 2 1 0 10
M TOR 11 2 1 0 11
M TOR 12 2 1 7 5
M TOR 13 2 1 7 8
M TOR 14 2 3 4 5
M TOR 15 2 3 4 15
M TOR 16 2 3 4 16
M TOR 17 3 2 1 7
M TOR 18 3 2 1 12
M TOR 19 3 4 5 6
M TOR 20 3 4 5 7
M TOR 21 3 4 5 17
M TOR 22 4 3 2 13
M TOR 23 4 5 6 18
M TOR 24 4 5 7 8
M TOR 25 5 4 3 14
M TOR 26 5 7 1 12
M TOR 27 6 5 4 15
M TOR 28 6 5 4 16
M TOR 29 6 5 7 8
M TOR 30 7 1 0 9
M TOR 31 7 1 0 10
M TOR 32 7 1 0 11
M TOR 33 7 1 2 13
M TOR 34 7 5 4 15
M TOR 35 7 5 4 16
M TOR 36 7 5 6 18
M TOR 37 8 7 1 12
M TOR 38 8 7 5 17
M  END
$$$$
