gdb 2254	2.7186661	1.840048	1.618461	0.5623	73.01	-0.23426	0.07547	0.30973	921.8073	0.159269	-422.543008	-422.535984	-422.53504	-422.573781	29.401
 OpenBabel02181911413D

 19 21  0  0  1  0  0  0  0  0999 V2000
    0.2885    0.1501    0.5923 O   0  0  0  0  0  0  0  0  0  0  0  0
   -0.6760    1.1495    0.5573 C   0  0  2  0  0  0  0  0  0  0  0  0
   -2.0002    0.8281   -0.1310 C   0  0  0  0  0  0  0  0  0  0  0  0
   -2.6332    1.9519    0.7490 C   0  0  2  0  0  0  0  0  0  0  0  0
   -2.5390    3.3074    0.0327 C   0  0  0  0  0  0  0  0  0  0  0  0
   -1.1061    3.4518   -0.5420 C   0  0  0  0  0  0  0  0  0  0  0  0
   -0.1914    2.6435    0.3705 C   0  0  1  0  0  0  0  0  0  0  0  0
   -0.5469    2.9575    1.7546 O   0  0  0  0  0  0  0  0  0  0  0  0
   -1.4088    1.8102    1.7495 C   0  0  2  0  0  0  0  0  0  0  0  0
    1.0235    0.4514    1.1385 H   0  0  0  0  0  0  0  0  0  0  0  0
   -2.0738    0.9227   -1.2182 H   0  0  0  0  0  0  0  0  0  0  0  0
   -2.3345   -0.1697    0.1658 H   0  0  0  0  0  0  0  0  0  0  0  0
   -3.6235    1.7554    1.1609 H   0  0  0  0  0  0  0  0  0  0  0  0
   -3.2931    3.3813   -0.7570 H   0  0  0  0  0  0  0  0  0  0  0  0
   -2.7317    4.1114    0.7481 H   0  0  0  0  0  0  0  0  0  0  0  0
   -1.0376    3.0699   -1.5669 H   0  0  0  0  0  0  0  0  0  0  0  0
   -0.7941    4.5004   -0.5671 H   0  0  0  0  0  0  0  0  0  0  0  0
    0.8787    2.7793    0.1825 H   0  0  0  0  0  0  0  0  0  0  0  0
   -1.5902    1.3830    2.7374 H   0  0  0  0  0  0  0  0  0  0  0  0
  1 10  1  0  0  0  0
  2  1  1  1  0  0  0
  2  9  1  0  0  0  0
  3 12  1  0  0  0  0
  3  2  1  0  0  0  0
  3  4  1  0  0  0  0
  4 13  1  1  0  0  0
  4  9  1  0  0  0  0
  5 15  1  0  0  0  0
  5  4  1  0  0  0  0
  6  5  1  0  0  0  0
  6  7  1  0  0  0  0
  7 18  1  6  0  0  0
  7  2  1  0  0  0  0
  7  8  1  0  0  0  0
  9  8  1  0  0  0  0
  9 19  1  1  0  0  0
 11  3  1  0  0  0  0
 14  5  1  0  0  0  0
 16  6  1  0  0  0  0
 17  6  1  0  0  0  0
M TOR 0 0 1 2 3
M TOR 1 0 1 2 10
M TOR 2 0 1 2 11
M TOR 3 0 1 6 5
M TOR 4 0 1 6 7
M TOR 5 0 1 6 17
M TOR 6 0 1 8 3
M TOR 7 0 1 8 7
M TOR 8 0 1 8 18
M TOR 9 1 2 3 4
M TOR 10 1 2 3 8
M TOR 11 1 2 3 12
M TOR 12 1 6 5 4
M TOR 13 1 6 5 15
M TOR 14 1 6 5 16
M TOR 15 1 6 7 8
M TOR 16 1 8 3 4
M TOR 17 1 8 3 12
M TOR 18 2 1 0 9
M TOR 19 2 1 6 5
M TOR 20 2 1 6 7
M TOR 21 2 1 6 17
M TOR 22 2 1 8 7
M TOR 23 2 1 8 18
M TOR 24 2 3 4 5
M TOR 25 2 3 4 13
M TOR 26 2 3 4 14
M TOR 27 2 3 8 7
M TOR 28 2 3 8 18
M TOR 29 3 2 1 6
M TOR 30 3 4 5 6
M TOR 31 3 4 5 15
M TOR 32 3 4 5 16
M TOR 33 3 8 1 6
M TOR 34 3 8 7 6
M TOR 35 4 3 2 10
M TOR 36 4 3 2 11
M TOR 37 4 3 8 7
M TOR 38 4 3 8 18
M TOR 39 4 5 6 7
M TOR 40 4 5 6 17
M TOR 41 5 4 3 8
M TOR 42 5 4 3 12
M TOR 43 5 6 1 8
M TOR 44 5 6 7 8
M TOR 45 6 1 0 9
M TOR 46 6 1 2 10
M TOR 47 6 1 2 11
M TOR 48 6 1 8 18
M TOR 49 6 5 4 13
M TOR 50 6 5 4 14
M TOR 51 6 7 8 18
M TOR 52 7 6 5 15
M TOR 53 7 6 5 16
M TOR 54 7 8 3 12
M TOR 55 8 1 0 9
M TOR 56 8 1 2 10
M TOR 57 8 1 2 11
M TOR 58 8 1 6 17
M TOR 59 8 3 2 10
M TOR 60 8 3 2 11
M TOR 61 8 3 4 13
M TOR 62 8 3 4 14
M TOR 63 8 7 6 17
M  END
$$$$
