
     RDKit          3D

 19 21  0  0  0  0  0  0  0  0999 V2000
    1.4184   -0.1535   -0.0740 C   0  0  0  0  0  0  0  0  0  0  0  0
    0.0221    0.0421    0.0392 O   0  0  0  0  0  0  0  0  0  0  0  0
   -0.3802    0.7533    1.1514 C   0  0  0  0  0  0  0  0  0  0  0  0
   -0.0386    2.2427    1.2651 C   0  0  0  0  0  0  0  0  0  0  0  0
   -0.7829    2.5941    2.5855 C   0  0  0  0  0  0  0  0  0  0  0  0
   -1.3819    1.2344    2.9333 C   0  0  0  0  0  0  0  0  0  0  0  0
   -1.8380    0.5058    1.6378 C   0  0  0  0  0  0  0  0  0  0  0  0
   -1.4737   -0.7987    2.2050 O   0  0  0  0  0  0  0  0  0  0  0  0
   -0.3786    0.0996    2.5882 C   0  0  0  0  0  0  0  0  0  0  0  0
    1.8275   -0.6657    0.8081 H   0  0  0  0  0  0  0  0  0  0  0  0
    1.5787   -0.7825   -0.9521 H   0  0  0  0  0  0  0  0  0  0  0  0
    1.9607    0.7922   -0.2141 H   0  0  0  0  0  0  0  0  0  0  0  0
    1.0387    2.4193    1.3319 H   0  0  0  0  0  0  0  0  0  0  0  0
   -0.4108    2.7996    0.4001 H   0  0  0  0  0  0  0  0  0  0  0  0
   -0.1069    2.9565    3.3657 H   0  0  0  0  0  0  0  0  0  0  0  0
   -1.5533    3.3572    2.4409 H   0  0  0  0  0  0  0  0  0  0  0  0
   -1.9953    1.1075    3.8232 H   0  0  0  0  0  0  0  0  0  0  0  0
   -2.7706    0.5810    1.0775 H   0  0  0  0  0  0  0  0  0  0  0  0
    0.4382   -0.3114    3.1829 H   0  0  0  0  0  0  0  0  0  0  0  0
  1  2  1  0
  2  3  1  0
  3  4  1  0
  4  5  1  0
  5  6  1  0
  6  7  1  0
  7  8  1  0
  8  9  1  0
  7  3  1  0
  9  3  1  0
  9  6  1  0
  1 10  1  0
  1 11  1  0
  1 12  1  0
  4 13  1  0
  4 14  1  0
  5 15  1  0
  5 16  1  0
  6 17  1  0
  7 18  1  0
  9 19  1  0
M  END
$$$$
