
     RDKit          3D

 19 20  0  0  0  0  0  0  0  0999 V2000
    0.4720    0.5445    0.7705 O   0  0  0  0  0  0  0  0  0  0  0  0
   -0.8306    0.9805    0.4433 C   0  0  0  0  0  0  0  0  0  0  0  0
   -1.8572   -0.1261    0.1148 C   0  0  0  0  0  0  0  0  0  0  0  0
   -3.1396    0.7216    0.1568 C   0  0  0  0  0  0  0  0  0  0  0  0
   -3.1957    1.5197   -1.0369 O   0  0  0  0  0  0  0  0  0  0  0  0
   -2.1213    2.4482   -1.1677 C   0  0  0  0  0  0  0  0  0  0  0  0
   -0.7337    1.8705   -0.8105 C   0  0  0  0  0  0  0  0  0  0  0  0
   -2.8895    1.5715    1.4014 C   0  0  0  0  0  0  0  0  0  0  0  0
   -1.5742    1.7304    1.5516 C   0  0  0  0  0  0  0  0  0  0  0  0
    0.4007   -0.0698    1.5094 H   0  0  0  0  0  0  0  0  0  0  0  0
   -1.6984   -0.6003   -0.8564 H   0  0  0  0  0  0  0  0  0  0  0  0
   -1.8655   -0.8880    0.9018 H   0  0  0  0  0  0  0  0  0  0  0  0
   -4.0716    0.1540    0.1629 H   0  0  0  0  0  0  0  0  0  0  0  0
   -2.1448    2.7785   -2.2098 H   0  0  0  0  0  0  0  0  0  0  0  0
   -2.3114    3.3271   -0.5370 H   0  0  0  0  0  0  0  0  0  0  0  0
   -0.3352    1.2604   -1.6279 H   0  0  0  0  0  0  0  0  0  0  0  0
   -0.0329    2.6957   -0.6435 H   0  0  0  0  0  0  0  0  0  0  0  0
   -3.6745    2.0448    1.9788 H   0  0  0  0  0  0  0  0  0  0  0  0
   -1.0610    2.3499    2.2787 H   0  0  0  0  0  0  0  0  0  0  0  0
  1  2  1  0
  2  3  1  0
  3  4  1  0
  4  5  1  0
  5  6  1  0
  6  7  1  0
  4  8  1  0
  8  9  2  0
  7  2  1  0
  9  2  1  0
  1 10  1  0
  3 11  1  0
  3 12  1  0
  4 13  1  0
  6 14  1  0
  6 15  1  0
  7 16  1  0
  7 17  1  0
  8 18  1  0
  9 19  1  0
M  END
$$$$
