gdb 4320	2.4406892	1.6086862	1.2478318	3.1098	76.88	-0.24263	-0.03388	0.20875000000000002	1063.5975	0.157505	-422.587919	-422.579495	-422.578551	-422.620904	31.977
 OpenBabel02181911413D

 19 19  0  0  1  0  0  0  0  0999 V2000
    4.3714   -0.5439   -1.0349 O   0  0  0  0  0  0  0  0  0  0  0  0
    4.2850    0.6658   -1.7726 C   0  0  1  0  0  0  0  0  0  0  0  0
    3.6544    0.3271   -3.1286 C   0  0  0  0  0  0  0  0  0  0  0  0
    2.1596    0.1694   -3.0497 C   0  0  0  0  0  0  0  0  0  0  0  0
    1.4152    0.6053   -2.0351 C   0  0  0  0  0  0  0  0  0  0  0  0
    1.9998    1.3242   -0.8351 C   0  0  2  0  0  0  0  0  0  0  0  0
    3.4634    1.7401   -1.0471 C   0  0  0  0  0  0  0  0  0  0  0  0
    1.7768    0.4751    0.4063 C   0  0  0  0  0  0  0  0  0  0  0  0
    2.6402    0.0758    1.1503 O   0  0  0  0  0  0  0  0  0  0  0  0
    4.1948   -0.3546   -0.1046 H   0  0  0  0  0  0  0  0  0  0  0  0
    5.2970    1.0656   -1.9442 H   0  0  0  0  0  0  0  0  0  0  0  0
    3.9067    1.1021   -3.8668 H   0  0  0  0  0  0  0  0  0  0  0  0
    4.1090   -0.6003   -3.4947 H   0  0  0  0  0  0  0  0  0  0  0  0
    1.6716   -0.3209   -3.8890 H   0  0  0  0  0  0  0  0  0  0  0  0
    0.3390    0.4521   -2.0377 H   0  0  0  0  0  0  0  0  0  0  0  0
    1.3870    2.2238   -0.6571 H   0  0  0  0  0  0  0  0  0  0  0  0
    3.4865    2.6568   -1.6466 H   0  0  0  0  0  0  0  0  0  0  0  0
    3.9257    1.9745   -0.0824 H   0  0  0  0  0  0  0  0  0  0  0  0
    0.7094    0.2353    0.6078 H   0  0  0  0  0  0  0  0  0  0  0  0
  1 10  1  0  0  0  0
  2 11  1  6  0  0  0
  2  7  1  0  0  0  0
  2  1  1  0  0  0  0
  3  4  1  0  0  0  0
  3  2  1  0  0  0  0
  4  5  2  0  0  0  0
  5  6  1  0  0  0  0
  6 16  1  1  0  0  0
  6  8  1  0  0  0  0
  7  6  1  0  0  0  0
  7 18  1  0  0  0  0
  8 19  1  0  0  0  0
  8  9  2  0  0  0  0
 12  3  1  0  0  0  0
 13  3  1  0  0  0  0
 14  4  1  0  0  0  0
 15  5  1  0  0  0  0
 17  7  1  0  0  0  0
M TOR 0 0 1 2 3
M TOR 1 0 1 2 11
M TOR 2 0 1 2 12
M TOR 3 0 1 6 5
M TOR 4 0 1 6 16
M TOR 5 0 1 6 17
M TOR 6 1 2 3 4
M TOR 7 1 2 3 13
M TOR 8 1 6 5 4
M TOR 9 1 6 5 7
M TOR 10 1 6 5 15
M TOR 11 2 1 0 9
M TOR 12 2 1 6 5
M TOR 13 2 1 6 16
M TOR 14 2 1 6 17
M TOR 15 2 3 4 5
M TOR 16 2 3 4 14
M TOR 17 3 2 1 6
M TOR 18 3 2 1 10
M TOR 19 3 4 5 6
M TOR 20 3 4 5 7
M TOR 21 3 4 5 15
M TOR 22 4 3 2 11
M TOR 23 4 3 2 12
M TOR 24 4 5 6 16
M TOR 25 4 5 6 17
M TOR 26 4 5 7 8
M TOR 27 4 5 7 18
M TOR 28 5 4 3 13
M TOR 29 5 6 1 10
M TOR 30 6 1 0 9
M TOR 31 6 1 2 11
M TOR 32 6 1 2 12
M TOR 33 6 5 4 14
M TOR 34 6 5 7 8
M TOR 35 6 5 7 18
M TOR 36 7 5 4 14
M TOR 37 7 5 6 16
M TOR 38 7 5 6 17
M TOR 39 8 7 5 15
M  END
$$$$
