
     RDKit          3D

 19 18  0  0  0  0  0  0  0  0999 V2000
    3.1183   -4.4475   -2.4450 C   0  0  0  0  0  0  0  0  0  0  0  0
    2.7712   -3.0778   -1.8602 C   0  0  0  0  0  0  0  0  0  0  0  0
    1.4102   -3.0759   -1.1349 C   0  0  0  0  0  0  0  0  0  0  0  0
    1.3623   -4.0429   -0.0866 O   0  0  0  0  0  0  0  0  0  0  0  0
    1.0664   -1.7348   -0.6510 C   0  0  0  0  0  0  0  0  0  0  0  0
    0.8060   -0.6382   -0.2248 C   0  0  0  0  0  0  0  0  0  0  0  0
    0.5231    0.7069    0.2530 C   0  0  0  0  0  0  0  0  0  0  0  0
    1.6359    1.6988   -0.0967 C   0  0  0  0  0  0  0  0  0  0  0  0
    1.4352    2.8404   -0.4079 O   0  0  0  0  0  0  0  0  0  0  0  0
    3.1115   -5.2123   -1.6645 H   0  0  0  0  0  0  0  0  0  0  0  0
    2.3918   -4.7445   -3.2096 H   0  0  0  0  0  0  0  0  0  0  0  0
    4.1077   -4.4350   -2.9109 H   0  0  0  0  0  0  0  0  0  0  0  0
    3.5410   -2.7579   -1.1458 H   0  0  0  0  0  0  0  0  0  0  0  0
    2.7435   -2.3152   -2.6470 H   0  0  0  0  0  0  0  0  0  0  0  0
    0.6397   -3.4060   -1.8437 H   0  0  0  0  0  0  0  0  0  0  0  0
    1.9069   -3.7103    0.6357 H   0  0  0  0  0  0  0  0  0  0  0  0
   -0.4215    1.0995   -0.1375 H   0  0  0  0  0  0  0  0  0  0  0  0
    0.4364    0.7061    1.3507 H   0  0  0  0  0  0  0  0  0  0  0  0
    2.6621    1.2770   -0.0250 H   0  0  0  0  0  0  0  0  0  0  0  0
  1  2  1  0
  2  3  1  0
  3  4  1  0
  3  5  1  0
  5  6  3  0
  6  7  1  0
  7  8  1  0
  8  9  2  0
  1 10  1  0
  1 11  1  0
  1 12  1  0
  2 13  1  0
  2 14  1  0
  3 15  1  0
  4 16  1  0
  7 17  1  0
  7 18  1  0
  8 19  1  0
M  END
$$$$
