gdb 1672	3.2789767	1.3717806	1.2601003	2.5052	75.69	-0.2612	-0.0355	0.22569999999999998	1057.9303	0.15804	-422.568249	-422.560571	-422.559627	-422.600151	30.703
 OpenBabel02181911403D

 19 20  0  0  1  0  0  0  0  0999 V2000
    1.1549    1.1058   -1.7488 O   0  0  0  0  0  0  0  0  0  0  0  0
    2.1138    0.2178   -1.2355 C   0  0  2  0  0  0  0  0  0  0  0  0
    3.5714    0.5450   -1.7468 C   0  0  0  0  0  0  0  0  0  0  0  0
    3.8297   -0.7112   -2.6000 C   0  0  1  0  0  0  0  0  0  0  0  0
    3.3790   -1.8406   -1.6312 C   0  0  0  0  0  0  0  0  0  0  0  0
    1.9770   -1.2021   -1.8606 C   0  0  2  0  0  0  0  0  0  0  0  0
    2.4630   -0.9171   -3.3122 C   0  0  0  0  0  0  0  0  0  0  0  0
    2.0114    0.2049    0.2714 C   0  0  0  0  0  0  0  0  0  0  0  0
    1.2082    0.8874    0.8645 O   0  0  0  0  0  0  0  0  0  0  0  0
    0.6896    1.4630   -0.9754 H   0  0  0  0  0  0  0  0  0  0  0  0
    3.5351    1.4737   -2.3196 H   0  0  0  0  0  0  0  0  0  0  0  0
    4.3034    0.6588   -0.9401 H   0  0  0  0  0  0  0  0  0  0  0  0
    4.7759   -0.7564   -3.1389 H   0  0  0  0  0  0  0  0  0  0  0  0
    3.4466   -2.8350   -2.0782 H   0  0  0  0  0  0  0  0  0  0  0  0
    3.8056   -1.8625   -0.6242 H   0  0  0  0  0  0  0  0  0  0  0  0
    1.0454   -1.7271   -1.6492 H   0  0  0  0  0  0  0  0  0  0  0  0
    2.4450   -1.8169   -3.9310 H   0  0  0  0  0  0  0  0  0  0  0  0
    2.0143   -0.0745   -3.8406 H   0  0  0  0  0  0  0  0  0  0  0  0
    2.7081   -0.4629    0.8141 H   0  0  0  0  0  0  0  0  0  0  0  0
  1 10  1  0  0  0  0
  2  1  1  6  0  0  0
  2  8  1  0  0  0  0
  3  2  1  0  0  0  0
  3 12  1  0  0  0  0
  4 13  1  6  0  0  0
  4  3  1  0  0  0  0
  4  5  1  0  0  0  0
  5 15  1  0  0  0  0
  6 16  1  1  0  0  0
  6  5  1  0  0  0  0
  6  2  1  0  0  0  0
  7  4  1  0  0  0  0
  7  6  1  0  0  0  0
  8 19  1  0  0  0  0
  8  9  2  0  0  0  0
 11  3  1  0  0  0  0
 14  5  1  0  0  0  0
 17  7  1  0  0  0  0
 18  7  1  0  0  0  0
M TOR 0 0 1 2 3
M TOR 1 0 1 2 10
M TOR 2 0 1 2 11
M TOR 3 0 1 5 4
M TOR 4 0 1 5 6
M TOR 5 0 1 5 15
M TOR 6 0 1 7 8
M TOR 7 0 1 7 18
M TOR 8 1 2 3 4
M TOR 9 1 2 3 6
M TOR 10 1 2 3 12
M TOR 11 1 5 4 3
M TOR 12 1 5 4 13
M TOR 13 1 5 4 14
M TOR 14 1 5 6 3
M TOR 15 1 5 6 16
M TOR 16 1 5 6 17
M TOR 17 2 1 0 9
M TOR 18 2 1 5 4
M TOR 19 2 1 5 6
M TOR 20 2 1 5 15
M TOR 21 2 1 7 8
M TOR 22 2 1 7 18
M TOR 23 2 3 4 5
M TOR 24 2 3 4 13
M TOR 25 2 3 4 14
M TOR 26 2 3 6 5
M TOR 27 2 3 6 16
M TOR 28 2 3 6 17
M TOR 29 3 2 1 5
M TOR 30 3 2 1 7
M TOR 31 3 4 5 6
M TOR 32 3 4 5 15
M TOR 33 3 6 5 15
M TOR 34 4 3 2 10
M TOR 35 4 3 2 11
M TOR 36 4 3 6 16
M TOR 37 4 3 6 17
M TOR 38 4 5 1 7
M TOR 39 4 5 6 16
M TOR 40 4 5 6 17
M TOR 41 5 1 0 9
M TOR 42 5 1 2 10
M TOR 43 5 1 2 11
M TOR 44 5 1 7 8
M TOR 45 5 1 7 18
M TOR 46 5 4 3 12
M TOR 47 5 6 3 12
M TOR 48 6 3 2 10
M TOR 49 6 3 2 11
M TOR 50 6 3 4 13
M TOR 51 6 3 4 14
M TOR 52 6 5 1 7
M TOR 53 6 5 4 13
M TOR 54 6 5 4 14
M TOR 55 7 1 0 9
M TOR 56 7 1 2 10
M TOR 57 7 1 2 11
M TOR 58 7 1 5 15
M  END
$$$$
