
     RDKit          3D

 19 18  0  0  0  0  0  0  0  0999 V2000
   -3.3028    0.5999    4.7702 C   0  0  0  0  0  0  0  0  0  0  0  0
   -3.5219    0.9996    3.4381 O   0  0  0  0  0  0  0  0  0  0  0  0
   -2.9020    0.1465    2.5032 C   0  0  0  0  0  0  0  0  0  0  0  0
   -3.2346    0.6667    1.1035 C   0  0  0  0  0  0  0  0  0  0  0  0
   -2.5477   -0.1323    0.0075 C   0  0  0  0  0  0  0  0  0  0  0  0
   -3.1623   -0.8081   -0.7912 O   0  0  0  0  0  0  0  0  0  0  0  0
   -1.1000   -0.0406   -0.0297 C   0  0  0  0  0  0  0  0  0  0  0  0
    0.1042    0.0386   -0.0685 C   0  0  0  0  0  0  0  0  0  0  0  0
    1.5532    0.1203   -0.1309 C   0  0  0  0  0  0  0  0  0  0  0  0
   -3.7016   -0.4080    4.9657 H   0  0  0  0  0  0  0  0  0  0  0  0
   -2.2313    0.5995    5.0265 H   0  0  0  0  0  0  0  0  0  0  0  0
   -3.8196    1.3151    5.4147 H   0  0  0  0  0  0  0  0  0  0  0  0
   -1.8103    0.1294    2.6556 H   0  0  0  0  0  0  0  0  0  0  0  0
   -3.2656   -0.8883    2.6206 H   0  0  0  0  0  0  0  0  0  0  0  0
   -4.3121    0.6198    0.9309 H   0  0  0  0  0  0  0  0  0  0  0  0
   -2.9105    1.7124    1.0441 H   0  0  0  0  0  0  0  0  0  0  0  0
    1.9398    0.9172    0.5126 H   0  0  0  0  0  0  0  0  0  0  0  0
    2.0062   -0.8240    0.1908 H   0  0  0  0  0  0  0  0  0  0  0  0
    1.8885    0.3149   -1.1552 H   0  0  0  0  0  0  0  0  0  0  0  0
  1  2  1  0
  2  3  1  0
  3  4  1  0
  4  5  1  0
  5  6  2  0
  5  7  1  0
  7  8  3  0
  8  9  1  0
  1 10  1  0
  1 11  1  0
  1 12  1  0
  3 13  1  0
  3 14  1  0
  4 15  1  0
  4 16  1  0
  9 17  1  0
  9 18  1  0
  9 19  1  0
M  END
$$$$
