
     RDKit          3D

 19 19  0  0  0  0  0  0  0  0999 V2000
    6.0448    1.8230   -1.4004 O   0  0  0  0  0  0  0  0  0  0  0  0
    5.5358    2.3214   -0.1701 C   0  0  0  0  0  0  0  0  0  0  0  0
    4.5826    1.3695    0.5134 C   0  0  0  0  0  0  0  0  0  0  0  0
    3.4072    1.8852    1.2981 C   0  0  0  0  0  0  0  0  0  0  0  0
    3.1001    1.2165    2.4861 O   0  0  0  0  0  0  0  0  0  0  0  0
    3.1770    1.1839   -0.0177 C   0  0  0  0  0  0  0  0  0  0  0  0
    2.5220   -0.1915   -0.0028 C   0  0  0  0  0  0  0  0  0  0  0  0
    1.1038   -0.1173    0.3470 C   0  0  0  0  0  0  0  0  0  0  0  0
   -0.0522   -0.0146    0.6639 C   0  0  0  0  0  0  0  0  0  0  0  0
    6.5400    1.0202   -1.2090 H   0  0  0  0  0  0  0  0  0  0  0  0
    6.3523    2.5910    0.5182 H   0  0  0  0  0  0  0  0  0  0  0  0
    5.0140    3.2495   -0.4274 H   0  0  0  0  0  0  0  0  0  0  0  0
    5.0403    0.4796    0.9420 H   0  0  0  0  0  0  0  0  0  0  0  0
    3.2595    2.9652    1.3287 H   0  0  0  0  0  0  0  0  0  0  0  0
    2.1430    1.0937    2.5098 H   0  0  0  0  0  0  0  0  0  0  0  0
    2.8886    1.8112   -0.8563 H   0  0  0  0  0  0  0  0  0  0  0  0
    2.6405   -0.6728   -0.9810 H   0  0  0  0  0  0  0  0  0  0  0  0
    3.0303   -0.8330    0.7249 H   0  0  0  0  0  0  0  0  0  0  0  0
   -1.0795    0.0560    0.9233 H   0  0  0  0  0  0  0  0  0  0  0  0
  1  2  1  0
  2  3  1  0
  3  4  1  0
  4  5  1  0
  4  6  1  0
  6  7  1  0
  7  8  1  0
  8  9  3  0
  6  3  1  0
  1 10  1  0
  2 11  1  0
  2 12  1  0
  3 13  1  0
  4 14  1  0
  5 15  1  0
  6 16  1  0
  7 17  1  0
  7 18  1  0
  9 19  1  0
M  END
$$$$
