
     RDKit          3D

 19 21  0  0  0  0  0  0  0  0999 V2000
    0.3781   -0.1112    0.3463 O   0  0  0  0  0  0  0  0  0  0  0  0
   -0.8770    0.3953    0.7228 C   0  0  0  0  0  0  0  0  0  0  0  0
   -2.1589    0.0519   -0.1181 C   0  0  0  0  0  0  0  0  0  0  0  0
   -2.4746    1.5566   -0.1852 C   0  0  0  0  0  0  0  0  0  0  0  0
   -1.3756    2.3029   -0.8739 C   0  0  0  0  0  0  0  0  0  0  0  0
   -1.1721    1.8962    0.5633 C   0  0  0  0  0  0  0  0  0  0  0  0
   -1.5566    2.9009    1.6225 C   0  0  0  0  0  0  0  0  0  0  0  0
   -2.8491    3.3877    1.2199 O   0  0  0  0  0  0  0  0  0  0  0  0
   -3.5499    2.3533    0.5136 C   0  0  0  0  0  0  0  0  0  0  0  0
    0.6102    0.2684   -0.5076 H   0  0  0  0  0  0  0  0  0  0  0  0
   -1.0137    0.0917    1.7645 H   0  0  0  0  0  0  0  0  0  0  0  0
   -1.9814   -0.4324   -1.0835 H   0  0  0  0  0  0  0  0  0  0  0  0
   -2.8907   -0.5380    0.4385 H   0  0  0  0  0  0  0  0  0  0  0  0
   -0.8205    1.8153   -1.6716 H   0  0  0  0  0  0  0  0  0  0  0  0
   -1.5353    3.3644   -1.0295 H   0  0  0  0  0  0  0  0  0  0  0  0
   -1.6029    2.4088    2.6074 H   0  0  0  0  0  0  0  0  0  0  0  0
   -0.9121    3.7816    1.7066 H   0  0  0  0  0  0  0  0  0  0  0  0
   -4.1093    1.7005    1.2036 H   0  0  0  0  0  0  0  0  0  0  0  0
   -4.2681    2.8611   -0.1380 H   0  0  0  0  0  0  0  0  0  0  0  0
  1  2  1  0
  2  3  1  0
  3  4  1  0
  4  5  1  0
  5  6  1  0
  6  7  1  0
  7  8  1  0
  8  9  1  0
  6  2  1  0
  6  4  1  0
  9  4  1  0
  1 10  1  0
  2 11  1  0
  3 12  1  0
  3 13  1  0
  5 14  1  0
  5 15  1  0
  7 16  1  0
  7 17  1  0
  9 18  1  0
  9 19  1  0
M  END
$$$$
