
     RDKit          3D

 19 21  0  0  0  0  0  0  0  0999 V2000
    0.3655   -0.3198    0.2067 O   0  0  0  0  0  0  0  0  0  0  0  0
   -0.6168    0.5507    0.6869 C   0  0  0  0  0  0  0  0  0  0  0  0
   -1.4775    0.1786    1.8635 C   0  0  0  0  0  0  0  0  0  0  0  0
   -2.8184    0.8822    1.9814 C   0  0  0  0  0  0  0  0  0  0  0  0
   -2.5488    2.2616    1.7224 O   0  0  0  0  0  0  0  0  0  0  0  0
   -1.2353    2.5466    2.1609 C   0  0  0  0  0  0  0  0  0  0  0  0
   -0.7524    3.9370    1.9183 C   0  0  0  0  0  0  0  0  0  0  0  0
   -1.0502    3.4704    3.3369 C   0  0  0  0  0  0  0  0  0  0  0  0
   -0.4360    1.2877    1.9902 C   0  0  0  0  0  0  0  0  0  0  0  0
    0.7414   -0.8042    0.9487 H   0  0  0  0  0  0  0  0  0  0  0  0
   -1.0745    1.0819   -0.1419 H   0  0  0  0  0  0  0  0  0  0  0  0
   -1.3426   -0.7886    2.3366 H   0  0  0  0  0  0  0  0  0  0  0  0
   -3.5655    0.5595    1.2492 H   0  0  0  0  0  0  0  0  0  0  0  0
   -3.2336    0.7415    2.9917 H   0  0  0  0  0  0  0  0  0  0  0  0
    0.2817    4.0786    1.6237 H   0  0  0  0  0  0  0  0  0  0  0  0
   -1.4541    4.6276    1.4641 H   0  0  0  0  0  0  0  0  0  0  0  0
   -0.2188    3.3018    4.0139 H   0  0  0  0  0  0  0  0  0  0  0  0
   -1.9515    3.8526    3.8029 H   0  0  0  0  0  0  0  0  0  0  0  0
    0.4793    1.1562    2.5571 H   0  0  0  0  0  0  0  0  0  0  0  0
  1  2  1  0
  2  3  1  0
  3  4  1  0
  4  5  1  0
  5  6  1  0
  6  7  1  0
  7  8  1  0
  6  9  1  0
  9  2  1  0
  9  3  1  0
  8  6  1  0
  1 10  1  0
  2 11  1  0
  3 12  1  0
  4 13  1  0
  4 14  1  0
  7 15  1  0
  7 16  1  0
  8 17  1  0
  8 18  1  0
  9 19  1  0
M  END
$$$$
