gdb 1900	2.3857605	1.5770745	1.1963591	2.4223	76.92	-0.2371	-0.01917	0.21793	1095.8829	0.156387	-422.565759	-422.557203	-422.556259	-422.598657	32.361
 OpenBabel02181911403D

 19 20  0  0  1  0  0  0  0  0999 V2000
    0.0939    0.3492   -0.4507 C   0  0  0  0  0  0  0  0  0  0  0  0
    1.4135   -0.1043    0.1090 C   0  0  2  0  0  0  0  0  0  0  0  0
    1.7570   -0.0063    1.5570 C   0  0  0  0  0  0  0  0  0  0  0  0
    2.5735    0.8168    0.5511 C   0  0  1  0  0  0  0  0  0  0  0  0
    3.8281    0.1691   -0.0048 C   0  0  0  0  0  0  0  0  0  0  0  0
    3.3582   -1.2495   -0.3839 C   0  0  0  0  0  0  0  0  0  0  0  0
    1.9533   -1.1620   -0.6328 O   0  0  0  0  0  0  0  0  0  0  0  0
    2.4419    2.2826    0.5323 C   0  0  0  0  0  0  0  0  0  0  0  0
    3.2560    3.0401    0.0575 O   0  0  0  0  0  0  0  0  0  0  0  0
   -0.3144    1.1838    0.1238 H   0  0  0  0  0  0  0  0  0  0  0  0
    0.2028    0.6584   -1.4941 H   0  0  0  0  0  0  0  0  0  0  0  0
   -0.6257   -0.4749   -0.4132 H   0  0  0  0  0  0  0  0  0  0  0  0
    1.0739    0.5548    2.1879 H   0  0  0  0  0  0  0  0  0  0  0  0
    2.2563   -0.8276    2.0596 H   0  0  0  0  0  0  0  0  0  0  0  0
    4.1572    0.7410   -0.8765 H   0  0  0  0  0  0  0  0  0  0  0  0
    4.6561    0.1452    0.7094 H   0  0  0  0  0  0  0  0  0  0  0  0
    3.8292   -1.6407   -1.2889 H   0  0  0  0  0  0  0  0  0  0  0  0
    3.5524   -1.9600    0.4311 H   0  0  0  0  0  0  0  0  0  0  0  0
    1.5050    2.6694    0.9969 H   0  0  0  0  0  0  0  0  0  0  0  0
  1 12  1  0  0  0  0
  1 10  1  0  0  0  0
  2  1  1  6  0  0  0
  2  4  1  0  0  0  0
  2  3  1  0  0  0  0
  3 14  1  0  0  0  0
  3 13  1  0  0  0  0
  4  8  1  6  0  0  0
  4  3  1  0  0  0  0
  5  4  1  0  0  0  0
  5 16  1  0  0  0  0
  6  5  1  0  0  0  0
  6 18  1  0  0  0  0
  7  6  1  0  0  0  0
  7  2  1  0  0  0  0
  8 19  1  0  0  0  0
  9  8  2  0  0  0  0
 11  1  1  0  0  0  0
 15  5  1  0  0  0  0
 17  6  1  0  0  0  0
M TOR 0 0 1 2 3
M TOR 1 0 1 2 12
M TOR 2 0 1 2 13
M TOR 3 0 1 3 4
M TOR 4 0 1 3 7
M TOR 5 0 1 6 5
M TOR 6 1 2 3 4
M TOR 7 1 2 3 7
M TOR 8 1 3 2 12
M TOR 9 1 3 2 13
M TOR 10 1 3 4 5
M TOR 11 1 3 4 14
M TOR 12 1 3 4 15
M TOR 13 1 3 7 8
M TOR 14 1 3 7 18
M TOR 15 1 6 5 4
M TOR 16 1 6 5 16
M TOR 17 1 6 5 17
M TOR 18 2 1 0 9
M TOR 19 2 1 0 10
M TOR 20 2 1 0 11
M TOR 21 2 1 6 5
M TOR 22 2 3 1 6
M TOR 23 2 3 4 5
M TOR 24 2 3 4 14
M TOR 25 2 3 4 15
M TOR 26 2 3 7 8
M TOR 27 2 3 7 18
M TOR 28 3 1 0 9
M TOR 29 3 1 0 10
M TOR 30 3 1 0 11
M TOR 31 3 1 6 5
M TOR 32 3 4 5 6
M TOR 33 3 4 5 16
M TOR 34 3 4 5 17
M TOR 35 4 3 1 6
M TOR 36 4 3 2 12
M TOR 37 4 3 2 13
M TOR 38 4 3 7 8
M TOR 39 4 3 7 18
M TOR 40 5 4 3 7
M TOR 41 6 1 0 9
M TOR 42 6 1 0 10
M TOR 43 6 1 0 11
M TOR 44 6 1 2 12
M TOR 45 6 1 2 13
M TOR 46 6 1 3 7
M TOR 47 6 5 4 14
M TOR 48 6 5 4 15
M TOR 49 7 3 2 12
M TOR 50 7 3 2 13
M TOR 51 7 3 4 14
M TOR 52 7 3 4 15
M  END
$$$$
