gdb 2430	2.4409686	2.1615649	1.5809714	1.2685	72.82	-0.24339	0.07695	0.32034	914.993	0.159167	-422.547703	-422.540731	-422.539787	-422.578553	28.74
 OpenBabel02181911413D

 19 21  0  0  1  0  0  0  0  0999 V2000
    0.3297   -0.7809   -0.3391 C   0  0  0  0  0  0  0  0  0  0  0  0
    1.5538    0.0353    0.0253 C   0  0  1  0  0  0  0  0  0  0  0  0
    1.4505    0.8838    1.2994 C   0  0  0  0  0  0  0  0  0  0  0  0
    2.6355    1.7057    1.2794 O   0  0  0  0  0  0  0  0  0  0  0  0
    3.1106    1.6700   -0.0424 C   0  0  1  0  0  0  0  0  0  0  0  0
    3.7770    0.3432   -0.5608 C   0  0  1  0  0  0  0  0  0  0  0  0
    2.9157   -0.7317    0.1200 C   0  0  0  0  0  0  0  0  0  0  0  0
    3.0621    0.5293   -1.8213 O   0  0  0  0  0  0  0  0  0  0  0  0
    2.0390    1.1291   -0.9992 C   0  0  1  0  0  0  0  0  0  0  0  0
    0.1275   -1.5579    0.4065 H   0  0  0  0  0  0  0  0  0  0  0  0
   -0.5636   -0.1499   -0.4124 H   0  0  0  0  0  0  0  0  0  0  0  0
    0.4737   -1.2760   -1.3047 H   0  0  0  0  0  0  0  0  0  0  0  0
    0.5546    1.5239    1.3026 H   0  0  0  0  0  0  0  0  0  0  0  0
    1.4497    0.2853    2.2164 H   0  0  0  0  0  0  0  0  0  0  0  0
    3.6300    2.5896   -0.3068 H   0  0  0  0  0  0  0  0  0  0  0  0
    4.8500    0.1927   -0.6771 H   0  0  0  0  0  0  0  0  0  0  0  0
    2.9254   -1.6551   -0.4639 H   0  0  0  0  0  0  0  0  0  0  0  0
    3.2094   -0.9486    1.1502 H   0  0  0  0  0  0  0  0  0  0  0  0
    1.2978    1.7186   -1.5385 H   0  0  0  0  0  0  0  0  0  0  0  0
  1 10  1  0  0  0  0
  2  1  1  6  0  0  0
  2  7  1  0  0  0  0
  2  3  1  0  0  0  0
  3 13  1  0  0  0  0
  3 14  1  0  0  0  0
  4  3  1  0  0  0  0
  5 15  1  6  0  0  0
  5  4  1  0  0  0  0
  6 16  1  6  0  0  0
  6  5  1  0  0  0  0
  6  7  1  0  0  0  0
  7 18  1  0  0  0  0
  8  9  1  0  0  0  0
  8  6  1  0  0  0  0
  9 19  1  6  0  0  0
  9  5  1  0  0  0  0
  9  2  1  0  0  0  0
 11  1  1  0  0  0  0
 12  1  1  0  0  0  0
 17  7  1  0  0  0  0
M TOR 0 0 1 2 3
M TOR 1 0 1 2 12
M TOR 2 0 1 2 13
M TOR 3 0 1 6 5
M TOR 4 0 1 6 16
M TOR 5 0 1 6 17
M TOR 6 0 1 8 4
M TOR 7 0 1 8 7
M TOR 8 0 1 8 18
M TOR 9 1 2 3 4
M TOR 10 1 6 5 4
M TOR 11 1 6 5 7
M TOR 12 1 6 5 15
M TOR 13 1 8 4 3
M TOR 14 1 8 4 5
M TOR 15 1 8 4 14
M TOR 16 1 8 7 5
M TOR 17 2 1 0 9
M TOR 18 2 1 0 10
M TOR 19 2 1 0 11
M TOR 20 2 1 6 5
M TOR 21 2 1 6 16
M TOR 22 2 1 6 17
M TOR 23 2 1 8 4
M TOR 24 2 1 8 7
M TOR 25 2 1 8 18
M TOR 26 2 3 4 5
M TOR 27 2 3 4 8
M TOR 28 2 3 4 14
M TOR 29 3 2 1 6
M TOR 30 3 2 1 8
M TOR 31 3 4 5 6
M TOR 32 3 4 5 7
M TOR 33 3 4 5 15
M TOR 34 3 4 8 7
M TOR 35 3 4 8 18
M TOR 36 4 3 2 12
M TOR 37 4 3 2 13
M TOR 38 4 5 6 16
M TOR 39 4 5 6 17
M TOR 40 4 5 7 8
M TOR 41 4 8 1 6
M TOR 42 5 4 8 18
M TOR 43 5 6 1 8
M TOR 44 5 7 8 18
M TOR 45 6 1 0 9
M TOR 46 6 1 0 10
M TOR 47 6 1 0 11
M TOR 48 6 1 2 12
M TOR 49 6 1 2 13
M TOR 50 6 1 8 7
M TOR 51 6 1 8 18
M TOR 52 6 5 4 8
M TOR 53 6 5 4 14
M TOR 54 6 5 7 8
M TOR 55 7 5 4 14
M TOR 56 7 5 6 16
M TOR 57 7 5 6 17
M TOR 58 7 8 4 14
M TOR 59 8 1 0 9
M TOR 60 8 1 0 10
M TOR 61 8 1 0 11
M TOR 62 8 1 2 12
M TOR 63 8 1 2 13
M TOR 64 8 1 6 16
M TOR 65 8 1 6 17
M TOR 66 8 4 5 15
M TOR 67 8 7 5 15
M  END
$$$$
