
     RDKit          3D

 19 21  0  0  0  0  0  0  0  0999 V2000
    0.2203   -0.1348    0.4099 C   0  0  0  0  0  0  0  0  0  0  0  0
    1.1090    0.2438   -0.7423 C   0  0  0  0  0  0  0  0  0  0  0  0
    0.5427    0.3829   -2.1491 C   0  0  0  0  0  0  0  0  0  0  0  0
    1.6539    1.0809   -2.9357 C   0  0  0  0  0  0  0  0  0  0  0  0
    1.5267    1.4632   -4.3447 C   0  0  0  0  0  0  0  0  0  0  0  0
    2.2947    0.3204   -3.9628 O   0  0  0  0  0  0  0  0  0  0  0  0
    2.5661    1.8099   -1.9448 C   0  0  0  0  0  0  0  0  0  0  0  0
    2.3138    1.0870   -0.6379 C   0  0  0  0  0  0  0  0  0  0  0  0
    2.4247   -0.3379   -0.7526 O   0  0  0  0  0  0  0  0  0  0  0  0
   -0.2010   -1.1351    0.2611 H   0  0  0  0  0  0  0  0  0  0  0  0
    0.7860   -0.1413    1.3449 H   0  0  0  0  0  0  0  0  0  0  0  0
   -0.6136    0.5684    0.5080 H   0  0  0  0  0  0  0  0  0  0  0  0
    0.2967   -0.5808   -2.6040 H   0  0  0  0  0  0  0  0  0  0  0  0
   -0.3695    0.9922   -2.1222 H   0  0  0  0  0  0  0  0  0  0  0  0
    0.6026    1.2511   -4.8827 H   0  0  0  0  0  0  0  0  0  0  0  0
    2.0985    2.3069   -4.7317 H   0  0  0  0  0  0  0  0  0  0  0  0
    3.6081    1.7580   -2.2722 H   0  0  0  0  0  0  0  0  0  0  0  0
    2.2881    2.8668   -1.8455 H   0  0  0  0  0  0  0  0  0  0  0  0
    2.6518    1.5091    0.3060 H   0  0  0  0  0  0  0  0  0  0  0  0
  1  2  1  0
  2  3  1  0
  3  4  1  0
  4  5  1  0
  5  6  1  0
  4  7  1  0
  7  8  1  0
  8  9  1  0
  8  2  1  0
  9  2  1  0
  6  4  1  0
  1 10  1  0
  1 11  1  0
  1 12  1  0
  3 13  1  0
  3 14  1  0
  5 15  1  0
  5 16  1  0
  7 17  1  0
  7 18  1  0
  8 19  1  0
M  END
$$$$
