gdb 1630	3.4359634	1.1788344	0.9522082	2.5644	78.52	-0.22927	0.00602	0.23529	1251.1874	0.155995	-422.53715	-422.528321	-422.527377	-422.571273	32.138
 OpenBabel02181911403D

 19 20  0  0  1  0  0  0  0  0999 V2000
   -2.4196   -1.4141    0.7705 C   0  0  0  0  0  0  0  0  0  0  0  0
   -0.9551   -1.0693    0.9217 C   0  0  1  0  0  0  0  0  0  0  0  0
   -0.2445   -1.4994    2.1465 C   0  0  0  0  0  0  0  0  0  0  0  0
   -0.0617   -2.2074    0.9252 O   0  0  0  0  0  0  0  0  0  0  0  0
   -0.4475    0.0933    0.1568 C   0  0  0  0  0  0  0  0  0  0  0  0
   -1.1435    1.0430   -0.4665 C   0  0  0  0  0  0  0  0  0  0  0  0
   -0.2130    2.0160   -1.1291 C   0  0  0  0  0  0  0  0  0  0  0  0
    1.0970    1.5504   -0.8211 O   0  0  0  0  0  0  0  0  0  0  0  0
    1.0264    0.3469   -0.0639 C   0  0  0  0  0  0  0  0  0  0  0  0
   -2.6507   -2.3246    1.3278 H   0  0  0  0  0  0  0  0  0  0  0  0
   -3.0519   -0.6043    1.1486 H   0  0  0  0  0  0  0  0  0  0  0  0
   -2.6697   -1.5790   -0.2818 H   0  0  0  0  0  0  0  0  0  0  0  0
    0.6205   -0.9445    2.5049 H   0  0  0  0  0  0  0  0  0  0  0  0
   -0.8056   -2.0268    2.9178 H   0  0  0  0  0  0  0  0  0  0  0  0
   -2.2209    1.1329   -0.5154 H   0  0  0  0  0  0  0  0  0  0  0  0
   -0.3562    2.0510   -2.2218 H   0  0  0  0  0  0  0  0  0  0  0  0
   -0.3397    3.0454   -0.7571 H   0  0  0  0  0  0  0  0  0  0  0  0
    1.5004   -0.4811   -0.6099 H   0  0  0  0  0  0  0  0  0  0  0  0
    1.5834    0.4744    0.8771 H   0  0  0  0  0  0  0  0  0  0  0  0
  1 11  1  0  0  0  0
  1 10  1  0  0  0  0
  2  1  1  6  0  0  0
  2  4  1  0  0  0  0
  2  3  1  0  0  0  0
  3 13  1  0  0  0  0
  3 14  1  0  0  0  0
  4  3  1  0  0  0  0
  5  2  1  0  0  0  0
  6  5  2  0  0  0  0
  7  8  1  0  0  0  0
  7 17  1  0  0  0  0
  7  6  1  0  0  0  0
  8  9  1  0  0  0  0
  9  5  1  0  0  0  0
  9 19  1  0  0  0  0
 12  1  1  0  0  0  0
 15  6  1  0  0  0  0
 16  7  1  0  0  0  0
 18  9  1  0  0  0  0
M TOR 0 0 1 2 3
M TOR 1 0 1 2 12
M TOR 2 0 1 2 13
M TOR 3 0 1 4 5
M TOR 4 0 1 4 8
M TOR 5 1 3 2 12
M TOR 6 1 3 2 13
M TOR 7 1 4 5 6
M TOR 8 1 4 5 14
M TOR 9 1 4 8 7
M TOR 10 1 4 8 17
M TOR 11 1 4 8 18
M TOR 12 2 1 0 9
M TOR 13 2 1 0 10
M TOR 14 2 1 0 11
M TOR 15 2 1 4 5
M TOR 16 2 1 4 8
M TOR 17 2 3 1 4
M TOR 18 3 1 0 9
M TOR 19 3 1 0 10
M TOR 20 3 1 0 11
M TOR 21 3 1 4 5
M TOR 22 3 1 4 8
M TOR 23 4 1 0 9
M TOR 24 4 1 0 10
M TOR 25 4 1 0 11
M TOR 26 4 1 2 12
M TOR 27 4 1 2 13
M TOR 28 4 5 6 7
M TOR 29 4 5 6 15
M TOR 30 4 5 6 16
M TOR 31 4 8 7 6
M TOR 32 5 4 8 7
M TOR 33 5 4 8 17
M TOR 34 5 4 8 18
M TOR 35 5 6 7 8
M TOR 36 6 5 4 8
M TOR 37 6 7 8 17
M TOR 38 6 7 8 18
M TOR 39 7 6 5 14
M TOR 40 8 4 5 14
M TOR 41 8 7 6 15
M TOR 42 8 7 6 16
M  END
$$$$
