gdb 2232	2.4282171	2.1125944	1.6799889	1.0484	73.07	-0.22907	0.09171	0.32078	905.4219	0.159133	-422.550664	-422.543636	-422.542692	-422.581588	28.831
 OpenBabel02181911413D

 19 21  0  0  1  0  0  0  0  0999 V2000
   -0.1551   -0.0443   -0.0382 C   0  0  0  0  0  0  0  0  0  0  0  0
    1.3378    0.0501    0.0594 C   0  0  2  0  0  0  0  0  0  0  0  0
    2.0140   -1.0644    0.7002 O   0  0  0  0  0  0  0  0  0  0  0  0
    3.2164   -0.5078    0.0880 C   0  0  2  0  0  0  0  0  0  0  0  0
    3.4049    0.7571    0.9491 C   0  0  0  0  0  0  0  0  0  0  0  0
    2.0064    1.3512    0.6363 C   0  0  1  0  0  0  0  0  0  0  0  0
    2.0908    2.2303   -0.4830 O   0  0  0  0  0  0  0  0  0  0  0  0
    2.5552    1.4263   -1.5852 C   0  0  0  0  0  0  0  0  0  0  0  0
    2.3501   -0.0068   -1.1139 C   0  0  2  0  0  0  0  0  0  0  0  0
   -0.5978   -0.1155    0.9611 H   0  0  0  0  0  0  0  0  0  0  0  0
   -0.5531    0.8510   -0.5254 H   0  0  0  0  0  0  0  0  0  0  0  0
   -0.4617   -0.9240   -0.6111 H   0  0  0  0  0  0  0  0  0  0  0  0
    4.0331   -1.2212   -0.0177 H   0  0  0  0  0  0  0  0  0  0  0  0
    3.5435    0.4791    1.9958 H   0  0  0  0  0  0  0  0  0  0  0  0
    4.2062    1.4314    0.6375 H   0  0  0  0  0  0  0  0  0  0  0  0
    1.4922    1.8724    1.4428 H   0  0  0  0  0  0  0  0  0  0  0  0
    1.9535    1.6667   -2.4686 H   0  0  0  0  0  0  0  0  0  0  0  0
    3.6042    1.6595   -1.8162 H   0  0  0  0  0  0  0  0  0  0  0  0
    2.1577   -0.7635   -1.8727 H   0  0  0  0  0  0  0  0  0  0  0  0
  1 10  1  0  0  0  0
  2  1  1  6  0  0  0
  2  6  1  0  0  0  0
  2  3  1  0  0  0  0
  4 13  1  6  0  0  0
  4  3  1  0  0  0  0
  4  5  1  0  0  0  0
  5 14  1  0  0  0  0
  6  5  1  0  0  0  0
  6 16  1  1  0  0  0
  7  6  1  0  0  0  0
  8  9  1  0  0  0  0
  8  7  1  0  0  0  0
  9 19  1  6  0  0  0
  9  2  1  0  0  0  0
  9  4  1  0  0  0  0
 11  1  1  0  0  0  0
 12  1  1  0  0  0  0
 15  5  1  0  0  0  0
 17  8  1  0  0  0  0
 18  8  1  0  0  0  0
M TOR 0 0 1 2 3
M TOR 1 0 1 5 4
M TOR 2 0 1 5 6
M TOR 3 0 1 5 15
M TOR 4 0 1 8 3
M TOR 5 0 1 8 7
M TOR 6 0 1 8 18
M TOR 7 1 2 3 4
M TOR 8 1 2 3 8
M TOR 9 1 2 3 12
M TOR 10 1 5 4 3
M TOR 11 1 5 4 13
M TOR 12 1 5 4 14
M TOR 13 1 5 6 7
M TOR 14 1 8 3 4
M TOR 15 1 8 3 12
M TOR 16 1 8 7 6
M TOR 17 1 8 7 16
M TOR 18 1 8 7 17
M TOR 19 2 1 0 9
M TOR 20 2 1 0 10
M TOR 21 2 1 0 11
M TOR 22 2 1 5 4
M TOR 23 2 1 5 6
M TOR 24 2 1 5 15
M TOR 25 2 1 8 7
M TOR 26 2 1 8 18
M TOR 27 2 3 4 5
M TOR 28 2 3 4 13
M TOR 29 2 3 4 14
M TOR 30 2 3 8 7
M TOR 31 2 3 8 18
M TOR 32 3 2 1 5
M TOR 33 3 4 5 6
M TOR 34 3 4 5 15
M TOR 35 3 8 1 5
M TOR 36 3 8 7 6
M TOR 37 3 8 7 16
M TOR 38 3 8 7 17
M TOR 39 4 3 8 7
M TOR 40 4 3 8 18
M TOR 41 4 5 1 8
M TOR 42 4 5 6 7
M TOR 43 5 1 0 9
M TOR 44 5 1 0 10
M TOR 45 5 1 0 11
M TOR 46 5 1 8 7
M TOR 47 5 1 8 18
M TOR 48 5 4 3 8
M TOR 49 5 4 3 12
M TOR 50 5 6 7 8
M TOR 51 5 6 7 16
M TOR 52 5 6 7 17
M TOR 53 6 5 1 8
M TOR 54 6 5 4 13
M TOR 55 6 5 4 14
M TOR 56 6 7 8 18
M TOR 57 7 6 5 15
M TOR 58 7 8 3 12
M TOR 59 8 1 0 9
M TOR 60 8 1 0 10
M TOR 61 8 1 0 11
M TOR 62 8 1 5 15
M TOR 63 8 3 4 13
M TOR 64 8 3 4 14
M  END
$$$$
