
     RDKit          3D

 19 21  0  0  0  0  0  0  0  0999 V2000
   -3.3884   -0.8162    3.3788 C   0  0  0  0  0  0  0  0  0  0  0  0
   -2.4375    0.1044    2.6893 C   0  0  0  0  0  0  0  0  0  0  0  0
   -2.9763    1.2075    1.9278 O   0  0  0  0  0  0  0  0  0  0  0  0
   -1.9737    1.4762    2.9324 C   0  0  0  0  0  0  0  0  0  0  0  0
   -2.2635    2.5105    3.9685 C   0  0  0  0  0  0  0  0  0  0  0  0
   -0.5739    1.1480    2.3237 C   0  0  0  0  0  0  0  0  0  0  0  0
   -0.6699    0.6063    0.9188 C   0  0  0  0  0  0  0  0  0  0  0  0
    0.5125    0.3286    0.2295 O   0  0  0  0  0  0  0  0  0  0  0  0
   -1.0595   -0.2886    2.0693 C   0  0  0  0  0  0  0  0  0  0  0  0
   -3.8569   -1.4974    2.6589 H   0  0  0  0  0  0  0  0  0  0  0  0
   -2.8664   -1.4240    4.1253 H   0  0  0  0  0  0  0  0  0  0  0  0
   -4.1798   -0.2497    3.8763 H   0  0  0  0  0  0  0  0  0  0  0  0
   -1.5649    2.4248    4.8074 H   0  0  0  0  0  0  0  0  0  0  0  0
   -2.1615    3.5176    3.5478 H   0  0  0  0  0  0  0  0  0  0  0  0
   -3.2833    2.4011    4.3464 H   0  0  0  0  0  0  0  0  0  0  0  0
    0.3657    1.4764    2.7521 H   0  0  0  0  0  0  0  0  0  0  0  0
   -1.4204    0.9809    0.2362 H   0  0  0  0  0  0  0  0  0  0  0  0
    1.1672   -0.0031    0.8531 H   0  0  0  0  0  0  0  0  0  0  0  0
   -0.5460   -1.2204    2.2745 H   0  0  0  0  0  0  0  0  0  0  0  0
  1  2  1  0
  2  3  1  0
  3  4  1  0
  4  5  1  0
  4  6  1  0
  6  7  1  0
  7  8  1  0
  7  9  1  0
  4  2  1  0
  9  6  1  0
  9  2  1  0
  1 10  1  0
  1 11  1  0
  1 12  1  0
  5 13  1  0
  5 14  1  0
  5 15  1  0
  6 16  1  0
  7 17  1  0
  8 18  1  0
  9 19  1  0
M  END
$$$$
