
     RDKit          3D

 19 20  0  0  0  0  0  0  0  0999 V2000
    1.1635    0.0522    0.1623 O   0  0  0  0  0  0  0  0  0  0  0  0
   -0.0419    0.0278    0.1012 C   0  0  0  0  0  0  0  0  0  0  0  0
   -0.8626    1.3197    0.0103 C   0  0  0  0  0  0  0  0  0  0  0  0
   -2.2695    1.2021    0.6271 C   0  0  0  0  0  0  0  0  0  0  0  0
   -2.2077    0.7566    2.0970 C   0  0  0  0  0  0  0  0  0  0  0  0
   -2.0732   -0.6721    2.0657 O   0  0  0  0  0  0  0  0  0  0  0  0
   -2.2150   -1.1266    0.7110 C   0  0  0  0  0  0  0  0  0  0  0  0
   -2.9957   -0.0076    0.0141 C   0  0  0  0  0  0  0  0  0  0  0  0
   -0.8227   -1.2887    0.0859 C   0  0  0  0  0  0  0  0  0  0  0  0
   -0.2722    2.1195    0.4666 H   0  0  0  0  0  0  0  0  0  0  0  0
   -0.9541    1.5652   -1.0574 H   0  0  0  0  0  0  0  0  0  0  0  0
   -2.8150    2.1417    0.5101 H   0  0  0  0  0  0  0  0  0  0  0  0
   -1.3581    1.1859    2.6406 H   0  0  0  0  0  0  0  0  0  0  0  0
   -3.1282    1.0242    2.6337 H   0  0  0  0  0  0  0  0  0  0  0  0
   -2.7437   -2.0836    0.7366 H   0  0  0  0  0  0  0  0  0  0  0  0
   -2.9362   -0.0491   -1.0766 H   0  0  0  0  0  0  0  0  0  0  0  0
   -4.0495   -0.0292    0.3074 H   0  0  0  0  0  0  0  0  0  0  0  0
   -0.2295   -2.0374    0.6167 H   0  0  0  0  0  0  0  0  0  0  0  0
   -0.9130   -1.6231   -0.9573 H   0  0  0  0  0  0  0  0  0  0  0  0
  1  2  2  0
  2  3  1  0
  3  4  1  0
  4  5  1  0
  5  6  1  0
  6  7  1  0
  7  8  1  0
  7  9  1  0
  9  2  1  0
  8  4  1  0
  3 10  1  0
  3 11  1  0
  4 12  1  0
  5 13  1  0
  5 14  1  0
  7 15  1  0
  8 16  1  0
  8 17  1  0
  9 18  1  0
  9 19  1  0
M  END
$$$$
