gdb 179	3.778144	1.4063109	1.1896647	3.3446	75.33	-0.23124	0.07974	0.31098000000000003	1072.5248	0.157995	-422.490125	-422.48272	-422.481775	-422.522469	29.124
 OpenBabel02181911403D

 19 21  0  0  1  0  0  0  0  0999 V2000
    1.1393    0.4398   -1.2381 C   0  0  0  0  0  0  0  0  0  0  0  0
    1.8242    1.0133    0.0266 C   0  0  1  0  0  0  0  0  0  0  0  0
    0.4787    1.1976    0.6170 O   0  0  0  0  0  0  0  0  0  0  0  0
    0.4553   -0.1556    0.0156 C   0  0  2  0  0  0  0  0  0  0  0  0
    1.8615   -0.4182    0.6422 C   0  0  1  0  0  0  0  0  0  0  0  0
    2.7942   -1.5322    0.1239 C   0  0  0  0  0  0  0  0  0  0  0  0
    3.6107   -1.9174    1.3676 C   0  0  0  0  0  0  0  0  0  0  0  0
    2.6110   -1.6129    2.4834 C   0  0  0  0  0  0  0  0  0  0  0  0
    1.9139   -0.4520    2.0487 O   0  0  0  0  0  0  0  0  0  0  0  0
    0.5229    1.1677   -1.7643 H   0  0  0  0  0  0  0  0  0  0  0  0
    1.6989   -0.2130   -1.9113 H   0  0  0  0  0  0  0  0  0  0  0  0
    2.5350    1.8345    0.1273 H   0  0  0  0  0  0  0  0  0  0  0  0
   -0.4673   -0.7313    0.1019 H   0  0  0  0  0  0  0  0  0  0  0  0
    2.2001   -2.3846   -0.2243 H   0  0  0  0  0  0  0  0  0  0  0  0
    3.4189   -1.2066   -0.7097 H   0  0  0  0  0  0  0  0  0  0  0  0
    3.9492   -2.9561    1.3602 H   0  0  0  0  0  0  0  0  0  0  0  0
    4.4889   -1.2713    1.4660 H   0  0  0  0  0  0  0  0  0  0  0  0
    1.9128   -2.4533    2.6265 H   0  0  0  0  0  0  0  0  0  0  0  0
    3.0727   -1.3853    3.4480 H   0  0  0  0  0  0  0  0  0  0  0  0
  1  4  1  0  0  0  0
  1  2  1  0  0  0  0
  2 12  1  1  0  0  0
  2  3  1  0  0  0  0
  2  5  1  0  0  0  0
  4 13  1  1  0  0  0
  4  3  1  0  0  0  0
  4  5  1  0  0  0  0
  5  9  1  1  0  0  0
  6  5  1  0  0  0  0
  6  7  1  0  0  0  0
  7 17  1  0  0  0  0
  7  8  1  0  0  0  0
  8 18  1  0  0  0  0
  8 19  1  0  0  0  0
  9  8  1  0  0  0  0
 10  1  1  0  0  0  0
 11  1  1  0  0  0  0
 14  6  1  0  0  0  0
 15  6  1  0  0  0  0
 16  7  1  0  0  0  0
M TOR 0 0 1 2 3
M TOR 1 0 1 4 3
M TOR 2 0 1 4 5
M TOR 3 0 1 4 8
M TOR 4 0 3 4 5
M TOR 5 0 3 4 8
M TOR 6 1 0 3 12
M TOR 7 1 2 3 4
M TOR 8 1 2 3 12
M TOR 9 1 4 3 12
M TOR 10 1 4 5 6
M TOR 11 1 4 5 13
M TOR 12 1 4 5 14
M TOR 13 1 4 8 7
M TOR 14 2 1 0 9
M TOR 15 2 1 0 10
M TOR 16 2 1 4 5
M TOR 17 2 1 4 8
M TOR 18 2 3 0 9
M TOR 19 2 3 0 10
M TOR 20 2 3 4 5
M TOR 21 2 3 4 8
M TOR 22 3 0 1 11
M TOR 23 3 2 1 11
M TOR 24 3 4 1 11
M TOR 25 3 4 5 6
M TOR 26 3 4 5 13
M TOR 27 3 4 5 14
M TOR 28 3 4 8 7
M TOR 29 4 1 0 9
M TOR 30 4 1 0 10
M TOR 31 4 3 0 9
M TOR 32 4 3 0 10
M TOR 33 4 5 6 7
M TOR 34 4 5 6 15
M TOR 35 4 5 6 16
M TOR 36 4 8 7 6
M TOR 37 4 8 7 17
M TOR 38 4 8 7 18
M TOR 39 5 4 1 11
M TOR 40 5 4 3 12
M TOR 41 5 4 8 7
M TOR 42 5 6 7 8
M TOR 43 5 6 7 17
M TOR 44 5 6 7 18
M TOR 45 6 5 4 8
M TOR 46 7 6 5 13
M TOR 47 7 6 5 14
M TOR 48 8 4 1 11
M TOR 49 8 4 3 12
M TOR 50 8 4 5 13
M TOR 51 8 4 5 14
M TOR 52 8 7 6 15
M TOR 53 8 7 6 16
M  END
$$$$
