
     RDKit          3D

 19 19  0  0  0  0  0  0  0  0999 V2000
    1.4424   -0.1316   -0.2194 C   0  0  0  0  0  0  0  0  0  0  0  0
    0.0507   -0.0321    0.0085 O   0  0  0  0  0  0  0  0  0  0  0  0
   -0.3673    0.6645    1.1826 C   0  0  0  0  0  0  0  0  0  0  0  0
    0.0387    2.1508    1.2510 C   0  0  0  0  0  0  0  0  0  0  0  0
    1.3596    2.4263    1.9847 C   0  0  0  0  0  0  0  0  0  0  0  0
    1.4537    1.7091    3.3244 C   0  0  0  0  0  0  0  0  0  0  0  0
    2.0652    2.1681    4.2676 O   0  0  0  0  0  0  0  0  0  0  0  0
    0.8073    0.3772    3.3956 C   0  0  0  0  0  0  0  0  0  0  0  0
    0.0158   -0.0995    2.4279 C   0  0  0  0  0  0  0  0  0  0  0  0
    1.9865   -0.5072    0.6577 H   0  0  0  0  0  0  0  0  0  0  0  0
    1.5718   -0.8408   -1.0408 H   0  0  0  0  0  0  0  0  0  0  0  0
    1.8833    0.8287   -0.5224 H   0  0  0  0  0  0  0  0  0  0  0  0
   -1.4599    0.6241    1.0963 H   0  0  0  0  0  0  0  0  0  0  0  0
    0.0619    2.5544    0.2339 H   0  0  0  0  0  0  0  0  0  0  0  0
   -0.7638    2.6811    1.7769 H   0  0  0  0  0  0  0  0  0  0  0  0
    2.2164    2.0841    1.3905 H   0  0  0  0  0  0  0  0  0  0  0  0
    1.5076    3.4954    2.1572 H   0  0  0  0  0  0  0  0  0  0  0  0
    1.0220   -0.1954    4.2935 H   0  0  0  0  0  0  0  0  0  0  0  0
   -0.4005   -1.1018    2.5055 H   0  0  0  0  0  0  0  0  0  0  0  0
  1  2  1  0
  2  3  1  0
  3  4  1  0
  4  5  1  0
  5  6  1  0
  6  7  2  0
  6  8  1  0
  8  9  2  0
  9  3  1  0
  1 10  1  0
  1 11  1  0
  1 12  1  0
  3 13  1  0
  4 14  1  0
  4 15  1  0
  5 16  1  0
  5 17  1  0
  8 18  1  0
  9 19  1  0
M  END
$$$$
