gdb 2443	2.2368574	1.94677	1.5801761	2.3641	74.61	-0.22021	0.07176	0.29197	963.3408	0.157203	-422.532922	-422.524935	-422.523991	-422.564722	31.677
 OpenBabel02181911413D

 19 21  0  0  1  0  0  0  0  0999 V2000
    0.0335   -0.1114   -0.1254 C   0  0  0  0  0  0  0  0  0  0  0  0
    1.5269   -0.1192    0.0189 C   0  0  2  0  0  0  0  0  0  0  0  0
    2.1662   -1.1626   -0.7019 O   0  0  0  0  0  0  0  0  0  0  0  0
    3.4465   -0.6659   -1.1146 C   0  0  0  0  0  0  0  0  0  0  0  0
    3.7447    0.4585   -0.1252 C   0  0  2  0  0  0  0  0  0  0  0  0
    3.6391   -0.0793    1.3406 C   0  0  0  0  0  0  0  0  0  0  0  0
    2.1624    0.3097    1.3534 C   0  0  1  0  0  0  0  0  0  0  0  0
    2.3401    1.1162    0.0549 C   0  0  2  0  0  0  0  0  0  0  0  0
    1.8988    2.3471   -0.3769 O   0  0  0  0  0  0  0  0  0  0  0  0
   -0.4010    0.7209    0.4340 H   0  0  0  0  0  0  0  0  0  0  0  0
   -0.2489   -0.0030   -1.1767 H   0  0  0  0  0  0  0  0  0  0  0  0
   -0.3952   -1.0457    0.2501 H   0  0  0  0  0  0  0  0  0  0  0  0
    4.1631   -1.4927   -1.0711 H   0  0  0  0  0  0  0  0  0  0  0  0
    3.4000   -0.2893   -2.1486 H   0  0  0  0  0  0  0  0  0  0  0  0
    4.5975    1.0905   -0.3721 H   0  0  0  0  0  0  0  0  0  0  0  0
    3.8775   -1.1390    1.4784 H   0  0  0  0  0  0  0  0  0  0  0  0
    4.2278    0.5177    2.0420 H   0  0  0  0  0  0  0  0  0  0  0  0
    1.5470    0.5101    2.2242 H   0  0  0  0  0  0  0  0  0  0  0  0
    2.3375    3.0304    0.1424 H   0  0  0  0  0  0  0  0  0  0  0  0
  1 12  1  0  0  0  0
  1 10  1  0  0  0  0
  2  1  1  6  0  0  0
  2  8  1  0  0  0  0
  2  7  1  0  0  0  0
  3  2  1  0  0  0  0
  4 13  1  0  0  0  0
  4  3  1  0  0  0  0
  4  5  1  0  0  0  0
  5 15  1  6  0  0  0
  5  8  1  0  0  0  0
  5  6  1  0  0  0  0
  6  7  1  0  0  0  0
  6 16  1  0  0  0  0
  6 17  1  0  0  0  0
  7 18  1  1  0  0  0
  8  9  1  6  0  0  0
  8  7  1  0  0  0  0
  9 19  1  0  0  0  0
 11  1  1  0  0  0  0
 14  4  1  0  0  0  0
M TOR 0 0 1 2 3
M TOR 1 0 1 6 5
M TOR 2 0 1 6 7
M TOR 3 0 1 6 17
M TOR 4 0 1 7 4
M TOR 5 0 1 7 8
M TOR 6 1 2 3 4
M TOR 7 1 2 3 12
M TOR 8 1 2 3 13
M TOR 9 1 6 5 4
M TOR 10 1 6 5 15
M TOR 11 1 6 5 16
M TOR 12 1 6 7 4
M TOR 13 1 6 7 8
M TOR 14 1 7 4 3
M TOR 15 1 7 4 5
M TOR 16 1 7 4 14
M TOR 17 1 7 6 5
M TOR 18 1 7 6 17
M TOR 19 1 7 8 18
M TOR 20 2 1 0 9
M TOR 21 2 1 0 10
M TOR 22 2 1 0 11
M TOR 23 2 1 6 5
M TOR 24 2 1 6 7
M TOR 25 2 1 6 17
M TOR 26 2 1 7 4
M TOR 27 2 1 7 8
M TOR 28 2 3 4 5
M TOR 29 2 3 4 7
M TOR 30 2 3 4 14
M TOR 31 3 2 1 6
M TOR 32 3 2 1 7
M TOR 33 3 4 5 6
M TOR 34 3 4 5 15
M TOR 35 3 4 5 16
M TOR 36 3 4 7 6
M TOR 37 3 4 7 8
M TOR 38 4 5 6 7
M TOR 39 4 5 6 17
M TOR 40 4 7 6 17
M TOR 41 4 7 8 18
M TOR 42 5 4 3 12
M TOR 43 5 4 3 13
M TOR 44 5 4 7 8
M TOR 45 5 6 7 8
M TOR 46 6 1 0 9
M TOR 47 6 1 0 10
M TOR 48 6 1 0 11
M TOR 49 6 5 4 14
M TOR 50 6 7 4 14
M TOR 51 6 7 8 18
M TOR 52 7 1 0 9
M TOR 53 7 1 0 10
M TOR 54 7 1 0 11
M TOR 55 7 4 3 12
M TOR 56 7 4 3 13
M TOR 57 7 4 5 15
M TOR 58 7 4 5 16
M TOR 59 7 6 5 15
M TOR 60 7 6 5 16
M TOR 61 8 7 4 14
M TOR 62 8 7 6 17
M  END
$$$$
