gdb 3206	3.0489731	1.3408418	1.1515749	2.5237	75.83	-0.22138	0.06097	0.28235	1129.3513	0.154745	-422.490516	-422.481701	-422.480757	-422.523395	33.893
 OpenBabel02181911413D

 19 21  0  0  1  0  0  0  0  0999 V2000
   -1.8058   -1.0397   -0.8204 C   0  0  0  0  0  0  0  0  0  0  0  0
   -1.9630   -0.0304    0.2755 C   0  0  1  0  0  0  0  0  0  0  0  0
   -0.8203    0.8359    0.8213 C   0  0  1  0  0  0  0  0  0  0  0  0
    0.2932    0.9798   -0.0092 O   0  0  0  0  0  0  0  0  0  0  0  0
   -2.0557    1.4846    0.2833 C   0  0  2  0  0  0  0  0  0  0  0  0
   -3.0831    1.4961    1.2783 O   0  0  0  0  0  0  0  0  0  0  0  0
   -3.0905    0.0552    1.2785 C   0  0  0  0  0  0  0  0  0  0  0  0
   -3.4031   -0.7325    2.5062 C   0  0  0  0  0  0  0  0  0  0  0  0
   -4.3724   -0.7048    1.3284 C   0  0  0  0  0  0  0  0  0  0  0  0
   -1.5855   -2.0372   -0.4192 H   0  0  0  0  0  0  0  0  0  0  0  0
   -2.7142   -1.1179   -1.4265 H   0  0  0  0  0  0  0  0  0  0  0  0
   -0.9827   -0.7558   -1.4819 H   0  0  0  0  0  0  0  0  0  0  0  0
   -0.6292    0.8784    1.8954 H   0  0  0  0  0  0  0  0  0  0  0  0
    0.8219    0.1767    0.0521 H   0  0  0  0  0  0  0  0  0  0  0  0
   -2.0728    2.2328   -0.5005 H   0  0  0  0  0  0  0  0  0  0  0  0
   -2.8447   -1.6428    2.6999 H   0  0  0  0  0  0  0  0  0  0  0  0
   -3.6826   -0.1730    3.3922 H   0  0  0  0  0  0  0  0  0  0  0  0
   -4.4727   -1.5964    0.7179 H   0  0  0  0  0  0  0  0  0  0  0  0
   -5.2817   -0.1247    1.4424 H   0  0  0  0  0  0  0  0  0  0  0  0
  1 10  1  0  0  0  0
  2  1  1  6  0  0  0
  2  5  1  0  0  0  0
  2  3  1  0  0  0  0
  2  7  1  0  0  0  0
  3 13  1  1  0  0  0
  4 14  1  0  0  0  0
  4  3  1  0  0  0  0
  5 15  1  6  0  0  0
  5  3  1  0  0  0  0
  5  6  1  0  0  0  0
  6  7  1  0  0  0  0
  7  9  1  0  0  0  0
  7  8  1  0  0  0  0
  8 16  1  0  0  0  0
  8 17  1  0  0  0  0
  9 19  1  0  0  0  0
  9  8  1  0  0  0  0
 11  1  1  0  0  0  0
 12  1  1  0  0  0  0
 18  9  1  0  0  0  0
M TOR 0 0 1 2 3
M TOR 1 0 1 2 4
M TOR 2 0 1 2 12
M TOR 3 0 1 4 5
M TOR 4 0 1 4 14
M TOR 5 0 1 6 5
M TOR 6 0 1 6 7
M TOR 7 0 1 6 8
M TOR 8 1 2 3 13
M TOR 9 1 2 4 5
M TOR 10 1 2 4 14
M TOR 11 1 4 2 3
M TOR 12 1 4 2 12
M TOR 13 1 4 5 6
M TOR 14 1 6 7 8
M TOR 15 1 6 7 15
M TOR 16 1 6 7 16
M TOR 17 1 6 8 17
M TOR 18 1 6 8 18
M TOR 19 2 1 0 9
M TOR 20 2 1 0 10
M TOR 21 2 1 0 11
M TOR 22 2 1 6 5
M TOR 23 2 1 6 7
M TOR 24 2 1 6 8
M TOR 25 2 4 1 6
M TOR 26 2 4 5 6
M TOR 27 3 2 1 6
M TOR 28 3 2 4 5
M TOR 29 3 2 4 14
M TOR 30 4 1 0 9
M TOR 31 4 1 0 10
M TOR 32 4 1 0 11
M TOR 33 4 1 6 7
M TOR 34 4 1 6 8
M TOR 35 4 2 3 13
M TOR 36 4 5 6 7
M TOR 37 4 5 6 8
M TOR 38 5 4 2 12
M TOR 39 5 6 7 8
M TOR 40 5 6 7 15
M TOR 41 5 6 7 16
M TOR 42 5 6 8 17
M TOR 43 5 6 8 18
M TOR 44 6 1 0 9
M TOR 45 6 1 0 10
M TOR 46 6 1 0 11
M TOR 47 6 1 2 12
M TOR 48 6 1 4 14
M TOR 49 6 5 4 14
M TOR 50 6 7 8 17
M TOR 51 6 7 8 18
M TOR 52 6 8 7 15
M TOR 53 6 8 7 16
M  END
$$$$
