gdb 303	2.6052162	2.0451045	1.7858261	1.1811	72.15	-0.23407	0.0792	0.31327	874.2882	0.161324	-422.556295	-422.549883	-422.548939	-422.586771	26.819
 OpenBabel02181911403D

 19 21  0  0  1  0  0  0  0  0999 V2000
   -0.9777   -0.8491    0.9733 C   0  0  0  0  0  0  0  0  0  0  0  0
   -1.2253    0.1737    1.9459 O   0  0  0  0  0  0  0  0  0  0  0  0
   -0.3897    1.3018    1.6692 C   0  0  1  0  0  0  0  0  0  0  0  0
    1.0133    1.1289    2.2729 C   0  0  0  0  0  0  0  0  0  0  0  0
    1.8124    0.0600    1.4830 C   0  0  0  0  0  0  0  0  0  0  0  0
    1.3449    0.1110    0.0272 C   0  0  2  0  0  0  0  0  0  0  0  0
    1.1096    1.5142   -0.3109 O   0  0  0  0  0  0  0  0  0  0  0  0
   -0.2580    1.3322    0.1180 C   0  0  1  0  0  0  0  0  0  0  0  0
   -0.1832   -0.1806   -0.1370 C   0  0  2  0  0  0  0  0  0  0  0  0
   -0.4491   -1.6962    1.4323 H   0  0  0  0  0  0  0  0  0  0  0  0
   -1.9446   -1.2179    0.6108 H   0  0  0  0  0  0  0  0  0  0  0  0
   -0.8979    2.1736    2.0887 H   0  0  0  0  0  0  0  0  0  0  0  0
    1.5349    2.0876    2.2031 H   0  0  0  0  0  0  0  0  0  0  0  0
    0.9278    0.8707    3.3315 H   0  0  0  0  0  0  0  0  0  0  0  0
    2.8852    0.2687    1.5385 H   0  0  0  0  0  0  0  0  0  0  0  0
    1.6635   -0.9454    1.8931 H   0  0  0  0  0  0  0  0  0  0  0  0
    2.0297   -0.3664   -0.6780 H   0  0  0  0  0  0  0  0  0  0  0  0
   -0.9605    1.9869   -0.4006 H   0  0  0  0  0  0  0  0  0  0  0  0
   -0.4383   -0.5067   -1.1448 H   0  0  0  0  0  0  0  0  0  0  0  0
  1 10  1  0  0  0  0
  1  2  1  0  0  0  0
  3  2  1  0  0  0  0
  3 12  1  1  0  0  0
  3  4  1  0  0  0  0
  4 14  1  0  0  0  0
  5 15  1  0  0  0  0
  5 16  1  0  0  0  0
  5  4  1  0  0  0  0
  6 17  1  6  0  0  0
  6  5  1  0  0  0  0
  7  6  1  0  0  0  0
  7  8  1  0  0  0  0
  8 18  1  6  0  0  0
  8  3  1  0  0  0  0
  9 19  1  6  0  0  0
  9  6  1  0  0  0  0
  9  8  1  0  0  0  0
  9  1  1  0  0  0  0
 11  1  1  0  0  0  0
 13  4  1  0  0  0  0
M TOR 0 0 1 2 3
M TOR 1 0 1 2 7
M TOR 2 0 1 2 11
M TOR 3 0 8 5 4
M TOR 4 0 8 5 6
M TOR 5 0 8 5 16
M TOR 6 0 8 7 2
M TOR 7 0 8 7 6
M TOR 8 0 8 7 17
M TOR 9 1 0 8 5
M TOR 10 1 0 8 7
M TOR 11 1 0 8 18
M TOR 12 1 2 3 4
M TOR 13 1 2 3 12
M TOR 14 1 2 3 13
M TOR 15 1 2 7 6
M TOR 16 1 2 7 8
M TOR 17 1 2 7 17
M TOR 18 2 1 0 8
M TOR 19 2 1 0 9
M TOR 20 2 1 0 10
M TOR 21 2 3 4 5
M TOR 22 2 3 4 14
M TOR 23 2 3 4 15
M TOR 24 2 7 6 5
M TOR 25 2 7 8 5
M TOR 26 2 7 8 18
M TOR 27 3 2 7 6
M TOR 28 3 2 7 8
M TOR 29 3 2 7 17
M TOR 30 3 4 5 6
M TOR 31 3 4 5 8
M TOR 32 3 4 5 16
M TOR 33 4 3 2 7
M TOR 34 4 3 2 11
M TOR 35 4 5 6 7
M TOR 36 4 5 8 7
M TOR 37 4 5 8 18
M TOR 38 5 4 3 12
M TOR 39 5 4 3 13
M TOR 40 5 6 7 8
M TOR 41 5 6 7 17
M TOR 42 5 8 0 9
M TOR 43 5 8 0 10
M TOR 44 5 8 7 17
M TOR 45 6 5 4 14
M TOR 46 6 5 4 15
M TOR 47 6 5 8 18
M TOR 48 6 7 2 11
M TOR 49 6 7 8 18
M TOR 50 7 2 3 12
M TOR 51 7 2 3 13
M TOR 52 7 6 5 16
M TOR 53 7 8 0 9
M TOR 54 7 8 0 10
M TOR 55 7 8 5 16
M TOR 56 8 5 4 14
M TOR 57 8 5 4 15
M TOR 58 8 7 2 11
M  END
$$$$
