
     RDKit          3D

 19 19  0  0  0  0  0  0  0  0999 V2000
   -4.3996    3.5281   -1.6346 O   0  0  0  0  0  0  0  0  0  0  0  0
   -3.8826    2.6160   -1.0455 C   0  0  0  0  0  0  0  0  0  0  0  0
   -2.5049    2.6370   -0.4264 C   0  0  0  0  0  0  0  0  0  0  0  0
   -2.5365    2.2970    1.0872 C   0  0  0  0  0  0  0  0  0  0  0  0
   -1.2393    1.4901    1.3807 C   0  0  0  0  0  0  0  0  0  0  0  0
   -0.4712    1.4001    0.0367 C   0  0  0  0  0  0  0  0  0  0  0  0
   -1.5799    1.5561   -1.0259 C   0  0  0  0  0  0  0  0  0  0  0  0
    0.2785    0.0967   -0.1067 C   0  0  0  0  0  0  0  0  0  0  0  0
    1.4599   -0.0136   -0.3032 O   0  0  0  0  0  0  0  0  0  0  0  0
   -4.4142    1.6415   -0.9109 H   0  0  0  0  0  0  0  0  0  0  0  0
   -2.0760    3.6288   -0.5951 H   0  0  0  0  0  0  0  0  0  0  0  0
   -2.6091    3.2046    1.6903 H   0  0  0  0  0  0  0  0  0  0  0  0
   -3.4208    1.6932    1.3210 H   0  0  0  0  0  0  0  0  0  0  0  0
   -0.6244    1.9534    2.1553 H   0  0  0  0  0  0  0  0  0  0  0  0
   -1.4904    0.4848    1.7380 H   0  0  0  0  0  0  0  0  0  0  0  0
    0.2514    2.2159   -0.0562 H   0  0  0  0  0  0  0  0  0  0  0  0
   -1.1933    1.8235   -2.0122 H   0  0  0  0  0  0  0  0  0  0  0  0
   -2.1309    0.6099   -1.1303 H   0  0  0  0  0  0  0  0  0  0  0  0
   -0.3768   -0.8045   -0.0132 H   0  0  0  0  0  0  0  0  0  0  0  0
  1  2  2  0
  2  3  1  0
  3  4  1  0
  4  5  1  0
  5  6  1  0
  6  7  1  0
  6  8  1  0
  8  9  2  0
  7  3  1  0
  2 10  1  0
  3 11  1  0
  4 12  1  0
  4 13  1  0
  5 14  1  0
  5 15  1  0
  6 16  1  0
  7 17  1  0
  7 18  1  0
  8 19  1  0
M  END
$$$$
