
     RDKit          3D

 19 20  0  0  0  0  0  0  0  0999 V2000
   -3.1473    0.2192    1.2396 C   0  0  0  0  0  0  0  0  0  0  0  0
   -2.0325    0.0169    0.2575 C   0  0  0  0  0  0  0  0  0  0  0  0
   -0.9908    1.0757   -0.1385 C   0  0  0  0  0  0  0  0  0  0  0  0
    0.0741   -0.0483   -0.0780 C   0  0  0  0  0  0  0  0  0  0  0  0
    1.2744   -0.0326   -0.0647 O   0  0  0  0  0  0  0  0  0  0  0  0
   -0.9293   -1.1142    0.2244 C   0  0  0  0  0  0  0  0  0  0  0  0
   -0.6787   -2.3544    1.0321 C   0  0  0  0  0  0  0  0  0  0  0  0
   -2.0464   -1.0215   -0.8168 C   0  0  0  0  0  0  0  0  0  0  0  0
   -2.9597   -2.0737   -0.7026 O   0  0  0  0  0  0  0  0  0  0  0  0
   -3.6783   -0.7186    1.4225 H   0  0  0  0  0  0  0  0  0  0  0  0
   -2.7726    0.5922    2.1987 H   0  0  0  0  0  0  0  0  0  0  0  0
   -3.8718    0.9526    0.8638 H   0  0  0  0  0  0  0  0  0  0  0  0
   -1.1371    1.5872   -1.0962 H   0  0  0  0  0  0  0  0  0  0  0  0
   -0.7984    1.8216    0.6391 H   0  0  0  0  0  0  0  0  0  0  0  0
   -1.5880   -2.9501    1.1282 H   0  0  0  0  0  0  0  0  0  0  0  0
    0.0821   -2.9714    0.5420 H   0  0  0  0  0  0  0  0  0  0  0  0
   -0.3076   -2.1069    2.0315 H   0  0  0  0  0  0  0  0  0  0  0  0
   -1.8088   -0.7497   -1.8485 H   0  0  0  0  0  0  0  0  0  0  0  0
   -3.8151   -1.7604   -1.0151 H   0  0  0  0  0  0  0  0  0  0  0  0
  1  2  1  0
  2  3  1  0
  3  4  1  0
  4  5  2  0
  4  6  1  0
  6  7  1  0
  6  8  1  0
  8  9  1  0
  6  2  1  0
  8  2  1  0
  1 10  1  0
  1 11  1  0
  1 12  1  0
  3 13  1  0
  3 14  1  0
  7 15  1  0
  7 16  1  0
  7 17  1  0
  8 18  1  0
  9 19  1  0
M  END
$$$$
