
     RDKit          3D

 19 19  0  0  0  0  0  0  0  0999 V2000
   -3.4641    1.3978    2.5325 C   0  0  0  0  0  0  0  0  0  0  0  0
   -2.5761    0.6427    1.5490 C   0  0  0  0  0  0  0  0  0  0  0  0
   -2.3984   -0.8234    1.9460 C   0  0  0  0  0  0  0  0  0  0  0  0
   -1.4809   -1.6440    1.0918 C   0  0  0  0  0  0  0  0  0  0  0  0
   -0.6143   -1.2819    0.1353 C   0  0  0  0  0  0  0  0  0  0  0  0
   -0.2643    0.0512   -0.4050 C   0  0  0  0  0  0  0  0  0  0  0  0
    0.4139    0.1324   -1.4121 O   0  0  0  0  0  0  0  0  0  0  0  0
   -0.7052    1.3610    0.2582 C   0  0  0  0  0  0  0  0  0  0  0  0
   -1.3090    1.2892    1.5229 O   0  0  0  0  0  0  0  0  0  0  0  0
   -4.4492    0.9278    2.6126 H   0  0  0  0  0  0  0  0  0  0  0  0
   -3.0028    1.4094    3.5249 H   0  0  0  0  0  0  0  0  0  0  0  0
   -3.5972    2.4324    2.2067 H   0  0  0  0  0  0  0  0  0  0  0  0
   -3.0275    0.6877    0.5450 H   0  0  0  0  0  0  0  0  0  0  0  0
   -2.0278   -0.8649    2.9817 H   0  0  0  0  0  0  0  0  0  0  0  0
   -3.3805   -1.3160    1.9708 H   0  0  0  0  0  0  0  0  0  0  0  0
   -1.5451   -2.7129    1.2943 H   0  0  0  0  0  0  0  0  0  0  0  0
   -0.0673   -2.0646   -0.3846 H   0  0  0  0  0  0  0  0  0  0  0  0
    0.1962    1.9707    0.3715 H   0  0  0  0  0  0  0  0  0  0  0  0
   -1.3522    1.8798   -0.4689 H   0  0  0  0  0  0  0  0  0  0  0  0
  1  2  1  0
  2  3  1  0
  3  4  1  0
  4  5  2  0
  5  6  1  0
  6  7  2  0
  6  8  1  0
  8  9  1  0
  9  2  1  0
  1 10  1  0
  1 11  1  0
  1 12  1  0
  2 13  1  0
  3 14  1  0
  3 15  1  0
  4 16  1  0
  5 17  1  0
  8 18  1  0
  8 19  1  0
M  END
$$$$
