gdb 3874	2.7081614	1.3574158	1.0049159	0.8042	78.59	-0.23754	0.00744	0.24498	1205.8482	0.155782	-422.554671	-422.545693	-422.544749	-422.588477	33.56
 OpenBabel02181911413D

 19 20  0  0  1  0  0  0  0  0999 V2000
    1.3783    0.6700   -0.3137 C   0  0  0  0  0  0  0  0  0  0  0  0
   -0.0205    0.2008   -0.0746 C   0  0  0  0  0  0  0  0  0  0  0  0
   -1.1584    0.8794   -0.2398 C   0  0  0  0  0  0  0  0  0  0  0  0
   -2.3836    0.1118    0.1836 C   0  0  1  0  0  0  0  0  0  0  0  0
   -3.3560    0.1544   -0.8572 O   0  0  0  0  0  0  0  0  0  0  0  0
   -1.8340   -1.3116    0.4684 C   0  0  0  0  0  0  0  0  0  0  0  0
   -0.3152   -1.1574    0.4799 C   0  0  1  0  0  0  0  0  0  0  0  0
    0.6235   -2.2872    0.4714 C   0  0  0  0  0  0  0  0  0  0  0  0
    0.4038   -1.5435    1.6715 O   0  0  0  0  0  0  0  0  0  0  0  0
    1.9897    0.5061    0.5810 H   0  0  0  0  0  0  0  0  0  0  0  0
    1.8515    0.1135   -1.1320 H   0  0  0  0  0  0  0  0  0  0  0  0
    1.4074    1.7324   -0.5665 H   0  0  0  0  0  0  0  0  0  0  0  0
   -1.2357    1.8951   -0.6118 H   0  0  0  0  0  0  0  0  0  0  0  0
   -2.8093    0.5605    1.0960 H   0  0  0  0  0  0  0  0  0  0  0  0
   -4.1777   -0.2040   -0.5072 H   0  0  0  0  0  0  0  0  0  0  0  0
   -2.1879   -1.7460    1.4065 H   0  0  0  0  0  0  0  0  0  0  0  0
   -2.1482   -1.9580   -0.3569 H   0  0  0  0  0  0  0  0  0  0  0  0
    0.2273   -3.3030    0.4708 H   0  0  0  0  0  0  0  0  0  0  0  0
    1.6136   -2.1823    0.0290 H   0  0  0  0  0  0  0  0  0  0  0  0
  1  2  1  0  0  0  0
  1 10  1  0  0  0  0
  3  2  2  0  0  0  0
  3  4  1  0  0  0  0
  4  6  1  0  0  0  0
  4 14  1  1  0  0  0
  5 15  1  0  0  0  0
  5  4  1  0  0  0  0
  6  7  1  0  0  0  0
  6 16  1  0  0  0  0
  7  2  1  6  0  0  0
  7  9  1  0  0  0  0
  8  7  1  0  0  0  0
  8  9  1  0  0  0  0
 11  1  1  0  0  0  0
 12  1  1  0  0  0  0
 13  3  1  0  0  0  0
 17  6  1  0  0  0  0
 18  8  1  0  0  0  0
 19  8  1  0  0  0  0
M TOR 0 0 1 2 3
M TOR 1 0 1 2 12
M TOR 2 0 1 6 5
M TOR 3 0 1 6 7
M TOR 4 0 1 6 8
M TOR 5 1 2 3 4
M TOR 6 1 2 3 5
M TOR 7 1 2 3 13
M TOR 8 1 6 5 3
M TOR 9 1 6 5 15
M TOR 10 1 6 5 16
M TOR 11 1 6 7 8
M TOR 12 1 6 7 17
M TOR 13 1 6 7 18
M TOR 14 2 1 0 9
M TOR 15 2 1 0 10
M TOR 16 2 1 0 11
M TOR 17 2 1 6 5
M TOR 18 2 1 6 7
M TOR 19 2 1 6 8
M TOR 20 2 3 4 14
M TOR 21 2 3 5 6
M TOR 22 2 3 5 15
M TOR 23 2 3 5 16
M TOR 24 3 2 1 6
M TOR 25 3 5 6 7
M TOR 26 3 5 6 8
M TOR 27 4 3 2 12
M TOR 28 4 3 5 6
M TOR 29 4 3 5 15
M TOR 30 4 3 5 16
M TOR 31 5 3 2 12
M TOR 32 5 3 4 14
M TOR 33 5 6 7 8
M TOR 34 5 6 7 17
M TOR 35 5 6 7 18
M TOR 36 6 1 0 9
M TOR 37 6 1 0 10
M TOR 38 6 1 0 11
M TOR 39 6 1 2 12
M TOR 40 6 5 3 13
M TOR 41 6 8 7 17
M TOR 42 6 8 7 18
M TOR 43 7 6 5 15
M TOR 44 7 6 5 16
M TOR 45 8 6 5 15
M TOR 46 8 6 5 16
M  END
$$$$
