
     RDKit          3D

 19 18  0  0  0  0  0  0  0  0999 V2000
    0.0162   -4.8960   -0.2821 C   0  0  0  0  0  0  0  0  0  0  0  0
   -0.7512   -3.5779   -0.0547 C   0  0  0  0  0  0  0  0  0  0  0  0
    0.2072   -2.3863   -0.1556 C   0  0  0  0  0  0  0  0  0  0  0  0
   -0.5737   -1.1848   -0.1038 O   0  0  0  0  0  0  0  0  0  0  0  0
    0.1269   -0.0296   -0.0760 C   0  0  0  0  0  0  0  0  0  0  0  0
   -0.8050    1.1548    0.0036 C   0  0  0  0  0  0  0  0  0  0  0  0
    1.3301    0.0192   -0.1095 O   0  0  0  0  0  0  0  0  0  0  0  0
   -1.4556   -3.5903    1.2265 C   0  0  0  0  0  0  0  0  0  0  0  0
   -2.0148   -3.6251    2.2897 C   0  0  0  0  0  0  0  0  0  0  0  0
    0.7869   -5.0335    0.4821 H   0  0  0  0  0  0  0  0  0  0  0  0
   -0.6650   -5.7480   -0.2309 H   0  0  0  0  0  0  0  0  0  0  0  0
    0.4980   -4.8947   -1.2647 H   0  0  0  0  0  0  0  0  0  0  0  0
   -1.4940   -3.4646   -0.8556 H   0  0  0  0  0  0  0  0  0  0  0  0
    0.9333   -2.3896    0.6623 H   0  0  0  0  0  0  0  0  0  0  0  0
    0.7600   -2.4199   -1.1003 H   0  0  0  0  0  0  0  0  0  0  0  0
   -1.3998    1.0989    0.9198 H   0  0  0  0  0  0  0  0  0  0  0  0
   -0.2232    2.0756   -0.0067 H   0  0  0  0  0  0  0  0  0  0  0  0
   -1.5035    1.1422   -0.8377 H   0  0  0  0  0  0  0  0  0  0  0  0
   -2.5182   -3.6475    3.2243 H   0  0  0  0  0  0  0  0  0  0  0  0
  1  2  1  0
  2  3  1  0
  3  4  1  0
  4  5  1  0
  5  6  1  0
  5  7  2  0
  2  8  1  0
  8  9  3  0
  1 10  1  0
  1 11  1  0
  1 12  1  0
  2 13  1  0
  3 14  1  0
  3 15  1  0
  6 16  1  0
  6 17  1  0
  6 18  1  0
  9 19  1  0
M  END
$$$$
