
     RDKit          3D

 19 19  0  0  0  0  0  0  0  0999 V2000
    2.0927    0.7879    4.8790 C   0  0  0  0  0  0  0  0  0  0  0  0
    1.8298    0.5376    3.4271 C   0  0  0  0  0  0  0  0  0  0  0  0
    2.7458    0.4040    2.4318 C   0  0  0  0  0  0  0  0  0  0  0  0
    2.1396    0.1784    1.2367 O   0  0  0  0  0  0  0  0  0  0  0  0
    0.7922    0.1762    1.4690 C   0  0  0  0  0  0  0  0  0  0  0  0
   -0.0863   -0.0591    0.2822 C   0  0  0  0  0  0  0  0  0  0  0  0
   -1.0883   -1.0456    0.5111 O   0  0  0  0  0  0  0  0  0  0  0  0
    0.5412    0.3871    2.7943 C   0  0  0  0  0  0  0  0  0  0  0  0
   -0.7980    0.4630    3.4623 C   0  0  0  0  0  0  0  0  0  0  0  0
    1.6845   -0.0129    5.5071 H   0  0  0  0  0  0  0  0  0  0  0  0
    3.1652    0.8543    5.0813 H   0  0  0  0  0  0  0  0  0  0  0  0
    1.6312    1.7230    5.2175 H   0  0  0  0  0  0  0  0  0  0  0  0
    3.8234    0.4391    2.4140 H   0  0  0  0  0  0  0  0  0  0  0  0
   -0.6420    0.8462    0.0123 H   0  0  0  0  0  0  0  0  0  0  0  0
    0.5560   -0.3139   -0.5735 H   0  0  0  0  0  0  0  0  0  0  0  0
   -0.6452   -1.8253    0.8629 H   0  0  0  0  0  0  0  0  0  0  0  0
   -0.8379   -0.1809    4.3488 H   0  0  0  0  0  0  0  0  0  0  0  0
   -1.0234    1.4816    3.8018 H   0  0  0  0  0  0  0  0  0  0  0  0
   -1.5888    0.1448    2.7802 H   0  0  0  0  0  0  0  0  0  0  0  0
  1  2  1  0
  2  3  2  0
  3  4  1  0
  4  5  1  0
  5  6  1  0
  6  7  1  0
  5  8  2  0
  8  9  1  0
  8  2  1  0
  1 10  1  0
  1 11  1  0
  1 12  1  0
  3 13  1  0
  6 14  1  0
  6 15  1  0
  7 16  1  0
  9 17  1  0
  9 18  1  0
  9 19  1  0
M  END
$$$$
