gdb 3872	3.7015956	1.2198281	1.1145689	2.8841	75.86	-0.24982	-0.03371	0.21611	1141.6303	0.156285	-422.553016	-422.544619	-422.543675	-422.586999	31.504
 OpenBabel02181911413D

 19 20  0  0  1  0  0  0  0  0999 V2000
   -0.0426    0.0961    0.2287 C   0  0  0  0  0  0  0  0  0  0  0  0
    1.4469    0.0132   -0.0573 C   0  0  2  0  0  0  0  0  0  0  0  0
    2.1567   -0.6381    1.0359 O   0  0  0  0  0  0  0  0  0  0  0  0
    3.1788    0.3185    1.3427 C   0  0  2  0  0  0  0  0  0  0  0  0
    2.4059    1.6706    1.3893 C   0  0  0  0  0  0  0  0  0  0  0  0
    2.2404    1.3341   -0.1252 C   0  0  1  0  0  0  0  0  0  0  0  0
    3.6945    0.7718   -0.0516 C   0  0  0  0  0  0  0  0  0  0  0  0
    4.0646   -0.1545    2.4540 C   0  0  0  0  0  0  0  0  0  0  0  0
    5.0587    0.4342    2.7983 O   0  0  0  0  0  0  0  0  0  0  0  0
   -0.2591    0.7236    1.0971 H   0  0  0  0  0  0  0  0  0  0  0  0
   -0.5709    0.5076   -0.6381 H   0  0  0  0  0  0  0  0  0  0  0  0
   -0.4413   -0.9033    0.4257 H   0  0  0  0  0  0  0  0  0  0  0  0
    1.6061   -0.5774   -0.9696 H   0  0  0  0  0  0  0  0  0  0  0  0
    1.5238    1.7100    2.0305 H   0  0  0  0  0  0  0  0  0  0  0  0
    3.0626    2.5219    1.5675 H   0  0  0  0  0  0  0  0  0  0  0  0
    1.9279    2.0710   -0.8641 H   0  0  0  0  0  0  0  0  0  0  0  0
    3.9810   -0.0212   -0.7464 H   0  0  0  0  0  0  0  0  0  0  0  0
    4.4617    1.5429    0.0130 H   0  0  0  0  0  0  0  0  0  0  0  0
    3.7291   -1.0919    2.9481 H   0  0  0  0  0  0  0  0  0  0  0  0
  1 12  1  0  0  0  0
  1 10  1  0  0  0  0
  2 13  1  6  0  0  0
  2  1  1  0  0  0  0
  2  3  1  0  0  0  0
  3  4  1  0  0  0  0
  4  5  1  0  0  0  0
  4  8  1  1  0  0  0
  5 15  1  0  0  0  0
  5 14  1  0  0  0  0
  6 16  1  6  0  0  0
  6  2  1  0  0  0  0
  6  7  1  0  0  0  0
  6  5  1  0  0  0  0
  7 18  1  0  0  0  0
  7  4  1  0  0  0  0
  8  9  2  0  0  0  0
  8 19  1  0  0  0  0
 11  1  1  0  0  0  0
 17  7  1  0  0  0  0
M TOR 0 0 1 2 3
M TOR 1 0 1 5 4
M TOR 2 0 1 5 6
M TOR 3 0 1 5 15
M TOR 4 1 2 3 4
M TOR 5 1 2 3 6
M TOR 6 1 2 3 7
M TOR 7 1 5 4 3
M TOR 8 1 5 4 13
M TOR 9 1 5 4 14
M TOR 10 1 5 6 3
M TOR 11 1 5 6 16
M TOR 12 1 5 6 17
M TOR 13 2 1 0 9
M TOR 14 2 1 0 10
M TOR 15 2 1 0 11
M TOR 16 2 1 5 4
M TOR 17 2 1 5 6
M TOR 18 2 1 5 15
M TOR 19 2 3 4 5
M TOR 20 2 3 4 13
M TOR 21 2 3 4 14
M TOR 22 2 3 6 5
M TOR 23 2 3 6 16
M TOR 24 2 3 6 17
M TOR 25 2 3 7 8
M TOR 26 2 3 7 18
M TOR 27 3 2 1 5
M TOR 28 3 2 1 12
M TOR 29 3 4 5 6
M TOR 30 3 4 5 15
M TOR 31 3 6 5 15
M TOR 32 4 3 6 16
M TOR 33 4 3 6 17
M TOR 34 4 3 7 8
M TOR 35 4 3 7 18
M TOR 36 4 5 1 12
M TOR 37 4 5 6 16
M TOR 38 4 5 6 17
M TOR 39 5 1 0 9
M TOR 40 5 1 0 10
M TOR 41 5 1 0 11
M TOR 42 5 4 3 7
M TOR 43 5 6 3 7
M TOR 44 6 3 4 13
M TOR 45 6 3 4 14
M TOR 46 6 3 7 8
M TOR 47 6 3 7 18
M TOR 48 6 5 1 12
M TOR 49 6 5 4 13
M TOR 50 6 5 4 14
M TOR 51 7 3 4 13
M TOR 52 7 3 4 14
M TOR 53 7 3 6 16
M TOR 54 7 3 6 17
M  END
$$$$
