gdb 1224	2.5973996	0.9225002	0.8210894	3.0966	78.71	-0.25443	-0.02564	0.22879	1475.3858	0.150991	-422.524057	-422.513179	-422.512235	-422.560618	38.085
 OpenBabel02181911403D

 19 18  0  0  0  0  0  0  0  0999 V2000
   -1.4199    3.0256   -1.2868 C   0  0  0  0  0  0  0  0  0  0  0  0
   -1.5013    2.1959    0.0080 C   0  0  0  0  0  0  0  0  0  0  0  0
   -1.8682    3.0864    1.2031 C   0  0  0  0  0  0  0  0  0  0  0  0
   -0.2183    1.6510    0.3527 O   0  0  0  0  0  0  0  0  0  0  0  0
    0.3427    0.7051   -0.5280 C   0  0  0  0  0  0  0  0  0  0  0  0
    1.4668   -0.0007    0.2098 C   0  0  0  0  0  0  0  0  0  0  0  0
    2.3077   -0.6663   -0.3332 O   0  0  0  0  0  0  0  0  0  0  0  0
   -2.4958    1.1189   -0.1421 C   0  0  0  0  0  0  0  0  0  0  0  0
   -3.3091    0.2424   -0.2678 C   0  0  0  0  0  0  0  0  0  0  0  0
   -1.1872    2.3992   -2.1512 H   0  0  0  0  0  0  0  0  0  0  0  0
   -2.3764    3.5180   -1.4794 H   0  0  0  0  0  0  0  0  0  0  0  0
   -0.6430    3.7882   -1.1802 H   0  0  0  0  0  0  0  0  0  0  0  0
   -1.8946    2.4914    2.1181 H   0  0  0  0  0  0  0  0  0  0  0  0
   -1.1149    3.8710    1.3142 H   0  0  0  0  0  0  0  0  0  0  0  0
   -2.8469    3.5472    1.0512 H   0  0  0  0  0  0  0  0  0  0  0  0
   -0.3952   -0.0576   -0.8254 H   0  0  0  0  0  0  0  0  0  0  0  0
    0.7456    1.1560   -1.4455 H   0  0  0  0  0  0  0  0  0  0  0  0
    1.4319    0.1424    1.3123 H   0  0  0  0  0  0  0  0  0  0  0  0
   -4.0304   -0.5307   -0.3730 H   0  0  0  0  0  0  0  0  0  0  0  0
  1 12  1  0  0  0  0
  1  2  1  0  0  0  0
  2  4  1  0  0  0  0
  2  3  1  0  0  0  0
  3 14  1  0  0  0  0
  3 13  1  0  0  0  0
  5  6  1  0  0  0  0
  5  4  1  0  0  0  0
  6 18  1  0  0  0  0
  7  6  2  0  0  0  0
  8  2  1  0  0  0  0
  9  8  3  0  0  0  0
 10  1  1  0  0  0  0
 11  1  1  0  0  0  0
 15  3  1  0  0  0  0
 16  5  1  0  0  0  0
 17  5  1  0  0  0  0
 19  9  1  0  0  0  0
M TOR 0 0 1 2 12
M TOR 1 0 1 2 13
M TOR 2 0 1 2 14
M TOR 3 0 1 3 4
M TOR 4 0 1 7 8
M TOR 5 1 3 4 5
M TOR 6 1 3 4 15
M TOR 7 1 3 4 16
M TOR 8 1 7 8 18
M TOR 9 2 1 0 9
M TOR 10 2 1 0 10
M TOR 11 2 1 0 11
M TOR 12 2 1 3 4
M TOR 13 2 1 7 8
M TOR 14 3 1 0 9
M TOR 15 3 1 0 10
M TOR 16 3 1 0 11
M TOR 17 3 1 2 12
M TOR 18 3 1 2 13
M TOR 19 3 1 2 14
M TOR 20 3 1 7 8
M TOR 21 3 4 5 6
M TOR 22 3 4 5 17
M TOR 23 4 3 1 7
M TOR 24 6 5 4 15
M TOR 25 6 5 4 16
M TOR 26 7 1 0 9
M TOR 27 7 1 0 10
M TOR 28 7 1 0 11
M TOR 29 7 1 2 12
M TOR 30 7 1 2 13
M TOR 31 7 1 2 14
M  END
$$$$
