
     RDKit          3D

 19 19  0  0  0  0  0  0  0  0999 V2000
   -0.3278   -0.3176    1.1477 O   0  0  0  0  0  0  0  0  0  0  0  0
    0.3953    0.4605    0.1979 C   0  0  0  0  0  0  0  0  0  0  0  0
   -0.3555    0.5981   -1.0951 C   0  0  0  0  0  0  0  0  0  0  0  0
    0.0564    0.3191   -2.3500 C   0  0  0  0  0  0  0  0  0  0  0  0
   -1.0334    0.5684   -3.3718 C   0  0  0  0  0  0  0  0  0  0  0  0
   -2.0876    1.3744   -2.5754 C   0  0  0  0  0  0  0  0  0  0  0  0
   -1.7953    1.0634   -1.0883 C   0  0  0  0  0  0  0  0  0  0  0  0
    1.3648   -0.2033   -2.7470 C   0  0  0  0  0  0  0  0  0  0  0  0
    1.6642   -0.4552   -3.8959 O   0  0  0  0  0  0  0  0  0  0  0  0
   -0.3982   -1.2119    0.7971 H   0  0  0  0  0  0  0  0  0  0  0  0
    0.4998    1.4497    0.6608 H   0  0  0  0  0  0  0  0  0  0  0  0
    1.4082    0.0673    0.0455 H   0  0  0  0  0  0  0  0  0  0  0  0
   -0.6581    1.0941   -4.2539 H   0  0  0  0  0  0  0  0  0  0  0  0
   -1.4313   -0.3881   -3.7354 H   0  0  0  0  0  0  0  0  0  0  0  0
   -1.9429    2.4442   -2.7570 H   0  0  0  0  0  0  0  0  0  0  0  0
   -3.1135    1.1347   -2.8642 H   0  0  0  0  0  0  0  0  0  0  0  0
   -1.9499    1.9213   -0.4238 H   0  0  0  0  0  0  0  0  0  0  0  0
   -2.4370    0.2641   -0.6944 H   0  0  0  0  0  0  0  0  0  0  0  0
    2.0968   -0.3678   -1.9275 H   0  0  0  0  0  0  0  0  0  0  0  0
  1  2  1  0
  2  3  1  0
  3  4  2  0
  4  5  1  0
  5  6  1  0
  6  7  1  0
  4  8  1  0
  8  9  2  0
  7  3  1  0
  1 10  1  0
  2 11  1  0
  2 12  1  0
  5 13  1  0
  5 14  1  0
  6 15  1  0
  6 16  1  0
  7 17  1  0
  7 18  1  0
  8 19  1  0
M  END
$$$$
