gdb 679	3.1929172	1.3668587	1.0976237	2.4542	75.15	-0.23834	-0.01637	0.22197	1116.48	0.1588	-422.567691	-422.559995	-422.559051	-422.599975	29.804
 OpenBabel02181911403D

 19 20  0  0  1  0  0  0  0  0999 V2000
    1.1387   -0.1363    0.6768 O   0  0  0  0  0  0  0  0  0  0  0  0
    0.0146   -0.0872    0.2700 C   0  0  0  0  0  0  0  0  0  0  0  0
   -1.0838   -1.1346    0.0262 C   0  0  0  0  0  0  0  0  0  0  0  0
   -2.1099    0.0376    0.0927 C   0  0  2  0  0  0  0  0  0  0  0  0
   -3.2405    0.1094   -0.9271 C   0  0  0  0  0  0  0  0  0  0  0  0
   -2.7796    0.3850   -2.2375 O   0  0  0  0  0  0  0  0  0  0  0  0
   -2.0839    1.6203   -2.2937 C   0  0  0  0  0  0  0  0  0  0  0  0
   -0.7459    1.5196   -1.5630 C   0  0  0  0  0  0  0  0  0  0  0  0
   -0.9373    1.0678   -0.0926 C   0  0  2  0  0  0  0  0  0  0  0  0
   -1.0094   -1.5564   -0.9822 H   0  0  0  0  0  0  0  0  0  0  0  0
   -1.1627   -1.9495    0.7489 H   0  0  0  0  0  0  0  0  0  0  0  0
   -2.5271    0.1158    1.1008 H   0  0  0  0  0  0  0  0  0  0  0  0
   -3.7785   -0.8426   -0.9836 H   0  0  0  0  0  0  0  0  0  0  0  0
   -3.9623    0.8853   -0.6186 H   0  0  0  0  0  0  0  0  0  0  0  0
   -1.9305    1.8416   -3.3539 H   0  0  0  0  0  0  0  0  0  0  0  0
   -2.7068    2.4241   -1.8653 H   0  0  0  0  0  0  0  0  0  0  0  0
   -0.1259    0.7968   -2.1055 H   0  0  0  0  0  0  0  0  0  0  0  0
   -0.2129    2.4746   -1.5942 H   0  0  0  0  0  0  0  0  0  0  0  0
   -0.9302    1.9236    0.5865 H   0  0  0  0  0  0  0  0  0  0  0  0
  2  1  2  0  0  0  0
  3  4  1  0  0  0  0
  3  2  1  0  0  0  0
  3 11  1  0  0  0  0
  4 12  1  1  0  0  0
  5 14  1  0  0  0  0
  5  4  1  0  0  0  0
  6  5  1  0  0  0  0
  7  6  1  0  0  0  0
  7 16  1  0  0  0  0
  7  8  1  0  0  0  0
  8  9  1  0  0  0  0
  9  4  1  0  0  0  0
  9  2  1  0  0  0  0
  9 19  1  1  0  0  0
 10  3  1  0  0  0  0
 13  5  1  0  0  0  0
 15  7  1  0  0  0  0
 17  8  1  0  0  0  0
 18  8  1  0  0  0  0
M TOR 0 0 1 2 3
M TOR 1 0 1 2 9
M TOR 2 0 1 2 10
M TOR 3 0 1 8 3
M TOR 4 0 1 8 7
M TOR 5 0 1 8 18
M TOR 6 1 2 3 4
M TOR 7 1 2 3 8
M TOR 8 1 2 3 11
M TOR 9 1 8 3 4
M TOR 10 1 8 3 11
M TOR 11 1 8 7 6
M TOR 12 1 8 7 16
M TOR 13 1 8 7 17
M TOR 14 2 1 8 7
M TOR 15 2 1 8 18
M TOR 16 2 3 4 5
M TOR 17 2 3 4 12
M TOR 18 2 3 4 13
M TOR 19 2 3 8 7
M TOR 20 2 3 8 18
M TOR 21 3 4 5 6
M TOR 22 3 8 7 6
M TOR 23 3 8 7 16
M TOR 24 3 8 7 17
M TOR 25 4 3 2 9
M TOR 26 4 3 2 10
M TOR 27 4 3 8 7
M TOR 28 4 3 8 18
M TOR 29 4 5 6 7
M TOR 30 4 5 6 14
M TOR 31 4 5 6 15
M TOR 32 5 4 3 8
M TOR 33 5 4 3 11
M TOR 34 5 6 7 8
M TOR 35 5 6 7 16
M TOR 36 5 6 7 17
M TOR 37 6 5 4 12
M TOR 38 6 5 4 13
M TOR 39 6 7 8 18
M TOR 40 7 8 3 11
M TOR 41 8 1 2 9
M TOR 42 8 1 2 10
M TOR 43 8 3 2 9
M TOR 44 8 3 2 10
M TOR 45 8 3 4 12
M TOR 46 8 3 4 13
M TOR 47 8 7 6 14
M TOR 48 8 7 6 15
M  END
$$$$
