
     RDKit          3D

 19 21  0  0  0  0  0  0  0  0999 V2000
    0.8140    1.3973   -0.0255 C   0  0  0  0  0  0  0  0  0  0  0  0
    1.4830    0.0443   -0.2302 C   0  0  0  0  0  0  0  0  0  0  0  0
    0.0205    0.1486    0.1194 C   0  0  0  0  0  0  0  0  0  0  0  0
   -0.5660   -0.3976    1.4078 C   0  0  0  0  0  0  0  0  0  0  0  0
   -1.3221   -1.6198    0.8949 C   0  0  0  0  0  0  0  0  0  0  0  0
   -2.1910   -2.4702    1.7095 C   0  0  0  0  0  0  0  0  0  0  0  0
   -0.8890   -2.9159    1.3102 O   0  0  0  0  0  0  0  0  0  0  0  0
   -1.4903   -1.3990   -0.6141 C   0  0  0  0  0  0  0  0  0  0  0  0
   -0.9312   -0.1196   -0.8892 O   0  0  0  0  0  0  0  0  0  0  0  0
    1.0503    1.9659    0.8677 H   0  0  0  0  0  0  0  0  0  0  0  0
    0.6245    1.9965   -0.9090 H   0  0  0  0  0  0  0  0  0  0  0  0
    1.7271   -0.2345   -1.2490 H   0  0  0  0  0  0  0  0  0  0  0  0
    2.1788   -0.3094    0.5234 H   0  0  0  0  0  0  0  0  0  0  0  0
    0.1776   -0.6761    2.1565 H   0  0  0  0  0  0  0  0  0  0  0  0
   -1.2607    0.3271    1.8480 H   0  0  0  0  0  0  0  0  0  0  0  0
   -2.3101   -2.2634    2.7731 H   0  0  0  0  0  0  0  0  0  0  0  0
   -3.0272   -2.9945    1.2471 H   0  0  0  0  0  0  0  0  0  0  0  0
   -0.9580   -2.1990   -1.1485 H   0  0  0  0  0  0  0  0  0  0  0  0
   -2.5338   -1.3872   -0.9424 H   0  0  0  0  0  0  0  0  0  0  0  0
  1  2  1  0
  2  3  1  0
  3  4  1  0
  4  5  1  0
  5  6  1  0
  6  7  1  0
  5  8  1  0
  8  9  1  0
  3  1  1  0
  9  3  1  0
  7  5  1  0
  1 10  1  0
  1 11  1  0
  2 12  1  0
  2 13  1  0
  4 14  1  0
  4 15  1  0
  6 16  1  0
  6 17  1  0
  8 18  1  0
  8 19  1  0
M  END
$$$$
