
     RDKit          3D

 19 20  0  0  0  0  0  0  0  0999 V2000
    0.6035    0.1695    0.6571 O   0  0  0  0  0  0  0  0  0  0  0  0
   -0.7608    0.4788    0.8435 C   0  0  0  0  0  0  0  0  0  0  0  0
   -1.2486    0.4390    2.3259 C   0  0  0  0  0  0  0  0  0  0  0  0
   -1.8516    1.8674    2.5354 C   0  0  0  0  0  0  0  0  0  0  0  0
   -2.6210    2.0564    3.6924 O   0  0  0  0  0  0  0  0  0  0  0  0
   -2.5037    2.0944    1.1439 C   0  0  0  0  0  0  0  0  0  0  0  0
   -1.1663    1.9294    0.3881 C   0  0  0  0  0  0  0  0  0  0  0  0
   -0.2844    2.8862    1.1787 C   0  0  0  0  0  0  0  0  0  0  0  0
   -0.6884    2.8402    2.4522 C   0  0  0  0  0  0  0  0  0  0  0  0
    1.1121    0.8139    1.1634 H   0  0  0  0  0  0  0  0  0  0  0  0
   -1.3011   -0.2540    0.2380 H   0  0  0  0  0  0  0  0  0  0  0  0
   -2.0214   -0.3247    2.4731 H   0  0  0  0  0  0  0  0  0  0  0  0
   -0.4291    0.2215    3.0147 H   0  0  0  0  0  0  0  0  0  0  0  0
   -3.2672    1.3444    3.7429 H   0  0  0  0  0  0  0  0  0  0  0  0
   -3.2518    1.3344    0.8884 H   0  0  0  0  0  0  0  0  0  0  0  0
   -2.9366    3.0923    1.0456 H   0  0  0  0  0  0  0  0  0  0  0  0
   -1.1696    2.0586   -0.6940 H   0  0  0  0  0  0  0  0  0  0  0  0
    0.5670    3.4218    0.7778 H   0  0  0  0  0  0  0  0  0  0  0  0
   -0.2550    3.3164    3.3225 H   0  0  0  0  0  0  0  0  0  0  0  0
  1  2  1  0
  2  3  1  0
  3  4  1  0
  4  5  1  0
  4  6  1  0
  6  7  1  0
  7  8  1  0
  8  9  2  0
  7  2  1  0
  9  4  1  0
  1 10  1  0
  2 11  1  0
  3 12  1  0
  3 13  1  0
  5 14  1  0
  6 15  1  0
  6 16  1  0
  7 17  1  0
  8 18  1  0
  9 19  1  0
M  END
$$$$
