
     RDKit          3D

 19 21  0  0  0  0  0  0  0  0999 V2000
   -0.3089   -2.8318    2.6146 C   0  0  0  0  0  0  0  0  0  0  0  0
    0.2730   -3.4073    1.3566 C   0  0  0  0  0  0  0  0  0  0  0  0
    0.9514   -4.7460    1.2498 C   0  0  0  0  0  0  0  0  0  0  0  0
   -0.2767   -4.4762    0.4145 C   0  0  0  0  0  0  0  0  0  0  0  0
    0.0589   -3.5516   -0.7939 C   0  0  0  0  0  0  0  0  0  0  0  0
    1.4646   -3.2551   -0.7953 O   0  0  0  0  0  0  0  0  0  0  0  0
    0.5905   -2.5221    0.0937 C   0  0  0  0  0  0  0  0  0  0  0  0
    0.6530   -1.0316    0.0247 C   0  0  0  0  0  0  0  0  0  0  0  0
    1.8052   -0.5213    0.6797 O   0  0  0  0  0  0  0  0  0  0  0  0
   -0.6481   -3.6267    3.2863 H   0  0  0  0  0  0  0  0  0  0  0  0
    0.4329   -2.2290    3.1510 H   0  0  0  0  0  0  0  0  0  0  0  0
   -1.1705   -2.1864    2.4060 H   0  0  0  0  0  0  0  0  0  0  0  0
    1.9202   -4.8484    0.7779 H   0  0  0  0  0  0  0  0  0  0  0  0
    0.7789   -5.4019    2.0980 H   0  0  0  0  0  0  0  0  0  0  0  0
   -1.1942   -5.0440    0.4990 H   0  0  0  0  0  0  0  0  0  0  0  0
   -0.4647   -3.4875   -1.7408 H   0  0  0  0  0  0  0  0  0  0  0  0
    0.6104   -0.7240   -1.0308 H   0  0  0  0  0  0  0  0  0  0  0  0
   -0.2061   -0.5902    0.5402 H   0  0  0  0  0  0  0  0  0  0  0  0
    2.5708   -0.9268    0.2575 H   0  0  0  0  0  0  0  0  0  0  0  0
  1  2  1  0
  2  3  1  0
  3  4  1  0
  4  5  1  0
  5  6  1  0
  6  7  1  0
  7  8  1  0
  8  9  1  0
  4  2  1  0
  7  5  1  0
  7  2  1  0
  1 10  1  0
  1 11  1  0
  1 12  1  0
  3 13  1  0
  3 14  1  0
  4 15  1  0
  5 16  1  0
  8 17  1  0
  8 18  1  0
  9 19  1  0
M  END
$$$$
