gdb 3997	4.0451424	1.2103216	1.1344583	0.889	74.75	-0.23598	0.07141	0.30739	1140.659	0.156264	-422.500159	-422.491993	-422.491048	-422.532332	32.136
 OpenBabel02181911413D

 19 21  0  0  1  0  0  0  0  0999 V2000
   -0.0512    0.3033   -0.1511 C   0  0  0  0  0  0  0  0  0  0  0  0
    1.4336    0.0179   -0.0367 C   0  0  1  0  0  0  0  0  0  0  0  0
    2.1646    1.1773    0.4735 O   0  0  0  0  0  0  0  0  0  0  0  0
    2.5304    0.4686    1.6803 C   0  0  1  0  0  0  0  0  0  0  0  0
    1.8748   -0.8303    1.1821 C   0  0  2  0  0  0  0  0  0  0  0  0
    3.2618   -1.5109    1.1795 C   0  0  1  0  0  0  0  0  0  0  0  0
    4.2783   -0.7465    0.3508 C   0  0  0  0  0  0  0  0  0  0  0  0
    3.9153   -0.2298    1.7061 C   0  0  1  0  0  0  0  0  0  0  0  0
    4.8197   -0.0939    2.7428 O   0  0  0  0  0  0  0  0  0  0  0  0
   -0.4732    0.5812    0.8199 H   0  0  0  0  0  0  0  0  0  0  0  0
   -0.2282    1.1278   -0.8485 H   0  0  0  0  0  0  0  0  0  0  0  0
   -0.5819   -0.5811   -0.5216 H   0  0  0  0  0  0  0  0  0  0  0  0
    1.8376   -0.3013   -1.0057 H   0  0  0  0  0  0  0  0  0  0  0  0
    2.2576    0.9905    2.6008 H   0  0  0  0  0  0  0  0  0  0  0  0
    1.0975   -1.3442    1.7464 H   0  0  0  0  0  0  0  0  0  0  0  0
    3.4426   -2.5409    1.4608 H   0  0  0  0  0  0  0  0  0  0  0  0
    5.2496   -1.2306    0.3182 H   0  0  0  0  0  0  0  0  0  0  0  0
    4.0069   -0.2050   -0.5487 H   0  0  0  0  0  0  0  0  0  0  0  0
    5.4853    0.5526    2.4820 H   0  0  0  0  0  0  0  0  0  0  0  0
  1  2  1  0  0  0  0
  1 10  1  0  0  0  0
  2 13  1  6  0  0  0
  2  3  1  0  0  0  0
  2  5  1  0  0  0  0
  3  4  1  0  0  0  0
  4  8  1  0  0  0  0
  4 14  1  1  0  0  0
  5  4  1  0  0  0  0
  5 15  1  1  0  0  0
  6  5  1  0  0  0  0
  6 16  1  1  0  0  0
  6  8  1  0  0  0  0
  7  6  1  0  0  0  0
  7  8  1  0  0  0  0
  8  9  1  1  0  0  0
 11  1  1  0  0  0  0
 12  1  1  0  0  0  0
 17  7  1  0  0  0  0
 18  7  1  0  0  0  0
 19  9  1  0  0  0  0
M TOR 0 0 1 2 3
M TOR 1 0 1 4 3
M TOR 2 0 1 4 5
M TOR 3 0 1 4 14
M TOR 4 1 2 3 4
M TOR 5 1 2 3 7
M TOR 6 1 2 3 13
M TOR 7 1 4 3 7
M TOR 8 1 4 3 13
M TOR 9 1 4 5 6
M TOR 10 1 4 5 7
M TOR 11 1 4 5 15
M TOR 12 2 1 0 9
M TOR 13 2 1 0 10
M TOR 14 2 1 0 11
M TOR 15 2 1 4 5
M TOR 16 2 1 4 14
M TOR 17 2 3 4 5
M TOR 18 2 3 4 14
M TOR 19 2 3 7 5
M TOR 20 2 3 7 6
M TOR 21 2 3 7 8
M TOR 22 3 2 1 12
M TOR 23 3 4 1 12
M TOR 24 3 4 5 6
M TOR 25 3 4 5 7
M TOR 26 3 4 5 15
M TOR 27 3 7 5 6
M TOR 28 3 7 5 15
M TOR 29 3 7 6 16
M TOR 30 3 7 6 17
M TOR 31 3 7 8 18
M TOR 32 4 1 0 9
M TOR 33 4 1 0 10
M TOR 34 4 1 0 11
M TOR 35 4 3 7 6
M TOR 36 4 3 7 8
M TOR 37 4 5 6 7
M TOR 38 4 5 6 16
M TOR 39 4 5 6 17
M TOR 40 4 5 7 8
M TOR 41 5 4 1 12
M TOR 42 5 4 3 13
M TOR 43 5 6 7 8
M TOR 44 5 7 3 13
M TOR 45 5 7 6 16
M TOR 46 5 7 6 17
M TOR 47 5 7 8 18
M TOR 48 6 5 4 14
M TOR 49 6 7 3 13
M TOR 50 6 7 5 15
M TOR 51 6 7 8 18
M TOR 52 7 3 4 14
M TOR 53 7 5 4 14
M TOR 54 8 7 3 13
M TOR 55 8 7 5 15
M TOR 56 8 7 6 16
M TOR 57 8 7 6 17
M  END
$$$$
