gdb 1476	2.719898	1.4187572	1.2593312	4.568	75.42	-0.2594	0.01081	0.27021	1093.7951	0.157223	-422.597955	-422.589498	-422.588554	-422.630571	32.212
 OpenBabel02181911403D

 19 20  0  0  1  0  0  0  0  0999 V2000
   -1.5833   -0.6669   -2.5154 C   0  0  0  0  0  0  0  0  0  0  0  0
   -1.8229   -1.3845   -1.1992 C   0  0  0  0  0  0  0  0  0  0  0  0
   -2.3505   -2.7997   -1.3687 C   0  0  0  0  0  0  0  0  0  0  0  0
   -2.2943   -0.6541    0.0285 C   0  0  2  0  0  0  0  0  0  0  0  0
   -2.1311    0.8568    0.0684 C   0  0  0  0  0  0  0  0  0  0  0  0
   -0.7305    1.1319   -0.0988 O   0  0  0  0  0  0  0  0  0  0  0  0
    0.0232   -0.0122   -0.0253 C   0  0  0  0  0  0  0  0  0  0  0  0
    1.2186    0.0213    0.0203 O   0  0  0  0  0  0  0  0  0  0  0  0
   -0.8826   -1.2010   -0.0063 C   0  0  2  0  0  0  0  0  0  0  0  0
   -0.8754   -1.2310   -3.1320 H   0  0  0  0  0  0  0  0  0  0  0  0
   -2.5205   -0.5879   -3.0784 H   0  0  0  0  0  0  0  0  0  0  0  0
   -1.1813    0.3400   -2.3877 H   0  0  0  0  0  0  0  0  0  0  0  0
   -2.5221   -3.2869   -0.4042 H   0  0  0  0  0  0  0  0  0  0  0  0
   -3.2997   -2.7935   -1.9163 H   0  0  0  0  0  0  0  0  0  0  0  0
   -1.6430   -3.4145   -1.9355 H   0  0  0  0  0  0  0  0  0  0  0  0
   -3.0625   -1.0985    0.6508 H   0  0  0  0  0  0  0  0  0  0  0  0
   -2.6735    1.3790   -0.7263 H   0  0  0  0  0  0  0  0  0  0  0  0
   -2.4492    1.2652    1.0338 H   0  0  0  0  0  0  0  0  0  0  0  0
   -0.5415   -2.0704    0.5401 H   0  0  0  0  0  0  0  0  0  0  0  0
  1 12  1  0  0  0  0
  1  2  1  0  0  0  0
  2  9  1  0  0  0  0
  2  4  1  0  0  0  0
  3  2  1  0  0  0  0
  3 13  1  0  0  0  0
  4  5  1  0  0  0  0
  4 16  1  1  0  0  0
  5 18  1  0  0  0  0
  6  7  1  0  0  0  0
  6  5  1  0  0  0  0
  7  9  1  0  0  0  0
  7  8  2  0  0  0  0
  9  4  1  0  0  0  0
  9 19  1  1  0  0  0
 10  1  1  0  0  0  0
 11  1  1  0  0  0  0
 14  3  1  0  0  0  0
 15  3  1  0  0  0  0
 17  5  1  0  0  0  0
M TOR 0 0 1 2 12
M TOR 1 0 1 2 13
M TOR 2 0 1 2 14
M TOR 3 0 1 3 4
M TOR 4 0 1 3 8
M TOR 5 0 1 3 15
M TOR 6 0 1 8 6
M TOR 7 0 1 8 18
M TOR 8 1 3 4 5
M TOR 9 1 3 4 16
M TOR 10 1 3 4 17
M TOR 11 1 3 8 6
M TOR 12 1 3 8 18
M TOR 13 1 8 3 4
M TOR 14 1 8 3 15
M TOR 15 1 8 6 5
M TOR 16 1 8 6 7
M TOR 17 2 1 0 9
M TOR 18 2 1 0 10
M TOR 19 2 1 0 11
M TOR 20 2 1 3 4
M TOR 21 2 1 3 8
M TOR 22 2 1 3 15
M TOR 23 2 1 8 6
M TOR 24 2 1 8 18
M TOR 25 3 1 0 9
M TOR 26 3 1 0 10
M TOR 27 3 1 0 11
M TOR 28 3 1 2 12
M TOR 29 3 1 2 13
M TOR 30 3 1 2 14
M TOR 31 3 4 5 6
M TOR 32 3 8 6 5
M TOR 33 3 8 6 7
M TOR 34 4 3 8 6
M TOR 35 4 3 8 18
M TOR 36 4 5 6 7
M TOR 37 4 5 6 8
M TOR 38 5 4 3 8
M TOR 39 5 4 3 15
M TOR 40 5 6 8 18
M TOR 41 6 5 4 16
M TOR 42 6 5 4 17
M TOR 43 6 8 3 15
M TOR 44 7 6 8 18
M TOR 45 8 1 0 9
M TOR 46 8 1 0 10
M TOR 47 8 1 0 11
M TOR 48 8 1 2 12
M TOR 49 8 1 2 13
M TOR 50 8 1 2 14
M TOR 51 8 3 4 16
M TOR 52 8 3 4 17
M  END
$$$$
