
     RDKit          3D

 19 18  0  0  0  0  0  0  0  0999 V2000
    1.5098   -0.0500    0.0276 C   0  0  0  0  0  0  0  0  0  0  0  0
    0.0543   -0.0030    0.0115 C   0  0  0  0  0  0  0  0  0  0  0  0
   -1.1511    0.0257   -0.0093 C   0  0  0  0  0  0  0  0  0  0  0  0
   -2.6158    0.0703   -0.0024 C   0  0  0  0  0  0  0  0  0  0  0  0
   -3.1662    0.0425   -1.4507 C   0  0  0  0  0  0  0  0  0  0  0  0
   -3.0990    1.3409    0.7410 C   0  0  0  0  0  0  0  0  0  0  0  0
   -2.6301    2.5241    0.1273 O   0  0  0  0  0  0  0  0  0  0  0  0
   -3.1192   -1.1893    0.7132 C   0  0  0  0  0  0  0  0  0  0  0  0
   -3.8993   -1.1852    1.6278 O   0  0  0  0  0  0  0  0  0  0  0  0
    1.9098    0.3073    0.9826 H   0  0  0  0  0  0  0  0  0  0  0  0
    1.8703   -1.0736   -0.1211 H   0  0  0  0  0  0  0  0  0  0  0  0
    1.9368    0.5706   -0.7676 H   0  0  0  0  0  0  0  0  0  0  0  0
   -2.7896   -0.8229   -2.0021 H   0  0  0  0  0  0  0  0  0  0  0  0
   -4.2601    0.0060   -1.4377 H   0  0  0  0  0  0  0  0  0  0  0  0
   -2.8542    0.9534   -1.9648 H   0  0  0  0  0  0  0  0  0  0  0  0
   -4.1905    1.3805    0.7101 H   0  0  0  0  0  0  0  0  0  0  0  0
   -2.7981    1.2764    1.7948 H   0  0  0  0  0  0  0  0  0  0  0  0
   -1.6663    2.4907    0.1507 H   0  0  0  0  0  0  0  0  0  0  0  0
   -2.7063   -2.1362    0.2997 H   0  0  0  0  0  0  0  0  0  0  0  0
  1  2  1  0
  2  3  3  0
  3  4  1  0
  4  5  1  0
  4  6  1  0
  6  7  1  0
  4  8  1  0
  8  9  2  0
  1 10  1  0
  1 11  1  0
  1 12  1  0
  5 13  1  0
  5 14  1  0
  5 15  1  0
  6 16  1  0
  6 17  1  0
  7 18  1  0
  8 19  1  0
M  END
$$$$
