
     RDKit          3D

 19 21  0  0  0  0  0  0  0  0999 V2000
    0.2843    2.5088    0.4772 C   0  0  0  0  0  0  0  0  0  0  0  0
    0.6272    1.3679    1.2989 O   0  0  0  0  0  0  0  0  0  0  0  0
    1.0560    0.2522    0.4527 C   0  0  0  0  0  0  0  0  0  0  0  0
    1.4079    0.9321   -0.8686 C   0  0  0  0  0  0  0  0  0  0  0  0
    0.1554    1.7999   -0.8541 C   0  0  0  0  0  0  0  0  0  0  0  0
   -0.6095    2.0309   -2.0183 O   0  0  0  0  0  0  0  0  0  0  0  0
   -1.0988    1.0733   -1.0417 C   0  0  0  0  0  0  0  0  0  0  0  0
   -0.9282   -0.4330   -1.0789 C   0  0  0  0  0  0  0  0  0  0  0  0
   -0.0834   -0.7796    0.1941 C   0  0  0  0  0  0  0  0  0  0  0  0
   -0.6476    2.9495    0.8413 H   0  0  0  0  0  0  0  0  0  0  0  0
    1.0835    3.2606    0.5198 H   0  0  0  0  0  0  0  0  0  0  0  0
    1.8877   -0.2194    0.9808 H   0  0  0  0  0  0  0  0  0  0  0  0
    2.3211    1.5298   -0.8015 H   0  0  0  0  0  0  0  0  0  0  0  0
    1.4802    0.2611   -1.7224 H   0  0  0  0  0  0  0  0  0  0  0  0
   -1.9764    1.4425   -0.5135 H   0  0  0  0  0  0  0  0  0  0  0  0
   -1.8878   -0.9565   -1.0615 H   0  0  0  0  0  0  0  0  0  0  0  0
   -0.4112   -0.7483   -1.9887 H   0  0  0  0  0  0  0  0  0  0  0  0
   -0.7280   -0.7951    1.0787 H   0  0  0  0  0  0  0  0  0  0  0  0
    0.3476   -1.7824    0.0953 H   0  0  0  0  0  0  0  0  0  0  0  0
  1  2  1  0
  2  3  1  0
  3  4  1  0
  4  5  1  0
  5  6  1  0
  6  7  1  0
  7  8  1  0
  8  9  1  0
  5  1  1  0
  7  5  1  0
  9  3  1  0
  1 10  1  0
  1 11  1  0
  3 12  1  0
  4 13  1  0
  4 14  1  0
  7 15  1  0
  8 16  1  0
  8 17  1  0
  9 18  1  0
  9 19  1  0
M  END
$$$$
