gdb 5391	3.0480022	1.2479534	0.9496981	1.8817	77.48	-0.23216	0.01351	0.24567	1236.1916	0.157626	-422.537055	-422.528662	-422.527718	-422.5701	31.837
 OpenBabel02181911423D

 19 20  0  0  1  0  0  0  0  0999 V2000
    1.6151    0.8397    0.8163 O   0  0  0  0  0  0  0  0  0  0  0  0
    0.6021   -0.1224    0.6006 C   0  0  0  0  0  0  0  0  0  0  0  0
   -0.8052    0.3976    0.7686 C   0  0  0  0  0  0  0  0  0  0  0  0
   -1.0915    1.6121    1.2388 C   0  0  0  0  0  0  0  0  0  0  0  0
   -2.5202    2.0621    1.4085 C   0  0  0  0  0  0  0  0  0  0  0  0
   -3.4156    0.9876    1.6748 O   0  0  0  0  0  0  0  0  0  0  0  0
   -3.2985   -0.1037    0.8092 C   0  0  2  0  0  0  0  0  0  0  0  0
   -2.6751   -1.3499    1.3740 C   0  0  0  0  0  0  0  0  0  0  0  0
   -1.9203   -0.4985    0.3581 C   0  0  2  0  0  0  0  0  0  0  0  0
    1.4934    1.5368    0.1630 H   0  0  0  0  0  0  0  0  0  0  0  0
    0.6965   -0.5899   -0.3952 H   0  0  0  0  0  0  0  0  0  0  0  0
    0.7881   -0.9237    1.3275 H   0  0  0  0  0  0  0  0  0  0  0  0
   -0.3011    2.2934    1.5366 H   0  0  0  0  0  0  0  0  0  0  0  0
   -2.6113    2.7332    2.2683 H   0  0  0  0  0  0  0  0  0  0  0  0
   -2.8526    2.6304    0.5220 H   0  0  0  0  0  0  0  0  0  0  0  0
   -4.1280   -0.2014    0.1109 H   0  0  0  0  0  0  0  0  0  0  0  0
   -2.3540   -1.2907    2.4077 H   0  0  0  0  0  0  0  0  0  0  0  0
   -3.0497   -2.3164    1.0545 H   0  0  0  0  0  0  0  0  0  0  0  0
   -1.8315   -0.9245   -0.6386 H   0  0  0  0  0  0  0  0  0  0  0  0
  2  3  1  0  0  0  0
  2  1  1  0  0  0  0
  2 12  1  0  0  0  0
  3  4  2  0  0  0  0
  4  5  1  0  0  0  0
  4 13  1  0  0  0  0
  5  6  1  0  0  0  0
  5 14  1  0  0  0  0
  7 16  1  6  0  0  0
  7  8  1  0  0  0  0
  7  6  1  0  0  0  0
  8 17  1  0  0  0  0
  9 19  1  6  0  0  0
  9  3  1  0  0  0  0
  9  7  1  0  0  0  0
  9  8  1  0  0  0  0
 10  1  1  0  0  0  0
 11  2  1  0  0  0  0
 15  5  1  0  0  0  0
 18  8  1  0  0  0  0
M TOR 0 0 1 2 3
M TOR 1 0 1 2 8
M TOR 2 1 2 3 4
M TOR 3 1 2 3 12
M TOR 4 1 2 8 6
M TOR 5 1 2 8 7
M TOR 6 1 2 8 18
M TOR 7 2 1 0 9
M TOR 8 2 3 4 5
M TOR 9 2 3 4 13
M TOR 10 2 3 4 14
M TOR 11 2 8 6 5
M TOR 12 2 8 6 7
M TOR 13 2 8 6 15
M TOR 14 2 8 7 16
M TOR 15 2 8 7 17
M TOR 16 3 2 1 10
M TOR 17 3 2 1 11
M TOR 18 3 2 8 6
M TOR 19 3 2 8 7
M TOR 20 3 2 8 18
M TOR 21 3 4 5 6
M TOR 22 4 3 2 8
M TOR 23 4 5 6 7
M TOR 24 4 5 6 8
M TOR 25 4 5 6 15
M TOR 26 5 4 3 12
M TOR 27 5 6 7 8
M TOR 28 5 6 7 16
M TOR 29 5 6 7 17
M TOR 30 5 6 8 18
M TOR 31 6 5 4 13
M TOR 32 6 5 4 14
M TOR 33 6 7 8 18
M TOR 34 6 8 7 16
M TOR 35 6 8 7 17
M TOR 36 7 8 6 15
M TOR 37 8 2 1 10
M TOR 38 8 2 1 11
M TOR 39 8 2 3 12
M  END
$$$$
