
     RDKit          3D

 19 20  0  0  0  0  0  0  0  0999 V2000
   -2.1269   -1.0966    0.7800 O   0  0  0  0  0  0  0  0  0  0  0  0
   -1.2339   -0.3116    0.9559 C   0  0  0  0  0  0  0  0  0  0  0  0
   -0.6151   -0.3022    2.1712 O   0  0  0  0  0  0  0  0  0  0  0  0
    0.7305    0.1585    2.3657 C   0  0  0  0  0  0  0  0  0  0  0  0
    0.9915    1.6444    2.1178 C   0  0  0  0  0  0  0  0  0  0  0  0
    0.5807    2.1507    0.7290 C   0  0  0  0  0  0  0  0  0  0  0  0
    0.6196    1.0467   -0.3658 C   0  0  0  0  0  0  0  0  0  0  0  0
   -0.8839    0.7521   -0.0697 C   0  0  0  0  0  0  0  0  0  0  0  0
   -0.9613    2.1865    0.5457 C   0  0  0  0  0  0  0  0  0  0  0  0
    0.9390   -0.0774    3.4121 H   0  0  0  0  0  0  0  0  0  0  0  0
    1.4042   -0.4567    1.7589 H   0  0  0  0  0  0  0  0  0  0  0  0
    0.4872    2.2431    2.8860 H   0  0  0  0  0  0  0  0  0  0  0  0
    2.0698    1.7888    2.2644 H   0  0  0  0  0  0  0  0  0  0  0  0
    1.1098    3.0798    0.5033 H   0  0  0  0  0  0  0  0  0  0  0  0
    0.7082    1.4820   -1.3642 H   0  0  0  0  0  0  0  0  0  0  0  0
    1.3479    0.2374   -0.2834 H   0  0  0  0  0  0  0  0  0  0  0  0
   -1.5164    0.5493   -0.9327 H   0  0  0  0  0  0  0  0  0  0  0  0
   -1.2683    2.9127   -0.2107 H   0  0  0  0  0  0  0  0  0  0  0  0
   -1.5755    2.3195    1.4397 H   0  0  0  0  0  0  0  0  0  0  0  0
  1  2  2  0
  2  3  1  0
  3  4  1  0
  4  5  1  0
  5  6  1  0
  6  7  1  0
  7  8  1  0
  8  9  1  0
  8  2  1  0
  9  6  1  0
  4 10  1  0
  4 11  1  0
  5 12  1  0
  5 13  1  0
  6 14  1  0
  7 15  1  0
  7 16  1  0
  8 17  1  0
  9 18  1  0
  9 19  1  0
M  END
$$$$
