gdb 4275	2.6208339	1.6717432	1.6542098	1.2436	73.97	-0.24067	0.00202	0.24269	942.1302	0.160009	-422.573289	-422.566028	-422.565084	-422.604554	29.67
 OpenBabel02181911413D

 19 20  0  0  1  0  0  0  0  0999 V2000
    0.2621    0.0351    0.2793 O   0  0  0  0  0  0  0  0  0  0  0  0
   -0.9823    0.4821    0.7905 C   0  0  2  0  0  0  0  0  0  0  0  0
   -2.2032   -0.2013    0.1133 C   0  0  0  0  0  0  0  0  0  0  0  0
   -3.0836    0.8957   -0.5198 C   0  0  1  0  0  0  0  0  0  0  0  0
   -3.5803    1.7261    0.5510 O   0  0  0  0  0  0  0  0  0  0  0  0
   -2.5310    2.3770    1.2622 C   0  0  0  0  0  0  0  0  0  0  0  0
   -1.1580    2.0207    0.6466 C   0  0  2  0  0  0  0  0  0  0  0  0
   -1.2270    2.3432   -0.8261 C   0  0  0  0  0  0  0  0  0  0  0  0
   -2.2410    1.7367   -1.4502 C   0  0  0  0  0  0  0  0  0  0  0  0
    0.2785    0.2566   -0.6591 H   0  0  0  0  0  0  0  0  0  0  0  0
   -0.9510    0.2340    1.8560 H   0  0  0  0  0  0  0  0  0  0  0  0
   -1.8515   -0.9122   -0.6407 H   0  0  0  0  0  0  0  0  0  0  0  0
   -2.8000   -0.7574    0.8421 H   0  0  0  0  0  0  0  0  0  0  0  0
   -3.9710    0.4816   -1.0005 H   0  0  0  0  0  0  0  0  0  0  0  0
   -2.6970    3.4612    1.2267 H   0  0  0  0  0  0  0  0  0  0  0  0
   -2.5647    2.0612    2.3154 H   0  0  0  0  0  0  0  0  0  0  0  0
   -0.3525    2.5414    1.1675 H   0  0  0  0  0  0  0  0  0  0  0  0
   -0.5282    3.0221   -1.3026 H   0  0  0  0  0  0  0  0  0  0  0  0
   -2.4782    1.8437   -2.5027 H   0  0  0  0  0  0  0  0  0  0  0  0
  1  2  1  0  0  0  0
  2 11  1  1  0  0  0
  3  2  1  0  0  0  0
  3 13  1  0  0  0  0
  4 14  1  6  0  0  0
  4  3  1  0  0  0  0
  4  5  1  0  0  0  0
  5  6  1  0  0  0  0
  6 16  1  0  0  0  0
  7  2  1  0  0  0  0
  7 17  1  1  0  0  0
  7  6  1  0  0  0  0
  8  7  1  0  0  0  0
  9  8  2  0  0  0  0
  9  4  1  0  0  0  0
 10  1  1  0  0  0  0
 12  3  1  0  0  0  0
 15  6  1  0  0  0  0
 18  8  1  0  0  0  0
 19  9  1  0  0  0  0
M TOR 0 0 1 2 3
M TOR 1 0 1 2 11
M TOR 2 0 1 2 12
M TOR 3 0 1 6 5
M TOR 4 0 1 6 7
M TOR 5 0 1 6 16
M TOR 6 1 2 3 4
M TOR 7 1 2 3 8
M TOR 8 1 2 3 13
M TOR 9 1 6 5 4
M TOR 10 1 6 5 14
M TOR 11 1 6 5 15
M TOR 12 1 6 7 8
M TOR 13 1 6 7 17
M TOR 14 2 1 0 9
M TOR 15 2 1 6 5
M TOR 16 2 1 6 7
M TOR 17 2 1 6 16
M TOR 18 2 3 4 5
M TOR 19 2 3 8 7
M TOR 20 2 3 8 18
M TOR 21 3 2 1 6
M TOR 22 3 2 1 10
M TOR 23 3 4 5 6
M TOR 24 3 4 5 14
M TOR 25 3 4 5 15
M TOR 26 3 8 7 6
M TOR 27 3 8 7 17
M TOR 28 4 3 2 11
M TOR 29 4 3 2 12
M TOR 30 4 3 8 7
M TOR 31 4 3 8 18
M TOR 32 4 5 6 7
M TOR 33 4 5 6 16
M TOR 34 5 4 3 8
M TOR 35 5 4 3 13
M TOR 36 5 6 1 10
M TOR 37 5 6 7 8
M TOR 38 5 6 7 17
M TOR 39 6 1 0 9
M TOR 40 6 1 2 11
M TOR 41 6 1 2 12
M TOR 42 6 7 8 18
M TOR 43 7 6 1 10
M TOR 44 7 6 5 14
M TOR 45 7 6 5 15
M TOR 46 7 8 3 13
M TOR 47 8 3 2 11
M TOR 48 8 3 2 12
M TOR 49 8 7 6 16
M  END
$$$$
