gdb 1034	4.479126	0.8117594	0.7206199	0.6179	81.96	-0.23191	0.03854	0.27045	1572.3992	0.156681	-422.521192	-422.511915	-422.510971	-422.557348	32.838
 OpenBabel02181911403D

 19 19  0  0  1  0  0  0  0  0999 V2000
    1.4980   -0.0178   -0.0222 C   0  0  0  0  0  0  0  0  0  0  0  0
    0.0444    0.0374    0.0190 C   0  0  0  0  0  0  0  0  0  0  0  0
   -1.1570    0.1000    0.0533 C   0  0  0  0  0  0  0  0  0  0  0  0
   -2.6121    0.1134    0.0885 C   0  0  1  0  0  0  0  0  0  0  0  0
   -3.1807   -1.2358    0.5646 C   0  0  0  0  0  0  0  0  0  0  0  0
   -4.5937   -1.1847    0.6308 O   0  0  0  0  0  0  0  0  0  0  0  0
   -5.0295   -0.1453    1.4942 C   0  0  0  0  0  0  0  0  0  0  0  0
   -4.4744    1.1953    1.0288 C   0  0  0  0  0  0  0  0  0  0  0  0
   -3.0563    1.1542    0.9628 O   0  0  0  0  0  0  0  0  0  0  0  0
    1.9363    0.7230    0.6554 H   0  0  0  0  0  0  0  0  0  0  0  0
    1.8685   -1.0035    0.2795 H   0  0  0  0  0  0  0  0  0  0  0  0
    1.8767    0.1879   -1.0293 H   0  0  0  0  0  0  0  0  0  0  0  0
   -3.0105    0.3054   -0.9233 H   0  0  0  0  0  0  0  0  0  0  0  0
   -2.9204   -2.0305   -0.1390 H   0  0  0  0  0  0  0  0  0  0  0  0
   -2.7483   -1.4713    1.5496 H   0  0  0  0  0  0  0  0  0  0  0  0
   -6.1234   -0.1497    1.4684 H   0  0  0  0  0  0  0  0  0  0  0  0
   -4.6979   -0.3432    2.5266 H   0  0  0  0  0  0  0  0  0  0  0  0
   -4.8959    1.4434    0.0406 H   0  0  0  0  0  0  0  0  0  0  0  0
   -4.7310    1.9946    1.7305 H   0  0  0  0  0  0  0  0  0  0  0  0
  1  2  1  0  0  0  0
  1 11  1  0  0  0  0
  1 10  1  0  0  0  0
  2  3  3  0  0  0  0
  3  4  1  0  0  0  0
  4 13  1  6  0  0  0
  4  5  1  0  0  0  0
  4  9  1  0  0  0  0
  5  6  1  0  0  0  0
  5 15  1  0  0  0  0
  6  7  1  0  0  0  0
  7 17  1  0  0  0  0
  8  7  1  0  0  0  0
  8 19  1  0  0  0  0
  9  8  1  0  0  0  0
 12  1  1  0  0  0  0
 14  5  1  0  0  0  0
 16  7  1  0  0  0  0
 18  8  1  0  0  0  0
M TOR 0 0 1 2 3
M TOR 1 1 2 3 4
M TOR 2 1 2 3 8
M TOR 3 1 2 3 12
M TOR 4 2 1 0 9
M TOR 5 2 1 0 10
M TOR 6 2 1 0 11
M TOR 7 2 3 4 5
M TOR 8 2 3 4 13
M TOR 9 2 3 4 14
M TOR 10 2 3 8 7
M TOR 11 3 4 5 6
M TOR 12 3 8 7 6
M TOR 13 3 8 7 17
M TOR 14 3 8 7 18
M TOR 15 4 3 8 7
M TOR 16 4 5 6 7
M TOR 17 4 5 6 15
M TOR 18 4 5 6 16
M TOR 19 5 4 3 8
M TOR 20 5 4 3 12
M TOR 21 5 6 7 8
M TOR 22 5 6 7 17
M TOR 23 5 6 7 18
M TOR 24 6 5 4 13
M TOR 25 6 5 4 14
M TOR 26 7 8 3 12
M TOR 27 8 3 4 13
M TOR 28 8 3 4 14
M TOR 29 8 7 6 15
M TOR 30 8 7 6 16
M  END
$$$$
