
     RDKit          3D

 19 21  0  0  0  0  0  0  0  0999 V2000
   -3.5529    0.6196    2.2517 O   0  0  0  0  0  0  0  0  0  0  0  0
   -3.0179    1.5162    1.3296 C   0  0  0  0  0  0  0  0  0  0  0  0
   -3.0491    1.1279   -0.1803 C   0  0  0  0  0  0  0  0  0  0  0  0
   -1.9512    2.2579   -0.2349 C   0  0  0  0  0  0  0  0  0  0  0  0
   -1.0963    2.4597   -1.3139 O   0  0  0  0  0  0  0  0  0  0  0  0
   -1.4818    1.7185    1.1454 C   0  0  0  0  0  0  0  0  0  0  0  0
   -2.8063    3.4925    0.0993 C   0  0  0  0  0  0  0  0  0  0  0  0
   -2.7083    4.1492    1.4519 C   0  0  0  0  0  0  0  0  0  0  0  0
   -3.6039    2.9461    1.2679 C   0  0  0  0  0  0  0  0  0  0  0  0
   -3.4913    1.0187    3.1262 H   0  0  0  0  0  0  0  0  0  0  0  0
   -2.6556    0.1244   -0.3688 H   0  0  0  0  0  0  0  0  0  0  0  0
   -3.9802    1.2951   -0.7273 H   0  0  0  0  0  0  0  0  0  0  0  0
   -0.6283    1.6370   -1.4884 H   0  0  0  0  0  0  0  0  0  0  0  0
   -0.9855    0.7499    1.0472 H   0  0  0  0  0  0  0  0  0  0  0  0
   -0.9147    2.3585    1.8219 H   0  0  0  0  0  0  0  0  0  0  0  0
   -3.2664    4.0156   -0.7310 H   0  0  0  0  0  0  0  0  0  0  0  0
   -1.8030    4.1048    2.0450 H   0  0  0  0  0  0  0  0  0  0  0  0
   -3.2280    5.0987    1.5391 H   0  0  0  0  0  0  0  0  0  0  0  0
   -4.6817    3.0469    1.3355 H   0  0  0  0  0  0  0  0  0  0  0  0
  1  2  1  0
  2  3  1  0
  3  4  1  0
  4  5  1  0
  4  6  1  0
  4  7  1  0
  7  8  1  0
  8  9  1  0
  6  2  1  0
  9  7  1  0
  9  2  1  0
  1 10  1  0
  3 11  1  0
  3 12  1  0
  5 13  1  0
  6 14  1  0
  6 15  1  0
  7 16  1  0
  8 17  1  0
  8 18  1  0
  9 19  1  0
M  END
$$$$
