gdb 5421	1.5936281	1.5472355	0.9081575	0.3831	78.05	-0.25658	0.01621	0.27279	1333.169	0.154114	-422.503731	-422.493724	-422.49278	-422.539368	35.762
 OpenBabel02181911423D

 19 19  0  0  1  0  0  0  0  0999 V2000
   -3.0918    0.3043    2.3662 C   0  0  0  0  0  0  0  0  0  0  0  0
   -1.9734   -0.6594    2.0307 C   0  0  2  0  0  0  0  0  0  0  0  0
   -1.5787   -1.4698    3.1696 O   0  0  0  0  0  0  0  0  0  0  0  0
   -0.1836   -1.1272    2.9975 C   0  0  2  0  0  0  0  0  0  0  0  0
    0.4581   -0.6323    4.2025 C   0  0  0  0  0  0  0  0  0  0  0  0
    1.0077   -0.2109    5.1851 C   0  0  0  0  0  0  0  0  0  0  0  0
   -0.5382   -0.1051    1.8770 C   0  0  1  0  0  0  0  0  0  0  0  0
    0.1606   -0.2707    0.5378 C   0  0  0  0  0  0  0  0  0  0  0  0
    1.4968    0.2016    0.5523 O   0  0  0  0  0  0  0  0  0  0  0  0
   -2.8028    0.9581    3.1941 H   0  0  0  0  0  0  0  0  0  0  0  0
   -3.3363    0.9234    1.4958 H   0  0  0  0  0  0  0  0  0  0  0  0
   -3.9926   -0.2445    2.6579 H   0  0  0  0  0  0  0  0  0  0  0  0
   -2.2675   -1.3082    1.1919 H   0  0  0  0  0  0  0  0  0  0  0  0
    0.3771   -1.9940    2.6127 H   0  0  0  0  0  0  0  0  0  0  0  0
    1.4874    0.1584    6.0580 H   0  0  0  0  0  0  0  0  0  0  0  0
   -0.4446    0.9278    2.2199 H   0  0  0  0  0  0  0  0  0  0  0  0
    0.1073   -1.3249    0.2178 H   0  0  0  0  0  0  0  0  0  0  0  0
   -0.3563    0.3226   -0.2249 H   0  0  0  0  0  0  0  0  0  0  0  0
    1.9863   -0.3015    1.2113 H   0  0  0  0  0  0  0  0  0  0  0  0
  1 12  1  0  0  0  0
  1 10  1  0  0  0  0
  2 13  1  6  0  0  0
  2  1  1  0  0  0  0
  2  3  1  0  0  0  0
  4 14  1  6  0  0  0
  4  3  1  0  0  0  0
  4  5  1  0  0  0  0
  5  6  3  0  0  0  0
  6 15  1  0  0  0  0
  7  2  1  0  0  0  0
  7 16  1  1  0  0  0
  7  4  1  0  0  0  0
  8  9  1  0  0  0  0
  8  7  1  0  0  0  0
  9 19  1  0  0  0  0
 11  1  1  0  0  0  0
 17  8  1  0  0  0  0
 18  8  1  0  0  0  0
M TOR 0 0 1 2 3
M TOR 1 0 1 6 3
M TOR 2 0 1 6 7
M TOR 3 0 1 6 15
M TOR 4 1 2 3 4
M TOR 5 1 2 3 6
M TOR 6 1 2 3 13
M TOR 7 1 6 3 4
M TOR 8 1 6 3 13
M TOR 9 1 6 7 8
M TOR 10 1 6 7 16
M TOR 11 1 6 7 17
M TOR 12 2 1 0 9
M TOR 13 2 1 0 10
M TOR 14 2 1 0 11
M TOR 15 2 1 6 7
M TOR 16 2 1 6 15
M TOR 17 2 3 4 5
M TOR 18 2 3 6 7
M TOR 19 2 3 6 15
M TOR 20 3 2 1 12
M TOR 21 3 4 5 14
M TOR 22 3 6 1 12
M TOR 23 3 6 7 8
M TOR 24 3 6 7 16
M TOR 25 3 6 7 17
M TOR 26 4 3 6 7
M TOR 27 4 3 6 15
M TOR 28 5 4 3 6
M TOR 29 5 4 3 13
M TOR 30 6 1 0 9
M TOR 31 6 1 0 10
M TOR 32 6 1 0 11
M TOR 33 6 7 8 18
M TOR 34 7 6 1 12
M TOR 35 7 6 3 13
M TOR 36 8 7 6 15
M  END
$$$$
