gdb 4496	2.6705	1.5186695	1.1684151	3.0182	75.05	-0.23864	-0.02369	0.21495	1100.2476	0.157139	-422.574464	-422.566275	-422.565331	-422.607656	31.01
 OpenBabel02181911413D

 19 20  0  0  1  0  0  0  0  0999 V2000
   -1.5664   -3.1590   -1.2614 C   0  0  0  0  0  0  0  0  0  0  0  0
   -0.9105   -1.7781   -1.3033 C   0  0  1  0  0  0  0  0  0  0  0  0
   -1.5848   -0.8931   -2.2036 O   0  0  0  0  0  0  0  0  0  0  0  0
   -2.6292   -0.2410   -1.4884 C   0  0  0  0  0  0  0  0  0  0  0  0
   -2.0630    0.0347   -0.0951 C   0  0  2  0  0  0  0  0  0  0  0  0
   -0.9964    1.1715   -0.0124 C   0  0  0  0  0  0  0  0  0  0  0  0
    0.0798    0.0953    0.1889 C   0  0  0  0  0  0  0  0  0  0  0  0
    1.2594    0.1227    0.3880 O   0  0  0  0  0  0  0  0  0  0  0  0
   -0.9384   -1.0504    0.0615 C   0  0  2  0  0  0  0  0  0  0  0  0
   -0.9791   -3.8420   -0.6393 H   0  0  0  0  0  0  0  0  0  0  0  0
   -2.5793   -3.1130   -0.8483 H   0  0  0  0  0  0  0  0  0  0  0  0
   -1.6257   -3.5734   -2.2715 H   0  0  0  0  0  0  0  0  0  0  0  0
    0.1133   -1.8731   -1.6799 H   0  0  0  0  0  0  0  0  0  0  0  0
   -2.8921    0.6633   -2.0453 H   0  0  0  0  0  0  0  0  0  0  0  0
   -3.5260   -0.8764   -1.4243 H   0  0  0  0  0  0  0  0  0  0  0  0
   -2.8251    0.0690    0.6831 H   0  0  0  0  0  0  0  0  0  0  0  0
   -0.8661    1.7594   -0.9269 H   0  0  0  0  0  0  0  0  0  0  0  0
   -1.0952    1.8599    0.8320 H   0  0  0  0  0  0  0  0  0  0  0  0
   -0.9691   -1.7367    0.9100 H   0  0  0  0  0  0  0  0  0  0  0  0
  1 11  1  0  0  0  0
  1 10  1  0  0  0  0
  2 13  1  6  0  0  0
  2  1  1  0  0  0  0
  2  9  1  0  0  0  0
  3  4  1  0  0  0  0
  3  2  1  0  0  0  0
  4 15  1  0  0  0  0
  4  5  1  0  0  0  0
  5  6  1  0  0  0  0
  5  9  1  0  0  0  0
  5 16  1  1  0  0  0
  6  7  1  0  0  0  0
  6 18  1  0  0  0  0
  7  8  2  0  0  0  0
  9  7  1  0  0  0  0
  9 19  1  1  0  0  0
 12  1  1  0  0  0  0
 14  4  1  0  0  0  0
 17  6  1  0  0  0  0
M TOR 0 0 1 2 3
M TOR 1 0 1 8 4
M TOR 2 0 1 8 6
M TOR 3 0 1 8 18
M TOR 4 1 2 3 4
M TOR 5 1 2 3 13
M TOR 6 1 2 3 14
M TOR 7 1 8 4 3
M TOR 8 1 8 4 5
M TOR 9 1 8 4 15
M TOR 10 1 8 6 5
M TOR 11 1 8 6 7
M TOR 12 2 1 0 9
M TOR 13 2 1 0 10
M TOR 14 2 1 0 11
M TOR 15 2 1 8 4
M TOR 16 2 1 8 6
M TOR 17 2 1 8 18
M TOR 18 2 3 4 5
M TOR 19 2 3 4 8
M TOR 20 2 3 4 15
M TOR 21 3 2 1 8
M TOR 22 3 2 1 12
M TOR 23 3 4 5 6
M TOR 24 3 4 5 16
M TOR 25 3 4 5 17
M TOR 26 3 4 8 6
M TOR 27 3 4 8 18
M TOR 28 4 5 6 7
M TOR 29 4 5 6 8
M TOR 30 4 8 1 12
M TOR 31 4 8 6 7
M TOR 32 5 4 3 13
M TOR 33 5 4 3 14
M TOR 34 5 4 8 18
M TOR 35 5 6 8 18
M TOR 36 6 5 4 15
M TOR 37 6 8 1 12
M TOR 38 6 8 4 15
M TOR 39 7 6 5 16
M TOR 40 7 6 5 17
M TOR 41 7 6 8 18
M TOR 42 8 1 0 9
M TOR 43 8 1 0 10
M TOR 44 8 1 0 11
M TOR 45 8 4 3 13
M TOR 46 8 4 3 14
M TOR 47 8 4 5 16
M TOR 48 8 4 5 17
M TOR 49 8 6 5 16
M TOR 50 8 6 5 17
M  END
$$$$
