
     RDKit          3D

 19 20  0  0  0  0  0  0  0  0999 V2000
    0.7079    0.5123    1.0318 O   0  0  0  0  0  0  0  0  0  0  0  0
    0.4384    0.0773   -0.0548 C   0  0  0  0  0  0  0  0  0  0  0  0
   -0.4563    0.5798   -0.9143 O   0  0  0  0  0  0  0  0  0  0  0  0
   -1.1493    1.7800   -0.4995 C   0  0  0  0  0  0  0  0  0  0  0  0
   -2.3571    1.4845    0.4163 C   0  0  0  0  0  0  0  0  0  0  0  0
   -3.3665    2.5690    0.0780 C   0  0  0  0  0  0  0  0  0  0  0  0
   -2.8713    3.9946    0.0165 C   0  0  0  0  0  0  0  0  0  0  0  0
   -2.9748    3.1816   -1.2526 C   0  0  0  0  0  0  0  0  0  0  0  0
   -1.7216    2.4783   -1.7460 C   0  0  0  0  0  0  0  0  0  0  0  0
    0.9001   -0.8132   -0.5098 H   0  0  0  0  0  0  0  0  0  0  0  0
   -0.4231    2.4071    0.0201 H   0  0  0  0  0  0  0  0  0  0  0  0
   -2.7646    0.5011    0.1530 H   0  0  0  0  0  0  0  0  0  0  0  0
   -2.0645    1.4533    1.4692 H   0  0  0  0  0  0  0  0  0  0  0  0
   -4.4064    2.3983    0.3320 H   0  0  0  0  0  0  0  0  0  0  0  0
   -3.6083    4.7772    0.1596 H   0  0  0  0  0  0  0  0  0  0  0  0
   -1.8927    4.2397    0.4182 H   0  0  0  0  0  0  0  0  0  0  0  0
   -3.7240    3.4640   -1.9832 H   0  0  0  0  0  0  0  0  0  0  0  0
   -1.9872    1.7144   -2.4856 H   0  0  0  0  0  0  0  0  0  0  0  0
   -0.9910    3.1477   -2.2114 H   0  0  0  0  0  0  0  0  0  0  0  0
  1  2  2  0
  2  3  1  0
  3  4  1  0
  4  5  1  0
  5  6  1  0
  6  7  1  0
  7  8  1  0
  8  9  1  0
  9  4  1  0
  8  6  1  0
  2 10  1  0
  4 11  1  0
  5 12  1  0
  5 13  1  0
  6 14  1  0
  7 15  1  0
  7 16  1  0
  8 17  1  0
  9 18  1  0
  9 19  1  0
M  END
$$$$
