gdb 3089	3.2245516	1.5190735	1.424695	1.2878	73.35	-0.24409	0.06982	0.31391	1000.0178	0.15897	-422.514153	-422.507039	-422.506095	-422.545317	28.735
 OpenBabel02181911413D

 19 21  0  0  1  0  0  0  0  0999 V2000
    0.0190   -0.0413   -0.0431 C   0  0  0  0  0  0  0  0  0  0  0  0
    1.5394    0.0224   -0.0613 C   0  0  2  0  0  0  0  0  0  0  0  0
    2.2270   -0.4199    1.2603 C   0  0  2  0  0  0  0  0  0  0  0  0
    1.9202    0.9090    1.8155 O   0  0  0  0  0  0  0  0  0  0  0  0
    2.1493    1.3530    0.4353 C   0  0  1  0  0  0  0  0  0  0  0  0
    3.6799    1.1281    0.3443 C   0  0  2  0  0  0  0  0  0  0  0  0
    4.1897    0.5829   -0.8955 O   0  0  0  0  0  0  0  0  0  0  0  0
    4.3893   -0.7180   -0.2908 C   0  0  0  0  0  0  0  0  0  0  0  0
    3.7448   -0.2584    1.0323 C   0  0  2  0  0  0  0  0  0  0  0  0
   -0.3762    0.3655    0.8909 H   0  0  0  0  0  0  0  0  0  0  0  0
   -0.4035    0.5308   -0.8758 H   0  0  0  0  0  0  0  0  0  0  0  0
   -0.3283   -1.0752   -0.1437 H   0  0  0  0  0  0  0  0  0  0  0  0
    1.9431   -0.3703   -0.9962 H   0  0  0  0  0  0  0  0  0  0  0  0
    1.8632   -1.2481    1.8693 H   0  0  0  0  0  0  0  0  0  0  0  0
    1.7323    2.3338    0.2060 H   0  0  0  0  0  0  0  0  0  0  0  0
    4.2774    1.9664    0.7106 H   0  0  0  0  0  0  0  0  0  0  0  0
    3.8859   -1.5188   -0.8459 H   0  0  0  0  0  0  0  0  0  0  0  0
    5.4566   -0.9553   -0.2094 H   0  0  0  0  0  0  0  0  0  0  0  0
    4.3245   -0.3827    1.9455 H   0  0  0  0  0  0  0  0  0  0  0  0
  1 10  1  0  0  0  0
  2 13  1  6  0  0  0
  2  1  1  0  0  0  0
  2  5  1  0  0  0  0
  2  3  1  0  0  0  0
  3  4  1  0  0  0  0
  3 14  1  1  0  0  0
  5 15  1  6  0  0  0
  5  4  1  0  0  0  0
  6  5  1  0  0  0  0
  6 16  1  1  0  0  0
  6  9  1  0  0  0  0
  7  8  1  0  0  0  0
  7  6  1  0  0  0  0
  8 18  1  0  0  0  0
  8  9  1  0  0  0  0
  9  3  1  0  0  0  0
  9 19  1  1  0  0  0
 11  1  1  0  0  0  0
 12  1  1  0  0  0  0
 17  8  1  0  0  0  0
M TOR 0 0 1 2 3
M TOR 1 0 1 2 8
M TOR 2 0 1 2 13
M TOR 3 0 1 4 3
M TOR 4 0 1 4 5
M TOR 5 0 1 4 14
M TOR 6 1 2 3 4
M TOR 7 1 2 8 5
M TOR 8 1 2 8 7
M TOR 9 1 2 8 18
M TOR 10 1 4 5 6
M TOR 11 1 4 5 8
M TOR 12 1 4 5 15
M TOR 13 2 1 0 9
M TOR 14 2 1 0 10
M TOR 15 2 1 0 11
M TOR 16 2 1 4 5
M TOR 17 2 1 4 14
M TOR 18 2 3 4 5
M TOR 19 2 3 4 14
M TOR 20 2 8 5 4
M TOR 21 2 8 5 6
M TOR 22 2 8 5 15
M TOR 23 2 8 7 6
M TOR 24 2 8 7 16
M TOR 25 2 8 7 17
M TOR 26 3 2 1 12
M TOR 27 3 2 8 5
M TOR 28 3 2 8 7
M TOR 29 3 2 8 18
M TOR 30 3 4 1 12
M TOR 31 3 4 5 6
M TOR 32 3 4 5 8
M TOR 33 3 4 5 15
M TOR 34 4 1 0 9
M TOR 35 4 1 0 10
M TOR 36 4 1 0 11
M TOR 37 4 1 2 8
M TOR 38 4 1 2 13
M TOR 39 4 3 2 8
M TOR 40 4 3 2 13
M TOR 41 4 5 6 7
M TOR 42 4 5 8 7
M TOR 43 4 5 8 18
M TOR 44 5 4 1 12
M TOR 45 5 6 7 8
M TOR 46 5 6 7 16
M TOR 47 5 6 7 17
M TOR 48 5 8 2 13
M TOR 49 5 8 7 16
M TOR 50 5 8 7 17
M TOR 51 6 5 4 14
M TOR 52 6 5 8 18
M TOR 53 6 7 8 18
M TOR 54 7 6 5 15
M TOR 55 7 8 2 13
M TOR 56 7 8 5 15
M TOR 57 8 2 1 12
M TOR 58 8 5 4 14
M  END
$$$$
