
     RDKit          3D

 19 19  0  0  0  0  0  0  0  0999 V2000
    1.3398    0.7380   -0.0304 O   0  0  0  0  0  0  0  0  0  0  0  0
    0.3462   -0.1118    0.5234 C   0  0  0  0  0  0  0  0  0  0  0  0
   -0.9269    0.6553    0.8938 C   0  0  0  0  0  0  0  0  0  0  0  0
   -2.0051   -0.2287    1.5255 C   0  0  0  0  0  0  0  0  0  0  0  0
   -3.1645    0.5233    2.2476 C   0  0  0  0  0  0  0  0  0  0  0  0
   -2.6280   -0.1486    3.5239 C   0  0  0  0  0  0  0  0  0  0  0  0
   -1.5465   -0.7745    2.8013 O   0  0  0  0  0  0  0  0  0  0  0  0
   -2.4486   -1.2865    0.6201 C   0  0  0  0  0  0  0  0  0  0  0  0
   -2.8319   -2.1463   -0.1279 C   0  0  0  0  0  0  0  0  0  0  0  0
    1.6514    1.3206    0.6693 H   0  0  0  0  0  0  0  0  0  0  0  0
    0.1223   -0.8546   -0.2474 H   0  0  0  0  0  0  0  0  0  0  0  0
    0.7179   -0.6525    1.4049 H   0  0  0  0  0  0  0  0  0  0  0  0
   -0.6795    1.4420    1.6183 H   0  0  0  0  0  0  0  0  0  0  0  0
   -1.3340    1.1434    0.0008 H   0  0  0  0  0  0  0  0  0  0  0  0
   -3.0714    1.6099    2.2127 H   0  0  0  0  0  0  0  0  0  0  0  0
   -4.1669    0.2301    1.9381 H   0  0  0  0  0  0  0  0  0  0  0  0
   -2.2585    0.5234    4.3067 H   0  0  0  0  0  0  0  0  0  0  0  0
   -3.2955   -0.8903    3.9780 H   0  0  0  0  0  0  0  0  0  0  0  0
   -3.1628   -2.9121   -0.7856 H   0  0  0  0  0  0  0  0  0  0  0  0
  1  2  1  0
  2  3  1  0
  3  4  1  0
  4  5  1  0
  5  6  1  0
  6  7  1  0
  4  8  1  0
  8  9  3  0
  7  4  1  0
  1 10  1  0
  2 11  1  0
  2 12  1  0
  3 13  1  0
  3 14  1  0
  5 15  1  0
  5 16  1  0
  6 17  1  0
  6 18  1  0
  9 19  1  0
M  END
$$$$
