
     RDKit          3D

 19 18  0  0  0  0  0  0  0  0999 V2000
    3.1965   -2.5075   -0.2592 C   0  0  0  0  0  0  0  0  0  0  0  0
    1.7992   -2.1897   -0.8270 C   0  0  0  0  0  0  0  0  0  0  0  0
    1.0812   -1.1569    0.0527 C   0  0  0  0  0  0  0  0  0  0  0  0
   -0.1093   -0.7609   -0.5907 O   0  0  0  0  0  0  0  0  0  0  0  0
   -0.8913    0.1279    0.1623 C   0  0  0  0  0  0  0  0  0  0  0  0
   -2.1517    0.4355   -0.6284 C   0  0  0  0  0  0  0  0  0  0  0  0
   -2.9870    1.2215   -0.2694 O   0  0  0  0  0  0  0  0  0  0  0  0
    1.0001   -3.4045   -0.9770 C   0  0  0  0  0  0  0  0  0  0  0  0
    0.3669   -4.4210   -1.0778 C   0  0  0  0  0  0  0  0  0  0  0  0
    3.1202   -2.9380    0.7438 H   0  0  0  0  0  0  0  0  0  0  0  0
    3.7124   -3.2295   -0.8959 H   0  0  0  0  0  0  0  0  0  0  0  0
    3.8043   -1.5991   -0.2025 H   0  0  0  0  0  0  0  0  0  0  0  0
    1.9189   -1.7300   -1.8170 H   0  0  0  0  0  0  0  0  0  0  0  0
    0.8623   -1.5923    1.0409 H   0  0  0  0  0  0  0  0  0  0  0  0
    1.7418   -0.2878    0.2081 H   0  0  0  0  0  0  0  0  0  0  0  0
   -1.1839   -0.3031    1.1354 H   0  0  0  0  0  0  0  0  0  0  0  0
   -0.3641    1.0732    0.3755 H   0  0  0  0  0  0  0  0  0  0  0  0
   -2.2334   -0.1418   -1.5753 H   0  0  0  0  0  0  0  0  0  0  0  0
   -0.2019   -5.3118   -1.1799 H   0  0  0  0  0  0  0  0  0  0  0  0
  1  2  1  0
  2  3  1  0
  3  4  1  0
  4  5  1  0
  5  6  1  0
  6  7  2  0
  2  8  1  0
  8  9  3  0
  1 10  1  0
  1 11  1  0
  1 12  1  0
  2 13  1  0
  3 14  1  0
  3 15  1  0
  5 16  1  0
  5 17  1  0
  6 18  1  0
  9 19  1  0
M  END
$$$$
