gdb 1949	2.652059	1.566857	1.3675408	0.7394	74.87	-0.2319	0.05985	0.29175	1038.385	0.155986	-422.500772	-422.492555	-422.491611	-422.532862	32.479
 OpenBabel02181911403D

 19 21  0  0  1  0  0  0  0  0999 V2000
   -0.0703    0.1858   -0.0670 C   0  0  0  0  0  0  0  0  0  0  0  0
    1.4177   -0.0186   -0.0607 C   0  0  2  0  0  0  0  0  0  0  0  0
    2.3149    0.3642    1.0789 C   0  0  0  0  0  0  0  0  0  0  0  0
    2.5750    0.9813   -0.2688 C   0  0  1  0  0  0  0  0  0  0  0  0
    3.2773    0.0136   -1.2415 C   0  0  1  0  0  0  0  0  0  0  0  0
    3.5552    0.6319   -2.4555 O   0  0  0  0  0  0  0  0  0  0  0  0
    4.2309   -1.0639   -0.6694 C   0  0  0  0  0  0  0  0  0  0  0  0
    3.1066   -1.9254   -0.3550 O   0  0  0  0  0  0  0  0  0  0  0  0
    2.1598   -1.0224   -0.9833 C   0  0  1  0  0  0  0  0  0  0  0  0
   -0.3411    1.1068    0.4597 H   0  0  0  0  0  0  0  0  0  0  0  0
   -0.4638    0.2592   -1.0873 H   0  0  0  0  0  0  0  0  0  0  0  0
   -0.5866   -0.6444    0.4304 H   0  0  0  0  0  0  0  0  0  0  0  0
    1.8654    1.0411    1.7995 H   0  0  0  0  0  0  0  0  0  0  0  0
    2.9901   -0.3637    1.5154 H   0  0  0  0  0  0  0  0  0  0  0  0
    2.5418    2.0509   -0.4386 H   0  0  0  0  0  0  0  0  0  0  0  0
    3.8274   -0.0425   -3.0877 H   0  0  0  0  0  0  0  0  0  0  0  0
    4.8806   -1.5171   -1.4327 H   0  0  0  0  0  0  0  0  0  0  0  0
    4.8313   -0.8133    0.2120 H   0  0  0  0  0  0  0  0  0  0  0  0
    1.5636   -1.4962   -1.7682 H   0  0  0  0  0  0  0  0  0  0  0  0
  1 12  1  0  0  0  0
  1 10  1  0  0  0  0
  2  1  1  6  0  0  0
  2  3  1  0  0  0  0
  3 14  1  0  0  0  0
  3 13  1  0  0  0  0
  4 15  1  6  0  0  0
  4  2  1  0  0  0  0
  4  3  1  0  0  0  0
  5  6  1  6  0  0  0
  5  9  1  0  0  0  0
  5  7  1  0  0  0  0
  5  4  1  0  0  0  0
  7  8  1  0  0  0  0
  7 18  1  0  0  0  0
  9 19  1  6  0  0  0
  9  8  1  0  0  0  0
  9  2  1  0  0  0  0
 11  1  1  0  0  0  0
 16  6  1  0  0  0  0
 17  7  1  0  0  0  0
M TOR 0 0 1 2 3
M TOR 1 0 1 2 12
M TOR 2 0 1 2 13
M TOR 3 0 1 3 4
M TOR 4 0 1 3 14
M TOR 5 0 1 8 4
M TOR 6 0 1 8 7
M TOR 7 0 1 8 18
M TOR 8 1 2 3 4
M TOR 9 1 2 3 14
M TOR 10 1 3 2 12
M TOR 11 1 3 2 13
M TOR 12 1 3 4 5
M TOR 13 1 3 4 6
M TOR 14 1 3 4 8
M TOR 15 1 8 4 5
M TOR 16 1 8 4 6
M TOR 17 1 8 7 6
M TOR 18 2 1 0 9
M TOR 19 2 1 0 10
M TOR 20 2 1 0 11
M TOR 21 2 1 8 4
M TOR 22 2 1 8 7
M TOR 23 2 1 8 18
M TOR 24 2 3 1 8
M TOR 25 2 3 4 5
M TOR 26 2 3 4 6
M TOR 27 2 3 4 8
M TOR 28 3 1 0 9
M TOR 29 3 1 0 10
M TOR 30 3 1 0 11
M TOR 31 3 1 8 7
M TOR 32 3 1 8 18
M TOR 33 3 4 5 15
M TOR 34 3 4 6 7
M TOR 35 3 4 6 16
M TOR 36 3 4 6 17
M TOR 37 3 4 8 7
M TOR 38 3 4 8 18
M TOR 39 4 3 2 12
M TOR 40 4 3 2 13
M TOR 41 4 6 7 8
M TOR 42 5 4 3 14
M TOR 43 5 4 6 7
M TOR 44 5 4 6 16
M TOR 45 5 4 6 17
M TOR 46 5 4 8 7
M TOR 47 5 4 8 18
M TOR 48 6 4 3 14
M TOR 49 6 4 5 15
M TOR 50 6 4 8 18
M TOR 51 6 7 8 18
M TOR 52 8 1 0 9
M TOR 53 8 1 0 10
M TOR 54 8 1 0 11
M TOR 55 8 1 2 12
M TOR 56 8 1 2 13
M TOR 57 8 1 3 14
M TOR 58 8 4 3 14
M TOR 59 8 4 5 15
M TOR 60 8 4 6 16
M TOR 61 8 4 6 17
M TOR 62 8 7 6 16
M TOR 63 8 7 6 17
M  END
$$$$
