
     RDKit          3D

 19 18  0  0  0  0  0  0  0  0999 V2000
    1.6038    0.2705   -0.1184 C   0  0  0  0  0  0  0  0  0  0  0  0
    0.1569    0.1064   -0.1205 C   0  0  0  0  0  0  0  0  0  0  0  0
   -1.0410   -0.0184   -0.1319 C   0  0  0  0  0  0  0  0  0  0  0  0
   -2.4909   -0.1785   -0.1191 C   0  0  0  0  0  0  0  0  0  0  0  0
   -3.0016   -1.2006    0.9316 C   0  0  0  0  0  0  0  0  0  0  0  0
   -4.5360   -1.2123    1.0251 C   0  0  0  0  0  0  0  0  0  0  0  0
   -5.0110   -2.0389    2.0623 O   0  0  0  0  0  0  0  0  0  0  0  0
   -2.4485   -2.5840    0.6510 C   0  0  0  0  0  0  0  0  0  0  0  0
   -3.0930   -3.6059    0.7278 O   0  0  0  0  0  0  0  0  0  0  0  0
    2.0539   -0.1802    0.7729 H   0  0  0  0  0  0  0  0  0  0  0  0
    2.0599   -0.2021   -0.9951 H   0  0  0  0  0  0  0  0  0  0  0  0
    1.8825    1.3298   -0.1297 H   0  0  0  0  0  0  0  0  0  0  0  0
   -2.9660    0.7879    0.0912 H   0  0  0  0  0  0  0  0  0  0  0  0
   -2.8448   -0.4757   -1.1157 H   0  0  0  0  0  0  0  0  0  0  0  0
   -2.5934   -0.9074    1.9104 H   0  0  0  0  0  0  0  0  0  0  0  0
   -4.8925   -0.1986    1.2385 H   0  0  0  0  0  0  0  0  0  0  0  0
   -4.9512   -1.5045    0.0461 H   0  0  0  0  0  0  0  0  0  0  0  0
   -4.7246   -2.9327    1.8314 H   0  0  0  0  0  0  0  0  0  0  0  0
   -1.3779   -2.6143    0.3608 H   0  0  0  0  0  0  0  0  0  0  0  0
  1  2  1  0
  2  3  3  0
  3  4  1  0
  4  5  1  0
  5  6  1  0
  6  7  1  0
  5  8  1  0
  8  9  2  0
  1 10  1  0
  1 11  1  0
  1 12  1  0
  4 13  1  0
  4 14  1  0
  5 15  1  0
  6 16  1  0
  6 17  1  0
  7 18  1  0
  8 19  1  0
M  END
$$$$
