gdb 4894	2.4932673	1.2894641	1.0366999	1.1195	76.71	-0.24112	0.04082	0.28194	1215.0996	0.154762	-422.505982	-422.496304	-422.49536	-422.540961	35.16
 OpenBabel02181911413D

 19 19  0  0  1  0  0  0  0  0999 V2000
    2.7626   -2.8726    0.4739 O   0  0  0  0  0  0  0  0  0  0  0  0
    2.6202   -2.3940   -0.8532 C   0  0  0  0  0  0  0  0  0  0  0  0
    3.1620   -0.9727   -1.0370 C   0  0  1  0  0  0  0  0  0  0  0  0
    2.6584   -0.0064    0.0545 C   0  0  0  0  0  0  0  0  0  0  0  0
    1.2359   -0.1215    0.3548 C   0  0  0  0  0  0  0  0  0  0  0  0
    0.0703   -0.2607    0.6174 C   0  0  0  0  0  0  0  0  0  0  0  0
    4.6767   -0.8406   -1.3305 C   0  0  0  0  0  0  0  0  0  0  0  0
    4.2254   -0.4194   -2.7415 C   0  0  0  0  0  0  0  0  0  0  0  0
    2.8314   -0.5174   -2.3750 O   0  0  0  0  0  0  0  0  0  0  0  0
    2.0313   -2.5075    0.9843 H   0  0  0  0  0  0  0  0  0  0  0  0
    3.1745   -3.0783   -1.5038 H   0  0  0  0  0  0  0  0  0  0  0  0
    1.5736   -2.3961   -1.1834 H   0  0  0  0  0  0  0  0  0  0  0  0
    3.2356   -0.2069    0.9655 H   0  0  0  0  0  0  0  0  0  0  0  0
    2.8972    1.0157   -0.2596 H   0  0  0  0  0  0  0  0  0  0  0  0
   -0.9645   -0.3553    0.8373 H   0  0  0  0  0  0  0  0  0  0  0  0
    5.1880   -0.0634   -0.7590 H   0  0  0  0  0  0  0  0  0  0  0  0
    5.2448   -1.7691   -1.2584 H   0  0  0  0  0  0  0  0  0  0  0  0
    4.4962    0.5971   -3.0501 H   0  0  0  0  0  0  0  0  0  0  0  0
    4.4817   -1.1134   -3.5507 H   0  0  0  0  0  0  0  0  0  0  0  0
  1 10  1  0  0  0  0
  2  1  1  0  0  0  0
  3  2  1  1  0  0  0
  3  4  1  0  0  0  0
  4  5  1  0  0  0  0
  4 13  1  0  0  0  0
  5  6  3  0  0  0  0
  6 15  1  0  0  0  0
  7 17  1  0  0  0  0
  7  3  1  0  0  0  0
  7 16  1  0  0  0  0
  8  9  1  0  0  0  0
  8  7  1  0  0  0  0
  9  3  1  0  0  0  0
 11  2  1  0  0  0  0
 12  2  1  0  0  0  0
 14  4  1  0  0  0  0
 18  8  1  0  0  0  0
 19  8  1  0  0  0  0
M TOR 0 0 1 2 3
M TOR 1 0 1 2 6
M TOR 2 0 1 2 8
M TOR 3 1 2 3 4
M TOR 4 1 2 3 12
M TOR 5 1 2 3 13
M TOR 6 1 2 6 7
M TOR 7 1 2 6 15
M TOR 8 1 2 6 16
M TOR 9 1 2 8 7
M TOR 10 2 1 0 9
M TOR 11 2 3 4 5
M TOR 12 2 6 7 8
M TOR 13 2 6 7 17
M TOR 14 2 6 7 18
M TOR 15 2 8 7 17
M TOR 16 2 8 7 18
M TOR 17 3 2 1 10
M TOR 18 3 2 1 11
M TOR 19 3 2 6 7
M TOR 20 3 2 6 15
M TOR 21 3 2 6 16
M TOR 22 3 2 8 7
M TOR 23 3 4 5 14
M TOR 24 4 3 2 6
M TOR 25 4 3 2 8
M TOR 26 5 4 3 12
M TOR 27 5 4 3 13
M TOR 28 6 2 1 10
M TOR 29 6 2 1 11
M TOR 30 6 2 3 12
M TOR 31 6 2 3 13
M TOR 32 8 2 1 10
M TOR 33 8 2 1 11
M TOR 34 8 2 3 12
M TOR 35 8 2 3 13
M TOR 36 8 2 6 15
M TOR 37 8 2 6 16
M TOR 38 8 7 6 15
M TOR 39 8 7 6 16
M  END
$$$$
