
     RDKit          3D

 19 20  0  0  0  0  0  0  0  0999 V2000
    1.3227   -0.4849   -1.1471 C   0  0  0  0  0  0  0  0  0  0  0  0
    0.9877    0.0646    0.2227 C   0  0  0  0  0  0  0  0  0  0  0  0
    1.6981    1.3206    0.6575 C   0  0  0  0  0  0  0  0  0  0  0  0
    2.0352   -0.0316    1.2958 C   0  0  0  0  0  0  0  0  0  0  0  0
    1.4391    0.4366    2.6426 C   0  0  0  0  0  0  0  0  0  0  0  0
    2.4267    0.4433    3.7803 C   0  0  0  0  0  0  0  0  0  0  0  0
    2.9895    1.4199    4.2098 O   0  0  0  0  0  0  0  0  0  0  0  0
    1.1555    1.8322    1.9828 C   0  0  0  0  0  0  0  0  0  0  0  0
   -0.1784    2.2844    1.9244 O   0  0  0  0  0  0  0  0  0  0  0  0
    1.1167   -1.5590   -1.2051 H   0  0  0  0  0  0  0  0  0  0  0  0
    0.7329    0.0126   -1.9242 H   0  0  0  0  0  0  0  0  0  0  0  0
    2.3812   -0.3353   -1.3861 H   0  0  0  0  0  0  0  0  0  0  0  0
   -0.0530   -0.0527    0.5181 H   0  0  0  0  0  0  0  0  0  0  0  0
    2.2819    1.9076   -0.0416 H   0  0  0  0  0  0  0  0  0  0  0  0
    2.9342   -0.6259    1.1830 H   0  0  0  0  0  0  0  0  0  0  0  0
    0.5523   -0.1348    2.9470 H   0  0  0  0  0  0  0  0  0  0  0  0
    2.6298   -0.5625    4.2159 H   0  0  0  0  0  0  0  0  0  0  0  0
    1.8207    2.5769    2.4326 H   0  0  0  0  0  0  0  0  0  0  0  0
   -0.3961    2.6920    2.7687 H   0  0  0  0  0  0  0  0  0  0  0  0
  1  2  1  0
  2  3  1  0
  3  4  1  0
  4  5  1  0
  5  6  1  0
  6  7  2  0
  5  8  1  0
  8  9  1  0
  4  2  1  0
  8  3  1  0
  1 10  1  0
  1 11  1  0
  1 12  1  0
  2 13  1  0
  3 14  1  0
  4 15  1  0
  5 16  1  0
  6 17  1  0
  8 18  1  0
  9 19  1  0
M  END
$$$$
