gdb 1515	3.3562548	1.1195812	1.0256012	4.1065	76.74	-0.26614	0.01126	0.2774	1238.7004	0.154972	-422.57344	-422.564389	-422.563445	-422.606887	33.949
 OpenBabel02181911403D

 19 20  0  0  1  0  0  0  0  0999 V2000
   -3.5038    1.5292   -1.2753 C   0  0  0  0  0  0  0  0  0  0  0  0
   -3.2703    0.1663   -0.6508 C   0  0  0  0  0  0  0  0  0  0  0  0
   -3.8503   -1.0031   -1.4242 C   0  0  0  0  0  0  0  0  0  0  0  0
   -3.2601    0.0771    0.8787 C   0  0  0  0  0  0  0  0  0  0  0  0
   -1.9973   -0.0537    0.0993 C   0  0  1  0  0  0  0  0  0  0  0  0
   -0.9448   -1.1504    0.0372 C   0  0  0  0  0  0  0  0  0  0  0  0
    0.0293    0.0291    0.1156 C   0  0  0  0  0  0  0  0  0  0  0  0
    1.2026    0.2118    0.1337 O   0  0  0  0  0  0  0  0  0  0  0  0
   -0.9689    0.9742    0.1719 O   0  0  0  0  0  0  0  0  0  0  0  0
   -3.0168    2.3226   -0.7040 H   0  0  0  0  0  0  0  0  0  0  0  0
   -3.1051    1.5628   -2.2954 H   0  0  0  0  0  0  0  0  0  0  0  0
   -4.5758    1.7491   -1.3282 H   0  0  0  0  0  0  0  0  0  0  0  0
   -3.6385   -1.9598   -0.9369 H   0  0  0  0  0  0  0  0  0  0  0  0
   -4.9388   -0.9076   -1.5068 H   0  0  0  0  0  0  0  0  0  0  0  0
   -3.4428   -1.0453   -2.4409 H   0  0  0  0  0  0  0  0  0  0  0  0
   -3.4020    0.9978    1.4352 H   0  0  0  0  0  0  0  0  0  0  0  0
   -3.6666   -0.8099    1.3551 H   0  0  0  0  0  0  0  0  0  0  0  0
   -0.8926   -1.8278    0.8918 H   0  0  0  0  0  0  0  0  0  0  0  0
   -0.8842   -1.7207   -0.8918 H   0  0  0  0  0  0  0  0  0  0  0  0
  1 10  1  0  0  0  0
  1  2  1  0  0  0  0
  2  5  1  0  0  0  0
  2  4  1  0  0  0  0
  3 13  1  0  0  0  0
  3  2  1  0  0  0  0
  4 17  1  0  0  0  0
  4 16  1  0  0  0  0
  5  9  1  1  0  0  0
  5  4  1  0  0  0  0
  6  5  1  0  0  0  0
  6  7  1  0  0  0  0
  6 18  1  0  0  0  0
  7  8  2  0  0  0  0
  7  9  1  0  0  0  0
 11  1  1  0  0  0  0
 12  1  1  0  0  0  0
 14  3  1  0  0  0  0
 15  3  1  0  0  0  0
 19  6  1  0  0  0  0
M TOR 0 0 1 2 12
M TOR 1 0 1 2 13
M TOR 2 0 1 2 14
M TOR 3 0 1 3 4
M TOR 4 0 1 3 15
M TOR 5 0 1 3 16
M TOR 6 0 1 4 5
M TOR 7 0 1 4 8
M TOR 8 1 3 4 5
M TOR 9 1 3 4 8
M TOR 10 1 4 3 15
M TOR 11 1 4 3 16
M TOR 12 1 4 5 6
M TOR 13 1 4 5 17
M TOR 14 1 4 5 18
M TOR 15 1 4 8 6
M TOR 16 2 1 0 9
M TOR 17 2 1 0 10
M TOR 18 2 1 0 11
M TOR 19 2 1 3 4
M TOR 20 2 1 3 15
M TOR 21 2 1 3 16
M TOR 22 2 1 4 5
M TOR 23 2 1 4 8
M TOR 24 3 1 0 9
M TOR 25 3 1 0 10
M TOR 26 3 1 0 11
M TOR 27 3 1 2 12
M TOR 28 3 1 2 13
M TOR 29 3 1 2 14
M TOR 30 3 4 5 6
M TOR 31 3 4 5 17
M TOR 32 3 4 5 18
M TOR 33 3 4 8 6
M TOR 34 4 1 0 9
M TOR 35 4 1 0 10
M TOR 36 4 1 0 11
M TOR 37 4 1 2 12
M TOR 38 4 1 2 13
M TOR 39 4 1 2 14
M TOR 40 4 5 6 7
M TOR 41 4 5 6 8
M TOR 42 4 8 6 7
M TOR 43 5 4 3 15
M TOR 44 5 4 3 16
M TOR 45 7 6 5 17
M TOR 46 7 6 5 18
M TOR 47 8 4 3 15
M TOR 48 8 4 3 16
M TOR 49 8 4 5 17
M TOR 50 8 4 5 18
M TOR 51 8 6 5 17
M TOR 52 8 6 5 18
M  END
$$$$
