gdb 1310	4.2896702	0.6190166	0.5549278	2.3	84.21	-0.25959	-0.05184	0.20775	1977.8514	0.152917	-422.550844	-422.539821	-422.538877	-422.589307	37.515
 OpenBabel02181911403D

 19 18  0  0  1  0  0  0  0  0999 V2000
    2.7136   -2.1854   -0.7336 C   0  0  0  0  0  0  0  0  0  0  0  0
    1.8186   -2.2923    0.4926 C   0  0  2  0  0  0  0  0  0  0  0  0
    0.7838   -3.2069    0.1799 O   0  0  0  0  0  0  0  0  0  0  0  0
    1.2338   -0.9139    0.8904 C   0  0  0  0  0  0  0  0  0  0  0  0
    0.3196   -1.0126    2.0185 C   0  0  0  0  0  0  0  0  0  0  0  0
   -0.4372   -1.1410    2.9525 C   0  0  0  0  0  0  0  0  0  0  0  0
   -1.3435   -1.2492    4.0826 C   0  0  0  0  0  0  0  0  0  0  0  0
   -1.9647   -2.6151    4.2947 C   0  0  0  0  0  0  0  0  0  0  0  0
   -1.5778   -0.3004    4.7999 O   0  0  0  0  0  0  0  0  0  0  0  0
    3.1055   -3.1711   -0.9960 H   0  0  0  0  0  0  0  0  0  0  0  0
    2.1446   -1.8058   -1.5882 H   0  0  0  0  0  0  0  0  0  0  0  0
    3.5564   -1.5139   -0.5452 H   0  0  0  0  0  0  0  0  0  0  0  0
    2.4120   -2.6616    1.3449 H   0  0  0  0  0  0  0  0  0  0  0  0
    0.1857   -3.2380    0.9358 H   0  0  0  0  0  0  0  0  0  0  0  0
    2.0461   -0.2158    1.1278 H   0  0  0  0  0  0  0  0  0  0  0  0
    0.6953   -0.5001    0.0279 H   0  0  0  0  0  0  0  0  0  0  0  0
   -2.6205   -2.5874    5.1660 H   0  0  0  0  0  0  0  0  0  0  0  0
   -2.5346   -2.9113    3.4071 H   0  0  0  0  0  0  0  0  0  0  0  0
   -1.1815   -3.3673    4.4396 H   0  0  0  0  0  0  0  0  0  0  0  0
  1 12  1  0  0  0  0
  1  2  1  0  0  0  0
  2  4  1  0  0  0  0
  2 13  1  1  0  0  0
  3  2  1  0  0  0  0
  3 14  1  0  0  0  0
  4 15  1  0  0  0  0
  4  5  1  0  0  0  0
  5  6  3  0  0  0  0
  6  7  1  0  0  0  0
  7  8  1  0  0  0  0
  7  9  2  0  0  0  0
  8 19  1  0  0  0  0
  8 17  1  0  0  0  0
 10  1  1  0  0  0  0
 11  1  1  0  0  0  0
 16  4  1  0  0  0  0
 18  8  1  0  0  0  0
M TOR 0 0 1 2 13
M TOR 1 0 1 3 4
M TOR 2 0 1 3 14
M TOR 3 0 1 3 15
M TOR 4 1 3 4 5
M TOR 5 2 1 0 9
M TOR 6 2 1 0 10
M TOR 7 2 1 0 11
M TOR 8 2 1 3 4
M TOR 9 2 1 3 14
M TOR 10 2 1 3 15
M TOR 11 3 1 0 9
M TOR 12 3 1 0 10
M TOR 13 3 1 0 11
M TOR 14 3 1 2 13
M TOR 15 3 4 5 6
M TOR 16 4 3 1 12
M TOR 17 4 5 6 7
M TOR 18 4 5 6 8
M TOR 19 5 4 3 14
M TOR 20 5 4 3 15
M TOR 21 5 6 7 16
M TOR 22 5 6 7 17
M TOR 23 5 6 7 18
M TOR 24 8 6 7 16
M TOR 25 8 6 7 17
M TOR 26 8 6 7 18
M  END
$$$$
