
     RDKit          3D

 19 21  0  0  0  0  0  0  0  0999 V2000
    4.7267    0.3524    0.0559 C   0  0  0  0  0  0  0  0  0  0  0  0
    3.2635    0.0917   -0.1011 C   0  0  0  0  0  0  0  0  0  0  0  0
    2.3051    0.8854    0.6837 O   0  0  0  0  0  0  0  0  0  0  0  0
    1.4474   -0.0266   -0.0888 C   0  0  0  0  0  0  0  0  0  0  0  0
   -0.0350    0.0421    0.0880 C   0  0  0  0  0  0  0  0  0  0  0  0
    2.4384   -1.2149    0.1473 C   0  0  0  0  0  0  0  0  0  0  0  0
    2.4825   -2.0242   -1.1370 C   0  0  0  0  0  0  0  0  0  0  0  0
    2.4075   -0.9771   -2.1343 O   0  0  0  0  0  0  0  0  0  0  0  0
    2.3368    0.1891   -1.3502 C   0  0  0  0  0  0  0  0  0  0  0  0
    5.0557    0.1419    1.0783 H   0  0  0  0  0  0  0  0  0  0  0  0
    5.2970   -0.2817   -0.6303 H   0  0  0  0  0  0  0  0  0  0  0  0
    4.9557    1.3979   -0.1726 H   0  0  0  0  0  0  0  0  0  0  0  0
   -0.3202   -0.2088    1.1145 H   0  0  0  0  0  0  0  0  0  0  0  0
   -0.4008    1.0489   -0.1362 H   0  0  0  0  0  0  0  0  0  0  0  0
   -0.5274   -0.6611   -0.5912 H   0  0  0  0  0  0  0  0  0  0  0  0
    2.4770   -1.7074    1.1181 H   0  0  0  0  0  0  0  0  0  0  0  0
    3.4110   -2.5936   -1.2669 H   0  0  0  0  0  0  0  0  0  0  0  0
    1.6341   -2.7094   -1.2549 H   0  0  0  0  0  0  0  0  0  0  0  0
    2.2738    1.0933   -1.9530 H   0  0  0  0  0  0  0  0  0  0  0  0
  1  2  1  0
  2  3  1  0
  3  4  1  0
  4  5  1  0
  4  6  1  0
  6  7  1  0
  7  8  1  0
  8  9  1  0
  6  2  1  0
  9  2  1  0
  9  4  1  0
  1 10  1  0
  1 11  1  0
  1 12  1  0
  5 13  1  0
  5 14  1  0
  5 15  1  0
  6 16  1  0
  7 17  1  0
  7 18  1  0
  9 19  1  0
M  END
$$$$
