gdb 3749	2.3935067	1.5861057	1.1278411	2.7926	78.99	-0.21279	0.01582	0.22861	1130.3828	0.155635	-422.543386	-422.534518	-422.533574	-422.576711	33.451
 OpenBabel02181911413D

 19 20  0  0  1  0  0  0  0  0999 V2000
    1.5508    0.4133    0.4010 C   0  0  0  0  0  0  0  0  0  0  0  0
    0.1171    0.0223    0.2479 C   0  0  0  0  0  0  0  0  0  0  0  0
   -0.4304   -1.1902    0.3405 C   0  0  0  0  0  0  0  0  0  0  0  0
   -1.9131   -1.1146    0.1173 C   0  0  0  0  0  0  0  0  0  0  0  0
   -2.1727    0.2700   -0.1530 O   0  0  0  0  0  0  0  0  0  0  0  0
   -0.9616    1.0003   -0.0369 C   0  0  2  0  0  0  0  0  0  0  0  0
   -0.8586    2.2542   -0.8776 C   0  0  0  0  0  0  0  0  0  0  0  0
   -1.1396    2.3568    0.6098 C   0  0  1  0  0  0  0  0  0  0  0  0
   -2.4141    2.6814    1.0609 O   0  0  0  0  0  0  0  0  0  0  0  0
    1.6811    1.1414    1.2108 H   0  0  0  0  0  0  0  0  0  0  0  0
    2.1752   -0.4551    0.6231 H   0  0  0  0  0  0  0  0  0  0  0  0
    1.9337    0.8834   -0.5127 H   0  0  0  0  0  0  0  0  0  0  0  0
    0.0894   -2.1153    0.5554 H   0  0  0  0  0  0  0  0  0  0  0  0
   -2.2539   -1.7157   -0.7388 H   0  0  0  0  0  0  0  0  0  0  0  0
   -2.4943   -1.4370    0.9949 H   0  0  0  0  0  0  0  0  0  0  0  0
    0.1149    2.5564   -1.2511 H   0  0  0  0  0  0  0  0  0  0  0  0
   -1.6939    2.4448   -1.5431 H   0  0  0  0  0  0  0  0  0  0  0  0
   -0.3553    2.7457    1.2544 H   0  0  0  0  0  0  0  0  0  0  0  0
   -2.9559    1.8927    0.9120 H   0  0  0  0  0  0  0  0  0  0  0  0
  1 11  1  0  0  0  0
  1 10  1  0  0  0  0
  2  3  2  0  0  0  0
  2  1  1  0  0  0  0
  3 13  1  0  0  0  0
  4  3  1  0  0  0  0
  4 15  1  0  0  0  0
  5  4  1  0  0  0  0
  6  5  1  6  0  0  0
  6  2  1  0  0  0  0
  6  8  1  0  0  0  0
  7  6  1  0  0  0  0
  7  8  1  0  0  0  0
  8  9  1  0  0  0  0
  8 18  1  1  0  0  0
 12  1  1  0  0  0  0
 14  4  1  0  0  0  0
 16  7  1  0  0  0  0
 17  7  1  0  0  0  0
 19  9  1  0  0  0  0
M TOR 0 0 1 2 3
M TOR 1 0 1 2 12
M TOR 2 0 1 5 4
M TOR 3 0 1 5 6
M TOR 4 0 1 5 7
M TOR 5 1 2 3 4
M TOR 6 1 2 3 13
M TOR 7 1 2 3 14
M TOR 8 1 5 4 3
M TOR 9 1 5 6 7
M TOR 10 1 5 6 15
M TOR 11 1 5 6 16
M TOR 12 1 5 7 8
M TOR 13 1 5 7 17
M TOR 14 2 1 0 9
M TOR 15 2 1 0 10
M TOR 16 2 1 0 11
M TOR 17 2 1 5 4
M TOR 18 2 1 5 6
M TOR 19 2 1 5 7
M TOR 20 2 3 4 5
M TOR 21 3 2 1 5
M TOR 22 3 4 5 6
M TOR 23 3 4 5 7
M TOR 24 4 3 2 12
M TOR 25 4 5 6 7
M TOR 26 4 5 6 15
M TOR 27 4 5 6 16
M TOR 28 4 5 7 8
M TOR 29 4 5 7 17
M TOR 30 5 1 0 9
M TOR 31 5 1 0 10
M TOR 32 5 1 0 11
M TOR 33 5 1 2 12
M TOR 34 5 4 3 13
M TOR 35 5 4 3 14
M TOR 36 5 6 7 8
M TOR 37 5 6 7 17
M TOR 38 5 7 6 15
M TOR 39 5 7 6 16
M TOR 40 5 7 8 18
M TOR 41 6 7 8 18
M TOR 42 8 7 6 15
M TOR 43 8 7 6 16
M  END
$$$$
