gdb 2523	2.4192399	1.4793473	1.1545634	5.3471	78.53	-0.25889	-0.03336	0.22553	1143.9648	0.155192	-422.627549	-422.618223	-422.617279	-422.661132	34.56
 OpenBabel02181911413D

 19 19  0  0  0  0  0  0  0  0999 V2000
    1.3133    0.9305    0.4500 C   0  0  0  0  0  0  0  0  0  0  0  0
   -0.0366    0.3147    0.2869 C   0  0  0  0  0  0  0  0  0  0  0  0
   -1.2130    0.9183    0.1038 C   0  0  0  0  0  0  0  0  0  0  0  0
   -2.2797   -0.0974   -0.0056 C   0  0  0  0  0  0  0  0  0  0  0  0
   -3.4602    0.0339   -0.1721 O   0  0  0  0  0  0  0  0  0  0  0  0
   -1.6854   -1.3292    0.1206 O   0  0  0  0  0  0  0  0  0  0  0  0
   -0.2628   -1.1894    0.3104 C   0  0  0  0  0  0  0  0  0  0  0  0
    0.0934   -1.8165    1.6641 C   0  0  0  0  0  0  0  0  0  0  0  0
    0.4377   -1.9076   -0.8497 C   0  0  0  0  0  0  0  0  0  0  0  0
    1.7609    0.6522    1.4113 H   0  0  0  0  0  0  0  0  0  0  0  0
    2.0023    0.5847   -0.3294 H   0  0  0  0  0  0  0  0  0  0  0  0
    1.2600    2.0202    0.4005 H   0  0  0  0  0  0  0  0  0  0  0  0
   -1.4182    1.9773    0.0372 H   0  0  0  0  0  0  0  0  0  0  0  0
   -0.1974   -2.8701    1.6702 H   0  0  0  0  0  0  0  0  0  0  0  0
    1.1694   -1.7549    1.8515 H   0  0  0  0  0  0  0  0  0  0  0  0
   -0.4346   -1.3061    2.4738 H   0  0  0  0  0  0  0  0  0  0  0  0
    0.1485   -2.9617   -0.8591 H   0  0  0  0  0  0  0  0  0  0  0  0
    0.1521   -1.4610   -1.8055 H   0  0  0  0  0  0  0  0  0  0  0  0
    1.5251   -1.8497   -0.7448 H   0  0  0  0  0  0  0  0  0  0  0  0
  1 10  1  0  0  0  0
  2  7  1  0  0  0  0
  2  1  1  0  0  0  0
  3  2  2  0  0  0  0
  4  3  1  0  0  0  0
  4  6  1  0  0  0  0
  5  4  2  0  0  0  0
  6  7  1  0  0  0  0
  7  8  1  0  0  0  0
  8 14  1  0  0  0  0
  8 15  1  0  0  0  0
  8 16  1  0  0  0  0
  9 19  1  0  0  0  0
  9  7  1  0  0  0  0
 11  1  1  0  0  0  0
 12  1  1  0  0  0  0
 13  3  1  0  0  0  0
 17  9  1  0  0  0  0
 18  9  1  0  0  0  0
M TOR 0 0 1 2 3
M TOR 1 0 1 2 12
M TOR 2 0 1 6 5
M TOR 3 0 1 6 7
M TOR 4 0 1 6 8
M TOR 5 1 2 3 4
M TOR 6 1 2 3 5
M TOR 7 1 6 5 3
M TOR 8 1 6 7 13
M TOR 9 1 6 7 14
M TOR 10 1 6 7 15
M TOR 11 1 6 8 16
M TOR 12 1 6 8 17
M TOR 13 1 6 8 18
M TOR 14 2 1 0 9
M TOR 15 2 1 0 10
M TOR 16 2 1 0 11
M TOR 17 2 1 6 5
M TOR 18 2 1 6 7
M TOR 19 2 1 6 8
M TOR 20 2 3 5 6
M TOR 21 3 2 1 6
M TOR 22 3 5 6 7
M TOR 23 3 5 6 8
M TOR 24 4 3 2 12
M TOR 25 4 3 5 6
M TOR 26 5 3 2 12
M TOR 27 5 6 7 13
M TOR 28 5 6 7 14
M TOR 29 5 6 7 15
M TOR 30 5 6 8 16
M TOR 31 5 6 8 17
M TOR 32 5 6 8 18
M TOR 33 6 1 0 9
M TOR 34 6 1 0 10
M TOR 35 6 1 0 11
M TOR 36 6 1 2 12
M TOR 37 7 6 8 16
M TOR 38 7 6 8 17
M TOR 39 7 6 8 18
M TOR 40 8 6 7 13
M TOR 41 8 6 7 14
M TOR 42 8 6 7 15
M  END
$$$$
