
     RDKit          3D

 19 21  0  0  0  0  0  0  0  0999 V2000
   -0.1634    0.0159    0.0569 C   0  0  0  0  0  0  0  0  0  0  0  0
    1.1589    0.4107    0.6277 C   0  0  0  0  0  0  0  0  0  0  0  0
    1.1592    0.7168    2.0177 O   0  0  0  0  0  0  0  0  0  0  0  0
    2.5481    0.9741    2.1724 C   0  0  0  0  0  0  0  0  0  0  0  0
    2.8234    2.0813    1.1317 C   0  0  0  0  0  0  0  0  0  0  0  0
    2.2452    1.2756   -0.0202 C   0  0  0  0  0  0  0  0  0  0  0  0
    2.5257   -0.1828    0.3573 C   0  0  0  0  0  0  0  0  0  0  0  0
    2.8945   -1.3116   -0.5481 C   0  0  0  0  0  0  0  0  0  0  0  0
    3.1896   -0.1653    1.6161 O   0  0  0  0  0  0  0  0  0  0  0  0
   -0.5757   -0.8442    0.5940 H   0  0  0  0  0  0  0  0  0  0  0  0
   -0.8819    0.8392    0.1261 H   0  0  0  0  0  0  0  0  0  0  0  0
   -0.0606   -0.2548   -0.9976 H   0  0  0  0  0  0  0  0  0  0  0  0
    2.8143    1.1112    3.2169 H   0  0  0  0  0  0  0  0  0  0  0  0
    2.2709    2.9976    1.3511 H   0  0  0  0  0  0  0  0  0  0  0  0
    3.8899    2.2941    1.0307 H   0  0  0  0  0  0  0  0  0  0  0  0
    2.1927    1.6210   -1.0436 H   0  0  0  0  0  0  0  0  0  0  0  0
    2.7186   -2.2744   -0.0579 H   0  0  0  0  0  0  0  0  0  0  0  0
    2.2985   -1.2789   -1.4644 H   0  0  0  0  0  0  0  0  0  0  0  0
    3.9511   -1.2590   -0.8301 H   0  0  0  0  0  0  0  0  0  0  0  0
  1  2  1  0
  2  3  1  0
  3  4  1  0
  4  5  1  0
  5  6  1  0
  6  7  1  0
  7  8  1  0
  7  9  1  0
  6  2  1  0
  7  2  1  0
  9  4  1  0
  1 10  1  0
  1 11  1  0
  1 12  1  0
  4 13  1  0
  5 14  1  0
  5 15  1  0
  6 16  1  0
  8 17  1  0
  8 18  1  0
  8 19  1  0
M  END
$$$$
