
     RDKit          3D

 19 21  0  0  0  0  0  0  0  0999 V2000
   -2.1785   -0.9830   -0.8654 C   0  0  0  0  0  0  0  0  0  0  0  0
   -1.9418   -0.0612    0.2941 C   0  0  0  0  0  0  0  0  0  0  0  0
   -2.4792   -0.3450    1.7097 C   0  0  0  0  0  0  0  0  0  0  0  0
   -1.6449    0.4538    2.7153 C   0  0  0  0  0  0  0  0  0  0  0  0
   -1.5970    1.5539    1.6262 C   0  0  0  0  0  0  0  0  0  0  0  0
   -1.3508    2.8809    1.9128 O   0  0  0  0  0  0  0  0  0  0  0  0
   -2.8997    0.8987    0.9644 C   0  0  0  0  0  0  0  0  0  0  0  0
   -0.7868    0.9232    0.4653 C   0  0  0  0  0  0  0  0  0  0  0  0
    0.5309    0.4735    0.6604 O   0  0  0  0  0  0  0  0  0  0  0  0
   -1.4032   -1.7555   -0.9219 H   0  0  0  0  0  0  0  0  0  0  0  0
   -3.1461   -1.4889   -0.7803 H   0  0  0  0  0  0  0  0  0  0  0  0
   -2.1703   -0.4356   -1.8145 H   0  0  0  0  0  0  0  0  0  0  0  0
   -3.0769   -1.2260    1.9050 H   0  0  0  0  0  0  0  0  0  0  0  0
   -2.2585    0.7665    3.5676 H   0  0  0  0  0  0  0  0  0  0  0  0
   -0.6913    0.0567    3.0872 H   0  0  0  0  0  0  0  0  0  0  0  0
   -1.8492    3.1263    2.6995 H   0  0  0  0  0  0  0  0  0  0  0  0
   -3.8613    1.2796    0.6533 H   0  0  0  0  0  0  0  0  0  0  0  0
   -0.7497    1.6275   -0.3716 H   0  0  0  0  0  0  0  0  0  0  0  0
    0.5100   -0.2516    1.2931 H   0  0  0  0  0  0  0  0  0  0  0  0
  1  2  1  0
  2  3  1  0
  3  4  1  0
  4  5  1  0
  5  6  1  0
  5  7  1  0
  5  8  1  0
  8  9  1  0
  7  2  1  0
  8  2  1  0
  7  3  1  0
  1 10  1  0
  1 11  1  0
  1 12  1  0
  3 13  1  0
  4 14  1  0
  4 15  1  0
  6 16  1  0
  7 17  1  0
  8 18  1  0
  9 19  1  0
M  END
$$$$
