
     RDKit          3D

 19 20  0  0  0  0  0  0  0  0999 V2000
    0.0638    2.1790   -2.1888 C   0  0  0  0  0  0  0  0  0  0  0  0
   -0.1220    0.7012   -1.9784 C   0  0  0  0  0  0  0  0  0  0  0  0
   -1.4490   -0.1215   -2.1080 C   0  0  0  0  0  0  0  0  0  0  0  0
   -0.3716   -1.1549   -1.6650 C   0  0  0  0  0  0  0  0  0  0  0  0
    0.5686   -0.4903   -2.7079 C   0  0  0  0  0  0  0  0  0  0  0  0
    0.0917   -0.0809   -0.6126 C   0  0  0  0  0  0  0  0  0  0  0  0
   -0.7970    0.2293    0.4136 O   0  0  0  0  0  0  0  0  0  0  0  0
    1.4807   -0.1818   -0.0397 C   0  0  0  0  0  0  0  0  0  0  0  0
    1.6834    0.0127    1.1400 O   0  0  0  0  0  0  0  0  0  0  0  0
   -0.5133    2.7425   -1.4483 H   0  0  0  0  0  0  0  0  0  0  0  0
    1.1154    2.4707   -2.0937 H   0  0  0  0  0  0  0  0  0  0  0  0
   -0.2795    2.4782   -3.1850 H   0  0  0  0  0  0  0  0  0  0  0  0
   -2.2404    0.1040   -1.3962 H   0  0  0  0  0  0  0  0  0  0  0  0
   -1.8299   -0.2403   -3.1262 H   0  0  0  0  0  0  0  0  0  0  0  0
   -0.5099   -2.2195   -1.4745 H   0  0  0  0  0  0  0  0  0  0  0  0
    1.6477   -0.6167   -2.6120 H   0  0  0  0  0  0  0  0  0  0  0  0
    0.2644   -0.6275   -3.7480 H   0  0  0  0  0  0  0  0  0  0  0  0
   -0.2507    0.2951    1.2137 H   0  0  0  0  0  0  0  0  0  0  0  0
    2.3132   -0.4395   -0.7155 H   0  0  0  0  0  0  0  0  0  0  0  0
  1  2  1  0
  2  3  1  0
  3  4  1  0
  4  5  1  0
  4  6  1  0
  6  7  1  0
  6  8  1  0
  8  9  2  0
  5  2  1  0
  6  2  1  0
  1 10  1  0
  1 11  1  0
  1 12  1  0
  3 13  1  0
  3 14  1  0
  4 15  1  0
  5 16  1  0
  5 17  1  0
  7 18  1  0
  8 19  1  0
M  END
$$$$
