
     RDKit          3D

 19 21  0  0  0  0  0  0  0  0999 V2000
    1.3290    0.8743    0.0823 O   0  0  0  0  0  0  0  0  0  0  0  0
    0.4198   -0.0940    0.5722 C   0  0  0  0  0  0  0  0  0  0  0  0
   -0.9072    0.5314    0.8825 C   0  0  0  0  0  0  0  0  0  0  0  0
   -0.8743    1.6347    1.8706 O   0  0  0  0  0  0  0  0  0  0  0  0
   -2.2792    1.5216    1.4513 C   0  0  0  0  0  0  0  0  0  0  0  0
   -2.2176   -0.0337    1.5138 C   0  0  0  0  0  0  0  0  0  0  0  0
   -3.1010   -0.6239    0.4207 C   0  0  0  0  0  0  0  0  0  0  0  0
   -2.8366    0.3973   -0.7322 C   0  0  0  0  0  0  0  0  0  0  0  0
   -1.8702    1.3487   -0.0372 C   0  0  0  0  0  0  0  0  0  0  0  0
    1.2661    1.6293    0.6800 H   0  0  0  0  0  0  0  0  0  0  0  0
    0.3059   -0.8564   -0.2065 H   0  0  0  0  0  0  0  0  0  0  0  0
    0.8035   -0.5926    1.4770 H   0  0  0  0  0  0  0  0  0  0  0  0
   -2.9980    2.2061    1.9028 H   0  0  0  0  0  0  0  0  0  0  0  0
   -2.1545   -0.5073    2.4931 H   0  0  0  0  0  0  0  0  0  0  0  0
   -2.8072   -1.6439    0.1552 H   0  0  0  0  0  0  0  0  0  0  0  0
   -4.1536   -0.6568    0.7180 H   0  0  0  0  0  0  0  0  0  0  0  0
   -2.3885   -0.0718   -1.6135 H   0  0  0  0  0  0  0  0  0  0  0  0
   -3.7494    0.9023   -1.0624 H   0  0  0  0  0  0  0  0  0  0  0  0
   -1.4636    2.2097   -0.5654 H   0  0  0  0  0  0  0  0  0  0  0  0
  1  2  1  0
  2  3  1  0
  3  4  1  0
  4  5  1  0
  5  6  1  0
  6  7  1  0
  7  8  1  0
  8  9  1  0
  6  3  1  0
  9  3  1  0
  9  5  1  0
  1 10  1  0
  2 11  1  0
  2 12  1  0
  5 13  1  0
  6 14  1  0
  7 15  1  0
  7 16  1  0
  8 17  1  0
  8 18  1  0
  9 19  1  0
M  END
$$$$
