gdb 5281	1.9640026	1.6916693	1.0571182	2.1975	77.32	-0.24131	-0.02793	0.21338	1174.3509	0.155249	-422.522995	-422.513951	-422.513007	-422.557012	32.8
 OpenBabel02181911423D

 19 20  0  0  1  0  0  0  0  0999 V2000
    1.2352    0.9807    0.4640 C   0  0  0  0  0  0  0  0  0  0  0  0
    0.9059   -0.4787    0.1221 C   0  0  0  0  0  0  0  0  0  0  0  0
    1.6843   -0.9904   -1.0568 C   0  0  1  0  0  0  0  0  0  0  0  0
    3.1678   -1.3792   -1.0509 C   0  0  0  0  0  0  0  0  0  0  0  0
    2.9220   -2.4656   -1.9915 O   0  0  0  0  0  0  0  0  0  0  0  0
    1.5419   -2.1555   -1.9728 C   0  0  2  0  0  0  0  0  0  0  0  0
    1.3114   -0.7430   -2.5357 C   0  0  1  0  0  0  0  0  0  0  0  0
   -0.0864   -0.4268   -2.8793 C   0  0  0  0  0  0  0  0  0  0  0  0
   -1.0615   -0.8229   -2.2748 O   0  0  0  0  0  0  0  0  0  0  0  0
    0.6651    1.3140    1.3359 H   0  0  0  0  0  0  0  0  0  0  0  0
    2.2989    1.1121    0.6921 H   0  0  0  0  0  0  0  0  0  0  0  0
    0.9901    1.6451   -0.3711 H   0  0  0  0  0  0  0  0  0  0  0  0
    1.1258   -1.1193    0.9861 H   0  0  0  0  0  0  0  0  0  0  0  0
   -0.1615   -0.5853   -0.0857 H   0  0  0  0  0  0  0  0  0  0  0  0
    3.9012   -0.6591   -1.4292 H   0  0  0  0  0  0  0  0  0  0  0  0
    3.4954   -1.7798   -0.0854 H   0  0  0  0  0  0  0  0  0  0  0  0
    0.8045   -2.9425   -2.0763 H   0  0  0  0  0  0  0  0  0  0  0  0
    2.0683   -0.3507   -3.2099 H   0  0  0  0  0  0  0  0  0  0  0  0
   -0.2034    0.2011   -3.7898 H   0  0  0  0  0  0  0  0  0  0  0  0
  1 11  1  0  0  0  0
  1 10  1  0  0  0  0
  2  1  1  0  0  0  0
  2 13  1  0  0  0  0
  3  4  1  0  0  0  0
  3  2  1  1  0  0  0
  4 16  1  0  0  0  0
  5  6  1  0  0  0  0
  5  4  1  0  0  0  0
  6 17  1  1  0  0  0
  6  3  1  0  0  0  0
  7 18  1  6  0  0  0
  7  6  1  0  0  0  0
  7  3  1  0  0  0  0
  8  7  1  0  0  0  0
  8  9  2  0  0  0  0
 12  1  1  0  0  0  0
 14  2  1  0  0  0  0
 15  4  1  0  0  0  0
 19  8  1  0  0  0  0
M TOR 0 0 1 2 3
M TOR 1 0 1 2 5
M TOR 2 0 1 2 6
M TOR 3 1 2 3 4
M TOR 4 1 2 3 14
M TOR 5 1 2 3 15
M TOR 6 1 2 5 4
M TOR 7 1 2 5 6
M TOR 8 1 2 5 16
M TOR 9 1 2 6 7
M TOR 10 1 2 6 17
M TOR 11 2 1 0 9
M TOR 12 2 1 0 10
M TOR 13 2 1 0 11
M TOR 14 2 3 4 5
M TOR 15 2 5 6 7
M TOR 16 2 5 6 17
M TOR 17 2 6 5 4
M TOR 18 2 6 5 16
M TOR 19 2 6 7 8
M TOR 20 2 6 7 18
M TOR 21 3 2 1 12
M TOR 22 3 2 1 13
M TOR 23 3 2 5 6
M TOR 24 3 2 5 16
M TOR 25 3 2 6 7
M TOR 26 3 2 6 17
M TOR 27 3 4 5 6
M TOR 28 3 4 5 16
M TOR 29 4 3 2 6
M TOR 30 4 5 6 7
M TOR 31 4 5 6 17
M TOR 32 5 2 1 12
M TOR 33 5 2 1 13
M TOR 34 5 2 3 14
M TOR 35 5 2 3 15
M TOR 36 5 4 3 14
M TOR 37 5 4 3 15
M TOR 38 5 6 7 8
M TOR 39 5 6 7 18
M TOR 40 6 2 1 12
M TOR 41 6 2 1 13
M TOR 42 6 2 3 14
M TOR 43 6 2 3 15
M TOR 44 7 6 5 16
M TOR 45 8 7 6 17
M  END
$$$$
