
     RDKit          3D

 19 21  0  0  0  0  0  0  0  0999 V2000
    2.2799    0.2636    0.7517 C   0  0  0  0  0  0  0  0  0  0  0  0
    1.4260    1.2784   -0.0261 C   0  0  0  0  0  0  0  0  0  0  0  0
    0.2085    0.6690    0.5983 O   0  0  0  0  0  0  0  0  0  0  0  0
    1.0474   -0.4631    0.1330 C   0  0  0  0  0  0  0  0  0  0  0  0
    0.7197   -1.9189    0.0781 C   0  0  0  0  0  0  0  0  0  0  0  0
    1.7572   -2.5031   -0.9227 C   0  0  0  0  0  0  0  0  0  0  0  0
    1.8097   -1.8134   -2.1637 O   0  0  0  0  0  0  0  0  0  0  0  0
    2.2572   -0.4550   -2.0766 C   0  0  0  0  0  0  0  0  0  0  0  0
    1.2467    0.2739   -1.2025 C   0  0  0  0  0  0  0  0  0  0  0  0
    3.2824    0.0274    0.3906 H   0  0  0  0  0  0  0  0  0  0  0  0
    2.2403    0.3719    1.8360 H   0  0  0  0  0  0  0  0  0  0  0  0
    1.4726    2.3674   -0.0339 H   0  0  0  0  0  0  0  0  0  0  0  0
    0.7962   -2.4320    1.0426 H   0  0  0  0  0  0  0  0  0  0  0  0
   -0.2935   -2.0568   -0.3142 H   0  0  0  0  0  0  0  0  0  0  0  0
    2.7527   -2.5055   -0.4491 H   0  0  0  0  0  0  0  0  0  0  0  0
    1.5017   -3.5366   -1.1695 H   0  0  0  0  0  0  0  0  0  0  0  0
    3.2819   -0.4153   -1.6798 H   0  0  0  0  0  0  0  0  0  0  0  0
    2.2787   -0.0866   -3.1053 H   0  0  0  0  0  0  0  0  0  0  0  0
    0.3011    0.4254   -1.7281 H   0  0  0  0  0  0  0  0  0  0  0  0
  1  2  1  0
  2  3  1  0
  3  4  1  0
  4  5  1  0
  5  6  1  0
  6  7  1  0
  7  8  1  0
  8  9  1  0
  4  1  1  0
  9  4  1  0
  9  2  1  0
  1 10  1  0
  1 11  1  0
  2 12  1  0
  5 13  1  0
  5 14  1  0
  6 15  1  0
  6 16  1  0
  8 17  1  0
  8 18  1  0
  9 19  1  0
M  END
$$$$
