
     RDKit          3D

 19 20  0  0  0  0  0  0  0  0999 V2000
   -1.1203   -1.2987   -0.8287 C   0  0  0  0  0  0  0  0  0  0  0  0
   -0.5088   -1.6786    0.5091 C   0  0  0  0  0  0  0  0  0  0  0  0
   -0.7070   -2.7587    1.0154 O   0  0  0  0  0  0  0  0  0  0  0  0
    0.4106   -0.6508    1.1595 C   0  0  0  0  0  0  0  0  0  0  0  0
   -0.2240    0.7528    1.4696 C   0  0  0  0  0  0  0  0  0  0  0  0
    0.0409    0.7429    2.9914 C   0  0  0  0  0  0  0  0  0  0  0  0
    1.5034    0.2667    3.1221 C   0  0  0  0  0  0  0  0  0  0  0  0
    0.8031   -1.0109    2.6102 C   0  0  0  0  0  0  0  0  0  0  0  0
   -0.3882   -0.6035    3.3554 O   0  0  0  0  0  0  0  0  0  0  0  0
   -1.6651   -2.1500   -1.2385 H   0  0  0  0  0  0  0  0  0  0  0  0
   -1.8046   -0.4515   -0.7128 H   0  0  0  0  0  0  0  0  0  0  0  0
   -0.3412   -0.9812   -1.5311 H   0  0  0  0  0  0  0  0  0  0  0  0
    1.2887   -0.5451    0.5096 H   0  0  0  0  0  0  0  0  0  0  0  0
    0.2634    1.5776    0.9437 H   0  0  0  0  0  0  0  0  0  0  0  0
   -1.2963    0.7910    1.2655 H   0  0  0  0  0  0  0  0  0  0  0  0
   -0.3958    1.5338    3.6010 H   0  0  0  0  0  0  0  0  0  0  0  0
    2.2813    0.7385    2.5149 H   0  0  0  0  0  0  0  0  0  0  0  0
    1.8084    0.1722    4.1644 H   0  0  0  0  0  0  0  0  0  0  0  0
    1.1349   -2.0254    2.8159 H   0  0  0  0  0  0  0  0  0  0  0  0
  1  2  1  0
  2  3  2  0
  2  4  1  0
  4  5  1  0
  5  6  1  0
  6  7  1  0
  7  8  1  0
  8  9  1  0
  8  4  1  0
  9  6  1  0
  1 10  1  0
  1 11  1  0
  1 12  1  0
  4 13  1  0
  5 14  1  0
  5 15  1  0
  6 16  1  0
  7 17  1  0
  7 18  1  0
  8 19  1  0
M  END
$$$$
