
     RDKit          3D

 19 20  0  0  0  0  0  0  0  0999 V2000
    1.1279   -0.0021   -0.2767 O   0  0  0  0  0  0  0  0  0  0  0  0
   -0.0674   -0.0226   -0.1094 C   0  0  0  0  0  0  0  0  0  0  0  0
   -0.9047    1.2390    0.0981 C   0  0  0  0  0  0  0  0  0  0  0  0
   -2.3328    1.1221   -0.4804 C   0  0  0  0  0  0  0  0  0  0  0  0
   -2.8751   -0.3035   -0.3209 C   0  0  0  0  0  0  0  0  0  0  0  0
   -2.9124   -0.7997    1.1454 C   0  0  0  0  0  0  0  0  0  0  0  0
   -1.5498   -1.5236    1.3177 C   0  0  0  0  0  0  0  0  0  0  0  0
   -0.8750   -1.3228   -0.0603 C   0  0  0  0  0  0  0  0  0  0  0  0
   -1.9662   -1.1974   -0.9759 O   0  0  0  0  0  0  0  0  0  0  0  0
   -0.9576    1.3879    1.1862 H   0  0  0  0  0  0  0  0  0  0  0  0
   -0.3569    2.0942   -0.3046 H   0  0  0  0  0  0  0  0  0  0  0  0
   -3.0029    1.8473   -0.0048 H   0  0  0  0  0  0  0  0  0  0  0  0
   -2.3121    1.3516   -1.5509 H   0  0  0  0  0  0  0  0  0  0  0  0
   -3.8395   -0.4030   -0.8251 H   0  0  0  0  0  0  0  0  0  0  0  0
   -3.0464    0.0235    1.8521 H   0  0  0  0  0  0  0  0  0  0  0  0
   -3.7423   -1.4940    1.2919 H   0  0  0  0  0  0  0  0  0  0  0  0
   -0.9491   -1.1212    2.1379 H   0  0  0  0  0  0  0  0  0  0  0  0
   -1.6895   -2.5903    1.5051 H   0  0  0  0  0  0  0  0  0  0  0  0
   -0.2431   -2.1529   -0.3792 H   0  0  0  0  0  0  0  0  0  0  0  0
  1  2  2  0
  2  3  1  0
  3  4  1  0
  4  5  1  0
  5  6  1  0
  6  7  1  0
  7  8  1  0
  8  9  1  0
  8  2  1  0
  9  5  1  0
  3 10  1  0
  3 11  1  0
  4 12  1  0
  4 13  1  0
  5 14  1  0
  6 15  1  0
  6 16  1  0
  7 17  1  0
  7 18  1  0
  8 19  1  0
M  END
$$$$
