
     RDKit          3D

 19 21  0  0  0  0  0  0  0  0999 V2000
    1.3967   -0.1680    0.0385 C   0  0  0  0  0  0  0  0  0  0  0  0
    0.0070    0.1039    0.0675 O   0  0  0  0  0  0  0  0  0  0  0  0
   -0.4107    0.7756    1.2131 C   0  0  0  0  0  0  0  0  0  0  0  0
   -0.5589   -0.0070    2.4900 C   0  0  0  0  0  0  0  0  0  0  0  0
   -1.7926    0.4951    1.7553 C   0  0  0  0  0  0  0  0  0  0  0  0
   -2.3638    1.8155    2.2147 C   0  0  0  0  0  0  0  0  0  0  0  0
   -1.6334    2.4438    3.2804 O   0  0  0  0  0  0  0  0  0  0  0  0
   -1.3924    2.8887    1.9387 C   0  0  0  0  0  0  0  0  0  0  0  0
   -0.1590    2.2933    1.2757 C   0  0  0  0  0  0  0  0  0  0  0  0
    1.7120   -0.7585    0.9101 H   0  0  0  0  0  0  0  0  0  0  0  0
    1.5901   -0.7410   -0.8713 H   0  0  0  0  0  0  0  0  0  0  0  0
    1.9949    0.7540    0.0086 H   0  0  0  0  0  0  0  0  0  0  0  0
   -0.3683   -1.0722    2.4156 H   0  0  0  0  0  0  0  0  0  0  0  0
   -0.3124    0.4554    3.4379 H   0  0  0  0  0  0  0  0  0  0  0  0
   -2.4445   -0.2199    1.2693 H   0  0  0  0  0  0  0  0  0  0  0  0
   -3.4386    1.9699    2.2359 H   0  0  0  0  0  0  0  0  0  0  0  0
   -1.6713    3.9210    1.7413 H   0  0  0  0  0  0  0  0  0  0  0  0
   -0.0824    2.6683    0.2490 H   0  0  0  0  0  0  0  0  0  0  0  0
    0.7595    2.5666    1.8052 H   0  0  0  0  0  0  0  0  0  0  0  0
  1  2  1  0
  2  3  1  0
  3  4  1  0
  4  5  1  0
  5  6  1  0
  6  7  1  0
  7  8  1  0
  8  9  1  0
  5  3  1  0
  8  6  1  0
  9  3  1  0
  1 10  1  0
  1 11  1  0
  1 12  1  0
  4 13  1  0
  4 14  1  0
  5 15  1  0
  6 16  1  0
  8 17  1  0
  9 18  1  0
  9 19  1  0
M  END
$$$$
