gdb 5428	2.3682006	1.0302048	0.7764804	0.8056	79.16	-0.25238	0.03527	0.28765	1461.9474	0.154854	-422.508364	-422.498253	-422.497309	-422.54367	36.559
 OpenBabel02181911423D

 19 19  0  0  1  0  0  0  0  0999 V2000
   -3.9917    2.0296   -1.7977 O   0  0  0  0  0  0  0  0  0  0  0  0
   -2.7768    1.3043   -1.7106 C   0  0  0  0  0  0  0  0  0  0  0  0
   -2.8056    0.2573   -0.6212 C   0  0  2  0  0  0  0  0  0  0  0  0
   -2.4623    0.6157    0.7991 C   0  0  1  0  0  0  0  0  0  0  0  0
   -3.1967   -0.0198    1.9610 C   0  0  0  0  0  0  0  0  0  0  0  0
   -2.3597   -0.2176    3.0861 O   0  0  0  0  0  0  0  0  0  0  0  0
   -1.4949   -0.2336   -0.0233 C   0  0  1  0  0  0  0  0  0  0  0  0
   -1.2968   -1.6165    0.3008 C   0  0  0  0  0  0  0  0  0  0  0  0
   -1.1201   -2.7681    0.6058 C   0  0  0  0  0  0  0  0  0  0  0  0
   -4.1476    2.4397   -0.9403 H   0  0  0  0  0  0  0  0  0  0  0  0
   -2.6457    0.8309   -2.6893 H   0  0  0  0  0  0  0  0  0  0  0  0
   -1.9153    1.9747   -1.5544 H   0  0  0  0  0  0  0  0  0  0  0  0
   -3.5751   -0.4996   -0.7456 H   0  0  0  0  0  0  0  0  0  0  0  0
   -2.1141    1.6297    0.9837 H   0  0  0  0  0  0  0  0  0  0  0  0
   -4.0054    0.6392    2.2953 H   0  0  0  0  0  0  0  0  0  0  0  0
   -3.6572   -0.9629    1.6327 H   0  0  0  0  0  0  0  0  0  0  0  0
   -1.7064   -0.8796    2.8307 H   0  0  0  0  0  0  0  0  0  0  0  0
   -0.6016    0.2804   -0.3684 H   0  0  0  0  0  0  0  0  0  0  0  0
   -0.9665   -3.7914    0.8446 H   0  0  0  0  0  0  0  0  0  0  0  0
  1  2  1  0  0  0  0
  1 10  1  0  0  0  0
  2 12  1  0  0  0  0
  2  3  1  0  0  0  0
  3 13  1  6  0  0  0
  3  7  1  0  0  0  0
  3  4  1  0  0  0  0
  4 14  1  1  0  0  0
  4  5  1  0  0  0  0
  5 15  1  0  0  0  0
  5  6  1  0  0  0  0
  7 18  1  6  0  0  0
  7  8  1  0  0  0  0
  7  4  1  0  0  0  0
  8  9  3  0  0  0  0
  9 19  1  0  0  0  0
 11  2  1  0  0  0  0
 16  5  1  0  0  0  0
 17  6  1  0  0  0  0
M TOR 0 0 1 2 3
M TOR 1 0 1 2 6
M TOR 2 0 1 2 12
M TOR 3 1 2 3 4
M TOR 4 1 2 3 6
M TOR 5 1 2 3 13
M TOR 6 1 2 6 7
M TOR 7 1 2 6 17
M TOR 8 2 1 0 9
M TOR 9 2 3 4 5
M TOR 10 2 3 4 14
M TOR 11 2 3 4 15
M TOR 12 2 3 6 7
M TOR 13 2 3 6 17
M TOR 14 2 6 3 4
M TOR 15 2 6 3 13
M TOR 16 2 6 7 8
M TOR 17 3 2 1 10
M TOR 18 3 2 1 11
M TOR 19 3 4 5 16
M TOR 20 3 6 2 12
M TOR 21 3 6 7 8
M TOR 22 4 3 2 12
M TOR 23 4 3 6 7
M TOR 24 4 3 6 17
M TOR 25 5 4 3 6
M TOR 26 5 4 3 13
M TOR 27 6 2 1 10
M TOR 28 6 2 1 11
M TOR 29 6 3 4 14
M TOR 30 6 3 4 15
M TOR 31 6 7 8 18
M TOR 32 7 6 2 12
M TOR 33 7 6 3 13
M TOR 34 8 7 6 17
M  END
$$$$
