
     RDKit          3D

 19 21  0  0  0  0  0  0  0  0999 V2000
    1.5690    3.6215   -1.0451 C   0  0  0  0  0  0  0  0  0  0  0  0
    1.0946    4.1319    0.3107 C   0  0  0  0  0  0  0  0  0  0  0  0
    1.4059    5.5217    0.3546 O   0  0  0  0  0  0  0  0  0  0  0  0
    1.7547    3.3997    1.4639 C   0  0  0  0  0  0  0  0  0  0  0  0
    1.0924    2.1477    1.9729 C   0  0  0  0  0  0  0  0  0  0  0  0
    1.9125    1.4823    3.1260 C   0  0  0  0  0  0  0  0  0  0  0  0
    3.1017    2.2464    3.3728 O   0  0  0  0  0  0  0  0  0  0  0  0
    1.8560    2.7078    3.9144 C   0  0  0  0  0  0  0  0  0  0  0  0
    1.0357    3.4289    2.7955 C   0  0  0  0  0  0  0  0  0  0  0  0
    1.3105    2.5668   -1.1735 H   0  0  0  0  0  0  0  0  0  0  0  0
    1.1023    4.1990   -1.8477 H   0  0  0  0  0  0  0  0  0  0  0  0
    2.6544    3.7303   -1.1314 H   0  0  0  0  0  0  0  0  0  0  0  0
    0.0015    3.9902    0.3805 H   0  0  0  0  0  0  0  0  0  0  0  0
    1.2650    5.8207    1.2590 H   0  0  0  0  0  0  0  0  0  0  0  0
    2.8381    3.4509    1.4668 H   0  0  0  0  0  0  0  0  0  0  0  0
    0.2782    1.6548    1.4577 H   0  0  0  0  0  0  0  0  0  0  0  0
    1.9201    0.4364    3.4069 H   0  0  0  0  0  0  0  0  0  0  0  0
    1.8071    2.8844    4.9820 H   0  0  0  0  0  0  0  0  0  0  0  0
    0.1688    4.0475    2.9928 H   0  0  0  0  0  0  0  0  0  0  0  0
  1  2  1  0
  2  3  1  0
  2  4  1  0
  4  5  1  0
  5  6  1  0
  6  7  1  0
  7  8  1  0
  8  9  1  0
  9  4  1  0
  9  5  1  0
  8  6  1  0
  1 10  1  0
  1 11  1  0
  1 12  1  0
  2 13  1  0
  3 14  1  0
  4 15  1  0
  5 16  1  0
  6 17  1  0
  8 18  1  0
  9 19  1  0
M  END
$$$$
