gdb 4674	4.0589484	0.9268014	0.7710956	3.9989	80.72	-0.25788	-0.05838	0.1995	1461.2035	0.156899	-422.58966	-422.580717	-422.579773	-422.623999	32.45
 OpenBabel02181911413D

 19 19  0  0  0  0  0  0  0  0999 V2000
    1.0433   -0.8834    0.0267 O   0  0  0  0  0  0  0  0  0  0  0  0
    0.7071    0.4665    0.1139 C   0  0  0  0  0  0  0  0  0  0  0  0
   -0.2388    0.7221    1.2819 C   0  0  0  0  0  0  0  0  0  0  0  0
   -0.5590   -0.2240    1.9840 O   0  0  0  0  0  0  0  0  0  0  0  0
   -0.7201    2.0972    1.5126 C   0  0  0  0  0  0  0  0  0  0  0  0
   -1.5753    2.4209    2.4937 C   0  0  0  0  0  0  0  0  0  0  0  0
   -1.9396    3.8780    2.4806 C   0  0  0  0  0  0  0  0  0  0  0  0
   -0.9027    4.4950    1.5057 C   0  0  0  0  0  0  0  0  0  0  0  0
   -0.3723    3.3069    0.6610 C   0  0  0  0  0  0  0  0  0  0  0  0
    0.5772   -1.2978    0.7726 H   0  0  0  0  0  0  0  0  0  0  0  0
    1.6023    1.0978    0.2505 H   0  0  0  0  0  0  0  0  0  0  0  0
    0.2236    0.8226   -0.8119 H   0  0  0  0  0  0  0  0  0  0  0  0
   -1.9824    1.7005    3.1938 H   0  0  0  0  0  0  0  0  0  0  0  0
   -2.9717    4.0011    2.1209 H   0  0  0  0  0  0  0  0  0  0  0  0
   -1.9130    4.3312    3.4777 H   0  0  0  0  0  0  0  0  0  0  0  0
   -1.3216    5.2948    0.8911 H   0  0  0  0  0  0  0  0  0  0  0  0
   -0.0788    4.9274    2.0815 H   0  0  0  0  0  0  0  0  0  0  0  0
   -0.8743    3.2482   -0.3144 H   0  0  0  0  0  0  0  0  0  0  0  0
    0.6985    3.3960    0.4506 H   0  0  0  0  0  0  0  0  0  0  0  0
  1  2  1  0  0  0  0
  1 10  1  0  0  0  0
  2 11  1  0  0  0  0
  2  3  1  0  0  0  0
  3  5  1  0  0  0  0
  3  4  2  0  0  0  0
  5  6  2  0  0  0  0
  6 13  1  0  0  0  0
  7  6  1  0  0  0  0
  7 15  1  0  0  0  0
  8 17  1  0  0  0  0
  8  7  1  0  0  0  0
  9  8  1  0  0  0  0
  9  5  1  0  0  0  0
 12  2  1  0  0  0  0
 14  7  1  0  0  0  0
 16  8  1  0  0  0  0
 18  9  1  0  0  0  0
 19  9  1  0  0  0  0
M TOR 0 0 1 2 3
M TOR 1 0 1 2 4
M TOR 2 1 2 4 5
M TOR 3 1 2 4 8
M TOR 4 2 1 0 9
M TOR 5 2 4 5 6
M TOR 6 2 4 5 12
M TOR 7 2 4 8 7
M TOR 8 2 4 8 17
M TOR 9 2 4 8 18
M TOR 10 3 2 1 10
M TOR 11 3 2 1 11
M TOR 12 3 2 4 5
M TOR 13 3 2 4 8
M TOR 14 4 2 1 10
M TOR 15 4 2 1 11
M TOR 16 4 5 6 7
M TOR 17 4 5 6 13
M TOR 18 4 5 6 14
M TOR 19 4 8 7 6
M TOR 20 4 8 7 15
M TOR 21 4 8 7 16
M TOR 22 5 4 8 7
M TOR 23 5 4 8 17
M TOR 24 5 4 8 18
M TOR 25 5 6 7 8
M TOR 26 5 6 7 15
M TOR 27 5 6 7 16
M TOR 28 6 5 4 8
M TOR 29 6 7 8 17
M TOR 30 6 7 8 18
M TOR 31 7 6 5 12
M TOR 32 8 4 5 12
M TOR 33 8 7 6 13
M TOR 34 8 7 6 14
M  END
$$$$
