gdb 2796	2.990446	1.4259869	1.1933994	2.2989	74.37	-0.23466	0.07287	0.30753	1078.4054	0.157656	-422.521014	-422.513216	-422.512272	-422.552649	31.881
 OpenBabel02181911413D

 19 21  0  0  1  0  0  0  0  0999 V2000
    0.3679    0.6919    0.3599 O   0  0  0  0  0  0  0  0  0  0  0  0
   -0.6974    0.2432    1.1465 C   0  0  2  0  0  0  0  0  0  0  0  0
   -1.3255    1.2009    2.1314 C   0  0  2  0  0  0  0  0  0  0  0  0
   -0.4715    0.0283    2.6212 C   0  0  1  0  0  0  0  0  0  0  0  0
   -1.5135   -0.7077    3.4778 C   0  0  1  0  0  0  0  0  0  0  0  0
   -1.0135   -1.8572    4.0797 O   0  0  0  0  0  0  0  0  0  0  0  0
   -2.1455    0.5044    4.2665 C   0  0  0  0  0  0  0  0  0  0  0  0
   -2.6567    0.8615    2.8311 C   0  0  2  0  0  0  0  0  0  0  0  0
   -2.8156   -0.6733    2.6246 C   0  0  0  0  0  0  0  0  0  0  0  0
    0.9340    1.2554    0.8979 H   0  0  0  0  0  0  0  0  0  0  0  0
   -1.2937   -0.4409    0.5558 H   0  0  0  0  0  0  0  0  0  0  0  0
   -0.9660    2.2252    2.1518 H   0  0  0  0  0  0  0  0  0  0  0  0
    0.5267    0.1451    3.0314 H   0  0  0  0  0  0  0  0  0  0  0  0
   -1.7142   -2.2527    4.6081 H   0  0  0  0  0  0  0  0  0  0  0  0
   -2.9476    0.1994    4.9462 H   0  0  0  0  0  0  0  0  0  0  0  0
   -1.4645    1.2045    4.7573 H   0  0  0  0  0  0  0  0  0  0  0  0
   -3.4969    1.5357    2.6755 H   0  0  0  0  0  0  0  0  0  0  0  0
   -3.6677   -1.0578    3.1915 H   0  0  0  0  0  0  0  0  0  0  0  0
   -2.8280   -1.0980    1.6209 H   0  0  0  0  0  0  0  0  0  0  0  0
  1 10  1  0  0  0  0
  1  2  1  0  0  0  0
  2 11  1  6  0  0  0
  2  3  1  0  0  0  0
  2  4  1  0  0  0  0
  3 12  1  1  0  0  0
  3  4  1  0  0  0  0
  3  8  1  0  0  0  0
  4 13  1  1  0  0  0
  4  5  1  0  0  0  0
  5  6  1  1  0  0  0
  5  7  1  0  0  0  0
  6 14  1  0  0  0  0
  7 16  1  0  0  0  0
  7 15  1  0  0  0  0
  8 17  1  6  0  0  0
  8  7  1  0  0  0  0
  9  8  1  0  0  0  0
  9 18  1  0  0  0  0
  9  5  1  0  0  0  0
 19  9  1  0  0  0  0
M TOR 0 0 1 2 3
M TOR 1 0 1 2 7
M TOR 2 0 1 2 11
M TOR 3 0 1 3 4
M TOR 4 0 1 3 12
M TOR 5 1 2 3 4
M TOR 6 1 2 3 12
M TOR 7 1 2 7 6
M TOR 8 1 2 7 8
M TOR 9 1 2 7 16
M TOR 10 1 3 2 7
M TOR 11 1 3 2 11
M TOR 12 1 3 4 5
M TOR 13 1 3 4 6
M TOR 14 1 3 4 8
M TOR 15 2 1 0 9
M TOR 16 2 3 1 10
M TOR 17 2 3 4 5
M TOR 18 2 3 4 6
M TOR 19 2 3 4 8
M TOR 20 2 7 6 4
M TOR 21 2 7 6 14
M TOR 22 2 7 6 15
M TOR 23 2 7 8 4
M TOR 24 2 7 8 17
M TOR 25 2 7 8 18
M TOR 26 3 1 0 9
M TOR 27 3 2 7 6
M TOR 28 3 2 7 8
M TOR 29 3 2 7 16
M TOR 30 3 4 5 13
M TOR 31 3 4 6 7
M TOR 32 3 4 6 14
M TOR 33 3 4 6 15
M TOR 34 3 4 8 7
M TOR 35 3 4 8 17
M TOR 36 3 4 8 18
M TOR 37 4 3 1 10
M TOR 38 4 3 2 7
M TOR 39 4 3 2 11
M TOR 40 4 6 7 8
M TOR 41 4 6 7 16
M TOR 42 4 8 7 16
M TOR 43 5 4 3 12
M TOR 44 5 4 6 7
M TOR 45 5 4 6 14
M TOR 46 5 4 6 15
M TOR 47 5 4 8 7
M TOR 48 5 4 8 17
M TOR 49 5 4 8 18
M TOR 50 6 4 3 12
M TOR 51 6 4 5 13
M TOR 52 6 4 8 17
M TOR 53 6 4 8 18
M TOR 54 6 7 2 11
M TOR 55 6 7 8 17
M TOR 56 6 7 8 18
M TOR 57 7 2 1 10
M TOR 58 7 2 3 12
M TOR 59 8 4 3 12
M TOR 60 8 4 5 13
M TOR 61 8 4 6 14
M TOR 62 8 4 6 15
M TOR 63 8 7 2 11
M TOR 64 8 7 6 14
M TOR 65 8 7 6 15
M  END
$$$$
