
     RDKit          3D

 19 21  0  0  0  0  0  0  0  0999 V2000
   -1.3055    3.2745    0.5031 C   0  0  0  0  0  0  0  0  0  0  0  0
   -1.6343    1.7895    0.1317 C   0  0  0  0  0  0  0  0  0  0  0  0
   -0.1268    1.4736    0.1341 C   0  0  0  0  0  0  0  0  0  0  0  0
    0.5529    0.2212    0.6416 C   0  0  0  0  0  0  0  0  0  0  0  0
    1.9102    0.3536    0.2299 O   0  0  0  0  0  0  0  0  0  0  0  0
    1.8986    0.9425   -1.0693 C   0  0  0  0  0  0  0  0  0  0  0  0
    0.7160    1.9104   -1.0953 C   0  0  0  0  0  0  0  0  0  0  0  0
    0.9934    3.2088   -0.5208 O   0  0  0  0  0  0  0  0  0  0  0  0
    0.1987    2.9037    0.6405 C   0  0  0  0  0  0  0  0  0  0  0  0
   -1.4832    4.0049   -0.2888 H   0  0  0  0  0  0  0  0  0  0  0  0
   -1.7779    3.6260    1.4232 H   0  0  0  0  0  0  0  0  0  0  0  0
   -2.1716    1.2690    0.9299 H   0  0  0  0  0  0  0  0  0  0  0  0
   -2.1676    1.6155   -0.8068 H   0  0  0  0  0  0  0  0  0  0  0  0
    0.5455    0.1183    1.7307 H   0  0  0  0  0  0  0  0  0  0  0  0
    0.0870   -0.6802    0.2049 H   0  0  0  0  0  0  0  0  0  0  0  0
    2.8583    1.4398   -1.2290 H   0  0  0  0  0  0  0  0  0  0  0  0
    1.7574    0.1703   -1.8439 H   0  0  0  0  0  0  0  0  0  0  0  0
    0.2405    1.9905   -2.0788 H   0  0  0  0  0  0  0  0  0  0  0  0
    0.7132    3.1425    1.5747 H   0  0  0  0  0  0  0  0  0  0  0  0
  1  2  1  0
  2  3  1  0
  3  4  1  0
  4  5  1  0
  5  6  1  0
  6  7  1  0
  7  8  1  0
  8  9  1  0
  9  1  1  0
  7  3  1  0
  9  3  1  0
  1 10  1  0
  1 11  1  0
  2 12  1  0
  2 13  1  0
  4 14  1  0
  4 15  1  0
  6 16  1  0
  6 17  1  0
  7 18  1  0
  9 19  1  0
M  END
$$$$
