gdb 3324	2.2267377	1.7264385	1.4618327	2.6362	75.41	-0.22228	-0.01609	0.20619	1022.1615	0.156173	-422.556945	-422.548285	-422.547341	-422.589758	32.657
 OpenBabel02181911413D

 19 20  0  0  1  0  0  0  0  0999 V2000
   -3.2497    0.0084   -1.2949 C   0  0  0  0  0  0  0  0  0  0  0  0
   -1.7471    0.0567   -1.0628 C   0  0  1  0  0  0  0  0  0  0  0  0
   -1.1163    1.0939   -0.0560 C   0  0  1  0  0  0  0  0  0  0  0  0
   -1.8293    0.7075    1.2477 C   0  0  0  0  0  0  0  0  0  0  0  0
   -1.8098   -0.7409    1.1506 O   0  0  0  0  0  0  0  0  0  0  0  0
   -1.0994   -0.9868   -0.0849 C   0  0  1  0  0  0  0  0  0  0  0  0
   -0.9306   -2.4512   -0.3475 C   0  0  0  0  0  0  0  0  0  0  0  0
    0.0343    0.0629    0.0060 C   0  0  0  0  0  0  0  0  0  0  0  0
    1.2270    0.0797   -0.0346 O   0  0  0  0  0  0  0  0  0  0  0  0
   -3.7924   -0.1950   -0.3694 H   0  0  0  0  0  0  0  0  0  0  0  0
   -3.6151    0.9513   -1.7141 H   0  0  0  0  0  0  0  0  0  0  0  0
   -3.4966   -0.7871   -2.0052 H   0  0  0  0  0  0  0  0  0  0  0  0
   -1.1999    0.0821   -2.0108 H   0  0  0  0  0  0  0  0  0  0  0  0
   -0.9683    2.1465   -0.2849 H   0  0  0  0  0  0  0  0  0  0  0  0
   -1.2873    1.0338    2.1427 H   0  0  0  0  0  0  0  0  0  0  0  0
   -2.8639    1.0618    1.3114 H   0  0  0  0  0  0  0  0  0  0  0  0
   -0.3977   -2.9252    0.4815 H   0  0  0  0  0  0  0  0  0  0  0  0
   -1.9030   -2.9422   -0.4537 H   0  0  0  0  0  0  0  0  0  0  0  0
   -0.3547   -2.6086   -1.2635 H   0  0  0  0  0  0  0  0  0  0  0  0
  1  2  1  0  0  0  0
  1 10  1  0  0  0  0
  2 13  1  6  0  0  0
  2  6  1  0  0  0  0
  2  3  1  0  0  0  0
  3 14  1  6  0  0  0
  3  8  1  0  0  0  0
  3  4  1  0  0  0  0
  4 16  1  0  0  0  0
  4 15  1  0  0  0  0
  5  4  1  0  0  0  0
  6  7  1  6  0  0  0
  6  8  1  0  0  0  0
  6  5  1  0  0  0  0
  7 17  1  0  0  0  0
  9  8  2  0  0  0  0
 11  1  1  0  0  0  0
 12  1  1  0  0  0  0
 18  7  1  0  0  0  0
 19  7  1  0  0  0  0
M TOR 0 0 1 2 3
M TOR 1 0 1 2 7
M TOR 2 0 1 2 13
M TOR 3 0 1 5 4
M TOR 4 0 1 5 6
M TOR 5 0 1 5 7
M TOR 6 1 2 3 4
M TOR 7 1 2 3 14
M TOR 8 1 2 3 15
M TOR 9 1 2 7 5
M TOR 10 1 2 7 8
M TOR 11 1 5 4 3
M TOR 12 1 5 6 16
M TOR 13 1 5 6 17
M TOR 14 1 5 6 18
M TOR 15 1 5 7 8
M TOR 16 2 1 0 9
M TOR 17 2 1 0 10
M TOR 18 2 1 0 11
M TOR 19 2 1 5 4
M TOR 20 2 1 5 6
M TOR 21 2 3 4 5
M TOR 22 2 7 5 4
M TOR 23 2 7 5 6
M TOR 24 3 2 1 5
M TOR 25 3 2 1 12
M TOR 26 3 2 7 5
M TOR 27 3 2 7 8
M TOR 28 3 4 5 6
M TOR 29 3 4 5 7
M TOR 30 4 3 2 7
M TOR 31 4 3 2 13
M TOR 32 4 5 1 12
M TOR 33 4 5 6 16
M TOR 34 4 5 6 17
M TOR 35 4 5 6 18
M TOR 36 4 5 7 8
M TOR 37 5 1 0 9
M TOR 38 5 1 0 10
M TOR 39 5 1 0 11
M TOR 40 5 1 2 13
M TOR 41 5 4 3 14
M TOR 42 5 4 3 15
M TOR 43 5 7 2 13
M TOR 44 6 5 1 12
M TOR 45 6 5 7 8
M TOR 46 7 2 1 12
M TOR 47 7 2 3 14
M TOR 48 7 2 3 15
M TOR 49 7 5 1 12
M TOR 50 7 5 6 16
M TOR 51 7 5 6 17
M TOR 52 7 5 6 18
M TOR 53 8 7 2 13
M  END
$$$$
