gdb 3706	3.3037023	1.0844596	0.989529	1.8706	76.44	-0.22796	0.07386	0.30182	1253.7228	0.155332	-422.497601	-422.488697	-422.487753	-422.530935	33.859
 OpenBabel02181911413D

 19 21  0  0  1  0  0  0  0  0999 V2000
   -3.8995    3.3829   -0.4021 O   0  0  0  0  0  0  0  0  0  0  0  0
   -4.2340    2.3948    0.5299 C   0  0  2  0  0  0  0  0  0  0  0  0
   -3.6203    2.4316    1.9133 C   0  0  0  0  0  0  0  0  0  0  0  0
   -3.1553    1.4288    0.8823 C   0  0  1  0  0  0  0  0  0  0  0  0
   -3.2705   -0.1114    0.8840 C   0  0  0  0  0  0  0  0  0  0  0  0
   -1.8976   -0.1773    0.2007 C   0  0  2  0  0  0  0  0  0  0  0  0
   -0.8533    0.5348    1.0132 C   0  0  1  0  0  0  0  0  0  0  0  0
    0.4834    0.4523    0.6065 O   0  0  0  0  0  0  0  0  0  0  0  0
   -1.8051    1.3714    0.2055 C   0  0  2  0  0  0  0  0  0  0  0  0
   -4.3088    4.2080   -0.1214 H   0  0  0  0  0  0  0  0  0  0  0  0
   -5.2491    2.0034    0.4392 H   0  0  0  0  0  0  0  0  0  0  0  0
   -2.9519    3.2584    2.1333 H   0  0  0  0  0  0  0  0  0  0  0  0
   -4.2168    2.0855    2.7517 H   0  0  0  0  0  0  0  0  0  0  0  0
   -3.3421   -0.6005    1.8623 H   0  0  0  0  0  0  0  0  0  0  0  0
   -4.0865   -0.4687    0.2493 H   0  0  0  0  0  0  0  0  0  0  0  0
   -1.6111   -0.8764   -0.5769 H   0  0  0  0  0  0  0  0  0  0  0  0
   -0.8990    0.5363    2.1003 H   0  0  0  0  0  0  0  0  0  0  0  0
    0.5174    0.5257   -0.3533 H   0  0  0  0  0  0  0  0  0  0  0  0
   -1.4634    2.0557   -0.5625 H   0  0  0  0  0  0  0  0  0  0  0  0
  1 10  1  0  0  0  0
  1  2  1  0  0  0  0
  2 11  1  6  0  0  0
  2  4  1  0  0  0  0
  2  3  1  0  0  0  0
  3 12  1  0  0  0  0
  3 13  1  0  0  0  0
  4  5  1  1  0  0  0
  4  3  1  0  0  0  0
  5 14  1  0  0  0  0
  6 16  1  6  0  0  0
  6  9  1  0  0  0  0
  6  5  1  0  0  0  0
  6  7  1  0  0  0  0
  7 17  1  1  0  0  0
  8  7  1  0  0  0  0
  9 19  1  6  0  0  0
  9  4  1  0  0  0  0
  9  7  1  0  0  0  0
 15  5  1  0  0  0  0
 18  8  1  0  0  0  0
M TOR 0 0 1 2 3
M TOR 1 0 1 2 11
M TOR 2 0 1 2 12
M TOR 3 0 1 3 4
M TOR 4 0 1 3 8
M TOR 5 1 2 3 4
M TOR 6 1 2 3 8
M TOR 7 1 3 2 11
M TOR 8 1 3 2 12
M TOR 9 1 3 4 5
M TOR 10 1 3 4 13
M TOR 11 1 3 4 14
M TOR 12 1 3 8 5
M TOR 13 1 3 8 6
M TOR 14 1 3 8 18
M TOR 15 2 1 0 9
M TOR 16 2 3 1 10
M TOR 17 2 3 4 5
M TOR 18 2 3 4 13
M TOR 19 2 3 4 14
M TOR 20 2 3 8 5
M TOR 21 2 3 8 6
M TOR 22 2 3 8 18
M TOR 23 3 1 0 9
M TOR 24 3 4 5 6
M TOR 25 3 4 5 8
M TOR 26 3 4 5 15
M TOR 27 3 8 5 6
M TOR 28 3 8 5 15
M TOR 29 3 8 6 7
M TOR 30 3 8 6 16
M TOR 31 4 3 1 10
M TOR 32 4 3 2 11
M TOR 33 4 3 2 12
M TOR 34 4 3 8 6
M TOR 35 4 3 8 18
M TOR 36 4 5 6 7
M TOR 37 4 5 6 8
M TOR 38 4 5 6 16
M TOR 39 4 5 8 18
M TOR 40 5 6 7 17
M TOR 41 5 6 8 18
M TOR 42 5 8 6 7
M TOR 43 5 8 6 16
M TOR 44 6 5 4 13
M TOR 45 6 5 4 14
M TOR 46 6 8 5 15
M TOR 47 7 6 5 15
M TOR 48 7 6 8 18
M TOR 49 8 3 1 10
M TOR 50 8 3 2 11
M TOR 51 8 3 2 12
M TOR 52 8 3 4 13
M TOR 53 8 3 4 14
M TOR 54 8 5 4 13
M TOR 55 8 5 4 14
M TOR 56 8 6 7 17
M  END
$$$$
