gdb 6085	8.1486139	0.5151668	0.5080462	2.6145	80.58	-0.25836	0.01961	0.27797	2111.8701	0.153884	-422.495902	-422.485627	-422.484682	-422.532223	35.943
 OpenBabel02181911423D

 19 19  0  0  1  0  0  0  0  0999 V2000
    2.5723    2.0184   -2.7851 O   0  0  0  0  0  0  0  0  0  0  0  0
    2.6684    1.2387   -1.6054 C   0  0  0  0  0  0  0  0  0  0  0  0
    1.3360    1.1058   -0.8667 C   0  0  0  0  0  0  0  0  0  0  0  0
    1.4618    0.3203    0.4462 C   0  0  0  0  0  0  0  0  0  0  0  0
    0.1386    0.1857    1.1579 C   0  0  2  0  0  0  0  0  0  0  0  0
   -0.3556    1.3449    1.8270 O   0  0  0  0  0  0  0  0  0  0  0  0
    0.0272    0.2148    2.6319 C   0  0  1  0  0  0  0  0  0  0  0  0
   -1.0154   -0.4855    3.3322 C   0  0  0  0  0  0  0  0  0  0  0  0
   -1.8705   -1.0784    3.9339 C   0  0  0  0  0  0  0  0  0  0  0  0
    1.9624    1.5746   -3.3830 H   0  0  0  0  0  0  0  0  0  0  0  0
    3.0808    0.2379   -1.8178 H   0  0  0  0  0  0  0  0  0  0  0  0
    3.3972    1.7550   -0.9703 H   0  0  0  0  0  0  0  0  0  0  0  0
    0.9405    2.1063   -0.6611 H   0  0  0  0  0  0  0  0  0  0  0  0
    0.6090    0.6065   -1.5239 H   0  0  0  0  0  0  0  0  0  0  0  0
    1.8578   -0.6850    0.2484 H   0  0  0  0  0  0  0  0  0  0  0  0
    2.1750    0.8213    1.1115 H   0  0  0  0  0  0  0  0  0  0  0  0
   -0.6333   -0.3699    0.6223 H   0  0  0  0  0  0  0  0  0  0  0  0
    0.9435    0.3719    3.2007 H   0  0  0  0  0  0  0  0  0  0  0  0
   -2.6301   -1.5997    4.4624 H   0  0  0  0  0  0  0  0  0  0  0  0
  1  2  1  0  0  0  0
  2 12  1  0  0  0  0
  2  3  1  0  0  0  0
  3 13  1  0  0  0  0
  3  4  1  0  0  0  0
  4 16  1  0  0  0  0
  4  5  1  0  0  0  0
  5 17  1  6  0  0  0
  5  6  1  0  0  0  0
  5  7  1  0  0  0  0
  6  7  1  0  0  0  0
  7 18  1  1  0  0  0
  7  8  1  0  0  0  0
  8  9  3  0  0  0  0
  9 19  1  0  0  0  0
 10  1  1  0  0  0  0
 11  2  1  0  0  0  0
 14  3  1  0  0  0  0
 15  4  1  0  0  0  0
M TOR 0 0 1 2 3
M TOR 1 0 1 2 12
M TOR 2 0 1 2 13
M TOR 3 1 2 3 4
M TOR 4 1 2 3 14
M TOR 5 1 2 3 15
M TOR 6 2 1 0 9
M TOR 7 2 3 4 5
M TOR 8 2 3 4 6
M TOR 9 2 3 4 16
M TOR 10 3 2 1 10
M TOR 11 3 2 1 11
M TOR 12 3 4 5 6
M TOR 13 3 4 6 7
M TOR 14 3 4 6 17
M TOR 15 4 3 2 12
M TOR 16 4 3 2 13
M TOR 17 4 5 6 7
M TOR 18 4 5 6 17
M TOR 19 4 6 7 8
M TOR 20 5 4 3 14
M TOR 21 5 4 3 15
M TOR 22 5 6 4 16
M TOR 23 5 6 7 8
M TOR 24 6 4 3 14
M TOR 25 6 4 3 15
M TOR 26 6 7 8 18
M TOR 27 7 6 4 16
M TOR 28 8 7 6 17
M  END
$$$$
