gdb 4062	3.4202296	1.4892265	1.3786032	2.2523	73.89	-0.23415	0.06811	0.30226	1004.0601	0.158275	-422.499668	-422.492392	-422.491448	-422.531086	29.303
 OpenBabel02181911413D

 19 21  0  0  1  0  0  0  0  0999 V2000
    0.3783   -2.0457   -2.1618 C   0  0  0  0  0  0  0  0  0  0  0  0
   -0.6287   -0.9686   -1.7489 C   0  0  1  0  0  0  0  0  0  0  0  0
   -1.0439   -1.0759   -0.2677 C   0  0  0  0  0  0  0  0  0  0  0  0
   -0.1230   -0.2425    0.6198 C   0  0  1  0  0  0  0  0  0  0  0  0
    1.3023    0.1132    0.1018 C   0  0  2  0  0  0  0  0  0  0  0  0
    1.2882    1.3314    0.9265 O   0  0  0  0  0  0  0  0  0  0  0  0
   -0.0563    1.2775    0.3244 C   0  0  1  0  0  0  0  0  0  0  0  0
    0.6226    0.9408   -1.0361 C   0  0  2  0  0  0  0  0  0  0  0  0
   -0.1053    0.3327   -2.0574 O   0  0  0  0  0  0  0  0  0  0  0  0
    1.2660   -2.0422   -1.5213 H   0  0  0  0  0  0  0  0  0  0  0  0
   -0.0783   -3.0389   -2.0973 H   0  0  0  0  0  0  0  0  0  0  0  0
    0.7011   -1.8778   -3.1925 H   0  0  0  0  0  0  0  0  0  0  0  0
   -1.5137   -1.0646   -2.3858 H   0  0  0  0  0  0  0  0  0  0  0  0
   -2.0750   -0.7290   -0.1311 H   0  0  0  0  0  0  0  0  0  0  0  0
   -1.0248   -2.1278    0.0362 H   0  0  0  0  0  0  0  0  0  0  0  0
   -0.1650   -0.4874    1.6833 H   0  0  0  0  0  0  0  0  0  0  0  0
    2.2196   -0.4768    0.1013 H   0  0  0  0  0  0  0  0  0  0  0  0
   -0.7639    2.0662    0.5827 H   0  0  0  0  0  0  0  0  0  0  0  0
    1.2312    1.7412   -1.4585 H   0  0  0  0  0  0  0  0  0  0  0  0
  1 11  1  0  0  0  0
  1  2  1  0  0  0  0
  1 10  1  0  0  0  0
  2 13  1  6  0  0  0
  2  3  1  0  0  0  0
  3 14  1  0  0  0  0
  3 15  1  0  0  0  0
  3  4  1  0  0  0  0
  4 16  1  1  0  0  0
  5 17  1  6  0  0  0
  5  4  1  0  0  0  0
  5  6  1  0  0  0  0
  7 18  1  1  0  0  0
  7  4  1  0  0  0  0
  7  6  1  0  0  0  0
  8 19  1  6  0  0  0
  8  5  1  0  0  0  0
  8  7  1  0  0  0  0
  9  2  1  0  0  0  0
  9  8  1  0  0  0  0
 12  1  1  0  0  0  0
M TOR 0 0 1 2 3
M TOR 1 0 1 2 13
M TOR 2 0 1 2 14
M TOR 3 0 1 8 7
M TOR 4 1 2 3 4
M TOR 5 1 2 3 6
M TOR 6 1 2 3 15
M TOR 7 1 8 7 4
M TOR 8 1 8 7 6
M TOR 9 1 8 7 18
M TOR 10 2 1 0 9
M TOR 11 2 1 0 10
M TOR 12 2 1 0 11
M TOR 13 2 1 8 7
M TOR 14 2 3 4 5
M TOR 15 2 3 4 7
M TOR 16 2 3 4 16
M TOR 17 2 3 6 5
M TOR 18 2 3 6 7
M TOR 19 2 3 6 17
M TOR 20 3 2 1 8
M TOR 21 3 2 1 12
M TOR 22 3 4 5 6
M TOR 23 3 4 7 6
M TOR 24 3 4 7 8
M TOR 25 3 4 7 18
M TOR 26 3 6 7 8
M TOR 27 3 6 7 18
M TOR 28 4 3 2 13
M TOR 29 4 3 2 14
M TOR 30 4 3 6 17
M TOR 31 4 5 6 7
M TOR 32 4 5 6 17
M TOR 33 4 7 6 17
M TOR 34 5 4 3 15
M TOR 35 5 4 7 8
M TOR 36 5 4 7 18
M TOR 37 5 6 3 15
M TOR 38 5 6 7 8
M TOR 39 5 6 7 18
M TOR 40 6 3 2 13
M TOR 41 6 3 2 14
M TOR 42 6 3 4 16
M TOR 43 6 5 4 16
M TOR 44 6 7 4 16
M TOR 45 7 4 3 15
M TOR 46 7 6 3 15
M TOR 47 7 8 1 12
M TOR 48 8 1 0 9
M TOR 49 8 1 0 10
M TOR 50 8 1 0 11
M TOR 51 8 1 2 13
M TOR 52 8 1 2 14
M TOR 53 8 7 4 16
M TOR 54 8 7 6 17
M  END
$$$$
