
     RDKit          3D

 19 21  0  0  0  0  0  0  0  0999 V2000
   -0.3260   -1.7858    2.7274 O   0  0  0  0  0  0  0  0  0  0  0  0
   -1.2071   -0.7731    3.1067 C   0  0  0  0  0  0  0  0  0  0  0  0
   -2.5785   -0.7180    2.4767 C   0  0  0  0  0  0  0  0  0  0  0  0
   -1.5419    0.3299    2.1466 C   0  0  0  0  0  0  0  0  0  0  0  0
   -1.5993    1.8273    2.3969 C   0  0  0  0  0  0  0  0  0  0  0  0
   -2.3393    2.4721    1.2593 C   0  0  0  0  0  0  0  0  0  0  0  0
   -0.9047    2.0687    1.0472 C   0  0  0  0  0  0  0  0  0  0  0  0
   -0.7802    0.5588    0.8194 C   0  0  0  0  0  0  0  0  0  0  0  0
    0.5700    0.0909    0.8355 O   0  0  0  0  0  0  0  0  0  0  0  0
    0.2254   -1.4312    2.0149 H   0  0  0  0  0  0  0  0  0  0  0  0
   -1.1356   -0.5126    4.1627 H   0  0  0  0  0  0  0  0  0  0  0  0
   -2.7892   -1.4711    1.7240 H   0  0  0  0  0  0  0  0  0  0  0  0
   -3.4255   -0.4248    3.0895 H   0  0  0  0  0  0  0  0  0  0  0  0
   -1.4430    2.3233    3.3477 H   0  0  0  0  0  0  0  0  0  0  0  0
   -3.1422    1.9343    0.7612 H   0  0  0  0  0  0  0  0  0  0  0  0
   -2.5025    3.5420    1.3440 H   0  0  0  0  0  0  0  0  0  0  0  0
   -0.1360    2.7840    0.7775 H   0  0  0  0  0  0  0  0  0  0  0  0
   -1.2171    0.1467   -0.0949 H   0  0  0  0  0  0  0  0  0  0  0  0
    1.0424    0.6016    1.5047 H   0  0  0  0  0  0  0  0  0  0  0  0
  1  2  1  0
  2  3  1  0
  3  4  1  0
  4  5  1  0
  5  6  1  0
  6  7  1  0
  7  8  1  0
  8  9  1  0
  4  2  1  0
  8  4  1  0
  7  5  1  0
  1 10  1  0
  2 11  1  0
  3 12  1  0
  3 13  1  0
  5 14  1  0
  6 15  1  0
  6 16  1  0
  7 17  1  0
  8 18  1  0
  9 19  1  0
M  END
$$$$
