
     RDKit          3D

 19 20  0  0  0  0  0  0  0  0999 V2000
    0.0142    1.5107    0.1717 C   0  0  0  0  0  0  0  0  0  0  0  0
    0.0452    0.0058    0.0097 C   0  0  0  0  0  0  0  0  0  0  0  0
   -1.2050   -0.6538    0.4216 O   0  0  0  0  0  0  0  0  0  0  0  0
   -0.4535   -1.7057    1.1184 C   0  0  0  0  0  0  0  0  0  0  0  0
   -0.6107   -1.9747    2.6221 C   0  0  0  0  0  0  0  0  0  0  0  0
    0.8449   -1.8094    3.1591 C   0  0  0  0  0  0  0  0  0  0  0  0
    0.7829   -1.2973    4.4830 O   0  0  0  0  0  0  0  0  0  0  0  0
    1.4618   -0.8117    2.1658 C   0  0  0  0  0  0  0  0  0  0  0  0
    0.7558   -0.8376    1.0431 C   0  0  0  0  0  0  0  0  0  0  0  0
    0.9798    1.9417   -0.1135 H   0  0  0  0  0  0  0  0  0  0  0  0
   -0.7564    1.9435   -0.4736 H   0  0  0  0  0  0  0  0  0  0  0  0
   -0.2028    1.7791    1.2084 H   0  0  0  0  0  0  0  0  0  0  0  0
    0.2736   -0.2711   -1.0297 H   0  0  0  0  0  0  0  0  0  0  0  0
   -0.4692   -2.6216    0.5133 H   0  0  0  0  0  0  0  0  0  0  0  0
   -1.2095   -1.1786    3.0747 H   0  0  0  0  0  0  0  0  0  0  0  0
   -1.0557   -2.9404    2.8744 H   0  0  0  0  0  0  0  0  0  0  0  0
    1.3728   -2.7764    3.1610 H   0  0  0  0  0  0  0  0  0  0  0  0
    1.6445   -1.4160    4.8942 H   0  0  0  0  0  0  0  0  0  0  0  0
    2.2572   -0.1332    2.4516 H   0  0  0  0  0  0  0  0  0  0  0  0
  1  2  1  0
  2  3  1  0
  3  4  1  0
  4  5  1  0
  5  6  1  0
  6  7  1  0
  6  8  1  0
  8  9  2  0
  9  2  1  0
  9  4  1  0
  1 10  1  0
  1 11  1  0
  1 12  1  0
  2 13  1  0
  4 14  1  0
  5 15  1  0
  5 16  1  0
  6 17  1  0
  7 18  1  0
  8 19  1  0
M  END
$$$$
