gdb 2333	2.6856087	1.6934492	1.3007337	1.6301	77.63	-0.23879	0.00979	0.24858	1028.1907	0.157525	-422.530515	-422.522551	-422.521606	-422.562492	31.057
 OpenBabel02181911413D

 19 20  0  0  1  0  0  0  0  0999 V2000
   -0.1159    1.5440   -0.0277 C   0  0  0  0  0  0  0  0  0  0  0  0
    0.0126    0.0306    0.0656 C   0  0  2  0  0  0  0  0  0  0  0  0
   -1.3436   -0.6756   -0.0145 C   0  0  0  0  0  0  0  0  0  0  0  0
   -1.9694   -0.4697    1.2516 O   0  0  0  0  0  0  0  0  0  0  0  0
   -1.3424   -1.1027    2.3609 C   0  0  0  0  0  0  0  0  0  0  0  0
    0.1633   -1.1549    2.2718 C   0  0  0  0  0  3  0  0  0  0  0  0
    0.7444   -0.5652    1.2399 C   0  0  1  0  0  3  0  0  0  0  0  0
    1.9446   -0.7289    0.3450 C   0  0  0  0  0  0  0  0  0  0  0  0
    1.0883   -0.4561   -0.8031 O   0  0  0  0  0  0  0  0  0  0  0  0
    0.8180    2.0429    0.2452 H   0  0  0  0  0  0  0  0  0  0  0  0
   -0.3674    1.8264   -1.0558 H   0  0  0  0  0  0  0  0  0  0  0  0
   -0.9100    1.8943    0.6373 H   0  0  0  0  0  0  0  0  0  0  0  0
   -2.0235   -0.2410   -0.7531 H   0  0  0  0  0  0  0  0  0  0  0  0
   -1.1977   -1.7414   -0.2394 H   0  0  0  0  0  0  0  0  0  0  0  0
   -1.6927   -0.5579    3.2459 H   0  0  0  0  0  0  0  0  0  0  0  0
   -1.7093   -2.1401    2.4595 H   0  0  0  0  0  0  0  0  0  0  0  0
    0.6923   -1.7891    2.9779 H   0  0  0  0  0  0  0  0  0  0  0  0
    2.7359    0.0272    0.4413 H   0  0  0  0  0  0  0  0  0  0  0  0
    2.4012   -1.7239    0.3034 H   0  0  0  0  0  0  0  0  0  0  0  0
  1 10  1  0  0  0  0
  1 12  1  0  0  0  0
  2  1  1  1  0  0  0
  2  7  1  0  0  0  0
  3  2  1  0  0  0  0
  3  4  1  0  0  0  0
  4  5  1  0  0  0  0
  5 16  1  0  0  0  0
  5 15  1  0  0  0  0
  6  5  1  0  0  0  0
  6 17  1  0  0  0  0
  7  6  1  6  0  0  0
  8 18  1  0  0  0  0
  8  7  1  0  0  0  0
  9  2  1  0  0  0  0
  9  8  1  0  0  0  0
 11  1  1  0  0  0  0
 13  3  1  0  0  0  0
 14  3  1  0  0  0  0
 19  8  1  0  0  0  0
M TOR 0 0 1 2 3
M TOR 1 0 1 2 12
M TOR 2 0 1 2 13
M TOR 3 0 1 6 5
M TOR 4 0 1 6 7
M TOR 5 0 1 8 7
M TOR 6 1 2 3 4
M TOR 7 1 6 5 4
M TOR 8 1 6 5 16
M TOR 9 1 6 7 8
M TOR 10 1 6 7 17
M TOR 11 1 6 7 18
M TOR 12 1 8 7 17
M TOR 13 1 8 7 18
M TOR 14 2 1 0 9
M TOR 15 2 1 0 10
M TOR 16 2 1 0 11
M TOR 17 2 1 6 5
M TOR 18 2 1 6 7
M TOR 19 2 1 8 7
M TOR 20 2 3 4 5
M TOR 21 2 3 4 14
M TOR 22 2 3 4 15
M TOR 23 3 2 1 6
M TOR 24 3 2 1 8
M TOR 25 3 4 5 6
M TOR 26 3 4 5 16
M TOR 27 4 3 2 12
M TOR 28 4 3 2 13
M TOR 29 4 5 6 7
M TOR 30 5 6 1 8
M TOR 31 5 6 7 8
M TOR 32 5 6 7 17
M TOR 33 5 6 7 18
M TOR 34 6 1 0 9
M TOR 35 6 1 0 10
M TOR 36 6 1 0 11
M TOR 37 6 1 2 12
M TOR 38 6 1 2 13
M TOR 39 6 5 4 14
M TOR 40 6 5 4 15
M TOR 41 7 6 5 16
M TOR 42 8 1 0 9
M TOR 43 8 1 0 10
M TOR 44 8 1 0 11
M TOR 45 8 1 2 12
M TOR 46 8 1 2 13
M  END
$$$$
