gdb 2101	2.8705273	1.5583479	1.206322	1.5514	75.43	-0.21639	0.05924	0.27563	1071.1462	0.155431	-422.512413	-422.503855	-422.502911	-422.544596	34.051
 OpenBabel02181911403D

 19 21  0  0  1  0  0  0  0  0999 V2000
    0.8619    2.8579   -1.7411 C   0  0  0  0  0  0  0  0  0  0  0  0
    1.9644    1.9333   -1.2966 C   0  0  2  0  0  0  0  0  0  0  0  0
    3.0548    1.4393   -2.3048 C   0  0  0  0  0  0  0  0  0  0  0  0
    3.1568    0.2342   -1.3858 C   0  0  2  0  0  0  0  0  0  0  0  0
    3.7640   -0.9965   -1.5953 O   0  0  0  0  0  0  0  0  0  0  0  0
    1.7709    0.4276   -0.8181 C   0  0  1  0  0  0  0  0  0  0  0  0
    2.9737    0.7165    0.0647 C   0  0  1  0  0  0  0  0  0  0  0  0
    3.5005   -0.0038    1.1137 O   0  0  0  0  0  0  0  0  0  0  0  0
    2.7632    2.2130    0.0225 C   0  0  0  0  0  0  0  0  0  0  0  0
    0.1260    3.0089   -0.9440 H   0  0  0  0  0  0  0  0  0  0  0  0
    1.2653    3.8406   -2.0133 H   0  0  0  0  0  0  0  0  0  0  0  0
    0.3350    2.4597   -2.6147 H   0  0  0  0  0  0  0  0  0  0  0  0
    2.6140    1.1744   -3.2715 H   0  0  0  0  0  0  0  0  0  0  0  0
    3.9329    2.0803   -2.4547 H   0  0  0  0  0  0  0  0  0  0  0  0
    4.7176   -0.8533   -1.6408 H   0  0  0  0  0  0  0  0  0  0  0  0
    0.9121   -0.2237   -0.7436 H   0  0  0  0  0  0  0  0  0  0  0  0
    3.8119   -0.8419    0.7444 H   0  0  0  0  0  0  0  0  0  0  0  0
    2.0997    2.5558    0.8229 H   0  0  0  0  0  0  0  0  0  0  0  0
    3.6384    2.8710   -0.0432 H   0  0  0  0  0  0  0  0  0  0  0  0
  1 10  1  0  0  0  0
  2  1  1  6  0  0  0
  2  6  1  0  0  0  0
  2  9  1  0  0  0  0
  3  4  1  0  0  0  0
  3  2  1  0  0  0  0
  4  5  1  6  0  0  0
  4  6  1  0  0  0  0
  4  7  1  0  0  0  0
  6 16  1  1  0  0  0
  6  7  1  0  0  0  0
  7  8  1  1  0  0  0
  9  7  1  0  0  0  0
  9 18  1  0  0  0  0
 11  1  1  0  0  0  0
 12  1  1  0  0  0  0
 13  3  1  0  0  0  0
 14  3  1  0  0  0  0
 15  5  1  0  0  0  0
 17  8  1  0  0  0  0
 19  9  1  0  0  0  0
M TOR 0 0 1 2 3
M TOR 1 0 1 2 12
M TOR 2 0 1 2 13
M TOR 3 0 1 5 3
M TOR 4 0 1 5 6
M TOR 5 0 1 5 15
M TOR 6 0 1 8 6
M TOR 7 0 1 8 17
M TOR 8 0 1 8 18
M TOR 9 1 2 3 4
M TOR 10 1 2 3 5
M TOR 11 1 2 3 6
M TOR 12 1 5 3 4
M TOR 13 1 5 3 6
M TOR 14 1 5 6 7
M TOR 15 1 5 6 8
M TOR 16 1 8 6 3
M TOR 17 1 8 6 7
M TOR 18 2 1 0 9
M TOR 19 2 1 0 10
M TOR 20 2 1 0 11
M TOR 21 2 1 5 6
M TOR 22 2 1 5 15
M TOR 23 2 1 8 6
M TOR 24 2 1 8 17
M TOR 25 2 1 8 18
M TOR 26 2 3 4 14
M TOR 27 2 3 5 6
M TOR 28 2 3 5 15
M TOR 29 2 3 6 7
M TOR 30 2 3 6 8
M TOR 31 3 2 1 8
M TOR 32 3 5 1 8
M TOR 33 3 5 6 7
M TOR 34 3 5 6 8
M TOR 35 3 6 5 15
M TOR 36 3 6 7 16
M TOR 37 3 6 8 17
M TOR 38 3 6 8 18
M TOR 39 4 3 2 12
M TOR 40 4 3 2 13
M TOR 41 4 3 5 6
M TOR 42 4 3 5 15
M TOR 43 4 3 6 7
M TOR 44 4 3 6 8
M TOR 45 5 1 0 9
M TOR 46 5 1 0 10
M TOR 47 5 1 0 11
M TOR 48 5 1 2 12
M TOR 49 5 1 2 13
M TOR 50 5 1 8 17
M TOR 51 5 1 8 18
M TOR 52 5 3 2 12
M TOR 53 5 3 2 13
M TOR 54 5 3 4 14
M TOR 55 5 6 7 16
M TOR 56 5 6 8 17
M TOR 57 5 6 8 18
M TOR 58 6 3 2 12
M TOR 59 6 3 2 13
M TOR 60 6 3 4 14
M TOR 61 7 6 5 15
M TOR 62 7 6 8 17
M TOR 63 7 6 8 18
M TOR 64 8 1 0 9
M TOR 65 8 1 0 10
M TOR 66 8 1 0 11
M TOR 67 8 1 2 12
M TOR 68 8 1 2 13
M TOR 69 8 1 5 15
M TOR 70 8 6 5 15
M TOR 71 8 6 7 16
M  END
$$$$
