
     RDKit          3D

 19 20  0  0  0  0  0  0  0  0999 V2000
   -3.1305   -0.2168   -1.1976 C   0  0  0  0  0  0  0  0  0  0  0  0
   -2.1647   -0.1878   -0.0181 C   0  0  0  0  0  0  0  0  0  0  0  0
   -0.9217   -1.1402   -0.1371 C   0  0  0  0  0  0  0  0  0  0  0  0
   -0.0095    0.0922   -0.0116 C   0  0  0  0  0  0  0  0  0  0  0  0
    1.1781    0.2677    0.0088 O   0  0  0  0  0  0  0  0  0  0  0  0
   -1.1909    1.0100    0.0946 C   0  0  0  0  0  0  0  0  0  0  0  0
   -1.2395    2.2340    0.9964 C   0  0  0  0  0  0  0  0  0  0  0  0
   -1.2452    2.4022   -0.4883 C   0  0  0  0  0  0  0  0  0  0  0  0
   -2.4255    2.7597   -1.1414 O   0  0  0  0  0  0  0  0  0  0  0  0
   -3.6318   -1.1893   -1.2528 H   0  0  0  0  0  0  0  0  0  0  0  0
   -3.8900    0.5628   -1.1089 H   0  0  0  0  0  0  0  0  0  0  0  0
   -2.6024   -0.0527   -2.1426 H   0  0  0  0  0  0  0  0  0  0  0  0
   -2.7098   -0.3516    0.9163 H   0  0  0  0  0  0  0  0  0  0  0  0
   -0.7943   -1.8751    0.6625 H   0  0  0  0  0  0  0  0  0  0  0  0
   -0.8307   -1.6544   -1.0993 H   0  0  0  0  0  0  0  0  0  0  0  0
   -2.1793    2.4062    1.5120 H   0  0  0  0  0  0  0  0  0  0  0  0
   -0.3391    2.4736    1.5532 H   0  0  0  0  0  0  0  0  0  0  0  0
   -0.3258    2.7436   -0.9647 H   0  0  0  0  0  0  0  0  0  0  0  0
   -2.5913    3.6917   -0.9638 H   0  0  0  0  0  0  0  0  0  0  0  0
  1  2  1  0
  2  3  1  0
  3  4  1  0
  4  5  2  0
  4  6  1  0
  6  7  1  0
  7  8  1  0
  8  9  1  0
  6  2  1  0
  8  6  1  0
  1 10  1  0
  1 11  1  0
  1 12  1  0
  2 13  1  0
  3 14  1  0
  3 15  1  0
  7 16  1  0
  7 17  1  0
  8 18  1  0
  9 19  1  0
M  END
$$$$
