
     RDKit          3D

 19 20  0  0  0  0  0  0  0  0999 V2000
   -0.2426   -1.4869    0.6166 C   0  0  0  0  0  0  0  0  0  0  0  0
    1.1204   -1.5541    1.0252 O   0  0  0  0  0  0  0  0  0  0  0  0
    1.8757   -0.5696    0.3056 C   0  0  0  0  0  0  0  0  0  0  0  0
    0.8532    0.3491   -0.3112 C   0  0  0  0  0  0  0  0  0  0  0  0
    0.9287    1.1652   -1.3548 C   0  0  0  0  0  0  0  0  0  0  0  0
   -0.3068    1.8418   -1.8953 C   0  0  0  0  0  0  0  0  0  0  0  0
   -1.5272    1.5882   -0.9972 C   0  0  0  0  0  0  0  0  0  0  0  0
   -1.5701    0.2504   -0.5131 O   0  0  0  0  0  0  0  0  0  0  0  0
   -0.4710   -0.0003    0.3287 C   0  0  0  0  0  0  0  0  0  0  0  0
   -0.4324   -2.0672   -0.2996 H   0  0  0  0  0  0  0  0  0  0  0  0
   -0.8538   -1.8880    1.4283 H   0  0  0  0  0  0  0  0  0  0  0  0
    2.5390   -0.0695    1.0228 H   0  0  0  0  0  0  0  0  0  0  0  0
    2.5070   -1.0454   -0.4590 H   0  0  0  0  0  0  0  0  0  0  0  0
    1.8656    1.3227   -1.8847 H   0  0  0  0  0  0  0  0  0  0  0  0
   -0.1516    2.9243   -1.9935 H   0  0  0  0  0  0  0  0  0  0  0  0
   -0.4987    1.4711   -2.9118 H   0  0  0  0  0  0  0  0  0  0  0  0
   -1.5145    2.2876   -0.1454 H   0  0  0  0  0  0  0  0  0  0  0  0
   -2.4587    1.7455   -1.5468 H   0  0  0  0  0  0  0  0  0  0  0  0
   -0.5958    0.5377    1.2862 H   0  0  0  0  0  0  0  0  0  0  0  0
  1  2  1  0
  2  3  1  0
  3  4  1  0
  4  5  2  0
  5  6  1  0
  6  7  1  0
  7  8  1  0
  8  9  1  0
  9  1  1  0
  9  4  1  0
  1 10  1  0
  1 11  1  0
  3 12  1  0
  3 13  1  0
  5 14  1  0
  6 15  1  0
  6 16  1  0
  7 17  1  0
  7 18  1  0
  9 19  1  0
M  END
$$$$
