
     RDKit          3D

 19 20  0  0  0  0  0  0  0  0999 V2000
    1.2908    0.3103   -0.3945 O   0  0  0  0  0  0  0  0  0  0  0  0
    0.1146    0.1656   -0.1820 C   0  0  0  0  0  0  0  0  0  0  0  0
   -0.9030    1.2660    0.1309 C   0  0  0  0  0  0  0  0  0  0  0  0
   -2.1115    0.5968    0.4355 O   0  0  0  0  0  0  0  0  0  0  0  0
   -2.0975   -0.6519   -0.2622 C   0  0  0  0  0  0  0  0  0  0  0  0
   -0.6554   -1.1474   -0.1769 C   0  0  0  0  0  0  0  0  0  0  0  0
   -0.1856   -2.2803   -1.1230 C   0  0  0  0  0  0  0  0  0  0  0  0
   -0.2559   -3.2854    0.0574 C   0  0  0  0  0  0  0  0  0  0  0  0
   -0.3273   -2.0862    1.0391 C   0  0  0  0  0  0  0  0  0  0  0  0
   -0.5970    1.8822    0.9813 H   0  0  0  0  0  0  0  0  0  0  0  0
   -1.0003    1.9210   -0.7517 H   0  0  0  0  0  0  0  0  0  0  0  0
   -2.8290   -1.3048    0.2203 H   0  0  0  0  0  0  0  0  0  0  0  0
   -2.3955   -0.5111   -1.3152 H   0  0  0  0  0  0  0  0  0  0  0  0
   -0.8158   -2.4778   -1.9944 H   0  0  0  0  0  0  0  0  0  0  0  0
    0.8387   -2.0933   -1.4571 H   0  0  0  0  0  0  0  0  0  0  0  0
   -1.1798   -3.8699    0.0502 H   0  0  0  0  0  0  0  0  0  0  0  0
    0.5852   -3.9712    0.1770 H   0  0  0  0  0  0  0  0  0  0  0  0
   -1.0755   -2.1156    1.8347 H   0  0  0  0  0  0  0  0  0  0  0  0
    0.6469   -1.8479    1.4734 H   0  0  0  0  0  0  0  0  0  0  0  0
  1  2  2  0
  2  3  1  0
  3  4  1  0
  4  5  1  0
  5  6  1  0
  6  7  1  0
  7  8  1  0
  8  9  1  0
  6  2  1  0
  9  6  1  0
  3 10  1  0
  3 11  1  0
  5 12  1  0
  5 13  1  0
  7 14  1  0
  7 15  1  0
  8 16  1  0
  8 17  1  0
  9 18  1  0
  9 19  1  0
M  END
$$$$
