gdb 3220	2.9614128	1.5634581	1.2133982	2.4959	74.19	-0.238	0.06122	0.29922	1060.9037	0.157267	-422.510271	-422.50247	-422.501526	-422.542134	30.717
 OpenBabel02181911413D

 19 21  0  0  1  0  0  0  0  0999 V2000
    1.3574   -0.3832   -1.1813 C   0  0  0  0  0  0  0  0  0  0  0  0
    0.9358    0.1165    0.1974 C   0  0  2  0  0  0  0  0  0  0  0  0
    1.6004    1.4685    0.5681 C   0  0  1  0  0  0  0  0  0  0  0  0
    1.0021    2.0541    1.7468 O   0  0  0  0  0  0  0  0  0  0  0  0
    1.7954    1.2185    2.6124 C   0  0  1  0  0  0  0  0  0  0  0  0
    1.1806   -0.1942    2.7578 C   0  0  2  0  0  0  0  0  0  0  0  0
    1.8814   -0.8441    3.8002 O   0  0  0  0  0  0  0  0  0  0  0  0
    1.7367   -0.5549    1.3511 C   0  0  2  0  0  0  0  0  0  0  0  0
    2.6629    0.7207    1.4237 C   0  0  1  0  0  0  0  0  0  0  0  0
    1.0417   -1.4200   -1.3374 H   0  0  0  0  0  0  0  0  0  0  0  0
    0.9143    0.2287   -1.9742 H   0  0  0  0  0  0  0  0  0  0  0  0
    2.4467   -0.3479   -1.3020 H   0  0  0  0  0  0  0  0  0  0  0  0
   -0.1550    0.1067    0.2977 H   0  0  0  0  0  0  0  0  0  0  0  0
    1.7777    2.2085   -0.2160 H   0  0  0  0  0  0  0  0  0  0  0  0
    2.1314    1.7245    3.5189 H   0  0  0  0  0  0  0  0  0  0  0  0
    0.0912   -0.2420    2.8956 H   0  0  0  0  0  0  0  0  0  0  0  0
    1.7484   -1.7929    3.7048 H   0  0  0  0  0  0  0  0  0  0  0  0
    2.0887   -1.5787    1.2044 H   0  0  0  0  0  0  0  0  0  0  0  0
    3.7435    0.7685    1.3320 H   0  0  0  0  0  0  0  0  0  0  0  0
  1  2  1  0  0  0  0
  2 13  1  1  0  0  0
  2  3  1  0  0  0  0
  2  8  1  0  0  0  0
  3 14  1  6  0  0  0
  3  9  1  0  0  0  0
  3  4  1  0  0  0  0
  4  5  1  0  0  0  0
  5  6  1  0  0  0  0
  5 15  1  1  0  0  0
  6 16  1  1  0  0  0
  6  7  1  0  0  0  0
  8 18  1  6  0  0  0
  8  9  1  0  0  0  0
  8  6  1  0  0  0  0
  9 19  1  6  0  0  0
  9  5  1  0  0  0  0
 10  1  1  0  0  0  0
 11  1  1  0  0  0  0
 12  1  1  0  0  0  0
 17  7  1  0  0  0  0
M TOR 0 0 1 2 3
M TOR 1 0 1 2 8
M TOR 2 0 1 2 13
M TOR 3 0 1 7 5
M TOR 4 0 1 7 8
M TOR 5 0 1 7 17
M TOR 6 1 2 3 4
M TOR 7 1 2 8 4
M TOR 8 1 2 8 7
M TOR 9 1 2 8 18
M TOR 10 1 7 5 4
M TOR 11 1 7 5 6
M TOR 12 1 7 5 15
M TOR 13 1 7 8 4
M TOR 14 1 7 8 18
M TOR 15 2 1 0 9
M TOR 16 2 1 0 10
M TOR 17 2 1 0 11
M TOR 18 2 1 7 5
M TOR 19 2 1 7 17
M TOR 20 2 3 4 5
M TOR 21 2 3 4 8
M TOR 22 2 3 4 14
M TOR 23 2 8 4 5
M TOR 24 2 8 4 14
M TOR 25 2 8 7 5
M TOR 26 2 8 7 17
M TOR 27 3 2 1 7
M TOR 28 3 2 1 12
M TOR 29 3 2 8 7
M TOR 30 3 2 8 18
M TOR 31 3 4 5 6
M TOR 32 3 4 5 7
M TOR 33 3 4 5 15
M TOR 34 3 4 8 7
M TOR 35 3 4 8 18
M TOR 36 4 3 2 13
M TOR 37 4 5 6 16
M TOR 38 4 5 7 8
M TOR 39 4 5 7 17
M TOR 40 4 8 2 13
M TOR 41 4 8 7 17
M TOR 42 5 4 8 18
M TOR 43 5 7 1 12
M TOR 44 5 7 8 18
M TOR 45 6 5 4 8
M TOR 46 6 5 4 14
M TOR 47 6 5 7 8
M TOR 48 6 5 7 17
M TOR 49 7 1 0 9
M TOR 50 7 1 0 10
M TOR 51 7 1 0 11
M TOR 52 7 1 2 13
M TOR 53 7 5 4 14
M TOR 54 7 5 6 16
M TOR 55 7 8 2 13
M TOR 56 7 8 4 14
M TOR 57 8 2 1 12
M TOR 58 8 4 5 15
M TOR 59 8 7 1 12
M TOR 60 8 7 5 15
M  END
$$$$
