gdb 365	2.7934453	1.6446573	1.5673994	1.7842	74.62	-0.23844	0.0868	0.32524000000000003	962.6303	0.15882	-422.514506	-422.507238	-422.506294	-422.545785	29.362
 OpenBabel02181911403D

 19 21  0  0  1  0  0  0  0  0999 V2000
    0.6184    1.3853   -0.0301 C   0  0  0  0  0  0  0  0  0  0  0  0
    1.4220    0.1033   -0.0285 C   0  0  0  0  0  0  0  0  0  0  0  0
   -0.0743    0.0629    0.0360 C   0  0  0  0  0  0  0  0  0  0  0  0
   -0.9030   -0.6176    1.1372 C   0  0  2  0  0  0  0  0  0  0  0  0
   -1.1100   -1.7862    0.1312 C   0  0  0  0  0  0  0  0  0  0  0  0
   -0.9914   -0.6756   -0.9520 C   0  0  1  0  0  0  0  0  0  0  0  0
   -2.2588   -0.0185   -1.0543 O   0  0  0  0  0  0  0  0  0  0  0  0
   -2.5599    0.7070    0.1233 C   0  0  0  0  0  0  0  0  0  0  0  0
   -2.1587    0.0471    1.3096 O   0  0  0  0  0  0  0  0  0  0  0  0
    0.6326    1.9986    0.8654 H   0  0  0  0  0  0  0  0  0  0  0  0
    0.5555    1.9480   -0.9562 H   0  0  0  0  0  0  0  0  0  0  0  0
    1.9040   -0.1995   -0.9529 H   0  0  0  0  0  0  0  0  0  0  0  0
    1.9810   -0.1489    0.8673 H   0  0  0  0  0  0  0  0  0  0  0  0
   -0.4837   -0.7923    2.1297 H   0  0  0  0  0  0  0  0  0  0  0  0
   -0.2684   -2.4821    0.1149 H   0  0  0  0  0  0  0  0  0  0  0  0
   -2.0645   -2.3114    0.1862 H   0  0  0  0  0  0  0  0  0  0  0  0
   -0.6571   -0.9060   -1.9651 H   0  0  0  0  0  0  0  0  0  0  0  0
   -2.0827    1.6960    0.0756 H   0  0  0  0  0  0  0  0  0  0  0  0
   -3.6460    0.8217    0.1661 H   0  0  0  0  0  0  0  0  0  0  0  0
  1  2  1  0  0  0  0
  1  3  1  0  0  0  0
  1 10  1  0  0  0  0
  2  3  1  0  0  0  0
  2 13  1  0  0  0  0
  3  4  1  0  0  0  0
  4  9  1  0  0  0  0
  4 14  1  1  0  0  0
  5 16  1  0  0  0  0
  5  4  1  0  0  0  0
  6 17  1  6  0  0  0
  6  3  1  0  0  0  0
  6  5  1  0  0  0  0
  7  6  1  0  0  0  0
  7  8  1  0  0  0  0
  8 19  1  0  0  0  0
  8  9  1  0  0  0  0
 11  1  1  0  0  0  0
 12  2  1  0  0  0  0
 15  5  1  0  0  0  0
 18  8  1  0  0  0  0
M TOR 0 0 1 2 3
M TOR 1 0 1 2 5
M TOR 2 0 2 1 11
M TOR 3 0 2 1 12
M TOR 4 0 2 3 4
M TOR 5 0 2 3 8
M TOR 6 0 2 3 13
M TOR 7 0 2 5 4
M TOR 8 0 2 5 6
M TOR 9 0 2 5 16
M TOR 10 1 2 0 9
M TOR 11 1 2 0 10
M TOR 12 1 2 3 4
M TOR 13 1 2 3 8
M TOR 14 1 2 3 13
M TOR 15 1 2 5 4
M TOR 16 1 2 5 6
M TOR 17 1 2 5 16
M TOR 18 2 3 4 5
M TOR 19 2 3 4 14
M TOR 20 2 3 4 15
M TOR 21 2 3 8 7
M TOR 22 2 5 4 14
M TOR 23 2 5 4 15
M TOR 24 2 5 6 7
M TOR 25 3 2 0 9
M TOR 26 3 2 0 10
M TOR 27 3 2 1 11
M TOR 28 3 2 1 12
M TOR 29 3 2 5 6
M TOR 30 3 2 5 16
M TOR 31 3 4 5 6
M TOR 32 3 4 5 16
M TOR 33 3 8 7 6
M TOR 34 3 8 7 17
M TOR 35 3 8 7 18
M TOR 36 4 3 8 7
M TOR 37 4 5 6 7
M TOR 38 5 2 0 9
M TOR 39 5 2 0 10
M TOR 40 5 2 1 11
M TOR 41 5 2 1 12
M TOR 42 5 2 3 8
M TOR 43 5 2 3 13
M TOR 44 5 4 3 8
M TOR 45 5 4 3 13
M TOR 46 5 6 7 8
M TOR 47 5 6 7 17
M TOR 48 5 6 7 18
M TOR 49 6 5 4 14
M TOR 50 6 5 4 15
M TOR 51 7 6 5 16
M TOR 52 7 8 3 13
M TOR 53 8 3 4 14
M TOR 54 8 3 4 15
M  END
$$$$
