gdb 5238	2.5427131	1.5397426	1.2561081	1.0979	75.46	-0.2131	0.0798	0.2929	1093.133	0.155443	-422.475525	-422.466816	-422.465872	-422.508855	32.32
 OpenBabel02181911423D

 19 21  0  0  1  0  0  0  0  0999 V2000
    1.6250    0.0530    0.1048 C   0  0  0  0  0  0  0  0  0  0  0  0
    0.2099    0.1366    0.0127 O   0  0  0  0  0  0  0  0  0  0  0  0
   -0.3711    0.8131    1.0539 C   0  0  2  0  0  0  0  0  0  0  0  0
   -0.4353    2.3203    1.3162 C   0  0  0  0  0  0  0  0  0  0  0  0
   -1.5150    1.9298    2.3602 C   0  0  2  0  0  0  0  0  0  0  0  0
   -0.7745    1.2193    3.3946 O   0  0  0  0  0  0  0  0  0  0  0  0
   -0.6316    0.1673    2.4408 C   0  0  1  0  0  0  0  0  0  0  0  0
   -1.7810    0.5821    1.5721 C   0  0  2  0  0  0  0  0  0  0  0  0
   -2.9866   -0.0989    1.0145 C   0  0  0  0  0  0  0  0  0  0  0  0
    1.9362   -0.4388    1.0361 H   0  0  0  0  0  0  0  0  0  0  0  0
    1.9646   -0.5369   -0.7490 H   0  0  0  0  0  0  0  0  0  0  0  0
    2.0905    1.0469    0.0613 H   0  0  0  0  0  0  0  0  0  0  0  0
    0.4413    2.8492    1.7030 H   0  0  0  0  0  0  0  0  0  0  0  0
   -0.8689    2.8504    0.4641 H   0  0  0  0  0  0  0  0  0  0  0  0
   -2.2445    2.6381    2.7473 H   0  0  0  0  0  0  0  0  0  0  0  0
   -0.2661   -0.8029    2.7523 H   0  0  0  0  0  0  0  0  0  0  0  0
   -3.7138   -0.3361    1.7984 H   0  0  0  0  0  0  0  0  0  0  0  0
   -3.4880    0.5219    0.2633 H   0  0  0  0  0  0  0  0  0  0  0  0
   -2.6969   -1.0347    0.5260 H   0  0  0  0  0  0  0  0  0  0  0  0
  1 10  1  0  0  0  0
  2  1  1  0  0  0  0
  3  2  1  6  0  0  0
  3  4  1  0  0  0  0
  3  8  1  0  0  0  0
  3  7  1  0  0  0  0
  4 13  1  0  0  0  0
  4  5  1  0  0  0  0
  5 15  1  1  0  0  0
  5  6  1  0  0  0  0
  7 16  1  1  0  0  0
  7  6  1  0  0  0  0
  8  9  1  6  0  0  0
  8  5  1  0  0  0  0
  8  7  1  0  0  0  0
  9 17  1  0  0  0  0
 11  1  1  0  0  0  0
 12  1  1  0  0  0  0
 14  4  1  0  0  0  0
 18  9  1  0  0  0  0
 19  9  1  0  0  0  0
M TOR 0 0 1 2 3
M TOR 1 0 1 2 6
M TOR 2 0 1 2 7
M TOR 3 1 2 3 4
M TOR 4 1 2 3 12
M TOR 5 1 2 3 13
M TOR 6 1 2 6 5
M TOR 7 1 2 6 7
M TOR 8 1 2 6 15
M TOR 9 1 2 7 4
M TOR 10 1 2 7 8
M TOR 11 2 1 0 9
M TOR 12 2 1 0 10
M TOR 13 2 1 0 11
M TOR 14 2 3 4 5
M TOR 15 2 3 4 7
M TOR 16 2 3 4 14
M TOR 17 2 6 5 4
M TOR 18 2 6 7 4
M TOR 19 2 6 7 8
M TOR 20 2 7 4 5
M TOR 21 2 7 4 14
M TOR 22 2 7 6 5
M TOR 23 2 7 6 15
M TOR 24 2 7 8 16
M TOR 25 2 7 8 17
M TOR 26 2 7 8 18
M TOR 27 3 2 6 5
M TOR 28 3 2 6 7
M TOR 29 3 2 6 15
M TOR 30 3 2 7 8
M TOR 31 3 4 5 6
M TOR 32 3 4 7 6
M TOR 33 3 4 7 8
M TOR 34 4 3 2 6
M TOR 35 4 5 6 7
M TOR 36 4 5 6 15
M TOR 37 4 7 6 15
M TOR 38 4 7 8 16
M TOR 39 4 7 8 17
M TOR 40 4 7 8 18
M TOR 41 5 4 3 12
M TOR 42 5 4 3 13
M TOR 43 5 4 7 8
M TOR 44 5 6 7 8
M TOR 45 6 2 3 12
M TOR 46 6 2 3 13
M TOR 47 6 5 4 14
M TOR 48 6 7 4 14
M TOR 49 6 7 8 16
M TOR 50 6 7 8 17
M TOR 51 6 7 8 18
M TOR 52 7 2 3 12
M TOR 53 7 2 3 13
M TOR 54 7 4 3 12
M TOR 55 7 4 3 13
M TOR 56 8 7 4 14
M TOR 57 8 7 6 15
M  END
$$$$
