gdb 3719	3.5401345	1.2405872	1.1628601	1.1564	75.92	-0.22957	0.05872	0.28829	1145.1869	0.156119	-422.492068	-422.483837	-422.482893	-422.524934	31.196
 OpenBabel02181911413D

 19 21  0  0  1  0  0  0  0  0999 V2000
    1.8661   -0.0959    1.3570 C   0  0  0  0  0  0  0  0  0  0  0  0
    1.0020   -0.5682    0.2093 C   0  0  1  0  0  0  0  0  0  0  0  0
    0.7191    0.3390   -0.9833 C   0  0  0  0  0  0  0  0  0  0  0  0
    1.5804   -0.8666   -1.1381 C   0  0  2  0  0  0  0  0  0  0  0  0
    1.1717   -2.0175   -1.9041 O   0  0  0  0  0  0  0  0  0  0  0  0
    2.5222   -2.2327   -2.3531 C   0  0  1  0  0  0  0  0  0  0  0  0
    2.8898   -1.4373   -3.6170 C   0  0  0  0  0  0  0  0  0  0  0  0
    3.3159   -0.2981   -2.8228 O   0  0  0  0  0  0  0  0  0  0  0  0
    3.0263   -0.9895   -1.5933 C   0  0  1  0  0  0  0  0  0  0  0  0
    2.2900   -0.9382    1.9148 H   0  0  0  0  0  0  0  0  0  0  0  0
    2.6976    0.5212    1.0000 H   0  0  0  0  0  0  0  0  0  0  0  0
    1.2864    0.5130    2.0592 H   0  0  0  0  0  0  0  0  0  0  0  0
    0.1793   -1.2237    0.4850 H   0  0  0  0  0  0  0  0  0  0  0  0
   -0.2691    0.2962   -1.4284 H   0  0  0  0  0  0  0  0  0  0  0  0
    1.1969    1.3133   -1.0239 H   0  0  0  0  0  0  0  0  0  0  0  0
    2.8505   -3.2666   -2.2417 H   0  0  0  0  0  0  0  0  0  0  0  0
    3.7251   -1.8455   -4.1995 H   0  0  0  0  0  0  0  0  0  0  0  0
    2.0461   -1.2069   -4.2758 H   0  0  0  0  0  0  0  0  0  0  0  0
    3.8345   -0.9238   -0.8633 H   0  0  0  0  0  0  0  0  0  0  0  0
  1 10  1  0  0  0  0
  1 12  1  0  0  0  0
  2 13  1  1  0  0  0
  2  1  1  0  0  0  0
  3  2  1  0  0  0  0
  4  5  1  6  0  0  0
  4  3  1  0  0  0  0
  4  2  1  0  0  0  0
  6 16  1  1  0  0  0
  6  5  1  0  0  0  0
  6  9  1  0  0  0  0
  7  8  1  0  0  0  0
  7  6  1  0  0  0  0
  8  9  1  0  0  0  0
  9  4  1  0  0  0  0
  9 19  1  1  0  0  0
 11  1  1  0  0  0  0
 14  3  1  0  0  0  0
 15  3  1  0  0  0  0
 17  7  1  0  0  0  0
 18  7  1  0  0  0  0
M TOR 0 0 1 2 3
M TOR 1 0 1 2 13
M TOR 2 0 1 2 14
M TOR 3 0 1 3 4
M TOR 4 0 1 3 8
M TOR 5 1 2 3 4
M TOR 6 1 2 3 8
M TOR 7 1 3 2 13
M TOR 8 1 3 2 14
M TOR 9 1 3 4 5
M TOR 10 1 3 8 5
M TOR 11 1 3 8 7
M TOR 12 1 3 8 18
M TOR 13 2 1 0 9
M TOR 14 2 1 0 10
M TOR 15 2 1 0 11
M TOR 16 2 3 1 12
M TOR 17 2 3 4 5
M TOR 18 2 3 8 5
M TOR 19 2 3 8 7
M TOR 20 2 3 8 18
M TOR 21 3 1 0 9
M TOR 22 3 1 0 10
M TOR 23 3 1 0 11
M TOR 24 3 4 5 6
M TOR 25 3 4 5 8
M TOR 26 3 4 5 15
M TOR 27 3 8 5 6
M TOR 28 3 8 5 15
M TOR 29 3 8 7 6
M TOR 30 4 3 1 12
M TOR 31 4 3 2 13
M TOR 32 4 3 2 14
M TOR 33 4 3 8 7
M TOR 34 4 3 8 18
M TOR 35 4 5 6 7
M TOR 36 4 5 6 16
M TOR 37 4 5 6 17
M TOR 38 4 5 8 7
M TOR 39 4 5 8 18
M TOR 40 5 6 7 8
M TOR 41 6 5 8 18
M TOR 42 6 7 8 18
M TOR 43 7 6 5 15
M TOR 44 7 8 5 15
M TOR 45 8 3 1 12
M TOR 46 8 3 2 13
M TOR 47 8 3 2 14
M TOR 48 8 5 6 16
M TOR 49 8 5 6 17
M TOR 50 8 7 6 16
M TOR 51 8 7 6 17
M  END
$$$$
