
     RDKit          3D

 19 21  0  0  0  0  0  0  0  0999 V2000
    0.2156    0.1605   -0.3476 C   0  0  0  0  0  0  0  0  0  0  0  0
    1.1402   -0.3502    0.7381 C   0  0  0  0  0  0  0  0  0  0  0  0
    2.5083   -0.5065    0.2458 O   0  0  0  0  0  0  0  0  0  0  0  0
    2.4970   -1.9178    0.5101 C   0  0  0  0  0  0  0  0  0  0  0  0
    1.0654   -1.8550    1.0769 C   0  0  0  0  0  0  0  0  0  0  0  0
    1.5232   -2.1773    2.4031 O   0  0  0  0  0  0  0  0  0  0  0  0
    2.8794   -2.2937    1.9340 C   0  0  0  0  0  0  0  0  0  0  0  0
    4.0544   -1.8945    2.7526 C   0  0  0  0  0  0  0  0  0  0  0  0
    3.7968   -3.3620    2.4300 C   0  0  0  0  0  0  0  0  0  0  0  0
    0.1930   -0.5263   -1.1999 H   0  0  0  0  0  0  0  0  0  0  0  0
   -0.8033    0.2726    0.0389 H   0  0  0  0  0  0  0  0  0  0  0  0
    0.5581    1.1355   -0.7067 H   0  0  0  0  0  0  0  0  0  0  0  0
    1.1123    0.2865    1.6300 H   0  0  0  0  0  0  0  0  0  0  0  0
    2.8752   -2.5162   -0.3206 H   0  0  0  0  0  0  0  0  0  0  0  0
    0.1926   -2.4332    0.7699 H   0  0  0  0  0  0  0  0  0  0  0  0
    4.8729   -1.3797    2.2609 H   0  0  0  0  0  0  0  0  0  0  0  0
    3.8542   -1.5693    3.7678 H   0  0  0  0  0  0  0  0  0  0  0  0
    4.4430   -3.8623    1.7155 H   0  0  0  0  0  0  0  0  0  0  0  0
    3.4283   -3.9921    3.2324 H   0  0  0  0  0  0  0  0  0  0  0  0
  1  2  1  0
  2  3  1  0
  3  4  1  0
  4  5  1  0
  5  6  1  0
  6  7  1  0
  7  8  1  0
  8  9  1  0
  5  2  1  0
  9  7  1  0
  7  4  1  0
  1 10  1  0
  1 11  1  0
  1 12  1  0
  2 13  1  0
  4 14  1  0
  5 15  1  0
  8 16  1  0
  8 17  1  0
  9 18  1  0
  9 19  1  0
M  END
$$$$
