
     RDKit          3D

 19 20  0  0  0  0  0  0  0  0999 V2000
    0.1880    0.1813    0.6202 O   0  0  0  0  0  0  0  0  0  0  0  0
   -0.6041    1.3392    0.8569 C   0  0  0  0  0  0  0  0  0  0  0  0
   -2.0110    1.0502    0.2802 C   0  0  0  0  0  0  0  0  0  0  0  0
   -2.9352    1.6230    1.1863 O   0  0  0  0  0  0  0  0  0  0  0  0
   -2.4056    1.3726    2.4830 C   0  0  0  0  0  0  0  0  0  0  0  0
   -0.9012    1.6583    2.3694 C   0  0  0  0  0  0  0  0  0  0  0  0
   -0.4905    3.1387    2.5860 C   0  0  0  0  0  0  0  0  0  0  0  0
    0.1124    3.5566    1.2686 C   0  0  0  0  0  0  0  0  0  0  0  0
    0.0380    2.6021    0.3440 C   0  0  0  0  0  0  0  0  0  0  0  0
    1.0997    0.4059    0.8347 H   0  0  0  0  0  0  0  0  0  0  0  0
   -2.1816    1.4907   -0.7049 H   0  0  0  0  0  0  0  0  0  0  0  0
   -2.1339   -0.0423    0.2131 H   0  0  0  0  0  0  0  0  0  0  0  0
   -2.9338    2.0170    3.1910 H   0  0  0  0  0  0  0  0  0  0  0  0
   -2.5783    0.3228    2.7715 H   0  0  0  0  0  0  0  0  0  0  0  0
   -0.3204    0.9882    3.0071 H   0  0  0  0  0  0  0  0  0  0  0  0
   -1.3597    3.7635    2.8288 H   0  0  0  0  0  0  0  0  0  0  0  0
    0.2133    3.2639    3.4183 H   0  0  0  0  0  0  0  0  0  0  0  0
    0.5295    4.5460    1.1113 H   0  0  0  0  0  0  0  0  0  0  0  0
    0.3807    2.6789   -0.6827 H   0  0  0  0  0  0  0  0  0  0  0  0
  1  2  1  0
  2  3  1  0
  3  4  1  0
  4  5  1  0
  5  6  1  0
  6  7  1  0
  7  8  1  0
  8  9  2  0
  6  2  1  0
  9  2  1  0
  1 10  1  0
  3 11  1  0
  3 12  1  0
  5 13  1  0
  5 14  1  0
  6 15  1  0
  7 16  1  0
  7 17  1  0
  8 18  1  0
  9 19  1  0
M  END
$$$$
