gdb 4126	3.1925437	1.1647464	0.9691209	1.971	76.08	-0.25154	-0.02255	0.22898999999999997	1229.3631	0.156367	-422.53899	-422.53039	-422.529446	-422.572901	31.82
 OpenBabel02181911413D

 19 20  0  0  1  0  0  0  0  0999 V2000
   -0.4296    1.7836   -3.0085 O   0  0  0  0  0  0  0  0  0  0  0  0
    0.9254    1.4735   -3.2094 C   0  0  1  0  0  0  0  0  0  0  0  0
    1.9785    2.6179   -3.3030 C   0  0  0  0  0  0  0  0  0  0  0  0
    2.9043    1.8501   -2.3159 C   0  0  1  0  0  0  0  0  0  0  0  0
    2.7949    2.3203   -0.8473 C   0  0  0  0  0  0  0  0  0  0  0  0
    1.5542    1.4117   -0.6469 C   0  0  2  0  0  0  0  0  0  0  0  0
    1.6504    0.3763    0.4418 C   0  0  0  0  0  0  0  0  0  0  0  0
    2.5736    0.2549    1.2067 O   0  0  0  0  0  0  0  0  0  0  0  0
    1.7521    0.8036   -2.0777 C   0  0  1  0  0  0  0  0  0  0  0  0
   -0.4867    2.5003   -2.3685 H   0  0  0  0  0  0  0  0  0  0  0  0
    0.9495    0.8420   -4.1026 H   0  0  0  0  0  0  0  0  0  0  0  0
    2.3787    2.7930   -4.3039 H   0  0  0  0  0  0  0  0  0  0  0  0
    1.6225    3.5777   -2.9106 H   0  0  0  0  0  0  0  0  0  0  0  0
    3.8876    1.5688   -2.6910 H   0  0  0  0  0  0  0  0  0  0  0  0
    3.6176    1.9778   -0.2156 H   0  0  0  0  0  0  0  0  0  0  0  0
    2.6526    3.3934   -0.6919 H   0  0  0  0  0  0  0  0  0  0  0  0
    0.5840    1.9128   -0.5342 H   0  0  0  0  0  0  0  0  0  0  0  0
    0.7842   -0.3243    0.4750 H   0  0  0  0  0  0  0  0  0  0  0  0
    1.8829   -0.2792   -2.1237 H   0  0  0  0  0  0  0  0  0  0  0  0
  1 10  1  0  0  0  0
  2 11  1  6  0  0  0
  2  1  1  0  0  0  0
  2  9  1  0  0  0  0
  3  2  1  0  0  0  0
  3 13  1  0  0  0  0
  3  4  1  0  0  0  0
  4 14  1  6  0  0  0
  4  9  1  0  0  0  0
  4  5  1  0  0  0  0
  5 16  1  0  0  0  0
  5  6  1  0  0  0  0
  5 15  1  0  0  0  0
  6 17  1  1  0  0  0
  6  7  1  0  0  0  0
  7 18  1  0  0  0  0
  7  8  2  0  0  0  0
  9 19  1  6  0  0  0
  9  6  1  0  0  0  0
 12  3  1  0  0  0  0
M TOR 0 0 1 2 3
M TOR 1 0 1 2 11
M TOR 2 0 1 2 12
M TOR 3 0 1 8 3
M TOR 4 0 1 8 5
M TOR 5 0 1 8 18
M TOR 6 1 2 3 4
M TOR 7 1 2 3 8
M TOR 8 1 2 3 13
M TOR 9 1 8 3 4
M TOR 10 1 8 3 13
M TOR 11 1 8 5 4
M TOR 12 1 8 5 6
M TOR 13 1 8 5 16
M TOR 14 2 1 0 9
M TOR 15 2 1 8 5
M TOR 16 2 1 8 18
M TOR 17 2 3 4 5
M TOR 18 2 3 4 14
M TOR 19 2 3 4 15
M TOR 20 2 3 8 5
M TOR 21 2 3 8 18
M TOR 22 3 2 1 10
M TOR 23 3 4 5 6
M TOR 24 3 4 5 8
M TOR 25 3 4 5 16
M TOR 26 3 8 1 10
M TOR 27 3 8 5 6
M TOR 28 3 8 5 16
M TOR 29 4 3 2 11
M TOR 30 4 3 2 12
M TOR 31 4 3 8 18
M TOR 32 4 5 6 7
M TOR 33 4 5 6 17
M TOR 34 4 5 8 18
M TOR 35 5 4 3 13
M TOR 36 5 8 1 10
M TOR 37 5 8 3 13
M TOR 38 6 5 4 14
M TOR 39 6 5 4 15
M TOR 40 6 5 8 18
M TOR 41 7 6 5 8
M TOR 42 7 6 5 16
M TOR 43 8 1 0 9
M TOR 44 8 1 2 11
M TOR 45 8 1 2 12
M TOR 46 8 3 2 11
M TOR 47 8 3 2 12
M TOR 48 8 3 4 14
M TOR 49 8 3 4 15
M TOR 50 8 5 4 14
M TOR 51 8 5 4 15
M TOR 52 8 5 6 17
M  END
$$$$
