gdb 1162	4.7912918	0.8951126	0.8229835	1.9325	76.94	-0.25865	0.01619	0.27484	1465.4111	0.155574	-422.555396	-422.546297	-422.545353	-422.590817	32.36
 OpenBabel02181911403D

 19 20  0  0  1  0  0  0  0  0999 V2000
   -0.7938    2.1739   -0.4247 C   0  0  0  0  0  0  0  0  0  0  0  0
    0.2541    1.0893   -0.4867 C   0  0  0  0  0  0  0  0  0  0  0  0
    0.0434   -0.0941   -0.5309 O   0  0  0  0  0  0  0  0  0  0  0  0
    1.4966    1.6353   -0.4691 O   0  0  0  0  0  0  0  0  0  0  0  0
    2.5757    0.7187   -0.5119 C   0  0  2  0  0  0  0  0  0  0  0  0
    3.8814    1.3936   -0.7783 C   0  0  1  0  0  0  0  0  0  0  0  0
    5.0186    0.3728   -0.6689 C   0  0  0  0  0  0  0  0  0  0  0  0
    4.3226   -0.5021   -1.7683 C   0  0  0  0  0  0  0  0  0  0  0  0
    3.2004    0.5356   -1.8623 C   0  0  1  0  0  0  0  0  0  0  0  0
   -0.6874    2.7432    0.5033 H   0  0  0  0  0  0  0  0  0  0  0  0
   -0.6601    2.8756   -1.2527 H   0  0  0  0  0  0  0  0  0  0  0  0
   -1.7844    1.7236   -0.4714 H   0  0  0  0  0  0  0  0  0  0  0  0
    2.4664   -0.1076    0.1861 H   0  0  0  0  0  0  0  0  0  0  0  0
    3.9655    2.4708   -0.7033 H   0  0  0  0  0  0  0  0  0  0  0  0
    5.9781    0.7699   -1.0058 H   0  0  0  0  0  0  0  0  0  0  0  0
    5.1582   -0.0872    0.3151 H   0  0  0  0  0  0  0  0  0  0  0  0
    4.9199   -0.5711   -2.6796 H   0  0  0  0  0  0  0  0  0  0  0  0
    4.0150   -1.5112   -1.4755 H   0  0  0  0  0  0  0  0  0  0  0  0
    2.6738    0.8465   -2.7561 H   0  0  0  0  0  0  0  0  0  0  0  0
  1 10  1  0  0  0  0
  2  4  1  0  0  0  0
  2  1  1  0  0  0  0
  3  2  2  0  0  0  0
  5  4  1  0  0  0  0
  5 13  1  1  0  0  0
  6 14  1  6  0  0  0
  6  7  1  0  0  0  0
  6  5  1  0  0  0  0
  7 16  1  0  0  0  0
  8 18  1  0  0  0  0
  8  7  1  0  0  0  0
  9 19  1  6  0  0  0
  9  8  1  0  0  0  0
  9  6  1  0  0  0  0
  9  5  1  0  0  0  0
 11  1  1  0  0  0  0
 12  1  1  0  0  0  0
 15  7  1  0  0  0  0
 17  8  1  0  0  0  0
M TOR 0 0 1 3 4
M TOR 1 1 3 4 5
M TOR 2 1 3 4 8
M TOR 3 1 3 4 12
M TOR 4 2 1 0 9
M TOR 5 2 1 0 10
M TOR 6 2 1 0 11
M TOR 7 2 1 3 4
M TOR 8 3 1 0 9
M TOR 9 3 1 0 10
M TOR 10 3 1 0 11
M TOR 11 3 4 5 6
M TOR 12 3 4 5 8
M TOR 13 3 4 5 13
M TOR 14 3 4 8 7
M TOR 15 3 4 8 18
M TOR 16 4 5 6 7
M TOR 17 4 5 6 14
M TOR 18 4 5 6 15
M TOR 19 4 5 8 7
M TOR 20 4 5 8 18
M TOR 21 4 8 5 6
M TOR 22 4 8 5 13
M TOR 23 4 8 7 6
M TOR 24 4 8 7 16
M TOR 25 4 8 7 17
M TOR 26 5 6 7 8
M TOR 27 5 6 7 16
M TOR 28 5 6 7 17
M TOR 29 5 8 4 12
M TOR 30 5 8 7 16
M TOR 31 5 8 7 17
M TOR 32 6 5 4 12
M TOR 33 6 5 8 18
M TOR 34 6 7 8 18
M TOR 35 7 6 5 13
M TOR 36 7 8 4 12
M TOR 37 7 8 5 13
M TOR 38 8 5 6 14
M TOR 39 8 5 6 15
M TOR 40 8 7 6 14
M TOR 41 8 7 6 15
M  END
$$$$
