
     RDKit          3D

 19 21  0  0  0  0  0  0  0  0999 V2000
   -0.4380   -0.6814    3.1143 C   0  0  0  0  0  0  0  0  0  0  0  0
   -1.3027    0.1079    2.1778 C   0  0  0  0  0  0  0  0  0  0  0  0
   -0.8426    0.6360    0.8477 C   0  0  0  0  0  0  0  0  0  0  0  0
    0.5499    0.5875    0.6873 O   0  0  0  0  0  0  0  0  0  0  0  0
   -1.3460    1.6089    1.8967 C   0  0  0  0  0  0  0  0  0  0  0  0
   -2.8852    1.6152    2.0814 C   0  0  0  0  0  0  0  0  0  0  0  0
   -3.6279    0.6720    1.1478 C   0  0  0  0  0  0  0  0  0  0  0  0
   -2.8645    0.1289    2.3274 C   0  0  0  0  0  0  0  0  0  0  0  0
   -3.4822   -0.5482    3.3647 O   0  0  0  0  0  0  0  0  0  0  0  0
   -0.7137   -0.4933    4.1565 H   0  0  0  0  0  0  0  0  0  0  0  0
   -0.5407   -1.7593    2.9357 H   0  0  0  0  0  0  0  0  0  0  0  0
    0.6115   -0.4178    2.9694 H   0  0  0  0  0  0  0  0  0  0  0  0
   -1.3904    0.4470   -0.0736 H   0  0  0  0  0  0  0  0  0  0  0  0
    0.8179    1.3815    0.2129 H   0  0  0  0  0  0  0  0  0  0  0  0
   -0.6882    2.3762    2.2874 H   0  0  0  0  0  0  0  0  0  0  0  0
   -3.4093    2.3864    2.6309 H   0  0  0  0  0  0  0  0  0  0  0  0
   -4.6996    0.6767    1.3267 H   0  0  0  0  0  0  0  0  0  0  0  0
   -3.3615    0.5145    0.1088 H   0  0  0  0  0  0  0  0  0  0  0  0
   -3.7244   -1.4268    3.0502 H   0  0  0  0  0  0  0  0  0  0  0  0
  1  2  1  0
  2  3  1  0
  3  4  1  0
  3  5  1  0
  5  6  1  0
  6  7  1  0
  7  8  1  0
  8  9  1  0
  5  2  1  0
  8  6  1  0
  8  2  1  0
  1 10  1  0
  1 11  1  0
  1 12  1  0
  3 13  1  0
  4 14  1  0
  5 15  1  0
  6 16  1  0
  7 17  1  0
  7 18  1  0
  9 19  1  0
M  END
$$$$
