
     RDKit          3D

 19 20  0  0  0  0  0  0  0  0999 V2000
   -3.6856   -0.6206    0.1659 C   0  0  0  0  0  0  0  0  0  0  0  0
   -2.8213   -0.2093   -1.0353 C   0  0  0  0  0  0  0  0  0  0  0  0
   -1.6918   -1.2114   -1.2930 C   0  0  0  0  0  0  0  0  0  0  0  0
   -0.6669   -1.1988   -0.2881 O   0  0  0  0  0  0  0  0  0  0  0  0
   -0.2142   -0.0328    0.2477 C   0  0  0  0  0  0  0  0  0  0  0  0
    0.6767   -0.0728    1.0540 O   0  0  0  0  0  0  0  0  0  0  0  0
   -0.8878    1.2366   -0.1516 C   0  0  0  0  0  0  0  0  0  0  0  0
   -1.0469    1.6376   -1.6121 C   0  0  0  0  0  0  0  0  0  0  0  0
   -2.2414    1.1790   -0.8350 C   0  0  0  0  0  0  0  0  0  0  0  0
   -4.1558   -1.5942   -0.0041 H   0  0  0  0  0  0  0  0  0  0  0  0
   -3.0859   -0.6906    1.0782 H   0  0  0  0  0  0  0  0  0  0  0  0
   -4.4807    0.1107    0.3422 H   0  0  0  0  0  0  0  0  0  0  0  0
   -3.4476   -0.2127   -1.9379 H   0  0  0  0  0  0  0  0  0  0  0  0
   -2.0789   -2.2336   -1.2870 H   0  0  0  0  0  0  0  0  0  0  0  0
   -1.2310   -1.0428   -2.2730 H   0  0  0  0  0  0  0  0  0  0  0  0
   -0.6753    2.0338    0.5493 H   0  0  0  0  0  0  0  0  0  0  0  0
   -0.9505    2.6970   -1.8195 H   0  0  0  0  0  0  0  0  0  0  0  0
   -0.6239    1.0019   -2.3803 H   0  0  0  0  0  0  0  0  0  0  0  0
   -2.9579    1.9406   -0.5417 H   0  0  0  0  0  0  0  0  0  0  0  0
  1  2  1  0
  2  3  1  0
  3  4  1  0
  4  5  1  0
  5  6  2  0
  5  7  1  0
  7  8  1  0
  8  9  1  0
  9  2  1  0
  9  7  1  0
  1 10  1  0
  1 11  1  0
  1 12  1  0
  2 13  1  0
  3 14  1  0
  3 15  1  0
  7 16  1  0
  8 17  1  0
  8 18  1  0
  9 19  1  0
M  END
$$$$
