gdb 568	3.2793413	1.7147072	1.7074298	1.8342	72.43	-0.22977	0.08701	0.31678	892.9004	0.161704	-422.572607	-422.566359	-422.565415	-422.602846	26.421
 OpenBabel02181911403D

 19 21  0  0  1  0  0  0  0  0999 V2000
    1.2292    2.9372    0.9746 C   0  0  0  0  0  0  0  0  0  0  0  0
    1.3454    2.9577   -0.4617 O   0  0  0  0  0  0  0  0  0  0  0  0
    0.7476    1.7575   -0.9336 C   0  0  1  0  0  0  0  0  0  0  0  0
    1.6423    0.5043   -0.7509 C   0  0  1  0  0  0  0  0  0  0  0  0
    1.9964    0.5998    0.7567 C   0  0  0  0  0  0  0  0  0  0  0  0
    0.8253    1.4919    1.2714 C   0  0  2  0  0  0  0  0  0  0  0  0
   -0.2397    1.2813    0.1537 C   0  0  2  0  0  0  0  0  0  0  0  0
   -0.4655   -0.1869   -0.2090 C   0  0  0  0  0  0  0  0  0  0  0  0
    0.7217   -0.5703   -0.9339 O   0  0  0  0  0  0  0  0  0  0  0  0
    2.1926    3.2142    1.4161 H   0  0  0  0  0  0  0  0  0  0  0  0
    0.4729    3.6673    1.2977 H   0  0  0  0  0  0  0  0  0  0  0  0
    0.3696    1.9059   -1.9451 H   0  0  0  0  0  0  0  0  0  0  0  0
    2.4769    0.3680   -1.4378 H   0  0  0  0  0  0  0  0  0  0  0  0
    2.0039   -0.4017    1.1930 H   0  0  0  0  0  0  0  0  0  0  0  0
    2.9698    1.0623    0.9413 H   0  0  0  0  0  0  0  0  0  0  0  0
    0.5051    1.3071    2.2975 H   0  0  0  0  0  0  0  0  0  0  0  0
   -1.1490    1.8709    0.2773 H   0  0  0  0  0  0  0  0  0  0  0  0
   -0.5974   -0.8292    0.6728 H   0  0  0  0  0  0  0  0  0  0  0  0
   -1.3351   -0.3246   -0.8617 H   0  0  0  0  0  0  0  0  0  0  0  0
  1  6  1  0  0  0  0
  1 11  1  0  0  0  0
  1 10  1  0  0  0  0
  2  1  1  0  0  0  0
  3 12  1  6  0  0  0
  3  4  1  0  0  0  0
  3  2  1  0  0  0  0
  3  7  1  0  0  0  0
  4 13  1  6  0  0  0
  4  5  1  0  0  0  0
  5 15  1  0  0  0  0
  5 14  1  0  0  0  0
  5  6  1  0  0  0  0
  6 16  1  1  0  0  0
  7 17  1  1  0  0  0
  7  6  1  0  0  0  0
  8  7  1  0  0  0  0
  8 18  1  0  0  0  0
  9  4  1  0  0  0  0
  9  8  1  0  0  0  0
 19  8  1  0  0  0  0
M TOR 0 0 1 2 3
M TOR 1 0 1 2 6
M TOR 2 0 1 2 11
M TOR 3 0 5 4 3
M TOR 4 0 5 4 13
M TOR 5 0 5 4 14
M TOR 6 0 5 6 2
M TOR 7 0 5 6 7
M TOR 8 0 5 6 16
M TOR 9 1 0 5 4
M TOR 10 1 0 5 6
M TOR 11 1 0 5 15
M TOR 12 1 2 3 4
M TOR 13 1 2 3 8
M TOR 14 1 2 3 12
M TOR 15 1 2 6 5
M TOR 16 1 2 6 7
M TOR 17 1 2 6 16
M TOR 18 2 1 0 5
M TOR 19 2 1 0 9
M TOR 20 2 1 0 10
M TOR 21 2 3 4 5
M TOR 22 2 3 4 13
M TOR 23 2 3 4 14
M TOR 24 2 3 8 7
M TOR 25 2 6 5 4
M TOR 26 2 6 5 15
M TOR 27 2 6 7 8
M TOR 28 2 6 7 17
M TOR 29 2 6 7 18
M TOR 30 3 2 6 5
M TOR 31 3 2 6 7
M TOR 32 3 2 6 16
M TOR 33 3 4 5 6
M TOR 34 3 4 5 15
M TOR 35 3 8 7 6
M TOR 36 3 8 7 17
M TOR 37 3 8 7 18
M TOR 38 4 3 2 6
M TOR 39 4 3 2 11
M TOR 40 4 3 8 7
M TOR 41 4 5 0 9
M TOR 42 4 5 0 10
M TOR 43 4 5 6 7
M TOR 44 4 5 6 16
M TOR 45 5 4 3 8
M TOR 46 5 4 3 12
M TOR 47 5 6 2 11
M TOR 48 5 6 7 8
M TOR 49 5 6 7 17
M TOR 50 5 6 7 18
M TOR 51 6 2 3 8
M TOR 52 6 2 3 12
M TOR 53 6 5 0 9
M TOR 54 6 5 0 10
M TOR 55 6 5 4 13
M TOR 56 6 5 4 14
M TOR 57 7 6 2 11
M TOR 58 7 6 5 15
M TOR 59 7 8 3 12
M TOR 60 8 3 2 11
M TOR 61 8 3 4 13
M TOR 62 8 3 4 14
M TOR 63 8 7 6 16
M  END
$$$$
