
     RDKit          3D

 19 20  0  0  0  0  0  0  0  0999 V2000
    0.3590    0.3331    0.6974 O   0  0  0  0  0  0  0  0  0  0  0  0
    0.1377    1.7300    0.5179 C   0  0  0  0  0  0  0  0  0  0  0  0
   -1.3654    2.0670    0.5140 C   0  0  0  0  0  0  0  0  0  0  0  0
   -1.8728    2.1002    1.9386 C   0  0  0  0  0  0  0  0  0  0  0  0
   -3.1579    1.5053    2.3146 C   0  0  0  0  0  0  0  0  0  0  0  0
   -1.9387    0.7969    2.5682 O   0  0  0  0  0  0  0  0  0  0  0  0
   -1.2145    3.1661    2.7902 C   0  0  0  0  0  0  0  0  0  0  0  0
    0.2780    3.1828    2.5628 C   0  0  0  0  0  0  0  0  0  0  0  0
    0.8773    2.5421    1.5594 C   0  0  0  0  0  0  0  0  0  0  0  0
   -0.1255    0.0752    1.4920 H   0  0  0  0  0  0  0  0  0  0  0  0
    0.5556    1.9502   -0.4713 H   0  0  0  0  0  0  0  0  0  0  0  0
   -1.5255    3.0477    0.0495 H   0  0  0  0  0  0  0  0  0  0  0  0
   -1.8982    1.3163   -0.0759 H   0  0  0  0  0  0  0  0  0  0  0  0
   -3.6776    1.8557    3.2058 H   0  0  0  0  0  0  0  0  0  0  0  0
   -3.7989    1.0749    1.5460 H   0  0  0  0  0  0  0  0  0  0  0  0
   -1.6458    4.1521    2.5609 H   0  0  0  0  0  0  0  0  0  0  0  0
   -1.4350    2.9700    3.8456 H   0  0  0  0  0  0  0  0  0  0  0  0
    0.8709    3.7455    3.2800 H   0  0  0  0  0  0  0  0  0  0  0  0
    1.9605    2.5551    1.4734 H   0  0  0  0  0  0  0  0  0  0  0  0
  1  2  1  0
  2  3  1  0
  3  4  1  0
  4  5  1  0
  5  6  1  0
  4  7  1  0
  7  8  1  0
  8  9  2  0
  9  2  1  0
  6  4  1  0
  1 10  1  0
  2 11  1  0
  3 12  1  0
  3 13  1  0
  5 14  1  0
  5 15  1  0
  7 16  1  0
  7 17  1  0
  8 18  1  0
  9 19  1  0
M  END
$$$$
