
     RDKit          3D

 19 21  0  0  0  0  0  0  0  0999 V2000
    1.3238   -0.0457   -0.1518 C   0  0  0  0  0  0  0  0  0  0  0  0
   -0.0666    0.1166    0.0144 O   0  0  0  0  0  0  0  0  0  0  0  0
   -0.4195    0.6809    1.2490 C   0  0  0  0  0  0  0  0  0  0  0  0
   -0.2204    2.1764    1.5266 C   0  0  0  0  0  0  0  0  0  0  0  0
   -1.4117    2.9178    0.9242 C   0  0  0  0  0  0  0  0  0  0  0  0
   -1.5400    2.2257    2.2675 C   0  0  0  0  0  0  0  0  0  0  0  0
   -1.9262    0.9330    1.4351 C   0  0  0  0  0  0  0  0  0  0  0  0
   -2.3110    1.8754    0.2548 C   0  0  0  0  0  0  0  0  0  0  0  0
   -3.6737    2.2350    0.2192 O   0  0  0  0  0  0  0  0  0  0  0  0
    1.7544   -0.6885    0.6324 H   0  0  0  0  0  0  0  0  0  0  0  0
    1.4840   -0.5200   -1.1228 H   0  0  0  0  0  0  0  0  0  0  0  0
    1.8548    0.9178   -0.1372 H   0  0  0  0  0  0  0  0  0  0  0  0
   -0.0006    0.0898    2.0788 H   0  0  0  0  0  0  0  0  0  0  0  0
    0.6909    2.7001    1.7862 H   0  0  0  0  0  0  0  0  0  0  0  0
   -1.3639    3.9800    0.7176 H   0  0  0  0  0  0  0  0  0  0  0  0
   -1.7679    2.5744    3.2631 H   0  0  0  0  0  0  0  0  0  0  0  0
   -2.6037    0.1349    1.7307 H   0  0  0  0  0  0  0  0  0  0  0  0
   -2.0589    1.5309   -0.7499 H   0  0  0  0  0  0  0  0  0  0  0  0
   -3.8968    2.6113    1.0794 H   0  0  0  0  0  0  0  0  0  0  0  0
  1  2  1  0
  2  3  1  0
  3  4  1  0
  4  5  1  0
  5  6  1  0
  6  7  1  0
  7  8  1  0
  8  9  1  0
  7  3  1  0
  6  4  1  0
  8  5  1  0
  1 10  1  0
  1 11  1  0
  1 12  1  0
  3 13  1  0
  4 14  1  0
  5 15  1  0
  6 16  1  0
  7 17  1  0
  8 18  1  0
  9 19  1  0
M  END
$$$$
