gdb 4945	2.458778	1.5932869	1.1746187	1.0875	74.9	-0.2267	0.06318	0.28988	1108.6054	0.154532	-422.458084	-422.449253	-422.448309	-422.491297	33.115
 OpenBabel02181911413D

 19 21  0  0  1  0  0  0  0  0999 V2000
    1.4794    0.0789    0.0287 C   0  0  0  0  0  0  0  0  0  0  0  0
    0.0635   -0.0529    0.0462 O   0  0  0  0  0  0  0  0  0  0  0  0
   -0.5247    0.6038    1.1017 C   0  0  1  0  0  0  0  0  0  0  0  0
   -0.8738    2.0736    1.1216 C   0  0  1  0  0  0  0  0  0  0  0  0
   -0.7905    2.8277   -0.1893 C   0  0  0  0  0  0  0  0  0  0  0  0
   -1.9715    1.0210    1.2282 C   0  0  2  0  0  0  0  0  0  0  0  0
   -2.0069    0.3622    2.6423 C   0  0  2  0  0  0  0  0  0  0  0  0
   -1.0029    0.9558    3.4861 O   0  0  0  0  0  0  0  0  0  0  0  0
   -0.6109   -0.0436    2.5373 C   0  0  2  0  0  0  0  0  0  0  0  0
    1.9333   -0.3243    0.9445 H   0  0  0  0  0  0  0  0  0  0  0  0
    1.8401   -0.4936   -0.8283 H   0  0  0  0  0  0  0  0  0  0  0  0
    1.7835    1.1277   -0.0791 H   0  0  0  0  0  0  0  0  0  0  0  0
   -0.6435    2.6501    2.0107 H   0  0  0  0  0  0  0  0  0  0  0  0
   -0.9538    2.1656   -1.0443 H   0  0  0  0  0  0  0  0  0  0  0  0
   -1.5401    3.6251   -0.2256 H   0  0  0  0  0  0  0  0  0  0  0  0
    0.1934    3.2933   -0.3112 H   0  0  0  0  0  0  0  0  0  0  0  0
   -2.7659    0.9356    0.4987 H   0  0  0  0  0  0  0  0  0  0  0  0
   -2.8563   -0.1000    3.1300 H   0  0  0  0  0  0  0  0  0  0  0  0
   -0.0789   -0.9177    2.8947 H   0  0  0  0  0  0  0  0  0  0  0  0
  1  2  1  0  0  0  0
  1 10  1  0  0  0  0
  3  2  1  6  0  0  0
  3  4  1  0  0  0  0
  3  6  1  0  0  0  0
  3  9  1  0  0  0  0
  4  6  1  0  0  0  0
  4 13  1  1  0  0  0
  5  4  1  0  0  0  0
  6 17  1  6  0  0  0
  6  7  1  0  0  0  0
  7 18  1  1  0  0  0
  7  8  1  0  0  0  0
  9  7  1  0  0  0  0
  9 19  1  1  0  0  0
  9  8  1  0  0  0  0
 11  1  1  0  0  0  0
 12  1  1  0  0  0  0
 14  5  1  0  0  0  0
 15  5  1  0  0  0  0
 16  5  1  0  0  0  0
M TOR 0 0 1 2 3
M TOR 1 0 1 2 5
M TOR 2 0 1 2 8
M TOR 3 1 2 3 4
M TOR 4 1 2 3 5
M TOR 5 1 2 3 12
M TOR 6 1 2 5 6
M TOR 7 1 2 5 16
M TOR 8 1 2 8 6
M TOR 9 1 2 8 7
M TOR 10 1 2 8 18
M TOR 11 2 1 0 9
M TOR 12 2 1 0 10
M TOR 13 2 1 0 11
M TOR 14 2 3 4 13
M TOR 15 2 3 4 14
M TOR 16 2 3 4 15
M TOR 17 2 3 5 6
M TOR 18 2 3 5 16
M TOR 19 2 5 3 4
M TOR 20 2 5 3 12
M TOR 21 2 5 6 7
M TOR 22 2 5 6 8
M TOR 23 2 5 6 17
M TOR 24 2 8 6 7
M TOR 25 2 8 6 17
M TOR 26 3 2 8 6
M TOR 27 3 2 8 7
M TOR 28 3 2 8 18
M TOR 29 3 5 2 8
M TOR 30 3 5 6 7
M TOR 31 3 5 6 8
M TOR 32 3 5 6 17
M TOR 33 4 3 2 8
M TOR 34 4 3 5 6
M TOR 35 4 3 5 16
M TOR 36 5 2 8 7
M TOR 37 5 2 8 18
M TOR 38 5 3 4 13
M TOR 39 5 3 4 14
M TOR 40 5 3 4 15
M TOR 41 5 6 7 8
M TOR 42 5 6 8 18
M TOR 43 6 5 3 12
M TOR 44 6 7 8 18
M TOR 45 7 6 5 16
M TOR 46 7 8 6 17
M TOR 47 8 2 3 12
M TOR 48 8 2 5 16
M TOR 49 8 6 5 16
M  END
$$$$
