gdb 2275	2.494156	2.1746867	1.5640969	1.4677	73.32	-0.2465	0.08909	0.33559	920.8804	0.158761	-422.563148	-422.55601	-422.555065	-422.594117	29.442
 OpenBabel02181911413D

 19 21  0  0  1  0  0  0  0  0999 V2000
   -0.0524    0.1325   -0.0328 C   0  0  0  0  0  0  0  0  0  0  0  0
    1.4409   -0.0394    0.0253 C   0  0  2  0  0  0  0  0  0  0  0  0
    2.1043    1.1888   -0.3298 O   0  0  0  0  0  0  0  0  0  0  0  0
    3.3819    0.7815   -0.8442 C   0  0  0  0  0  0  0  0  0  0  0  0
    3.3160   -0.7561   -0.6786 C   0  0  2  0  0  0  0  0  0  0  0  0
    1.9212   -0.9653   -0.9426 O   0  0  0  0  0  0  0  0  0  0  0  0
    3.4301   -1.0436    0.8192 C   0  0  2  0  0  0  0  0  0  0  0  0
    2.4231   -1.9950    1.4103 C   0  0  0  0  0  0  0  0  0  0  0  0
    2.0960   -0.5264    1.3252 C   0  0  2  0  0  0  0  0  0  0  0  0
   -0.3612    0.9123    0.6676 H   0  0  0  0  0  0  0  0  0  0  0  0
   -0.3550    0.4245   -1.0407 H   0  0  0  0  0  0  0  0  0  0  0  0
   -0.5496   -0.8015    0.2397 H   0  0  0  0  0  0  0  0  0  0  0  0
    3.4677    1.0819   -1.8948 H   0  0  0  0  0  0  0  0  0  0  0  0
    4.1930    1.2391   -0.2668 H   0  0  0  0  0  0  0  0  0  0  0  0
    3.9248   -1.3450   -1.3640 H   0  0  0  0  0  0  0  0  0  0  0  0
    4.3622   -0.8321    1.3289 H   0  0  0  0  0  0  0  0  0  0  0  0
    1.9055   -2.6895    0.7587 H   0  0  0  0  0  0  0  0  0  0  0  0
    2.6545   -2.3771    2.3985 H   0  0  0  0  0  0  0  0  0  0  0  0
    2.0061    0.0876    2.2121 H   0  0  0  0  0  0  0  0  0  0  0  0
  1 12  1  0  0  0  0
  1 10  1  0  0  0  0
  2  1  1  1  0  0  0
  2  9  1  0  0  0  0
  3  2  1  0  0  0  0
  4  5  1  0  0  0  0
  4  3  1  0  0  0  0
  4 14  1  0  0  0  0
  5 15  1  6  0  0  0
  5  7  1  0  0  0  0
  6  5  1  0  0  0  0
  6  2  1  0  0  0  0
  7  9  1  0  0  0  0
  7 16  1  1  0  0  0
  7  8  1  0  0  0  0
  8 18  1  0  0  0  0
  9  8  1  0  0  0  0
  9 19  1  1  0  0  0
 11  1  1  0  0  0  0
 13  4  1  0  0  0  0
 17  8  1  0  0  0  0
M TOR 0 0 1 2 3
M TOR 1 0 1 5 4
M TOR 2 0 1 8 6
M TOR 3 0 1 8 7
M TOR 4 0 1 8 18
M TOR 5 1 2 3 4
M TOR 6 1 2 3 12
M TOR 7 1 2 3 13
M TOR 8 1 5 4 3
M TOR 9 1 5 4 6
M TOR 10 1 5 4 14
M TOR 11 1 8 6 4
M TOR 12 1 8 6 7
M TOR 13 1 8 6 15
M TOR 14 1 8 7 16
M TOR 15 1 8 7 17
M TOR 16 2 1 0 9
M TOR 17 2 1 0 10
M TOR 18 2 1 0 11
M TOR 19 2 1 5 4
M TOR 20 2 1 8 6
M TOR 21 2 1 8 7
M TOR 22 2 1 8 18
M TOR 23 2 3 4 5
M TOR 24 2 3 4 6
M TOR 25 2 3 4 14
M TOR 26 3 2 1 5
M TOR 27 3 2 1 8
M TOR 28 3 4 6 7
M TOR 29 3 4 6 8
M TOR 30 3 4 6 15
M TOR 31 4 5 1 8
M TOR 32 4 6 7 8
M TOR 33 4 6 7 16
M TOR 34 4 6 7 17
M TOR 35 4 6 8 18
M TOR 36 5 1 0 9
M TOR 37 5 1 0 10
M TOR 38 5 1 0 11
M TOR 39 5 1 8 6
M TOR 40 5 1 8 7
M TOR 41 5 1 8 18
M TOR 42 5 4 3 12
M TOR 43 5 4 3 13
M TOR 44 5 4 6 7
M TOR 45 5 4 6 8
M TOR 46 5 4 6 15
M TOR 47 6 4 3 12
M TOR 48 6 4 3 13
M TOR 49 6 7 8 18
M TOR 50 6 8 7 16
M TOR 51 6 8 7 17
M TOR 52 7 6 4 14
M TOR 53 7 8 6 15
M TOR 54 8 1 0 9
M TOR 55 8 1 0 10
M TOR 56 8 1 0 11
M TOR 57 8 6 4 14
M  END
$$$$
