gdb 4709	1.9156023	1.3523995	0.8311585	2.5242	78.43	-0.25819	-0.03558	0.22260999999999997	1371.101	0.152628	-422.535825	-422.525168	-422.524224	-422.571998	37.553
 OpenBabel02181911413D

 19 18  0  0  1  0  0  0  0  0999 V2000
    2.7040   -2.5473    0.5908 C   0  0  0  0  0  0  0  0  0  0  0  0
    2.9525   -1.4773   -0.4737 C   0  0  0  0  0  0  0  0  0  0  0  0
    2.6717   -0.0434    0.0300 C   0  0  2  0  0  0  0  0  0  0  0  0
    1.2573    0.1590    0.3389 C   0  0  0  0  0  0  0  0  0  0  0  0
    0.0892    0.3666    0.5435 C   0  0  0  0  0  0  0  0  0  0  0  0
    3.1099    1.0431   -1.0111 C   0  0  1  0  0  0  0  0  0  0  0  0
    2.6448    2.3307   -0.6832 O   0  0  0  0  0  0  0  0  0  0  0  0
    4.6295    1.1555   -1.0512 C   0  0  0  0  0  0  0  0  0  0  0  0
    5.3675    0.3290   -1.5205 O   0  0  0  0  0  0  0  0  0  0  0  0
    3.3566   -2.4021    1.4587 H   0  0  0  0  0  0  0  0  0  0  0  0
    1.6681   -2.5259    0.9429 H   0  0  0  0  0  0  0  0  0  0  0  0
    2.9037   -3.5448    0.1887 H   0  0  0  0  0  0  0  0  0  0  0  0
    3.9884   -1.5176   -0.8207 H   0  0  0  0  0  0  0  0  0  0  0  0
    2.3195   -1.6648   -1.3491 H   0  0  0  0  0  0  0  0  0  0  0  0
    3.2465    0.1286    0.9516 H   0  0  0  0  0  0  0  0  0  0  0  0
   -0.9414    0.5209    0.7507 H   0  0  0  0  0  0  0  0  0  0  0  0
    2.7601    0.7176   -2.0035 H   0  0  0  0  0  0  0  0  0  0  0  0
    1.7116    2.2528   -0.4466 H   0  0  0  0  0  0  0  0  0  0  0  0
    5.0032    2.0920   -0.5825 H   0  0  0  0  0  0  0  0  0  0  0  0
  1 11  1  0  0  0  0
  1 10  1  0  0  0  0
  2  3  1  0  0  0  0
  2  1  1  0  0  0  0
  3  4  1  0  0  0  0
  3 15  1  1  0  0  0
  4  5  3  0  0  0  0
  5 16  1  0  0  0  0
  6 17  1  6  0  0  0
  6  7  1  0  0  0  0
  6  3  1  0  0  0  0
  7 18  1  0  0  0  0
  8  6  1  0  0  0  0
  8 19  1  0  0  0  0
  9  8  2  0  0  0  0
 12  1  1  0  0  0  0
 13  2  1  0  0  0  0
 14  2  1  0  0  0  0
M TOR 0 0 1 2 3
M TOR 1 0 1 2 5
M TOR 2 0 1 2 14
M TOR 3 1 2 3 4
M TOR 4 1 2 5 6
M TOR 5 1 2 5 7
M TOR 6 1 2 5 16
M TOR 7 2 1 0 9
M TOR 8 2 1 0 10
M TOR 9 2 1 0 11
M TOR 10 2 3 4 15
M TOR 11 2 5 6 17
M TOR 12 2 5 7 8
M TOR 13 2 5 7 18
M TOR 14 3 2 1 12
M TOR 15 3 2 1 13
M TOR 16 3 2 5 6
M TOR 17 3 2 5 7
M TOR 18 3 2 5 16
M TOR 19 4 3 2 5
M TOR 20 4 3 2 14
M TOR 21 5 2 1 12
M TOR 22 5 2 1 13
M TOR 23 6 5 2 14
M TOR 24 6 5 7 8
M TOR 25 6 5 7 18
M TOR 26 7 5 2 14
M TOR 27 7 5 6 17
M TOR 28 8 7 5 16
M  END
$$$$
