
     RDKit          3D

 19 19  0  0  0  0  0  0  0  0999 V2000
    4.4549   -1.3771   -0.1087 C   0  0  0  0  0  0  0  0  0  0  0  0
    3.8463    0.0345    0.0236 C   0  0  0  0  0  0  0  0  0  0  0  0
    2.3849   -0.0064    0.0610 C   0  0  0  0  0  0  0  0  0  0  0  0
    1.1818   -0.0609    0.1100 C   0  0  0  0  0  0  0  0  0  0  0  0
   -0.2798   -0.0697    0.1709 C   0  0  0  0  0  0  0  0  0  0  0  0
   -0.8805    1.0763   -0.4172 O   0  0  0  0  0  0  0  0  0  0  0  0
    4.3906    0.7369    1.2606 C   0  0  0  0  0  0  0  0  0  0  0  0
    4.7188    2.1648    1.2638 C   0  0  0  0  0  0  0  0  0  0  0  0
    5.7464    1.1707    1.1807 O   0  0  0  0  0  0  0  0  0  0  0  0
    4.1662   -2.0039    0.7404 H   0  0  0  0  0  0  0  0  0  0  0  0
    4.1074   -1.8634   -1.0233 H   0  0  0  0  0  0  0  0  0  0  0  0
    5.5454   -1.3053   -0.1362 H   0  0  0  0  0  0  0  0  0  0  0  0
    4.1623    0.6256   -0.8464 H   0  0  0  0  0  0  0  0  0  0  0  0
   -0.6751   -0.9285   -0.3832 H   0  0  0  0  0  0  0  0  0  0  0  0
   -0.5990   -0.1961    1.2181 H   0  0  0  0  0  0  0  0  0  0  0  0
   -0.4612    1.8511   -0.0288 H   0  0  0  0  0  0  0  0  0  0  0  0
    4.1219    0.2646    2.2070 H   0  0  0  0  0  0  0  0  0  0  0  0
    4.5643    2.7514    0.3591 H   0  0  0  0  0  0  0  0  0  0  0  0
    4.6889    2.7289    2.1946 H   0  0  0  0  0  0  0  0  0  0  0  0
  1  2  1  0
  2  3  1  0
  3  4  3  0
  4  5  1  0
  5  6  1  0
  2  7  1  0
  7  8  1  0
  8  9  1  0
  9  7  1  0
  1 10  1  0
  1 11  1  0
  1 12  1  0
  2 13  1  0
  5 14  1  0
  5 15  1  0
  6 16  1  0
  7 17  1  0
  8 18  1  0
  8 19  1  0
M  END
$$$$
