gdb 5079	2.956616	1.277927	1.0334707	2.6083	76.29	-0.23601	-0.02434	0.21167	1228.7179	0.15455	-422.541294	-422.531865	-422.53092	-422.575743	33.955
 OpenBabel02181911423D

 19 20  0  0  1  0  0  0  0  0999 V2000
    1.3551   -0.3492    1.0158 C   0  0  0  0  0  0  0  0  0  0  0  0
    0.8722    0.1683   -0.3475 C   0  0  0  0  0  0  0  0  0  0  0  0
    1.7156   -0.3422   -1.4704 C   0  0  1  0  0  0  0  0  0  0  0  0
    1.5671   -1.7273   -1.8935 O   0  0  0  0  0  0  0  0  0  0  0  0
    1.4559   -0.7108   -2.8873 C   0  0  2  0  0  0  0  0  0  0  0  0
    2.8917   -0.4007   -3.3507 C   0  0  2  0  0  0  0  0  0  0  0  0
    3.7112   -1.5090   -3.9969 C   0  0  0  0  0  0  0  0  0  0  0  0
    3.1612   -0.0178   -1.8578 C   0  0  0  0  0  0  0  0  0  0  0  0
    4.0904    0.4692   -1.2839 O   0  0  0  0  0  0  0  0  0  0  0  0
    1.3097   -1.4414    1.0520 H   0  0  0  0  0  0  0  0  0  0  0  0
    2.3893   -0.0450    1.2000 H   0  0  0  0  0  0  0  0  0  0  0  0
    0.7318    0.0463    1.8225 H   0  0  0  0  0  0  0  0  0  0  0  0
   -0.1670   -0.1299   -0.5258 H   0  0  0  0  0  0  0  0  0  0  0  0
    0.9012    1.2646   -0.3629 H   0  0  0  0  0  0  0  0  0  0  0  0
    0.5245   -0.6365   -3.4365 H   0  0  0  0  0  0  0  0  0  0  0  0
    2.9366    0.5263   -3.9376 H   0  0  0  0  0  0  0  0  0  0  0  0
    3.5843   -2.4442   -3.4462 H   0  0  0  0  0  0  0  0  0  0  0  0
    3.4093   -1.6724   -5.0364 H   0  0  0  0  0  0  0  0  0  0  0  0
    4.7736   -1.2474   -3.9910 H   0  0  0  0  0  0  0  0  0  0  0  0
  1 10  1  0  0  0  0
  1 11  1  0  0  0  0
  1 12  1  0  0  0  0
  2  1  1  0  0  0  0
  3  2  1  1  0  0  0
  4  3  1  0  0  0  0
  5 15  1  6  0  0  0
  5  4  1  0  0  0  0
  5  3  1  0  0  0  0
  6 16  1  6  0  0  0
  6  5  1  0  0  0  0
  6  8  1  0  0  0  0
  7 19  1  0  0  0  0
  7 17  1  0  0  0  0
  7  6  1  0  0  0  0
  8  3  1  0  0  0  0
  8  9  2  0  0  0  0
 13  2  1  0  0  0  0
 14  2  1  0  0  0  0
 18  7  1  0  0  0  0
M TOR 0 0 1 2 3
M TOR 1 0 1 2 4
M TOR 2 0 1 2 7
M TOR 3 1 2 3 4
M TOR 4 1 2 4 5
M TOR 5 1 2 4 14
M TOR 6 1 2 7 5
M TOR 7 1 2 7 8
M TOR 8 2 1 0 9
M TOR 9 2 1 0 10
M TOR 10 2 1 0 11
M TOR 11 2 3 4 5
M TOR 12 2 3 4 14
M TOR 13 2 4 5 6
M TOR 14 2 4 5 7
M TOR 15 2 4 5 15
M TOR 16 2 7 5 6
M TOR 17 2 7 5 15
M TOR 18 3 2 1 12
M TOR 19 3 2 1 13
M TOR 20 3 2 7 5
M TOR 21 3 2 7 8
M TOR 22 3 4 2 7
M TOR 23 3 4 5 6
M TOR 24 3 4 5 7
M TOR 25 3 4 5 15
M TOR 26 4 2 1 12
M TOR 27 4 2 1 13
M TOR 28 4 2 7 8
M TOR 29 4 5 6 16
M TOR 30 4 5 6 17
M TOR 31 4 5 6 18
M TOR 32 4 5 7 8
M TOR 33 6 5 4 14
M TOR 34 6 5 7 8
M TOR 35 7 2 1 12
M TOR 36 7 2 1 13
M TOR 37 7 2 4 14
M TOR 38 7 5 4 14
M TOR 39 7 5 6 16
M TOR 40 7 5 6 17
M TOR 41 7 5 6 18
M TOR 42 8 7 5 15
M  END
$$$$
