gdb 2915	2.1872144	1.9574388	1.7309955	2.2098	73.48	-0.24632	0.0873	0.33362	936.6323	0.157813	-422.544215	-422.53649	-422.535546	-422.575814	30.989
 OpenBabel02181911413D

 19 21  0  0  1  0  0  0  0  0999 V2000
    1.4406   -0.3948   -3.2222 C   0  0  0  0  0  0  0  0  0  0  0  0
    0.5326    0.3447   -2.2740 C   0  0  1  0  0  0  0  0  0  0  0  0
    0.9576    1.7200   -2.1842 O   0  0  0  0  0  0  0  0  0  0  0  0
   -0.1347    2.5052   -1.6796 C   0  0  0  0  0  0  0  0  0  0  0  0
   -1.3155    1.5547   -1.6125 C   0  0  2  0  0  0  0  0  0  0  0  0
   -1.1420    0.2200   -0.9164 C   0  0  1  0  0  0  0  0  0  0  0  0
   -1.0027    0.3480   -2.4386 C   0  0  2  0  0  0  0  0  0  0  0  0
    0.3358   -0.1757   -0.8098 C   0  0  2  0  0  0  0  0  0  0  0  0
    1.1675    0.3755    0.1748 O   0  0  0  0  0  0  0  0  0  0  0  0
    2.4732   -0.3647   -2.8616 H   0  0  0  0  0  0  0  0  0  0  0  0
    1.1357   -1.4416   -3.3058 H   0  0  0  0  0  0  0  0  0  0  0  0
    1.4120    0.0599   -4.2171 H   0  0  0  0  0  0  0  0  0  0  0  0
    0.1289    2.9270   -0.7015 H   0  0  0  0  0  0  0  0  0  0  0  0
   -0.3250    3.3335   -2.3736 H   0  0  0  0  0  0  0  0  0  0  0  0
   -2.3187    1.9647   -1.6257 H   0  0  0  0  0  0  0  0  0  0  0  0
   -1.9576   -0.2201   -0.3545 H   0  0  0  0  0  0  0  0  0  0  0  0
   -1.5927   -0.0609   -3.2470 H   0  0  0  0  0  0  0  0  0  0  0  0
    0.4202   -1.2674   -0.7643 H   0  0  0  0  0  0  0  0  0  0  0  0
    1.5645    1.1584   -0.2315 H   0  0  0  0  0  0  0  0  0  0  0  0
  1 10  1  0  0  0  0
  2  1  1  6  0  0  0
  2  3  1  0  0  0  0
  2  8  1  0  0  0  0
  3  4  1  0  0  0  0
  4  5  1  0  0  0  0
  4 13  1  0  0  0  0
  5 15  1  6  0  0  0
  5  6  1  0  0  0  0
  6  8  1  0  0  0  0
  6 16  1  1  0  0  0
  7 17  1  6  0  0  0
  7  2  1  0  0  0  0
  7  5  1  0  0  0  0
  7  6  1  0  0  0  0
  8 18  1  1  0  0  0
  8  9  1  0  0  0  0
 11  1  1  0  0  0  0
 12  1  1  0  0  0  0
 14  4  1  0  0  0  0
 19  9  1  0  0  0  0
M TOR 0 0 1 2 3
M TOR 1 0 1 6 4
M TOR 2 0 1 6 5
M TOR 3 0 1 6 16
M TOR 4 0 1 7 5
M TOR 5 0 1 7 8
M TOR 6 0 1 7 17
M TOR 7 1 2 3 4
M TOR 8 1 2 3 12
M TOR 9 1 2 3 13
M TOR 10 1 6 4 3
M TOR 11 1 6 4 5
M TOR 12 1 6 4 14
M TOR 13 1 6 5 7
M TOR 14 1 6 5 15
M TOR 15 1 7 5 4
M TOR 16 1 7 5 15
M TOR 17 1 7 8 18
M TOR 18 2 1 0 9
M TOR 19 2 1 0 10
M TOR 20 2 1 0 11
M TOR 21 2 1 6 4
M TOR 22 2 1 6 5
M TOR 23 2 1 6 16
M TOR 24 2 1 7 5
M TOR 25 2 1 7 8
M TOR 26 2 1 7 17
M TOR 27 2 3 4 5
M TOR 28 2 3 4 6
M TOR 29 2 3 4 14
M TOR 30 3 2 1 6
M TOR 31 3 2 1 7
M TOR 32 3 4 5 6
M TOR 33 3 4 5 7
M TOR 34 3 4 5 15
M TOR 35 3 4 6 16
M TOR 36 4 5 6 16
M TOR 37 4 5 7 8
M TOR 38 4 5 7 17
M TOR 39 4 6 1 7
M TOR 40 4 6 5 7
M TOR 41 4 6 5 15
M TOR 42 5 4 3 12
M TOR 43 5 4 3 13
M TOR 44 5 6 4 14
M TOR 45 5 7 8 18
M TOR 46 6 1 0 9
M TOR 47 6 1 0 10
M TOR 48 6 1 0 11
M TOR 49 6 1 7 8
M TOR 50 6 1 7 17
M TOR 51 6 4 3 12
M TOR 52 6 4 3 13
M TOR 53 6 5 7 8
M TOR 54 6 5 7 17
M TOR 55 7 1 0 9
M TOR 56 7 1 0 10
M TOR 57 7 1 0 11
M TOR 58 7 1 6 16
M TOR 59 7 5 4 14
M TOR 60 7 5 6 16
M TOR 61 8 7 5 15
M  END
$$$$
