gdb 3922	3.0333532	1.6629666	1.379005	2.7152	76.39	-0.2341	0.06886	0.30296	995.0863	0.155682	-422.43006	-422.422001	-422.421057	-422.461856	32.428
 OpenBabel02181911413D

 19 21  0  0  1  0  0  0  0  0999 V2000
   -0.0053   -0.0161    0.0941 C   0  0  0  0  0  0  0  0  0  0  0  0
    1.5013   -0.0869    0.1001 C   0  0  2  0  0  0  0  0  0  0  0  0
    2.0219   -0.8587   -1.0761 O   0  0  0  0  0  0  0  0  0  0  0  0
    2.9785   -1.4093   -0.1736 C   0  0  2  0  0  0  0  0  0  0  0  0
    4.1569   -0.5297    0.3606 C   0  0  0  0  0  0  0  0  0  0  0  0
    3.6876   -1.4017    1.5321 C   0  0  2  0  0  0  0  0  0  0  0  0
    3.6562   -2.6410    0.4952 C   0  0  0  0  0  0  0  0  0  0  0  0
    2.1940   -1.1389    1.0843 C   0  0  1  0  0  0  0  0  0  0  0  0
    1.2703   -2.1231    1.4951 O   0  0  0  0  0  0  0  0  0  0  0  0
   -0.3564    0.5655    0.9539 H   0  0  0  0  0  0  0  0  0  0  0  0
   -0.3452    0.4852   -0.8174 H   0  0  0  0  0  0  0  0  0  0  0  0
   -0.4395   -1.0146    0.1394 H   0  0  0  0  0  0  0  0  0  0  0  0
    1.9449    0.9115    0.0945 H   0  0  0  0  0  0  0  0  0  0  0  0
    5.1418   -0.7589   -0.0487 H   0  0  0  0  0  0  0  0  0  0  0  0
    3.9987    0.5452    0.4456 H   0  0  0  0  0  0  0  0  0  0  0  0
    4.1100   -1.4400    2.5384 H   0  0  0  0  0  0  0  0  0  0  0  0
    4.6314   -2.9626    0.1211 H   0  0  0  0  0  0  0  0  0  0  0  0
    3.0075   -3.4704    0.7638 H   0  0  0  0  0  0  0  0  0  0  0  0
    1.0466   -1.9384    2.4119 H   0  0  0  0  0  0  0  0  0  0  0  0
  1  2  1  0  0  0  0
  1 12  1  0  0  0  0
  1 10  1  0  0  0  0
  2 13  1  1  0  0  0
  2  8  1  0  0  0  0
  3  2  1  0  0  0  0
  4  3  1  6  0  0  0
  4  5  1  0  0  0  0
  4  7  1  0  0  0  0
  4  8  1  0  0  0  0
  5 15  1  0  0  0  0
  5  6  1  0  0  0  0
  6 16  1  1  0  0  0
  7 18  1  0  0  0  0
  7  6  1  0  0  0  0
  8  9  1  1  0  0  0
  8  6  1  0  0  0  0
  9 19  1  0  0  0  0
 11  1  1  0  0  0  0
 14  5  1  0  0  0  0
 17  7  1  0  0  0  0
M TOR 0 0 1 2 3
M TOR 1 0 1 7 3
M TOR 2 0 1 7 5
M TOR 3 0 1 7 8
M TOR 4 1 2 3 4
M TOR 5 1 2 3 6
M TOR 6 1 2 3 7
M TOR 7 1 7 3 4
M TOR 8 1 7 3 6
M TOR 9 1 7 5 4
M TOR 10 1 7 5 6
M TOR 11 1 7 5 15
M TOR 12 1 7 8 18
M TOR 13 2 1 0 9
M TOR 14 2 1 0 10
M TOR 15 2 1 0 11
M TOR 16 2 1 7 5
M TOR 17 2 1 7 8
M TOR 18 2 3 4 5
M TOR 19 2 3 4 13
M TOR 20 2 3 4 14
M TOR 21 2 3 6 5
M TOR 22 2 3 6 16
M TOR 23 2 3 6 17
M TOR 24 2 3 7 5
M TOR 25 2 3 7 8
M TOR 26 3 2 1 12
M TOR 27 3 4 5 6
M TOR 28 3 4 5 7
M TOR 29 3 4 5 15
M TOR 30 3 6 5 7
M TOR 31 3 6 5 15
M TOR 32 3 7 1 12
M TOR 33 3 7 5 15
M TOR 34 3 7 8 18
M TOR 35 4 3 6 16
M TOR 36 4 3 6 17
M TOR 37 4 3 7 8
M TOR 38 4 5 6 16
M TOR 39 4 5 6 17
M TOR 40 4 5 7 8
M TOR 41 5 7 1 12
M TOR 42 5 7 8 18
M TOR 43 6 3 4 13
M TOR 44 6 3 4 14
M TOR 45 6 3 7 8
M TOR 46 6 5 4 13
M TOR 47 6 5 4 14
M TOR 48 6 5 7 8
M TOR 49 7 1 0 9
M TOR 50 7 1 0 10
M TOR 51 7 1 0 11
M TOR 52 7 3 4 13
M TOR 53 7 3 4 14
M TOR 54 7 3 6 16
M TOR 55 7 3 6 17
M TOR 56 7 5 4 13
M TOR 57 7 5 4 14
M TOR 58 7 5 6 16
M TOR 59 7 5 6 17
M TOR 60 8 7 1 12
M TOR 61 8 7 5 15
M  END
$$$$
