
     RDKit          3D

 19 19  0  0  0  0  0  0  0  0999 V2000
   -2.2489    3.0772   -0.7714 C   0  0  0  0  0  0  0  0  0  0  0  0
   -2.6464    2.4555    0.4395 O   0  0  0  0  0  0  0  0  0  0  0  0
   -3.3312    1.2720    0.2358 C   0  0  0  0  0  0  0  0  0  0  0  0
   -3.3074    0.2737    1.3479 C   0  0  0  0  0  0  0  0  0  0  0  0
   -2.5786   -0.0324    0.0360 C   0  0  0  0  0  0  0  0  0  0  0  0
   -3.2173   -0.9091   -0.8573 O   0  0  0  0  0  0  0  0  0  0  0  0
   -1.1411   -0.0505    0.0242 C   0  0  0  0  0  0  0  0  0  0  0  0
    0.0623   -0.1165   -0.0049 C   0  0  0  0  0  0  0  0  0  0  0  0
    1.5158   -0.1797   -0.0405 C   0  0  0  0  0  0  0  0  0  0  0  0
   -1.5659    2.4369   -1.3436 H   0  0  0  0  0  0  0  0  0  0  0  0
   -3.1187    3.3206   -1.3997 H   0  0  0  0  0  0  0  0  0  0  0  0
   -1.7367    4.0028   -0.4999 H   0  0  0  0  0  0  0  0  0  0  0  0
   -4.2449    1.3509   -0.3563 H   0  0  0  0  0  0  0  0  0  0  0  0
   -2.6933    0.5146    2.2076 H   0  0  0  0  0  0  0  0  0  0  0  0
   -4.2121   -0.2902    1.5444 H   0  0  0  0  0  0  0  0  0  0  0  0
   -2.9915   -1.8084   -0.5928 H   0  0  0  0  0  0  0  0  0  0  0  0
    1.9022   -0.9778    0.6034 H   0  0  0  0  0  0  0  0  0  0  0  0
    1.8809   -0.3656   -1.0568 H   0  0  0  0  0  0  0  0  0  0  0  0
    1.9571    0.7633    0.3008 H   0  0  0  0  0  0  0  0  0  0  0  0
  1  2  1  0
  2  3  1  0
  3  4  1  0
  4  5  1  0
  5  6  1  0
  5  7  1  0
  7  8  3  0
  8  9  1  0
  5  3  1  0
  1 10  1  0
  1 11  1  0
  1 12  1  0
  3 13  1  0
  4 14  1  0
  4 15  1  0
  6 16  1  0
  9 17  1  0
  9 18  1  0
  9 19  1  0
M  END
$$$$
