gdb 1124	2.6803066	1.3487454	1.112334	2.0156	75.22	-0.23668	-0.0141	0.22258	1164.0327	0.15472	-422.547004	-422.537719	-422.536775	-422.581628	34.101
 OpenBabel02181911403D

 19 20  0  0  1  0  0  0  0  0999 V2000
   -1.0176   -2.3477   -2.6176 C   0  0  0  0  0  0  0  0  0  0  0  0
   -1.1607   -1.3587   -1.4755 C   0  0  0  0  0  0  0  0  0  0  0  0
   -2.2293   -1.1354   -0.9487 O   0  0  0  0  0  0  0  0  0  0  0  0
    0.0948   -0.6321   -1.0286 C   0  0  2  0  0  0  0  0  0  0  0  0
    1.3692   -1.4146   -0.5289 C   0  0  0  0  0  0  0  0  0  0  0  0
    1.3193   -0.6048    0.7732 C   0  0  2  0  0  0  0  0  0  0  0  0
   -0.0010   -0.8617    1.4643 C   0  0  0  0  0  0  0  0  0  0  0  0
    0.0502    0.1008    0.3126 C   0  0  2  0  0  0  0  0  0  0  0  0
   -0.2787    1.4351    0.4408 O   0  0  0  0  0  0  0  0  0  0  0  0
   -0.3688   -3.1789   -2.3191 H   0  0  0  0  0  0  0  0  0  0  0  0
   -1.9971   -2.7342   -2.9021 H   0  0  0  0  0  0  0  0  0  0  0  0
   -0.5396   -1.8702   -3.4804 H   0  0  0  0  0  0  0  0  0  0  0  0
    0.3900    0.0545   -1.8311 H   0  0  0  0  0  0  0  0  0  0  0  0
    1.2528   -2.4968   -0.4077 H   0  0  0  0  0  0  0  0  0  0  0  0
    2.2488   -1.2224   -1.1457 H   0  0  0  0  0  0  0  0  0  0  0  0
    2.1775   -0.2060    1.2985 H   0  0  0  0  0  0  0  0  0  0  0  0
   -0.4979   -1.8260    1.3891 H   0  0  0  0  0  0  0  0  0  0  0  0
   -0.1070   -0.3704    2.4261 H   0  0  0  0  0  0  0  0  0  0  0  0
   -1.2368    1.4855    0.5411 H   0  0  0  0  0  0  0  0  0  0  0  0
  1 10  1  0  0  0  0
  1  2  1  0  0  0  0
  2  4  1  0  0  0  0
  2  3  2  0  0  0  0
  4 13  1  6  0  0  0
  4  5  1  0  0  0  0
  4  8  1  0  0  0  0
  5 14  1  0  0  0  0
  5  6  1  0  0  0  0
  6 16  1  1  0  0  0
  6  7  1  0  0  0  0
  7 18  1  0  0  0  0
  8  9  1  1  0  0  0
  8  6  1  0  0  0  0
  8  7  1  0  0  0  0
  9 19  1  0  0  0  0
 11  1  1  0  0  0  0
 12  1  1  0  0  0  0
 15  5  1  0  0  0  0
 17  7  1  0  0  0  0
M TOR 0 0 1 3 4
M TOR 1 0 1 3 7
M TOR 2 0 1 3 12
M TOR 3 1 3 4 5
M TOR 4 1 3 4 13
M TOR 5 1 3 4 14
M TOR 6 1 3 7 5
M TOR 7 1 3 7 6
M TOR 8 1 3 7 8
M TOR 9 2 1 0 9
M TOR 10 2 1 0 10
M TOR 11 2 1 0 11
M TOR 12 2 1 3 4
M TOR 13 2 1 3 7
M TOR 14 2 1 3 12
M TOR 15 3 1 0 9
M TOR 16 3 1 0 10
M TOR 17 3 1 0 11
M TOR 18 3 4 5 6
M TOR 19 3 4 5 7
M TOR 20 3 4 5 15
M TOR 21 3 7 5 6
M TOR 22 3 7 5 15
M TOR 23 3 7 6 16
M TOR 24 3 7 6 17
M TOR 25 3 7 8 18
M TOR 26 4 3 7 6
M TOR 27 4 3 7 8
M TOR 28 4 5 6 7
M TOR 29 4 5 6 16
M TOR 30 4 5 6 17
M TOR 31 4 5 7 8
M TOR 32 5 4 3 12
M TOR 33 5 6 7 8
M TOR 34 5 7 3 12
M TOR 35 5 7 6 16
M TOR 36 5 7 6 17
M TOR 37 5 7 8 18
M TOR 38 6 5 4 13
M TOR 39 6 5 4 14
M TOR 40 6 7 3 12
M TOR 41 6 7 5 15
M TOR 42 6 7 8 18
M TOR 43 7 3 4 13
M TOR 44 7 3 4 14
M TOR 45 7 5 4 13
M TOR 46 7 5 4 14
M TOR 47 8 7 3 12
M TOR 48 8 7 5 15
M TOR 49 8 7 6 16
M TOR 50 8 7 6 17
M  END
$$$$
