gdb 4446	2.7723494	1.274092	1.1987325	2.9383	76.39	-0.24885	-0.02298	0.22587	1138.5275	0.15668	-422.568155	-422.559663	-422.558718	-422.601208	31.901
 OpenBabel02181911413D

 19 20  0  0  1  0  0  0  0  0999 V2000
    1.9040   -0.9404   -1.0257 C   0  0  0  0  0  0  0  0  0  0  0  0
    1.4348    0.0742    0.0169 C   0  0  2  0  0  0  0  0  0  0  0  0
    2.2042    1.2806   -0.0173 O   0  0  0  0  0  0  0  0  0  0  0  0
    3.3090    1.1606    0.8781 C   0  0  0  0  0  0  0  0  0  0  0  0
    2.8333    0.2459    1.9915 C   0  0  1  0  0  0  0  0  0  0  0  0
    1.4472    0.5463    2.5455 C   0  0  0  0  0  0  0  0  0  0  0  0
    1.5779   -0.4447    1.4428 C   0  0  1  0  0  0  0  0  0  0  0  0
    3.8012   -0.4973    2.8158 C   0  0  0  0  0  0  0  0  0  0  0  0
    5.0014   -0.4151    2.7046 O   0  0  0  0  0  0  0  0  0  0  0  0
    2.9240   -1.2807   -0.8199 H   0  0  0  0  0  0  0  0  0  0  0  0
    1.2483   -1.8176   -1.0337 H   0  0  0  0  0  0  0  0  0  0  0  0
    1.8857   -0.4876   -2.0204 H   0  0  0  0  0  0  0  0  0  0  0  0
    0.4029    0.3748   -0.2027 H   0  0  0  0  0  0  0  0  0  0  0  0
    4.1936    0.7247    0.3944 H   0  0  0  0  0  0  0  0  0  0  0  0
    3.5652    2.1699    1.2141 H   0  0  0  0  0  0  0  0  0  0  0  0
    1.2231    0.1700    3.5383 H   0  0  0  0  0  0  0  0  0  0  0  0
    1.0425    1.5274    2.3196 H   0  0  0  0  0  0  0  0  0  0  0  0
    1.3982   -1.4958    1.6389 H   0  0  0  0  0  0  0  0  0  0  0  0
    3.3370   -1.1676    3.5767 H   0  0  0  0  0  0  0  0  0  0  0  0
  1 10  1  0  0  0  0
  1  2  1  0  0  0  0
  2 13  1  6  0  0  0
  2  7  1  0  0  0  0
  3  2  1  0  0  0  0
  3  4  1  0  0  0  0
  4 15  1  0  0  0  0
  4  5  1  0  0  0  0
  5  6  1  0  0  0  0
  5  8  1  1  0  0  0
  6 16  1  0  0  0  0
  7 18  1  1  0  0  0
  7  5  1  0  0  0  0
  7  6  1  0  0  0  0
  8 19  1  0  0  0  0
  9  8  2  0  0  0  0
 11  1  1  0  0  0  0
 12  1  1  0  0  0  0
 14  4  1  0  0  0  0
 17  6  1  0  0  0  0
M TOR 0 0 1 2 3
M TOR 1 0 1 6 4
M TOR 2 0 1 6 5
M TOR 3 0 1 6 17
M TOR 4 1 2 3 4
M TOR 5 1 2 3 13
M TOR 6 1 2 3 14
M TOR 7 1 6 4 3
M TOR 8 1 6 4 5
M TOR 9 1 6 4 7
M TOR 10 1 6 5 15
M TOR 11 1 6 5 16
M TOR 12 2 1 0 9
M TOR 13 2 1 0 10
M TOR 14 2 1 0 11
M TOR 15 2 1 6 4
M TOR 16 2 1 6 5
M TOR 17 2 1 6 17
M TOR 18 2 3 4 5
M TOR 19 2 3 4 6
M TOR 20 2 3 4 7
M TOR 21 3 2 1 6
M TOR 22 3 2 1 12
M TOR 23 3 4 5 6
M TOR 24 3 4 5 15
M TOR 25 3 4 5 16
M TOR 26 3 4 6 17
M TOR 27 3 4 7 8
M TOR 28 3 4 7 18
M TOR 29 4 5 6 17
M TOR 30 4 6 1 12
M TOR 31 4 6 5 15
M TOR 32 4 6 5 16
M TOR 33 5 4 3 13
M TOR 34 5 4 3 14
M TOR 35 5 4 7 8
M TOR 36 5 4 7 18
M TOR 37 5 6 1 12
M TOR 38 5 6 4 7
M TOR 39 6 1 0 9
M TOR 40 6 1 0 10
M TOR 41 6 1 0 11
M TOR 42 6 4 3 13
M TOR 43 6 4 3 14
M TOR 44 6 4 7 8
M TOR 45 6 4 7 18
M TOR 46 7 4 3 13
M TOR 47 7 4 3 14
M TOR 48 7 4 5 15
M TOR 49 7 4 5 16
M TOR 50 7 4 6 17
M  END
$$$$
