
     RDKit          3D

 19 19  0  0  0  0  0  0  0  0999 V2000
    3.4434    2.8170    0.3382 C   0  0  0  0  0  0  0  0  0  0  0  0
    2.8883    1.9165   -0.7569 C   0  0  0  0  0  0  0  0  0  0  0  0
    3.8338    1.9031   -1.8190 O   0  0  0  0  0  0  0  0  0  0  0  0
    2.6189    0.4830   -0.3055 C   0  0  0  0  0  0  0  0  0  0  0  0
    3.7630   -0.2745    0.3243 C   0  0  0  0  0  0  0  0  0  0  0  0
    1.8720   -0.2476   -1.2975 O   0  0  0  0  0  0  0  0  0  0  0  0
    1.2113    0.0870   -0.0611 C   0  0  0  0  0  0  0  0  0  0  0  0
    0.8470   -0.9932    0.8160 C   0  0  0  0  0  0  0  0  0  0  0  0
    0.5144   -1.8718    1.5660 C   0  0  0  0  0  0  0  0  0  0  0  0
    4.4142    2.4534    0.6850 H   0  0  0  0  0  0  0  0  0  0  0  0
    3.5801    3.8286   -0.0517 H   0  0  0  0  0  0  0  0  0  0  0  0
    2.7579    2.8602    1.1899 H   0  0  0  0  0  0  0  0  0  0  0  0
    1.9313    2.3293   -1.1139 H   0  0  0  0  0  0  0  0  0  0  0  0
    3.4703    1.3345   -2.5081 H   0  0  0  0  0  0  0  0  0  0  0  0
    3.9923    0.1180    1.3196 H   0  0  0  0  0  0  0  0  0  0  0  0
    3.5104   -1.3312    0.4188 H   0  0  0  0  0  0  0  0  0  0  0  0
    4.6553   -0.1706   -0.2992 H   0  0  0  0  0  0  0  0  0  0  0  0
    0.4461    0.8560   -0.1708 H   0  0  0  0  0  0  0  0  0  0  0  0
    0.2249   -2.6538    2.2240 H   0  0  0  0  0  0  0  0  0  0  0  0
  1  2  1  0
  2  3  1  0
  2  4  1  0
  4  5  1  0
  4  6  1  0
  6  7  1  0
  7  8  1  0
  8  9  3  0
  7  4  1  0
  1 10  1  0
  1 11  1  0
  1 12  1  0
  2 13  1  0
  3 14  1  0
  5 15  1  0
  5 16  1  0
  5 17  1  0
  7 18  1  0
  9 19  1  0
M  END
$$$$
