gdb 4891	2.8153678	1.1578149	0.9510308	1.1665	77.13	-0.23099	0.04617	0.27716	1274.4629	0.153269	-422.488817	-422.478705	-422.477761	-422.523941	36.891
 OpenBabel02181911413D

 19 19  0  0  1  0  0  0  0  0999 V2000
    1.4351   -0.2294    0.0842 C   0  0  0  0  0  0  0  0  0  0  0  0
    0.0204   -0.2290    0.2447 O   0  0  0  0  0  0  0  0  0  0  0  0
   -0.4491    0.6130    1.2650 C   0  0  1  0  0  0  0  0  0  0  0  0
   -0.1009    2.0921    1.1503 C   0  0  0  0  0  0  0  0  0  0  0  0
   -0.6003    2.7127   -0.0730 C   0  0  0  0  0  0  0  0  0  0  0  0
   -1.0101    3.2114   -1.0863 C   0  0  0  0  0  0  0  0  0  0  0  0
   -1.8004    0.1967    1.7894 C   0  0  0  0  0  0  0  0  0  0  0  0
   -0.5568   -0.0578    2.6168 C   0  0  1  0  0  0  0  0  0  0  0  0
   -0.0589   -1.3506    2.7704 O   0  0  0  0  0  0  0  0  0  0  0  0
    1.9501   -0.4088    1.0365 H   0  0  0  0  0  0  0  0  0  0  0  0
    1.6672   -1.0408   -0.6093 H   0  0  0  0  0  0  0  0  0  0  0  0
    1.7932    0.7118   -0.3512 H   0  0  0  0  0  0  0  0  0  0  0  0
   -0.5185    2.6061    2.0243 H   0  0  0  0  0  0  0  0  0  0  0  0
    0.9857    2.2302    1.2169 H   0  0  0  0  0  0  0  0  0  0  0  0
   -1.3757    3.6527   -1.9801 H   0  0  0  0  0  0  0  0  0  0  0  0
   -2.4977    0.9697    2.0940 H   0  0  0  0  0  0  0  0  0  0  0  0
   -2.2531   -0.6652    1.3104 H   0  0  0  0  0  0  0  0  0  0  0  0
   -0.3988    0.5256    3.5184 H   0  0  0  0  0  0  0  0  0  0  0  0
   -0.0235   -1.7327    1.8838 H   0  0  0  0  0  0  0  0  0  0  0  0
  1  2  1  0  0  0  0
  1 10  1  0  0  0  0
  3  2  1  6  0  0  0
  3  7  1  0  0  0  0
  3  8  1  0  0  0  0
  4 14  1  0  0  0  0
  4  3  1  0  0  0  0
  4 13  1  0  0  0  0
  5  4  1  0  0  0  0
  6  5  3  0  0  0  0
  7 16  1  0  0  0  0
  7  8  1  0  0  0  0
  8  9  1  0  0  0  0
  8 18  1  1  0  0  0
 11  1  1  0  0  0  0
 12  1  1  0  0  0  0
 15  6  1  0  0  0  0
 17  7  1  0  0  0  0
 19  9  1  0  0  0  0
M TOR 0 0 1 2 3
M TOR 1 0 1 2 6
M TOR 2 0 1 2 7
M TOR 3 1 2 3 4
M TOR 4 1 2 3 12
M TOR 5 1 2 3 13
M TOR 6 1 2 6 7
M TOR 7 1 2 6 15
M TOR 8 1 2 6 16
M TOR 9 1 2 7 8
M TOR 10 1 2 7 17
M TOR 11 2 1 0 9
M TOR 12 2 1 0 10
M TOR 13 2 1 0 11
M TOR 14 2 3 4 5
M TOR 15 2 6 7 8
M TOR 16 2 6 7 17
M TOR 17 2 7 6 15
M TOR 18 2 7 6 16
M TOR 19 2 7 8 18
M TOR 20 3 2 6 7
M TOR 21 3 2 6 15
M TOR 22 3 2 6 16
M TOR 23 3 2 7 8
M TOR 24 3 2 7 17
M TOR 25 3 4 5 14
M TOR 26 4 3 2 6
M TOR 27 4 3 2 7
M TOR 28 5 4 3 12
M TOR 29 5 4 3 13
M TOR 30 6 2 3 12
M TOR 31 6 2 3 13
M TOR 32 6 7 8 18
M TOR 33 7 2 3 12
M TOR 34 7 2 3 13
M TOR 35 8 7 6 15
M TOR 36 8 7 6 16
M  END
$$$$
