
     RDKit          3D

 19 19  0  0  0  0  0  0  0  0999 V2000
   -1.6169    0.1714   -1.1606 O   0  0  0  0  0  0  0  0  0  0  0  0
   -2.0617   -0.4408    0.0234 C   0  0  0  0  0  0  0  0  0  0  0  0
   -2.1495   -1.9597   -0.1179 C   0  0  0  0  0  0  0  0  0  0  0  0
   -2.0368   -2.5088    1.3354 C   0  0  0  0  0  0  0  0  0  0  0  0
   -1.6923   -1.2893    2.2307 C   0  0  0  0  0  0  0  0  0  0  0  0
   -1.1406   -0.2279    1.2508 C   0  0  0  0  0  0  0  0  0  0  0  0
   -1.3210    1.1232    1.6761 O   0  0  0  0  0  0  0  0  0  0  0  0
    0.2678   -0.4772    0.9316 C   0  0  0  0  0  0  0  0  0  0  0  0
    1.4366   -0.6710    0.7256 C   0  0  0  0  0  0  0  0  0  0  0  0
   -1.4857    1.1056   -0.9608 H   0  0  0  0  0  0  0  0  0  0  0  0
   -3.0377   -0.0300    0.3314 H   0  0  0  0  0  0  0  0  0  0  0  0
   -3.0674   -2.2696   -0.6220 H   0  0  0  0  0  0  0  0  0  0  0  0
   -1.3088   -2.2930   -0.7330 H   0  0  0  0  0  0  0  0  0  0  0  0
   -2.9633   -2.9840    1.6669 H   0  0  0  0  0  0  0  0  0  0  0  0
   -1.2539   -3.2685    1.3957 H   0  0  0  0  0  0  0  0  0  0  0  0
   -2.5920   -0.8640    2.6866 H   0  0  0  0  0  0  0  0  0  0  0  0
   -0.9902   -1.5259    3.0331 H   0  0  0  0  0  0  0  0  0  0  0  0
   -0.5943    1.3514    2.2652 H   0  0  0  0  0  0  0  0  0  0  0  0
    2.4650   -0.8398    0.5204 H   0  0  0  0  0  0  0  0  0  0  0  0
  1  2  1  0
  2  3  1  0
  3  4  1  0
  4  5  1  0
  5  6  1  0
  6  7  1  0
  6  8  1  0
  8  9  3  0
  6  2  1  0
  1 10  1  0
  2 11  1  0
  3 12  1  0
  3 13  1  0
  4 14  1  0
  4 15  1  0
  5 16  1  0
  5 17  1  0
  7 18  1  0
  9 19  1  0
M  END
$$$$
