
     RDKit          3D

 19 21  0  0  0  0  0  0  0  0999 V2000
    1.9934    1.7416    1.2066 C   0  0  0  0  0  0  0  0  0  0  0  0
    1.9022    0.4551    0.3842 C   0  0  0  0  0  0  0  0  0  0  0  0
    2.0432   -0.8556    1.2254 C   0  0  0  0  0  0  0  0  0  0  0  0
    3.2335   -1.4898    0.5338 C   0  0  0  0  0  0  0  0  0  0  0  0
    3.6654   -2.7071    1.0118 O   0  0  0  0  0  0  0  0  0  0  0  0
    4.2685   -0.3825    0.1255 C   0  0  0  0  0  0  0  0  0  0  0  0
    4.6327   -1.1622   -1.0745 O   0  0  0  0  0  0  0  0  0  0  0  0
    3.1588   -1.2209   -1.0116 C   0  0  0  0  0  0  0  0  0  0  0  0
    3.0624    0.2678   -0.6009 C   0  0  0  0  0  0  0  0  0  0  0  0
    1.1717    1.8074    1.9271 H   0  0  0  0  0  0  0  0  0  0  0  0
    2.9329    1.7866    1.7692 H   0  0  0  0  0  0  0  0  0  0  0  0
    1.9475    2.6276    0.5642 H   0  0  0  0  0  0  0  0  0  0  0  0
    0.9516    0.4532   -0.1618 H   0  0  0  0  0  0  0  0  0  0  0  0
    2.2505   -0.6560    2.2816 H   0  0  0  0  0  0  0  0  0  0  0  0
    1.1581   -1.4965    1.1771 H   0  0  0  0  0  0  0  0  0  0  0  0
    4.4201   -2.9513    0.4559 H   0  0  0  0  0  0  0  0  0  0  0  0
    5.0789    0.0708    0.6975 H   0  0  0  0  0  0  0  0  0  0  0  0
    2.6377   -1.7683   -1.7984 H   0  0  0  0  0  0  0  0  0  0  0  0
    3.2663    1.0244   -1.3574 H   0  0  0  0  0  0  0  0  0  0  0  0
  1  2  1  0
  2  3  1  0
  3  4  1  0
  4  5  1  0
  4  6  1  0
  6  7  1  0
  7  8  1  0
  8  9  1  0
  9  2  1  0
  8  4  1  0
  9  6  1  0
  1 10  1  0
  1 11  1  0
  1 12  1  0
  2 13  1  0
  3 14  1  0
  3 15  1  0
  5 16  1  0
  6 17  1  0
  8 18  1  0
  9 19  1  0
M  END
$$$$
