
     RDKit          3D

 19 19  0  0  0  0  0  0  0  0999 V2000
   -3.1379   -1.0480    1.3750 C   0  0  0  0  0  0  0  0  0  0  0  0
   -2.4088   -0.7611    0.0515 C   0  0  0  0  0  0  0  0  0  0  0  0
   -2.1583    0.7191   -0.1375 C   0  0  0  0  0  0  0  0  0  0  0  0
   -0.8654    1.0683   -0.0732 C   0  0  0  0  0  0  0  0  0  0  0  0
   -0.0574   -0.1393    0.1610 C   0  0  0  0  0  0  0  0  0  0  0  0
    1.1049   -0.2366    0.4923 O   0  0  0  0  0  0  0  0  0  0  0  0
   -0.9779   -1.3647   -0.0306 C   0  0  0  0  0  0  0  0  0  0  0  0
   -0.7029   -1.9859   -1.4099 C   0  0  0  0  0  0  0  0  0  0  0  0
   -0.7212   -2.3094    0.9894 O   0  0  0  0  0  0  0  0  0  0  0  0
   -3.2953   -2.1215    1.4970 H   0  0  0  0  0  0  0  0  0  0  0  0
   -2.5523   -0.6973    2.2283 H   0  0  0  0  0  0  0  0  0  0  0  0
   -4.1111   -0.5466    1.3913 H   0  0  0  0  0  0  0  0  0  0  0  0
   -3.0343   -1.1370   -0.7685 H   0  0  0  0  0  0  0  0  0  0  0  0
   -2.9817    1.4146   -0.2707 H   0  0  0  0  0  0  0  0  0  0  0  0
   -0.4511    2.0669   -0.1241 H   0  0  0  0  0  0  0  0  0  0  0  0
   -1.3105   -2.8877   -1.5275 H   0  0  0  0  0  0  0  0  0  0  0  0
   -0.9403   -1.2906   -2.2218 H   0  0  0  0  0  0  0  0  0  0  0  0
    0.3525   -2.2633   -1.4887 H   0  0  0  0  0  0  0  0  0  0  0  0
    0.2159   -2.2034    1.2092 H   0  0  0  0  0  0  0  0  0  0  0  0
  1  2  1  0
  2  3  1  0
  3  4  2  0
  4  5  1  0
  5  6  2  0
  5  7  1  0
  7  8  1  0
  7  9  1  0
  7  2  1  0
  1 10  1  0
  1 11  1  0
  1 12  1  0
  2 13  1  0
  3 14  1  0
  4 15  1  0
  8 16  1  0
  8 17  1  0
  8 18  1  0
  9 19  1  0
M  END
$$$$
