
     RDKit          3D

 19 20  0  0  0  0  0  0  0  0999 V2000
   -1.1549   -2.3361   -1.0503 C   0  0  0  0  0  0  0  0  0  0  0  0
   -1.1948   -1.1337   -0.1349 C   0  0  0  0  0  0  0  0  0  0  0  0
   -1.7192   -1.3516    1.3277 C   0  0  0  0  0  0  0  0  0  0  0  0
   -2.8883   -0.3547    1.0831 C   0  0  0  0  0  0  0  0  0  0  0  0
   -2.2153    0.1012   -0.2246 C   0  0  0  0  0  0  0  0  0  0  0  0
   -1.0251    1.1007   -0.0039 C   0  0  0  0  0  0  0  0  0  0  0  0
   -0.8643    2.1614   -0.9028 O   0  0  0  0  0  0  0  0  0  0  0  0
   -0.0993   -0.0943   -0.2861 C   0  0  0  0  0  0  0  0  0  0  0  0
    0.9549   -0.1009   -0.8679 O   0  0  0  0  0  0  0  0  0  0  0  0
   -0.3895   -3.0458   -0.7172 H   0  0  0  0  0  0  0  0  0  0  0  0
   -2.1174   -2.8583   -1.0538 H   0  0  0  0  0  0  0  0  0  0  0  0
   -0.9135   -2.0477   -2.0775 H   0  0  0  0  0  0  0  0  0  0  0  0
   -2.0183   -2.3832    1.5248 H   0  0  0  0  0  0  0  0  0  0  0  0
   -1.0147   -1.0497    2.1069 H   0  0  0  0  0  0  0  0  0  0  0  0
   -3.8355   -0.8706    0.9076 H   0  0  0  0  0  0  0  0  0  0  0  0
   -3.0520    0.4200    1.8381 H   0  0  0  0  0  0  0  0  0  0  0  0
   -2.7984    0.3105   -1.1206 H   0  0  0  0  0  0  0  0  0  0  0  0
   -1.0010    1.4693    1.0311 H   0  0  0  0  0  0  0  0  0  0  0  0
   -0.0499    1.9850   -1.3931 H   0  0  0  0  0  0  0  0  0  0  0  0
  1  2  1  0
  2  3  1  0
  3  4  1  0
  4  5  1  0
  5  6  1  0
  6  7  1  0
  6  8  1  0
  8  9  2  0
  5  2  1  0
  8  2  1  0
  1 10  1  0
  1 11  1  0
  1 12  1  0
  3 13  1  0
  3 14  1  0
  4 15  1  0
  4 16  1  0
  5 17  1  0
  6 18  1  0
  7 19  1  0
M  END
$$$$
