
     RDKit          3D

 19 21  0  0  0  0  0  0  0  0999 V2000
    4.2731   -4.6823    1.1663 C   0  0  0  0  0  0  0  0  0  0  0  0
    3.0029   -3.8957    1.1003 C   0  0  0  0  0  0  0  0  0  0  0  0
    2.3969   -3.3100   -0.2048 C   0  0  0  0  0  0  0  0  0  0  0  0
    1.5956   -2.3904    0.7181 C   0  0  0  0  0  0  0  0  0  0  0  0
    0.7654   -1.1968    0.3657 C   0  0  0  0  0  0  0  0  0  0  0  0
   -0.3638   -1.5309   -0.4304 O   0  0  0  0  0  0  0  0  0  0  0  0
    1.3269   -3.2730    1.9627 C   0  0  0  0  0  0  0  0  0  0  0  0
    1.8497   -4.5711    1.7100 O   0  0  0  0  0  0  0  0  0  0  0  0
    2.6191   -2.5497    1.8436 C   0  0  0  0  0  0  0  0  0  0  0  0
    4.5260   -4.9259    2.2019 H   0  0  0  0  0  0  0  0  0  0  0  0
    4.1617   -5.6193    0.6098 H   0  0  0  0  0  0  0  0  0  0  0  0
    5.0991   -4.1164    0.7252 H   0  0  0  0  0  0  0  0  0  0  0  0
    3.1369   -2.7446   -0.7786 H   0  0  0  0  0  0  0  0  0  0  0  0
    1.8643   -4.0150   -0.8505 H   0  0  0  0  0  0  0  0  0  0  0  0
    0.4685   -0.6696    1.2890 H   0  0  0  0  0  0  0  0  0  0  0  0
    1.3443   -0.4854   -0.2344 H   0  0  0  0  0  0  0  0  0  0  0  0
   -0.8359   -2.2363    0.0248 H   0  0  0  0  0  0  0  0  0  0  0  0
    0.4874   -3.1589    2.6373 H   0  0  0  0  0  0  0  0  0  0  0  0
    3.1510   -1.8422    2.4653 H   0  0  0  0  0  0  0  0  0  0  0  0
  1  2  1  0
  2  3  1  0
  3  4  1  0
  4  5  1  0
  5  6  1  0
  4  7  1  0
  7  8  1  0
  7  9  1  0
  8  2  1  0
  9  2  1  0
  9  4  1  0
  1 10  1  0
  1 11  1  0
  1 12  1  0
  3 13  1  0
  3 14  1  0
  5 15  1  0
  5 16  1  0
  6 17  1  0
  7 18  1  0
  9 19  1  0
M  END
$$$$
