gdb 3007	2.6439767	1.6038471	1.2739666	1.6519	76.47	-0.23371	0.00767	0.24138	1061.5396	0.155653	-422.534559	-422.525932	-422.524988	-422.567175	33.441
 OpenBabel02181911413D

 19 20  0  0  1  0  0  0  0  0999 V2000
    1.3974    0.9326    0.3035 C   0  0  0  0  0  0  0  0  0  0  0  0
    0.0464    0.3130    0.2145 C   0  0  0  0  0  0  0  0  0  0  0  0
   -1.1786    0.8420    0.0858 C   0  0  0  0  0  0  0  0  0  0  0  0
   -2.0540   -0.3969    0.0088 C   0  0  2  0  0  0  0  0  0  0  0  0
   -1.4769   -1.2654    1.0487 O   0  0  0  0  0  0  0  0  0  0  0  0
   -0.2655   -1.1908    0.1987 C   0  0  2  0  0  0  0  0  0  0  0  0
    0.7750   -2.2336    0.4821 C   0  0  0  0  0  0  0  0  0  0  0  0
   -1.2646   -1.2667   -1.0323 C   0  0  1  0  0  0  0  0  0  0  0  0
   -1.7798   -2.5299   -1.2975 O   0  0  0  0  0  0  0  0  0  0  0  0
    1.9041    0.6602    1.2377 H   0  0  0  0  0  0  0  0  0  0  0  0
    2.0484    0.5964   -0.5136 H   0  0  0  0  0  0  0  0  0  0  0  0
    1.3368    2.0233    0.2567 H   0  0  0  0  0  0  0  0  0  0  0  0
   -1.4893    1.8737    0.0055 H   0  0  0  0  0  0  0  0  0  0  0  0
   -3.1407   -0.3263    0.0307 H   0  0  0  0  0  0  0  0  0  0  0  0
    1.0591   -2.2184    1.5389 H   0  0  0  0  0  0  0  0  0  0  0  0
    0.3939   -3.2291    0.2377 H   0  0  0  0  0  0  0  0  0  0  0  0
    1.6725   -2.0562   -0.1188 H   0  0  0  0  0  0  0  0  0  0  0  0
   -0.9654   -0.8085   -1.9772 H   0  0  0  0  0  0  0  0  0  0  0  0
   -2.0574   -2.8819   -0.4396 H   0  0  0  0  0  0  0  0  0  0  0  0
  1 10  1  0  0  0  0
  2  1  1  0  0  0  0
  3  2  2  0  0  0  0
  4 14  1  6  0  0  0
  4  3  1  0  0  0  0
  4  5  1  0  0  0  0
  6  2  1  0  0  0  0
  6  7  1  1  0  0  0
  6  5  1  0  0  0  0
  7 15  1  0  0  0  0
  8 18  1  6  0  0  0
  8  4  1  0  0  0  0
  8  6  1  0  0  0  0
  9  8  1  0  0  0  0
  9 19  1  0  0  0  0
 11  1  1  0  0  0  0
 12  1  1  0  0  0  0
 13  3  1  0  0  0  0
 16  7  1  0  0  0  0
 17  7  1  0  0  0  0
M TOR 0 0 1 2 3
M TOR 1 0 1 2 12
M TOR 2 0 1 5 4
M TOR 3 0 1 5 6
M TOR 4 0 1 5 7
M TOR 5 1 2 3 4
M TOR 6 1 2 3 7
M TOR 7 1 2 3 13
M TOR 8 1 5 4 3
M TOR 9 1 5 6 14
M TOR 10 1 5 6 15
M TOR 11 1 5 6 16
M TOR 12 1 5 7 3
M TOR 13 1 5 7 8
M TOR 14 1 5 7 17
M TOR 15 2 1 0 9
M TOR 16 2 1 0 10
M TOR 17 2 1 0 11
M TOR 18 2 1 5 4
M TOR 19 2 1 5 6
M TOR 20 2 1 5 7
M TOR 21 2 3 4 5
M TOR 22 2 3 7 5
M TOR 23 2 3 7 8
M TOR 24 2 3 7 17
M TOR 25 3 2 1 5
M TOR 26 3 4 5 6
M TOR 27 3 4 5 7
M TOR 28 3 7 5 6
M TOR 29 3 7 8 18
M TOR 30 4 3 2 12
M TOR 31 4 3 7 8
M TOR 32 4 3 7 17
M TOR 33 4 5 6 14
M TOR 34 4 5 6 15
M TOR 35 4 5 6 16
M TOR 36 4 5 7 8
M TOR 37 4 5 7 17
M TOR 38 5 1 0 9
M TOR 39 5 1 0 10
M TOR 40 5 1 0 11
M TOR 41 5 1 2 12
M TOR 42 5 4 3 13
M TOR 43 5 7 3 13
M TOR 44 5 7 8 18
M TOR 45 6 5 7 8
M TOR 46 6 5 7 17
M TOR 47 7 3 2 12
M TOR 48 7 5 6 14
M TOR 49 7 5 6 15
M TOR 50 7 5 6 16
M TOR 51 8 7 3 13
M  END
$$$$
