
     RDKit          3D

 19 21  0  0  0  0  0  0  0  0999 V2000
    0.2782   -0.0397    0.3273 O   0  0  0  0  0  0  0  0  0  0  0  0
   -0.9219    0.6230    0.6425 C   0  0  0  0  0  0  0  0  0  0  0  0
   -2.2240   -0.1271    0.3915 C   0  0  0  0  0  0  0  0  0  0  0  0
   -3.5095    0.3611    1.0217 C   0  0  0  0  0  0  0  0  0  0  0  0
   -3.5091    1.5938    1.8964 C   0  0  0  0  0  0  0  0  0  0  0  0
   -3.8385    1.7243    0.4305 C   0  0  0  0  0  0  0  0  0  0  0  0
   -2.7408    2.0959   -0.5657 C   0  0  0  0  0  0  0  0  0  0  0  0
   -1.7330    0.9445   -0.5804 C   0  0  0  0  0  0  0  0  0  0  0  0
   -1.1714    0.6747   -1.8216 O   0  0  0  0  0  0  0  0  0  0  0  0
    0.3472   -0.8296    0.8731 H   0  0  0  0  0  0  0  0  0  0  0  0
   -0.8322    1.3229    1.4708 H   0  0  0  0  0  0  0  0  0  0  0  0
   -2.1336   -1.1793    0.1408 H   0  0  0  0  0  0  0  0  0  0  0  0
   -4.2834   -0.3791    1.1889 H   0  0  0  0  0  0  0  0  0  0  0  0
   -4.3341    1.6970    2.5936 H   0  0  0  0  0  0  0  0  0  0  0  0
   -2.5759    1.9937    2.2770 H   0  0  0  0  0  0  0  0  0  0  0  0
   -4.8582    1.9823    0.1680 H   0  0  0  0  0  0  0  0  0  0  0  0
   -3.1588    2.1656   -1.5749 H   0  0  0  0  0  0  0  0  0  0  0  0
   -2.2677    3.0595   -0.3452 H   0  0  0  0  0  0  0  0  0  0  0  0
   -0.3076    0.2771   -1.6432 H   0  0  0  0  0  0  0  0  0  0  0  0
  1  2  1  0
  2  3  1  0
  3  4  1  0
  4  5  1  0
  5  6  1  0
  6  7  1  0
  7  8  1  0
  8  9  1  0
  8  2  1  0
  8  3  1  0
  6  4  1  0
  1 10  1  0
  2 11  1  0
  3 12  1  0
  4 13  1  0
  5 14  1  0
  5 15  1  0
  6 16  1  0
  7 17  1  0
  7 18  1  0
  9 19  1  0
M  END
$$$$
