
     RDKit          3D

 19 21  0  0  0  0  0  0  0  0999 V2000
    1.1322    2.6712   -0.3652 C   0  0  0  0  0  0  0  0  0  0  0  0
    0.0244    3.1310   -1.1692 O   0  0  0  0  0  0  0  0  0  0  0  0
   -0.5456    1.8053   -1.2443 C   0  0  0  0  0  0  0  0  0  0  0  0
    0.5762    1.2512   -0.3721 C   0  0  0  0  0  0  0  0  0  0  0  0
    1.3540   -0.0427   -0.4341 C   0  0  0  0  0  0  0  0  0  0  0  0
    0.6810   -1.2473   -1.0739 C   0  0  0  0  0  0  0  0  0  0  0  0
   -0.7103   -1.2720   -0.3998 C   0  0  0  0  0  0  0  0  0  0  0  0
   -0.5876   -0.5853    0.8490 O   0  0  0  0  0  0  0  0  0  0  0  0
    0.5111    0.2846    0.7717 C   0  0  0  0  0  0  0  0  0  0  0  0
    2.0950    2.8083   -0.8766 H   0  0  0  0  0  0  0  0  0  0  0  0
    1.1702    3.1730    0.6111 H   0  0  0  0  0  0  0  0  0  0  0  0
   -1.5512    1.7642   -0.8070 H   0  0  0  0  0  0  0  0  0  0  0  0
   -0.5840    1.4333   -2.2773 H   0  0  0  0  0  0  0  0  0  0  0  0
    2.4379    0.0022   -0.4074 H   0  0  0  0  0  0  0  0  0  0  0  0
    0.5961   -1.1851   -2.1630 H   0  0  0  0  0  0  0  0  0  0  0  0
    1.2540   -2.1486   -0.8340 H   0  0  0  0  0  0  0  0  0  0  0  0
   -1.4546   -0.7694   -1.0322 H   0  0  0  0  0  0  0  0  0  0  0  0
   -1.0749   -2.2817   -0.1921 H   0  0  0  0  0  0  0  0  0  0  0  0
    0.9041    0.5417    1.7497 H   0  0  0  0  0  0  0  0  0  0  0  0
  1  2  1  0
  2  3  1  0
  3  4  1  0
  4  5  1  0
  5  6  1  0
  6  7  1  0
  7  8  1  0
  8  9  1  0
  4  1  1  0
  9  4  1  0
  9  5  1  0
  1 10  1  0
  1 11  1  0
  3 12  1  0
  3 13  1  0
  5 14  1  0
  6 15  1  0
  6 16  1  0
  7 17  1  0
  7 18  1  0
  9 19  1  0
M  END
$$$$
