gdb 5569	2.9038713	1.5486283	1.1822275	1.8916	75.39	-0.22707	0.07148	0.29855	1084.1503	0.156337	-422.488044	-422.479726	-422.478782	-422.520614	32.012
 OpenBabel02181911423D

 19 21  0  0  1  0  0  0  0  0999 V2000
    1.4661   -0.0371   -0.0008 C   0  0  0  0  0  0  0  0  0  0  0  0
    0.0575   -0.0396    0.1271 O   0  0  0  0  0  0  0  0  0  0  0  0
   -0.4112    0.6921    1.2323 C   0  0  1  0  0  0  0  0  0  0  0  0
   -1.9440    0.4895    1.3618 C   0  0  2  0  0  0  0  0  0  0  0  0
   -2.3523    1.3629    2.5783 C   0  0  0  0  0  0  0  0  0  0  0  0
   -1.5424    0.3711    3.4109 C   0  0  1  0  0  0  0  0  0  0  0  0
   -1.6617   -0.7121    2.3533 C   0  0  2  0  0  0  0  0  0  0  0  0
   -0.3265   -0.0620    2.5657 C   0  0  1  0  0  0  0  0  0  0  0  0
    0.7816   -0.6583    3.1377 O   0  0  0  0  0  0  0  0  0  0  0  0
    1.9546   -0.5353    0.8450 H   0  0  0  0  0  0  0  0  0  0  0  0
    1.7040   -0.5745   -0.9223 H   0  0  0  0  0  0  0  0  0  0  0  0
    1.8592    0.9893   -0.0817 H   0  0  0  0  0  0  0  0  0  0  0  0
   -0.0363    1.7296    1.1905 H   0  0  0  0  0  0  0  0  0  0  0  0
   -2.5341    0.4414    0.4502 H   0  0  0  0  0  0  0  0  0  0  0  0
   -2.0557    2.4187    2.5656 H   0  0  0  0  0  0  0  0  0  0  0  0
   -3.4223    1.2881    2.7928 H   0  0  0  0  0  0  0  0  0  0  0  0
   -1.5180    0.2351    4.4858 H   0  0  0  0  0  0  0  0  0  0  0  0
   -1.9850   -1.7405    2.3988 H   0  0  0  0  0  0  0  0  0  0  0  0
    1.2321   -0.0043    3.6841 H   0  0  0  0  0  0  0  0  0  0  0  0
  1  2  1  0  0  0  0
  1 10  1  0  0  0  0
  2  3  1  0  0  0  0
  3 13  1  1  0  0  0
  3  4  1  0  0  0  0
  3  8  1  0  0  0  0
  4 14  1  6  0  0  0
  4  7  1  0  0  0  0
  4  5  1  0  0  0  0
  5 16  1  0  0  0  0
  5  6  1  0  0  0  0
  6 17  1  1  0  0  0
  7 18  1  1  0  0  0
  7  8  1  0  0  0  0
  7  6  1  0  0  0  0
  8  9  1  1  0  0  0
  8  6  1  0  0  0  0
  9 19  1  0  0  0  0
 11  1  1  0  0  0  0
 12  1  1  0  0  0  0
 15  5  1  0  0  0  0
M TOR 0 0 1 2 3
M TOR 1 0 1 2 7
M TOR 2 0 1 2 12
M TOR 3 1 2 3 4
M TOR 4 1 2 3 6
M TOR 5 1 2 3 13
M TOR 6 1 2 7 5
M TOR 7 1 2 7 6
M TOR 8 1 2 7 8
M TOR 9 2 1 0 9
M TOR 10 2 1 0 10
M TOR 11 2 1 0 11
M TOR 12 2 3 4 5
M TOR 13 2 3 4 14
M TOR 14 2 3 4 15
M TOR 15 2 3 6 5
M TOR 16 2 3 6 7
M TOR 17 2 3 6 17
M TOR 18 2 7 5 4
M TOR 19 2 7 5 6
M TOR 20 2 7 5 16
M TOR 21 2 7 6 17
M TOR 22 2 7 8 18
M TOR 23 3 2 7 5
M TOR 24 3 2 7 8
M TOR 25 3 4 5 6
M TOR 26 3 4 5 7
M TOR 27 3 4 5 16
M TOR 28 3 6 5 7
M TOR 29 3 6 5 16
M TOR 30 3 6 7 8
M TOR 31 4 3 2 7
M TOR 32 4 3 2 12
M TOR 33 4 3 6 7
M TOR 34 4 3 6 17
M TOR 35 4 5 6 7
M TOR 36 4 5 6 17
M TOR 37 4 5 7 8
M TOR 38 5 4 3 13
M TOR 39 5 6 3 13
M TOR 40 5 6 7 8
M TOR 41 5 7 2 12
M TOR 42 5 7 6 17
M TOR 43 5 7 8 18
M TOR 44 6 3 2 12
M TOR 45 6 3 4 14
M TOR 46 6 3 4 15
M TOR 47 6 5 4 14
M TOR 48 6 5 4 15
M TOR 49 6 7 2 12
M TOR 50 6 7 5 16
M TOR 51 6 7 8 18
M TOR 52 7 2 3 13
M TOR 53 7 5 4 14
M TOR 54 7 5 4 15
M TOR 55 7 6 3 13
M TOR 56 8 7 2 12
M TOR 57 8 7 5 16
M TOR 58 8 7 6 17
M  END
$$$$
