gdb 4132	2.2292171	2.0030432	1.5755705	2.1965	74.52	-0.23676	0.00188	0.23864	951.3707	0.157581	-422.566789	-422.558943	-422.557999	-422.59837	31.791
 OpenBabel02181911413D

 19 20  0  0  1  0  0  0  0  0999 V2000
    0.3733   -0.5170   -0.2115 C   0  0  0  0  0  0  0  0  0  0  0  0
    0.9211    0.7917    0.3308 C   0  0  2  0  0  0  0  0  0  0  0  0
    2.3339    0.9024    0.0995 O   0  0  0  0  0  0  0  0  0  0  0  0
    2.9353    1.2405    1.3874 C   0  0  1  0  0  0  0  0  0  0  0  0
    1.8658    2.1480    2.0080 C   0  0  0  0  0  0  0  0  0  0  0  0
    0.7967    1.0223    1.8740 C   0  0  1  0  0  0  0  0  0  0  0  0
   -0.5331    1.2756    2.2276 O   0  0  0  0  0  0  0  0  0  0  0  0
    1.5246   -0.1282    2.5542 C   0  0  0  0  0  0  0  0  0  0  0  0
    2.8249    0.0051    2.2716 C   0  0  0  0  0  0  0  0  0  0  0  0
    0.8640   -1.3743    0.2562 H   0  0  0  0  0  0  0  0  0  0  0  0
   -0.7043   -0.5759   -0.0278 H   0  0  0  0  0  0  0  0  0  0  0  0
    0.5427   -0.5756   -1.2905 H   0  0  0  0  0  0  0  0  0  0  0  0
    0.4097    1.6331   -0.1587 H   0  0  0  0  0  0  0  0  0  0  0  0
    3.9287    1.6419    1.1967 H   0  0  0  0  0  0  0  0  0  0  0  0
    2.0660    2.4213    3.0457 H   0  0  0  0  0  0  0  0  0  0  0  0
    1.6455    3.0334    1.4060 H   0  0  0  0  0  0  0  0  0  0  0  0
   -0.5742    1.4021    3.1810 H   0  0  0  0  0  0  0  0  0  0  0  0
    1.0234   -0.9474    3.0552 H   0  0  0  0  0  0  0  0  0  0  0  0
    3.6306   -0.6834    2.4917 H   0  0  0  0  0  0  0  0  0  0  0  0
  1 11  1  0  0  0  0
  1 10  1  0  0  0  0
  1  2  1  0  0  0  0
  2 13  1  6  0  0  0
  2  6  1  0  0  0  0
  3  2  1  0  0  0  0
  3  4  1  0  0  0  0
  4 14  1  6  0  0  0
  4  5  1  0  0  0  0
  4  9  1  0  0  0  0
  5 15  1  0  0  0  0
  6  5  1  0  0  0  0
  6  7  1  1  0  0  0
  6  8  1  0  0  0  0
  7 17  1  0  0  0  0
  8 18  1  0  0  0  0
  9 19  1  0  0  0  0
  9  8  2  0  0  0  0
 12  1  1  0  0  0  0
 16  5  1  0  0  0  0
M TOR 0 0 1 2 3
M TOR 1 0 1 5 4
M TOR 2 0 1 5 6
M TOR 3 0 1 5 7
M TOR 4 1 2 3 4
M TOR 5 1 2 3 8
M TOR 6 1 2 3 13
M TOR 7 1 5 4 3
M TOR 8 1 5 4 14
M TOR 9 1 5 4 15
M TOR 10 1 5 6 16
M TOR 11 1 5 7 8
M TOR 12 1 5 7 17
M TOR 13 2 1 0 9
M TOR 14 2 1 0 10
M TOR 15 2 1 0 11
M TOR 16 2 1 5 4
M TOR 17 2 1 5 6
M TOR 18 2 1 5 7
M TOR 19 2 3 4 5
M TOR 20 2 3 4 14
M TOR 21 2 3 4 15
M TOR 22 2 3 8 7
M TOR 23 2 3 8 18
M TOR 24 3 2 1 5
M TOR 25 3 2 1 12
M TOR 26 3 4 5 6
M TOR 27 3 4 5 7
M TOR 28 3 8 7 5
M TOR 29 3 8 7 17
M TOR 30 4 3 8 7
M TOR 31 4 3 8 18
M TOR 32 4 5 1 12
M TOR 33 4 5 6 16
M TOR 34 4 5 7 8
M TOR 35 4 5 7 17
M TOR 36 5 1 0 9
M TOR 37 5 1 0 10
M TOR 38 5 1 0 11
M TOR 39 5 4 3 8
M TOR 40 5 4 3 13
M TOR 41 5 7 8 18
M TOR 42 6 5 1 12
M TOR 43 6 5 4 14
M TOR 44 6 5 4 15
M TOR 45 6 5 7 8
M TOR 46 6 5 7 17
M TOR 47 7 5 1 12
M TOR 48 7 5 4 14
M TOR 49 7 5 4 15
M TOR 50 7 5 6 16
M TOR 51 7 8 3 13
M TOR 52 8 3 4 14
M TOR 53 8 3 4 15
M  END
$$$$
