gdb 255	2.9335614	1.7505148	1.2618025	1.6097	74.77	-0.21757	0.0765	0.29407	1013.8924	0.158892	-422.516455	-422.509276	-422.508332	-422.547752	29.145
 OpenBabel02181911403D

 19 21  0  0  1  0  0  0  0  0999 V2000
   -0.0825   -0.0980    0.0659 C   0  0  0  0  0  0  0  0  0  0  0  0
    1.4009   -0.3339   -0.0970 C   0  0  1  0  0  0  0  0  0  0  0  0
    1.7547   -0.3186   -1.4851 O   0  0  0  0  0  0  0  0  0  0  0  0
    1.3449    1.0780   -1.6050 C   0  0  2  0  0  0  0  0  0  0  0  0
    2.5390    2.0235   -1.7569 C   0  0  0  0  0  0  0  0  0  0  0  0
    2.2869    3.3135   -0.9583 C   0  0  0  0  0  0  0  0  0  0  0  0
    1.9910    2.9784    0.5043 C   0  0  0  0  0  0  0  0  0  0  0  0
    0.8116    2.1796    0.6412 O   0  0  0  0  0  0  0  0  0  0  0  0
    0.8185    1.0720   -0.1716 C   0  0  1  0  0  0  0  0  0  0  0  0
   -0.7812   -0.4462   -0.6914 H   0  0  0  0  0  0  0  0  0  0  0  0
   -0.4325   -0.1637    1.0924 H   0  0  0  0  0  0  0  0  0  0  0  0
    2.0333   -0.8814    0.5911 H   0  0  0  0  0  0  0  0  0  0  0  0
    0.6030    1.2117   -2.4016 H   0  0  0  0  0  0  0  0  0  0  0  0
    3.4194    1.5129   -1.3508 H   0  0  0  0  0  0  0  0  0  0  0  0
    2.7437    2.2353   -2.8105 H   0  0  0  0  0  0  0  0  0  0  0  0
    3.1606    3.9724   -1.0094 H   0  0  0  0  0  0  0  0  0  0  0  0
    1.4375    3.8690   -1.3752 H   0  0  0  0  0  0  0  0  0  0  0  0
    2.8487    2.4481    0.9481 H   0  0  0  0  0  0  0  0  0  0  0  0
    1.8015    3.8794    1.0929 H   0  0  0  0  0  0  0  0  0  0  0  0
  1 11  1  0  0  0  0
  2  1  1  0  0  0  0
  2 12  1  1  0  0  0
  3  2  1  0  0  0  0
  4 13  1  6  0  0  0
  4  3  1  0  0  0  0
  4  9  1  0  0  0  0
  5  4  1  0  0  0  0
  5 14  1  0  0  0  0
  5  6  1  0  0  0  0
  6  7  1  0  0  0  0
  7  8  1  0  0  0  0
  7 18  1  0  0  0  0
  7 19  1  0  0  0  0
  9  2  1  0  0  0  0
  9  1  1  0  0  0  0
  9  8  1  1  0  0  0
 10  1  1  0  0  0  0
 15  5  1  0  0  0  0
 16  6  1  0  0  0  0
 17  6  1  0  0  0  0
M TOR 0 0 1 2 3
M TOR 1 0 1 8 3
M TOR 2 0 1 8 7
M TOR 3 0 8 1 2
M TOR 4 0 8 1 11
M TOR 5 0 8 3 2
M TOR 6 0 8 3 4
M TOR 7 0 8 3 12
M TOR 8 0 8 7 6
M TOR 9 1 2 3 4
M TOR 10 1 2 3 8
M TOR 11 1 2 3 12
M TOR 12 1 8 0 9
M TOR 13 1 8 0 10
M TOR 14 1 8 3 4
M TOR 15 1 8 3 12
M TOR 16 1 8 7 6
M TOR 17 2 1 0 9
M TOR 18 2 1 0 10
M TOR 19 2 1 8 7
M TOR 20 2 3 4 5
M TOR 21 2 3 4 13
M TOR 22 2 3 4 14
M TOR 23 2 3 8 7
M TOR 24 3 2 1 11
M TOR 25 3 4 5 6
M TOR 26 3 4 5 15
M TOR 27 3 4 5 16
M TOR 28 3 8 0 9
M TOR 29 3 8 0 10
M TOR 30 3 8 1 11
M TOR 31 3 8 7 6
M TOR 32 4 3 8 7
M TOR 33 4 5 6 7
M TOR 34 4 5 6 17
M TOR 35 4 5 6 18
M TOR 36 5 4 3 8
M TOR 37 5 4 3 12
M TOR 38 5 6 7 8
M TOR 39 6 5 4 13
M TOR 40 6 5 4 14
M TOR 41 7 6 5 15
M TOR 42 7 6 5 16
M TOR 43 7 8 0 9
M TOR 44 7 8 0 10
M TOR 45 7 8 1 11
M TOR 46 7 8 3 12
M TOR 47 8 3 4 13
M TOR 48 8 3 4 14
M TOR 49 8 7 6 17
M TOR 50 8 7 6 18
M  END
$$$$
