
     RDKit          3D

 19 19  0  0  0  0  0  0  0  0999 V2000
   -1.3687   -1.7533   -1.3029 C   0  0  0  0  0  0  0  0  0  0  0  0
   -1.1015   -0.9331   -0.0423 C   0  0  0  0  0  0  0  0  0  0  0  0
   -2.1849   -0.0212    0.1717 O   0  0  0  0  0  0  0  0  0  0  0  0
   -1.7030    1.2599    0.2362 C   0  0  0  0  0  0  0  0  0  0  0  0
   -2.4133    2.2123    0.4086 O   0  0  0  0  0  0  0  0  0  0  0  0
   -0.2289    1.2144    0.0656 C   0  0  0  0  0  0  0  0  0  0  0  0
    0.5670    2.4764    0.0976 C   0  0  0  0  0  0  0  0  0  0  0  0
    0.1358   -0.0648   -0.0934 C   0  0  0  0  0  0  0  0  0  0  0  0
    1.4940   -0.6536   -0.2850 C   0  0  0  0  0  0  0  0  0  0  0  0
   -0.5836   -2.5012   -1.4493 H   0  0  0  0  0  0  0  0  0  0  0  0
   -2.3260   -2.2725   -1.2138 H   0  0  0  0  0  0  0  0  0  0  0  0
   -1.4044   -1.1022   -2.1810 H   0  0  0  0  0  0  0  0  0  0  0  0
   -1.0599   -1.6049    0.8276 H   0  0  0  0  0  0  0  0  0  0  0  0
    0.3895    3.0162    1.0338 H   0  0  0  0  0  0  0  0  0  0  0  0
    1.6391    2.2922   -0.0016 H   0  0  0  0  0  0  0  0  0  0  0  0
    0.2544    3.1483   -0.7091 H   0  0  0  0  0  0  0  0  0  0  0  0
    1.6987   -1.4219    0.4707 H   0  0  0  0  0  0  0  0  0  0  0  0
    1.5792   -1.1442   -1.2622 H   0  0  0  0  0  0  0  0  0  0  0  0
    2.2778    0.1039   -0.2198 H   0  0  0  0  0  0  0  0  0  0  0  0
  1  2  1  0
  2  3  1  0
  3  4  1  0
  4  5  2  0
  4  6  1  0
  6  7  1  0
  6  8  2  0
  8  9  1  0
  8  2  1  0
  1 10  1  0
  1 11  1  0
  1 12  1  0
  2 13  1  0
  7 14  1  0
  7 15  1  0
  7 16  1  0
  9 17  1  0
  9 18  1  0
  9 19  1  0
M  END
$$$$
