
     RDKit          3D

 19 20  0  0  0  0  0  0  0  0999 V2000
    0.4982   -1.2663    0.2517 O   0  0  0  0  0  0  0  0  0  0  0  0
    0.2268   -0.1293   -0.0490 C   0  0  0  0  0  0  0  0  0  0  0  0
    0.0595    0.9836    0.9039 C   0  0  0  0  0  0  0  0  0  0  0  0
   -0.9011    2.1282    0.5700 C   0  0  0  0  0  0  0  0  0  0  0  0
    0.5509    2.3826    0.4979 C   0  0  0  0  0  0  0  0  0  0  0  0
    1.1037    3.1869    1.4839 O   0  0  0  0  0  0  0  0  0  0  0  0
    2.4765    2.9677    1.6727 C   0  0  0  0  0  0  0  0  0  0  0  0
    3.2524    4.1183    2.2184 C   0  0  0  0  0  0  0  0  0  0  0  0
    3.4567    3.6826    0.7795 C   0  0  0  0  0  0  0  0  0  0  0  0
    0.0887    0.1645   -1.1184 H   0  0  0  0  0  0  0  0  0  0  0  0
    0.1698    0.7266    1.9513 H   0  0  0  0  0  0  0  0  0  0  0  0
   -1.4622    2.0666   -0.3564 H   0  0  0  0  0  0  0  0  0  0  0  0
   -1.4386    2.5500    1.4107 H   0  0  0  0  0  0  0  0  0  0  0  0
    1.0195    2.4702   -0.4820 H   0  0  0  0  0  0  0  0  0  0  0  0
    2.7196    1.9602    2.0063 H   0  0  0  0  0  0  0  0  0  0  0  0
    2.7010    5.0372    2.3805 H   0  0  0  0  0  0  0  0  0  0  0  0
    4.0305    3.9177    2.9457 H   0  0  0  0  0  0  0  0  0  0  0  0
    3.0436    4.3265    0.0110 H   0  0  0  0  0  0  0  0  0  0  0  0
    4.3769    3.1778    0.5074 H   0  0  0  0  0  0  0  0  0  0  0  0
  1  2  2  0
  2  3  1  0
  3  4  1  0
  4  5  1  0
  5  6  1  0
  6  7  1  0
  7  8  1  0
  8  9  1  0
  5  3  1  0
  9  7  1  0
  2 10  1  0
  3 11  1  0
  4 12  1  0
  4 13  1  0
  5 14  1  0
  7 15  1  0
  8 16  1  0
  8 17  1  0
  9 18  1  0
  9 19  1  0
M  END
$$$$
