
     RDKit          3D

 19 21  0  0  0  0  0  0  0  0999 V2000
   -1.6541   -5.4983   -1.3815 C   0  0  0  0  0  0  0  0  0  0  0  0
   -1.6791   -4.4294   -2.4802 C   0  0  0  0  0  0  0  0  0  0  0  0
   -0.3091   -3.9529   -2.8495 C   0  0  0  0  0  0  0  0  0  0  0  0
    0.6681   -4.9264   -3.3572 O   0  0  0  0  0  0  0  0  0  0  0  0
    1.3792   -3.6577   -3.3592 C   0  0  0  0  0  0  0  0  0  0  0  0
    0.1563   -2.8142   -3.8265 C   0  0  0  0  0  0  0  0  0  0  0  0
    0.3400   -1.8162   -2.6792 C   0  0  0  0  0  0  0  0  0  0  0  0
   -0.8641   -1.2143   -2.2541 O   0  0  0  0  0  0  0  0  0  0  0  0
    0.7641   -3.1483   -2.0236 C   0  0  0  0  0  0  0  0  0  0  0  0
   -1.0391   -6.3498   -1.6849 H   0  0  0  0  0  0  0  0  0  0  0  0
   -1.2374   -5.0988   -0.4511 H   0  0  0  0  0  0  0  0  0  0  0  0
   -2.6639   -5.8612   -1.1690 H   0  0  0  0  0  0  0  0  0  0  0  0
   -2.1570   -4.8298   -3.3830 H   0  0  0  0  0  0  0  0  0  0  0  0
   -2.2583   -3.5543   -2.1681 H   0  0  0  0  0  0  0  0  0  0  0  0
    2.4114   -3.6354   -3.7045 H   0  0  0  0  0  0  0  0  0  0  0  0
   -0.1803   -2.6487   -4.8494 H   0  0  0  0  0  0  0  0  0  0  0  0
    1.1371   -1.0722   -2.8129 H   0  0  0  0  0  0  0  0  0  0  0  0
   -0.6861   -0.7170   -1.4497 H   0  0  0  0  0  0  0  0  0  0  0  0
    1.1186   -3.3635   -1.0153 H   0  0  0  0  0  0  0  0  0  0  0  0
  1  2  1  0
  2  3  1  0
  3  4  1  0
  4  5  1  0
  5  6  1  0
  6  7  1  0
  7  8  1  0
  7  9  1  0
  6  3  1  0
  9  3  1  0
  9  5  1  0
  1 10  1  0
  1 11  1  0
  1 12  1  0
  2 13  1  0
  2 14  1  0
  5 15  1  0
  6 16  1  0
  7 17  1  0
  8 18  1  0
  9 19  1  0
M  END
$$$$
