gdb 2001	2.9115325	1.6601843	1.3093162	1.992	73.77	-0.23634	0.0808	0.31714	1017.198	0.157732	-422.533415	-422.525625	-422.52468	-422.56549	30.189
 OpenBabel02181911403D

 19 21  0  0  1  0  0  0  0  0999 V2000
   -0.0807    0.2028   -0.1645 C   0  0  0  0  0  0  0  0  0  0  0  0
    1.4103    0.1744   -0.1316 C   0  0  1  0  0  0  0  0  0  0  0  0
    2.0934   -1.0822   -0.0164 O   0  0  0  0  0  0  0  0  0  0  0  0
    2.4461   -0.2195   -1.1083 C   0  0  2  0  0  0  0  0  0  0  0  0
    3.4628    0.7891   -0.5574 C   0  0  1  0  0  0  0  0  0  0  0  0
    3.6627    2.0640   -1.3845 C   0  0  0  0  0  0  0  0  0  0  0  0
    2.3917    2.8798   -1.0978 C   0  0  0  0  0  0  0  0  0  0  0  0
    2.0261    2.5615    0.2434 O   0  0  0  0  0  0  0  0  0  0  0  0
    2.3682    1.2153    0.4990 C   0  0  1  0  0  0  0  0  0  0  0  0
   -0.4926   -0.0375    0.8222 H   0  0  0  0  0  0  0  0  0  0  0  0
   -0.4327    1.2021   -0.4378 H   0  0  0  0  0  0  0  0  0  0  0  0
   -0.4696   -0.5237   -0.8831 H   0  0  0  0  0  0  0  0  0  0  0  0
    2.3566   -0.6274   -2.1103 H   0  0  0  0  0  0  0  0  0  0  0  0
    4.3911    0.3487   -0.1906 H   0  0  0  0  0  0  0  0  0  0  0  0
    4.5451    2.6002   -1.0231 H   0  0  0  0  0  0  0  0  0  0  0  0
    3.8014    1.8710   -2.4524 H   0  0  0  0  0  0  0  0  0  0  0  0
    2.5411    3.9612   -1.1522 H   0  0  0  0  0  0  0  0  0  0  0  0
    1.5853    2.6111   -1.7964 H   0  0  0  0  0  0  0  0  0  0  0  0
    2.5656    1.1001    1.5669 H   0  0  0  0  0  0  0  0  0  0  0  0
  1 10  1  0  0  0  0
  2  1  1  6  0  0  0
  2  3  1  0  0  0  0
  2  9  1  0  0  0  0
  4 13  1  6  0  0  0
  4  5  1  0  0  0  0
  4  2  1  0  0  0  0
  4  3  1  0  0  0  0
  5 14  1  1  0  0  0
  5  9  1  0  0  0  0
  6  7  1  0  0  0  0
  6 15  1  0  0  0  0
  6  5  1  0  0  0  0
  7  8  1  0  0  0  0
  8  9  1  0  0  0  0
  9 19  1  1  0  0  0
 11  1  1  0  0  0  0
 12  1  1  0  0  0  0
 16  6  1  0  0  0  0
 17  7  1  0  0  0  0
 18  7  1  0  0  0  0
M TOR 0 0 1 2 3
M TOR 1 0 1 3 4
M TOR 2 0 1 3 12
M TOR 3 0 1 8 4
M TOR 4 0 1 8 7
M TOR 5 0 1 8 18
M TOR 6 1 2 3 4
M TOR 7 1 2 3 12
M TOR 8 1 3 4 5
M TOR 9 1 3 4 8
M TOR 10 1 3 4 13
M TOR 11 1 8 4 5
M TOR 12 1 8 4 13
M TOR 13 1 8 7 6
M TOR 14 2 1 0 9
M TOR 15 2 1 0 10
M TOR 16 2 1 0 11
M TOR 17 2 1 8 4
M TOR 18 2 1 8 7
M TOR 19 2 1 8 18
M TOR 20 2 3 1 8
M TOR 21 2 3 4 5
M TOR 22 2 3 4 8
M TOR 23 2 3 4 13
M TOR 24 3 1 0 9
M TOR 25 3 1 0 10
M TOR 26 3 1 0 11
M TOR 27 3 1 8 7
M TOR 28 3 1 8 18
M TOR 29 3 4 5 6
M TOR 30 3 4 5 14
M TOR 31 3 4 5 15
M TOR 32 3 4 8 7
M TOR 33 3 4 8 18
M TOR 34 4 5 6 7
M TOR 35 4 5 6 16
M TOR 36 4 5 6 17
M TOR 37 4 8 7 6
M TOR 38 5 4 3 12
M TOR 39 5 4 8 7
M TOR 40 5 4 8 18
M TOR 41 5 6 7 8
M TOR 42 6 5 4 8
M TOR 43 6 5 4 13
M TOR 44 6 7 8 18
M TOR 45 7 6 5 14
M TOR 46 7 6 5 15
M TOR 47 7 8 4 13
M TOR 48 8 1 0 9
M TOR 49 8 1 0 10
M TOR 50 8 1 0 11
M TOR 51 8 1 3 12
M TOR 52 8 4 3 12
M TOR 53 8 4 5 14
M TOR 54 8 4 5 15
M TOR 55 8 7 6 16
M TOR 56 8 7 6 17
M  END
$$$$
