gdb 1955	2.6496557	1.5321915	1.3492613	1.7113	74.47	-0.22633	0.07648	0.30281	1035.4225	0.156044	-422.50681	-422.498574	-422.49763	-422.538816	33.152
 OpenBabel02181911403D

 19 21  0  0  1  0  0  0  0  0999 V2000
   -3.0756    0.5806    2.6578 O   0  0  0  0  0  0  0  0  0  0  0  0
   -2.1501    1.3380    1.9590 C   0  0  1  0  0  0  0  0  0  0  0  0
   -1.4864    2.5408    2.5573 C   0  0  0  0  0  0  0  0  0  0  0  0
   -0.6361    1.3527    2.1504 C   0  0  2  0  0  0  0  0  0  0  0  0
   -0.4330    1.2662    0.6172 C   0  0  2  0  0  0  0  0  0  0  0  0
    0.4108    0.2435    0.1758 O   0  0  0  0  0  0  0  0  0  0  0  0
   -0.3191    2.5611   -0.2294 C   0  0  0  0  0  0  0  0  0  0  0  0
   -1.8735    2.5746   -0.4141 C   0  0  0  0  0  0  0  0  0  0  0  0
   -1.9842    1.2622    0.4173 C   0  0  2  0  0  0  0  0  0  0  0  0
   -3.8671    1.1142    2.7908 H   0  0  0  0  0  0  0  0  0  0  0  0
   -1.4192    3.4973    2.0474 H   0  0  0  0  0  0  0  0  0  0  0  0
   -1.6232    2.6206    3.6320 H   0  0  0  0  0  0  0  0  0  0  0  0
   -0.0066    0.8470    2.8756 H   0  0  0  0  0  0  0  0  0  0  0  0
    0.2266   -0.5455    0.6980 H   0  0  0  0  0  0  0  0  0  0  0  0
    0.1306    3.4279    0.2607 H   0  0  0  0  0  0  0  0  0  0  0  0
    0.2203    2.3658   -1.1584 H   0  0  0  0  0  0  0  0  0  0  0  0
   -2.3958    3.4419   -0.0023 H   0  0  0  0  0  0  0  0  0  0  0  0
   -2.1854    2.4542   -1.4536 H   0  0  0  0  0  0  0  0  0  0  0  0
   -2.4806    0.4007   -0.0300 H   0  0  0  0  0  0  0  0  0  0  0  0
  1 10  1  0  0  0  0
  2  4  1  0  0  0  0
  2  3  1  0  0  0  0
  2  1  1  1  0  0  0
  3 12  1  0  0  0  0
  4  3  1  0  0  0  0
  4 13  1  1  0  0  0
  5  6  1  6  0  0  0
  5  4  1  0  0  0  0
  6 14  1  0  0  0  0
  7 15  1  0  0  0  0
  7  5  1  0  0  0  0
  8  7  1  0  0  0  0
  8 17  1  0  0  0  0
  8  9  1  0  0  0  0
  9 19  1  6  0  0  0
  9  5  1  0  0  0  0
  9  2  1  0  0  0  0
 11  3  1  0  0  0  0
 16  7  1  0  0  0  0
 18  8  1  0  0  0  0
M TOR 0 0 1 2 3
M TOR 1 0 1 2 10
M TOR 2 0 1 2 11
M TOR 3 0 1 3 4
M TOR 4 0 1 3 12
M TOR 5 0 1 8 4
M TOR 6 0 1 8 7
M TOR 7 0 1 8 18
M TOR 8 1 2 3 4
M TOR 9 1 2 3 12
M TOR 10 1 3 2 10
M TOR 11 1 3 2 11
M TOR 12 1 3 4 5
M TOR 13 1 3 4 6
M TOR 14 1 3 4 8
M TOR 15 1 8 4 5
M TOR 16 1 8 4 6
M TOR 17 1 8 7 6
M TOR 18 1 8 7 16
M TOR 19 1 8 7 17
M TOR 20 2 1 0 9
M TOR 21 2 1 8 4
M TOR 22 2 1 8 7
M TOR 23 2 1 8 18
M TOR 24 2 3 1 8
M TOR 25 2 3 4 5
M TOR 26 2 3 4 6
M TOR 27 2 3 4 8
M TOR 28 3 1 0 9
M TOR 29 3 1 8 7
M TOR 30 3 1 8 18
M TOR 31 3 4 5 13
M TOR 32 3 4 6 7
M TOR 33 3 4 6 14
M TOR 34 3 4 6 15
M TOR 35 3 4 8 7
M TOR 36 3 4 8 18
M TOR 37 4 3 2 10
M TOR 38 4 3 2 11
M TOR 39 4 6 7 8
M TOR 40 4 6 7 16
M TOR 41 4 6 7 17
M TOR 42 4 8 7 16
M TOR 43 4 8 7 17
M TOR 44 5 4 3 12
M TOR 45 5 4 6 7
M TOR 46 5 4 6 14
M TOR 47 5 4 6 15
M TOR 48 5 4 8 7
M TOR 49 5 4 8 18
M TOR 50 6 4 3 12
M TOR 51 6 4 5 13
M TOR 52 6 4 8 18
M TOR 53 6 7 8 18
M TOR 54 8 1 0 9
M TOR 55 8 1 2 10
M TOR 56 8 1 2 11
M TOR 57 8 1 3 12
M TOR 58 8 4 3 12
M TOR 59 8 4 5 13
M TOR 60 8 4 6 14
M TOR 61 8 4 6 15
M TOR 62 8 7 6 14
M TOR 63 8 7 6 15
M  END
$$$$
