
     RDKit          3D

 19 20  0  0  0  0  0  0  0  0999 V2000
    0.5816   -0.1253   -0.8984 O   0  0  0  0  0  0  0  0  0  0  0  0
   -0.0319   -0.1235    0.1389 C   0  0  0  0  0  0  0  0  0  0  0  0
   -0.8159    1.0669    0.6299 C   0  0  0  0  0  0  0  0  0  0  0  0
   -1.8494    1.7366   -0.3241 C   0  0  0  0  0  0  0  0  0  0  0  0
   -1.5311    3.0477    0.4475 C   0  0  0  0  0  0  0  0  0  0  0  0
   -0.1110    2.4597    0.6924 C   0  0  0  0  0  0  0  0  0  0  0  0
   -2.3244    3.0301    1.7667 C   0  0  0  0  0  0  0  0  0  0  0  0
   -1.8700    1.8296    2.6275 C   0  0  0  0  0  0  0  0  0  0  0  0
   -1.4393    0.7086    1.8522 O   0  0  0  0  0  0  0  0  0  0  0  0
   -0.0641   -1.0059    0.8144 H   0  0  0  0  0  0  0  0  0  0  0  0
   -1.4819    1.7495   -1.3522 H   0  0  0  0  0  0  0  0  0  0  0  0
   -2.8668    1.3403   -0.2794 H   0  0  0  0  0  0  0  0  0  0  0  0
   -1.6227    3.9994   -0.0796 H   0  0  0  0  0  0  0  0  0  0  0  0
    0.5390    2.5738   -0.1766 H   0  0  0  0  0  0  0  0  0  0  0  0
    0.4349    2.7207    1.6017 H   0  0  0  0  0  0  0  0  0  0  0  0
   -2.1612    3.9504    2.3387 H   0  0  0  0  0  0  0  0  0  0  0  0
   -3.3960    2.9741    1.5439 H   0  0  0  0  0  0  0  0  0  0  0  0
   -1.0476    2.1444    3.2845 H   0  0  0  0  0  0  0  0  0  0  0  0
   -2.6753    1.4650    3.2706 H   0  0  0  0  0  0  0  0  0  0  0  0
  1  2  2  0
  2  3  1  0
  3  4  1  0
  4  5  1  0
  5  6  1  0
  5  7  1  0
  7  8  1  0
  8  9  1  0
  6  3  1  0
  9  3  1  0
  2 10  1  0
  4 11  1  0
  4 12  1  0
  5 13  1  0
  6 14  1  0
  6 15  1  0
  7 16  1  0
  7 17  1  0
  8 18  1  0
  8 19  1  0
M  END
$$$$
