
     RDKit          3D

 19 20  0  0  0  0  0  0  0  0999 V2000
   -0.1935    2.4173   -0.7877 C   0  0  0  0  0  0  0  0  0  0  0  0
    0.5331    1.1086   -0.5958 C   0  0  0  0  0  0  0  0  0  0  0  0
    0.0352    0.0144   -0.6057 O   0  0  0  0  0  0  0  0  0  0  0  0
    1.8630    1.3299   -0.4129 O   0  0  0  0  0  0  0  0  0  0  0  0
    2.6477    0.1850   -0.2063 C   0  0  0  0  0  0  0  0  0  0  0  0
    2.8516   -0.3852    1.1586 C   0  0  0  0  0  0  0  0  0  0  0  0
    4.0431    0.1463    0.3851 C   0  0  0  0  0  0  0  0  0  0  0  0
    4.4638   -0.8808   -0.6767 C   0  0  0  0  0  0  0  0  0  0  0  0
    3.0286   -0.8025   -1.3049 C   0  0  0  0  0  0  0  0  0  0  0  0
   -1.2540    2.2242   -0.9438 H   0  0  0  0  0  0  0  0  0  0  0  0
   -0.0545    3.0549    0.0902 H   0  0  0  0  0  0  0  0  0  0  0  0
    0.2201    2.9537   -1.6463 H   0  0  0  0  0  0  0  0  0  0  0  0
    2.5168    0.2595    1.9648 H   0  0  0  0  0  0  0  0  0  0  0  0
    2.7312   -1.4499    1.3460 H   0  0  0  0  0  0  0  0  0  0  0  0
    4.6531    0.9534    0.7708 H   0  0  0  0  0  0  0  0  0  0  0  0
    5.2365   -0.5144   -1.3554 H   0  0  0  0  0  0  0  0  0  0  0  0
    4.7691   -1.8574   -0.2887 H   0  0  0  0  0  0  0  0  0  0  0  0
    3.0446   -0.3340   -2.2915 H   0  0  0  0  0  0  0  0  0  0  0  0
    2.4349   -1.7183   -1.3517 H   0  0  0  0  0  0  0  0  0  0  0  0
  1  2  1  0
  2  3  2  0
  2  4  1  0
  4  5  1  0
  5  6  1  0
  6  7  1  0
  7  8  1  0
  8  9  1  0
  7  5  1  0
  9  5  1  0
  1 10  1  0
  1 11  1  0
  1 12  1  0
  6 13  1  0
  6 14  1  0
  7 15  1  0
  8 16  1  0
  8 17  1  0
  9 18  1  0
  9 19  1  0
M  END
$$$$
