
     RDKit          3D

 19 20  0  0  0  0  0  0  0  0999 V2000
   -1.3122   -0.2688   -2.5506 C   0  0  0  0  0  0  0  0  0  0  0  0
   -1.8592   -0.8705   -1.2701 C   0  0  0  0  0  0  0  0  0  0  0  0
   -2.9446   -1.9104   -1.4992 C   0  0  0  0  0  0  0  0  0  0  0  0
   -0.9396   -1.2293   -0.0672 C   0  0  0  0  0  0  0  0  0  0  0  0
    0.0775   -0.1432    0.1037 C   0  0  0  0  0  0  0  0  0  0  0  0
    1.2487   -0.0349    0.2730 O   0  0  0  0  0  0  0  0  0  0  0  0
   -0.8603    0.8838    0.0497 O   0  0  0  0  0  0  0  0  0  0  0  0
   -1.9492   -0.0952    0.0053 C   0  0  0  0  0  0  0  0  0  0  0  0
   -3.1128    0.2031    0.8913 C   0  0  0  0  0  0  0  0  0  0  0  0
   -0.8234   -1.0379   -3.1575 H   0  0  0  0  0  0  0  0  0  0  0  0
   -2.1311    0.1526   -3.1444 H   0  0  0  0  0  0  0  0  0  0  0  0
   -0.5947    0.5293   -2.3571 H   0  0  0  0  0  0  0  0  0  0  0  0
   -3.2885   -2.3687   -0.5678 H   0  0  0  0  0  0  0  0  0  0  0  0
   -3.8101   -1.4600   -1.9970 H   0  0  0  0  0  0  0  0  0  0  0  0
   -2.5694   -2.7116   -2.1443 H   0  0  0  0  0  0  0  0  0  0  0  0
   -0.9183   -2.2157    0.3743 H   0  0  0  0  0  0  0  0  0  0  0  0
   -2.7856    0.3352    1.9267 H   0  0  0  0  0  0  0  0  0  0  0  0
   -3.6039    1.1278    0.5695 H   0  0  0  0  0  0  0  0  0  0  0  0
   -3.8500   -0.6019    0.8564 H   0  0  0  0  0  0  0  0  0  0  0  0
  1  2  1  0
  2  3  1  0
  2  4  1  0
  4  5  1  0
  5  6  2  0
  5  7  1  0
  7  8  1  0
  8  9  1  0
  8  2  1  0
  8  4  1  0
  1 10  1  0
  1 11  1  0
  1 12  1  0
  3 13  1  0
  3 14  1  0
  3 15  1  0
  4 16  1  0
  9 17  1  0
  9 18  1  0
  9 19  1  0
M  END
$$$$
