gdb 4651	2.7587877	0.7313546	0.6426879	2.4133	83.42	-0.25607	-0.05183	0.20424000000000003	1803.0037	0.153356	-422.543577	-422.532504	-422.531559	-422.582029	37.453
 OpenBabel02181911413D

 19 18  0  0  1  0  0  0  0  0999 V2000
    5.3285   -2.5329    0.3117 C   0  0  0  0  0  0  0  0  0  0  0  0
    4.9121   -2.5944    1.7904 C   0  0  0  0  0  0  0  0  0  0  0  0
    3.4096   -2.7356    1.9729 C   0  0  0  0  0  0  0  0  0  0  0  0
    2.8960   -3.6964    2.5062 O   0  0  0  0  0  0  0  0  0  0  0  0
    2.6055   -1.6381    1.4618 C   0  0  0  0  0  0  0  0  0  0  0  0
    1.9292   -0.7326    1.0340 C   0  0  0  0  0  0  0  0  0  0  0  0
    1.1149    0.3800    0.5360 C   0  0  2  0  0  0  0  0  0  0  0  0
    0.1740   -0.0627   -0.5873 C   0  0  0  0  0  0  0  0  0  0  0  0
    1.9146    1.4365    0.0142 O   0  0  0  0  0  0  0  0  0  0  0  0
    5.0467   -3.4508   -0.2129 H   0  0  0  0  0  0  0  0  0  0  0  0
    4.8526   -1.6905   -0.1980 H   0  0  0  0  0  0  0  0  0  0  0  0
    6.4121   -2.4142    0.2272 H   0  0  0  0  0  0  0  0  0  0  0  0
    5.3761   -3.4444    2.2977 H   0  0  0  0  0  0  0  0  0  0  0  0
    5.2323   -1.6754    2.2981 H   0  0  0  0  0  0  0  0  0  0  0  0
    0.5045    0.7453    1.3787 H   0  0  0  0  0  0  0  0  0  0  0  0
   -0.5045   -0.8426   -0.2348 H   0  0  0  0  0  0  0  0  0  0  0  0
   -0.4089    0.7985   -0.9230 H   0  0  0  0  0  0  0  0  0  0  0  0
    0.7528   -0.4470   -1.4303 H   0  0  0  0  0  0  0  0  0  0  0  0
    2.5609    1.6810    0.6847 H   0  0  0  0  0  0  0  0  0  0  0  0
  1  2  1  0  0  0  0
  2  3  1  0  0  0  0
  2 13  1  0  0  0  0
  2 14  1  0  0  0  0
  3  4  2  0  0  0  0
  5  3  1  0  0  0  0
  6  5  3  0  0  0  0
  7  6  1  0  0  0  0
  7 15  1  1  0  0  0
  8 16  1  0  0  0  0
  8  7  1  0  0  0  0
  9  7  1  0  0  0  0
  9 19  1  0  0  0  0
 10  1  1  0  0  0  0
 11  1  1  0  0  0  0
 12  1  1  0  0  0  0
 17  8  1  0  0  0  0
 18  8  1  0  0  0  0
M TOR 0 0 1 2 3
M TOR 1 0 1 2 4
M TOR 2 1 2 4 5
M TOR 3 2 1 0 9
M TOR 4 2 1 0 10
M TOR 5 2 1 0 11
M TOR 6 2 4 5 6
M TOR 7 3 2 1 12
M TOR 8 3 2 1 13
M TOR 9 3 2 4 5
M TOR 10 4 2 1 12
M TOR 11 4 2 1 13
M TOR 12 4 5 6 7
M TOR 13 4 5 6 8
M TOR 14 4 5 6 14
M TOR 15 5 6 7 15
M TOR 16 5 6 7 16
M TOR 17 5 6 7 17
M TOR 18 5 6 8 18
M TOR 19 7 6 8 18
M TOR 20 8 6 7 15
M TOR 21 8 6 7 16
M TOR 22 8 6 7 17
M  END
$$$$
