gdb 2456	2.5209312	2.1779696	1.5722603	2.3142	73.46	-0.2336	0.07007	0.30367	905.3481	0.1596	-422.556694	-422.5498	-422.548856	-422.587346	29.086
 OpenBabel02181911413D

 19 21  0  0  1  0  0  0  0  0999 V2000
    0.2322    0.2253    0.3540 O   0  0  0  0  0  0  0  0  0  0  0  0
   -0.8937    1.0552    0.3826 C   0  0  1  0  0  0  0  0  0  0  0  0
   -0.9671    2.0929    1.5129 C   0  0  0  0  0  0  0  0  0  0  0  0
   -2.4832    2.4225    1.5905 C   0  0  0  0  0  0  0  0  0  0  0  0
   -3.0067    1.7974    0.2928 C   0  0  1  0  0  0  0  0  0  0  0  0
   -2.3237    2.4894   -0.7926 O   0  0  0  0  0  0  0  0  0  0  0  0
   -1.2507    1.5753   -1.0500 C   0  0  2  0  0  0  0  0  0  0  0  0
   -1.9880    0.2405   -1.3003 C   0  0  0  0  0  0  0  0  0  0  0  0
   -2.3279    0.4111    0.1993 C   0  0  1  0  0  0  0  0  0  0  0  0
    0.2908   -0.2339    1.1990 H   0  0  0  0  0  0  0  0  0  0  0  0
   -0.5873    1.6620    2.4464 H   0  0  0  0  0  0  0  0  0  0  0  0
   -0.3560    2.9718    1.2901 H   0  0  0  0  0  0  0  0  0  0  0  0
   -2.9560    1.9578    2.4635 H   0  0  0  0  0  0  0  0  0  0  0  0
   -2.6893    3.4946    1.6239 H   0  0  0  0  0  0  0  0  0  0  0  0
   -4.0868    1.8450    0.1406 H   0  0  0  0  0  0  0  0  0  0  0  0
   -0.5185    2.0186   -1.7238 H   0  0  0  0  0  0  0  0  0  0  0  0
   -2.7983    0.2579   -2.0318 H   0  0  0  0  0  0  0  0  0  0  0  0
   -1.3078   -0.5942   -1.4685 H   0  0  0  0  0  0  0  0  0  0  0  0
   -2.7149   -0.3868    0.8341 H   0  0  0  0  0  0  0  0  0  0  0  0
  1 10  1  0  0  0  0
  2  1  1  1  0  0  0
  2  3  1  0  0  0  0
  3  4  1  0  0  0  0
  3 11  1  0  0  0  0
  4 14  1  0  0  0  0
  4 13  1  0  0  0  0
  5 15  1  6  0  0  0
  5  4  1  0  0  0  0
  6  5  1  0  0  0  0
  7 16  1  6  0  0  0
  7  6  1  0  0  0  0
  7  2  1  0  0  0  0
  8  7  1  0  0  0  0
  8  9  1  0  0  0  0
  9  5  1  0  0  0  0
  9  2  1  0  0  0  0
  9 19  1  1  0  0  0
 12  3  1  0  0  0  0
 17  8  1  0  0  0  0
 18  8  1  0  0  0  0
M TOR 0 0 1 2 3
M TOR 1 0 1 2 10
M TOR 2 0 1 2 11
M TOR 3 0 1 6 5
M TOR 4 0 1 6 7
M TOR 5 0 1 6 15
M TOR 6 0 1 8 4
M TOR 7 0 1 8 7
M TOR 8 0 1 8 18
M TOR 9 1 2 3 4
M TOR 10 1 2 3 12
M TOR 11 1 2 3 13
M TOR 12 1 6 5 4
M TOR 13 1 6 7 8
M TOR 14 1 6 7 16
M TOR 15 1 6 7 17
M TOR 16 1 8 4 3
M TOR 17 1 8 4 5
M TOR 18 1 8 4 14
M TOR 19 1 8 7 16
M TOR 20 1 8 7 17
M TOR 21 2 1 0 9
M TOR 22 2 1 6 5
M TOR 23 2 1 6 7
M TOR 24 2 1 6 15
M TOR 25 2 1 8 4
M TOR 26 2 1 8 7
M TOR 27 2 1 8 18
M TOR 28 2 3 4 5
M TOR 29 2 3 4 8
M TOR 30 2 3 4 14
M TOR 31 3 2 1 6
M TOR 32 3 2 1 8
M TOR 33 3 4 5 6
M TOR 34 3 4 8 7
M TOR 35 3 4 8 18
M TOR 36 4 3 2 10
M TOR 37 4 3 2 11
M TOR 38 4 5 6 7
M TOR 39 4 5 6 15
M TOR 40 4 8 1 6
M TOR 41 4 8 7 6
M TOR 42 4 8 7 16
M TOR 43 4 8 7 17
M TOR 44 5 4 3 12
M TOR 45 5 4 3 13
M TOR 46 5 4 8 7
M TOR 47 5 4 8 18
M TOR 48 5 6 1 8
M TOR 49 5 6 7 8
M TOR 50 5 6 7 16
M TOR 51 5 6 7 17
M TOR 52 6 1 0 9
M TOR 53 6 1 2 10
M TOR 54 6 1 2 11
M TOR 55 6 1 8 18
M TOR 56 6 5 4 8
M TOR 57 6 5 4 14
M TOR 58 6 7 8 18
M TOR 59 7 8 4 14
M TOR 60 8 1 0 9
M TOR 61 8 1 2 10
M TOR 62 8 1 2 11
M TOR 63 8 1 6 15
M TOR 64 8 4 3 12
M TOR 65 8 4 3 13
M TOR 66 8 7 6 15
M  END
$$$$
