
     RDKit          3D

 19 20  0  0  0  0  0  0  0  0999 V2000
    2.2430   -1.6297   -3.6116 C   0  0  0  0  0  0  0  0  0  0  0  0
    1.8470   -1.2582   -2.1955 C   0  0  0  0  0  0  0  0  0  0  0  0
    2.2301   -1.8906   -1.2320 O   0  0  0  0  0  0  0  0  0  0  0  0
    0.9572   -0.0698   -2.0487 C   0  0  0  0  0  0  0  0  0  0  0  0
    1.1508    0.7803   -0.7984 C   0  0  0  0  0  0  0  0  0  0  0  0
    0.6229    2.1991   -0.8893 C   0  0  0  0  0  0  0  0  0  0  0  0
   -0.6848    2.0840   -1.4461 O   0  0  0  0  0  0  0  0  0  0  0  0
   -1.2338    0.8289   -1.0504 C   0  0  0  0  0  0  0  0  0  0  0  0
   -0.0472   -0.1038   -0.9025 C   0  0  0  0  0  0  0  0  0  0  0  0
    2.7614   -0.7915   -4.0914 H   0  0  0  0  0  0  0  0  0  0  0  0
    2.8900   -2.5074   -3.6008 H   0  0  0  0  0  0  0  0  0  0  0  0
    1.3494   -1.8339   -4.2128 H   0  0  0  0  0  0  0  0  0  0  0  0
    0.6573    0.4436   -2.9570 H   0  0  0  0  0  0  0  0  0  0  0  0
    1.9804    0.5316   -0.1487 H   0  0  0  0  0  0  0  0  0  0  0  0
    0.5929    2.6486    0.1169 H   0  0  0  0  0  0  0  0  0  0  0  0
    1.1980    2.8605   -1.5455 H   0  0  0  0  0  0  0  0  0  0  0  0
   -1.7649    0.9084   -0.0877 H   0  0  0  0  0  0  0  0  0  0  0  0
   -1.9554    0.5335   -1.8190 H   0  0  0  0  0  0  0  0  0  0  0  0
   -0.1226   -1.0206   -0.3316 H   0  0  0  0  0  0  0  0  0  0  0  0
  1  2  1  0
  2  3  2  0
  2  4  1  0
  4  5  1  0
  5  6  1  0
  6  7  1  0
  7  8  1  0
  8  9  1  0
  9  4  1  0
  9  5  1  0
  1 10  1  0
  1 11  1  0
  1 12  1  0
  4 13  1  0
  5 14  1  0
  6 15  1  0
  6 16  1  0
  8 17  1  0
  8 18  1  0
  9 19  1  0
M  END
$$$$
