
     RDKit          3D

 19 18  0  0  0  0  0  0  0  0999 V2000
    6.2742    2.7458    2.1947 C   0  0  0  0  0  0  0  0  0  0  0  0
    4.7976    2.5727    1.8830 C   0  0  0  0  0  0  0  0  0  0  0  0
    3.9788    3.4117    2.1826 O   0  0  0  0  0  0  0  0  0  0  0  0
    4.4108    1.2788    1.1791 C   0  0  0  0  0  0  0  0  0  0  0  0
    2.9506    1.2335    0.7355 C   0  0  0  0  0  0  0  0  0  0  0  0
    2.5390   -0.1693    0.2506 C   0  0  0  0  0  0  0  0  0  0  0  0
    2.7525   -1.1611    1.2560 O   0  0  0  0  0  0  0  0  0  0  0  0
    1.1536   -0.1786   -0.2267 C   0  0  0  0  0  0  0  0  0  0  0  0
    0.0025   -0.1733   -0.5732 C   0  0  0  0  0  0  0  0  0  0  0  0
    6.8420    2.8445    1.2620 H   0  0  0  0  0  0  0  0  0  0  0  0
    6.4236    3.6383    2.8035 H   0  0  0  0  0  0  0  0  0  0  0  0
    6.6694    1.8663    2.7143 H   0  0  0  0  0  0  0  0  0  0  0  0
    5.0927    1.1216    0.3320 H   0  0  0  0  0  0  0  0  0  0  0  0
    4.6141    0.4470    1.8670 H   0  0  0  0  0  0  0  0  0  0  0  0
    2.3035    1.5317    1.5667 H   0  0  0  0  0  0  0  0  0  0  0  0
    2.7684    1.9575   -0.0654 H   0  0  0  0  0  0  0  0  0  0  0  0
    3.1994   -0.4699   -0.5731 H   0  0  0  0  0  0  0  0  0  0  0  0
    2.0521   -1.0601    1.9107 H   0  0  0  0  0  0  0  0  0  0  0  0
   -1.0098   -0.1773   -0.8951 H   0  0  0  0  0  0  0  0  0  0  0  0
  1  2  1  0
  2  3  2  0
  2  4  1  0
  4  5  1  0
  5  6  1  0
  6  7  1  0
  6  8  1  0
  8  9  3  0
  1 10  1  0
  1 11  1  0
  1 12  1  0
  4 13  1  0
  4 14  1  0
  5 15  1  0
  5 16  1  0
  6 17  1  0
  7 18  1  0
  9 19  1  0
M  END
$$$$
