gdb 644	3.0563393	1.1145037	0.9568838	1.9032	76.63	-0.24576	-0.02815	0.21761	1289.0617	0.156362	-422.532529	-422.523702	-422.522758	-422.567421	31.637
 OpenBabel02181911403D

 19 20  0  0  1  0  0  0  0  0999 V2000
   -1.3102   -0.1502   -2.1812 O   0  0  0  0  0  0  0  0  0  0  0  0
   -0.5471   -0.7450   -1.4504 C   0  0  0  0  0  0  0  0  0  0  0  0
   -0.2980   -2.2113   -1.6920 C   0  0  2  0  0  0  0  0  0  0  0  0
   -0.4617   -3.1985   -0.6051 C   0  0  0  0  0  0  0  0  0  0  0  0
    0.8295   -2.8172   -1.0538 O   0  0  0  0  0  0  0  0  0  0  0  0
    0.2199   -0.0752   -0.3378 C   0  0  0  0  0  0  0  0  0  0  0  0
   -0.2548    1.3235    0.1287 C   0  0  0  0  0  0  0  0  0  0  0  0
    1.2203    1.8045    0.1131 C   0  0  0  0  0  0  0  0  0  0  0  0
    1.5796    0.5828   -0.7737 C   0  0  0  0  0  0  0  0  0  0  0  0
   -0.4955   -2.5332   -2.7131 H   0  0  0  0  0  0  0  0  0  0  0  0
   -0.7339   -2.8635    0.3946 H   0  0  0  0  0  0  0  0  0  0  0  0
   -0.7756   -4.2082   -0.8638 H   0  0  0  0  0  0  0  0  0  0  0  0
    0.3985   -0.7659    0.4891 H   0  0  0  0  0  0  0  0  0  0  0  0
   -0.8548    1.7925   -0.6543 H   0  0  0  0  0  0  0  0  0  0  0  0
   -0.7981    1.3743    1.0748 H   0  0  0  0  0  0  0  0  0  0  0  0
    1.4228    2.7962   -0.2973 H   0  0  0  0  0  0  0  0  0  0  0  0
    1.6846    1.7363    1.1009 H   0  0  0  0  0  0  0  0  0  0  0  0
    1.5718    0.8346   -1.8376 H   0  0  0  0  0  0  0  0  0  0  0  0
    2.4880    0.0230   -0.5463 H   0  0  0  0  0  0  0  0  0  0  0  0
  1  2  2  0  0  0  0
  2  6  1  0  0  0  0
  3 10  1  6  0  0  0
  3  2  1  0  0  0  0
  3  5  1  0  0  0  0
  3  4  1  0  0  0  0
  4 11  1  0  0  0  0
  5  4  1  0  0  0  0
  6  7  1  0  0  0  0
  6 13  1  0  0  0  0
  7 15  1  0  0  0  0
  8  7  1  0  0  0  0
  8 17  1  0  0  0  0
  9 19  1  0  0  0  0
  9  6  1  0  0  0  0
  9  8  1  0  0  0  0
 12  4  1  0  0  0  0
 14  7  1  0  0  0  0
 16  8  1  0  0  0  0
 18  9  1  0  0  0  0
M TOR 0 0 1 2 3
M TOR 1 0 1 2 4
M TOR 2 0 1 2 9
M TOR 3 0 1 5 6
M TOR 4 0 1 5 8
M TOR 5 0 1 5 12
M TOR 6 1 2 3 4
M TOR 7 1 2 3 10
M TOR 8 1 2 3 11
M TOR 9 1 5 6 7
M TOR 10 1 5 6 13
M TOR 11 1 5 6 14
M TOR 12 1 5 8 7
M TOR 13 1 5 8 17
M TOR 14 1 5 8 18
M TOR 15 2 1 5 6
M TOR 16 2 1 5 8
M TOR 17 2 1 5 12
M TOR 18 2 4 3 10
M TOR 19 2 4 3 11
M TOR 20 3 2 1 5
M TOR 21 3 4 2 9
M TOR 22 4 2 1 5
M TOR 23 5 1 2 9
M TOR 24 5 6 7 8
M TOR 25 5 6 7 15
M TOR 26 5 6 7 16
M TOR 27 5 8 7 15
M TOR 28 5 8 7 16
M TOR 29 6 5 8 17
M TOR 30 6 5 8 18
M TOR 31 6 7 8 17
M TOR 32 6 7 8 18
M TOR 33 7 6 5 12
M TOR 34 7 8 5 12
M TOR 35 8 5 6 13
M TOR 36 8 5 6 14
M TOR 37 8 7 6 13
M TOR 38 8 7 6 14
M  END
$$$$
