
     RDKit          3D

 19 20  0  0  0  0  0  0  0  0999 V2000
    1.1365    2.5095   -2.0475 C   0  0  0  0  0  0  0  0  0  0  0  0
    0.1955    1.6781   -2.8894 C   0  0  0  0  0  0  0  0  0  0  0  0
   -0.4140    2.1392   -3.8365 O   0  0  0  0  0  0  0  0  0  0  0  0
   -0.0071    0.2385   -2.5299 C   0  0  0  0  0  0  0  0  0  0  0  0
    0.9485   -0.8630   -1.9867 C   0  0  0  0  0  0  0  0  0  0  0  0
   -0.4284   -1.5688   -2.1867 C   0  0  0  0  0  0  0  0  0  0  0  0
   -1.0846   -0.3212   -1.5287 C   0  0  0  0  0  0  0  0  0  0  0  0
   -0.5162   -0.8238   -3.5467 C   0  0  0  0  0  0  0  0  0  0  0  0
   -1.7807   -0.6431   -4.1159 O   0  0  0  0  0  0  0  0  0  0  0  0
    2.1546    2.1109   -2.1274 H   0  0  0  0  0  0  0  0  0  0  0  0
    1.1206    3.5491   -2.3771 H   0  0  0  0  0  0  0  0  0  0  0  0
    0.8565    2.4457   -0.9900 H   0  0  0  0  0  0  0  0  0  0  0  0
    1.7661   -1.1703   -2.6455 H   0  0  0  0  0  0  0  0  0  0  0  0
    1.2829   -0.7560   -0.9529 H   0  0  0  0  0  0  0  0  0  0  0  0
   -0.6600   -2.6157   -1.9916 H   0  0  0  0  0  0  0  0  0  0  0  0
   -2.1218   -0.1216   -1.7916 H   0  0  0  0  0  0  0  0  0  0  0  0
   -0.8803   -0.1618   -0.4670 H   0  0  0  0  0  0  0  0  0  0  0  0
    0.2269   -1.1320   -4.2959 H   0  0  0  0  0  0  0  0  0  0  0  0
   -1.7715    0.2410   -4.5052 H   0  0  0  0  0  0  0  0  0  0  0  0
  1  2  1  0
  2  3  2  0
  2  4  1  0
  4  5  1  0
  5  6  1  0
  6  7  1  0
  6  8  1  0
  8  9  1  0
  7  4  1  0
  8  4  1  0
  1 10  1  0
  1 11  1  0
  1 12  1  0
  5 13  1  0
  5 14  1  0
  6 15  1  0
  7 16  1  0
  7 17  1  0
  8 18  1  0
  9 19  1  0
M  END
$$$$
