gdb 5140	2.8221825	1.2308665	1.0074652	2.384	77.28	-0.23655	0.00555	0.2421	1245.7591	0.155794	-422.552939	-422.543973	-422.543029	-422.586604	33.437
 OpenBabel02181911423D

 19 20  0  0  1  0  0  0  0  0999 V2000
    1.3494    0.8020    0.0334 C   0  0  0  0  0  0  0  0  0  0  0  0
   -0.0428    0.2740    0.1659 C   0  0  0  0  0  0  0  0  0  0  0  0
   -1.1887    0.9356   -0.0350 C   0  0  0  0  0  0  0  0  0  0  0  0
   -2.3705    0.0838    0.3001 C   0  0  2  0  0  0  0  0  0  0  0  0
   -3.7262    0.3103   -0.3185 C   0  0  0  0  0  0  0  0  0  0  0  0
   -3.6610    0.4105   -1.7323 O   0  0  0  0  0  0  0  0  0  0  0  0
   -2.3884   -0.3419    1.6873 O   0  0  0  0  0  0  0  0  0  0  0  0
   -1.8250   -1.2261    0.7153 C   0  0  2  0  0  0  0  0  0  0  0  0
   -0.3078   -1.1585    0.6119 C   0  0  0  0  0  0  0  0  0  0  0  0
    1.8707    0.7867    0.9991 H   0  0  0  0  0  0  0  0  0  0  0  0
    1.9453    0.1850   -0.6513 H   0  0  0  0  0  0  0  0  0  0  0  0
    1.3557    1.8302   -0.3376 H   0  0  0  0  0  0  0  0  0  0  0  0
   -1.2763    1.9635   -0.3658 H   0  0  0  0  0  0  0  0  0  0  0  0
   -4.4120   -0.4805    0.0187 H   0  0  0  0  0  0  0  0  0  0  0  0
   -4.1359    1.2661    0.0267 H   0  0  0  0  0  0  0  0  0  0  0  0
   -3.2741   -0.4056   -2.0658 H   0  0  0  0  0  0  0  0  0  0  0  0
   -2.3542   -2.1672    0.5817 H   0  0  0  0  0  0  0  0  0  0  0  0
    0.1742   -1.3861    1.5709 H   0  0  0  0  0  0  0  0  0  0  0  0
    0.0765   -1.8855   -0.1163 H   0  0  0  0  0  0  0  0  0  0  0  0
  1  2  1  0  0  0  0
  1 10  1  0  0  0  0
  2  9  1  0  0  0  0
  3  2  2  0  0  0  0
  3  4  1  0  0  0  0
  4  5  1  6  0  0  0
  4  8  1  0  0  0  0
  4  7  1  0  0  0  0
  5 14  1  0  0  0  0
  5 15  1  0  0  0  0
  6  5  1  0  0  0  0
  8 17  1  6  0  0  0
  8  7  1  0  0  0  0
  9  8  1  0  0  0  0
  9 18  1  0  0  0  0
 11  1  1  0  0  0  0
 12  1  1  0  0  0  0
 13  3  1  0  0  0  0
 16  6  1  0  0  0  0
 19  9  1  0  0  0  0
M TOR 0 0 1 2 3
M TOR 1 0 1 2 12
M TOR 2 0 1 8 7
M TOR 3 0 1 8 17
M TOR 4 0 1 8 18
M TOR 5 1 2 3 4
M TOR 6 1 2 3 6
M TOR 7 1 2 3 7
M TOR 8 1 8 7 3
M TOR 9 1 8 7 6
M TOR 10 1 8 7 16
M TOR 11 2 1 0 9
M TOR 12 2 1 0 10
M TOR 13 2 1 0 11
M TOR 14 2 1 8 7
M TOR 15 2 1 8 17
M TOR 16 2 1 8 18
M TOR 17 2 3 4 5
M TOR 18 2 3 4 13
M TOR 19 2 3 4 14
M TOR 20 2 3 6 7
M TOR 21 2 3 7 8
M TOR 22 2 3 7 16
M TOR 23 3 2 1 8
M TOR 24 3 4 5 15
M TOR 25 3 6 7 8
M TOR 26 3 6 7 16
M TOR 27 3 7 8 17
M TOR 28 3 7 8 18
M TOR 29 4 3 2 12
M TOR 30 4 3 6 7
M TOR 31 4 3 7 8
M TOR 32 4 3 7 16
M TOR 33 5 4 3 6
M TOR 34 5 4 3 7
M TOR 35 6 3 2 12
M TOR 36 6 3 4 13
M TOR 37 6 3 4 14
M TOR 38 6 7 8 17
M TOR 39 6 7 8 18
M TOR 40 7 3 2 12
M TOR 41 7 3 4 13
M TOR 42 7 3 4 14
M TOR 43 8 1 0 9
M TOR 44 8 1 0 10
M TOR 45 8 1 0 11
M TOR 46 8 1 2 12
M  END
$$$$
