
     RDKit          3D

 19 21  0  0  0  0  0  0  0  0999 V2000
    0.0604   -0.0470    0.0171 C   0  0  0  0  0  0  0  0  0  0  0  0
    1.5858   -0.1047    0.0230 C   0  0  0  0  0  0  0  0  0  0  0  0
    2.0809   -0.7921    1.1477 O   0  0  0  0  0  0  0  0  0  0  0  0
    2.1502   -0.4874   -1.3845 C   0  0  0  0  0  0  0  0  0  0  0  0
    3.6874   -0.6804   -1.3596 C   0  0  0  0  0  0  0  0  0  0  0  0
    3.8593    0.8540   -1.2683 C   0  0  0  0  0  0  0  0  0  0  0  0
    3.6131    1.3411    0.0694 O   0  0  0  0  0  0  0  0  0  0  0  0
    2.1912    1.3160   -0.1400 C   0  0  0  0  0  0  0  0  0  0  0  0
    2.3664    1.0495   -1.6636 C   0  0  0  0  0  0  0  0  0  0  0  0
   -0.3045    0.3918    0.9510 H   0  0  0  0  0  0  0  0  0  0  0  0
   -0.3197    0.5495   -0.8185 H   0  0  0  0  0  0  0  0  0  0  0  0
   -0.3621   -1.0547   -0.0822 H   0  0  0  0  0  0  0  0  0  0  0  0
    1.5938   -1.6186    1.2358 H   0  0  0  0  0  0  0  0  0  0  0  0
    1.5482   -1.1541   -2.0043 H   0  0  0  0  0  0  0  0  0  0  0  0
    4.1082   -1.2691   -0.5415 H   0  0  0  0  0  0  0  0  0  0  0  0
    4.0523   -1.0560   -2.3210 H   0  0  0  0  0  0  0  0  0  0  0  0
    4.7285    1.3327   -1.7236 H   0  0  0  0  0  0  0  0  0  0  0  0
    1.6855    2.1569    0.3415 H   0  0  0  0  0  0  0  0  0  0  0  0
    1.9686    1.6381   -2.4851 H   0  0  0  0  0  0  0  0  0  0  0  0
  1  2  1  0
  2  3  1  0
  2  4  1  0
  4  5  1  0
  5  6  1  0
  6  7  1  0
  7  8  1  0
  8  9  1  0
  8  2  1  0
  9  4  1  0
  9  6  1  0
  1 10  1  0
  1 11  1  0
  1 12  1  0
  3 13  1  0
  4 14  1  0
  5 15  1  0
  5 16  1  0
  6 17  1  0
  8 18  1  0
  9 19  1  0
M  END
$$$$
