
     RDKit          3D

 19 20  0  0  0  0  0  0  0  0999 V2000
   -2.9764    1.5181   -1.5849 C   0  0  0  0  0  0  0  0  0  0  0  0
   -1.9195    0.5146   -1.1430 C   0  0  0  0  0  0  0  0  0  0  0  0
   -0.8816    0.9918   -0.0537 C   0  0  0  0  0  0  0  0  0  0  0  0
   -1.9611    0.6158    1.0168 C   0  0  0  0  0  0  0  0  0  0  0  0
   -2.3076   -0.4952   -0.0252 C   0  0  0  0  0  0  0  0  0  0  0  0
   -3.5574   -1.1007   -0.1100 O   0  0  0  0  0  0  0  0  0  0  0  0
   -1.0465   -1.3840    0.0426 C   0  0  0  0  0  0  0  0  0  0  0  0
    0.0015   -0.2434    0.0173 C   0  0  0  0  0  0  0  0  0  0  0  0
    1.1987   -0.3297    0.0423 O   0  0  0  0  0  0  0  0  0  0  0  0
   -3.4341    2.0597   -0.7536 H   0  0  0  0  0  0  0  0  0  0  0  0
   -2.5381    2.2564   -2.2638 H   0  0  0  0  0  0  0  0  0  0  0  0
   -3.7775    1.0005   -2.1212 H   0  0  0  0  0  0  0  0  0  0  0  0
   -1.4710    0.0531   -2.0305 H   0  0  0  0  0  0  0  0  0  0  0  0
   -0.3932    1.9628   -0.0898 H   0  0  0  0  0  0  0  0  0  0  0  0
   -1.6126    0.3096    2.0075 H   0  0  0  0  0  0  0  0  0  0  0  0
   -2.7398    1.3711    1.1115 H   0  0  0  0  0  0  0  0  0  0  0  0
   -3.6303   -1.7645    0.5840 H   0  0  0  0  0  0  0  0  0  0  0  0
   -0.9686   -1.9751    0.9619 H   0  0  0  0  0  0  0  0  0  0  0  0
   -0.9371   -2.0535   -0.8159 H   0  0  0  0  0  0  0  0  0  0  0  0
  1  2  1  0
  2  3  1  0
  3  4  1  0
  4  5  1  0
  5  6  1  0
  5  7  1  0
  7  8  1  0
  8  9  2  0
  5  2  1  0
  8  3  1  0
  1 10  1  0
  1 11  1  0
  1 12  1  0
  2 13  1  0
  3 14  1  0
  4 15  1  0
  4 16  1  0
  6 17  1  0
  7 18  1  0
  7 19  1  0
M  END
$$$$
