
     RDKit          3D

 19 20  0  0  0  0  0  0  0  0999 V2000
    4.3947    0.3788    1.0684 C   0  0  0  0  0  0  0  0  0  0  0  0
    3.0507    0.9552    0.6181 C   0  0  0  0  0  0  0  0  0  0  0  0
    3.2016    2.0092   -0.4910 C   0  0  0  0  0  0  0  0  0  0  0  0
    1.8885    2.5735   -0.9340 C   0  0  0  0  0  0  0  0  0  0  0  0
    0.9217    3.5001   -0.1655 C   0  0  0  0  0  0  0  0  0  0  0  0
    0.5388    4.0897   -1.5577 C   0  0  0  0  0  0  0  0  0  0  0  0
   -0.0838    5.0472   -1.9060 O   0  0  0  0  0  0  0  0  0  0  0  0
    1.4623    3.1035   -2.2624 C   0  0  0  0  0  0  0  0  0  0  0  0
    1.0500    1.7993   -1.7911 O   0  0  0  0  0  0  0  0  0  0  0  0
    4.2606   -0.3693    1.8553 H   0  0  0  0  0  0  0  0  0  0  0  0
    4.9177   -0.1038    0.2355 H   0  0  0  0  0  0  0  0  0  0  0  0
    5.0515    1.1627    1.4618 H   0  0  0  0  0  0  0  0  0  0  0  0
    2.4010    0.1509    0.2539 H   0  0  0  0  0  0  0  0  0  0  0  0
    2.5348    1.4042    1.4762 H   0  0  0  0  0  0  0  0  0  0  0  0
    3.8397    2.8298   -0.1382 H   0  0  0  0  0  0  0  0  0  0  0  0
    3.7003    1.5649   -1.3602 H   0  0  0  0  0  0  0  0  0  0  0  0
    0.1370    2.9968    0.4022 H   0  0  0  0  0  0  0  0  0  0  0  0
    1.4011    4.2668    0.4512 H   0  0  0  0  0  0  0  0  0  0  0  0
    1.9690    3.1541   -3.2193 H   0  0  0  0  0  0  0  0  0  0  0  0
  1  2  1  0
  2  3  1  0
  3  4  1  0
  4  5  1  0
  5  6  1  0
  6  7  2  0
  6  8  1  0
  8  9  1  0
  8  4  1  0
  9  4  1  0
  1 10  1  0
  1 11  1  0
  1 12  1  0
  2 13  1  0
  2 14  1  0
  3 15  1  0
  3 16  1  0
  5 17  1  0
  5 18  1  0
  8 19  1  0
M  END
$$$$
