gdb 5359	3.541163	1.2322858	1.1863413	1.7655	76.04	-0.23754	0.00674	0.24428	1146.2052	0.158197	-422.554904	-422.547	-422.546056	-422.587716	30.187
 OpenBabel02181911423D

 19 20  0  0  1  0  0  0  0  0999 V2000
    1.8378   -0.0099    2.7619 C   0  0  0  0  0  0  0  0  0  0  0  0
    1.7221    1.5249    2.7559 C   0  0  0  0  0  0  0  0  0  0  0  0
    2.2436    2.1524    1.5055 C   0  0  0  0  0  0  0  0  0  0  0  0
    3.2144    3.0491    1.3028 C   0  0  0  0  0  0  0  0  0  0  0  0
    3.1275    3.4122   -0.1711 C   0  0  2  0  0  0  0  0  0  0  0  0
    1.7993    4.2197   -0.3378 C   0  0  0  0  0  0  0  0  0  0  0  0
    0.8140    3.2119   -0.0831 O   0  0  0  0  0  0  0  0  0  0  0  0
    1.6023    2.0103    0.1187 C   0  0  1  0  0  0  0  0  0  0  0  0
    2.6870    2.1712   -0.7609 O   0  0  0  0  0  0  0  0  0  0  0  0
    1.4289   -0.4243    3.6883 H   0  0  0  0  0  0  0  0  0  0  0  0
    1.2888   -0.4569    1.9270 H   0  0  0  0  0  0  0  0  0  0  0  0
    2.8827   -0.3234    2.6786 H   0  0  0  0  0  0  0  0  0  0  0  0
    0.6660    1.8043    2.8750 H   0  0  0  0  0  0  0  0  0  0  0  0
    2.2520    1.9391    3.6207 H   0  0  0  0  0  0  0  0  0  0  0  0
    3.8359    3.5463    2.0356 H   0  0  0  0  0  0  0  0  0  0  0  0
    4.0072    3.8052   -0.6761 H   0  0  0  0  0  0  0  0  0  0  0  0
    1.7036    5.0448    0.3749 H   0  0  0  0  0  0  0  0  0  0  0  0
    1.6872    4.5934   -1.3611 H   0  0  0  0  0  0  0  0  0  0  0  0
    0.9959    1.1388   -0.1199 H   0  0  0  0  0  0  0  0  0  0  0  0
  1 10  1  0  0  0  0
  2  1  1  0  0  0  0
  2 13  1  0  0  0  0
  2 14  1  0  0  0  0
  3  2  1  0  0  0  0
  4  3  2  0  0  0  0
  4 15  1  0  0  0  0
  5 16  1  6  0  0  0
  5  4  1  0  0  0  0
  6  5  1  0  0  0  0
  6  7  1  0  0  0  0
  6 17  1  0  0  0  0
  7  8  1  0  0  0  0
  8 19  1  6  0  0  0
  8  3  1  0  0  0  0
  9  5  1  0  0  0  0
  9  8  1  0  0  0  0
 11  1  1  0  0  0  0
 12  1  1  0  0  0  0
 18  6  1  0  0  0  0
M TOR 0 0 1 2 3
M TOR 1 0 1 2 7
M TOR 2 1 2 3 4
M TOR 3 1 2 3 14
M TOR 4 1 2 7 6
M TOR 5 1 2 7 8
M TOR 6 1 2 7 18
M TOR 7 2 1 0 9
M TOR 8 2 1 0 10
M TOR 9 2 1 0 11
M TOR 10 2 3 4 5
M TOR 11 2 3 4 8
M TOR 12 2 3 4 15
M TOR 13 2 7 6 5
M TOR 14 2 7 8 4
M TOR 15 3 2 1 12
M TOR 16 3 2 1 13
M TOR 17 3 2 7 6
M TOR 18 3 2 7 8
M TOR 19 3 2 7 18
M TOR 20 3 4 5 6
M TOR 21 3 4 5 16
M TOR 22 3 4 5 17
M TOR 23 3 4 8 7
M TOR 24 4 3 2 7
M TOR 25 4 5 6 7
M TOR 26 4 8 7 6
M TOR 27 4 8 7 18
M TOR 28 5 4 3 14
M TOR 29 5 4 8 7
M TOR 30 5 6 7 8
M TOR 31 5 6 7 18
M TOR 32 6 5 4 8
M TOR 33 6 5 4 15
M TOR 34 7 2 1 12
M TOR 35 7 2 1 13
M TOR 36 7 2 3 14
M TOR 37 7 6 5 16
M TOR 38 7 6 5 17
M TOR 39 7 8 4 15
M TOR 40 8 4 3 14
M TOR 41 8 4 5 16
M TOR 42 8 4 5 17
M  END
$$$$
