
     RDKit          3D

 19 20  0  0  0  0  0  0  0  0999 V2000
    0.0395   -0.0530    0.2892 O   0  0  0  0  0  0  0  0  0  0  0  0
   -0.6338    0.8749    1.1390 C   0  0  0  0  0  0  0  0  0  0  0  0
   -1.2856    2.0131    0.3457 C   0  0  0  0  0  0  0  0  0  0  0  0
   -2.4120    1.4873   -0.5571 C   0  0  0  0  0  0  0  0  0  0  0  0
   -3.3071    0.5125    0.1630 C   0  0  0  0  0  0  0  0  0  0  0  0
   -2.9836   -0.0673    1.3222 C   0  0  0  0  0  0  0  0  0  0  0  0
   -1.6811    0.1686    1.9913 C   0  0  0  0  0  0  0  0  0  0  0  0
   -1.2279   -0.6993    3.0879 C   0  0  0  0  0  0  0  0  0  0  0  0
   -1.7605    0.5930    3.3727 O   0  0  0  0  0  0  0  0  0  0  0  0
   -0.6295   -0.5596   -0.1840 H   0  0  0  0  0  0  0  0  0  0  0  0
    0.1367    1.2726    1.8055 H   0  0  0  0  0  0  0  0  0  0  0  0
   -1.6973    2.7345    1.0616 H   0  0  0  0  0  0  0  0  0  0  0  0
   -0.5250    2.5289   -0.2474 H   0  0  0  0  0  0  0  0  0  0  0  0
   -3.0114    2.3224   -0.9377 H   0  0  0  0  0  0  0  0  0  0  0  0
   -1.9899    1.0093   -1.4536 H   0  0  0  0  0  0  0  0  0  0  0  0
   -4.2648    0.2847   -0.2990 H   0  0  0  0  0  0  0  0  0  0  0  0
   -3.6775   -0.7377    1.8219 H   0  0  0  0  0  0  0  0  0  0  0  0
   -1.8462   -1.5397    3.4025 H   0  0  0  0  0  0  0  0  0  0  0  0
   -0.1586   -0.8198    3.2569 H   0  0  0  0  0  0  0  0  0  0  0  0
  1  2  1  0
  2  3  1  0
  3  4  1  0
  4  5  1  0
  5  6  2  0
  6  7  1  0
  7  8  1  0
  8  9  1  0
  7  2  1  0
  9  7  1  0
  1 10  1  0
  2 11  1  0
  3 12  1  0
  3 13  1  0
  4 14  1  0
  4 15  1  0
  5 16  1  0
  6 17  1  0
  8 18  1  0
  8 19  1  0
M  END
$$$$
