
     RDKit          3D

 19 21  0  0  0  0  0  0  0  0999 V2000
    0.3318    0.0559    0.6223 O   0  0  0  0  0  0  0  0  0  0  0  0
   -0.8914    0.7316    0.5576 C   0  0  0  0  0  0  0  0  0  0  0  0
   -2.1576   -0.0573    0.3974 C   0  0  0  0  0  0  0  0  0  0  0  0
   -1.6087    0.8131   -0.7598 C   0  0  0  0  0  0  0  0  0  0  0  0
   -2.8171    1.7471   -0.6460 C   0  0  0  0  0  0  0  0  0  0  0  0
   -3.7448    1.6636   -1.7086 O   0  0  0  0  0  0  0  0  0  0  0  0
   -4.5167    0.4787   -1.5439 C   0  0  0  0  0  0  0  0  0  0  0  0
   -4.6908    0.3198   -0.0264 C   0  0  0  0  0  0  0  0  0  0  0  0
   -3.3732    0.8647    0.5399 C   0  0  0  0  0  0  0  0  0  0  0  0
    0.3289   -0.6518   -0.0308 H   0  0  0  0  0  0  0  0  0  0  0  0
   -0.8591    1.5893    1.2273 H   0  0  0  0  0  0  0  0  0  0  0  0
   -2.1609   -1.1366    0.5138 H   0  0  0  0  0  0  0  0  0  0  0  0
   -1.1218    0.5287   -1.6869 H   0  0  0  0  0  0  0  0  0  0  0  0
   -2.6023    2.8070   -0.4803 H   0  0  0  0  0  0  0  0  0  0  0  0
   -5.4571    0.6186   -2.0832 H   0  0  0  0  0  0  0  0  0  0  0  0
   -3.9981   -0.3904   -1.9751 H   0  0  0  0  0  0  0  0  0  0  0  0
   -5.5241    0.9380    0.3216 H   0  0  0  0  0  0  0  0  0  0  0  0
   -4.8895   -0.7139    0.2703 H   0  0  0  0  0  0  0  0  0  0  0  0
   -3.4975    1.3374    1.5185 H   0  0  0  0  0  0  0  0  0  0  0  0
  1  2  1  0
  2  3  1  0
  3  4  1  0
  4  5  1  0
  5  6  1  0
  6  7  1  0
  7  8  1  0
  8  9  1  0
  4  2  1  0
  9  5  1  0
  9  3  1  0
  1 10  1  0
  2 11  1  0
  3 12  1  0
  4 13  1  0
  5 14  1  0
  7 15  1  0
  7 16  1  0
  8 17  1  0
  8 18  1  0
  9 19  1  0
M  END
$$$$
