
     RDKit          3D

 19 19  0  0  0  0  0  0  0  0999 V2000
    0.3425    0.7411   -0.0845 C   0  0  0  0  0  0  0  0  0  0  0  0
    0.9555   -0.6471   -0.0364 C   0  0  0  0  0  0  0  0  0  0  0  0
    2.0346   -1.0618   -1.0730 C   0  0  0  0  0  0  0  0  0  0  0  0
    2.7333   -1.8842    0.0229 C   0  0  0  0  0  0  0  0  0  0  0  0
    4.1298   -1.8831   -0.0297 O   0  0  0  0  0  0  0  0  0  0  0  0
    1.9667   -1.0336    1.1081 C   0  0  0  0  0  0  0  0  0  0  0  0
    1.4607   -1.7149    2.2404 O   0  0  0  0  0  0  0  0  0  0  0  0
    2.7631    0.0857    1.5868 C   0  0  0  0  0  0  0  0  0  0  0  0
    3.4385    1.0078    1.9573 C   0  0  0  0  0  0  0  0  0  0  0  0
   -0.3065    0.9143    0.7804 H   0  0  0  0  0  0  0  0  0  0  0  0
    1.1185    1.5116   -0.0812 H   0  0  0  0  0  0  0  0  0  0  0  0
   -0.2616    0.8669   -0.9894 H   0  0  0  0  0  0  0  0  0  0  0  0
    0.1598   -1.4037   -0.0169 H   0  0  0  0  0  0  0  0  0  0  0  0
    1.7091   -1.5847   -1.9733 H   0  0  0  0  0  0  0  0  0  0  0  0
    2.6642   -0.2127   -1.3521 H   0  0  0  0  0  0  0  0  0  0  0  0
    2.3270   -2.9094    0.0679 H   0  0  0  0  0  0  0  0  0  0  0  0
    4.4667   -2.2007    0.8153 H   0  0  0  0  0  0  0  0  0  0  0  0
    0.8908   -2.4216    1.9178 H   0  0  0  0  0  0  0  0  0  0  0  0
    4.0327    1.8217    2.2929 H   0  0  0  0  0  0  0  0  0  0  0  0
  1  2  1  0
  2  3  1  0
  3  4  1  0
  4  5  1  0
  4  6  1  0
  6  7  1  0
  6  8  1  0
  8  9  3  0
  6  2  1  0
  1 10  1  0
  1 11  1  0
  1 12  1  0
  2 13  1  0
  3 14  1  0
  3 15  1  0
  4 16  1  0
  5 17  1  0
  7 18  1  0
  9 19  1  0
M  END
$$$$
