
     RDKit          3D

 19 21  0  0  0  0  0  0  0  0999 V2000
    0.0868    0.2004   -0.1713 C   0  0  0  0  0  0  0  0  0  0  0  0
    1.5259    0.0045    0.2310 C   0  0  0  0  0  0  0  0  0  0  0  0
    2.0598    0.6742    1.5502 C   0  0  0  0  0  0  0  0  0  0  0  0
    3.3189    1.0819    0.7846 C   0  0  0  0  0  0  0  0  0  0  0  0
    3.7987   -0.1068   -0.0677 C   0  0  0  0  0  0  0  0  0  0  0  0
    3.2740   -1.4960    0.2748 C   0  0  0  0  0  0  0  0  0  0  0  0
    1.8470   -1.3860    0.2063 O   0  0  0  0  0  0  0  0  0  0  0  0
    2.6699    0.7277   -0.5473 C   0  0  0  0  0  0  0  0  0  0  0  0
    2.6283    1.3285   -1.7859 O   0  0  0  0  0  0  0  0  0  0  0  0
   -0.5801   -0.3157    0.5256 H   0  0  0  0  0  0  0  0  0  0  0  0
   -0.1762    1.2630   -0.1711 H   0  0  0  0  0  0  0  0  0  0  0  0
   -0.0834   -0.2022   -1.1739 H   0  0  0  0  0  0  0  0  0  0  0  0
    1.4608    1.5405    1.8467 H   0  0  0  0  0  0  0  0  0  0  0  0
    2.1651   -0.0011    2.4052 H   0  0  0  0  0  0  0  0  0  0  0  0
    4.0004    1.8878    1.0304 H   0  0  0  0  0  0  0  0  0  0  0  0
    4.7658    0.0112   -0.5415 H   0  0  0  0  0  0  0  0  0  0  0  0
    3.6027   -2.2479   -0.4522 H   0  0  0  0  0  0  0  0  0  0  0  0
    3.5822   -1.8319    1.2749 H   0  0  0  0  0  0  0  0  0  0  0  0
    2.0781    2.1173   -1.7252 H   0  0  0  0  0  0  0  0  0  0  0  0
  1  2  1  0
  2  3  1  0
  3  4  1  0
  4  5  1  0
  5  6  1  0
  6  7  1  0
  5  8  1  0
  8  9  1  0
  7  2  1  0
  8  2  1  0
  8  4  1  0
  1 10  1  0
  1 11  1  0
  1 12  1  0
  3 13  1  0
  3 14  1  0
  4 15  1  0
  5 16  1  0
  6 17  1  0
  6 18  1  0
  9 19  1  0
M  END
$$$$
