
     RDKit          3D

 19 21  0  0  0  0  0  0  0  0999 V2000
    1.3941    0.7571    0.0631 O   0  0  0  0  0  0  0  0  0  0  0  0
    0.3225   -0.0730    0.4800 C   0  0  0  0  0  0  0  0  0  0  0  0
   -0.8643    0.7327    1.0245 C   0  0  0  0  0  0  0  0  0  0  0  0
   -1.9928   -0.1407    1.4755 C   0  0  0  0  0  0  0  0  0  0  0  0
   -1.7495   -1.0947    2.5660 O   0  0  0  0  0  0  0  0  0  0  0  0
   -3.1456   -1.2957    2.2051 C   0  0  0  0  0  0  0  0  0  0  0  0
   -3.4425    0.2137    1.9539 C   0  0  0  0  0  0  0  0  0  0  0  0
   -4.0464   -0.0689    0.5616 C   0  0  0  0  0  0  0  0  0  0  0  0
   -2.9235   -1.1222    0.6737 C   0  0  0  0  0  0  0  0  0  0  0  0
    1.7725    1.1655    0.8481 H   0  0  0  0  0  0  0  0  0  0  0  0
    0.0137   -0.6304   -0.4106 H   0  0  0  0  0  0  0  0  0  0  0  0
    0.6420   -0.8095    1.2302 H   0  0  0  0  0  0  0  0  0  0  0  0
   -0.5343    1.3423    1.8767 H   0  0  0  0  0  0  0  0  0  0  0  0
   -1.2225    1.4240    0.2527 H   0  0  0  0  0  0  0  0  0  0  0  0
   -3.7249   -2.0422    2.7474 H   0  0  0  0  0  0  0  0  0  0  0  0
   -3.7136    0.9585    2.7025 H   0  0  0  0  0  0  0  0  0  0  0  0
   -5.0712   -0.4496    0.5437 H   0  0  0  0  0  0  0  0  0  0  0  0
   -3.9174    0.7079   -0.1971 H   0  0  0  0  0  0  0  0  0  0  0  0
   -2.6095   -1.8934   -0.0300 H   0  0  0  0  0  0  0  0  0  0  0  0
  1  2  1  0
  2  3  1  0
  3  4  1  0
  4  5  1  0
  5  6  1  0
  6  7  1  0
  7  8  1  0
  8  9  1  0
  7  4  1  0
  9  4  1  0
  9  6  1  0
  1 10  1  0
  2 11  1  0
  2 12  1  0
  3 13  1  0
  3 14  1  0
  6 15  1  0
  7 16  1  0
  8 17  1  0
  8 18  1  0
  9 19  1  0
M  END
$$$$
