
     RDKit          3D

 19 19  0  0  0  0  0  0  0  0999 V2000
   -0.6397   -1.9770   -2.4608 O   0  0  0  0  0  0  0  0  0  0  0  0
   -0.3666   -1.0250   -1.4306 C   0  0  0  0  0  0  0  0  0  0  0  0
   -1.2863    0.1473   -1.6523 C   0  0  0  0  0  0  0  0  0  0  0  0
   -0.8816    1.3226   -2.1324 C   0  0  0  0  0  0  0  0  0  0  0  0
    0.5375    1.6192   -2.5328 C   0  0  0  0  0  0  0  0  0  0  0  0
    1.3878    0.3446   -2.6261 C   0  0  0  0  0  0  0  0  0  0  0  0
    1.1260   -0.6108   -1.4404 C   0  0  0  0  0  0  0  0  0  0  0  0
    1.5299    0.0172   -0.1206 C   0  0  0  0  0  0  0  0  0  0  0  0
    2.5074   -0.3010    0.5094 O   0  0  0  0  0  0  0  0  0  0  0  0
   -0.2163   -2.8071   -2.2153 H   0  0  0  0  0  0  0  0  0  0  0  0
   -0.6045   -1.4727   -0.4517 H   0  0  0  0  0  0  0  0  0  0  0  0
   -2.3327   -0.0189   -1.4130 H   0  0  0  0  0  0  0  0  0  0  0  0
   -1.6026    2.1285   -2.2504 H   0  0  0  0  0  0  0  0  0  0  0  0
    0.5430    2.1395   -3.4984 H   0  0  0  0  0  0  0  0  0  0  0  0
    0.9768    2.3334   -1.8207 H   0  0  0  0  0  0  0  0  0  0  0  0
    1.1215   -0.2013   -3.5371 H   0  0  0  0  0  0  0  0  0  0  0  0
    2.4519    0.5908   -2.6876 H   0  0  0  0  0  0  0  0  0  0  0  0
    1.7431   -1.5088   -1.5536 H   0  0  0  0  0  0  0  0  0  0  0  0
    0.8502    0.8164    0.2530 H   0  0  0  0  0  0  0  0  0  0  0  0
  1  2  1  0
  2  3  1  0
  3  4  2  0
  4  5  1  0
  5  6  1  0
  6  7  1  0
  7  8  1  0
  8  9  2  0
  7  2  1  0
  1 10  1  0
  2 11  1  0
  3 12  1  0
  4 13  1  0
  5 14  1  0
  5 15  1  0
  6 16  1  0
  6 17  1  0
  7 18  1  0
  8 19  1  0
M  END
$$$$
