
     RDKit          3D

 19 20  0  0  0  0  0  0  0  0999 V2000
    1.4390    0.5044   -0.2895 O   0  0  0  0  0  0  0  0  0  0  0  0
    0.0571    0.4171   -0.0117 C   0  0  0  0  0  0  0  0  0  0  0  0
   -0.8193    0.4464   -1.2814 C   0  0  0  0  0  0  0  0  0  0  0  0
   -2.3000    0.2107   -0.9050 C   0  0  0  0  0  0  0  0  0  0  0  0
   -2.6552   -1.2484   -0.7518 C   0  0  0  0  0  0  0  0  0  0  0  0
   -2.0148   -2.2269   -1.3935 C   0  0  0  0  0  0  0  0  0  0  0  0
   -0.9131   -1.9196   -2.3384 C   0  0  0  0  0  0  0  0  0  0  0  0
    0.4111   -1.7009   -1.7959 O   0  0  0  0  0  0  0  0  0  0  0  0
   -0.3244   -0.5749   -2.3104 C   0  0  0  0  0  0  0  0  0  0  0  0
    1.6912   -0.3491   -0.6607 H   0  0  0  0  0  0  0  0  0  0  0  0
   -0.1800   -0.4855    0.5685 H   0  0  0  0  0  0  0  0  0  0  0  0
   -0.1942    1.2845    0.6088 H   0  0  0  0  0  0  0  0  0  0  0  0
   -0.7176    1.4405   -1.7293 H   0  0  0  0  0  0  0  0  0  0  0  0
   -2.5235    0.7414    0.0287 H   0  0  0  0  0  0  0  0  0  0  0  0
   -2.9627    0.6606   -1.6577 H   0  0  0  0  0  0  0  0  0  0  0  0
   -3.4862   -1.4891   -0.0933 H   0  0  0  0  0  0  0  0  0  0  0  0
   -2.3020   -3.2661   -1.2634 H   0  0  0  0  0  0  0  0  0  0  0  0
   -0.8963   -2.4874   -3.2680 H   0  0  0  0  0  0  0  0  0  0  0  0
    0.0964   -0.1727   -3.2302 H   0  0  0  0  0  0  0  0  0  0  0  0
  1  2  1  0
  2  3  1  0
  3  4  1  0
  4  5  1  0
  5  6  2  0
  6  7  1  0
  7  8  1  0
  8  9  1  0
  9  3  1  0
  9  7  1  0
  1 10  1  0
  2 11  1  0
  2 12  1  0
  3 13  1  0
  4 14  1  0
  4 15  1  0
  5 16  1  0
  6 17  1  0
  7 18  1  0
  9 19  1  0
M  END
$$$$
