gdb 2084	2.2500527	1.849516	1.2198121	3.079	75.8	-0.2409	-0.01948	0.22142	1056.3526	0.158117	-422.584266	-422.576226	-422.575281	-422.616498	31.731
 OpenBabel02181911403D

 19 20  0  0  1  0  0  0  0  0999 V2000
   -0.2242    2.4901   -0.2729 O   0  0  0  0  0  0  0  0  0  0  0  0
   -0.9395    1.3530    0.0670 C   0  0  1  0  0  0  0  0  0  0  0  0
   -2.0754    1.5084    1.0663 C   0  0  0  0  0  0  0  0  0  0  0  0
   -2.3925    1.2324   -0.3790 C   0  0  2  0  0  0  0  0  0  0  0  0
   -2.9685   -0.1265   -0.7859 C   0  0  0  0  0  0  0  0  0  0  0  0
   -1.9047   -1.2187   -0.9841 C   0  0  0  0  0  0  0  0  0  0  0  0
   -0.8470   -1.2057    0.1405 C   0  0  0  0  0  0  0  0  0  0  0  0
   -0.1125    0.1163    0.0927 C   0  0  0  0  0  0  0  0  0  0  0  0
    1.0970    0.2120   -0.0178 O   0  0  0  0  0  0  0  0  0  0  0  0
    0.7001    2.1911   -0.2915 H   0  0  0  0  0  0  0  0  0  0  0  0
   -2.2541    0.7268    1.7981 H   0  0  0  0  0  0  0  0  0  0  0  0
   -2.2040    2.5207    1.4320 H   0  0  0  0  0  0  0  0  0  0  0  0
   -2.7308    2.0922   -0.9481 H   0  0  0  0  0  0  0  0  0  0  0  0
   -3.6847   -0.4531   -0.0209 H   0  0  0  0  0  0  0  0  0  0  0  0
   -3.5409   -0.0134   -1.7118 H   0  0  0  0  0  0  0  0  0  0  0  0
   -2.3802   -2.2035   -1.0372 H   0  0  0  0  0  0  0  0  0  0  0  0
   -1.3929   -1.0656   -1.9420 H   0  0  0  0  0  0  0  0  0  0  0  0
   -1.3366   -1.3359    1.1140 H   0  0  0  0  0  0  0  0  0  0  0  0
   -0.1132   -2.0061    0.0234 H   0  0  0  0  0  0  0  0  0  0  0  0
  2  1  1  6  0  0  0
  2  8  1  0  0  0  0
  2  3  1  0  0  0  0
  3 12  1  0  0  0  0
  3 11  1  0  0  0  0
  4 13  1  6  0  0  0
  4  2  1  0  0  0  0
  4  3  1  0  0  0  0
  5  4  1  0  0  0  0
  5 14  1  0  0  0  0
  6  5  1  0  0  0  0
  6  7  1  0  0  0  0
  7 18  1  0  0  0  0
  8  7  1  0  0  0  0
  9  8  2  0  0  0  0
 10  1  1  0  0  0  0
 15  5  1  0  0  0  0
 16  6  1  0  0  0  0
 17  6  1  0  0  0  0
 19  7  1  0  0  0  0
M TOR 0 0 1 2 3
M TOR 1 0 1 2 10
M TOR 2 0 1 2 11
M TOR 3 0 1 3 4
M TOR 4 0 1 3 12
M TOR 5 0 1 7 6
M TOR 6 0 1 7 8
M TOR 7 1 2 3 4
M TOR 8 1 2 3 12
M TOR 9 1 3 2 10
M TOR 10 1 3 2 11
M TOR 11 1 3 4 5
M TOR 12 1 3 4 13
M TOR 13 1 3 4 14
M TOR 14 1 7 6 5
M TOR 15 1 7 6 17
M TOR 16 1 7 6 18
M TOR 17 2 1 0 9
M TOR 18 2 1 7 6
M TOR 19 2 1 7 8
M TOR 20 2 3 1 7
M TOR 21 2 3 4 5
M TOR 22 2 3 4 13
M TOR 23 2 3 4 14
M TOR 24 3 1 0 9
M TOR 25 3 1 7 6
M TOR 26 3 1 7 8
M TOR 27 3 4 5 6
M TOR 28 3 4 5 15
M TOR 29 3 4 5 16
M TOR 30 4 3 1 7
M TOR 31 4 3 2 10
M TOR 32 4 3 2 11
M TOR 33 4 5 6 7
M TOR 34 4 5 6 17
M TOR 35 4 5 6 18
M TOR 36 5 4 3 12
M TOR 37 5 6 7 8
M TOR 38 6 5 4 13
M TOR 39 6 5 4 14
M TOR 40 7 1 0 9
M TOR 41 7 1 2 10
M TOR 42 7 1 2 11
M TOR 43 7 1 3 12
M TOR 44 7 6 5 15
M TOR 45 7 6 5 16
M TOR 46 8 7 6 17
M TOR 47 8 7 6 18
M  END
$$$$
