
     RDKit          3D

 19 20  0  0  0  0  0  0  0  0999 V2000
    1.1589   -0.2933    0.9124 C   0  0  0  0  0  0  0  0  0  0  0  0
    0.9482    0.2774   -0.4970 C   0  0  0  0  0  0  0  0  0  0  0  0
    1.6957   -0.5119   -1.5524 C   0  0  0  0  0  0  0  0  0  0  0  0
    1.2214   -1.9605   -1.9301 C   0  0  0  0  0  0  0  0  0  0  0  0
    1.2962   -1.5944   -3.4445 C   0  0  0  0  0  0  0  0  0  0  0  0
    1.8197   -0.1960   -3.0712 C   0  0  0  0  0  0  0  0  0  0  0  0
    3.2793   -0.1766   -2.9503 O   0  0  0  0  0  0  0  0  0  0  0  0
    3.2208   -0.4161   -1.5954 C   0  0  0  0  0  0  0  0  0  0  0  0
    4.1333   -0.4911   -0.8344 O   0  0  0  0  0  0  0  0  0  0  0  0
    0.7922   -1.3229    0.9817 H   0  0  0  0  0  0  0  0  0  0  0  0
    2.2207   -0.2970    1.1725 H   0  0  0  0  0  0  0  0  0  0  0  0
    0.6221    0.3027    1.6558 H   0  0  0  0  0  0  0  0  0  0  0  0
   -0.1209    0.2809   -0.7455 H   0  0  0  0  0  0  0  0  0  0  0  0
    1.2782    1.3232   -0.5246 H   0  0  0  0  0  0  0  0  0  0  0  0
    1.8649   -2.7728   -1.5875 H   0  0  0  0  0  0  0  0  0  0  0  0
    0.2037   -2.1562   -1.5846 H   0  0  0  0  0  0  0  0  0  0  0  0
    1.9823   -2.1770   -4.0614 H   0  0  0  0  0  0  0  0  0  0  0  0
    0.3175   -1.5693   -3.9293 H   0  0  0  0  0  0  0  0  0  0  0  0
    1.4576    0.7027   -3.5689 H   0  0  0  0  0  0  0  0  0  0  0  0
  1  2  1  0
  2  3  1  0
  3  4  1  0
  4  5  1  0
  5  6  1  0
  6  7  1  0
  7  8  1  0
  8  9  2  0
  6  3  1  0
  8  3  1  0
  1 10  1  0
  1 11  1  0
  1 12  1  0
  2 13  1  0
  2 14  1  0
  4 15  1  0
  4 16  1  0
  5 17  1  0
  5 18  1  0
  6 19  1  0
M  END
$$$$
