
     RDKit          3D

 19 19  0  0  0  0  0  0  0  0999 V2000
    1.2088   -0.1570    1.0851 C   0  0  0  0  0  0  0  0  0  0  0  0
    0.8806    0.2521   -0.3545 C   0  0  0  0  0  0  0  0  0  0  0  0
    1.6323   -0.5554   -1.3867 C   0  0  0  0  0  0  0  0  0  0  0  0
    3.0257   -0.3752   -1.3468 O   0  0  0  0  0  0  0  0  0  0  0  0
    1.1188   -0.7840   -2.7763 C   0  0  0  0  0  0  0  0  0  0  0  0
    2.0083   -0.7230   -3.8281 O   0  0  0  0  0  0  0  0  0  0  0  0
    1.1516   -1.9658   -1.7761 C   0  0  0  0  0  0  0  0  0  0  0  0
    2.1391   -2.9888   -1.8930 C   0  0  0  0  0  0  0  0  0  0  0  0
    3.0310   -3.7974   -1.9522 C   0  0  0  0  0  0  0  0  0  0  0  0
    0.9358   -1.2009    1.2729 H   0  0  0  0  0  0  0  0  0  0  0  0
    2.2793   -0.0477    1.2796 H   0  0  0  0  0  0  0  0  0  0  0  0
    0.6681    0.4670    1.8023 H   0  0  0  0  0  0  0  0  0  0  0  0
   -0.1943    0.1493   -0.5451 H   0  0  0  0  0  0  0  0  0  0  0  0
    1.1252    1.3107   -0.5072 H   0  0  0  0  0  0  0  0  0  0  0  0
    3.4379   -1.2237   -1.1294 H   0  0  0  0  0  0  0  0  0  0  0  0
    0.1276   -0.4258   -3.0394 H   0  0  0  0  0  0  0  0  0  0  0  0
    2.8647   -0.4968   -3.4339 H   0  0  0  0  0  0  0  0  0  0  0  0
    0.1906   -2.2697   -1.3709 H   0  0  0  0  0  0  0  0  0  0  0  0
    3.7825   -4.5425   -2.0407 H   0  0  0  0  0  0  0  0  0  0  0  0
  1  2  1  0
  2  3  1  0
  3  4  1  0
  3  5  1  0
  5  6  1  0
  5  7  1  0
  7  8  1  0
  8  9  3  0
  7  3  1  0
  1 10  1  0
  1 11  1  0
  1 12  1  0
  2 13  1  0
  2 14  1  0
  4 15  1  0
  5 16  1  0
  6 17  1  0
  7 18  1  0
  9 19  1  0
M  END
$$$$
