gdb 1801	2.8253739	1.8208221	1.4349386	1.5032	73.4	-0.24	0.06536	0.30535999999999996	953.0474	0.159321	-422.533656	-422.526623	-422.525679	-422.564564	29.248
 OpenBabel02181911403D

 19 21  0  0  1  0  0  0  0  0999 V2000
    0.6738    0.5652    0.6543 O   0  0  0  0  0  0  0  0  0  0  0  0
   -0.6809    0.8128    0.4525 C   0  0  1  0  0  0  0  0  0  0  0  0
   -1.5214    1.7699    1.3498 C   0  0  0  0  0  0  0  0  0  0  0  0
   -2.4383    1.8126    0.0933 C   0  0  1  0  0  0  0  0  0  0  0  0
   -1.1198    1.7074   -0.7426 C   0  0  0  0  0  0  0  0  0  0  0  0
   -2.9551    0.3638   -0.0437 C   0  0  2  0  0  0  0  0  0  0  0  0
   -3.4837   -0.3859    1.1959 C   0  0  0  0  0  0  0  0  0  0  0  0
   -2.1835   -0.9712    1.4565 O   0  0  0  0  0  0  0  0  0  0  0  0
   -1.6327   -0.3840    0.2526 C   0  0  2  0  0  0  0  0  0  0  0  0
    0.7577   -0.0454    1.3953 H   0  0  0  0  0  0  0  0  0  0  0  0
   -1.9141    1.3861    2.2923 H   0  0  0  0  0  0  0  0  0  0  0  0
   -1.0021    2.7170    1.5063 H   0  0  0  0  0  0  0  0  0  0  0  0
   -3.1474    2.6241   -0.0619 H   0  0  0  0  0  0  0  0  0  0  0  0
   -1.1720    1.2539   -1.7375 H   0  0  0  0  0  0  0  0  0  0  0  0
   -0.5564    2.6416   -0.7774 H   0  0  0  0  0  0  0  0  0  0  0  0
   -3.4744    0.1757   -0.9840 H   0  0  0  0  0  0  0  0  0  0  0  0
   -3.8425    0.2233    2.0340 H   0  0  0  0  0  0  0  0  0  0  0  0
   -4.2271   -1.1609    0.9731 H   0  0  0  0  0  0  0  0  0  0  0  0
   -1.2368   -1.1407   -0.4322 H   0  0  0  0  0  0  0  0  0  0  0  0
  1 10  1  0  0  0  0
  2  1  1  1  0  0  0
  2  3  1  0  0  0  0
  3 12  1  0  0  0  0
  3 11  1  0  0  0  0
  4 13  1  6  0  0  0
  4  3  1  0  0  0  0
  5  4  1  0  0  0  0
  5  2  1  0  0  0  0
  6 16  1  6  0  0  0
  6  4  1  0  0  0  0
  6  9  1  0  0  0  0
  6  7  1  0  0  0  0
  7  8  1  0  0  0  0
  7 17  1  0  0  0  0
  9 19  1  6  0  0  0
  9  2  1  0  0  0  0
  9  8  1  0  0  0  0
 14  5  1  0  0  0  0
 15  5  1  0  0  0  0
 18  7  1  0  0  0  0
M TOR 0 0 1 2 3
M TOR 1 0 1 2 10
M TOR 2 0 1 2 11
M TOR 3 0 1 4 3
M TOR 4 0 1 4 13
M TOR 5 0 1 4 14
M TOR 6 0 1 8 5
M TOR 7 0 1 8 7
M TOR 8 0 1 8 18
M TOR 9 1 2 3 4
M TOR 10 1 2 3 5
M TOR 11 1 2 3 12
M TOR 12 1 4 3 5
M TOR 13 1 4 3 12
M TOR 14 1 8 5 3
M TOR 15 1 8 5 6
M TOR 16 1 8 5 15
M TOR 17 1 8 7 6
M TOR 18 2 1 0 9
M TOR 19 2 1 4 13
M TOR 20 2 1 4 14
M TOR 21 2 1 8 5
M TOR 22 2 1 8 7
M TOR 23 2 1 8 18
M TOR 24 2 3 4 13
M TOR 25 2 3 4 14
M TOR 26 2 3 5 6
M TOR 27 2 3 5 8
M TOR 28 2 3 5 15
M TOR 29 3 2 1 8
M TOR 30 3 4 1 8
M TOR 31 3 5 6 7
M TOR 32 3 5 6 16
M TOR 33 3 5 6 17
M TOR 34 3 5 8 7
M TOR 35 3 5 8 18
M TOR 36 4 1 0 9
M TOR 37 4 1 2 10
M TOR 38 4 1 2 11
M TOR 39 4 1 8 5
M TOR 40 4 1 8 7
M TOR 41 4 1 8 18
M TOR 42 4 3 2 10
M TOR 43 4 3 2 11
M TOR 44 4 3 5 6
M TOR 45 4 3 5 8
M TOR 46 4 3 5 15
M TOR 47 5 3 2 10
M TOR 48 5 3 2 11
M TOR 49 5 3 4 13
M TOR 50 5 3 4 14
M TOR 51 5 6 7 8
M TOR 52 6 5 3 12
M TOR 53 6 5 8 18
M TOR 54 6 7 8 18
M TOR 55 7 6 5 15
M TOR 56 7 8 5 15
M TOR 57 8 1 0 9
M TOR 58 8 1 2 10
M TOR 59 8 1 2 11
M TOR 60 8 1 4 13
M TOR 61 8 1 4 14
M TOR 62 8 5 3 12
M TOR 63 8 5 6 16
M TOR 64 8 5 6 17
M TOR 65 8 7 6 16
M TOR 66 8 7 6 17
M  END
$$$$
