
     RDKit          3D

 19 19  0  0  0  0  0  0  0  0999 V2000
    2.5904    0.4505   -1.9789 C   0  0  0  0  0  0  0  0  0  0  0  0
    1.8963    0.6180   -0.6258 C   0  0  0  0  0  0  0  0  0  0  0  0
    2.3749    1.8611    0.1324 C   0  0  0  0  0  0  0  0  0  0  0  0
    3.7711    1.8485    0.3864 O   0  0  0  0  0  0  0  0  0  0  0  0
    1.6024    2.0609    1.4396 C   0  0  0  0  0  0  0  0  0  0  0  0
    1.1582    3.4095    1.8394 C   0  0  0  0  0  0  0  0  0  0  0  0
    0.2361    2.4751    1.2801 O   0  0  0  0  0  0  0  0  0  0  0  0
    1.8587    1.0657    2.4571 C   0  0  0  0  0  0  0  0  0  0  0  0
    2.1264    0.2172    3.2668 C   0  0  0  0  0  0  0  0  0  0  0  0
    2.2638   -0.4666   -2.4776 H   0  0  0  0  0  0  0  0  0  0  0  0
    2.3652    1.2912   -2.6446 H   0  0  0  0  0  0  0  0  0  0  0  0
    3.6758    0.4080   -1.8545 H   0  0  0  0  0  0  0  0  0  0  0  0
    0.8106    0.6960   -0.7562 H   0  0  0  0  0  0  0  0  0  0  0  0
    2.0720   -0.2650    0.0030 H   0  0  0  0  0  0  0  0  0  0  0  0
    2.1987    2.7489   -0.4856 H   0  0  0  0  0  0  0  0  0  0  0  0
    3.9481    1.1098    0.9823 H   0  0  0  0  0  0  0  0  0  0  0  0
    1.0135    3.6334    2.8942 H   0  0  0  0  0  0  0  0  0  0  0  0
    1.4195    4.2550    1.2049 H   0  0  0  0  0  0  0  0  0  0  0  0
    2.3396   -0.5244    3.9973 H   0  0  0  0  0  0  0  0  0  0  0  0
  1  2  1  0
  2  3  1  0
  3  4  1  0
  3  5  1  0
  5  6  1  0
  6  7  1  0
  5  8  1  0
  8  9  3  0
  7  5  1  0
  1 10  1  0
  1 11  1  0
  1 12  1  0
  2 13  1  0
  2 14  1  0
  3 15  1  0
  4 16  1  0
  6 17  1  0
  6 18  1  0
  9 19  1  0
M  END
$$$$
