
     RDKit          3D

 19 19  0  0  0  0  0  0  0  0999 V2000
    0.3433   -0.2623   -0.7022 C   0  0  0  0  0  0  0  0  0  0  0  0
    1.2331    0.3033    0.3821 C   0  0  0  0  0  0  0  0  0  0  0  0
    1.2945   -0.6244    1.4392 O   0  0  0  0  0  0  0  0  0  0  0  0
    2.1247   -0.1645    2.4948 C   0  0  0  0  0  0  0  0  0  0  0  0
    3.5324    0.1424    1.9811 C   0  0  0  0  0  0  0  0  0  0  0  0
    3.4135    1.0969    0.7780 C   0  0  0  0  0  0  0  0  0  0  0  0
    2.5073    0.5467   -0.1789 O   0  0  0  0  0  0  0  0  0  0  0  0
    4.6938    1.3463    0.1269 C   0  0  0  0  0  0  0  0  0  0  0  0
    5.7667    1.5535   -0.3710 C   0  0  0  0  0  0  0  0  0  0  0  0
   -0.6546   -0.4535   -0.3013 H   0  0  0  0  0  0  0  0  0  0  0  0
    0.2712    0.4440   -1.5319 H   0  0  0  0  0  0  0  0  0  0  0  0
    0.7670   -1.2006   -1.0678 H   0  0  0  0  0  0  0  0  0  0  0  0
    0.8353    1.2612    0.7747 H   0  0  0  0  0  0  0  0  0  0  0  0
    1.6847    0.7384    2.9526 H   0  0  0  0  0  0  0  0  0  0  0  0
    2.1367   -0.9537    3.2508 H   0  0  0  0  0  0  0  0  0  0  0  0
    4.1451    0.5962    2.7664 H   0  0  0  0  0  0  0  0  0  0  0  0
    4.0191   -0.7790    1.6490 H   0  0  0  0  0  0  0  0  0  0  0  0
    3.0066    2.0601    1.1364 H   0  0  0  0  0  0  0  0  0  0  0  0
    6.7098    1.7385   -0.8231 H   0  0  0  0  0  0  0  0  0  0  0  0
  1  2  1  0
  2  3  1  0
  3  4  1  0
  4  5  1  0
  5  6  1  0
  6  7  1  0
  6  8  1  0
  8  9  3  0
  7  2  1  0
  1 10  1  0
  1 11  1  0
  1 12  1  0
  2 13  1  0
  4 14  1  0
  4 15  1  0
  5 16  1  0
  5 17  1  0
  6 18  1  0
  9 19  1  0
M  END
$$$$
