
     RDKit          3D

 19 20  0  0  0  0  0  0  0  0999 V2000
    1.0222   -0.8382   -0.3005 O   0  0  0  0  0  0  0  0  0  0  0  0
    0.5339    0.2229    0.0027 C   0  0  0  0  0  0  0  0  0  0  0  0
    0.0434    1.2417   -0.9598 C   0  0  0  0  0  0  0  0  0  0  0  0
   -1.0701    2.1475   -0.4327 C   0  0  0  0  0  0  0  0  0  0  0  0
    0.3108    2.6957   -0.5370 C   0  0  0  0  0  0  0  0  0  0  0  0
    0.5843    3.6516   -1.5107 O   0  0  0  0  0  0  0  0  0  0  0  0
    1.1760    3.1503   -2.7075 C   0  0  0  0  0  0  0  0  0  0  0  0
    0.2788    2.0992   -3.3502 C   0  0  0  0  0  0  0  0  0  0  0  0
    0.1566    0.8734   -2.4310 C   0  0  0  0  0  0  0  0  0  0  0  0
    0.4221    0.5161    1.0736 H   0  0  0  0  0  0  0  0  0  0  0  0
   -1.7917    2.5009   -1.1602 H   0  0  0  0  0  0  0  0  0  0  0  0
   -1.4773    1.9287    0.5494 H   0  0  0  0  0  0  0  0  0  0  0  0
    0.8738    2.8534    0.3816 H   0  0  0  0  0  0  0  0  0  0  0  0
    1.3034    4.0240   -3.3516 H   0  0  0  0  0  0  0  0  0  0  0  0
    2.1726    2.7308   -2.4971 H   0  0  0  0  0  0  0  0  0  0  0  0
   -0.7010    2.5529   -3.5410 H   0  0  0  0  0  0  0  0  0  0  0  0
    0.6867    1.7958   -4.3202 H   0  0  0  0  0  0  0  0  0  0  0  0
   -0.6880    0.2434   -2.7300 H   0  0  0  0  0  0  0  0  0  0  0  0
    1.0512    0.2498   -2.5314 H   0  0  0  0  0  0  0  0  0  0  0  0
  1  2  2  0
  2  3  1  0
  3  4  1  0
  4  5  1  0
  5  6  1  0
  6  7  1  0
  7  8  1  0
  8  9  1  0
  5  3  1  0
  9  3  1  0
  2 10  1  0
  4 11  1  0
  4 12  1  0
  5 13  1  0
  7 14  1  0
  7 15  1  0
  8 16  1  0
  8 17  1  0
  9 18  1  0
  9 19  1  0
M  END
$$$$
