
     RDKit          3D

 19 20  0  0  0  0  0  0  0  0999 V2000
    2.0740   -1.4709   -0.2215 C   0  0  0  0  0  0  0  0  0  0  0  0
    1.4776   -0.3227    0.5948 C   0  0  0  0  0  0  0  0  0  0  0  0
    2.0065    1.0529    0.1536 C   0  0  0  0  0  0  0  0  0  0  0  0
    1.4119    2.1685    0.9488 C   0  0  0  0  0  0  0  0  0  0  0  0
    1.8640    2.3870    2.3126 O   0  0  0  0  0  0  0  0  0  0  0  0
    1.8940    3.4965    1.4207 C   0  0  0  0  0  0  0  0  0  0  0  0
    0.4905    4.1141    1.4709 C   0  0  0  0  0  0  0  0  0  0  0  0
   -0.0132    2.7321    0.9471 C   0  0  0  0  0  0  0  0  0  0  0  0
   -1.0618    2.3322    0.5368 O   0  0  0  0  0  0  0  0  0  0  0  0
    1.6831   -2.4369    0.1118 H   0  0  0  0  0  0  0  0  0  0  0  0
    1.8377   -1.3659   -1.2863 H   0  0  0  0  0  0  0  0  0  0  0  0
    3.1651   -1.5018   -0.1258 H   0  0  0  0  0  0  0  0  0  0  0  0
    0.3853   -0.3256    0.5044 H   0  0  0  0  0  0  0  0  0  0  0  0
    1.7034   -0.4618    1.6583 H   0  0  0  0  0  0  0  0  0  0  0  0
    3.0979    1.0899    0.2534 H   0  0  0  0  0  0  0  0  0  0  0  0
    1.7732    1.2155   -0.9066 H   0  0  0  0  0  0  0  0  0  0  0  0
    2.8475    3.9709    1.2230 H   0  0  0  0  0  0  0  0  0  0  0  0
    0.1535    4.4344    2.4584 H   0  0  0  0  0  0  0  0  0  0  0  0
    0.2943    4.8975    0.7323 H   0  0  0  0  0  0  0  0  0  0  0  0
  1  2  1  0
  2  3  1  0
  3  4  1  0
  4  5  1  0
  5  6  1  0
  6  7  1  0
  7  8  1  0
  8  9  2  0
  6  4  1  0
  8  4  1  0
  1 10  1  0
  1 11  1  0
  1 12  1  0
  2 13  1  0
  2 14  1  0
  3 15  1  0
  3 16  1  0
  6 17  1  0
  7 18  1  0
  7 19  1  0
M  END
$$$$
