gdb 5347	2.7294613	1.4737433	1.1916405	2.1067	76.24	-0.23051	-0.00523	0.22527999999999998	1096.538	0.156327	-422.520303	-422.511751	-422.510807	-422.5533	32.762
 OpenBabel02181911423D

 19 20  0  0  1  0  0  0  0  0999 V2000
    2.3958   -0.8279   -0.9128 C   0  0  0  0  0  0  0  0  0  0  0  0
    2.2148   -0.5584    0.5534 C   0  0  2  0  0  0  0  0  0  0  0  0
    3.0833    0.4304    1.3992 C   0  0  0  0  0  0  0  0  0  0  0  0
    2.5643   -0.5674    2.4726 C   0  0  2  0  0  0  0  0  0  0  0  0
    2.6821   -1.6220    1.4642 O   0  0  0  0  0  0  0  0  0  0  0  0
    1.0521   -0.2818    2.4524 C   0  0  0  0  0  0  0  0  0  0  0  0
    0.7997   -0.2790    1.1404 C   0  0  0  0  0  0  0  0  0  0  0  0
   -0.4475   -0.0490    0.3598 C   0  0  0  0  0  0  0  0  0  0  0  0
   -0.3309    1.0688   -0.5243 O   0  0  0  0  0  0  0  0  0  0  0  0
    1.8674   -1.7438   -1.1976 H   0  0  0  0  0  0  0  0  0  0  0  0
    1.9812   -0.0012   -1.4958 H   0  0  0  0  0  0  0  0  0  0  0  0
    3.4532   -0.9537   -1.1594 H   0  0  0  0  0  0  0  0  0  0  0  0
    4.1518    0.3179    1.1982 H   0  0  0  0  0  0  0  0  0  0  0  0
    2.7840    1.4793    1.4623 H   0  0  0  0  0  0  0  0  0  0  0  0
    3.0731   -0.7757    3.4124 H   0  0  0  0  0  0  0  0  0  0  0  0
    0.3942   -0.1322    3.2969 H   0  0  0  0  0  0  0  0  0  0  0  0
   -0.6615   -0.9026   -0.2942 H   0  0  0  0  0  0  0  0  0  0  0  0
   -1.3047    0.0646    1.0399 H   0  0  0  0  0  0  0  0  0  0  0  0
   -0.1225    1.8374    0.0176 H   0  0  0  0  0  0  0  0  0  0  0  0
  2  1  1  6  0  0  0
  2  7  1  0  0  0  0
  2  3  1  0  0  0  0
  2  5  1  0  0  0  0
  3 14  1  0  0  0  0
  3  4  1  0  0  0  0
  4 15  1  1  0  0  0
  5  4  1  0  0  0  0
  6  4  1  0  0  0  0
  6 16  1  0  0  0  0
  7  6  2  0  0  0  0
  8 18  1  0  0  0  0
  8  7  1  0  0  0  0
  9 19  1  0  0  0  0
  9  8  1  0  0  0  0
 10  1  1  0  0  0  0
 11  1  1  0  0  0  0
 12  1  1  0  0  0  0
 13  3  1  0  0  0  0
 17  8  1  0  0  0  0
M TOR 0 0 1 2 3
M TOR 1 0 1 2 12
M TOR 2 0 1 2 13
M TOR 3 0 1 4 3
M TOR 4 0 1 6 5
M TOR 5 0 1 6 7
M TOR 6 1 2 3 4
M TOR 7 1 2 3 5
M TOR 8 1 2 3 14
M TOR 9 1 4 3 5
M TOR 10 1 4 3 14
M TOR 11 1 6 5 3
M TOR 12 1 6 5 15
M TOR 13 1 6 7 8
M TOR 14 1 6 7 16
M TOR 15 1 6 7 17
M TOR 16 2 1 0 9
M TOR 17 2 1 0 10
M TOR 18 2 1 0 11
M TOR 19 2 1 6 5
M TOR 20 2 1 6 7
M TOR 21 2 3 5 6
M TOR 22 2 3 5 15
M TOR 23 3 2 1 6
M TOR 24 3 4 1 6
M TOR 25 3 5 6 7
M TOR 26 4 1 0 9
M TOR 27 4 1 0 10
M TOR 28 4 1 0 11
M TOR 29 4 1 2 12
M TOR 30 4 1 2 13
M TOR 31 4 1 6 5
M TOR 32 4 1 6 7
M TOR 33 4 3 2 12
M TOR 34 4 3 2 13
M TOR 35 4 3 5 6
M TOR 36 4 3 5 15
M TOR 37 5 3 2 12
M TOR 38 5 3 2 13
M TOR 39 5 6 7 8
M TOR 40 5 6 7 16
M TOR 41 5 6 7 17
M TOR 42 6 1 0 9
M TOR 43 6 1 0 10
M TOR 44 6 1 0 11
M TOR 45 6 1 2 12
M TOR 46 6 1 2 13
M TOR 47 6 5 3 14
M TOR 48 6 7 8 18
M TOR 49 7 6 5 15
M  END
$$$$
