gdb 2566	2.7638866	1.2995495	1.0242757	2.6672	78.74	-0.22941	-0.01399	0.21542	1211.8617	0.156678	-422.576562	-422.567835	-422.566891	-422.610105	32.524
 OpenBabel02181911413D

 19 19  0  0  0  0  0  0  0  0999 V2000
    1.1563    0.7562   -0.5098 C   0  0  0  0  0  0  0  0  0  0  0  0
   -0.0650   -0.0962   -0.2790 C   0  0  0  0  0  0  0  0  0  0  0  0
    0.0192   -1.3104    0.2726 C   0  0  0  0  0  0  0  0  0  0  0  0
   -1.1209   -2.2572    0.5943 C   0  0  0  0  0  0  0  0  0  0  0  0
   -2.1732   -1.5573    1.4467 C   0  0  0  0  0  0  0  0  0  0  0  0
   -2.4221   -1.8519    2.5889 O   0  0  0  0  0  0  0  0  0  0  0  0
   -2.9224   -0.4152    0.7481 C   0  0  0  0  0  0  0  0  0  0  0  0
   -2.5280   -0.2088   -0.5874 O   0  0  0  0  0  0  0  0  0  0  0  0
   -1.3501    0.5556   -0.7368 C   0  0  0  0  0  0  0  0  0  0  0  0
    1.0819    1.7123    0.0246 H   0  0  0  0  0  0  0  0  0  0  0  0
    2.0654    0.2517   -0.1750 H   0  0  0  0  0  0  0  0  0  0  0  0
    1.2755    1.0024   -1.5729 H   0  0  0  0  0  0  0  0  0  0  0  0
    1.0048   -1.6620    0.5671 H   0  0  0  0  0  0  0  0  0  0  0  0
   -1.5996   -2.6150   -0.3248 H   0  0  0  0  0  0  0  0  0  0  0  0
   -0.7560   -3.1189    1.1556 H   0  0  0  0  0  0  0  0  0  0  0  0
   -3.9852   -0.6813    0.7345 H   0  0  0  0  0  0  0  0  0  0  0  0
   -2.8218    0.4973    1.3559 H   0  0  0  0  0  0  0  0  0  0  0  0
   -1.2790    0.7813   -1.8087 H   0  0  0  0  0  0  0  0  0  0  0  0
   -1.4622    1.5292   -0.2234 H   0  0  0  0  0  0  0  0  0  0  0  0
  1  2  1  0  0  0  0
  1 11  1  0  0  0  0
  1 10  1  0  0  0  0
  2  3  2  0  0  0  0
  3 13  1  0  0  0  0
  3  4  1  0  0  0  0
  4 15  1  0  0  0  0
  4  5  1  0  0  0  0
  5  6  2  0  0  0  0
  7 17  1  0  0  0  0
  7  5  1  0  0  0  0
  8  7  1  0  0  0  0
  9  8  1  0  0  0  0
  9  2  1  0  0  0  0
  9 19  1  0  0  0  0
 12  1  1  0  0  0  0
 14  4  1  0  0  0  0
 16  7  1  0  0  0  0
 18  9  1  0  0  0  0
M TOR 0 0 1 2 3
M TOR 1 0 1 2 12
M TOR 2 0 1 8 7
M TOR 3 0 1 8 17
M TOR 4 0 1 8 18
M TOR 5 1 2 3 4
M TOR 6 1 2 3 13
M TOR 7 1 2 3 14
M TOR 8 1 8 7 6
M TOR 9 2 1 0 9
M TOR 10 2 1 0 10
M TOR 11 2 1 0 11
M TOR 12 2 1 8 7
M TOR 13 2 1 8 17
M TOR 14 2 1 8 18
M TOR 15 2 3 4 5
M TOR 16 2 3 4 6
M TOR 17 3 2 1 8
M TOR 18 3 4 6 7
M TOR 19 3 4 6 15
M TOR 20 3 4 6 16
M TOR 21 4 3 2 12
M TOR 22 4 6 7 8
M TOR 23 5 4 3 13
M TOR 24 5 4 3 14
M TOR 25 5 4 6 7
M TOR 26 5 4 6 15
M TOR 27 5 4 6 16
M TOR 28 6 4 3 13
M TOR 29 6 4 3 14
M TOR 30 6 7 8 17
M TOR 31 6 7 8 18
M TOR 32 8 1 0 9
M TOR 33 8 1 0 10
M TOR 34 8 1 0 11
M TOR 35 8 1 2 12
M TOR 36 8 7 6 15
M TOR 37 8 7 6 16
M  END
$$$$
