gdb 1510	3.3865892	1.0808233	1.0133985	3.8556	78.23	-0.23702	-0.02789	0.20913	1245.4025	0.155123	-422.58686	-422.577612	-422.576668	-422.620906	34.301
 OpenBabel02181911403D

 19 19  0  0  1  0  0  0  0  0999 V2000
   -1.1773    2.6024   -2.4857 C   0  0  0  0  0  0  0  0  0  0  0  0
   -0.3580    1.5180   -1.7863 C   0  0  1  0  0  0  0  0  0  0  0  0
    0.3717    0.7545   -2.7679 O   0  0  0  0  0  0  0  0  0  0  0  0
    0.6994    2.0650   -0.7991 C   0  0  0  0  0  0  0  0  0  0  0  0
    0.7723    1.0430    0.3651 C   0  0  2  0  0  0  0  0  0  0  0  0
    1.8904    0.0239    0.1611 C   0  0  0  0  0  0  0  0  0  0  0  0
    2.6415   -0.3480    1.0246 O   0  0  0  0  0  0  0  0  0  0  0  0
   -0.5651    0.3367    0.2562 C   0  0  0  0  0  0  0  0  0  0  0  0
   -1.1738    0.5935   -0.8999 C   0  0  0  0  0  0  0  0  0  0  0  0
   -1.7282    3.2120   -1.7628 H   0  0  0  0  0  0  0  0  0  0  0  0
   -0.5217    3.2545   -3.0704 H   0  0  0  0  0  0  0  0  0  0  0  0
   -1.9066    2.1549   -3.1714 H   0  0  0  0  0  0  0  0  0  0  0  0
   -0.2646    0.2529   -3.2895 H   0  0  0  0  0  0  0  0  0  0  0  0
    1.6539    2.2158   -1.3105 H   0  0  0  0  0  0  0  0  0  0  0  0
    0.3741    3.0298   -0.4014 H   0  0  0  0  0  0  0  0  0  0  0  0
    0.9298    1.5086    1.3423 H   0  0  0  0  0  0  0  0  0  0  0  0
    1.9432   -0.3678   -0.8783 H   0  0  0  0  0  0  0  0  0  0  0  0
   -0.9229   -0.3346    1.0289 H   0  0  0  0  0  0  0  0  0  0  0  0
   -2.1242    0.1770   -1.2193 H   0  0  0  0  0  0  0  0  0  0  0  0
  1  2  1  0  0  0  0
  1 10  1  0  0  0  0
  2  3  1  6  0  0  0
  2  9  1  0  0  0  0
  2  4  1  0  0  0  0
  4 15  1  0  0  0  0
  4  5  1  0  0  0  0
  5 16  1  1  0  0  0
  6  5  1  0  0  0  0
  6  7  2  0  0  0  0
  8  5  1  0  0  0  0
  8 18  1  0  0  0  0
  9  8  2  0  0  0  0
 11  1  1  0  0  0  0
 12  1  1  0  0  0  0
 13  3  1  0  0  0  0
 14  4  1  0  0  0  0
 17  6  1  0  0  0  0
 19  9  1  0  0  0  0
M TOR 0 0 1 2 12
M TOR 1 0 1 3 4
M TOR 2 0 1 3 13
M TOR 3 0 1 3 14
M TOR 4 0 1 8 7
M TOR 5 0 1 8 18
M TOR 6 1 3 4 5
M TOR 7 1 3 4 7
M TOR 8 1 3 4 15
M TOR 9 1 8 7 4
M TOR 10 1 8 7 17
M TOR 11 2 1 0 9
M TOR 12 2 1 0 10
M TOR 13 2 1 0 11
M TOR 14 2 1 3 4
M TOR 15 2 1 3 13
M TOR 16 2 1 3 14
M TOR 17 2 1 8 7
M TOR 18 2 1 8 18
M TOR 19 3 1 0 9
M TOR 20 3 1 0 10
M TOR 21 3 1 0 11
M TOR 22 3 1 2 12
M TOR 23 3 1 8 7
M TOR 24 3 1 8 18
M TOR 25 3 4 5 6
M TOR 26 3 4 5 16
M TOR 27 3 4 7 8
M TOR 28 3 4 7 17
M TOR 29 4 3 1 8
M TOR 30 4 7 8 18
M TOR 31 5 4 3 13
M TOR 32 5 4 3 14
M TOR 33 5 4 7 8
M TOR 34 5 4 7 17
M TOR 35 6 5 4 7
M TOR 36 6 5 4 15
M TOR 37 7 4 3 13
M TOR 38 7 4 3 14
M TOR 39 7 4 5 16
M TOR 40 8 1 0 9
M TOR 41 8 1 0 10
M TOR 42 8 1 0 11
M TOR 43 8 1 2 12
M TOR 44 8 1 3 13
M TOR 45 8 1 3 14
M TOR 46 8 7 4 15
M  END
$$$$
