
     RDKit          3D

 19 20  0  0  0  0  0  0  0  0999 V2000
   -0.8621   -2.2567    1.3247 C   0  0  0  0  0  0  0  0  0  0  0  0
   -1.0084   -1.3212    0.1263 C   0  0  0  0  0  0  0  0  0  0  0  0
   -0.0283   -0.1217    0.1342 C   0  0  0  0  0  0  0  0  0  0  0  0
    1.1644   -0.1470    0.2793 O   0  0  0  0  0  0  0  0  0  0  0  0
   -0.9604    1.0673   -0.0379 C   0  0  0  0  0  0  0  0  0  0  0  0
   -2.0585    0.6911    1.0151 C   0  0  0  0  0  0  0  0  0  0  0  0
   -2.3125   -0.4887    0.0188 C   0  0  0  0  0  0  0  0  0  0  0  0
   -3.5261   -1.1632   -0.0626 O   0  0  0  0  0  0  0  0  0  0  0  0
   -1.9572    0.5073   -1.1081 C   0  0  0  0  0  0  0  0  0  0  0  0
   -1.5353   -3.1174    1.2424 H   0  0  0  0  0  0  0  0  0  0  0  0
    0.1613   -2.6384    1.3742 H   0  0  0  0  0  0  0  0  0  0  0  0
   -1.0704   -1.7493    2.2724 H   0  0  0  0  0  0  0  0  0  0  0  0
   -0.8576   -1.8939   -0.7979 H   0  0  0  0  0  0  0  0  0  0  0  0
   -0.5149    2.0567   -0.0996 H   0  0  0  0  0  0  0  0  0  0  0  0
   -1.7438    0.4768    2.0397 H   0  0  0  0  0  0  0  0  0  0  0  0
   -2.8829    1.4069    1.0109 H   0  0  0  0  0  0  0  0  0  0  0  0
   -3.5639   -1.8157    0.6452 H   0  0  0  0  0  0  0  0  0  0  0  0
   -1.5519    0.1092   -2.0423 H   0  0  0  0  0  0  0  0  0  0  0  0
   -2.7692    1.2093   -1.3076 H   0  0  0  0  0  0  0  0  0  0  0  0
  1  2  1  0
  2  3  1  0
  3  4  2  0
  3  5  1  0
  5  6  1  0
  6  7  1  0
  7  8  1  0
  7  9  1  0
  7  2  1  0
  9  5  1  0
  1 10  1  0
  1 11  1  0
  1 12  1  0
  2 13  1  0
  5 14  1  0
  6 15  1  0
  6 16  1  0
  8 17  1  0
  9 18  1  0
  9 19  1  0
M  END
$$$$
