
     RDKit          3D

 19 20  0  0  0  0  0  0  0  0999 V2000
   -2.3126   -0.1440   -0.9722 O   0  0  0  0  0  0  0  0  0  0  0  0
   -2.1933    0.0653    0.4030 C   0  0  0  0  0  0  0  0  0  0  0  0
   -1.4975   -0.9932    1.2445 C   0  0  0  0  0  0  0  0  0  0  0  0
   -0.8137    0.3336    0.9370 C   0  0  0  0  0  0  0  0  0  0  0  0
    0.1871    0.3100   -0.0617 O   0  0  0  0  0  0  0  0  0  0  0  0
   -0.6637    1.3959    1.9647 C   0  0  0  0  0  0  0  0  0  0  0  0
   -1.6226    2.3003    2.1661 C   0  0  0  0  0  0  0  0  0  0  0  0
   -2.9197    2.2938    1.3875 C   0  0  0  0  0  0  0  0  0  0  0  0
   -3.3469    0.8672    0.9948 C   0  0  0  0  0  0  0  0  0  0  0  0
   -1.4142   -0.0888   -1.3283 H   0  0  0  0  0  0  0  0  0  0  0  0
   -1.8394   -1.1767    2.2581 H   0  0  0  0  0  0  0  0  0  0  0  0
   -1.1244   -1.8625    0.7107 H   0  0  0  0  0  0  0  0  0  0  0  0
    0.8785   -0.3011    0.2125 H   0  0  0  0  0  0  0  0  0  0  0  0
    0.2650    1.4225    2.5308 H   0  0  0  0  0  0  0  0  0  0  0  0
   -1.4810    3.0837    2.9063 H   0  0  0  0  0  0  0  0  0  0  0  0
   -3.7125    2.7725    1.9722 H   0  0  0  0  0  0  0  0  0  0  0  0
   -2.7993    2.9099    0.4848 H   0  0  0  0  0  0  0  0  0  0  0  0
   -3.7362    0.3576    1.8825 H   0  0  0  0  0  0  0  0  0  0  0  0
   -4.1528    0.8924    0.2562 H   0  0  0  0  0  0  0  0  0  0  0  0
  1  2  1  0
  2  3  1  0
  3  4  1  0
  4  5  1  0
  4  6  1  0
  6  7  2  0
  7  8  1  0
  8  9  1  0
  4  2  1  0
  9  2  1  0
  1 10  1  0
  3 11  1  0
  3 12  1  0
  5 13  1  0
  6 14  1  0
  7 15  1  0
  8 16  1  0
  8 17  1  0
  9 18  1  0
  9 19  1  0
M  END
$$$$
