
     RDKit          3D

 19 19  0  0  0  0  0  0  0  0999 V2000
   -2.5562   -0.4174    3.0006 O   0  0  0  0  0  0  0  0  0  0  0  0
   -1.3133   -0.7192    2.3497 C   0  0  0  0  0  0  0  0  0  0  0  0
   -0.1411    0.0732    2.9516 C   0  0  0  0  0  0  0  0  0  0  0  0
   -0.1958    1.4736    2.2812 C   0  0  0  0  0  0  0  0  0  0  0  0
   -1.2707    1.3882    1.1617 C   0  0  0  0  0  0  0  0  0  0  0  0
   -2.4987    1.9839    1.5279 O   0  0  0  0  0  0  0  0  0  0  0  0
   -1.4411   -0.1475    0.9193 C   0  0  0  0  0  0  0  0  0  0  0  0
   -0.4179   -0.6890    0.0370 C   0  0  0  0  0  0  0  0  0  0  0  0
    0.4447   -1.1157   -0.6842 C   0  0  0  0  0  0  0  0  0  0  0  0
   -2.4532   -0.5993    3.9402 H   0  0  0  0  0  0  0  0  0  0  0  0
   -1.1437   -1.8022    2.3531 H   0  0  0  0  0  0  0  0  0  0  0  0
   -0.2069    0.1117    4.0441 H   0  0  0  0  0  0  0  0  0  0  0  0
    0.7943   -0.4377    2.7066 H   0  0  0  0  0  0  0  0  0  0  0  0
   -0.4805    2.2670    2.9757 H   0  0  0  0  0  0  0  0  0  0  0  0
    0.7791    1.7394    1.8652 H   0  0  0  0  0  0  0  0  0  0  0  0
   -0.9508    1.8967    0.2501 H   0  0  0  0  0  0  0  0  0  0  0  0
   -2.8579    1.4441    2.2461 H   0  0  0  0  0  0  0  0  0  0  0  0
   -2.4368   -0.3479    0.5117 H   0  0  0  0  0  0  0  0  0  0  0  0
    1.1946   -1.4972   -1.3321 H   0  0  0  0  0  0  0  0  0  0  0  0
  1  2  1  0
  2  3  1  0
  3  4  1  0
  4  5  1  0
  5  6  1  0
  5  7  1  0
  7  8  1  0
  8  9  3  0
  7  2  1  0
  1 10  1  0
  2 11  1  0
  3 12  1  0
  3 13  1  0
  4 14  1  0
  4 15  1  0
  5 16  1  0
  6 17  1  0
  7 18  1  0
  9 19  1  0
M  END
$$$$
