
     RDKit          3D

 19 20  0  0  0  0  0  0  0  0999 V2000
    1.4185   -0.1621   -0.0481 C   0  0  0  0  0  0  0  0  0  0  0  0
    0.0236    0.0053    0.0267 O   0  0  0  0  0  0  0  0  0  0  0  0
   -0.3819    0.7214    1.1774 C   0  0  0  0  0  0  0  0  0  0  0  0
   -1.8931    0.8312    1.1423 C   0  0  0  0  0  0  0  0  0  0  0  0
   -2.5901    1.2110    2.4927 C   0  0  0  0  0  0  0  0  0  0  0  0
   -2.3718   -0.1715    2.9308 O   0  0  0  0  0  0  0  0  0  0  0  0
   -2.6824   -0.4673    1.5262 C   0  0  0  0  0  0  0  0  0  0  0  0
   -4.1374    0.0219    1.4216 C   0  0  0  0  0  0  0  0  0  0  0  0
   -4.0747    1.1783    2.0850 C   0  0  0  0  0  0  0  0  0  0  0  0
    1.8110   -0.7197    0.8171 H   0  0  0  0  0  0  0  0  0  0  0  0
    1.6334   -0.7262   -0.9591 H   0  0  0  0  0  0  0  0  0  0  0  0
    1.9448    0.8049   -0.0971 H   0  0  0  0  0  0  0  0  0  0  0  0
   -0.0590    0.2073    2.0941 H   0  0  0  0  0  0  0  0  0  0  0  0
    0.0698    1.7295    1.1790 H   0  0  0  0  0  0  0  0  0  0  0  0
   -2.2299    1.3576    0.2464 H   0  0  0  0  0  0  0  0  0  0  0  0
   -2.2209    1.9711    3.1809 H   0  0  0  0  0  0  0  0  0  0  0  0
   -2.4004   -1.4647    1.1945 H   0  0  0  0  0  0  0  0  0  0  0  0
   -4.9588   -0.4686    0.9213 H   0  0  0  0  0  0  0  0  0  0  0  0
   -4.8279    1.9226    2.2957 H   0  0  0  0  0  0  0  0  0  0  0  0
  1  2  1  0
  2  3  1  0
  3  4  1  0
  4  5  1  0
  5  6  1  0
  6  7  1  0
  7  8  1  0
  8  9  2  0
  7  4  1  0
  9  5  1  0
  1 10  1  0
  1 11  1  0
  1 12  1  0
  3 13  1  0
  3 14  1  0
  4 15  1  0
  5 16  1  0
  7 17  1  0
  8 18  1  0
  9 19  1  0
M  END
$$$$
