gdb 1910	2.6371875	1.518155	1.1739629	4.8545	75.87	-0.25324	0.01385	0.26709	1102.8305	0.158235	-422.595044	-422.586931	-422.585987	-422.627418	31.394
 OpenBabel02181911403D

 19 20  0  0  1  0  0  0  0  0999 V2000
   -2.0109   -2.5284   -1.8704 C   0  0  0  0  0  0  0  0  0  0  0  0
   -1.8172   -1.2609   -1.0661 C   0  0  1  0  0  0  0  0  0  0  0  0
   -2.1734   -1.2600    0.3905 C   0  0  0  0  0  0  0  0  0  0  0  0
   -0.7070   -1.2235   -0.0296 C   0  0  2  0  0  0  0  0  0  0  0  0
    0.1339   -0.0025    0.1281 C   0  0  0  0  0  0  0  0  0  0  0  0
    1.2161   -0.0199    0.6519 O   0  0  0  0  0  0  0  0  0  0  0  0
   -0.3272    1.1708   -0.3838 O   0  0  0  0  0  0  0  0  0  0  0  0
   -1.6172    1.2587   -1.0031 C   0  0  0  0  0  0  0  0  0  0  0  0
   -1.9727    0.0347   -1.8410 C   0  0  0  0  0  0  0  0  0  0  0  0
   -1.8323   -3.4181   -1.2591 H   0  0  0  0  0  0  0  0  0  0  0  0
   -3.0327   -2.5910   -2.2624 H   0  0  0  0  0  0  0  0  0  0  0  0
   -1.3230   -2.5627   -2.7227 H   0  0  0  0  0  0  0  0  0  0  0  0
   -2.6083   -0.3802    0.8487 H   0  0  0  0  0  0  0  0  0  0  0  0
   -2.5086   -2.1926    0.8307 H   0  0  0  0  0  0  0  0  0  0  0  0
   -0.1325   -2.1239    0.1521 H   0  0  0  0  0  0  0  0  0  0  0  0
   -2.3722    1.4415   -0.2292 H   0  0  0  0  0  0  0  0  0  0  0  0
   -1.5721    2.1534   -1.6288 H   0  0  0  0  0  0  0  0  0  0  0  0
   -3.0014    0.1514   -2.2048 H   0  0  0  0  0  0  0  0  0  0  0  0
   -1.3222    0.0005   -2.7240 H   0  0  0  0  0  0  0  0  0  0  0  0
  1 10  1  0  0  0  0
  2  1  1  6  0  0  0
  2  4  1  0  0  0  0
  2  3  1  0  0  0  0
  3 14  1  0  0  0  0
  3 13  1  0  0  0  0
  4  5  1  0  0  0  0
  4 15  1  1  0  0  0
  4  3  1  0  0  0  0
  5  6  2  0  0  0  0
  7  5  1  0  0  0  0
  8  7  1  0  0  0  0
  8 16  1  0  0  0  0
  9  2  1  0  0  0  0
  9  8  1  0  0  0  0
 11  1  1  0  0  0  0
 12  1  1  0  0  0  0
 17  8  1  0  0  0  0
 18  9  1  0  0  0  0
 19  9  1  0  0  0  0
M TOR 0 0 1 2 3
M TOR 1 0 1 2 12
M TOR 2 0 1 2 13
M TOR 3 0 1 3 4
M TOR 4 0 1 3 14
M TOR 5 0 1 8 7
M TOR 6 0 1 8 17
M TOR 7 0 1 8 18
M TOR 8 1 2 3 4
M TOR 9 1 2 3 14
M TOR 10 1 3 2 12
M TOR 11 1 3 2 13
M TOR 12 1 3 4 5
M TOR 13 1 3 4 6
M TOR 14 1 8 7 6
M TOR 15 1 8 7 15
M TOR 16 1 8 7 16
M TOR 17 2 1 0 9
M TOR 18 2 1 0 10
M TOR 19 2 1 0 11
M TOR 20 2 1 8 7
M TOR 21 2 1 8 17
M TOR 22 2 1 8 18
M TOR 23 2 3 1 8
M TOR 24 2 3 4 5
M TOR 25 2 3 4 6
M TOR 26 3 1 0 9
M TOR 27 3 1 0 10
M TOR 28 3 1 0 11
M TOR 29 3 1 8 7
M TOR 30 3 1 8 17
M TOR 31 3 1 8 18
M TOR 32 3 4 6 7
M TOR 33 4 3 1 8
M TOR 34 4 3 2 12
M TOR 35 4 3 2 13
M TOR 36 4 6 7 8
M TOR 37 4 6 7 15
M TOR 38 4 6 7 16
M TOR 39 5 4 3 14
M TOR 40 5 4 6 7
M TOR 41 6 4 3 14
M TOR 42 6 7 8 17
M TOR 43 6 7 8 18
M TOR 44 8 1 0 9
M TOR 45 8 1 0 10
M TOR 46 8 1 0 11
M TOR 47 8 1 2 12
M TOR 48 8 1 2 13
M TOR 49 8 1 3 14
M  END
$$$$
