
     RDKit          3D

 19 21  0  0  0  0  0  0  0  0999 V2000
   -0.6456    2.7958   -2.2906 C   0  0  0  0  0  0  0  0  0  0  0  0
   -1.3740    1.5581   -2.3041 O   0  0  0  0  0  0  0  0  0  0  0  0
   -1.0804    2.1469   -1.0518 C   0  0  0  0  0  0  0  0  0  0  0  0
   -2.1227    2.6067   -0.0304 C   0  0  0  0  0  0  0  0  0  0  0  0
   -1.0973    2.2357    1.0843 C   0  0  0  0  0  0  0  0  0  0  0  0
   -0.2386    1.4762    0.0380 C   0  0  0  0  0  0  0  0  0  0  0  0
    1.2977    1.4174    0.0590 C   0  0  0  0  0  0  0  0  0  0  0  0
    1.2987   -0.0219    0.0892 O   0  0  0  0  0  0  0  0  0  0  0  0
   -0.1428   -0.0662    0.0591 C   0  0  0  0  0  0  0  0  0  0  0  0
    0.3923    2.7272   -2.6132 H   0  0  0  0  0  0  0  0  0  0  0  0
   -1.1915    3.6620   -2.6634 H   0  0  0  0  0  0  0  0  0  0  0  0
   -2.4558    3.6454   -0.0847 H   0  0  0  0  0  0  0  0  0  0  0  0
   -2.9998    1.9536   -0.0318 H   0  0  0  0  0  0  0  0  0  0  0  0
   -0.5772    3.1101    1.4853 H   0  0  0  0  0  0  0  0  0  0  0  0
   -1.4742    1.6397    1.9184 H   0  0  0  0  0  0  0  0  0  0  0  0
    1.8021    1.8116   -0.8335 H   0  0  0  0  0  0  0  0  0  0  0  0
    1.7669    1.8526    0.9519 H   0  0  0  0  0  0  0  0  0  0  0  0
   -0.5203   -0.5613   -0.8433 H   0  0  0  0  0  0  0  0  0  0  0  0
   -0.5595   -0.5530    0.9505 H   0  0  0  0  0  0  0  0  0  0  0  0
  1  2  1  0
  2  3  1  0
  3  4  1  0
  4  5  1  0
  5  6  1  0
  6  7  1  0
  7  8  1  0
  8  9  1  0
  3  1  1  0
  6  3  1  0
  9  6  1  0
  1 10  1  0
  1 11  1  0
  4 12  1  0
  4 13  1  0
  5 14  1  0
  5 15  1  0
  7 16  1  0
  7 17  1  0
  9 18  1  0
  9 19  1  0
M  END
$$$$
