gdb 4034	3.4044235	1.5595056	1.3490331	2.4225	74.57	-0.24747	0.06711	0.31457999999999997	1011.2989	0.157784	-422.494132	-422.48678	-422.485835	-422.525493	29.684
 OpenBabel02181911413D

 19 21  0  0  1  0  0  0  0  0999 V2000
    0.4199    0.3039   -0.3990 C   0  0  0  0  0  0  0  0  0  0  0  0
    1.1228   -0.3593    0.7690 C   0  0  2  0  0  0  0  0  0  0  0  0
    2.5784   -0.4292    0.5633 O   0  0  0  0  0  0  0  0  0  0  0  0
    2.5209   -1.8415    0.2560 C   0  0  1  0  0  0  0  0  0  0  0  0
    2.6835   -2.9318    1.3285 C   0  0  2  0  0  0  0  0  0  0  0  0
    1.7765   -4.0549    0.7114 C   0  0  0  0  0  0  0  0  0  0  0  0
    0.4693   -3.1994    0.4286 C   0  0  0  0  0  0  0  0  0  0  0  0
    1.1079   -1.8857    0.8509 C   0  0  2  0  0  0  0  0  0  0  0  0
    1.7104   -2.2462    2.1511 O   0  0  0  0  0  0  0  0  0  0  0  0
    0.6087   -0.2302   -1.3352 H   0  0  0  0  0  0  0  0  0  0  0  0
   -0.6613    0.3350   -0.2266 H   0  0  0  0  0  0  0  0  0  0  0  0
    0.7810    1.3299   -0.5138 H   0  0  0  0  0  0  0  0  0  0  0  0
    0.8934    0.1319    1.7194 H   0  0  0  0  0  0  0  0  0  0  0  0
    2.7903   -2.0581   -0.7811 H   0  0  0  0  0  0  0  0  0  0  0  0
    3.6012   -3.2289    1.8389 H   0  0  0  0  0  0  0  0  0  0  0  0
    2.1908   -4.5069   -0.1946 H   0  0  0  0  0  0  0  0  0  0  0  0
    1.6029   -4.8408    1.4479 H   0  0  0  0  0  0  0  0  0  0  0  0
    0.1653   -3.2204   -0.6205 H   0  0  0  0  0  0  0  0  0  0  0  0
   -0.3720   -3.5017    1.0546 H   0  0  0  0  0  0  0  0  0  0  0  0
  1 11  1  0  0  0  0
  1  2  1  0  0  0  0
  2  8  1  0  0  0  0
  2 13  1  1  0  0  0
  3  2  1  0  0  0  0
  4 14  1  6  0  0  0
  4  3  1  0  0  0  0
  4  8  1  0  0  0  0
  4  5  1  0  0  0  0
  5 15  1  1  0  0  0
  5  9  1  0  0  0  0
  6  5  1  0  0  0  0
  6 17  1  0  0  0  0
  7  6  1  0  0  0  0
  7  8  1  0  0  0  0
  7 19  1  0  0  0  0
  8  9  1  1  0  0  0
 10  1  1  0  0  0  0
 12  1  1  0  0  0  0
 16  6  1  0  0  0  0
 18  7  1  0  0  0  0
M TOR 0 0 1 2 3
M TOR 1 0 1 7 3
M TOR 2 0 1 7 6
M TOR 3 0 1 7 8
M TOR 4 1 2 3 4
M TOR 5 1 2 3 7
M TOR 6 1 2 3 13
M TOR 7 1 7 3 4
M TOR 8 1 7 3 13
M TOR 9 1 7 6 5
M TOR 10 1 7 6 17
M TOR 11 1 7 6 18
M TOR 12 1 7 8 4
M TOR 13 2 1 0 9
M TOR 14 2 1 0 10
M TOR 15 2 1 0 11
M TOR 16 2 1 7 6
M TOR 17 2 1 7 8
M TOR 18 2 3 4 5
M TOR 19 2 3 4 8
M TOR 20 2 3 4 14
M TOR 21 2 3 7 6
M TOR 22 2 3 7 8
M TOR 23 3 2 1 12
M TOR 24 3 4 5 6
M TOR 25 3 4 5 15
M TOR 26 3 4 5 16
M TOR 27 3 4 8 7
M TOR 28 3 7 1 12
M TOR 29 3 7 6 5
M TOR 30 3 7 6 17
M TOR 31 3 7 6 18
M TOR 32 4 3 7 6
M TOR 33 4 5 6 7
M TOR 34 4 5 6 17
M TOR 35 4 5 6 18
M TOR 36 4 8 7 6
M TOR 37 5 4 3 7
M TOR 38 5 4 3 13
M TOR 39 5 4 8 7
M TOR 40 5 6 7 8
M TOR 41 6 5 4 8
M TOR 42 6 5 4 14
M TOR 43 6 7 1 12
M TOR 44 6 7 3 13
M TOR 45 7 1 0 9
M TOR 46 7 1 0 10
M TOR 47 7 1 0 11
M TOR 48 7 3 4 14
M TOR 49 7 6 5 15
M TOR 50 7 6 5 16
M TOR 51 7 8 4 14
M TOR 52 8 4 3 13
M TOR 53 8 4 5 15
M TOR 54 8 4 5 16
M TOR 55 8 7 1 12
M TOR 56 8 7 3 13
M TOR 57 8 7 6 17
M TOR 58 8 7 6 18
M  END
$$$$
