
     RDKit          3D

 19 21  0  0  0  0  0  0  0  0999 V2000
    0.0918    0.4427    0.0429 C   0  0  0  0  0  0  0  0  0  0  0  0
    0.9712   -0.7770   -0.0294 C   0  0  0  0  0  0  0  0  0  0  0  0
    2.1539   -0.7781    0.8182 O   0  0  0  0  0  0  0  0  0  0  0  0
    2.3179   -0.7560   -0.5818 C   0  0  0  0  0  0  0  0  0  0  0  0
    3.2133   -1.7577   -1.3453 C   0  0  0  0  0  0  0  0  0  0  0  0
    4.3521   -0.7080   -1.1080 C   0  0  0  0  0  0  0  0  0  0  0  0
    3.1747    0.2769   -1.3333 C   0  0  0  0  0  0  0  0  0  0  0  0
    2.8008    0.0503   -2.7020 O   0  0  0  0  0  0  0  0  0  0  0  0
    2.8050   -1.4001   -2.7801 C   0  0  0  0  0  0  0  0  0  0  0  0
   -0.4929    0.4425    0.9686 H   0  0  0  0  0  0  0  0  0  0  0  0
    0.6898    1.3566    0.0128 H   0  0  0  0  0  0  0  0  0  0  0  0
   -0.6080    0.4565   -0.7994 H   0  0  0  0  0  0  0  0  0  0  0  0
    0.4468   -1.7345   -0.0214 H   0  0  0  0  0  0  0  0  0  0  0  0
    3.2965   -2.8075   -1.0704 H   0  0  0  0  0  0  0  0  0  0  0  0
    4.7152   -0.7141   -0.0799 H   0  0  0  0  0  0  0  0  0  0  0  0
    5.1722   -0.6675   -1.8284 H   0  0  0  0  0  0  0  0  0  0  0  0
    3.2045    1.3425   -1.1172 H   0  0  0  0  0  0  0  0  0  0  0  0
    1.8064   -1.7619   -3.0514 H   0  0  0  0  0  0  0  0  0  0  0  0
    3.5240   -1.7313   -3.5386 H   0  0  0  0  0  0  0  0  0  0  0  0
  1  2  1  0
  2  3  1  0
  3  4  1  0
  4  5  1  0
  5  6  1  0
  6  7  1  0
  7  8  1  0
  8  9  1  0
  4  2  1  0
  7  4  1  0
  9  5  1  0
  1 10  1  0
  1 11  1  0
  1 12  1  0
  2 13  1  0
  5 14  1  0
  6 15  1  0
  6 16  1  0
  7 17  1  0
  9 18  1  0
  9 19  1  0
M  END
$$$$
