
     RDKit          3D

 19 21  0  0  0  0  0  0  0  0999 V2000
    0.5142    0.5738    0.2249 O   0  0  0  0  0  0  0  0  0  0  0  0
   -0.8120    0.7881    0.6510 C   0  0  0  0  0  0  0  0  0  0  0  0
   -1.2147    0.1235    2.0359 C   0  0  0  0  0  0  0  0  0  0  0  0
   -1.6119    1.4317    2.6972 C   0  0  0  0  0  0  0  0  0  0  0  0
   -1.9317    2.1004    4.0292 C   0  0  0  0  0  0  0  0  0  0  0  0
   -1.2233    3.3829    3.4551 C   0  0  0  0  0  0  0  0  0  0  0  0
   -0.5516    2.5051    2.3388 C   0  0  0  0  0  0  0  0  0  0  0  0
   -1.2065    2.2737    0.9766 C   0  0  0  0  0  0  0  0  0  0  0  0
   -2.4743    2.0283    1.6437 O   0  0  0  0  0  0  0  0  0  0  0  0
    1.1117    0.8476    0.9283 H   0  0  0  0  0  0  0  0  0  0  0  0
   -1.4454    0.4228   -0.1596 H   0  0  0  0  0  0  0  0  0  0  0  0
   -2.0320   -0.5936    1.9368 H   0  0  0  0  0  0  0  0  0  0  0  0
   -0.3589   -0.3698    2.5064 H   0  0  0  0  0  0  0  0  0  0  0  0
   -2.9876    2.1705    4.2991 H   0  0  0  0  0  0  0  0  0  0  0  0
   -1.3694    1.6612    4.8588 H   0  0  0  0  0  0  0  0  0  0  0  0
   -1.9185    4.1318    3.0783 H   0  0  0  0  0  0  0  0  0  0  0  0
   -0.5100    3.8585    4.1300 H   0  0  0  0  0  0  0  0  0  0  0  0
    0.5194    2.3308    2.4707 H   0  0  0  0  0  0  0  0  0  0  0  0
   -1.2457    2.9771    0.1424 H   0  0  0  0  0  0  0  0  0  0  0  0
  1  2  1  0
  2  3  1  0
  3  4  1  0
  4  5  1  0
  5  6  1  0
  6  7  1  0
  7  8  1  0
  8  9  1  0
  8  2  1  0
  7  4  1  0
  9  4  1  0
  1 10  1  0
  2 11  1  0
  3 12  1  0
  3 13  1  0
  5 14  1  0
  5 15  1  0
  6 16  1  0
  6 17  1  0
  7 18  1  0
  8 19  1  0
M  END
$$$$
