gdb 4314	2.0813731	1.5825359	1.3566012	3.2987	77.42	-0.2404	-0.05753	0.18287	1075.1633	0.157134	-422.59948	-422.590653	-422.589709	-422.632783	33.228
 OpenBabel02181911413D

 19 19  0  0  1  0  0  0  0  0999 V2000
   -1.2824    1.6775   -1.4455 C   0  0  0  0  0  0  0  0  0  0  0  0
   -0.9029    1.3164    0.0039 C   0  0  1  0  0  0  0  0  0  0  0  0
   -2.1256    1.1509    0.9249 C   0  0  2  0  0  0  0  0  0  0  0  0
   -1.7422    1.1611    2.2953 O   0  0  0  0  0  0  0  0  0  0  0  0
   -2.9272   -0.1178    0.5889 C   0  0  0  0  0  0  0  0  0  0  0  0
   -2.0382   -1.3206    0.4414 C   0  0  0  0  0  0  0  0  0  0  0  0
   -0.7257   -1.2379    0.1801 C   0  0  0  0  0  0  0  0  0  0  0  0
   -0.0337    0.0562   -0.0150 C   0  0  0  0  0  0  0  0  0  0  0  0
    1.1622    0.1105   -0.2247 O   0  0  0  0  0  0  0  0  0  0  0  0
   -1.8576    0.8810   -1.9290 H   0  0  0  0  0  0  0  0  0  0  0  0
   -1.8823    2.5929   -1.4707 H   0  0  0  0  0  0  0  0  0  0  0  0
   -0.3783    1.8425   -2.0369 H   0  0  0  0  0  0  0  0  0  0  0  0
   -0.2825    2.1200    0.4121 H   0  0  0  0  0  0  0  0  0  0  0  0
   -2.7742    2.0267    0.8165 H   0  0  0  0  0  0  0  0  0  0  0  0
   -1.1945    0.3850    2.4600 H   0  0  0  0  0  0  0  0  0  0  0  0
   -3.6672   -0.2869    1.3786 H   0  0  0  0  0  0  0  0  0  0  0  0
   -3.5011    0.0228   -0.3383 H   0  0  0  0  0  0  0  0  0  0  0  0
   -2.5018   -2.2988    0.5523 H   0  0  0  0  0  0  0  0  0  0  0  0
   -0.1015   -2.1215    0.0886 H   0  0  0  0  0  0  0  0  0  0  0  0
  1  2  1  0  0  0  0
  2 13  1  1  0  0  0
  2  3  1  0  0  0  0
  3 14  1  6  0  0  0
  3  4  1  0  0  0  0
  4 15  1  0  0  0  0
  5  3  1  0  0  0  0
  5 16  1  0  0  0  0
  6 18  1  0  0  0  0
  6  5  1  0  0  0  0
  7  6  2  0  0  0  0
  8  2  1  0  0  0  0
  8  7  1  0  0  0  0
  9  8  2  0  0  0  0
 10  1  1  0  0  0  0
 11  1  1  0  0  0  0
 12  1  1  0  0  0  0
 17  5  1  0  0  0  0
 19  7  1  0  0  0  0
M TOR 0 0 1 2 3
M TOR 1 0 1 2 4
M TOR 2 0 1 2 13
M TOR 3 0 1 7 6
M TOR 4 0 1 7 8
M TOR 5 1 2 3 14
M TOR 6 1 2 4 5
M TOR 7 1 2 4 15
M TOR 8 1 2 4 16
M TOR 9 1 7 6 5
M TOR 10 1 7 6 18
M TOR 11 2 1 0 9
M TOR 12 2 1 0 10
M TOR 13 2 1 0 11
M TOR 14 2 1 7 6
M TOR 15 2 1 7 8
M TOR 16 2 4 5 6
M TOR 17 2 4 5 17
M TOR 18 3 2 1 7
M TOR 19 3 2 1 12
M TOR 20 3 2 4 5
M TOR 21 3 2 4 15
M TOR 22 3 2 4 16
M TOR 23 4 2 1 7
M TOR 24 4 2 1 12
M TOR 25 4 2 3 14
M TOR 26 4 5 6 7
M TOR 27 4 5 6 18
M TOR 28 5 4 2 13
M TOR 29 5 6 7 8
M TOR 30 6 5 4 15
M TOR 31 6 5 4 16
M TOR 32 6 7 1 12
M TOR 33 7 1 0 9
M TOR 34 7 1 0 10
M TOR 35 7 1 0 11
M TOR 36 7 1 2 13
M TOR 37 7 6 5 17
M TOR 38 8 7 1 12
M TOR 39 8 7 6 18
M  END
$$$$
