gdb 2981	2.2984252	1.6541943	1.2814623	2.6801	74.76	-0.24834	-0.01421	0.23413	1072.8755	0.156506	-422.554714	-422.546266	-422.545322	-422.587501	32.057
 OpenBabel02181911413D

 19 20  0  0  1  0  0  0  0  0999 V2000
   -0.5153    1.1030   -2.5808 C   0  0  0  0  0  0  0  0  0  0  0  0
   -1.3540    0.7183   -1.3632 C   0  0  2  0  0  0  0  0  0  0  0  0
   -0.6234    0.8495   -0.0094 C   0  0  1  0  0  0  0  0  0  0  0  0
   -1.4808    0.0807    0.8984 O   0  0  0  0  0  0  0  0  0  0  0  0
   -1.1015   -1.1010    0.1135 C   0  0  1  0  0  0  0  0  0  0  0  0
   -1.7377   -0.8097   -1.2638 C   0  0  1  0  0  0  0  0  0  0  0  0
   -3.2397   -1.0803   -1.3043 C   0  0  0  0  0  0  0  0  0  0  0  0
    0.2754   -0.4082    0.0157 C   0  0  0  0  0  0  0  0  0  0  0  0
    1.4281   -0.6871    0.1146 O   0  0  0  0  0  0  0  0  0  0  0  0
    0.4148    0.5258   -2.6256 H   0  0  0  0  0  0  0  0  0  0  0  0
   -1.0671    0.9186   -3.5079 H   0  0  0  0  0  0  0  0  0  0  0  0
   -0.2472    2.1647   -2.5597 H   0  0  0  0  0  0  0  0  0  0  0  0
   -2.2627    1.3286   -1.3290 H   0  0  0  0  0  0  0  0  0  0  0  0
   -0.3303    1.8290    0.3644 H   0  0  0  0  0  0  0  0  0  0  0  0
   -1.2804   -2.0525    0.6114 H   0  0  0  0  0  0  0  0  0  0  0  0
   -1.2304   -1.3860   -2.0464 H   0  0  0  0  0  0  0  0  0  0  0  0
   -3.7396   -0.5808   -0.4693 H   0  0  0  0  0  0  0  0  0  0  0  0
   -3.6778   -0.7049   -2.2354 H   0  0  0  0  0  0  0  0  0  0  0  0
   -3.4544   -2.1524   -1.2417 H   0  0  0  0  0  0  0  0  0  0  0  0
  1 12  1  0  0  0  0
  1  2  1  0  0  0  0
  2 13  1  1  0  0  0
  2  6  1  0  0  0  0
  2  3  1  0  0  0  0
  3  8  1  0  0  0  0
  3 14  1  1  0  0  0
  3  4  1  0  0  0  0
  5 15  1  1  0  0  0
  5  4  1  0  0  0  0
  6 16  1  6  0  0  0
  6  5  1  0  0  0  0
  7  6  1  0  0  0  0
  7 19  1  0  0  0  0
  7 17  1  0  0  0  0
  8  5  1  0  0  0  0
  8  9  2  0  0  0  0
 10  1  1  0  0  0  0
 11  1  1  0  0  0  0
 18  7  1  0  0  0  0
M TOR 0 0 1 2 3
M TOR 1 0 1 2 7
M TOR 2 0 1 2 13
M TOR 3 0 1 5 4
M TOR 4 0 1 5 6
M TOR 5 0 1 5 15
M TOR 6 1 2 3 4
M TOR 7 1 2 7 4
M TOR 8 1 2 7 8
M TOR 9 1 5 4 3
M TOR 10 1 5 4 7
M TOR 11 1 5 4 14
M TOR 12 1 5 6 16
M TOR 13 1 5 6 17
M TOR 14 1 5 6 18
M TOR 15 2 1 0 9
M TOR 16 2 1 0 10
M TOR 17 2 1 0 11
M TOR 18 2 1 5 4
M TOR 19 2 1 5 6
M TOR 20 2 1 5 15
M TOR 21 2 3 4 5
M TOR 22 2 3 4 7
M TOR 23 2 3 4 14
M TOR 24 2 7 4 5
M TOR 25 2 7 4 14
M TOR 26 3 2 1 5
M TOR 27 3 2 1 12
M TOR 28 3 2 7 8
M TOR 29 3 4 5 6
M TOR 30 3 4 5 15
M TOR 31 3 4 7 8
M TOR 32 4 3 2 13
M TOR 33 4 5 1 12
M TOR 34 4 5 6 16
M TOR 35 4 5 6 17
M TOR 36 4 5 6 18
M TOR 37 4 7 2 13
M TOR 38 5 1 0 9
M TOR 39 5 1 0 10
M TOR 40 5 1 0 11
M TOR 41 5 1 2 7
M TOR 42 5 1 2 13
M TOR 43 5 4 7 8
M TOR 44 6 5 1 12
M TOR 45 6 5 4 7
M TOR 46 6 5 4 14
M TOR 47 7 2 1 12
M TOR 48 7 4 5 15
M TOR 49 8 7 2 13
M TOR 50 8 7 4 14
M  END
$$$$
