
     RDKit          3D

 19 21  0  0  0  0  0  0  0  0999 V2000
    2.0708   -0.3319   -2.9976 C   0  0  0  0  0  0  0  0  0  0  0  0
    0.7845   -0.4696   -2.2390 C   0  0  0  0  0  0  0  0  0  0  0  0
   -0.3594   -1.4467   -2.6637 C   0  0  0  0  0  0  0  0  0  0  0  0
   -1.2638   -1.6731   -1.5695 O   0  0  0  0  0  0  0  0  0  0  0  0
   -1.3789   -0.4581   -2.3315 C   0  0  0  0  0  0  0  0  0  0  0  0
   -0.2942    0.5692   -1.8807 C   0  0  0  0  0  0  0  0  0  0  0  0
   -0.3679    2.0392   -2.1637 C   0  0  0  0  0  0  0  0  0  0  0  0
    0.5920   -0.0502   -0.8059 C   0  0  0  0  0  0  0  0  0  0  0  0
    1.6335    0.7590   -0.3315 O   0  0  0  0  0  0  0  0  0  0  0  0
    2.6662    0.4897   -2.5938 H   0  0  0  0  0  0  0  0  0  0  0  0
    2.6694   -1.2482   -2.9214 H   0  0  0  0  0  0  0  0  0  0  0  0
    1.8937   -0.1396   -4.0622 H   0  0  0  0  0  0  0  0  0  0  0  0
   -0.3087   -2.2055   -3.4365 H   0  0  0  0  0  0  0  0  0  0  0  0
   -2.3438   -0.2363   -2.7738 H   0  0  0  0  0  0  0  0  0  0  0  0
   -1.2068    2.5049   -1.6302 H   0  0  0  0  0  0  0  0  0  0  0  0
    0.5533    2.5331   -1.8426 H   0  0  0  0  0  0  0  0  0  0  0  0
   -0.5048    2.2453   -3.2317 H   0  0  0  0  0  0  0  0  0  0  0  0
    0.1775   -0.7409   -0.0775 H   0  0  0  0  0  0  0  0  0  0  0  0
    1.2846    1.2946    0.3886 H   0  0  0  0  0  0  0  0  0  0  0  0
  1  2  1  0
  2  3  1  0
  3  4  1  0
  4  5  1  0
  5  6  1  0
  6  7  1  0
  6  8  1  0
  8  9  1  0
  6  2  1  0
  8  2  1  0
  5  3  1  0
  1 10  1  0
  1 11  1  0
  1 12  1  0
  3 13  1  0
  5 14  1  0
  7 15  1  0
  7 16  1  0
  7 17  1  0
  8 18  1  0
  9 19  1  0
M  END
$$$$
