gdb 4472	3.5562022	0.9964274	0.8977613	2.5132	77.54	-0.24759	-0.01723	0.23036	1320.3607	0.157352	-422.574949	-422.566478	-422.565534	-422.608145	31.859
 OpenBabel02181911413D

 19 20  0  0  1  0  0  0  0  0999 V2000
   -1.3573    3.8997   -0.5175 O   0  0  0  0  0  0  0  0  0  0  0  0
   -1.1905    2.4850   -0.4743 C   0  0  1  0  0  0  0  0  0  0  0  0
   -1.2322    1.9782   -1.9285 C   0  0  0  0  0  0  0  0  0  0  0  0
    0.2288    2.0426   -2.4335 C   0  0  0  0  0  0  0  0  0  0  0  0
    1.0743    1.8697   -1.1794 C   0  0  2  0  0  0  0  0  0  0  0  0
    0.6947    0.7070   -0.2620 C   0  0  1  0  0  0  0  0  0  0  0  0
    1.7489    0.1734    0.6256 C   0  0  0  0  0  0  0  0  0  0  0  0
    1.8553   -0.9810    0.9587 O   0  0  0  0  0  0  0  0  0  0  0  0
    0.2111    2.1294    0.0113 C   0  0  2  0  0  0  0  0  0  0  0  0
   -1.2846    4.2394    0.3803 H   0  0  0  0  0  0  0  0  0  0  0  0
   -1.9783    2.0266    0.1405 H   0  0  0  0  0  0  0  0  0  0  0  0
   -1.6107    0.9529   -1.9553 H   0  0  0  0  0  0  0  0  0  0  0  0
   -1.9139    2.5934   -2.5186 H   0  0  0  0  0  0  0  0  0  0  0  0
    0.4393    1.2922   -3.2016 H   0  0  0  0  0  0  0  0  0  0  0  0
    0.4406    3.0261   -2.8656 H   0  0  0  0  0  0  0  0  0  0  0  0
    2.1170    2.1684   -1.1968 H   0  0  0  0  0  0  0  0  0  0  0  0
   -0.0119   -0.0384   -0.6114 H   0  0  0  0  0  0  0  0  0  0  0  0
    2.4740    0.9447    0.9834 H   0  0  0  0  0  0  0  0  0  0  0  0
    0.5879    2.6246    0.9017 H   0  0  0  0  0  0  0  0  0  0  0  0
  1  2  1  0  0  0  0
  1 10  1  0  0  0  0
  2  9  1  0  0  0  0
  2 11  1  1  0  0  0
  3  2  1  0  0  0  0
  4  3  1  0  0  0  0
  4  5  1  0  0  0  0
  5 16  1  1  0  0  0
  5  6  1  0  0  0  0
  5  9  1  0  0  0  0
  6 17  1  6  0  0  0
  6  9  1  0  0  0  0
  6  7  1  0  0  0  0
  7  8  2  0  0  0  0
  7 18  1  0  0  0  0
  9 19  1  1  0  0  0
 12  3  1  0  0  0  0
 13  3  1  0  0  0  0
 14  4  1  0  0  0  0
 15  4  1  0  0  0  0
M TOR 0 0 1 2 3
M TOR 1 0 1 2 11
M TOR 2 0 1 2 12
M TOR 3 0 1 8 4
M TOR 4 0 1 8 5
M TOR 5 0 1 8 18
M TOR 6 1 2 3 4
M TOR 7 1 2 3 13
M TOR 8 1 2 3 14
M TOR 9 1 8 4 3
M TOR 10 1 8 4 5
M TOR 11 1 8 4 15
M TOR 12 1 8 5 6
M TOR 13 1 8 5 16
M TOR 14 2 1 0 9
M TOR 15 2 1 8 4
M TOR 16 2 1 8 5
M TOR 17 2 1 8 18
M TOR 18 2 3 4 5
M TOR 19 2 3 4 8
M TOR 20 2 3 4 15
M TOR 21 3 2 1 8
M TOR 22 3 2 1 10
M TOR 23 3 4 5 6
M TOR 24 3 4 5 8
M TOR 25 3 4 5 16
M TOR 26 3 4 8 18
M TOR 27 4 3 2 11
M TOR 28 4 3 2 12
M TOR 29 4 5 6 7
M TOR 30 4 5 6 17
M TOR 31 4 5 8 18
M TOR 32 4 8 1 10
M TOR 33 4 8 5 6
M TOR 34 4 8 5 16
M TOR 35 5 4 3 13
M TOR 36 5 4 3 14
M TOR 37 5 8 1 10
M TOR 38 5 8 4 15
M TOR 39 6 5 4 15
M TOR 40 6 5 8 18
M TOR 41 7 6 5 8
M TOR 42 7 6 5 16
M TOR 43 8 1 0 9
M TOR 44 8 1 2 11
M TOR 45 8 1 2 12
M TOR 46 8 4 3 13
M TOR 47 8 4 3 14
M TOR 48 8 5 6 17
M  END
$$$$
