gdb 3501	2.7224842	1.5554822	1.1303087	2.4514	76.22	-0.25147	0.01481	0.26628	1111.7269	0.156999	-422.564556	-422.556125	-422.55518	-422.597204	32.61
 OpenBabel02181911413D

 19 20  0  0  1  0  0  0  0  0999 V2000
   -1.8437    4.2150    1.5906 C   0  0  0  0  0  0  0  0  0  0  0  0
   -1.6217    2.7259    1.4553 C   0  0  1  0  0  0  0  0  0  0  0  0
   -2.7192    1.8403    2.0139 C   0  0  0  0  0  0  0  0  0  0  0  0
   -2.6295    0.4003    1.5947 C   0  0  0  0  0  0  0  0  0  0  0  0
   -1.8116   -0.0583    0.6510 C   0  0  0  0  0  0  0  0  0  0  0  0
   -0.8362    0.7874   -0.1217 C   0  0  2  0  0  0  0  0  0  0  0  0
    0.4593    0.1871   -0.1393 O   0  0  0  0  0  0  0  0  0  0  0  0
   -0.7341    2.2048    0.4016 C   0  0  2  0  0  0  0  0  0  0  0  0
   -0.2839    2.2935    1.7637 O   0  0  0  0  0  0  0  0  0  0  0  0
   -2.0012    4.4863    2.6405 H   0  0  0  0  0  0  0  0  0  0  0  0
   -0.9759    4.7673    1.2226 H   0  0  0  0  0  0  0  0  0  0  0  0
   -2.7272    4.5316    1.0261 H   0  0  0  0  0  0  0  0  0  0  0  0
   -2.7016    1.9120    3.1106 H   0  0  0  0  0  0  0  0  0  0  0  0
   -3.6932    2.2529    1.7130 H   0  0  0  0  0  0  0  0  0  0  0  0
   -3.2960   -0.2885    2.1085 H   0  0  0  0  0  0  0  0  0  0  0  0
   -1.7954   -1.1151    0.3983 H   0  0  0  0  0  0  0  0  0  0  0  0
   -1.1371    0.8265   -1.1773 H   0  0  0  0  0  0  0  0  0  0  0  0
    0.7850    0.2432    0.7680 H   0  0  0  0  0  0  0  0  0  0  0  0
   -0.2456    2.9105   -0.2710 H   0  0  0  0  0  0  0  0  0  0  0  0
  1 10  1  0  0  0  0
  2  1  1  1  0  0  0
  2  9  1  0  0  0  0
  2  3  1  0  0  0  0
  3 13  1  0  0  0  0
  4  3  1  0  0  0  0
  4 15  1  0  0  0  0
  5  4  2  0  0  0  0
  6 17  1  6  0  0  0
  6  8  1  0  0  0  0
  6  5  1  0  0  0  0
  7  6  1  0  0  0  0
  7 18  1  0  0  0  0
  8 19  1  6  0  0  0
  8  2  1  0  0  0  0
  8  9  1  0  0  0  0
 11  1  1  0  0  0  0
 12  1  1  0  0  0  0
 14  3  1  0  0  0  0
 16  5  1  0  0  0  0
M TOR 0 0 1 2 3
M TOR 1 0 1 2 12
M TOR 2 0 1 2 13
M TOR 3 0 1 7 5
M TOR 4 0 1 7 8
M TOR 5 0 1 7 18
M TOR 6 1 2 3 4
M TOR 7 1 2 3 14
M TOR 8 1 7 5 4
M TOR 9 1 7 5 6
M TOR 10 1 7 5 16
M TOR 11 1 8 7 5
M TOR 12 1 8 7 18
M TOR 13 2 1 0 9
M TOR 14 2 1 0 10
M TOR 15 2 1 0 11
M TOR 16 2 1 7 5
M TOR 17 2 1 7 8
M TOR 18 2 1 7 18
M TOR 19 2 3 4 5
M TOR 20 2 3 4 15
M TOR 21 3 2 1 7
M TOR 22 3 2 1 8
M TOR 23 3 4 5 6
M TOR 24 3 4 5 7
M TOR 25 3 4 5 16
M TOR 26 4 3 2 12
M TOR 27 4 3 2 13
M TOR 28 4 5 6 17
M TOR 29 4 5 7 8
M TOR 30 4 5 7 18
M TOR 31 5 4 3 14
M TOR 32 6 5 4 15
M TOR 33 6 5 7 8
M TOR 34 6 5 7 18
M TOR 35 7 1 0 9
M TOR 36 7 1 0 10
M TOR 37 7 1 0 11
M TOR 38 7 1 2 12
M TOR 39 7 1 2 13
M TOR 40 7 5 4 15
M TOR 41 7 5 6 17
M TOR 42 8 1 0 9
M TOR 43 8 1 0 10
M TOR 44 8 1 0 11
M TOR 45 8 1 2 12
M TOR 46 8 1 2 13
M TOR 47 8 7 5 16
M  END
$$$$
