
     RDKit          3D

 19 21  0  0  0  0  0  0  0  0999 V2000
    0.0260    0.2442    1.3617 C   0  0  0  0  0  0  0  0  0  0  0  0
   -0.6874    0.9965    0.1823 C   0  0  0  0  0  0  0  0  0  0  0  0
    0.5901    0.7949   -0.6286 C   0  0  0  0  0  0  0  0  0  0  0  0
    0.9001    0.5361   -2.0784 C   0  0  0  0  0  0  0  0  0  0  0  0
    2.1364   -0.1953   -2.1168 O   0  0  0  0  0  0  0  0  0  0  0  0
    3.0928    0.1195   -1.1010 C   0  0  0  0  0  0  0  0  0  0  0  0
    2.4096    0.5352    0.2073 C   0  0  0  0  0  0  0  0  0  0  0  0
    1.6332    1.7169   -0.1471 O   0  0  0  0  0  0  0  0  0  0  0  0
    1.1212   -0.2687    0.3686 C   0  0  0  0  0  0  0  0  0  0  0  0
    0.4080    0.9107    2.1364 H   0  0  0  0  0  0  0  0  0  0  0  0
   -0.5632   -0.5449    1.8317 H   0  0  0  0  0  0  0  0  0  0  0  0
   -1.5277    0.4221   -0.2195 H   0  0  0  0  0  0  0  0  0  0  0  0
   -0.9960    2.0312    0.3458 H   0  0  0  0  0  0  0  0  0  0  0  0
    0.1586   -0.1053   -2.5664 H   0  0  0  0  0  0  0  0  0  0  0  0
    0.9815    1.4808   -2.6350 H   0  0  0  0  0  0  0  0  0  0  0  0
    3.7036   -0.7823   -0.9771 H   0  0  0  0  0  0  0  0  0  0  0  0
    3.7433    0.9479   -1.4197 H   0  0  0  0  0  0  0  0  0  0  0  0
    3.1119    0.7082    1.0302 H   0  0  0  0  0  0  0  0  0  0  0  0
    1.1248   -1.3346    0.1435 H   0  0  0  0  0  0  0  0  0  0  0  0
  1  2  1  0
  2  3  1  0
  3  4  1  0
  4  5  1  0
  5  6  1  0
  6  7  1  0
  7  8  1  0
  7  9  1  0
  9  1  1  0
  8  3  1  0
  9  3  1  0
  1 10  1  0
  1 11  1  0
  2 12  1  0
  2 13  1  0
  4 14  1  0
  4 15  1  0
  6 16  1  0
  6 17  1  0
  7 18  1  0
  9 19  1  0
M  END
$$$$
