gdb 3238	2.2690086	2.1488873	1.5402845	2.213	73.67	-0.22794	0.06916	0.29710000000000003	939.066	0.157691	-422.525617	-422.518041	-422.517097	-422.556994	30.789
 OpenBabel02181911413D

 19 21  0  0  1  0  0  0  0  0999 V2000
    0.8240    0.9368    0.0258 C   0  0  0  0  0  0  0  0  0  0  0  0
    0.9131   -0.5749    0.1964 C   0  0  1  0  0  0  0  0  0  0  0  0
    1.5091   -1.3453   -1.0025 C   0  0  1  0  0  0  0  0  0  0  0  0
    2.8191   -0.7153   -1.1584 O   0  0  0  0  0  0  0  0  0  0  0  0
    3.1319   -1.4130    0.0508 C   0  0  2  0  0  0  0  0  0  0  0  0
    2.1711   -2.5773   -0.2590 C   0  0  1  0  0  0  0  0  0  0  0  0
    1.6989   -2.6154    1.2037 C   0  0  0  0  0  0  0  0  0  0  0  0
    2.0046   -1.0928    1.1654 C   0  0  2  0  0  0  0  0  0  0  0  0
    2.1913   -0.3100    2.2958 O   0  0  0  0  0  0  0  0  0  0  0  0
    0.5852    1.4119    0.9810 H   0  0  0  0  0  0  0  0  0  0  0  0
    1.7699    1.3431   -0.3363 H   0  0  0  0  0  0  0  0  0  0  0  0
    0.0388    1.1992   -0.6916 H   0  0  0  0  0  0  0  0  0  0  0  0
   -0.0632   -0.9817    0.4827 H   0  0  0  0  0  0  0  0  0  0  0  0
    0.9490   -1.4250   -1.9337 H   0  0  0  0  0  0  0  0  0  0  0  0
    4.1877   -1.4698    0.3172 H   0  0  0  0  0  0  0  0  0  0  0  0
    2.4494   -3.4512   -0.8428 H   0  0  0  0  0  0  0  0  0  0  0  0
    0.6794   -2.9254    1.4482 H   0  0  0  0  0  0  0  0  0  0  0  0
    2.4139   -3.1765    1.8161 H   0  0  0  0  0  0  0  0  0  0  0  0
    2.8799   -0.7080    2.8378 H   0  0  0  0  0  0  0  0  0  0  0  0
  1  2  1  0  0  0  0
  1 10  1  0  0  0  0
  2 13  1  1  0  0  0
  2  8  1  0  0  0  0
  3 14  1  6  0  0  0
  3  6  1  0  0  0  0
  3  2  1  0  0  0  0
  4  3  1  0  0  0  0
  4  5  1  0  0  0  0
  5 15  1  1  0  0  0
  5  8  1  0  0  0  0
  6 16  1  6  0  0  0
  6  5  1  0  0  0  0
  6  7  1  0  0  0  0
  7 17  1  0  0  0  0
  7 18  1  0  0  0  0
  8  7  1  0  0  0  0
  8  9  1  1  0  0  0
  9 19  1  0  0  0  0
 11  1  1  0  0  0  0
 12  1  1  0  0  0  0
M TOR 0 0 1 2 3
M TOR 1 0 1 2 5
M TOR 2 0 1 2 13
M TOR 3 0 1 7 4
M TOR 4 0 1 7 6
M TOR 5 0 1 7 8
M TOR 6 1 2 3 4
M TOR 7 1 2 5 4
M TOR 8 1 2 5 6
M TOR 9 1 2 5 15
M TOR 10 1 7 4 3
M TOR 11 1 7 4 5
M TOR 12 1 7 4 14
M TOR 13 1 7 6 5
M TOR 14 1 7 6 16
M TOR 15 1 7 6 17
M TOR 16 1 7 8 18
M TOR 17 2 1 0 9
M TOR 18 2 1 0 10
M TOR 19 2 1 0 11
M TOR 20 2 1 7 4
M TOR 21 2 1 7 6
M TOR 22 2 1 7 8
M TOR 23 2 3 4 5
M TOR 24 2 3 4 7
M TOR 25 2 3 4 14
M TOR 26 2 5 4 7
M TOR 27 2 5 4 14
M TOR 28 2 5 6 7
M TOR 29 2 5 6 16
M TOR 30 2 5 6 17
M TOR 31 3 2 1 7
M TOR 32 3 2 1 12
M TOR 33 3 2 5 6
M TOR 34 3 2 5 15
M TOR 35 3 4 5 6
M TOR 36 3 4 5 15
M TOR 37 3 4 7 6
M TOR 38 3 4 7 8
M TOR 39 4 3 2 13
M TOR 40 4 5 2 13
M TOR 41 4 5 6 7
M TOR 42 4 5 6 16
M TOR 43 4 5 6 17
M TOR 44 4 7 1 12
M TOR 45 4 7 6 16
M TOR 46 4 7 6 17
M TOR 47 4 7 8 18
M TOR 48 5 2 1 7
M TOR 49 5 2 1 12
M TOR 50 5 4 7 8
M TOR 51 5 6 7 8
M TOR 52 6 5 2 13
M TOR 53 6 5 4 14
M TOR 54 6 7 1 12
M TOR 55 6 7 4 14
M TOR 56 6 7 8 18
M TOR 57 7 1 0 9
M TOR 58 7 1 0 10
M TOR 59 7 1 0 11
M TOR 60 7 1 2 13
M TOR 61 7 4 5 15
M TOR 62 7 6 5 15
M TOR 63 8 7 1 12
M TOR 64 8 7 4 14
M TOR 65 8 7 6 16
M TOR 66 8 7 6 17
M  END
$$$$
