gdb 1385	2.8410034	0.8540198	0.744215	2.8678	78.69	-0.24468	-0.01166	0.23302	1572.2526	0.151662	-422.530271	-422.519351	-422.518406	-422.567917	37.575
 OpenBabel02181911403D

 19 18  0  0  1  0  0  0  0  0999 V2000
   -3.7542   -1.0414    1.6626 C   0  0  0  0  0  0  0  0  0  0  0  0
   -2.8609   -1.3498    0.4609 C   0  0  2  0  0  0  0  0  0  0  0  0
   -1.7251   -0.4975    0.5585 O   0  0  0  0  0  0  0  0  0  0  0  0
   -0.7043   -0.7719   -0.3764 C   0  0  0  0  0  0  0  0  0  0  0  0
    0.4373    0.2364   -0.2489 C   0  0  0  0  0  0  0  0  0  0  0  0
    0.1663    1.4998    0.5350 C   0  0  0  0  0  0  0  0  0  0  0  0
    1.4918    0.0038   -0.7914 O   0  0  0  0  0  0  0  0  0  0  0  0
   -3.5733   -1.1687   -0.8117 C   0  0  0  0  0  0  0  0  0  0  0  0
   -4.1563   -1.0131   -1.8514 C   0  0  0  0  0  0  0  0  0  0  0  0
   -4.6312   -1.6928    1.6603 H   0  0  0  0  0  0  0  0  0  0  0  0
   -3.1911   -1.1994    2.5856 H   0  0  0  0  0  0  0  0  0  0  0  0
   -4.0876   -0.0017    1.6236 H   0  0  0  0  0  0  0  0  0  0  0  0
   -2.5264   -2.3993    0.5203 H   0  0  0  0  0  0  0  0  0  0  0  0
   -0.2895   -1.7824   -0.2427 H   0  0  0  0  0  0  0  0  0  0  0  0
   -1.0852   -0.7097   -1.4084 H   0  0  0  0  0  0  0  0  0  0  0  0
   -0.0938    1.2486    1.5681 H   0  0  0  0  0  0  0  0  0  0  0  0
    1.0469    2.1423    0.5073 H   0  0  0  0  0  0  0  0  0  0  0  0
   -0.7028    2.0222    0.1213 H   0  0  0  0  0  0  0  0  0  0  0  0
   -4.6724   -0.8807   -2.7705 H   0  0  0  0  0  0  0  0  0  0  0  0
  1 11  1  0  0  0  0
  2 13  1  1  0  0  0
  2  3  1  0  0  0  0
  2  1  1  0  0  0  0
  4  5  1  0  0  0  0
  4 14  1  0  0  0  0
  4  3  1  0  0  0  0
  5  6  1  0  0  0  0
  6 16  1  0  0  0  0
  7  5  2  0  0  0  0
  8  2  1  0  0  0  0
  9  8  3  0  0  0  0
 10  1  1  0  0  0  0
 12  1  1  0  0  0  0
 15  4  1  0  0  0  0
 17  6  1  0  0  0  0
 18  6  1  0  0  0  0
 19  9  1  0  0  0  0
M TOR 0 0 1 2 3
M TOR 1 0 1 7 8
M TOR 2 1 2 3 4
M TOR 3 1 2 3 13
M TOR 4 1 2 3 14
M TOR 5 1 7 8 18
M TOR 6 2 1 0 9
M TOR 7 2 1 0 10
M TOR 8 2 1 0 11
M TOR 9 2 1 7 8
M TOR 10 2 3 4 5
M TOR 11 2 3 4 6
M TOR 12 3 2 1 7
M TOR 13 3 2 1 12
M TOR 14 3 4 5 15
M TOR 15 3 4 5 16
M TOR 16 3 4 5 17
M TOR 17 5 4 3 13
M TOR 18 5 4 3 14
M TOR 19 6 4 3 13
M TOR 20 6 4 3 14
M TOR 21 6 4 5 15
M TOR 22 6 4 5 16
M TOR 23 6 4 5 17
M TOR 24 7 1 0 9
M TOR 25 7 1 0 10
M TOR 26 7 1 0 11
M TOR 27 8 7 1 12
M  END
$$$$
