gdb 3914	2.9478829	1.3538168	1.1045093	2.9954	76.27	-0.22766	-0.03172	0.19594	1161.4888	0.1555	-422.549462	-422.540683	-422.539739	-422.583424	32.481
 OpenBabel02181911413D

 19 20  0  0  1  0  0  0  0  0999 V2000
    0.2912    3.8818   -0.2325 C   0  0  0  0  0  0  0  0  0  0  0  0
   -1.0300    3.1604   -0.0546 C   0  0  2  0  0  0  0  0  0  0  0  0
   -1.0991    2.0968    1.0657 C   0  0  0  0  0  0  0  0  0  0  0  0
   -1.1394    1.0864   -0.1054 C   0  0  2  0  0  0  0  0  0  0  0  0
   -2.1257   -0.1110   -0.1575 C   0  0  0  0  0  0  0  0  0  0  0  0
   -0.9503   -1.1111    0.0604 C   0  0  0  0  0  0  0  0  0  0  0  0
    0.0175    0.0605   -0.1996 C   0  0  0  0  0  0  0  0  0  0  0  0
    1.1838    0.1550   -0.4483 O   0  0  0  0  0  0  0  0  0  0  0  0
   -1.2280    2.1327   -1.0679 O   0  0  0  0  0  0  0  0  0  0  0  0
    0.4461    4.6028    0.5779 H   0  0  0  0  0  0  0  0  0  0  0  0
    1.1177    3.1645   -0.2352 H   0  0  0  0  0  0  0  0  0  0  0  0
    0.3030    4.4252   -1.1822 H   0  0  0  0  0  0  0  0  0  0  0  0
   -1.8678    3.8674   -0.0676 H   0  0  0  0  0  0  0  0  0  0  0  0
   -0.2293    2.0399    1.7227 H   0  0  0  0  0  0  0  0  0  0  0  0
   -2.0135    2.1165    1.6615 H   0  0  0  0  0  0  0  0  0  0  0  0
   -2.9198   -0.1101    0.5911 H   0  0  0  0  0  0  0  0  0  0  0  0
   -2.5683   -0.1980   -1.1526 H   0  0  0  0  0  0  0  0  0  0  0  0
   -0.8678   -1.4950    1.0821 H   0  0  0  0  0  0  0  0  0  0  0  0
   -0.8656   -1.9511   -0.6325 H   0  0  0  0  0  0  0  0  0  0  0  0
  1  2  1  0  0  0  0
  1 10  1  0  0  0  0
  2 13  1  1  0  0  0
  2  3  1  0  0  0  0
  3 15  1  0  0  0  0
  3 14  1  0  0  0  0
  4  9  1  6  0  0  0
  4  3  1  0  0  0  0
  5  4  1  0  0  0  0
  5  6  1  0  0  0  0
  5 16  1  0  0  0  0
  6 18  1  0  0  0  0
  7  4  1  0  0  0  0
  7  6  1  0  0  0  0
  8  7  2  0  0  0  0
  9  2  1  0  0  0  0
 11  1  1  0  0  0  0
 12  1  1  0  0  0  0
 17  5  1  0  0  0  0
 19  6  1  0  0  0  0
M TOR 0 0 1 2 3
M TOR 1 0 1 2 13
M TOR 2 0 1 2 14
M TOR 3 0 1 8 3
M TOR 4 1 2 3 4
M TOR 5 1 2 3 6
M TOR 6 1 2 3 8
M TOR 7 1 8 3 4
M TOR 8 1 8 3 6
M TOR 9 2 1 0 9
M TOR 10 2 1 0 10
M TOR 11 2 1 0 11
M TOR 12 2 3 4 5
M TOR 13 2 3 4 15
M TOR 14 2 3 4 16
M TOR 15 2 3 6 5
M TOR 16 2 3 6 7
M TOR 17 3 2 1 12
M TOR 18 3 4 5 6
M TOR 19 3 4 5 17
M TOR 20 3 4 5 18
M TOR 21 3 6 5 17
M TOR 22 3 6 5 18
M TOR 23 3 8 1 12
M TOR 24 4 3 2 13
M TOR 25 4 3 2 14
M TOR 26 4 3 6 7
M TOR 27 4 5 6 7
M TOR 28 5 4 3 8
M TOR 29 5 6 3 8
M TOR 30 6 3 2 13
M TOR 31 6 3 2 14
M TOR 32 6 3 4 15
M TOR 33 6 3 4 16
M TOR 34 6 5 4 15
M TOR 35 6 5 4 16
M TOR 36 7 6 3 8
M TOR 37 7 6 5 17
M TOR 38 7 6 5 18
M TOR 39 8 1 0 9
M TOR 40 8 1 0 10
M TOR 41 8 1 0 11
M TOR 42 8 1 2 13
M TOR 43 8 1 2 14
M TOR 44 8 3 2 13
M TOR 45 8 3 2 14
M TOR 46 8 3 4 15
M TOR 47 8 3 4 16
M  END
$$$$
