gdb 908	3.5440429	0.9867217	0.8491098	3.3775	79.69	-0.24056	-0.03224	0.20832	1372.2798	0.156786	-422.570036	-422.56121	-422.560266	-422.604888	31.683
 OpenBabel02181911403D

 19 19  0  0  0  0  0  0  0  0999 V2000
    0.1062   -0.9116    0.7310 O   0  0  0  0  0  0  0  0  0  0  0  0
    0.3149    0.0081   -0.0162 C   0  0  0  0  0  0  0  0  0  0  0  0
    0.4019    1.4672    0.4102 C   0  0  0  0  0  0  0  0  0  0  0  0
   -0.8792    2.1712    0.0223 C   0  0  0  0  0  0  0  0  0  0  0  0
   -0.9925    2.9562   -1.0505 C   0  0  0  0  0  0  0  0  0  0  0  0
   -2.2837    3.6456   -1.4023 C   0  0  0  0  0  0  0  0  0  0  0  0
   -3.2387    3.6096   -0.2069 C   0  0  0  0  0  0  0  0  0  0  0  0
   -3.3026    2.3086    0.3518 O   0  0  0  0  0  0  0  0  0  0  0  0
   -2.0725    1.9036    0.9127 C   0  0  0  0  0  0  0  0  0  0  0  0
    0.4163   -0.1486   -1.1141 H   0  0  0  0  0  0  0  0  0  0  0  0
    0.5620    1.4981    1.4934 H   0  0  0  0  0  0  0  0  0  0  0  0
    1.2543    1.9335   -0.0956 H   0  0  0  0  0  0  0  0  0  0  0  0
   -0.1335    3.1244   -1.6966 H   0  0  0  0  0  0  0  0  0  0  0  0
   -2.0948    4.6861   -1.6955 H   0  0  0  0  0  0  0  0  0  0  0  0
   -2.7471    3.1601   -2.2723 H   0  0  0  0  0  0  0  0  0  0  0  0
   -2.9087    4.3358    0.5547 H   0  0  0  0  0  0  0  0  0  0  0  0
   -4.2596    3.8682   -0.5004 H   0  0  0  0  0  0  0  0  0  0  0  0
   -1.9094    2.3940    1.8915 H   0  0  0  0  0  0  0  0  0  0  0  0
   -2.1620    0.8296    1.1134 H   0  0  0  0  0  0  0  0  0  0  0  0
  2  3  1  0  0  0  0
  2  1  2  0  0  0  0
  3 11  1  0  0  0  0
  4  3  1  0  0  0  0
  4  9  1  0  0  0  0
  5  4  2  0  0  0  0
  6  5  1  0  0  0  0
  6  7  1  0  0  0  0
  7  8  1  0  0  0  0
  7 16  1  0  0  0  0
  8  9  1  0  0  0  0
  9 19  1  0  0  0  0
  9 18  1  0  0  0  0
 10  2  1  0  0  0  0
 12  3  1  0  0  0  0
 13  5  1  0  0  0  0
 14  6  1  0  0  0  0
 15  6  1  0  0  0  0
 17  7  1  0  0  0  0
M TOR 0 0 1 2 3
M TOR 1 0 1 2 10
M TOR 2 0 1 2 11
M TOR 3 1 2 3 4
M TOR 4 1 2 3 8
M TOR 5 2 3 4 5
M TOR 6 2 3 4 12
M TOR 7 2 3 8 7
M TOR 8 2 3 8 17
M TOR 9 2 3 8 18
M TOR 10 3 2 1 9
M TOR 11 3 4 5 6
M TOR 12 3 4 5 13
M TOR 13 3 4 5 14
M TOR 14 3 8 7 6
M TOR 15 4 3 2 10
M TOR 16 4 3 2 11
M TOR 17 4 3 8 7
M TOR 18 4 3 8 17
M TOR 19 4 3 8 18
M TOR 20 4 5 6 7
M TOR 21 4 5 6 15
M TOR 22 4 5 6 16
M TOR 23 5 4 3 8
M TOR 24 5 6 7 8
M TOR 25 6 5 4 12
M TOR 26 6 7 8 17
M TOR 27 6 7 8 18
M TOR 28 7 6 5 13
M TOR 29 7 6 5 14
M TOR 30 8 3 2 10
M TOR 31 8 3 2 11
M TOR 32 8 3 4 12
M TOR 33 8 7 6 15
M TOR 34 8 7 6 16
M  END
$$$$
