gdb 4866	3.9705576	0.8806233	0.8426854	1.9171	78.45	-0.25474	0.04529	0.30003	1409.0382	0.15473	-422.518826	-422.509288	-422.508344	-422.553027	36.023
 OpenBabel02181911413D

 19 19  0  0  1  0  0  0  0  0999 V2000
    1.1601    0.5401    0.6649 O   0  0  0  0  0  0  0  0  0  0  0  0
    0.1276   -0.4203    0.6295 C   0  0  0  0  0  0  0  0  0  0  0  0
   -1.2449    0.2480    0.5803 C   0  0  1  0  0  0  0  0  0  0  0  0
   -1.2909    1.1181   -0.5444 O   0  0  0  0  0  0  0  0  0  0  0  0
   -2.4331   -0.7282    0.7854 C   0  0  0  0  0  0  0  0  0  0  0  0
   -2.5040   -0.2641    2.2790 C   0  0  1  0  0  0  0  0  0  0  0  0
   -1.6336    0.9757    1.8853 C   0  0  0  0  0  0  0  0  0  0  0  0
   -3.8068   -0.0343    2.8656 C   0  0  0  0  0  0  0  0  0  0  0  0
   -4.8945    0.1692    3.3370 C   0  0  0  0  0  0  0  0  0  0  0  0
    0.9001    1.2218    0.0316 H   0  0  0  0  0  0  0  0  0  0  0  0
    0.2247   -1.0912   -0.2453 H   0  0  0  0  0  0  0  0  0  0  0  0
    0.2284   -1.0436    1.5249 H   0  0  0  0  0  0  0  0  0  0  0  0
   -1.2416    0.5787   -1.3431 H   0  0  0  0  0  0  0  0  0  0  0  0
   -3.3098   -0.3930    0.2276 H   0  0  0  0  0  0  0  0  0  0  0  0
   -2.2621   -1.7922    0.6001 H   0  0  0  0  0  0  0  0  0  0  0  0
   -1.9283   -0.9455    2.9132 H   0  0  0  0  0  0  0  0  0  0  0  0
   -2.2581    1.8436    1.6682 H   0  0  0  0  0  0  0  0  0  0  0  0
   -0.8213    1.2592    2.5559 H   0  0  0  0  0  0  0  0  0  0  0  0
   -5.8527    0.3469    3.7583 H   0  0  0  0  0  0  0  0  0  0  0  0
  2  1  1  0  0  0  0
  2 12  1  0  0  0  0
  3  4  1  6  0  0  0
  3  2  1  0  0  0  0
  3  5  1  0  0  0  0
  3  7  1  0  0  0  0
  5  6  1  0  0  0  0
  6  8  1  0  0  0  0
  6 16  1  1  0  0  0
  7  6  1  0  0  0  0
  7 18  1  0  0  0  0
  8  9  3  0  0  0  0
  9 19  1  0  0  0  0
 10  1  1  0  0  0  0
 11  2  1  0  0  0  0
 13  4  1  0  0  0  0
 14  5  1  0  0  0  0
 15  5  1  0  0  0  0
 17  7  1  0  0  0  0
M TOR 0 0 1 2 3
M TOR 1 0 1 2 4
M TOR 2 0 1 2 6
M TOR 3 1 2 3 12
M TOR 4 1 2 4 5
M TOR 5 1 2 4 13
M TOR 6 1 2 4 14
M TOR 7 1 2 6 5
M TOR 8 1 2 6 16
M TOR 9 1 2 6 17
M TOR 10 2 1 0 9
M TOR 11 2 4 5 6
M TOR 12 2 4 5 7
M TOR 13 2 4 5 15
M TOR 14 2 6 5 7
M TOR 15 2 6 5 15
M TOR 16 3 2 1 10
M TOR 17 3 2 1 11
M TOR 18 3 2 4 5
M TOR 19 3 2 4 13
M TOR 20 3 2 4 14
M TOR 21 3 2 6 5
M TOR 22 3 2 6 16
M TOR 23 3 2 6 17
M TOR 24 4 2 1 10
M TOR 25 4 2 1 11
M TOR 26 4 2 3 12
M TOR 27 4 2 6 16
M TOR 28 4 2 6 17
M TOR 29 4 5 6 16
M TOR 30 4 5 6 17
M TOR 31 4 5 7 8
M TOR 32 5 7 8 18
M TOR 33 6 2 1 10
M TOR 34 6 2 1 11
M TOR 35 6 2 3 12
M TOR 36 6 2 4 13
M TOR 37 6 2 4 14
M TOR 38 6 5 4 13
M TOR 39 6 5 4 14
M TOR 40 6 5 7 8
M TOR 41 7 5 4 13
M TOR 42 7 5 4 14
M TOR 43 7 5 6 16
M TOR 44 7 5 6 17
M TOR 45 8 7 5 15
M  END
$$$$
