
     RDKit          3D

 19 18  0  0  0  0  0  0  0  0999 V2000
    6.4722    0.2144    0.0526 C   0  0  0  0  0  0  0  0  0  0  0  0
    5.8721   -0.9807    0.8148 C   0  0  0  0  0  0  0  0  0  0  0  0
    4.4205   -0.9360    0.9223 C   0  0  0  0  0  0  0  0  0  0  0  0
    3.2147   -0.9071    1.0095 C   0  0  0  0  0  0  0  0  0  0  0  0
    1.7697   -0.8835    1.1507 C   0  0  0  0  0  0  0  0  0  0  0  0
    1.1722   -1.7160    1.7977 O   0  0  0  0  0  0  0  0  0  0  0  0
    1.0511    0.2968    0.4705 C   0  0  0  0  0  0  0  0  0  0  0  0
   -0.2687   -0.1469   -0.1481 C   0  0  0  0  0  0  0  0  0  0  0  0
    1.8307    0.9142   -0.5336 O   0  0  0  0  0  0  0  0  0  0  0  0
    6.0831    0.2607   -0.9678 H   0  0  0  0  0  0  0  0  0  0  0  0
    6.2316    1.1562    0.5531 H   0  0  0  0  0  0  0  0  0  0  0  0
    7.5604    0.1211    0.0026 H   0  0  0  0  0  0  0  0  0  0  0  0
    6.1531   -1.9196    0.3205 H   0  0  0  0  0  0  0  0  0  0  0  0
    6.2984   -1.0359    1.8245 H   0  0  0  0  0  0  0  0  0  0  0  0
    0.8391    1.0065    1.2923 H   0  0  0  0  0  0  0  0  0  0  0  0
   -0.8718   -0.6677    0.5973 H   0  0  0  0  0  0  0  0  0  0  0  0
   -0.8166    0.7221   -0.5195 H   0  0  0  0  0  0  0  0  0  0  0  0
   -0.0793   -0.8228   -0.9869 H   0  0  0  0  0  0  0  0  0  0  0  0
    2.7292    1.0159   -0.1980 H   0  0  0  0  0  0  0  0  0  0  0  0
  1  2  1  0
  2  3  1  0
  3  4  3  0
  4  5  1  0
  5  6  2  0
  5  7  1  0
  7  8  1  0
  7  9  1  0
  1 10  1  0
  1 11  1  0
  1 12  1  0
  2 13  1  0
  2 14  1  0
  7 15  1  0
  8 16  1  0
  8 17  1  0
  8 18  1  0
  9 19  1  0
M  END
$$$$
