gdb 5510	2.2889059	1.2970908	1.1915457	2.3469	76.08	-0.2411	0.0101	0.25120000000000003	1171.7827	0.155784	-422.531492	-422.522355	-422.521411	-422.565423	33.589
 OpenBabel02181911423D

 19 20  0  0  1  0  0  0  0  0999 V2000
   -1.1718   -2.4185   -0.0950 C   0  0  0  0  0  0  0  0  0  0  0  0
   -1.2026   -0.9170   -0.0948 C   0  0  2  0  0  0  0  0  0  0  0  0
   -2.1571    0.0432    0.7083 C   0  0  0  0  0  0  0  0  0  0  0  0
   -1.2501    1.0410   -0.0855 C   0  0  2  0  0  0  0  0  0  0  0  0
   -1.4410    0.0679   -1.3068 C   0  0  1  0  0  0  0  0  0  0  0  0
   -0.4675    0.1014   -2.4735 C   0  0  0  0  0  0  0  0  0  0  0  0
   -0.7200    1.1900   -3.3501 O   0  0  0  0  0  0  0  0  0  0  0  0
   -0.1145    0.0916    0.3240 C   0  0  0  0  0  0  0  0  0  0  0  0
    0.9988    0.1110    0.7520 O   0  0  0  0  0  0  0  0  0  0  0  0
   -0.9828   -2.8007    0.9133 H   0  0  0  0  0  0  0  0  0  0  0  0
   -2.1209   -2.8381   -0.4439 H   0  0  0  0  0  0  0  0  0  0  0  0
   -0.3758   -2.7943   -0.7459 H   0  0  0  0  0  0  0  0  0  0  0  0
   -3.1987    0.0190    0.3790 H   0  0  0  0  0  0  0  0  0  0  0  0
   -2.0734    0.0414    1.7970 H   0  0  0  0  0  0  0  0  0  0  0  0
   -1.2954    2.1279   -0.0751 H   0  0  0  0  0  0  0  0  0  0  0  0
   -2.4757    0.0516   -1.6646 H   0  0  0  0  0  0  0  0  0  0  0  0
    0.5728    0.1080   -2.1124 H   0  0  0  0  0  0  0  0  0  0  0  0
   -0.5925   -0.8004   -3.0831 H   0  0  0  0  0  0  0  0  0  0  0  0
   -0.5344    2.0030   -2.8694 H   0  0  0  0  0  0  0  0  0  0  0  0
  1 10  1  0  0  0  0
  2  1  1  1  0  0  0
  2  8  1  0  0  0  0
  2  3  1  0  0  0  0
  3 14  1  0  0  0  0
  4 15  1  1  0  0  0
  4  8  1  0  0  0  0
  4  3  1  0  0  0  0
  5 16  1  6  0  0  0
  5  2  1  0  0  0  0
  5  4  1  0  0  0  0
  6 17  1  0  0  0  0
  6  5  1  0  0  0  0
  7 19  1  0  0  0  0
  7  6  1  0  0  0  0
  8  9  2  0  0  0  0
 11  1  1  0  0  0  0
 12  1  1  0  0  0  0
 13  3  1  0  0  0  0
 18  6  1  0  0  0  0
M TOR 0 0 1 2 3
M TOR 1 0 1 2 12
M TOR 2 0 1 2 13
M TOR 3 0 1 4 3
M TOR 4 0 1 4 5
M TOR 5 0 1 4 15
M TOR 6 0 1 7 3
M TOR 7 0 1 7 8
M TOR 8 1 2 3 4
M TOR 9 1 2 3 7
M TOR 10 1 2 3 14
M TOR 11 1 4 3 7
M TOR 12 1 4 3 14
M TOR 13 1 4 5 6
M TOR 14 1 4 5 16
M TOR 15 1 4 5 17
M TOR 16 1 7 3 14
M TOR 17 2 1 0 9
M TOR 18 2 1 0 10
M TOR 19 2 1 0 11
M TOR 20 2 1 4 5
M TOR 21 2 1 4 15
M TOR 22 2 1 7 8
M TOR 23 2 3 4 5
M TOR 24 2 3 4 15
M TOR 25 2 3 7 8
M TOR 26 3 4 5 6
M TOR 27 3 4 5 16
M TOR 28 3 4 5 17
M TOR 29 4 1 0 9
M TOR 30 4 1 0 10
M TOR 31 4 1 0 11
M TOR 32 4 1 2 12
M TOR 33 4 1 2 13
M TOR 34 4 1 7 8
M TOR 35 4 3 2 12
M TOR 36 4 3 2 13
M TOR 37 4 3 7 8
M TOR 38 4 5 6 18
M TOR 39 5 4 1 7
M TOR 40 5 4 3 7
M TOR 41 5 4 3 14
M TOR 42 6 5 4 15
M TOR 43 7 1 0 9
M TOR 44 7 1 0 10
M TOR 45 7 1 0 11
M TOR 46 7 1 2 12
M TOR 47 7 1 2 13
M TOR 48 7 1 4 15
M TOR 49 7 3 2 12
M TOR 50 7 3 2 13
M TOR 51 7 3 4 15
M TOR 52 8 7 3 14
M  END
$$$$
