
     RDKit          3D

 19 20  0  0  0  0  0  0  0  0999 V2000
    1.3440    1.1905   -0.0966 C   0  0  0  0  0  0  0  0  0  0  0  0
    1.0746   -0.3204   -0.0269 C   0  0  0  0  0  0  0  0  0  0  0  0
    1.6453   -1.0696   -1.2213 C   0  0  0  0  0  0  0  0  0  0  0  0
    2.5947   -1.9450   -0.8796 C   0  0  0  0  0  0  0  0  0  0  0  0
    2.7652   -2.0130    0.5922 C   0  0  0  0  0  0  0  0  0  0  0  0
    4.0291   -2.2706    1.1039 O   0  0  0  0  0  0  0  0  0  0  0  0
    1.5460   -2.4696    1.3718 C   0  0  0  0  0  0  0  0  0  0  0  0
    1.8088   -2.8948    2.6876 O   0  0  0  0  0  0  0  0  0  0  0  0
    1.7661   -0.9952    1.1585 C   0  0  0  0  0  0  0  0  0  0  0  0
    0.9222    1.7032    0.7745 H   0  0  0  0  0  0  0  0  0  0  0  0
    2.4200    1.3894   -0.1241 H   0  0  0  0  0  0  0  0  0  0  0  0
    0.8966    1.6279   -0.9952 H   0  0  0  0  0  0  0  0  0  0  0  0
   -0.0128   -0.4742    0.0274 H   0  0  0  0  0  0  0  0  0  0  0  0
    1.2928   -0.8900   -2.2311 H   0  0  0  0  0  0  0  0  0  0  0  0
    3.1606   -2.5789   -1.5522 H   0  0  0  0  0  0  0  0  0  0  0  0
    3.8896   -2.5498    2.0194 H   0  0  0  0  0  0  0  0  0  0  0  0
    0.7247   -2.9788    0.8665 H   0  0  0  0  0  0  0  0  0  0  0  0
    1.9225   -3.8516    2.6659 H   0  0  0  0  0  0  0  0  0  0  0  0
    2.0126   -0.4185    2.0438 H   0  0  0  0  0  0  0  0  0  0  0  0
  1  2  1  0
  2  3  1  0
  3  4  2  0
  4  5  1  0
  5  6  1  0
  5  7  1  0
  7  8  1  0
  7  9  1  0
  9  2  1  0
  9  5  1  0
  1 10  1  0
  1 11  1  0
  1 12  1  0
  2 13  1  0
  3 14  1  0
  4 15  1  0
  6 16  1  0
  7 17  1  0
  8 18  1  0
  9 19  1  0
M  END
$$$$
