
     RDKit          3D

 19 20  0  0  0  0  0  0  0  0999 V2000
    0.4331    2.0310   -2.2268 O   0  0  0  0  0  0  0  0  0  0  0  0
   -0.3654    1.2551   -1.4045 C   0  0  0  0  0  0  0  0  0  0  0  0
   -1.6994    0.6774   -1.9379 C   0  0  0  0  0  0  0  0  0  0  0  0
   -1.9965    0.5085   -0.4177 C   0  0  0  0  0  0  0  0  0  0  0  0
   -1.2074    1.8285   -0.2120 C   0  0  0  0  0  0  0  0  0  0  0  0
   -0.9640   -0.5591    0.0097 C   0  0  0  0  0  0  0  0  0  0  0  0
    0.2785   -0.0013   -0.7607 C   0  0  0  0  0  0  0  0  0  0  0  0
    1.4897    0.2998    0.0809 C   0  0  0  0  0  0  0  0  0  0  0  0
    2.1264    1.3272    0.0111 O   0  0  0  0  0  0  0  0  0  0  0  0
    1.2328    2.2251   -1.7171 H   0  0  0  0  0  0  0  0  0  0  0  0
   -2.3170    1.4473   -2.4044 H   0  0  0  0  0  0  0  0  0  0  0  0
   -1.6611   -0.2168   -2.5677 H   0  0  0  0  0  0  0  0  0  0  0  0
   -3.0127    0.3844   -0.0474 H   0  0  0  0  0  0  0  0  0  0  0  0
   -1.7702    2.7123   -0.5172 H   0  0  0  0  0  0  0  0  0  0  0  0
   -0.7151    2.0009    0.7494 H   0  0  0  0  0  0  0  0  0  0  0  0
   -0.8145   -0.5792    1.0949 H   0  0  0  0  0  0  0  0  0  0  0  0
   -1.2369   -1.5676   -0.3113 H   0  0  0  0  0  0  0  0  0  0  0  0
    0.6166   -0.7096   -1.5309 H   0  0  0  0  0  0  0  0  0  0  0  0
    1.8012   -0.5034    0.7865 H   0  0  0  0  0  0  0  0  0  0  0  0
  1  2  1  0
  2  3  1  0
  3  4  1  0
  4  5  1  0
  4  6  1  0
  6  7  1  0
  7  8  1  0
  8  9  2  0
  5  2  1  0
  7  2  1  0
  1 10  1  0
  3 11  1  0
  3 12  1  0
  4 13  1  0
  5 14  1  0
  5 15  1  0
  6 16  1  0
  6 17  1  0
  7 18  1  0
  8 19  1  0
M  END
$$$$
