gdb 1646	2.6851991	1.4190744	1.1010475	3.9235	74.47	-0.27314	0.00812	0.28126	1145.6692	0.156671	-422.572055	-422.563353	-422.562408	-422.60562	32.302
 OpenBabel02181911403D

 19 20  0  0  1  0  0  0  0  0999 V2000
   -2.2086   -2.9371    1.2887 C   0  0  0  0  0  0  0  0  0  0  0  0
   -1.0227   -1.9938    1.2086 C   0  0  0  0  0  0  0  0  0  0  0  0
   -0.4607   -1.4447    2.5010 C   0  0  0  0  0  0  0  0  0  0  0  0
    0.3128   -2.4806    1.7187 C   0  0  0  0  0  0  0  0  0  0  0  0
   -1.0374   -1.1077   -0.0205 C   0  0  1  0  0  0  0  0  0  0  0  0
   -2.0036    0.0972   -0.0686 C   0  0  0  0  0  0  0  0  0  0  0  0
   -0.8685    1.0116   -0.2251 O   0  0  0  0  0  0  0  0  0  0  0  0
    0.0335   -0.0165   -0.1510 C   0  0  0  0  0  0  0  0  0  0  0  0
    1.2211    0.0552   -0.1802 O   0  0  0  0  0  0  0  0  0  0  0  0
   -2.1554   -3.5566    2.1890 H   0  0  0  0  0  0  0  0  0  0  0  0
   -3.1583   -2.3894    1.3203 H   0  0  0  0  0  0  0  0  0  0  0  0
   -2.2403   -3.6087    0.4225 H   0  0  0  0  0  0  0  0  0  0  0  0
   -0.0689   -0.4332    2.5179 H   0  0  0  0  0  0  0  0  0  0  0  0
   -0.9414   -1.7476    3.4249 H   0  0  0  0  0  0  0  0  0  0  0  0
    1.2061   -2.1472    1.2033 H   0  0  0  0  0  0  0  0  0  0  0  0
    0.3611   -3.4908    2.1109 H   0  0  0  0  0  0  0  0  0  0  0  0
   -1.0800   -1.7192   -0.9287 H   0  0  0  0  0  0  0  0  0  0  0  0
   -2.6732    0.1651   -0.9277 H   0  0  0  0  0  0  0  0  0  0  0  0
   -2.5373    0.3084    0.8604 H   0  0  0  0  0  0  0  0  0  0  0  0
  1 11  1  0  0  0  0
  1 10  1  0  0  0  0
  2  1  1  0  0  0  0
  2  4  1  0  0  0  0
  2  3  1  0  0  0  0
  3 13  1  0  0  0  0
  3 14  1  0  0  0  0
  4 16  1  0  0  0  0
  4  3  1  0  0  0  0
  5 17  1  6  0  0  0
  5  2  1  0  0  0  0
  6  5  1  0  0  0  0
  6 19  1  0  0  0  0
  7  8  1  0  0  0  0
  7  6  1  0  0  0  0
  8  5  1  0  0  0  0
  9  8  2  0  0  0  0
 12  1  1  0  0  0  0
 15  4  1  0  0  0  0
 18  6  1  0  0  0  0
M TOR 0 0 1 2 3
M TOR 1 0 1 2 12
M TOR 2 0 1 2 13
M TOR 3 0 1 3 14
M TOR 4 0 1 3 15
M TOR 5 0 1 4 5
M TOR 6 0 1 4 7
M TOR 7 0 1 4 16
M TOR 8 1 2 3 14
M TOR 9 1 2 3 15
M TOR 10 1 3 2 12
M TOR 11 1 3 2 13
M TOR 12 1 4 5 6
M TOR 13 1 4 5 17
M TOR 14 1 4 5 18
M TOR 15 1 4 7 6
M TOR 16 1 4 7 8
M TOR 17 2 1 0 9
M TOR 18 2 1 0 10
M TOR 19 2 1 0 11
M TOR 20 2 1 4 5
M TOR 21 2 1 4 7
M TOR 22 2 1 4 16
M TOR 23 2 3 1 4
M TOR 24 3 1 0 9
M TOR 25 3 1 0 10
M TOR 26 3 1 0 11
M TOR 27 3 1 4 5
M TOR 28 3 1 4 7
M TOR 29 3 1 4 16
M TOR 30 4 1 0 9
M TOR 31 4 1 0 10
M TOR 32 4 1 0 11
M TOR 33 4 1 2 12
M TOR 34 4 1 2 13
M TOR 35 4 1 3 14
M TOR 36 4 1 3 15
M TOR 37 4 5 6 7
M TOR 38 5 4 7 8
M TOR 39 5 6 7 8
M TOR 40 6 5 4 16
M TOR 41 6 7 4 16
M TOR 42 7 4 5 17
M TOR 43 7 4 5 18
M TOR 44 7 6 5 17
M TOR 45 7 6 5 18
M TOR 46 8 7 4 16
M  END
$$$$
