
     RDKit          3D

 19 21  0  0  0  0  0  0  0  0999 V2000
   -1.7765   -2.0352    1.6663 C   0  0  0  0  0  0  0  0  0  0  0  0
   -1.6393   -1.9734    0.1740 C   0  0  0  0  0  0  0  0  0  0  0  0
   -2.4208   -1.0301   -0.7227 C   0  0  0  0  0  0  0  0  0  0  0  0
   -0.9188   -1.0042   -0.7530 C   0  0  0  0  0  0  0  0  0  0  0  0
   -0.4350   -2.0537   -1.5968 O   0  0  0  0  0  0  0  0  0  0  0  0
   -1.0106   -3.0496   -0.7072 C   0  0  0  0  0  0  0  0  0  0  0  0
   -0.0535    0.1730   -0.5343 C   0  0  0  0  0  0  0  0  0  0  0  0
    1.1086    0.4299   -1.3976 C   0  0  0  0  0  0  0  0  0  0  0  0
    1.2800   -0.0771   -0.0743 O   0  0  0  0  0  0  0  0  0  0  0  0
   -2.5986   -2.6982    1.9622 H   0  0  0  0  0  0  0  0  0  0  0  0
   -0.8590   -2.4065    2.1351 H   0  0  0  0  0  0  0  0  0  0  0  0
   -1.9884   -1.0464    2.0850 H   0  0  0  0  0  0  0  0  0  0  0  0
   -2.9566   -1.3923   -1.5965 H   0  0  0  0  0  0  0  0  0  0  0  0
   -2.8988   -0.2082   -0.1968 H   0  0  0  0  0  0  0  0  0  0  0  0
   -1.6802   -3.7383   -1.2361 H   0  0  0  0  0  0  0  0  0  0  0  0
   -0.2182   -3.6131   -0.2011 H   0  0  0  0  0  0  0  0  0  0  0  0
   -0.5441    1.0190   -0.0528 H   0  0  0  0  0  0  0  0  0  0  0  0
    1.3309   -0.2758   -2.1945 H   0  0  0  0  0  0  0  0  0  0  0  0
    1.4409    1.4547   -1.5583 H   0  0  0  0  0  0  0  0  0  0  0  0
  1  2  1  0
  2  3  1  0
  3  4  1  0
  4  5  1  0
  5  6  1  0
  4  7  1  0
  7  8  1  0
  8  9  1  0
  4  2  1  0
  9  7  1  0
  6  2  1  0
  1 10  1  0
  1 11  1  0
  1 12  1  0
  3 13  1  0
  3 14  1  0
  6 15  1  0
  6 16  1  0
  7 17  1  0
  8 18  1  0
  8 19  1  0
M  END
$$$$
