gdb 4619	3.7982197	0.7029619	0.6619765	1.1578	83.75	-0.23992	0.02118	0.2611	1748.1298	0.153609	-422.512289	-422.501671	-422.500727	-422.548919	37.467
 OpenBabel02181911413D

 19 19  0  0  1  0  0  0  0  0999 V2000
    5.9429    0.7740    1.3024 C   0  0  0  0  0  0  0  0  0  0  0  0
    4.6807   -0.0479    1.2351 C   0  0  2  0  0  0  0  0  0  0  0  0
    3.9183    0.0966    2.3957 O   0  0  0  0  0  0  0  0  0  0  0  0
    4.6708   -1.3701    0.5272 C   0  0  0  0  0  0  0  0  0  0  0  0
    3.9379   -0.1732   -0.0987 C   0  0  1  0  0  0  0  0  0  0  0  0
    2.5089   -0.1306   -0.0724 C   0  0  0  0  0  0  0  0  0  0  0  0
    1.3038   -0.0759    0.0055 C   0  0  0  0  0  0  0  0  0  0  0  0
   -0.1535    0.0150    0.0884 C   0  0  0  0  0  0  0  0  0  0  0  0
   -0.6413    1.3444    0.2051 O   0  0  0  0  0  0  0  0  0  0  0  0
    6.5420    0.4689    2.1665 H   0  0  0  0  0  0  0  0  0  0  0  0
    6.5489    0.6423    0.4018 H   0  0  0  0  0  0  0  0  0  0  0  0
    5.7034    1.8358    1.4137 H   0  0  0  0  0  0  0  0  0  0  0  0
    2.9854    0.0714    2.1435 H   0  0  0  0  0  0  0  0  0  0  0  0
    5.5683   -1.7125    0.0236 H   0  0  0  0  0  0  0  0  0  0  0  0
    4.0499   -2.1524    0.9478 H   0  0  0  0  0  0  0  0  0  0  0  0
    4.4097    0.2849   -0.9630 H   0  0  0  0  0  0  0  0  0  0  0  0
   -0.6050   -0.3860   -0.8261 H   0  0  0  0  0  0  0  0  0  0  0  0
   -0.5090   -0.6177    0.9178 H   0  0  0  0  0  0  0  0  0  0  0  0
   -0.1661    1.7649    0.9294 H   0  0  0  0  0  0  0  0  0  0  0  0
  1 12  1  0  0  0  0
  1 10  1  0  0  0  0
  2  1  1  0  0  0  0
  2  3  1  1  0  0  0
  4 15  1  0  0  0  0
  4  2  1  0  0  0  0
  5 16  1  6  0  0  0
  5  6  1  0  0  0  0
  5  4  1  0  0  0  0
  5  2  1  0  0  0  0
  6  7  3  0  0  0  0
  7  8  1  0  0  0  0
  8  9  1  0  0  0  0
  8 18  1  0  0  0  0
  9 19  1  0  0  0  0
 11  1  1  0  0  0  0
 13  3  1  0  0  0  0
 14  4  1  0  0  0  0
 17  8  1  0  0  0  0
M TOR 0 0 1 2 12
M TOR 1 0 1 3 4
M TOR 2 0 1 3 13
M TOR 3 0 1 3 14
M TOR 4 0 1 4 5
M TOR 5 0 1 4 15
M TOR 6 1 3 4 5
M TOR 7 1 3 4 15
M TOR 8 1 4 3 13
M TOR 9 1 4 3 14
M TOR 10 1 4 5 6
M TOR 11 2 1 0 9
M TOR 12 2 1 0 10
M TOR 13 2 1 0 11
M TOR 14 2 1 3 4
M TOR 15 2 1 3 13
M TOR 16 2 1 3 14
M TOR 17 2 1 4 5
M TOR 18 2 1 4 15
M TOR 19 3 1 0 9
M TOR 20 3 1 0 10
M TOR 21 3 1 0 11
M TOR 22 3 1 2 12
M TOR 23 3 4 5 6
M TOR 24 4 1 0 9
M TOR 25 4 1 0 10
M TOR 26 4 1 0 11
M TOR 27 4 1 2 12
M TOR 28 4 5 6 7
M TOR 29 5 4 3 13
M TOR 30 5 4 3 14
M TOR 31 5 6 7 8
M TOR 32 5 6 7 16
M TOR 33 5 6 7 17
M TOR 34 6 5 4 15
M TOR 35 6 7 8 18
M  END
$$$$
