gdb 4622	6.367292	0.52193	0.5071356	1.865	84.73	-0.2412	0.03051	0.27171	2167.7795	0.154293	-422.488706	-422.478184	-422.477239	-422.52618	35.948
 OpenBabel02181911413D

 19 19  0  0  1  0  0  0  0  0999 V2000
    6.7990   -1.1586   -1.8811 C   0  0  0  0  0  0  0  0  0  0  0  0
    5.8554   -1.1413   -0.8262 O   0  0  0  0  0  0  0  0  0  0  0  0
    4.6884   -0.4666   -1.1572 C   0  0  2  0  0  0  0  0  0  0  0  0
    4.6323    1.0253   -1.0056 C   0  0  0  0  0  0  0  0  0  0  0  0
    3.9250    0.1173    0.0067 C   0  0  1  0  0  0  0  0  0  0  0  0
    2.4953    0.0472    0.0474 C   0  0  0  0  0  0  0  0  0  0  0  0
    1.2907   -0.0184    0.0664 C   0  0  0  0  0  0  0  0  0  0  0  0
   -0.1686   -0.0467    0.1285 C   0  0  0  0  0  0  0  0  0  0  0  0
   -0.7712    1.2383    0.0304 O   0  0  0  0  0  0  0  0  0  0  0  0
    6.4025   -1.6719   -2.7697 H   0  0  0  0  0  0  0  0  0  0  0  0
    7.1002   -0.1425   -2.1729 H   0  0  0  0  0  0  0  0  0  0  0  0
    7.6737   -1.7031   -1.5187 H   0  0  0  0  0  0  0  0  0  0  0  0
    4.1046   -0.9189   -1.9593 H   0  0  0  0  0  0  0  0  0  0  0  0
    5.5279    1.5232   -0.6519 H   0  0  0  0  0  0  0  0  0  0  0  0
    4.0117    1.5973   -1.6851 H   0  0  0  0  0  0  0  0  0  0  0  0
    4.4383    0.0141    0.9583 H   0  0  0  0  0  0  0  0  0  0  0  0
   -0.5730   -0.6269   -0.7087 H   0  0  0  0  0  0  0  0  0  0  0  0
   -0.4813   -0.5643    1.0499 H   0  0  0  0  0  0  0  0  0  0  0  0
   -0.3293    1.8089    0.6678 H   0  0  0  0  0  0  0  0  0  0  0  0
  1 12  1  0  0  0  0
  1  2  1  0  0  0  0
  3 13  1  6  0  0  0
  3  4  1  0  0  0  0
  3  2  1  0  0  0  0
  3  5  1  0  0  0  0
  4 14  1  0  0  0  0
  4  5  1  0  0  0  0
  5  6  1  0  0  0  0
  5 16  1  1  0  0  0
  6  7  3  0  0  0  0
  7  8  1  0  0  0  0
  8 18  1  0  0  0  0
  9  8  1  0  0  0  0
  9 19  1  0  0  0  0
 10  1  1  0  0  0  0
 11  1  1  0  0  0  0
 15  4  1  0  0  0  0
 17  8  1  0  0  0  0
M TOR 0 0 1 2 3
M TOR 1 0 1 2 4
M TOR 2 0 1 2 12
M TOR 3 1 2 3 4
M TOR 4 1 2 3 13
M TOR 5 1 2 3 14
M TOR 6 1 2 4 5
M TOR 7 1 2 4 15
M TOR 8 2 1 0 9
M TOR 9 2 1 0 10
M TOR 10 2 1 0 11
M TOR 11 2 3 4 5
M TOR 12 2 3 4 15
M TOR 13 2 4 3 13
M TOR 14 2 4 3 14
M TOR 15 2 4 5 6
M TOR 16 3 4 2 12
M TOR 17 3 4 5 6
M TOR 18 4 5 6 7
M TOR 19 5 4 2 12
M TOR 20 5 4 3 13
M TOR 21 5 4 3 14
M TOR 22 5 6 7 8
M TOR 23 5 6 7 16
M TOR 24 5 6 7 17
M TOR 25 6 5 4 15
M TOR 26 6 7 8 18
M  END
$$$$
