gdb 3677	2.4718999	1.471605	1.1498688	3.3493	75.32	-0.24692	0.07284	0.31976	1144.9052	0.154687	-422.49819	-422.489395	-422.488451	-422.531404	32.967
 OpenBabel02181911413D

 19 21  0  0  1  0  0  0  0  0999 V2000
    0.7264   -2.2163    4.1014 C   0  0  0  0  0  0  0  0  0  0  0  0
    0.4261   -1.9351    2.6512 C   0  0  1  0  0  0  0  0  0  0  0  0
   -0.9125   -1.5094    2.3375 O   0  0  0  0  0  0  0  0  0  0  0  0
    0.1445   -0.5941    2.1291 C   0  0  1  0  0  0  0  0  0  0  0  0
    0.2869    0.7514    2.8139 C   0  0  2  0  0  0  0  0  0  0  0  0
   -0.5536    1.6763    2.1030 O   0  0  0  0  0  0  0  0  0  0  0  0
    0.7175    1.3601    1.5396 C   0  0  2  0  0  0  0  0  0  0  0  0
    0.5572    0.0342    0.7639 C   0  0  1  0  0  0  0  0  0  0  0  0
    1.8265   -0.5275    0.1359 C   0  0  0  0  0  0  0  0  0  0  0  0
    0.2993   -3.1797    4.3985 H   0  0  0  0  0  0  0  0  0  0  0  0
    1.8079   -2.2625    4.2694 H   0  0  0  0  0  0  0  0  0  0  0  0
    0.3017   -1.4438    4.7472 H   0  0  0  0  0  0  0  0  0  0  0  0
    0.8245   -2.6675    1.9465 H   0  0  0  0  0  0  0  0  0  0  0  0
    0.5313    0.9933    3.8415 H   0  0  0  0  0  0  0  0  0  0  0  0
    1.4138    2.1710    1.3596 H   0  0  0  0  0  0  0  0  0  0  0  0
   -0.2640    0.0759    0.0429 H   0  0  0  0  0  0  0  0  0  0  0  0
    2.6495   -0.5590    0.8581 H   0  0  0  0  0  0  0  0  0  0  0  0
    1.6655   -1.5446   -0.2347 H   0  0  0  0  0  0  0  0  0  0  0  0
    2.1467    0.0867   -0.7124 H   0  0  0  0  0  0  0  0  0  0  0  0
  1 11  1  0  0  0  0
  1 10  1  0  0  0  0
  1 12  1  0  0  0  0
  2 13  1  6  0  0  0
  2  1  1  0  0  0  0
  3  2  1  0  0  0  0
  4  3  1  6  0  0  0
  4  2  1  0  0  0  0
  4  5  1  0  0  0  0
  5 14  1  1  0  0  0
  6  5  1  0  0  0  0
  7 15  1  6  0  0  0
  7  6  1  0  0  0  0
  7  5  1  0  0  0  0
  8 16  1  6  0  0  0
  8  7  1  0  0  0  0
  8  4  1  0  0  0  0
  9  8  1  0  0  0  0
  9 17  1  0  0  0  0
 18  9  1  0  0  0  0
 19  9  1  0  0  0  0
M TOR 0 0 1 2 3
M TOR 1 0 1 3 4
M TOR 2 0 1 3 7
M TOR 3 1 2 3 4
M TOR 4 1 2 3 7
M TOR 5 1 3 4 5
M TOR 6 1 3 4 6
M TOR 7 1 3 4 13
M TOR 8 1 3 7 6
M TOR 9 1 3 7 8
M TOR 10 1 3 7 15
M TOR 11 2 1 0 9
M TOR 12 2 1 0 10
M TOR 13 2 1 0 11
M TOR 14 2 3 1 12
M TOR 15 2 3 4 5
M TOR 16 2 3 4 6
M TOR 17 2 3 4 13
M TOR 18 2 3 7 6
M TOR 19 2 3 7 8
M TOR 20 2 3 7 15
M TOR 21 3 1 0 9
M TOR 22 3 1 0 10
M TOR 23 3 1 0 11
M TOR 24 3 4 5 6
M TOR 25 3 4 6 7
M TOR 26 3 4 6 14
M TOR 27 3 7 6 5
M TOR 28 3 7 6 14
M TOR 29 3 7 8 16
M TOR 30 3 7 8 17
M TOR 31 3 7 8 18
M TOR 32 4 3 1 12
M TOR 33 4 3 7 8
M TOR 34 4 3 7 15
M TOR 35 4 5 6 7
M TOR 36 4 5 6 14
M TOR 37 4 6 7 8
M TOR 38 4 6 7 15
M TOR 39 5 4 3 7
M TOR 40 5 6 4 13
M TOR 41 5 6 7 8
M TOR 42 5 6 7 15
M TOR 43 6 7 8 16
M TOR 44 6 7 8 17
M TOR 45 6 7 8 18
M TOR 46 7 3 1 12
M TOR 47 7 3 4 13
M TOR 48 7 6 4 13
M TOR 49 8 7 6 14
M  END
$$$$
