gdb 5937	1.8712568	1.4621183	0.9604385	1.0729	79.37	-0.22887	0.0277	0.25656999999999996	1291.6995	0.153056	-422.492601	-422.482437	-422.481493	-422.5278	37.058
 OpenBabel02181911423D

 19 19  0  0  1  0  0  0  0  0999 V2000
    0.0878   -0.3221   -0.5115 C   0  0  0  0  0  0  0  0  0  0  0  0
    1.1331    0.0816    0.5120 C   0  0  0  0  0  0  0  0  0  0  0  0
    1.4245    1.4729    0.3155 O   0  0  0  0  0  0  0  0  0  0  0  0
    2.3609    1.9945    1.2236 C   0  0  1  0  0  0  0  0  0  0  0  0
    2.2539    3.5028    1.3887 C   0  0  0  0  0  0  0  0  0  0  0  0
    1.7266    2.6074    2.4747 C   0  0  1  0  0  0  0  0  0  0  0  0
    0.3595    2.4401    2.6599 O   0  0  0  0  0  0  0  0  0  0  0  0
    3.6470    1.3582    1.2838 C   0  0  0  0  0  0  0  0  0  0  0  0
    4.7242    0.8261    1.3549 C   0  0  0  0  0  0  0  0  0  0  0  0
   -0.1475   -1.3855   -0.4087 H   0  0  0  0  0  0  0  0  0  0  0  0
   -0.8365    0.2481   -0.3772 H   0  0  0  0  0  0  0  0  0  0  0  0
    0.4551   -0.1441   -1.5261 H   0  0  0  0  0  0  0  0  0  0  0  0
    0.7724   -0.0781    1.5373 H   0  0  0  0  0  0  0  0  0  0  0  0
    2.0527   -0.5035    0.3851 H   0  0  0  0  0  0  0  0  0  0  0  0
    3.1716    4.0549    1.5536 H   0  0  0  0  0  0  0  0  0  0  0  0
    1.5262    3.9857    0.7445 H   0  0  0  0  0  0  0  0  0  0  0  0
    2.2644    2.5439    3.4136 H   0  0  0  0  0  0  0  0  0  0  0  0
   -0.0153    2.2728    1.7848 H   0  0  0  0  0  0  0  0  0  0  0  0
    5.6770    0.3607    1.4129 H   0  0  0  0  0  0  0  0  0  0  0  0
  1 10  1  0  0  0  0
  1 11  1  0  0  0  0
  1  2  1  0  0  0  0
  2 13  1  0  0  0  0
  3  2  1  0  0  0  0
  3  4  1  0  0  0  0
  4  8  1  1  0  0  0
  4  5  1  0  0  0  0
  4  6  1  0  0  0  0
  5 15  1  0  0  0  0
  5  6  1  0  0  0  0
  6  7  1  0  0  0  0
  6 17  1  1  0  0  0
  8  9  3  0  0  0  0
  9 19  1  0  0  0  0
 12  1  1  0  0  0  0
 14  2  1  0  0  0  0
 16  5  1  0  0  0  0
 18  7  1  0  0  0  0
M TOR 0 0 1 2 3
M TOR 1 1 2 3 4
M TOR 2 1 2 3 5
M TOR 3 1 2 3 7
M TOR 4 2 1 0 9
M TOR 5 2 1 0 10
M TOR 6 2 1 0 11
M TOR 7 2 3 4 5
M TOR 8 2 3 4 14
M TOR 9 2 3 4 15
M TOR 10 2 3 5 6
M TOR 11 2 3 5 16
M TOR 12 2 3 7 8
M TOR 13 3 2 1 12
M TOR 14 3 2 1 13
M TOR 15 3 4 5 6
M TOR 16 3 4 5 16
M TOR 17 3 5 4 14
M TOR 18 3 5 4 15
M TOR 19 3 5 6 17
M TOR 20 3 7 8 18
M TOR 21 4 3 7 8
M TOR 22 4 5 3 7
M TOR 23 4 5 6 17
M TOR 24 5 3 7 8
M TOR 25 6 5 3 7
M TOR 26 6 5 4 14
M TOR 27 6 5 4 15
M TOR 28 7 3 4 14
M TOR 29 7 3 4 15
M TOR 30 7 3 5 16
M  END
$$$$
