
     RDKit          3D

 19 20  0  0  0  0  0  0  0  0999 V2000
    1.5770   -0.9385    0.9424 C   0  0  0  0  0  0  0  0  0  0  0  0
    1.1398   -0.0247   -0.2049 C   0  0  0  0  0  0  0  0  0  0  0  0
    1.7641    1.3757   -0.1250 C   0  0  0  0  0  0  0  0  0  0  0  0
    1.3462    2.2754   -1.2771 C   0  0  0  0  0  0  0  0  0  0  0  0
    1.5760    3.8118   -1.2466 C   0  0  0  0  0  0  0  0  0  0  0  0
    0.5013    3.9515   -2.2647 O   0  0  0  0  0  0  0  0  0  0  0  0
   -0.0623    2.9363   -1.3367 C   0  0  0  0  0  0  0  0  0  0  0  0
    0.4046    3.9230   -0.2278 C   0  0  0  0  0  0  0  0  0  0  0  0
    0.0350    4.5153    0.7298 O   0  0  0  0  0  0  0  0  0  0  0  0
    1.1182   -1.9283    0.8589 H   0  0  0  0  0  0  0  0  0  0  0  0
    2.6641   -1.0741    0.9482 H   0  0  0  0  0  0  0  0  0  0  0  0
    1.2911   -0.5192    1.9132 H   0  0  0  0  0  0  0  0  0  0  0  0
    1.4066   -0.4843   -1.1654 H   0  0  0  0  0  0  0  0  0  0  0  0
    0.0459    0.0658   -0.2053 H   0  0  0  0  0  0  0  0  0  0  0  0
    1.4970    1.8411    0.8332 H   0  0  0  0  0  0  0  0  0  0  0  0
    2.8586    1.2877   -0.1258 H   0  0  0  0  0  0  0  0  0  0  0  0
    1.6099    1.8791   -2.2623 H   0  0  0  0  0  0  0  0  0  0  0  0
    2.4853    4.3926   -1.3876 H   0  0  0  0  0  0  0  0  0  0  0  0
   -1.0347    2.5147   -1.5825 H   0  0  0  0  0  0  0  0  0  0  0  0
  1  2  1  0
  2  3  1  0
  3  4  1  0
  4  5  1  0
  5  6  1  0
  6  7  1  0
  7  8  1  0
  8  9  2  0
  7  4  1  0
  8  5  1  0
  1 10  1  0
  1 11  1  0
  1 12  1  0
  2 13  1  0
  2 14  1  0
  3 15  1  0
  3 16  1  0
  4 17  1  0
  5 18  1  0
  7 19  1  0
M  END
$$$$
