gdb 1980	3.111308	1.5194779	1.3585425	0.931	74.27	-0.23227	0.07127	0.30354000000000003	1024.2395	0.157422	-422.528928	-422.521154	-422.52021	-422.561203	30.234
 OpenBabel02181911403D

 19 21  0  0  1  0  0  0  0  0999 V2000
    0.1728   -0.3872   -0.0649 C   0  0  0  0  0  0  0  0  0  0  0  0
    1.4653    0.3426    0.1607 C   0  0  2  0  0  0  0  0  0  0  0  0
    1.7366    1.7316   -0.3629 C   0  0  0  0  0  0  0  0  0  0  0  0
    2.5550    0.5463   -0.8520 C   0  0  1  0  0  0  0  0  0  0  0  0
    3.8638    0.3086   -0.1375 C   0  0  2  0  0  0  0  0  0  0  0  0
    4.3806   -1.0286   -0.3232 O   0  0  0  0  0  0  0  0  0  0  0  0
    4.0326   -1.4063    1.0287 C   0  0  0  0  0  0  0  0  0  0  0  0
    3.4488   -0.0055    1.3203 C   0  0  2  0  0  0  0  0  0  0  0  0
    2.0394    0.0693    1.4330 O   0  0  0  0  0  0  0  0  0  0  0  0
   -0.5601   -0.1177    0.7026 H   0  0  0  0  0  0  0  0  0  0  0  0
   -0.2483   -0.1312   -1.0412 H   0  0  0  0  0  0  0  0  0  0  0  0
    0.3246   -1.4705   -0.0249 H   0  0  0  0  0  0  0  0  0  0  0  0
    1.0329    2.1695   -1.0632 H   0  0  0  0  0  0  0  0  0  0  0  0
    2.2034    2.4415    0.3131 H   0  0  0  0  0  0  0  0  0  0  0  0
    2.4638    0.2117   -1.8791 H   0  0  0  0  0  0  0  0  0  0  0  0
    4.6325    1.0663   -0.3260 H   0  0  0  0  0  0  0  0  0  0  0  0
    3.2953   -2.2160    1.0672 H   0  0  0  0  0  0  0  0  0  0  0  0
    4.9195   -1.6832    1.6111 H   0  0  0  0  0  0  0  0  0  0  0  0
    3.9077    0.5514    2.1390 H   0  0  0  0  0  0  0  0  0  0  0  0
  1 12  1  0  0  0  0
  1 10  1  0  0  0  0
  2  1  1  6  0  0  0
  2  9  1  0  0  0  0
  3  2  1  0  0  0  0
  3 14  1  0  0  0  0
  4 15  1  6  0  0  0
  4  3  1  0  0  0  0
  4  5  1  0  0  0  0
  4  2  1  0  0  0  0
  5 16  1  6  0  0  0
  5  8  1  0  0  0  0
  6  5  1  0  0  0  0
  6  7  1  0  0  0  0
  7 17  1  0  0  0  0
  7  8  1  0  0  0  0
  7 18  1  0  0  0  0
  8  9  1  0  0  0  0
  8 19  1  1  0  0  0
 11  1  1  0  0  0  0
 13  3  1  0  0  0  0
M TOR 0 0 1 2 3
M TOR 1 0 1 2 12
M TOR 2 0 1 2 13
M TOR 3 0 1 3 4
M TOR 4 0 1 3 14
M TOR 5 0 1 8 7
M TOR 6 1 2 3 4
M TOR 7 1 2 3 14
M TOR 8 1 3 2 12
M TOR 9 1 3 2 13
M TOR 10 1 3 4 5
M TOR 11 1 3 4 7
M TOR 12 1 3 4 15
M TOR 13 1 8 7 4
M TOR 14 1 8 7 6
M TOR 15 1 8 7 18
M TOR 16 2 1 0 9
M TOR 17 2 1 0 10
M TOR 18 2 1 0 11
M TOR 19 2 1 8 7
M TOR 20 2 3 1 8
M TOR 21 2 3 4 5
M TOR 22 2 3 4 7
M TOR 23 2 3 4 15
M TOR 24 3 1 0 9
M TOR 25 3 1 0 10
M TOR 26 3 1 0 11
M TOR 27 3 1 8 7
M TOR 28 3 4 5 6
M TOR 29 3 4 7 6
M TOR 30 3 4 7 8
M TOR 31 3 4 7 18
M TOR 32 4 3 1 8
M TOR 33 4 3 2 12
M TOR 34 4 3 2 13
M TOR 35 4 5 6 7
M TOR 36 4 5 6 16
M TOR 37 4 5 6 17
M TOR 38 4 7 6 16
M TOR 39 4 7 6 17
M TOR 40 5 4 3 14
M TOR 41 5 4 7 8
M TOR 42 5 4 7 18
M TOR 43 5 6 7 8
M TOR 44 5 6 7 18
M TOR 45 6 5 4 15
M TOR 46 6 7 4 15
M TOR 47 7 4 3 14
M TOR 48 8 1 0 9
M TOR 49 8 1 0 10
M TOR 50 8 1 0 11
M TOR 51 8 1 2 12
M TOR 52 8 1 2 13
M TOR 53 8 1 3 14
M TOR 54 8 7 4 15
M TOR 55 8 7 6 16
M TOR 56 8 7 6 17
M  END
$$$$
