
     RDKit          3D

 19 20  0  0  0  0  0  0  0  0999 V2000
    1.4396    0.7563   -0.2673 C   0  0  0  0  0  0  0  0  0  0  0  0
    0.0242    0.2475   -0.2327 C   0  0  0  0  0  0  0  0  0  0  0  0
   -1.0185    0.9955   -0.5935 C   0  0  0  0  0  0  0  0  0  0  0  0
   -2.4565    0.5583   -0.6121 C   0  0  0  0  0  0  0  0  0  0  0  0
   -2.6915   -0.7874    0.0274 C   0  0  0  0  0  0  0  0  0  0  0  0
   -2.3151   -0.9135    1.4066 O   0  0  0  0  0  0  0  0  0  0  0  0
   -1.5608   -1.6301    0.4287 C   0  0  0  0  0  0  0  0  0  0  0  0
   -0.1243   -1.1837    0.2308 C   0  0  0  0  0  0  0  0  0  0  0  0
    0.5110   -2.0179   -0.7467 O   0  0  0  0  0  0  0  0  0  0  0  0
    1.8889    0.7389    0.7346 H   0  0  0  0  0  0  0  0  0  0  0  0
    2.0606    0.1174   -0.9038 H   0  0  0  0  0  0  0  0  0  0  0  0
    1.4896    1.7810   -0.6442 H   0  0  0  0  0  0  0  0  0  0  0  0
   -0.8370    2.0195   -0.9140 H   0  0  0  0  0  0  0  0  0  0  0  0
   -3.0848    1.3097   -0.1135 H   0  0  0  0  0  0  0  0  0  0  0  0
   -2.8172    0.5192   -1.6506 H   0  0  0  0  0  0  0  0  0  0  0  0
   -3.6391   -1.2698   -0.2134 H   0  0  0  0  0  0  0  0  0  0  0  0
   -1.6908   -2.7141    0.4576 H   0  0  0  0  0  0  0  0  0  0  0  0
    0.3977   -1.2858    1.1981 H   0  0  0  0  0  0  0  0  0  0  0  0
    0.6946   -2.8689   -0.3360 H   0  0  0  0  0  0  0  0  0  0  0  0
  1  2  1  0
  2  3  2  0
  3  4  1  0
  4  5  1  0
  5  6  1  0
  6  7  1  0
  7  8  1  0
  8  9  1  0
  8  2  1  0
  7  5  1  0
  1 10  1  0
  1 11  1  0
  1 12  1  0
  3 13  1  0
  4 14  1  0
  4 15  1  0
  5 16  1  0
  7 17  1  0
  8 18  1  0
  9 19  1  0
M  END
$$$$
