gdb 5136	2.5848415	1.4203979	1.144451	4.1502	74.99	-0.26614	0.01172	0.27786	1145.9496	0.156877	-422.596269	-422.587812	-422.586868	-422.629473	31.958
 OpenBabel02181911423D

 19 20  0  0  1  0  0  0  0  0999 V2000
    2.0469    0.3001    0.6180 C   0  0  0  0  0  0  0  0  0  0  0  0
    1.4219    0.5045   -0.7663 C   0  0  0  0  0  0  0  0  0  0  0  0
    1.8556   -0.5241   -1.7754 C   0  0  2  0  0  0  0  0  0  0  0  0
    1.0464   -0.9318   -2.9722 C   0  0  0  0  0  0  0  0  0  0  0  0
    1.3601   -1.9453   -1.8821 C   0  0  1  0  0  0  0  0  0  0  0  0
    2.5892   -2.8019   -2.0736 C   0  0  0  0  0  0  0  0  0  0  0  0
    3.7410   -1.7965   -2.1897 C   0  0  0  0  0  0  0  0  0  0  0  0
    4.8920   -2.0152   -2.4235 O   0  0  0  0  0  0  0  0  0  0  0  0
    3.2649   -0.5304   -1.9915 O   0  0  0  0  0  0  0  0  0  0  0  0
    1.7613   -0.6683    1.0422 H   0  0  0  0  0  0  0  0  0  0  0  0
    3.1380    0.3341    0.5588 H   0  0  0  0  0  0  0  0  0  0  0  0
    1.7195    1.0803    1.3109 H   0  0  0  0  0  0  0  0  0  0  0  0
    0.3284    0.4688   -0.7005 H   0  0  0  0  0  0  0  0  0  0  0  0
    1.6770    1.5005   -1.1486 H   0  0  0  0  0  0  0  0  0  0  0  0
    0.0245   -0.5737   -3.0329 H   0  0  0  0  0  0  0  0  0  0  0  0
    1.5563   -1.0167   -3.9271 H   0  0  0  0  0  0  0  0  0  0  0  0
    0.5523   -2.3001   -1.2534 H   0  0  0  0  0  0  0  0  0  0  0  0
    2.7838   -3.4534   -1.2156 H   0  0  0  0  0  0  0  0  0  0  0  0
    2.5777   -3.4363   -2.9646 H   0  0  0  0  0  0  0  0  0  0  0  0
  1 10  1  0  0  0  0
  1 12  1  0  0  0  0
  2 13  1  0  0  0  0
  2  1  1  0  0  0  0
  3  2  1  1  0  0  0
  4  5  1  0  0  0  0
  4  3  1  0  0  0  0
  5  3  1  0  0  0  0
  5 17  1  1  0  0  0
  6  5  1  0  0  0  0
  6 18  1  0  0  0  0
  7  6  1  0  0  0  0
  7  9  1  0  0  0  0
  8  7  2  0  0  0  0
  9  3  1  0  0  0  0
 11  1  1  0  0  0  0
 14  2  1  0  0  0  0
 15  4  1  0  0  0  0
 16  4  1  0  0  0  0
 19  6  1  0  0  0  0
M TOR 0 0 1 2 3
M TOR 1 0 1 2 4
M TOR 2 0 1 2 8
M TOR 3 1 2 3 4
M TOR 4 1 2 3 14
M TOR 5 1 2 3 15
M TOR 6 1 2 4 5
M TOR 7 1 2 4 16
M TOR 8 1 2 8 6
M TOR 9 2 1 0 9
M TOR 10 2 1 0 10
M TOR 11 2 1 0 11
M TOR 12 2 3 4 5
M TOR 13 2 3 4 16
M TOR 14 2 4 3 14
M TOR 15 2 4 3 15
M TOR 16 2 4 5 6
M TOR 17 2 4 5 17
M TOR 18 2 4 5 18
M TOR 19 2 8 6 5
M TOR 20 2 8 6 7
M TOR 21 3 2 1 12
M TOR 22 3 2 1 13
M TOR 23 3 2 8 6
M TOR 24 3 4 2 8
M TOR 25 3 4 5 6
M TOR 26 3 4 5 17
M TOR 27 3 4 5 18
M TOR 28 4 2 1 12
M TOR 29 4 2 1 13
M TOR 30 4 2 8 6
M TOR 31 4 5 6 7
M TOR 32 4 5 6 8
M TOR 33 5 4 2 8
M TOR 34 5 4 3 14
M TOR 35 5 4 3 15
M TOR 36 6 5 4 16
M TOR 37 7 6 5 17
M TOR 38 7 6 5 18
M TOR 39 8 2 1 12
M TOR 40 8 2 1 13
M TOR 41 8 2 3 14
M TOR 42 8 2 3 15
M TOR 43 8 2 4 16
M TOR 44 8 6 5 17
M TOR 45 8 6 5 18
M  END
$$$$
