
     RDKit          3D

 19 21  0  0  0  0  0  0  0  0999 V2000
   -0.0699    0.1168    0.0951 C   0  0  0  0  0  0  0  0  0  0  0  0
    1.3169    0.0348   -0.5241 C   0  0  0  0  0  0  0  0  0  0  0  0
    1.9618   -1.1787   -0.1063 O   0  0  0  0  0  0  0  0  0  0  0  0
    2.6238   -1.8091   -1.1899 C   0  0  0  0  0  0  0  0  0  0  0  0
    1.7649   -2.8778   -1.9413 C   0  0  0  0  0  0  0  0  0  0  0  0
    1.4564   -1.8309   -3.0292 C   0  0  0  0  0  0  0  0  0  0  0  0
    0.3995   -0.9232   -2.6342 O   0  0  0  0  0  0  0  0  0  0  0  0
    1.3430    0.0136   -2.0512 C   0  0  0  0  0  0  0  0  0  0  0  0
    2.5305   -0.8796   -2.4371 C   0  0  0  0  0  0  0  0  0  0  0  0
   -0.0052   -0.0090    1.1789 H   0  0  0  0  0  0  0  0  0  0  0  0
   -0.5264    1.0904   -0.1119 H   0  0  0  0  0  0  0  0  0  0  0  0
   -0.7089   -0.6660   -0.3187 H   0  0  0  0  0  0  0  0  0  0  0  0
    1.9285    0.8895   -0.1891 H   0  0  0  0  0  0  0  0  0  0  0  0
    3.6115   -2.1388   -0.8593 H   0  0  0  0  0  0  0  0  0  0  0  0
    2.3892   -3.6882   -2.3321 H   0  0  0  0  0  0  0  0  0  0  0  0
    0.9138   -3.2915   -1.3969 H   0  0  0  0  0  0  0  0  0  0  0  0
    1.3644   -2.1350   -4.0735 H   0  0  0  0  0  0  0  0  0  0  0  0
    1.2474    1.0074   -2.5000 H   0  0  0  0  0  0  0  0  0  0  0  0
    3.4156   -0.4922   -2.9342 H   0  0  0  0  0  0  0  0  0  0  0  0
  1  2  1  0
  2  3  1  0
  3  4  1  0
  4  5  1  0
  5  6  1  0
  6  7  1  0
  7  8  1  0
  8  9  1  0
  8  2  1  0
  9  4  1  0
  9  6  1  0
  1 10  1  0
  1 11  1  0
  1 12  1  0
  2 13  1  0
  4 14  1  0
  5 15  1  0
  5 16  1  0
  6 17  1  0
  8 18  1  0
  9 19  1  0
M  END
$$$$
