gdb 4389	2.7620763	1.2374207	0.9108226	3.872	82.4	-0.24279	-0.05926	0.18353	1290.1987	0.155044	-422.581309	-422.571756	-422.570812	-422.616005	33.777
 OpenBabel02181911413D

 19 19  0  0  1  0  0  0  0  0999 V2000
    0.6721    2.0541   -0.5157 C   0  0  0  0  0  0  0  0  0  0  0  0
   -0.3097    1.1754    0.2622 C   0  0  1  0  0  0  0  0  0  0  0  0
   -1.6195    1.3277   -0.2773 O   0  0  0  0  0  0  0  0  0  0  0  0
   -2.2067    0.0549   -0.5367 C   0  0  0  0  0  0  0  0  0  0  0  0
   -1.1129   -0.9432   -0.2593 C   0  0  0  0  0  0  0  0  0  0  0  0
   -1.3049   -2.3748   -0.4672 C   0  0  0  0  0  0  0  0  0  0  0  0
   -2.3408   -2.8559   -0.8783 O   0  0  0  0  0  0  0  0  0  0  0  0
   -0.0223   -0.3089    0.2040 C   0  0  0  0  0  0  0  0  0  0  0  0
    1.2912   -0.8638    0.6464 C   0  0  0  0  0  0  0  0  0  0  0  0
    1.6673    2.0326   -0.0605 H   0  0  0  0  0  0  0  0  0  0  0  0
    0.7475    1.7202   -1.5549 H   0  0  0  0  0  0  0  0  0  0  0  0
    0.3162    3.0875   -0.5103 H   0  0  0  0  0  0  0  0  0  0  0  0
   -0.3062    1.5024    1.3190 H   0  0  0  0  0  0  0  0  0  0  0  0
   -3.0800   -0.1103    0.1118 H   0  0  0  0  0  0  0  0  0  0  0  0
   -2.5624    0.0133   -1.5743 H   0  0  0  0  0  0  0  0  0  0  0  0
   -0.4353   -3.0226   -0.2259 H   0  0  0  0  0  0  0  0  0  0  0  0
    1.5160   -0.5415    1.6708 H   0  0  0  0  0  0  0  0  0  0  0  0
    1.3204   -1.9541    0.6187 H   0  0  0  0  0  0  0  0  0  0  0  0
    2.1046   -0.4854    0.0160 H   0  0  0  0  0  0  0  0  0  0  0  0
  1 12  1  0  0  0  0
  1 10  1  0  0  0  0
  1  2  1  0  0  0  0
  2 13  1  1  0  0  0
  3  2  1  0  0  0  0
  4  3  1  0  0  0  0
  4  5  1  0  0  0  0
  4 14  1  0  0  0  0
  5  8  2  0  0  0  0
  6  5  1  0  0  0  0
  6 16  1  0  0  0  0
  7  6  2  0  0  0  0
  8  2  1  0  0  0  0
  8  9  1  0  0  0  0
  9 17  1  0  0  0  0
 11  1  1  0  0  0  0
 15  4  1  0  0  0  0
 18  9  1  0  0  0  0
 19  9  1  0  0  0  0
M TOR 0 0 1 2 3
M TOR 1 0 1 7 4
M TOR 2 0 1 7 8
M TOR 3 1 2 3 4
M TOR 4 1 2 3 13
M TOR 5 1 2 3 14
M TOR 6 1 7 4 3
M TOR 7 1 7 4 5
M TOR 8 1 7 8 16
M TOR 9 1 7 8 17
M TOR 10 1 7 8 18
M TOR 11 2 1 0 9
M TOR 12 2 1 0 10
M TOR 13 2 1 0 11
M TOR 14 2 1 7 4
M TOR 15 2 1 7 8
M TOR 16 2 3 4 5
M TOR 17 2 3 4 7
M TOR 18 3 2 1 7
M TOR 19 3 2 1 12
M TOR 20 3 4 5 6
M TOR 21 3 4 5 15
M TOR 22 3 4 7 8
M TOR 23 4 7 1 12
M TOR 24 4 7 8 16
M TOR 25 4 7 8 17
M TOR 26 4 7 8 18
M TOR 27 5 4 3 13
M TOR 28 5 4 3 14
M TOR 29 5 4 7 8
M TOR 30 6 5 4 7
M TOR 31 7 1 0 9
M TOR 32 7 1 0 10
M TOR 33 7 1 0 11
M TOR 34 7 4 3 13
M TOR 35 7 4 3 14
M TOR 36 7 4 5 15
M TOR 37 8 7 1 12
M  END
$$$$
