
     RDKit          3D

 19 19  0  0  0  0  0  0  0  0999 V2000
   -1.7106    2.8393   -1.7801 C   0  0  0  0  0  0  0  0  0  0  0  0
   -1.0837    2.0094   -0.6507 C   0  0  0  0  0  0  0  0  0  0  0  0
   -0.2256    0.8672   -1.2447 C   0  0  0  0  0  0  0  0  0  0  0  0
    0.4332    0.0033   -0.1922 C   0  0  0  0  0  0  0  0  0  0  0  0
    0.4002   -1.2013   -0.1807 O   0  0  0  0  0  0  0  0  0  0  0  0
   -0.2227    2.8557    0.1368 O   0  0  0  0  0  0  0  0  0  0  0  0
   -0.7190    2.9901    1.4670 C   0  0  0  0  0  0  0  0  0  0  0  0
   -1.9116    2.0789    1.5315 C   0  0  0  0  0  0  0  0  0  0  0  0
   -2.1140    1.5218    0.3443 C   0  0  0  0  0  0  0  0  0  0  0  0
   -2.3707    2.2245   -2.4004 H   0  0  0  0  0  0  0  0  0  0  0  0
   -2.2957    3.6621   -1.3606 H   0  0  0  0  0  0  0  0  0  0  0  0
   -0.9277    3.2590   -2.4186 H   0  0  0  0  0  0  0  0  0  0  0  0
   -0.8203    0.2278   -1.9034 H   0  0  0  0  0  0  0  0  0  0  0  0
    0.5709    1.3309   -1.8428 H   0  0  0  0  0  0  0  0  0  0  0  0
    0.9832    0.5714    0.5887 H   0  0  0  0  0  0  0  0  0  0  0  0
    0.0679    2.7104    2.1838 H   0  0  0  0  0  0  0  0  0  0  0  0
   -0.9838    4.0398    1.6706 H   0  0  0  0  0  0  0  0  0  0  0  0
   -2.4968    1.9301    2.4302 H   0  0  0  0  0  0  0  0  0  0  0  0
   -2.8972    0.8247    0.0746 H   0  0  0  0  0  0  0  0  0  0  0  0
  1  2  1  0
  2  3  1  0
  3  4  1  0
  4  5  2  0
  2  6  1  0
  6  7  1  0
  7  8  1  0
  8  9  2  0
  9  2  1  0
  1 10  1  0
  1 11  1  0
  1 12  1  0
  3 13  1  0
  3 14  1  0
  4 15  1  0
  7 16  1  0
  7 17  1  0
  8 18  1  0
  9 19  1  0
M  END
$$$$
