gdb 1190	2.4045567	1.1747496	0.8713075	2.3239	77.67	-0.24506	0.04692	0.29198	1342.5638	0.153525	-422.505439	-422.4952	-422.494256	-422.540523	37.598
 OpenBabel02181911403D

 19 19  0  0  1  0  0  0  0  0999 V2000
   -1.5570  -11.8518    2.1528 C   0  0  0  0  0  0  0  0  0  0  0  0
   -0.6272  -11.2774    1.0665 C   0  0  2  0  0  0  0  0  0  0  0  0
   -0.3707  -12.2574    0.0055 C   0  0  0  0  0  0  0  0  0  0  0  0
   -0.1318  -13.0542   -0.8642 C   0  0  0  0  0  0  0  0  0  0  0  0
    0.6894  -10.7757    1.6523 C   0  0  2  0  0  0  0  0  0  0  0  0
    0.8729   -9.3037    1.9757 C   0  0  1  0  0  0  0  0  0  0  0  0
    1.6620   -8.9190    3.0599 O   0  0  0  0  0  0  0  0  0  0  0  0
    1.5892   -9.8937    0.8066 C   0  0  2  0  0  0  0  0  0  0  0  0
    1.1609   -9.5071   -0.4646 O   0  0  0  0  0  0  0  0  0  0  0  0
   -1.7646  -11.0891    2.9093 H   0  0  0  0  0  0  0  0  0  0  0  0
   -2.5058  -12.1813    1.7214 H   0  0  0  0  0  0  0  0  0  0  0  0
   -1.0923  -12.7104    2.6467 H   0  0  0  0  0  0  0  0  0  0  0  0
   -1.1312  -10.4227    0.5991 H   0  0  0  0  0  0  0  0  0  0  0  0
    0.0633  -13.7649   -1.6289 H   0  0  0  0  0  0  0  0  0  0  0  0
    1.2024  -11.4766    2.3056 H   0  0  0  0  0  0  0  0  0  0  0  0
    0.0373   -8.6455    1.7328 H   0  0  0  0  0  0  0  0  0  0  0  0
    1.1653   -9.0913    3.8667 H   0  0  0  0  0  0  0  0  0  0  0  0
    2.6634  -10.0290    0.9276 H   0  0  0  0  0  0  0  0  0  0  0  0
    1.0979  -10.3053   -1.0034 H   0  0  0  0  0  0  0  0  0  0  0  0
  1 12  1  0  0  0  0
  1 10  1  0  0  0  0
  2 13  1  6  0  0  0
  2  5  1  0  0  0  0
  2  1  1  0  0  0  0
  3  2  1  0  0  0  0
  4  3  3  0  0  0  0
  5  6  1  0  0  0  0
  5 15  1  1  0  0  0
  6 16  1  6  0  0  0
  6  7  1  0  0  0  0
  7 17  1  0  0  0  0
  8 18  1  1  0  0  0
  8  5  1  0  0  0  0
  8  6  1  0  0  0  0
  9  8  1  0  0  0  0
 11  1  1  0  0  0  0
 14  4  1  0  0  0  0
 19  9  1  0  0  0  0
M TOR 0 0 1 2 3
M TOR 1 0 1 4 5
M TOR 2 0 1 4 7
M TOR 3 0 1 4 14
M TOR 4 1 2 3 13
M TOR 5 1 4 5 6
M TOR 6 1 4 5 7
M TOR 7 1 4 5 15
M TOR 8 1 4 7 8
M TOR 9 1 4 7 17
M TOR 10 2 1 0 9
M TOR 11 2 1 0 10
M TOR 12 2 1 0 11
M TOR 13 2 1 4 5
M TOR 14 2 1 4 7
M TOR 15 2 1 4 14
M TOR 16 3 2 1 4
M TOR 17 3 2 1 12
M TOR 18 4 1 0 9
M TOR 19 4 1 0 10
M TOR 20 4 1 0 11
M TOR 21 4 5 6 16
M TOR 22 4 5 7 8
M TOR 23 4 5 7 17
M TOR 24 4 7 5 6
M TOR 25 4 7 5 15
M TOR 26 4 7 8 18
M TOR 27 5 4 1 12
M TOR 28 5 7 4 14
M TOR 29 5 7 8 18
M TOR 30 6 5 4 14
M TOR 31 6 5 7 8
M TOR 32 6 5 7 17
M TOR 33 7 4 1 12
M TOR 34 7 5 6 16
M TOR 35 8 7 4 14
M TOR 36 8 7 5 15
M  END
$$$$
