
     RDKit          3D

 19 20  0  0  0  0  0  0  0  0999 V2000
   -1.0086   -1.0619   -3.3146 C   0  0  0  0  0  0  0  0  0  0  0  0
   -0.6317   -0.2871   -2.0666 C   0  0  0  0  0  0  0  0  0  0  0  0
   -1.2067   -0.4208   -1.0112 O   0  0  0  0  0  0  0  0  0  0  0  0
    0.4968    0.6975   -2.2300 C   0  0  0  0  0  0  0  0  0  0  0  0
    1.2293    1.0403   -1.0467 O   0  0  0  0  0  0  0  0  0  0  0  0
    0.4082    2.0352   -1.5947 C   0  0  0  0  0  0  0  0  0  0  0  0
    0.8820    3.3767   -2.1622 C   0  0  0  0  0  0  0  0  0  0  0  0
   -0.5143    3.9547   -1.7770 C   0  0  0  0  0  0  0  0  0  0  0  0
   -0.7855    2.6922   -0.9019 C   0  0  0  0  0  0  0  0  0  0  0  0
   -1.9020   -1.6574   -3.1254 H   0  0  0  0  0  0  0  0  0  0  0  0
   -1.1839   -0.3809   -4.1557 H   0  0  0  0  0  0  0  0  0  0  0  0
   -0.1833   -1.7215   -3.6086 H   0  0  0  0  0  0  0  0  0  0  0  0
    1.1063    0.5947   -3.1284 H   0  0  0  0  0  0  0  0  0  0  0  0
    1.6903    3.7932   -1.5538 H   0  0  0  0  0  0  0  0  0  0  0  0
    1.1794    3.4084   -3.2129 H   0  0  0  0  0  0  0  0  0  0  0  0
   -0.5150    4.9156   -1.2607 H   0  0  0  0  0  0  0  0  0  0  0  0
   -1.1878    4.0180   -2.6348 H   0  0  0  0  0  0  0  0  0  0  0  0
   -0.5717    2.8602    0.1574 H   0  0  0  0  0  0  0  0  0  0  0  0
   -1.7540    2.1979   -0.9851 H   0  0  0  0  0  0  0  0  0  0  0  0
  1  2  1  0
  2  3  2  0
  2  4  1  0
  4  5  1  0
  5  6  1  0
  6  7  1  0
  7  8  1  0
  8  9  1  0
  6  4  1  0
  9  6  1  0
  1 10  1  0
  1 11  1  0
  1 12  1  0
  4 13  1  0
  7 14  1  0
  7 15  1  0
  8 16  1  0
  8 17  1  0
  9 18  1  0
  9 19  1  0
M  END
$$$$
