gdb 2176	2.7076836	1.6555862	1.5836226	2.5907	74.61	-0.23698	0.07681	0.31379	962.0815	0.159122	-422.525067	-422.51779	-422.516846	-422.556272	29.654
 OpenBabel02181911403D

 19 21  0  0  1  0  0  0  0  0999 V2000
   -0.7016    0.0516    0.4992 O   0  0  0  0  0  0  0  0  0  0  0  0
   -1.8238    0.8306    0.3005 C   0  0  1  0  0  0  0  0  0  0  0  0
   -3.2953    0.3964    0.0590 C   0  0  0  0  0  0  0  0  0  0  0  0
   -3.2973    1.9434   -0.0495 C   0  0  1  0  0  0  0  0  0  0  0  0
   -2.3650    1.9869    1.2109 C   0  0  2  0  0  0  0  0  0  0  0  0
   -1.4390    3.1881    1.3753 C   0  0  0  0  0  0  0  0  0  0  0  0
   -1.2535    3.8527    0.0094 C   0  0  0  0  0  0  0  0  0  0  0  0
   -1.1107    2.8874   -1.0247 O   0  0  0  0  0  0  0  0  0  0  0  0
   -1.9885    1.8037   -0.8969 C   0  0  1  0  0  0  0  0  0  0  0  0
   -0.8205   -0.4607    1.3064 H   0  0  0  0  0  0  0  0  0  0  0  0
   -3.5041   -0.1651   -0.8558 H   0  0  0  0  0  0  0  0  0  0  0  0
   -3.8253   -0.0177    0.9209 H   0  0  0  0  0  0  0  0  0  0  0  0
   -4.1603    2.5727   -0.2542 H   0  0  0  0  0  0  0  0  0  0  0  0
   -2.8334    1.6599    2.1456 H   0  0  0  0  0  0  0  0  0  0  0  0
   -1.8475    3.9168    2.0842 H   0  0  0  0  0  0  0  0  0  0  0  0
   -0.4762    2.8479    1.7765 H   0  0  0  0  0  0  0  0  0  0  0  0
   -2.1265    4.4886   -0.2063 H   0  0  0  0  0  0  0  0  0  0  0  0
   -0.3622    4.4844   -0.0295 H   0  0  0  0  0  0  0  0  0  0  0  0
   -2.0831    1.3421   -1.8832 H   0  0  0  0  0  0  0  0  0  0  0  0
  1 10  1  0  0  0  0
  2  1  1  1  0  0  0
  2  5  1  0  0  0  0
  3  2  1  0  0  0  0
  3 12  1  0  0  0  0
  4 13  1  6  0  0  0
  4  3  1  0  0  0  0
  4  5  1  0  0  0  0
  5  6  1  0  0  0  0
  5 14  1  1  0  0  0
  6 16  1  0  0  0  0
  6 15  1  0  0  0  0
  7  6  1  0  0  0  0
  8  9  1  0  0  0  0
  8  7  1  0  0  0  0
  9 19  1  6  0  0  0
  9  4  1  0  0  0  0
  9  2  1  0  0  0  0
 11  3  1  0  0  0  0
 17  7  1  0  0  0  0
 18  7  1  0  0  0  0
M TOR 0 0 1 2 3
M TOR 1 0 1 2 10
M TOR 2 0 1 2 11
M TOR 3 0 1 4 3
M TOR 4 0 1 4 5
M TOR 5 0 1 4 13
M TOR 6 0 1 8 3
M TOR 7 0 1 8 7
M TOR 8 0 1 8 18
M TOR 9 1 2 3 4
M TOR 10 1 2 3 8
M TOR 11 1 2 3 12
M TOR 12 1 4 3 8
M TOR 13 1 4 3 12
M TOR 14 1 4 5 6
M TOR 15 1 4 5 14
M TOR 16 1 4 5 15
M TOR 17 1 8 3 12
M TOR 18 1 8 7 6
M TOR 19 2 1 0 9
M TOR 20 2 1 4 5
M TOR 21 2 1 4 13
M TOR 22 2 1 8 7
M TOR 23 2 1 8 18
M TOR 24 2 3 4 5
M TOR 25 2 3 4 13
M TOR 26 2 3 8 7
M TOR 27 2 3 8 18
M TOR 28 3 4 5 6
M TOR 29 3 4 5 14
M TOR 30 3 4 5 15
M TOR 31 3 8 7 6
M TOR 32 4 1 0 9
M TOR 33 4 1 2 10
M TOR 34 4 1 2 11
M TOR 35 4 1 8 7
M TOR 36 4 1 8 18
M TOR 37 4 3 2 10
M TOR 38 4 3 2 11
M TOR 39 4 3 8 7
M TOR 40 4 3 8 18
M TOR 41 4 5 6 7
M TOR 42 4 5 6 16
M TOR 43 4 5 6 17
M TOR 44 5 4 1 8
M TOR 45 5 4 3 8
M TOR 46 5 4 3 12
M TOR 47 5 6 7 8
M TOR 48 6 5 4 13
M TOR 49 6 7 8 18
M TOR 50 7 6 5 14
M TOR 51 7 6 5 15
M TOR 52 7 8 3 12
M TOR 53 8 1 0 9
M TOR 54 8 1 2 10
M TOR 55 8 1 2 11
M TOR 56 8 1 4 13
M TOR 57 8 3 2 10
M TOR 58 8 3 2 11
M TOR 59 8 3 4 13
M TOR 60 8 7 6 16
M TOR 61 8 7 6 17
M  END
$$$$
