gdb 780	2.960988	0.961756	0.8389317	1.2712	77.03	-0.24726	-0.0943	0.15296	1420.6663	0.155322	-422.562497	-422.553118	-422.552174	-422.598403	32.795
 OpenBabel02181911403D

 19 19  0  0  0  0  0  0  0  0999 V2000
    0.2058   -1.5948    0.1216 O   0  0  0  0  0  0  0  0  0  0  0  0
    0.1806   -0.3936    0.0567 C   0  0  0  0  0  0  0  0  0  0  0  0
   -1.1136    0.4353    0.0253 C   0  0  0  0  0  0  0  0  0  0  0  0
   -1.0025    1.6388   -0.0385 O   0  0  0  0  0  0  0  0  0  0  0  0
   -2.4217   -0.3155    0.0402 C   0  0  0  0  0  0  0  0  0  0  0  0
   -2.7726   -0.8322   -1.3644 C   0  0  0  0  0  0  0  0  0  0  0  0
   -3.0947    0.1913   -2.4900 C   0  0  0  0  0  0  0  0  0  0  0  0
   -4.2202   -0.7628   -2.9742 C   0  0  0  0  0  0  0  0  0  0  0  0
   -4.1791   -1.4564   -1.5856 C   0  0  0  0  0  0  0  0  0  0  0  0
    1.0933    0.2385    0.0172 H   0  0  0  0  0  0  0  0  0  0  0  0
   -2.3421   -1.1669    0.7248 H   0  0  0  0  0  0  0  0  0  0  0  0
   -3.1999    0.3666    0.3945 H   0  0  0  0  0  0  0  0  0  0  0  0
   -1.9993   -1.5320   -1.6964 H   0  0  0  0  0  0  0  0  0  0  0  0
   -3.4991    1.1206   -2.0766 H   0  0  0  0  0  0  0  0  0  0  0  0
   -2.2980    0.4457   -3.1930 H   0  0  0  0  0  0  0  0  0  0  0  0
   -5.1651   -0.3129   -3.2862 H   0  0  0  0  0  0  0  0  0  0  0  0
   -3.8734   -1.4284   -3.7696 H   0  0  0  0  0  0  0  0  0  0  0  0
   -4.9164   -1.0271   -0.8994 H   0  0  0  0  0  0  0  0  0  0  0  0
   -4.2608   -2.5452   -1.5477 H   0  0  0  0  0  0  0  0  0  0  0  0
  2  1  2  0  0  0  0
  3  5  1  0  0  0  0
  3  2  1  0  0  0  0
  4  3  2  0  0  0  0
  5 12  1  0  0  0  0
  5 11  1  0  0  0  0
  6  5  1  0  0  0  0
  7 14  1  0  0  0  0
  7  6  1  0  0  0  0
  8  7  1  0  0  0  0
  8  9  1  0  0  0  0
  9 19  1  0  0  0  0
  9  6  1  0  0  0  0
  9 18  1  0  0  0  0
 10  2  1  0  0  0  0
 13  6  1  0  0  0  0
 15  7  1  0  0  0  0
 16  8  1  0  0  0  0
 17  8  1  0  0  0  0
M TOR 0 0 1 2 3
M TOR 1 0 1 2 4
M TOR 2 1 2 4 5
M TOR 3 1 2 4 10
M TOR 4 1 2 4 11
M TOR 5 2 4 5 6
M TOR 6 2 4 5 8
M TOR 7 2 4 5 12
M TOR 8 3 2 1 9
M TOR 9 3 2 4 5
M TOR 10 3 2 4 10
M TOR 11 3 2 4 11
M TOR 12 4 2 1 9
M TOR 13 4 5 6 7
M TOR 14 4 5 6 13
M TOR 15 4 5 6 14
M TOR 16 4 5 8 7
M TOR 17 4 5 8 17
M TOR 18 4 5 8 18
M TOR 19 5 6 7 8
M TOR 20 5 6 7 15
M TOR 21 5 6 7 16
M TOR 22 5 8 7 15
M TOR 23 5 8 7 16
M TOR 24 6 5 4 10
M TOR 25 6 5 4 11
M TOR 26 6 5 8 17
M TOR 27 6 5 8 18
M TOR 28 6 7 8 17
M TOR 29 6 7 8 18
M TOR 30 7 6 5 12
M TOR 31 7 8 5 12
M TOR 32 8 5 4 10
M TOR 33 8 5 4 11
M TOR 34 8 5 6 13
M TOR 35 8 5 6 14
M TOR 36 8 7 6 13
M TOR 37 8 7 6 14
M  END
$$$$
