gdb 4529	2.2993364	1.6784438	1.0127796	2.7864	79.56	-0.23149	-0.05084	0.18065	1186.4502	0.155894	-422.588899	-422.57978	-422.578836	-422.622723	33.387
 OpenBabel02181911413D

 19 19  0  0  1  0  0  0  0  0999 V2000
   -3.6061    1.0408   -0.6981 C   0  0  0  0  0  0  0  0  0  0  0  0
   -2.5331    0.2966    0.0787 C   0  0  1  0  0  0  0  0  0  0  0  0
   -2.4014   -1.0033   -0.4802 O   0  0  0  0  0  0  0  0  0  0  0  0
   -1.4546   -1.8047    0.1867 C   0  0  0  0  0  0  0  0  0  0  0  0
   -0.1258   -1.1292    0.3481 C   0  0  0  0  0  0  0  0  0  0  0  0
    0.0281    0.1984    0.2415 C   0  0  0  0  0  0  0  0  0  0  0  0
    1.3446    0.9147    0.3401 C   0  0  0  0  0  0  0  0  0  0  0  0
   -1.1867    1.0376    0.0779 C   0  0  0  0  0  0  0  0  0  0  0  0
   -1.1284    2.2502    0.0228 O   0  0  0  0  0  0  0  0  0  0  0  0
   -3.6862    2.0642   -0.3286 H   0  0  0  0  0  0  0  0  0  0  0  0
   -3.3445    1.0750   -1.7594 H   0  0  0  0  0  0  0  0  0  0  0  0
   -4.5684    0.5348   -0.5914 H   0  0  0  0  0  0  0  0  0  0  0  0
   -2.8370    0.2121    1.1410 H   0  0  0  0  0  0  0  0  0  0  0  0
   -1.8329   -2.1198    1.1796 H   0  0  0  0  0  0  0  0  0  0  0  0
   -1.3457   -2.7174   -0.4101 H   0  0  0  0  0  0  0  0  0  0  0  0
    0.7272   -1.7712    0.5617 H   0  0  0  0  0  0  0  0  0  0  0  0
    1.3246    1.6570    1.1443 H   0  0  0  0  0  0  0  0  0  0  0  0
    2.1640    0.2144    0.5202 H   0  0  0  0  0  0  0  0  0  0  0  0
    1.5527    1.4686   -0.5812 H   0  0  0  0  0  0  0  0  0  0  0  0
  1 12  1  0  0  0  0
  1 10  1  0  0  0  0
  1  2  1  0  0  0  0
  2 13  1  1  0  0  0
  3  2  1  0  0  0  0
  3  4  1  0  0  0  0
  4  5  1  0  0  0  0
  4 14  1  0  0  0  0
  5 16  1  0  0  0  0
  6  7  1  0  0  0  0
  6  5  2  0  0  0  0
  7 18  1  0  0  0  0
  7 17  1  0  0  0  0
  8  2  1  0  0  0  0
  8  6  1  0  0  0  0
  9  8  2  0  0  0  0
 11  1  1  0  0  0  0
 15  4  1  0  0  0  0
 19  7  1  0  0  0  0
M TOR 0 0 1 2 3
M TOR 1 0 1 7 5
M TOR 2 0 1 7 8
M TOR 3 1 2 3 4
M TOR 4 1 2 3 13
M TOR 5 1 2 3 14
M TOR 6 1 7 5 4
M TOR 7 1 7 5 6
M TOR 8 2 1 0 9
M TOR 9 2 1 0 10
M TOR 10 2 1 0 11
M TOR 11 2 1 7 5
M TOR 12 2 1 7 8
M TOR 13 2 3 4 5
M TOR 14 2 3 4 15
M TOR 15 3 2 1 7
M TOR 16 3 2 1 12
M TOR 17 3 4 5 6
M TOR 18 3 4 5 7
M TOR 19 4 5 6 16
M TOR 20 4 5 6 17
M TOR 21 4 5 6 18
M TOR 22 4 5 7 8
M TOR 23 5 4 3 13
M TOR 24 5 4 3 14
M TOR 25 5 7 1 12
M TOR 26 6 5 4 15
M TOR 27 6 5 7 8
M TOR 28 7 1 0 9
M TOR 29 7 1 0 10
M TOR 30 7 1 0 11
M TOR 31 7 5 4 15
M TOR 32 7 5 6 16
M TOR 33 7 5 6 17
M TOR 34 7 5 6 18
M TOR 35 8 7 1 12
M  END
$$$$
