gdb 3721	3.6070773	1.2217803	1.124907	2.7948	75.44	-0.24479	0.06194	0.30673	1153.9959	0.156101	-422.502334	-422.494086	-422.493142	-422.535309	31.126
 OpenBabel02181911413D

 19 21  0  0  1  0  0  0  0  0999 V2000
    0.1177    0.4176    0.1194 C   0  0  0  0  0  0  0  0  0  0  0  0
    0.9854   -0.8083    0.0118 C   0  0  2  0  0  0  0  0  0  0  0  0
    2.2086   -0.8060    0.7702 O   0  0  0  0  0  0  0  0  0  0  0  0
    2.2956   -0.8149   -0.6462 C   0  0  1  0  0  0  0  0  0  0  0  0
    2.9759   -1.9291   -1.4637 C   0  0  0  0  0  0  0  0  0  0  0  0
    3.7070   -0.8261   -2.2698 C   0  0  2  0  0  0  0  0  0  0  0  0
    4.9813   -0.4764   -1.6984 O   0  0  0  0  0  0  0  0  0  0  0  0
    4.4030    0.6217   -0.9501 C   0  0  0  0  0  0  0  0  0  0  0  0
    2.9866    0.2907   -1.4521 C   0  0  2  0  0  0  0  0  0  0  0  0
   -0.4064    0.4329    1.0807 H   0  0  0  0  0  0  0  0  0  0  0  0
    0.7152    1.3297    0.0437 H   0  0  0  0  0  0  0  0  0  0  0  0
   -0.6375    0.4251   -0.6743 H   0  0  0  0  0  0  0  0  0  0  0  0
    0.4524   -1.7609    0.0553 H   0  0  0  0  0  0  0  0  0  0  0  0
    3.6473   -2.5825   -0.9022 H   0  0  0  0  0  0  0  0  0  0  0  0
    2.2778   -2.5345   -2.0500 H   0  0  0  0  0  0  0  0  0  0  0  0
    3.7351   -0.8982   -3.3592 H   0  0  0  0  0  0  0  0  0  0  0  0
    4.5638    0.5289    0.1295 H   0  0  0  0  0  0  0  0  0  0  0  0
    4.7941    1.5853   -1.2983 H   0  0  0  0  0  0  0  0  0  0  0  0
    2.3808    1.0935   -1.8706 H   0  0  0  0  0  0  0  0  0  0  0  0
  1 10  1  0  0  0  0
  2 13  1  6  0  0  0
  2  1  1  0  0  0  0
  2  3  1  0  0  0  0
  4  2  1  0  0  0  0
  4  3  1  1  0  0  0
  5 14  1  0  0  0  0
  5  4  1  0  0  0  0
  6 16  1  6  0  0  0
  6  7  1  0  0  0  0
  6  5  1  0  0  0  0
  6  9  1  0  0  0  0
  7  8  1  0  0  0  0
  8 17  1  0  0  0  0
  9 19  1  6  0  0  0
  9  8  1  0  0  0  0
  9  4  1  0  0  0  0
 11  1  1  0  0  0  0
 12  1  1  0  0  0  0
 15  5  1  0  0  0  0
 18  8  1  0  0  0  0
M TOR 0 0 1 2 3
M TOR 1 0 1 3 4
M TOR 2 0 1 3 8
M TOR 3 1 2 3 4
M TOR 4 1 2 3 8
M TOR 5 1 3 4 5
M TOR 6 1 3 4 13
M TOR 7 1 3 4 14
M TOR 8 1 3 8 5
M TOR 9 1 3 8 7
M TOR 10 1 3 8 18
M TOR 11 2 1 0 9
M TOR 12 2 1 0 10
M TOR 13 2 1 0 11
M TOR 14 2 3 1 12
M TOR 15 2 3 4 5
M TOR 16 2 3 4 13
M TOR 17 2 3 4 14
M TOR 18 2 3 8 5
M TOR 19 2 3 8 7
M TOR 20 2 3 8 18
M TOR 21 3 1 0 9
M TOR 22 3 1 0 10
M TOR 23 3 1 0 11
M TOR 24 3 4 5 6
M TOR 25 3 4 5 8
M TOR 26 3 4 5 15
M TOR 27 3 8 5 6
M TOR 28 3 8 5 15
M TOR 29 3 8 7 6
M TOR 30 3 8 7 16
M TOR 31 3 8 7 17
M TOR 32 4 3 1 12
M TOR 33 4 3 8 7
M TOR 34 4 3 8 18
M TOR 35 4 5 6 7
M TOR 36 4 5 8 7
M TOR 37 4 5 8 18
M TOR 38 5 6 7 8
M TOR 39 5 6 7 16
M TOR 40 5 6 7 17
M TOR 41 5 8 7 16
M TOR 42 5 8 7 17
M TOR 43 6 5 4 13
M TOR 44 6 5 4 14
M TOR 45 6 5 8 18
M TOR 46 6 7 8 18
M TOR 47 7 6 5 15
M TOR 48 7 8 5 15
M TOR 49 8 3 1 12
M TOR 50 8 3 4 13
M TOR 51 8 3 4 14
M TOR 52 8 5 4 13
M TOR 53 8 5 4 14
M  END
$$$$
