gdb 3697	3.6836067	1.0780169	1.0570561	3.4231	76.56	-0.24484	0.07799	0.32283	1249.9601	0.154238	-422.504443	-422.49554	-422.494596	-422.537758	33.457
 OpenBabel02181911413D

 19 21  0  0  1  0  0  0  0  0999 V2000
    0.1268    0.4478    0.0330 C   0  0  0  0  0  0  0  0  0  0  0  0
    1.0713   -0.7266    0.0268 C   0  0  2  0  0  0  0  0  0  0  0  0
    2.2688   -0.5965    0.8157 O   0  0  0  0  0  0  0  0  0  0  0  0
    2.4011   -0.6965   -0.5879 C   0  0  1  0  0  0  0  0  0  0  0  0
    3.1423   -1.8213   -1.3530 C   0  0  0  0  0  0  0  0  0  0  0  0
    3.6935   -0.7141   -2.2797 C   0  0  2  0  0  0  0  0  0  0  0  0
    4.0524   -0.8069   -3.7261 C   0  0  0  0  0  0  0  0  0  0  0  0
    4.4485    0.1598   -1.4329 O   0  0  0  0  0  0  0  0  0  0  0  0
    3.0222    0.3476   -1.4946 C   0  0  2  0  0  0  0  0  0  0  0  0
   -0.4299    0.4831    0.9752 H   0  0  0  0  0  0  0  0  0  0  0  0
    0.6706    1.3895   -0.0747 H   0  0  0  0  0  0  0  0  0  0  0  0
   -0.5997    0.3639   -0.7826 H   0  0  0  0  0  0  0  0  0  0  0  0
    0.5956   -1.7056    0.1184 H   0  0  0  0  0  0  0  0  0  0  0  0
    3.9063   -2.3589   -0.7875 H   0  0  0  0  0  0  0  0  0  0  0  0
    2.4646   -2.5274   -1.8404 H   0  0  0  0  0  0  0  0  0  0  0  0
    4.9426   -1.4306   -3.8646 H   0  0  0  0  0  0  0  0  0  0  0  0
    3.2362   -1.2550   -4.3017 H   0  0  0  0  0  0  0  0  0  0  0  0
    4.2664    0.1859   -4.1303 H   0  0  0  0  0  0  0  0  0  0  0  0
    2.6649    1.3310   -1.7781 H   0  0  0  0  0  0  0  0  0  0  0  0
  1 10  1  0  0  0  0
  2  1  1  0  0  0  0
  2 13  1  1  0  0  0
  2  3  1  0  0  0  0
  4  2  1  0  0  0  0
  4  3  1  1  0  0  0
  5 14  1  0  0  0  0
  5  4  1  0  0  0  0
  6  7  1  6  0  0  0
  6  9  1  0  0  0  0
  6  8  1  0  0  0  0
  6  5  1  0  0  0  0
  9 19  1  6  0  0  0
  9  8  1  0  0  0  0
  9  4  1  0  0  0  0
 11  1  1  0  0  0  0
 12  1  1  0  0  0  0
 15  5  1  0  0  0  0
 16  7  1  0  0  0  0
 17  7  1  0  0  0  0
 18  7  1  0  0  0  0
M TOR 0 0 1 2 3
M TOR 1 0 1 3 4
M TOR 2 0 1 3 8
M TOR 3 1 2 3 4
M TOR 4 1 2 3 8
M TOR 5 1 3 4 5
M TOR 6 1 3 4 13
M TOR 7 1 3 4 14
M TOR 8 1 3 8 5
M TOR 9 1 3 8 7
M TOR 10 1 3 8 18
M TOR 11 2 1 0 9
M TOR 12 2 1 0 10
M TOR 13 2 1 0 11
M TOR 14 2 3 1 12
M TOR 15 2 3 4 5
M TOR 16 2 3 4 13
M TOR 17 2 3 4 14
M TOR 18 2 3 8 5
M TOR 19 2 3 8 7
M TOR 20 2 3 8 18
M TOR 21 3 1 0 9
M TOR 22 3 1 0 10
M TOR 23 3 1 0 11
M TOR 24 3 4 5 6
M TOR 25 3 4 5 7
M TOR 26 3 4 5 8
M TOR 27 3 8 5 6
M TOR 28 3 8 5 7
M TOR 29 4 3 1 12
M TOR 30 4 3 8 7
M TOR 31 4 3 8 18
M TOR 32 4 5 6 15
M TOR 33 4 5 6 16
M TOR 34 4 5 6 17
M TOR 35 4 5 7 8
M TOR 36 4 5 8 18
M TOR 37 5 7 8 18
M TOR 38 6 5 4 13
M TOR 39 6 5 4 14
M TOR 40 6 5 7 8
M TOR 41 6 5 8 18
M TOR 42 7 5 4 13
M TOR 43 7 5 4 14
M TOR 44 7 5 6 15
M TOR 45 7 5 6 16
M TOR 46 7 5 6 17
M TOR 47 8 3 1 12
M TOR 48 8 3 4 13
M TOR 49 8 3 4 14
M TOR 50 8 5 4 13
M TOR 51 8 5 4 14
M TOR 52 8 5 6 15
M TOR 53 8 5 6 16
M TOR 54 8 5 6 17
M  END
$$$$
