gdb 2787	2.0694288	1.4442363	1.0000733	3.6027	75.98	-0.23975	-0.02154	0.21821	1230.3201	0.154561	-422.531522	-422.522135	-422.521191	-422.565939	33.987
 OpenBabel02181911413D

 19 20  0  0  1  0  0  0  0  0999 V2000
    0.9381   -0.3466   -1.0194 C   0  0  0  0  0  0  0  0  0  0  0  0
    0.9838    0.2439    0.3838 C   0  0  2  0  0  0  0  0  0  0  0  0
    1.7855    1.5509    0.5112 C   0  0  1  0  0  0  0  0  0  0  0  0
    1.8892    1.9888    1.9388 C   0  0  2  0  0  0  0  0  0  0  0  0
    2.4736    3.2240    2.2330 O   0  0  0  0  0  0  0  0  0  0  0  0
    2.7896    0.8723    1.4694 C   0  0  1  0  0  0  0  0  0  0  0  0
    2.0044   -0.4522    1.3421 C   0  0  1  0  0  0  0  0  0  0  0  0
    1.5170   -1.0127    2.6514 C   0  0  0  0  0  0  0  0  0  0  0  0
    0.3697   -1.0057    3.0236 O   0  0  0  0  0  0  0  0  0  0  0  0
    0.5153   -1.3567   -1.0038 H   0  0  0  0  0  0  0  0  0  0  0  0
    0.3185    0.2666   -1.6825 H   0  0  0  0  0  0  0  0  0  0  0  0
    1.9406   -0.4048   -1.4587 H   0  0  0  0  0  0  0  0  0  0  0  0
   -0.0245    0.2974    0.8057 H   0  0  0  0  0  0  0  0  0  0  0  0
    1.9841    2.2389   -0.3047 H   0  0  0  0  0  0  0  0  0  0  0  0
    1.0789    1.7960    2.6374 H   0  0  0  0  0  0  0  0  0  0  0  0
    3.1086    3.4408    1.5421 H   0  0  0  0  0  0  0  0  0  0  0  0
    3.8679    0.9666    1.5312 H   0  0  0  0  0  0  0  0  0  0  0  0
    2.5993   -1.2164    0.8280 H   0  0  0  0  0  0  0  0  0  0  0  0
    2.3256   -1.4201    3.3034 H   0  0  0  0  0  0  0  0  0  0  0  0
  1 10  1  0  0  0  0
  1  2  1  0  0  0  0
  2  3  1  0  0  0  0
  2 13  1  1  0  0  0
  2  7  1  0  0  0  0
  3 14  1  6  0  0  0
  3  6  1  0  0  0  0
  3  4  1  0  0  0  0
  4  5  1  0  0  0  0
  4 15  1  1  0  0  0
  6 17  1  6  0  0  0
  6  4  1  0  0  0  0
  7 18  1  6  0  0  0
  7  6  1  0  0  0  0
  7  8  1  0  0  0  0
  8  9  2  0  0  0  0
  8 19  1  0  0  0  0
 11  1  1  0  0  0  0
 12  1  1  0  0  0  0
 16  5  1  0  0  0  0
M TOR 0 0 1 2 3
M TOR 1 0 1 2 5
M TOR 2 0 1 2 13
M TOR 3 0 1 6 5
M TOR 4 0 1 6 7
M TOR 5 0 1 6 17
M TOR 6 1 2 3 4
M TOR 7 1 2 3 5
M TOR 8 1 2 3 14
M TOR 9 1 2 5 6
M TOR 10 1 2 5 16
M TOR 11 1 6 5 3
M TOR 12 1 6 5 16
M TOR 13 1 6 7 8
M TOR 14 1 6 7 18
M TOR 15 2 1 0 9
M TOR 16 2 1 0 10
M TOR 17 2 1 0 11
M TOR 18 2 1 6 7
M TOR 19 2 1 6 17
M TOR 20 2 3 4 15
M TOR 21 2 3 5 6
M TOR 22 2 3 5 16
M TOR 23 2 5 3 4
M TOR 24 2 5 3 14
M TOR 25 2 5 6 7
M TOR 26 2 5 6 17
M TOR 27 3 2 1 6
M TOR 28 3 2 1 12
M TOR 29 3 5 2 13
M TOR 30 3 5 6 7
M TOR 31 3 5 6 17
M TOR 32 4 3 2 13
M TOR 33 4 3 5 6
M TOR 34 4 3 5 16
M TOR 35 5 2 1 12
M TOR 36 5 3 4 15
M TOR 37 5 6 1 12
M TOR 38 5 6 7 8
M TOR 39 5 6 7 18
M TOR 40 6 1 0 9
M TOR 41 6 1 0 10
M TOR 42 6 1 0 11
M TOR 43 6 1 2 13
M TOR 44 6 5 2 13
M TOR 45 6 5 3 14
M TOR 46 7 6 1 12
M TOR 47 7 6 5 16
M TOR 48 8 7 6 17
M  END
$$$$
