gdb 2720	2.3598562	1.4762732	1.2071768	3.8144	77.17	-0.23526	-0.00504	0.23022	1122.0376	0.154138	-422.554061	-422.54427	-422.543326	-422.588491	35.507
 OpenBabel02181911413D

 19 20  0  0  1  0  0  0  0  0999 V2000
   -3.1971   -2.0728   -1.1975 C   0  0  0  0  0  0  0  0  0  0  0  0
   -2.1433   -0.9911   -1.0783 C   0  0  1  0  0  0  0  0  0  0  0  0
   -2.2039   -0.0442    0.0761 C   0  0  2  0  0  0  0  0  0  0  0  0
   -3.2503   -0.0025    0.9760 O   0  0  0  0  0  0  0  0  0  0  0  0
   -1.1780    1.0835   -0.1140 C   0  0  0  0  0  0  0  0  0  0  0  0
   -0.0942   -0.0292   -0.1197 C   0  0  0  0  0  0  0  0  0  0  0  0
    1.1049    0.0010   -0.0980 O   0  0  0  0  0  0  0  0  0  0  0  0
   -1.0963   -1.1316    0.0555 C   0  0  2  0  0  0  0  0  0  0  0  0
   -0.8588   -2.3981    0.8270 C   0  0  0  0  0  0  0  0  0  0  0  0
   -3.6430   -2.3114   -0.2293 H   0  0  0  0  0  0  0  0  0  0  0  0
   -4.0029   -1.7379   -1.8598 H   0  0  0  0  0  0  0  0  0  0  0  0
   -2.7820   -2.9916   -1.6235 H   0  0  0  0  0  0  0  0  0  0  0  0
   -1.7971   -0.6078   -2.0376 H   0  0  0  0  0  0  0  0  0  0  0  0
   -4.0151    0.3922    0.5414 H   0  0  0  0  0  0  0  0  0  0  0  0
   -1.2711    1.7231   -0.9977 H   0  0  0  0  0  0  0  0  0  0  0  0
   -1.0636    1.7040    0.7802 H   0  0  0  0  0  0  0  0  0  0  0  0
   -0.2126   -3.0796    0.2631 H   0  0  0  0  0  0  0  0  0  0  0  0
   -0.3608   -2.1829    1.7772 H   0  0  0  0  0  0  0  0  0  0  0  0
   -1.7915   -2.9222    1.0468 H   0  0  0  0  0  0  0  0  0  0  0  0
  1  2  1  0  0  0  0
  1 10  1  0  0  0  0
  2 13  1  6  0  0  0
  2  8  1  0  0  0  0
  2  3  1  0  0  0  0
  3  4  1  1  0  0  0
  5  3  1  0  0  0  0
  5 16  1  0  0  0  0
  6  5  1  0  0  0  0
  6  7  2  0  0  0  0
  6  8  1  0  0  0  0
  8  3  1  0  0  0  0
  8  9  1  1  0  0  0
  9 19  1  0  0  0  0
  9 18  1  0  0  0  0
 11  1  1  0  0  0  0
 12  1  1  0  0  0  0
 14  4  1  0  0  0  0
 15  5  1  0  0  0  0
 17  9  1  0  0  0  0
M TOR 0 0 1 2 3
M TOR 1 0 1 2 4
M TOR 2 0 1 2 7
M TOR 3 0 1 7 5
M TOR 4 0 1 7 8
M TOR 5 1 2 3 13
M TOR 6 1 2 4 5
M TOR 7 1 2 4 14
M TOR 8 1 2 4 15
M TOR 9 1 2 7 5
M TOR 10 1 2 7 8
M TOR 11 1 7 2 3
M TOR 12 1 7 2 4
M TOR 13 1 7 5 4
M TOR 14 1 7 5 6
M TOR 15 1 7 8 16
M TOR 16 1 7 8 17
M TOR 17 1 7 8 18
M TOR 18 2 1 0 9
M TOR 19 2 1 0 10
M TOR 20 2 1 0 11
M TOR 21 2 4 5 6
M TOR 22 2 4 5 7
M TOR 23 2 7 1 12
M TOR 24 2 7 5 6
M TOR 25 2 7 8 16
M TOR 26 2 7 8 17
M TOR 27 2 7 8 18
M TOR 28 3 2 1 12
M TOR 29 3 2 4 5
M TOR 30 3 2 4 14
M TOR 31 3 2 4 15
M TOR 32 3 2 7 5
M TOR 33 3 2 7 8
M TOR 34 4 2 1 12
M TOR 35 4 2 3 13
M TOR 36 4 2 7 8
M TOR 37 4 5 7 8
M TOR 38 5 7 1 12
M TOR 39 5 7 8 16
M TOR 40 5 7 8 17
M TOR 41 5 7 8 18
M TOR 42 6 5 4 14
M TOR 43 6 5 4 15
M TOR 44 6 5 7 8
M TOR 45 7 1 0 9
M TOR 46 7 1 0 10
M TOR 47 7 1 0 11
M TOR 48 7 2 3 13
M TOR 49 7 2 4 14
M TOR 50 7 2 4 15
M TOR 51 7 5 4 14
M TOR 52 7 5 4 15
M TOR 53 8 7 1 12
M  END
$$$$
