gdb 1961	3.9430298	1.2007946	1.0912004	2.6293	75.49	-0.23804	0.07046	0.3085	1165.4942	0.155723	-422.495915	-422.487553	-422.486609	-422.52891	31.619
 OpenBabel02181911403D

 19 21  0  0  1  0  0  0  0  0999 V2000
   -3.4222    2.5312    0.0346 C   0  0  0  0  0  0  0  0  0  0  0  0
   -1.9451    2.5626   -0.1740 C   0  0  2  0  0  0  0  0  0  0  0  0
   -1.1487    3.5633   -0.9511 C   0  0  0  0  0  0  0  0  0  0  0  0
   -1.0087    2.0806   -1.2608 C   0  0  1  0  0  0  0  0  0  0  0  0
   -0.2396    1.4193   -0.1316 C   0  0  0  0  0  0  0  0  0  0  0  0
    1.2817    1.5008    0.0759 C   0  0  0  0  0  0  0  0  0  0  0  0
    1.4106    0.0712   -0.0834 O   0  0  0  0  0  0  0  0  0  0  0  0
   -0.0212   -0.1042   -0.0963 C   0  0  0  0  0  0  0  0  0  0  0  0
   -1.1137    1.9966    0.8606 O   0  0  0  0  0  0  0  0  0  0  0  0
   -3.7018    3.1609    0.8868 H   0  0  0  0  0  0  0  0  0  0  0  0
   -3.9416    2.9105   -0.8500 H   0  0  0  0  0  0  0  0  0  0  0  0
   -3.7694    1.5132    0.2364 H   0  0  0  0  0  0  0  0  0  0  0  0
   -1.6986    4.1267   -1.6990 H   0  0  0  0  0  0  0  0  0  0  0  0
   -0.3407    4.1059   -0.4675 H   0  0  0  0  0  0  0  0  0  0  0  0
   -1.2037    1.6500   -2.2341 H   0  0  0  0  0  0  0  0  0  0  0  0
    1.8557    2.0589   -0.6729 H   0  0  0  0  0  0  0  0  0  0  0  0
    1.5621    1.8346    1.0832 H   0  0  0  0  0  0  0  0  0  0  0  0
   -0.3621   -0.6771   -0.9672 H   0  0  0  0  0  0  0  0  0  0  0  0
   -0.3984   -0.5678    0.8242 H   0  0  0  0  0  0  0  0  0  0  0  0
  1 12  1  0  0  0  0
  1 10  1  0  0  0  0
  2  1  1  6  0  0  0
  2  9  1  0  0  0  0
  3 14  1  0  0  0  0
  3  2  1  0  0  0  0
  4 15  1  6  0  0  0
  4  3  1  0  0  0  0
  4  2  1  0  0  0  0
  4  5  1  0  0  0  0
  5  8  1  0  0  0  0
  5  6  1  0  0  0  0
  5  9  1  0  0  0  0
  6 17  1  0  0  0  0
  7  6  1  0  0  0  0
  8  7  1  0  0  0  0
  8 19  1  0  0  0  0
 11  1  1  0  0  0  0
 13  3  1  0  0  0  0
 16  6  1  0  0  0  0
 18  8  1  0  0  0  0
M TOR 0 0 1 2 3
M TOR 1 0 1 2 12
M TOR 2 0 1 2 13
M TOR 3 0 1 3 4
M TOR 4 0 1 3 14
M TOR 5 0 1 8 4
M TOR 6 1 2 3 4
M TOR 7 1 2 3 14
M TOR 8 1 3 2 12
M TOR 9 1 3 2 13
M TOR 10 1 3 4 5
M TOR 11 1 3 4 7
M TOR 12 1 3 4 8
M TOR 13 1 8 4 5
M TOR 14 1 8 4 7
M TOR 15 2 1 0 9
M TOR 16 2 1 0 10
M TOR 17 2 1 0 11
M TOR 18 2 1 8 4
M TOR 19 2 3 1 8
M TOR 20 2 3 4 5
M TOR 21 2 3 4 7
M TOR 22 2 3 4 8
M TOR 23 3 1 0 9
M TOR 24 3 1 0 10
M TOR 25 3 1 0 11
M TOR 26 3 4 5 6
M TOR 27 3 4 5 15
M TOR 28 3 4 5 16
M TOR 29 3 4 7 6
M TOR 30 3 4 7 17
M TOR 31 3 4 7 18
M TOR 32 4 3 2 12
M TOR 33 4 3 2 13
M TOR 34 4 5 6 7
M TOR 35 5 4 3 14
M TOR 36 5 4 7 17
M TOR 37 5 4 7 18
M TOR 38 5 6 7 17
M TOR 39 5 6 7 18
M TOR 40 6 5 4 8
M TOR 41 6 7 4 8
M TOR 42 7 4 3 14
M TOR 43 7 4 5 15
M TOR 44 7 4 5 16
M TOR 45 7 6 5 15
M TOR 46 7 6 5 16
M TOR 47 8 1 0 9
M TOR 48 8 1 0 10
M TOR 49 8 1 0 11
M TOR 50 8 1 2 12
M TOR 51 8 1 2 13
M TOR 52 8 1 3 14
M TOR 53 8 4 3 14
M TOR 54 8 4 5 15
M TOR 55 8 4 5 16
M TOR 56 8 4 7 17
M TOR 57 8 4 7 18
M  END
$$$$
