
     RDKit          3D

 19 20  0  0  0  0  0  0  0  0999 V2000
    2.1142    0.2411   -1.7454 C   0  0  0  0  0  0  0  0  0  0  0  0
    1.4215    0.1532   -0.3919 C   0  0  0  0  0  0  0  0  0  0  0  0
    2.0348   -0.9071    0.5937 C   0  0  0  0  0  0  0  0  0  0  0  0
    2.4225    0.2363    1.5357 C   0  0  0  0  0  0  0  0  0  0  0  0
    1.2263    0.9662    1.8626 O   0  0  0  0  0  0  0  0  0  0  0  0
    1.8314    1.2473    0.6113 C   0  0  0  0  0  0  0  0  0  0  0  0
    3.6112    0.3388    2.4227 C   0  0  0  0  0  0  0  0  0  0  0  0
    3.6490    1.4992    3.3940 C   0  0  0  0  0  0  0  0  0  0  0  0
    4.4921   -0.4909    2.3439 O   0  0  0  0  0  0  0  0  0  0  0  0
    1.9259   -0.6608   -2.3361 H   0  0  0  0  0  0  0  0  0  0  0  0
    1.7545    1.1011   -2.3208 H   0  0  0  0  0  0  0  0  0  0  0  0
    3.1991    0.3438   -1.6304 H   0  0  0  0  0  0  0  0  0  0  0  0
    0.3361    0.0858   -0.5109 H   0  0  0  0  0  0  0  0  0  0  0  0
    1.3535   -1.6448    1.0220 H   0  0  0  0  0  0  0  0  0  0  0  0
    2.9112   -1.4075    0.1783 H   0  0  0  0  0  0  0  0  0  0  0  0
    2.1304    2.2733    0.4182 H   0  0  0  0  0  0  0  0  0  0  0  0
    2.8660    1.3718    4.1490 H   0  0  0  0  0  0  0  0  0  0  0  0
    4.6265    1.5345    3.8759 H   0  0  0  0  0  0  0  0  0  0  0  0
    3.4403    2.4474    2.8887 H   0  0  0  0  0  0  0  0  0  0  0  0
  1  2  1  0
  2  3  1  0
  3  4  1  0
  4  5  1  0
  5  6  1  0
  4  7  1  0
  7  8  1  0
  7  9  2  0
  6  2  1  0
  6  4  1  0
  1 10  1  0
  1 11  1  0
  1 12  1  0
  2 13  1  0
  3 14  1  0
  3 15  1  0
  6 16  1  0
  8 17  1  0
  8 18  1  0
  8 19  1  0
M  END
$$$$
