
     RDKit          3D

 19 21  0  0  0  0  0  0  0  0999 V2000
    1.3143    1.5684   -0.0779 C   0  0  0  0  0  0  0  0  0  0  0  0
    0.9307    0.0841   -0.1315 C   0  0  0  0  0  0  0  0  0  0  0  0
    1.6400   -0.6631   -1.2152 C   0  0  0  0  0  0  0  0  0  0  0  0
    3.1046   -0.7041   -1.2369 O   0  0  0  0  0  0  0  0  0  0  0  0
    2.7521   -1.5040   -2.3980 C   0  0  0  0  0  0  0  0  0  0  0  0
    1.4833   -2.1244   -1.7516 C   0  0  0  0  0  0  0  0  0  0  0  0
    0.5962   -1.7543   -2.8427 O   0  0  0  0  0  0  0  0  0  0  0  0
    1.5205   -0.6221   -2.7921 C   0  0  0  0  0  0  0  0  0  0  0  0
    1.3765    0.5037   -3.7603 C   0  0  0  0  0  0  0  0  0  0  0  0
    0.8135    2.0680    0.7561 H   0  0  0  0  0  0  0  0  0  0  0  0
    2.3939    1.6827    0.0512 H   0  0  0  0  0  0  0  0  0  0  0  0
    1.0292    2.0858   -0.9992 H   0  0  0  0  0  0  0  0  0  0  0  0
    1.1574   -0.3978    0.8274 H   0  0  0  0  0  0  0  0  0  0  0  0
   -0.1466   -0.0360   -0.2998 H   0  0  0  0  0  0  0  0  0  0  0  0
    3.5468   -1.9450   -2.9994 H   0  0  0  0  0  0  0  0  0  0  0  0
    1.3229   -3.0697   -1.2338 H   0  0  0  0  0  0  0  0  0  0  0  0
    2.1603    1.2450   -3.5780 H   0  0  0  0  0  0  0  0  0  0  0  0
    1.4691    0.1417   -4.7890 H   0  0  0  0  0  0  0  0  0  0  0  0
    0.4014    0.9884   -3.6521 H   0  0  0  0  0  0  0  0  0  0  0  0
  1  2  1  0
  2  3  1  0
  3  4  1  0
  4  5  1  0
  5  6  1  0
  6  7  1  0
  7  8  1  0
  8  9  1  0
  6  3  1  0
  8  3  1  0
  8  5  1  0
  1 10  1  0
  1 11  1  0
  1 12  1  0
  2 13  1  0
  2 14  1  0
  5 15  1  0
  6 16  1  0
  9 17  1  0
  9 18  1  0
  9 19  1  0
M  END
$$$$
