gdb 958	3.5877092	1.0905288	1.0265503	1.787	76.32	-0.27973	0.0096	0.28933	1224.4305	0.157678	-422.535727	-422.527546	-422.526602	-422.569639	30.299
 OpenBabel02181911403D

 19 20  0  0  1  0  0  0  0  0999 V2000
    1.1621    0.9079   -0.5065 O   0  0  0  0  0  0  0  0  0  0  0  0
    0.2384    0.1454   -0.5886 C   0  0  0  0  0  0  0  0  0  0  0  0
   -1.0614    0.4444   -0.4613 O   0  0  0  0  0  0  0  0  0  0  0  0
   -1.3869    1.8317   -0.2006 C   0  0  0  0  0  0  0  0  0  0  0  0
   -1.6452    2.5793   -1.4784 C   0  0  1  0  0  0  0  0  0  0  0  0
   -2.6938    2.2480   -2.5845 C   0  0  0  0  0  0  0  0  0  0  0  0
   -1.9828    3.5498   -3.0522 C   0  0  1  0  0  0  0  0  0  0  0  0
   -2.1104    4.0642   -1.5890 C   0  0  0  0  0  0  0  0  0  0  0  0
   -0.6393    2.8900   -2.6293 C   0  0  0  0  0  0  0  0  0  0  0  0
    0.3287   -0.9358   -0.7777 H   0  0  0  0  0  0  0  0  0  0  0  0
   -2.2867    1.7965    0.4195 H   0  0  0  0  0  0  0  0  0  0  0  0
   -0.5694    2.2889    0.3625 H   0  0  0  0  0  0  0  0  0  0  0  0
   -2.5101    1.3465   -3.1748 H   0  0  0  0  0  0  0  0  0  0  0  0
   -3.7472    2.3360   -2.3025 H   0  0  0  0  0  0  0  0  0  0  0  0
   -2.1798    4.1136   -3.9638 H   0  0  0  0  0  0  0  0  0  0  0  0
   -1.3926    4.8252   -1.2702 H   0  0  0  0  0  0  0  0  0  0  0  0
   -3.1197    4.2880   -1.2309 H   0  0  0  0  0  0  0  0  0  0  0  0
   -0.3011    2.0387   -3.2256 H   0  0  0  0  0  0  0  0  0  0  0  0
    0.1886    3.5595   -2.3833 H   0  0  0  0  0  0  0  0  0  0  0  0
  2  1  2  0  0  0  0
  2  3  1  0  0  0  0
  3  4  1  0  0  0  0
  4 12  1  0  0  0  0
  4 11  1  0  0  0  0
  5  4  1  1  0  0  0
  6 14  1  0  0  0  0
  6  5  1  0  0  0  0
  7 15  1  6  0  0  0
  7  9  1  0  0  0  0
  7  6  1  0  0  0  0
  7  8  1  0  0  0  0
  8  5  1  0  0  0  0
  8 16  1  0  0  0  0
  8 17  1  0  0  0  0
  9 19  1  0  0  0  0
  9  5  1  0  0  0  0
 10  2  1  0  0  0  0
 13  6  1  0  0  0  0
 18  9  1  0  0  0  0
M TOR 0 0 1 2 3
M TOR 1 1 2 3 4
M TOR 2 1 2 3 10
M TOR 3 1 2 3 11
M TOR 4 2 3 4 5
M TOR 5 2 3 4 7
M TOR 6 2 3 4 8
M TOR 7 3 2 1 9
M TOR 8 3 4 5 6
M TOR 9 3 4 5 12
M TOR 10 3 4 5 13
M TOR 11 3 4 7 6
M TOR 12 3 4 7 15
M TOR 13 3 4 7 16
M TOR 14 3 4 8 6
M TOR 15 3 4 8 17
M TOR 16 3 4 8 18
M TOR 17 4 5 6 7
M TOR 18 4 5 6 8
M TOR 19 4 5 6 14
M TOR 20 4 7 6 8
M TOR 21 4 7 6 14
M TOR 22 4 8 6 14
M TOR 23 5 4 3 10
M TOR 24 5 4 3 11
M TOR 25 5 4 7 15
M TOR 26 5 4 7 16
M TOR 27 5 4 8 17
M TOR 28 5 4 8 18
M TOR 29 5 6 7 15
M TOR 30 5 6 7 16
M TOR 31 5 6 8 17
M TOR 32 5 6 8 18
M TOR 33 7 4 3 10
M TOR 34 7 4 3 11
M TOR 35 7 4 5 12
M TOR 36 7 4 5 13
M TOR 37 7 4 8 17
M TOR 38 7 4 8 18
M TOR 39 7 6 5 12
M TOR 40 7 6 5 13
M TOR 41 7 6 8 17
M TOR 42 7 6 8 18
M TOR 43 8 4 3 10
M TOR 44 8 4 3 11
M TOR 45 8 4 5 12
M TOR 46 8 4 5 13
M TOR 47 8 4 7 15
M TOR 48 8 4 7 16
M TOR 49 8 6 5 12
M TOR 50 8 6 5 13
M TOR 51 8 6 7 15
M TOR 52 8 6 7 16
M  END
$$$$
