
     RDKit          3D

 19 19  0  0  0  0  0  0  0  0999 V2000
   -3.4984   -0.3782    2.3677 C   0  0  0  0  0  0  0  0  0  0  0  0
   -2.6847   -0.1525    1.0851 C   0  0  0  0  0  0  0  0  0  0  0  0
   -1.7623   -1.3120    0.8036 C   0  0  0  0  0  0  0  0  0  0  0  0
   -0.5705   -1.1972    0.2045 C   0  0  0  0  0  0  0  0  0  0  0  0
   -0.0532    0.1026   -0.2763 C   0  0  0  0  0  0  0  0  0  0  0  0
    1.0391    0.2074   -0.7961 O   0  0  0  0  0  0  0  0  0  0  0  0
   -0.9913    1.2919   -0.1090 C   0  0  0  0  0  0  0  0  0  0  0  0
   -1.8873    1.1670    1.1207 C   0  0  0  0  0  0  0  0  0  0  0  0
   -2.7348    2.3064    1.1369 O   0  0  0  0  0  0  0  0  0  0  0  0
   -4.0736   -1.3076    2.3110 H   0  0  0  0  0  0  0  0  0  0  0  0
   -2.8448   -0.4426    3.2451 H   0  0  0  0  0  0  0  0  0  0  0  0
   -4.2122    0.4354    2.5283 H   0  0  0  0  0  0  0  0  0  0  0  0
   -3.3938   -0.0673    0.2467 H   0  0  0  0  0  0  0  0  0  0  0  0
   -2.1080   -2.2943    1.1218 H   0  0  0  0  0  0  0  0  0  0  0  0
    0.0701   -2.0559    0.0302 H   0  0  0  0  0  0  0  0  0  0  0  0
   -0.4022    2.2108   -0.0779 H   0  0  0  0  0  0  0  0  0  0  0  0
   -1.6315    1.3471   -1.0010 H   0  0  0  0  0  0  0  0  0  0  0  0
   -1.2502    1.1525    2.0211 H   0  0  0  0  0  0  0  0  0  0  0  0
   -3.1266    2.3837    2.0118 H   0  0  0  0  0  0  0  0  0  0  0  0
  1  2  1  0
  2  3  1  0
  3  4  2  0
  4  5  1  0
  5  6  2  0
  5  7  1  0
  7  8  1  0
  8  9  1  0
  8  2  1  0
  1 10  1  0
  1 11  1  0
  1 12  1  0
  2 13  1  0
  3 14  1  0
  4 15  1  0
  7 16  1  0
  7 17  1  0
  8 18  1  0
  9 19  1  0
M  END
$$$$
