
     RDKit          3D

 19 18  0  0  0  0  0  0  0  0999 V2000
    1.4540   -0.0121   -0.2507 C   0  0  0  0  0  0  0  0  0  0  0  0
    0.0957   -0.1479    0.1204 O   0  0  0  0  0  0  0  0  0  0  0  0
   -0.2692    0.6332    1.2391 C   0  0  0  0  0  0  0  0  0  0  0  0
   -1.8003    0.6979    1.2999 C   0  0  0  0  0  0  0  0  0  0  0  0
   -2.4006    1.3509    0.0384 C   0  0  0  0  0  0  0  0  0  0  0  0
   -3.8562    1.3970    0.0752 C   0  0  0  0  0  0  0  0  0  0  0  0
   -5.0566    1.4205    0.1309 C   0  0  0  0  0  0  0  0  0  0  0  0
    0.2501    0.0017    2.5301 C   0  0  0  0  0  0  0  0  0  0  0  0
    0.4435    0.6048    3.5520 O   0  0  0  0  0  0  0  0  0  0  0  0
    2.1381   -0.3201    0.5539 H   0  0  0  0  0  0  0  0  0  0  0  0
    1.6167   -0.6582   -1.1158 H   0  0  0  0  0  0  0  0  0  0  0  0
    1.6932    1.0257   -0.5265 H   0  0  0  0  0  0  0  0  0  0  0  0
    0.1424    1.6528    1.1642 H   0  0  0  0  0  0  0  0  0  0  0  0
   -2.1997   -0.3165    1.4081 H   0  0  0  0  0  0  0  0  0  0  0  0
   -2.0886    1.2612    2.1921 H   0  0  0  0  0  0  0  0  0  0  0  0
   -2.0026    2.3687   -0.0681 H   0  0  0  0  0  0  0  0  0  0  0  0
   -2.0638    0.7931   -0.8416 H   0  0  0  0  0  0  0  0  0  0  0  0
   -6.1173    1.4479    0.1666 H   0  0  0  0  0  0  0  0  0  0  0  0
    0.4021   -1.1001    2.4479 H   0  0  0  0  0  0  0  0  0  0  0  0
  1  2  1  0
  2  3  1  0
  3  4  1  0
  4  5  1  0
  5  6  1  0
  6  7  3  0
  3  8  1  0
  8  9  2  0
  1 10  1  0
  1 11  1  0
  1 12  1  0
  3 13  1  0
  4 14  1  0
  4 15  1  0
  5 16  1  0
  5 17  1  0
  7 18  1  0
  8 19  1  0
M  END
$$$$
