gdb 3642	3.2848672	0.871358	0.7528014	2.5453	78.35	-0.24321	-0.03304	0.21017000000000002	1518.5928	0.154089	-422.576471	-422.566698	-422.565753	-422.612573	33.921
 OpenBabel02181911413D

 19 19  0  0  1  0  0  0  0  0999 V2000
   -4.5815    1.9258   -1.4892 C   0  0  0  0  0  0  0  0  0  0  0  0
   -3.2886    2.4487   -0.8788 C   0  0  1  0  0  0  0  0  0  0  0  0
   -2.4490    1.5594    0.0964 C   0  0  0  0  0  0  0  0  0  0  0  0
   -1.1353    1.9600   -0.6487 C   0  0  1  0  0  0  0  0  0  0  0  0
   -0.1022    0.9010   -1.0364 C   0  0  0  0  0  0  0  0  0  0  0  0
    0.7605    0.5048    0.1400 C   0  0  0  0  0  0  0  0  0  0  0  0
    0.8752   -0.6131    0.5699 O   0  0  0  0  0  0  0  0  0  0  0  0
   -2.0383    2.5054   -1.7724 C   0  0  0  0  0  0  0  0  0  0  0  0
   -1.8546    2.7194   -2.9357 O   0  0  0  0  0  0  0  0  0  0  0  0
   -5.3703    1.8478   -0.7347 H   0  0  0  0  0  0  0  0  0  0  0  0
   -4.9308    2.5950   -2.2809 H   0  0  0  0  0  0  0  0  0  0  0  0
   -4.4346    0.9349   -1.9306 H   0  0  0  0  0  0  0  0  0  0  0  0
   -3.4475    3.4415   -0.4379 H   0  0  0  0  0  0  0  0  0  0  0  0
   -2.5052    1.8086    1.1565 H   0  0  0  0  0  0  0  0  0  0  0  0
   -2.6743    0.4969   -0.0313 H   0  0  0  0  0  0  0  0  0  0  0  0
   -0.6444    2.8025   -0.1427 H   0  0  0  0  0  0  0  0  0  0  0  0
   -0.5794    0.0067   -1.4469 H   0  0  0  0  0  0  0  0  0  0  0  0
    0.5492    1.3287   -1.8118 H   0  0  0  0  0  0  0  0  0  0  0  0
    1.3003    1.3602    0.6132 H   0  0  0  0  0  0  0  0  0  0  0  0
  1  2  1  0  0  0  0
  1 10  1  0  0  0  0
  2 13  1  1  0  0  0
  2  3  1  0  0  0  0
  3 14  1  0  0  0  0
  4 16  1  1  0  0  0
  4  3  1  0  0  0  0
  5  4  1  0  0  0  0
  5  6  1  0  0  0  0
  6  7  2  0  0  0  0
  6 19  1  0  0  0  0
  8  2  1  0  0  0  0
  8  4  1  0  0  0  0
  9  8  2  0  0  0  0
 11  1  1  0  0  0  0
 12  1  1  0  0  0  0
 15  3  1  0  0  0  0
 17  5  1  0  0  0  0
 18  5  1  0  0  0  0
M TOR 0 0 1 2 3
M TOR 1 0 1 2 13
M TOR 2 0 1 2 14
M TOR 3 0 1 7 3
M TOR 4 0 1 7 8
M TOR 5 1 2 3 4
M TOR 6 1 2 3 7
M TOR 7 1 2 3 15
M TOR 8 1 7 3 4
M TOR 9 1 7 3 15
M TOR 10 2 1 0 9
M TOR 11 2 1 0 10
M TOR 12 2 1 0 11
M TOR 13 2 1 7 8
M TOR 14 2 3 4 5
M TOR 15 2 3 4 16
M TOR 16 2 3 4 17
M TOR 17 2 3 7 8
M TOR 18 3 2 1 12
M TOR 19 3 4 5 6
M TOR 20 3 4 5 18
M TOR 21 3 7 1 12
M TOR 22 4 3 2 13
M TOR 23 4 3 2 14
M TOR 24 4 3 7 8
M TOR 25 5 4 3 7
M TOR 26 5 4 3 15
M TOR 27 6 5 4 16
M TOR 28 6 5 4 17
M TOR 29 7 1 0 9
M TOR 30 7 1 0 10
M TOR 31 7 1 0 11
M TOR 32 7 1 2 13
M TOR 33 7 1 2 14
M TOR 34 7 3 2 13
M TOR 35 7 3 2 14
M TOR 36 7 3 4 16
M TOR 37 7 3 4 17
M TOR 38 8 7 1 12
M TOR 39 8 7 3 15
M  END
$$$$
