
     RDKit          3D

 19 21  0  0  0  0  0  0  0  0999 V2000
   -0.7345    1.2142    1.0023 C   0  0  0  0  0  0  0  0  0  0  0  0
    0.4474    2.1167    1.3827 C   0  0  0  0  0  0  0  0  0  0  0  0
    0.8741    2.9390    0.2701 O   0  0  0  0  0  0  0  0  0  0  0  0
    1.8841    1.9732   -0.0917 C   0  0  0  0  0  0  0  0  0  0  0  0
    1.4675    1.1404   -1.2981 C   0  0  0  0  0  0  0  0  0  0  0  0
    0.2407    0.4457   -1.1149 O   0  0  0  0  0  0  0  0  0  0  0  0
   -0.0750    0.0517    0.2242 C   0  0  0  0  0  0  0  0  0  0  0  0
    1.1998   -0.2208    1.0425 C   0  0  0  0  0  0  0  0  0  0  0  0
    1.7034    1.2075    1.2479 C   0  0  0  0  0  0  0  0  0  0  0  0
   -1.2231    0.8255    1.9044 H   0  0  0  0  0  0  0  0  0  0  0  0
   -1.4772    1.7448    0.4023 H   0  0  0  0  0  0  0  0  0  0  0  0
    0.2943    2.7146    2.2848 H   0  0  0  0  0  0  0  0  0  0  0  0
    2.8542    2.4495   -0.2769 H   0  0  0  0  0  0  0  0  0  0  0  0
    1.3283    1.7888   -2.1698 H   0  0  0  0  0  0  0  0  0  0  0  0
    2.2838    0.4368   -1.5337 H   0  0  0  0  0  0  0  0  0  0  0  0
   -0.7330   -0.8154    0.1263 H   0  0  0  0  0  0  0  0  0  0  0  0
    0.9505   -0.6964    1.9970 H   0  0  0  0  0  0  0  0  0  0  0  0
    1.9072   -0.8702    0.5185 H   0  0  0  0  0  0  0  0  0  0  0  0
    2.5036    1.3423    1.9744 H   0  0  0  0  0  0  0  0  0  0  0  0
  1  2  1  0
  2  3  1  0
  3  4  1  0
  4  5  1  0
  5  6  1  0
  6  7  1  0
  7  8  1  0
  8  9  1  0
  7  1  1  0
  9  2  1  0
  9  4  1  0
  1 10  1  0
  1 11  1  0
  2 12  1  0
  4 13  1  0
  5 14  1  0
  5 15  1  0
  7 16  1  0
  8 17  1  0
  8 18  1  0
  9 19  1  0
M  END
$$$$
