gdb 5864	3.8410497	0.5403901	0.4975352	3.9593	83.94	-0.24295	-0.03281	0.21014	2142.1679	0.15278	-422.533354	-422.522062	-422.521117	-422.573207	37.359
 OpenBabel02181911423D

 19 18  0  0  1  0  0  0  0  0999 V2000
    1.9948    4.3597   -5.3399 C   0  0  0  0  0  0  0  0  0  0  0  0
    1.4301    3.9077   -3.9921 C   0  0  0  0  0  0  0  0  0  0  0  0
    1.9492    2.5142   -3.5804 C   0  0  0  0  0  0  0  0  0  0  0  0
    1.4281    2.0599   -2.2970 C   0  0  0  0  0  0  0  0  0  0  0  0
    0.9742    1.7330   -1.2282 C   0  0  0  0  0  0  0  0  0  0  0  0
    0.4697    1.2411    0.0482 C   0  0  1  0  0  0  0  0  0  0  0  0
   -0.6218    0.3367   -0.0889 O   0  0  0  0  0  0  0  0  0  0  0  0
    1.6155    0.5277    0.7911 C   0  0  0  0  0  0  0  0  0  0  0  0
    2.2194    0.9921    1.7172 O   0  0  0  0  0  0  0  0  0  0  0  0
    1.7189    3.6645   -6.1407 H   0  0  0  0  0  0  0  0  0  0  0  0
    1.6155    5.3487   -5.6129 H   0  0  0  0  0  0  0  0  0  0  0  0
    3.0885    4.4180   -5.3137 H   0  0  0  0  0  0  0  0  0  0  0  0
    1.6945    4.6279   -3.2102 H   0  0  0  0  0  0  0  0  0  0  0  0
    0.3355    3.8802   -4.0299 H   0  0  0  0  0  0  0  0  0  0  0  0
    1.6887    1.7826   -4.3570 H   0  0  0  0  0  0  0  0  0  0  0  0
    3.0466    2.5299   -3.5394 H   0  0  0  0  0  0  0  0  0  0  0  0
    0.1302    2.0653    0.6846 H   0  0  0  0  0  0  0  0  0  0  0  0
   -0.5227   -0.1170   -0.9326 H   0  0  0  0  0  0  0  0  0  0  0  0
    1.8200   -0.4898    0.3868 H   0  0  0  0  0  0  0  0  0  0  0  0
  1 12  1  0  0  0  0
  1  2  1  0  0  0  0
  2  3  1  0  0  0  0
  2 13  1  0  0  0  0
  3 16  1  0  0  0  0
  3  4  1  0  0  0  0
  4  5  3  0  0  0  0
  5  6  1  0  0  0  0
  6 17  1  1  0  0  0
  6  8  1  0  0  0  0
  7  6  1  0  0  0  0
  8  9  2  0  0  0  0
 10  1  1  0  0  0  0
 11  1  1  0  0  0  0
 14  2  1  0  0  0  0
 15  3  1  0  0  0  0
 18  7  1  0  0  0  0
 19  8  1  0  0  0  0
M TOR 0 0 1 2 3
M TOR 1 0 1 2 14
M TOR 2 0 1 2 15
M TOR 3 1 2 3 4
M TOR 4 2 1 0 9
M TOR 5 2 1 0 10
M TOR 6 2 1 0 11
M TOR 7 2 3 4 5
M TOR 8 3 2 1 12
M TOR 9 3 2 1 13
M TOR 10 3 4 5 6
M TOR 11 3 4 5 7
M TOR 12 3 4 5 16
M TOR 13 4 3 2 14
M TOR 14 4 3 2 15
M TOR 15 4 5 6 17
M TOR 16 4 5 7 8
M TOR 17 4 5 7 18
M TOR 18 6 5 7 8
M TOR 19 6 5 7 18
M TOR 20 7 5 6 17
M TOR 21 8 7 5 16
M  END
$$$$
