
     RDKit          3D

 19 19  0  0  0  0  0  0  0  0999 V2000
   -1.5570  -11.8518    2.1528 C   0  0  0  0  0  0  0  0  0  0  0  0
   -0.6272  -11.2774    1.0665 C   0  0  0  0  0  0  0  0  0  0  0  0
   -0.3707  -12.2574    0.0055 C   0  0  0  0  0  0  0  0  0  0  0  0
   -0.1318  -13.0542   -0.8642 C   0  0  0  0  0  0  0  0  0  0  0  0
    0.6894  -10.7757    1.6523 C   0  0  0  0  0  0  0  0  0  0  0  0
    0.8729   -9.3037    1.9757 C   0  0  0  0  0  0  0  0  0  0  0  0
    1.6620   -8.9190    3.0599 O   0  0  0  0  0  0  0  0  0  0  0  0
    1.5892   -9.8937    0.8066 C   0  0  0  0  0  0  0  0  0  0  0  0
    1.1609   -9.5071   -0.4646 O   0  0  0  0  0  0  0  0  0  0  0  0
   -1.7646  -11.0891    2.9093 H   0  0  0  0  0  0  0  0  0  0  0  0
   -2.5058  -12.1813    1.7214 H   0  0  0  0  0  0  0  0  0  0  0  0
   -1.0923  -12.7104    2.6467 H   0  0  0  0  0  0  0  0  0  0  0  0
   -1.1312  -10.4227    0.5991 H   0  0  0  0  0  0  0  0  0  0  0  0
    0.0633  -13.7649   -1.6289 H   0  0  0  0  0  0  0  0  0  0  0  0
    1.2024  -11.4766    2.3056 H   0  0  0  0  0  0  0  0  0  0  0  0
    0.0373   -8.6455    1.7328 H   0  0  0  0  0  0  0  0  0  0  0  0
    1.1653   -9.0913    3.8667 H   0  0  0  0  0  0  0  0  0  0  0  0
    2.6634  -10.0290    0.9276 H   0  0  0  0  0  0  0  0  0  0  0  0
    1.0979  -10.3053   -1.0034 H   0  0  0  0  0  0  0  0  0  0  0  0
  1  2  1  0
  2  3  1  0
  3  4  3  0
  2  5  1  0
  5  6  1  0
  6  7  1  0
  6  8  1  0
  8  9  1  0
  8  5  1  0
  1 10  1  0
  1 11  1  0
  1 12  1  0
  2 13  1  0
  4 14  1  0
  5 15  1  0
  6 16  1  0
  7 17  1  0
  8 18  1  0
  9 19  1  0
M  END
$$$$
