
     RDKit          3D

 19 20  0  0  0  0  0  0  0  0999 V2000
   -0.7238    2.1813    1.2118 C   0  0  0  0  0  0  0  0  0  0  0  0
   -0.9800    1.2048    0.0666 C   0  0  0  0  0  0  0  0  0  0  0  0
   -2.3352    0.4619    0.0629 C   0  0  0  0  0  0  0  0  0  0  0  0
   -2.0726   -0.7006   -0.9081 C   0  0  0  0  0  0  0  0  0  0  0  0
   -0.9021   -1.2440   -0.0576 C   0  0  0  0  0  0  0  0  0  0  0  0
   -1.6172   -1.3338    1.3138 C   0  0  0  0  0  0  0  0  0  0  0  0
   -2.5008   -0.1990    1.3292 O   0  0  0  0  0  0  0  0  0  0  0  0
   -0.0127   -0.0020    0.0568 C   0  0  0  0  0  0  0  0  0  0  0  0
    1.1854    0.0376    0.1589 O   0  0  0  0  0  0  0  0  0  0  0  0
   -0.9865    1.7232    2.1688 H   0  0  0  0  0  0  0  0  0  0  0  0
    0.3330    2.4603    1.2349 H   0  0  0  0  0  0  0  0  0  0  0  0
   -1.3206    3.0910    1.0960 H   0  0  0  0  0  0  0  0  0  0  0  0
   -0.8586    1.7227   -0.8957 H   0  0  0  0  0  0  0  0  0  0  0  0
   -3.2134    1.0827   -0.1151 H   0  0  0  0  0  0  0  0  0  0  0  0
   -2.9147   -1.3932   -0.9767 H   0  0  0  0  0  0  0  0  0  0  0  0
   -1.7763   -0.3797   -1.9098 H   0  0  0  0  0  0  0  0  0  0  0  0
   -0.3860   -2.1508   -0.3670 H   0  0  0  0  0  0  0  0  0  0  0  0
   -2.2012   -2.2597    1.3933 H   0  0  0  0  0  0  0  0  0  0  0  0
   -0.9271   -1.2818    2.1630 H   0  0  0  0  0  0  0  0  0  0  0  0
  1  2  1  0
  2  3  1  0
  3  4  1  0
  4  5  1  0
  5  6  1  0
  6  7  1  0
  5  8  1  0
  8  9  2  0
  8  2  1  0
  7  3  1  0
  1 10  1  0
  1 11  1  0
  1 12  1  0
  2 13  1  0
  3 14  1  0
  4 15  1  0
  4 16  1  0
  5 17  1  0
  6 18  1  0
  6 19  1  0
M  END
$$$$
