gdb 1335	2.6838717	1.3092123	1.040762	2.9994	76.08	-0.24156	-0.02435	0.21721	1189.9407	0.155203	-422.534097	-422.524962	-422.524018	-422.568619	33.292
 OpenBabel02181911403D

 19 20  0  0  1  0  0  0  0  0999 V2000
    0.2359   -1.1028    1.3353 O   0  0  0  0  0  0  0  0  0  0  0  0
   -0.8258   -0.4170    0.6939 C   0  0  2  0  0  0  0  0  0  0  0  0
   -1.5572   -1.4497   -0.1555 C   0  0  0  0  0  0  0  0  0  0  0  0
   -2.6681   -1.2899   -0.5877 O   0  0  0  0  0  0  0  0  0  0  0  0
   -0.3435    0.6992   -0.2083 C   0  0  2  0  0  0  0  0  0  0  0  0
    0.8955    0.5832   -1.0525 C   0  0  0  0  0  0  0  0  0  0  0  0
    0.8289    1.6725   -0.0148 C   0  0  1  0  0  0  0  0  0  0  0  0
   -0.0358    2.8339   -0.5216 C   0  0  0  0  0  0  0  0  0  0  0  0
   -1.2285    1.8416   -0.7253 C   0  0  0  0  0  0  0  0  0  0  0  0
    0.7149   -0.4646    1.8738 H   0  0  0  0  0  0  0  0  0  0  0  0
   -1.5481   -0.0120    1.4203 H   0  0  0  0  0  0  0  0  0  0  0  0
   -0.9521   -2.3580   -0.3715 H   0  0  0  0  0  0  0  0  0  0  0  0
    1.5389   -0.2515   -0.7950 H   0  0  0  0  0  0  0  0  0  0  0  0
    0.8670    0.8300   -2.1117 H   0  0  0  0  0  0  0  0  0  0  0  0
    1.5545    1.7289    0.7898 H   0  0  0  0  0  0  0  0  0  0  0  0
   -0.2482    3.5813    0.2456 H   0  0  0  0  0  0  0  0  0  0  0  0
    0.3389    3.3468   -1.4134 H   0  0  0  0  0  0  0  0  0  0  0  0
   -2.0685    2.0599   -0.0618 H   0  0  0  0  0  0  0  0  0  0  0  0
   -1.6140    1.7212   -1.7415 H   0  0  0  0  0  0  0  0  0  0  0  0
  1 10  1  0  0  0  0
  2  1  1  0  0  0  0
  2 11  1  1  0  0  0
  3  2  1  0  0  0  0
  4  3  2  0  0  0  0
  5  7  1  0  0  0  0
  5  2  1  1  0  0  0
  6 13  1  0  0  0  0
  6  5  1  0  0  0  0
  6  7  1  0  0  0  0
  7 15  1  1  0  0  0
  8  7  1  0  0  0  0
  8 16  1  0  0  0  0
  9  8  1  0  0  0  0
  9  5  1  0  0  0  0
  9 18  1  0  0  0  0
 12  3  1  0  0  0  0
 14  6  1  0  0  0  0
 17  8  1  0  0  0  0
 19  9  1  0  0  0  0
M TOR 0 0 1 2 3
M TOR 1 0 1 2 11
M TOR 2 0 1 4 5
M TOR 3 0 1 4 6
M TOR 4 0 1 4 8
M TOR 5 1 4 5 6
M TOR 6 1 4 5 12
M TOR 7 1 4 5 13
M TOR 8 1 4 6 7
M TOR 9 1 4 6 14
M TOR 10 1 4 8 7
M TOR 11 1 4 8 17
M TOR 12 1 4 8 18
M TOR 13 2 1 0 9
M TOR 14 2 1 4 5
M TOR 15 2 1 4 6
M TOR 16 2 1 4 8
M TOR 17 3 2 1 4
M TOR 18 3 2 1 10
M TOR 19 4 1 0 9
M TOR 20 4 1 2 11
M TOR 21 4 5 6 7
M TOR 22 4 5 6 14
M TOR 23 4 6 5 12
M TOR 24 4 6 5 13
M TOR 25 4 6 7 8
M TOR 26 4 6 7 15
M TOR 27 4 6 7 16
M TOR 28 4 8 7 15
M TOR 29 4 8 7 16
M TOR 30 5 4 1 10
M TOR 31 5 4 8 7
M TOR 32 5 4 8 17
M TOR 33 5 4 8 18
M TOR 34 5 6 4 8
M TOR 35 5 6 7 8
M TOR 36 5 6 7 15
M TOR 37 5 6 7 16
M TOR 38 6 4 1 10
M TOR 39 6 4 8 17
M TOR 40 6 4 8 18
M TOR 41 6 7 8 17
M TOR 42 6 7 8 18
M TOR 43 7 6 5 12
M TOR 44 7 6 5 13
M TOR 45 8 4 1 10
M TOR 46 8 4 5 12
M TOR 47 8 4 5 13
M TOR 48 8 4 6 14
M TOR 49 8 7 6 14
M  END
$$$$
