gdb 167	3.170372	1.7024608	1.4020194	1.6932	74.53	-0.25554	0.08882	0.34436	965.1908	0.160341	-422.501471	-422.494851	-422.493907	-422.532073	27.862
 OpenBabel02181911403D

 19 21  0  0  1  0  0  0  0  0999 V2000
    1.2544    0.3828   -0.9487 C   0  0  0  0  0  0  0  0  0  0  0  0
    1.2843    1.5157    0.1498 C   0  0  1  0  0  0  0  0  0  0  0  0
   -0.2639    1.4398    0.1596 C   0  0  0  0  0  0  0  0  0  0  0  0
    0.2677   -0.0395    0.1571 C   0  0  1  0  0  0  0  0  0  0  0  0
   -0.4569   -1.2026    0.3366 O   0  0  0  0  0  0  0  0  0  0  0  0
   -0.8981   -1.2391    1.6973 C   0  0  0  0  0  0  0  0  0  0  0  0
    0.1195   -1.0530    2.6420 O   0  0  0  0  0  0  0  0  0  0  0  0
    0.7311    0.2516    2.5910 C   0  0  0  0  0  0  0  0  0  0  0  0
    1.3360    0.3565    1.1991 C   0  0  2  0  0  0  0  0  0  0  0  0
    0.8358    0.6660   -1.9176 H   0  0  0  0  0  0  0  0  0  0  0  0
    2.1584   -0.2220   -1.0520 H   0  0  0  0  0  0  0  0  0  0  0  0
    1.8921    2.4170    0.1187 H   0  0  0  0  0  0  0  0  0  0  0  0
   -0.7798    1.8125    1.0440 H   0  0  0  0  0  0  0  0  0  0  0  0
   -0.7700    1.7647   -0.7524 H   0  0  0  0  0  0  0  0  0  0  0  0
   -1.6874   -0.4794    1.8333 H   0  0  0  0  0  0  0  0  0  0  0  0
   -1.3011   -2.2396    1.8590 H   0  0  0  0  0  0  0  0  0  0  0  0
   -0.0165    1.0250    2.8117 H   0  0  0  0  0  0  0  0  0  0  0  0
    1.4743    0.2595    3.3915 H   0  0  0  0  0  0  0  0  0  0  0  0
    2.2437   -0.2522    1.1447 H   0  0  0  0  0  0  0  0  0  0  0  0
  1  2  1  0  0  0  0
  1  4  1  0  0  0  0
  2 12  1  6  0  0  0
  2  3  1  0  0  0  0
  2  9  1  0  0  0  0
  3 13  1  0  0  0  0
  4  3  1  0  0  0  0
  4  5  1  1  0  0  0
  4  9  1  0  0  0  0
  5  6  1  0  0  0  0
  6 15  1  0  0  0  0
  6 16  1  0  0  0  0
  6  7  1  0  0  0  0
  8  7  1  0  0  0  0
  8 17  1  0  0  0  0
  8 18  1  0  0  0  0
  9 19  1  6  0  0  0
  9  8  1  0  0  0  0
 10  1  1  0  0  0  0
 11  1  1  0  0  0  0
 14  3  1  0  0  0  0
M TOR 0 0 1 2 3
M TOR 1 0 1 2 12
M TOR 2 0 1 2 13
M TOR 3 0 1 8 3
M TOR 4 0 1 8 7
M TOR 5 0 1 8 18
M TOR 6 0 3 2 12
M TOR 7 0 3 2 13
M TOR 8 0 3 4 5
M TOR 9 0 3 8 7
M TOR 10 0 3 8 18
M TOR 11 1 0 3 4
M TOR 12 1 2 3 4
M TOR 13 1 2 3 8
M TOR 14 1 8 3 4
M TOR 15 1 8 7 6
M TOR 16 1 8 7 16
M TOR 17 1 8 7 17
M TOR 18 2 1 0 9
M TOR 19 2 1 0 10
M TOR 20 2 1 8 7
M TOR 21 2 1 8 18
M TOR 22 2 3 0 9
M TOR 23 2 3 0 10
M TOR 24 2 3 4 5
M TOR 25 2 3 8 7
M TOR 26 2 3 8 18
M TOR 27 3 0 1 11
M TOR 28 3 2 1 11
M TOR 29 3 4 5 6
M TOR 30 3 4 5 14
M TOR 31 3 4 5 15
M TOR 32 3 8 1 11
M TOR 33 3 8 7 6
M TOR 34 3 8 7 16
M TOR 35 3 8 7 17
M TOR 36 4 3 0 9
M TOR 37 4 3 0 10
M TOR 38 4 3 2 12
M TOR 39 4 3 2 13
M TOR 40 4 3 8 7
M TOR 41 4 3 8 18
M TOR 42 4 5 6 7
M TOR 43 5 4 3 8
M TOR 44 5 6 7 8
M TOR 45 5 6 7 16
M TOR 46 5 6 7 17
M TOR 47 6 7 8 18
M TOR 48 7 6 5 14
M TOR 49 7 6 5 15
M TOR 50 7 8 1 11
M TOR 51 8 1 0 9
M TOR 52 8 1 0 10
M TOR 53 8 1 2 12
M TOR 54 8 1 2 13
M TOR 55 8 3 0 9
M TOR 56 8 3 0 10
M TOR 57 8 3 2 12
M TOR 58 8 3 2 13
M  END
$$$$
