
     RDKit          3D

 19 21  0  0  0  0  0  0  0  0999 V2000
   -0.5188   -0.2042   -2.2423 O   0  0  0  0  0  0  0  0  0  0  0  0
   -0.8240   -0.2255   -0.8840 C   0  0  0  0  0  0  0  0  0  0  0  0
   -2.0881    0.4730   -0.4470 C   0  0  0  0  0  0  0  0  0  0  0  0
   -1.9335   -1.0277   -0.2641 C   0  0  0  0  0  0  0  0  0  0  0  0
   -1.5460   -1.5322    0.9858 O   0  0  0  0  0  0  0  0  0  0  0  0
   -0.3634   -0.8370    1.3980 C   0  0  0  0  0  0  0  0  0  0  0  0
    0.2941   -0.2867    0.1330 C   0  0  0  0  0  0  0  0  0  0  0  0
    1.6794   -0.6995   -0.2949 C   0  0  0  0  0  0  0  0  0  0  0  0
    1.4156    0.7077    0.1926 C   0  0  0  0  0  0  0  0  0  0  0  0
   -0.1643   -1.0689   -2.4794 H   0  0  0  0  0  0  0  0  0  0  0  0
   -2.0703    1.1346    0.4125 H   0  0  0  0  0  0  0  0  0  0  0  0
   -2.7497    0.7786   -1.2503 H   0  0  0  0  0  0  0  0  0  0  0  0
   -2.5673   -1.7117   -0.8162 H   0  0  0  0  0  0  0  0  0  0  0  0
   -0.6333   -0.0201    2.0834 H   0  0  0  0  0  0  0  0  0  0  0  0
    0.2696   -1.5419    1.9454 H   0  0  0  0  0  0  0  0  0  0  0  0
    2.2315   -1.3761    0.3493 H   0  0  0  0  0  0  0  0  0  0  0  0
    1.8750   -0.8251   -1.3548 H   0  0  0  0  0  0  0  0  0  0  0  0
    1.7979    0.9945    1.1676 H   0  0  0  0  0  0  0  0  0  0  0  0
    1.4223    1.5030   -0.5453 H   0  0  0  0  0  0  0  0  0  0  0  0
  1  2  1  0
  2  3  1  0
  3  4  1  0
  4  5  1  0
  5  6  1  0
  6  7  1  0
  7  8  1  0
  8  9  1  0
  4  2  1  0
  9  7  1  0
  7  2  1  0
  1 10  1  0
  3 11  1  0
  3 12  1  0
  4 13  1  0
  6 14  1  0
  6 15  1  0
  8 16  1  0
  8 17  1  0
  9 18  1  0
  9 19  1  0
M  END
$$$$
