
     RDKit          3D

 19 20  0  0  0  0  0  0  0  0999 V2000
    0.9811   -0.1072    0.5285 O   0  0  0  0  0  0  0  0  0  0  0  0
    0.4136   -0.5979   -0.6711 C   0  0  0  0  0  0  0  0  0  0  0  0
   -0.4569    0.3967   -1.4555 C   0  0  0  0  0  0  0  0  0  0  0  0
   -1.1770   -0.0177   -2.3379 O   0  0  0  0  0  0  0  0  0  0  0  0
   -0.3375    1.8542   -1.0886 C   0  0  0  0  0  0  0  0  0  0  0  0
   -1.0158    2.9472   -1.9629 C   0  0  0  0  0  0  0  0  0  0  0  0
   -0.0308    3.9627   -1.3086 C   0  0  0  0  0  0  0  0  0  0  0  0
    0.8343    2.7250   -1.6816 C   0  0  0  0  0  0  0  0  0  0  0  0
    0.0826    2.7064   -3.0440 C   0  0  0  0  0  0  0  0  0  0  0  0
    0.3004   -0.1107    1.2081 H   0  0  0  0  0  0  0  0  0  0  0  0
    1.2549   -0.8561   -1.3272 H   0  0  0  0  0  0  0  0  0  0  0  0
   -0.1685   -1.5182   -0.5291 H   0  0  0  0  0  0  0  0  0  0  0  0
   -0.4431    1.9742   -0.0053 H   0  0  0  0  0  0  0  0  0  0  0  0
   -2.0858    3.0715   -2.1271 H   0  0  0  0  0  0  0  0  0  0  0  0
    0.1678    4.8764   -1.8749 H   0  0  0  0  0  0  0  0  0  0  0  0
   -0.1632    4.1698   -0.2430 H   0  0  0  0  0  0  0  0  0  0  0  0
    1.8991    2.5793   -1.4983 H   0  0  0  0  0  0  0  0  0  0  0  0
    0.2904    3.5480   -3.7099 H   0  0  0  0  0  0  0  0  0  0  0  0
    0.0386    1.7654   -3.5909 H   0  0  0  0  0  0  0  0  0  0  0  0
  1  2  1  0
  2  3  1  0
  3  4  2  0
  3  5  1  0
  5  6  1  0
  6  7  1  0
  7  8  1  0
  8  9  1  0
  8  5  1  0
  9  6  1  0
  1 10  1  0
  2 11  1  0
  2 12  1  0
  5 13  1  0
  6 14  1  0
  7 15  1  0
  7 16  1  0
  8 17  1  0
  9 18  1  0
  9 19  1  0
M  END
$$$$
