
     RDKit          3D

 19 20  0  0  0  0  0  0  0  0999 V2000
   -1.1718   -2.4185   -0.0950 C   0  0  0  0  0  0  0  0  0  0  0  0
   -1.2026   -0.9170   -0.0948 C   0  0  0  0  0  0  0  0  0  0  0  0
   -2.1571    0.0432    0.7083 C   0  0  0  0  0  0  0  0  0  0  0  0
   -1.2501    1.0410   -0.0855 C   0  0  0  0  0  0  0  0  0  0  0  0
   -1.4410    0.0679   -1.3068 C   0  0  0  0  0  0  0  0  0  0  0  0
   -0.4675    0.1014   -2.4735 C   0  0  0  0  0  0  0  0  0  0  0  0
   -0.7200    1.1900   -3.3501 O   0  0  0  0  0  0  0  0  0  0  0  0
   -0.1145    0.0916    0.3240 C   0  0  0  0  0  0  0  0  0  0  0  0
    0.9988    0.1110    0.7520 O   0  0  0  0  0  0  0  0  0  0  0  0
   -0.9828   -2.8007    0.9133 H   0  0  0  0  0  0  0  0  0  0  0  0
   -2.1209   -2.8381   -0.4439 H   0  0  0  0  0  0  0  0  0  0  0  0
   -0.3758   -2.7943   -0.7459 H   0  0  0  0  0  0  0  0  0  0  0  0
   -3.1987    0.0190    0.3790 H   0  0  0  0  0  0  0  0  0  0  0  0
   -2.0734    0.0414    1.7970 H   0  0  0  0  0  0  0  0  0  0  0  0
   -1.2954    2.1279   -0.0751 H   0  0  0  0  0  0  0  0  0  0  0  0
   -2.4757    0.0516   -1.6646 H   0  0  0  0  0  0  0  0  0  0  0  0
    0.5728    0.1080   -2.1124 H   0  0  0  0  0  0  0  0  0  0  0  0
   -0.5925   -0.8004   -3.0831 H   0  0  0  0  0  0  0  0  0  0  0  0
   -0.5344    2.0030   -2.8694 H   0  0  0  0  0  0  0  0  0  0  0  0
  1  2  1  0
  2  3  1  0
  3  4  1  0
  4  5  1  0
  5  6  1  0
  6  7  1  0
  4  8  1  0
  8  9  2  0
  5  2  1  0
  8  2  1  0
  1 10  1  0
  1 11  1  0
  1 12  1  0
  3 13  1  0
  3 14  1  0
  4 15  1  0
  5 16  1  0
  6 17  1  0
  6 18  1  0
  7 19  1  0
M  END
$$$$
