
     RDKit          3D

 19 20  0  0  0  0  0  0  0  0999 V2000
   -0.5257    2.3318    1.1103 C   0  0  0  0  0  0  0  0  0  0  0  0
   -0.9025    1.2180    0.1384 C   0  0  0  0  0  0  0  0  0  0  0  0
   -2.3675    0.7062    0.2094 C   0  0  0  0  0  0  0  0  0  0  0  0
   -2.9122    0.7519    1.5200 O   0  0  0  0  0  0  0  0  0  0  0  0
   -2.3070   -0.7374   -0.2916 C   0  0  0  0  0  0  0  0  0  0  0  0
   -1.5348   -1.0328   -1.5322 C   0  0  0  0  0  0  0  0  0  0  0  0
   -0.8634   -1.2250   -0.1771 C   0  0  0  0  0  0  0  0  0  0  0  0
   -0.0590   -0.0629    0.3112 C   0  0  0  0  0  0  0  0  0  0  0  0
    1.0343   -0.1183    0.8195 O   0  0  0  0  0  0  0  0  0  0  0  0
   -0.8031    2.0713    2.1339 H   0  0  0  0  0  0  0  0  0  0  0  0
    0.5541    2.4952    1.0810 H   0  0  0  0  0  0  0  0  0  0  0  0
   -1.0340    3.2657    0.8549 H   0  0  0  0  0  0  0  0  0  0  0  0
   -0.7168    1.5710   -0.8859 H   0  0  0  0  0  0  0  0  0  0  0  0
   -3.0423    1.3241   -0.3911 H   0  0  0  0  0  0  0  0  0  0  0  0
   -2.4086    0.1466    2.0769 H   0  0  0  0  0  0  0  0  0  0  0  0
   -3.1360   -1.3808   -0.0190 H   0  0  0  0  0  0  0  0  0  0  0  0
   -1.7815   -1.9459   -2.0621 H   0  0  0  0  0  0  0  0  0  0  0  0
   -1.2016   -0.2254   -2.1750 H   0  0  0  0  0  0  0  0  0  0  0  0
   -0.5803   -2.2213    0.1371 H   0  0  0  0  0  0  0  0  0  0  0  0
  1  2  1  0
  2  3  1  0
  3  4  1  0
  3  5  1  0
  5  6  1  0
  6  7  1  0
  7  8  1  0
  8  9  2  0
  8  2  1  0
  7  5  1  0
  1 10  1  0
  1 11  1  0
  1 12  1  0
  2 13  1  0
  3 14  1  0
  4 15  1  0
  5 16  1  0
  6 17  1  0
  6 18  1  0
  7 19  1  0
M  END
$$$$
