gdb 316	2.7474481	1.8474623	1.3818569	1.9583	74.09	-0.22973	0.09047	0.3202	973.8767	0.159302	-422.545361	-422.538006	-422.537061	-422.577217	28.743
 OpenBabel02181911403D

 19 21  0  0  1  0  0  0  0  0999 V2000
    0.0064   -0.3050   -0.4245 C   0  0  0  0  0  0  0  0  0  0  0  0
    1.4724   -0.0904   -0.1065 C   0  0  1  0  0  0  0  0  0  0  0  0
    2.2613    0.7356   -0.9157 O   0  0  0  0  0  0  0  0  0  0  0  0
    1.6609    2.0342   -0.9671 C   0  0  0  0  0  0  0  0  0  0  0  0
    0.6619    2.1373    0.2010 C   0  0  2  0  0  0  0  0  0  0  0  0
    1.1912    2.7765    1.3634 O   0  0  0  0  0  0  0  0  0  0  0  0
    1.1725    1.8838    2.4835 C   0  0  0  0  0  0  0  0  0  0  0  0
    0.2215    0.7303    2.1169 C   0  0  0  0  0  0  0  0  0  0  0  0
    0.4256    0.6964    0.6232 C   0  0  1  0  0  0  0  0  0  0  0  0
   -0.3936    0.0600   -1.3656 H   0  0  0  0  0  0  0  0  0  0  0  0
   -0.4374   -1.2347   -0.0824 H   0  0  0  0  0  0  0  0  0  0  0  0
    2.0465   -0.8885    0.3517 H   0  0  0  0  0  0  0  0  0  0  0  0
    2.4484    2.7894   -0.8943 H   0  0  0  0  0  0  0  0  0  0  0  0
    1.1365    2.1656   -1.9236 H   0  0  0  0  0  0  0  0  0  0  0  0
   -0.2425    2.6781   -0.1079 H   0  0  0  0  0  0  0  0  0  0  0  0
    2.1865    1.5016    2.6682 H   0  0  0  0  0  0  0  0  0  0  0  0
    0.8531    2.4473    3.3658 H   0  0  0  0  0  0  0  0  0  0  0  0
    0.4855   -0.2043    2.6186 H   0  0  0  0  0  0  0  0  0  0  0  0
   -0.8161    0.9744    2.3732 H   0  0  0  0  0  0  0  0  0  0  0  0
  1  2  1  0  0  0  0
  1 11  1  0  0  0  0
  2 12  1  1  0  0  0
  2  9  1  0  0  0  0
  3  2  1  0  0  0  0
  4  3  1  0  0  0  0
  4 13  1  0  0  0  0
  4  5  1  0  0  0  0
  5 15  1  6  0  0  0
  5  9  1  0  0  0  0
  5  6  1  0  0  0  0
  6  7  1  0  0  0  0
  7 16  1  0  0  0  0
  7 17  1  0  0  0  0
  8 19  1  0  0  0  0
  8  7  1  0  0  0  0
  8 18  1  0  0  0  0
  9  1  1  6  0  0  0
  9  8  1  0  0  0  0
 10  1  1  0  0  0  0
 14  4  1  0  0  0  0
M TOR 0 0 1 2 3
M TOR 1 0 1 8 4
M TOR 2 0 1 8 7
M TOR 3 0 8 1 2
M TOR 4 0 8 1 11
M TOR 5 0 8 4 3
M TOR 6 0 8 4 5
M TOR 7 0 8 4 14
M TOR 8 0 8 7 6
M TOR 9 0 8 7 17
M TOR 10 0 8 7 18
M TOR 11 1 2 3 4
M TOR 12 1 2 3 12
M TOR 13 1 2 3 13
M TOR 14 1 8 0 9
M TOR 15 1 8 0 10
M TOR 16 1 8 4 3
M TOR 17 1 8 4 5
M TOR 18 1 8 4 14
M TOR 19 1 8 7 6
M TOR 20 1 8 7 17
M TOR 21 1 8 7 18
M TOR 22 2 1 0 9
M TOR 23 2 1 0 10
M TOR 24 2 1 8 4
M TOR 25 2 1 8 7
M TOR 26 2 3 4 5
M TOR 27 2 3 4 8
M TOR 28 2 3 4 14
M TOR 29 3 2 1 8
M TOR 30 3 2 1 11
M TOR 31 3 4 5 6
M TOR 32 3 4 8 7
M TOR 33 4 5 6 7
M TOR 34 4 5 6 15
M TOR 35 4 5 6 16
M TOR 36 4 8 0 9
M TOR 37 4 8 0 10
M TOR 38 4 8 1 11
M TOR 39 4 8 7 6
M TOR 40 4 8 7 17
M TOR 41 4 8 7 18
M TOR 42 5 4 3 12
M TOR 43 5 4 3 13
M TOR 44 5 4 8 7
M TOR 45 5 6 7 8
M TOR 46 5 6 7 17
M TOR 47 5 6 7 18
M TOR 48 6 5 4 8
M TOR 49 6 5 4 14
M TOR 50 7 8 0 9
M TOR 51 7 8 0 10
M TOR 52 7 8 1 11
M TOR 53 7 8 4 14
M TOR 54 8 4 3 12
M TOR 55 8 4 3 13
M TOR 56 8 7 6 15
M TOR 57 8 7 6 16
M  END
$$$$
