gdb 2693	3.0330212	1.1387591	0.939331	2.8788	76.81	-0.238	-0.03315	0.20484999999999998	1283.003	0.154078	-422.529696	-422.520383	-422.519439	-422.564659	33.57
 OpenBabel02181911413D

 19 20  0  0  1  0  0  0  0  0999 V2000
    0.6383    0.9463   -0.2372 C   0  0  0  0  0  0  0  0  0  0  0  0
    0.8222   -0.5584   -0.1279 C   0  0  2  0  0  0  0  0  0  0  0  0
    1.8175   -1.0798    0.9556 C   0  0  2  0  0  0  0  0  0  0  0  0
    2.5847   -1.7931   -0.0330 O   0  0  0  0  0  0  0  0  0  0  0  0
    1.7766   -1.2669   -1.0918 C   0  0  0  0  0  0  0  0  0  0  0  0
    1.5163   -2.0442   -2.3347 C   0  0  0  0  0  0  0  0  0  0  0  0
    2.3822   -0.7890   -2.3697 C   0  0  0  0  0  0  0  0  0  0  0  0
    1.2111   -1.9983    1.9918 C   0  0  0  0  0  0  0  0  0  0  0  0
    0.8259   -1.6289    3.0708 O   0  0  0  0  0  0  0  0  0  0  0  0
    0.1084    1.3351    0.6380 H   0  0  0  0  0  0  0  0  0  0  0  0
    1.6032    1.4576   -0.3086 H   0  0  0  0  0  0  0  0  0  0  0  0
    0.0501    1.2055   -1.1240 H   0  0  0  0  0  0  0  0  0  0  0  0
   -0.1497   -1.0596   -0.0679 H   0  0  0  0  0  0  0  0  0  0  0  0
    2.3943   -0.2882    1.4487 H   0  0  0  0  0  0  0  0  0  0  0  0
    2.0196   -3.0003   -2.4315 H   0  0  0  0  0  0  0  0  0  0  0  0
    0.5249   -2.0051   -2.7751 H   0  0  0  0  0  0  0  0  0  0  0  0
    3.4520   -0.9245   -2.4867 H   0  0  0  0  0  0  0  0  0  0  0  0
    1.9828    0.1052   -2.8372 H   0  0  0  0  0  0  0  0  0  0  0  0
    1.1210   -3.0551    1.6515 H   0  0  0  0  0  0  0  0  0  0  0  0
  1  2  1  0  0  0  0
  1 10  1  0  0  0  0
  2 13  1  1  0  0  0
  2  3  1  0  0  0  0
  3 14  1  1  0  0  0
  3  8  1  0  0  0  0
  4  3  1  0  0  0  0
  5  2  1  0  0  0  0
  5  4  1  0  0  0  0
  6  5  1  0  0  0  0
  7  6  1  0  0  0  0
  7  5  1  0  0  0  0
  8  9  2  0  0  0  0
 11  1  1  0  0  0  0
 12  1  1  0  0  0  0
 15  6  1  0  0  0  0
 16  6  1  0  0  0  0
 17  7  1  0  0  0  0
 18  7  1  0  0  0  0
 19  8  1  0  0  0  0
M TOR 0 0 1 2 3
M TOR 1 0 1 2 7
M TOR 2 0 1 2 13
M TOR 3 0 1 4 3
M TOR 4 0 1 4 5
M TOR 5 0 1 4 6
M TOR 6 1 2 3 4
M TOR 7 1 2 7 8
M TOR 8 1 2 7 18
M TOR 9 1 4 5 6
M TOR 10 1 4 5 14
M TOR 11 1 4 5 15
M TOR 12 1 4 6 16
M TOR 13 1 4 6 17
M TOR 14 2 1 0 9
M TOR 15 2 1 0 10
M TOR 16 2 1 0 11
M TOR 17 2 1 4 5
M TOR 18 2 1 4 6
M TOR 19 2 3 4 5
M TOR 20 2 3 4 6
M TOR 21 3 2 1 12
M TOR 22 3 2 7 8
M TOR 23 3 2 7 18
M TOR 24 3 4 1 12
M TOR 25 3 4 5 6
M TOR 26 3 4 5 14
M TOR 27 3 4 5 15
M TOR 28 3 4 6 16
M TOR 29 3 4 6 17
M TOR 30 4 1 0 9
M TOR 31 4 1 0 10
M TOR 32 4 1 0 11
M TOR 33 4 1 2 7
M TOR 34 4 1 2 13
M TOR 35 4 3 2 7
M TOR 36 4 3 2 13
M TOR 37 4 5 6 16
M TOR 38 4 5 6 17
M TOR 39 4 6 5 14
M TOR 40 4 6 5 15
M TOR 41 5 4 1 12
M TOR 42 6 4 1 12
M TOR 43 7 2 1 12
M TOR 44 8 7 2 13
M  END
$$$$
