gdb 1351	2.6400839	1.0502108	0.7974228	1.3466	78.4	-0.25563	-0.02898	0.22665000000000002	1425.5945	0.152731	-422.540371	-422.529836	-422.528892	-422.576224	37.405
 OpenBabel02181911403D

 19 18  0  0  1  0  0  0  0  0999 V2000
   -1.8960    3.7377   -1.1204 C   0  0  0  0  0  0  0  0  0  0  0  0
   -1.2428    2.3563   -1.3383 C   0  0  1  0  0  0  0  0  0  0  0  0
    0.2395    2.5641   -1.5725 C   0  0  0  0  0  0  0  0  0  0  0  0
    1.1367    2.0818   -0.9270 O   0  0  0  0  0  0  0  0  0  0  0  0
   -1.5541    1.3808   -0.1973 C   0  0  1  0  0  0  0  0  0  0  0  0
   -2.9632    1.3776   -0.0419 O   0  0  0  0  0  0  0  0  0  0  0  0
   -1.0322   -0.0505   -0.4749 C   0  0  0  0  0  0  0  0  0  0  0  0
   -1.4820   -0.9748    0.5588 C   0  0  0  0  0  0  0  0  0  0  0  0
   -1.9012   -1.6845    1.4354 C   0  0  0  0  0  0  0  0  0  0  0  0
   -1.5362    4.1964   -0.1935 H   0  0  0  0  0  0  0  0  0  0  0  0
   -1.6628    4.4153   -1.9479 H   0  0  0  0  0  0  0  0  0  0  0  0
   -2.9778    3.6273   -1.0499 H   0  0  0  0  0  0  0  0  0  0  0  0
   -1.6516    1.9448   -2.2747 H   0  0  0  0  0  0  0  0  0  0  0  0
    0.4603    3.2556   -2.4186 H   0  0  0  0  0  0  0  0  0  0  0  0
   -1.0631    1.7453    0.7183 H   0  0  0  0  0  0  0  0  0  0  0  0
   -3.1747    0.6918    0.6037 H   0  0  0  0  0  0  0  0  0  0  0  0
   -1.4053   -0.3838   -1.4520 H   0  0  0  0  0  0  0  0  0  0  0  0
    0.0601   -0.0315   -0.5206 H   0  0  0  0  0  0  0  0  0  0  0  0
   -2.2401   -2.3389    2.2002 H   0  0  0  0  0  0  0  0  0  0  0  0
  1 12  1  0  0  0  0
  1 10  1  0  0  0  0
  2 13  1  6  0  0  0
  2  1  1  0  0  0  0
  2  5  1  0  0  0  0
  3  2  1  0  0  0  0
  3  4  2  0  0  0  0
  5  6  1  0  0  0  0
  5 15  1  1  0  0  0
  6 16  1  0  0  0  0
  7  5  1  0  0  0  0
  7  8  1  0  0  0  0
  8  9  3  0  0  0  0
  9 19  1  0  0  0  0
 11  1  1  0  0  0  0
 14  3  1  0  0  0  0
 17  7  1  0  0  0  0
 18  7  1  0  0  0  0
M TOR 0 0 1 2 3
M TOR 1 0 1 2 13
M TOR 2 0 1 4 5
M TOR 3 0 1 4 6
M TOR 4 0 1 4 14
M TOR 5 1 4 5 15
M TOR 6 1 4 6 7
M TOR 7 1 4 6 16
M TOR 8 1 4 6 17
M TOR 9 2 1 0 9
M TOR 10 2 1 0 10
M TOR 11 2 1 0 11
M TOR 12 2 1 4 5
M TOR 13 2 1 4 6
M TOR 14 2 1 4 14
M TOR 15 3 2 1 4
M TOR 16 3 2 1 12
M TOR 17 4 1 0 9
M TOR 18 4 1 0 10
M TOR 19 4 1 0 11
M TOR 20 4 1 2 13
M TOR 21 4 6 7 8
M TOR 22 5 4 1 12
M TOR 23 5 4 6 7
M TOR 24 5 4 6 16
M TOR 25 5 4 6 17
M TOR 26 6 4 1 12
M TOR 27 6 4 5 15
M TOR 28 6 7 8 18
M TOR 29 7 6 4 14
M TOR 30 8 7 6 16
M TOR 31 8 7 6 17
M  END
$$$$
