gdb 5839	2.4094306	0.9247079	0.723418	2.6241	81.33	-0.24393	0.02933	0.27326	1606.2411	0.154902	-422.50257	-422.492209	-422.491265	-422.540411	34.944
 OpenBabel02181911423D

 19 19  0  0  1  0  0  0  0  0999 V2000
    1.5071   -0.0182   -0.0009 C   0  0  0  0  0  0  0  0  0  0  0  0
    0.0522   -0.0351    0.0149 C   0  0  0  0  0  0  0  0  0  0  0  0
   -1.1525   -0.0372    0.0256 C   0  0  0  0  0  0  0  0  0  0  0  0
   -2.6042   -0.0511    0.0416 C   0  0  1  0  0  0  0  0  0  0  0  0
   -3.2055    0.4130   -1.2018 O   0  0  0  0  0  0  0  0  0  0  0  0
   -3.8371   -0.8605   -1.4373 C   0  0  0  0  0  0  0  0  0  0  0  0
   -3.3096   -1.4312   -0.1052 C   0  0  2  0  0  0  0  0  0  0  0  0
   -4.3495   -1.7433    0.9594 C   0  0  0  0  0  0  0  0  0  0  0  0
   -3.7831   -1.8769    2.2524 O   0  0  0  0  0  0  0  0  0  0  0  0
    1.9104    0.4186    0.9193 H   0  0  0  0  0  0  0  0  0  0  0  0
    1.9195   -1.0284   -0.0999 H   0  0  0  0  0  0  0  0  0  0  0  0
    1.8818    0.5762   -0.8415 H   0  0  0  0  0  0  0  0  0  0  0  0
   -2.9776    0.5332    0.8923 H   0  0  0  0  0  0  0  0  0  0  0  0
   -4.9286   -0.7698   -1.5144 H   0  0  0  0  0  0  0  0  0  0  0  0
   -3.4570   -1.3460   -2.3441 H   0  0  0  0  0  0  0  0  0  0  0  0
   -2.6100   -2.2640   -0.2172 H   0  0  0  0  0  0  0  0  0  0  0  0
   -5.0635   -0.9150    1.0348 H   0  0  0  0  0  0  0  0  0  0  0  0
   -4.9224   -2.6396    0.6705 H   0  0  0  0  0  0  0  0  0  0  0  0
   -3.1514   -2.6032    2.2276 H   0  0  0  0  0  0  0  0  0  0  0  0
  1  2  1  0  0  0  0
  1 10  1  0  0  0  0
  2  3  3  0  0  0  0
  3  4  1  0  0  0  0
  4 13  1  1  0  0  0
  5  4  1  0  0  0  0
  6  5  1  0  0  0  0
  6  7  1  0  0  0  0
  7 16  1  6  0  0  0
  7  4  1  0  0  0  0
  7  8  1  0  0  0  0
  8 17  1  0  0  0  0
  8  9  1  0  0  0  0
 11  1  1  0  0  0  0
 12  1  1  0  0  0  0
 14  6  1  0  0  0  0
 15  6  1  0  0  0  0
 18  8  1  0  0  0  0
 19  9  1  0  0  0  0
M TOR 0 0 1 2 3
M TOR 1 1 2 3 4
M TOR 2 1 2 3 6
M TOR 3 1 2 3 12
M TOR 4 2 1 0 9
M TOR 5 2 1 0 10
M TOR 6 2 1 0 11
M TOR 7 2 3 4 5
M TOR 8 2 3 6 5
M TOR 9 2 3 6 7
M TOR 10 2 3 6 15
M TOR 11 3 4 5 6
M TOR 12 3 4 5 13
M TOR 13 3 4 5 14
M TOR 14 3 6 5 13
M TOR 15 3 6 5 14
M TOR 16 3 6 7 8
M TOR 17 3 6 7 16
M TOR 18 3 6 7 17
M TOR 19 4 3 6 7
M TOR 20 4 3 6 15
M TOR 21 4 5 6 7
M TOR 22 4 5 6 15
M TOR 23 5 4 3 12
M TOR 24 5 6 3 12
M TOR 25 5 6 7 8
M TOR 26 5 6 7 16
M TOR 27 5 6 7 17
M TOR 28 6 7 8 18
M TOR 29 7 6 3 12
M TOR 30 7 6 5 13
M TOR 31 7 6 5 14
M TOR 32 8 7 6 15
M  END
$$$$
