gdb 1552	2.1376781	1.7196723	1.2768438	1.9388	77.05	-0.24451	-0.01965	0.22486	1066.4254	0.15512	-422.551874	-422.542919	-422.541974	-422.58503	34.102
 OpenBabel02181911403D

 19 20  0  0  1  0  0  0  0  0999 V2000
    0.0031   -0.2206    0.0428 C   0  0  0  0  0  0  0  0  0  0  0  0
    1.5124   -0.0125    0.0656 C   0  0  2  0  0  0  0  0  0  0  0  0
    2.0303   -0.1415    1.3783 O   0  0  0  0  0  0  0  0  0  0  0  0
    1.9775    1.3335   -0.5785 C   0  0  0  0  0  0  0  0  0  0  0  0
    2.7457    0.5658   -1.6590 C   0  0  1  0  0  0  0  0  0  0  0  0
    3.7446   -0.3374   -1.0451 C   0  0  0  0  0  0  0  0  0  0  0  0
    2.2880   -0.7844   -1.0310 C   0  0  1  0  0  0  0  0  0  0  0  0
    1.9001   -2.0096   -1.7307 C   0  0  0  0  0  0  0  0  0  0  0  0
    1.0034   -2.7539   -1.4010 O   0  0  0  0  0  0  0  0  0  0  0  0
   -0.4689    0.4947    0.7234 H   0  0  0  0  0  0  0  0  0  0  0  0
   -0.4035   -0.0730   -0.9619 H   0  0  0  0  0  0  0  0  0  0  0  0
   -0.2553   -1.2379    0.3481 H   0  0  0  0  0  0  0  0  0  0  0  0
    1.7482   -0.9958    1.7245 H   0  0  0  0  0  0  0  0  0  0  0  0
    1.1412    1.9198   -0.9634 H   0  0  0  0  0  0  0  0  0  0  0  0
    2.5915    1.9594    0.0740 H   0  0  0  0  0  0  0  0  0  0  0  0
    2.7545    0.8045   -2.7153 H   0  0  0  0  0  0  0  0  0  0  0  0
    4.3833   -0.8888   -1.7284 H   0  0  0  0  0  0  0  0  0  0  0  0
    4.1948   -0.0962   -0.0871 H   0  0  0  0  0  0  0  0  0  0  0  0
    2.5213   -2.2281   -2.6324 H   0  0  0  0  0  0  0  0  0  0  0  0
  1  2  1  0  0  0  0
  1 12  1  0  0  0  0
  1 10  1  0  0  0  0
  2  3  1  1  0  0  0
  3 13  1  0  0  0  0
  4  2  1  0  0  0  0
  4 15  1  0  0  0  0
  5 16  1  6  0  0  0
  5  6  1  0  0  0  0
  5  7  1  0  0  0  0
  5  4  1  0  0  0  0
  6  7  1  0  0  0  0
  6 18  1  0  0  0  0
  7  8  1  6  0  0  0
  7  2  1  0  0  0  0
  8  9  2  0  0  0  0
 11  1  1  0  0  0  0
 14  4  1  0  0  0  0
 17  6  1  0  0  0  0
 19  8  1  0  0  0  0
M TOR 0 0 1 2 12
M TOR 1 0 1 3 4
M TOR 2 0 1 3 13
M TOR 3 0 1 3 14
M TOR 4 0 1 6 4
M TOR 5 0 1 6 5
M TOR 6 0 1 6 7
M TOR 7 1 3 4 5
M TOR 8 1 3 4 6
M TOR 9 1 3 4 15
M TOR 10 1 6 4 5
M TOR 11 1 6 4 15
M TOR 12 1 6 5 16
M TOR 13 1 6 5 17
M TOR 14 1 6 7 8
M TOR 15 1 6 7 18
M TOR 16 2 1 0 9
M TOR 17 2 1 0 10
M TOR 18 2 1 0 11
M TOR 19 2 1 3 4
M TOR 20 2 1 3 13
M TOR 21 2 1 3 14
M TOR 22 2 1 6 4
M TOR 23 2 1 6 5
M TOR 24 2 1 6 7
M TOR 25 3 1 0 9
M TOR 26 3 1 0 10
M TOR 27 3 1 0 11
M TOR 28 3 1 2 12
M TOR 29 3 1 6 5
M TOR 30 3 1 6 7
M TOR 31 3 4 5 6
M TOR 32 3 4 5 16
M TOR 33 3 4 5 17
M TOR 34 3 4 6 7
M TOR 35 4 5 6 7
M TOR 36 4 6 5 16
M TOR 37 4 6 5 17
M TOR 38 4 6 7 8
M TOR 39 4 6 7 18
M TOR 40 5 4 3 13
M TOR 41 5 4 3 14
M TOR 42 5 6 4 15
M TOR 43 5 6 7 8
M TOR 44 5 6 7 18
M TOR 45 6 1 0 9
M TOR 46 6 1 0 10
M TOR 47 6 1 0 11
M TOR 48 6 1 2 12
M TOR 49 6 1 3 13
M TOR 50 6 1 3 14
M TOR 51 6 4 3 13
M TOR 52 6 4 3 14
M TOR 53 7 6 4 15
M TOR 54 7 6 5 16
M TOR 55 7 6 5 17
M  END
$$$$
