
     RDKit          3D

 19 21  0  0  0  0  0  0  0  0999 V2000
    1.2623   -0.2350    1.3301 O   0  0  0  0  0  0  0  0  0  0  0  0
    0.4401    0.2518    0.2930 C   0  0  0  0  0  0  0  0  0  0  0  0
   -0.8154    0.8986    0.8344 C   0  0  0  0  0  0  0  0  0  0  0  0
   -1.3484    0.2379    2.0058 O   0  0  0  0  0  0  0  0  0  0  0  0
   -0.8887    1.6016    2.1239 C   0  0  0  0  0  0  0  0  0  0  0  0
   -2.0261    2.6138    2.1243 C   0  0  0  0  0  0  0  0  0  0  0  0
   -2.6240    2.5079    0.7189 C   0  0  0  0  0  0  0  0  0  0  0  0
   -1.7390    2.9000   -0.4376 C   0  0  0  0  0  0  0  0  0  0  0  0
   -1.8848    1.4421   -0.0659 C   0  0  0  0  0  0  0  0  0  0  0  0
    0.6581   -0.6588    1.9549 H   0  0  0  0  0  0  0  0  0  0  0  0
    1.0209    0.9843   -0.2785 H   0  0  0  0  0  0  0  0  0  0  0  0
    0.1508   -0.5513   -0.4068 H   0  0  0  0  0  0  0  0  0  0  0  0
   -0.0165    1.7319    2.7575 H   0  0  0  0  0  0  0  0  0  0  0  0
   -2.7602    2.3562    2.8949 H   0  0  0  0  0  0  0  0  0  0  0  0
   -1.6552    3.6212    2.3469 H   0  0  0  0  0  0  0  0  0  0  0  0
   -3.6951    2.6191    0.6011 H   0  0  0  0  0  0  0  0  0  0  0  0
   -2.2191    3.2292   -1.3523 H   0  0  0  0  0  0  0  0  0  0  0  0
   -0.7976    3.3988   -0.2248 H   0  0  0  0  0  0  0  0  0  0  0  0
   -2.4023    0.7670   -0.7387 H   0  0  0  0  0  0  0  0  0  0  0  0
  1  2  1  0
  2  3  1  0
  3  4  1  0
  4  5  1  0
  5  6  1  0
  6  7  1  0
  7  8  1  0
  8  9  1  0
  5  3  1  0
  9  7  1  0
  9  3  1  0
  1 10  1  0
  2 11  1  0
  2 12  1  0
  5 13  1  0
  6 14  1  0
  6 15  1  0
  7 16  1  0
  8 17  1  0
  8 18  1  0
  9 19  1  0
M  END
$$$$
