gdb 1170	3.6177612	0.966223	0.9263043	3.6894	78.06	-0.2332	-0.00567	0.22752999999999998	1340.8407	0.155352	-422.576743	-422.567534	-422.56659	-422.611828	32.812
 OpenBabel02181911403D

 19 19  0  0  1  0  0  0  0  0999 V2000
   -2.1496    3.4485   -0.7395 C   0  0  0  0  0  0  0  0  0  0  0  0
   -0.8717    3.5977    0.0650 C   0  0  0  0  0  0  0  0  0  0  0  0
   -0.7852    4.3720    0.9886 O   0  0  0  0  0  0  0  0  0  0  0  0
    0.3151    2.7118   -0.3195 C   0  0  0  0  0  0  0  0  0  0  0  0
    0.5361    2.5592   -1.8321 C   0  0  1  0  0  0  0  0  0  0  0  0
    0.5652    3.8506   -2.4514 O   0  0  0  0  0  0  0  0  0  0  0  0
    1.7832    4.0372   -3.1705 C   0  0  0  0  0  0  0  0  0  0  0  0
    2.5636    2.7731   -2.9462 C   0  0  0  0  0  0  0  0  0  0  0  0
    1.8566    1.9349   -2.1983 C   0  0  0  0  0  0  0  0  0  0  0  0
   -2.9539    3.9999   -0.2514 H   0  0  0  0  0  0  0  0  0  0  0  0
   -1.9867    3.8519   -1.7448 H   0  0  0  0  0  0  0  0  0  0  0  0
   -2.4308    2.3955   -0.8523 H   0  0  0  0  0  0  0  0  0  0  0  0
    1.2041    3.1284    0.1609 H   0  0  0  0  0  0  0  0  0  0  0  0
    0.1382    1.7152    0.1105 H   0  0  0  0  0  0  0  0  0  0  0  0
   -0.3019    1.9840   -2.2599 H   0  0  0  0  0  0  0  0  0  0  0  0
    1.5662    4.2115   -4.2362 H   0  0  0  0  0  0  0  0  0  0  0  0
    2.3046    4.9308   -2.7953 H   0  0  0  0  0  0  0  0  0  0  0  0
    3.5518    2.6070   -3.3557 H   0  0  0  0  0  0  0  0  0  0  0  0
    2.1478    0.9447   -1.8720 H   0  0  0  0  0  0  0  0  0  0  0  0
  1 10  1  0  0  0  0
  1  2  1  0  0  0  0
  2  3  2  0  0  0  0
  4  2  1  0  0  0  0
  4 14  1  0  0  0  0
  4 13  1  0  0  0  0
  5 15  1  6  0  0  0
  5  4  1  0  0  0  0
  6  5  1  0  0  0  0
  7  8  1  0  0  0  0
  7 17  1  0  0  0  0
  7  6  1  0  0  0  0
  8  9  2  0  0  0  0
  9 19  1  0  0  0  0
  9  5  1  0  0  0  0
 11  1  1  0  0  0  0
 12  1  1  0  0  0  0
 16  7  1  0  0  0  0
 18  8  1  0  0  0  0
M TOR 0 0 1 3 4
M TOR 1 0 1 3 12
M TOR 2 0 1 3 13
M TOR 3 1 3 4 5
M TOR 4 1 3 4 8
M TOR 5 1 3 4 14
M TOR 6 2 1 0 9
M TOR 7 2 1 0 10
M TOR 8 2 1 0 11
M TOR 9 2 1 3 4
M TOR 10 2 1 3 12
M TOR 11 2 1 3 13
M TOR 12 3 1 0 9
M TOR 13 3 1 0 10
M TOR 14 3 1 0 11
M TOR 15 3 4 5 6
M TOR 16 3 4 8 7
M TOR 17 3 4 8 18
M TOR 18 4 5 6 7
M TOR 19 4 5 6 15
M TOR 20 4 5 6 16
M TOR 21 4 8 7 6
M TOR 22 4 8 7 17
M TOR 23 5 4 3 12
M TOR 24 5 4 3 13
M TOR 25 5 4 8 7
M TOR 26 5 4 8 18
M TOR 27 5 6 7 8
M TOR 28 5 6 7 17
M TOR 29 6 5 4 8
M TOR 30 6 5 4 14
M TOR 31 6 7 8 18
M TOR 32 7 8 4 14
M TOR 33 8 4 3 12
M TOR 34 8 4 3 13
M TOR 35 8 7 6 15
M TOR 36 8 7 6 16
M  END
$$$$
