gdb 1528	3.1934532	1.1846127	1.0370666	2.7947	77.78	-0.25806	-0.03765	0.22041	1215.8652	0.154034	-422.537972	-422.528856	-422.527912	-422.571465	34.062
 OpenBabel02181911403D

 19 20  0  0  1  0  0  0  0  0999 V2000
   -0.1377   -0.0244   -0.0141 C   0  0  0  0  0  0  0  0  0  0  0  0
    1.3858    0.0286    0.0363 C   0  0  0  0  0  0  0  0  0  0  0  0
    1.9542   -0.6708    1.2693 C   0  0  0  0  0  0  0  0  0  0  0  0
    2.0373    1.4490   -0.2003 C   0  0  0  0  0  0  0  0  0  0  0  0
    2.7283    0.8925   -1.4422 C   0  0  2  0  0  0  0  0  0  0  0  0
    1.7172    0.3869   -2.3338 O   0  0  0  0  0  0  0  0  0  0  0  0
    2.0951   -0.4474   -1.2573 C   0  0  2  0  0  0  0  0  0  0  0  0
    4.0565    1.1796   -2.0091 C   0  0  0  0  0  0  0  0  0  0  0  0
    4.8572    1.9259   -1.4999 O   0  0  0  0  0  0  0  0  0  0  0  0
   -0.5708    0.5172    0.8341 H   0  0  0  0  0  0  0  0  0  0  0  0
   -0.5097    0.4293   -0.9362 H   0  0  0  0  0  0  0  0  0  0  0  0
   -0.4990   -1.0580    0.0314 H   0  0  0  0  0  0  0  0  0  0  0  0
    1.6374   -1.7193    1.3067 H   0  0  0  0  0  0  0  0  0  0  0  0
    3.0494   -0.6502    1.2757 H   0  0  0  0  0  0  0  0  0  0  0  0
    1.6049   -0.1828    2.1851 H   0  0  0  0  0  0  0  0  0  0  0  0
    1.3504    2.2751   -0.3952 H   0  0  0  0  0  0  0  0  0  0  0  0
    2.7447    1.7308    0.5813 H   0  0  0  0  0  0  0  0  0  0  0  0
    2.4759   -1.4357   -1.4986 H   0  0  0  0  0  0  0  0  0  0  0  0
    4.2653    0.6263   -2.9506 H   0  0  0  0  0  0  0  0  0  0  0  0
  1 12  1  0  0  0  0
  1  2  1  0  0  0  0
  1 10  1  0  0  0  0
  2  3  1  0  0  0  0
  3 14  1  0  0  0  0
  3 13  1  0  0  0  0
  3 15  1  0  0  0  0
  4  2  1  0  0  0  0
  4 17  1  0  0  0  0
  5  8  1  6  0  0  0
  5  7  1  0  0  0  0
  5  4  1  0  0  0  0
  6  5  1  0  0  0  0
  6  7  1  0  0  0  0
  7 18  1  6  0  0  0
  7  2  1  0  0  0  0
  8  9  2  0  0  0  0
 11  1  1  0  0  0  0
 16  4  1  0  0  0  0
 19  8  1  0  0  0  0
M TOR 0 0 1 2 12
M TOR 1 0 1 2 13
M TOR 2 0 1 2 14
M TOR 3 0 1 3 4
M TOR 4 0 1 3 15
M TOR 5 0 1 3 16
M TOR 6 0 1 6 4
M TOR 7 0 1 6 5
M TOR 8 0 1 6 17
M TOR 9 1 3 4 5
M TOR 10 1 3 4 6
M TOR 11 1 3 4 7
M TOR 12 1 6 4 5
M TOR 13 1 6 4 7
M TOR 14 2 1 0 9
M TOR 15 2 1 0 10
M TOR 16 2 1 0 11
M TOR 17 2 1 3 4
M TOR 18 2 1 3 15
M TOR 19 2 1 3 16
M TOR 20 2 1 6 4
M TOR 21 2 1 6 5
M TOR 22 2 1 6 17
M TOR 23 3 1 0 9
M TOR 24 3 1 0 10
M TOR 25 3 1 0 11
M TOR 26 3 1 2 12
M TOR 27 3 1 2 13
M TOR 28 3 1 2 14
M TOR 29 3 1 6 5
M TOR 30 3 1 6 17
M TOR 31 3 4 5 6
M TOR 32 3 4 6 17
M TOR 33 3 4 7 8
M TOR 34 3 4 7 18
M TOR 35 4 5 6 17
M TOR 36 5 4 3 15
M TOR 37 5 4 3 16
M TOR 38 5 4 7 8
M TOR 39 5 4 7 18
M TOR 40 5 6 4 7
M TOR 41 6 1 0 9
M TOR 42 6 1 0 10
M TOR 43 6 1 0 11
M TOR 44 6 1 2 12
M TOR 45 6 1 2 13
M TOR 46 6 1 2 14
M TOR 47 6 1 3 15
M TOR 48 6 1 3 16
M TOR 49 6 4 3 15
M TOR 50 6 4 3 16
M TOR 51 6 4 7 8
M TOR 52 6 4 7 18
M TOR 53 7 4 3 15
M TOR 54 7 4 3 16
M TOR 55 7 4 6 17
M  END
$$$$
