gdb 3892	3.6787937	0.8919009	0.8188208	3.1958	78.35	-0.2556	-0.03717	0.21842999999999999	1362.1228	0.154273	-422.534999	-422.525839	-422.524895	-422.569763	33.324
 OpenBabel02181911413D

 19 20  0  0  1  0  0  0  0  0999 V2000
    2.5246   -2.1787   -0.2507 C   0  0  0  0  0  0  0  0  0  0  0  0
    2.0282   -1.1299    0.7323 C   0  0  1  0  0  0  0  0  0  0  0  0
    2.7062   -1.0753    2.1412 C   0  0  0  0  0  0  0  0  0  0  0  0
    2.8499    0.4379    1.9631 C   0  0  1  0  0  0  0  0  0  0  0  0
    2.4507    0.3555    0.4858 C   0  0  0  0  0  0  0  0  0  0  0  0
    2.2622    1.3603    2.8540 O   0  0  0  0  0  0  0  0  0  0  0  0
    3.6944    1.3969    2.7102 C   0  0  2  0  0  0  0  0  0  0  0  0
    4.2307    2.6003    2.0141 C   0  0  0  0  0  0  0  0  0  0  0  0
    5.3573    3.0067    2.1472 O   0  0  0  0  0  0  0  0  0  0  0  0
    2.2783   -3.1900    0.0904 H   0  0  0  0  0  0  0  0  0  0  0  0
    2.0734   -2.0410   -1.2393 H   0  0  0  0  0  0  0  0  0  0  0  0
    3.6129   -2.1224   -0.3699 H   0  0  0  0  0  0  0  0  0  0  0  0
    0.9417   -1.2007    0.8389 H   0  0  0  0  0  0  0  0  0  0  0  0
    2.1076   -1.3885    2.9994 H   0  0  0  0  0  0  0  0  0  0  0  0
    3.6698   -1.5939    2.1685 H   0  0  0  0  0  0  0  0  0  0  0  0
    1.6689    1.0514    0.1733 H   0  0  0  0  0  0  0  0  0  0  0  0
    3.3021    0.4457   -0.1962 H   0  0  0  0  0  0  0  0  0  0  0  0
    4.2714    1.0435    3.5635 H   0  0  0  0  0  0  0  0  0  0  0  0
    3.4913    3.0943    1.3453 H   0  0  0  0  0  0  0  0  0  0  0  0
  1 10  1  0  0  0  0
  1  2  1  0  0  0  0
  2 13  1  1  0  0  0
  2  3  1  0  0  0  0
  3 15  1  0  0  0  0
  3 14  1  0  0  0  0
  4  3  1  0  0  0  0
  4  7  1  0  0  0  0
  4  6  1  1  0  0  0
  5  2  1  0  0  0  0
  5  4  1  0  0  0  0
  7  6  1  0  0  0  0
  7 18  1  1  0  0  0
  8  9  2  0  0  0  0
  8  7  1  0  0  0  0
 11  1  1  0  0  0  0
 12  1  1  0  0  0  0
 16  5  1  0  0  0  0
 17  5  1  0  0  0  0
 19  8  1  0  0  0  0
M TOR 0 0 1 2 3
M TOR 1 0 1 2 13
M TOR 2 0 1 2 14
M TOR 3 0 1 4 3
M TOR 4 0 1 4 15
M TOR 5 0 1 4 16
M TOR 6 1 2 3 4
M TOR 7 1 2 3 5
M TOR 8 1 2 3 6
M TOR 9 1 4 3 5
M TOR 10 1 4 3 6
M TOR 11 2 1 0 9
M TOR 12 2 1 0 10
M TOR 13 2 1 0 11
M TOR 14 2 1 4 15
M TOR 15 2 1 4 16
M TOR 16 2 3 4 15
M TOR 17 2 3 4 16
M TOR 18 2 3 5 6
M TOR 19 2 3 6 7
M TOR 20 2 3 6 17
M TOR 21 3 2 1 12
M TOR 22 3 4 1 12
M TOR 23 3 5 6 7
M TOR 24 3 5 6 17
M TOR 25 3 6 7 8
M TOR 26 3 6 7 18
M TOR 27 4 1 0 9
M TOR 28 4 1 0 10
M TOR 29 4 1 0 11
M TOR 30 4 1 2 13
M TOR 31 4 1 2 14
M TOR 32 4 3 2 13
M TOR 33 4 3 2 14
M TOR 34 4 3 5 6
M TOR 35 4 3 6 7
M TOR 36 4 3 6 17
M TOR 37 5 3 2 13
M TOR 38 5 3 2 14
M TOR 39 5 3 4 15
M TOR 40 5 3 4 16
M TOR 41 5 6 7 8
M TOR 42 5 6 7 18
M TOR 43 6 3 2 13
M TOR 44 6 3 2 14
M TOR 45 6 3 4 15
M TOR 46 6 3 4 16
M TOR 47 8 7 6 17
M  END
$$$$
