
     RDKit          3D

 19 21  0  0  0  0  0  0  0  0999 V2000
    1.3058   -2.6082    0.8133 O   0  0  0  0  0  0  0  0  0  0  0  0
    0.1168   -2.3323    0.1101 C   0  0  0  0  0  0  0  0  0  0  0  0
   -0.3942   -3.4939   -0.6855 C   0  0  0  0  0  0  0  0  0  0  0  0
   -1.1314   -3.0518    0.5648 C   0  0  0  0  0  0  0  0  0  0  0  0
    0.0123   -0.9315   -0.4443 C   0  0  0  0  0  0  0  0  0  0  0  0
    1.3144   -0.4109   -1.1628 C   0  0  0  0  0  0  0  0  0  0  0  0
    1.4108    0.6893   -0.0985 C   0  0  0  0  0  0  0  0  0  0  0  0
    0.1897    1.4378   -0.1422 O   0  0  0  0  0  0  0  0  0  0  0  0
    0.2000    0.2060    0.5848 C   0  0  0  0  0  0  0  0  0  0  0  0
    1.2787   -2.1263    1.6471 H   0  0  0  0  0  0  0  0  0  0  0  0
   -0.8476   -3.3011   -1.6513 H   0  0  0  0  0  0  0  0  0  0  0  0
    0.1825   -4.4092   -0.6231 H   0  0  0  0  0  0  0  0  0  0  0  0
   -2.0906   -2.5570    0.4548 H   0  0  0  0  0  0  0  0  0  0  0  0
   -1.0400   -3.6847    1.4404 H   0  0  0  0  0  0  0  0  0  0  0  0
   -0.9114   -0.8274   -1.0203 H   0  0  0  0  0  0  0  0  0  0  0  0
    2.1214   -1.1417   -1.0888 H   0  0  0  0  0  0  0  0  0  0  0  0
    1.2089   -0.0585   -2.1911 H   0  0  0  0  0  0  0  0  0  0  0  0
    2.2869    1.1993    0.2854 H   0  0  0  0  0  0  0  0  0  0  0  0
   -0.1035    0.2467    1.6265 H   0  0  0  0  0  0  0  0  0  0  0  0
  1  2  1  0
  2  3  1  0
  3  4  1  0
  2  5  1  0
  5  6  1  0
  6  7  1  0
  7  8  1  0
  8  9  1  0
  4  2  1  0
  9  5  1  0
  9  7  1  0
  1 10  1  0
  3 11  1  0
  3 12  1  0
  4 13  1  0
  4 14  1  0
  5 15  1  0
  6 16  1  0
  6 17  1  0
  7 18  1  0
  9 19  1  0
M  END
$$$$
