gdb 1048	4.8465521	0.7250003	0.6595164	1.0923	80.86	-0.23865	0.06146	0.30011	1729.0276	0.155773	-422.529687	-422.519726	-422.518782	-422.568266	33.202
 OpenBabel02181911403D

 19 19  0  0  0  0  0  0  0  0999 V2000
    1.5796    0.1629   -0.0013 C   0  0  0  0  0  0  0  0  0  0  0  0
    0.1257    0.0886    0.0095 C   0  0  0  0  0  0  0  0  0  0  0  0
   -1.0762    0.0279    0.0101 C   0  0  0  0  0  0  0  0  0  0  0  0
   -2.5304   -0.0560    0.0236 C   0  0  0  0  0  0  0  0  0  0  0  0
   -3.0458   -1.4353    0.4343 C   0  0  0  0  0  0  0  0  0  0  0  0
   -4.4496   -1.3906    0.5319 O   0  0  0  0  0  0  0  0  0  0  0  0
   -4.8775   -2.7262    0.3180 C   0  0  0  0  0  0  0  0  0  0  0  0
   -3.8752   -3.2435   -0.7273 C   0  0  0  0  0  0  0  0  0  0  0  0
   -2.7342   -2.4096   -0.5477 O   0  0  0  0  0  0  0  0  0  0  0  0
    1.9853    0.2230    1.0147 H   0  0  0  0  0  0  0  0  0  0  0  0
    2.0193   -0.7179   -0.4822 H   0  0  0  0  0  0  0  0  0  0  0  0
    1.9279    1.0462   -0.5483 H   0  0  0  0  0  0  0  0  0  0  0  0
   -2.9513    0.6729    0.7269 H   0  0  0  0  0  0  0  0  0  0  0  0
   -2.9485    0.1688   -0.9644 H   0  0  0  0  0  0  0  0  0  0  0  0
   -2.6044   -1.7417    1.3999 H   0  0  0  0  0  0  0  0  0  0  0  0
   -4.8189   -3.3090    1.2497 H   0  0  0  0  0  0  0  0  0  0  0  0
   -5.9130   -2.7104   -0.0280 H   0  0  0  0  0  0  0  0  0  0  0  0
   -3.6061   -4.2939   -0.5691 H   0  0  0  0  0  0  0  0  0  0  0  0
   -4.2527   -3.1274   -1.7507 H   0  0  0  0  0  0  0  0  0  0  0  0
  1  2  1  0  0  0  0
  1 10  1  0  0  0  0
  2  3  3  0  0  0  0
  3  4  1  0  0  0  0
  4  5  1  0  0  0  0
  4 13  1  0  0  0  0
  5  6  1  0  0  0  0
  5 15  1  0  0  0  0
  7  6  1  0  0  0  0
  7 16  1  0  0  0  0
  8 18  1  0  0  0  0
  8  9  1  0  0  0  0
  8  7  1  0  0  0  0
  9  5  1  0  0  0  0
 11  1  1  0  0  0  0
 12  1  1  0  0  0  0
 14  4  1  0  0  0  0
 17  7  1  0  0  0  0
 19  8  1  0  0  0  0
M TOR 0 0 1 2 3
M TOR 1 1 2 3 4
M TOR 2 1 2 3 12
M TOR 3 1 2 3 13
M TOR 4 2 1 0 9
M TOR 5 2 1 0 10
M TOR 6 2 1 0 11
M TOR 7 2 3 4 5
M TOR 8 2 3 4 8
M TOR 9 2 3 4 14
M TOR 10 3 4 5 6
M TOR 11 3 4 8 7
M TOR 12 4 5 6 7
M TOR 13 4 5 6 15
M TOR 14 4 5 6 16
M TOR 15 4 8 7 6
M TOR 16 4 8 7 17
M TOR 17 4 8 7 18
M TOR 18 5 4 3 12
M TOR 19 5 4 3 13
M TOR 20 5 4 8 7
M TOR 21 5 6 7 8
M TOR 22 5 6 7 17
M TOR 23 5 6 7 18
M TOR 24 6 5 4 8
M TOR 25 6 5 4 14
M TOR 26 7 8 4 14
M TOR 27 8 4 3 12
M TOR 28 8 4 3 13
M TOR 29 8 7 6 15
M TOR 30 8 7 6 16
M  END
$$$$
