gdb 3244	2.4541365	2.1510426	1.6430865	2.6348	73.29	-0.22964	0.07095	0.30059	897.6622	0.160467	-422.552674	-422.545931	-422.544987	-422.583313	28.241
 OpenBabel02181911413D

 19 21  0  0  1  0  0  0  0  0999 V2000
    0.5592    0.6425    0.5431 O   0  0  0  0  0  0  0  0  0  0  0  0
   -0.6013   -0.0312    0.9901 C   0  0  2  0  0  0  0  0  0  0  0  0
   -1.7303    0.0415   -0.0506 C   0  0  1  0  0  0  0  0  0  0  0  0
   -2.8368   -0.7529    0.6958 C   0  0  0  0  0  0  0  0  0  0  0  0
   -2.8293    0.4652    1.6471 C   0  0  2  0  0  0  0  0  0  0  0  0
   -2.5086    1.3360    0.4100 C   0  0  1  0  0  0  0  0  0  0  0  0
   -1.7742    2.4729    0.7940 O   0  0  0  0  0  0  0  0  0  0  0  0
   -1.1750    2.1521    2.0599 C   0  0  0  0  0  0  0  0  0  0  0  0
   -1.3743    0.6370    2.1851 C   0  0  2  0  0  0  0  0  0  0  0  0
    1.2670    0.4762    1.1732 H   0  0  0  0  0  0  0  0  0  0  0  0
   -0.3581   -1.0785    1.2174 H   0  0  0  0  0  0  0  0  0  0  0  0
   -1.4565   -0.1589   -1.0856 H   0  0  0  0  0  0  0  0  0  0  0  0
   -3.7696   -0.8206    0.1311 H   0  0  0  0  0  0  0  0  0  0  0  0
   -2.5742   -1.7376    1.0913 H   0  0  0  0  0  0  0  0  0  0  0  0
   -3.6453    0.6936    2.3329 H   0  0  0  0  0  0  0  0  0  0  0  0
   -3.3356    1.6226   -0.2401 H   0  0  0  0  0  0  0  0  0  0  0  0
   -0.1217    2.4414    2.0339 H   0  0  0  0  0  0  0  0  0  0  0  0
   -1.6805    2.7035    2.8659 H   0  0  0  0  0  0  0  0  0  0  0  0
   -1.1575    0.2308    3.1747 H   0  0  0  0  0  0  0  0  0  0  0  0
  1  2  1  0  0  0  0
  1 10  1  0  0  0  0
  2 11  1  1  0  0  0
  2  9  1  0  0  0  0
  3 12  1  6  0  0  0
  3  6  1  0  0  0  0
  3  4  1  0  0  0  0
  3  2  1  0  0  0  0
  4 14  1  0  0  0  0
  4  5  1  0  0  0  0
  5  9  1  0  0  0  0
  5 15  1  1  0  0  0
  6 16  1  6  0  0  0
  6  7  1  0  0  0  0
  6  5  1  0  0  0  0
  7  8  1  0  0  0  0
  8  9  1  0  0  0  0
  8 18  1  0  0  0  0
  9 19  1  1  0  0  0
 13  4  1  0  0  0  0
 17  8  1  0  0  0  0
M TOR 0 0 1 2 3
M TOR 1 0 1 2 5
M TOR 2 0 1 2 11
M TOR 3 0 1 8 4
M TOR 4 0 1 8 7
M TOR 5 0 1 8 18
M TOR 6 1 2 3 4
M TOR 7 1 2 3 12
M TOR 8 1 2 3 13
M TOR 9 1 2 5 4
M TOR 10 1 2 5 6
M TOR 11 1 2 5 15
M TOR 12 1 8 4 3
M TOR 13 1 8 4 5
M TOR 14 1 8 4 14
M TOR 15 1 8 7 6
M TOR 16 1 8 7 16
M TOR 17 1 8 7 17
M TOR 18 2 1 0 9
M TOR 19 2 1 8 4
M TOR 20 2 1 8 7
M TOR 21 2 1 8 18
M TOR 22 2 3 4 5
M TOR 23 2 3 4 8
M TOR 24 2 3 4 14
M TOR 25 2 5 4 8
M TOR 26 2 5 4 14
M TOR 27 2 5 6 7
M TOR 28 3 2 1 8
M TOR 29 3 2 1 10
M TOR 30 3 2 5 6
M TOR 31 3 2 5 15
M TOR 32 3 4 5 6
M TOR 33 3 4 5 15
M TOR 34 3 4 8 7
M TOR 35 3 4 8 18
M TOR 36 4 3 2 11
M TOR 37 4 5 2 11
M TOR 38 4 5 6 7
M TOR 39 4 8 1 10
M TOR 40 4 8 7 6
M TOR 41 4 8 7 16
M TOR 42 4 8 7 17
M TOR 43 5 2 1 8
M TOR 44 5 2 1 10
M TOR 45 5 2 3 12
M TOR 46 5 2 3 13
M TOR 47 5 4 3 12
M TOR 48 5 4 3 13
M TOR 49 5 4 8 7
M TOR 50 5 4 8 18
M TOR 51 5 6 7 8
M TOR 52 5 6 7 16
M TOR 53 5 6 7 17
M TOR 54 6 5 2 11
M TOR 55 6 5 4 8
M TOR 56 6 5 4 14
M TOR 57 6 7 8 18
M TOR 58 7 6 5 15
M TOR 59 7 8 1 10
M TOR 60 7 8 4 14
M TOR 61 8 1 0 9
M TOR 62 8 1 2 11
M TOR 63 8 4 3 12
M TOR 64 8 4 3 13
M TOR 65 8 4 5 15
M  END
$$$$
