
     RDKit          3D

 19 21  0  0  0  0  0  0  0  0999 V2000
    0.3987    0.8450   -1.2994 C   0  0  0  0  0  0  0  0  0  0  0  0
    0.0161   -0.2572   -0.2927 C   0  0  0  0  0  0  0  0  0  0  0  0
    0.9668    0.4839    0.6529 C   0  0  0  0  0  0  0  0  0  0  0  0
    1.2349    1.5066   -0.3216 O   0  0  0  0  0  0  0  0  0  0  0  0
    0.6760    0.9772    2.1047 C   0  0  0  0  0  0  0  0  0  0  0  0
    2.2254    1.1423    2.2286 C   0  0  0  0  0  0  0  0  0  0  0  0
    2.1938   -0.1411    1.3666 C   0  0  0  0  0  0  0  0  0  0  0  0
    1.5828   -1.1243    2.2152 O   0  0  0  0  0  0  0  0  0  0  0  0
    0.4810   -0.3755    2.7928 C   0  0  0  0  0  0  0  0  0  0  0  0
    0.9786    0.5135   -2.1685 H   0  0  0  0  0  0  0  0  0  0  0  0
   -0.4157    1.4945   -1.6387 H   0  0  0  0  0  0  0  0  0  0  0  0
   -1.0320   -0.2604    0.0151 H   0  0  0  0  0  0  0  0  0  0  0  0
    0.3174   -1.2743   -0.5475 H   0  0  0  0  0  0  0  0  0  0  0  0
   -0.0327    1.7766    2.3164 H   0  0  0  0  0  0  0  0  0  0  0  0
    2.5946    2.0106    1.6837 H   0  0  0  0  0  0  0  0  0  0  0  0
    2.6755    1.0656    3.2209 H   0  0  0  0  0  0  0  0  0  0  0  0
    3.0511   -0.5681    0.8489 H   0  0  0  0  0  0  0  0  0  0  0  0
   -0.4699   -0.8627    2.5456 H   0  0  0  0  0  0  0  0  0  0  0  0
    0.5851   -0.3337    3.8835 H   0  0  0  0  0  0  0  0  0  0  0  0
  1  2  1  0
  2  3  1  0
  3  4  1  0
  3  5  1  0
  5  6  1  0
  6  7  1  0
  7  8  1  0
  8  9  1  0
  4  1  1  0
  9  5  1  0
  7  3  1  0
  1 10  1  0
  1 11  1  0
  2 12  1  0
  2 13  1  0
  5 14  1  0
  6 15  1  0
  6 16  1  0
  7 17  1  0
  9 18  1  0
  9 19  1  0
M  END
$$$$
