
     RDKit          3D

 19 20  0  0  0  0  0  0  0  0999 V2000
    2.1525    0.4273    1.1934 C   0  0  0  0  0  0  0  0  0  0  0  0
    1.7442    0.6418   -0.2712 C   0  0  0  0  0  0  0  0  0  0  0  0
    2.0466   -0.5473   -1.1408 C   0  0  0  0  0  0  0  0  0  0  0  0
    1.1425   -1.7962   -1.1803 C   0  0  0  0  0  0  0  0  0  0  0  0
    1.4247   -1.1348   -2.4714 C   0  0  0  0  0  0  0  0  0  0  0  0
    0.4909   -0.5999   -3.3280 O   0  0  0  0  0  0  0  0  0  0  0  0
    2.8050   -1.5305   -2.9920 C   0  0  0  0  0  0  0  0  0  0  0  0
    3.3857   -0.9157   -1.6896 C   0  0  0  0  0  0  0  0  0  0  0  0
    4.5071   -0.6469   -1.3516 O   0  0  0  0  0  0  0  0  0  0  0  0
    1.6118   -0.4162    1.6356 H   0  0  0  0  0  0  0  0  0  0  0  0
    3.2231    0.2148    1.2613 H   0  0  0  0  0  0  0  0  0  0  0  0
    1.9407    1.3173    1.7937 H   0  0  0  0  0  0  0  0  0  0  0  0
    0.6728    0.8731   -0.3354 H   0  0  0  0  0  0  0  0  0  0  0  0
    2.2729    1.5151   -0.6711 H   0  0  0  0  0  0  0  0  0  0  0  0
    1.5212   -2.7884   -0.9435 H   0  0  0  0  0  0  0  0  0  0  0  0
    0.1609   -1.5922   -0.7551 H   0  0  0  0  0  0  0  0  0  0  0  0
   -0.3889   -0.7361   -2.9638 H   0  0  0  0  0  0  0  0  0  0  0  0
    2.9860   -2.5893   -3.2024 H   0  0  0  0  0  0  0  0  0  0  0  0
    3.1139   -0.9290   -3.8521 H   0  0  0  0  0  0  0  0  0  0  0  0
  1  2  1  0
  2  3  1  0
  3  4  1  0
  4  5  1  0
  5  6  1  0
  5  7  1  0
  7  8  1  0
  8  9  2  0
  5  3  1  0
  8  3  1  0
  1 10  1  0
  1 11  1  0
  1 12  1  0
  2 13  1  0
  2 14  1  0
  4 15  1  0
  4 16  1  0
  6 17  1  0
  7 18  1  0
  7 19  1  0
M  END
$$$$
