
     RDKit          3D

 19 18  0  0  0  0  0  0  0  0999 V2000
   -5.2634   -0.2669   -2.5602 C   0  0  0  0  0  0  0  0  0  0  0  0
   -4.5723   -0.1732   -1.3266 O   0  0  0  0  0  0  0  0  0  0  0  0
   -3.1692   -0.3274   -1.4391 C   0  0  0  0  0  0  0  0  0  0  0  0
   -2.5681    0.1846   -0.1190 C   0  0  0  0  0  0  0  0  0  0  0  0
   -1.1145    0.0903   -0.0858 C   0  0  0  0  0  0  0  0  0  0  0  0
    0.0854   -0.0057   -0.0874 C   0  0  0  0  0  0  0  0  0  0  0  0
    1.5365   -0.1203   -0.0844 C   0  0  0  0  0  0  0  0  0  0  0  0
   -2.8534   -1.8097   -1.6434 C   0  0  0  0  0  0  0  0  0  0  0  0
   -2.2649   -2.2682   -2.5856 O   0  0  0  0  0  0  0  0  0  0  0  0
   -5.1304   -1.2461   -3.0404 H   0  0  0  0  0  0  0  0  0  0  0  0
   -6.3230   -0.1212   -2.3399 H   0  0  0  0  0  0  0  0  0  0  0  0
   -4.9313    0.5104   -3.2635 H   0  0  0  0  0  0  0  0  0  0  0  0
   -2.7661    0.2353   -2.2926 H   0  0  0  0  0  0  0  0  0  0  0  0
   -2.9026    1.2198    0.0150 H   0  0  0  0  0  0  0  0  0  0  0  0
   -3.0141   -0.3906    0.7031 H   0  0  0  0  0  0  0  0  0  0  0  0
    1.8958   -0.6035    0.8308 H   0  0  0  0  0  0  0  0  0  0  0  0
    1.8860   -0.7171   -0.9339 H   0  0  0  0  0  0  0  0  0  0  0  0
    2.0141    0.8633   -0.1504 H   0  0  0  0  0  0  0  0  0  0  0  0
   -3.2699   -2.4558   -0.8352 H   0  0  0  0  0  0  0  0  0  0  0  0
  1  2  1  0
  2  3  1  0
  3  4  1  0
  4  5  1  0
  5  6  3  0
  6  7  1  0
  3  8  1  0
  8  9  2  0
  1 10  1  0
  1 11  1  0
  1 12  1  0
  3 13  1  0
  4 14  1  0
  4 15  1  0
  7 16  1  0
  7 17  1  0
  7 18  1  0
  8 19  1  0
M  END
$$$$
