
     RDKit          3D

 19 21  0  0  0  0  0  0  0  0999 V2000
   -0.5546   -0.2909    0.3360 O   0  0  0  0  0  0  0  0  0  0  0  0
   -1.9468   -0.3386    0.3016 C   0  0  0  0  0  0  0  0  0  0  0  0
   -2.7532   -0.7513    1.5047 C   0  0  0  0  0  0  0  0  0  0  0  0
   -2.6768   -1.6602    0.2934 C   0  0  0  0  0  0  0  0  0  0  0  0
   -3.7226   -1.4435   -0.8014 C   0  0  0  0  0  0  0  0  0  0  0  0
   -2.9962   -1.4974   -2.1681 C   0  0  0  0  0  0  0  0  0  0  0  0
   -2.2285   -0.1367   -2.1562 C   0  0  0  0  0  0  0  0  0  0  0  0
   -2.6848    0.4448   -0.7960 C   0  0  0  0  0  0  0  0  0  0  0  0
   -4.0271   -0.0421   -0.6759 O   0  0  0  0  0  0  0  0  0  0  0  0
   -0.2966    0.5028    0.8174 H   0  0  0  0  0  0  0  0  0  0  0  0
   -2.1662   -1.0758    2.3570 H   0  0  0  0  0  0  0  0  0  0  0  0
   -3.6819   -0.2424    1.7353 H   0  0  0  0  0  0  0  0  0  0  0  0
   -2.1364   -2.5970    0.3542 H   0  0  0  0  0  0  0  0  0  0  0  0
   -4.6449   -2.0203   -0.7251 H   0  0  0  0  0  0  0  0  0  0  0  0
   -2.3314   -2.3610   -2.2506 H   0  0  0  0  0  0  0  0  0  0  0  0
   -3.7182   -1.5435   -2.9867 H   0  0  0  0  0  0  0  0  0  0  0  0
   -1.1442   -0.2545   -2.1978 H   0  0  0  0  0  0  0  0  0  0  0  0
   -2.5415    0.5084   -2.9799 H   0  0  0  0  0  0  0  0  0  0  0  0
   -2.6796    1.5330   -0.7091 H   0  0  0  0  0  0  0  0  0  0  0  0
  1  2  1  0
  2  3  1  0
  3  4  1  0
  4  5  1  0
  5  6  1  0
  6  7  1  0
  7  8  1  0
  8  9  1  0
  4  2  1  0
  9  5  1  0
  8  2  1  0
  1 10  1  0
  3 11  1  0
  3 12  1  0
  4 13  1  0
  5 14  1  0
  6 15  1  0
  6 16  1  0
  7 17  1  0
  7 18  1  0
  8 19  1  0
M  END
$$$$
