gdb 2427	2.5123235	2.042116	1.6237154	2.521	73.11	-0.24505	0.07881	0.32386	922.2601	0.158744	-422.567902	-422.560541	-422.559597	-422.599458	29.339
 OpenBabel02181911413D

 19 21  0  0  1  0  0  0  0  0999 V2000
    0.0383    0.1810   -0.0623 C   0  0  0  0  0  0  0  0  0  0  0  0
    1.5044   -0.1177    0.1665 C   0  0  1  0  0  0  0  0  0  0  0  0
    2.1460    1.0759    0.6005 O   0  0  0  0  0  0  0  0  0  0  0  0
    3.5395    1.0092    0.3048 C   0  0  0  0  0  0  0  0  0  0  0  0
    3.7046   -0.0831   -0.7430 C   0  0  1  0  0  0  0  0  0  0  0  0
    3.3549   -1.5151   -0.3747 C   0  0  1  0  0  0  0  0  0  0  0  0
    2.8504   -1.8128    1.0307 C   0  0  0  0  0  0  0  0  0  0  0  0
    1.6092   -1.1240    1.1671 O   0  0  0  0  0  0  0  0  0  0  0  0
    2.3349   -0.6276   -1.0266 C   0  0  1  0  0  0  0  0  0  0  0  0
   -0.4113    0.5280    0.8707 H   0  0  0  0  0  0  0  0  0  0  0  0
   -0.0741    0.9620   -0.8175 H   0  0  0  0  0  0  0  0  0  0  0  0
   -0.4839   -0.7210   -0.3888 H   0  0  0  0  0  0  0  0  0  0  0  0
    3.8564    1.9829   -0.0855 H   0  0  0  0  0  0  0  0  0  0  0  0
    4.1141    0.8091    1.2204 H   0  0  0  0  0  0  0  0  0  0  0  0
    4.4257    0.0680   -1.5379 H   0  0  0  0  0  0  0  0  0  0  0  0
    3.8454   -2.3085   -0.9266 H   0  0  0  0  0  0  0  0  0  0  0  0
    2.6670   -2.8847    1.1663 H   0  0  0  0  0  0  0  0  0  0  0  0
    3.5535   -1.4892    1.8113 H   0  0  0  0  0  0  0  0  0  0  0  0
    1.9001   -0.7734   -2.0063 H   0  0  0  0  0  0  0  0  0  0  0  0
  1 10  1  0  0  0  0
  2  1  1  6  0  0  0
  2  3  1  0  0  0  0
  2  8  1  0  0  0  0
  4  3  1  0  0  0  0
  4 14  1  0  0  0  0
  5 15  1  6  0  0  0
  5  6  1  0  0  0  0
  5  4  1  0  0  0  0
  6 16  1  6  0  0  0
  6  7  1  0  0  0  0
  7 17  1  0  0  0  0
  7  8  1  0  0  0  0
  7 18  1  0  0  0  0
  9 19  1  6  0  0  0
  9  5  1  0  0  0  0
  9  6  1  0  0  0  0
  9  2  1  0  0  0  0
 11  1  1  0  0  0  0
 12  1  1  0  0  0  0
 13  4  1  0  0  0  0
M TOR 0 0 1 2 3
M TOR 1 0 1 7 6
M TOR 2 0 1 8 4
M TOR 3 0 1 8 5
M TOR 4 0 1 8 18
M TOR 5 1 2 3 4
M TOR 6 1 2 3 12
M TOR 7 1 2 3 13
M TOR 8 1 7 6 5
M TOR 9 1 7 6 16
M TOR 10 1 7 6 17
M TOR 11 1 8 4 3
M TOR 12 1 8 4 5
M TOR 13 1 8 4 14
M TOR 14 1 8 5 6
M TOR 15 1 8 5 15
M TOR 16 2 1 0 9
M TOR 17 2 1 0 10
M TOR 18 2 1 0 11
M TOR 19 2 1 7 6
M TOR 20 2 1 8 4
M TOR 21 2 1 8 5
M TOR 22 2 1 8 18
M TOR 23 2 3 4 5
M TOR 24 2 3 4 8
M TOR 25 2 3 4 14
M TOR 26 3 2 1 7
M TOR 27 3 2 1 8
M TOR 28 3 4 5 6
M TOR 29 3 4 5 8
M TOR 30 3 4 5 15
M TOR 31 3 4 8 18
M TOR 32 4 5 6 7
M TOR 33 4 5 6 16
M TOR 34 4 5 6 17
M TOR 35 4 5 8 18
M TOR 36 4 8 1 7
M TOR 37 4 8 5 6
M TOR 38 4 8 5 15
M TOR 39 5 4 3 12
M TOR 40 5 4 3 13
M TOR 41 5 8 1 7
M TOR 42 5 8 4 14
M TOR 43 6 5 4 14
M TOR 44 6 5 8 18
M TOR 45 6 7 1 8
M TOR 46 7 1 0 9
M TOR 47 7 1 0 10
M TOR 48 7 1 0 11
M TOR 49 7 1 8 18
M TOR 50 7 6 5 8
M TOR 51 7 6 5 15
M TOR 52 8 1 0 9
M TOR 53 8 1 0 10
M TOR 54 8 1 0 11
M TOR 55 8 4 3 12
M TOR 56 8 4 3 13
M TOR 57 8 5 6 16
M TOR 58 8 5 6 17
M  END
$$$$
