gdb 1268	3.0361906	1.2727475	1.2285093	2.4568	74.41	-0.2267	0.064	0.2907	1118.8712	0.155075	-422.479456	-422.470835	-422.469891	-422.51258	33.181
 OpenBabel02181911403D

 19 21  0  0  1  0  0  0  0  0999 V2000
   -2.4104   -3.8325    0.0075 C   0  0  0  0  0  0  0  0  0  0  0  0
   -1.8390   -2.4122    0.0668 C   0  0  1  0  0  0  0  0  0  0  0  0
   -1.3269   -2.0073   -1.2050 O   0  0  0  0  0  0  0  0  0  0  0  0
   -2.8766   -1.4039    0.4536 C   0  0  1  0  0  0  0  0  0  0  0  0
   -3.2161   -1.0180    1.8683 C   0  0  0  0  0  0  0  0  0  0  0  0
   -2.7099    0.0382    0.9198 C   0  0  2  0  0  0  0  0  0  0  0  0
   -3.8163    0.4627   -0.0955 C   0  0  2  0  0  0  0  0  0  0  0  0
   -5.0320   -0.2490    0.1887 O   0  0  0  0  0  0  0  0  0  0  0  0
   -3.9880   -0.9117   -0.5410 C   0  0  2  0  0  0  0  0  0  0  0  0
   -2.7904   -4.1385    0.9868 H   0  0  0  0  0  0  0  0  0  0  0  0
   -3.2300   -3.8885   -0.7157 H   0  0  0  0  0  0  0  0  0  0  0  0
   -1.6391   -4.5517   -0.2929 H   0  0  0  0  0  0  0  0  0  0  0  0
   -1.0351   -2.3858    0.8220 H   0  0  0  0  0  0  0  0  0  0  0  0
   -0.7668   -2.7157   -1.5383 H   0  0  0  0  0  0  0  0  0  0  0  0
   -4.2465   -1.0057    2.1998 H   0  0  0  0  0  0  0  0  0  0  0  0
   -2.4918   -1.3384    2.6114 H   0  0  0  0  0  0  0  0  0  0  0  0
   -1.7899    0.5863    1.0723 H   0  0  0  0  0  0  0  0  0  0  0  0
   -3.8969    1.4065   -0.6200 H   0  0  0  0  0  0  0  0  0  0  0  0
   -4.2279   -1.3338   -1.5084 H   0  0  0  0  0  0  0  0  0  0  0  0
  1  2  1  0  0  0  0
  1 10  1  0  0  0  0
  2 13  1  1  0  0  0
  3  2  1  0  0  0  0
  4  2  1  6  0  0  0
  4  6  1  0  0  0  0
  4  5  1  0  0  0  0
  5 15  1  0  0  0  0
  5 16  1  0  0  0  0
  6 17  1  1  0  0  0
  6  5  1  0  0  0  0
  7 18  1  6  0  0  0
  7  8  1  0  0  0  0
  7  6  1  0  0  0  0
  9 19  1  6  0  0  0
  9  7  1  0  0  0  0
  9  8  1  0  0  0  0
  9  4  1  0  0  0  0
 11  1  1  0  0  0  0
 12  1  1  0  0  0  0
 14  3  1  0  0  0  0
M TOR 0 0 1 2 13
M TOR 1 0 1 3 4
M TOR 2 0 1 3 5
M TOR 3 0 1 3 8
M TOR 4 1 3 4 5
M TOR 5 1 3 4 14
M TOR 6 1 3 4 15
M TOR 7 1 3 5 6
M TOR 8 1 3 5 16
M TOR 9 1 3 8 6
M TOR 10 1 3 8 7
M TOR 11 1 3 8 18
M TOR 12 2 1 0 9
M TOR 13 2 1 0 10
M TOR 14 2 1 0 11
M TOR 15 2 1 3 4
M TOR 16 2 1 3 5
M TOR 17 2 1 3 8
M TOR 18 3 1 0 9
M TOR 19 3 1 0 10
M TOR 20 3 1 0 11
M TOR 21 3 1 2 13
M TOR 22 3 4 5 6
M TOR 23 3 4 5 16
M TOR 24 3 5 4 14
M TOR 25 3 5 4 15
M TOR 26 3 5 6 7
M TOR 27 3 5 6 8
M TOR 28 3 5 6 17
M TOR 29 3 8 6 7
M TOR 30 3 8 6 17
M TOR 31 4 3 1 12
M TOR 32 4 3 8 6
M TOR 33 4 3 8 7
M TOR 34 4 3 8 18
M TOR 35 4 5 3 8
M TOR 36 4 5 6 7
M TOR 37 4 5 6 8
M TOR 38 4 5 6 17
M TOR 39 5 3 1 12
M TOR 40 5 3 8 7
M TOR 41 5 3 8 18
M TOR 42 5 6 7 8
M TOR 43 5 6 8 18
M TOR 44 6 5 4 14
M TOR 45 6 5 4 15
M TOR 46 6 7 8 18
M TOR 47 7 6 5 16
M TOR 48 7 8 6 17
M TOR 49 8 3 1 12
M TOR 50 8 3 4 14
M TOR 51 8 3 4 15
M TOR 52 8 3 5 16
M TOR 53 8 6 5 16
M  END
$$$$
