
     RDKit          3D

 19 20  0  0  0  0  0  0  0  0999 V2000
   -1.7075   -0.5490   -2.4309 C   0  0  0  0  0  0  0  0  0  0  0  0
   -2.1221   -0.7859   -0.9937 C   0  0  0  0  0  0  0  0  0  0  0  0
   -3.1477   -1.7451   -0.8822 O   0  0  0  0  0  0  0  0  0  0  0  0
   -2.1518    0.2530    0.0823 C   0  0  0  0  0  0  0  0  0  0  0  0
   -1.0060    1.2596   -0.0650 C   0  0  0  0  0  0  0  0  0  0  0  0
   -0.0348    0.0541    0.0391 C   0  0  0  0  0  0  0  0  0  0  0  0
    1.1534   -0.0253    0.1848 O   0  0  0  0  0  0  0  0  0  0  0  0
   -1.1424   -0.9527    0.1685 C   0  0  0  0  0  0  0  0  0  0  0  0
   -1.0736   -2.1906    1.0161 C   0  0  0  0  0  0  0  0  0  0  0  0
   -1.4214   -1.4993   -2.8909 H   0  0  0  0  0  0  0  0  0  0  0  0
   -2.5431   -0.1318   -3.0071 H   0  0  0  0  0  0  0  0  0  0  0  0
   -0.8650    0.1399   -2.5186 H   0  0  0  0  0  0  0  0  0  0  0  0
   -3.9355   -1.3780   -1.2984 H   0  0  0  0  0  0  0  0  0  0  0  0
   -3.0338    0.3888    0.6956 H   0  0  0  0  0  0  0  0  0  0  0  0
   -0.9736    1.8818   -0.9636 H   0  0  0  0  0  0  0  0  0  0  0  0
   -0.8806    1.9014    0.8127 H   0  0  0  0  0  0  0  0  0  0  0  0
   -0.3188   -2.8776    0.6184 H   0  0  0  0  0  0  0  0  0  0  0  0
   -0.7864   -1.9471    2.0439 H   0  0  0  0  0  0  0  0  0  0  0  0
   -2.0341   -2.7074    1.0275 H   0  0  0  0  0  0  0  0  0  0  0  0
  1  2  1  0
  2  3  1  0
  2  4  1  0
  4  5  1  0
  5  6  1  0
  6  7  2  0
  6  8  1  0
  8  9  1  0
  8  2  1  0
  8  4  1  0
  1 10  1  0
  1 11  1  0
  1 12  1  0
  3 13  1  0
  4 14  1  0
  5 15  1  0
  5 16  1  0
  9 17  1  0
  9 18  1  0
  9 19  1  0
M  END
$$$$
