gdb 601	2.2103591	2.0527135	1.7742597	0.6276	75.09	-0.23822	0.01443	0.25265	913.8828	0.160196	-422.558023	-422.550865	-422.549921	-422.589332	28.626
 OpenBabel02181911403D

 19 20  0  0  1  0  0  0  0  0999 V2000
   -0.4425   -0.6592   -0.4159 C   0  0  0  0  0  0  0  0  0  0  0  0
   -1.5657    0.2136   -0.3923 O   0  0  0  0  0  0  0  0  0  0  0  0
   -1.3896    1.3455    0.4664 C   0  0  1  0  0  0  0  0  0  0  0  0
   -0.6478    0.9142    1.7348 C   0  0  0  0  0  0  0  0  0  0  0  0
    0.6647    0.4450    1.4455 O   0  0  0  0  0  0  0  0  0  0  0  0
    0.8376   -0.0043    0.1014 C   0  0  2  0  0  0  0  0  0  0  0  0
    1.3717    1.1410   -0.7795 C   0  0  0  0  0  0  0  0  0  0  0  0
    0.5127    2.3757   -0.8052 C   0  0  0  0  0  0  0  0  0  0  0  0
   -0.6918    2.4879   -0.2500 C   0  0  0  0  0  0  0  0  0  0  0  0
   -0.6507   -1.5454    0.2029 H   0  0  0  0  0  0  0  0  0  0  0  0
   -0.3024   -0.9995   -1.4490 H   0  0  0  0  0  0  0  0  0  0  0  0
   -2.4015    1.6555    0.7462 H   0  0  0  0  0  0  0  0  0  0  0  0
   -0.5494    1.7559    2.4289 H   0  0  0  0  0  0  0  0  0  0  0  0
   -1.2321    0.1249    2.2324 H   0  0  0  0  0  0  0  0  0  0  0  0
    1.6080   -0.7840    0.1434 H   0  0  0  0  0  0  0  0  0  0  0  0
    2.3674    1.4157   -0.4060 H   0  0  0  0  0  0  0  0  0  0  0  0
    1.5332    0.7673   -1.8020 H   0  0  0  0  0  0  0  0  0  0  0  0
    0.9400    3.2339   -1.3200 H   0  0  0  0  0  0  0  0  0  0  0  0
   -1.2286    3.4306   -0.3096 H   0  0  0  0  0  0  0  0  0  0  0  0
  1  2  1  0  0  0  0
  1  6  1  0  0  0  0
  1 10  1  0  0  0  0
  2  3  1  0  0  0  0
  3 12  1  1  0  0  0
  3  4  1  0  0  0  0
  4 14  1  0  0  0  0
  4 13  1  0  0  0  0
  5  4  1  0  0  0  0
  6 15  1  1  0  0  0
  6  5  1  0  0  0  0
  7 16  1  0  0  0  0
  7  6  1  0  0  0  0
  8  7  1  0  0  0  0
  8  9  2  0  0  0  0
  9  3  1  0  0  0  0
 11  1  1  0  0  0  0
 17  7  1  0  0  0  0
 18  8  1  0  0  0  0
 19  9  1  0  0  0  0
M TOR 0 0 1 2 3
M TOR 1 0 1 2 8
M TOR 2 0 1 2 11
M TOR 3 0 5 4 3
M TOR 4 0 5 6 7
M TOR 5 0 5 6 15
M TOR 6 0 5 6 16
M TOR 7 1 0 5 4
M TOR 8 1 0 5 6
M TOR 9 1 0 5 14
M TOR 10 1 2 3 4
M TOR 11 1 2 3 12
M TOR 12 1 2 3 13
M TOR 13 1 2 8 7
M TOR 14 1 2 8 18
M TOR 15 2 1 0 5
M TOR 16 2 1 0 9
M TOR 17 2 1 0 10
M TOR 18 2 3 4 5
M TOR 19 2 8 7 6
M TOR 20 2 8 7 17
M TOR 21 3 2 8 7
M TOR 22 3 2 8 18
M TOR 23 3 4 5 6
M TOR 24 3 4 5 14
M TOR 25 4 3 2 8
M TOR 26 4 3 2 11
M TOR 27 4 5 0 9
M TOR 28 4 5 0 10
M TOR 29 4 5 6 7
M TOR 30 4 5 6 15
M TOR 31 4 5 6 16
M TOR 32 5 4 3 12
M TOR 33 5 4 3 13
M TOR 34 5 6 7 8
M TOR 35 5 6 7 17
M TOR 36 6 5 0 9
M TOR 37 6 5 0 10
M TOR 38 6 7 8 18
M TOR 39 7 6 5 14
M TOR 40 7 8 2 11
M TOR 41 8 2 3 12
M TOR 42 8 2 3 13
M TOR 43 8 7 6 15
M TOR 44 8 7 6 16
M  END
$$$$
