gdb 1409	3.505551	1.4548506	1.2952583	1.2509	75.07	-0.24534	0.07869	0.32403	1030.3057	0.157169	-422.508828	-422.501131	-422.500187	-422.540349	31.294
 OpenBabel02181911403D

 19 21  0  0  1  0  0  0  0  0999 V2000
   -0.0935   -0.3234    0.1165 C   0  0  0  0  0  0  0  0  0  0  0  0
    1.2218    0.4109    0.2460 C   0  0  2  0  0  0  0  0  0  0  0  0
    2.0643   -0.1956    1.2078 O   0  0  0  0  0  0  0  0  0  0  0  0
    1.4596    1.9145    0.1803 C   0  0  1  0  0  0  0  0  0  0  0  0
    2.0924    0.9682   -0.8494 C   0  0  2  0  0  0  0  0  0  0  0  0
    1.4694    1.5882   -2.1148 C   0  0  2  0  0  0  0  0  0  0  0  0
    1.7337    3.1061   -1.9016 C   0  0  0  0  0  0  0  0  0  0  0  0
    0.6727    2.8001   -0.8064 C   0  0  1  0  0  0  0  0  0  0  0  0
    0.0815    1.8452   -1.7408 O   0  0  0  0  0  0  0  0  0  0  0  0
   -0.6300   -0.2898    1.0746 H   0  0  0  0  0  0  0  0  0  0  0  0
   -0.7307    0.1079   -0.6503 H   0  0  0  0  0  0  0  0  0  0  0  0
    0.1026   -1.3755   -0.1160 H   0  0  0  0  0  0  0  0  0  0  0  0
    1.5741   -0.2279    2.0369 H   0  0  0  0  0  0  0  0  0  0  0  0
    2.0386    2.3745    0.9723 H   0  0  0  0  0  0  0  0  0  0  0  0
    3.1456    0.7145   -0.8394 H   0  0  0  0  0  0  0  0  0  0  0  0
    1.5843    1.0834   -3.0737 H   0  0  0  0  0  0  0  0  0  0  0  0
    2.7310    3.4340   -1.5976 H   0  0  0  0  0  0  0  0  0  0  0  0
    1.3289    3.7137   -2.7129 H   0  0  0  0  0  0  0  0  0  0  0  0
   -0.0310    3.5394   -0.4243 H   0  0  0  0  0  0  0  0  0  0  0  0
  1  2  1  0  0  0  0
  1 10  1  0  0  0  0
  2  3  1  1  0  0  0
  3 13  1  0  0  0  0
  4  2  1  0  0  0  0
  4 14  1  1  0  0  0
  5 15  1  1  0  0  0
  5  4  1  0  0  0  0
  5  2  1  0  0  0  0
  6 16  1  6  0  0  0
  6  7  1  0  0  0  0
  6  9  1  0  0  0  0
  6  5  1  0  0  0  0
  7 17  1  0  0  0  0
  7  8  1  0  0  0  0
  8 19  1  1  0  0  0
  8  4  1  0  0  0  0
  9  8  1  0  0  0  0
 11  1  1  0  0  0  0
 12  1  1  0  0  0  0
 18  7  1  0  0  0  0
M TOR 0 0 1 2 12
M TOR 1 0 1 3 4
M TOR 2 0 1 3 7
M TOR 3 0 1 3 13
M TOR 4 0 1 4 5
M TOR 5 0 1 4 14
M TOR 6 1 3 4 5
M TOR 7 1 3 4 14
M TOR 8 1 3 7 6
M TOR 9 1 3 7 8
M TOR 10 1 3 7 18
M TOR 11 1 4 3 7
M TOR 12 1 4 3 13
M TOR 13 1 4 5 6
M TOR 14 1 4 5 8
M TOR 15 1 4 5 15
M TOR 16 2 1 0 9
M TOR 17 2 1 0 10
M TOR 18 2 1 0 11
M TOR 19 2 1 3 4
M TOR 20 2 1 3 7
M TOR 21 2 1 3 13
M TOR 22 2 1 4 5
M TOR 23 2 1 4 14
M TOR 24 3 1 0 9
M TOR 25 3 1 0 10
M TOR 26 3 1 0 11
M TOR 27 3 1 2 12
M TOR 28 3 4 5 6
M TOR 29 3 4 5 8
M TOR 30 3 4 5 15
M TOR 31 3 7 6 5
M TOR 32 3 7 6 16
M TOR 33 3 7 6 17
M TOR 34 3 7 8 5
M TOR 35 4 1 0 9
M TOR 36 4 1 0 10
M TOR 37 4 1 0 11
M TOR 38 4 1 2 12
M TOR 39 4 3 7 6
M TOR 40 4 3 7 8
M TOR 41 4 3 7 18
M TOR 42 4 5 6 7
M TOR 43 4 5 6 16
M TOR 44 4 5 6 17
M TOR 45 4 5 8 7
M TOR 46 5 4 3 7
M TOR 47 5 4 3 13
M TOR 48 5 6 7 8
M TOR 49 5 6 7 18
M TOR 50 5 8 7 18
M TOR 51 6 5 4 14
M TOR 52 6 7 3 13
M TOR 53 7 3 4 14
M TOR 54 7 6 5 15
M TOR 55 7 8 5 15
M TOR 56 8 5 4 14
M TOR 57 8 5 6 16
M TOR 58 8 5 6 17
M TOR 59 8 7 3 13
M TOR 60 8 7 6 16
M TOR 61 8 7 6 17
M  END
$$$$
