
     RDKit          3D

 19 20  0  0  0  0  0  0  0  0999 V2000
   -0.2607   -0.8471    1.9806 C   0  0  0  0  0  0  0  0  0  0  0  0
    1.1460   -0.2645    1.9759 C   0  0  0  0  0  0  0  0  0  0  0  0
    1.7032   -0.5897    0.6925 O   0  0  0  0  0  0  0  0  0  0  0  0
    3.1109   -0.4935    0.5552 C   0  0  0  0  0  0  0  0  0  0  0  0
    3.7274    0.7492    1.1802 C   0  0  0  0  0  0  0  0  0  0  0  0
    4.9500    0.5212    1.8922 O   0  0  0  0  0  0  0  0  0  0  0  0
    3.7756    0.8515    2.6486 C   0  0  0  0  0  0  0  0  0  0  0  0
    3.1603   -0.2303    3.4707 C   0  0  0  0  0  0  0  0  0  0  0  0
    1.9755   -0.7525    3.1541 C   0  0  0  0  0  0  0  0  0  0  0  0
   -0.7937   -0.5548    2.8906 H   0  0  0  0  0  0  0  0  0  0  0  0
   -0.8210   -0.4859    1.1149 H   0  0  0  0  0  0  0  0  0  0  0  0
   -0.2207   -1.9399    1.9332 H   0  0  0  0  0  0  0  0  0  0  0  0
    1.0723    0.8313    2.0459 H   0  0  0  0  0  0  0  0  0  0  0  0
    3.6167   -1.3586    1.0017 H   0  0  0  0  0  0  0  0  0  0  0  0
    3.2959   -0.5145   -0.5233 H   0  0  0  0  0  0  0  0  0  0  0  0
    3.7108    1.6673    0.5938 H   0  0  0  0  0  0  0  0  0  0  0  0
    3.8271    1.8423    3.1038 H   0  0  0  0  0  0  0  0  0  0  0  0
    3.7204   -0.5853    4.3324 H   0  0  0  0  0  0  0  0  0  0  0  0
    1.5591   -1.5598    3.7521 H   0  0  0  0  0  0  0  0  0  0  0  0
  1  2  1  0
  2  3  1  0
  3  4  1  0
  4  5  1  0
  5  6  1  0
  6  7  1  0
  7  8  1  0
  8  9  2  0
  9  2  1  0
  7  5  1  0
  1 10  1  0
  1 11  1  0
  1 12  1  0
  2 13  1  0
  4 14  1  0
  4 15  1  0
  5 16  1  0
  7 17  1  0
  8 18  1  0
  9 19  1  0
M  END
$$$$
