gdb 1565	3.2654587	1.0493002	0.9470425	3.0725	80.23	-0.25289	-0.0601	0.19279000000000002	1298.3688	0.155308	-422.594454	-422.585363	-422.584418	-422.628113	34.131
 OpenBabel02181911403D

 19 19  0  0  1  0  0  0  0  0999 V2000
   -2.0605    3.6284   -0.7195 C   0  0  0  0  0  0  0  0  0  0  0  0
   -1.4304    2.5212    0.1128 C   0  0  1  0  0  0  0  0  0  0  0  0
   -1.5649    2.9396    1.4721 O   0  0  0  0  0  0  0  0  0  0  0  0
   -2.1063    1.1260   -0.0684 C   0  0  0  0  0  0  0  0  0  0  0  0
   -0.9741    0.1601    0.1425 C   0  0  0  0  0  0  0  0  0  0  0  0
    0.2205    0.7706    0.0663 C   0  0  0  0  0  0  0  0  0  0  0  0
    0.0675    2.2484   -0.2117 C   0  0  0  0  0  0  0  0  0  0  0  0
    1.5077    0.0852    0.2025 C   0  0  0  0  0  0  0  0  0  0  0  0
    2.5850    0.6321    0.1134 O   0  0  0  0  0  0  0  0  0  0  0  0
   -3.1087    3.7647   -0.4373 H   0  0  0  0  0  0  0  0  0  0  0  0
   -1.5384    4.5735   -0.5461 H   0  0  0  0  0  0  0  0  0  0  0  0
   -2.0124    3.3925   -1.7861 H   0  0  0  0  0  0  0  0  0  0  0  0
   -1.1235    2.2883    2.0290 H   0  0  0  0  0  0  0  0  0  0  0  0
   -2.9358    1.0022    0.6358 H   0  0  0  0  0  0  0  0  0  0  0  0
   -2.5244    1.0036   -1.0776 H   0  0  0  0  0  0  0  0  0  0  0  0
   -1.1123   -0.9038    0.3093 H   0  0  0  0  0  0  0  0  0  0  0  0
    0.7231    2.8770    0.3970 H   0  0  0  0  0  0  0  0  0  0  0  0
    0.3035    2.4651   -1.2609 H   0  0  0  0  0  0  0  0  0  0  0  0
    1.4305   -1.0076    0.4020 H   0  0  0  0  0  0  0  0  0  0  0  0
  1 11  1  0  0  0  0
  1 10  1  0  0  0  0
  1  2  1  0  0  0  0
  2  3  1  1  0  0  0
  3 13  1  0  0  0  0
  4  2  1  0  0  0  0
  4  5  1  0  0  0  0
  4 14  1  0  0  0  0
  5 16  1  0  0  0  0
  6  5  2  0  0  0  0
  6  8  1  0  0  0  0
  7  6  1  0  0  0  0
  7  2  1  0  0  0  0
  7 17  1  0  0  0  0
  8 19  1  0  0  0  0
  9  8  2  0  0  0  0
 12  1  1  0  0  0  0
 15  4  1  0  0  0  0
 18  7  1  0  0  0  0
M TOR 0 0 1 2 12
M TOR 1 0 1 3 4
M TOR 2 0 1 3 13
M TOR 3 0 1 3 14
M TOR 4 0 1 6 5
M TOR 5 0 1 6 16
M TOR 6 0 1 6 17
M TOR 7 1 3 4 5
M TOR 8 1 3 4 15
M TOR 9 1 6 5 4
M TOR 10 1 6 5 7
M TOR 11 2 1 0 9
M TOR 12 2 1 0 10
M TOR 13 2 1 0 11
M TOR 14 2 1 3 4
M TOR 15 2 1 3 13
M TOR 16 2 1 3 14
M TOR 17 2 1 6 5
M TOR 18 2 1 6 16
M TOR 19 2 1 6 17
M TOR 20 3 1 0 9
M TOR 21 3 1 0 10
M TOR 22 3 1 0 11
M TOR 23 3 1 2 12
M TOR 24 3 1 6 5
M TOR 25 3 1 6 16
M TOR 26 3 1 6 17
M TOR 27 3 4 5 6
M TOR 28 3 4 5 7
M TOR 29 4 3 1 6
M TOR 30 4 5 6 16
M TOR 31 4 5 6 17
M TOR 32 4 5 7 8
M TOR 33 4 5 7 18
M TOR 34 5 4 3 13
M TOR 35 5 4 3 14
M TOR 36 6 1 0 9
M TOR 37 6 1 0 10
M TOR 38 6 1 0 11
M TOR 39 6 1 2 12
M TOR 40 6 1 3 13
M TOR 41 6 1 3 14
M TOR 42 6 5 4 15
M TOR 43 6 5 7 8
M TOR 44 6 5 7 18
M TOR 45 7 5 4 15
M TOR 46 7 5 6 16
M TOR 47 7 5 6 17
M  END
$$$$
