
     RDKit          3D

 19 20  0  0  0  0  0  0  0  0999 V2000
    1.3716    0.7336    0.4145 C   0  0  0  0  0  0  0  0  0  0  0  0
   -0.0233    0.2109    0.2883 C   0  0  0  0  0  0  0  0  0  0  0  0
   -1.1525    0.9085    0.1322 C   0  0  0  0  0  0  0  0  0  0  0  0
   -2.3652    0.0338    0.0335 C   0  0  0  0  0  0  0  0  0  0  0  0
   -3.1392   -0.0524    1.2678 O   0  0  0  0  0  0  0  0  0  0  0  0
   -2.6026   -1.3587    1.5535 C   0  0  0  0  0  0  0  0  0  0  0  0
   -1.8137   -1.4002    0.2268 C   0  0  0  0  0  0  0  0  0  0  0  0
   -0.2798   -1.2861    0.2963 C   0  0  0  0  0  0  0  0  0  0  0  0
    0.3903   -1.8528   -0.8299 O   0  0  0  0  0  0  0  0  0  0  0  0
    1.8140    0.4440    1.3765 H   0  0  0  0  0  0  0  0  0  0  0  0
    2.0078    0.3037   -0.3666 H   0  0  0  0  0  0  0  0  0  0  0  0
    1.4056    1.8231    0.3373 H   0  0  0  0  0  0  0  0  0  0  0  0
   -1.2097    1.9915    0.0994 H   0  0  0  0  0  0  0  0  0  0  0  0
   -3.0227    0.2611   -0.8124 H   0  0  0  0  0  0  0  0  0  0  0  0
   -1.9857   -1.3667    2.4634 H   0  0  0  0  0  0  0  0  0  0  0  0
   -3.3971   -2.1070    1.6592 H   0  0  0  0  0  0  0  0  0  0  0  0
   -2.1339   -2.1620   -0.4842 H   0  0  0  0  0  0  0  0  0  0  0  0
    0.1111   -1.7410    1.2223 H   0  0  0  0  0  0  0  0  0  0  0  0
    0.3877   -2.8098   -0.7277 H   0  0  0  0  0  0  0  0  0  0  0  0
  1  2  1  0
  2  3  2  0
  3  4  1  0
  4  5  1  0
  5  6  1  0
  6  7  1  0
  7  8  1  0
  8  9  1  0
  8  2  1  0
  7  4  1  0
  1 10  1  0
  1 11  1  0
  1 12  1  0
  3 13  1  0
  4 14  1  0
  6 15  1  0
  6 16  1  0
  7 17  1  0
  8 18  1  0
  9 19  1  0
M  END
$$$$
