
     RDKit          3D

 19 20  0  0  0  0  0  0  0  0999 V2000
   -5.3934   -0.6907    0.1437 C   0  0  0  0  0  0  0  0  0  0  0  0
   -4.0737    0.0624    0.1148 C   0  0  0  0  0  0  0  0  0  0  0  0
   -2.9736   -0.3153    1.1532 C   0  0  0  0  0  0  0  0  0  0  0  0
   -1.9259   -0.1976    0.0325 C   0  0  0  0  0  0  0  0  0  0  0  0
   -3.0505   -0.2635   -1.0156 C   0  0  0  0  0  0  0  0  0  0  0  0
   -0.5785   -0.9269   -0.0327 C   0  0  0  0  0  0  0  0  0  0  0  0
    0.0091    0.4832   -0.0199 C   0  0  0  0  0  0  0  0  0  0  0  0
    1.0801    0.9980   -0.0456 O   0  0  0  0  0  0  0  0  0  0  0  0
   -1.2148    1.0980    0.0382 O   0  0  0  0  0  0  0  0  0  0  0  0
   -5.9593   -0.4659    1.0543 H   0  0  0  0  0  0  0  0  0  0  0  0
   -6.0220   -0.4237   -0.7128 H   0  0  0  0  0  0  0  0  0  0  0  0
   -5.2291   -1.7743    0.1120 H   0  0  0  0  0  0  0  0  0  0  0  0
   -4.2534    1.1413    0.1470 H   0  0  0  0  0  0  0  0  0  0  0  0
   -2.8285    0.3354    2.0181 H   0  0  0  0  0  0  0  0  0  0  0  0
   -3.0746   -1.3513    1.4939 H   0  0  0  0  0  0  0  0  0  0  0  0
   -2.9660    0.4279   -1.8566 H   0  0  0  0  0  0  0  0  0  0  0  0
   -3.1771   -1.2823   -1.3973 H   0  0  0  0  0  0  0  0  0  0  0  0
   -0.3152   -1.5326    0.8368 H   0  0  0  0  0  0  0  0  0  0  0  0
   -0.3785   -1.4900   -0.9466 H   0  0  0  0  0  0  0  0  0  0  0  0
  1  2  1  0
  2  3  1  0
  3  4  1  0
  4  5  1  0
  4  6  1  0
  6  7  1  0
  7  8  2  0
  7  9  1  0
  5  2  1  0
  9  4  1  0
  1 10  1  0
  1 11  1  0
  1 12  1  0
  2 13  1  0
  3 14  1  0
  3 15  1  0
  5 16  1  0
  5 17  1  0
  6 18  1  0
  6 19  1  0
M  END
$$$$
