gdb 5005	4.0530914	1.1772474	1.07577	3.5512	75.65	-0.23742	-0.00651	0.23091	1160.8571	0.157229	-422.559537	-422.551409	-422.550465	-422.592205	31.285
 OpenBabel02181911413D

 19 20  0  0  1  0  0  0  0  0999 V2000
    1.2653   -0.0911   -0.0494 C   0  0  0  0  0  0  0  0  0  0  0  0
   -0.1416   -0.0333    0.0739 O   0  0  0  0  0  0  0  0  0  0  0  0
   -0.6310    0.6515    1.1739 C   0  0  2  0  0  0  0  0  0  0  0  0
   -0.2883    2.1388    1.5171 C   0  0  0  0  0  0  0  0  0  0  0  0
   -0.8854    1.7388    2.9089 C   0  0  2  0  0  0  0  0  0  0  0  0
   -0.2629    0.3234    2.6586 C   0  0  0  0  0  0  0  0  0  0  0  0
   -2.3326    1.4744    2.5207 C   0  0  0  0  0  0  0  0  0  0  0  0
   -3.3433    1.8091    3.0756 O   0  0  0  0  0  0  0  0  0  0  0  0
   -2.1680    0.6595    1.2211 C   0  0  0  0  0  0  0  0  0  0  0  0
    1.7334   -0.6030    0.8026 H   0  0  0  0  0  0  0  0  0  0  0  0
    1.4757   -0.6594   -0.9578 H   0  0  0  0  0  0  0  0  0  0  0  0
    1.7121    0.9078   -0.1475 H   0  0  0  0  0  0  0  0  0  0  0  0
    0.7843    2.3292    1.5906 H   0  0  0  0  0  0  0  0  0  0  0  0
   -0.7801    2.9314    0.9470 H   0  0  0  0  0  0  0  0  0  0  0  0
   -0.6985    2.3105    3.8140 H   0  0  0  0  0  0  0  0  0  0  0  0
    0.8124    0.3287    2.8485 H   0  0  0  0  0  0  0  0  0  0  0  0
   -0.7314   -0.5435    3.1319 H   0  0  0  0  0  0  0  0  0  0  0  0
   -2.6013   -0.3410    1.3080 H   0  0  0  0  0  0  0  0  0  0  0  0
   -2.6224    1.1625    0.3626 H   0  0  0  0  0  0  0  0  0  0  0  0
  1  2  1  0  0  0  0
  1 10  1  0  0  0  0
  3  2  1  6  0  0  0
  3  9  1  0  0  0  0
  3  4  1  0  0  0  0
  3  6  1  0  0  0  0
  4 13  1  0  0  0  0
  4  5  1  0  0  0  0
  5 15  1  1  0  0  0
  6 16  1  0  0  0  0
  6  5  1  0  0  0  0
  6 17  1  0  0  0  0
  7  5  1  0  0  0  0
  7  8  2  0  0  0  0
  9 18  1  0  0  0  0
  9  7  1  0  0  0  0
 11  1  1  0  0  0  0
 12  1  1  0  0  0  0
 14  4  1  0  0  0  0
 19  9  1  0  0  0  0
M TOR 0 0 1 2 3
M TOR 1 0 1 2 5
M TOR 2 0 1 2 8
M TOR 3 1 2 3 4
M TOR 4 1 2 3 12
M TOR 5 1 2 3 13
M TOR 6 1 2 5 4
M TOR 7 1 2 5 15
M TOR 8 1 2 5 16
M TOR 9 1 2 8 6
M TOR 10 1 2 8 17
M TOR 11 1 2 8 18
M TOR 12 2 1 0 9
M TOR 13 2 1 0 10
M TOR 14 2 1 0 11
M TOR 15 2 3 4 5
M TOR 16 2 3 4 6
M TOR 17 2 3 4 14
M TOR 18 2 5 4 6
M TOR 19 2 5 4 14
M TOR 20 2 8 6 4
M TOR 21 2 8 6 7
M TOR 22 3 2 5 15
M TOR 23 3 2 5 16
M TOR 24 3 2 8 6
M TOR 25 3 2 8 17
M TOR 26 3 2 8 18
M TOR 27 3 4 5 15
M TOR 28 3 4 5 16
M TOR 29 3 4 6 7
M TOR 30 3 4 6 8
M TOR 31 4 3 2 8
M TOR 32 4 5 2 8
M TOR 33 4 6 8 17
M TOR 34 4 6 8 18
M TOR 35 5 2 3 12
M TOR 36 5 2 3 13
M TOR 37 5 2 8 6
M TOR 38 5 2 8 17
M TOR 39 5 2 8 18
M TOR 40 5 4 3 12
M TOR 41 5 4 3 13
M TOR 42 5 4 6 7
M TOR 43 5 4 6 8
M TOR 44 6 4 3 12
M TOR 45 6 4 3 13
M TOR 46 6 4 5 15
M TOR 47 6 4 5 16
M TOR 48 7 6 4 14
M TOR 49 7 6 8 17
M TOR 50 7 6 8 18
M TOR 51 8 2 3 12
M TOR 52 8 2 3 13
M TOR 53 8 2 5 15
M TOR 54 8 2 5 16
M TOR 55 8 6 4 14
M  END
$$$$
