
     RDKit          3D

 19 21  0  0  0  0  0  0  0  0999 V2000
   -0.0797   -0.1947   -0.1599 C   0  0  0  0  0  0  0  0  0  0  0  0
    1.3908    0.0086    0.0653 C   0  0  0  0  0  0  0  0  0  0  0  0
    2.1115   -0.7497    1.2436 C   0  0  0  0  0  0  0  0  0  0  0  0
    3.6245   -0.4898    0.8499 C   0  0  0  0  0  0  0  0  0  0  0  0
    3.2729    0.4148   -0.3200 C   0  0  0  0  0  0  0  0  0  0  0  0
    3.6878    1.5374   -1.2609 C   0  0  0  0  0  0  0  0  0  0  0  0
    2.3908    2.1703   -1.0326 O   0  0  0  0  0  0  0  0  0  0  0  0
    2.1528    1.3498    0.1400 C   0  0  0  0  0  0  0  0  0  0  0  0
    2.2616   -0.3873   -1.0327 O   0  0  0  0  0  0  0  0  0  0  0  0
   -0.6485    0.1339    0.7160 H   0  0  0  0  0  0  0  0  0  0  0  0
   -0.4135    0.3784   -1.0289 H   0  0  0  0  0  0  0  0  0  0  0  0
   -0.3003   -1.2527   -0.3354 H   0  0  0  0  0  0  0  0  0  0  0  0
    1.8586   -0.3587    2.2338 H   0  0  0  0  0  0  0  0  0  0  0  0
    1.8520   -1.8096    1.2100 H   0  0  0  0  0  0  0  0  0  0  0  0
    4.1905    0.0152    1.6363 H   0  0  0  0  0  0  0  0  0  0  0  0
    4.1454   -1.4038    0.5594 H   0  0  0  0  0  0  0  0  0  0  0  0
    4.5068    2.1727   -0.9003 H   0  0  0  0  0  0  0  0  0  0  0  0
    3.8395    1.2624   -2.3077 H   0  0  0  0  0  0  0  0  0  0  0  0
    2.1469    1.9344    1.0641 H   0  0  0  0  0  0  0  0  0  0  0  0
  1  2  1  0
  2  3  1  0
  3  4  1  0
  4  5  1  0
  5  6  1  0
  6  7  1  0
  7  8  1  0
  5  9  1  0
  8  2  1  0
  9  2  1  0
  8  5  1  0
  1 10  1  0
  1 11  1  0
  1 12  1  0
  3 13  1  0
  3 14  1  0
  4 15  1  0
  4 16  1  0
  6 17  1  0
  6 18  1  0
  8 19  1  0
M  END
$$$$
