gdb 2760	2.7058748	1.3841306	1.0627561	2.4944	77.63	-0.21364	0.025	0.23864	1176.4116	0.155917	-422.558702	-422.549881	-422.548937	-422.591449	34.226
 OpenBabel02181911413D

 19 20  0  0  1  0  0  0  0  0999 V2000
    1.2507    0.6611   -0.2608 C   0  0  0  0  0  0  0  0  0  0  0  0
   -0.1339    0.2207    0.0995 C   0  0  0  0  0  0  0  0  0  0  0  0
   -1.2406    0.9757    0.1408 C   0  0  0  0  0  0  0  0  0  0  0  0
   -2.4795    0.1925    0.5106 C   0  0  0  0  0  0  0  0  0  0  0  0
   -1.9402   -1.1959    0.8241 C   0  0  2  0  0  0  0  0  0  0  0  0
   -2.7860   -2.2588    0.5488 O   0  0  0  0  0  0  0  0  0  0  0  0
   -0.9474   -1.3428    1.9389 C   0  0  1  0  0  0  0  0  0  0  0  0
   -0.9669   -2.6294    2.4970 O   0  0  0  0  0  0  0  0  0  0  0  0
   -0.4410   -1.1845    0.5023 C   0  0  2  0  0  0  0  0  0  0  0  0
    1.9512    0.4970    0.5680 H   0  0  0  0  0  0  0  0  0  0  0  0
    1.6378    0.0879   -1.1129 H   0  0  0  0  0  0  0  0  0  0  0  0
    1.2789    1.7214   -0.5266 H   0  0  0  0  0  0  0  0  0  0  0  0
   -1.2674    2.0390   -0.0708 H   0  0  0  0  0  0  0  0  0  0  0  0
   -3.0213    0.6234    1.3616 H   0  0  0  0  0  0  0  0  0  0  0  0
   -3.1958    0.1352   -0.3205 H   0  0  0  0  0  0  0  0  0  0  0  0
   -2.5324   -2.9686    1.1551 H   0  0  0  0  0  0  0  0  0  0  0  0
   -0.7729   -0.5308    2.6459 H   0  0  0  0  0  0  0  0  0  0  0  0
   -0.0609   -2.9387    2.5975 H   0  0  0  0  0  0  0  0  0  0  0  0
    0.0609   -2.0339    0.0478 H   0  0  0  0  0  0  0  0  0  0  0  0
  1  2  1  0  0  0  0
  1 10  1  0  0  0  0
  2  3  2  0  0  0  0
  2  9  1  0  0  0  0
  3  4  1  0  0  0  0
  4  5  1  0  0  0  0
  4 14  1  0  0  0  0
  5  6  1  6  0  0  0
  5  7  1  0  0  0  0
  6 16  1  0  0  0  0
  7  8  1  0  0  0  0
  7 17  1  1  0  0  0
  8 18  1  0  0  0  0
  9 19  1  6  0  0  0
  9  5  1  0  0  0  0
  9  7  1  0  0  0  0
 11  1  1  0  0  0  0
 12  1  1  0  0  0  0
 13  3  1  0  0  0  0
 15  4  1  0  0  0  0
M TOR 0 0 1 2 3
M TOR 1 0 1 2 12
M TOR 2 0 1 8 4
M TOR 3 0 1 8 6
M TOR 4 0 1 8 18
M TOR 5 1 2 3 4
M TOR 6 1 2 3 13
M TOR 7 1 2 3 14
M TOR 8 1 8 4 3
M TOR 9 1 8 4 5
M TOR 10 1 8 4 6
M TOR 11 1 8 6 7
M TOR 12 1 8 6 16
M TOR 13 2 1 0 9
M TOR 14 2 1 0 10
M TOR 15 2 1 0 11
M TOR 16 2 1 8 4
M TOR 17 2 1 8 6
M TOR 18 2 1 8 18
M TOR 19 2 3 4 5
M TOR 20 2 3 4 6
M TOR 21 2 3 4 8
M TOR 22 3 2 1 8
M TOR 23 3 4 5 15
M TOR 24 3 4 6 7
M TOR 25 3 4 6 8
M TOR 26 3 4 6 16
M TOR 27 3 4 8 18
M TOR 28 4 3 2 12
M TOR 29 4 6 7 17
M TOR 30 4 6 8 18
M TOR 31 4 8 6 7
M TOR 32 4 8 6 16
M TOR 33 5 4 3 13
M TOR 34 5 4 3 14
M TOR 35 5 4 6 7
M TOR 36 5 4 6 8
M TOR 37 5 4 6 16
M TOR 38 5 4 8 18
M TOR 39 6 4 3 13
M TOR 40 6 4 3 14
M TOR 41 6 4 5 15
M TOR 42 7 6 8 18
M TOR 43 8 1 0 9
M TOR 44 8 1 0 10
M TOR 45 8 1 0 11
M TOR 46 8 1 2 12
M TOR 47 8 4 3 13
M TOR 48 8 4 3 14
M TOR 49 8 4 5 15
M TOR 50 8 6 7 17
M  END
$$$$
