
     RDKit          3D

 19 20  0  0  0  0  0  0  0  0999 V2000
   -0.5300    1.9538    1.4009 C   0  0  0  0  0  0  0  0  0  0  0  0
   -0.7725    1.3472    0.0071 C   0  0  0  0  0  0  0  0  0  0  0  0
   -2.1823    0.8065   -0.1838 C   0  0  0  0  0  0  0  0  0  0  0  0
   -2.5429    0.7003   -1.5803 O   0  0  0  0  0  0  0  0  0  0  0  0
   -2.7422   -0.7251   -1.4720 C   0  0  0  0  0  0  0  0  0  0  0  0
   -2.1627   -0.7514   -0.0445 C   0  0  0  0  0  0  0  0  0  0  0  0
   -0.6914   -1.1575    0.0675 C   0  0  0  0  0  0  0  0  0  0  0  0
    0.1316    0.1174   -0.1877 C   0  0  0  0  0  0  0  0  0  0  0  0
    1.3031    0.1473   -0.4573 O   0  0  0  0  0  0  0  0  0  0  0  0
   -0.7753    1.2436    2.1987 H   0  0  0  0  0  0  0  0  0  0  0  0
    0.5193    2.2379    1.5141 H   0  0  0  0  0  0  0  0  0  0  0  0
   -1.1493    2.8441    1.5454 H   0  0  0  0  0  0  0  0  0  0  0  0
   -0.5411    2.0879   -0.7637 H   0  0  0  0  0  0  0  0  0  0  0  0
   -2.9445    1.3495    0.3874 H   0  0  0  0  0  0  0  0  0  0  0  0
   -3.8048   -0.9930   -1.5371 H   0  0  0  0  0  0  0  0  0  0  0  0
   -2.1870   -1.2785   -2.2394 H   0  0  0  0  0  0  0  0  0  0  0  0
   -2.7999   -1.1987    0.7179 H   0  0  0  0  0  0  0  0  0  0  0  0
   -0.4454   -1.5085    1.0774 H   0  0  0  0  0  0  0  0  0  0  0  0
   -0.3867   -1.9491   -0.6225 H   0  0  0  0  0  0  0  0  0  0  0  0
  1  2  1  0
  2  3  1  0
  3  4  1  0
  4  5  1  0
  5  6  1  0
  6  7  1  0
  7  8  1  0
  8  9  2  0
  8  2  1  0
  6  3  1  0
  1 10  1  0
  1 11  1  0
  1 12  1  0
  2 13  1  0
  3 14  1  0
  5 15  1  0
  5 16  1  0
  6 17  1  0
  7 18  1  0
  7 19  1  0
M  END
$$$$
