gdb 3645	3.3826316	0.9456103	0.8107131	3.306	77.62	-0.24591	-0.02366	0.22225	1411.9609	0.1559	-422.579985	-422.570932	-422.569988	-422.614644	32.944
 OpenBabel02181911413D

 19 19  0  0  1  0  0  0  0  0999 V2000
   -4.7869    2.1193    0.2800 O   0  0  0  0  0  0  0  0  0  0  0  0
   -3.4599    2.6291    0.2462 C   0  0  2  0  0  0  0  0  0  0  0  0
   -2.3874    1.5929   -0.1833 C   0  0  0  0  0  0  0  0  0  0  0  0
   -1.1340    1.8814    0.6842 C   0  0  2  0  0  0  0  0  0  0  0  0
   -0.3726    0.6355    1.1469 C   0  0  0  0  0  0  0  0  0  0  0  0
    0.3462   -0.1072    0.0439 C   0  0  0  0  0  0  0  0  0  0  0  0
    0.3817    0.2380   -1.1099 O   0  0  0  0  0  0  0  0  0  0  0  0
   -1.7009    2.7081    1.8191 C   0  0  0  0  0  0  0  0  0  0  0  0
   -2.9452    3.1170    1.5814 C   0  0  0  0  0  0  0  0  0  0  0  0
   -4.8124    1.4336    0.9569 H   0  0  0  0  0  0  0  0  0  0  0  0
   -3.5169    3.4591   -0.4697 H   0  0  0  0  0  0  0  0  0  0  0  0
   -2.7782    0.5946    0.0527 H   0  0  0  0  0  0  0  0  0  0  0  0
   -2.1742    1.6080   -1.2525 H   0  0  0  0  0  0  0  0  0  0  0  0
   -0.4271    2.4925    0.1063 H   0  0  0  0  0  0  0  0  0  0  0  0
    0.3884    0.8903    1.9013 H   0  0  0  0  0  0  0  0  0  0  0  0
   -1.0398   -0.0788    1.6526 H   0  0  0  0  0  0  0  0  0  0  0  0
    0.8728   -1.0308    0.3785 H   0  0  0  0  0  0  0  0  0  0  0  0
   -1.1139    2.9579    2.6979 H   0  0  0  0  0  0  0  0  0  0  0  0
   -3.5433    3.7543    2.2235 H   0  0  0  0  0  0  0  0  0  0  0  0
  1 10  1  0  0  0  0
  2 11  1  6  0  0  0
  2  1  1  0  0  0  0
  2  9  1  0  0  0  0
  3 12  1  0  0  0  0
  3  2  1  0  0  0  0
  3  4  1  0  0  0  0
  4 14  1  6  0  0  0
  4  5  1  0  0  0  0
  4  8  1  0  0  0  0
  5 16  1  0  0  0  0
  5 15  1  0  0  0  0
  6 17  1  0  0  0  0
  6  5  1  0  0  0  0
  7  6  2  0  0  0  0
  8 18  1  0  0  0  0
  9  8  2  0  0  0  0
  9 19  1  0  0  0  0
 13  3  1  0  0  0  0
M TOR 0 0 1 2 3
M TOR 1 0 1 2 11
M TOR 2 0 1 2 12
M TOR 3 0 1 8 7
M TOR 4 0 1 8 18
M TOR 5 1 2 3 4
M TOR 6 1 2 3 7
M TOR 7 1 2 3 13
M TOR 8 1 8 7 3
M TOR 9 1 8 7 17
M TOR 10 2 1 0 9
M TOR 11 2 1 8 7
M TOR 12 2 1 8 18
M TOR 13 2 3 4 5
M TOR 14 2 3 4 14
M TOR 15 2 3 4 15
M TOR 16 2 3 7 8
M TOR 17 2 3 7 17
M TOR 18 3 2 1 8
M TOR 19 3 2 1 10
M TOR 20 3 4 5 6
M TOR 21 3 4 5 16
M TOR 22 3 7 8 18
M TOR 23 4 3 2 11
M TOR 24 4 3 2 12
M TOR 25 4 3 7 8
M TOR 26 4 3 7 17
M TOR 27 5 4 3 7
M TOR 28 5 4 3 13
M TOR 29 6 5 4 14
M TOR 30 6 5 4 15
M TOR 31 7 3 2 11
M TOR 32 7 3 2 12
M TOR 33 7 3 4 14
M TOR 34 7 3 4 15
M TOR 35 7 8 1 10
M TOR 36 8 1 0 9
M TOR 37 8 1 2 11
M TOR 38 8 1 2 12
M TOR 39 8 7 3 13
M  END
$$$$
