
     RDKit          3D

 19 21  0  0  0  0  0  0  0  0999 V2000
    0.6189    0.1412    0.2205 O   0  0  0  0  0  0  0  0  0  0  0  0
   -0.5977    0.8075    0.1510 C   0  0  0  0  0  0  0  0  0  0  0  0
   -2.0556    0.2088    0.3038 C   0  0  0  0  0  0  0  0  0  0  0  0
   -2.3892    1.3978    1.2488 C   0  0  0  0  0  0  0  0  0  0  0  0
   -0.9646    2.0129    1.0585 C   0  0  0  0  0  0  0  0  0  0  0  0
   -0.8527    3.2164    0.1305 C   0  0  0  0  0  0  0  0  0  0  0  0
   -1.1821    2.7417   -1.1770 O   0  0  0  0  0  0  0  0  0  0  0  0
   -0.9856    1.3350   -1.2532 C   0  0  0  0  0  0  0  0  0  0  0  0
   -2.3072    0.5128   -1.1918 C   0  0  0  0  0  0  0  0  0  0  0  0
    0.7388   -0.1872    1.1181 H   0  0  0  0  0  0  0  0  0  0  0  0
   -2.2743   -0.7948    0.6692 H   0  0  0  0  0  0  0  0  0  0  0  0
   -3.2225    2.0328    0.9350 H   0  0  0  0  0  0  0  0  0  0  0  0
   -2.5656    1.0796    2.2790 H   0  0  0  0  0  0  0  0  0  0  0  0
   -0.3871    2.1245    1.9791 H   0  0  0  0  0  0  0  0  0  0  0  0
   -1.5443    4.0296    0.3779 H   0  0  0  0  0  0  0  0  0  0  0  0
    0.1718    3.6201    0.1454 H   0  0  0  0  0  0  0  0  0  0  0  0
   -0.2966    1.0919   -2.0668 H   0  0  0  0  0  0  0  0  0  0  0  0
   -3.2141    1.0634   -1.4535 H   0  0  0  0  0  0  0  0  0  0  0  0
   -2.2412   -0.3908   -1.8044 H   0  0  0  0  0  0  0  0  0  0  0  0
  1  2  1  0
  2  3  1  0
  3  4  1  0
  4  5  1  0
  5  6  1  0
  6  7  1  0
  7  8  1  0
  8  9  1  0
  5  2  1  0
  8  2  1  0
  9  3  1  0
  1 10  1  0
  3 11  1  0
  4 12  1  0
  4 13  1  0
  5 14  1  0
  6 15  1  0
  6 16  1  0
  8 17  1  0
  9 18  1  0
  9 19  1  0
M  END
$$$$
