gdb 5517	2.8242762	1.4834846	1.2276842	3.0237	75.11	-0.2316	0.00616	0.23776	1066.8458	0.157358	-422.52906	-422.520865	-422.519921	-422.561371	32.579
 OpenBabel02181911423D

 19 20  0  0  1  0  0  0  0  0999 V2000
    1.0843   -0.2464    0.9777 O   0  0  0  0  0  0  0  0  0  0  0  0
    0.2353    0.2027   -0.0665 C   0  0  0  0  0  0  0  0  0  0  0  0
   -0.8906    1.0665    0.4933 C   0  0  1  0  0  0  0  0  0  0  0  0
   -2.1786    1.3622   -0.3743 C   0  0  1  0  0  0  0  0  0  0  0  0
   -2.6719   -0.0760    0.0113 C   0  0  0  0  0  0  0  0  0  0  0  0
   -1.9729    0.3295    1.3568 C   0  0  1  0  0  0  0  0  0  0  0  0
   -1.5253   -0.5903    2.3121 O   0  0  0  0  0  0  0  0  0  0  0  0
   -2.8520    1.5229    1.7729 C   0  0  0  0  0  0  0  0  0  0  0  0
   -2.9829    2.2019    0.6304 C   0  0  0  0  0  0  0  0  0  0  0  0
    0.5160   -0.6880    1.6214 H   0  0  0  0  0  0  0  0  0  0  0  0
    0.8610    0.8035   -0.7367 H   0  0  0  0  0  0  0  0  0  0  0  0
   -0.1456   -0.6414   -0.6601 H   0  0  0  0  0  0  0  0  0  0  0  0
   -0.4572    1.9427    0.9824 H   0  0  0  0  0  0  0  0  0  0  0  0
   -2.1164    1.6922   -1.4093 H   0  0  0  0  0  0  0  0  0  0  0  0
   -3.7519   -0.2362    0.0390 H   0  0  0  0  0  0  0  0  0  0  0  0
   -2.1700   -0.8842   -0.5241 H   0  0  0  0  0  0  0  0  0  0  0  0
   -2.2756   -1.0923    2.6474 H   0  0  0  0  0  0  0  0  0  0  0  0
   -3.2180    1.7249    2.7698 H   0  0  0  0  0  0  0  0  0  0  0  0
   -3.5028    3.1265    0.4228 H   0  0  0  0  0  0  0  0  0  0  0  0
  1 10  1  0  0  0  0
  2  3  1  0  0  0  0
  2  1  1  0  0  0  0
  3 13  1  1  0  0  0
  3  6  1  0  0  0  0
  4 14  1  6  0  0  0
  4  5  1  0  0  0  0
  4  3  1  0  0  0  0
  4  9  1  0  0  0  0
  5 15  1  0  0  0  0
  5  6  1  0  0  0  0
  6  8  1  0  0  0  0
  6  7  1  1  0  0  0
  7 17  1  0  0  0  0
  8 18  1  0  0  0  0
  9  8  2  0  0  0  0
 11  2  1  0  0  0  0
 12  2  1  0  0  0  0
 16  5  1  0  0  0  0
 19  9  1  0  0  0  0
M TOR 0 0 1 2 3
M TOR 1 0 1 2 5
M TOR 2 0 1 2 12
M TOR 3 1 2 3 4
M TOR 4 1 2 3 8
M TOR 5 1 2 3 13
M TOR 6 1 2 5 4
M TOR 7 1 2 5 6
M TOR 8 1 2 5 7
M TOR 9 2 1 0 9
M TOR 10 2 3 4 5
M TOR 11 2 3 4 14
M TOR 12 2 3 4 15
M TOR 13 2 3 8 7
M TOR 14 2 3 8 18
M TOR 15 2 5 4 14
M TOR 16 2 5 4 15
M TOR 17 2 5 6 16
M TOR 18 2 5 7 8
M TOR 19 2 5 7 17
M TOR 20 3 2 1 10
M TOR 21 3 2 1 11
M TOR 22 3 2 5 6
M TOR 23 3 2 5 7
M TOR 24 3 4 5 6
M TOR 25 3 4 5 7
M TOR 26 3 8 7 5
M TOR 27 3 8 7 17
M TOR 28 4 3 2 12
M TOR 29 4 3 8 7
M TOR 30 4 3 8 18
M TOR 31 4 5 2 12
M TOR 32 4 5 6 16
M TOR 33 4 5 7 8
M TOR 34 4 5 7 17
M TOR 35 5 2 1 10
M TOR 36 5 2 1 11
M TOR 37 5 2 3 8
M TOR 38 5 2 3 13
M TOR 39 5 4 3 8
M TOR 40 5 4 3 13
M TOR 41 5 7 8 18
M TOR 42 6 5 2 12
M TOR 43 6 5 4 14
M TOR 44 6 5 4 15
M TOR 45 6 5 7 8
M TOR 46 6 5 7 17
M TOR 47 7 5 2 12
M TOR 48 7 5 4 14
M TOR 49 7 5 4 15
M TOR 50 7 5 6 16
M TOR 51 7 8 3 13
M TOR 52 8 3 2 12
M TOR 53 8 3 4 14
M TOR 54 8 3 4 15
M  END
$$$$
