
     RDKit          3D

 19 19  0  0  0  0  0  0  0  0999 V2000
    5.9872   -2.6199   -1.9897 C   0  0  0  0  0  0  0  0  0  0  0  0
    4.4981   -2.8941   -2.2688 C   0  0  0  0  0  0  0  0  0  0  0  0
    3.6287   -2.5485   -1.1501 C   0  0  0  0  0  0  0  0  0  0  0  0
    2.9259   -2.2682   -0.2125 C   0  0  0  0  0  0  0  0  0  0  0  0
    2.0655   -1.8934    0.8812 C   0  0  0  0  0  0  0  0  0  0  0  0
    0.8546   -1.0400    0.5400 C   0  0  0  0  0  0  0  0  0  0  0  0
   -0.0593   -1.7353   -0.2804 O   0  0  0  0  0  0  0  0  0  0  0  0
    2.5816   -1.8945    2.2651 C   0  0  0  0  0  0  0  0  0  0  0  0
    1.7389   -2.9516    1.8215 O   0  0  0  0  0  0  0  0  0  0  0  0
    6.3338   -3.1972   -1.1284 H   0  0  0  0  0  0  0  0  0  0  0  0
    6.5936   -2.8963   -2.8571 H   0  0  0  0  0  0  0  0  0  0  0  0
    6.1543   -1.5607   -1.7758 H   0  0  0  0  0  0  0  0  0  0  0  0
    4.1794   -2.3344   -3.1573 H   0  0  0  0  0  0  0  0  0  0  0  0
    4.3587   -3.9544   -2.5160 H   0  0  0  0  0  0  0  0  0  0  0  0
    0.3883   -0.7095    1.4808 H   0  0  0  0  0  0  0  0  0  0  0  0
    1.1657   -0.1529   -0.0202 H   0  0  0  0  0  0  0  0  0  0  0  0
   -0.2840   -2.5509    0.1822 H   0  0  0  0  0  0  0  0  0  0  0  0
    3.6220   -2.1642    2.4355 H   0  0  0  0  0  0  0  0  0  0  0  0
    2.1449   -1.2168    2.9985 H   0  0  0  0  0  0  0  0  0  0  0  0
  1  2  1  0
  2  3  1  0
  3  4  3  0
  4  5  1  0
  5  6  1  0
  6  7  1  0
  5  8  1  0
  8  9  1  0
  9  5  1  0
  1 10  1  0
  1 11  1  0
  1 12  1  0
  2 13  1  0
  2 14  1  0
  6 15  1  0
  6 16  1  0
  7 17  1  0
  8 18  1  0
  8 19  1  0
M  END
$$$$
