gdb 2016	3.8472647	1.0247871	0.9113982	3.3181	76.12	-0.25136	-0.0235	0.22785999999999998	1302.9824	0.156001	-422.573017	-422.564337	-422.563393	-422.606665	32.183
 OpenBabel02181911403D

 19 20  0  0  1  0  0  0  0  0999 V2000
    3.3160    2.8177   -3.3049 C   0  0  0  0  0  0  0  0  0  0  0  0
    2.2029    2.4757   -2.3537 C   0  0  2  0  0  0  0  0  0  0  0  0
    2.5002    2.1830   -0.8898 C   0  0  0  0  0  0  0  0  0  0  0  0
    1.1581    1.6565   -0.3088 C   0  0  1  0  0  0  0  0  0  0  0  0
    0.4231    1.0185   -1.5235 C   0  0  0  0  0  0  0  0  0  0  0  0
    0.9584    1.7836   -2.7154 C   0  0  1  0  0  0  0  0  0  0  0  0
    0.9717    3.2059   -2.5188 O   0  0  0  0  0  0  0  0  0  0  0  0
    1.3772    0.6594    0.8035 C   0  0  0  0  0  0  0  0  0  0  0  0
    0.9699    0.7660    1.9302 O   0  0  0  0  0  0  0  0  0  0  0  0
    3.8136    3.7448   -3.0002 H   0  0  0  0  0  0  0  0  0  0  0  0
    4.0703    2.0238   -3.3242 H   0  0  0  0  0  0  0  0  0  0  0  0
    2.9278    2.9586   -4.3164 H   0  0  0  0  0  0  0  0  0  0  0  0
    3.2831    1.4141   -0.8329 H   0  0  0  0  0  0  0  0  0  0  0  0
    2.8629    3.0599   -0.3455 H   0  0  0  0  0  0  0  0  0  0  0  0
    0.5716    2.4856    0.0874 H   0  0  0  0  0  0  0  0  0  0  0  0
    0.6821   -0.0437   -1.6332 H   0  0  0  0  0  0  0  0  0  0  0  0
   -0.6635    1.0835   -1.4195 H   0  0  0  0  0  0  0  0  0  0  0  0
    0.7414    1.4530   -3.7287 H   0  0  0  0  0  0  0  0  0  0  0  0
    1.9756   -0.2327    0.4917 H   0  0  0  0  0  0  0  0  0  0  0  0
  1 10  1  0  0  0  0
  2  1  1  6  0  0  0
  2  3  1  0  0  0  0
  3 13  1  0  0  0  0
  3 14  1  0  0  0  0
  3  4  1  0  0  0  0
  4 15  1  1  0  0  0
  4  8  1  0  0  0  0
  5 17  1  0  0  0  0
  5  4  1  0  0  0  0
  6 18  1  6  0  0  0
  6  7  1  0  0  0  0
  6  2  1  0  0  0  0
  6  5  1  0  0  0  0
  7  2  1  0  0  0  0
  8  9  2  0  0  0  0
 11  1  1  0  0  0  0
 12  1  1  0  0  0  0
 16  5  1  0  0  0  0
 19  8  1  0  0  0  0
M TOR 0 0 1 2 3
M TOR 1 0 1 2 12
M TOR 2 0 1 2 13
M TOR 3 0 1 5 4
M TOR 4 0 1 5 6
M TOR 5 0 1 5 17
M TOR 6 1 2 3 4
M TOR 7 1 2 3 7
M TOR 8 1 2 3 14
M TOR 9 1 5 4 3
M TOR 10 1 5 4 15
M TOR 11 1 5 4 16
M TOR 12 1 6 5 4
M TOR 13 1 6 5 17
M TOR 14 2 1 0 9
M TOR 15 2 1 0 10
M TOR 16 2 1 0 11
M TOR 17 2 1 5 4
M TOR 18 2 1 5 6
M TOR 19 2 1 5 17
M TOR 20 2 3 4 5
M TOR 21 2 3 4 15
M TOR 22 2 3 4 16
M TOR 23 2 3 7 8
M TOR 24 2 3 7 18
M TOR 25 3 2 1 5
M TOR 26 3 2 1 6
M TOR 27 3 4 5 6
M TOR 28 3 4 5 17
M TOR 29 4 3 2 12
M TOR 30 4 3 2 13
M TOR 31 4 3 7 8
M TOR 32 4 3 7 18
M TOR 33 5 1 0 9
M TOR 34 5 1 0 10
M TOR 35 5 1 0 11
M TOR 36 5 1 2 12
M TOR 37 5 1 2 13
M TOR 38 5 4 3 7
M TOR 39 5 4 3 14
M TOR 40 6 1 0 9
M TOR 41 6 1 0 10
M TOR 42 6 1 0 11
M TOR 43 6 1 2 12
M TOR 44 6 1 2 13
M TOR 45 6 5 4 15
M TOR 46 6 5 4 16
M TOR 47 7 3 2 12
M TOR 48 7 3 2 13
M TOR 49 7 3 4 15
M TOR 50 7 3 4 16
M TOR 51 8 7 3 14
M  END
$$$$
