gdb 4857	2.8675719	1.3552062	1.2649389	2.4151	75.77	-0.23724	0.00255	0.23979	1086.1083	0.157445	-422.559051	-422.550711	-422.549767	-422.59147	32.917
 OpenBabel02181911413D

 19 20  0  0  1  0  0  0  0  0999 V2000
    1.0698    0.7615    0.5790 O   0  0  0  0  0  0  0  0  0  0  0  0
    0.1725   -0.3291    0.6109 C   0  0  0  0  0  0  0  0  0  0  0  0
   -1.2853    0.1548    0.5876 C   0  0  1  0  0  0  0  0  0  0  0  0
   -1.3635    0.9311   -0.6176 O   0  0  0  0  0  0  0  0  0  0  0  0
   -2.2785   -0.9958    0.6204 C   0  0  0  0  0  0  0  0  0  0  0  0
   -2.9966   -1.0086    1.7451 C   0  0  0  0  0  0  0  0  0  0  0  0
   -2.6770    0.1652    2.6144 C   0  0  2  0  0  0  0  0  0  0  0  0
   -3.0277    1.5061    1.9956 C   0  0  0  0  0  0  0  0  0  0  0  0
   -1.6308    0.9469    1.8531 C   0  0  2  0  0  0  0  0  0  0  0  0
    0.7512    1.3253   -0.1378 H   0  0  0  0  0  0  0  0  0  0  0  0
    0.3307   -1.0096   -0.2406 H   0  0  0  0  0  0  0  0  0  0  0  0
    0.3616   -0.8865    1.5327 H   0  0  0  0  0  0  0  0  0  0  0  0
   -2.1308    1.5080   -0.5428 H   0  0  0  0  0  0  0  0  0  0  0  0
   -2.3677   -1.6873   -0.2092 H   0  0  0  0  0  0  0  0  0  0  0  0
   -3.7606   -1.7354    1.9990 H   0  0  0  0  0  0  0  0  0  0  0  0
   -2.6610    0.0674    3.6936 H   0  0  0  0  0  0  0  0  0  0  0  0
   -3.7097    1.4990    1.1497 H   0  0  0  0  0  0  0  0  0  0  0  0
   -3.1425    2.3575    2.6584 H   0  0  0  0  0  0  0  0  0  0  0  0
   -0.8196    1.4610    2.3522 H   0  0  0  0  0  0  0  0  0  0  0  0
  1  2  1  0  0  0  0
  2 12  1  0  0  0  0
  3  4  1  6  0  0  0
  3  2  1  0  0  0  0
  3  5  1  0  0  0  0
  3  9  1  0  0  0  0
  4 13  1  0  0  0  0
  5  6  2  0  0  0  0
  6 15  1  0  0  0  0
  6  7  1  0  0  0  0
  7 16  1  1  0  0  0
  8  7  1  0  0  0  0
  8 18  1  0  0  0  0
  9  8  1  0  0  0  0
  9 19  1  1  0  0  0
  9  7  1  0  0  0  0
 10  1  1  0  0  0  0
 11  2  1  0  0  0  0
 14  5  1  0  0  0  0
 17  8  1  0  0  0  0
M TOR 0 0 1 2 3
M TOR 1 0 1 2 4
M TOR 2 0 1 2 8
M TOR 3 1 2 3 12
M TOR 4 1 2 4 5
M TOR 5 1 2 4 13
M TOR 6 1 2 8 6
M TOR 7 1 2 8 7
M TOR 8 1 2 8 18
M TOR 9 2 1 0 9
M TOR 10 2 4 5 6
M TOR 11 2 4 5 14
M TOR 12 2 8 6 5
M TOR 13 2 8 6 7
M TOR 14 2 8 6 15
M TOR 15 2 8 7 16
M TOR 16 2 8 7 17
M TOR 17 3 2 1 10
M TOR 18 3 2 1 11
M TOR 19 3 2 4 5
M TOR 20 3 2 4 13
M TOR 21 3 2 8 6
M TOR 22 3 2 8 7
M TOR 23 3 2 8 18
M TOR 24 4 2 1 10
M TOR 25 4 2 1 11
M TOR 26 4 2 3 12
M TOR 27 4 2 8 6
M TOR 28 4 2 8 7
M TOR 29 4 2 8 18
M TOR 30 4 5 6 7
M TOR 31 4 5 6 8
M TOR 32 4 5 6 15
M TOR 33 5 4 2 8
M TOR 34 5 6 7 8
M TOR 35 5 6 7 16
M TOR 36 5 6 7 17
M TOR 37 5 6 8 18
M TOR 38 6 5 4 13
M TOR 39 6 7 8 18
M TOR 40 6 8 7 16
M TOR 41 6 8 7 17
M TOR 42 7 6 5 14
M TOR 43 7 8 6 15
M TOR 44 8 2 1 10
M TOR 45 8 2 1 11
M TOR 46 8 2 3 12
M TOR 47 8 2 4 13
M TOR 48 8 6 5 14
M  END
$$$$
