gdb 869	3.2750013	1.2399936	1.0529651	2.6511	75.33	-0.24533	-0.02158	0.22375	1169.0397	0.157631	-422.559634	-422.551482	-422.550538	-422.593236	30.075
 OpenBabel02181911403D

 19 20  0  0  1  0  0  0  0  0999 V2000
    0.9073   -0.6784    0.3686 O   0  0  0  0  0  0  0  0  0  0  0  0
   -0.1374   -0.1356    0.1137 C   0  0  0  0  0  0  0  0  0  0  0  0
   -0.4174    0.6432   -1.1518 C   0  0  2  0  0  0  0  0  0  0  0  0
   -1.0642    2.0100   -0.8185 C   0  0  0  0  0  0  0  0  0  0  0  0
   -2.4555    1.7615   -0.6899 O   0  0  0  0  0  0  0  0  0  0  0  0
   -2.8147    0.7711   -1.6352 C   0  0  1  0  0  0  0  0  0  0  0  0
   -2.9213    1.2314   -3.1190 C   0  0  0  0  0  0  0  0  0  0  0  0
   -1.6455    0.4112   -3.4678 C   0  0  0  0  0  0  0  0  0  0  0  0
   -1.5268   -0.0424   -1.9814 C   0  0  1  0  0  0  0  0  0  0  0  0
   -0.9965   -0.1768    0.8229 H   0  0  0  0  0  0  0  0  0  0  0  0
    0.5183    0.7427   -1.7077 H   0  0  0  0  0  0  0  0  0  0  0  0
   -0.7161    2.4464    0.1226 H   0  0  0  0  0  0  0  0  0  0  0  0
   -0.8536    2.7291   -1.6245 H   0  0  0  0  0  0  0  0  0  0  0  0
   -3.6818    0.2396   -1.2385 H   0  0  0  0  0  0  0  0  0  0  0  0
   -3.8312    0.8993   -3.6237 H   0  0  0  0  0  0  0  0  0  0  0  0
   -2.8353    2.3137   -3.2432 H   0  0  0  0  0  0  0  0  0  0  0  0
   -1.8147   -0.4121   -4.1646 H   0  0  0  0  0  0  0  0  0  0  0  0
   -0.7984    0.9968   -3.8349 H   0  0  0  0  0  0  0  0  0  0  0  0
   -1.5639   -1.1218   -1.8228 H   0  0  0  0  0  0  0  0  0  0  0  0
  2  1  2  0  0  0  0
  2 10  1  0  0  0  0
  3 11  1  6  0  0  0
  3  4  1  0  0  0  0
  3  2  1  0  0  0  0
  4  5  1  0  0  0  0
  4 12  1  0  0  0  0
  6 14  1  1  0  0  0
  6  5  1  0  0  0  0
  7  6  1  0  0  0  0
  8  7  1  0  0  0  0
  8  9  1  0  0  0  0
  9 19  1  1  0  0  0
  9  6  1  0  0  0  0
  9  3  1  0  0  0  0
 13  4  1  0  0  0  0
 15  7  1  0  0  0  0
 16  7  1  0  0  0  0
 17  8  1  0  0  0  0
 18  8  1  0  0  0  0
M TOR 0 0 1 2 3
M TOR 1 0 1 2 8
M TOR 2 0 1 2 10
M TOR 3 1 2 3 4
M TOR 4 1 2 3 11
M TOR 5 1 2 3 12
M TOR 6 1 2 8 5
M TOR 7 1 2 8 7
M TOR 8 1 2 8 18
M TOR 9 2 3 4 5
M TOR 10 2 8 5 4
M TOR 11 2 8 5 6
M TOR 12 2 8 5 13
M TOR 13 2 8 7 6
M TOR 14 2 8 7 16
M TOR 15 2 8 7 17
M TOR 16 3 2 1 9
M TOR 17 3 2 8 5
M TOR 18 3 2 8 7
M TOR 19 3 2 8 18
M TOR 20 3 4 5 6
M TOR 21 3 4 5 8
M TOR 22 3 4 5 13
M TOR 23 4 3 2 8
M TOR 24 4 3 2 10
M TOR 25 4 5 6 7
M TOR 26 4 5 6 14
M TOR 27 4 5 6 15
M TOR 28 4 5 8 7
M TOR 29 4 5 8 18
M TOR 30 5 4 3 11
M TOR 31 5 4 3 12
M TOR 32 5 6 7 8
M TOR 33 5 6 7 16
M TOR 34 5 6 7 17
M TOR 35 5 8 2 10
M TOR 36 5 8 7 16
M TOR 37 5 8 7 17
M TOR 38 6 5 8 18
M TOR 39 6 7 8 18
M TOR 40 7 6 5 13
M TOR 41 7 8 2 10
M TOR 42 7 8 5 13
M TOR 43 8 2 1 9
M TOR 44 8 2 3 11
M TOR 45 8 2 3 12
M TOR 46 8 5 6 14
M TOR 47 8 5 6 15
M TOR 48 8 7 6 14
M TOR 49 8 7 6 15
M  END
$$$$
