gdb 4630	4.067204	0.6981073	0.6806866	2.1088	80.32	-0.24798	0.02925	0.27723000000000003	1726.9278	0.156901	-422.523672	-422.513994	-422.51305	-422.560931	33.225
 OpenBabel02181911413D

 19 19  0  0  1  0  0  0  0  0999 V2000
   -3.9018    3.3281    1.0882 O   0  0  0  0  0  0  0  0  0  0  0  0
   -3.3685    2.0229    0.9132 C   0  0  0  0  0  0  0  0  0  0  0  0
   -1.9143    2.0009    0.7609 C   0  0  0  0  0  0  0  0  0  0  0  0
   -0.7199    2.0326    0.6003 C   0  0  0  0  0  0  0  0  0  0  0  0
    0.7358    2.0622    0.4118 C   0  0  1  0  0  0  0  0  0  0  0  0
    1.4256    0.7845    0.9307 C   0  0  0  0  0  0  0  0  0  0  0  0
    1.2761   -0.1518   -0.2769 C   0  0  0  0  0  0  0  0  0  0  0  0
    1.3873    0.8187   -1.4669 C   0  0  0  0  0  0  0  0  0  0  0  0
    1.0944    2.1309   -0.9700 O   0  0  0  0  0  0  0  0  0  0  0  0
   -3.5480    3.8792    0.3822 H   0  0  0  0  0  0  0  0  0  0  0  0
   -3.6639    1.4590    1.8051 H   0  0  0  0  0  0  0  0  0  0  0  0
   -3.8290    1.5138    0.0510 H   0  0  0  0  0  0  0  0  0  0  0  0
    1.1368    2.9641    0.8877 H   0  0  0  0  0  0  0  0  0  0  0  0
    2.4796    1.0062    1.1252 H   0  0  0  0  0  0  0  0  0  0  0  0
    0.9736    0.3989    1.8456 H   0  0  0  0  0  0  0  0  0  0  0  0
    2.0329   -0.9387   -0.3067 H   0  0  0  0  0  0  0  0  0  0  0  0
    0.2922   -0.6293   -0.2606 H   0  0  0  0  0  0  0  0  0  0  0  0
    2.4007    0.8365   -1.8875 H   0  0  0  0  0  0  0  0  0  0  0  0
    0.6899    0.5669   -2.2743 H   0  0  0  0  0  0  0  0  0  0  0  0
  2  1  1  0  0  0  0
  2 11  1  0  0  0  0
  3  2  1  0  0  0  0
  4  3  3  0  0  0  0
  5  4  1  0  0  0  0
  5 13  1  1  0  0  0
  5  6  1  0  0  0  0
  6 14  1  0  0  0  0
  6 15  1  0  0  0  0
  7 17  1  0  0  0  0
  7  6  1  0  0  0  0
  8  9  1  0  0  0  0
  8  7  1  0  0  0  0
  9  5  1  0  0  0  0
 10  1  1  0  0  0  0
 12  2  1  0  0  0  0
 16  7  1  0  0  0  0
 18  8  1  0  0  0  0
 19  8  1  0  0  0  0
M TOR 0 0 1 2 3
M TOR 1 1 2 3 4
M TOR 2 2 1 0 9
M TOR 3 2 3 4 5
M TOR 4 2 3 4 8
M TOR 5 2 3 4 12
M TOR 6 3 2 1 10
M TOR 7 3 2 1 11
M TOR 8 3 4 5 6
M TOR 9 3 4 5 13
M TOR 10 3 4 5 14
M TOR 11 3 4 8 7
M TOR 12 4 5 6 7
M TOR 13 4 5 6 15
M TOR 14 4 5 6 16
M TOR 15 4 8 7 6
M TOR 16 4 8 7 17
M TOR 17 4 8 7 18
M TOR 18 5 4 8 7
M TOR 19 5 6 7 8
M TOR 20 5 6 7 17
M TOR 21 5 6 7 18
M TOR 22 6 5 4 8
M TOR 23 6 5 4 12
M TOR 24 7 6 5 13
M TOR 25 7 6 5 14
M TOR 26 7 8 4 12
M TOR 27 8 4 5 13
M TOR 28 8 4 5 14
M TOR 29 8 7 6 15
M TOR 30 8 7 6 16
M  END
$$$$
