gdb 4463	2.4988768	1.9568587	1.5502352	1.8117	73.16	-0.23354	0.05428	0.28782	935.4118	0.158683	-422.517175	-422.509743	-422.508799	-422.548502	30.265
 OpenBabel02181911413D

 19 21  0  0  1  0  0  0  0  0999 V2000
   -0.0472    0.3367   -0.4574 O   0  0  0  0  0  0  0  0  0  0  0  0
   -0.9331    0.4270    0.6481 C   0  0  2  0  0  0  0  0  0  0  0  0
   -2.2746   -0.2525    0.2666 C   0  0  0  0  0  0  0  0  0  0  0  0
   -3.0690    0.8093   -0.5623 C   0  0  0  0  0  0  0  0  0  0  0  0
   -2.5947    2.1357    0.0030 C   0  0  1  0  0  0  0  0  0  0  0  0
   -2.5789    2.3547    1.5070 C   0  0  0  0  0  0  0  0  0  0  0  0
   -1.3514    1.8724    0.8172 C   0  0  1  0  0  0  0  0  0  0  0  0
   -0.5993    2.9450    0.2175 O   0  0  0  0  0  0  0  0  0  0  0  0
   -1.7329    3.2055   -0.6769 C   0  0  0  0  0  0  0  0  0  0  0  0
    0.4008    1.1911   -0.5165 H   0  0  0  0  0  0  0  0  0  0  0  0
   -0.4802   -0.0329    1.5382 H   0  0  0  0  0  0  0  0  0  0  0  0
   -2.0847   -1.1725   -0.2913 H   0  0  0  0  0  0  0  0  0  0  0  0
   -2.8226   -0.5296    1.1735 H   0  0  0  0  0  0  0  0  0  0  0  0
   -2.7853    0.7443   -1.6173 H   0  0  0  0  0  0  0  0  0  0  0  0
   -4.1498    0.6467   -0.5033 H   0  0  0  0  0  0  0  0  0  0  0  0
   -2.5769    3.3673    1.8974 H   0  0  0  0  0  0  0  0  0  0  0  0
   -3.1349    1.6398    2.1029 H   0  0  0  0  0  0  0  0  0  0  0  0
   -2.0560    4.2506   -0.6145 H   0  0  0  0  0  0  0  0  0  0  0  0
   -1.4718    2.9550   -1.7105 H   0  0  0  0  0  0  0  0  0  0  0  0
  1  2  1  0  0  0  0
  2  7  1  0  0  0  0
  2 11  1  1  0  0  0
  3  2  1  0  0  0  0
  3 13  1  0  0  0  0
  4 15  1  0  0  0  0
  4  5  1  0  0  0  0
  4  3  1  0  0  0  0
  5  9  1  6  0  0  0
  5  7  1  0  0  0  0
  5  6  1  0  0  0  0
  6 16  1  0  0  0  0
  6 17  1  0  0  0  0
  7  8  1  6  0  0  0
  7  6  1  0  0  0  0
  9 18  1  0  0  0  0
  9  8  1  0  0  0  0
 10  1  1  0  0  0  0
 12  3  1  0  0  0  0
 14  4  1  0  0  0  0
 19  9  1  0  0  0  0
M TOR 0 0 1 2 3
M TOR 1 0 1 2 11
M TOR 2 0 1 2 12
M TOR 3 0 1 6 4
M TOR 4 0 1 6 5
M TOR 5 0 1 6 7
M TOR 6 1 2 3 4
M TOR 7 1 2 3 13
M TOR 8 1 2 3 14
M TOR 9 1 6 4 3
M TOR 10 1 6 4 5
M TOR 11 1 6 4 8
M TOR 12 1 6 5 15
M TOR 13 1 6 5 16
M TOR 14 1 6 7 8
M TOR 15 2 1 0 9
M TOR 16 2 1 6 4
M TOR 17 2 1 6 5
M TOR 18 2 1 6 7
M TOR 19 2 3 4 5
M TOR 20 2 3 4 6
M TOR 21 2 3 4 8
M TOR 22 3 2 1 6
M TOR 23 3 2 1 10
M TOR 24 3 4 5 6
M TOR 25 3 4 5 15
M TOR 26 3 4 5 16
M TOR 27 3 4 6 7
M TOR 28 3 4 8 7
M TOR 29 3 4 8 17
M TOR 30 3 4 8 18
M TOR 31 4 3 2 11
M TOR 32 4 3 2 12
M TOR 33 4 5 6 7
M TOR 34 4 6 1 10
M TOR 35 4 6 5 15
M TOR 36 4 6 5 16
M TOR 37 4 6 7 8
M TOR 38 5 4 3 13
M TOR 39 5 4 3 14
M TOR 40 5 4 8 7
M TOR 41 5 4 8 17
M TOR 42 5 4 8 18
M TOR 43 5 6 1 10
M TOR 44 5 6 4 8
M TOR 45 5 6 7 8
M TOR 46 6 1 0 9
M TOR 47 6 1 2 11
M TOR 48 6 1 2 12
M TOR 49 6 4 3 13
M TOR 50 6 4 3 14
M TOR 51 6 4 8 17
M TOR 52 6 4 8 18
M TOR 53 6 7 8 17
M TOR 54 6 7 8 18
M TOR 55 7 6 1 10
M TOR 56 7 6 5 15
M TOR 57 7 6 5 16
M TOR 58 8 4 3 13
M TOR 59 8 4 3 14
M TOR 60 8 4 5 15
M TOR 61 8 4 5 16
M  END
$$$$
