
     RDKit          3D

 19 19  0  0  0  0  0  0  0  0999 V2000
    0.2406    2.1553    1.5979 C   0  0  0  0  0  0  0  0  0  0  0  0
    1.0267    1.5482    0.4798 C   0  0  0  0  0  0  0  0  0  0  0  0
    1.2606    0.2580    0.1728 C   0  0  0  0  0  0  0  0  0  0  0  0
    0.7804   -0.9619    0.9037 C   0  0  0  0  0  0  0  0  0  0  0  0
    1.8296   -1.8918    1.1567 O   0  0  0  0  0  0  0  0  0  0  0  0
    2.1190    0.0938   -1.0658 C   0  0  0  0  0  0  0  0  0  0  0  0
    2.4031    1.5298   -1.5360 C   0  0  0  0  0  0  0  0  0  0  0  0
    1.6994    2.4277   -0.5128 C   0  0  0  0  0  0  0  0  0  0  0  0
    1.6954    3.6384   -0.5023 O   0  0  0  0  0  0  0  0  0  0  0  0
    0.0155    1.4426    2.3948 H   0  0  0  0  0  0  0  0  0  0  0  0
    0.7905    3.0023    2.0199 H   0  0  0  0  0  0  0  0  0  0  0  0
   -0.7091    2.5603    1.2293 H   0  0  0  0  0  0  0  0  0  0  0  0
    0.2543   -0.6881    1.8282 H   0  0  0  0  0  0  0  0  0  0  0  0
    0.0636   -1.5049    0.2743 H   0  0  0  0  0  0  0  0  0  0  0  0
    2.4537   -1.4689    1.7560 H   0  0  0  0  0  0  0  0  0  0  0  0
    3.0279   -0.4687   -0.8291 H   0  0  0  0  0  0  0  0  0  0  0  0
    1.5907   -0.5030   -1.8202 H   0  0  0  0  0  0  0  0  0  0  0  0
    3.4686    1.7755   -1.5661 H   0  0  0  0  0  0  0  0  0  0  0  0
    2.0055    1.7397   -2.5335 H   0  0  0  0  0  0  0  0  0  0  0  0
  1  2  1  0
  2  3  2  0
  3  4  1  0
  4  5  1  0
  3  6  1  0
  6  7  1  0
  7  8  1  0
  8  9  2  0
  8  2  1  0
  1 10  1  0
  1 11  1  0
  1 12  1  0
  4 13  1  0
  4 14  1  0
  5 15  1  0
  6 16  1  0
  6 17  1  0
  7 18  1  0
  7 19  1  0
M  END
$$$$
