gdb 2676	2.247431	1.9682765	1.4223086	1.7614	73.68	-0.23699	0.00215	0.23914000000000002	984.6528	0.158617	-422.564302	-422.556633	-422.555689	-422.596025	30.831
 OpenBabel02181911413D

 19 20  0  0  1  0  0  0  0  0999 V2000
    0.7617    0.8655   -0.3498 C   0  0  0  0  0  0  0  0  0  0  0  0
    0.9396   -0.6046    0.0198 C   0  0  1  0  0  0  0  0  0  0  0  0
    1.4847   -1.5469   -1.1065 C   0  0  2  0  0  0  0  0  0  0  0  0
    1.9528   -2.6615   -0.3270 O   0  0  0  0  0  0  0  0  0  0  0  0
    2.9231   -1.9135    0.4322 C   0  0  1  0  0  0  0  0  0  0  0  0
    3.6839   -1.1724   -0.6557 C   0  0  0  0  0  0  0  0  0  0  0  0
    2.7934   -0.9516   -1.6218 C   0  0  0  0  0  0  0  0  0  0  0  0
    1.9710   -0.9108    1.1604 C   0  0  2  0  0  0  0  0  0  0  0  0
    1.3769   -1.5068    2.2983 O   0  0  0  0  0  0  0  0  0  0  0  0
    0.3667    1.4320    0.4993 H   0  0  0  0  0  0  0  0  0  0  0  0
    1.7114    1.3222   -0.6440 H   0  0  0  0  0  0  0  0  0  0  0  0
    0.0584    0.9847   -1.1820 H   0  0  0  0  0  0  0  0  0  0  0  0
   -0.0218   -1.0078    0.3545 H   0  0  0  0  0  0  0  0  0  0  0  0
    0.7535   -1.8754   -1.8449 H   0  0  0  0  0  0  0  0  0  0  0  0
    3.4824   -2.5645    1.1031 H   0  0  0  0  0  0  0  0  0  0  0  0
    4.7092   -0.8367   -0.5851 H   0  0  0  0  0  0  0  0  0  0  0  0
    2.9131   -0.3923   -2.5392 H   0  0  0  0  0  0  0  0  0  0  0  0
    2.4859   -0.0176    1.5214 H   0  0  0  0  0  0  0  0  0  0  0  0
    0.9831   -2.3338    1.9938 H   0  0  0  0  0  0  0  0  0  0  0  0
  1  2  1  0  0  0  0
  1 10  1  0  0  0  0
  2 13  1  1  0  0  0
  2  8  1  0  0  0  0
  3 14  1  6  0  0  0
  3  4  1  0  0  0  0
  3  2  1  0  0  0  0
  4  5  1  0  0  0  0
  5 15  1  1  0  0  0
  5  8  1  0  0  0  0
  6 16  1  0  0  0  0
  6  5  1  0  0  0  0
  7  3  1  0  0  0  0
  7  6  2  0  0  0  0
  8 18  1  1  0  0  0
  8  9  1  0  0  0  0
 11  1  1  0  0  0  0
 12  1  1  0  0  0  0
 17  7  1  0  0  0  0
 19  9  1  0  0  0  0
M TOR 0 0 1 2 3
M TOR 1 0 1 2 6
M TOR 2 0 1 2 13
M TOR 3 0 1 7 4
M TOR 4 0 1 7 8
M TOR 5 0 1 7 17
M TOR 6 1 2 3 4
M TOR 7 1 2 6 5
M TOR 8 1 2 6 16
M TOR 9 1 7 4 3
M TOR 10 1 7 4 5
M TOR 11 1 7 4 14
M TOR 12 1 7 8 18
M TOR 13 2 1 0 9
M TOR 14 2 1 0 10
M TOR 15 2 1 0 11
M TOR 16 2 1 7 4
M TOR 17 2 1 7 8
M TOR 18 2 1 7 17
M TOR 19 2 3 4 5
M TOR 20 2 3 4 7
M TOR 21 2 3 4 14
M TOR 22 2 6 5 4
M TOR 23 2 6 5 15
M TOR 24 3 2 1 7
M TOR 25 3 2 1 12
M TOR 26 3 2 6 5
M TOR 27 3 2 6 16
M TOR 28 3 4 5 6
M TOR 29 3 4 5 15
M TOR 30 3 4 7 8
M TOR 31 3 4 7 17
M TOR 32 4 3 2 6
M TOR 33 4 3 2 13
M TOR 34 4 5 6 16
M TOR 35 4 7 1 12
M TOR 36 4 7 8 18
M TOR 37 5 4 7 8
M TOR 38 5 4 7 17
M TOR 39 5 6 2 13
M TOR 40 6 2 1 7
M TOR 41 6 2 1 12
M TOR 42 6 5 4 7
M TOR 43 6 5 4 14
M TOR 44 7 1 0 9
M TOR 45 7 1 0 10
M TOR 46 7 1 0 11
M TOR 47 7 1 2 13
M TOR 48 7 4 5 15
M TOR 49 8 7 1 12
M TOR 50 8 7 4 14
M  END
$$$$
