gdb 2326	2.6283475	1.6813237	1.5192878	1.0414	74.7	-0.24356	0.06552	0.30908	978.0465	0.156704	-422.499214	-422.491329	-422.490385	-422.531272	30.641
 OpenBabel02181911413D

 19 21  0  0  1  0  0  0  0  0999 V2000
    0.0034   -0.0262   -0.1356 C   0  0  0  0  0  0  0  0  0  0  0  0
    1.4996   -0.0325    0.0317 C   0  0  2  0  0  0  0  0  0  0  0  0
    2.1626   -0.7423    1.2456 C   0  0  0  0  0  0  0  0  0  0  0  0
    3.0543    0.5064    1.4293 C   0  0  2  0  0  0  0  0  0  0  0  0
    2.4646    1.5219    2.2848 O   0  0  0  0  0  0  0  0  0  0  0  0
    2.1116    2.3576    1.1498 C   0  0  0  0  0  0  0  0  0  0  0  0
    2.4238    1.2136    0.2053 C   0  0  2  0  0  0  0  0  0  0  0  0
    2.8673    0.9665   -1.2211 C   0  0  0  0  0  0  0  0  0  0  0  0
    2.2003   -0.3221   -1.2174 O   0  0  0  0  0  0  0  0  0  0  0  0
   -0.4904    0.2857    0.7904 H   0  0  0  0  0  0  0  0  0  0  0  0
   -0.3018    0.6463   -0.9432 H   0  0  0  0  0  0  0  0  0  0  0  0
   -0.3487   -1.0339   -0.3839 H   0  0  0  0  0  0  0  0  0  0  0  0
    1.5085   -0.9354    2.0997 H   0  0  0  0  0  0  0  0  0  0  0  0
    2.6923   -1.6562    0.9655 H   0  0  0  0  0  0  0  0  0  0  0  0
    4.1285    0.3933    1.6051 H   0  0  0  0  0  0  0  0  0  0  0  0
    1.0750    2.7123    1.1971 H   0  0  0  0  0  0  0  0  0  0  0  0
    2.7841    3.2233    1.0671 H   0  0  0  0  0  0  0  0  0  0  0  0
    2.4287    1.6427   -1.9687 H   0  0  0  0  0  0  0  0  0  0  0  0
    3.9444    0.8802   -1.4072 H   0  0  0  0  0  0  0  0  0  0  0  0
  1 10  1  0  0  0  0
  2  1  1  6  0  0  0
  2  7  1  0  0  0  0
  2  3  1  0  0  0  0
  3  4  1  0  0  0  0
  3 13  1  0  0  0  0
  4 15  1  1  0  0  0
  4  5  1  0  0  0  0
  6 16  1  0  0  0  0
  6  5  1  0  0  0  0
  7  8  1  6  0  0  0
  7  6  1  0  0  0  0
  7  4  1  0  0  0  0
  8  9  1  0  0  0  0
  9  2  1  0  0  0  0
 11  1  1  0  0  0  0
 12  1  1  0  0  0  0
 14  3  1  0  0  0  0
 17  6  1  0  0  0  0
 18  8  1  0  0  0  0
 19  8  1  0  0  0  0
M TOR 0 0 1 2 3
M TOR 1 0 1 2 12
M TOR 2 0 1 2 13
M TOR 3 0 1 6 3
M TOR 4 0 1 6 5
M TOR 5 0 1 6 7
M TOR 6 0 1 8 7
M TOR 7 1 2 3 4
M TOR 8 1 2 3 6
M TOR 9 1 2 3 14
M TOR 10 1 6 3 4
M TOR 11 1 6 3 14
M TOR 12 1 6 5 4
M TOR 13 1 6 5 15
M TOR 14 1 6 5 16
M TOR 15 1 6 7 8
M TOR 16 1 6 7 17
M TOR 17 1 6 7 18
M TOR 18 1 8 7 17
M TOR 19 1 8 7 18
M TOR 20 2 1 0 9
M TOR 21 2 1 0 10
M TOR 22 2 1 0 11
M TOR 23 2 1 6 5
M TOR 24 2 1 6 7
M TOR 25 2 1 8 7
M TOR 26 2 3 4 5
M TOR 27 2 3 6 5
M TOR 28 2 3 6 7
M TOR 29 3 2 1 8
M TOR 30 3 4 5 6
M TOR 31 3 4 5 15
M TOR 32 3 4 5 16
M TOR 33 3 6 1 8
M TOR 34 3 6 5 15
M TOR 35 3 6 5 16
M TOR 36 3 6 7 8
M TOR 37 3 6 7 17
M TOR 38 3 6 7 18
M TOR 39 4 3 2 12
M TOR 40 4 3 2 13
M TOR 41 4 3 6 7
M TOR 42 4 5 6 7
M TOR 43 5 4 3 14
M TOR 44 5 6 1 8
M TOR 45 5 6 3 14
M TOR 46 5 6 7 8
M TOR 47 5 6 7 17
M TOR 48 5 6 7 18
M TOR 49 6 1 0 9
M TOR 50 6 1 0 10
M TOR 51 6 1 0 11
M TOR 52 6 1 2 12
M TOR 53 6 1 2 13
M TOR 54 6 3 2 12
M TOR 55 6 3 2 13
M TOR 56 7 6 3 14
M TOR 57 7 6 5 15
M TOR 58 7 6 5 16
M TOR 59 8 1 0 9
M TOR 60 8 1 0 10
M TOR 61 8 1 0 11
M TOR 62 8 1 2 12
M TOR 63 8 1 2 13
M  END
$$$$
