gdb 3397	2.9563515	1.6698463	1.466077	0.1632	72.71	-0.23765	0.05942	0.29707	959.5116	0.159625	-422.534553	-422.527487	-422.526543	-422.565569	29.021
 OpenBabel02181911413D

 19 21  0  0  1  0  0  0  0  0999 V2000
    0.4109   -0.0758    0.5592 O   0  0  0  0  0  0  0  0  0  0  0  0
   -0.8574    0.5122    0.7749 C   0  0  1  0  0  0  0  0  0  0  0  0
   -1.4569    0.3131    2.1996 C   0  0  2  0  0  0  0  0  0  0  0  0
   -2.9860    0.4520    2.1443 C   0  0  0  0  0  0  0  0  0  0  0  0
   -3.3366    1.7095    1.3035 C   0  0  0  0  0  0  0  0  0  0  0  0
   -2.1678    2.6789    1.4552 C   0  0  1  0  0  0  0  0  0  0  0  0
   -1.8195    2.7208    2.8757 O   0  0  0  0  0  0  0  0  0  0  0  0
   -0.8336    1.7156    2.6100 C   0  0  2  0  0  0  0  0  0  0  0  0
   -0.7873    2.0187    1.0960 C   0  0  1  0  0  0  0  0  0  0  0  0
    1.0071    0.2102    1.2598 H   0  0  0  0  0  0  0  0  0  0  0  0
   -1.4721    0.1836   -0.0678 H   0  0  0  0  0  0  0  0  0  0  0  0
   -1.1239   -0.5744    2.7425 H   0  0  0  0  0  0  0  0  0  0  0  0
   -3.4378   -0.4488    1.7175 H   0  0  0  0  0  0  0  0  0  0  0  0
   -3.3757    0.5685    3.1589 H   0  0  0  0  0  0  0  0  0  0  0  0
   -3.4885    1.4654    0.2460 H   0  0  0  0  0  0  0  0  0  0  0  0
   -4.2591    2.1750    1.6634 H   0  0  0  0  0  0  0  0  0  0  0  0
   -2.3558    3.6795    1.0586 H   0  0  0  0  0  0  0  0  0  0  0  0
   -0.0003    1.7324    3.3156 H   0  0  0  0  0  0  0  0  0  0  0  0
   -0.0521    2.6555    0.6022 H   0  0  0  0  0  0  0  0  0  0  0  0
  1  2  1  0  0  0  0
  1 10  1  0  0  0  0
  2 11  1  6  0  0  0
  2  9  1  0  0  0  0
  2  3  1  0  0  0  0
  3  8  1  0  0  0  0
  3 12  1  1  0  0  0
  4  3  1  0  0  0  0
  4 14  1  0  0  0  0
  5  6  1  0  0  0  0
  5 16  1  0  0  0  0
  5  4  1  0  0  0  0
  6 17  1  6  0  0  0
  6  7  1  0  0  0  0
  8  7  1  0  0  0  0
  8 18  1  1  0  0  0
  9 19  1  6  0  0  0
  9  6  1  0  0  0  0
  9  8  1  0  0  0  0
 13  4  1  0  0  0  0
 15  5  1  0  0  0  0
M TOR 0 0 1 2 3
M TOR 1 0 1 2 7
M TOR 2 0 1 2 11
M TOR 3 0 1 8 5
M TOR 4 0 1 8 7
M TOR 5 0 1 8 18
M TOR 6 1 2 3 4
M TOR 7 1 2 3 12
M TOR 8 1 2 3 13
M TOR 9 1 2 7 6
M TOR 10 1 2 7 8
M TOR 11 1 2 7 17
M TOR 12 1 8 5 4
M TOR 13 1 8 5 6
M TOR 14 1 8 5 16
M TOR 15 1 8 7 6
M TOR 16 1 8 7 17
M TOR 17 2 1 0 9
M TOR 18 2 1 8 5
M TOR 19 2 1 8 18
M TOR 20 2 3 4 5
M TOR 21 2 3 4 14
M TOR 22 2 3 4 15
M TOR 23 2 7 6 5
M TOR 24 2 7 8 5
M TOR 25 2 7 8 18
M TOR 26 3 2 1 8
M TOR 27 3 2 1 10
M TOR 28 3 2 7 6
M TOR 29 3 2 7 8
M TOR 30 3 2 7 17
M TOR 31 3 4 5 6
M TOR 32 3 4 5 8
M TOR 33 3 4 5 16
M TOR 34 4 3 2 7
M TOR 35 4 3 2 11
M TOR 36 4 5 6 7
M TOR 37 4 5 8 7
M TOR 38 4 5 8 18
M TOR 39 5 4 3 12
M TOR 40 5 4 3 13
M TOR 41 5 6 7 8
M TOR 42 5 6 7 17
M TOR 43 5 8 1 10
M TOR 44 5 8 7 17
M TOR 45 6 5 4 14
M TOR 46 6 5 4 15
M TOR 47 6 5 8 18
M TOR 48 6 7 2 11
M TOR 49 6 7 8 18
M TOR 50 7 2 1 10
M TOR 51 7 2 3 12
M TOR 52 7 2 3 13
M TOR 53 7 6 5 16
M TOR 54 7 8 1 10
M TOR 55 7 8 5 16
M TOR 56 8 1 0 9
M TOR 57 8 1 2 11
M TOR 58 8 5 4 14
M TOR 59 8 5 4 15
M TOR 60 8 7 2 11
M  END
$$$$
