gdb 2116	2.7032607	1.7032748	1.2997861	1.1966	74.58	-0.22745	0.06656	0.29401	1027.4939	0.156794	-422.533289	-422.525236	-422.524292	-422.565168	31.953
 OpenBabel02181911403D

 19 21  0  0  1  0  0  0  0  0999 V2000
   -0.0396   -0.2300   -0.1465 C   0  0  0  0  0  0  0  0  0  0  0  0
    1.3018    0.4344   -0.0315 C   0  0  2  0  0  0  0  0  0  0  0  0
    1.9063    0.9992    1.2595 C   0  0  0  0  0  0  0  0  0  0  0  0
    3.3277    0.8065    0.6352 C   0  0  2  0  0  0  0  0  0  0  0  0
    4.3179    0.1759    1.3930 O   0  0  0  0  0  0  0  0  0  0  0  0
    3.7457    2.0873   -0.1031 C   0  0  0  0  0  0  0  0  0  0  0  0
    2.6831    2.3156   -1.0302 O   0  0  0  0  0  0  0  0  0  0  0  0
    2.0215    1.0744   -1.2047 C   0  0  1  0  0  0  0  0  0  0  0  0
    2.6902   -0.0472   -0.4912 C   0  0  2  0  0  0  0  0  0  0  0  0
   -0.1476   -1.0375    0.5869 H   0  0  0  0  0  0  0  0  0  0  0  0
   -0.8507    0.4876    0.0249 H   0  0  0  0  0  0  0  0  0  0  0  0
   -0.1853   -0.6637   -1.1417 H   0  0  0  0  0  0  0  0  0  0  0  0
    1.6144    2.0108    1.5653 H   0  0  0  0  0  0  0  0  0  0  0  0
    1.7713    0.3015    2.0911 H   0  0  0  0  0  0  0  0  0  0  0  0
    4.5391    0.7461    2.1375 H   0  0  0  0  0  0  0  0  0  0  0  0
    3.8266    2.9608    0.5548 H   0  0  0  0  0  0  0  0  0  0  0  0
    4.7034    1.9368   -0.6240 H   0  0  0  0  0  0  0  0  0  0  0  0
    1.5980    0.9524   -2.1949 H   0  0  0  0  0  0  0  0  0  0  0  0
    3.0538   -0.9827   -0.8957 H   0  0  0  0  0  0  0  0  0  0  0  0
  1 11  1  0  0  0  0
  1 10  1  0  0  0  0
  2  1  1  6  0  0  0
  2  3  1  0  0  0  0
  3 13  1  0  0  0  0
  3 14  1  0  0  0  0
  4  3  1  0  0  0  0
  4  5  1  1  0  0  0
  5 15  1  0  0  0  0
  6 16  1  0  0  0  0
  6  4  1  0  0  0  0
  7  6  1  0  0  0  0
  8 18  1  6  0  0  0
  8  7  1  0  0  0  0
  8  9  1  0  0  0  0
  8  2  1  0  0  0  0
  9 19  1  6  0  0  0
  9  2  1  0  0  0  0
  9  4  1  0  0  0  0
 12  1  1  0  0  0  0
 17  6  1  0  0  0  0
M TOR 0 0 1 2 3
M TOR 1 0 1 2 12
M TOR 2 0 1 2 13
M TOR 3 0 1 7 6
M TOR 4 0 1 7 8
M TOR 5 0 1 7 17
M TOR 6 0 1 8 3
M TOR 7 0 1 8 18
M TOR 8 1 2 3 4
M TOR 9 1 2 3 5
M TOR 10 1 2 3 8
M TOR 11 1 7 6 5
M TOR 12 1 7 8 3
M TOR 13 1 7 8 18
M TOR 14 1 8 3 4
M TOR 15 1 8 3 5
M TOR 16 1 8 7 6
M TOR 17 1 8 7 17
M TOR 18 2 1 0 9
M TOR 19 2 1 0 10
M TOR 20 2 1 0 11
M TOR 21 2 1 7 6
M TOR 22 2 1 7 8
M TOR 23 2 1 7 17
M TOR 24 2 1 8 18
M TOR 25 2 3 4 14
M TOR 26 2 3 5 6
M TOR 27 2 3 5 15
M TOR 28 2 3 5 16
M TOR 29 2 3 8 7
M TOR 30 2 3 8 18
M TOR 31 3 2 1 7
M TOR 32 3 5 6 7
M TOR 33 3 8 7 6
M TOR 34 3 8 7 17
M TOR 35 4 3 2 12
M TOR 36 4 3 2 13
M TOR 37 4 3 5 6
M TOR 38 4 3 5 15
M TOR 39 4 3 5 16
M TOR 40 4 3 8 7
M TOR 41 4 3 8 18
M TOR 42 5 3 2 12
M TOR 43 5 3 2 13
M TOR 44 5 3 4 14
M TOR 45 5 3 8 7
M TOR 46 5 3 8 18
M TOR 47 5 6 7 8
M TOR 48 5 6 7 17
M TOR 49 6 5 3 8
M TOR 50 6 7 8 18
M TOR 51 7 1 0 9
M TOR 52 7 1 0 10
M TOR 53 7 1 0 11
M TOR 54 7 1 2 12
M TOR 55 7 1 2 13
M TOR 56 7 6 5 15
M TOR 57 7 6 5 16
M TOR 58 8 1 0 9
M TOR 59 8 1 0 10
M TOR 60 8 1 0 11
M TOR 61 8 1 2 12
M TOR 62 8 1 2 13
M TOR 63 8 3 2 12
M TOR 64 8 3 2 13
M TOR 65 8 3 4 14
M TOR 66 8 3 5 15
M TOR 67 8 3 5 16
M  END
$$$$
