gdb 2512	2.3830559	1.7872327	1.347131	2.0992	76.35	-0.22676	0.01531	0.24206999999999998	1037.5165	0.157323	-422.562491	-422.554231	-422.553287	-422.595043	31.26
 OpenBabel02181911413D

 19 20  0  0  1  0  0  0  0  0999 V2000
   -0.1084   -2.5992   -0.1652 C   0  0  0  0  0  0  0  0  0  0  0  0
   -0.6539   -1.2279    0.0502 C   0  0  0  0  0  0  0  0  0  0  0  0
   -0.1273   -0.0180   -0.1870 C   0  0  0  0  0  0  0  0  0  0  0  0
    1.1876    0.3986   -0.7508 C   0  0  0  0  0  0  0  0  0  0  0  0
   -1.2843    0.9447    0.0867 C   0  0  1  0  0  0  0  0  0  0  0  0
   -2.1974    0.8308   -1.0363 O   0  0  0  0  0  0  0  0  0  0  0  0
   -2.8247   -0.4393   -0.8246 C   0  0  0  0  0  0  0  0  0  0  0  0
   -2.0961   -0.9394    0.4640 C   0  0  2  0  0  0  0  0  0  0  0  0
   -1.9793    0.3250    1.1422 O   0  0  0  0  0  0  0  0  0  0  0  0
   -0.1439   -3.1928    0.7571 H   0  0  0  0  0  0  0  0  0  0  0  0
   -0.6921   -3.1506   -0.9142 H   0  0  0  0  0  0  0  0  0  0  0  0
    0.9289   -2.5735   -0.5096 H   0  0  0  0  0  0  0  0  0  0  0  0
    1.7088    1.0956   -0.0825 H   0  0  0  0  0  0  0  0  0  0  0  0
    1.8471   -0.4557   -0.9258 H   0  0  0  0  0  0  0  0  0  0  0  0
    1.0517    0.9197   -1.7070 H   0  0  0  0  0  0  0  0  0  0  0  0
   -1.0812    1.9971    0.2792 H   0  0  0  0  0  0  0  0  0  0  0  0
   -3.8959   -0.2959   -0.6469 H   0  0  0  0  0  0  0  0  0  0  0  0
   -2.6760   -1.0958   -1.6884 H   0  0  0  0  0  0  0  0  0  0  0  0
   -2.6232   -1.6742    1.0707 H   0  0  0  0  0  0  0  0  0  0  0  0
  1  2  1  0  0  0  0
  1 10  1  0  0  0  0
  2  8  1  0  0  0  0
  3  2  2  0  0  0  0
  3  5  1  0  0  0  0
  4  3  1  0  0  0  0
  4 13  1  0  0  0  0
  5 16  1  1  0  0  0
  5  9  1  0  0  0  0
  6  7  1  0  0  0  0
  6  5  1  0  0  0  0
  7 17  1  0  0  0  0
  7  8  1  0  0  0  0
  8 19  1  1  0  0  0
  8  9  1  0  0  0  0
 11  1  1  0  0  0  0
 12  1  1  0  0  0  0
 14  4  1  0  0  0  0
 15  4  1  0  0  0  0
 18  7  1  0  0  0  0
M TOR 0 0 1 2 3
M TOR 1 0 1 2 4
M TOR 2 0 1 7 6
M TOR 3 0 1 7 8
M TOR 4 0 1 7 18
M TOR 5 1 2 3 12
M TOR 6 1 2 3 13
M TOR 7 1 2 3 14
M TOR 8 1 2 4 5
M TOR 9 1 2 4 8
M TOR 10 1 2 4 15
M TOR 11 1 7 6 5
M TOR 12 1 7 6 16
M TOR 13 1 7 6 17
M TOR 14 1 7 8 4
M TOR 15 2 1 0 9
M TOR 16 2 1 0 10
M TOR 17 2 1 0 11
M TOR 18 2 1 7 6
M TOR 19 2 1 7 8
M TOR 20 2 1 7 18
M TOR 21 2 4 5 6
M TOR 22 2 4 8 7
M TOR 23 3 2 1 7
M TOR 24 3 2 4 5
M TOR 25 3 2 4 8
M TOR 26 3 2 4 15
M TOR 27 4 2 1 7
M TOR 28 4 2 3 12
M TOR 29 4 2 3 13
M TOR 30 4 2 3 14
M TOR 31 4 5 6 7
M TOR 32 4 5 6 16
M TOR 33 4 5 6 17
M TOR 34 4 8 7 6
M TOR 35 4 8 7 18
M TOR 36 5 4 8 7
M TOR 37 5 6 7 8
M TOR 38 5 6 7 18
M TOR 39 6 5 4 8
M TOR 40 6 5 4 15
M TOR 41 7 1 0 9
M TOR 42 7 1 0 10
M TOR 43 7 1 0 11
M TOR 44 7 8 4 15
M TOR 45 8 7 6 16
M TOR 46 8 7 6 17
M  END
$$$$
