gdb 2329	2.5013896	1.7557441	1.5419969	1.8253	74.48	-0.23968	0.0613	0.30098	971.9573	0.156817	-422.497186	-422.489334	-422.48839	-422.529224	30.566
 OpenBabel02181911413D

 19 21  0  0  1  0  0  0  0  0999 V2000
   -0.0499    0.1356   -0.1434 C   0  0  0  0  0  0  0  0  0  0  0  0
    1.4569    0.0153   -0.1140 C   0  0  1  0  0  0  0  0  0  0  0  0
    2.2543    1.2702    0.3506 C   0  0  0  0  0  0  0  0  0  0  0  0
    2.7837    0.5763    1.5203 O   0  0  0  0  0  0  0  0  0  0  0  0
    2.2644   -0.6403    1.0395 C   0  0  1  0  0  0  0  0  0  0  0  0
    1.8331   -1.8856    1.7832 C   0  0  0  0  0  0  0  0  0  0  0  0
    2.1827   -2.6738    0.6101 O   0  0  0  0  0  0  0  0  0  0  0  0
    2.9319   -1.5840    0.0032 C   0  0  1  0  0  0  0  0  0  0  0  0
    2.1779   -0.8958   -1.1584 C   0  0  0  0  0  0  0  0  0  0  0  0
   -0.4301    0.6325    0.7559 H   0  0  0  0  0  0  0  0  0  0  0  0
   -0.3797    0.7198   -1.0111 H   0  0  0  0  0  0  0  0  0  0  0  0
   -0.5204   -0.8508   -0.2124 H   0  0  0  0  0  0  0  0  0  0  0  0
    3.0565    1.6022   -0.3191 H   0  0  0  0  0  0  0  0  0  0  0  0
    1.6458    2.1304    0.6488 H   0  0  0  0  0  0  0  0  0  0  0  0
    2.4648   -2.1403    2.6455 H   0  0  0  0  0  0  0  0  0  0  0  0
    0.7769   -1.9883    2.0570 H   0  0  0  0  0  0  0  0  0  0  0  0
    3.9996   -1.8050   -0.0771 H   0  0  0  0  0  0  0  0  0  0  0  0
    2.8168   -0.3684   -1.8737 H   0  0  0  0  0  0  0  0  0  0  0  0
    1.5154   -1.5735   -1.7028 H   0  0  0  0  0  0  0  0  0  0  0  0
  1 10  1  0  0  0  0
  2  1  1  1  0  0  0
  2  3  1  0  0  0  0
  2  5  1  0  0  0  0
  3 14  1  0  0  0  0
  3  4  1  0  0  0  0
  5  4  1  1  0  0  0
  5  6  1  0  0  0  0
  6 16  1  0  0  0  0
  6 15  1  0  0  0  0
  7  6  1  0  0  0  0
  8 17  1  6  0  0  0
  8  7  1  0  0  0  0
  8  5  1  0  0  0  0
  9  2  1  0  0  0  0
  9  8  1  0  0  0  0
 11  1  1  0  0  0  0
 12  1  1  0  0  0  0
 13  3  1  0  0  0  0
 18  9  1  0  0  0  0
 19  9  1  0  0  0  0
M TOR 0 0 1 2 3
M TOR 1 0 1 2 12
M TOR 2 0 1 2 13
M TOR 3 0 1 4 3
M TOR 4 0 1 4 5
M TOR 5 0 1 4 7
M TOR 6 0 1 8 7
M TOR 7 0 1 8 17
M TOR 8 0 1 8 18
M TOR 9 1 2 3 4
M TOR 10 1 4 5 6
M TOR 11 1 4 5 14
M TOR 12 1 4 5 15
M TOR 13 1 4 7 6
M TOR 14 1 4 7 8
M TOR 15 1 4 7 16
M TOR 16 1 8 7 6
M TOR 17 1 8 7 16
M TOR 18 2 1 0 9
M TOR 19 2 1 0 10
M TOR 20 2 1 0 11
M TOR 21 2 1 4 5
M TOR 22 2 1 4 7
M TOR 23 2 1 8 7
M TOR 24 2 1 8 17
M TOR 25 2 1 8 18
M TOR 26 2 3 4 5
M TOR 27 2 3 4 7
M TOR 28 3 2 1 8
M TOR 29 3 4 1 8
M TOR 30 3 4 5 6
M TOR 31 3 4 5 14
M TOR 32 3 4 5 15
M TOR 33 3 4 7 6
M TOR 34 3 4 7 8
M TOR 35 3 4 7 16
M TOR 36 4 1 0 9
M TOR 37 4 1 0 10
M TOR 38 4 1 0 11
M TOR 39 4 1 2 12
M TOR 40 4 1 2 13
M TOR 41 4 1 8 17
M TOR 42 4 1 8 18
M TOR 43 4 3 2 12
M TOR 44 4 3 2 13
M TOR 45 4 5 6 7
M TOR 46 4 7 8 17
M TOR 47 4 7 8 18
M TOR 48 5 4 1 8
M TOR 49 5 4 7 8
M TOR 50 5 4 7 16
M TOR 51 5 6 7 8
M TOR 52 5 6 7 16
M TOR 53 6 7 8 17
M TOR 54 6 7 8 18
M TOR 55 7 4 5 14
M TOR 56 7 4 5 15
M TOR 57 7 6 5 14
M TOR 58 7 6 5 15
M TOR 59 8 1 0 9
M TOR 60 8 1 0 10
M TOR 61 8 1 0 11
M TOR 62 8 1 2 12
M TOR 63 8 1 2 13
M  END
$$$$
