
     RDKit          3D

 19 20  0  0  0  0  0  0  0  0999 V2000
   -1.6010    3.1590    1.2913 C   0  0  0  0  0  0  0  0  0  0  0  0
   -0.4473    2.4144    0.6629 C   0  0  0  0  0  0  0  0  0  0  0  0
   -0.2492    2.4198   -0.8302 C   0  0  0  0  0  0  0  0  0  0  0  0
   -0.7269    1.1616   -0.1689 C   0  0  0  0  0  0  0  0  0  0  0  0
   -2.0422    0.7280   -0.3915 O   0  0  0  0  0  0  0  0  0  0  0  0
   -2.1652   -0.5709    0.2071 C   0  0  0  0  0  0  0  0  0  0  0  0
   -0.7997   -1.2398    0.0131 C   0  0  0  0  0  0  0  0  0  0  0  0
    0.1474   -0.0355    0.0054 C   0  0  0  0  0  0  0  0  0  0  0  0
    1.3470   -0.0366    0.1321 O   0  0  0  0  0  0  0  0  0  0  0  0
   -1.8127    2.7836    2.2980 H   0  0  0  0  0  0  0  0  0  0  0  0
   -1.3767    4.2278    1.3738 H   0  0  0  0  0  0  0  0  0  0  0  0
   -2.5090    3.0423    0.6941 H   0  0  0  0  0  0  0  0  0  0  0  0
    0.4646    2.3532    1.2514 H   0  0  0  0  0  0  0  0  0  0  0  0
   -0.9875    2.9396   -1.4322 H   0  0  0  0  0  0  0  0  0  0  0  0
    0.7614    2.4097   -1.2246 H   0  0  0  0  0  0  0  0  0  0  0  0
   -2.4052   -0.4753    1.2764 H   0  0  0  0  0  0  0  0  0  0  0  0
   -2.9907   -1.0818   -0.2918 H   0  0  0  0  0  0  0  0  0  0  0  0
   -0.5246   -1.9636    0.7820 H   0  0  0  0  0  0  0  0  0  0  0  0
   -0.7313   -1.7333   -0.9634 H   0  0  0  0  0  0  0  0  0  0  0  0
  1  2  1  0
  2  3  1  0
  3  4  1  0
  4  5  1  0
  5  6  1  0
  6  7  1  0
  7  8  1  0
  8  9  2  0
  4  2  1  0
  8  4  1  0
  1 10  1  0
  1 11  1  0
  1 12  1  0
  2 13  1  0
  3 14  1  0
  3 15  1  0
  6 16  1  0
  6 17  1  0
  7 18  1  0
  7 19  1  0
M  END
$$$$
