gdb 2209	2.8542575	1.7504789	1.6314234	2.1596	73.54	-0.22908	0.08306	0.31214	938.4301	0.159315	-422.566614	-422.559358	-422.558414	-422.597913	29.126
 OpenBabel02181911413D

 19 21  0  0  1  0  0  0  0  0999 V2000
   -0.0153   -0.1429   -0.0287 C   0  0  0  0  0  0  0  0  0  0  0  0
    1.4684    0.0401    0.0626 C   0  0  2  0  0  0  0  0  0  0  0  0
    2.0582   -0.6940    1.1264 O   0  0  0  0  0  0  0  0  0  0  0  0
    3.3952   -0.2271    1.2019 C   0  0  2  0  0  0  0  0  0  0  0  0
    3.2944    1.2965    0.9876 C   0  0  0  0  0  0  0  0  0  0  0  0
    2.2322    1.3347   -0.0962 C   0  0  1  0  0  0  0  0  0  0  0  0
    2.3881    0.2132   -1.1186 C   0  0  1  0  0  0  0  0  0  0  0  0
    3.6884   -0.5731   -1.1244 C   0  0  0  0  0  0  0  0  0  0  0  0
    4.1841   -0.8187    0.1968 O   0  0  0  0  0  0  0  0  0  0  0  0
   -0.4994    0.1573    0.9062 H   0  0  0  0  0  0  0  0  0  0  0  0
   -0.4254    0.4625   -0.8418 H   0  0  0  0  0  0  0  0  0  0  0  0
   -0.2677   -1.1908   -0.2209 H   0  0  0  0  0  0  0  0  0  0  0  0
    3.8196   -0.5483    2.1532 H   0  0  0  0  0  0  0  0  0  0  0  0
    2.9491    1.8016    1.8956 H   0  0  0  0  0  0  0  0  0  0  0  0
    4.2632    1.7108    0.6977 H   0  0  0  0  0  0  0  0  0  0  0  0
    1.7435    2.2625   -0.3686 H   0  0  0  0  0  0  0  0  0  0  0  0
    1.9361    0.3608   -2.0948 H   0  0  0  0  0  0  0  0  0  0  0  0
    3.5389   -1.5461   -1.6105 H   0  0  0  0  0  0  0  0  0  0  0  0
    4.4600   -0.0363   -1.6950 H   0  0  0  0  0  0  0  0  0  0  0  0
  1 10  1  0  0  0  0
  2  1  1  6  0  0  0
  2  3  1  0  0  0  0
  3  4  1  0  0  0  0
  4 13  1  1  0  0  0
  5  4  1  0  0  0  0
  5 14  1  0  0  0  0
  6 16  1  6  0  0  0
  6  2  1  0  0  0  0
  6  5  1  0  0  0  0
  7 17  1  6  0  0  0
  7  6  1  0  0  0  0
  7  2  1  0  0  0  0
  8  7  1  0  0  0  0
  8  9  1  0  0  0  0
  9  4  1  0  0  0  0
 11  1  1  0  0  0  0
 12  1  1  0  0  0  0
 15  5  1  0  0  0  0
 18  8  1  0  0  0  0
 19  8  1  0  0  0  0
M TOR 0 0 1 2 3
M TOR 1 0 1 5 4
M TOR 2 0 1 5 6
M TOR 3 0 1 5 15
M TOR 4 0 1 6 7
M TOR 5 0 1 6 16
M TOR 6 1 2 3 4
M TOR 7 1 2 3 8
M TOR 8 1 2 3 12
M TOR 9 1 5 4 3
M TOR 10 1 5 4 13
M TOR 11 1 5 4 14
M TOR 12 1 5 6 7
M TOR 13 1 5 6 16
M TOR 14 1 6 5 4
M TOR 15 1 6 5 15
M TOR 16 1 6 7 8
M TOR 17 1 6 7 17
M TOR 18 1 6 7 18
M TOR 19 2 1 0 9
M TOR 20 2 1 0 10
M TOR 21 2 1 0 11
M TOR 22 2 1 5 4
M TOR 23 2 1 5 6
M TOR 24 2 1 5 15
M TOR 25 2 1 6 7
M TOR 26 2 1 6 16
M TOR 27 2 3 4 5
M TOR 28 2 3 4 13
M TOR 29 2 3 4 14
M TOR 30 2 3 8 7
M TOR 31 3 2 1 5
M TOR 32 3 2 1 6
M TOR 33 3 4 5 6
M TOR 34 3 4 5 15
M TOR 35 3 8 7 6
M TOR 36 3 8 7 17
M TOR 37 3 8 7 18
M TOR 38 4 3 8 7
M TOR 39 4 5 6 7
M TOR 40 4 5 6 16
M TOR 41 5 1 0 9
M TOR 42 5 1 0 10
M TOR 43 5 1 0 11
M TOR 44 5 4 3 8
M TOR 45 5 4 3 12
M TOR 46 5 6 7 8
M TOR 47 5 6 7 17
M TOR 48 5 6 7 18
M TOR 49 6 1 0 9
M TOR 50 6 1 0 10
M TOR 51 6 1 0 11
M TOR 52 6 5 4 13
M TOR 53 6 5 4 14
M TOR 54 7 6 5 15
M TOR 55 7 8 3 12
M TOR 56 8 3 4 13
M TOR 57 8 3 4 14
M TOR 58 8 7 6 16
M  END
$$$$
