gdb 623	3.0799106	1.5809018	1.1778661	2.691	77.47	-0.24727	0.0064	0.25367	1069.7411	0.159664	-422.565901	-422.558312	-422.557368	-422.598356	29.069
 OpenBabel02181911403D

 19 20  0  0  1  0  0  0  0  0999 V2000
   -0.8794   -0.2538    0.0263 C   0  0  0  0  0  0  0  0  0  0  0  0
    0.6428   -0.1224    0.2803 C   0  0  0  0  0  0  0  0  0  0  0  0
    0.6779    1.2543    0.8699 C   0  0  0  0  0  0  0  0  0  0  0  0
    1.2307    1.7175    1.9854 C   0  0  0  0  0  0  0  0  0  0  0  0
    0.7736    3.0455    2.5388 C   0  0  0  0  0  0  0  0  0  0  0  0
   -0.6924    3.2439    2.1405 C   0  0  0  0  0  0  0  0  0  0  0  0
   -0.8529    3.1807    0.7268 O   0  0  0  0  0  0  0  0  0  0  0  0
   -0.3603    2.0345    0.1027 C   0  0  2  0  0  0  0  0  0  0  0  0
   -1.3877    1.0734   -0.1612 O   0  0  0  0  0  0  0  0  0  0  0  0
   -1.1100   -0.8518   -0.8617 H   0  0  0  0  0  0  0  0  0  0  0  0
   -1.3780   -0.7144    0.8897 H   0  0  0  0  0  0  0  0  0  0  0  0
    1.0338   -0.8971    0.9432 H   0  0  0  0  0  0  0  0  0  0  0  0
    1.1918   -0.1726   -0.6683 H   0  0  0  0  0  0  0  0  0  0  0  0
    1.9323    1.1148    2.5564 H   0  0  0  0  0  0  0  0  0  0  0  0
    0.8625    3.0518    3.6309 H   0  0  0  0  0  0  0  0  0  0  0  0
    1.3798    3.8819    2.1666 H   0  0  0  0  0  0  0  0  0  0  0  0
   -1.3145    2.4844    2.6353 H   0  0  0  0  0  0  0  0  0  0  0  0
   -1.0604    4.2322    2.4275 H   0  0  0  0  0  0  0  0  0  0  0  0
    0.0273    2.3925   -0.8642 H   0  0  0  0  0  0  0  0  0  0  0  0
  1  2  1  0  0  0  0
  1 11  1  0  0  0  0
  2  3  1  0  0  0  0
  2 12  1  0  0  0  0
  3  4  2  0  0  0  0
  4  5  1  0  0  0  0
  4 14  1  0  0  0  0
  5 15  1  0  0  0  0
  6 18  1  0  0  0  0
  6  5  1  0  0  0  0
  6 17  1  0  0  0  0
  7  6  1  0  0  0  0
  8 19  1  6  0  0  0
  8  7  1  0  0  0  0
  8  3  1  0  0  0  0
  9  1  1  0  0  0  0
  9  8  1  0  0  0  0
 10  1  1  0  0  0  0
 13  2  1  0  0  0  0
 16  5  1  0  0  0  0
M TOR 0 0 1 2 3
M TOR 1 0 1 2 7
M TOR 2 0 8 7 2
M TOR 3 0 8 7 6
M TOR 4 0 8 7 18
M TOR 5 1 0 8 7
M TOR 6 1 2 3 4
M TOR 7 1 2 3 13
M TOR 8 1 2 7 6
M TOR 9 1 2 7 8
M TOR 10 1 2 7 18
M TOR 11 2 1 0 8
M TOR 12 2 1 0 9
M TOR 13 2 1 0 10
M TOR 14 2 3 4 5
M TOR 15 2 3 4 14
M TOR 16 2 3 4 15
M TOR 17 2 7 6 5
M TOR 18 3 2 1 11
M TOR 19 3 2 1 12
M TOR 20 3 2 7 6
M TOR 21 3 2 7 8
M TOR 22 3 2 7 18
M TOR 23 3 4 5 6
M TOR 24 3 4 5 16
M TOR 25 3 4 5 17
M TOR 26 4 3 2 7
M TOR 27 4 5 6 7
M TOR 28 5 4 3 13
M TOR 29 5 6 7 8
M TOR 30 5 6 7 18
M TOR 31 6 5 4 14
M TOR 32 6 5 4 15
M TOR 33 7 2 1 11
M TOR 34 7 2 1 12
M TOR 35 7 2 3 13
M TOR 36 7 6 5 16
M TOR 37 7 6 5 17
M TOR 38 7 8 0 9
M TOR 39 7 8 0 10
M TOR 40 8 0 1 11
M TOR 41 8 0 1 12
M  END
$$$$
