gdb 2090	2.8723735	1.6763765	1.424302	2.5676	74.2	-0.23587	0.07212	0.30799	986.2752	0.157067	-422.529199	-422.521427	-422.520483	-422.560746	31.387
 OpenBabel02181911403D

 19 21  0  0  1  0  0  0  0  0999 V2000
    0.1351    0.2120    0.7165 C   0  0  0  0  0  0  0  0  0  0  0  0
    1.6161    0.1988    0.4487 C   0  0  2  0  0  0  0  0  0  0  0  0
    2.5209   -1.0469    0.4964 C   0  0  0  0  0  0  0  0  0  0  0  0
    3.5322   -0.1435   -0.2694 C   0  0  2  0  0  0  0  0  0  0  0  0
    4.4989   -0.6401   -1.1358 O   0  0  0  0  0  0  0  0  0  0  0  0
    3.9068    0.8927    0.8168 C   0  0  0  0  0  0  0  0  0  0  0  0
    2.4819    1.4687    0.8663 C   0  0  1  0  0  0  0  0  0  0  0  0
    2.3513    2.0172   -0.4815 O   0  0  0  0  0  0  0  0  0  0  0  0
    2.2841    0.6421   -0.8762 C   0  0  2  0  0  0  0  0  0  0  0  0
   -0.0787    0.0499    1.7794 H   0  0  0  0  0  0  0  0  0  0  0  0
   -0.2971    1.1762    0.4288 H   0  0  0  0  0  0  0  0  0  0  0  0
   -0.3784   -0.5732    0.1515 H   0  0  0  0  0  0  0  0  0  0  0  0
    2.8263   -1.4632    1.4618 H   0  0  0  0  0  0  0  0  0  0  0  0
    2.1159   -1.8379   -0.1423 H   0  0  0  0  0  0  0  0  0  0  0  0
    5.2186   -1.0132   -0.6157 H   0  0  0  0  0  0  0  0  0  0  0  0
    4.2506    0.4300    1.7467 H   0  0  0  0  0  0  0  0  0  0  0  0
    4.6196    1.6477    0.4786 H   0  0  0  0  0  0  0  0  0  0  0  0
    2.1887    2.1614    1.6554 H   0  0  0  0  0  0  0  0  0  0  0  0
    1.9509    0.4408   -1.8934 H   0  0  0  0  0  0  0  0  0  0  0  0
  1 10  1  0  0  0  0
  2  3  1  0  0  0  0
  2  1  1  1  0  0  0
  2  7  1  0  0  0  0
  3 13  1  0  0  0  0
  4  5  1  6  0  0  0
  4  3  1  0  0  0  0
  4  6  1  0  0  0  0
  5 15  1  0  0  0  0
  6  7  1  0  0  0  0
  6 16  1  0  0  0  0
  7 18  1  1  0  0  0
  8  7  1  0  0  0  0
  9 19  1  6  0  0  0
  9  8  1  0  0  0  0
  9  4  1  0  0  0  0
  9  2  1  0  0  0  0
 11  1  1  0  0  0  0
 12  1  1  0  0  0  0
 14  3  1  0  0  0  0
 17  6  1  0  0  0  0
M TOR 0 0 1 2 3
M TOR 1 0 1 2 12
M TOR 2 0 1 2 13
M TOR 3 0 1 6 5
M TOR 4 0 1 6 7
M TOR 5 0 1 6 17
M TOR 6 0 1 8 3
M TOR 7 0 1 8 7
M TOR 8 0 1 8 18
M TOR 9 1 2 3 4
M TOR 10 1 2 3 5
M TOR 11 1 2 3 8
M TOR 12 1 6 5 3
M TOR 13 1 6 5 15
M TOR 14 1 6 5 16
M TOR 15 1 6 7 8
M TOR 16 1 8 3 4
M TOR 17 1 8 3 5
M TOR 18 2 1 0 9
M TOR 19 2 1 0 10
M TOR 20 2 1 0 11
M TOR 21 2 1 6 5
M TOR 22 2 1 6 7
M TOR 23 2 1 6 17
M TOR 24 2 1 8 7
M TOR 25 2 1 8 18
M TOR 26 2 3 4 14
M TOR 27 2 3 5 6
M TOR 28 2 3 5 15
M TOR 29 2 3 5 16
M TOR 30 2 3 8 7
M TOR 31 2 3 8 18
M TOR 32 3 2 1 6
M TOR 33 3 5 6 7
M TOR 34 3 5 6 17
M TOR 35 3 8 1 6
M TOR 36 3 8 7 6
M TOR 37 4 3 2 12
M TOR 38 4 3 2 13
M TOR 39 4 3 5 6
M TOR 40 4 3 5 15
M TOR 41 4 3 5 16
M TOR 42 4 3 8 7
M TOR 43 4 3 8 18
M TOR 44 5 3 2 12
M TOR 45 5 3 2 13
M TOR 46 5 3 4 14
M TOR 47 5 3 8 7
M TOR 48 5 3 8 18
M TOR 49 5 6 1 8
M TOR 50 5 6 7 8
M TOR 51 6 1 0 9
M TOR 52 6 1 0 10
M TOR 53 6 1 0 11
M TOR 54 6 1 2 12
M TOR 55 6 1 2 13
M TOR 56 6 1 8 18
M TOR 57 6 5 3 8
M TOR 58 6 7 8 18
M TOR 59 7 6 5 15
M TOR 60 7 6 5 16
M TOR 61 8 1 0 9
M TOR 62 8 1 0 10
M TOR 63 8 1 0 11
M TOR 64 8 1 2 12
M TOR 65 8 1 2 13
M TOR 66 8 1 6 17
M TOR 67 8 3 2 12
M TOR 68 8 3 2 13
M TOR 69 8 3 4 14
M TOR 70 8 3 5 15
M TOR 71 8 3 5 16
M TOR 72 8 7 6 17
M  END
$$$$
