
     RDKit          3D

 19 20  0  0  0  0  0  0  0  0999 V2000
    1.1238   -0.8210   -0.8553 C   0  0  0  0  0  0  0  0  0  0  0  0
    1.0185    0.1130    0.3294 C   0  0  0  0  0  0  0  0  0  0  0  0
    1.9346    0.0810    1.4950 C   0  0  0  0  0  0  0  0  0  0  0  0
    1.5618   -0.0365    2.9353 C   0  0  0  0  0  0  0  0  0  0  0  0
    3.2627   -0.2781    1.1150 O   0  0  0  0  0  0  0  0  0  0  0  0
    3.3888    0.8992    0.2750 C   0  0  0  0  0  0  0  0  0  0  0  0
    1.9469    1.3144    0.5291 C   0  0  0  0  0  0  0  0  0  0  0  0
    1.4464    2.6544    0.8309 C   0  0  0  0  0  0  0  0  0  0  0  0
    0.3065    2.9050    1.1610 O   0  0  0  0  0  0  0  0  0  0  0  0
    0.4804   -1.6937   -0.7034 H   0  0  0  0  0  0  0  0  0  0  0  0
    0.8063   -0.3273   -1.7790 H   0  0  0  0  0  0  0  0  0  0  0  0
    2.1457   -1.1846   -0.9851 H   0  0  0  0  0  0  0  0  0  0  0  0
    0.0083    0.4012    0.6123 H   0  0  0  0  0  0  0  0  0  0  0  0
    1.4346   -1.0901    3.2093 H   0  0  0  0  0  0  0  0  0  0  0  0
    2.3360    0.3926    3.5774 H   0  0  0  0  0  0  0  0  0  0  0  0
    0.6173    0.4822    3.1195 H   0  0  0  0  0  0  0  0  0  0  0  0
    4.1194    1.5951    0.7040 H   0  0  0  0  0  0  0  0  0  0  0  0
    3.6775    0.6467   -0.7512 H   0  0  0  0  0  0  0  0  0  0  0  0
    2.2126    3.4609    0.7671 H   0  0  0  0  0  0  0  0  0  0  0  0
  1  2  1  0
  2  3  1  0
  3  4  1  0
  3  5  1  0
  5  6  1  0
  6  7  1  0
  7  8  1  0
  8  9  2  0
  7  2  1  0
  7  3  1  0
  1 10  1  0
  1 11  1  0
  1 12  1  0
  2 13  1  0
  4 14  1  0
  4 15  1  0
  4 16  1  0
  6 17  1  0
  6 18  1  0
  8 19  1  0
M  END
$$$$
