
     RDKit          3D

 19 20  0  0  0  0  0  0  0  0999 V2000
    0.0553    0.1615    1.6266 O   0  0  0  0  0  0  0  0  0  0  0  0
   -0.4166    0.1257    0.5140 C   0  0  0  0  0  0  0  0  0  0  0  0
   -0.7244    1.4000   -0.2741 C   0  0  0  0  0  0  0  0  0  0  0  0
   -1.7294    1.2061   -1.4279 C   0  0  0  0  0  0  0  0  0  0  0  0
   -2.7816    0.1488   -1.0544 C   0  0  0  0  0  0  0  0  0  0  0  0
   -2.0830   -1.2032   -0.9591 C   0  0  0  0  0  0  0  0  0  0  0  0
   -2.6609   -2.1295   -0.0146 O   0  0  0  0  0  0  0  0  0  0  0  0
   -1.4113   -2.2679    0.7016 C   0  0  0  0  0  0  0  0  0  0  0  0
   -0.7480   -1.1883   -0.1728 C   0  0  0  0  0  0  0  0  0  0  0  0
   -1.0942    2.1278    0.4559 H   0  0  0  0  0  0  0  0  0  0  0  0
    0.2289    1.8018   -0.6406 H   0  0  0  0  0  0  0  0  0  0  0  0
   -2.2031    2.1621   -1.6694 H   0  0  0  0  0  0  0  0  0  0  0  0
   -1.2066    0.8870   -2.3390 H   0  0  0  0  0  0  0  0  0  0  0  0
   -3.2250    0.3861   -0.0795 H   0  0  0  0  0  0  0  0  0  0  0  0
   -3.5971    0.1185   -1.7831 H   0  0  0  0  0  0  0  0  0  0  0  0
   -1.9995   -1.6614   -1.9544 H   0  0  0  0  0  0  0  0  0  0  0  0
   -1.5027   -2.0176    1.7632 H   0  0  0  0  0  0  0  0  0  0  0  0
   -0.9919   -3.2756    0.5992 H   0  0  0  0  0  0  0  0  0  0  0  0
    0.1311   -1.5105   -0.7396 H   0  0  0  0  0  0  0  0  0  0  0  0
  1  2  2  0
  2  3  1  0
  3  4  1  0
  4  5  1  0
  5  6  1  0
  6  7  1  0
  7  8  1  0
  8  9  1  0
  9  2  1  0
  9  6  1  0
  3 10  1  0
  3 11  1  0
  4 12  1  0
  4 13  1  0
  5 14  1  0
  5 15  1  0
  6 16  1  0
  8 17  1  0
  8 18  1  0
  9 19  1  0
M  END
$$$$
