
     RDKit          3D

 19 21  0  0  0  0  0  0  0  0999 V2000
    0.6283    1.3445   -0.0192 C   0  0  0  0  0  0  0  0  0  0  0  0
    1.5605    0.1557   -0.2310 C   0  0  0  0  0  0  0  0  0  0  0  0
    0.1060   -0.0530    0.0201 C   0  0  0  0  0  0  0  0  0  0  0  0
   -0.3774   -0.6332    1.2362 O   0  0  0  0  0  0  0  0  0  0  0  0
   -1.5479   -1.1457    0.5482 C   0  0  0  0  0  0  0  0  0  0  0  0
   -1.6319   -2.6785    0.4779 C   0  0  0  0  0  0  0  0  0  0  0  0
   -1.4952   -3.0158   -0.8968 O   0  0  0  0  0  0  0  0  0  0  0  0
   -0.6435   -2.0487   -1.4996 C   0  0  0  0  0  0  0  0  0  0  0  0
   -0.9835   -0.7067   -0.8225 C   0  0  0  0  0  0  0  0  0  0  0  0
    0.6994    1.8703    0.9268 H   0  0  0  0  0  0  0  0  0  0  0  0
    0.3836    1.9694   -0.8723 H   0  0  0  0  0  0  0  0  0  0  0  0
    1.9540   -0.0277   -1.2258 H   0  0  0  0  0  0  0  0  0  0  0  0
    2.2387   -0.0946    0.5777 H   0  0  0  0  0  0  0  0  0  0  0  0
   -2.4601   -0.6629    0.9099 H   0  0  0  0  0  0  0  0  0  0  0  0
   -0.8195   -3.1040    1.0864 H   0  0  0  0  0  0  0  0  0  0  0  0
   -2.5876   -3.0832    0.8219 H   0  0  0  0  0  0  0  0  0  0  0  0
    0.4154   -2.3026   -1.3366 H   0  0  0  0  0  0  0  0  0  0  0  0
   -0.8429   -2.0613   -2.5740 H   0  0  0  0  0  0  0  0  0  0  0  0
   -1.5908   -0.0456   -1.4404 H   0  0  0  0  0  0  0  0  0  0  0  0
  1  2  1  0
  2  3  1  0
  3  4  1  0
  4  5  1  0
  5  6  1  0
  6  7  1  0
  7  8  1  0
  8  9  1  0
  3  1  1  0
  9  3  1  0
  9  5  1  0
  1 10  1  0
  1 11  1  0
  2 12  1  0
  2 13  1  0
  5 14  1  0
  6 15  1  0
  6 16  1  0
  8 17  1  0
  8 18  1  0
  9 19  1  0
M  END
$$$$
