gdb 1712	2.9588609	1.3454042	1.2100796	3.1459	74.7	-0.24611	-0.02197	0.22414	1097.1378	0.156357	-422.569651	-422.561125	-422.560181	-422.602729	32.035
 OpenBabel02181911403D

 19 20  0  0  1  0  0  0  0  0999 V2000
    0.0536   -0.2772   -0.0722 C   0  0  0  0  0  0  0  0  0  0  0  0
    1.5388    0.0845    0.0153 C   0  0  1  0  0  0  0  0  0  0  0  0
    2.2493   -0.5473    1.2574 C   0  0  0  0  0  0  0  0  0  0  0  0
    2.8037   -1.9158    0.7915 C   0  0  0  0  0  0  0  0  0  0  0  0
    3.0471   -1.7214   -0.6887 C   0  0  2  0  0  0  0  0  0  0  0  0
    3.7350   -0.5001   -0.9998 O   0  0  0  0  0  0  0  0  0  0  0  0
    2.3104   -0.5393   -1.1515 C   0  0  2  0  0  0  0  0  0  0  0  0
    1.7427    1.5902    0.0239 C   0  0  0  0  0  0  0  0  0  0  0  0
    0.8586    2.4084    0.0334 O   0  0  0  0  0  0  0  0  0  0  0  0
   -0.5008    0.1934    0.7432 H   0  0  0  0  0  0  0  0  0  0  0  0
   -0.3850    0.0774   -1.0095 H   0  0  0  0  0  0  0  0  0  0  0  0
   -0.0891   -1.3606   -0.0142 H   0  0  0  0  0  0  0  0  0  0  0  0
    3.0784    0.0913    1.5736 H   0  0  0  0  0  0  0  0  0  0  0  0
    1.5616   -0.6331    2.1017 H   0  0  0  0  0  0  0  0  0  0  0  0
    3.7087   -2.2012    1.3361 H   0  0  0  0  0  0  0  0  0  0  0  0
    2.0702   -2.7186    0.9301 H   0  0  0  0  0  0  0  0  0  0  0  0
    3.2752   -2.5605   -1.3408 H   0  0  0  0  0  0  0  0  0  0  0  0
    1.9409   -0.4218   -2.1677 H   0  0  0  0  0  0  0  0  0  0  0  0
    2.8129    1.8946    0.0228 H   0  0  0  0  0  0  0  0  0  0  0  0
  1 12  1  0  0  0  0
  1  2  1  0  0  0  0
  1 10  1  0  0  0  0
  2  8  1  1  0  0  0
  2  3  1  0  0  0  0
  3 13  1  0  0  0  0
  3 14  1  0  0  0  0
  4 16  1  0  0  0  0
  4  3  1  0  0  0  0
  4 15  1  0  0  0  0
  5 17  1  6  0  0  0
  5  4  1  0  0  0  0
  6  5  1  0  0  0  0
  7 18  1  6  0  0  0
  7  6  1  0  0  0  0
  7  5  1  0  0  0  0
  7  2  1  0  0  0  0
  8  9  2  0  0  0  0
 11  1  1  0  0  0  0
 19  8  1  0  0  0  0
M TOR 0 0 1 2 3
M TOR 1 0 1 2 12
M TOR 2 0 1 2 13
M TOR 3 0 1 6 4
M TOR 4 0 1 6 5
M TOR 5 0 1 6 17
M TOR 6 0 1 7 8
M TOR 7 0 1 7 18
M TOR 8 1 2 3 4
M TOR 9 1 2 3 14
M TOR 10 1 2 3 15
M TOR 11 1 6 4 3
M TOR 12 1 6 4 5
M TOR 13 1 6 4 16
M TOR 14 2 1 0 9
M TOR 15 2 1 0 10
M TOR 16 2 1 0 11
M TOR 17 2 1 6 4
M TOR 18 2 1 6 5
M TOR 19 2 1 6 17
M TOR 20 2 1 7 8
M TOR 21 2 1 7 18
M TOR 22 2 3 4 5
M TOR 23 2 3 4 6
M TOR 24 2 3 4 16
M TOR 25 3 2 1 6
M TOR 26 3 2 1 7
M TOR 27 3 4 5 6
M TOR 28 3 4 6 17
M TOR 29 4 3 2 12
M TOR 30 4 3 2 13
M TOR 31 4 5 6 17
M TOR 32 4 6 1 7
M TOR 33 5 4 3 14
M TOR 34 5 4 3 15
M TOR 35 5 6 1 7
M TOR 36 5 6 4 16
M TOR 37 6 1 0 9
M TOR 38 6 1 0 10
M TOR 39 6 1 0 11
M TOR 40 6 1 2 12
M TOR 41 6 1 2 13
M TOR 42 6 1 7 8
M TOR 43 6 1 7 18
M TOR 44 6 4 3 14
M TOR 45 6 4 3 15
M TOR 46 7 1 0 9
M TOR 47 7 1 0 10
M TOR 48 7 1 0 11
M TOR 49 7 1 2 12
M TOR 50 7 1 2 13
M TOR 51 7 1 6 17
M  END
$$$$
