
     RDKit          3D

 19 20  0  0  0  0  0  0  0  0999 V2000
    0.2822   -0.0424    0.3828 O   0  0  0  0  0  0  0  0  0  0  0  0
   -0.8125    0.8205    0.1520 C   0  0  0  0  0  0  0  0  0  0  0  0
   -2.1980    0.1213    0.2947 C   0  0  0  0  0  0  0  0  0  0  0  0
   -3.0991    1.0840    0.8443 O   0  0  0  0  0  0  0  0  0  0  0  0
   -2.4233    2.3576    0.7988 C   0  0  0  0  0  0  0  0  0  0  0  0
   -0.9803    1.9851    1.1478 C   0  0  0  0  0  0  0  0  0  0  0  0
   -2.4745    2.9371   -0.6039 C   0  0  0  0  0  0  0  0  0  0  0  0
   -1.6454    2.4789   -1.5422 C   0  0  0  0  0  0  0  0  0  0  0  0
   -0.6270    1.4023   -1.2573 C   0  0  0  0  0  0  0  0  0  0  0  0
    0.2106   -0.3850    1.2805 H   0  0  0  0  0  0  0  0  0  0  0  0
   -2.5690   -0.2521   -0.6682 H   0  0  0  0  0  0  0  0  0  0  0  0
   -2.1279   -0.7303    0.9845 H   0  0  0  0  0  0  0  0  0  0  0  0
   -2.9180    3.0028    1.5270 H   0  0  0  0  0  0  0  0  0  0  0  0
   -0.2583    2.7897    0.9946 H   0  0  0  0  0  0  0  0  0  0  0  0
   -0.9158    1.6283    2.1821 H   0  0  0  0  0  0  0  0  0  0  0  0
   -3.2216    3.6914   -0.8300 H   0  0  0  0  0  0  0  0  0  0  0  0
   -1.6868    2.8657   -2.5573 H   0  0  0  0  0  0  0  0  0  0  0  0
   -0.7038    0.5961   -1.9984 H   0  0  0  0  0  0  0  0  0  0  0  0
    0.3939    1.7982   -1.3481 H   0  0  0  0  0  0  0  0  0  0  0  0
  1  2  1  0
  2  3  1  0
  3  4  1  0
  4  5  1  0
  5  6  1  0
  5  7  1  0
  7  8  2  0
  8  9  1  0
  6  2  1  0
  9  2  1  0
  1 10  1  0
  3 11  1  0
  3 12  1  0
  5 13  1  0
  6 14  1  0
  6 15  1  0
  7 16  1  0
  8 17  1  0
  9 18  1  0
  9 19  1  0
M  END
$$$$
