gdb 5775	3.6095549	1.3226285	1.2113514	2.1848	75.16	-0.23559	0.00752	0.24311	1093.9534	0.158328	-422.54398	-422.536271	-422.535327	-422.576236	29.895
 OpenBabel02181911423D

 19 20  0  0  1  0  0  0  0  0999 V2000
    1.4491    0.0565   -0.1478 C   0  0  0  0  0  0  0  0  0  0  0  0
    0.0744   -0.1223    0.1003 O   0  0  0  0  0  0  0  0  0  0  0  0
   -0.3871    0.5329    1.2630 C   0  0  1  0  0  0  0  0  0  0  0  0
   -1.9386    0.4966    1.2747 C   0  0  0  0  0  0  0  0  0  0  0  0
   -2.2099   -0.2769    2.6012 C   0  0  1  0  0  0  0  0  0  0  0  0
   -1.1373   -1.2253    2.5865 O   0  0  0  0  0  0  0  0  0  0  0  0
   -0.0780   -0.2633    2.5847 C   0  0  2  0  0  0  0  0  0  0  0  0
   -0.4698    0.6532    3.7396 C   0  0  0  0  0  0  0  0  0  0  0  0
   -1.8021    0.6477    3.7501 C   0  0  0  0  0  0  0  0  0  0  0  0
    2.0822   -0.3769    0.6411 H   0  0  0  0  0  0  0  0  0  0  0  0
    1.6755   -0.4502   -1.0890 H   0  0  0  0  0  0  0  0  0  0  0  0
    1.7084    1.1228   -0.2466 H   0  0  0  0  0  0  0  0  0  0  0  0
    0.0214    1.5524    1.3028 H   0  0  0  0  0  0  0  0  0  0  0  0
   -2.3993    1.4853    1.2438 H   0  0  0  0  0  0  0  0  0  0  0  0
   -2.2739   -0.0852    0.4142 H   0  0  0  0  0  0  0  0  0  0  0  0
   -3.1721   -0.7822    2.6726 H   0  0  0  0  0  0  0  0  0  0  0  0
    0.8932   -0.7539    2.6243 H   0  0  0  0  0  0  0  0  0  0  0  0
    0.2126    1.2482    4.3308 H   0  0  0  0  0  0  0  0  0  0  0  0
   -2.4799    1.2328    4.3566 H   0  0  0  0  0  0  0  0  0  0  0  0
  1  2  1  0  0  0  0
  1 10  1  0  0  0  0
  2  3  1  0  0  0  0
  3  4  1  0  0  0  0
  3 13  1  1  0  0  0
  3  7  1  0  0  0  0
  4  5  1  0  0  0  0
  5 16  1  1  0  0  0
  5  9  1  0  0  0  0
  6  5  1  0  0  0  0
  7  6  1  0  0  0  0
  7 17  1  1  0  0  0
  7  8  1  0  0  0  0
  8  9  2  0  0  0  0
  8 18  1  0  0  0  0
  9 19  1  0  0  0  0
 11  1  1  0  0  0  0
 12  1  1  0  0  0  0
 14  4  1  0  0  0  0
 15  4  1  0  0  0  0
M TOR 0 0 1 2 3
M TOR 1 0 1 2 6
M TOR 2 0 1 2 12
M TOR 3 1 2 3 4
M TOR 4 1 2 3 13
M TOR 5 1 2 3 14
M TOR 6 1 2 6 5
M TOR 7 1 2 6 7
M TOR 8 1 2 6 16
M TOR 9 2 1 0 9
M TOR 10 2 1 0 10
M TOR 11 2 1 0 11
M TOR 12 2 3 4 5
M TOR 13 2 3 4 8
M TOR 14 2 3 4 15
M TOR 15 2 6 5 4
M TOR 16 2 6 7 8
M TOR 17 2 6 7 17
M TOR 18 3 2 6 5
M TOR 19 3 2 6 7
M TOR 20 3 2 6 16
M TOR 21 3 4 5 6
M TOR 22 3 4 8 7
M TOR 23 3 4 8 18
M TOR 24 4 3 2 6
M TOR 25 4 3 2 12
M TOR 26 4 5 6 7
M TOR 27 4 5 6 16
M TOR 28 4 8 7 6
M TOR 29 4 8 7 17
M TOR 30 5 4 3 13
M TOR 31 5 4 3 14
M TOR 32 5 4 8 7
M TOR 33 5 4 8 18
M TOR 34 5 6 2 12
M TOR 35 5 6 7 8
M TOR 36 5 6 7 17
M TOR 37 6 2 3 13
M TOR 38 6 2 3 14
M TOR 39 6 5 4 8
M TOR 40 6 5 4 15
M TOR 41 6 7 8 18
M TOR 42 7 6 2 12
M TOR 43 7 8 4 15
M TOR 44 8 4 3 13
M TOR 45 8 4 3 14
M TOR 46 8 7 6 16
M  END
$$$$
