gdb 177	3.3231396	1.717968	1.5263995	2.1474	73.13	-0.22807	0.08138	0.30945	930.7096	0.160769	-422.546683	-422.540078	-422.539134	-422.577481	27.109
 OpenBabel02181911403D

 19 21  0  0  1  0  0  0  0  0999 V2000
    0.1674    1.6617   -1.3221 C   0  0  0  0  0  0  0  0  0  0  0  0
    0.5046    2.0000    0.1491 C   0  0  2  0  0  0  0  0  0  0  0  0
    0.2871    0.5904    0.4782 O   0  0  0  0  0  0  0  0  0  0  0  0
   -0.7459    0.6761   -0.5572 C   0  0  1  0  0  0  0  0  0  0  0  0
   -1.7912    1.6111    0.0938 C   0  0  1  0  0  0  0  0  0  0  0  0
   -2.5043    1.0514    1.1731 O   0  0  0  0  0  0  0  0  0  0  0  0
   -1.8001    1.2906    2.3931 C   0  0  0  0  0  0  0  0  0  0  0  0
   -1.0218    2.6047    2.1885 C   0  0  0  0  0  0  0  0  0  0  0  0
   -0.7853    2.6686    0.6703 C   0  0  1  0  0  0  0  0  0  0  0  0
   -0.2831    2.4295   -1.9571 H   0  0  0  0  0  0  0  0  0  0  0  0
    0.9875    1.1515   -1.8282 H   0  0  0  0  0  0  0  0  0  0  0  0
    1.4702    2.3862    0.4770 H   0  0  0  0  0  0  0  0  0  0  0  0
   -1.0730   -0.2891   -0.9418 H   0  0  0  0  0  0  0  0  0  0  0  0
   -2.5164    1.9920   -0.6316 H   0  0  0  0  0  0  0  0  0  0  0  0
   -2.5459    1.3534    3.1919 H   0  0  0  0  0  0  0  0  0  0  0  0
   -1.1162    0.4634    2.6082 H   0  0  0  0  0  0  0  0  0  0  0  0
   -1.6237    3.4607    2.5070 H   0  0  0  0  0  0  0  0  0  0  0  0
   -0.0909    2.6187    2.7625 H   0  0  0  0  0  0  0  0  0  0  0  0
   -0.9172    3.6739    0.2653 H   0  0  0  0  0  0  0  0  0  0  0  0
  1  4  1  0  0  0  0
  1  2  1  0  0  0  0
  2 12  1  1  0  0  0
  2  3  1  0  0  0  0
  2  9  1  0  0  0  0
  4 13  1  6  0  0  0
  4  5  1  0  0  0  0
  4  3  1  0  0  0  0
  5 14  1  6  0  0  0
  5  9  1  0  0  0  0
  5  6  1  0  0  0  0
  6  7  1  0  0  0  0
  7 16  1  0  0  0  0
  7 15  1  0  0  0  0
  8  7  1  0  0  0  0
  8 17  1  0  0  0  0
  8 18  1  0  0  0  0
  9 19  1  6  0  0  0
  9  8  1  0  0  0  0
 10  1  1  0  0  0  0
 11  1  1  0  0  0  0
M TOR 0 0 1 2 3
M TOR 1 0 1 8 4
M TOR 2 0 1 8 7
M TOR 3 0 1 8 18
M TOR 4 0 3 4 5
M TOR 5 0 3 4 8
M TOR 6 0 3 4 13
M TOR 7 1 0 3 4
M TOR 8 1 0 3 12
M TOR 9 1 2 3 4
M TOR 10 1 2 3 12
M TOR 11 1 8 4 3
M TOR 12 1 8 4 5
M TOR 13 1 8 4 13
M TOR 14 1 8 7 6
M TOR 15 1 8 7 16
M TOR 16 1 8 7 17
M TOR 17 2 1 0 9
M TOR 18 2 1 0 10
M TOR 19 2 1 8 4
M TOR 20 2 1 8 7
M TOR 21 2 1 8 18
M TOR 22 2 3 0 9
M TOR 23 2 3 0 10
M TOR 24 2 3 4 5
M TOR 25 2 3 4 8
M TOR 26 2 3 4 13
M TOR 27 3 0 1 8
M TOR 28 3 0 1 11
M TOR 29 3 2 1 8
M TOR 30 3 2 1 11
M TOR 31 3 4 5 6
M TOR 32 3 4 8 7
M TOR 33 3 4 8 18
M TOR 34 4 3 0 9
M TOR 35 4 3 0 10
M TOR 36 4 5 6 7
M TOR 37 4 5 6 14
M TOR 38 4 5 6 15
M TOR 39 4 8 1 11
M TOR 40 4 8 7 6
M TOR 41 4 8 7 16
M TOR 42 4 8 7 17
M TOR 43 5 4 3 12
M TOR 44 5 4 8 7
M TOR 45 5 4 8 18
M TOR 46 5 6 7 8
M TOR 47 5 6 7 16
M TOR 48 5 6 7 17
M TOR 49 6 5 4 8
M TOR 50 6 5 4 13
M TOR 51 6 7 8 18
M TOR 52 7 8 1 11
M TOR 53 7 8 4 13
M TOR 54 8 1 0 9
M TOR 55 8 1 0 10
M TOR 56 8 4 3 12
M TOR 57 8 7 6 14
M TOR 58 8 7 6 15
M  END
$$$$
