gdb 495	3.316276	1.3611923	1.2138297	2.223	75.83	-0.2451	0.01526	0.26036000000000004	1082.11	0.157907	-422.537835	-422.529941	-422.528997	-422.570498	30.032
 OpenBabel02181911403D

 19 20  0  0  0  0  0  0  0  0999 V2000
   -0.3748    1.3588   -0.1177 C   0  0  0  0  0  0  0  0  0  0  0  0
   -0.1516   -0.0606   -0.2379 O   0  0  0  0  0  0  0  0  0  0  0  0
    1.2660    0.0968   -0.0227 C   0  0  0  0  0  0  0  0  0  0  0  0
    1.1555    1.6292   -0.0930 C   0  0  0  0  0  0  0  0  0  0  0  0
    1.7328    2.2918   -1.3421 C   0  0  0  0  0  0  0  0  0  0  0  0
    1.6026    3.7888   -1.2431 C   0  0  0  0  0  0  0  0  0  0  0  0
    1.3926    4.3849   -0.0723 C   0  0  0  0  0  0  0  0  0  0  0  0
    1.3073    3.6099    1.2111 C   0  0  0  0  0  0  0  0  0  0  0  0
    1.6614    2.2425    1.0754 O   0  0  0  0  0  0  0  0  0  0  0  0
   -0.9433    1.7620   -0.9634 H   0  0  0  0  0  0  0  0  0  0  0  0
   -0.8789    1.6180    0.8225 H   0  0  0  0  0  0  0  0  0  0  0  0
    1.5839   -0.2594    0.9647 H   0  0  0  0  0  0  0  0  0  0  0  0
    1.8597   -0.3914   -0.8045 H   0  0  0  0  0  0  0  0  0  0  0  0
    2.7885    2.0047   -1.4495 H   0  0  0  0  0  0  0  0  0  0  0  0
    1.2200    1.9127   -2.2341 H   0  0  0  0  0  0  0  0  0  0  0  0
    1.6794    4.3714   -2.1567 H   0  0  0  0  0  0  0  0  0  0  0  0
    1.2702    5.4620    0.0038 H   0  0  0  0  0  0  0  0  0  0  0  0
    1.9976    4.0236    1.9562 H   0  0  0  0  0  0  0  0  0  0  0  0
    0.2932    3.7058    1.6396 H   0  0  0  0  0  0  0  0  0  0  0  0
  1  4  1  0  0  0  0
  1 11  1  0  0  0  0
  2  1  1  0  0  0  0
  2  3  1  0  0  0  0
  3 12  1  0  0  0  0
  4  3  1  0  0  0  0
  4  9  1  0  0  0  0
  5  6  1  0  0  0  0
  5  4  1  0  0  0  0
  6  7  2  0  0  0  0
  7 17  1  0  0  0  0
  7  8  1  0  0  0  0
  8 19  1  0  0  0  0
  8 18  1  0  0  0  0
  9  8  1  0  0  0  0
 10  1  1  0  0  0  0
 13  3  1  0  0  0  0
 14  5  1  0  0  0  0
 15  5  1  0  0  0  0
 16  6  1  0  0  0  0
M TOR 0 0 1 2 3
M TOR 1 0 1 2 11
M TOR 2 0 1 2 12
M TOR 3 0 3 2 11
M TOR 4 0 3 2 12
M TOR 5 0 3 4 5
M TOR 6 0 3 4 13
M TOR 7 0 3 4 14
M TOR 8 0 3 8 7
M TOR 9 1 0 3 4
M TOR 10 1 0 3 8
M TOR 11 1 2 3 4
M TOR 12 1 2 3 8
M TOR 13 2 1 0 9
M TOR 14 2 1 0 10
M TOR 15 2 3 0 9
M TOR 16 2 3 0 10
M TOR 17 2 3 4 5
M TOR 18 2 3 4 13
M TOR 19 2 3 4 14
M TOR 20 2 3 8 7
M TOR 21 3 4 5 6
M TOR 22 3 4 5 15
M TOR 23 3 8 7 6
M TOR 24 3 8 7 17
M TOR 25 3 8 7 18
M TOR 26 4 3 0 9
M TOR 27 4 3 0 10
M TOR 28 4 3 2 11
M TOR 29 4 3 2 12
M TOR 30 4 3 8 7
M TOR 31 4 5 6 7
M TOR 32 4 5 6 16
M TOR 33 5 4 3 8
M TOR 34 5 6 7 8
M TOR 35 5 6 7 17
M TOR 36 5 6 7 18
M TOR 37 6 5 4 13
M TOR 38 6 5 4 14
M TOR 39 7 6 5 15
M TOR 40 8 3 0 9
M TOR 41 8 3 0 10
M TOR 42 8 3 2 11
M TOR 43 8 3 2 12
M TOR 44 8 3 4 13
M TOR 45 8 3 4 14
M TOR 46 8 7 6 16
M  END
$$$$
