
     RDKit          3D

 19 18  0  0  0  0  0  0  0  0999 V2000
    2.7962   -0.3733    2.6427 C   0  0  0  0  0  0  0  0  0  0  0  0
    3.1255   -0.8637    1.2180 C   0  0  0  0  0  0  0  0  0  0  0  0
    2.5848   -2.2741    0.9699 C   0  0  0  0  0  0  0  0  0  0  0  0
    4.6491   -0.8467    1.0785 C   0  0  0  0  0  0  0  0  0  0  0  0
    5.3298   -1.8286    0.9243 O   0  0  0  0  0  0  0  0  0  0  0  0
    2.5577    0.1393    0.1541 C   0  0  0  0  0  0  0  0  0  0  0  0
    3.1122    1.4457    0.2972 O   0  0  0  0  0  0  0  0  0  0  0  0
    1.0944    0.1848    0.1641 C   0  0  0  0  0  0  0  0  0  0  0  0
   -0.1045    0.2689    0.2056 C   0  0  0  0  0  0  0  0  0  0  0  0
    3.1663   -1.0835    3.3875 H   0  0  0  0  0  0  0  0  0  0  0  0
    3.2551    0.5987    2.8500 H   0  0  0  0  0  0  0  0  0  0  0  0
    1.7134   -0.2784    2.7691 H   0  0  0  0  0  0  0  0  0  0  0  0
    3.0752   -2.9870    1.6366 H   0  0  0  0  0  0  0  0  0  0  0  0
    1.5062   -2.3117    1.1397 H   0  0  0  0  0  0  0  0  0  0  0  0
    2.7861   -2.6000   -0.0552 H   0  0  0  0  0  0  0  0  0  0  0  0
    5.1019    0.1638    1.1481 H   0  0  0  0  0  0  0  0  0  0  0  0
    2.8899   -0.2059   -0.8333 H   0  0  0  0  0  0  0  0  0  0  0  0
    2.5706    1.9281    0.9303 H   0  0  0  0  0  0  0  0  0  0  0  0
   -1.1648    0.3359    0.2210 H   0  0  0  0  0  0  0  0  0  0  0  0
  1  2  1  0
  2  3  1  0
  2  4  1  0
  4  5  2  0
  2  6  1  0
  6  7  1  0
  6  8  1  0
  8  9  3  0
  1 10  1  0
  1 11  1  0
  1 12  1  0
  3 13  1  0
  3 14  1  0
  3 15  1  0
  4 16  1  0
  6 17  1  0
  7 18  1  0
  9 19  1  0
M  END
$$$$
