
     RDKit          3D

 19 19  0  0  0  0  0  0  0  0999 V2000
    1.5400   -0.0335   -0.0205 C   0  0  0  0  0  0  0  0  0  0  0  0
    0.0859   -0.0729   -0.0242 C   0  0  0  0  0  0  0  0  0  0  0  0
   -1.1181   -0.1031   -0.0212 C   0  0  0  0  0  0  0  0  0  0  0  0
   -2.5539   -0.1370   -0.0501 C   0  0  0  0  0  0  0  0  0  0  0  0
   -3.2609    0.6026    0.9729 O   0  0  0  0  0  0  0  0  0  0  0  0
   -3.3496   -0.8180    0.9888 C   0  0  0  0  0  0  0  0  0  0  0  0
   -4.7124   -1.4168    0.6941 C   0  0  0  0  0  0  0  0  0  0  0  0
   -5.6710   -1.2164    1.8666 C   0  0  0  0  0  0  0  0  0  0  0  0
   -4.5819   -2.7856    0.3284 O   0  0  0  0  0  0  0  0  0  0  0  0
    1.9658   -1.0074    0.2451 H   0  0  0  0  0  0  0  0  0  0  0  0
    1.9315    0.2450   -1.0049 H   0  0  0  0  0  0  0  0  0  0  0  0
    1.9102    0.7002    0.7038 H   0  0  0  0  0  0  0  0  0  0  0  0
   -3.0061   -0.0464   -1.0376 H   0  0  0  0  0  0  0  0  0  0  0  0
   -2.8004   -1.2941    1.8056 H   0  0  0  0  0  0  0  0  0  0  0  0
   -5.1177   -0.9182   -0.1936 H   0  0  0  0  0  0  0  0  0  0  0  0
   -5.2873   -1.7073    2.7704 H   0  0  0  0  0  0  0  0  0  0  0  0
   -5.7880   -0.1515    2.0880 H   0  0  0  0  0  0  0  0  0  0  0  0
   -6.6506   -1.6420    1.6339 H   0  0  0  0  0  0  0  0  0  0  0  0
   -4.3561   -3.2837    1.1218 H   0  0  0  0  0  0  0  0  0  0  0  0
  1  2  1  0
  2  3  3  0
  3  4  1  0
  4  5  1  0
  5  6  1  0
  6  7  1  0
  7  8  1  0
  7  9  1  0
  6  4  1  0
  1 10  1  0
  1 11  1  0
  1 12  1  0
  4 13  1  0
  6 14  1  0
  7 15  1  0
  8 16  1  0
  8 17  1  0
  8 18  1  0
  9 19  1  0
M  END
$$$$
