gdb 5762	2.7452987	1.3138792	1.044906	4.1042	74.66	-0.26957	0.0081	0.27767	1200.189	0.157137	-422.571999	-422.563561	-422.562617	-422.605545	31.268
 OpenBabel02181911423D

 19 20  0  0  1  0  0  0  0  0999 V2000
    2.3631    1.4698   -0.1821 C   0  0  0  0  0  0  0  0  0  0  0  0
    1.7860    0.0514   -0.1335 C   0  0  0  0  0  0  0  0  0  0  0  0
    2.1320   -0.7644   -1.3741 C   0  0  2  0  0  0  0  0  0  0  0  0
    1.4605   -0.3988   -2.7423 C   0  0  0  0  0  0  0  0  0  0  0  0
    0.9315   -1.8409   -2.8589 C   0  0  2  0  0  0  0  0  0  0  0  0
   -0.4049   -1.9769   -2.2754 O   0  0  0  0  0  0  0  0  0  0  0  0
    0.1144   -2.3582   -1.0551 C   0  0  0  0  0  0  0  0  0  0  0  0
   -0.4904   -2.6542   -0.0754 O   0  0  0  0  0  0  0  0  0  0  0  0
    1.5668   -2.2243   -1.5009 C   0  0  2  0  0  0  0  0  0  0  0  0
    2.0968    2.0340    0.7164 H   0  0  0  0  0  0  0  0  0  0  0  0
    3.4565    1.4513   -0.2531 H   0  0  0  0  0  0  0  0  0  0  0  0
    1.9845    2.0257   -1.0468 H   0  0  0  0  0  0  0  0  0  0  0  0
    2.1635   -0.4721    0.7539 H   0  0  0  0  0  0  0  0  0  0  0  0
    0.6967    0.0991   -0.0153 H   0  0  0  0  0  0  0  0  0  0  0  0
    3.2195   -0.8016   -1.4922 H   0  0  0  0  0  0  0  0  0  0  0  0
    0.6635    0.3473   -2.7019 H   0  0  0  0  0  0  0  0  0  0  0  0
    2.1694   -0.1193   -3.5247 H   0  0  0  0  0  0  0  0  0  0  0  0
    1.0153   -2.4048   -3.7861 H   0  0  0  0  0  0  0  0  0  0  0  0
    2.2293   -3.0658   -1.3094 H   0  0  0  0  0  0  0  0  0  0  0  0
  1  2  1  0  0  0  0
  1 10  1  0  0  0  0
  2 14  1  0  0  0  0
  2 13  1  0  0  0  0
  3 15  1  6  0  0  0
  3  2  1  0  0  0  0
  4 16  1  0  0  0  0
  4  3  1  0  0  0  0
  5 18  1  6  0  0  0
  5  4  1  0  0  0  0
  5  6  1  0  0  0  0
  5  9  1  0  0  0  0
  6  7  1  0  0  0  0
  7  8  2  0  0  0  0
  9  3  1  0  0  0  0
  9 19  1  1  0  0  0
  9  7  1  0  0  0  0
 11  1  1  0  0  0  0
 12  1  1  0  0  0  0
 17  4  1  0  0  0  0
M TOR 0 0 1 2 3
M TOR 1 0 1 2 8
M TOR 2 0 1 2 14
M TOR 3 1 2 3 4
M TOR 4 1 2 3 15
M TOR 5 1 2 3 16
M TOR 6 1 2 8 4
M TOR 7 1 2 8 6
M TOR 8 1 2 8 18
M TOR 9 2 1 0 9
M TOR 10 2 1 0 10
M TOR 11 2 1 0 11
M TOR 12 2 3 4 5
M TOR 13 2 3 4 8
M TOR 14 2 3 4 17
M TOR 15 2 8 4 5
M TOR 16 2 8 4 17
M TOR 17 2 8 6 5
M TOR 18 2 8 6 7
M TOR 19 3 2 1 12
M TOR 20 3 2 1 13
M TOR 21 3 2 8 6
M TOR 22 3 2 8 18
M TOR 23 3 4 5 6
M TOR 24 3 4 8 6
M TOR 25 3 4 8 18
M TOR 26 4 3 2 14
M TOR 27 4 5 6 7
M TOR 28 4 5 6 8
M TOR 29 4 8 2 14
M TOR 30 4 8 6 7
M TOR 31 5 4 3 15
M TOR 32 5 4 3 16
M TOR 33 5 4 8 18
M TOR 34 5 6 8 18
M TOR 35 6 5 4 17
M TOR 36 6 8 2 14
M TOR 37 6 8 4 17
M TOR 38 7 6 8 18
M TOR 39 8 2 1 12
M TOR 40 8 2 1 13
M TOR 41 8 2 3 15
M TOR 42 8 2 3 16
M TOR 43 8 4 3 15
M TOR 44 8 4 3 16
M  END
$$$$
