
     RDKit          3D

 19 19  0  0  0  0  0  0  0  0999 V2000
   -1.6266   -3.3340   -1.4853 O   0  0  0  0  0  0  0  0  0  0  0  0
   -0.6193   -2.6813   -1.3367 C   0  0  0  0  0  0  0  0  0  0  0  0
    0.2468   -2.2652   -2.5201 C   0  0  0  0  0  0  0  0  0  0  0  0
   -0.2336   -0.9335   -3.1792 C   0  0  0  0  0  0  0  0  0  0  0  0
    0.4428    0.3275   -2.6904 C   0  0  0  0  0  0  0  0  0  0  0  0
    0.4854    0.7873   -1.4395 C   0  0  0  0  0  0  0  0  0  0  0  0
   -0.1342    0.1021   -0.2476 C   0  0  0  0  0  0  0  0  0  0  0  0
    0.5926   -1.0834    0.1058 O   0  0  0  0  0  0  0  0  0  0  0  0
   -0.1715   -2.2619    0.0690 C   0  0  0  0  0  0  0  0  0  0  0  0
    1.2936   -2.1702   -2.2220 H   0  0  0  0  0  0  0  0  0  0  0  0
    0.1513   -3.0696   -3.2543 H   0  0  0  0  0  0  0  0  0  0  0  0
   -0.0631   -1.0167   -4.2556 H   0  0  0  0  0  0  0  0  0  0  0  0
   -1.3230   -0.8585   -3.0605 H   0  0  0  0  0  0  0  0  0  0  0  0
    0.9532    0.9068   -3.4569 H   0  0  0  0  0  0  0  0  0  0  0  0
    1.0244    1.7099   -1.2417 H   0  0  0  0  0  0  0  0  0  0  0  0
   -0.1287    0.7693    0.6220 H   0  0  0  0  0  0  0  0  0  0  0  0
   -1.1841   -0.1509   -0.4527 H   0  0  0  0  0  0  0  0  0  0  0  0
    0.4716   -3.0617    0.4595 H   0  0  0  0  0  0  0  0  0  0  0  0
   -1.0638   -2.2132    0.7096 H   0  0  0  0  0  0  0  0  0  0  0  0
  1  2  2  0
  2  3  1  0
  3  4  1  0
  4  5  1  0
  5  6  2  0
  6  7  1  0
  7  8  1  0
  8  9  1  0
  9  2  1  0
  3 10  1  0
  3 11  1  0
  4 12  1  0
  4 13  1  0
  5 14  1  0
  6 15  1  0
  7 16  1  0
  7 17  1  0
  9 18  1  0
  9 19  1  0
M  END
$$$$
