gdb 5914	1.9613645	1.0237706	0.9323124	3.2291	78.21	-0.26101	-0.05968	0.20133	1410.0126	0.153235	-422.535487	-422.524657	-422.523713	-422.572522	37.461
 OpenBabel02181911423D

 19 18  0  0  1  0  0  0  0  0999 V2000
    3.0082   -0.9265    2.2716 C   0  0  0  0  0  0  0  0  0  0  0  0
    3.2486    0.2171    1.2695 C   0  0  2  0  0  0  0  0  0  0  0  0
    2.8442    1.5807    1.8627 C   0  0  0  0  0  0  0  0  0  0  0  0
    3.1998    2.7735    0.9708 C   0  0  0  0  0  0  0  0  0  0  0  0
    2.7975    4.0103    1.5349 O   0  0  0  0  0  0  0  0  0  0  0  0
    2.5137   -0.0680   -0.0378 C   0  0  0  0  0  0  0  0  0  0  0  0
    3.0849   -0.2518   -1.0908 O   0  0  0  0  0  0  0  0  0  0  0  0
    1.0585   -0.1217    0.0398 C   0  0  0  0  0  0  0  0  0  0  0  0
   -0.1436   -0.1621    0.0974 C   0  0  0  0  0  0  0  0  0  0  0  0
    3.5797   -0.7485    3.1875 H   0  0  0  0  0  0  0  0  0  0  0  0
    1.9498   -0.9981    2.5400 H   0  0  0  0  0  0  0  0  0  0  0  0
    3.3214   -1.8896    1.8578 H   0  0  0  0  0  0  0  0  0  0  0  0
    4.3091    0.2385    0.9941 H   0  0  0  0  0  0  0  0  0  0  0  0
    1.7676    1.5978    2.0666 H   0  0  0  0  0  0  0  0  0  0  0  0
    3.3506    1.6936    2.8312 H   0  0  0  0  0  0  0  0  0  0  0  0
    4.2782    2.7647    0.7438 H   0  0  0  0  0  0  0  0  0  0  0  0
    2.6744    2.7035    0.0122 H   0  0  0  0  0  0  0  0  0  0  0  0
    3.2984    4.1416    2.3463 H   0  0  0  0  0  0  0  0  0  0  0  0
   -1.2055   -0.1998    0.1328 H   0  0  0  0  0  0  0  0  0  0  0  0
  1 11  1  0  0  0  0
  1 10  1  0  0  0  0
  2 13  1  6  0  0  0
  2  3  1  0  0  0  0
  2  1  1  0  0  0  0
  3 14  1  0  0  0  0
  3 15  1  0  0  0  0
  4  5  1  0  0  0  0
  4  3  1  0  0  0  0
  5 18  1  0  0  0  0
  6  8  1  0  0  0  0
  6  2  1  0  0  0  0
  7  6  2  0  0  0  0
  8  9  3  0  0  0  0
  9 19  1  0  0  0  0
 12  1  1  0  0  0  0
 16  4  1  0  0  0  0
 17  4  1  0  0  0  0
M TOR 0 0 1 2 3
M TOR 1 0 1 2 13
M TOR 2 0 1 2 14
M TOR 3 0 1 5 6
M TOR 4 0 1 5 7
M TOR 5 1 2 3 4
M TOR 6 1 2 3 15
M TOR 7 1 2 3 16
M TOR 8 1 5 7 8
M TOR 9 2 1 0 9
M TOR 10 2 1 0 10
M TOR 11 2 1 0 11
M TOR 12 2 1 5 6
M TOR 13 2 1 5 7
M TOR 14 2 3 4 17
M TOR 15 3 2 1 5
M TOR 16 3 2 1 12
M TOR 17 4 3 2 13
M TOR 18 4 3 2 14
M TOR 19 5 1 0 9
M TOR 20 5 1 0 10
M TOR 21 5 1 0 11
M TOR 22 5 1 2 13
M TOR 23 5 1 2 14
M TOR 24 5 7 8 18
M TOR 25 6 5 1 12
M TOR 26 6 5 7 8
M TOR 27 7 5 1 12
M  END
$$$$
