gdb 80	3.340681	1.1479431	0.9332747	0.5339	78.	-0.25423	0.05157	0.3058	1258.4976	0.157594	-422.522456	-422.513902	-422.512957	-422.555485	32.471
 OpenBabel02181911403D

 19 19  0  0  1  0  0  0  0  0999 V2000
   -0.0423   -0.0676    0.3307 C   0  0  0  0  0  0  0  0  0  0  0  0
    1.1557   -0.0404    0.2329 C   0  0  0  0  0  0  0  0  0  0  0  0
    2.6059    0.0036    0.0730 C   0  0  2  0  0  0  0  0  0  0  0  0
    3.1370    1.4450    0.2571 C   0  0  0  0  0  0  0  0  0  0  0  0
    4.6151    1.6258   -0.0954 C   0  0  0  0  0  0  0  0  0  0  0  0
    4.8147    1.4658   -1.4979 O   0  0  0  0  0  0  0  0  0  0  0  0
    5.1778    0.1755   -1.9011 C   0  0  0  0  0  0  0  0  0  0  0  0
    4.4203   -0.8440   -1.3037 O   0  0  0  0  0  0  0  0  0  0  0  0
    3.0172   -0.6292   -1.2796 C   0  0  0  0  0  0  0  0  0  0  0  0
   -1.0989   -0.0972    0.4321 H   0  0  0  0  0  0  0  0  0  0  0  0
    3.0633   -0.6328    0.8430 H   0  0  0  0  0  0  0  0  0  0  0  0
    2.5568    2.1237   -0.3776 H   0  0  0  0  0  0  0  0  0  0  0  0
    2.9683    1.7560    1.2942 H   0  0  0  0  0  0  0  0  0  0  0  0
    4.9231    2.6487    0.1443 H   0  0  0  0  0  0  0  0  0  0  0  0
    5.2539    0.9367    0.4732 H   0  0  0  0  0  0  0  0  0  0  0  0
    5.0645    0.1804   -2.9950 H   0  0  0  0  0  0  0  0  0  0  0  0
    6.2180   -0.0619   -1.6333 H   0  0  0  0  0  0  0  0  0  0  0  0
    2.6879   -0.0015   -2.1167 H   0  0  0  0  0  0  0  0  0  0  0  0
    2.5430   -1.6099   -1.3756 H   0  0  0  0  0  0  0  0  0  0  0  0
  1 10  1  0  0  0  0
  2  1  3  0  0  0  0
  3  2  1  0  0  0  0
  3  4  1  0  0  0  0
  3 11  1  1  0  0  0
  4 13  1  0  0  0  0
  5 14  1  0  0  0  0
  5  4  1  0  0  0  0
  5 15  1  0  0  0  0
  6  5  1  0  0  0  0
  7 17  1  0  0  0  0
  7  6  1  0  0  0  0
  7  8  1  0  0  0  0
  8  9  1  0  0  0  0
  9  3  1  0  0  0  0
 12  4  1  0  0  0  0
 16  7  1  0  0  0  0
 18  9  1  0  0  0  0
 19  9  1  0  0  0  0
M TOR 0 0 1 2 3
M TOR 1 0 1 2 8
M TOR 2 0 1 2 10
M TOR 3 1 2 3 4
M TOR 4 1 2 3 11
M TOR 5 1 2 3 12
M TOR 6 1 2 8 7
M TOR 7 1 2 8 17
M TOR 8 1 2 8 18
M TOR 9 2 1 0 9
M TOR 10 2 3 4 5
M TOR 11 2 3 4 13
M TOR 12 2 3 4 14
M TOR 13 2 8 7 6
M TOR 14 3 2 8 7
M TOR 15 3 2 8 17
M TOR 16 3 2 8 18
M TOR 17 3 4 5 6
M TOR 18 4 3 2 8
M TOR 19 4 3 2 10
M TOR 20 4 5 6 7
M TOR 21 4 5 6 15
M TOR 22 4 5 6 16
M TOR 23 5 4 3 11
M TOR 24 5 4 3 12
M TOR 25 5 6 7 8
M TOR 26 6 5 4 13
M TOR 27 6 5 4 14
M TOR 28 6 7 8 17
M TOR 29 6 7 8 18
M TOR 30 7 8 2 10
M TOR 31 8 2 3 11
M TOR 32 8 2 3 12
M TOR 33 8 7 6 15
M TOR 34 8 7 6 16
M  END
$$$$
