
     RDKit          3D

 19 21  0  0  0  0  0  0  0  0999 V2000
    1.4125   -0.0096   -0.1384 C   0  0  0  0  0  0  0  0  0  0  0  0
    0.0496   -0.1576    0.1933 O   0  0  0  0  0  0  0  0  0  0  0  0
   -0.3682    0.6461    1.2851 C   0  0  0  0  0  0  0  0  0  0  0  0
   -1.8935    0.7518    1.2207 C   0  0  0  0  0  0  0  0  0  0  0  0
   -2.6383    1.5526    2.2539 C   0  0  0  0  0  0  0  0  0  0  0  0
   -2.4930    0.0601    2.4326 C   0  0  0  0  0  0  0  0  0  0  0  0
   -1.3289   -0.3992    3.2809 C   0  0  0  0  0  0  0  0  0  0  0  0
   -0.4920    0.6622    3.7774 O   0  0  0  0  0  0  0  0  0  0  0  0
   -0.0636   -0.0559    2.6155 C   0  0  0  0  0  0  0  0  0  0  0  0
    2.0832   -0.3130    0.6791 H   0  0  0  0  0  0  0  0  0  0  0  0
    1.6049   -0.6519   -1.0012 H   0  0  0  0  0  0  0  0  0  0  0  0
    1.6514    1.0309   -0.4075 H   0  0  0  0  0  0  0  0  0  0  0  0
    0.1201    1.6319    1.2361 H   0  0  0  0  0  0  0  0  0  0  0  0
   -2.3214    0.6401    0.2316 H   0  0  0  0  0  0  0  0  0  0  0  0
   -2.0803    2.1899    2.9287 H   0  0  0  0  0  0  0  0  0  0  0  0
   -3.6159    1.9255    1.9681 H   0  0  0  0  0  0  0  0  0  0  0  0
   -3.3584   -0.5871    2.3606 H   0  0  0  0  0  0  0  0  0  0  0  0
   -1.4391   -1.2484    3.9490 H   0  0  0  0  0  0  0  0  0  0  0  0
    0.8591   -0.6221    2.7232 H   0  0  0  0  0  0  0  0  0  0  0  0
  1  2  1  0
  2  3  1  0
  3  4  1  0
  4  5  1  0
  5  6  1  0
  6  7  1  0
  7  8  1  0
  8  9  1  0
  9  3  1  0
  6  4  1  0
  9  7  1  0
  1 10  1  0
  1 11  1  0
  1 12  1  0
  3 13  1  0
  4 14  1  0
  5 15  1  0
  5 16  1  0
  6 17  1  0
  7 18  1  0
  9 19  1  0
M  END
$$$$
