gdb 3495	2.6705703	1.6732396	1.2651626	2.1657	75.39	-0.24604	0.01593	0.26197000000000004	1039.8828	0.157878	-422.554536	-422.546509	-422.545565	-422.587275	30.982
 OpenBabel02181911413D

 19 20  0  0  1  0  0  0  0  0999 V2000
   -0.7994    0.3957    0.0594 O   0  0  0  0  0  0  0  0  0  0  0  0
   -2.0845   -0.0838    0.3864 C   0  0  1  0  0  0  0  0  0  0  0  0
   -2.1553   -1.5309    0.8253 C   0  0  0  0  0  0  0  0  0  0  0  0
   -2.9603   -1.6904    1.8738 C   0  0  0  0  0  0  0  0  0  0  0  0
   -3.5545   -0.3787    2.3348 C   0  0  0  0  0  0  0  0  0  0  0  0
   -2.7024    0.6699    1.6037 C   0  0  2  0  0  0  0  0  0  0  0  0
   -3.2191    2.1064    1.3857 C   0  0  0  0  0  0  0  0  0  0  0  0
   -1.9895    2.5393    2.2020 C   0  0  0  0  0  0  0  0  0  0  0  0
   -1.6154    1.1628    2.4501 O   0  0  0  0  0  0  0  0  0  0  0  0
   -0.3824    0.5769    0.9150 H   0  0  0  0  0  0  0  0  0  0  0  0
   -2.7060    0.0770   -0.5063 H   0  0  0  0  0  0  0  0  0  0  0  0
   -1.6227   -2.3128    0.2967 H   0  0  0  0  0  0  0  0  0  0  0  0
   -3.2022   -2.6362    2.3460 H   0  0  0  0  0  0  0  0  0  0  0  0
   -4.6108   -0.2915    2.0428 H   0  0  0  0  0  0  0  0  0  0  0  0
   -3.5079   -0.2289    3.4188 H   0  0  0  0  0  0  0  0  0  0  0  0
   -3.2416    2.4396    0.3468 H   0  0  0  0  0  0  0  0  0  0  0  0
   -4.1807    2.3186    1.8568 H   0  0  0  0  0  0  0  0  0  0  0  0
   -1.2178    3.0710    1.6346 H   0  0  0  0  0  0  0  0  0  0  0  0
   -2.1855    3.0740    3.1375 H   0  0  0  0  0  0  0  0  0  0  0  0
  1  2  1  0  0  0  0
  1 10  1  0  0  0  0
  2 11  1  6  0  0  0
  2  3  1  0  0  0  0
  2  6  1  0  0  0  0
  3  4  2  0  0  0  0
  4  5  1  0  0  0  0
  4 13  1  0  0  0  0
  5 15  1  0  0  0  0
  6  5  1  0  0  0  0
  6  9  1  1  0  0  0
  7  6  1  0  0  0  0
  7 17  1  0  0  0  0
  7  8  1  0  0  0  0
  8  9  1  0  0  0  0
  8 19  1  0  0  0  0
 12  3  1  0  0  0  0
 14  5  1  0  0  0  0
 16  7  1  0  0  0  0
 18  8  1  0  0  0  0
M TOR 0 0 1 2 3
M TOR 1 0 1 2 11
M TOR 2 0 1 5 4
M TOR 3 0 1 5 6
M TOR 4 0 1 5 8
M TOR 5 1 2 3 4
M TOR 6 1 2 3 12
M TOR 7 1 5 4 3
M TOR 8 1 5 4 13
M TOR 9 1 5 4 14
M TOR 10 1 5 6 7
M TOR 11 1 5 6 15
M TOR 12 1 5 6 16
M TOR 13 1 5 8 7
M TOR 14 2 1 0 9
M TOR 15 2 1 5 4
M TOR 16 2 1 5 6
M TOR 17 2 1 5 8
M TOR 18 2 3 4 5
M TOR 19 2 3 4 13
M TOR 20 2 3 4 14
M TOR 21 3 2 1 5
M TOR 22 3 2 1 10
M TOR 23 3 4 5 6
M TOR 24 3 4 5 8
M TOR 25 4 3 2 11
M TOR 26 4 5 1 10
M TOR 27 4 5 6 7
M TOR 28 4 5 6 15
M TOR 29 4 5 6 16
M TOR 30 4 5 8 7
M TOR 31 5 1 0 9
M TOR 32 5 1 2 11
M TOR 33 5 4 3 12
M TOR 34 5 6 7 8
M TOR 35 5 6 7 17
M TOR 36 5 6 7 18
M TOR 37 5 8 7 17
M TOR 38 5 8 7 18
M TOR 39 6 5 1 10
M TOR 40 6 5 4 13
M TOR 41 6 5 4 14
M TOR 42 8 5 1 10
M TOR 43 8 5 4 13
M TOR 44 8 5 4 14
M TOR 45 8 5 6 15
M TOR 46 8 5 6 16
M TOR 47 8 7 6 15
M TOR 48 8 7 6 16
M  END
$$$$
