gdb 1340	3.1066595	1.0488657	0.8480471	1.0928	76.63	-0.23545	-0.02371	0.21173999999999998	1360.5493	0.154845	-422.516922	-422.507782	-422.506838	-422.551881	32.644
 OpenBabel02181911403D

 19 20  0  0  1  0  0  0  0  0999 V2000
   -0.5417   -2.8028    2.1680 C   0  0  0  0  0  0  0  0  0  0  0  0
   -0.4488   -1.5076    2.9888 C   0  0  2  0  0  0  0  0  0  0  0  0
    0.2548   -1.7547    4.3126 C   0  0  0  0  0  0  0  0  0  0  0  0
    1.1762   -1.1068    4.7371 O   0  0  0  0  0  0  0  0  0  0  0  0
   -1.8281   -0.9305    3.2852 C   0  0  1  0  0  0  0  0  0  0  0  0
   -1.8782    0.5242    3.7253 C   0  0  2  0  0  0  0  0  0  0  0  0
   -3.3299    0.9262    3.9567 C   0  0  0  0  0  0  0  0  0  0  0  0
   -3.7171    0.4286    2.6429 O   0  0  0  0  0  0  0  0  0  0  0  0
   -2.3557    0.1201    2.3509 C   0  0  2  0  0  0  0  0  0  0  0  0
   -1.0680   -3.5844    2.7272 H   0  0  0  0  0  0  0  0  0  0  0  0
   -1.0947   -2.6287    1.2409 H   0  0  0  0  0  0  0  0  0  0  0  0
    0.4514   -3.1829    1.9101 H   0  0  0  0  0  0  0  0  0  0  0  0
    0.1473   -0.7584    2.4548 H   0  0  0  0  0  0  0  0  0  0  0  0
   -0.1761   -2.5982    4.9043 H   0  0  0  0  0  0  0  0  0  0  0  0
   -2.5499   -1.6299    3.7065 H   0  0  0  0  0  0  0  0  0  0  0  0
   -0.9973    1.0665    4.0413 H   0  0  0  0  0  0  0  0  0  0  0  0
   -3.8760    0.4303    4.7677 H   0  0  0  0  0  0  0  0  0  0  0  0
   -3.4831    2.0095    4.0126 H   0  0  0  0  0  0  0  0  0  0  0  0
   -1.9871    0.3107    1.3489 H   0  0  0  0  0  0  0  0  0  0  0  0
  1 10  1  0  0  0  0
  1  2  1  0  0  0  0
  2 13  1  6  0  0  0
  2  5  1  0  0  0  0
  2  3  1  0  0  0  0
  3  4  2  0  0  0  0
  3 14  1  0  0  0  0
  5 15  1  1  0  0  0
  5  6  1  0  0  0  0
  6  7  1  0  0  0  0
  6 16  1  1  0  0  0
  7 18  1  0  0  0  0
  7 17  1  0  0  0  0
  8  7  1  0  0  0  0
  9 19  1  6  0  0  0
  9  8  1  0  0  0  0
  9  5  1  0  0  0  0
  9  6  1  0  0  0  0
 11  1  1  0  0  0  0
 12  1  1  0  0  0  0
M TOR 0 0 1 2 3
M TOR 1 0 1 2 13
M TOR 2 0 1 4 5
M TOR 3 0 1 4 8
M TOR 4 0 1 4 14
M TOR 5 1 4 5 6
M TOR 6 1 4 5 8
M TOR 7 1 4 5 15
M TOR 8 1 4 8 7
M TOR 9 1 4 8 18
M TOR 10 2 1 0 9
M TOR 11 2 1 0 10
M TOR 12 2 1 0 11
M TOR 13 2 1 4 5
M TOR 14 2 1 4 8
M TOR 15 2 1 4 14
M TOR 16 3 2 1 4
M TOR 17 3 2 1 12
M TOR 18 4 1 0 9
M TOR 19 4 1 0 10
M TOR 20 4 1 0 11
M TOR 21 4 1 2 13
M TOR 22 4 5 6 7
M TOR 23 4 5 6 16
M TOR 24 4 5 6 17
M TOR 25 4 5 8 7
M TOR 26 4 5 8 18
M TOR 27 4 8 5 6
M TOR 28 4 8 5 15
M TOR 29 4 8 7 6
M TOR 30 5 4 1 12
M TOR 31 5 6 7 8
M TOR 32 5 8 4 14
M TOR 33 6 5 4 14
M TOR 34 6 5 8 18
M TOR 35 6 7 8 18
M TOR 36 7 6 5 15
M TOR 37 7 8 4 14
M TOR 38 7 8 5 15
M TOR 39 8 4 1 12
M TOR 40 8 5 6 16
M TOR 41 8 5 6 17
M TOR 42 8 7 6 16
M TOR 43 8 7 6 17
M  END
$$$$
