
     RDKit          3D

 19 19  0  0  0  0  0  0  0  0999 V2000
   -4.6738    0.9836   -1.1925 C   0  0  0  0  0  0  0  0  0  0  0  0
   -3.5191    1.1115   -0.3964 O   0  0  0  0  0  0  0  0  0  0  0  0
   -2.5477    0.1318   -0.7107 C   0  0  0  0  0  0  0  0  0  0  0  0
   -1.3687    0.2939    0.1261 C   0  0  0  0  0  0  0  0  0  0  0  0
   -0.3886    0.4114    0.8178 C   0  0  0  0  0  0  0  0  0  0  0  0
    0.8089    0.5546    1.6022 C   0  0  0  0  0  0  0  0  0  0  0  0
    1.7873    1.4138    1.0745 O   0  0  0  0  0  0  0  0  0  0  0  0
    1.2953   -0.6303    2.4257 C   0  0  0  0  0  0  0  0  0  0  0  0
    0.7236    0.5866    3.1064 C   0  0  0  0  0  0  0  0  0  0  0  0
   -5.3656    1.7715   -0.8869 H   0  0  0  0  0  0  0  0  0  0  0  0
   -4.4488    1.1030   -2.2647 H   0  0  0  0  0  0  0  0  0  0  0  0
   -5.1628    0.0059   -1.0530 H   0  0  0  0  0  0  0  0  0  0  0  0
   -2.9666   -0.8810   -0.5720 H   0  0  0  0  0  0  0  0  0  0  0  0
   -2.2600    0.2049   -1.7747 H   0  0  0  0  0  0  0  0  0  0  0  0
    2.0408    1.0690    0.2109 H   0  0  0  0  0  0  0  0  0  0  0  0
    0.7098   -1.5419    2.4072 H   0  0  0  0  0  0  0  0  0  0  0  0
    2.3707   -0.7628    2.4591 H   0  0  0  0  0  0  0  0  0  0  0  0
   -0.2580    0.5209    3.5588 H   0  0  0  0  0  0  0  0  0  0  0  0
    1.4172    1.2643    3.5903 H   0  0  0  0  0  0  0  0  0  0  0  0
  1  2  1  0
  2  3  1  0
  3  4  1  0
  4  5  3  0
  5  6  1  0
  6  7  1  0
  6  8  1  0
  8  9  1  0
  9  6  1  0
  1 10  1  0
  1 11  1  0
  1 12  1  0
  3 13  1  0
  3 14  1  0
  7 15  1  0
  8 16  1  0
  8 17  1  0
  9 18  1  0
  9 19  1  0
M  END
$$$$
