
     RDKit          3D

 19 19  0  0  0  0  0  0  0  0999 V2000
    1.8486   -0.9592   -0.1355 C   0  0  0  0  0  0  0  0  0  0  0  0
    1.0155    0.2311    0.3761 C   0  0  0  0  0  0  0  0  0  0  0  0
    1.7176    1.5463    0.2408 C   0  0  0  0  0  0  0  0  0  0  0  0
    1.3217    2.5939   -0.5084 C   0  0  0  0  0  0  0  0  0  0  0  0
    2.2961    3.6853   -0.3994 C   0  0  0  0  0  0  0  0  0  0  0  0
    2.4393    4.6753   -1.0862 O   0  0  0  0  0  0  0  0  0  0  0  0
    3.2376    3.3345    0.7642 C   0  0  0  0  0  0  0  0  0  0  0  0
    4.5627    3.7092    0.4890 O   0  0  0  0  0  0  0  0  0  0  0  0
    3.0279    1.8249    0.9571 C   0  0  0  0  0  0  0  0  0  0  0  0
    2.7886   -1.0571    0.4150 H   0  0  0  0  0  0  0  0  0  0  0  0
    1.2910   -1.8920   -0.0152 H   0  0  0  0  0  0  0  0  0  0  0  0
    2.0891   -0.8409   -1.1963 H   0  0  0  0  0  0  0  0  0  0  0  0
    0.0582    0.2697   -0.1536 H   0  0  0  0  0  0  0  0  0  0  0  0
    0.7855    0.0683    1.4386 H   0  0  0  0  0  0  0  0  0  0  0  0
    0.4508    2.6286   -1.1512 H   0  0  0  0  0  0  0  0  0  0  0  0
    2.8543    3.8650    1.6542 H   0  0  0  0  0  0  0  0  0  0  0  0
    4.4933    4.4585   -0.1213 H   0  0  0  0  0  0  0  0  0  0  0  0
    3.8552    1.2842    0.4827 H   0  0  0  0  0  0  0  0  0  0  0  0
    2.9978    1.5107    2.0059 H   0  0  0  0  0  0  0  0  0  0  0  0
  1  2  1  0
  2  3  1  0
  3  4  2  0
  4  5  1  0
  5  6  2  0
  5  7  1  0
  7  8  1  0
  7  9  1  0
  9  3  1  0
  1 10  1  0
  1 11  1  0
  1 12  1  0
  2 13  1  0
  2 14  1  0
  4 15  1  0
  7 16  1  0
  8 17  1  0
  9 18  1  0
  9 19  1  0
M  END
$$$$
