gdb 412	3.0649013	1.5315566	1.2444835	0.9753	74.06	-0.24976	0.07092	0.32068	1041.323	0.158353	-422.533513	-422.52601	-422.525066	-422.565496	29.316
 OpenBabel02181911403D

 19 21  0  0  1  0  0  0  0  0999 V2000
    0.6345    0.9421   -0.7868 C   0  0  0  0  0  0  0  0  0  0  0  0
   -0.0153   -0.0110    0.0604 O   0  0  0  0  0  0  0  0  0  0  0  0
    1.3956    0.2041    0.2232 C   0  0  2  0  0  0  0  0  0  0  0  0
    1.8500    0.7837    1.5576 C   0  0  0  0  0  0  0  0  0  0  0  0
    2.3222   -0.4595    2.3412 C   0  0  0  0  0  0  0  0  0  0  0  0
    2.9430   -1.3588    1.2731 C   0  0  2  0  0  0  0  0  0  0  0  0
    4.2326   -0.8751    0.8180 O   0  0  0  0  0  0  0  0  0  0  0  0
    3.7306   -0.6459   -0.5141 C   0  0  0  0  0  0  0  0  0  0  0  0
    2.2875   -0.9854   -0.0876 C   0  0  2  0  0  0  0  0  0  0  0  0
    0.7072    0.6611   -1.8374 H   0  0  0  0  0  0  0  0  0  0  0  0
    0.3691    1.9839   -0.6084 H   0  0  0  0  0  0  0  0  0  0  0  0
    2.6899    1.4691    1.4005 H   0  0  0  0  0  0  0  0  0  0  0  0
    1.0450    1.3361    2.0463 H   0  0  0  0  0  0  0  0  0  0  0  0
    3.0337   -0.2308    3.1390 H   0  0  0  0  0  0  0  0  0  0  0  0
    1.4641   -0.9765    2.7867 H   0  0  0  0  0  0  0  0  0  0  0  0
    2.9916   -2.4165    1.5522 H   0  0  0  0  0  0  0  0  0  0  0  0
    3.9141    0.3801   -0.8572 H   0  0  0  0  0  0  0  0  0  0  0  0
    4.1642   -1.3464   -1.2391 H   0  0  0  0  0  0  0  0  0  0  0  0
    1.7652   -1.7491   -0.6626 H   0  0  0  0  0  0  0  0  0  0  0  0
  1 11  1  0  0  0  0
  1  2  1  0  0  0  0
  1  3  1  0  0  0  0
  3  2  1  1  0  0  0
  3  4  1  0  0  0  0
  4 13  1  0  0  0  0
  4  5  1  0  0  0  0
  5 15  1  0  0  0  0
  5 14  1  0  0  0  0
  6 16  1  1  0  0  0
  6  5  1  0  0  0  0
  7  6  1  0  0  0  0
  8  9  1  0  0  0  0
  8  7  1  0  0  0  0
  9 19  1  6  0  0  0
  9  3  1  0  0  0  0
  9  6  1  0  0  0  0
 10  1  1  0  0  0  0
 12  4  1  0  0  0  0
 17  8  1  0  0  0  0
 18  8  1  0  0  0  0
M TOR 0 0 1 2 3
M TOR 1 0 1 2 8
M TOR 2 0 2 3 4
M TOR 3 0 2 3 11
M TOR 4 0 2 3 12
M TOR 5 0 2 8 5
M TOR 6 0 2 8 7
M TOR 7 0 2 8 18
M TOR 8 1 2 0 9
M TOR 9 1 2 0 10
M TOR 10 1 2 3 4
M TOR 11 1 2 3 11
M TOR 12 1 2 3 12
M TOR 13 1 2 8 5
M TOR 14 1 2 8 7
M TOR 15 1 2 8 18
M TOR 16 2 3 4 5
M TOR 17 2 3 4 13
M TOR 18 2 3 4 14
M TOR 19 2 8 5 4
M TOR 20 2 8 5 6
M TOR 21 2 8 5 15
M TOR 22 2 8 7 6
M TOR 23 2 8 7 16
M TOR 24 2 8 7 17
M TOR 25 3 2 0 9
M TOR 26 3 2 0 10
M TOR 27 3 2 8 5
M TOR 28 3 2 8 7
M TOR 29 3 2 8 18
M TOR 30 3 4 5 6
M TOR 31 3 4 5 8
M TOR 32 3 4 5 15
M TOR 33 4 3 2 8
M TOR 34 4 5 6 7
M TOR 35 4 5 8 7
M TOR 36 4 5 8 18
M TOR 37 5 4 3 11
M TOR 38 5 4 3 12
M TOR 39 5 6 7 8
M TOR 40 5 6 7 16
M TOR 41 5 6 7 17
M TOR 42 5 8 7 16
M TOR 43 5 8 7 17
M TOR 44 6 5 4 13
M TOR 45 6 5 4 14
M TOR 46 6 5 8 18
M TOR 47 6 7 8 18
M TOR 48 7 6 5 15
M TOR 49 7 8 5 15
M TOR 50 8 2 0 9
M TOR 51 8 2 0 10
M TOR 52 8 2 3 11
M TOR 53 8 2 3 12
M TOR 54 8 5 4 13
M TOR 55 8 5 4 14
M  END
$$$$
