gdb 2586	2.8223981	1.0741955	0.8178446	3.883	79.24	-0.23526	-0.01792	0.21734	1392.1534	0.155012	-422.572526	-422.563037	-422.562092	-422.6081	33.069
 OpenBabel02181911413D

 19 19  0  0  1  0  0  0  0  0999 V2000
   -0.9657    3.4097    2.9394 C   0  0  0  0  0  0  0  0  0  0  0  0
   -1.7300    2.8591    1.7791 C   0  0  0  0  0  0  0  0  0  0  0  0
   -3.0241    2.9839    1.4964 C   0  0  0  0  0  0  0  0  0  0  0  0
   -3.3524    2.2956    0.2053 C   0  0  0  0  0  0  0  0  0  0  0  0
   -2.1172    1.7295   -0.2337 O   0  0  0  0  0  0  0  0  0  0  0  0
   -1.0701    2.0518    0.6813 C   0  0  2  0  0  0  0  0  0  0  0  0
   -0.3949    0.7532    1.1722 C   0  0  0  0  0  0  0  0  0  0  0  0
    0.1608   -0.0659    0.0262 C   0  0  0  0  0  0  0  0  0  0  0  0
    1.3100   -0.4189   -0.0597 O   0  0  0  0  0  0  0  0  0  0  0  0
   -0.5195    2.6115    3.5446 H   0  0  0  0  0  0  0  0  0  0  0  0
   -0.1380    4.0454    2.6008 H   0  0  0  0  0  0  0  0  0  0  0  0
   -1.6085    4.0070    3.5906 H   0  0  0  0  0  0  0  0  0  0  0  0
   -3.7602    3.5159    2.0866 H   0  0  0  0  0  0  0  0  0  0  0  0
   -4.1042    1.4996    0.3202 H   0  0  0  0  0  0  0  0  0  0  0  0
   -3.7350    2.9921   -0.5575 H   0  0  0  0  0  0  0  0  0  0  0  0
   -0.3099    2.6579    0.1588 H   0  0  0  0  0  0  0  0  0  0  0  0
    0.4213    0.9736    1.8664 H   0  0  0  0  0  0  0  0  0  0  0  0
   -1.1550    0.1531    1.6901 H   0  0  0  0  0  0  0  0  0  0  0  0
   -0.5839   -0.3239   -0.7557 H   0  0  0  0  0  0  0  0  0  0  0  0
  1 10  1  0  0  0  0
  1 12  1  0  0  0  0
  2  1  1  0  0  0  0
  3  2  2  0  0  0  0
  3 13  1  0  0  0  0
  4 14  1  0  0  0  0
  4  3  1  0  0  0  0
  5  4  1  0  0  0  0
  5  6  1  0  0  0  0
  6 16  1  6  0  0  0
  6  7  1  0  0  0  0
  6  2  1  0  0  0  0
  7 18  1  0  0  0  0
  7 17  1  0  0  0  0
  8  7  1  0  0  0  0
  9  8  2  0  0  0  0
 11  1  1  0  0  0  0
 15  4  1  0  0  0  0
 19  8  1  0  0  0  0
M TOR 0 0 1 2 3
M TOR 1 0 1 2 12
M TOR 2 0 1 5 4
M TOR 3 0 1 5 6
M TOR 4 0 1 5 15
M TOR 5 1 2 3 4
M TOR 6 1 2 3 13
M TOR 7 1 2 3 14
M TOR 8 1 5 4 3
M TOR 9 1 5 6 7
M TOR 10 1 5 6 16
M TOR 11 1 5 6 17
M TOR 12 2 1 0 9
M TOR 13 2 1 0 10
M TOR 14 2 1 0 11
M TOR 15 2 1 5 4
M TOR 16 2 1 5 6
M TOR 17 2 1 5 15
M TOR 18 2 3 4 5
M TOR 19 3 2 1 5
M TOR 20 3 4 5 6
M TOR 21 3 4 5 15
M TOR 22 4 3 2 12
M TOR 23 4 5 6 7
M TOR 24 4 5 6 16
M TOR 25 4 5 6 17
M TOR 26 5 1 0 9
M TOR 27 5 1 0 10
M TOR 28 5 1 0 11
M TOR 29 5 1 2 12
M TOR 30 5 4 3 13
M TOR 31 5 4 3 14
M TOR 32 5 6 7 8
M TOR 33 5 6 7 18
M TOR 34 7 6 5 15
M TOR 35 8 7 6 16
M TOR 36 8 7 6 17
M  END
$$$$
