gdb 1691	2.9269264	1.2045387	1.1096065	2.6453	75.12	-0.24217	-0.02058	0.22159	1176.2337	0.155111	-422.541832	-422.532846	-422.531902	-422.576143	33.307
 OpenBabel02181911403D

 19 20  0  0  1  0  0  0  0  0999 V2000
   -0.0627    2.7406    0.3010 O   0  0  0  0  0  0  0  0  0  0  0  0
   -1.0121    2.0763   -0.5141 C   0  0  2  0  0  0  0  0  0  0  0  0
   -0.2524    0.9160   -1.1738 C   0  0  0  0  0  0  0  0  0  0  0  0
    0.3188   -0.0080   -0.1154 C   0  0  0  0  0  0  0  0  0  0  0  0
   -0.2488   -0.9950    0.2831 O   0  0  0  0  0  0  0  0  0  0  0  0
   -1.8308    2.9325   -1.5500 C   0  0  0  0  0  0  0  0  0  0  0  0
   -3.1243    2.4092   -0.9155 C   0  0  2  0  0  0  0  0  0  0  0  0
   -3.1713    2.8201    0.5249 C   0  0  0  0  0  0  0  0  0  0  0  0
   -2.3280    1.6321    0.1384 C   0  0  2  0  0  0  0  0  0  0  0  0
   -0.5403    3.3152    0.9081 H   0  0  0  0  0  0  0  0  0  0  0  0
   -0.9343    0.3452   -1.8088 H   0  0  0  0  0  0  0  0  0  0  0  0
    0.5588    1.3329   -1.7813 H   0  0  0  0  0  0  0  0  0  0  0  0
    1.3009    0.2960    0.3029 H   0  0  0  0  0  0  0  0  0  0  0  0
   -1.6722    4.0140   -1.4836 H   0  0  0  0  0  0  0  0  0  0  0  0
   -1.6674    2.6157   -2.5824 H   0  0  0  0  0  0  0  0  0  0  0  0
   -4.0061    2.0898   -1.4554 H   0  0  0  0  0  0  0  0  0  0  0  0
   -2.7265    3.7649    0.8363 H   0  0  0  0  0  0  0  0  0  0  0  0
   -4.0770    2.5712    1.0679 H   0  0  0  0  0  0  0  0  0  0  0  0
   -2.5045    0.6473    0.5529 H   0  0  0  0  0  0  0  0  0  0  0  0
  1 10  1  0  0  0  0
  2  9  1  0  0  0  0
  2  1  1  1  0  0  0
  3  2  1  0  0  0  0
  3  4  1  0  0  0  0
  4  5  2  0  0  0  0
  4 13  1  0  0  0  0
  6 14  1  0  0  0  0
  6  7  1  0  0  0  0
  6  2  1  0  0  0  0
  7 16  1  6  0  0  0
  7  9  1  0  0  0  0
  7  8  1  0  0  0  0
  8 17  1  0  0  0  0
  8 18  1  0  0  0  0
  9  8  1  0  0  0  0
  9 19  1  1  0  0  0
 11  3  1  0  0  0  0
 12  3  1  0  0  0  0
 15  6  1  0  0  0  0
M TOR 0 0 1 2 3
M TOR 1 0 1 2 10
M TOR 2 0 1 2 11
M TOR 3 0 1 5 6
M TOR 4 0 1 5 13
M TOR 5 0 1 5 14
M TOR 6 0 1 8 6
M TOR 7 0 1 8 7
M TOR 8 0 1 8 18
M TOR 9 1 2 3 4
M TOR 10 1 2 3 12
M TOR 11 1 5 6 7
M TOR 12 1 5 6 8
M TOR 13 1 5 6 15
M TOR 14 1 8 6 7
M TOR 15 1 8 6 15
M TOR 16 1 8 7 16
M TOR 17 1 8 7 17
M TOR 18 2 1 0 9
M TOR 19 2 1 5 6
M TOR 20 2 1 5 13
M TOR 21 2 1 5 14
M TOR 22 2 1 8 6
M TOR 23 2 1 8 7
M TOR 24 2 1 8 18
M TOR 25 3 2 1 5
M TOR 26 3 2 1 8
M TOR 27 4 3 2 10
M TOR 28 4 3 2 11
M TOR 29 5 1 0 9
M TOR 30 5 1 2 10
M TOR 31 5 1 2 11
M TOR 32 5 1 8 7
M TOR 33 5 1 8 18
M TOR 34 5 6 7 8
M TOR 35 5 6 7 16
M TOR 36 5 6 7 17
M TOR 37 5 6 8 18
M TOR 38 6 7 8 18
M TOR 39 6 8 7 16
M TOR 40 6 8 7 17
M TOR 41 7 6 5 13
M TOR 42 7 6 5 14
M TOR 43 7 8 6 15
M TOR 44 8 1 0 9
M TOR 45 8 1 2 10
M TOR 46 8 1 2 11
M TOR 47 8 1 5 13
M TOR 48 8 1 5 14
M TOR 49 8 6 5 13
M TOR 50 8 6 5 14
M  END
$$$$
