gdb 5873	6.666871	0.4751302	0.4602094	2.613	83.79	-0.23097	0.04802	0.27899	2322.4331	0.154836	-422.506583	-422.496177	-422.495233	-422.543758	36.33
 OpenBabel02181911423D

 19 19  0  0  1  0  0  0  0  0999 V2000
    4.2678    2.0053   -0.5150 O   0  0  0  0  0  0  0  0  0  0  0  0
    2.9288    2.0133   -0.0564 C   0  0  0  0  0  0  0  0  0  0  0  0
    2.5252    0.6694    0.5827 C   0  0  0  0  0  0  0  0  0  0  0  0
    1.1362    0.6506    1.0220 C   0  0  0  0  0  0  0  0  0  0  0  0
   -0.0186    0.6779    1.3681 C   0  0  0  0  0  0  0  0  0  0  0  0
   -1.3917    0.6913    1.7789 C   0  0  2  0  0  0  0  0  0  0  0  0
   -2.0090    1.9427    2.4086 C   0  0  0  0  0  0  0  0  0  0  0  0
   -1.7632    0.7200    3.2426 C   0  0  1  0  0  0  0  0  0  0  0  0
   -2.8363   -0.0961    3.6024 O   0  0  0  0  0  0  0  0  0  0  0  0
    4.8452    1.9591    0.2536 H   0  0  0  0  0  0  0  0  0  0  0  0
    2.7428    2.8301    0.6563 H   0  0  0  0  0  0  0  0  0  0  0  0
    2.3055    2.1995   -0.9357 H   0  0  0  0  0  0  0  0  0  0  0  0
    2.7085   -0.1288   -0.1469 H   0  0  0  0  0  0  0  0  0  0  0  0
    3.1912    0.4660    1.4338 H   0  0  0  0  0  0  0  0  0  0  0  0
   -2.0773    0.1086    1.1705 H   0  0  0  0  0  0  0  0  0  0  0  0
   -1.3681    2.8056    2.5464 H   0  0  0  0  0  0  0  0  0  0  0  0
   -3.0360    2.1577    2.1354 H   0  0  0  0  0  0  0  0  0  0  0  0
   -0.9369    0.7492    3.9516 H   0  0  0  0  0  0  0  0  0  0  0  0
   -3.3363    0.3565    4.2902 H   0  0  0  0  0  0  0  0  0  0  0  0
  1  2  1  0  0  0  0
  1 10  1  0  0  0  0
  2  3  1  0  0  0  0
  2 11  1  0  0  0  0
  3  4  1  0  0  0  0
  3 14  1  0  0  0  0
  4  5  3  0  0  0  0
  5  6  1  0  0  0  0
  6 15  1  6  0  0  0
  6  7  1  0  0  0  0
  6  8  1  0  0  0  0
  7 16  1  0  0  0  0
  7  8  1  0  0  0  0
  8  9  1  0  0  0  0
  8 18  1  1  0  0  0
  9 19  1  0  0  0  0
 12  2  1  0  0  0  0
 13  3  1  0  0  0  0
 17  7  1  0  0  0  0
M TOR 0 0 1 2 3
M TOR 1 0 1 2 12
M TOR 2 0 1 2 13
M TOR 3 1 2 3 4
M TOR 4 2 1 0 9
M TOR 5 2 3 4 5
M TOR 6 3 2 1 10
M TOR 7 3 2 1 11
M TOR 8 3 4 5 6
M TOR 9 3 4 5 7
M TOR 10 3 4 5 14
M TOR 11 4 3 2 12
M TOR 12 4 3 2 13
M TOR 13 4 5 6 7
M TOR 14 4 5 6 15
M TOR 15 4 5 6 16
M TOR 16 4 5 7 8
M TOR 17 4 5 7 17
M TOR 18 5 6 7 8
M TOR 19 5 6 7 17
M TOR 20 5 7 6 15
M TOR 21 5 7 6 16
M TOR 22 5 7 8 18
M TOR 23 6 7 5 14
M TOR 24 6 7 8 18
M TOR 25 8 7 5 14
M TOR 26 8 7 6 15
M TOR 27 8 7 6 16
M  END
$$$$
