
     RDKit          3D

 19 21  0  0  0  0  0  0  0  0999 V2000
    0.1268    0.4478    0.0330 C   0  0  0  0  0  0  0  0  0  0  0  0
    1.0713   -0.7266    0.0268 C   0  0  0  0  0  0  0  0  0  0  0  0
    2.2688   -0.5965    0.8157 O   0  0  0  0  0  0  0  0  0  0  0  0
    2.4011   -0.6965   -0.5879 C   0  0  0  0  0  0  0  0  0  0  0  0
    3.1423   -1.8213   -1.3530 C   0  0  0  0  0  0  0  0  0  0  0  0
    3.6935   -0.7141   -2.2797 C   0  0  0  0  0  0  0  0  0  0  0  0
    4.0524   -0.8069   -3.7261 C   0  0  0  0  0  0  0  0  0  0  0  0
    4.4485    0.1598   -1.4329 O   0  0  0  0  0  0  0  0  0  0  0  0
    3.0222    0.3476   -1.4946 C   0  0  0  0  0  0  0  0  0  0  0  0
   -0.4299    0.4831    0.9752 H   0  0  0  0  0  0  0  0  0  0  0  0
    0.6706    1.3895   -0.0747 H   0  0  0  0  0  0  0  0  0  0  0  0
   -0.5997    0.3639   -0.7826 H   0  0  0  0  0  0  0  0  0  0  0  0
    0.5956   -1.7056    0.1184 H   0  0  0  0  0  0  0  0  0  0  0  0
    3.9063   -2.3589   -0.7875 H   0  0  0  0  0  0  0  0  0  0  0  0
    2.4646   -2.5274   -1.8404 H   0  0  0  0  0  0  0  0  0  0  0  0
    4.9426   -1.4306   -3.8646 H   0  0  0  0  0  0  0  0  0  0  0  0
    3.2362   -1.2550   -4.3017 H   0  0  0  0  0  0  0  0  0  0  0  0
    4.2664    0.1859   -4.1303 H   0  0  0  0  0  0  0  0  0  0  0  0
    2.6649    1.3310   -1.7781 H   0  0  0  0  0  0  0  0  0  0  0  0
  1  2  1  0
  2  3  1  0
  3  4  1  0
  4  5  1  0
  5  6  1  0
  6  7  1  0
  6  8  1  0
  8  9  1  0
  4  2  1  0
  9  4  1  0
  9  6  1  0
  1 10  1  0
  1 11  1  0
  1 12  1  0
  2 13  1  0
  5 14  1  0
  5 15  1  0
  7 16  1  0
  7 17  1  0
  7 18  1  0
  9 19  1  0
M  END
$$$$
