
     RDKit          3D

 19 20  0  0  0  0  0  0  0  0999 V2000
   -2.2578    1.6880   -3.3835 C   0  0  0  0  0  0  0  0  0  0  0  0
   -0.9828    0.8840   -3.4966 C   0  0  0  0  0  0  0  0  0  0  0  0
   -0.4258    0.6546   -4.5454 O   0  0  0  0  0  0  0  0  0  0  0  0
   -0.3820    0.3743   -2.1888 C   0  0  0  0  0  0  0  0  0  0  0  0
    0.1311   -1.0794   -2.1769 C   0  0  0  0  0  0  0  0  0  0  0  0
   -0.9280   -1.2756   -1.0974 C   0  0  0  0  0  0  0  0  0  0  0  0
   -1.8866   -2.3931   -0.8636 C   0  0  0  0  0  0  0  0  0  0  0  0
   -0.8620   -2.0069    0.1993 C   0  0  0  0  0  0  0  0  0  0  0  0
   -1.3673    0.0897   -1.1658 O   0  0  0  0  0  0  0  0  0  0  0  0
   -3.0357    1.0786   -2.9143 H   0  0  0  0  0  0  0  0  0  0  0  0
   -2.1035    2.5484   -2.7219 H   0  0  0  0  0  0  0  0  0  0  0  0
   -2.5733    2.0262   -4.3708 H   0  0  0  0  0  0  0  0  0  0  0  0
    0.3438    1.1236   -1.8401 H   0  0  0  0  0  0  0  0  0  0  0  0
   -0.0285   -1.6143   -3.1142 H   0  0  0  0  0  0  0  0  0  0  0  0
    1.1642   -1.2089   -1.8519 H   0  0  0  0  0  0  0  0  0  0  0  0
   -2.9209   -2.1258   -0.6750 H   0  0  0  0  0  0  0  0  0  0  0  0
   -1.7475   -3.3193   -1.4119 H   0  0  0  0  0  0  0  0  0  0  0  0
   -1.2305   -1.4882    1.0778 H   0  0  0  0  0  0  0  0  0  0  0  0
   -0.0221   -2.6702    0.3803 H   0  0  0  0  0  0  0  0  0  0  0  0
  1  2  1  0
  2  3  2  0
  2  4  1  0
  4  5  1  0
  5  6  1  0
  6  7  1  0
  7  8  1  0
  6  9  1  0
  9  4  1  0
  8  6  1  0
  1 10  1  0
  1 11  1  0
  1 12  1  0
  4 13  1  0
  5 14  1  0
  5 15  1  0
  7 16  1  0
  7 17  1  0
  8 18  1  0
  8 19  1  0
M  END
$$$$
