gdb 2634	2.7267488	1.506772	1.1952604	1.9517	76.5	-0.24114	-0.00363	0.23751	1108.3096	0.155626	-422.560391	-422.551443	-422.550498	-422.593477	33.901
 OpenBabel02181911413D

 19 20  0  0  1  0  0  0  0  0999 V2000
    1.2826    0.8808    0.3625 C   0  0  0  0  0  0  0  0  0  0  0  0
   -0.0258    0.1685    0.2717 C   0  0  0  0  0  0  0  0  0  0  0  0
   -0.2697   -1.1444    0.3511 C   0  0  0  0  0  0  0  0  0  0  0  0
   -1.7125   -1.4271    0.0913 C   0  0  2  0  0  0  0  0  0  0  0  0
   -2.1511   -1.0057   -1.2382 O   0  0  0  0  0  0  0  0  0  0  0  0
   -2.3914   -0.1437   -0.1098 C   0  0  1  0  0  0  0  0  0  0  0  0
   -3.8218    0.1841    0.2033 C   0  0  0  0  0  0  0  0  0  0  0  0
   -1.3057    0.9457   -0.0473 C   0  0  2  0  0  0  0  0  0  0  0  0
   -1.2117    1.6674   -1.2665 O   0  0  0  0  0  0  0  0  0  0  0  0
    1.2903    1.5847    1.2049 H   0  0  0  0  0  0  0  0  0  0  0  0
    2.1186    0.1877    0.4862 H   0  0  0  0  0  0  0  0  0  0  0  0
    1.4480    1.4776   -0.5415 H   0  0  0  0  0  0  0  0  0  0  0  0
    0.4687   -1.9177    0.5291 H   0  0  0  0  0  0  0  0  0  0  0  0
   -2.2121   -2.3149    0.4671 H   0  0  0  0  0  0  0  0  0  0  0  0
   -3.9230    0.5384    1.2346 H   0  0  0  0  0  0  0  0  0  0  0  0
   -4.1794    0.9778   -0.4619 H   0  0  0  0  0  0  0  0  0  0  0  0
   -4.4589   -0.6934    0.0680 H   0  0  0  0  0  0  0  0  0  0  0  0
   -1.5287    1.6931    0.7245 H   0  0  0  0  0  0  0  0  0  0  0  0
   -1.2116    0.9896   -1.9569 H   0  0  0  0  0  0  0  0  0  0  0  0
  1 11  1  0  0  0  0
  1 10  1  0  0  0  0
  2  3  2  0  0  0  0
  2  1  1  0  0  0  0
  3 13  1  0  0  0  0
  4  3  1  0  0  0  0
  4 14  1  1  0  0  0
  5  6  1  0  0  0  0
  5  4  1  0  0  0  0
  6  8  1  0  0  0  0
  6  4  1  0  0  0  0
  6  7  1  1  0  0  0
  7 15  1  0  0  0  0
  8  2  1  0  0  0  0
  8 18  1  1  0  0  0
  9  8  1  0  0  0  0
 12  1  1  0  0  0  0
 16  7  1  0  0  0  0
 17  7  1  0  0  0  0
 19  9  1  0  0  0  0
M TOR 0 0 1 2 3
M TOR 1 0 1 2 12
M TOR 2 0 1 7 5
M TOR 3 0 1 7 8
M TOR 4 0 1 7 17
M TOR 5 1 2 3 4
M TOR 6 1 2 3 5
M TOR 7 1 2 3 13
M TOR 8 1 7 5 3
M TOR 9 1 7 5 4
M TOR 10 1 7 5 6
M TOR 11 1 7 8 18
M TOR 12 2 1 0 9
M TOR 13 2 1 0 10
M TOR 14 2 1 0 11
M TOR 15 2 1 7 5
M TOR 16 2 1 7 8
M TOR 17 2 1 7 17
M TOR 18 2 3 4 5
M TOR 19 2 3 5 6
M TOR 20 2 3 5 7
M TOR 21 3 2 1 7
M TOR 22 3 4 5 6
M TOR 23 3 4 5 7
M TOR 24 3 5 6 14
M TOR 25 3 5 6 15
M TOR 26 3 5 6 16
M TOR 27 3 5 7 8
M TOR 28 3 5 7 17
M TOR 29 4 3 2 12
M TOR 30 4 5 3 13
M TOR 31 4 5 6 14
M TOR 32 4 5 6 15
M TOR 33 4 5 6 16
M TOR 34 4 5 7 8
M TOR 35 4 5 7 17
M TOR 36 5 3 2 12
M TOR 37 5 7 8 18
M TOR 38 6 5 3 13
M TOR 39 6 5 7 8
M TOR 40 6 5 7 17
M TOR 41 7 1 0 9
M TOR 42 7 1 0 10
M TOR 43 7 1 0 11
M TOR 44 7 1 2 12
M TOR 45 7 5 3 13
M TOR 46 7 5 6 14
M TOR 47 7 5 6 15
M TOR 48 7 5 6 16
M  END
$$$$
