
     RDKit          3D

 19 20  0  0  0  0  0  0  0  0999 V2000
   -0.0521   -0.3869    0.0798 C   0  0  0  0  0  0  0  0  0  0  0  0
    1.4079    0.0510   -0.0222 C   0  0  0  0  0  0  0  0  0  0  0  0
    1.7423    0.4908   -1.3623 O   0  0  0  0  0  0  0  0  0  0  0  0
    2.2441    1.8241   -1.1333 C   0  0  0  0  0  0  0  0  0  0  0  0
    3.1717    1.6593    0.0942 C   0  0  0  0  0  0  0  0  0  0  0  0
    1.7977    1.3269    0.7673 C   0  0  0  0  0  0  0  0  0  0  0  0
    1.2054    2.4340   -0.1637 C   0  0  0  0  0  0  0  0  0  0  0  0
    2.2995   -1.1364    0.3481 C   0  0  0  0  0  0  0  0  0  0  0  0
    2.2708   -1.6803    1.4216 O   0  0  0  0  0  0  0  0  0  0  0  0
   -0.2315   -0.8291    1.0635 H   0  0  0  0  0  0  0  0  0  0  0  0
   -0.7339    0.4527   -0.0678 H   0  0  0  0  0  0  0  0  0  0  0  0
   -0.2721   -1.1399   -0.6831 H   0  0  0  0  0  0  0  0  0  0  0  0
    2.5436    2.2678   -2.0810 H   0  0  0  0  0  0  0  0  0  0  0  0
    3.9443    0.8888    0.0488 H   0  0  0  0  0  0  0  0  0  0  0  0
    3.5910    2.6020    0.4482 H   0  0  0  0  0  0  0  0  0  0  0  0
    1.6526    1.2994    1.8452 H   0  0  0  0  0  0  0  0  0  0  0  0
    0.1549    2.3880   -0.4536 H   0  0  0  0  0  0  0  0  0  0  0  0
    1.4686    3.4373    0.1755 H   0  0  0  0  0  0  0  0  0  0  0  0
    2.9789   -1.4656   -0.4690 H   0  0  0  0  0  0  0  0  0  0  0  0
  1  2  1  0
  2  3  1  0
  3  4  1  0
  4  5  1  0
  5  6  1  0
  6  7  1  0
  2  8  1  0
  8  9  2  0
  6  2  1  0
  7  4  1  0
  1 10  1  0
  1 11  1  0
  1 12  1  0
  4 13  1  0
  5 14  1  0
  5 15  1  0
  6 16  1  0
  7 17  1  0
  7 18  1  0
  8 19  1  0
M  END
$$$$
