
     RDKit          3D

 19 19  0  0  0  0  0  0  0  0999 V2000
    4.4309   -0.7336   -1.3742 C   0  0  0  0  0  0  0  0  0  0  0  0
    3.9605   -0.0792   -0.0836 C   0  0  0  0  0  0  0  0  0  0  0  0
    4.8027   -0.2830    1.1816 C   0  0  0  0  0  0  0  0  0  0  0  0
    4.7861    1.0561    0.5038 C   0  0  0  0  0  0  0  0  0  0  0  0
    5.8909    1.4765   -0.2372 O   0  0  0  0  0  0  0  0  0  0  0  0
    2.5344    0.0026    0.0893 C   0  0  0  0  0  0  0  0  0  0  0  0
    1.3348    0.0472    0.2122 C   0  0  0  0  0  0  0  0  0  0  0  0
   -0.1140    0.1679    0.3597 C   0  0  0  0  0  0  0  0  0  0  0  0
   -0.7008    1.1252   -0.5136 O   0  0  0  0  0  0  0  0  0  0  0  0
    4.1281   -1.7845   -1.4023 H   0  0  0  0  0  0  0  0  0  0  0  0
    3.9919   -0.2305   -2.2407 H   0  0  0  0  0  0  0  0  0  0  0  0
    5.5168   -0.6717   -1.4611 H   0  0  0  0  0  0  0  0  0  0  0  0
    4.2886   -0.4000    2.1282 H   0  0  0  0  0  0  0  0  0  0  0  0
    5.6970   -0.8853    1.0589 H   0  0  0  0  0  0  0  0  0  0  0  0
    4.2240    1.8559    0.9837 H   0  0  0  0  0  0  0  0  0  0  0  0
    6.6153    1.6409    0.3756 H   0  0  0  0  0  0  0  0  0  0  0  0
   -0.6003   -0.7854    0.1229 H   0  0  0  0  0  0  0  0  0  0  0  0
   -0.3533    0.3901    1.4126 H   0  0  0  0  0  0  0  0  0  0  0  0
   -0.1784    1.9310   -0.4451 H   0  0  0  0  0  0  0  0  0  0  0  0
  1  2  1  0
  2  3  1  0
  3  4  1  0
  4  5  1  0
  2  6  1  0
  6  7  3  0
  7  8  1  0
  8  9  1  0
  4  2  1  0
  1 10  1  0
  1 11  1  0
  1 12  1  0
  3 13  1  0
  3 14  1  0
  4 15  1  0
  5 16  1  0
  8 17  1  0
  8 18  1  0
  9 19  1  0
M  END
$$$$
