gdb 5408	2.5278723	1.1675715	0.9496361	0.2907	80.46	-0.23132	0.03663	0.26795	1308.6536	0.152215	-422.497217	-422.48661	-422.485666	-422.532463	38.026
 OpenBabel02181911423D

 19 19  0  0  1  0  0  0  0  0999 V2000
    1.6618    0.0549   -0.1451 C   0  0  0  0  0  0  0  0  0  0  0  0
    0.2449   -0.0027   -0.1539 O   0  0  0  0  0  0  0  0  0  0  0  0
   -0.3193    0.4943    1.0127 C   0  0  2  0  0  0  0  0  0  0  0  0
   -1.7931    0.8502    0.9124 C   0  0  1  0  0  0  0  0  0  0  0  0
   -2.6949    0.5547    1.9810 C   0  0  0  0  0  0  0  0  0  0  0  0
   -3.4286    0.3900    2.9226 C   0  0  0  0  0  0  0  0  0  0  0  0
   -0.7282    1.9418    1.1353 C   0  0  2  0  0  0  0  0  0  0  0  0
   -0.4511    2.9247    0.0256 C   0  0  0  0  0  0  0  0  0  0  0  0
   -0.6552    2.5030    2.4119 O   0  0  0  0  0  0  0  0  0  0  0  0
    2.0801   -0.5393    0.6802 H   0  0  0  0  0  0  0  0  0  0  0  0
    2.0030   -0.3646   -1.0940 H   0  0  0  0  0  0  0  0  0  0  0  0
    2.0272    1.0864   -0.0522 H   0  0  0  0  0  0  0  0  0  0  0  0
    0.0082    0.0177    1.9378 H   0  0  0  0  0  0  0  0  0  0  0  0
   -2.1967    0.7978   -0.0944 H   0  0  0  0  0  0  0  0  0  0  0  0
   -4.0862    0.1961    3.7337 H   0  0  0  0  0  0  0  0  0  0  0  0
   -0.3679    2.4114   -0.9350 H   0  0  0  0  0  0  0  0  0  0  0  0
   -1.2478    3.6726   -0.0375 H   0  0  0  0  0  0  0  0  0  0  0  0
    0.4880    3.4510    0.2244 H   0  0  0  0  0  0  0  0  0  0  0  0
   -1.4881    2.3285    2.8700 H   0  0  0  0  0  0  0  0  0  0  0  0
  1 12  1  0  0  0  0
  1 10  1  0  0  0  0
  2  1  1  0  0  0  0
  2  3  1  0  0  0  0
  3  7  1  0  0  0  0
  3 13  1  1  0  0  0
  4 14  1  6  0  0  0
  4  3  1  0  0  0  0
  4  7  1  0  0  0  0
  4  5  1  0  0  0  0
  5  6  3  0  0  0  0
  6 15  1  0  0  0  0
  7  9  1  1  0  0  0
  8 18  1  0  0  0  0
  8  7  1  0  0  0  0
  9 19  1  0  0  0  0
 11  1  1  0  0  0  0
 16  8  1  0  0  0  0
 17  8  1  0  0  0  0
M TOR 0 0 1 2 3
M TOR 1 0 1 2 6
M TOR 2 0 1 2 12
M TOR 3 1 2 3 4
M TOR 4 1 2 3 6
M TOR 5 1 2 3 13
M TOR 6 1 2 6 7
M TOR 7 1 2 6 8
M TOR 8 2 1 0 9
M TOR 9 2 1 0 10
M TOR 10 2 1 0 11
M TOR 11 2 3 4 5
M TOR 12 2 3 6 7
M TOR 13 2 3 6 8
M TOR 14 2 6 3 4
M TOR 15 2 6 3 13
M TOR 16 2 6 7 15
M TOR 17 2 6 7 16
M TOR 18 2 6 7 17
M TOR 19 2 6 8 18
M TOR 20 3 4 5 14
M TOR 21 3 6 2 12
M TOR 22 3 6 7 15
M TOR 23 3 6 7 16
M TOR 24 3 6 7 17
M TOR 25 3 6 8 18
M TOR 26 4 3 2 12
M TOR 27 4 3 6 7
M TOR 28 4 3 6 8
M TOR 29 5 4 3 6
M TOR 30 5 4 3 13
M TOR 31 7 6 2 12
M TOR 32 7 6 3 13
M TOR 33 7 6 8 18
M TOR 34 8 6 2 12
M TOR 35 8 6 3 13
M TOR 36 8 6 7 15
M TOR 37 8 6 7 16
M TOR 38 8 6 7 17
M  END
$$$$
