
     RDKit          3D

 19 19  0  0  0  0  0  0  0  0999 V2000
   -2.1357   -2.6247   -0.6361 C   0  0  0  0  0  0  0  0  0  0  0  0
   -1.7590   -1.4334    0.2505 C   0  0  0  0  0  0  0  0  0  0  0  0
   -0.2789   -1.1408    0.3895 C   0  0  0  0  0  0  0  0  0  0  0  0
    0.0401    0.1504    0.2379 C   0  0  0  0  0  0  0  0  0  0  0  0
    1.3919    0.7816    0.2864 C   0  0  0  0  0  0  0  0  0  0  0  0
   -1.2059    0.9880    0.0385 C   0  0  0  0  0  0  0  0  0  0  0  0
   -1.1100    1.9670   -0.9688 O   0  0  0  0  0  0  0  0  0  0  0  0
   -2.2414   -0.0906   -0.3054 C   0  0  0  0  0  0  0  0  0  0  0  0
   -3.1869    0.1111   -1.0253 O   0  0  0  0  0  0  0  0  0  0  0  0
   -1.8037   -3.5640   -0.1844 H   0  0  0  0  0  0  0  0  0  0  0  0
   -3.2189   -2.6690   -0.7745 H   0  0  0  0  0  0  0  0  0  0  0  0
   -1.6721   -2.5365   -1.6231 H   0  0  0  0  0  0  0  0  0  0  0  0
   -2.2231   -1.5727    1.2406 H   0  0  0  0  0  0  0  0  0  0  0  0
    0.4404   -1.9282    0.5926 H   0  0  0  0  0  0  0  0  0  0  0  0
    1.4678    1.4899    1.1213 H   0  0  0  0  0  0  0  0  0  0  0  0
    2.1817    0.0335    0.3954 H   0  0  0  0  0  0  0  0  0  0  0  0
    1.5725    1.3573   -0.6278 H   0  0  0  0  0  0  0  0  0  0  0  0
   -1.4948    1.4603    0.9979 H   0  0  0  0  0  0  0  0  0  0  0  0
   -1.9440    1.9202   -1.4585 H   0  0  0  0  0  0  0  0  0  0  0  0
  1  2  1  0
  2  3  1  0
  3  4  2  0
  4  5  1  0
  4  6  1  0
  6  7  1  0
  6  8  1  0
  8  9  2  0
  8  2  1  0
  1 10  1  0
  1 11  1  0
  1 12  1  0
  2 13  1  0
  3 14  1  0
  5 15  1  0
  5 16  1  0
  5 17  1  0
  6 18  1  0
  7 19  1  0
M  END
$$$$
