gdb 3768	2.3900555	1.3274623	0.9617185	1.62	76.96	-0.25197	-0.02067	0.23130000000000003	1265.3511	0.154567	-422.539513	-422.530165	-422.529221	-422.574047	33.77
 OpenBabel02181911413D

 19 20  0  0  1  0  0  0  0  0999 V2000
    1.1492   -2.4380    0.5667 C   0  0  0  0  0  0  0  0  0  0  0  0
    1.1049   -1.0430    1.1292 C   0  0  2  0  0  0  0  0  0  0  0  0
    0.1133   -0.1547    0.5807 O   0  0  0  0  0  0  0  0  0  0  0  0
    1.4943    0.1370    0.3483 C   0  0  1  0  0  0  0  0  0  0  0  0
    2.0255    1.3930    0.9741 C   0  0  0  0  0  0  0  0  0  0  0  0
    1.2283    2.6888    0.8145 C   0  0  0  0  0  0  0  0  0  0  0  0
    1.2857    2.0251    2.1455 C   0  0  0  0  0  0  0  0  0  0  0  0
    3.4991    1.5379    0.9590 C   0  0  0  0  0  0  0  0  0  0  0  0
    4.2638    0.7241    0.5000 O   0  0  0  0  0  0  0  0  0  0  0  0
    0.3274   -3.0425    0.9642 H   0  0  0  0  0  0  0  0  0  0  0  0
    1.0663   -2.4197   -0.5232 H   0  0  0  0  0  0  0  0  0  0  0  0
    2.0913   -2.9257    0.8378 H   0  0  0  0  0  0  0  0  0  0  0  0
    1.1951   -0.9676    2.2139 H   0  0  0  0  0  0  0  0  0  0  0  0
    1.8231   -0.0279   -0.6778 H   0  0  0  0  0  0  0  0  0  0  0  0
    1.7849    3.6071    0.6606 H   0  0  0  0  0  0  0  0  0  0  0  0
    0.3114    2.6030    0.2433 H   0  0  0  0  0  0  0  0  0  0  0  0
    1.8815    2.4770    2.9314 H   0  0  0  0  0  0  0  0  0  0  0  0
    0.4040    1.4889    2.4753 H   0  0  0  0  0  0  0  0  0  0  0  0
    3.8689    2.4879    1.4127 H   0  0  0  0  0  0  0  0  0  0  0  0
  1 12  1  0  0  0  0
  1 10  1  0  0  0  0
  1  2  1  0  0  0  0
  2 13  1  1  0  0  0
  3  2  1  0  0  0  0
  4 14  1  6  0  0  0
  4  3  1  0  0  0  0
  4  5  1  0  0  0  0
  4  2  1  0  0  0  0
  5  7  1  0  0  0  0
  6  5  1  0  0  0  0
  6  7  1  0  0  0  0
  7 18  1  0  0  0  0
  7 17  1  0  0  0  0
  8  5  1  0  0  0  0
  8 19  1  0  0  0  0
  9  8  2  0  0  0  0
 11  1  1  0  0  0  0
 15  6  1  0  0  0  0
 16  6  1  0  0  0  0
M TOR 0 0 1 2 3
M TOR 1 0 1 3 4
M TOR 2 0 1 3 13
M TOR 3 1 2 3 4
M TOR 4 1 2 3 13
M TOR 5 1 3 4 5
M TOR 6 1 3 4 6
M TOR 7 1 3 4 7
M TOR 8 2 1 0 9
M TOR 9 2 1 0 10
M TOR 10 2 1 0 11
M TOR 11 2 3 1 12
M TOR 12 2 3 4 5
M TOR 13 2 3 4 6
M TOR 14 2 3 4 7
M TOR 15 3 1 0 9
M TOR 16 3 1 0 10
M TOR 17 3 1 0 11
M TOR 18 3 4 5 6
M TOR 19 3 4 5 14
M TOR 20 3 4 5 15
M TOR 21 3 4 6 16
M TOR 22 3 4 6 17
M TOR 23 3 4 7 8
M TOR 24 3 4 7 18
M TOR 25 4 3 1 12
M TOR 26 4 5 6 16
M TOR 27 4 5 6 17
M TOR 28 4 6 5 14
M TOR 29 4 6 5 15
M TOR 30 5 4 3 13
M TOR 31 5 4 7 8
M TOR 32 5 4 7 18
M TOR 33 5 6 4 7
M TOR 34 6 4 3 13
M TOR 35 6 4 7 8
M TOR 36 6 4 7 18
M TOR 37 7 4 3 13
M TOR 38 7 4 5 14
M TOR 39 7 4 5 15
M TOR 40 7 4 6 16
M TOR 41 7 4 6 17
M  END
$$$$
