gdb 595	2.3977245	2.0466746	1.6270964	1.8598	74.59	-0.24119	0.01638	0.25756999999999997	921.864	0.160627	-422.575896	-422.568967	-422.568022	-422.60683	28.426
 OpenBabel02181911403D

 19 20  0  0  1  0  0  0  0  0999 V2000
    0.4078    1.5397    0.5809 C   0  0  0  0  0  0  0  0  0  0  0  0
   -0.0626    0.0851    0.4901 C   0  0  0  0  0  0  0  0  0  0  0  0
   -0.7270   -0.1355   -0.8846 C   0  0  2  0  0  0  0  0  0  0  0  0
    0.2236    0.2318   -1.8913 O   0  0  0  0  0  0  0  0  0  0  0  0
    0.5404    1.6027   -1.8033 C   0  0  1  0  0  0  0  0  0  0  0  0
   -0.7000    2.4707   -2.1120 C   0  0  0  0  0  0  0  0  0  0  0  0
   -1.9813    1.8569   -1.6148 C   0  0  0  0  0  0  0  0  0  0  0  0
   -2.0020    0.6549   -1.0449 C   0  0  0  0  0  0  0  0  0  0  0  0
    1.1596    1.9145   -0.5712 O   0  0  0  0  0  0  0  0  0  0  0  0
   -0.4533    2.2102    0.7134 H   0  0  0  0  0  0  0  0  0  0  0  0
    1.0779    1.6847    1.4326 H   0  0  0  0  0  0  0  0  0  0  0  0
    0.7962   -0.5892    0.5695 H   0  0  0  0  0  0  0  0  0  0  0  0
   -0.7565   -0.1410    1.3071 H   0  0  0  0  0  0  0  0  0  0  0  0
   -0.9204   -1.2009   -1.0433 H   0  0  0  0  0  0  0  0  0  0  0  0
    1.3175    1.7781   -2.5513 H   0  0  0  0  0  0  0  0  0  0  0  0
   -0.5467    3.4659   -1.6775 H   0  0  0  0  0  0  0  0  0  0  0  0
   -0.7629    2.6217   -3.1982 H   0  0  0  0  0  0  0  0  0  0  0  0
   -2.8966    2.4270   -1.7531 H   0  0  0  0  0  0  0  0  0  0  0  0
   -2.9211    0.2155   -0.6683 H   0  0  0  0  0  0  0  0  0  0  0  0
  1 10  1  0  0  0  0
  1 11  1  0  0  0  0
  2 12  1  0  0  0  0
  2  1  1  0  0  0  0
  2 13  1  0  0  0  0
  3 14  1  6  0  0  0
  3  2  1  0  0  0  0
  4  5  1  0  0  0  0
  4  3  1  0  0  0  0
  5 15  1  6  0  0  0
  5  9  1  0  0  0  0
  6  5  1  0  0  0  0
  6 16  1  0  0  0  0
  6  7  1  0  0  0  0
  7  8  2  0  0  0  0
  8  3  1  0  0  0  0
  8 19  1  0  0  0  0
  9  1  1  0  0  0  0
 17  6  1  0  0  0  0
 18  7  1  0  0  0  0
M TOR 0 0 1 2 3
M TOR 1 0 1 2 7
M TOR 2 0 1 2 13
M TOR 3 0 8 4 3
M TOR 4 0 8 4 5
M TOR 5 0 8 4 14
M TOR 6 1 0 8 4
M TOR 7 1 2 3 4
M TOR 8 1 2 7 6
M TOR 9 1 2 7 18
M TOR 10 2 1 0 8
M TOR 11 2 1 0 9
M TOR 12 2 1 0 10
M TOR 13 2 3 4 5
M TOR 14 2 3 4 8
M TOR 15 2 3 4 14
M TOR 16 2 7 6 5
M TOR 17 2 7 6 17
M TOR 18 3 2 1 11
M TOR 19 3 2 1 12
M TOR 20 3 2 7 6
M TOR 21 3 2 7 18
M TOR 22 3 4 5 6
M TOR 23 3 4 5 15
M TOR 24 3 4 5 16
M TOR 25 4 3 2 7
M TOR 26 4 3 2 13
M TOR 27 4 5 6 7
M TOR 28 4 5 6 17
M TOR 29 4 8 0 9
M TOR 30 4 8 0 10
M TOR 31 5 6 7 18
M TOR 32 6 5 4 8
M TOR 33 6 5 4 14
M TOR 34 6 7 2 13
M TOR 35 7 2 1 11
M TOR 36 7 2 1 12
M TOR 37 7 6 5 15
M TOR 38 7 6 5 16
M TOR 39 8 0 1 11
M TOR 40 8 0 1 12
M TOR 41 8 4 5 15
M TOR 42 8 4 5 16
M  END
$$$$
