
     RDKit          3D

 19 21  0  0  0  0  0  0  0  0999 V2000
    1.3853    2.5276    0.9266 C   0  0  0  0  0  0  0  0  0  0  0  0
    1.6953    1.0973    1.2419 C   0  0  0  0  0  0  0  0  0  0  0  0
    0.7773    0.3559    2.0590 O   0  0  0  0  0  0  0  0  0  0  0  0
    1.0668   -0.1311    0.7403 C   0  0  0  0  0  0  0  0  0  0  0  0
   -0.0621   -0.3010   -0.2284 C   0  0  0  0  0  0  0  0  0  0  0  0
    2.3293   -1.0547    0.7227 C   0  0  0  0  0  0  0  0  0  0  0  0
    3.3634   -0.1323    0.0145 C   0  0  0  0  0  0  0  0  0  0  0  0
    3.1618    0.5723    1.3872 C   0  0  0  0  0  0  0  0  0  0  0  0
    2.9778   -0.7379    1.9802 O   0  0  0  0  0  0  0  0  0  0  0  0
    1.5596    3.1629    1.8022 H   0  0  0  0  0  0  0  0  0  0  0  0
    2.0242    2.8951    0.1159 H   0  0  0  0  0  0  0  0  0  0  0  0
    0.3408    2.6478    0.6276 H   0  0  0  0  0  0  0  0  0  0  0  0
   -0.6635   -1.1800    0.0294 H   0  0  0  0  0  0  0  0  0  0  0  0
   -0.7219    0.5705   -0.2215 H   0  0  0  0  0  0  0  0  0  0  0  0
    0.3165   -0.4433   -1.2466 H   0  0  0  0  0  0  0  0  0  0  0  0
    2.2164   -2.1204    0.5241 H   0  0  0  0  0  0  0  0  0  0  0  0
    4.3465   -0.5955   -0.0831 H   0  0  0  0  0  0  0  0  0  0  0  0
    3.0700    0.3915   -0.9005 H   0  0  0  0  0  0  0  0  0  0  0  0
    3.9118    1.1931    1.8773 H   0  0  0  0  0  0  0  0  0  0  0  0
  1  2  1  0
  2  3  1  0
  3  4  1  0
  4  5  1  0
  4  6  1  0
  6  7  1  0
  7  8  1  0
  8  9  1  0
  4  2  1  0
  9  6  1  0
  8  2  1  0
  1 10  1  0
  1 11  1  0
  1 12  1  0
  5 13  1  0
  5 14  1  0
  5 15  1  0
  6 16  1  0
  7 17  1  0
  7 18  1  0
  8 19  1  0
M  END
$$$$
