
     RDKit          3D

 19 21  0  0  0  0  0  0  0  0999 V2000
    0.0042   -0.2471   -0.0620 C   0  0  0  0  0  0  0  0  0  0  0  0
    1.4732    0.0975    0.0271 C   0  0  0  0  0  0  0  0  0  0  0  0
    1.9762    0.7065    1.3589 C   0  0  0  0  0  0  0  0  0  0  0  0
    3.4623    0.4174    1.2558 C   0  0  0  0  0  0  0  0  0  0  0  0
    4.0121    0.6113   -0.1507 C   0  0  0  0  0  0  0  0  0  0  0  0
    3.1423    1.3338   -1.1623 C   0  0  0  0  0  0  0  0  0  0  0  0
    1.7590    0.9913   -1.0349 O   0  0  0  0  0  0  0  0  0  0  0  0
    3.5465   -0.7454    0.2984 C   0  0  0  0  0  0  0  0  0  0  0  0
    2.2484   -1.0923   -0.1296 O   0  0  0  0  0  0  0  0  0  0  0  0
   -0.2620   -0.9619    0.7195 H   0  0  0  0  0  0  0  0  0  0  0  0
   -0.5995    0.6561    0.0525 H   0  0  0  0  0  0  0  0  0  0  0  0
   -0.2080   -0.6884   -1.0383 H   0  0  0  0  0  0  0  0  0  0  0  0
    1.7193    1.7673    1.4130 H   0  0  0  0  0  0  0  0  0  0  0  0
    1.5372    0.1906    2.2189 H   0  0  0  0  0  0  0  0  0  0  0  0
    4.1108    0.5097    2.1181 H   0  0  0  0  0  0  0  0  0  0  0  0
    5.0798    0.7775   -0.2538 H   0  0  0  0  0  0  0  0  0  0  0  0
    3.2462    2.4231   -1.0516 H   0  0  0  0  0  0  0  0  0  0  0  0
    3.4587    1.0766   -2.1819 H   0  0  0  0  0  0  0  0  0  0  0  0
    4.2027   -1.5997    0.4040 H   0  0  0  0  0  0  0  0  0  0  0  0
  1  2  1  0
  2  3  1  0
  3  4  1  0
  4  5  1  0
  5  6  1  0
  6  7  1  0
  5  8  1  0
  8  9  1  0
  7  2  1  0
  9  2  1  0
  8  4  1  0
  1 10  1  0
  1 11  1  0
  1 12  1  0
  3 13  1  0
  3 14  1  0
  4 15  1  0
  5 16  1  0
  6 17  1  0
  6 18  1  0
  8 19  1  0
M  END
$$$$
