
     RDKit          3D

 19 20  0  0  0  0  0  0  0  0999 V2000
    0.3854    0.3823   -0.0516 O   0  0  0  0  0  0  0  0  0  0  0  0
   -0.8092    0.0235    0.6328 C   0  0  0  0  0  0  0  0  0  0  0  0
   -0.8913    0.5600    2.0863 C   0  0  0  0  0  0  0  0  0  0  0  0
   -2.3323    1.0815    2.2749 C   0  0  0  0  0  0  0  0  0  0  0  0
   -2.5730    2.2525    3.2624 C   0  0  0  0  0  0  0  0  0  0  0  0
   -3.4840    1.4749    4.0610 O   0  0  0  0  0  0  0  0  0  0  0  0
   -3.2901    0.3133    3.2359 C   0  0  0  0  0  0  0  0  0  0  0  0
   -2.8129    1.2407    0.8581 C   0  0  0  0  0  0  0  0  0  0  0  0
   -1.9969    0.6754   -0.0282 C   0  0  0  0  0  0  0  0  0  0  0  0
    1.1015   -0.1570    0.2982 H   0  0  0  0  0  0  0  0  0  0  0  0
   -0.9270   -1.0731    0.6097 H   0  0  0  0  0  0  0  0  0  0  0  0
   -0.6046   -0.1778    2.8415 H   0  0  0  0  0  0  0  0  0  0  0  0
   -0.1899    1.3988    2.1524 H   0  0  0  0  0  0  0  0  0  0  0  0
   -1.6859    2.5619    3.8314 H   0  0  0  0  0  0  0  0  0  0  0  0
   -3.0518    3.1443    2.8374 H   0  0  0  0  0  0  0  0  0  0  0  0
   -2.8262   -0.5153    3.7886 H   0  0  0  0  0  0  0  0  0  0  0  0
   -4.2296   -0.0376    2.7905 H   0  0  0  0  0  0  0  0  0  0  0  0
   -3.7518    1.7340    0.6270 H   0  0  0  0  0  0  0  0  0  0  0  0
   -2.1421    0.6343   -1.1013 H   0  0  0  0  0  0  0  0  0  0  0  0
  1  2  1  0
  2  3  1  0
  3  4  1  0
  4  5  1  0
  5  6  1  0
  6  7  1  0
  4  8  1  0
  8  9  2  0
  9  2  1  0
  7  4  1  0
  1 10  1  0
  2 11  1  0
  3 12  1  0
  3 13  1  0
  5 14  1  0
  5 15  1  0
  7 16  1  0
  7 17  1  0
  8 18  1  0
  9 19  1  0
M  END
$$$$
