
     RDKit          3D

 19 19  0  0  0  0  0  0  0  0999 V2000
    1.0752   -4.6287    0.7560 C   0  0  0  0  0  0  0  0  0  0  0  0
    0.6172   -3.6271   -0.3057 C   0  0  0  0  0  0  0  0  0  0  0  0
   -0.8038   -3.4505   -0.2328 O   0  0  0  0  0  0  0  0  0  0  0  0
   -1.1350   -2.0704   -0.1330 C   0  0  0  0  0  0  0  0  0  0  0  0
    0.1902   -1.3497   -0.0342 C   0  0  0  0  0  0  0  0  0  0  0  0
    1.1744   -2.2449   -0.1440 C   0  0  0  0  0  0  0  0  0  0  0  0
    0.3909    0.1137    0.1390 C   0  0  0  0  0  0  0  0  0  0  0  0
   -0.8578    0.9707    0.2286 C   0  0  0  0  0  0  0  0  0  0  0  0
    1.5040    0.5946    0.2053 O   0  0  0  0  0  0  0  0  0  0  0  0
    0.5439   -5.5751    0.6248 H   0  0  0  0  0  0  0  0  0  0  0  0
    2.1495   -4.8197    0.6672 H   0  0  0  0  0  0  0  0  0  0  0  0
    0.8664   -4.2472    1.7595 H   0  0  0  0  0  0  0  0  0  0  0  0
    0.8770   -4.0295   -1.3007 H   0  0  0  0  0  0  0  0  0  0  0  0
   -1.7147   -1.7551   -1.0161 H   0  0  0  0  0  0  0  0  0  0  0  0
   -1.7776   -1.9099    0.7458 H   0  0  0  0  0  0  0  0  0  0  0  0
    2.2314   -2.0127   -0.1228 H   0  0  0  0  0  0  0  0  0  0  0  0
   -1.4758    0.6584    1.0787 H   0  0  0  0  0  0  0  0  0  0  0  0
   -0.5777    2.0179    0.3441 H   0  0  0  0  0  0  0  0  0  0  0  0
   -1.4724    0.8494   -0.6712 H   0  0  0  0  0  0  0  0  0  0  0  0
  1  2  1  0
  2  3  1  0
  3  4  1  0
  4  5  1  0
  5  6  2  0
  5  7  1  0
  7  8  1  0
  7  9  2  0
  6  2  1  0
  1 10  1  0
  1 11  1  0
  1 12  1  0
  2 13  1  0
  4 14  1  0
  4 15  1  0
  6 16  1  0
  8 17  1  0
  8 18  1  0
  8 19  1  0
M  END
$$$$
