
     RDKit          3D

 19 21  0  0  0  0  0  0  0  0999 V2000
    0.1667    0.4576   -0.0378 C   0  0  0  0  0  0  0  0  0  0  0  0
    1.2743    0.7273    0.8285 O   0  0  0  0  0  0  0  0  0  0  0  0
    1.5500    0.2938   -0.5020 C   0  0  0  0  0  0  0  0  0  0  0  0
    2.1910   -1.0472   -0.6332 C   0  0  0  0  0  0  0  0  0  0  0  0
    2.1079   -2.0918    0.4477 C   0  0  0  0  0  0  0  0  0  0  0  0
    3.4472   -1.4684    0.0800 C   0  0  0  0  0  0  0  0  0  0  0  0
    4.2916   -2.1709   -0.9690 C   0  0  0  0  0  0  0  0  0  0  0  0
    3.2788   -2.4422   -2.1050 C   0  0  0  0  0  0  0  0  0  0  0  0
    2.2392   -1.4698   -1.9747 O   0  0  0  0  0  0  0  0  0  0  0  0
   -0.4148   -0.4268    0.2154 H   0  0  0  0  0  0  0  0  0  0  0  0
   -0.4065    1.3309   -0.3437 H   0  0  0  0  0  0  0  0  0  0  0  0
    1.9686    1.0584   -1.1576 H   0  0  0  0  0  0  0  0  0  0  0  0
    1.6802   -1.7717    1.3910 H   0  0  0  0  0  0  0  0  0  0  0  0
    1.9003   -3.1207    0.1726 H   0  0  0  0  0  0  0  0  0  0  0  0
    3.9279   -0.8188    0.8017 H   0  0  0  0  0  0  0  0  0  0  0  0
    5.0889   -1.4994   -1.3045 H   0  0  0  0  0  0  0  0  0  0  0  0
    4.7590   -3.0966   -0.6195 H   0  0  0  0  0  0  0  0  0  0  0  0
    3.7062   -2.3444   -3.1066 H   0  0  0  0  0  0  0  0  0  0  0  0
    2.8571   -3.4526   -2.0163 H   0  0  0  0  0  0  0  0  0  0  0  0
  1  2  1  0
  2  3  1  0
  3  4  1  0
  4  5  1  0
  5  6  1  0
  6  7  1  0
  7  8  1  0
  8  9  1  0
  3  1  1  0
  6  4  1  0
  9  4  1  0
  1 10  1  0
  1 11  1  0
  3 12  1  0
  5 13  1  0
  5 14  1  0
  6 15  1  0
  7 16  1  0
  7 17  1  0
  8 18  1  0
  8 19  1  0
M  END
$$$$
