
     RDKit          3D

 19 21  0  0  0  0  0  0  0  0999 V2000
   -1.1478   -3.1270    0.5697 O   0  0  0  0  0  0  0  0  0  0  0  0
   -0.1339   -2.2572    0.0831 C   0  0  0  0  0  0  0  0  0  0  0  0
    0.0947   -1.0594    1.0252 C   0  0  0  0  0  0  0  0  0  0  0  0
    1.0669   -0.0590    0.4193 C   0  0  0  0  0  0  0  0  0  0  0  0
    0.5027    1.1434   -0.1070 O   0  0  0  0  0  0  0  0  0  0  0  0
    1.0292    0.1908   -1.0381 C   0  0  0  0  0  0  0  0  0  0  0  0
    0.0224   -0.5329   -1.8704 C   0  0  0  0  0  0  0  0  0  0  0  0
    0.3643   -1.8753   -2.4700 C   0  0  0  0  0  0  0  0  0  0  0  0
   -0.5806   -1.7988   -1.2990 C   0  0  0  0  0  0  0  0  0  0  0  0
   -0.8898   -3.4214    1.4492 H   0  0  0  0  0  0  0  0  0  0  0  0
    0.8184   -2.8053   -0.0072 H   0  0  0  0  0  0  0  0  0  0  0  0
   -0.8647   -0.5638    1.2021 H   0  0  0  0  0  0  0  0  0  0  0  0
    0.4701   -1.4139    1.9927 H   0  0  0  0  0  0  0  0  0  0  0  0
    2.0112    0.0912    0.9420 H   0  0  0  0  0  0  0  0  0  0  0  0
    1.9394    0.5242   -1.5384 H   0  0  0  0  0  0  0  0  0  0  0  0
   -0.6289    0.1118   -2.4534 H   0  0  0  0  0  0  0  0  0  0  0  0
   -0.0333   -2.1103   -3.4510 H   0  0  0  0  0  0  0  0  0  0  0  0
    1.3559   -2.2780   -2.2832 H   0  0  0  0  0  0  0  0  0  0  0  0
   -1.6340   -1.9796   -1.4825 H   0  0  0  0  0  0  0  0  0  0  0  0
  1  2  1  0
  2  3  1  0
  3  4  1  0
  4  5  1  0
  5  6  1  0
  6  7  1  0
  7  8  1  0
  8  9  1  0
  9  2  1  0
  6  4  1  0
  9  7  1  0
  1 10  1  0
  2 11  1  0
  3 12  1  0
  3 13  1  0
  4 14  1  0
  6 15  1  0
  7 16  1  0
  8 17  1  0
  8 18  1  0
  9 19  1  0
M  END
$$$$
