gdb 2554	3.1179413	1.5027147	1.3294991	1.4563	76.38	-0.23631	0.01585	0.25216	1041.684	0.158984	-422.578984	-422.571451	-422.570507	-422.610732	29.651
 OpenBabel02181911413D

 19 20  0  0  1  0  0  0  0  0999 V2000
    0.8404    1.7146    1.4375 C   0  0  0  0  0  0  0  0  0  0  0  0
   -0.2856    0.8374    0.9719 C   0  0  0  0  0  0  0  0  0  0  0  0
   -1.4094    1.3077    0.4243 C   0  0  0  0  0  0  0  0  0  0  0  0
   -2.4789    0.3458   -0.0374 C   0  0  2  0  0  0  0  0  0  0  0  0
   -3.2866   -0.2160    1.1489 C   0  0  0  0  0  0  0  0  0  0  0  0
   -2.4080   -1.2180    1.6651 O   0  0  0  0  0  0  0  0  0  0  0  0
   -1.3742   -1.4068    0.6955 C   0  0  2  0  0  0  0  0  0  0  0  0
   -0.1060   -0.6592    1.1296 C   0  0  0  0  0  0  0  0  0  0  0  0
   -1.8666   -0.8651   -0.5070 O   0  0  0  0  0  0  0  0  0  0  0  0
    1.0375    1.5709    2.5075 H   0  0  0  0  0  0  0  0  0  0  0  0
    1.7736    1.4684    0.9142 H   0  0  0  0  0  0  0  0  0  0  0  0
    0.6242    2.7729    1.2687 H   0  0  0  0  0  0  0  0  0  0  0  0
   -1.5851    2.3739    0.3134 H   0  0  0  0  0  0  0  0  0  0  0  0
   -3.0964    0.7481   -0.8419 H   0  0  0  0  0  0  0  0  0  0  0  0
   -3.4915    0.5251    1.9267 H   0  0  0  0  0  0  0  0  0  0  0  0
   -4.2288   -0.6693    0.8137 H   0  0  0  0  0  0  0  0  0  0  0  0
   -1.2047   -2.4784    0.5536 H   0  0  0  0  0  0  0  0  0  0  0  0
    0.1094   -0.9119    2.1752 H   0  0  0  0  0  0  0  0  0  0  0  0
    0.7557   -1.0037    0.5403 H   0  0  0  0  0  0  0  0  0  0  0  0
  1 10  1  0  0  0  0
  2  8  1  0  0  0  0
  2  1  1  0  0  0  0
  3  2  2  0  0  0  0
  4 14  1  6  0  0  0
  4  3  1  0  0  0  0
  4  5  1  0  0  0  0
  5  6  1  0  0  0  0
  5 15  1  0  0  0  0
  7 17  1  6  0  0  0
  7  8  1  0  0  0  0
  7  6  1  0  0  0  0
  8 18  1  0  0  0  0
  9  4  1  0  0  0  0
  9  7  1  0  0  0  0
 11  1  1  0  0  0  0
 12  1  1  0  0  0  0
 13  3  1  0  0  0  0
 16  5  1  0  0  0  0
 19  8  1  0  0  0  0
M TOR 0 0 1 2 3
M TOR 1 0 1 2 12
M TOR 2 0 1 7 6
M TOR 3 0 1 7 17
M TOR 4 0 1 7 18
M TOR 5 1 2 3 4
M TOR 6 1 2 3 8
M TOR 7 1 2 3 13
M TOR 8 1 7 6 5
M TOR 9 1 7 6 8
M TOR 10 1 7 6 16
M TOR 11 2 1 0 9
M TOR 12 2 1 0 10
M TOR 13 2 1 0 11
M TOR 14 2 1 7 6
M TOR 15 2 1 7 17
M TOR 16 2 1 7 18
M TOR 17 2 3 4 5
M TOR 18 2 3 4 14
M TOR 19 2 3 4 15
M TOR 20 2 3 8 6
M TOR 21 3 2 1 7
M TOR 22 3 4 5 6
M TOR 23 3 8 6 5
M TOR 24 3 8 6 7
M TOR 25 3 8 6 16
M TOR 26 4 3 2 12
M TOR 27 4 3 8 6
M TOR 28 4 5 6 7
M TOR 29 4 5 6 8
M TOR 30 4 5 6 16
M TOR 31 5 4 3 8
M TOR 32 5 4 3 13
M TOR 33 5 6 7 17
M TOR 34 5 6 7 18
M TOR 35 6 5 4 14
M TOR 36 6 5 4 15
M TOR 37 6 8 3 13
M TOR 38 7 1 0 9
M TOR 39 7 1 0 10
M TOR 40 7 1 0 11
M TOR 41 7 1 2 12
M TOR 42 8 3 2 12
M TOR 43 8 3 4 14
M TOR 44 8 3 4 15
M TOR 45 8 6 7 17
M TOR 46 8 6 7 18
M  END
$$$$
