
     RDKit          3D

 19 20  0  0  0  0  0  0  0  0999 V2000
   -0.0518   -0.4956   -0.2104 C   0  0  0  0  0  0  0  0  0  0  0  0
    1.3672   -0.0490    0.0865 C   0  0  0  0  0  0  0  0  0  0  0  0
    1.8679   -0.4315    1.4689 C   0  0  0  0  0  0  0  0  0  0  0  0
    1.9291    1.2501   -0.4361 C   0  0  0  0  0  0  0  0  0  0  0  0
    1.4393    1.5456   -1.8478 C   0  0  0  0  0  0  0  0  0  0  0  0
    1.7988    0.2134   -2.3050 O   0  0  0  0  0  0  0  0  0  0  0  0
    2.4025   -0.0802   -1.0389 C   0  0  0  0  0  0  0  0  0  0  0  0
    3.7087   -0.7591   -1.0721 C   0  0  0  0  0  0  0  0  0  0  0  0
    4.4479   -0.9233   -0.1291 O   0  0  0  0  0  0  0  0  0  0  0  0
   -0.7667    0.0717    0.3958 H   0  0  0  0  0  0  0  0  0  0  0  0
   -0.3090   -0.3738   -1.2637 H   0  0  0  0  0  0  0  0  0  0  0  0
   -0.1702   -1.5548    0.0401 H   0  0  0  0  0  0  0  0  0  0  0  0
    1.8002   -1.5140    1.6168 H   0  0  0  0  0  0  0  0  0  0  0  0
    2.9088   -0.1448    1.6219 H   0  0  0  0  0  0  0  0  0  0  0  0
    1.2471    0.0505    2.2327 H   0  0  0  0  0  0  0  0  0  0  0  0
    2.4983    1.9247    0.1905 H   0  0  0  0  0  0  0  0  0  0  0  0
    0.3734    1.7583   -1.9830 H   0  0  0  0  0  0  0  0  0  0  0  0
    2.0381    2.3013   -2.3674 H   0  0  0  0  0  0  0  0  0  0  0  0
    3.9682   -1.1187   -2.0925 H   0  0  0  0  0  0  0  0  0  0  0  0
  1  2  1  0
  2  3  1  0
  2  4  1  0
  4  5  1  0
  5  6  1  0
  6  7  1  0
  7  8  1  0
  8  9  2  0
  7  2  1  0
  7  4  1  0
  1 10  1  0
  1 11  1  0
  1 12  1  0
  3 13  1  0
  3 14  1  0
  3 15  1  0
  4 16  1  0
  5 17  1  0
  5 18  1  0
  8 19  1  0
M  END
$$$$
