
     RDKit          3D

 19 20  0  0  0  0  0  0  0  0999 V2000
    0.3955   -1.0334   -0.1581 O   0  0  0  0  0  0  0  0  0  0  0  0
    0.4474    0.1413    0.1000 C   0  0  0  0  0  0  0  0  0  0  0  0
   -0.3043    0.8220    1.2181 C   0  0  0  0  0  0  0  0  0  0  0  0
   -1.1672    1.9872    0.7047 C   0  0  0  0  0  0  0  0  0  0  0  0
   -1.7604    2.7955    1.8469 C   0  0  0  0  0  0  0  0  0  0  0  0
   -0.7049    3.4113    2.6504 O   0  0  0  0  0  0  0  0  0  0  0  0
   -1.1419    4.7116    2.2442 C   0  0  0  0  0  0  0  0  0  0  0  0
   -2.5304    4.9833    2.7268 C   0  0  0  0  0  0  0  0  0  0  0  0
   -2.3163    4.1672    1.4675 C   0  0  0  0  0  0  0  0  0  0  0  0
    1.0834    0.8314   -0.5050 H   0  0  0  0  0  0  0  0  0  0  0  0
   -0.9027    0.0742    1.7466 H   0  0  0  0  0  0  0  0  0  0  0  0
    0.4346    1.2358    1.9182 H   0  0  0  0  0  0  0  0  0  0  0  0
   -0.5614    2.6549    0.0795 H   0  0  0  0  0  0  0  0  0  0  0  0
   -1.9846    1.6084    0.0776 H   0  0  0  0  0  0  0  0  0  0  0  0
   -2.4079    2.1665    2.4727 H   0  0  0  0  0  0  0  0  0  0  0  0
   -0.3866    5.4571    2.0250 H   0  0  0  0  0  0  0  0  0  0  0  0
   -2.8812    4.5113    3.6406 H   0  0  0  0  0  0  0  0  0  0  0  0
   -2.8989    5.9902    2.5554 H   0  0  0  0  0  0  0  0  0  0  0  0
   -2.7184    4.4381    0.5004 H   0  0  0  0  0  0  0  0  0  0  0  0
  1  2  2  0
  2  3  1  0
  3  4  1  0
  4  5  1  0
  5  6  1  0
  6  7  1  0
  7  8  1  0
  8  9  1  0
  9  5  1  0
  9  7  1  0
  2 10  1  0
  3 11  1  0
  3 12  1  0
  4 13  1  0
  4 14  1  0
  5 15  1  0
  7 16  1  0
  8 17  1  0
  8 18  1  0
  9 19  1  0
M  END
$$$$
