
     RDKit          3D

 19 21  0  0  0  0  0  0  0  0999 V2000
   -1.2020   -3.8798    0.6291 C   0  0  0  0  0  0  0  0  0  0  0  0
    0.0521   -3.4096    1.2902 C   0  0  0  0  0  0  0  0  0  0  0  0
    1.5332   -3.4343    0.8950 C   0  0  0  0  0  0  0  0  0  0  0  0
    1.9291   -4.1153    2.2031 C   0  0  0  0  0  0  0  0  0  0  0  0
    0.6290   -3.4879    2.7640 C   0  0  0  0  0  0  0  0  0  0  0  0
    0.9053   -2.0585    2.7585 O   0  0  0  0  0  0  0  0  0  0  0  0
    0.8248   -2.1319    1.3278 C   0  0  0  0  0  0  0  0  0  0  0  0
    0.7885   -0.8486    0.5694 C   0  0  0  0  0  0  0  0  0  0  0  0
    2.0184   -0.1436    0.6466 O   0  0  0  0  0  0  0  0  0  0  0  0
   -2.0932   -3.4682    1.1159 H   0  0  0  0  0  0  0  0  0  0  0  0
   -1.2231   -3.5716   -0.4217 H   0  0  0  0  0  0  0  0  0  0  0  0
   -1.2815   -4.9728    0.6512 H   0  0  0  0  0  0  0  0  0  0  0  0
    1.9583   -3.5523   -0.0941 H   0  0  0  0  0  0  0  0  0  0  0  0
    1.8562   -5.2037    2.1289 H   0  0  0  0  0  0  0  0  0  0  0  0
    2.8601   -3.8250    2.6999 H   0  0  0  0  0  0  0  0  0  0  0  0
    0.1353   -3.8307    3.6715 H   0  0  0  0  0  0  0  0  0  0  0  0
    0.6089   -1.0534   -0.4913 H   0  0  0  0  0  0  0  0  0  0  0  0
   -0.0464   -0.2319    0.9371 H   0  0  0  0  0  0  0  0  0  0  0  0
    2.2322   -0.0602    1.5824 H   0  0  0  0  0  0  0  0  0  0  0  0
  1  2  1  0
  2  3  1  0
  3  4  1  0
  4  5  1  0
  5  6  1  0
  6  7  1  0
  7  8  1  0
  8  9  1  0
  5  2  1  0
  7  2  1  0
  7  3  1  0
  1 10  1  0
  1 11  1  0
  1 12  1  0
  3 13  1  0
  4 14  1  0
  4 15  1  0
  5 16  1  0
  8 17  1  0
  8 18  1  0
  9 19  1  0
M  END
$$$$
