
     RDKit          3D

 19 21  0  0  0  0  0  0  0  0999 V2000
   -0.1101    0.1023   -0.2380 C   0  0  0  0  0  0  0  0  0  0  0  0
    1.3787    0.0214   -0.0266 C   0  0  0  0  0  0  0  0  0  0  0  0
    2.1492   -0.6916    1.1262 C   0  0  0  0  0  0  0  0  0  0  0  0
    2.8046    0.6405    1.5354 C   0  0  0  0  0  0  0  0  0  0  0  0
    2.2537    1.2905    0.2256 C   0  0  0  0  0  0  0  0  0  0  0  0
    3.1922    1.4218   -0.8301 O   0  0  0  0  0  0  0  0  0  0  0  0
    3.2067    0.2454   -1.6411 C   0  0  0  0  0  0  0  0  0  0  0  0
    2.3155   -0.7790   -0.9553 C   0  0  0  0  0  0  0  0  0  0  0  0
    2.9584   -1.4205    0.1740 O   0  0  0  0  0  0  0  0  0  0  0  0
   -0.6027    0.6257    0.5887 H   0  0  0  0  0  0  0  0  0  0  0  0
   -0.3462    0.6484   -1.1591 H   0  0  0  0  0  0  0  0  0  0  0  0
   -0.5579   -0.8943   -0.3153 H   0  0  0  0  0  0  0  0  0  0  0  0
    1.7129   -1.3469    1.8835 H   0  0  0  0  0  0  0  0  0  0  0  0
    2.3316    1.0705    2.4245 H   0  0  0  0  0  0  0  0  0  0  0  0
    3.8893    0.6347    1.6589 H   0  0  0  0  0  0  0  0  0  0  0  0
    1.7402    2.2475    0.3509 H   0  0  0  0  0  0  0  0  0  0  0  0
    2.8245    0.4840   -2.6446 H   0  0  0  0  0  0  0  0  0  0  0  0
    4.2341   -0.1242   -1.7371 H   0  0  0  0  0  0  0  0  0  0  0  0
    1.8798   -1.5144   -1.6403 H   0  0  0  0  0  0  0  0  0  0  0  0
  1  2  1  0
  2  3  1  0
  3  4  1  0
  4  5  1  0
  5  6  1  0
  6  7  1  0
  7  8  1  0
  8  9  1  0
  5  2  1  0
  8  2  1  0
  9  3  1  0
  1 10  1  0
  1 11  1  0
  1 12  1  0
  3 13  1  0
  4 14  1  0
  4 15  1  0
  5 16  1  0
  7 17  1  0
  7 18  1  0
  8 19  1  0
M  END
$$$$
