
     RDKit          3D

 19 21  0  0  0  0  0  0  0  0999 V2000
    1.6269    0.5155   -0.1954 O   0  0  0  0  0  0  0  0  0  0  0  0
    0.3891    0.1537    0.3969 C   0  0  0  0  0  0  0  0  0  0  0  0
   -0.5327    1.3386    0.5845 C   0  0  0  0  0  0  0  0  0  0  0  0
   -0.3730    2.1196    1.8666 C   0  0  0  0  0  0  0  0  0  0  0  0
   -1.6006    1.2201    1.6308 C   0  0  0  0  0  0  0  0  0  0  0  0
   -2.4958    2.4796    1.6439 C   0  0  0  0  0  0  0  0  0  0  0  0
   -2.7272    3.1345    0.3714 O   0  0  0  0  0  0  0  0  0  0  0  0
   -1.6592    4.0885    0.6213 C   0  0  0  0  0  0  0  0  0  0  0  0
   -1.2772    3.3738    1.9332 C   0  0  0  0  0  0  0  0  0  0  0  0
    2.0153    1.2065    0.3514 H   0  0  0  0  0  0  0  0  0  0  0  0
   -0.0636   -0.5703   -0.2887 H   0  0  0  0  0  0  0  0  0  0  0  0
    0.5388   -0.3603    1.3613 H   0  0  0  0  0  0  0  0  0  0  0  0
   -0.7725    1.8564   -0.3388 H   0  0  0  0  0  0  0  0  0  0  0  0
    0.4678    1.9434    2.5290 H   0  0  0  0  0  0  0  0  0  0  0  0
   -1.8553    0.2706    2.0878 H   0  0  0  0  0  0  0  0  0  0  0  0
   -3.3909    2.4356    2.2685 H   0  0  0  0  0  0  0  0  0  0  0  0
   -0.9158    4.1047   -0.1839 H   0  0  0  0  0  0  0  0  0  0  0  0
   -2.0621    5.0989    0.7626 H   0  0  0  0  0  0  0  0  0  0  0  0
   -1.1916    3.9657    2.8428 H   0  0  0  0  0  0  0  0  0  0  0  0
  1  2  1  0
  2  3  1  0
  3  4  1  0
  4  5  1  0
  5  6  1  0
  6  7  1  0
  7  8  1  0
  8  9  1  0
  5  3  1  0
  9  6  1  0
  9  4  1  0
  1 10  1  0
  2 11  1  0
  2 12  1  0
  3 13  1  0
  4 14  1  0
  5 15  1  0
  6 16  1  0
  8 17  1  0
  8 18  1  0
  9 19  1  0
M  END
$$$$
