gdb 327	2.4061634	2.1675131	1.7350059	2.4213	73.18	-0.22935	0.06969	0.29904	888.7586	0.160363	-422.514371	-422.507717	-422.506773	-422.545042	27.572
 OpenBabel02181911403D

 19 21  0  0  1  0  0  0  0  0999 V2000
    0.3603    2.5814    0.4909 C   0  0  0  0  0  0  0  0  0  0  0  0
    1.8491    2.4885    0.0262 C   0  0  2  0  0  0  0  0  0  0  0  0
    2.1424    2.9208   -1.2814 O   0  0  0  0  0  0  0  0  0  0  0  0
    1.0651    2.9819   -2.2045 C   0  0  0  0  0  0  0  0  0  0  0  0
    0.2964    1.6585   -2.4472 C   0  0  0  0  0  0  0  0  0  0  0  0
    0.3570    0.6397   -1.3128 C   0  0  1  0  0  0  0  0  0  0  0  0
    1.7396    0.2340   -1.0923 O   0  0  0  0  0  0  0  0  0  0  0  0
    1.7383    0.9072    0.1601 C   0  0  2  0  0  0  0  0  0  0  0  0
    0.2046    1.0835    0.1846 C   0  0  1  0  0  0  0  0  0  0  0  0
    0.3195    2.7534    1.5707 H   0  0  0  0  0  0  0  0  0  0  0  0
   -0.3020    3.3033    0.0112 H   0  0  0  0  0  0  0  0  0  0  0  0
    2.5829    2.9664    0.6801 H   0  0  0  0  0  0  0  0  0  0  0  0
    0.3627    3.7708   -1.9048 H   0  0  0  0  0  0  0  0  0  0  0  0
    1.5245    3.3130   -3.1396 H   0  0  0  0  0  0  0  0  0  0  0  0
   -0.7502    1.8890   -2.6842 H   0  0  0  0  0  0  0  0  0  0  0  0
    0.7123    1.1471   -3.3223 H   0  0  0  0  0  0  0  0  0  0  0  0
   -0.2559   -0.2311   -1.5705 H   0  0  0  0  0  0  0  0  0  0  0  0
    2.3458    0.4208    0.9263 H   0  0  0  0  0  0  0  0  0  0  0  0
   -0.4738    0.4705    0.7780 H   0  0  0  0  0  0  0  0  0  0  0  0
  1 10  1  0  0  0  0
  2  8  1  0  0  0  0
  2  1  1  0  0  0  0
  2 12  1  1  0  0  0
  3  2  1  0  0  0  0
  4 13  1  0  0  0  0
  4  3  1  0  0  0  0
  5  4  1  0  0  0  0
  5  6  1  0  0  0  0
  6 17  1  6  0  0  0
  6  7  1  0  0  0  0
  6  9  1  0  0  0  0
  7  8  1  0  0  0  0
  8  9  1  0  0  0  0
  8 18  1  1  0  0  0
  9  1  1  0  0  0  0
  9 19  1  1  0  0  0
 11  1  1  0  0  0  0
 14  4  1  0  0  0  0
 15  5  1  0  0  0  0
 16  5  1  0  0  0  0
M TOR 0 0 1 2 3
M TOR 1 0 1 7 6
M TOR 2 0 1 7 8
M TOR 3 0 1 7 17
M TOR 4 0 8 5 4
M TOR 5 0 8 5 6
M TOR 6 0 8 5 16
M TOR 7 0 8 7 6
M TOR 8 0 8 7 17
M TOR 9 1 0 8 5
M TOR 10 1 0 8 18
M TOR 11 1 2 3 4
M TOR 12 1 2 3 12
M TOR 13 1 2 3 13
M TOR 14 1 7 6 5
M TOR 15 1 7 8 5
M TOR 16 1 7 8 18
M TOR 17 2 1 0 8
M TOR 18 2 1 0 9
M TOR 19 2 1 0 10
M TOR 20 2 1 7 6
M TOR 21 2 1 7 8
M TOR 22 2 1 7 17
M TOR 23 2 3 4 5
M TOR 24 2 3 4 14
M TOR 25 2 3 4 15
M TOR 26 3 2 1 7
M TOR 27 3 2 1 11
M TOR 28 3 4 5 6
M TOR 29 3 4 5 8
M TOR 30 3 4 5 16
M TOR 31 4 5 6 7
M TOR 32 4 5 8 7
M TOR 33 4 5 8 18
M TOR 34 5 4 3 12
M TOR 35 5 4 3 13
M TOR 36 5 6 7 8
M TOR 37 5 6 7 17
M TOR 38 5 8 0 9
M TOR 39 5 8 0 10
M TOR 40 5 8 7 17
M TOR 41 6 5 4 14
M TOR 42 6 5 4 15
M TOR 43 6 5 8 18
M TOR 44 6 7 1 11
M TOR 45 6 7 8 18
M TOR 46 7 1 0 9
M TOR 47 7 1 0 10
M TOR 48 7 6 5 16
M TOR 49 7 8 0 9
M TOR 50 7 8 0 10
M TOR 51 7 8 5 16
M TOR 52 8 0 1 11
M TOR 53 8 5 4 14
M TOR 54 8 5 4 15
M TOR 55 8 7 1 11
M  END
$$$$
