gdb 4477	2.7206093	1.7917675	1.3958259	1.5831	74.64	-0.23809	0.05418	0.29227	984.8893	0.157225	-422.463646	-422.455985	-422.455041	-422.495638	30.139
 OpenBabel02181911413D

 19 21  0  0  1  0  0  0  0  0999 V2000
    2.2371    1.4729   -0.1340 C   0  0  0  0  0  0  0  0  0  0  0  0
    1.4945    0.1499    0.0661 C   0  0  1  0  0  0  0  0  0  0  0  0
    1.6859   -0.8689   -1.1416 C   0  0  0  0  0  0  0  0  0  0  0  0
    2.6105   -1.9369   -0.7650 O   0  0  0  0  0  0  0  0  0  0  0  0
    3.1957   -1.5178    0.4442 C   0  0  2  0  0  0  0  0  0  0  0  0
    2.9838   -2.0943    1.8901 C   0  0  2  0  0  0  0  0  0  0  0  0
    1.4708   -2.0562    1.6802 C   0  0  0  0  0  0  0  0  0  0  0  0
    2.0943   -0.7444    1.1194 C   0  0  2  0  0  0  0  0  0  0  0  0
    2.9378   -0.6590    2.3463 O   0  0  0  0  0  0  0  0  0  0  0  0
    2.1155    2.1226    0.7374 H   0  0  0  0  0  0  0  0  0  0  0  0
    3.3089    1.3092   -0.2826 H   0  0  0  0  0  0  0  0  0  0  0  0
    1.8522    2.0038   -1.0101 H   0  0  0  0  0  0  0  0  0  0  0  0
    0.4278    0.3380    0.2202 H   0  0  0  0  0  0  0  0  0  0  0  0
    0.7406   -1.3425   -1.4219 H   0  0  0  0  0  0  0  0  0  0  0  0
    2.0870   -0.3447   -2.0168 H   0  0  0  0  0  0  0  0  0  0  0  0
    4.1577   -1.0118    0.3163 H   0  0  0  0  0  0  0  0  0  0  0  0
    3.6074   -2.7571    2.4901 H   0  0  0  0  0  0  0  0  0  0  0  0
    1.0385   -2.7564    0.9646 H   0  0  0  0  0  0  0  0  0  0  0  0
    0.8791   -1.9317    2.5873 H   0  0  0  0  0  0  0  0  0  0  0  0
  1  2  1  0  0  0  0
  1 10  1  0  0  0  0
  2 13  1  1  0  0  0
  2  8  1  0  0  0  0
  3  4  1  0  0  0  0
  3  2  1  0  0  0  0
  4  5  1  0  0  0  0
  5 16  1  6  0  0  0
  5  8  1  0  0  0  0
  5  6  1  0  0  0  0
  6  9  1  0  0  0  0
  6 17  1  1  0  0  0
  7  6  1  0  0  0  0
  7 19  1  0  0  0  0
  8  7  1  0  0  0  0
  8  9  1  1  0  0  0
 11  1  1  0  0  0  0
 12  1  1  0  0  0  0
 14  3  1  0  0  0  0
 15  3  1  0  0  0  0
 18  7  1  0  0  0  0
M TOR 0 0 1 2 3
M TOR 1 0 1 2 13
M TOR 2 0 1 2 14
M TOR 3 0 1 7 4
M TOR 4 0 1 7 6
M TOR 5 0 1 7 8
M TOR 6 1 2 3 4
M TOR 7 1 7 4 3
M TOR 8 1 7 4 5
M TOR 9 1 7 4 15
M TOR 10 1 7 6 5
M TOR 11 1 7 6 17
M TOR 12 1 7 6 18
M TOR 13 1 7 8 5
M TOR 14 2 1 0 9
M TOR 15 2 1 0 10
M TOR 16 2 1 0 11
M TOR 17 2 1 7 4
M TOR 18 2 1 7 6
M TOR 19 2 1 7 8
M TOR 20 2 3 4 5
M TOR 21 2 3 4 7
M TOR 22 2 3 4 15
M TOR 23 3 2 1 7
M TOR 24 3 2 1 12
M TOR 25 3 4 5 6
M TOR 26 3 4 5 8
M TOR 27 3 4 5 16
M TOR 28 3 4 7 6
M TOR 29 3 4 7 8
M TOR 30 4 3 2 13
M TOR 31 4 3 2 14
M TOR 32 4 5 6 7
M TOR 33 4 5 6 17
M TOR 34 4 5 6 18
M TOR 35 4 5 8 7
M TOR 36 4 7 1 12
M TOR 37 4 7 6 17
M TOR 38 4 7 6 18
M TOR 39 5 6 7 8
M TOR 40 6 5 4 15
M TOR 41 6 7 1 12
M TOR 42 6 7 4 15
M TOR 43 7 1 0 9
M TOR 44 7 1 0 10
M TOR 45 7 1 0 11
M TOR 46 7 1 2 13
M TOR 47 7 1 2 14
M TOR 48 7 4 5 16
M TOR 49 7 6 5 16
M TOR 50 7 8 5 16
M TOR 51 8 5 4 15
M TOR 52 8 5 6 17
M TOR 53 8 5 6 18
M TOR 54 8 7 1 12
M TOR 55 8 7 4 15
M TOR 56 8 7 6 17
M TOR 57 8 7 6 18
M  END
$$$$
