gdb 3199	3.4232332	1.4041073	1.3772575	2.2426	74.17	-0.2381	0.06921	0.30730999999999997	1024.4974	0.157556	-422.528991	-422.521376	-422.520431	-422.560482	30.822
 OpenBabel02181911413D

 19 21  0  0  1  0  0  0  0  0999 V2000
   -3.5287    1.8989    2.5489 C   0  0  0  0  0  0  0  0  0  0  0  0
   -2.9028    1.2144    1.3695 C   0  0  2  0  0  0  0  0  0  0  0  0
   -2.6988   -0.3218    1.3496 C   0  0  0  0  0  0  0  0  0  0  0  0
   -1.8190   -0.2971    0.0877 C   0  0  2  0  0  0  0  0  0  0  0  0
   -0.5866    0.4847    0.5920 C   0  0  1  0  0  0  0  0  0  0  0  0
    0.3614    0.6217   -0.4503 O   0  0  0  0  0  0  0  0  0  0  0  0
   -1.5591    1.6784    0.6661 C   0  0  1  0  0  0  0  0  0  0  0  0
   -2.3728    1.0919   -0.5056 C   0  0  2  0  0  0  0  0  0  0  0  0
   -3.6286    1.3911    0.1066 O   0  0  0  0  0  0  0  0  0  0  0  0
   -4.5219    1.4821    2.7472 H   0  0  0  0  0  0  0  0  0  0  0  0
   -2.9135    1.7567    3.4431 H   0  0  0  0  0  0  0  0  0  0  0  0
   -3.6372    2.9718    2.3671 H   0  0  0  0  0  0  0  0  0  0  0  0
   -2.1787   -0.7245    2.2239 H   0  0  0  0  0  0  0  0  0  0  0  0
   -3.6579   -0.8286    1.2250 H   0  0  0  0  0  0  0  0  0  0  0  0
   -1.6994   -1.1989   -0.5088 H   0  0  0  0  0  0  0  0  0  0  0  0
   -0.1149    0.1260    1.5176 H   0  0  0  0  0  0  0  0  0  0  0  0
    0.9623    1.3365   -0.2164 H   0  0  0  0  0  0  0  0  0  0  0  0
   -1.2596    2.7232    0.7513 H   0  0  0  0  0  0  0  0  0  0  0  0
   -2.2881    1.3277   -1.5625 H   0  0  0  0  0  0  0  0  0  0  0  0
  1 10  1  0  0  0  0
  1 11  1  0  0  0  0
  2  1  1  1  0  0  0
  3  2  1  0  0  0  0
  3 13  1  0  0  0  0
  4 15  1  6  0  0  0
  4  5  1  0  0  0  0
  4  3  1  0  0  0  0
  5  7  1  0  0  0  0
  5 16  1  1  0  0  0
  6 17  1  0  0  0  0
  6  5  1  0  0  0  0
  7 18  1  1  0  0  0
  7  2  1  0  0  0  0
  8 19  1  6  0  0  0
  8  4  1  0  0  0  0
  8  9  1  0  0  0  0
  8  7  1  0  0  0  0
  9  2  1  0  0  0  0
 12  1  1  0  0  0  0
 14  3  1  0  0  0  0
M TOR 0 0 1 2 3
M TOR 1 0 1 2 12
M TOR 2 0 1 2 13
M TOR 3 0 1 6 4
M TOR 4 0 1 6 7
M TOR 5 0 1 6 17
M TOR 6 0 1 8 7
M TOR 7 1 2 3 4
M TOR 8 1 2 3 7
M TOR 9 1 2 3 14
M TOR 10 1 6 4 3
M TOR 11 1 6 4 5
M TOR 12 1 6 4 15
M TOR 13 1 6 7 3
M TOR 14 1 6 7 8
M TOR 15 1 6 7 18
M TOR 16 1 8 7 3
M TOR 17 1 8 7 18
M TOR 18 2 1 0 9
M TOR 19 2 1 0 10
M TOR 20 2 1 0 11
M TOR 21 2 1 6 4
M TOR 22 2 1 6 7
M TOR 23 2 1 6 17
M TOR 24 2 1 8 7
M TOR 25 2 3 4 5
M TOR 26 2 3 4 6
M TOR 27 2 3 4 15
M TOR 28 2 3 7 6
M TOR 29 2 3 7 8
M TOR 30 2 3 7 18
M TOR 31 3 2 1 6
M TOR 32 3 2 1 8
M TOR 33 3 4 5 16
M TOR 34 3 4 6 7
M TOR 35 3 4 6 17
M TOR 36 3 7 6 17
M TOR 37 4 3 2 12
M TOR 38 4 3 2 13
M TOR 39 4 3 7 8
M TOR 40 4 3 7 18
M TOR 41 4 6 1 8
M TOR 42 4 6 7 8
M TOR 43 4 6 7 18
M TOR 44 5 4 3 7
M TOR 45 5 4 3 14
M TOR 46 5 4 6 7
M TOR 47 5 4 6 17
M TOR 48 6 1 0 9
M TOR 49 6 1 0 10
M TOR 50 6 1 0 11
M TOR 51 6 1 2 12
M TOR 52 6 1 2 13
M TOR 53 6 4 3 14
M TOR 54 6 4 5 16
M TOR 55 6 7 3 14
M TOR 56 7 3 2 12
M TOR 57 7 3 2 13
M TOR 58 7 3 4 15
M TOR 59 7 6 4 15
M TOR 60 8 1 0 9
M TOR 61 8 1 0 10
M TOR 62 8 1 0 11
M TOR 63 8 1 2 12
M TOR 64 8 1 2 13
M TOR 65 8 1 6 17
M TOR 66 8 7 3 14
M TOR 67 8 7 6 17
M  END
$$$$
