gdb 1200	2.9869589	1.1658923	0.886784	0.8847	76.87	-0.25463	0.04608	0.30071000000000003	1302.2283	0.155879	-422.524585	-422.515248	-422.514304	-422.559374	33.588
 OpenBabel02181911403D

 19 19  0  0  1  0  0  0  0  0999 V2000
    5.2910    3.5397   -3.5564 C   0  0  0  0  0  0  0  0  0  0  0  0
    4.5968    4.7633   -4.1830 C   0  0  1  0  0  0  0  0  0  0  0  0
    3.9276    5.5817   -3.1733 C   0  0  0  0  0  0  0  0  0  0  0  0
    3.4074    6.2724   -2.3376 C   0  0  0  0  0  0  0  0  0  0  0  0
    5.5951    5.6292   -4.9803 C   0  0  2  0  0  0  0  0  0  0  0  0
    4.9528    6.8279   -5.7161 C   0  0  0  0  0  0  0  0  0  0  0  0
    5.6004    6.8343   -6.9800 O   0  0  0  0  0  0  0  0  0  0  0  0
    5.8353    5.4816   -7.2569 C   0  0  0  0  0  0  0  0  0  0  0  0
    6.1923    4.8679   -6.0324 O   0  0  0  0  0  0  0  0  0  0  0  0
    4.5648    2.9035   -3.0446 H   0  0  0  0  0  0  0  0  0  0  0  0
    5.7874    2.9604   -4.3378 H   0  0  0  0  0  0  0  0  0  0  0  0
    6.0410    3.8553   -2.8246 H   0  0  0  0  0  0  0  0  0  0  0  0
    3.8431    4.4056   -4.8986 H   0  0  0  0  0  0  0  0  0  0  0  0
    2.9343    6.8740   -1.6013 H   0  0  0  0  0  0  0  0  0  0  0  0
    6.3949    5.9596   -4.3061 H   0  0  0  0  0  0  0  0  0  0  0  0
    3.8676    6.6820   -5.8293 H   0  0  0  0  0  0  0  0  0  0  0  0
    5.1310    7.7869   -5.2287 H   0  0  0  0  0  0  0  0  0  0  0  0
    4.9309    5.0012   -7.6745 H   0  0  0  0  0  0  0  0  0  0  0  0
    6.6662    5.3965   -7.9631 H   0  0  0  0  0  0  0  0  0  0  0  0
  1 10  1  0  0  0  0
  1 12  1  0  0  0  0
  2 13  1  6  0  0  0
  2  1  1  0  0  0  0
  2  3  1  0  0  0  0
  3  4  3  0  0  0  0
  4 14  1  0  0  0  0
  5 15  1  1  0  0  0
  5  2  1  0  0  0  0
  6 17  1  0  0  0  0
  6  5  1  0  0  0  0
  7  6  1  0  0  0  0
  8  7  1  0  0  0  0
  8  9  1  0  0  0  0
  9  5  1  0  0  0  0
 11  1  1  0  0  0  0
 16  6  1  0  0  0  0
 18  8  1  0  0  0  0
 19  8  1  0  0  0  0
M TOR 0 0 1 2 3
M TOR 1 0 1 4 5
M TOR 2 0 1 4 8
M TOR 3 0 1 4 14
M TOR 4 1 2 3 13
M TOR 5 1 4 5 6
M TOR 6 1 4 5 15
M TOR 7 1 4 5 16
M TOR 8 1 4 8 7
M TOR 9 2 1 0 9
M TOR 10 2 1 0 10
M TOR 11 2 1 0 11
M TOR 12 2 1 4 5
M TOR 13 2 1 4 8
M TOR 14 2 1 4 14
M TOR 15 3 2 1 4
M TOR 16 3 2 1 12
M TOR 17 4 1 0 9
M TOR 18 4 1 0 10
M TOR 19 4 1 0 11
M TOR 20 4 5 6 7
M TOR 21 4 8 7 6
M TOR 22 4 8 7 17
M TOR 23 4 8 7 18
M TOR 24 5 4 1 12
M TOR 25 5 4 8 7
M TOR 26 5 6 7 8
M TOR 27 5 6 7 17
M TOR 28 5 6 7 18
M TOR 29 6 5 4 8
M TOR 30 6 5 4 14
M TOR 31 7 6 5 15
M TOR 32 7 6 5 16
M TOR 33 7 8 4 14
M TOR 34 8 4 1 12
M TOR 35 8 4 5 15
M TOR 36 8 4 5 16
M  END
$$$$
