gdb 1935	3.1633127	1.4795731	1.2354663	0.4035	74.29	-0.2555	0.0769	0.33240000000000003	1077.73	0.155751	-422.547431	-422.539055	-422.538111	-422.579788	32.41
 OpenBabel02181911403D

 19 21  0  0  1  0  0  0  0  0999 V2000
    2.4354   -2.5056    3.5252 C   0  0  0  0  0  0  0  0  0  0  0  0
    2.1011   -1.8985    2.1911 C   0  0  2  0  0  0  0  0  0  0  0  0
    3.2119   -1.3558    1.2881 C   0  0  0  0  0  0  0  0  0  0  0  0
    2.5153   -0.2898    0.4559 C   0  0  2  0  0  0  0  0  0  0  0  0
    2.0230    0.8169    1.2302 O   0  0  0  0  0  0  0  0  0  0  0  0
    1.0880   -0.1914    0.7980 C   0  0  1  0  0  0  0  0  0  0  0  0
   -0.0117    0.2373   -0.1298 C   0  0  0  0  0  0  0  0  0  0  0  0
    0.8415   -1.2056    1.8869 C   0  0  1  0  0  0  0  0  0  0  0  0
    1.0607   -2.5535    1.4360 O   0  0  0  0  0  0  0  0  0  0  0  0
    3.0883   -3.3768    3.4011 H   0  0  0  0  0  0  0  0  0  0  0  0
    2.9585   -1.7812    4.1579 H   0  0  0  0  0  0  0  0  0  0  0  0
    1.5280   -2.8317    4.0392 H   0  0  0  0  0  0  0  0  0  0  0  0
    4.0294   -0.9239    1.8752 H   0  0  0  0  0  0  0  0  0  0  0  0
    3.6266   -2.1508    0.6589 H   0  0  0  0  0  0  0  0  0  0  0  0
    2.8846   -0.0299   -0.5330 H   0  0  0  0  0  0  0  0  0  0  0  0
   -0.4610   -0.6367   -0.6123 H   0  0  0  0  0  0  0  0  0  0  0  0
   -0.8003    0.7639    0.4190 H   0  0  0  0  0  0  0  0  0  0  0  0
    0.3728    0.9094   -0.9009 H   0  0  0  0  0  0  0  0  0  0  0  0
    0.0433   -1.0716    2.6142 H   0  0  0  0  0  0  0  0  0  0  0  0
  1 12  1  0  0  0  0
  1 11  1  0  0  0  0
  2  1  1  1  0  0  0
  3 13  1  0  0  0  0
  3  2  1  0  0  0  0
  4 15  1  6  0  0  0
  4  6  1  0  0  0  0
  4  5  1  0  0  0  0
  4  3  1  0  0  0  0
  6  7  1  6  0  0  0
  6  5  1  0  0  0  0
  6  8  1  0  0  0  0
  7 17  1  0  0  0  0
  8  2  1  0  0  0  0
  8 19  1  1  0  0  0
  9  8  1  0  0  0  0
  9  2  1  0  0  0  0
 10  1  1  0  0  0  0
 14  3  1  0  0  0  0
 16  7  1  0  0  0  0
 18  7  1  0  0  0  0
M TOR 0 0 1 2 3
M TOR 1 0 1 2 12
M TOR 2 0 1 2 13
M TOR 3 0 1 7 5
M TOR 4 0 1 7 8
M TOR 5 0 1 7 18
M TOR 6 1 2 3 4
M TOR 7 1 2 3 5
M TOR 8 1 2 3 14
M TOR 9 1 7 5 3
M TOR 10 1 7 5 4
M TOR 11 1 7 5 6
M TOR 12 1 8 7 5
M TOR 13 1 8 7 18
M TOR 14 2 1 0 9
M TOR 15 2 1 0 10
M TOR 16 2 1 0 11
M TOR 17 2 1 7 5
M TOR 18 2 1 7 8
M TOR 19 2 1 7 18
M TOR 20 2 3 4 5
M TOR 21 2 3 5 6
M TOR 22 2 3 5 7
M TOR 23 3 2 1 7
M TOR 24 3 2 1 8
M TOR 25 3 4 5 6
M TOR 26 3 4 5 7
M TOR 27 3 5 6 15
M TOR 28 3 5 6 16
M TOR 29 3 5 6 17
M TOR 30 3 5 7 8
M TOR 31 3 5 7 18
M TOR 32 4 3 2 12
M TOR 33 4 3 2 13
M TOR 34 4 5 3 14
M TOR 35 4 5 6 15
M TOR 36 4 5 6 16
M TOR 37 4 5 6 17
M TOR 38 4 5 7 8
M TOR 39 4 5 7 18
M TOR 40 5 3 2 12
M TOR 41 5 3 2 13
M TOR 42 6 5 3 14
M TOR 43 6 5 7 8
M TOR 44 6 5 7 18
M TOR 45 7 1 0 9
M TOR 46 7 1 0 10
M TOR 47 7 1 0 11
M TOR 48 7 1 2 12
M TOR 49 7 1 2 13
M TOR 50 7 5 3 14
M TOR 51 7 5 6 15
M TOR 52 7 5 6 16
M TOR 53 7 5 6 17
M TOR 54 8 1 0 9
M TOR 55 8 1 0 10
M TOR 56 8 1 0 11
M TOR 57 8 1 2 12
M TOR 58 8 1 2 13
M  END
$$$$
