
     RDKit          3D

 19 19  0  0  0  0  0  0  0  0999 V2000
    4.1072   -3.9009    2.3069 O   0  0  0  0  0  0  0  0  0  0  0  0
    4.7985   -2.8654    1.6407 C   0  0  0  0  0  0  0  0  0  0  0  0
    4.4313   -1.5151    2.2306 C   0  0  0  0  0  0  0  0  0  0  0  0
    4.6982   -0.2460    1.3968 C   0  0  0  0  0  0  0  0  0  0  0  0
    3.1657   -0.0617    1.4414 C   0  0  0  0  0  0  0  0  0  0  0  0
    2.4236   -0.0242    0.1036 C   0  0  0  0  0  0  0  0  0  0  0  0
    0.9745   -0.0251    0.2564 C   0  0  0  0  0  0  0  0  0  0  0  0
   -0.2179   -0.0173    0.4035 C   0  0  0  0  0  0  0  0  0  0  0  0
    2.9941   -1.3137    2.1457 O   0  0  0  0  0  0  0  0  0  0  0  0
    3.1752   -3.6492    2.2908 H   0  0  0  0  0  0  0  0  0  0  0  0
    5.8709   -3.0564    1.7641 H   0  0  0  0  0  0  0  0  0  0  0  0
    4.5790   -2.8615    0.5596 H   0  0  0  0  0  0  0  0  0  0  0  0
    4.7614   -1.4609    3.2755 H   0  0  0  0  0  0  0  0  0  0  0  0
    5.2882    0.5342    1.8778 H   0  0  0  0  0  0  0  0  0  0  0  0
    5.1009   -0.4401    0.3987 H   0  0  0  0  0  0  0  0  0  0  0  0
    2.8334    0.7764    2.0663 H   0  0  0  0  0  0  0  0  0  0  0  0
    2.7419    0.8778   -0.4373 H   0  0  0  0  0  0  0  0  0  0  0  0
    2.7401   -0.8838   -0.5002 H   0  0  0  0  0  0  0  0  0  0  0  0
   -1.2723   -0.0169    0.5280 H   0  0  0  0  0  0  0  0  0  0  0  0
  1  2  1  0
  2  3  1  0
  3  4  1  0
  4  5  1  0
  5  6  1  0
  6  7  1  0
  7  8  3  0
  5  9  1  0
  9  3  1  0
  1 10  1  0
  2 11  1  0
  2 12  1  0
  3 13  1  0
  4 14  1  0
  4 15  1  0
  5 16  1  0
  6 17  1  0
  6 18  1  0
  8 19  1  0
M  END
$$$$
