
     RDKit          3D

 19 19  0  0  0  0  0  0  0  0999 V2000
    1.5780   -0.0314   -0.0696 C   0  0  0  0  0  0  0  0  0  0  0  0
    0.1241   -0.0768   -0.0280 C   0  0  0  0  0  0  0  0  0  0  0  0
   -1.0802   -0.1041   -0.0075 C   0  0  0  0  0  0  0  0  0  0  0  0
   -2.5234   -0.1585    0.0502 C   0  0  0  0  0  0  0  0  0  0  0  0
   -3.1317   -0.5906    1.3732 C   0  0  0  0  0  0  0  0  0  0  0  0
   -2.8520    0.4048    2.5052 C   0  0  0  0  0  0  0  0  0  0  0  0
   -3.4625    0.0162    3.7253 O   0  0  0  0  0  0  0  0  0  0  0  0
   -3.2832   -0.3423   -1.2047 C   0  0  0  0  0  0  0  0  0  0  0  0
   -3.2125    0.9393   -0.5917 O   0  0  0  0  0  0  0  0  0  0  0  0
    2.0111   -0.2561    0.9111 H   0  0  0  0  0  0  0  0  0  0  0  0
    1.9797   -0.7564   -0.7859 H   0  0  0  0  0  0  0  0  0  0  0  0
    1.9305    0.9619   -0.3683 H   0  0  0  0  0  0  0  0  0  0  0  0
   -4.2145   -0.6943    1.2536 H   0  0  0  0  0  0  0  0  0  0  0  0
   -2.7301   -1.5768    1.6415 H   0  0  0  0  0  0  0  0  0  0  0  0
   -1.7676    0.5469    2.6214 H   0  0  0  0  0  0  0  0  0  0  0  0
   -3.2836    1.3764    2.2473 H   0  0  0  0  0  0  0  0  0  0  0  0
   -3.0300   -0.7886    4.0279 H   0  0  0  0  0  0  0  0  0  0  0  0
   -2.7413   -0.4446   -2.1433 H   0  0  0  0  0  0  0  0  0  0  0  0
   -4.2552   -0.8336   -1.1653 H   0  0  0  0  0  0  0  0  0  0  0  0
  1  2  1  0
  2  3  3  0
  3  4  1  0
  4  5  1  0
  5  6  1  0
  6  7  1  0
  4  8  1  0
  8  9  1  0
  9  4  1  0
  1 10  1  0
  1 11  1  0
  1 12  1  0
  5 13  1  0
  5 14  1  0
  6 15  1  0
  6 16  1  0
  7 17  1  0
  8 18  1  0
  8 19  1  0
M  END
$$$$
