
     RDKit          3D

 19 19  0  0  0  0  0  0  0  0999 V2000
    0.0223    2.5136    0.3035 C   0  0  0  0  0  0  0  0  0  0  0  0
   -0.8325    1.2981   -0.0173 C   0  0  0  0  0  0  0  0  0  0  0  0
   -1.2963    1.4787   -1.3669 O   0  0  0  0  0  0  0  0  0  0  0  0
   -2.0219    1.1516    0.9475 C   0  0  0  0  0  0  0  0  0  0  0  0
   -2.9021   -0.0578    0.6044 C   0  0  0  0  0  0  0  0  0  0  0  0
   -2.0938   -1.2866    0.2988 C   0  0  0  0  0  0  0  0  0  0  0  0
   -0.7805   -1.2607    0.0306 C   0  0  0  0  0  0  0  0  0  0  0  0
    0.0036   -0.0034    0.0032 C   0  0  0  0  0  0  0  0  0  0  0  0
    1.2150   -0.0080   -0.0580 O   0  0  0  0  0  0  0  0  0  0  0  0
    0.3618    2.4869    1.3425 H   0  0  0  0  0  0  0  0  0  0  0  0
    0.9004    2.5335   -0.3429 H   0  0  0  0  0  0  0  0  0  0  0  0
   -0.5622    3.4241    0.1449 H   0  0  0  0  0  0  0  0  0  0  0  0
   -1.6350    0.6376   -1.6929 H   0  0  0  0  0  0  0  0  0  0  0  0
   -1.6317    1.0353    1.9663 H   0  0  0  0  0  0  0  0  0  0  0  0
   -2.6138    2.0724    0.9278 H   0  0  0  0  0  0  0  0  0  0  0  0
   -3.5990   -0.2721    1.4231 H   0  0  0  0  0  0  0  0  0  0  0  0
   -3.5416    0.1708   -0.2610 H   0  0  0  0  0  0  0  0  0  0  0  0
   -2.6209   -2.2388    0.3006 H   0  0  0  0  0  0  0  0  0  0  0  0
   -0.2164   -2.1690   -0.1590 H   0  0  0  0  0  0  0  0  0  0  0  0
  1  2  1  0
  2  3  1  0
  2  4  1  0
  4  5  1  0
  5  6  1  0
  6  7  2  0
  7  8  1  0
  8  9  2  0
  8  2  1  0
  1 10  1  0
  1 11  1  0
  1 12  1  0
  3 13  1  0
  4 14  1  0
  4 15  1  0
  5 16  1  0
  5 17  1  0
  6 18  1  0
  7 19  1  0
M  END
$$$$
