gdb 4292	3.4048507	1.3428479	1.1606788	2.8867	77.87	-0.24932	0.00152	0.25084	1124.2142	0.158237	-422.563699	-422.555732	-422.554787	-422.596478	30.194
 OpenBabel02181911413D

 19 20  0  0  1  0  0  0  0  0999 V2000
   -0.3691    1.4825    0.3370 C   0  0  0  0  0  0  0  0  0  0  0  0
    0.0414    0.0358    0.0798 C   0  0  2  0  0  0  0  0  0  0  0  0
   -1.1339   -0.7723   -0.1262 O   0  0  0  0  0  0  0  0  0  0  0  0
   -1.0039   -1.9786    0.5916 C   0  0  2  0  0  0  0  0  0  0  0  0
   -2.1011   -2.3135    1.4272 O   0  0  0  0  0  0  0  0  0  0  0  0
   -1.6522   -2.4453    2.7857 C   0  0  0  0  0  0  0  0  0  0  0  0
   -0.1058   -2.6113    2.7374 C   0  0  0  0  0  0  0  0  0  0  0  0
    0.1434   -1.7597    1.5410 C   0  0  2  0  0  3  0  0  0  0  0  0
    0.7448   -0.6135    1.2528 C   0  0  0  0  0  3  0  0  0  0  0  0
    0.5131    2.1260    0.4189 H   0  0  0  0  0  0  0  0  0  0  0  0
   -0.9845    1.8457   -0.4907 H   0  0  0  0  0  0  0  0  0  0  0  0
   -0.9503    1.5574    1.2605 H   0  0  0  0  0  0  0  0  0  0  0  0
    0.6504   -0.0039   -0.8382 H   0  0  0  0  0  0  0  0  0  0  0  0
   -0.8898   -2.8012   -0.1320 H   0  0  0  0  0  0  0  0  0  0  0  0
   -1.9137   -1.5460    3.3599 H   0  0  0  0  0  0  0  0  0  0  0  0
   -2.1656   -3.3034    3.2291 H   0  0  0  0  0  0  0  0  0  0  0  0
    0.3849   -2.2676    3.6497 H   0  0  0  0  0  0  0  0  0  0  0  0
    0.1602   -3.6611    2.5673 H   0  0  0  0  0  0  0  0  0  0  0  0
    1.5339   -0.1207    1.8075 H   0  0  0  0  0  0  0  0  0  0  0  0
  1 10  1  0  0  0  0
  1 12  1  0  0  0  0
  2 13  1  6  0  0  0
  2  1  1  0  0  0  0
  2  9  1  0  0  0  0
  3  2  1  0  0  0  0
  3  4  1  0  0  0  0
  4 14  1  6  0  0  0
  4  5  1  0  0  0  0
  4  8  1  0  0  0  0
  5  6  1  0  0  0  0
  6 16  1  0  0  0  0
  6 15  1  0  0  0  0
  7  6  1  0  0  0  0
  7 17  1  0  0  0  0
  8  9  1  1  0  0  0
  8  7  1  0  0  0  0
  9 19  1  0  0  0  0
 11  1  1  0  0  0  0
 18  7  1  0  0  0  0
M TOR 0 0 1 2 3
M TOR 1 0 1 8 7
M TOR 2 0 1 8 18
M TOR 3 1 2 3 4
M TOR 4 1 2 3 7
M TOR 5 1 2 3 13
M TOR 6 1 8 7 3
M TOR 7 1 8 7 6
M TOR 8 2 1 0 9
M TOR 9 2 1 0 10
M TOR 10 2 1 0 11
M TOR 11 2 1 8 7
M TOR 12 2 1 8 18
M TOR 13 2 3 4 5
M TOR 14 2 3 7 6
M TOR 15 2 3 7 8
M TOR 16 3 2 1 8
M TOR 17 3 2 1 12
M TOR 18 3 4 5 6
M TOR 19 3 4 5 14
M TOR 20 3 4 5 15
M TOR 21 3 7 6 5
M TOR 22 3 7 6 16
M TOR 23 3 7 6 17
M TOR 24 3 7 8 18
M TOR 25 4 3 7 6
M TOR 26 4 3 7 8
M TOR 27 4 5 6 7
M TOR 28 4 5 6 16
M TOR 29 4 5 6 17
M TOR 30 5 4 3 7
M TOR 31 5 4 3 13
M TOR 32 5 6 7 8
M TOR 33 6 7 3 13
M TOR 34 6 7 8 18
M TOR 35 7 6 5 14
M TOR 36 7 6 5 15
M TOR 37 7 8 1 12
M TOR 38 8 1 0 9
M TOR 39 8 1 0 10
M TOR 40 8 1 0 11
M TOR 41 8 7 3 13
M TOR 42 8 7 6 16
M TOR 43 8 7 6 17
M  END
$$$$
