gdb 3814	2.5032299	1.7791529	1.3197123	1.9985	73.47	-0.24465	0.07153	0.31618	1005.7625	0.158093	-422.542044	-422.534314	-422.53337	-422.573678	31.484
 OpenBabel02181911413D

 19 21  0  0  1  0  0  0  0  0999 V2000
    0.5531    0.8890    0.4537 O   0  0  0  0  0  0  0  0  0  0  0  0
   -0.8485    1.1094    0.3963 C   0  0  1  0  0  0  0  0  0  0  0  0
   -1.6420   -0.2014    0.1365 C   0  0  0  0  0  0  0  0  0  0  0  0
   -2.1575   -0.5961    1.5211 C   0  0  2  0  0  0  0  0  0  0  0  0
   -2.2750   -1.9469    1.8486 O   0  0  0  0  0  0  0  0  0  0  0  0
   -3.0937    0.3620    2.2454 C   0  0  2  0  0  0  0  0  0  0  0  0
   -2.9530    1.7802    1.6965 C   0  0  0  0  0  0  0  0  0  0  0  0
   -1.3988    1.6011    1.7447 C   0  0  1  0  0  0  0  0  0  0  0  0
   -1.6051    0.3084    2.5858 C   0  0  2  0  0  0  0  0  0  0  0  0
    0.7174    0.2502    1.1574 H   0  0  0  0  0  0  0  0  0  0  0  0
   -0.9900    1.8477   -0.3987 H   0  0  0  0  0  0  0  0  0  0  0  0
   -2.4493   -0.0610   -0.5909 H   0  0  0  0  0  0  0  0  0  0  0  0
   -0.9699   -0.9699   -0.2556 H   0  0  0  0  0  0  0  0  0  0  0  0
   -3.0713   -2.2886    1.4277 H   0  0  0  0  0  0  0  0  0  0  0  0
   -3.9208   -0.0373    2.8218 H   0  0  0  0  0  0  0  0  0  0  0  0
   -3.4036    2.0111    0.7234 H   0  0  0  0  0  0  0  0  0  0  0  0
   -3.2872    2.5253    2.4227 H   0  0  0  0  0  0  0  0  0  0  0  0
   -0.8242    2.4232    2.1691 H   0  0  0  0  0  0  0  0  0  0  0  0
   -1.1078   -0.0224    3.4874 H   0  0  0  0  0  0  0  0  0  0  0  0
  1 10  1  0  0  0  0
  2 11  1  6  0  0  0
  2  1  1  0  0  0  0
  2  8  1  0  0  0  0
  3  2  1  0  0  0  0
  3  4  1  0  0  0  0
  4  5  1  1  0  0  0
  4  6  1  0  0  0  0
  4  9  1  0  0  0  0
  6  9  1  0  0  0  0
  6 15  1  1  0  0  0
  7  8  1  0  0  0  0
  7  6  1  0  0  0  0
  7 17  1  0  0  0  0
  8 18  1  1  0  0  0
  8  9  1  0  0  0  0
  9 19  1  1  0  0  0
 12  3  1  0  0  0  0
 13  3  1  0  0  0  0
 14  5  1  0  0  0  0
 16  7  1  0  0  0  0
M TOR 0 0 1 2 3
M TOR 1 0 1 2 11
M TOR 2 0 1 2 12
M TOR 3 0 1 7 6
M TOR 4 0 1 7 8
M TOR 5 0 1 7 17
M TOR 6 1 2 3 4
M TOR 7 1 2 3 5
M TOR 8 1 2 3 8
M TOR 9 1 7 6 5
M TOR 10 1 7 6 15
M TOR 11 1 7 6 16
M TOR 12 1 7 8 3
M TOR 13 1 7 8 5
M TOR 14 1 7 8 18
M TOR 15 2 1 0 9
M TOR 16 2 1 7 6
M TOR 17 2 1 7 8
M TOR 18 2 1 7 17
M TOR 19 2 3 4 13
M TOR 20 2 3 5 6
M TOR 21 2 3 5 8
M TOR 22 2 3 5 14
M TOR 23 2 3 8 7
M TOR 24 2 3 8 18
M TOR 25 3 2 1 7
M TOR 26 3 2 1 10
M TOR 27 3 5 6 7
M TOR 28 3 5 6 15
M TOR 29 3 5 6 16
M TOR 30 3 5 8 7
M TOR 31 3 5 8 18
M TOR 32 3 8 5 6
M TOR 33 3 8 5 14
M TOR 34 3 8 7 6
M TOR 35 3 8 7 17
M TOR 36 4 3 2 11
M TOR 37 4 3 2 12
M TOR 38 4 3 5 6
M TOR 39 4 3 5 8
M TOR 40 4 3 5 14
M TOR 41 4 3 8 7
M TOR 42 4 3 8 18
M TOR 43 5 3 2 11
M TOR 44 5 3 2 12
M TOR 45 5 3 4 13
M TOR 46 5 6 7 8
M TOR 47 5 6 7 17
M TOR 48 5 8 7 17
M TOR 49 6 5 8 18
M TOR 50 6 7 1 10
M TOR 51 6 7 8 18
M TOR 52 7 1 0 9
M TOR 53 7 1 2 11
M TOR 54 7 1 2 12
M TOR 55 7 6 5 14
M TOR 56 7 8 5 14
M TOR 57 8 3 2 11
M TOR 58 8 3 2 12
M TOR 59 8 3 4 13
M TOR 60 8 5 6 15
M TOR 61 8 5 6 16
M TOR 62 8 7 1 10
M TOR 63 8 7 6 15
M TOR 64 8 7 6 16
M  END
$$$$
