
     RDKit          3D

 19 20  0  0  0  0  0  0  0  0999 V2000
    2.3631    1.4698   -0.1821 C   0  0  0  0  0  0  0  0  0  0  0  0
    1.7860    0.0514   -0.1335 C   0  0  0  0  0  0  0  0  0  0  0  0
    2.1320   -0.7644   -1.3741 C   0  0  0  0  0  0  0  0  0  0  0  0
    1.4605   -0.3988   -2.7423 C   0  0  0  0  0  0  0  0  0  0  0  0
    0.9315   -1.8409   -2.8589 C   0  0  0  0  0  0  0  0  0  0  0  0
   -0.4049   -1.9769   -2.2754 O   0  0  0  0  0  0  0  0  0  0  0  0
    0.1144   -2.3582   -1.0551 C   0  0  0  0  0  0  0  0  0  0  0  0
   -0.4904   -2.6542   -0.0754 O   0  0  0  0  0  0  0  0  0  0  0  0
    1.5668   -2.2243   -1.5009 C   0  0  0  0  0  0  0  0  0  0  0  0
    2.0968    2.0340    0.7164 H   0  0  0  0  0  0  0  0  0  0  0  0
    3.4565    1.4513   -0.2531 H   0  0  0  0  0  0  0  0  0  0  0  0
    1.9845    2.0257   -1.0468 H   0  0  0  0  0  0  0  0  0  0  0  0
    2.1635   -0.4721    0.7539 H   0  0  0  0  0  0  0  0  0  0  0  0
    0.6967    0.0991   -0.0153 H   0  0  0  0  0  0  0  0  0  0  0  0
    3.2195   -0.8016   -1.4922 H   0  0  0  0  0  0  0  0  0  0  0  0
    0.6635    0.3473   -2.7019 H   0  0  0  0  0  0  0  0  0  0  0  0
    2.1694   -0.1193   -3.5247 H   0  0  0  0  0  0  0  0  0  0  0  0
    1.0153   -2.4048   -3.7861 H   0  0  0  0  0  0  0  0  0  0  0  0
    2.2293   -3.0658   -1.3094 H   0  0  0  0  0  0  0  0  0  0  0  0
  1  2  1  0
  2  3  1  0
  3  4  1  0
  4  5  1  0
  5  6  1  0
  6  7  1  0
  7  8  2  0
  7  9  1  0
  9  3  1  0
  9  5  1  0
  1 10  1  0
  1 11  1  0
  1 12  1  0
  2 13  1  0
  2 14  1  0
  3 15  1  0
  4 16  1  0
  4 17  1  0
  5 18  1  0
  9 19  1  0
M  END
$$$$
