gdb 3300	3.959199	1.2049082	1.0423548	0.9076	74.13	-0.23715	0.07475	0.3119	1157.9537	0.158018	-422.531351	-422.523345	-422.522401	-422.564142	30.318
 OpenBabel02181911413D

 19 21  0  0  1  0  0  0  0  0999 V2000
    0.4549   -0.2024    0.2335 O   0  0  0  0  0  0  0  0  0  0  0  0
   -0.5514    0.6158    0.7570 C   0  0  1  0  0  0  0  0  0  0  0  0
   -1.4795    0.1431    1.8428 C   0  0  2  0  0  0  0  0  0  0  0  0
   -2.8724    0.7711    1.8794 C   0  0  0  0  0  0  0  0  0  0  0  0
   -2.6613    2.2272    2.3251 C   0  0  1  0  0  0  0  0  0  0  0  0
   -2.7780    2.3893    3.7595 O   0  0  0  0  0  0  0  0  0  0  0  0
   -1.4180    2.8541    3.8700 C   0  0  0  0  0  0  0  0  0  0  0  0
   -1.1364    2.5407    2.3869 C   0  0  1  0  0  0  0  0  0  0  0  0
   -0.4311    1.2254    2.1264 C   0  0  2  0  0  0  0  0  0  0  0  0
    0.8048   -0.7518    0.9421 H   0  0  0  0  0  0  0  0  0  0  0  0
   -0.9702    1.2209   -0.0440 H   0  0  0  0  0  0  0  0  0  0  0  0
   -1.3433   -0.8669    2.2172 H   0  0  0  0  0  0  0  0  0  0  0  0
   -3.3666    0.7225    0.9018 H   0  0  0  0  0  0  0  0  0  0  0  0
   -3.5237    0.2728    2.6031 H   0  0  0  0  0  0  0  0  0  0  0  0
   -3.3026    2.9430    1.7980 H   0  0  0  0  0  0  0  0  0  0  0  0
   -1.3730    3.9200    4.1292 H   0  0  0  0  0  0  0  0  0  0  0  0
   -0.8432    2.2811    4.6079 H   0  0  0  0  0  0  0  0  0  0  0  0
   -0.7619    3.3719    1.7850 H   0  0  0  0  0  0  0  0  0  0  0  0
    0.4624    0.9917    2.6998 H   0  0  0  0  0  0  0  0  0  0  0  0
  1  2  1  0  0  0  0
  1 10  1  0  0  0  0
  2 11  1  6  0  0  0
  2  3  1  0  0  0  0
  2  9  1  0  0  0  0
  3  4  1  0  0  0  0
  3  9  1  0  0  0  0
  3 12  1  1  0  0  0
  4  5  1  0  0  0  0
  4 14  1  0  0  0  0
  5 15  1  6  0  0  0
  5  8  1  0  0  0  0
  5  6  1  0  0  0  0
  6  7  1  0  0  0  0
  7 16  1  0  0  0  0
  7 17  1  0  0  0  0
  8 18  1  6  0  0  0
  8  7  1  0  0  0  0
  9  8  1  0  0  0  0
  9 19  1  1  0  0  0
 13  4  1  0  0  0  0
M TOR 0 0 1 2 3
M TOR 1 0 1 2 8
M TOR 2 0 1 2 11
M TOR 3 0 1 8 7
M TOR 4 0 1 8 18
M TOR 5 1 2 3 4
M TOR 6 1 2 3 12
M TOR 7 1 2 3 13
M TOR 8 1 2 8 7
M TOR 9 1 2 8 18
M TOR 10 1 8 2 3
M TOR 11 1 8 2 11
M TOR 12 1 8 7 4
M TOR 13 1 8 7 6
M TOR 14 1 8 7 17
M TOR 15 2 1 0 9
M TOR 16 2 3 4 5
M TOR 17 2 3 4 7
M TOR 18 2 3 4 14
M TOR 19 2 8 1 10
M TOR 20 2 8 7 4
M TOR 21 2 8 7 6
M TOR 22 2 8 7 17
M TOR 23 3 2 1 10
M TOR 24 3 2 8 7
M TOR 25 3 2 8 18
M TOR 26 3 4 5 6
M TOR 27 3 4 7 6
M TOR 28 3 4 7 8
M TOR 29 3 4 7 17
M TOR 30 4 3 2 8
M TOR 31 4 3 2 11
M TOR 32 4 5 6 7
M TOR 33 4 5 6 15
M TOR 34 4 5 6 16
M TOR 35 4 7 6 15
M TOR 36 4 7 6 16
M TOR 37 4 7 8 18
M TOR 38 5 4 3 12
M TOR 39 5 4 3 13
M TOR 40 5 4 7 8
M TOR 41 5 4 7 17
M TOR 42 5 6 7 8
M TOR 43 5 6 7 17
M TOR 44 6 5 4 14
M TOR 45 6 7 4 14
M TOR 46 6 7 8 18
M TOR 47 7 4 3 12
M TOR 48 7 4 3 13
M TOR 49 7 8 1 10
M TOR 50 7 8 2 11
M TOR 51 8 1 0 9
M TOR 52 8 2 3 12
M TOR 53 8 2 3 13
M TOR 54 8 7 4 14
M TOR 55 8 7 6 15
M TOR 56 8 7 6 16
M  END
$$$$
