
     RDKit          3D

 19 20  0  0  0  0  0  0  0  0999 V2000
   -1.7404   -1.5441    1.9857 C   0  0  0  0  0  0  0  0  0  0  0  0
   -1.6172   -0.0458    1.8535 C   0  0  0  0  0  0  0  0  0  0  0  0
   -2.8157    0.8349    1.9836 C   0  0  0  0  0  0  0  0  0  0  0  0
   -2.5348    2.0076    2.5618 C   0  0  0  0  0  0  0  0  0  0  0  0
   -1.0910    2.0848    3.0157 C   0  0  0  0  0  0  0  0  0  0  0  0
   -0.9603    2.1991    4.4306 O   0  0  0  0  0  0  0  0  0  0  0  0
   -0.4895    0.7953    2.4537 C   0  0  0  0  0  0  0  0  0  0  0  0
   -0.5480    0.5693    0.9637 C   0  0  0  0  0  0  0  0  0  0  0  0
    0.3699   -0.3123    0.3884 O   0  0  0  0  0  0  0  0  0  0  0  0
   -2.0787   -1.8289    2.9879 H   0  0  0  0  0  0  0  0  0  0  0  0
   -2.4638   -1.9415    1.2642 H   0  0  0  0  0  0  0  0  0  0  0  0
   -0.7801   -2.0253    1.7904 H   0  0  0  0  0  0  0  0  0  0  0  0
   -3.7874    0.5400    1.6004 H   0  0  0  0  0  0  0  0  0  0  0  0
   -3.2303    2.8224    2.7259 H   0  0  0  0  0  0  0  0  0  0  0  0
   -0.5810    2.9730    2.6236 H   0  0  0  0  0  0  0  0  0  0  0  0
   -1.5149    1.5124    4.8182 H   0  0  0  0  0  0  0  0  0  0  0  0
    0.3255    0.3279    2.9960 H   0  0  0  0  0  0  0  0  0  0  0  0
   -0.8535    1.3980    0.3229 H   0  0  0  0  0  0  0  0  0  0  0  0
    1.2493    0.0698    0.4782 H   0  0  0  0  0  0  0  0  0  0  0  0
  1  2  1  0
  2  3  1  0
  3  4  2  0
  4  5  1  0
  5  6  1  0
  5  7  1  0
  7  8  1  0
  8  9  1  0
  7  2  1  0
  8  2  1  0
  1 10  1  0
  1 11  1  0
  1 12  1  0
  3 13  1  0
  4 14  1  0
  5 15  1  0
  6 16  1  0
  7 17  1  0
  8 18  1  0
  9 19  1  0
M  END
$$$$
