gdb 1006	1.6765469	1.1917811	0.7768771	1.8703	80.65	-0.24857	0.01333	0.2619	1524.9904	0.153961	-422.558762	-422.547826	-422.546882	-422.597785	36.168
 OpenBabel02181911403D

 19 18  0  0  1  0  0  0  0  0999 V2000
    1.3299    0.3349   -0.4030 C   0  0  0  0  0  0  0  0  0  0  0  0
   -0.1118    0.2048   -0.2458 C   0  0  0  0  0  0  0  0  0  0  0  0
   -1.3044    0.1006   -0.1158 C   0  0  0  0  0  0  0  0  0  0  0  0
   -2.7534   -0.0435    0.0159 C   0  0  2  0  0  0  0  0  0  0  0  0
   -3.1632   -1.5155    0.2221 C   0  0  0  0  0  0  0  0  0  0  0  0
   -3.4826    0.5330   -1.2077 C   0  0  0  0  0  0  0  0  0  0  0  0
   -3.2388    1.9492   -1.2912 O   0  0  0  0  0  0  0  0  0  0  0  0
   -2.6578    2.4186   -2.4067 C   0  0  0  0  0  0  0  0  0  0  0  0
   -2.3582    1.7925   -3.3847 O   0  0  0  0  0  0  0  0  0  0  0  0
    1.7297    1.1354    0.2292 H   0  0  0  0  0  0  0  0  0  0  0  0
    1.8456   -0.5923   -0.1296 H   0  0  0  0  0  0  0  0  0  0  0  0
    1.5944    0.5676   -1.4403 H   0  0  0  0  0  0  0  0  0  0  0  0
   -3.0857    0.5336    0.8895 H   0  0  0  0  0  0  0  0  0  0  0  0
   -2.6713   -1.9278    1.1058 H   0  0  0  0  0  0  0  0  0  0  0  0
   -4.2463   -1.6002    0.3582 H   0  0  0  0  0  0  0  0  0  0  0  0
   -2.8730   -2.1232   -0.6401 H   0  0  0  0  0  0  0  0  0  0  0  0
   -3.1519    0.0547   -2.1310 H   0  0  0  0  0  0  0  0  0  0  0  0
   -4.5635    0.4055   -1.0930 H   0  0  0  0  0  0  0  0  0  0  0  0
   -2.5052    3.5016   -2.2812 H   0  0  0  0  0  0  0  0  0  0  0  0
  1  2  1  0  0  0  0
  1 11  1  0  0  0  0
  1 10  1  0  0  0  0
  2  3  3  0  0  0  0
  3  4  1  0  0  0  0
  4  5  1  0  0  0  0
  4 13  1  1  0  0  0
  5 15  1  0  0  0  0
  5 14  1  0  0  0  0
  6 18  1  0  0  0  0
  6  4  1  0  0  0  0
  7  6  1  0  0  0  0
  8 19  1  0  0  0  0
  8  7  1  0  0  0  0
  9  8  2  0  0  0  0
 12  1  1  0  0  0  0
 16  5  1  0  0  0  0
 17  6  1  0  0  0  0
M TOR 0 0 1 2 3
M TOR 1 1 2 3 4
M TOR 2 1 2 3 5
M TOR 3 1 2 3 12
M TOR 4 2 1 0 9
M TOR 5 2 1 0 10
M TOR 6 2 1 0 11
M TOR 7 2 3 4 13
M TOR 8 2 3 4 14
M TOR 9 2 3 4 15
M TOR 10 2 3 5 6
M TOR 11 2 3 5 16
M TOR 12 2 3 5 17
M TOR 13 3 5 6 7
M TOR 14 4 3 5 6
M TOR 15 4 3 5 16
M TOR 16 4 3 5 17
M TOR 17 5 3 4 13
M TOR 18 5 3 4 14
M TOR 19 5 3 4 15
M TOR 20 5 6 7 8
M TOR 21 5 6 7 18
M TOR 22 6 5 3 12
M TOR 23 7 6 5 16
M TOR 24 7 6 5 17
M  END
$$$$
