gdb 2164	2.1841725	1.9655123	1.6606512	1.1725	74.72	-0.23131	0.08205	0.31335999999999997	956.5694	0.155944	-422.513219	-422.505119	-422.504175	-422.545212	31.695
 OpenBabel02181911403D

 19 21  0  0  1  0  0  0  0  0999 V2000
    1.1521    2.1904    3.2236 C   0  0  0  0  0  0  0  0  0  0  0  0
    1.6502    1.4110    2.0493 C   0  0  2  0  0  0  0  0  0  0  0  0
    2.2233    0.0714    2.2667 O   0  0  0  0  0  0  0  0  0  0  0  0
    2.3340    0.2718    0.8205 C   0  0  2  0  0  0  0  0  0  0  0  0
    2.7688    1.7520    1.0081 C   0  0  1  0  0  0  0  0  0  0  0  0
    2.1176    2.5572   -0.1005 C   0  0  0  0  0  0  0  0  0  0  0  0
    0.8327    1.9077   -0.2051 O   0  0  0  0  0  0  0  0  0  0  0  0
    0.8991    0.8880    0.7695 C   0  0  2  0  0  0  0  0  0  0  0  0
   -0.3484    0.0610    0.8443 C   0  0  0  0  0  0  0  0  0  0  0  0
    0.3666    1.6368    3.7474 H   0  0  0  0  0  0  0  0  0  0  0  0
    1.9618    2.3938    3.9314 H   0  0  0  0  0  0  0  0  0  0  0  0
    0.7341    3.1456    2.8899 H   0  0  0  0  0  0  0  0  0  0  0  0
    2.7916   -0.5189    0.2260 H   0  0  0  0  0  0  0  0  0  0  0  0
    3.7757    1.9845    1.3504 H   0  0  0  0  0  0  0  0  0  0  0  0
    1.9805    3.6162    0.1504 H   0  0  0  0  0  0  0  0  0  0  0  0
    2.6464    2.4913   -1.0591 H   0  0  0  0  0  0  0  0  0  0  0  0
   -0.2229   -0.7090    1.6091 H   0  0  0  0  0  0  0  0  0  0  0  0
   -1.2109    0.6840    1.1007 H   0  0  0  0  0  0  0  0  0  0  0  0
   -0.5528   -0.4191   -0.1173 H   0  0  0  0  0  0  0  0  0  0  0  0
  1 10  1  0  0  0  0
  1 11  1  0  0  0  0
  2  3  1  0  0  0  0
  2  1  1  1  0  0  0
  4 13  1  6  0  0  0
  4  5  1  0  0  0  0
  4  3  1  0  0  0  0
  5 14  1  1  0  0  0
  5  2  1  0  0  0  0
  6 15  1  0  0  0  0
  6  5  1  0  0  0  0
  7  6  1  0  0  0  0
  7  8  1  0  0  0  0
  8  4  1  0  0  0  0
  8  9  1  1  0  0  0
  8  2  1  0  0  0  0
  9 18  1  0  0  0  0
  9 17  1  0  0  0  0
 12  1  1  0  0  0  0
 16  6  1  0  0  0  0
 19  9  1  0  0  0  0
M TOR 0 0 1 2 3
M TOR 1 0 1 4 3
M TOR 2 0 1 4 5
M TOR 3 0 1 4 13
M TOR 4 0 1 7 3
M TOR 5 0 1 7 6
M TOR 6 0 1 7 8
M TOR 7 1 2 3 4
M TOR 8 1 2 3 7
M TOR 9 1 2 3 12
M TOR 10 1 4 3 7
M TOR 11 1 4 3 12
M TOR 12 1 4 5 6
M TOR 13 1 4 5 14
M TOR 14 1 4 5 15
M TOR 15 1 7 3 12
M TOR 16 1 7 6 5
M TOR 17 1 7 8 16
M TOR 18 1 7 8 17
M TOR 19 1 7 8 18
M TOR 20 2 1 0 9
M TOR 21 2 1 0 10
M TOR 22 2 1 0 11
M TOR 23 2 1 4 5
M TOR 24 2 1 4 13
M TOR 25 2 1 7 6
M TOR 26 2 1 7 8
M TOR 27 2 3 4 5
M TOR 28 2 3 4 13
M TOR 29 2 3 7 6
M TOR 30 2 3 7 8
M TOR 31 3 4 5 6
M TOR 32 3 4 5 14
M TOR 33 3 4 5 15
M TOR 34 3 7 6 5
M TOR 35 3 7 8 16
M TOR 36 3 7 8 17
M TOR 37 3 7 8 18
M TOR 38 4 1 0 9
M TOR 39 4 1 0 10
M TOR 40 4 1 0 11
M TOR 41 4 1 7 6
M TOR 42 4 1 7 8
M TOR 43 4 3 7 6
M TOR 44 4 3 7 8
M TOR 45 4 5 6 7
M TOR 46 5 4 1 7
M TOR 47 5 4 3 7
M TOR 48 5 4 3 12
M TOR 49 5 6 7 8
M TOR 50 6 5 4 13
M TOR 51 6 7 3 12
M TOR 52 6 7 8 16
M TOR 53 6 7 8 17
M TOR 54 6 7 8 18
M TOR 55 7 1 0 9
M TOR 56 7 1 0 10
M TOR 57 7 1 0 11
M TOR 58 7 1 4 13
M TOR 59 7 3 4 13
M TOR 60 7 6 5 14
M TOR 61 7 6 5 15
M TOR 62 8 7 3 12
M  END
$$$$
