gdb 1155	3.9884363	0.9697109	0.8985544	3.6971	75.64	-0.22888	-0.01605	0.21283	1348.8724	0.154593	-422.528348	-422.519163	-422.518219	-422.563456	33.023
 OpenBabel02181911403D

 19 20  0  0  1  0  0  0  0  0999 V2000
    5.4925    3.0583   -1.6473 C   0  0  0  0  0  0  0  0  0  0  0  0
    4.0838    3.6168   -1.5757 C   0  0  0  0  0  0  0  0  0  0  0  0
    3.8297    4.6541   -1.0084 O   0  0  0  0  0  0  0  0  0  0  0  0
    2.9886    2.7818   -2.2427 C   0  0  0  0  0  0  0  0  0  0  0  0
    1.7049    3.5346   -2.4184 C   0  0  1  0  0  0  0  0  0  0  0  0
    1.3103    4.2814   -3.6794 C   0  0  0  0  0  0  0  0  0  0  0  0
    0.4126    3.2120   -3.1334 C   0  0  2  0  0  0  0  0  0  0  0  0
   -0.4000    3.7223   -2.0766 O   0  0  0  0  0  0  0  0  0  0  0  0
    0.7925    4.0041   -1.2879 C   0  0  0  0  0  0  0  0  0  0  0  0
    6.1577    3.6383   -1.0068 H   0  0  0  0  0  0  0  0  0  0  0  0
    5.5117    2.0033   -1.3532 H   0  0  0  0  0  0  0  0  0  0  0  0
    5.8544    3.1056   -2.6814 H   0  0  0  0  0  0  0  0  0  0  0  0
    3.3579    2.3927   -3.1996 H   0  0  0  0  0  0  0  0  0  0  0  0
    2.8422    1.8954   -1.6051 H   0  0  0  0  0  0  0  0  0  0  0  0
    0.9924    5.3198   -3.6387 H   0  0  0  0  0  0  0  0  0  0  0  0
    1.8803    4.0070   -4.5630 H   0  0  0  0  0  0  0  0  0  0  0  0
    0.0601    2.3403   -3.6742 H   0  0  0  0  0  0  0  0  0  0  0  0
    0.8640    5.0524   -0.9839 H   0  0  0  0  0  0  0  0  0  0  0  0
    0.8254    3.3569   -0.4034 H   0  0  0  0  0  0  0  0  0  0  0  0
  1  2  1  0  0  0  0
  1 11  1  0  0  0  0
  1 10  1  0  0  0  0
  2  3  2  0  0  0  0
  4 14  1  0  0  0  0
  4  2  1  0  0  0  0
  5  4  1  1  0  0  0
  5  9  1  0  0  0  0
  6 15  1  0  0  0  0
  6  7  1  0  0  0  0
  6  5  1  0  0  0  0
  7 17  1  6  0  0  0
  7  5  1  0  0  0  0
  7  8  1  0  0  0  0
  8  9  1  0  0  0  0
  9 18  1  0  0  0  0
  9 19  1  0  0  0  0
 12  1  1  0  0  0  0
 13  4  1  0  0  0  0
 16  6  1  0  0  0  0
M TOR 0 0 1 3 4
M TOR 1 0 1 3 12
M TOR 2 0 1 3 13
M TOR 3 1 3 4 5
M TOR 4 1 3 4 6
M TOR 5 1 3 4 8
M TOR 6 2 1 0 9
M TOR 7 2 1 0 10
M TOR 8 2 1 0 11
M TOR 9 2 1 3 4
M TOR 10 2 1 3 12
M TOR 11 2 1 3 13
M TOR 12 3 1 0 9
M TOR 13 3 1 0 10
M TOR 14 3 1 0 11
M TOR 15 3 4 5 6
M TOR 16 3 4 5 14
M TOR 17 3 4 5 15
M TOR 18 3 4 6 7
M TOR 19 3 4 6 16
M TOR 20 3 4 8 7
M TOR 21 3 4 8 17
M TOR 22 3 4 8 18
M TOR 23 4 5 6 7
M TOR 24 4 5 6 16
M TOR 25 4 6 5 14
M TOR 26 4 6 5 15
M TOR 27 4 6 7 8
M TOR 28 5 4 3 12
M TOR 29 5 4 3 13
M TOR 30 5 4 8 7
M TOR 31 5 4 8 17
M TOR 32 5 4 8 18
M TOR 33 5 6 4 8
M TOR 34 5 6 7 8
M TOR 35 6 4 3 12
M TOR 36 6 4 3 13
M TOR 37 6 4 8 17
M TOR 38 6 4 8 18
M TOR 39 6 7 8 17
M TOR 40 6 7 8 18
M TOR 41 7 6 5 14
M TOR 42 7 6 5 15
M TOR 43 8 4 3 12
M TOR 44 8 4 3 13
M TOR 45 8 4 5 14
M TOR 46 8 4 5 15
M TOR 47 8 4 6 16
M TOR 48 8 7 6 16
M  END
$$$$
