gdb 3862	2.7303047	1.343679	1.0953404	2.4259	77.26	-0.23774	-0.02007	0.21767	1178.9169	0.154271	-422.542097	-422.532832	-422.531888	-422.576382	33.88
 OpenBabel02181911413D

 19 20  0  0  1  0  0  0  0  0999 V2000
    1.2722   -0.3956   -1.3370 C   0  0  0  0  0  0  0  0  0  0  0  0
    1.0387    0.0981    0.0749 C   0  0  1  0  0  0  0  0  0  0  0  0
    2.0338   -0.4460    1.0025 O   0  0  0  0  0  0  0  0  0  0  0  0
    2.5528    0.8631    1.2434 C   0  0  2  0  0  0  0  0  0  0  0  0
    1.5093    1.7631    1.8515 C   0  0  0  0  0  0  0  0  0  0  0  0
    1.4899    1.5299    0.3706 C   0  0  2  0  0  0  0  0  0  0  0  0
    4.0143    1.1124    1.3173 C   0  0  0  0  0  0  0  0  0  0  0  0
    4.9057   -0.1033    1.1893 C   0  0  0  0  0  0  0  0  0  0  0  0
    4.4386    2.2396    1.4676 O   0  0  0  0  0  0  0  0  0  0  0  0
    1.1692   -1.4838   -1.3790 H   0  0  0  0  0  0  0  0  0  0  0  0
    0.5380    0.0465   -2.0195 H   0  0  0  0  0  0  0  0  0  0  0  0
    2.2747   -0.1272   -1.6836 H   0  0  0  0  0  0  0  0  0  0  0  0
    0.0260   -0.1510    0.4163 H   0  0  0  0  0  0  0  0  0  0  0  0
    0.7578    1.3084    2.4906 H   0  0  0  0  0  0  0  0  0  0  0  0
    1.8864    2.7315    2.1606 H   0  0  0  0  0  0  0  0  0  0  0  0
    1.6244    2.3163   -0.3602 H   0  0  0  0  0  0  0  0  0  0  0  0
    5.9503    0.2003    1.2626 H   0  0  0  0  0  0  0  0  0  0  0  0
    4.6650   -0.8297    1.9735 H   0  0  0  0  0  0  0  0  0  0  0  0
    4.7200   -0.6111    0.2375 H   0  0  0  0  0  0  0  0  0  0  0  0
  1  2  1  0  0  0  0
  2  6  1  0  0  0  0
  2 13  1  1  0  0  0
  2  3  1  0  0  0  0
  3  4  1  0  0  0  0
  4  7  1  6  0  0  0
  4  5  1  0  0  0  0
  5 15  1  0  0  0  0
  5 14  1  0  0  0  0
  6 16  1  6  0  0  0
  6  4  1  0  0  0  0
  6  5  1  0  0  0  0
  7  9  2  0  0  0  0
  8 17  1  0  0  0  0
  8  7  1  0  0  0  0
  8 18  1  0  0  0  0
 10  1  1  0  0  0  0
 11  1  1  0  0  0  0
 12  1  1  0  0  0  0
 19  8  1  0  0  0  0
M TOR 0 0 1 2 3
M TOR 1 0 1 5 3
M TOR 2 0 1 5 4
M TOR 3 0 1 5 15
M TOR 4 1 2 3 4
M TOR 5 1 2 3 5
M TOR 6 1 2 3 6
M TOR 7 1 5 3 4
M TOR 8 1 5 3 6
M TOR 9 1 5 4 13
M TOR 10 1 5 4 14
M TOR 11 2 1 0 9
M TOR 12 2 1 0 10
M TOR 13 2 1 0 11
M TOR 14 2 1 5 4
M TOR 15 2 1 5 15
M TOR 16 2 3 4 5
M TOR 17 2 3 4 13
M TOR 18 2 3 4 14
M TOR 19 2 3 5 15
M TOR 20 2 3 6 7
M TOR 21 2 3 6 8
M TOR 22 3 2 1 12
M TOR 23 3 4 5 15
M TOR 24 3 5 1 12
M TOR 25 3 5 4 13
M TOR 26 3 5 4 14
M TOR 27 3 6 7 16
M TOR 28 3 6 7 17
M TOR 29 3 6 7 18
M TOR 30 4 3 6 7
M TOR 31 4 3 6 8
M TOR 32 4 5 1 12
M TOR 33 4 5 3 6
M TOR 34 5 1 0 9
M TOR 35 5 1 0 10
M TOR 36 5 1 0 11
M TOR 37 5 3 6 7
M TOR 38 5 3 6 8
M TOR 39 6 3 4 13
M TOR 40 6 3 4 14
M TOR 41 6 3 5 15
M TOR 42 8 6 7 16
M TOR 43 8 6 7 17
M TOR 44 8 6 7 18
M  END
$$$$
