
     RDKit          3D

 19 18  0  0  0  0  0  0  0  0999 V2000
    2.7118   -1.7094   -1.8562 C   0  0  0  0  0  0  0  0  0  0  0  0
    3.2455   -1.3454   -0.4717 C   0  0  0  0  0  0  0  0  0  0  0  0
    2.9471   -2.3452    0.4830 O   0  0  0  0  0  0  0  0  0  0  0  0
    2.7441    0.0593    0.0371 C   0  0  0  0  0  0  0  0  0  0  0  0
    3.4562    0.3929    1.3731 C   0  0  0  0  0  0  0  0  0  0  0  0
    3.1643    1.1238   -0.9785 C   0  0  0  0  0  0  0  0  0  0  0  0
    2.4375    1.8821   -1.5583 O   0  0  0  0  0  0  0  0  0  0  0  0
    1.2972    0.0162    0.2237 C   0  0  0  0  0  0  0  0  0  0  0  0
    0.1130   -0.0835    0.4078 C   0  0  0  0  0  0  0  0  0  0  0  0
    3.0653   -2.7065   -2.1301 H   0  0  0  0  0  0  0  0  0  0  0  0
    1.6171   -1.7113   -1.8617 H   0  0  0  0  0  0  0  0  0  0  0  0
    3.0490   -1.0002   -2.6193 H   0  0  0  0  0  0  0  0  0  0  0  0
    4.3407   -1.2998   -0.5009 H   0  0  0  0  0  0  0  0  0  0  0  0
    1.9853   -2.3734    0.5714 H   0  0  0  0  0  0  0  0  0  0  0  0
    3.3223   -0.4388    2.0663 H   0  0  0  0  0  0  0  0  0  0  0  0
    4.5297    0.5335    1.2067 H   0  0  0  0  0  0  0  0  0  0  0  0
    3.0478    1.3041    1.8155 H   0  0  0  0  0  0  0  0  0  0  0  0
    4.2689    1.1452   -1.1322 H   0  0  0  0  0  0  0  0  0  0  0  0
   -0.9376   -0.1320    0.5579 H   0  0  0  0  0  0  0  0  0  0  0  0
  1  2  1  0
  2  3  1  0
  2  4  1  0
  4  5  1  0
  4  6  1  0
  6  7  2  0
  4  8  1  0
  8  9  3  0
  1 10  1  0
  1 11  1  0
  1 12  1  0
  2 13  1  0
  3 14  1  0
  5 15  1  0
  5 16  1  0
  5 17  1  0
  6 18  1  0
  9 19  1  0
M  END
$$$$
