gdb 5590	2.7719226	1.164862	0.9087483	3.7886	76.21	-0.23575	-0.01023	0.22552	1298.0157	0.157507	-422.577049	-422.568388	-422.567444	-422.610843	32.093
 OpenBabel02181911423D

 19 20  0  0  1  0  0  0  0  0999 V2000
   -3.6456    1.7511    0.3148 O   0  0  0  0  0  0  0  0  0  0  0  0
   -3.0132    0.7269    1.0643 C   0  0  0  0  0  0  0  0  0  0  0  0
   -2.0204    1.2429    2.0834 C   0  0  1  0  0  0  0  0  0  0  0  0
   -0.7448    0.5022    2.3262 C   0  0  2  0  0  0  0  0  0  0  0  0
   -0.0591    0.7093    3.6782 C   0  0  0  0  0  0  0  0  0  0  0  0
    0.0556    2.2380    3.8532 C   0  0  0  0  0  0  0  0  0  0  0  0
   -0.0400    2.8242    2.4319 C   0  0  0  0  0  0  0  0  0  0  0  0
    0.3956    3.8940    2.0856 O   0  0  0  0  0  0  0  0  0  0  0  0
   -0.7062    1.8136    1.5552 C   0  0  2  0  0  0  0  0  0  0  0  0
   -4.1050    2.3322    0.9294 H   0  0  0  0  0  0  0  0  0  0  0  0
   -3.7536    0.0865    1.5702 H   0  0  0  0  0  0  0  0  0  0  0  0
   -2.4962    0.1027    0.3276 H   0  0  0  0  0  0  0  0  0  0  0  0
   -2.4740    1.7510    2.9335 H   0  0  0  0  0  0  0  0  0  0  0  0
   -0.5915   -0.4380    1.8072 H   0  0  0  0  0  0  0  0  0  0  0  0
   -0.6034    0.2256    4.4957 H   0  0  0  0  0  0  0  0  0  0  0  0
    0.9394    0.2610    3.6453 H   0  0  0  0  0  0  0  0  0  0  0  0
   -0.7630    2.6501    4.4553 H   0  0  0  0  0  0  0  0  0  0  0  0
    0.9847    2.5617    4.3254 H   0  0  0  0  0  0  0  0  0  0  0  0
   -0.5786    1.8902    0.4829 H   0  0  0  0  0  0  0  0  0  0  0  0
  1 10  1  0  0  0  0
  1  2  1  0  0  0  0
  2 11  1  0  0  0  0
  2  3  1  0  0  0  0
  3  4  1  0  0  0  0
  3 13  1  1  0  0  0
  4 14  1  6  0  0  0
  4  5  1  0  0  0  0
  5  6  1  0  0  0  0
  5 15  1  0  0  0  0
  6 18  1  0  0  0  0
  6 17  1  0  0  0  0
  7  6  1  0  0  0  0
  8  7  2  0  0  0  0
  9 19  1  6  0  0  0
  9  3  1  0  0  0  0
  9  4  1  0  0  0  0
  9  7  1  0  0  0  0
 12  2  1  0  0  0  0
 16  5  1  0  0  0  0
M TOR 0 0 1 2 3
M TOR 1 0 1 2 8
M TOR 2 0 1 2 12
M TOR 3 1 2 3 4
M TOR 4 1 2 3 8
M TOR 5 1 2 3 13
M TOR 6 1 2 8 6
M TOR 7 1 2 8 18
M TOR 8 2 1 0 9
M TOR 9 2 3 4 5
M TOR 10 2 3 4 14
M TOR 11 2 3 4 15
M TOR 12 2 3 8 6
M TOR 13 2 3 8 18
M TOR 14 2 8 3 4
M TOR 15 2 8 3 13
M TOR 16 2 8 6 5
M TOR 17 2 8 6 7
M TOR 18 3 2 1 10
M TOR 19 3 2 1 11
M TOR 20 3 4 5 6
M TOR 21 3 4 5 16
M TOR 22 3 4 5 17
M TOR 23 3 8 2 12
M TOR 24 3 8 6 5
M TOR 25 3 8 6 7
M TOR 26 4 3 2 12
M TOR 27 4 3 8 6
M TOR 28 4 3 8 18
M TOR 29 4 5 6 7
M TOR 30 4 5 6 8
M TOR 31 5 4 3 8
M TOR 32 5 4 3 13
M TOR 33 5 6 8 18
M TOR 34 6 5 4 14
M TOR 35 6 5 4 15
M TOR 36 6 8 2 12
M TOR 37 6 8 3 13
M TOR 38 7 6 5 16
M TOR 39 7 6 5 17
M TOR 40 7 6 8 18
M TOR 41 8 2 1 10
M TOR 42 8 2 1 11
M TOR 43 8 3 4 14
M TOR 44 8 3 4 15
M TOR 45 8 6 5 16
M TOR 46 8 6 5 17
M  END
$$$$
