gdb 4198	2.3467236	1.5340331	1.0129162	0.9778	77.15	-0.23925	-0.00154	0.23770999999999998	1188.3939	0.156907	-422.553882	-422.54529	-422.544346	-422.586968	32.676
 OpenBabel02181911413D

 19 20  0  0  1  0  0  0  0  0999 V2000
    1.4071    0.6663   -0.5548 C   0  0  0  0  0  0  0  0  0  0  0  0
    0.0909    0.0680   -0.1452 C   0  0  0  0  0  0  0  0  0  0  0  0
   -0.1021   -1.2365    0.0664 C   0  0  0  0  0  0  0  0  0  0  0  0
   -1.4214   -1.8445    0.4881 C   0  0  1  0  0  0  0  0  0  0  0  0
   -1.2315   -3.0695    1.1884 O   0  0  0  0  0  0  0  0  0  0  0  0
   -2.2766   -0.8609    1.3080 C   0  0  0  0  0  0  0  0  0  0  0  0
   -2.2558    0.5518    0.7395 C   0  0  1  0  0  0  0  0  0  0  0  0
   -1.3427    1.4711    1.3541 O   0  0  0  0  0  0  0  0  0  0  0  0
   -1.0604    1.0055    0.0182 C   0  0  1  0  0  0  0  0  0  0  0  0
    1.7441    1.4050    0.1829 H   0  0  0  0  0  0  0  0  0  0  0  0
    2.1821   -0.0978   -0.6558 H   0  0  0  0  0  0  0  0  0  0  0  0
    1.3225    1.1961   -1.5122 H   0  0  0  0  0  0  0  0  0  0  0  0
    0.7099   -1.9476   -0.0720 H   0  0  0  0  0  0  0  0  0  0  0  0
   -1.9776   -2.1426   -0.4115 H   0  0  0  0  0  0  0  0  0  0  0  0
   -0.7169   -2.8719    1.9795 H   0  0  0  0  0  0  0  0  0  0  0  0
   -3.3003   -1.2389    1.3811 H   0  0  0  0  0  0  0  0  0  0  0  0
   -1.8718   -0.8160    2.3259 H   0  0  0  0  0  0  0  0  0  0  0  0
   -3.2175    0.9961    0.4853 H   0  0  0  0  0  0  0  0  0  0  0  0
   -1.1569    1.7831   -0.7408 H   0  0  0  0  0  0  0  0  0  0  0  0
  1  2  1  0  0  0  0
  1 10  1  0  0  0  0
  2  9  1  0  0  0  0
  2  3  2  0  0  0  0
  3  4  1  0  0  0  0
  4 14  1  6  0  0  0
  4  5  1  0  0  0  0
  4  6  1  0  0  0  0
  5 15  1  0  0  0  0
  6 16  1  0  0  0  0
  6 17  1  0  0  0  0
  7 18  1  6  0  0  0
  7  6  1  0  0  0  0
  7  8  1  0  0  0  0
  9 19  1  6  0  0  0
  9  7  1  0  0  0  0
  9  8  1  0  0  0  0
 11  1  1  0  0  0  0
 12  1  1  0  0  0  0
 13  3  1  0  0  0  0
M TOR 0 0 1 2 3
M TOR 1 0 1 2 12
M TOR 2 0 1 8 6
M TOR 3 0 1 8 7
M TOR 4 0 1 8 18
M TOR 5 1 2 3 4
M TOR 6 1 2 3 5
M TOR 7 1 2 3 13
M TOR 8 1 8 6 5
M TOR 9 1 8 6 7
M TOR 10 1 8 6 17
M TOR 11 2 1 0 9
M TOR 12 2 1 0 10
M TOR 13 2 1 0 11
M TOR 14 2 1 8 6
M TOR 15 2 1 8 7
M TOR 16 2 1 8 18
M TOR 17 2 3 4 14
M TOR 18 2 3 5 6
M TOR 19 2 3 5 15
M TOR 20 2 3 5 16
M TOR 21 3 2 1 8
M TOR 22 3 5 6 7
M TOR 23 3 5 6 8
M TOR 24 3 5 6 17
M TOR 25 4 3 2 12
M TOR 26 4 3 5 6
M TOR 27 4 3 5 15
M TOR 28 4 3 5 16
M TOR 29 5 3 2 12
M TOR 30 5 3 4 14
M TOR 31 5 6 7 8
M TOR 32 5 6 8 18
M TOR 33 6 5 3 13
M TOR 34 6 7 8 18
M TOR 35 7 6 5 15
M TOR 36 7 6 5 16
M TOR 37 7 8 6 17
M TOR 38 8 1 0 9
M TOR 39 8 1 0 10
M TOR 40 8 1 0 11
M TOR 41 8 1 2 12
M TOR 42 8 6 5 15
M TOR 43 8 6 5 16
M  END
$$$$
