
     RDKit          3D

 19 20  0  0  0  0  0  0  0  0999 V2000
   -0.0936    1.6110   -0.1445 C   0  0  0  0  0  0  0  0  0  0  0  0
    0.0369    0.1058    0.0016 C   0  0  0  0  0  0  0  0  0  0  0  0
   -1.2524   -0.4812    0.4380 O   0  0  0  0  0  0  0  0  0  0  0  0
   -0.7250   -0.7216    1.7783 C   0  0  0  0  0  0  0  0  0  0  0  0
    0.6572   -0.4977    1.2247 C   0  0  0  0  0  0  0  0  0  0  0  0
    1.8416   -1.0593    1.0076 C   0  0  0  0  0  0  0  0  0  0  0  0
    2.2410   -0.7821   -0.4392 C   0  0  0  0  0  0  0  0  0  0  0  0
    0.8406   -0.5808   -1.1241 C   0  0  0  0  0  0  0  0  0  0  0  0
    0.8539    0.1765   -2.3151 O   0  0  0  0  0  0  0  0  0  0  0  0
    0.8750    2.0680   -0.3659 H   0  0  0  0  0  0  0  0  0  0  0  0
   -0.7677    1.8411   -0.9741 H   0  0  0  0  0  0  0  0  0  0  0  0
   -0.4947    2.0546    0.7705 H   0  0  0  0  0  0  0  0  0  0  0  0
   -1.0965    0.0274    2.4897 H   0  0  0  0  0  0  0  0  0  0  0  0
   -0.9539   -1.7247    2.1531 H   0  0  0  0  0  0  0  0  0  0  0  0
    2.3862   -1.7281    1.6637 H   0  0  0  0  0  0  0  0  0  0  0  0
    2.8527    0.1204   -0.5684 H   0  0  0  0  0  0  0  0  0  0  0  0
    2.8006   -1.6149   -0.8792 H   0  0  0  0  0  0  0  0  0  0  0  0
    0.3910   -1.5716   -1.2831 H   0  0  0  0  0  0  0  0  0  0  0  0
    1.2860   -0.3417   -3.0003 H   0  0  0  0  0  0  0  0  0  0  0  0
  1  2  1  0
  2  3  1  0
  3  4  1  0
  4  5  1  0
  5  6  2  0
  6  7  1  0
  7  8  1  0
  8  9  1  0
  5  2  1  0
  8  2  1  0
  1 10  1  0
  1 11  1  0
  1 12  1  0
  4 13  1  0
  4 14  1  0
  6 15  1  0
  7 16  1  0
  7 17  1  0
  8 18  1  0
  9 19  1  0
M  END
$$$$
