
     RDKit          3D

 19 20  0  0  0  0  0  0  0  0999 V2000
    2.6287   -0.8372   -1.6387 O   0  0  0  0  0  0  0  0  0  0  0  0
    2.0095    0.2633   -0.9870 C   0  0  0  0  0  0  0  0  0  0  0  0
    1.1193    0.9606   -1.9797 C   0  0  0  0  0  0  0  0  0  0  0  0
   -0.0993    1.7016   -1.4851 C   0  0  0  0  0  0  0  0  0  0  0  0
   -0.6083    2.8421   -2.3417 C   0  0  0  0  0  0  0  0  0  0  0  0
   -0.8692    2.2294   -3.7300 C   0  0  0  0  0  0  0  0  0  0  0  0
   -1.0544    2.8520   -4.7419 O   0  0  0  0  0  0  0  0  0  0  0  0
   -0.8593    0.6954   -3.6120 C   0  0  0  0  0  0  0  0  0  0  0  0
   -0.2513    0.3966   -2.2580 C   0  0  0  0  0  0  0  0  0  0  0  0
    3.2730   -1.2189   -1.0351 H   0  0  0  0  0  0  0  0  0  0  0  0
    1.4057   -0.0707   -0.1264 H   0  0  0  0  0  0  0  0  0  0  0  0
    2.7619    0.9695   -0.6011 H   0  0  0  0  0  0  0  0  0  0  0  0
    1.6558    1.3916   -2.8238 H   0  0  0  0  0  0  0  0  0  0  0  0
   -0.2823    1.7294   -0.4167 H   0  0  0  0  0  0  0  0  0  0  0  0
   -1.5613    3.2330   -1.9619 H   0  0  0  0  0  0  0  0  0  0  0  0
    0.0721    3.6944   -2.4335 H   0  0  0  0  0  0  0  0  0  0  0  0
   -1.8983    0.3459   -3.6723 H   0  0  0  0  0  0  0  0  0  0  0  0
   -0.3260    0.2596   -4.4624 H   0  0  0  0  0  0  0  0  0  0  0  0
   -0.5340   -0.5153   -1.7449 H   0  0  0  0  0  0  0  0  0  0  0  0
  1  2  1  0
  2  3  1  0
  3  4  1  0
  4  5  1  0
  5  6  1  0
  6  7  2  0
  6  8  1  0
  8  9  1  0
  9  3  1  0
  9  4  1  0
  1 10  1  0
  2 11  1  0
  2 12  1  0
  3 13  1  0
  4 14  1  0
  5 15  1  0
  5 16  1  0
  8 17  1  0
  8 18  1  0
  9 19  1  0
M  END
$$$$
