
     RDKit          3D

 19 20  0  0  0  0  0  0  0  0999 V2000
   -2.4996   -1.4817   -2.0650 C   0  0  0  0  0  0  0  0  0  0  0  0
   -2.0340   -0.7700   -0.7980 C   0  0  0  0  0  0  0  0  0  0  0  0
   -0.6348   -1.1886   -0.3015 C   0  0  0  0  0  0  0  0  0  0  0  0
   -0.1222   -0.0076    0.5274 C   0  0  0  0  0  0  0  0  0  0  0  0
    0.8004   -0.0285    1.2985 O   0  0  0  0  0  0  0  0  0  0  0  0
   -0.9986    1.2136    0.2135 C   0  0  0  0  0  0  0  0  0  0  0  0
   -1.8994    0.7549   -0.9183 C   0  0  0  0  0  0  0  0  0  0  0  0
   -2.8458    1.6272   -1.6132 C   0  0  0  0  0  0  0  0  0  0  0  0
   -1.5949    1.2783   -2.2199 O   0  0  0  0  0  0  0  0  0  0  0  0
   -2.4921   -2.5662   -1.9205 H   0  0  0  0  0  0  0  0  0  0  0  0
   -3.5197   -1.1939   -2.3379 H   0  0  0  0  0  0  0  0  0  0  0  0
   -1.8450   -1.2373   -2.9055 H   0  0  0  0  0  0  0  0  0  0  0  0
   -2.7530   -0.9635    0.0110 H   0  0  0  0  0  0  0  0  0  0  0  0
   -0.6058   -2.1178    0.2716 H   0  0  0  0  0  0  0  0  0  0  0  0
    0.0492   -1.3095   -1.1535 H   0  0  0  0  0  0  0  0  0  0  0  0
   -1.5740    1.4604    1.1148 H   0  0  0  0  0  0  0  0  0  0  0  0
   -0.3969    2.0873   -0.0469 H   0  0  0  0  0  0  0  0  0  0  0  0
   -3.7288    1.2074   -2.0928 H   0  0  0  0  0  0  0  0  0  0  0  0
   -2.9408    2.6689   -1.3080 H   0  0  0  0  0  0  0  0  0  0  0  0
  1  2  1  0
  2  3  1  0
  3  4  1  0
  4  5  2  0
  4  6  1  0
  6  7  1  0
  7  8  1  0
  8  9  1  0
  7  2  1  0
  9  7  1  0
  1 10  1  0
  1 11  1  0
  1 12  1  0
  2 13  1  0
  3 14  1  0
  3 15  1  0
  6 16  1  0
  6 17  1  0
  8 18  1  0
  8 19  1  0
M  END
$$$$
