gdb 4023	3.2960572	1.5727383	1.3230551	1.4494	73.86	-0.21478	0.0723	0.28708	1015.8627	0.158328	-422.516196	-422.508847	-422.507903	-422.54764	29.577
 OpenBabel02181911413D

 19 21  0  0  1  0  0  0  0  0999 V2000
    3.6471   -0.5187   -1.6234 C   0  0  0  0  0  0  0  0  0  0  0  0
    2.2477   -0.1517   -1.1548 C   0  0  1  0  0  0  0  0  0  0  0  0
    1.5110   -1.3277   -0.4906 C   0  0  0  0  0  0  0  0  0  0  0  0
    0.2473   -0.8212    0.1953 C   0  0  2  0  0  0  0  0  0  0  0  0
   -0.4491    0.1526   -0.6494 O   0  0  0  0  0  0  0  0  0  0  0  0
   -0.1344    1.1919    0.2755 C   0  0  2  0  0  0  0  0  0  0  0  0
    1.3424    1.2814    0.5758 C   0  0  2  0  0  0  0  0  0  0  0  0
    2.4026    0.9725   -0.2750 O   0  0  0  0  0  0  0  0  0  0  0  0
    0.5189    0.2389    1.2718 C   0  0  2  0  0  0  0  0  0  0  0  0
    4.2640   -0.8442   -0.7798 H   0  0  0  0  0  0  0  0  0  0  0  0
    3.6044   -1.3279   -2.3591 H   0  0  0  0  0  0  0  0  0  0  0  0
    4.1297    0.3461   -2.0869 H   0  0  0  0  0  0  0  0  0  0  0  0
    1.6442    0.1684   -2.0134 H   0  0  0  0  0  0  0  0  0  0  0  0
    1.2700   -2.0655   -1.2639 H   0  0  0  0  0  0  0  0  0  0  0  0
    2.1478   -1.8220    0.2539 H   0  0  0  0  0  0  0  0  0  0  0  0
   -0.4398   -1.6181    0.4916 H   0  0  0  0  0  0  0  0  0  0  0  0
   -0.8508    1.9995    0.3823 H   0  0  0  0  0  0  0  0  0  0  0  0
    1.6106    2.1385    1.1874 H   0  0  0  0  0  0  0  0  0  0  0  0
    0.4265    0.1055    2.3419 H   0  0  0  0  0  0  0  0  0  0  0  0
  1  2  1  0  0  0  0
  1 10  1  0  0  0  0
  2 13  1  6  0  0  0
  2  3  1  0  0  0  0
  2  8  1  0  0  0  0
  3  4  1  0  0  0  0
  3 15  1  0  0  0  0
  4 16  1  1  0  0  0
  4  9  1  0  0  0  0
  5  4  1  0  0  0  0
  5  6  1  0  0  0  0
  6 17  1  1  0  0  0
  6  7  1  0  0  0  0
  6  9  1  0  0  0  0
  7 18  1  1  0  0  0
  7  9  1  0  0  0  0
  8  7  1  0  0  0  0
  9 19  1  1  0  0  0
 11  1  1  0  0  0  0
 12  1  1  0  0  0  0
 14  3  1  0  0  0  0
M TOR 0 0 1 2 3
M TOR 1 0 1 2 13
M TOR 2 0 1 2 14
M TOR 3 0 1 7 6
M TOR 4 1 2 3 4
M TOR 5 1 2 3 8
M TOR 6 1 2 3 15
M TOR 7 1 7 6 5
M TOR 8 1 7 6 8
M TOR 9 1 7 6 17
M TOR 10 2 1 0 9
M TOR 11 2 1 0 10
M TOR 12 2 1 0 11
M TOR 13 2 1 7 6
M TOR 14 2 3 4 5
M TOR 15 2 3 8 5
M TOR 16 2 3 8 6
M TOR 17 2 3 8 18
M TOR 18 3 2 1 7
M TOR 19 3 2 1 12
M TOR 20 3 4 5 6
M TOR 21 3 4 5 8
M TOR 22 3 4 5 16
M TOR 23 3 8 5 6
M TOR 24 3 8 5 16
M TOR 25 3 8 6 7
M TOR 26 3 8 6 17
M TOR 27 4 3 2 13
M TOR 28 4 3 2 14
M TOR 29 4 3 8 6
M TOR 30 4 3 8 18
M TOR 31 4 5 6 7
M TOR 32 4 5 6 8
M TOR 33 4 5 6 17
M TOR 34 4 5 8 18
M TOR 35 5 4 3 15
M TOR 36 5 6 8 18
M TOR 37 5 8 3 15
M TOR 38 5 8 6 7
M TOR 39 5 8 6 17
M TOR 40 6 7 1 12
M TOR 41 6 8 3 15
M TOR 42 6 8 5 16
M TOR 43 7 1 0 9
M TOR 44 7 1 0 10
M TOR 45 7 1 0 11
M TOR 46 7 1 2 13
M TOR 47 7 1 2 14
M TOR 48 7 6 5 16
M TOR 49 7 6 8 18
M TOR 50 8 3 2 13
M TOR 51 8 3 2 14
M  END
$$$$
