gdb 5530	3.3590408	1.2864597	1.1956669	0.386	73.11	-0.2511	0.05968	0.31078	1091.9769	0.158681	-422.507831	-422.500299	-422.499355	-422.539904	29.896
 OpenBabel02181911423D

 19 21  0  0  1  0  0  0  0  0999 V2000
    1.4926    0.5936   -0.2553 O   0  0  0  0  0  0  0  0  0  0  0  0
    0.1449    0.2283    0.0184 C   0  0  0  0  0  0  0  0  0  0  0  0
   -0.7252    0.3024   -1.2277 C   0  0  2  0  0  0  0  0  0  0  0  0
   -2.2422   -0.1299   -1.2231 C   0  0  1  0  0  0  0  0  0  0  0  0
   -2.0735   -0.2835   -2.7612 C   0  0  0  0  0  0  0  0  0  0  0  0
   -0.6610   -0.7974   -2.3667 C   0  0  2  0  0  0  0  0  0  0  0  0
   -0.9961   -2.0661   -1.5512 C   0  0  2  0  0  0  0  0  0  0  0  0
   -2.3170   -2.5997   -1.7437 O   0  0  0  0  0  0  0  0  0  0  0  0
   -2.1170   -1.5924   -0.7381 C   0  0  2  0  0  0  0  0  0  0  0  0
    1.8464   -0.0432   -0.8843 H   0  0  0  0  0  0  0  0  0  0  0  0
    0.0915   -0.7610    0.4938 H   0  0  0  0  0  0  0  0  0  0  0  0
   -0.2121    0.9582    0.7540 H   0  0  0  0  0  0  0  0  0  0  0  0
   -0.6091    1.3005   -1.6626 H   0  0  0  0  0  0  0  0  0  0  0  0
   -3.0192    0.4922   -0.7795 H   0  0  0  0  0  0  0  0  0  0  0  0
   -2.7378   -0.9688   -3.2818 H   0  0  0  0  0  0  0  0  0  0  0  0
   -2.0279    0.6840   -3.2622 H   0  0  0  0  0  0  0  0  0  0  0  0
    0.1577   -0.8484   -3.0848 H   0  0  0  0  0  0  0  0  0  0  0  0
   -0.2414   -2.7751   -1.2285 H   0  0  0  0  0  0  0  0  0  0  0  0
   -2.3254   -1.8914    0.2832 H   0  0  0  0  0  0  0  0  0  0  0  0
  1  2  1  0  0  0  0
  2 11  1  0  0  0  0
  2 12  1  0  0  0  0
  3 13  1  6  0  0  0
  3  4  1  0  0  0  0
  3  2  1  0  0  0  0
  4 14  1  1  0  0  0
  4  9  1  0  0  0  0
  5  6  1  0  0  0  0
  5  4  1  0  0  0  0
  6 17  1  6  0  0  0
  6  7  1  0  0  0  0
  6  3  1  0  0  0  0
  7 18  1  1  0  0  0
  7  9  1  0  0  0  0
  8  7  1  0  0  0  0
  8  9  1  0  0  0  0
  9 19  1  1  0  0  0
 10  1  1  0  0  0  0
 15  5  1  0  0  0  0
 16  5  1  0  0  0  0
M TOR 0 0 1 2 3
M TOR 1 0 1 2 5
M TOR 2 0 1 2 12
M TOR 3 1 2 3 4
M TOR 4 1 2 3 8
M TOR 5 1 2 3 13
M TOR 6 1 2 5 4
M TOR 7 1 2 5 6
M TOR 8 1 2 5 16
M TOR 9 2 1 0 9
M TOR 10 2 3 4 5
M TOR 11 2 3 4 14
M TOR 12 2 3 4 15
M TOR 13 2 3 8 6
M TOR 14 2 3 8 7
M TOR 15 2 3 8 18
M TOR 16 2 5 4 14
M TOR 17 2 5 4 15
M TOR 18 2 5 6 7
M TOR 19 2 5 6 8
M TOR 20 2 5 6 17
M TOR 21 3 2 1 10
M TOR 22 3 2 1 11
M TOR 23 3 2 5 6
M TOR 24 3 2 5 16
M TOR 25 3 4 5 6
M TOR 26 3 4 5 16
M TOR 27 3 8 6 5
M TOR 28 3 8 6 7
M TOR 29 3 8 6 17
M TOR 30 4 3 2 12
M TOR 31 4 3 8 6
M TOR 32 4 3 8 7
M TOR 33 4 3 8 18
M TOR 34 4 5 2 12
M TOR 35 4 5 6 7
M TOR 36 4 5 6 8
M TOR 37 4 5 6 17
M TOR 38 5 2 1 10
M TOR 39 5 2 1 11
M TOR 40 5 2 3 8
M TOR 41 5 2 3 13
M TOR 42 5 4 3 8
M TOR 43 5 4 3 13
M TOR 44 5 6 7 8
M TOR 45 5 6 8 18
M TOR 46 6 5 2 12
M TOR 47 6 5 4 14
M TOR 48 6 5 4 15
M TOR 49 6 7 8 18
M TOR 50 6 8 3 13
M TOR 51 7 6 5 16
M TOR 52 7 8 3 13
M TOR 53 7 8 6 17
M TOR 54 8 3 2 12
M TOR 55 8 3 4 14
M TOR 56 8 3 4 15
M TOR 57 8 6 5 16
M  END
$$$$
