gdb 3125	2.6209476	1.4022033	1.1991645	1.8594	75.34	-0.23661	-0.02763	0.20898	1119.2794	0.156255	-422.581275	-422.572546	-422.571602	-422.614607	33.245
 OpenBabel02181911413D

 19 20  0  0  1  0  0  0  0  0999 V2000
   -3.3012    1.5730   -0.4399 C   0  0  0  0  0  0  0  0  0  0  0  0
   -2.2239    0.7279    0.1948 C   0  0  1  0  0  0  0  0  0  0  0  0
   -2.5174   -0.0513    1.4545 C   0  0  0  0  0  0  0  0  0  0  0  0
   -2.2684   -0.7947    0.1629 C   0  0  2  0  0  0  0  0  0  0  0  0
   -0.8820   -1.3488   -0.0276 C   0  0  1  0  0  0  0  0  0  0  0  0
   -0.7458   -1.8021   -1.3723 O   0  0  0  0  0  0  0  0  0  0  0  0
    0.0525   -0.1257    0.1545 C   0  0  0  0  0  0  0  0  0  0  0  0
    1.2466   -0.2040    0.2884 O   0  0  0  0  0  0  0  0  0  0  0  0
   -0.7736    1.1574    0.0374 C   0  0  0  0  0  0  0  0  0  0  0  0
   -3.3486    2.5689    0.0160 H   0  0  0  0  0  0  0  0  0  0  0  0
   -3.1190    1.7055   -1.5125 H   0  0  0  0  0  0  0  0  0  0  0  0
   -4.2857    1.1087   -0.3233 H   0  0  0  0  0  0  0  0  0  0  0  0
   -1.7653   -0.0958    2.2388 H   0  0  0  0  0  0  0  0  0  0  0  0
   -3.5358   -0.0387    1.8274 H   0  0  0  0  0  0  0  0  0  0  0  0
   -3.0887   -1.3193   -0.3135 H   0  0  0  0  0  0  0  0  0  0  0  0
   -0.6200   -2.1426    0.6865 H   0  0  0  0  0  0  0  0  0  0  0  0
    0.1750   -2.0634   -1.4907 H   0  0  0  0  0  0  0  0  0  0  0  0
   -0.4311    1.9018    0.7635 H   0  0  0  0  0  0  0  0  0  0  0  0
   -0.5968    1.5787   -0.9615 H   0  0  0  0  0  0  0  0  0  0  0  0
  1 12  1  0  0  0  0
  1 10  1  0  0  0  0
  2  1  1  6  0  0  0
  2  3  1  0  0  0  0
  3 14  1  0  0  0  0
  3 13  1  0  0  0  0
  4 15  1  6  0  0  0
  4  2  1  0  0  0  0
  4  3  1  0  0  0  0
  5  7  1  0  0  0  0
  5  4  1  0  0  0  0
  5 16  1  1  0  0  0
  6  5  1  0  0  0  0
  7  8  2  0  0  0  0
  9  7  1  0  0  0  0
  9  2  1  0  0  0  0
  9 18  1  0  0  0  0
 11  1  1  0  0  0  0
 17  6  1  0  0  0  0
 19  9  1  0  0  0  0
M TOR 0 0 1 2 3
M TOR 1 0 1 2 12
M TOR 2 0 1 2 13
M TOR 3 0 1 3 4
M TOR 4 0 1 3 14
M TOR 5 0 1 8 6
M TOR 6 0 1 8 17
M TOR 7 0 1 8 18
M TOR 8 1 2 3 4
M TOR 9 1 2 3 14
M TOR 10 1 3 2 12
M TOR 11 1 3 2 13
M TOR 12 1 3 4 5
M TOR 13 1 3 4 6
M TOR 14 1 3 4 15
M TOR 15 1 8 6 4
M TOR 16 1 8 6 7
M TOR 17 2 1 0 9
M TOR 18 2 1 0 10
M TOR 19 2 1 0 11
M TOR 20 2 1 8 6
M TOR 21 2 1 8 17
M TOR 22 2 1 8 18
M TOR 23 2 3 1 8
M TOR 24 2 3 4 5
M TOR 25 2 3 4 6
M TOR 26 2 3 4 15
M TOR 27 3 1 0 9
M TOR 28 3 1 0 10
M TOR 29 3 1 0 11
M TOR 30 3 1 8 6
M TOR 31 3 1 8 17
M TOR 32 3 1 8 18
M TOR 33 3 4 5 16
M TOR 34 3 4 6 7
M TOR 35 3 4 6 8
M TOR 36 4 3 1 8
M TOR 37 4 3 2 12
M TOR 38 4 3 2 13
M TOR 39 4 6 8 17
M TOR 40 4 6 8 18
M TOR 41 5 4 3 14
M TOR 42 5 4 6 7
M TOR 43 5 4 6 8
M TOR 44 6 4 3 14
M TOR 45 6 4 5 16
M TOR 46 7 6 4 15
M TOR 47 7 6 8 17
M TOR 48 7 6 8 18
M TOR 49 8 1 0 9
M TOR 50 8 1 0 10
M TOR 51 8 1 0 11
M TOR 52 8 1 2 12
M TOR 53 8 1 2 13
M TOR 54 8 1 3 14
M TOR 55 8 6 4 15
M  END
$$$$
