
     RDKit          3D

 19 21  0  0  0  0  0  0  0  0999 V2000
    1.3777    0.8229    0.1219 O   0  0  0  0  0  0  0  0  0  0  0  0
    0.3283    0.0323   -0.4265 C   0  0  0  0  0  0  0  0  0  0  0  0
    0.0149    0.3790   -1.8479 C   0  0  0  0  0  0  0  0  0  0  0  0
   -1.2622    0.3550   -2.6843 C   0  0  0  0  0  0  0  0  0  0  0  0
   -0.5411   -0.3402   -3.8412 C   0  0  0  0  0  0  0  0  0  0  0  0
    0.8076    0.0251   -3.1390 C   0  0  0  0  0  0  0  0  0  0  0  0
    1.3643    1.2339   -3.6318 O   0  0  0  0  0  0  0  0  0  0  0  0
    0.3894    2.2588   -3.3844 C   0  0  0  0  0  0  0  0  0  0  0  0
   -0.5644    1.6668   -2.3530 C   0  0  0  0  0  0  0  0  0  0  0  0
    2.1284    0.7693   -0.4786 H   0  0  0  0  0  0  0  0  0  0  0  0
    0.5608   -1.0418   -0.3398 H   0  0  0  0  0  0  0  0  0  0  0  0
   -0.5468    0.2212    0.2051 H   0  0  0  0  0  0  0  0  0  0  0  0
   -2.2755    0.1627   -2.3499 H   0  0  0  0  0  0  0  0  0  0  0  0
   -0.7195   -1.4191   -3.8366 H   0  0  0  0  0  0  0  0  0  0  0  0
   -0.6768    0.0442   -4.8573 H   0  0  0  0  0  0  0  0  0  0  0  0
    1.5908   -0.7329   -3.1127 H   0  0  0  0  0  0  0  0  0  0  0  0
    0.9060    3.1453   -3.0001 H   0  0  0  0  0  0  0  0  0  0  0  0
   -0.1142    2.5346   -4.3209 H   0  0  0  0  0  0  0  0  0  0  0  0
   -1.0614    2.3246   -1.6497 H   0  0  0  0  0  0  0  0  0  0  0  0
  1  2  1  0
  2  3  1  0
  3  4  1  0
  4  5  1  0
  5  6  1  0
  6  7  1  0
  7  8  1  0
  8  9  1  0
  6  3  1  0
  9  3  1  0
  9  4  1  0
  1 10  1  0
  2 11  1  0
  2 12  1  0
  4 13  1  0
  5 14  1  0
  5 15  1  0
  6 16  1  0
  8 17  1  0
  8 18  1  0
  9 19  1  0
M  END
$$$$
