gdb 352	3.0033409	1.6667048	1.2602104	0.2647	75.96	-0.23163	0.0098	0.24143	1022.0282	0.159848	-422.561471	-422.554266	-422.553322	-422.59292	28.775
 OpenBabel02181911403D

 19 20  0  0  1  0  0  0  0  0999 V2000
   -1.5610    2.0053    0.9750 C   0  0  0  0  0  0  0  0  0  0  0  0
   -0.0595    1.8632    0.9958 C   0  0  0  0  0  0  0  0  0  0  0  0
    0.3557    0.7777    0.3407 C   0  0  0  0  0  0  0  0  0  0  0  0
   -0.8044    0.0250   -0.2567 C   0  0  2  0  0  0  0  0  0  0  0  0
   -0.8986    0.3675   -1.6438 O   0  0  0  0  0  0  0  0  0  0  0  0
   -2.1654    0.0239   -2.1807 C   0  0  0  0  0  0  0  0  0  0  0  0
   -3.2564    0.7883   -1.4487 C   0  0  0  0  0  0  0  0  0  0  0  0
   -3.2602    0.4548   -0.0687 O   0  0  0  0  0  0  0  0  0  0  0  0
   -2.0001    0.5764    0.5627 C   0  0  2  0  0  0  0  0  0  0  0  0
   -1.9889    2.3074    1.9361 H   0  0  0  0  0  0  0  0  0  0  0  0
   -1.8760    2.7542    0.2369 H   0  0  0  0  0  0  0  0  0  0  0  0
    0.5906    2.5814    1.4840 H   0  0  0  0  0  0  0  0  0  0  0  0
    1.3858    0.4793    0.1888 H   0  0  0  0  0  0  0  0  0  0  0  0
   -0.7281   -1.0699   -0.1696 H   0  0  0  0  0  0  0  0  0  0  0  0
   -2.1425    0.2904   -3.2419 H   0  0  0  0  0  0  0  0  0  0  0  0
   -2.3474   -1.0603   -2.0921 H   0  0  0  0  0  0  0  0  0  0  0  0
   -3.1000    1.8687   -1.5949 H   0  0  0  0  0  0  0  0  0  0  0  0
   -4.2494    0.5284   -1.8284 H   0  0  0  0  0  0  0  0  0  0  0  0
   -2.0810   -0.0256    1.4736 H   0  0  0  0  0  0  0  0  0  0  0  0
  1  2  1  0  0  0  0
  1 10  1  0  0  0  0
  2 12  1  0  0  0  0
  3  2  2  0  0  0  0
  4 14  1  1  0  0  0
  4  3  1  0  0  0  0
  4  9  1  0  0  0  0
  5  4  1  0  0  0  0
  6 16  1  0  0  0  0
  6  5  1  0  0  0  0
  6  7  1  0  0  0  0
  7  8  1  0  0  0  0
  8  9  1  0  0  0  0
  9  1  1  0  0  0  0
  9 19  1  1  0  0  0
 11  1  1  0  0  0  0
 13  3  1  0  0  0  0
 15  6  1  0  0  0  0
 17  7  1  0  0  0  0
 18  7  1  0  0  0  0
M TOR 0 0 1 2 3
M TOR 1 0 1 2 12
M TOR 2 0 8 3 2
M TOR 3 0 8 3 4
M TOR 4 0 8 3 13
M TOR 5 0 8 7 6
M TOR 6 1 0 8 3
M TOR 7 1 0 8 7
M TOR 8 1 0 8 18
M TOR 9 1 2 3 4
M TOR 10 1 2 3 8
M TOR 11 1 2 3 13
M TOR 12 2 1 0 8
M TOR 13 2 1 0 9
M TOR 14 2 1 0 10
M TOR 15 2 3 4 5
M TOR 16 2 3 8 7
M TOR 17 2 3 8 18
M TOR 18 3 2 1 11
M TOR 19 3 4 5 6
M TOR 20 3 4 5 14
M TOR 21 3 4 5 15
M TOR 22 3 8 0 9
M TOR 23 3 8 0 10
M TOR 24 3 8 7 6
M TOR 25 4 3 2 12
M TOR 26 4 3 8 7
M TOR 27 4 3 8 18
M TOR 28 4 5 6 7
M TOR 29 4 5 6 16
M TOR 30 4 5 6 17
M TOR 31 5 4 3 8
M TOR 32 5 4 3 13
M TOR 33 5 6 7 8
M TOR 34 6 7 8 18
M TOR 35 7 6 5 14
M TOR 36 7 6 5 15
M TOR 37 7 8 0 9
M TOR 38 7 8 0 10
M TOR 39 7 8 3 13
M TOR 40 8 0 1 11
M TOR 41 8 3 2 12
M TOR 42 8 7 6 16
M TOR 43 8 7 6 17
M  END
$$$$
