
     RDKit          3D

 19 19  0  0  0  0  0  0  0  0999 V2000
   -2.4035   -2.3796   -0.6186 C   0  0  0  0  0  0  0  0  0  0  0  0
   -1.8443   -1.3061    0.3119 C   0  0  0  0  0  0  0  0  0  0  0  0
   -2.3748    0.1361    0.1332 C   0  0  0  0  0  0  0  0  0  0  0  0
   -3.3594    0.5395    1.0757 O   0  0  0  0  0  0  0  0  0  0  0  0
   -1.1491    0.9975    0.3037 C   0  0  0  0  0  0  0  0  0  0  0  0
   -0.0031    0.3042    0.3236 C   0  0  0  0  0  0  0  0  0  0  0  0
    1.4062    0.7893    0.4097 C   0  0  0  0  0  0  0  0  0  0  0  0
   -0.3201   -1.1461    0.2042 C   0  0  0  0  0  0  0  0  0  0  0  0
    0.4784   -2.0402    0.0368 O   0  0  0  0  0  0  0  0  0  0  0  0
   -1.8627   -3.3180   -0.4716 H   0  0  0  0  0  0  0  0  0  0  0  0
   -3.4673   -2.5602   -0.4334 H   0  0  0  0  0  0  0  0  0  0  0  0
   -2.2869   -2.0913   -1.6690 H   0  0  0  0  0  0  0  0  0  0  0  0
   -2.0477   -1.5751    1.3571 H   0  0  0  0  0  0  0  0  0  0  0  0
   -2.7659    0.2636   -0.8908 H   0  0  0  0  0  0  0  0  0  0  0  0
   -4.1777    0.0779    0.8673 H   0  0  0  0  0  0  0  0  0  0  0  0
   -1.2407    2.0765    0.3750 H   0  0  0  0  0  0  0  0  0  0  0  0
    1.8888    0.4138    1.3189 H   0  0  0  0  0  0  0  0  0  0  0  0
    1.9923    0.4014   -0.4303 H   0  0  0  0  0  0  0  0  0  0  0  0
    1.4624    1.8803    0.4096 H   0  0  0  0  0  0  0  0  0  0  0  0
  1  2  1  0
  2  3  1  0
  3  4  1  0
  3  5  1  0
  5  6  2  0
  6  7  1  0
  6  8  1  0
  8  9  2  0
  8  2  1  0
  1 10  1  0
  1 11  1  0
  1 12  1  0
  2 13  1  0
  3 14  1  0
  4 15  1  0
  5 16  1  0
  7 17  1  0
  7 18  1  0
  7 19  1  0
M  END
$$$$
