gdb 51	3.0597258	1.0012734	0.7945048	1.2111	79.32	-0.19819	0.02489	0.22308	1464.7748	0.156349	-422.583243	-422.573902	-422.572958	-422.618144	33.836
 OpenBabel02181911403D

 19 19  0  0  0  0  0  0  0  0999 V2000
    1.5462   -0.9571    0.9549 C   0  0  0  0  0  0  0  0  0  0  0  0
    1.1116   -0.0964   -0.2329 C   0  0  0  0  0  0  0  0  0  0  0  0
    1.5090    1.3848   -0.0732 C   0  0  0  0  0  0  0  0  0  0  0  0
    1.1272    2.2458   -1.2244 C   0  0  0  0  0  0  0  0  0  0  0  0
    0.2491    3.2799   -1.3843 C   0  0  0  0  0  0  0  0  0  0  0  0
   -0.5743    3.8692   -0.4737 O   0  0  0  0  0  0  0  0  0  0  0  0
    0.3205    3.6969   -2.7523 C   0  0  0  0  0  0  0  0  0  0  0  0
    1.2392    2.8824   -3.3304 C   0  0  0  0  0  0  0  0  0  0  0  0
    1.7396    2.0004   -2.4315 O   0  0  0  0  0  0  0  0  0  0  0  0
    1.2588   -2.0034    0.8135 H   0  0  0  0  0  0  0  0  0  0  0  0
    2.6331   -0.9257    1.0905 H   0  0  0  0  0  0  0  0  0  0  0  0
    1.0877   -0.6100    1.8881 H   0  0  0  0  0  0  0  0  0  0  0  0
    1.5597   -0.4783   -1.1569 H   0  0  0  0  0  0  0  0  0  0  0  0
    0.0255   -0.1610   -0.3691 H   0  0  0  0  0  0  0  0  0  0  0  0
    1.0428    1.7905    0.8356 H   0  0  0  0  0  0  0  0  0  0  0  0
    2.5932    1.4471    0.0976 H   0  0  0  0  0  0  0  0  0  0  0  0
   -0.4534    3.4431    0.3809 H   0  0  0  0  0  0  0  0  0  0  0  0
   -0.2401    4.4928   -3.2152 H   0  0  0  0  0  0  0  0  0  0  0  0
    1.6326    2.8078   -4.3308 H   0  0  0  0  0  0  0  0  0  0  0  0
  1 11  1  0  0  0  0
  1 12  1  0  0  0  0
  2  3  1  0  0  0  0
  2  1  1  0  0  0  0
  3 16  1  0  0  0  0
  3 15  1  0  0  0  0
  4  3  1  0  0  0  0
  5  4  2  0  0  0  0
  5  6  1  0  0  0  0
  6 17  1  0  0  0  0
  7  5  1  0  0  0  0
  8  7  2  0  0  0  0
  8  9  1  0  0  0  0
  9  4  1  0  0  0  0
 10  1  1  0  0  0  0
 13  2  1  0  0  0  0
 14  2  1  0  0  0  0
 18  7  1  0  0  0  0
 19  8  1  0  0  0  0
M TOR 0 0 1 2 3
M TOR 1 0 1 2 14
M TOR 2 0 1 2 15
M TOR 3 1 2 3 4
M TOR 4 1 2 3 8
M TOR 5 2 1 0 9
M TOR 6 2 1 0 10
M TOR 7 2 1 0 11
M TOR 8 2 3 4 5
M TOR 9 2 3 4 6
M TOR 10 2 3 8 7
M TOR 11 3 2 1 12
M TOR 12 3 2 1 13
M TOR 13 3 4 5 16
M TOR 14 3 4 6 7
M TOR 15 3 4 6 17
M TOR 16 3 8 7 6
M TOR 17 3 8 7 18
M TOR 18 4 3 2 14
M TOR 19 4 3 2 15
M TOR 20 4 3 8 7
M TOR 21 4 6 7 8
M TOR 22 4 6 7 18
M TOR 23 5 4 3 8
M TOR 24 5 4 6 7
M TOR 25 5 4 6 17
M TOR 26 6 4 3 8
M TOR 27 6 4 5 16
M TOR 28 8 3 2 14
M TOR 29 8 3 2 15
M TOR 30 8 7 6 17
M  END
$$$$
