gdb 4553	3.0486894	1.2539149	0.9740466	3.8355	79.32	-0.23591	-0.05289	0.18302000000000002	1232.0542	0.15721	-422.571329	-422.56273	-422.561786	-422.604578	32.266
 OpenBabel02181911413D

 19 19  0  0  1  0  0  0  0  0999 V2000
   -4.0753    1.3746    1.5777 C   0  0  0  0  0  0  0  0  0  0  0  0
   -2.8555    0.6743    0.9653 C   0  0  2  0  0  0  0  0  0  0  0  0
   -2.4793   -0.5603    1.8223 C   0  0  0  0  0  0  0  0  0  0  0  0
   -1.2130   -1.1200    1.5564 O   0  0  0  0  0  0  0  0  0  0  0  0
   -0.8630   -1.2553    0.1957 C   0  0  0  0  0  0  0  0  0  0  0  0
   -0.1412   -0.0127   -0.3452 C   0  0  0  0  0  0  0  0  0  0  0  0
    0.7453   -0.1291   -1.1668 O   0  0  0  0  0  0  0  0  0  0  0  0
   -0.5227    1.3142    0.1953 C   0  0  0  0  0  0  0  0  0  0  0  0
   -1.6960    1.6200    0.7637 C   0  0  0  0  0  0  0  0  0  0  0  0
   -3.8318    1.7979    2.5585 H   0  0  0  0  0  0  0  0  0  0  0  0
   -4.4239    2.1892    0.9362 H   0  0  0  0  0  0  0  0  0  0  0  0
   -4.9061    0.6747    1.7110 H   0  0  0  0  0  0  0  0  0  0  0  0
   -3.1520    0.3021   -0.0246 H   0  0  0  0  0  0  0  0  0  0  0  0
   -2.4547   -0.2805    2.8809 H   0  0  0  0  0  0  0  0  0  0  0  0
   -3.2716   -1.3160    1.6922 H   0  0  0  0  0  0  0  0  0  0  0  0
   -0.1634   -2.0911    0.1133 H   0  0  0  0  0  0  0  0  0  0  0  0
   -1.7318   -1.4906   -0.4398 H   0  0  0  0  0  0  0  0  0  0  0  0
    0.2220    2.0870    0.0269 H   0  0  0  0  0  0  0  0  0  0  0  0
   -1.8589    2.6503    1.0754 H   0  0  0  0  0  0  0  0  0  0  0  0
  1 12  1  0  0  0  0
  1 10  1  0  0  0  0
  2 13  1  6  0  0  0
  2  1  1  0  0  0  0
  2  3  1  0  0  0  0
  3 14  1  0  0  0  0
  4  3  1  0  0  0  0
  5  4  1  0  0  0  0
  6  8  1  0  0  0  0
  6  5  1  0  0  0  0
  7  6  2  0  0  0  0
  8  9  2  0  0  0  0
  9  2  1  0  0  0  0
  9 19  1  0  0  0  0
 11  1  1  0  0  0  0
 15  3  1  0  0  0  0
 16  5  1  0  0  0  0
 17  5  1  0  0  0  0
 18  8  1  0  0  0  0
M TOR 0 0 1 2 3
M TOR 1 0 1 2 13
M TOR 2 0 1 2 14
M TOR 3 0 1 8 7
M TOR 4 0 1 8 18
M TOR 5 1 2 3 4
M TOR 6 1 8 7 5
M TOR 7 1 8 7 17
M TOR 8 2 1 0 9
M TOR 9 2 1 0 10
M TOR 10 2 1 0 11
M TOR 11 2 1 8 7
M TOR 12 2 1 8 18
M TOR 13 2 3 4 5
M TOR 14 2 3 4 15
M TOR 15 2 3 4 16
M TOR 16 3 2 1 8
M TOR 17 3 2 1 12
M TOR 18 3 4 5 6
M TOR 19 3 4 5 7
M TOR 20 4 3 2 13
M TOR 21 4 3 2 14
M TOR 22 4 5 7 8
M TOR 23 4 5 7 17
M TOR 24 5 7 8 18
M TOR 25 6 5 4 15
M TOR 26 6 5 4 16
M TOR 27 6 5 7 8
M TOR 28 6 5 7 17
M TOR 29 7 5 4 15
M TOR 30 7 5 4 16
M TOR 31 7 8 1 12
M TOR 32 8 1 0 9
M TOR 33 8 1 0 10
M TOR 34 8 1 0 11
M TOR 35 8 1 2 13
M TOR 36 8 1 2 14
M  END
$$$$
