gdb 3646	3.1326316	1.163283	0.8952072	2.7485	78.08	-0.25281	-0.02777	0.22504	1298.4098	0.155643	-422.575278	-422.566342	-422.565398	-422.609321	32.658
 OpenBabel02181911413D

 19 19  0  0  1  0  0  0  0  0999 V2000
    2.5912   -0.5381   -1.1182 C   0  0  0  0  0  0  0  0  0  0  0  0
    1.6868   -0.0007   -0.0120 C   0  0  1  0  0  0  0  0  0  0  0  0
    2.1399   -0.5827    1.2077 O   0  0  0  0  0  0  0  0  0  0  0  0
    1.5914    0.0212    2.3625 C   0  0  2  0  0  0  0  0  0  0  0  0
    2.0388    1.4780    2.5065 C   0  0  0  0  0  0  0  0  0  0  0  0
    1.8762    2.1785    1.1845 C   0  0  0  0  0  0  0  0  0  0  0  0
    1.6894    1.5064    0.0512 C   0  0  0  0  0  0  0  0  0  0  0  0
    1.9816   -0.8572    3.5397 C   0  0  0  0  0  0  0  0  0  0  0  0
    2.0527   -0.4679    4.6758 O   0  0  0  0  0  0  0  0  0  0  0  0
    2.5778   -1.6312   -1.1160 H   0  0  0  0  0  0  0  0  0  0  0  0
    2.2487   -0.1866   -2.0958 H   0  0  0  0  0  0  0  0  0  0  0  0
    3.6197   -0.2000   -0.9642 H   0  0  0  0  0  0  0  0  0  0  0  0
    0.6537   -0.3471   -0.2060 H   0  0  0  0  0  0  0  0  0  0  0  0
    0.4851   -0.0062    2.3093 H   0  0  0  0  0  0  0  0  0  0  0  0
    1.4475    1.9663    3.2883 H   0  0  0  0  0  0  0  0  0  0  0  0
    3.0818    1.5173    2.8468 H   0  0  0  0  0  0  0  0  0  0  0  0
    1.9043    3.2648    1.1821 H   0  0  0  0  0  0  0  0  0  0  0  0
    1.5364    2.0255   -0.8913 H   0  0  0  0  0  0  0  0  0  0  0  0
    2.1874   -1.9125    3.2550 H   0  0  0  0  0  0  0  0  0  0  0  0
  1 10  1  0  0  0  0
  1 12  1  0  0  0  0
  1  2  1  0  0  0  0
  2 13  1  6  0  0  0
  2  7  1  0  0  0  0
  2  3  1  0  0  0  0
  3  4  1  0  0  0  0
  4 14  1  6  0  0  0
  4  5  1  0  0  0  0
  4  8  1  0  0  0  0
  5 16  1  0  0  0  0
  5 15  1  0  0  0  0
  6  5  1  0  0  0  0
  7  6  2  0  0  0  0
  8  9  2  0  0  0  0
 11  1  1  0  0  0  0
 17  6  1  0  0  0  0
 18  7  1  0  0  0  0
 19  8  1  0  0  0  0
M TOR 0 0 1 2 3
M TOR 1 0 1 6 5
M TOR 2 0 1 6 17
M TOR 3 1 2 3 4
M TOR 4 1 2 3 7
M TOR 5 1 2 3 13
M TOR 6 1 6 5 4
M TOR 7 1 6 5 16
M TOR 8 2 1 0 9
M TOR 9 2 1 0 10
M TOR 10 2 1 0 11
M TOR 11 2 1 6 5
M TOR 12 2 1 6 17
M TOR 13 2 3 4 5
M TOR 14 2 3 4 14
M TOR 15 2 3 4 15
M TOR 16 2 3 7 8
M TOR 17 2 3 7 18
M TOR 18 3 2 1 6
M TOR 19 3 2 1 12
M TOR 20 3 4 5 6
M TOR 21 3 4 5 16
M TOR 22 4 3 7 8
M TOR 23 4 3 7 18
M TOR 24 4 5 6 17
M TOR 25 5 4 3 7
M TOR 26 5 4 3 13
M TOR 27 5 6 1 12
M TOR 28 6 1 0 9
M TOR 29 6 1 0 10
M TOR 30 6 1 0 11
M TOR 31 6 5 4 14
M TOR 32 6 5 4 15
M TOR 33 7 3 4 14
M TOR 34 7 3 4 15
M TOR 35 8 7 3 13
M  END
$$$$
