
     RDKit          3D

 19 19  0  0  0  0  0  0  0  0999 V2000
    5.8610    3.3034   -1.1824 C   0  0  0  0  0  0  0  0  0  0  0  0
    5.1660    2.2953   -0.2632 C   0  0  0  0  0  0  0  0  0  0  0  0
    3.6980    2.1214   -0.6168 C   0  0  0  0  0  0  0  0  0  0  0  0
    3.1441    1.1641    0.2962 O   0  0  0  0  0  0  0  0  0  0  0  0
    1.8515    0.8551    0.1673 C   0  0  0  0  0  0  0  0  0  0  0  0
    1.0784   -0.0068    0.8836 C   0  0  0  0  0  0  0  0  0  0  0  0
   -0.2270    0.0768    0.2900 C   0  0  0  0  0  0  0  0  0  0  0  0
   -0.1449    0.9697   -0.7250 C   0  0  0  0  0  0  0  0  0  0  0  0
    1.1399    1.4605   -0.8122 O   0  0  0  0  0  0  0  0  0  0  0  0
    6.9147    3.4149   -0.9123 H   0  0  0  0  0  0  0  0  0  0  0  0
    5.8181    2.9856   -2.2298 H   0  0  0  0  0  0  0  0  0  0  0  0
    5.3945    4.2924   -1.1168 H   0  0  0  0  0  0  0  0  0  0  0  0
    5.6602    1.3192   -0.3256 H   0  0  0  0  0  0  0  0  0  0  0  0
    5.2397    2.6184    0.7813 H   0  0  0  0  0  0  0  0  0  0  0  0
    3.1530    3.0698   -0.5311 H   0  0  0  0  0  0  0  0  0  0  0  0
    3.5766    1.7614   -1.6461 H   0  0  0  0  0  0  0  0  0  0  0  0
    1.3987   -0.6121    1.7144 H   0  0  0  0  0  0  0  0  0  0  0  0
   -1.1097   -0.4660    0.5909 H   0  0  0  0  0  0  0  0  0  0  0  0
   -0.8379    1.3623   -1.4482 H   0  0  0  0  0  0  0  0  0  0  0  0
  1  2  1  0
  2  3  1  0
  3  4  1  0
  4  5  1  0
  5  6  2  0
  6  7  1  0
  7  8  2  0
  8  9  1  0
  9  5  1  0
  1 10  1  0
  1 11  1  0
  1 12  1  0
  2 13  1  0
  2 14  1  0
  3 15  1  0
  3 16  1  0
  6 17  1  0
  7 18  1  0
  8 19  1  0
M  END
$$$$
