gdb 662	4.0036611	1.0972674	1.0635671	4.3297	74.99	-0.26858	0.01584	0.28442	1199.8592	0.158277	-422.608727	-422.600694	-422.59975	-422.642082	30.395
 OpenBabel02181911403D

 19 20  0  0  0  0  0  0  0  0999 V2000
    1.2109    0.2915    0.0908 O   0  0  0  0  0  0  0  0  0  0  0  0
    0.0393    0.0875    0.0654 C   0  0  0  0  0  0  0  0  0  0  0  0
   -0.9006   -1.1149    0.0167 C   0  0  0  0  0  0  0  0  0  0  0  0
   -2.0166   -0.0557    0.0369 C   0  0  0  0  0  0  0  0  0  0  0  0
   -2.9288    0.0738    1.2515 C   0  0  0  0  0  0  0  0  0  0  0  0
   -3.9022    1.1842    0.8290 C   0  0  0  0  0  0  0  0  0  0  0  0
   -4.1976    0.8688   -0.6563 C   0  0  0  0  0  0  0  0  0  0  0  0
   -2.9360    0.1234   -1.1796 C   0  0  0  0  0  0  0  0  0  0  0  0
   -0.9709    1.0093    0.0717 O   0  0  0  0  0  0  0  0  0  0  0  0
   -0.8164   -1.7097   -0.8950 H   0  0  0  0  0  0  0  0  0  0  0  0
   -0.8412   -1.7698    0.8882 H   0  0  0  0  0  0  0  0  0  0  0  0
   -3.4640   -0.8743    1.3929 H   0  0  0  0  0  0  0  0  0  0  0  0
   -2.3693    0.2871    2.1658 H   0  0  0  0  0  0  0  0  0  0  0  0
   -4.8045    1.2230    1.4440 H   0  0  0  0  0  0  0  0  0  0  0  0
   -3.3992    2.1527    0.9178 H   0  0  0  0  0  0  0  0  0  0  0  0
   -5.0764    0.2214   -0.7380 H   0  0  0  0  0  0  0  0  0  0  0  0
   -4.4147    1.7708   -1.2329 H   0  0  0  0  0  0  0  0  0  0  0  0
   -3.1972   -0.8560   -1.5919 H   0  0  0  0  0  0  0  0  0  0  0  0
   -2.4080    0.6738   -1.9619 H   0  0  0  0  0  0  0  0  0  0  0  0
  2  9  1  0  0  0  0
  2  1  2  0  0  0  0
  3  4  1  0  0  0  0
  3  2  1  0  0  0  0
  3 11  1  0  0  0  0
  4  9  1  0  0  0  0
  4  5  1  0  0  0  0
  5 12  1  0  0  0  0
  5 13  1  0  0  0  0
  6 15  1  0  0  0  0
  6  5  1  0  0  0  0
  6 14  1  0  0  0  0
  7  6  1  0  0  0  0
  8  7  1  0  0  0  0
  8  4  1  0  0  0  0
 10  3  1  0  0  0  0
 16  7  1  0  0  0  0
 17  7  1  0  0  0  0
 18  8  1  0  0  0  0
 19  8  1  0  0  0  0
M TOR 0 0 1 2 3
M TOR 1 0 1 2 9
M TOR 2 0 1 2 10
M TOR 3 0 1 8 3
M TOR 4 1 2 3 4
M TOR 5 1 2 3 7
M TOR 6 1 2 3 8
M TOR 7 1 8 3 4
M TOR 8 1 8 3 7
M TOR 9 2 3 4 5
M TOR 10 2 3 4 11
M TOR 11 2 3 4 12
M TOR 12 2 3 7 6
M TOR 13 2 3 7 17
M TOR 14 2 3 7 18
M TOR 15 3 4 5 6
M TOR 16 3 4 5 13
M TOR 17 3 4 5 14
M TOR 18 3 7 6 5
M TOR 19 3 7 6 15
M TOR 20 3 7 6 16
M TOR 21 4 3 2 9
M TOR 22 4 3 2 10
M TOR 23 4 3 7 6
M TOR 24 4 3 7 17
M TOR 25 4 3 7 18
M TOR 26 4 5 6 7
M TOR 27 4 5 6 15
M TOR 28 4 5 6 16
M TOR 29 5 4 3 7
M TOR 30 5 4 3 8
M TOR 31 5 6 7 17
M TOR 32 5 6 7 18
M TOR 33 6 5 4 11
M TOR 34 6 5 4 12
M TOR 35 6 7 3 8
M TOR 36 7 3 2 9
M TOR 37 7 3 2 10
M TOR 38 7 3 4 11
M TOR 39 7 3 4 12
M TOR 40 7 6 5 13
M TOR 41 7 6 5 14
M TOR 42 8 1 2 9
M TOR 43 8 1 2 10
M TOR 44 8 3 2 9
M TOR 45 8 3 2 10
M TOR 46 8 3 4 11
M TOR 47 8 3 4 12
M TOR 48 8 3 7 17
M TOR 49 8 3 7 18
M  END
$$$$
