
     RDKit          3D

 19 19  0  0  0  0  0  0  0  0999 V2000
    1.5519   -0.0855   -0.0497 C   0  0  0  0  0  0  0  0  0  0  0  0
    0.0974   -0.0694    0.0017 C   0  0  0  0  0  0  0  0  0  0  0  0
   -1.1082   -0.0645    0.0125 C   0  0  0  0  0  0  0  0  0  0  0  0
   -2.5512   -0.0375    0.0964 C   0  0  0  0  0  0  0  0  0  0  0  0
   -3.3500   -1.0111   -0.6710 C   0  0  0  0  0  0  0  0  0  0  0  0
   -3.2619    0.3489   -1.0939 O   0  0  0  0  0  0  0  0  0  0  0  0
   -3.1125    0.5532    1.3929 C   0  0  0  0  0  0  0  0  0  0  0  0
   -2.8321    2.0514    1.4995 C   0  0  0  0  0  0  0  0  0  0  0  0
   -2.6272   -0.1703    2.5125 O   0  0  0  0  0  0  0  0  0  0  0  0
    1.9798    0.7856    0.4578 H   0  0  0  0  0  0  0  0  0  0  0  0
    1.9573   -0.9845    0.4273 H   0  0  0  0  0  0  0  0  0  0  0  0
    1.9035   -0.0722   -1.0869 H   0  0  0  0  0  0  0  0  0  0  0  0
   -2.8423   -1.7317   -1.3091 H   0  0  0  0  0  0  0  0  0  0  0  0
   -4.3171   -1.3237   -0.2793 H   0  0  0  0  0  0  0  0  0  0  0  0
   -4.1947    0.3865    1.3827 H   0  0  0  0  0  0  0  0  0  0  0  0
   -3.2507    2.4416    2.4307 H   0  0  0  0  0  0  0  0  0  0  0  0
   -1.7538    2.2444    1.4945 H   0  0  0  0  0  0  0  0  0  0  0  0
   -3.2783    2.5863    0.6559 H   0  0  0  0  0  0  0  0  0  0  0  0
   -1.6645   -0.1028    2.4979 H   0  0  0  0  0  0  0  0  0  0  0  0
  1  2  1  0
  2  3  3  0
  3  4  1  0
  4  5  1  0
  5  6  1  0
  4  7  1  0
  7  8  1  0
  7  9  1  0
  6  4  1  0
  1 10  1  0
  1 11  1  0
  1 12  1  0
  5 13  1  0
  5 14  1  0
  7 15  1  0
  8 16  1  0
  8 17  1  0
  8 18  1  0
  9 19  1  0
M  END
$$$$
