gdb 3149	2.6741743	1.4425336	1.111605	1.313	74.29	-0.25259	0.06196	0.31455	1125.7711	0.156758	-422.49719	-422.488862	-422.487918	-422.530301	31.613
 OpenBabel02181911413D

 19 21  0  0  1  0  0  0  0  0999 V2000
    2.5501    1.2363   -1.8350 O   0  0  0  0  0  0  0  0  0  0  0  0
    3.6225    0.7255   -1.0783 C   0  0  1  0  0  0  0  0  0  0  0  0
    3.4438    0.7558    0.4463 C   0  0  2  0  0  0  0  0  0  0  0  0
    4.6241    0.0974    1.1060 C   0  0  0  0  0  0  0  0  0  0  0  0
    3.5540   -0.7714    0.5139 C   0  0  2  0  0  0  0  0  0  0  0  0
    3.7366   -0.8521   -1.0082 C   0  0  1  0  0  0  0  0  0  0  0  0
    2.6553   -1.5749   -1.7707 C   0  0  2  0  0  0  0  0  0  0  0  0
    1.2956   -1.8147   -1.2562 C   0  0  0  0  0  0  0  0  0  0  0  0
    2.2674   -2.8596   -1.2741 O   0  0  0  0  0  0  0  0  0  0  0  0
    1.7361    0.8393   -1.5066 H   0  0  0  0  0  0  0  0  0  0  0  0
    4.5116    1.2397   -1.4567 H   0  0  0  0  0  0  0  0  0  0  0  0
    2.7882    1.4396    0.9737 H   0  0  0  0  0  0  0  0  0  0  0  0
    5.6087    0.1488    0.6451 H   0  0  0  0  0  0  0  0  0  0  0  0
    4.6397    0.1493    2.1899 H   0  0  0  0  0  0  0  0  0  0  0  0
    3.0021   -1.4874    1.1101 H   0  0  0  0  0  0  0  0  0  0  0  0
    4.7058   -1.2572   -1.3257 H   0  0  0  0  0  0  0  0  0  0  0  0
    2.7673   -1.5406   -2.8548 H   0  0  0  0  0  0  0  0  0  0  0  0
    1.0132   -1.4606   -0.2657 H   0  0  0  0  0  0  0  0  0  0  0  0
    0.4706   -1.9317   -1.9580 H   0  0  0  0  0  0  0  0  0  0  0  0
  1 10  1  0  0  0  0
  1  2  1  0  0  0  0
  2 11  1  6  0  0  0
  2  6  1  0  0  0  0
  2  3  1  0  0  0  0
  3  5  1  0  0  0  0
  3 12  1  1  0  0  0
  3  4  1  0  0  0  0
  4 14  1  0  0  0  0
  5  4  1  0  0  0  0
  5 15  1  1  0  0  0
  6 16  1  6  0  0  0
  6  5  1  0  0  0  0
  7 17  1  6  0  0  0
  7  9  1  0  0  0  0
  7  8  1  0  0  0  0
  7  6  1  0  0  0  0
  8 18  1  0  0  0  0
  9  8  1  0  0  0  0
 13  4  1  0  0  0  0
 19  8  1  0  0  0  0
M TOR 0 0 1 2 3
M TOR 1 0 1 2 4
M TOR 2 0 1 2 11
M TOR 3 0 1 5 4
M TOR 4 0 1 5 6
M TOR 5 0 1 5 15
M TOR 6 1 2 3 4
M TOR 7 1 2 3 12
M TOR 8 1 2 3 13
M TOR 9 1 2 4 5
M TOR 10 1 2 4 14
M TOR 11 1 5 4 3
M TOR 12 1 5 4 14
M TOR 13 1 5 6 7
M TOR 14 1 5 6 8
M TOR 15 1 5 6 16
M TOR 16 2 1 0 9
M TOR 17 2 1 5 6
M TOR 18 2 1 5 15
M TOR 19 2 3 4 5
M TOR 20 2 3 4 14
M TOR 21 2 4 3 12
M TOR 22 2 4 3 13
M TOR 23 2 4 5 6
M TOR 24 2 4 5 15
M TOR 25 3 2 1 5
M TOR 26 3 2 1 10
M TOR 27 3 4 2 11
M TOR 28 3 4 5 6
M TOR 29 3 4 5 15
M TOR 30 4 2 1 10
M TOR 31 4 5 1 10
M TOR 32 4 5 6 7
M TOR 33 4 5 6 8
M TOR 34 4 5 6 16
M TOR 35 5 1 0 9
M TOR 36 5 1 2 11
M TOR 37 5 4 2 11
M TOR 38 5 4 3 12
M TOR 39 5 4 3 13
M TOR 40 5 6 7 8
M TOR 41 5 6 7 17
M TOR 42 5 6 7 18
M TOR 43 6 5 1 10
M TOR 44 6 5 4 14
M TOR 45 6 8 7 17
M TOR 46 6 8 7 18
M TOR 47 7 6 5 15
M TOR 48 7 8 6 16
M TOR 49 8 6 5 15
M  END
$$$$
