
     RDKit          3D

 19 20  0  0  0  0  0  0  0  0999 V2000
   -3.3680    0.3867    1.9734 C   0  0  0  0  0  0  0  0  0  0  0  0
   -3.1166    1.7201    1.2822 C   0  0  0  0  0  0  0  0  0  0  0  0
   -1.8223    2.5846    1.4904 C   0  0  0  0  0  0  0  0  0  0  0  0
   -2.2675    3.3709    0.2175 C   0  0  0  0  0  0  0  0  0  0  0  0
   -2.4676    1.8665   -0.1407 C   0  0  0  0  0  0  0  0  0  0  0  0
   -1.0610    1.6859    0.4911 C   0  0  0  0  0  0  0  0  0  0  0  0
   -0.6236    0.4029    0.9590 O   0  0  0  0  0  0  0  0  0  0  0  0
    0.1055   -0.3229    0.0967 C   0  0  0  0  0  0  0  0  0  0  0  0
    0.3872   -0.0186   -1.0290 O   0  0  0  0  0  0  0  0  0  0  0  0
   -3.6563    0.5606    3.0166 H   0  0  0  0  0  0  0  0  0  0  0  0
   -4.2066   -0.1291    1.4914 H   0  0  0  0  0  0  0  0  0  0  0  0
   -2.5076   -0.2782    1.9671 H   0  0  0  0  0  0  0  0  0  0  0  0
   -4.0234    2.3303    1.3711 H   0  0  0  0  0  0  0  0  0  0  0  0
   -1.4372    3.0023    2.4215 H   0  0  0  0  0  0  0  0  0  0  0  0
   -3.1786    3.9619    0.3186 H   0  0  0  0  0  0  0  0  0  0  0  0
   -1.4917    3.9125   -0.3287 H   0  0  0  0  0  0  0  0  0  0  0  0
   -2.8193    1.4560   -1.0873 H   0  0  0  0  0  0  0  0  0  0  0  0
   -0.2356    2.1437   -0.0555 H   0  0  0  0  0  0  0  0  0  0  0  0
    0.4122   -1.2554    0.5960 H   0  0  0  0  0  0  0  0  0  0  0  0
  1  2  1  0
  2  3  1  0
  3  4  1  0
  4  5  1  0
  5  6  1  0
  6  7  1  0
  7  8  1  0
  8  9  2  0
  5  2  1  0
  6  3  1  0
  1 10  1  0
  1 11  1  0
  1 12  1  0
  2 13  1  0
  3 14  1  0
  4 15  1  0
  4 16  1  0
  5 17  1  0
  6 18  1  0
  8 19  1  0
M  END
$$$$
