gdb 5224	3.738522	1.3928001	1.2525262	1.2823	74.51	-0.24188	0.07079	0.31267	1052.3423	0.157114	-422.497192	-422.489514	-422.48857	-422.529196	30.056
 OpenBabel02181911423D

 19 21  0  0  1  0  0  0  0  0999 V2000
    1.5080   -0.0835   -0.0947 C   0  0  0  0  0  0  0  0  0  0  0  0
    0.0996   -0.0385    0.0280 O   0  0  0  0  0  0  0  0  0  0  0  0
   -0.3418    0.6484    1.1522 C   0  0  1  0  0  0  0  0  0  0  0  0
   -0.1538   -0.0003    2.5562 C   0  0  0  0  0  0  0  0  0  0  0  0
   -1.5639    0.5121    2.9404 C   0  0  1  0  0  0  0  0  0  0  0  0
   -1.5535    1.9234    3.2528 O   0  0  0  0  0  0  0  0  0  0  0  0
   -1.6024    2.2711    1.8506 C   0  0  1  0  0  0  0  0  0  0  0  0
   -0.2019    2.1996    1.1932 C   0  0  0  0  0  0  0  0  0  0  0  0
   -1.8794    0.7965    1.4456 C   0  0  1  0  0  0  0  0  0  0  0  0
    1.9767   -0.5931    0.7596 H   0  0  0  0  0  0  0  0  0  0  0  0
    1.7324   -0.6429   -1.0055 H   0  0  0  0  0  0  0  0  0  0  0  0
    1.9433    0.9228   -0.1796 H   0  0  0  0  0  0  0  0  0  0  0  0
   -0.1630   -1.0909    2.4533 H   0  0  0  0  0  0  0  0  0  0  0  0
    0.6798    0.3135    3.1895 H   0  0  0  0  0  0  0  0  0  0  0  0
   -2.1703   -0.0601    3.6438 H   0  0  0  0  0  0  0  0  0  0  0  0
   -2.2403    3.1360    1.6636 H   0  0  0  0  0  0  0  0  0  0  0  0
   -0.2436    2.5922    0.1714 H   0  0  0  0  0  0  0  0  0  0  0  0
    0.6286    2.6532    1.7399 H   0  0  0  0  0  0  0  0  0  0  0  0
   -2.6939    0.4058    0.8437 H   0  0  0  0  0  0  0  0  0  0  0  0
  1  2  1  0  0  0  0
  1 10  1  0  0  0  0
  3  2  1  6  0  0  0
  3  8  1  0  0  0  0
  3  9  1  0  0  0  0
  3  4  1  0  0  0  0
  4  5  1  0  0  0  0
  4 14  1  0  0  0  0
  5  6  1  0  0  0  0
  5 15  1  1  0  0  0
  7 16  1  6  0  0  0
  7  6  1  0  0  0  0
  8 18  1  0  0  0  0
  8  7  1  0  0  0  0
  9 19  1  6  0  0  0
  9  7  1  0  0  0  0
  9  5  1  0  0  0  0
 11  1  1  0  0  0  0
 12  1  1  0  0  0  0
 13  4  1  0  0  0  0
 17  8  1  0  0  0  0
M TOR 0 0 1 2 3
M TOR 1 0 1 2 7
M TOR 2 0 1 2 8
M TOR 3 1 2 3 4
M TOR 4 1 2 3 12
M TOR 5 1 2 3 13
M TOR 6 1 2 7 6
M TOR 7 1 2 7 16
M TOR 8 1 2 7 17
M TOR 9 1 2 8 4
M TOR 10 1 2 8 6
M TOR 11 1 2 8 18
M TOR 12 2 1 0 9
M TOR 13 2 1 0 10
M TOR 14 2 1 0 11
M TOR 15 2 3 4 5
M TOR 16 2 3 4 8
M TOR 17 2 3 4 14
M TOR 18 2 7 6 5
M TOR 19 2 7 6 8
M TOR 20 2 7 6 15
M TOR 21 2 8 4 5
M TOR 22 2 8 4 14
M TOR 23 2 8 6 5
M TOR 24 2 8 6 15
M TOR 25 3 2 7 6
M TOR 26 3 2 7 16
M TOR 27 3 2 7 17
M TOR 28 3 2 8 6
M TOR 29 3 2 8 18
M TOR 30 3 4 5 6
M TOR 31 3 4 8 6
M TOR 32 3 4 8 18
M TOR 33 4 3 2 7
M TOR 34 4 5 6 7
M TOR 35 4 5 6 8
M TOR 36 4 5 6 15
M TOR 37 4 8 2 7
M TOR 38 4 8 6 7
M TOR 39 4 8 6 15
M TOR 40 5 4 3 12
M TOR 41 5 4 3 13
M TOR 42 5 4 8 18
M TOR 43 5 6 7 16
M TOR 44 5 6 7 17
M TOR 45 5 6 8 18
M TOR 46 6 5 4 14
M TOR 47 6 8 4 14
M TOR 48 7 2 3 12
M TOR 49 7 2 3 13
M TOR 50 7 2 8 18
M TOR 51 7 6 8 18
M TOR 52 8 2 3 12
M TOR 53 8 2 3 13
M TOR 54 8 2 7 16
M TOR 55 8 2 7 17
M TOR 56 8 4 3 12
M TOR 57 8 4 3 13
M TOR 58 8 6 7 16
M TOR 59 8 6 7 17
M  END
$$$$
