
     RDKit          3D

 19 20  0  0  0  0  0  0  0  0999 V2000
    1.7944    3.7045   -0.7777 O   0  0  0  0  0  0  0  0  0  0  0  0
    2.1838    2.6008   -0.0307 C   0  0  0  0  0  0  0  0  0  0  0  0
    1.9026    1.1907   -0.5956 C   0  0  0  0  0  0  0  0  0  0  0  0
    1.5646    0.1310    0.3662 C   0  0  0  0  0  0  0  0  0  0  0  0
    2.0441    0.0483    1.4776 O   0  0  0  0  0  0  0  0  0  0  0  0
    3.3179    1.8034   -0.5404 C   0  0  0  0  0  0  0  0  0  0  0  0
    4.0210    2.1600   -1.8078 C   0  0  0  0  0  0  0  0  0  0  0  0
    5.4861    2.5259   -1.7669 C   0  0  0  0  0  0  0  0  0  0  0  0
    5.0521    1.2230   -2.3887 C   0  0  0  0  0  0  0  0  0  0  0  0
    0.8606    3.8698   -0.6109 H   0  0  0  0  0  0  0  0  0  0  0  0
    2.0695    2.6804    1.0496 H   0  0  0  0  0  0  0  0  0  0  0  0
    1.4262    1.1608   -1.5696 H   0  0  0  0  0  0  0  0  0  0  0  0
    0.8118   -0.6098    0.0166 H   0  0  0  0  0  0  0  0  0  0  0  0
    3.9330    1.3472    0.2315 H   0  0  0  0  0  0  0  0  0  0  0  0
    3.4121    2.7133   -2.5139 H   0  0  0  0  0  0  0  0  0  0  0  0
    5.8304    3.3229   -2.4162 H   0  0  0  0  0  0  0  0  0  0  0  0
    5.9908    2.4856   -0.8074 H   0  0  0  0  0  0  0  0  0  0  0  0
    5.1019    1.1218   -3.4672 H   0  0  0  0  0  0  0  0  0  0  0  0
    5.2657    0.3076   -1.8466 H   0  0  0  0  0  0  0  0  0  0  0  0
  1  2  1  0
  2  3  1  0
  3  4  1  0
  4  5  2  0
  3  6  1  0
  6  7  1  0
  7  8  1  0
  8  9  1  0
  6  2  1  0
  9  7  1  0
  1 10  1  0
  2 11  1  0
  3 12  1  0
  4 13  1  0
  6 14  1  0
  7 15  1  0
  8 16  1  0
  8 17  1  0
  9 18  1  0
  9 19  1  0
M  END
$$$$
