
     RDKit          3D

 19 20  0  0  0  0  0  0  0  0999 V2000
   -0.6906   -1.4812   -2.5938 C   0  0  0  0  0  0  0  0  0  0  0  0
   -1.6330   -1.3772   -1.3954 C   0  0  0  0  0  0  0  0  0  0  0  0
   -2.5755   -0.1301   -1.3751 C   0  0  0  0  0  0  0  0  0  0  0  0
   -2.3129    0.4429    0.0374 C   0  0  0  0  0  0  0  0  0  0  0  0
   -0.9588    1.1760    0.0705 C   0  0  0  0  0  0  0  0  0  0  0  0
   -0.0074   -0.0293   -0.0444 C   0  0  0  0  0  0  0  0  0  0  0  0
    1.1883   -0.0240   -0.1624 O   0  0  0  0  0  0  0  0  0  0  0  0
   -0.9559   -1.2363    0.0002 C   0  0  0  0  0  0  0  0  0  0  0  0
   -2.0212   -0.7367    0.8159 O   0  0  0  0  0  0  0  0  0  0  0  0
   -0.0288   -2.3486   -2.5020 H   0  0  0  0  0  0  0  0  0  0  0  0
   -1.2596   -1.5927   -3.5220 H   0  0  0  0  0  0  0  0  0  0  0  0
   -0.0566   -0.5947   -2.6942 H   0  0  0  0  0  0  0  0  0  0  0  0
   -2.2455   -2.2824   -1.3434 H   0  0  0  0  0  0  0  0  0  0  0  0
   -2.3325    0.5897   -2.1624 H   0  0  0  0  0  0  0  0  0  0  0  0
   -3.6221   -0.4175   -1.4940 H   0  0  0  0  0  0  0  0  0  0  0  0
   -3.1448    0.9775    0.4940 H   0  0  0  0  0  0  0  0  0  0  0  0
   -0.7838    1.9004   -0.7286 H   0  0  0  0  0  0  0  0  0  0  0  0
   -0.8063    1.6751    1.0326 H   0  0  0  0  0  0  0  0  0  0  0  0
   -0.5257   -2.1440    0.4197 H   0  0  0  0  0  0  0  0  0  0  0  0
  1  2  1  0
  2  3  1  0
  3  4  1  0
  4  5  1  0
  5  6  1  0
  6  7  2  0
  6  8  1  0
  8  9  1  0
  8  2  1  0
  9  4  1  0
  1 10  1  0
  1 11  1  0
  1 12  1  0
  2 13  1  0
  3 14  1  0
  3 15  1  0
  4 16  1  0
  5 17  1  0
  5 18  1  0
  8 19  1  0
M  END
$$$$
