
     RDKit          3D

 19 21  0  0  0  0  0  0  0  0999 V2000
    1.5388    0.5762    0.1448 O   0  0  0  0  0  0  0  0  0  0  0  0
    0.3353   -0.0044   -0.3462 C   0  0  0  0  0  0  0  0  0  0  0  0
    0.0650    0.3652   -1.7698 C   0  0  0  0  0  0  0  0  0  0  0  0
   -1.1886    0.3081   -2.6601 C   0  0  0  0  0  0  0  0  0  0  0  0
   -0.3907   -0.3422   -3.7910 C   0  0  0  0  0  0  0  0  0  0  0  0
    0.9223    0.0337   -3.0294 C   0  0  0  0  0  0  0  0  0  0  0  0
    1.4096    1.4093   -3.4753 C   0  0  0  0  0  0  0  0  0  0  0  0
    0.2837    2.2740   -3.2486 O   0  0  0  0  0  0  0  0  0  0  0  0
   -0.5329    1.6276   -2.2970 C   0  0  0  0  0  0  0  0  0  0  0  0
    1.4556    1.5312    0.0497 H   0  0  0  0  0  0  0  0  0  0  0  0
    0.4762   -1.0865   -0.2444 H   0  0  0  0  0  0  0  0  0  0  0  0
   -0.5315    0.2676    0.2781 H   0  0  0  0  0  0  0  0  0  0  0  0
   -2.2110    0.0831   -2.3753 H   0  0  0  0  0  0  0  0  0  0  0  0
   -0.5448   -1.4232   -3.8241 H   0  0  0  0  0  0  0  0  0  0  0  0
   -0.5134    0.0729   -4.7972 H   0  0  0  0  0  0  0  0  0  0  0  0
    1.6973   -0.7273   -2.9472 H   0  0  0  0  0  0  0  0  0  0  0  0
    2.2727    1.7413   -2.8777 H   0  0  0  0  0  0  0  0  0  0  0  0
    1.6691    1.4615   -4.5375 H   0  0  0  0  0  0  0  0  0  0  0  0
   -1.0743    2.3124   -1.6533 H   0  0  0  0  0  0  0  0  0  0  0  0
  1  2  1  0
  2  3  1  0
  3  4  1  0
  4  5  1  0
  5  6  1  0
  6  7  1  0
  7  8  1  0
  8  9  1  0
  6  3  1  0
  9  3  1  0
  9  4  1  0
  1 10  1  0
  2 11  1  0
  2 12  1  0
  4 13  1  0
  5 14  1  0
  5 15  1  0
  6 16  1  0
  7 17  1  0
  7 18  1  0
  9 19  1  0
M  END
$$$$
