gdb 2884	2.1761832	1.749173	1.5607961	1.3543	75.52	-0.2451	0.06108	0.30618	995.7604	0.155377	-422.498778	-422.490078	-422.489134	-422.531278	33.708
 OpenBabel02181911413D

 19 21  0  0  1  0  0  0  0  0999 V2000
   -1.3884   -1.5905    2.5642 C   0  0  0  0  0  0  0  0  0  0  0  0
   -1.9758   -0.3913    1.8713 C   0  0  2  0  0  0  0  0  0  0  0  0
   -3.3739    0.2439    2.0709 C   0  0  0  0  0  0  0  0  0  0  0  0
   -2.7308    1.1300    0.9884 C   0  0  2  0  0  0  0  0  0  0  0  0
   -2.0133   -0.0936    0.3240 C   0  0  1  0  0  0  0  0  0  0  0  0
   -0.6580    0.6262    0.3285 C   0  0  2  0  0  0  0  0  0  0  0  0
    0.4729   -0.2156    0.3484 O   0  0  0  0  0  0  0  0  0  0  0  0
   -1.3067    1.0320    1.6524 C   0  0  2  0  0  0  0  0  0  0  0  0
   -0.7032    1.8619    2.5765 O   0  0  0  0  0  0  0  0  0  0  0  0
   -1.3017   -1.4150    3.6433 H   0  0  0  0  0  0  0  0  0  0  0  0
   -2.0218   -2.4743    2.4256 H   0  0  0  0  0  0  0  0  0  0  0  0
   -0.3944   -1.8109    2.1694 H   0  0  0  0  0  0  0  0  0  0  0  0
   -4.2321   -0.3625    1.7624 H   0  0  0  0  0  0  0  0  0  0  0  0
   -3.5796    0.7089    3.0429 H   0  0  0  0  0  0  0  0  0  0  0  0
   -3.1405    1.9893    0.4572 H   0  0  0  0  0  0  0  0  0  0  0  0
   -2.4401   -0.7402   -0.4397 H   0  0  0  0  0  0  0  0  0  0  0  0
   -0.5476    1.4350   -0.4098 H   0  0  0  0  0  0  0  0  0  0  0  0
    1.2218    0.3067    0.6540 H   0  0  0  0  0  0  0  0  0  0  0  0
   -1.2731    1.9397    3.3501 H   0  0  0  0  0  0  0  0  0  0  0  0
  1 10  1  0  0  0  0
  2  3  1  0  0  0  0
  2  1  1  1  0  0  0
  3 14  1  0  0  0  0
  4 15  1  6  0  0  0
  4  8  1  0  0  0  0
  4  3  1  0  0  0  0
  5 16  1  6  0  0  0
  5  6  1  0  0  0  0
  5  4  1  0  0  0  0
  5  2  1  0  0  0  0
  6 17  1  6  0  0  0
  6  7  1  0  0  0  0
  6  8  1  0  0  0  0
  7 18  1  0  0  0  0
  8  2  1  0  0  0  0
  8  9  1  1  0  0  0
  9 19  1  0  0  0  0
 11  1  1  0  0  0  0
 12  1  1  0  0  0  0
 13  3  1  0  0  0  0
M TOR 0 0 1 2 3
M TOR 1 0 1 2 12
M TOR 2 0 1 2 13
M TOR 3 0 1 4 3
M TOR 4 0 1 4 5
M TOR 5 0 1 4 15
M TOR 6 0 1 7 3
M TOR 7 0 1 7 5
M TOR 8 0 1 7 8
M TOR 9 1 2 3 4
M TOR 10 1 2 3 7
M TOR 11 1 2 3 14
M TOR 12 1 4 3 7
M TOR 13 1 4 3 14
M TOR 14 1 4 5 6
M TOR 15 1 4 5 7
M TOR 16 1 4 5 16
M TOR 17 1 7 3 14
M TOR 18 1 7 5 6
M TOR 19 1 7 5 16
M TOR 20 1 7 8 18
M TOR 21 2 1 0 9
M TOR 22 2 1 0 10
M TOR 23 2 1 0 11
M TOR 24 2 1 4 5
M TOR 25 2 1 4 15
M TOR 26 2 1 7 5
M TOR 27 2 1 7 8
M TOR 28 2 3 4 5
M TOR 29 2 3 4 15
M TOR 30 2 3 7 5
M TOR 31 2 3 7 8
M TOR 32 3 4 5 6
M TOR 33 3 4 5 7
M TOR 34 3 4 5 16
M TOR 35 3 7 5 6
M TOR 36 3 7 5 16
M TOR 37 3 7 8 18
M TOR 38 4 1 0 9
M TOR 39 4 1 0 10
M TOR 40 4 1 0 11
M TOR 41 4 1 2 12
M TOR 42 4 1 2 13
M TOR 43 4 1 7 8
M TOR 44 4 3 2 12
M TOR 45 4 3 2 13
M TOR 46 4 3 7 8
M TOR 47 4 5 6 17
M TOR 48 4 5 7 8
M TOR 49 5 4 3 14
M TOR 50 5 7 3 14
M TOR 51 5 7 8 18
M TOR 52 6 5 4 15
M TOR 53 6 5 7 8
M TOR 54 7 1 0 9
M TOR 55 7 1 0 10
M TOR 56 7 1 0 11
M TOR 57 7 1 2 12
M TOR 58 7 1 2 13
M TOR 59 7 1 4 15
M TOR 60 7 3 2 12
M TOR 61 7 3 2 13
M TOR 62 7 3 4 15
M TOR 63 7 5 4 15
M TOR 64 7 5 6 17
M TOR 65 8 7 3 14
M TOR 66 8 7 5 16
M  END
$$$$
