gdb 346	2.4174572	2.051884	1.5298798	2.1981	75.2	-0.23595	0.00858	0.24453	936.265	0.159988	-422.556934	-422.549899	-422.548955	-422.587964	28.627
 OpenBabel02181911403D

 19 20  0  0  1  0  0  0  0  0999 V2000
    1.5603    2.0027   -2.4921 C   0  0  0  0  0  0  0  0  0  0  0  0
    0.5189    2.7864   -1.6772 C   0  0  0  0  0  0  0  0  0  0  0  0
    0.4656    2.3834   -0.1901 C   0  0  1  0  0  0  0  0  0  0  0  0
    0.1824    0.9830   -0.0777 O   0  0  0  0  0  0  0  0  0  0  0  0
    1.4319    0.3058   -0.0306 C   0  0  1  0  0  0  0  0  0  0  0  0
    1.8526   -0.1652   -1.4612 C   0  0  0  0  0  0  0  0  0  0  0  0
    1.3155    0.6058   -2.5125 O   0  0  0  0  0  0  0  0  0  0  0  0
    2.3748    1.3313    0.5651 C   0  0  0  0  0  0  0  0  0  0  0  0
    1.8066    2.5293    0.4953 C   0  0  0  0  0  0  0  0  0  0  0  0
    1.5036    2.3287   -3.5366 H   0  0  0  0  0  0  0  0  0  0  0  0
    2.5784    2.2146   -2.1352 H   0  0  0  0  0  0  0  0  0  0  0  0
    0.7341    3.8603   -1.7669 H   0  0  0  0  0  0  0  0  0  0  0  0
   -0.4713    2.6126   -2.1116 H   0  0  0  0  0  0  0  0  0  0  0  0
   -0.3436    2.9249    0.3130 H   0  0  0  0  0  0  0  0  0  0  0  0
    1.3193   -0.5800    0.6071 H   0  0  0  0  0  0  0  0  0  0  0  0
    2.9539   -0.2031   -1.5161 H   0  0  0  0  0  0  0  0  0  0  0  0
    1.4749   -1.1767   -1.6388 H   0  0  0  0  0  0  0  0  0  0  0  0
    3.3627    1.0876    0.9349 H   0  0  0  0  0  0  0  0  0  0  0  0
    2.2311    3.4810    0.7883 H   0  0  0  0  0  0  0  0  0  0  0  0
  1 11  1  0  0  0  0
  1  2  1  0  0  0  0
  2  3  1  0  0  0  0
  3  4  1  0  0  0  0
  3 14  1  1  0  0  0
  3  9  1  0  0  0  0
  4  5  1  0  0  0  0
  5  8  1  0  0  0  0
  5 15  1  1  0  0  0
  6  5  1  0  0  0  0
  7  1  1  0  0  0  0
  7  6  1  0  0  0  0
  8 18  1  0  0  0  0
  9  8  2  0  0  0  0
  9 19  1  0  0  0  0
 10  1  1  0  0  0  0
 12  2  1  0  0  0  0
 13  2  1  0  0  0  0
 16  6  1  0  0  0  0
 17  6  1  0  0  0  0
M TOR 0 0 1 2 3
M TOR 1 0 1 2 8
M TOR 2 0 1 2 13
M TOR 3 0 6 5 4
M TOR 4 0 6 5 15
M TOR 5 0 6 5 16
M TOR 6 1 0 6 5
M TOR 7 1 2 3 4
M TOR 8 1 2 8 7
M TOR 9 1 2 8 18
M TOR 10 2 1 0 6
M TOR 11 2 1 0 9
M TOR 12 2 1 0 10
M TOR 13 2 3 4 5
M TOR 14 2 3 4 7
M TOR 15 2 3 4 14
M TOR 16 2 8 7 4
M TOR 17 2 8 7 17
M TOR 18 3 2 1 11
M TOR 19 3 2 1 12
M TOR 20 3 2 8 7
M TOR 21 3 2 8 18
M TOR 22 3 4 5 6
M TOR 23 3 4 5 15
M TOR 24 3 4 5 16
M TOR 25 3 4 7 8
M TOR 26 3 4 7 17
M TOR 27 4 3 2 8
M TOR 28 4 3 2 13
M TOR 29 4 7 8 18
M TOR 30 5 4 7 8
M TOR 31 5 4 7 17
M TOR 32 5 6 0 9
M TOR 33 5 6 0 10
M TOR 34 6 0 1 11
M TOR 35 6 0 1 12
M TOR 36 6 5 4 7
M TOR 37 6 5 4 14
M TOR 38 7 4 5 15
M TOR 39 7 4 5 16
M TOR 40 7 8 2 13
M TOR 41 8 2 1 11
M TOR 42 8 2 1 12
M TOR 43 8 7 4 14
M  END
$$$$
