gdb 458	3.8837233	1.3060979	1.2737924	1.5931	74.68	-0.24201	0.09043	0.33244	1061.5323	0.158738	-422.510494	-422.503261	-422.502317	-422.542287	28.67
 OpenBabel02181911403D

 19 21  0  0  1  0  0  0  0  0999 V2000
   -1.0249    0.1744    3.6714 C   0  0  0  0  0  0  0  0  0  0  0  0
    0.3733   -0.1235    3.7495 O   0  0  0  0  0  0  0  0  0  0  0  0
   -0.0365    0.9870    2.9529 C   0  0  1  0  0  0  0  0  0  0  0  0
    0.1205    0.9170    1.4501 C   0  0  2  0  0  0  0  0  0  0  0  0
   -0.4637   -0.2760    0.8880 O   0  0  0  0  0  0  0  0  0  0  0  0
    0.6352   -0.8170    0.1210 C   0  0  2  0  0  0  0  0  0  0  0  0
    1.8298   -0.7248    1.0969 C   0  0  0  0  0  0  0  0  0  0  0  0
    1.5523    0.8010    0.8872 C   0  0  1  0  0  0  0  0  0  0  0  0
    1.2122    0.4291   -0.5924 C   0  0  0  0  0  0  0  0  0  0  0  0
   -1.6140   -0.5427    3.1063 H   0  0  0  0  0  0  0  0  0  0  0  0
   -1.4712    0.5533    4.5893 H   0  0  0  0  0  0  0  0  0  0  0  0
    0.2352    1.9581    3.3727 H   0  0  0  0  0  0  0  0  0  0  0  0
   -0.3906    1.8017    1.0398 H   0  0  0  0  0  0  0  0  0  0  0  0
    0.3109   -1.7265   -0.3815 H   0  0  0  0  0  0  0  0  0  0  0  0
    1.6958   -1.1443    2.0919 H   0  0  0  0  0  0  0  0  0  0  0  0
    2.7742   -1.0338    0.6454 H   0  0  0  0  0  0  0  0  0  0  0  0
    2.2636    1.5811    1.1558 H   0  0  0  0  0  0  0  0  0  0  0  0
    0.5120    1.0629   -1.1428 H   0  0  0  0  0  0  0  0  0  0  0  0
    2.1009    0.2155   -1.1885 H   0  0  0  0  0  0  0  0  0  0  0  0
  1  2  1  0  0  0  0
  1 11  1  0  0  0  0
  3 12  1  1  0  0  0
  3  1  1  0  0  0  0
  3  2  1  0  0  0  0
  4 13  1  6  0  0  0
  4  3  1  0  0  0  0
  5  4  1  0  0  0  0
  6 14  1  6  0  0  0
  6  5  1  0  0  0  0
  6  7  1  0  0  0  0
  7 15  1  0  0  0  0
  8  7  1  0  0  0  0
  8 17  1  1  0  0  0
  8  4  1  0  0  0  0
  9  6  1  0  0  0  0
  9  8  1  0  0  0  0
 10  1  1  0  0  0  0
 16  7  1  0  0  0  0
 18  9  1  0  0  0  0
 19  9  1  0  0  0  0
M TOR 0 0 1 2 3
M TOR 1 0 1 2 11
M TOR 2 0 2 3 4
M TOR 3 0 2 3 7
M TOR 4 0 2 3 12
M TOR 5 1 2 0 9
M TOR 6 1 2 0 10
M TOR 7 1 2 3 4
M TOR 8 1 2 3 7
M TOR 9 1 2 3 12
M TOR 10 2 3 4 5
M TOR 11 2 3 7 6
M TOR 12 2 3 7 8
M TOR 13 2 3 7 16
M TOR 14 3 2 0 9
M TOR 15 3 2 0 10
M TOR 16 3 4 5 6
M TOR 17 3 4 5 8
M TOR 18 3 4 5 13
M TOR 19 3 7 6 5
M TOR 20 3 7 6 14
M TOR 21 3 7 6 15
M TOR 22 3 7 8 5
M TOR 23 3 7 8 17
M TOR 24 3 7 8 18
M TOR 25 4 3 2 11
M TOR 26 4 3 7 6
M TOR 27 4 3 7 8
M TOR 28 4 3 7 16
M TOR 29 4 5 6 7
M TOR 30 4 5 6 14
M TOR 31 4 5 6 15
M TOR 32 4 5 8 7
M TOR 33 4 5 8 17
M TOR 34 4 5 8 18
M TOR 35 5 4 3 7
M TOR 36 5 4 3 12
M TOR 37 5 6 7 8
M TOR 38 5 6 7 16
M TOR 39 5 8 7 16
M TOR 40 6 5 8 17
M TOR 41 6 5 8 18
M TOR 42 6 7 3 12
M TOR 43 6 7 8 17
M TOR 44 6 7 8 18
M TOR 45 7 3 2 11
M TOR 46 7 6 5 13
M TOR 47 7 8 5 13
M TOR 48 8 5 6 14
M TOR 49 8 5 6 15
M TOR 50 8 7 3 12
M TOR 51 8 7 6 14
M TOR 52 8 7 6 15
M  END
$$$$
