gdb 144	2.4638242	2.1378024	1.6447005	1.147	72.88	-0.22554	0.07915	0.30469	904.6808	0.160572	-422.551827	-422.545092	-422.544148	-422.582611	27.764
 OpenBabel02181911403D

 19 21  0  0  1  0  0  0  0  0999 V2000
    0.8800    1.6592    1.6710 C   0  0  0  0  0  0  0  0  0  0  0  0
    1.9424    0.5548    1.5598 C   0  0  0  0  0  0  0  0  0  0  0  0
    2.2454    0.0645    0.1477 C   0  0  2  0  0  0  0  0  0  0  0  0
    2.9624    0.9189   -0.8808 C   0  0  2  0  0  0  0  0  0  0  0  0
    2.9537    2.3075   -0.6692 O   0  0  0  0  0  0  0  0  0  0  0  0
    1.5948    2.7236   -0.5401 C   0  0  2  0  0  0  0  0  0  0  0  0
    1.2204    2.9568    0.9279 C   0  0  0  0  0  0  0  0  0  0  0  0
    0.7858    1.7062   -1.1208 O   0  0  0  0  0  0  0  0  0  0  0  0
    1.5449    0.5233   -1.1294 C   0  0  2  0  0  0  0  0  0  0  0  0
   -0.0700    1.2758    1.2851 H   0  0  0  0  0  0  0  0  0  0  0  0
    0.7208    1.8874    2.7306 H   0  0  0  0  0  0  0  0  0  0  0  0
    2.8780    0.8941    2.0239 H   0  0  0  0  0  0  0  0  0  0  0  0
    1.6018   -0.3027    2.1507 H   0  0  0  0  0  0  0  0  0  0  0  0
    2.5372   -0.9827    0.0924 H   0  0  0  0  0  0  0  0  0  0  0  0
    3.8320    0.5855   -1.4336 H   0  0  0  0  0  0  0  0  0  0  0  0
    1.4686    3.6403   -1.1281 H   0  0  0  0  0  0  0  0  0  0  0  0
    2.0598    3.4816    1.3982 H   0  0  0  0  0  0  0  0  0  0  0  0
    0.3573    3.6319    0.9654 H   0  0  0  0  0  0  0  0  0  0  0  0
    1.2019   -0.1783   -1.8794 H   0  0  0  0  0  0  0  0  0  0  0  0
  1 11  1  0  0  0  0
  2  1  1  0  0  0  0
  2 12  1  0  0  0  0
  2 13  1  0  0  0  0
  3 14  1  6  0  0  0
  3  2  1  0  0  0  0
  4 15  1  6  0  0  0
  4  5  1  0  0  0  0
  4  3  1  0  0  0  0
  5  6  1  0  0  0  0
  6 16  1  6  0  0  0
  6  7  1  0  0  0  0
  7 18  1  0  0  0  0
  7 17  1  0  0  0  0
  7  1  1  0  0  0  0
  8  6  1  0  0  0  0
  9 19  1  6  0  0  0
  9  8  1  0  0  0  0
  9  4  1  0  0  0  0
  9  3  1  0  0  0  0
 10  1  1  0  0  0  0
M TOR 0 0 1 2 3
M TOR 1 0 1 2 8
M TOR 2 0 1 2 13
M TOR 3 0 6 5 4
M TOR 4 0 6 5 7
M TOR 5 0 6 5 15
M TOR 6 1 0 6 5
M TOR 7 1 0 6 16
M TOR 8 1 0 6 17
M TOR 9 1 2 3 4
M TOR 10 1 2 3 8
M TOR 11 1 2 3 14
M TOR 12 1 2 8 7
M TOR 13 1 2 8 18
M TOR 14 2 1 0 6
M TOR 15 2 1 0 9
M TOR 16 2 1 0 10
M TOR 17 2 3 4 5
M TOR 18 2 3 8 7
M TOR 19 2 3 8 18
M TOR 20 2 8 3 4
M TOR 21 2 8 3 14
M TOR 22 2 8 7 5
M TOR 23 3 2 1 11
M TOR 24 3 2 1 12
M TOR 25 3 4 5 6
M TOR 26 3 4 5 7
M TOR 27 3 4 5 15
M TOR 28 3 8 2 13
M TOR 29 3 8 7 5
M TOR 30 4 3 2 13
M TOR 31 4 3 8 7
M TOR 32 4 3 8 18
M TOR 33 4 5 6 16
M TOR 34 4 5 6 17
M TOR 35 4 5 7 8
M TOR 36 5 4 3 8
M TOR 37 5 4 3 14
M TOR 38 5 6 0 9
M TOR 39 5 6 0 10
M TOR 40 5 7 8 18
M TOR 41 6 0 1 11
M TOR 42 6 0 1 12
M TOR 43 6 5 7 8
M TOR 44 7 5 6 16
M TOR 45 7 5 6 17
M TOR 46 7 8 2 13
M TOR 47 7 8 3 14
M TOR 48 8 2 1 11
M TOR 49 8 2 1 12
M TOR 50 8 7 5 15
M  END
$$$$
