gdb 5334	2.2311195	1.2925103	0.8687067	3.3139	79.12	-0.23741	-0.04261	0.1948	1343.2927	0.156257	-422.596821	-422.587453	-422.586509	-422.631597	33.809
 OpenBabel02181911423D

 19 19  0  0  1  0  0  0  0  0999 V2000
    4.1006    2.1046   -1.3684 C   0  0  0  0  0  0  0  0  0  0  0  0
    2.7764    1.3251   -1.3855 C   0  0  2  0  0  0  0  0  0  0  0  0
    1.5276    2.1906   -1.1029 C   0  0  0  0  0  0  0  0  0  0  0  0
    0.8303    1.5330    0.0951 C   0  0  0  0  0  0  0  0  0  0  0  0
   -0.1992    1.8962    0.6186 O   0  0  0  0  0  0  0  0  0  0  0  0
    1.6551    0.3660    0.5012 C   0  0  0  0  0  0  0  0  0  0  0  0
    1.2780   -0.5039    1.6629 C   0  0  0  0  0  0  0  0  0  0  0  0
    2.2862   -1.4282    2.0351 O   0  0  0  0  0  0  0  0  0  0  0  0
    2.7128    0.2600   -0.3135 C   0  0  0  0  0  0  0  0  0  0  0  0
    4.2386    2.6173   -0.4103 H   0  0  0  0  0  0  0  0  0  0  0  0
    4.9550    1.4365   -1.5193 H   0  0  0  0  0  0  0  0  0  0  0  0
    4.1185    2.8581   -2.1619 H   0  0  0  0  0  0  0  0  0  0  0  0
    2.6885    0.8397   -2.3673 H   0  0  0  0  0  0  0  0  0  0  0  0
    1.7860    3.2227   -0.8434 H   0  0  0  0  0  0  0  0  0  0  0  0
    0.8346    2.2438   -1.9477 H   0  0  0  0  0  0  0  0  0  0  0  0
    0.9662    0.1337    2.5040 H   0  0  0  0  0  0  0  0  0  0  0  0
    0.3977   -1.1030    1.4012 H   0  0  0  0  0  0  0  0  0  0  0  0
    3.0273   -0.9240    2.3863 H   0  0  0  0  0  0  0  0  0  0  0  0
    3.4698   -0.5140   -0.2328 H   0  0  0  0  0  0  0  0  0  0  0  0
  1 10  1  0  0  0  0
  2 13  1  6  0  0  0
  2  1  1  0  0  0  0
  2  3  1  0  0  0  0
  2  9  1  0  0  0  0
  3 14  1  0  0  0  0
  3  4  1  0  0  0  0
  4  6  1  0  0  0  0
  4  5  2  0  0  0  0
  6  7  1  0  0  0  0
  7  8  1  0  0  0  0
  7 16  1  0  0  0  0
  8 18  1  0  0  0  0
  9 19  1  0  0  0  0
  9  6  2  0  0  0  0
 11  1  1  0  0  0  0
 12  1  1  0  0  0  0
 15  3  1  0  0  0  0
 17  7  1  0  0  0  0
M TOR 0 0 1 2 3
M TOR 1 0 1 2 13
M TOR 2 0 1 2 14
M TOR 3 0 1 8 5
M TOR 4 0 1 8 18
M TOR 5 1 2 3 4
M TOR 6 1 2 3 5
M TOR 7 1 8 5 3
M TOR 8 1 8 5 6
M TOR 9 2 1 0 9
M TOR 10 2 1 0 10
M TOR 11 2 1 0 11
M TOR 12 2 1 8 5
M TOR 13 2 1 8 18
M TOR 14 2 3 5 6
M TOR 15 2 3 5 8
M TOR 16 3 2 1 8
M TOR 17 3 2 1 12
M TOR 18 3 5 6 7
M TOR 19 3 5 6 15
M TOR 20 3 5 6 16
M TOR 21 3 5 8 18
M TOR 22 4 3 2 13
M TOR 23 4 3 2 14
M TOR 24 4 3 5 6
M TOR 25 4 3 5 8
M TOR 26 5 3 2 13
M TOR 27 5 3 2 14
M TOR 28 5 6 7 17
M TOR 29 5 8 1 12
M TOR 30 6 5 8 18
M TOR 31 7 6 5 8
M TOR 32 8 1 0 9
M TOR 33 8 1 0 10
M TOR 34 8 1 0 11
M TOR 35 8 1 2 13
M TOR 36 8 1 2 14
M TOR 37 8 5 6 15
M TOR 38 8 5 6 16
M  END
$$$$
