gdb 2872	3.1586999	1.5136044	1.408987	0.5287	72.82	-0.25055	0.07409	0.32464	985.7956	0.159574	-422.5779	-422.570465	-422.569521	-422.609203	30.396
 OpenBabel02181911413D

 19 21  0  0  1  0  0  0  0  0999 V2000
   -2.5252    1.4014    3.7115 O   0  0  0  0  0  0  0  0  0  0  0  0
   -2.3628    1.0752    2.3451 C   0  0  2  0  0  0  0  0  0  0  0  0
   -3.5508    0.3643    1.7049 C   0  0  2  0  0  0  0  0  0  0  0  0
   -3.2964   -1.1290    1.8453 C   0  0  2  0  0  0  0  0  0  0  0  0
   -1.9565   -1.2991    2.5600 C   0  0  0  0  0  0  0  0  0  0  0  0
   -1.2986   -0.0103    2.0225 C   0  0  1  0  0  0  0  0  0  0  0  0
   -1.5086   -0.1676    0.4926 C   0  0  1  0  0  0  0  0  0  0  0  0
   -0.8426   -1.2678   -0.1045 O   0  0  0  0  0  0  0  0  0  0  0  0
   -3.0061   -0.4286    0.5341 C   0  0  2  0  0  0  0  0  0  0  0  0
   -2.9378    0.6487    4.1473 H   0  0  0  0  0  0  0  0  0  0  0  0
   -2.1240    2.0233    1.8518 H   0  0  0  0  0  0  0  0  0  0  0  0
   -4.5456    0.7906    1.7034 H   0  0  0  0  0  0  0  0  0  0  0  0
   -4.1089   -1.8371    1.9367 H   0  0  0  0  0  0  0  0  0  0  0  0
   -2.0355   -1.3132    3.6524 H   0  0  0  0  0  0  0  0  0  0  0  0
   -1.4216   -2.1944    2.2355 H   0  0  0  0  0  0  0  0  0  0  0  0
   -0.2848    0.2099    2.3565 H   0  0  0  0  0  0  0  0  0  0  0  0
   -1.2673    0.7634   -0.0419 H   0  0  0  0  0  0  0  0  0  0  0  0
    0.0992   -1.0700   -0.1235 H   0  0  0  0  0  0  0  0  0  0  0  0
   -3.5805   -0.6116   -0.3640 H   0  0  0  0  0  0  0  0  0  0  0  0
  1 10  1  0  0  0  0
  2 11  1  6  0  0  0
  2  1  1  0  0  0  0
  3 12  1  1  0  0  0
  3  4  1  0  0  0  0
  3  2  1  0  0  0  0
  4 13  1  1  0  0  0
  4  5  1  0  0  0  0
  5 14  1  0  0  0  0
  6  2  1  0  0  0  0
  6 16  1  1  0  0  0
  6  5  1  0  0  0  0
  7 17  1  6  0  0  0
  7  9  1  0  0  0  0
  7  6  1  0  0  0  0
  8  7  1  0  0  0  0
  9 19  1  6  0  0  0
  9  3  1  0  0  0  0
  9  4  1  0  0  0  0
 15  5  1  0  0  0  0
 18  8  1  0  0  0  0
M TOR 0 0 1 2 3
M TOR 1 0 1 2 8
M TOR 2 0 1 2 11
M TOR 3 0 1 5 4
M TOR 4 0 1 5 6
M TOR 5 0 1 5 15
M TOR 6 1 2 3 4
M TOR 7 1 2 3 8
M TOR 8 1 2 3 12
M TOR 9 1 2 8 6
M TOR 10 1 2 8 18
M TOR 11 1 5 4 3
M TOR 12 1 5 4 13
M TOR 13 1 5 4 14
M TOR 14 1 5 6 7
M TOR 15 1 5 6 8
M TOR 16 1 5 6 16
M TOR 17 2 1 0 9
M TOR 18 2 1 5 4
M TOR 19 2 1 5 6
M TOR 20 2 1 5 15
M TOR 21 2 3 4 5
M TOR 22 2 3 4 13
M TOR 23 2 3 4 14
M TOR 24 2 3 8 6
M TOR 25 2 3 8 18
M TOR 26 2 8 3 4
M TOR 27 2 8 3 12
M TOR 28 2 8 6 5
M TOR 29 2 8 6 7
M TOR 30 2 8 6 16
M TOR 31 3 2 1 5
M TOR 32 3 2 1 10
M TOR 33 3 4 5 6
M TOR 34 3 4 5 15
M TOR 35 3 8 2 11
M TOR 36 3 8 6 5
M TOR 37 3 8 6 7
M TOR 38 3 8 6 16
M TOR 39 4 3 2 11
M TOR 40 4 3 8 6
M TOR 41 4 3 8 18
M TOR 42 4 5 1 10
M TOR 43 4 5 6 7
M TOR 44 4 5 6 8
M TOR 45 4 5 6 16
M TOR 46 5 1 0 9
M TOR 47 5 1 2 8
M TOR 48 5 1 2 11
M TOR 49 5 4 3 8
M TOR 50 5 4 3 12
M TOR 51 5 6 7 17
M TOR 52 5 6 8 18
M TOR 53 6 5 1 10
M TOR 54 6 5 4 13
M TOR 55 6 5 4 14
M TOR 56 6 8 2 11
M TOR 57 6 8 3 12
M TOR 58 7 6 5 15
M TOR 59 7 6 8 18
M TOR 60 8 2 1 10
M TOR 61 8 3 4 13
M TOR 62 8 3 4 14
M TOR 63 8 6 5 15
M TOR 64 8 6 7 17
M  END
$$$$
