gdb 6020	3.27508	1.0214127	0.8968164	2.5012	77.21	-0.24253	0.01205	0.25458	1358.5986	0.156247	-422.508644	-422.499902	-422.498958	-422.542836	31.705
 OpenBabel02181911423D

 19 20  0  0  1  0  0  0  0  0999 V2000
    1.3769    0.0223   -0.2511 C   0  0  0  0  0  0  0  0  0  0  0  0
   -0.0071   -0.0341    0.0040 O   0  0  0  0  0  0  0  0  0  0  0  0
   -0.3729    0.6235    1.1982 C   0  0  0  0  0  0  0  0  0  0  0  0
   -1.8752    0.5058    1.3483 C   0  0  1  0  0  0  0  0  0  0  0  0
   -2.5176   -0.8616    1.7804 C   0  0  2  0  0  0  0  0  0  0  0  0
   -3.7658   -0.0102    2.1999 C   0  0  0  0  0  0  0  0  0  0  0  0
   -2.5598    0.8475    2.7181 C   0  0  1  0  0  0  0  0  0  0  0  0
   -2.0013   -0.5108    3.1858 C   0  0  0  0  0  0  0  0  0  0  0  0
   -1.4760   -1.0139    4.1293 O   0  0  0  0  0  0  0  0  0  0  0  0
    1.9599   -0.4600    0.5491 H   0  0  0  0  0  0  0  0  0  0  0  0
    1.5581   -0.5078   -1.1891 H   0  0  0  0  0  0  0  0  0  0  0  0
    1.7308    1.0604   -0.3546 H   0  0  0  0  0  0  0  0  0  0  0  0
    0.1479    0.1779    2.0625 H   0  0  0  0  0  0  0  0  0  0  0  0
   -0.0804    1.6877    1.1584 H   0  0  0  0  0  0  0  0  0  0  0  0
   -2.3891    0.9521    0.4921 H   0  0  0  0  0  0  0  0  0  0  0  0
   -2.4983   -1.8047    1.2404 H   0  0  0  0  0  0  0  0  0  0  0  0
   -4.3084    0.4358    1.3635 H   0  0  0  0  0  0  0  0  0  0  0  0
   -4.4405   -0.4334    2.9456 H   0  0  0  0  0  0  0  0  0  0  0  0
   -2.5921    1.8064    3.2311 H   0  0  0  0  0  0  0  0  0  0  0  0
  1  2  1  0  0  0  0
  1 10  1  0  0  0  0
  2  3  1  0  0  0  0
  3  4  1  0  0  0  0
  3 13  1  0  0  0  0
  4 15  1  6  0  0  0
  4  5  1  0  0  0  0
  4  7  1  0  0  0  0
  5 16  1  6  0  0  0
  5  6  1  0  0  0  0
  5  8  1  0  0  0  0
  6  7  1  0  0  0  0
  6 18  1  0  0  0  0
  7  8  1  0  0  0  0
  7 19  1  1  0  0  0
  8  9  2  0  0  0  0
 11  1  1  0  0  0  0
 12  1  1  0  0  0  0
 14  3  1  0  0  0  0
 17  6  1  0  0  0  0
M TOR 0 0 1 2 3
M TOR 1 0 1 2 12
M TOR 2 0 1 2 13
M TOR 3 1 2 3 4
M TOR 4 1 2 3 6
M TOR 5 1 2 3 14
M TOR 6 2 1 0 9
M TOR 7 2 1 0 10
M TOR 8 2 1 0 11
M TOR 9 2 3 4 5
M TOR 10 2 3 4 7
M TOR 11 2 3 4 15
M TOR 12 2 3 6 5
M TOR 13 2 3 6 7
M TOR 14 2 3 6 18
M TOR 15 3 4 5 6
M TOR 16 3 4 5 16
M TOR 17 3 4 5 17
M TOR 18 3 4 7 6
M TOR 19 3 4 7 8
M TOR 20 3 6 5 16
M TOR 21 3 6 5 17
M TOR 22 3 6 7 8
M TOR 23 4 3 2 12
M TOR 24 4 3 2 13
M TOR 25 4 3 6 18
M TOR 26 4 5 6 7
M TOR 27 4 5 6 18
M TOR 28 4 7 6 18
M TOR 29 5 4 3 14
M TOR 30 5 4 7 8
M TOR 31 5 6 3 14
M TOR 32 5 6 7 8
M TOR 33 6 3 2 12
M TOR 34 6 3 2 13
M TOR 35 6 3 4 15
M TOR 36 6 5 4 15
M TOR 37 6 7 4 15
M TOR 38 7 4 3 14
M TOR 39 7 4 5 16
M TOR 40 7 4 5 17
M TOR 41 7 6 3 14
M TOR 42 7 6 5 16
M TOR 43 7 6 5 17
M TOR 44 8 7 4 15
M TOR 45 8 7 6 18
M  END
$$$$
