
     RDKit          3D

 19 21  0  0  0  0  0  0  0  0999 V2000
   -2.2074    4.1896   -0.1100 C   0  0  0  0  0  0  0  0  0  0  0  0
   -3.2534    3.2047   -0.1162 O   0  0  0  0  0  0  0  0  0  0  0  0
   -1.9151    2.7561   -0.0834 C   0  0  0  0  0  0  0  0  0  0  0  0
   -1.2491    1.8880   -1.1531 C   0  0  0  0  0  0  0  0  0  0  0  0
   -0.3455    1.3038   -0.0316 C   0  0  0  0  0  0  0  0  0  0  0  0
    1.1645    1.6230   -0.0066 C   0  0  0  0  0  0  0  0  0  0  0  0
    1.5076    0.2240    0.0203 O   0  0  0  0  0  0  0  0  0  0  0  0
    0.1183   -0.1620   -0.0012 C   0  0  0  0  0  0  0  0  0  0  0  0
   -1.2921    1.9197    1.0363 C   0  0  0  0  0  0  0  0  0  0  0  0
   -2.0912    4.7508   -1.0366 H   0  0  0  0  0  0  0  0  0  0  0  0
   -2.1274    4.7775    0.8039 H   0  0  0  0  0  0  0  0  0  0  0  0
   -1.9442    1.1415   -1.5518 H   0  0  0  0  0  0  0  0  0  0  0  0
   -0.7523    2.3916   -1.9868 H   0  0  0  0  0  0  0  0  0  0  0  0
    1.5581    2.1256   -0.9003 H   0  0  0  0  0  0  0  0  0  0  0  0
    1.5230    2.1514    0.8871 H   0  0  0  0  0  0  0  0  0  0  0  0
   -0.1315   -0.7544   -0.8917 H   0  0  0  0  0  0  0  0  0  0  0  0
   -0.1665   -0.7285    0.8956 H   0  0  0  0  0  0  0  0  0  0  0  0
   -2.0027    1.1847    1.4288 H   0  0  0  0  0  0  0  0  0  0  0  0
   -0.8282    2.4475    1.8739 H   0  0  0  0  0  0  0  0  0  0  0  0
  1  2  1  0
  2  3  1  0
  3  4  1  0
  4  5  1  0
  5  6  1  0
  6  7  1  0
  7  8  1  0
  5  9  1  0
  3  1  1  0
  9  3  1  0
  8  5  1  0
  1 10  1  0
  1 11  1  0
  4 12  1  0
  4 13  1  0
  6 14  1  0
  6 15  1  0
  8 16  1  0
  8 17  1  0
  9 18  1  0
  9 19  1  0
M  END
$$$$
