
     RDKit          3D

 19 20  0  0  0  0  0  0  0  0999 V2000
   -1.7010   -0.6483    2.5591 C   0  0  0  0  0  0  0  0  0  0  0  0
   -1.9462   -1.2612    1.1982 C   0  0  0  0  0  0  0  0  0  0  0  0
   -2.3278   -0.4675   -0.0101 C   0  0  0  0  0  0  0  0  0  0  0  0
   -2.1629    0.9325    0.0708 O   0  0  0  0  0  0  0  0  0  0  0  0
   -0.7828    1.2646    0.0525 C   0  0  0  0  0  0  0  0  0  0  0  0
    0.0064   -0.0480    0.0197 C   0  0  0  0  0  0  0  0  0  0  0  0
    1.2054   -0.1410   -0.0689 O   0  0  0  0  0  0  0  0  0  0  0  0
   -0.9863   -1.1689   -0.0087 C   0  0  0  0  0  0  0  0  0  0  0  0
   -0.6087   -2.4082   -0.7830 C   0  0  0  0  0  0  0  0  0  0  0  0
   -0.9247   -1.1925    3.1061 H   0  0  0  0  0  0  0  0  0  0  0  0
   -1.4032    0.4000    2.4961 H   0  0  0  0  0  0  0  0  0  0  0  0
   -2.6193   -0.6862    3.1546 H   0  0  0  0  0  0  0  0  0  0  0  0
   -2.4044   -2.2478    1.2379 H   0  0  0  0  0  0  0  0  0  0  0  0
   -3.1511   -0.7574   -0.6551 H   0  0  0  0  0  0  0  0  0  0  0  0
   -0.5434    1.8494   -0.8461 H   0  0  0  0  0  0  0  0  0  0  0  0
   -0.5115    1.8671    0.9280 H   0  0  0  0  0  0  0  0  0  0  0  0
    0.2787   -2.8731   -0.3425 H   0  0  0  0  0  0  0  0  0  0  0  0
   -1.4204   -3.1412   -0.7744 H   0  0  0  0  0  0  0  0  0  0  0  0
   -0.3738   -2.1710   -1.8256 H   0  0  0  0  0  0  0  0  0  0  0  0
  1  2  1  0
  2  3  1  0
  3  4  1  0
  4  5  1  0
  5  6  1  0
  6  7  2  0
  6  8  1  0
  8  9  1  0
  8  2  1  0
  8  3  1  0
  1 10  1  0
  1 11  1  0
  1 12  1  0
  2 13  1  0
  3 14  1  0
  5 15  1  0
  5 16  1  0
  9 17  1  0
  9 18  1  0
  9 19  1  0
M  END
$$$$
