gdb 3978	2.7871612	1.4745206	1.2900723	2.3963	77.72	-0.23475	0.00721	0.24195999999999998	1073.6606	0.156543	-422.524782	-422.516321	-422.515377	-422.557647	32.193
 OpenBabel02181911413D

 19 20  0  0  1  0  0  0  0  0999 V2000
   -0.0515    1.4817    0.2531 C   0  0  0  0  0  0  0  0  0  0  0  0
    0.0583   -0.0102    0.0158 C   0  0  2  0  0  0  0  0  0  0  0  0
   -1.1809   -0.7339    0.3418 O   0  0  0  0  0  0  0  0  0  0  0  0
   -0.4433   -1.7298    1.1055 C   0  0  2  0  0  0  0  0  0  0  0  0
   -0.6518   -1.9541    2.6247 C   0  0  2  0  0  0  0  0  0  0  0  0
   -1.4383   -0.8936    3.1278 O   0  0  0  0  0  0  0  0  0  0  0  0
    0.8334   -1.8675    3.1335 C   0  0  0  0  0  0  0  0  0  0  0  0
    1.4618   -0.8477    2.1821 C   0  0  0  0  0  3  0  0  0  0  0  0
    0.7626   -0.8555    1.0543 C   0  0  2  0  0  3  0  0  0  0  0  0
    0.9106    1.9694    0.0626 H   0  0  0  0  0  0  0  0  0  0  0  0
   -0.7960    1.9180   -0.4200 H   0  0  0  0  0  0  0  0  0  0  0  0
   -0.3543    1.6704    1.2855 H   0  0  0  0  0  0  0  0  0  0  0  0
    0.3423   -0.2277   -1.0234 H   0  0  0  0  0  0  0  0  0  0  0  0
   -0.4172   -2.6859    0.5644 H   0  0  0  0  0  0  0  0  0  0  0  0
   -1.1083   -2.9281    2.8548 H   0  0  0  0  0  0  0  0  0  0  0  0
   -1.4952   -0.9990    4.0826 H   0  0  0  0  0  0  0  0  0  0  0  0
    0.8689   -1.5361    4.1783 H   0  0  0  0  0  0  0  0  0  0  0  0
    1.3204   -2.8520    3.0994 H   0  0  0  0  0  0  0  0  0  0  0  0
    2.2541   -0.1690    2.4735 H   0  0  0  0  0  0  0  0  0  0  0  0
  1 12  1  0  0  0  0
  2 13  1  6  0  0  0
  2  1  1  0  0  0  0
  2  3  1  0  0  0  0
  2  9  1  0  0  0  0
  3  4  1  0  0  0  0
  4 14  1  6  0  0  0
  4  5  1  0  0  0  0
  5 15  1  1  0  0  0
  5  6  1  0  0  0  0
  5  7  1  0  0  0  0
  6 16  1  0  0  0  0
  7 17  1  0  0  0  0
  8 19  1  0  0  0  0
  8  7  1  0  0  0  0
  9  4  1  0  0  0  0
  9  8  1  1  0  0  0
 10  1  1  0  0  0  0
 11  1  1  0  0  0  0
 18  7  1  0  0  0  0
M TOR 0 0 1 2 3
M TOR 1 0 1 8 3
M TOR 2 0 1 8 7
M TOR 3 1 2 3 4
M TOR 4 1 2 3 8
M TOR 5 1 2 3 13
M TOR 6 1 8 3 4
M TOR 7 1 8 3 13
M TOR 8 1 8 7 6
M TOR 9 1 8 7 18
M TOR 10 2 1 0 9
M TOR 11 2 1 0 10
M TOR 12 2 1 0 11
M TOR 13 2 1 8 7
M TOR 14 2 3 4 5
M TOR 15 2 3 4 6
M TOR 16 2 3 4 14
M TOR 17 2 3 8 7
M TOR 18 3 2 1 12
M TOR 19 3 4 5 15
M TOR 20 3 4 6 7
M TOR 21 3 4 6 16
M TOR 22 3 4 6 17
M TOR 23 3 8 1 12
M TOR 24 3 8 7 6
M TOR 25 3 8 7 18
M TOR 26 4 3 8 7
M TOR 27 4 6 7 8
M TOR 28 4 6 7 18
M TOR 29 5 4 3 8
M TOR 30 5 4 3 13
M TOR 31 5 4 6 7
M TOR 32 5 4 6 16
M TOR 33 5 4 6 17
M TOR 34 6 4 3 8
M TOR 35 6 4 3 13
M TOR 36 6 4 5 15
M TOR 37 7 6 4 14
M TOR 38 7 8 1 12
M TOR 39 7 8 3 13
M TOR 40 8 1 0 9
M TOR 41 8 1 0 10
M TOR 42 8 1 0 11
M TOR 43 8 3 4 14
M TOR 44 8 7 6 16
M TOR 45 8 7 6 17
M  END
$$$$
