gdb 4329	2.7223641	1.5256621	1.114029	1.57	76.14	-0.24258	-0.00152	0.24106	1123.011	0.156769	-422.562432	-422.553942	-422.552997	-422.595058	32.894
 OpenBabel02181911413D

 19 20  0  0  1  0  0  0  0  0999 V2000
   -2.4069    3.5250    2.7708 C   0  0  0  0  0  0  0  0  0  0  0  0
   -2.1721    2.2649    1.9744 C   0  0  2  0  0  0  0  0  0  0  0  0
   -1.0287    1.4779    2.4160 O   0  0  0  0  0  0  0  0  0  0  0  0
   -0.9704    2.1179    1.1361 C   0  0  1  0  0  0  0  0  0  0  0  0
   -0.9921    1.2109   -0.0745 C   0  0  1  0  0  0  0  0  0  0  0  0
    0.3103    0.7321   -0.3888 O   0  0  0  0  0  0  0  0  0  0  0  0
   -1.9948    0.0513    0.0837 C   0  0  0  0  0  0  0  0  0  0  0  0
   -3.2985    0.4691    0.7115 C   0  0  0  0  0  0  0  0  0  0  0  0
   -3.3747    1.4739    1.5841 C   0  0  0  0  0  0  0  0  0  0  0  0
   -2.9179    3.2942    3.7119 H   0  0  0  0  0  0  0  0  0  0  0  0
   -1.4599    4.0155    3.0068 H   0  0  0  0  0  0  0  0  0  0  0  0
   -3.0360    4.2252    2.2106 H   0  0  0  0  0  0  0  0  0  0  0  0
   -0.2635    2.9468    1.0731 H   0  0  0  0  0  0  0  0  0  0  0  0
   -1.2812    1.8240   -0.9376 H   0  0  0  0  0  0  0  0  0  0  0  0
    0.6346    0.2643    0.3898 H   0  0  0  0  0  0  0  0  0  0  0  0
   -2.1561   -0.4175   -0.8914 H   0  0  0  0  0  0  0  0  0  0  0  0
   -1.5267   -0.7133    0.7195 H   0  0  0  0  0  0  0  0  0  0  0  0
   -4.1867   -0.1053    0.4634 H   0  0  0  0  0  0  0  0  0  0  0  0
   -4.3195    1.7446    2.0463 H   0  0  0  0  0  0  0  0  0  0  0  0
  1 11  1  0  0  0  0
  1 10  1  0  0  0  0
  2  3  1  0  0  0  0
  2  1  1  1  0  0  0
  4 13  1  6  0  0  0
  4  2  1  0  0  0  0
  4  3  1  0  0  0  0
  5 14  1  6  0  0  0
  5  7  1  0  0  0  0
  5  4  1  0  0  0  0
  6  5  1  0  0  0  0
  6 15  1  0  0  0  0
  7  8  1  0  0  0  0
  7 17  1  0  0  0  0
  8  9  2  0  0  0  0
  9  2  1  0  0  0  0
  9 19  1  0  0  0  0
 12  1  1  0  0  0  0
 16  7  1  0  0  0  0
 18  8  1  0  0  0  0
M TOR 0 0 1 2 3
M TOR 1 0 1 3 4
M TOR 2 0 1 3 12
M TOR 3 0 1 8 7
M TOR 4 0 1 8 18
M TOR 5 1 2 3 4
M TOR 6 1 2 3 12
M TOR 7 1 3 4 5
M TOR 8 1 3 4 6
M TOR 9 1 3 4 13
M TOR 10 1 8 7 6
M TOR 11 1 8 7 17
M TOR 12 2 1 0 9
M TOR 13 2 1 0 10
M TOR 14 2 1 0 11
M TOR 15 2 1 8 7
M TOR 16 2 1 8 18
M TOR 17 2 3 1 8
M TOR 18 2 3 4 5
M TOR 19 2 3 4 6
M TOR 20 2 3 4 13
M TOR 21 3 1 0 9
M TOR 22 3 1 0 10
M TOR 23 3 1 0 11
M TOR 24 3 1 8 7
M TOR 25 3 1 8 18
M TOR 26 3 4 5 14
M TOR 27 3 4 6 7
M TOR 28 3 4 6 15
M TOR 29 3 4 6 16
M TOR 30 4 3 1 8
M TOR 31 4 6 7 8
M TOR 32 4 6 7 17
M TOR 33 5 4 3 12
M TOR 34 5 4 6 7
M TOR 35 5 4 6 15
M TOR 36 5 4 6 16
M TOR 37 6 4 3 12
M TOR 38 6 4 5 14
M TOR 39 6 7 8 18
M TOR 40 7 6 4 13
M TOR 41 8 1 0 9
M TOR 42 8 1 0 10
M TOR 43 8 1 0 11
M TOR 44 8 1 3 12
M TOR 45 8 7 6 15
M TOR 46 8 7 6 16
M  END
$$$$
