
     RDKit          3D

 19 20  0  0  0  0  0  0  0  0999 V2000
   -0.3139    0.1763    0.2983 C   0  0  0  0  0  0  0  0  0  0  0  0
    1.1592   -0.1476    0.1346 C   0  0  0  0  0  0  0  0  0  0  0  0
    1.7283   -1.0233    1.2009 C   0  0  0  0  0  0  0  0  0  0  0  0
    2.8775   -1.3955    1.2527 O   0  0  0  0  0  0  0  0  0  0  0  0
    1.8296   -0.3625   -1.2272 C   0  0  0  0  0  0  0  0  0  0  0  0
    1.1093    0.1508   -2.4581 C   0  0  0  0  0  0  0  0  0  0  0  0
    0.7694    1.5103   -2.1883 O   0  0  0  0  0  0  0  0  0  0  0  0
    1.6626    2.0346   -1.2064 C   0  0  0  0  0  0  0  0  0  0  0  0
    2.1845    0.8456   -0.4245 C   0  0  0  0  0  0  0  0  0  0  0  0
   -0.4947    0.6884    1.2502 H   0  0  0  0  0  0  0  0  0  0  0  0
   -0.6781    0.8168   -0.5047 H   0  0  0  0  0  0  0  0  0  0  0  0
   -0.9144   -0.7405    0.3007 H   0  0  0  0  0  0  0  0  0  0  0  0
    0.9969   -1.3282    1.9830 H   0  0  0  0  0  0  0  0  0  0  0  0
    2.5138   -1.1982   -1.3109 H   0  0  0  0  0  0  0  0  0  0  0  0
    1.7793    0.0735   -3.3290 H   0  0  0  0  0  0  0  0  0  0  0  0
    0.1787   -0.3755   -2.6965 H   0  0  0  0  0  0  0  0  0  0  0  0
    2.5091    2.5585   -1.6779 H   0  0  0  0  0  0  0  0  0  0  0  0
    1.1003    2.7624   -0.6115 H   0  0  0  0  0  0  0  0  0  0  0  0
    3.1341    0.9137    0.0924 H   0  0  0  0  0  0  0  0  0  0  0  0
  1  2  1  0
  2  3  1  0
  3  4  2  0
  2  5  1  0
  5  6  1  0
  6  7  1  0
  7  8  1  0
  8  9  1  0
  9  2  1  0
  9  5  1  0
  1 10  1  0
  1 11  1  0
  1 12  1  0
  3 13  1  0
  5 14  1  0
  6 15  1  0
  6 16  1  0
  8 17  1  0
  8 18  1  0
  9 19  1  0
M  END
$$$$
