
     RDKit          3D

 19 20  0  0  0  0  0  0  0  0999 V2000
    2.1207   -0.9338    1.2930 C   0  0  0  0  0  0  0  0  0  0  0  0
    1.8575   -2.3068    0.6632 C   0  0  0  0  0  0  0  0  0  0  0  0
    2.0987   -2.3136   -0.8372 C   0  0  0  0  0  0  0  0  0  0  0  0
    1.4993   -3.4635   -1.6900 C   0  0  0  0  0  0  0  0  0  0  0  0
    0.1470   -2.9232   -1.4620 O   0  0  0  0  0  0  0  0  0  0  0  0
    1.0003   -1.7483   -1.7891 C   0  0  0  0  0  0  0  0  0  0  0  0
    1.5760   -2.5598   -2.9756 C   0  0  0  0  0  0  0  0  0  0  0  0
    2.8794   -2.2375   -3.6488 C   0  0  0  0  0  0  0  0  0  0  0  0
    3.6094   -1.3183   -3.3678 O   0  0  0  0  0  0  0  0  0  0  0  0
    1.9650   -0.9621    2.3756 H   0  0  0  0  0  0  0  0  0  0  0  0
    3.1484   -0.6007    1.1115 H   0  0  0  0  0  0  0  0  0  0  0  0
    1.4495   -0.1724    0.8816 H   0  0  0  0  0  0  0  0  0  0  0  0
    2.5187   -3.0513    1.1258 H   0  0  0  0  0  0  0  0  0  0  0  0
    0.8306   -2.6259    0.8615 H   0  0  0  0  0  0  0  0  0  0  0  0
    3.1163   -2.0134   -1.0953 H   0  0  0  0  0  0  0  0  0  0  0  0
    1.6315   -4.5440   -1.6172 H   0  0  0  0  0  0  0  0  0  0  0  0
    0.5221   -0.7694   -1.8086 H   0  0  0  0  0  0  0  0  0  0  0  0
    0.8216   -2.8632   -3.7070 H   0  0  0  0  0  0  0  0  0  0  0  0
    3.1415   -2.9377   -4.4754 H   0  0  0  0  0  0  0  0  0  0  0  0
  1  2  1  0
  2  3  1  0
  3  4  1  0
  4  5  1  0
  5  6  1  0
  6  7  1  0
  7  8  1  0
  8  9  2  0
  6  3  1  0
  7  4  1  0
  1 10  1  0
  1 11  1  0
  1 12  1  0
  2 13  1  0
  2 14  1  0
  3 15  1  0
  4 16  1  0
  6 17  1  0
  7 18  1  0
  8 19  1  0
M  END
$$$$
