gdb 3931	3.6345787	1.3778683	1.3315029	1.4438	74.98	-0.24585	0.06458	0.31043	1042.0257	0.158051	-422.481442	-422.47421	-422.473265	-422.512633	29.626
 OpenBabel02181911413D

 19 21  0  0  1  0  0  0  0  0999 V2000
    0.1514   -0.3176   -0.3887 C   0  0  0  0  0  0  0  0  0  0  0  0
    0.8219    0.6291    0.5788 C   0  0  2  0  0  0  0  0  0  0  0  0
    2.2030    0.9554    0.1413 O   0  0  0  0  0  0  0  0  0  0  0  0
    2.6141    0.7650    1.4811 C   0  0  2  0  0  0  0  0  0  0  0  0
    2.2388    1.8782    2.5398 C   0  0  0  0  0  0  0  0  0  0  0  0
    1.7541    0.6241    3.2626 C   0  0  2  0  0  0  0  0  0  0  0  0
    3.0265   -0.0895    3.4744 O   0  0  0  0  0  0  0  0  0  0  0  0
    3.7335    0.0336    2.1970 C   0  0  0  0  0  0  0  0  0  0  0  0
    1.3513   -0.0052    1.9111 C   0  0  1  0  0  0  0  0  0  0  0  0
   -0.8531   -0.5688   -0.0314 H   0  0  0  0  0  0  0  0  0  0  0  0
    0.0628    0.1463   -1.3756 H   0  0  0  0  0  0  0  0  0  0  0  0
    0.7290   -1.2403   -0.4922 H   0  0  0  0  0  0  0  0  0  0  0  0
    0.2434    1.5518    0.6901 H   0  0  0  0  0  0  0  0  0  0  0  0
    3.0475    2.4352    3.0148 H   0  0  0  0  0  0  0  0  0  0  0  0
    1.4540    2.5450    2.1866 H   0  0  0  0  0  0  0  0  0  0  0  0
    1.1978    0.5913    4.1979 H   0  0  0  0  0  0  0  0  0  0  0  0
    4.6628    0.5938    2.3428 H   0  0  0  0  0  0  0  0  0  0  0  0
    3.9520   -0.9574    1.7882 H   0  0  0  0  0  0  0  0  0  0  0  0
    1.3561   -1.0961    1.8834 H   0  0  0  0  0  0  0  0  0  0  0  0
  1 10  1  0  0  0  0
  1  2  1  0  0  0  0
  2 13  1  1  0  0  0
  2  9  1  0  0  0  0
  3  2  1  0  0  0  0
  4  3  1  6  0  0  0
  4  9  1  0  0  0  0
  4  8  1  0  0  0  0
  4  5  1  0  0  0  0
  5 14  1  0  0  0  0
  5  6  1  0  0  0  0
  6  7  1  0  0  0  0
  6 16  1  1  0  0  0
  8 17  1  0  0  0  0
  8  7  1  0  0  0  0
  9 19  1  6  0  0  0
  9  6  1  0  0  0  0
 11  1  1  0  0  0  0
 12  1  1  0  0  0  0
 15  5  1  0  0  0  0
 18  8  1  0  0  0  0
M TOR 0 0 1 2 3
M TOR 1 0 1 8 3
M TOR 2 0 1 8 5
M TOR 3 0 1 8 18
M TOR 4 1 2 3 4
M TOR 5 1 2 3 7
M TOR 6 1 2 3 8
M TOR 7 1 8 3 4
M TOR 8 1 8 3 7
M TOR 9 1 8 5 4
M TOR 10 1 8 5 6
M TOR 11 1 8 5 15
M TOR 12 2 1 0 9
M TOR 13 2 1 0 10
M TOR 14 2 1 0 11
M TOR 15 2 1 8 5
M TOR 16 2 1 8 18
M TOR 17 2 3 4 5
M TOR 18 2 3 4 13
M TOR 19 2 3 4 14
M TOR 20 2 3 7 6
M TOR 21 2 3 7 16
M TOR 22 2 3 7 17
M TOR 23 2 3 8 5
M TOR 24 2 3 8 18
M TOR 25 3 2 1 12
M TOR 26 3 4 5 6
M TOR 27 3 4 5 8
M TOR 28 3 4 5 15
M TOR 29 3 7 6 5
M TOR 30 3 8 1 12
M TOR 31 3 8 5 6
M TOR 32 3 8 5 15
M TOR 33 4 3 7 6
M TOR 34 4 3 7 16
M TOR 35 4 3 7 17
M TOR 36 4 3 8 18
M TOR 37 4 5 6 7
M TOR 38 4 5 8 18
M TOR 39 5 4 3 7
M TOR 40 5 6 7 16
M TOR 41 5 6 7 17
M TOR 42 5 8 1 12
M TOR 43 5 8 3 7
M TOR 44 6 5 4 13
M TOR 45 6 5 4 14
M TOR 46 6 5 8 18
M TOR 47 6 7 3 8
M TOR 48 7 3 4 13
M TOR 49 7 3 4 14
M TOR 50 7 3 8 18
M TOR 51 7 6 5 8
M TOR 52 7 6 5 15
M TOR 53 8 1 0 9
M TOR 54 8 1 0 10
M TOR 55 8 1 0 11
M TOR 56 8 3 4 13
M TOR 57 8 3 4 14
M TOR 58 8 3 7 16
M TOR 59 8 3 7 17
M TOR 60 8 5 4 13
M TOR 61 8 5 4 14
M  END
$$$$
