gdb 576	3.7834543	1.3913364	1.2161419	0.0177	74.46	-0.25246	0.09419	0.34665	1053.3088	0.160188	-422.550445	-422.543341	-422.542397	-422.581731	28.105
 OpenBabel02181911403D

 19 21  0  0  1  0  0  0  0  0999 V2000
    1.9920   -0.4753    0.5873 C   0  0  0  0  0  0  0  0  0  0  0  0
    1.1896   -1.3525   -0.2054 O   0  0  0  0  0  0  0  0  0  0  0  0
    0.2435   -0.5727   -0.9321 C   0  0  0  0  0  0  0  0  0  0  0  0
   -0.0443    0.6160   -0.0468 C   0  0  1  0  0  0  0  0  0  0  0  0
   -0.8028    1.8707   -0.4075 C   0  0  0  0  0  0  0  0  0  0  0  0
   -1.0068    2.5465    0.8306 O   0  0  0  0  0  0  0  0  0  0  0  0
   -1.1173    1.5723    1.8700 C   0  0  0  0  0  0  0  0  0  0  0  0
   -0.2728    0.3892    1.4311 C   0  0  2  0  0  0  0  0  0  0  0  0
    1.1097    0.7131    0.9261 C   0  0  1  0  0  0  0  0  0  0  0  0
    2.3335   -1.0522    1.4533 H   0  0  0  0  0  0  0  0  0  0  0  0
    2.8784   -0.1340    0.0286 H   0  0  0  0  0  0  0  0  0  0  0  0
    0.6547   -0.2431   -1.9015 H   0  0  0  0  0  0  0  0  0  0  0  0
   -0.6230   -1.2137   -1.1284 H   0  0  0  0  0  0  0  0  0  0  0  0
   -0.2592    2.5570   -1.0662 H   0  0  0  0  0  0  0  0  0  0  0  0
   -1.7624    1.6180   -0.8901 H   0  0  0  0  0  0  0  0  0  0  0  0
   -0.7826    2.0544    2.7946 H   0  0  0  0  0  0  0  0  0  0  0  0
   -2.1633    1.2533    2.0061 H   0  0  0  0  0  0  0  0  0  0  0  0
   -0.4889   -0.5973    1.8276 H   0  0  0  0  0  0  0  0  0  0  0  0
    1.5679    1.6657    1.1706 H   0  0  0  0  0  0  0  0  0  0  0  0
  1  9  1  0  0  0  0
  1 10  1  0  0  0  0
  2  1  1  0  0  0  0
  3  2  1  0  0  0  0
  4  3  1  6  0  0  0
  4  9  1  0  0  0  0
  4  8  1  0  0  0  0
  5  4  1  0  0  0  0
  5  6  1  0  0  0  0
  6  7  1  0  0  0  0
  7 17  1  0  0  0  0
  7 16  1  0  0  0  0
  8 18  1  1  0  0  0
  8  7  1  0  0  0  0
  9 19  1  1  0  0  0
  9  8  1  0  0  0  0
 11  1  1  0  0  0  0
 12  3  1  0  0  0  0
 13  3  1  0  0  0  0
 14  5  1  0  0  0  0
 15  5  1  0  0  0  0
M TOR 0 0 1 2 3
M TOR 1 0 1 2 11
M TOR 2 0 1 2 12
M TOR 3 0 8 3 2
M TOR 4 0 8 3 4
M TOR 5 0 8 3 7
M TOR 6 0 8 7 6
M TOR 7 0 8 7 17
M TOR 8 1 0 8 3
M TOR 9 1 0 8 7
M TOR 10 1 0 8 18
M TOR 11 1 2 3 4
M TOR 12 1 2 3 7
M TOR 13 1 2 3 8
M TOR 14 2 1 0 8
M TOR 15 2 1 0 9
M TOR 16 2 1 0 10
M TOR 17 2 3 4 5
M TOR 18 2 3 4 13
M TOR 19 2 3 4 14
M TOR 20 2 3 7 6
M TOR 21 2 3 7 8
M TOR 22 2 3 7 17
M TOR 23 2 3 8 18
M TOR 24 3 4 5 6
M TOR 25 3 7 6 5
M TOR 26 3 7 6 15
M TOR 27 3 7 6 16
M TOR 28 3 7 8 18
M TOR 29 3 8 0 9
M TOR 30 3 8 0 10
M TOR 31 3 8 7 6
M TOR 32 3 8 7 17
M TOR 33 4 3 2 11
M TOR 34 4 3 2 12
M TOR 35 4 3 7 6
M TOR 36 4 3 7 8
M TOR 37 4 3 7 17
M TOR 38 4 3 8 18
M TOR 39 4 5 6 7
M TOR 40 4 5 6 15
M TOR 41 4 5 6 16
M TOR 42 5 4 3 7
M TOR 43 5 4 3 8
M TOR 44 5 6 7 8
M TOR 45 5 6 7 17
M TOR 46 6 5 4 13
M TOR 47 6 5 4 14
M TOR 48 6 7 8 18
M TOR 49 7 3 2 11
M TOR 50 7 3 2 12
M TOR 51 7 3 4 13
M TOR 52 7 3 4 14
M TOR 53 7 8 0 9
M TOR 54 7 8 0 10
M TOR 55 8 3 2 11
M TOR 56 8 3 2 12
M TOR 57 8 3 4 13
M TOR 58 8 3 4 14
M TOR 59 8 7 6 15
M TOR 60 8 7 6 16
M  END
$$$$
