gdb 3031	2.5617475	1.5330058	1.1436704	3.0228	76.16	-0.24707	-0.02693	0.22014	1115.7862	0.155978	-422.53333	-422.524527	-422.523583	-422.567391	32.801
 OpenBabel02181911413D

 19 20  0  0  1  0  0  0  0  0999 V2000
    1.1365    2.5095   -2.0475 C   0  0  0  0  0  0  0  0  0  0  0  0
    0.1955    1.6781   -2.8894 C   0  0  0  0  0  0  0  0  0  0  0  0
   -0.4140    2.1392   -3.8365 O   0  0  0  0  0  0  0  0  0  0  0  0
   -0.0071    0.2385   -2.5299 C   0  0  1  0  0  0  0  0  0  0  0  0
    0.9485   -0.8630   -1.9867 C   0  0  0  0  0  0  0  0  0  0  0  0
   -0.4284   -1.5688   -2.1867 C   0  0  1  0  0  0  0  0  0  0  0  0
   -1.0846   -0.3212   -1.5287 C   0  0  0  0  0  0  0  0  0  0  0  0
   -0.5162   -0.8238   -3.5467 C   0  0  1  0  0  0  0  0  0  0  0  0
   -1.7807   -0.6431   -4.1159 O   0  0  0  0  0  0  0  0  0  0  0  0
    2.1546    2.1109   -2.1274 H   0  0  0  0  0  0  0  0  0  0  0  0
    1.1206    3.5491   -2.3771 H   0  0  0  0  0  0  0  0  0  0  0  0
    0.8565    2.4457   -0.9900 H   0  0  0  0  0  0  0  0  0  0  0  0
    1.7661   -1.1703   -2.6455 H   0  0  0  0  0  0  0  0  0  0  0  0
    1.2829   -0.7560   -0.9529 H   0  0  0  0  0  0  0  0  0  0  0  0
   -0.6600   -2.6157   -1.9916 H   0  0  0  0  0  0  0  0  0  0  0  0
   -2.1218   -0.1216   -1.7916 H   0  0  0  0  0  0  0  0  0  0  0  0
   -0.8803   -0.1618   -0.4670 H   0  0  0  0  0  0  0  0  0  0  0  0
    0.2269   -1.1320   -4.2959 H   0  0  0  0  0  0  0  0  0  0  0  0
   -1.7715    0.2410   -4.5052 H   0  0  0  0  0  0  0  0  0  0  0  0
  1 12  1  0  0  0  0
  2  1  1  0  0  0  0
  3  2  2  0  0  0  0
  4  2  1  6  0  0  0
  4  5  1  0  0  0  0
  4  7  1  0  0  0  0
  5 14  1  0  0  0  0
  6 15  1  1  0  0  0
  6  5  1  0  0  0  0
  6  7  1  0  0  0  0
  7 17  1  0  0  0  0
  8 18  1  6  0  0  0
  8  4  1  0  0  0  0
  8  6  1  0  0  0  0
  9  8  1  0  0  0  0
 10  1  1  0  0  0  0
 11  1  1  0  0  0  0
 13  5  1  0  0  0  0
 16  7  1  0  0  0  0
 19  9  1  0  0  0  0
M TOR 0 0 1 3 4
M TOR 1 0 1 3 6
M TOR 2 0 1 3 7
M TOR 3 1 3 4 5
M TOR 4 1 3 4 12
M TOR 5 1 3 4 13
M TOR 6 1 3 6 5
M TOR 7 1 3 6 15
M TOR 8 1 3 6 16
M TOR 9 1 3 7 5
M TOR 10 1 3 7 8
M TOR 11 1 3 7 17
M TOR 12 2 1 0 9
M TOR 13 2 1 0 10
M TOR 14 2 1 0 11
M TOR 15 2 1 3 4
M TOR 16 2 1 3 6
M TOR 17 2 1 3 7
M TOR 18 3 1 0 9
M TOR 19 3 1 0 10
M TOR 20 3 1 0 11
M TOR 21 3 4 5 6
M TOR 22 3 4 5 7
M TOR 23 3 4 5 14
M TOR 24 3 6 5 7
M TOR 25 3 6 5 14
M TOR 26 3 7 5 14
M TOR 27 3 7 8 18
M TOR 28 4 3 6 15
M TOR 29 4 3 6 16
M TOR 30 4 3 7 8
M TOR 31 4 3 7 17
M TOR 32 4 5 6 15
M TOR 33 4 5 6 16
M TOR 34 4 5 7 8
M TOR 35 4 5 7 17
M TOR 36 5 7 8 18
M TOR 37 6 3 4 12
M TOR 38 6 3 4 13
M TOR 39 6 3 7 8
M TOR 40 6 3 7 17
M TOR 41 6 5 4 12
M TOR 42 6 5 4 13
M TOR 43 6 5 7 8
M TOR 44 6 5 7 17
M TOR 45 7 3 4 12
M TOR 46 7 3 4 13
M TOR 47 7 3 6 15
M TOR 48 7 3 6 16
M TOR 49 7 5 4 12
M TOR 50 7 5 4 13
M TOR 51 7 5 6 15
M TOR 52 7 5 6 16
M TOR 53 8 7 5 14
M  END
$$$$
