
     RDKit          3D

 19 19  0  0  0  0  0  0  0  0999 V2000
   -1.2159   -2.1051   -0.8416 C   0  0  0  0  0  0  0  0  0  0  0  0
   -0.9377   -1.1377    0.3144 C   0  0  0  0  0  0  0  0  0  0  0  0
   -2.1918   -0.5633    0.7385 O   0  0  0  0  0  0  0  0  0  0  0  0
   -2.6151    0.6666    0.3726 C   0  0  0  0  0  0  0  0  0  0  0  0
   -3.7170    1.0265    0.6871 O   0  0  0  0  0  0  0  0  0  0  0  0
   -1.6557    1.5477   -0.4124 C   0  0  0  0  0  0  0  0  0  0  0  0
   -0.2216    1.1181   -0.3461 C   0  0  0  0  0  0  0  0  0  0  0  0
    0.1283   -0.1207   -0.0111 C   0  0  0  0  0  0  0  0  0  0  0  0
    1.5532   -0.5942    0.0636 C   0  0  0  0  0  0  0  0  0  0  0  0
   -2.0018   -2.8089   -0.5562 H   0  0  0  0  0  0  0  0  0  0  0  0
   -1.5401   -1.5574   -1.7316 H   0  0  0  0  0  0  0  0  0  0  0  0
   -0.3166   -2.6733   -1.0962 H   0  0  0  0  0  0  0  0  0  0  0  0
   -0.6170   -1.7211    1.1864 H   0  0  0  0  0  0  0  0  0  0  0  0
   -2.0159    1.5698   -1.4516 H   0  0  0  0  0  0  0  0  0  0  0  0
   -1.7961    2.5672   -0.0404 H   0  0  0  0  0  0  0  0  0  0  0  0
    0.5366    1.8585   -0.5881 H   0  0  0  0  0  0  0  0  0  0  0  0
    1.8019   -0.9453    1.0730 H   0  0  0  0  0  0  0  0  0  0  0  0
    1.7394   -1.4351   -0.6155 H   0  0  0  0  0  0  0  0  0  0  0  0
    2.2477    0.2077   -0.1984 H   0  0  0  0  0  0  0  0  0  0  0  0
  1  2  1  0
  2  3  1  0
  3  4  1  0
  4  5  2  0
  4  6  1  0
  6  7  1  0
  7  8  2  0
  8  9  1  0
  8  2  1  0
  1 10  1  0
  1 11  1  0
  1 12  1  0
  2 13  1  0
  6 14  1  0
  6 15  1  0
  7 16  1  0
  9 17  1  0
  9 18  1  0
  9 19  1  0
M  END
$$$$
