gdb 5013	2.2445264	1.7796618	1.3245571	0.6518	75.8	-0.23802	0.0882	0.32622	1045.1332	0.156229	-422.471866	-422.463557	-422.462613	-422.504622	31.628
 OpenBabel02181911413D

 19 21  0  0  1  0  0  0  0  0999 V2000
    1.4455   -0.0852   -0.1479 C   0  0  0  0  0  0  0  0  0  0  0  0
    0.0266   -0.0719   -0.0470 O   0  0  0  0  0  0  0  0  0  0  0  0
   -0.4423    0.6242    1.0360 C   0  0  1  0  0  0  0  0  0  0  0  0
   -0.2032    2.1286    1.4408 C   0  0  0  0  0  0  0  0  0  0  0  0
   -1.1875    1.5545    2.5089 C   0  0  1  0  0  0  0  0  0  0  0  0
   -1.9449    0.8544    1.3345 C   0  0  0  0  0  0  0  0  0  0  0  0
   -0.2965    0.3068    2.5415 C   0  0  1  0  0  0  0  0  0  0  0  0
   -0.1766   -0.8853    3.3620 C   0  0  0  0  0  0  0  0  0  0  0  0
    0.8880    0.1038    3.2728 O   0  0  0  0  0  0  0  0  0  0  0  0
    1.9100   -0.4669    0.7688 H   0  0  0  0  0  0  0  0  0  0  0  0
    1.6961   -0.7388   -0.9858 H   0  0  0  0  0  0  0  0  0  0  0  0
    1.8388    0.9208   -0.3479 H   0  0  0  0  0  0  0  0  0  0  0  0
    0.7930    2.4004    1.7936 H   0  0  0  0  0  0  0  0  0  0  0  0
   -0.6212    2.8743    0.7604 H   0  0  0  0  0  0  0  0  0  0  0  0
   -1.6239    2.0843    3.3505 H   0  0  0  0  0  0  0  0  0  0  0  0
   -2.5417   -0.0273    1.5789 H   0  0  0  0  0  0  0  0  0  0  0  0
   -2.4625    1.5246    0.6455 H   0  0  0  0  0  0  0  0  0  0  0  0
   -0.6672   -0.9380    4.3325 H   0  0  0  0  0  0  0  0  0  0  0  0
    0.0523   -1.8463    2.9045 H   0  0  0  0  0  0  0  0  0  0  0  0
  1  2  1  0  0  0  0
  1 10  1  0  0  0  0
  3  2  1  6  0  0  0
  3  6  1  0  0  0  0
  3  4  1  0  0  0  0
  3  7  1  0  0  0  0
  4 13  1  0  0  0  0
  4  5  1  0  0  0  0
  5  7  1  0  0  0  0
  5 15  1  1  0  0  0
  6 16  1  0  0  0  0
  6  5  1  0  0  0  0
  7  9  1  1  0  0  0
  7  8  1  0  0  0  0
  8 18  1  0  0  0  0
  9  8  1  0  0  0  0
 11  1  1  0  0  0  0
 12  1  1  0  0  0  0
 14  4  1  0  0  0  0
 17  6  1  0  0  0  0
 19  8  1  0  0  0  0
M TOR 0 0 1 2 3
M TOR 1 0 1 2 5
M TOR 2 0 1 2 6
M TOR 3 1 2 3 4
M TOR 4 1 2 3 12
M TOR 5 1 2 3 13
M TOR 6 1 2 5 4
M TOR 7 1 2 5 15
M TOR 8 1 2 5 16
M TOR 9 1 2 6 4
M TOR 10 1 2 6 7
M TOR 11 1 2 6 8
M TOR 12 2 1 0 9
M TOR 13 2 1 0 10
M TOR 14 2 1 0 11
M TOR 15 2 3 4 5
M TOR 16 2 3 4 6
M TOR 17 2 3 4 14
M TOR 18 2 5 4 6
M TOR 19 2 5 4 14
M TOR 20 2 6 4 14
M TOR 21 2 6 7 8
M TOR 22 2 6 7 17
M TOR 23 2 6 7 18
M TOR 24 3 2 5 15
M TOR 25 3 2 5 16
M TOR 26 3 2 6 7
M TOR 27 3 2 6 8
M TOR 28 3 4 5 15
M TOR 29 3 4 5 16
M TOR 30 3 4 6 7
M TOR 31 3 4 6 8
M TOR 32 4 6 7 8
M TOR 33 4 6 7 17
M TOR 34 4 6 7 18
M TOR 35 5 2 3 12
M TOR 36 5 2 3 13
M TOR 37 5 2 6 7
M TOR 38 5 2 6 8
M TOR 39 5 4 3 12
M TOR 40 5 4 3 13
M TOR 41 5 4 6 7
M TOR 42 5 4 6 8
M TOR 43 6 2 3 12
M TOR 44 6 2 3 13
M TOR 45 6 2 5 15
M TOR 46 6 2 5 16
M TOR 47 6 4 3 12
M TOR 48 6 4 3 13
M TOR 49 6 4 5 15
M TOR 50 6 4 5 16
M TOR 51 6 8 7 17
M TOR 52 6 8 7 18
M TOR 53 7 6 4 14
M TOR 54 8 6 4 14
M  END
$$$$
