
     RDKit          3D

 19 19  0  0  0  0  0  0  0  0999 V2000
    5.9429    0.7740    1.3024 C   0  0  0  0  0  0  0  0  0  0  0  0
    4.6807   -0.0479    1.2351 C   0  0  0  0  0  0  0  0  0  0  0  0
    3.9183    0.0966    2.3957 O   0  0  0  0  0  0  0  0  0  0  0  0
    4.6708   -1.3701    0.5272 C   0  0  0  0  0  0  0  0  0  0  0  0
    3.9379   -0.1732   -0.0987 C   0  0  0  0  0  0  0  0  0  0  0  0
    2.5089   -0.1306   -0.0724 C   0  0  0  0  0  0  0  0  0  0  0  0
    1.3038   -0.0759    0.0055 C   0  0  0  0  0  0  0  0  0  0  0  0
   -0.1535    0.0150    0.0884 C   0  0  0  0  0  0  0  0  0  0  0  0
   -0.6413    1.3444    0.2051 O   0  0  0  0  0  0  0  0  0  0  0  0
    6.5420    0.4689    2.1665 H   0  0  0  0  0  0  0  0  0  0  0  0
    6.5489    0.6423    0.4018 H   0  0  0  0  0  0  0  0  0  0  0  0
    5.7034    1.8358    1.4137 H   0  0  0  0  0  0  0  0  0  0  0  0
    2.9854    0.0714    2.1435 H   0  0  0  0  0  0  0  0  0  0  0  0
    5.5683   -1.7125    0.0236 H   0  0  0  0  0  0  0  0  0  0  0  0
    4.0499   -2.1524    0.9478 H   0  0  0  0  0  0  0  0  0  0  0  0
    4.4097    0.2849   -0.9630 H   0  0  0  0  0  0  0  0  0  0  0  0
   -0.6050   -0.3860   -0.8261 H   0  0  0  0  0  0  0  0  0  0  0  0
   -0.5090   -0.6177    0.9178 H   0  0  0  0  0  0  0  0  0  0  0  0
   -0.1661    1.7649    0.9294 H   0  0  0  0  0  0  0  0  0  0  0  0
  1  2  1  0
  2  3  1  0
  2  4  1  0
  4  5  1  0
  5  6  1  0
  6  7  3  0
  7  8  1  0
  8  9  1  0
  5  2  1  0
  1 10  1  0
  1 11  1  0
  1 12  1  0
  3 13  1  0
  4 14  1  0
  4 15  1  0
  5 16  1  0
  8 17  1  0
  8 18  1  0
  9 19  1  0
M  END
$$$$
