gdb 3934	3.6750184	1.3573487	1.2707172	1.6526	75.01	-0.23824	0.07479	0.31303000000000003	1053.2903	0.158211	-422.509632	-422.502285	-422.501341	-422.540951	30.067
 OpenBabel02181911413D

 19 21  0  0  1  0  0  0  0  0999 V2000
    0.3682   -0.1669    0.3064 O   0  0  0  0  0  0  0  0  0  0  0  0
   -0.7795    0.4407    0.8505 C   0  0  2  0  0  0  0  0  0  0  0  0
   -2.0434    0.1643   -0.0273 C   0  0  0  0  0  0  0  0  0  0  0  0
   -2.3653    1.6459    0.1135 C   0  0  1  0  0  0  0  0  0  0  0  0
   -2.9336    2.8533   -0.6192 C   0  0  0  0  0  0  0  0  0  0  0  0
   -2.3685    3.9145    0.4068 C   0  0  0  0  0  0  0  0  0  0  0  0
   -1.7370    2.9312    1.4449 C   0  0  1  0  0  0  0  0  0  0  0  0
   -2.7831    1.9195    1.5110 O   0  0  0  0  0  0  0  0  0  0  0  0
   -0.9221    1.9889    0.5568 C   0  0  1  0  0  0  0  0  0  0  0  0
    1.1146    0.0331    0.8808 H   0  0  0  0  0  0  0  0  0  0  0  0
   -0.9254    0.1777    1.9023 H   0  0  0  0  0  0  0  0  0  0  0  0
   -1.7276   -0.0948   -1.0420 H   0  0  0  0  0  0  0  0  0  0  0  0
   -2.7829   -0.5521    0.3351 H   0  0  0  0  0  0  0  0  0  0  0  0
   -2.5272    2.9711   -1.6267 H   0  0  0  0  0  0  0  0  0  0  0  0
   -4.0246    2.8607   -0.6705 H   0  0  0  0  0  0  0  0  0  0  0  0
   -1.6415    4.5974   -0.0419 H   0  0  0  0  0  0  0  0  0  0  0  0
   -3.1612    4.5034    0.8727 H   0  0  0  0  0  0  0  0  0  0  0  0
   -1.4325    3.3364    2.4127 H   0  0  0  0  0  0  0  0  0  0  0  0
   -0.1789    2.3718   -0.1459 H   0  0  0  0  0  0  0  0  0  0  0  0
  1  2  1  0  0  0  0
  1 10  1  0  0  0  0
  2 11  1  1  0  0  0
  3  4  1  0  0  0  0
  3 13  1  0  0  0  0
  3  2  1  0  0  0  0
  4  9  1  0  0  0  0
  4  8  1  1  0  0  0
  5  4  1  0  0  0  0
  5  6  1  0  0  0  0
  6 17  1  0  0  0  0
  6  7  1  0  0  0  0
  7  8  1  0  0  0  0
  7 18  1  1  0  0  0
  9 19  1  6  0  0  0
  9  2  1  0  0  0  0
  9  7  1  0  0  0  0
 12  3  1  0  0  0  0
 14  5  1  0  0  0  0
 15  5  1  0  0  0  0
 16  6  1  0  0  0  0
M TOR 0 0 1 2 3
M TOR 1 0 1 2 11
M TOR 2 0 1 2 12
M TOR 3 0 1 8 3
M TOR 4 0 1 8 6
M TOR 5 0 1 8 18
M TOR 6 1 2 3 4
M TOR 7 1 2 3 7
M TOR 8 1 2 3 8
M TOR 9 1 8 3 4
M TOR 10 1 8 3 7
M TOR 11 1 8 6 5
M TOR 12 1 8 6 7
M TOR 13 1 8 6 17
M TOR 14 2 1 0 9
M TOR 15 2 1 8 6
M TOR 16 2 1 8 18
M TOR 17 2 3 4 5
M TOR 18 2 3 4 13
M TOR 19 2 3 4 14
M TOR 20 2 3 7 6
M TOR 21 2 3 8 6
M TOR 22 2 3 8 18
M TOR 23 3 2 1 10
M TOR 24 3 4 5 6
M TOR 25 3 4 5 15
M TOR 26 3 4 5 16
M TOR 27 3 7 6 5
M TOR 28 3 7 6 8
M TOR 29 3 7 6 17
M TOR 30 3 8 1 10
M TOR 31 3 8 6 5
M TOR 32 3 8 6 17
M TOR 33 4 3 2 11
M TOR 34 4 3 2 12
M TOR 35 4 3 7 6
M TOR 36 4 3 8 6
M TOR 37 4 3 8 18
M TOR 38 4 5 6 7
M TOR 39 4 5 6 8
M TOR 40 4 5 6 17
M TOR 41 5 4 3 7
M TOR 42 5 4 3 8
M TOR 43 5 6 8 18
M TOR 44 6 5 4 13
M TOR 45 6 5 4 14
M TOR 46 6 8 1 10
M TOR 47 7 3 2 11
M TOR 48 7 3 2 12
M TOR 49 7 3 4 13
M TOR 50 7 3 4 14
M TOR 51 7 3 8 18
M TOR 52 7 6 5 15
M TOR 53 7 6 5 16
M TOR 54 7 6 8 18
M TOR 55 8 1 0 9
M TOR 56 8 1 2 11
M TOR 57 8 1 2 12
M TOR 58 8 3 2 11
M TOR 59 8 3 2 12
M TOR 60 8 3 4 13
M TOR 61 8 3 4 14
M TOR 62 8 6 5 15
M TOR 63 8 6 5 16
M  END
$$$$
