gdb 195	2.5987554	2.1031792	1.6317985	1.5227	73.66	-0.24284	0.07933	0.32217	895.3644	0.160247	-422.52519	-422.518569	-422.517625	-422.555619	28.154
 OpenBabel02181911403D

 19 21  0  0  1  0  0  0  0  0999 V2000
    3.4129   -1.5365   -2.8944 C   0  0  0  0  0  0  0  0  0  0  0  0
    2.3659   -0.8569   -1.9981 C   0  0  1  0  0  0  0  0  0  0  0  0
    2.1559   -0.8239   -0.4775 C   0  0  0  0  0  0  0  0  0  0  0  0
    3.2586    0.1902   -0.0482 C   0  0  1  0  0  0  0  0  0  0  0  0
    4.4398   -0.3166   -0.8755 C   0  0  0  0  0  0  0  0  0  0  0  0
    3.7296   -0.2438   -2.2279 C   0  0  1  0  0  0  0  0  0  0  0  0
    3.7754    1.0677   -2.7242 O   0  0  0  0  0  0  0  0  0  0  0  0
    2.9137    1.8202   -1.8642 C   0  0  0  0  0  0  0  0  0  0  0  0
    3.0349    1.5488   -0.4769 O   0  0  0  0  0  0  0  0  0  0  0  0
    3.9772   -2.4076   -2.5728 H   0  0  0  0  0  0  0  0  0  0  0  0
    3.1356   -1.5495   -3.9438 H   0  0  0  0  0  0  0  0  0  0  0  0
    1.5506   -0.4550   -2.5893 H   0  0  0  0  0  0  0  0  0  0  0  0
    1.1487   -0.4769   -0.2324 H   0  0  0  0  0  0  0  0  0  0  0  0
    2.3130   -1.7770    0.0416 H   0  0  0  0  0  0  0  0  0  0  0  0
    3.4025    0.2625    1.0331 H   0  0  0  0  0  0  0  0  0  0  0  0
    5.3085    0.3416   -0.8408 H   0  0  0  0  0  0  0  0  0  0  0  0
    4.7328   -1.3328   -0.5960 H   0  0  0  0  0  0  0  0  0  0  0  0
    3.1799    2.8720   -1.9932 H   0  0  0  0  0  0  0  0  0  0  0  0
    1.8733    1.6549   -2.1808 H   0  0  0  0  0  0  0  0  0  0  0  0
  1 10  1  0  0  0  0
  1  6  1  0  0  0  0
  1  2  1  0  0  0  0
  2 12  1  6  0  0  0
  2  3  1  0  0  0  0
  3 13  1  0  0  0  0
  3  4  1  0  0  0  0
  3 14  1  0  0  0  0
  4 15  1  1  0  0  0
  5 16  1  0  0  0  0
  5 17  1  0  0  0  0
  5  4  1  0  0  0  0
  6  7  1  6  0  0  0
  6  2  1  0  0  0  0
  6  5  1  0  0  0  0
  7  8  1  0  0  0  0
  8  9  1  0  0  0  0
  9  4  1  0  0  0  0
 11  1  1  0  0  0  0
 18  8  1  0  0  0  0
 19  8  1  0  0  0  0
M TOR 0 0 1 2 3
M TOR 1 0 1 2 12
M TOR 2 0 1 2 13
M TOR 3 0 1 5 4
M TOR 4 0 1 5 6
M TOR 5 0 5 1 2
M TOR 6 0 5 1 11
M TOR 7 0 5 4 3
M TOR 8 0 5 4 15
M TOR 9 0 5 4 16
M TOR 10 0 5 6 7
M TOR 11 1 2 3 4
M TOR 12 1 2 3 8
M TOR 13 1 2 3 14
M TOR 14 1 5 0 9
M TOR 15 1 5 0 10
M TOR 16 1 5 4 3
M TOR 17 1 5 4 15
M TOR 18 1 5 4 16
M TOR 19 1 5 6 7
M TOR 20 2 1 0 9
M TOR 21 2 1 0 10
M TOR 22 2 1 5 4
M TOR 23 2 1 5 6
M TOR 24 2 3 4 5
M TOR 25 2 3 4 15
M TOR 26 2 3 4 16
M TOR 27 2 3 8 7
M TOR 28 3 2 1 5
M TOR 29 3 2 1 11
M TOR 30 3 4 5 6
M TOR 31 3 8 7 6
M TOR 32 3 8 7 17
M TOR 33 3 8 7 18
M TOR 34 4 3 2 12
M TOR 35 4 3 2 13
M TOR 36 4 3 8 7
M TOR 37 4 5 0 9
M TOR 38 4 5 0 10
M TOR 39 4 5 1 11
M TOR 40 4 5 6 7
M TOR 41 5 1 2 12
M TOR 42 5 1 2 13
M TOR 43 5 4 3 8
M TOR 44 5 4 3 14
M TOR 45 5 6 7 8
M TOR 46 5 6 7 17
M TOR 47 5 6 7 18
M TOR 48 6 5 0 9
M TOR 49 6 5 0 10
M TOR 50 6 5 1 11
M TOR 51 6 5 4 15
M TOR 52 6 5 4 16
M TOR 53 7 8 3 14
M TOR 54 8 3 2 12
M TOR 55 8 3 2 13
M TOR 56 8 3 4 15
M TOR 57 8 3 4 16
M  END
$$$$
