
     RDKit          3D

 19 20  0  0  0  0  0  0  0  0999 V2000
    0.1904    2.8470   -1.1542 C   0  0  0  0  0  0  0  0  0  0  0  0
   -1.0971    2.3352   -0.5365 C   0  0  0  0  0  0  0  0  0  0  0  0
   -2.3651    2.6265   -1.3148 C   0  0  0  0  0  0  0  0  0  0  0  0
   -1.1921    2.2814    0.9724 C   0  0  0  0  0  0  0  0  0  0  0  0
   -1.0438    1.0051    0.1884 C   0  0  0  0  0  0  0  0  0  0  0  0
   -2.0671    0.0039    0.1023 O   0  0  0  0  0  0  0  0  0  0  0  0
   -1.1012   -1.0751    0.1054 C   0  0  0  0  0  0  0  0  0  0  0  0
    0.0287   -0.0368    0.2238 C   0  0  0  0  0  0  0  0  0  0  0  0
    1.2218   -0.0535    0.3085 O   0  0  0  0  0  0  0  0  0  0  0  0
    1.0668    2.5100   -0.5944 H   0  0  0  0  0  0  0  0  0  0  0  0
    0.2969    2.4938   -2.1857 H   0  0  0  0  0  0  0  0  0  0  0  0
    0.1944    3.9431   -1.1738 H   0  0  0  0  0  0  0  0  0  0  0  0
   -3.2372    2.1586   -0.8523 H   0  0  0  0  0  0  0  0  0  0  0  0
   -2.5390    3.7070   -1.3703 H   0  0  0  0  0  0  0  0  0  0  0  0
   -2.2873    2.2463   -2.3390 H   0  0  0  0  0  0  0  0  0  0  0  0
   -0.3434    2.6002    1.5696 H   0  0  0  0  0  0  0  0  0  0  0  0
   -2.1654    2.4378    1.4265 H   0  0  0  0  0  0  0  0  0  0  0  0
   -1.2186   -1.7442    0.9651 H   0  0  0  0  0  0  0  0  0  0  0  0
   -1.1107   -1.6545   -0.8249 H   0  0  0  0  0  0  0  0  0  0  0  0
  1  2  1  0
  2  3  1  0
  2  4  1  0
  4  5  1  0
  5  6  1  0
  6  7  1  0
  7  8  1  0
  8  9  2  0
  5  2  1  0
  8  5  1  0
  1 10  1  0
  1 11  1  0
  1 12  1  0
  3 13  1  0
  3 14  1  0
  3 15  1  0
  4 16  1  0
  4 17  1  0
  7 18  1  0
  7 19  1  0
M  END
$$$$
