
     RDKit          3D

 19 21  0  0  0  0  0  0  0  0999 V2000
   -0.7636    0.4619    0.8612 O   0  0  0  0  0  0  0  0  0  0  0  0
   -1.8018   -0.2451    0.2207 C   0  0  0  0  0  0  0  0  0  0  0  0
   -2.6294    0.5478   -0.7860 C   0  0  0  0  0  0  0  0  0  0  0  0
   -4.0373   -0.0235   -0.7619 C   0  0  0  0  0  0  0  0  0  0  0  0
   -4.0736   -1.1144    0.3050 C   0  0  0  0  0  0  0  0  0  0  0  0
   -2.8994   -0.7074    1.2060 C   0  0  0  0  0  0  0  0  0  0  0  0
   -3.2234    0.4218    2.0307 O   0  0  0  0  0  0  0  0  0  0  0  0
   -3.8560    1.4972    1.3238 C   0  0  0  0  0  0  0  0  0  0  0  0
   -3.7652    1.3424   -0.1829 C   0  0  0  0  0  0  0  0  0  0  0  0
   -1.1776    0.9017    1.6163 H   0  0  0  0  0  0  0  0  0  0  0  0
   -1.3387   -1.1058   -0.2769 H   0  0  0  0  0  0  0  0  0  0  0  0
   -2.1675    0.8918   -1.7036 H   0  0  0  0  0  0  0  0  0  0  0  0
   -4.6298   -0.1222   -1.6640 H   0  0  0  0  0  0  0  0  0  0  0  0
   -5.0151   -1.1607    0.8622 H   0  0  0  0  0  0  0  0  0  0  0  0
   -3.8922   -2.1034   -0.1311 H   0  0  0  0  0  0  0  0  0  0  0  0
   -2.5667   -1.4832    1.8973 H   0  0  0  0  0  0  0  0  0  0  0  0
   -4.9107    1.5519    1.6327 H   0  0  0  0  0  0  0  0  0  0  0  0
   -3.3738    2.4276    1.6491 H   0  0  0  0  0  0  0  0  0  0  0  0
   -4.1169    2.2024   -0.7442 H   0  0  0  0  0  0  0  0  0  0  0  0
  1  2  1  0
  2  3  1  0
  3  4  1  0
  4  5  1  0
  5  6  1  0
  6  7  1  0
  7  8  1  0
  8  9  1  0
  6  2  1  0
  9  3  1  0
  9  4  1  0
  1 10  1  0
  2 11  1  0
  3 12  1  0
  4 13  1  0
  5 14  1  0
  5 15  1  0
  6 16  1  0
  8 17  1  0
  8 18  1  0
  9 19  1  0
M  END
$$$$
