
     RDKit          3D

 19 19  0  0  0  0  0  0  0  0999 V2000
   -1.7711   -1.3228    3.0430 C   0  0  0  0  0  0  0  0  0  0  0  0
   -2.1013   -1.0902    1.5634 C   0  0  0  0  0  0  0  0  0  0  0  0
   -2.1005   -2.4058    0.7734 C   0  0  0  0  0  0  0  0  0  0  0  0
   -1.1518   -0.0701    0.9013 C   0  0  0  0  0  0  0  0  0  0  0  0
    0.2075   -0.5228    0.9602 O   0  0  0  0  0  0  0  0  0  0  0  0
    1.0082    0.4359    1.5375 C   0  0  0  0  0  0  0  0  0  0  0  0
    2.1870    0.2861    1.6886 O   0  0  0  0  0  0  0  0  0  0  0  0
    0.1362    1.5838    1.8895 C   0  0  0  0  0  0  0  0  0  0  0  0
   -1.1121    1.2959    1.5279 C   0  0  0  0  0  0  0  0  0  0  0  0
   -2.4814   -2.0290    3.4828 H   0  0  0  0  0  0  0  0  0  0  0  0
   -0.7674   -1.7434    3.1543 H   0  0  0  0  0  0  0  0  0  0  0  0
   -1.8155   -0.3964    3.6230 H   0  0  0  0  0  0  0  0  0  0  0  0
   -3.1041   -0.6448    1.4925 H   0  0  0  0  0  0  0  0  0  0  0  0
   -2.8050   -3.1192    1.2113 H   0  0  0  0  0  0  0  0  0  0  0  0
   -2.3887   -2.2461   -0.2710 H   0  0  0  0  0  0  0  0  0  0  0  0
   -1.1052   -2.8595    0.7828 H   0  0  0  0  0  0  0  0  0  0  0  0
   -1.4236    0.0128   -0.1618 H   0  0  0  0  0  0  0  0  0  0  0  0
    0.5239    2.4751    2.3601 H   0  0  0  0  0  0  0  0  0  0  0  0
   -1.9952    1.9125    1.6384 H   0  0  0  0  0  0  0  0  0  0  0  0
  1  2  1  0
  2  3  1  0
  2  4  1  0
  4  5  1  0
  5  6  1  0
  6  7  2  0
  6  8  1  0
  8  9  2  0
  9  4  1  0
  1 10  1  0
  1 11  1  0
  1 12  1  0
  2 13  1  0
  3 14  1  0
  3 15  1  0
  3 16  1  0
  4 17  1  0
  8 18  1  0
  9 19  1  0
M  END
$$$$
