gdb 3941	3.2699467	1.4698231	1.3070898	1.3276	73.96	-0.21733	0.07169	0.28902	1031.8547	0.158015	-422.516866	-422.509084	-422.50814	-422.548738	30.874
 OpenBabel02181911413D

 19 21  0  0  1  0  0  0  0  0999 V2000
    0.3361    0.4166    0.0182 O   0  0  0  0  0  0  0  0  0  0  0  0
   -0.8987    0.4363    0.6942 C   0  0  1  0  0  0  0  0  0  0  0  0
   -2.1021   -0.0493   -0.1730 C   0  0  0  0  0  0  0  0  0  0  0  0
   -2.4434   -1.0877    0.9175 C   0  0  1  0  0  0  0  0  0  0  0  0
   -1.2865   -2.0469    1.1108 C   0  0  0  0  0  0  0  0  0  0  0  0
   -1.2158   -0.6730    1.7063 C   0  0  1  0  0  0  0  0  0  0  0  0
   -1.5077   -0.4577    3.0511 O   0  0  0  0  0  0  0  0  0  0  0  0
   -2.8129   -1.0163    3.2926 C   0  0  0  0  0  0  0  0  0  0  0  0
   -3.5712   -1.0636    1.9257 C   0  0  0  0  0  0  0  0  0  0  0  0
    1.0339    0.5767    0.6628 H   0  0  0  0  0  0  0  0  0  0  0  0
   -1.1031    1.4146    1.1498 H   0  0  0  0  0  0  0  0  0  0  0  0
   -2.8664    0.7172   -0.3151 H   0  0  0  0  0  0  0  0  0  0  0  0
   -1.8237   -0.4622   -1.1463 H   0  0  0  0  0  0  0  0  0  0  0  0
   -1.4359   -2.8558    1.8169 H   0  0  0  0  0  0  0  0  0  0  0  0
   -0.6612   -2.3004    0.2600 H   0  0  0  0  0  0  0  0  0  0  0  0
   -2.7087   -2.0279    3.7073 H   0  0  0  0  0  0  0  0  0  0  0  0
   -3.3099   -0.3961    4.0442 H   0  0  0  0  0  0  0  0  0  0  0  0
   -4.2563   -1.9165    1.8915 H   0  0  0  0  0  0  0  0  0  0  0  0
   -4.1666   -0.1555    1.7840 H   0  0  0  0  0  0  0  0  0  0  0  0
  1 10  1  0  0  0  0
  1  2  1  0  0  0  0
  2 11  1  1  0  0  0
  2  6  1  0  0  0  0
  3  2  1  0  0  0  0
  4  3  1  6  0  0  0
  4  5  1  0  0  0  0
  4  6  1  0  0  0  0
  4  9  1  0  0  0  0
  5  6  1  0  0  0  0
  5 14  1  0  0  0  0
  6  7  1  1  0  0  0
  7  8  1  0  0  0  0
  8 16  1  0  0  0  0
  8 17  1  0  0  0  0
  9  8  1  0  0  0  0
 12  3  1  0  0  0  0
 13  3  1  0  0  0  0
 15  5  1  0  0  0  0
 18  9  1  0  0  0  0
 19  9  1  0  0  0  0
M TOR 0 0 1 2 3
M TOR 1 0 1 2 11
M TOR 2 0 1 2 12
M TOR 3 0 1 5 3
M TOR 4 0 1 5 4
M TOR 5 0 1 5 6
M TOR 6 1 2 3 4
M TOR 7 1 2 3 5
M TOR 8 1 2 3 8
M TOR 9 1 5 3 4
M TOR 10 1 5 3 8
M TOR 11 1 5 4 13
M TOR 12 1 5 4 14
M TOR 13 1 5 6 7
M TOR 14 2 1 0 9
M TOR 15 2 1 5 4
M TOR 16 2 1 5 6
M TOR 17 2 3 4 5
M TOR 18 2 3 4 13
M TOR 19 2 3 4 14
M TOR 20 2 3 5 6
M TOR 21 2 3 8 7
M TOR 22 2 3 8 17
M TOR 23 2 3 8 18
M TOR 24 3 2 1 10
M TOR 25 3 4 5 6
M TOR 26 3 5 1 10
M TOR 27 3 5 4 13
M TOR 28 3 5 4 14
M TOR 29 3 5 6 7
M TOR 30 3 8 7 6
M TOR 31 3 8 7 15
M TOR 32 3 8 7 16
M TOR 33 4 3 2 11
M TOR 34 4 3 2 12
M TOR 35 4 3 8 7
M TOR 36 4 3 8 17
M TOR 37 4 3 8 18
M TOR 38 4 5 1 10
M TOR 39 4 5 3 8
M TOR 40 4 5 6 7
M TOR 41 5 1 0 9
M TOR 42 5 1 2 11
M TOR 43 5 1 2 12
M TOR 44 5 3 2 11
M TOR 45 5 3 2 12
M TOR 46 5 3 8 7
M TOR 47 5 3 8 17
M TOR 48 5 3 8 18
M TOR 49 5 6 7 8
M TOR 50 5 6 7 15
M TOR 51 5 6 7 16
M TOR 52 6 5 1 10
M TOR 53 6 5 3 8
M TOR 54 6 5 4 13
M TOR 55 6 5 4 14
M TOR 56 6 7 8 17
M TOR 57 6 7 8 18
M TOR 58 8 3 2 11
M TOR 59 8 3 2 12
M TOR 60 8 3 4 13
M TOR 61 8 3 4 14
M  END
$$$$
