gdb 246	2.8341837	1.8100986	1.4995006	2.2825	73.18	-0.23949	0.08014	0.31963	944.1279	0.160112	-422.559786	-422.55276	-422.551816	-422.591366	27.923
 OpenBabel02181911403D

 19 21  0  0  1  0  0  0  0  0999 V2000
   -0.4041    0.3719   -1.3586 C   0  0  0  0  0  0  0  0  0  0  0  0
   -0.0826   -0.1190    0.0589 C   0  0  0  0  0  0  0  0  0  0  0  0
    0.8928    0.9584    0.5738 C   0  0  2  0  0  0  0  0  0  0  0  0
    0.2387    2.1607    1.2313 C   0  0  2  0  0  0  0  0  0  0  0  0
   -0.7161    2.8243    0.3871 O   0  0  0  0  0  0  0  0  0  0  0  0
    0.5944    3.3933    0.5156 C   0  0  2  0  0  0  0  0  0  0  0  0
    1.5125    3.0667   -0.6423 C   0  0  0  0  0  0  0  0  0  0  0  0
    1.5393    1.5158   -0.7355 C   0  0  2  0  0  0  0  0  0  0  0  0
    0.7874    0.9997   -1.8280 O   0  0  0  0  0  0  0  0  0  0  0  0
   -0.6455   -0.4387   -2.0531 H   0  0  0  0  0  0  0  0  0  0  0  0
   -1.2347    1.0867   -1.3409 H   0  0  0  0  0  0  0  0  0  0  0  0
   -0.9754   -0.2176    0.6819 H   0  0  0  0  0  0  0  0  0  0  0  0
    0.4175   -1.0917    0.0233 H   0  0  0  0  0  0  0  0  0  0  0  0
    1.6416    0.5413    1.2537 H   0  0  0  0  0  0  0  0  0  0  0  0
   -0.0176    2.1402    2.2883 H   0  0  0  0  0  0  0  0  0  0  0  0
    0.6260    4.3673    0.9984 H   0  0  0  0  0  0  0  0  0  0  0  0
    1.1696    3.4970   -1.5874 H   0  0  0  0  0  0  0  0  0  0  0  0
    2.5144    3.4615   -0.4376 H   0  0  0  0  0  0  0  0  0  0  0  0
    2.5687    1.1657   -0.8696 H   0  0  0  0  0  0  0  0  0  0  0  0
  1 11  1  0  0  0  0
  1  2  1  0  0  0  0
  2  3  1  0  0  0  0
  2 12  1  0  0  0  0
  3  4  1  0  0  0  0
  3 14  1  1  0  0  0
  4 15  1  1  0  0  0
  5  6  1  0  0  0  0
  5  4  1  0  0  0  0
  6 16  1  1  0  0  0
  6  4  1  0  0  0  0
  7 18  1  0  0  0  0
  7  6  1  0  0  0  0
  8 19  1  6  0  0  0
  8  7  1  0  0  0  0
  8  3  1  0  0  0  0
  9  1  1  0  0  0  0
  9  8  1  0  0  0  0
 10  1  1  0  0  0  0
 13  2  1  0  0  0  0
 17  7  1  0  0  0  0
M TOR 0 0 1 2 3
M TOR 1 0 1 2 7
M TOR 2 0 1 2 13
M TOR 3 0 8 7 2
M TOR 4 0 8 7 6
M TOR 5 0 8 7 18
M TOR 6 1 0 8 7
M TOR 7 1 2 3 4
M TOR 8 1 2 3 5
M TOR 9 1 2 3 14
M TOR 10 1 2 7 6
M TOR 11 1 2 7 8
M TOR 12 1 2 7 18
M TOR 13 2 1 0 8
M TOR 14 2 1 0 9
M TOR 15 2 1 0 10
M TOR 16 2 3 4 5
M TOR 17 2 3 5 6
M TOR 18 2 3 5 15
M TOR 19 2 7 6 5
M TOR 20 2 7 6 16
M TOR 21 2 7 6 17
M TOR 22 3 2 1 11
M TOR 23 3 2 1 12
M TOR 24 3 2 7 6
M TOR 25 3 2 7 8
M TOR 26 3 2 7 18
M TOR 27 3 4 5 6
M TOR 28 3 4 5 15
M TOR 29 3 5 6 7
M TOR 30 3 5 6 16
M TOR 31 3 5 6 17
M TOR 32 4 3 2 7
M TOR 33 4 3 2 13
M TOR 34 4 5 3 14
M TOR 35 4 5 6 7
M TOR 36 4 5 6 16
M TOR 37 4 5 6 17
M TOR 38 5 3 2 7
M TOR 39 5 3 2 13
M TOR 40 5 6 7 8
M TOR 41 5 6 7 18
M TOR 42 6 5 3 14
M TOR 43 6 7 2 13
M TOR 44 7 2 1 11
M TOR 45 7 2 1 12
M TOR 46 7 2 3 14
M TOR 47 7 6 5 15
M TOR 48 7 8 0 9
M TOR 49 7 8 0 10
M TOR 50 8 0 1 11
M TOR 51 8 0 1 12
M TOR 52 8 7 2 13
M TOR 53 8 7 6 16
M TOR 54 8 7 6 17
M  END
$$$$
