
     RDKit          3D

 19 20  0  0  0  0  0  0  0  0999 V2000
   -3.4752   -0.8978    0.2066 C   0  0  0  0  0  0  0  0  0  0  0  0
   -2.2812   -0.8066   -0.7544 C   0  0  0  0  0  0  0  0  0  0  0  0
   -1.9314    0.6552   -1.1482 C   0  0  0  0  0  0  0  0  0  0  0  0
   -1.0052    1.1748   -0.0301 C   0  0  0  0  0  0  0  0  0  0  0  0
   -0.2655   -0.0647    0.4668 C   0  0  0  0  0  0  0  0  0  0  0  0
    0.7203   -0.1037    1.1562 O   0  0  0  0  0  0  0  0  0  0  0  0
   -0.9944   -1.2789   -0.0892 C   0  0  0  0  0  0  0  0  0  0  0  0
   -0.2019   -2.4561   -0.4974 C   0  0  0  0  0  0  0  0  0  0  0  0
   -0.9755   -2.4690    0.6945 O   0  0  0  0  0  0  0  0  0  0  0  0
   -3.3305   -0.2736    1.0953 H   0  0  0  0  0  0  0  0  0  0  0  0
   -4.3927   -0.5671   -0.2894 H   0  0  0  0  0  0  0  0  0  0  0  0
   -3.6128   -1.9269    0.5474 H   0  0  0  0  0  0  0  0  0  0  0  0
   -2.5027   -1.4026   -1.6448 H   0  0  0  0  0  0  0  0  0  0  0  0
   -1.3940    0.6616   -2.1026 H   0  0  0  0  0  0  0  0  0  0  0  0
   -2.8272    1.2678   -1.2764 H   0  0  0  0  0  0  0  0  0  0  0  0
   -0.3071    1.9563   -0.3380 H   0  0  0  0  0  0  0  0  0  0  0  0
   -1.5798    1.5764    0.8142 H   0  0  0  0  0  0  0  0  0  0  0  0
   -0.5726   -3.0791   -1.3107 H   0  0  0  0  0  0  0  0  0  0  0  0
    0.8762   -2.4418   -0.3477 H   0  0  0  0  0  0  0  0  0  0  0  0
  1  2  1  0
  2  3  1  0
  3  4  1  0
  4  5  1  0
  5  6  2  0
  5  7  1  0
  7  8  1  0
  8  9  1  0
  7  2  1  0
  9  7  1  0
  1 10  1  0
  1 11  1  0
  1 12  1  0
  2 13  1  0
  3 14  1  0
  3 15  1  0
  4 16  1  0
  4 17  1  0
  8 18  1  0
  8 19  1  0
M  END
$$$$
