
     RDKit          3D

 19 21  0  0  0  0  0  0  0  0999 V2000
   -1.7050   -1.0607   -0.8921 C   0  0  0  0  0  0  0  0  0  0  0  0
   -1.9778   -0.0459    0.1785 C   0  0  0  0  0  0  0  0  0  0  0  0
   -0.8770    0.7791    0.8307 C   0  0  0  0  0  0  0  0  0  0  0  0
    0.3395    0.8473    0.1446 O   0  0  0  0  0  0  0  0  0  0  0  0
   -1.9920    1.5044    0.1527 C   0  0  0  0  0  0  0  0  0  0  0  0
   -3.2130    1.5432    1.0804 C   0  0  0  0  0  0  0  0  0  0  0  0
   -3.1849    0.0012    1.0857 C   0  0  0  0  0  0  0  0  0  0  0  0
   -4.3084   -0.9296    1.1735 C   0  0  0  0  0  0  0  0  0  0  0  0
   -3.3524   -0.8159    2.2384 O   0  0  0  0  0  0  0  0  0  0  0  0
   -1.5685   -2.0600   -0.4599 H   0  0  0  0  0  0  0  0  0  0  0  0
   -2.5280   -1.1206   -1.6122 H   0  0  0  0  0  0  0  0  0  0  0  0
   -0.7948   -0.8018   -1.4396 H   0  0  0  0  0  0  0  0  0  0  0  0
   -0.7899    0.8115    1.9193 H   0  0  0  0  0  0  0  0  0  0  0  0
    0.8385    0.0477    0.3439 H   0  0  0  0  0  0  0  0  0  0  0  0
   -1.7977    2.1620   -0.6847 H   0  0  0  0  0  0  0  0  0  0  0  0
   -3.0675    2.0270    2.0517 H   0  0  0  0  0  0  0  0  0  0  0  0
   -4.1123    1.9470    0.6086 H   0  0  0  0  0  0  0  0  0  0  0  0
   -5.3061   -0.5510    1.3959 H   0  0  0  0  0  0  0  0  0  0  0  0
   -4.2841   -1.8708    0.6249 H   0  0  0  0  0  0  0  0  0  0  0  0
  1  2  1  0
  2  3  1  0
  3  4  1  0
  3  5  1  0
  5  6  1  0
  6  7  1  0
  7  8  1  0
  8  9  1  0
  5  2  1  0
  9  7  1  0
  7  2  1  0
  1 10  1  0
  1 11  1  0
  1 12  1  0
  3 13  1  0
  4 14  1  0
  5 15  1  0
  6 16  1  0
  6 17  1  0
  8 18  1  0
  8 19  1  0
M  END
$$$$
