
     RDKit          3D

 19 20  0  0  0  0  0  0  0  0999 V2000
   -0.8794   -0.2538    0.0263 C   0  0  0  0  0  0  0  0  0  0  0  0
    0.6428   -0.1224    0.2803 C   0  0  0  0  0  0  0  0  0  0  0  0
    0.6779    1.2543    0.8699 C   0  0  0  0  0  0  0  0  0  0  0  0
    1.2307    1.7175    1.9854 C   0  0  0  0  0  0  0  0  0  0  0  0
    0.7736    3.0455    2.5388 C   0  0  0  0  0  0  0  0  0  0  0  0
   -0.6924    3.2439    2.1405 C   0  0  0  0  0  0  0  0  0  0  0  0
   -0.8529    3.1807    0.7268 O   0  0  0  0  0  0  0  0  0  0  0  0
   -0.3603    2.0345    0.1027 C   0  0  0  0  0  0  0  0  0  0  0  0
   -1.3877    1.0734   -0.1612 O   0  0  0  0  0  0  0  0  0  0  0  0
   -1.1100   -0.8518   -0.8617 H   0  0  0  0  0  0  0  0  0  0  0  0
   -1.3780   -0.7144    0.8897 H   0  0  0  0  0  0  0  0  0  0  0  0
    1.0338   -0.8971    0.9432 H   0  0  0  0  0  0  0  0  0  0  0  0
    1.1918   -0.1726   -0.6683 H   0  0  0  0  0  0  0  0  0  0  0  0
    1.9323    1.1148    2.5564 H   0  0  0  0  0  0  0  0  0  0  0  0
    0.8625    3.0518    3.6309 H   0  0  0  0  0  0  0  0  0  0  0  0
    1.3798    3.8819    2.1666 H   0  0  0  0  0  0  0  0  0  0  0  0
   -1.3145    2.4844    2.6353 H   0  0  0  0  0  0  0  0  0  0  0  0
   -1.0604    4.2322    2.4275 H   0  0  0  0  0  0  0  0  0  0  0  0
    0.0273    2.3925   -0.8642 H   0  0  0  0  0  0  0  0  0  0  0  0
  1  2  1  0
  2  3  1  0
  3  4  2  0
  4  5  1  0
  5  6  1  0
  6  7  1  0
  7  8  1  0
  8  9  1  0
  9  1  1  0
  8  3  1  0
  1 10  1  0
  1 11  1  0
  2 12  1  0
  2 13  1  0
  4 14  1  0
  5 15  1  0
  5 16  1  0
  6 17  1  0
  6 18  1  0
  8 19  1  0
M  END
$$$$
