
     RDKit          3D

 19 20  0  0  0  0  0  0  0  0999 V2000
    1.3591    0.2523   -0.1524 C   0  0  0  0  0  0  0  0  0  0  0  0
   -0.0419    0.2291   -0.0171 O   0  0  0  0  0  0  0  0  0  0  0  0
   -0.4661    0.4208    1.3215 C   0  0  0  0  0  0  0  0  0  0  0  0
   -1.9575    0.4930    1.3408 C   0  0  0  0  0  0  0  0  0  0  0  0
   -2.8026   -0.1824    2.1259 C   0  0  0  0  0  0  0  0  0  0  0  0
   -4.2517    0.1808    1.8716 C   0  0  0  0  0  0  0  0  0  0  0  0
   -4.1479    1.2704    0.8088 C   0  0  0  0  0  0  0  0  0  0  0  0
   -3.4486    2.4410    1.2347 O   0  0  0  0  0  0  0  0  0  0  0  0
   -2.7256    1.4429    0.4723 C   0  0  0  0  0  0  0  0  0  0  0  0
    1.8393   -0.5537    0.4251 H   0  0  0  0  0  0  0  0  0  0  0  0
    1.5875    0.1111   -1.2115 H   0  0  0  0  0  0  0  0  0  0  0  0
    1.7863    1.2119    0.1801 H   0  0  0  0  0  0  0  0  0  0  0  0
   -0.1072   -0.3965    1.9683 H   0  0  0  0  0  0  0  0  0  0  0  0
   -0.0349    1.3594    1.7151 H   0  0  0  0  0  0  0  0  0  0  0  0
   -2.5059   -0.8895    2.8936 H   0  0  0  0  0  0  0  0  0  0  0  0
   -4.8280   -0.6786    1.5050 H   0  0  0  0  0  0  0  0  0  0  0  0
   -4.7576    0.5421    2.7752 H   0  0  0  0  0  0  0  0  0  0  0  0
   -4.9559    1.4394    0.1020 H   0  0  0  0  0  0  0  0  0  0  0  0
   -2.3507    1.7709   -0.4908 H   0  0  0  0  0  0  0  0  0  0  0  0
  1  2  1  0
  2  3  1  0
  3  4  1  0
  4  5  2  0
  5  6  1  0
  6  7  1  0
  7  8  1  0
  8  9  1  0
  9  4  1  0
  9  7  1  0
  1 10  1  0
  1 11  1  0
  1 12  1  0
  3 13  1  0
  3 14  1  0
  5 15  1  0
  6 16  1  0
  6 17  1  0
  7 18  1  0
  9 19  1  0
M  END
$$$$
