
     RDKit          3D

 19 21  0  0  0  0  0  0  0  0999 V2000
    0.2753    0.2986    0.4813 O   0  0  0  0  0  0  0  0  0  0  0  0
   -0.9954    0.1797    1.0707 C   0  0  0  0  0  0  0  0  0  0  0  0
   -2.0963    0.8554    0.2104 C   0  0  0  0  0  0  0  0  0  0  0  0
   -1.5777    2.1539   -0.1853 O   0  0  0  0  0  0  0  0  0  0  0  0
   -2.0499    2.6854    1.0900 C   0  0  0  0  0  0  0  0  0  0  0  0
   -0.9919    2.4284    2.1777 C   0  0  0  0  0  0  0  0  0  0  0  0
   -1.1832    0.9133    2.4324 C   0  0  0  0  0  0  0  0  0  0  0  0
   -2.7145    0.8257    2.5993 C   0  0  0  0  0  0  0  0  0  0  0  0
   -3.0433    1.4914    1.2596 C   0  0  0  0  0  0  0  0  0  0  0  0
    0.2528    1.1375   -0.0023 H   0  0  0  0  0  0  0  0  0  0  0  0
   -1.1999   -0.8897    1.1988 H   0  0  0  0  0  0  0  0  0  0  0  0
   -2.4582    0.2773   -0.6417 H   0  0  0  0  0  0  0  0  0  0  0  0
   -2.4028    3.7133    0.9914 H   0  0  0  0  0  0  0  0  0  0  0  0
    0.0101    2.6971    1.8335 H   0  0  0  0  0  0  0  0  0  0  0  0
   -1.2095    3.0046    3.0840 H   0  0  0  0  0  0  0  0  0  0  0  0
   -0.5760    0.5032    3.2401 H   0  0  0  0  0  0  0  0  0  0  0  0
   -3.0849   -0.2025    2.6649 H   0  0  0  0  0  0  0  0  0  0  0  0
   -3.0903    1.3839    3.4623 H   0  0  0  0  0  0  0  0  0  0  0  0
   -4.0808    1.6551    0.9767 H   0  0  0  0  0  0  0  0  0  0  0  0
  1  2  1  0
  2  3  1  0
  3  4  1  0
  4  5  1  0
  5  6  1  0
  6  7  1  0
  7  8  1  0
  8  9  1  0
  7  2  1  0
  9  3  1  0
  9  5  1  0
  1 10  1  0
  2 11  1  0
  3 12  1  0
  5 13  1  0
  6 14  1  0
  6 15  1  0
  7 16  1  0
  8 17  1  0
  8 18  1  0
  9 19  1  0
M  END
$$$$
