gdb 2946	2.1378115	1.7313376	1.6209569	1.8204	75.4	-0.23023	0.00894	0.23917	987.8313	0.156057	-422.531071	-422.522427	-422.521482	-422.563477	33.97
 OpenBabel02181911413D

 19 20  0  0  1  0  0  0  0  0999 V2000
    1.6658   -0.5966   -1.0257 C   0  0  0  0  0  0  0  0  0  0  0  0
    1.2847    0.2365    0.1928 C   0  0  2  0  0  0  0  0  0  0  0  0
    2.0057    1.6180    0.4650 C   0  0  1  0  0  0  0  0  0  0  0  0
    1.2453    2.0732    1.7093 C   0  0  0  0  0  0  0  0  0  0  0  0
    1.1773    0.9650    2.4593 C   0  0  0  0  0  0  0  0  0  0  0  0
    1.9158   -0.0645    1.6020 C   0  0  1  0  0  0  0  0  0  0  0  0
    2.0788   -1.3916    1.9992 O   0  0  0  0  0  0  0  0  0  0  0  0
    3.1572    0.8162    1.1934 C   0  0  1  0  0  0  0  0  0  0  0  0
    4.1232    0.1807    0.3976 O   0  0  0  0  0  0  0  0  0  0  0  0
    1.3665   -1.6397   -0.8729 H   0  0  0  0  0  0  0  0  0  0  0  0
    1.1229   -0.2277   -1.9031 H   0  0  0  0  0  0  0  0  0  0  0  0
    2.7306   -0.5681   -1.2481 H   0  0  0  0  0  0  0  0  0  0  0  0
    0.1950    0.3118    0.2470 H   0  0  0  0  0  0  0  0  0  0  0  0
    2.2166    2.3319   -0.3287 H   0  0  0  0  0  0  0  0  0  0  0  0
    0.8801    3.0697    1.9145 H   0  0  0  0  0  0  0  0  0  0  0  0
    0.7409    0.7966    3.4347 H   0  0  0  0  0  0  0  0  0  0  0  0
    2.3364   -1.4096    2.9277 H   0  0  0  0  0  0  0  0  0  0  0  0
    3.6391    1.3676    2.0114 H   0  0  0  0  0  0  0  0  0  0  0  0
    4.1161   -0.7530    0.6426 H   0  0  0  0  0  0  0  0  0  0  0  0
  1 10  1  0  0  0  0
  1  2  1  0  0  0  0
  2 13  1  1  0  0  0
  2  3  1  0  0  0  0
  2  6  1  0  0  0  0
  3 14  1  6  0  0  0
  3  8  1  0  0  0  0
  3  4  1  0  0  0  0
  4 15  1  0  0  0  0
  4  5  2  0  0  0  0
  5 16  1  0  0  0  0
  6  7  1  1  0  0  0
  6  5  1  0  0  0  0
  7 17  1  0  0  0  0
  8  6  1  0  0  0  0
  8 18  1  1  0  0  0
  9 19  1  0  0  0  0
  9  8  1  0  0  0  0
 11  1  1  0  0  0  0
 12  1  1  0  0  0  0
M TOR 0 0 1 2 3
M TOR 1 0 1 2 7
M TOR 2 0 1 2 13
M TOR 3 0 1 5 4
M TOR 4 0 1 5 6
M TOR 5 0 1 5 7
M TOR 6 1 2 3 4
M TOR 7 1 2 3 14
M TOR 8 1 2 7 5
M TOR 9 1 2 7 8
M TOR 10 1 2 7 17
M TOR 11 1 5 4 3
M TOR 12 1 5 4 15
M TOR 13 1 5 6 16
M TOR 14 1 5 7 8
M TOR 15 1 5 7 17
M TOR 16 2 1 0 9
M TOR 17 2 1 0 10
M TOR 18 2 1 0 11
M TOR 19 2 1 5 4
M TOR 20 2 1 5 6
M TOR 21 2 3 4 5
M TOR 22 2 3 4 15
M TOR 23 2 7 5 4
M TOR 24 2 7 5 6
M TOR 25 2 7 8 18
M TOR 26 3 2 1 5
M TOR 27 3 2 1 12
M TOR 28 3 2 7 5
M TOR 29 3 2 7 8
M TOR 30 3 2 7 17
M TOR 31 3 4 5 6
M TOR 32 3 4 5 7
M TOR 33 4 3 2 7
M TOR 34 4 3 2 13
M TOR 35 4 5 1 12
M TOR 36 4 5 6 16
M TOR 37 4 5 7 8
M TOR 38 4 5 7 17
M TOR 39 5 1 0 9
M TOR 40 5 1 0 10
M TOR 41 5 1 0 11
M TOR 42 5 1 2 13
M TOR 43 5 4 3 14
M TOR 44 5 7 2 13
M TOR 45 5 7 8 18
M TOR 46 6 5 1 12
M TOR 47 6 5 4 15
M TOR 48 6 5 7 8
M TOR 49 6 5 7 17
M TOR 50 7 2 1 12
M TOR 51 7 2 3 14
M TOR 52 7 5 1 12
M TOR 53 7 5 4 15
M TOR 54 7 5 6 16
M TOR 55 8 7 2 13
M  END
$$$$
