gdb 4368	2.4805611	1.398603	1.1163027	2.1503	77.05	-0.23948	-0.01828	0.2212	1144.7288	0.157496	-422.586761	-422.578125	-422.577181	-422.620448	32.655
 OpenBabel02181911413D

 19 19  0  0  1  0  0  0  0  0999 V2000
   -1.4132   -1.3680    3.2489 O   0  0  0  0  0  0  0  0  0  0  0  0
   -2.1634   -0.7575    2.1911 C   0  0  2  0  0  0  0  0  0  0  0  0
   -1.8424   -1.4052    0.8372 C   0  0  0  0  0  0  0  0  0  0  0  0
   -0.3910   -1.2494    0.3764 C   0  0  0  0  0  0  0  0  0  0  0  0
    0.0882    0.1658    0.0513 C   0  0  0  0  0  0  0  0  0  0  0  0
    1.2566    0.3987   -0.1424 O   0  0  0  0  0  0  0  0  0  0  0  0
   -0.9695    1.2677   -0.0193 C   0  0  0  0  0  0  0  0  0  0  0  0
   -1.5292    1.5867    1.3526 C   0  0  0  0  0  0  0  0  0  0  0  0
   -2.0196    0.7412    2.2621 C   0  0  0  0  0  0  0  0  0  0  0  0
   -0.5539   -0.9343    3.2840 H   0  0  0  0  0  0  0  0  0  0  0  0
   -3.2062   -1.0050    2.4312 H   0  0  0  0  0  0  0  0  0  0  0  0
   -2.0620   -2.4734    0.9335 H   0  0  0  0  0  0  0  0  0  0  0  0
   -2.5343   -1.0135    0.0818 H   0  0  0  0  0  0  0  0  0  0  0  0
    0.2993   -1.6717    1.1147 H   0  0  0  0  0  0  0  0  0  0  0  0
   -0.2272   -1.8356   -0.5371 H   0  0  0  0  0  0  0  0  0  0  0  0
   -0.4912    2.1516   -0.4443 H   0  0  0  0  0  0  0  0  0  0  0  0
   -1.7706    0.9584   -0.7037 H   0  0  0  0  0  0  0  0  0  0  0  0
   -1.4927    2.6399    1.6193 H   0  0  0  0  0  0  0  0  0  0  0  0
   -2.3502    1.1568    3.2122 H   0  0  0  0  0  0  0  0  0  0  0  0
  1 10  1  0  0  0  0
  2  9  1  0  0  0  0
  2 11  1  1  0  0  0
  2  1  1  0  0  0  0
  3 12  1  0  0  0  0
  3  2  1  0  0  0  0
  4  3  1  0  0  0  0
  4 14  1  0  0  0  0
  5  4  1  0  0  0  0
  6  5  2  0  0  0  0
  7  5  1  0  0  0  0
  7  8  1  0  0  0  0
  8 18  1  0  0  0  0
  8  9  2  0  0  0  0
  9 19  1  0  0  0  0
 13  3  1  0  0  0  0
 15  4  1  0  0  0  0
 16  7  1  0  0  0  0
 17  7  1  0  0  0  0
M TOR 0 0 1 2 3
M TOR 1 0 1 2 11
M TOR 2 0 1 2 12
M TOR 3 0 1 8 7
M TOR 4 0 1 8 18
M TOR 5 1 2 3 4
M TOR 6 1 2 3 13
M TOR 7 1 2 3 14
M TOR 8 1 8 7 6
M TOR 9 1 8 7 17
M TOR 10 2 1 0 9
M TOR 11 2 1 8 7
M TOR 12 2 1 8 18
M TOR 13 2 3 4 5
M TOR 14 2 3 4 6
M TOR 15 3 2 1 8
M TOR 16 3 2 1 10
M TOR 17 3 4 6 7
M TOR 18 3 4 6 15
M TOR 19 3 4 6 16
M TOR 20 4 3 2 11
M TOR 21 4 3 2 12
M TOR 22 4 6 7 8
M TOR 23 4 6 7 17
M TOR 24 5 4 3 13
M TOR 25 5 4 3 14
M TOR 26 5 4 6 7
M TOR 27 5 4 6 15
M TOR 28 5 4 6 16
M TOR 29 6 4 3 13
M TOR 30 6 4 3 14
M TOR 31 6 7 8 18
M TOR 32 7 8 1 10
M TOR 33 8 1 0 9
M TOR 34 8 1 2 11
M TOR 35 8 1 2 12
M TOR 36 8 7 6 15
M TOR 37 8 7 6 16
M  END
$$$$
