
     RDKit          3D

 19 21  0  0  0  0  0  0  0  0999 V2000
    0.8096    1.4605   -0.3485 C   0  0  0  0  0  0  0  0  0  0  0  0
    1.2264    0.0078   -0.5612 C   0  0  0  0  0  0  0  0  0  0  0  0
    0.4535   -1.0645   -1.3299 C   0  0  0  0  0  0  0  0  0  0  0  0
   -0.7001   -1.3491   -0.3277 C   0  0  0  0  0  0  0  0  0  0  0  0
   -0.9971   -0.0497    0.1440 O   0  0  0  0  0  0  0  0  0  0  0  0
    0.2877    0.4022    0.5630 C   0  0  0  0  0  0  0  0  0  0  0  0
    0.5457   -0.1468    1.9386 C   0  0  0  0  0  0  0  0  0  0  0  0
    0.6008   -1.6837    1.6995 C   0  0  0  0  0  0  0  0  0  0  0  0
   -0.3703   -2.1788    0.7676 O   0  0  0  0  0  0  0  0  0  0  0  0
    1.5970    2.1270   -0.0097 H   0  0  0  0  0  0  0  0  0  0  0  0
    0.0723    1.9170   -1.0006 H   0  0  0  0  0  0  0  0  0  0  0  0
    2.2581   -0.2102   -0.3080 H   0  0  0  0  0  0  0  0  0  0  0  0
    0.0323   -0.7282   -2.2832 H   0  0  0  0  0  0  0  0  0  0  0  0
    1.0700   -1.9465   -1.5216 H   0  0  0  0  0  0  0  0  0  0  0  0
   -1.5964   -1.7914   -0.7692 H   0  0  0  0  0  0  0  0  0  0  0  0
    1.4964    0.1838    2.3687 H   0  0  0  0  0  0  0  0  0  0  0  0
   -0.2618    0.1275    2.6238 H   0  0  0  0  0  0  0  0  0  0  0  0
    1.6099   -1.9358    1.3424 H   0  0  0  0  0  0  0  0  0  0  0  0
    0.4246   -2.2422    2.6233 H   0  0  0  0  0  0  0  0  0  0  0  0
  1  2  1  0
  2  3  1  0
  3  4  1  0
  4  5  1  0
  5  6  1  0
  6  7  1  0
  7  8  1  0
  8  9  1  0
  6  1  1  0
  6  2  1  0
  9  4  1  0
  1 10  1  0
  1 11  1  0
  2 12  1  0
  3 13  1  0
  3 14  1  0
  4 15  1  0
  7 16  1  0
  7 17  1  0
  8 18  1  0
  8 19  1  0
M  END
$$$$
