
     RDKit          3D

 19 21  0  0  0  0  0  0  0  0999 V2000
    0.4041    0.7670    0.1671 C   0  0  0  0  0  0  0  0  0  0  0  0
    0.8493   -0.6571   -0.1156 C   0  0  0  0  0  0  0  0  0  0  0  0
    1.4819   -1.2070    1.0570 O   0  0  0  0  0  0  0  0  0  0  0  0
    2.5865   -1.9821    0.6418 C   0  0  0  0  0  0  0  0  0  0  0  0
    2.9667   -3.0678    1.6033 C   0  0  0  0  0  0  0  0  0  0  0  0
    3.6407   -1.2617   -0.1911 C   0  0  0  0  0  0  0  0  0  0  0  0
    3.1014   -0.0523   -0.7227 O   0  0  0  0  0  0  0  0  0  0  0  0
    1.9318   -0.8037   -1.1829 C   0  0  0  0  0  0  0  0  0  0  0  0
    2.6124   -2.1500   -0.8544 C   0  0  0  0  0  0  0  0  0  0  0  0
   -0.2532    0.7912    1.0402 H   0  0  0  0  0  0  0  0  0  0  0  0
    1.2763    1.3944    0.3614 H   0  0  0  0  0  0  0  0  0  0  0  0
   -0.1473    1.1720   -0.6880 H   0  0  0  0  0  0  0  0  0  0  0  0
   -0.0166   -1.2849   -0.3872 H   0  0  0  0  0  0  0  0  0  0  0  0
    3.1795   -2.6459    2.5904 H   0  0  0  0  0  0  0  0  0  0  0  0
    2.1559   -3.7956    1.7101 H   0  0  0  0  0  0  0  0  0  0  0  0
    3.8608   -3.5949    1.2571 H   0  0  0  0  0  0  0  0  0  0  0  0
    4.7166   -1.3360   -0.0738 H   0  0  0  0  0  0  0  0  0  0  0  0
    1.6524   -0.5525   -2.2070 H   0  0  0  0  0  0  0  0  0  0  0  0
    2.6634   -3.0583   -1.4399 H   0  0  0  0  0  0  0  0  0  0  0  0
  1  2  1  0
  2  3  1  0
  3  4  1  0
  4  5  1  0
  4  6  1  0
  6  7  1  0
  7  8  1  0
  8  9  1  0
  8  2  1  0
  9  4  1  0
  9  6  1  0
  1 10  1  0
  1 11  1  0
  1 12  1  0
  2 13  1  0
  5 14  1  0
  5 15  1  0
  5 16  1  0
  6 17  1  0
  8 18  1  0
  9 19  1  0
M  END
$$$$
