
     RDKit          3D

 19 19  0  0  0  0  0  0  0  0999 V2000
   -5.9621   -0.3966   -2.4210 O   0  0  0  0  0  0  0  0  0  0  0  0
   -4.9934    0.6447   -2.4322 C   0  0  0  0  0  0  0  0  0  0  0  0
   -3.9768    0.5091   -1.3904 C   0  0  0  0  0  0  0  0  0  0  0  0
   -3.1745    0.3774   -0.4992 C   0  0  0  0  0  0  0  0  0  0  0  0
   -2.1846    0.2570    0.5478 C   0  0  0  0  0  0  0  0  0  0  0  0
   -2.2865    1.1348    1.8381 C   0  0  0  0  0  0  0  0  0  0  0  0
   -0.7404    1.2493    1.8423 C   0  0  0  0  0  0  0  0  0  0  0  0
   -0.7562    0.8760    0.3377 C   0  0  0  0  0  0  0  0  0  0  0  0
    0.2677    0.1086   -0.2231 O   0  0  0  0  0  0  0  0  0  0  0  0
   -6.2903   -0.4707   -1.5189 H   0  0  0  0  0  0  0  0  0  0  0  0
   -4.5268    0.6042   -3.4230 H   0  0  0  0  0  0  0  0  0  0  0  0
   -5.4715    1.6343   -2.3490 H   0  0  0  0  0  0  0  0  0  0  0  0
   -2.0619   -0.7949    0.8376 H   0  0  0  0  0  0  0  0  0  0  0  0
   -2.7689    2.0905    1.6220 H   0  0  0  0  0  0  0  0  0  0  0  0
   -2.7691    0.6810    2.7046 H   0  0  0  0  0  0  0  0  0  0  0  0
   -0.2862    2.1995    2.1285 H   0  0  0  0  0  0  0  0  0  0  0  0
   -0.2824    0.4483    2.4342 H   0  0  0  0  0  0  0  0  0  0  0  0
   -0.8378    1.7712   -0.2850 H   0  0  0  0  0  0  0  0  0  0  0  0
    0.3885   -0.6780    0.3196 H   0  0  0  0  0  0  0  0  0  0  0  0
  1  2  1  0
  2  3  1  0
  3  4  3  0
  4  5  1  0
  5  6  1  0
  6  7  1  0
  7  8  1  0
  8  9  1  0
  8  5  1  0
  1 10  1  0
  2 11  1  0
  2 12  1  0
  5 13  1  0
  6 14  1  0
  6 15  1  0
  7 16  1  0
  7 17  1  0
  8 18  1  0
  9 19  1  0
M  END
$$$$
