gdb 980	3.9571212	0.6944034	0.6239372	2.8165	77.83	-0.24285	-0.03327	0.20958000000000002	1740.2039	0.154397	-422.572377	-422.562716	-422.561772	-422.608813	33.302
 OpenBabel02181911403D

 19 19  0  0  1  0  0  0  0  0999 V2000
    1.1971   -0.7262    0.0080 O   0  0  0  0  0  0  0  0  0  0  0  0
    0.0984   -0.2369   -0.0331 C   0  0  0  0  0  0  0  0  0  0  0  0
   -0.4173    0.6474   -1.1467 C   0  0  0  0  0  0  0  0  0  0  0  0
   -0.9077    2.0060   -0.6147 C   0  0  0  0  0  0  0  0  0  0  0  0
   -1.5037    2.8948   -1.7011 C   0  0  2  0  0  0  0  0  0  0  0  0
   -0.5797    3.5972   -2.7499 C   0  0  0  0  0  0  0  0  0  0  0  0
   -1.3055    4.9550   -2.5013 C   0  0  0  0  0  0  0  0  0  0  0  0
   -1.9754    4.3021   -1.2818 C   0  0  0  0  0  0  0  0  0  0  0  0
   -2.5405    4.7190   -0.3131 O   0  0  0  0  0  0  0  0  0  0  0  0
   -0.6362   -0.4085    0.7894 H   0  0  0  0  0  0  0  0  0  0  0  0
    0.3741    0.7645   -1.8927 H   0  0  0  0  0  0  0  0  0  0  0  0
   -1.2598    0.1237   -1.6221 H   0  0  0  0  0  0  0  0  0  0  0  0
   -1.6646    1.8520    0.1643 H   0  0  0  0  0  0  0  0  0  0  0  0
   -0.0738    2.5324   -0.1337 H   0  0  0  0  0  0  0  0  0  0  0  0
   -2.3322    2.3751   -2.2013 H   0  0  0  0  0  0  0  0  0  0  0  0
    0.4634    3.6204   -2.4239 H   0  0  0  0  0  0  0  0  0  0  0  0
   -0.6214    3.2083   -3.7677 H   0  0  0  0  0  0  0  0  0  0  0  0
   -0.6973    5.8397   -2.2986 H   0  0  0  0  0  0  0  0  0  0  0  0
   -2.0369    5.2081   -3.2760 H   0  0  0  0  0  0  0  0  0  0  0  0
  2  1  2  0  0  0  0
  2 10  1  0  0  0  0
  3  4  1  0  0  0  0
  3  2  1  0  0  0  0
  4 14  1  0  0  0  0
  4 13  1  0  0  0  0
  5 15  1  6  0  0  0
  5  8  1  0  0  0  0
  5  4  1  0  0  0  0
  6  7  1  0  0  0  0
  6 16  1  0  0  0  0
  6  5  1  0  0  0  0
  7 18  1  0  0  0  0
  7  8  1  0  0  0  0
  8  9  2  0  0  0  0
 11  3  1  0  0  0  0
 12  3  1  0  0  0  0
 17  6  1  0  0  0  0
 19  7  1  0  0  0  0
M TOR 0 0 1 2 3
M TOR 1 0 1 2 10
M TOR 2 0 1 2 11
M TOR 3 1 2 3 4
M TOR 4 1 2 3 12
M TOR 5 1 2 3 13
M TOR 6 2 3 4 5
M TOR 7 2 3 4 7
M TOR 8 2 3 4 14
M TOR 9 3 2 1 9
M TOR 10 3 4 5 6
M TOR 11 3 4 5 15
M TOR 12 3 4 5 16
M TOR 13 3 4 7 6
M TOR 14 3 4 7 8
M TOR 15 4 3 2 10
M TOR 16 4 3 2 11
M TOR 17 4 5 6 7
M TOR 18 4 5 6 17
M TOR 19 4 5 6 18
M TOR 20 4 7 6 17
M TOR 21 4 7 6 18
M TOR 22 5 4 3 12
M TOR 23 5 4 3 13
M TOR 24 5 4 7 8
M TOR 25 5 6 7 8
M TOR 26 6 5 4 14
M TOR 27 6 7 4 14
M TOR 28 7 4 3 12
M TOR 29 7 4 3 13
M TOR 30 7 4 5 15
M TOR 31 7 4 5 16
M TOR 32 7 6 5 15
M TOR 33 7 6 5 16
M TOR 34 8 7 4 14
M TOR 35 8 7 6 17
M TOR 36 8 7 6 18
M  END
$$$$
