
     RDKit          3D

 19 20  0  0  0  0  0  0  0  0999 V2000
    1.5837   -1.4703   -4.7139 C   0  0  0  0  0  0  0  0  0  0  0  0
    0.7812   -0.1940   -4.6348 C   0  0  0  0  0  0  0  0  0  0  0  0
   -0.0184    0.1506   -5.4773 O   0  0  0  0  0  0  0  0  0  0  0  0
    1.0153    0.7151   -3.4344 C   0  0  0  0  0  0  0  0  0  0  0  0
    2.0386    0.2739   -2.5177 O   0  0  0  0  0  0  0  0  0  0  0  0
    2.8080    1.4884   -2.6962 C   0  0  0  0  0  0  0  0  0  0  0  0
    1.7981    2.0056   -3.7146 C   0  0  0  0  0  0  0  0  0  0  0  0
    1.2727    3.3893   -3.9223 C   0  0  0  0  0  0  0  0  0  0  0  0
    2.0347    2.6895   -5.0255 C   0  0  0  0  0  0  0  0  0  0  0  0
    2.6529   -1.2361   -4.7545 H   0  0  0  0  0  0  0  0  0  0  0  0
    1.4405   -2.0644   -3.8053 H   0  0  0  0  0  0  0  0  0  0  0  0
    1.2883   -2.0382   -5.5967 H   0  0  0  0  0  0  0  0  0  0  0  0
    0.0512    0.8691   -2.9297 H   0  0  0  0  0  0  0  0  0  0  0  0
    2.8796    2.0618   -1.7633 H   0  0  0  0  0  0  0  0  0  0  0  0
    3.8183    1.2799   -3.0710 H   0  0  0  0  0  0  0  0  0  0  0  0
    0.2011    3.5088   -4.0438 H   0  0  0  0  0  0  0  0  0  0  0  0
    1.7601    4.2023   -3.3930 H   0  0  0  0  0  0  0  0  0  0  0  0
    1.4725    2.3368   -5.8833 H   0  0  0  0  0  0  0  0  0  0  0  0
    3.0430    3.0254   -5.2463 H   0  0  0  0  0  0  0  0  0  0  0  0
  1  2  1  0
  2  3  2  0
  2  4  1  0
  4  5  1  0
  5  6  1  0
  6  7  1  0
  7  8  1  0
  8  9  1  0
  7  4  1  0
  9  7  1  0
  1 10  1  0
  1 11  1  0
  1 12  1  0
  4 13  1  0
  6 14  1  0
  6 15  1  0
  8 16  1  0
  8 17  1  0
  9 18  1  0
  9 19  1  0
M  END
$$$$
