
     RDKit          3D

 19 21  0  0  0  0  0  0  0  0999 V2000
   -0.2688    2.0870   -1.4227 C   0  0  0  0  0  0  0  0  0  0  0  0
   -0.0324    0.6495   -1.7731 C   0  0  0  0  0  0  0  0  0  0  0  0
    0.1394    0.4266   -3.1856 O   0  0  0  0  0  0  0  0  0  0  0  0
   -0.1239   -0.9892   -3.1893 C   0  0  0  0  0  0  0  0  0  0  0  0
   -1.6062   -1.0440   -2.7574 C   0  0  0  0  0  0  0  0  0  0  0  0
   -1.0185   -0.5614   -1.4235 C   0  0  0  0  0  0  0  0  0  0  0  0
    0.3069   -1.3697   -1.7187 C   0  0  0  0  0  0  0  0  0  0  0  0
    1.1520   -0.1924   -1.2079 C   0  0  0  0  0  0  0  0  0  0  0  0
    1.3344   -0.1489    0.1913 O   0  0  0  0  0  0  0  0  0  0  0  0
   -0.2266    2.2156   -0.3373 H   0  0  0  0  0  0  0  0  0  0  0  0
    0.5059    2.7168   -1.8720 H   0  0  0  0  0  0  0  0  0  0  0  0
   -1.2428    2.4308   -1.7840 H   0  0  0  0  0  0  0  0  0  0  0  0
    0.2739   -1.4597   -4.0869 H   0  0  0  0  0  0  0  0  0  0  0  0
   -2.3050   -0.4108   -3.3098 H   0  0  0  0  0  0  0  0  0  0  0  0
   -1.9861   -2.0661   -2.6734 H   0  0  0  0  0  0  0  0  0  0  0  0
   -1.5620   -0.5539   -0.4795 H   0  0  0  0  0  0  0  0  0  0  0  0
    0.4717   -2.4137   -1.4569 H   0  0  0  0  0  0  0  0  0  0  0  0
    2.1255    0.0059   -1.6633 H   0  0  0  0  0  0  0  0  0  0  0  0
    0.5665   -0.5468    0.6152 H   0  0  0  0  0  0  0  0  0  0  0  0
  1  2  1  0
  2  3  1  0
  3  4  1  0
  4  5  1  0
  5  6  1  0
  6  7  1  0
  7  8  1  0
  8  9  1  0
  6  2  1  0
  8  2  1  0
  7  4  1  0
  1 10  1  0
  1 11  1  0
  1 12  1  0
  4 13  1  0
  5 14  1  0
  5 15  1  0
  6 16  1  0
  7 17  1  0
  8 18  1  0
  9 19  1  0
M  END
$$$$
