gdb 374	4.7564015	1.0139044	0.9845307	0.5017	75.93	-0.24202	0.0579	0.29992	1267.8936	0.155973	-422.501747	-422.493502	-422.492558	-422.535382	31.081
 OpenBabel02181911403D

 19 21  0  0  1  0  0  0  0  0999 V2000
    4.4980   -1.2387    0.6345 C   0  0  0  0  0  0  0  0  0  0  0  0
    3.3597   -2.1110    0.5566 O   0  0  0  0  0  0  0  0  0  0  0  0
    3.1694   -0.7231    0.3166 C   0  0  1  0  0  0  0  0  0  0  0  0
    2.1754    0.1014    1.1398 C   0  0  0  0  0  0  0  0  0  0  0  0
    1.3709    0.3417   -0.1679 C   0  0  1  0  0  0  0  0  0  0  0  0
   -0.0583   -0.2133   -0.3456 C   0  0  0  0  0  0  0  0  0  0  0  0
   -0.4374    1.2520   -0.6313 C   0  0  0  0  0  0  0  0  0  0  0  0
    0.9293    1.6805   -0.4463 O   0  0  0  0  0  0  0  0  0  0  0  0
    2.5635   -0.2144   -0.9947 C   0  0  0  0  0  0  0  0  0  0  0  0
    4.9105   -1.0985    1.6333 H   0  0  0  0  0  0  0  0  0  0  0  0
    5.2360   -1.3635   -0.1574 H   0  0  0  0  0  0  0  0  0  0  0  0
    1.6682   -0.4220    1.9542 H   0  0  0  0  0  0  0  0  0  0  0  0
    2.6007    1.0385    1.5118 H   0  0  0  0  0  0  0  0  0  0  0  0
   -0.1856   -0.9047   -1.1804 H   0  0  0  0  0  0  0  0  0  0  0  0
   -0.5006   -0.6483    0.5523 H   0  0  0  0  0  0  0  0  0  0  0  0
   -0.7975    1.4652   -1.6446 H   0  0  0  0  0  0  0  0  0  0  0  0
   -1.1133    1.7222    0.0924 H   0  0  0  0  0  0  0  0  0  0  0  0
    2.3420   -0.9705   -1.7522 H   0  0  0  0  0  0  0  0  0  0  0  0
    3.1381    0.6010   -1.4442 H   0  0  0  0  0  0  0  0  0  0  0  0
  1 10  1  0  0  0  0
  2  1  1  0  0  0  0
  3  2  1  1  0  0  0
  3  1  1  0  0  0  0
  3  4  1  0  0  0  0
  4 13  1  0  0  0  0
  4 12  1  0  0  0  0
  5  8  1  6  0  0  0
  5  4  1  0  0  0  0
  6  5  1  0  0  0  0
  6 15  1  0  0  0  0
  7  8  1  0  0  0  0
  7  6  1  0  0  0  0
  7 17  1  0  0  0  0
  9  5  1  0  0  0  0
  9  3  1  0  0  0  0
 11  1  1  0  0  0  0
 14  6  1  0  0  0  0
 16  7  1  0  0  0  0
 18  9  1  0  0  0  0
 19  9  1  0  0  0  0
M TOR 0 0 1 2 3
M TOR 1 0 1 2 8
M TOR 2 0 2 3 4
M TOR 3 0 2 3 11
M TOR 4 0 2 3 12
M TOR 5 0 2 8 4
M TOR 6 0 2 8 17
M TOR 7 0 2 8 18
M TOR 8 1 2 0 9
M TOR 9 1 2 0 10
M TOR 10 1 2 3 4
M TOR 11 1 2 3 11
M TOR 12 1 2 3 12
M TOR 13 1 2 8 4
M TOR 14 1 2 8 17
M TOR 15 1 2 8 18
M TOR 16 2 3 4 5
M TOR 17 2 3 4 7
M TOR 18 2 3 4 8
M TOR 19 2 8 4 5
M TOR 20 2 8 4 7
M TOR 21 3 2 0 9
M TOR 22 3 2 0 10
M TOR 23 3 2 8 17
M TOR 24 3 2 8 18
M TOR 25 3 4 5 6
M TOR 26 3 4 5 13
M TOR 27 3 4 5 14
M TOR 28 3 4 7 6
M TOR 29 3 4 8 17
M TOR 30 3 4 8 18
M TOR 31 4 5 6 7
M TOR 32 4 5 6 15
M TOR 33 4 5 6 16
M TOR 34 4 7 6 15
M TOR 35 4 7 6 16
M TOR 36 5 4 3 11
M TOR 37 5 4 3 12
M TOR 38 5 4 8 17
M TOR 39 5 4 8 18
M TOR 40 6 5 4 8
M TOR 41 6 7 4 8
M TOR 42 7 4 3 11
M TOR 43 7 4 3 12
M TOR 44 7 4 5 13
M TOR 45 7 4 5 14
M TOR 46 7 4 8 17
M TOR 47 7 4 8 18
M TOR 48 7 6 5 13
M TOR 49 7 6 5 14
M TOR 50 8 2 0 9
M TOR 51 8 2 0 10
M TOR 52 8 2 3 11
M TOR 53 8 2 3 12
M TOR 54 8 4 3 11
M TOR 55 8 4 3 12
M TOR 56 8 4 5 13
M TOR 57 8 4 5 14
M  END
$$$$
