gdb 2929	2.8976981	1.5717841	1.3769948	1.734	74.61	-0.25106	0.07423	0.32529	1009.3185	0.15819	-422.539441	-422.531606	-422.530662	-422.571179	31.253
 OpenBabel02181911413D

 19 21  0  0  1  0  0  0  0  0999 V2000
    0.4068   -0.0980    0.3743 O   0  0  0  0  0  0  0  0  0  0  0  0
   -0.7680    0.4835    0.8941 C   0  0  1  0  0  0  0  0  0  0  0  0
   -0.7968    0.9845    2.3621 C   0  0  1  0  0  0  0  0  0  0  0  0
    0.2157    2.1164    1.9965 C   0  0  2  0  0  0  0  0  0  0  0  0
   -0.1163    3.3716    2.8032 C   0  0  0  0  0  0  0  0  0  0  0  0
   -1.6698    3.3127    2.7666 C   0  0  0  0  0  0  0  0  0  0  0  0
   -1.8669    2.0442    1.9349 C   0  0  1  0  0  0  0  0  0  0  0  0
   -0.8075    2.0169    0.8020 C   0  0  2  0  0  0  0  0  0  0  0  0
   -0.8777    2.8117   -0.3264 O   0  0  0  0  0  0  0  0  0  0  0  0
    0.4129   -1.0318    0.6045 H   0  0  0  0  0  0  0  0  0  0  0  0
   -1.6670   -0.0456    0.5497 H   0  0  0  0  0  0  0  0  0  0  0  0
   -0.8074    0.3878    3.2727 H   0  0  0  0  0  0  0  0  0  0  0  0
    1.2568    1.8510    1.8229 H   0  0  0  0  0  0  0  0  0  0  0  0
    0.2862    3.3328    3.8203 H   0  0  0  0  0  0  0  0  0  0  0  0
    0.2792    4.2739    2.3265 H   0  0  0  0  0  0  0  0  0  0  0  0
   -2.1147    3.2228    3.7625 H   0  0  0  0  0  0  0  0  0  0  0  0
   -2.1150    4.1874    2.2833 H   0  0  0  0  0  0  0  0  0  0  0  0
   -2.8830    1.7125    1.7120 H   0  0  0  0  0  0  0  0  0  0  0  0
   -0.1271    2.5921   -0.8900 H   0  0  0  0  0  0  0  0  0  0  0  0
  1 10  1  0  0  0  0
  1  2  1  0  0  0  0
  2 11  1  6  0  0  0
  2  3  1  0  0  0  0
  3 12  1  1  0  0  0
  4 13  1  6  0  0  0
  4  3  1  0  0  0  0
  4  5  1  0  0  0  0
  5 14  1  0  0  0  0
  6  5  1  0  0  0  0
  6 16  1  0  0  0  0
  7 18  1  6  0  0  0
  7  3  1  0  0  0  0
  7  6  1  0  0  0  0
  8  9  1  6  0  0  0
  8  2  1  0  0  0  0
  8  7  1  0  0  0  0
  8  4  1  0  0  0  0
 15  5  1  0  0  0  0
 17  6  1  0  0  0  0
 19  9  1  0  0  0  0
M TOR 0 0 1 2 3
M TOR 1 0 1 2 6
M TOR 2 0 1 2 11
M TOR 3 0 1 7 3
M TOR 4 0 1 7 6
M TOR 5 0 1 7 8
M TOR 6 1 2 3 4
M TOR 7 1 2 3 7
M TOR 8 1 2 3 12
M TOR 9 1 2 6 5
M TOR 10 1 2 6 7
M TOR 11 1 2 6 17
M TOR 12 1 7 3 4
M TOR 13 1 7 3 12
M TOR 14 1 7 6 5
M TOR 15 1 7 6 17
M TOR 16 1 7 8 18
M TOR 17 2 1 0 9
M TOR 18 2 1 7 8
M TOR 19 2 3 4 5
M TOR 20 2 3 4 13
M TOR 21 2 3 4 14
M TOR 22 2 3 7 6
M TOR 23 2 3 7 8
M TOR 24 2 6 5 4
M TOR 25 2 6 5 15
M TOR 26 2 6 5 16
M TOR 27 2 6 7 8
M TOR 28 3 2 1 10
M TOR 29 3 2 6 5
M TOR 30 3 2 6 17
M TOR 31 3 4 5 6
M TOR 32 3 4 5 15
M TOR 33 3 4 5 16
M TOR 34 3 7 1 10
M TOR 35 3 7 6 5
M TOR 36 3 7 6 17
M TOR 37 3 7 8 18
M TOR 38 4 3 2 6
M TOR 39 4 3 2 11
M TOR 40 4 3 7 6
M TOR 41 4 3 7 8
M TOR 42 4 5 6 7
M TOR 43 4 5 6 17
M TOR 44 5 4 3 7
M TOR 45 5 4 3 12
M TOR 46 5 6 2 11
M TOR 47 5 6 7 8
M TOR 48 6 2 1 10
M TOR 49 6 2 3 12
M TOR 50 6 5 4 13
M TOR 51 6 5 4 14
M TOR 52 6 7 1 10
M TOR 53 6 7 3 12
M TOR 54 6 7 8 18
M TOR 55 7 1 0 9
M TOR 56 7 1 2 11
M TOR 57 7 3 2 11
M TOR 58 7 3 4 13
M TOR 59 7 3 4 14
M TOR 60 7 6 2 11
M TOR 61 7 6 5 15
M TOR 62 7 6 5 16
M TOR 63 8 7 1 10
M TOR 64 8 7 3 12
M TOR 65 8 7 6 17
M  END
$$$$
