
     RDKit          3D

 19 19  0  0  0  0  0  0  0  0999 V2000
    4.8279   -0.6899   -5.1243 C   0  0  0  0  0  0  0  0  0  0  0  0
    4.2127   -0.2641   -3.9303 O   0  0  0  0  0  0  0  0  0  0  0  0
    3.1781   -1.1400   -3.5267 C   0  0  0  0  0  0  0  0  0  0  0  0
    2.5740   -0.6705   -2.2879 C   0  0  0  0  0  0  0  0  0  0  0  0
    2.0716   -0.3064   -1.2561 C   0  0  0  0  0  0  0  0  0  0  0  0
    1.4347    0.1447   -0.0410 C   0  0  0  0  0  0  0  0  0  0  0  0
   -0.0575    0.3906   -0.1244 C   0  0  0  0  0  0  0  0  0  0  0  0
    2.2519    0.8550    0.9659 C   0  0  0  0  0  0  0  0  0  0  0  0
    1.8794   -0.5029    1.1697 O   0  0  0  0  0  0  0  0  0  0  0  0
    5.2870   -1.6856   -5.0164 H   0  0  0  0  0  0  0  0  0  0  0  0
    4.1130   -0.7313   -5.9617 H   0  0  0  0  0  0  0  0  0  0  0  0
    5.6086    0.0360   -5.3614 H   0  0  0  0  0  0  0  0  0  0  0  0
    2.4063   -1.2125   -4.3133 H   0  0  0  0  0  0  0  0  0  0  0  0
    3.5721   -2.1613   -3.3811 H   0  0  0  0  0  0  0  0  0  0  0  0
   -0.4385    0.7190    0.8457 H   0  0  0  0  0  0  0  0  0  0  0  0
   -0.2791    1.1559   -0.8744 H   0  0  0  0  0  0  0  0  0  0  0  0
   -0.5786   -0.5274   -0.4114 H   0  0  0  0  0  0  0  0  0  0  0  0
    3.3079    1.0300    0.7695 H   0  0  0  0  0  0  0  0  0  0  0  0
    1.7657    1.5822    1.6160 H   0  0  0  0  0  0  0  0  0  0  0  0
  1  2  1  0
  2  3  1  0
  3  4  1  0
  4  5  3  0
  5  6  1  0
  6  7  1  0
  6  8  1  0
  8  9  1  0
  9  6  1  0
  1 10  1  0
  1 11  1  0
  1 12  1  0
  3 13  1  0
  3 14  1  0
  7 15  1  0
  7 16  1  0
  7 17  1  0
  8 18  1  0
  8 19  1  0
M  END
$$$$
