
     RDKit          3D

 19 21  0  0  0  0  0  0  0  0999 V2000
    2.1594   -3.9839   -1.1065 C   0  0  0  0  0  0  0  0  0  0  0  0
    1.3087   -2.7555   -1.0180 C   0  0  0  0  0  0  0  0  0  0  0  0
    1.7349   -1.6315   -1.8292 O   0  0  0  0  0  0  0  0  0  0  0  0
    0.3924   -1.1121   -1.5589 C   0  0  0  0  0  0  0  0  0  0  0  0
   -0.1783   -2.5665   -1.4214 C   0  0  0  0  0  0  0  0  0  0  0  0
   -0.6126   -2.7966    0.0373 C   0  0  0  0  0  0  0  0  0  0  0  0
    0.7692   -2.1859    0.3830 C   0  0  0  0  0  0  0  0  0  0  0  0
    0.5692   -0.7175   -0.0709 C   0  0  0  0  0  0  0  0  0  0  0  0
    1.6497    0.1505    0.1358 O   0  0  0  0  0  0  0  0  0  0  0  0
    1.7143   -4.8010   -0.5305 H   0  0  0  0  0  0  0  0  0  0  0  0
    2.2702   -4.3080   -2.1454 H   0  0  0  0  0  0  0  0  0  0  0  0
    3.1567   -3.7876   -0.6980 H   0  0  0  0  0  0  0  0  0  0  0  0
    0.0551   -0.3760   -2.2867 H   0  0  0  0  0  0  0  0  0  0  0  0
   -0.6339   -3.0327   -2.2940 H   0  0  0  0  0  0  0  0  0  0  0  0
   -1.4996   -2.2849    0.4214 H   0  0  0  0  0  0  0  0  0  0  0  0
   -0.6840   -3.8642    0.2607 H   0  0  0  0  0  0  0  0  0  0  0  0
    1.2763   -2.3568    1.3309 H   0  0  0  0  0  0  0  0  0  0  0  0
   -0.3148   -0.2591    0.3799 H   0  0  0  0  0  0  0  0  0  0  0  0
    2.3351   -0.1558   -0.4760 H   0  0  0  0  0  0  0  0  0  0  0  0
  1  2  1  0
  2  3  1  0
  3  4  1  0
  4  5  1  0
  5  6  1  0
  6  7  1  0
  7  8  1  0
  8  9  1  0
  5  2  1  0
  7  2  1  0
  8  4  1  0
  1 10  1  0
  1 11  1  0
  1 12  1  0
  4 13  1  0
  5 14  1  0
  6 15  1  0
  6 16  1  0
  7 17  1  0
  8 18  1  0
  9 19  1  0
M  END
$$$$
