gdb 2407	2.405985	1.7603449	1.3938398	0.4635	75.25	-0.24524	0.01938	0.26462	1005.1231	0.157846	-422.558509	-422.550556	-422.549612	-422.590731	31.117
 OpenBabel02181911413D

 19 20  0  0  1  0  0  0  0  0999 V2000
    0.4998    0.7135    1.0827 O   0  0  0  0  0  0  0  0  0  0  0  0
   -0.7573    1.0328    0.5320 C   0  0  1  0  0  0  0  0  0  0  0  0
   -1.6638   -0.1597    0.1359 C   0  0  0  0  0  0  0  0  0  0  0  0
   -2.6930    0.2559    1.0499 O   0  0  0  0  0  0  0  0  0  0  0  0
   -1.9011    1.3638    1.5397 C   0  0  2  0  0  0  0  0  0  0  0  0
   -2.6327    2.6915    1.3832 C   0  0  0  0  0  0  0  0  0  0  0  0
   -2.7140    3.1218   -0.0592 C   0  0  0  0  0  0  0  0  0  0  0  0
   -1.7536    2.8378   -0.9374 C   0  0  0  0  0  0  0  0  0  0  0  0
   -0.5107    2.0736   -0.5589 C   0  0  0  0  0  0  0  0  0  0  0  0
    0.3771    0.0231    1.7433 H   0  0  0  0  0  0  0  0  0  0  0  0
   -2.0184   -0.1790   -0.9017 H   0  0  0  0  0  0  0  0  0  0  0  0
   -1.2422   -1.1424    0.3921 H   0  0  0  0  0  0  0  0  0  0  0  0
   -1.6013    1.2029    2.5857 H   0  0  0  0  0  0  0  0  0  0  0  0
   -3.6320    2.5882    1.8210 H   0  0  0  0  0  0  0  0  0  0  0  0
   -2.1137    3.4570    1.9794 H   0  0  0  0  0  0  0  0  0  0  0  0
   -3.5825    3.6968   -0.3671 H   0  0  0  0  0  0  0  0  0  0  0  0
   -1.8332    3.1835   -1.9640 H   0  0  0  0  0  0  0  0  0  0  0  0
   -0.0714    1.5776   -1.4318 H   0  0  0  0  0  0  0  0  0  0  0  0
    0.2593    2.7629   -0.1854 H   0  0  0  0  0  0  0  0  0  0  0  0
  1 10  1  0  0  0  0
  2  1  1  1  0  0  0
  2  5  1  0  0  0  0
  3 12  1  0  0  0  0
  3  2  1  0  0  0  0
  3  4  1  0  0  0  0
  4  5  1  0  0  0  0
  5 13  1  1  0  0  0
  6  5  1  0  0  0  0
  6 14  1  0  0  0  0
  6 15  1  0  0  0  0
  7  6  1  0  0  0  0
  8  9  1  0  0  0  0
  8  7  2  0  0  0  0
  9 19  1  0  0  0  0
  9  2  1  0  0  0  0
 11  3  1  0  0  0  0
 16  7  1  0  0  0  0
 17  8  1  0  0  0  0
 18  9  1  0  0  0  0
M TOR 0 0 1 2 3
M TOR 1 0 1 2 10
M TOR 2 0 1 2 11
M TOR 3 0 1 4 3
M TOR 4 0 1 4 5
M TOR 5 0 1 4 12
M TOR 6 0 1 8 7
M TOR 7 0 1 8 17
M TOR 8 0 1 8 18
M TOR 9 1 2 3 4
M TOR 10 1 4 5 6
M TOR 11 1 4 5 13
M TOR 12 1 4 5 14
M TOR 13 1 8 7 6
M TOR 14 1 8 7 16
M TOR 15 2 1 0 9
M TOR 16 2 1 4 5
M TOR 17 2 1 4 12
M TOR 18 2 1 8 7
M TOR 19 2 1 8 17
M TOR 20 2 1 8 18
M TOR 21 2 3 4 5
M TOR 22 2 3 4 12
M TOR 23 3 2 1 8
M TOR 24 3 4 1 8
M TOR 25 3 4 5 6
M TOR 26 3 4 5 13
M TOR 27 3 4 5 14
M TOR 28 4 1 0 9
M TOR 29 4 1 2 10
M TOR 30 4 1 2 11
M TOR 31 4 1 8 7
M TOR 32 4 1 8 17
M TOR 33 4 1 8 18
M TOR 34 4 3 2 10
M TOR 35 4 3 2 11
M TOR 36 4 5 6 7
M TOR 37 4 5 6 15
M TOR 38 5 4 1 8
M TOR 39 5 6 7 8
M TOR 40 5 6 7 16
M TOR 41 6 5 4 12
M TOR 42 6 7 8 17
M TOR 43 6 7 8 18
M TOR 44 7 6 5 13
M TOR 45 7 6 5 14
M TOR 46 8 1 0 9
M TOR 47 8 1 2 10
M TOR 48 8 1 2 11
M TOR 49 8 1 4 12
M TOR 50 8 7 6 15
M  END
$$$$
