gdb 3616	3.0453068	1.1018014	0.9166889	1.0239	77.35	-0.24629	-0.02906	0.21723	1332.4643	0.155191	-422.540131	-422.530982	-422.530038	-422.574806	32.975
 OpenBabel02181911413D

 19 20  0  0  1  0  0  0  0  0999 V2000
   -1.2327   -2.1378   -1.1861 C   0  0  0  0  0  0  0  0  0  0  0  0
   -0.9880   -1.1523   -0.0576 C   0  0  2  0  0  0  0  0  0  0  0  0
   -1.9099   -0.0340   -0.0397 O   0  0  0  0  0  0  0  0  0  0  0  0
   -0.8667    0.9774   -0.0770 C   0  0  2  0  0  0  0  0  0  0  0  0
   -0.9959    1.9645   -1.1963 C   0  0  0  0  0  0  0  0  0  0  0  0
   -1.7924    3.2322   -0.9947 C   0  0  0  0  0  0  0  0  0  0  0  0
   -0.2924    3.2969   -1.0861 C   0  0  0  0  0  0  0  0  0  0  0  0
    0.1708   -0.1553   -0.2067 C   0  0  0  0  0  0  0  0  0  0  0  0
    1.3460   -0.2272   -0.3982 O   0  0  0  0  0  0  0  0  0  0  0  0
   -0.4559   -2.9086   -1.1805 H   0  0  0  0  0  0  0  0  0  0  0  0
   -2.2049   -2.6231   -1.0607 H   0  0  0  0  0  0  0  0  0  0  0  0
   -1.2199   -1.6339   -2.1565 H   0  0  0  0  0  0  0  0  0  0  0  0
   -0.9715   -1.6681    0.9140 H   0  0  0  0  0  0  0  0  0  0  0  0
   -0.7885    1.5022    0.8879 H   0  0  0  0  0  0  0  0  0  0  0  0
   -1.0385    1.5163   -2.1843 H   0  0  0  0  0  0  0  0  0  0  0  0
   -2.3787    3.5964   -1.8305 H   0  0  0  0  0  0  0  0  0  0  0  0
   -2.2532    3.3893   -0.0254 H   0  0  0  0  0  0  0  0  0  0  0  0
    0.1586    3.7024   -1.9841 H   0  0  0  0  0  0  0  0  0  0  0  0
    0.2672    3.5019   -0.1797 H   0  0  0  0  0  0  0  0  0  0  0  0
  1 10  1  0  0  0  0
  1 11  1  0  0  0  0
  1  2  1  0  0  0  0
  2  3  1  0  0  0  0
  2 13  1  1  0  0  0
  4  3  1  0  0  0  0
  4 14  1  1  0  0  0
  5  7  1  0  0  0  0
  5  6  1  0  0  0  0
  5  4  1  0  0  0  0
  6 17  1  0  0  0  0
  7  6  1  0  0  0  0
  7 19  1  0  0  0  0
  8  4  1  0  0  0  0
  8  2  1  0  0  0  0
  9  8  2  0  0  0  0
 12  1  1  0  0  0  0
 15  5  1  0  0  0  0
 16  6  1  0  0  0  0
 18  7  1  0  0  0  0
M TOR 0 0 1 2 3
M TOR 1 0 1 7 3
M TOR 2 0 1 7 8
M TOR 3 1 2 3 4
M TOR 4 1 2 3 7
M TOR 5 1 2 3 13
M TOR 6 1 7 3 4
M TOR 7 1 7 3 13
M TOR 8 2 1 0 9
M TOR 9 2 1 0 10
M TOR 10 2 1 0 11
M TOR 11 2 1 7 8
M TOR 12 2 3 4 5
M TOR 13 2 3 4 6
M TOR 14 2 3 4 14
M TOR 15 2 3 7 8
M TOR 16 3 2 1 12
M TOR 17 3 4 5 6
M TOR 18 3 4 5 15
M TOR 19 3 4 5 16
M TOR 20 3 4 6 17
M TOR 21 3 4 6 18
M TOR 22 3 7 1 12
M TOR 23 4 3 7 8
M TOR 24 4 5 6 17
M TOR 25 4 5 6 18
M TOR 26 4 6 5 15
M TOR 27 4 6 5 16
M TOR 28 5 4 3 7
M TOR 29 5 4 3 13
M TOR 30 5 6 4 14
M TOR 31 6 4 3 7
M TOR 32 6 4 3 13
M TOR 33 7 1 0 9
M TOR 34 7 1 0 10
M TOR 35 7 1 0 11
M TOR 36 7 3 4 14
M TOR 37 8 7 1 12
M TOR 38 8 7 3 13
M  END
$$$$
