gdb 3963	3.6195924	1.1934632	1.0063827	2.5309	77.73	-0.22082	0.02942	0.25024	1202.7094	0.158377	-422.567533	-422.55936	-422.558416	-422.600597	30.621
 OpenBabel02181911413D

 19 20  0  0  1  0  0  0  0  0999 V2000
    0.3084   -0.0456    0.7086 O   0  0  0  0  0  0  0  0  0  0  0  0
   -0.2170    1.2219    0.3342 C   0  0  2  0  0  0  0  0  0  0  0  0
   -1.2585    1.7481    1.3797 C   0  0  0  0  0  0  0  0  0  0  0  0
   -2.5663    1.4108    0.7302 C   0  0  0  0  0  0  0  0  0  0  0  0
   -2.4299    1.0126   -0.5305 C   0  0  0  0  0  0  0  0  0  0  0  0
   -3.7693    0.7249   -1.1283 C   0  0  0  0  0  0  0  0  0  0  0  0
   -4.6976    0.9988   -0.0698 O   0  0  0  0  0  0  0  0  0  0  0  0
   -4.0116    1.4305    1.1128 C   0  0  0  0  0  0  0  0  0  0  0  0
   -1.0039    0.9949   -0.9902 C   0  0  0  0  0  0  0  0  0  0  0  0
    0.7880    0.0637    1.5359 H   0  0  0  0  0  0  0  0  0  0  0  0
    0.6012    1.9422    0.1958 H   0  0  0  0  0  0  0  0  0  0  0  0
   -1.1042    1.2578    2.3496 H   0  0  0  0  0  0  0  0  0  0  0  0
   -1.1507    2.8280    1.5515 H   0  0  0  0  0  0  0  0  0  0  0  0
   -4.0022    1.3612   -1.9973 H   0  0  0  0  0  0  0  0  0  0  0  0
   -3.8805   -0.3210   -1.4554 H   0  0  0  0  0  0  0  0  0  0  0  0
   -4.3701    2.4314    1.4030 H   0  0  0  0  0  0  0  0  0  0  0  0
   -4.2479    0.7496    1.9461 H   0  0  0  0  0  0  0  0  0  0  0  0
   -0.6863    0.0478   -1.4391 H   0  0  0  0  0  0  0  0  0  0  0  0
   -0.7977    1.7846   -1.7244 H   0  0  0  0  0  0  0  0  0  0  0  0
  1 10  1  0  0  0  0
  2 11  1  6  0  0  0
  2  1  1  0  0  0  0
  2  3  1  0  0  0  0
  3 13  1  0  0  0  0
  3 12  1  0  0  0  0
  4  8  1  0  0  0  0
  4  3  1  0  0  0  0
  5  4  2  0  0  0  0
  6  5  1  0  0  0  0
  6  7  1  0  0  0  0
  7  8  1  0  0  0  0
  8 16  1  0  0  0  0
  8 17  1  0  0  0  0
  9  5  1  0  0  0  0
  9  2  1  0  0  0  0
 14  6  1  0  0  0  0
 15  6  1  0  0  0  0
 18  9  1  0  0  0  0
 19  9  1  0  0  0  0
M TOR 0 0 1 2 3
M TOR 1 0 1 2 11
M TOR 2 0 1 2 12
M TOR 3 0 1 8 4
M TOR 4 0 1 8 17
M TOR 5 0 1 8 18
M TOR 6 1 2 3 4
M TOR 7 1 2 3 7
M TOR 8 1 8 4 3
M TOR 9 1 8 4 5
M TOR 10 2 1 0 9
M TOR 11 2 1 8 4
M TOR 12 2 1 8 17
M TOR 13 2 1 8 18
M TOR 14 2 3 4 5
M TOR 15 2 3 4 8
M TOR 16 2 3 7 6
M TOR 17 2 3 7 15
M TOR 18 2 3 7 16
M TOR 19 3 2 1 8
M TOR 20 3 2 1 10
M TOR 21 3 4 5 6
M TOR 22 3 4 5 13
M TOR 23 3 4 5 14
M TOR 24 3 4 8 17
M TOR 25 3 4 8 18
M TOR 26 3 7 6 5
M TOR 27 4 3 2 11
M TOR 28 4 3 2 12
M TOR 29 4 3 7 6
M TOR 30 4 3 7 15
M TOR 31 4 3 7 16
M TOR 32 4 5 6 7
M TOR 33 4 8 1 10
M TOR 34 5 4 3 7
M TOR 35 5 4 8 17
M TOR 36 5 4 8 18
M TOR 37 5 6 7 15
M TOR 38 5 6 7 16
M TOR 39 6 5 4 8
M TOR 40 7 3 2 11
M TOR 41 7 3 2 12
M TOR 42 7 3 4 8
M TOR 43 7 6 5 13
M TOR 44 7 6 5 14
M TOR 45 8 1 0 9
M TOR 46 8 1 2 11
M TOR 47 8 1 2 12
M TOR 48 8 4 5 13
M TOR 49 8 4 5 14
M  END
$$$$
