
     RDKit          3D

 19 20  0  0  0  0  0  0  0  0999 V2000
   -0.1838    2.5361   -0.3822 C   0  0  0  0  0  0  0  0  0  0  0  0
   -0.9483    1.2718   -0.0495 C   0  0  0  0  0  0  0  0  0  0  0  0
   -1.8108    1.3104    1.2565 C   0  0  0  0  0  0  0  0  0  0  0  0
   -2.6984    0.0340    1.1431 C   0  0  0  0  0  0  0  0  0  0  0  0
   -2.2277   -0.5499   -0.2011 C   0  0  0  0  0  0  0  0  0  0  0  0
   -1.9714    0.6963   -1.0555 C   0  0  0  0  0  0  0  0  0  0  0  0
   -0.8814   -1.0594    0.0127 O   0  0  0  0  0  0  0  0  0  0  0  0
   -0.0643    0.0326    0.1247 C   0  0  0  0  0  0  0  0  0  0  0  0
    1.1090   -0.0462    0.3460 O   0  0  0  0  0  0  0  0  0  0  0  0
    0.5633    2.7439    0.3892 H   0  0  0  0  0  0  0  0  0  0  0  0
    0.3472    2.4383   -1.3338 H   0  0  0  0  0  0  0  0  0  0  0  0
   -0.8587    3.3952   -0.4516 H   0  0  0  0  0  0  0  0  0  0  0  0
   -1.1880    1.3227    2.1542 H   0  0  0  0  0  0  0  0  0  0  0  0
   -2.4135    2.2235    1.2600 H   0  0  0  0  0  0  0  0  0  0  0  0
   -2.5321   -0.6792    1.9528 H   0  0  0  0  0  0  0  0  0  0  0  0
   -3.7650    0.2735    1.1151 H   0  0  0  0  0  0  0  0  0  0  0  0
   -2.8253   -1.3566   -0.6217 H   0  0  0  0  0  0  0  0  0  0  0  0
   -1.5399    0.4617   -2.0322 H   0  0  0  0  0  0  0  0  0  0  0  0
   -2.8574    1.3244   -1.1840 H   0  0  0  0  0  0  0  0  0  0  0  0
  1  2  1  0
  2  3  1  0
  3  4  1  0
  4  5  1  0
  5  6  1  0
  5  7  1  0
  7  8  1  0
  8  9  2  0
  6  2  1  0
  8  2  1  0
  1 10  1  0
  1 11  1  0
  1 12  1  0
  3 13  1  0
  3 14  1  0
  4 15  1  0
  4 16  1  0
  5 17  1  0
  6 18  1  0
  6 19  1  0
M  END
$$$$
