
     RDKit          3D

 19 20  0  0  0  0  0  0  0  0999 V2000
    1.4882    0.0166   -0.1027 C   0  0  0  0  0  0  0  0  0  0  0  0
    0.0915   -0.1326    0.1031 O   0  0  0  0  0  0  0  0  0  0  0  0
   -0.3967    0.6114    1.1703 C   0  0  0  0  0  0  0  0  0  0  0  0
   -1.9007    0.4241    1.4847 C   0  0  0  0  0  0  0  0  0  0  0  0
   -1.6009    0.9968    2.8994 C   0  0  0  0  0  0  0  0  0  0  0  0
   -0.4455   -0.0141    2.6119 C   0  0  0  0  0  0  0  0  0  0  0  0
   -1.5557   -0.9818    2.0634 C   0  0  0  0  0  0  0  0  0  0  0  0
    0.6588   -0.3807    3.5395 C   0  0  0  0  0  0  0  0  0  0  0  0
    1.8345   -0.3670    3.2624 O   0  0  0  0  0  0  0  0  0  0  0  0
    2.0584   -0.2746    0.7871 H   0  0  0  0  0  0  0  0  0  0  0  0
    1.7551   -0.6260   -0.9445 H   0  0  0  0  0  0  0  0  0  0  0  0
    1.7404    1.0574   -0.3572 H   0  0  0  0  0  0  0  0  0  0  0  0
   -0.0356    1.6496    1.1343 H   0  0  0  0  0  0  0  0  0  0  0  0
   -2.7358    0.6827    0.8342 H   0  0  0  0  0  0  0  0  0  0  0  0
   -1.3206    2.0518    2.9659 H   0  0  0  0  0  0  0  0  0  0  0  0
   -2.3013    0.7135    3.6871 H   0  0  0  0  0  0  0  0  0  0  0  0
   -1.2176   -1.7350    1.3537 H   0  0  0  0  0  0  0  0  0  0  0  0
   -2.2495   -1.3852    2.8048 H   0  0  0  0  0  0  0  0  0  0  0  0
    0.3201   -0.6902    4.5556 H   0  0  0  0  0  0  0  0  0  0  0  0
  1  2  1  0
  2  3  1  0
  3  4  1  0
  4  5  1  0
  5  6  1  0
  6  7  1  0
  6  8  1  0
  8  9  2  0
  6  3  1  0
  7  4  1  0
  1 10  1  0
  1 11  1  0
  1 12  1  0
  3 13  1  0
  4 14  1  0
  5 15  1  0
  5 16  1  0
  7 17  1  0
  7 18  1  0
  8 19  1  0
M  END
$$$$
