gdb 1135	3.1493042	1.0997637	0.9831665	3.257	79.31	-0.22072	-0.01583	0.20489	1301.3522	0.154594	-422.579054	-422.56944	-422.568496	-422.614202	33.873
 OpenBabel02181911403D

 19 19  0  0  1  0  0  0  0  0999 V2000
   -1.8880   -2.4663    2.7754 C   0  0  0  0  0  0  0  0  0  0  0  0
   -1.8640   -2.1607    1.2889 C   0  0  0  0  0  0  0  0  0  0  0  0
   -1.7329   -3.0113    0.4452 O   0  0  0  0  0  0  0  0  0  0  0  0
   -2.0384   -0.6719    0.9062 C   0  0  1  0  0  0  0  0  0  0  0  0
   -1.5343   -0.4134   -0.3888 O   0  0  0  0  0  0  0  0  0  0  0  0
   -2.6130   -0.2167   -1.2965 C   0  0  0  0  0  0  0  0  0  0  0  0
   -3.8463   -0.0881   -0.4365 C   0  0  0  0  0  0  0  0  0  0  0  0
   -5.1858    0.2423   -1.0075 C   0  0  0  0  0  0  0  0  0  0  0  0
   -3.5084   -0.3267    0.8289 C   0  0  0  0  0  0  0  0  0  0  0  0
   -1.9492   -3.5435    2.9341 H   0  0  0  0  0  0  0  0  0  0  0  0
   -0.9715   -2.0839    3.2407 H   0  0  0  0  0  0  0  0  0  0  0  0
   -2.7271   -1.9657    3.2710 H   0  0  0  0  0  0  0  0  0  0  0  0
   -1.4922   -0.0540    1.6364 H   0  0  0  0  0  0  0  0  0  0  0  0
   -2.4181    0.6858   -1.8945 H   0  0  0  0  0  0  0  0  0  0  0  0
   -2.6932   -1.0652   -1.9942 H   0  0  0  0  0  0  0  0  0  0  0  0
   -5.9553    0.2835   -0.2329 H   0  0  0  0  0  0  0  0  0  0  0  0
   -5.1683    1.2090   -1.5257 H   0  0  0  0  0  0  0  0  0  0  0  0
   -5.4898   -0.5055   -1.7506 H   0  0  0  0  0  0  0  0  0  0  0  0
   -4.1693   -0.3252    1.6863 H   0  0  0  0  0  0  0  0  0  0  0  0
  1 10  1  0  0  0  0
  1 11  1  0  0  0  0
  1 12  1  0  0  0  0
  2  1  1  0  0  0  0
  3  2  2  0  0  0  0
  4  2  1  0  0  0  0
  4 13  1  1  0  0  0
  5  4  1  0  0  0  0
  6  7  1  0  0  0  0
  6  5  1  0  0  0  0
  7  9  2  0  0  0  0
  8  7  1  0  0  0  0
  8 16  1  0  0  0  0
  9  4  1  0  0  0  0
  9 19  1  0  0  0  0
 14  6  1  0  0  0  0
 15  6  1  0  0  0  0
 17  8  1  0  0  0  0
 18  8  1  0  0  0  0
M TOR 0 0 1 3 4
M TOR 1 0 1 3 8
M TOR 2 0 1 3 12
M TOR 3 1 3 4 5
M TOR 4 1 3 8 6
M TOR 5 1 3 8 18
M TOR 6 2 1 0 9
M TOR 7 2 1 0 10
M TOR 8 2 1 0 11
M TOR 9 2 1 3 4
M TOR 10 2 1 3 8
M TOR 11 2 1 3 12
M TOR 12 3 1 0 9
M TOR 13 3 1 0 10
M TOR 14 3 1 0 11
M TOR 15 3 4 5 6
M TOR 16 3 4 5 13
M TOR 17 3 4 5 14
M TOR 18 3 8 6 5
M TOR 19 3 8 6 7
M TOR 20 4 3 8 6
M TOR 21 4 3 8 18
M TOR 22 4 5 6 7
M TOR 23 4 5 6 8
M TOR 24 5 4 3 8
M TOR 25 5 4 3 12
M TOR 26 5 6 7 15
M TOR 27 5 6 7 16
M TOR 28 5 6 7 17
M TOR 29 5 6 8 18
M TOR 30 6 8 3 12
M TOR 31 7 6 5 13
M TOR 32 7 6 5 14
M TOR 33 7 6 8 18
M TOR 34 8 6 5 13
M TOR 35 8 6 5 14
M TOR 36 8 6 7 15
M TOR 37 8 6 7 16
M TOR 38 8 6 7 17
M  END
$$$$
