
     RDKit          3D

 19 20  0  0  0  0  0  0  0  0999 V2000
    1.4219    0.1281   -0.1229 C   0  0  0  0  0  0  0  0  0  0  0  0
    0.0117    0.0346   -0.0059 O   0  0  0  0  0  0  0  0  0  0  0  0
   -0.5000    0.5374    1.2079 C   0  0  0  0  0  0  0  0  0  0  0  0
   -0.1584   -0.4704    2.2937 C   0  0  0  0  0  0  0  0  0  0  0  0
    0.1837   -0.2247    3.4226 O   0  0  0  0  0  0  0  0  0  0  0  0
   -1.9780    1.0461    1.1020 C   0  0  0  0  0  0  0  0  0  0  0  0
   -1.7080    1.8907    2.3800 C   0  0  0  0  0  0  0  0  0  0  0  0
   -0.4404    2.0750    1.4927 C   0  0  0  0  0  0  0  0  0  0  0  0
   -1.4164    2.2505    0.2863 C   0  0  0  0  0  0  0  0  0  0  0  0
    1.9431   -0.3927    0.6934 H   0  0  0  0  0  0  0  0  0  0  0  0
    1.6931   -0.3441   -1.0696 H   0  0  0  0  0  0  0  0  0  0  0  0
    1.7575    1.1740   -0.1349 H   0  0  0  0  0  0  0  0  0  0  0  0
   -0.2301   -1.5187    1.9228 H   0  0  0  0  0  0  0  0  0  0  0  0
   -2.8486    0.4307    0.8732 H   0  0  0  0  0  0  0  0  0  0  0  0
   -2.3330    2.7802    2.4801 H   0  0  0  0  0  0  0  0  0  0  0  0
   -1.5882    1.3733    3.3293 H   0  0  0  0  0  0  0  0  0  0  0  0
    0.4470    2.6616    1.7296 H   0  0  0  0  0  0  0  0  0  0  0  0
   -2.0289    3.1550    0.3042 H   0  0  0  0  0  0  0  0  0  0  0  0
   -1.0307    2.0343   -0.7080 H   0  0  0  0  0  0  0  0  0  0  0  0
  1  2  1  0
  2  3  1  0
  3  4  1  0
  4  5  2  0
  3  6  1  0
  6  7  1  0
  7  8  1  0
  8  9  1  0
  8  3  1  0
  9  6  1  0
  1 10  1  0
  1 11  1  0
  1 12  1  0
  4 13  1  0
  6 14  1  0
  7 15  1  0
  7 16  1  0
  8 17  1  0
  9 18  1  0
  9 19  1  0
M  END
$$$$
