gdb 748	2.4851752	1.7041762	1.1582351	3.1466	74.76	-0.25856	-0.00688	0.25168	1080.6462	0.158441	-422.576066	-422.568166	-422.567222	-422.608642	30.487
 OpenBabel02181911403D

 19 20  0  0  1  0  0  0  0  0999 V2000
    0.6369    3.5246   -0.1997 O   0  0  0  0  0  0  0  0  0  0  0  0
    0.8923    2.9833    0.8355 C   0  0  0  0  0  0  0  0  0  0  0  0
    1.6381    3.5911    2.0004 C   0  0  0  0  0  0  0  0  0  0  0  0
    3.0253    2.9407    2.2261 C   0  0  0  0  0  0  0  0  0  0  0  0
    2.9917    1.4264    2.5037 C   0  0  0  0  0  0  0  0  0  0  0  0
    2.7257    0.5740    1.2690 C   0  0  1  0  0  0  0  0  0  0  0  0
    1.6600   -0.5074    1.3082 C   0  0  0  0  0  0  0  0  0  0  0  0
    1.4215    0.7473    0.5340 C   0  0  1  0  0  0  0  0  0  0  0  0
    0.5084    1.6705    1.0898 O   0  0  0  0  0  0  0  0  0  0  0  0
    1.7480    4.6625    1.8170 H   0  0  0  0  0  0  0  0  0  0  0  0
    1.0286    3.4503    2.9008 H   0  0  0  0  0  0  0  0  0  0  0  0
    3.6669    3.1452    1.3602 H   0  0  0  0  0  0  0  0  0  0  0  0
    3.4856    3.4519    3.0789 H   0  0  0  0  0  0  0  0  0  0  0  0
    3.9514    1.1223    2.9366 H   0  0  0  0  0  0  0  0  0  0  0  0
    2.2347    1.2220    3.2689 H   0  0  0  0  0  0  0  0  0  0  0  0
    3.5970    0.3806    0.6490 H   0  0  0  0  0  0  0  0  0  0  0  0
    1.8129   -1.4266    0.7539 H   0  0  0  0  0  0  0  0  0  0  0  0
    1.1085   -0.6199    2.2353 H   0  0  0  0  0  0  0  0  0  0  0  0
    1.4027    0.7150   -0.5520 H   0  0  0  0  0  0  0  0  0  0  0  0
  1  2  2  0  0  0  0
  2  9  1  0  0  0  0
  2  3  1  0  0  0  0
  3  4  1  0  0  0  0
  3 11  1  0  0  0  0
  4  5  1  0  0  0  0
  4 13  1  0  0  0  0
  5 14  1  0  0  0  0
  5 15  1  0  0  0  0
  6 16  1  6  0  0  0
  6  7  1  0  0  0  0
  6  5  1  0  0  0  0
  7 18  1  0  0  0  0
  8 19  1  6  0  0  0
  8  9  1  0  0  0  0
  8  6  1  0  0  0  0
  8  7  1  0  0  0  0
 10  3  1  0  0  0  0
 12  4  1  0  0  0  0
 17  7  1  0  0  0  0
M TOR 0 0 1 2 3
M TOR 1 0 1 2 9
M TOR 2 0 1 2 10
M TOR 3 0 1 8 7
M TOR 4 1 2 3 4
M TOR 5 1 2 3 11
M TOR 6 1 2 3 12
M TOR 7 1 8 7 5
M TOR 8 1 8 7 6
M TOR 9 1 8 7 18
M TOR 10 2 1 8 7
M TOR 11 2 3 4 5
M TOR 12 2 3 4 13
M TOR 13 2 3 4 14
M TOR 14 3 2 1 8
M TOR 15 3 4 5 6
M TOR 16 3 4 5 7
M TOR 17 3 4 5 15
M TOR 18 4 3 2 9
M TOR 19 4 3 2 10
M TOR 20 4 5 6 7
M TOR 21 4 5 6 16
M TOR 22 4 5 6 17
M TOR 23 4 5 7 8
M TOR 24 4 5 7 18
M TOR 25 5 4 3 11
M TOR 26 5 4 3 12
M TOR 27 5 6 7 8
M TOR 28 5 6 7 18
M TOR 29 5 7 6 16
M TOR 30 5 7 6 17
M TOR 31 6 5 4 13
M TOR 32 6 5 4 14
M TOR 33 6 7 5 15
M TOR 34 7 5 4 13
M TOR 35 7 5 4 14
M TOR 36 8 1 2 9
M TOR 37 8 1 2 10
M TOR 38 8 7 5 15
M TOR 39 8 7 6 16
M TOR 40 8 7 6 17
M  END
$$$$
