gdb 3758	3.1542965	1.3691976	1.1233244	2.0091	79.14	-0.21701	0.01566	0.23267000000000002	1126.2086	0.157581	-422.543301	-422.535206	-422.534262	-422.575691	31.882
 OpenBabel02181911413D

 19 20  0  0  1  0  0  0  0  0999 V2000
    0.6197    0.4681    0.8854 O   0  0  0  0  0  0  0  0  0  0  0  0
   -0.7683    0.5525    0.8930 C   0  0  2  0  0  0  0  0  0  0  0  0
   -1.5584    0.0770    2.0856 C   0  0  0  0  0  0  0  0  0  0  0  0
   -1.5588   -0.7524    0.8168 C   0  0  2  0  0  0  0  0  0  0  0  0
   -0.7401   -1.8965    0.9073 O   0  0  0  0  0  0  0  0  0  0  0  0
   -0.6072   -2.5740   -0.3470 C   0  0  0  0  0  0  0  0  0  0  0  0
   -1.9616   -3.0866   -0.8370 C   0  0  0  0  0  0  0  0  0  0  0  0
   -2.9777   -1.9771   -0.7713 C   0  0  0  0  0  0  0  0  0  0  0  0
   -2.7640   -0.8967   -0.0195 C   0  0  0  0  0  0  0  0  0  0  0  0
    0.8269   -0.4666    1.0278 H   0  0  0  0  0  0  0  0  0  0  0  0
   -1.1215    1.4157    0.3381 H   0  0  0  0  0  0  0  0  0  0  0  0
   -0.9927   -0.3341    2.9152 H   0  0  0  0  0  0  0  0  0  0  0  0
   -2.4757    0.5880    2.3586 H   0  0  0  0  0  0  0  0  0  0  0  0
   -0.1707   -1.8948   -1.0932 H   0  0  0  0  0  0  0  0  0  0  0  0
    0.0964   -3.3911   -0.1682 H   0  0  0  0  0  0  0  0  0  0  0  0
   -1.8580   -3.4563   -1.8649 H   0  0  0  0  0  0  0  0  0  0  0  0
   -2.2829   -3.9447   -0.2310 H   0  0  0  0  0  0  0  0  0  0  0  0
   -3.8856   -2.0694   -1.3595 H   0  0  0  0  0  0  0  0  0  0  0  0
   -3.4743   -0.0754    0.0079 H   0  0  0  0  0  0  0  0  0  0  0  0
  1  2  1  0  0  0  0
  1 10  1  0  0  0  0
  2 11  1  6  0  0  0
  2  3  1  0  0  0  0
  3 13  1  0  0  0  0
  3 12  1  0  0  0  0
  4  9  1  6  0  0  0
  4  2  1  0  0  0  0
  4  5  1  0  0  0  0
  4  3  1  0  0  0  0
  6 15  1  0  0  0  0
  6  5  1  0  0  0  0
  7  8  1  0  0  0  0
  7  6  1  0  0  0  0
  7 17  1  0  0  0  0
  8  9  2  0  0  0  0
  9 19  1  0  0  0  0
 14  6  1  0  0  0  0
 16  7  1  0  0  0  0
 18  8  1  0  0  0  0
M TOR 0 0 1 2 3
M TOR 1 0 1 2 11
M TOR 2 0 1 2 12
M TOR 3 0 1 3 4
M TOR 4 0 1 3 8
M TOR 5 1 2 3 4
M TOR 6 1 2 3 8
M TOR 7 1 3 2 11
M TOR 8 1 3 2 12
M TOR 9 1 3 4 5
M TOR 10 1 3 8 7
M TOR 11 1 3 8 18
M TOR 12 2 1 0 9
M TOR 13 2 3 1 10
M TOR 14 2 3 4 5
M TOR 15 2 3 8 7
M TOR 16 2 3 8 18
M TOR 17 3 1 0 9
M TOR 18 3 4 5 6
M TOR 19 3 4 5 13
M TOR 20 3 4 5 14
M TOR 21 3 8 7 6
M TOR 22 3 8 7 17
M TOR 23 4 3 1 10
M TOR 24 4 3 2 11
M TOR 25 4 3 2 12
M TOR 26 4 3 8 7
M TOR 27 4 3 8 18
M TOR 28 4 5 6 7
M TOR 29 4 5 6 15
M TOR 30 4 5 6 16
M TOR 31 5 4 3 8
M TOR 32 5 6 7 8
M TOR 33 5 6 7 17
M TOR 34 6 7 8 18
M TOR 35 7 6 5 13
M TOR 36 7 6 5 14
M TOR 37 8 3 1 10
M TOR 38 8 3 2 11
M TOR 39 8 3 2 12
M TOR 40 8 7 6 15
M TOR 41 8 7 6 16
M  END
$$$$
