
     RDKit          3D

 19 20  0  0  0  0  0  0  0  0999 V2000
   -0.9491    2.3038   -1.0677 C   0  0  0  0  0  0  0  0  0  0  0  0
   -0.9893    1.1127   -0.1200 C   0  0  0  0  0  0  0  0  0  0  0  0
   -2.1477    0.0627   -0.2029 C   0  0  0  0  0  0  0  0  0  0  0  0
   -1.1298   -1.1063   -0.1515 C   0  0  0  0  0  0  0  0  0  0  0  0
   -1.1753   -2.4207   -0.9474 C   0  0  0  0  0  0  0  0  0  0  0  0
   -0.9654   -3.0917    0.4234 C   0  0  0  0  0  0  0  0  0  0  0  0
   -1.0443   -1.8154    1.1025 O   0  0  0  0  0  0  0  0  0  0  0  0
   -0.0144   -0.0489   -0.3801 C   0  0  0  0  0  0  0  0  0  0  0  0
    1.1203   -0.1207   -0.7549 O   0  0  0  0  0  0  0  0  0  0  0  0
   -1.0918    1.9848   -2.1056 H   0  0  0  0  0  0  0  0  0  0  0  0
   -1.7323    3.0289   -0.8260 H   0  0  0  0  0  0  0  0  0  0  0  0
    0.0178    2.8117   -1.0051 H   0  0  0  0  0  0  0  0  0  0  0  0
   -0.8619    1.4439    0.9189 H   0  0  0  0  0  0  0  0  0  0  0  0
   -2.8666    0.0650    0.6176 H   0  0  0  0  0  0  0  0  0  0  0  0
   -2.6816    0.1011   -1.1576 H   0  0  0  0  0  0  0  0  0  0  0  0
   -2.1359   -2.6277   -1.4225 H   0  0  0  0  0  0  0  0  0  0  0  0
   -0.3685   -2.5432   -1.6718 H   0  0  0  0  0  0  0  0  0  0  0  0
   -1.7511   -3.7757    0.7620 H   0  0  0  0  0  0  0  0  0  0  0  0
    0.0124   -3.5654    0.5647 H   0  0  0  0  0  0  0  0  0  0  0  0
  1  2  1  0
  2  3  1  0
  3  4  1  0
  4  5  1  0
  5  6  1  0
  6  7  1  0
  4  8  1  0
  8  9  2  0
  8  2  1  0
  7  4  1  0
  1 10  1  0
  1 11  1  0
  1 12  1  0
  2 13  1  0
  3 14  1  0
  3 15  1  0
  5 16  1  0
  5 17  1  0
  6 18  1  0
  6 19  1  0
M  END
$$$$
