
     RDKit          3D

 19 19  0  0  0  0  0  0  0  0999 V2000
    4.9499    2.7199    4.3431 O   0  0  0  0  0  0  0  0  0  0  0  0
    5.1770    1.7085    3.4079 C   0  0  0  0  0  0  0  0  0  0  0  0
    6.3483    1.8087    2.4491 C   0  0  0  0  0  0  0  0  0  0  0  0
    4.9484    2.0583    1.9672 C   0  0  0  0  0  0  0  0  0  0  0  0
    4.4043    1.1111    1.1060 O   0  0  0  0  0  0  0  0  0  0  0  0
    2.9879    1.0794    1.1343 C   0  0  0  0  0  0  0  0  0  0  0  0
    2.5385   -0.0023    0.1467 C   0  0  0  0  0  0  0  0  0  0  0  0
    1.0886   -0.1238    0.0843 C   0  0  0  0  0  0  0  0  0  0  0  0
   -0.1102   -0.2022    0.0525 C   0  0  0  0  0  0  0  0  0  0  0  0
    5.6376    2.6648    5.0151 H   0  0  0  0  0  0  0  0  0  0  0  0
    4.8847    0.7030    3.7111 H   0  0  0  0  0  0  0  0  0  0  0  0
    7.0033    2.6683    2.5371 H   0  0  0  0  0  0  0  0  0  0  0  0
    6.8226    0.8848    2.1377 H   0  0  0  0  0  0  0  0  0  0  0  0
    4.6621    3.0916    1.7669 H   0  0  0  0  0  0  0  0  0  0  0  0
    2.6223    0.8515    2.1455 H   0  0  0  0  0  0  0  0  0  0  0  0
    2.5712    2.0551    0.8428 H   0  0  0  0  0  0  0  0  0  0  0  0
    2.9442    0.2372   -0.8434 H   0  0  0  0  0  0  0  0  0  0  0  0
    2.9884   -0.9570    0.4443 H   0  0  0  0  0  0  0  0  0  0  0  0
   -1.1682   -0.2816    0.0150 H   0  0  0  0  0  0  0  0  0  0  0  0
  1  2  1  0
  2  3  1  0
  3  4  1  0
  4  5  1  0
  5  6  1  0
  6  7  1  0
  7  8  1  0
  8  9  3  0
  4  2  1  0
  1 10  1  0
  2 11  1  0
  3 12  1  0
  3 13  1  0
  4 14  1  0
  6 15  1  0
  6 16  1  0
  7 17  1  0
  7 18  1  0
  9 19  1  0
M  END
$$$$
