gdb 953	3.7768253	1.0298875	0.8732803	2.2021	78.52	-0.25011	0.01107	0.26118	1331.8944	0.158301	-422.602854	-422.594478	-422.593534	-422.636549	30.993
 OpenBabel02181911403D

 19 19  0  0  1  0  0  0  0  0999 V2000
    0.8107    0.4135    0.8257 O   0  0  0  0  0  0  0  0  0  0  0  0
    0.3612   -0.0653   -0.1806 C   0  0  0  0  0  0  0  0  0  0  0  0
   -0.5978    0.4543   -0.9550 O   0  0  0  0  0  0  0  0  0  0  0  0
   -1.1494    1.7409   -0.5413 C   0  0  2  0  0  0  0  0  0  0  0  0
   -2.2785    1.5322    0.4680 C   0  0  0  0  0  0  0  0  0  0  0  0
   -3.0813    2.8294    0.6315 C   0  0  0  0  0  0  0  0  0  0  0  0
   -3.7147    3.2635   -0.6995 C   0  0  0  0  0  0  0  0  0  0  0  0
   -2.7669    3.1033   -1.8593 C   0  0  0  0  0  0  0  0  0  0  0  0
   -1.6224    2.4258   -1.7909 C   0  0  0  0  0  0  0  0  0  0  0  0
    0.6867   -1.0215   -0.6206 H   0  0  0  0  0  0  0  0  0  0  0  0
   -0.3283    2.2965   -0.0742 H   0  0  0  0  0  0  0  0  0  0  0  0
   -2.9295    0.7332    0.0928 H   0  0  0  0  0  0  0  0  0  0  0  0
   -1.8615    1.2012    1.4228 H   0  0  0  0  0  0  0  0  0  0  0  0
   -3.8531    2.7017    1.3971 H   0  0  0  0  0  0  0  0  0  0  0  0
   -2.4138    3.6232    0.9904 H   0  0  0  0  0  0  0  0  0  0  0  0
   -4.6237    2.6758   -0.8980 H   0  0  0  0  0  0  0  0  0  0  0  0
   -4.0519    4.3057   -0.6381 H   0  0  0  0  0  0  0  0  0  0  0  0
   -3.0517    3.5740   -2.7974 H   0  0  0  0  0  0  0  0  0  0  0  0
   -0.9675    2.3452   -2.6539 H   0  0  0  0  0  0  0  0  0  0  0  0
  2  1  2  0  0  0  0
  3  4  1  0  0  0  0
  3  2  1  0  0  0  0
  4 11  1  1  0  0  0
  4  5  1  0  0  0  0
  5  6  1  0  0  0  0
  5 13  1  0  0  0  0
  6 15  1  0  0  0  0
  6 14  1  0  0  0  0
  7 17  1  0  0  0  0
  7  6  1  0  0  0  0
  8  9  2  0  0  0  0
  8  7  1  0  0  0  0
  9  4  1  0  0  0  0
 10  2  1  0  0  0  0
 12  5  1  0  0  0  0
 16  7  1  0  0  0  0
 18  8  1  0  0  0  0
 19  9  1  0  0  0  0
M TOR 0 0 1 2 3
M TOR 1 1 2 3 4
M TOR 2 1 2 3 8
M TOR 3 1 2 3 10
M TOR 4 2 3 4 5
M TOR 5 2 3 4 11
M TOR 6 2 3 4 12
M TOR 7 2 3 8 7
M TOR 8 2 3 8 18
M TOR 9 3 2 1 9
M TOR 10 3 4 5 6
M TOR 11 3 4 5 13
M TOR 12 3 4 5 14
M TOR 13 3 8 7 6
M TOR 14 3 8 7 17
M TOR 15 4 3 8 7
M TOR 16 4 3 8 18
M TOR 17 4 5 6 7
M TOR 18 4 5 6 15
M TOR 19 4 5 6 16
M TOR 20 5 4 3 8
M TOR 21 5 4 3 10
M TOR 22 5 6 7 8
M TOR 23 5 6 7 17
M TOR 24 6 5 4 11
M TOR 25 6 5 4 12
M TOR 26 6 7 8 18
M TOR 27 7 6 5 13
M TOR 28 7 6 5 14
M TOR 29 7 8 3 10
M TOR 30 8 3 4 11
M TOR 31 8 3 4 12
M TOR 32 8 7 6 15
M TOR 33 8 7 6 16
M  END
$$$$
