
     RDKit          3D

 19 21  0  0  0  0  0  0  0  0999 V2000
    0.1973   -0.3798   -0.1573 O   0  0  0  0  0  0  0  0  0  0  0  0
   -0.7228    0.4179    0.5830 C   0  0  0  0  0  0  0  0  0  0  0  0
   -2.0760    0.3738   -0.1796 C   0  0  0  0  0  0  0  0  0  0  0  0
   -2.8980   -0.6365    0.6208 C   0  0  0  0  0  0  0  0  0  0  0  0
   -3.3774   -0.2279    2.0537 C   0  0  0  0  0  0  0  0  0  0  0  0
   -2.2117    0.6251    2.5925 C   0  0  0  0  0  0  0  0  0  0  0  0
   -1.0736   -0.2147    1.9379 C   0  0  0  0  0  0  0  0  0  0  0  0
   -1.9553   -1.4486    1.5389 C   0  0  0  0  0  0  0  0  0  0  0  0
   -2.9978   -1.5503    2.5386 O   0  0  0  0  0  0  0  0  0  0  0  0
    1.0038   -0.4600    0.3628 H   0  0  0  0  0  0  0  0  0  0  0  0
   -0.3387    1.4422    0.6934 H   0  0  0  0  0  0  0  0  0  0  0  0
   -2.5504    1.3585   -0.2317 H   0  0  0  0  0  0  0  0  0  0  0  0
   -1.8944    0.0386   -1.2034 H   0  0  0  0  0  0  0  0  0  0  0  0
   -3.6390   -1.2240    0.0812 H   0  0  0  0  0  0  0  0  0  0  0  0
   -4.4029    0.0569    2.2897 H   0  0  0  0  0  0  0  0  0  0  0  0
   -2.2222    1.6691    2.2651 H   0  0  0  0  0  0  0  0  0  0  0  0
   -2.1943    0.5952    3.6833 H   0  0  0  0  0  0  0  0  0  0  0  0
   -0.2147   -0.4152    2.5811 H   0  0  0  0  0  0  0  0  0  0  0  0
   -1.4769   -2.3899    1.2770 H   0  0  0  0  0  0  0  0  0  0  0  0
  1  2  1  0
  2  3  1  0
  3  4  1  0
  4  5  1  0
  5  6  1  0
  6  7  1  0
  7  8  1  0
  8  9  1  0
  7  2  1  0
  8  4  1  0
  9  5  1  0
  1 10  1  0
  2 11  1  0
  3 12  1  0
  3 13  1  0
  4 14  1  0
  5 15  1  0
  6 16  1  0
  6 17  1  0
  7 18  1  0
  8 19  1  0
M  END
$$$$
