
     RDKit          3D

 19 21  0  0  0  0  0  0  0  0999 V2000
    1.8298   -3.7403   -3.6100 C   0  0  0  0  0  0  0  0  0  0  0  0
    0.9601   -3.0313   -2.6249 C   0  0  0  0  0  0  0  0  0  0  0  0
    0.0745   -1.7822   -2.8551 C   0  0  0  0  0  0  0  0  0  0  0  0
    0.2929   -1.4395   -1.3617 C   0  0  0  0  0  0  0  0  0  0  0  0
   -0.6363   -0.8188   -0.3514 C   0  0  0  0  0  0  0  0  0  0  0  0
    0.6283   -0.1077   -0.7809 C   0  0  0  0  0  0  0  0  0  0  0  0
    1.7279   -0.0705    0.0849 O   0  0  0  0  0  0  0  0  0  0  0  0
    1.1326   -2.6891   -1.1995 C   0  0  0  0  0  0  0  0  0  0  0  0
    0.3126   -3.8028   -1.6020 O   0  0  0  0  0  0  0  0  0  0  0  0
    2.4520   -4.4824   -3.1027 H   0  0  0  0  0  0  0  0  0  0  0  0
    1.2237   -4.2602   -4.3610 H   0  0  0  0  0  0  0  0  0  0  0  0
    2.4808   -3.0335   -4.1345 H   0  0  0  0  0  0  0  0  0  0  0  0
    0.5217   -1.0474   -3.5312 H   0  0  0  0  0  0  0  0  0  0  0  0
   -0.9504   -2.0003   -3.1667 H   0  0  0  0  0  0  0  0  0  0  0  0
   -1.5898   -0.4280   -0.6925 H   0  0  0  0  0  0  0  0  0  0  0  0
   -0.6478   -1.2532    0.6433 H   0  0  0  0  0  0  0  0  0  0  0  0
    0.5227    0.7661   -1.4261 H   0  0  0  0  0  0  0  0  0  0  0  0
    1.5168    0.5301    0.8074 H   0  0  0  0  0  0  0  0  0  0  0  0
    1.9402   -2.8802   -0.5038 H   0  0  0  0  0  0  0  0  0  0  0  0
  1  2  1  0
  2  3  1  0
  3  4  1  0
  4  5  1  0
  5  6  1  0
  6  7  1  0
  4  8  1  0
  8  9  1  0
  8  2  1  0
  9  2  1  0
  6  4  1  0
  1 10  1  0
  1 11  1  0
  1 12  1  0
  3 13  1  0
  3 14  1  0
  5 15  1  0
  5 16  1  0
  6 17  1  0
  7 18  1  0
  8 19  1  0
M  END
$$$$
