gdb 2190	2.7149175	1.9116796	1.4403835	1.3584	73.57	-0.24065	0.06429	0.30494	948.5835	0.158356	-422.537712	-422.530289	-422.529345	-422.569247	29.841
 OpenBabel02181911413D

 19 21  0  0  1  0  0  0  0  0999 V2000
    0.5311   -0.0707    0.5532 O   0  0  0  0  0  0  0  0  0  0  0  0
   -0.7298    0.5127    0.7838 C   0  0  1  0  0  0  0  0  0  0  0  0
   -1.5732   -0.1229    1.9381 C   0  0  0  0  0  0  0  0  0  0  0  0
   -2.7062   -0.4867    0.9374 C   0  0  1  0  0  0  0  0  0  0  0  0
   -3.7393    0.6393    0.6904 C   0  0  0  0  0  0  0  0  0  0  0  0
   -2.7362    1.3421   -0.2683 C   0  0  1  0  0  0  0  0  0  0  0  0
   -2.0464    2.4322    0.3472 O   0  0  0  0  0  0  0  0  0  0  0  0
   -0.7293    2.0433    0.7101 C   0  0  0  0  0  0  0  0  0  0  0  0
   -1.8217    0.0879   -0.2266 C   0  0  1  0  0  0  0  0  0  0  0  0
    1.0883    0.1057    1.3195 H   0  0  0  0  0  0  0  0  0  0  0  0
   -1.0663   -1.0115    2.3227 H   0  0  0  0  0  0  0  0  0  0  0  0
   -1.8442    0.5297    2.7738 H   0  0  0  0  0  0  0  0  0  0  0  0
   -3.0722   -1.5123    0.9700 H   0  0  0  0  0  0  0  0  0  0  0  0
   -4.6150    0.2678    0.1500 H   0  0  0  0  0  0  0  0  0  0  0  0
   -4.0700    1.2324    1.5472 H   0  0  0  0  0  0  0  0  0  0  0  0
   -3.1333    1.6686   -1.2332 H   0  0  0  0  0  0  0  0  0  0  0  0
    0.0046    2.3593   -0.0473 H   0  0  0  0  0  0  0  0  0  0  0  0
   -0.4783    2.5266    1.6627 H   0  0  0  0  0  0  0  0  0  0  0  0
   -1.5326   -0.4311   -1.1379 H   0  0  0  0  0  0  0  0  0  0  0  0
  1 10  1  0  0  0  0
  2  1  1  6  0  0  0
  2  3  1  0  0  0  0
  3 11  1  0  0  0  0
  3 12  1  0  0  0  0
  4 13  1  6  0  0  0
  4  3  1  0  0  0  0
  5  4  1  0  0  0  0
  5 15  1  0  0  0  0
  6 16  1  6  0  0  0
  6  9  1  0  0  0  0
  6  7  1  0  0  0  0
  6  5  1  0  0  0  0
  7  8  1  0  0  0  0
  8  2  1  0  0  0  0
  8 18  1  0  0  0  0
  9 19  1  6  0  0  0
  9  2  1  0  0  0  0
  9  4  1  0  0  0  0
 14  5  1  0  0  0  0
 17  8  1  0  0  0  0
M TOR 0 0 1 2 3
M TOR 1 0 1 2 10
M TOR 2 0 1 2 11
M TOR 3 0 1 7 6
M TOR 4 0 1 7 16
M TOR 5 0 1 7 17
M TOR 6 0 1 8 3
M TOR 7 0 1 8 5
M TOR 8 0 1 8 18
M TOR 9 1 2 3 4
M TOR 10 1 2 3 8
M TOR 11 1 2 3 12
M TOR 12 1 7 6 5
M TOR 13 1 8 3 4
M TOR 14 1 8 3 12
M TOR 15 1 8 5 4
M TOR 16 1 8 5 6
M TOR 17 1 8 5 15
M TOR 18 2 1 0 9
M TOR 19 2 1 7 6
M TOR 20 2 1 7 16
M TOR 21 2 1 7 17
M TOR 22 2 1 8 5
M TOR 23 2 1 8 18
M TOR 24 2 3 4 5
M TOR 25 2 3 4 13
M TOR 26 2 3 4 14
M TOR 27 2 3 8 5
M TOR 28 2 3 8 18
M TOR 29 3 2 1 7
M TOR 30 3 4 5 6
M TOR 31 3 4 5 8
M TOR 32 3 4 5 15
M TOR 33 3 8 1 7
M TOR 34 3 8 5 6
M TOR 35 3 8 5 15
M TOR 36 4 3 2 10
M TOR 37 4 3 2 11
M TOR 38 4 3 8 18
M TOR 39 4 5 6 7
M TOR 40 4 5 8 18
M TOR 41 5 4 3 12
M TOR 42 5 6 7 16
M TOR 43 5 6 7 17
M TOR 44 5 8 1 7
M TOR 45 5 8 3 12
M TOR 46 6 5 4 13
M TOR 47 6 5 4 14
M TOR 48 6 5 8 18
M TOR 49 6 7 1 8
M TOR 50 7 1 0 9
M TOR 51 7 1 2 10
M TOR 52 7 1 2 11
M TOR 53 7 1 8 18
M TOR 54 7 6 5 8
M TOR 55 7 6 5 15
M TOR 56 8 1 0 9
M TOR 57 8 1 2 10
M TOR 58 8 1 2 11
M TOR 59 8 1 7 16
M TOR 60 8 1 7 17
M TOR 61 8 3 2 10
M TOR 62 8 3 2 11
M TOR 63 8 3 4 13
M TOR 64 8 3 4 14
M TOR 65 8 5 4 13
M TOR 66 8 5 4 14
M  END
$$$$
