
     RDKit          3D

 19 19  0  0  0  0  0  0  0  0999 V2000
    0.2514    0.1374   -0.3720 C   0  0  0  0  0  0  0  0  0  0  0  0
    1.0467   -0.5604    0.7120 C   0  0  0  0  0  0  0  0  0  0  0  0
    2.4749   -0.4647    0.5072 O   0  0  0  0  0  0  0  0  0  0  0  0
    2.6074   -1.8840    0.3113 C   0  0  0  0  0  0  0  0  0  0  0  0
    1.1237   -2.1251    0.7019 C   0  0  0  0  0  0  0  0  0  0  0  0
    0.9638   -2.7337    2.1076 C   0  0  0  0  0  0  0  0  0  0  0  0
    1.3592   -4.0866    2.1575 O   0  0  0  0  0  0  0  0  0  0  0  0
    0.3042   -2.8506   -0.2502 C   0  0  0  0  0  0  0  0  0  0  0  0
   -0.3761   -3.4986   -1.0029 C   0  0  0  0  0  0  0  0  0  0  0  0
   -0.8229    0.0194   -0.1963 H   0  0  0  0  0  0  0  0  0  0  0  0
    0.4875    1.2059   -0.3676 H   0  0  0  0  0  0  0  0  0  0  0  0
    0.4862   -0.2673   -1.3599 H   0  0  0  0  0  0  0  0  0  0  0  0
    0.7713   -0.1628    1.6990 H   0  0  0  0  0  0  0  0  0  0  0  0
    2.8562   -2.1369   -0.7254 H   0  0  0  0  0  0  0  0  0  0  0  0
    3.3389   -2.3406    0.9864 H   0  0  0  0  0  0  0  0  0  0  0  0
    1.6162   -2.1944    2.8016 H   0  0  0  0  0  0  0  0  0  0  0  0
   -0.0766   -2.5951    2.4417 H   0  0  0  0  0  0  0  0  0  0  0  0
    0.8162   -4.5660    1.5201 H   0  0  0  0  0  0  0  0  0  0  0  0
   -0.9737   -4.0487   -1.6877 H   0  0  0  0  0  0  0  0  0  0  0  0
  1  2  1  0
  2  3  1  0
  3  4  1  0
  4  5  1  0
  5  6  1  0
  6  7  1  0
  5  8  1  0
  8  9  3  0
  5  2  1  0
  1 10  1  0
  1 11  1  0
  1 12  1  0
  2 13  1  0
  4 14  1  0
  4 15  1  0
  6 16  1  0
  6 17  1  0
  7 18  1  0
  9 19  1  0
M  END
$$$$
