gdb 2838	2.9915384	1.4322734	1.1224557	2.3799	74.69	-0.24214	0.07021	0.31235	1111.6899	0.156217	-422.513376	-422.504886	-422.503942	-422.545768	33.235
 OpenBabel02181911413D

 19 21  0  0  1  0  0  0  0  0999 V2000
   -1.7281   -1.4195   -0.5272 C   0  0  0  0  0  0  0  0  0  0  0  0
   -1.8634   -0.0339    0.0314 C   0  0  2  0  0  0  0  0  0  0  0  0
   -3.2130    0.6500    0.2582 C   0  0  2  0  0  0  0  0  0  0  0  0
   -2.1896    1.2683   -0.6832 C   0  0  1  0  0  0  0  0  0  0  0  0
   -1.6272    1.9883    0.6187 C   0  0  1  0  0  0  0  0  0  0  0  0
   -3.0161    1.7705    1.2805 C   0  0  1  0  0  0  0  0  0  0  0  0
   -3.9247    2.8398    1.1425 O   0  0  0  0  0  0  0  0  0  0  0  0
   -0.8532    0.6828    0.9388 C   0  0  2  0  0  0  0  0  0  0  0  0
    0.4719    0.6285    0.4561 O   0  0  0  0  0  0  0  0  0  0  0  0
   -1.9183   -2.1776    0.2411 H   0  0  0  0  0  0  0  0  0  0  0  0
   -2.4333   -1.5910   -1.3470 H   0  0  0  0  0  0  0  0  0  0  0  0
   -0.7151   -1.5811   -0.9099 H   0  0  0  0  0  0  0  0  0  0  0  0
   -4.1396    0.1498   -0.0005 H   0  0  0  0  0  0  0  0  0  0  0  0
   -2.2421    1.5194   -1.7331 H   0  0  0  0  0  0  0  0  0  0  0  0
   -1.1313    2.9558    0.6761 H   0  0  0  0  0  0  0  0  0  0  0  0
   -3.0217    1.5181    2.3464 H   0  0  0  0  0  0  0  0  0  0  0  0
   -4.0035    3.0316    0.2000 H   0  0  0  0  0  0  0  0  0  0  0  0
   -0.7917    0.3849    1.9918 H   0  0  0  0  0  0  0  0  0  0  0  0
    0.4518    0.8772   -0.4763 H   0  0  0  0  0  0  0  0  0  0  0  0
  1 10  1  0  0  0  0
  2  1  1  6  0  0  0
  2  3  1  0  0  0  0
  2  8  1  0  0  0  0
  3 13  1  6  0  0  0
  3  6  1  0  0  0  0
  4 14  1  6  0  0  0
  4  2  1  0  0  0  0
  4  3  1  0  0  0  0
  4  5  1  0  0  0  0
  5 15  1  6  0  0  0
  5  8  1  0  0  0  0
  5  6  1  0  0  0  0
  6 16  1  1  0  0  0
  7  6  1  0  0  0  0
  8 18  1  1  0  0  0
  9  8  1  0  0  0  0
 11  1  1  0  0  0  0
 12  1  1  0  0  0  0
 17  7  1  0  0  0  0
 19  9  1  0  0  0  0
M TOR 0 0 1 2 3
M TOR 1 0 1 2 5
M TOR 2 0 1 2 12
M TOR 3 0 1 3 4
M TOR 4 0 1 3 13
M TOR 5 0 1 7 4
M TOR 6 0 1 7 8
M TOR 7 0 1 7 17
M TOR 8 1 2 3 4
M TOR 9 1 2 3 13
M TOR 10 1 2 5 4
M TOR 11 1 2 5 6
M TOR 12 1 2 5 15
M TOR 13 1 3 2 5
M TOR 14 1 3 2 12
M TOR 15 1 3 4 5
M TOR 16 1 3 4 7
M TOR 17 1 3 4 14
M TOR 18 1 7 4 5
M TOR 19 1 7 4 14
M TOR 20 1 7 8 18
M TOR 21 2 1 0 9
M TOR 22 2 1 0 10
M TOR 23 2 1 0 11
M TOR 24 2 1 7 4
M TOR 25 2 1 7 8
M TOR 26 2 1 7 17
M TOR 27 2 3 1 7
M TOR 28 2 3 4 5
M TOR 29 2 3 4 7
M TOR 30 2 3 4 14
M TOR 31 2 5 4 7
M TOR 32 2 5 4 14
M TOR 33 2 5 6 16
M TOR 34 3 1 0 9
M TOR 35 3 1 0 10
M TOR 36 3 1 0 11
M TOR 37 3 1 7 8
M TOR 38 3 1 7 17
M TOR 39 3 2 5 6
M TOR 40 3 2 5 15
M TOR 41 3 4 5 6
M TOR 42 3 4 5 15
M TOR 43 3 4 7 8
M TOR 44 3 4 7 17
M TOR 45 4 3 2 12
M TOR 46 4 5 2 12
M TOR 47 4 5 6 16
M TOR 48 4 7 8 18
M TOR 49 5 2 1 7
M TOR 50 5 2 3 13
M TOR 51 5 4 3 13
M TOR 52 5 4 7 8
M TOR 53 5 4 7 17
M TOR 54 6 5 2 12
M TOR 55 6 5 4 7
M TOR 56 6 5 4 14
M TOR 57 7 1 0 9
M TOR 58 7 1 0 10
M TOR 59 7 1 0 11
M TOR 60 7 1 2 12
M TOR 61 7 1 3 13
M TOR 62 7 4 3 13
M TOR 63 7 4 5 15
M TOR 64 8 7 4 14
M  END
$$$$
