gdb 2766	3.1104798	1.3612187	1.0861109	0.8682	76.07	-0.24932	0.06986	0.31918	1143.2738	0.155611	-422.472972	-422.464136	-422.463192	-422.5077	32.92
 OpenBabel02181911413D

 19 21  0  0  1  0  0  0  0  0999 V2000
   -0.1823    0.0406    0.0662 C   0  0  0  0  0  0  0  0  0  0  0  0
    1.3408    0.0337    0.1791 C   0  0  2  0  0  0  0  0  0  0  0  0
    2.1382   -0.2097    1.5237 C   0  0  2  0  0  0  0  0  0  0  0  0
    1.8457    1.2608    1.9490 C   0  0  2  0  0  0  0  0  0  0  0  0
    0.6046    1.6368    2.4861 O   0  0  0  0  0  0  0  0  0  0  0  0
    2.1670    1.3524    0.4086 C   0  0  1  0  0  0  0  0  0  0  0  0
    3.3221    0.4087    0.7642 C   0  0  1  0  0  0  0  0  0  0  0  0
    4.7542    0.5270    0.9818 C   0  0  0  0  0  0  0  0  0  0  0  0
    4.1962   -0.2418   -0.1176 O   0  0  0  0  0  0  0  0  0  0  0  0
   -0.6617    0.8561    0.6090 H   0  0  0  0  0  0  0  0  0  0  0  0
   -0.4661    0.1547   -0.9855 H   0  0  0  0  0  0  0  0  0  0  0  0
   -0.6071   -0.9109    0.4074 H   0  0  0  0  0  0  0  0  0  0  0  0
    1.7491   -0.5772   -0.6313 H   0  0  0  0  0  0  0  0  0  0  0  0
    2.1421   -1.1003    2.1544 H   0  0  0  0  0  0  0  0  0  0  0  0
    2.6110    1.7235    2.5805 H   0  0  0  0  0  0  0  0  0  0  0  0
   -0.0045    0.8979    2.4282 H   0  0  0  0  0  0  0  0  0  0  0  0
    2.1980    2.2427   -0.2191 H   0  0  0  0  0  0  0  0  0  0  0  0
    5.2833    1.4310    0.6845 H   0  0  0  0  0  0  0  0  0  0  0  0
    5.2458   -0.0665    1.7510 H   0  0  0  0  0  0  0  0  0  0  0  0
  1  2  1  0  0  0  0
  1 12  1  0  0  0  0
  1 10  1  0  0  0  0
  2 13  1  6  0  0  0
  2  6  1  0  0  0  0
  2  3  1  0  0  0  0
  3  4  1  0  0  0  0
  3 14  1  1  0  0  0
  4  5  1  0  0  0  0
  4 15  1  1  0  0  0
  6 17  1  6  0  0  0
  6  7  1  0  0  0  0
  6  4  1  0  0  0  0
  7  9  1  6  0  0  0
  7  8  1  0  0  0  0
  7  3  1  0  0  0  0
  8 19  1  0  0  0  0
  9  8  1  0  0  0  0
 11  1  1  0  0  0  0
 16  5  1  0  0  0  0
 18  8  1  0  0  0  0
M TOR 0 0 1 2 3
M TOR 1 0 1 2 6
M TOR 2 0 1 2 13
M TOR 3 0 1 5 3
M TOR 4 0 1 5 6
M TOR 5 0 1 5 16
M TOR 6 1 2 3 4
M TOR 7 1 2 3 5
M TOR 8 1 2 3 14
M TOR 9 1 2 6 5
M TOR 10 1 2 6 7
M TOR 11 1 2 6 8
M TOR 12 1 5 3 4
M TOR 13 1 5 3 14
M TOR 14 1 5 6 7
M TOR 15 1 5 6 8
M TOR 16 2 1 0 9
M TOR 17 2 1 0 10
M TOR 18 2 1 0 11
M TOR 19 2 1 5 16
M TOR 20 2 3 4 15
M TOR 21 2 3 5 6
M TOR 22 2 3 5 16
M TOR 23 2 6 5 16
M TOR 24 2 6 7 8
M TOR 25 2 6 7 17
M TOR 26 2 6 7 18
M TOR 27 3 2 1 12
M TOR 28 3 2 6 7
M TOR 29 3 2 6 8
M TOR 30 3 5 1 12
M TOR 31 3 5 6 7
M TOR 32 3 5 6 8
M TOR 33 4 3 2 6
M TOR 34 4 3 2 13
M TOR 35 4 3 5 6
M TOR 36 4 3 5 16
M TOR 37 5 1 0 9
M TOR 38 5 1 0 10
M TOR 39 5 1 0 11
M TOR 40 5 1 2 13
M TOR 41 5 3 2 13
M TOR 42 5 3 4 15
M TOR 43 5 6 2 13
M TOR 44 5 6 7 8
M TOR 45 5 6 7 17
M TOR 46 5 6 7 18
M TOR 47 6 2 1 12
M TOR 48 6 2 3 14
M TOR 49 6 5 1 12
M TOR 50 6 5 3 14
M TOR 51 6 8 7 17
M TOR 52 6 8 7 18
M TOR 53 7 6 2 13
M TOR 54 7 6 5 16
M TOR 55 8 6 2 13
M TOR 56 8 6 5 16
M  END
$$$$
