gdb 4960	2.5759017	1.6386257	1.2919202	0.9855	74.16	-0.2163	0.08064	0.29694	1052.2535	0.155532	-422.473307	-422.464794	-422.46385	-422.506344	32.034
 OpenBabel02181911413D

 19 21  0  0  1  0  0  0  0  0999 V2000
    1.4867   -0.1993    0.2598 C   0  0  0  0  0  0  0  0  0  0  0  0
    0.1074    0.1020    0.0963 O   0  0  0  0  0  0  0  0  0  0  0  0
   -0.4556    0.7746    1.1501 C   0  0  2  0  0  0  0  0  0  0  0  0
   -0.8311    0.0861    2.4861 C   0  0  1  0  0  0  0  0  0  0  0  0
   -0.9393    1.0961    3.4891 O   0  0  0  0  0  0  0  0  0  0  0  0
   -1.5772    1.9135    2.4604 C   0  0  2  0  0  0  0  0  0  0  0  0
   -1.8988    0.6410    1.5976 C   0  0  1  0  0  0  0  0  0  0  0  0
   -0.4218    2.2784    1.4805 C   0  0  1  0  0  0  0  0  0  0  0  0
    0.8208    2.9561    2.0384 C   0  0  0  0  0  0  0  0  0  0  0  0
    1.6665   -0.7590    1.1871 H   0  0  0  0  0  0  0  0  0  0  0  0
    1.7788   -0.8124   -0.5955 H   0  0  0  0  0  0  0  0  0  0  0  0
    2.1022    0.7092    0.2737 H   0  0  0  0  0  0  0  0  0  0  0  0
   -0.5655   -0.9255    2.7632 H   0  0  0  0  0  0  0  0  0  0  0  0
   -2.2692    2.6533    2.8565 H   0  0  0  0  0  0  0  0  0  0  0  0
   -2.7854    0.2338    1.1333 H   0  0  0  0  0  0  0  0  0  0  0  0
   -0.8427    2.8291    0.6320 H   0  0  0  0  0  0  0  0  0  0  0  0
    1.1922    2.4148    2.9117 H   0  0  0  0  0  0  0  0  0  0  0  0
    1.6184    3.0041    1.2898 H   0  0  0  0  0  0  0  0  0  0  0  0
    0.5987    3.9848    2.3451 H   0  0  0  0  0  0  0  0  0  0  0  0
  1 12  1  0  0  0  0
  1 10  1  0  0  0  0
  2  1  1  0  0  0  0
  3  2  1  6  0  0  0
  3  8  1  0  0  0  0
  3  7  1  0  0  0  0
  3  4  1  0  0  0  0
  4 13  1  1  0  0  0
  4  5  1  0  0  0  0
  6 14  1  1  0  0  0
  6  5  1  0  0  0  0
  7 15  1  6  0  0  0
  7  6  1  0  0  0  0
  7  4  1  0  0  0  0
  8 16  1  6  0  0  0
  8  9  1  0  0  0  0
  8  6  1  0  0  0  0
  9 19  1  0  0  0  0
  9 17  1  0  0  0  0
 11  1  1  0  0  0  0
 18  9  1  0  0  0  0
M TOR 0 0 1 2 3
M TOR 1 0 1 2 6
M TOR 2 0 1 2 7
M TOR 3 1 2 3 4
M TOR 4 1 2 3 6
M TOR 5 1 2 3 12
M TOR 6 1 2 6 5
M TOR 7 1 2 6 14
M TOR 8 1 2 7 5
M TOR 9 1 2 7 8
M TOR 10 1 2 7 15
M TOR 11 2 1 0 9
M TOR 12 2 1 0 10
M TOR 13 2 1 0 11
M TOR 14 2 3 4 5
M TOR 15 2 3 6 5
M TOR 16 2 3 6 14
M TOR 17 2 6 3 4
M TOR 18 2 6 3 12
M TOR 19 2 6 5 4
M TOR 20 2 6 5 7
M TOR 21 2 6 5 13
M TOR 22 2 7 5 4
M TOR 23 2 7 5 13
M TOR 24 2 7 8 16
M TOR 25 2 7 8 17
M TOR 26 2 7 8 18
M TOR 27 3 2 7 5
M TOR 28 3 2 7 8
M TOR 29 3 2 7 15
M TOR 30 3 4 5 6
M TOR 31 3 4 5 7
M TOR 32 3 4 5 13
M TOR 33 3 6 2 7
M TOR 34 3 6 5 7
M TOR 35 3 6 5 13
M TOR 36 4 3 2 7
M TOR 37 4 3 6 14
M TOR 38 4 5 6 14
M TOR 39 4 5 7 8
M TOR 40 4 5 7 15
M TOR 41 5 4 3 12
M TOR 42 5 6 3 12
M TOR 43 5 7 8 16
M TOR 44 5 7 8 17
M TOR 45 5 7 8 18
M TOR 46 6 2 7 8
M TOR 47 6 2 7 15
M TOR 48 6 5 7 8
M TOR 49 6 5 7 15
M TOR 50 7 2 3 12
M TOR 51 7 2 6 14
M TOR 52 7 5 6 14
M TOR 53 8 7 5 13
M  END
$$$$
