gdb 2230	2.3820331	2.2054027	1.6911131	2.5428	73.23	-0.2421	0.09076	0.33286	899.3986	0.159343	-422.556472	-422.549489	-422.548545	-422.587351	28.655
 OpenBabel02181911413D

 19 21  0  0  1  0  0  0  0  0999 V2000
   -0.1542   -0.0066    0.0344 C   0  0  0  0  0  0  0  0  0  0  0  0
    1.3535   -0.0387    0.0928 C   0  0  2  0  0  0  0  0  0  0  0  0
    2.2285   -1.2815   -0.2193 C   0  0  0  0  0  0  0  0  0  0  0  0
    3.3401   -0.2148   -0.2569 C   0  0  2  0  0  0  0  0  0  0  0  0
    3.4084    0.1995    1.1246 O   0  0  0  0  0  0  0  0  0  0  0  0
    2.0489    0.6176    1.3186 C   0  0  1  0  0  0  0  0  0  0  0  0
    1.9566    2.0045    1.1127 O   0  0  0  0  0  0  0  0  0  0  0  0
    2.3609    2.1975   -0.2595 C   0  0  0  0  0  0  0  0  0  0  0  0
    2.2991    0.7901   -0.8517 C   0  0  2  0  0  0  0  0  0  0  0  0
   -0.5906   -0.6907    0.7713 H   0  0  0  0  0  0  0  0  0  0  0  0
   -0.5294    0.9991    0.2485 H   0  0  0  0  0  0  0  0  0  0  0  0
   -0.5207   -0.3050   -0.9532 H   0  0  0  0  0  0  0  0  0  0  0  0
    2.3249   -2.0640    0.5372 H   0  0  0  0  0  0  0  0  0  0  0  0
    1.9948   -1.7097   -1.1977 H   0  0  0  0  0  0  0  0  0  0  0  0
    4.3418   -0.3729   -0.6533 H   0  0  0  0  0  0  0  0  0  0  0  0
    1.7072    0.3870    2.3274 H   0  0  0  0  0  0  0  0  0  0  0  0
    1.6646    2.8951   -0.7368 H   0  0  0  0  0  0  0  0  0  0  0  0
    3.3692    2.6272   -0.2949 H   0  0  0  0  0  0  0  0  0  0  0  0
    2.1151    0.7060   -1.9221 H   0  0  0  0  0  0  0  0  0  0  0  0
  1 11  1  0  0  0  0
  1 10  1  0  0  0  0
  2  1  1  6  0  0  0
  2  6  1  0  0  0  0
  3  2  1  0  0  0  0
  3 13  1  0  0  0  0
  4 15  1  6  0  0  0
  4  3  1  0  0  0  0
  4  5  1  0  0  0  0
  5  6  1  0  0  0  0
  6 16  1  1  0  0  0
  7  6  1  0  0  0  0
  8  7  1  0  0  0  0
  9 19  1  6  0  0  0
  9  8  1  0  0  0  0
  9  4  1  0  0  0  0
  9  2  1  0  0  0  0
 12  1  1  0  0  0  0
 14  3  1  0  0  0  0
 17  8  1  0  0  0  0
 18  8  1  0  0  0  0
M TOR 0 0 1 2 3
M TOR 1 0 1 2 12
M TOR 2 0 1 2 13
M TOR 3 0 1 5 4
M TOR 4 0 1 5 6
M TOR 5 0 1 5 15
M TOR 6 0 1 8 3
M TOR 7 0 1 8 7
M TOR 8 0 1 8 18
M TOR 9 1 2 3 4
M TOR 10 1 2 3 8
M TOR 11 1 2 3 14
M TOR 12 1 5 4 3
M TOR 13 1 5 6 7
M TOR 14 1 8 3 4
M TOR 15 1 8 3 14
M TOR 16 1 8 7 6
M TOR 17 1 8 7 16
M TOR 18 1 8 7 17
M TOR 19 2 1 0 9
M TOR 20 2 1 0 10
M TOR 21 2 1 0 11
M TOR 22 2 1 5 4
M TOR 23 2 1 5 6
M TOR 24 2 1 5 15
M TOR 25 2 1 8 7
M TOR 26 2 1 8 18
M TOR 27 2 3 4 5
M TOR 28 2 3 8 7
M TOR 29 2 3 8 18
M TOR 30 3 2 1 5
M TOR 31 3 4 5 6
M TOR 32 3 4 5 15
M TOR 33 3 8 1 5
M TOR 34 3 8 7 6
M TOR 35 3 8 7 16
M TOR 36 3 8 7 17
M TOR 37 4 3 2 12
M TOR 38 4 3 2 13
M TOR 39 4 3 8 7
M TOR 40 4 3 8 18
M TOR 41 4 5 1 8
M TOR 42 4 5 6 7
M TOR 43 5 1 0 9
M TOR 44 5 1 0 10
M TOR 45 5 1 0 11
M TOR 46 5 1 2 12
M TOR 47 5 1 2 13
M TOR 48 5 1 8 7
M TOR 49 5 1 8 18
M TOR 50 5 4 3 8
M TOR 51 5 4 3 14
M TOR 52 5 6 7 8
M TOR 53 5 6 7 16
M TOR 54 5 6 7 17
M TOR 55 6 5 1 8
M TOR 56 6 7 8 18
M TOR 57 7 6 5 15
M TOR 58 7 8 3 14
M TOR 59 8 1 0 9
M TOR 60 8 1 0 10
M TOR 61 8 1 0 11
M TOR 62 8 1 2 12
M TOR 63 8 1 2 13
M TOR 64 8 1 5 15
M TOR 65 8 3 2 12
M TOR 66 8 3 2 13
M  END
$$$$
