gdb 88	5.3976584	0.7075335	0.6665777	0.9205	77.57	-0.25693	0.05598	0.31291	1662.1708	0.156164	-422.521647	-422.512338	-422.511394	-422.557044	32.958
 OpenBabel02181911403D

 19 19  0  0  1  0  0  0  0  0999 V2000
   -0.0959    0.2138    0.4359 C   0  0  0  0  0  0  0  0  0  0  0  0
    1.0818    0.0869    0.2311 C   0  0  0  0  0  0  0  0  0  0  0  0
    2.5114   -0.0888    0.0102 C   0  0  0  0  0  0  0  0  0  0  0  0
    3.1651   -1.0284    1.0427 C   0  0  0  0  0  0  0  0  0  0  0  0
    4.6605   -1.1994    0.8028 C   0  0  2  0  0  0  0  0  0  0  0  0
    5.3775   -2.0797    1.8474 C   0  0  0  0  0  0  0  0  0  0  0  0
    6.6319   -1.4398    2.0195 O   0  0  0  0  0  0  0  0  0  0  0  0
    6.3442   -0.0722    1.8972 C   0  0  0  0  0  0  0  0  0  0  0  0
    5.3471    0.0564    0.9014 O   0  0  0  0  0  0  0  0  0  0  0  0
   -1.1367    0.3365    0.6052 H   0  0  0  0  0  0  0  0  0  0  0  0
    2.6805   -0.4825   -1.0010 H   0  0  0  0  0  0  0  0  0  0  0  0
    3.0195    0.8812    0.0497 H   0  0  0  0  0  0  0  0  0  0  0  0
    3.0022   -0.6303    2.0503 H   0  0  0  0  0  0  0  0  0  0  0  0
    2.6806   -2.0117    1.0025 H   0  0  0  0  0  0  0  0  0  0  0  0
    4.8316   -1.5913   -0.2100 H   0  0  0  0  0  0  0  0  0  0  0  0
    4.8129   -2.1014    2.7933 H   0  0  0  0  0  0  0  0  0  0  0  0
    5.5532   -3.1038    1.5131 H   0  0  0  0  0  0  0  0  0  0  0  0
    5.9773    0.3403    2.8549 H   0  0  0  0  0  0  0  0  0  0  0  0
    7.2503    0.4554    1.5841 H   0  0  0  0  0  0  0  0  0  0  0  0
  1 10  1  0  0  0  0
  2  1  3  0  0  0  0
  3 12  1  0  0  0  0
  3  2  1  0  0  0  0
  3  4  1  0  0  0  0
  4 13  1  0  0  0  0
  5 15  1  6  0  0  0
  5  9  1  0  0  0  0
  5  4  1  0  0  0  0
  5  6  1  0  0  0  0
  6  7  1  0  0  0  0
  6 16  1  0  0  0  0
  8  7  1  0  0  0  0
  8 18  1  0  0  0  0
  9  8  1  0  0  0  0
 11  3  1  0  0  0  0
 14  4  1  0  0  0  0
 17  6  1  0  0  0  0
 19  8  1  0  0  0  0
M TOR 0 0 1 2 3
M TOR 1 0 1 2 10
M TOR 2 0 1 2 11
M TOR 3 1 2 3 4
M TOR 4 1 2 3 12
M TOR 5 1 2 3 13
M TOR 6 2 1 0 9
M TOR 7 2 3 4 5
M TOR 8 2 3 4 8
M TOR 9 2 3 4 14
M TOR 10 3 4 5 6
M TOR 11 3 4 5 15
M TOR 12 3 4 5 16
M TOR 13 3 4 8 7
M TOR 14 4 3 2 10
M TOR 15 4 3 2 11
M TOR 16 4 5 6 7
M TOR 17 4 8 7 6
M TOR 18 4 8 7 17
M TOR 19 4 8 7 18
M TOR 20 5 4 3 12
M TOR 21 5 4 3 13
M TOR 22 5 4 8 7
M TOR 23 5 6 7 8
M TOR 24 5 6 7 17
M TOR 25 5 6 7 18
M TOR 26 6 5 4 8
M TOR 27 6 5 4 14
M TOR 28 7 6 5 15
M TOR 29 7 6 5 16
M TOR 30 7 8 4 14
M TOR 31 8 4 3 12
M TOR 32 8 4 3 13
M TOR 33 8 4 5 15
M TOR 34 8 4 5 16
M  END
$$$$
