gdb 209	2.3509632	2.3119795	1.8171711	0.5085	72.24	-0.24583	0.08112	0.32694999999999996	866.066	0.161414	-422.57016	-422.563786	-422.562841	-422.600574	26.771
 OpenBabel02181911403D

 19 21  0  0  1  0  0  0  0  0999 V2000
    1.3614    0.1610    1.3025 C   0  0  0  0  0  0  0  0  0  0  0  0
    1.9967    1.4248    0.7247 C   0  0  1  0  0  0  0  0  0  0  0  0
    2.4788    1.2369   -0.6255 O   0  0  0  0  0  0  0  0  0  0  0  0
    1.2717    1.8128   -1.1912 C   0  0  1  0  0  0  0  0  0  0  0  0
    0.3636    0.7727   -1.8326 C   0  0  0  0  0  0  0  0  0  0  0  0
    0.0059   -0.3620   -0.8417 C   0  0  0  0  0  0  0  0  0  0  0  0
   -0.0257    0.1514    0.6183 C   0  0  2  0  0  0  0  0  0  0  0  0
   -0.4022    1.5412    0.6288 O   0  0  0  0  0  0  0  0  0  0  0  0
    0.7643    2.2204    0.2196 C   0  0  1  0  0  0  0  0  0  0  0  0
    1.9594   -0.7299    1.0977 H   0  0  0  0  0  0  0  0  0  0  0  0
    1.2385    0.2659    2.3855 H   0  0  0  0  0  0  0  0  0  0  0  0
    2.7457    1.8988    1.3636 H   0  0  0  0  0  0  0  0  0  0  0  0
    1.5148    2.6289   -1.8805 H   0  0  0  0  0  0  0  0  0  0  0  0
   -0.5491    1.2899   -2.1498 H   0  0  0  0  0  0  0  0  0  0  0  0
    0.8323    0.3667   -2.7344 H   0  0  0  0  0  0  0  0  0  0  0  0
   -0.9710   -0.7758   -1.1086 H   0  0  0  0  0  0  0  0  0  0  0  0
    0.7279   -1.1805   -0.9207 H   0  0  0  0  0  0  0  0  0  0  0  0
   -0.7736   -0.3851    1.2058 H   0  0  0  0  0  0  0  0  0  0  0  0
    0.6600    3.2819    0.4388 H   0  0  0  0  0  0  0  0  0  0  0  0
  1 11  1  0  0  0  0
  2  1  1  0  0  0  0
  2 12  1  1  0  0  0
  3  2  1  0  0  0  0
  4 13  1  6  0  0  0
  4  3  1  0  0  0  0
  4  9  1  0  0  0  0
  5  4  1  0  0  0  0
  5  6  1  0  0  0  0
  6  7  1  0  0  0  0
  7  8  1  0  0  0  0
  7 18  1  1  0  0  0
  7  1  1  0  0  0  0
  9 19  1  1  0  0  0
  9  8  1  0  0  0  0
  9  2  1  0  0  0  0
 10  1  1  0  0  0  0
 14  5  1  0  0  0  0
 15  5  1  0  0  0  0
 16  6  1  0  0  0  0
 17  6  1  0  0  0  0
M TOR 0 0 1 2 3
M TOR 1 0 1 8 3
M TOR 2 0 1 8 7
M TOR 3 0 1 8 18
M TOR 4 0 6 5 4
M TOR 5 0 6 5 15
M TOR 6 0 6 5 16
M TOR 7 0 6 7 8
M TOR 8 1 0 6 5
M TOR 9 1 0 6 7
M TOR 10 1 0 6 17
M TOR 11 1 2 3 4
M TOR 12 1 2 3 8
M TOR 13 1 2 3 12
M TOR 14 1 8 3 4
M TOR 15 1 8 3 12
M TOR 16 1 8 7 6
M TOR 17 2 1 0 6
M TOR 18 2 1 0 9
M TOR 19 2 1 0 10
M TOR 20 2 1 8 7
M TOR 21 2 1 8 18
M TOR 22 2 3 4 5
M TOR 23 2 3 4 13
M TOR 24 2 3 4 14
M TOR 25 2 3 8 7
M TOR 26 2 3 8 18
M TOR 27 3 2 1 11
M TOR 28 3 4 5 6
M TOR 29 3 4 5 15
M TOR 30 3 4 5 16
M TOR 31 3 8 1 11
M TOR 32 3 8 7 6
M TOR 33 4 3 8 7
M TOR 34 4 3 8 18
M TOR 35 4 5 6 7
M TOR 36 4 5 6 17
M TOR 37 5 4 3 8
M TOR 38 5 4 3 12
M TOR 39 5 6 0 9
M TOR 40 5 6 0 10
M TOR 41 5 6 7 8
M TOR 42 6 0 1 8
M TOR 43 6 0 1 11
M TOR 44 6 5 4 13
M TOR 45 6 5 4 14
M TOR 46 6 7 8 18
M TOR 47 7 6 0 9
M TOR 48 7 6 0 10
M TOR 49 7 6 5 15
M TOR 50 7 6 5 16
M TOR 51 7 8 1 11
M TOR 52 7 8 3 12
M TOR 53 8 1 0 9
M TOR 54 8 1 0 10
M TOR 55 8 3 4 13
M TOR 56 8 3 4 14
M TOR 57 8 7 6 17
M  END
$$$$
