
     RDKit          3D

 19 19  0  0  0  0  0  0  0  0999 V2000
   -1.3545    5.1475   -2.7350 C   0  0  0  0  0  0  0  0  0  0  0  0
   -1.0935    3.9992   -1.8160 C   0  0  0  0  0  0  0  0  0  0  0  0
   -1.6230    2.7786   -1.8214 C   0  0  0  0  0  0  0  0  0  0  0  0
   -1.0565    1.9506   -0.7017 C   0  0  0  0  0  0  0  0  0  0  0  0
   -0.3304    0.6721   -1.1716 C   0  0  0  0  0  0  0  0  0  0  0  0
    0.3036   -0.0801   -0.0208 C   0  0  0  0  0  0  0  0  0  0  0  0
    0.0974   -1.2413    0.2281 O   0  0  0  0  0  0  0  0  0  0  0  0
   -0.1294    2.8193   -0.0418 O   0  0  0  0  0  0  0  0  0  0  0  0
   -0.1228    4.0988   -0.6663 C   0  0  0  0  0  0  0  0  0  0  0  0
   -1.7318    6.0175   -2.1833 H   0  0  0  0  0  0  0  0  0  0  0  0
   -0.4331    5.4708   -3.2354 H   0  0  0  0  0  0  0  0  0  0  0  0
   -2.0865    4.8886   -3.5037 H   0  0  0  0  0  0  0  0  0  0  0  0
   -2.3596    2.3973   -2.5178 H   0  0  0  0  0  0  0  0  0  0  0  0
   -1.8398    1.6579    0.0173 H   0  0  0  0  0  0  0  0  0  0  0  0
   -1.0221    0.0014   -1.6902 H   0  0  0  0  0  0  0  0  0  0  0  0
    0.4634    0.9730   -1.8680 H   0  0  0  0  0  0  0  0  0  0  0  0
    0.9914    0.5312    0.6011 H   0  0  0  0  0  0  0  0  0  0  0  0
   -0.4214    4.8733    0.0589 H   0  0  0  0  0  0  0  0  0  0  0  0
    0.8969    4.3486   -1.0002 H   0  0  0  0  0  0  0  0  0  0  0  0
  1  2  1  0
  2  3  2  0
  3  4  1  0
  4  5  1  0
  5  6  1  0
  6  7  2  0
  4  8  1  0
  8  9  1  0
  9  2  1  0
  1 10  1  0
  1 11  1  0
  1 12  1  0
  3 13  1  0
  4 14  1  0
  5 15  1  0
  5 16  1  0
  6 17  1  0
  9 18  1  0
  9 19  1  0
M  END
$$$$
