
     RDKit          3D

 19 21  0  0  0  0  0  0  0  0999 V2000
    2.9423    2.3228    4.8450 C   0  0  0  0  0  0  0  0  0  0  0  0
    1.5944    2.3009    5.5720 C   0  0  0  0  0  0  0  0  0  0  0  0
    1.7704    2.1794    6.9845 O   0  0  0  0  0  0  0  0  0  0  0  0
    0.6750    1.2437    5.0274 C   0  0  0  0  0  0  0  0  0  0  0  0
    0.8464   -0.2814    5.0460 C   0  0  0  0  0  0  0  0  0  0  0  0
   -0.6337   -0.3194    4.5880 C   0  0  0  0  0  0  0  0  0  0  0  0
   -0.5887    0.2338    3.2409 O   0  0  0  0  0  0  0  0  0  0  0  0
   -0.3107    1.4862    3.8621 C   0  0  0  0  0  0  0  0  0  0  0  0
   -0.8389    1.1150    5.2038 C   0  0  0  0  0  0  0  0  0  0  0  0
    3.5870    3.0952    5.2724 H   0  0  0  0  0  0  0  0  0  0  0  0
    3.4520    1.3568    4.9435 H   0  0  0  0  0  0  0  0  0  0  0  0
    2.8116    2.5214    3.7768 H   0  0  0  0  0  0  0  0  0  0  0  0
    1.1080    3.2773    5.4484 H   0  0  0  0  0  0  0  0  0  0  0  0
    2.2423    1.3553    7.1473 H   0  0  0  0  0  0  0  0  0  0  0  0
    1.5730   -0.7556    4.3780 H   0  0  0  0  0  0  0  0  0  0  0  0
    0.9561   -0.6560    6.0680 H   0  0  0  0  0  0  0  0  0  0  0  0
   -1.2673   -1.1987    4.6782 H   0  0  0  0  0  0  0  0  0  0  0  0
   -0.3636    2.3933    3.2738 H   0  0  0  0  0  0  0  0  0  0  0  0
   -1.5389    1.5623    5.8953 H   0  0  0  0  0  0  0  0  0  0  0  0
  1  2  1  0
  2  3  1  0
  2  4  1  0
  4  5  1  0
  5  6  1  0
  6  7  1  0
  7  8  1  0
  8  9  1  0
  8  4  1  0
  9  4  1  0
  9  6  1  0
  1 10  1  0
  1 11  1  0
  1 12  1  0
  2 13  1  0
  3 14  1  0
  5 15  1  0
  5 16  1  0
  6 17  1  0
  8 18  1  0
  9 19  1  0
M  END
$$$$
