gdb 2535	5.1785629	0.7880025	0.7188123	4.2914	80.13	-0.23449	-0.01672	0.21777000000000002	1568.8732	0.154852	-422.572493	-422.562958	-422.562013	-422.608125	33.153
 OpenBabel02181911413D

 19 19  0  0  1  0  0  0  0  0999 V2000
   -1.3545    5.1475   -2.7350 C   0  0  0  0  0  0  0  0  0  0  0  0
   -1.0935    3.9992   -1.8160 C   0  0  0  0  0  0  0  0  0  0  0  0
   -1.6230    2.7786   -1.8214 C   0  0  0  0  0  0  0  0  0  0  0  0
   -1.0565    1.9506   -0.7017 C   0  0  1  0  0  0  0  0  0  0  0  0
   -0.3304    0.6721   -1.1716 C   0  0  0  0  0  0  0  0  0  0  0  0
    0.3036   -0.0801   -0.0208 C   0  0  0  0  0  0  0  0  0  0  0  0
    0.0974   -1.2413    0.2281 O   0  0  0  0  0  0  0  0  0  0  0  0
   -0.1294    2.8193   -0.0418 O   0  0  0  0  0  0  0  0  0  0  0  0
   -0.1228    4.0988   -0.6663 C   0  0  0  0  0  0  0  0  0  0  0  0
   -1.7318    6.0175   -2.1833 H   0  0  0  0  0  0  0  0  0  0  0  0
   -0.4331    5.4708   -3.2354 H   0  0  0  0  0  0  0  0  0  0  0  0
   -2.0865    4.8886   -3.5037 H   0  0  0  0  0  0  0  0  0  0  0  0
   -2.3596    2.3973   -2.5178 H   0  0  0  0  0  0  0  0  0  0  0  0
   -1.8398    1.6579    0.0173 H   0  0  0  0  0  0  0  0  0  0  0  0
   -1.0221    0.0014   -1.6902 H   0  0  0  0  0  0  0  0  0  0  0  0
    0.4634    0.9730   -1.8680 H   0  0  0  0  0  0  0  0  0  0  0  0
    0.9914    0.5312    0.6011 H   0  0  0  0  0  0  0  0  0  0  0  0
   -0.4214    4.8733    0.0589 H   0  0  0  0  0  0  0  0  0  0  0  0
    0.8969    4.3486   -1.0002 H   0  0  0  0  0  0  0  0  0  0  0  0
  1 10  1  0  0  0  0
  1  2  1  0  0  0  0
  2  9  1  0  0  0  0
  3  2  2  0  0  0  0
  3  4  1  0  0  0  0
  4  8  1  0  0  0  0
  4 14  1  1  0  0  0
  5  4  1  0  0  0  0
  5  6  1  0  0  0  0
  6  7  2  0  0  0  0
  6 17  1  0  0  0  0
  9  8  1  0  0  0  0
  9 18  1  0  0  0  0
 11  1  1  0  0  0  0
 12  1  1  0  0  0  0
 13  3  1  0  0  0  0
 15  5  1  0  0  0  0
 16  5  1  0  0  0  0
 19  9  1  0  0  0  0
M TOR 0 0 1 2 3
M TOR 1 0 1 2 12
M TOR 2 0 1 8 7
M TOR 3 0 1 8 17
M TOR 4 0 1 8 18
M TOR 5 1 2 3 4
M TOR 6 1 2 3 7
M TOR 7 1 2 3 13
M TOR 8 1 8 7 3
M TOR 9 2 1 0 9
M TOR 10 2 1 0 10
M TOR 11 2 1 0 11
M TOR 12 2 1 8 7
M TOR 13 2 1 8 17
M TOR 14 2 1 8 18
M TOR 15 2 3 4 5
M TOR 16 2 3 4 14
M TOR 17 2 3 4 15
M TOR 18 2 3 7 8
M TOR 19 3 2 1 8
M TOR 20 3 4 5 6
M TOR 21 3 4 5 16
M TOR 22 3 7 8 17
M TOR 23 3 7 8 18
M TOR 24 4 3 2 12
M TOR 25 4 3 7 8
M TOR 26 5 4 3 7
M TOR 27 5 4 3 13
M TOR 28 6 5 4 14
M TOR 29 6 5 4 15
M TOR 30 7 3 2 12
M TOR 31 7 3 4 14
M TOR 32 7 3 4 15
M TOR 33 8 1 0 9
M TOR 34 8 1 0 10
M TOR 35 8 1 0 11
M TOR 36 8 1 2 12
M TOR 37 8 7 3 13
M  END
$$$$
