
     RDKit          3D

 19 21  0  0  0  0  0  0  0  0999 V2000
    0.3260   -0.4716   -0.1322 C   0  0  0  0  0  0  0  0  0  0  0  0
    1.0018    0.8678    0.0880 C   0  0  0  0  0  0  0  0  0  0  0  0
    2.4484    0.7297    0.1753 O   0  0  0  0  0  0  0  0  0  0  0  0
    2.4665    1.1920    1.5352 C   0  0  0  0  0  0  0  0  0  0  0  0
    2.7241    2.7062    1.6237 C   0  0  0  0  0  0  0  0  0  0  0  0
    2.7905    3.1496    2.9915 O   0  0  0  0  0  0  0  0  0  0  0  0
    1.3910    3.5163    2.9943 C   0  0  0  0  0  0  0  0  0  0  0  0
    1.1825    2.9767    1.5699 C   0  0  0  0  0  0  0  0  0  0  0  0
    0.9242    1.4558    1.5129 C   0  0  0  0  0  0  0  0  0  0  0  0
    0.5607   -1.1657    0.6808 H   0  0  0  0  0  0  0  0  0  0  0  0
   -0.7616   -0.3482   -0.1834 H   0  0  0  0  0  0  0  0  0  0  0  0
    0.6672   -0.9165   -1.0720 H   0  0  0  0  0  0  0  0  0  0  0  0
    0.7275    1.5695   -0.7120 H   0  0  0  0  0  0  0  0  0  0  0  0
    3.0138    0.5381    2.2186 H   0  0  0  0  0  0  0  0  0  0  0  0
    3.4914    3.1429    0.9797 H   0  0  0  0  0  0  0  0  0  0  0  0
    0.8305    3.0215    3.7976 H   0  0  0  0  0  0  0  0  0  0  0  0
    1.2674    4.6027    3.0893 H   0  0  0  0  0  0  0  0  0  0  0  0
    0.6726    3.6150    0.8481 H   0  0  0  0  0  0  0  0  0  0  0  0
    0.1920    1.0237    2.1964 H   0  0  0  0  0  0  0  0  0  0  0  0
  1  2  1  0
  2  3  1  0
  3  4  1  0
  4  5  1  0
  5  6  1  0
  6  7  1  0
  7  8  1  0
  8  9  1  0
  9  2  1  0
  9  4  1  0
  8  5  1  0
  1 10  1  0
  1 11  1  0
  1 12  1  0
  2 13  1  0
  4 14  1  0
  5 15  1  0
  7 16  1  0
  7 17  1  0
  8 18  1  0
  9 19  1  0
M  END
$$$$
