gdb 1886	2.7005662	1.4714444	1.1034652	3.4021	75.3	-0.243	-0.0167	0.2263	1139.8262	0.154604	-422.590426	-422.581411	-422.580467	-422.623868	33.891
 OpenBabel02181911403D

 19 20  0  0  1  0  0  0  0  0999 V2000
   -3.2116   -1.6476    0.8880 C   0  0  0  0  0  0  0  0  0  0  0  0
   -2.1707   -0.7587    0.2636 C   0  0  2  0  0  0  0  0  0  0  0  0
   -0.7494   -1.2648    0.1101 C   0  0  0  0  0  0  0  0  0  0  0  0
    0.0938   -0.0107   -0.1599 C   0  0  0  0  0  0  0  0  0  0  0  0
    1.2373   -0.0060   -0.5299 O   0  0  0  0  0  0  0  0  0  0  0  0
   -0.7491    1.2361    0.1428 C   0  0  0  0  0  0  0  0  0  0  0  0
   -2.1705    0.7264    0.2830 C   0  0  2  0  0  0  0  0  0  0  0  0
   -3.2113    1.5989    0.9304 C   0  0  0  0  0  0  0  0  0  0  0  0
   -2.5742   -0.0008   -0.8948 O   0  0  0  0  0  0  0  0  0  0  0  0
   -2.9087   -1.9505    1.8959 H   0  0  0  0  0  0  0  0  0  0  0  0
   -4.1804   -1.1482    0.9487 H   0  0  0  0  0  0  0  0  0  0  0  0
   -3.3403   -2.5571    0.2912 H   0  0  0  0  0  0  0  0  0  0  0  0
   -0.3866   -1.7499    1.0256 H   0  0  0  0  0  0  0  0  0  0  0  0
   -0.6370   -1.9830   -0.7076 H   0  0  0  0  0  0  0  0  0  0  0  0
   -0.3862    1.6970    1.0706 H   0  0  0  0  0  0  0  0  0  0  0  0
   -0.6365    1.9753   -0.6559 H   0  0  0  0  0  0  0  0  0  0  0  0
   -2.9082    1.8754    1.9459 H   0  0  0  0  0  0  0  0  0  0  0  0
   -3.3398    2.5238    0.3576 H   0  0  0  0  0  0  0  0  0  0  0  0
   -4.1801    1.0984    0.9781 H   0  0  0  0  0  0  0  0  0  0  0  0
  1 11  1  0  0  0  0
  1 10  1  0  0  0  0
  2  7  1  0  0  0  0
  2  1  1  1  0  0  0
  3  2  1  0  0  0  0
  3 13  1  0  0  0  0
  4  3  1  0  0  0  0
  4  6  1  0  0  0  0
  5  4  2  0  0  0  0
  6  7  1  0  0  0  0
  6 15  1  0  0  0  0
  7  8  1  1  0  0  0
  8 19  1  0  0  0  0
  8 17  1  0  0  0  0
  9  2  1  0  0  0  0
  9  7  1  0  0  0  0
 12  1  1  0  0  0  0
 14  3  1  0  0  0  0
 16  6  1  0  0  0  0
 18  8  1  0  0  0  0
M TOR 0 0 1 2 3
M TOR 1 0 1 2 12
M TOR 2 0 1 2 13
M TOR 3 0 1 6 5
M TOR 4 0 1 6 7
M TOR 5 0 1 6 8
M TOR 6 1 2 3 4
M TOR 7 1 2 3 5
M TOR 8 1 6 5 3
M TOR 9 1 6 5 14
M TOR 10 1 6 5 15
M TOR 11 1 6 7 16
M TOR 12 1 6 7 17
M TOR 13 1 6 7 18
M TOR 14 1 8 6 5
M TOR 15 1 8 6 7
M TOR 16 2 1 0 9
M TOR 17 2 1 0 10
M TOR 18 2 1 0 11
M TOR 19 2 1 6 5
M TOR 20 2 1 6 7
M TOR 21 2 1 6 8
M TOR 22 2 3 5 6
M TOR 23 2 3 5 14
M TOR 24 2 3 5 15
M TOR 25 3 2 1 6
M TOR 26 3 2 1 8
M TOR 27 3 5 6 7
M TOR 28 3 5 6 8
M TOR 29 4 3 2 12
M TOR 30 4 3 2 13
M TOR 31 4 3 5 6
M TOR 32 4 3 5 14
M TOR 33 4 3 5 15
M TOR 34 5 3 2 12
M TOR 35 5 3 2 13
M TOR 36 5 6 7 16
M TOR 37 5 6 7 17
M TOR 38 5 6 7 18
M TOR 39 6 1 0 9
M TOR 40 6 1 0 10
M TOR 41 6 1 0 11
M TOR 42 6 1 2 12
M TOR 43 6 1 2 13
M TOR 44 7 6 5 14
M TOR 45 7 6 5 15
M TOR 46 8 1 0 9
M TOR 47 8 1 0 10
M TOR 48 8 1 0 11
M TOR 49 8 1 2 12
M TOR 50 8 1 2 13
M TOR 51 8 6 5 14
M TOR 52 8 6 5 15
M TOR 53 8 6 7 16
M TOR 54 8 6 7 17
M TOR 55 8 6 7 18
M  END
$$$$
