gdb 2204	2.3367717	2.0693997	1.547257	1.7484	73.73	-0.23049	0.08914	0.31962999999999997	956.3405	0.157546	-422.566617	-422.55885	-422.557906	-422.598298	30.801
 OpenBabel02181911413D

 19 21  0  0  1  0  0  0  0  0999 V2000
   -0.1634    0.0159    0.0569 C   0  0  0  0  0  0  0  0  0  0  0  0
    1.1589    0.4107    0.6277 C   0  0  2  0  0  0  0  0  0  0  0  0
    1.1592    0.7168    2.0177 O   0  0  0  0  0  0  0  0  0  0  0  0
    2.5481    0.9741    2.1724 C   0  0  2  0  0  0  0  0  0  0  0  0
    2.8234    2.0813    1.1317 C   0  0  0  0  0  0  0  0  0  0  0  0
    2.2452    1.2756   -0.0202 C   0  0  1  0  0  0  0  0  0  0  0  0
    2.5257   -0.1828    0.3573 C   0  0  2  0  0  0  0  0  0  0  0  0
    2.8945   -1.3116   -0.5481 C   0  0  0  0  0  0  0  0  0  0  0  0
    3.1896   -0.1653    1.6161 O   0  0  0  0  0  0  0  0  0  0  0  0
   -0.5757   -0.8442    0.5940 H   0  0  0  0  0  0  0  0  0  0  0  0
   -0.8819    0.8392    0.1261 H   0  0  0  0  0  0  0  0  0  0  0  0
   -0.0606   -0.2548   -0.9976 H   0  0  0  0  0  0  0  0  0  0  0  0
    2.8143    1.1112    3.2169 H   0  0  0  0  0  0  0  0  0  0  0  0
    2.2709    2.9976    1.3511 H   0  0  0  0  0  0  0  0  0  0  0  0
    3.8899    2.2941    1.0307 H   0  0  0  0  0  0  0  0  0  0  0  0
    2.1927    1.6210   -1.0436 H   0  0  0  0  0  0  0  0  0  0  0  0
    2.7186   -2.2744   -0.0579 H   0  0  0  0  0  0  0  0  0  0  0  0
    2.2985   -1.2789   -1.4644 H   0  0  0  0  0  0  0  0  0  0  0  0
    3.9511   -1.2590   -0.8301 H   0  0  0  0  0  0  0  0  0  0  0  0
  1 11  1  0  0  0  0
  1 10  1  0  0  0  0
  2  1  1  6  0  0  0
  2  3  1  0  0  0  0
  3  4  1  0  0  0  0
  4 13  1  1  0  0  0
  5 14  1  0  0  0  0
  5  4  1  0  0  0  0
  6 16  1  6  0  0  0
  6  7  1  0  0  0  0
  6  2  1  0  0  0  0
  6  5  1  0  0  0  0
  7  8  1  6  0  0  0
  7  2  1  0  0  0  0
  7  9  1  0  0  0  0
  8 17  1  0  0  0  0
  9  4  1  0  0  0  0
 12  1  1  0  0  0  0
 15  5  1  0  0  0  0
 18  8  1  0  0  0  0
 19  8  1  0  0  0  0
M TOR 0 0 1 2 3
M TOR 1 0 1 5 4
M TOR 2 0 1 5 6
M TOR 3 0 1 5 15
M TOR 4 0 1 6 7
M TOR 5 0 1 6 8
M TOR 6 1 2 3 4
M TOR 7 1 2 3 8
M TOR 8 1 2 3 12
M TOR 9 1 5 4 3
M TOR 10 1 5 4 13
M TOR 11 1 5 4 14
M TOR 12 1 5 6 7
M TOR 13 1 5 6 8
M TOR 14 1 6 5 4
M TOR 15 1 6 5 15
M TOR 16 1 6 7 16
M TOR 17 1 6 7 17
M TOR 18 1 6 7 18
M TOR 19 1 6 8 3
M TOR 20 2 1 0 9
M TOR 21 2 1 0 10
M TOR 22 2 1 0 11
M TOR 23 2 1 5 4
M TOR 24 2 1 5 6
M TOR 25 2 1 5 15
M TOR 26 2 1 6 7
M TOR 27 2 1 6 8
M TOR 28 2 3 4 5
M TOR 29 2 3 4 13
M TOR 30 2 3 4 14
M TOR 31 2 3 8 6
M TOR 32 3 2 1 5
M TOR 33 3 2 1 6
M TOR 34 3 4 5 6
M TOR 35 3 4 5 15
M TOR 36 3 8 6 5
M TOR 37 3 8 6 7
M TOR 38 4 3 8 6
M TOR 39 4 5 6 7
M TOR 40 4 5 6 8
M TOR 41 5 1 0 9
M TOR 42 5 1 0 10
M TOR 43 5 1 0 11
M TOR 44 5 4 3 8
M TOR 45 5 4 3 12
M TOR 46 5 6 7 16
M TOR 47 5 6 7 17
M TOR 48 5 6 7 18
M TOR 49 6 1 0 9
M TOR 50 6 1 0 10
M TOR 51 6 1 0 11
M TOR 52 6 5 4 13
M TOR 53 6 5 4 14
M TOR 54 6 8 3 12
M TOR 55 7 6 5 15
M TOR 56 8 3 4 13
M TOR 57 8 3 4 14
M TOR 58 8 6 5 15
M TOR 59 8 6 7 16
M TOR 60 8 6 7 17
M TOR 61 8 6 7 18
M  END
$$$$
