
     RDKit          3D

 19 19  0  0  0  0  0  0  0  0999 V2000
   -1.0075   -1.4360    2.3996 O   0  0  0  0  0  0  0  0  0  0  0  0
   -1.8104   -1.5898    1.2276 C   0  0  0  0  0  0  0  0  0  0  0  0
   -0.9563   -1.3657   -0.0464 C   0  0  0  0  0  0  0  0  0  0  0  0
   -0.0675   -0.1335    0.0898 C   0  0  0  0  0  0  0  0  0  0  0  0
    1.1314   -0.2557    0.2096 O   0  0  0  0  0  0  0  0  0  0  0  0
   -0.7286    1.2359    0.1059 C   0  0  0  0  0  0  0  0  0  0  0  0
   -1.6016    1.4820    1.3653 C   0  0  0  0  0  0  0  0  0  0  0  0
   -2.8848    0.6877    1.3968 C   0  0  0  0  0  0  0  0  0  0  0  0
   -2.9819   -0.6397    1.3284 C   0  0  0  0  0  0  0  0  0  0  0  0
   -0.1728   -1.8963    2.2538 H   0  0  0  0  0  0  0  0  0  0  0  0
   -2.2042   -2.6154    1.1786 H   0  0  0  0  0  0  0  0  0  0  0  0
   -0.2917   -2.2219   -0.2006 H   0  0  0  0  0  0  0  0  0  0  0  0
   -1.6195   -1.2795   -0.9137 H   0  0  0  0  0  0  0  0  0  0  0  0
    0.0750    1.9757    0.0663 H   0  0  0  0  0  0  0  0  0  0  0  0
   -1.3535    1.3494   -0.7886 H   0  0  0  0  0  0  0  0  0  0  0  0
   -1.0026    1.2555    2.2539 H   0  0  0  0  0  0  0  0  0  0  0  0
   -1.8362    2.5496    1.4015 H   0  0  0  0  0  0  0  0  0  0  0  0
   -3.8045    1.2626    1.4779 H   0  0  0  0  0  0  0  0  0  0  0  0
   -3.9663   -1.0985    1.3466 H   0  0  0  0  0  0  0  0  0  0  0  0
  1  2  1  0
  2  3  1  0
  3  4  1  0
  4  5  2  0
  4  6  1  0
  6  7  1  0
  7  8  1  0
  8  9  2  0
  9  2  1  0
  1 10  1  0
  2 11  1  0
  3 12  1  0
  3 13  1  0
  6 14  1  0
  6 15  1  0
  7 16  1  0
  7 17  1  0
  8 18  1  0
  9 19  1  0
M  END
$$$$
