
     RDKit          3D

 19 21  0  0  0  0  0  0  0  0999 V2000
    0.6394    1.4583    0.4469 C   0  0  0  0  0  0  0  0  0  0  0  0
    0.2396    0.0757    0.4097 O   0  0  0  0  0  0  0  0  0  0  0  0
    0.5459   -0.3690   -0.9144 C   0  0  0  0  0  0  0  0  0  0  0  0
   -0.3616    0.4151   -1.9002 C   0  0  0  0  0  0  0  0  0  0  0  0
    0.5143    1.6784   -2.1164 C   0  0  0  0  0  0  0  0  0  0  0  0
    1.4318    1.3980   -3.1767 O   0  0  0  0  0  0  0  0  0  0  0  0
    2.2834    0.3517   -2.6739 C   0  0  0  0  0  0  0  0  0  0  0  0
    1.9393    0.2523   -1.1853 C   0  0  0  0  0  0  0  0  0  0  0  0
    1.4150    1.6736   -0.8555 C   0  0  0  0  0  0  0  0  0  0  0  0
   -0.2431    2.1078    0.5295 H   0  0  0  0  0  0  0  0  0  0  0  0
    1.2642    1.6221    1.3322 H   0  0  0  0  0  0  0  0  0  0  0  0
    0.4619   -1.4558   -0.9387 H   0  0  0  0  0  0  0  0  0  0  0  0
   -0.5272   -0.0907   -2.8545 H   0  0  0  0  0  0  0  0  0  0  0  0
   -1.3296    0.6162   -1.4350 H   0  0  0  0  0  0  0  0  0  0  0  0
   -0.0160    2.6001   -2.3571 H   0  0  0  0  0  0  0  0  0  0  0  0
    2.0974   -0.5850   -3.2175 H   0  0  0  0  0  0  0  0  0  0  0  0
    3.3287    0.6367   -2.8385 H   0  0  0  0  0  0  0  0  0  0  0  0
    2.7281   -0.1465   -0.5471 H   0  0  0  0  0  0  0  0  0  0  0  0
    2.1472    2.4811   -0.8373 H   0  0  0  0  0  0  0  0  0  0  0  0
  1  2  1  0
  2  3  1  0
  3  4  1  0
  4  5  1  0
  5  6  1  0
  6  7  1  0
  7  8  1  0
  8  9  1  0
  9  1  1  0
  8  3  1  0
  9  5  1  0
  1 10  1  0
  1 11  1  0
  3 12  1  0
  4 13  1  0
  4 14  1  0
  5 15  1  0
  7 16  1  0
  7 17  1  0
  8 18  1  0
  9 19  1  0
M  END
$$$$
