gdb 3633	3.566734	1.0881908	0.9701955	2.972	77.87	-0.22646	-0.01918	0.20728	1278.6799	0.154705	-422.583155	-422.573759	-422.572815	-422.618174	33.725
 OpenBabel02181911413D

 19 19  0  0  1  0  0  0  0  0999 V2000
   -3.0750   -2.7661    2.3274 C   0  0  0  0  0  0  0  0  0  0  0  0
   -2.1919   -2.6247    1.0878 C   0  0  1  0  0  0  0  0  0  0  0  0
   -1.7146   -1.2722    0.9728 O   0  0  0  0  0  0  0  0  0  0  0  0
   -0.2942   -1.2329    0.9461 C   0  0  1  0  0  0  0  0  0  0  0  0
    0.1364   -2.6746    1.0565 C   0  0  0  0  0  0  0  0  0  0  0  0
   -0.9358   -3.4550    1.1143 C   0  0  0  0  0  0  0  0  0  0  0  0
    0.2638   -0.5956   -0.3434 C   0  0  0  0  0  0  0  0  0  0  0  0
   -0.6771   -0.4873   -1.5211 C   0  0  0  0  0  0  0  0  0  0  0  0
    1.4172   -0.2367   -0.3714 O   0  0  0  0  0  0  0  0  0  0  0  0
   -3.4906   -3.7774    2.3896 H   0  0  0  0  0  0  0  0  0  0  0  0
   -2.4976   -2.5683    3.2351 H   0  0  0  0  0  0  0  0  0  0  0  0
   -3.9053   -2.0561    2.2792 H   0  0  0  0  0  0  0  0  0  0  0  0
   -2.7988   -2.8526    0.1962 H   0  0  0  0  0  0  0  0  0  0  0  0
    0.0880   -0.6250    1.7797 H   0  0  0  0  0  0  0  0  0  0  0  0
    1.1776   -2.9669    1.0653 H   0  0  0  0  0  0  0  0  0  0  0  0
   -0.9487   -4.5350    1.1900 H   0  0  0  0  0  0  0  0  0  0  0  0
   -1.0753   -1.4756   -1.7756 H   0  0  0  0  0  0  0  0  0  0  0  0
   -1.5381    0.1330   -1.2548 H   0  0  0  0  0  0  0  0  0  0  0  0
   -0.1483   -0.0641   -2.3757 H   0  0  0  0  0  0  0  0  0  0  0  0
  1 10  1  0  0  0  0
  1 11  1  0  0  0  0
  2 13  1  6  0  0  0
  2  6  1  0  0  0  0
  2  1  1  0  0  0  0
  3  2  1  0  0  0  0
  4  3  1  0  0  0  0
  4  5  1  0  0  0  0
  4 14  1  1  0  0  0
  5 15  1  0  0  0  0
  5  6  2  0  0  0  0
  6 16  1  0  0  0  0
  7  4  1  0  0  0  0
  8 18  1  0  0  0  0
  8  7  1  0  0  0  0
  9  7  2  0  0  0  0
 12  1  1  0  0  0  0
 17  8  1  0  0  0  0
 19  8  1  0  0  0  0
M TOR 0 0 1 2 3
M TOR 1 0 1 5 4
M TOR 2 0 1 5 15
M TOR 3 1 2 3 4
M TOR 4 1 2 3 6
M TOR 5 1 2 3 13
M TOR 6 1 5 4 3
M TOR 7 1 5 4 14
M TOR 8 2 1 0 9
M TOR 9 2 1 0 10
M TOR 10 2 1 0 11
M TOR 11 2 1 5 4
M TOR 12 2 1 5 15
M TOR 13 2 3 4 5
M TOR 14 2 3 4 14
M TOR 15 2 3 6 7
M TOR 16 2 3 6 8
M TOR 17 3 2 1 5
M TOR 18 3 2 1 12
M TOR 19 3 4 5 15
M TOR 20 3 6 7 16
M TOR 21 3 6 7 17
M TOR 22 3 6 7 18
M TOR 23 4 3 6 7
M TOR 24 4 3 6 8
M TOR 25 4 5 1 12
M TOR 26 5 1 0 9
M TOR 27 5 1 0 10
M TOR 28 5 1 0 11
M TOR 29 5 4 3 6
M TOR 30 5 4 3 13
M TOR 31 6 3 4 14
M TOR 32 7 6 3 13
M TOR 33 8 6 3 13
M TOR 34 8 6 7 16
M TOR 35 8 6 7 17
M TOR 36 8 6 7 18
M  END
$$$$
