gdb 5577	3.9685324	1.2815144	1.2413439	1.9449	74.22	-0.23616	0.0816	0.31776000000000004	1078.5525	0.158493	-422.505382	-422.498005	-422.497061	-422.537382	28.868
 OpenBabel02181911423D

 19 21  0  0  1  0  0  0  0  0999 V2000
    1.5662   -0.3819    0.2270 C   0  0  0  0  0  0  0  0  0  0  0  0
    0.1563   -0.3545    0.2255 O   0  0  0  0  0  0  0  0  0  0  0  0
   -0.3806    0.6776    1.0047 C   0  0  2  0  0  0  0  0  0  0  0  0
   -1.9167    0.8245    0.9749 C   0  0  2  0  0  0  0  0  0  0  0  0
   -2.1905    1.0009   -0.5333 C   0  0  0  0  0  0  0  0  0  0  0  0
   -1.4308    2.3392   -0.6089 C   0  0  1  0  0  0  0  0  0  0  0  0
   -2.2477    3.1747    0.2711 O   0  0  0  0  0  0  0  0  0  0  0  0
   -1.6824    2.3776    1.3134 C   0  0  2  0  0  0  0  0  0  0  0  0
   -0.3613    2.1476    0.5403 C   0  0  1  0  0  0  0  0  0  0  0  0
    1.9686   -0.5179    1.2431 H   0  0  0  0  0  0  0  0  0  0  0  0
    1.8762   -1.2280   -0.3906 H   0  0  0  0  0  0  0  0  0  0  0  0
    1.9963    0.5399   -0.1923 H   0  0  0  0  0  0  0  0  0  0  0  0
    0.0015    0.6207    2.0369 H   0  0  0  0  0  0  0  0  0  0  0  0
   -2.5621    0.1759    1.5628 H   0  0  0  0  0  0  0  0  0  0  0  0
   -1.7618    0.1958   -1.1299 H   0  0  0  0  0  0  0  0  0  0  0  0
   -3.2435    1.1471   -0.7800 H   0  0  0  0  0  0  0  0  0  0  0  0
   -1.2080    2.8002   -1.5694 H   0  0  0  0  0  0  0  0  0  0  0  0
   -1.8027    2.7576    2.3257 H   0  0  0  0  0  0  0  0  0  0  0  0
    0.4919    2.8212    0.5824 H   0  0  0  0  0  0  0  0  0  0  0  0
  1 10  1  0  0  0  0
  2  1  1  0  0  0  0
  2  3  1  0  0  0  0
  3 13  1  1  0  0  0
  4  3  1  0  0  0  0
  4  8  1  0  0  0  0
  4 14  1  1  0  0  0
  5  4  1  0  0  0  0
  6 17  1  6  0  0  0
  6  5  1  0  0  0  0
  6  7  1  0  0  0  0
  6  9  1  0  0  0  0
  7  8  1  0  0  0  0
  8 18  1  1  0  0  0
  9 19  1  1  0  0  0
  9  3  1  0  0  0  0
  9  8  1  0  0  0  0
 11  1  1  0  0  0  0
 12  1  1  0  0  0  0
 15  5  1  0  0  0  0
 16  5  1  0  0  0  0
M TOR 0 0 1 2 3
M TOR 1 0 1 2 8
M TOR 2 0 1 2 12
M TOR 3 1 2 3 4
M TOR 4 1 2 3 7
M TOR 5 1 2 3 13
M TOR 6 1 2 8 5
M TOR 7 1 2 8 7
M TOR 8 1 2 8 18
M TOR 9 2 1 0 9
M TOR 10 2 1 0 10
M TOR 11 2 1 0 11
M TOR 12 2 3 4 5
M TOR 13 2 3 4 14
M TOR 14 2 3 4 15
M TOR 15 2 3 7 6
M TOR 16 2 3 7 8
M TOR 17 2 3 7 17
M TOR 18 2 8 5 4
M TOR 19 2 8 5 6
M TOR 20 2 8 5 16
M TOR 21 2 8 7 6
M TOR 22 2 8 7 17
M TOR 23 3 2 8 5
M TOR 24 3 2 8 18
M TOR 25 3 4 5 6
M TOR 26 3 4 5 8
M TOR 27 3 4 5 16
M TOR 28 3 7 6 5
M TOR 29 3 7 8 5
M TOR 30 3 7 8 18
M TOR 31 4 3 2 8
M TOR 32 4 3 2 12
M TOR 33 4 3 7 6
M TOR 34 4 3 7 8
M TOR 35 4 3 7 17
M TOR 36 4 5 6 7
M TOR 37 4 5 8 7
M TOR 38 4 5 8 18
M TOR 39 5 4 3 7
M TOR 40 5 4 3 13
M TOR 41 5 6 7 8
M TOR 42 5 6 7 17
M TOR 43 5 8 2 12
M TOR 44 5 8 7 17
M TOR 45 6 5 4 14
M TOR 46 6 5 4 15
M TOR 47 6 5 8 18
M TOR 48 6 7 3 13
M TOR 49 6 7 8 18
M TOR 50 7 3 2 12
M TOR 51 7 3 4 14
M TOR 52 7 3 4 15
M TOR 53 7 6 5 16
M TOR 54 7 8 2 12
M TOR 55 7 8 5 16
M TOR 56 8 2 3 13
M TOR 57 8 5 4 14
M TOR 58 8 5 4 15
M TOR 59 8 7 3 13
M  END
$$$$
