gdb 1696	2.0665727	1.8477702	1.3072271	1.7775	76.72	-0.25	0.01214	0.26214	1055.4697	0.156339	-422.602138	-422.593425	-422.59248	-422.63524	32.697
 OpenBabel02181911403D

 19 19  0  0  1  0  0  0  0  0999 V2000
   -2.5151    1.7739   -0.6595 C   0  0  0  0  0  0  0  0  0  0  0  0
   -1.2162    1.8802    0.1357 C   0  0  2  0  0  0  0  0  0  0  0  0
   -1.4004    2.5204    1.5396 C   0  0  0  0  0  0  0  0  0  0  0  0
   -0.2636    3.5577    1.7061 C   0  0  0  0  0  0  0  0  0  0  0  0
    0.3137    3.6685    0.3202 C   0  0  0  0  0  0  0  0  0  0  0  0
   -0.1778    2.7589   -0.5172 C   0  0  0  0  0  0  0  0  0  0  0  0
   -0.7620    0.4713    0.1770 O   0  0  0  0  0  0  0  0  0  0  0  0
    0.2910    0.0980    0.9054 C   0  0  0  0  0  0  0  0  0  0  0  0
    0.9629    0.7715    1.6397 O   0  0  0  0  0  0  0  0  0  0  0  0
   -3.2442    1.1573   -0.1251 H   0  0  0  0  0  0  0  0  0  0  0  0
   -2.9400    2.7698   -0.8100 H   0  0  0  0  0  0  0  0  0  0  0  0
   -2.3335    1.3198   -1.6377 H   0  0  0  0  0  0  0  0  0  0  0  0
   -2.3738    3.0194    1.5628 H   0  0  0  0  0  0  0  0  0  0  0  0
   -1.4050    1.7663    2.3270 H   0  0  0  0  0  0  0  0  0  0  0  0
   -0.6340    4.5189    2.0803 H   0  0  0  0  0  0  0  0  0  0  0  0
    0.5040    3.2102    2.4057 H   0  0  0  0  0  0  0  0  0  0  0  0
    1.0720    4.4006    0.0631 H   0  0  0  0  0  0  0  0  0  0  0  0
    0.1048    2.6207   -1.5549 H   0  0  0  0  0  0  0  0  0  0  0  0
    0.4576   -0.9790    0.7322 H   0  0  0  0  0  0  0  0  0  0  0  0
  1 10  1  0  0  0  0
  1  2  1  0  0  0  0
  2  7  1  1  0  0  0
  2  3  1  0  0  0  0
  3 13  1  0  0  0  0
  3  4  1  0  0  0  0
  3 14  1  0  0  0  0
  4 15  1  0  0  0  0
  4 16  1  0  0  0  0
  5  4  1  0  0  0  0
  6  2  1  0  0  0  0
  6  5  2  0  0  0  0
  7  8  1  0  0  0  0
  8  9  2  0  0  0  0
 11  1  1  0  0  0  0
 12  1  1  0  0  0  0
 17  5  1  0  0  0  0
 18  6  1  0  0  0  0
 19  8  1  0  0  0  0
M TOR 0 0 1 2 3
M TOR 1 0 1 2 12
M TOR 2 0 1 2 13
M TOR 3 0 1 5 4
M TOR 4 0 1 5 17
M TOR 5 0 1 6 7
M TOR 6 1 2 3 4
M TOR 7 1 2 3 14
M TOR 8 1 2 3 15
M TOR 9 1 5 4 3
M TOR 10 1 5 4 16
M TOR 11 1 6 7 8
M TOR 12 1 6 7 18
M TOR 13 2 1 0 9
M TOR 14 2 1 0 10
M TOR 15 2 1 0 11
M TOR 16 2 1 5 4
M TOR 17 2 1 5 17
M TOR 18 2 1 6 7
M TOR 19 2 3 4 5
M TOR 20 2 3 4 16
M TOR 21 3 2 1 5
M TOR 22 3 2 1 6
M TOR 23 3 4 5 17
M TOR 24 4 3 2 12
M TOR 25 4 3 2 13
M TOR 26 4 5 1 6
M TOR 27 5 1 0 9
M TOR 28 5 1 0 10
M TOR 29 5 1 0 11
M TOR 30 5 1 2 12
M TOR 31 5 1 2 13
M TOR 32 5 1 6 7
M TOR 33 5 4 3 14
M TOR 34 5 4 3 15
M TOR 35 6 1 0 9
M TOR 36 6 1 0 10
M TOR 37 6 1 0 11
M TOR 38 6 1 2 12
M TOR 39 6 1 2 13
M TOR 40 6 1 5 17
M  END
$$$$
