gdb 5354	2.8367924	1.3594399	1.0828087	1.8234	76.48	-0.24412	-0.00985	0.23427	1153.1478	0.156852	-422.545382	-422.536701	-422.535757	-422.57874	32.616
 OpenBabel02181911423D

 19 20  0  0  1  0  0  0  0  0999 V2000
    2.8473    0.3313   -0.4297 C   0  0  0  0  0  0  0  0  0  0  0  0
    2.3194   -0.6285    0.6491 C   0  0  1  0  0  0  0  0  0  0  0  0
    3.2282   -0.6948    1.8782 C   0  0  1  0  0  0  0  0  0  0  0  0
    3.3684    0.5505    2.5670 O   0  0  0  0  0  0  0  0  0  0  0  0
    2.4180   -0.4199    3.0747 C   0  0  1  0  0  0  0  0  0  0  0  0
    1.0270   -0.1799    2.5944 C   0  0  0  0  0  0  0  0  0  0  0  0
    0.9660   -0.2558    1.2581 C   0  0  0  0  0  0  0  0  0  0  0  0
   -0.2593    0.0044    0.4316 C   0  0  0  0  0  0  0  0  0  0  0  0
   -0.1715    1.2021   -0.3396 O   0  0  0  0  0  0  0  0  0  0  0  0
    3.7862   -0.0454   -0.8483 H   0  0  0  0  0  0  0  0  0  0  0  0
    2.1268    0.4561   -1.2394 H   0  0  0  0  0  0  0  0  0  0  0  0
    3.0399    1.3132    0.0112 H   0  0  0  0  0  0  0  0  0  0  0  0
    2.2406   -1.6356    0.2125 H   0  0  0  0  0  0  0  0  0  0  0  0
    4.1110   -1.3294    1.8806 H   0  0  0  0  0  0  0  0  0  0  0  0
    2.6385   -0.8039    4.0657 H   0  0  0  0  0  0  0  0  0  0  0  0
    0.1930    0.0426    3.2504 H   0  0  0  0  0  0  0  0  0  0  0  0
   -0.4062   -0.7960   -0.3034 H   0  0  0  0  0  0  0  0  0  0  0  0
   -1.1452    0.0181    1.0845 H   0  0  0  0  0  0  0  0  0  0  0  0
    0.0509    1.9153    0.2686 H   0  0  0  0  0  0  0  0  0  0  0  0
  1 12  1  0  0  0  0
  1  2  1  0  0  0  0
  2 13  1  6  0  0  0
  2  7  1  0  0  0  0
  2  3  1  0  0  0  0
  3 14  1  1  0  0  0
  3  4  1  0  0  0  0
  3  5  1  0  0  0  0
  4  5  1  0  0  0  0
  5 15  1  1  0  0  0
  6  5  1  0  0  0  0
  6 16  1  0  0  0  0
  7  6  2  0  0  0  0
  8 18  1  0  0  0  0
  8  7  1  0  0  0  0
  9 19  1  0  0  0  0
  9  8  1  0  0  0  0
 10  1  1  0  0  0  0
 11  1  1  0  0  0  0
 17  8  1  0  0  0  0
M TOR 0 0 1 2 3
M TOR 1 0 1 2 4
M TOR 2 0 1 2 13
M TOR 3 0 1 6 5
M TOR 4 0 1 6 7
M TOR 5 1 2 3 4
M TOR 6 1 2 4 5
M TOR 7 1 2 4 14
M TOR 8 1 6 5 4
M TOR 9 1 6 5 15
M TOR 10 1 6 7 8
M TOR 11 1 6 7 16
M TOR 12 1 6 7 17
M TOR 13 2 1 0 9
M TOR 14 2 1 0 10
M TOR 15 2 1 0 11
M TOR 16 2 1 6 5
M TOR 17 2 1 6 7
M TOR 18 2 3 4 5
M TOR 19 2 3 4 14
M TOR 20 2 4 5 6
M TOR 21 2 4 5 15
M TOR 22 3 2 1 6
M TOR 23 3 2 1 12
M TOR 24 3 4 2 13
M TOR 25 3 4 5 6
M TOR 26 3 4 5 15
M TOR 27 4 2 1 6
M TOR 28 4 2 1 12
M TOR 29 4 5 6 7
M TOR 30 5 4 2 13
M TOR 31 5 6 1 12
M TOR 32 5 6 7 8
M TOR 33 5 6 7 16
M TOR 34 5 6 7 17
M TOR 35 6 1 0 9
M TOR 36 6 1 0 10
M TOR 37 6 1 0 11
M TOR 38 6 1 2 13
M TOR 39 6 5 4 14
M TOR 40 6 7 8 18
M TOR 41 7 6 1 12
M TOR 42 7 6 5 15
M  END
$$$$
