
     RDKit          3D

 19 20  0  0  0  0  0  0  0  0999 V2000
   -2.1814    2.8564    1.6302 C   0  0  0  0  0  0  0  0  0  0  0  0
   -1.7156    1.4608    1.2823 C   0  0  0  0  0  0  0  0  0  0  0  0
   -2.3877    0.6917    0.1890 C   0  0  0  0  0  0  0  0  0  0  0  0
   -0.9976    1.2389   -0.0429 C   0  0  0  0  0  0  0  0  0  0  0  0
   -0.0852    0.0572   -0.0676 C   0  0  0  0  0  0  0  0  0  0  0  0
    1.0872    0.0160   -0.3063 O   0  0  0  0  0  0  0  0  0  0  0  0
   -0.8039   -1.0652    0.2505 O   0  0  0  0  0  0  0  0  0  0  0  0
   -2.2298   -0.8240    0.2273 C   0  0  0  0  0  0  0  0  0  0  0  0
   -2.8415   -1.5300   -0.9749 C   0  0  0  0  0  0  0  0  0  0  0  0
   -3.0012    2.8243    2.3556 H   0  0  0  0  0  0  0  0  0  0  0  0
   -1.3691    3.4465    2.0663 H   0  0  0  0  0  0  0  0  0  0  0  0
   -2.5412    3.3869    0.7426 H   0  0  0  0  0  0  0  0  0  0  0  0
   -1.3456    0.8788    2.1240 H   0  0  0  0  0  0  0  0  0  0  0  0
   -3.2545    1.1084   -0.3113 H   0  0  0  0  0  0  0  0  0  0  0  0
   -0.7591    2.0842   -0.6742 H   0  0  0  0  0  0  0  0  0  0  0  0
   -2.6271   -1.2493    1.1562 H   0  0  0  0  0  0  0  0  0  0  0  0
   -2.5918   -2.5938   -0.9582 H   0  0  0  0  0  0  0  0  0  0  0  0
   -3.9316   -1.4283   -0.9588 H   0  0  0  0  0  0  0  0  0  0  0  0
   -2.4656   -1.1005   -1.9088 H   0  0  0  0  0  0  0  0  0  0  0  0
  1  2  1  0
  2  3  1  0
  3  4  1  0
  4  5  1  0
  5  6  2  0
  5  7  1  0
  7  8  1  0
  8  9  1  0
  4  2  1  0
  8  3  1  0
  1 10  1  0
  1 11  1  0
  1 12  1  0
  2 13  1  0
  3 14  1  0
  4 15  1  0
  8 16  1  0
  9 17  1  0
  9 18  1  0
  9 19  1  0
M  END
$$$$
