gdb 1962	4.1927541	1.15738	1.081182	3.3533	75.84	-0.23229	0.07209	0.30438	1186.523	0.155686	-422.503211	-422.494805	-422.493861	-422.536394	31.659
 OpenBabel02181911403D

 19 21  0  0  1  0  0  0  0  0999 V2000
    3.2275   -1.0762   -3.2737 C   0  0  0  0  0  0  0  0  0  0  0  0
    2.6952   -0.2157   -2.1757 C   0  0  2  0  0  0  0  0  0  0  0  0
    2.1788   -0.6292   -0.7846 C   0  0  0  0  0  0  0  0  0  0  0  0
    1.2064    0.5965   -0.8450 C   0  0  1  0  0  0  0  0  0  0  0  0
   -0.3214    0.4004   -0.7497 C   0  0  0  0  0  0  0  0  0  0  0  0
   -0.2357    1.4538    0.3722 C   0  0  0  0  0  0  0  0  0  0  0  0
    1.1966    1.5497    0.2264 O   0  0  0  0  0  0  0  0  0  0  0  0
    1.8307    0.9846   -2.1875 C   0  0  1  0  0  0  0  0  0  0  0  0
    3.2474    1.0949   -1.9953 O   0  0  0  0  0  0  0  0  0  0  0  0
    4.1948   -1.5081   -2.9929 H   0  0  0  0  0  0  0  0  0  0  0  0
    2.5418   -1.9022   -3.4880 H   0  0  0  0  0  0  0  0  0  0  0  0
    3.3690   -0.4891   -4.1849 H   0  0  0  0  0  0  0  0  0  0  0  0
    1.6498   -1.5857   -0.7531 H   0  0  0  0  0  0  0  0  0  0  0  0
    2.9318   -0.5865    0.0050 H   0  0  0  0  0  0  0  0  0  0  0  0
   -0.8863    0.6975   -1.6361 H   0  0  0  0  0  0  0  0  0  0  0  0
   -0.6417   -0.5951   -0.4372 H   0  0  0  0  0  0  0  0  0  0  0  0
   -0.7327    2.4088    0.1645 H   0  0  0  0  0  0  0  0  0  0  0  0
   -0.5231    1.1142    1.3741 H   0  0  0  0  0  0  0  0  0  0  0  0
    1.3940    1.5515   -3.0043 H   0  0  0  0  0  0  0  0  0  0  0  0
  1 10  1  0  0  0  0
  2  1  1  6  0  0  0
  2  9  1  0  0  0  0
  2  3  1  0  0  0  0
  3 13  1  0  0  0  0
  3 14  1  0  0  0  0
  4  3  1  0  0  0  0
  4  5  1  0  0  0  0
  4  7  1  1  0  0  0
  5 16  1  0  0  0  0
  5  6  1  0  0  0  0
  6 18  1  0  0  0  0
  7  6  1  0  0  0  0
  8 19  1  6  0  0  0
  8  2  1  0  0  0  0
  8  9  1  0  0  0  0
  8  4  1  0  0  0  0
 11  1  1  0  0  0  0
 12  1  1  0  0  0  0
 15  5  1  0  0  0  0
 17  6  1  0  0  0  0
M TOR 0 0 1 2 3
M TOR 1 0 1 2 12
M TOR 2 0 1 2 13
M TOR 3 0 1 7 3
M TOR 4 0 1 7 8
M TOR 5 0 1 7 18
M TOR 6 1 2 3 4
M TOR 7 1 2 3 6
M TOR 8 1 2 3 7
M TOR 9 1 7 3 4
M TOR 10 1 7 3 6
M TOR 11 1 8 7 3
M TOR 12 1 8 7 18
M TOR 13 2 1 0 9
M TOR 14 2 1 0 10
M TOR 15 2 1 0 11
M TOR 16 2 1 7 8
M TOR 17 2 1 7 18
M TOR 18 2 3 4 5
M TOR 19 2 3 4 14
M TOR 20 2 3 4 15
M TOR 21 2 3 6 5
M TOR 22 2 3 7 8
M TOR 23 2 3 7 18
M TOR 24 3 2 1 8
M TOR 25 3 4 5 6
M TOR 26 3 4 5 16
M TOR 27 3 4 5 17
M TOR 28 3 6 5 16
M TOR 29 3 6 5 17
M TOR 30 4 3 2 12
M TOR 31 4 3 2 13
M TOR 32 4 3 7 8
M TOR 33 4 3 7 18
M TOR 34 5 4 3 7
M TOR 35 5 6 3 7
M TOR 36 6 3 2 12
M TOR 37 6 3 2 13
M TOR 38 6 3 4 14
M TOR 39 6 3 4 15
M TOR 40 6 3 7 8
M TOR 41 6 3 7 18
M TOR 42 6 5 4 14
M TOR 43 6 5 4 15
M TOR 44 7 1 0 9
M TOR 45 7 1 0 10
M TOR 46 7 1 0 11
M TOR 47 7 1 2 12
M TOR 48 7 1 2 13
M TOR 49 7 3 2 12
M TOR 50 7 3 2 13
M TOR 51 7 3 4 14
M TOR 52 7 3 4 15
M TOR 53 8 1 0 9
M TOR 54 8 1 0 10
M TOR 55 8 1 0 11
M TOR 56 8 1 2 12
M TOR 57 8 1 2 13
M  END
$$$$
