
     RDKit          3D

 19 20  0  0  0  0  0  0  0  0999 V2000
    1.3690   -0.2075    0.1890 O   0  0  0  0  0  0  0  0  0  0  0  0
    0.2144    0.0906    0.0273 C   0  0  0  0  0  0  0  0  0  0  0  0
   -0.3322    0.8410   -1.1656 C   0  0  0  0  0  0  0  0  0  0  0  0
   -1.0605    2.1304   -0.7407 C   0  0  0  0  0  0  0  0  0  0  0  0
   -1.7309    2.8498   -1.9078 C   0  0  0  0  0  0  0  0  0  0  0  0
   -2.3587    4.2446   -1.5364 C   0  0  0  0  0  0  0  0  0  0  0  0
   -1.3693    4.9007   -2.5078 C   0  0  0  0  0  0  0  0  0  0  0  0
   -1.5886    4.3148   -3.7963 O   0  0  0  0  0  0  0  0  0  0  0  0
   -0.7764    3.6009   -2.8612 C   0  0  0  0  0  0  0  0  0  0  0  0
   -0.5569   -0.1742    0.7899 H   0  0  0  0  0  0  0  0  0  0  0  0
    0.4919    1.0443   -1.8551 H   0  0  0  0  0  0  0  0  0  0  0  0
   -1.0479    0.1790   -1.6748 H   0  0  0  0  0  0  0  0  0  0  0  0
   -1.8210    1.8877    0.0131 H   0  0  0  0  0  0  0  0  0  0  0  0
   -0.3465    2.8062   -0.2518 H   0  0  0  0  0  0  0  0  0  0  0  0
   -2.4087    2.1718   -2.4367 H   0  0  0  0  0  0  0  0  0  0  0  0
   -3.4143    4.3949   -1.7745 H   0  0  0  0  0  0  0  0  0  0  0  0
   -2.1772    4.5097   -0.4911 H   0  0  0  0  0  0  0  0  0  0  0  0
   -0.9403    5.8957   -2.4850 H   0  0  0  0  0  0  0  0  0  0  0  0
    0.2275    3.3365   -3.1750 H   0  0  0  0  0  0  0  0  0  0  0  0
  1  2  2  0
  2  3  1  0
  3  4  1  0
  4  5  1  0
  5  6  1  0
  6  7  1  0
  7  8  1  0
  8  9  1  0
  9  5  1  0
  9  7  1  0
  2 10  1  0
  3 11  1  0
  3 12  1  0
  4 13  1  0
  4 14  1  0
  5 15  1  0
  6 16  1  0
  6 17  1  0
  7 18  1  0
  9 19  1  0
M  END
$$$$
