gdb 3432	2.3470672	1.5250141	0.9979708	2.3721	78.27	-0.2494	-0.02583	0.22357000000000002	1213.3033	0.155034	-422.596675	-422.587152	-422.586208	-422.630868	34.758
 OpenBabel02181911413D

 19 19  0  0  1  0  0  0  0  0999 V2000
   -2.1357   -2.6247   -0.6361 C   0  0  0  0  0  0  0  0  0  0  0  0
   -1.7590   -1.4334    0.2505 C   0  0  1  0  0  0  0  0  0  0  0  0
   -0.2789   -1.1408    0.3895 C   0  0  0  0  0  0  0  0  0  0  0  0
    0.0401    0.1504    0.2379 C   0  0  0  0  0  0  0  0  0  0  0  0
    1.3919    0.7816    0.2864 C   0  0  0  0  0  0  0  0  0  0  0  0
   -1.2059    0.9880    0.0385 C   0  0  1  0  0  0  0  0  0  0  0  0
   -1.1100    1.9670   -0.9688 O   0  0  0  0  0  0  0  0  0  0  0  0
   -2.2414   -0.0906   -0.3054 C   0  0  0  0  0  0  0  0  0  0  0  0
   -3.1869    0.1111   -1.0253 O   0  0  0  0  0  0  0  0  0  0  0  0
   -1.8037   -3.5640   -0.1844 H   0  0  0  0  0  0  0  0  0  0  0  0
   -3.2189   -2.6690   -0.7745 H   0  0  0  0  0  0  0  0  0  0  0  0
   -1.6721   -2.5365   -1.6231 H   0  0  0  0  0  0  0  0  0  0  0  0
   -2.2231   -1.5727    1.2406 H   0  0  0  0  0  0  0  0  0  0  0  0
    0.4404   -1.9282    0.5926 H   0  0  0  0  0  0  0  0  0  0  0  0
    1.4678    1.4899    1.1213 H   0  0  0  0  0  0  0  0  0  0  0  0
    2.1817    0.0335    0.3954 H   0  0  0  0  0  0  0  0  0  0  0  0
    1.5725    1.3573   -0.6278 H   0  0  0  0  0  0  0  0  0  0  0  0
   -1.4948    1.4603    0.9979 H   0  0  0  0  0  0  0  0  0  0  0  0
   -1.9440    1.9202   -1.4585 H   0  0  0  0  0  0  0  0  0  0  0  0
  1 10  1  0  0  0  0
  1  2  1  0  0  0  0
  2  3  1  0  0  0  0
  2 13  1  1  0  0  0
  3 14  1  0  0  0  0
  4  5  1  0  0  0  0
  4  3  2  0  0  0  0
  5 16  1  0  0  0  0
  5 15  1  0  0  0  0
  6  4  1  0  0  0  0
  6 18  1  1  0  0  0
  7  6  1  0  0  0  0
  8  6  1  0  0  0  0
  8  2  1  0  0  0  0
  9  8  2  0  0  0  0
 11  1  1  0  0  0  0
 12  1  1  0  0  0  0
 17  5  1  0  0  0  0
 19  7  1  0  0  0  0
M TOR 0 0 1 2 3
M TOR 1 0 1 2 13
M TOR 2 0 1 7 5
M TOR 3 0 1 7 8
M TOR 4 1 2 3 4
M TOR 5 1 2 3 5
M TOR 6 1 7 5 3
M TOR 7 1 7 5 6
M TOR 8 1 7 5 17
M TOR 9 2 1 0 9
M TOR 10 2 1 0 10
M TOR 11 2 1 0 11
M TOR 12 2 1 7 5
M TOR 13 2 1 7 8
M TOR 14 2 3 4 14
M TOR 15 2 3 4 15
M TOR 16 2 3 4 16
M TOR 17 2 3 5 6
M TOR 18 2 3 5 7
M TOR 19 2 3 5 17
M TOR 20 3 2 1 7
M TOR 21 3 2 1 12
M TOR 22 3 5 6 18
M TOR 23 3 5 7 8
M TOR 24 4 3 2 13
M TOR 25 4 3 5 6
M TOR 26 4 3 5 7
M TOR 27 4 3 5 17
M TOR 28 5 3 2 13
M TOR 29 5 3 4 14
M TOR 30 5 3 4 15
M TOR 31 5 3 4 16
M TOR 32 5 7 1 12
M TOR 33 6 5 7 8
M TOR 34 7 1 0 9
M TOR 35 7 1 0 10
M TOR 36 7 1 0 11
M TOR 37 7 1 2 13
M TOR 38 7 5 6 18
M TOR 39 8 7 1 12
M TOR 40 8 7 5 17
M  END
$$$$
