
     RDKit          3D

 19 21  0  0  0  0  0  0  0  0999 V2000
   -0.1694   -0.1710    0.0691 C   0  0  0  0  0  0  0  0  0  0  0  0
    1.3343    0.0816   -0.0288 C   0  0  0  0  0  0  0  0  0  0  0  0
    2.0215   -0.5790   -1.2651 C   0  0  0  0  0  0  0  0  0  0  0  0
    3.3777   -1.0438   -0.7392 C   0  0  0  0  0  0  0  0  0  0  0  0
    3.3495   -2.0045    0.4587 C   0  0  0  0  0  0  0  0  0  0  0  0
    2.0655   -1.9594    1.0832 O   0  0  0  0  0  0  0  0  0  0  0  0
    2.1453   -0.4931    1.1333 C   0  0  0  0  0  0  0  0  0  0  0  0
    3.6231   -0.5455    0.6580 C   0  0  0  0  0  0  0  0  0  0  0  0
    4.6959    0.2231    1.0438 O   0  0  0  0  0  0  0  0  0  0  0  0
   -0.6046    0.3375    0.9363 H   0  0  0  0  0  0  0  0  0  0  0  0
   -0.6894    0.1913   -0.8236 H   0  0  0  0  0  0  0  0  0  0  0  0
   -0.3659   -1.2427    0.1689 H   0  0  0  0  0  0  0  0  0  0  0  0
    1.5252    1.1637   -0.0495 H   0  0  0  0  0  0  0  0  0  0  0  0
    1.4262   -1.4210   -1.6333 H   0  0  0  0  0  0  0  0  0  0  0  0
    2.1329    0.1286   -2.0916 H   0  0  0  0  0  0  0  0  0  0  0  0
    4.2353   -1.1478   -1.3952 H   0  0  0  0  0  0  0  0  0  0  0  0
    3.9337   -2.9133    0.5421 H   0  0  0  0  0  0  0  0  0  0  0  0
    1.9120   -0.1156    2.1323 H   0  0  0  0  0  0  0  0  0  0  0  0
    4.9036    0.0181    1.9627 H   0  0  0  0  0  0  0  0  0  0  0  0
  1  2  1  0
  2  3  1  0
  3  4  1  0
  4  5  1  0
  5  6  1  0
  6  7  1  0
  7  8  1  0
  8  9  1  0
  7  2  1  0
  8  4  1  0
  8  5  1  0
  1 10  1  0
  1 11  1  0
  1 12  1  0
  2 13  1  0
  3 14  1  0
  3 15  1  0
  4 16  1  0
  5 17  1  0
  7 18  1  0
  9 19  1  0
M  END
$$$$
