
     RDKit          3D

 19 20  0  0  0  0  0  0  0  0999 V2000
    1.5762    0.0564   -0.1700 C   0  0  0  0  0  0  0  0  0  0  0  0
    0.2229   -0.2458    0.1945 O   0  0  0  0  0  0  0  0  0  0  0  0
   -0.2781    0.4927    1.2084 C   0  0  0  0  0  0  0  0  0  0  0  0
    0.3498    1.3514    1.7768 O   0  0  0  0  0  0  0  0  0  0  0  0
   -1.7159    0.1497    1.5167 C   0  0  0  0  0  0  0  0  0  0  0  0
   -2.0499   -0.5639    2.8677 C   0  0  0  0  0  0  0  0  0  0  0  0
   -3.4193   -0.9326    2.2269 C   0  0  0  0  0  0  0  0  0  0  0  0
   -2.3540   -1.2149    1.1251 C   0  0  0  0  0  0  0  0  0  0  0  0
   -1.4943   -1.8783    2.2439 C   0  0  0  0  0  0  0  0  0  0  0  0
    2.2507   -0.1163    0.6725 H   0  0  0  0  0  0  0  0  0  0  0  0
    1.8176   -0.6119   -0.9965 H   0  0  0  0  0  0  0  0  0  0  0  0
    1.6672    1.1002   -0.4809 H   0  0  0  0  0  0  0  0  0  0  0  0
   -2.3250    1.0379    1.3177 H   0  0  0  0  0  0  0  0  0  0  0  0
   -1.8650   -0.1681    3.8661 H   0  0  0  0  0  0  0  0  0  0  0  0
   -3.9273   -1.8060    2.6431 H   0  0  0  0  0  0  0  0  0  0  0  0
   -4.1166   -0.1106    2.0434 H   0  0  0  0  0  0  0  0  0  0  0  0
   -2.5265   -1.5862    0.1153 H   0  0  0  0  0  0  0  0  0  0  0  0
   -1.8829   -2.8102    2.6628 H   0  0  0  0  0  0  0  0  0  0  0  0
   -0.4187   -1.9417    2.0711 H   0  0  0  0  0  0  0  0  0  0  0  0
  1  2  1  0
  2  3  1  0
  3  4  2  0
  3  5  1  0
  5  6  1  0
  6  7  1  0
  7  8  1  0
  8  9  1  0
  8  5  1  0
  9  6  1  0
  1 10  1  0
  1 11  1  0
  1 12  1  0
  5 13  1  0
  6 14  1  0
  7 15  1  0
  7 16  1  0
  8 17  1  0
  9 18  1  0
  9 19  1  0
M  END
$$$$
