
     RDKit          3D

 19 20  0  0  0  0  0  0  0  0999 V2000
   -0.8753   -2.4380    0.4715 O   0  0  0  0  0  0  0  0  0  0  0  0
   -0.7850   -1.2488   -0.2575 C   0  0  0  0  0  0  0  0  0  0  0  0
   -0.4415   -0.0494    0.6255 C   0  0  0  0  0  0  0  0  0  0  0  0
    0.0685   -0.1632    1.7134 O   0  0  0  0  0  0  0  0  0  0  0  0
   -0.9687    1.2185   -0.0388 C   0  0  0  0  0  0  0  0  0  0  0  0
   -1.7717    0.7071   -1.2612 C   0  0  0  0  0  0  0  0  0  0  0  0
   -2.0576   -0.7598   -0.9389 C   0  0  0  0  0  0  0  0  0  0  0  0
   -2.9207   -1.6482   -1.7776 C   0  0  0  0  0  0  0  0  0  0  0  0
   -3.3957   -1.2078   -0.4091 C   0  0  0  0  0  0  0  0  0  0  0  0
   -0.4741   -2.2454    1.3331 H   0  0  0  0  0  0  0  0  0  0  0  0
    0.0111   -1.3255   -1.0249 H   0  0  0  0  0  0  0  0  0  0  0  0
   -1.5981    1.7404    0.6894 H   0  0  0  0  0  0  0  0  0  0  0  0
   -0.1499    1.8982   -0.2927 H   0  0  0  0  0  0  0  0  0  0  0  0
   -2.6859    1.2798   -1.4341 H   0  0  0  0  0  0  0  0  0  0  0  0
   -1.1661    0.7815   -2.1724 H   0  0  0  0  0  0  0  0  0  0  0  0
   -3.4019   -1.2176   -2.6503 H   0  0  0  0  0  0  0  0  0  0  0  0
   -2.6194   -2.6839   -1.8937 H   0  0  0  0  0  0  0  0  0  0  0  0
   -4.1975   -0.4788   -0.3544 H   0  0  0  0  0  0  0  0  0  0  0  0
   -3.3889   -1.9494    0.3810 H   0  0  0  0  0  0  0  0  0  0  0  0
  1  2  1  0
  2  3  1  0
  3  4  2  0
  3  5  1  0
  5  6  1  0
  6  7  1  0
  7  8  1  0
  8  9  1  0
  7  2  1  0
  9  7  1  0
  1 10  1  0
  2 11  1  0
  5 12  1  0
  5 13  1  0
  6 14  1  0
  6 15  1  0
  8 16  1  0
  8 17  1  0
  9 18  1  0
  9 19  1  0
M  END
$$$$
