
     RDKit          3D

 19 19  0  0  0  0  0  0  0  0999 V2000
    1.5867    0.0039   -0.0895 C   0  0  0  0  0  0  0  0  0  0  0  0
    0.1332   -0.0572   -0.0822 C   0  0  0  0  0  0  0  0  0  0  0  0
   -1.0704   -0.1043   -0.0729 C   0  0  0  0  0  0  0  0  0  0  0  0
   -2.5115   -0.1225   -0.1092 C   0  0  0  0  0  0  0  0  0  0  0  0
   -3.1539    0.5684   -1.3077 C   0  0  0  0  0  0  0  0  0  0  0  0
   -2.7488    0.0150   -2.5436 O   0  0  0  0  0  0  0  0  0  0  0  0
   -3.1960    0.1354    1.1353 O   0  0  0  0  0  0  0  0  0  0  0  0
   -3.2767   -1.1837    0.5960 C   0  0  0  0  0  0  0  0  0  0  0  0
   -2.6324   -2.2916    1.3847 C   0  0  0  0  0  0  0  0  0  0  0  0
    1.9631    0.5389    0.7893 H   0  0  0  0  0  0  0  0  0  0  0  0
    2.0295   -0.9982   -0.0844 H   0  0  0  0  0  0  0  0  0  0  0  0
    1.9537    0.5262   -0.9796 H   0  0  0  0  0  0  0  0  0  0  0  0
   -4.2451    0.5429   -1.1698 H   0  0  0  0  0  0  0  0  0  0  0  0
   -2.8435    1.6174   -1.3298 H   0  0  0  0  0  0  0  0  0  0  0  0
   -2.9991   -0.9147   -2.5489 H   0  0  0  0  0  0  0  0  0  0  0  0
   -4.2593   -1.4209    0.1785 H   0  0  0  0  0  0  0  0  0  0  0  0
   -3.2264   -2.5144    2.2771 H   0  0  0  0  0  0  0  0  0  0  0  0
   -2.5746   -3.2044    0.7820 H   0  0  0  0  0  0  0  0  0  0  0  0
   -1.6240   -2.0109    1.6945 H   0  0  0  0  0  0  0  0  0  0  0  0
  1  2  1  0
  2  3  3  0
  3  4  1  0
  4  5  1  0
  5  6  1  0
  4  7  1  0
  7  8  1  0
  8  9  1  0
  8  4  1  0
  1 10  1  0
  1 11  1  0
  1 12  1  0
  5 13  1  0
  5 14  1  0
  6 15  1  0
  8 16  1  0
  9 17  1  0
  9 18  1  0
  9 19  1  0
M  END
$$$$
