gdb 2263	3.1851324	1.5066697	1.3976122	2.2299	75.2	-0.23718	0.00439	0.24157	1008.7605	0.15699	-422.569704	-422.561756	-422.560812	-422.601239	32.394
 OpenBabel02181911413D

 19 20  0  0  1  0  0  0  0  0999 V2000
   -0.0764   -0.0212   -0.0848 C   0  0  0  0  0  0  0  0  0  0  0  0
    1.4236    0.0262    0.0649 C   0  0  1  0  0  0  0  0  0  0  0  0
    2.1159   -0.7442    1.2027 C   0  0  0  0  0  0  0  0  0  0  0  0
    3.5250   -0.3473    0.6800 C   0  0  1  0  0  0  0  0  0  0  0  0
    4.6734   -0.8510    1.2996 O   0  0  0  0  0  0  0  0  0  0  0  0
    3.3867   -0.8902   -0.7729 C   0  0  0  0  0  0  0  0  0  0  0  0
    2.0295   -0.6178   -1.1123 O   0  0  0  0  0  0  0  0  0  0  0  0
    3.3618    1.1615    0.5607 C   0  0  0  0  0  0  0  0  0  0  0  0
    2.0983    1.3903    0.1908 C   0  0  0  0  0  0  0  0  0  0  0  0
   -0.5623    0.4452    0.7773 H   0  0  0  0  0  0  0  0  0  0  0  0
   -0.3861    0.5149   -0.9873 H   0  0  0  0  0  0  0  0  0  0  0  0
   -0.4225   -1.0550   -0.1675 H   0  0  0  0  0  0  0  0  0  0  0  0
    1.9045   -0.3412    2.1953 H   0  0  0  0  0  0  0  0  0  0  0  0
    1.9224   -1.8200    1.1684 H   0  0  0  0  0  0  0  0  0  0  0  0
    4.7354   -0.4644    2.1790 H   0  0  0  0  0  0  0  0  0  0  0  0
    4.0699   -0.3922   -1.4701 H   0  0  0  0  0  0  0  0  0  0  0  0
    3.5782   -1.9703   -0.7903 H   0  0  0  0  0  0  0  0  0  0  0  0
    4.1848    1.8630    0.6294 H   0  0  0  0  0  0  0  0  0  0  0  0
    1.6477    2.3286   -0.1090 H   0  0  0  0  0  0  0  0  0  0  0  0
  1 10  1  0  0  0  0
  2  1  1  1  0  0  0
  2  9  1  0  0  0  0
  2  3  1  0  0  0  0
  3 13  1  0  0  0  0
  4  3  1  0  0  0  0
  4  5  1  1  0  0  0
  5 15  1  0  0  0  0
  6  4  1  0  0  0  0
  7  6  1  0  0  0  0
  7  2  1  0  0  0  0
  8 18  1  0  0  0  0
  8  4  1  0  0  0  0
  9  8  2  0  0  0  0
 11  1  1  0  0  0  0
 12  1  1  0  0  0  0
 14  3  1  0  0  0  0
 16  6  1  0  0  0  0
 17  6  1  0  0  0  0
 19  9  1  0  0  0  0
M TOR 0 0 1 2 3
M TOR 1 0 1 2 12
M TOR 2 0 1 2 13
M TOR 3 0 1 6 5
M TOR 4 0 1 8 7
M TOR 5 0 1 8 18
M TOR 6 1 2 3 4
M TOR 7 1 2 3 5
M TOR 8 1 2 3 7
M TOR 9 1 6 5 3
M TOR 10 1 6 5 15
M TOR 11 1 6 5 16
M TOR 12 1 8 7 3
M TOR 13 1 8 7 17
M TOR 14 2 1 0 9
M TOR 15 2 1 0 10
M TOR 16 2 1 0 11
M TOR 17 2 1 6 5
M TOR 18 2 1 8 7
M TOR 19 2 1 8 18
M TOR 20 2 3 4 14
M TOR 21 2 3 5 6
M TOR 22 2 3 5 15
M TOR 23 2 3 5 16
M TOR 24 2 3 7 8
M TOR 25 2 3 7 17
M TOR 26 3 2 1 6
M TOR 27 3 2 1 8
M TOR 28 3 7 8 18
M TOR 29 4 3 2 12
M TOR 30 4 3 2 13
M TOR 31 4 3 5 6
M TOR 32 4 3 5 15
M TOR 33 4 3 5 16
M TOR 34 4 3 7 8
M TOR 35 4 3 7 17
M TOR 36 5 3 2 12
M TOR 37 5 3 2 13
M TOR 38 5 3 4 14
M TOR 39 5 3 7 8
M TOR 40 5 3 7 17
M TOR 41 5 6 1 8
M TOR 42 6 1 0 9
M TOR 43 6 1 0 10
M TOR 44 6 1 0 11
M TOR 45 6 1 2 12
M TOR 46 6 1 2 13
M TOR 47 6 1 8 7
M TOR 48 6 1 8 18
M TOR 49 6 5 3 7
M TOR 50 7 3 2 12
M TOR 51 7 3 2 13
M TOR 52 7 3 4 14
M TOR 53 7 3 5 15
M TOR 54 7 3 5 16
M TOR 55 8 1 0 9
M TOR 56 8 1 0 10
M TOR 57 8 1 0 11
M TOR 58 8 1 2 12
M TOR 59 8 1 2 13
M  END
$$$$
