
     RDKit          3D

 19 20  0  0  0  0  0  0  0  0999 V2000
   -0.8669   -1.9776    1.3609 C   0  0  0  0  0  0  0  0  0  0  0  0
   -0.9914   -1.1387    0.0900 C   0  0  0  0  0  0  0  0  0  0  0  0
    0.0069    0.0468    0.0572 C   0  0  0  0  0  0  0  0  0  0  0  0
    1.2030    0.0335    0.1412 O   0  0  0  0  0  0  0  0  0  0  0  0
   -0.9690    1.2267   -0.0572 C   0  0  0  0  0  0  0  0  0  0  0  0
   -1.9290    0.7346   -1.1610 C   0  0  0  0  0  0  0  0  0  0  0  0
   -2.2699   -0.2655   -0.0244 C   0  0  0  0  0  0  0  0  0  0  0  0
   -3.6256   -0.8876    0.1480 C   0  0  0  0  0  0  0  0  0  0  0  0
   -1.9559    0.8131    0.9418 O   0  0  0  0  0  0  0  0  0  0  0  0
   -1.5226   -2.8530    1.3309 H   0  0  0  0  0  0  0  0  0  0  0  0
    0.1632   -2.3272    1.4751 H   0  0  0  0  0  0  0  0  0  0  0  0
   -1.1221   -1.3780    2.2392 H   0  0  0  0  0  0  0  0  0  0  0  0
   -0.8412   -1.7660   -0.7970 H   0  0  0  0  0  0  0  0  0  0  0  0
   -0.5947    2.2430    0.0444 H   0  0  0  0  0  0  0  0  0  0  0  0
   -2.7378    1.4465   -1.3337 H   0  0  0  0  0  0  0  0  0  0  0  0
   -1.5178    0.3558   -2.1008 H   0  0  0  0  0  0  0  0  0  0  0  0
   -3.7023   -1.3948    1.1143 H   0  0  0  0  0  0  0  0  0  0  0  0
   -4.4080   -0.1257    0.0951 H   0  0  0  0  0  0  0  0  0  0  0  0
   -3.8044   -1.6268   -0.6399 H   0  0  0  0  0  0  0  0  0  0  0  0
  1  2  1  0
  2  3  1  0
  3  4  2  0
  3  5  1  0
  5  6  1  0
  6  7  1  0
  7  8  1  0
  7  9  1  0
  7  2  1  0
  9  5  1  0
  1 10  1  0
  1 11  1  0
  1 12  1  0
  2 13  1  0
  5 14  1  0
  6 15  1  0
  6 16  1  0
  8 17  1  0
  8 18  1  0
  8 19  1  0
M  END
$$$$
