gdb 1403	2.134196	1.4672795	1.2069797	1.7098	79.63	-0.22944	0.03612	0.26556	1149.6343	0.152351	-422.52081	-422.510496	-422.509552	-422.554988	38.777
 OpenBabel02181911403D

 19 19  0  0  1  0  0  0  0  0999 V2000
   -1.0662   -0.5869    0.5834 C   0  0  0  0  0  0  0  0  0  0  0  0
   -1.8646    0.6373    0.9536 C   0  0  2  0  0  0  0  0  0  0  0  0
   -1.7103    1.0035    2.3036 O   0  0  0  0  0  0  0  0  0  0  0  0
   -3.2679    0.8751    0.3621 C   0  0  1  0  0  0  0  0  0  0  0  0
   -4.3045    1.2600    1.2631 C   0  0  0  0  0  0  0  0  0  0  0  0
   -5.1258    1.5626    2.0921 C   0  0  0  0  0  0  0  0  0  0  0  0
   -2.0781    1.8271    0.0518 C   0  0  2  0  0  0  0  0  0  0  0  0
   -1.5703    1.8980   -1.3660 C   0  0  0  0  0  0  0  0  0  0  0  0
   -2.0493    3.0696    0.6651 O   0  0  0  0  0  0  0  0  0  0  0  0
   -1.4095   -1.4515    1.1612 H   0  0  0  0  0  0  0  0  0  0  0  0
   -1.1624   -0.8260   -0.4782 H   0  0  0  0  0  0  0  0  0  0  0  0
   -0.0062   -0.4293    0.8066 H   0  0  0  0  0  0  0  0  0  0  0  0
   -2.5615    0.8834    2.7491 H   0  0  0  0  0  0  0  0  0  0  0  0
   -3.5594    0.2059   -0.4424 H   0  0  0  0  0  0  0  0  0  0  0  0
   -5.8814    1.8579    2.7774 H   0  0  0  0  0  0  0  0  0  0  0  0
   -1.6732    0.9443   -1.8880 H   0  0  0  0  0  0  0  0  0  0  0  0
   -2.1381    2.6527   -1.9188 H   0  0  0  0  0  0  0  0  0  0  0  0
   -0.5162    2.1929   -1.3769 H   0  0  0  0  0  0  0  0  0  0  0  0
   -1.8668    2.8979    1.6017 H   0  0  0  0  0  0  0  0  0  0  0  0
  1 12  1  0  0  0  0
  1  2  1  0  0  0  0
  1 10  1  0  0  0  0
  2  3  1  1  0  0  0
  3 13  1  0  0  0  0
  4 14  1  6  0  0  0
  4  2  1  0  0  0  0
  4  5  1  0  0  0  0
  5  6  3  0  0  0  0
  6 15  1  0  0  0  0
  7  4  1  0  0  0  0
  7  9  1  1  0  0  0
  7  2  1  0  0  0  0
  8  7  1  0  0  0  0
  9 19  1  0  0  0  0
 11  1  1  0  0  0  0
 16  8  1  0  0  0  0
 17  8  1  0  0  0  0
 18  8  1  0  0  0  0
M TOR 0 0 1 2 12
M TOR 1 0 1 3 4
M TOR 2 0 1 3 6
M TOR 3 0 1 3 13
M TOR 4 0 1 6 7
M TOR 5 0 1 6 8
M TOR 6 1 3 4 5
M TOR 7 1 3 6 7
M TOR 8 1 3 6 8
M TOR 9 1 6 3 4
M TOR 10 1 6 3 13
M TOR 11 1 6 7 15
M TOR 12 1 6 7 16
M TOR 13 1 6 7 17
M TOR 14 1 6 8 18
M TOR 15 2 1 0 9
M TOR 16 2 1 0 10
M TOR 17 2 1 0 11
M TOR 18 2 1 3 4
M TOR 19 2 1 3 6
M TOR 20 2 1 3 13
M TOR 21 2 1 6 7
M TOR 22 2 1 6 8
M TOR 23 3 1 0 9
M TOR 24 3 1 0 10
M TOR 25 3 1 0 11
M TOR 26 3 1 2 12
M TOR 27 3 4 5 14
M TOR 28 3 6 7 15
M TOR 29 3 6 7 16
M TOR 30 3 6 7 17
M TOR 31 3 6 8 18
M TOR 32 4 3 6 7
M TOR 33 4 3 6 8
M TOR 34 5 4 3 6
M TOR 35 5 4 3 13
M TOR 36 6 1 0 9
M TOR 37 6 1 0 10
M TOR 38 6 1 0 11
M TOR 39 6 1 2 12
M TOR 40 7 6 3 13
M TOR 41 7 6 8 18
M TOR 42 8 6 3 13
M TOR 43 8 6 7 15
M TOR 44 8 6 7 16
M TOR 45 8 6 7 17
M  END
$$$$
