
     RDKit          3D

 19 21  0  0  0  0  0  0  0  0999 V2000
    1.5763   -0.3089   -3.1274 C   0  0  0  0  0  0  0  0  0  0  0  0
    0.4894    0.1943   -2.2221 C   0  0  0  0  0  0  0  0  0  0  0  0
   -0.2679    1.4810   -2.4963 C   0  0  0  0  0  0  0  0  0  0  0  0
   -0.6867    2.3724   -1.3407 C   0  0  0  0  0  0  0  0  0  0  0  0
   -1.3639    1.5031   -0.4140 O   0  0  0  0  0  0  0  0  0  0  0  0
   -1.2086    0.1596   -0.8866 C   0  0  0  0  0  0  0  0  0  0  0  0
   -1.0374    0.1951   -2.4135 C   0  0  0  0  0  0  0  0  0  0  0  0
    0.2905   -0.2411   -0.7597 C   0  0  0  0  0  0  0  0  0  0  0  0
    1.0226    0.3586    0.2759 O   0  0  0  0  0  0  0  0  0  0  0  0
    2.5470    0.1138   -2.8448 H   0  0  0  0  0  0  0  0  0  0  0  0
    1.6607   -1.4003   -3.0719 H   0  0  0  0  0  0  0  0  0  0  0  0
    1.3876   -0.0395   -4.1721 H   0  0  0  0  0  0  0  0  0  0  0  0
   -0.1002    1.9338   -3.4673 H   0  0  0  0  0  0  0  0  0  0  0  0
    0.1634    2.8545   -0.8423 H   0  0  0  0  0  0  0  0  0  0  0  0
   -1.3859    3.1521   -1.6671 H   0  0  0  0  0  0  0  0  0  0  0  0
   -1.9678   -0.4612   -0.4143 H   0  0  0  0  0  0  0  0  0  0  0  0
   -1.6669   -0.2346   -3.1803 H   0  0  0  0  0  0  0  0  0  0  0  0
    0.4086   -1.3297   -0.6921 H   0  0  0  0  0  0  0  0  0  0  0  0
    0.4529    1.0603    0.6204 H   0  0  0  0  0  0  0  0  0  0  0  0
  1  2  1  0
  2  3  1  0
  3  4  1  0
  4  5  1  0
  5  6  1  0
  6  7  1  0
  6  8  1  0
  8  9  1  0
  7  2  1  0
  8  2  1  0
  7  3  1  0
  1 10  1  0
  1 11  1  0
  1 12  1  0
  3 13  1  0
  4 14  1  0
  4 15  1  0
  6 16  1  0
  7 17  1  0
  8 18  1  0
  9 19  1  0
M  END
$$$$
