gdb 4341	2.4049664	1.630321	1.3594148	1.4751	75.76	-0.25184	0.01583	0.26767	1035.9816	0.157545	-422.556247	-422.548042	-422.547097	-422.588689	31.924
 OpenBabel02181911413D

 19 20  0  0  1  0  0  0  0  0999 V2000
    0.5562    0.3644    0.5400 O   0  0  0  0  0  0  0  0  0  0  0  0
   -0.7567    0.6534    1.0098 C   0  0  1  0  0  0  0  0  0  0  0  0
   -1.2245    2.0499    0.5801 C   0  0  0  0  0  0  0  0  0  0  0  0
   -1.5406    2.0844   -0.8965 C   0  0  0  0  0  0  0  0  0  0  0  0
   -1.8366    0.9928   -1.6049 C   0  0  0  0  0  0  0  0  0  0  0  0
   -1.8993   -0.3947   -1.0149 C   0  0  0  0  0  0  0  0  0  0  0  0
   -1.7502   -0.3790    0.4959 C   0  0  1  0  0  0  0  0  0  0  0  0
   -2.0888   -1.5523    1.3022 C   0  0  0  0  0  0  0  0  0  0  0  0
   -2.9724   -0.4242    1.2506 O   0  0  0  0  0  0  0  0  0  0  0  0
    0.6079    0.6709   -0.3727 H   0  0  0  0  0  0  0  0  0  0  0  0
   -0.7081    0.5910    2.1009 H   0  0  0  0  0  0  0  0  0  0  0  0
   -2.1121    2.3296    1.1631 H   0  0  0  0  0  0  0  0  0  0  0  0
   -0.4445    2.7792    0.8269 H   0  0  0  0  0  0  0  0  0  0  0  0
   -1.5260    3.0545   -1.3866 H   0  0  0  0  0  0  0  0  0  0  0  0
   -2.0486    1.0777   -2.6678 H   0  0  0  0  0  0  0  0  0  0  0  0
   -2.8518   -0.8750   -1.2680 H   0  0  0  0  0  0  0  0  0  0  0  0
   -1.1133   -1.0232   -1.4579 H   0  0  0  0  0  0  0  0  0  0  0  0
   -2.4599   -2.4536    0.8153 H   0  0  0  0  0  0  0  0  0  0  0  0
   -1.5894   -1.7146    2.2565 H   0  0  0  0  0  0  0  0  0  0  0  0
  1  2  1  0  0  0  0
  2 11  1  1  0  0  0
  3 13  1  0  0  0  0
  3  2  1  0  0  0  0
  3 12  1  0  0  0  0
  4  3  1  0  0  0  0
  5  6  1  0  0  0  0
  5  4  2  0  0  0  0
  6  7  1  0  0  0  0
  7  2  1  0  0  0  0
  7  9  1  1  0  0  0
  7  8  1  0  0  0  0
  8 19  1  0  0  0  0
  9  8  1  0  0  0  0
 10  1  1  0  0  0  0
 14  4  1  0  0  0  0
 15  5  1  0  0  0  0
 16  6  1  0  0  0  0
 17  6  1  0  0  0  0
 18  8  1  0  0  0  0
M TOR 0 0 1 2 3
M TOR 1 0 1 2 11
M TOR 2 0 1 2 12
M TOR 3 0 1 6 5
M TOR 4 0 1 6 7
M TOR 5 0 1 6 8
M TOR 6 1 2 3 4
M TOR 7 1 2 3 13
M TOR 8 1 6 5 4
M TOR 9 1 6 5 15
M TOR 10 1 6 5 16
M TOR 11 1 6 7 8
M TOR 12 1 6 7 17
M TOR 13 1 6 7 18
M TOR 14 2 1 0 9
M TOR 15 2 1 6 5
M TOR 16 2 1 6 7
M TOR 17 2 1 6 8
M TOR 18 2 3 4 5
M TOR 19 2 3 4 14
M TOR 20 3 2 1 6
M TOR 21 3 2 1 10
M TOR 22 3 4 5 6
M TOR 23 3 4 5 15
M TOR 24 3 4 5 16
M TOR 25 4 3 2 11
M TOR 26 4 3 2 12
M TOR 27 4 5 6 7
M TOR 28 4 5 6 8
M TOR 29 5 4 3 13
M TOR 30 5 6 1 10
M TOR 31 5 6 7 8
M TOR 32 5 6 7 17
M TOR 33 5 6 7 18
M TOR 34 6 1 0 9
M TOR 35 6 1 2 11
M TOR 36 6 1 2 12
M TOR 37 6 5 4 14
M TOR 38 6 8 7 17
M TOR 39 6 8 7 18
M TOR 40 7 6 1 10
M TOR 41 7 6 5 15
M TOR 42 7 6 5 16
M TOR 43 8 6 1 10
M TOR 44 8 6 5 15
M TOR 45 8 6 5 16
M  END
$$$$
