
     RDKit          3D

 19 19  0  0  0  0  0  0  0  0999 V2000
    2.5737   -0.8880   -1.1047 C   0  0  0  0  0  0  0  0  0  0  0  0
    1.4364   -0.2330   -0.2976 C   0  0  0  0  0  0  0  0  0  0  0  0
    1.7351    1.2341   -0.0320 C   0  0  0  0  0  0  0  0  0  0  0  0
    2.2148    1.6102    1.0147 O   0  0  0  0  0  0  0  0  0  0  0  0
    1.3895    2.2188   -1.1362 C   0  0  0  0  0  0  0  0  0  0  0  0
    0.0178    2.9649   -0.9139 C   0  0  0  0  0  0  0  0  0  0  0  0
    0.7717    4.2767   -1.2000 C   0  0  0  0  0  0  0  0  0  0  0  0
    0.4137    5.3789   -1.4921 O   0  0  0  0  0  0  0  0  0  0  0  0
    2.1330    3.5849   -1.0989 C   0  0  0  0  0  0  0  0  0  0  0  0
    2.3510   -1.9422   -1.2901 H   0  0  0  0  0  0  0  0  0  0  0  0
    2.7147   -0.4014   -2.0751 H   0  0  0  0  0  0  0  0  0  0  0  0
    3.5182   -0.8300   -0.5563 H   0  0  0  0  0  0  0  0  0  0  0  0
    0.4933   -0.3239   -0.8496 H   0  0  0  0  0  0  0  0  0  0  0  0
    1.3260   -0.7338    0.6676 H   0  0  0  0  0  0  0  0  0  0  0  0
    1.4150    1.7403   -2.1174 H   0  0  0  0  0  0  0  0  0  0  0  0
   -0.8157    2.7231   -1.5767 H   0  0  0  0  0  0  0  0  0  0  0  0
   -0.3207    2.9164    0.1265 H   0  0  0  0  0  0  0  0  0  0  0  0
    2.8643    3.8074   -1.8786 H   0  0  0  0  0  0  0  0  0  0  0  0
    2.5870    3.7377   -0.1132 H   0  0  0  0  0  0  0  0  0  0  0  0
  1  2  1  0
  2  3  1  0
  3  4  2  0
  3  5  1  0
  5  6  1  0
  6  7  1  0
  7  8  2  0
  7  9  1  0
  9  5  1  0
  1 10  1  0
  1 11  1  0
  1 12  1  0
  2 13  1  0
  2 14  1  0
  5 15  1  0
  6 16  1  0
  6 17  1  0
  9 18  1  0
  9 19  1  0
M  END
$$$$
