
     RDKit          3D

 19 20  0  0  0  0  0  0  0  0999 V2000
    0.9073   -0.6784    0.3686 O   0  0  0  0  0  0  0  0  0  0  0  0
   -0.1374   -0.1356    0.1137 C   0  0  0  0  0  0  0  0  0  0  0  0
   -0.4174    0.6432   -1.1518 C   0  0  0  0  0  0  0  0  0  0  0  0
   -1.0642    2.0100   -0.8185 C   0  0  0  0  0  0  0  0  0  0  0  0
   -2.4555    1.7615   -0.6899 O   0  0  0  0  0  0  0  0  0  0  0  0
   -2.8147    0.7711   -1.6352 C   0  0  0  0  0  0  0  0  0  0  0  0
   -2.9213    1.2314   -3.1190 C   0  0  0  0  0  0  0  0  0  0  0  0
   -1.6455    0.4112   -3.4678 C   0  0  0  0  0  0  0  0  0  0  0  0
   -1.5268   -0.0424   -1.9814 C   0  0  0  0  0  0  0  0  0  0  0  0
   -0.9965   -0.1768    0.8229 H   0  0  0  0  0  0  0  0  0  0  0  0
    0.5183    0.7427   -1.7077 H   0  0  0  0  0  0  0  0  0  0  0  0
   -0.7161    2.4464    0.1226 H   0  0  0  0  0  0  0  0  0  0  0  0
   -0.8536    2.7291   -1.6245 H   0  0  0  0  0  0  0  0  0  0  0  0
   -3.6818    0.2396   -1.2385 H   0  0  0  0  0  0  0  0  0  0  0  0
   -3.8312    0.8993   -3.6237 H   0  0  0  0  0  0  0  0  0  0  0  0
   -2.8353    2.3137   -3.2432 H   0  0  0  0  0  0  0  0  0  0  0  0
   -1.8147   -0.4121   -4.1646 H   0  0  0  0  0  0  0  0  0  0  0  0
   -0.7984    0.9968   -3.8349 H   0  0  0  0  0  0  0  0  0  0  0  0
   -1.5639   -1.1218   -1.8228 H   0  0  0  0  0  0  0  0  0  0  0  0
  1  2  2  0
  2  3  1  0
  3  4  1  0
  4  5  1  0
  5  6  1  0
  6  7  1  0
  7  8  1  0
  8  9  1  0
  9  3  1  0
  9  6  1  0
  2 10  1  0
  3 11  1  0
  4 12  1  0
  4 13  1  0
  6 14  1  0
  7 15  1  0
  7 16  1  0
  8 17  1  0
  8 18  1  0
  9 19  1  0
M  END
$$$$
