
     RDKit          3D

 19 20  0  0  0  0  0  0  0  0999 V2000
    0.8466   -0.7875   -0.8204 C   0  0  0  0  0  0  0  0  0  0  0  0
    0.9249    0.0992    0.4188 C   0  0  0  0  0  0  0  0  0  0  0  0
    1.6620   -0.4818    1.6502 C   0  0  0  0  0  0  0  0  0  0  0  0
    3.1628   -0.3232    1.3283 C   0  0  0  0  0  0  0  0  0  0  0  0
    2.7231    1.1444    1.4986 C   0  0  0  0  0  0  0  0  0  0  0  0
    1.7664    0.7001    2.5078 O   0  0  0  0  0  0  0  0  0  0  0  0
    1.8075    1.3970    0.2642 C   0  0  0  0  0  0  0  0  0  0  0  0
    1.0082    2.6673    0.3853 C   0  0  0  0  0  0  0  0  0  0  0  0
    0.9081    3.5008   -0.4805 O   0  0  0  0  0  0  0  0  0  0  0  0
    0.2652   -1.6933   -0.6164 H   0  0  0  0  0  0  0  0  0  0  0  0
    0.3587   -0.2599   -1.6457 H   0  0  0  0  0  0  0  0  0  0  0  0
    1.8382   -1.0962   -1.1663 H   0  0  0  0  0  0  0  0  0  0  0  0
   -0.0886    0.3701    0.7341 H   0  0  0  0  0  0  0  0  0  0  0  0
    1.2380   -1.3564    2.1434 H   0  0  0  0  0  0  0  0  0  0  0  0
    3.7906   -0.6515    2.1567 H   0  0  0  0  0  0  0  0  0  0  0  0
    3.5549   -0.6618    0.3668 H   0  0  0  0  0  0  0  0  0  0  0  0
    3.3885    1.9419    1.8286 H   0  0  0  0  0  0  0  0  0  0  0  0
    2.3629    1.4195   -0.6771 H   0  0  0  0  0  0  0  0  0  0  0  0
    0.4931    2.7837    1.3648 H   0  0  0  0  0  0  0  0  0  0  0  0
  1  2  1  0
  2  3  1  0
  3  4  1  0
  4  5  1  0
  5  6  1  0
  5  7  1  0
  7  8  1  0
  8  9  2  0
  7  2  1  0
  6  3  1  0
  1 10  1  0
  1 11  1  0
  1 12  1  0
  2 13  1  0
  3 14  1  0
  4 15  1  0
  4 16  1  0
  5 17  1  0
  7 18  1  0
  8 19  1  0
M  END
$$$$
