
     RDKit          3D

 19 20  0  0  0  0  0  0  0  0999 V2000
    3.5063    1.1785   -3.9815 O   0  0  0  0  0  0  0  0  0  0  0  0
    2.9275    1.4081   -2.7379 C   0  0  0  0  0  0  0  0  0  0  0  0
    2.1582    2.7319   -2.5174 C   0  0  0  0  0  0  0  0  0  0  0  0
    2.3697    2.3638   -1.0204 C   0  0  0  0  0  0  0  0  0  0  0  0
    3.7448    1.7818   -1.4592 C   0  0  0  0  0  0  0  0  0  0  0  0
    1.4630    1.1020   -0.8949 C   0  0  0  0  0  0  0  0  0  0  0  0
    1.9385    0.3545   -2.1874 C   0  0  0  0  0  0  0  0  0  0  0  0
    1.6677    0.3219    0.3785 C   0  0  0  0  0  0  0  0  0  0  0  0
    0.8145    0.1289    1.2072 O   0  0  0  0  0  0  0  0  0  0  0  0
    3.8737    0.2880   -3.9917 H   0  0  0  0  0  0  0  0  0  0  0  0
    2.7466    3.6002   -2.8201 H   0  0  0  0  0  0  0  0  0  0  0  0
    1.1354    2.8061   -2.8973 H   0  0  0  0  0  0  0  0  0  0  0  0
    2.2855    3.1089   -0.2316 H   0  0  0  0  0  0  0  0  0  0  0  0
    4.4762    2.5659   -1.6643 H   0  0  0  0  0  0  0  0  0  0  0  0
    4.2026    0.9819   -0.8710 H   0  0  0  0  0  0  0  0  0  0  0  0
    0.4056    1.3743   -0.9402 H   0  0  0  0  0  0  0  0  0  0  0  0
    2.4387   -0.5964   -1.9660 H   0  0  0  0  0  0  0  0  0  0  0  0
    1.1157    0.1530   -2.8775 H   0  0  0  0  0  0  0  0  0  0  0  0
    2.6970   -0.0831    0.5216 H   0  0  0  0  0  0  0  0  0  0  0  0
  1  2  1  0
  2  3  1  0
  3  4  1  0
  4  5  1  0
  4  6  1  0
  6  7  1  0
  6  8  1  0
  8  9  2  0
  5  2  1  0
  7  2  1  0
  1 10  1  0
  3 11  1  0
  3 12  1  0
  4 13  1  0
  5 14  1  0
  5 15  1  0
  6 16  1  0
  7 17  1  0
  7 18  1  0
  8 19  1  0
M  END
$$$$
