gdb 169	3.1361357	1.6394279	1.3525534	1.7006	74.72	-0.23408	0.07925	0.31333	984.7998	0.159308	-422.486114	-422.479247	-422.478303	-422.516958	28.573
 OpenBabel02181911403D

 19 21  0  0  1  0  0  0  0  0999 V2000
    2.2799    0.2636    0.7517 C   0  0  0  0  0  0  0  0  0  0  0  0
    1.4260    1.2784   -0.0261 C   0  0  2  0  0  0  0  0  0  0  0  0
    0.2085    0.6690    0.5983 O   0  0  0  0  0  0  0  0  0  0  0  0
    1.0474   -0.4631    0.1330 C   0  0  2  0  0  0  0  0  0  0  0  0
    0.7197   -1.9189    0.0781 C   0  0  0  0  0  0  0  0  0  0  0  0
    1.7572   -2.5031   -0.9227 C   0  0  0  0  0  0  0  0  0  0  0  0
    1.8097   -1.8134   -2.1637 O   0  0  0  0  0  0  0  0  0  0  0  0
    2.2572   -0.4550   -2.0766 C   0  0  0  0  0  0  0  0  0  0  0  0
    1.2467    0.2739   -1.2025 C   0  0  2  0  0  0  0  0  0  0  0  0
    3.2824    0.0274    0.3906 H   0  0  0  0  0  0  0  0  0  0  0  0
    2.2403    0.3719    1.8360 H   0  0  0  0  0  0  0  0  0  0  0  0
    1.4726    2.3674   -0.0339 H   0  0  0  0  0  0  0  0  0  0  0  0
    0.7962   -2.4320    1.0426 H   0  0  0  0  0  0  0  0  0  0  0  0
   -0.2935   -2.0568   -0.3142 H   0  0  0  0  0  0  0  0  0  0  0  0
    2.7527   -2.5055   -0.4491 H   0  0  0  0  0  0  0  0  0  0  0  0
    1.5017   -3.5366   -1.1695 H   0  0  0  0  0  0  0  0  0  0  0  0
    3.2819   -0.4153   -1.6798 H   0  0  0  0  0  0  0  0  0  0  0  0
    2.2787   -0.0866   -3.1053 H   0  0  0  0  0  0  0  0  0  0  0  0
    0.3011    0.4254   -1.7281 H   0  0  0  0  0  0  0  0  0  0  0  0
  1 11  1  0  0  0  0
  2 12  1  6  0  0  0
  2  3  1  0  0  0  0
  2  1  1  0  0  0  0
  4  3  1  1  0  0  0
  4  1  1  0  0  0  0
  5  4  1  0  0  0  0
  5 13  1  0  0  0  0
  6 15  1  0  0  0  0
  6  5  1  0  0  0  0
  7  8  1  0  0  0  0
  7  6  1  0  0  0  0
  8 17  1  0  0  0  0
  8  9  1  0  0  0  0
  9 19  1  6  0  0  0
  9  2  1  0  0  0  0
  9  4  1  0  0  0  0
 10  1  1  0  0  0  0
 14  5  1  0  0  0  0
 16  6  1  0  0  0  0
 18  8  1  0  0  0  0
M TOR 0 0 1 2 3
M TOR 1 0 1 8 3
M TOR 2 0 1 8 7
M TOR 3 0 1 8 18
M TOR 4 0 3 4 5
M TOR 5 0 3 4 12
M TOR 6 0 3 4 13
M TOR 7 0 3 8 7
M TOR 8 0 3 8 18
M TOR 9 1 0 3 4
M TOR 10 1 2 3 4
M TOR 11 1 2 3 8
M TOR 12 1 8 3 4
M TOR 13 1 8 7 6
M TOR 14 1 8 7 16
M TOR 15 1 8 7 17
M TOR 16 2 1 0 9
M TOR 17 2 1 0 10
M TOR 18 2 1 8 7
M TOR 19 2 1 8 18
M TOR 20 2 3 0 9
M TOR 21 2 3 0 10
M TOR 22 2 3 4 5
M TOR 23 2 3 4 12
M TOR 24 2 3 4 13
M TOR 25 2 3 8 7
M TOR 26 2 3 8 18
M TOR 27 3 0 1 11
M TOR 28 3 2 1 11
M TOR 29 3 4 5 6
M TOR 30 3 4 5 14
M TOR 31 3 4 5 15
M TOR 32 3 8 1 11
M TOR 33 3 8 7 6
M TOR 34 3 8 7 16
M TOR 35 3 8 7 17
M TOR 36 4 3 0 9
M TOR 37 4 3 0 10
M TOR 38 4 3 8 7
M TOR 39 4 3 8 18
M TOR 40 4 5 6 7
M TOR 41 5 4 3 8
M TOR 42 5 6 7 8
M TOR 43 5 6 7 16
M TOR 44 5 6 7 17
M TOR 45 6 5 4 12
M TOR 46 6 5 4 13
M TOR 47 6 7 8 18
M TOR 48 7 6 5 14
M TOR 49 7 6 5 15
M TOR 50 7 8 1 11
M TOR 51 8 1 0 9
M TOR 52 8 1 0 10
M TOR 53 8 3 0 9
M TOR 54 8 3 0 10
M TOR 55 8 3 4 12
M TOR 56 8 3 4 13
M  END
$$$$
