
     RDKit          3D

 19 20  0  0  0  0  0  0  0  0999 V2000
    1.1800    0.0258    0.2448 O   0  0  0  0  0  0  0  0  0  0  0  0
   -0.0082   -0.0407    0.1279 C   0  0  0  0  0  0  0  0  0  0  0  0
   -0.8128    1.0667    0.1512 O   0  0  0  0  0  0  0  0  0  0  0  0
   -2.2002    0.6539    0.0266 C   0  0  0  0  0  0  0  0  0  0  0  0
   -2.1005   -0.6556   -0.7673 C   0  0  0  0  0  0  0  0  0  0  0  0
   -0.9038   -1.2720   -0.0327 C   0  0  0  0  0  0  0  0  0  0  0  0
   -1.3564   -1.7482    1.3700 C   0  0  0  0  0  0  0  0  0  0  0  0
   -1.8942   -0.5766    2.2208 C   0  0  0  0  0  0  0  0  0  0  0  0
   -2.7872    0.3964    1.4209 C   0  0  0  0  0  0  0  0  0  0  0  0
   -2.7215    1.4581   -0.4956 H   0  0  0  0  0  0  0  0  0  0  0  0
   -3.0105   -1.2580   -0.7119 H   0  0  0  0  0  0  0  0  0  0  0  0
   -1.8722   -0.4574   -1.8187 H   0  0  0  0  0  0  0  0  0  0  0  0
   -0.3792   -2.0606   -0.5724 H   0  0  0  0  0  0  0  0  0  0  0  0
   -2.1313   -2.5116    1.2307 H   0  0  0  0  0  0  0  0  0  0  0  0
   -0.5224   -2.2283    1.8909 H   0  0  0  0  0  0  0  0  0  0  0  0
   -2.4375   -0.9597    3.0898 H   0  0  0  0  0  0  0  0  0  0  0  0
   -1.0424   -0.0137    2.6173 H   0  0  0  0  0  0  0  0  0  0  0  0
   -3.7976   -0.0108    1.2915 H   0  0  0  0  0  0  0  0  0  0  0  0
   -2.8905    1.3396    1.9663 H   0  0  0  0  0  0  0  0  0  0  0  0
  1  2  2  0
  2  3  1  0
  3  4  1  0
  4  5  1  0
  5  6  1  0
  6  7  1  0
  7  8  1  0
  8  9  1  0
  6  2  1  0
  9  4  1  0
  4 10  1  0
  5 11  1  0
  5 12  1  0
  6 13  1  0
  7 14  1  0
  7 15  1  0
  8 16  1  0
  8 17  1  0
  9 18  1  0
  9 19  1  0
M  END
$$$$
