
     RDKit          3D

 19 19  0  0  0  0  0  0  0  0999 V2000
    2.7317   -0.7644    1.0743 C   0  0  0  0  0  0  0  0  0  0  0  0
    1.8519   -0.1519   -0.0010 C   0  0  0  0  0  0  0  0  0  0  0  0
    2.3579    1.1486   -0.2930 O   0  0  0  0  0  0  0  0  0  0  0  0
    1.6033    1.8728   -1.2392 C   0  0  0  0  0  0  0  0  0  0  0  0
    1.9432    3.3363   -1.2003 C   0  0  0  0  0  0  0  0  0  0  0  0
    2.2901    3.8192   -2.3943 C   0  0  0  0  0  0  0  0  0  0  0  0
    2.2733    2.7759   -3.4795 C   0  0  0  0  0  0  0  0  0  0  0  0
    1.9455    1.4899   -2.7076 C   0  0  0  0  0  0  0  0  0  0  0  0
    1.9853    0.3695   -3.1432 O   0  0  0  0  0  0  0  0  0  0  0  0
    2.7332   -0.1423    1.9741 H   0  0  0  0  0  0  0  0  0  0  0  0
    2.3661   -1.7609    1.3398 H   0  0  0  0  0  0  0  0  0  0  0  0
    3.7622   -0.8573    0.7200 H   0  0  0  0  0  0  0  0  0  0  0  0
    1.8487   -0.7683   -0.9073 H   0  0  0  0  0  0  0  0  0  0  0  0
    0.8091   -0.0681    0.3498 H   0  0  0  0  0  0  0  0  0  0  0  0
    0.5239    1.7014   -1.0710 H   0  0  0  0  0  0  0  0  0  0  0  0
    1.8962    3.9018   -0.2777 H   0  0  0  0  0  0  0  0  0  0  0  0
    2.5583    4.8517   -2.5878 H   0  0  0  0  0  0  0  0  0  0  0  0
    1.4996    2.9514   -4.2394 H   0  0  0  0  0  0  0  0  0  0  0  0
    3.2196    2.6763   -4.0247 H   0  0  0  0  0  0  0  0  0  0  0  0
  1  2  1  0
  2  3  1  0
  3  4  1  0
  4  5  1  0
  5  6  2  0
  6  7  1  0
  7  8  1  0
  8  9  2  0
  8  4  1  0
  1 10  1  0
  1 11  1  0
  1 12  1  0
  2 13  1  0
  2 14  1  0
  4 15  1  0
  5 16  1  0
  6 17  1  0
  7 18  1  0
  7 19  1  0
M  END
$$$$
