
     RDKit          3D

 19 19  0  0  0  0  0  0  0  0999 V2000
    0.5418    3.2269   -0.3360 O   0  0  0  0  0  0  0  0  0  0  0  0
    0.0099    2.6558   -1.4969 C   0  0  0  0  0  0  0  0  0  0  0  0
   -1.0814    3.4409   -2.1701 C   0  0  0  0  0  0  0  0  0  0  0  0
   -1.4121    2.1226   -1.5212 C   0  0  0  0  0  0  0  0  0  0  0  0
   -1.6830    1.0953   -2.4448 O   0  0  0  0  0  0  0  0  0  0  0  0
   -2.2416    2.1004   -0.2546 C   0  0  0  0  0  0  0  0  0  0  0  0
   -2.1073    0.7664    0.5138 C   0  0  0  0  0  0  0  0  0  0  0  0
   -2.8803    0.7406    1.7479 C   0  0  0  0  0  0  0  0  0  0  0  0
   -3.5277    0.7469    2.7605 C   0  0  0  0  0  0  0  0  0  0  0  0
    0.8810    2.5199    0.2231 H   0  0  0  0  0  0  0  0  0  0  0  0
    0.7252    2.1503   -2.1466 H   0  0  0  0  0  0  0  0  0  0  0  0
   -1.4086    4.3442   -1.6671 H   0  0  0  0  0  0  0  0  0  0  0  0
   -1.0896    3.4746   -3.2529 H   0  0  0  0  0  0  0  0  0  0  0  0
   -1.2676    0.2855   -2.1293 H   0  0  0  0  0  0  0  0  0  0  0  0
   -1.9262    2.9225    0.3927 H   0  0  0  0  0  0  0  0  0  0  0  0
   -3.2960    2.2607   -0.5037 H   0  0  0  0  0  0  0  0  0  0  0  0
   -2.4342   -0.0567   -0.1342 H   0  0  0  0  0  0  0  0  0  0  0  0
   -1.0487    0.5793    0.7435 H   0  0  0  0  0  0  0  0  0  0  0  0
   -4.0971    0.7411    3.6565 H   0  0  0  0  0  0  0  0  0  0  0  0
  1  2  1  0
  2  3  1  0
  3  4  1  0
  4  5  1  0
  4  6  1  0
  6  7  1  0
  7  8  1  0
  8  9  3  0
  4  2  1  0
  1 10  1  0
  2 11  1  0
  3 12  1  0
  3 13  1  0
  5 14  1  0
  6 15  1  0
  6 16  1  0
  7 17  1  0
  7 18  1  0
  9 19  1  0
M  END
$$$$
