gdb 1582	2.2323612	1.4782381	1.3226853	2.3089	77.27	-0.2482	0.02372	0.27192	1098.2834	0.152635	-422.514668	-422.504549	-422.503605	-422.549471	37.44
 OpenBabel02181911403D

 19 19  0  0  1  0  0  0  0  0999 V2000
    0.0470    0.2497    0.2165 C   0  0  0  0  0  0  0  0  0  0  0  0
    1.5460    0.0327    0.0813 C   0  0  0  0  0  0  0  0  0  0  0  0
    2.2332   -0.1440    1.4265 C   0  0  0  0  0  0  0  0  0  0  0  0
    1.8154   -1.1042   -0.7889 O   0  0  0  0  0  0  0  0  0  0  0  0
    2.5395   -0.3087   -1.7353 C   0  0  0  0  0  0  0  0  0  0  0  0
    2.3187    0.9898   -0.9286 C   0  0  2  0  0  0  0  0  0  0  0  0
    3.5594    1.4971   -0.4712 O   0  0  0  0  0  0  0  0  0  0  0  0
    1.5331    2.0383   -1.5623 C   0  0  0  0  0  0  0  0  0  0  0  0
    0.9101    2.9377   -2.0619 C   0  0  0  0  0  0  0  0  0  0  0  0
   -0.3999   -0.6077    0.7295 H   0  0  0  0  0  0  0  0  0  0  0  0
   -0.1680    1.1516    0.7986 H   0  0  0  0  0  0  0  0  0  0  0  0
   -0.4265    0.3504   -0.7623 H   0  0  0  0  0  0  0  0  0  0  0  0
    1.8332   -1.0372    1.9166 H   0  0  0  0  0  0  0  0  0  0  0  0
    3.3107   -0.2595    1.3053 H   0  0  0  0  0  0  0  0  0  0  0  0
    2.0473    0.7155    2.0796 H   0  0  0  0  0  0  0  0  0  0  0  0
    3.6008   -0.5766   -1.7938 H   0  0  0  0  0  0  0  0  0  0  0  0
    2.0924   -0.3307   -2.7346 H   0  0  0  0  0  0  0  0  0  0  0  0
    3.4041    2.3657   -0.0845 H   0  0  0  0  0  0  0  0  0  0  0  0
    0.3559    3.7235   -2.5136 H   0  0  0  0  0  0  0  0  0  0  0  0
  1 10  1  0  0  0  0
  1 11  1  0  0  0  0
  2  1  1  0  0  0  0
  2  3  1  0  0  0  0
  3 13  1  0  0  0  0
  3 15  1  0  0  0  0
  4  2  1  0  0  0  0
  5  6  1  0  0  0  0
  5  4  1  0  0  0  0
  6  8  1  6  0  0  0
  6  7  1  0  0  0  0
  6  2  1  0  0  0  0
  7 18  1  0  0  0  0
  9  8  3  0  0  0  0
 12  1  1  0  0  0  0
 14  3  1  0  0  0  0
 16  5  1  0  0  0  0
 17  5  1  0  0  0  0
 19  9  1  0  0  0  0
M TOR 0 0 1 2 12
M TOR 1 0 1 2 13
M TOR 2 0 1 2 14
M TOR 3 0 1 3 4
M TOR 4 0 1 5 4
M TOR 5 0 1 5 6
M TOR 6 0 1 5 7
M TOR 7 1 3 4 5
M TOR 8 1 3 4 15
M TOR 9 1 3 4 16
M TOR 10 1 5 4 15
M TOR 11 1 5 4 16
M TOR 12 1 5 6 17
M TOR 13 1 5 7 8
M TOR 14 2 1 0 9
M TOR 15 2 1 0 10
M TOR 16 2 1 0 11
M TOR 17 2 1 3 4
M TOR 18 2 1 5 4
M TOR 19 2 1 5 6
M TOR 20 2 1 5 7
M TOR 21 3 1 0 9
M TOR 22 3 1 0 10
M TOR 23 3 1 0 11
M TOR 24 3 1 2 12
M TOR 25 3 1 2 13
M TOR 26 3 1 2 14
M TOR 27 3 1 5 6
M TOR 28 3 1 5 7
M TOR 29 3 4 5 6
M TOR 30 3 4 5 7
M TOR 31 4 5 6 17
M TOR 32 4 5 7 8
M TOR 33 5 1 0 9
M TOR 34 5 1 0 10
M TOR 35 5 1 0 11
M TOR 36 5 1 2 12
M TOR 37 5 1 2 13
M TOR 38 5 1 2 14
M TOR 39 5 7 8 18
M TOR 40 6 5 4 15
M TOR 41 6 5 4 16
M TOR 42 6 5 7 8
M TOR 43 7 5 4 15
M TOR 44 7 5 4 16
M TOR 45 7 5 6 17
M  END
$$$$
