gdb 5609	2.5443	1.3115428	1.0047463	3.4586	78.34	-0.23027	-0.02419	0.20608	1243.1752	0.15493	-422.573656	-422.564186	-422.563242	-422.608284	33.875
 OpenBabel02181911423D

 19 19  0  0  1  0  0  0  0  0999 V2000
    1.2926   -0.1723   -0.3425 C   0  0  0  0  0  0  0  0  0  0  0  0
   -0.0765   -0.0795    0.0107 O   0  0  0  0  0  0  0  0  0  0  0  0
   -0.3473    0.6301    1.1970 C   0  0  2  0  0  0  0  0  0  0  0  0
    0.0704    2.0789    1.2496 C   0  0  0  0  0  0  0  0  0  0  0  0
    0.6595    2.4211    2.4014 C   0  0  0  0  0  0  0  0  0  0  0  0
    1.1434    3.7797    2.7950 C   0  0  0  0  0  0  0  0  0  0  0  0
    0.7824    1.2403    3.3381 C   0  0  0  0  0  0  0  0  0  0  0  0
    0.3309    0.0565    2.4748 C   0  0  0  0  0  0  0  0  0  0  0  0
    0.5131   -1.1080    2.7042 O   0  0  0  0  0  0  0  0  0  0  0  0
    1.8655   -0.7538    0.3911 H   0  0  0  0  0  0  0  0  0  0  0  0
    1.3282   -0.6875   -1.3048 H   0  0  0  0  0  0  0  0  0  0  0  0
    1.7572    0.8175   -0.4521 H   0  0  0  0  0  0  0  0  0  0  0  0
   -1.4355    0.5301    1.3252 H   0  0  0  0  0  0  0  0  0  0  0  0
   -0.1362    2.7632    0.4336 H   0  0  0  0  0  0  0  0  0  0  0  0
    0.6214    4.1429    3.6894 H   0  0  0  0  0  0  0  0  0  0  0  0
    2.2112    3.7574    3.0474 H   0  0  0  0  0  0  0  0  0  0  0  0
    0.9944    4.5078    1.9932 H   0  0  0  0  0  0  0  0  0  0  0  0
    1.7939    1.0816    3.7319 H   0  0  0  0  0  0  0  0  0  0  0  0
    0.1232    1.3275    4.2137 H   0  0  0  0  0  0  0  0  0  0  0  0
  1  2  1  0  0  0  0
  1 10  1  0  0  0  0
  2  3  1  0  0  0  0
  3  4  1  0  0  0  0
  3 13  1  1  0  0  0
  3  8  1  0  0  0  0
  4  5  2  0  0  0  0
  5  6  1  0  0  0  0
  5  7  1  0  0  0  0
  6 16  1  0  0  0  0
  6 15  1  0  0  0  0
  7 18  1  0  0  0  0
  7 19  1  0  0  0  0
  8  9  2  0  0  0  0
  8  7  1  0  0  0  0
 11  1  1  0  0  0  0
 12  1  1  0  0  0  0
 14  4  1  0  0  0  0
 17  6  1  0  0  0  0
M TOR 0 0 1 2 3
M TOR 1 0 1 2 7
M TOR 2 0 1 2 12
M TOR 3 1 2 3 4
M TOR 4 1 2 3 13
M TOR 5 1 2 7 6
M TOR 6 1 2 7 8
M TOR 7 2 1 0 9
M TOR 8 2 1 0 10
M TOR 9 2 1 0 11
M TOR 10 2 3 4 5
M TOR 11 2 3 4 6
M TOR 12 2 7 6 4
M TOR 13 2 7 6 17
M TOR 14 2 7 6 18
M TOR 15 3 2 7 6
M TOR 16 3 2 7 8
M TOR 17 3 4 5 14
M TOR 18 3 4 5 15
M TOR 19 3 4 5 16
M TOR 20 3 4 6 7
M TOR 21 3 4 6 17
M TOR 22 3 4 6 18
M TOR 23 4 3 2 7
M TOR 24 4 3 2 12
M TOR 25 4 6 7 8
M TOR 26 5 4 3 13
M TOR 27 5 4 6 7
M TOR 28 5 4 6 17
M TOR 29 5 4 6 18
M TOR 30 6 4 3 13
M TOR 31 6 4 5 14
M TOR 32 6 4 5 15
M TOR 33 6 4 5 16
M TOR 34 6 7 2 12
M TOR 35 7 2 3 13
M TOR 36 8 7 2 12
M TOR 37 8 7 6 17
M TOR 38 8 7 6 18
M  END
$$$$
