gdb 3724	3.8868457	1.2464148	1.101901	2.9026	75.47	-0.22953	0.0588	0.28833000000000003	1140.3904	0.156652	-422.499265	-422.491202	-422.490258	-422.531869	31.36
 OpenBabel02181911413D

 19 21  0  0  1  0  0  0  0  0999 V2000
    0.4665    0.3347    0.9950 O   0  0  0  0  0  0  0  0  0  0  0  0
   -0.8691    0.6632    0.7857 C   0  0  2  0  0  0  0  0  0  0  0  0
   -1.8174    0.7591    1.9786 C   0  0  0  0  0  0  0  0  0  0  0  0
   -1.8739   -0.4120    1.0470 C   0  0  2  0  0  0  0  0  0  0  0  0
   -1.3350   -1.6887    1.4390 O   0  0  0  0  0  0  0  0  0  0  0  0
   -2.2543   -2.3701    0.5412 C   0  0  1  0  0  0  0  0  0  0  0  0
   -3.5256   -2.8580    1.2649 C   0  0  0  0  0  0  0  0  0  0  0  0
   -4.2185   -1.4930    0.9517 C   0  0  0  0  0  0  0  0  0  0  0  0
   -2.9522   -1.0259    0.1762 C   0  0  1  0  0  0  0  0  0  0  0  0
    0.4868   -0.6256    1.1223 H   0  0  0  0  0  0  0  0  0  0  0  0
   -1.0201    1.3490   -0.0449 H   0  0  0  0  0  0  0  0  0  0  0  0
   -1.3844    0.5848    2.9584 H   0  0  0  0  0  0  0  0  0  0  0  0
   -2.6219    1.4878    1.9463 H   0  0  0  0  0  0  0  0  0  0  0  0
   -1.7312   -3.0336   -0.1506 H   0  0  0  0  0  0  0  0  0  0  0  0
   -4.0025   -3.7087    0.7707 H   0  0  0  0  0  0  0  0  0  0  0  0
   -3.3677   -3.1010    2.3175 H   0  0  0  0  0  0  0  0  0  0  0  0
   -5.1038   -1.5894    0.3199 H   0  0  0  0  0  0  0  0  0  0  0  0
   -4.4753   -0.8758    1.8159 H   0  0  0  0  0  0  0  0  0  0  0  0
   -3.0720   -0.6360   -0.8339 H   0  0  0  0  0  0  0  0  0  0  0  0
  1 10  1  0  0  0  0
  2 11  1  6  0  0  0
  2  1  1  0  0  0  0
  2  4  1  0  0  0  0
  2  3  1  0  0  0  0
  3 12  1  0  0  0  0
  4  5  1  1  0  0  0
  4  3  1  0  0  0  0
  6 14  1  6  0  0  0
  6  7  1  0  0  0  0
  6  5  1  0  0  0  0
  7 16  1  0  0  0  0
  8  7  1  0  0  0  0
  8 18  1  0  0  0  0
  9 19  1  6  0  0  0
  9  6  1  0  0  0  0
  9  8  1  0  0  0  0
  9  4  1  0  0  0  0
 13  3  1  0  0  0  0
 15  7  1  0  0  0  0
 17  8  1  0  0  0  0
M TOR 0 0 1 2 3
M TOR 1 0 1 2 11
M TOR 2 0 1 2 12
M TOR 3 0 1 3 4
M TOR 4 0 1 3 8
M TOR 5 1 2 3 4
M TOR 6 1 2 3 8
M TOR 7 1 3 2 11
M TOR 8 1 3 2 12
M TOR 9 1 3 4 5
M TOR 10 1 3 8 5
M TOR 11 1 3 8 7
M TOR 12 1 3 8 18
M TOR 13 2 1 0 9
M TOR 14 2 3 1 10
M TOR 15 2 3 4 5
M TOR 16 2 3 8 5
M TOR 17 2 3 8 7
M TOR 18 2 3 8 18
M TOR 19 3 1 0 9
M TOR 20 3 4 5 6
M TOR 21 3 4 5 8
M TOR 22 3 4 5 13
M TOR 23 3 8 5 6
M TOR 24 3 8 5 13
M TOR 25 3 8 7 6
M TOR 26 3 8 7 16
M TOR 27 3 8 7 17
M TOR 28 4 3 1 10
M TOR 29 4 3 2 11
M TOR 30 4 3 2 12
M TOR 31 4 3 8 7
M TOR 32 4 3 8 18
M TOR 33 4 5 6 7
M TOR 34 4 5 6 14
M TOR 35 4 5 6 15
M TOR 36 4 5 8 7
M TOR 37 4 5 8 18
M TOR 38 5 6 7 8
M TOR 39 5 6 7 16
M TOR 40 5 6 7 17
M TOR 41 5 8 7 16
M TOR 42 5 8 7 17
M TOR 43 6 5 8 18
M TOR 44 6 7 8 18
M TOR 45 7 6 5 13
M TOR 46 7 8 5 13
M TOR 47 8 3 1 10
M TOR 48 8 3 2 11
M TOR 49 8 3 2 12
M TOR 50 8 5 6 14
M TOR 51 8 5 6 15
M TOR 52 8 7 6 14
M TOR 53 8 7 6 15
M  END
$$$$
