gdb 4400	3.4121876	1.1307264	1.035411	1.8758	77.58	-0.26242	0.03474	0.29716	1230.4003	0.15628	-422.521157	-422.512388	-422.511444	-422.554365	33.166
 OpenBabel02181911413D

 19 19  0  0  1  0  0  0  0  0999 V2000
    0.3478    0.6681    1.1866 C   0  0  0  0  0  0  0  0  0  0  0  0
    1.4080    0.1798    0.1928 C   0  0  1  0  0  0  0  0  0  0  0  0
    2.3584    1.3090   -0.2343 C   0  0  0  0  0  0  0  0  0  0  0  0
    3.1977    1.7023    0.8489 O   0  0  0  0  0  0  0  0  0  0  0  0
    3.9478    0.6093    1.3261 C   0  0  2  0  0  0  0  0  0  0  0  0
    3.1255   -0.4242    1.8167 O   0  0  0  0  0  0  0  0  0  0  0  0
    2.2822   -0.9353    0.7872 C   0  0  0  0  0  0  0  0  0  0  0  0
    4.8218    1.0694    2.4023 C   0  0  0  0  0  0  0  0  0  0  0  0
    5.5712    1.4362    3.2640 C   0  0  0  0  0  0  0  0  0  0  0  0
    0.8211    1.0632    2.0884 H   0  0  0  0  0  0  0  0  0  0  0  0
   -0.2655    1.4615    0.7472 H   0  0  0  0  0  0  0  0  0  0  0  0
   -0.3195   -0.1484    1.4808 H   0  0  0  0  0  0  0  0  0  0  0  0
    0.9170   -0.2132   -0.7072 H   0  0  0  0  0  0  0  0  0  0  0  0
    2.9808    0.9800   -1.0836 H   0  0  0  0  0  0  0  0  0  0  0  0
    1.8143    2.2074   -0.5373 H   0  0  0  0  0  0  0  0  0  0  0  0
    4.5576    0.2083    0.4904 H   0  0  0  0  0  0  0  0  0  0  0  0
    2.9002   -1.3945   -0.0029 H   0  0  0  0  0  0  0  0  0  0  0  0
    1.6809   -1.7217    1.2509 H   0  0  0  0  0  0  0  0  0  0  0  0
    6.2257    1.7641    4.0335 H   0  0  0  0  0  0  0  0  0  0  0  0
  1 12  1  0  0  0  0
  1 10  1  0  0  0  0
  2 13  1  6  0  0  0
  2  7  1  0  0  0  0
  2  1  1  0  0  0  0
  3  2  1  0  0  0  0
  3  4  1  0  0  0  0
  4  5  1  0  0  0  0
  5 16  1  6  0  0  0
  5  6  1  0  0  0  0
  5  8  1  0  0  0  0
  7 18  1  0  0  0  0
  7  6  1  0  0  0  0
  8  9  3  0  0  0  0
  9 19  1  0  0  0  0
 11  1  1  0  0  0  0
 14  3  1  0  0  0  0
 15  3  1  0  0  0  0
 17  7  1  0  0  0  0
M TOR 0 0 1 2 3
M TOR 1 0 1 2 13
M TOR 2 0 1 2 14
M TOR 3 0 1 6 5
M TOR 4 0 1 6 16
M TOR 5 0 1 6 17
M TOR 6 1 2 3 4
M TOR 7 1 6 5 4
M TOR 8 2 1 0 9
M TOR 9 2 1 0 10
M TOR 10 2 1 0 11
M TOR 11 2 1 6 5
M TOR 12 2 1 6 16
M TOR 13 2 1 6 17
M TOR 14 2 3 4 5
M TOR 15 2 3 4 7
M TOR 16 2 3 4 15
M TOR 17 3 2 1 6
M TOR 18 3 2 1 12
M TOR 19 3 4 5 6
M TOR 20 3 4 7 8
M TOR 21 4 3 2 13
M TOR 22 4 3 2 14
M TOR 23 4 5 6 16
M TOR 24 4 5 6 17
M TOR 25 4 7 8 18
M TOR 26 5 4 7 8
M TOR 27 5 6 1 12
M TOR 28 6 1 0 9
M TOR 29 6 1 0 10
M TOR 30 6 1 0 11
M TOR 31 6 1 2 13
M TOR 32 6 1 2 14
M TOR 33 6 5 4 7
M TOR 34 6 5 4 15
M TOR 35 8 7 4 15
M  END
$$$$
