
     RDKit          3D

 19 18  0  0  0  0  0  0  0  0999 V2000
    2.9494    0.4342    2.4909 C   0  0  0  0  0  0  0  0  0  0  0  0
    3.2079   -0.4018    1.2455 C   0  0  0  0  0  0  0  0  0  0  0  0
    2.3901    0.0708    0.0225 C   0  0  0  0  0  0  0  0  0  0  0  0
    0.9555   -0.1074    0.1983 C   0  0  0  0  0  0  0  0  0  0  0  0
   -0.2228   -0.2756    0.3658 C   0  0  0  0  0  0  0  0  0  0  0  0
    4.6020   -0.2586    0.9282 O   0  0  0  0  0  0  0  0  0  0  0  0
    5.3739   -1.2649    0.4394 C   0  0  0  0  0  0  0  0  0  0  0  0
    4.7706   -2.6531    0.3228 C   0  0  0  0  0  0  0  0  0  0  0  0
    6.5096   -1.0187    0.1387 O   0  0  0  0  0  0  0  0  0  0  0  0
    3.5351    0.0556    3.3323 H   0  0  0  0  0  0  0  0  0  0  0  0
    3.2356    1.4752    2.3139 H   0  0  0  0  0  0  0  0  0  0  0  0
    1.8890    0.4002    2.7527 H   0  0  0  0  0  0  0  0  0  0  0  0
    2.9671   -1.4484    1.4492 H   0  0  0  0  0  0  0  0  0  0  0  0
    2.6270    1.1253   -0.1644 H   0  0  0  0  0  0  0  0  0  0  0  0
    2.7257   -0.4822   -0.8632 H   0  0  0  0  0  0  0  0  0  0  0  0
   -1.2670   -0.4137    0.5014 H   0  0  0  0  0  0  0  0  0  0  0  0
    4.4981   -3.0495    1.3061 H   0  0  0  0  0  0  0  0  0  0  0  0
    3.8709   -2.6636   -0.2992 H   0  0  0  0  0  0  0  0  0  0  0  0
    5.5243   -3.3003   -0.1233 H   0  0  0  0  0  0  0  0  0  0  0  0
  1  2  1  0
  2  3  1  0
  3  4  1  0
  4  5  3  0
  2  6  1  0
  6  7  1  0
  7  8  1  0
  7  9  2  0
  1 10  1  0
  1 11  1  0
  1 12  1  0
  2 13  1  0
  3 14  1  0
  3 15  1  0
  5 16  1  0
  8 17  1  0
  8 18  1  0
  8 19  1  0
M  END
$$$$
