gdb 3607	2.3183596	1.3265431	0.9069693	1.6452	80.92	-0.24637	-0.06699	0.17938	1303.9024	0.154987	-422.577005	-422.567599	-422.566655	-422.611578	33.657
 OpenBabel02181911413D

 19 19  0  0  1  0  0  0  0  0999 V2000
   -1.6326    3.4957   -1.1639 C   0  0  0  0  0  0  0  0  0  0  0  0
   -1.1929    2.6279    0.0188 C   0  0  1  0  0  0  0  0  0  0  0  0
   -1.9367    1.4046    0.0414 O   0  0  0  0  0  0  0  0  0  0  0  0
   -1.0682    0.2659    0.0250 C   0  0  2  0  0  0  0  0  0  0  0  0
   -1.3148   -0.6003    1.2618 C   0  0  0  0  0  0  0  0  0  0  0  0
    0.3225    0.8600   -0.0560 C   0  0  0  0  0  0  0  0  0  0  0  0
    1.5696    0.0811   -0.1496 C   0  0  0  0  0  0  0  0  0  0  0  0
    2.6781    0.5665   -0.1902 O   0  0  0  0  0  0  0  0  0  0  0  0
    0.2403    2.1932   -0.0372 C   0  0  0  0  0  0  0  0  0  0  0  0
   -1.4165    2.9937   -2.1112 H   0  0  0  0  0  0  0  0  0  0  0  0
   -2.7083    3.6806   -1.1042 H   0  0  0  0  0  0  0  0  0  0  0  0
   -1.1140    4.4598   -1.1493 H   0  0  0  0  0  0  0  0  0  0  0  0
   -1.3917    3.1841    0.9507 H   0  0  0  0  0  0  0  0  0  0  0  0
   -1.2949   -0.3310   -0.8733 H   0  0  0  0  0  0  0  0  0  0  0  0
   -0.7033   -1.5086    1.2314 H   0  0  0  0  0  0  0  0  0  0  0  0
   -1.0735   -0.0463    2.1737 H   0  0  0  0  0  0  0  0  0  0  0  0
   -2.3661   -0.8981    1.3020 H   0  0  0  0  0  0  0  0  0  0  0  0
    1.4344   -1.0225   -0.1880 H   0  0  0  0  0  0  0  0  0  0  0  0
    1.0820    2.8736   -0.0700 H   0  0  0  0  0  0  0  0  0  0  0  0
  1 12  1  0  0  0  0
  1 11  1  0  0  0  0
  1  2  1  0  0  0  0
  2  3  1  0  0  0  0
  2 13  1  1  0  0  0
  4 14  1  6  0  0  0
  4  3  1  0  0  0  0
  4  5  1  0  0  0  0
  5 17  1  0  0  0  0
  5 16  1  0  0  0  0
  6  9  2  0  0  0  0
  6  4  1  0  0  0  0
  7  6  1  0  0  0  0
  8  7  2  0  0  0  0
  9  2  1  0  0  0  0
 10  1  1  0  0  0  0
 15  5  1  0  0  0  0
 18  7  1  0  0  0  0
 19  9  1  0  0  0  0
M TOR 0 0 1 2 3
M TOR 1 0 1 8 5
M TOR 2 0 1 8 18
M TOR 3 1 2 3 4
M TOR 4 1 2 3 5
M TOR 5 1 2 3 13
M TOR 6 1 8 5 3
M TOR 7 1 8 5 6
M TOR 8 2 1 0 9
M TOR 9 2 1 0 10
M TOR 10 2 1 0 11
M TOR 11 2 1 8 5
M TOR 12 2 1 8 18
M TOR 13 2 3 4 14
M TOR 14 2 3 4 15
M TOR 15 2 3 4 16
M TOR 16 2 3 5 6
M TOR 17 2 3 5 8
M TOR 18 3 2 1 8
M TOR 19 3 2 1 12
M TOR 20 3 5 6 7
M TOR 21 3 5 6 17
M TOR 22 3 5 8 18
M TOR 23 4 3 5 6
M TOR 24 4 3 5 8
M TOR 25 5 3 4 14
M TOR 26 5 3 4 15
M TOR 27 5 3 4 16
M TOR 28 5 8 1 12
M TOR 29 6 5 3 13
M TOR 30 6 5 8 18
M TOR 31 7 6 5 8
M TOR 32 8 1 0 9
M TOR 33 8 1 0 10
M TOR 34 8 1 0 11
M TOR 35 8 5 3 13
M TOR 36 8 5 6 17
M  END
$$$$
