
     RDKit          3D

 19 19  0  0  0  0  0  0  0  0999 V2000
   -2.1802   -2.5159    1.7740 O   0  0  0  0  0  0  0  0  0  0  0  0
   -2.0556   -2.6143    0.3584 C   0  0  0  0  0  0  0  0  0  0  0  0
   -2.1910   -1.2444   -0.3222 C   0  0  0  0  0  0  0  0  0  0  0  0
   -1.0510   -0.3010    0.0893 C   0  0  0  0  0  0  0  0  0  0  0  0
    0.2915   -0.9892    0.0533 C   0  0  0  0  0  0  0  0  0  0  0  0
    1.5078   -0.1566    0.0887 C   0  0  0  0  0  0  0  0  0  0  0  0
    1.5078    1.0526    0.1419 O   0  0  0  0  0  0  0  0  0  0  0  0
    0.4267   -2.3240   -0.0080 C   0  0  0  0  0  0  0  0  0  0  0  0
   -0.7282   -3.2830   -0.0407 C   0  0  0  0  0  0  0  0  0  0  0  0
   -1.4195   -2.0295    2.1097 H   0  0  0  0  0  0  0  0  0  0  0  0
   -2.8861   -3.2595    0.0557 H   0  0  0  0  0  0  0  0  0  0  0  0
   -2.1751   -1.3902   -1.4096 H   0  0  0  0  0  0  0  0  0  0  0  0
   -3.1589   -0.8042   -0.0662 H   0  0  0  0  0  0  0  0  0  0  0  0
   -1.0167    0.5846   -0.5525 H   0  0  0  0  0  0  0  0  0  0  0  0
   -1.2275    0.0952    1.0989 H   0  0  0  0  0  0  0  0  0  0  0  0
    2.4609   -0.7327    0.0613 H   0  0  0  0  0  0  0  0  0  0  0  0
    1.4302   -2.7470   -0.0424 H   0  0  0  0  0  0  0  0  0  0  0  0
   -0.8069   -3.7131   -1.0500 H   0  0  0  0  0  0  0  0  0  0  0  0
   -0.5389   -4.1299    0.6297 H   0  0  0  0  0  0  0  0  0  0  0  0
  1  2  1  0
  2  3  1  0
  3  4  1  0
  4  5  1  0
  5  6  1  0
  6  7  2  0
  5  8  2  0
  8  9  1  0
  9  2  1  0
  1 10  1  0
  2 11  1  0
  3 12  1  0
  3 13  1  0
  4 14  1  0
  4 15  1  0
  6 16  1  0
  8 17  1  0
  9 18  1  0
  9 19  1  0
M  END
$$$$
