
     RDKit          3D

 19 19  0  0  0  0  0  0  0  0999 V2000
    1.1679    0.9170   -3.0454 C   0  0  0  0  0  0  0  0  0  0  0  0
    0.1765    0.2373   -2.1100 C   0  0  0  0  0  0  0  0  0  0  0  0
    0.7311    0.3018   -0.8020 O   0  0  0  0  0  0  0  0  0  0  0  0
    0.0925   -0.5364    0.1465 C   0  0  0  0  0  0  0  0  0  0  0  0
    0.8473   -0.5284    1.3928 C   0  0  0  0  0  0  0  0  0  0  0  0
    1.4477   -0.5369    2.4325 C   0  0  0  0  0  0  0  0  0  0  0  0
   -1.1824    0.9159   -2.1631 C   0  0  0  0  0  0  0  0  0  0  0  0
   -2.4464    0.1662   -2.1452 C   0  0  0  0  0  0  0  0  0  0  0  0
   -1.9284    0.7030   -3.3620 O   0  0  0  0  0  0  0  0  0  0  0  0
    1.3263    1.9560   -2.7402 H   0  0  0  0  0  0  0  0  0  0  0  0
    2.1303    0.4005   -3.0169 H   0  0  0  0  0  0  0  0  0  0  0  0
    0.7838    0.9051   -4.0685 H   0  0  0  0  0  0  0  0  0  0  0  0
    0.0445   -0.8156   -2.4120 H   0  0  0  0  0  0  0  0  0  0  0  0
   -0.9388   -0.2048    0.3417 H   0  0  0  0  0  0  0  0  0  0  0  0
    0.0260   -1.5681   -0.2392 H   0  0  0  0  0  0  0  0  0  0  0  0
    1.9845   -0.5417    3.3488 H   0  0  0  0  0  0  0  0  0  0  0  0
   -1.1855    1.9460   -1.8011 H   0  0  0  0  0  0  0  0  0  0  0  0
   -2.4254   -0.9208   -2.0711 H   0  0  0  0  0  0  0  0  0  0  0  0
   -3.3531    0.6403   -1.7722 H   0  0  0  0  0  0  0  0  0  0  0  0
  1  2  1  0
  2  3  1  0
  3  4  1  0
  4  5  1  0
  5  6  3  0
  2  7  1  0
  7  8  1  0
  8  9  1  0
  9  7  1  0
  1 10  1  0
  1 11  1  0
  1 12  1  0
  2 13  1  0
  4 14  1  0
  4 15  1  0
  6 16  1  0
  7 17  1  0
  8 18  1  0
  8 19  1  0
M  END
$$$$
