gdb 1758	2.1958858	1.960875	1.6808889	0.9084	73.18	-0.23578	0.07763	0.31340999999999997	937.2734	0.159409	-422.560958	-422.553604	-422.552659	-422.592409	29.611
 OpenBabel02181911403D

 19 21  0  0  1  0  0  0  0  0999 V2000
    0.5603    0.1684    0.0524 O   0  0  0  0  0  0  0  0  0  0  0  0
   -0.6014    0.4258    0.7639 C   0  0  2  0  0  0  0  0  0  0  0  0
   -1.9622    0.1014    0.2295 C   0  0  2  0  0  0  0  0  0  0  0  0
   -2.8856    1.3130    0.3588 C   0  0  0  0  0  0  0  0  0  0  0  0
   -1.9615    2.4464    0.8755 C   0  0  0  0  0  0  0  0  0  0  0  0
   -0.8058    1.7191    1.5848 C   0  0  1  0  0  0  0  0  0  0  0  0
   -1.1825    1.3082    2.9032 O   0  0  0  0  0  0  0  0  0  0  0  0
   -1.7856    0.0121    2.8544 C   0  0  0  0  0  0  0  0  0  0  0  0
   -1.4363   -0.5795    1.5028 C   0  0  2  0  0  0  0  0  0  0  0  0
    1.2606   -0.0380    0.6818 H   0  0  0  0  0  0  0  0  0  0  0  0
   -2.0512   -0.5500   -0.6328 H   0  0  0  0  0  0  0  0  0  0  0  0
   -3.3360    1.5652   -0.6050 H   0  0  0  0  0  0  0  0  0  0  0  0
   -3.7134    1.1209    1.0507 H   0  0  0  0  0  0  0  0  0  0  0  0
   -1.5538    3.0035    0.0241 H   0  0  0  0  0  0  0  0  0  0  0  0
   -2.4598    3.1576    1.5390 H   0  0  0  0  0  0  0  0  0  0  0  0
    0.1001    2.3247    1.6705 H   0  0  0  0  0  0  0  0  0  0  0  0
   -1.3746   -0.5926    3.6720 H   0  0  0  0  0  0  0  0  0  0  0  0
   -2.8710    0.0955    3.0159 H   0  0  0  0  0  0  0  0  0  0  0  0
   -1.2152   -1.6381    1.4269 H   0  0  0  0  0  0  0  0  0  0  0  0
  1 10  1  0  0  0  0
  2  1  1  6  0  0  0
  2  9  1  0  0  0  0
  2  6  1  0  0  0  0
  3 11  1  6  0  0  0
  3  4  1  0  0  0  0
  3  2  1  0  0  0  0
  3  9  1  0  0  0  0
  4  5  1  0  0  0  0
  4 13  1  0  0  0  0
  5 15  1  0  0  0  0
  5  6  1  0  0  0  0
  6 16  1  1  0  0  0
  6  7  1  0  0  0  0
  8  7  1  0  0  0  0
  8 18  1  0  0  0  0
  8 17  1  0  0  0  0
  9 19  1  6  0  0  0
  9  8  1  0  0  0  0
 12  4  1  0  0  0  0
 14  5  1  0  0  0  0
M TOR 0 0 1 2 3
M TOR 1 0 1 2 8
M TOR 2 0 1 2 10
M TOR 3 0 1 5 4
M TOR 4 0 1 5 6
M TOR 5 0 1 5 15
M TOR 6 0 1 8 7
M TOR 7 0 1 8 18
M TOR 8 1 2 3 4
M TOR 9 1 2 3 11
M TOR 10 1 2 3 12
M TOR 11 1 2 8 7
M TOR 12 1 2 8 18
M TOR 13 1 5 4 3
M TOR 14 1 5 4 13
M TOR 15 1 5 4 14
M TOR 16 1 5 6 7
M TOR 17 1 8 2 3
M TOR 18 1 8 2 10
M TOR 19 1 8 7 6
M TOR 20 1 8 7 16
M TOR 21 1 8 7 17
M TOR 22 2 1 0 9
M TOR 23 2 1 5 4
M TOR 24 2 1 5 6
M TOR 25 2 1 5 15
M TOR 26 2 3 4 5
M TOR 27 2 3 4 13
M TOR 28 2 3 4 14
M TOR 29 2 8 1 5
M TOR 30 2 8 7 6
M TOR 31 2 8 7 16
M TOR 32 2 8 7 17
M TOR 33 3 2 1 5
M TOR 34 3 2 8 7
M TOR 35 3 2 8 18
M TOR 36 3 4 5 6
M TOR 37 3 4 5 15
M TOR 38 4 3 2 8
M TOR 39 4 3 2 10
M TOR 40 4 5 1 8
M TOR 41 4 5 6 7
M TOR 42 5 1 0 9
M TOR 43 5 1 2 10
M TOR 44 5 1 8 7
M TOR 45 5 1 8 18
M TOR 46 5 4 3 11
M TOR 47 5 4 3 12
M TOR 48 5 6 7 8
M TOR 49 5 6 7 16
M TOR 50 5 6 7 17
M TOR 51 6 5 1 8
M TOR 52 6 5 4 13
M TOR 53 6 5 4 14
M TOR 54 6 7 8 18
M TOR 55 7 6 5 15
M TOR 56 7 8 2 10
M TOR 57 8 1 0 9
M TOR 58 8 1 5 15
M TOR 59 8 2 3 11
M TOR 60 8 2 3 12
M  END
$$$$
