
     RDKit          3D

 19 21  0  0  0  0  0  0  0  0999 V2000
    0.8486    0.9479    0.0744 C   0  0  0  0  0  0  0  0  0  0  0  0
    0.8577   -0.5681    0.2409 C   0  0  0  0  0  0  0  0  0  0  0  0
    1.4244   -1.3688   -0.9796 C   0  0  0  0  0  0  0  0  0  0  0  0
    2.6085   -1.8942   -0.1176 C   0  0  0  0  0  0  0  0  0  0  0  0
    2.3615   -3.2108    0.6605 C   0  0  0  0  0  0  0  0  0  0  0  0
    0.9620   -3.2834    0.9772 O   0  0  0  0  0  0  0  0  0  0  0  0
    1.8028   -2.4902    1.8160 C   0  0  0  0  0  0  0  0  0  0  0  0
    2.0276   -1.1201    1.1240 C   0  0  0  0  0  0  0  0  0  0  0  0
    2.7634   -0.2785    1.9551 O   0  0  0  0  0  0  0  0  0  0  0  0
    0.6253    1.4545    1.0190 H   0  0  0  0  0  0  0  0  0  0  0  0
    1.8124    1.3260   -0.2926 H   0  0  0  0  0  0  0  0  0  0  0  0
    0.0931    1.2512   -0.6576 H   0  0  0  0  0  0  0  0  0  0  0  0
   -0.1249   -0.9140    0.5715 H   0  0  0  0  0  0  0  0  0  0  0  0
    0.7627   -2.1423   -1.3708 H   0  0  0  0  0  0  0  0  0  0  0  0
    1.7465   -0.7239   -1.8021 H   0  0  0  0  0  0  0  0  0  0  0  0
    3.6321   -1.7366   -0.4581 H   0  0  0  0  0  0  0  0  0  0  0  0
    2.8943   -4.1531    0.5978 H   0  0  0  0  0  0  0  0  0  0  0  0
    1.8065   -2.6974    2.8808 H   0  0  0  0  0  0  0  0  0  0  0  0
    3.0328    0.4959    1.4504 H   0  0  0  0  0  0  0  0  0  0  0  0
  1  2  1  0
  2  3  1  0
  3  4  1  0
  4  5  1  0
  5  6  1  0
  6  7  1  0
  7  8  1  0
  8  9  1  0
  8  2  1  0
  8  4  1  0
  7  5  1  0
  1 10  1  0
  1 11  1  0
  1 12  1  0
  2 13  1  0
  3 14  1  0
  3 15  1  0
  4 16  1  0
  5 17  1  0
  7 18  1  0
  9 19  1  0
M  END
$$$$
