
     RDKit          3D

 19 21  0  0  0  0  0  0  0  0999 V2000
    0.2963    0.6164    0.1007 C   0  0  0  0  0  0  0  0  0  0  0  0
    1.1523   -0.6237   -0.0855 C   0  0  0  0  0  0  0  0  0  0  0  0
    2.2976   -0.4918   -1.1080 C   0  0  0  0  0  0  0  0  0  0  0  0
    3.3631   -1.4709   -0.6080 C   0  0  0  0  0  0  0  0  0  0  0  0
    3.0713   -2.9606   -0.8449 C   0  0  0  0  0  0  0  0  0  0  0  0
    3.9151   -3.6956    0.0490 O   0  0  0  0  0  0  0  0  0  0  0  0
    2.6837   -3.1759    0.5598 C   0  0  0  0  0  0  0  0  0  0  0  0
    2.9524   -1.6951    0.9045 C   0  0  0  0  0  0  0  0  0  0  0  0
    1.8051   -0.9198    1.1555 O   0  0  0  0  0  0  0  0  0  0  0  0
   -0.4476    0.4570    0.8862 H   0  0  0  0  0  0  0  0  0  0  0  0
    0.9192    1.4704    0.3845 H   0  0  0  0  0  0  0  0  0  0  0  0
   -0.2308    0.8602   -0.8270 H   0  0  0  0  0  0  0  0  0  0  0  0
    0.5080   -1.4717   -0.3671 H   0  0  0  0  0  0  0  0  0  0  0  0
    1.9649   -0.6989   -2.1295 H   0  0  0  0  0  0  0  0  0  0  0  0
    2.6950    0.5285   -1.0861 H   0  0  0  0  0  0  0  0  0  0  0  0
    4.3868   -1.1652   -0.8296 H   0  0  0  0  0  0  0  0  0  0  0  0
    2.7521   -3.4623   -1.7521 H   0  0  0  0  0  0  0  0  0  0  0  0
    1.9851   -3.8701    1.0131 H   0  0  0  0  0  0  0  0  0  0  0  0
    3.6808   -1.5168    1.6980 H   0  0  0  0  0  0  0  0  0  0  0  0
  1  2  1  0
  2  3  1  0
  3  4  1  0
  4  5  1  0
  5  6  1  0
  6  7  1  0
  7  8  1  0
  8  9  1  0
  9  2  1  0
  8  4  1  0
  7  5  1  0
  1 10  1  0
  1 11  1  0
  1 12  1  0
  2 13  1  0
  3 14  1  0
  3 15  1  0
  4 16  1  0
  5 17  1  0
  7 18  1  0
  8 19  1  0
M  END
$$$$
