gdb 1066	2.8561879	1.5090162	1.2316071	2.9931	75.64	-0.2396	-0.0166	0.223	1076.0252	0.155122	-422.526328	-422.517394	-422.51645	-422.560176	33.389
 OpenBabel02181911403D

 19 20  0  0  1  0  0  0  0  0999 V2000
    2.5817   -0.0134    0.6681 C   0  0  0  0  0  0  0  0  0  0  0  0
    1.2852   -0.0218   -0.1164 C   0  0  0  0  0  0  0  0  0  0  0  0
    0.3858   -0.7915    0.1324 O   0  0  0  0  0  0  0  0  0  0  0  0
    1.1844    0.9950   -1.2609 C   0  0  1  0  0  0  0  0  0  0  0  0
    2.4021    0.8561   -1.9565 O   0  0  0  0  0  0  0  0  0  0  0  0
   -0.1656    1.1228   -2.0395 C   0  0  1  0  0  0  0  0  0  0  0  0
   -0.7615    1.8028   -0.7692 C   0  0  0  0  0  0  0  0  0  0  0  0
    0.6456    2.4430   -0.9434 C   0  0  2  0  0  0  0  0  0  0  0  0
    0.2937    2.5546   -2.4598 C   0  0  0  0  0  0  0  0  0  0  0  0
    2.4817   -0.6596    1.5409 H   0  0  0  0  0  0  0  0  0  0  0  0
    3.3954   -0.3685    0.0293 H   0  0  0  0  0  0  0  0  0  0  0  0
    2.8464    1.0041    0.9743 H   0  0  0  0  0  0  0  0  0  0  0  0
    2.4733    1.5473   -2.6211 H   0  0  0  0  0  0  0  0  0  0  0  0
   -0.6329    0.3630   -2.6647 H   0  0  0  0  0  0  0  0  0  0  0  0
   -1.5968    2.4802   -0.9575 H   0  0  0  0  0  0  0  0  0  0  0  0
   -0.9403    1.1743    0.0994 H   0  0  0  0  0  0  0  0  0  0  0  0
    1.1206    3.1985   -0.3149 H   0  0  0  0  0  0  0  0  0  0  0  0
   -0.5057    3.2576   -2.7054 H   0  0  0  0  0  0  0  0  0  0  0  0
    1.1028    2.6563   -3.1896 H   0  0  0  0  0  0  0  0  0  0  0  0
  1 12  1  0  0  0  0
  1 10  1  0  0  0  0
  2  3  2  0  0  0  0
  2  1  1  0  0  0  0
  4  5  1  6  0  0  0
  4  8  1  0  0  0  0
  4  2  1  0  0  0  0
  6 14  1  6  0  0  0
  6  4  1  0  0  0  0
  6  7  1  0  0  0  0
  7 16  1  0  0  0  0
  8  7  1  0  0  0  0
  8 17  1  1  0  0  0
  9  6  1  0  0  0  0
  9  8  1  0  0  0  0
 11  1  1  0  0  0  0
 13  5  1  0  0  0  0
 15  7  1  0  0  0  0
 18  9  1  0  0  0  0
 19  9  1  0  0  0  0
M TOR 0 0 1 3 4
M TOR 1 0 1 3 5
M TOR 2 0 1 3 7
M TOR 3 1 3 4 12
M TOR 4 1 3 5 6
M TOR 5 1 3 5 8
M TOR 6 1 3 5 13
M TOR 7 1 3 7 6
M TOR 8 1 3 7 8
M TOR 9 1 3 7 16
M TOR 10 2 1 0 9
M TOR 11 2 1 0 10
M TOR 12 2 1 0 11
M TOR 13 2 1 3 4
M TOR 14 2 1 3 5
M TOR 15 2 1 3 7
M TOR 16 3 1 0 9
M TOR 17 3 1 0 10
M TOR 18 3 1 0 11
M TOR 19 3 5 6 7
M TOR 20 3 5 6 14
M TOR 21 3 5 6 15
M TOR 22 3 5 8 7
M TOR 23 3 5 8 17
M TOR 24 3 5 8 18
M TOR 25 3 7 6 14
M TOR 26 3 7 6 15
M TOR 27 3 7 8 17
M TOR 28 3 7 8 18
M TOR 29 4 3 5 6
M TOR 30 4 3 5 8
M TOR 31 4 3 5 13
M TOR 32 4 3 7 6
M TOR 33 4 3 7 8
M TOR 34 4 3 7 16
M TOR 35 5 3 4 12
M TOR 36 5 3 7 16
M TOR 37 5 6 7 8
M TOR 38 5 6 7 16
M TOR 39 5 8 7 16
M TOR 40 6 5 8 17
M TOR 41 6 5 8 18
M TOR 42 6 7 8 17
M TOR 43 6 7 8 18
M TOR 44 7 3 4 12
M TOR 45 7 3 5 13
M TOR 46 7 6 5 13
M TOR 47 7 8 5 13
M TOR 48 8 5 6 14
M TOR 49 8 5 6 15
M TOR 50 8 7 6 14
M TOR 51 8 7 6 15
M  END
$$$$
