
     RDKit          3D

 19 19  0  0  0  0  0  0  0  0999 V2000
    1.4122    0.7880    0.1725 C   0  0  0  0  0  0  0  0  0  0  0  0
    0.0153    0.2576    0.1731 C   0  0  0  0  0  0  0  0  0  0  0  0
   -1.1384    0.9204    0.1370 C   0  0  0  0  0  0  0  0  0  0  0  0
   -2.3000   -0.0274    0.1321 C   0  0  0  0  0  0  0  0  0  0  0  0
   -1.7101   -1.3282    0.1666 O   0  0  0  0  0  0  0  0  0  0  0  0
   -0.2862   -1.2374    0.2210 C   0  0  0  0  0  0  0  0  0  0  0  0
    0.3507   -2.0490   -0.9098 C   0  0  0  0  0  0  0  0  0  0  0  0
    0.1658   -1.7636    1.5913 C   0  0  0  0  0  0  0  0  0  0  0  0
    1.2941   -2.0851    1.8608 O   0  0  0  0  0  0  0  0  0  0  0  0
    1.9901    0.3801    1.0089 H   0  0  0  0  0  0  0  0  0  0  0  0
    1.9428    0.4985   -0.7424 H   0  0  0  0  0  0  0  0  0  0  0  0
    1.4207    1.8787    0.2384 H   0  0  0  0  0  0  0  0  0  0  0  0
   -1.2526    1.9968    0.0904 H   0  0  0  0  0  0  0  0  0  0  0  0
   -2.9630    0.1058    1.0006 H   0  0  0  0  0  0  0  0  0  0  0  0
   -2.9254    0.0721   -0.7686 H   0  0  0  0  0  0  0  0  0  0  0  0
   -0.0587   -3.0628   -0.9106 H   0  0  0  0  0  0  0  0  0  0  0  0
    0.1379   -1.5859   -1.8767 H   0  0  0  0  0  0  0  0  0  0  0  0
    1.4313   -2.1138   -0.7633 H   0  0  0  0  0  0  0  0  0  0  0  0
   -0.6596   -1.7911    2.3373 H   0  0  0  0  0  0  0  0  0  0  0  0
  1  2  1  0
  2  3  2  0
  3  4  1  0
  4  5  1  0
  5  6  1  0
  6  7  1  0
  6  8  1  0
  8  9  2  0
  6  2  1  0
  1 10  1  0
  1 11  1  0
  1 12  1  0
  3 13  1  0
  4 14  1  0
  4 15  1  0
  7 16  1  0
  7 17  1  0
  7 18  1  0
  8 19  1  0
M  END
$$$$
