gdb 2822	2.5039482	1.7405255	1.1945191	2.299	75.71	-0.22279	0.07389	0.29668	1075.5042	0.154485	-422.487664	-422.478925	-422.47798	-422.520263	33.795
 OpenBabel02181911413D

 19 21  0  0  1  0  0  0  0  0999 V2000
   -3.3312    2.4834    0.9280 C   0  0  0  0  0  0  0  0  0  0  0  0
   -1.8396    2.5796    0.9474 C   0  0  2  0  0  0  0  0  0  0  0  0
   -1.2195    3.8343    1.3708 O   0  0  0  0  0  0  0  0  0  0  0  0
   -0.0856    2.9618    1.0592 C   0  0  2  0  0  0  0  0  0  0  0  0
    1.3026    3.4863    1.2221 C   0  0  0  0  0  0  0  0  0  0  0  0
   -0.7891    2.3036   -0.1789 C   0  0  1  0  0  0  0  0  0  0  0  0
   -0.5223    0.8886    0.3428 C   0  0  1  0  0  0  0  0  0  0  0  0
    0.7854    0.4249    0.0790 O   0  0  0  0  0  0  0  0  0  0  0  0
   -0.7694    1.6775    1.6462 C   0  0  2  0  0  0  0  0  0  0  0  0
   -3.7394    2.6538    1.9290 H   0  0  0  0  0  0  0  0  0  0  0  0
   -3.7539    3.2328    0.2517 H   0  0  0  0  0  0  0  0  0  0  0  0
   -3.6483    1.4924    0.5883 H   0  0  0  0  0  0  0  0  0  0  0  0
    1.4825    3.7809    2.2610 H   0  0  0  0  0  0  0  0  0  0  0  0
    2.0184    2.7106    0.9401 H   0  0  0  0  0  0  0  0  0  0  0  0
    1.4578    4.3629    0.5852 H   0  0  0  0  0  0  0  0  0  0  0  0
   -0.8062    2.6782   -1.2024 H   0  0  0  0  0  0  0  0  0  0  0  0
   -1.2754    0.1302    0.0883 H   0  0  0  0  0  0  0  0  0  0  0  0
    0.9232   -0.3875    0.5761 H   0  0  0  0  0  0  0  0  0  0  0  0
   -0.7683    1.3491    2.6868 H   0  0  0  0  0  0  0  0  0  0  0  0
  1 10  1  0  0  0  0
  2  1  1  6  0  0  0
  2  3  1  0  0  0  0
  2  9  1  0  0  0  0
  4  5  1  1  0  0  0
  4  3  1  0  0  0  0
  4  9  1  0  0  0  0
  5 13  1  0  0  0  0
  6 16  1  6  0  0  0
  6  7  1  0  0  0  0
  6  2  1  0  0  0  0
  6  4  1  0  0  0  0
  7 17  1  6  0  0  0
  7  9  1  0  0  0  0
  8  7  1  0  0  0  0
  8 18  1  0  0  0  0
  9 19  1  1  0  0  0
 11  1  1  0  0  0  0
 12  1  1  0  0  0  0
 14  5  1  0  0  0  0
 15  5  1  0  0  0  0
M TOR 0 0 1 2 3
M TOR 1 0 1 5 3
M TOR 2 0 1 5 6
M TOR 3 0 1 5 15
M TOR 4 0 1 8 3
M TOR 5 0 1 8 6
M TOR 6 0 1 8 18
M TOR 7 1 2 3 4
M TOR 8 1 2 3 5
M TOR 9 1 2 3 8
M TOR 10 1 5 3 4
M TOR 11 1 5 3 8
M TOR 12 1 5 6 7
M TOR 13 1 5 6 8
M TOR 14 1 5 6 16
M TOR 15 1 8 3 4
M TOR 16 1 8 6 7
M TOR 17 1 8 6 16
M TOR 18 2 1 0 9
M TOR 19 2 1 0 10
M TOR 20 2 1 0 11
M TOR 21 2 1 5 6
M TOR 22 2 1 5 15
M TOR 23 2 1 8 6
M TOR 24 2 1 8 18
M TOR 25 2 3 4 12
M TOR 26 2 3 4 13
M TOR 27 2 3 4 14
M TOR 28 2 3 5 6
M TOR 29 2 3 5 15
M TOR 30 2 3 8 6
M TOR 31 2 3 8 18
M TOR 32 3 5 6 7
M TOR 33 3 5 6 8
M TOR 34 3 5 6 16
M TOR 35 3 8 6 7
M TOR 36 3 8 6 16
M TOR 37 4 3 5 6
M TOR 38 4 3 5 15
M TOR 39 4 3 8 6
M TOR 40 4 3 8 18
M TOR 41 5 1 0 9
M TOR 42 5 1 0 10
M TOR 43 5 1 0 11
M TOR 44 5 1 8 18
M TOR 45 5 3 4 12
M TOR 46 5 3 4 13
M TOR 47 5 3 4 14
M TOR 48 5 3 8 18
M TOR 49 5 6 7 17
M TOR 50 5 6 8 18
M TOR 51 7 6 5 15
M TOR 52 7 6 8 18
M TOR 53 8 1 0 9
M TOR 54 8 1 0 10
M TOR 55 8 1 0 11
M TOR 56 8 1 5 15
M TOR 57 8 3 4 12
M TOR 58 8 3 4 13
M TOR 59 8 3 4 14
M TOR 60 8 3 5 15
M TOR 61 8 6 5 15
M TOR 62 8 6 7 17
M  END
$$$$
