gdb 3066	2.6592783	1.5297272	1.2014738	1.2658	76.42	-0.23016	0.00884	0.239	1095.915	0.157646	-422.551695	-422.543663	-422.542719	-422.583782	31.583
 OpenBabel02181911413D

 19 20  0  0  1  0  0  0  0  0999 V2000
    1.3542    0.7046   -0.2358 C   0  0  0  0  0  0  0  0  0  0  0  0
   -0.0362    0.2337    0.0634 C   0  0  0  0  0  0  0  0  0  0  0  0
   -1.1108    1.0157    0.1968 C   0  0  0  0  0  0  0  0  0  0  0  0
   -2.4521    0.3947    0.5260 C   0  0  0  0  0  0  0  0  0  0  0  0
   -2.2675   -1.1173    0.6866 C   0  0  1  0  0  0  0  0  0  0  0  0
   -1.5159   -1.6297   -0.4618 O   0  0  0  0  0  0  0  0  0  0  0  0
   -0.2950   -1.2493    0.2569 C   0  0  2  0  0  0  0  0  0  0  0  0
   -1.0607   -1.4885    1.5856 C   0  0  2  0  0  0  0  0  0  0  0  0
   -1.0737   -2.8202    2.0291 O   0  0  0  0  0  0  0  0  0  0  0  0
    2.0563    0.4035    0.5526 H   0  0  0  0  0  0  0  0  0  0  0  0
    1.7285    0.2652   -1.1694 H   0  0  0  0  0  0  0  0  0  0  0  0
    1.3979    1.7932   -0.3284 H   0  0  0  0  0  0  0  0  0  0  0  0
   -1.0533    2.0923    0.0587 H   0  0  0  0  0  0  0  0  0  0  0  0
   -2.8675    0.8198    1.4501 H   0  0  0  0  0  0  0  0  0  0  0  0
   -3.1842    0.6037   -0.2659 H   0  0  0  0  0  0  0  0  0  0  0  0
   -3.2014   -1.6635    0.8488 H   0  0  0  0  0  0  0  0  0  0  0  0
    0.5501   -1.8985    0.0132 H   0  0  0  0  0  0  0  0  0  0  0  0
   -0.8184   -0.8582    2.4429 H   0  0  0  0  0  0  0  0  0  0  0  0
   -1.2966   -3.3652    1.2639 H   0  0  0  0  0  0  0  0  0  0  0  0
  1  2  1  0  0  0  0
  1 10  1  0  0  0  0
  2  3  2  0  0  0  0
  2  7  1  0  0  0  0
  3  4  1  0  0  0  0
  4  5  1  0  0  0  0
  4 14  1  0  0  0  0
  5 16  1  1  0  0  0
  5  8  1  0  0  0  0
  6  7  1  0  0  0  0
  6  5  1  0  0  0  0
  7 17  1  6  0  0  0
  7  8  1  0  0  0  0
  8  9  1  0  0  0  0
  8 18  1  1  0  0  0
 11  1  1  0  0  0  0
 12  1  1  0  0  0  0
 13  3  1  0  0  0  0
 15  4  1  0  0  0  0
 19  9  1  0  0  0  0
M TOR 0 0 1 2 3
M TOR 1 0 1 2 12
M TOR 2 0 1 6 5
M TOR 3 0 1 6 7
M TOR 4 0 1 6 16
M TOR 5 1 2 3 4
M TOR 6 1 2 3 13
M TOR 7 1 2 3 14
M TOR 8 1 6 5 4
M TOR 9 1 6 7 4
M TOR 10 1 6 7 8
M TOR 11 1 6 7 17
M TOR 12 2 1 0 9
M TOR 13 2 1 0 10
M TOR 14 2 1 0 11
M TOR 15 2 1 6 5
M TOR 16 2 1 6 7
M TOR 17 2 1 6 16
M TOR 18 2 3 4 5
M TOR 19 2 3 4 7
M TOR 20 2 3 4 15
M TOR 21 3 2 1 6
M TOR 22 3 4 5 6
M TOR 23 3 4 7 6
M TOR 24 3 4 7 8
M TOR 25 3 4 7 17
M TOR 26 4 3 2 12
M TOR 27 4 5 6 7
M TOR 28 4 5 6 16
M TOR 29 4 7 6 16
M TOR 30 4 7 8 18
M TOR 31 5 4 3 13
M TOR 32 5 4 3 14
M TOR 33 5 4 7 8
M TOR 34 5 4 7 17
M TOR 35 5 6 7 8
M TOR 36 5 6 7 17
M TOR 37 6 1 0 9
M TOR 38 6 1 0 10
M TOR 39 6 1 0 11
M TOR 40 6 1 2 12
M TOR 41 6 5 4 15
M TOR 42 6 7 4 15
M TOR 43 6 7 8 18
M TOR 44 7 4 3 13
M TOR 45 7 4 3 14
M TOR 46 8 7 4 15
M TOR 47 8 7 6 16
M  END
$$$$
