gdb 5385	2.6912228	1.16034	0.8772052	3.3407	78.29	-0.2373	-0.01351	0.22379000000000002	1325.7162	0.157187	-422.592285	-422.583394	-422.58245	-422.626466	32.75
 OpenBabel02181911423D

 19 19  0  0  0  0  0  0  0  0999 V2000
   -2.5207    4.0255    0.4995 O   0  0  0  0  0  0  0  0  0  0  0  0
   -1.4053    3.1402    0.5542 C   0  0  0  0  0  0  0  0  0  0  0  0
   -1.1731    2.4195   -0.7503 C   0  0  0  0  0  0  0  0  0  0  0  0
   -0.0230    2.5309   -1.4198 C   0  0  0  0  0  0  0  0  0  0  0  0
    0.2686    1.8400   -2.7249 C   0  0  0  0  0  0  0  0  0  0  0  0
   -0.6829    0.6546   -2.9793 C   0  0  0  0  0  0  0  0  0  0  0  0
   -2.1208    1.0276   -2.6631 C   0  0  0  0  0  0  0  0  0  0  0  0
   -3.0297    0.8693   -3.4433 O   0  0  0  0  0  0  0  0  0  0  0  0
   -2.3383    1.6071   -1.2711 C   0  0  0  0  0  0  0  0  0  0  0  0
   -2.3329    4.6797   -0.1822 H   0  0  0  0  0  0  0  0  0  0  0  0
   -0.4884    3.6647    0.8612 H   0  0  0  0  0  0  0  0  0  0  0  0
   -1.6558    2.4234    1.3463 H   0  0  0  0  0  0  0  0  0  0  0  0
    0.7665    3.1596   -1.0120 H   0  0  0  0  0  0  0  0  0  0  0  0
    0.1909    2.5631   -3.5498 H   0  0  0  0  0  0  0  0  0  0  0  0
    1.3074    1.4899   -2.7410 H   0  0  0  0  0  0  0  0  0  0  0  0
   -0.6255    0.2918   -4.0076 H   0  0  0  0  0  0  0  0  0  0  0  0
   -0.4023   -0.1684   -2.3077 H   0  0  0  0  0  0  0  0  0  0  0  0
   -3.2550    2.2041   -1.2746 H   0  0  0  0  0  0  0  0  0  0  0  0
   -2.5385    0.7660   -0.5874 H   0  0  0  0  0  0  0  0  0  0  0  0
  1  2  1  0  0  0  0
  2 11  1  0  0  0  0
  2 12  1  0  0  0  0
  3  2  1  0  0  0  0
  4 13  1  0  0  0  0
  4  3  2  0  0  0  0
  5  4  1  0  0  0  0
  6  5  1  0  0  0  0
  6  7  1  0  0  0  0
  6 17  1  0  0  0  0
  7  9  1  0  0  0  0
  8  7  2  0  0  0  0
  9  3  1  0  0  0  0
  9 19  1  0  0  0  0
 10  1  1  0  0  0  0
 14  5  1  0  0  0  0
 15  5  1  0  0  0  0
 16  6  1  0  0  0  0
 18  9  1  0  0  0  0
M TOR 0 0 1 2 3
M TOR 1 0 1 2 8
M TOR 2 1 2 3 4
M TOR 3 1 2 3 12
M TOR 4 1 2 8 6
M TOR 5 1 2 8 17
M TOR 6 1 2 8 18
M TOR 7 2 1 0 9
M TOR 8 2 3 4 5
M TOR 9 2 3 4 13
M TOR 10 2 3 4 14
M TOR 11 2 8 6 5
M TOR 12 2 8 6 7
M TOR 13 3 2 1 10
M TOR 14 3 2 1 11
M TOR 15 3 2 8 6
M TOR 16 3 2 8 17
M TOR 17 3 2 8 18
M TOR 18 3 4 5 6
M TOR 19 3 4 5 15
M TOR 20 3 4 5 16
M TOR 21 4 3 2 8
M TOR 22 4 5 6 7
M TOR 23 4 5 6 8
M TOR 24 5 4 3 12
M TOR 25 5 6 8 17
M TOR 26 5 6 8 18
M TOR 27 6 5 4 13
M TOR 28 6 5 4 14
M TOR 29 7 6 5 15
M TOR 30 7 6 5 16
M TOR 31 7 6 8 17
M TOR 32 7 6 8 18
M TOR 33 8 2 1 10
M TOR 34 8 2 1 11
M TOR 35 8 2 3 12
M TOR 36 8 6 5 15
M TOR 37 8 6 5 16
M  END
$$$$
