
     RDKit          3D

 19 21  0  0  0  0  0  0  0  0999 V2000
   -0.6765    1.2763    0.9884 C   0  0  0  0  0  0  0  0  0  0  0  0
    0.5269    2.0780    1.5568 C   0  0  0  0  0  0  0  0  0  0  0  0
    1.7719    1.3356    1.0524 C   0  0  0  0  0  0  0  0  0  0  0  0
    2.1077    1.7642   -0.2940 O   0  0  0  0  0  0  0  0  0  0  0  0
    1.7201    0.6904   -1.1353 C   0  0  0  0  0  0  0  0  0  0  0  0
    2.1878   -0.5513   -0.3744 C   0  0  0  0  0  0  0  0  0  0  0  0
    1.3416   -0.1382    0.8342 C   0  0  0  0  0  0  0  0  0  0  0  0
   -0.0460    0.1246    0.1935 C   0  0  0  0  0  0  0  0  0  0  0  0
    0.3076    0.5651   -1.1444 O   0  0  0  0  0  0  0  0  0  0  0  0
   -1.2993    0.8750    1.7945 H   0  0  0  0  0  0  0  0  0  0  0  0
   -1.3224    1.8702    0.3384 H   0  0  0  0  0  0  0  0  0  0  0  0
    0.5498    3.1173    1.2227 H   0  0  0  0  0  0  0  0  0  0  0  0
    0.5152    2.0839    2.6517 H   0  0  0  0  0  0  0  0  0  0  0  0
    2.6522    1.4760    1.6873 H   0  0  0  0  0  0  0  0  0  0  0  0
    2.0691    0.8846   -2.1478 H   0  0  0  0  0  0  0  0  0  0  0  0
    1.8723   -1.4858   -0.8427 H   0  0  0  0  0  0  0  0  0  0  0  0
    3.2631   -0.5593   -0.1856 H   0  0  0  0  0  0  0  0  0  0  0  0
    1.3425   -0.7692    1.7220 H   0  0  0  0  0  0  0  0  0  0  0  0
   -0.6940   -0.7529    0.1064 H   0  0  0  0  0  0  0  0  0  0  0  0
  1  2  1  0
  2  3  1  0
  3  4  1  0
  4  5  1  0
  5  6  1  0
  6  7  1  0
  7  8  1  0
  8  9  1  0
  8  1  1  0
  7  3  1  0
  9  5  1  0
  1 10  1  0
  1 11  1  0
  2 12  1  0
  2 13  1  0
  3 14  1  0
  5 15  1  0
  6 16  1  0
  6 17  1  0
  7 18  1  0
  8 19  1  0
M  END
$$$$
