
     RDKit          3D

 19 21  0  0  0  0  0  0  0  0999 V2000
   -0.0434    0.3066    0.0089 C   0  0  0  0  0  0  0  0  0  0  0  0
    1.4212   -0.0268    0.0492 C   0  0  0  0  0  0  0  0  0  0  0  0
    2.4175    0.5106   -0.9447 C   0  0  0  0  0  0  0  0  0  0  0  0
    2.2651   -0.9812   -0.8230 C   0  0  0  0  0  0  0  0  0  0  0  0
    3.0462   -1.4548    0.3846 C   0  0  0  0  0  0  0  0  0  0  0  0
    2.4476   -2.5967    1.0309 O   0  0  0  0  0  0  0  0  0  0  0  0
    1.6734   -1.7774    1.9255 C   0  0  0  0  0  0  0  0  0  0  0  0
    2.1884   -0.4703    1.2850 C   0  0  0  0  0  0  0  0  0  0  0  0
    2.6168    0.5642    2.1119 O   0  0  0  0  0  0  0  0  0  0  0  0
   -0.2444    1.2538    0.5224 H   0  0  0  0  0  0  0  0  0  0  0  0
   -0.3928    0.4097   -1.0234 H   0  0  0  0  0  0  0  0  0  0  0  0
   -0.6519   -0.4684    0.4881 H   0  0  0  0  0  0  0  0  0  0  0  0
    1.9810    0.9481   -1.8368 H   0  0  0  0  0  0  0  0  0  0  0  0
    3.3242    1.0052   -0.6067 H   0  0  0  0  0  0  0  0  0  0  0  0
    1.9308   -1.6123   -1.6374 H   0  0  0  0  0  0  0  0  0  0  0  0
    4.1368   -1.5229    0.3407 H   0  0  0  0  0  0  0  0  0  0  0  0
    0.5972   -1.9810    1.8706 H   0  0  0  0  0  0  0  0  0  0  0  0
    2.0014   -1.9023    2.9692 H   0  0  0  0  0  0  0  0  0  0  0  0
    3.0960    0.1882    2.8585 H   0  0  0  0  0  0  0  0  0  0  0  0
  1  2  1  0
  2  3  1  0
  3  4  1  0
  4  5  1  0
  5  6  1  0
  6  7  1  0
  7  8  1  0
  8  9  1  0
  4  2  1  0
  8  5  1  0
  8  2  1  0
  1 10  1  0
  1 11  1  0
  1 12  1  0
  3 13  1  0
  3 14  1  0
  4 15  1  0
  5 16  1  0
  7 17  1  0
  7 18  1  0
  9 19  1  0
M  END
$$$$
