
     RDKit          3D

 19 19  0  0  0  0  0  0  0  0999 V2000
   -6.6906   -0.4394    0.8826 C   0  0  0  0  0  0  0  0  0  0  0  0
   -5.5138   -0.7626    1.5848 O   0  0  0  0  0  0  0  0  0  0  0  0
   -4.3435   -0.3984    0.8919 C   0  0  0  0  0  0  0  0  0  0  0  0
   -3.1486   -0.7957    1.7662 C   0  0  0  0  0  0  0  0  0  0  0  0
   -1.8715   -0.4651    1.1496 C   0  0  0  0  0  0  0  0  0  0  0  0
   -0.8276   -0.1745    0.6228 C   0  0  0  0  0  0  0  0  0  0  0  0
    0.4152    0.1467   -0.0236 C   0  0  0  0  0  0  0  0  0  0  0  0
    1.5820    0.6440    0.7328 C   0  0  0  0  0  0  0  0  0  0  0  0
    0.8094    1.5302   -0.0650 O   0  0  0  0  0  0  0  0  0  0  0  0
   -6.7699    0.6430    0.6951 H   0  0  0  0  0  0  0  0  0  0  0  0
   -6.7439   -0.9596   -0.0868 H   0  0  0  0  0  0  0  0  0  0  0  0
   -7.5359   -0.7541    1.4992 H   0  0  0  0  0  0  0  0  0  0  0  0
   -4.2855   -0.9101   -0.0826 H   0  0  0  0  0  0  0  0  0  0  0  0
   -4.3221    0.6855    0.6940 H   0  0  0  0  0  0  0  0  0  0  0  0
   -3.2441   -0.2940    2.7366 H   0  0  0  0  0  0  0  0  0  0  0  0
   -3.2059   -1.8724    1.9670 H   0  0  0  0  0  0  0  0  0  0  0  0
    0.6124   -0.3877   -0.9526 H   0  0  0  0  0  0  0  0  0  0  0  0
    1.4908    0.7784    1.8089 H   0  0  0  0  0  0  0  0  0  0  0  0
    2.5842    0.4259    0.3655 H   0  0  0  0  0  0  0  0  0  0  0  0
  1  2  1  0
  2  3  1  0
  3  4  1  0
  4  5  1  0
  5  6  3  0
  6  7  1  0
  7  8  1  0
  8  9  1  0
  9  7  1  0
  1 10  1  0
  1 11  1  0
  1 12  1  0
  3 13  1  0
  3 14  1  0
  4 15  1  0
  4 16  1  0
  7 17  1  0
  8 18  1  0
  8 19  1  0
M  END
$$$$
