
     RDKit          3D

 19 21  0  0  0  0  0  0  0  0999 V2000
    0.0091    0.6980   -0.2118 C   0  0  0  0  0  0  0  0  0  0  0  0
    1.4013    0.1492   -0.0217 C   0  0  0  0  0  0  0  0  0  0  0  0
    2.3251    0.6051    1.1458 C   0  0  0  0  0  0  0  0  0  0  0  0
    3.4613    0.1536    0.2123 C   0  0  0  0  0  0  0  0  0  0  0  0
    4.7840    0.5463    0.3212 O   0  0  0  0  0  0  0  0  0  0  0  0
    3.1018   -1.2821   -0.3892 C   0  0  0  0  0  0  0  0  0  0  0  0
    1.6226   -1.3843    0.0105 C   0  0  0  0  0  0  0  0  0  0  0  0
    2.9974   -0.7024   -1.7240 O   0  0  0  0  0  0  0  0  0  0  0  0
    2.6183    0.4870   -1.0279 C   0  0  0  0  0  0  0  0  0  0  0  0
   -0.6532    0.3968    0.6083 H   0  0  0  0  0  0  0  0  0  0  0  0
    0.0113    1.7927   -0.2491 H   0  0  0  0  0  0  0  0  0  0  0  0
   -0.4313    0.3307   -1.1455 H   0  0  0  0  0  0  0  0  0  0  0  0
    2.3501    1.6928    1.2637 H   0  0  0  0  0  0  0  0  0  0  0  0
    2.1893    0.1255    2.1203 H   0  0  0  0  0  0  0  0  0  0  0  0
    5.1825    0.0857    1.0677 H   0  0  0  0  0  0  0  0  0  0  0  0
    3.7680   -2.1428   -0.3318 H   0  0  0  0  0  0  0  0  0  0  0  0
    1.0558   -1.9380   -0.7422 H   0  0  0  0  0  0  0  0  0  0  0  0
    1.4397   -1.8127    1.0004 H   0  0  0  0  0  0  0  0  0  0  0  0
    2.6254    1.4115   -1.6037 H   0  0  0  0  0  0  0  0  0  0  0  0
  1  2  1  0
  2  3  1  0
  3  4  1  0
  4  5  1  0
  4  6  1  0
  6  7  1  0
  6  8  1  0
  8  9  1  0
  7  2  1  0
  9  2  1  0
  9  4  1  0
  1 10  1  0
  1 11  1  0
  1 12  1  0
  3 13  1  0
  3 14  1  0
  5 15  1  0
  6 16  1  0
  7 17  1  0
  7 18  1  0
  9 19  1  0
M  END
$$$$
