
     RDKit          3D

 19 21  0  0  0  0  0  0  0  0999 V2000
    0.8476    0.6686   -0.4536 O   0  0  0  0  0  0  0  0  0  0  0  0
    0.0991   -0.2815    0.2942 C   0  0  0  0  0  0  0  0  0  0  0  0
   -0.4136    0.2843    1.5836 C   0  0  0  0  0  0  0  0  0  0  0  0
   -1.4616    1.3914    1.7254 C   0  0  0  0  0  0  0  0  0  0  0  0
   -1.7954    0.8471    3.1522 C   0  0  0  0  0  0  0  0  0  0  0  0
   -0.9272    1.5539    4.1910 C   0  0  0  0  0  0  0  0  0  0  0  0
    0.4182    1.3266    3.7412 O   0  0  0  0  0  0  0  0  0  0  0  0
    0.3741    0.2045    2.8885 C   0  0  0  0  0  0  0  0  0  0  0  0
   -0.9683   -0.4314    2.8276 C   0  0  0  0  0  0  0  0  0  0  0  0
    1.5322    1.0153    0.1288 H   0  0  0  0  0  0  0  0  0  0  0  0
   -0.7335   -0.5731   -0.3569 H   0  0  0  0  0  0  0  0  0  0  0  0
    0.6870   -1.1934    0.4950 H   0  0  0  0  0  0  0  0  0  0  0  0
   -1.1182    2.4289    1.6574 H   0  0  0  0  0  0  0  0  0  0  0  0
   -2.2898    1.2387    1.0282 H   0  0  0  0  0  0  0  0  0  0  0  0
   -2.8461    0.7450    3.4193 H   0  0  0  0  0  0  0  0  0  0  0  0
   -1.0954    2.6350    4.2326 H   0  0  0  0  0  0  0  0  0  0  0  0
   -1.0675    1.1319    5.1979 H   0  0  0  0  0  0  0  0  0  0  0  0
    1.2817   -0.3890    2.9066 H   0  0  0  0  0  0  0  0  0  0  0  0
   -1.2138   -1.4685    3.0151 H   0  0  0  0  0  0  0  0  0  0  0  0
  1  2  1  0
  2  3  1  0
  3  4  1  0
  4  5  1  0
  5  6  1  0
  6  7  1  0
  7  8  1  0
  8  9  1  0
  8  3  1  0
  9  3  1  0
  9  5  1  0
  1 10  1  0
  2 11  1  0
  2 12  1  0
  4 13  1  0
  4 14  1  0
  5 15  1  0
  6 16  1  0
  6 17  1  0
  8 18  1  0
  9 19  1  0
M  END
$$$$
