
     RDKit          3D

 19 20  0  0  0  0  0  0  0  0999 V2000
   -2.2152   -3.0642    1.2388 C   0  0  0  0  0  0  0  0  0  0  0  0
   -2.0335   -1.6103    0.8709 C   0  0  0  0  0  0  0  0  0  0  0  0
   -2.2845   -1.1041   -0.5097 C   0  0  0  0  0  0  0  0  0  0  0  0
   -2.8624    0.1631   -0.6307 O   0  0  0  0  0  0  0  0  0  0  0  0
   -1.9517    1.2081   -0.9397 C   0  0  0  0  0  0  0  0  0  0  0  0
   -0.8778    1.3258    0.1509 C   0  0  0  0  0  0  0  0  0  0  0  0
   -0.0695    0.0358    0.2155 C   0  0  0  0  0  0  0  0  0  0  0  0
    1.1321    0.0262    0.3717 O   0  0  0  0  0  0  0  0  0  0  0  0
   -0.8466   -1.2134   -0.0223 C   0  0  0  0  0  0  0  0  0  0  0  0
   -1.5479   -3.3530    2.0574 H   0  0  0  0  0  0  0  0  0  0  0  0
   -3.2451   -3.2586    1.5566 H   0  0  0  0  0  0  0  0  0  0  0  0
   -1.9987   -3.7175    0.3875 H   0  0  0  0  0  0  0  0  0  0  0  0
   -2.2843   -0.8947    1.6487 H   0  0  0  0  0  0  0  0  0  0  0  0
   -2.6062   -1.8047   -1.2784 H   0  0  0  0  0  0  0  0  0  0  0  0
   -1.4820    1.0404   -1.9208 H   0  0  0  0  0  0  0  0  0  0  0  0
   -2.5517    2.1195   -1.0039 H   0  0  0  0  0  0  0  0  0  0  0  0
   -0.1891    2.1545   -0.0333 H   0  0  0  0  0  0  0  0  0  0  0  0
   -1.3756    1.5040    1.1122 H   0  0  0  0  0  0  0  0  0  0  0  0
   -0.2419   -2.0373   -0.3865 H   0  0  0  0  0  0  0  0  0  0  0  0
  1  2  1  0
  2  3  1  0
  3  4  1  0
  4  5  1  0
  5  6  1  0
  6  7  1  0
  7  8  2  0
  7  9  1  0
  9  2  1  0
  9  3  1  0
  1 10  1  0
  1 11  1  0
  1 12  1  0
  2 13  1  0
  3 14  1  0
  5 15  1  0
  5 16  1  0
  6 17  1  0
  6 18  1  0
  9 19  1  0
M  END
$$$$
