gdb 803	2.9322389	1.3269666	1.1017867	2.7304	75.91	-0.25311	-0.0338	0.21931	1150.0508	0.157727	-422.57228	-422.564157	-422.563213	-422.604985	30.911
 OpenBabel02181911403D

 19 20  0  0  1  0  0  0  0  0999 V2000
    0.4330    0.2907   -1.0095 O   0  0  0  0  0  0  0  0  0  0  0  0
    0.2811   -0.0314    0.1414 C   0  0  0  0  0  0  0  0  0  0  0  0
   -0.6242    0.6715    1.1043 C   0  0  1  0  0  0  0  0  0  0  0  0
   -1.1519    2.0319    0.7090 C   0  0  0  0  0  0  0  0  0  0  0  0
   -2.1840    2.5694    1.7086 C   0  0  0  0  0  0  0  0  0  0  0  0
   -3.2768    1.5283    1.9743 C   0  0  0  0  0  0  0  0  0  0  0  0
   -2.7132    0.2554    2.6289 C   0  0  0  0  0  0  0  0  0  0  0  0
   -1.3849   -0.1977    2.0445 C   0  0  2  0  0  0  0  0  0  0  0  0
   -0.2159    0.4957    2.4728 O   0  0  0  0  0  0  0  0  0  0  0  0
    0.8165   -0.8958    0.5948 H   0  0  0  0  0  0  0  0  0  0  0  0
   -0.3086    2.7235    0.6035 H   0  0  0  0  0  0  0  0  0  0  0  0
   -1.5945    1.9354   -0.2892 H   0  0  0  0  0  0  0  0  0  0  0  0
   -1.6832    2.8306    2.6477 H   0  0  0  0  0  0  0  0  0  0  0  0
   -2.6242    3.4901    1.3130 H   0  0  0  0  0  0  0  0  0  0  0  0
   -4.0639    1.9461    2.6103 H   0  0  0  0  0  0  0  0  0  0  0  0
   -3.7536    1.2648    1.0210 H   0  0  0  0  0  0  0  0  0  0  0  0
   -2.5541    0.4178    3.7019 H   0  0  0  0  0  0  0  0  0  0  0  0
   -3.4332   -0.5650    2.5414 H   0  0  0  0  0  0  0  0  0  0  0  0
   -1.2386   -1.2768    1.9724 H   0  0  0  0  0  0  0  0  0  0  0  0
  1  2  2  0  0  0  0
  2 10  1  0  0  0  0
  3  2  1  6  0  0  0
  3  8  1  0  0  0  0
  3  9  1  0  0  0  0
  4  3  1  0  0  0  0
  4  5  1  0  0  0  0
  5  6  1  0  0  0  0
  5 13  1  0  0  0  0
  6 15  1  0  0  0  0
  6  7  1  0  0  0  0
  7 17  1  0  0  0  0
  8 19  1  6  0  0  0
  8  9  1  0  0  0  0
  8  7  1  0  0  0  0
 11  4  1  0  0  0  0
 12  4  1  0  0  0  0
 14  5  1  0  0  0  0
 16  6  1  0  0  0  0
 18  7  1  0  0  0  0
M TOR 0 0 1 2 3
M TOR 1 0 1 2 7
M TOR 2 0 1 2 8
M TOR 3 1 2 3 4
M TOR 4 1 2 3 10
M TOR 5 1 2 3 11
M TOR 6 1 2 7 6
M TOR 7 1 2 7 8
M TOR 8 1 2 7 18
M TOR 9 2 3 4 5
M TOR 10 2 3 4 12
M TOR 11 2 3 4 13
M TOR 12 2 7 6 5
M TOR 13 2 7 6 16
M TOR 14 2 7 6 17
M TOR 15 2 8 7 6
M TOR 16 2 8 7 18
M TOR 17 3 2 1 9
M TOR 18 3 2 7 6
M TOR 19 3 2 7 8
M TOR 20 3 2 7 18
M TOR 21 3 4 5 6
M TOR 22 3 4 5 14
M TOR 23 3 4 5 15
M TOR 24 4 3 2 7
M TOR 25 4 3 2 8
M TOR 26 4 5 6 7
M TOR 27 4 5 6 16
M TOR 28 4 5 6 17
M TOR 29 5 4 3 10
M TOR 30 5 4 3 11
M TOR 31 5 6 7 8
M TOR 32 5 6 7 18
M TOR 33 6 5 4 12
M TOR 34 6 5 4 13
M TOR 35 7 2 1 9
M TOR 36 7 2 3 10
M TOR 37 7 2 3 11
M TOR 38 7 6 5 14
M TOR 39 7 6 5 15
M TOR 40 8 2 1 9
M TOR 41 8 2 3 10
M TOR 42 8 2 3 11
M TOR 43 8 7 6 16
M TOR 44 8 7 6 17
M  END
$$$$
