gdb 3854	4.2759971	1.1058472	1.0525899	2.8749	76.19	-0.21635	0.06384	0.28019	1215.2923	0.15625	-422.486183	-422.477983	-422.477039	-422.519315	31.009
 OpenBabel02181911413D

 19 21  0  0  1  0  0  0  0  0999 V2000
    0.1224    0.5501   -0.0272 C   0  0  0  0  0  0  0  0  0  0  0  0
    0.8407   -0.7327   -0.3868 C   0  0  2  0  0  0  0  0  0  0  0  0
    1.3735   -1.6247    0.7634 C   0  0  0  0  0  0  0  0  0  0  0  0
    2.7253   -1.3785    0.1085 C   0  0  1  0  0  0  0  0  0  0  0  0
    2.1935   -0.4910   -0.8690 O   0  0  0  0  0  0  0  0  0  0  0  0
    4.0360   -1.2085    0.8081 C   0  0  2  0  0  0  0  0  0  0  0  0
    5.0919   -0.8250   -0.2263 C   0  0  0  0  0  0  0  0  0  0  0  0
    4.7403   -1.9436   -1.0843 O   0  0  0  0  0  0  0  0  0  0  0  0
    3.7795   -2.3990   -0.1375 C   0  0  2  0  0  0  0  0  0  0  0  0
    0.6778    1.1054    0.7350 H   0  0  0  0  0  0  0  0  0  0  0  0
    0.0189    1.1885   -0.9101 H   0  0  0  0  0  0  0  0  0  0  0  0
   -0.8801    0.3326    0.3576 H   0  0  0  0  0  0  0  0  0  0  0  0
    0.2725   -1.2954   -1.1385 H   0  0  0  0  0  0  0  0  0  0  0  0
    1.2575   -1.1875    1.7586 H   0  0  0  0  0  0  0  0  0  0  0  0
    1.0227   -2.6584    0.7761 H   0  0  0  0  0  0  0  0  0  0  0  0
    4.1427   -1.1406    1.8840 H   0  0  0  0  0  0  0  0  0  0  0  0
    4.9642    0.1398   -0.7286 H   0  0  0  0  0  0  0  0  0  0  0  0
    6.1206   -0.9316    0.1338 H   0  0  0  0  0  0  0  0  0  0  0  0
    3.6835   -3.4702    0.0151 H   0  0  0  0  0  0  0  0  0  0  0  0
  1 12  1  0  0  0  0
  1 10  1  0  0  0  0
  2 13  1  6  0  0  0
  2  1  1  0  0  0  0
  2  3  1  0  0  0  0
  3 15  1  0  0  0  0
  3 14  1  0  0  0  0
  4  5  1  6  0  0  0
  4  3  1  0  0  0  0
  4  6  1  0  0  0  0
  5  2  1  0  0  0  0
  6 16  1  1  0  0  0
  7 18  1  0  0  0  0
  7  6  1  0  0  0  0
  8  7  1  0  0  0  0
  8  9  1  0  0  0  0
  9 19  1  1  0  0  0
  9  4  1  0  0  0  0
  9  6  1  0  0  0  0
 11  1  1  0  0  0  0
 17  7  1  0  0  0  0
M TOR 0 0 1 2 3
M TOR 1 0 1 2 13
M TOR 2 0 1 2 14
M TOR 3 0 1 4 3
M TOR 4 1 2 3 4
M TOR 5 1 2 3 5
M TOR 6 1 2 3 8
M TOR 7 1 4 3 5
M TOR 8 1 4 3 8
M TOR 9 2 1 0 9
M TOR 10 2 1 0 10
M TOR 11 2 1 0 11
M TOR 12 2 3 5 6
M TOR 13 2 3 5 8
M TOR 14 2 3 5 15
M TOR 15 2 3 8 7
M TOR 16 2 3 8 18
M TOR 17 3 2 1 12
M TOR 18 3 4 1 12
M TOR 19 3 5 6 7
M TOR 20 3 5 6 16
M TOR 21 3 5 6 17
M TOR 22 3 5 8 7
M TOR 23 3 5 8 18
M TOR 24 3 8 5 6
M TOR 25 3 8 5 15
M TOR 26 3 8 7 6
M TOR 27 4 1 0 9
M TOR 28 4 1 0 10
M TOR 29 4 1 0 11
M TOR 30 4 1 2 13
M TOR 31 4 1 2 14
M TOR 32 4 3 2 13
M TOR 33 4 3 2 14
M TOR 34 4 3 5 6
M TOR 35 4 3 5 8
M TOR 36 4 3 5 15
M TOR 37 4 3 8 7
M TOR 38 4 3 8 18
M TOR 39 5 3 2 13
M TOR 40 5 3 2 14
M TOR 41 5 6 7 8
M TOR 42 6 5 8 18
M TOR 43 6 7 8 18
M TOR 44 7 6 5 15
M TOR 45 7 8 5 15
M TOR 46 8 3 2 13
M TOR 47 8 3 2 14
M TOR 48 8 5 6 16
M TOR 49 8 5 6 17
M TOR 50 8 7 6 16
M TOR 51 8 7 6 17
M  END
$$$$
