gdb 825	3.5528039	0.9951976	0.9358832	3.0801	76.84	-0.25479	-0.03759	0.2172	1317.5279	0.156564	-422.563252	-422.554739	-422.553795	-422.597098	31.502
 OpenBabel02181911403D

 19 20  0  0  1  0  0  0  0  0999 V2000
    1.0700   -0.7559    0.5320 O   0  0  0  0  0  0  0  0  0  0  0  0
    0.2042   -0.0649    0.0575 C   0  0  0  0  0  0  0  0  0  0  0  0
    0.3036    1.4194   -0.0575 C   0  0  2  0  0  0  0  0  0  0  0  0
   -0.9439    2.1168   -0.1789 O   0  0  0  0  0  0  0  0  0  0  0  0
   -0.0840    2.1100   -1.3137 C   0  0  0  0  0  0  0  0  0  0  0  0
   -0.5612    1.3957   -2.5816 C   0  0  0  0  0  0  0  0  0  0  0  0
   -0.6559    2.5233   -3.6254 C   0  0  0  0  0  0  0  0  0  0  0  0
    0.5279    3.4402   -3.2654 C   0  0  0  0  0  0  0  0  0  0  0  0
    0.5318    3.4560   -1.7235 C   0  0  0  0  0  0  0  0  0  0  0  0
   -0.7470   -0.4866   -0.3350 H   0  0  0  0  0  0  0  0  0  0  0  0
    1.0518    1.8822    0.5854 H   0  0  0  0  0  0  0  0  0  0  0  0
    0.1863    0.6585   -2.8982 H   0  0  0  0  0  0  0  0  0  0  0  0
   -1.5013    0.8671   -2.4097 H   0  0  0  0  0  0  0  0  0  0  0  0
   -0.6190    2.1562   -4.6540 H   0  0  0  0  0  0  0  0  0  0  0  0
   -1.6002    3.0670   -3.5028 H   0  0  0  0  0  0  0  0  0  0  0  0
    1.4607    3.0029   -3.6404 H   0  0  0  0  0  0  0  0  0  0  0  0
    0.4428    4.4413   -3.6952 H   0  0  0  0  0  0  0  0  0  0  0  0
    1.5258    3.6125   -1.2973 H   0  0  0  0  0  0  0  0  0  0  0  0
   -0.1181    4.2481   -1.3362 H   0  0  0  0  0  0  0  0  0  0  0  0
  2  1  2  0  0  0  0
  3  2  1  0  0  0  0
  3 11  1  1  0  0  0
  4  3  1  0  0  0  0
  5  4  1  0  0  0  0
  5  3  1  0  0  0  0
  6 13  1  0  0  0  0
  6  5  1  0  0  0  0
  7 15  1  0  0  0  0
  7  8  1  0  0  0  0
  7  6  1  0  0  0  0
  8  9  1  0  0  0  0
  9 19  1  0  0  0  0
  9  5  1  0  0  0  0
  9 18  1  0  0  0  0
 10  2  1  0  0  0  0
 12  6  1  0  0  0  0
 14  7  1  0  0  0  0
 16  8  1  0  0  0  0
 17  8  1  0  0  0  0
M TOR 0 0 1 2 3
M TOR 1 0 1 2 4
M TOR 2 0 1 2 10
M TOR 3 1 2 3 4
M TOR 4 1 2 4 5
M TOR 5 1 2 4 8
M TOR 6 2 3 4 5
M TOR 7 2 3 4 8
M TOR 8 2 4 5 6
M TOR 9 2 4 5 11
M TOR 10 2 4 5 12
M TOR 11 2 4 8 7
M TOR 12 2 4 8 17
M TOR 13 2 4 8 18
M TOR 14 3 2 1 9
M TOR 15 3 4 2 10
M TOR 16 3 4 5 6
M TOR 17 3 4 5 11
M TOR 18 3 4 5 12
M TOR 19 3 4 8 7
M TOR 20 3 4 8 17
M TOR 21 3 4 8 18
M TOR 22 4 2 1 9
M TOR 23 4 5 6 7
M TOR 24 4 5 6 13
M TOR 25 4 5 6 14
M TOR 26 4 8 7 6
M TOR 27 4 8 7 15
M TOR 28 4 8 7 16
M TOR 29 5 4 2 10
M TOR 30 5 4 8 7
M TOR 31 5 4 8 17
M TOR 32 5 4 8 18
M TOR 33 5 6 7 8
M TOR 34 5 6 7 15
M TOR 35 5 6 7 16
M TOR 36 6 5 4 8
M TOR 37 6 7 8 17
M TOR 38 6 7 8 18
M TOR 39 7 6 5 11
M TOR 40 7 6 5 12
M TOR 41 8 4 2 10
M TOR 42 8 4 5 11
M TOR 43 8 4 5 12
M TOR 44 8 7 6 13
M TOR 45 8 7 6 14
M  END
$$$$
