gdb 5492	2.7930206	1.2210426	0.9399442	2.3436	76.46	-0.23504	0.00368	0.23872	1256.8447	0.15715	-422.550044	-422.541179	-422.540235	-422.583921	33.051
 OpenBabel02181911423D

 19 20  0  0  1  0  0  0  0  0999 V2000
    1.6954    0.5795   -0.1647 O   0  0  0  0  0  0  0  0  0  0  0  0
    0.5110    0.1810    0.5120 C   0  0  0  0  0  0  0  0  0  0  0  0
   -0.4830    1.3042    0.7040 C   0  0  2  0  0  0  0  0  0  0  0  0
   -1.9740    1.0177    0.6101 C   0  0  1  0  0  0  0  0  0  0  0  0
   -2.8455    2.0281    1.2860 C   0  0  0  0  0  0  0  0  0  0  0  0
   -2.7432    3.2262    0.7088 C   0  0  0  0  0  0  0  0  0  0  0  0
   -1.8165    3.2072   -0.4990 C   0  0  1  0  0  0  0  0  0  0  0  0
   -0.8322    4.2338   -0.4887 O   0  0  0  0  0  0  0  0  0  0  0  0
   -1.2724    1.7734   -0.4963 C   0  0  1  0  0  0  0  0  0  0  0  0
    2.1270    1.2564    0.3660 H   0  0  0  0  0  0  0  0  0  0  0  0
    0.0677   -0.5997   -0.1156 H   0  0  0  0  0  0  0  0  0  0  0  0
    0.7462   -0.2800    1.4844 H   0  0  0  0  0  0  0  0  0  0  0  0
   -0.1981    2.0439    1.4521 H   0  0  0  0  0  0  0  0  0  0  0  0
   -2.3042   -0.0093    0.4966 H   0  0  0  0  0  0  0  0  0  0  0  0
   -3.4426    1.7944    2.1607 H   0  0  0  0  0  0  0  0  0  0  0  0
   -3.2196    4.1420    1.0390 H   0  0  0  0  0  0  0  0  0  0  0  0
   -2.3786    3.3936   -1.4227 H   0  0  0  0  0  0  0  0  0  0  0  0
   -0.2647    4.0782    0.2743 H   0  0  0  0  0  0  0  0  0  0  0  0
   -1.0404    1.3048   -1.4449 H   0  0  0  0  0  0  0  0  0  0  0  0
  1 10  1  0  0  0  0
  1  2  1  0  0  0  0
  2  3  1  0  0  0  0
  2 12  1  0  0  0  0
  3 13  1  1  0  0  0
  4 14  1  6  0  0  0
  4  3  1  0  0  0  0
  4  5  1  0  0  0  0
  5 15  1  0  0  0  0
  6 16  1  0  0  0  0
  6  5  2  0  0  0  0
  7 17  1  6  0  0  0
  7  9  1  0  0  0  0
  7  8  1  0  0  0  0
  7  6  1  0  0  0  0
  8 18  1  0  0  0  0
  9 19  1  6  0  0  0
  9  4  1  0  0  0  0
  9  3  1  0  0  0  0
 11  2  1  0  0  0  0
M TOR 0 0 1 2 3
M TOR 1 0 1 2 8
M TOR 2 0 1 2 12
M TOR 3 1 2 3 4
M TOR 4 1 2 3 8
M TOR 5 1 2 3 13
M TOR 6 1 2 8 6
M TOR 7 1 2 8 18
M TOR 8 2 1 0 9
M TOR 9 2 3 4 5
M TOR 10 2 3 4 14
M TOR 11 2 3 8 6
M TOR 12 2 3 8 18
M TOR 13 2 8 3 4
M TOR 14 2 8 3 13
M TOR 15 2 8 6 5
M TOR 16 2 8 6 7
M TOR 17 2 8 6 16
M TOR 18 3 2 1 10
M TOR 19 3 2 1 11
M TOR 20 3 4 5 6
M TOR 21 3 4 5 15
M TOR 22 3 8 2 12
M TOR 23 3 8 6 5
M TOR 24 3 8 6 7
M TOR 25 3 8 6 16
M TOR 26 4 3 2 12
M TOR 27 4 3 8 6
M TOR 28 4 3 8 18
M TOR 29 4 5 6 7
M TOR 30 4 5 6 8
M TOR 31 4 5 6 16
M TOR 32 5 4 3 8
M TOR 33 5 4 3 13
M TOR 34 5 6 7 17
M TOR 35 5 6 8 18
M TOR 36 6 5 4 14
M TOR 37 6 8 2 12
M TOR 38 6 8 3 13
M TOR 39 7 6 5 15
M TOR 40 7 6 8 18
M TOR 41 8 2 1 10
M TOR 42 8 2 1 11
M TOR 43 8 3 4 14
M TOR 44 8 6 5 15
M TOR 45 8 6 7 17
M  END
$$$$
