gdb 2492	2.593004	1.5596831	1.3033961	2.3908	74.94	-0.24448	-0.02717	0.21731	1048.5198	0.157304	-422.585646	-422.57734	-422.576396	-422.61842	31.926
 OpenBabel02181911413D

 19 20  0  0  1  0  0  0  0  0999 V2000
   -1.0932    1.9906    1.0921 O   0  0  0  0  0  0  0  0  0  0  0  0
   -1.0695    1.0602    0.0450 C   0  0  2  0  0  0  0  0  0  0  0  0
   -1.1873    1.7813   -1.3197 C   0  0  0  0  0  0  0  0  0  0  0  0
   -2.0387    0.8893   -2.2393 C   0  0  0  0  0  0  0  0  0  0  0  0
   -2.9881    0.1441   -1.2780 C   0  0  0  0  0  0  0  0  0  0  0  0
   -2.1255   -0.1296   -0.0455 C   0  0  1  0  0  0  0  0  0  0  0  0
   -0.9509   -1.1487   -0.2308 C   0  0  0  0  0  0  0  0  0  0  0  0
   -0.0027   -0.0277    0.1988 C   0  0  0  0  0  0  0  0  0  0  0  0
    1.0504   -0.0022    0.7772 O   0  0  0  0  0  0  0  0  0  0  0  0
   -0.3944    1.7468    1.7119 H   0  0  0  0  0  0  0  0  0  0  0  0
   -1.7112    2.7177   -1.1001 H   0  0  0  0  0  0  0  0  0  0  0  0
   -0.2143    2.0470   -1.7419 H   0  0  0  0  0  0  0  0  0  0  0  0
   -2.5746    1.4679   -2.9963 H   0  0  0  0  0  0  0  0  0  0  0  0
   -1.4072    0.1761   -2.7808 H   0  0  0  0  0  0  0  0  0  0  0  0
   -3.8260    0.7943   -1.0003 H   0  0  0  0  0  0  0  0  0  0  0  0
   -3.4114   -0.7654   -1.7162 H   0  0  0  0  0  0  0  0  0  0  0  0
   -2.6794   -0.2955    0.8788 H   0  0  0  0  0  0  0  0  0  0  0  0
   -0.9351   -2.0267    0.4188 H   0  0  0  0  0  0  0  0  0  0  0  0
   -0.8072   -1.4767   -1.2646 H   0  0  0  0  0  0  0  0  0  0  0  0
  1 10  1  0  0  0  0
  2  8  1  0  0  0  0
  2  1  1  1  0  0  0
  3 11  1  0  0  0  0
  3  2  1  0  0  0  0
  4  3  1  0  0  0  0
  4  5  1  0  0  0  0
  5 15  1  0  0  0  0
  5  6  1  0  0  0  0
  6  2  1  0  0  0  0
  6 17  1  1  0  0  0
  7  6  1  0  0  0  0
  7  8  1  0  0  0  0
  7 18  1  0  0  0  0
  8  9  2  0  0  0  0
 12  3  1  0  0  0  0
 13  4  1  0  0  0  0
 14  4  1  0  0  0  0
 16  5  1  0  0  0  0
 19  7  1  0  0  0  0
M TOR 0 0 1 2 3
M TOR 1 0 1 2 10
M TOR 2 0 1 2 11
M TOR 3 0 1 5 4
M TOR 4 0 1 5 6
M TOR 5 0 1 5 16
M TOR 6 0 1 7 6
M TOR 7 0 1 7 8
M TOR 8 1 2 3 4
M TOR 9 1 2 3 12
M TOR 10 1 2 3 13
M TOR 11 1 5 4 3
M TOR 12 1 5 4 14
M TOR 13 1 5 4 15
M TOR 14 1 5 6 7
M TOR 15 1 5 6 17
M TOR 16 1 5 6 18
M TOR 17 1 7 6 17
M TOR 18 1 7 6 18
M TOR 19 2 1 0 9
M TOR 20 2 1 5 4
M TOR 21 2 1 5 6
M TOR 22 2 1 5 16
M TOR 23 2 1 7 6
M TOR 24 2 1 7 8
M TOR 25 2 3 4 5
M TOR 26 2 3 4 14
M TOR 27 2 3 4 15
M TOR 28 3 2 1 5
M TOR 29 3 2 1 7
M TOR 30 3 4 5 6
M TOR 31 3 4 5 16
M TOR 32 4 3 2 10
M TOR 33 4 3 2 11
M TOR 34 4 5 1 7
M TOR 35 4 5 6 7
M TOR 36 4 5 6 17
M TOR 37 4 5 6 18
M TOR 38 5 1 0 9
M TOR 39 5 1 2 10
M TOR 40 5 1 2 11
M TOR 41 5 1 7 8
M TOR 42 5 4 3 12
M TOR 43 5 4 3 13
M TOR 44 5 6 7 8
M TOR 45 6 5 4 14
M TOR 46 6 5 4 15
M TOR 47 7 1 0 9
M TOR 48 7 1 2 10
M TOR 49 7 1 2 11
M TOR 50 7 1 5 16
M TOR 51 7 6 5 16
M TOR 52 8 7 6 17
M TOR 53 8 7 6 18
M  END
$$$$
