gdb 1073	2.9082332	1.3883784	1.1857996	2.7943	75.45	-0.24113	-0.01264	0.22849	1114.8099	0.154865	-422.550137	-422.541045	-422.540101	-422.584	34.096
 OpenBabel02181911403D

 19 20  0  0  1  0  0  0  0  0999 V2000
    1.2485   -0.5371    1.1644 C   0  0  0  0  0  0  0  0  0  0  0  0
    1.9552   -0.2552   -0.1443 C   0  0  0  0  0  0  0  0  0  0  0  0
    2.8581    0.5441   -0.2349 O   0  0  0  0  0  0  0  0  0  0  0  0
    1.4977   -1.0749   -1.3612 C   0  0  1  0  0  0  0  0  0  0  0  0
    0.1429   -1.4143   -1.1622 O   0  0  0  0  0  0  0  0  0  0  0  0
    1.9367   -0.4246   -2.7212 C   0  0  0  0  0  0  0  0  0  0  0  0
    2.9536   -1.5531   -2.9115 C   0  0  2  0  0  0  0  0  0  0  0  0
    2.2413   -2.8701   -2.9549 C   0  0  0  0  0  0  0  0  0  0  0  0
    2.4957   -2.2216   -1.6154 C   0  0  2  0  0  0  0  0  0  0  0  0
    1.2145   -1.6123    1.3661 H   0  0  0  0  0  0  0  0  0  0  0  0
    1.7587   -0.0102    1.9714 H   0  0  0  0  0  0  0  0  0  0  0  0
    0.2073   -0.2080    1.0959 H   0  0  0  0  0  0  0  0  0  0  0  0
   -0.0655   -2.1568   -1.7382 H   0  0  0  0  0  0  0  0  0  0  0  0
    1.1463   -0.3585   -3.4750 H   0  0  0  0  0  0  0  0  0  0  0  0
    2.3885    0.5534   -2.5566 H   0  0  0  0  0  0  0  0  0  0  0  0
    3.9672   -1.4289   -3.2686 H   0  0  0  0  0  0  0  0  0  0  0  0
    1.2406   -2.9396   -3.3801 H   0  0  0  0  0  0  0  0  0  0  0  0
    2.8538   -3.7448   -3.1490 H   0  0  0  0  0  0  0  0  0  0  0  0
    3.0814   -2.7184   -0.8505 H   0  0  0  0  0  0  0  0  0  0  0  0
  1 10  1  0  0  0  0
  1 11  1  0  0  0  0
  2  1  1  0  0  0  0
  3  2  2  0  0  0  0
  4  5  1  1  0  0  0
  4  2  1  0  0  0  0
  6 15  1  0  0  0  0
  6  4  1  0  0  0  0
  7 16  1  6  0  0  0
  7  6  1  0  0  0  0
  7  9  1  0  0  0  0
  8  7  1  0  0  0  0
  8  9  1  0  0  0  0
  9  4  1  0  0  0  0
  9 19  1  1  0  0  0
 12  1  1  0  0  0  0
 13  5  1  0  0  0  0
 14  6  1  0  0  0  0
 17  8  1  0  0  0  0
 18  8  1  0  0  0  0
M TOR 0 0 1 3 4
M TOR 1 0 1 3 5
M TOR 2 0 1 3 8
M TOR 3 1 3 4 12
M TOR 4 1 3 5 6
M TOR 5 1 3 5 13
M TOR 6 1 3 5 14
M TOR 7 1 3 8 6
M TOR 8 1 3 8 7
M TOR 9 1 3 8 18
M TOR 10 2 1 0 9
M TOR 11 2 1 0 10
M TOR 12 2 1 0 11
M TOR 13 2 1 3 4
M TOR 14 2 1 3 5
M TOR 15 2 1 3 8
M TOR 16 3 1 0 9
M TOR 17 3 1 0 10
M TOR 18 3 1 0 11
M TOR 19 3 5 6 7
M TOR 20 3 5 6 8
M TOR 21 3 5 6 15
M TOR 22 3 8 6 7
M TOR 23 3 8 6 15
M TOR 24 3 8 7 16
M TOR 25 3 8 7 17
M TOR 26 4 3 5 6
M TOR 27 4 3 5 13
M TOR 28 4 3 5 14
M TOR 29 4 3 8 6
M TOR 30 4 3 8 7
M TOR 31 4 3 8 18
M TOR 32 5 3 4 12
M TOR 33 5 3 8 7
M TOR 34 5 3 8 18
M TOR 35 5 6 7 8
M TOR 36 5 6 7 16
M TOR 37 5 6 7 17
M TOR 38 5 6 8 18
M TOR 39 6 7 8 18
M TOR 40 6 8 7 16
M TOR 41 6 8 7 17
M TOR 42 7 6 5 13
M TOR 43 7 6 5 14
M TOR 44 7 8 6 15
M TOR 45 8 3 4 12
M TOR 46 8 3 5 13
M TOR 47 8 3 5 14
M TOR 48 8 6 5 13
M TOR 49 8 6 5 14
M  END
$$$$
