gdb 302	2.5871701	2.0625667	1.8202716	1.1052	72.1	-0.23922	0.07761	0.31683	869.424	0.161254	-422.55798	-422.551584	-422.55064	-422.588394	26.829
 OpenBabel02181911403D

 19 21  0  0  1  0  0  0  0  0999 V2000
    2.6137    0.8576    1.6600 C   0  0  0  0  0  0  0  0  0  0  0  0
    2.4647   -0.1718    0.6664 O   0  0  0  0  0  0  0  0  0  0  0  0
    1.4602    0.2403   -0.2254 C   0  0  1  0  0  0  0  0  0  0  0  0
   -0.0304   -0.1127    0.0990 C   0  0  1  0  0  0  0  0  0  0  0  0
   -0.2076   -0.3931    1.5902 C   0  0  0  0  0  0  0  0  0  0  0  0
    0.1612    0.9011    2.3576 C   0  0  0  0  0  0  0  0  0  0  0  0
    1.3013    1.6563    1.6398 C   0  0  2  0  0  0  0  0  0  0  0  0
    0.9732    1.6522    0.1141 C   0  0  2  0  0  0  0  0  0  0  0  0
   -0.3935    1.2792   -0.1668 O   0  0  0  0  0  0  0  0  0  0  0  0
    2.8116    0.3797    2.6246 H   0  0  0  0  0  0  0  0  0  0  0  0
    3.4779    1.4893    1.4065 H   0  0  0  0  0  0  0  0  0  0  0  0
    1.7520    0.0352   -1.2569 H   0  0  0  0  0  0  0  0  0  0  0  0
   -0.5621   -0.8022   -0.5609 H   0  0  0  0  0  0  0  0  0  0  0  0
   -1.2387   -0.6850    1.8114 H   0  0  0  0  0  0  0  0  0  0  0  0
    0.4425   -1.2279    1.8731 H   0  0  0  0  0  0  0  0  0  0  0  0
   -0.7151    1.5534    2.3796 H   0  0  0  0  0  0  0  0  0  0  0  0
    0.4337    0.6844    3.3951 H   0  0  0  0  0  0  0  0  0  0  0  0
    1.4328    2.6590    2.0540 H   0  0  0  0  0  0  0  0  0  0  0  0
    1.2930    2.5381   -0.4381 H   0  0  0  0  0  0  0  0  0  0  0  0
  1 10  1  0  0  0  0
  2  1  1  0  0  0  0
  3 12  1  6  0  0  0
  3  4  1  0  0  0  0
  3  8  1  0  0  0  0
  3  2  1  0  0  0  0
  4 13  1  6  0  0  0
  4  5  1  0  0  0  0
  5 14  1  0  0  0  0
  5 15  1  0  0  0  0
  5  6  1  0  0  0  0
  6 16  1  0  0  0  0
  6 17  1  0  0  0  0
  7  1  1  0  0  0  0
  7 18  1  1  0  0  0
  7  6  1  0  0  0  0
  8 19  1  6  0  0  0
  8  7  1  0  0  0  0
  9  4  1  0  0  0  0
  9  8  1  0  0  0  0
 11  1  1  0  0  0  0
M TOR 0 0 1 2 3
M TOR 1 0 1 2 7
M TOR 2 0 1 2 11
M TOR 3 0 6 5 4
M TOR 4 0 6 5 15
M TOR 5 0 6 5 16
M TOR 6 0 6 7 2
M TOR 7 0 6 7 8
M TOR 8 0 6 7 18
M TOR 9 1 0 6 5
M TOR 10 1 0 6 7
M TOR 11 1 0 6 17
M TOR 12 1 2 3 4
M TOR 13 1 2 3 8
M TOR 14 1 2 3 12
M TOR 15 1 2 7 6
M TOR 16 1 2 7 8
M TOR 17 1 2 7 18
M TOR 18 2 1 0 6
M TOR 19 2 1 0 9
M TOR 20 2 1 0 10
M TOR 21 2 3 4 5
M TOR 22 2 3 4 13
M TOR 23 2 3 4 14
M TOR 24 2 3 8 7
M TOR 25 2 7 6 5
M TOR 26 2 7 6 17
M TOR 27 3 2 7 6
M TOR 28 3 2 7 18
M TOR 29 3 4 5 6
M TOR 30 3 4 5 15
M TOR 31 3 4 5 16
M TOR 32 3 8 7 6
M TOR 33 3 8 7 18
M TOR 34 4 3 2 7
M TOR 35 4 3 2 11
M TOR 36 4 3 8 7
M TOR 37 4 5 6 7
M TOR 38 4 5 6 17
M TOR 39 5 4 3 8
M TOR 40 5 4 3 12
M TOR 41 5 6 0 9
M TOR 42 5 6 0 10
M TOR 43 5 6 7 8
M TOR 44 5 6 7 18
M TOR 45 6 5 4 13
M TOR 46 6 5 4 14
M TOR 47 6 7 2 11
M TOR 48 7 2 3 12
M TOR 49 7 6 0 9
M TOR 50 7 6 0 10
M TOR 51 7 6 5 15
M TOR 52 7 6 5 16
M TOR 53 7 8 3 12
M TOR 54 8 3 2 11
M TOR 55 8 3 4 13
M TOR 56 8 3 4 14
M TOR 57 8 7 2 11
M TOR 58 8 7 6 17
M  END
$$$$
