gdb 2925	3.025029	1.6816112	1.263032	2.293	74.51	-0.23613	0.06252	0.29865	1021.0519	0.15731	-422.516102	-422.508184	-422.50724	-422.548043	31.22
 OpenBabel02181911413D

 19 21  0  0  1  0  0  0  0  0999 V2000
   -0.0961    0.1376    0.2367 C   0  0  0  0  0  0  0  0  0  0  0  0
    1.4083    0.1194   -0.0132 C   0  0  2  0  0  0  0  0  0  0  0  0
    2.3949   -0.4474    1.0424 C   0  0  1  0  0  0  0  0  0  0  0  0
    3.5319    0.3174    0.3091 C   0  0  2  0  0  0  0  0  0  0  0  0
    4.5501    0.7111    1.2042 O   0  0  0  0  0  0  0  0  0  0  0  0
    3.7935    1.1570    2.3335 C   0  0  0  0  0  0  0  0  0  0  0  0
    2.3665    0.9219    1.8411 C   0  0  2  0  0  0  0  0  0  0  0  0
    1.4148    1.2934    2.7845 O   0  0  0  0  0  0  0  0  0  0  0  0
    2.3368    1.3224    0.3240 C   0  0  2  0  0  0  0  0  0  0  0  0
   -0.5902    0.9045   -0.3703 H   0  0  0  0  0  0  0  0  0  0  0  0
   -0.5332   -0.8271   -0.0430 H   0  0  0  0  0  0  0  0  0  0  0  0
   -0.3643    0.3005    1.2838 H   0  0  0  0  0  0  0  0  0  0  0  0
    1.5916   -0.2701   -1.0229 H   0  0  0  0  0  0  0  0  0  0  0  0
    2.4420   -1.4551    1.4577 H   0  0  0  0  0  0  0  0  0  0  0  0
    3.9405   -0.0475   -0.6311 H   0  0  0  0  0  0  0  0  0  0  0  0
    4.0361    0.5656    3.2246 H   0  0  0  0  0  0  0  0  0  0  0  0
    3.9932    2.2149    2.5425 H   0  0  0  0  0  0  0  0  0  0  0  0
    0.6029    1.5413    2.3364 H   0  0  0  0  0  0  0  0  0  0  0  0
    2.3223    2.3326   -0.0906 H   0  0  0  0  0  0  0  0  0  0  0  0
  1 12  1  0  0  0  0
  2 13  1  6  0  0  0
  2  1  1  0  0  0  0
  2  9  1  0  0  0  0
  2  3  1  0  0  0  0
  3 14  1  1  0  0  0
  3  7  1  0  0  0  0
  4 15  1  6  0  0  0
  4  9  1  0  0  0  0
  4  3  1  0  0  0  0
  4  5  1  0  0  0  0
  5  6  1  0  0  0  0
  6 17  1  0  0  0  0
  6 16  1  0  0  0  0
  7  6  1  0  0  0  0
  7  8  1  1  0  0  0
  9 19  1  6  0  0  0
  9  7  1  0  0  0  0
 10  1  1  0  0  0  0
 11  1  1  0  0  0  0
 18  8  1  0  0  0  0
M TOR 0 0 1 2 3
M TOR 1 0 1 2 6
M TOR 2 0 1 2 13
M TOR 3 0 1 8 3
M TOR 4 0 1 8 6
M TOR 5 0 1 8 18
M TOR 6 1 2 3 4
M TOR 7 1 2 3 8
M TOR 8 1 2 3 14
M TOR 9 1 2 6 5
M TOR 10 1 2 6 7
M TOR 11 1 2 6 8
M TOR 12 1 8 3 4
M TOR 13 1 8 3 14
M TOR 14 1 8 6 5
M TOR 15 1 8 6 7
M TOR 16 2 1 0 9
M TOR 17 2 1 0 10
M TOR 18 2 1 0 11
M TOR 19 2 1 8 18
M TOR 20 2 3 4 5
M TOR 21 2 3 8 6
M TOR 22 2 3 8 18
M TOR 23 2 6 5 4
M TOR 24 2 6 5 15
M TOR 25 2 6 5 16
M TOR 26 2 6 7 17
M TOR 27 2 6 8 18
M TOR 28 3 2 1 12
M TOR 29 3 2 6 5
M TOR 30 3 2 6 7
M TOR 31 3 4 5 6
M TOR 32 3 4 5 15
M TOR 33 3 4 5 16
M TOR 34 3 8 1 12
M TOR 35 3 8 6 5
M TOR 36 3 8 6 7
M TOR 37 4 3 2 6
M TOR 38 4 3 2 13
M TOR 39 4 3 8 6
M TOR 40 4 3 8 18
M TOR 41 4 5 6 7
M TOR 42 4 5 6 8
M TOR 43 5 4 3 8
M TOR 44 5 4 3 14
M TOR 45 5 6 2 13
M TOR 46 5 6 7 17
M TOR 47 5 6 8 18
M TOR 48 6 2 1 12
M TOR 49 6 2 3 14
M TOR 50 6 8 1 12
M TOR 51 6 8 3 14
M TOR 52 7 6 2 13
M TOR 53 7 6 5 15
M TOR 54 7 6 5 16
M TOR 55 7 6 8 18
M TOR 56 8 1 0 9
M TOR 57 8 1 0 10
M TOR 58 8 1 0 11
M TOR 59 8 1 2 13
M TOR 60 8 3 2 13
M TOR 61 8 6 2 13
M TOR 62 8 6 5 15
M TOR 63 8 6 5 16
M TOR 64 8 6 7 17
M  END
$$$$
