
     RDKit          3D

 19 21  0  0  0  0  0  0  0  0999 V2000
    0.5848    1.1537    0.1301 O   0  0  0  0  0  0  0  0  0  0  0  0
    0.2275   -0.1421    0.5972 C   0  0  0  0  0  0  0  0  0  0  0  0
   -1.0698   -0.1701    1.3474 C   0  0  0  0  0  0  0  0  0  0  0  0
   -1.3189    0.2734    2.7965 C   0  0  0  0  0  0  0  0  0  0  0  0
   -2.6612   -0.4898    2.6866 C   0  0  0  0  0  0  0  0  0  0  0  0
   -2.0481   -1.3162    1.4772 C   0  0  0  0  0  0  0  0  0  0  0  0
   -2.4207   -0.1151    0.6231 C   0  0  0  0  0  0  0  0  0  0  0  0
   -3.4726    0.3286    1.6389 C   0  0  0  0  0  0  0  0  0  0  0  0
   -4.7689   -0.1607    1.3796 O   0  0  0  0  0  0  0  0  0  0  0  0
    0.6685    1.7282    0.8978 H   0  0  0  0  0  0  0  0  0  0  0  0
    0.1540   -0.7684   -0.2991 H   0  0  0  0  0  0  0  0  0  0  0  0
    1.0265   -0.5685    1.2257 H   0  0  0  0  0  0  0  0  0  0  0  0
   -0.6169   -0.2147    3.4803 H   0  0  0  0  0  0  0  0  0  0  0  0
   -1.3714    1.3448    3.0284 H   0  0  0  0  0  0  0  0  0  0  0  0
   -3.1685   -0.8942    3.5603 H   0  0  0  0  0  0  0  0  0  0  0  0
   -1.9401   -2.3682    1.2547 H   0  0  0  0  0  0  0  0  0  0  0  0
   -2.4680   -0.0430   -0.4567 H   0  0  0  0  0  0  0  0  0  0  0  0
   -3.5958    1.3987    1.8375 H   0  0  0  0  0  0  0  0  0  0  0  0
   -4.6792   -1.0753    1.0851 H   0  0  0  0  0  0  0  0  0  0  0  0
  1  2  1  0
  2  3  1  0
  3  4  1  0
  4  5  1  0
  5  6  1  0
  6  7  1  0
  7  8  1  0
  8  9  1  0
  6  3  1  0
  7  3  1  0
  8  5  1  0
  1 10  1  0
  2 11  1  0
  2 12  1  0
  4 13  1  0
  4 14  1  0
  5 15  1  0
  6 16  1  0
  7 17  1  0
  8 18  1  0
  9 19  1  0
M  END
$$$$
