
     RDKit          3D

 19 21  0  0  0  0  0  0  0  0999 V2000
    0.1209   -0.2623    0.2939 C   0  0  0  0  0  0  0  0  0  0  0  0
    1.4428    0.3267   -0.1451 C   0  0  0  0  0  0  0  0  0  0  0  0
    1.6448    1.7109    0.3072 O   0  0  0  0  0  0  0  0  0  0  0  0
    2.9493    1.3606    0.7981 C   0  0  0  0  0  0  0  0  0  0  0  0
    2.8990    0.3897    1.9422 C   0  0  0  0  0  0  0  0  0  0  0  0
    2.7668   -0.0985    0.5154 C   0  0  0  0  0  0  0  0  0  0  0  0
    3.8746   -0.6128   -0.1441 O   0  0  0  0  0  0  0  0  0  0  0  0
    4.5606    0.5047   -0.7571 C   0  0  0  0  0  0  0  0  0  0  0  0
    4.2353    1.7667    0.1090 C   0  0  0  0  0  0  0  0  0  0  0  0
    0.0315   -0.2718    1.3834 H   0  0  0  0  0  0  0  0  0  0  0  0
   -0.7105    0.3218   -0.1133 H   0  0  0  0  0  0  0  0  0  0  0  0
    0.0313   -1.2901   -0.0731 H   0  0  0  0  0  0  0  0  0  0  0  0
    1.5430    0.2855   -1.2377 H   0  0  0  0  0  0  0  0  0  0  0  0
    3.8497    0.1484    2.4039 H   0  0  0  0  0  0  0  0  0  0  0  0
    2.0421    0.3966    2.6084 H   0  0  0  0  0  0  0  0  0  0  0  0
    5.6250    0.2571   -0.7975 H   0  0  0  0  0  0  0  0  0  0  0  0
    4.1991    0.6415   -1.7855 H   0  0  0  0  0  0  0  0  0  0  0  0
    5.0351    1.9765    0.8243 H   0  0  0  0  0  0  0  0  0  0  0  0
    4.0902    2.6549   -0.5094 H   0  0  0  0  0  0  0  0  0  0  0  0
  1  2  1  0
  2  3  1  0
  3  4  1  0
  4  5  1  0
  5  6  1  0
  6  7  1  0
  7  8  1  0
  8  9  1  0
  6  2  1  0
  6  4  1  0
  9  4  1  0
  1 10  1  0
  1 11  1  0
  1 12  1  0
  2 13  1  0
  5 14  1  0
  5 15  1  0
  8 16  1  0
  8 17  1  0
  9 18  1  0
  9 19  1  0
M  END
$$$$
