
     RDKit          3D

 19 21  0  0  0  0  0  0  0  0999 V2000
   -0.8543    1.8859    2.6920 O   0  0  0  0  0  0  0  0  0  0  0  0
    0.0339    0.8272    2.3436 C   0  0  0  0  0  0  0  0  0  0  0  0
   -0.6734   -0.1195    1.3462 C   0  0  0  0  0  0  0  0  0  0  0  0
   -0.2634    0.2473   -0.0861 C   0  0  0  0  0  0  0  0  0  0  0  0
   -0.3949    1.7866   -0.2941 C   0  0  0  0  0  0  0  0  0  0  0  0
    1.0543    1.8996    0.2119 C   0  0  0  0  0  0  0  0  0  0  0  0
    1.3125    0.4229   -0.1371 C   0  0  0  0  0  0  0  0  0  0  0  0
    1.9636    0.1422    1.1135 O   0  0  0  0  0  0  0  0  0  0  0  0
    1.3059    1.3300    1.6522 C   0  0  0  0  0  0  0  0  0  0  0  0
   -0.4028    2.4617    3.3182 H   0  0  0  0  0  0  0  0  0  0  0  0
    0.3244    0.2651    3.2431 H   0  0  0  0  0  0  0  0  0  0  0  0
   -0.3915   -1.1525    1.5649 H   0  0  0  0  0  0  0  0  0  0  0  0
   -1.7555   -0.0283    1.4791 H   0  0  0  0  0  0  0  0  0  0  0  0
   -0.7205   -0.4088   -0.8291 H   0  0  0  0  0  0  0  0  0  0  0  0
   -0.4445    2.0552   -1.3536 H   0  0  0  0  0  0  0  0  0  0  0  0
   -1.1846    2.3009    0.2545 H   0  0  0  0  0  0  0  0  0  0  0  0
    1.7059    2.7222   -0.0839 H   0  0  0  0  0  0  0  0  0  0  0  0
    1.8497    0.0397   -1.0061 H   0  0  0  0  0  0  0  0  0  0  0  0
    1.9698    1.9006    2.3103 H   0  0  0  0  0  0  0  0  0  0  0  0
  1  2  1  0
  2  3  1  0
  3  4  1  0
  4  5  1  0
  5  6  1  0
  6  7  1  0
  7  8  1  0
  8  9  1  0
  9  2  1  0
  7  4  1  0
  9  6  1  0
  1 10  1  0
  2 11  1  0
  3 12  1  0
  3 13  1  0
  4 14  1  0
  5 15  1  0
  5 16  1  0
  6 17  1  0
  7 18  1  0
  9 19  1  0
M  END
$$$$
