gdb 3387	2.9487908	1.353703	1.075705	2.3071	75.36	-0.22979	0.08024	0.31003000000000003	1168.4004	0.156656	-422.519139	-422.510938	-422.509994	-422.551741	31.364
 OpenBabel02181911413D

 19 21  0  0  1  0  0  0  0  0999 V2000
   -0.1847    0.1255   -0.1642 C   0  0  0  0  0  0  0  0  0  0  0  0
    1.3242    0.1840   -0.0790 C   0  0  2  0  0  0  0  0  0  0  0  0
    2.1471   -0.9123   -0.6971 C   0  0  1  0  0  0  0  0  0  0  0  0
    3.4580   -0.6241   -1.1170 O   0  0  0  0  0  0  0  0  0  0  0  0
    4.1797   -0.0651   -0.0204 C   0  0  0  0  0  0  0  0  0  0  0  0
    3.4354   -0.4840    1.2480 C   0  0  2  0  0  0  0  0  0  0  0  0
    3.8376   -0.0803    2.5964 C   0  0  0  0  0  0  0  0  0  0  0  0
    4.0803   -1.4126    2.1261 O   0  0  0  0  0  0  0  0  0  0  0  0
    2.0464   -0.8309    0.8043 C   0  0  1  0  0  0  0  0  0  0  0  0
   -0.6532    0.6302    0.6878 H   0  0  0  0  0  0  0  0  0  0  0  0
   -0.5459    0.6042   -1.0807 H   0  0  0  0  0  0  0  0  0  0  0  0
   -0.5397   -0.9107   -0.1686 H   0  0  0  0  0  0  0  0  0  0  0  0
    1.7465    1.1853   -0.1156 H   0  0  0  0  0  0  0  0  0  0  0  0
    1.6857   -1.6889   -1.2962 H   0  0  0  0  0  0  0  0  0  0  0  0
    5.2014   -0.4545   -0.0303 H   0  0  0  0  0  0  0  0  0  0  0  0
    4.2196    1.0302   -0.1082 H   0  0  0  0  0  0  0  0  0  0  0  0
    4.7274    0.5331    2.7406 H   0  0  0  0  0  0  0  0  0  0  0  0
    3.0852    0.0121    3.3788 H   0  0  0  0  0  0  0  0  0  0  0  0
    1.4801   -1.5312    1.4065 H   0  0  0  0  0  0  0  0  0  0  0  0
  1  2  1  0  0  0  0
  1 10  1  0  0  0  0
  2 13  1  6  0  0  0
  2  9  1  0  0  0  0
  3 14  1  6  0  0  0
  3  2  1  0  0  0  0
  3  9  1  0  0  0  0
  4  3  1  0  0  0  0
  4  5  1  0  0  0  0
  5  6  1  0  0  0  0
  6  8  1  1  0  0  0
  6  7  1  0  0  0  0
  7 17  1  0  0  0  0
  7 18  1  0  0  0  0
  8  7  1  0  0  0  0
  9  6  1  0  0  0  0
  9 19  1  1  0  0  0
 11  1  1  0  0  0  0
 12  1  1  0  0  0  0
 15  5  1  0  0  0  0
 16  5  1  0  0  0  0
M TOR 0 0 1 2 3
M TOR 1 0 1 2 8
M TOR 2 0 1 2 13
M TOR 3 0 1 8 5
M TOR 4 0 1 8 18
M TOR 5 1 2 3 4
M TOR 6 1 2 8 5
M TOR 7 1 2 8 18
M TOR 8 1 8 2 3
M TOR 9 1 8 2 13
M TOR 10 1 8 5 4
M TOR 11 1 8 5 6
M TOR 12 1 8 5 7
M TOR 13 2 1 0 9
M TOR 14 2 1 0 10
M TOR 15 2 1 0 11
M TOR 16 2 3 4 5
M TOR 17 2 3 4 14
M TOR 18 2 3 4 15
M TOR 19 2 8 1 12
M TOR 20 2 8 5 4
M TOR 21 2 8 5 6
M TOR 22 2 8 5 7
M TOR 23 3 2 1 12
M TOR 24 3 2 8 5
M TOR 25 3 2 8 18
M TOR 26 3 4 5 6
M TOR 27 3 4 5 7
M TOR 28 3 4 5 8
M TOR 29 4 3 2 8
M TOR 30 4 3 2 13
M TOR 31 4 5 6 7
M TOR 32 4 5 6 16
M TOR 33 4 5 6 17
M TOR 34 4 5 8 18
M TOR 35 5 7 6 16
M TOR 36 5 7 6 17
M TOR 37 5 8 1 12
M TOR 38 5 8 2 13
M TOR 39 6 5 4 14
M TOR 40 6 5 4 15
M TOR 41 6 5 8 18
M TOR 42 6 7 5 8
M TOR 43 7 5 4 14
M TOR 44 7 5 4 15
M TOR 45 7 5 8 18
M TOR 46 8 1 0 9
M TOR 47 8 1 0 10
M TOR 48 8 1 0 11
M TOR 49 8 5 4 14
M TOR 50 8 5 4 15
M TOR 51 8 5 6 16
M TOR 52 8 5 6 17
M  END
$$$$
