gdb 4070	2.7812005	1.624262	1.3415284	1.9035	73.88	-0.23764	0.05987	0.29751	1021.0062	0.155878	-422.499085	-422.490921	-422.489977	-422.531213	32.276
 OpenBabel02181911413D

 19 21  0  0  1  0  0  0  0  0999 V2000
    0.8486    0.9479    0.0744 C   0  0  0  0  0  0  0  0  0  0  0  0
    0.8577   -0.5681    0.2409 C   0  0  1  0  0  0  0  0  0  0  0  0
    1.4244   -1.3688   -0.9796 C   0  0  0  0  0  0  0  0  0  0  0  0
    2.6085   -1.8942   -0.1176 C   0  0  2  0  0  0  0  0  0  0  0  0
    2.3615   -3.2108    0.6605 C   0  0  2  0  0  0  0  0  0  0  0  0
    0.9620   -3.2834    0.9772 O   0  0  0  0  0  0  0  0  0  0  0  0
    1.8028   -2.4902    1.8160 C   0  0  2  0  0  0  0  0  0  0  0  0
    2.0276   -1.1201    1.1240 C   0  0  2  0  0  0  0  0  0  0  0  0
    2.7634   -0.2785    1.9551 O   0  0  0  0  0  0  0  0  0  0  0  0
    0.6253    1.4545    1.0190 H   0  0  0  0  0  0  0  0  0  0  0  0
    1.8124    1.3260   -0.2926 H   0  0  0  0  0  0  0  0  0  0  0  0
    0.0931    1.2512   -0.6576 H   0  0  0  0  0  0  0  0  0  0  0  0
   -0.1249   -0.9140    0.5715 H   0  0  0  0  0  0  0  0  0  0  0  0
    0.7627   -2.1423   -1.3708 H   0  0  0  0  0  0  0  0  0  0  0  0
    1.7465   -0.7239   -1.8021 H   0  0  0  0  0  0  0  0  0  0  0  0
    3.6321   -1.7366   -0.4581 H   0  0  0  0  0  0  0  0  0  0  0  0
    2.8943   -4.1531    0.5978 H   0  0  0  0  0  0  0  0  0  0  0  0
    1.8065   -2.6974    2.8808 H   0  0  0  0  0  0  0  0  0  0  0  0
    3.0328    0.4959    1.4504 H   0  0  0  0  0  0  0  0  0  0  0  0
  1  2  1  0  0  0  0
  1 10  1  0  0  0  0
  2 13  1  1  0  0  0
  2  8  1  0  0  0  0
  3  4  1  0  0  0  0
  3  2  1  0  0  0  0
  4 16  1  6  0  0  0
  4  5  1  0  0  0  0
  4  8  1  0  0  0  0
  5 17  1  1  0  0  0
  5  6  1  0  0  0  0
  5  7  1  0  0  0  0
  6  7  1  0  0  0  0
  7 18  1  1  0  0  0
  8  7  1  0  0  0  0
  8  9  1  1  0  0  0
 11  1  1  0  0  0  0
 12  1  1  0  0  0  0
 14  3  1  0  0  0  0
 15  3  1  0  0  0  0
 19  9  1  0  0  0  0
M TOR 0 0 1 2 3
M TOR 1 0 1 2 13
M TOR 2 0 1 2 14
M TOR 3 0 1 7 3
M TOR 4 0 1 7 6
M TOR 5 0 1 7 8
M TOR 6 1 2 3 4
M TOR 7 1 2 3 7
M TOR 8 1 2 3 15
M TOR 9 1 7 3 4
M TOR 10 1 7 3 15
M TOR 11 1 7 6 4
M TOR 12 1 7 6 5
M TOR 13 1 7 6 17
M TOR 14 1 7 8 18
M TOR 15 2 1 0 9
M TOR 16 2 1 0 10
M TOR 17 2 1 0 11
M TOR 18 2 1 7 6
M TOR 19 2 1 7 8
M TOR 20 2 3 4 5
M TOR 21 2 3 4 6
M TOR 22 2 3 4 16
M TOR 23 2 3 7 6
M TOR 24 2 3 7 8
M TOR 25 3 2 1 12
M TOR 26 3 4 5 6
M TOR 27 3 4 6 7
M TOR 28 3 4 6 17
M TOR 29 3 7 1 12
M TOR 30 3 7 6 5
M TOR 31 3 7 6 17
M TOR 32 3 7 8 18
M TOR 33 4 3 2 13
M TOR 34 4 3 2 14
M TOR 35 4 3 7 8
M TOR 36 4 5 6 7
M TOR 37 4 5 6 17
M TOR 38 4 6 7 8
M TOR 39 5 4 3 7
M TOR 40 5 4 3 15
M TOR 41 5 6 4 16
M TOR 42 5 6 7 8
M TOR 43 6 4 3 15
M TOR 44 6 7 1 12
M TOR 45 6 7 3 15
M TOR 46 6 7 8 18
M TOR 47 7 1 0 9
M TOR 48 7 1 0 10
M TOR 49 7 1 0 11
M TOR 50 7 1 2 13
M TOR 51 7 1 2 14
M TOR 52 7 3 2 13
M TOR 53 7 3 2 14
M TOR 54 7 3 4 16
M TOR 55 7 6 4 16
M TOR 56 8 7 1 12
M TOR 57 8 7 3 15
M TOR 58 8 7 6 17
M  END
$$$$
