
     RDKit          3D

 19 19  0  0  0  0  0  0  0  0999 V2000
    3.5042    0.6371    0.0788 C   0  0  0  0  0  0  0  0  0  0  0  0
    4.6018   -0.0226   -0.7815 C   0  0  0  0  0  0  0  0  0  0  0  0
    4.6859    0.7157   -2.1138 C   0  0  0  0  0  0  0  0  0  0  0  0
    4.4550    0.2390   -3.1946 O   0  0  0  0  0  0  0  0  0  0  0  0
    4.2845   -1.4996   -1.0179 C   0  0  0  0  0  0  0  0  0  0  0  0
    3.7815   -2.2085   -0.1820 O   0  0  0  0  0  0  0  0  0  0  0  0
    5.9654    0.1346   -0.0890 C   0  0  0  0  0  0  0  0  0  0  0  0
    6.3573   -0.7079    1.0967 C   0  0  0  0  0  0  0  0  0  0  0  0
    7.0832   -0.8725   -0.2155 C   0  0  0  0  0  0  0  0  0  0  0  0
    3.4195    0.1004    1.0252 H   0  0  0  0  0  0  0  0  0  0  0  0
    3.7540    1.6822    0.2872 H   0  0  0  0  0  0  0  0  0  0  0  0
    2.5322    0.6062   -0.4222 H   0  0  0  0  0  0  0  0  0  0  0  0
    4.9841    1.7855   -2.0100 H   0  0  0  0  0  0  0  0  0  0  0  0
    4.5643   -1.8900   -2.0149 H   0  0  0  0  0  0  0  0  0  0  0  0
    6.2763    1.1767   -0.0481 H   0  0  0  0  0  0  0  0  0  0  0  0
    6.8715   -0.2196    1.9167 H   0  0  0  0  0  0  0  0  0  0  0  0
    5.6786   -1.4990    1.3951 H   0  0  0  0  0  0  0  0  0  0  0  0
    8.0963   -0.4968   -0.3031 H   0  0  0  0  0  0  0  0  0  0  0  0
    6.9048   -1.7834   -0.7767 H   0  0  0  0  0  0  0  0  0  0  0  0
  1  2  1  0
  2  3  1  0
  3  4  2  0
  2  5  1  0
  5  6  2  0
  2  7  1  0
  7  8  1  0
  8  9  1  0
  9  7  1  0
  1 10  1  0
  1 11  1  0
  1 12  1  0
  3 13  1  0
  5 14  1  0
  7 15  1  0
  8 16  1  0
  8 17  1  0
  9 18  1  0
  9 19  1  0
M  END
$$$$
