gdb 5892	2.0834477	1.2069553	0.9029525	2.4786	78.2	-0.24383	-0.0243	0.21953	1376.7022	0.152324	-422.523588	-422.512685	-422.51174	-422.560565	37.355
 OpenBabel02181911423D

 19 18  0  0  1  0  0  0  0  0999 V2000
    1.3575   -0.2240    1.2621 C   0  0  0  0  0  0  0  0  0  0  0  0
    0.0051   -0.2890    0.8675 O   0  0  0  0  0  0  0  0  0  0  0  0
   -0.6121    0.9715    0.8023 C   0  0  0  0  0  0  0  0  0  0  0  0
   -2.1130    0.8143    0.5716 C   0  0  0  0  0  0  0  0  0  0  0  0
   -2.7440    1.6774    0.0161 O   0  0  0  0  0  0  0  0  0  0  0  0
   -2.7710   -0.4753    1.1075 C   0  0  2  0  0  0  0  0  0  0  0  0
   -4.2384   -0.5796    0.6673 C   0  0  0  0  0  0  0  0  0  0  0  0
   -2.6202   -0.5132    2.5612 C   0  0  0  0  0  0  0  0  0  0  0  0
   -2.5259   -0.5079    3.7598 C   0  0  0  0  0  0  0  0  0  0  0  0
    1.4633    0.2222    2.2626 H   0  0  0  0  0  0  0  0  0  0  0  0
    1.7378   -1.2474    1.2861 H   0  0  0  0  0  0  0  0  0  0  0  0
    1.9599    0.3649    0.5538 H   0  0  0  0  0  0  0  0  0  0  0  0
   -0.4823    1.5276    1.7473 H   0  0  0  0  0  0  0  0  0  0  0  0
   -0.2038    1.5947   -0.0070 H   0  0  0  0  0  0  0  0  0  0  0  0
   -2.1876   -1.3060    0.6895 H   0  0  0  0  0  0  0  0  0  0  0  0
   -4.6779   -1.5063    1.0432 H   0  0  0  0  0  0  0  0  0  0  0  0
   -4.8148    0.2650    1.0493 H   0  0  0  0  0  0  0  0  0  0  0  0
   -4.3063   -0.5691   -0.4232 H   0  0  0  0  0  0  0  0  0  0  0  0
   -2.4387   -0.5231    4.8179 H   0  0  0  0  0  0  0  0  0  0  0  0
  1 11  1  0  0  0  0
  1 10  1  0  0  0  0
  2  1  1  0  0  0  0
  3  2  1  0  0  0  0
  3 13  1  0  0  0  0
  4  3  1  0  0  0  0
  4  6  1  0  0  0  0
  5  4  2  0  0  0  0
  6 15  1  6  0  0  0
  6  8  1  0  0  0  0
  7 16  1  0  0  0  0
  7 17  1  0  0  0  0
  7  6  1  0  0  0  0
  8  9  3  0  0  0  0
  9 19  1  0  0  0  0
 12  1  1  0  0  0  0
 14  3  1  0  0  0  0
 18  7  1  0  0  0  0
M TOR 0 0 1 2 3
M TOR 1 0 1 2 12
M TOR 2 0 1 2 13
M TOR 3 1 2 3 4
M TOR 4 1 2 3 5
M TOR 5 2 1 0 9
M TOR 6 2 1 0 10
M TOR 7 2 1 0 11
M TOR 8 2 3 5 6
M TOR 9 2 3 5 7
M TOR 10 2 3 5 14
M TOR 11 3 5 6 15
M TOR 12 3 5 6 16
M TOR 13 3 5 6 17
M TOR 14 3 5 7 8
M TOR 15 4 3 2 12
M TOR 16 4 3 2 13
M TOR 17 4 3 5 6
M TOR 18 4 3 5 7
M TOR 19 4 3 5 14
M TOR 20 5 3 2 12
M TOR 21 5 3 2 13
M TOR 22 5 7 8 18
M TOR 23 6 5 7 8
M TOR 24 7 5 6 15
M TOR 25 7 5 6 16
M TOR 26 7 5 6 17
M TOR 27 8 7 5 14
M  END
$$$$
