
     RDKit          3D

 19 20  0  0  0  0  0  0  0  0999 V2000
    1.7628    1.5049    2.8214 C   0  0  0  0  0  0  0  0  0  0  0  0
    1.7548    1.1156    1.3716 C   0  0  0  0  0  0  0  0  0  0  0  0
    2.0004    2.0950    0.2181 C   0  0  0  0  0  0  0  0  0  0  0  0
    2.7134    1.0790   -0.5445 O   0  0  0  0  0  0  0  0  0  0  0  0
    2.5591    0.1761    0.5328 C   0  0  0  0  0  0  0  0  0  0  0  0
    1.0611   -0.1337    0.7776 C   0  0  0  0  0  0  0  0  0  0  0  0
    0.0474   -0.0528   -0.3460 C   0  0  0  0  0  0  0  0  0  0  0  0
    0.9135   -1.2817    1.7070 C   0  0  0  0  0  0  0  0  0  0  0  0
    1.6413   -1.5347    2.6429 O   0  0  0  0  0  0  0  0  0  0  0  0
    1.8431    0.6273    3.4631 H   0  0  0  0  0  0  0  0  0  0  0  0
    2.6112    2.1651    3.0329 H   0  0  0  0  0  0  0  0  0  0  0  0
    0.8457    2.0448    3.0846 H   0  0  0  0  0  0  0  0  0  0  0  0
    1.1424    2.5043   -0.3248 H   0  0  0  0  0  0  0  0  0  0  0  0
    2.6851    2.9016    0.5005 H   0  0  0  0  0  0  0  0  0  0  0  0
    3.3403   -0.5435    0.7466 H   0  0  0  0  0  0  0  0  0  0  0  0
   -0.2803   -1.0560   -0.6384 H   0  0  0  0  0  0  0  0  0  0  0  0
   -0.8425    0.5163   -0.0565 H   0  0  0  0  0  0  0  0  0  0  0  0
    0.4867    0.4164   -1.2289 H   0  0  0  0  0  0  0  0  0  0  0  0
    0.0682   -1.9598    1.4517 H   0  0  0  0  0  0  0  0  0  0  0  0
  1  2  1  0
  2  3  1  0
  3  4  1  0
  4  5  1  0
  5  6  1  0
  6  7  1  0
  6  8  1  0
  8  9  2  0
  5  2  1  0
  6  2  1  0
  1 10  1  0
  1 11  1  0
  1 12  1  0
  3 13  1  0
  3 14  1  0
  5 15  1  0
  7 16  1  0
  7 17  1  0
  7 18  1  0
  8 19  1  0
M  END
$$$$
