
     RDKit          3D

 19 20  0  0  0  0  0  0  0  0999 V2000
    1.3863    0.1747    0.6211 C   0  0  0  0  0  0  0  0  0  0  0  0
   -0.0374   -0.1522    0.3190 C   0  0  0  0  0  0  0  0  0  0  0  0
   -0.7146   -1.3028    0.3985 C   0  0  0  0  0  0  0  0  0  0  0  0
   -2.1595   -0.9677    0.0467 C   0  0  0  0  0  0  0  0  0  0  0  0
   -2.7826   -0.2112    1.2582 C   0  0  0  0  0  0  0  0  0  0  0  0
   -1.9784    1.1239    1.2061 C   0  0  0  0  0  0  0  0  0  0  0  0
   -1.2504    1.4485    2.3740 O   0  0  0  0  0  0  0  0  0  0  0  0
   -1.0968    0.8781   -0.0755 C   0  0  0  0  0  0  0  0  0  0  0  0
   -1.9958    0.1177   -0.8846 O   0  0  0  0  0  0  0  0  0  0  0  0
    1.4516    0.9457    1.3983 H   0  0  0  0  0  0  0  0  0  0  0  0
    1.9433   -0.7045    0.9567 H   0  0  0  0  0  0  0  0  0  0  0  0
    1.8921    0.5826   -0.2632 H   0  0  0  0  0  0  0  0  0  0  0  0
   -0.3567   -2.2714    0.7232 H   0  0  0  0  0  0  0  0  0  0  0  0
   -2.7666   -1.7605   -0.3885 H   0  0  0  0  0  0  0  0  0  0  0  0
   -3.8497   -0.0435    1.0963 H   0  0  0  0  0  0  0  0  0  0  0  0
   -2.6560   -0.7274    2.2134 H   0  0  0  0  0  0  0  0  0  0  0  0
   -2.6399    1.9743    1.0299 H   0  0  0  0  0  0  0  0  0  0  0  0
   -0.7589    0.6618    2.6342 H   0  0  0  0  0  0  0  0  0  0  0  0
   -0.7601    1.7757   -0.5935 H   0  0  0  0  0  0  0  0  0  0  0  0
  1  2  1  0
  2  3  2  0
  3  4  1  0
  4  5  1  0
  5  6  1  0
  6  7  1  0
  6  8  1  0
  8  9  1  0
  8  2  1  0
  9  4  1  0
  1 10  1  0
  1 11  1  0
  1 12  1  0
  3 13  1  0
  4 14  1  0
  5 15  1  0
  5 16  1  0
  6 17  1  0
  7 18  1  0
  8 19  1  0
M  END
$$$$
