gdb 786	2.793809	1.2427864	1.0649156	3.2102	75.5	-0.25055	-0.02746	0.22309	1190.1237	0.156353	-422.527123	-422.518425	-422.517481	-422.560936	31.71
 OpenBabel02181911403D

 19 20  0  0  0  0  0  0  0  0999 V2000
    0.7859    0.0610    0.9117 O   0  0  0  0  0  0  0  0  0  0  0  0
    0.2879   -0.0474   -0.1853 C   0  0  0  0  0  0  0  0  0  0  0  0
   -0.5915    0.9863   -0.8095 C   0  0  0  0  0  0  0  0  0  0  0  0
   -1.4494    1.7774    0.1763 C   0  0  0  0  0  0  0  0  0  0  0  0
   -0.2553    2.4273   -0.4300 C   0  0  0  0  0  0  0  0  0  0  0  0
   -1.1369    0.7001   -2.1905 C   0  0  0  0  0  0  0  0  0  0  0  0
   -1.7738   -0.6962   -2.4042 C   0  0  0  0  0  0  0  0  0  0  0  0
   -0.6453   -1.1352   -3.1896 O   0  0  0  0  0  0  0  0  0  0  0  0
   -0.1157    0.2062   -3.2460 C   0  0  0  0  0  0  0  0  0  0  0  0
    0.4668   -0.9528   -0.8032 H   0  0  0  0  0  0  0  0  0  0  0  0
   -2.4361    2.0730   -0.1635 H   0  0  0  0  0  0  0  0  0  0  0  0
   -1.3811    1.4698    1.2132 H   0  0  0  0  0  0  0  0  0  0  0  0
   -0.4010    3.1805   -1.1967 H   0  0  0  0  0  0  0  0  0  0  0  0
    0.6181    2.5579    0.1982 H   0  0  0  0  0  0  0  0  0  0  0  0
   -1.7582    1.5370   -2.5173 H   0  0  0  0  0  0  0  0  0  0  0  0
   -1.9227   -1.3136   -1.5106 H   0  0  0  0  0  0  0  0  0  0  0  0
   -2.7011   -0.6896   -2.9920 H   0  0  0  0  0  0  0  0  0  0  0  0
    0.9434    0.2462   -2.9657 H   0  0  0  0  0  0  0  0  0  0  0  0
   -0.2381    0.6507   -4.2425 H   0  0  0  0  0  0  0  0  0  0  0  0
  2  1  2  0  0  0  0
  3  5  1  0  0  0  0
  3  2  1  0  0  0  0
  3  4  1  0  0  0  0
  4 12  1  0  0  0  0
  5  4  1  0  0  0  0
  5 14  1  0  0  0  0
  6  3  1  0  0  0  0
  7  6  1  0  0  0  0
  7 16  1  0  0  0  0
  8  7  1  0  0  0  0
  9  8  1  0  0  0  0
  9 18  1  0  0  0  0
  9  6  1  0  0  0  0
 10  2  1  0  0  0  0
 11  4  1  0  0  0  0
 13  5  1  0  0  0  0
 15  6  1  0  0  0  0
 17  7  1  0  0  0  0
 19  9  1  0  0  0  0
M TOR 0 0 1 2 3
M TOR 1 0 1 2 4
M TOR 2 0 1 2 5
M TOR 3 1 2 3 4
M TOR 4 1 2 3 10
M TOR 5 1 2 3 11
M TOR 6 1 2 4 12
M TOR 7 1 2 4 13
M TOR 8 1 2 5 6
M TOR 9 1 2 5 8
M TOR 10 1 2 5 14
M TOR 11 2 3 4 12
M TOR 12 2 3 4 13
M TOR 13 2 4 3 10
M TOR 14 2 4 3 11
M TOR 15 2 5 6 7
M TOR 16 2 5 6 15
M TOR 17 2 5 6 16
M TOR 18 2 5 8 7
M TOR 19 2 5 8 17
M TOR 20 2 5 8 18
M TOR 21 3 2 1 9
M TOR 22 3 2 5 6
M TOR 23 3 2 5 8
M TOR 24 3 2 5 14
M TOR 25 3 4 2 5
M TOR 26 4 2 1 9
M TOR 27 4 2 5 6
M TOR 28 4 2 5 8
M TOR 29 4 2 5 14
M TOR 30 5 2 1 9
M TOR 31 5 2 3 10
M TOR 32 5 2 3 11
M TOR 33 5 2 4 12
M TOR 34 5 2 4 13
M TOR 35 5 6 7 8
M TOR 36 6 5 8 17
M TOR 37 6 5 8 18
M TOR 38 6 7 8 17
M TOR 39 6 7 8 18
M TOR 40 7 6 5 14
M TOR 41 7 8 5 14
M TOR 42 8 5 6 15
M TOR 43 8 5 6 16
M TOR 44 8 7 6 15
M TOR 45 8 7 6 16
M  END
$$$$
