gdb 832	4.9531179	0.8902488	0.8754594	3.0755	76.43	-0.24484	-0.0327	0.21214	1372.2198	0.155657	-422.537629	-422.528954	-422.52801	-422.572079	31.634
 OpenBabel02181911403D

 19 20  0  0  1  0  0  0  0  0999 V2000
    1.3689   -0.0890    0.3256 O   0  0  0  0  0  0  0  0  0  0  0  0
    0.2224   -0.0789   -0.0387 C   0  0  0  0  0  0  0  0  0  0  0  0
   -0.3093    0.8067   -1.1460 C   0  0  2  0  0  0  0  0  0  0  0  0
   -1.0768    2.0629   -0.6559 C   0  0  0  0  0  0  0  0  0  0  0  0
   -2.2829    1.4327   -1.3874 C   0  0  0  0  0  0  0  0  0  0  0  0
   -3.6308    1.2345   -0.6641 C   0  0  0  0  0  0  0  0  0  0  0  0
   -4.2022    2.4080   -1.5087 C   0  0  0  0  0  0  0  0  0  0  0  0
   -3.0184    2.2141   -2.4973 C   0  0  0  0  0  0  0  0  0  0  0  0
   -1.5024    0.2737   -1.7463 O   0  0  0  0  0  0  0  0  0  0  0  0
   -0.5626   -0.7127    0.4350 H   0  0  0  0  0  0  0  0  0  0  0  0
    0.4855    0.9993   -1.8749 H   0  0  0  0  0  0  0  0  0  0  0  0
   -1.1856    2.1430    0.4283 H   0  0  0  0  0  0  0  0  0  0  0  0
   -0.7107    3.0100   -1.0537 H   0  0  0  0  0  0  0  0  0  0  0  0
   -4.0698    0.2756   -0.9548 H   0  0  0  0  0  0  0  0  0  0  0  0
   -3.6409    1.3152    0.4261 H   0  0  0  0  0  0  0  0  0  0  0  0
   -5.2105    2.2904   -1.9082 H   0  0  0  0  0  0  0  0  0  0  0  0
   -4.1463    3.3626   -0.9794 H   0  0  0  0  0  0  0  0  0  0  0  0
   -3.2804    1.5370   -3.3154 H   0  0  0  0  0  0  0  0  0  0  0  0
   -2.5267    3.0988   -2.9105 H   0  0  0  0  0  0  0  0  0  0  0  0
  2  1  2  0  0  0  0
  2 10  1  0  0  0  0
  3 11  1  6  0  0  0
  3  4  1  0  0  0  0
  3  2  1  0  0  0  0
  4 12  1  0  0  0  0
  5  6  1  0  0  0  0
  5  4  1  0  0  0  0
  6 15  1  0  0  0  0
  7 17  1  0  0  0  0
  7  6  1  0  0  0  0
  8  7  1  0  0  0  0
  8  5  1  0  0  0  0
  9  5  1  0  0  0  0
  9  3  1  0  0  0  0
 13  4  1  0  0  0  0
 14  6  1  0  0  0  0
 16  7  1  0  0  0  0
 18  8  1  0  0  0  0
 19  8  1  0  0  0  0
M TOR 0 0 1 2 3
M TOR 1 0 1 2 8
M TOR 2 0 1 2 10
M TOR 3 1 2 3 4
M TOR 4 1 2 3 11
M TOR 5 1 2 3 12
M TOR 6 1 2 8 4
M TOR 7 2 3 4 5
M TOR 8 2 3 4 7
M TOR 9 2 3 4 8
M TOR 10 2 8 4 5
M TOR 11 2 8 4 7
M TOR 12 3 2 1 9
M TOR 13 3 4 5 6
M TOR 14 3 4 5 13
M TOR 15 3 4 5 14
M TOR 16 3 4 7 6
M TOR 17 3 4 7 17
M TOR 18 3 4 7 18
M TOR 19 4 3 2 10
M TOR 20 4 5 6 7
M TOR 21 4 5 6 15
M TOR 22 4 5 6 16
M TOR 23 4 7 6 15
M TOR 24 4 7 6 16
M TOR 25 4 8 2 10
M TOR 26 5 4 3 11
M TOR 27 5 4 3 12
M TOR 28 5 4 7 17
M TOR 29 5 4 7 18
M TOR 30 5 6 7 17
M TOR 31 5 6 7 18
M TOR 32 6 5 4 8
M TOR 33 6 7 4 8
M TOR 34 7 4 3 11
M TOR 35 7 4 3 12
M TOR 36 7 4 5 13
M TOR 37 7 4 5 14
M TOR 38 7 6 5 13
M TOR 39 7 6 5 14
M TOR 40 8 2 1 9
M TOR 41 8 2 3 11
M TOR 42 8 2 3 12
M TOR 43 8 4 3 11
M TOR 44 8 4 3 12
M TOR 45 8 4 5 13
M TOR 46 8 4 5 14
M TOR 47 8 4 7 17
M TOR 48 8 4 7 18
M  END
$$$$
