
     RDKit          3D

 19 21  0  0  0  0  0  0  0  0999 V2000
    0.8943    1.0243    0.1917 O   0  0  0  0  0  0  0  0  0  0  0  0
    0.2465   -0.2305    0.3722 C   0  0  0  0  0  0  0  0  0  0  0  0
   -1.0802   -0.1069    1.0532 C   0  0  0  0  0  0  0  0  0  0  0  0
   -2.2363    0.2411    0.2682 O   0  0  0  0  0  0  0  0  0  0  0  0
   -2.2842   -0.9610    1.0427 C   0  0  0  0  0  0  0  0  0  0  0  0
   -2.6473   -0.5697    2.4869 C   0  0  0  0  0  0  0  0  0  0  0  0
   -1.3908    0.3367    2.4786 C   0  0  0  0  0  0  0  0  0  0  0  0
   -1.1901    1.6973    3.0683 C   0  0  0  0  0  0  0  0  0  0  0  0
   -0.4024    0.5147    3.5935 C   0  0  0  0  0  0  0  0  0  0  0  0
    1.2447    1.3057    1.0420 H   0  0  0  0  0  0  0  0  0  0  0  0
    0.0896   -0.6437   -0.6284 H   0  0  0  0  0  0  0  0  0  0  0  0
    0.8844   -0.9309    0.9317 H   0  0  0  0  0  0  0  0  0  0  0  0
   -2.4896   -1.8866    0.5166 H   0  0  0  0  0  0  0  0  0  0  0  0
   -3.6162   -0.0766    2.6002 H   0  0  0  0  0  0  0  0  0  0  0  0
   -2.5673   -1.4013    3.1927 H   0  0  0  0  0  0  0  0  0  0  0  0
   -0.6760    2.4400    2.4675 H   0  0  0  0  0  0  0  0  0  0  0  0
   -1.9762    2.1005    3.6981 H   0  0  0  0  0  0  0  0  0  0  0  0
    0.6583    0.4553    3.3661 H   0  0  0  0  0  0  0  0  0  0  0  0
   -0.6585    0.1209    4.5719 H   0  0  0  0  0  0  0  0  0  0  0  0
  1  2  1  0
  2  3  1  0
  3  4  1  0
  4  5  1  0
  5  6  1  0
  6  7  1  0
  7  8  1  0
  8  9  1  0
  5  3  1  0
  9  7  1  0
  7  3  1  0
  1 10  1  0
  2 11  1  0
  2 12  1  0
  5 13  1  0
  6 14  1  0
  6 15  1  0
  8 16  1  0
  8 17  1  0
  9 18  1  0
  9 19  1  0
M  END
$$$$
