gdb 2196	2.8270911	1.8755181	1.6150918	1.0365	72.65	-0.23223	0.08003	0.31226	907.7916	0.160053	-422.577275	-422.570522	-422.569578	-422.607806	28.731
 OpenBabel02181911413D

 19 21  0  0  1  0  0  0  0  0999 V2000
   -0.6081    0.8985    0.2598 O   0  0  0  0  0  0  0  0  0  0  0  0
   -1.8611    0.2918    0.4052 C   0  0  2  0  0  0  0  0  0  0  0  0
   -2.9029    0.7021   -0.6492 C   0  0  0  0  0  0  0  0  0  0  0  0
   -3.5015   -0.7235   -0.5325 C   0  0  2  0  0  0  0  0  0  0  0  0
   -4.3779   -0.8862    0.7307 C   0  0  0  0  0  0  0  0  0  0  0  0
   -3.2863   -0.9971    1.8180 C   0  0  2  0  0  0  0  0  0  0  0  0
   -2.4618    0.3071    1.8345 C   0  0  0  0  0  0  0  0  0  0  0  0
   -2.3638   -1.9313    1.2318 O   0  0  0  0  0  0  0  0  0  0  0  0
   -2.1209   -1.2205    0.0339 C   0  0  2  0  0  0  0  0  0  0  0  0
   -0.0299    0.5732    0.9586 H   0  0  0  0  0  0  0  0  0  0  0  0
   -3.5498    1.5547   -0.4224 H   0  0  0  0  0  0  0  0  0  0  0  0
   -2.4202    0.8603   -1.6175 H   0  0  0  0  0  0  0  0  0  0  0  0
   -3.9155   -1.1831   -1.4287 H   0  0  0  0  0  0  0  0  0  0  0  0
   -5.0657   -0.0505    0.8886 H   0  0  0  0  0  0  0  0  0  0  0  0
   -4.9555   -1.8136    0.6943 H   0  0  0  0  0  0  0  0  0  0  0  0
   -3.6130   -1.3657    2.7904 H   0  0  0  0  0  0  0  0  0  0  0  0
   -3.0467    1.2062    2.0442 H   0  0  0  0  0  0  0  0  0  0  0  0
   -1.6627    0.2262    2.5801 H   0  0  0  0  0  0  0  0  0  0  0  0
   -1.4158   -1.7359   -0.6147 H   0  0  0  0  0  0  0  0  0  0  0  0
  1 10  1  0  0  0  0
  2  1  1  6  0  0  0
  2  7  1  0  0  0  0
  3  4  1  0  0  0  0
  3 11  1  0  0  0  0
  3  2  1  0  0  0  0
  4 13  1  6  0  0  0
  4  9  1  0  0  0  0
  4  5  1  0  0  0  0
  5 14  1  0  0  0  0
  5  6  1  0  0  0  0
  6  7  1  0  0  0  0
  6 16  1  1  0  0  0
  7 17  1  0  0  0  0
  7 18  1  0  0  0  0
  8  6  1  0  0  0  0
  9 19  1  6  0  0  0
  9  2  1  0  0  0  0
  9  8  1  0  0  0  0
 12  3  1  0  0  0  0
 15  5  1  0  0  0  0
M TOR 0 0 1 2 3
M TOR 1 0 1 2 10
M TOR 2 0 1 2 11
M TOR 3 0 1 6 5
M TOR 4 0 1 6 16
M TOR 5 0 1 6 17
M TOR 6 0 1 8 3
M TOR 7 0 1 8 7
M TOR 8 0 1 8 18
M TOR 9 1 2 3 4
M TOR 10 1 2 3 8
M TOR 11 1 2 3 12
M TOR 12 1 6 5 4
M TOR 13 1 6 5 7
M TOR 14 1 6 5 15
M TOR 15 1 8 3 4
M TOR 16 1 8 3 12
M TOR 17 1 8 7 5
M TOR 18 2 1 0 9
M TOR 19 2 1 6 5
M TOR 20 2 1 6 16
M TOR 21 2 1 6 17
M TOR 22 2 1 8 7
M TOR 23 2 1 8 18
M TOR 24 2 3 4 5
M TOR 25 2 3 4 13
M TOR 26 2 3 4 14
M TOR 27 2 3 8 7
M TOR 28 2 3 8 18
M TOR 29 3 2 1 6
M TOR 30 3 4 5 6
M TOR 31 3 4 5 7
M TOR 32 3 4 5 15
M TOR 33 3 8 1 6
M TOR 34 3 8 7 5
M TOR 35 4 3 2 10
M TOR 36 4 3 2 11
M TOR 37 4 3 8 7
M TOR 38 4 3 8 18
M TOR 39 4 5 6 16
M TOR 40 4 5 6 17
M TOR 41 4 5 7 8
M TOR 42 5 4 3 8
M TOR 43 5 4 3 12
M TOR 44 5 6 1 8
M TOR 45 5 7 8 18
M TOR 46 6 1 0 9
M TOR 47 6 1 2 10
M TOR 48 6 1 2 11
M TOR 49 6 1 8 7
M TOR 50 6 1 8 18
M TOR 51 6 5 4 13
M TOR 52 6 5 4 14
M TOR 53 6 5 7 8
M TOR 54 7 5 4 13
M TOR 55 7 5 4 14
M TOR 56 7 5 6 16
M TOR 57 7 5 6 17
M TOR 58 7 8 3 12
M TOR 59 8 1 0 9
M TOR 60 8 1 2 10
M TOR 61 8 1 2 11
M TOR 62 8 1 6 16
M TOR 63 8 1 6 17
M TOR 64 8 3 2 10
M TOR 65 8 3 2 11
M TOR 66 8 3 4 13
M TOR 67 8 3 4 14
M TOR 68 8 7 5 15
M  END
$$$$
