
     RDKit          3D

 19 20  0  0  0  0  0  0  0  0999 V2000
   -2.1597   -2.8513    1.4568 C   0  0  0  0  0  0  0  0  0  0  0  0
   -2.8355   -1.6458    0.8435 C   0  0  0  0  0  0  0  0  0  0  0  0
   -3.1272   -1.6030   -0.6511 C   0  0  0  0  0  0  0  0  0  0  0  0
   -2.0887   -0.7058   -0.0667 C   0  0  0  0  0  0  0  0  0  0  0  0
   -2.1738    0.8108    0.0108 C   0  0  0  0  0  0  0  0  0  0  0  0
   -0.7495    1.1833    0.4380 C   0  0  0  0  0  0  0  0  0  0  0  0
    0.0936    0.0141   -0.0638 C   0  0  0  0  0  0  0  0  0  0  0  0
    1.2798   -0.0511   -0.1966 O   0  0  0  0  0  0  0  0  0  0  0  0
   -0.7314   -1.0313   -0.3627 O   0  0  0  0  0  0  0  0  0  0  0  0
   -1.6886   -2.5971    2.4125 H   0  0  0  0  0  0  0  0  0  0  0  0
   -2.8838   -3.6511    1.6433 H   0  0  0  0  0  0  0  0  0  0  0  0
   -1.3800   -3.2412    0.7980 H   0  0  0  0  0  0  0  0  0  0  0  0
   -3.5795   -1.1661    1.4761 H   0  0  0  0  0  0  0  0  0  0  0  0
   -2.7702   -2.4376   -1.2455 H   0  0  0  0  0  0  0  0  0  0  0  0
   -4.0539   -1.1592   -1.0008 H   0  0  0  0  0  0  0  0  0  0  0  0
   -2.3994    1.2295   -0.9763 H   0  0  0  0  0  0  0  0  0  0  0  0
   -2.9467    1.1468    0.7047 H   0  0  0  0  0  0  0  0  0  0  0  0
   -0.3726    2.1227    0.0322 H   0  0  0  0  0  0  0  0  0  0  0  0
   -0.6427    1.2268    1.5278 H   0  0  0  0  0  0  0  0  0  0  0  0
  1  2  1  0
  2  3  1  0
  3  4  1  0
  4  5  1  0
  5  6  1  0
  6  7  1  0
  7  8  2  0
  7  9  1  0
  4  2  1  0
  9  4  1  0
  1 10  1  0
  1 11  1  0
  1 12  1  0
  2 13  1  0
  3 14  1  0
  3 15  1  0
  5 16  1  0
  5 17  1  0
  6 18  1  0
  6 19  1  0
M  END
$$$$
