
     RDKit          3D

 19 21  0  0  0  0  0  0  0  0999 V2000
   -0.8253   -1.1822    0.2758 C   0  0  0  0  0  0  0  0  0  0  0  0
   -0.6257    0.3049    0.4606 C   0  0  0  0  0  0  0  0  0  0  0  0
   -1.1980    1.2922   -0.5571 C   0  0  0  0  0  0  0  0  0  0  0  0
   -0.3874    1.2734   -1.8579 C   0  0  0  0  0  0  0  0  0  0  0  0
    0.8747    1.9097   -1.6702 O   0  0  0  0  0  0  0  0  0  0  0  0
    1.8587    0.8841   -1.5403 C   0  0  0  0  0  0  0  0  0  0  0  0
    1.0114   -0.3881   -1.3959 C   0  0  0  0  0  0  0  0  0  0  0  0
   -0.0995   -0.0588   -2.2396 O   0  0  0  0  0  0  0  0  0  0  0  0
    0.5314   -0.5792    0.0319 C   0  0  0  0  0  0  0  0  0  0  0  0
   -0.9603   -1.7943    1.1607 H   0  0  0  0  0  0  0  0  0  0  0  0
   -1.3878   -1.5031   -0.5941 H   0  0  0  0  0  0  0  0  0  0  0  0
   -0.6108    0.6567    1.4866 H   0  0  0  0  0  0  0  0  0  0  0  0
   -2.2459    1.0606   -0.7828 H   0  0  0  0  0  0  0  0  0  0  0  0
   -1.1699    2.3110   -0.1587 H   0  0  0  0  0  0  0  0  0  0  0  0
   -0.9133    1.7605   -2.6852 H   0  0  0  0  0  0  0  0  0  0  0  0
    2.4904    0.8492   -2.4374 H   0  0  0  0  0  0  0  0  0  0  0  0
    2.4854    1.0864   -0.6657 H   0  0  0  0  0  0  0  0  0  0  0  0
    1.4876   -1.2829   -1.8046 H   0  0  0  0  0  0  0  0  0  0  0  0
    1.3171   -0.7783    0.7548 H   0  0  0  0  0  0  0  0  0  0  0  0
  1  2  1  0
  2  3  1  0
  3  4  1  0
  4  5  1  0
  5  6  1  0
  6  7  1  0
  7  8  1  0
  7  9  1  0
  9  1  1  0
  9  2  1  0
  8  4  1  0
  1 10  1  0
  1 11  1  0
  2 12  1  0
  3 13  1  0
  3 14  1  0
  4 15  1  0
  6 16  1  0
  6 17  1  0
  7 18  1  0
  9 19  1  0
M  END
$$$$
