
     RDKit          3D

 19 21  0  0  0  0  0  0  0  0999 V2000
    0.3012    0.0054    0.2364 O   0  0  0  0  0  0  0  0  0  0  0  0
   -0.4825    0.7941    1.1061 C   0  0  0  0  0  0  0  0  0  0  0  0
   -1.5527    0.0327    1.9348 C   0  0  0  0  0  0  0  0  0  0  0  0
   -0.7543   -0.6296    3.0788 C   0  0  0  0  0  0  0  0  0  0  0  0
   -0.6198    0.8684    3.4337 C   0  0  0  0  0  0  0  0  0  0  0  0
   -1.9657    1.0707    2.8786 O   0  0  0  0  0  0  0  0  0  0  0  0
    0.2510    1.4274    2.3155 C   0  0  0  0  0  0  0  0  0  0  0  0
    0.8519    2.7972    2.3226 C   0  0  0  0  0  0  0  0  0  0  0  0
    1.7441    1.5770    2.3852 C   0  0  0  0  0  0  0  0  0  0  0  0
    0.8296   -0.5967    0.7712 H   0  0  0  0  0  0  0  0  0  0  0  0
   -0.9608    1.5458    0.4738 H   0  0  0  0  0  0  0  0  0  0  0  0
   -2.3697   -0.4531    1.4027 H   0  0  0  0  0  0  0  0  0  0  0  0
   -1.4073   -1.1627    3.7701 H   0  0  0  0  0  0  0  0  0  0  0  0
    0.1472   -1.2101    2.8597 H   0  0  0  0  0  0  0  0  0  0  0  0
   -0.4856    1.2427    4.4490 H   0  0  0  0  0  0  0  0  0  0  0  0
    0.8327    3.3650    1.3979 H   0  0  0  0  0  0  0  0  0  0  0  0
    0.7467    3.4010    3.2188 H   0  0  0  0  0  0  0  0  0  0  0  0
    2.3114    1.3188    1.4965 H   0  0  0  0  0  0  0  0  0  0  0  0
    2.2468    1.3548    3.3215 H   0  0  0  0  0  0  0  0  0  0  0  0
  1  2  1  0
  2  3  1  0
  3  4  1  0
  4  5  1  0
  5  6  1  0
  5  7  1  0
  7  8  1  0
  8  9  1  0
  7  2  1  0
  9  7  1  0
  6  3  1  0
  1 10  1  0
  2 11  1  0
  3 12  1  0
  4 13  1  0
  4 14  1  0
  5 15  1  0
  8 16  1  0
  8 17  1  0
  9 18  1  0
  9 19  1  0
M  END
$$$$
