
     RDKit          3D

 19 21  0  0  0  0  0  0  0  0999 V2000
    1.3343    0.0949   -0.2088 C   0  0  0  0  0  0  0  0  0  0  0  0
   -0.0599    0.1569    0.0142 O   0  0  0  0  0  0  0  0  0  0  0  0
   -0.3997    0.6235    1.3051 C   0  0  0  0  0  0  0  0  0  0  0  0
   -1.8991    0.8660    1.4828 C   0  0  0  0  0  0  0  0  0  0  0  0
   -1.6567    2.0107    2.5236 C   0  0  0  0  0  0  0  0  0  0  0  0
   -2.5535    3.0107    1.7536 C   0  0  0  0  0  0  0  0  0  0  0  0
   -1.8232    2.2177    0.6687 C   0  0  0  0  0  0  0  0  0  0  0  0
   -1.9703    2.3900   -0.6856 O   0  0  0  0  0  0  0  0  0  0  0  0
   -0.4788    2.1522    1.5034 C   0  0  0  0  0  0  0  0  0  0  0  0
    1.8257   -0.5722    0.5151 H   0  0  0  0  0  0  0  0  0  0  0  0
    1.4871   -0.3032   -1.2147 H   0  0  0  0  0  0  0  0  0  0  0  0
    1.8067    1.0857   -0.1420 H   0  0  0  0  0  0  0  0  0  0  0  0
    0.1229    0.0397    2.0775 H   0  0  0  0  0  0  0  0  0  0  0  0
   -2.7194    0.1479    1.4839 H   0  0  0  0  0  0  0  0  0  0  0  0
   -1.5510    1.8759    3.5971 H   0  0  0  0  0  0  0  0  0  0  0  0
   -3.6349    2.8600    1.8291 H   0  0  0  0  0  0  0  0  0  0  0  0
   -2.2983    4.0710    1.8451 H   0  0  0  0  0  0  0  0  0  0  0  0
   -1.4269    1.7074   -1.1024 H   0  0  0  0  0  0  0  0  0  0  0  0
    0.3097    2.9050    1.5336 H   0  0  0  0  0  0  0  0  0  0  0  0
  1  2  1  0
  2  3  1  0
  3  4  1  0
  4  5  1  0
  5  6  1  0
  6  7  1  0
  7  8  1  0
  7  9  1  0
  9  3  1  0
  7  4  1  0
  9  5  1  0
  1 10  1  0
  1 11  1  0
  1 12  1  0
  3 13  1  0
  4 14  1  0
  5 15  1  0
  6 16  1  0
  6 17  1  0
  8 18  1  0
  9 19  1  0
M  END
$$$$
