gdb 136	3.4115695	1.5475242	1.2286397	0.2982	75.08	-0.23128	0.07957	0.31085	1038.6086	0.15903	-422.511202	-422.503936	-422.502992	-422.54288	28.786
 OpenBabel02181911403D

 19 21  0  0  1  0  0  0  0  0999 V2000
    0.1197    0.6796    0.8241 C   0  0  0  0  0  0  0  0  0  0  0  0
   -0.3469    1.6040   -0.2618 C   0  0  2  0  0  0  0  0  0  0  0  0
   -0.8916    0.1799   -0.1721 C   0  0  1  0  0  0  0  0  0  0  0  0
   -0.1117   -0.2150   -1.4456 C   0  0  1  0  0  0  0  0  0  0  0  0
   -0.7987   -0.8166   -2.5135 O   0  0  0  0  0  0  0  0  0  0  0  0
   -1.5665    0.0603   -3.3251 C   0  0  0  0  0  0  0  0  0  0  0  0
   -0.7174    1.2406   -3.7529 C   0  0  0  0  0  0  0  0  0  0  0  0
   -0.3658    2.0082   -2.6151 O   0  0  0  0  0  0  0  0  0  0  0  0
    0.3241    1.2941   -1.6022 C   0  0  1  0  0  0  0  0  0  0  0  0
    1.1323    0.2790    0.8204 H   0  0  0  0  0  0  0  0  0  0  0  0
   -0.2613    0.9035    1.8151 H   0  0  0  0  0  0  0  0  0  0  0  0
   -0.8345    2.5497   -0.0594 H   0  0  0  0  0  0  0  0  0  0  0  0
   -1.8725   -0.1819    0.1104 H   0  0  0  0  0  0  0  0  0  0  0  0
    0.7241   -0.8907   -1.2330 H   0  0  0  0  0  0  0  0  0  0  0  0
   -1.8941   -0.5326   -4.1843 H   0  0  0  0  0  0  0  0  0  0  0  0
   -2.4549    0.4261   -2.7877 H   0  0  0  0  0  0  0  0  0  0  0  0
    0.1764    0.8792   -4.2867 H   0  0  0  0  0  0  0  0  0  0  0  0
   -1.2728    1.9115   -4.4154 H   0  0  0  0  0  0  0  0  0  0  0  0
    1.4045    1.4831   -1.6925 H   0  0  0  0  0  0  0  0  0  0  0  0
  1 11  1  0  0  0  0
  2  3  1  0  0  0  0
  2 12  1  1  0  0  0
  2  1  1  0  0  0  0
  3 13  1  1  0  0  0
  3  1  1  0  0  0  0
  4 14  1  1  0  0  0
  4  3  1  0  0  0  0
  5  4  1  0  0  0  0
  6 16  1  0  0  0  0
  6  5  1  0  0  0  0
  7  6  1  0  0  0  0
  7  8  1  0  0  0  0
  8  9  1  0  0  0  0
  9 19  1  6  0  0  0
  9  4  1  0  0  0  0
  9  2  1  0  0  0  0
 10  1  1  0  0  0  0
 15  6  1  0  0  0  0
 17  7  1  0  0  0  0
 18  7  1  0  0  0  0
M TOR 0 0 1 2 3
M TOR 1 0 1 2 12
M TOR 2 0 1 8 3
M TOR 3 0 1 8 7
M TOR 4 0 1 8 18
M TOR 5 0 2 1 8
M TOR 6 0 2 1 11
M TOR 7 0 2 3 4
M TOR 8 0 2 3 8
M TOR 9 0 2 3 13
M TOR 10 1 2 0 9
M TOR 11 1 2 0 10
M TOR 12 1 2 3 4
M TOR 13 1 2 3 8
M TOR 14 1 2 3 13
M TOR 15 1 8 3 4
M TOR 16 1 8 3 13
M TOR 17 1 8 7 6
M TOR 18 2 1 8 7
M TOR 19 2 1 8 18
M TOR 20 2 3 4 5
M TOR 21 2 3 8 7
M TOR 22 2 3 8 18
M TOR 23 3 2 0 9
M TOR 24 3 2 0 10
M TOR 25 3 2 1 11
M TOR 26 3 4 5 6
M TOR 27 3 4 5 14
M TOR 28 3 4 5 15
M TOR 29 3 8 1 11
M TOR 30 3 8 7 6
M TOR 31 4 3 2 12
M TOR 32 4 3 8 7
M TOR 33 4 3 8 18
M TOR 34 4 5 6 7
M TOR 35 4 5 6 16
M TOR 36 4 5 6 17
M TOR 37 5 4 3 8
M TOR 38 5 4 3 13
M TOR 39 5 6 7 8
M TOR 40 6 7 8 18
M TOR 41 7 6 5 14
M TOR 42 7 6 5 15
M TOR 43 7 8 1 11
M TOR 44 7 8 3 13
M TOR 45 8 1 0 9
M TOR 46 8 1 0 10
M TOR 47 8 1 2 12
M TOR 48 8 3 2 12
M TOR 49 8 7 6 16
M TOR 50 8 7 6 17
M  END
$$$$
