gdb 5096	4.484425	1.0005408	0.9480609	0.8958	76.29	-0.24974	0.07401	0.32375	1309.0638	0.154982	-422.496542	-422.487827	-422.486883	-422.530114	32.622
 OpenBabel02181911423D

 19 21  0  0  1  0  0  0  0  0999 V2000
    0.9679   -0.2608    1.1667 C   0  0  0  0  0  0  0  0  0  0  0  0
    0.7883    0.3269   -0.2401 C   0  0  0  0  0  0  0  0  0  0  0  0
    1.4024   -0.5294   -1.3023 C   0  0  1  0  0  0  0  0  0  0  0  0
    0.9399   -1.9157   -1.8152 C   0  0  0  0  0  0  0  0  0  0  0  0
    1.5993   -1.5522   -3.1661 C   0  0  1  0  0  0  0  0  0  0  0  0
    2.1648   -2.3611   -4.2409 C   0  0  0  0  0  0  0  0  0  0  0  0
    0.9066   -1.6747   -4.3921 O   0  0  0  0  0  0  0  0  0  0  0  0
    2.0299   -0.2076   -2.6011 C   0  0  2  0  0  0  0  0  0  0  0  0
    2.8339   -0.5160   -1.4485 O   0  0  0  0  0  0  0  0  0  0  0  0
    0.4949   -1.2448    1.2501 H   0  0  0  0  0  0  0  0  0  0  0  0
    2.0295   -0.3763    1.4043 H   0  0  0  0  0  0  0  0  0  0  0  0
    0.5181    0.3910    1.9210 H   0  0  0  0  0  0  0  0  0  0  0  0
   -0.2790    0.4525   -0.4609 H   0  0  0  0  0  0  0  0  0  0  0  0
    1.2463    1.3209   -0.2923 H   0  0  0  0  0  0  0  0  0  0  0  0
    1.3335   -2.7773   -1.2717 H   0  0  0  0  0  0  0  0  0  0  0  0
   -0.1448   -1.9997   -1.9265 H   0  0  0  0  0  0  0  0  0  0  0  0
    2.9837   -1.9714   -4.8436 H   0  0  0  0  0  0  0  0  0  0  0  0
    2.0952   -3.4466   -4.1933 H   0  0  0  0  0  0  0  0  0  0  0  0
    2.2009    0.7345   -3.1098 H   0  0  0  0  0  0  0  0  0  0  0  0
  1 10  1  0  0  0  0
  1 11  1  0  0  0  0
  1 12  1  0  0  0  0
  2  1  1  0  0  0  0
  3  2  1  1  0  0  0
  4  3  1  0  0  0  0
  4 15  1  0  0  0  0
  5  7  1  6  0  0  0
  5  8  1  0  0  0  0
  5  4  1  0  0  0  0
  6 18  1  0  0  0  0
  6  5  1  0  0  0  0
  7  6  1  0  0  0  0
  8 19  1  6  0  0  0
  8  9  1  0  0  0  0
  8  3  1  0  0  0  0
  9  3  1  0  0  0  0
 13  2  1  0  0  0  0
 14  2  1  0  0  0  0
 16  4  1  0  0  0  0
 17  6  1  0  0  0  0
M TOR 0 0 1 2 3
M TOR 1 0 1 2 7
M TOR 2 0 1 2 8
M TOR 3 1 2 3 4
M TOR 4 1 2 3 14
M TOR 5 1 2 3 15
M TOR 6 1 2 7 4
M TOR 7 1 2 7 8
M TOR 8 1 2 7 18
M TOR 9 2 1 0 9
M TOR 10 2 1 0 10
M TOR 11 2 1 0 11
M TOR 12 2 3 4 5
M TOR 13 2 3 4 6
M TOR 14 2 3 4 7
M TOR 15 2 7 4 5
M TOR 16 2 7 4 6
M TOR 17 2 8 7 4
M TOR 18 2 8 7 18
M TOR 19 3 2 1 12
M TOR 20 3 2 1 13
M TOR 21 3 2 7 8
M TOR 22 3 2 7 18
M TOR 23 3 4 5 6
M TOR 24 3 4 5 16
M TOR 25 3 4 5 17
M TOR 26 3 4 7 8
M TOR 27 3 4 7 18
M TOR 28 4 3 2 8
M TOR 29 4 6 5 16
M TOR 30 4 6 5 17
M TOR 31 5 4 3 14
M TOR 32 5 4 3 15
M TOR 33 5 4 7 8
M TOR 34 5 4 7 18
M TOR 35 5 6 4 7
M TOR 36 6 4 3 14
M TOR 37 6 4 3 15
M TOR 38 6 4 7 8
M TOR 39 6 4 7 18
M TOR 40 7 2 1 12
M TOR 41 7 2 1 13
M TOR 42 7 2 3 14
M TOR 43 7 2 3 15
M TOR 44 7 4 3 14
M TOR 45 7 4 3 15
M TOR 46 7 4 5 16
M TOR 47 7 4 5 17
M TOR 48 8 2 1 12
M TOR 49 8 2 1 13
M TOR 50 8 2 3 14
M TOR 51 8 2 3 15
M  END
$$$$
