
     RDKit          3D

 19 19  0  0  0  0  0  0  0  0999 V2000
   -2.4218   -2.6932    4.3703 O   0  0  0  0  0  0  0  0  0  0  0  0
   -2.2401   -3.2763    3.0964 C   0  0  0  0  0  0  0  0  0  0  0  0
   -2.6285   -2.3166    1.9837 C   0  0  0  0  0  0  0  0  0  0  0  0
   -1.7809   -1.1788    2.1189 O   0  0  0  0  0  0  0  0  0  0  0  0
   -2.1012   -0.1338    1.2606 C   0  0  0  0  0  0  0  0  0  0  0  0
   -1.5531   -0.1353   -0.1364 C   0  0  0  0  0  0  0  0  0  0  0  0
   -0.9669    0.8017    0.9230 C   0  0  0  0  0  0  0  0  0  0  0  0
   -1.1858    2.2158    0.8538 C   0  0  0  0  0  0  0  0  0  0  0  0
   -1.3737    3.4023    0.7920 C   0  0  0  0  0  0  0  0  0  0  0  0
   -1.9783   -1.8375    4.3339 H   0  0  0  0  0  0  0  0  0  0  0  0
   -1.1974   -3.5980    2.9431 H   0  0  0  0  0  0  0  0  0  0  0  0
   -2.8759   -4.1665    3.0522 H   0  0  0  0  0  0  0  0  0  0  0  0
   -2.5016   -2.7811    0.9944 H   0  0  0  0  0  0  0  0  0  0  0  0
   -3.6809   -2.0159    2.0958 H   0  0  0  0  0  0  0  0  0  0  0  0
   -3.0836    0.3089    1.4233 H   0  0  0  0  0  0  0  0  0  0  0  0
   -0.9302   -0.9737   -0.4263 H   0  0  0  0  0  0  0  0  0  0  0  0
   -2.1449    0.3075   -0.9286 H   0  0  0  0  0  0  0  0  0  0  0  0
   -0.0070    0.4903    1.3237 H   0  0  0  0  0  0  0  0  0  0  0  0
   -1.5366    4.4502    0.7423 H   0  0  0  0  0  0  0  0  0  0  0  0
  1  2  1  0
  2  3  1  0
  3  4  1  0
  4  5  1  0
  5  6  1  0
  6  7  1  0
  7  8  1  0
  8  9  3  0
  7  5  1  0
  1 10  1  0
  2 11  1  0
  2 12  1  0
  3 13  1  0
  3 14  1  0
  5 15  1  0
  6 16  1  0
  6 17  1  0
  7 18  1  0
  9 19  1  0
M  END
$$$$
