
     RDKit          3D

 19 19  0  0  0  0  0  0  0  0999 V2000
    3.1829   -2.2644    2.1921 C   0  0  0  0  0  0  0  0  0  0  0  0
    2.7626   -0.8336    2.5108 C   0  0  0  0  0  0  0  0  0  0  0  0
    3.3614   -0.4698    3.7411 O   0  0  0  0  0  0  0  0  0  0  0  0
    3.1644    0.1587    1.4154 C   0  0  0  0  0  0  0  0  0  0  0  0
    2.4463    0.0596    0.0723 C   0  0  0  0  0  0  0  0  0  0  0  0
    0.9902    0.0945    0.1715 C   0  0  0  0  0  0  0  0  0  0  0  0
   -0.2086    0.1206    0.2484 C   0  0  0  0  0  0  0  0  0  0  0  0
    4.4972    0.7706    1.4597 C   0  0  0  0  0  0  0  0  0  0  0  0
    3.3369    1.4977    1.9046 O   0  0  0  0  0  0  0  0  0  0  0  0
    2.9266   -2.9133    3.0333 H   0  0  0  0  0  0  0  0  0  0  0  0
    2.6693   -2.6410    1.3030 H   0  0  0  0  0  0  0  0  0  0  0  0
    4.2636   -2.3240    2.0307 H   0  0  0  0  0  0  0  0  0  0  0  0
    1.6652   -0.7930    2.5952 H   0  0  0  0  0  0  0  0  0  0  0  0
    3.2516    0.4879    3.8142 H   0  0  0  0  0  0  0  0  0  0  0  0
    2.7905    0.8889   -0.5557 H   0  0  0  0  0  0  0  0  0  0  0  0
    2.7572   -0.8646   -0.4316 H   0  0  0  0  0  0  0  0  0  0  0  0
   -1.2681    0.1494    0.3152 H   0  0  0  0  0  0  0  0  0  0  0  0
    5.1842    0.4804    2.2501 H   0  0  0  0  0  0  0  0  0  0  0  0
    4.9507    1.1475    0.5447 H   0  0  0  0  0  0  0  0  0  0  0  0
  1  2  1  0
  2  3  1  0
  2  4  1  0
  4  5  1  0
  5  6  1  0
  6  7  3  0
  4  8  1  0
  8  9  1  0
  9  4  1  0
  1 10  1  0
  1 11  1  0
  1 12  1  0
  2 13  1  0
  3 14  1  0
  5 15  1  0
  5 16  1  0
  7 17  1  0
  8 18  1  0
  8 19  1  0
M  END
$$$$
