gdb 430	3.7863117	1.2829695	1.198195	1.2976	74.7	-0.24122	0.08291	0.32413	1092.6238	0.158094	-422.513922	-422.50642	-422.505476	-422.546243	29.37
 OpenBabel02181911403D

 19 21  0  0  1  0  0  0  0  0999 V2000
    0.2099    0.4386   -0.0313 C   0  0  0  0  0  0  0  0  0  0  0  0
    1.3000    0.8803    0.7818 O   0  0  0  0  0  0  0  0  0  0  0  0
    1.5882    0.3983   -0.5325 C   0  0  1  0  0  0  0  0  0  0  0  0
    2.3768   -0.8669   -0.5945 C   0  0  2  0  0  0  0  0  0  0  0  0
    2.1273   -2.1264    0.2747 C   0  0  0  0  0  0  0  0  0  0  0  0
    3.5329   -2.4924   -0.2997 C   0  0  2  0  0  0  0  0  0  0  0  0
    3.8699   -0.9744   -0.1780 C   0  0  0  0  0  0  0  0  0  0  0  0
    3.2000   -2.5720   -1.7944 C   0  0  0  0  0  0  0  0  0  0  0  0
    2.3783   -1.3888   -1.9390 O   0  0  0  0  0  0  0  0  0  0  0  0
   -0.2702   -0.4828    0.2928 H   0  0  0  0  0  0  0  0  0  0  0  0
   -0.4635    1.2214   -0.3765 H   0  0  0  0  0  0  0  0  0  0  0  0
    1.9036    1.1649   -1.2413 H   0  0  0  0  0  0  0  0  0  0  0  0
    2.1423   -1.9174    1.3445 H   0  0  0  0  0  0  0  0  0  0  0  0
    1.2777   -2.7578    0.0024 H   0  0  0  0  0  0  0  0  0  0  0  0
    4.1594   -3.2743    0.1267 H   0  0  0  0  0  0  0  0  0  0  0  0
    4.0488   -0.6560    0.8494 H   0  0  0  0  0  0  0  0  0  0  0  0
    4.6085   -0.5481   -0.8616 H   0  0  0  0  0  0  0  0  0  0  0  0
    4.0799   -2.5003   -2.4444 H   0  0  0  0  0  0  0  0  0  0  0  0
    2.6235   -3.4629   -2.0693 H   0  0  0  0  0  0  0  0  0  0  0  0
  1 10  1  0  0  0  0
  1  2  1  0  0  0  0
  3 12  1  6  0  0  0
  3  1  1  0  0  0  0
  3  2  1  0  0  0  0
  4  9  1  6  0  0  0
  4  3  1  0  0  0  0
  4  7  1  0  0  0  0
  4  5  1  0  0  0  0
  5 13  1  0  0  0  0
  6  7  1  0  0  0  0
  6 15  1  1  0  0  0
  6  5  1  0  0  0  0
  7 16  1  0  0  0  0
  8  6  1  0  0  0  0
  9  8  1  0  0  0  0
 11  1  1  0  0  0  0
 14  5  1  0  0  0  0
 17  7  1  0  0  0  0
 18  8  1  0  0  0  0
 19  8  1  0  0  0  0
M TOR 0 0 1 2 3
M TOR 1 0 1 2 11
M TOR 2 0 2 3 4
M TOR 3 0 2 3 6
M TOR 4 0 2 3 8
M TOR 5 1 2 0 9
M TOR 6 1 2 0 10
M TOR 7 1 2 3 4
M TOR 8 1 2 3 6
M TOR 9 1 2 3 8
M TOR 10 2 3 4 5
M TOR 11 2 3 4 12
M TOR 12 2 3 4 13
M TOR 13 2 3 6 5
M TOR 14 2 3 6 15
M TOR 15 2 3 6 16
M TOR 16 2 3 8 7
M TOR 17 3 2 0 9
M TOR 18 3 2 0 10
M TOR 19 3 4 5 6
M TOR 20 3 4 5 7
M TOR 21 3 4 5 14
M TOR 22 3 6 5 7
M TOR 23 3 6 5 14
M TOR 24 3 8 7 5
M TOR 25 3 8 7 17
M TOR 26 3 8 7 18
M TOR 27 4 3 2 11
M TOR 28 4 3 6 15
M TOR 29 4 3 6 16
M TOR 30 4 3 8 7
M TOR 31 4 5 6 15
M TOR 32 4 5 6 16
M TOR 33 4 5 7 8
M TOR 34 4 5 7 17
M TOR 35 4 5 7 18
M TOR 36 5 4 3 8
M TOR 37 5 6 3 8
M TOR 38 6 3 2 11
M TOR 39 6 3 4 12
M TOR 40 6 3 4 13
M TOR 41 6 3 8 7
M TOR 42 6 5 4 12
M TOR 43 6 5 4 13
M TOR 44 6 5 7 8
M TOR 45 6 5 7 17
M TOR 46 6 5 7 18
M TOR 47 7 5 4 12
M TOR 48 7 5 4 13
M TOR 49 7 5 6 15
M TOR 50 7 5 6 16
M TOR 51 8 3 2 11
M TOR 52 8 3 4 12
M TOR 53 8 3 4 13
M TOR 54 8 3 6 15
M TOR 55 8 3 6 16
M TOR 56 8 7 5 14
M  END
$$$$
