
     RDKit          3D

 19 21  0  0  0  0  0  0  0  0999 V2000
   -0.1129   -0.0300    0.2799 C   0  0  0  0  0  0  0  0  0  0  0  0
    1.3780   -0.0182   -0.0161 C   0  0  0  0  0  0  0  0  0  0  0  0
    2.0643   -0.9696    0.7935 O   0  0  0  0  0  0  0  0  0  0  0  0
    2.1189    1.3708   -0.0296 C   0  0  0  0  0  0  0  0  0  0  0  0
    2.7067    1.0455   -1.4338 C   0  0  0  0  0  0  0  0  0  0  0  0
    1.8964    1.5383   -2.6601 C   0  0  0  0  0  0  0  0  0  0  0  0
    0.5135    1.5644   -2.2939 O   0  0  0  0  0  0  0  0  0  0  0  0
    1.0883    0.3034   -2.6705 C   0  0  0  0  0  0  0  0  0  0  0  0
    1.8765   -0.2763   -1.4713 C   0  0  0  0  0  0  0  0  0  0  0  0
   -0.2932    0.2536    1.3252 H   0  0  0  0  0  0  0  0  0  0  0  0
   -0.6477    0.6747   -0.3584 H   0  0  0  0  0  0  0  0  0  0  0  0
   -0.5206   -1.0349    0.1298 H   0  0  0  0  0  0  0  0  0  0  0  0
    1.8950   -0.7421    1.7148 H   0  0  0  0  0  0  0  0  0  0  0  0
    1.4649    2.2439   -0.0029 H   0  0  0  0  0  0  0  0  0  0  0  0
    2.8708    1.4424    0.7595 H   0  0  0  0  0  0  0  0  0  0  0  0
    3.7884    1.0332   -1.5579 H   0  0  0  0  0  0  0  0  0  0  0  0
    2.2005    2.2027   -3.4616 H   0  0  0  0  0  0  0  0  0  0  0  0
    0.5965   -0.2263   -3.4788 H   0  0  0  0  0  0  0  0  0  0  0  0
    2.3468   -1.2431   -1.6459 H   0  0  0  0  0  0  0  0  0  0  0  0
  1  2  1  0
  2  3  1  0
  2  4  1  0
  4  5  1  0
  5  6  1  0
  6  7  1  0
  7  8  1  0
  8  9  1  0
  9  2  1  0
  9  5  1  0
  8  6  1  0
  1 10  1  0
  1 11  1  0
  1 12  1  0
  3 13  1  0
  4 14  1  0
  4 15  1  0
  5 16  1  0
  6 17  1  0
  8 18  1  0
  9 19  1  0
M  END
$$$$
