
     RDKit          3D

 19 21  0  0  0  0  0  0  0  0999 V2000
    1.9171    1.4218   -0.7094 C   0  0  0  0  0  0  0  0  0  0  0  0
    1.6890    0.0617   -0.0638 C   0  0  0  0  0  0  0  0  0  0  0  0
    2.8233   -0.5124    0.8129 C   0  0  0  0  0  0  0  0  0  0  0  0
    2.9058   -1.7022    0.0024 O   0  0  0  0  0  0  0  0  0  0  0  0
    1.9080   -1.2234   -0.9056 C   0  0  0  0  0  0  0  0  0  0  0  0
    0.6956   -2.1498   -1.2723 C   0  0  0  0  0  0  0  0  0  0  0  0
    1.0787   -1.9692   -2.7453 C   0  0  0  0  0  0  0  0  0  0  0  0
    2.4037   -2.4844   -2.8782 O   0  0  0  0  0  0  0  0  0  0  0  0
    2.2504   -1.1414   -2.4018 C   0  0  0  0  0  0  0  0  0  0  0  0
    1.8829    2.2152    0.0447 H   0  0  0  0  0  0  0  0  0  0  0  0
    2.8955    1.4741   -1.1985 H   0  0  0  0  0  0  0  0  0  0  0  0
    1.1514    1.6456   -1.4596 H   0  0  0  0  0  0  0  0  0  0  0  0
    0.7204    0.0451    0.4442 H   0  0  0  0  0  0  0  0  0  0  0  0
    3.7579    0.0638    0.7888 H   0  0  0  0  0  0  0  0  0  0  0  0
    2.5725   -0.7412    1.8551 H   0  0  0  0  0  0  0  0  0  0  0  0
    0.7647   -3.1769   -0.9083 H   0  0  0  0  0  0  0  0  0  0  0  0
   -0.2649   -1.7102   -0.9896 H   0  0  0  0  0  0  0  0  0  0  0  0
    0.4513   -1.9536   -3.6281 H   0  0  0  0  0  0  0  0  0  0  0  0
    2.7635   -0.3632   -2.9549 H   0  0  0  0  0  0  0  0  0  0  0  0
  1  2  1  0
  2  3  1  0
  3  4  1  0
  4  5  1  0
  5  6  1  0
  6  7  1  0
  7  8  1  0
  8  9  1  0
  5  2  1  0
  9  5  1  0
  9  7  1  0
  1 10  1  0
  1 11  1  0
  1 12  1  0
  2 13  1  0
  3 14  1  0
  3 15  1  0
  6 16  1  0
  6 17  1  0
  7 18  1  0
  9 19  1  0
M  END
$$$$
