
     RDKit          3D

 19 19  0  0  0  0  0  0  0  0999 V2000
    0.3089   -0.9298   -0.4206 O   0  0  0  0  0  0  0  0  0  0  0  0
    0.4492    0.2376   -0.1595 C   0  0  0  0  0  0  0  0  0  0  0  0
   -0.1491    0.9199    1.0536 C   0  0  0  0  0  0  0  0  0  0  0  0
   -1.1357    2.0153    0.6479 C   0  0  0  0  0  0  0  0  0  0  0  0
   -1.9599    2.7396    1.7482 C   0  0  0  0  0  0  0  0  0  0  0  0
   -3.1981    2.7080    0.8111 C   0  0  0  0  0  0  0  0  0  0  0  0
   -2.4677    1.6038   -0.0282 C   0  0  0  0  0  0  0  0  0  0  0  0
   -2.5646    1.7030   -1.5233 C   0  0  0  0  0  0  0  0  0  0  0  0
   -1.6436    2.0009   -2.2442 O   0  0  0  0  0  0  0  0  0  0  0  0
    1.0323    0.9102   -0.8278 H   0  0  0  0  0  0  0  0  0  0  0  0
   -0.6325    0.1597    1.6759 H   0  0  0  0  0  0  0  0  0  0  0  0
    0.6699    1.3713    1.6317 H   0  0  0  0  0  0  0  0  0  0  0  0
   -0.6346    2.7446    0.0029 H   0  0  0  0  0  0  0  0  0  0  0  0
   -2.1054    2.1029    2.6263 H   0  0  0  0  0  0  0  0  0  0  0  0
   -1.6048    3.7174    2.0808 H   0  0  0  0  0  0  0  0  0  0  0  0
   -4.1612    2.4439    1.2505 H   0  0  0  0  0  0  0  0  0  0  0  0
   -3.3109    3.6371    0.2457 H   0  0  0  0  0  0  0  0  0  0  0  0
   -2.8067    0.6079    0.2836 H   0  0  0  0  0  0  0  0  0  0  0  0
   -3.5763    1.5023   -1.9447 H   0  0  0  0  0  0  0  0  0  0  0  0
  1  2  2  0
  2  3  1  0
  3  4  1  0
  4  5  1  0
  5  6  1  0
  6  7  1  0
  7  8  1  0
  8  9  2  0
  7  4  1  0
  2 10  1  0
  3 11  1  0
  3 12  1  0
  4 13  1  0
  5 14  1  0
  5 15  1  0
  6 16  1  0
  6 17  1  0
  7 18  1  0
  8 19  1  0
M  END
$$$$
