gdb 2931	3.3887656	1.3683739	1.1296813	1.2179	74.99	-0.23699	0.07191	0.3089	1104.4103	0.156662	-422.504984	-422.496706	-422.495762	-422.537374	31.864
 OpenBabel02181911413D

 19 21  0  0  1  0  0  0  0  0999 V2000
   -2.2850   -1.1830   -0.7132 C   0  0  0  0  0  0  0  0  0  0  0  0
   -2.1283   -0.3014    0.4915 C   0  0  2  0  0  0  0  0  0  0  0  0
   -0.8511    0.4301    0.7988 C   0  0  2  0  0  0  0  0  0  0  0  0
    0.2503    0.0002    0.0514 O   0  0  0  0  0  0  0  0  0  0  0  0
   -1.3862   -0.5291    1.8360 C   0  0  1  0  0  0  0  0  0  0  0  0
   -2.5094    0.1503    2.5909 C   0  0  2  0  0  0  0  0  0  0  0  0
   -3.5398   -0.7548    3.0301 O   0  0  0  0  0  0  0  0  0  0  0  0
   -4.3191   -0.5296    1.8351 C   0  0  0  0  0  0  0  0  0  0  0  0
   -3.2578    0.4112    1.2354 C   0  0  2  0  0  0  0  0  0  0  0  0
   -2.9818   -2.0065   -0.5249 H   0  0  0  0  0  0  0  0  0  0  0  0
   -2.6694   -0.6097   -1.5658 H   0  0  0  0  0  0  0  0  0  0  0  0
   -1.3210   -1.6058   -1.0032 H   0  0  0  0  0  0  0  0  0  0  0  0
   -0.8714    1.5076    0.9876 H   0  0  0  0  0  0  0  0  0  0  0  0
    1.0210    0.0023    0.6281 H   0  0  0  0  0  0  0  0  0  0  0  0
   -0.8076   -1.3843    2.1667 H   0  0  0  0  0  0  0  0  0  0  0  0
   -2.2718    0.9009    3.3512 H   0  0  0  0  0  0  0  0  0  0  0  0
   -4.5236   -1.4569    1.2864 H   0  0  0  0  0  0  0  0  0  0  0  0
   -5.2723   -0.0399    2.0714 H   0  0  0  0  0  0  0  0  0  0  0  0
   -3.5901    1.3866    0.8742 H   0  0  0  0  0  0  0  0  0  0  0  0
  1 10  1  0  0  0  0
  2  1  1  6  0  0  0
  2  3  1  0  0  0  0
  2  9  1  0  0  0  0
  2  5  1  0  0  0  0
  3 13  1  1  0  0  0
  3  5  1  0  0  0  0
  4 14  1  0  0  0  0
  4  3  1  0  0  0  0
  5 15  1  1  0  0  0
  5  6  1  0  0  0  0
  6  7  1  0  0  0  0
  6 16  1  1  0  0  0
  8 18  1  0  0  0  0
  8  7  1  0  0  0  0
  9 19  1  6  0  0  0
  9  8  1  0  0  0  0
  9  6  1  0  0  0  0
 11  1  1  0  0  0  0
 12  1  1  0  0  0  0
 17  8  1  0  0  0  0
M TOR 0 0 1 2 3
M TOR 1 0 1 2 4
M TOR 2 0 1 2 12
M TOR 3 0 1 4 5
M TOR 4 0 1 4 14
M TOR 5 0 1 8 5
M TOR 6 0 1 8 7
M TOR 7 0 1 8 18
M TOR 8 1 2 3 13
M TOR 9 1 2 4 5
M TOR 10 1 2 4 14
M TOR 11 1 4 2 3
M TOR 12 1 4 2 12
M TOR 13 1 4 5 6
M TOR 14 1 4 5 8
M TOR 15 1 4 5 15
M TOR 16 1 8 5 6
M TOR 17 1 8 5 15
M TOR 18 1 8 7 6
M TOR 19 1 8 7 16
M TOR 20 1 8 7 17
M TOR 21 2 1 0 9
M TOR 22 2 1 0 10
M TOR 23 2 1 0 11
M TOR 24 2 1 8 5
M TOR 25 2 1 8 7
M TOR 26 2 1 8 18
M TOR 27 2 4 1 8
M TOR 28 2 4 5 6
M TOR 29 2 4 5 8
M TOR 30 2 4 5 15
M TOR 31 3 2 1 8
M TOR 32 3 2 4 5
M TOR 33 3 2 4 14
M TOR 34 4 1 0 9
M TOR 35 4 1 0 10
M TOR 36 4 1 0 11
M TOR 37 4 1 8 7
M TOR 38 4 1 8 18
M TOR 39 4 2 3 13
M TOR 40 4 5 6 7
M TOR 41 4 5 8 7
M TOR 42 4 5 8 18
M TOR 43 5 4 2 12
M TOR 44 5 6 7 8
M TOR 45 5 6 7 16
M TOR 46 5 6 7 17
M TOR 47 5 8 7 16
M TOR 48 5 8 7 17
M TOR 49 6 5 4 14
M TOR 50 6 5 8 18
M TOR 51 6 7 8 18
M TOR 52 7 6 5 15
M TOR 53 7 8 5 15
M TOR 54 8 1 0 9
M TOR 55 8 1 0 10
M TOR 56 8 1 0 11
M TOR 57 8 1 2 12
M TOR 58 8 1 4 14
M TOR 59 8 5 4 14
M  END
$$$$
