
     RDKit          3D

 19 19  0  0  0  0  0  0  0  0999 V2000
   -1.2824    1.6775   -1.4455 C   0  0  0  0  0  0  0  0  0  0  0  0
   -0.9029    1.3164    0.0039 C   0  0  0  0  0  0  0  0  0  0  0  0
   -2.1256    1.1509    0.9249 C   0  0  0  0  0  0  0  0  0  0  0  0
   -1.7422    1.1611    2.2953 O   0  0  0  0  0  0  0  0  0  0  0  0
   -2.9272   -0.1178    0.5889 C   0  0  0  0  0  0  0  0  0  0  0  0
   -2.0382   -1.3206    0.4414 C   0  0  0  0  0  0  0  0  0  0  0  0
   -0.7257   -1.2379    0.1801 C   0  0  0  0  0  0  0  0  0  0  0  0
   -0.0337    0.0562   -0.0150 C   0  0  0  0  0  0  0  0  0  0  0  0
    1.1622    0.1105   -0.2247 O   0  0  0  0  0  0  0  0  0  0  0  0
   -1.8576    0.8810   -1.9290 H   0  0  0  0  0  0  0  0  0  0  0  0
   -1.8823    2.5929   -1.4707 H   0  0  0  0  0  0  0  0  0  0  0  0
   -0.3783    1.8425   -2.0369 H   0  0  0  0  0  0  0  0  0  0  0  0
   -0.2825    2.1200    0.4121 H   0  0  0  0  0  0  0  0  0  0  0  0
   -2.7742    2.0267    0.8165 H   0  0  0  0  0  0  0  0  0  0  0  0
   -1.1945    0.3850    2.4600 H   0  0  0  0  0  0  0  0  0  0  0  0
   -3.6672   -0.2869    1.3786 H   0  0  0  0  0  0  0  0  0  0  0  0
   -3.5011    0.0228   -0.3383 H   0  0  0  0  0  0  0  0  0  0  0  0
   -2.5018   -2.2988    0.5523 H   0  0  0  0  0  0  0  0  0  0  0  0
   -0.1015   -2.1215    0.0886 H   0  0  0  0  0  0  0  0  0  0  0  0
  1  2  1  0
  2  3  1  0
  3  4  1  0
  3  5  1  0
  5  6  1  0
  6  7  2  0
  7  8  1  0
  8  9  2  0
  8  2  1  0
  1 10  1  0
  1 11  1  0
  1 12  1  0
  2 13  1  0
  3 14  1  0
  4 15  1  0
  5 16  1  0
  5 17  1  0
  6 18  1  0
  7 19  1  0
M  END
$$$$
