
     RDKit          3D

 19 20  0  0  0  0  0  0  0  0999 V2000
    1.1864   -0.8984   -1.0574 C   0  0  0  0  0  0  0  0  0  0  0  0
    0.9421   -0.0305    0.1584 C   0  0  0  0  0  0  0  0  0  0  0  0
    1.8440   -0.2683    1.3633 C   0  0  0  0  0  0  0  0  0  0  0  0
    1.3828    0.6399    2.5022 C   0  0  0  0  0  0  0  0  0  0  0  0
    1.4121    1.7985    1.6305 O   0  0  0  0  0  0  0  0  0  0  0  0
    1.9492    1.0108    0.5467 C   0  0  0  0  0  0  0  0  0  0  0  0
    2.9932    1.6623   -0.2983 C   0  0  0  0  0  0  0  0  0  0  0  0
    2.4171    0.7700    3.6043 C   0  0  0  0  0  0  0  0  0  0  0  0
    2.3717    0.1571    4.6382 O   0  0  0  0  0  0  0  0  0  0  0  0
    0.6507   -1.8491   -0.9677 H   0  0  0  0  0  0  0  0  0  0  0  0
    0.8437   -0.4041   -1.9724 H   0  0  0  0  0  0  0  0  0  0  0  0
    2.2485   -1.1329   -1.1815 H   0  0  0  0  0  0  0  0  0  0  0  0
   -0.1022    0.2107    0.3519 H   0  0  0  0  0  0  0  0  0  0  0  0
    2.4990   -1.1251    1.4524 H   0  0  0  0  0  0  0  0  0  0  0  0
    0.3940    0.4472    2.9336 H   0  0  0  0  0  0  0  0  0  0  0  0
    3.8410    1.9946    0.3084 H   0  0  0  0  0  0  0  0  0  0  0  0
    3.3613    0.9782   -1.0667 H   0  0  0  0  0  0  0  0  0  0  0  0
    2.5722    2.5407   -0.8009 H   0  0  0  0  0  0  0  0  0  0  0  0
    3.2427    1.4755    3.3594 H   0  0  0  0  0  0  0  0  0  0  0  0
  1  2  1  0
  2  3  1  0
  3  4  1  0
  4  5  1  0
  5  6  1  0
  6  7  1  0
  4  8  1  0
  8  9  2  0
  6  2  1  0
  6  3  1  0
  1 10  1  0
  1 11  1  0
  1 12  1  0
  2 13  1  0
  3 14  1  0
  4 15  1  0
  7 16  1  0
  7 17  1  0
  7 18  1  0
  8 19  1  0
M  END
$$$$
