gdb 5146	3.2622462	1.4027927	1.157456	2.1909	73.71	-0.26043	0.08717	0.3476	1094.8326	0.158221	-422.542969	-422.535179	-422.534235	-422.575008	30.802
 OpenBabel02181911423D

 19 21  0  0  1  0  0  0  0  0999 V2000
    1.2623   -0.2350    1.3301 O   0  0  0  0  0  0  0  0  0  0  0  0
    0.4401    0.2518    0.2930 C   0  0  0  0  0  0  0  0  0  0  0  0
   -0.8154    0.8986    0.8344 C   0  0  1  0  0  0  0  0  0  0  0  0
   -1.3484    0.2379    2.0058 O   0  0  0  0  0  0  0  0  0  0  0  0
   -0.8887    1.6016    2.1239 C   0  0  2  0  0  0  0  0  0  0  0  0
   -2.0261    2.6138    2.1243 C   0  0  0  0  0  0  0  0  0  0  0  0
   -2.6240    2.5079    0.7189 C   0  0  1  0  0  0  0  0  0  0  0  0
   -1.7390    2.9000   -0.4376 C   0  0  0  0  0  0  0  0  0  0  0  0
   -1.8848    1.4421   -0.0659 C   0  0  1  0  0  0  0  0  0  0  0  0
    0.6581   -0.6588    1.9549 H   0  0  0  0  0  0  0  0  0  0  0  0
    1.0209    0.9843   -0.2785 H   0  0  0  0  0  0  0  0  0  0  0  0
    0.1508   -0.5513   -0.4068 H   0  0  0  0  0  0  0  0  0  0  0  0
   -0.0165    1.7319    2.7575 H   0  0  0  0  0  0  0  0  0  0  0  0
   -2.7602    2.3562    2.8949 H   0  0  0  0  0  0  0  0  0  0  0  0
   -1.6552    3.6212    2.3469 H   0  0  0  0  0  0  0  0  0  0  0  0
   -3.6951    2.6191    0.6011 H   0  0  0  0  0  0  0  0  0  0  0  0
   -2.2191    3.2292   -1.3523 H   0  0  0  0  0  0  0  0  0  0  0  0
   -0.7976    3.3988   -0.2248 H   0  0  0  0  0  0  0  0  0  0  0  0
   -2.4023    0.7670   -0.7387 H   0  0  0  0  0  0  0  0  0  0  0  0
  1 10  1  0  0  0  0
  2  1  1  0  0  0  0
  3  2  1  6  0  0  0
  3  4  1  0  0  0  0
  3  5  1  0  0  0  0
  4  5  1  0  0  0  0
  5  6  1  0  0  0  0
  5 13  1  1  0  0  0
  6 15  1  0  0  0  0
  6 14  1  0  0  0  0
  7 16  1  6  0  0  0
  7  6  1  0  0  0  0
  8 18  1  0  0  0  0
  8  9  1  0  0  0  0
  8  7  1  0  0  0  0
  9 19  1  6  0  0  0
  9  7  1  0  0  0  0
  9  3  1  0  0  0  0
 11  2  1  0  0  0  0
 12  2  1  0  0  0  0
 17  8  1  0  0  0  0
M TOR 0 0 1 2 3
M TOR 1 0 1 2 4
M TOR 2 0 1 2 8
M TOR 3 1 2 3 4
M TOR 4 1 2 4 5
M TOR 5 1 2 4 12
M TOR 6 1 2 8 6
M TOR 7 1 2 8 7
M TOR 8 1 2 8 18
M TOR 9 2 1 0 9
M TOR 10 2 3 4 5
M TOR 11 2 3 4 12
M TOR 12 2 4 5 6
M TOR 13 2 4 5 13
M TOR 14 2 4 5 14
M TOR 15 2 8 6 5
M TOR 16 2 8 6 7
M TOR 17 2 8 6 15
M TOR 18 2 8 7 16
M TOR 19 2 8 7 17
M TOR 20 3 2 1 10
M TOR 21 3 2 1 11
M TOR 22 3 2 8 6
M TOR 23 3 2 8 7
M TOR 24 3 2 8 18
M TOR 25 3 4 2 8
M TOR 26 3 4 5 6
M TOR 27 3 4 5 13
M TOR 28 3 4 5 14
M TOR 29 4 2 1 10
M TOR 30 4 2 1 11
M TOR 31 4 2 8 6
M TOR 32 4 2 8 7
M TOR 33 4 2 8 18
M TOR 34 4 5 6 7
M TOR 35 4 5 6 8
M TOR 36 4 5 6 15
M TOR 37 5 4 2 8
M TOR 38 5 6 7 8
M TOR 39 5 6 7 16
M TOR 40 5 6 7 17
M TOR 41 5 6 8 18
M TOR 42 6 5 4 12
M TOR 43 6 7 8 18
M TOR 44 6 8 7 16
M TOR 45 6 8 7 17
M TOR 46 7 6 5 13
M TOR 47 7 6 5 14
M TOR 48 7 8 6 15
M TOR 49 8 2 1 10
M TOR 50 8 2 1 11
M TOR 51 8 2 4 12
M TOR 52 8 6 5 13
M TOR 53 8 6 5 14
M  END
$$$$
