gdb 3239	2.3418997	1.9815073	1.5842095	0.5533	73.6	-0.23717	0.0657	0.30287	951.3565	0.156768	-422.519667	-422.511917	-422.510973	-422.551356	30.778
 OpenBabel02181911413D

 19 21  0  0  1  0  0  0  0  0999 V2000
   -0.1431   -0.2456   -0.3054 C   0  0  0  0  0  0  0  0  0  0  0  0
    1.3594   -0.0209   -0.1824 C   0  0  1  0  0  0  0  0  0  0  0  0
    1.8376    1.4028    0.1740 C   0  0  2  0  0  0  0  0  0  0  0  0
    3.2873    1.2559    0.0707 O   0  0  0  0  0  0  0  0  0  0  0  0
    3.1778    0.4862    1.2666 C   0  0  1  0  0  0  0  0  0  0  0  0
    1.9425    1.2292    1.7637 C   0  0  2  0  0  0  0  0  0  0  0  0
    1.2599    0.0425    2.1529 O   0  0  0  0  0  0  0  0  0  0  0  0
    2.0243   -0.6215    1.0868 C   0  0  1  0  0  0  0  0  0  0  0  0
    2.2038   -2.0984    1.2705 C   0  0  0  0  0  0  0  0  0  0  0  0
   -0.6592    0.0394    0.6136 H   0  0  0  0  0  0  0  0  0  0  0  0
   -0.5536    0.3420   -1.1331 H   0  0  0  0  0  0  0  0  0  0  0  0
   -0.3684   -1.2979   -0.5084 H   0  0  0  0  0  0  0  0  0  0  0  0
    1.8842   -0.3339   -1.0901 H   0  0  0  0  0  0  0  0  0  0  0  0
    1.4401    2.2742   -0.3436 H   0  0  0  0  0  0  0  0  0  0  0  0
    4.1046    0.2630    1.7931 H   0  0  0  0  0  0  0  0  0  0  0  0
    1.8768    2.0760    2.4439 H   0  0  0  0  0  0  0  0  0  0  0  0
    2.6764   -2.3171    2.2324 H   0  0  0  0  0  0  0  0  0  0  0  0
    1.2403   -2.6178    1.2396 H   0  0  0  0  0  0  0  0  0  0  0  0
    2.8353   -2.5015    0.4724 H   0  0  0  0  0  0  0  0  0  0  0  0
  1  2  1  0  0  0  0
  1 10  1  0  0  0  0
  2 13  1  6  0  0  0
  2  3  1  0  0  0  0
  2  8  1  0  0  0  0
  3 14  1  6  0  0  0
  3  6  1  0  0  0  0
  4  3  1  0  0  0  0
  4  5  1  0  0  0  0
  5  6  1  0  0  0  0
  5 15  1  1  0  0  0
  6  7  1  0  0  0  0
  6 16  1  1  0  0  0
  8  5  1  0  0  0  0
  8  9  1  1  0  0  0
  8  7  1  0  0  0  0
  9 17  1  0  0  0  0
 11  1  1  0  0  0  0
 12  1  1  0  0  0  0
 18  9  1  0  0  0  0
 19  9  1  0  0  0  0
M TOR 0 0 1 2 3
M TOR 1 0 1 2 5
M TOR 2 0 1 2 13
M TOR 3 0 1 7 4
M TOR 4 0 1 7 6
M TOR 5 0 1 7 8
M TOR 6 1 2 3 4
M TOR 7 1 2 5 4
M TOR 8 1 2 5 6
M TOR 9 1 2 5 15
M TOR 10 1 7 4 3
M TOR 11 1 7 4 5
M TOR 12 1 7 4 14
M TOR 13 1 7 6 5
M TOR 14 1 7 8 16
M TOR 15 1 7 8 17
M TOR 16 1 7 8 18
M TOR 17 2 1 0 9
M TOR 18 2 1 0 10
M TOR 19 2 1 0 11
M TOR 20 2 1 7 4
M TOR 21 2 1 7 6
M TOR 22 2 1 7 8
M TOR 23 2 3 4 5
M TOR 24 2 3 4 7
M TOR 25 2 3 4 14
M TOR 26 2 5 4 7
M TOR 27 2 5 4 14
M TOR 28 2 5 6 7
M TOR 29 3 2 1 7
M TOR 30 3 2 1 12
M TOR 31 3 2 5 6
M TOR 32 3 2 5 15
M TOR 33 3 4 5 6
M TOR 34 3 4 5 15
M TOR 35 3 4 7 6
M TOR 36 3 4 7 8
M TOR 37 4 3 2 13
M TOR 38 4 5 2 13
M TOR 39 4 5 6 7
M TOR 40 4 7 1 12
M TOR 41 4 7 8 16
M TOR 42 4 7 8 17
M TOR 43 4 7 8 18
M TOR 44 5 2 1 7
M TOR 45 5 2 1 12
M TOR 46 5 4 7 8
M TOR 47 5 6 7 8
M TOR 48 6 5 2 13
M TOR 49 6 5 4 14
M TOR 50 6 7 1 12
M TOR 51 6 7 4 14
M TOR 52 6 7 8 16
M TOR 53 6 7 8 17
M TOR 54 6 7 8 18
M TOR 55 7 1 0 9
M TOR 56 7 1 0 10
M TOR 57 7 1 0 11
M TOR 58 7 1 2 13
M TOR 59 7 4 5 15
M TOR 60 7 6 5 15
M TOR 61 8 7 1 12
M TOR 62 8 7 4 14
M  END
$$$$
