gdb 2365	2.672778	1.4127497	1.1517293	4.4147	77.04	-0.24256	-0.01152	0.23104	1123.748	0.155117	-422.541847	-422.532776	-422.531832	-422.575176	34.153
 OpenBabel02181911413D

 19 20  0  0  1  0  0  0  0  0999 V2000
   -0.1793   -0.2956    0.0298 C   0  0  0  0  0  0  0  0  0  0  0  0
    1.3298   -0.1841   -0.0118 C   0  0  1  0  0  0  0  0  0  0  0  0
    2.0314   -1.0725    0.9647 C   0  0  0  0  0  0  0  0  0  0  0  0
    1.4598   -1.8033    1.7367 O   0  0  0  0  0  0  0  0  0  0  0  0
    2.1706   -0.0529   -1.3012 C   0  0  1  0  0  0  0  0  0  0  0  0
    1.4349    0.8080   -2.3315 C   0  0  0  0  0  0  0  0  0  0  0  0
    1.3913    1.9857   -1.3032 C   0  0  0  0  0  0  0  0  0  0  0  0
    2.1035    1.0866   -0.2866 C   0  0  1  0  0  0  0  0  0  0  0  0
    2.9975    1.5430    0.6647 O   0  0  0  0  0  0  0  0  0  0  0  0
   -0.5490   -0.0309    1.0244 H   0  0  0  0  0  0  0  0  0  0  0  0
   -0.6663    0.3538   -0.6995 H   0  0  0  0  0  0  0  0  0  0  0  0
   -0.4895   -1.3259   -0.1658 H   0  0  0  0  0  0  0  0  0  0  0  0
    3.1401   -1.0310    0.9258 H   0  0  0  0  0  0  0  0  0  0  0  0
    2.9567   -0.7680   -1.5148 H   0  0  0  0  0  0  0  0  0  0  0  0
    2.0525    1.0377   -3.2023 H   0  0  0  0  0  0  0  0  0  0  0  0
    0.4708    0.4299   -2.6810 H   0  0  0  0  0  0  0  0  0  0  0  0
    2.0320    2.8159   -1.6161 H   0  0  0  0  0  0  0  0  0  0  0  0
    0.4169    2.3903   -1.0163 H   0  0  0  0  0  0  0  0  0  0  0  0
    3.6763    2.0635    0.2199 H   0  0  0  0  0  0  0  0  0  0  0  0
  1 10  1  0  0  0  0
  2  1  1  0  0  0  0
  2  3  1  1  0  0  0
  3  4  2  0  0  0  0
  5 14  1  6  0  0  0
  5  8  1  0  0  0  0
  5  2  1  0  0  0  0
  6  7  1  0  0  0  0
  6  5  1  0  0  0  0
  7 18  1  0  0  0  0
  7  8  1  0  0  0  0
  8  2  1  0  0  0  0
  8  9  1  1  0  0  0
 11  1  1  0  0  0  0
 12  1  1  0  0  0  0
 13  3  1  0  0  0  0
 15  6  1  0  0  0  0
 16  6  1  0  0  0  0
 17  7  1  0  0  0  0
 19  9  1  0  0  0  0
M TOR 0 0 1 2 3
M TOR 1 0 1 2 12
M TOR 2 0 1 4 5
M TOR 3 0 1 4 7
M TOR 4 0 1 4 13
M TOR 5 0 1 7 6
M TOR 6 0 1 7 8
M TOR 7 1 4 5 6
M TOR 8 1 4 5 14
M TOR 9 1 4 5 15
M TOR 10 1 4 7 6
M TOR 11 1 4 7 8
M TOR 12 1 7 4 5
M TOR 13 1 7 4 13
M TOR 14 1 7 6 5
M TOR 15 1 7 6 16
M TOR 16 1 7 6 17
M TOR 17 1 7 8 18
M TOR 18 2 1 0 9
M TOR 19 2 1 0 10
M TOR 20 2 1 0 11
M TOR 21 2 1 4 5
M TOR 22 2 1 4 7
M TOR 23 2 1 4 13
M TOR 24 2 1 7 6
M TOR 25 2 1 7 8
M TOR 26 3 2 1 4
M TOR 27 3 2 1 7
M TOR 28 4 1 0 9
M TOR 29 4 1 0 10
M TOR 30 4 1 0 11
M TOR 31 4 1 2 12
M TOR 32 4 5 6 7
M TOR 33 4 5 6 16
M TOR 34 4 5 6 17
M TOR 35 4 7 6 16
M TOR 36 4 7 6 17
M TOR 37 4 7 8 18
M TOR 38 5 4 7 8
M TOR 39 5 6 7 8
M TOR 40 6 5 4 13
M TOR 41 6 7 4 13
M TOR 42 6 7 8 18
M TOR 43 7 1 0 9
M TOR 44 7 1 0 10
M TOR 45 7 1 0 11
M TOR 46 7 1 2 12
M TOR 47 7 4 5 14
M TOR 48 7 4 5 15
M TOR 49 7 6 5 14
M TOR 50 7 6 5 15
M TOR 51 8 7 4 13
M TOR 52 8 7 6 16
M TOR 53 8 7 6 17
M  END
$$$$
