gdb 1357	2.209786	1.3174665	0.8786385	1.7274	76.7	-0.24079	0.0534	0.29419	1318.8296	0.154481	-422.499383	-422.489501	-422.488557	-422.535329	35.044
 OpenBabel02181911403D

 19 19  0  0  1  0  0  0  0  0999 V2000
    4.5194   -1.2620   -0.6259 O   0  0  0  0  0  0  0  0  0  0  0  0
    3.0992   -1.2760   -0.5573 C   0  0  1  0  0  0  0  0  0  0  0  0
    2.5812    0.0562    0.0352 C   0  0  0  0  0  0  0  0  0  0  0  0
    1.1702    0.0650    0.3962 C   0  0  0  0  0  0  0  0  0  0  0  0
    0.0176    0.0732    0.7344 C   0  0  0  0  0  0  0  0  0  0  0  0
    2.6534   -1.5161   -1.9963 C   0  0  1  0  0  0  0  0  0  0  0  0
    2.9611   -2.9069   -2.5882 C   0  0  0  0  0  0  0  0  0  0  0  0
    1.4315   -3.0134   -2.7514 C   0  0  0  0  0  0  0  0  0  0  0  0
    1.2336   -1.7245   -2.1291 O   0  0  0  0  0  0  0  0  0  0  0  0
    4.8666   -1.2197    0.2704 H   0  0  0  0  0  0  0  0  0  0  0  0
    2.7372   -2.1076    0.0661 H   0  0  0  0  0  0  0  0  0  0  0  0
    3.1768    0.2709    0.9338 H   0  0  0  0  0  0  0  0  0  0  0  0
    2.8042    0.8631   -0.6744 H   0  0  0  0  0  0  0  0  0  0  0  0
   -1.0090    0.0766    1.0046 H   0  0  0  0  0  0  0  0  0  0  0  0
    2.9962   -0.6736   -2.6140 H   0  0  0  0  0  0  0  0  0  0  0  0
    3.5439   -2.9124   -3.5095 H   0  0  0  0  0  0  0  0  0  0  0  0
    3.4070   -3.6056   -1.8787 H   0  0  0  0  0  0  0  0  0  0  0  0
    1.0671   -3.0234   -3.7861 H   0  0  0  0  0  0  0  0  0  0  0  0
    0.9346   -3.8161   -2.1939 H   0  0  0  0  0  0  0  0  0  0  0  0
  1  2  1  0  0  0  0
  1 10  1  0  0  0  0
  2  3  1  0  0  0  0
  2 11  1  1  0  0  0
  3  4  1  0  0  0  0
  3 12  1  0  0  0  0
  4  5  3  0  0  0  0
  5 14  1  0  0  0  0
  6 15  1  6  0  0  0
  6  2  1  0  0  0  0
  7  6  1  0  0  0  0
  7 17  1  0  0  0  0
  8  7  1  0  0  0  0
  8 19  1  0  0  0  0
  8  9  1  0  0  0  0
  9  6  1  0  0  0  0
 13  3  1  0  0  0  0
 16  7  1  0  0  0  0
 18  8  1  0  0  0  0
M TOR 0 0 1 2 3
M TOR 1 0 1 2 11
M TOR 2 0 1 2 12
M TOR 3 0 1 5 6
M TOR 4 0 1 5 8
M TOR 5 0 1 5 14
M TOR 6 1 2 3 4
M TOR 7 1 5 6 7
M TOR 8 1 5 6 15
M TOR 9 1 5 6 16
M TOR 10 1 5 8 7
M TOR 11 2 1 0 9
M TOR 12 2 1 5 6
M TOR 13 2 1 5 8
M TOR 14 2 1 5 14
M TOR 15 2 3 4 13
M TOR 16 3 2 1 5
M TOR 17 3 2 1 10
M TOR 18 4 3 2 11
M TOR 19 4 3 2 12
M TOR 20 5 1 0 9
M TOR 21 5 1 2 11
M TOR 22 5 1 2 12
M TOR 23 5 6 7 8
M TOR 24 5 6 7 17
M TOR 25 5 6 7 18
M TOR 26 5 8 7 17
M TOR 27 5 8 7 18
M TOR 28 6 5 1 10
M TOR 29 7 6 5 14
M TOR 30 7 8 5 14
M TOR 31 8 5 1 10
M TOR 32 8 5 6 15
M TOR 33 8 5 6 16
M TOR 34 8 7 6 15
M TOR 35 8 7 6 16
M  END
$$$$
