
     RDKit          3D

 19 21  0  0  0  0  0  0  0  0999 V2000
   -0.5897   -1.8505    1.4898 C   0  0  0  0  0  0  0  0  0  0  0  0
    0.5165   -2.0418    0.4874 C   0  0  0  0  0  0  0  0  0  0  0  0
    0.3613   -3.0839   -0.6406 C   0  0  0  0  0  0  0  0  0  0  0  0
    1.7762   -2.9416   -1.1883 C   0  0  0  0  0  0  0  0  0  0  0  0
    2.5984   -2.5469    0.0126 C   0  0  0  0  0  0  0  0  0  0  0  0
    1.7429   -2.4608    1.1415 O   0  0  0  0  0  0  0  0  0  0  0  0
    2.1911   -1.4838   -0.9809 C   0  0  0  0  0  0  0  0  0  0  0  0
    1.0242   -0.7870   -0.2884 C   0  0  0  0  0  0  0  0  0  0  0  0
    1.4007    0.2755    0.5566 O   0  0  0  0  0  0  0  0  0  0  0  0
   -0.3548   -1.0201    2.1607 H   0  0  0  0  0  0  0  0  0  0  0  0
   -1.5280   -1.6190    0.9770 H   0  0  0  0  0  0  0  0  0  0  0  0
   -0.7338   -2.7562    2.0853 H   0  0  0  0  0  0  0  0  0  0  0  0
    0.1522   -4.0848   -0.2512 H   0  0  0  0  0  0  0  0  0  0  0  0
   -0.4189   -2.8043   -1.3546 H   0  0  0  0  0  0  0  0  0  0  0  0
    2.1706   -3.5489   -1.9918 H   0  0  0  0  0  0  0  0  0  0  0  0
    3.6069   -2.8684    0.2290 H   0  0  0  0  0  0  0  0  0  0  0  0
    2.8891   -0.9627   -1.6214 H   0  0  0  0  0  0  0  0  0  0  0  0
    0.2717   -0.3940   -0.9772 H   0  0  0  0  0  0  0  0  0  0  0  0
    1.9801   -0.1124    1.2254 H   0  0  0  0  0  0  0  0  0  0  0  0
  1  2  1  0
  2  3  1  0
  3  4  1  0
  4  5  1  0
  5  6  1  0
  5  7  1  0
  7  8  1  0
  8  9  1  0
  6  2  1  0
  8  2  1  0
  7  4  1  0
  1 10  1  0
  1 11  1  0
  1 12  1  0
  3 13  1  0
  3 14  1  0
  4 15  1  0
  5 16  1  0
  7 17  1  0
  8 18  1  0
  9 19  1  0
M  END
$$$$
