gdb 5383	3.0028993	1.2754234	1.0274543	1.791	77.14	-0.24346	0.00946	0.25292000000000003	1190.9422	0.158248	-422.549254	-422.541061	-422.540117	-422.582378	30.747
 OpenBabel02181911423D

 19 20  0  0  1  0  0  0  0  0999 V2000
    1.8182    0.5229   -0.1700 O   0  0  0  0  0  0  0  0  0  0  0  0
    0.4172    0.7045    0.0322 C   0  0  0  0  0  0  0  0  0  0  0  0
   -0.3751    0.4086   -1.2052 C   0  0  0  0  0  0  0  0  0  0  0  0
   -1.3553   -0.4920   -1.3321 C   0  0  0  0  0  0  0  0  0  0  0  0
   -1.9315   -0.5617   -2.7267 C   0  0  0  0  0  0  0  0  0  0  0  0
   -1.2117    0.5847   -3.4548 C   0  0  1  0  0  0  0  0  0  0  0  0
   -1.9363    1.8358   -3.3879 O   0  0  0  0  0  0  0  0  0  0  0  0
   -0.8647    2.4796   -2.6679 C   0  0  0  0  0  0  0  0  0  0  0  0
   -0.1167    1.1349   -2.5028 C   0  0  1  0  0  0  0  0  0  0  0  0
    1.9504   -0.3958   -0.4272 H   0  0  0  0  0  0  0  0  0  0  0  0
    0.0484    0.0986    0.8730 H   0  0  0  0  0  0  0  0  0  0  0  0
    0.3094    1.7579    0.3184 H   0  0  0  0  0  0  0  0  0  0  0  0
   -1.7130   -1.1216   -0.5228 H   0  0  0  0  0  0  0  0  0  0  0  0
   -1.7458   -1.5375   -3.1957 H   0  0  0  0  0  0  0  0  0  0  0  0
   -3.0153   -0.3967   -2.7525 H   0  0  0  0  0  0  0  0  0  0  0  0
   -0.9285    0.3475   -4.4862 H   0  0  0  0  0  0  0  0  0  0  0  0
   -0.3412    3.2169   -3.2909 H   0  0  0  0  0  0  0  0  0  0  0  0
   -1.2170    2.9677   -1.7512 H   0  0  0  0  0  0  0  0  0  0  0  0
    0.9303    1.1256   -2.8099 H   0  0  0  0  0  0  0  0  0  0  0  0
  1  2  1  0  0  0  0
  2 12  1  0  0  0  0
  2 11  1  0  0  0  0
  3  2  1  0  0  0  0
  4  3  2  0  0  0  0
  4 13  1  0  0  0  0
  5  4  1  0  0  0  0
  6 16  1  6  0  0  0
  6  7  1  0  0  0  0
  6  5  1  0  0  0  0
  6  9  1  0  0  0  0
  7  8  1  0  0  0  0
  8  9  1  0  0  0  0
  8 18  1  0  0  0  0
  9 19  1  6  0  0  0
  9  3  1  0  0  0  0
 10  1  1  0  0  0  0
 14  5  1  0  0  0  0
 15  5  1  0  0  0  0
 17  8  1  0  0  0  0
M TOR 0 0 1 2 3
M TOR 1 0 1 2 8
M TOR 2 1 2 3 4
M TOR 3 1 2 3 12
M TOR 4 1 2 8 5
M TOR 5 1 2 8 7
M TOR 6 1 2 8 18
M TOR 7 2 1 0 9
M TOR 8 2 3 4 5
M TOR 9 2 3 4 13
M TOR 10 2 3 4 14
M TOR 11 2 8 5 4
M TOR 12 2 8 5 6
M TOR 13 2 8 5 15
M TOR 14 2 8 7 6
M TOR 15 2 8 7 16
M TOR 16 2 8 7 17
M TOR 17 3 2 1 10
M TOR 18 3 2 1 11
M TOR 19 3 2 8 5
M TOR 20 3 2 8 7
M TOR 21 3 2 8 18
M TOR 22 3 4 5 6
M TOR 23 3 4 5 8
M TOR 24 3 4 5 15
M TOR 25 4 3 2 8
M TOR 26 4 5 6 7
M TOR 27 4 5 8 7
M TOR 28 4 5 8 18
M TOR 29 5 4 3 12
M TOR 30 5 6 7 8
M TOR 31 5 6 7 16
M TOR 32 5 6 7 17
M TOR 33 5 8 7 16
M TOR 34 5 8 7 17
M TOR 35 6 5 4 13
M TOR 36 6 5 4 14
M TOR 37 6 5 8 18
M TOR 38 6 7 8 18
M TOR 39 7 6 5 15
M TOR 40 7 8 5 15
M TOR 41 8 2 1 10
M TOR 42 8 2 1 11
M TOR 43 8 2 3 12
M TOR 44 8 5 4 13
M TOR 45 8 5 4 14
M  END
$$$$
