gdb 2841	4.0866389	1.181869	1.0902812	2.4734	75.34	-0.25161	0.06723	0.31884	1153.5312	0.155669	-422.494715	-422.486372	-422.485427	-422.526908	33.055
 OpenBabel02181911413D

 19 21  0  0  1  0  0  0  0  0999 V2000
   -4.4415   -1.7846    0.1830 C   0  0  0  0  0  0  0  0  0  0  0  0
   -3.4362   -1.0190   -0.6636 C   0  0  1  0  0  0  0  0  0  0  0  0
   -3.8658   -0.9360   -2.0109 O   0  0  0  0  0  0  0  0  0  0  0  0
   -2.8935    0.3294   -0.1630 C   0  0  1  0  0  0  0  0  0  0  0  0
   -1.8902   -0.3564    0.8294 C   0  0  2  0  0  0  0  0  0  0  0  0
   -0.7195    0.4828    0.2793 C   0  0  1  0  0  0  0  0  0  0  0  0
    0.5999    0.0146    0.3889 O   0  0  0  0  0  0  0  0  0  0  0  0
   -1.5583    0.1674   -0.9733 C   0  0  1  0  0  0  0  0  0  0  0  0
   -1.9231   -1.2746   -0.4502 C   0  0  2  0  0  0  0  0  0  0  0  0
   -4.1465   -1.8254    1.2347 H   0  0  0  0  0  0  0  0  0  0  0  0
   -5.4283   -1.3157    0.1158 H   0  0  0  0  0  0  0  0  0  0  0  0
   -4.5368   -2.8190   -0.1724 H   0  0  0  0  0  0  0  0  0  0  0  0
   -4.1299   -1.8163   -2.2981 H   0  0  0  0  0  0  0  0  0  0  0  0
   -3.4320    1.2628    0.0074 H   0  0  0  0  0  0  0  0  0  0  0  0
   -2.0995   -0.6623    1.8550 H   0  0  0  0  0  0  0  0  0  0  0  0
   -0.6935    1.5317    0.5911 H   0  0  0  0  0  0  0  0  0  0  0  0
    0.6192   -0.9037    0.0983 H   0  0  0  0  0  0  0  0  0  0  0  0
   -1.4012    0.4530   -2.0116 H   0  0  0  0  0  0  0  0  0  0  0  0
   -1.3612   -2.1978   -0.6127 H   0  0  0  0  0  0  0  0  0  0  0  0
  1 10  1  0  0  0  0
  2  3  1  6  0  0  0
  2  9  1  0  0  0  0
  2  4  1  0  0  0  0
  2  1  1  0  0  0  0
  4 14  1  1  0  0  0
  4  5  1  0  0  0  0
  5 15  1  1  0  0  0
  6  7  1  0  0  0  0
  6 16  1  1  0  0  0
  6  5  1  0  0  0  0
  8 18  1  6  0  0  0
  8  9  1  0  0  0  0
  8  4  1  0  0  0  0
  8  6  1  0  0  0  0
  9 19  1  6  0  0  0
  9  5  1  0  0  0  0
 11  1  1  0  0  0  0
 12  1  1  0  0  0  0
 13  3  1  0  0  0  0
 17  7  1  0  0  0  0
M TOR 0 0 1 2 12
M TOR 1 0 1 3 4
M TOR 2 0 1 3 7
M TOR 3 0 1 3 13
M TOR 4 0 1 8 4
M TOR 5 0 1 8 7
M TOR 6 0 1 8 18
M TOR 7 1 3 4 5
M TOR 8 1 3 4 8
M TOR 9 1 3 4 14
M TOR 10 1 3 7 5
M TOR 11 1 3 7 8
M TOR 12 1 3 7 17
M TOR 13 1 8 4 5
M TOR 14 1 8 4 14
M TOR 15 1 8 7 5
M TOR 16 1 8 7 17
M TOR 17 2 1 0 9
M TOR 18 2 1 0 10
M TOR 19 2 1 0 11
M TOR 20 2 1 3 4
M TOR 21 2 1 3 7
M TOR 22 2 1 3 13
M TOR 23 2 1 8 4
M TOR 24 2 1 8 7
M TOR 25 2 1 8 18
M TOR 26 3 1 0 9
M TOR 27 3 1 0 10
M TOR 28 3 1 0 11
M TOR 29 3 1 2 12
M TOR 30 3 1 8 18
M TOR 31 3 4 5 6
M TOR 32 3 4 5 7
M TOR 33 3 4 5 15
M TOR 34 3 4 8 7
M TOR 35 3 4 8 18
M TOR 36 3 7 5 6
M TOR 37 3 7 5 15
M TOR 38 3 7 8 18
M TOR 39 4 3 7 17
M TOR 40 4 5 6 16
M TOR 41 4 5 7 8
M TOR 42 4 5 7 17
M TOR 43 4 8 7 17
M TOR 44 5 4 3 13
M TOR 45 5 4 8 18
M TOR 46 5 7 3 13
M TOR 47 5 7 8 18
M TOR 48 6 5 4 8
M TOR 49 6 5 4 14
M TOR 50 6 5 7 8
M TOR 51 6 5 7 17
M TOR 52 7 3 4 14
M TOR 53 7 5 4 14
M TOR 54 7 5 6 16
M TOR 55 7 8 4 14
M TOR 56 8 1 0 9
M TOR 57 8 1 0 10
M TOR 58 8 1 0 11
M TOR 59 8 1 2 12
M TOR 60 8 1 3 13
M TOR 61 8 4 3 13
M TOR 62 8 4 5 15
M TOR 63 8 7 3 13
M TOR 64 8 7 5 15
M  END
$$$$
