
     RDKit          3D

 19 20  0  0  0  0  0  0  0  0999 V2000
    0.8060   -1.0231   -0.4546 O   0  0  0  0  0  0  0  0  0  0  0  0
    0.4347    0.0550   -0.0588 C   0  0  0  0  0  0  0  0  0  0  0  0
    0.1566    1.2245   -0.9125 C   0  0  0  0  0  0  0  0  0  0  0  0
   -0.9520    2.1950   -0.4965 C   0  0  0  0  0  0  0  0  0  0  0  0
   -1.8520    2.8416   -1.5370 C   0  0  0  0  0  0  0  0  0  0  0  0
   -1.0471    3.6249   -2.5872 C   0  0  0  0  0  0  0  0  0  0  0  0
    0.0702    4.4092   -1.9049 C   0  0  0  0  0  0  0  0  0  0  0  0
    1.0139    3.5404   -1.2810 O   0  0  0  0  0  0  0  0  0  0  0  0
    0.4680    2.6313   -0.3799 C   0  0  0  0  0  0  0  0  0  0  0  0
    0.2745    0.2414    1.0317 H   0  0  0  0  0  0  0  0  0  0  0  0
    0.3317    1.0795   -1.9727 H   0  0  0  0  0  0  0  0  0  0  0  0
   -1.4437    1.9396    0.4389 H   0  0  0  0  0  0  0  0  0  0  0  0
   -2.4949    2.0925   -2.0115 H   0  0  0  0  0  0  0  0  0  0  0  0
   -2.5174    3.5394   -1.0131 H   0  0  0  0  0  0  0  0  0  0  0  0
   -0.6030    2.9498   -3.3276 H   0  0  0  0  0  0  0  0  0  0  0  0
   -1.7062    4.3093   -3.1317 H   0  0  0  0  0  0  0  0  0  0  0  0
    0.6502    4.9931   -2.6238 H   0  0  0  0  0  0  0  0  0  0  0  0
   -0.3541    5.1048   -1.1629 H   0  0  0  0  0  0  0  0  0  0  0  0
    0.9211    2.6958    0.6070 H   0  0  0  0  0  0  0  0  0  0  0  0
  1  2  2  0
  2  3  1  0
  3  4  1  0
  4  5  1  0
  5  6  1  0
  6  7  1  0
  7  8  1  0
  8  9  1  0
  9  3  1  0
  9  4  1  0
  2 10  1  0
  3 11  1  0
  4 12  1  0
  5 13  1  0
  5 14  1  0
  6 15  1  0
  6 16  1  0
  7 17  1  0
  7 18  1  0
  9 19  1  0
M  END
$$$$
