
     RDKit          3D

 19 18  0  0  0  0  0  0  0  0999 V2000
    6.6658   -2.3418    1.4986 O   0  0  0  0  0  0  0  0  0  0  0  0
    5.2683   -2.2908    1.7325 C   0  0  0  0  0  0  0  0  0  0  0  0
    4.6855   -1.2131    0.8264 C   0  0  0  0  0  0  0  0  0  0  0  0
    3.1681   -1.0820    0.9808 C   0  0  0  0  0  0  0  0  0  0  0  0
    2.5564    0.0246    0.0774 C   0  0  0  0  0  0  0  0  0  0  0  0
    3.0318    1.4001    0.5590 C   0  0  0  0  0  0  0  0  0  0  0  0
    3.8153    2.0923   -0.0307 O   0  0  0  0  0  0  0  0  0  0  0  0
    1.0989   -0.0043    0.1070 C   0  0  0  0  0  0  0  0  0  0  0  0
   -0.1017    0.0028    0.1694 C   0  0  0  0  0  0  0  0  0  0  0  0
    7.0440   -3.0149    2.0718 H   0  0  0  0  0  0  0  0  0  0  0  0
    4.7896   -3.2599    1.5139 H   0  0  0  0  0  0  0  0  0  0  0  0
    5.0466   -2.0506    2.7857 H   0  0  0  0  0  0  0  0  0  0  0  0
    5.1840   -0.2632    1.0496 H   0  0  0  0  0  0  0  0  0  0  0  0
    4.9380   -1.4575   -0.2123 H   0  0  0  0  0  0  0  0  0  0  0  0
    2.6757   -2.0273    0.7287 H   0  0  0  0  0  0  0  0  0  0  0  0
    2.9028   -0.8675    2.0242 H   0  0  0  0  0  0  0  0  0  0  0  0
    2.9215   -0.0998   -0.9484 H   0  0  0  0  0  0  0  0  0  0  0  0
    2.5929    1.7047    1.5355 H   0  0  0  0  0  0  0  0  0  0  0  0
   -1.1632   -0.0005    0.2032 H   0  0  0  0  0  0  0  0  0  0  0  0
  1  2  1  0
  2  3  1  0
  3  4  1  0
  4  5  1  0
  5  6  1  0
  6  7  2  0
  5  8  1  0
  8  9  3  0
  1 10  1  0
  2 11  1  0
  2 12  1  0
  3 13  1  0
  3 14  1  0
  4 15  1  0
  4 16  1  0
  5 17  1  0
  6 18  1  0
  9 19  1  0
M  END
$$$$
