gdb 4775	2.6784135	1.0248387	0.7950302	1.6174	79.45	-0.25522	0.01598	0.2712	1448.75	0.152807	-422.486595	-422.476269	-422.475325	-422.522322	36.37
 OpenBabel02181911413D

 19 19  0  0  1  0  0  0  0  0999 V2000
    1.4166   -0.0992   -0.2412 C   0  0  0  0  0  0  0  0  0  0  0  0
    0.0277   -0.1415    0.0104 O   0  0  0  0  0  0  0  0  0  0  0  0
   -0.3964    0.6155    1.1301 C   0  0  1  0  0  0  0  0  0  0  0  0
   -1.9153    0.7206    1.0575 C   0  0  0  0  0  0  0  0  0  0  0  0
    0.0361   -0.0470    2.4286 C   0  0  2  0  0  0  0  0  0  0  0  0
   -0.1462    0.7180    3.6161 O   0  0  0  0  0  0  0  0  0  0  0  0
    1.2015    0.4233    3.2099 C   0  0  1  0  0  0  0  0  0  0  0  0
    1.9690   -0.4646    4.0402 C   0  0  0  0  0  0  0  0  0  0  0  0
    2.6340   -1.1982    4.7215 C   0  0  0  0  0  0  0  0  0  0  0  0
    2.0047   -0.5811    0.5520 H   0  0  0  0  0  0  0  0  0  0  0  0
    1.5868   -0.6369   -1.1770 H   0  0  0  0  0  0  0  0  0  0  0  0
    1.7744    0.9358   -0.3581 H   0  0  0  0  0  0  0  0  0  0  0  0
    0.0452    1.6262    1.0952 H   0  0  0  0  0  0  0  0  0  0  0  0
   -2.2942    1.2902    1.9098 H   0  0  0  0  0  0  0  0  0  0  0  0
   -2.2135    1.2187    0.1318 H   0  0  0  0  0  0  0  0  0  0  0  0
   -2.3655   -0.2769    1.0716 H   0  0  0  0  0  0  0  0  0  0  0  0
   -0.2376   -1.0995    2.5178 H   0  0  0  0  0  0  0  0  0  0  0  0
    1.7427    1.2904    2.8312 H   0  0  0  0  0  0  0  0  0  0  0  0
    3.2156   -1.8484    5.3275 H   0  0  0  0  0  0  0  0  0  0  0  0
  1  2  1  0  0  0  0
  1 10  1  0  0  0  0
  2  3  1  0  0  0  0
  3 13  1  6  0  0  0
  3  5  1  0  0  0  0
  4 16  1  0  0  0  0
  4  3  1  0  0  0  0
  4 14  1  0  0  0  0
  5 17  1  1  0  0  0
  5  7  1  0  0  0  0
  5  6  1  0  0  0  0
  7 18  1  6  0  0  0
  7  6  1  0  0  0  0
  7  8  1  0  0  0  0
  8  9  3  0  0  0  0
  9 19  1  0  0  0  0
 11  1  1  0  0  0  0
 12  1  1  0  0  0  0
 15  4  1  0  0  0  0
M TOR 0 0 1 2 3
M TOR 1 0 1 2 4
M TOR 2 0 1 2 12
M TOR 3 1 2 3 13
M TOR 4 1 2 3 14
M TOR 5 1 2 3 15
M TOR 6 1 2 4 5
M TOR 7 1 2 4 6
M TOR 8 1 2 4 16
M TOR 9 2 1 0 9
M TOR 10 2 1 0 10
M TOR 11 2 1 0 11
M TOR 12 2 4 5 6
M TOR 13 2 4 6 7
M TOR 14 2 4 6 17
M TOR 15 3 2 4 5
M TOR 16 3 2 4 6
M TOR 17 3 2 4 16
M TOR 18 4 2 3 13
M TOR 19 4 2 3 14
M TOR 20 4 2 3 15
M TOR 21 4 5 6 7
M TOR 22 4 5 6 17
M TOR 23 4 6 7 8
M TOR 24 5 4 2 12
M TOR 25 5 6 4 16
M TOR 26 5 6 7 8
M TOR 27 6 4 2 12
M TOR 28 6 7 8 18
M TOR 29 7 6 4 16
M TOR 30 8 7 6 17
M  END
$$$$
