
     RDKit          3D

 19 21  0  0  0  0  0  0  0  0999 V2000
   -0.0468    1.7210    0.9853 C   0  0  0  0  0  0  0  0  0  0  0  0
    0.0453    0.1771    1.0881 C   0  0  0  0  0  0  0  0  0  0  0  0
    1.4756    0.3154    0.8278 O   0  0  0  0  0  0  0  0  0  0  0  0
    1.1287    1.4686    0.0093 C   0  0  0  0  0  0  0  0  0  0  0  0
    0.6271    0.9087   -1.3804 C   0  0  0  0  0  0  0  0  0  0  0  0
   -0.8459    0.5037   -1.2429 C   0  0  0  0  0  0  0  0  0  0  0  0
   -0.5841   -0.5548   -0.1502 C   0  0  0  0  0  0  0  0  0  0  0  0
    0.5307   -1.3437   -0.8751 C   0  0  0  0  0  0  0  0  0  0  0  0
    1.2549   -0.3488   -1.6339 O   0  0  0  0  0  0  0  0  0  0  0  0
   -0.9598    2.2219    0.6653 H   0  0  0  0  0  0  0  0  0  0  0  0
    0.3241    2.1732    1.9058 H   0  0  0  0  0  0  0  0  0  0  0  0
   -0.1542   -0.3231    2.0384 H   0  0  0  0  0  0  0  0  0  0  0  0
    1.9506    2.1825   -0.0735 H   0  0  0  0  0  0  0  0  0  0  0  0
    0.8644    1.5815   -2.2072 H   0  0  0  0  0  0  0  0  0  0  0  0
   -1.5353    1.2980   -0.9648 H   0  0  0  0  0  0  0  0  0  0  0  0
   -1.2026    0.0491   -2.1716 H   0  0  0  0  0  0  0  0  0  0  0  0
   -1.4457   -1.1687    0.1193 H   0  0  0  0  0  0  0  0  0  0  0  0
    1.2198   -1.8471   -0.1937 H   0  0  0  0  0  0  0  0  0  0  0  0
    0.1019   -2.0777   -1.5695 H   0  0  0  0  0  0  0  0  0  0  0  0
  1  2  1  0
  2  3  1  0
  3  4  1  0
  4  5  1  0
  5  6  1  0
  6  7  1  0
  7  8  1  0
  8  9  1  0
  4  1  1  0
  9  5  1  0
  7  2  1  0
  1 10  1  0
  1 11  1  0
  2 12  1  0
  4 13  1  0
  5 14  1  0
  6 15  1  0
  6 16  1  0
  7 17  1  0
  8 18  1  0
  8 19  1  0
M  END
$$$$
