
     RDKit          3D

 19 19  0  0  0  0  0  0  0  0999 V2000
   -0.2118   -0.4346    0.2848 C   0  0  0  0  0  0  0  0  0  0  0  0
    1.1914    0.0488   -0.0569 C   0  0  0  0  0  0  0  0  0  0  0  0
    2.2347   -0.3645    0.9812 C   0  0  0  0  0  0  0  0  0  0  0  0
    1.5270   -0.4494   -1.3498 O   0  0  0  0  0  0  0  0  0  0  0  0
    2.2557    0.5615   -2.0122 C   0  0  0  0  0  0  0  0  0  0  0  0
    1.5829    1.8464   -1.4897 C   0  0  0  0  0  0  0  0  0  0  0  0
    1.1996    1.4817   -0.1649 O   0  0  0  0  0  0  0  0  0  0  0  0
    2.4495    3.0166   -1.4893 C   0  0  0  0  0  0  0  0  0  0  0  0
    3.1707    3.9764   -1.5275 C   0  0  0  0  0  0  0  0  0  0  0  0
   -0.5199   -0.0390    1.2558 H   0  0  0  0  0  0  0  0  0  0  0  0
   -0.9162   -0.0941   -0.4774 H   0  0  0  0  0  0  0  0  0  0  0  0
   -0.2366   -1.5269    0.3250 H   0  0  0  0  0  0  0  0  0  0  0  0
    2.2422   -1.4514    1.0996 H   0  0  0  0  0  0  0  0  0  0  0  0
    3.2300   -0.0346    0.6733 H   0  0  0  0  0  0  0  0  0  0  0  0
    2.0067    0.0959    1.9461 H   0  0  0  0  0  0  0  0  0  0  0  0
    3.3221    0.5514   -1.7473 H   0  0  0  0  0  0  0  0  0  0  0  0
    2.1498    0.4245   -3.0901 H   0  0  0  0  0  0  0  0  0  0  0  0
    0.6833    2.0596   -2.0867 H   0  0  0  0  0  0  0  0  0  0  0  0
    3.8041    4.8286   -1.5524 H   0  0  0  0  0  0  0  0  0  0  0  0
  1  2  1  0
  2  3  1  0
  2  4  1  0
  4  5  1  0
  5  6  1  0
  6  7  1  0
  6  8  1  0
  8  9  3  0
  7  2  1  0
  1 10  1  0
  1 11  1  0
  1 12  1  0
  3 13  1  0
  3 14  1  0
  3 15  1  0
  5 16  1  0
  5 17  1  0
  6 18  1  0
  9 19  1  0
M  END
$$$$
