
     RDKit          3D

 19 21  0  0  0  0  0  0  0  0999 V2000
   -3.8995    3.3829   -0.4021 O   0  0  0  0  0  0  0  0  0  0  0  0
   -4.2340    2.3948    0.5299 C   0  0  0  0  0  0  0  0  0  0  0  0
   -3.6203    2.4316    1.9133 C   0  0  0  0  0  0  0  0  0  0  0  0
   -3.1553    1.4288    0.8823 C   0  0  0  0  0  0  0  0  0  0  0  0
   -3.2705   -0.1114    0.8840 C   0  0  0  0  0  0  0  0  0  0  0  0
   -1.8976   -0.1773    0.2007 C   0  0  0  0  0  0  0  0  0  0  0  0
   -0.8533    0.5348    1.0132 C   0  0  0  0  0  0  0  0  0  0  0  0
    0.4834    0.4523    0.6065 O   0  0  0  0  0  0  0  0  0  0  0  0
   -1.8051    1.3714    0.2055 C   0  0  0  0  0  0  0  0  0  0  0  0
   -4.3088    4.2080   -0.1214 H   0  0  0  0  0  0  0  0  0  0  0  0
   -5.2491    2.0034    0.4392 H   0  0  0  0  0  0  0  0  0  0  0  0
   -2.9519    3.2584    2.1333 H   0  0  0  0  0  0  0  0  0  0  0  0
   -4.2168    2.0855    2.7517 H   0  0  0  0  0  0  0  0  0  0  0  0
   -3.3421   -0.6005    1.8623 H   0  0  0  0  0  0  0  0  0  0  0  0
   -4.0865   -0.4687    0.2493 H   0  0  0  0  0  0  0  0  0  0  0  0
   -1.6111   -0.8764   -0.5769 H   0  0  0  0  0  0  0  0  0  0  0  0
   -0.8990    0.5363    2.1003 H   0  0  0  0  0  0  0  0  0  0  0  0
    0.5174    0.5257   -0.3533 H   0  0  0  0  0  0  0  0  0  0  0  0
   -1.4634    2.0557   -0.5625 H   0  0  0  0  0  0  0  0  0  0  0  0
  1  2  1  0
  2  3  1  0
  3  4  1  0
  4  5  1  0
  5  6  1  0
  6  7  1  0
  7  8  1  0
  7  9  1  0
  4  2  1  0
  9  4  1  0
  9  6  1  0
  1 10  1  0
  2 11  1  0
  3 12  1  0
  3 13  1  0
  5 14  1  0
  5 15  1  0
  6 16  1  0
  7 17  1  0
  8 18  1  0
  9 19  1  0
M  END
$$$$
