
     RDKit          3D

 19 21  0  0  0  0  0  0  0  0999 V2000
   -0.0154   -0.2595   -0.1326 C   0  0  0  0  0  0  0  0  0  0  0  0
    1.4829   -0.2043   -0.0443 C   0  0  0  0  0  0  0  0  0  0  0  0
    2.4281   -0.2671   -1.2744 C   0  0  0  0  0  0  0  0  0  0  0  0
    3.2786    0.5655   -0.3038 C   0  0  0  0  0  0  0  0  0  0  0  0
    2.0434    1.1379    0.2365 O   0  0  0  0  0  0  0  0  0  0  0  0
    3.6281   -0.4266    0.8333 C   0  0  0  0  0  0  0  0  0  0  0  0
    4.1406   -1.7202    0.4346 O   0  0  0  0  0  0  0  0  0  0  0  0
    2.8765   -2.3591    0.7362 C   0  0  0  0  0  0  0  0  0  0  0  0
    2.2142   -1.0057    1.0637 C   0  0  0  0  0  0  0  0  0  0  0  0
   -0.4675    0.0278    0.8225 H   0  0  0  0  0  0  0  0  0  0  0  0
   -0.3872    0.4156   -0.9079 H   0  0  0  0  0  0  0  0  0  0  0  0
   -0.3434   -1.2768   -0.3715 H   0  0  0  0  0  0  0  0  0  0  0  0
    2.8095   -1.2228   -1.6345 H   0  0  0  0  0  0  0  0  0  0  0  0
    2.0413    0.3449   -2.0898 H   0  0  0  0  0  0  0  0  0  0  0  0
    4.0138    1.3048   -0.6187 H   0  0  0  0  0  0  0  0  0  0  0  0
    4.1970    0.0150    1.6553 H   0  0  0  0  0  0  0  0  0  0  0  0
    2.4774   -2.9207   -0.1175 H   0  0  0  0  0  0  0  0  0  0  0  0
    2.9703   -3.0336    1.5955 H   0  0  0  0  0  0  0  0  0  0  0  0
    1.7350   -0.8998    2.0364 H   0  0  0  0  0  0  0  0  0  0  0  0
  1  2  1  0
  2  3  1  0
  3  4  1  0
  4  5  1  0
  4  6  1  0
  6  7  1  0
  7  8  1  0
  8  9  1  0
  5  2  1  0
  9  6  1  0
  9  2  1  0
  1 10  1  0
  1 11  1  0
  1 12  1  0
  3 13  1  0
  3 14  1  0
  4 15  1  0
  6 16  1  0
  8 17  1  0
  8 18  1  0
  9 19  1  0
M  END
$$$$
