
     RDKit          3D

 19 19  0  0  0  0  0  0  0  0999 V2000
    0.1270    0.6723   -0.0420 C   0  0  0  0  0  0  0  0  0  0  0  0
    1.2522   -0.3454    0.0378 C   0  0  0  0  0  0  0  0  0  0  0  0
    2.5946    0.2778    0.4196 C   0  0  0  0  0  0  0  0  0  0  0  0
    3.6386   -0.6847    0.3897 O   0  0  0  0  0  0  0  0  0  0  0  0
    3.7448   -1.2903   -0.8970 C   0  0  0  0  0  0  0  0  0  0  0  0
    2.3973   -1.9289   -1.2781 C   0  0  0  0  0  0  0  0  0  0  0  0
    1.3691   -0.9604   -1.2451 O   0  0  0  0  0  0  0  0  0  0  0  0
    4.8173   -2.2756   -0.8762 C   0  0  0  0  0  0  0  0  0  0  0  0
    5.6741   -3.1170   -0.8954 C   0  0  0  0  0  0  0  0  0  0  0  0
   -0.0380    1.1436    0.9316 H   0  0  0  0  0  0  0  0  0  0  0  0
    0.3651    1.4517   -0.7725 H   0  0  0  0  0  0  0  0  0  0  0  0
   -0.8001    0.1847   -0.3535 H   0  0  0  0  0  0  0  0  0  0  0  0
    1.0117   -1.1222    0.7837 H   0  0  0  0  0  0  0  0  0  0  0  0
    2.8179    1.1075   -0.2723 H   0  0  0  0  0  0  0  0  0  0  0  0
    2.5695    0.6697    1.4405 H   0  0  0  0  0  0  0  0  0  0  0  0
    3.9726   -0.5116   -1.6456 H   0  0  0  0  0  0  0  0  0  0  0  0
    2.4351   -2.3261   -2.2958 H   0  0  0  0  0  0  0  0  0  0  0  0
    2.1890   -2.7532   -0.5786 H   0  0  0  0  0  0  0  0  0  0  0  0
    6.4419   -3.8508   -0.9059 H   0  0  0  0  0  0  0  0  0  0  0  0
  1  2  1  0
  2  3  1  0
  3  4  1  0
  4  5  1  0
  5  6  1  0
  6  7  1  0
  5  8  1  0
  8  9  3  0
  7  2  1  0
  1 10  1  0
  1 11  1  0
  1 12  1  0
  2 13  1  0
  3 14  1  0
  3 15  1  0
  5 16  1  0
  6 17  1  0
  6 18  1  0
  9 19  1  0
M  END
$$$$
