
     RDKit          3D

 19 19  0  0  0  0  0  0  0  0999 V2000
    1.4174   -0.0117   -0.1781 C   0  0  0  0  0  0  0  0  0  0  0  0
    0.0258    0.0073    0.0609 O   0  0  0  0  0  0  0  0  0  0  0  0
   -0.4132    0.6881    1.2359 C   0  0  0  0  0  0  0  0  0  0  0  0
   -0.0014    2.1703    1.2270 C   0  0  0  0  0  0  0  0  0  0  0  0
   -0.0194   -0.0315    2.5512 C   0  0  0  0  0  0  0  0  0  0  0  0
   -1.3407   -0.2653    3.3019 C   0  0  0  0  0  0  0  0  0  0  0  0
   -1.4520   -0.6514    4.4406 O   0  0  0  0  0  0  0  0  0  0  0  0
   -2.4334    0.0718    2.3568 C   0  0  0  0  0  0  0  0  0  0  0  0
   -1.9271    0.5663    1.2253 C   0  0  0  0  0  0  0  0  0  0  0  0
    1.9843   -0.3874    0.6859 H   0  0  0  0  0  0  0  0  0  0  0  0
    1.5777   -0.6912   -1.0187 H   0  0  0  0  0  0  0  0  0  0  0  0
    1.8138    0.9759   -0.4507 H   0  0  0  0  0  0  0  0  0  0  0  0
   -0.4398    2.6895    2.0839 H   0  0  0  0  0  0  0  0  0  0  0  0
    1.0846    2.2829    1.2894 H   0  0  0  0  0  0  0  0  0  0  0  0
   -0.3486    2.6582    0.3110 H   0  0  0  0  0  0  0  0  0  0  0  0
    0.4163   -1.0096    2.3242 H   0  0  0  0  0  0  0  0  0  0  0  0
    0.6877    0.5130    3.1812 H   0  0  0  0  0  0  0  0  0  0  0  0
   -3.4783   -0.0742    2.5998 H   0  0  0  0  0  0  0  0  0  0  0  0
   -2.4862    0.8847    0.3521 H   0  0  0  0  0  0  0  0  0  0  0  0
  1  2  1  0
  2  3  1  0
  3  4  1  0
  3  5  1  0
  5  6  1  0
  6  7  2  0
  6  8  1  0
  8  9  2  0
  9  3  1  0
  1 10  1  0
  1 11  1  0
  1 12  1  0
  4 13  1  0
  4 14  1  0
  4 15  1  0
  5 16  1  0
  5 17  1  0
  8 18  1  0
  9 19  1  0
M  END
$$$$
