
     RDKit          3D

 19 21  0  0  0  0  0  0  0  0999 V2000
    0.1372    2.0641   -1.7593 C   0  0  0  0  0  0  0  0  0  0  0  0
    0.0774    0.6043   -2.1494 C   0  0  0  0  0  0  0  0  0  0  0  0
   -1.2975    0.0693   -2.5603 C   0  0  0  0  0  0  0  0  0  0  0  0
   -1.0466   -1.2220   -3.1252 O   0  0  0  0  0  0  0  0  0  0  0  0
    0.3230   -1.2497   -3.4692 C   0  0  0  0  0  0  0  0  0  0  0  0
    1.3632   -1.1288   -2.3734 C   0  0  0  0  0  0  0  0  0  0  0  0
    1.0027    0.0555   -3.2829 C   0  0  0  0  0  0  0  0  0  0  0  0
    0.7477   -0.4395   -1.1683 C   0  0  0  0  0  0  0  0  0  0  0  0
    1.7846    0.0988   -0.3714 O   0  0  0  0  0  0  0  0  0  0  0  0
   -0.5495    2.2837   -0.9324 H   0  0  0  0  0  0  0  0  0  0  0  0
    1.1471    2.3368   -1.4435 H   0  0  0  0  0  0  0  0  0  0  0  0
   -0.1463    2.7072   -2.5995 H   0  0  0  0  0  0  0  0  0  0  0  0
   -1.9793   -0.0526   -1.7104 H   0  0  0  0  0  0  0  0  0  0  0  0
   -1.7761    0.7255   -3.3040 H   0  0  0  0  0  0  0  0  0  0  0  0
    0.5402   -1.8974   -4.3099 H   0  0  0  0  0  0  0  0  0  0  0  0
    2.2644   -1.7308   -2.3480 H   0  0  0  0  0  0  0  0  0  0  0  0
    1.5801    0.6147   -4.0075 H   0  0  0  0  0  0  0  0  0  0  0  0
    0.0497   -1.0292   -0.5542 H   0  0  0  0  0  0  0  0  0  0  0  0
    1.3816    0.5394    0.3834 H   0  0  0  0  0  0  0  0  0  0  0  0
  1  2  1  0
  2  3  1  0
  3  4  1  0
  4  5  1  0
  5  6  1  0
  6  7  1  0
  6  8  1  0
  8  9  1  0
  7  2  1  0
  8  2  1  0
  7  5  1  0
  1 10  1  0
  1 11  1  0
  1 12  1  0
  3 13  1  0
  3 14  1  0
  5 15  1  0
  6 16  1  0
  7 17  1  0
  8 18  1  0
  9 19  1  0
M  END
$$$$
