
     RDKit          3D

 19 21  0  0  0  0  0  0  0  0999 V2000
    1.3933   -2.1487   -2.4512 C   0  0  0  0  0  0  0  0  0  0  0  0
    2.1480   -1.1187   -3.1332 O   0  0  0  0  0  0  0  0  0  0  0  0
    2.1085   -0.2588   -1.9775 C   0  0  0  0  0  0  0  0  0  0  0  0
    1.2305   -1.2792   -1.1948 C   0  0  0  0  0  0  0  0  0  0  0  0
    0.0365   -0.2854   -1.2614 C   0  0  0  0  0  0  0  0  0  0  0  0
   -0.3213    0.2981   -0.0251 O   0  0  0  0  0  0  0  0  0  0  0  0
    0.6239    1.3183    0.2835 C   0  0  0  0  0  0  0  0  0  0  0  0
    1.0142    1.9381   -1.0681 C   0  0  0  0  0  0  0  0  0  0  0  0
    0.9345    0.7490   -2.0340 C   0  0  0  0  0  0  0  0  0  0  0  0
    0.4724   -2.4166   -2.9864 H   0  0  0  0  0  0  0  0  0  0  0  0
    1.9971   -3.0532   -2.3078 H   0  0  0  0  0  0  0  0  0  0  0  0
    3.1002    0.1035   -1.6883 H   0  0  0  0  0  0  0  0  0  0  0  0
    1.4629   -1.7098   -0.2218 H   0  0  0  0  0  0  0  0  0  0  0  0
   -0.8758   -0.6665   -1.7279 H   0  0  0  0  0  0  0  0  0  0  0  0
    0.1435    2.0192    0.9708 H   0  0  0  0  0  0  0  0  0  0  0  0
    1.5051    0.8939    0.7900 H   0  0  0  0  0  0  0  0  0  0  0  0
    0.2846    2.7002   -1.3573 H   0  0  0  0  0  0  0  0  0  0  0  0
    2.0025    2.4067   -1.0454 H   0  0  0  0  0  0  0  0  0  0  0  0
    0.6468    1.0244   -3.0491 H   0  0  0  0  0  0  0  0  0  0  0  0
  1  2  1  0
  2  3  1  0
  3  4  1  0
  4  5  1  0
  5  6  1  0
  6  7  1  0
  7  8  1  0
  8  9  1  0
  4  1  1  0
  9  5  1  0
  9  3  1  0
  1 10  1  0
  1 11  1  0
  3 12  1  0
  4 13  1  0
  5 14  1  0
  7 15  1  0
  7 16  1  0
  8 17  1  0
  8 18  1  0
  9 19  1  0
M  END
$$$$
