gdb 1114	3.1602536	1.079363	1.0434211	3.3636	77.21	-0.24709	-0.0269	0.22019	1270.6782	0.154549	-422.541317	-422.532114	-422.53117	-422.575974	33.234
 OpenBabel02181911403D

 19 20  0  0  1  0  0  0  0  0999 V2000
   -1.0086   -1.0619   -3.3146 C   0  0  0  0  0  0  0  0  0  0  0  0
   -0.6317   -0.2871   -2.0666 C   0  0  0  0  0  0  0  0  0  0  0  0
   -1.2067   -0.4208   -1.0112 O   0  0  0  0  0  0  0  0  0  0  0  0
    0.4968    0.6975   -2.2300 C   0  0  2  0  0  0  0  0  0  0  0  0
    1.2293    1.0403   -1.0467 O   0  0  0  0  0  0  0  0  0  0  0  0
    0.4082    2.0352   -1.5947 C   0  0  0  0  0  0  0  0  0  0  0  0
    0.8820    3.3767   -2.1622 C   0  0  0  0  0  0  0  0  0  0  0  0
   -0.5143    3.9547   -1.7770 C   0  0  0  0  0  0  0  0  0  0  0  0
   -0.7855    2.6922   -0.9019 C   0  0  0  0  0  0  0  0  0  0  0  0
   -1.9020   -1.6574   -3.1254 H   0  0  0  0  0  0  0  0  0  0  0  0
   -1.1839   -0.3809   -4.1557 H   0  0  0  0  0  0  0  0  0  0  0  0
   -0.1833   -1.7215   -3.6086 H   0  0  0  0  0  0  0  0  0  0  0  0
    1.1063    0.5947   -3.1284 H   0  0  0  0  0  0  0  0  0  0  0  0
    1.6903    3.7932   -1.5538 H   0  0  0  0  0  0  0  0  0  0  0  0
    1.1794    3.4084   -3.2129 H   0  0  0  0  0  0  0  0  0  0  0  0
   -0.5150    4.9156   -1.2607 H   0  0  0  0  0  0  0  0  0  0  0  0
   -1.1878    4.0180   -2.6348 H   0  0  0  0  0  0  0  0  0  0  0  0
   -0.5717    2.8602    0.1574 H   0  0  0  0  0  0  0  0  0  0  0  0
   -1.7540    2.1979   -0.9851 H   0  0  0  0  0  0  0  0  0  0  0  0
  1 10  1  0  0  0  0
  1  2  1  0  0  0  0
  2  3  2  0  0  0  0
  4 13  1  6  0  0  0
  4  2  1  0  0  0  0
  4  6  1  0  0  0  0
  4  5  1  0  0  0  0
  6  5  1  0  0  0  0
  6  9  1  0  0  0  0
  7  8  1  0  0  0  0
  7  6  1  0  0  0  0
  7 14  1  0  0  0  0
  8 16  1  0  0  0  0
  8  9  1  0  0  0  0
  9 18  1  0  0  0  0
 11  1  1  0  0  0  0
 12  1  1  0  0  0  0
 15  7  1  0  0  0  0
 17  8  1  0  0  0  0
 19  9  1  0  0  0  0
M TOR 0 0 1 3 4
M TOR 1 0 1 3 5
M TOR 2 0 1 3 12
M TOR 3 1 3 4 5
M TOR 4 1 3 5 6
M TOR 5 1 3 5 8
M TOR 6 2 1 0 9
M TOR 7 2 1 0 10
M TOR 8 2 1 0 11
M TOR 9 2 1 3 4
M TOR 10 2 1 3 5
M TOR 11 2 1 3 12
M TOR 12 3 1 0 9
M TOR 13 3 1 0 10
M TOR 14 3 1 0 11
M TOR 15 3 4 5 6
M TOR 16 3 4 5 8
M TOR 17 3 5 6 7
M TOR 18 3 5 6 13
M TOR 19 3 5 6 14
M TOR 20 3 5 8 7
M TOR 21 3 5 8 17
M TOR 22 3 5 8 18
M TOR 23 4 5 3 12
M TOR 24 4 5 6 7
M TOR 25 4 5 6 13
M TOR 26 4 5 6 14
M TOR 27 4 5 8 7
M TOR 28 4 5 8 17
M TOR 29 4 5 8 18
M TOR 30 5 6 7 8
M TOR 31 5 6 7 15
M TOR 32 5 6 7 16
M TOR 33 5 8 7 15
M TOR 34 5 8 7 16
M TOR 35 6 5 3 12
M TOR 36 6 5 8 17
M TOR 37 6 5 8 18
M TOR 38 6 7 8 17
M TOR 39 6 7 8 18
M TOR 40 8 5 3 12
M TOR 41 8 5 6 13
M TOR 42 8 5 6 14
M TOR 43 8 7 6 13
M TOR 44 8 7 6 14
M  END
$$$$
