
     RDKit          3D

 19 20  0  0  0  0  0  0  0  0999 V2000
   -0.5430   -0.0884   -2.4723 C   0  0  0  0  0  0  0  0  0  0  0  0
   -1.5095   -0.0507   -1.3014 C   0  0  0  0  0  0  0  0  0  0  0  0
   -1.3187    0.9758   -0.1259 C   0  0  0  0  0  0  0  0  0  0  0  0
   -2.2225    0.0232    0.7387 C   0  0  0  0  0  0  0  0  0  0  0  0
   -2.1953    0.0828    2.2561 C   0  0  0  0  0  0  0  0  0  0  0  0
   -1.2601   -0.9571   -0.0351 C   0  0  0  0  0  0  0  0  0  0  0  0
   -1.2404   -2.3286    0.0219 O   0  0  0  0  0  0  0  0  0  0  0  0
   -0.1665    0.0598    0.3100 C   0  0  0  0  0  0  0  0  0  0  0  0
    0.9612    0.0833    0.7031 O   0  0  0  0  0  0  0  0  0  0  0  0
   -0.6502   -1.0288   -3.0230 H   0  0  0  0  0  0  0  0  0  0  0  0
   -0.7429    0.7302   -3.1713 H   0  0  0  0  0  0  0  0  0  0  0  0
    0.4998   -0.0062   -2.1492 H   0  0  0  0  0  0  0  0  0  0  0  0
   -2.5525   -0.0991   -1.6289 H   0  0  0  0  0  0  0  0  0  0  0  0
   -1.3625    2.0590   -0.1806 H   0  0  0  0  0  0  0  0  0  0  0  0
   -3.2437   -0.0272    0.3487 H   0  0  0  0  0  0  0  0  0  0  0  0
   -2.6410   -0.8233    2.6797 H   0  0  0  0  0  0  0  0  0  0  0  0
   -1.1764    0.1694    2.6472 H   0  0  0  0  0  0  0  0  0  0  0  0
   -2.7697    0.9389    2.6246 H   0  0  0  0  0  0  0  0  0  0  0  0
   -0.3703   -2.6035    0.3336 H   0  0  0  0  0  0  0  0  0  0  0  0
  1  2  1  0
  2  3  1  0
  3  4  1  0
  4  5  1  0
  4  6  1  0
  6  7  1  0
  6  8  1  0
  8  9  2  0
  6  2  1  0
  8  3  1  0
  1 10  1  0
  1 11  1  0
  1 12  1  0
  2 13  1  0
  3 14  1  0
  4 15  1  0
  5 16  1  0
  5 17  1  0
  5 18  1  0
  7 19  1  0
M  END
$$$$
