gdb 4358	2.439991	1.5497181	1.2164852	3.8864	75.17	-0.23249	-0.0085	0.22399	1080.894	0.158255	-422.583016	-422.574895	-422.573951	-422.615642	31.656
 OpenBabel02181911413D

 19 20  0  0  1  0  0  0  0  0999 V2000
   -3.5918   -0.3844    0.4914 O   0  0  0  0  0  0  0  0  0  0  0  0
   -2.9465   -0.1254   -0.7561 C   0  0  2  0  0  0  0  0  0  0  0  0
   -1.9629   -1.2507   -1.1138 C   0  0  0  0  0  0  0  0  0  0  0  0
   -0.8190   -1.3425   -0.0965 C   0  0  0  0  0  0  0  0  0  0  0  0
   -0.0940   -0.0305    0.1953 C   0  0  0  0  0  0  0  0  0  0  0  0
    1.0023   -0.0212    0.7103 O   0  0  0  0  0  0  0  0  0  0  0  0
   -0.8250    1.2424   -0.0916 C   0  0  1  0  0  0  0  0  0  0  0  0
   -1.1644    1.6179   -1.5316 C   0  0  0  0  0  0  0  0  0  0  0  0
   -2.2564    1.2116   -0.5939 C   0  0  1  0  0  0  0  0  0  0  0  0
   -4.1224   -1.1814    0.3904 H   0  0  0  0  0  0  0  0  0  0  0  0
   -3.6998   -0.0390   -1.5552 H   0  0  0  0  0  0  0  0  0  0  0  0
   -2.5096   -2.2011   -1.1461 H   0  0  0  0  0  0  0  0  0  0  0  0
   -1.5775   -1.0961   -2.1278 H   0  0  0  0  0  0  0  0  0  0  0  0
   -1.2392   -1.6467    0.8711 H   0  0  0  0  0  0  0  0  0  0  0  0
   -0.0770   -2.0967   -0.3700 H   0  0  0  0  0  0  0  0  0  0  0  0
   -0.5116    2.0617    0.5455 H   0  0  0  0  0  0  0  0  0  0  0  0
   -1.0668    2.6667   -1.7868 H   0  0  0  0  0  0  0  0  0  0  0  0
   -0.8670    0.9439   -2.3265 H   0  0  0  0  0  0  0  0  0  0  0  0
   -2.9122    1.9927   -0.2229 H   0  0  0  0  0  0  0  0  0  0  0  0
  2 11  1  6  0  0  0
  2  9  1  0  0  0  0
  2  1  1  0  0  0  0
  3  2  1  0  0  0  0
  3  4  1  0  0  0  0
  4  5  1  0  0  0  0
  4 14  1  0  0  0  0
  5  6  2  0  0  0  0
  7  5  1  0  0  0  0
  7 16  1  1  0  0  0
  8  9  1  0  0  0  0
  8  7  1  0  0  0  0
  9 19  1  1  0  0  0
  9  7  1  0  0  0  0
 10  1  1  0  0  0  0
 12  3  1  0  0  0  0
 13  3  1  0  0  0  0
 15  4  1  0  0  0  0
 17  8  1  0  0  0  0
 18  8  1  0  0  0  0
M TOR 0 0 1 2 3
M TOR 1 0 1 2 11
M TOR 2 0 1 2 12
M TOR 3 0 1 8 6
M TOR 4 0 1 8 7
M TOR 5 0 1 8 18
M TOR 6 1 2 3 4
M TOR 7 1 2 3 13
M TOR 8 1 2 3 14
M TOR 9 1 8 6 4
M TOR 10 1 8 6 7
M TOR 11 1 8 6 15
M TOR 12 1 8 7 16
M TOR 13 1 8 7 17
M TOR 14 2 1 0 9
M TOR 15 2 1 8 6
M TOR 16 2 1 8 7
M TOR 17 2 1 8 18
M TOR 18 2 3 4 5
M TOR 19 2 3 4 6
M TOR 20 3 2 1 8
M TOR 21 3 2 1 10
M TOR 22 3 4 6 7
M TOR 23 3 4 6 8
M TOR 24 3 4 6 15
M TOR 25 4 3 2 11
M TOR 26 4 3 2 12
M TOR 27 4 6 7 8
M TOR 28 4 6 7 16
M TOR 29 4 6 7 17
M TOR 30 4 6 8 18
M TOR 31 5 4 3 13
M TOR 32 5 4 3 14
M TOR 33 5 4 6 7
M TOR 34 5 4 6 8
M TOR 35 5 4 6 15
M TOR 36 6 4 3 13
M TOR 37 6 4 3 14
M TOR 38 6 7 8 18
M TOR 39 6 8 1 10
M TOR 40 6 8 7 16
M TOR 41 6 8 7 17
M TOR 42 7 8 1 10
M TOR 43 7 8 6 15
M TOR 44 8 1 0 9
M TOR 45 8 1 2 11
M TOR 46 8 1 2 12
M  END
$$$$
