
     RDKit          3D

 19 21  0  0  0  0  0  0  0  0999 V2000
    0.2722    0.7856   -0.2706 C   0  0  0  0  0  0  0  0  0  0  0  0
    0.6053   -0.6924   -0.1078 C   0  0  0  0  0  0  0  0  0  0  0  0
    1.6681   -1.2212   -1.1133 C   0  0  0  0  0  0  0  0  0  0  0  0
    1.7632   -2.6384   -0.8023 O   0  0  0  0  0  0  0  0  0  0  0  0
    2.4035   -2.2349    0.4097 C   0  0  0  0  0  0  0  0  0  0  0  0
    2.7994   -0.8802   -0.0704 C   0  0  0  0  0  0  0  0  0  0  0  0
    1.6699   -0.9955    0.9551 C   0  0  0  0  0  0  0  0  0  0  0  0
    1.6749   -0.6166    2.4017 C   0  0  0  0  0  0  0  0  0  0  0  0
    2.9317   -1.0022    2.9464 O   0  0  0  0  0  0  0  0  0  0  0  0
   -0.3181    1.1585    0.5731 H   0  0  0  0  0  0  0  0  0  0  0  0
    1.1819    1.3929   -0.3356 H   0  0  0  0  0  0  0  0  0  0  0  0
   -0.3134    0.9543   -1.1808 H   0  0  0  0  0  0  0  0  0  0  0  0
   -0.3065   -1.3014   -0.0733 H   0  0  0  0  0  0  0  0  0  0  0  0
    1.6304   -1.0032   -2.1796 H   0  0  0  0  0  0  0  0  0  0  0  0
    2.9111   -2.9670    1.0212 H   0  0  0  0  0  0  0  0  0  0  0  0
    3.7361   -0.3418   -0.0930 H   0  0  0  0  0  0  0  0  0  0  0  0
    1.5138    0.4687    2.5116 H   0  0  0  0  0  0  0  0  0  0  0  0
    0.8428   -1.1233    2.9195 H   0  0  0  0  0  0  0  0  0  0  0  0
    2.9442   -0.7604    3.8767 H   0  0  0  0  0  0  0  0  0  0  0  0
  1  2  1  0
  2  3  1  0
  3  4  1  0
  4  5  1  0
  5  6  1  0
  6  7  1  0
  7  8  1  0
  8  9  1  0
  7  2  1  0
  6  3  1  0
  7  5  1  0
  1 10  1  0
  1 11  1  0
  1 12  1  0
  2 13  1  0
  3 14  1  0
  5 15  1  0
  6 16  1  0
  8 17  1  0
  8 18  1  0
  9 19  1  0
M  END
$$$$
