
     RDKit          3D

 19 21  0  0  0  0  0  0  0  0999 V2000
   -0.0259    1.2153    0.6457 C   0  0  0  0  0  0  0  0  0  0  0  0
    1.3358    0.5821    0.3671 C   0  0  0  0  0  0  0  0  0  0  0  0
    2.0451    0.2376    1.6752 C   0  0  0  0  0  0  0  0  0  0  0  0
    1.4478   -0.4538   -0.7632 C   0  0  0  0  0  0  0  0  0  0  0  0
    2.9450   -0.2224   -0.8310 O   0  0  0  0  0  0  0  0  0  0  0  0
    2.2800    1.1349   -0.7789 C   0  0  0  0  0  0  0  0  0  0  0  0
    2.1185    2.5640   -1.3266 C   0  0  0  0  0  0  0  0  0  0  0  0
    0.8426    2.0857   -1.9138 O   0  0  0  0  0  0  0  0  0  0  0  0
    1.3816    0.7019   -1.8617 C   0  0  0  0  0  0  0  0  0  0  0  0
   -0.5866    0.5713    1.3327 H   0  0  0  0  0  0  0  0  0  0  0  0
    0.0975    2.1828    1.1456 H   0  0  0  0  0  0  0  0  0  0  0  0
   -0.6235    1.3762   -0.2495 H   0  0  0  0  0  0  0  0  0  0  0  0
    1.4519   -0.4823    2.2504 H   0  0  0  0  0  0  0  0  0  0  0  0
    3.0312   -0.1897    1.4959 H   0  0  0  0  0  0  0  0  0  0  0  0
    2.1535    1.1340    2.2960 H   0  0  0  0  0  0  0  0  0  0  0  0
    1.1571   -1.5083   -0.8046 H   0  0  0  0  0  0  0  0  0  0  0  0
    1.9567    3.3721   -0.6080 H   0  0  0  0  0  0  0  0  0  0  0  0
    2.8248    2.8603   -2.1092 H   0  0  0  0  0  0  0  0  0  0  0  0
    1.8002    0.4196   -2.8279 H   0  0  0  0  0  0  0  0  0  0  0  0
  1  2  1  0
  2  3  1  0
  2  4  1  0
  4  5  1  0
  5  6  1  0
  6  7  1  0
  7  8  1  0
  8  9  1  0
  6  2  1  0
  9  6  1  0
  9  4  1  0
  1 10  1  0
  1 11  1  0
  1 12  1  0
  3 13  1  0
  3 14  1  0
  3 15  1  0
  4 16  1  0
  7 17  1  0
  7 18  1  0
  9 19  1  0
M  END
$$$$
