
     RDKit          3D

 19 20  0  0  0  0  0  0  0  0999 V2000
    1.3263   -0.6706   -1.1745 C   0  0  0  0  0  0  0  0  0  0  0  0
    0.9430    0.0926    0.0728 C   0  0  0  0  0  0  0  0  0  0  0  0
    1.6954    1.3755    0.4450 C   0  0  0  0  0  0  0  0  0  0  0  0
    0.9437    2.2998    1.3469 C   0  0  0  0  0  0  0  0  0  0  0  0
    0.7016    1.7397    2.5350 C   0  0  0  0  0  0  0  0  0  0  0  0
    1.3195    0.3571    2.6453 C   0  0  0  0  0  0  0  0  0  0  0  0
    0.4378   -0.6641    3.1014 O   0  0  0  0  0  0  0  0  0  0  0  0
    1.9045    0.1216    1.2466 C   0  0  0  0  0  0  0  0  0  0  0  0
    3.1140   -0.5669    1.1590 O   0  0  0  0  0  0  0  0  0  0  0  0
    0.9954   -1.7139   -1.1143 H   0  0  0  0  0  0  0  0  0  0  0  0
    0.8659   -0.2286   -2.0643 H   0  0  0  0  0  0  0  0  0  0  0  0
    2.4102   -0.6758   -1.3114 H   0  0  0  0  0  0  0  0  0  0  0  0
   -0.1224    0.1058    0.2971 H   0  0  0  0  0  0  0  0  0  0  0  0
    2.4508    1.7418   -0.2412 H   0  0  0  0  0  0  0  0  0  0  0  0
    0.6130    3.2843    1.0342 H   0  0  0  0  0  0  0  0  0  0  0  0
    0.1373    2.1785    3.3495 H   0  0  0  0  0  0  0  0  0  0  0  0
    2.1418    0.3456    3.3724 H   0  0  0  0  0  0  0  0  0  0  0  0
   -0.3234   -0.6694    2.5102 H   0  0  0  0  0  0  0  0  0  0  0  0
    2.9464   -1.4798    1.4217 H   0  0  0  0  0  0  0  0  0  0  0  0
  1  2  1  0
  2  3  1  0
  3  4  1  0
  4  5  2  0
  5  6  1  0
  6  7  1  0
  6  8  1  0
  8  9  1  0
  8  2  1  0
  8  3  1  0
  1 10  1  0
  1 11  1  0
  1 12  1  0
  2 13  1  0
  3 14  1  0
  4 15  1  0
  5 16  1  0
  6 17  1  0
  7 18  1  0
  9 19  1  0
M  END
$$$$
