
     RDKit          3D

 19 21  0  0  0  0  0  0  0  0999 V2000
    0.0193    0.0697   -0.0971 C   0  0  0  0  0  0  0  0  0  0  0  0
    1.5176   -0.0848    0.0065 C   0  0  0  0  0  0  0  0  0  0  0  0
    2.1834   -0.4494    1.3047 C   0  0  0  0  0  0  0  0  0  0  0  0
    2.3686    0.9386    0.7216 C   0  0  0  0  0  0  0  0  0  0  0  0
    3.6542    1.3470    0.0620 C   0  0  0  0  0  0  0  0  0  0  0  0
    4.5722    0.3137   -0.3164 O   0  0  0  0  0  0  0  0  0  0  0  0
    3.8504    0.9885   -1.3480 C   0  0  0  0  0  0  0  0  0  0  0  0
    2.7555    0.1872   -2.0252 C   0  0  0  0  0  0  0  0  0  0  0  0
    2.0929   -0.6864   -1.1303 O   0  0  0  0  0  0  0  0  0  0  0  0
   -0.3965    0.4928    0.8223 H   0  0  0  0  0  0  0  0  0  0  0  0
   -0.2539    0.7303   -0.9276 H   0  0  0  0  0  0  0  0  0  0  0  0
   -0.4512   -0.9036   -0.2709 H   0  0  0  0  0  0  0  0  0  0  0  0
    1.5751   -0.5494    2.1968 H   0  0  0  0  0  0  0  0  0  0  0  0
    3.0312   -1.1196    1.2296 H   0  0  0  0  0  0  0  0  0  0  0  0
    1.8489    1.7565    1.2121 H   0  0  0  0  0  0  0  0  0  0  0  0
    4.1314    2.2422    0.4584 H   0  0  0  0  0  0  0  0  0  0  0  0
    4.4480    1.6233   -2.0028 H   0  0  0  0  0  0  0  0  0  0  0  0
    2.0579    0.8915   -2.5104 H   0  0  0  0  0  0  0  0  0  0  0  0
    3.1735   -0.4562   -2.8061 H   0  0  0  0  0  0  0  0  0  0  0  0
  1  2  1  0
  2  3  1  0
  3  4  1  0
  4  5  1  0
  5  6  1  0
  6  7  1  0
  7  8  1  0
  8  9  1  0
  4  2  1  0
  7  5  1  0
  9  2  1  0
  1 10  1  0
  1 11  1  0
  1 12  1  0
  3 13  1  0
  3 14  1  0
  4 15  1  0
  5 16  1  0
  7 17  1  0
  8 18  1  0
  8 19  1  0
M  END
$$$$
