
     RDKit          3D

 19 19  0  0  0  0  0  0  0  0999 V2000
    1.3057   -0.2007   -1.5521 C   0  0  0  0  0  0  0  0  0  0  0  0
    0.0894   -0.4615   -0.7103 C   0  0  0  0  0  0  0  0  0  0  0  0
   -0.1833   -1.6282   -0.1225 C   0  0  0  0  0  0  0  0  0  0  0  0
   -1.4537   -1.8353    0.6588 C   0  0  0  0  0  0  0  0  0  0  0  0
   -2.7128   -1.7326   -0.2209 C   0  0  0  0  0  0  0  0  0  0  0  0
   -3.0328   -0.4732   -1.0360 C   0  0  0  0  0  0  0  0  0  0  0  0
   -4.1078   -0.3737   -1.5648 O   0  0  0  0  0  0  0  0  0  0  0  0
   -2.1329    0.5170   -1.2497 O   0  0  0  0  0  0  0  0  0  0  0  0
   -0.8927    0.6713   -0.5271 C   0  0  0  0  0  0  0  0  0  0  0  0
    1.9029    0.6256   -1.1454 H   0  0  0  0  0  0  0  0  0  0  0  0
    1.9473   -1.0834   -1.6152 H   0  0  0  0  0  0  0  0  0  0  0  0
    1.0219    0.0910   -2.5711 H   0  0  0  0  0  0  0  0  0  0  0  0
    0.4922   -2.4716   -0.2425 H   0  0  0  0  0  0  0  0  0  0  0  0
   -1.4555   -2.8240    1.1271 H   0  0  0  0  0  0  0  0  0  0  0  0
   -1.5199   -1.1126    1.4832 H   0  0  0  0  0  0  0  0  0  0  0  0
   -2.6884   -2.5332   -0.9704 H   0  0  0  0  0  0  0  0  0  0  0  0
   -3.6120   -1.9166    0.3749 H   0  0  0  0  0  0  0  0  0  0  0  0
   -0.4894    1.6072   -0.9191 H   0  0  0  0  0  0  0  0  0  0  0  0
   -1.1184    0.8293    0.5343 H   0  0  0  0  0  0  0  0  0  0  0  0
  1  2  1  0
  2  3  2  0
  3  4  1  0
  4  5  1  0
  5  6  1  0
  6  7  2  0
  6  8  1  0
  8  9  1  0
  9  2  1  0
  1 10  1  0
  1 11  1  0
  1 12  1  0
  3 13  1  0
  4 14  1  0
  4 15  1  0
  5 16  1  0
  5 17  1  0
  9 18  1  0
  9 19  1  0
M  END
$$$$
