
     RDKit          3D

 19 19  0  0  0  0  0  0  0  0999 V2000
   -0.0141   -0.0120    0.3774 C   0  0  0  0  0  0  0  0  0  0  0  0
    1.1728    0.0379    0.1980 C   0  0  0  0  0  0  0  0  0  0  0  0
    2.6151    0.0768   -0.0074 C   0  0  0  0  0  0  0  0  0  0  0  0
    3.0977   -0.8487   -1.1307 C   0  0  0  0  0  0  0  0  0  0  0  0
    4.6261   -0.9359   -1.2182 C   0  0  0  0  0  0  0  0  0  0  0  0
    5.0075   -1.7089   -2.4843 C   0  0  0  0  0  0  0  0  0  0  0  0
    4.3712   -1.1458   -3.6230 O   0  0  0  0  0  0  0  0  0  0  0  0
    2.9792   -1.1129   -3.4540 C   0  0  0  0  0  0  0  0  0  0  0  0
    2.5815   -0.3360   -2.3550 O   0  0  0  0  0  0  0  0  0  0  0  0
   -1.0641   -0.0463    0.5301 H   0  0  0  0  0  0  0  0  0  0  0  0
    2.9337    1.0983   -0.2484 H   0  0  0  0  0  0  0  0  0  0  0  0
    3.1290   -0.2060    0.9199 H   0  0  0  0  0  0  0  0  0  0  0  0
    2.6872   -1.8595   -0.9639 H   0  0  0  0  0  0  0  0  0  0  0  0
    5.0421    0.0765   -1.2703 H   0  0  0  0  0  0  0  0  0  0  0  0
    5.0365   -1.4315   -0.3311 H   0  0  0  0  0  0  0  0  0  0  0  0
    6.0829   -1.6698   -2.6746 H   0  0  0  0  0  0  0  0  0  0  0  0
    4.7173   -2.7686   -2.3789 H   0  0  0  0  0  0  0  0  0  0  0  0
    2.5573   -0.6452   -4.3454 H   0  0  0  0  0  0  0  0  0  0  0  0
    2.5914   -2.1442   -3.3411 H   0  0  0  0  0  0  0  0  0  0  0  0
  1  2  3  0
  2  3  1  0
  3  4  1  0
  4  5  1  0
  5  6  1  0
  6  7  1  0
  7  8  1  0
  8  9  1  0
  9  4  1  0
  1 10  1  0
  3 11  1  0
  3 12  1  0
  4 13  1  0
  5 14  1  0
  5 15  1  0
  6 16  1  0
  6 17  1  0
  8 18  1  0
  8 19  1  0
M  END
$$$$
