gdb 2873	2.5658725	1.7681338	1.4665162	0.6957	73.43	-0.22506	0.06899	0.29405000000000003	980.2387	0.158557	-422.563828	-422.556246	-422.555301	-422.595315	30.575
 OpenBabel02181911413D

 19 21  0  0  1  0  0  0  0  0999 V2000
    2.3738   -0.6529   -4.4913 C   0  0  0  0  0  0  0  0  0  0  0  0
    1.4082   -0.3389   -3.3835 C   0  0  1  0  0  0  0  0  0  0  0  0
    1.1610    1.0770   -2.8637 C   0  0  0  0  0  0  0  0  0  0  0  0
    0.0554    0.6860   -1.8669 C   0  0  1  0  0  0  0  0  0  0  0  0
   -0.8582   -0.0878   -2.6586 O   0  0  0  0  0  0  0  0  0  0  0  0
    0.0671   -1.0134   -3.2117 C   0  0  2  0  0  0  0  0  0  0  0  0
    1.1530   -1.2772   -2.1946 C   0  0  2  0  0  0  0  0  0  0  0  0
    0.7558   -0.4132   -1.0128 C   0  0  1  0  0  0  0  0  0  0  0  0
    1.8900    0.0248   -0.2883 O   0  0  0  0  0  0  0  0  0  0  0  0
    2.3512   -1.7169   -4.7496 H   0  0  0  0  0  0  0  0  0  0  0  0
    2.1334   -0.0864   -5.3984 H   0  0  0  0  0  0  0  0  0  0  0  0
    3.4025   -0.4057   -4.2056 H   0  0  0  0  0  0  0  0  0  0  0  0
    2.0315    1.5088   -2.3657 H   0  0  0  0  0  0  0  0  0  0  0  0
    0.7942    1.7546   -3.6405 H   0  0  0  0  0  0  0  0  0  0  0  0
   -0.4809    1.4748   -1.3415 H   0  0  0  0  0  0  0  0  0  0  0  0
   -0.3671   -1.7435   -3.8805 H   0  0  0  0  0  0  0  0  0  0  0  0
    1.6467   -2.2333   -2.0832 H   0  0  0  0  0  0  0  0  0  0  0  0
    0.0303   -0.9183   -0.3602 H   0  0  0  0  0  0  0  0  0  0  0  0
    1.5810    0.5289    0.4712 H   0  0  0  0  0  0  0  0  0  0  0  0
  1 12  1  0  0  0  0
  2  1  1  6  0  0  0
  2  6  1  0  0  0  0
  2  3  1  0  0  0  0
  2  7  1  0  0  0  0
  3 13  1  0  0  0  0
  3  4  1  0  0  0  0
  4 15  1  1  0  0  0
  4  8  1  0  0  0  0
  5  4  1  0  0  0  0
  6 16  1  6  0  0  0
  6  5  1  0  0  0  0
  6  7  1  0  0  0  0
  7 17  1  1  0  0  0
  7  8  1  0  0  0  0
  8 18  1  1  0  0  0
  8  9  1  0  0  0  0
  9 19  1  0  0  0  0
 10  1  1  0  0  0  0
 11  1  1  0  0  0  0
 14  3  1  0  0  0  0
M TOR 0 0 1 2 3
M TOR 1 0 1 2 12
M TOR 2 0 1 2 13
M TOR 3 0 1 5 4
M TOR 4 0 1 5 6
M TOR 5 0 1 5 15
M TOR 6 0 1 6 7
M TOR 7 0 1 6 16
M TOR 8 1 2 3 4
M TOR 9 1 2 3 7
M TOR 10 1 2 3 14
M TOR 11 1 5 4 3
M TOR 12 1 5 6 7
M TOR 13 1 5 6 16
M TOR 14 1 6 5 4
M TOR 15 1 6 5 15
M TOR 16 1 6 7 3
M TOR 17 1 6 7 8
M TOR 18 1 6 7 17
M TOR 19 2 1 0 9
M TOR 20 2 1 0 10
M TOR 21 2 1 0 11
M TOR 22 2 1 5 4
M TOR 23 2 1 5 6
M TOR 24 2 1 5 15
M TOR 25 2 1 6 7
M TOR 26 2 1 6 16
M TOR 27 2 3 4 5
M TOR 28 2 3 7 6
M TOR 29 2 3 7 8
M TOR 30 2 3 7 17
M TOR 31 3 2 1 5
M TOR 32 3 2 1 6
M TOR 33 3 4 5 6
M TOR 34 3 4 5 15
M TOR 35 3 7 6 5
M TOR 36 3 7 6 16
M TOR 37 3 7 8 18
M TOR 38 4 3 2 12
M TOR 39 4 3 2 13
M TOR 40 4 3 7 6
M TOR 41 4 3 7 8
M TOR 42 4 3 7 17
M TOR 43 4 5 6 7
M TOR 44 4 5 6 16
M TOR 45 5 1 0 9
M TOR 46 5 1 0 10
M TOR 47 5 1 0 11
M TOR 48 5 1 2 12
M TOR 49 5 1 2 13
M TOR 50 5 4 3 7
M TOR 51 5 4 3 14
M TOR 52 5 6 7 8
M TOR 53 5 6 7 17
M TOR 54 6 1 0 9
M TOR 55 6 1 0 10
M TOR 56 6 1 0 11
M TOR 57 6 1 2 12
M TOR 58 6 1 2 13
M TOR 59 6 7 3 14
M TOR 60 6 7 8 18
M TOR 61 7 3 2 12
M TOR 62 7 3 2 13
M TOR 63 7 6 5 15
M TOR 64 8 7 3 14
M TOR 65 8 7 6 16
M  END
$$$$
