
     RDKit          3D

 19 21  0  0  0  0  0  0  0  0999 V2000
    0.7308   -0.6330    1.3111 C   0  0  0  0  0  0  0  0  0  0  0  0
    1.5448   -0.0914    0.1643 C   0  0  0  0  0  0  0  0  0  0  0  0
    1.5196    1.4354   -0.0781 C   0  0  0  0  0  0  0  0  0  0  0  0
    2.8784    1.6174   -0.7934 C   0  0  0  0  0  0  0  0  0  0  0  0
    2.8896    0.7745   -2.0906 C   0  0  0  0  0  0  0  0  0  0  0  0
    2.6543   -0.6202   -1.4836 C   0  0  0  0  0  0  0  0  0  0  0  0
    1.2697   -0.7678   -1.0964 O   0  0  0  0  0  0  0  0  0  0  0  0
    3.0785   -0.3692   -0.0039 C   0  0  0  0  0  0  0  0  0  0  0  0
    3.7623    0.8598    0.0576 O   0  0  0  0  0  0  0  0  0  0  0  0
    0.8485   -1.7177    1.3882 H   0  0  0  0  0  0  0  0  0  0  0  0
    1.0474   -0.1767    2.2545 H   0  0  0  0  0  0  0  0  0  0  0  0
   -0.3333   -0.4163    1.1680 H   0  0  0  0  0  0  0  0  0  0  0  0
    0.6530    1.7259   -0.6758 H   0  0  0  0  0  0  0  0  0  0  0  0
    1.5186    1.9922    0.8637 H   0  0  0  0  0  0  0  0  0  0  0  0
    3.2449    2.6397   -0.8788 H   0  0  0  0  0  0  0  0  0  0  0  0
    2.1089    1.0369   -2.8076 H   0  0  0  0  0  0  0  0  0  0  0  0
    3.8696    0.8439   -2.5720 H   0  0  0  0  0  0  0  0  0  0  0  0
    3.0213   -1.4696   -2.0614 H   0  0  0  0  0  0  0  0  0  0  0  0
    3.5688   -1.1425    0.5824 H   0  0  0  0  0  0  0  0  0  0  0  0
  1  2  1  0
  2  3  1  0
  3  4  1  0
  4  5  1  0
  5  6  1  0
  6  7  1  0
  6  8  1  0
  8  9  1  0
  7  2  1  0
  8  2  1  0
  9  4  1  0
  1 10  1  0
  1 11  1  0
  1 12  1  0
  3 13  1  0
  3 14  1  0
  4 15  1  0
  5 16  1  0
  5 17  1  0
  6 18  1  0
  8 19  1  0
M  END
$$$$
