
     RDKit          3D

 19 21  0  0  0  0  0  0  0  0999 V2000
    0.2925   -0.3663    0.4077 O   0  0  0  0  0  0  0  0  0  0  0  0
   -0.6637    0.5658    0.8199 C   0  0  0  0  0  0  0  0  0  0  0  0
   -1.5478    0.1078    1.9348 C   0  0  0  0  0  0  0  0  0  0  0  0
   -2.9280    0.7455    2.0683 C   0  0  0  0  0  0  0  0  0  0  0  0
   -2.6793    2.2694    1.9858 C   0  0  0  0  0  0  0  0  0  0  0  0
   -1.2356    2.4626    2.4563 C   0  0  0  0  0  0  0  0  0  0  0  0
   -0.8548    3.3855    3.5329 C   0  0  0  0  0  0  0  0  0  0  0  0
   -0.6035    3.7132    2.1619 O   0  0  0  0  0  0  0  0  0  0  0  0
   -0.4998    1.1808    2.1969 C   0  0  0  0  0  0  0  0  0  0  0  0
    1.0831    0.1182    0.1468 H   0  0  0  0  0  0  0  0  0  0  0  0
   -1.0857    1.1753    0.0200 H   0  0  0  0  0  0  0  0  0  0  0  0
   -1.3913   -0.9060    2.2845 H   0  0  0  0  0  0  0  0  0  0  0  0
   -3.6349    0.3976    1.3079 H   0  0  0  0  0  0  0  0  0  0  0  0
   -3.3475    0.4818    3.0455 H   0  0  0  0  0  0  0  0  0  0  0  0
   -2.7550    2.6230    0.9518 H   0  0  0  0  0  0  0  0  0  0  0  0
   -3.3924    2.8519    2.5737 H   0  0  0  0  0  0  0  0  0  0  0  0
   -1.6195    3.9859    4.0259 H   0  0  0  0  0  0  0  0  0  0  0  0
    0.0310    3.1840    4.1356 H   0  0  0  0  0  0  0  0  0  0  0  0
    0.4158    0.9654    2.7355 H   0  0  0  0  0  0  0  0  0  0  0  0
  1  2  1  0
  2  3  1  0
  3  4  1  0
  4  5  1  0
  5  6  1  0
  6  7  1  0
  7  8  1  0
  6  9  1  0
  9  2  1  0
  9  3  1  0
  8  6  1  0
  1 10  1  0
  2 11  1  0
  3 12  1  0
  4 13  1  0
  4 14  1  0
  5 15  1  0
  5 16  1  0
  7 17  1  0
  7 18  1  0
  9 19  1  0
M  END
$$$$
