
     RDKit          3D

 19 20  0  0  0  0  0  0  0  0999 V2000
    1.7138    0.8761   -0.3072 C   0  0  0  0  0  0  0  0  0  0  0  0
    0.3345    0.3898   -0.0304 C   0  0  0  0  0  0  0  0  0  0  0  0
   -0.8697    0.9713   -0.1366 C   0  0  0  0  0  0  0  0  0  0  0  0
   -1.7977   -0.1158    0.3750 C   0  0  0  0  0  0  0  0  0  0  0  0
   -1.2380   -1.3233   -0.2640 O   0  0  0  0  0  0  0  0  0  0  0  0
   -0.0499   -0.9778    0.5316 C   0  0  0  0  0  0  0  0  0  0  0  0
   -1.0659   -0.6080    1.7003 C   0  0  0  0  0  0  0  0  0  0  0  0
   -0.7096    0.3254    2.8369 C   0  0  0  0  0  0  0  0  0  0  0  0
   -1.6673   -1.7365    2.2639 O   0  0  0  0  0  0  0  0  0  0  0  0
    2.3345    0.8523    0.5976 H   0  0  0  0  0  0  0  0  0  0  0  0
    2.2190    0.2451   -1.0490 H   0  0  0  0  0  0  0  0  0  0  0  0
    1.7063    1.9029   -0.6832 H   0  0  0  0  0  0  0  0  0  0  0  0
   -1.1384    1.9680   -0.4557 H   0  0  0  0  0  0  0  0  0  0  0  0
   -2.8806   -0.0245    0.2947 H   0  0  0  0  0  0  0  0  0  0  0  0
    0.6866   -1.7777    0.6162 H   0  0  0  0  0  0  0  0  0  0  0  0
   -0.0354   -0.1851    3.5315 H   0  0  0  0  0  0  0  0  0  0  0  0
   -0.2348    1.2407    2.4850 H   0  0  0  0  0  0  0  0  0  0  0  0
   -1.6159    0.5859    3.3921 H   0  0  0  0  0  0  0  0  0  0  0  0
   -1.8831   -2.3099    1.5147 H   0  0  0  0  0  0  0  0  0  0  0  0
  1  2  1  0
  2  3  2  0
  3  4  1  0
  4  5  1  0
  5  6  1  0
  6  7  1  0
  7  8  1  0
  7  9  1  0
  6  2  1  0
  7  4  1  0
  1 10  1  0
  1 11  1  0
  1 12  1  0
  3 13  1  0
  4 14  1  0
  6 15  1  0
  8 16  1  0
  8 17  1  0
  8 18  1  0
  9 19  1  0
M  END
$$$$
