
     RDKit          3D

 19 19  0  0  0  0  0  0  0  0999 V2000
   -2.7091    2.0757    1.3442 C   0  0  0  0  0  0  0  0  0  0  0  0
   -3.1258    0.7217    1.1831 O   0  0  0  0  0  0  0  0  0  0  0  0
   -2.5423    0.0836    0.0702 C   0  0  0  0  0  0  0  0  0  0  0  0
   -3.3620   -1.0991   -0.4205 C   0  0  0  0  0  0  0  0  0  0  0  0
   -3.3904    0.1891   -1.1976 C   0  0  0  0  0  0  0  0  0  0  0  0
   -4.5118    1.0113   -1.1703 O   0  0  0  0  0  0  0  0  0  0  0  0
   -1.1079    0.0484    0.0084 C   0  0  0  0  0  0  0  0  0  0  0  0
    0.0957    0.0255   -0.0623 C   0  0  0  0  0  0  0  0  0  0  0  0
    1.5482   -0.0146   -0.1451 C   0  0  0  0  0  0  0  0  0  0  0  0
   -3.2396    2.4589    2.2185 H   0  0  0  0  0  0  0  0  0  0  0  0
   -1.6287    2.1374    1.5178 H   0  0  0  0  0  0  0  0  0  0  0  0
   -2.9648    2.6797    0.4644 H   0  0  0  0  0  0  0  0  0  0  0  0
   -2.8239   -1.9505   -0.8201 H   0  0  0  0  0  0  0  0  0  0  0  0
   -4.2361   -1.3360    0.1775 H   0  0  0  0  0  0  0  0  0  0  0  0
   -2.8871    0.2377   -2.1563 H   0  0  0  0  0  0  0  0  0  0  0  0
   -4.7546    1.1057   -0.2395 H   0  0  0  0  0  0  0  0  0  0  0  0
    1.9973   -0.1764    0.8411 H   0  0  0  0  0  0  0  0  0  0  0  0
    1.8799   -0.8319   -0.7950 H   0  0  0  0  0  0  0  0  0  0  0  0
    1.9570    0.9179   -0.5500 H   0  0  0  0  0  0  0  0  0  0  0  0
  1  2  1  0
  2  3  1  0
  3  4  1  0
  4  5  1  0
  5  6  1  0
  3  7  1  0
  7  8  3  0
  8  9  1  0
  5  3  1  0
  1 10  1  0
  1 11  1  0
  1 12  1  0
  4 13  1  0
  4 14  1  0
  5 15  1  0
  6 16  1  0
  9 17  1  0
  9 18  1  0
  9 19  1  0
M  END
$$$$
