gdb 5919	2.1516946	0.8548321	0.6379749	1.965	84.11	-0.23931	-0.03519	0.20412	1745.2065	0.151913	-422.522528	-422.511089	-422.510145	-422.562506	37.121
 OpenBabel02181911423D

 19 18  0  0  1  0  0  0  0  0999 V2000
   -4.9510   -1.1411    2.6560 C   0  0  0  0  0  0  0  0  0  0  0  0
   -4.5642   -0.4746    1.3482 C   0  0  0  0  0  0  0  0  0  0  0  0
   -3.1651   -0.6612    1.1567 O   0  0  0  0  0  0  0  0  0  0  0  0
   -2.6746   -0.0625   -0.0311 C   0  0  2  0  0  0  0  0  0  0  0  0
   -3.0879   -0.9164   -1.2472 C   0  0  0  0  0  0  0  0  0  0  0  0
   -3.6115   -0.4852   -2.2377 O   0  0  0  0  0  0  0  0  0  0  0  0
   -1.2191   -0.0144    0.0066 C   0  0  0  0  0  0  0  0  0  0  0  0
   -0.0156   -0.0090   -0.0318 C   0  0  0  0  0  0  0  0  0  0  0  0
    1.4385    0.0126   -0.0553 C   0  0  0  0  0  0  0  0  0  0  0  0
   -4.7330   -2.2120    2.6212 H   0  0  0  0  0  0  0  0  0  0  0  0
   -4.3924   -0.7040    3.4882 H   0  0  0  0  0  0  0  0  0  0  0  0
   -6.0204   -1.0097    2.8456 H   0  0  0  0  0  0  0  0  0  0  0  0
   -5.1335   -0.9061    0.5101 H   0  0  0  0  0  0  0  0  0  0  0  0
   -4.7940    0.6026    1.3735 H   0  0  0  0  0  0  0  0  0  0  0  0
   -3.0950    0.9453   -0.1731 H   0  0  0  0  0  0  0  0  0  0  0  0
   -2.8578   -1.9954   -1.1050 H   0  0  0  0  0  0  0  0  0  0  0  0
    1.8520   -0.6004    0.7526 H   0  0  0  0  0  0  0  0  0  0  0  0
    1.8241   -0.3802   -1.0023 H   0  0  0  0  0  0  0  0  0  0  0  0
    1.8231    1.0309    0.0663 H   0  0  0  0  0  0  0  0  0  0  0  0
  1 12  1  0  0  0  0
  1 11  1  0  0  0  0
  2 14  1  0  0  0  0
  2  1  1  0  0  0  0
  3  2  1  0  0  0  0
  4 15  1  6  0  0  0
  4  7  1  0  0  0  0
  4  3  1  0  0  0  0
  5 16  1  0  0  0  0
  5  4  1  0  0  0  0
  6  5  2  0  0  0  0
  8  7  3  0  0  0  0
  9  8  1  0  0  0  0
  9 19  1  0  0  0  0
  9 17  1  0  0  0  0
 10  1  1  0  0  0  0
 13  2  1  0  0  0  0
 18  9  1  0  0  0  0
M TOR 0 0 1 2 3
M TOR 1 1 2 3 4
M TOR 2 1 2 3 6
M TOR 3 1 2 3 14
M TOR 4 2 1 0 9
M TOR 5 2 1 0 10
M TOR 6 2 1 0 11
M TOR 7 2 3 4 5
M TOR 8 2 3 4 15
M TOR 9 2 3 6 7
M TOR 10 3 2 1 12
M TOR 11 3 2 1 13
M TOR 12 3 6 7 8
M TOR 13 4 3 6 7
M TOR 14 5 4 3 6
M TOR 15 5 4 3 14
M TOR 16 6 3 4 15
M TOR 17 6 7 8 16
M TOR 18 6 7 8 17
M TOR 19 6 7 8 18
M TOR 20 7 6 3 14
M  END
$$$$
