
     RDKit          3D

 19 19  0  0  0  0  0  0  0  0999 V2000
    1.0029    1.1238    0.2709 C   0  0  0  0  0  0  0  0  0  0  0  0
    0.9721   -0.3839    0.0086 C   0  0  0  0  0  0  0  0  0  0  0  0
    1.4577   -1.1494    1.1109 O   0  0  0  0  0  0  0  0  0  0  0  0
    2.8256   -0.9540    1.4192 C   0  0  0  0  0  0  0  0  0  0  0  0
    3.7115   -0.9066    0.2097 C   0  0  0  0  0  0  0  0  0  0  0  0
    3.2174   -0.8153   -1.0231 C   0  0  0  0  0  0  0  0  0  0  0  0
    1.7284   -0.7778   -1.2811 C   0  0  0  0  0  0  0  0  0  0  0  0
    1.2894   -2.1601   -1.7529 C   0  0  0  0  0  0  0  0  0  0  0  0
    1.0336   -2.4452   -2.8938 O   0  0  0  0  0  0  0  0  0  0  0  0
    0.5333    1.3416    1.2343 H   0  0  0  0  0  0  0  0  0  0  0  0
    2.0241    1.5152    0.2812 H   0  0  0  0  0  0  0  0  0  0  0  0
    0.4487    1.6535   -0.5099 H   0  0  0  0  0  0  0  0  0  0  0  0
   -0.0747   -0.6970   -0.0785 H   0  0  0  0  0  0  0  0  0  0  0  0
    2.9684   -0.0362    2.0172 H   0  0  0  0  0  0  0  0  0  0  0  0
    3.1066   -1.7915    2.0687 H   0  0  0  0  0  0  0  0  0  0  0  0
    4.7834   -0.9177    0.3880 H   0  0  0  0  0  0  0  0  0  0  0  0
    3.8702   -0.7915   -1.8903 H   0  0  0  0  0  0  0  0  0  0  0  0
    1.5007   -0.0760   -2.0902 H   0  0  0  0  0  0  0  0  0  0  0  0
    1.2409   -2.9112   -0.9341 H   0  0  0  0  0  0  0  0  0  0  0  0
  1  2  1  0
  2  3  1  0
  3  4  1  0
  4  5  1  0
  5  6  2  0
  6  7  1  0
  7  8  1  0
  8  9  2  0
  7  2  1  0
  1 10  1  0
  1 11  1  0
  1 12  1  0
  2 13  1  0
  4 14  1  0
  4 15  1  0
  5 16  1  0
  6 17  1  0
  7 18  1  0
  8 19  1  0
M  END
$$$$
