
     RDKit          3D

 19 20  0  0  0  0  0  0  0  0999 V2000
   -3.2655   -0.4673   -2.5397 C   0  0  0  0  0  0  0  0  0  0  0  0
   -2.6395   -1.2041   -1.3675 C   0  0  0  0  0  0  0  0  0  0  0  0
   -1.1511   -1.6552   -1.4557 C   0  0  0  0  0  0  0  0  0  0  0  0
   -0.9442   -1.1762    0.0250 C   0  0  0  0  0  0  0  0  0  0  0  0
   -2.2815   -0.4102   -0.0833 C   0  0  0  0  0  0  0  0  0  0  0  0
   -1.9174    0.9417   -0.3901 O   0  0  0  0  0  0  0  0  0  0  0  0
   -0.6296    1.2324    0.1166 C   0  0  0  0  0  0  0  0  0  0  0  0
    0.1061   -0.1074    0.2523 C   0  0  0  0  0  0  0  0  0  0  0  0
    1.2731   -0.2514    0.5057 O   0  0  0  0  0  0  0  0  0  0  0  0
   -3.2850   -1.1038   -3.4308 H   0  0  0  0  0  0  0  0  0  0  0  0
   -4.2961   -0.1694   -2.3188 H   0  0  0  0  0  0  0  0  0  0  0  0
   -2.6980    0.4373   -2.7718 H   0  0  0  0  0  0  0  0  0  0  0  0
   -3.2593   -2.0612   -1.0803 H   0  0  0  0  0  0  0  0  0  0  0  0
   -0.9612   -2.7142   -1.6368 H   0  0  0  0  0  0  0  0  0  0  0  0
   -0.5679   -1.0716   -2.1734 H   0  0  0  0  0  0  0  0  0  0  0  0
   -0.8701   -1.9870    0.7491 H   0  0  0  0  0  0  0  0  0  0  0  0
   -2.9908   -0.4301    0.7526 H   0  0  0  0  0  0  0  0  0  0  0  0
   -0.1101    1.9123   -0.5659 H   0  0  0  0  0  0  0  0  0  0  0  0
   -0.6719    1.7130    1.1082 H   0  0  0  0  0  0  0  0  0  0  0  0
  1  2  1  0
  2  3  1  0
  3  4  1  0
  4  5  1  0
  5  6  1  0
  6  7  1  0
  7  8  1  0
  8  9  2  0
  5  2  1  0
  8  4  1  0
  1 10  1  0
  1 11  1  0
  1 12  1  0
  2 13  1  0
  3 14  1  0
  3 15  1  0
  4 16  1  0
  5 17  1  0
  7 18  1  0
  7 19  1  0
M  END
$$$$
