
     RDKit          3D

 19 19  0  0  0  0  0  0  0  0999 V2000
    1.4352    0.0134   -0.1243 C   0  0  0  0  0  0  0  0  0  0  0  0
    0.0424   -0.0618    0.0574 O   0  0  0  0  0  0  0  0  0  0  0  0
   -0.4082    0.6844    1.1653 C   0  0  0  0  0  0  0  0  0  0  0  0
   -1.9265    0.5257    1.2658 C   0  0  0  0  0  0  0  0  0  0  0  0
   -2.5126    1.3093    2.4011 C   0  0  0  0  0  0  0  0  0  0  0  0
   -3.0319    0.8199    3.5597 C   0  0  0  0  0  0  0  0  0  0  0  0
   -3.4581    1.8253    4.3709 O   0  0  0  0  0  0  0  0  0  0  0  0
   -3.2039    2.9882    3.7165 C   0  0  0  0  0  0  0  0  0  0  0  0
   -2.6286    2.7410    2.5128 C   0  0  0  0  0  0  0  0  0  0  0  0
    1.9842   -0.3786    0.7469 H   0  0  0  0  0  0  0  0  0  0  0  0
    1.6855   -0.5913   -0.9995 H   0  0  0  0  0  0  0  0  0  0  0  0
    1.7703    1.0483   -0.3002 H   0  0  0  0  0  0  0  0  0  0  0  0
    0.0706    0.3326    2.0949 H   0  0  0  0  0  0  0  0  0  0  0  0
   -0.1407    1.7489    1.0501 H   0  0  0  0  0  0  0  0  0  0  0  0
   -2.3653    0.8413    0.3121 H   0  0  0  0  0  0  0  0  0  0  0  0
   -2.1569   -0.5383    1.3819 H   0  0  0  0  0  0  0  0  0  0  0  0
   -3.1710   -0.1796    3.9387 H   0  0  0  0  0  0  0  0  0  0  0  0
   -3.4918    3.8885    4.2338 H   0  0  0  0  0  0  0  0  0  0  0  0
   -2.3272    3.4766    1.7827 H   0  0  0  0  0  0  0  0  0  0  0  0
  1  2  1  0
  2  3  1  0
  3  4  1  0
  4  5  1  0
  5  6  2  0
  6  7  1  0
  7  8  1  0
  8  9  2  0
  9  5  1  0
  1 10  1  0
  1 11  1  0
  1 12  1  0
  3 13  1  0
  3 14  1  0
  4 15  1  0
  4 16  1  0
  6 17  1  0
  8 18  1  0
  9 19  1  0
M  END
$$$$
