
     RDKit          3D

 19 19  0  0  0  0  0  0  0  0999 V2000
   -2.0342    3.5859   -0.7909 C   0  0  0  0  0  0  0  0  0  0  0  0
   -1.4763    2.4158    0.0138 C   0  0  0  0  0  0  0  0  0  0  0  0
   -2.0522    1.0220   -0.3575 C   0  0  0  0  0  0  0  0  0  0  0  0
   -0.9140    0.0826   -0.0644 C   0  0  0  0  0  0  0  0  0  0  0  0
    0.2407    0.7430    0.1014 C   0  0  0  0  0  0  0  0  0  0  0  0
    1.5411    0.1487    0.3878 C   0  0  0  0  0  0  0  0  0  0  0  0
    2.5544    0.8043    0.5488 O   0  0  0  0  0  0  0  0  0  0  0  0
    0.0569    2.2405   -0.0798 C   0  0  0  0  0  0  0  0  0  0  0  0
    0.6998    3.0287    0.9010 O   0  0  0  0  0  0  0  0  0  0  0  0
   -1.5615    4.5231   -0.4821 H   0  0  0  0  0  0  0  0  0  0  0  0
   -1.8508    3.4523   -1.8634 H   0  0  0  0  0  0  0  0  0  0  0  0
   -3.1147    3.6907   -0.6478 H   0  0  0  0  0  0  0  0  0  0  0  0
   -1.6724    2.5853    1.0793 H   0  0  0  0  0  0  0  0  0  0  0  0
   -2.9659    0.7702    0.1921 H   0  0  0  0  0  0  0  0  0  0  0  0
   -2.3159    0.9696   -1.4250 H   0  0  0  0  0  0  0  0  0  0  0  0
   -1.0247   -0.9973   -0.0205 H   0  0  0  0  0  0  0  0  0  0  0  0
    1.5645   -0.9597    0.4616 H   0  0  0  0  0  0  0  0  0  0  0  0
    0.4134    2.5234   -1.0872 H   0  0  0  0  0  0  0  0  0  0  0  0
    1.6251    2.7474    0.9064 H   0  0  0  0  0  0  0  0  0  0  0  0
  1  2  1  0
  2  3  1  0
  3  4  1  0
  4  5  2  0
  5  6  1  0
  6  7  2  0
  5  8  1  0
  8  9  1  0
  8  2  1  0
  1 10  1  0
  1 11  1  0
  1 12  1  0
  2 13  1  0
  3 14  1  0
  3 15  1  0
  4 16  1  0
  6 17  1  0
  8 18  1  0
  9 19  1  0
M  END
$$$$
