
     RDKit          3D

 19 20  0  0  0  0  0  0  0  0999 V2000
   -3.6803    1.5494   -1.4335 C   0  0  0  0  0  0  0  0  0  0  0  0
   -2.7985    0.5456   -0.7708 C   0  0  0  0  0  0  0  0  0  0  0  0
   -3.0112   -0.7408   -0.5007 C   0  0  0  0  0  0  0  0  0  0  0  0
   -1.8178   -1.2521    0.2902 C   0  0  0  0  0  0  0  0  0  0  0  0
   -2.0030   -0.9881    1.7966 C   0  0  0  0  0  0  0  0  0  0  0  0
   -2.3761    0.3667    2.0279 O   0  0  0  0  0  0  0  0  0  0  0  0
   -1.5972    1.3172    1.3101 C   0  0  0  0  0  0  0  0  0  0  0  0
   -1.4384    0.8905   -0.1613 C   0  0  0  0  0  0  0  0  0  0  0  0
   -0.7634   -0.3720   -0.1299 O   0  0  0  0  0  0  0  0  0  0  0  0
   -3.9286    2.3716   -0.7502 H   0  0  0  0  0  0  0  0  0  0  0  0
   -3.1861    2.0032   -2.3019 H   0  0  0  0  0  0  0  0  0  0  0  0
   -4.6179    1.0995   -1.7699 H   0  0  0  0  0  0  0  0  0  0  0  0
   -3.9024   -1.3184   -0.7097 H   0  0  0  0  0  0  0  0  0  0  0  0
   -1.5193   -2.2862    0.0951 H   0  0  0  0  0  0  0  0  0  0  0  0
   -2.8022   -1.5997    2.2277 H   0  0  0  0  0  0  0  0  0  0  0  0
   -1.0568   -1.2252    2.3077 H   0  0  0  0  0  0  0  0  0  0  0  0
   -2.1186    2.2749    1.4122 H   0  0  0  0  0  0  0  0  0  0  0  0
   -0.5919    1.4131    1.7492 H   0  0  0  0  0  0  0  0  0  0  0  0
   -0.8357    1.6075   -0.7279 H   0  0  0  0  0  0  0  0  0  0  0  0
  1  2  1  0
  2  3  2  0
  3  4  1  0
  4  5  1  0
  5  6  1  0
  6  7  1  0
  7  8  1  0
  8  9  1  0
  8  2  1  0
  9  4  1  0
  1 10  1  0
  1 11  1  0
  1 12  1  0
  3 13  1  0
  4 14  1  0
  5 15  1  0
  5 16  1  0
  7 17  1  0
  7 18  1  0
  8 19  1  0
M  END
$$$$
