
     RDKit          3D

 19 21  0  0  0  0  0  0  0  0999 V2000
    0.3297   -0.7809   -0.3391 C   0  0  0  0  0  0  0  0  0  0  0  0
    1.5538    0.0353    0.0253 C   0  0  0  0  0  0  0  0  0  0  0  0
    1.4505    0.8838    1.2994 C   0  0  0  0  0  0  0  0  0  0  0  0
    2.6355    1.7057    1.2794 O   0  0  0  0  0  0  0  0  0  0  0  0
    3.1106    1.6700   -0.0424 C   0  0  0  0  0  0  0  0  0  0  0  0
    3.7770    0.3432   -0.5608 C   0  0  0  0  0  0  0  0  0  0  0  0
    2.9157   -0.7317    0.1200 C   0  0  0  0  0  0  0  0  0  0  0  0
    3.0621    0.5293   -1.8213 O   0  0  0  0  0  0  0  0  0  0  0  0
    2.0390    1.1291   -0.9992 C   0  0  0  0  0  0  0  0  0  0  0  0
    0.1275   -1.5579    0.4065 H   0  0  0  0  0  0  0  0  0  0  0  0
   -0.5636   -0.1499   -0.4124 H   0  0  0  0  0  0  0  0  0  0  0  0
    0.4737   -1.2760   -1.3047 H   0  0  0  0  0  0  0  0  0  0  0  0
    0.5546    1.5239    1.3026 H   0  0  0  0  0  0  0  0  0  0  0  0
    1.4497    0.2853    2.2164 H   0  0  0  0  0  0  0  0  0  0  0  0
    3.6300    2.5896   -0.3068 H   0  0  0  0  0  0  0  0  0  0  0  0
    4.8500    0.1927   -0.6771 H   0  0  0  0  0  0  0  0  0  0  0  0
    2.9254   -1.6551   -0.4639 H   0  0  0  0  0  0  0  0  0  0  0  0
    3.2094   -0.9486    1.1502 H   0  0  0  0  0  0  0  0  0  0  0  0
    1.2978    1.7186   -1.5385 H   0  0  0  0  0  0  0  0  0  0  0  0
  1  2  1  0
  2  3  1  0
  3  4  1  0
  4  5  1  0
  5  6  1  0
  6  7  1  0
  6  8  1  0
  8  9  1  0
  7  2  1  0
  9  2  1  0
  9  5  1  0
  1 10  1  0
  1 11  1  0
  1 12  1  0
  3 13  1  0
  3 14  1  0
  5 15  1  0
  6 16  1  0
  7 17  1  0
  7 18  1  0
  9 19  1  0
M  END
$$$$
