gdb 422	2.8158509	1.5997215	1.2155776	1.3734	74.95	-0.24418	0.08279	0.32697	1053.3262	0.15813	-422.522508	-422.514917	-422.513972	-422.554444	30.13
 OpenBabel02181911403D

 19 21  0  0  1  0  0  0  0  0999 V2000
    0.4101    0.7816   -0.6884 C   0  0  0  0  0  0  0  0  0  0  0  0
    0.0938   -0.1727    0.3301 O   0  0  0  0  0  0  0  0  0  0  0  0
    1.4737    0.2059    0.1428 C   0  0  2  0  0  0  0  0  0  0  0  0
    2.0686    0.9813    1.3038 C   0  0  0  0  0  0  0  0  0  0  0  0
    2.7577    0.0024    2.2561 C   0  0  0  0  0  0  0  0  0  0  0  0
    3.8499   -0.6399    1.6082 O   0  0  0  0  0  0  0  0  0  0  0  0
    3.5069   -1.3613    0.4582 C   0  0  2  0  0  0  0  0  0  0  0  0
    3.7496   -0.6924   -0.8668 C   0  0  0  0  0  0  0  0  0  0  0  0
    2.3299   -0.9110   -0.3764 C   0  0  2  0  0  0  0  0  0  0  0  0
    0.2781    0.4341   -1.7127 H   0  0  0  0  0  0  0  0  0  0  0  0
    0.0663    1.7988   -0.4996 H   0  0  0  0  0  0  0  0  0  0  0  0
    2.8082    1.7089    0.9494 H   0  0  0  0  0  0  0  0  0  0  0  0
    1.2680    1.5267    1.8123 H   0  0  0  0  0  0  0  0  0  0  0  0
    3.1883    0.5197    3.1173 H   0  0  0  0  0  0  0  0  0  0  0  0
    2.0313   -0.7372    2.6252 H   0  0  0  0  0  0  0  0  0  0  0  0
    3.6971   -2.4279    0.5540 H   0  0  0  0  0  0  0  0  0  0  0  0
    4.1600    0.3104   -0.8232 H   0  0  0  0  0  0  0  0  0  0  0  0
    4.0884   -1.2873   -1.7077 H   0  0  0  0  0  0  0  0  0  0  0  0
    1.7566   -1.6846   -0.8764 H   0  0  0  0  0  0  0  0  0  0  0  0
  1 11  1  0  0  0  0
  1  3  1  0  0  0  0
  1  2  1  0  0  0  0
  3  2  1  1  0  0  0
  3  4  1  0  0  0  0
  4 13  1  0  0  0  0
  4  5  1  0  0  0  0
  5 15  1  0  0  0  0
  5 14  1  0  0  0  0
  6  5  1  0  0  0  0
  7 16  1  1  0  0  0
  7  6  1  0  0  0  0
  8 17  1  0  0  0  0
  8  9  1  0  0  0  0
  8  7  1  0  0  0  0
  9 19  1  6  0  0  0
  9  3  1  0  0  0  0
  9  7  1  0  0  0  0
 10  1  1  0  0  0  0
 12  4  1  0  0  0  0
 18  8  1  0  0  0  0
M TOR 0 0 1 2 3
M TOR 1 0 1 2 8
M TOR 2 0 2 3 4
M TOR 3 0 2 3 11
M TOR 4 0 2 3 12
M TOR 5 0 2 8 6
M TOR 6 0 2 8 7
M TOR 7 0 2 8 18
M TOR 8 1 2 0 9
M TOR 9 1 2 0 10
M TOR 10 1 2 3 4
M TOR 11 1 2 3 11
M TOR 12 1 2 3 12
M TOR 13 1 2 8 6
M TOR 14 1 2 8 7
M TOR 15 1 2 8 18
M TOR 16 2 3 4 5
M TOR 17 2 3 4 13
M TOR 18 2 3 4 14
M TOR 19 2 8 6 5
M TOR 20 2 8 6 7
M TOR 21 2 8 6 15
M TOR 22 2 8 7 16
M TOR 23 2 8 7 17
M TOR 24 3 2 0 9
M TOR 25 3 2 0 10
M TOR 26 3 2 8 6
M TOR 27 3 2 8 7
M TOR 28 3 2 8 18
M TOR 29 3 4 5 6
M TOR 30 4 3 2 8
M TOR 31 4 5 6 7
M TOR 32 4 5 6 8
M TOR 33 4 5 6 15
M TOR 34 5 4 3 11
M TOR 35 5 4 3 12
M TOR 36 5 6 7 8
M TOR 37 5 6 7 16
M TOR 38 5 6 7 17
M TOR 39 5 6 8 18
M TOR 40 6 5 4 13
M TOR 41 6 5 4 14
M TOR 42 6 7 8 18
M TOR 43 6 8 7 16
M TOR 44 6 8 7 17
M TOR 45 7 8 6 15
M TOR 46 8 2 0 9
M TOR 47 8 2 0 10
M TOR 48 8 2 3 11
M TOR 49 8 2 3 12
M  END
$$$$
