gdb 6053	2.4809668	1.0340024	0.7796921	2.3426	79.13	-0.24705	0.01732	0.26437	1486.1253	0.15398	-422.487361	-422.477459	-422.476514	-422.523423	34.7
 OpenBabel02181911423D

 19 19  0  0  1  0  0  0  0  0999 V2000
    0.0371   -0.3491   -0.6710 C   0  0  0  0  0  0  0  0  0  0  0  0
    0.9954    0.1264    0.4064 C   0  0  0  0  0  0  0  0  0  0  0  0
    1.4365    1.4354    0.0688 O   0  0  0  0  0  0  0  0  0  0  0  0
    2.3023    1.9959    1.0019 C   0  0  2  0  0  0  0  0  0  0  0  0
    2.7847    3.4053    0.6387 C   0  0  0  0  0  0  0  0  0  0  0  0
    4.1693    3.0188    0.7796 O   0  0  0  0  0  0  0  0  0  0  0  0
    3.8210    1.6168    0.9116 C   0  0  1  0  0  0  0  0  0  0  0  0
    4.4430    0.9610    2.0442 C   0  0  0  0  0  0  0  0  0  0  0  0
    4.9294    0.4042    2.9924 C   0  0  0  0  0  0  0  0  0  0  0  0
   -0.3258   -1.3545   -0.4386 H   0  0  0  0  0  0  0  0  0  0  0  0
   -0.8221    0.3234   -0.7440 H   0  0  0  0  0  0  0  0  0  0  0  0
    0.5354   -0.3760   -1.6441 H   0  0  0  0  0  0  0  0  0  0  0  0
    0.5016    0.1441    1.3913 H   0  0  0  0  0  0  0  0  0  0  0  0
    1.8570   -0.5543    0.4886 H   0  0  0  0  0  0  0  0  0  0  0  0
    1.9153    1.9000    2.0250 H   0  0  0  0  0  0  0  0  0  0  0  0
    2.5308    3.6791   -0.3926 H   0  0  0  0  0  0  0  0  0  0  0  0
    2.5145    4.2192    1.3185 H   0  0  0  0  0  0  0  0  0  0  0  0
    4.0328    1.0716   -0.0192 H   0  0  0  0  0  0  0  0  0  0  0  0
    5.3700   -0.0846    3.8262 H   0  0  0  0  0  0  0  0  0  0  0  0
  1 10  1  0  0  0  0
  1  2  1  0  0  0  0
  2 14  1  0  0  0  0
  2 13  1  0  0  0  0
  3  2  1  0  0  0  0
  3  4  1  0  0  0  0
  4 15  1  1  0  0  0
  5  6  1  0  0  0  0
  5  4  1  0  0  0  0
  5 17  1  0  0  0  0
  6  7  1  0  0  0  0
  7 18  1  6  0  0  0
  7  4  1  0  0  0  0
  7  8  1  0  0  0  0
  8  9  3  0  0  0  0
  9 19  1  0  0  0  0
 11  1  1  0  0  0  0
 12  1  1  0  0  0  0
 16  5  1  0  0  0  0
M TOR 0 0 1 2 3
M TOR 1 1 2 3 4
M TOR 2 1 2 3 6
M TOR 3 1 2 3 14
M TOR 4 2 1 0 9
M TOR 5 2 1 0 10
M TOR 6 2 1 0 11
M TOR 7 2 3 4 5
M TOR 8 2 3 4 15
M TOR 9 2 3 4 16
M TOR 10 2 3 6 5
M TOR 11 2 3 6 7
M TOR 12 2 3 6 17
M TOR 13 3 2 1 12
M TOR 14 3 2 1 13
M TOR 15 3 4 5 6
M TOR 16 3 6 7 8
M TOR 17 4 3 6 7
M TOR 18 4 3 6 17
M TOR 19 4 5 6 7
M TOR 20 4 5 6 17
M TOR 21 5 4 3 14
M TOR 22 5 6 3 14
M TOR 23 5 6 7 8
M TOR 24 6 3 4 15
M TOR 25 6 3 4 16
M TOR 26 6 5 4 15
M TOR 27 6 5 4 16
M TOR 28 6 7 8 18
M TOR 29 7 6 3 14
M TOR 30 8 7 6 17
M  END
$$$$
