gdb 744	2.5454739	1.7408209	1.2811161	1.9487	74.65	-0.23623	-0.01434	0.22189	1019.6003	0.159073	-422.562433	-422.554961	-422.554017	-422.594208	29.708
 OpenBabel02181911403D

 19 20  0  0  1  0  0  0  0  0999 V2000
   -0.5496   -2.4268    1.0931 O   0  0  0  0  0  0  0  0  0  0  0  0
   -0.2490   -1.2562    1.0215 C   0  0  0  0  0  0  0  0  0  0  0  0
   -0.6078   -0.2832    2.1460 C   0  0  0  0  0  0  0  0  0  0  0  0
    0.4941    0.7061    2.5607 C   0  0  0  0  0  0  0  0  0  0  0  0
    0.8245    1.7016    1.6088 O   0  0  0  0  0  0  0  0  0  0  0  0
    1.2238    1.2913    0.3139 C   0  0  1  0  0  0  0  0  0  0  0  0
    1.8869   -0.1093    0.1987 C   0  0  0  0  0  0  0  0  0  0  0  0
    0.4883   -0.7049   -0.1842 C   0  0  2  0  0  0  0  0  0  0  0  0
    0.0674    0.7471   -0.5725 C   0  0  0  0  0  0  0  0  0  0  0  0
   -1.4944    0.2862    1.8376 H   0  0  0  0  0  0  0  0  0  0  0  0
   -0.8963   -0.8880    3.0104 H   0  0  0  0  0  0  0  0  0  0  0  0
    0.1514    1.2658    3.4358 H   0  0  0  0  0  0  0  0  0  0  0  0
    1.3898    0.1479    2.8699 H   0  0  0  0  0  0  0  0  0  0  0  0
    1.7869    2.1372   -0.0868 H   0  0  0  0  0  0  0  0  0  0  0  0
    2.5556   -0.1404   -0.6646 H   0  0  0  0  0  0  0  0  0  0  0  0
    2.4196   -0.5182    1.0590 H   0  0  0  0  0  0  0  0  0  0  0  0
    0.4785   -1.4677   -0.9631 H   0  0  0  0  0  0  0  0  0  0  0  0
    0.2591    0.9352   -1.6320 H   0  0  0  0  0  0  0  0  0  0  0  0
   -0.9427    1.0827   -0.3293 H   0  0  0  0  0  0  0  0  0  0  0  0
  2  1  2  0  0  0  0
  2  3  1  0  0  0  0
  3  4  1  0  0  0  0
  3 11  1  0  0  0  0
  4 13  1  0  0  0  0
  4 12  1  0  0  0  0
  5  4  1  0  0  0  0
  6 14  1  6  0  0  0
  6  5  1  0  0  0  0
  7  6  1  0  0  0  0
  7 16  1  0  0  0  0
  8 17  1  6  0  0  0
  8  7  1  0  0  0  0
  8  2  1  0  0  0  0
  9 19  1  0  0  0  0
  9  8  1  0  0  0  0
  9  6  1  0  0  0  0
 10  3  1  0  0  0  0
 15  7  1  0  0  0  0
 18  9  1  0  0  0  0
M TOR 0 0 1 2 3
M TOR 1 0 1 2 9
M TOR 2 0 1 2 10
M TOR 3 0 1 7 6
M TOR 4 0 1 7 8
M TOR 5 0 1 7 16
M TOR 6 1 2 3 4
M TOR 7 1 2 3 11
M TOR 8 1 2 3 12
M TOR 9 1 7 6 5
M TOR 10 1 7 6 14
M TOR 11 1 7 6 15
M TOR 12 1 7 8 5
M TOR 13 1 7 8 17
M TOR 14 1 7 8 18
M TOR 15 2 1 7 6
M TOR 16 2 1 7 8
M TOR 17 2 1 7 16
M TOR 18 2 3 4 5
M TOR 19 3 2 1 7
M TOR 20 3 4 5 6
M TOR 21 3 4 5 8
M TOR 22 3 4 5 13
M TOR 23 4 3 2 9
M TOR 24 4 3 2 10
M TOR 25 4 5 6 7
M TOR 26 4 5 6 14
M TOR 27 4 5 6 15
M TOR 28 4 5 8 7
M TOR 29 4 5 8 17
M TOR 30 4 5 8 18
M TOR 31 5 4 3 11
M TOR 32 5 4 3 12
M TOR 33 5 6 7 8
M TOR 34 5 6 7 16
M TOR 35 5 8 7 16
M TOR 36 6 5 8 17
M TOR 37 6 5 8 18
M TOR 38 6 7 8 17
M TOR 39 6 7 8 18
M TOR 40 7 1 2 9
M TOR 41 7 1 2 10
M TOR 42 7 6 5 13
M TOR 43 7 8 5 13
M TOR 44 8 5 6 14
M TOR 45 8 5 6 15
M TOR 46 8 7 6 14
M TOR 47 8 7 6 15
M  END
$$$$
