gdb 4109	3.5579955	1.1989636	1.0681835	3.229	74.89	-0.23881	-0.01918	0.21963	1181.0188	0.156949	-422.579851	-422.571633	-422.570689	-422.61317	31.034
 OpenBabel02181911413D

 19 20  0  0  1  0  0  0  0  0999 V2000
   -4.2529   -1.1620   -1.5615 C   0  0  0  0  0  0  0  0  0  0  0  0
   -2.8216   -0.6891   -1.3972 C   0  0  1  0  0  0  0  0  0  0  0  0
   -2.7234    0.7591   -1.3465 O   0  0  0  0  0  0  0  0  0  0  0  0
   -2.2133    0.7380    0.0039 C   0  0  2  0  0  0  0  0  0  0  0  0
   -0.7801    1.2424    0.0923 C   0  0  0  0  0  0  0  0  0  0  0  0
    0.0984    0.0303   -0.2440 C   0  0  0  0  0  0  0  0  0  0  0  0
    1.2316    0.0645   -0.6425 O   0  0  0  0  0  0  0  0  0  0  0  0
   -0.7144   -1.2453    0.0369 C   0  0  0  0  0  0  0  0  0  0  0  0
   -2.1839   -0.8242    0.0062 C   0  0  2  0  0  0  0  0  0  0  0  0
   -4.8816   -0.8015   -0.7410 H   0  0  0  0  0  0  0  0  0  0  0  0
   -4.6699   -0.7883   -2.5016 H   0  0  0  0  0  0  0  0  0  0  0  0
   -4.2957   -2.2569   -1.5783 H   0  0  0  0  0  0  0  0  0  0  0  0
   -2.1961   -1.0852   -2.2095 H   0  0  0  0  0  0  0  0  0  0  0  0
   -2.8988    1.2356    0.6973 H   0  0  0  0  0  0  0  0  0  0  0  0
   -0.5790    2.0807   -0.5777 H   0  0  0  0  0  0  0  0  0  0  0  0
   -0.5360    1.5618    1.1147 H   0  0  0  0  0  0  0  0  0  0  0  0
   -0.4518   -2.0313   -0.6759 H   0  0  0  0  0  0  0  0  0  0  0  0
   -0.4224   -1.6044    1.0323 H   0  0  0  0  0  0  0  0  0  0  0  0
   -2.8048   -1.3336    0.7437 H   0  0  0  0  0  0  0  0  0  0  0  0
  1  2  1  0  0  0  0
  1 10  1  0  0  0  0
  2 13  1  6  0  0  0
  2  3  1  0  0  0  0
  2  9  1  0  0  0  0
  3  4  1  0  0  0  0
  4  9  1  0  0  0  0
  4  5  1  0  0  0  0
  4 14  1  1  0  0  0
  5 16  1  0  0  0  0
  6  8  1  0  0  0  0
  6  5  1  0  0  0  0
  7  6  2  0  0  0  0
  8 18  1  0  0  0  0
  9  8  1  0  0  0  0
  9 19  1  1  0  0  0
 11  1  1  0  0  0  0
 12  1  1  0  0  0  0
 15  5  1  0  0  0  0
 17  8  1  0  0  0  0
M TOR 0 0 1 2 3
M TOR 1 0 1 8 3
M TOR 2 0 1 8 7
M TOR 3 0 1 8 18
M TOR 4 1 2 3 4
M TOR 5 1 2 3 8
M TOR 6 1 2 3 13
M TOR 7 1 8 3 4
M TOR 8 1 8 3 13
M TOR 9 1 8 7 5
M TOR 10 1 8 7 16
M TOR 11 1 8 7 17
M TOR 12 2 1 0 9
M TOR 13 2 1 0 10
M TOR 14 2 1 0 11
M TOR 15 2 1 8 7
M TOR 16 2 1 8 18
M TOR 17 2 3 4 5
M TOR 18 2 3 4 14
M TOR 19 2 3 4 15
M TOR 20 2 3 8 7
M TOR 21 2 3 8 18
M TOR 22 3 2 1 12
M TOR 23 3 4 5 6
M TOR 24 3 4 5 7
M TOR 25 3 8 1 12
M TOR 26 3 8 7 5
M TOR 27 3 8 7 16
M TOR 28 3 8 7 17
M TOR 29 4 3 8 7
M TOR 30 4 3 8 18
M TOR 31 4 5 7 8
M TOR 32 4 5 7 16
M TOR 33 4 5 7 17
M TOR 34 5 4 3 8
M TOR 35 5 4 3 13
M TOR 36 5 7 8 18
M TOR 37 6 5 4 14
M TOR 38 6 5 4 15
M TOR 39 6 5 7 8
M TOR 40 6 5 7 16
M TOR 41 6 5 7 17
M TOR 42 7 5 4 14
M TOR 43 7 5 4 15
M TOR 44 7 8 1 12
M TOR 45 7 8 3 13
M TOR 46 8 1 0 9
M TOR 47 8 1 0 10
M TOR 48 8 1 0 11
M TOR 49 8 3 4 14
M TOR 50 8 3 4 15
M  END
$$$$
