gdb 4449	2.8338949	1.4797869	1.1044486	1.7391	76.79	-0.23666	-0.02189	0.21477000000000002	1138.9271	0.156346	-422.568143	-422.559503	-422.558558	-422.601422	32.418
 OpenBabel02181911413D

 19 20  0  0  1  0  0  0  0  0999 V2000
   -0.6013    2.3492    1.0051 C   0  0  0  0  0  0  0  0  0  0  0  0
   -0.9953    1.2492    0.0259 C   0  0  2  0  0  0  0  0  0  0  0  0
   -2.3464    0.5547    0.2488 C   0  0  0  0  0  0  0  0  0  0  0  0
   -2.2232   -0.7357   -0.3629 O   0  0  0  0  0  0  0  0  0  0  0  0
   -0.9025   -1.1604   -0.1570 C   0  0  0  0  0  0  0  0  0  0  0  0
   -0.4080   -2.3951   -0.8460 C   0  0  0  0  0  0  0  0  0  0  0  0
   -0.6083   -2.4172    0.6455 C   0  0  0  0  0  0  0  0  0  0  0  0
   -0.0437    0.0464    0.0370 C   0  0  0  0  0  0  0  0  0  0  0  0
    1.1521    0.0636    0.1987 O   0  0  0  0  0  0  0  0  0  0  0  0
   -0.6945    2.0044    2.0403 H   0  0  0  0  0  0  0  0  0  0  0  0
    0.4411    2.6349    0.8419 H   0  0  0  0  0  0  0  0  0  0  0  0
   -1.2295    3.2366    0.8846 H   0  0  0  0  0  0  0  0  0  0  0  0
   -0.9696    1.6360   -1.0033 H   0  0  0  0  0  0  0  0  0  0  0  0
   -2.5509    0.4509    1.3265 H   0  0  0  0  0  0  0  0  0  0  0  0
   -3.1931    1.0594   -0.2204 H   0  0  0  0  0  0  0  0  0  0  0  0
   -1.1325   -2.9159   -1.4618 H   0  0  0  0  0  0  0  0  0  0  0  0
    0.6060   -2.3646   -1.2298 H   0  0  0  0  0  0  0  0  0  0  0  0
   -1.4748   -2.9424    1.0304 H   0  0  0  0  0  0  0  0  0  0  0  0
    0.2674   -2.4011    1.2850 H   0  0  0  0  0  0  0  0  0  0  0  0
  1 10  1  0  0  0  0
  2 13  1  6  0  0  0
  2  8  1  0  0  0  0
  2  3  1  0  0  0  0
  2  1  1  0  0  0  0
  3 14  1  0  0  0  0
  4  5  1  0  0  0  0
  4  3  1  0  0  0  0
  5  8  1  0  0  0  0
  5  7  1  0  0  0  0
  6  5  1  0  0  0  0
  6  7  1  0  0  0  0
  7 18  1  0  0  0  0
  7 19  1  0  0  0  0
  8  9  2  0  0  0  0
 11  1  1  0  0  0  0
 12  1  1  0  0  0  0
 15  3  1  0  0  0  0
 16  6  1  0  0  0  0
 17  6  1  0  0  0  0
M TOR 0 0 1 2 3
M TOR 1 0 1 2 13
M TOR 2 0 1 2 14
M TOR 3 0 1 7 4
M TOR 4 0 1 7 8
M TOR 5 1 2 3 4
M TOR 6 1 7 4 3
M TOR 7 1 7 4 5
M TOR 8 1 7 4 6
M TOR 9 2 1 0 9
M TOR 10 2 1 0 10
M TOR 11 2 1 0 11
M TOR 12 2 1 7 4
M TOR 13 2 1 7 8
M TOR 14 2 3 4 5
M TOR 15 2 3 4 6
M TOR 16 2 3 4 7
M TOR 17 3 2 1 7
M TOR 18 3 2 1 12
M TOR 19 3 4 5 6
M TOR 20 3 4 5 15
M TOR 21 3 4 5 16
M TOR 22 3 4 6 17
M TOR 23 3 4 6 18
M TOR 24 3 4 7 8
M TOR 25 4 3 2 13
M TOR 26 4 3 2 14
M TOR 27 4 5 6 17
M TOR 28 4 5 6 18
M TOR 29 4 6 5 15
M TOR 30 4 6 5 16
M TOR 31 4 7 1 12
M TOR 32 5 4 7 8
M TOR 33 5 6 4 7
M TOR 34 6 4 7 8
M TOR 35 7 1 0 9
M TOR 36 7 1 0 10
M TOR 37 7 1 0 11
M TOR 38 7 1 2 13
M TOR 39 7 1 2 14
M TOR 40 7 4 5 15
M TOR 41 7 4 5 16
M TOR 42 7 4 6 17
M TOR 43 7 4 6 18
M TOR 44 8 7 1 12
M  END
$$$$
