gdb 5062	2.3994433	1.38753	1.0490199	1.5451	78.4	-0.24403	-0.02924	0.21479	1203.8929	0.154948	-422.531141	-422.521961	-422.521016	-422.565484	33.214
 OpenBabel02181911413D

 19 20  0  0  1  0  0  0  0  0999 V2000
    2.1701    1.6062   -0.4356 C   0  0  0  0  0  0  0  0  0  0  0  0
    1.6108    0.1841   -0.2761 C   0  0  0  0  0  0  0  0  0  0  0  0
    2.1343   -0.7427   -1.3263 C   0  0  2  0  0  0  0  0  0  0  0  0
    1.6050   -0.9321   -2.6962 C   0  0  0  0  0  0  0  0  0  0  0  0
    1.6696   -2.1593   -1.7947 C   0  0  1  0  0  0  0  0  0  0  0  0
    3.1288   -2.5340   -1.5778 C   0  0  0  0  0  0  0  0  0  0  0  0
    3.4922   -1.1702   -1.2355 O   0  0  0  0  0  0  0  0  0  0  0  0
    0.4778   -2.8745   -1.3409 C   0  0  0  0  0  0  0  0  0  0  0  0
   -0.6569   -2.4643   -1.4602 O   0  0  0  0  0  0  0  0  0  0  0  0
    1.7915    2.2591    0.3558 H   0  0  0  0  0  0  0  0  0  0  0  0
    3.2625    1.6028   -0.3801 H   0  0  0  0  0  0  0  0  0  0  0  0
    1.8813    2.0364   -1.3995 H   0  0  0  0  0  0  0  0  0  0  0  0
    1.8752   -0.2123    0.7107 H   0  0  0  0  0  0  0  0  0  0  0  0
    0.5174    0.1909   -0.3426 H   0  0  0  0  0  0  0  0  0  0  0  0
    0.5882   -0.5920   -2.8621 H   0  0  0  0  0  0  0  0  0  0  0  0
    2.2762   -0.8783   -3.5489 H   0  0  0  0  0  0  0  0  0  0  0  0
    3.2851   -3.1979   -0.7193 H   0  0  0  0  0  0  0  0  0  0  0  0
    3.6902   -2.9056   -2.4426 H   0  0  0  0  0  0  0  0  0  0  0  0
    0.6865   -3.8417   -0.8290 H   0  0  0  0  0  0  0  0  0  0  0  0
  1 11  1  0  0  0  0
  1  2  1  0  0  0  0
  1 10  1  0  0  0  0
  2 13  1  0  0  0  0
  3  7  1  0  0  0  0
  3  2  1  1  0  0  0
  4  5  1  0  0  0  0
  4  3  1  0  0  0  0
  5  6  1  0  0  0  0
  5  8  1  1  0  0  0
  5  3  1  0  0  0  0
  6  7  1  0  0  0  0
  6 17  1  0  0  0  0
  8 19  1  0  0  0  0
  9  8  2  0  0  0  0
 12  1  1  0  0  0  0
 14  2  1  0  0  0  0
 15  4  1  0  0  0  0
 16  4  1  0  0  0  0
 18  6  1  0  0  0  0
M TOR 0 0 1 2 3
M TOR 1 0 1 2 4
M TOR 2 0 1 2 6
M TOR 3 1 2 3 4
M TOR 4 1 2 3 14
M TOR 5 1 2 3 15
M TOR 6 1 2 4 5
M TOR 7 1 2 4 7
M TOR 8 1 2 6 5
M TOR 9 2 1 0 9
M TOR 10 2 1 0 10
M TOR 11 2 1 0 11
M TOR 12 2 3 4 5
M TOR 13 2 3 4 7
M TOR 14 2 4 3 14
M TOR 15 2 4 3 15
M TOR 16 2 4 5 6
M TOR 17 2 4 5 16
M TOR 18 2 4 5 17
M TOR 19 2 4 7 8
M TOR 20 2 4 7 18
M TOR 21 2 6 5 16
M TOR 22 2 6 5 17
M TOR 23 3 2 1 12
M TOR 24 3 2 1 13
M TOR 25 3 2 6 5
M TOR 26 3 4 2 6
M TOR 27 3 4 5 6
M TOR 28 3 4 5 16
M TOR 29 3 4 5 17
M TOR 30 3 4 7 8
M TOR 31 3 4 7 18
M TOR 32 4 2 1 12
M TOR 33 4 2 1 13
M TOR 34 5 4 3 14
M TOR 35 5 4 3 15
M TOR 36 5 4 7 8
M TOR 37 5 4 7 18
M TOR 38 6 2 1 12
M TOR 39 6 2 1 13
M TOR 40 6 2 3 14
M TOR 41 6 2 3 15
M TOR 42 6 2 4 7
M TOR 43 6 5 4 7
M TOR 44 7 4 3 14
M TOR 45 7 4 3 15
M TOR 46 7 4 5 16
M TOR 47 7 4 5 17
M  END
$$$$
