gdb 3295	3.4510238	1.5553624	1.4278111	2.1063	73.32	-0.23277	0.07516	0.30793000000000004	967.7354	0.160378	-422.554401	-422.547606	-422.546662	-422.585128	28.311
 OpenBabel02181911413D

 19 21  0  0  1  0  0  0  0  0999 V2000
    0.5729    0.1175    0.5758 O   0  0  0  0  0  0  0  0  0  0  0  0
   -0.7500    0.5024    0.8910 C   0  0  1  0  0  0  0  0  0  0  0  0
   -1.0094    0.8722    2.3820 C   0  0  2  0  0  0  0  0  0  0  0  0
   -2.4843    1.3022    2.3042 C   0  0  0  0  0  0  0  0  0  0  0  0
   -2.3284    2.3994    1.1978 C   0  0  1  0  0  0  0  0  0  0  0  0
   -2.0193    3.7086    1.9304 C   0  0  0  0  0  0  0  0  0  0  0  0
   -0.8086    3.4103    2.6460 O   0  0  0  0  0  0  0  0  0  0  0  0
   -0.2831    2.2363    2.0577 C   0  0  2  0  0  0  0  0  0  0  0  0
   -0.9194    2.0151    0.6613 C   0  0  1  0  0  0  0  0  0  0  0  0
    0.7248   -0.7548    0.9530 H   0  0  0  0  0  0  0  0  0  0  0  0
   -1.4836   -0.1686    0.4224 H   0  0  0  0  0  0  0  0  0  0  0  0
   -0.7026    0.2136    3.1960 H   0  0  0  0  0  0  0  0  0  0  0  0
   -3.1356    0.4772    1.9996 H   0  0  0  0  0  0  0  0  0  0  0  0
   -2.8687    1.7150    3.2405 H   0  0  0  0  0  0  0  0  0  0  0  0
   -3.1390    2.4622    0.4714 H   0  0  0  0  0  0  0  0  0  0  0  0
   -1.8523    4.5509    1.2422 H   0  0  0  0  0  0  0  0  0  0  0  0
   -2.7989    3.9914    2.6465 H   0  0  0  0  0  0  0  0  0  0  0  0
    0.8002    2.2216    2.1379 H   0  0  0  0  0  0  0  0  0  0  0  0
   -0.5595    2.5060   -0.2421 H   0  0  0  0  0  0  0  0  0  0  0  0
  1  2  1  0  0  0  0
  1 10  1  0  0  0  0
  2 11  1  6  0  0  0
  2  3  1  0  0  0  0
  3 12  1  1  0  0  0
  4  3  1  0  0  0  0
  4 14  1  0  0  0  0
  5 15  1  6  0  0  0
  5  6  1  0  0  0  0
  5  4  1  0  0  0  0
  6  7  1  0  0  0  0
  6 17  1  0  0  0  0
  8 18  1  1  0  0  0
  8  3  1  0  0  0  0
  8  7  1  0  0  0  0
  9 19  1  6  0  0  0
  9  2  1  0  0  0  0
  9  5  1  0  0  0  0
  9  8  1  0  0  0  0
 13  4  1  0  0  0  0
 16  6  1  0  0  0  0
M TOR 0 0 1 2 3
M TOR 1 0 1 2 7
M TOR 2 0 1 2 11
M TOR 3 0 1 8 4
M TOR 4 0 1 8 7
M TOR 5 0 1 8 18
M TOR 6 1 2 3 4
M TOR 7 1 2 3 12
M TOR 8 1 2 3 13
M TOR 9 1 2 7 6
M TOR 10 1 2 7 8
M TOR 11 1 2 7 17
M TOR 12 1 8 4 3
M TOR 13 1 8 4 5
M TOR 14 1 8 4 14
M TOR 15 1 8 7 6
M TOR 16 1 8 7 17
M TOR 17 2 1 0 9
M TOR 18 2 1 8 4
M TOR 19 2 1 8 18
M TOR 20 2 3 4 5
M TOR 21 2 3 4 8
M TOR 22 2 3 4 14
M TOR 23 2 7 6 5
M TOR 24 2 7 8 4
M TOR 25 2 7 8 18
M TOR 26 3 2 1 8
M TOR 27 3 2 1 10
M TOR 28 3 2 7 6
M TOR 29 3 2 7 8
M TOR 30 3 2 7 17
M TOR 31 3 4 5 6
M TOR 32 3 4 5 15
M TOR 33 3 4 5 16
M TOR 34 3 4 8 7
M TOR 35 3 4 8 18
M TOR 36 4 3 2 7
M TOR 37 4 3 2 11
M TOR 38 4 5 6 7
M TOR 39 4 8 1 10
M TOR 40 4 8 7 6
M TOR 41 4 8 7 17
M TOR 42 5 4 3 12
M TOR 43 5 4 3 13
M TOR 44 5 4 8 7
M TOR 45 5 4 8 18
M TOR 46 5 6 7 8
M TOR 47 5 6 7 17
M TOR 48 6 5 4 8
M TOR 49 6 5 4 14
M TOR 50 6 7 2 11
M TOR 51 6 7 8 18
M TOR 52 7 2 1 10
M TOR 53 7 2 3 12
M TOR 54 7 2 3 13
M TOR 55 7 6 5 15
M TOR 56 7 6 5 16
M TOR 57 7 8 1 10
M TOR 58 7 8 4 14
M TOR 59 8 1 0 9
M TOR 60 8 1 2 11
M TOR 61 8 4 3 12
M TOR 62 8 4 3 13
M TOR 63 8 4 5 15
M TOR 64 8 4 5 16
M TOR 65 8 7 2 11
M  END
$$$$
