
     RDKit          3D

 19 19  0  0  0  0  0  0  0  0999 V2000
   -0.0030    0.0188    0.0606 C   0  0  0  0  0  0  0  0  0  0  0  0
    1.5370   -0.0225    0.0684 C   0  0  0  0  0  0  0  0  0  0  0  0
    2.0475   -0.6481    1.3914 C   0  0  0  0  0  0  0  0  0  0  0  0
    3.4511   -0.5244    1.5154 O   0  0  0  0  0  0  0  0  0  0  0  0
    3.8537    0.8175    1.4448 C   0  0  0  0  0  0  0  0  0  0  0  0
    3.5099    1.4238    0.2275 O   0  0  0  0  0  0  0  0  0  0  0  0
    2.1098    1.4171    0.0261 C   0  0  0  0  0  0  0  0  0  0  0  0
    2.0240   -0.7937   -1.0760 C   0  0  0  0  0  0  0  0  0  0  0  0
    2.3843   -1.4335   -2.0274 C   0  0  0  0  0  0  0  0  0  0  0  0
   -0.3791    0.5939    0.9133 H   0  0  0  0  0  0  0  0  0  0  0  0
   -0.3720    0.4816   -0.8589 H   0  0  0  0  0  0  0  0  0  0  0  0
   -0.4164   -0.9921    0.1154 H   0  0  0  0  0  0  0  0  0  0  0  0
    1.5447   -0.1416    2.2335 H   0  0  0  0  0  0  0  0  0  0  0  0
    1.8157   -1.7146    1.4360 H   0  0  0  0  0  0  0  0  0  0  0  0
    3.4049    1.3859    2.2840 H   0  0  0  0  0  0  0  0  0  0  0  0
    4.9426    0.8311    1.5150 H   0  0  0  0  0  0  0  0  0  0  0  0
    1.6097    2.0145    0.8082 H   0  0  0  0  0  0  0  0  0  0  0  0
    1.9243    1.8848   -0.9434 H   0  0  0  0  0  0  0  0  0  0  0  0
    2.7224   -1.9956   -2.8623 H   0  0  0  0  0  0  0  0  0  0  0  0
  1  2  1  0
  2  3  1  0
  3  4  1  0
  4  5  1  0
  5  6  1  0
  6  7  1  0
  2  8  1  0
  8  9  3  0
  7  2  1  0
  1 10  1  0
  1 11  1  0
  1 12  1  0
  3 13  1  0
  3 14  1  0
  5 15  1  0
  5 16  1  0
  7 17  1  0
  7 18  1  0
  9 19  1  0
M  END
$$$$
