gdb 2265	3.0437838	1.4797577	1.3845346	2.8076	74.45	-0.24386	0.01563	0.25949	1009.4286	0.157311	-422.578895	-422.570819	-422.569875	-422.610595	32.859
 OpenBabel02181911413D

 19 20  0  0  1  0  0  0  0  0999 V2000
   -4.2775   -0.6567    0.9536 O   0  0  0  0  0  0  0  0  0  0  0  0
   -2.9945   -0.0877    0.9126 C   0  0  2  0  0  0  0  0  0  0  0  0
   -2.5821    0.7476    2.1768 C   0  0  0  0  0  0  0  0  0  0  0  0
   -1.4225    1.6320    1.6373 C   0  0  0  0  0  0  0  0  0  0  0  0
   -1.3216    1.1878    0.1345 C   0  0  2  0  0  0  0  0  0  0  0  0
   -0.6733    2.0911   -0.7229 O   0  0  0  0  0  0  0  0  0  0  0  0
   -2.8108    0.9679   -0.1948 C   0  0  0  0  0  0  0  0  0  0  0  0
   -0.8250   -0.2558    0.1454 C   0  0  0  0  0  0  0  0  0  0  0  0
   -1.8203   -1.0146    0.6081 C   0  0  0  0  0  0  0  0  0  0  0  0
   -4.3298   -1.2288    1.7264 H   0  0  0  0  0  0  0  0  0  0  0  0
   -3.4362    1.3494    2.5011 H   0  0  0  0  0  0  0  0  0  0  0  0
   -2.2823    0.1063    3.0109 H   0  0  0  0  0  0  0  0  0  0  0  0
   -1.6692    2.6970    1.6788 H   0  0  0  0  0  0  0  0  0  0  0  0
   -0.4805    1.4805    2.1727 H   0  0  0  0  0  0  0  0  0  0  0  0
    0.2177    2.2384   -0.3889 H   0  0  0  0  0  0  0  0  0  0  0  0
   -3.4238    1.8619   -0.0473 H   0  0  0  0  0  0  0  0  0  0  0  0
   -2.9650    0.5600   -1.1949 H   0  0  0  0  0  0  0  0  0  0  0  0
    0.1920   -0.5492   -0.0885 H   0  0  0  0  0  0  0  0  0  0  0  0
   -1.8071   -2.0733    0.8409 H   0  0  0  0  0  0  0  0  0  0  0  0
  1 10  1  0  0  0  0
  2  1  1  1  0  0  0
  2  3  1  0  0  0  0
  3 11  1  0  0  0  0
  3 12  1  0  0  0  0
  4 13  1  0  0  0  0
  4 14  1  0  0  0  0
  4  3  1  0  0  0  0
  5  6  1  6  0  0  0
  5  8  1  0  0  0  0
  5  4  1  0  0  0  0
  6 15  1  0  0  0  0
  7 16  1  0  0  0  0
  7  5  1  0  0  0  0
  7  2  1  0  0  0  0
  8  9  2  0  0  0  0
  9 19  1  0  0  0  0
  9  2  1  0  0  0  0
 17  7  1  0  0  0  0
 18  8  1  0  0  0  0
M TOR 0 0 1 2 3
M TOR 1 0 1 2 10
M TOR 2 0 1 2 11
M TOR 3 0 1 6 4
M TOR 4 0 1 6 15
M TOR 5 0 1 6 16
M TOR 6 0 1 8 7
M TOR 7 0 1 8 18
M TOR 8 1 2 3 4
M TOR 9 1 2 3 12
M TOR 10 1 2 3 13
M TOR 11 1 6 4 3
M TOR 12 1 6 4 5
M TOR 13 1 6 4 7
M TOR 14 1 8 7 4
M TOR 15 1 8 7 17
M TOR 16 2 1 0 9
M TOR 17 2 1 6 4
M TOR 18 2 1 6 15
M TOR 19 2 1 6 16
M TOR 20 2 1 8 7
M TOR 21 2 1 8 18
M TOR 22 2 3 4 5
M TOR 23 2 3 4 6
M TOR 24 2 3 4 7
M TOR 25 3 2 1 6
M TOR 26 3 2 1 8
M TOR 27 3 4 5 14
M TOR 28 3 4 6 15
M TOR 29 3 4 6 16
M TOR 30 3 4 7 8
M TOR 31 3 4 7 17
M TOR 32 4 3 2 10
M TOR 33 4 3 2 11
M TOR 34 4 6 1 8
M TOR 35 4 7 8 18
M TOR 36 5 4 3 12
M TOR 37 5 4 3 13
M TOR 38 5 4 6 15
M TOR 39 5 4 6 16
M TOR 40 5 4 7 8
M TOR 41 5 4 7 17
M TOR 42 6 1 0 9
M TOR 43 6 1 2 10
M TOR 44 6 1 2 11
M TOR 45 6 1 8 7
M TOR 46 6 1 8 18
M TOR 47 6 4 3 12
M TOR 48 6 4 3 13
M TOR 49 6 4 5 14
M TOR 50 6 4 7 8
M TOR 51 6 4 7 17
M TOR 52 7 4 3 12
M TOR 53 7 4 3 13
M TOR 54 7 4 5 14
M TOR 55 7 4 6 15
M TOR 56 7 4 6 16
M TOR 57 8 1 0 9
M TOR 58 8 1 2 10
M TOR 59 8 1 2 11
M TOR 60 8 1 6 15
M TOR 61 8 1 6 16
M  END
$$$$
