gdb 1371	3.9053758	0.8055445	0.7663032	0.8639	78.24	-0.24331	0.03394	0.27725	1537.1961	0.154837	-422.500585	-422.490773	-422.489828	-422.536226	34.86
 OpenBabel02181911403D

 19 19  0  0  1  0  0  0  0  0999 V2000
    2.0785    3.2344   -1.0302 O   0  0  0  0  0  0  0  0  0  0  0  0
    2.9899    2.2438   -1.5053 C   0  0  1  0  0  0  0  0  0  0  0  0
    2.1440    1.0681   -2.0143 C   0  0  0  0  0  0  0  0  0  0  0  0
    1.3541    0.4184   -0.8908 C   0  0  1  0  0  0  0  0  0  0  0  0
    0.6906   -0.9477   -1.1761 C   0  0  0  0  0  0  0  0  0  0  0  0
    1.5913   -1.4632   -0.0361 C   0  0  0  0  0  0  0  0  0  0  0  0
    2.2243   -0.1754    0.1100 O   0  0  0  0  0  0  0  0  0  0  0  0
    3.8711    2.7789   -2.5476 C   0  0  0  0  0  0  0  0  0  0  0  0
    4.5961    3.2393   -3.3889 C   0  0  0  0  0  0  0  0  0  0  0  0
    2.5949    3.9854   -0.7206 H   0  0  0  0  0  0  0  0  0  0  0  0
    3.6115    1.8694   -0.6775 H   0  0  0  0  0  0  0  0  0  0  0  0
    1.4582    1.4364   -2.7861 H   0  0  0  0  0  0  0  0  0  0  0  0
    2.8082    0.3283   -2.4728 H   0  0  0  0  0  0  0  0  0  0  0  0
    0.6887    1.1564   -0.4288 H   0  0  0  0  0  0  0  0  0  0  0  0
   -0.3846   -1.0025   -1.0012 H   0  0  0  0  0  0  0  0  0  0  0  0
    0.9158   -1.3603   -2.1620 H   0  0  0  0  0  0  0  0  0  0  0  0
    1.0615   -1.7619    0.8774 H   0  0  0  0  0  0  0  0  0  0  0  0
    2.3109   -2.2481   -0.2979 H   0  0  0  0  0  0  0  0  0  0  0  0
    5.2370    3.6428   -4.1336 H   0  0  0  0  0  0  0  0  0  0  0  0
  1 10  1  0  0  0  0
  2  1  1  0  0  0  0
  2 11  1  1  0  0  0
  3  2  1  0  0  0  0
  3  4  1  0  0  0  0
  4 14  1  1  0  0  0
  4  7  1  0  0  0  0
  5 15  1  0  0  0  0
  5  4  1  0  0  0  0
  5  6  1  0  0  0  0
  6  7  1  0  0  0  0
  6 17  1  0  0  0  0
  8  2  1  0  0  0  0
  9  8  3  0  0  0  0
 12  3  1  0  0  0  0
 13  3  1  0  0  0  0
 16  5  1  0  0  0  0
 18  6  1  0  0  0  0
 19  9  1  0  0  0  0
M TOR 0 0 1 2 3
M TOR 1 0 1 2 11
M TOR 2 0 1 2 12
M TOR 3 0 1 7 8
M TOR 4 1 2 3 4
M TOR 5 1 2 3 6
M TOR 6 1 2 3 13
M TOR 7 1 7 8 18
M TOR 8 2 1 0 9
M TOR 9 2 1 7 8
M TOR 10 2 3 4 5
M TOR 11 2 3 4 14
M TOR 12 2 3 4 15
M TOR 13 2 3 6 5
M TOR 14 3 2 1 7
M TOR 15 3 2 1 10
M TOR 16 3 4 5 6
M TOR 17 3 4 5 16
M TOR 18 3 4 5 17
M TOR 19 3 6 5 16
M TOR 20 3 6 5 17
M TOR 21 4 3 2 11
M TOR 22 4 3 2 12
M TOR 23 5 4 3 13
M TOR 24 5 6 3 13
M TOR 25 6 3 2 11
M TOR 26 6 3 2 12
M TOR 27 6 3 4 14
M TOR 28 6 3 4 15
M TOR 29 6 5 4 14
M TOR 30 6 5 4 15
M TOR 31 7 1 0 9
M TOR 32 7 1 2 11
M TOR 33 7 1 2 12
M TOR 34 8 7 1 10
M  END
$$$$
