gdb 5814	2.1522709	1.5842849	1.2449248	1.6957	76.91	-0.23209	-0.02033	0.21176	1111.4031	0.156416	-422.574914	-422.565929	-422.564985	-422.609049	32.519
 OpenBabel02181911423D

 19 19  0  0  1  0  0  0  0  0999 V2000
    1.3656   -0.1133   -0.1105 C   0  0  0  0  0  0  0  0  0  0  0  0
   -0.0276    0.1216   -0.0335 O   0  0  0  0  0  0  0  0  0  0  0  0
   -0.4346    0.7503    1.1741 C   0  0  2  0  0  0  0  0  0  0  0  0
   -1.9635    0.6589    1.2432 C   0  0  0  0  0  0  0  0  0  0  0  0
   -2.6455    1.6345    0.3193 C   0  0  0  0  0  0  0  0  0  0  0  0
   -2.0387    2.6845   -0.2296 C   0  0  0  0  0  0  0  0  0  0  0  0
   -0.5886    3.0284    0.0116 C   0  0  0  0  0  0  0  0  0  0  0  0
   -0.0016    2.2230    1.1600 C   0  0  0  0  0  0  0  0  0  0  0  0
    0.7375    2.6918    1.9925 O   0  0  0  0  0  0  0  0  0  0  0  0
    1.7108   -0.7525    0.7156 H   0  0  0  0  0  0  0  0  0  0  0  0
    1.5488   -0.6244   -1.0582 H   0  0  0  0  0  0  0  0  0  0  0  0
    1.9513    0.8170   -0.0895 H   0  0  0  0  0  0  0  0  0  0  0  0
    0.0317    0.2616    2.0411 H   0  0  0  0  0  0  0  0  0  0  0  0
   -2.2479   -0.3708    0.9961 H   0  0  0  0  0  0  0  0  0  0  0  0
   -2.2883    0.8288    2.2791 H   0  0  0  0  0  0  0  0  0  0  0  0
   -3.6965    1.4520    0.1110 H   0  0  0  0  0  0  0  0  0  0  0  0
   -2.5896    3.3492   -0.8896 H   0  0  0  0  0  0  0  0  0  0  0  0
   -0.0016    2.8142   -0.8942 H   0  0  0  0  0  0  0  0  0  0  0  0
   -0.4496    4.0917    0.2309 H   0  0  0  0  0  0  0  0  0  0  0  0
  1 12  1  0  0  0  0
  1  2  1  0  0  0  0
  1 10  1  0  0  0  0
  2  3  1  0  0  0  0
  3  4  1  0  0  0  0
  3 13  1  1  0  0  0
  4 15  1  0  0  0  0
  5  4  1  0  0  0  0
  6  7  1  0  0  0  0
  6  5  2  0  0  0  0
  7 19  1  0  0  0  0
  7  8  1  0  0  0  0
  8  3  1  0  0  0  0
  8  9  2  0  0  0  0
 11  1  1  0  0  0  0
 14  4  1  0  0  0  0
 16  5  1  0  0  0  0
 17  6  1  0  0  0  0
 18  7  1  0  0  0  0
M TOR 0 0 1 2 3
M TOR 1 0 1 2 7
M TOR 2 0 1 2 12
M TOR 3 1 2 3 4
M TOR 4 1 2 3 13
M TOR 5 1 2 3 14
M TOR 6 1 2 7 6
M TOR 7 1 2 7 8
M TOR 8 2 1 0 9
M TOR 9 2 1 0 10
M TOR 10 2 1 0 11
M TOR 11 2 3 4 5
M TOR 12 2 3 4 15
M TOR 13 2 7 6 5
M TOR 14 2 7 6 17
M TOR 15 2 7 6 18
M TOR 16 3 2 7 6
M TOR 17 3 2 7 8
M TOR 18 3 4 5 6
M TOR 19 3 4 5 16
M TOR 20 4 3 2 7
M TOR 21 4 3 2 12
M TOR 22 4 5 6 7
M TOR 23 4 5 6 17
M TOR 24 4 5 6 18
M TOR 25 5 4 3 13
M TOR 26 5 4 3 14
M TOR 27 5 6 7 8
M TOR 28 6 5 4 15
M TOR 29 6 7 2 12
M TOR 30 7 2 3 13
M TOR 31 7 2 3 14
M TOR 32 7 6 5 16
M TOR 33 8 7 2 12
M TOR 34 8 7 6 17
M TOR 35 8 7 6 18
M  END
$$$$
