
     RDKit          3D

 19 19  0  0  0  0  0  0  0  0999 V2000
    1.5804    0.2139   -0.1891 C   0  0  0  0  0  0  0  0  0  0  0  0
    0.1332    0.0989   -0.0803 C   0  0  0  0  0  0  0  0  0  0  0  0
   -1.0657    0.0128    0.0018 C   0  0  0  0  0  0  0  0  0  0  0  0
   -2.5013   -0.1185    0.1250 C   0  0  0  0  0  0  0  0  0  0  0  0
   -3.1790   -1.5006   -0.0923 C   0  0  0  0  0  0  0  0  0  0  0  0
   -3.6754   -1.6718   -1.3962 O   0  0  0  0  0  0  0  0  0  0  0  0
   -4.1721   -1.1607    1.0537 C   0  0  0  0  0  0  0  0  0  0  0  0
   -3.1709   -0.0705    1.5272 C   0  0  0  0  0  0  0  0  0  0  0  0
   -3.6590    1.2046    1.8612 O   0  0  0  0  0  0  0  0  0  0  0  0
    2.0369    0.4420    0.7807 H   0  0  0  0  0  0  0  0  0  0  0  0
    2.0286   -0.7175   -0.5535 H   0  0  0  0  0  0  0  0  0  0  0  0
    1.8660    1.0114   -0.8841 H   0  0  0  0  0  0  0  0  0  0  0  0
   -3.0281    0.6034   -0.5098 H   0  0  0  0  0  0  0  0  0  0  0  0
   -2.4969   -2.3128    0.1904 H   0  0  0  0  0  0  0  0  0  0  0  0
   -4.0314   -2.5627   -1.4724 H   0  0  0  0  0  0  0  0  0  0  0  0
   -5.0680   -0.6884    0.6412 H   0  0  0  0  0  0  0  0  0  0  0  0
   -4.4520   -1.9515    1.7534 H   0  0  0  0  0  0  0  0  0  0  0  0
   -2.4863   -0.4550    2.2943 H   0  0  0  0  0  0  0  0  0  0  0  0
   -4.0101    1.1718    2.7566 H   0  0  0  0  0  0  0  0  0  0  0  0
  1  2  1  0
  2  3  3  0
  3  4  1  0
  4  5  1  0
  5  6  1  0
  5  7  1  0
  7  8  1  0
  8  9  1  0
  8  4  1  0
  1 10  1  0
  1 11  1  0
  1 12  1  0
  4 13  1  0
  5 14  1  0
  6 15  1  0
  7 16  1  0
  7 17  1  0
  8 18  1  0
  9 19  1  0
M  END
$$$$
