gdb 5735	4.0945073	1.2024792	1.1326416	2.8561	77.29	-0.223	0.05139	0.27439	1139.8071	0.155479	-422.392777	-422.384683	-422.383739	-422.42523	31.312
 OpenBabel02181911423D

 19 21  0  0  1  0  0  0  0  0999 V2000
    1.5363   -0.0749   -0.0939 C   0  0  0  0  0  0  0  0  0  0  0  0
    0.1347    0.0935   -0.1667 O   0  0  0  0  0  0  0  0  0  0  0  0
   -0.4178    0.6581    0.9829 C   0  0  1  0  0  0  0  0  0  0  0  0
   -0.2626    2.2643    1.1569 C   0  0  0  0  0  0  0  0  0  0  0  0
   -1.6900    2.2903    0.6054 C   0  0  2  0  0  0  0  0  0  0  0  0
   -2.0105    1.9783   -0.8871 C   0  0  0  0  0  0  0  0  0  0  0  0
   -3.0800    1.3686    0.0120 C   0  0  2  0  0  0  0  0  0  0  0  0
   -3.1206    2.6846    0.7912 O   0  0  0  0  0  0  0  0  0  0  0  0
   -1.9878    0.8694    1.0137 C   0  0  1  0  0  0  0  0  0  0  0  0
    1.8184   -0.7112    0.7587 H   0  0  0  0  0  0  0  0  0  0  0  0
    1.8498   -0.5606   -1.0204 H   0  0  0  0  0  0  0  0  0  0  0  0
    2.0626    0.8856    0.0009 H   0  0  0  0  0  0  0  0  0  0  0  0
   -0.0772    0.1113    1.8735 H   0  0  0  0  0  0  0  0  0  0  0  0
   -0.1878    2.5211    2.2161 H   0  0  0  0  0  0  0  0  0  0  0  0
    0.5182    2.7760    0.5876 H   0  0  0  0  0  0  0  0  0  0  0  0
   -2.3344    2.8427   -1.4668 H   0  0  0  0  0  0  0  0  0  0  0  0
   -1.3412    1.3073   -1.4219 H   0  0  0  0  0  0  0  0  0  0  0  0
   -4.0644    0.9559   -0.2224 H   0  0  0  0  0  0  0  0  0  0  0  0
   -2.3590    0.7664    2.0341 H   0  0  0  0  0  0  0  0  0  0  0  0
  1 12  1  0  0  0  0
  1 10  1  0  0  0  0
  2  1  1  0  0  0  0
  2  3  1  0  0  0  0
  3  9  1  0  0  0  0
  3  4  1  0  0  0  0
  3 13  1  1  0  0  0
  4 14  1  0  0  0  0
  5  8  1  1  0  0  0
  5  9  1  0  0  0  0
  5  4  1  0  0  0  0
  6  7  1  0  0  0  0
  6  5  1  0  0  0  0
  7 18  1  6  0  0  0
  7  8  1  0  0  0  0
  7  9  1  0  0  0  0
  9 19  1  1  0  0  0
 11  1  1  0  0  0  0
 15  4  1  0  0  0  0
 16  6  1  0  0  0  0
 17  6  1  0  0  0  0
M TOR 0 0 1 2 3
M TOR 1 0 1 2 8
M TOR 2 0 1 2 12
M TOR 3 1 2 3 4
M TOR 4 1 2 3 13
M TOR 5 1 2 3 14
M TOR 6 1 2 8 4
M TOR 7 1 2 8 6
M TOR 8 1 2 8 18
M TOR 9 2 1 0 9
M TOR 10 2 1 0 10
M TOR 11 2 1 0 11
M TOR 12 2 3 4 5
M TOR 13 2 3 4 7
M TOR 14 2 3 4 8
M TOR 15 2 8 4 5
M TOR 16 2 8 4 7
M TOR 17 2 8 6 5
M TOR 18 2 8 6 7
M TOR 19 2 8 6 17
M TOR 20 3 2 8 6
M TOR 21 3 2 8 18
M TOR 22 3 4 5 6
M TOR 23 3 4 5 15
M TOR 24 3 4 5 16
M TOR 25 3 4 7 6
M TOR 26 3 4 8 6
M TOR 27 3 4 8 18
M TOR 28 4 3 2 12
M TOR 29 4 5 6 7
M TOR 30 4 5 6 8
M TOR 31 4 5 6 17
M TOR 32 4 7 6 8
M TOR 33 4 7 6 17
M TOR 34 4 8 2 12
M TOR 35 4 8 6 17
M TOR 36 5 4 3 13
M TOR 37 5 4 3 14
M TOR 38 5 4 8 18
M TOR 39 5 6 8 18
M TOR 40 6 8 2 12
M TOR 41 7 4 3 13
M TOR 42 7 4 3 14
M TOR 43 7 4 5 15
M TOR 44 7 4 5 16
M TOR 45 7 4 8 18
M TOR 46 7 6 5 15
M TOR 47 7 6 5 16
M TOR 48 7 6 8 18
M TOR 49 8 2 3 13
M TOR 50 8 2 3 14
M TOR 51 8 4 3 13
M TOR 52 8 4 3 14
M TOR 53 8 4 5 15
M TOR 54 8 4 5 16
M TOR 55 8 6 5 15
M TOR 56 8 6 5 16
M  END
$$$$
