gdb 4705	2.2534782	1.0725256	0.9162489	2.58	78.72	-0.24515	-0.0238	0.22135	1408.4717	0.152153	-422.523336	-422.512364	-422.51142	-422.560396	37.466
 OpenBabel02181911413D

 19 18  0  0  1  0  0  0  0  0999 V2000
    0.8851   -0.8179    0.2695 C   0  0  0  0  0  0  0  0  0  0  0  0
    0.7796    0.5402   -0.4184 C   0  0  0  0  0  0  0  0  0  0  0  0
    1.9245    1.4706   -0.0798 C   0  0  0  0  0  0  0  0  0  0  0  0
    2.8617    1.1655    0.6139 O   0  0  0  0  0  0  0  0  0  0  0  0
    1.8415    2.9081   -0.6637 C   0  0  1  0  0  0  0  0  0  0  0  0
    1.3218    2.8194   -1.9764 O   0  0  0  0  0  0  0  0  0  0  0  0
    1.3474    4.0435   -2.6875 C   0  0  0  0  0  0  0  0  0  0  0  0
    1.0166    3.7355    0.2240 C   0  0  0  0  0  0  0  0  0  0  0  0
    0.3219    4.3861    0.9589 C   0  0  0  0  0  0  0  0  0  0  0  0
    0.8865   -0.7088    1.3573 H   0  0  0  0  0  0  0  0  0  0  0  0
    0.0443   -1.4573   -0.0128 H   0  0  0  0  0  0  0  0  0  0  0  0
    1.8130   -1.3252   -0.0069 H   0  0  0  0  0  0  0  0  0  0  0  0
    0.7521    0.4459   -1.5105 H   0  0  0  0  0  0  0  0  0  0  0  0
   -0.1534    1.0589   -0.1612 H   0  0  0  0  0  0  0  0  0  0  0  0
    2.8701    3.2990   -0.6735 H   0  0  0  0  0  0  0  0  0  0  0  0
    0.7300    4.8080   -2.1986 H   0  0  0  0  0  0  0  0  0  0  0  0
    2.3737    4.4276   -2.7851 H   0  0  0  0  0  0  0  0  0  0  0  0
    0.9474    3.8375   -3.6824 H   0  0  0  0  0  0  0  0  0  0  0  0
   -0.2819    4.9689    1.6105 H   0  0  0  0  0  0  0  0  0  0  0  0
  1 10  1  0  0  0  0
  2 14  1  0  0  0  0
  2  3  1  0  0  0  0
  2  1  1  0  0  0  0
  3  4  2  0  0  0  0
  5 15  1  6  0  0  0
  5  3  1  0  0  0  0
  5  8  1  0  0  0  0
  6  5  1  0  0  0  0
  7 16  1  0  0  0  0
  7  6  1  0  0  0  0
  8  9  3  0  0  0  0
  9 19  1  0  0  0  0
 11  1  1  0  0  0  0
 12  1  1  0  0  0  0
 13  2  1  0  0  0  0
 17  7  1  0  0  0  0
 18  7  1  0  0  0  0
M TOR 0 0 1 2 3
M TOR 1 0 1 2 4
M TOR 2 1 2 4 5
M TOR 3 1 2 4 7
M TOR 4 1 2 4 14
M TOR 5 2 1 0 9
M TOR 6 2 1 0 10
M TOR 7 2 1 0 11
M TOR 8 2 4 5 6
M TOR 9 2 4 7 8
M TOR 10 3 2 1 12
M TOR 11 3 2 1 13
M TOR 12 3 2 4 5
M TOR 13 3 2 4 7
M TOR 14 3 2 4 14
M TOR 15 4 2 1 12
M TOR 16 4 2 1 13
M TOR 17 4 5 6 15
M TOR 18 4 5 6 16
M TOR 19 4 5 6 17
M TOR 20 4 7 8 18
M TOR 21 5 4 7 8
M TOR 22 6 5 4 7
M TOR 23 6 5 4 14
M TOR 24 8 7 4 14
M  END
$$$$
