
     RDKit          3D

 19 20  0  0  0  0  0  0  0  0999 V2000
   -0.2537    0.1268   -0.0305 C   0  0  0  0  0  0  0  0  0  0  0  0
    1.2727    0.0647    0.0201 C   0  0  0  0  0  0  0  0  0  0  0  0
    2.2338    1.2558   -0.3362 C   0  0  0  0  0  0  0  0  0  0  0  0
    3.3649    0.1889   -0.4559 C   0  0  0  0  0  0  0  0  0  0  0  0
    2.1516   -0.4370   -1.1878 C   0  0  0  0  0  0  0  0  0  0  0  0
    2.0917   -1.7476   -1.8844 C   0  0  0  0  0  0  0  0  0  0  0  0
    3.0421   -2.4744   -2.0510 O   0  0  0  0  0  0  0  0  0  0  0  0
    1.9841    1.0076   -1.8457 C   0  0  0  0  0  0  0  0  0  0  0  0
    0.8199    1.4305   -2.4940 O   0  0  0  0  0  0  0  0  0  0  0  0
   -0.6737   -0.7921    0.3912 H   0  0  0  0  0  0  0  0  0  0  0  0
   -0.6310    0.9559    0.5803 H   0  0  0  0  0  0  0  0  0  0  0  0
   -0.6591    0.2229   -1.0387 H   0  0  0  0  0  0  0  0  0  0  0  0
    1.5705   -0.4137    0.9597 H   0  0  0  0  0  0  0  0  0  0  0  0
    2.2994    2.2232    0.1665 H   0  0  0  0  0  0  0  0  0  0  0  0
    4.2283    0.4516   -1.0696 H   0  0  0  0  0  0  0  0  0  0  0  0
    3.6623   -0.3019    0.4713 H   0  0  0  0  0  0  0  0  0  0  0  0
    1.0844   -2.0253   -2.2711 H   0  0  0  0  0  0  0  0  0  0  0  0
    2.8183    1.2537   -2.5094 H   0  0  0  0  0  0  0  0  0  0  0  0
    0.1962    1.7706   -1.8486 H   0  0  0  0  0  0  0  0  0  0  0  0
  1  2  1  0
  2  3  1  0
  3  4  1  0
  4  5  1  0
  5  6  1  0
  6  7  2  0
  5  8  1  0
  8  9  1  0
  5  2  1  0
  8  3  1  0
  1 10  1  0
  1 11  1  0
  1 12  1  0
  2 13  1  0
  3 14  1  0
  4 15  1  0
  4 16  1  0
  6 17  1  0
  8 18  1  0
  9 19  1  0
M  END
$$$$
