gdb 2307	2.0549363	1.9596928	1.5875977	0.5268	75.45	-0.24466	0.01364	0.2583	976.4418	0.156213	-422.563235	-422.554824	-422.553879	-422.595552	32.783
 OpenBabel02181911413D

 19 20  0  0  1  0  0  0  0  0999 V2000
    0.0460   -0.0829   -0.2954 C   0  0  0  0  0  0  0  0  0  0  0  0
    1.5453   -0.0063   -0.0971 C   0  0  2  0  0  0  0  0  0  0  0  0
    2.1886    1.3661   -0.3599 C   0  0  0  0  0  0  0  0  0  0  0  0
    3.4886    1.0168   -1.0455 C   0  0  0  0  0  0  0  0  0  0  0  0
    3.6209   -0.2855   -1.2929 C   0  0  0  0  0  0  0  0  0  0  0  0
    2.4484   -1.0836   -0.8011 C   0  0  2  0  0  0  0  0  0  0  0  0
    1.9551   -1.9139   -1.8188 O   0  0  0  0  0  0  0  0  0  0  0  0
    2.6033   -1.6728    0.6218 C   0  0  0  0  0  0  0  0  0  0  0  0
    1.9510   -0.5307    1.2024 O   0  0  0  0  0  0  0  0  0  0  0  0
   -0.4644    0.6093    0.3822 H   0  0  0  0  0  0  0  0  0  0  0  0
   -0.2208    0.1791   -1.3241 H   0  0  0  0  0  0  0  0  0  0  0  0
   -0.3322   -1.0890   -0.0859 H   0  0  0  0  0  0  0  0  0  0  0  0
    1.5635    2.0206   -0.9818 H   0  0  0  0  0  0  0  0  0  0  0  0
    2.3428    1.8833    0.5944 H   0  0  0  0  0  0  0  0  0  0  0  0
    4.2264    1.7701   -1.3009 H   0  0  0  0  0  0  0  0  0  0  0  0
    4.4633   -0.7609   -1.7821 H   0  0  0  0  0  0  0  0  0  0  0  0
    1.2586   -2.4677   -1.4502 H   0  0  0  0  0  0  0  0  0  0  0  0
    2.0295   -2.6014    0.7739 H   0  0  0  0  0  0  0  0  0  0  0  0
    3.6197   -1.8163    1.0050 H   0  0  0  0  0  0  0  0  0  0  0  0
  1 12  1  0  0  0  0
  1 10  1  0  0  0  0
  2  1  1  6  0  0  0
  2  9  1  0  0  0  0
  3  2  1  0  0  0  0
  3 14  1  0  0  0  0
  4  3  1  0  0  0  0
  5  4  2  0  0  0  0
  5  6  1  0  0  0  0
  6  7  1  6  0  0  0
  6  2  1  0  0  0  0
  6  8  1  0  0  0  0
  7 17  1  0  0  0  0
  8 18  1  0  0  0  0
  8 19  1  0  0  0  0
  8  9  1  0  0  0  0
 11  1  1  0  0  0  0
 13  3  1  0  0  0  0
 15  4  1  0  0  0  0
 16  5  1  0  0  0  0
M TOR 0 0 1 2 3
M TOR 1 0 1 2 12
M TOR 2 0 1 2 13
M TOR 3 0 1 5 4
M TOR 4 0 1 5 6
M TOR 5 0 1 5 7
M TOR 6 0 1 8 7
M TOR 7 1 2 3 4
M TOR 8 1 2 3 14
M TOR 9 1 5 4 3
M TOR 10 1 5 4 15
M TOR 11 1 5 6 16
M TOR 12 1 5 7 8
M TOR 13 1 5 7 17
M TOR 14 1 5 7 18
M TOR 15 1 8 7 17
M TOR 16 1 8 7 18
M TOR 17 2 1 0 9
M TOR 18 2 1 0 10
M TOR 19 2 1 0 11
M TOR 20 2 1 5 4
M TOR 21 2 1 5 6
M TOR 22 2 1 5 7
M TOR 23 2 1 8 7
M TOR 24 2 3 4 5
M TOR 25 2 3 4 15
M TOR 26 3 2 1 5
M TOR 27 3 2 1 8
M TOR 28 3 4 5 6
M TOR 29 3 4 5 7
M TOR 30 4 3 2 12
M TOR 31 4 3 2 13
M TOR 32 4 5 1 8
M TOR 33 4 5 6 16
M TOR 34 4 5 7 8
M TOR 35 4 5 7 17
M TOR 36 4 5 7 18
M TOR 37 5 1 0 9
M TOR 38 5 1 0 10
M TOR 39 5 1 0 11
M TOR 40 5 1 2 12
M TOR 41 5 1 2 13
M TOR 42 5 4 3 14
M TOR 43 6 5 1 8
M TOR 44 6 5 4 15
M TOR 45 6 5 7 8
M TOR 46 6 5 7 17
M TOR 47 6 5 7 18
M TOR 48 7 5 4 15
M TOR 49 7 5 6 16
M TOR 50 8 1 0 9
M TOR 51 8 1 0 10
M TOR 52 8 1 0 11
M TOR 53 8 1 2 12
M TOR 54 8 1 2 13
M  END
$$$$
