gdb 1014	2.8426755	0.9215535	0.9015186	2.7234	81.36	-0.23856	0.03214	0.2707	1446.568	0.153579	-422.51412	-422.503579	-422.502635	-422.551368	36.437
 OpenBabel02181911403D

 19 19  0  0  1  0  0  0  0  0999 V2000
    1.5098    0.0561    0.0488 C   0  0  0  0  0  0  0  0  0  0  0  0
    0.0549    0.0206    0.0268 C   0  0  0  0  0  0  0  0  0  0  0  0
   -1.1491   -0.0247    0.0116 C   0  0  0  0  0  0  0  0  0  0  0  0
   -2.6043   -0.0478   -0.0238 C   0  0  2  0  0  0  0  0  0  0  0  0
   -3.2242    0.2754    1.3317 C   0  0  0  0  0  0  0  0  0  0  0  0
   -3.1187   -1.3152   -0.5430 O   0  0  0  0  0  0  0  0  0  0  0  0
   -3.8639   -0.6601   -1.5874 C   0  0  0  0  0  0  0  0  0  0  0  0
   -3.2545    0.7032   -1.2497 C   0  0  1  0  0  0  0  0  0  0  0  0
   -4.2164    1.6907   -0.9937 O   0  0  0  0  0  0  0  0  0  0  0  0
    1.8937    0.1098    1.0734 H   0  0  0  0  0  0  0  0  0  0  0  0
    1.9309   -0.8415   -0.4173 H   0  0  0  0  0  0  0  0  0  0  0  0
    1.8962    0.9239   -0.4974 H   0  0  0  0  0  0  0  0  0  0  0  0
   -2.9420   -0.4967    2.0521 H   0  0  0  0  0  0  0  0  0  0  0  0
   -2.8651    1.2407    1.7017 H   0  0  0  0  0  0  0  0  0  0  0  0
   -4.3122    0.3146    1.2507 H   0  0  0  0  0  0  0  0  0  0  0  0
   -3.6386   -1.0708   -2.5773 H   0  0  0  0  0  0  0  0  0  0  0  0
   -4.9469   -0.6925   -1.4143 H   0  0  0  0  0  0  0  0  0  0  0  0
   -2.4978    1.0433   -1.9645 H   0  0  0  0  0  0  0  0  0  0  0  0
   -3.7667    2.5306   -0.8579 H   0  0  0  0  0  0  0  0  0  0  0  0
  1 10  1  0  0  0  0
  2  1  1  0  0  0  0
  3  2  3  0  0  0  0
  4  3  1  1  0  0  0
  4  5  1  0  0  0  0
  5 14  1  0  0  0  0
  5 13  1  0  0  0  0
  6  4  1  0  0  0  0
  7 17  1  0  0  0  0
  7  8  1  0  0  0  0
  7  6  1  0  0  0  0
  8 18  1  6  0  0  0
  8  9  1  0  0  0  0
  8  4  1  0  0  0  0
  9 19  1  0  0  0  0
 11  1  1  0  0  0  0
 12  1  1  0  0  0  0
 15  5  1  0  0  0  0
 16  7  1  0  0  0  0
M TOR 0 0 1 2 3
M TOR 1 1 2 3 4
M TOR 2 1 2 3 5
M TOR 3 1 2 3 7
M TOR 4 2 1 0 9
M TOR 5 2 1 0 10
M TOR 6 2 1 0 11
M TOR 7 2 3 4 12
M TOR 8 2 3 4 13
M TOR 9 2 3 4 14
M TOR 10 2 3 5 6
M TOR 11 2 3 7 6
M TOR 12 2 3 7 8
M TOR 13 2 3 7 17
M TOR 14 3 5 6 7
M TOR 15 3 5 6 15
M TOR 16 3 5 6 16
M TOR 17 3 7 6 15
M TOR 18 3 7 6 16
M TOR 19 3 7 8 18
M TOR 20 4 3 5 6
M TOR 21 4 3 7 6
M TOR 22 4 3 7 8
M TOR 23 4 3 7 17
M TOR 24 5 3 4 12
M TOR 25 5 3 4 13
M TOR 26 5 3 4 14
M TOR 27 5 3 7 8
M TOR 28 5 3 7 17
M TOR 29 5 6 7 8
M TOR 30 5 6 7 17
M TOR 31 6 7 8 18
M TOR 32 7 3 4 12
M TOR 33 7 3 4 13
M TOR 34 7 3 4 14
M TOR 35 8 7 6 15
M TOR 36 8 7 6 16
M  END
$$$$
