
     RDKit          3D

 19 18  0  0  0  0  0  0  0  0999 V2000
    1.8648    2.6190    1.2719 C   0  0  0  0  0  0  0  0  0  0  0  0
    0.4056    2.6278    0.7998 C   0  0  0  0  0  0  0  0  0  0  0  0
   -0.4555    3.5468    1.6758 C   0  0  0  0  0  0  0  0  0  0  0  0
   -0.1726    1.1981    0.7871 C   0  0  0  0  0  0  0  0  0  0  0  0
    0.6706    0.3953   -0.0896 O   0  0  0  0  0  0  0  0  0  0  0  0
    0.8384   -0.8941    0.2482 C   0  0  0  0  0  0  0  0  0  0  0  0
    0.3773   -1.4495    1.2054 O   0  0  0  0  0  0  0  0  0  0  0  0
   -1.5491    1.1309    0.3050 C   0  0  0  0  0  0  0  0  0  0  0  0
   -2.6793    1.0863   -0.0996 C   0  0  0  0  0  0  0  0  0  0  0  0
    1.9416    2.2497    2.3016 H   0  0  0  0  0  0  0  0  0  0  0  0
    2.4899    1.9887    0.6360 H   0  0  0  0  0  0  0  0  0  0  0  0
    2.2737    3.6337    1.2531 H   0  0  0  0  0  0  0  0  0  0  0  0
    0.3700    2.9924   -0.2343 H   0  0  0  0  0  0  0  0  0  0  0  0
   -0.4595    3.2058    2.7178 H   0  0  0  0  0  0  0  0  0  0  0  0
   -0.0534    4.5641    1.6625 H   0  0  0  0  0  0  0  0  0  0  0  0
   -1.4904    3.5832    1.3277 H   0  0  0  0  0  0  0  0  0  0  0  0
   -0.1169    0.7605    1.7898 H   0  0  0  0  0  0  0  0  0  0  0  0
    1.4872   -1.3653   -0.5063 H   0  0  0  0  0  0  0  0  0  0  0  0
   -3.6811    1.0351   -0.4491 H   0  0  0  0  0  0  0  0  0  0  0  0
  1  2  1  0
  2  3  1  0
  2  4  1  0
  4  5  1  0
  5  6  1  0
  6  7  2  0
  4  8  1  0
  8  9  3  0
  1 10  1  0
  1 11  1  0
  1 12  1  0
  2 13  1  0
  3 14  1  0
  3 15  1  0
  3 16  1  0
  4 17  1  0
  6 18  1  0
  9 19  1  0
M  END
$$$$
