gdb 3143	2.8114701	1.570821	1.3381141	2.5849	74.55	-0.25236	0.06338	0.31573999999999997	1029.7404	0.15758	-422.513245	-422.50529	-422.504346	-422.545817	30.822
 OpenBabel02181911413D

 19 21  0  0  1  0  0  0  0  0999 V2000
    0.5543   -0.1103    0.4204 O   0  0  0  0  0  0  0  0  0  0  0  0
   -0.6789    0.5453    0.3011 C   0  0  1  0  0  0  0  0  0  0  0  0
   -1.9734   -0.2779    0.3738 C   0  0  1  0  0  0  0  0  0  0  0  0
   -2.0785   -0.9493    1.7059 C   0  0  0  0  0  0  0  0  0  0  0  0
   -2.4119    0.5177    1.6213 C   0  0  1  0  0  0  0  0  0  0  0  0
   -1.1340    1.3283    1.5790 C   0  0  2  0  0  0  0  0  0  0  0  0
   -1.0814    2.8637    1.6368 C   0  0  0  0  0  0  0  0  0  0  0  0
   -0.0006    2.6526    2.7136 C   0  0  0  0  0  0  0  0  0  0  0  0
   -0.2054    1.2184    2.6911 O   0  0  0  0  0  0  0  0  0  0  0  0
    0.8323    0.0326    1.3378 H   0  0  0  0  0  0  0  0  0  0  0  0
   -0.6646    1.1928   -0.5844 H   0  0  0  0  0  0  0  0  0  0  0  0
   -2.5741   -0.5744   -0.4767 H   0  0  0  0  0  0  0  0  0  0  0  0
   -2.9338   -1.6040    1.8350 H   0  0  0  0  0  0  0  0  0  0  0  0
   -1.1835   -1.2761    2.2258 H   0  0  0  0  0  0  0  0  0  0  0  0
   -3.3895    0.9047    1.8835 H   0  0  0  0  0  0  0  0  0  0  0  0
   -0.7665    3.3627    0.7186 H   0  0  0  0  0  0  0  0  0  0  0  0
   -1.9989    3.3275    2.0047 H   0  0  0  0  0  0  0  0  0  0  0  0
    1.0188    2.9213    2.4146 H   0  0  0  0  0  0  0  0  0  0  0  0
   -0.2079    3.0703    3.7039 H   0  0  0  0  0  0  0  0  0  0  0  0
  1 10  1  0  0  0  0
  2 11  1  6  0  0  0
  2  3  1  0  0  0  0
  2  1  1  0  0  0  0
  2  6  1  0  0  0  0
  3 12  1  6  0  0  0
  3  5  1  0  0  0  0
  3  4  1  0  0  0  0
  4 13  1  0  0  0  0
  4 14  1  0  0  0  0
  5  4  1  0  0  0  0
  5 15  1  1  0  0  0
  6  5  1  0  0  0  0
  6  7  1  0  0  0  0
  6  9  1  1  0  0  0
  7 17  1  0  0  0  0
  7  8  1  0  0  0  0
  8 19  1  0  0  0  0
  9  8  1  0  0  0  0
 16  7  1  0  0  0  0
 18  8  1  0  0  0  0
M TOR 0 0 1 2 3
M TOR 1 0 1 2 4
M TOR 2 0 1 2 11
M TOR 3 0 1 5 4
M TOR 4 0 1 5 6
M TOR 5 0 1 5 8
M TOR 6 1 2 3 4
M TOR 7 1 2 3 12
M TOR 8 1 2 3 13
M TOR 9 1 2 4 5
M TOR 10 1 2 4 14
M TOR 11 1 5 4 3
M TOR 12 1 5 4 14
M TOR 13 1 5 6 7
M TOR 14 1 5 6 15
M TOR 15 1 5 6 16
M TOR 16 1 5 8 7
M TOR 17 2 1 0 9
M TOR 18 2 1 5 6
M TOR 19 2 1 5 8
M TOR 20 2 3 4 5
M TOR 21 2 3 4 14
M TOR 22 2 4 3 12
M TOR 23 2 4 3 13
M TOR 24 2 4 5 6
M TOR 25 2 4 5 8
M TOR 26 3 2 1 5
M TOR 27 3 2 1 10
M TOR 28 3 4 2 11
M TOR 29 3 4 5 6
M TOR 30 3 4 5 8
M TOR 31 4 2 1 10
M TOR 32 4 5 1 10
M TOR 33 4 5 6 7
M TOR 34 4 5 6 15
M TOR 35 4 5 6 16
M TOR 36 4 5 8 7
M TOR 37 5 1 0 9
M TOR 38 5 1 2 11
M TOR 39 5 4 2 11
M TOR 40 5 4 3 12
M TOR 41 5 4 3 13
M TOR 42 5 6 7 8
M TOR 43 5 6 7 17
M TOR 44 5 6 7 18
M TOR 45 5 8 7 17
M TOR 46 5 8 7 18
M TOR 47 6 5 1 10
M TOR 48 6 5 4 14
M TOR 49 8 5 1 10
M TOR 50 8 5 4 14
M TOR 51 8 5 6 15
M TOR 52 8 5 6 16
M TOR 53 8 7 6 15
M TOR 54 8 7 6 16
M  END
$$$$
