
     RDKit          3D

 19 19  0  0  0  0  0  0  0  0999 V2000
    0.9678   -0.8619   -0.2620 O   0  0  0  0  0  0  0  0  0  0  0  0
    0.2741    0.0757    0.0263 C   0  0  0  0  0  0  0  0  0  0  0  0
    0.2921    1.4223   -0.7032 C   0  0  0  0  0  0  0  0  0  0  0  0
   -0.9270    2.0591   -0.3833 O   0  0  0  0  0  0  0  0  0  0  0  0
   -0.9092    3.4777   -0.4008 C   0  0  0  0  0  0  0  0  0  0  0  0
   -0.3601    4.0836   -1.6977 C   0  0  0  0  0  0  0  0  0  0  0  0
   -0.7569    3.2982   -2.9590 C   0  0  0  0  0  0  0  0  0  0  0  0
    0.0283    2.0198   -3.1444 C   0  0  0  0  0  0  0  0  0  0  0  0
    0.5208    1.2394   -2.1846 C   0  0  0  0  0  0  0  0  0  0  0  0
   -0.4418    0.0575    0.8764 H   0  0  0  0  0  0  0  0  0  0  0  0
    1.1424    1.9683   -0.2464 H   0  0  0  0  0  0  0  0  0  0  0  0
   -1.9570    3.7636   -0.2628 H   0  0  0  0  0  0  0  0  0  0  0  0
   -0.3422    3.8629    0.4626 H   0  0  0  0  0  0  0  0  0  0  0  0
   -0.7220    5.1165   -1.7635 H   0  0  0  0  0  0  0  0  0  0  0  0
    0.7336    4.1428   -1.6553 H   0  0  0  0  0  0  0  0  0  0  0  0
   -1.8347    3.0832   -2.9472 H   0  0  0  0  0  0  0  0  0  0  0  0
   -0.5914    3.9320   -3.8375 H   0  0  0  0  0  0  0  0  0  0  0  0
    0.2225    1.7321   -4.1755 H   0  0  0  0  0  0  0  0  0  0  0  0
    1.1054    0.3587   -2.4348 H   0  0  0  0  0  0  0  0  0  0  0  0
  1  2  2  0
  2  3  1  0
  3  4  1  0
  4  5  1  0
  5  6  1  0
  6  7  1  0
  7  8  1  0
  8  9  2  0
  9  3  1  0
  2 10  1  0
  3 11  1  0
  5 12  1  0
  5 13  1  0
  6 14  1  0
  6 15  1  0
  7 16  1  0
  7 17  1  0
  8 18  1  0
  9 19  1  0
M  END
$$$$
