
     RDKit          3D

 19 20  0  0  0  0  0  0  0  0999 V2000
    1.1107    0.8613    0.7584 O   0  0  0  0  0  0  0  0  0  0  0  0
    0.1474    0.1787    0.5362 C   0  0  0  0  0  0  0  0  0  0  0  0
   -1.0676    0.6040    0.1715 O   0  0  0  0  0  0  0  0  0  0  0  0
   -1.2396    2.0390    0.0319 C   0  0  0  0  0  0  0  0  0  0  0  0
   -1.6986    2.6460    1.3437 C   0  0  0  0  0  0  0  0  0  0  0  0
   -1.8316    4.1949    1.5046 C   0  0  0  0  0  0  0  0  0  0  0  0
   -1.8404    3.9414    3.0409 C   0  0  0  0  0  0  0  0  0  0  0  0
   -0.6959    3.0496    2.4758 C   0  0  0  0  0  0  0  0  0  0  0  0
   -0.2791    4.2769    1.6150 C   0  0  0  0  0  0  0  0  0  0  0  0
    0.1290   -0.9210    0.5958 H   0  0  0  0  0  0  0  0  0  0  0  0
   -0.3092    2.4653   -0.3428 H   0  0  0  0  0  0  0  0  0  0  0  0
   -2.0182    2.1423   -0.7287 H   0  0  0  0  0  0  0  0  0  0  0  0
   -2.5705    2.0866    1.7024 H   0  0  0  0  0  0  0  0  0  0  0  0
   -2.4943    4.8558    0.9427 H   0  0  0  0  0  0  0  0  0  0  0  0
   -1.5359    4.7815    3.6702 H   0  0  0  0  0  0  0  0  0  0  0  0
   -2.7136    3.4262    3.4512 H   0  0  0  0  0  0  0  0  0  0  0  0
   -0.0374    2.3840    3.0323 H   0  0  0  0  0  0  0  0  0  0  0  0
    0.1154    5.1347    2.1662 H   0  0  0  0  0  0  0  0  0  0  0  0
    0.3141    4.0918    0.7192 H   0  0  0  0  0  0  0  0  0  0  0  0
  1  2  2  0
  2  3  1  0
  3  4  1  0
  4  5  1  0
  5  6  1  0
  6  7  1  0
  7  8  1  0
  8  9  1  0
  8  5  1  0
  9  6  1  0
  2 10  1  0
  4 11  1  0
  4 12  1  0
  5 13  1  0
  6 14  1  0
  7 15  1  0
  7 16  1  0
  8 17  1  0
  9 18  1  0
  9 19  1  0
M  END
$$$$
