gdb 3267	2.6108958	1.9337871	1.4619168	2.2127	74.17	-0.23212	0.06503	0.29715	945.7545	0.158958	-422.536315	-422.529146	-422.528202	-422.567187	30.281
 OpenBabel02181911413D

 19 21  0  0  1  0  0  0  0  0999 V2000
    0.2800    0.4292   -0.0725 O   0  0  0  0  0  0  0  0  0  0  0  0
   -0.8789    0.5699    0.7486 C   0  0  2  0  0  0  0  0  0  0  0  0
   -2.0540   -0.2030    0.1126 C   0  0  1  0  0  0  0  0  0  0  0  0
   -3.1886    0.0970    1.1074 C   0  0  0  0  0  0  0  0  0  0  0  0
   -3.2018    1.6199    0.8311 C   0  0  2  0  0  0  0  0  0  0  0  0
   -3.6218    1.6572   -0.6677 C   0  0  0  0  0  0  0  0  0  0  0  0
   -2.2431    1.0449   -0.8842 C   0  0  2  0  0  0  0  0  0  0  0  0
   -1.6686    1.0128   -2.1381 O   0  0  0  0  0  0  0  0  0  0  0  0
   -1.6943    1.8193    0.3774 C   0  0  2  0  0  0  0  0  0  0  0  0
    0.8850    1.1478    0.1403 H   0  0  0  0  0  0  0  0  0  0  0  0
   -0.6362    0.3595    1.7992 H   0  0  0  0  0  0  0  0  0  0  0  0
   -1.9134   -1.2173   -0.2596 H   0  0  0  0  0  0  0  0  0  0  0  0
   -4.1400   -0.3787    0.8546 H   0  0  0  0  0  0  0  0  0  0  0  0
   -2.9299   -0.1715    2.1370 H   0  0  0  0  0  0  0  0  0  0  0  0
   -3.6673    2.2772    1.5629 H   0  0  0  0  0  0  0  0  0  0  0  0
   -4.5195    1.1064   -0.9669 H   0  0  0  0  0  0  0  0  0  0  0  0
   -3.6519    2.6737   -1.0704 H   0  0  0  0  0  0  0  0  0  0  0  0
   -0.7596    0.7107   -2.0036 H   0  0  0  0  0  0  0  0  0  0  0  0
   -1.2856    2.8296    0.3432 H   0  0  0  0  0  0  0  0  0  0  0  0
  1 10  1  0  0  0  0
  1  2  1  0  0  0  0
  2 11  1  1  0  0  0
  3 12  1  6  0  0  0
  3  2  1  0  0  0  0
  3  4  1  0  0  0  0
  4 14  1  0  0  0  0
  5  4  1  0  0  0  0
  5 15  1  1  0  0  0
  6  5  1  0  0  0  0
  7  8  1  6  0  0  0
  7  6  1  0  0  0  0
  7  3  1  0  0  0  0
  7  9  1  0  0  0  0
  8 18  1  0  0  0  0
  9 19  1  6  0  0  0
  9  2  1  0  0  0  0
  9  5  1  0  0  0  0
 13  4  1  0  0  0  0
 16  6  1  0  0  0  0
 17  6  1  0  0  0  0
M TOR 0 0 1 2 3
M TOR 1 0 1 2 6
M TOR 2 0 1 2 11
M TOR 3 0 1 8 4
M TOR 4 0 1 8 6
M TOR 5 0 1 8 18
M TOR 6 1 2 3 4
M TOR 7 1 2 3 12
M TOR 8 1 2 3 13
M TOR 9 1 2 6 5
M TOR 10 1 2 6 7
M TOR 11 1 2 6 8
M TOR 12 1 8 4 3
M TOR 13 1 8 4 5
M TOR 14 1 8 4 14
M TOR 15 1 8 6 5
M TOR 16 1 8 6 7
M TOR 17 2 1 0 9
M TOR 18 2 1 8 4
M TOR 19 2 1 8 18
M TOR 20 2 3 4 5
M TOR 21 2 3 4 8
M TOR 22 2 3 4 14
M TOR 23 2 6 5 4
M TOR 24 2 6 5 15
M TOR 25 2 6 5 16
M TOR 26 2 6 7 17
M TOR 27 2 6 8 4
M TOR 28 2 6 8 18
M TOR 29 3 2 1 8
M TOR 30 3 2 1 10
M TOR 31 3 2 6 5
M TOR 32 3 2 6 7
M TOR 33 3 2 6 8
M TOR 34 3 4 5 6
M TOR 35 3 4 5 15
M TOR 36 3 4 5 16
M TOR 37 3 4 8 6
M TOR 38 3 4 8 18
M TOR 39 4 3 2 6
M TOR 40 4 3 2 11
M TOR 41 4 5 6 7
M TOR 42 4 5 6 8
M TOR 43 4 8 1 10
M TOR 44 4 8 6 7
M TOR 45 5 4 3 12
M TOR 46 5 4 3 13
M TOR 47 5 4 8 18
M TOR 48 5 6 2 11
M TOR 49 5 6 7 17
M TOR 50 5 6 8 18
M TOR 51 6 2 1 10
M TOR 52 6 2 3 12
M TOR 53 6 2 3 13
M TOR 54 6 5 4 14
M TOR 55 6 8 1 10
M TOR 56 6 8 4 14
M TOR 57 7 6 2 11
M TOR 58 7 6 5 15
M TOR 59 7 6 5 16
M TOR 60 7 6 8 18
M TOR 61 8 1 0 9
M TOR 62 8 1 2 11
M TOR 63 8 4 3 12
M TOR 64 8 4 3 13
M TOR 65 8 4 5 15
M TOR 66 8 4 5 16
M TOR 67 8 6 2 11
M TOR 68 8 6 5 15
M TOR 69 8 6 5 16
M TOR 70 8 6 7 17
M  END
$$$$
