gdb 2546	3.9685884	1.0865977	0.9861747	3.1025	79.01	-0.23303	0.01226	0.24528999999999998	1261.2221	0.156306	-422.541178	-422.532559	-422.531615	-422.574836	31.551
 OpenBabel02181911413D

 19 20  0  0  0  0  0  0  0  0999 V2000
    1.4410   -0.2474   -0.2032 C   0  0  0  0  0  0  0  0  0  0  0  0
    0.0520    0.2980   -0.1466 C   0  0  0  0  0  0  0  0  0  0  0  0
   -1.1062   -0.3475   -0.0292 C   0  0  0  0  0  0  0  0  0  0  0  0
   -2.2501    0.6156   -0.0155 C   0  0  0  0  0  0  0  0  0  0  0  0
   -3.3195    0.4756    1.1033 C   0  0  0  0  0  0  0  0  0  0  0  0
   -4.3048    0.0171    0.1576 O   0  0  0  0  0  0  0  0  0  0  0  0
   -3.4549    0.3440   -0.9587 C   0  0  0  0  0  0  0  0  0  0  0  0
   -1.6530    1.8957   -0.1365 O   0  0  0  0  0  0  0  0  0  0  0  0
   -0.2367    1.7759   -0.2221 C   0  0  0  0  0  0  0  0  0  0  0  0
    2.0561    0.1505    0.6136 H   0  0  0  0  0  0  0  0  0  0  0  0
    1.4471   -1.3378   -0.1333 H   0  0  0  0  0  0  0  0  0  0  0  0
    1.9405    0.0377   -1.1375 H   0  0  0  0  0  0  0  0  0  0  0  0
   -1.2467   -1.4186    0.0485 H   0  0  0  0  0  0  0  0  0  0  0  0
   -3.1289   -0.2585    1.8947 H   0  0  0  0  0  0  0  0  0  0  0  0
   -3.5811    1.4444    1.5481 H   0  0  0  0  0  0  0  0  0  0  0  0
   -3.3630   -0.4860   -1.6688 H   0  0  0  0  0  0  0  0  0  0  0  0
   -3.7803    1.2508   -1.4847 H   0  0  0  0  0  0  0  0  0  0  0  0
    0.1213    2.2223   -1.1634 H   0  0  0  0  0  0  0  0  0  0  0  0
    0.2373    2.3350    0.6002 H   0  0  0  0  0  0  0  0  0  0  0  0
  1  2  1  0  0  0  0
  1 11  1  0  0  0  0
  1 10  1  0  0  0  0
  2  3  2  0  0  0  0
  3  4  1  0  0  0  0
  3 13  1  0  0  0  0
  4  5  1  0  0  0  0
  5 15  1  0  0  0  0
  5 14  1  0  0  0  0
  6  5  1  0  0  0  0
  7  4  1  0  0  0  0
  7  6  1  0  0  0  0
  8  4  1  0  0  0  0
  9  2  1  0  0  0  0
  9  8  1  0  0  0  0
  9 19  1  0  0  0  0
 12  1  1  0  0  0  0
 16  7  1  0  0  0  0
 17  7  1  0  0  0  0
 18  9  1  0  0  0  0
M TOR 0 0 1 2 3
M TOR 1 0 1 2 12
M TOR 2 0 1 8 7
M TOR 3 0 1 8 17
M TOR 4 0 1 8 18
M TOR 5 1 2 3 4
M TOR 6 1 2 3 6
M TOR 7 1 2 3 7
M TOR 8 1 8 7 3
M TOR 9 2 1 0 9
M TOR 10 2 1 0 10
M TOR 11 2 1 0 11
M TOR 12 2 1 8 7
M TOR 13 2 1 8 17
M TOR 14 2 1 8 18
M TOR 15 2 3 4 5
M TOR 16 2 3 4 13
M TOR 17 2 3 4 14
M TOR 18 2 3 6 5
M TOR 19 2 3 6 15
M TOR 20 2 3 6 16
M TOR 21 2 3 7 8
M TOR 22 3 2 1 8
M TOR 23 3 4 5 6
M TOR 24 3 7 8 17
M TOR 25 3 7 8 18
M TOR 26 4 3 2 12
M TOR 27 4 3 6 15
M TOR 28 4 3 6 16
M TOR 29 4 3 7 8
M TOR 30 4 5 6 15
M TOR 31 4 5 6 16
M TOR 32 5 4 3 7
M TOR 33 5 6 3 7
M TOR 34 6 3 2 12
M TOR 35 6 3 4 13
M TOR 36 6 3 4 14
M TOR 37 6 3 7 8
M TOR 38 6 5 4 13
M TOR 39 6 5 4 14
M TOR 40 7 3 2 12
M TOR 41 7 3 4 13
M TOR 42 7 3 4 14
M TOR 43 7 3 6 15
M TOR 44 7 3 6 16
M TOR 45 8 1 0 9
M TOR 46 8 1 0 10
M TOR 47 8 1 0 11
M TOR 48 8 1 2 12
M  END
$$$$
