
     RDKit          3D

 19 21  0  0  0  0  0  0  0  0999 V2000
   -0.0516    0.1604   -0.0288 C   0  0  0  0  0  0  0  0  0  0  0  0
    1.4264    0.0096   -0.1818 C   0  0  0  0  0  0  0  0  0  0  0  0
    2.2517    0.2343    0.9776 O   0  0  0  0  0  0  0  0  0  0  0  0
    2.5398    0.9780   -0.2110 C   0  0  0  0  0  0  0  0  0  0  0  0
    3.3728    0.0759   -1.1527 C   0  0  0  0  0  0  0  0  0  0  0  0
    3.7577    0.7870   -2.2881 O   0  0  0  0  0  0  0  0  0  0  0  0
    4.3306   -0.9563   -0.4913 C   0  0  0  0  0  0  0  0  0  0  0  0
    3.1573   -1.9842   -0.4011 C   0  0  0  0  0  0  0  0  0  0  0  0
    2.2019   -0.9755   -1.1037 C   0  0  0  0  0  0  0  0  0  0  0  0
   -0.2843    1.0425    0.5740 H   0  0  0  0  0  0  0  0  0  0  0  0
   -0.5330    0.2643   -1.0064 H   0  0  0  0  0  0  0  0  0  0  0  0
   -0.4827   -0.7167    0.4674 H   0  0  0  0  0  0  0  0  0  0  0  0
    2.5730    2.0606   -0.1380 H   0  0  0  0  0  0  0  0  0  0  0  0
    4.1259    0.1674   -2.9266 H   0  0  0  0  0  0  0  0  0  0  0  0
    5.1241   -1.2657   -1.1799 H   0  0  0  0  0  0  0  0  0  0  0  0
    4.7850   -0.6522    0.4537 H   0  0  0  0  0  0  0  0  0  0  0  0
    3.3243   -2.8972   -0.9769 H   0  0  0  0  0  0  0  0  0  0  0  0
    2.8664   -2.2520    0.6150 H   0  0  0  0  0  0  0  0  0  0  0  0
    1.6770   -1.2792   -2.0102 H   0  0  0  0  0  0  0  0  0  0  0  0
  1  2  1  0
  2  3  1  0
  3  4  1  0
  4  5  1  0
  5  6  1  0
  5  7  1  0
  7  8  1  0
  8  9  1  0
  4  2  1  0
  9  5  1  0
  9  2  1  0
  1 10  1  0
  1 11  1  0
  1 12  1  0
  4 13  1  0
  6 14  1  0
  7 15  1  0
  7 16  1  0
  8 17  1  0
  8 18  1  0
  9 19  1  0
M  END
$$$$
