gdb 5230	2.6154285	1.7059014	1.2930781	1.5013	74.94	-0.21496	0.07339	0.28835	1035.1321	0.156267	-422.489411	-422.481063	-422.480118	-422.522007	32.334
 OpenBabel02181911423D

 19 21  0  0  1  0  0  0  0  0999 V2000
    1.5423   -0.1333    0.1964 C   0  0  0  0  0  0  0  0  0  0  0  0
    0.1179   -0.1233    0.2088 O   0  0  0  0  0  0  0  0  0  0  0  0
   -0.4019    0.7235    1.1687 C   0  0  2  0  0  0  0  0  0  0  0  0
   -0.2812    2.2356    1.3096 C   0  0  0  0  0  0  0  0  0  0  0  0
   -1.4278    2.0719    2.3538 C   0  0  2  0  0  0  0  0  0  0  0  0
   -0.7939    1.2782    3.5412 C   0  0  0  0  0  0  0  0  0  0  0  0
   -0.7199    0.1307    2.5577 C   0  0  2  0  0  0  0  0  0  0  0  0
   -0.3989   -1.1753    2.8550 O   0  0  0  0  0  0  0  0  0  0  0  0
   -1.8249    0.6954    1.6771 C   0  0  2  0  0  0  0  0  0  0  0  0
    1.9518   -0.4223    1.1733 H   0  0  0  0  0  0  0  0  0  0  0  0
    1.8476   -0.8625   -0.5568 H   0  0  0  0  0  0  0  0  0  0  0  0
    1.9436    0.8514   -0.0764 H   0  0  0  0  0  0  0  0  0  0  0  0
    0.6598    2.6762    1.6590 H   0  0  0  0  0  0  0  0  0  0  0  0
   -0.6273    2.7521    0.4091 H   0  0  0  0  0  0  0  0  0  0  0  0
   -2.1184    2.8883    2.5445 H   0  0  0  0  0  0  0  0  0  0  0  0
    0.1356    1.6663    3.9747 H   0  0  0  0  0  0  0  0  0  0  0  0
   -1.5241    1.0888    4.3334 H   0  0  0  0  0  0  0  0  0  0  0  0
   -0.1701   -1.6040    2.0192 H   0  0  0  0  0  0  0  0  0  0  0  0
   -2.7420    0.3040    1.2623 H   0  0  0  0  0  0  0  0  0  0  0  0
  1  2  1  0  0  0  0
  1 10  1  0  0  0  0
  3  2  1  6  0  0  0
  3  4  1  0  0  0  0
  3  9  1  0  0  0  0
  3  7  1  0  0  0  0
  4 13  1  0  0  0  0
  4  5  1  0  0  0  0
  5 15  1  1  0  0  0
  5  6  1  0  0  0  0
  6 16  1  0  0  0  0
  6 17  1  0  0  0  0
  7  8  1  1  0  0  0
  7  6  1  0  0  0  0
  9 19  1  6  0  0  0
  9  5  1  0  0  0  0
  9  7  1  0  0  0  0
 11  1  1  0  0  0  0
 12  1  1  0  0  0  0
 14  4  1  0  0  0  0
 18  8  1  0  0  0  0
M TOR 0 0 1 2 3
M TOR 1 0 1 2 6
M TOR 2 0 1 2 8
M TOR 3 1 2 3 4
M TOR 4 1 2 3 12
M TOR 5 1 2 3 13
M TOR 6 1 2 6 5
M TOR 7 1 2 6 7
M TOR 8 1 2 6 8
M TOR 9 1 2 8 4
M TOR 10 1 2 8 18
M TOR 11 2 1 0 9
M TOR 12 2 1 0 10
M TOR 13 2 1 0 11
M TOR 14 2 3 4 5
M TOR 15 2 3 4 8
M TOR 16 2 3 4 14
M TOR 17 2 6 5 4
M TOR 18 2 6 5 15
M TOR 19 2 6 5 16
M TOR 20 2 6 7 17
M TOR 21 2 6 8 4
M TOR 22 2 6 8 18
M TOR 23 2 8 4 5
M TOR 24 2 8 4 14
M TOR 25 2 8 6 5
M TOR 26 2 8 6 7
M TOR 27 3 2 6 5
M TOR 28 3 2 6 7
M TOR 29 3 2 6 8
M TOR 30 3 2 8 18
M TOR 31 3 4 5 6
M TOR 32 3 4 5 15
M TOR 33 3 4 5 16
M TOR 34 3 4 8 6
M TOR 35 3 4 8 18
M TOR 36 4 3 2 6
M TOR 37 4 5 6 7
M TOR 38 4 5 6 8
M TOR 39 4 8 6 7
M TOR 40 5 4 3 12
M TOR 41 5 4 3 13
M TOR 42 5 4 8 18
M TOR 43 5 6 7 17
M TOR 44 5 6 8 18
M TOR 45 6 2 3 12
M TOR 46 6 2 3 13
M TOR 47 6 5 4 14
M TOR 48 6 8 4 14
M TOR 49 7 6 5 15
M TOR 50 7 6 5 16
M TOR 51 7 6 8 18
M TOR 52 8 2 3 12
M TOR 53 8 2 3 13
M TOR 54 8 4 3 12
M TOR 55 8 4 3 13
M TOR 56 8 4 5 15
M TOR 57 8 4 5 16
M TOR 58 8 6 5 15
M TOR 59 8 6 5 16
M TOR 60 8 6 7 17
M  END
$$$$
