gdb 2255	2.7079383	1.859441	1.6448767	1.6551	73.53	-0.22987	0.06744	0.29730999999999996	913.3216	0.158912	-422.534057	-422.526938	-422.525993	-422.564926	29.601
 OpenBabel02181911413D

 19 21  0  0  1  0  0  0  0  0999 V2000
    0.2525    0.0338    0.5268 O   0  0  0  0  0  0  0  0  0  0  0  0
   -0.6331    1.1039    0.6233 C   0  0  2  0  0  0  0  0  0  0  0  0
   -1.8954    1.0466   -0.2223 C   0  0  0  0  0  0  0  0  0  0  0  0
   -2.5022    2.0374    0.8164 C   0  0  2  0  0  0  0  0  0  0  0  0
   -2.1640    3.4590    0.3686 C   0  0  0  0  0  0  0  0  0  0  0  0
   -0.7909    3.5058   -0.0329 O   0  0  0  0  0  0  0  0  0  0  0  0
   -0.0231    2.5732    0.7074 C   0  0  1  0  0  0  0  0  0  0  0  0
   -0.3828    2.6037    2.2216 C   0  0  0  0  0  0  0  0  0  0  0  0
   -1.4487    1.5441    1.8939 C   0  0  2  0  0  0  0  0  0  0  0  0
    1.0213    0.2052    1.0809 H   0  0  0  0  0  0  0  0  0  0  0  0
   -1.8427    1.3698   -1.2658 H   0  0  0  0  0  0  0  0  0  0  0  0
   -2.3473    0.0530   -0.1584 H   0  0  0  0  0  0  0  0  0  0  0  0
   -3.5570    1.9289    1.0725 H   0  0  0  0  0  0  0  0  0  0  0  0
   -2.7564    3.7567   -0.5030 H   0  0  0  0  0  0  0  0  0  0  0  0
   -2.3558    4.1860    1.1710 H   0  0  0  0  0  0  0  0  0  0  0  0
    1.0175    2.6949    0.3959 H   0  0  0  0  0  0  0  0  0  0  0  0
    0.4164    2.1781    2.8376 H   0  0  0  0  0  0  0  0  0  0  0  0
   -0.6723    3.5695    2.6447 H   0  0  0  0  0  0  0  0  0  0  0  0
   -1.8301    0.8549    2.6485 H   0  0  0  0  0  0  0  0  0  0  0  0
  1 10  1  0  0  0  0
  2  1  1  1  0  0  0
  2  7  1  0  0  0  0
  2  9  1  0  0  0  0
  3 12  1  0  0  0  0
  3  2  1  0  0  0  0
  3  4  1  0  0  0  0
  4 13  1  1  0  0  0
  4  9  1  0  0  0  0
  5  4  1  0  0  0  0
  5 15  1  0  0  0  0
  6  5  1  0  0  0  0
  6  7  1  0  0  0  0
  7 16  1  6  0  0  0
  7  8  1  0  0  0  0
  8 18  1  0  0  0  0
  8 17  1  0  0  0  0
  9  8  1  0  0  0  0
  9 19  1  1  0  0  0
 11  3  1  0  0  0  0
 14  5  1  0  0  0  0
M TOR 0 0 1 2 3
M TOR 1 0 1 2 10
M TOR 2 0 1 2 11
M TOR 3 0 1 6 5
M TOR 4 0 1 6 7
M TOR 5 0 1 6 15
M TOR 6 0 1 8 3
M TOR 7 0 1 8 7
M TOR 8 0 1 8 18
M TOR 9 1 2 3 4
M TOR 10 1 2 3 8
M TOR 11 1 2 3 12
M TOR 12 1 6 5 4
M TOR 13 1 6 7 8
M TOR 14 1 6 7 16
M TOR 15 1 6 7 17
M TOR 16 1 8 3 4
M TOR 17 1 8 3 12
M TOR 18 1 8 7 16
M TOR 19 1 8 7 17
M TOR 20 2 1 0 9
M TOR 21 2 1 6 5
M TOR 22 2 1 6 7
M TOR 23 2 1 6 15
M TOR 24 2 1 8 7
M TOR 25 2 1 8 18
M TOR 26 2 3 4 5
M TOR 27 2 3 4 13
M TOR 28 2 3 4 14
M TOR 29 2 3 8 7
M TOR 30 2 3 8 18
M TOR 31 3 2 1 6
M TOR 32 3 4 5 6
M TOR 33 3 8 1 6
M TOR 34 3 8 7 6
M TOR 35 3 8 7 16
M TOR 36 3 8 7 17
M TOR 37 4 3 2 10
M TOR 38 4 3 2 11
M TOR 39 4 3 8 7
M TOR 40 4 3 8 18
M TOR 41 4 5 6 7
M TOR 42 4 5 6 15
M TOR 43 5 4 3 8
M TOR 44 5 4 3 12
M TOR 45 5 6 1 8
M TOR 46 5 6 7 8
M TOR 47 5 6 7 16
M TOR 48 5 6 7 17
M TOR 49 6 1 0 9
M TOR 50 6 1 2 10
M TOR 51 6 1 2 11
M TOR 52 6 1 8 18
M TOR 53 6 5 4 13
M TOR 54 6 5 4 14
M TOR 55 6 7 8 18
M TOR 56 7 8 3 12
M TOR 57 8 1 0 9
M TOR 58 8 1 2 10
M TOR 59 8 1 2 11
M TOR 60 8 1 6 15
M TOR 61 8 3 2 10
M TOR 62 8 3 2 11
M TOR 63 8 3 4 13
M TOR 64 8 3 4 14
M TOR 65 8 7 6 15
M  END
$$$$
