gdb 987	7.8141397	0.4532722	0.4329956	1.8534	79.63	-0.26528	0.00808	0.27336	2378.0646	0.154341	-422.550973	-422.540522	-422.539578	-422.588255	35.429
 OpenBabel02181911403D

 19 18  0  0  0  0  0  0  0  0999 V2000
    6.7169    1.0296    5.0684 O   0  0  0  0  0  0  0  0  0  0  0  0
    7.2187    0.9492    3.9810 C   0  0  0  0  0  0  0  0  0  0  0  0
    6.5700    0.7586    2.8258 O   0  0  0  0  0  0  0  0  0  0  0  0
    5.1337    0.6420    2.9230 C   0  0  0  0  0  0  0  0  0  0  0  0
    4.5921    0.4328    1.5188 C   0  0  0  0  0  0  0  0  0  0  0  0
    3.0665    0.2958    1.5085 C   0  0  0  0  0  0  0  0  0  0  0  0
    2.5108    0.0832    0.0858 C   0  0  0  0  0  0  0  0  0  0  0  0
    1.0596   -0.0493    0.0569 C   0  0  0  0  0  0  0  0  0  0  0  0
   -0.1376   -0.1553    0.0610 C   0  0  0  0  0  0  0  0  0  0  0  0
    8.2977    1.0212    3.7727 H   0  0  0  0  0  0  0  0  0  0  0  0
    4.8900   -0.1958    3.5846 H   0  0  0  0  0  0  0  0  0  0  0  0
    4.7347    1.5515    3.3841 H   0  0  0  0  0  0  0  0  0  0  0  0
    4.8993    1.2765    0.8889 H   0  0  0  0  0  0  0  0  0  0  0  0
    5.0541   -0.4642    1.0886 H   0  0  0  0  0  0  0  0  0  0  0  0
    2.7585   -0.5460    2.1394 H   0  0  0  0  0  0  0  0  0  0  0  0
    2.6039    1.1910    1.9401 H   0  0  0  0  0  0  0  0  0  0  0  0
    2.8148    0.9228   -0.5531 H   0  0  0  0  0  0  0  0  0  0  0  0
    2.9692   -0.8124   -0.3541 H   0  0  0  0  0  0  0  0  0  0  0  0
   -1.1950   -0.2503    0.0522 H   0  0  0  0  0  0  0  0  0  0  0  0
  2  1  2  0  0  0  0
  3  4  1  0  0  0  0
  3  2  1  0  0  0  0
  4 12  1  0  0  0  0
  4 11  1  0  0  0  0
  5  4  1  0  0  0  0
  6  5  1  0  0  0  0
  6 16  1  0  0  0  0
  6 15  1  0  0  0  0
  7  6  1  0  0  0  0
  8  9  3  0  0  0  0
  8  7  1  0  0  0  0
 10  2  1  0  0  0  0
 13  5  1  0  0  0  0
 14  5  1  0  0  0  0
 17  7  1  0  0  0  0
 18  7  1  0  0  0  0
 19  9  1  0  0  0  0
M TOR 0 0 1 2 3
M TOR 1 1 2 3 4
M TOR 2 1 2 3 10
M TOR 3 1 2 3 11
M TOR 4 2 3 4 5
M TOR 5 2 3 4 12
M TOR 6 2 3 4 13
M TOR 7 3 2 1 9
M TOR 8 3 4 5 6
M TOR 9 3 4 5 14
M TOR 10 3 4 5 15
M TOR 11 4 5 6 7
M TOR 12 4 5 6 16
M TOR 13 4 5 6 17
M TOR 14 5 4 3 10
M TOR 15 5 4 3 11
M TOR 16 5 6 7 8
M TOR 17 6 5 4 12
M TOR 18 6 5 4 13
M TOR 19 6 7 8 18
M TOR 20 7 6 5 14
M TOR 21 7 6 5 15
M TOR 22 8 7 6 16
M TOR 23 8 7 6 17
M  END
$$$$
