gdb 2132	3.7983149	1.4748876	1.3315226	1.1431	75.34	-0.24097	0.05802	0.29899	1012.8086	0.157517	-422.485197	-422.477862	-422.476918	-422.516319	30.214
 OpenBabel02181911403D

 19 21  0  0  1  0  0  0  0  0999 V2000
   -0.0740   -0.0072    0.2539 C   0  0  0  0  0  0  0  0  0  0  0  0
    1.3717   -0.0153   -0.1485 C   0  0  2  0  0  0  0  0  0  0  0  0
    2.5427    0.5110    0.7066 C   0  0  0  0  0  0  0  0  0  0  0  0
    3.2446    0.3633   -0.6728 C   0  0  1  0  0  0  0  0  0  0  0  0
    1.9525    0.9003   -1.3292 C   0  0  0  0  0  0  0  0  0  0  0  0
    4.6774    0.3037   -0.7806 O   0  0  0  0  0  0  0  0  0  0  0  0
    4.5895   -1.1295   -0.4371 C   0  0  0  0  0  0  0  0  0  0  0  0
    3.1130   -1.1018   -0.9540 C   0  0  1  0  0  0  0  0  0  0  0  0
    1.8294   -1.3937   -0.4071 O   0  0  0  0  0  0  0  0  0  0  0  0
   -0.2231   -0.6312    1.1403 H   0  0  0  0  0  0  0  0  0  0  0  0
   -0.4018    1.0099    0.4848 H   0  0  0  0  0  0  0  0  0  0  0  0
   -0.7013   -0.4020   -0.5507 H   0  0  0  0  0  0  0  0  0  0  0  0
    2.4405    1.5545    1.0106 H   0  0  0  0  0  0  0  0  0  0  0  0
    2.8549   -0.1205    1.5396 H   0  0  0  0  0  0  0  0  0  0  0  0
    1.7036    1.9476   -1.1481 H   0  0  0  0  0  0  0  0  0  0  0  0
    1.7507    0.6136   -2.3632 H   0  0  0  0  0  0  0  0  0  0  0  0
    5.3056   -1.7185   -1.0140 H   0  0  0  0  0  0  0  0  0  0  0  0
    4.7263   -1.2909    0.6364 H   0  0  0  0  0  0  0  0  0  0  0  0
    3.1257   -1.3514   -2.0201 H   0  0  0  0  0  0  0  0  0  0  0  0
  1 11  1  0  0  0  0
  1 10  1  0  0  0  0
  2  1  1  1  0  0  0
  2  3  1  0  0  0  0
  3 13  1  0  0  0  0
  3 14  1  0  0  0  0
  4  6  1  6  0  0  0
  4  3  1  0  0  0  0
  5 15  1  0  0  0  0
  5  4  1  0  0  0  0
  5  2  1  0  0  0  0
  6  7  1  0  0  0  0
  7 18  1  0  0  0  0
  8 19  1  6  0  0  0
  8  4  1  0  0  0  0
  8  7  1  0  0  0  0
  8  9  1  0  0  0  0
  9  2  1  0  0  0  0
 12  1  1  0  0  0  0
 16  5  1  0  0  0  0
 17  7  1  0  0  0  0
M TOR 0 0 1 2 3
M TOR 1 0 1 2 12
M TOR 2 0 1 2 13
M TOR 3 0 1 4 3
M TOR 4 0 1 4 14
M TOR 5 0 1 4 15
M TOR 6 0 1 8 7
M TOR 7 1 2 3 4
M TOR 8 1 2 3 5
M TOR 9 1 2 3 7
M TOR 10 1 4 3 5
M TOR 11 1 4 3 7
M TOR 12 1 8 7 3
M TOR 13 1 8 7 6
M TOR 14 1 8 7 18
M TOR 15 2 1 0 9
M TOR 16 2 1 0 10
M TOR 17 2 1 0 11
M TOR 18 2 1 4 14
M TOR 19 2 1 4 15
M TOR 20 2 1 8 7
M TOR 21 2 3 4 14
M TOR 22 2 3 4 15
M TOR 23 2 3 5 6
M TOR 24 2 3 7 6
M TOR 25 2 3 7 8
M TOR 26 2 3 7 18
M TOR 27 3 2 1 8
M TOR 28 3 4 1 8
M TOR 29 3 5 6 7
M TOR 30 3 5 6 16
M TOR 31 3 5 6 17
M TOR 32 3 7 6 16
M TOR 33 3 7 6 17
M TOR 34 4 1 0 9
M TOR 35 4 1 0 10
M TOR 36 4 1 0 11
M TOR 37 4 1 2 12
M TOR 38 4 1 2 13
M TOR 39 4 1 8 7
M TOR 40 4 3 2 12
M TOR 41 4 3 2 13
M TOR 42 4 3 5 6
M TOR 43 4 3 7 6
M TOR 44 4 3 7 8
M TOR 45 4 3 7 18
M TOR 46 5 3 2 12
M TOR 47 5 3 2 13
M TOR 48 5 3 4 14
M TOR 49 5 3 4 15
M TOR 50 5 3 7 8
M TOR 51 5 3 7 18
M TOR 52 5 6 7 8
M TOR 53 5 6 7 18
M TOR 54 7 3 2 12
M TOR 55 7 3 2 13
M TOR 56 7 3 4 14
M TOR 57 7 3 4 15
M TOR 58 8 1 0 9
M TOR 59 8 1 0 10
M TOR 60 8 1 0 11
M TOR 61 8 1 2 12
M TOR 62 8 1 2 13
M TOR 63 8 1 4 14
M TOR 64 8 1 4 15
M TOR 65 8 7 6 16
M TOR 66 8 7 6 17
M  END
$$$$
