
     RDKit          3D

 19 21  0  0  0  0  0  0  0  0999 V2000
   -0.7038    2.6329    0.1378 O   0  0  0  0  0  0  0  0  0  0  0  0
    0.1514    1.6006   -0.2234 C   0  0  0  0  0  0  0  0  0  0  0  0
    1.2901    1.0149    0.6812 C   0  0  0  0  0  0  0  0  0  0  0  0
    1.3055   -0.1416   -0.2348 O   0  0  0  0  0  0  0  0  0  0  0  0
   -0.1268    0.0881    0.0490 C   0  0  0  0  0  0  0  0  0  0  0  0
    0.2503    0.2419    1.5533 C   0  0  0  0  0  0  0  0  0  0  0  0
   -0.6577    0.8896    2.5829 C   0  0  0  0  0  0  0  0  0  0  0  0
   -0.1957    0.9975    4.0138 C   0  0  0  0  0  0  0  0  0  0  0  0
   -0.3597    2.2508    3.2000 C   0  0  0  0  0  0  0  0  0  0  0  0
   -0.9744    2.5091    1.0543 H   0  0  0  0  0  0  0  0  0  0  0  0
    0.4890    1.7838   -1.2444 H   0  0  0  0  0  0  0  0  0  0  0  0
    2.2550    1.4383    0.9655 H   0  0  0  0  0  0  0  0  0  0  0  0
   -0.8449   -0.5929   -0.4109 H   0  0  0  0  0  0  0  0  0  0  0  0
    0.6798   -0.6915    1.9292 H   0  0  0  0  0  0  0  0  0  0  0  0
   -1.7120    0.6520    2.4607 H   0  0  0  0  0  0  0  0  0  0  0  0
   -0.9105    0.7972    4.8038 H   0  0  0  0  0  0  0  0  0  0  0  0
    0.8166    0.6734    4.2336 H   0  0  0  0  0  0  0  0  0  0  0  0
   -1.1895    2.9110    3.4311 H   0  0  0  0  0  0  0  0  0  0  0  0
    0.5396    2.7658    2.8793 H   0  0  0  0  0  0  0  0  0  0  0  0
  1  2  1  0
  2  3  1  0
  3  4  1  0
  4  5  1  0
  5  6  1  0
  6  7  1  0
  7  8  1  0
  8  9  1  0
  5  2  1  0
  9  7  1  0
  6  3  1  0
  1 10  1  0
  2 11  1  0
  3 12  1  0
  5 13  1  0
  6 14  1  0
  7 15  1  0
  8 16  1  0
  8 17  1  0
  9 18  1  0
  9 19  1  0
M  END
$$$$
