gdb 1467	3.4747799	1.2403046	1.1640216	0.5512	76.04	-0.21837	0.06843	0.2868	1136.594	0.154559	-422.492599	-422.483921	-422.482976	-422.525247	33.909
 OpenBabel02181911403D

 19 21  0  0  1  0  0  0  0  0999 V2000
   -0.1209   -0.0415    0.0054 C   0  0  0  0  0  0  0  0  0  0  0  0
    1.3861   -0.0434   -0.0400 C   0  0  1  0  0  0  0  0  0  0  0  0
    2.0157   -0.7505    1.0012 O   0  0  0  0  0  0  0  0  0  0  0  0
    2.1829   -0.0619   -1.3196 C   0  0  1  0  0  0  0  0  0  0  0  0
    1.5364    0.6757   -2.3648 O   0  0  0  0  0  0  0  0  0  0  0  0
    1.6644    1.8815   -1.5834 C   0  0  0  0  0  0  0  0  0  0  0  0
    0.6980    3.0112   -1.7017 C   0  0  0  0  0  0  0  0  0  0  0  0
    2.1291    3.1522   -2.2098 C   0  0  0  0  0  0  0  0  0  0  0  0
    2.2499    1.1502   -0.4055 C   0  0  1  0  0  0  0  0  0  0  0  0
   -0.4816    0.4546    0.9117 H   0  0  0  0  0  0  0  0  0  0  0  0
   -0.5380    0.4608   -0.8685 H   0  0  0  0  0  0  0  0  0  0  0  0
   -0.4986   -1.0719    0.0105 H   0  0  0  0  0  0  0  0  0  0  0  0
    1.7748   -1.6796    0.9110 H   0  0  0  0  0  0  0  0  0  0  0  0
    2.9145   -0.8144   -1.5913 H   0  0  0  0  0  0  0  0  0  0  0  0
   -0.0828    2.9154   -2.4487 H   0  0  0  0  0  0  0  0  0  0  0  0
    0.4057    3.5447   -0.8036 H   0  0  0  0  0  0  0  0  0  0  0  0
    2.2806    3.1434   -3.2836 H   0  0  0  0  0  0  0  0  0  0  0  0
    2.8190    3.7796   -1.6545 H   0  0  0  0  0  0  0  0  0  0  0  0
    3.0411    1.4984    0.2443 H   0  0  0  0  0  0  0  0  0  0  0  0
  1 12  1  0  0  0  0
  1 10  1  0  0  0  0
  2  1  1  0  0  0  0
  2  3  1  1  0  0  0
  4 14  1  6  0  0  0
  4  9  1  0  0  0  0
  4  2  1  0  0  0  0
  5  6  1  0  0  0  0
  5  4  1  0  0  0  0
  6  9  1  0  0  0  0
  7  6  1  0  0  0  0
  7 16  1  0  0  0  0
  8  7  1  0  0  0  0
  8 18  1  0  0  0  0
  8  6  1  0  0  0  0
  9  2  1  0  0  0  0
  9 19  1  1  0  0  0
 11  1  1  0  0  0  0
 13  3  1  0  0  0  0
 15  7  1  0  0  0  0
 17  8  1  0  0  0  0
M TOR 0 0 1 2 12
M TOR 1 0 1 3 4
M TOR 2 0 1 3 8
M TOR 3 0 1 3 13
M TOR 4 0 1 8 5
M TOR 5 0 1 8 18
M TOR 6 1 3 4 5
M TOR 7 1 3 8 5
M TOR 8 1 3 8 18
M TOR 9 1 8 3 4
M TOR 10 1 8 3 13
M TOR 11 1 8 5 4
M TOR 12 1 8 5 6
M TOR 13 1 8 5 7
M TOR 14 2 1 0 9
M TOR 15 2 1 0 10
M TOR 16 2 1 0 11
M TOR 17 2 1 3 4
M TOR 18 2 1 3 8
M TOR 19 2 1 3 13
M TOR 20 2 1 8 5
M TOR 21 2 1 8 18
M TOR 22 3 1 0 9
M TOR 23 3 1 0 10
M TOR 24 3 1 0 11
M TOR 25 3 1 2 12
M TOR 26 3 4 5 6
M TOR 27 3 4 5 7
M TOR 28 3 4 5 8
M TOR 29 3 8 5 6
M TOR 30 3 8 5 7
M TOR 31 4 3 8 18
M TOR 32 4 5 6 7
M TOR 33 4 5 6 14
M TOR 34 4 5 6 15
M TOR 35 4 5 7 16
M TOR 36 4 5 7 17
M TOR 37 4 5 8 18
M TOR 38 5 4 3 13
M TOR 39 5 6 7 16
M TOR 40 5 6 7 17
M TOR 41 5 7 6 14
M TOR 42 5 7 6 15
M TOR 43 5 8 3 13
M TOR 44 6 5 8 18
M TOR 45 6 7 5 8
M TOR 46 7 5 8 18
M TOR 47 8 1 0 9
M TOR 48 8 1 0 10
M TOR 49 8 1 0 11
M TOR 50 8 1 2 12
M TOR 51 8 5 6 14
M TOR 52 8 5 6 15
M TOR 53 8 5 7 16
M TOR 54 8 5 7 17
M  END
$$$$
