gdb 5857	2.200185	1.2578933	0.8859975	2.0525	77.26	-0.25521	0.04603	0.30124	1318.0015	0.156639	-422.525375	-422.516098	-422.515154	-422.560341	33.837
 OpenBabel02181911423D

 19 19  0  0  1  0  0  0  0  0999 V2000
    1.5963    0.2747    0.3602 O   0  0  0  0  0  0  0  0  0  0  0  0
    0.2537   -0.1774    0.3089 C   0  0  0  0  0  0  0  0  0  0  0  0
   -0.6065    0.3886    1.4425 C   0  0  1  0  0  0  0  0  0  0  0  0
   -0.7279    1.9279    1.3723 C   0  0  0  0  0  0  0  0  0  0  0  0
   -1.9778    2.1900    0.7485 O   0  0  0  0  0  0  0  0  0  0  0  0
   -2.8782    1.2532    1.2998 C   0  0  0  0  0  0  0  0  0  0  0  0
   -2.0934   -0.0891    1.3212 C   0  0  2  0  0  0  0  0  0  0  0  0
   -2.5280   -1.0097    2.3579 C   0  0  0  0  0  0  0  0  0  0  0  0
   -2.8943   -1.7565    3.2264 C   0  0  0  0  0  0  0  0  0  0  0  0
    2.0063   -0.1002    1.1465 H   0  0  0  0  0  0  0  0  0  0  0  0
   -0.1405    0.1712   -0.6529 H   0  0  0  0  0  0  0  0  0  0  0  0
    0.1972   -1.2770    0.3090 H   0  0  0  0  0  0  0  0  0  0  0  0
   -0.1846    0.0736    2.4020 H   0  0  0  0  0  0  0  0  0  0  0  0
   -0.7056    2.3672    2.3818 H   0  0  0  0  0  0  0  0  0  0  0  0
    0.0631    2.3840    0.7735 H   0  0  0  0  0  0  0  0  0  0  0  0
   -3.1684    1.5299    2.3256 H   0  0  0  0  0  0  0  0  0  0  0  0
   -3.7730    1.2201    0.6749 H   0  0  0  0  0  0  0  0  0  0  0  0
   -2.2218   -0.5724    0.3445 H   0  0  0  0  0  0  0  0  0  0  0  0
   -3.2214   -2.4205    3.9876 H   0  0  0  0  0  0  0  0  0  0  0  0
  1 10  1  0  0  0  0
  2 12  1  0  0  0  0
  2  1  1  0  0  0  0
  2  3  1  0  0  0  0
  3 13  1  1  0  0  0
  4  3  1  0  0  0  0
  4 14  1  0  0  0  0
  5  6  1  0  0  0  0
  5  4  1  0  0  0  0
  6  7  1  0  0  0  0
  6 16  1  0  0  0  0
  7 18  1  6  0  0  0
  7  3  1  0  0  0  0
  7  8  1  0  0  0  0
  8  9  3  0  0  0  0
  9 19  1  0  0  0  0
 11  2  1  0  0  0  0
 15  4  1  0  0  0  0
 17  6  1  0  0  0  0
M TOR 0 0 1 2 3
M TOR 1 0 1 2 6
M TOR 2 0 1 2 12
M TOR 3 1 2 3 4
M TOR 4 1 2 3 13
M TOR 5 1 2 3 14
M TOR 6 1 2 6 5
M TOR 7 1 2 6 7
M TOR 8 1 2 6 17
M TOR 9 2 1 0 9
M TOR 10 2 3 4 5
M TOR 11 2 6 5 4
M TOR 12 2 6 5 15
M TOR 13 2 6 5 16
M TOR 14 2 6 7 8
M TOR 15 3 2 1 10
M TOR 16 3 2 1 11
M TOR 17 3 2 6 5
M TOR 18 3 2 6 7
M TOR 19 3 2 6 17
M TOR 20 3 4 5 6
M TOR 21 3 4 5 15
M TOR 22 3 4 5 16
M TOR 23 4 3 2 6
M TOR 24 4 3 2 12
M TOR 25 4 5 6 7
M TOR 26 4 5 6 17
M TOR 27 5 4 3 13
M TOR 28 5 4 3 14
M TOR 29 5 6 2 12
M TOR 30 5 6 7 8
M TOR 31 6 2 1 10
M TOR 32 6 2 1 11
M TOR 33 6 2 3 13
M TOR 34 6 2 3 14
M TOR 35 6 7 8 18
M TOR 36 7 6 2 12
M TOR 37 7 6 5 15
M TOR 38 7 6 5 16
M TOR 39 8 7 6 17
M  END
$$$$
