gdb 4303	2.3490853	1.4141117	1.1087204	1.4959	78.16	-0.23267	-0.01989	0.21278	1178.0481	0.156286	-422.595794	-422.586721	-422.585777	-422.629634	33.676
 OpenBabel02181911413D

 19 19  0  0  1  0  0  0  0  0999 V2000
    1.2564    0.8905    0.3879 C   0  0  0  0  0  0  0  0  0  0  0  0
   -0.0434    0.1379    0.3165 C   0  0  0  0  0  0  0  0  0  0  0  0
   -0.1069   -1.1749    0.0866 C   0  0  0  0  0  0  0  0  0  0  0  0
   -1.3799   -1.9767    0.0106 C   0  0  0  0  0  0  0  0  0  0  0  0
   -2.5863   -1.2408    0.5981 C   0  0  1  0  0  0  0  0  0  0  0  0
   -2.4710   -1.3041    2.0211 O   0  0  0  0  0  0  0  0  0  0  0  0
   -2.5678    0.2273    0.1658 C   0  0  0  0  0  0  0  0  0  0  0  0
   -3.4990    0.7481   -0.4021 O   0  0  0  0  0  0  0  0  0  0  0  0
   -1.2931    0.9676    0.5321 C   0  0  0  0  0  0  0  0  0  0  0  0
    1.3728    1.3857    1.3608 H   0  0  0  0  0  0  0  0  0  0  0  0
    2.1138    0.2292    0.2382 H   0  0  0  0  0  0  0  0  0  0  0  0
    1.2983    1.6829   -0.3705 H   0  0  0  0  0  0  0  0  0  0  0  0
    0.8171   -1.7281   -0.0664 H   0  0  0  0  0  0  0  0  0  0  0  0
   -1.5976   -2.2457   -1.0325 H   0  0  0  0  0  0  0  0  0  0  0  0
   -1.2704   -2.9232    0.5541 H   0  0  0  0  0  0  0  0  0  0  0  0
   -3.5251   -1.6926    0.2543 H   0  0  0  0  0  0  0  0  0  0  0  0
   -3.2769   -0.9347    2.3978 H   0  0  0  0  0  0  0  0  0  0  0  0
   -1.2631    1.9014   -0.0394 H   0  0  0  0  0  0  0  0  0  0  0  0
   -1.3589    1.2528    1.5930 H   0  0  0  0  0  0  0  0  0  0  0  0
  1 10  1  0  0  0  0
  2  1  1  0  0  0  0
  2  9  1  0  0  0  0
  3  2  2  0  0  0  0
  4  3  1  0  0  0  0
  4 15  1  0  0  0  0
  4  5  1  0  0  0  0
  5 16  1  6  0  0  0
  5  6  1  0  0  0  0
  6 17  1  0  0  0  0
  7  9  1  0  0  0  0
  7  5  1  0  0  0  0
  8  7  2  0  0  0  0
  9 19  1  0  0  0  0
 11  1  1  0  0  0  0
 12  1  1  0  0  0  0
 13  3  1  0  0  0  0
 14  4  1  0  0  0  0
 18  9  1  0  0  0  0
M TOR 0 0 1 2 3
M TOR 1 0 1 2 12
M TOR 2 0 1 8 6
M TOR 3 0 1 8 17
M TOR 4 0 1 8 18
M TOR 5 1 2 3 4
M TOR 6 1 2 3 13
M TOR 7 1 2 3 14
M TOR 8 1 8 6 4
M TOR 9 1 8 6 7
M TOR 10 2 1 0 9
M TOR 11 2 1 0 10
M TOR 12 2 1 0 11
M TOR 13 2 1 8 6
M TOR 14 2 1 8 17
M TOR 15 2 1 8 18
M TOR 16 2 3 4 5
M TOR 17 2 3 4 6
M TOR 18 2 3 4 15
M TOR 19 3 2 1 8
M TOR 20 3 4 5 16
M TOR 21 3 4 6 7
M TOR 22 3 4 6 8
M TOR 23 4 3 2 12
M TOR 24 4 6 8 17
M TOR 25 4 6 8 18
M TOR 26 5 4 3 13
M TOR 27 5 4 3 14
M TOR 28 5 4 6 7
M TOR 29 5 4 6 8
M TOR 30 6 4 3 13
M TOR 31 6 4 3 14
M TOR 32 6 4 5 16
M TOR 33 7 6 4 15
M TOR 34 7 6 8 17
M TOR 35 7 6 8 18
M TOR 36 8 1 0 9
M TOR 37 8 1 0 10
M TOR 38 8 1 0 11
M TOR 39 8 1 2 12
M TOR 40 8 6 4 15
M  END
$$$$
