
     RDKit          3D

 19 21  0  0  0  0  0  0  0  0999 V2000
   -0.7508    0.3390   -0.0691 O   0  0  0  0  0  0  0  0  0  0  0  0
   -2.0652   -0.0810    0.1278 C   0  0  0  0  0  0  0  0  0  0  0  0
   -2.3527   -1.3398    0.9321 C   0  0  0  0  0  0  0  0  0  0  0  0
   -3.8393   -1.5895    0.5940 C   0  0  0  0  0  0  0  0  0  0  0  0
   -3.9110   -1.3030   -0.9251 C   0  0  0  0  0  0  0  0  0  0  0  0
   -3.0428   -0.0600   -1.0410 C   0  0  0  0  0  0  0  0  0  0  0  0
   -3.2099    0.8969    0.1211 C   0  0  0  0  0  0  0  0  0  0  0  0
   -4.2884    0.7887    1.0136 O   0  0  0  0  0  0  0  0  0  0  0  0
   -4.6900   -0.5473    1.3265 C   0  0  0  0  0  0  0  0  0  0  0  0
   -0.4465    0.7588    0.7432 H   0  0  0  0  0  0  0  0  0  0  0  0
   -1.7117   -2.1563    0.5809 H   0  0  0  0  0  0  0  0  0  0  0  0
   -2.1865   -1.2139    2.0088 H   0  0  0  0  0  0  0  0  0  0  0  0
   -4.1817   -2.5919    0.8631 H   0  0  0  0  0  0  0  0  0  0  0  0
   -3.4861   -2.1289   -1.5067 H   0  0  0  0  0  0  0  0  0  0  0  0
   -4.9407   -1.1470   -1.2653 H   0  0  0  0  0  0  0  0  0  0  0  0
   -2.7427    0.3299   -2.0069 H   0  0  0  0  0  0  0  0  0  0  0  0
   -2.9723    1.9408   -0.0519 H   0  0  0  0  0  0  0  0  0  0  0  0
   -4.6099   -0.6835    2.4145 H   0  0  0  0  0  0  0  0  0  0  0  0
   -5.7484   -0.6593    1.0528 H   0  0  0  0  0  0  0  0  0  0  0  0
  1  2  1  0
  2  3  1  0
  3  4  1  0
  4  5  1  0
  5  6  1  0
  6  7  1  0
  7  8  1  0
  8  9  1  0
  6  2  1  0
  7  2  1  0
  9  4  1  0
  1 10  1  0
  3 11  1  0
  3 12  1  0
  4 13  1  0
  5 14  1  0
  5 15  1  0
  6 16  1  0
  7 17  1  0
  9 18  1  0
  9 19  1  0
M  END
$$$$
