gdb 2059	2.5786661	1.5941462	1.1544327	4.2962	75.62	-0.25357	0.01377	0.26734	1102.9724	0.15752	-422.591621	-422.58343	-422.582486	-422.624117	31.739
 OpenBabel02181911403D

 19 20  0  0  1  0  0  0  0  0999 V2000
   -2.3875   -2.6057    0.8956 C   0  0  0  0  0  0  0  0  0  0  0  0
   -1.8502   -1.2022    0.9949 C   0  0  2  0  0  0  0  0  0  0  0  0
   -2.1864   -0.3256    2.1718 C   0  0  0  0  0  0  0  0  0  0  0  0
   -2.7201    0.0013    0.7838 C   0  0  1  0  0  0  0  0  0  0  0  0
   -2.1521    1.1489   -0.0232 C   0  0  0  0  0  0  0  0  0  0  0  0
   -0.6290    1.2438    0.1315 C   0  0  0  0  0  0  0  0  0  0  0  0
    0.0969   -0.0839   -0.0023 C   0  0  0  0  0  0  0  0  0  0  0  0
    1.1919   -0.1953   -0.4825 O   0  0  0  0  0  0  0  0  0  0  0  0
   -0.5200   -1.1925    0.4827 O   0  0  0  0  0  0  0  0  0  0  0  0
   -1.7491   -3.3001    1.4502 H   0  0  0  0  0  0  0  0  0  0  0  0
   -3.3976   -2.6572    1.3105 H   0  0  0  0  0  0  0  0  0  0  0  0
   -2.4225   -2.9344   -0.1478 H   0  0  0  0  0  0  0  0  0  0  0  0
   -2.8796   -0.7122    2.9108 H   0  0  0  0  0  0  0  0  0  0  0  0
   -1.3991    0.2939    2.5861 H   0  0  0  0  0  0  0  0  0  0  0  0
   -3.7745   -0.1994    0.6160 H   0  0  0  0  0  0  0  0  0  0  0  0
   -2.3998    0.9907   -1.0801 H   0  0  0  0  0  0  0  0  0  0  0  0
   -2.6133    2.0995    0.2671 H   0  0  0  0  0  0  0  0  0  0  0  0
   -0.1874    1.9195   -0.6026 H   0  0  0  0  0  0  0  0  0  0  0  0
   -0.3730    1.6494    1.1179 H   0  0  0  0  0  0  0  0  0  0  0  0
  1 11  1  0  0  0  0
  1 10  1  0  0  0  0
  2  1  1  6  0  0  0
  2  3  1  0  0  0  0
  3 14  1  0  0  0  0
  3 13  1  0  0  0  0
  4 15  1  6  0  0  0
  4  2  1  0  0  0  0
  4  3  1  0  0  0  0
  5  6  1  0  0  0  0
  5 17  1  0  0  0  0
  5  4  1  0  0  0  0
  6 19  1  0  0  0  0
  7  6  1  0  0  0  0
  7  9  1  0  0  0  0
  8  7  2  0  0  0  0
  9  2  1  0  0  0  0
 12  1  1  0  0  0  0
 16  5  1  0  0  0  0
 18  6  1  0  0  0  0
M TOR 0 0 1 2 3
M TOR 1 0 1 2 12
M TOR 2 0 1 2 13
M TOR 3 0 1 3 4
M TOR 4 0 1 3 14
M TOR 5 0 1 8 6
M TOR 6 1 2 3 4
M TOR 7 1 2 3 14
M TOR 8 1 3 2 12
M TOR 9 1 3 2 13
M TOR 10 1 3 4 5
M TOR 11 1 3 4 15
M TOR 12 1 3 4 16
M TOR 13 1 8 6 5
M TOR 14 1 8 6 7
M TOR 15 2 1 0 9
M TOR 16 2 1 0 10
M TOR 17 2 1 0 11
M TOR 18 2 1 8 6
M TOR 19 2 3 1 8
M TOR 20 2 3 4 5
M TOR 21 2 3 4 15
M TOR 22 2 3 4 16
M TOR 23 3 1 0 9
M TOR 24 3 1 0 10
M TOR 25 3 1 0 11
M TOR 26 3 1 8 6
M TOR 27 3 4 5 6
M TOR 28 3 4 5 17
M TOR 29 3 4 5 18
M TOR 30 4 3 1 8
M TOR 31 4 3 2 12
M TOR 32 4 3 2 13
M TOR 33 4 5 6 7
M TOR 34 4 5 6 8
M TOR 35 5 4 3 14
M TOR 36 6 5 4 15
M TOR 37 6 5 4 16
M TOR 38 7 6 5 17
M TOR 39 7 6 5 18
M TOR 40 8 1 0 9
M TOR 41 8 1 0 10
M TOR 42 8 1 0 11
M TOR 43 8 1 2 12
M TOR 44 8 1 2 13
M TOR 45 8 1 3 14
M TOR 46 8 6 5 17
M TOR 47 8 6 5 18
M  END
$$$$
