gdb 5946	4.0469753	1.0413688	0.9889038	1.3023	75.82	-0.22522	0.08029	0.30551	1288.7469	0.156092	-422.472631	-422.464299	-422.463355	-422.506212	31.175
 OpenBabel02181911423D

 19 21  0  0  1  0  0  0  0  0999 V2000
    0.0726   -0.3328   -0.6156 C   0  0  0  0  0  0  0  0  0  0  0  0
    1.1102    0.0711    0.4150 C   0  0  0  0  0  0  0  0  0  0  0  0
    1.4469    1.4455    0.1931 O   0  0  0  0  0  0  0  0  0  0  0  0
    2.3540    1.9396    1.0720 C   0  0  2  0  0  0  0  0  0  0  0  0
    2.6351    3.3660    1.4823 C   0  0  2  0  0  0  0  0  0  0  0  0
    4.1184    3.2430    1.1438 C   0  0  0  0  0  0  0  0  0  0  0  0
    3.9212    1.7210    1.3625 C   0  0  1  0  0  0  0  0  0  0  0  0
    3.6445    1.6059    2.7824 O   0  0  0  0  0  0  0  0  0  0  0  0
    2.3932    2.2366    2.5363 C   0  0  2  0  0  0  0  0  0  0  0  0
   -0.8256    0.2838   -0.5197 H   0  0  0  0  0  0  0  0  0  0  0  0
    0.4665   -0.2099   -1.6284 H   0  0  0  0  0  0  0  0  0  0  0  0
   -0.2090   -1.3809   -0.4774 H   0  0  0  0  0  0  0  0  0  0  0  0
    0.7261   -0.0483    1.4375 H   0  0  0  0  0  0  0  0  0  0  0  0
    2.0149   -0.5472    0.3264 H   0  0  0  0  0  0  0  0  0  0  0  0
    1.9771    4.2224    1.4109 H   0  0  0  0  0  0  0  0  0  0  0  0
    4.3100    3.4815    0.0946 H   0  0  0  0  0  0  0  0  0  0  0  0
    4.8553    3.7249    1.7932 H   0  0  0  0  0  0  0  0  0  0  0  0
    4.6117    0.9672    0.9904 H   0  0  0  0  0  0  0  0  0  0  0  0
    1.6509    2.2821    3.3215 H   0  0  0  0  0  0  0  0  0  0  0  0
  1 10  1  0  0  0  0
  1 12  1  0  0  0  0
  1  2  1  0  0  0  0
  2 13  1  0  0  0  0
  3  2  1  0  0  0  0
  4  3  1  6  0  0  0
  4  7  1  0  0  0  0
  4  5  1  0  0  0  0
  4  9  1  0  0  0  0
  5 15  1  6  0  0  0
  5  9  1  0  0  0  0
  6  7  1  0  0  0  0
  6  5  1  0  0  0  0
  6 17  1  0  0  0  0
  7 18  1  6  0  0  0
  7  8  1  0  0  0  0
  9  8  1  0  0  0  0
  9 19  1  1  0  0  0
 11  1  1  0  0  0  0
 14  2  1  0  0  0  0
 16  6  1  0  0  0  0
M TOR 0 0 1 2 3
M TOR 1 1 2 3 4
M TOR 2 1 2 3 6
M TOR 3 1 2 3 8
M TOR 4 2 1 0 9
M TOR 5 2 1 0 10
M TOR 6 2 1 0 11
M TOR 7 2 3 4 5
M TOR 8 2 3 4 8
M TOR 9 2 3 4 14
M TOR 10 2 3 6 5
M TOR 11 2 3 6 7
M TOR 12 2 3 6 17
M TOR 13 2 3 8 7
M TOR 14 2 3 8 18
M TOR 15 3 2 1 12
M TOR 16 3 2 1 13
M TOR 17 3 4 5 6
M TOR 18 3 4 5 15
M TOR 19 3 4 5 16
M TOR 20 3 4 8 7
M TOR 21 3 4 8 18
M TOR 22 3 6 5 15
M TOR 23 3 6 5 16
M TOR 24 3 6 7 8
M TOR 25 3 8 4 5
M TOR 26 3 8 4 14
M TOR 27 4 3 6 7
M TOR 28 4 3 6 17
M TOR 29 4 5 6 7
M TOR 30 4 5 6 17
M TOR 31 4 8 3 6
M TOR 32 4 8 7 6
M TOR 33 5 4 8 7
M TOR 34 5 4 8 18
M TOR 35 5 6 3 8
M TOR 36 5 6 7 8
M TOR 37 6 3 4 14
M TOR 38 6 3 8 18
M TOR 39 6 5 4 8
M TOR 40 6 5 4 14
M TOR 41 6 7 8 18
M TOR 42 7 6 5 15
M TOR 43 7 6 5 16
M TOR 44 7 8 4 14
M TOR 45 8 3 6 17
M TOR 46 8 4 5 15
M TOR 47 8 4 5 16
M TOR 48 8 7 6 17
M  END
$$$$
