
     RDKit          3D

 19 21  0  0  0  0  0  0  0  0999 V2000
    0.1988    0.0106   -0.3176 C   0  0  0  0  0  0  0  0  0  0  0  0
    1.6626   -0.0169    0.1389 C   0  0  0  0  0  0  0  0  0  0  0  0
    2.5088   -0.9291   -0.6888 C   0  0  0  0  0  0  0  0  0  0  0  0
    2.6515   -0.6877   -2.1250 O   0  0  0  0  0  0  0  0  0  0  0  0
    3.4710   -1.8808   -1.9334 C   0  0  0  0  0  0  0  0  0  0  0  0
    4.1758   -2.4986   -3.0933 C   0  0  0  0  0  0  0  0  0  0  0  0
    3.9775   -1.4403   -0.5184 C   0  0  0  0  0  0  0  0  0  0  0  0
    3.5928   -2.6842    0.1335 O   0  0  0  0  0  0  0  0  0  0  0  0
    2.5292   -2.4893   -0.8412 C   0  0  0  0  0  0  0  0  0  0  0  0
   -0.3832    0.7133    0.2851 H   0  0  0  0  0  0  0  0  0  0  0  0
    0.1269    0.3138   -1.3655 H   0  0  0  0  0  0  0  0  0  0  0  0
   -0.2620   -0.9778   -0.2214 H   0  0  0  0  0  0  0  0  0  0  0  0
    2.0922    0.9913    0.0935 H   0  0  0  0  0  0  0  0  0  0  0  0
    1.7395   -0.3498    1.1811 H   0  0  0  0  0  0  0  0  0  0  0  0
    4.7352   -3.3761   -2.7551 H   0  0  0  0  0  0  0  0  0  0  0  0
    3.4597   -2.8121   -3.8589 H   0  0  0  0  0  0  0  0  0  0  0  0
    4.8753   -1.7882   -3.5440 H   0  0  0  0  0  0  0  0  0  0  0  0
    4.8883   -0.9318   -0.2003 H   0  0  0  0  0  0  0  0  0  0  0  0
    1.7269   -3.2249   -0.9070 H   0  0  0  0  0  0  0  0  0  0  0  0
  1  2  1  0
  2  3  1  0
  3  4  1  0
  4  5  1  0
  5  6  1  0
  5  7  1  0
  7  8  1  0
  8  9  1  0
  7  3  1  0
  9  3  1  0
  9  5  1  0
  1 10  1  0
  1 11  1  0
  1 12  1  0
  2 13  1  0
  2 14  1  0
  6 15  1  0
  6 16  1  0
  6 17  1  0
  7 18  1  0
  9 19  1  0
M  END
$$$$
