gdb 4568	2.3559645	1.5044254	1.2052609	1.488	76.91	-0.24792	0.03661	0.28453	1114.2063	0.155265	-422.534601	-422.525257	-422.524313	-422.568285	35.16
 OpenBabel02181911413D

 19 19  0  0  1  0  0  0  0  0999 V2000
    0.0076    0.3446   -0.0349 C   0  0  0  0  0  0  0  0  0  0  0  0
    1.4208   -0.1729   -0.2030 C   0  0  1  0  0  0  0  0  0  0  0  0
    1.4234   -1.3600   -0.9924 O   0  0  0  0  0  0  0  0  0  0  0  0
    2.7929   -1.6482   -1.2902 C   0  0  0  0  0  0  0  0  0  0  0  0
    3.5336   -0.2850   -1.3109 C   0  0  0  0  0  0  0  0  0  0  0  0
    2.3981    0.7330   -1.0081 C   0  0  1  0  0  0  0  0  0  0  0  0
    1.7777    1.1628   -2.2168 O   0  0  0  0  0  0  0  0  0  0  0  0
    2.8390    1.9086   -0.2705 C   0  0  0  0  0  0  0  0  0  0  0  0
    3.2048    2.8497    0.3804 C   0  0  0  0  0  0  0  0  0  0  0  0
   -0.6146   -0.4106    0.4518 H   0  0  0  0  0  0  0  0  0  0  0  0
    0.0170    1.2449    0.5856 H   0  0  0  0  0  0  0  0  0  0  0  0
   -0.4343    0.5979   -1.0008 H   0  0  0  0  0  0  0  0  0  0  0  0
    1.8714   -0.3727    0.7834 H   0  0  0  0  0  0  0  0  0  0  0  0
    3.2116   -2.3117   -0.5211 H   0  0  0  0  0  0  0  0  0  0  0  0
    2.8190   -2.1762   -2.2468 H   0  0  0  0  0  0  0  0  0  0  0  0
    4.3102   -0.2404   -0.5450 H   0  0  0  0  0  0  0  0  0  0  0  0
    3.9857   -0.0484   -2.2752 H   0  0  0  0  0  0  0  0  0  0  0  0
    1.3400    0.3796   -2.5764 H   0  0  0  0  0  0  0  0  0  0  0  0
    3.5274    3.6910    0.9426 H   0  0  0  0  0  0  0  0  0  0  0  0
  1 10  1  0  0  0  0
  1 11  1  0  0  0  0
  2  1  1  0  0  0  0
  2 13  1  1  0  0  0
  3  2  1  0  0  0  0
  4  3  1  0  0  0  0
  4 14  1  0  0  0  0
  5  4  1  0  0  0  0
  5  6  1  0  0  0  0
  5 16  1  0  0  0  0
  6  8  1  1  0  0  0
  6  2  1  0  0  0  0
  7  6  1  0  0  0  0
  8  9  3  0  0  0  0
  9 19  1  0  0  0  0
 12  1  1  0  0  0  0
 15  4  1  0  0  0  0
 17  5  1  0  0  0  0
 18  7  1  0  0  0  0
M TOR 0 0 1 2 3
M TOR 1 0 1 5 4
M TOR 2 0 1 5 6
M TOR 3 0 1 5 7
M TOR 4 1 2 3 4
M TOR 5 1 2 3 13
M TOR 6 1 2 3 14
M TOR 7 1 5 4 3
M TOR 8 1 5 4 15
M TOR 9 1 5 4 16
M TOR 10 1 5 6 17
M TOR 11 1 5 7 8
M TOR 12 2 1 0 9
M TOR 13 2 1 0 10
M TOR 14 2 1 0 11
M TOR 15 2 1 5 4
M TOR 16 2 1 5 6
M TOR 17 2 1 5 7
M TOR 18 2 3 4 5
M TOR 19 2 3 4 15
M TOR 20 2 3 4 16
M TOR 21 3 2 1 5
M TOR 22 3 2 1 12
M TOR 23 3 4 5 6
M TOR 24 3 4 5 7
M TOR 25 4 5 1 12
M TOR 26 4 5 6 17
M TOR 27 4 5 7 8
M TOR 28 5 1 0 9
M TOR 29 5 1 0 10
M TOR 30 5 1 0 11
M TOR 31 5 4 3 13
M TOR 32 5 4 3 14
M TOR 33 5 7 8 18
M TOR 34 6 5 1 12
M TOR 35 6 5 4 15
M TOR 36 6 5 4 16
M TOR 37 6 5 7 8
M TOR 38 7 5 1 12
M TOR 39 7 5 4 15
M TOR 40 7 5 4 16
M TOR 41 7 5 6 17
M  END
$$$$
