gdb 4731	2.2492632	1.3499252	1.0457438	2.4767	77.19	-0.25671	0.02586	0.28257	1227.9428	0.152832	-422.500714	-422.49032	-422.489376	-422.536059	37.255
 OpenBabel02181911413D

 19 19  0  0  1  0  0  0  0  0999 V2000
    2.8512   -2.3019   -1.2326 C   0  0  0  0  0  0  0  0  0  0  0  0
    3.2604   -1.4420   -0.0365 C   0  0  0  0  0  0  0  0  0  0  0  0
    2.6779   -0.0065   -0.0636 C   0  0  1  0  0  0  0  0  0  0  0  0
    3.1071    0.6833   -1.2375 O   0  0  0  0  0  0  0  0  0  0  0  0
    1.2096   -0.0264    0.0174 C   0  0  0  0  0  0  0  0  0  0  0  0
    0.0084   -0.0436    0.0690 C   0  0  0  0  0  0  0  0  0  0  0  0
    3.2143    0.7662    1.1451 C   0  0  2  0  0  0  0  0  0  0  0  0
    3.6383    2.1644    1.0606 C   0  0  0  0  0  0  0  0  0  0  0  0
    4.5948    1.0954    1.1228 O   0  0  0  0  0  0  0  0  0  0  0  0
    3.2921   -3.2998   -1.1568 H   0  0  0  0  0  0  0  0  0  0  0  0
    1.7641   -2.4178   -1.2889 H   0  0  0  0  0  0  0  0  0  0  0  0
    3.2013   -1.8608   -2.1713 H   0  0  0  0  0  0  0  0  0  0  0  0
    2.9505   -1.9236    0.8982 H   0  0  0  0  0  0  0  0  0  0  0  0
    4.3486   -1.3284   -0.0031 H   0  0  0  0  0  0  0  0  0  0  0  0
    2.5326    0.4147   -1.9607 H   0  0  0  0  0  0  0  0  0  0  0  0
   -1.0529   -0.0540    0.1165 H   0  0  0  0  0  0  0  0  0  0  0  0
    2.8502    0.3774    2.0966 H   0  0  0  0  0  0  0  0  0  0  0  0
    3.5822    2.6719    0.1026 H   0  0  0  0  0  0  0  0  0  0  0  0
    3.5873    2.7935    1.9478 H   0  0  0  0  0  0  0  0  0  0  0  0
  1 10  1  0  0  0  0
  1  2  1  0  0  0  0
  2 14  1  0  0  0  0
  2 13  1  0  0  0  0
  3  2  1  0  0  0  0
  3  5  1  1  0  0  0
  3  7  1  0  0  0  0
  4  3  1  0  0  0  0
  5  6  3  0  0  0  0
  6 16  1  0  0  0  0
  7 17  1  1  0  0  0
  8  9  1  0  0  0  0
  8  7  1  0  0  0  0
  8 19  1  0  0  0  0
  9  7  1  0  0  0  0
 11  1  1  0  0  0  0
 12  1  1  0  0  0  0
 15  4  1  0  0  0  0
 18  8  1  0  0  0  0
M TOR 0 0 1 2 3
M TOR 1 0 1 2 4
M TOR 2 0 1 2 6
M TOR 3 1 2 3 14
M TOR 4 1 2 4 5
M TOR 5 1 2 6 7
M TOR 6 1 2 6 8
M TOR 7 1 2 6 16
M TOR 8 2 1 0 9
M TOR 9 2 1 0 10
M TOR 10 2 1 0 11
M TOR 11 2 4 5 15
M TOR 12 2 6 7 8
M TOR 13 2 6 7 17
M TOR 14 2 6 7 18
M TOR 15 3 2 1 12
M TOR 16 3 2 1 13
M TOR 17 3 2 4 5
M TOR 18 3 2 6 7
M TOR 19 3 2 6 8
M TOR 20 3 2 6 16
M TOR 21 4 2 1 12
M TOR 22 4 2 1 13
M TOR 23 4 2 3 14
M TOR 24 4 2 6 7
M TOR 25 4 2 6 8
M TOR 26 4 2 6 16
M TOR 27 5 4 2 6
M TOR 28 6 2 1 12
M TOR 29 6 2 1 13
M TOR 30 6 2 3 14
M TOR 31 6 8 7 17
M TOR 32 6 8 7 18
M TOR 33 7 8 6 16
M  END
$$$$
