gdb 4878	2.3918705	1.5147454	1.2286978	4.0692	77.63	-0.2356	-0.04799	0.18761	1111.0233	0.155446	-422.577225	-422.568029	-422.567085	-422.611308	33.7
 OpenBabel02181911413D

 19 19  0  0  1  0  0  0  0  0999 V2000
    1.4373   -0.1729   -0.0576 C   0  0  0  0  0  0  0  0  0  0  0  0
    0.0485    0.0435    0.0682 O   0  0  0  0  0  0  0  0  0  0  0  0
   -0.3862    0.7413    1.2269 C   0  0  1  0  0  0  0  0  0  0  0  0
    0.0490    0.0706    2.5330 C   0  0  0  0  0  0  0  0  0  0  0  0
   -0.0526    2.2573    1.1711 C   0  0  0  0  0  0  0  0  0  0  0  0
   -1.3952    2.9419    1.1462 C   0  0  0  0  0  0  0  0  0  0  0  0
   -2.4293    2.0932    1.1250 C   0  0  0  0  0  0  0  0  0  0  0  0
   -1.9454    0.6998    1.1497 C   0  0  0  0  0  0  0  0  0  0  0  0
   -2.5984   -0.3147    1.1417 O   0  0  0  0  0  0  0  0  0  0  0  0
    1.8229   -0.8816    0.6874 H   0  0  0  0  0  0  0  0  0  0  0  0
    1.5940   -0.5981   -1.0519 H   0  0  0  0  0  0  0  0  0  0  0  0
    2.0181    0.7590    0.0168 H   0  0  0  0  0  0  0  0  0  0  0  0
   -0.2954   -0.9668    2.5389 H   0  0  0  0  0  0  0  0  0  0  0  0
    1.1345    0.0953    2.6632 H   0  0  0  0  0  0  0  0  0  0  0  0
   -0.3995    0.5868    3.3879 H   0  0  0  0  0  0  0  0  0  0  0  0
    0.5509    2.5992    2.0206 H   0  0  0  0  0  0  0  0  0  0  0  0
    0.5166    2.4959    0.2652 H   0  0  0  0  0  0  0  0  0  0  0  0
   -1.4798    4.0240    1.1453 H   0  0  0  0  0  0  0  0  0  0  0  0
   -3.4818    2.3442    1.0970 H   0  0  0  0  0  0  0  0  0  0  0  0
  1 12  1  0  0  0  0
  1  2  1  0  0  0  0
  1 10  1  0  0  0  0
  3  2  1  6  0  0  0
  3  4  1  0  0  0  0
  4 13  1  0  0  0  0
  4 14  1  0  0  0  0
  4 15  1  0  0  0  0
  5  3  1  0  0  0  0
  5 16  1  0  0  0  0
  6  5  1  0  0  0  0
  7  6  2  0  0  0  0
  7  8  1  0  0  0  0
  8  3  1  0  0  0  0
  9  8  2  0  0  0  0
 11  1  1  0  0  0  0
 17  5  1  0  0  0  0
 18  6  1  0  0  0  0
 19  7  1  0  0  0  0
M TOR 0 0 1 2 3
M TOR 1 0 1 2 4
M TOR 2 0 1 2 7
M TOR 3 1 2 3 12
M TOR 4 1 2 3 13
M TOR 5 1 2 3 14
M TOR 6 1 2 4 5
M TOR 7 1 2 4 15
M TOR 8 1 2 4 16
M TOR 9 1 2 7 6
M TOR 10 1 2 7 8
M TOR 11 2 1 0 9
M TOR 12 2 1 0 10
M TOR 13 2 1 0 11
M TOR 14 2 4 5 6
M TOR 15 2 4 5 17
M TOR 16 2 7 6 5
M TOR 17 2 7 6 18
M TOR 18 3 2 4 5
M TOR 19 3 2 4 15
M TOR 20 3 2 4 16
M TOR 21 3 2 7 6
M TOR 22 3 2 7 8
M TOR 23 4 2 3 12
M TOR 24 4 2 3 13
M TOR 25 4 2 3 14
M TOR 26 4 2 7 6
M TOR 27 4 2 7 8
M TOR 28 4 5 6 7
M TOR 29 4 5 6 18
M TOR 30 5 4 2 7
M TOR 31 5 6 7 8
M TOR 32 6 5 4 15
M TOR 33 6 5 4 16
M TOR 34 7 2 3 12
M TOR 35 7 2 3 13
M TOR 36 7 2 3 14
M TOR 37 7 2 4 15
M TOR 38 7 2 4 16
M TOR 39 7 6 5 17
M TOR 40 8 7 6 18
M  END
$$$$
