
     RDKit          3D

 19 19  0  0  0  0  0  0  0  0999 V2000
   -0.2502    0.9832   -2.2551 O   0  0  0  0  0  0  0  0  0  0  0  0
   -0.2570    2.0195   -1.2895 C   0  0  0  0  0  0  0  0  0  0  0  0
   -0.1530    1.4944    0.1448 C   0  0  0  0  0  0  0  0  0  0  0  0
   -0.0941    2.6155    1.1986 C   0  0  0  0  0  0  0  0  0  0  0  0
    1.2143    3.4386    1.2021 C   0  0  0  0  0  0  0  0  0  0  0  0
    1.7534    3.3665    2.6420 C   0  0  0  0  0  0  0  0  0  0  0  0
    2.7377    3.9287    3.0601 O   0  0  0  0  0  0  0  0  0  0  0  0
    0.8345    2.4821    3.3973 C   0  0  0  0  0  0  0  0  0  0  0  0
   -0.1700    2.0802    2.6120 C   0  0  0  0  0  0  0  0  0  0  0  0
   -1.0300    0.4377   -2.1105 H   0  0  0  0  0  0  0  0  0  0  0  0
    0.6078    2.6477   -1.5278 H   0  0  0  0  0  0  0  0  0  0  0  0
   -1.1521    2.6564   -1.3868 H   0  0  0  0  0  0  0  0  0  0  0  0
   -1.0228    0.8533    0.3495 H   0  0  0  0  0  0  0  0  0  0  0  0
    0.7344    0.8556    0.2288 H   0  0  0  0  0  0  0  0  0  0  0  0
   -0.9586    3.2748    1.0301 H   0  0  0  0  0  0  0  0  0  0  0  0
    1.9680    3.0192    0.5272 H   0  0  0  0  0  0  0  0  0  0  0  0
    1.0782    4.4839    0.9126 H   0  0  0  0  0  0  0  0  0  0  0  0
    0.9913    2.2345    4.4392 H   0  0  0  0  0  0  0  0  0  0  0  0
   -0.9826    1.4282    2.9188 H   0  0  0  0  0  0  0  0  0  0  0  0
  1  2  1  0
  2  3  1  0
  3  4  1  0
  4  5  1  0
  5  6  1  0
  6  7  2  0
  6  8  1  0
  8  9  2  0
  9  4  1  0
  1 10  1  0
  2 11  1  0
  2 12  1  0
  3 13  1  0
  3 14  1  0
  4 15  1  0
  5 16  1  0
  5 17  1  0
  8 18  1  0
  9 19  1  0
M  END
$$$$
