
     RDKit          3D

 19 19  0  0  0  0  0  0  0  0999 V2000
    1.3698    0.8761    0.2857 C   0  0  0  0  0  0  0  0  0  0  0  0
   -0.0300    0.3520    0.3008 C   0  0  0  0  0  0  0  0  0  0  0  0
   -1.1451    1.0165   -0.0242 C   0  0  0  0  0  0  0  0  0  0  0  0
   -2.3992    0.1962    0.1111 C   0  0  0  0  0  0  0  0  0  0  0  0
   -3.2894    0.0797   -1.1474 C   0  0  0  0  0  0  0  0  0  0  0  0
   -4.4554   -0.6665   -0.8926 O   0  0  0  0  0  0  0  0  0  0  0  0
   -1.8475   -1.1814    0.5005 C   0  0  0  0  0  0  0  0  0  0  0  0
   -2.4971   -2.2005    0.5508 O   0  0  0  0  0  0  0  0  0  0  0  0
   -0.3391   -1.0647    0.7283 C   0  0  0  0  0  0  0  0  0  0  0  0
    1.8239    0.8231    1.2834 H   0  0  0  0  0  0  0  0  0  0  0  0
    2.0086    0.2795   -0.3778 H   0  0  0  0  0  0  0  0  0  0  0  0
    1.4053    1.9159   -0.0503 H   0  0  0  0  0  0  0  0  0  0  0  0
   -1.1630    2.0513   -0.3505 H   0  0  0  0  0  0  0  0  0  0  0  0
   -3.0520    0.5571    0.9200 H   0  0  0  0  0  0  0  0  0  0  0  0
   -3.6067    1.0795   -1.4638 H   0  0  0  0  0  0  0  0  0  0  0  0
   -2.6936   -0.3492   -1.9707 H   0  0  0  0  0  0  0  0  0  0  0  0
   -4.1651   -1.4961   -0.4867 H   0  0  0  0  0  0  0  0  0  0  0  0
   -0.1043   -1.2533    1.7858 H   0  0  0  0  0  0  0  0  0  0  0  0
    0.1972   -1.8348    0.1595 H   0  0  0  0  0  0  0  0  0  0  0  0
  1  2  1  0
  2  3  2  0
  3  4  1  0
  4  5  1  0
  5  6  1  0
  4  7  1  0
  7  8  2  0
  7  9  1  0
  9  2  1  0
  1 10  1  0
  1 11  1  0
  1 12  1  0
  3 13  1  0
  4 14  1  0
  5 15  1  0
  5 16  1  0
  6 17  1  0
  9 18  1  0
  9 19  1  0
M  END
$$$$
