
     RDKit          3D

 19 20  0  0  0  0  0  0  0  0999 V2000
    0.1522   -0.2017   -0.3195 C   0  0  0  0  0  0  0  0  0  0  0  0
    1.4625    0.1827    0.3326 C   0  0  0  0  0  0  0  0  0  0  0  0
    1.5469    1.6016    0.3438 O   0  0  0  0  0  0  0  0  0  0  0  0
    2.5522    2.1120    1.2404 C   0  0  0  0  0  0  0  0  0  0  0  0
    2.1620    1.6689    2.6603 C   0  0  0  0  0  0  0  0  0  0  0  0
    2.4968    0.1776    2.4922 C   0  0  0  0  0  0  0  0  0  0  0  0
    1.4898   -0.3906    1.6329 O   0  0  0  0  0  0  0  0  0  0  0  0
    3.8471    0.2552    1.7783 C   0  0  0  0  0  0  0  0  0  0  0  0
    3.8792    1.3750    1.0537 C   0  0  0  0  0  0  0  0  0  0  0  0
   -0.6830    0.1970    0.2610 H   0  0  0  0  0  0  0  0  0  0  0  0
    0.1098    0.2053   -1.3327 H   0  0  0  0  0  0  0  0  0  0  0  0
    0.0675   -1.2901   -0.3665 H   0  0  0  0  0  0  0  0  0  0  0  0
    2.3141   -0.2129   -0.2410 H   0  0  0  0  0  0  0  0  0  0  0  0
    2.5857    3.1880    1.0651 H   0  0  0  0  0  0  0  0  0  0  0  0
    2.7931    2.1411    3.4179 H   0  0  0  0  0  0  0  0  0  0  0  0
    1.1068    1.8411    2.8797 H   0  0  0  0  0  0  0  0  0  0  0  0
    2.4823   -0.4237    3.4021 H   0  0  0  0  0  0  0  0  0  0  0  0
    4.5884   -0.5342    1.7953 H   0  0  0  0  0  0  0  0  0  0  0  0
    4.6519    1.6833    0.3604 H   0  0  0  0  0  0  0  0  0  0  0  0
  1  2  1  0
  2  3  1  0
  3  4  1  0
  4  5  1  0
  5  6  1  0
  6  7  1  0
  6  8  1  0
  8  9  2  0
  7  2  1  0
  9  4  1  0
  1 10  1  0
  1 11  1  0
  1 12  1  0
  2 13  1  0
  4 14  1  0
  5 15  1  0
  5 16  1  0
  6 17  1  0
  8 18  1  0
  9 19  1  0
M  END
$$$$
