
     RDKit          3D

 19 20  0  0  0  0  0  0  0  0999 V2000
   -4.4881    3.1342    0.8861 C   0  0  0  0  0  0  0  0  0  0  0  0
   -3.0089    3.0531    0.5328 C   0  0  0  0  0  0  0  0  0  0  0  0
   -2.6381    3.6935   -0.8530 C   0  0  0  0  0  0  0  0  0  0  0  0
   -2.1897    2.3203   -1.3599 C   0  0  0  0  0  0  0  0  0  0  0  0
   -1.1271    1.7781   -0.4614 C   0  0  0  0  0  0  0  0  0  0  0  0
   -0.5789    0.5618   -0.9522 O   0  0  0  0  0  0  0  0  0  0  0  0
    0.2565   -0.0874   -0.1232 C   0  0  0  0  0  0  0  0  0  0  0  0
    0.5800    0.2613    0.9771 O   0  0  0  0  0  0  0  0  0  0  0  0
   -2.5509    1.6881   -0.0036 C   0  0  0  0  0  0  0  0  0  0  0  0
   -4.7154    2.5408    1.7784 H   0  0  0  0  0  0  0  0  0  0  0  0
   -4.7853    4.1694    1.0857 H   0  0  0  0  0  0  0  0  0  0  0  0
   -5.1097    2.7570    0.0661 H   0  0  0  0  0  0  0  0  0  0  0  0
   -2.4072    3.4191    1.3735 H   0  0  0  0  0  0  0  0  0  0  0  0
   -3.5243    4.0675   -1.3717 H   0  0  0  0  0  0  0  0  0  0  0  0
   -1.8760    4.4801   -0.8509 H   0  0  0  0  0  0  0  0  0  0  0  0
   -2.3118    1.9230   -2.3601 H   0  0  0  0  0  0  0  0  0  0  0  0
   -0.3953    2.4028    0.0438 H   0  0  0  0  0  0  0  0  0  0  0  0
    0.6089   -0.9977   -0.6323 H   0  0  0  0  0  0  0  0  0  0  0  0
   -3.0023    0.7266    0.2119 H   0  0  0  0  0  0  0  0  0  0  0  0
  1  2  1  0
  2  3  1  0
  3  4  1  0
  4  5  1  0
  5  6  1  0
  6  7  1  0
  7  8  2  0
  5  9  1  0
  9  2  1  0
  9  4  1  0
  1 10  1  0
  1 11  1  0
  1 12  1  0
  2 13  1  0
  3 14  1  0
  3 15  1  0
  4 16  1  0
  5 17  1  0
  7 18  1  0
  9 19  1  0
M  END
$$$$
