gdb 1267	3.0788716	1.2621813	1.2171121	3.2636	73.99	-0.24684	0.04506	0.2919	1135.545	0.154117	-422.465753	-422.457018	-422.456074	-422.499151	33.056
 OpenBabel02181911403D

 19 21  0  0  1  0  0  0  0  0999 V2000
    1.7813    0.1769    3.2641 C   0  0  0  0  0  0  0  0  0  0  0  0
    0.2914    0.1753    3.6407 C   0  0  0  0  0  0  0  0  0  0  0  0
   -0.0069   -0.8054    4.7865 C   0  0  0  0  0  0  0  0  0  0  0  0
   -0.5700   -0.1359    2.4523 C   0  0  1  0  0  0  0  0  0  0  0  0
   -1.9561    0.2056    2.4741 O   0  0  0  0  0  0  0  0  0  0  0  0
   -1.1616    0.6672    1.3789 C   0  0  2  0  0  0  0  0  0  0  0  0
   -0.9878   -0.5341    0.3666 C   0  0  2  0  0  0  0  0  0  0  0  0
   -1.6904   -1.6604    0.8859 O   0  0  0  0  0  0  0  0  0  0  0  0
   -0.4083   -1.3522    1.4296 C   0  0  2  0  0  0  0  0  0  0  0  0
    2.3938    0.4517    4.1281 H   0  0  0  0  0  0  0  0  0  0  0  0
    2.1098   -0.8142    2.9323 H   0  0  0  0  0  0  0  0  0  0  0  0
    1.9909    0.8890    2.4598 H   0  0  0  0  0  0  0  0  0  0  0  0
    0.0119    1.1843    3.9689 H   0  0  0  0  0  0  0  0  0  0  0  0
    0.2440   -1.8331    4.5002 H   0  0  0  0  0  0  0  0  0  0  0  0
    0.5807   -0.5534    5.6747 H   0  0  0  0  0  0  0  0  0  0  0  0
   -1.0664   -0.7799    5.0553 H   0  0  0  0  0  0  0  0  0  0  0  0
   -1.1363    1.7296    1.1684 H   0  0  0  0  0  0  0  0  0  0  0  0
   -0.7893   -0.4872   -0.6966 H   0  0  0  0  0  0  0  0  0  0  0  0
    0.3587   -2.1164    1.4081 H   0  0  0  0  0  0  0  0  0  0  0  0
  1  2  1  0  0  0  0
  1 10  1  0  0  0  0
  2 13  1  0  0  0  0
  2  3  1  0  0  0  0
  3 16  1  0  0  0  0
  3 15  1  0  0  0  0
  4  5  1  0  0  0  0
  4  2  1  1  0  0  0
  6 17  1  6  0  0  0
  6  4  1  0  0  0  0
  6  5  1  0  0  0  0
  7 18  1  6  0  0  0
  7  8  1  0  0  0  0
  7  6  1  0  0  0  0
  7  9  1  0  0  0  0
  8  9  1  0  0  0  0
  9 19  1  6  0  0  0
  9  4  1  0  0  0  0
 11  1  1  0  0  0  0
 12  1  1  0  0  0  0
 14  3  1  0  0  0  0
M TOR 0 0 1 2 13
M TOR 1 0 1 2 14
M TOR 2 0 1 2 15
M TOR 3 0 1 3 4
M TOR 4 0 1 3 5
M TOR 5 0 1 3 8
M TOR 6 1 3 4 5
M TOR 7 1 3 5 6
M TOR 8 1 3 5 16
M TOR 9 1 3 8 6
M TOR 10 1 3 8 7
M TOR 11 1 3 8 18
M TOR 12 2 1 0 9
M TOR 13 2 1 0 10
M TOR 14 2 1 0 11
M TOR 15 2 1 3 4
M TOR 16 2 1 3 5
M TOR 17 2 1 3 8
M TOR 18 3 1 0 9
M TOR 19 3 1 0 10
M TOR 20 3 1 0 11
M TOR 21 3 1 2 13
M TOR 22 3 1 2 14
M TOR 23 3 1 2 15
M TOR 24 3 4 5 6
M TOR 25 3 4 5 16
M TOR 26 3 5 6 7
M TOR 27 3 5 6 8
M TOR 28 3 5 6 17
M TOR 29 3 8 6 7
M TOR 30 3 8 6 17
M TOR 31 4 3 1 12
M TOR 32 4 3 8 6
M TOR 33 4 3 8 7
M TOR 34 4 3 8 18
M TOR 35 4 5 3 8
M TOR 36 4 5 6 7
M TOR 37 4 5 6 8
M TOR 38 4 5 6 17
M TOR 39 5 3 1 12
M TOR 40 5 3 8 7
M TOR 41 5 3 8 18
M TOR 42 5 6 7 8
M TOR 43 5 6 8 18
M TOR 44 6 7 8 18
M TOR 45 7 6 5 16
M TOR 46 7 8 6 17
M TOR 47 8 3 1 12
M TOR 48 8 3 5 16
M TOR 49 8 6 5 16
M  END
$$$$
