gdb 1939	2.3585963	1.6723043	1.3321509	1.2138	75.31	-0.19719	0.06162	0.25881	1048.0524	0.154706	-422.487083	-422.478158	-422.477214	-422.51977	34.985
 OpenBabel02181911403D

 19 21  0  0  1  0  0  0  0  0999 V2000
    3.0163   -1.2617    1.6593 C   0  0  0  0  0  0  0  0  0  0  0  0
    2.4019   -0.4837    0.5323 C   0  0  1  0  0  0  0  0  0  0  0  0
    1.5541    0.7639    0.7507 C   0  0  0  0  0  0  0  0  0  0  0  0
    2.8128    0.8313   -0.0714 C   0  0  1  0  0  0  0  0  0  0  0  0
    3.9315    1.5870    0.2490 O   0  0  0  0  0  0  0  0  0  0  0  0
    2.6908    0.2265   -1.5078 C   0  0  2  0  0  0  0  0  0  0  0  0
    3.6143    0.5547   -2.4770 O   0  0  0  0  0  0  0  0  0  0  0  0
    1.3509   -0.3159   -1.8444 C   0  0  0  0  0  0  0  0  0  0  0  0
    2.2522   -1.1010   -0.8976 C   0  0  2  0  0  0  0  0  0  0  0  0
    3.3008   -0.6008    2.4836 H   0  0  0  0  0  0  0  0  0  0  0  0
    2.3190   -2.0110    2.0529 H   0  0  0  0  0  0  0  0  0  0  0  0
    3.9180   -1.7900    1.3285 H   0  0  0  0  0  0  0  0  0  0  0  0
    0.5598    0.8979    0.3371 H   0  0  0  0  0  0  0  0  0  0  0  0
    1.6726    1.1836    1.7469 H   0  0  0  0  0  0  0  0  0  0  0  0
    3.7270    2.5156    0.0868 H   0  0  0  0  0  0  0  0  0  0  0  0
    4.4562    0.6841   -2.0218 H   0  0  0  0  0  0  0  0  0  0  0  0
    0.4148    0.1440   -1.5416 H   0  0  0  0  0  0  0  0  0  0  0  0
    1.3146   -0.7555   -2.8379 H   0  0  0  0  0  0  0  0  0  0  0  0
    2.5572   -2.1152   -1.1240 H   0  0  0  0  0  0  0  0  0  0  0  0
  1 11  1  0  0  0  0
  1 10  1  0  0  0  0
  2  3  1  0  0  0  0
  2  1  1  1  0  0  0
  3 14  1  0  0  0  0
  4  5  1  1  0  0  0
  4  2  1  0  0  0  0
  4  3  1  0  0  0  0
  6  7  1  6  0  0  0
  6  9  1  0  0  0  0
  6  4  1  0  0  0  0
  7 16  1  0  0  0  0
  8 17  1  0  0  0  0
  8  6  1  0  0  0  0
  8  9  1  0  0  0  0
  9 19  1  6  0  0  0
  9  2  1  0  0  0  0
 12  1  1  0  0  0  0
 13  3  1  0  0  0  0
 15  5  1  0  0  0  0
 18  8  1  0  0  0  0
M TOR 0 0 1 2 3
M TOR 1 0 1 2 12
M TOR 2 0 1 2 13
M TOR 3 0 1 3 4
M TOR 4 0 1 3 5
M TOR 5 0 1 8 5
M TOR 6 0 1 8 7
M TOR 7 0 1 8 18
M TOR 8 1 2 3 4
M TOR 9 1 2 3 5
M TOR 10 1 3 2 12
M TOR 11 1 3 2 13
M TOR 12 1 3 4 14
M TOR 13 1 3 5 6
M TOR 14 1 3 5 7
M TOR 15 1 3 5 8
M TOR 16 1 8 5 6
M TOR 17 1 8 5 7
M TOR 18 1 8 7 16
M TOR 19 1 8 7 17
M TOR 20 2 1 0 9
M TOR 21 2 1 0 10
M TOR 22 2 1 0 11
M TOR 23 2 1 8 5
M TOR 24 2 1 8 7
M TOR 25 2 1 8 18
M TOR 26 2 3 1 8
M TOR 27 2 3 4 14
M TOR 28 2 3 5 6
M TOR 29 2 3 5 7
M TOR 30 2 3 5 8
M TOR 31 3 1 0 9
M TOR 32 3 1 0 10
M TOR 33 3 1 0 11
M TOR 34 3 1 8 7
M TOR 35 3 1 8 18
M TOR 36 3 5 6 15
M TOR 37 3 5 7 8
M TOR 38 3 5 7 16
M TOR 39 3 5 7 17
M TOR 40 3 5 8 18
M TOR 41 4 3 1 8
M TOR 42 4 3 2 12
M TOR 43 4 3 2 13
M TOR 44 4 3 5 6
M TOR 45 4 3 5 7
M TOR 46 4 3 5 8
M TOR 47 5 3 2 12
M TOR 48 5 3 2 13
M TOR 49 5 3 4 14
M TOR 50 5 7 8 18
M TOR 51 5 8 7 16
M TOR 52 5 8 7 17
M TOR 53 6 5 7 8
M TOR 54 6 5 7 16
M TOR 55 6 5 7 17
M TOR 56 6 5 8 18
M TOR 57 7 5 6 15
M TOR 58 8 1 0 9
M TOR 59 8 1 0 10
M TOR 60 8 1 0 11
M TOR 61 8 1 2 12
M TOR 62 8 1 2 13
M TOR 63 8 5 6 15
M  END
$$$$
