gdb 1083	3.7834009	1.1276953	1.0194622	2.2566	77.3	-0.24397	-0.0218	0.22216999999999998	1236.5139	0.153659	-422.521749	-422.512379	-422.511435	-422.556719	34.151
 OpenBabel02181911403D

 19 20  0  0  1  0  0  0  0  0999 V2000
    5.4947    1.5658    0.8987 C   0  0  0  0  0  0  0  0  0  0  0  0
    4.6931    0.6890   -0.0340 C   0  0  0  0  0  0  0  0  0  0  0  0
    5.1562   -0.2352   -0.6629 O   0  0  0  0  0  0  0  0  0  0  0  0
    3.2310    1.0184   -0.1613 C   0  0  2  0  0  0  0  0  0  0  0  0
    2.0040    0.1584    0.2421 C   0  0  0  0  0  0  0  0  0  0  0  0
    1.5199    1.5746   -0.1708 C   0  0  2  0  0  0  0  0  0  0  0  0
    0.1771    2.2137   -0.0127 C   0  0  0  0  0  0  0  0  0  0  0  0
    2.4528    1.5105   -1.4103 C   0  0  0  0  0  0  0  0  0  0  0  0
    2.6611    2.1476    0.6079 O   0  0  0  0  0  0  0  0  0  0  0  0
    5.0644    1.5271    1.9053 H   0  0  0  0  0  0  0  0  0  0  0  0
    6.5356    1.2413    0.9141 H   0  0  0  0  0  0  0  0  0  0  0  0
    5.4218    2.6112    0.5794 H   0  0  0  0  0  0  0  0  0  0  0  0
    1.7451   -0.6874   -0.3979 H   0  0  0  0  0  0  0  0  0  0  0  0
    1.9313   -0.0653    1.3073 H   0  0  0  0  0  0  0  0  0  0  0  0
   -0.1516    2.1625    1.0297 H   0  0  0  0  0  0  0  0  0  0  0  0
    0.2146    3.2645   -0.3148 H   0  0  0  0  0  0  0  0  0  0  0  0
   -0.5615    1.6994   -0.6354 H   0  0  0  0  0  0  0  0  0  0  0  0
    2.2320    0.7796   -2.1908 H   0  0  0  0  0  0  0  0  0  0  0  0
    2.7750    2.4772   -1.7999 H   0  0  0  0  0  0  0  0  0  0  0  0
  1 11  1  0  0  0  0
  1 10  1  0  0  0  0
  2  1  1  0  0  0  0
  3  2  2  0  0  0  0
  4  2  1  1  0  0  0
  4  5  1  0  0  0  0
  4  9  1  0  0  0  0
  5 14  1  0  0  0  0
  6  7  1  1  0  0  0
  6  5  1  0  0  0  0
  6  9  1  0  0  0  0
  7 15  1  0  0  0  0
  8  6  1  0  0  0  0
  8  4  1  0  0  0  0
 12  1  1  0  0  0  0
 13  5  1  0  0  0  0
 16  7  1  0  0  0  0
 17  7  1  0  0  0  0
 18  8  1  0  0  0  0
 19  8  1  0  0  0  0
M TOR 0 0 1 3 4
M TOR 1 0 1 3 7
M TOR 2 0 1 3 8
M TOR 3 1 3 4 5
M TOR 4 1 3 4 12
M TOR 5 1 3 4 13
M TOR 6 1 3 7 5
M TOR 7 1 3 7 17
M TOR 8 1 3 7 18
M TOR 9 1 3 8 5
M TOR 10 2 1 0 9
M TOR 11 2 1 0 10
M TOR 12 2 1 0 11
M TOR 13 2 1 3 4
M TOR 14 2 1 3 7
M TOR 15 2 1 3 8
M TOR 16 3 1 0 9
M TOR 17 3 1 0 10
M TOR 18 3 1 0 11
M TOR 19 3 4 5 6
M TOR 20 3 4 5 7
M TOR 21 3 4 5 8
M TOR 22 3 7 5 6
M TOR 23 3 7 5 8
M TOR 24 3 8 5 6
M TOR 25 4 3 7 17
M TOR 26 4 3 7 18
M TOR 27 4 5 6 14
M TOR 28 4 5 6 15
M TOR 29 4 5 6 16
M TOR 30 4 5 7 17
M TOR 31 4 5 7 18
M TOR 32 6 5 4 12
M TOR 33 6 5 4 13
M TOR 34 6 5 7 17
M TOR 35 6 5 7 18
M TOR 36 7 3 4 12
M TOR 37 7 3 4 13
M TOR 38 7 5 4 12
M TOR 39 7 5 4 13
M TOR 40 7 5 6 14
M TOR 41 7 5 6 15
M TOR 42 7 5 6 16
M TOR 43 8 3 4 12
M TOR 44 8 3 4 13
M TOR 45 8 3 7 17
M TOR 46 8 3 7 18
M TOR 47 8 5 4 12
M TOR 48 8 5 4 13
M TOR 49 8 5 6 14
M TOR 50 8 5 6 15
M TOR 51 8 5 6 16
M TOR 52 8 5 7 17
M TOR 53 8 5 7 18
M  END
$$$$
