
     RDKit          3D

 19 21  0  0  0  0  0  0  0  0999 V2000
   -0.9777   -0.8491    0.9733 C   0  0  0  0  0  0  0  0  0  0  0  0
   -1.2253    0.1737    1.9459 O   0  0  0  0  0  0  0  0  0  0  0  0
   -0.3897    1.3018    1.6692 C   0  0  0  0  0  0  0  0  0  0  0  0
    1.0133    1.1289    2.2729 C   0  0  0  0  0  0  0  0  0  0  0  0
    1.8124    0.0600    1.4830 C   0  0  0  0  0  0  0  0  0  0  0  0
    1.3449    0.1110    0.0272 C   0  0  0  0  0  0  0  0  0  0  0  0
    1.1096    1.5142   -0.3109 O   0  0  0  0  0  0  0  0  0  0  0  0
   -0.2580    1.3322    0.1180 C   0  0  0  0  0  0  0  0  0  0  0  0
   -0.1832   -0.1806   -0.1370 C   0  0  0  0  0  0  0  0  0  0  0  0
   -0.4491   -1.6962    1.4323 H   0  0  0  0  0  0  0  0  0  0  0  0
   -1.9446   -1.2179    0.6108 H   0  0  0  0  0  0  0  0  0  0  0  0
   -0.8979    2.1736    2.0887 H   0  0  0  0  0  0  0  0  0  0  0  0
    1.5349    2.0876    2.2031 H   0  0  0  0  0  0  0  0  0  0  0  0
    0.9278    0.8707    3.3315 H   0  0  0  0  0  0  0  0  0  0  0  0
    2.8852    0.2687    1.5385 H   0  0  0  0  0  0  0  0  0  0  0  0
    1.6635   -0.9454    1.8931 H   0  0  0  0  0  0  0  0  0  0  0  0
    2.0297   -0.3664   -0.6780 H   0  0  0  0  0  0  0  0  0  0  0  0
   -0.9605    1.9869   -0.4006 H   0  0  0  0  0  0  0  0  0  0  0  0
   -0.4383   -0.5067   -1.1448 H   0  0  0  0  0  0  0  0  0  0  0  0
  1  2  1  0
  2  3  1  0
  3  4  1  0
  4  5  1  0
  5  6  1  0
  6  7  1  0
  7  8  1  0
  8  9  1  0
  9  1  1  0
  8  3  1  0
  9  6  1  0
  1 10  1  0
  1 11  1  0
  3 12  1  0
  4 13  1  0
  4 14  1  0
  5 15  1  0
  5 16  1  0
  6 17  1  0
  8 18  1  0
  9 19  1  0
M  END
$$$$
