
     RDKit          3D

 19 20  0  0  0  0  0  0  0  0999 V2000
    1.5629    0.5802   -0.4023 O   0  0  0  0  0  0  0  0  0  0  0  0
    0.1963    0.4089   -0.0665 C   0  0  0  0  0  0  0  0  0  0  0  0
   -0.6934    0.4268   -1.2888 C   0  0  0  0  0  0  0  0  0  0  0  0
   -2.1777    0.6304   -1.1450 C   0  0  0  0  0  0  0  0  0  0  0  0
   -1.3079    1.6921   -1.8148 C   0  0  0  0  0  0  0  0  0  0  0  0
   -1.3304    1.8642   -3.2874 C   0  0  0  0  0  0  0  0  0  0  0  0
   -0.5930    1.0721   -4.0618 C   0  0  0  0  0  0  0  0  0  0  0  0
    0.2505   -0.0178   -3.4547 C   0  0  0  0  0  0  0  0  0  0  0  0
   -0.2817   -0.5356   -2.2349 O   0  0  0  0  0  0  0  0  0  0  0  0
    1.7941   -0.1744   -0.9549 H   0  0  0  0  0  0  0  0  0  0  0  0
    0.0407   -0.5362    0.4777 H   0  0  0  0  0  0  0  0  0  0  0  0
   -0.0723    1.2288    0.6075 H   0  0  0  0  0  0  0  0  0  0  0  0
   -2.8083    0.0295   -1.7897 H   0  0  0  0  0  0  0  0  0  0  0  0
   -2.5836    0.8441   -0.1612 H   0  0  0  0  0  0  0  0  0  0  0  0
   -1.1361    2.5969   -1.2371 H   0  0  0  0  0  0  0  0  0  0  0  0
   -1.9520    2.6506   -3.7063 H   0  0  0  0  0  0  0  0  0  0  0  0
   -0.5656    1.1864   -5.1411 H   0  0  0  0  0  0  0  0  0  0  0  0
    0.3169   -0.8785   -4.1278 H   0  0  0  0  0  0  0  0  0  0  0  0
    1.2767    0.3529   -3.2945 H   0  0  0  0  0  0  0  0  0  0  0  0
  1  2  1  0
  2  3  1  0
  3  4  1  0
  4  5  1  0
  5  6  1  0
  6  7  2  0
  7  8  1  0
  8  9  1  0
  5  3  1  0
  9  3  1  0
  1 10  1  0
  2 11  1  0
  2 12  1  0
  4 13  1  0
  4 14  1  0
  5 15  1  0
  6 16  1  0
  7 17  1  0
  8 18  1  0
  8 19  1  0
M  END
$$$$
