
     RDKit          3D

 19 20  0  0  0  0  0  0  0  0999 V2000
   -0.3910    2.4597    0.8080 C   0  0  0  0  0  0  0  0  0  0  0  0
   -0.8726    1.2728    0.0150 C   0  0  0  0  0  0  0  0  0  0  0  0
   -1.1045    1.5165   -1.3948 O   0  0  0  0  0  0  0  0  0  0  0  0
   -2.2312    1.2199   -0.5720 C   0  0  0  0  0  0  0  0  0  0  0  0
   -2.9294   -0.0910   -0.8576 C   0  0  0  0  0  0  0  0  0  0  0  0
   -1.9177   -1.1751   -1.2479 C   0  0  0  0  0  0  0  0  0  0  0  0
   -0.8256   -1.3290   -0.1838 C   0  0  0  0  0  0  0  0  0  0  0  0
   -0.1557   -0.0391    0.2765 C   0  0  0  0  0  0  0  0  0  0  0  0
    0.8901   -0.0511    0.8853 O   0  0  0  0  0  0  0  0  0  0  0  0
   -0.5575    2.3035    1.8782 H   0  0  0  0  0  0  0  0  0  0  0  0
    0.6818    2.6031    0.6598 H   0  0  0  0  0  0  0  0  0  0  0  0
   -0.9208    3.3616    0.4927 H   0  0  0  0  0  0  0  0  0  0  0  0
   -2.8747    2.0788   -0.3745 H   0  0  0  0  0  0  0  0  0  0  0  0
   -3.4976   -0.3880    0.0343 H   0  0  0  0  0  0  0  0  0  0  0  0
   -3.6610    0.0554   -1.6607 H   0  0  0  0  0  0  0  0  0  0  0  0
   -2.4306   -2.1311   -1.3918 H   0  0  0  0  0  0  0  0  0  0  0  0
   -1.4626   -0.9048   -2.2046 H   0  0  0  0  0  0  0  0  0  0  0  0
   -1.2606   -1.7604    0.7308 H   0  0  0  0  0  0  0  0  0  0  0  0
   -0.0388   -2.0223   -0.4947 H   0  0  0  0  0  0  0  0  0  0  0  0
  1  2  1  0
  2  3  1  0
  3  4  1  0
  4  5  1  0
  5  6  1  0
  6  7  1  0
  7  8  1  0
  8  9  2  0
  4  2  1  0
  8  2  1  0
  1 10  1  0
  1 11  1  0
  1 12  1  0
  4 13  1  0
  5 14  1  0
  5 15  1  0
  6 16  1  0
  6 17  1  0
  7 18  1  0
  7 19  1  0
M  END
$$$$
