gdb 4886	2.0704678	1.7982706	1.1581196	3.1152	75.66	-0.23849	-0.024	0.21449000000000001	1095.5763	0.156684	-422.506719	-422.498202	-422.497258	-422.540024	32.054
 OpenBabel02181911413D

 19 20  0  0  1  0  0  0  0  0999 V2000
    0.5202    1.1118    0.7183 O   0  0  0  0  0  0  0  0  0  0  0  0
   -0.0929   -0.0539    0.1831 C   0  0  0  0  0  0  0  0  0  0  0  0
   -1.1795   -0.6128    1.1203 C   0  0  1  0  0  0  0  0  0  0  0  0
   -2.3376    0.3618    1.0577 C   0  0  0  0  0  0  0  0  0  0  0  0
   -3.4967    0.0707    0.8864 O   0  0  0  0  0  0  0  0  0  0  0  0
   -1.4980   -2.1473    1.1627 C   0  0  1  0  0  0  0  0  0  0  0  0
   -0.1172   -2.3736    1.8537 C   0  0  0  0  0  0  0  0  0  0  0  0
   -0.7377   -1.1309    2.5546 C   0  0  2  0  0  0  0  0  0  0  0  0
   -2.0670   -1.9375    2.6014 C   0  0  0  0  0  0  0  0  0  0  0  0
    0.9871    0.8551    1.5201 H   0  0  0  0  0  0  0  0  0  0  0  0
   -0.5492    0.2661   -0.7606 H   0  0  0  0  0  0  0  0  0  0  0  0
    0.6509   -0.8162   -0.0749 H   0  0  0  0  0  0  0  0  0  0  0  0
   -2.0214    1.4249    1.1362 H   0  0  0  0  0  0  0  0  0  0  0  0
   -1.9434   -2.7346    0.3600 H   0  0  0  0  0  0  0  0  0  0  0  0
   -0.0458   -3.2693    2.4754 H   0  0  0  0  0  0  0  0  0  0  0  0
    0.7918   -2.2457    1.2666 H   0  0  0  0  0  0  0  0  0  0  0  0
   -0.3014   -0.5298    3.3554 H   0  0  0  0  0  0  0  0  0  0  0  0
   -2.0516   -2.8191    3.2465 H   0  0  0  0  0  0  0  0  0  0  0  0
   -3.0008   -1.3891    2.6940 H   0  0  0  0  0  0  0  0  0  0  0  0
  1 10  1  0  0  0  0
  2  1  1  0  0  0  0
  2  3  1  0  0  0  0
  3  4  1  1  0  0  0
  3  6  1  0  0  0  0
  3  8  1  0  0  0  0
  4 13  1  0  0  0  0
  5  4  2  0  0  0  0
  6 14  1  6  0  0  0
  6  7  1  0  0  0  0
  6  9  1  0  0  0  0
  7 15  1  0  0  0  0
  7  8  1  0  0  0  0
  8  9  1  0  0  0  0
  8 17  1  1  0  0  0
  9 19  1  0  0  0  0
  9 18  1  0  0  0  0
 11  2  1  0  0  0  0
 12  2  1  0  0  0  0
 16  7  1  0  0  0  0
M TOR 0 0 1 2 3
M TOR 1 0 1 2 5
M TOR 2 0 1 2 7
M TOR 3 1 2 3 4
M TOR 4 1 2 3 12
M TOR 5 1 2 5 6
M TOR 6 1 2 5 8
M TOR 7 1 2 5 13
M TOR 8 1 2 7 6
M TOR 9 1 2 7 8
M TOR 10 1 2 7 16
M TOR 11 2 1 0 9
M TOR 12 2 5 6 7
M TOR 13 2 5 6 14
M TOR 14 2 5 6 15
M TOR 15 2 5 8 7
M TOR 16 2 5 8 17
M TOR 17 2 5 8 18
M TOR 18 2 7 6 14
M TOR 19 2 7 6 15
M TOR 20 2 7 8 17
M TOR 21 2 7 8 18
M TOR 22 3 2 1 10
M TOR 23 3 2 1 11
M TOR 24 3 2 5 6
M TOR 25 3 2 5 8
M TOR 26 3 2 5 13
M TOR 27 3 2 7 6
M TOR 28 3 2 7 8
M TOR 29 3 2 7 16
M TOR 30 4 3 2 5
M TOR 31 4 3 2 7
M TOR 32 5 2 1 10
M TOR 33 5 2 1 11
M TOR 34 5 2 3 12
M TOR 35 5 2 7 16
M TOR 36 5 6 7 8
M TOR 37 5 6 7 16
M TOR 38 5 8 7 16
M TOR 39 6 5 8 17
M TOR 40 6 5 8 18
M TOR 41 6 7 8 17
M TOR 42 6 7 8 18
M TOR 43 7 2 1 10
M TOR 44 7 2 1 11
M TOR 45 7 2 3 12
M TOR 46 7 2 5 13
M TOR 47 7 6 5 13
M TOR 48 7 8 5 13
M TOR 49 8 5 6 14
M TOR 50 8 5 6 15
M TOR 51 8 7 6 14
M TOR 52 8 7 6 15
M  END
$$$$
