gdb 2194	2.890117	1.885221	1.6382608	1.8472	72.88	-0.25352	0.09184	0.34536	910.235	0.159523	-422.570737	-422.563932	-422.562988	-422.601411	28.389
 OpenBabel02181911413D

 19 21  0  0  1  0  0  0  0  0999 V2000
   -0.0218    0.2555    0.3218 C   0  0  0  0  0  0  0  0  0  0  0  0
    1.4352   -0.0071   -0.0006 C   0  0  2  0  0  0  0  0  0  0  0  0
    1.9635    0.2325   -1.4441 C   0  0  0  0  0  0  0  0  0  0  0  0
    3.3170    0.6240   -0.8185 C   0  0  2  0  0  0  0  0  0  0  0  0
    4.0666   -0.5340   -0.4256 O   0  0  0  0  0  0  0  0  0  0  0  0
    3.4646   -0.9250    0.8049 C   0  0  2  0  0  0  0  0  0  0  0  0
    2.0099   -1.3499    0.5290 C   0  0  0  0  0  0  0  0  0  0  0  0
    3.3038    0.2862    1.5266 O   0  0  0  0  0  0  0  0  0  0  0  0
    2.5762    0.9601    0.5228 C   0  0  2  0  0  0  0  0  0  0  0  0
   -0.1997    0.2166    1.4023 H   0  0  0  0  0  0  0  0  0  0  0  0
   -0.3368    1.2415   -0.0374 H   0  0  0  0  0  0  0  0  0  0  0  0
   -0.6726   -0.4906   -0.1488 H   0  0  0  0  0  0  0  0  0  0  0  0
    1.9661   -0.6119   -2.1378 H   0  0  0  0  0  0  0  0  0  0  0  0
    1.4794    1.0943   -1.9167 H   0  0  0  0  0  0  0  0  0  0  0  0
    3.9838    1.3265   -1.3188 H   0  0  0  0  0  0  0  0  0  0  0  0
    4.1194   -1.6165    1.3328 H   0  0  0  0  0  0  0  0  0  0  0  0
    1.9378   -2.1640   -0.1957 H   0  0  0  0  0  0  0  0  0  0  0  0
    1.5263   -1.6546    1.4621 H   0  0  0  0  0  0  0  0  0  0  0  0
    2.3482    1.9875    0.7953 H   0  0  0  0  0  0  0  0  0  0  0  0
  1 10  1  0  0  0  0
  2  1  1  1  0  0  0
  2  9  1  0  0  0  0
  2  7  1  0  0  0  0
  3  4  1  0  0  0  0
  3  2  1  0  0  0  0
  4 15  1  6  0  0  0
  4  5  1  0  0  0  0
  4  9  1  0  0  0  0
  5  6  1  0  0  0  0
  6 16  1  1  0  0  0
  6  8  1  0  0  0  0
  7  6  1  0  0  0  0
  7 18  1  0  0  0  0
  9 19  1  1  0  0  0
  9  8  1  0  0  0  0
 11  1  1  0  0  0  0
 12  1  1  0  0  0  0
 13  3  1  0  0  0  0
 14  3  1  0  0  0  0
 17  7  1  0  0  0  0
M TOR 0 0 1 2 3
M TOR 1 0 1 2 12
M TOR 2 0 1 2 13
M TOR 3 0 1 6 5
M TOR 4 0 1 6 16
M TOR 5 0 1 6 17
M TOR 6 0 1 8 3
M TOR 7 0 1 8 7
M TOR 8 0 1 8 18
M TOR 9 1 2 3 4
M TOR 10 1 2 3 8
M TOR 11 1 2 3 14
M TOR 12 1 6 5 4
M TOR 13 1 6 5 7
M TOR 14 1 6 5 15
M TOR 15 1 8 3 4
M TOR 16 1 8 3 14
M TOR 17 1 8 7 5
M TOR 18 2 1 0 9
M TOR 19 2 1 0 10
M TOR 20 2 1 0 11
M TOR 21 2 1 6 5
M TOR 22 2 1 6 16
M TOR 23 2 1 6 17
M TOR 24 2 1 8 7
M TOR 25 2 1 8 18
M TOR 26 2 3 4 5
M TOR 27 2 3 8 7
M TOR 28 2 3 8 18
M TOR 29 3 2 1 6
M TOR 30 3 4 5 6
M TOR 31 3 4 5 7
M TOR 32 3 4 5 15
M TOR 33 3 8 1 6
M TOR 34 3 8 7 5
M TOR 35 4 3 2 12
M TOR 36 4 3 2 13
M TOR 37 4 3 8 7
M TOR 38 4 3 8 18
M TOR 39 4 5 6 16
M TOR 40 4 5 6 17
M TOR 41 4 5 7 8
M TOR 42 5 4 3 8
M TOR 43 5 4 3 14
M TOR 44 5 6 1 8
M TOR 45 5 7 8 18
M TOR 46 6 1 0 9
M TOR 47 6 1 0 10
M TOR 48 6 1 0 11
M TOR 49 6 1 2 12
M TOR 50 6 1 2 13
M TOR 51 6 1 8 7
M TOR 52 6 1 8 18
M TOR 53 6 5 7 8
M TOR 54 7 5 6 16
M TOR 55 7 5 6 17
M TOR 56 7 8 3 14
M TOR 57 8 1 0 9
M TOR 58 8 1 0 10
M TOR 59 8 1 0 11
M TOR 60 8 1 2 12
M TOR 61 8 1 2 13
M TOR 62 8 1 6 16
M TOR 63 8 1 6 17
M TOR 64 8 3 2 12
M TOR 65 8 3 2 13
M TOR 66 8 7 5 15
M  END
$$$$
