gdb 3917	3.2207116	1.3445809	1.1552637	2.5233	77.23	-0.2281	0.07229	0.30039	1121.9321	0.154992	-422.444508	-422.436252	-422.435308	-422.476653	32.901
 OpenBabel02181911413D

 19 21  0  0  1  0  0  0  0  0999 V2000
    0.9485    3.4008    4.0470 C   0  0  0  0  0  0  0  0  0  0  0  0
    0.1508    2.1933    3.6560 C   0  0  2  0  0  0  0  0  0  0  0  0
   -0.4371    1.0492    4.5962 C   0  0  0  0  0  0  0  0  0  0  0  0
   -1.0021    0.9059    3.1659 C   0  0  2  0  0  0  0  0  0  0  0  0
   -1.5792    0.2911    1.8898 C   0  0  0  0  0  0  0  0  0  0  0  0
   -0.3800    1.0363    1.1475 C   0  0  2  0  0  0  0  0  0  0  0  0
    0.2656    0.3631    0.1049 O   0  0  0  0  0  0  0  0  0  0  0  0
    0.3712    1.1219    2.5382 C   0  0  1  0  0  0  0  0  0  0  0  0
   -1.2138    2.3944    3.1466 O   0  0  0  0  0  0  0  0  0  0  0  0
    0.4349    3.9620    4.8339 H   0  0  0  0  0  0  0  0  0  0  0  0
    1.9345    3.1029    4.4166 H   0  0  0  0  0  0  0  0  0  0  0  0
    1.0854    4.0570    3.1824 H   0  0  0  0  0  0  0  0  0  0  0  0
    0.2407    0.2659    4.9469 H   0  0  0  0  0  0  0  0  0  0  0  0
   -1.1188    1.4069    5.3701 H   0  0  0  0  0  0  0  0  0  0  0  0
   -1.4323   -0.7936    1.8495 H   0  0  0  0  0  0  0  0  0  0  0  0
   -2.6070    0.5406    1.6174 H   0  0  0  0  0  0  0  0  0  0  0  0
   -0.6879    2.0023    0.7546 H   0  0  0  0  0  0  0  0  0  0  0  0
    0.5676   -0.4911    0.4319 H   0  0  0  0  0  0  0  0  0  0  0  0
    1.1426    0.3587    2.6814 H   0  0  0  0  0  0  0  0  0  0  0  0
  1 11  1  0  0  0  0
  1 10  1  0  0  0  0
  2  1  1  1  0  0  0
  2  3  1  0  0  0  0
  3 13  1  0  0  0  0
  3 14  1  0  0  0  0
  4  9  1  6  0  0  0
  4  3  1  0  0  0  0
  5  4  1  0  0  0  0
  6 17  1  6  0  0  0
  6  5  1  0  0  0  0
  6  8  1  0  0  0  0
  7 18  1  0  0  0  0
  7  6  1  0  0  0  0
  8 19  1  1  0  0  0
  8  4  1  0  0  0  0
  8  2  1  0  0  0  0
  9  2  1  0  0  0  0
 12  1  1  0  0  0  0
 15  5  1  0  0  0  0
 16  5  1  0  0  0  0
M TOR 0 0 1 2 3
M TOR 1 0 1 2 12
M TOR 2 0 1 2 13
M TOR 3 0 1 7 3
M TOR 4 0 1 7 5
M TOR 5 0 1 7 18
M TOR 6 0 1 8 3
M TOR 7 1 2 3 4
M TOR 8 1 2 3 7
M TOR 9 1 2 3 8
M TOR 10 1 7 3 4
M TOR 11 1 7 3 8
M TOR 12 1 7 5 4
M TOR 13 1 7 5 6
M TOR 14 1 7 5 16
M TOR 15 1 8 3 4
M TOR 16 2 1 0 9
M TOR 17 2 1 0 10
M TOR 18 2 1 0 11
M TOR 19 2 1 7 5
M TOR 20 2 1 7 18
M TOR 21 2 3 4 5
M TOR 22 2 3 4 14
M TOR 23 2 3 4 15
M TOR 24 2 3 7 5
M TOR 25 2 3 7 18
M TOR 26 3 4 5 6
M TOR 27 3 4 5 7
M TOR 28 3 4 5 16
M TOR 29 3 7 5 6
M TOR 30 3 7 5 16
M TOR 31 4 3 2 12
M TOR 32 4 3 2 13
M TOR 33 4 3 7 18
M TOR 34 4 5 6 17
M TOR 35 4 5 7 18
M TOR 36 5 4 3 8
M TOR 37 5 7 1 8
M TOR 38 5 7 3 8
M TOR 39 6 5 4 14
M TOR 40 6 5 4 15
M TOR 41 6 5 7 18
M TOR 42 7 1 0 9
M TOR 43 7 1 0 10
M TOR 44 7 1 0 11
M TOR 45 7 1 2 12
M TOR 46 7 1 2 13
M TOR 47 7 3 2 12
M TOR 48 7 3 2 13
M TOR 49 7 3 4 14
M TOR 50 7 3 4 15
M TOR 51 7 5 4 14
M TOR 52 7 5 4 15
M TOR 53 7 5 6 17
M TOR 54 8 1 0 9
M TOR 55 8 1 0 10
M TOR 56 8 1 0 11
M TOR 57 8 1 2 12
M TOR 58 8 1 2 13
M TOR 59 8 1 7 18
M TOR 60 8 3 2 12
M TOR 61 8 3 2 13
M TOR 62 8 3 4 14
M TOR 63 8 3 4 15
M TOR 64 8 3 7 18
M  END
$$$$
