gdb 3734	2.837868	1.3451144	1.1273896	1.5722	76.3	-0.2506	0.05382	0.30441999999999997	1160.7849	0.155123	-422.50624	-422.497516	-422.496572	-422.53959	32.635
 OpenBabel02181911413D

 19 21  0  0  1  0  0  0  0  0999 V2000
    0.0330   -0.1469   -0.3542 C   0  0  0  0  0  0  0  0  0  0  0  0
    1.0423    0.3267    0.6566 C   0  0  2  0  0  0  0  0  0  0  0  0
    2.2390    0.9474    0.1407 O   0  0  0  0  0  0  0  0  0  0  0  0
    2.3638   -0.2878    0.8172 C   0  0  2  0  0  0  0  0  0  0  0  0
    2.9370   -1.5968    0.2515 C   0  0  0  0  0  0  0  0  0  0  0  0
    3.4483   -1.9425    1.6900 C   0  0  0  0  0  0  0  0  0  0  0  0
    3.1390   -0.4948    2.0980 C   0  0  1  0  0  0  0  0  0  0  0  0
    3.9560    0.4838    2.8151 C   0  0  0  0  0  0  0  0  0  0  0  0
    2.7388   -0.0407    3.3740 O   0  0  0  0  0  0  0  0  0  0  0  0
   -0.6915   -0.8204    0.1167 H   0  0  0  0  0  0  0  0  0  0  0  0
   -0.5202    0.7017   -0.7697 H   0  0  0  0  0  0  0  0  0  0  0  0
    0.5188   -0.6745   -1.1790 H   0  0  0  0  0  0  0  0  0  0  0  0
    0.6368    0.8376    1.5309 H   0  0  0  0  0  0  0  0  0  0  0  0
    2.2256   -2.2936   -0.1959 H   0  0  0  0  0  0  0  0  0  0  0  0
    3.7497   -1.4130   -0.4553 H   0  0  0  0  0  0  0  0  0  0  0  0
    2.8029   -2.6566    2.2073 H   0  0  0  0  0  0  0  0  0  0  0  0
    4.4862   -2.2679    1.7787 H   0  0  0  0  0  0  0  0  0  0  0  0
    4.8711    0.1631    3.3111 H   0  0  0  0  0  0  0  0  0  0  0  0
    3.9166    1.5294    2.5156 H   0  0  0  0  0  0  0  0  0  0  0  0
  1 10  1  0  0  0  0
  1  2  1  0  0  0  0
  2  4  1  0  0  0  0
  2 13  1  1  0  0  0
  3  2  1  0  0  0  0
  4  3  1  6  0  0  0
  4  7  1  0  0  0  0
  5  4  1  0  0  0  0
  5  6  1  0  0  0  0
  6 17  1  0  0  0  0
  6  7  1  0  0  0  0
  6 16  1  0  0  0  0
  7  8  1  0  0  0  0
  7  9  1  1  0  0  0
  8 18  1  0  0  0  0
  8  9  1  0  0  0  0
 11  1  1  0  0  0  0
 12  1  1  0  0  0  0
 14  5  1  0  0  0  0
 15  5  1  0  0  0  0
 19  8  1  0  0  0  0
M TOR 0 0 1 2 3
M TOR 1 0 1 3 4
M TOR 2 0 1 3 6
M TOR 3 1 2 3 4
M TOR 4 1 2 3 6
M TOR 5 1 3 4 5
M TOR 6 1 3 4 13
M TOR 7 1 3 4 14
M TOR 8 1 3 6 5
M TOR 9 1 3 6 7
M TOR 10 1 3 6 8
M TOR 11 2 1 0 9
M TOR 12 2 1 0 10
M TOR 13 2 1 0 11
M TOR 14 2 3 1 12
M TOR 15 2 3 4 5
M TOR 16 2 3 4 13
M TOR 17 2 3 4 14
M TOR 18 2 3 6 5
M TOR 19 2 3 6 7
M TOR 20 2 3 6 8
M TOR 21 3 1 0 9
M TOR 22 3 1 0 10
M TOR 23 3 1 0 11
M TOR 24 3 4 5 6
M TOR 25 3 4 5 15
M TOR 26 3 4 5 16
M TOR 27 3 6 5 15
M TOR 28 3 6 5 16
M TOR 29 3 6 7 8
M TOR 30 3 6 7 17
M TOR 31 3 6 7 18
M TOR 32 4 3 1 12
M TOR 33 4 3 6 7
M TOR 34 4 3 6 8
M TOR 35 4 5 6 7
M TOR 36 4 5 6 8
M TOR 37 5 6 7 8
M TOR 38 5 6 7 17
M TOR 39 5 6 7 18
M TOR 40 6 3 1 12
M TOR 41 6 3 4 13
M TOR 42 6 3 4 14
M TOR 43 6 5 4 13
M TOR 44 6 5 4 14
M TOR 45 6 8 7 17
M TOR 46 6 8 7 18
M TOR 47 7 6 5 15
M TOR 48 7 6 5 16
M TOR 49 8 6 5 15
M TOR 50 8 6 5 16
M  END
$$$$
