gdb 5156	2.2449272	1.4543062	1.09647	2.4764	75.75	-0.23994	-0.01971	0.22022999999999998	1160.3443	0.155976	-422.536381	-422.527359	-422.526414	-422.570637	32.88
 OpenBabel02181911423D

 19 20  0  0  1  0  0  0  0  0999 V2000
   -0.6670   -1.7325   -0.5507 O   0  0  0  0  0  0  0  0  0  0  0  0
   -0.1211   -0.5043   -0.0795 C   0  0  0  0  0  0  0  0  0  0  0  0
   -0.5031    0.6525   -0.9501 C   0  0  2  0  0  0  0  0  0  0  0  0
    0.2871    1.0765   -2.1684 C   0  0  0  0  0  0  0  0  0  0  0  0
    0.0552    2.0730   -1.0686 C   0  0  1  0  0  0  0  0  0  0  0  0
   -1.3612    2.6577   -1.1731 C   0  0  0  0  0  0  0  0  0  0  0  0
   -1.9475    1.2205   -1.0487 C   0  0  1  0  0  0  0  0  0  0  0  0
   -2.7471    0.6457   -2.1842 C   0  0  0  0  0  0  0  0  0  0  0  0
   -2.9711    1.2106   -3.2273 O   0  0  0  0  0  0  0  0  0  0  0  0
   -0.3370   -1.8671   -1.4458 H   0  0  0  0  0  0  0  0  0  0  0  0
   -0.5276   -0.3795    0.9306 H   0  0  0  0  0  0  0  0  0  0  0  0
    0.9757   -0.5559    0.0124 H   0  0  0  0  0  0  0  0  0  0  0  0
    1.2927    0.6691   -2.2197 H   0  0  0  0  0  0  0  0  0  0  0  0
   -0.1964    1.2031   -3.1336 H   0  0  0  0  0  0  0  0  0  0  0  0
    0.8771    2.5130   -0.5168 H   0  0  0  0  0  0  0  0  0  0  0  0
   -1.6355    3.2880   -0.3254 H   0  0  0  0  0  0  0  0  0  0  0  0
   -1.5970    3.1799   -2.1033 H   0  0  0  0  0  0  0  0  0  0  0  0
   -2.4860    1.0538   -0.1095 H   0  0  0  0  0  0  0  0  0  0  0  0
   -3.0867   -0.4013   -2.0130 H   0  0  0  0  0  0  0  0  0  0  0  0
  1  2  1  0  0  0  0
  2 12  1  0  0  0  0
  2 11  1  0  0  0  0
  3  2  1  1  0  0  0
  4  5  1  0  0  0  0
  4  3  1  0  0  0  0
  5  3  1  0  0  0  0
  5 15  1  1  0  0  0
  6  5  1  0  0  0  0
  6  7  1  0  0  0  0
  6 16  1  0  0  0  0
  7  3  1  0  0  0  0
  7 18  1  1  0  0  0
  8 19  1  0  0  0  0
  8  7  1  0  0  0  0
  9  8  2  0  0  0  0
 10  1  1  0  0  0  0
 13  4  1  0  0  0  0
 14  4  1  0  0  0  0
 17  6  1  0  0  0  0
M TOR 0 0 1 2 3
M TOR 1 0 1 2 4
M TOR 2 0 1 2 6
M TOR 3 1 2 3 4
M TOR 4 1 2 3 12
M TOR 5 1 2 3 13
M TOR 6 1 2 4 5
M TOR 7 1 2 4 14
M TOR 8 1 2 6 5
M TOR 9 1 2 6 7
M TOR 10 1 2 6 17
M TOR 11 2 1 0 9
M TOR 12 2 3 4 5
M TOR 13 2 3 4 14
M TOR 14 2 4 3 12
M TOR 15 2 4 3 13
M TOR 16 2 4 5 6
M TOR 17 2 4 5 15
M TOR 18 2 4 5 16
M TOR 19 2 6 5 15
M TOR 20 2 6 5 16
M TOR 21 2 6 7 8
M TOR 22 2 6 7 18
M TOR 23 3 2 1 10
M TOR 24 3 2 1 11
M TOR 25 3 2 6 5
M TOR 26 3 2 6 7
M TOR 27 3 2 6 17
M TOR 28 3 4 2 6
M TOR 29 3 4 5 6
M TOR 30 3 4 5 15
M TOR 31 3 4 5 16
M TOR 32 4 2 1 10
M TOR 33 4 2 1 11
M TOR 34 4 2 6 7
M TOR 35 4 2 6 17
M TOR 36 4 5 6 7
M TOR 37 4 5 6 17
M TOR 38 5 4 3 12
M TOR 39 5 4 3 13
M TOR 40 5 6 7 8
M TOR 41 5 6 7 18
M TOR 42 6 2 1 10
M TOR 43 6 2 1 11
M TOR 44 6 2 3 12
M TOR 45 6 2 3 13
M TOR 46 6 2 4 14
M TOR 47 6 5 4 14
M TOR 48 7 6 5 15
M TOR 49 7 6 5 16
M TOR 50 8 7 6 17
M  END
$$$$
