gdb 2086	2.5993578	1.6141729	1.2482921	0.8453	76.29	-0.24769	-0.00861	0.23908	1050.3393	0.157973	-422.535812	-422.527745	-422.526801	-422.567857	31.885
 OpenBabel02181911403D

 19 20  0  0  1  0  0  0  0  0999 V2000
    0.3329    0.3760    0.7392 O   0  0  0  0  0  0  0  0  0  0  0  0
   -0.9700    0.7590    0.3679 C   0  0  1  0  0  0  0  0  0  0  0  0
   -2.0279    0.0668    1.1680 C   0  0  0  0  0  0  0  0  0  0  0  0
   -1.7983    1.5567    1.3605 C   0  0  2  0  0  0  0  0  0  0  0  0
   -2.8554    2.5028    0.8283 C   0  0  0  0  0  0  0  0  0  0  0  0
   -2.3622    3.6846    0.2145 O   0  0  0  0  0  0  0  0  0  0  0  0
   -1.2304    3.5140   -0.6343 C   0  0  0  0  0  0  0  0  0  0  0  0
   -1.2557    2.2991   -1.5440 C   0  0  0  0  0  0  0  0  0  0  0  0
   -1.1318    1.0508   -1.0864 C   0  0  0  0  0  0  0  0  0  0  0  0
    0.9318    1.0776    0.4592 H   0  0  0  0  0  0  0  0  0  0  0  0
   -2.9409   -0.2496    0.6746 H   0  0  0  0  0  0  0  0  0  0  0  0
   -1.6672   -0.6001    1.9425 H   0  0  0  0  0  0  0  0  0  0  0  0
   -1.2832    1.8534    2.2690 H   0  0  0  0  0  0  0  0  0  0  0  0
   -3.4925    1.9546    0.1197 H   0  0  0  0  0  0  0  0  0  0  0  0
   -3.4999    2.8532    1.6413 H   0  0  0  0  0  0  0  0  0  0  0  0
   -1.1828    4.4298   -1.2297 H   0  0  0  0  0  0  0  0  0  0  0  0
   -0.3160    3.4814   -0.0219 H   0  0  0  0  0  0  0  0  0  0  0  0
   -1.3727    2.4738   -2.6104 H   0  0  0  0  0  0  0  0  0  0  0  0
   -1.1048    0.2055   -1.7712 H   0  0  0  0  0  0  0  0  0  0  0  0
  2  1  1  1  0  0  0
  2  3  1  0  0  0  0
  2  4  1  0  0  0  0
  3  4  1  0  0  0  0
  3 12  1  0  0  0  0
  4 13  1  1  0  0  0
  5  4  1  0  0  0  0
  5 15  1  0  0  0  0
  6  5  1  0  0  0  0
  7 17  1  0  0  0  0
  7  6  1  0  0  0  0
  8  9  2  0  0  0  0
  8  7  1  0  0  0  0
  9  2  1  0  0  0  0
 10  1  1  0  0  0  0
 11  3  1  0  0  0  0
 14  5  1  0  0  0  0
 16  7  1  0  0  0  0
 18  8  1  0  0  0  0
 19  9  1  0  0  0  0
M TOR 0 0 1 2 3
M TOR 1 0 1 2 10
M TOR 2 0 1 2 11
M TOR 3 0 1 3 4
M TOR 4 0 1 3 12
M TOR 5 0 1 8 7
M TOR 6 0 1 8 18
M TOR 7 1 2 3 4
M TOR 8 1 2 3 12
M TOR 9 1 3 2 10
M TOR 10 1 3 2 11
M TOR 11 1 3 4 5
M TOR 12 1 3 4 13
M TOR 13 1 3 4 14
M TOR 14 1 8 7 6
M TOR 15 1 8 7 17
M TOR 16 2 1 0 9
M TOR 17 2 1 8 7
M TOR 18 2 1 8 18
M TOR 19 2 3 1 8
M TOR 20 2 3 4 5
M TOR 21 2 3 4 13
M TOR 22 2 3 4 14
M TOR 23 3 1 0 9
M TOR 24 3 1 8 7
M TOR 25 3 1 8 18
M TOR 26 3 4 5 6
M TOR 27 4 3 1 8
M TOR 28 4 3 2 10
M TOR 29 4 3 2 11
M TOR 30 4 5 6 7
M TOR 31 4 5 6 15
M TOR 32 4 5 6 16
M TOR 33 5 4 3 12
M TOR 34 5 6 7 8
M TOR 35 5 6 7 17
M TOR 36 6 5 4 13
M TOR 37 6 5 4 14
M TOR 38 6 7 8 18
M TOR 39 8 1 0 9
M TOR 40 8 1 2 10
M TOR 41 8 1 2 11
M TOR 42 8 1 3 12
M TOR 43 8 7 6 15
M TOR 44 8 7 6 16
M  END
$$$$
