gdb 3895	4.1558988	1.13049	1.0617013	3.2566	75.48	-0.23562	0.07291	0.30852999999999997	1199.5288	0.155893	-422.50186	-422.493675	-422.492731	-422.534937	31.233
 OpenBabel02181911413D

 19 21  0  0  1  0  0  0  0  0999 V2000
    0.1918   -0.4066   -0.2936 C   0  0  0  0  0  0  0  0  0  0  0  0
    0.9039    0.6580    0.5149 C   0  0  1  0  0  0  0  0  0  0  0  0
    1.5863    0.2432    1.8378 C   0  0  0  0  0  0  0  0  0  0  0  0
    2.8755    0.7537    1.1659 C   0  0  1  0  0  0  0  0  0  0  0  0
    3.7260    1.8828    1.8533 C   0  0  0  0  0  0  0  0  0  0  0  0
    4.9026    0.8996    1.8607 C   0  0  2  0  0  0  0  0  0  0  0  0
    5.1731    0.5915    0.4924 O   0  0  0  0  0  0  0  0  0  0  0  0
    4.1251   -0.1315    1.1464 C   0  0  2  0  0  0  0  0  0  0  0  0
    2.1860    1.0260   -0.0579 O   0  0  0  0  0  0  0  0  0  0  0  0
   -0.7556   -0.6806    0.1841 H   0  0  0  0  0  0  0  0  0  0  0  0
   -0.0270   -0.0380   -1.3006 H   0  0  0  0  0  0  0  0  0  0  0  0
    0.8105   -1.3049   -0.3850 H   0  0  0  0  0  0  0  0  0  0  0  0
    0.2668    1.5471    0.6154 H   0  0  0  0  0  0  0  0  0  0  0  0
    1.2700    0.7734    2.7375 H   0  0  0  0  0  0  0  0  0  0  0  0
    1.5720   -0.8332    2.0295 H   0  0  0  0  0  0  0  0  0  0  0  0
    3.8923    2.7750    1.2466 H   0  0  0  0  0  0  0  0  0  0  0  0
    3.3451    2.1584    2.8400 H   0  0  0  0  0  0  0  0  0  0  0  0
    5.7109    0.7902    2.5731 H   0  0  0  0  0  0  0  0  0  0  0  0
    4.1912   -1.2146    1.1467 H   0  0  0  0  0  0  0  0  0  0  0  0
  1 10  1  0  0  0  0
  1  2  1  0  0  0  0
  2 13  1  1  0  0  0
  2  3  1  0  0  0  0
  3 15  1  0  0  0  0
  3 14  1  0  0  0  0
  4  9  1  6  0  0  0
  4  3  1  0  0  0  0
  4  5  1  0  0  0  0
  5  6  1  0  0  0  0
  5 17  1  0  0  0  0
  6 18  1  1  0  0  0
  7  8  1  0  0  0  0
  7  6  1  0  0  0  0
  8 19  1  1  0  0  0
  8  4  1  0  0  0  0
  8  6  1  0  0  0  0
  9  2  1  0  0  0  0
 11  1  1  0  0  0  0
 12  1  1  0  0  0  0
 16  5  1  0  0  0  0
M TOR 0 0 1 2 3
M TOR 1 0 1 2 13
M TOR 2 0 1 2 14
M TOR 3 0 1 8 3
M TOR 4 1 2 3 4
M TOR 5 1 2 3 7
M TOR 6 1 2 3 8
M TOR 7 1 8 3 4
M TOR 8 1 8 3 7
M TOR 9 2 1 0 9
M TOR 10 2 1 0 10
M TOR 11 2 1 0 11
M TOR 12 2 3 4 5
M TOR 13 2 3 4 15
M TOR 14 2 3 4 16
M TOR 15 2 3 7 5
M TOR 16 2 3 7 6
M TOR 17 2 3 7 18
M TOR 18 3 2 1 12
M TOR 19 3 4 5 6
M TOR 20 3 4 5 7
M TOR 21 3 4 5 17
M TOR 22 3 7 5 6
M TOR 23 3 7 5 17
M TOR 24 3 8 1 12
M TOR 25 4 3 2 13
M TOR 26 4 3 2 14
M TOR 27 4 3 7 6
M TOR 28 4 3 7 18
M TOR 29 4 5 6 7
M TOR 30 4 5 7 18
M TOR 31 5 4 3 8
M TOR 32 5 6 7 18
M TOR 33 5 7 3 8
M TOR 34 6 5 4 15
M TOR 35 6 5 4 16
M TOR 36 6 7 3 8
M TOR 37 6 7 5 17
M TOR 38 7 3 2 13
M TOR 39 7 3 2 14
M TOR 40 7 3 4 15
M TOR 41 7 3 4 16
M TOR 42 7 5 4 15
M TOR 43 7 5 4 16
M TOR 44 8 1 0 9
M TOR 45 8 1 0 10
M TOR 46 8 1 0 11
M TOR 47 8 1 2 13
M TOR 48 8 1 2 14
M TOR 49 8 3 2 13
M TOR 50 8 3 2 14
M TOR 51 8 3 4 15
M TOR 52 8 3 4 16
M TOR 53 8 3 7 18
M  END
$$$$
