
     RDKit          3D

 19 20  0  0  0  0  0  0  0  0999 V2000
    0.3140   -0.1114   -0.7710 C   0  0  0  0  0  0  0  0  0  0  0  0
    0.9729    0.2551    0.5392 C   0  0  0  0  0  0  0  0  0  0  0  0
    2.0577   -0.6080    0.8037 O   0  0  0  0  0  0  0  0  0  0  0  0
    2.9187    0.0944    1.6913 C   0  0  0  0  0  0  0  0  0  0  0  0
    4.3923   -0.1997    1.3564 C   0  0  0  0  0  0  0  0  0  0  0  0
    4.8324    1.0238    0.5888 C   0  0  0  0  0  0  0  0  0  0  0  0
    3.9117    1.9857    0.5732 C   0  0  0  0  0  0  0  0  0  0  0  0
    2.6660    1.5864    1.3194 C   0  0  0  0  0  0  0  0  0  0  0  0
    1.5107    1.5640    0.4764 O   0  0  0  0  0  0  0  0  0  0  0  0
   -0.0931   -1.1243   -0.7156 H   0  0  0  0  0  0  0  0  0  0  0  0
   -0.5008    0.5849   -0.9842 H   0  0  0  0  0  0  0  0  0  0  0  0
    1.0504   -0.0606   -1.5764 H   0  0  0  0  0  0  0  0  0  0  0  0
    0.2496    0.2016    1.3765 H   0  0  0  0  0  0  0  0  0  0  0  0
    2.6599   -0.1357    2.7327 H   0  0  0  0  0  0  0  0  0  0  0  0
    4.9889   -0.3420    2.2659 H   0  0  0  0  0  0  0  0  0  0  0  0
    4.4743   -1.1238    0.7736 H   0  0  0  0  0  0  0  0  0  0  0  0
    5.8057    1.0863    0.1134 H   0  0  0  0  0  0  0  0  0  0  0  0
    4.0048    2.9497    0.0875 H   0  0  0  0  0  0  0  0  0  0  0  0
    2.4641    2.2249    2.1900 H   0  0  0  0  0  0  0  0  0  0  0  0
  1  2  1  0
  2  3  1  0
  3  4  1  0
  4  5  1  0
  5  6  1  0
  6  7  2  0
  7  8  1  0
  8  9  1  0
  9  2  1  0
  8  4  1  0
  1 10  1  0
  1 11  1  0
  1 12  1  0
  2 13  1  0
  4 14  1  0
  5 15  1  0
  5 16  1  0
  6 17  1  0
  7 18  1  0
  8 19  1  0
M  END
$$$$
