
     RDKit          3D

 19 19  0  0  0  0  0  0  0  0999 V2000
    1.0036   -1.0035    3.8050 O   0  0  0  0  0  0  0  0  0  0  0  0
    0.8424    0.0609    3.2693 C   0  0  0  0  0  0  0  0  0  0  0  0
   -0.3941    0.4734    2.5034 C   0  0  0  0  0  0  0  0  0  0  0  0
   -1.1120    1.6792    3.1480 C   0  0  0  0  0  0  0  0  0  0  0  0
   -2.0190    2.1969    2.0222 C   0  0  0  0  0  0  0  0  0  0  0  0
   -1.1942    2.0048    0.7271 C   0  0  0  0  0  0  0  0  0  0  0  0
   -0.0675    0.9773    1.0678 C   0  0  0  0  0  0  0  0  0  0  0  0
   -0.0152   -0.1588    0.0703 C   0  0  0  0  0  0  0  0  0  0  0  0
    0.9509   -0.4767   -0.5707 O   0  0  0  0  0  0  0  0  0  0  0  0
    1.6239    0.8570    3.3187 H   0  0  0  0  0  0  0  0  0  0  0  0
   -1.0709   -0.3881    2.4665 H   0  0  0  0  0  0  0  0  0  0  0  0
   -1.6549    1.4034    4.0558 H   0  0  0  0  0  0  0  0  0  0  0  0
   -0.3709    2.4408    3.4242 H   0  0  0  0  0  0  0  0  0  0  0  0
   -2.9315    1.5926    1.9818 H   0  0  0  0  0  0  0  0  0  0  0  0
   -2.3277    3.2348    2.1723 H   0  0  0  0  0  0  0  0  0  0  0  0
   -1.8227    1.6473   -0.0955 H   0  0  0  0  0  0  0  0  0  0  0  0
   -0.7436    2.9412    0.3892 H   0  0  0  0  0  0  0  0  0  0  0  0
    0.9137    1.4628    1.0604 H   0  0  0  0  0  0  0  0  0  0  0  0
   -0.9850   -0.7023   -0.0385 H   0  0  0  0  0  0  0  0  0  0  0  0
  1  2  2  0
  2  3  1  0
  3  4  1  0
  4  5  1  0
  5  6  1  0
  6  7  1  0
  7  8  1  0
  8  9  2  0
  7  3  1  0
  2 10  1  0
  3 11  1  0
  4 12  1  0
  4 13  1  0
  5 14  1  0
  5 15  1  0
  6 16  1  0
  6 17  1  0
  7 18  1  0
  8 19  1  0
M  END
$$$$
