gdb 4907	1.9282521	1.6313748	1.0742333	1.6518	77.	-0.24861	-0.09172	0.15689	1184.9083	0.154422	-422.563898	-422.554153	-422.553209	-422.599312	34.643
 OpenBabel02181911413D

 19 19  0  0  0  0  0  0  0  0999 V2000
   -1.4400    2.0573   -2.4154 C   0  0  0  0  0  0  0  0  0  0  0  0
   -1.9527    1.9331   -0.9752 C   0  0  0  0  0  0  0  0  0  0  0  0
   -0.8900    2.2121    0.0802 C   0  0  0  0  0  0  0  0  0  0  0  0
   -0.5760    3.6699    0.3999 C   0  0  0  0  0  0  0  0  0  0  0  0
   -1.3388    2.8713    1.3965 C   0  0  0  0  0  0  0  0  0  0  0  0
    0.2627    1.2889    0.2855 C   0  0  0  0  0  0  0  0  0  0  0  0
    1.2423    1.5796    0.9466 O   0  0  0  0  0  0  0  0  0  0  0  0
    0.2750   -0.1552   -0.2533 C   0  0  0  0  0  0  0  0  0  0  0  0
   -0.6327   -0.7347   -0.7869 O   0  0  0  0  0  0  0  0  0  0  0  0
   -0.6772    1.3054   -2.6370 H   0  0  0  0  0  0  0  0  0  0  0  0
   -2.2567    1.9122   -3.1290 H   0  0  0  0  0  0  0  0  0  0  0  0
   -1.0046    3.0454   -2.5977 H   0  0  0  0  0  0  0  0  0  0  0  0
   -2.7616    2.6576   -0.8222 H   0  0  0  0  0  0  0  0  0  0  0  0
   -2.3846    0.9419   -0.8224 H   0  0  0  0  0  0  0  0  0  0  0  0
    0.4573    3.9008    0.6283 H   0  0  0  0  0  0  0  0  0  0  0  0
   -1.1071    4.4089   -0.1898 H   0  0  0  0  0  0  0  0  0  0  0  0
   -0.8211    2.5598    2.2962 H   0  0  0  0  0  0  0  0  0  0  0  0
   -2.4050    3.0358    1.5055 H   0  0  0  0  0  0  0  0  0  0  0  0
    1.2565   -0.6297   -0.0389 H   0  0  0  0  0  0  0  0  0  0  0  0
  1  2  1  0  0  0  0
  2 14  1  0  0  0  0
  2 13  1  0  0  0  0
  2  3  1  0  0  0  0
  3  6  1  0  0  0  0
  3  4  1  0  0  0  0
  3  5  1  0  0  0  0
  4 15  1  0  0  0  0
  4  5  1  0  0  0  0
  5 18  1  0  0  0  0
  5 17  1  0  0  0  0
  6  7  2  0  0  0  0
  8 19  1  0  0  0  0
  8  6  1  0  0  0  0
  9  8  2  0  0  0  0
 10  1  1  0  0  0  0
 11  1  1  0  0  0  0
 12  1  1  0  0  0  0
 16  4  1  0  0  0  0
M TOR 0 0 1 2 3
M TOR 1 0 1 2 4
M TOR 2 0 1 2 5
M TOR 3 1 2 3 4
M TOR 4 1 2 3 14
M TOR 5 1 2 3 15
M TOR 6 1 2 4 16
M TOR 7 1 2 4 17
M TOR 8 1 2 5 6
M TOR 9 1 2 5 7
M TOR 10 2 1 0 9
M TOR 11 2 1 0 10
M TOR 12 2 1 0 11
M TOR 13 2 3 4 16
M TOR 14 2 3 4 17
M TOR 15 2 4 3 14
M TOR 16 2 4 3 15
M TOR 17 2 5 7 8
M TOR 18 2 5 7 18
M TOR 19 3 2 1 12
M TOR 20 3 2 1 13
M TOR 21 3 2 5 6
M TOR 22 3 2 5 7
M TOR 23 3 4 2 5
M TOR 24 4 2 1 12
M TOR 25 4 2 1 13
M TOR 26 4 2 5 6
M TOR 27 4 2 5 7
M TOR 28 5 2 1 12
M TOR 29 5 2 1 13
M TOR 30 5 2 3 14
M TOR 31 5 2 3 15
M TOR 32 5 2 4 16
M TOR 33 5 2 4 17
M TOR 34 6 5 7 8
M TOR 35 6 5 7 18
M  END
$$$$
