gdb 5661	2.0327256	1.2598288	0.9026584	2.5615	78.04	-0.25174	0.01472	0.26646000000000003	1342.4318	0.154643	-422.505681	-422.495875	-422.494931	-422.54116	35.352
 OpenBabel02181911423D

 19 19  0  0  1  0  0  0  0  0999 V2000
    3.6489   -3.9876   -0.3087 C   0  0  0  0  0  0  0  0  0  0  0  0
    3.2060   -2.5351   -0.2426 C   0  0  2  0  0  0  0  0  0  0  0  0
    1.7774   -2.1885   -0.7150 C   0  0  1  0  0  0  0  0  0  0  0  0
    0.8769   -1.4069    0.2252 C   0  0  0  0  0  0  0  0  0  0  0  0
   -0.2027   -0.8325   -0.4833 O   0  0  0  0  0  0  0  0  0  0  0  0
    2.2825   -1.3081   -1.7571 O   0  0  0  0  0  0  0  0  0  0  0  0
    3.6610   -1.6037   -1.4072 C   0  0  1  0  0  0  0  0  0  0  0  0
    4.4427   -0.4288   -1.0650 C   0  0  0  0  0  0  0  0  0  0  0  0
    5.0984    0.5335   -0.7661 C   0  0  0  0  0  0  0  0  0  0  0  0
    3.1347   -4.5872    0.4498 H   0  0  0  0  0  0  0  0  0  0  0  0
    3.4282   -4.4260   -1.2879 H   0  0  0  0  0  0  0  0  0  0  0  0
    4.7255   -4.0796   -0.1317 H   0  0  0  0  0  0  0  0  0  0  0  0
    3.4368   -2.1031    0.7346 H   0  0  0  0  0  0  0  0  0  0  0  0
    1.2243   -3.0259   -1.1604 H   0  0  0  0  0  0  0  0  0  0  0  0
    0.4494   -2.0735    0.9833 H   0  0  0  0  0  0  0  0  0  0  0  0
    1.4741   -0.6396    0.7441 H   0  0  0  0  0  0  0  0  0  0  0  0
    0.1937   -0.3244   -1.2019 H   0  0  0  0  0  0  0  0  0  0  0  0
    4.1500   -2.1506   -2.2249 H   0  0  0  0  0  0  0  0  0  0  0  0
    5.6766    1.3868   -0.5094 H   0  0  0  0  0  0  0  0  0  0  0  0
  1  2  1  0  0  0  0
  1 12  1  0  0  0  0
  1 10  1  0  0  0  0
  2 13  1  1  0  0  0
  3 14  1  6  0  0  0
  3  2  1  0  0  0  0
  3  4  1  0  0  0  0
  4 16  1  0  0  0  0
  4 15  1  0  0  0  0
  5  4  1  0  0  0  0
  6  7  1  0  0  0  0
  6  3  1  0  0  0  0
  7 18  1  6  0  0  0
  7  8  1  0  0  0  0
  7  2  1  0  0  0  0
  8  9  3  0  0  0  0
  9 19  1  0  0  0  0
 11  1  1  0  0  0  0
 17  5  1  0  0  0  0
M TOR 0 0 1 2 3
M TOR 1 0 1 2 5
M TOR 2 0 1 2 13
M TOR 3 0 1 6 5
M TOR 4 0 1 6 7
M TOR 5 0 1 6 17
M TOR 6 1 2 3 4
M TOR 7 1 2 3 14
M TOR 8 1 2 3 15
M TOR 9 1 2 5 6
M TOR 10 1 6 7 8
M TOR 11 2 1 0 9
M TOR 12 2 1 0 10
M TOR 13 2 1 0 11
M TOR 14 2 1 6 7
M TOR 15 2 1 6 17
M TOR 16 2 3 4 16
M TOR 17 2 5 6 7
M TOR 18 2 5 6 17
M TOR 19 3 2 1 6
M TOR 20 3 2 1 12
M TOR 21 3 2 5 6
M TOR 22 4 3 2 5
M TOR 23 4 3 2 13
M TOR 24 5 2 1 12
M TOR 25 5 2 3 14
M TOR 26 5 2 3 15
M TOR 27 5 6 1 12
M TOR 28 5 6 7 8
M TOR 29 6 1 0 9
M TOR 30 6 1 0 10
M TOR 31 6 1 0 11
M TOR 32 6 1 2 13
M TOR 33 6 5 2 13
M TOR 34 6 7 8 18
M TOR 35 7 6 1 12
M TOR 36 8 7 6 17
M  END
$$$$
