
     RDKit          3D

 19 20  0  0  0  0  0  0  0  0999 V2000
    2.2410   -1.7530   -1.7153 C   0  0  0  0  0  0  0  0  0  0  0  0
    0.8245   -1.5606   -1.2139 C   0  0  0  0  0  0  0  0  0  0  0  0
   -0.3203   -1.7724   -2.2472 C   0  0  0  0  0  0  0  0  0  0  0  0
   -1.4618   -1.1268   -1.6635 O   0  0  0  0  0  0  0  0  0  0  0  0
   -1.0154   -0.5947   -0.3890 C   0  0  0  0  0  0  0  0  0  0  0  0
   -0.7116   -1.7771    0.5178 C   0  0  0  0  0  0  0  0  0  0  0  0
    0.3868   -2.3556    0.0120 C   0  0  0  0  0  0  0  0  0  0  0  0
    0.4111   -0.1231   -0.7453 C   0  0  0  0  0  0  0  0  0  0  0  0
    1.1904    0.4351    0.2766 O   0  0  0  0  0  0  0  0  0  0  0  0
    2.9588   -1.4111   -0.9633 H   0  0  0  0  0  0  0  0  0  0  0  0
    2.4536   -2.8045   -1.9369 H   0  0  0  0  0  0  0  0  0  0  0  0
    2.4167   -1.1765   -2.6298 H   0  0  0  0  0  0  0  0  0  0  0  0
   -0.0800   -1.2914   -3.2048 H   0  0  0  0  0  0  0  0  0  0  0  0
   -0.5380   -2.8317   -2.4302 H   0  0  0  0  0  0  0  0  0  0  0  0
   -1.7416    0.1428   -0.0527 H   0  0  0  0  0  0  0  0  0  0  0  0
   -1.3406   -2.1364    1.3221 H   0  0  0  0  0  0  0  0  0  0  0  0
    0.8466   -3.2857    0.3264 H   0  0  0  0  0  0  0  0  0  0  0  0
    0.4058    0.6019   -1.5637 H   0  0  0  0  0  0  0  0  0  0  0  0
    1.1739   -0.1891    1.0138 H   0  0  0  0  0  0  0  0  0  0  0  0
  1  2  1  0
  2  3  1  0
  3  4  1  0
  4  5  1  0
  5  6  1  0
  6  7  2  0
  5  8  1  0
  8  9  1  0
  7  2  1  0
  8  2  1  0
  1 10  1  0
  1 11  1  0
  1 12  1  0
  3 13  1  0
  3 14  1  0
  5 15  1  0
  6 16  1  0
  7 17  1  0
  8 18  1  0
  9 19  1  0
M  END
$$$$
