
     RDKit          3D

 19 21  0  0  0  0  0  0  0  0999 V2000
    1.2826   -0.2420   -0.0150 C   0  0  0  0  0  0  0  0  0  0  0  0
   -0.1195   -0.1162    0.1285 O   0  0  0  0  0  0  0  0  0  0  0  0
   -0.5318    0.6016    1.2296 C   0  0  0  0  0  0  0  0  0  0  0  0
   -0.1569    0.3274    2.6991 C   0  0  0  0  0  0  0  0  0  0  0  0
   -0.8327    1.7033    2.9467 C   0  0  0  0  0  0  0  0  0  0  0  0
   -2.3117    1.3838    2.6401 C   0  0  0  0  0  0  0  0  0  0  0  0
   -2.0302    1.1065    1.1533 C   0  0  0  0  0  0  0  0  0  0  0  0
   -1.5839    2.4207    0.7014 O   0  0  0  0  0  0  0  0  0  0  0  0
   -0.4072    2.1377    1.4581 C   0  0  0  0  0  0  0  0  0  0  0  0
    1.7280   -0.8246    0.8030 H   0  0  0  0  0  0  0  0  0  0  0  0
    1.4582   -0.7656   -0.9569 H   0  0  0  0  0  0  0  0  0  0  0  0
    1.7748    0.7398   -0.0563 H   0  0  0  0  0  0  0  0  0  0  0  0
   -0.5713   -0.5457    3.2112 H   0  0  0  0  0  0  0  0  0  0  0  0
    0.9267    0.3644    2.8442 H   0  0  0  0  0  0  0  0  0  0  0  0
   -0.5841    2.3076    3.8154 H   0  0  0  0  0  0  0  0  0  0  0  0
   -2.6819    0.5250    3.2061 H   0  0  0  0  0  0  0  0  0  0  0  0
   -2.9974    2.2260    2.7501 H   0  0  0  0  0  0  0  0  0  0  0  0
   -2.7706    0.6408    0.5055 H   0  0  0  0  0  0  0  0  0  0  0  0
    0.4461    2.7916    1.2864 H   0  0  0  0  0  0  0  0  0  0  0  0
  1  2  1  0
  2  3  1  0
  3  4  1  0
  4  5  1  0
  5  6  1  0
  6  7  1  0
  7  8  1  0
  8  9  1  0
  7  3  1  0
  9  3  1  0
  9  5  1  0
  1 10  1  0
  1 11  1  0
  1 12  1  0
  4 13  1  0
  4 14  1  0
  5 15  1  0
  6 16  1  0
  6 17  1  0
  7 18  1  0
  9 19  1  0
M  END
$$$$
