
     RDKit          3D

 19 20  0  0  0  0  0  0  0  0999 V2000
   -0.9007    3.9622    1.6282 C   0  0  0  0  0  0  0  0  0  0  0  0
   -2.0349    3.1439    1.3317 O   0  0  0  0  0  0  0  0  0  0  0  0
   -0.7551    2.7326    0.8422 C   0  0  0  0  0  0  0  0  0  0  0  0
   -0.5748    2.7489   -0.6651 C   0  0  0  0  0  0  0  0  0  0  0  0
   -1.2177    1.5118   -1.3103 C   0  0  0  0  0  0  0  0  0  0  0  0
   -0.4413    0.3500   -1.0629 O   0  0  0  0  0  0  0  0  0  0  0  0
    0.8259    0.4018   -1.6879 C   0  0  0  0  0  0  0  0  0  0  0  0
    1.5187    1.7254   -1.5172 C   0  0  0  0  0  0  0  0  0  0  0  0
    0.8879    2.7961   -1.0406 C   0  0  0  0  0  0  0  0  0  0  0  0
   -0.8792    4.9282    1.1238 H   0  0  0  0  0  0  0  0  0  0  0  0
   -0.5964    3.9810    2.6737 H   0  0  0  0  0  0  0  0  0  0  0  0
   -0.3515    1.8479    1.3350 H   0  0  0  0  0  0  0  0  0  0  0  0
   -1.0856    3.6441   -1.0439 H   0  0  0  0  0  0  0  0  0  0  0  0
   -2.2058    1.3195   -0.8840 H   0  0  0  0  0  0  0  0  0  0  0  0
   -1.3327    1.6754   -2.3938 H   0  0  0  0  0  0  0  0  0  0  0  0
    1.4204   -0.4024   -1.2381 H   0  0  0  0  0  0  0  0  0  0  0  0
    0.7379    0.1647   -2.7651 H   0  0  0  0  0  0  0  0  0  0  0  0
    2.5631    1.7703   -1.8153 H   0  0  0  0  0  0  0  0  0  0  0  0
    1.4159    3.7358   -0.9024 H   0  0  0  0  0  0  0  0  0  0  0  0
  1  2  1  0
  2  3  1  0
  3  4  1  0
  4  5  1  0
  5  6  1  0
  6  7  1  0
  7  8  1  0
  8  9  2  0
  3  1  1  0
  9  4  1  0
  1 10  1  0
  1 11  1  0
  3 12  1  0
  4 13  1  0
  5 14  1  0
  5 15  1  0
  7 16  1  0
  7 17  1  0
  8 18  1  0
  9 19  1  0
M  END
$$$$
