gdb 2653	2.160796	1.4883116	1.1076898	4.3421	76.63	-0.26559	0.01051	0.2761	1181.8072	0.156047	-422.573289	-422.564137	-422.563193	-422.607059	33.263
 OpenBabel02181911413D

 19 20  0  0  1  0  0  0  0  0999 V2000
   -2.4897    2.7754    1.5389 C   0  0  0  0  0  0  0  0  0  0  0  0
   -1.1743    2.4365    0.8743 C   0  0  2  0  0  0  0  0  0  0  0  0
   -1.0131    2.4794   -0.6188 C   0  0  1  0  0  0  0  0  0  0  0  0
    0.2576    2.9829   -1.2687 C   0  0  0  0  0  0  0  0  0  0  0  0
   -1.0268    1.1472    0.0970 C   0  0  2  0  0  0  0  0  0  0  0  0
   -1.9359   -0.0678   -0.0264 C   0  0  0  0  0  0  0  0  0  0  0  0
   -0.7576   -0.9332    0.0991 O   0  0  0  0  0  0  0  0  0  0  0  0
    0.0875    0.1528    0.2111 C   0  0  0  0  0  0  0  0  0  0  0  0
    1.2702    0.1466    0.3513 O   0  0  0  0  0  0  0  0  0  0  0  0
   -2.5891    2.2749    2.5079 H   0  0  0  0  0  0  0  0  0  0  0  0
   -2.5701    3.8539    1.7107 H   0  0  0  0  0  0  0  0  0  0  0  0
   -3.3403    2.4750    0.9181 H   0  0  0  0  0  0  0  0  0  0  0  0
   -0.2870    2.7032    1.4447 H   0  0  0  0  0  0  0  0  0  0  0  0
   -1.9292    2.6875   -1.1692 H   0  0  0  0  0  0  0  0  0  0  0  0
    1.1377    2.6677   -0.7023 H   0  0  0  0  0  0  0  0  0  0  0  0
    0.3617    2.5924   -2.2863 H   0  0  0  0  0  0  0  0  0  0  0  0
    0.2549    4.0766   -1.3263 H   0  0  0  0  0  0  0  0  0  0  0  0
   -2.6352   -0.2477    0.7939 H   0  0  0  0  0  0  0  0  0  0  0  0
   -2.4250   -0.2211   -0.9914 H   0  0  0  0  0  0  0  0  0  0  0  0
  1 11  1  0  0  0  0
  1 10  1  0  0  0  0
  2 13  1  1  0  0  0
  2  1  1  0  0  0  0
  3 14  1  6  0  0  0
  3  5  1  0  0  0  0
  3  2  1  0  0  0  0
  4 15  1  0  0  0  0
  4  3  1  0  0  0  0
  5  8  1  1  0  0  0
  5  2  1  0  0  0  0
  6  5  1  0  0  0  0
  6  7  1  0  0  0  0
  6 18  1  0  0  0  0
  7  8  1  0  0  0  0
  8  9  2  0  0  0  0
 12  1  1  0  0  0  0
 16  4  1  0  0  0  0
 17  4  1  0  0  0  0
 19  6  1  0  0  0  0
M TOR 0 0 1 2 3
M TOR 1 0 1 2 4
M TOR 2 0 1 2 13
M TOR 3 0 1 4 5
M TOR 4 0 1 4 7
M TOR 5 1 2 3 14
M TOR 6 1 2 3 15
M TOR 7 1 2 3 16
M TOR 8 1 2 4 5
M TOR 9 1 2 4 7
M TOR 10 1 4 2 3
M TOR 11 1 4 2 13
M TOR 12 1 4 5 6
M TOR 13 1 4 5 17
M TOR 14 1 4 5 18
M TOR 15 1 4 7 6
M TOR 16 1 4 7 8
M TOR 17 2 1 0 9
M TOR 18 2 1 0 10
M TOR 19 2 1 0 11
M TOR 20 2 4 1 12
M TOR 21 2 4 5 6
M TOR 22 2 4 5 17
M TOR 23 2 4 5 18
M TOR 24 2 4 7 6
M TOR 25 2 4 7 8
M TOR 26 3 2 1 12
M TOR 27 3 2 4 5
M TOR 28 3 2 4 7
M TOR 29 4 1 0 9
M TOR 30 4 1 0 10
M TOR 31 4 1 0 11
M TOR 32 4 2 3 14
M TOR 33 4 2 3 15
M TOR 34 4 2 3 16
M TOR 35 4 5 6 7
M TOR 36 5 4 1 12
M TOR 37 5 4 2 13
M TOR 38 5 4 7 8
M TOR 39 5 6 7 8
M TOR 40 7 4 1 12
M TOR 41 7 4 2 13
M TOR 42 7 4 5 17
M TOR 43 7 4 5 18
M TOR 44 7 6 5 17
M TOR 45 7 6 5 18
M  END
$$$$
