gdb 4402	4.4561134	0.9575746	0.8265735	0.592	78.09	-0.24719	0.03611	0.2833	1367.8619	0.156532	-422.531839	-422.522956	-422.522012	-422.565096	33.887
 OpenBabel02181911413D

 19 19  0  0  1  0  0  0  0  0999 V2000
   -2.4999    4.6204   -0.9904 O   0  0  0  0  0  0  0  0  0  0  0  0
   -2.0712    3.6180   -0.0813 C   0  0  1  0  0  0  0  0  0  0  0  0
   -2.6784    2.2902   -0.5257 C   0  0  0  0  0  0  0  0  0  0  0  0
   -2.1190    1.1359    0.3159 C   0  0  0  0  0  0  0  0  0  0  0  0
   -0.5781    1.1731    0.3169 C   0  0  1  0  0  0  0  0  0  0  0  0
   -0.1023    2.4412    0.7665 O   0  0  0  0  0  0  0  0  0  0  0  0
   -0.5407    3.4982   -0.0693 C   0  0  0  0  0  0  0  0  0  0  0  0
   -0.0039    0.1380    1.1704 C   0  0  0  0  0  0  0  0  0  0  0  0
    0.4375   -0.7402    1.8606 C   0  0  0  0  0  0  0  0  0  0  0  0
   -2.2023    5.4746   -0.6610 H   0  0  0  0  0  0  0  0  0  0  0  0
   -2.4084    3.8429    0.9433 H   0  0  0  0  0  0  0  0  0  0  0  0
   -3.7695    2.3338   -0.4560 H   0  0  0  0  0  0  0  0  0  0  0  0
   -2.4305    2.1425   -1.5850 H   0  0  0  0  0  0  0  0  0  0  0  0
   -2.4608    1.2125    1.3539 H   0  0  0  0  0  0  0  0  0  0  0  0
   -2.4589    0.1698   -0.0700 H   0  0  0  0  0  0  0  0  0  0  0  0
   -0.2271    1.0111   -0.7187 H   0  0  0  0  0  0  0  0  0  0  0  0
   -0.0763    4.4088    0.3243 H   0  0  0  0  0  0  0  0  0  0  0  0
   -0.1917    3.3566   -1.1062 H   0  0  0  0  0  0  0  0  0  0  0  0
    0.8393   -1.5101    2.4718 H   0  0  0  0  0  0  0  0  0  0  0  0
  1 10  1  0  0  0  0
  1  2  1  0  0  0  0
  2  7  1  0  0  0  0
  2 11  1  1  0  0  0
  3 12  1  0  0  0  0
  3  2  1  0  0  0  0
  3  4  1  0  0  0  0
  4  5  1  0  0  0  0
  4 14  1  0  0  0  0
  5 16  1  6  0  0  0
  5  6  1  0  0  0  0
  5  8  1  0  0  0  0
  7 17  1  0  0  0  0
  7  6  1  0  0  0  0
  8  9  3  0  0  0  0
  9 19  1  0  0  0  0
 13  3  1  0  0  0  0
 15  4  1  0  0  0  0
 18  7  1  0  0  0  0
M TOR 0 0 1 2 3
M TOR 1 0 1 2 11
M TOR 2 0 1 2 12
M TOR 3 0 1 6 5
M TOR 4 0 1 6 16
M TOR 5 0 1 6 17
M TOR 6 1 2 3 4
M TOR 7 1 2 3 13
M TOR 8 1 2 3 14
M TOR 9 1 6 5 4
M TOR 10 2 1 0 9
M TOR 11 2 1 6 5
M TOR 12 2 1 6 16
M TOR 13 2 1 6 17
M TOR 14 2 3 4 5
M TOR 15 2 3 4 7
M TOR 16 2 3 4 15
M TOR 17 3 2 1 6
M TOR 18 3 2 1 10
M TOR 19 3 4 5 6
M TOR 20 3 4 7 8
M TOR 21 4 3 2 11
M TOR 22 4 3 2 12
M TOR 23 4 5 6 16
M TOR 24 4 5 6 17
M TOR 25 4 7 8 18
M TOR 26 5 4 3 13
M TOR 27 5 4 3 14
M TOR 28 5 4 7 8
M TOR 29 5 6 1 10
M TOR 30 6 1 0 9
M TOR 31 6 1 2 11
M TOR 32 6 1 2 12
M TOR 33 6 5 4 7
M TOR 34 6 5 4 15
M TOR 35 7 4 3 13
M TOR 36 7 4 3 14
M TOR 37 8 7 4 15
M  END
$$$$
