
     RDKit          3D

 19 21  0  0  0  0  0  0  0  0999 V2000
    1.0639    0.8396    1.5663 C   0  0  0  0  0  0  0  0  0  0  0  0
    1.3546    0.1988    0.2387 C   0  0  0  0  0  0  0  0  0  0  0  0
    0.3481   -0.3126   -0.8223 C   0  0  0  0  0  0  0  0  0  0  0  0
    1.7376   -0.6049   -1.4251 C   0  0  0  0  0  0  0  0  0  0  0  0
    2.0744   -1.1268   -2.6589 O   0  0  0  0  0  0  0  0  0  0  0  0
    2.3658    0.7009   -0.8561 C   0  0  0  0  0  0  0  0  0  0  0  0
    3.5660   -0.0495   -0.2337 C   0  0  0  0  0  0  0  0  0  0  0  0
    2.3580   -0.9894   -0.0444 C   0  0  0  0  0  0  0  0  0  0  0  0
    2.3035   -2.2792    0.4560 O   0  0  0  0  0  0  0  0  0  0  0  0
    0.5042    0.1573    2.2165 H   0  0  0  0  0  0  0  0  0  0  0  0
    1.9861    1.1199    2.0881 H   0  0  0  0  0  0  0  0  0  0  0  0
    0.4619    1.7471    1.4467 H   0  0  0  0  0  0  0  0  0  0  0  0
   -0.2613   -1.1766   -0.5385 H   0  0  0  0  0  0  0  0  0  0  0  0
   -0.2581    0.4455   -1.3288 H   0  0  0  0  0  0  0  0  0  0  0  0
    1.8619   -2.0669   -2.6534 H   0  0  0  0  0  0  0  0  0  0  0  0
    2.3414    1.6777   -1.3346 H   0  0  0  0  0  0  0  0  0  0  0  0
    4.3404   -0.3857   -0.9278 H   0  0  0  0  0  0  0  0  0  0  0  0
    4.0099    0.3889    0.6664 H   0  0  0  0  0  0  0  0  0  0  0  0
    2.6132   -2.2711    1.3682 H   0  0  0  0  0  0  0  0  0  0  0  0
  1  2  1  0
  2  3  1  0
  3  4  1  0
  4  5  1  0
  4  6  1  0
  6  7  1  0
  7  8  1  0
  8  9  1  0
  6  2  1  0
  8  2  1  0
  8  4  1  0
  1 10  1  0
  1 11  1  0
  1 12  1  0
  3 13  1  0
  3 14  1  0
  5 15  1  0
  6 16  1  0
  7 17  1  0
  7 18  1  0
  9 19  1  0
M  END
$$$$
