
     RDKit          3D

 19 20  0  0  0  0  0  0  0  0999 V2000
    1.6590    0.1270    0.0128 C   0  0  0  0  0  0  0  0  0  0  0  0
    0.2641   -0.1477    0.1091 O   0  0  0  0  0  0  0  0  0  0  0  0
   -0.3579    0.5216    1.1272 C   0  0  0  0  0  0  0  0  0  0  0  0
   -0.7606    1.9941    0.9952 C   0  0  0  0  0  0  0  0  0  0  0  0
   -1.8402    0.9849    1.2220 C   0  0  0  0  0  0  0  0  0  0  0  0
   -2.9556    0.7034    0.2600 C   0  0  0  0  0  0  0  0  0  0  0  0
   -1.8646    0.6601    2.7282 C   0  0  0  0  0  0  0  0  0  0  0  0
   -0.4204    0.1059    2.5666 C   0  0  0  0  0  0  0  0  0  0  0  0
    0.2745   -0.5854    3.2579 O   0  0  0  0  0  0  0  0  0  0  0  0
    2.1834   -0.1788    0.9252 H   0  0  0  0  0  0  0  0  0  0  0  0
    2.0344   -0.4512   -0.8336 H   0  0  0  0  0  0  0  0  0  0  0  0
    1.8412    1.1953   -0.1671 H   0  0  0  0  0  0  0  0  0  0  0  0
   -0.5052    2.7285    1.7547 H   0  0  0  0  0  0  0  0  0  0  0  0
   -0.6575    2.3445   -0.0281 H   0  0  0  0  0  0  0  0  0  0  0  0
   -3.3673   -0.2994    0.4153 H   0  0  0  0  0  0  0  0  0  0  0  0
   -3.7726    1.4236    0.3827 H   0  0  0  0  0  0  0  0  0  0  0  0
   -2.6026    0.7673   -0.7737 H   0  0  0  0  0  0  0  0  0  0  0  0
   -2.0115    1.5011    3.4123 H   0  0  0  0  0  0  0  0  0  0  0  0
   -2.5461   -0.1525    2.9990 H   0  0  0  0  0  0  0  0  0  0  0  0
  1  2  1  0
  2  3  1  0
  3  4  1  0
  4  5  1  0
  5  6  1  0
  5  7  1  0
  7  8  1  0
  8  9  2  0
  5  3  1  0
  8  3  1  0
  1 10  1  0
  1 11  1  0
  1 12  1  0
  4 13  1  0
  4 14  1  0
  6 15  1  0
  6 16  1  0
  6 17  1  0
  7 18  1  0
  7 19  1  0
M  END
$$$$
