gdb 5959	4.5068322	0.7985798	0.7488779	2.1471	77.1	-0.24179	-0.00906	0.23273	1513.5331	0.155971	-422.546557	-422.537502	-422.536558	-422.580929	33.275
 OpenBabel02181911423D

 19 20  0  0  1  0  0  0  0  0999 V2000
   -2.1118   -1.4244    1.2588 O   0  0  0  0  0  0  0  0  0  0  0  0
   -1.0707   -0.4653    1.2032 C   0  0  0  0  0  0  0  0  0  0  0  0
   -1.4295    0.8377    1.9317 C   0  0  0  0  0  0  0  0  0  0  0  0
   -0.3492    1.8773    1.8277 C   0  0  1  0  0  0  0  0  0  0  0  0
   -0.1970    2.8150    0.6829 C   0  0  0  0  0  0  0  0  0  0  0  0
   -0.4722    3.4151    2.0601 C   0  0  2  0  0  0  0  0  0  0  0  0
    0.7750    3.3591    2.8832 C   0  0  0  0  0  0  0  0  0  0  0  0
    1.3063    4.1260    3.6355 O   0  0  0  0  0  0  0  0  0  0  0  0
    0.9844    1.8452    2.6045 C   0  0  0  0  0  0  0  0  0  0  0  0
   -2.2239   -1.6880    2.1778 H   0  0  0  0  0  0  0  0  0  0  0  0
   -0.1264   -0.8706    1.6004 H   0  0  0  0  0  0  0  0  0  0  0  0
   -0.9096   -0.2604    0.1396 H   0  0  0  0  0  0  0  0  0  0  0  0
   -2.3658    1.2221    1.5111 H   0  0  0  0  0  0  0  0  0  0  0  0
   -1.6251    0.6131    2.9901 H   0  0  0  0  0  0  0  0  0  0  0  0
    0.7672    2.9669    0.2053 H   0  0  0  0  0  0  0  0  0  0  0  0
   -1.0431    2.8905    0.0062 H   0  0  0  0  0  0  0  0  0  0  0  0
   -1.3429    4.0354    2.2363 H   0  0  0  0  0  0  0  0  0  0  0  0
    1.8786    1.5415    2.0523 H   0  0  0  0  0  0  0  0  0  0  0  0
    0.9376    1.2888    3.5462 H   0  0  0  0  0  0  0  0  0  0  0  0
  1 10  1  0  0  0  0
  2  1  1  0  0  0  0
  2 11  1  0  0  0  0
  2  3  1  0  0  0  0
  3 14  1  0  0  0  0
  4  3  1  1  0  0  0
  4  6  1  0  0  0  0
  4  9  1  0  0  0  0
  5  4  1  0  0  0  0
  5  6  1  0  0  0  0
  6 17  1  1  0  0  0
  6  7  1  0  0  0  0
  7  8  2  0  0  0  0
  9  7  1  0  0  0  0
  9 19  1  0  0  0  0
 12  2  1  0  0  0  0
 13  3  1  0  0  0  0
 15  5  1  0  0  0  0
 16  5  1  0  0  0  0
 18  9  1  0  0  0  0
M TOR 0 0 1 2 3
M TOR 1 0 1 2 12
M TOR 2 0 1 2 13
M TOR 3 1 2 3 4
M TOR 4 1 2 3 5
M TOR 5 1 2 3 8
M TOR 6 2 1 0 9
M TOR 7 2 3 4 5
M TOR 8 2 3 4 14
M TOR 9 2 3 4 15
M TOR 10 2 3 5 6
M TOR 11 2 3 5 16
M TOR 12 2 3 8 6
M TOR 13 2 3 8 17
M TOR 14 2 3 8 18
M TOR 15 3 2 1 10
M TOR 16 3 2 1 11
M TOR 17 3 4 5 6
M TOR 18 3 4 5 16
M TOR 19 3 5 4 14
M TOR 20 3 5 4 15
M TOR 21 3 5 6 7
M TOR 22 3 5 6 8
M TOR 23 3 8 6 7
M TOR 24 4 3 2 12
M TOR 25 4 3 2 13
M TOR 26 4 3 8 6
M TOR 27 4 3 8 17
M TOR 28 4 3 8 18
M TOR 29 4 5 3 8
M TOR 30 4 5 6 7
M TOR 31 4 5 6 8
M TOR 32 5 3 2 12
M TOR 33 5 3 2 13
M TOR 34 5 3 8 17
M TOR 35 5 3 8 18
M TOR 36 5 6 8 17
M TOR 37 5 6 8 18
M TOR 38 6 5 4 14
M TOR 39 6 5 4 15
M TOR 40 7 6 5 16
M TOR 41 7 6 8 17
M TOR 42 7 6 8 18
M TOR 43 8 3 2 12
M TOR 44 8 3 2 13
M TOR 45 8 3 4 14
M TOR 46 8 3 4 15
M TOR 47 8 3 5 16
M TOR 48 8 6 5 16
M  END
$$$$
