
     RDKit          3D

 19 20  0  0  0  0  0  0  0  0999 V2000
   -0.9003   -0.2759   -1.3331 O   0  0  0  0  0  0  0  0  0  0  0  0
   -0.0824    0.3299   -0.3400 C   0  0  0  0  0  0  0  0  0  0  0  0
   -0.7454    1.5058    0.3347 C   0  0  0  0  0  0  0  0  0  0  0  0
   -1.3323    2.7361   -0.4434 C   0  0  0  0  0  0  0  0  0  0  0  0
   -2.0898    2.9880    0.8901 C   0  0  0  0  0  0  0  0  0  0  0  0
   -2.1517    1.4413    1.0358 C   0  0  0  0  0  0  0  0  0  0  0  0
   -0.9389    3.3529    1.8480 C   0  0  0  0  0  0  0  0  0  0  0  0
    0.0395    2.2385    1.4173 C   0  0  0  0  0  0  0  0  0  0  0  0
    1.1451    2.0005    1.8269 O   0  0  0  0  0  0  0  0  0  0  0  0
   -1.6050   -0.7520   -0.8838 H   0  0  0  0  0  0  0  0  0  0  0  0
    0.2433   -0.3977    0.4180 H   0  0  0  0  0  0  0  0  0  0  0  0
    0.8209    0.6698   -0.8573 H   0  0  0  0  0  0  0  0  0  0  0  0
   -0.6351    3.5008   -0.7987 H   0  0  0  0  0  0  0  0  0  0  0  0
   -1.9807    2.4045   -1.2563 H   0  0  0  0  0  0  0  0  0  0  0  0
   -2.9906    3.5986    0.9299 H   0  0  0  0  0  0  0  0  0  0  0  0
   -2.2131    1.0123    2.0408 H   0  0  0  0  0  0  0  0  0  0  0  0
   -2.9015    0.9891    0.3816 H   0  0  0  0  0  0  0  0  0  0  0  0
   -0.5104    4.3451    1.6751 H   0  0  0  0  0  0  0  0  0  0  0  0
   -1.1931    3.2693    2.9093 H   0  0  0  0  0  0  0  0  0  0  0  0
  1  2  1  0
  2  3  1  0
  3  4  1  0
  4  5  1  0
  5  6  1  0
  5  7  1  0
  7  8  1  0
  8  9  2  0
  6  3  1  0
  8  3  1  0
  1 10  1  0
  2 11  1  0
  2 12  1  0
  4 13  1  0
  4 14  1  0
  5 15  1  0
  6 16  1  0
  6 17  1  0
  7 18  1  0
  7 19  1  0
M  END
$$$$
