gdb 397	2.6227064	1.5054973	1.2259302	2.7153	74.7	-0.24583	0.06329	0.30912	1082.1023	0.156569	-422.495315	-422.487095	-422.486151	-422.528707	30.682
 OpenBabel02181911403D

 19 21  0  0  1  0  0  0  0  0999 V2000
   -0.6456    2.7958   -2.2906 C   0  0  0  0  0  0  0  0  0  0  0  0
   -1.3740    1.5581   -2.3041 O   0  0  0  0  0  0  0  0  0  0  0  0
   -1.0804    2.1469   -1.0518 C   0  0  2  0  0  0  0  0  0  0  0  0
   -2.1227    2.6067   -0.0304 C   0  0  0  0  0  0  0  0  0  0  0  0
   -1.0973    2.2357    1.0843 C   0  0  0  0  0  0  0  0  0  0  0  0
   -0.2386    1.4762    0.0380 C   0  0  0  0  0  0  0  0  0  0  0  0
    1.2977    1.4174    0.0590 C   0  0  0  0  0  0  0  0  0  0  0  0
    1.2987   -0.0219    0.0892 O   0  0  0  0  0  0  0  0  0  0  0  0
   -0.1428   -0.0662    0.0591 C   0  0  0  0  0  0  0  0  0  0  0  0
    0.3923    2.7272   -2.6132 H   0  0  0  0  0  0  0  0  0  0  0  0
   -1.1915    3.6620   -2.6634 H   0  0  0  0  0  0  0  0  0  0  0  0
   -2.4558    3.6454   -0.0847 H   0  0  0  0  0  0  0  0  0  0  0  0
   -2.9998    1.9536   -0.0318 H   0  0  0  0  0  0  0  0  0  0  0  0
   -0.5772    3.1101    1.4853 H   0  0  0  0  0  0  0  0  0  0  0  0
   -1.4742    1.6397    1.9184 H   0  0  0  0  0  0  0  0  0  0  0  0
    1.8021    1.8116   -0.8335 H   0  0  0  0  0  0  0  0  0  0  0  0
    1.7669    1.8526    0.9519 H   0  0  0  0  0  0  0  0  0  0  0  0
   -0.5203   -0.5613   -0.8433 H   0  0  0  0  0  0  0  0  0  0  0  0
   -0.5595   -0.5530    0.9505 H   0  0  0  0  0  0  0  0  0  0  0  0
  1  3  1  0  0  0  0
  2  1  1  0  0  0  0
  3  2  1  6  0  0  0
  3  4  1  0  0  0  0
  3  6  1  0  0  0  0
  4  5  1  0  0  0  0
  5 14  1  0  0  0  0
  5 15  1  0  0  0  0
  6  7  1  0  0  0  0
  6  9  1  0  0  0  0
  6  5  1  0  0  0  0
  7  8  1  0  0  0  0
  7 17  1  0  0  0  0
  9  8  1  0  0  0  0
  9 19  1  0  0  0  0
 10  1  1  0  0  0  0
 11  1  1  0  0  0  0
 12  4  1  0  0  0  0
 13  4  1  0  0  0  0
 16  7  1  0  0  0  0
 18  9  1  0  0  0  0
M TOR 0 0 1 2 3
M TOR 1 0 1 2 5
M TOR 2 0 2 3 4
M TOR 3 0 2 3 11
M TOR 4 0 2 3 12
M TOR 5 0 2 5 4
M TOR 6 0 2 5 6
M TOR 7 0 2 5 8
M TOR 8 1 2 0 9
M TOR 9 1 2 0 10
M TOR 10 1 2 3 4
M TOR 11 1 2 3 11
M TOR 12 1 2 3 12
M TOR 13 1 2 5 4
M TOR 14 1 2 5 6
M TOR 15 1 2 5 8
M TOR 16 2 3 4 5
M TOR 17 2 3 4 13
M TOR 18 2 3 4 14
M TOR 19 2 5 4 13
M TOR 20 2 5 4 14
M TOR 21 2 5 6 7
M TOR 22 2 5 6 15
M TOR 23 2 5 6 16
M TOR 24 2 5 8 7
M TOR 25 2 5 8 17
M TOR 26 2 5 8 18
M TOR 27 3 2 0 9
M TOR 28 3 2 0 10
M TOR 29 3 2 5 6
M TOR 30 3 2 5 8
M TOR 31 3 4 5 6
M TOR 32 3 4 5 8
M TOR 33 4 5 6 7
M TOR 34 4 5 6 15
M TOR 35 4 5 6 16
M TOR 36 4 5 8 7
M TOR 37 4 5 8 17
M TOR 38 4 5 8 18
M TOR 39 5 2 0 9
M TOR 40 5 2 0 10
M TOR 41 5 2 3 11
M TOR 42 5 2 3 12
M TOR 43 5 4 3 11
M TOR 44 5 4 3 12
M TOR 45 5 6 7 8
M TOR 46 6 5 4 13
M TOR 47 6 5 4 14
M TOR 48 6 5 8 17
M TOR 49 6 5 8 18
M TOR 50 6 7 8 17
M TOR 51 6 7 8 18
M TOR 52 8 5 4 13
M TOR 53 8 5 4 14
M TOR 54 8 5 6 15
M TOR 55 8 5 6 16
M TOR 56 8 7 6 15
M TOR 57 8 7 6 16
M  END
$$$$
