
     RDKit          3D

 19 19  0  0  0  0  0  0  0  0999 V2000
   -2.6197   -0.1719   -2.4193 C   0  0  0  0  0  0  0  0  0  0  0  0
   -3.0239   -0.6783   -1.1610 O   0  0  0  0  0  0  0  0  0  0  0  0
   -2.4976    0.0109   -0.0464 C   0  0  0  0  0  0  0  0  0  0  0  0
   -3.2117   -0.4673    1.2431 C   0  0  0  0  0  0  0  0  0  0  0  0
   -3.7852    0.8314    1.4747 O   0  0  0  0  0  0  0  0  0  0  0  0
   -3.1983    1.3699    0.2779 C   0  0  0  0  0  0  0  0  0  0  0  0
   -1.0396    0.0222   -0.0118 C   0  0  0  0  0  0  0  0  0  0  0  0
    0.1646    0.0331    0.0264 C   0  0  0  0  0  0  0  0  0  0  0  0
    1.6192    0.0419    0.0782 C   0  0  0  0  0  0  0  0  0  0  0  0
   -3.1125   -0.7872   -3.1750 H   0  0  0  0  0  0  0  0  0  0  0  0
   -2.9303    0.8743   -2.5579 H   0  0  0  0  0  0  0  0  0  0  0  0
   -1.5322   -0.2345   -2.5508 H   0  0  0  0  0  0  0  0  0  0  0  0
   -3.9674   -1.2334    1.0368 H   0  0  0  0  0  0  0  0  0  0  0  0
   -2.5564   -0.7858    2.0598 H   0  0  0  0  0  0  0  0  0  0  0  0
   -3.9536    1.6560   -0.4646 H   0  0  0  0  0  0  0  0  0  0  0  0
   -2.5342    2.2155    0.4854 H   0  0  0  0  0  0  0  0  0  0  0  0
    1.9751    0.2382    1.0955 H   0  0  0  0  0  0  0  0  0  0  0  0
    2.0327   -0.9219   -0.2378 H   0  0  0  0  0  0  0  0  0  0  0  0
    2.0376    0.8153   -0.5752 H   0  0  0  0  0  0  0  0  0  0  0  0
  1  2  1  0
  2  3  1  0
  3  4  1  0
  4  5  1  0
  5  6  1  0
  3  7  1  0
  7  8  3  0
  8  9  1  0
  6  3  1  0
  1 10  1  0
  1 11  1  0
  1 12  1  0
  4 13  1  0
  4 14  1  0
  6 15  1  0
  6 16  1  0
  9 17  1  0
  9 18  1  0
  9 19  1  0
M  END
$$$$
