gdb 3095	2.8956477	1.5665181	1.1682083	3.5301	75.67	-0.23507	0.06571	0.30078	1087.749	0.156373	-422.463762	-422.455717	-422.454773	-422.496256	30.865
 OpenBabel02181911413D

 19 21  0  0  1  0  0  0  0  0999 V2000
    1.1909    1.4796   -0.0244 C   0  0  0  0  0  0  0  0  0  0  0  0
    1.9898    0.1851   -0.0398 C   0  0  2  0  0  0  0  0  0  0  0  0
    1.6591   -1.0580   -0.9163 C   0  0  1  0  0  0  0  0  0  0  0  0
    2.5536   -1.8491   -0.0369 O   0  0  0  0  0  0  0  0  0  0  0  0
    1.7298   -1.0357    0.8901 C   0  0  2  0  0  0  0  0  0  0  0  0
    0.4997   -1.4460    0.0386 C   0  0  1  0  0  0  0  0  0  0  0  0
   -0.9572   -0.9441    0.0896 C   0  0  0  0  0  0  0  0  0  0  0  0
   -1.3106   -2.4408    0.1224 C   0  0  0  0  0  0  0  0  0  0  0  0
    0.0847   -2.8085    0.0716 O   0  0  0  0  0  0  0  0  0  0  0  0
    1.4775    2.0875    0.8406 H   0  0  0  0  0  0  0  0  0  0  0  0
    1.4123    2.0682   -0.9213 H   0  0  0  0  0  0  0  0  0  0  0  0
    0.1111    1.3324    0.0172 H   0  0  0  0  0  0  0  0  0  0  0  0
    3.0645    0.3799   -0.0842 H   0  0  0  0  0  0  0  0  0  0  0  0
    1.7547   -1.2043   -1.9931 H   0  0  0  0  0  0  0  0  0  0  0  0
    1.9095   -1.1556    1.9594 H   0  0  0  0  0  0  0  0  0  0  0  0
   -1.2258   -0.3788    0.9837 H   0  0  0  0  0  0  0  0  0  0  0  0
   -1.2958   -0.4015   -0.7946 H   0  0  0  0  0  0  0  0  0  0  0  0
   -1.7929   -2.7983    1.0394 H   0  0  0  0  0  0  0  0  0  0  0  0
   -1.8638   -2.8207   -0.7442 H   0  0  0  0  0  0  0  0  0  0  0  0
  1 12  1  0  0  0  0
  1 10  1  0  0  0  0
  2 13  1  6  0  0  0
  2  1  1  0  0  0  0
  2  5  1  0  0  0  0
  3 14  1  6  0  0  0
  3  2  1  0  0  0  0
  3  4  1  0  0  0  0
  3  6  1  0  0  0  0
  4  5  1  0  0  0  0
  5 15  1  1  0  0  0
  6  9  1  1  0  0  0
  6  7  1  0  0  0  0
  6  5  1  0  0  0  0
  7  8  1  0  0  0  0
  7 16  1  0  0  0  0
  8 18  1  0  0  0  0
  9  8  1  0  0  0  0
 11  1  1  0  0  0  0
 17  7  1  0  0  0  0
 19  8  1  0  0  0  0
M TOR 0 0 1 2 3
M TOR 1 0 1 2 5
M TOR 2 0 1 2 13
M TOR 3 0 1 4 3
M TOR 4 0 1 4 5
M TOR 5 0 1 4 14
M TOR 6 1 2 3 4
M TOR 7 1 2 5 4
M TOR 8 1 2 5 6
M TOR 9 1 2 5 8
M TOR 10 1 4 5 6
M TOR 11 1 4 5 8
M TOR 12 2 1 0 9
M TOR 13 2 1 0 10
M TOR 14 2 1 0 11
M TOR 15 2 1 4 14
M TOR 16 2 3 4 5
M TOR 17 2 3 4 14
M TOR 18 2 5 4 14
M TOR 19 2 5 6 7
M TOR 20 2 5 6 15
M TOR 21 2 5 6 16
M TOR 22 2 5 8 7
M TOR 23 3 2 1 12
M TOR 24 3 2 5 6
M TOR 25 3 2 5 8
M TOR 26 3 4 1 12
M TOR 27 3 4 5 6
M TOR 28 3 4 5 8
M TOR 29 4 1 0 9
M TOR 30 4 1 0 10
M TOR 31 4 1 0 11
M TOR 32 4 1 2 13
M TOR 33 4 3 2 13
M TOR 34 4 5 2 13
M TOR 35 4 5 6 7
M TOR 36 4 5 6 15
M TOR 37 4 5 6 16
M TOR 38 4 5 8 7
M TOR 39 5 2 1 12
M TOR 40 5 4 1 12
M TOR 41 5 6 7 8
M TOR 42 5 6 7 17
M TOR 43 5 6 7 18
M TOR 44 5 8 7 17
M TOR 45 5 8 7 18
M TOR 46 6 5 2 13
M TOR 47 6 5 4 14
M TOR 48 8 5 2 13
M TOR 49 8 5 4 14
M TOR 50 8 5 6 15
M TOR 51 8 5 6 16
M TOR 52 8 7 6 15
M TOR 53 8 7 6 16
M  END
$$$$
