gdb 5457	2.9106441	1.5240298	1.1860411	1.7367	75.02	-0.22576	0.08681	0.31257	1093.1087	0.155233	-422.480897	-422.472377	-422.471433	-422.513938	32.096
 OpenBabel02181911423D

 19 21  0  0  1  0  0  0  0  0999 V2000
    1.4176   -0.1311    0.0374 C   0  0  0  0  0  0  0  0  0  0  0  0
    0.0191    0.0431    0.0859 O   0  0  0  0  0  0  0  0  0  0  0  0
   -0.4312    0.6935    1.2483 C   0  0  1  0  0  0  0  0  0  0  0  0
   -0.2253    2.2111    1.2540 C   0  0  2  0  0  0  0  0  0  0  0  0
   -1.4854    2.7478    1.9477 C   0  0  2  0  0  0  0  0  0  0  0  0
   -2.2676    1.6318    2.3773 O   0  0  0  0  0  0  0  0  0  0  0  0
   -1.9456    1.0206    1.0898 C   0  0  2  0  0  0  0  0  0  0  0  0
   -2.9369    0.0243    0.5854 C   0  0  0  0  0  0  0  0  0  0  0  0
   -1.5362    2.4317    0.4989 C   0  0  2  0  0  0  0  0  0  0  0  0
    1.7859   -0.6897    0.9118 H   0  0  0  0  0  0  0  0  0  0  0  0
    1.6417   -0.7026   -0.8666 H   0  0  0  0  0  0  0  0  0  0  0  0
    1.9527    0.8287   -0.0092 H   0  0  0  0  0  0  0  0  0  0  0  0
   -0.1469    0.1280    2.1490 H   0  0  0  0  0  0  0  0  0  0  0  0
    0.6928    2.7804    1.1893 H   0  0  0  0  0  0  0  0  0  0  0  0
   -1.5373    3.6750    2.5028 H   0  0  0  0  0  0  0  0  0  0  0  0
   -3.0748   -0.7700    1.3271 H   0  0  0  0  0  0  0  0  0  0  0  0
   -3.9065    0.4942    0.3996 H   0  0  0  0  0  0  0  0  0  0  0  0
   -2.5688   -0.4258   -0.3400 H   0  0  0  0  0  0  0  0  0  0  0  0
   -1.7950    2.9882   -0.3903 H   0  0  0  0  0  0  0  0  0  0  0  0
  1  2  1  0  0  0  0
  1 10  1  0  0  0  0
  2  3  1  0  0  0  0
  3  4  1  0  0  0  0
  3 13  1  1  0  0  0
  4 14  1  6  0  0  0
  4  5  1  0  0  0  0
  5  6  1  0  0  0  0
  5 15  1  1  0  0  0
  7  8  1  6  0  0  0
  7  3  1  0  0  0  0
  7  6  1  0  0  0  0
  8 16  1  0  0  0  0
  9 19  1  6  0  0  0
  9  7  1  0  0  0  0
  9  4  1  0  0  0  0
  9  5  1  0  0  0  0
 11  1  1  0  0  0  0
 12  1  1  0  0  0  0
 17  8  1  0  0  0  0
 18  8  1  0  0  0  0
M TOR 0 0 1 2 3
M TOR 1 0 1 2 6
M TOR 2 0 1 2 12
M TOR 3 1 2 3 4
M TOR 4 1 2 3 8
M TOR 5 1 2 3 13
M TOR 6 1 2 6 5
M TOR 7 1 2 6 7
M TOR 8 1 2 6 8
M TOR 9 2 1 0 9
M TOR 10 2 1 0 10
M TOR 11 2 1 0 11
M TOR 12 2 3 4 5
M TOR 13 2 3 4 8
M TOR 14 2 3 4 14
M TOR 15 2 3 8 6
M TOR 16 2 3 8 18
M TOR 17 2 6 5 4
M TOR 18 2 6 7 15
M TOR 19 2 6 7 16
M TOR 20 2 6 7 17
M TOR 21 2 6 8 4
M TOR 22 2 6 8 18
M TOR 23 3 2 6 5
M TOR 24 3 2 6 7
M TOR 25 3 4 5 6
M TOR 26 3 4 8 6
M TOR 27 3 4 8 18
M TOR 28 3 8 4 5
M TOR 29 3 8 4 14
M TOR 30 3 8 6 5
M TOR 31 3 8 6 7
M TOR 32 4 3 2 6
M TOR 33 4 3 2 12
M TOR 34 4 5 6 7
M TOR 35 4 5 6 8
M TOR 36 4 8 3 13
M TOR 37 4 8 6 7
M TOR 38 5 4 3 13
M TOR 39 5 4 8 18
M TOR 40 5 6 2 12
M TOR 41 5 6 7 15
M TOR 42 5 6 7 16
M TOR 43 5 6 7 17
M TOR 44 5 6 8 18
M TOR 45 6 2 3 13
M TOR 46 6 5 4 14
M TOR 47 6 8 3 13
M TOR 48 6 8 4 14
M TOR 49 7 6 2 12
M TOR 50 7 6 8 18
M TOR 51 8 3 2 12
M TOR 52 8 6 2 12
M TOR 53 8 6 7 15
M TOR 54 8 6 7 16
M TOR 55 8 6 7 17
M  END
$$$$
