
     RDKit          3D

 19 20  0  0  0  0  0  0  0  0999 V2000
    1.6720    0.6088    0.1184 O   0  0  0  0  0  0  0  0  0  0  0  0
    0.3478    0.1719   -0.1110 C   0  0  0  0  0  0  0  0  0  0  0  0
    0.0593    0.1096   -1.6008 C   0  0  0  0  0  0  0  0  0  0  0  0
    0.3022    1.4169   -2.1912 O   0  0  0  0  0  0  0  0  0  0  0  0
   -1.0557    1.4617   -2.7212 C   0  0  0  0  0  0  0  0  0  0  0  0
   -1.1381    1.1805   -4.1954 C   0  0  0  0  0  0  0  0  0  0  0  0
   -1.5422   -0.0670   -4.4369 C   0  0  0  0  0  0  0  0  0  0  0  0
   -1.8306   -0.8564   -3.1788 C   0  0  0  0  0  0  0  0  0  0  0  0
   -1.4182    0.1100   -2.0521 C   0  0  0  0  0  0  0  0  0  0  0  0
    1.7724    1.4156   -0.4026 H   0  0  0  0  0  0  0  0  0  0  0  0
    0.2492   -0.8224    0.3402 H   0  0  0  0  0  0  0  0  0  0  0  0
   -0.3865    0.8375    0.3731 H   0  0  0  0  0  0  0  0  0  0  0  0
    0.6893   -0.6532   -2.0779 H   0  0  0  0  0  0  0  0  0  0  0  0
   -1.5603    2.3813   -2.4059 H   0  0  0  0  0  0  0  0  0  0  0  0
   -0.8778    1.9173   -4.9464 H   0  0  0  0  0  0  0  0  0  0  0  0
   -1.6650   -0.4995   -5.4246 H   0  0  0  0  0  0  0  0  0  0  0  0
   -2.8908   -1.1330   -3.1152 H   0  0  0  0  0  0  0  0  0  0  0  0
   -1.2683   -1.7988   -3.1469 H   0  0  0  0  0  0  0  0  0  0  0  0
   -2.1291    0.1471   -1.2254 H   0  0  0  0  0  0  0  0  0  0  0  0
  1  2  1  0
  2  3  1  0
  3  4  1  0
  4  5  1  0
  5  6  1  0
  6  7  2  0
  7  8  1  0
  8  9  1  0
  9  3  1  0
  9  5  1  0
  1 10  1  0
  2 11  1  0
  2 12  1  0
  3 13  1  0
  5 14  1  0
  6 15  1  0
  7 16  1  0
  8 17  1  0
  8 18  1  0
  9 19  1  0
M  END
$$$$
