
     RDKit          3D

 19 20  0  0  0  0  0  0  0  0999 V2000
    0.5128   -0.1241    0.6702 O   0  0  0  0  0  0  0  0  0  0  0  0
   -0.4056    0.8550    1.1359 C   0  0  0  0  0  0  0  0  0  0  0  0
   -1.4492    0.2499    2.0952 C   0  0  0  0  0  0  0  0  0  0  0  0
   -0.9274    0.0782    3.4972 C   0  0  0  0  0  0  0  0  0  0  0  0
    0.1833    0.6653    3.9468 C   0  0  0  0  0  0  0  0  0  0  0  0
    1.0008    1.5520    3.0831 C   0  0  0  0  0  0  0  0  0  0  0  0
    2.1406    2.2972    3.6343 C   0  0  0  0  0  0  0  0  0  0  0  0
    2.3790    1.0938    2.9091 O   0  0  0  0  0  0  0  0  0  0  0  0
    0.3200    2.0256    1.8132 C   0  0  0  0  0  0  0  0  0  0  0  0
    1.2010   -0.2416    1.3346 H   0  0  0  0  0  0  0  0  0  0  0  0
   -0.9211    1.2127    0.2382 H   0  0  0  0  0  0  0  0  0  0  0  0
   -2.3506    0.8810    2.1121 H   0  0  0  0  0  0  0  0  0  0  0  0
   -1.7656   -0.7187    1.6922 H   0  0  0  0  0  0  0  0  0  0  0  0
   -1.4965   -0.5676    4.1616 H   0  0  0  0  0  0  0  0  0  0  0  0
    0.5470    0.4828    4.9539 H   0  0  0  0  0  0  0  0  0  0  0  0
    2.4653    3.2146    3.1431 H   0  0  0  0  0  0  0  0  0  0  0  0
    2.3520    2.2479    4.7024 H   0  0  0  0  0  0  0  0  0  0  0  0
   -0.4055    2.8096    2.0641 H   0  0  0  0  0  0  0  0  0  0  0  0
    1.0642    2.4517    1.1347 H   0  0  0  0  0  0  0  0  0  0  0  0
  1  2  1  0
  2  3  1  0
  3  4  1  0
  4  5  2  0
  5  6  1  0
  6  7  1  0
  7  8  1  0
  6  9  1  0
  9  2  1  0
  8  6  1  0
  1 10  1  0
  2 11  1  0
  3 12  1  0
  3 13  1  0
  4 14  1  0
  5 15  1  0
  7 16  1  0
  7 17  1  0
  9 18  1  0
  9 19  1  0
M  END
$$$$
