
     RDKit          3D

 19 21  0  0  0  0  0  0  0  0999 V2000
    0.4175    0.5830    0.0465 C   0  0  0  0  0  0  0  0  0  0  0  0
    0.8760   -0.8483   -0.1283 C   0  0  0  0  0  0  0  0  0  0  0  0
    1.9623   -0.9468   -1.1117 O   0  0  0  0  0  0  0  0  0  0  0  0
    2.8260   -1.4635   -0.0954 C   0  0  0  0  0  0  0  0  0  0  0  0
    2.3633   -2.7635    0.4694 C   0  0  0  0  0  0  0  0  0  0  0  0
    1.7601   -1.4660    0.9783 C   0  0  0  0  0  0  0  0  0  0  0  0
    2.3989   -0.8048    2.1746 C   0  0  0  0  0  0  0  0  0  0  0  0
    3.8153   -0.7943    1.8908 O   0  0  0  0  0  0  0  0  0  0  0  0
    4.0198   -0.7369    0.4722 C   0  0  0  0  0  0  0  0  0  0  0  0
   -0.3583    0.6456    0.8177 H   0  0  0  0  0  0  0  0  0  0  0  0
    1.2455    1.2390    0.3278 H   0  0  0  0  0  0  0  0  0  0  0  0
   -0.0020    0.9508   -0.8945 H   0  0  0  0  0  0  0  0  0  0  0  0
    0.0359   -1.4842   -0.4348 H   0  0  0  0  0  0  0  0  0  0  0  0
    1.7623   -3.4163   -0.1549 H   0  0  0  0  0  0  0  0  0  0  0  0
    3.0427   -3.2604    1.1537 H   0  0  0  0  0  0  0  0  0  0  0  0
    2.0146    0.2167    2.3075 H   0  0  0  0  0  0  0  0  0  0  0  0
    2.2860   -1.3400    3.1222 H   0  0  0  0  0  0  0  0  0  0  0  0
    4.0257    0.2952    0.0898 H   0  0  0  0  0  0  0  0  0  0  0  0
    4.9957   -1.1924    0.2810 H   0  0  0  0  0  0  0  0  0  0  0  0
  1  2  1  0
  2  3  1  0
  3  4  1  0
  4  5  1  0
  5  6  1  0
  6  7  1  0
  7  8  1  0
  8  9  1  0
  6  2  1  0
  6  4  1  0
  9  4  1  0
  1 10  1  0
  1 11  1  0
  1 12  1  0
  2 13  1  0
  5 14  1  0
  5 15  1  0
  7 16  1  0
  7 17  1  0
  9 18  1  0
  9 19  1  0
M  END
$$$$
