
     RDKit          3D

 19 20  0  0  0  0  0  0  0  0999 V2000
   -0.9349    2.2181    1.2247 C   0  0  0  0  0  0  0  0  0  0  0  0
   -1.0734    1.1485    0.1437 C   0  0  0  0  0  0  0  0  0  0  0  0
   -1.0762    1.7865   -1.2568 C   0  0  0  0  0  0  0  0  0  0  0  0
   -2.1948    0.0848    0.2605 C   0  0  0  0  0  0  0  0  0  0  0  0
   -2.0058   -0.8629    1.3812 C   0  0  0  0  0  0  0  0  0  0  0  0
   -1.4814   -0.4523    2.6094 O   0  0  0  0  0  0  0  0  0  0  0  0
   -1.1487   -1.0812    0.1479 C   0  0  0  0  0  0  0  0  0  0  0  0
   -0.0673   -0.0355    0.1078 C   0  0  0  0  0  0  0  0  0  0  0  0
    1.1192   -0.0867   -0.0577 O   0  0  0  0  0  0  0  0  0  0  0  0
   -0.9381    1.7825    2.2229 H   0  0  0  0  0  0  0  0  0  0  0  0
    0.0010    2.7692    1.0829 H   0  0  0  0  0  0  0  0  0  0  0  0
   -1.7574    2.9395    1.1563 H   0  0  0  0  0  0  0  0  0  0  0  0
   -1.1812    1.0356   -2.0466 H   0  0  0  0  0  0  0  0  0  0  0  0
   -1.9055    2.4961   -1.3494 H   0  0  0  0  0  0  0  0  0  0  0  0
   -0.1409    2.3274   -1.4256 H   0  0  0  0  0  0  0  0  0  0  0  0
   -3.1388    0.1546   -0.2671 H   0  0  0  0  0  0  0  0  0  0  0  0
   -2.7999   -1.6067    1.4687 H   0  0  0  0  0  0  0  0  0  0  0  0
   -0.9187   -1.1578    2.9464 H   0  0  0  0  0  0  0  0  0  0  0  0
   -1.1672   -2.0153   -0.4009 H   0  0  0  0  0  0  0  0  0  0  0  0
  1  2  1  0
  2  3  1  0
  2  4  1  0
  4  5  1  0
  5  6  1  0
  5  7  1  0
  7  8  1  0
  8  9  2  0
  8  2  1  0
  7  4  1  0
  1 10  1  0
  1 11  1  0
  1 12  1  0
  3 13  1  0
  3 14  1  0
  3 15  1  0
  4 16  1  0
  5 17  1  0
  6 18  1  0
  7 19  1  0
M  END
$$$$
