gdb 4711	2.256377	1.2208247	0.9924678	1.5105	76.97	-0.25949	0.03887	0.29836	1274.151	0.153515	-422.504662	-422.494514	-422.49357	-422.539871	36.739
 OpenBabel02181911413D

 19 19  0  0  1  0  0  0  0  0999 V2000
    2.5574    2.6470    0.1219 C   0  0  0  0  0  0  0  0  0  0  0  0
    3.0769    1.3492   -0.4545 C   0  0  2  0  0  0  0  0  0  0  0  0
    4.3692    1.3202   -1.1571 C   0  0  0  0  0  0  0  0  0  0  0  0
    3.1392    1.3087   -1.8851 O   0  0  0  0  0  0  0  0  0  0  0  0
    2.5855    0.0428    0.1795 C   0  0  1  0  0  0  0  0  0  0  0  0
    3.1406   -0.1656    1.6124 C   0  0  0  0  0  0  0  0  0  0  0  0
    2.7694   -1.4153    2.1479 O   0  0  0  0  0  0  0  0  0  0  0  0
    1.1262   -0.0525    0.2037 C   0  0  0  0  0  0  0  0  0  0  0  0
   -0.0702   -0.1478    0.2893 C   0  0  0  0  0  0  0  0  0  0  0  0
    2.8783    2.7788    1.1604 H   0  0  0  0  0  0  0  0  0  0  0  0
    2.9288    3.4898   -0.4652 H   0  0  0  0  0  0  0  0  0  0  0  0
    1.4639    2.6631    0.1010 H   0  0  0  0  0  0  0  0  0  0  0  0
    4.9557    2.2342   -1.2403 H   0  0  0  0  0  0  0  0  0  0  0  0
    4.9468    0.3971   -1.2005 H   0  0  0  0  0  0  0  0  0  0  0  0
    2.9719   -0.7770   -0.4376 H   0  0  0  0  0  0  0  0  0  0  0  0
    4.2342   -0.1548    1.5746 H   0  0  0  0  0  0  0  0  0  0  0  0
    2.8152    0.6641    2.2575 H   0  0  0  0  0  0  0  0  0  0  0  0
    1.8054   -1.4573    2.1278 H   0  0  0  0  0  0  0  0  0  0  0  0
   -1.1289   -0.2283    0.3260 H   0  0  0  0  0  0  0  0  0  0  0  0
  1 10  1  0  0  0  0
  2  1  1  1  0  0  0
  2  5  1  0  0  0  0
  3  2  1  0  0  0  0
  4  3  1  0  0  0  0
  4  2  1  0  0  0  0
  5 15  1  6  0  0  0
  5  8  1  0  0  0  0
  5  6  1  0  0  0  0
  6  7  1  0  0  0  0
  6 17  1  0  0  0  0
  8  9  3  0  0  0  0
  9 19  1  0  0  0  0
 11  1  1  0  0  0  0
 12  1  1  0  0  0  0
 13  3  1  0  0  0  0
 14  3  1  0  0  0  0
 16  6  1  0  0  0  0
 18  7  1  0  0  0  0
M TOR 0 0 1 2 3
M TOR 1 0 1 2 12
M TOR 2 0 1 2 13
M TOR 3 0 1 4 5
M TOR 4 0 1 4 7
M TOR 5 0 1 4 14
M TOR 6 1 3 2 12
M TOR 7 1 3 2 13
M TOR 8 1 4 5 6
M TOR 9 1 4 5 15
M TOR 10 1 4 5 16
M TOR 11 1 4 7 8
M TOR 12 2 1 0 9
M TOR 13 2 1 0 10
M TOR 14 2 1 0 11
M TOR 15 2 1 4 5
M TOR 16 2 1 4 7
M TOR 17 2 1 4 14
M TOR 18 2 3 1 4
M TOR 19 3 1 0 9
M TOR 20 3 1 0 10
M TOR 21 3 1 0 11
M TOR 22 3 1 4 5
M TOR 23 3 1 4 7
M TOR 24 3 1 4 14
M TOR 25 4 1 0 9
M TOR 26 4 1 0 10
M TOR 27 4 1 0 11
M TOR 28 4 1 2 12
M TOR 29 4 1 2 13
M TOR 30 4 5 6 17
M TOR 31 4 7 8 18
M TOR 32 5 4 7 8
M TOR 33 6 5 4 7
M TOR 34 6 5 4 14
M TOR 35 7 4 5 15
M TOR 36 7 4 5 16
M TOR 37 8 7 4 14
M  END
$$$$
