gdb 4637	4.1851644	0.6441843	0.6182699	2.3531	80.72	-0.25112	0.03166	0.28278000000000003	1836.8521	0.153928	-422.50396	-422.493509	-422.492565	-422.541486	36.191
 OpenBabel02181911413D

 19 19  0  0  1  0  0  0  0  0999 V2000
    2.6010   -1.6279    2.2985 C   0  0  0  0  0  0  0  0  0  0  0  0
    2.2616   -2.2509    0.9642 C   0  0  2  0  0  0  0  0  0  0  0  0
    0.7831   -2.2602    0.5747 C   0  0  0  0  0  0  0  0  0  0  0  0
    0.1732   -0.9343    0.5480 C   0  0  0  0  0  0  0  0  0  0  0  0
   -0.3298    0.1601    0.5142 C   0  0  0  0  0  0  0  0  0  0  0  0
   -0.9314    1.4930    0.5165 C   0  0  0  0  0  0  0  0  0  0  0  0
   -1.6807    1.7784    1.6906 O   0  0  0  0  0  0  0  0  0  0  0  0
    3.1404   -3.2726    0.3781 C   0  0  0  0  0  0  0  0  0  0  0  0
    3.1530   -1.9271   -0.1079 O   0  0  0  0  0  0  0  0  0  0  0  0
    2.1117   -2.1687    3.1160 H   0  0  0  0  0  0  0  0  0  0  0  0
    3.6806   -1.6455    2.4634 H   0  0  0  0  0  0  0  0  0  0  0  0
    2.2603   -0.5889    2.3296 H   0  0  0  0  0  0  0  0  0  0  0  0
    0.6878   -2.7272   -0.4122 H   0  0  0  0  0  0  0  0  0  0  0  0
    0.2350   -2.9002    1.2799 H   0  0  0  0  0  0  0  0  0  0  0  0
   -0.1450    2.2467    0.3504 H   0  0  0  0  0  0  0  0  0  0  0  0
   -1.6379    1.5880   -0.3157 H   0  0  0  0  0  0  0  0  0  0  0  0
   -1.1119    1.5938    2.4452 H   0  0  0  0  0  0  0  0  0  0  0  0
    4.0348   -3.5857    0.9156 H   0  0  0  0  0  0  0  0  0  0  0  0
    2.7332   -4.0142   -0.3088 H   0  0  0  0  0  0  0  0  0  0  0  0
  1 12  1  0  0  0  0
  1 11  1  0  0  0  0
  1 10  1  0  0  0  0
  2  3  1  6  0  0  0
  2  1  1  0  0  0  0
  3 14  1  0  0  0  0
  4  3  1  0  0  0  0
  5  6  1  0  0  0  0
  5  4  3  0  0  0  0
  6  7  1  0  0  0  0
  7 17  1  0  0  0  0
  8 18  1  0  0  0  0
  8  2  1  0  0  0  0
  9  8  1  0  0  0  0
  9  2  1  0  0  0  0
 13  3  1  0  0  0  0
 15  6  1  0  0  0  0
 16  6  1  0  0  0  0
 19  8  1  0  0  0  0
M TOR 0 0 1 2 3
M TOR 1 0 1 2 12
M TOR 2 0 1 2 13
M TOR 3 0 1 7 8
M TOR 4 0 1 7 17
M TOR 5 0 1 7 18
M TOR 6 1 2 3 4
M TOR 7 1 8 7 17
M TOR 8 1 8 7 18
M TOR 9 2 1 0 9
M TOR 10 2 1 0 10
M TOR 11 2 1 0 11
M TOR 12 2 1 7 8
M TOR 13 2 1 7 17
M TOR 14 2 1 7 18
M TOR 15 2 3 4 5
M TOR 16 3 2 1 7
M TOR 17 3 2 1 8
M TOR 18 3 4 5 6
M TOR 19 3 4 5 14
M TOR 20 3 4 5 15
M TOR 21 4 3 2 12
M TOR 22 4 3 2 13
M TOR 23 4 5 6 16
M TOR 24 7 1 0 9
M TOR 25 7 1 0 10
M TOR 26 7 1 0 11
M TOR 27 7 1 2 12
M TOR 28 7 1 2 13
M TOR 29 8 1 0 9
M TOR 30 8 1 0 10
M TOR 31 8 1 0 11
M TOR 32 8 1 2 12
M TOR 33 8 1 2 13
M  END
$$$$
