
     RDKit          3D

 19 18  0  0  0  0  0  0  0  0999 V2000
   -5.0628   -5.3236    0.1202 C   0  0  0  0  0  0  0  0  0  0  0  0
   -3.8664   -4.5584    0.4413 C   0  0  0  0  0  0  0  0  0  0  0  0
   -2.8745   -3.9345    0.7175 C   0  0  0  0  0  0  0  0  0  0  0  0
   -1.6807   -3.1565    1.0238 C   0  0  0  0  0  0  0  0  0  0  0  0
   -1.4921   -1.9841    0.0566 C   0  0  0  0  0  0  0  0  0  0  0  0
   -0.3163   -1.2979    0.4356 O   0  0  0  0  0  0  0  0  0  0  0  0
   -0.0236   -0.1913   -0.3756 C   0  0  0  0  0  0  0  0  0  0  0  0
    1.2544    0.4493    0.1384 C   0  0  0  0  0  0  0  0  0  0  0  0
    1.7578    1.4220   -0.3563 O   0  0  0  0  0  0  0  0  0  0  0  0
   -5.7695   -5.3287    0.9574 H   0  0  0  0  0  0  0  0  0  0  0  0
   -5.5825   -4.9034   -0.7480 H   0  0  0  0  0  0  0  0  0  0  0  0
   -4.8188   -6.3658   -0.1136 H   0  0  0  0  0  0  0  0  0  0  0  0
   -1.7300   -2.7593    2.0450 H   0  0  0  0  0  0  0  0  0  0  0  0
   -0.7858   -3.7892    0.9808 H   0  0  0  0  0  0  0  0  0  0  0  0
   -1.4100   -2.3542   -0.9773 H   0  0  0  0  0  0  0  0  0  0  0  0
   -2.3643   -1.3132    0.0984 H   0  0  0  0  0  0  0  0  0  0  0  0
    0.1232   -0.4769   -1.4313 H   0  0  0  0  0  0  0  0  0  0  0  0
   -0.8295    0.5623   -0.3574 H   0  0  0  0  0  0  0  0  0  0  0  0
    1.6862   -0.0689    1.0229 H   0  0  0  0  0  0  0  0  0  0  0  0
  1  2  1  0
  2  3  3  0
  3  4  1  0
  4  5  1  0
  5  6  1  0
  6  7  1  0
  7  8  1  0
  8  9  2  0
  1 10  1  0
  1 11  1  0
  1 12  1  0
  4 13  1  0
  4 14  1  0
  5 15  1  0
  5 16  1  0
  7 17  1  0
  7 18  1  0
  8 19  1  0
M  END
$$$$
