gdb 1799	2.8294552	1.8994865	1.4779999	2.5342	73.93	-0.23755	0.08048	0.31803000000000003	947.1014	0.158306	-422.525473	-422.518238	-422.517294	-422.556663	29.262
 OpenBabel02181911403D

 19 21  0  0  1  0  0  0  0  0999 V2000
    0.0437   -0.4336   -0.3826 C   0  0  0  0  0  0  0  0  0  0  0  0
    1.4988   -0.2463   -0.0684 C   0  0  1  0  0  0  0  0  0  0  0  0
    2.6125    0.1251   -1.0904 C   0  0  0  0  0  0  0  0  0  0  0  0
    3.1850    0.7351    0.2113 C   0  0  1  0  0  0  0  0  0  0  0  0
    1.8199    0.9983    0.6430 O   0  0  0  0  0  0  0  0  0  0  0  0
    3.5585   -0.5157    1.0321 C   0  0  1  0  0  0  0  0  0  0  0  0
    3.1156   -0.5368    2.5101 C   0  0  0  0  0  0  0  0  0  0  0  0
    1.9094   -1.2735    2.1906 O   0  0  0  0  0  0  0  0  0  0  0  0
    2.2406   -1.2998    0.7951 C   0  0  1  0  0  0  0  0  0  0  0  0
   -0.5241   -0.5369    0.5474 H   0  0  0  0  0  0  0  0  0  0  0  0
   -0.3515    0.4193   -0.9407 H   0  0  0  0  0  0  0  0  0  0  0  0
   -0.1045   -1.3408   -0.9776 H   0  0  0  0  0  0  0  0  0  0  0  0
    3.1650   -0.6736   -1.5948 H   0  0  0  0  0  0  0  0  0  0  0  0
    2.2770    0.8866   -1.7955 H   0  0  0  0  0  0  0  0  0  0  0  0
    3.8336    1.6107    0.2358 H   0  0  0  0  0  0  0  0  0  0  0  0
    4.5188   -0.9652    0.7817 H   0  0  0  0  0  0  0  0  0  0  0  0
    3.7652   -1.1141    3.1782 H   0  0  0  0  0  0  0  0  0  0  0  0
    2.8916    0.4384    2.9536 H   0  0  0  0  0  0  0  0  0  0  0  0
    2.2338   -2.3101    0.3735 H   0  0  0  0  0  0  0  0  0  0  0  0
  1 10  1  0  0  0  0
  2  1  1  6  0  0  0
  2  5  1  0  0  0  0
  2  9  1  0  0  0  0
  3  2  1  0  0  0  0
  3  4  1  0  0  0  0
  4 15  1  6  0  0  0
  4  5  1  0  0  0  0
  4  6  1  0  0  0  0
  6 16  1  6  0  0  0
  6  7  1  0  0  0  0
  7 18  1  0  0  0  0
  7 17  1  0  0  0  0
  8  7  1  0  0  0  0
  9 19  1  6  0  0  0
  9  6  1  0  0  0  0
  9  8  1  0  0  0  0
 11  1  1  0  0  0  0
 12  1  1  0  0  0  0
 13  3  1  0  0  0  0
 14  3  1  0  0  0  0
M TOR 0 0 1 2 3
M TOR 1 0 1 2 12
M TOR 2 0 1 2 13
M TOR 3 0 1 4 3
M TOR 4 0 1 8 5
M TOR 5 0 1 8 7
M TOR 6 0 1 8 18
M TOR 7 1 2 3 4
M TOR 8 1 2 3 5
M TOR 9 1 2 3 14
M TOR 10 1 4 3 5
M TOR 11 1 4 3 14
M TOR 12 1 8 5 3
M TOR 13 1 8 5 6
M TOR 14 1 8 5 15
M TOR 15 1 8 7 6
M TOR 16 2 1 0 9
M TOR 17 2 1 0 10
M TOR 18 2 1 0 11
M TOR 19 2 1 8 5
M TOR 20 2 1 8 7
M TOR 21 2 1 8 18
M TOR 22 2 3 5 6
M TOR 23 2 3 5 8
M TOR 24 2 3 5 15
M TOR 25 3 2 1 8
M TOR 26 3 4 1 8
M TOR 27 3 5 6 7
M TOR 28 3 5 6 16
M TOR 29 3 5 6 17
M TOR 30 3 5 8 7
M TOR 31 3 5 8 18
M TOR 32 4 1 0 9
M TOR 33 4 1 0 10
M TOR 34 4 1 0 11
M TOR 35 4 1 2 12
M TOR 36 4 1 2 13
M TOR 37 4 1 8 5
M TOR 38 4 1 8 7
M TOR 39 4 1 8 18
M TOR 40 4 3 2 12
M TOR 41 4 3 2 13
M TOR 42 4 3 5 6
M TOR 43 4 3 5 8
M TOR 44 4 3 5 15
M TOR 45 5 3 2 12
M TOR 46 5 3 2 13
M TOR 47 5 6 7 8
M TOR 48 6 5 3 14
M TOR 49 6 5 8 18
M TOR 50 6 7 8 18
M TOR 51 7 6 5 15
M TOR 52 7 8 5 15
M TOR 53 8 1 0 9
M TOR 54 8 1 0 10
M TOR 55 8 1 0 11
M TOR 56 8 1 2 12
M TOR 57 8 1 2 13
M TOR 58 8 5 3 14
M TOR 59 8 5 6 16
M TOR 60 8 5 6 17
M TOR 61 8 7 6 16
M TOR 62 8 7 6 17
M  END
$$$$
