
     RDKit          3D

 19 20  0  0  0  0  0  0  0  0999 V2000
    0.8886   -0.4381   -0.9436 C   0  0  0  0  0  0  0  0  0  0  0  0
    1.0243    0.1038    0.4629 C   0  0  0  0  0  0  0  0  0  0  0  0
    1.6908    1.4009    0.4958 O   0  0  0  0  0  0  0  0  0  0  0  0
    2.7066    0.9045    1.3571 C   0  0  0  0  0  0  0  0  0  0  0  0
    4.1241    1.3535    1.2471 C   0  0  0  0  0  0  0  0  0  0  0  0
    3.2812    1.7356    2.4590 C   0  0  0  0  0  0  0  0  0  0  0  0
    2.1043   -0.5105    1.3777 C   0  0  0  0  0  0  0  0  0  0  0  0
    1.6652   -1.0124    2.7292 C   0  0  0  0  0  0  0  0  0  0  0  0
    0.5230   -1.0637    3.1080 O   0  0  0  0  0  0  0  0  0  0  0  0
    0.4144   -1.4255   -0.9263 H   0  0  0  0  0  0  0  0  0  0  0  0
    0.2650    0.2288   -1.5466 H   0  0  0  0  0  0  0  0  0  0  0  0
    1.8660   -0.5251   -1.4285 H   0  0  0  0  0  0  0  0  0  0  0  0
    0.0517    0.1635    0.9621 H   0  0  0  0  0  0  0  0  0  0  0  0
    4.9171    0.6234    1.3759 H   0  0  0  0  0  0  0  0  0  0  0  0
    4.3329    2.1296    0.5185 H   0  0  0  0  0  0  0  0  0  0  0  0
    3.5070    1.2767    3.4159 H   0  0  0  0  0  0  0  0  0  0  0  0
    2.9309    2.7602    2.5208 H   0  0  0  0  0  0  0  0  0  0  0  0
    2.7463   -1.2616    0.9039 H   0  0  0  0  0  0  0  0  0  0  0  0
    2.4997   -1.3376    3.3922 H   0  0  0  0  0  0  0  0  0  0  0  0
  1  2  1  0
  2  3  1  0
  3  4  1  0
  4  5  1  0
  5  6  1  0
  4  7  1  0
  7  8  1  0
  8  9  2  0
  7  2  1  0
  6  4  1  0
  1 10  1  0
  1 11  1  0
  1 12  1  0
  2 13  1  0
  5 14  1  0
  5 15  1  0
  6 16  1  0
  6 17  1  0
  7 18  1  0
  8 19  1  0
M  END
$$$$
