gdb 543	3.2170575	1.6116022	1.3226168	1.6839	74.	-0.24419	0.06575	0.30994	997.2385	0.158979	-422.526389	-422.519182	-422.518238	-422.55797	28.501
 OpenBabel02181911403D

 19 21  0  0  1  0  0  0  0  0999 V2000
    3.7918    0.5048   -0.3829 C   0  0  0  0  0  0  0  0  0  0  0  0
    4.1495   -0.4299    0.6643 O   0  0  0  0  0  0  0  0  0  0  0  0
    2.8969   -1.1432    0.5362 C   0  0  1  0  0  0  0  0  0  0  0  0
    1.8510   -0.7344    1.5932 C   0  0  0  0  0  0  0  0  0  0  0  0
    1.3764    0.4181    0.6509 C   0  0  2  0  0  0  0  0  0  0  0  0
    0.0762    0.2891    0.1050 O   0  0  0  0  0  0  0  0  0  0  0  0
    0.1401   -0.5330   -1.0593 C   0  0  0  0  0  0  0  0  0  0  0  0
    1.5231   -0.2751   -1.6849 C   0  0  0  0  0  0  0  0  0  0  0  0
    2.3737   -0.0580   -0.4533 C   0  0  1  0  0  0  0  0  0  0  0  0
    3.9014    1.5509   -0.0694 H   0  0  0  0  0  0  0  0  0  0  0  0
    4.3936    0.3377   -1.2869 H   0  0  0  0  0  0  0  0  0  0  0  0
    3.0454   -2.2021    0.3023 H   0  0  0  0  0  0  0  0  0  0  0  0
    1.0668   -1.4802    1.7519 H   0  0  0  0  0  0  0  0  0  0  0  0
    2.2698   -0.4341    2.5560 H   0  0  0  0  0  0  0  0  0  0  0  0
    1.4799    1.4340    1.0423 H   0  0  0  0  0  0  0  0  0  0  0  0
    0.0337   -1.5969   -0.7934 H   0  0  0  0  0  0  0  0  0  0  0  0
   -0.6984   -0.2607   -1.7054 H   0  0  0  0  0  0  0  0  0  0  0  0
    1.8611   -1.1022   -2.3156 H   0  0  0  0  0  0  0  0  0  0  0  0
    1.5031    0.6353   -2.2957 H   0  0  0  0  0  0  0  0  0  0  0  0
  1 10  1  0  0  0  0
  1  2  1  0  0  0  0
  3 12  1  6  0  0  0
  3  2  1  0  0  0  0
  3  4  1  0  0  0  0
  4 13  1  0  0  0  0
  4 14  1  0  0  0  0
  5 15  1  1  0  0  0
  5  4  1  0  0  0  0
  6  5  1  0  0  0  0
  7 16  1  0  0  0  0
  7  6  1  0  0  0  0
  8  7  1  0  0  0  0
  9  8  1  6  0  0  0
  9  1  1  0  0  0  0
  9  3  1  0  0  0  0
  9  5  1  0  0  0  0
 11  1  1  0  0  0  0
 17  7  1  0  0  0  0
 18  8  1  0  0  0  0
 19  8  1  0  0  0  0
M TOR 0 0 1 2 3
M TOR 1 0 1 2 8
M TOR 2 0 1 2 11
M TOR 3 0 8 2 3
M TOR 4 0 8 2 11
M TOR 5 0 8 4 3
M TOR 6 0 8 4 5
M TOR 7 0 8 4 14
M TOR 8 0 8 7 6
M TOR 9 0 8 7 17
M TOR 10 0 8 7 18
M TOR 11 1 0 8 4
M TOR 12 1 0 8 7
M TOR 13 1 2 3 4
M TOR 14 1 2 3 12
M TOR 15 1 2 3 13
M TOR 16 1 2 8 4
M TOR 17 1 2 8 7
M TOR 18 2 1 0 9
M TOR 19 2 1 0 10
M TOR 20 2 3 4 5
M TOR 21 2 3 4 8
M TOR 22 2 3 4 14
M TOR 23 2 8 0 9
M TOR 24 2 8 0 10
M TOR 25 2 8 4 5
M TOR 26 2 8 4 14
M TOR 27 2 8 7 6
M TOR 28 2 8 7 17
M TOR 29 2 8 7 18
M TOR 30 3 2 8 7
M TOR 31 3 4 5 6
M TOR 32 3 4 8 7
M TOR 33 4 3 2 11
M TOR 34 4 5 6 7
M TOR 35 4 5 6 15
M TOR 36 4 5 6 16
M TOR 37 4 8 0 9
M TOR 38 4 8 0 10
M TOR 39 4 8 2 11
M TOR 40 4 8 7 6
M TOR 41 4 8 7 17
M TOR 42 4 8 7 18
M TOR 43 5 4 3 12
M TOR 44 5 4 3 13
M TOR 45 5 4 8 7
M TOR 46 5 6 7 8
M TOR 47 5 6 7 17
M TOR 48 5 6 7 18
M TOR 49 6 5 4 8
M TOR 50 6 5 4 14
M TOR 51 7 8 0 9
M TOR 52 7 8 0 10
M TOR 53 7 8 2 11
M TOR 54 7 8 4 14
M TOR 55 8 2 3 12
M TOR 56 8 2 3 13
M TOR 57 8 4 3 12
M TOR 58 8 4 3 13
M TOR 59 8 7 6 15
M TOR 60 8 7 6 16
M  END
$$$$
