
     RDKit          3D

 19 18  0  0  0  0  0  0  0  0999 V2000
    1.1079    2.6631   -2.8958 C   0  0  0  0  0  0  0  0  0  0  0  0
    1.5239    2.0430   -1.5484 C   0  0  0  0  0  0  0  0  0  0  0  0
    1.5466    0.4920   -1.6469 C   0  0  0  0  0  0  0  0  0  0  0  0
    1.5451   -0.2996   -0.3389 C   0  0  0  0  0  0  0  0  0  0  0  0
    0.7434   -1.1864   -0.1578 O   0  0  0  0  0  0  0  0  0  0  0  0
    2.6271   -0.0490    0.7213 C   0  0  0  0  0  0  0  0  0  0  0  0
    3.1677    1.2542    0.7818 O   0  0  0  0  0  0  0  0  0  0  0  0
    0.6566    2.4972   -0.4598 C   0  0  0  0  0  0  0  0  0  0  0  0
   -0.0358    2.8543    0.4581 C   0  0  0  0  0  0  0  0  0  0  0  0
    1.7849    2.3291   -3.6881 H   0  0  0  0  0  0  0  0  0  0  0  0
    0.0902    2.3648   -3.1639 H   0  0  0  0  0  0  0  0  0  0  0  0
    1.1433    3.7545   -2.8487 H   0  0  0  0  0  0  0  0  0  0  0  0
    2.5385    2.3750   -1.3097 H   0  0  0  0  0  0  0  0  0  0  0  0
    0.6732    0.1402   -2.2029 H   0  0  0  0  0  0  0  0  0  0  0  0
    2.4412    0.2053   -2.2158 H   0  0  0  0  0  0  0  0  0  0  0  0
    2.2168   -0.3879    1.6814 H   0  0  0  0  0  0  0  0  0  0  0  0
    3.4640   -0.7171    0.4763 H   0  0  0  0  0  0  0  0  0  0  0  0
    2.4612    1.8488    1.0628 H   0  0  0  0  0  0  0  0  0  0  0  0
   -0.6678    3.1752    1.2494 H   0  0  0  0  0  0  0  0  0  0  0  0
  1  2  1  0
  2  3  1  0
  3  4  1  0
  4  5  2  0
  4  6  1  0
  6  7  1  0
  2  8  1  0
  8  9  3  0
  1 10  1  0
  1 11  1  0
  1 12  1  0
  2 13  1  0
  3 14  1  0
  3 15  1  0
  6 16  1  0
  6 17  1  0
  7 18  1  0
  9 19  1  0
M  END
$$$$
