gdb 2078	2.5154227	1.517574	1.1198622	2.9537	75.02	-0.24095	-0.01599	0.22496	1116.1194	0.156646	-422.569545	-422.560974	-422.56003	-422.60282	32.498
 OpenBabel02181911403D

 19 20  0  0  1  0  0  0  0  0999 V2000
   -0.9122    1.3816    0.3293 O   0  0  0  0  0  0  0  0  0  0  0  0
   -0.8939    0.3677   -0.6310 C   0  0  1  0  0  0  0  0  0  0  0  0
   -2.1898   -0.1354   -1.2144 C   0  0  0  0  0  0  0  0  0  0  0  0
   -1.2391    0.6979   -2.0575 C   0  0  2  0  0  0  0  0  0  0  0  0
   -0.2777   -0.0419   -2.9719 C   0  0  0  0  0  0  0  0  0  0  0  0
    0.3568   -1.1374   -2.0773 C   0  0  0  0  0  0  0  0  0  0  0  0
    0.2970   -0.5938   -0.6192 C   0  0  1  0  0  0  0  0  0  0  0  0
    1.5598    0.1724   -0.2732 C   0  0  0  0  0  0  0  0  0  0  0  0
    2.2979   -0.1056    0.6361 O   0  0  0  0  0  0  0  0  0  0  0  0
   -1.1423    0.9898    1.1795 H   0  0  0  0  0  0  0  0  0  0  0  0
   -2.3228   -1.1917   -1.4271 H   0  0  0  0  0  0  0  0  0  0  0  0
   -3.0816    0.3741   -0.8667 H   0  0  0  0  0  0  0  0  0  0  0  0
   -1.5530    1.7032   -2.3130 H   0  0  0  0  0  0  0  0  0  0  0  0
   -0.7614   -0.4717   -3.8555 H   0  0  0  0  0  0  0  0  0  0  0  0
    0.4881    0.6542   -3.3328 H   0  0  0  0  0  0  0  0  0  0  0  0
   -0.2188   -2.0651   -2.1338 H   0  0  0  0  0  0  0  0  0  0  0  0
    1.3765   -1.3870   -2.3847 H   0  0  0  0  0  0  0  0  0  0  0  0
    0.1953   -1.3992    0.1158 H   0  0  0  0  0  0  0  0  0  0  0  0
    1.7814    1.0284   -0.9514 H   0  0  0  0  0  0  0  0  0  0  0  0
  1 10  1  0  0  0  0
  2  7  1  0  0  0  0
  2  1  1  1  0  0  0
  3 12  1  0  0  0  0
  3  2  1  0  0  0  0
  4 13  1  6  0  0  0
  4  3  1  0  0  0  0
  4  2  1  0  0  0  0
  5  6  1  0  0  0  0
  5  4  1  0  0  0  0
  6  7  1  0  0  0  0
  7  8  1  0  0  0  0
  7 18  1  1  0  0  0
  8  9  2  0  0  0  0
 11  3  1  0  0  0  0
 14  5  1  0  0  0  0
 15  5  1  0  0  0  0
 16  6  1  0  0  0  0
 17  6  1  0  0  0  0
 19  8  1  0  0  0  0
M TOR 0 0 1 2 3
M TOR 1 0 1 2 10
M TOR 2 0 1 2 11
M TOR 3 0 1 3 4
M TOR 4 0 1 3 12
M TOR 5 0 1 6 5
M TOR 6 0 1 6 7
M TOR 7 0 1 6 17
M TOR 8 1 2 3 4
M TOR 9 1 2 3 12
M TOR 10 1 3 2 10
M TOR 11 1 3 2 11
M TOR 12 1 3 4 5
M TOR 13 1 3 4 13
M TOR 14 1 3 4 14
M TOR 15 1 6 5 4
M TOR 16 1 6 5 15
M TOR 17 1 6 5 16
M TOR 18 1 6 7 8
M TOR 19 1 6 7 18
M TOR 20 2 1 0 9
M TOR 21 2 1 6 5
M TOR 22 2 1 6 7
M TOR 23 2 1 6 17
M TOR 24 2 3 1 6
M TOR 25 2 3 4 5
M TOR 26 2 3 4 13
M TOR 27 2 3 4 14
M TOR 28 3 1 0 9
M TOR 29 3 1 6 5
M TOR 30 3 1 6 7
M TOR 31 3 1 6 17
M TOR 32 3 4 5 6
M TOR 33 3 4 5 15
M TOR 34 3 4 5 16
M TOR 35 4 3 1 6
M TOR 36 4 3 2 10
M TOR 37 4 3 2 11
M TOR 38 4 5 6 7
M TOR 39 4 5 6 17
M TOR 40 5 4 3 12
M TOR 41 5 6 7 8
M TOR 42 5 6 7 18
M TOR 43 6 1 0 9
M TOR 44 6 1 2 10
M TOR 45 6 1 2 11
M TOR 46 6 1 3 12
M TOR 47 6 5 4 13
M TOR 48 6 5 4 14
M TOR 49 7 6 5 15
M TOR 50 7 6 5 16
M TOR 51 8 7 6 17
M  END
$$$$
