
     RDKit          3D

 19 21  0  0  0  0  0  0  0  0999 V2000
    0.1224    0.5501   -0.0272 C   0  0  0  0  0  0  0  0  0  0  0  0
    0.8407   -0.7327   -0.3868 C   0  0  0  0  0  0  0  0  0  0  0  0
    1.3735   -1.6247    0.7634 C   0  0  0  0  0  0  0  0  0  0  0  0
    2.7253   -1.3785    0.1085 C   0  0  0  0  0  0  0  0  0  0  0  0
    2.1935   -0.4910   -0.8690 O   0  0  0  0  0  0  0  0  0  0  0  0
    4.0360   -1.2085    0.8081 C   0  0  0  0  0  0  0  0  0  0  0  0
    5.0919   -0.8250   -0.2263 C   0  0  0  0  0  0  0  0  0  0  0  0
    4.7403   -1.9436   -1.0843 O   0  0  0  0  0  0  0  0  0  0  0  0
    3.7795   -2.3990   -0.1375 C   0  0  0  0  0  0  0  0  0  0  0  0
    0.6778    1.1054    0.7350 H   0  0  0  0  0  0  0  0  0  0  0  0
    0.0189    1.1885   -0.9101 H   0  0  0  0  0  0  0  0  0  0  0  0
   -0.8801    0.3326    0.3576 H   0  0  0  0  0  0  0  0  0  0  0  0
    0.2725   -1.2954   -1.1385 H   0  0  0  0  0  0  0  0  0  0  0  0
    1.2575   -1.1875    1.7586 H   0  0  0  0  0  0  0  0  0  0  0  0
    1.0227   -2.6584    0.7761 H   0  0  0  0  0  0  0  0  0  0  0  0
    4.1427   -1.1406    1.8840 H   0  0  0  0  0  0  0  0  0  0  0  0
    4.9642    0.1398   -0.7286 H   0  0  0  0  0  0  0  0  0  0  0  0
    6.1206   -0.9316    0.1338 H   0  0  0  0  0  0  0  0  0  0  0  0
    3.6835   -3.4702    0.0151 H   0  0  0  0  0  0  0  0  0  0  0  0
  1  2  1  0
  2  3  1  0
  3  4  1  0
  4  5  1  0
  4  6  1  0
  6  7  1  0
  7  8  1  0
  8  9  1  0
  5  2  1  0
  9  6  1  0
  9  4  1  0
  1 10  1  0
  1 11  1  0
  1 12  1  0
  2 13  1  0
  3 14  1  0
  3 15  1  0
  6 16  1  0
  7 17  1  0
  7 18  1  0
  9 19  1  0
M  END
$$$$
