
     RDKit          3D

 19 19  0  0  0  0  0  0  0  0999 V2000
   -2.2522    2.8590    2.2750 C   0  0  0  0  0  0  0  0  0  0  0  0
   -0.8032    2.7253    1.7771 C   0  0  0  0  0  0  0  0  0  0  0  0
   -0.5628    3.6831    0.6207 C   0  0  0  0  0  0  0  0  0  0  0  0
    0.2498    4.5696    0.6154 O   0  0  0  0  0  0  0  0  0  0  0  0
   -0.4979    1.3090    1.3112 C   0  0  0  0  0  0  0  0  0  0  0  0
    0.8955    0.7808    1.2827 C   0  0  0  0  0  0  0  0  0  0  0  0
   -0.0726    0.2672    2.3421 C   0  0  0  0  0  0  0  0  0  0  0  0
   -0.6035   -1.1070    2.2050 C   0  0  0  0  0  0  0  0  0  0  0  0
   -0.8864   -1.8341    3.1237 O   0  0  0  0  0  0  0  0  0  0  0  0
   -2.4450    2.1443    3.0800 H   0  0  0  0  0  0  0  0  0  0  0  0
   -2.4487    3.8661    2.6535 H   0  0  0  0  0  0  0  0  0  0  0  0
   -2.9663    2.6550    1.4690 H   0  0  0  0  0  0  0  0  0  0  0  0
   -0.1029    3.0071    2.5705 H   0  0  0  0  0  0  0  0  0  0  0  0
   -1.2204    3.4990   -0.2631 H   0  0  0  0  0  0  0  0  0  0  0  0
   -1.1643    0.9400    0.5332 H   0  0  0  0  0  0  0  0  0  0  0  0
    1.1758    0.0993    0.4864 H   0  0  0  0  0  0  0  0  0  0  0  0
    1.6990    1.4180    1.6348 H   0  0  0  0  0  0  0  0  0  0  0  0
    0.0701    0.6003    3.3644 H   0  0  0  0  0  0  0  0  0  0  0  0
   -0.7315   -1.4373    1.1452 H   0  0  0  0  0  0  0  0  0  0  0  0
  1  2  1  0
  2  3  1  0
  3  4  2  0
  2  5  1  0
  5  6  1  0
  6  7  1  0
  7  8  1  0
  8  9  2  0
  7  5  1  0
  1 10  1  0
  1 11  1  0
  1 12  1  0
  2 13  1  0
  3 14  1  0
  5 15  1  0
  6 16  1  0
  6 17  1  0
  7 18  1  0
  8 19  1  0
M  END
$$$$
