
     RDKit          3D

 19 18  0  0  0  0  0  0  0  0999 V2000
   -1.5446   -1.4015   -0.2987 C   0  0  0  0  0  0  0  0  0  0  0  0
   -2.4719   -0.1887   -0.2181 C   0  0  0  0  0  0  0  0  0  0  0  0
   -3.5366   -0.3017   -1.1626 O   0  0  0  0  0  0  0  0  0  0  0  0
   -1.7628    1.1341   -0.5480 C   0  0  0  0  0  0  0  0  0  0  0  0
   -2.7451    2.3254   -0.5997 C   0  0  0  0  0  0  0  0  0  0  0  0
   -0.6683    1.4590    0.4603 C   0  0  0  0  0  0  0  0  0  0  0  0
   -0.6017    0.9699    1.5689 O   0  0  0  0  0  0  0  0  0  0  0  0
    0.3066    2.4487    0.0217 C   0  0  0  0  0  0  0  0  0  0  0  0
    1.1178    3.2543   -0.3555 C   0  0  0  0  0  0  0  0  0  0  0  0
   -0.7435   -1.3360    0.4404 H   0  0  0  0  0  0  0  0  0  0  0  0
   -2.1063   -2.3213   -0.0979 H   0  0  0  0  0  0  0  0  0  0  0  0
   -1.1087   -1.4843   -1.2999 H   0  0  0  0  0  0  0  0  0  0  0  0
   -2.8747   -0.1116    0.8026 H   0  0  0  0  0  0  0  0  0  0  0  0
   -3.9911   -1.1323   -0.9922 H   0  0  0  0  0  0  0  0  0  0  0  0
   -1.2920    1.0431   -1.5358 H   0  0  0  0  0  0  0  0  0  0  0  0
   -3.2345    2.4622    0.3702 H   0  0  0  0  0  0  0  0  0  0  0  0
   -2.2228    3.2514   -0.8545 H   0  0  0  0  0  0  0  0  0  0  0  0
   -3.5126    2.1309   -1.3490 H   0  0  0  0  0  0  0  0  0  0  0  0
    1.8419    3.9651   -0.6727 H   0  0  0  0  0  0  0  0  0  0  0  0
  1  2  1  0
  2  3  1  0
  2  4  1  0
  4  5  1  0
  4  6  1  0
  6  7  2  0
  6  8  1  0
  8  9  3  0
  1 10  1  0
  1 11  1  0
  1 12  1  0
  2 13  1  0
  3 14  1  0
  4 15  1  0
  5 16  1  0
  5 17  1  0
  5 18  1  0
  9 19  1  0
M  END
$$$$
