
     RDKit          3D

 19 21  0  0  0  0  0  0  0  0999 V2000
   -0.0835   -0.0486   -0.0116 C   0  0  0  0  0  0  0  0  0  0  0  0
    1.4352    0.0830    0.0133 C   0  0  0  0  0  0  0  0  0  0  0  0
    2.1970   -0.6950   -1.1404 C   0  0  0  0  0  0  0  0  0  0  0  0
    3.6486   -0.5017   -0.7022 C   0  0  0  0  0  0  0  0  0  0  0  0
    3.1203   -1.4921    0.3470 C   0  0  0  0  0  0  0  0  0  0  0  0
    3.8544   -1.6841    1.6838 C   0  0  0  0  0  0  0  0  0  0  0  0
    3.1844   -0.4502    2.1232 O   0  0  0  0  0  0  0  0  0  0  0  0
    2.1115   -0.7334    1.1495 C   0  0  0  0  0  0  0  0  0  0  0  0
    2.3104   -2.1200   -0.7007 O   0  0  0  0  0  0  0  0  0  0  0  0
   -0.5365    0.4134    0.8715 H   0  0  0  0  0  0  0  0  0  0  0  0
   -0.5073    0.4345   -0.8982 H   0  0  0  0  0  0  0  0  0  0  0  0
   -0.3767   -1.1033   -0.0314 H   0  0  0  0  0  0  0  0  0  0  0  0
    1.7331    1.1350   -0.0172 H   0  0  0  0  0  0  0  0  0  0  0  0
    1.8371   -0.6032   -2.1648 H   0  0  0  0  0  0  0  0  0  0  0  0
    4.3589   -0.9883   -1.3719 H   0  0  0  0  0  0  0  0  0  0  0  0
    3.9894    0.4838   -0.3801 H   0  0  0  0  0  0  0  0  0  0  0  0
    3.5303   -2.5458    2.2796 H   0  0  0  0  0  0  0  0  0  0  0  0
    4.9430   -1.5867    1.6945 H   0  0  0  0  0  0  0  0  0  0  0  0
    1.3767   -1.3812    1.6433 H   0  0  0  0  0  0  0  0  0  0  0  0
  1  2  1  0
  2  3  1  0
  3  4  1  0
  4  5  1  0
  5  6  1  0
  6  7  1  0
  7  8  1  0
  5  9  1  0
  8  2  1  0
  9  3  1  0
  8  5  1  0
  1 10  1  0
  1 11  1  0
  1 12  1  0
  2 13  1  0
  3 14  1  0
  4 15  1  0
  4 16  1  0
  6 17  1  0
  6 18  1  0
  8 19  1  0
M  END
$$$$
