gdb 5836	2.1597983	1.3748383	1.1312472	2.2756	78.1	-0.24679	0.02495	0.27174	1194.3075	0.153412	-422.491397	-422.481398	-422.480453	-422.526499	35.839
 OpenBabel02181911423D

 19 19  0  0  1  0  0  0  0  0999 V2000
    1.5163   -0.4066    0.0080 C   0  0  0  0  0  0  0  0  0  0  0  0
    0.1587   -0.0219   -0.1070 O   0  0  0  0  0  0  0  0  0  0  0  0
   -0.3568    0.5861    1.0356 C   0  0  2  0  0  0  0  0  0  0  0  0
   -1.8683    0.8237    0.9790 C   0  0  0  0  0  0  0  0  0  0  0  0
   -1.7138    2.2309    1.2494 O   0  0  0  0  0  0  0  0  0  0  0  0
   -0.2581    2.1600    1.1619 C   0  0  2  0  0  0  0  0  0  0  0  0
    0.2448    2.8903   -0.0791 C   0  0  0  0  0  0  0  0  0  0  0  0
    0.3778    2.6387    2.3815 C   0  0  0  0  0  0  0  0  0  0  0  0
    0.9218    3.0063    3.3891 C   0  0  0  0  0  0  0  0  0  0  0  0
    1.6623   -1.1070    0.8434 H   0  0  0  0  0  0  0  0  0  0  0  0
    1.7886   -0.9027   -0.9260 H   0  0  0  0  0  0  0  0  0  0  0  0
    2.1786    0.4566    0.1588 H   0  0  0  0  0  0  0  0  0  0  0  0
   -0.0111    0.0813    1.9461 H   0  0  0  0  0  0  0  0  0  0  0  0
   -2.2912    0.6317   -0.0145 H   0  0  0  0  0  0  0  0  0  0  0  0
   -2.4731    0.3205    1.7405 H   0  0  0  0  0  0  0  0  0  0  0  0
   -0.1651    2.4278   -0.9791 H   0  0  0  0  0  0  0  0  0  0  0  0
   -0.0745    3.9347   -0.0326 H   0  0  0  0  0  0  0  0  0  0  0  0
    1.3369    2.8653   -0.1345 H   0  0  0  0  0  0  0  0  0  0  0  0
    1.3934    3.3416    4.2797 H   0  0  0  0  0  0  0  0  0  0  0  0
  1 12  1  0  0  0  0
  1 10  1  0  0  0  0
  2  1  1  0  0  0  0
  2  3  1  0  0  0  0
  3  6  1  0  0  0  0
  3 13  1  1  0  0  0
  4  3  1  0  0  0  0
  4  5  1  0  0  0  0
  4 15  1  0  0  0  0
  6  5  1  0  0  0  0
  6  8  1  1  0  0  0
  7 17  1  0  0  0  0
  7  6  1  0  0  0  0
  8  9  3  0  0  0  0
  9 19  1  0  0  0  0
 11  1  1  0  0  0  0
 14  4  1  0  0  0  0
 16  7  1  0  0  0  0
 18  7  1  0  0  0  0
M TOR 0 0 1 2 3
M TOR 1 0 1 2 5
M TOR 2 0 1 2 12
M TOR 3 1 2 3 4
M TOR 4 1 2 3 13
M TOR 5 1 2 3 14
M TOR 6 1 2 5 4
M TOR 7 1 2 5 6
M TOR 8 1 2 5 7
M TOR 9 2 1 0 9
M TOR 10 2 1 0 10
M TOR 11 2 1 0 11
M TOR 12 2 3 4 5
M TOR 13 2 5 6 15
M TOR 14 2 5 6 16
M TOR 15 2 5 6 17
M TOR 16 2 5 7 8
M TOR 17 3 2 5 6
M TOR 18 3 2 5 7
M TOR 19 3 4 5 6
M TOR 20 3 4 5 7
M TOR 21 4 3 2 12
M TOR 22 4 5 2 12
M TOR 23 4 5 6 15
M TOR 24 4 5 6 16
M TOR 25 4 5 6 17
M TOR 26 4 5 7 8
M TOR 27 5 2 3 13
M TOR 28 5 2 3 14
M TOR 29 5 4 3 13
M TOR 30 5 4 3 14
M TOR 31 5 7 8 18
M TOR 32 6 5 2 12
M TOR 33 6 5 7 8
M TOR 34 7 5 2 12
M TOR 35 7 5 6 15
M TOR 36 7 5 6 16
M TOR 37 7 5 6 17
M  END
$$$$
