gdb 2221	2.5043927	2.0278537	1.802176	0.4954	73.	-0.24126	0.08242	0.32367999999999997	892.9695	0.159484	-422.573207	-422.566364	-422.56542	-422.603891	28.505
 OpenBabel02181911413D

 19 21  0  0  1  0  0  0  0  0999 V2000
   -0.0476    0.0940   -0.0832 C   0  0  0  0  0  0  0  0  0  0  0  0
    1.3771    0.3064    0.3422 C   0  0  2  0  0  0  0  0  0  0  0  0
    2.1580    0.9693   -0.6329 O   0  0  0  0  0  0  0  0  0  0  0  0
    3.4071    1.0018    0.0796 C   0  0  2  0  0  0  0  0  0  0  0  0
    3.6397   -0.4994    0.3790 C   0  0  0  0  0  0  0  0  0  0  0  0
    2.2469   -0.8652    0.9175 C   0  0  1  0  0  0  0  0  0  0  0  0
    2.0844   -0.3621    2.2641 O   0  0  0  0  0  0  0  0  0  0  0  0
    1.7348    0.9374    1.7329 C   0  0  1  0  0  0  0  0  0  0  0  0
    3.0067    1.7286    1.3869 C   0  0  0  0  0  0  0  0  0  0  0  0
   -0.6031   -0.4196    0.7065 H   0  0  0  0  0  0  0  0  0  0  0  0
   -0.5371    1.0513   -0.2868 H   0  0  0  0  0  0  0  0  0  0  0  0
   -0.0933   -0.5135   -0.9923 H   0  0  0  0  0  0  0  0  0  0  0  0
    4.1635    1.4931   -0.5314 H   0  0  0  0  0  0  0  0  0  0  0  0
    3.8626   -1.0326   -0.5501 H   0  0  0  0  0  0  0  0  0  0  0  0
    4.4228   -0.7004    1.1131 H   0  0  0  0  0  0  0  0  0  0  0  0
    1.9450   -1.9099    0.8199 H   0  0  0  0  0  0  0  0  0  0  0  0
    0.9896    1.4534    2.3414 H   0  0  0  0  0  0  0  0  0  0  0  0
    2.7802    2.7776    1.1736 H   0  0  0  0  0  0  0  0  0  0  0  0
    3.7495    1.6698    2.1853 H   0  0  0  0  0  0  0  0  0  0  0  0
  1 10  1  0  0  0  0
  2  1  1  6  0  0  0
  2  6  1  0  0  0  0
  2  8  1  0  0  0  0
  3  4  1  0  0  0  0
  3  2  1  0  0  0  0
  4 13  1  6  0  0  0
  4  5  1  0  0  0  0
  4  9  1  0  0  0  0
  5  6  1  0  0  0  0
  5 15  1  0  0  0  0
  6 16  1  6  0  0  0
  6  7  1  0  0  0  0
  8  7  1  0  0  0  0
  8 17  1  1  0  0  0
  9  8  1  0  0  0  0
  9 19  1  0  0  0  0
 11  1  1  0  0  0  0
 12  1  1  0  0  0  0
 14  5  1  0  0  0  0
 18  9  1  0  0  0  0
M TOR 0 0 1 2 3
M TOR 1 0 1 5 4
M TOR 2 0 1 5 6
M TOR 3 0 1 5 15
M TOR 4 0 1 7 6
M TOR 5 0 1 7 8
M TOR 6 0 1 7 16
M TOR 7 1 2 3 4
M TOR 8 1 2 3 8
M TOR 9 1 2 3 12
M TOR 10 1 5 4 3
M TOR 11 1 5 4 13
M TOR 12 1 5 4 14
M TOR 13 1 5 6 7
M TOR 14 1 7 8 3
M TOR 15 1 7 8 17
M TOR 16 1 7 8 18
M TOR 17 2 1 0 9
M TOR 18 2 1 0 10
M TOR 19 2 1 0 11
M TOR 20 2 1 5 4
M TOR 21 2 1 5 6
M TOR 22 2 1 5 15
M TOR 23 2 1 7 6
M TOR 24 2 1 7 8
M TOR 25 2 1 7 16
M TOR 26 2 3 4 5
M TOR 27 2 3 4 13
M TOR 28 2 3 4 14
M TOR 29 2 3 8 7
M TOR 30 2 3 8 17
M TOR 31 2 3 8 18
M TOR 32 3 2 1 5
M TOR 33 3 2 1 7
M TOR 34 3 4 5 6
M TOR 35 3 4 5 15
M TOR 36 3 8 7 6
M TOR 37 3 8 7 16
M TOR 38 4 3 8 7
M TOR 39 4 3 8 17
M TOR 40 4 3 8 18
M TOR 41 4 5 1 7
M TOR 42 4 5 6 7
M TOR 43 5 1 0 9
M TOR 44 5 1 0 10
M TOR 45 5 1 0 11
M TOR 46 5 1 7 8
M TOR 47 5 1 7 16
M TOR 48 5 4 3 8
M TOR 49 5 4 3 12
M TOR 50 5 6 7 8
M TOR 51 5 6 7 16
M TOR 52 6 5 4 13
M TOR 53 6 5 4 14
M TOR 54 6 7 8 17
M TOR 55 6 7 8 18
M TOR 56 7 1 0 9
M TOR 57 7 1 0 10
M TOR 58 7 1 0 11
M TOR 59 7 1 5 15
M TOR 60 7 6 5 15
M TOR 61 7 8 3 12
M TOR 62 8 3 4 13
M TOR 63 8 3 4 14
M  END
$$$$
