gdb 4333	2.2230966	1.7468619	1.4280109	2.574	75.86	-0.23897	0.00503	0.244	1010.907	0.157385	-422.556736	-422.548448	-422.547504	-422.58901	33.001
 OpenBabel02181911413D

 19 20  0  0  1  0  0  0  0  0999 V2000
    0.3640   -0.1108    0.3536 O   0  0  0  0  0  0  0  0  0  0  0  0
   -0.9568    0.2077    0.7671 C   0  0  2  0  0  0  0  0  0  0  0  0
   -0.9413    0.7993    2.1894 C   0  0  0  0  0  0  0  0  0  0  0  0
   -0.6112   -0.2867    3.1935 C   0  0  0  0  0  0  0  0  0  0  0  0
   -1.0765   -1.5315    3.0473 C   0  0  0  0  0  0  0  0  0  0  0  0
   -1.9638   -1.8930    1.9120 C   0  0  2  0  0  0  0  0  0  0  0  0
   -1.4114   -2.3695    0.5682 C   0  0  0  0  0  0  0  0  0  0  0  0
   -1.9415   -0.9817    0.7091 C   0  0  2  0  0  0  0  0  0  0  0  0
   -3.1447   -0.7198    0.0365 O   0  0  0  0  0  0  0  0  0  0  0  0
    0.7916   -0.5652    1.0895 H   0  0  0  0  0  0  0  0  0  0  0  0
   -1.3172    0.9445    0.0428 H   0  0  0  0  0  0  0  0  0  0  0  0
   -0.2121    1.6137    2.2357 H   0  0  0  0  0  0  0  0  0  0  0  0
   -1.9222    1.2433    2.4158 H   0  0  0  0  0  0  0  0  0  0  0  0
    0.0228   -0.0333    4.0385 H   0  0  0  0  0  0  0  0  0  0  0  0
   -0.8270   -2.3048    3.7704 H   0  0  0  0  0  0  0  0  0  0  0  0
   -2.9262   -2.3256    2.1756 H   0  0  0  0  0  0  0  0  0  0  0  0
   -0.3423   -2.4958    0.4467 H   0  0  0  0  0  0  0  0  0  0  0  0
   -2.0298   -3.0666    0.0145 H   0  0  0  0  0  0  0  0  0  0  0  0
   -3.6929   -0.1690    0.6060 H   0  0  0  0  0  0  0  0  0  0  0  0
  1  2  1  0  0  0  0
  1 10  1  0  0  0  0
  2 11  1  6  0  0  0
  2  3  1  0  0  0  0
  3 12  1  0  0  0  0
  3 13  1  0  0  0  0
  3  4  1  0  0  0  0
  4 14  1  0  0  0  0
  5  4  2  0  0  0  0
  5 15  1  0  0  0  0
  6 16  1  1  0  0  0
  6  5  1  0  0  0  0
  7  8  1  0  0  0  0
  7  6  1  0  0  0  0
  8  9  1  6  0  0  0
  8  2  1  0  0  0  0
  8  6  1  0  0  0  0
  9 19  1  0  0  0  0
 17  7  1  0  0  0  0
 18  7  1  0  0  0  0
M TOR 0 0 1 2 3
M TOR 1 0 1 2 11
M TOR 2 0 1 2 12
M TOR 3 0 1 7 5
M TOR 4 0 1 7 6
M TOR 5 0 1 7 8
M TOR 6 1 2 3 4
M TOR 7 1 2 3 13
M TOR 8 1 7 5 4
M TOR 9 1 7 5 6
M TOR 10 1 7 5 15
M TOR 11 1 7 6 16
M TOR 12 1 7 6 17
M TOR 13 1 7 8 18
M TOR 14 2 1 0 9
M TOR 15 2 1 7 5
M TOR 16 2 1 7 6
M TOR 17 2 1 7 8
M TOR 18 2 3 4 5
M TOR 19 2 3 4 14
M TOR 20 3 2 1 7
M TOR 21 3 2 1 10
M TOR 22 3 4 5 6
M TOR 23 3 4 5 7
M TOR 24 3 4 5 15
M TOR 25 4 3 2 11
M TOR 26 4 3 2 12
M TOR 27 4 5 6 7
M TOR 28 4 5 6 16
M TOR 29 4 5 6 17
M TOR 30 4 5 7 8
M TOR 31 5 4 3 13
M TOR 32 5 6 7 8
M TOR 33 5 7 1 10
M TOR 34 5 7 6 16
M TOR 35 5 7 6 17
M TOR 36 5 7 8 18
M TOR 37 6 5 4 14
M TOR 38 6 7 1 10
M TOR 39 6 7 5 15
M TOR 40 6 7 8 18
M TOR 41 7 1 0 9
M TOR 42 7 1 2 11
M TOR 43 7 1 2 12
M TOR 44 7 5 4 14
M TOR 45 8 7 1 10
M TOR 46 8 7 5 15
M TOR 47 8 7 6 16
M TOR 48 8 7 6 17
M  END
$$$$
