gdb 5926	2.812936	0.7975024	0.6503909	3.0509	79.44	-0.24783	-0.02413	0.2237	1704.4086	0.152425	-422.515089	-422.504215	-422.503271	-422.552519	36.609
 OpenBabel02181911423D

 19 18  0  0  1  0  0  0  0  0999 V2000
    1.4740   -0.0703   -0.0213 C   0  0  0  0  0  0  0  0  0  0  0  0
    0.0728   -0.1374    0.1055 O   0  0  0  0  0  0  0  0  0  0  0  0
   -0.4240    0.6703    1.1409 C   0  0  0  0  0  0  0  0  0  0  0  0
   -1.9580    0.5690    1.1444 C   0  0  1  0  0  0  0  0  0  0  0  0
   -2.5359    1.2854    2.3911 C   0  0  0  0  0  0  0  0  0  0  0  0
   -4.0337    1.1114    2.5405 C   0  0  0  0  0  0  0  0  0  0  0  0
   -4.5752    0.8018    3.5707 O   0  0  0  0  0  0  0  0  0  0  0  0
   -2.5259    1.1021   -0.0928 C   0  0  0  0  0  0  0  0  0  0  0  0
   -2.9976    1.5757   -1.0917 C   0  0  0  0  0  0  0  0  0  0  0  0
    1.9841   -0.4049    0.8959 H   0  0  0  0  0  0  0  0  0  0  0  0
    1.7576   -0.7303   -0.8440 H   0  0  0  0  0  0  0  0  0  0  0  0
    1.8137    0.9518   -0.2504 H   0  0  0  0  0  0  0  0  0  0  0  0
   -0.0367    0.3358    2.1184 H   0  0  0  0  0  0  0  0  0  0  0  0
   -0.1207    1.7219    1.0042 H   0  0  0  0  0  0  0  0  0  0  0  0
   -2.2000   -0.5001    1.2104 H   0  0  0  0  0  0  0  0  0  0  0  0
   -2.0581    0.9212    3.3048 H   0  0  0  0  0  0  0  0  0  0  0  0
   -2.3337    2.3620    2.3032 H   0  0  0  0  0  0  0  0  0  0  0  0
   -4.6177    1.2999    1.6141 H   0  0  0  0  0  0  0  0  0  0  0  0
   -3.4102    1.9747   -1.9853 H   0  0  0  0  0  0  0  0  0  0  0  0
  1  2  1  0  0  0  0
  1 10  1  0  0  0  0
  2  3  1  0  0  0  0
  3  4  1  0  0  0  0
  3 13  1  0  0  0  0
  4 15  1  1  0  0  0
  4  5  1  0  0  0  0
  5  6  1  0  0  0  0
  5 16  1  0  0  0  0
  6  7  2  0  0  0  0
  8  4  1  0  0  0  0
  9  8  3  0  0  0  0
 11  1  1  0  0  0  0
 12  1  1  0  0  0  0
 14  3  1  0  0  0  0
 17  5  1  0  0  0  0
 18  6  1  0  0  0  0
 19  9  1  0  0  0  0
M TOR 0 0 1 2 3
M TOR 1 0 1 2 12
M TOR 2 0 1 2 13
M TOR 3 1 2 3 4
M TOR 4 1 2 3 7
M TOR 5 1 2 3 14
M TOR 6 2 1 0 9
M TOR 7 2 1 0 10
M TOR 8 2 1 0 11
M TOR 9 2 3 4 5
M TOR 10 2 3 4 15
M TOR 11 2 3 4 16
M TOR 12 2 3 7 8
M TOR 13 3 4 5 6
M TOR 14 3 4 5 17
M TOR 15 3 7 8 18
M TOR 16 4 3 2 12
M TOR 17 4 3 2 13
M TOR 18 4 3 7 8
M TOR 19 5 4 3 7
M TOR 20 5 4 3 14
M TOR 21 6 5 4 15
M TOR 22 6 5 4 16
M TOR 23 7 3 2 12
M TOR 24 7 3 2 13
M TOR 25 7 3 4 15
M TOR 26 7 3 4 16
M TOR 27 8 7 3 14
M  END
$$$$
