gdb 3991	4.0816715	0.8375813	0.7471243	1.0323	77.01	-0.23568	-0.02395	0.21173	1521.3305	0.154642	-422.522868	-422.513735	-422.512791	-422.557946	32.73
 OpenBabel02181911413D

 19 20  0  0  1  0  0  0  0  0999 V2000
    0.0888    5.7390   -0.0737 C   0  0  0  0  0  0  0  0  0  0  0  0
   -0.6965    4.4473    0.0101 C   0  0  1  0  0  0  0  0  0  0  0  0
   -1.6539    4.3381   -1.0953 O   0  0  0  0  0  0  0  0  0  0  0  0
   -0.9492    3.2125   -1.6093 C   0  0  2  0  0  0  0  0  0  0  0  0
   -0.9772    2.0642   -0.6443 C   0  0  1  0  0  0  0  0  0  0  0  0
   -0.4276    0.7292   -1.1205 C   0  0  0  0  0  0  0  0  0  0  0  0
    0.1916   -0.0445    0.0263 C   0  0  0  0  0  0  0  0  0  0  0  0
    1.3362   -0.4141    0.0677 O   0  0  0  0  0  0  0  0  0  0  0  0
    0.0310    3.1874   -0.4613 C   0  0  2  0  0  0  0  0  0  0  0  0
    0.8249    5.7899    0.7363 H   0  0  0  0  0  0  0  0  0  0  0  0
    0.6144    5.8121   -1.0302 H   0  0  0  0  0  0  0  0  0  0  0  0
   -0.5849    6.5960    0.0189 H   0  0  0  0  0  0  0  0  0  0  0  0
   -1.2132    4.3635    0.9751 H   0  0  0  0  0  0  0  0  0  0  0  0
   -0.8389    3.1184   -2.6842 H   0  0  0  0  0  0  0  0  0  0  0  0
   -1.8229    2.0103    0.0398 H   0  0  0  0  0  0  0  0  0  0  0  0
   -1.2443    0.1272   -1.5429 H   0  0  0  0  0  0  0  0  0  0  0  0
    0.3352    0.8631   -1.8939 H   0  0  0  0  0  0  0  0  0  0  0  0
   -0.5063   -0.2429    0.8734 H   0  0  0  0  0  0  0  0  0  0  0  0
    1.1008    3.0236   -0.4411 H   0  0  0  0  0  0  0  0  0  0  0  0
  1  2  1  0  0  0  0
  1 12  1  0  0  0  0
  1 10  1  0  0  0  0
  2 13  1  1  0  0  0
  3  2  1  0  0  0  0
  4 14  1  6  0  0  0
  4  3  1  0  0  0  0
  4  5  1  0  0  0  0
  4  9  1  0  0  0  0
  5  9  1  0  0  0  0
  5 15  1  1  0  0  0
  6  5  1  0  0  0  0
  6  7  1  0  0  0  0
  7  8  2  0  0  0  0
  7 18  1  0  0  0  0
  9 19  1  6  0  0  0
  9  2  1  0  0  0  0
 11  1  1  0  0  0  0
 16  6  1  0  0  0  0
 17  6  1  0  0  0  0
M TOR 0 0 1 2 3
M TOR 1 0 1 8 3
M TOR 2 0 1 8 4
M TOR 3 0 1 8 18
M TOR 4 1 2 3 4
M TOR 5 1 2 3 8
M TOR 6 1 2 3 13
M TOR 7 1 8 3 4
M TOR 8 1 8 3 13
M TOR 9 1 8 4 5
M TOR 10 1 8 4 14
M TOR 11 2 1 0 9
M TOR 12 2 1 0 10
M TOR 13 2 1 0 11
M TOR 14 2 1 8 4
M TOR 15 2 1 8 18
M TOR 16 2 3 4 5
M TOR 17 2 3 4 8
M TOR 18 2 3 4 14
M TOR 19 2 3 8 18
M TOR 20 3 2 1 12
M TOR 21 3 4 5 6
M TOR 22 3 4 5 15
M TOR 23 3 4 5 16
M TOR 24 3 4 8 18
M TOR 25 3 8 1 12
M TOR 26 3 8 4 5
M TOR 27 3 8 4 14
M TOR 28 4 5 6 7
M TOR 29 4 5 6 17
M TOR 30 4 8 1 12
M TOR 31 4 8 3 13
M TOR 32 5 4 3 13
M TOR 33 5 4 8 18
M TOR 34 6 5 4 8
M TOR 35 6 5 4 14
M TOR 36 7 6 5 15
M TOR 37 7 6 5 16
M TOR 38 8 1 0 9
M TOR 39 8 1 0 10
M TOR 40 8 1 0 11
M TOR 41 8 4 5 15
M TOR 42 8 4 5 16
M  END
$$$$
