
     RDKit          3D

 19 21  0  0  0  0  0  0  0  0999 V2000
    0.6484   -0.3506   -0.7067 C   0  0  0  0  0  0  0  0  0  0  0  0
    0.9019    0.2116    0.6871 C   0  0  0  0  0  0  0  0  0  0  0  0
    1.8068    1.4487    0.7072 C   0  0  0  0  0  0  0  0  0  0  0  0
    3.0680    0.6199    0.8814 C   0  0  0  0  0  0  0  0  0  0  0  0
    2.5817    1.4423    2.0362 C   0  0  0  0  0  0  0  0  0  0  0  0
    3.2080    2.5669    2.5339 O   0  0  0  0  0  0  0  0  0  0  0  0
    2.1098    0.2241    2.8303 C   0  0  0  0  0  0  0  0  0  0  0  0
    2.0572   -0.4885    1.4492 C   0  0  0  0  0  0  0  0  0  0  0  0
    2.1412   -1.8631    1.3296 O   0  0  0  0  0  0  0  0  0  0  0  0
    0.2131   -1.3522   -0.6476 H   0  0  0  0  0  0  0  0  0  0  0  0
   -0.0434    0.2895   -1.2645 H   0  0  0  0  0  0  0  0  0  0  0  0
    1.5798   -0.4207   -1.2779 H   0  0  0  0  0  0  0  0  0  0  0  0
   -0.0407    0.2776    1.2473 H   0  0  0  0  0  0  0  0  0  0  0  0
    1.7094    2.3608    0.1311 H   0  0  0  0  0  0  0  0  0  0  0  0
    4.0048    0.6015    0.3446 H   0  0  0  0  0  0  0  0  0  0  0  0
    2.5307    3.1782    2.8441 H   0  0  0  0  0  0  0  0  0  0  0  0
    2.9236   -0.1640    3.4535 H   0  0  0  0  0  0  0  0  0  0  0  0
    1.1804    0.2746    3.4106 H   0  0  0  0  0  0  0  0  0  0  0  0
    2.8589   -2.1789    1.8885 H   0  0  0  0  0  0  0  0  0  0  0  0
  1  2  1  0
  2  3  1  0
  3  4  1  0
  4  5  1  0
  5  6  1  0
  5  7  1  0
  7  8  1  0
  8  9  1  0
  8  2  1  0
  5  3  1  0
  8  4  1  0
  1 10  1  0
  1 11  1  0
  1 12  1  0
  2 13  1  0
  3 14  1  0
  4 15  1  0
  6 16  1  0
  7 17  1  0
  7 18  1  0
  9 19  1  0
M  END
$$$$
