
     RDKit          3D

 19 19  0  0  0  0  0  0  0  0999 V2000
    0.0756    0.7067   -0.0475 C   0  0  0  0  0  0  0  0  0  0  0  0
    1.1250   -0.3756    0.1357 C   0  0  0  0  0  0  0  0  0  0  0  0
    1.4913   -0.8472   -1.1583 O   0  0  0  0  0  0  0  0  0  0  0  0
    2.3687   -1.9588   -1.1506 C   0  0  0  0  0  0  0  0  0  0  0  0
    2.3450   -2.5716   -2.4793 C   0  0  0  0  0  0  0  0  0  0  0  0
    2.3686   -3.0824   -3.5658 C   0  0  0  0  0  0  0  0  0  0  0  0
    3.7941   -1.5598   -0.7888 C   0  0  0  0  0  0  0  0  0  0  0  0
    4.7109   -2.5079   -0.1507 C   0  0  0  0  0  0  0  0  0  0  0  0
    4.0895   -1.4652    0.6054 O   0  0  0  0  0  0  0  0  0  0  0  0
   -0.2405    1.0949    0.9255 H   0  0  0  0  0  0  0  0  0  0  0  0
    0.4774    1.5358   -0.6369 H   0  0  0  0  0  0  0  0  0  0  0  0
   -0.8006    0.3098   -0.5676 H   0  0  0  0  0  0  0  0  0  0  0  0
    2.0009    0.0138    0.6703 H   0  0  0  0  0  0  0  0  0  0  0  0
    0.7246   -1.2102    0.7337 H   0  0  0  0  0  0  0  0  0  0  0  0
    2.0346   -2.6974   -0.4011 H   0  0  0  0  0  0  0  0  0  0  0  0
    2.3724   -3.5346   -4.5269 H   0  0  0  0  0  0  0  0  0  0  0  0
    4.2001   -0.7547   -1.4006 H   0  0  0  0  0  0  0  0  0  0  0  0
    4.3689   -3.5168    0.0762 H   0  0  0  0  0  0  0  0  0  0  0  0
    5.7835   -2.4032   -0.3022 H   0  0  0  0  0  0  0  0  0  0  0  0
  1  2  1  0
  2  3  1  0
  3  4  1  0
  4  5  1  0
  5  6  3  0
  4  7  1  0
  7  8  1  0
  8  9  1  0
  9  7  1  0
  1 10  1  0
  1 11  1  0
  1 12  1  0
  2 13  1  0
  2 14  1  0
  4 15  1  0
  6 16  1  0
  7 17  1  0
  8 18  1  0
  8 19  1  0
M  END
$$$$
