
     RDKit          3D

 19 20  0  0  0  0  0  0  0  0999 V2000
   -0.4525    2.0814    1.2224 C   0  0  0  0  0  0  0  0  0  0  0  0
   -0.7862    1.3354   -0.0809 C   0  0  0  0  0  0  0  0  0  0  0  0
   -2.2062    0.8021   -0.1321 C   0  0  0  0  0  0  0  0  0  0  0  0
   -2.6276    0.0099   -1.3395 C   0  0  0  0  0  0  0  0  0  0  0  0
   -3.9578   -0.0225   -1.7656 O   0  0  0  0  0  0  0  0  0  0  0  0
   -2.1753   -0.7368   -0.1137 C   0  0  0  0  0  0  0  0  0  0  0  0
   -0.7323   -1.1912   -0.0594 C   0  0  0  0  0  0  0  0  0  0  0  0
    0.1128    0.0857   -0.2115 C   0  0  0  0  0  0  0  0  0  0  0  0
    1.3031    0.1147   -0.3839 O   0  0  0  0  0  0  0  0  0  0  0  0
   -0.6719    1.4633    2.0997 H   0  0  0  0  0  0  0  0  0  0  0  0
    0.6082    2.3442    1.2446 H   0  0  0  0  0  0  0  0  0  0  0  0
   -1.0413    3.0002    1.3025 H   0  0  0  0  0  0  0  0  0  0  0  0
   -0.5571    1.9944   -0.9272 H   0  0  0  0  0  0  0  0  0  0  0  0
   -2.9804    1.3361    0.4116 H   0  0  0  0  0  0  0  0  0  0  0  0
   -1.9761    0.0121   -2.2108 H   0  0  0  0  0  0  0  0  0  0  0  0
   -4.5322    0.0284   -0.9950 H   0  0  0  0  0  0  0  0  0  0  0  0
   -2.9257   -1.2905    0.4410 H   0  0  0  0  0  0  0  0  0  0  0  0
   -0.4858   -1.6436    0.9096 H   0  0  0  0  0  0  0  0  0  0  0  0
   -0.4475   -1.9169   -0.8282 H   0  0  0  0  0  0  0  0  0  0  0  0
  1  2  1  0
  2  3  1  0
  3  4  1  0
  4  5  1  0
  4  6  1  0
  6  7  1  0
  7  8  1  0
  8  9  2  0
  8  2  1  0
  6  3  1  0
  1 10  1  0
  1 11  1  0
  1 12  1  0
  2 13  1  0
  3 14  1  0
  4 15  1  0
  5 16  1  0
  6 17  1  0
  7 18  1  0
  7 19  1  0
M  END
$$$$
