
     RDKit          3D

 19 19  0  0  0  0  0  0  0  0999 V2000
   -3.0750   -2.7661    2.3274 C   0  0  0  0  0  0  0  0  0  0  0  0
   -2.1919   -2.6247    1.0878 C   0  0  0  0  0  0  0  0  0  0  0  0
   -1.7146   -1.2722    0.9728 O   0  0  0  0  0  0  0  0  0  0  0  0
   -0.2942   -1.2329    0.9461 C   0  0  0  0  0  0  0  0  0  0  0  0
    0.1364   -2.6746    1.0565 C   0  0  0  0  0  0  0  0  0  0  0  0
   -0.9358   -3.4550    1.1143 C   0  0  0  0  0  0  0  0  0  0  0  0
    0.2638   -0.5956   -0.3434 C   0  0  0  0  0  0  0  0  0  0  0  0
   -0.6771   -0.4873   -1.5211 C   0  0  0  0  0  0  0  0  0  0  0  0
    1.4172   -0.2367   -0.3714 O   0  0  0  0  0  0  0  0  0  0  0  0
   -3.4906   -3.7774    2.3896 H   0  0  0  0  0  0  0  0  0  0  0  0
   -2.4976   -2.5683    3.2351 H   0  0  0  0  0  0  0  0  0  0  0  0
   -3.9053   -2.0561    2.2792 H   0  0  0  0  0  0  0  0  0  0  0  0
   -2.7988   -2.8526    0.1962 H   0  0  0  0  0  0  0  0  0  0  0  0
    0.0880   -0.6250    1.7797 H   0  0  0  0  0  0  0  0  0  0  0  0
    1.1776   -2.9669    1.0653 H   0  0  0  0  0  0  0  0  0  0  0  0
   -0.9487   -4.5350    1.1900 H   0  0  0  0  0  0  0  0  0  0  0  0
   -1.0753   -1.4756   -1.7756 H   0  0  0  0  0  0  0  0  0  0  0  0
   -1.5381    0.1330   -1.2548 H   0  0  0  0  0  0  0  0  0  0  0  0
   -0.1483   -0.0641   -2.3757 H   0  0  0  0  0  0  0  0  0  0  0  0
  1  2  1  0
  2  3  1  0
  3  4  1  0
  4  5  1  0
  5  6  2  0
  4  7  1  0
  7  8  1  0
  7  9  2  0
  6  2  1  0
  1 10  1  0
  1 11  1  0
  1 12  1  0
  2 13  1  0
  4 14  1  0
  5 15  1  0
  6 16  1  0
  8 17  1  0
  8 18  1  0
  8 19  1  0
M  END
$$$$
