
     RDKit          3D

 19 19  0  0  0  0  0  0  0  0999 V2000
    1.4373   -0.1729   -0.0576 C   0  0  0  0  0  0  0  0  0  0  0  0
    0.0485    0.0435    0.0682 O   0  0  0  0  0  0  0  0  0  0  0  0
   -0.3862    0.7413    1.2269 C   0  0  0  0  0  0  0  0  0  0  0  0
    0.0490    0.0706    2.5330 C   0  0  0  0  0  0  0  0  0  0  0  0
   -0.0526    2.2573    1.1711 C   0  0  0  0  0  0  0  0  0  0  0  0
   -1.3952    2.9419    1.1462 C   0  0  0  0  0  0  0  0  0  0  0  0
   -2.4293    2.0932    1.1250 C   0  0  0  0  0  0  0  0  0  0  0  0
   -1.9454    0.6998    1.1497 C   0  0  0  0  0  0  0  0  0  0  0  0
   -2.5984   -0.3147    1.1417 O   0  0  0  0  0  0  0  0  0  0  0  0
    1.8229   -0.8816    0.6874 H   0  0  0  0  0  0  0  0  0  0  0  0
    1.5940   -0.5981   -1.0519 H   0  0  0  0  0  0  0  0  0  0  0  0
    2.0181    0.7590    0.0168 H   0  0  0  0  0  0  0  0  0  0  0  0
   -0.2954   -0.9668    2.5389 H   0  0  0  0  0  0  0  0  0  0  0  0
    1.1345    0.0953    2.6632 H   0  0  0  0  0  0  0  0  0  0  0  0
   -0.3995    0.5868    3.3879 H   0  0  0  0  0  0  0  0  0  0  0  0
    0.5509    2.5992    2.0206 H   0  0  0  0  0  0  0  0  0  0  0  0
    0.5166    2.4959    0.2652 H   0  0  0  0  0  0  0  0  0  0  0  0
   -1.4798    4.0240    1.1453 H   0  0  0  0  0  0  0  0  0  0  0  0
   -3.4818    2.3442    1.0970 H   0  0  0  0  0  0  0  0  0  0  0  0
  1  2  1  0
  2  3  1  0
  3  4  1  0
  3  5  1  0
  5  6  1  0
  6  7  2  0
  7  8  1  0
  8  9  2  0
  8  3  1  0
  1 10  1  0
  1 11  1  0
  1 12  1  0
  4 13  1  0
  4 14  1  0
  4 15  1  0
  5 16  1  0
  5 17  1  0
  6 18  1  0
  7 19  1  0
M  END
$$$$
