
     RDKit          3D

 19 19  0  0  0  0  0  0  0  0999 V2000
    1.6416    0.4176   -0.2836 C   0  0  0  0  0  0  0  0  0  0  0  0
    0.2657    0.1034   -0.1593 O   0  0  0  0  0  0  0  0  0  0  0  0
   -0.2854    0.5419    1.0341 C   0  0  0  0  0  0  0  0  0  0  0  0
   -1.7551    0.7794    1.0676 C   0  0  0  0  0  0  0  0  0  0  0  0
   -2.6183    0.5901   -0.1592 C   0  0  0  0  0  0  0  0  0  0  0  0
   -3.8115    1.3556   -0.0966 O   0  0  0  0  0  0  0  0  0  0  0  0
   -0.7964    1.9824    1.1211 C   0  0  0  0  0  0  0  0  0  0  0  0
   -0.6399    2.7516    2.3163 C   0  0  0  0  0  0  0  0  0  0  0  0
   -0.5063    3.3867    3.3300 C   0  0  0  0  0  0  0  0  0  0  0  0
    2.2308   -0.0389    0.5249 H   0  0  0  0  0  0  0  0  0  0  0  0
    1.9763    0.0136   -1.2412 H   0  0  0  0  0  0  0  0  0  0  0  0
    1.8103    1.5031   -0.2668 H   0  0  0  0  0  0  0  0  0  0  0  0
    0.1910    0.1465    1.9321 H   0  0  0  0  0  0  0  0  0  0  0  0
   -2.2499    0.5467    2.0056 H   0  0  0  0  0  0  0  0  0  0  0  0
   -2.0351    0.8098   -1.0638 H   0  0  0  0  0  0  0  0  0  0  0  0
   -2.9408   -0.4541   -0.2289 H   0  0  0  0  0  0  0  0  0  0  0  0
   -3.5581    2.2772    0.0226 H   0  0  0  0  0  0  0  0  0  0  0  0
   -0.7095    2.5293    0.1847 H   0  0  0  0  0  0  0  0  0  0  0  0
   -0.3903    3.9510    4.2216 H   0  0  0  0  0  0  0  0  0  0  0  0
  1  2  1  0
  2  3  1  0
  3  4  1  0
  4  5  1  0
  5  6  1  0
  4  7  1  0
  7  8  1  0
  8  9  3  0
  7  3  1  0
  1 10  1  0
  1 11  1  0
  1 12  1  0
  3 13  1  0
  4 14  1  0
  5 15  1  0
  5 16  1  0
  6 17  1  0
  7 18  1  0
  9 19  1  0
M  END
$$$$
