gdb 5480	2.7149227	1.3042662	1.0152633	2.8604	75.22	-0.22509	0.06117	0.28626	1207.431	0.15504	-422.473184	-422.464325	-422.463381	-422.506585	33.334
 OpenBabel02181911423D

 19 21  0  0  1  0  0  0  0  0999 V2000
    3.9748   -1.6601    0.5306 C   0  0  0  0  0  0  0  0  0  0  0  0
    3.1596   -2.4381   -0.4620 C   0  0  1  0  0  0  0  0  0  0  0  0
    1.6607   -2.4193   -0.6409 C   0  0  1  0  0  0  0  0  0  0  0  0
    0.8573   -1.3175    0.0023 C   0  0  0  0  0  0  0  0  0  0  0  0
   -0.3431   -1.1676   -0.7449 O   0  0  0  0  0  0  0  0  0  0  0  0
    2.5510   -2.0367   -1.8030 C   0  0  2  0  0  0  0  0  0  0  0  0
    3.2049   -3.2916   -2.4547 C   0  0  2  0  0  0  0  0  0  0  0  0
    2.7344   -4.4792   -1.7968 O   0  0  0  0  0  0  0  0  0  0  0  0
    3.7664   -3.7044   -1.1748 C   0  0  2  0  0  0  0  0  0  0  0  0
    4.0653   -2.2024    1.4803 H   0  0  0  0  0  0  0  0  0  0  0  0
    4.9901   -1.4861    0.1543 H   0  0  0  0  0  0  0  0  0  0  0  0
    3.5359   -0.6825    0.7475 H   0  0  0  0  0  0  0  0  0  0  0  0
    1.1352   -3.3660   -0.6940 H   0  0  0  0  0  0  0  0  0  0  0  0
    0.6411   -1.5849    1.0492 H   0  0  0  0  0  0  0  0  0  0  0  0
    1.4281   -0.3756    0.0180 H   0  0  0  0  0  0  0  0  0  0  0  0
   -0.9008   -0.5322   -0.2862 H   0  0  0  0  0  0  0  0  0  0  0  0
    2.5107   -1.0597   -2.2667 H   0  0  0  0  0  0  0  0  0  0  0  0
    3.5674   -3.3941   -3.4702 H   0  0  0  0  0  0  0  0  0  0  0  0
    4.6884   -4.2102   -0.9110 H   0  0  0  0  0  0  0  0  0  0  0  0
  1 12  1  0  0  0  0
  1 10  1  0  0  0  0
  2  1  1  1  0  0  0
  3 13  1  6  0  0  0
  3  2  1  0  0  0  0
  3  4  1  0  0  0  0
  4 15  1  0  0  0  0
  4 14  1  0  0  0  0
  5 16  1  0  0  0  0
  5  4  1  0  0  0  0
  6 17  1  6  0  0  0
  6  3  1  0  0  0  0
  6  2  1  0  0  0  0
  7 18  1  6  0  0  0
  7  6  1  0  0  0  0
  7  8  1  0  0  0  0
  7  9  1  0  0  0  0
  8  9  1  0  0  0  0
  9 19  1  1  0  0  0
  9  2  1  0  0  0  0
 11  1  1  0  0  0  0
M TOR 0 0 1 2 3
M TOR 1 0 1 2 5
M TOR 2 0 1 2 12
M TOR 3 0 1 5 6
M TOR 4 0 1 5 16
M TOR 5 0 1 8 6
M TOR 6 0 1 8 7
M TOR 7 0 1 8 18
M TOR 8 1 2 3 4
M TOR 9 1 2 3 13
M TOR 10 1 2 3 14
M TOR 11 1 2 5 6
M TOR 12 1 2 5 16
M TOR 13 1 5 2 3
M TOR 14 1 5 2 12
M TOR 15 1 5 6 7
M TOR 16 1 5 6 8
M TOR 17 1 5 6 17
M TOR 18 1 8 6 7
M TOR 19 1 8 6 17
M TOR 20 2 1 0 9
M TOR 21 2 1 0 10
M TOR 22 2 1 0 11
M TOR 23 2 1 8 6
M TOR 24 2 1 8 7
M TOR 25 2 1 8 18
M TOR 26 2 3 4 15
M TOR 27 2 5 1 8
M TOR 28 2 5 6 7
M TOR 29 2 5 6 8
M TOR 30 2 5 6 17
M TOR 31 3 2 1 8
M TOR 32 3 2 5 6
M TOR 33 3 2 5 16
M TOR 34 4 3 2 5
M TOR 35 4 3 2 12
M TOR 36 5 1 0 9
M TOR 37 5 1 0 10
M TOR 38 5 1 0 11
M TOR 39 5 1 8 7
M TOR 40 5 1 8 18
M TOR 41 5 2 3 13
M TOR 42 5 2 3 14
M TOR 43 5 6 7 8
M TOR 44 5 6 8 18
M TOR 45 6 5 2 12
M TOR 46 6 7 8 18
M TOR 47 7 6 5 16
M TOR 48 7 8 6 17
M TOR 49 8 1 0 9
M TOR 50 8 1 0 10
M TOR 51 8 1 0 11
M TOR 52 8 1 2 12
M TOR 53 8 1 5 16
M TOR 54 8 6 5 16
M  END
$$$$
