gdb 4027	3.6889753	1.35201	1.2521973	1.1419	73.24	-0.24078	0.06908	0.30986	1045.7767	0.159154	-422.521716	-422.51462	-422.513676	-422.552924	29.185
 OpenBabel02181911413D

 19 21  0  0  1  0  0  0  0  0999 V2000
    0.2575    0.3944    0.2867 O   0  0  0  0  0  0  0  0  0  0  0  0
   -0.6098    0.9922    1.2220 C   0  0  1  0  0  0  0  0  0  0  0  0
   -1.5968    0.0419    1.9761 C   0  0  0  0  0  0  0  0  0  0  0  0
   -0.9942    0.4833    3.3407 C   0  0  2  0  0  0  0  0  0  0  0  0
   -1.6837    1.5848    4.1774 C   0  0  2  0  0  0  0  0  0  0  0  0
   -1.9549    2.7471    3.1993 C   0  0  0  0  0  0  0  0  0  0  0  0
   -0.4104    2.7444    3.2476 C   0  0  1  0  0  0  0  0  0  0  0  0
   -0.5140    2.3344    4.6546 O   0  0  0  0  0  0  0  0  0  0  0  0
    0.0163    1.4134    2.5892 C   0  0  2  0  0  0  0  0  0  0  0  0
    0.7216   -0.3276    0.7240 H   0  0  0  0  0  0  0  0  0  0  0  0
   -1.0904    1.8094    0.6774 H   0  0  0  0  0  0  0  0  0  0  0  0
   -2.6642    0.2300    1.8283 H   0  0  0  0  0  0  0  0  0  0  0  0
   -1.4033   -1.0072    1.7335 H   0  0  0  0  0  0  0  0  0  0  0  0
   -0.5984   -0.3092    3.9764 H   0  0  0  0  0  0  0  0  0  0  0  0
   -2.3770    1.2954    4.9670 H   0  0  0  0  0  0  0  0  0  0  0  0
   -2.4869    2.5738    2.2621 H   0  0  0  0  0  0  0  0  0  0  0  0
   -2.3596    3.6128    3.7232 H   0  0  0  0  0  0  0  0  0  0  0  0
    0.1934    3.6371    3.0866 H   0  0  0  0  0  0  0  0  0  0  0  0
    1.0866    1.2196    2.6832 H   0  0  0  0  0  0  0  0  0  0  0  0
  1 10  1  0  0  0  0
  1  2  1  0  0  0  0
  2 11  1  6  0  0  0
  2  3  1  0  0  0  0
  2  9  1  0  0  0  0
  3  4  1  0  0  0  0
  4 14  1  1  0  0  0
  4  5  1  0  0  0  0
  5  8  1  0  0  0  0
  5 15  1  1  0  0  0
  6  7  1  0  0  0  0
  6 17  1  0  0  0  0
  6  5  1  0  0  0  0
  7 18  1  6  0  0  0
  7  8  1  0  0  0  0
  9 19  1  1  0  0  0
  9  7  1  0  0  0  0
  9  4  1  0  0  0  0
 12  3  1  0  0  0  0
 13  3  1  0  0  0  0
 16  6  1  0  0  0  0
M TOR 0 0 1 2 3
M TOR 1 0 1 2 11
M TOR 2 0 1 2 12
M TOR 3 0 1 8 3
M TOR 4 0 1 8 6
M TOR 5 0 1 8 18
M TOR 6 1 2 3 4
M TOR 7 1 2 3 8
M TOR 8 1 2 3 13
M TOR 9 1 8 3 4
M TOR 10 1 8 3 13
M TOR 11 1 8 6 5
M TOR 12 1 8 6 7
M TOR 13 1 8 6 17
M TOR 14 2 1 0 9
M TOR 15 2 1 8 6
M TOR 16 2 1 8 18
M TOR 17 2 3 4 5
M TOR 18 2 3 4 7
M TOR 19 2 3 4 14
M TOR 20 2 3 8 6
M TOR 21 2 3 8 18
M TOR 22 3 2 1 10
M TOR 23 3 4 5 6
M TOR 24 3 4 5 15
M TOR 25 3 4 5 16
M TOR 26 3 4 7 6
M TOR 27 3 8 1 10
M TOR 28 3 8 6 5
M TOR 29 3 8 6 7
M TOR 30 3 8 6 17
M TOR 31 4 3 2 11
M TOR 32 4 3 2 12
M TOR 33 4 3 8 6
M TOR 34 4 3 8 18
M TOR 35 4 5 6 7
M TOR 36 4 5 6 8
M TOR 37 4 5 6 17
M TOR 38 4 7 6 8
M TOR 39 4 7 6 17
M TOR 40 5 4 3 8
M TOR 41 5 4 3 13
M TOR 42 5 6 8 18
M TOR 43 6 5 4 14
M TOR 44 6 7 4 14
M TOR 45 6 8 1 10
M TOR 46 6 8 3 13
M TOR 47 7 4 3 8
M TOR 48 7 4 3 13
M TOR 49 7 4 5 15
M TOR 50 7 4 5 16
M TOR 51 7 6 5 15
M TOR 52 7 6 5 16
M TOR 53 7 6 8 18
M TOR 54 8 1 0 9
M TOR 55 8 1 2 11
M TOR 56 8 1 2 12
M TOR 57 8 3 2 11
M TOR 58 8 3 2 12
M TOR 59 8 3 4 14
M TOR 60 8 6 5 15
M TOR 61 8 6 5 16
M  END
$$$$
