
     RDKit          3D

 19 19  0  0  0  0  0  0  0  0999 V2000
    2.7158   -2.9430    0.3021 C   0  0  0  0  0  0  0  0  0  0  0  0
    2.5218   -1.4443    0.2206 C   0  0  0  0  0  0  0  0  0  0  0  0
    1.0754   -0.9928    0.3811 C   0  0  0  0  0  0  0  0  0  0  0  0
    0.2488   -1.4066   -0.6957 O   0  0  0  0  0  0  0  0  0  0  0  0
    3.4721   -0.6571    0.9490 O   0  0  0  0  0  0  0  0  0  0  0  0
    3.5122   -0.5905   -0.4958 C   0  0  0  0  0  0  0  0  0  0  0  0
    3.1726    0.7493   -1.1218 C   0  0  0  0  0  0  0  0  0  0  0  0
    4.6659   -1.2197   -1.1061 C   0  0  0  0  0  0  0  0  0  0  0  0
    5.6262   -1.6908   -1.6553 C   0  0  0  0  0  0  0  0  0  0  0  0
    2.3600   -3.3133    1.2702 H   0  0  0  0  0  0  0  0  0  0  0  0
    2.1496   -3.4474   -0.4885 H   0  0  0  0  0  0  0  0  0  0  0  0
    3.7659   -3.2124    0.1901 H   0  0  0  0  0  0  0  0  0  0  0  0
    0.7026   -1.3686    1.3467 H   0  0  0  0  0  0  0  0  0  0  0  0
    1.0177    0.0953    0.4212 H   0  0  0  0  0  0  0  0  0  0  0  0
    0.0690   -2.3459   -0.5960 H   0  0  0  0  0  0  0  0  0  0  0  0
    2.3507    1.2419   -0.6032 H   0  0  0  0  0  0  0  0  0  0  0  0
    4.0472    1.4047   -1.0790 H   0  0  0  0  0  0  0  0  0  0  0  0
    2.8993    0.6143   -2.1722 H   0  0  0  0  0  0  0  0  0  0  0  0
    6.4751   -2.1179   -2.1297 H   0  0  0  0  0  0  0  0  0  0  0  0
  1  2  1  0
  2  3  1  0
  3  4  1  0
  2  5  1  0
  5  6  1  0
  6  7  1  0
  6  8  1  0
  8  9  3  0
  6  2  1  0
  1 10  1  0
  1 11  1  0
  1 12  1  0
  3 13  1  0
  3 14  1  0
  4 15  1  0
  7 16  1  0
  7 17  1  0
  7 18  1  0
  9 19  1  0
M  END
$$$$
