gdb 1225	2.6504245	0.8680501	0.7646558	3.6438	78.68	-0.24587	-0.01614	0.22973	1535.1416	0.15182	-422.539667	-422.52882	-422.527875	-422.576207	38.227
 OpenBabel02181911403D

 19 18  0  0  1  0  0  0  0  0999 V2000
   -3.0658    0.0669   -1.9604 C   0  0  0  0  0  0  0  0  0  0  0  0
   -1.9106   -0.8366   -1.4917 C   0  0  1  0  0  0  0  0  0  0  0  0
   -1.3843   -1.5737   -2.6018 O   0  0  0  0  0  0  0  0  0  0  0  0
   -0.7361    0.0203   -0.9747 C   0  0  0  0  0  0  0  0  0  0  0  0
    0.4687   -0.8083   -0.5057 C   0  0  0  0  0  0  0  0  0  0  0  0
    1.6831    0.0550   -0.2646 C   0  0  0  0  0  0  0  0  0  0  0  0
    2.3243    0.0847    0.7541 O   0  0  0  0  0  0  0  0  0  0  0  0
   -2.3931   -1.7605   -0.4527 C   0  0  0  0  0  0  0  0  0  0  0  0
   -2.8181   -2.5303    0.3673 C   0  0  0  0  0  0  0  0  0  0  0  0
   -3.4527    0.6717   -1.1355 H   0  0  0  0  0  0  0  0  0  0  0  0
   -2.7096    0.7277   -2.7554 H   0  0  0  0  0  0  0  0  0  0  0  0
   -3.8880   -0.5397   -2.3510 H   0  0  0  0  0  0  0  0  0  0  0  0
   -2.0134   -2.2692   -2.8204 H   0  0  0  0  0  0  0  0  0  0  0  0
   -0.4372    0.6757   -1.8019 H   0  0  0  0  0  0  0  0  0  0  0  0
   -1.0981    0.6603   -0.1639 H   0  0  0  0  0  0  0  0  0  0  0  0
    0.2445   -1.3713    0.4032 H   0  0  0  0  0  0  0  0  0  0  0  0
    0.7189   -1.5205   -1.3031 H   0  0  0  0  0  0  0  0  0  0  0  0
    1.9670    0.6947   -1.1351 H   0  0  0  0  0  0  0  0  0  0  0  0
   -3.1807   -3.2093    1.0997 H   0  0  0  0  0  0  0  0  0  0  0  0
  1  2  1  0  0  0  0
  1 10  1  0  0  0  0
  2  4  1  0  0  0  0
  2  8  1  1  0  0  0
  3  2  1  0  0  0  0
  4  5  1  0  0  0  0
  4 15  1  0  0  0  0
  5  6  1  0  0  0  0
  5 16  1  0  0  0  0
  6  7  2  0  0  0  0
  8  9  3  0  0  0  0
  9 19  1  0  0  0  0
 11  1  1  0  0  0  0
 12  1  1  0  0  0  0
 13  3  1  0  0  0  0
 14  4  1  0  0  0  0
 17  5  1  0  0  0  0
 18  6  1  0  0  0  0
M TOR 0 0 1 2 12
M TOR 1 0 1 3 4
M TOR 2 0 1 3 13
M TOR 3 0 1 3 14
M TOR 4 0 1 7 8
M TOR 5 1 3 4 5
M TOR 6 1 3 4 15
M TOR 7 1 3 4 16
M TOR 8 1 7 8 18
M TOR 9 2 1 0 9
M TOR 10 2 1 0 10
M TOR 11 2 1 0 11
M TOR 12 2 1 3 4
M TOR 13 2 1 3 13
M TOR 14 2 1 3 14
M TOR 15 2 1 7 8
M TOR 16 3 1 0 9
M TOR 17 3 1 0 10
M TOR 18 3 1 0 11
M TOR 19 3 1 2 12
M TOR 20 3 1 7 8
M TOR 21 3 4 5 6
M TOR 22 3 4 5 17
M TOR 23 4 3 1 7
M TOR 24 5 4 3 13
M TOR 25 5 4 3 14
M TOR 26 6 5 4 15
M TOR 27 6 5 4 16
M TOR 28 7 1 0 9
M TOR 29 7 1 0 10
M TOR 30 7 1 0 11
M TOR 31 7 1 2 12
M TOR 32 7 1 3 13
M TOR 33 7 1 3 14
M  END
$$$$
