
     RDKit          3D

 19 21  0  0  0  0  0  0  0  0999 V2000
    5.6648   -2.7205    2.4390 C   0  0  0  0  0  0  0  0  0  0  0  0
    4.5087   -2.8019    1.5003 C   0  0  0  0  0  0  0  0  0  0  0  0
    4.7530   -3.0980    0.1141 O   0  0  0  0  0  0  0  0  0  0  0  0
    3.8071   -3.9012    0.8409 C   0  0  0  0  0  0  0  0  0  0  0  0
    2.4459   -3.1434    0.9301 C   0  0  0  0  0  0  0  0  0  0  0  0
    2.5136   -1.7833    0.2700 C   0  0  0  0  0  0  0  0  0  0  0  0
    1.2346   -0.9768    0.2377 C   0  0  0  0  0  0  0  0  0  0  0  0
    0.4313   -1.2794   -0.8923 O   0  0  0  0  0  0  0  0  0  0  0  0
    3.1692   -1.9883    1.6095 C   0  0  0  0  0  0  0  0  0  0  0  0
    6.3758   -3.5261    2.2384 H   0  0  0  0  0  0  0  0  0  0  0  0
    6.1876   -1.7635    2.3287 H   0  0  0  0  0  0  0  0  0  0  0  0
    5.3253   -2.7994    3.4770 H   0  0  0  0  0  0  0  0  0  0  0  0
    3.9641   -4.9737    0.8479 H   0  0  0  0  0  0  0  0  0  0  0  0
    1.5183   -3.6123    1.2343 H   0  0  0  0  0  0  0  0  0  0  0  0
    3.1443   -1.6701   -0.6041 H   0  0  0  0  0  0  0  0  0  0  0  0
    0.6748   -1.1177    1.1777 H   0  0  0  0  0  0  0  0  0  0  0  0
    1.4670    0.0905    0.1568 H   0  0  0  0  0  0  0  0  0  0  0  0
    0.3079   -2.2343   -0.9076 H   0  0  0  0  0  0  0  0  0  0  0  0
    2.8712   -1.4523    2.5020 H   0  0  0  0  0  0  0  0  0  0  0  0
  1  2  1  0
  2  3  1  0
  3  4  1  0
  4  5  1  0
  5  6  1  0
  6  7  1  0
  7  8  1  0
  6  9  1  0
  4  2  1  0
  9  5  1  0
  9  2  1  0
  1 10  1  0
  1 11  1  0
  1 12  1  0
  4 13  1  0
  5 14  1  0
  6 15  1  0
  7 16  1  0
  7 17  1  0
  8 18  1  0
  9 19  1  0
M  END
$$$$
