
     RDKit          3D

 19 18  0  0  0  0  0  0  0  0999 V2000
   -0.1575    2.2454    3.5790 C   0  0  0  0  0  0  0  0  0  0  0  0
    0.1565    1.4325    2.3351 C   0  0  0  0  0  0  0  0  0  0  0  0
   -0.4511    2.0613    1.2209 O   0  0  0  0  0  0  0  0  0  0  0  0
   -0.2233    1.3888    0.0077 C   0  0  0  0  0  0  0  0  0  0  0  0
   -0.9365    2.1870   -1.0910 C   0  0  0  0  0  0  0  0  0  0  0  0
   -0.7814    1.5976   -2.4097 C   0  0  0  0  0  0  0  0  0  0  0  0
   -0.6313    1.0783   -3.4903 C   0  0  0  0  0  0  0  0  0  0  0  0
   -0.4810    0.4984   -4.7988 C   0  0  0  0  0  0  0  0  0  0  0  0
    0.1402   -0.5127   -5.0357 O   0  0  0  0  0  0  0  0  0  0  0  0
    0.2997    1.7842    4.4593 H   0  0  0  0  0  0  0  0  0  0  0  0
    0.2290    3.2637    3.4800 H   0  0  0  0  0  0  0  0  0  0  0  0
   -1.2380    2.3023    3.7380 H   0  0  0  0  0  0  0  0  0  0  0  0
    1.2462    1.3627    2.1806 H   0  0  0  0  0  0  0  0  0  0  0  0
   -0.2210    0.4016    2.4384 H   0  0  0  0  0  0  0  0  0  0  0  0
    0.8534    1.3207   -0.2156 H   0  0  0  0  0  0  0  0  0  0  0  0
   -0.6165    0.3601    0.0408 H   0  0  0  0  0  0  0  0  0  0  0  0
   -2.0015    2.2634   -0.8399 H   0  0  0  0  0  0  0  0  0  0  0  0
   -0.5478    3.2128   -1.0936 H   0  0  0  0  0  0  0  0  0  0  0  0
   -0.9926    1.0629   -5.6051 H   0  0  0  0  0  0  0  0  0  0  0  0
  1  2  1  0
  2  3  1  0
  3  4  1  0
  4  5  1  0
  5  6  1  0
  6  7  3  0
  7  8  1  0
  8  9  2  0
  1 10  1  0
  1 11  1  0
  1 12  1  0
  2 13  1  0
  2 14  1  0
  4 15  1  0
  4 16  1  0
  5 17  1  0
  5 18  1  0
  8 19  1  0
M  END
$$$$
