gdb 1649	2.8893277	1.2781114	1.1022831	2.3054	76.14	-0.24161	-0.02372	0.21789	1173.0522	0.155556	-422.550151	-422.541336	-422.540392	-422.583946	33.298
 OpenBabel02181911403D

 19 20  0  0  1  0  0  0  0  0999 V2000
   -0.8973   -1.4553   -2.5157 O   0  0  0  0  0  0  0  0  0  0  0  0
   -0.9922   -2.0519   -1.2476 C   0  0  0  0  0  0  0  0  0  0  0  0
   -1.8378   -3.2894   -1.2038 C   0  0  0  0  0  0  0  0  0  0  0  0
   -0.3325   -3.3963   -1.0590 C   0  0  0  0  0  0  0  0  0  0  0  0
   -1.0293   -1.0558   -0.1171 C   0  0  2  0  0  0  0  0  0  0  0  0
   -2.1464    0.0420   -0.0651 C   0  0  0  0  0  0  0  0  0  0  0  0
   -1.0751    1.1325    0.2446 C   0  0  0  0  0  0  0  0  0  0  0  0
   -0.0285    0.1139   -0.2197 C   0  0  0  0  0  0  0  0  0  0  0  0
    1.0598    0.2038   -0.7171 O   0  0  0  0  0  0  0  0  0  0  0  0
   -0.0137   -1.0698   -2.5779 H   0  0  0  0  0  0  0  0  0  0  0  0
   -2.4590   -3.4631   -0.3320 H   0  0  0  0  0  0  0  0  0  0  0  0
   -2.2711   -3.6054   -2.1454 H   0  0  0  0  0  0  0  0  0  0  0  0
    0.0827   -3.6473   -0.0889 H   0  0  0  0  0  0  0  0  0  0  0  0
    0.2195   -3.7850   -1.9069 H   0  0  0  0  0  0  0  0  0  0  0  0
   -0.9310   -1.5565    0.8525 H   0  0  0  0  0  0  0  0  0  0  0  0
   -2.5952    0.1827   -1.0498 H   0  0  0  0  0  0  0  0  0  0  0  0
   -2.9284   -0.1001    0.6808 H   0  0  0  0  0  0  0  0  0  0  0  0
   -1.1070    2.0780   -0.3009 H   0  0  0  0  0  0  0  0  0  0  0  0
   -0.9837    1.3431    1.3154 H   0  0  0  0  0  0  0  0  0  0  0  0
  1  2  1  0  0  0  0
  2  3  1  0  0  0  0
  2  4  1  0  0  0  0
  2  5  1  0  0  0  0
  3  4  1  0  0  0  0
  3 11  1  0  0  0  0
  4 13  1  0  0  0  0
  5  6  1  0  0  0  0
  5 15  1  1  0  0  0
  6  7  1  0  0  0  0
  6 17  1  0  0  0  0
  7 19  1  0  0  0  0
  8  5  1  0  0  0  0
  8  7  1  0  0  0  0
  9  8  2  0  0  0  0
 10  1  1  0  0  0  0
 12  3  1  0  0  0  0
 14  4  1  0  0  0  0
 16  6  1  0  0  0  0
 18  7  1  0  0  0  0
M TOR 0 0 1 2 3
M TOR 1 0 1 2 10
M TOR 2 0 1 2 11
M TOR 3 0 1 3 12
M TOR 4 0 1 3 13
M TOR 5 0 1 4 5
M TOR 6 0 1 4 7
M TOR 7 0 1 4 14
M TOR 8 1 2 3 12
M TOR 9 1 2 3 13
M TOR 10 1 3 2 10
M TOR 11 1 3 2 11
M TOR 12 1 4 5 6
M TOR 13 1 4 5 15
M TOR 14 1 4 5 16
M TOR 15 1 4 7 6
M TOR 16 1 4 7 8
M TOR 17 2 1 0 9
M TOR 18 2 1 4 5
M TOR 19 2 1 4 7
M TOR 20 2 1 4 14
M TOR 21 2 3 1 4
M TOR 22 3 1 0 9
M TOR 23 3 1 4 5
M TOR 24 3 1 4 7
M TOR 25 3 1 4 14
M TOR 26 4 1 0 9
M TOR 27 4 1 2 10
M TOR 28 4 1 2 11
M TOR 29 4 1 3 12
M TOR 30 4 1 3 13
M TOR 31 4 5 6 7
M TOR 32 4 5 6 17
M TOR 33 4 5 6 18
M TOR 34 4 7 6 17
M TOR 35 4 7 6 18
M TOR 36 5 4 7 8
M TOR 37 5 6 7 8
M TOR 38 6 5 4 14
M TOR 39 6 7 4 14
M TOR 40 7 4 5 15
M TOR 41 7 4 5 16
M TOR 42 7 6 5 15
M TOR 43 7 6 5 16
M TOR 44 8 7 4 14
M TOR 45 8 7 6 17
M TOR 46 8 7 6 18
M  END
$$$$
