
     RDKit          3D

 19 20  0  0  0  0  0  0  0  0999 V2000
   -0.9407   -2.0568    1.2640 C   0  0  0  0  0  0  0  0  0  0  0  0
   -0.9586   -1.1094    0.0714 C   0  0  0  0  0  0  0  0  0  0  0  0
    0.0486    0.0418    0.1050 C   0  0  0  0  0  0  0  0  0  0  0  0
    1.2267    0.1794    0.1946 O   0  0  0  0  0  0  0  0  0  0  0  0
   -0.9074    1.0198    0.0108 O   0  0  0  0  0  0  0  0  0  0  0  0
   -1.9967    0.0392   -0.0100 C   0  0  0  0  0  0  0  0  0  0  0  0
   -3.0178    0.1227   -1.1582 C   0  0  0  0  0  0  0  0  0  0  0  0
   -4.1346   -0.1851   -0.1204 C   0  0  0  0  0  0  0  0  0  0  0  0
   -3.1391    0.2041    1.0096 C   0  0  0  0  0  0  0  0  0  0  0  0
   -1.7798   -2.7582    1.2242 H   0  0  0  0  0  0  0  0  0  0  0  0
   -0.0135   -2.6367    1.2633 H   0  0  0  0  0  0  0  0  0  0  0  0
   -0.9923   -1.5127    2.2113 H   0  0  0  0  0  0  0  0  0  0  0  0
   -0.8877   -1.6681   -0.8673 H   0  0  0  0  0  0  0  0  0  0  0  0
   -3.0824    1.1470   -1.5349 H   0  0  0  0  0  0  0  0  0  0  0  0
   -2.8859   -0.5589   -2.0022 H   0  0  0  0  0  0  0  0  0  0  0  0
   -5.0543    0.3967   -0.1936 H   0  0  0  0  0  0  0  0  0  0  0  0
   -4.3933   -1.2465   -0.0943 H   0  0  0  0  0  0  0  0  0  0  0  0
   -3.2361    1.2546    1.2961 H   0  0  0  0  0  0  0  0  0  0  0  0
   -3.1135   -0.4080    1.9134 H   0  0  0  0  0  0  0  0  0  0  0  0
  1  2  1  0
  2  3  1  0
  3  4  2  0
  3  5  1  0
  5  6  1  0
  6  7  1  0
  7  8  1  0
  8  9  1  0
  6  2  1  0
  9  6  1  0
  1 10  1  0
  1 11  1  0
  1 12  1  0
  2 13  1  0
  7 14  1  0
  7 15  1  0
  8 16  1  0
  8 17  1  0
  9 18  1  0
  9 19  1  0
M  END
$$$$
