
     RDKit          3D

 19 21  0  0  0  0  0  0  0  0999 V2000
    1.4565   -0.0189   -0.1103 C   0  0  0  0  0  0  0  0  0  0  0  0
    0.0685   -0.1067    0.1179 O   0  0  0  0  0  0  0  0  0  0  0  0
   -0.3651    0.6560    1.2182 C   0  0  0  0  0  0  0  0  0  0  0  0
   -1.8521    0.4437    1.4386 C   0  0  0  0  0  0  0  0  0  0  0  0
   -1.6025   -0.6953    2.4164 C   0  0  0  0  0  0  0  0  0  0  0  0
   -0.1749   -0.0407    2.6036 C   0  0  0  0  0  0  0  0  0  0  0  0
   -0.7945    0.9760    3.6063 C   0  0  0  0  0  0  0  0  0  0  0  0
   -2.1196    0.6284    2.9325 C   0  0  0  0  0  0  0  0  0  0  0  0
   -3.3922    0.9859    3.3243 O   0  0  0  0  0  0  0  0  0  0  0  0
    2.0459   -0.4166    0.7296 H   0  0  0  0  0  0  0  0  0  0  0  0
    1.6758   -0.6119   -1.0014 H   0  0  0  0  0  0  0  0  0  0  0  0
    1.7741    1.0206   -0.2887 H   0  0  0  0  0  0  0  0  0  0  0  0
    0.0158    1.6879    1.1349 H   0  0  0  0  0  0  0  0  0  0  0  0
   -2.6579    0.5428    0.7235 H   0  0  0  0  0  0  0  0  0  0  0  0
   -1.9785   -1.7065    2.4495 H   0  0  0  0  0  0  0  0  0  0  0  0
    0.7427   -0.5725    2.8435 H   0  0  0  0  0  0  0  0  0  0  0  0
   -0.7575    0.6043    4.6361 H   0  0  0  0  0  0  0  0  0  0  0  0
   -0.4344    2.0112    3.5732 H   0  0  0  0  0  0  0  0  0  0  0  0
   -3.5657    0.5842    4.1829 H   0  0  0  0  0  0  0  0  0  0  0  0
  1  2  1  0
  2  3  1  0
  3  4  1  0
  4  5  1  0
  5  6  1  0
  6  7  1  0
  7  8  1  0
  8  9  1  0
  6  3  1  0
  8  4  1  0
  8  5  1  0
  1 10  1  0
  1 11  1  0
  1 12  1  0
  3 13  1  0
  4 14  1  0
  5 15  1  0
  6 16  1  0
  7 17  1  0
  7 18  1  0
  9 19  1  0
M  END
$$$$
