gdb 4911	2.1042588	1.3761884	1.263285	2.3154	76.81	-0.26514	0.03468	0.29982	1142.1966	0.154985	-422.50689	-422.4972	-422.496255	-422.541077	36.367
 OpenBabel02181911413D

 19 19  0  0  1  0  0  0  0  0999 V2000
    2.7267    2.5009    1.4639 O   0  0  0  0  0  0  0  0  0  0  0  0
    2.7298    1.3214    2.2806 C   0  0  0  0  0  0  0  0  0  0  0  0
    3.1559    0.0878    1.5013 C   0  0  0  0  0  0  0  0  0  0  0  0
    4.5616   -0.4360    1.6546 C   0  0  0  0  0  0  0  0  0  0  0  0
    3.4087   -1.1757    2.2842 C   0  0  0  0  0  0  0  0  0  0  0  0
    2.5592   -0.0090    0.0950 C   0  0  2  0  0  0  0  0  0  0  0  0
    3.2286    0.8551   -0.8123 O   0  0  0  0  0  0  0  0  0  0  0  0
    1.1077    0.2521    0.1104 C   0  0  0  0  0  0  0  0  0  0  0  0
   -0.0683    0.5071    0.1391 C   0  0  0  0  0  0  0  0  0  0  0  0
    1.8316    2.5982    1.1206 H   0  0  0  0  0  0  0  0  0  0  0  0
    3.4250    1.5021    3.1078 H   0  0  0  0  0  0  0  0  0  0  0  0
    1.7324    1.1688    2.7098 H   0  0  0  0  0  0  0  0  0  0  0  0
    5.0364   -0.8664    0.7800 H   0  0  0  0  0  0  0  0  0  0  0  0
    5.2372    0.1107    2.3041 H   0  0  0  0  0  0  0  0  0  0  0  0
    3.0981   -2.1194    1.8484 H   0  0  0  0  0  0  0  0  0  0  0  0
    3.2964   -1.1319    3.3631 H   0  0  0  0  0  0  0  0  0  0  0  0
    2.7212   -1.0237   -0.2887 H   0  0  0  0  0  0  0  0  0  0  0  0
    3.3069    1.7016   -0.3479 H   0  0  0  0  0  0  0  0  0  0  0  0
   -1.1120    0.7051    0.1376 H   0  0  0  0  0  0  0  0  0  0  0  0
  1  2  1  0  0  0  0
  2 12  1  0  0  0  0
  2 11  1  0  0  0  0
  3  4  1  0  0  0  0
  3  2  1  0  0  0  0
  3  5  1  0  0  0  0
  4  5  1  0  0  0  0
  4 14  1  0  0  0  0
  5 16  1  0  0  0  0
  6 17  1  6  0  0  0
  6  8  1  0  0  0  0
  6  3  1  0  0  0  0
  7 18  1  0  0  0  0
  7  6  1  0  0  0  0
  8  9  3  0  0  0  0
 10  1  1  0  0  0  0
 13  4  1  0  0  0  0
 15  5  1  0  0  0  0
 19  9  1  0  0  0  0
M TOR 0 0 1 2 3
M TOR 1 0 1 2 4
M TOR 2 0 1 2 5
M TOR 3 1 2 3 4
M TOR 4 1 2 3 12
M TOR 5 1 2 3 13
M TOR 6 1 2 4 14
M TOR 7 1 2 4 15
M TOR 8 1 2 5 6
M TOR 9 1 2 5 7
M TOR 10 1 2 5 16
M TOR 11 2 1 0 9
M TOR 12 2 3 4 14
M TOR 13 2 3 4 15
M TOR 14 2 4 3 12
M TOR 15 2 4 3 13
M TOR 16 2 5 6 17
M TOR 17 2 5 7 8
M TOR 18 3 2 1 10
M TOR 19 3 2 1 11
M TOR 20 3 2 5 6
M TOR 21 3 2 5 7
M TOR 22 3 2 5 16
M TOR 23 3 4 2 5
M TOR 24 4 2 1 10
M TOR 25 4 2 1 11
M TOR 26 4 2 5 6
M TOR 27 4 2 5 7
M TOR 28 4 2 5 16
M TOR 29 5 2 1 10
M TOR 30 5 2 1 11
M TOR 31 5 2 3 12
M TOR 32 5 2 3 13
M TOR 33 5 2 4 14
M TOR 34 5 2 4 15
M TOR 35 5 7 8 18
M TOR 36 6 5 7 8
M TOR 37 7 5 6 17
M TOR 38 8 7 5 16
M  END
$$$$
