gdb 1887	2.6289227	1.5136596	1.1678804	4.3834	75.36	-0.26253	0.01296	0.27549	1112.1261	0.155986	-422.60121	-422.592528	-422.591584	-422.63406	33.138
 OpenBabel02181911403D

 19 20  0  0  1  0  0  0  0  0999 V2000
   -3.3123    1.5512   -0.5162 C   0  0  0  0  0  0  0  0  0  0  0  0
   -2.2277    0.7511    0.1648 C   0  0  1  0  0  0  0  0  0  0  0  0
   -2.5410   -0.0717    1.4093 C   0  0  0  0  0  0  0  0  0  0  0  0
   -2.1445   -0.7592    0.1309 C   0  0  1  0  0  0  0  0  0  0  0  0
   -3.0222   -1.7053   -0.6347 C   0  0  0  0  0  0  0  0  0  0  0  0
   -0.7714   -1.1413    0.0776 O   0  0  0  0  0  0  0  0  0  0  0  0
    0.0513   -0.0523    0.0654 C   0  0  0  0  0  0  0  0  0  0  0  0
    1.2425   -0.1525    0.0662 O   0  0  0  0  0  0  0  0  0  0  0  0
   -0.7916    1.2243    0.0538 C   0  0  0  0  0  0  0  0  0  0  0  0
   -3.4219    2.5361   -0.0485 H   0  0  0  0  0  0  0  0  0  0  0  0
   -3.0834    1.7101   -1.5762 H   0  0  0  0  0  0  0  0  0  0  0  0
   -4.2832    1.0512   -0.4543 H   0  0  0  0  0  0  0  0  0  0  0  0
   -1.8338   -0.0824    2.2333 H   0  0  0  0  0  0  0  0  0  0  0  0
   -3.5830   -0.1304    1.7067 H   0  0  0  0  0  0  0  0  0  0  0  0
   -2.9673   -2.7114   -0.2072 H   0  0  0  0  0  0  0  0  0  0  0  0
   -4.0644   -1.3791   -0.5980 H   0  0  0  0  0  0  0  0  0  0  0  0
   -2.7123   -1.7632   -1.6828 H   0  0  0  0  0  0  0  0  0  0  0  0
   -0.4611    1.8839    0.8615 H   0  0  0  0  0  0  0  0  0  0  0  0
   -0.6059    1.7517   -0.8887 H   0  0  0  0  0  0  0  0  0  0  0  0
  1 12  1  0  0  0  0
  1 10  1  0  0  0  0
  2  1  1  6  0  0  0
  2  3  1  0  0  0  0
  3 14  1  0  0  0  0
  3 13  1  0  0  0  0
  4  5  1  6  0  0  0
  4  2  1  0  0  0  0
  4  3  1  0  0  0  0
  5 16  1  0  0  0  0
  5 15  1  0  0  0  0
  6  4  1  0  0  0  0
  7  8  2  0  0  0  0
  7  6  1  0  0  0  0
  9  7  1  0  0  0  0
  9  2  1  0  0  0  0
  9 18  1  0  0  0  0
 11  1  1  0  0  0  0
 17  5  1  0  0  0  0
 19  9  1  0  0  0  0
M TOR 0 0 1 2 3
M TOR 1 0 1 2 12
M TOR 2 0 1 2 13
M TOR 3 0 1 3 4
M TOR 4 0 1 3 5
M TOR 5 0 1 8 6
M TOR 6 0 1 8 17
M TOR 7 0 1 8 18
M TOR 8 1 2 3 4
M TOR 9 1 2 3 5
M TOR 10 1 3 2 12
M TOR 11 1 3 2 13
M TOR 12 1 3 4 14
M TOR 13 1 3 4 15
M TOR 14 1 3 4 16
M TOR 15 1 3 5 6
M TOR 16 1 8 6 5
M TOR 17 1 8 6 7
M TOR 18 2 1 0 9
M TOR 19 2 1 0 10
M TOR 20 2 1 0 11
M TOR 21 2 1 8 6
M TOR 22 2 1 8 17
M TOR 23 2 1 8 18
M TOR 24 2 3 1 8
M TOR 25 2 3 4 14
M TOR 26 2 3 4 15
M TOR 27 2 3 4 16
M TOR 28 2 3 5 6
M TOR 29 3 1 0 9
M TOR 30 3 1 0 10
M TOR 31 3 1 0 11
M TOR 32 3 1 8 6
M TOR 33 3 1 8 17
M TOR 34 3 1 8 18
M TOR 35 3 5 6 7
M TOR 36 3 5 6 8
M TOR 37 4 3 1 8
M TOR 38 4 3 2 12
M TOR 39 4 3 2 13
M TOR 40 4 3 5 6
M TOR 41 5 3 1 8
M TOR 42 5 3 2 12
M TOR 43 5 3 2 13
M TOR 44 5 3 4 14
M TOR 45 5 3 4 15
M TOR 46 5 3 4 16
M TOR 47 5 6 8 17
M TOR 48 5 6 8 18
M TOR 49 7 6 8 17
M TOR 50 7 6 8 18
M TOR 51 8 1 0 9
M TOR 52 8 1 0 10
M TOR 53 8 1 0 11
M TOR 54 8 1 2 12
M TOR 55 8 1 2 13
M  END
$$$$
