
     RDKit          3D

 19 19  0  0  0  0  0  0  0  0999 V2000
    5.4949   -1.3527    2.1134 C   0  0  0  0  0  0  0  0  0  0  0  0
    4.6359   -1.3966    0.8676 C   0  0  0  0  0  0  0  0  0  0  0  0
    4.3896   -2.7487    0.4010 O   0  0  0  0  0  0  0  0  0  0  0  0
    2.9645   -2.5381    0.3836 C   0  0  0  0  0  0  0  0  0  0  0  0
    3.1176   -1.1355    1.0052 C   0  0  0  0  0  0  0  0  0  0  0  0
    2.5600    0.0599    0.2307 C   0  0  0  0  0  0  0  0  0  0  0  0
    3.1017    1.2850    0.7200 O   0  0  0  0  0  0  0  0  0  0  0  0
    1.0942    0.0620    0.2387 C   0  0  0  0  0  0  0  0  0  0  0  0
   -0.1067    0.0578    0.2997 C   0  0  0  0  0  0  0  0  0  0  0  0
    5.0409   -1.9349    2.9215 H   0  0  0  0  0  0  0  0  0  0  0  0
    6.4872   -1.7663    1.9086 H   0  0  0  0  0  0  0  0  0  0  0  0
    5.6156   -0.3166    2.4475 H   0  0  0  0  0  0  0  0  0  0  0  0
    5.0947   -0.7923    0.0716 H   0  0  0  0  0  0  0  0  0  0  0  0
    2.5567   -2.5433   -0.6368 H   0  0  0  0  0  0  0  0  0  0  0  0
    2.4276   -3.2836    0.9801 H   0  0  0  0  0  0  0  0  0  0  0  0
    2.7842   -1.0811    2.0460 H   0  0  0  0  0  0  0  0  0  0  0  0
    2.9109   -0.0033   -0.8074 H   0  0  0  0  0  0  0  0  0  0  0  0
    2.6668    1.4803    1.5577 H   0  0  0  0  0  0  0  0  0  0  0  0
   -1.1685    0.0609    0.3306 H   0  0  0  0  0  0  0  0  0  0  0  0
  1  2  1  0
  2  3  1  0
  3  4  1  0
  4  5  1  0
  5  6  1  0
  6  7  1  0
  6  8  1  0
  8  9  3  0
  5  2  1  0
  1 10  1  0
  1 11  1  0
  1 12  1  0
  2 13  1  0
  4 14  1  0
  4 15  1  0
  5 16  1  0
  6 17  1  0
  7 18  1  0
  9 19  1  0
M  END
$$$$
