
     RDKit          3D

 19 18  0  0  0  0  0  0  0  0999 V2000
    0.8161   -0.3966    0.8443 C   0  0  0  0  0  0  0  0  0  0  0  0
    1.2691    0.0659   -0.5405 C   0  0  0  0  0  0  0  0  0  0  0  0
    2.1338    1.3535   -0.5261 C   0  0  0  0  0  0  0  0  0  0  0  0
    2.5775    1.7245   -1.9556 C   0  0  0  0  0  0  0  0  0  0  0  0
    3.2783    1.1839    0.3170 O   0  0  0  0  0  0  0  0  0  0  0  0
    1.3646    2.4673    0.0371 C   0  0  0  0  0  0  0  0  0  0  0  0
    0.6907    3.3825    0.4458 C   0  0  0  0  0  0  0  0  0  0  0  0
   -0.0734    4.4818    0.9752 C   0  0  0  0  0  0  0  0  0  0  0  0
   -1.1238    4.8708    0.5174 O   0  0  0  0  0  0  0  0  0  0  0  0
    0.2825   -1.3488    0.7765 H   0  0  0  0  0  0  0  0  0  0  0  0
    1.6749   -0.5266    1.5076 H   0  0  0  0  0  0  0  0  0  0  0  0
    0.1445    0.3345    1.3036 H   0  0  0  0  0  0  0  0  0  0  0  0
    1.8753   -0.7151   -1.0200 H   0  0  0  0  0  0  0  0  0  0  0  0
    0.4055    0.2338   -1.1932 H   0  0  0  0  0  0  0  0  0  0  0  0
    3.1502    0.8952   -2.3864 H   0  0  0  0  0  0  0  0  0  0  0  0
    1.7163    1.9175   -2.6002 H   0  0  0  0  0  0  0  0  0  0  0  0
    3.2105    2.6141   -1.9336 H   0  0  0  0  0  0  0  0  0  0  0  0
    3.8173    0.4879   -0.0761 H   0  0  0  0  0  0  0  0  0  0  0  0
    0.3855    4.9627    1.8628 H   0  0  0  0  0  0  0  0  0  0  0  0
  1  2  1  0
  2  3  1  0
  3  4  1  0
  3  5  1  0
  3  6  1  0
  6  7  3  0
  7  8  1  0
  8  9  2  0
  1 10  1  0
  1 11  1  0
  1 12  1  0
  2 13  1  0
  2 14  1  0
  4 15  1  0
  4 16  1  0
  4 17  1  0
  5 18  1  0
  8 19  1  0
M  END
$$$$
