
     RDKit          3D

 19 20  0  0  0  0  0  0  0  0999 V2000
    1.2539   -0.1227   -0.0937 C   0  0  0  0  0  0  0  0  0  0  0  0
   -0.1491   -0.0512    0.0631 O   0  0  0  0  0  0  0  0  0  0  0  0
   -0.6028    0.6381    1.1605 C   0  0  0  0  0  0  0  0  0  0  0  0
   -0.2382    0.3283    2.6619 C   0  0  0  0  0  0  0  0  0  0  0  0
   -0.8654    1.7328    2.8886 C   0  0  0  0  0  0  0  0  0  0  0  0
   -0.2751    2.1396    1.5089 C   0  0  0  0  0  0  0  0  0  0  0  0
   -2.3492    1.4886    2.5524 C   0  0  0  0  0  0  0  0  0  0  0  0
   -2.1305    0.6728    1.2638 C   0  0  0  0  0  0  0  0  0  0  0  0
   -2.9374    0.1852    0.5236 O   0  0  0  0  0  0  0  0  0  0  0  0
    1.7365   -0.6340    0.7506 H   0  0  0  0  0  0  0  0  0  0  0  0
    1.4366   -0.6982   -1.0033 H   0  0  0  0  0  0  0  0  0  0  0  0
    1.7062    0.8721   -0.2083 H   0  0  0  0  0  0  0  0  0  0  0  0
   -0.7038   -0.5378    3.1399 H   0  0  0  0  0  0  0  0  0  0  0  0
    0.8412    0.3215    2.8276 H   0  0  0  0  0  0  0  0  0  0  0  0
   -0.6383    2.3073    3.7839 H   0  0  0  0  0  0  0  0  0  0  0  0
   -0.7742    2.9253    0.9355 H   0  0  0  0  0  0  0  0  0  0  0  0
    0.8005    2.3238    1.5531 H   0  0  0  0  0  0  0  0  0  0  0  0
   -2.8878    0.9050    3.3054 H   0  0  0  0  0  0  0  0  0  0  0  0
   -2.9182    2.4019    2.3526 H   0  0  0  0  0  0  0  0  0  0  0  0
  1  2  1  0
  2  3  1  0
  3  4  1  0
  4  5  1  0
  5  6  1  0
  5  7  1  0
  7  8  1  0
  8  9  2  0
  6  3  1  0
  8  3  1  0
  1 10  1  0
  1 11  1  0
  1 12  1  0
  4 13  1  0
  4 14  1  0
  5 15  1  0
  6 16  1  0
  6 17  1  0
  7 18  1  0
  7 19  1  0
M  END
$$$$
