
     RDKit          3D

 19 20  0  0  0  0  0  0  0  0999 V2000
   -0.6531    1.4866    2.6140 C   0  0  0  0  0  0  0  0  0  0  0  0
   -1.4530    1.5750    1.3319 C   0  0  0  0  0  0  0  0  0  0  0  0
   -2.5186    0.5922    1.2370 O   0  0  0  0  0  0  0  0  0  0  0  0
   -2.1013    0.1808   -0.0775 C   0  0  0  0  0  0  0  0  0  0  0  0
   -1.2256   -1.1015   -0.0463 C   0  0  0  0  0  0  0  0  0  0  0  0
   -1.2055   -1.9432   -1.3242 C   0  0  0  0  0  0  0  0  0  0  0  0
    0.0066   -0.1727    0.0804 C   0  0  0  0  0  0  0  0  0  0  0  0
    1.1851   -0.3760    0.1368 O   0  0  0  0  0  0  0  0  0  0  0  0
   -0.8443    1.1040   -0.0183 C   0  0  0  0  0  0  0  0  0  0  0  0
   -0.1949    0.5016    2.7356 H   0  0  0  0  0  0  0  0  0  0  0  0
    0.1416    2.2401    2.6160 H   0  0  0  0  0  0  0  0  0  0  0  0
   -1.3047    1.6739    3.4732 H   0  0  0  0  0  0  0  0  0  0  0  0
   -1.8781    2.5820    1.2216 H   0  0  0  0  0  0  0  0  0  0  0  0
   -2.8941    0.2489   -0.8257 H   0  0  0  0  0  0  0  0  0  0  0  0
   -1.4133   -1.7239    0.8339 H   0  0  0  0  0  0  0  0  0  0  0  0
   -0.3784   -2.6577   -1.2942 H   0  0  0  0  0  0  0  0  0  0  0  0
   -2.1415   -2.4981   -1.4388 H   0  0  0  0  0  0  0  0  0  0  0  0
   -1.0720   -1.3181   -2.2140 H   0  0  0  0  0  0  0  0  0  0  0  0
   -0.5482    1.8632   -0.7410 H   0  0  0  0  0  0  0  0  0  0  0  0
  1  2  1  0
  2  3  1  0
  3  4  1  0
  4  5  1  0
  5  6  1  0
  5  7  1  0
  7  8  2  0
  7  9  1  0
  9  2  1  0
  9  4  1  0
  1 10  1  0
  1 11  1  0
  1 12  1  0
  2 13  1  0
  4 14  1  0
  5 15  1  0
  6 16  1  0
  6 17  1  0
  6 18  1  0
  9 19  1  0
M  END
$$$$
