gdb 2789	3.4220441	1.145198	1.0061891	1.6043	75.34	-0.20706	0.06694	0.274	1222.0228	0.154675	-422.476164	-422.467101	-422.466157	-422.509096	34.867
 OpenBabel02181911413D

 19 21  0  0  1  0  0  0  0  0999 V2000
   -1.0556    2.3621    4.6631 C   0  0  0  0  0  0  0  0  0  0  0  0
   -1.4441    1.8574    3.3055 C   0  0  2  0  0  0  0  0  0  0  0  0
   -2.6208    2.3843    2.5299 C   0  0  2  0  0  0  0  0  0  0  0  0
   -3.4973    3.1403    3.3199 O   0  0  0  0  0  0  0  0  0  0  0  0
   -2.5635    0.9062    2.8748 C   0  0  1  0  0  0  0  0  0  0  0  0
   -1.5685    0.0923    2.0184 C   0  0  1  0  0  0  0  0  0  0  0  0
   -0.8431    0.8864    0.9648 C   0  0  2  0  0  0  0  0  0  0  0  0
    0.0557    0.1918    0.1468 O   0  0  0  0  0  0  0  0  0  0  0  0
   -0.4481    1.0678    2.4109 C   0  0  1  0  0  0  0  0  0  0  0  0
   -0.6322    1.5597    5.2783 H   0  0  0  0  0  0  0  0  0  0  0  0
   -0.2991    3.1529    4.5832 H   0  0  0  0  0  0  0  0  0  0  0  0
   -1.9245    2.7755    5.1787 H   0  0  0  0  0  0  0  0  0  0  0  0
   -2.5325    2.7513    1.5094 H   0  0  0  0  0  0  0  0  0  0  0  0
   -4.3954    2.9463    3.0316 H   0  0  0  0  0  0  0  0  0  0  0  0
   -3.3436    0.4649    3.4842 H   0  0  0  0  0  0  0  0  0  0  0  0
   -1.5527   -0.9918    1.9981 H   0  0  0  0  0  0  0  0  0  0  0  0
   -1.3132    1.6592    0.3691 H   0  0  0  0  0  0  0  0  0  0  0  0
    0.4756   -0.5007    0.6691 H   0  0  0  0  0  0  0  0  0  0  0  0
    0.5666    0.8517    2.7280 H   0  0  0  0  0  0  0  0  0  0  0  0
  1 12  1  0  0  0  0
  1 10  1  0  0  0  0
  2  1  1  1  0  0  0
  3 13  1  6  0  0  0
  3  5  1  0  0  0  0
  3  2  1  0  0  0  0
  3  4  1  0  0  0  0
  5  2  1  0  0  0  0
  5 15  1  1  0  0  0
  6 16  1  1  0  0  0
  6  9  1  0  0  0  0
  6  5  1  0  0  0  0
  7 17  1  6  0  0  0
  7  6  1  0  0  0  0
  7  9  1  0  0  0  0
  8 18  1  0  0  0  0
  8  7  1  0  0  0  0
  9 19  1  1  0  0  0
  9  2  1  0  0  0  0
 11  1  1  0  0  0  0
 14  4  1  0  0  0  0
M TOR 0 0 1 2 3
M TOR 1 0 1 2 4
M TOR 2 0 1 2 12
M TOR 3 0 1 4 5
M TOR 4 0 1 4 14
M TOR 5 0 1 8 5
M TOR 6 0 1 8 6
M TOR 7 0 1 8 18
M TOR 8 1 2 3 13
M TOR 9 1 2 4 5
M TOR 10 1 2 4 14
M TOR 11 1 4 2 3
M TOR 12 1 4 2 12
M TOR 13 1 4 5 6
M TOR 14 1 4 5 8
M TOR 15 1 4 5 15
M TOR 16 1 8 5 6
M TOR 17 1 8 5 15
M TOR 18 1 8 6 7
M TOR 19 1 8 6 16
M TOR 20 2 1 0 9
M TOR 21 2 1 0 10
M TOR 22 2 1 0 11
M TOR 23 2 1 8 5
M TOR 24 2 1 8 6
M TOR 25 2 1 8 18
M TOR 26 2 4 1 8
M TOR 27 2 4 5 6
M TOR 28 2 4 5 8
M TOR 29 2 4 5 15
M TOR 30 3 2 1 8
M TOR 31 3 2 4 5
M TOR 32 3 2 4 14
M TOR 33 4 1 0 9
M TOR 34 4 1 0 10
M TOR 35 4 1 0 11
M TOR 36 4 1 8 6
M TOR 37 4 1 8 18
M TOR 38 4 2 3 13
M TOR 39 4 5 6 7
M TOR 40 4 5 6 8
M TOR 41 4 5 6 16
M TOR 42 4 5 8 18
M TOR 43 5 4 2 12
M TOR 44 5 6 7 17
M TOR 45 5 6 8 18
M TOR 46 5 8 6 7
M TOR 47 5 8 6 16
M TOR 48 6 5 4 14
M TOR 49 6 8 5 15
M TOR 50 7 6 5 15
M TOR 51 7 6 8 18
M TOR 52 8 1 0 9
M TOR 53 8 1 0 10
M TOR 54 8 1 0 11
M TOR 55 8 1 2 12
M TOR 56 8 1 4 14
M TOR 57 8 5 4 14
M TOR 58 8 6 7 17
M  END
$$$$
