
     RDKit          3D

 19 19  0  0  0  0  0  0  0  0999 V2000
    1.4552   -0.0120   -0.0660 C   0  0  0  0  0  0  0  0  0  0  0  0
    0.0330    0.0782    0.0081 O   0  0  0  0  0  0  0  0  0  0  0  0
   -0.4411    0.6593    1.1848 C   0  0  0  0  0  0  0  0  0  0  0  0
   -1.8398    0.2367    1.5605 C   0  0  0  0  0  0  0  0  0  0  0  0
   -0.6791   -0.2489    2.3944 C   0  0  0  0  0  0  0  0  0  0  0  0
   -0.2816   -1.7051    2.3478 C   0  0  0  0  0  0  0  0  0  0  0  0
    1.0838   -1.9330    2.6780 O   0  0  0  0  0  0  0  0  0  0  0  0
   -0.0354    2.0223    1.4285 C   0  0  0  0  0  0  0  0  0  0  0  0
    0.3182    3.1550    1.6273 C   0  0  0  0  0  0  0  0  0  0  0  0
    1.8547   -0.6089    0.7615 H   0  0  0  0  0  0  0  0  0  0  0  0
    1.6797   -0.4989   -1.0173 H   0  0  0  0  0  0  0  0  0  0  0  0
    1.9136    0.9847   -0.0542 H   0  0  0  0  0  0  0  0  0  0  0  0
   -2.5099    0.9831    1.9687 H   0  0  0  0  0  0  0  0  0  0  0  0
   -2.2964   -0.4755    0.8812 H   0  0  0  0  0  0  0  0  0  0  0  0
   -0.5559    0.2303    3.3633 H   0  0  0  0  0  0  0  0  0  0  0  0
   -0.9449   -2.2839    3.0096 H   0  0  0  0  0  0  0  0  0  0  0  0
   -0.4090   -2.0895    1.3329 H   0  0  0  0  0  0  0  0  0  0  0  0
    1.2392   -1.5825    3.5610 H   0  0  0  0  0  0  0  0  0  0  0  0
    0.6228    4.1577    1.7988 H   0  0  0  0  0  0  0  0  0  0  0  0
  1  2  1  0
  2  3  1  0
  3  4  1  0
  4  5  1  0
  5  6  1  0
  6  7  1  0
  3  8  1  0
  8  9  3  0
  5  3  1  0
  1 10  1  0
  1 11  1  0
  1 12  1  0
  4 13  1  0
  4 14  1  0
  5 15  1  0
  6 16  1  0
  6 17  1  0
  7 18  1  0
  9 19  1  0
M  END
$$$$
