gdb 1765	2.7670969	1.5963996	1.2168397	2.887	75.66	-0.22749	-0.01426	0.21323	1076.5863	0.155315	-422.57525	-422.566591	-422.565647	-422.607979	33.244
 OpenBabel02181911403D

 19 20  0  0  1  0  0  0  0  0999 V2000
   -3.5932    1.0116   -0.1798 C   0  0  0  0  0  0  0  0  0  0  0  0
   -2.2707    0.3424    0.0613 C   0  0  1  0  0  0  0  0  0  0  0  0
   -2.0461   -0.7630    1.1234 C   0  0  0  0  0  0  0  0  0  0  0  0
   -0.9881   -1.1795    0.0696 C   0  0  1  0  0  0  0  0  0  0  0  0
   -0.4568   -2.5613   -0.1503 C   0  0  0  0  0  0  0  0  0  0  0  0
   -1.8791   -0.6378   -0.9703 O   0  0  0  0  0  0  0  0  0  0  0  0
   -0.0014    0.0033    0.1631 C   0  0  0  0  0  0  0  0  0  0  0  0
    1.1962   -0.0137    0.2210 O   0  0  0  0  0  0  0  0  0  0  0  0
   -0.9841    1.1931    0.1433 C   0  0  0  0  0  0  0  0  0  0  0  0
   -3.8339    1.6871    0.6475 H   0  0  0  0  0  0  0  0  0  0  0  0
   -3.5638    1.5999   -1.1025 H   0  0  0  0  0  0  0  0  0  0  0  0
   -4.3915    0.2695   -0.2680 H   0  0  0  0  0  0  0  0  0  0  0  0
   -1.7221   -0.4817    2.1296 H   0  0  0  0  0  0  0  0  0  0  0  0
   -2.8731   -1.4755    1.1533 H   0  0  0  0  0  0  0  0  0  0  0  0
    0.2115   -2.8357    0.6714 H   0  0  0  0  0  0  0  0  0  0  0  0
   -1.2669   -3.2925   -0.2097 H   0  0  0  0  0  0  0  0  0  0  0  0
    0.1223   -2.6000   -1.0776 H   0  0  0  0  0  0  0  0  0  0  0  0
   -0.8898    1.8176    1.0366 H   0  0  0  0  0  0  0  0  0  0  0  0
   -0.8450    1.8161   -0.7442 H   0  0  0  0  0  0  0  0  0  0  0  0
  1 10  1  0  0  0  0
  2  1  1  6  0  0  0
  2  9  1  0  0  0  0
  2  3  1  0  0  0  0
  3 14  1  0  0  0  0
  3 13  1  0  0  0  0
  4  5  1  6  0  0  0
  4  7  1  0  0  0  0
  4  3  1  0  0  0  0
  5 15  1  0  0  0  0
  6  2  1  0  0  0  0
  6  4  1  0  0  0  0
  7  8  2  0  0  0  0
  9  7  1  0  0  0  0
  9 18  1  0  0  0  0
 11  1  1  0  0  0  0
 12  1  1  0  0  0  0
 16  5  1  0  0  0  0
 17  5  1  0  0  0  0
 19  9  1  0  0  0  0
M TOR 0 0 1 2 3
M TOR 1 0 1 2 12
M TOR 2 0 1 2 13
M TOR 3 0 1 5 3
M TOR 4 0 1 8 6
M TOR 5 0 1 8 17
M TOR 6 0 1 8 18
M TOR 7 1 2 3 4
M TOR 8 1 2 3 5
M TOR 9 1 2 3 6
M TOR 10 1 5 3 4
M TOR 11 1 5 3 6
M TOR 12 1 8 6 3
M TOR 13 1 8 6 7
M TOR 14 2 1 0 9
M TOR 15 2 1 0 10
M TOR 16 2 1 0 11
M TOR 17 2 1 8 6
M TOR 18 2 1 8 17
M TOR 19 2 1 8 18
M TOR 20 2 3 4 14
M TOR 21 2 3 4 15
M TOR 22 2 3 4 16
M TOR 23 2 3 6 7
M TOR 24 2 3 6 8
M TOR 25 3 2 1 8
M TOR 26 3 5 1 8
M TOR 27 3 6 8 17
M TOR 28 3 6 8 18
M TOR 29 4 3 2 12
M TOR 30 4 3 2 13
M TOR 31 4 3 6 7
M TOR 32 4 3 6 8
M TOR 33 5 1 0 9
M TOR 34 5 1 0 10
M TOR 35 5 1 0 11
M TOR 36 5 1 2 12
M TOR 37 5 1 2 13
M TOR 38 5 1 8 6
M TOR 39 5 1 8 17
M TOR 40 5 1 8 18
M TOR 41 5 3 2 12
M TOR 42 5 3 2 13
M TOR 43 5 3 4 14
M TOR 44 5 3 4 15
M TOR 45 5 3 4 16
M TOR 46 5 3 6 7
M TOR 47 5 3 6 8
M TOR 48 6 3 2 12
M TOR 49 6 3 2 13
M TOR 50 6 3 4 14
M TOR 51 6 3 4 15
M TOR 52 6 3 4 16
M TOR 53 7 6 8 17
M TOR 54 7 6 8 18
M TOR 55 8 1 0 9
M TOR 56 8 1 0 10
M TOR 57 8 1 0 11
M TOR 58 8 1 2 12
M TOR 59 8 1 2 13
M  END
$$$$
