gdb 3554	2.0644975	1.8886802	1.2067942	2.8545	74.4	-0.23337	-0.01569	0.21767999999999998	1068.6725	0.157762	-422.580226	-422.572085	-422.571141	-422.613183	31.202
 OpenBabel02181911413D

 19 20  0  0  1  0  0  0  0  0999 V2000
   -2.6886   -0.9433   -1.4922 O   0  0  0  0  0  0  0  0  0  0  0  0
   -2.4119   -0.7970   -0.1031 C   0  0  1  0  0  0  0  0  0  0  0  0
   -1.0049   -1.3122    0.2326 C   0  0  0  0  0  0  0  0  0  0  0  0
   -0.0701   -0.1585   -0.1607 C   0  0  0  0  0  0  0  0  0  0  0  0
    1.0843   -0.2671   -0.4841 O   0  0  0  0  0  0  0  0  0  0  0  0
   -0.8584    1.1438   -0.0619 C   0  0  2  0  0  0  0  0  0  0  0  0
   -0.8452    1.7638    1.3752 C   0  0  0  0  0  0  0  0  0  0  0  0
   -2.2638    1.1807    1.6333 C   0  0  0  0  0  0  0  0  0  0  0  0
   -2.3415    0.7165    0.1499 C   0  0  2  0  0  0  0  0  0  0  0  0
   -2.5743   -1.8695   -1.7283 H   0  0  0  0  0  0  0  0  0  0  0  0
   -3.1938   -1.2751    0.5053 H   0  0  0  0  0  0  0  0  0  0  0  0
   -0.8958   -1.4875    1.3113 H   0  0  0  0  0  0  0  0  0  0  0  0
   -0.7333   -2.2423   -0.2734 H   0  0  0  0  0  0  0  0  0  0  0  0
   -0.5939    1.8173   -0.8770 H   0  0  0  0  0  0  0  0  0  0  0  0
   -0.0427    1.4270    2.0364 H   0  0  0  0  0  0  0  0  0  0  0  0
   -0.8259    2.8551    1.3488 H   0  0  0  0  0  0  0  0  0  0  0  0
   -2.2876    0.3599    2.3564 H   0  0  0  0  0  0  0  0  0  0  0  0
   -3.0208    1.9083    1.9325 H   0  0  0  0  0  0  0  0  0  0  0  0
   -3.0901    1.2319   -0.4521 H   0  0  0  0  0  0  0  0  0  0  0  0
  1  2  1  0  0  0  0
  2  9  1  0  0  0  0
  2  3  1  0  0  0  0
  2 11  1  1  0  0  0
  3 12  1  0  0  0  0
  4  6  1  0  0  0  0
  4  3  1  0  0  0  0
  5  4  2  0  0  0  0
  6 14  1  6  0  0  0
  6  9  1  0  0  0  0
  6  7  1  0  0  0  0
  7  8  1  0  0  0  0
  7 15  1  0  0  0  0
  8 18  1  0  0  0  0
  8 17  1  0  0  0  0
  9 19  1  6  0  0  0
  9  8  1  0  0  0  0
 10  1  1  0  0  0  0
 13  3  1  0  0  0  0
 16  7  1  0  0  0  0
M TOR 0 0 1 2 3
M TOR 1 0 1 2 11
M TOR 2 0 1 2 12
M TOR 3 0 1 8 5
M TOR 4 0 1 8 7
M TOR 5 0 1 8 18
M TOR 6 1 2 3 4
M TOR 7 1 2 3 5
M TOR 8 1 8 5 3
M TOR 9 1 8 5 6
M TOR 10 1 8 5 13
M TOR 11 1 8 7 6
M TOR 12 1 8 7 16
M TOR 13 1 8 7 17
M TOR 14 2 1 0 9
M TOR 15 2 1 8 5
M TOR 16 2 1 8 7
M TOR 17 2 1 8 18
M TOR 18 2 3 5 6
M TOR 19 2 3 5 8
M TOR 20 2 3 5 13
M TOR 21 3 2 1 8
M TOR 22 3 2 1 10
M TOR 23 3 5 6 7
M TOR 24 3 5 6 14
M TOR 25 3 5 6 15
M TOR 26 3 5 8 7
M TOR 27 3 5 8 18
M TOR 28 4 3 2 11
M TOR 29 4 3 2 12
M TOR 30 4 3 5 6
M TOR 31 4 3 5 8
M TOR 32 4 3 5 13
M TOR 33 5 3 2 11
M TOR 34 5 3 2 12
M TOR 35 5 6 7 8
M TOR 36 5 6 7 16
M TOR 37 5 6 7 17
M TOR 38 5 8 1 10
M TOR 39 5 8 7 16
M TOR 40 5 8 7 17
M TOR 41 6 5 8 18
M TOR 42 6 7 8 18
M TOR 43 7 6 5 13
M TOR 44 7 8 1 10
M TOR 45 7 8 5 13
M TOR 46 8 1 0 9
M TOR 47 8 1 2 11
M TOR 48 8 1 2 12
M TOR 49 8 5 6 14
M TOR 50 8 5 6 15
M TOR 51 8 7 6 14
M TOR 52 8 7 6 15
M  END
$$$$
