
     RDKit          3D

 19 21  0  0  0  0  0  0  0  0999 V2000
   -0.9323    1.3359    0.7397 C   0  0  0  0  0  0  0  0  0  0  0  0
    0.0936    1.5025    1.8523 C   0  0  0  0  0  0  0  0  0  0  0  0
    1.4692    1.2120    1.2465 C   0  0  0  0  0  0  0  0  0  0  0  0
    1.2324    0.7103   -0.1737 C   0  0  0  0  0  0  0  0  0  0  0  0
   -0.2744    0.3556   -0.2488 C   0  0  0  0  0  0  0  0  0  0  0  0
   -0.5204   -1.0182    0.0663 O   0  0  0  0  0  0  0  0  0  0  0  0
   -0.5258   -1.3448    1.4289 C   0  0  0  0  0  0  0  0  0  0  0  0
    0.6665   -1.0310    2.0973 O   0  0  0  0  0  0  0  0  0  0  0  0
    0.9243    0.3282    2.3307 C   0  0  0  0  0  0  0  0  0  0  0  0
   -1.9211    1.0010    1.0656 H   0  0  0  0  0  0  0  0  0  0  0  0
   -1.0689    2.3030    0.2412 H   0  0  0  0  0  0  0  0  0  0  0  0
   -0.0509    2.3130    2.5590 H   0  0  0  0  0  0  0  0  0  0  0  0
    2.3357    1.8328    1.4467 H   0  0  0  0  0  0  0  0  0  0  0  0
    1.4575    1.5075   -0.8912 H   0  0  0  0  0  0  0  0  0  0  0  0
    1.8404   -0.1607   -0.4335 H   0  0  0  0  0  0  0  0  0  0  0  0
   -0.6611    0.4709   -1.2637 H   0  0  0  0  0  0  0  0  0  0  0  0
   -1.3739   -0.8736    1.9474 H   0  0  0  0  0  0  0  0  0  0  0  0
   -0.6250   -2.4316    1.4721 H   0  0  0  0  0  0  0  0  0  0  0  0
    1.3591    0.4529    3.3181 H   0  0  0  0  0  0  0  0  0  0  0  0
  1  2  1  0
  2  3  1  0
  3  4  1  0
  4  5  1  0
  5  6  1  0
  6  7  1  0
  7  8  1  0
  8  9  1  0
  5  1  1  0
  9  2  1  0
  9  3  1  0
  1 10  1  0
  1 11  1  0
  2 12  1  0
  3 13  1  0
  4 14  1  0
  4 15  1  0
  5 16  1  0
  7 17  1  0
  7 18  1  0
  9 19  1  0
M  END
$$$$
