
     RDKit          3D

 19 21  0  0  0  0  0  0  0  0999 V2000
   -0.0308    0.2791    0.7157 C   0  0  0  0  0  0  0  0  0  0  0  0
    1.4764    0.3804    0.7742 C   0  0  0  0  0  0  0  0  0  0  0  0
    2.2257   -0.8763    1.2037 C   0  0  0  0  0  0  0  0  0  0  0  0
    3.7640   -0.6540    1.2277 C   0  0  0  0  0  0  0  0  0  0  0  0
    4.0640    0.7812    0.8057 C   0  0  0  0  0  0  0  0  0  0  0  0
    3.3938    1.6796    1.6837 O   0  0  0  0  0  0  0  0  0  0  0  0
    2.0740    1.7174    1.1867 C   0  0  0  0  0  0  0  0  0  0  0  0
    2.1594    1.2782   -0.2468 C   0  0  0  0  0  0  0  0  0  0  0  0
    3.5234    1.0130   -0.4910 O   0  0  0  0  0  0  0  0  0  0  0  0
   -0.4468    0.0265    1.6981 H   0  0  0  0  0  0  0  0  0  0  0  0
   -0.4853    1.2234    0.3970 H   0  0  0  0  0  0  0  0  0  0  0  0
   -0.3460   -0.4956    0.0069 H   0  0  0  0  0  0  0  0  0  0  0  0
    1.8672   -1.1809    2.1934 H   0  0  0  0  0  0  0  0  0  0  0  0
    1.9674   -1.6928    0.5200 H   0  0  0  0  0  0  0  0  0  0  0  0
    4.1750   -0.8183    2.2281 H   0  0  0  0  0  0  0  0  0  0  0  0
    4.2761   -1.3354    0.5422 H   0  0  0  0  0  0  0  0  0  0  0  0
    5.1287    1.0246    0.7945 H   0  0  0  0  0  0  0  0  0  0  0  0
    1.4923    2.5430    1.5767 H   0  0  0  0  0  0  0  0  0  0  0  0
    1.6514    1.7253   -1.0918 H   0  0  0  0  0  0  0  0  0  0  0  0
  1  2  1  0
  2  3  1  0
  3  4  1  0
  4  5  1  0
  5  6  1  0
  6  7  1  0
  7  8  1  0
  8  9  1  0
  7  2  1  0
  8  2  1  0
  9  5  1  0
  1 10  1  0
  1 11  1  0
  1 12  1  0
  3 13  1  0
  3 14  1  0
  4 15  1  0
  4 16  1  0
  5 17  1  0
  7 18  1  0
  8 19  1  0
M  END
$$$$
