gdb 3953	3.379344	1.4346165	1.4170065	2.559	74.34	-0.24066	0.07226	0.31292000000000003	997.8916	0.159049	-422.496531	-422.489452	-422.488508	-422.527501	29.507
 OpenBabel02181911413D

 19 21  0  0  1  0  0  0  0  0999 V2000
    0.4963    0.6851    0.4784 O   0  0  0  0  0  0  0  0  0  0  0  0
   -0.6101   -0.0098    1.0195 C   0  0  2  0  0  0  0  0  0  0  0  0
   -1.7852    0.0040   -0.0441 C   0  0  0  0  0  0  0  0  0  0  0  0
   -2.7474    0.7446    0.8653 C   0  0  1  0  0  0  0  0  0  0  0  0
   -2.6419   -0.0493    2.2206 C   0  0  0  0  0  0  0  0  0  0  0  0
   -1.2884    0.6902    2.2627 C   0  0  2  0  0  0  0  0  0  0  0  0
   -1.9410    1.8762    1.5156 C   0  0  2  0  0  0  0  0  0  0  0  0
   -3.3734    2.4817    1.6493 C   0  0  0  0  0  0  0  0  0  0  0  0
   -3.9204    1.5278    0.6699 O   0  0  0  0  0  0  0  0  0  0  0  0
    1.1888    0.7083    1.1475 H   0  0  0  0  0  0  0  0  0  0  0  0
   -0.3304   -1.0387    1.2876 H   0  0  0  0  0  0  0  0  0  0  0  0
   -1.4830    0.5753   -0.9238 H   0  0  0  0  0  0  0  0  0  0  0  0
   -2.0927   -1.0008   -0.3445 H   0  0  0  0  0  0  0  0  0  0  0  0
   -3.3609    0.2822    2.9684 H   0  0  0  0  0  0  0  0  0  0  0  0
   -2.6245   -1.1416    2.1739 H   0  0  0  0  0  0  0  0  0  0  0  0
   -0.6671    0.7594    3.1592 H   0  0  0  0  0  0  0  0  0  0  0  0
   -1.2813    2.4832    0.8964 H   0  0  0  0  0  0  0  0  0  0  0  0
   -3.8786    2.3992    2.6167 H   0  0  0  0  0  0  0  0  0  0  0  0
   -3.4613    3.5044    1.2754 H   0  0  0  0  0  0  0  0  0  0  0  0
  1  2  1  0  0  0  0
  1 10  1  0  0  0  0
  2 11  1  1  0  0  0
  2  6  1  0  0  0  0
  3  4  1  0  0  0  0
  3  2  1  0  0  0  0
  4  9  1  6  0  0  0
  4  7  1  0  0  0  0
  4  5  1  0  0  0  0
  5  6  1  0  0  0  0
  5 14  1  0  0  0  0
  6 16  1  1  0  0  0
  7 17  1  6  0  0  0
  7  8  1  0  0  0  0
  7  6  1  0  0  0  0
  8 18  1  0  0  0  0
  9  8  1  0  0  0  0
 12  3  1  0  0  0  0
 13  3  1  0  0  0  0
 15  5  1  0  0  0  0
 19  8  1  0  0  0  0
M TOR 0 0 1 2 3
M TOR 1 0 1 2 11
M TOR 2 0 1 2 12
M TOR 3 0 1 5 4
M TOR 4 0 1 5 6
M TOR 5 0 1 5 15
M TOR 6 1 2 3 4
M TOR 7 1 2 3 6
M TOR 8 1 2 3 8
M TOR 9 1 5 4 3
M TOR 10 1 5 4 13
M TOR 11 1 5 4 14
M TOR 12 1 5 6 3
M TOR 13 1 5 6 7
M TOR 14 1 5 6 16
M TOR 15 2 1 0 9
M TOR 16 2 1 5 4
M TOR 17 2 1 5 6
M TOR 18 2 1 5 15
M TOR 19 2 3 4 5
M TOR 20 2 3 4 13
M TOR 21 2 3 4 14
M TOR 22 2 3 6 5
M TOR 23 2 3 6 7
M TOR 24 2 3 6 16
M TOR 25 2 3 8 7
M TOR 26 3 2 1 5
M TOR 27 3 2 1 10
M TOR 28 3 4 5 6
M TOR 29 3 4 5 15
M TOR 30 3 6 5 15
M TOR 31 3 6 7 8
M TOR 32 3 6 7 17
M TOR 33 3 6 7 18
M TOR 34 3 8 7 17
M TOR 35 3 8 7 18
M TOR 36 4 3 2 11
M TOR 37 4 3 2 12
M TOR 38 4 3 6 7
M TOR 39 4 3 6 16
M TOR 40 4 3 8 7
M TOR 41 4 5 1 10
M TOR 42 4 5 6 7
M TOR 43 4 5 6 16
M TOR 44 5 1 0 9
M TOR 45 5 1 2 11
M TOR 46 5 1 2 12
M TOR 47 5 4 3 8
M TOR 48 5 6 3 8
M TOR 49 5 6 7 8
M TOR 50 5 6 7 17
M TOR 51 5 6 7 18
M TOR 52 6 3 2 11
M TOR 53 6 3 2 12
M TOR 54 6 3 4 13
M TOR 55 6 3 4 14
M TOR 56 6 5 1 10
M TOR 57 6 5 4 13
M TOR 58 6 5 4 14
M TOR 59 7 6 5 15
M TOR 60 8 3 2 11
M TOR 61 8 3 2 12
M TOR 62 8 3 4 13
M TOR 63 8 3 4 14
M TOR 64 8 3 6 16
M TOR 65 8 7 6 16
M  END
$$$$
