gdb 5912	2.5952375	0.7122674	0.5797533	3.0896	84.98	-0.26777	-0.06317	0.2046	1898.2819	0.152908	-422.52242	-422.511425	-422.510481	-422.56029	36.54
 OpenBabel02181911423D

 19 18  0  0  1  0  0  0  0  0999 V2000
   -3.1970    3.1815    1.8138 C   0  0  0  0  0  0  0  0  0  0  0  0
   -2.6304    1.7843    1.6332 C   0  0  0  0  0  0  0  0  0  0  0  0
   -2.9237    1.3544    0.3115 O   0  0  0  0  0  0  0  0  0  0  0  0
   -2.4849    0.0446    0.0090 C   0  0  1  0  0  0  0  0  0  0  0  0
   -3.1003   -0.3444   -1.3388 C   0  0  0  0  0  0  0  0  0  0  0  0
   -1.0196   -0.0642   -0.0267 C   0  0  0  0  0  0  0  0  0  0  0  0
    0.1840   -0.1682   -0.0705 C   0  0  0  0  0  0  0  0  0  0  0  0
    1.6204   -0.2557   -0.1172 C   0  0  0  0  0  0  0  0  0  0  0  0
    2.2383   -1.2694   -0.3500 O   0  0  0  0  0  0  0  0  0  0  0  0
   -2.9928    3.5444    2.8254 H   0  0  0  0  0  0  0  0  0  0  0  0
   -2.7447    3.8739    1.0984 H   0  0  0  0  0  0  0  0  0  0  0  0
   -4.2790    3.1827    1.6554 H   0  0  0  0  0  0  0  0  0  0  0  0
   -1.5430    1.7806    1.8008 H   0  0  0  0  0  0  0  0  0  0  0  0
   -3.0762    1.0847    2.3598 H   0  0  0  0  0  0  0  0  0  0  0  0
   -2.8464   -0.6554    0.7831 H   0  0  0  0  0  0  0  0  0  0  0  0
   -2.8170   -1.3640   -1.6094 H   0  0  0  0  0  0  0  0  0  0  0  0
   -4.1882   -0.2771   -1.2669 H   0  0  0  0  0  0  0  0  0  0  0  0
   -2.7552    0.3388   -2.1181 H   0  0  0  0  0  0  0  0  0  0  0  0
    2.1376    0.7050    0.0820 H   0  0  0  0  0  0  0  0  0  0  0  0
  1 10  1  0  0  0  0
  2 13  1  0  0  0  0
  2  1  1  0  0  0  0
  2 14  1  0  0  0  0
  3  2  1  0  0  0  0
  4  3  1  0  0  0  0
  4 15  1  1  0  0  0
  5 17  1  0  0  0  0
  5  4  1  0  0  0  0
  6  4  1  0  0  0  0
  7  6  3  0  0  0  0
  8  7  1  0  0  0  0
  8 19  1  0  0  0  0
  9  8  2  0  0  0  0
 11  1  1  0  0  0  0
 12  1  1  0  0  0  0
 16  5  1  0  0  0  0
 18  5  1  0  0  0  0
M TOR 0 0 1 2 3
M TOR 1 1 2 3 4
M TOR 2 1 2 3 5
M TOR 3 1 2 3 14
M TOR 4 2 1 0 9
M TOR 5 2 1 0 10
M TOR 6 2 1 0 11
M TOR 7 2 3 4 15
M TOR 8 2 3 4 16
M TOR 9 2 3 4 17
M TOR 10 2 3 5 6
M TOR 11 3 2 1 12
M TOR 12 3 2 1 13
M TOR 13 3 5 6 7
M TOR 14 4 3 5 6
M TOR 15 5 3 4 15
M TOR 16 5 3 4 16
M TOR 17 5 3 4 17
M TOR 18 5 6 7 8
M TOR 19 5 6 7 18
M TOR 20 6 5 3 14
M  END
$$$$
