
     RDKit          3D

 19 19  0  0  0  0  0  0  0  0999 V2000
    0.2495   -0.3560   -2.6794 O   0  0  0  0  0  0  0  0  0  0  0  0
   -0.4271    0.8066   -3.1261 C   0  0  0  0  0  0  0  0  0  0  0  0
    0.3362    2.1155   -2.7860 C   0  0  0  0  0  0  0  0  0  0  0  0
   -0.3255    2.6939   -1.5054 C   0  0  0  0  0  0  0  0  0  0  0  0
   -1.4029    1.6629   -1.0846 C   0  0  0  0  0  0  0  0  0  0  0  0
   -0.7231    0.7087   -0.2347 O   0  0  0  0  0  0  0  0  0  0  0  0
   -1.7860    0.9924   -2.4240 C   0  0  0  0  0  0  0  0  0  0  0  0
   -2.5373    2.2421   -0.3687 C   0  0  0  0  0  0  0  0  0  0  0  0
   -3.4837    2.6885    0.2234 C   0  0  0  0  0  0  0  0  0  0  0  0
    0.2674   -0.2983   -1.7139 H   0  0  0  0  0  0  0  0  0  0  0  0
   -0.5450    0.6779   -4.2053 H   0  0  0  0  0  0  0  0  0  0  0  0
    1.3955    1.8876   -2.6500 H   0  0  0  0  0  0  0  0  0  0  0  0
    0.2607    2.8305   -3.6106 H   0  0  0  0  0  0  0  0  0  0  0  0
    0.3716    2.8419   -0.6785 H   0  0  0  0  0  0  0  0  0  0  0  0
   -0.8085    3.6523   -1.7070 H   0  0  0  0  0  0  0  0  0  0  0  0
   -1.3875    0.0957    0.1013 H   0  0  0  0  0  0  0  0  0  0  0  0
   -2.3216    0.0493   -2.2857 H   0  0  0  0  0  0  0  0  0  0  0  0
   -2.4278    1.6729   -2.9945 H   0  0  0  0  0  0  0  0  0  0  0  0
   -4.3140    3.0932    0.7479 H   0  0  0  0  0  0  0  0  0  0  0  0
  1  2  1  0
  2  3  1  0
  3  4  1  0
  4  5  1  0
  5  6  1  0
  5  7  1  0
  5  8  1  0
  8  9  3  0
  7  2  1  0
  1 10  1  0
  2 11  1  0
  3 12  1  0
  3 13  1  0
  4 14  1  0
  4 15  1  0
  6 16  1  0
  7 17  1  0
  7 18  1  0
  9 19  1  0
M  END
$$$$
