gdb 3899	3.9683019	0.8974886	0.825907	2.9953	76.51	-0.24695	-0.02693	0.22002	1431.1448	0.154301	-422.532151	-422.522942	-422.521998	-422.567094	33.171
 OpenBabel02181911413D

 19 20  0  0  1  0  0  0  0  0999 V2000
   -3.9800    3.5177   -0.9698 C   0  0  0  0  0  0  0  0  0  0  0  0
   -2.6910    3.4067   -0.1656 C   0  0  1  0  0  0  0  0  0  0  0  0
   -2.3431    1.9515    0.3217 C   0  0  0  0  0  0  0  0  0  0  0  0
   -1.0847    2.0004   -0.5636 C   0  0  2  0  0  0  0  0  0  0  0  0
   -0.3407    0.8686   -1.2092 C   0  0  0  0  0  0  0  0  0  0  0  0
    0.4644    0.0692   -0.1967 C   0  0  0  0  0  0  0  0  0  0  0  0
    0.4333   -1.1295   -0.0975 O   0  0  0  0  0  0  0  0  0  0  0  0
   -0.3118    3.1270   -0.1102 O   0  0  0  0  0  0  0  0  0  0  0  0
   -1.4027    3.3698   -1.0078 C   0  0  2  0  0  0  0  0  0  0  0  0
   -4.8531    3.3402   -0.3339 H   0  0  0  0  0  0  0  0  0  0  0  0
   -4.0855    4.5133   -1.4144 H   0  0  0  0  0  0  0  0  0  0  0  0
   -4.0057    2.7843   -1.7841 H   0  0  0  0  0  0  0  0  0  0  0  0
   -2.6554    4.1650    0.6220 H   0  0  0  0  0  0  0  0  0  0  0  0
   -2.1560    1.8124    1.3891 H   0  0  0  0  0  0  0  0  0  0  0  0
   -3.0798    1.2189   -0.0193 H   0  0  0  0  0  0  0  0  0  0  0  0
   -1.0175    0.1884   -1.7343 H   0  0  0  0  0  0  0  0  0  0  0  0
    0.3692    1.2908   -1.9332 H   0  0  0  0  0  0  0  0  0  0  0  0
    1.1096    0.6907    0.4626 H   0  0  0  0  0  0  0  0  0  0  0  0
   -1.1762    3.8878   -1.9345 H   0  0  0  0  0  0  0  0  0  0  0  0
  1 10  1  0  0  0  0
  1  2  1  0  0  0  0
  2  3  1  0  0  0  0
  2 13  1  1  0  0  0
  3 14  1  0  0  0  0
  4  5  1  6  0  0  0
  4  8  1  0  0  0  0
  4  3  1  0  0  0  0
  5  6  1  0  0  0  0
  6  7  2  0  0  0  0
  6 18  1  0  0  0  0
  9 19  1  6  0  0  0
  9  4  1  0  0  0  0
  9  2  1  0  0  0  0
  9  8  1  0  0  0  0
 11  1  1  0  0  0  0
 12  1  1  0  0  0  0
 15  3  1  0  0  0  0
 16  5  1  0  0  0  0
 17  5  1  0  0  0  0
M TOR 0 0 1 2 3
M TOR 1 0 1 2 13
M TOR 2 0 1 2 14
M TOR 3 0 1 8 3
M TOR 4 0 1 8 7
M TOR 5 0 1 8 18
M TOR 6 1 2 3 4
M TOR 7 1 2 3 7
M TOR 8 1 2 3 8
M TOR 9 1 8 3 4
M TOR 10 1 8 3 7
M TOR 11 2 1 0 9
M TOR 12 2 1 0 10
M TOR 13 2 1 0 11
M TOR 14 2 1 8 7
M TOR 15 2 1 8 18
M TOR 16 2 3 4 5
M TOR 17 2 3 4 15
M TOR 18 2 3 4 16
M TOR 19 2 3 7 8
M TOR 20 2 3 8 18
M TOR 21 3 2 1 12
M TOR 22 3 4 5 6
M TOR 23 3 4 5 17
M TOR 24 3 7 8 18
M TOR 25 3 8 1 12
M TOR 26 4 3 2 13
M TOR 27 4 3 2 14
M TOR 28 4 3 7 8
M TOR 29 4 3 8 18
M TOR 30 5 4 3 7
M TOR 31 5 4 3 8
M TOR 32 6 5 4 15
M TOR 33 6 5 4 16
M TOR 34 7 3 2 13
M TOR 35 7 3 2 14
M TOR 36 7 3 4 15
M TOR 37 7 3 4 16
M TOR 38 7 8 1 12
M TOR 39 8 1 0 9
M TOR 40 8 1 0 10
M TOR 41 8 1 0 11
M TOR 42 8 1 2 13
M TOR 43 8 1 2 14
M TOR 44 8 3 2 13
M TOR 45 8 3 2 14
M TOR 46 8 3 4 15
M TOR 47 8 3 4 16
M  END
$$$$
