
     RDKit          3D

 19 20  0  0  0  0  0  0  0  0999 V2000
    2.8473    0.3313   -0.4297 C   0  0  0  0  0  0  0  0  0  0  0  0
    2.3194   -0.6285    0.6491 C   0  0  0  0  0  0  0  0  0  0  0  0
    3.2282   -0.6948    1.8782 C   0  0  0  0  0  0  0  0  0  0  0  0
    3.3684    0.5505    2.5670 O   0  0  0  0  0  0  0  0  0  0  0  0
    2.4180   -0.4199    3.0747 C   0  0  0  0  0  0  0  0  0  0  0  0
    1.0270   -0.1799    2.5944 C   0  0  0  0  0  0  0  0  0  0  0  0
    0.9660   -0.2558    1.2581 C   0  0  0  0  0  0  0  0  0  0  0  0
   -0.2593    0.0044    0.4316 C   0  0  0  0  0  0  0  0  0  0  0  0
   -0.1715    1.2021   -0.3396 O   0  0  0  0  0  0  0  0  0  0  0  0
    3.7862   -0.0454   -0.8483 H   0  0  0  0  0  0  0  0  0  0  0  0
    2.1268    0.4561   -1.2394 H   0  0  0  0  0  0  0  0  0  0  0  0
    3.0399    1.3132    0.0112 H   0  0  0  0  0  0  0  0  0  0  0  0
    2.2406   -1.6356    0.2125 H   0  0  0  0  0  0  0  0  0  0  0  0
    4.1110   -1.3294    1.8806 H   0  0  0  0  0  0  0  0  0  0  0  0
    2.6385   -0.8039    4.0657 H   0  0  0  0  0  0  0  0  0  0  0  0
    0.1930    0.0426    3.2504 H   0  0  0  0  0  0  0  0  0  0  0  0
   -0.4062   -0.7960   -0.3034 H   0  0  0  0  0  0  0  0  0  0  0  0
   -1.1452    0.0181    1.0845 H   0  0  0  0  0  0  0  0  0  0  0  0
    0.0509    1.9153    0.2686 H   0  0  0  0  0  0  0  0  0  0  0  0
  1  2  1  0
  2  3  1  0
  3  4  1  0
  4  5  1  0
  5  6  1  0
  6  7  2  0
  7  8  1  0
  8  9  1  0
  7  2  1  0
  5  3  1  0
  1 10  1  0
  1 11  1  0
  1 12  1  0
  2 13  1  0
  3 14  1  0
  5 15  1  0
  6 16  1  0
  8 17  1  0
  8 18  1  0
  9 19  1  0
M  END
$$$$
