gdb 2347	2.9834851	1.4289311	1.1679216	1.8559	75.28	-0.24702	0.06449	0.31151	1096.4983	0.156295	-422.511587	-422.503442	-422.502498	-422.544246	31.928
 OpenBabel02181911413D

 19 21  0  0  1  0  0  0  0  0999 V2000
   -1.9868    0.3092   -2.9588 O   0  0  0  0  0  0  0  0  0  0  0  0
   -1.1008   -0.4219   -2.1687 C   0  0  2  0  0  0  0  0  0  0  0  0
   -1.1473   -1.9663   -2.1921 C   0  0  0  0  0  0  0  0  0  0  0  0
   -0.9320   -1.9949   -0.6479 C   0  0  0  0  0  0  0  0  0  0  0  0
   -1.0656   -0.4462   -0.5738 C   0  0  1  0  0  0  0  0  0  0  0  0
    0.2792    0.2653   -0.6458 C   0  0  1  0  0  0  0  0  0  0  0  0
    0.8403    1.2805    0.2451 C   0  0  0  0  0  0  0  0  0  0  0  0
    1.3800   -0.0487    0.1926 O   0  0  0  0  0  0  0  0  0  0  0  0
    0.3208    0.1989   -2.1791 C   0  0  0  0  0  0  0  0  0  0  0  0
   -2.8593   -0.0928   -2.8898 H   0  0  0  0  0  0  0  0  0  0  0  0
   -2.1431   -2.3295   -2.4707 H   0  0  0  0  0  0  0  0  0  0  0  0
   -0.4119   -2.4737   -2.8233 H   0  0  0  0  0  0  0  0  0  0  0  0
   -1.7041   -2.5374   -0.0996 H   0  0  0  0  0  0  0  0  0  0  0  0
    0.0427   -2.3624   -0.3203 H   0  0  0  0  0  0  0  0  0  0  0  0
   -1.8426   -0.0334    0.0710 H   0  0  0  0  0  0  0  0  0  0  0  0
    1.4831    2.0618   -0.1599 H   0  0  0  0  0  0  0  0  0  0  0  0
    0.3237    1.5375    1.1695 H   0  0  0  0  0  0  0  0  0  0  0  0
    0.3392    1.1728   -2.6734 H   0  0  0  0  0  0  0  0  0  0  0  0
    1.1104   -0.4336   -2.5936 H   0  0  0  0  0  0  0  0  0  0  0  0
  1 10  1  0  0  0  0
  2  1  1  6  0  0  0
  2  5  1  0  0  0  0
  3  2  1  0  0  0  0
  3  4  1  0  0  0  0
  4  5  1  0  0  0  0
  4 14  1  0  0  0  0
  4 13  1  0  0  0  0
  5 15  1  1  0  0  0
  6  5  1  0  0  0  0
  6  8  1  1  0  0  0
  6  7  1  0  0  0  0
  7 17  1  0  0  0  0
  8  7  1  0  0  0  0
  9  2  1  0  0  0  0
  9  6  1  0  0  0  0
 11  3  1  0  0  0  0
 12  3  1  0  0  0  0
 16  7  1  0  0  0  0
 18  9  1  0  0  0  0
 19  9  1  0  0  0  0
M TOR 0 0 1 2 3
M TOR 1 0 1 2 10
M TOR 2 0 1 2 11
M TOR 3 0 1 4 3
M TOR 4 0 1 4 5
M TOR 5 0 1 4 14
M TOR 6 0 1 8 5
M TOR 7 0 1 8 17
M TOR 8 0 1 8 18
M TOR 9 1 2 3 4
M TOR 10 1 2 3 12
M TOR 11 1 2 3 13
M TOR 12 1 4 3 12
M TOR 13 1 4 3 13
M TOR 14 1 4 5 6
M TOR 15 1 4 5 7
M TOR 16 1 4 5 8
M TOR 17 1 8 5 6
M TOR 18 1 8 5 7
M TOR 19 2 1 0 9
M TOR 20 2 1 4 5
M TOR 21 2 1 4 14
M TOR 22 2 1 8 5
M TOR 23 2 1 8 17
M TOR 24 2 1 8 18
M TOR 25 2 3 4 5
M TOR 26 2 3 4 14
M TOR 27 3 2 1 8
M TOR 28 3 4 1 8
M TOR 29 3 4 5 6
M TOR 30 3 4 5 7
M TOR 31 3 4 5 8
M TOR 32 4 1 0 9
M TOR 33 4 1 2 10
M TOR 34 4 1 2 11
M TOR 35 4 1 8 17
M TOR 36 4 1 8 18
M TOR 37 4 3 2 10
M TOR 38 4 3 2 11
M TOR 39 4 5 6 7
M TOR 40 4 5 6 15
M TOR 41 4 5 6 16
M TOR 42 4 5 8 17
M TOR 43 4 5 8 18
M TOR 44 5 4 3 12
M TOR 45 5 4 3 13
M TOR 46 5 7 6 15
M TOR 47 5 7 6 16
M TOR 48 6 5 4 14
M TOR 49 6 5 8 17
M TOR 50 6 5 8 18
M TOR 51 6 7 5 8
M TOR 52 7 5 4 14
M TOR 53 7 5 8 17
M TOR 54 7 5 8 18
M TOR 55 8 1 0 9
M TOR 56 8 1 2 10
M TOR 57 8 1 2 11
M TOR 58 8 1 4 14
M TOR 59 8 5 4 14
M TOR 60 8 5 6 15
M TOR 61 8 5 6 16
M  END
$$$$
