gdb 549	3.4105272	1.6804101	1.509573	0.2299	72.75	-0.24091	0.08224	0.32315	928.674	0.160958	-422.55266	-422.546187	-422.545243	-422.583214	26.866
 OpenBabel02181911403D

 19 21  0  0  1  0  0  0  0  0999 V2000
   -0.2063    1.2778   -0.7412 C   0  0  0  0  0  0  0  0  0  0  0  0
   -0.0556   -0.1461   -0.5263 O   0  0  0  0  0  0  0  0  0  0  0  0
    1.1504    0.0470    0.2451 C   0  0  2  0  0  0  0  0  0  0  0  0
    1.1348    1.5768   -0.0493 C   0  0  1  0  0  0  0  0  0  0  0  0
    2.3957    1.7309   -0.9190 C   0  0  2  0  0  0  0  0  0  0  0  0
    2.4691    0.4174   -1.7130 C   0  0  0  0  0  0  0  0  0  0  0  0
    2.4399   -0.4436   -0.4327 C   0  0  1  0  0  0  0  0  0  0  0  0
    3.5843    0.2244    0.3550 C   0  0  0  0  0  0  0  0  0  0  0  0
    3.5099    1.6177   -0.0162 O   0  0  0  0  0  0  0  0  0  0  0  0
   -0.2848    1.5288   -1.8067 H   0  0  0  0  0  0  0  0  0  0  0  0
   -1.0872    1.6714   -0.2188 H   0  0  0  0  0  0  0  0  0  0  0  0
    1.0351   -0.3036    1.2764 H   0  0  0  0  0  0  0  0  0  0  0  0
    1.1228    2.2798    0.7825 H   0  0  0  0  0  0  0  0  0  0  0  0
    2.4937    2.6674   -1.4691 H   0  0  0  0  0  0  0  0  0  0  0  0
    1.6206    0.2299   -2.3714 H   0  0  0  0  0  0  0  0  0  0  0  0
    3.4014    0.3330   -2.2756 H   0  0  0  0  0  0  0  0  0  0  0  0
    2.5312   -1.5238   -0.5477 H   0  0  0  0  0  0  0  0  0  0  0  0
    3.4690    0.1261    1.4421 H   0  0  0  0  0  0  0  0  0  0  0  0
    4.5675   -0.1734    0.0752 H   0  0  0  0  0  0  0  0  0  0  0  0
  1  2  1  0  0  0  0
  1 11  1  0  0  0  0
  1  4  1  0  0  0  0
  2  3  1  0  0  0  0
  3 12  1  1  0  0  0
  4  3  1  0  0  0  0
  4 13  1  1  0  0  0
  5 14  1  6  0  0  0
  5  4  1  0  0  0  0
  5  9  1  0  0  0  0
  6  5  1  0  0  0  0
  6  7  1  0  0  0  0
  7 17  1  6  0  0  0
  7  3  1  0  0  0  0
  7  8  1  0  0  0  0
  8 18  1  0  0  0  0
  9  8  1  0  0  0  0
 10  1  1  0  0  0  0
 15  6  1  0  0  0  0
 16  6  1  0  0  0  0
 19  8  1  0  0  0  0
M TOR 0 0 1 2 3
M TOR 1 0 1 2 6
M TOR 2 0 1 2 11
M TOR 3 0 3 2 6
M TOR 4 0 3 2 11
M TOR 5 0 3 4 5
M TOR 6 0 3 4 8
M TOR 7 0 3 4 13
M TOR 8 1 0 3 4
M TOR 9 1 0 3 12
M TOR 10 1 2 3 4
M TOR 11 1 2 3 12
M TOR 12 1 2 6 5
M TOR 13 1 2 6 7
M TOR 14 1 2 6 16
M TOR 15 2 1 0 9
M TOR 16 2 1 0 10
M TOR 17 2 3 0 9
M TOR 18 2 3 0 10
M TOR 19 2 3 4 5
M TOR 20 2 3 4 8
M TOR 21 2 3 4 13
M TOR 22 2 6 5 4
M TOR 23 2 6 5 14
M TOR 24 2 6 5 15
M TOR 25 2 6 7 8
M TOR 26 2 6 7 17
M TOR 27 2 6 7 18
M TOR 28 3 2 6 5
M TOR 29 3 2 6 7
M TOR 30 3 2 6 16
M TOR 31 3 4 5 6
M TOR 32 3 4 5 14
M TOR 33 3 4 5 15
M TOR 34 3 4 8 7
M TOR 35 4 3 0 9
M TOR 36 4 3 0 10
M TOR 37 4 3 2 6
M TOR 38 4 3 2 11
M TOR 39 4 5 6 7
M TOR 40 4 5 6 16
M TOR 41 4 8 7 6
M TOR 42 4 8 7 17
M TOR 43 4 8 7 18
M TOR 44 5 4 3 12
M TOR 45 5 4 8 7
M TOR 46 5 6 2 11
M TOR 47 5 6 7 8
M TOR 48 5 6 7 17
M TOR 49 5 6 7 18
M TOR 50 6 2 3 12
M TOR 51 6 5 4 8
M TOR 52 6 5 4 13
M TOR 53 7 6 2 11
M TOR 54 7 6 5 14
M TOR 55 7 6 5 15
M TOR 56 7 8 4 13
M TOR 57 8 4 3 12
M TOR 58 8 4 5 14
M TOR 59 8 4 5 15
M TOR 60 8 7 6 16
M  END
$$$$
