gdb 891	2.3042727	1.3213688	0.9697027	1.624	75.32	-0.25024	-0.02605	0.22419000000000003	1240.1178	0.154821	-422.527263	-422.51808	-422.517135	-422.562149	33.026
 OpenBabel02181911403D

 19 20  0  0  1  0  0  0  0  0999 V2000
    0.4625   -1.1828    0.0430 O   0  0  0  0  0  0  0  0  0  0  0  0
    0.5194    0.0100    0.1931 C   0  0  0  0  0  0  0  0  0  0  0  0
   -0.2469    0.7899    1.2443 C   0  0  0  0  0  0  0  0  0  0  0  0
   -1.0193    1.9607    0.6512 C   0  0  0  0  0  0  0  0  0  0  0  0
   -1.2453    3.1868    1.5055 C   0  0  0  0  0  0  0  0  0  0  0  0
   -0.2909    3.2466    0.3394 C   0  0  0  0  0  0  0  0  0  0  0  0
   -2.1431    1.5380   -0.2547 C   0  0  2  0  0  0  0  0  0  0  0  0
   -2.0207    1.4935   -1.7194 C   0  0  0  0  0  0  0  0  0  0  0  0
   -2.7414    2.5447   -1.0661 O   0  0  0  0  0  0  0  0  0  0  0  0
    1.1683    0.6406   -0.4581 H   0  0  0  0  0  0  0  0  0  0  0  0
   -0.9050    0.0951    1.7773 H   0  0  0  0  0  0  0  0  0  0  0  0
    0.4871    1.1747    1.9657 H   0  0  0  0  0  0  0  0  0  0  0  0
   -2.1934    3.7007    1.3945 H   0  0  0  0  0  0  0  0  0  0  0  0
   -0.8405    3.1894    2.5119 H   0  0  0  0  0  0  0  0  0  0  0  0
   -0.6142    3.8022   -0.5329 H   0  0  0  0  0  0  0  0  0  0  0  0
    0.7730    3.2941    0.5452 H   0  0  0  0  0  0  0  0  0  0  0  0
   -2.8624    0.8581    0.2079 H   0  0  0  0  0  0  0  0  0  0  0  0
   -1.0858    1.7973   -2.1869 H   0  0  0  0  0  0  0  0  0  0  0  0
   -2.6299    0.7986   -2.2942 H   0  0  0  0  0  0  0  0  0  0  0  0
  1  2  2  0  0  0  0
  2  3  1  0  0  0  0
  3 11  1  0  0  0  0
  3 12  1  0  0  0  0
  4  3  1  0  0  0  0
  4  5  1  0  0  0  0
  5 14  1  0  0  0  0
  6 16  1  0  0  0  0
  6  4  1  0  0  0  0
  6  5  1  0  0  0  0
  7 17  1  1  0  0  0
  7  4  1  0  0  0  0
  8  9  1  0  0  0  0
  8  7  1  0  0  0  0
  9  7  1  0  0  0  0
 10  2  1  0  0  0  0
 13  5  1  0  0  0  0
 15  6  1  0  0  0  0
 18  8  1  0  0  0  0
 19  8  1  0  0  0  0
M TOR 0 0 1 2 3
M TOR 1 0 1 2 10
M TOR 2 0 1 2 11
M TOR 3 1 2 3 4
M TOR 4 1 2 3 5
M TOR 5 1 2 3 6
M TOR 6 2 3 4 5
M TOR 7 2 3 4 12
M TOR 8 2 3 4 13
M TOR 9 2 3 5 14
M TOR 10 2 3 5 15
M TOR 11 2 3 6 7
M TOR 12 2 3 6 8
M TOR 13 2 3 6 16
M TOR 14 3 2 1 9
M TOR 15 3 4 5 14
M TOR 16 3 4 5 15
M TOR 17 3 5 4 12
M TOR 18 3 5 4 13
M TOR 19 3 6 7 8
M TOR 20 3 6 7 17
M TOR 21 3 6 7 18
M TOR 22 4 3 2 10
M TOR 23 4 3 2 11
M TOR 24 4 3 6 7
M TOR 25 4 3 6 8
M TOR 26 4 3 6 16
M TOR 27 4 5 3 6
M TOR 28 5 3 2 10
M TOR 29 5 3 2 11
M TOR 30 5 3 6 7
M TOR 31 5 3 6 8
M TOR 32 5 3 6 16
M TOR 33 6 3 2 10
M TOR 34 6 3 2 11
M TOR 35 6 3 4 12
M TOR 36 6 3 4 13
M TOR 37 6 3 5 14
M TOR 38 6 3 5 15
M TOR 39 6 8 7 17
M TOR 40 6 8 7 18
M TOR 41 7 8 6 16
M  END
$$$$
