
     RDKit          3D

 19 19  0  0  0  0  0  0  0  0999 V2000
   -4.6967   -1.5923    0.4689 C   0  0  0  0  0  0  0  0  0  0  0  0
   -3.3952   -1.6924   -0.3012 C   0  0  0  0  0  0  0  0  0  0  0  0
   -3.2498   -2.4633   -1.2224 O   0  0  0  0  0  0  0  0  0  0  0  0
   -2.2779   -0.7406    0.1198 C   0  0  0  0  0  0  0  0  0  0  0  0
   -2.3398    0.5825   -0.7092 C   0  0  0  0  0  0  0  0  0  0  0  0
   -0.9305    1.1748   -0.5804 C   0  0  0  0  0  0  0  0  0  0  0  0
   -0.0023   -0.0351   -0.4014 C   0  0  0  0  0  0  0  0  0  0  0  0
    1.1998   -0.0080   -0.4319 O   0  0  0  0  0  0  0  0  0  0  0  0
   -0.8680   -1.2724   -0.1627 C   0  0  0  0  0  0  0  0  0  0  0  0
   -4.5408   -1.9419    1.4967 H   0  0  0  0  0  0  0  0  0  0  0  0
   -5.0287   -0.5504    0.5382 H   0  0  0  0  0  0  0  0  0  0  0  0
   -5.4658   -2.2006   -0.0079 H   0  0  0  0  0  0  0  0  0  0  0  0
   -2.3926   -0.4902    1.1812 H   0  0  0  0  0  0  0  0  0  0  0  0
   -2.5493    0.3324   -1.7552 H   0  0  0  0  0  0  0  0  0  0  0  0
   -3.1277    1.2561   -0.3642 H   0  0  0  0  0  0  0  0  0  0  0  0
   -0.6127    1.7925   -1.4236 H   0  0  0  0  0  0  0  0  0  0  0  0
   -0.8382    1.7917    0.3230 H   0  0  0  0  0  0  0  0  0  0  0  0
   -0.8931   -1.8643   -1.0871 H   0  0  0  0  0  0  0  0  0  0  0  0
   -0.4461   -1.9070    0.6195 H   0  0  0  0  0  0  0  0  0  0  0  0
  1  2  1  0
  2  3  2  0
  2  4  1  0
  4  5  1  0
  5  6  1  0
  6  7  1  0
  7  8  2  0
  7  9  1  0
  9  4  1  0
  1 10  1  0
  1 11  1  0
  1 12  1  0
  4 13  1  0
  5 14  1  0
  5 15  1  0
  6 16  1  0
  6 17  1  0
  9 18  1  0
  9 19  1  0
M  END
$$$$
