gdb 5969	3.1041731	1.0611008	0.8727574	2.5508	76.69	-0.24089	-0.02493	0.21595999999999999	1380.2799	0.154802	-422.537988	-422.52874	-422.527796	-422.5728	33.285
 OpenBabel02181911423D

 19 20  0  0  1  0  0  0  0  0999 V2000
    2.0740   -1.4709   -0.2215 C   0  0  0  0  0  0  0  0  0  0  0  0
    1.4776   -0.3227    0.5948 C   0  0  0  0  0  0  0  0  0  0  0  0
    2.0065    1.0529    0.1536 C   0  0  0  0  0  0  0  0  0  0  0  0
    1.4119    2.1685    0.9488 C   0  0  1  0  0  0  0  0  0  0  0  0
    1.8640    2.3870    2.3126 O   0  0  0  0  0  0  0  0  0  0  0  0
    1.8940    3.4965    1.4207 C   0  0  2  0  0  0  0  0  0  0  0  0
    0.4905    4.1141    1.4709 C   0  0  0  0  0  0  0  0  0  0  0  0
   -0.0132    2.7321    0.9471 C   0  0  0  0  0  0  0  0  0  0  0  0
   -1.0618    2.3322    0.5368 O   0  0  0  0  0  0  0  0  0  0  0  0
    1.6831   -2.4369    0.1118 H   0  0  0  0  0  0  0  0  0  0  0  0
    1.8377   -1.3659   -1.2863 H   0  0  0  0  0  0  0  0  0  0  0  0
    3.1651   -1.5018   -0.1258 H   0  0  0  0  0  0  0  0  0  0  0  0
    0.3853   -0.3256    0.5044 H   0  0  0  0  0  0  0  0  0  0  0  0
    1.7034   -0.4618    1.6583 H   0  0  0  0  0  0  0  0  0  0  0  0
    3.0979    1.0899    0.2534 H   0  0  0  0  0  0  0  0  0  0  0  0
    1.7732    1.2155   -0.9066 H   0  0  0  0  0  0  0  0  0  0  0  0
    2.8475    3.9709    1.2230 H   0  0  0  0  0  0  0  0  0  0  0  0
    0.1535    4.4344    2.4584 H   0  0  0  0  0  0  0  0  0  0  0  0
    0.2943    4.8975    0.7323 H   0  0  0  0  0  0  0  0  0  0  0  0
  1 12  1  0  0  0  0
  1 10  1  0  0  0  0
  1  2  1  0  0  0  0
  2 14  1  0  0  0  0
  3 15  1  0  0  0  0
  3  2  1  0  0  0  0
  4  3  1  6  0  0  0
  4  6  1  0  0  0  0
  4  5  1  0  0  0  0
  6 17  1  6  0  0  0
  6  7  1  0  0  0  0
  6  5  1  0  0  0  0
  7 18  1  0  0  0  0
  8  4  1  0  0  0  0
  8  7  1  0  0  0  0
  9  8  2  0  0  0  0
 11  1  1  0  0  0  0
 13  2  1  0  0  0  0
 16  3  1  0  0  0  0
 19  7  1  0  0  0  0
M TOR 0 0 1 2 3
M TOR 1 0 1 2 14
M TOR 2 0 1 2 15
M TOR 3 1 2 3 4
M TOR 4 1 2 3 5
M TOR 5 1 2 3 7
M TOR 6 2 1 0 9
M TOR 7 2 1 0 10
M TOR 8 2 1 0 11
M TOR 9 2 3 4 5
M TOR 10 2 3 5 6
M TOR 11 2 3 5 16
M TOR 12 2 3 7 6
M TOR 13 2 3 7 8
M TOR 14 3 2 1 12
M TOR 15 3 2 1 13
M TOR 16 3 4 5 6
M TOR 17 3 4 5 16
M TOR 18 3 5 6 7
M TOR 19 3 5 6 17
M TOR 20 3 5 6 18
M TOR 21 3 7 6 17
M TOR 22 3 7 6 18
M TOR 23 4 3 2 14
M TOR 24 4 3 2 15
M TOR 25 4 3 7 6
M TOR 26 4 3 7 8
M TOR 27 4 5 3 7
M TOR 28 4 5 6 7
M TOR 29 4 5 6 17
M TOR 30 4 5 6 18
M TOR 31 5 3 2 14
M TOR 32 5 3 2 15
M TOR 33 5 3 7 8
M TOR 34 5 6 7 8
M TOR 35 7 3 2 14
M TOR 36 7 3 2 15
M TOR 37 7 3 5 16
M TOR 38 7 6 5 16
M TOR 39 8 7 6 17
M TOR 40 8 7 6 18
M  END
$$$$
