gdb 3094	2.5414402	1.5383947	1.1059927	1.4295	76.61	-0.24324	-0.03265	0.21059	1139.0115	0.154162	-422.497866	-422.488892	-422.487947	-422.531254	33.498
 OpenBabel02181911413D

 19 20  0  0  1  0  0  0  0  0999 V2000
    0.0659   -0.2410   -0.1951 C   0  0  0  0  0  0  0  0  0  0  0  0
    1.5357   -0.0053    0.0975 C   0  0  2  0  0  0  0  0  0  0  0  0
    2.0439   -0.1520    1.5628 C   0  0  2  0  0  0  0  0  0  0  0  0
    1.2889    1.0839    1.9094 O   0  0  0  0  0  0  0  0  0  0  0  0
    1.9754    1.3819    0.6392 C   0  0  1  0  0  0  0  0  0  0  0  0
    3.2830    0.7358    1.2469 C   0  0  1  0  0  0  0  0  0  0  0  0
    3.9403    1.4929    2.3989 C   0  0  0  0  0  0  0  0  0  0  0  0
    4.3494    0.2240    0.3110 C   0  0  0  0  0  0  0  0  0  0  0  0
    4.5270   -0.9305    0.0095 O   0  0  0  0  0  0  0  0  0  0  0  0
   -0.5617    0.1990    0.5817 H   0  0  0  0  0  0  0  0  0  0  0  0
   -0.2104    0.1988   -1.1595 H   0  0  0  0  0  0  0  0  0  0  0  0
   -0.1467   -1.3137   -0.2529 H   0  0  0  0  0  0  0  0  0  0  0  0
    2.1835   -0.4480   -0.6603 H   0  0  0  0  0  0  0  0  0  0  0  0
    1.9643   -0.9968    2.2473 H   0  0  0  0  0  0  0  0  0  0  0  0
    1.8430    2.3804    0.2185 H   0  0  0  0  0  0  0  0  0  0  0  0
    4.5737    0.8259    2.9934 H   0  0  0  0  0  0  0  0  0  0  0  0
    4.5748    2.3034    2.0234 H   0  0  0  0  0  0  0  0  0  0  0  0
    3.1714    1.9171    3.0451 H   0  0  0  0  0  0  0  0  0  0  0  0
    5.0241    1.0237   -0.0771 H   0  0  0  0  0  0  0  0  0  0  0  0
  1  2  1  0  0  0  0
  1 10  1  0  0  0  0
  2 13  1  6  0  0  0
  2  5  1  0  0  0  0
  2  3  1  0  0  0  0
  3  4  1  0  0  0  0
  3 14  1  1  0  0  0
  5 15  1  6  0  0  0
  5  6  1  0  0  0  0
  5  4  1  0  0  0  0
  6  8  1  6  0  0  0
  6  3  1  0  0  0  0
  6  7  1  0  0  0  0
  7 16  1  0  0  0  0
  7 18  1  0  0  0  0
  9  8  2  0  0  0  0
 11  1  1  0  0  0  0
 12  1  1  0  0  0  0
 17  7  1  0  0  0  0
 19  8  1  0  0  0  0
M TOR 0 0 1 2 3
M TOR 1 0 1 2 5
M TOR 2 0 1 2 13
M TOR 3 0 1 4 3
M TOR 4 0 1 4 5
M TOR 5 0 1 4 14
M TOR 6 1 2 3 4
M TOR 7 1 2 5 4
M TOR 8 1 2 5 6
M TOR 9 1 2 5 7
M TOR 10 1 4 5 6
M TOR 11 1 4 5 7
M TOR 12 2 1 0 9
M TOR 13 2 1 0 10
M TOR 14 2 1 0 11
M TOR 15 2 1 4 14
M TOR 16 2 3 4 5
M TOR 17 2 3 4 14
M TOR 18 2 5 4 14
M TOR 19 2 5 6 15
M TOR 20 2 5 6 16
M TOR 21 2 5 6 17
M TOR 22 2 5 7 8
M TOR 23 2 5 7 18
M TOR 24 3 2 1 12
M TOR 25 3 2 5 6
M TOR 26 3 2 5 7
M TOR 27 3 4 1 12
M TOR 28 3 4 5 6
M TOR 29 3 4 5 7
M TOR 30 4 1 0 9
M TOR 31 4 1 0 10
M TOR 32 4 1 0 11
M TOR 33 4 1 2 13
M TOR 34 4 3 2 13
M TOR 35 4 5 2 13
M TOR 36 4 5 6 15
M TOR 37 4 5 6 16
M TOR 38 4 5 6 17
M TOR 39 4 5 7 8
M TOR 40 4 5 7 18
M TOR 41 5 2 1 12
M TOR 42 5 4 1 12
M TOR 43 6 5 2 13
M TOR 44 6 5 4 14
M TOR 45 6 5 7 8
M TOR 46 6 5 7 18
M TOR 47 7 5 2 13
M TOR 48 7 5 4 14
M TOR 49 7 5 6 15
M TOR 50 7 5 6 16
M TOR 51 7 5 6 17
M  END
$$$$
