gdb 2045	2.8143477	1.5289628	1.3038761	0.7447	74.83	-0.23479	0.07545	0.31024	1052.9488	0.155701	-422.505927	-422.497462	-422.496518	-422.539074	31.743
 OpenBabel02181911403D

 19 21  0  0  1  0  0  0  0  0999 V2000
    3.0982   -0.6386   -0.7527 C   0  0  0  0  0  0  0  0  0  0  0  0
    2.4577   -0.4207    0.5761 C   0  0  1  0  0  0  0  0  0  0  0  0
    2.3584   -1.5045    1.5158 O   0  0  0  0  0  0  0  0  0  0  0  0
    2.9739   -0.2778    1.9491 C   0  0  2  0  0  0  0  0  0  0  0  0
    1.8359    0.6647    2.3522 C   0  0  0  0  0  0  0  0  0  0  0  0
    1.2549    0.4906    0.9117 C   0  0  2  0  0  0  0  0  0  0  0  0
   -0.1925    0.1002    0.5709 C   0  0  0  0  0  0  0  0  0  0  0  0
   -0.1863    1.3829   -0.2827 C   0  0  0  0  0  0  0  0  0  0  0  0
    1.1621    1.7009    0.1360 O   0  0  0  0  0  0  0  0  0  0  0  0
    4.0550   -1.1555   -0.6416 H   0  0  0  0  0  0  0  0  0  0  0  0
    2.4566   -1.2465   -1.4012 H   0  0  0  0  0  0  0  0  0  0  0  0
    3.2642    0.3232   -1.2464 H   0  0  0  0  0  0  0  0  0  0  0  0
    3.9864   -0.3431    2.3310 H   0  0  0  0  0  0  0  0  0  0  0  0
    1.2173    0.3385    3.1923 H   0  0  0  0  0  0  0  0  0  0  0  0
    2.1570    1.6997    2.4952 H   0  0  0  0  0  0  0  0  0  0  0  0
   -0.3068   -0.8418    0.0322 H   0  0  0  0  0  0  0  0  0  0  0  0
   -0.8784    0.1121    1.4194 H   0  0  0  0  0  0  0  0  0  0  0  0
   -0.2491    1.2345   -1.3672 H   0  0  0  0  0  0  0  0  0  0  0  0
   -0.8954    2.1648    0.0113 H   0  0  0  0  0  0  0  0  0  0  0  0
  1 10  1  0  0  0  0
  2  1  1  6  0  0  0
  2  6  1  0  0  0  0
  2  3  1  0  0  0  0
  2  4  1  0  0  0  0
  3  4  1  0  0  0  0
  4 13  1  1  0  0  0
  4  5  1  0  0  0  0
  5 15  1  0  0  0  0
  5 14  1  0  0  0  0
  6  9  1  6  0  0  0
  6  5  1  0  0  0  0
  7  6  1  0  0  0  0
  7 17  1  0  0  0  0
  8 19  1  0  0  0  0
  8  9  1  0  0  0  0
  8  7  1  0  0  0  0
 11  1  1  0  0  0  0
 12  1  1  0  0  0  0
 16  7  1  0  0  0  0
 18  8  1  0  0  0  0
M TOR 0 0 1 2 3
M TOR 1 0 1 3 4
M TOR 2 0 1 3 12
M TOR 3 0 1 5 4
M TOR 4 0 1 5 6
M TOR 5 0 1 5 8
M TOR 6 1 2 3 4
M TOR 7 1 2 3 12
M TOR 8 1 3 4 5
M TOR 9 1 3 4 13
M TOR 10 1 3 4 14
M TOR 11 1 5 4 13
M TOR 12 1 5 4 14
M TOR 13 1 5 6 7
M TOR 14 1 5 6 15
M TOR 15 1 5 6 16
M TOR 16 1 5 8 7
M TOR 17 2 1 0 9
M TOR 18 2 1 0 10
M TOR 19 2 1 0 11
M TOR 20 2 1 5 4
M TOR 21 2 1 5 6
M TOR 22 2 1 5 8
M TOR 23 2 3 1 5
M TOR 24 2 3 4 5
M TOR 25 2 3 4 13
M TOR 26 2 3 4 14
M TOR 27 3 1 0 9
M TOR 28 3 1 0 10
M TOR 29 3 1 0 11
M TOR 30 3 1 5 6
M TOR 31 3 1 5 8
M TOR 32 3 4 5 6
M TOR 33 3 4 5 8
M TOR 34 4 5 6 7
M TOR 35 4 5 6 15
M TOR 36 4 5 6 16
M TOR 37 4 5 8 7
M TOR 38 5 1 0 9
M TOR 39 5 1 0 10
M TOR 40 5 1 0 11
M TOR 41 5 1 3 12
M TOR 42 5 4 3 12
M TOR 43 5 6 7 8
M TOR 44 5 6 7 17
M TOR 45 5 6 7 18
M TOR 46 5 8 7 17
M TOR 47 5 8 7 18
M TOR 48 6 5 4 13
M TOR 49 6 5 4 14
M TOR 50 8 5 4 13
M TOR 51 8 5 4 14
M TOR 52 8 5 6 15
M TOR 53 8 5 6 16
M TOR 54 8 7 6 15
M TOR 55 8 7 6 16
M  END
$$$$
