
     RDKit          3D

 19 21  0  0  0  0  0  0  0  0999 V2000
   -0.7016   -1.4719    1.2193 O   0  0  0  0  0  0  0  0  0  0  0  0
   -0.4834   -0.1142    1.5117 C   0  0  0  0  0  0  0  0  0  0  0  0
    0.5881    0.5696    0.7163 C   0  0  0  0  0  0  0  0  0  0  0  0
    1.6902   -0.2269    0.0581 C   0  0  0  0  0  0  0  0  0  0  0  0
    0.6328    0.4417   -0.7846 C   0  0  0  0  0  0  0  0  0  0  0  0
   -1.8123    0.5265    1.8744 C   0  0  0  0  0  0  0  0  0  0  0  0
   -1.6069    1.9846    2.2550 C   0  0  0  0  0  0  0  0  0  0  0  0
   -0.5491    1.6322    3.1953 O   0  0  0  0  0  0  0  0  0  0  0  0
   -0.7768    0.2428    2.9467 C   0  0  0  0  0  0  0  0  0  0  0  0
    0.0427   -1.9701    1.5753 H   0  0  0  0  0  0  0  0  0  0  0  0
    0.8869    1.5220    1.1390 H   0  0  0  0  0  0  0  0  0  0  0  0
    2.6921    0.1876    0.0691 H   0  0  0  0  0  0  0  0  0  0  0  0
    1.6546   -1.3090    0.1186 H   0  0  0  0  0  0  0  0  0  0  0  0
    0.9051    1.3124   -1.3706 H   0  0  0  0  0  0  0  0  0  0  0  0
   -0.1051   -0.2051   -1.2469 H   0  0  0  0  0  0  0  0  0  0  0  0
   -2.7489    0.0343    1.6522 H   0  0  0  0  0  0  0  0  0  0  0  0
   -1.2623    2.6774    1.4791 H   0  0  0  0  0  0  0  0  0  0  0  0
   -2.4579    2.4204    2.7898 H   0  0  0  0  0  0  0  0  0  0  0  0
   -0.7449   -0.4483    3.7826 H   0  0  0  0  0  0  0  0  0  0  0  0
  1  2  1  0
  2  3  1  0
  3  4  1  0
  4  5  1  0
  2  6  1  0
  6  7  1  0
  7  8  1  0
  8  9  1  0
  9  2  1  0
  5  3  1  0
  9  6  1  0
  1 10  1  0
  3 11  1  0
  4 12  1  0
  4 13  1  0
  5 14  1  0
  5 15  1  0
  6 16  1  0
  7 17  1  0
  7 18  1  0
  9 19  1  0
M  END
$$$$
