gdb 351	3.0066429	1.6495116	1.2821869	1.8106	75.71	-0.24032	0.02153	0.26185	1018.1841	0.160144	-422.56999	-422.562892	-422.561948	-422.601352	28.357
 OpenBabel02181911403D

 19 20  0  0  1  0  0  0  0  0999 V2000
    2.4214    0.6126   -1.8855 C   0  0  0  0  0  0  0  0  0  0  0  0
    3.1258    1.0909   -0.6357 C   0  0  0  0  0  0  0  0  0  0  0  0
    2.2647    1.3474    0.3461 C   0  0  0  0  0  0  0  0  0  0  0  0
    0.8397    1.0416   -0.0666 C   0  0  1  0  0  0  0  0  0  0  0  0
   -0.2540    2.0050    0.4083 C   0  0  0  0  0  0  0  0  0  0  0  0
   -0.2334    3.2293   -0.3071 O   0  0  0  0  0  0  0  0  0  0  0  0
   -0.3292    2.9841   -1.6828 C   0  0  0  0  0  0  0  0  0  0  0  0
    0.7824    2.2976   -2.1843 O   0  0  0  0  0  0  0  0  0  0  0  0
    0.9554    0.9977   -1.6176 C   0  0  1  0  0  0  0  0  0  0  0  0
    2.7754    1.0900   -2.8045 H   0  0  0  0  0  0  0  0  0  0  0  0
    2.5313   -0.4727   -2.0169 H   0  0  0  0  0  0  0  0  0  0  0  0
    4.2038    1.1824   -0.5691 H   0  0  0  0  0  0  0  0  0  0  0  0
    2.5217    1.6850    1.3442 H   0  0  0  0  0  0  0  0  0  0  0  0
    0.5656    0.0391    0.2974 H   0  0  0  0  0  0  0  0  0  0  0  0
   -1.2414    1.5267    0.2899 H   0  0  0  0  0  0  0  0  0  0  0  0
   -0.1273    2.2550    1.4659 H   0  0  0  0  0  0  0  0  0  0  0  0
   -1.2590    2.4198   -1.8975 H   0  0  0  0  0  0  0  0  0  0  0  0
   -0.3545    3.9535   -2.1847 H   0  0  0  0  0  0  0  0  0  0  0  0
    0.2294    0.3060   -2.0689 H   0  0  0  0  0  0  0  0  0  0  0  0
  1  9  1  0  0  0  0
  1  2  1  0  0  0  0
  2 12  1  0  0  0  0
  2  3  2  0  0  0  0
  3 13  1  0  0  0  0
  4 14  1  1  0  0  0
  4  3  1  0  0  0  0
  4  5  1  0  0  0  0
  5 16  1  0  0  0  0
  6  5  1  0  0  0  0
  7  6  1  0  0  0  0
  8  7  1  0  0  0  0
  8  9  1  0  0  0  0
  9 19  1  6  0  0  0
  9  4  1  0  0  0  0
 10  1  1  0  0  0  0
 11  1  1  0  0  0  0
 15  5  1  0  0  0  0
 17  7  1  0  0  0  0
 18  7  1  0  0  0  0
M TOR 0 0 1 2 3
M TOR 1 0 1 2 12
M TOR 2 0 8 3 2
M TOR 3 0 8 3 4
M TOR 4 0 8 3 13
M TOR 5 0 8 7 6
M TOR 6 1 0 8 3
M TOR 7 1 0 8 7
M TOR 8 1 0 8 18
M TOR 9 1 2 3 4
M TOR 10 1 2 3 8
M TOR 11 1 2 3 13
M TOR 12 2 1 0 8
M TOR 13 2 1 0 9
M TOR 14 2 1 0 10
M TOR 15 2 3 4 5
M TOR 16 2 3 4 14
M TOR 17 2 3 4 15
M TOR 18 2 3 8 7
M TOR 19 2 3 8 18
M TOR 20 3 2 1 11
M TOR 21 3 4 5 6
M TOR 22 3 8 0 9
M TOR 23 3 8 0 10
M TOR 24 3 8 7 6
M TOR 25 4 3 2 12
M TOR 26 4 3 8 7
M TOR 27 4 3 8 18
M TOR 28 4 5 6 7
M TOR 29 4 5 6 16
M TOR 30 4 5 6 17
M TOR 31 5 4 3 8
M TOR 32 5 4 3 13
M TOR 33 5 6 7 8
M TOR 34 6 5 4 14
M TOR 35 6 5 4 15
M TOR 36 6 7 8 18
M TOR 37 7 8 0 9
M TOR 38 7 8 0 10
M TOR 39 7 8 3 13
M TOR 40 8 0 1 11
M TOR 41 8 3 2 12
M TOR 42 8 3 4 14
M TOR 43 8 3 4 15
M TOR 44 8 7 6 16
M TOR 45 8 7 6 17
M  END
$$$$
