
     RDKit          3D

 19 21  0  0  0  0  0  0  0  0999 V2000
   -0.9265   -0.3179   -1.7664 C   0  0  0  0  0  0  0  0  0  0  0  0
   -0.5877   -1.7433   -1.1874 C   0  0  0  0  0  0  0  0  0  0  0  0
   -0.1948   -1.0568    0.1318 C   0  0  0  0  0  0  0  0  0  0  0  0
    0.9274   -1.2434    1.1093 C   0  0  0  0  0  0  0  0  0  0  0  0
    1.2970    0.0072    1.6774 O   0  0  0  0  0  0  0  0  0  0  0  0
    1.5488    1.0254    0.7204 C   0  0  0  0  0  0  0  0  0  0  0  0
    0.2669    1.5014    0.0009 C   0  0  0  0  0  0  0  0  0  0  0  0
   -0.5039    0.2762   -0.4110 C   0  0  0  0  0  0  0  0  0  0  0  0
   -1.3402   -0.3285    0.5866 O   0  0  0  0  0  0  0  0  0  0  0  0
   -0.2634   -0.0361   -2.5884 H   0  0  0  0  0  0  0  0  0  0  0  0
   -1.9635   -0.1313   -2.0554 H   0  0  0  0  0  0  0  0  0  0  0  0
   -1.4108   -2.4574   -1.1128 H   0  0  0  0  0  0  0  0  0  0  0  0
    0.2554   -2.2110   -1.7019 H   0  0  0  0  0  0  0  0  0  0  0  0
    0.6561   -1.8867    1.9524 H   0  0  0  0  0  0  0  0  0  0  0  0
    1.7840   -1.7032    0.5866 H   0  0  0  0  0  0  0  0  0  0  0  0
    2.0149    1.8448    1.2743 H   0  0  0  0  0  0  0  0  0  0  0  0
    2.2742    0.6653   -0.0288 H   0  0  0  0  0  0  0  0  0  0  0  0
   -0.3391    2.1205    0.6692 H   0  0  0  0  0  0  0  0  0  0  0  0
    0.5368    2.1119   -0.8674 H   0  0  0  0  0  0  0  0  0  0  0  0
  1  2  1  0
  2  3  1  0
  3  4  1  0
  4  5  1  0
  5  6  1  0
  6  7  1  0
  7  8  1  0
  8  9  1  0
  8  1  1  0
  8  3  1  0
  9  3  1  0
  1 10  1  0
  1 11  1  0
  2 12  1  0
  2 13  1  0
  4 14  1  0
  4 15  1  0
  6 16  1  0
  6 17  1  0
  7 18  1  0
  7 19  1  0
M  END
$$$$
