gdb 224	2.7590026	2.1441539	1.9462852	2.1743	71.92	-0.2423	0.08697	0.32927	832.9268	0.162671	-422.575395	-422.5696	-422.568656	-422.605088	25.71
 OpenBabel02181911403D

 19 21  0  0  1  0  0  0  0  0999 V2000
   -0.5820    1.3137    0.0627 C   0  0  0  0  0  0  0  0  0  0  0  0
   -0.8864    1.2715   -1.4465 C   0  0  2  0  0  0  0  0  0  0  0  0
   -1.9223    0.1240   -1.4531 C   0  0  0  0  0  0  0  0  0  0  0  0
   -0.8663   -0.8832   -0.9799 C   0  0  1  0  0  0  0  0  0  0  0  0
    0.0277   -0.8214   -2.1102 O   0  0  0  0  0  0  0  0  0  0  0  0
    0.3757    0.5584   -2.0958 C   0  0  2  0  0  0  0  0  0  0  0  0
    1.5336    0.7030   -1.2963 O   0  0  0  0  0  0  0  0  0  0  0  0
    1.3820   -0.1253   -0.1295 C   0  0  0  0  0  0  0  0  0  0  0  0
   -0.1171   -0.1620    0.2155 C   0  0  1  0  0  0  0  0  0  0  0  0
    0.2031    2.0202    0.3368 H   0  0  0  0  0  0  0  0  0  0  0  0
   -1.4802    1.5496    0.6391 H   0  0  0  0  0  0  0  0  0  0  0  0
   -1.1624    2.2137   -1.9197 H   0  0  0  0  0  0  0  0  0  0  0  0
   -2.7518    0.3027   -0.7642 H   0  0  0  0  0  0  0  0  0  0  0  0
   -2.3072   -0.1529   -2.4359 H   0  0  0  0  0  0  0  0  0  0  0  0
   -1.1518   -1.9212   -0.8131 H   0  0  0  0  0  0  0  0  0  0  0  0
    0.6304    0.8929   -3.1020 H   0  0  0  0  0  0  0  0  0  0  0  0
    1.7847   -1.1264   -0.3218 H   0  0  0  0  0  0  0  0  0  0  0  0
    1.9645    0.3442    0.6690 H   0  0  0  0  0  0  0  0  0  0  0  0
   -0.3064   -0.6154    1.1898 H   0  0  0  0  0  0  0  0  0  0  0  0
  1  9  1  0  0  0  0
  1 10  1  0  0  0  0
  1 11  1  0  0  0  0
  2 12  1  6  0  0  0
  2  1  1  0  0  0  0
  3  2  1  0  0  0  0
  3  4  1  0  0  0  0
  3 13  1  0  0  0  0
  4 15  1  1  0  0  0
  4  9  1  0  0  0  0
  5  6  1  0  0  0  0
  5  4  1  0  0  0  0
  6 16  1  6  0  0  0
  6  2  1  0  0  0  0
  6  7  1  0  0  0  0
  7  8  1  0  0  0  0
  8  9  1  0  0  0  0
  8 18  1  0  0  0  0
  9 19  1  1  0  0  0
 14  3  1  0  0  0  0
 17  8  1  0  0  0  0
M TOR 0 0 1 2 3
M TOR 1 0 1 2 12
M TOR 2 0 1 2 13
M TOR 3 0 1 5 4
M TOR 4 0 1 5 6
M TOR 5 0 1 5 15
M TOR 6 0 8 3 2
M TOR 7 0 8 3 4
M TOR 8 0 8 3 14
M TOR 9 0 8 7 6
M TOR 10 0 8 7 16
M TOR 11 0 8 7 17
M TOR 12 1 0 8 3
M TOR 13 1 0 8 7
M TOR 14 1 0 8 18
M TOR 15 1 2 3 4
M TOR 16 1 2 3 8
M TOR 17 1 2 3 14
M TOR 18 1 5 4 3
M TOR 19 1 5 6 7
M TOR 20 2 1 0 8
M TOR 21 2 1 0 9
M TOR 22 2 1 0 10
M TOR 23 2 1 5 4
M TOR 24 2 1 5 6
M TOR 25 2 1 5 15
M TOR 26 2 3 4 5
M TOR 27 2 3 8 7
M TOR 28 2 3 8 18
M TOR 29 3 2 1 5
M TOR 30 3 2 1 11
M TOR 31 3 4 5 6
M TOR 32 3 4 5 15
M TOR 33 3 8 0 9
M TOR 34 3 8 0 10
M TOR 35 3 8 7 6
M TOR 36 3 8 7 16
M TOR 37 3 8 7 17
M TOR 38 4 3 2 12
M TOR 39 4 3 2 13
M TOR 40 4 3 8 7
M TOR 41 4 3 8 18
M TOR 42 4 5 1 11
M TOR 43 4 5 6 7
M TOR 44 5 1 0 8
M TOR 45 5 1 0 9
M TOR 46 5 1 0 10
M TOR 47 5 1 2 12
M TOR 48 5 1 2 13
M TOR 49 5 4 3 8
M TOR 50 5 4 3 14
M TOR 51 5 6 7 8
M TOR 52 5 6 7 16
M TOR 53 5 6 7 17
M TOR 54 6 5 1 11
M TOR 55 6 7 8 18
M TOR 56 7 6 5 15
M TOR 57 7 8 0 9
M TOR 58 7 8 0 10
M TOR 59 7 8 3 14
M TOR 60 8 0 1 11
M TOR 61 8 3 2 12
M TOR 62 8 3 2 13
M  END
$$$$
