gdb 2616	3.0390529	1.2245291	1.033408	1.1928	75.32	-0.24261	-0.02563	0.21698	1193.2101	0.155224	-422.539605	-422.530624	-422.52968	-422.574252	32.414
 OpenBabel02181911413D

 19 20  0  0  1  0  0  0  0  0999 V2000
   -0.9816   -2.1150    1.1124 C   0  0  0  0  0  0  0  0  0  0  0  0
   -0.9352   -1.0081    0.0688 C   0  0  2  0  0  0  0  0  0  0  0  0
    0.0565    0.1488    0.2769 C   0  0  0  0  0  0  0  0  0  0  0  0
    1.1702    0.2097    0.7105 O   0  0  0  0  0  0  0  0  0  0  0  0
   -0.9908    1.1940   -0.1373 C   0  0  0  0  0  0  0  0  0  0  0  0
   -2.0629    0.0722   -0.0445 C   0  0  0  0  0  0  0  0  0  0  0  0
   -3.1914    0.1772    1.0055 C   0  0  0  0  0  0  0  0  0  0  0  0
   -4.2079    0.0760   -0.0109 O   0  0  0  0  0  0  0  0  0  0  0  0
   -3.2200   -0.0483   -1.0518 C   0  0  0  0  0  0  0  0  0  0  0  0
   -1.7934   -2.8212    0.9111 H   0  0  0  0  0  0  0  0  0  0  0  0
   -0.0390   -2.6697    1.1104 H   0  0  0  0  0  0  0  0  0  0  0  0
   -1.1231   -1.7107    2.1193 H   0  0  0  0  0  0  0  0  0  0  0  0
   -0.7590   -1.4374   -0.9281 H   0  0  0  0  0  0  0  0  0  0  0  0
   -1.0990    2.0579    0.5246 H   0  0  0  0  0  0  0  0  0  0  0  0
   -0.8300    1.5569   -1.1588 H   0  0  0  0  0  0  0  0  0  0  0  0
   -3.2564   -0.6445    1.7295 H   0  0  0  0  0  0  0  0  0  0  0  0
   -3.2424    1.1314    1.5462 H   0  0  0  0  0  0  0  0  0  0  0  0
   -3.2908   -1.0129   -1.5732 H   0  0  0  0  0  0  0  0  0  0  0  0
   -3.2933    0.7610   -1.7907 H   0  0  0  0  0  0  0  0  0  0  0  0
  1 12  1  0  0  0  0
  2 13  1  6  0  0  0
  2  3  1  0  0  0  0
  2  1  1  0  0  0  0
  3  4  2  0  0  0  0
  5  6  1  0  0  0  0
  5  3  1  0  0  0  0
  5 14  1  0  0  0  0
  6  2  1  0  0  0  0
  6  7  1  0  0  0  0
  7 17  1  0  0  0  0
  7 16  1  0  0  0  0
  8  7  1  0  0  0  0
  9  6  1  0  0  0  0
  9  8  1  0  0  0  0
 10  1  1  0  0  0  0
 11  1  1  0  0  0  0
 15  5  1  0  0  0  0
 18  9  1  0  0  0  0
 19  9  1  0  0  0  0
M TOR 0 0 1 2 3
M TOR 1 0 1 2 4
M TOR 2 0 1 5 4
M TOR 3 0 1 5 6
M TOR 4 0 1 5 8
M TOR 5 1 2 4 5
M TOR 6 1 2 4 13
M TOR 7 1 2 4 14
M TOR 8 1 5 4 13
M TOR 9 1 5 4 14
M TOR 10 1 5 6 7
M TOR 11 1 5 6 15
M TOR 12 1 5 6 16
M TOR 13 1 5 8 7
M TOR 14 1 5 8 17
M TOR 15 1 5 8 18
M TOR 16 2 1 0 9
M TOR 17 2 1 0 10
M TOR 18 2 1 0 11
M TOR 19 2 1 5 6
M TOR 20 2 1 5 8
M TOR 21 2 4 5 6
M TOR 22 2 4 5 8
M TOR 23 3 2 1 5
M TOR 24 3 2 1 12
M TOR 25 3 2 4 5
M TOR 26 3 2 4 13
M TOR 27 3 2 4 14
M TOR 28 4 2 1 12
M TOR 29 4 5 1 12
M TOR 30 4 5 6 7
M TOR 31 4 5 6 15
M TOR 32 4 5 6 16
M TOR 33 4 5 8 7
M TOR 34 4 5 8 17
M TOR 35 4 5 8 18
M TOR 36 5 1 0 9
M TOR 37 5 1 0 10
M TOR 38 5 1 0 11
M TOR 39 5 6 7 8
M TOR 40 6 5 1 12
M TOR 41 6 5 4 13
M TOR 42 6 5 4 14
M TOR 43 6 5 8 17
M TOR 44 6 5 8 18
M TOR 45 6 7 8 17
M TOR 46 6 7 8 18
M TOR 47 8 5 1 12
M TOR 48 8 5 4 13
M TOR 49 8 5 4 14
M TOR 50 8 5 6 15
M TOR 51 8 5 6 16
M TOR 52 8 7 6 15
M TOR 53 8 7 6 16
M  END
$$$$
