
     RDKit          3D

 19 20  0  0  0  0  0  0  0  0999 V2000
    1.2365    0.2892    0.1716 O   0  0  0  0  0  0  0  0  0  0  0  0
    0.0563    0.1397    0.1533 C   0  0  0  0  0  0  0  0  0  0  0  0
   -0.6406   -1.0347    0.0400 O   0  0  0  0  0  0  0  0  0  0  0  0
   -1.9354   -0.3243   -0.0367 C   0  0  0  0  0  0  0  0  0  0  0  0
   -2.5885   -0.5145   -1.4129 C   0  0  0  0  0  0  0  0  0  0  0  0
   -2.9329    0.8079   -2.1179 C   0  0  0  0  0  0  0  0  0  0  0  0
   -1.7264    1.7547   -2.1428 C   0  0  0  0  0  0  0  0  0  0  0  0
   -1.3568    2.1951   -0.7198 C   0  0  0  0  0  0  0  0  0  0  0  0
   -1.1964    1.0138    0.2379 C   0  0  0  0  0  0  0  0  0  0  0  0
   -2.5733   -0.6673    0.7799 H   0  0  0  0  0  0  0  0  0  0  0  0
   -1.8762   -1.0713   -2.0313 H   0  0  0  0  0  0  0  0  0  0  0  0
   -3.4795   -1.1431   -1.3204 H   0  0  0  0  0  0  0  0  0  0  0  0
   -3.2755    0.5908   -3.1348 H   0  0  0  0  0  0  0  0  0  0  0  0
   -3.7703    1.3031   -1.6072 H   0  0  0  0  0  0  0  0  0  0  0  0
   -0.8740    1.2503   -2.6173 H   0  0  0  0  0  0  0  0  0  0  0  0
   -1.9449    2.6386   -2.7507 H   0  0  0  0  0  0  0  0  0  0  0  0
   -0.4317    2.7817   -0.7135 H   0  0  0  0  0  0  0  0  0  0  0  0
   -2.1475    2.8529   -0.3389 H   0  0  0  0  0  0  0  0  0  0  0  0
   -1.3253    1.3395    1.2746 H   0  0  0  0  0  0  0  0  0  0  0  0
  1  2  2  0
  2  3  1  0
  3  4  1  0
  4  5  1  0
  5  6  1  0
  6  7  1  0
  7  8  1  0
  8  9  1  0
  9  2  1  0
  9  4  1  0
  4 10  1  0
  5 11  1  0
  5 12  1  0
  6 13  1  0
  6 14  1  0
  7 15  1  0
  7 16  1  0
  8 17  1  0
  8 18  1  0
  9 19  1  0
M  END
$$$$
