
     RDKit          3D

 19 19  0  0  0  0  0  0  0  0999 V2000
   -1.9283   -0.2924    3.7862 C   0  0  0  0  0  0  0  0  0  0  0  0
   -1.6234   -0.0663    2.3293 C   0  0  0  0  0  0  0  0  0  0  0  0
   -2.2664   -0.9431    1.3908 O   0  0  0  0  0  0  0  0  0  0  0  0
   -0.8460   -1.0173    1.5268 C   0  0  0  0  0  0  0  0  0  0  0  0
   -0.0617   -0.5881    0.3129 C   0  0  0  0  0  0  0  0  0  0  0  0
    1.2832   -0.4058    0.7075 O   0  0  0  0  0  0  0  0  0  0  0  0
    2.1251   -0.0812   -0.3820 C   0  0  0  0  0  0  0  0  0  0  0  0
    3.4975    0.0804    0.0783 C   0  0  0  0  0  0  0  0  0  0  0  0
    4.6373    0.2197    0.4293 C   0  0  0  0  0  0  0  0  0  0  0  0
   -1.9029   -1.3585    4.0270 H   0  0  0  0  0  0  0  0  0  0  0  0
   -1.1965    0.2267    4.4143 H   0  0  0  0  0  0  0  0  0  0  0  0
   -2.9222    0.0922    4.0374 H   0  0  0  0  0  0  0  0  0  0  0  0
   -1.6104    0.9770    2.0078 H   0  0  0  0  0  0  0  0  0  0  0  0
   -0.4769   -1.9214    2.0127 H   0  0  0  0  0  0  0  0  0  0  0  0
   -0.1353   -1.3604   -0.4720 H   0  0  0  0  0  0  0  0  0  0  0  0
   -0.4910    0.3394   -0.0991 H   0  0  0  0  0  0  0  0  0  0  0  0
    2.0813   -0.8717   -1.1511 H   0  0  0  0  0  0  0  0  0  0  0  0
    1.7850    0.8492   -0.8684 H   0  0  0  0  0  0  0  0  0  0  0  0
    5.6436    0.3410    0.7463 H   0  0  0  0  0  0  0  0  0  0  0  0
  1  2  1  0
  2  3  1  0
  3  4  1  0
  4  5  1  0
  5  6  1  0
  6  7  1  0
  7  8  1  0
  8  9  3  0
  4  2  1  0
  1 10  1  0
  1 11  1  0
  1 12  1  0
  2 13  1  0
  4 14  1  0
  5 15  1  0
  5 16  1  0
  7 17  1  0
  7 18  1  0
  9 19  1  0
M  END
$$$$
