gdb 3797	3.3668736	0.9556215	0.7956167	2.5151	77.11	-0.23315	-0.01717	0.21598	1431.5229	0.155312	-422.543538	-422.53439	-422.533446	-422.578444	33.414
 OpenBabel02181911413D

 19 20  0  0  1  0  0  0  0  0999 V2000
   -2.2783   -3.6855    2.4638 O   0  0  0  0  0  0  0  0  0  0  0  0
   -1.6513   -3.2966    1.2768 C   0  0  2  0  0  0  0  0  0  0  0  0
   -0.1471   -3.2586    1.2017 C   0  0  0  0  0  0  0  0  0  0  0  0
   -0.9466   -1.9722    1.3035 C   0  0  1  0  0  0  0  0  0  0  0  0
   -1.0288   -1.0163    0.1475 C   0  0  1  0  0  0  0  0  0  0  0  0
   -2.1014    0.1248    0.1396 C   0  0  0  0  0  0  0  0  0  0  0  0
   -1.0211    1.1594   -0.2957 C   0  0  0  0  0  0  0  0  0  0  0  0
    0.0413    0.0955    0.0300 C   0  0  0  0  0  0  0  0  0  0  0  0
    1.2196    0.1304    0.2329 O   0  0  0  0  0  0  0  0  0  0  0  0
   -2.1649   -4.6368    2.5614 H   0  0  0  0  0  0  0  0  0  0  0  0
   -2.1933   -3.5538    0.3655 H   0  0  0  0  0  0  0  0  0  0  0  0
    0.4008   -3.5653    2.0856 H   0  0  0  0  0  0  0  0  0  0  0  0
    0.3348   -3.4970    0.2594 H   0  0  0  0  0  0  0  0  0  0  0  0
   -0.9287   -1.5045    2.2842 H   0  0  0  0  0  0  0  0  0  0  0  0
   -1.0550   -1.5697   -0.8009 H   0  0  0  0  0  0  0  0  0  0  0  0
   -2.9432   -0.0132   -0.5395 H   0  0  0  0  0  0  0  0  0  0  0  0
   -2.4864    0.3245    1.1423 H   0  0  0  0  0  0  0  0  0  0  0  0
   -1.0430    1.3913   -1.3657 H   0  0  0  0  0  0  0  0  0  0  0  0
   -0.9459    2.0974    0.2597 H   0  0  0  0  0  0  0  0  0  0  0  0
  1 10  1  0  0  0  0
  2 11  1  6  0  0  0
  2  4  1  0  0  0  0
  2  1  1  0  0  0  0
  3  2  1  0  0  0  0
  3  4  1  0  0  0  0
  3 12  1  0  0  0  0
  4 14  1  1  0  0  0
  5 15  1  6  0  0  0
  5  4  1  0  0  0  0
  6  5  1  0  0  0  0
  6 17  1  0  0  0  0
  7  8  1  0  0  0  0
  7  6  1  0  0  0  0
  7 19  1  0  0  0  0
  8  5  1  0  0  0  0
  8  9  2  0  0  0  0
 13  3  1  0  0  0  0
 16  6  1  0  0  0  0
 18  7  1  0  0  0  0
M TOR 0 0 1 2 3
M TOR 1 0 1 2 11
M TOR 2 0 1 2 12
M TOR 3 0 1 3 4
M TOR 4 0 1 3 13
M TOR 5 1 2 3 4
M TOR 6 1 2 3 13
M TOR 7 1 3 2 11
M TOR 8 1 3 2 12
M TOR 9 1 3 4 5
M TOR 10 1 3 4 7
M TOR 11 1 3 4 14
M TOR 12 2 1 0 9
M TOR 13 2 3 1 10
M TOR 14 2 3 4 5
M TOR 15 2 3 4 7
M TOR 16 2 3 4 14
M TOR 17 3 1 0 9
M TOR 18 3 4 5 6
M TOR 19 3 4 5 15
M TOR 20 3 4 5 16
M TOR 21 3 4 7 6
M TOR 22 3 4 7 8
M TOR 23 4 3 1 10
M TOR 24 4 3 2 11
M TOR 25 4 3 2 12
M TOR 26 4 5 6 7
M TOR 27 4 5 6 17
M TOR 28 4 5 6 18
M TOR 29 4 7 6 17
M TOR 30 4 7 6 18
M TOR 31 5 4 3 13
M TOR 32 5 4 7 8
M TOR 33 5 6 7 8
M TOR 34 6 5 4 14
M TOR 35 6 7 4 14
M TOR 36 7 4 3 13
M TOR 37 7 4 5 15
M TOR 38 7 4 5 16
M TOR 39 7 6 5 15
M TOR 40 7 6 5 16
M TOR 41 8 7 4 14
M TOR 42 8 7 6 17
M TOR 43 8 7 6 18
M  END
$$$$
