gdb 3726	2.5987492	1.4417285	1.0829383	1.4362	76.65	-0.24729	0.01591	0.2632	1143.0985	0.156822	-422.552905	-422.544233	-422.543288	-422.586243	33.289
 OpenBabel02181911413D

 19 20  0  0  1  0  0  0  0  0999 V2000
   -3.0192    0.2260    3.9626 O   0  0  0  0  0  0  0  0  0  0  0  0
   -2.4041   -0.0727    2.7428 C   0  0  2  0  0  0  0  0  0  0  0  0
   -1.2639   -1.0534    2.6968 C   0  0  0  0  0  0  0  0  0  0  0  0
   -1.0029    0.4328    2.5537 C   0  0  2  0  0  0  0  0  0  0  0  0
   -0.3142    1.2399    3.6604 C   0  0  0  0  0  0  0  0  0  0  0  0
    0.4756    2.2661    2.8889 C   0  0  0  0  0  0  0  0  0  0  0  0
    0.3270    2.1537    1.5700 C   0  0  0  0  0  0  0  0  0  0  0  0
   -0.5656    0.9995    1.1835 C   0  0  1  0  0  0  0  0  0  0  0  0
    0.0789    0.0591    0.3246 O   0  0  0  0  0  0  0  0  0  0  0  0
   -3.5288   -0.5433    4.2368 H   0  0  0  0  0  0  0  0  0  0  0  0
   -3.0664   -0.0280    1.8768 H   0  0  0  0  0  0  0  0  0  0  0  0
   -0.9751   -1.5161    3.6358 H   0  0  0  0  0  0  0  0  0  0  0  0
   -1.1436   -1.6688    1.8118 H   0  0  0  0  0  0  0  0  0  0  0  0
   -1.0481    1.7031    4.3296 H   0  0  0  0  0  0  0  0  0  0  0  0
    0.3350    0.6262    4.2992 H   0  0  0  0  0  0  0  0  0  0  0  0
    1.0840    3.0146    3.3860 H   0  0  0  0  0  0  0  0  0  0  0  0
    0.7926    2.7813    0.8185 H   0  0  0  0  0  0  0  0  0  0  0  0
   -1.4318    1.3284    0.5964 H   0  0  0  0  0  0  0  0  0  0  0  0
    0.8922   -0.2133    0.7651 H   0  0  0  0  0  0  0  0  0  0  0  0
  1 10  1  0  0  0  0
  2 11  1  6  0  0  0
  2  1  1  0  0  0  0
  3  2  1  0  0  0  0
  3 12  1  0  0  0  0
  4  3  1  1  0  0  0
  4  2  1  0  0  0  0
  4  5  1  0  0  0  0
  5 15  1  0  0  0  0
  5 14  1  0  0  0  0
  6 16  1  0  0  0  0
  6  5  1  0  0  0  0
  7  6  2  0  0  0  0
  8 18  1  6  0  0  0
  8  7  1  0  0  0  0
  8  4  1  0  0  0  0
  9 19  1  0  0  0  0
  9  8  1  0  0  0  0
 13  3  1  0  0  0  0
 17  7  1  0  0  0  0
M TOR 0 0 1 2 3
M TOR 1 0 1 2 11
M TOR 2 0 1 2 12
M TOR 3 0 1 3 4
M TOR 4 0 1 3 7
M TOR 5 1 2 3 4
M TOR 6 1 2 3 7
M TOR 7 1 3 2 11
M TOR 8 1 3 2 12
M TOR 9 1 3 4 5
M TOR 10 1 3 4 13
M TOR 11 1 3 4 14
M TOR 12 1 3 7 6
M TOR 13 1 3 7 8
M TOR 14 1 3 7 17
M TOR 15 2 1 0 9
M TOR 16 2 3 1 10
M TOR 17 2 3 4 5
M TOR 18 2 3 4 13
M TOR 19 2 3 4 14
M TOR 20 2 3 7 6
M TOR 21 2 3 7 8
M TOR 22 2 3 7 17
M TOR 23 3 1 0 9
M TOR 24 3 4 5 6
M TOR 25 3 4 5 15
M TOR 26 3 7 6 5
M TOR 27 3 7 6 16
M TOR 28 3 7 8 18
M TOR 29 4 3 1 10
M TOR 30 4 3 2 11
M TOR 31 4 3 2 12
M TOR 32 4 3 7 6
M TOR 33 4 3 7 8
M TOR 34 4 3 7 17
M TOR 35 4 5 6 7
M TOR 36 4 5 6 16
M TOR 37 5 4 3 7
M TOR 38 5 6 7 8
M TOR 39 5 6 7 17
M TOR 40 6 5 4 13
M TOR 41 6 5 4 14
M TOR 42 6 7 8 18
M TOR 43 7 3 1 10
M TOR 44 7 3 2 11
M TOR 45 7 3 2 12
M TOR 46 7 3 4 13
M TOR 47 7 3 4 14
M TOR 48 7 6 5 15
M TOR 49 8 7 6 16
M  END
$$$$
