
     RDKit          3D

 19 19  0  0  0  0  0  0  0  0999 V2000
   -2.1975    1.1246    2.0812 C   0  0  0  0  0  0  0  0  0  0  0  0
   -2.0446    1.9567    0.8494 C   0  0  0  0  0  0  0  0  0  0  0  0
   -0.9566    2.1776    0.1059 C   0  0  0  0  0  0  0  0  0  0  0  0
    0.4317    1.6237    0.3037 C   0  0  0  0  0  0  0  0  0  0  0  0
    0.4696    0.1671   -0.1295 C   0  0  0  0  0  0  0  0  0  0  0  0
    0.6710   -0.7577    0.6142 O   0  0  0  0  0  0  0  0  0  0  0  0
   -1.3075    3.0887   -1.0414 C   0  0  0  0  0  0  0  0  0  0  0  0
   -2.6910    3.3747   -0.8991 O   0  0  0  0  0  0  0  0  0  0  0  0
   -3.2007    2.7218    0.2585 C   0  0  0  0  0  0  0  0  0  0  0  0
   -2.9837    0.3713    1.9475 H   0  0  0  0  0  0  0  0  0  0  0  0
   -1.2755    0.5994    2.3394 H   0  0  0  0  0  0  0  0  0  0  0  0
   -2.4985    1.7408    2.9381 H   0  0  0  0  0  0  0  0  0  0  0  0
    1.1490    2.1887   -0.3056 H   0  0  0  0  0  0  0  0  0  0  0  0
    0.7519    1.6766    1.3476 H   0  0  0  0  0  0  0  0  0  0  0  0
    0.2574    0.0019   -1.2101 H   0  0  0  0  0  0  0  0  0  0  0  0
   -0.7205    4.0229   -1.0169 H   0  0  0  0  0  0  0  0  0  0  0  0
   -1.1197    2.6228   -2.0237 H   0  0  0  0  0  0  0  0  0  0  0  0
   -3.6072    3.4650    0.9647 H   0  0  0  0  0  0  0  0  0  0  0  0
   -4.0358    2.0593   -0.0226 H   0  0  0  0  0  0  0  0  0  0  0  0
  1  2  1  0
  2  3  2  0
  3  4  1  0
  4  5  1  0
  5  6  2  0
  3  7  1  0
  7  8  1  0
  8  9  1  0
  9  2  1  0
  1 10  1  0
  1 11  1  0
  1 12  1  0
  4 13  1  0
  4 14  1  0
  5 15  1  0
  7 16  1  0
  7 17  1  0
  9 18  1  0
  9 19  1  0
M  END
$$$$
