gdb 1999	2.9436621	1.7146047	1.6059668	0.4422	73.19	-0.23741	0.0797	0.31711	927.0688	0.159492	-422.547523	-422.540541	-422.539597	-422.578258	29.457
 OpenBabel02181911403D

 19 21  0  0  1  0  0  0  0  0999 V2000
    0.1996    0.0899   -0.0366 O   0  0  0  0  0  0  0  0  0  0  0  0
   -1.0439    0.3315    0.5463 C   0  0  1  0  0  0  0  0  0  0  0  0
   -1.8113    1.5947    0.2906 C   0  0  0  0  0  0  0  0  0  0  0  0
   -2.3081    0.2656   -0.2728 C   0  0  2  0  0  0  0  0  0  0  0  0
   -3.2439   -0.6574    0.5434 C   0  0  2  0  0  0  0  0  0  0  0  0
   -3.6706    0.0419    1.8392 C   0  0  0  0  0  0  0  0  0  0  0  0
   -2.4311    0.1821    2.5665 O   0  0  0  0  0  0  0  0  0  0  0  0
   -1.4280   -0.5024    1.7977 C   0  0  1  0  0  0  0  0  0  0  0  0
   -2.2121   -1.6525    1.1461 C   0  0  0  0  0  0  0  0  0  0  0  0
    0.8502    0.6438    0.4090 H   0  0  0  0  0  0  0  0  0  0  0  0
   -2.3188    2.0893    1.1090 H   0  0  0  0  0  0  0  0  0  0  0  0
   -1.3780    2.2606   -0.4492 H   0  0  0  0  0  0  0  0  0  0  0  0
   -2.2603    0.1321   -1.3472 H   0  0  0  0  0  0  0  0  0  0  0  0
   -4.0698   -1.0830   -0.0266 H   0  0  0  0  0  0  0  0  0  0  0  0
   -4.1155    1.0294    1.6778 H   0  0  0  0  0  0  0  0  0  0  0  0
   -4.3739   -0.5668    2.4220 H   0  0  0  0  0  0  0  0  0  0  0  0
   -0.5912   -0.7460    2.4529 H   0  0  0  0  0  0  0  0  0  0  0  0
   -1.6329   -2.1793    0.3849 H   0  0  0  0  0  0  0  0  0  0  0  0
   -2.6324   -2.3625    1.8647 H   0  0  0  0  0  0  0  0  0  0  0  0
  1 10  1  0  0  0  0
  2  1  1  6  0  0  0
  2  8  1  0  0  0  0
  3  2  1  0  0  0  0
  3 11  1  0  0  0  0
  4 13  1  6  0  0  0
  4  3  1  0  0  0  0
  4  5  1  0  0  0  0
  4  2  1  0  0  0  0
  5 14  1  6  0  0  0
  5  9  1  0  0  0  0
  5  6  1  0  0  0  0
  6 16  1  0  0  0  0
  6  7  1  0  0  0  0
  8 17  1  1  0  0  0
  8  7  1  0  0  0  0
  9  8  1  0  0  0  0
  9 19  1  0  0  0  0
 12  3  1  0  0  0  0
 15  6  1  0  0  0  0
 18  9  1  0  0  0  0
M TOR 0 0 1 2 3
M TOR 1 0 1 2 10
M TOR 2 0 1 2 11
M TOR 3 0 1 3 4
M TOR 4 0 1 3 12
M TOR 5 0 1 7 6
M TOR 6 0 1 7 8
M TOR 7 0 1 7 16
M TOR 8 1 2 3 4
M TOR 9 1 2 3 12
M TOR 10 1 3 2 10
M TOR 11 1 3 2 11
M TOR 12 1 3 4 5
M TOR 13 1 3 4 8
M TOR 14 1 3 4 13
M TOR 15 1 7 6 5
M TOR 16 1 7 8 4
M TOR 17 1 7 8 17
M TOR 18 1 7 8 18
M TOR 19 2 1 0 9
M TOR 20 2 1 7 6
M TOR 21 2 1 7 8
M TOR 22 2 1 7 16
M TOR 23 2 3 1 7
M TOR 24 2 3 4 5
M TOR 25 2 3 4 8
M TOR 26 2 3 4 13
M TOR 27 3 1 0 9
M TOR 28 3 1 7 6
M TOR 29 3 1 7 8
M TOR 30 3 1 7 16
M TOR 31 3 4 5 6
M TOR 32 3 4 5 14
M TOR 33 3 4 5 15
M TOR 34 3 4 8 7
M TOR 35 3 4 8 17
M TOR 36 3 4 8 18
M TOR 37 4 3 1 7
M TOR 38 4 3 2 10
M TOR 39 4 3 2 11
M TOR 40 4 5 6 7
M TOR 41 4 8 7 6
M TOR 42 4 8 7 16
M TOR 43 5 4 3 12
M TOR 44 5 4 8 7
M TOR 45 5 4 8 17
M TOR 46 5 4 8 18
M TOR 47 5 6 7 8
M TOR 48 5 6 7 16
M TOR 49 6 5 4 8
M TOR 50 6 5 4 13
M TOR 51 6 7 8 17
M TOR 52 6 7 8 18
M TOR 53 7 1 0 9
M TOR 54 7 1 2 10
M TOR 55 7 1 2 11
M TOR 56 7 1 3 12
M TOR 57 7 6 5 14
M TOR 58 7 6 5 15
M TOR 59 7 8 4 13
M TOR 60 8 4 3 12
M TOR 61 8 4 5 14
M TOR 62 8 4 5 15
M  END
$$$$
