gdb 5866	4.5256564	0.5652206	0.5362012	2.7377	82.55	-0.24647	0.0303	0.27677	2062.9242	0.154009	-422.503738	-422.493246	-422.492302	-422.541781	36.249
 OpenBabel02181911423D

 19 19  0  0  1  0  0  0  0  0999 V2000
   -0.0696   -0.1045    0.2093 C   0  0  0  0  0  0  0  0  0  0  0  0
    1.3982    0.1715   -0.0443 C   0  0  1  0  0  0  0  0  0  0  0  0
    2.0724    1.2911    0.6468 C   0  0  0  0  0  0  0  0  0  0  0  0
    2.2627   -0.0474    1.0908 O   0  0  0  0  0  0  0  0  0  0  0  0
    1.9151   -0.2818   -1.3152 C   0  0  0  0  0  0  0  0  0  0  0  0
    2.3030   -0.6885   -2.3812 C   0  0  0  0  0  0  0  0  0  0  0  0
    2.8108   -1.1250   -3.6745 C   0  0  0  0  0  0  0  0  0  0  0  0
    3.5254    0.0055   -4.4438 C   0  0  0  0  0  0  0  0  0  0  0  0
    4.0507   -0.4430   -5.6780 O   0  0  0  0  0  0  0  0  0  0  0  0
   -0.3570    0.2665    1.1962 H   0  0  0  0  0  0  0  0  0  0  0  0
   -0.6890    0.3820   -0.5503 H   0  0  0  0  0  0  0  0  0  0  0  0
   -0.2655   -1.1799    0.1694 H   0  0  0  0  0  0  0  0  0  0  0  0
    2.9381    1.7612    0.1837 H   0  0  0  0  0  0  0  0  0  0  0  0
    1.4877    1.9306    1.3080 H   0  0  0  0  0  0  0  0  0  0  0  0
    3.5141   -1.9570   -3.5482 H   0  0  0  0  0  0  0  0  0  0  0  0
    1.9839   -1.5093   -4.2882 H   0  0  0  0  0  0  0  0  0  0  0  0
    2.8388    0.8548   -4.5716 H   0  0  0  0  0  0  0  0  0  0  0  0
    4.3785    0.3597   -3.8583 H   0  0  0  0  0  0  0  0  0  0  0  0
    3.3128   -0.6343   -6.2655 H   0  0  0  0  0  0  0  0  0  0  0  0
  1 10  1  0  0  0  0
  2  5  1  6  0  0  0
  2  1  1  0  0  0  0
  2  3  1  0  0  0  0
  2  4  1  0  0  0  0
  3  4  1  0  0  0  0
  3 14  1  0  0  0  0
  6  5  3  0  0  0  0
  7 15  1  0  0  0  0
  7  6  1  0  0  0  0
  8 18  1  0  0  0  0
  8  7  1  0  0  0  0
  9  8  1  0  0  0  0
 11  1  1  0  0  0  0
 12  1  1  0  0  0  0
 13  3  1  0  0  0  0
 16  7  1  0  0  0  0
 17  8  1  0  0  0  0
 19  9  1  0  0  0  0
M TOR 0 0 1 2 3
M TOR 1 0 1 2 12
M TOR 2 0 1 2 13
M TOR 3 0 1 4 5
M TOR 4 1 3 2 12
M TOR 5 1 3 2 13
M TOR 6 1 4 5 6
M TOR 7 2 1 0 9
M TOR 8 2 1 0 10
M TOR 9 2 1 0 11
M TOR 10 2 1 4 5
M TOR 11 2 3 1 4
M TOR 12 3 1 0 9
M TOR 13 3 1 0 10
M TOR 14 3 1 0 11
M TOR 15 3 1 4 5
M TOR 16 4 1 0 9
M TOR 17 4 1 0 10
M TOR 18 4 1 0 11
M TOR 19 4 1 2 12
M TOR 20 4 1 2 13
M TOR 21 4 5 6 7
M TOR 22 4 5 6 14
M TOR 23 4 5 6 15
M TOR 24 5 6 7 8
M TOR 25 5 6 7 16
M TOR 26 5 6 7 17
M TOR 27 6 7 8 18
M TOR 28 8 7 6 14
M TOR 29 8 7 6 15
M  END
$$$$
