
     RDKit          3D

 19 21  0  0  0  0  0  0  0  0999 V2000
    0.1554   -0.2318   -0.0344 C   0  0  0  0  0  0  0  0  0  0  0  0
    1.5387    0.2590    0.3313 C   0  0  0  0  0  0  0  0  0  0  0  0
    2.3076   -0.8523    0.7248 O   0  0  0  0  0  0  0  0  0  0  0  0
    3.4076   -0.5384    1.5664 C   0  0  0  0  0  0  0  0  0  0  0  0
    4.1732    0.6824    1.0565 C   0  0  0  0  0  0  0  0  0  0  0  0
    3.1557    1.7161    0.5867 C   0  0  0  0  0  0  0  0  0  0  0  0
    1.6905    1.6202    1.1133 C   0  0  0  0  0  0  0  0  0  0  0  0
    1.2377    2.3204   -0.0999 O   0  0  0  0  0  0  0  0  0  0  0  0
    2.2186    1.3302   -0.5867 C   0  0  0  0  0  0  0  0  0  0  0  0
   -0.3260   -0.6836    0.8382 H   0  0  0  0  0  0  0  0  0  0  0  0
   -0.4558    0.5925   -0.4012 H   0  0  0  0  0  0  0  0  0  0  0  0
    0.2299   -1.0027   -0.8075 H   0  0  0  0  0  0  0  0  0  0  0  0
    3.0401   -0.3341    2.5849 H   0  0  0  0  0  0  0  0  0  0  0  0
    4.0303   -1.4358    1.6100 H   0  0  0  0  0  0  0  0  0  0  0  0
    4.8027    1.0837    1.8583 H   0  0  0  0  0  0  0  0  0  0  0  0
    4.8385    0.4140    0.2268 H   0  0  0  0  0  0  0  0  0  0  0  0
    3.5250    2.7410    0.5191 H   0  0  0  0  0  0  0  0  0  0  0  0
    1.2612    1.9454    2.0625 H   0  0  0  0  0  0  0  0  0  0  0  0
    2.4264    1.3041   -1.6578 H   0  0  0  0  0  0  0  0  0  0  0  0
  1  2  1  0
  2  3  1  0
  3  4  1  0
  4  5  1  0
  5  6  1  0
  6  7  1  0
  7  8  1  0
  8  9  1  0
  7  2  1  0
  9  2  1  0
  9  6  1  0
  1 10  1  0
  1 11  1  0
  1 12  1  0
  4 13  1  0
  4 14  1  0
  5 15  1  0
  5 16  1  0
  6 17  1  0
  7 18  1  0
  9 19  1  0
M  END
$$$$
