
     RDKit          3D

 19 21  0  0  0  0  0  0  0  0999 V2000
    0.8361    4.0206   -0.4979 C   0  0  0  0  0  0  0  0  0  0  0  0
    1.1249    3.4914    0.9116 C   0  0  0  0  0  0  0  0  0  0  0  0
   -0.1219    3.1114    1.5287 O   0  0  0  0  0  0  0  0  0  0  0  0
    0.4858    2.2008    0.6186 C   0  0  0  0  0  0  0  0  0  0  0  0
    0.8434    0.7971    0.9875 C   0  0  0  0  0  0  0  0  0  0  0  0
    1.5014    0.1212   -0.2533 C   0  0  0  0  0  0  0  0  0  0  0  0
    1.9410    1.0534   -1.2285 O   0  0  0  0  0  0  0  0  0  0  0  0
    0.8514    1.7421   -1.8293 C   0  0  0  0  0  0  0  0  0  0  0  0
    0.1387    2.6533   -0.8199 C   0  0  0  0  0  0  0  0  0  0  0  0
    0.2201    4.9213   -0.5576 H   0  0  0  0  0  0  0  0  0  0  0  0
    1.7515    4.1602   -1.0802 H   0  0  0  0  0  0  0  0  0  0  0  0
    1.9419    3.7355    1.5814 H   0  0  0  0  0  0  0  0  0  0  0  0
    1.5207    0.8030    1.8470 H   0  0  0  0  0  0  0  0  0  0  0  0
   -0.0501    0.2367    1.2873 H   0  0  0  0  0  0  0  0  0  0  0  0
    2.3859   -0.4494    0.0389 H   0  0  0  0  0  0  0  0  0  0  0  0
    0.7880   -0.5789   -0.7165 H   0  0  0  0  0  0  0  0  0  0  0  0
    1.2694    2.3086   -2.6672 H   0  0  0  0  0  0  0  0  0  0  0  0
    0.1380    1.0080   -2.2395 H   0  0  0  0  0  0  0  0  0  0  0  0
   -0.9323    2.7189   -1.0294 H   0  0  0  0  0  0  0  0  0  0  0  0
  1  2  1  0
  2  3  1  0
  3  4  1  0
  4  5  1  0
  5  6  1  0
  6  7  1  0
  7  8  1  0
  8  9  1  0
  9  1  1  0
  4  2  1  0
  9  4  1  0
  1 10  1  0
  1 11  1  0
  2 12  1  0
  5 13  1  0
  5 14  1  0
  6 15  1  0
  6 16  1  0
  8 17  1  0
  8 18  1  0
  9 19  1  0
M  END
$$$$
