
     RDKit          3D

 19 20  0  0  0  0  0  0  0  0999 V2000
   -2.9651    1.4210   -1.6625 C   0  0  0  0  0  0  0  0  0  0  0  0
   -1.6507    0.7001   -1.3576 C   0  0  0  0  0  0  0  0  0  0  0  0
   -1.7520   -0.8583   -1.1378 C   0  0  0  0  0  0  0  0  0  0  0  0
   -1.0148   -1.0066    0.2156 C   0  0  0  0  0  0  0  0  0  0  0  0
   -1.6496    0.1594    1.0492 C   0  0  0  0  0  0  0  0  0  0  0  0
   -3.0300    0.1897    1.2844 O   0  0  0  0  0  0  0  0  0  0  0  0
   -0.9633    1.0937   -0.0201 C   0  0  0  0  0  0  0  0  0  0  0  0
    0.1268    0.0082    0.0122 C   0  0  0  0  0  0  0  0  0  0  0  0
    1.3207   -0.0277   -0.0078 O   0  0  0  0  0  0  0  0  0  0  0  0
   -3.6724    1.3600   -0.8320 H   0  0  0  0  0  0  0  0  0  0  0  0
   -2.7859    2.4833   -1.8576 H   0  0  0  0  0  0  0  0  0  0  0  0
   -3.4381    0.9960   -2.5550 H   0  0  0  0  0  0  0  0  0  0  0  0
   -0.9603    0.8989   -2.1844 H   0  0  0  0  0  0  0  0  0  0  0  0
   -2.7927   -1.2044   -1.0839 H   0  0  0  0  0  0  0  0  0  0  0  0
   -1.2724   -1.4303   -1.9352 H   0  0  0  0  0  0  0  0  0  0  0  0
   -0.8572   -2.0042    0.6204 H   0  0  0  0  0  0  0  0  0  0  0  0
   -1.1663    0.2713    2.0228 H   0  0  0  0  0  0  0  0  0  0  0  0
   -3.4843   -0.2650    0.5689 H   0  0  0  0  0  0  0  0  0  0  0  0
   -0.7529    2.1452    0.1630 H   0  0  0  0  0  0  0  0  0  0  0  0
  1  2  1  0
  2  3  1  0
  3  4  1  0
  4  5  1  0
  5  6  1  0
  5  7  1  0
  7  8  1  0
  8  9  2  0
  7  2  1  0
  8  4  1  0
  1 10  1  0
  1 11  1  0
  1 12  1  0
  2 13  1  0
  3 14  1  0
  3 15  1  0
  4 16  1  0
  5 17  1  0
  6 18  1  0
  7 19  1  0
M  END
$$$$
