
     RDKit          3D

 19 21  0  0  0  0  0  0  0  0999 V2000
    1.7813    0.1769    3.2641 C   0  0  0  0  0  0  0  0  0  0  0  0
    0.2914    0.1753    3.6407 C   0  0  0  0  0  0  0  0  0  0  0  0
   -0.0069   -0.8054    4.7865 C   0  0  0  0  0  0  0  0  0  0  0  0
   -0.5700   -0.1359    2.4523 C   0  0  0  0  0  0  0  0  0  0  0  0
   -1.9561    0.2056    2.4741 O   0  0  0  0  0  0  0  0  0  0  0  0
   -1.1616    0.6672    1.3789 C   0  0  0  0  0  0  0  0  0  0  0  0
   -0.9878   -0.5341    0.3666 C   0  0  0  0  0  0  0  0  0  0  0  0
   -1.6904   -1.6604    0.8859 O   0  0  0  0  0  0  0  0  0  0  0  0
   -0.4083   -1.3522    1.4296 C   0  0  0  0  0  0  0  0  0  0  0  0
    2.3938    0.4517    4.1281 H   0  0  0  0  0  0  0  0  0  0  0  0
    2.1098   -0.8142    2.9323 H   0  0  0  0  0  0  0  0  0  0  0  0
    1.9909    0.8890    2.4598 H   0  0  0  0  0  0  0  0  0  0  0  0
    0.0119    1.1843    3.9689 H   0  0  0  0  0  0  0  0  0  0  0  0
    0.2440   -1.8331    4.5002 H   0  0  0  0  0  0  0  0  0  0  0  0
    0.5807   -0.5534    5.6747 H   0  0  0  0  0  0  0  0  0  0  0  0
   -1.0664   -0.7799    5.0553 H   0  0  0  0  0  0  0  0  0  0  0  0
   -1.1363    1.7296    1.1684 H   0  0  0  0  0  0  0  0  0  0  0  0
   -0.7893   -0.4872   -0.6966 H   0  0  0  0  0  0  0  0  0  0  0  0
    0.3587   -2.1164    1.4081 H   0  0  0  0  0  0  0  0  0  0  0  0
  1  2  1  0
  2  3  1  0
  2  4  1  0
  4  5  1  0
  5  6  1  0
  6  7  1  0
  7  8  1  0
  8  9  1  0
  6  4  1  0
  9  7  1  0
  9  4  1  0
  1 10  1  0
  1 11  1  0
  1 12  1  0
  2 13  1  0
  3 14  1  0
  3 15  1  0
  3 16  1  0
  6 17  1  0
  7 18  1  0
  9 19  1  0
M  END
$$$$
