
     RDKit          3D

 19 20  0  0  0  0  0  0  0  0999 V2000
   -1.1902    1.8952   -1.3488 C   0  0  0  0  0  0  0  0  0  0  0  0
   -1.0537    1.0788   -0.0719 C   0  0  0  0  0  0  0  0  0  0  0  0
   -1.0653    1.9213    1.1952 C   0  0  0  0  0  0  0  0  0  0  0  0
   -2.0597    0.0065   -0.0115 O   0  0  0  0  0  0  0  0  0  0  0  0
   -1.0712   -1.0204   -0.0496 C   0  0  0  0  0  0  0  0  0  0  0  0
   -1.1552   -2.3062    0.7233 C   0  0  0  0  0  0  0  0  0  0  0  0
   -1.2293   -2.3215   -0.7842 C   0  0  0  0  0  0  0  0  0  0  0  0
    0.0355   -0.0176   -0.1142 C   0  0  0  0  0  0  0  0  0  0  0  0
    1.2301   -0.0431   -0.1726 O   0  0  0  0  0  0  0  0  0  0  0  0
   -1.1976    1.2478   -2.2295 H   0  0  0  0  0  0  0  0  0  0  0  0
   -2.1249    2.4647   -1.3315 H   0  0  0  0  0  0  0  0  0  0  0  0
   -0.3561    2.5976   -1.4396 H   0  0  0  0  0  0  0  0  0  0  0  0
   -0.9858    1.2921    2.0854 H   0  0  0  0  0  0  0  0  0  0  0  0
   -0.2270    2.6246    1.1894 H   0  0  0  0  0  0  0  0  0  0  0  0
   -1.9977    2.4913    1.2578 H   0  0  0  0  0  0  0  0  0  0  0  0
   -0.2518   -2.6579    1.2102 H   0  0  0  0  0  0  0  0  0  0  0  0
   -2.0759   -2.4680    1.2732 H   0  0  0  0  0  0  0  0  0  0  0  0
   -0.3776   -2.6841   -1.3500 H   0  0  0  0  0  0  0  0  0  0  0  0
   -2.1992   -2.4937   -1.2378 H   0  0  0  0  0  0  0  0  0  0  0  0
  1  2  1  0
  2  3  1  0
  2  4  1  0
  4  5  1  0
  5  6  1  0
  6  7  1  0
  5  8  1  0
  8  9  2  0
  8  2  1  0
  7  5  1  0
  1 10  1  0
  1 11  1  0
  1 12  1  0
  3 13  1  0
  3 14  1  0
  3 15  1  0
  6 16  1  0
  6 17  1  0
  7 18  1  0
  7 19  1  0
M  END
$$$$
