
     RDKit          3D

 19 21  0  0  0  0  0  0  0  0999 V2000
   -0.5423    0.7935    0.3061 O   0  0  0  0  0  0  0  0  0  0  0  0
   -1.8371    0.2723    0.3501 C   0  0  0  0  0  0  0  0  0  0  0  0
   -2.9274    0.5097   -0.7604 C   0  0  0  0  0  0  0  0  0  0  0  0
   -3.6057   -0.7569   -0.1377 C   0  0  0  0  0  0  0  0  0  0  0  0
   -2.1257   -1.2277    0.0605 C   0  0  0  0  0  0  0  0  0  0  0  0
   -1.7158   -1.3881   -1.4126 C   0  0  0  0  0  0  0  0  0  0  0  0
   -0.3823   -0.9143   -1.7872 O   0  0  0  0  0  0  0  0  0  0  0  0
   -0.9504    0.1979   -2.5426 C   0  0  0  0  0  0  0  0  0  0  0  0
   -2.3687   -0.1292   -2.0448 C   0  0  0  0  0  0  0  0  0  0  0  0
   -0.0399    0.2273   -0.2980 H   0  0  0  0  0  0  0  0  0  0  0  0
   -2.2625    0.5590    1.3164 H   0  0  0  0  0  0  0  0  0  0  0  0
   -3.4501    1.4619   -0.8479 H   0  0  0  0  0  0  0  0  0  0  0  0
   -4.1159   -0.5644    0.8074 H   0  0  0  0  0  0  0  0  0  0  0  0
   -4.2424   -1.3545   -0.7945 H   0  0  0  0  0  0  0  0  0  0  0  0
   -1.8482   -2.0155    0.7605 H   0  0  0  0  0  0  0  0  0  0  0  0
   -1.9102   -2.3784   -1.8334 H   0  0  0  0  0  0  0  0  0  0  0  0
   -0.5170    1.1569   -2.2468 H   0  0  0  0  0  0  0  0  0  0  0  0
   -0.8087    0.0415   -3.6179 H   0  0  0  0  0  0  0  0  0  0  0  0
   -3.1292   -0.2610   -2.8155 H   0  0  0  0  0  0  0  0  0  0  0  0
  1  2  1  0
  2  3  1  0
  3  4  1  0
  4  5  1  0
  5  6  1  0
  6  7  1  0
  7  8  1  0
  8  9  1  0
  5  2  1  0
  9  6  1  0
  9  3  1  0
  1 10  1  0
  2 11  1  0
  3 12  1  0
  4 13  1  0
  4 14  1  0
  5 15  1  0
  6 16  1  0
  8 17  1  0
  8 18  1  0
  9 19  1  0
M  END
$$$$
