
     RDKit          3D

 19 20  0  0  0  0  0  0  0  0999 V2000
    1.5207    0.0258   -0.0077 C   0  0  0  0  0  0  0  0  0  0  0  0
    0.1069    0.1367    0.0165 O   0  0  0  0  0  0  0  0  0  0  0  0
   -0.3761    0.7209    1.1765 C   0  0  0  0  0  0  0  0  0  0  0  0
   -1.8278    0.5875    1.4052 C   0  0  0  0  0  0  0  0  0  0  0  0
   -2.2198    1.4360    2.6224 C   0  0  0  0  0  0  0  0  0  0  0  0
   -1.2742    0.5352    3.4641 C   0  0  0  0  0  0  0  0  0  0  0  0
   -1.0955    0.4157    4.6450 O   0  0  0  0  0  0  0  0  0  0  0  0
   -0.8471   -0.2684    2.2775 C   0  0  0  0  0  0  0  0  0  0  0  0
   -0.4783   -1.7224    2.2612 C   0  0  0  0  0  0  0  0  0  0  0  0
    1.8935   -0.6225    0.7960 H   0  0  0  0  0  0  0  0  0  0  0  0
    1.7880   -0.4079   -0.9733 H   0  0  0  0  0  0  0  0  0  0  0  0
    1.9978    1.0118    0.0867 H   0  0  0  0  0  0  0  0  0  0  0  0
    0.1441    1.6404    1.4585 H   0  0  0  0  0  0  0  0  0  0  0  0
   -2.4954    0.2244    0.6350 H   0  0  0  0  0  0  0  0  0  0  0  0
   -1.9999    2.5075    2.5787 H   0  0  0  0  0  0  0  0  0  0  0  0
   -3.2556    1.2950    2.9438 H   0  0  0  0  0  0  0  0  0  0  0  0
    0.4093   -1.9019    2.8775 H   0  0  0  0  0  0  0  0  0  0  0  0
   -1.2873   -2.3398    2.6646 H   0  0  0  0  0  0  0  0  0  0  0  0
   -0.2675   -2.0555    1.2422 H   0  0  0  0  0  0  0  0  0  0  0  0
  1  2  1  0
  2  3  1  0
  3  4  1  0
  4  5  1  0
  5  6  1  0
  6  7  2  0
  6  8  1  0
  8  9  1  0
  8  3  1  0
  8  4  1  0
  1 10  1  0
  1 11  1  0
  1 12  1  0
  3 13  1  0
  4 14  1  0
  5 15  1  0
  5 16  1  0
  9 17  1  0
  9 18  1  0
  9 19  1  0
M  END
$$$$
