
     RDKit          3D

 19 20  0  0  0  0  0  0  0  0999 V2000
    1.0698    0.7615    0.5790 O   0  0  0  0  0  0  0  0  0  0  0  0
    0.1725   -0.3291    0.6109 C   0  0  0  0  0  0  0  0  0  0  0  0
   -1.2853    0.1548    0.5876 C   0  0  0  0  0  0  0  0  0  0  0  0
   -1.3635    0.9311   -0.6176 O   0  0  0  0  0  0  0  0  0  0  0  0
   -2.2785   -0.9958    0.6204 C   0  0  0  0  0  0  0  0  0  0  0  0
   -2.9966   -1.0086    1.7451 C   0  0  0  0  0  0  0  0  0  0  0  0
   -2.6770    0.1652    2.6144 C   0  0  0  0  0  0  0  0  0  0  0  0
   -3.0277    1.5061    1.9956 C   0  0  0  0  0  0  0  0  0  0  0  0
   -1.6308    0.9469    1.8531 C   0  0  0  0  0  0  0  0  0  0  0  0
    0.7512    1.3253   -0.1378 H   0  0  0  0  0  0  0  0  0  0  0  0
    0.3307   -1.0096   -0.2406 H   0  0  0  0  0  0  0  0  0  0  0  0
    0.3616   -0.8865    1.5327 H   0  0  0  0  0  0  0  0  0  0  0  0
   -2.1308    1.5080   -0.5428 H   0  0  0  0  0  0  0  0  0  0  0  0
   -2.3677   -1.6873   -0.2092 H   0  0  0  0  0  0  0  0  0  0  0  0
   -3.7606   -1.7354    1.9990 H   0  0  0  0  0  0  0  0  0  0  0  0
   -2.6610    0.0674    3.6936 H   0  0  0  0  0  0  0  0  0  0  0  0
   -3.7097    1.4990    1.1497 H   0  0  0  0  0  0  0  0  0  0  0  0
   -3.1425    2.3575    2.6584 H   0  0  0  0  0  0  0  0  0  0  0  0
   -0.8196    1.4610    2.3522 H   0  0  0  0  0  0  0  0  0  0  0  0
  1  2  1  0
  2  3  1  0
  3  4  1  0
  3  5  1  0
  5  6  2  0
  6  7  1  0
  7  8  1  0
  8  9  1  0
  9  3  1  0
  9  7  1  0
  1 10  1  0
  2 11  1  0
  2 12  1  0
  4 13  1  0
  5 14  1  0
  6 15  1  0
  7 16  1  0
  8 17  1  0
  8 18  1  0
  9 19  1  0
M  END
$$$$
