gdb 3120	1.8852827	1.5132305	1.0749611	3.6979	76.82	-0.23668	-0.02558	0.2111	1201.874	0.154913	-422.538163	-422.528927	-422.527983	-422.572326	34.064
 OpenBabel02181911413D

 19 20  0  0  1  0  0  0  0  0999 V2000
    0.8955   -1.0831   -3.5079 C   0  0  0  0  0  0  0  0  0  0  0  0
    0.5786   -1.3413   -2.0622 C   0  0  2  0  0  0  0  0  0  0  0  0
    0.7938   -2.6786   -1.4013 C   0  0  0  0  0  0  0  0  0  0  0  0
   -0.5897   -2.0890   -1.4089 C   0  0  1  0  0  0  0  0  0  0  0  0
   -0.6843   -1.0372   -0.2957 C   0  0  2  0  0  0  0  0  0  0  0  0
   -1.8945   -0.3414   -0.1808 O   0  0  0  0  0  0  0  0  0  0  0  0
    0.4883   -0.2268   -0.9943 C   0  0  1  0  0  0  0  0  0  0  0  0
    1.7141    0.1231   -0.1980 C   0  0  0  0  0  0  0  0  0  0  0  0
    2.0702    1.2487    0.0509 O   0  0  0  0  0  0  0  0  0  0  0  0
    0.7039   -1.9733   -4.1159 H   0  0  0  0  0  0  0  0  0  0  0  0
    0.2901   -0.2635   -3.9112 H   0  0  0  0  0  0  0  0  0  0  0  0
    1.9494   -0.8119   -3.6416 H   0  0  0  0  0  0  0  0  0  0  0  0
    0.9510   -3.5035   -2.0893 H   0  0  0  0  0  0  0  0  0  0  0  0
    1.3406   -2.7814   -0.4671 H   0  0  0  0  0  0  0  0  0  0  0  0
   -1.4392   -2.5928   -1.8562 H   0  0  0  0  0  0  0  0  0  0  0  0
   -0.4625   -1.4077    0.7105 H   0  0  0  0  0  0  0  0  0  0  0  0
   -2.1487   -0.0261   -1.0555 H   0  0  0  0  0  0  0  0  0  0  0  0
    0.0698    0.6983   -1.4017 H   0  0  0  0  0  0  0  0  0  0  0  0
    2.2985   -0.7496    0.1742 H   0  0  0  0  0  0  0  0  0  0  0  0
  2  1  1  6  0  0  0
  2  4  1  0  0  0  0
  2  3  1  0  0  0  0
  2  7  1  0  0  0  0
  3 14  1  0  0  0  0
  4 15  1  6  0  0  0
  4  3  1  0  0  0  0
  4  5  1  0  0  0  0
  5  6  1  0  0  0  0
  5 16  1  1  0  0  0
  7 18  1  6  0  0  0
  7  5  1  0  0  0  0
  7  8  1  0  0  0  0
  8  9  2  0  0  0  0
  8 19  1  0  0  0  0
 10  1  1  0  0  0  0
 11  1  1  0  0  0  0
 12  1  1  0  0  0  0
 13  3  1  0  0  0  0
 17  6  1  0  0  0  0
M TOR 0 0 1 2 3
M TOR 1 0 1 2 12
M TOR 2 0 1 2 13
M TOR 3 0 1 3 4
M TOR 4 0 1 3 14
M TOR 5 0 1 6 4
M TOR 6 0 1 6 7
M TOR 7 0 1 6 17
M TOR 8 1 2 3 4
M TOR 9 1 2 3 14
M TOR 10 1 3 2 12
M TOR 11 1 3 2 13
M TOR 12 1 3 4 5
M TOR 13 1 3 4 6
M TOR 14 1 3 4 15
M TOR 15 1 6 4 5
M TOR 16 1 6 4 15
M TOR 17 1 6 7 8
M TOR 18 1 6 7 18
M TOR 19 2 1 0 9
M TOR 20 2 1 0 10
M TOR 21 2 1 0 11
M TOR 22 2 1 6 4
M TOR 23 2 1 6 7
M TOR 24 2 1 6 17
M TOR 25 2 3 1 6
M TOR 26 2 3 4 5
M TOR 27 2 3 4 6
M TOR 28 2 3 4 15
M TOR 29 3 1 0 9
M TOR 30 3 1 0 10
M TOR 31 3 1 0 11
M TOR 32 3 1 6 7
M TOR 33 3 1 6 17
M TOR 34 3 4 5 16
M TOR 35 3 4 6 7
M TOR 36 3 4 6 17
M TOR 37 4 3 2 12
M TOR 38 4 3 2 13
M TOR 39 4 6 7 8
M TOR 40 4 6 7 18
M TOR 41 5 4 3 14
M TOR 42 5 4 6 7
M TOR 43 5 4 6 17
M TOR 44 6 1 0 9
M TOR 45 6 1 0 10
M TOR 46 6 1 0 11
M TOR 47 6 1 2 12
M TOR 48 6 1 2 13
M TOR 49 6 1 3 14
M TOR 50 6 4 3 14
M TOR 51 6 4 5 16
M TOR 52 7 6 4 15
M TOR 53 8 7 6 17
M  END
$$$$
