
     RDKit          3D

 19 20  0  0  0  0  0  0  0  0999 V2000
    1.3911   -0.1298    0.8353 O   0  0  0  0  0  0  0  0  0  0  0  0
    0.5169    0.0438    0.0263 C   0  0  0  0  0  0  0  0  0  0  0  0
    0.3255    1.3088   -0.7886 C   0  0  0  0  0  0  0  0  0  0  0  0
   -0.9651    2.0426   -0.3582 C   0  0  0  0  0  0  0  0  0  0  0  0
   -1.3324    3.0978   -1.3998 C   0  0  0  0  0  0  0  0  0  0  0  0
   -1.6638    2.4958   -2.6425 O   0  0  0  0  0  0  0  0  0  0  0  0
   -0.6542    1.6989   -3.1939 C   0  0  0  0  0  0  0  0  0  0  0  0
   -0.7630    0.2138   -2.9822 C   0  0  0  0  0  0  0  0  0  0  0  0
    0.3298    1.0044   -2.2835 C   0  0  0  0  0  0  0  0  0  0  0  0
   -0.2425   -0.7459   -0.1804 H   0  0  0  0  0  0  0  0  0  0  0  0
    1.1794    1.9584   -0.5674 H   0  0  0  0  0  0  0  0  0  0  0  0
   -1.8032    1.3414   -0.2603 H   0  0  0  0  0  0  0  0  0  0  0  0
   -0.8120    2.5058    0.6219 H   0  0  0  0  0  0  0  0  0  0  0  0
   -2.2229    3.6553   -1.0973 H   0  0  0  0  0  0  0  0  0  0  0  0
   -0.5048    3.8153   -1.5199 H   0  0  0  0  0  0  0  0  0  0  0  0
   -0.2992    2.0723   -4.1519 H   0  0  0  0  0  0  0  0  0  0  0  0
   -1.6224   -0.1117   -2.4069 H   0  0  0  0  0  0  0  0  0  0  0  0
   -0.4688   -0.4612   -3.7780 H   0  0  0  0  0  0  0  0  0  0  0  0
    1.3259    0.8638   -2.6923 H   0  0  0  0  0  0  0  0  0  0  0  0
  1  2  2  0
  2  3  1  0
  3  4  1  0
  4  5  1  0
  5  6  1  0
  6  7  1  0
  7  8  1  0
  8  9  1  0
  9  3  1  0
  9  7  1  0
  2 10  1  0
  3 11  1  0
  4 12  1  0
  4 13  1  0
  5 14  1  0
  5 15  1  0
  7 16  1  0
  8 17  1  0
  8 18  1  0
  9 19  1  0
M  END
$$$$
