gdb 6039	3.4840773	0.8120608	0.7507238	1.3771	78.5	-0.2551	0.02	0.2751	1573.339	0.154415	-422.484158	-422.474327	-422.473383	-422.520372	34.425
 OpenBabel02181911423D

 19 19  0  0  1  0  0  0  0  0999 V2000
    1.4998    0.6720    0.0448 C   0  0  0  0  0  0  0  0  0  0  0  0
    0.1163    0.8648    0.2209 O   0  0  0  0  0  0  0  0  0  0  0  0
   -0.5271   -0.2503    0.7934 C   0  0  0  0  0  0  0  0  0  0  0  0
   -1.9995    0.0902    0.9333 C   0  0  2  0  0  0  0  0  0  0  0  0
   -2.3987    1.0493    2.0704 C   0  0  0  0  0  0  0  0  0  0  0  0
   -3.2000   -0.1617    2.6225 C   0  0  1  0  0  0  0  0  0  0  0  0
   -2.7301   -1.0044    1.5353 O   0  0  0  0  0  0  0  0  0  0  0  0
   -2.8418   -0.6610    3.9393 C   0  0  0  0  0  0  0  0  0  0  0  0
   -2.5443   -1.0586    5.0341 C   0  0  0  0  0  0  0  0  0  0  0  0
    1.7111   -0.1746   -0.6273 H   0  0  0  0  0  0  0  0  0  0  0  0
    1.9039    1.5851   -0.3991 H   0  0  0  0  0  0  0  0  0  0  0  0
    2.0110    0.4847    1.0022 H   0  0  0  0  0  0  0  0  0  0  0  0
   -0.4167   -1.1472    0.1605 H   0  0  0  0  0  0  0  0  0  0  0  0
   -0.1058   -0.4921    1.7835 H   0  0  0  0  0  0  0  0  0  0  0  0
   -2.4095    0.3540   -0.0493 H   0  0  0  0  0  0  0  0  0  0  0  0
   -1.5727    1.3731    2.7037 H   0  0  0  0  0  0  0  0  0  0  0  0
   -3.0031    1.9098    1.7845 H   0  0  0  0  0  0  0  0  0  0  0  0
   -4.2883   -0.0338    2.5602 H   0  0  0  0  0  0  0  0  0  0  0  0
   -2.2850   -1.4158    6.0001 H   0  0  0  0  0  0  0  0  0  0  0  0
  1  2  1  0  0  0  0
  1 12  1  0  0  0  0
  2  3  1  0  0  0  0
  3  4  1  0  0  0  0
  3 14  1  0  0  0  0
  4 15  1  6  0  0  0
  4  7  1  0  0  0  0
  4  5  1  0  0  0  0
  5  6  1  0  0  0  0
  5 16  1  0  0  0  0
  6 18  1  6  0  0  0
  6  8  1  0  0  0  0
  7  6  1  0  0  0  0
  8  9  3  0  0  0  0
  9 19  1  0  0  0  0
 10  1  1  0  0  0  0
 11  1  1  0  0  0  0
 13  3  1  0  0  0  0
 17  5  1  0  0  0  0
M TOR 0 0 1 2 3
M TOR 1 0 1 2 12
M TOR 2 0 1 2 13
M TOR 3 1 2 3 4
M TOR 4 1 2 3 6
M TOR 5 1 2 3 14
M TOR 6 2 1 0 9
M TOR 7 2 1 0 10
M TOR 8 2 1 0 11
M TOR 9 2 3 4 5
M TOR 10 2 3 4 15
M TOR 11 2 3 4 16
M TOR 12 2 3 6 5
M TOR 13 3 4 5 6
M TOR 14 3 4 5 7
M TOR 15 3 4 5 17
M TOR 16 3 6 5 7
M TOR 17 3 6 5 17
M TOR 18 4 3 2 12
M TOR 19 4 3 2 13
M TOR 20 4 5 7 8
M TOR 21 5 4 3 14
M TOR 22 5 6 3 14
M TOR 23 5 7 8 18
M TOR 24 6 3 2 12
M TOR 25 6 3 2 13
M TOR 26 6 3 4 15
M TOR 27 6 3 4 16
M TOR 28 6 5 4 15
M TOR 29 6 5 4 16
M TOR 30 6 5 7 8
M TOR 31 7 5 4 15
M TOR 32 7 5 4 16
M TOR 33 8 7 5 17
M  END
$$$$
