
     RDKit          3D

 19 20  0  0  0  0  0  0  0  0999 V2000
    1.8411    2.4616   -0.7837 O   0  0  0  0  0  0  0  0  0  0  0  0
    2.4030    1.1938   -0.8025 C   0  0  0  0  0  0  0  0  0  0  0  0
    3.7557    1.0079   -1.4843 C   0  0  0  0  0  0  0  0  0  0  0  0
    2.5223    0.4992   -2.1515 C   0  0  0  0  0  0  0  0  0  0  0  0
    2.2014   -0.9486   -2.5615 C   0  0  0  0  0  0  0  0  0  0  0  0
    1.8514   -0.4137   -3.9829 C   0  0  0  0  0  0  0  0  0  0  0  0
    1.9086    1.0481   -3.4445 C   0  0  0  0  0  0  0  0  0  0  0  0
    2.1091    0.3928    0.3961 C   0  0  0  0  0  0  0  0  0  0  0  0
    1.4106    0.8197    1.2918 O   0  0  0  0  0  0  0  0  0  0  0  0
    1.3478    2.4973    0.0517 H   0  0  0  0  0  0  0  0  0  0  0  0
    4.2014    1.9247   -1.8566 H   0  0  0  0  0  0  0  0  0  0  0  0
    4.4529    0.2955   -1.0512 H   0  0  0  0  0  0  0  0  0  0  0  0
    3.0284   -1.6611   -2.4986 H   0  0  0  0  0  0  0  0  0  0  0  0
    1.3384   -1.3708   -2.0390 H   0  0  0  0  0  0  0  0  0  0  0  0
    2.6362   -0.6232   -4.7130 H   0  0  0  0  0  0  0  0  0  0  0  0
    0.8958   -0.7386   -4.3985 H   0  0  0  0  0  0  0  0  0  0  0  0
    2.5170    1.7583   -4.0092 H   0  0  0  0  0  0  0  0  0  0  0  0
    0.9240    1.4925   -3.2778 H   0  0  0  0  0  0  0  0  0  0  0  0
    2.5581   -0.6199    0.4344 H   0  0  0  0  0  0  0  0  0  0  0  0
  1  2  1  0
  2  3  1  0
  3  4  1  0
  4  5  1  0
  5  6  1  0
  6  7  1  0
  2  8  1  0
  8  9  2  0
  4  2  1  0
  7  4  1  0
  1 10  1  0
  3 11  1  0
  3 12  1  0
  5 13  1  0
  5 14  1  0
  6 15  1  0
  6 16  1  0
  7 17  1  0
  7 18  1  0
  8 19  1  0
M  END
$$$$
