
     RDKit          3D

 19 20  0  0  0  0  0  0  0  0999 V2000
    1.1762    0.6441   -0.6300 O   0  0  0  0  0  0  0  0  0  0  0  0
    0.0348    0.3322    0.1451 C   0  0  0  0  0  0  0  0  0  0  0  0
   -1.2849    0.6922   -0.5734 C   0  0  0  0  0  0  0  0  0  0  0  0
   -1.3514    2.1798   -0.8068 C   0  0  0  0  0  0  0  0  0  0  0  0
   -1.2281    2.7668   -1.9973 C   0  0  0  0  0  0  0  0  0  0  0  0
   -1.0767    2.0273   -3.2988 C   0  0  0  0  0  0  0  0  0  0  0  0
   -1.3106    0.5391   -3.1737 C   0  0  0  0  0  0  0  0  0  0  0  0
   -2.5816    0.1386   -2.6493 O   0  0  0  0  0  0  0  0  0  0  0  0
   -1.4144   -0.1030   -1.8582 C   0  0  0  0  0  0  0  0  0  0  0  0
    1.1047    1.5759   -0.8701 H   0  0  0  0  0  0  0  0  0  0  0  0
    0.0775   -0.7471    0.3284 H   0  0  0  0  0  0  0  0  0  0  0  0
    0.0601    0.8333    1.1259 H   0  0  0  0  0  0  0  0  0  0  0  0
   -2.1039    0.3964    0.0995 H   0  0  0  0  0  0  0  0  0  0  0  0
   -1.4736    2.7956    0.0820 H   0  0  0  0  0  0  0  0  0  0  0  0
   -1.2623    3.8518   -2.0625 H   0  0  0  0  0  0  0  0  0  0  0  0
   -1.7692    2.4423   -4.0443 H   0  0  0  0  0  0  0  0  0  0  0  0
   -0.0709    2.1908   -3.7122 H   0  0  0  0  0  0  0  0  0  0  0  0
   -0.9710   -0.0605   -4.0185 H   0  0  0  0  0  0  0  0  0  0  0  0
   -1.1435   -1.1566   -1.7746 H   0  0  0  0  0  0  0  0  0  0  0  0
  1  2  1  0
  2  3  1  0
  3  4  1  0
  4  5  2  0
  5  6  1  0
  6  7  1  0
  7  8  1  0
  8  9  1  0
  9  3  1  0
  9  7  1  0
  1 10  1  0
  2 11  1  0
  2 12  1  0
  3 13  1  0
  4 14  1  0
  5 15  1  0
  6 16  1  0
  6 17  1  0
  7 18  1  0
  9 19  1  0
M  END
$$$$
