gdb 3314	3.7589297	1.1132674	0.9261408	0.9213	78.91	-0.22454	0.01835	0.24289	1283.2485	0.156485	-422.541552	-422.53288	-422.531935	-422.574533	32.909
 OpenBabel02181911413D

 19 20  0  0  1  0  0  0  0  0999 V2000
    1.2751    0.8506   -0.0277 C   0  0  0  0  0  0  0  0  0  0  0  0
   -0.0128    0.0923    0.1062 C   0  0  0  0  0  0  0  0  0  0  0  0
   -0.0952   -1.2367    0.1972 C   0  0  0  0  0  0  0  0  0  0  0  0
   -1.4034   -1.9044    0.3926 C   0  0  2  0  0  0  0  0  0  0  0  0
   -2.3272   -2.2032   -0.7683 C   0  0  1  0  0  0  0  0  0  0  0  0
   -3.0638   -3.3833   -0.6677 O   0  0  0  0  0  0  0  0  0  0  0  0
   -2.6257   -1.0504    0.1591 C   0  0  2  0  0  0  0  0  0  0  0  0
   -2.4295    0.2353   -0.3508 O   0  0  0  0  0  0  0  0  0  0  0  0
   -1.2857    0.9132    0.1556 C   0  0  0  0  0  0  0  0  0  0  0  0
    1.3885    1.5866    0.7792 H   0  0  0  0  0  0  0  0  0  0  0  0
    2.1382    0.1805    0.0053 H   0  0  0  0  0  0  0  0  0  0  0  0
    1.3121    1.4140   -0.9692 H   0  0  0  0  0  0  0  0  0  0  0  0
    0.7983   -1.8546    0.1490 H   0  0  0  0  0  0  0  0  0  0  0  0
   -1.4714   -2.6259    1.2025 H   0  0  0  0  0  0  0  0  0  0  0  0
   -1.9731   -1.9288   -1.7619 H   0  0  0  0  0  0  0  0  0  0  0  0
   -3.9217   -3.2336   -1.0802 H   0  0  0  0  0  0  0  0  0  0  0  0
   -3.4716   -1.1506    0.8380 H   0  0  0  0  0  0  0  0  0  0  0  0
   -1.1828    1.8096   -0.4658 H   0  0  0  0  0  0  0  0  0  0  0  0
   -1.4660    1.2586    1.1885 H   0  0  0  0  0  0  0  0  0  0  0  0
  1 11  1  0  0  0  0
  1  2  1  0  0  0  0
  1 10  1  0  0  0  0
  2  9  1  0  0  0  0
  2  3  2  0  0  0  0
  3  4  1  0  0  0  0
  4 14  1  1  0  0  0
  5 15  1  6  0  0  0
  5  6  1  0  0  0  0
  5  7  1  0  0  0  0
  5  4  1  0  0  0  0
  7  4  1  0  0  0  0
  7 17  1  1  0  0  0
  8  9  1  0  0  0  0
  8  7  1  0  0  0  0
  9 19  1  0  0  0  0
 12  1  1  0  0  0  0
 13  3  1  0  0  0  0
 16  6  1  0  0  0  0
 18  9  1  0  0  0  0
M TOR 0 0 1 2 3
M TOR 1 0 1 2 12
M TOR 2 0 1 8 7
M TOR 3 0 1 8 17
M TOR 4 0 1 8 18
M TOR 5 1 2 3 4
M TOR 6 1 2 3 6
M TOR 7 1 2 3 13
M TOR 8 1 8 7 6
M TOR 9 2 1 0 9
M TOR 10 2 1 0 10
M TOR 11 2 1 0 11
M TOR 12 2 1 8 7
M TOR 13 2 1 8 17
M TOR 14 2 1 8 18
M TOR 15 2 3 4 5
M TOR 16 2 3 4 6
M TOR 17 2 3 4 14
M TOR 18 2 3 6 7
M TOR 19 2 3 6 16
M TOR 20 3 2 1 8
M TOR 21 3 4 5 15
M TOR 22 3 4 6 7
M TOR 23 3 4 6 16
M TOR 24 3 6 4 5
M TOR 25 3 6 4 14
M TOR 26 3 6 7 8
M TOR 27 4 3 2 12
M TOR 28 4 6 3 13
M TOR 29 4 6 7 8
M TOR 30 5 4 3 13
M TOR 31 5 4 6 7
M TOR 32 5 4 6 16
M TOR 33 6 3 2 12
M TOR 34 6 4 5 15
M TOR 35 6 7 8 17
M TOR 36 6 7 8 18
M TOR 37 7 6 3 13
M TOR 38 7 6 4 14
M TOR 39 8 1 0 9
M TOR 40 8 1 0 10
M TOR 41 8 1 0 11
M TOR 42 8 1 2 12
M TOR 43 8 7 6 16
M  END
$$$$
