
     RDKit          3D

 19 20  0  0  0  0  0  0  0  0999 V2000
   -0.7938    2.1739   -0.4247 C   0  0  0  0  0  0  0  0  0  0  0  0
    0.2541    1.0893   -0.4867 C   0  0  0  0  0  0  0  0  0  0  0  0
    0.0434   -0.0941   -0.5309 O   0  0  0  0  0  0  0  0  0  0  0  0
    1.4966    1.6353   -0.4691 O   0  0  0  0  0  0  0  0  0  0  0  0
    2.5757    0.7187   -0.5119 C   0  0  0  0  0  0  0  0  0  0  0  0
    3.8814    1.3936   -0.7783 C   0  0  0  0  0  0  0  0  0  0  0  0
    5.0186    0.3728   -0.6689 C   0  0  0  0  0  0  0  0  0  0  0  0
    4.3226   -0.5021   -1.7683 C   0  0  0  0  0  0  0  0  0  0  0  0
    3.2004    0.5356   -1.8623 C   0  0  0  0  0  0  0  0  0  0  0  0
   -0.6874    2.7432    0.5033 H   0  0  0  0  0  0  0  0  0  0  0  0
   -0.6601    2.8756   -1.2527 H   0  0  0  0  0  0  0  0  0  0  0  0
   -1.7844    1.7236   -0.4714 H   0  0  0  0  0  0  0  0  0  0  0  0
    2.4664   -0.1076    0.1861 H   0  0  0  0  0  0  0  0  0  0  0  0
    3.9655    2.4708   -0.7033 H   0  0  0  0  0  0  0  0  0  0  0  0
    5.9781    0.7699   -1.0058 H   0  0  0  0  0  0  0  0  0  0  0  0
    5.1582   -0.0872    0.3151 H   0  0  0  0  0  0  0  0  0  0  0  0
    4.9199   -0.5711   -2.6796 H   0  0  0  0  0  0  0  0  0  0  0  0
    4.0150   -1.5112   -1.4755 H   0  0  0  0  0  0  0  0  0  0  0  0
    2.6738    0.8465   -2.7561 H   0  0  0  0  0  0  0  0  0  0  0  0
  1  2  1  0
  2  3  2  0
  2  4  1  0
  4  5  1  0
  5  6  1  0
  6  7  1  0
  7  8  1  0
  8  9  1  0
  9  5  1  0
  9  6  1  0
  1 10  1  0
  1 11  1  0
  1 12  1  0
  5 13  1  0
  6 14  1  0
  7 15  1  0
  7 16  1  0
  8 17  1  0
  8 18  1  0
  9 19  1  0
M  END
$$$$
