gdb 2188	2.7471113	1.9630282	1.4797332	1.9396	73.93	-0.24268	0.07315	0.31583	942.4031	0.15789	-422.537111	-422.529743	-422.528799	-422.568626	29.431
 OpenBabel02181911413D

 19 21  0  0  1  0  0  0  0  0999 V2000
   -0.0314    0.0125    0.0856 C   0  0  0  0  0  0  0  0  0  0  0  0
    1.4776    0.0060   -0.0405 C   0  0  1  0  0  0  0  0  0  0  0  0
    2.1895    1.3945   -0.2157 C   0  0  0  0  0  0  0  0  0  0  0  0
    3.0095    0.8085   -1.3804 C   0  0  1  0  0  0  0  0  0  0  0  0
    4.1622    0.0664   -0.9166 O   0  0  0  0  0  0  0  0  0  0  0  0
    3.4101   -1.1725   -0.8583 C   0  0  1  0  0  0  0  0  0  0  0  0
    3.0926   -1.6032    0.5656 C   0  0  0  0  0  0  0  0  0  0  0  0
    2.0286   -0.7726    1.0243 O   0  0  0  0  0  0  0  0  0  0  0  0
    2.1402   -0.4759   -1.3706 C   0  0  1  0  0  0  0  0  0  0  0  0
   -0.3289    0.4506    1.0437 H   0  0  0  0  0  0  0  0  0  0  0  0
   -0.4907    0.5981   -0.7166 H   0  0  0  0  0  0  0  0  0  0  0  0
   -0.4237   -1.0085    0.0430 H   0  0  0  0  0  0  0  0  0  0  0  0
    1.4930    2.1682   -0.5548 H   0  0  0  0  0  0  0  0  0  0  0  0
    2.7576    1.7557    0.6436 H   0  0  0  0  0  0  0  0  0  0  0  0
    3.2401    1.4251   -2.2510 H   0  0  0  0  0  0  0  0  0  0  0  0
    3.8798   -1.9548   -1.4627 H   0  0  0  0  0  0  0  0  0  0  0  0
    2.7807   -2.6584    0.5876 H   0  0  0  0  0  0  0  0  0  0  0  0
    3.9623   -1.4827    1.2215 H   0  0  0  0  0  0  0  0  0  0  0  0
    1.5440   -0.8775   -2.1864 H   0  0  0  0  0  0  0  0  0  0  0  0
  1 10  1  0  0  0  0
  2  1  1  6  0  0  0
  2  8  1  0  0  0  0
  3  2  1  0  0  0  0
  3 14  1  0  0  0  0
  4 15  1  6  0  0  0
  4  9  1  0  0  0  0
  4  5  1  0  0  0  0
  4  3  1  0  0  0  0
  5  6  1  0  0  0  0
  6 16  1  6  0  0  0
  6  7  1  0  0  0  0
  7 17  1  0  0  0  0
  7  8  1  0  0  0  0
  7 18  1  0  0  0  0
  9 19  1  6  0  0  0
  9  6  1  0  0  0  0
  9  2  1  0  0  0  0
 11  1  1  0  0  0  0
 12  1  1  0  0  0  0
 13  3  1  0  0  0  0
M TOR 0 0 1 2 3
M TOR 1 0 1 2 12
M TOR 2 0 1 2 13
M TOR 3 0 1 7 6
M TOR 4 0 1 8 3
M TOR 5 0 1 8 5
M TOR 6 0 1 8 18
M TOR 7 1 2 3 4
M TOR 8 1 2 3 8
M TOR 9 1 2 3 14
M TOR 10 1 7 6 5
M TOR 11 1 7 6 16
M TOR 12 1 7 6 17
M TOR 13 1 8 3 4
M TOR 14 1 8 3 14
M TOR 15 1 8 5 4
M TOR 16 1 8 5 6
M TOR 17 1 8 5 15
M TOR 18 2 1 0 9
M TOR 19 2 1 0 10
M TOR 20 2 1 0 11
M TOR 21 2 1 7 6
M TOR 22 2 1 8 5
M TOR 23 2 1 8 18
M TOR 24 2 3 4 5
M TOR 25 2 3 8 5
M TOR 26 2 3 8 18
M TOR 27 3 2 1 7
M TOR 28 3 4 5 6
M TOR 29 3 4 5 8
M TOR 30 3 4 5 15
M TOR 31 3 8 1 7
M TOR 32 3 8 5 6
M TOR 33 3 8 5 15
M TOR 34 4 3 2 12
M TOR 35 4 3 2 13
M TOR 36 4 3 8 18
M TOR 37 4 5 6 7
M TOR 38 4 5 6 16
M TOR 39 4 5 6 17
M TOR 40 4 5 8 18
M TOR 41 5 4 3 14
M TOR 42 5 8 1 7
M TOR 43 5 8 3 14
M TOR 44 6 5 8 18
M TOR 45 6 7 1 8
M TOR 46 7 1 0 9
M TOR 47 7 1 0 10
M TOR 48 7 1 0 11
M TOR 49 7 1 2 12
M TOR 50 7 1 2 13
M TOR 51 7 1 8 18
M TOR 52 7 6 5 8
M TOR 53 7 6 5 15
M TOR 54 8 1 0 9
M TOR 55 8 1 0 10
M TOR 56 8 1 0 11
M TOR 57 8 1 2 12
M TOR 58 8 1 2 13
M TOR 59 8 3 2 12
M TOR 60 8 3 2 13
M TOR 61 8 5 6 16
M TOR 62 8 5 6 17
M  END
$$$$
