
     RDKit          3D

 19 20  0  0  0  0  0  0  0  0999 V2000
   -4.2785   -0.4405   -0.0053 C   0  0  0  0  0  0  0  0  0  0  0  0
   -2.7620   -0.3784    0.0011 C   0  0  0  0  0  0  0  0  0  0  0  0
   -1.9470   -1.1086   -1.1051 C   0  0  0  0  0  0  0  0  0  0  0  0
   -0.8263   -1.2486   -0.0351 C   0  0  0  0  0  0  0  0  0  0  0  0
   -1.9521   -1.2092    1.0380 C   0  0  0  0  0  0  0  0  0  0  0  0
   -0.0502    0.0483    0.0279 C   0  0  0  0  0  0  0  0  0  0  0  0
    1.1449    0.1456    0.0338 O   0  0  0  0  0  0  0  0  0  0  0  0
   -0.8204    1.1714    0.0781 O   0  0  0  0  0  0  0  0  0  0  0  0
   -2.2567    1.0626    0.0697 C   0  0  0  0  0  0  0  0  0  0  0  0
   -4.7008    0.0085    0.9011 H   0  0  0  0  0  0  0  0  0  0  0  0
   -4.6968    0.0918   -0.8674 H   0  0  0  0  0  0  0  0  0  0  0  0
   -4.6214   -1.4786   -0.0550 H   0  0  0  0  0  0  0  0  0  0  0  0
   -2.3814   -2.0813   -1.3501 H   0  0  0  0  0  0  0  0  0  0  0  0
   -1.7187   -0.5659   -2.0267 H   0  0  0  0  0  0  0  0  0  0  0  0
   -0.1346   -2.0877   -0.0729 H   0  0  0  0  0  0  0  0  0  0  0  0
   -2.3873   -2.2005    1.1887 H   0  0  0  0  0  0  0  0  0  0  0  0
   -1.7282   -0.7552    2.0074 H   0  0  0  0  0  0  0  0  0  0  0  0
   -2.6169    1.5553    0.9809 H   0  0  0  0  0  0  0  0  0  0  0  0
   -2.6128    1.6382   -0.7932 H   0  0  0  0  0  0  0  0  0  0  0  0
  1  2  1  0
  2  3  1  0
  3  4  1  0
  4  5  1  0
  4  6  1  0
  6  7  2  0
  6  8  1  0
  8  9  1  0
  5  2  1  0
  9  2  1  0
  1 10  1  0
  1 11  1  0
  1 12  1  0
  3 13  1  0
  3 14  1  0
  4 15  1  0
  5 16  1  0
  5 17  1  0
  9 18  1  0
  9 19  1  0
M  END
$$$$
