gdb 1619	2.0749541	1.6744136	1.2507533	2.23	75.69	-0.2539	-0.03753	0.21637	1094.0777	0.154358	-422.532826	-422.523622	-422.522678	-422.566667	34.048
 OpenBabel02181911403D

 19 20  0  0  1  0  0  0  0  0999 V2000
    5.3902   -2.2085    1.3461 C   0  0  0  0  0  0  0  0  0  0  0  0
    4.8919   -0.8199    0.9839 C   0  0  0  0  0  0  0  0  0  0  0  0
    5.6142    0.3800    1.5483 C   0  0  0  0  0  0  0  0  0  0  0  0
    5.7370    0.0463    0.0814 C   0  0  0  0  0  0  0  0  0  0  0  0
    3.3988   -0.7194    0.8255 C   0  0  1  0  0  0  0  0  0  0  0  0
    2.5220   -0.4214    1.9831 C   0  0  0  0  0  0  0  0  0  0  0  0
    2.7859    0.5721    1.0067 O   0  0  0  0  0  0  0  0  0  0  0  0
    2.7368   -1.4630   -0.3016 C   0  0  0  0  0  0  0  0  0  0  0  0
    3.2712   -2.2805   -1.0047 O   0  0  0  0  0  0  0  0  0  0  0  0
    4.9619   -2.5471    2.2972 H   0  0  0  0  0  0  0  0  0  0  0  0
    5.1278   -2.9333    0.5722 H   0  0  0  0  0  0  0  0  0  0  0  0
    6.4787   -2.2032    1.4567 H   0  0  0  0  0  0  0  0  0  0  0  0
    5.0256    1.2505    1.8116 H   0  0  0  0  0  0  0  0  0  0  0  0
    6.4643    0.1875    2.1939 H   0  0  0  0  0  0  0  0  0  0  0  0
    5.2292    0.6981   -0.6213 H   0  0  0  0  0  0  0  0  0  0  0  0
    6.6697   -0.3683   -0.2850 H   0  0  0  0  0  0  0  0  0  0  0  0
    1.4969   -0.7887    2.0131 H   0  0  0  0  0  0  0  0  0  0  0  0
    3.0034   -0.2745    2.9483 H   0  0  0  0  0  0  0  0  0  0  0  0
    1.6727   -1.1667   -0.4408 H   0  0  0  0  0  0  0  0  0  0  0  0
  1 12  1  0  0  0  0
  1 10  1  0  0  0  0
  2  1  1  0  0  0  0
  2  3  1  0  0  0  0
  3 13  1  0  0  0  0
  3 14  1  0  0  0  0
  4  2  1  0  0  0  0
  4  3  1  0  0  0  0
  5  8  1  6  0  0  0
  5  2  1  0  0  0  0
  5  7  1  0  0  0  0
  5  6  1  0  0  0  0
  6 17  1  0  0  0  0
  6 18  1  0  0  0  0
  7  6  1  0  0  0  0
  9  8  2  0  0  0  0
 11  1  1  0  0  0  0
 15  4  1  0  0  0  0
 16  4  1  0  0  0  0
 19  8  1  0  0  0  0
M TOR 0 0 1 2 3
M TOR 1 0 1 2 12
M TOR 2 0 1 2 13
M TOR 3 0 1 3 14
M TOR 4 0 1 3 15
M TOR 5 0 1 4 5
M TOR 6 0 1 4 6
M TOR 7 0 1 4 7
M TOR 8 1 2 3 14
M TOR 9 1 2 3 15
M TOR 10 1 3 2 12
M TOR 11 1 3 2 13
M TOR 12 1 4 5 6
M TOR 13 1 4 5 16
M TOR 14 1 4 5 17
M TOR 15 1 4 7 8
M TOR 16 1 4 7 18
M TOR 17 2 1 0 9
M TOR 18 2 1 0 10
M TOR 19 2 1 0 11
M TOR 20 2 1 4 5
M TOR 21 2 1 4 6
M TOR 22 2 1 4 7
M TOR 23 2 3 1 4
M TOR 24 3 1 0 9
M TOR 25 3 1 0 10
M TOR 26 3 1 0 11
M TOR 27 3 1 4 5
M TOR 28 3 1 4 6
M TOR 29 3 1 4 7
M TOR 30 4 1 0 9
M TOR 31 4 1 0 10
M TOR 32 4 1 0 11
M TOR 33 4 1 2 12
M TOR 34 4 1 2 13
M TOR 35 4 1 3 14
M TOR 36 4 1 3 15
M TOR 37 4 6 5 16
M TOR 38 4 6 5 17
M TOR 39 5 4 7 8
M TOR 40 5 4 7 18
M TOR 41 5 6 4 7
M TOR 42 6 4 7 8
M TOR 43 6 4 7 18
M TOR 44 7 4 5 16
M TOR 45 7 4 5 17
M  END
$$$$
