gdb 3256	3.3605346	1.6244734	1.5615396	2.0439	73.15	-0.24354	0.09176	0.3353	947.8582	0.159783	-422.564312	-422.557518	-422.556574	-422.595107	28.063
 OpenBabel02181911413D

 19 21  0  0  1  0  0  0  0  0999 V2000
    3.1992    0.9936   -0.0338 C   0  0  0  0  0  0  0  0  0  0  0  0
    2.8086   -0.4798   -0.0265 C   0  0  2  0  0  0  0  0  0  0  0  0
    1.6886   -0.8646   -1.0297 C   0  0  1  0  0  0  0  0  0  0  0  0
    1.6352   -2.2983   -1.1500 O   0  0  0  0  0  0  0  0  0  0  0  0
    0.9830   -2.7201    0.0415 C   0  0  2  0  0  0  0  0  0  0  0  0
   -0.2562   -1.8198    0.1053 C   0  0  0  0  0  0  0  0  0  0  0  0
    0.6080   -0.5697    0.0745 C   0  0  1  0  0  0  0  0  0  0  0  0
    1.7856   -0.8799    1.0699 C   0  0  1  0  0  0  0  0  0  0  0  0
    1.7426   -2.3153    1.1738 O   0  0  0  0  0  0  0  0  0  0  0  0
    3.8361    1.2319    0.8246 H   0  0  0  0  0  0  0  0  0  0  0  0
    3.7557    1.2444   -0.9431 H   0  0  0  0  0  0  0  0  0  0  0  0
    2.3262    1.6539    0.0105 H   0  0  0  0  0  0  0  0  0  0  0  0
    3.6883   -1.1270   -0.0719 H   0  0  0  0  0  0  0  0  0  0  0  0
    1.6505   -0.4160   -2.0244 H   0  0  0  0  0  0  0  0  0  0  0  0
    0.8815   -3.8034    0.0383 H   0  0  0  0  0  0  0  0  0  0  0  0
   -0.9050   -1.9340   -0.7653 H   0  0  0  0  0  0  0  0  0  0  0  0
   -0.8220   -1.9471    1.0304 H   0  0  0  0  0  0  0  0  0  0  0  0
    0.1520    0.4151    0.1028 H   0  0  0  0  0  0  0  0  0  0  0  0
    1.8397   -0.4458    2.0704 H   0  0  0  0  0  0  0  0  0  0  0  0
  1  2  1  0  0  0  0
  1 12  1  0  0  0  0
  1 10  1  0  0  0  0
  2 13  1  6  0  0  0
  2  8  1  0  0  0  0
  3 14  1  6  0  0  0
  3  2  1  0  0  0  0
  3  7  1  0  0  0  0
  4  3  1  0  0  0  0
  4  5  1  0  0  0  0
  5 15  1  1  0  0  0
  5  6  1  0  0  0  0
  5  9  1  0  0  0  0
  6 17  1  0  0  0  0
  7 18  1  1  0  0  0
  7  6  1  0  0  0  0
  7  8  1  0  0  0  0
  8  9  1  0  0  0  0
  8 19  1  1  0  0  0
 11  1  1  0  0  0  0
 16  6  1  0  0  0  0
M TOR 0 0 1 2 3
M TOR 1 0 1 2 6
M TOR 2 0 1 2 13
M TOR 3 0 1 7 6
M TOR 4 0 1 7 8
M TOR 5 0 1 7 18
M TOR 6 1 2 3 4
M TOR 7 1 2 6 5
M TOR 8 1 2 6 7
M TOR 9 1 2 6 17
M TOR 10 1 7 6 5
M TOR 11 1 7 6 17
M TOR 12 1 7 8 4
M TOR 13 2 1 0 9
M TOR 14 2 1 0 10
M TOR 15 2 1 0 11
M TOR 16 2 1 7 8
M TOR 17 2 1 7 18
M TOR 18 2 3 4 5
M TOR 19 2 3 4 8
M TOR 20 2 3 4 14
M TOR 21 2 6 5 4
M TOR 22 2 6 5 15
M TOR 23 2 6 5 16
M TOR 24 2 6 7 8
M TOR 25 2 6 7 18
M TOR 26 3 2 1 7
M TOR 27 3 2 1 12
M TOR 28 3 2 6 5
M TOR 29 3 2 6 7
M TOR 30 3 2 6 17
M TOR 31 3 4 5 6
M TOR 32 3 4 5 15
M TOR 33 3 4 5 16
M TOR 34 3 4 8 7
M TOR 35 4 3 2 6
M TOR 36 4 3 2 13
M TOR 37 4 5 6 7
M TOR 38 4 5 6 17
M TOR 39 4 8 7 6
M TOR 40 4 8 7 18
M TOR 41 5 4 8 7
M TOR 42 5 6 2 13
M TOR 43 5 6 7 8
M TOR 44 5 6 7 18
M TOR 45 6 2 1 12
M TOR 46 6 5 4 8
M TOR 47 6 5 4 14
M TOR 48 6 7 1 12
M TOR 49 7 1 0 9
M TOR 50 7 1 0 10
M TOR 51 7 1 0 11
M TOR 52 7 1 2 13
M TOR 53 7 6 2 13
M TOR 54 7 6 5 15
M TOR 55 7 6 5 16
M TOR 56 7 8 4 14
M TOR 57 8 4 5 15
M TOR 58 8 4 5 16
M TOR 59 8 7 1 12
M TOR 60 8 7 6 17
M  END
$$$$
