
     RDKit          3D

 19 21  0  0  0  0  0  0  0  0999 V2000
    0.1749    0.0961    0.3936 C   0  0  0  0  0  0  0  0  0  0  0  0
    1.0836   -0.4061   -0.7106 C   0  0  0  0  0  0  0  0  0  0  0  0
    2.4821   -0.1002   -0.4657 O   0  0  0  0  0  0  0  0  0  0  0  0
    2.5785    0.7007   -1.6592 C   0  0  0  0  0  0  0  0  0  0  0  0
    1.1193    0.3990   -2.0301 C   0  0  0  0  0  0  0  0  0  0  0  0
    0.2370    1.5404   -2.1722 O   0  0  0  0  0  0  0  0  0  0  0  0
   -0.0921    1.1338   -3.5065 C   0  0  0  0  0  0  0  0  0  0  0  0
   -0.7869   -0.1880   -3.4990 C   0  0  0  0  0  0  0  0  0  0  0  0
    0.7279   -0.1276   -3.4020 C   0  0  0  0  0  0  0  0  0  0  0  0
    0.4646   -0.3611    1.3447 H   0  0  0  0  0  0  0  0  0  0  0  0
    0.2390    1.1826    0.4890 H   0  0  0  0  0  0  0  0  0  0  0  0
   -0.8667   -0.1692    0.1856 H   0  0  0  0  0  0  0  0  0  0  0  0
    0.9493   -1.4854   -0.8678 H   0  0  0  0  0  0  0  0  0  0  0  0
    2.7694    1.7592   -1.4455 H   0  0  0  0  0  0  0  0  0  0  0  0
    3.3382    0.3228   -2.3555 H   0  0  0  0  0  0  0  0  0  0  0  0
   -0.1755    1.9021   -4.2652 H   0  0  0  0  0  0  0  0  0  0  0  0
   -1.3910   -0.4720   -2.6420 H   0  0  0  0  0  0  0  0  0  0  0  0
   -1.1596   -0.5296   -4.4599 H   0  0  0  0  0  0  0  0  0  0  0  0
    1.3919   -0.6076   -4.1078 H   0  0  0  0  0  0  0  0  0  0  0  0
  1  2  1  0
  2  3  1  0
  3  4  1  0
  4  5  1  0
  5  6  1  0
  6  7  1  0
  7  8  1  0
  8  9  1  0
  5  2  1  0
  9  5  1  0
  9  7  1  0
  1 10  1  0
  1 11  1  0
  1 12  1  0
  2 13  1  0
  4 14  1  0
  4 15  1  0
  7 16  1  0
  8 17  1  0
  8 18  1  0
  9 19  1  0
M  END
$$$$
