gdb 362	5.1809024	0.8709595	0.8052099	1.9885	75.54	-0.23637	0.07495	0.31132	1418.5417	0.157327	-422.477091	-422.469007	-422.468063	-422.510796	29.601
 OpenBabel02181911403D

 19 21  0  0  1  0  0  0  0  0999 V2000
   -0.8797    1.3374   -0.6929 C   0  0  0  0  0  0  0  0  0  0  0  0
   -0.7366   -0.0126   -1.2177 O   0  0  0  0  0  0  0  0  0  0  0  0
    0.5058   -0.1568   -0.5289 C   0  0  2  0  0  0  0  0  0  0  0  0
    0.4854    1.2651   -0.0184 C   0  0  1  0  0  0  0  0  0  0  0  0
    1.5248    0.8212   -1.0371 C   0  0  1  0  0  0  0  0  0  0  0  0
    2.9401    0.6856   -0.5495 C   0  0  0  0  0  0  0  0  0  0  0  0
    3.8957    1.8939   -0.7143 C   0  0  0  0  0  0  0  0  0  0  0  0
    4.8577    1.0924   -1.4274 O   0  0  0  0  0  0  0  0  0  0  0  0
    3.9626   -0.0369   -1.4609 C   0  0  0  0  0  0  0  0  0  0  0  0
   -1.0198    2.0810   -1.4865 H   0  0  0  0  0  0  0  0  0  0  0  0
   -1.7168    1.3847    0.0126 H   0  0  0  0  0  0  0  0  0  0  0  0
    0.7251   -1.1106   -0.0615 H   0  0  0  0  0  0  0  0  0  0  0  0
    0.7453    1.6757    0.9482 H   0  0  0  0  0  0  0  0  0  0  0  0
    1.4153    1.1593   -2.0675 H   0  0  0  0  0  0  0  0  0  0  0  0
    2.9515    0.2928    0.4719 H   0  0  0  0  0  0  0  0  0  0  0  0
    3.4931    2.7054   -1.3366 H   0  0  0  0  0  0  0  0  0  0  0  0
    4.3155    2.3238    0.2026 H   0  0  0  0  0  0  0  0  0  0  0  0
    3.5961   -0.2426   -2.4762 H   0  0  0  0  0  0  0  0  0  0  0  0
    4.4287   -0.9447   -1.0605 H   0  0  0  0  0  0  0  0  0  0  0  0
  1  4  1  0  0  0  0
  1 11  1  0  0  0  0
  2  1  1  0  0  0  0
  2  3  1  0  0  0  0
  3 12  1  1  0  0  0
  3  4  1  0  0  0  0
  4 13  1  1  0  0  0
  5 14  1  6  0  0  0
  5  6  1  0  0  0  0
  5  3  1  0  0  0  0
  5  4  1  0  0  0  0
  6 15  1  0  0  0  0
  7  6  1  0  0  0  0
  7 17  1  0  0  0  0
  8  7  1  0  0  0  0
  9  8  1  0  0  0  0
  9 19  1  0  0  0  0
  9  6  1  0  0  0  0
 10  1  1  0  0  0  0
 16  7  1  0  0  0  0
 18  9  1  0  0  0  0
M TOR 0 0 1 2 3
M TOR 1 0 1 2 4
M TOR 2 0 1 2 11
M TOR 3 0 3 2 4
M TOR 4 0 3 2 11
M TOR 5 0 3 4 5
M TOR 6 0 3 4 13
M TOR 7 1 0 3 4
M TOR 8 1 0 3 12
M TOR 9 1 2 3 4
M TOR 10 1 2 3 12
M TOR 11 1 2 4 5
M TOR 12 1 2 4 13
M TOR 13 2 1 0 9
M TOR 14 2 1 0 10
M TOR 15 2 3 0 9
M TOR 16 2 3 0 10
M TOR 17 2 3 4 5
M TOR 18 2 3 4 13
M TOR 19 2 4 3 12
M TOR 20 2 4 5 6
M TOR 21 2 4 5 8
M TOR 22 2 4 5 14
M TOR 23 3 4 2 11
M TOR 24 3 4 5 6
M TOR 25 3 4 5 8
M TOR 26 3 4 5 14
M TOR 27 4 3 0 9
M TOR 28 4 3 0 10
M TOR 29 4 5 6 7
M TOR 30 4 5 6 15
M TOR 31 4 5 6 16
M TOR 32 4 5 8 7
M TOR 33 4 5 8 17
M TOR 34 4 5 8 18
M TOR 35 5 4 2 11
M TOR 36 5 4 3 12
M TOR 37 5 6 7 8
M TOR 38 6 5 4 13
M TOR 39 6 5 8 17
M TOR 40 6 5 8 18
M TOR 41 6 7 8 17
M TOR 42 6 7 8 18
M TOR 43 7 6 5 14
M TOR 44 7 8 5 14
M TOR 45 8 5 4 13
M TOR 46 8 5 6 15
M TOR 47 8 5 6 16
M TOR 48 8 7 6 15
M TOR 49 8 7 6 16
M  END
$$$$
