gdb 4925	2.2665473	1.0912436	0.8491622	3.0098	80.6	-0.24909	0.03746	0.28655	1427.8111	0.154995	-422.50689	-422.496687	-422.495743	-422.543688	35.079
 OpenBabel02181911413D

 19 19  0  0  0  0  0  0  0  0999 V2000
    1.5420   -0.0007    0.0732 C   0  0  0  0  0  0  0  0  0  0  0  0
    0.0857   -0.0113    0.0642 C   0  0  0  0  0  0  0  0  0  0  0  0
   -1.1199   -0.0088    0.0312 C   0  0  0  0  0  0  0  0  0  0  0  0
   -2.5717   -0.0242    0.0429 C   0  0  0  0  0  0  0  0  0  0  0  0
   -3.0961   -0.9805    1.1288 C   0  0  0  0  0  0  0  0  0  0  0  0
   -2.6817   -0.5989    2.4225 O   0  0  0  0  0  0  0  0  0  0  0  0
   -3.3251   -0.2005   -1.3059 C   0  0  0  0  0  0  0  0  0  0  0  0
   -4.1497    0.9469   -1.0373 O   0  0  0  0  0  0  0  0  0  0  0  0
   -3.3101    1.3449    0.0651 C   0  0  0  0  0  0  0  0  0  0  0  0
    1.9296    0.7637    0.7555 H   0  0  0  0  0  0  0  0  0  0  0  0
    1.9467   -0.9674    0.3920 H   0  0  0  0  0  0  0  0  0  0  0  0
    1.9406    0.2132   -0.9245 H   0  0  0  0  0  0  0  0  0  0  0  0
   -4.1905   -0.9505    1.1302 H   0  0  0  0  0  0  0  0  0  0  0  0
   -2.7831   -2.0076    0.8831 H   0  0  0  0  0  0  0  0  0  0  0  0
   -1.7175   -0.5613    2.4079 H   0  0  0  0  0  0  0  0  0  0  0  0
   -2.6910   -0.0614   -2.1902 H   0  0  0  0  0  0  0  0  0  0  0  0
   -3.9114   -1.1209   -1.4158 H   0  0  0  0  0  0  0  0  0  0  0  0
   -2.6719    2.1989   -0.1916 H   0  0  0  0  0  0  0  0  0  0  0  0
   -3.8786    1.5639    0.9745 H   0  0  0  0  0  0  0  0  0  0  0  0
  1 11  1  0  0  0  0
  1 10  1  0  0  0  0
  2  1  1  0  0  0  0
  3  4  1  0  0  0  0
  3  2  3  0  0  0  0
  4  9  1  0  0  0  0
  4  5  1  0  0  0  0
  5 13  1  0  0  0  0
  5  6  1  0  0  0  0
  7  8  1  0  0  0  0
  7  4  1  0  0  0  0
  8  9  1  0  0  0  0
  9 19  1  0  0  0  0
 12  1  1  0  0  0  0
 14  5  1  0  0  0  0
 15  6  1  0  0  0  0
 16  7  1  0  0  0  0
 17  7  1  0  0  0  0
 18  9  1  0  0  0  0
M TOR 0 0 1 2 3
M TOR 1 1 2 3 4
M TOR 2 1 2 3 6
M TOR 3 1 2 3 8
M TOR 4 2 1 0 9
M TOR 5 2 1 0 10
M TOR 6 2 1 0 11
M TOR 7 2 3 4 5
M TOR 8 2 3 4 12
M TOR 9 2 3 4 13
M TOR 10 2 3 6 7
M TOR 11 2 3 6 15
M TOR 12 2 3 6 16
M TOR 13 2 3 8 7
M TOR 14 2 3 8 17
M TOR 15 2 3 8 18
M TOR 16 3 4 5 14
M TOR 17 3 6 7 8
M TOR 18 4 3 6 7
M TOR 19 4 3 6 15
M TOR 20 4 3 6 16
M TOR 21 4 3 8 7
M TOR 22 4 3 8 17
M TOR 23 4 3 8 18
M TOR 24 5 4 3 6
M TOR 25 5 4 3 8
M TOR 26 6 3 4 12
M TOR 27 6 3 4 13
M TOR 28 6 3 8 17
M TOR 29 6 3 8 18
M TOR 30 6 7 8 17
M TOR 31 6 7 8 18
M TOR 32 8 3 4 12
M TOR 33 8 3 4 13
M TOR 34 8 3 6 15
M TOR 35 8 3 6 16
M TOR 36 8 7 6 15
M TOR 37 8 7 6 16
M  END
$$$$
