
     RDKit          3D

 19 19  0  0  0  0  0  0  0  0999 V2000
    1.4530    0.7744    0.0826 C   0  0  0  0  0  0  0  0  0  0  0  0
    0.0454    0.2465    0.0214 C   0  0  0  0  0  0  0  0  0  0  0  0
   -1.0582    0.9588   -0.2893 C   0  0  0  0  0  0  0  0  0  0  0  0
   -2.4386    0.3307   -0.2717 C   0  0  0  0  0  0  0  0  0  0  0  0
   -2.4847   -0.9254    0.3728 O   0  0  0  0  0  0  0  0  0  0  0  0
   -1.4476   -1.7779   -0.0652 C   0  0  0  0  0  0  0  0  0  0  0  0
   -0.0883   -1.2214    0.3561 C   0  0  0  0  0  0  0  0  0  0  0  0
   -1.0409    2.3730   -0.6893 C   0  0  0  0  0  0  0  0  0  0  0  0
   -2.0448    2.9874   -0.9894 O   0  0  0  0  0  0  0  0  0  0  0  0
    1.8977    0.5259    1.0544 H   0  0  0  0  0  0  0  0  0  0  0  0
    2.0746    0.2798   -0.6744 H   0  0  0  0  0  0  0  0  0  0  0  0
    1.5377    1.8509   -0.0589 H   0  0  0  0  0  0  0  0  0  0  0  0
   -3.1306    0.9870    0.2625 H   0  0  0  0  0  0  0  0  0  0  0  0
   -2.8171    0.2522   -1.3055 H   0  0  0  0  0  0  0  0  0  0  0  0
   -1.6316   -2.7571    0.3853 H   0  0  0  0  0  0  0  0  0  0  0  0
   -1.4816   -1.8971   -1.1613 H   0  0  0  0  0  0  0  0  0  0  0  0
    0.0530   -1.3530    1.4383 H   0  0  0  0  0  0  0  0  0  0  0  0
    0.7213   -1.7854   -0.1259 H   0  0  0  0  0  0  0  0  0  0  0  0
   -0.0530    2.8738   -0.7174 H   0  0  0  0  0  0  0  0  0  0  0  0
  1  2  1  0
  2  3  2  0
  3  4  1  0
  4  5  1  0
  5  6  1  0
  6  7  1  0
  3  8  1  0
  8  9  2  0
  7  2  1  0
  1 10  1  0
  1 11  1  0
  1 12  1  0
  4 13  1  0
  4 14  1  0
  6 15  1  0
  6 16  1  0
  7 17  1  0
  7 18  1  0
  8 19  1  0
M  END
$$$$
