
     RDKit          3D

 19 21  0  0  0  0  0  0  0  0999 V2000
    0.3638    0.5761    0.1827 C   0  0  0  0  0  0  0  0  0  0  0  0
    0.8777   -0.6801   -0.5031 C   0  0  0  0  0  0  0  0  0  0  0  0
    2.3017   -0.5737   -0.7739 O   0  0  0  0  0  0  0  0  0  0  0  0
    2.8183   -1.7389   -0.1548 C   0  0  0  0  0  0  0  0  0  0  0  0
    2.1213   -1.8693    1.2399 C   0  0  0  0  0  0  0  0  0  0  0  0
    2.3897   -3.3160    1.6325 C   0  0  0  0  0  0  0  0  0  0  0  0
    2.1751   -3.9851    0.3692 O   0  0  0  0  0  0  0  0  0  0  0  0
    1.8382   -2.9030   -0.4822 C   0  0  0  0  0  0  0  0  0  0  0  0
    0.8582   -1.9747    0.3081 C   0  0  0  0  0  0  0  0  0  0  0  0
    0.8317    0.7193    1.1607 H   0  0  0  0  0  0  0  0  0  0  0  0
    0.5845    1.4537   -0.4320 H   0  0  0  0  0  0  0  0  0  0  0  0
   -0.7213    0.5199    0.3205 H   0  0  0  0  0  0  0  0  0  0  0  0
    0.3528   -0.8097   -1.4603 H   0  0  0  0  0  0  0  0  0  0  0  0
    3.8965   -1.8115   -0.2932 H   0  0  0  0  0  0  0  0  0  0  0  0
    2.2231   -1.0980    2.0020 H   0  0  0  0  0  0  0  0  0  0  0  0
    3.4157   -3.4899    1.9794 H   0  0  0  0  0  0  0  0  0  0  0  0
    1.6936   -3.7056    2.3856 H   0  0  0  0  0  0  0  0  0  0  0  0
    1.6437   -3.2503   -1.4961 H   0  0  0  0  0  0  0  0  0  0  0  0
   -0.0996   -2.3439    0.6751 H   0  0  0  0  0  0  0  0  0  0  0  0
  1  2  1  0
  2  3  1  0
  3  4  1  0
  4  5  1  0
  5  6  1  0
  6  7  1  0
  7  8  1  0
  8  9  1  0
  9  2  1  0
  8  4  1  0
  9  5  1  0
  1 10  1  0
  1 11  1  0
  1 12  1  0
  2 13  1  0
  4 14  1  0
  5 15  1  0
  6 16  1  0
  6 17  1  0
  8 18  1  0
  9 19  1  0
M  END
$$$$
