
     RDKit          3D

 19 21  0  0  0  0  0  0  0  0999 V2000
   -1.0141   -1.2728    0.3994 C   0  0  0  0  0  0  0  0  0  0  0  0
   -0.9268   -0.2128   -0.6607 C   0  0  0  0  0  0  0  0  0  0  0  0
   -2.1242    0.5285   -0.8334 O   0  0  0  0  0  0  0  0  0  0  0  0
   -2.4183    0.6955   -2.2005 C   0  0  0  0  0  0  0  0  0  0  0  0
   -1.6122    1.6870   -2.9977 C   0  0  0  0  0  0  0  0  0  0  0  0
   -1.2516    0.2120   -3.0242 C   0  0  0  0  0  0  0  0  0  0  0  0
   -0.2713   -0.3516   -2.0222 C   0  0  0  0  0  0  0  0  0  0  0  0
    0.3574    0.5321   -0.9705 C   0  0  0  0  0  0  0  0  0  0  0  0
    1.5649    0.0414   -0.4599 O   0  0  0  0  0  0  0  0  0  0  0  0
   -1.3273   -0.8365    1.3544 H   0  0  0  0  0  0  0  0  0  0  0  0
   -1.7428   -2.0425    0.1262 H   0  0  0  0  0  0  0  0  0  0  0  0
   -0.0389   -1.7453    0.5378 H   0  0  0  0  0  0  0  0  0  0  0  0
   -3.4601    0.5078   -2.4378 H   0  0  0  0  0  0  0  0  0  0  0  0
   -2.0778    2.0851   -3.8937 H   0  0  0  0  0  0  0  0  0  0  0  0
   -0.9770    2.3933   -2.4773 H   0  0  0  0  0  0  0  0  0  0  0  0
   -1.3906   -0.3418   -3.9445 H   0  0  0  0  0  0  0  0  0  0  0  0
    0.2764   -1.2498   -2.2819 H   0  0  0  0  0  0  0  0  0  0  0  0
    0.3072    1.6137   -1.0840 H   0  0  0  0  0  0  0  0  0  0  0  0
    1.6417    0.3364    0.4541 H   0  0  0  0  0  0  0  0  0  0  0  0
  1  2  1  0
  2  3  1  0
  3  4  1  0
  4  5  1  0
  5  6  1  0
  6  7  1  0
  7  8  1  0
  8  9  1  0
  7  2  1  0
  8  2  1  0
  6  4  1  0
  1 10  1  0
  1 11  1  0
  1 12  1  0
  4 13  1  0
  5 14  1  0
  5 15  1  0
  6 16  1  0
  7 17  1  0
  8 18  1  0
  9 19  1  0
M  END
$$$$
