
     RDKit          3D

 19 21  0  0  0  0  0  0  0  0999 V2000
   -0.1113    0.1618    0.0320 C   0  0  0  0  0  0  0  0  0  0  0  0
    1.3872    0.0667   -0.0127 C   0  0  0  0  0  0  0  0  0  0  0  0
    1.9292   -0.0617   -1.3507 O   0  0  0  0  0  0  0  0  0  0  0  0
    2.8346    1.0476   -1.1536 C   0  0  0  0  0  0  0  0  0  0  0  0
    2.4459    1.1854    0.3233 C   0  0  0  0  0  0  0  0  0  0  0  0
    3.1971    0.1948    1.2379 C   0  0  0  0  0  0  0  0  0  0  0  0
    2.6351    0.1171    2.6667 C   0  0  0  0  0  0  0  0  0  0  0  0
    1.6269   -0.8473    2.2803 O   0  0  0  0  0  0  0  0  0  0  0  0
    2.1294   -0.9050    0.9312 C   0  0  0  0  0  0  0  0  0  0  0  0
   -0.4542    0.1893    1.0694 H   0  0  0  0  0  0  0  0  0  0  0  0
   -0.4673    1.0538   -0.4921 H   0  0  0  0  0  0  0  0  0  0  0  0
   -0.5518   -0.7159   -0.4545 H   0  0  0  0  0  0  0  0  0  0  0  0
    3.8770    0.7786   -1.3665 H   0  0  0  0  0  0  0  0  0  0  0  0
    2.5543    1.9049   -1.7793 H   0  0  0  0  0  0  0  0  0  0  0  0
    2.2156    2.1781    0.7117 H   0  0  0  0  0  0  0  0  0  0  0  0
    4.2733    0.0842    1.1044 H   0  0  0  0  0  0  0  0  0  0  0  0
    3.3255   -0.3087    3.4056 H   0  0  0  0  0  0  0  0  0  0  0  0
    2.1985    1.0377    3.0744 H   0  0  0  0  0  0  0  0  0  0  0  0
    2.3157   -1.9216    0.5756 H   0  0  0  0  0  0  0  0  0  0  0  0
  1  2  1  0
  2  3  1  0
  3  4  1  0
  4  5  1  0
  5  6  1  0
  6  7  1  0
  7  8  1  0
  8  9  1  0
  5  2  1  0
  9  6  1  0
  9  2  1  0
  1 10  1  0
  1 11  1  0
  1 12  1  0
  4 13  1  0
  4 14  1  0
  5 15  1  0
  6 16  1  0
  7 17  1  0
  7 18  1  0
  9 19  1  0
M  END
$$$$
