
     RDKit          3D

 19 21  0  0  0  0  0  0  0  0999 V2000
    0.0085    0.0159    0.0318 C   0  0  0  0  0  0  0  0  0  0  0  0
    1.5211    0.0628    0.0158 C   0  0  0  0  0  0  0  0  0  0  0  0
    2.2674   -0.9337   -0.8348 C   0  0  0  0  0  0  0  0  0  0  0  0
    2.2908   -1.0500    0.6839 C   0  0  0  0  0  0  0  0  0  0  0  0
    3.7725   -0.8025    0.9666 C   0  0  0  0  0  0  0  0  0  0  0  0
    4.4854   -1.9873    0.6012 O   0  0  0  0  0  0  0  0  0  0  0  0
    4.5230   -1.9452   -0.8383 C   0  0  0  0  0  0  0  0  0  0  0  0
    3.7386   -0.6441   -1.1399 C   0  0  0  0  0  0  0  0  0  0  0  0
    4.1514    0.1480   -0.0124 O   0  0  0  0  0  0  0  0  0  0  0  0
   -0.3887    0.4423    0.9591 H   0  0  0  0  0  0  0  0  0  0  0  0
   -0.4121    0.5844   -0.8047 H   0  0  0  0  0  0  0  0  0  0  0  0
   -0.3608   -1.0123   -0.0456 H   0  0  0  0  0  0  0  0  0  0  0  0
    1.9530    1.0565    0.0867 H   0  0  0  0  0  0  0  0  0  0  0  0
    1.7290   -1.6423   -1.4535 H   0  0  0  0  0  0  0  0  0  0  0  0
    1.7833   -1.8471    1.2130 H   0  0  0  0  0  0  0  0  0  0  0  0
    4.0782   -0.4841    1.9626 H   0  0  0  0  0  0  0  0  0  0  0  0
    5.5646   -1.8910   -1.1740 H   0  0  0  0  0  0  0  0  0  0  0  0
    4.0476   -2.8376   -1.2592 H   0  0  0  0  0  0  0  0  0  0  0  0
    3.9844   -0.1323   -2.0697 H   0  0  0  0  0  0  0  0  0  0  0  0
  1  2  1  0
  2  3  1  0
  3  4  1  0
  4  5  1  0
  5  6  1  0
  6  7  1  0
  7  8  1  0
  8  9  1  0
  4  2  1  0
  9  5  1  0
  8  3  1  0
  1 10  1  0
  1 11  1  0
  1 12  1  0
  2 13  1  0
  3 14  1  0
  4 15  1  0
  5 16  1  0
  7 17  1  0
  7 18  1  0
  8 19  1  0
M  END
$$$$
