gdb 3047	2.5178448	1.8679367	1.4567871	2.2019	74.74	-0.23209	0.06253	0.29462	964.1744	0.158295	-422.49414	-422.486704	-422.48576	-422.52556	30.23
 OpenBabel02181911413D

 19 21  0  0  1  0  0  0  0  0999 V2000
   -0.7303    0.1997    0.4302 O   0  0  0  0  0  0  0  0  0  0  0  0
   -2.1326    0.3074    0.4347 C   0  0  2  0  0  0  0  0  0  0  0  0
   -2.9058    0.3522   -0.9096 C   0  0  2  0  0  0  0  0  0  0  0  0
   -2.4569    1.8618   -1.0204 C   0  0  0  0  0  0  0  0  0  0  0  0
   -2.7214    1.7581    0.5165 C   0  0  2  0  0  0  0  0  0  0  0  0
   -2.9083    2.4336    1.8963 C   0  0  0  0  0  0  0  0  0  0  0  0
   -4.1704    1.4963    2.0724 C   0  0  0  0  0  0  0  0  0  0  0  0
   -4.1966    1.4327    0.5087 C   0  0  2  0  0  0  0  0  0  0  0  0
   -4.2711    0.3383   -0.4236 O   0  0  0  0  0  0  0  0  0  0  0  0
   -0.3461    1.0322    0.1395 H   0  0  0  0  0  0  0  0  0  0  0  0
   -2.5027   -0.4462    1.1319 H   0  0  0  0  0  0  0  0  0  0  0  0
   -2.7814   -0.3672   -1.7168 H   0  0  0  0  0  0  0  0  0  0  0  0
   -1.4214    1.9451   -1.3572 H   0  0  0  0  0  0  0  0  0  0  0  0
   -3.0885    2.5512   -1.5847 H   0  0  0  0  0  0  0  0  0  0  0  0
   -2.0920    2.3276    2.6134 H   0  0  0  0  0  0  0  0  0  0  0  0
   -3.1965    3.4861    1.8322 H   0  0  0  0  0  0  0  0  0  0  0  0
   -3.9166    0.5525    2.5549 H   0  0  0  0  0  0  0  0  0  0  0  0
   -5.0485    1.9264    2.5571 H   0  0  0  0  0  0  0  0  0  0  0  0
   -4.8276    2.2519    0.1406 H   0  0  0  0  0  0  0  0  0  0  0  0
  1  2  1  0  0  0  0
  2  5  1  0  0  0  0
  2 11  1  1  0  0  0
  3 12  1  6  0  0  0
  3  9  1  0  0  0  0
  3  2  1  0  0  0  0
  4  3  1  0  0  0  0
  5  4  1  6  0  0  0
  5  6  1  0  0  0  0
  6  7  1  0  0  0  0
  6 15  1  0  0  0  0
  7 17  1  0  0  0  0
  7 18  1  0  0  0  0
  8 19  1  6  0  0  0
  8  5  1  0  0  0  0
  8  7  1  0  0  0  0
  9  8  1  0  0  0  0
 10  1  1  0  0  0  0
 13  4  1  0  0  0  0
 14  4  1  0  0  0  0
 16  6  1  0  0  0  0
M TOR 0 0 1 2 3
M TOR 1 0 1 2 8
M TOR 2 0 1 2 11
M TOR 3 0 1 4 3
M TOR 4 0 1 4 5
M TOR 5 0 1 4 7
M TOR 6 1 2 3 4
M TOR 7 1 2 3 12
M TOR 8 1 2 3 13
M TOR 9 1 2 8 7
M TOR 10 1 4 3 12
M TOR 11 1 4 3 13
M TOR 12 1 4 5 6
M TOR 13 1 4 5 14
M TOR 14 1 4 5 15
M TOR 15 1 4 7 6
M TOR 16 1 4 7 8
M TOR 17 1 4 7 18
M TOR 18 2 1 0 9
M TOR 19 2 1 4 5
M TOR 20 2 1 4 7
M TOR 21 2 3 4 5
M TOR 22 2 3 4 7
M TOR 23 2 8 7 4
M TOR 24 2 8 7 6
M TOR 25 2 8 7 18
M TOR 26 3 2 1 10
M TOR 27 3 2 8 7
M TOR 28 3 4 1 10
M TOR 29 3 4 5 6
M TOR 30 3 4 5 14
M TOR 31 3 4 5 15
M TOR 32 3 4 7 6
M TOR 33 3 4 7 8
M TOR 34 3 4 7 18
M TOR 35 4 1 0 9
M TOR 36 4 1 2 8
M TOR 37 4 1 2 11
M TOR 38 4 3 2 8
M TOR 39 4 3 2 11
M TOR 40 4 5 6 7
M TOR 41 4 5 6 16
M TOR 42 4 5 6 17
M TOR 43 4 7 6 16
M TOR 44 4 7 6 17
M TOR 45 5 4 1 10
M TOR 46 5 4 3 12
M TOR 47 5 4 3 13
M TOR 48 5 4 7 8
M TOR 49 5 4 7 18
M TOR 50 5 6 7 8
M TOR 51 5 6 7 18
M TOR 52 7 4 1 10
M TOR 53 7 4 3 12
M TOR 54 7 4 3 13
M TOR 55 7 4 5 14
M TOR 56 7 4 5 15
M TOR 57 7 6 5 14
M TOR 58 7 6 5 15
M TOR 59 7 8 2 11
M TOR 60 8 2 1 10
M TOR 61 8 2 3 12
M TOR 62 8 2 3 13
M TOR 63 8 7 6 16
M TOR 64 8 7 6 17
M  END
$$$$
