
     RDKit          3D

 19 21  0  0  0  0  0  0  0  0999 V2000
    0.4154   -0.0248    0.4523 O   0  0  0  0  0  0  0  0  0  0  0  0
   -0.8017    0.5548    0.8598 C   0  0  0  0  0  0  0  0  0  0  0  0
   -2.0934    0.0933    0.1097 C   0  0  0  0  0  0  0  0  0  0  0  0
   -3.3876    0.2266    0.9292 C   0  0  0  0  0  0  0  0  0  0  0  0
   -3.5369    1.6200    0.5689 O   0  0  0  0  0  0  0  0  0  0  0  0
   -2.3795    1.5698   -0.2955 C   0  0  0  0  0  0  0  0  0  0  0  0
   -1.0804    1.9960    0.3798 C   0  0  0  0  0  0  0  0  0  0  0  0
   -0.7707    3.2971    1.0511 C   0  0  0  0  0  0  0  0  0  0  0  0
   -0.0398    2.9145   -0.2101 C   0  0  0  0  0  0  0  0  0  0  0  0
    0.5535    0.2016   -0.4743 H   0  0  0  0  0  0  0  0  0  0  0  0
   -0.8476    0.4067    1.9436 H   0  0  0  0  0  0  0  0  0  0  0  0
   -1.9831   -0.7419   -0.5806 H   0  0  0  0  0  0  0  0  0  0  0  0
   -4.2298   -0.3710    0.5588 H   0  0  0  0  0  0  0  0  0  0  0  0
   -3.2957    0.0808    2.0134 H   0  0  0  0  0  0  0  0  0  0  0  0
   -2.5996    1.9423   -1.3006 H   0  0  0  0  0  0  0  0  0  0  0  0
   -1.5212    4.0788    0.9993 H   0  0  0  0  0  0  0  0  0  0  0  0
   -0.2215    3.2622    1.9865 H   0  0  0  0  0  0  0  0  0  0  0  0
   -0.2838    3.4373   -1.1296 H   0  0  0  0  0  0  0  0  0  0  0  0
    0.9983    2.6094   -0.1226 H   0  0  0  0  0  0  0  0  0  0  0  0
  1  2  1  0
  2  3  1  0
  3  4  1  0
  4  5  1  0
  5  6  1  0
  6  7  1  0
  7  8  1  0
  8  9  1  0
  7  2  1  0
  9  7  1  0
  6  3  1  0
  1 10  1  0
  2 11  1  0
  3 12  1  0
  4 13  1  0
  4 14  1  0
  6 15  1  0
  8 16  1  0
  8 17  1  0
  9 18  1  0
  9 19  1  0
M  END
$$$$
