
     RDKit          3D

 19 18  0  0  0  0  0  0  0  0999 V2000
   -0.0951   -0.1376    0.0801 C   0  0  0  0  0  0  0  0  0  0  0  0
    1.4409   -0.1046   -0.0111 C   0  0  0  0  0  0  0  0  0  0  0  0
    1.9941    1.2416   -0.0644 C   0  0  0  0  0  0  0  0  0  0  0  0
    2.4526    2.3587   -0.1084 C   0  0  0  0  0  0  0  0  0  0  0  0
    3.0100    3.6969   -0.1599 C   0  0  0  0  0  0  0  0  0  0  0  0
    4.2077    3.8889   -0.1964 O   0  0  0  0  0  0  0  0  0  0  0  0
    1.9978    4.8309   -0.1906 C   0  0  0  0  0  0  0  0  0  0  0  0
    1.2421    4.8968   -1.5322 C   0  0  0  0  0  0  0  0  0  0  0  0
    0.3127    5.9632   -1.5725 O   0  0  0  0  0  0  0  0  0  0  0  0
   -0.4427    0.3779    0.9793 H   0  0  0  0  0  0  0  0  0  0  0  0
   -0.5471    0.3503   -0.7874 H   0  0  0  0  0  0  0  0  0  0  0  0
   -0.4493   -1.1715    0.1172 H   0  0  0  0  0  0  0  0  0  0  0  0
    1.8789   -0.6299    0.8475 H   0  0  0  0  0  0  0  0  0  0  0  0
    1.7756   -0.6564   -0.8989 H   0  0  0  0  0  0  0  0  0  0  0  0
    1.2693    4.6792    0.6169 H   0  0  0  0  0  0  0  0  0  0  0  0
    2.5293    5.7697   -0.0197 H   0  0  0  0  0  0  0  0  0  0  0  0
    1.9526    5.0885   -2.3424 H   0  0  0  0  0  0  0  0  0  0  0  0
    0.7610    3.9290   -1.7365 H   0  0  0  0  0  0  0  0  0  0  0  0
   -0.3792    5.7792   -0.9291 H   0  0  0  0  0  0  0  0  0  0  0  0
  1  2  1  0
  2  3  1  0
  3  4  3  0
  4  5  1  0
  5  6  2  0
  5  7  1  0
  7  8  1  0
  8  9  1  0
  1 10  1  0
  1 11  1  0
  1 12  1  0
  2 13  1  0
  2 14  1  0
  7 15  1  0
  7 16  1  0
  8 17  1  0
  8 18  1  0
  9 19  1  0
M  END
$$$$
