gdb 586	2.3353928	2.0695021	1.5612803	0.6228	74.95	-0.23496	0.00366	0.23862	935.3554	0.159864	-422.554151	-422.546937	-422.545993	-422.585592	28.829
 OpenBabel02181911403D

 19 20  0  0  1  0  0  0  0  0999 V2000
   -0.7222    1.2512   -0.4104 C   0  0  0  0  0  0  0  0  0  0  0  0
   -0.2654    0.0290    0.1645 O   0  0  0  0  0  0  0  0  0  0  0  0
    1.1685   -0.0889    0.0093 C   0  0  1  0  0  0  0  0  0  0  0  0
    1.5383    0.9848   -1.0270 C   0  0  0  0  0  0  0  0  0  0  0  0
    0.5268    2.0913   -0.6881 C   0  0  2  0  0  0  0  0  0  0  0  0
    0.9534    2.9195    0.3860 O   0  0  0  0  0  0  0  0  0  0  0  0
    0.8931    2.4342    1.7211 C   0  0  0  0  0  0  0  0  0  0  0  0
    1.7387    1.2277    2.0685 C   0  0  0  0  0  0  0  0  0  0  0  0
    1.8663    0.1232    1.3359 C   0  0  0  0  0  0  0  0  0  0  0  0
   -1.2557    1.0533   -1.3519 H   0  0  0  0  0  0  0  0  0  0  0  0
   -1.4198    1.7404    0.2782 H   0  0  0  0  0  0  0  0  0  0  0  0
    1.3682   -1.1010   -0.3555 H   0  0  0  0  0  0  0  0  0  0  0  0
    2.5702    1.3278   -0.9506 H   0  0  0  0  0  0  0  0  0  0  0  0
    1.3547    0.6174   -2.0425 H   0  0  0  0  0  0  0  0  0  0  0  0
    0.3718    2.7828   -1.5203 H   0  0  0  0  0  0  0  0  0  0  0  0
    1.2216    3.2869    2.3224 H   0  0  0  0  0  0  0  0  0  0  0  0
   -0.1494    2.2288    2.0145 H   0  0  0  0  0  0  0  0  0  0  0  0
    2.2407    1.2833    3.0319 H   0  0  0  0  0  0  0  0  0  0  0  0
    2.4925   -0.6877    1.6985 H   0  0  0  0  0  0  0  0  0  0  0  0
  1  2  1  0  0  0  0
  1 11  1  0  0  0  0
  3 12  1  6  0  0  0
  3  2  1  0  0  0  0
  3  9  1  0  0  0  0
  4 13  1  0  0  0  0
  4  5  1  0  0  0  0
  4  3  1  0  0  0  0
  5 15  1  6  0  0  0
  5  1  1  0  0  0  0
  5  6  1  0  0  0  0
  6  7  1  0  0  0  0
  7 17  1  0  0  0  0
  7  8  1  0  0  0  0
  7 16  1  0  0  0  0
  8 18  1  0  0  0  0
  9 19  1  0  0  0  0
  9  8  2  0  0  0  0
 10  1  1  0  0  0  0
 14  4  1  0  0  0  0
M TOR 0 0 1 2 3
M TOR 1 0 1 2 8
M TOR 2 0 1 2 11
M TOR 3 0 4 3 2
M TOR 4 0 4 3 12
M TOR 5 0 4 3 13
M TOR 6 0 4 5 6
M TOR 7 1 0 4 3
M TOR 8 1 0 4 5
M TOR 9 1 0 4 14
M TOR 10 1 2 3 4
M TOR 11 1 2 3 12
M TOR 12 1 2 3 13
M TOR 13 1 2 8 7
M TOR 14 1 2 8 18
M TOR 15 2 1 0 4
M TOR 16 2 1 0 9
M TOR 17 2 1 0 10
M TOR 18 2 3 4 5
M TOR 19 2 3 4 14
M TOR 20 2 8 7 6
M TOR 21 2 8 7 17
M TOR 22 3 2 8 7
M TOR 23 3 2 8 18
M TOR 24 3 4 0 9
M TOR 25 3 4 0 10
M TOR 26 3 4 5 6
M TOR 27 4 3 2 8
M TOR 28 4 3 2 11
M TOR 29 4 5 6 7
M TOR 30 4 5 6 15
M TOR 31 4 5 6 16
M TOR 32 5 4 0 9
M TOR 33 5 4 0 10
M TOR 34 5 4 3 12
M TOR 35 5 4 3 13
M TOR 36 5 6 7 8
M TOR 37 5 6 7 17
M TOR 38 6 5 4 14
M TOR 39 6 7 8 18
M TOR 40 7 8 2 11
M TOR 41 8 2 3 12
M TOR 42 8 2 3 13
M TOR 43 8 7 6 15
M TOR 44 8 7 6 16
M  END
$$$$
