gdb 5559	2.3322214	1.5104383	1.0261823	4.0892	74.88	-0.26703	0.01048	0.27751	1197.1066	0.157407	-422.589327	-422.580936	-422.579992	-422.622643	31.448
 OpenBabel02181911423D

 19 20  0  0  1  0  0  0  0  0999 V2000
    1.0218   -0.4262    1.0327 C   0  0  0  0  0  0  0  0  0  0  0  0
    1.0438    0.1895   -0.3681 C   0  0  0  0  0  0  0  0  0  0  0  0
    1.7663   -0.6862   -1.4082 C   0  0  2  0  0  0  0  0  0  0  0  0
    3.2781   -0.7186   -1.2782 C   0  0  1  0  0  0  0  0  0  0  0  0
    4.0504   -1.5812   -2.2602 C   0  0  0  0  0  0  0  0  0  0  0  0
    3.8079   -0.1328   -2.5581 C   0  0  1  0  0  0  0  0  0  0  0  0
    2.7279    0.1611   -3.4225 O   0  0  0  0  0  0  0  0  0  0  0  0
    1.5331   -0.1349   -2.8259 C   0  0  0  0  0  0  0  0  0  0  0  0
    0.4872    0.0328   -3.3801 O   0  0  0  0  0  0  0  0  0  0  0  0
    0.5142   -1.3969    1.0276 H   0  0  0  0  0  0  0  0  0  0  0  0
    2.0315   -0.5827    1.4272 H   0  0  0  0  0  0  0  0  0  0  0  0
    0.4916    0.2244    1.7346 H   0  0  0  0  0  0  0  0  0  0  0  0
    0.0206    0.3479   -0.7238 H   0  0  0  0  0  0  0  0  0  0  0  0
    1.5200    1.1777   -0.3372 H   0  0  0  0  0  0  0  0  0  0  0  0
    1.3251   -1.6902   -1.3818 H   0  0  0  0  0  0  0  0  0  0  0  0
    3.7323   -0.4786   -0.3247 H   0  0  0  0  0  0  0  0  0  0  0  0
    5.0565   -1.8738   -1.9806 H   0  0  0  0  0  0  0  0  0  0  0  0
    3.5097   -2.3144   -2.8510 H   0  0  0  0  0  0  0  0  0  0  0  0
    4.6053    0.5953   -2.6302 H   0  0  0  0  0  0  0  0  0  0  0  0
  1 11  1  0  0  0  0
  1 12  1  0  0  0  0
  2 14  1  0  0  0  0
  2  1  1  0  0  0  0
  3 15  1  1  0  0  0
  3  4  1  0  0  0  0
  3  2  1  0  0  0  0
  4 16  1  1  0  0  0
  5 17  1  0  0  0  0
  5  4  1  0  0  0  0
  6 19  1  1  0  0  0
  6  5  1  0  0  0  0
  6  4  1  0  0  0  0
  7  8  1  0  0  0  0
  7  6  1  0  0  0  0
  8  3  1  0  0  0  0
  9  8  2  0  0  0  0
 10  1  1  0  0  0  0
 13  2  1  0  0  0  0
 18  5  1  0  0  0  0
M TOR 0 0 1 2 3
M TOR 1 0 1 2 7
M TOR 2 0 1 2 14
M TOR 3 1 2 3 4
M TOR 4 1 2 3 5
M TOR 5 1 2 3 15
M TOR 6 1 2 7 6
M TOR 7 1 2 7 8
M TOR 8 2 1 0 9
M TOR 9 2 1 0 10
M TOR 10 2 1 0 11
M TOR 11 2 3 4 5
M TOR 12 2 3 4 16
M TOR 13 2 3 4 17
M TOR 14 2 3 5 6
M TOR 15 2 3 5 18
M TOR 16 2 7 6 5
M TOR 17 3 2 1 12
M TOR 18 3 2 1 13
M TOR 19 3 2 7 6
M TOR 20 3 2 7 8
M TOR 21 3 4 5 6
M TOR 22 3 4 5 18
M TOR 23 3 5 4 16
M TOR 24 3 5 4 17
M TOR 25 3 5 6 7
M TOR 26 4 3 2 7
M TOR 27 4 3 2 14
M TOR 28 4 5 3 15
M TOR 29 4 5 6 7
M TOR 30 5 3 2 7
M TOR 31 5 3 2 14
M TOR 32 5 6 7 8
M TOR 33 6 5 3 15
M TOR 34 6 5 4 16
M TOR 35 6 5 4 17
M TOR 36 6 7 2 14
M TOR 37 7 2 1 12
M TOR 38 7 2 1 13
M TOR 39 7 2 3 15
M TOR 40 7 6 5 18
M TOR 41 8 7 2 14
M  END
$$$$
