
     RDKit          3D

 19 21  0  0  0  0  0  0  0  0999 V2000
   -0.0133   -0.0340   -0.0784 O   0  0  0  0  0  0  0  0  0  0  0  0
   -0.9897    0.5300    0.7160 C   0  0  0  0  0  0  0  0  0  0  0  0
   -1.3047    2.0226    0.9650 C   0  0  0  0  0  0  0  0  0  0  0  0
   -2.3862    1.2087    1.7625 C   0  0  0  0  0  0  0  0  0  0  0  0
   -1.2482    0.2901    2.2738 C   0  0  0  0  0  0  0  0  0  0  0  0
   -3.7842    1.7235    1.9858 C   0  0  0  0  0  0  0  0  0  0  0  0
   -4.2837    1.7441    0.4913 C   0  0  0  0  0  0  0  0  0  0  0  0
   -3.3797    0.9562   -0.3261 O   0  0  0  0  0  0  0  0  0  0  0  0
   -2.5116    0.2805    0.5532 C   0  0  0  0  0  0  0  0  0  0  0  0
    0.8408    0.3321    0.1761 H   0  0  0  0  0  0  0  0  0  0  0  0
   -0.5898    2.5830    1.5743 H   0  0  0  0  0  0  0  0  0  0  0  0
   -1.6528    2.5935    0.1048 H   0  0  0  0  0  0  0  0  0  0  0  0
   -0.5128    0.7318    2.9501 H   0  0  0  0  0  0  0  0  0  0  0  0
   -1.5243   -0.7232    2.5766 H   0  0  0  0  0  0  0  0  0  0  0  0
   -4.3785    1.0267    2.5852 H   0  0  0  0  0  0  0  0  0  0  0  0
   -3.8499    2.7135    2.4437 H   0  0  0  0  0  0  0  0  0  0  0  0
   -5.2973    1.3355    0.4046 H   0  0  0  0  0  0  0  0  0  0  0  0
   -4.2911    2.7618    0.0869 H   0  0  0  0  0  0  0  0  0  0  0  0
   -2.8385   -0.7523    0.7309 H   0  0  0  0  0  0  0  0  0  0  0  0
  1  2  1  0
  2  3  1  0
  3  4  1  0
  4  5  1  0
  4  6  1  0
  6  7  1  0
  7  8  1  0
  8  9  1  0
  5  2  1  0
  9  2  1  0
  9  4  1  0
  1 10  1  0
  3 11  1  0
  3 12  1  0
  5 13  1  0
  5 14  1  0
  6 15  1  0
  6 16  1  0
  7 17  1  0
  7 18  1  0
  9 19  1  0
M  END
$$$$
