gdb 4562	3.0459666	1.1266503	0.8645883	3.7459	81.42	-0.24945	-0.057	0.19245	1335.4595	0.156837	-422.578358	-422.569589	-422.568645	-422.611921	32.222
 OpenBabel02181911413D

 19 19  0  0  1  0  0  0  0  0999 V2000
   -0.5576   -4.3683    1.0002 C   0  0  0  0  0  0  0  0  0  0  0  0
   -0.7241   -3.2042    0.0126 C   0  0  1  0  0  0  0  0  0  0  0  0
   -1.9993   -2.3938    0.2957 C   0  0  0  0  0  0  0  0  0  0  0  0
   -2.0483   -1.2121   -0.4791 O   0  0  0  0  0  0  0  0  0  0  0  0
   -1.0342   -0.2895   -0.1302 C   0  0  0  0  0  0  0  0  0  0  0  0
    0.3216   -0.9393   -0.0084 C   0  0  0  0  0  0  0  0  0  0  0  0
    1.5066   -0.0737    0.0703 C   0  0  0  0  0  0  0  0  0  0  0  0
    1.4676    1.1369    0.0572 O   0  0  0  0  0  0  0  0  0  0  0  0
    0.4546   -2.2720    0.0328 C   0  0  0  0  0  0  0  0  0  0  0  0
   -0.4618   -4.0028    2.0282 H   0  0  0  0  0  0  0  0  0  0  0  0
   -1.4210   -5.0399    0.9592 H   0  0  0  0  0  0  0  0  0  0  0  0
    0.3356   -4.9567    0.7683 H   0  0  0  0  0  0  0  0  0  0  0  0
   -0.8046   -3.6243   -1.0014 H   0  0  0  0  0  0  0  0  0  0  0  0
   -2.8928   -2.9702    0.0395 H   0  0  0  0  0  0  0  0  0  0  0  0
   -2.0469   -2.1549    1.3721 H   0  0  0  0  0  0  0  0  0  0  0  0
   -1.0142    0.4737   -0.9135 H   0  0  0  0  0  0  0  0  0  0  0  0
   -1.2816    0.2300    0.8115 H   0  0  0  0  0  0  0  0  0  0  0  0
    2.4734   -0.6215    0.1464 H   0  0  0  0  0  0  0  0  0  0  0  0
    1.4509   -2.7093    0.0991 H   0  0  0  0  0  0  0  0  0  0  0  0
  1 10  1  0  0  0  0
  2 13  1  6  0  0  0
  2  9  1  0  0  0  0
  2  3  1  0  0  0  0
  2  1  1  0  0  0  0
  3 15  1  0  0  0  0
  4  5  1  0  0  0  0
  4  3  1  0  0  0  0
  5  6  1  0  0  0  0
  5 17  1  0  0  0  0
  6  9  2  0  0  0  0
  6  7  1  0  0  0  0
  7 18  1  0  0  0  0
  8  7  2  0  0  0  0
  9 19  1  0  0  0  0
 11  1  1  0  0  0  0
 12  1  1  0  0  0  0
 14  3  1  0  0  0  0
 16  5  1  0  0  0  0
M TOR 0 0 1 2 3
M TOR 1 0 1 2 13
M TOR 2 0 1 2 14
M TOR 3 0 1 8 5
M TOR 4 0 1 8 18
M TOR 5 1 2 3 4
M TOR 6 1 8 5 4
M TOR 7 1 8 5 6
M TOR 8 2 1 0 9
M TOR 9 2 1 0 10
M TOR 10 2 1 0 11
M TOR 11 2 1 8 5
M TOR 12 2 1 8 18
M TOR 13 2 3 4 5
M TOR 14 2 3 4 15
M TOR 15 2 3 4 16
M TOR 16 3 2 1 8
M TOR 17 3 2 1 12
M TOR 18 3 4 5 6
M TOR 19 3 4 5 8
M TOR 20 4 3 2 13
M TOR 21 4 3 2 14
M TOR 22 4 5 6 7
M TOR 23 4 5 6 17
M TOR 24 4 5 8 18
M TOR 25 5 8 1 12
M TOR 26 6 5 4 15
M TOR 27 6 5 4 16
M TOR 28 6 5 8 18
M TOR 29 7 6 5 8
M TOR 30 8 1 0 9
M TOR 31 8 1 0 10
M TOR 32 8 1 0 11
M TOR 33 8 1 2 13
M TOR 34 8 1 2 14
M TOR 35 8 5 4 15
M TOR 36 8 5 4 16
M TOR 37 8 5 6 17
M  END
$$$$
