
     RDKit          3D

 19 21  0  0  0  0  0  0  0  0999 V2000
    0.1351    0.2120    0.7165 C   0  0  0  0  0  0  0  0  0  0  0  0
    1.6161    0.1988    0.4487 C   0  0  0  0  0  0  0  0  0  0  0  0
    2.5209   -1.0469    0.4964 C   0  0  0  0  0  0  0  0  0  0  0  0
    3.5322   -0.1435   -0.2694 C   0  0  0  0  0  0  0  0  0  0  0  0
    4.4989   -0.6401   -1.1358 O   0  0  0  0  0  0  0  0  0  0  0  0
    3.9068    0.8927    0.8168 C   0  0  0  0  0  0  0  0  0  0  0  0
    2.4819    1.4687    0.8663 C   0  0  0  0  0  0  0  0  0  0  0  0
    2.3513    2.0172   -0.4815 O   0  0  0  0  0  0  0  0  0  0  0  0
    2.2841    0.6421   -0.8762 C   0  0  0  0  0  0  0  0  0  0  0  0
   -0.0787    0.0499    1.7794 H   0  0  0  0  0  0  0  0  0  0  0  0
   -0.2971    1.1762    0.4288 H   0  0  0  0  0  0  0  0  0  0  0  0
   -0.3784   -0.5732    0.1515 H   0  0  0  0  0  0  0  0  0  0  0  0
    2.8263   -1.4632    1.4618 H   0  0  0  0  0  0  0  0  0  0  0  0
    2.1159   -1.8379   -0.1423 H   0  0  0  0  0  0  0  0  0  0  0  0
    5.2186   -1.0132   -0.6157 H   0  0  0  0  0  0  0  0  0  0  0  0
    4.2506    0.4300    1.7467 H   0  0  0  0  0  0  0  0  0  0  0  0
    4.6196    1.6477    0.4786 H   0  0  0  0  0  0  0  0  0  0  0  0
    2.1887    2.1614    1.6554 H   0  0  0  0  0  0  0  0  0  0  0  0
    1.9509    0.4408   -1.8934 H   0  0  0  0  0  0  0  0  0  0  0  0
  1  2  1  0
  2  3  1  0
  3  4  1  0
  4  5  1  0
  4  6  1  0
  6  7  1  0
  7  8  1  0
  8  9  1  0
  7  2  1  0
  9  2  1  0
  9  4  1  0
  1 10  1  0
  1 11  1  0
  1 12  1  0
  3 13  1  0
  3 14  1  0
  5 15  1  0
  6 16  1  0
  6 17  1  0
  7 18  1  0
  9 19  1  0
M  END
$$$$
