gdb 2607	2.260131	1.6848343	1.2529406	2.5865	75.58	-0.24713	-0.0262	0.22093	1071.5923	0.155705	-422.550327	-422.541409	-422.540465	-422.583732	33.398
 OpenBabel02181911413D

 19 20  0  0  1  0  0  0  0  0999 V2000
   -3.1257    0.0591   -1.2213 C   0  0  0  0  0  0  0  0  0  0  0  0
   -2.1939    0.1724   -0.0397 C   0  0  2  0  0  0  0  0  0  0  0  0
   -2.6840    0.7302    1.3161 C   0  0  0  0  0  0  0  0  0  0  0  0
   -1.3449    1.5044    1.4831 C   0  0  0  0  0  0  0  0  0  0  0  0
   -0.9457    1.1797    0.0084 C   0  0  1  0  0  0  0  0  0  0  0  0
   -0.0802   -0.0371   -0.2200 C   0  0  0  0  0  0  0  0  0  0  0  0
    0.9090   -0.2367   -0.8767 O   0  0  0  0  0  0  0  0  0  0  0  0
   -1.1846   -1.0349    0.1552 C   0  0  2  0  0  0  0  0  0  0  0  0
   -1.2686   -2.1440   -0.6912 O   0  0  0  0  0  0  0  0  0  0  0  0
   -3.8913   -0.7026   -1.0366 H   0  0  0  0  0  0  0  0  0  0  0  0
   -3.6311    1.0107   -1.4150 H   0  0  0  0  0  0  0  0  0  0  0  0
   -2.5879   -0.2370   -2.1267 H   0  0  0  0  0  0  0  0  0  0  0  0
   -3.5353    1.4067    1.1981 H   0  0  0  0  0  0  0  0  0  0  0  0
   -2.9358   -0.0104    2.0814 H   0  0  0  0  0  0  0  0  0  0  0  0
   -1.4504    2.5725    1.6780 H   0  0  0  0  0  0  0  0  0  0  0  0
   -0.6633    1.0912    2.2307 H   0  0  0  0  0  0  0  0  0  0  0  0
   -0.7977    2.0234   -0.6663 H   0  0  0  0  0  0  0  0  0  0  0  0
   -1.1661   -1.3621    1.2035 H   0  0  0  0  0  0  0  0  0  0  0  0
   -0.4934   -2.1088   -1.2684 H   0  0  0  0  0  0  0  0  0  0  0  0
  1 10  1  0  0  0  0
  2  1  1  6  0  0  0
  2  5  1  0  0  0  0
  2  8  1  0  0  0  0
  2  3  1  0  0  0  0
  3  4  1  0  0  0  0
  3 14  1  0  0  0  0
  4 15  1  0  0  0  0
  4 16  1  0  0  0  0
  5 17  1  6  0  0  0
  5  4  1  0  0  0  0
  6  5  1  0  0  0  0
  6  8  1  0  0  0  0
  7  6  2  0  0  0  0
  8 18  1  1  0  0  0
  9  8  1  0  0  0  0
 11  1  1  0  0  0  0
 12  1  1  0  0  0  0
 13  3  1  0  0  0  0
 19  9  1  0  0  0  0
M TOR 0 0 1 2 3
M TOR 1 0 1 2 12
M TOR 2 0 1 2 13
M TOR 3 0 1 4 3
M TOR 4 0 1 4 5
M TOR 5 0 1 4 16
M TOR 6 0 1 7 5
M TOR 7 0 1 7 8
M TOR 8 0 1 7 17
M TOR 9 1 2 3 4
M TOR 10 1 2 3 14
M TOR 11 1 2 3 15
M TOR 12 1 4 3 14
M TOR 13 1 4 3 15
M TOR 14 1 4 5 6
M TOR 15 1 4 5 7
M TOR 16 1 7 5 6
M TOR 17 1 7 8 18
M TOR 18 2 1 0 9
M TOR 19 2 1 0 10
M TOR 20 2 1 0 11
M TOR 21 2 1 4 5
M TOR 22 2 1 4 16
M TOR 23 2 1 7 5
M TOR 24 2 1 7 8
M TOR 25 2 1 7 17
M TOR 26 2 3 4 5
M TOR 27 2 3 4 16
M TOR 28 3 2 1 7
M TOR 29 3 4 1 7
M TOR 30 3 4 5 6
M TOR 31 3 4 5 7
M TOR 32 4 1 0 9
M TOR 33 4 1 0 10
M TOR 34 4 1 0 11
M TOR 35 4 1 2 12
M TOR 36 4 1 2 13
M TOR 37 4 1 7 8
M TOR 38 4 1 7 17
M TOR 39 4 3 2 12
M TOR 40 4 3 2 13
M TOR 41 4 5 7 8
M TOR 42 4 5 7 17
M TOR 43 5 4 3 14
M TOR 44 5 4 3 15
M TOR 45 5 7 8 18
M TOR 46 6 5 4 16
M TOR 47 6 5 7 8
M TOR 48 6 5 7 17
M TOR 49 7 1 0 9
M TOR 50 7 1 0 10
M TOR 51 7 1 0 11
M TOR 52 7 1 2 12
M TOR 53 7 1 2 13
M TOR 54 7 1 4 16
M TOR 55 7 5 4 16
M  END
$$$$
