
     RDKit          3D

 19 20  0  0  0  0  0  0  0  0999 V2000
    1.2234    0.7752    0.0897 C   0  0  0  0  0  0  0  0  0  0  0  0
   -0.1174    0.1377   -0.0569 C   0  0  0  0  0  0  0  0  0  0  0  0
   -1.3340    0.7011   -0.1525 C   0  0  0  0  0  0  0  0  0  0  0  0
   -2.3714   -0.4093   -0.1067 C   0  0  0  0  0  0  0  0  0  0  0  0
   -2.2715   -1.0275    1.3135 C   0  0  0  0  0  0  0  0  0  0  0  0
   -0.9613   -1.6215    1.3400 O   0  0  0  0  0  0  0  0  0  0  0  0
   -0.3771   -1.3640    0.0372 C   0  0  0  0  0  0  0  0  0  0  0  0
   -1.6058   -1.5231   -0.8873 C   0  0  0  0  0  0  0  0  0  0  0  0
   -1.4156   -1.3103   -2.2585 O   0  0  0  0  0  0  0  0  0  0  0  0
    1.6672    0.5202    1.0602 H   0  0  0  0  0  0  0  0  0  0  0  0
    1.9240    0.4208   -0.6765 H   0  0  0  0  0  0  0  0  0  0  0  0
    1.1629    1.8651    0.0208 H   0  0  0  0  0  0  0  0  0  0  0  0
   -1.5601    1.7611   -0.1344 H   0  0  0  0  0  0  0  0  0  0  0  0
   -3.3809   -0.1706   -0.4391 H   0  0  0  0  0  0  0  0  0  0  0  0
   -2.3605   -0.2803    2.1105 H   0  0  0  0  0  0  0  0  0  0  0  0
   -3.0270   -1.8074    1.4720 H   0  0  0  0  0  0  0  0  0  0  0  0
    0.4680   -2.0379   -0.0984 H   0  0  0  0  0  0  0  0  0  0  0  0
   -2.0606   -2.5116   -0.7849 H   0  0  0  0  0  0  0  0  0  0  0  0
   -1.0520   -0.4205   -2.3537 H   0  0  0  0  0  0  0  0  0  0  0  0
  1  2  1  0
  2  3  2  0
  3  4  1  0
  4  5  1  0
  5  6  1  0
  6  7  1  0
  7  8  1  0
  8  9  1  0
  7  2  1  0
  8  4  1  0
  1 10  1  0
  1 11  1  0
  1 12  1  0
  3 13  1  0
  4 14  1  0
  5 15  1  0
  5 16  1  0
  7 17  1  0
  8 18  1  0
  9 19  1  0
M  END
$$$$
