gdb 444	3.6238824	1.1679104	1.1509969	2.612	74.92	-0.24306	0.07961	0.32267	1147.1441	0.158684	-422.508868	-422.501464	-422.50052	-422.541195	28.845
 OpenBabel02181911403D

 19 21  0  0  1  0  0  0  0  0999 V2000
    0.8339   -0.6995   -2.6395 C   0  0  0  0  0  0  0  0  0  0  0  0
    1.8731    0.2322   -2.3489 O   0  0  0  0  0  0  0  0  0  0  0  0
    0.9789   -0.1385   -1.2886 C   0  0  1  0  0  0  0  0  0  0  0  0
    0.0773    0.9495   -0.7850 C   0  0  1  0  0  0  0  0  0  0  0  0
   -1.2400    0.6352    0.0147 C   0  0  2  0  0  0  0  0  0  0  0  0
   -1.0809    2.0651    0.6228 C   0  0  0  0  0  0  0  0  0  0  0  0
    0.4087    1.6589    0.5588 C   0  0  1  0  0  0  0  0  0  0  0  0
    0.5021    0.5682    1.4951 O   0  0  0  0  0  0  0  0  0  0  0  0
   -0.6836   -0.1982    1.1749 C   0  0  0  0  0  0  0  0  0  0  0  0
    0.0431   -0.3297   -3.2920 H   0  0  0  0  0  0  0  0  0  0  0  0
    1.1581   -1.7200   -2.8404 H   0  0  0  0  0  0  0  0  0  0  0  0
    1.4451   -0.7581   -0.5242 H   0  0  0  0  0  0  0  0  0  0  0  0
   -0.1158    1.6666   -1.5861 H   0  0  0  0  0  0  0  0  0  0  0  0
   -2.1528    0.2907   -0.4698 H   0  0  0  0  0  0  0  0  0  0  0  0
   -1.3479    2.8588   -0.0761 H   0  0  0  0  0  0  0  0  0  0  0  0
   -1.5020    2.2520    1.6133 H   0  0  0  0  0  0  0  0  0  0  0  0
    1.2470    2.3378    0.7031 H   0  0  0  0  0  0  0  0  0  0  0  0
   -0.4085   -1.2225    0.8997 H   0  0  0  0  0  0  0  0  0  0  0  0
   -1.3553   -0.2334    2.0405 H   0  0  0  0  0  0  0  0  0  0  0  0
  1  2  1  0  0  0  0
  1  3  1  0  0  0  0
  2  3  1  0  0  0  0
  3  4  1  0  0  0  0
  3 12  1  1  0  0  0
  4 13  1  6  0  0  0
  4  5  1  0  0  0  0
  4  7  1  0  0  0  0
  5 14  1  6  0  0  0
  5  6  1  0  0  0  0
  5  9  1  0  0  0  0
  6 16  1  0  0  0  0
  7  6  1  0  0  0  0
  7 17  1  1  0  0  0
  7  8  1  0  0  0  0
  9  8  1  0  0  0  0
  9 19  1  0  0  0  0
 10  1  1  0  0  0  0
 11  1  1  0  0  0  0
 15  6  1  0  0  0  0
 18  9  1  0  0  0  0
M TOR 0 0 1 2 3
M TOR 1 0 1 2 11
M TOR 2 0 2 3 4
M TOR 3 0 2 3 6
M TOR 4 0 2 3 12
M TOR 5 1 2 0 9
M TOR 6 1 2 0 10
M TOR 7 1 2 3 4
M TOR 8 1 2 3 6
M TOR 9 1 2 3 12
M TOR 10 2 3 4 5
M TOR 11 2 3 4 8
M TOR 12 2 3 4 13
M TOR 13 2 3 6 5
M TOR 14 2 3 6 7
M TOR 15 2 3 6 16
M TOR 16 3 2 0 9
M TOR 17 3 2 0 10
M TOR 18 3 4 5 6
M TOR 19 3 4 5 14
M TOR 20 3 4 5 15
M TOR 21 3 4 8 7
M TOR 22 3 4 8 17
M TOR 23 3 4 8 18
M TOR 24 3 6 5 14
M TOR 25 3 6 5 15
M TOR 26 3 6 7 8
M TOR 27 4 3 2 11
M TOR 28 4 3 6 7
M TOR 29 4 3 6 16
M TOR 30 4 5 6 7
M TOR 31 4 5 6 16
M TOR 32 4 8 7 6
M TOR 33 5 4 3 12
M TOR 34 5 4 8 7
M TOR 35 5 4 8 17
M TOR 36 5 4 8 18
M TOR 37 5 6 3 12
M TOR 38 5 6 7 8
M TOR 39 6 3 2 11
M TOR 40 6 3 4 8
M TOR 41 6 3 4 13
M TOR 42 6 5 4 8
M TOR 43 6 5 4 13
M TOR 44 6 7 8 17
M TOR 45 6 7 8 18
M TOR 46 7 6 3 12
M TOR 47 7 6 5 14
M TOR 48 7 6 5 15
M TOR 49 7 8 4 13
M TOR 50 8 4 3 12
M TOR 51 8 4 5 14
M TOR 52 8 4 5 15
M TOR 53 8 7 6 16
M  END
$$$$
