
     RDKit          3D

 19 21  0  0  0  0  0  0  0  0999 V2000
    1.6376    0.5426   -0.0394 O   0  0  0  0  0  0  0  0  0  0  0  0
    0.2525    0.3959   -0.2850 C   0  0  0  0  0  0  0  0  0  0  0  0
   -0.0608    0.3961   -1.7825 C   0  0  0  0  0  0  0  0  0  0  0  0
   -1.4676   -0.1249   -2.1429 C   0  0  0  0  0  0  0  0  0  0  0  0
   -1.5957   -0.3187   -3.6238 C   0  0  0  0  0  0  0  0  0  0  0  0
   -0.8647   -1.3655   -2.8177 C   0  0  0  0  0  0  0  0  0  0  0  0
    0.5172   -0.8491   -2.4944 C   0  0  0  0  0  0  0  0  0  0  0  0
    1.8075   -1.0844   -3.1413 C   0  0  0  0  0  0  0  0  0  0  0  0
    1.5025   -1.6608   -1.8515 O   0  0  0  0  0  0  0  0  0  0  0  0
    2.0412   -0.2668   -0.3799 H   0  0  0  0  0  0  0  0  0  0  0  0
   -0.1439   -0.5248    0.1718 H   0  0  0  0  0  0  0  0  0  0  0  0
   -0.2499    1.2416    0.1977 H   0  0  0  0  0  0  0  0  0  0  0  0
    0.2155    1.3635   -2.2163 H   0  0  0  0  0  0  0  0  0  0  0  0
   -2.3299   -0.0686   -1.4898 H   0  0  0  0  0  0  0  0  0  0  0  0
   -2.5771   -0.6183   -3.9775 H   0  0  0  0  0  0  0  0  0  0  0  0
   -1.0517    0.3229   -4.3131 H   0  0  0  0  0  0  0  0  0  0  0  0
   -1.1734   -2.4026   -2.7797 H   0  0  0  0  0  0  0  0  0  0  0  0
    1.8859   -1.8052   -3.9532 H   0  0  0  0  0  0  0  0  0  0  0  0
    2.5706   -0.3082   -3.1269 H   0  0  0  0  0  0  0  0  0  0  0  0
  1  2  1  0
  2  3  1  0
  3  4  1  0
  4  5  1  0
  5  6  1  0
  6  7  1  0
  7  8  1  0
  8  9  1  0
  7  3  1  0
  9  7  1  0
  6  4  1  0
  1 10  1  0
  2 11  1  0
  2 12  1  0
  3 13  1  0
  4 14  1  0
  5 15  1  0
  5 16  1  0
  6 17  1  0
  8 18  1  0
  8 19  1  0
M  END
$$$$
