gdb 2473	2.8265055	1.636988	1.3092022	1.4224	76.72	-0.23872	0.00798	0.24669999999999997	1023.7309	0.158624	-422.570088	-422.562269	-422.561325	-422.602111	30.726
 OpenBabel02181911413D

 19 20  0  0  1  0  0  0  0  0999 V2000
   -0.0597    1.4418   -0.0527 O   0  0  0  0  0  0  0  0  0  0  0  0
   -0.0227    0.0115   -0.0489 C   0  0  2  0  0  0  0  0  0  0  0  0
   -1.4535   -0.5101    0.1232 C   0  0  0  0  0  0  0  0  0  0  0  0
   -1.5912   -0.7691    1.6528 C   0  0  0  0  0  0  0  0  0  0  0  0
   -0.1538   -0.9572    2.1048 C   0  0  0  0  0  0  0  0  0  0  0  0
    0.6948   -0.5382    1.1735 C   0  0  0  0  0  0  0  0  0  0  0  0
    2.1570   -0.5990    0.8468 C   0  0  0  0  0  0  0  0  0  0  0  0
    2.2243   -0.2668   -0.5549 O   0  0  0  0  0  0  0  0  0  0  0  0
    0.9290   -0.4925   -1.1366 C   0  0  0  0  0  0  0  0  0  0  0  0
    0.8527    1.7442   -0.1362 H   0  0  0  0  0  0  0  0  0  0  0  0
   -2.1827    0.2045   -0.2632 H   0  0  0  0  0  0  0  0  0  0  0  0
   -1.5762   -1.4522   -0.4200 H   0  0  0  0  0  0  0  0  0  0  0  0
   -2.0652    0.0764    2.1684 H   0  0  0  0  0  0  0  0  0  0  0  0
   -2.2087   -1.6481    1.8689 H   0  0  0  0  0  0  0  0  0  0  0  0
    0.1049   -1.3917    3.0649 H   0  0  0  0  0  0  0  0  0  0  0  0
    2.7774    0.1255    1.3866 H   0  0  0  0  0  0  0  0  0  0  0  0
    2.5769   -1.5998    1.0257 H   0  0  0  0  0  0  0  0  0  0  0  0
    0.7702   -1.5609   -1.3497 H   0  0  0  0  0  0  0  0  0  0  0  0
    0.8859    0.0776   -2.0676 H   0  0  0  0  0  0  0  0  0  0  0  0
  2  1  1  1  0  0  0
  2  3  1  0  0  0  0
  2  6  1  0  0  0  0
  3  4  1  0  0  0  0
  4 14  1  0  0  0  0
  4  5  1  0  0  0  0
  4 13  1  0  0  0  0
  5 15  1  0  0  0  0
  6  5  2  0  0  0  0
  7 17  1  0  0  0  0
  7  6  1  0  0  0  0
  7 16  1  0  0  0  0
  8  7  1  0  0  0  0
  9  8  1  0  0  0  0
  9  2  1  0  0  0  0
 10  1  1  0  0  0  0
 11  3  1  0  0  0  0
 12  3  1  0  0  0  0
 18  9  1  0  0  0  0
 19  9  1  0  0  0  0
M TOR 0 0 1 2 3
M TOR 1 0 1 2 10
M TOR 2 0 1 2 11
M TOR 3 0 1 5 4
M TOR 4 0 1 5 6
M TOR 5 0 1 8 7
M TOR 6 0 1 8 17
M TOR 7 0 1 8 18
M TOR 8 1 2 3 4
M TOR 9 1 2 3 12
M TOR 10 1 2 3 13
M TOR 11 1 5 4 3
M TOR 12 1 5 4 14
M TOR 13 1 5 6 7
M TOR 14 1 5 6 15
M TOR 15 1 5 6 16
M TOR 16 1 8 7 6
M TOR 17 2 1 0 9
M TOR 18 2 1 5 4
M TOR 19 2 1 5 6
M TOR 20 2 1 8 7
M TOR 21 2 1 8 17
M TOR 22 2 1 8 18
M TOR 23 2 3 4 5
M TOR 24 2 3 4 14
M TOR 25 3 2 1 5
M TOR 26 3 2 1 8
M TOR 27 3 4 5 6
M TOR 28 4 3 2 10
M TOR 29 4 3 2 11
M TOR 30 4 5 1 8
M TOR 31 4 5 6 7
M TOR 32 4 5 6 15
M TOR 33 4 5 6 16
M TOR 34 5 1 0 9
M TOR 35 5 1 2 10
M TOR 36 5 1 2 11
M TOR 37 5 1 8 7
M TOR 38 5 1 8 17
M TOR 39 5 1 8 18
M TOR 40 5 4 3 12
M TOR 41 5 4 3 13
M TOR 42 5 6 7 8
M TOR 43 6 5 1 8
M TOR 44 6 5 4 14
M TOR 45 6 7 8 17
M TOR 46 6 7 8 18
M TOR 47 8 1 0 9
M TOR 48 8 1 2 10
M TOR 49 8 1 2 11
M TOR 50 8 7 6 15
M TOR 51 8 7 6 16
M  END
$$$$
