gdb 4344	2.3965793	1.6080753	1.1104783	4.1047	76.68	-0.25861	-0.00205	0.25656	1131.5304	0.1578	-422.596092	-422.587583	-422.586638	-422.629156	31.968
 OpenBabel02181911413D

 19 19  0  0  1  0  0  0  0  0999 V2000
    0.1005   -2.2840    0.6323 C   0  0  0  0  0  0  0  0  0  0  0  0
   -0.7576   -1.1674    0.0327 C   0  0  1  0  0  0  0  0  0  0  0  0
   -2.2281   -1.2852    0.4909 C   0  0  0  0  0  0  0  0  0  0  0  0
   -3.2074   -0.3614   -0.1769 C   0  0  0  0  0  0  0  0  0  0  0  0
   -2.9324    0.6717   -0.9708 C   0  0  0  0  0  0  0  0  0  0  0  0
   -1.5615    1.1819   -1.3380 C   0  0  0  0  0  0  0  0  0  0  0  0
   -0.6381    1.2864   -0.2440 O   0  0  0  0  0  0  0  0  0  0  0  0
   -0.1943    0.1961    0.4272 C   0  0  0  0  0  0  0  0  0  0  0  0
    0.6003    0.3532    1.3151 O   0  0  0  0  0  0  0  0  0  0  0  0
    0.1041   -2.2234    1.7233 H   0  0  0  0  0  0  0  0  0  0  0  0
   -0.2887   -3.2626    0.3344 H   0  0  0  0  0  0  0  0  0  0  0  0
    1.1376   -2.2062    0.2976 H   0  0  0  0  0  0  0  0  0  0  0  0
   -0.7411   -1.2536   -1.0605 H   0  0  0  0  0  0  0  0  0  0  0  0
   -2.5552   -2.3181    0.3104 H   0  0  0  0  0  0  0  0  0  0  0  0
   -2.2793   -1.1562    1.5819 H   0  0  0  0  0  0  0  0  0  0  0  0
   -4.2535   -0.5856    0.0223 H   0  0  0  0  0  0  0  0  0  0  0  0
   -3.7578    1.2313   -1.4029 H   0  0  0  0  0  0  0  0  0  0  0  0
   -1.1109    0.5921   -2.1480 H   0  0  0  0  0  0  0  0  0  0  0  0
   -1.6418    2.2074   -1.7053 H   0  0  0  0  0  0  0  0  0  0  0  0
  1 10  1  0  0  0  0
  2 13  1  6  0  0  0
  2  8  1  0  0  0  0
  2  3  1  0  0  0  0
  2  1  1  0  0  0  0
  3 15  1  0  0  0  0
  4 16  1  0  0  0  0
  4  3  1  0  0  0  0
  5  4  2  0  0  0  0
  6  5  1  0  0  0  0
  6  7  1  0  0  0  0
  7  8  1  0  0  0  0
  8  9  2  0  0  0  0
 11  1  1  0  0  0  0
 12  1  1  0  0  0  0
 14  3  1  0  0  0  0
 17  5  1  0  0  0  0
 18  6  1  0  0  0  0
 19  6  1  0  0  0  0
M TOR 0 0 1 2 3
M TOR 1 0 1 2 13
M TOR 2 0 1 2 14
M TOR 3 0 1 7 6
M TOR 4 0 1 7 8
M TOR 5 1 2 3 4
M TOR 6 1 2 3 15
M TOR 7 1 7 6 5
M TOR 8 2 1 0 9
M TOR 9 2 1 0 10
M TOR 10 2 1 0 11
M TOR 11 2 1 7 6
M TOR 12 2 1 7 8
M TOR 13 2 3 4 5
M TOR 14 2 3 4 16
M TOR 15 3 2 1 7
M TOR 16 3 2 1 12
M TOR 17 3 4 5 6
M TOR 18 3 4 5 17
M TOR 19 3 4 5 18
M TOR 20 4 3 2 13
M TOR 21 4 3 2 14
M TOR 22 4 5 6 7
M TOR 23 5 4 3 15
M TOR 24 5 6 7 8
M TOR 25 6 5 4 16
M TOR 26 6 7 1 12
M TOR 27 7 1 0 9
M TOR 28 7 1 0 10
M TOR 29 7 1 0 11
M TOR 30 7 1 2 13
M TOR 31 7 1 2 14
M TOR 32 7 6 5 17
M TOR 33 7 6 5 18
M TOR 34 8 7 1 12
M  END
$$$$
