gdb 1909	2.5599314	1.5425995	1.1801747	3.0237	76.32	-0.23146	-0.01524	0.21622	1099.5973	0.157351	-422.571171	-422.562917	-422.561973	-422.603728	31.793
 OpenBabel02181911403D

 19 20  0  0  1  0  0  0  0  0999 V2000
   -3.2317   -2.2743   -0.1274 C   0  0  0  0  0  0  0  0  0  0  0  0
   -2.2417   -1.2435   -0.6210 C   0  0  2  0  0  0  0  0  0  0  0  0
   -1.1545   -1.6226   -1.5702 C   0  0  0  0  0  0  0  0  0  0  0  0
   -0.8019   -1.3001   -0.1138 C   0  0  1  0  0  0  0  0  0  0  0  0
   -0.1318   -0.0264    0.2489 C   0  0  0  0  0  0  0  0  0  0  0  0
    0.8250    0.0288    0.9901 O   0  0  0  0  0  0  0  0  0  0  0  0
   -0.7685    1.2631   -0.2785 C   0  0  0  0  0  0  0  0  0  0  0  0
   -1.8053    1.0770   -1.2221 O   0  0  0  0  0  0  0  0  0  0  0  0
   -2.7947    0.1655   -0.7794 C   0  0  0  0  0  0  0  0  0  0  0  0
   -3.6517   -1.9887    0.8438 H   0  0  0  0  0  0  0  0  0  0  0  0
   -4.0639   -2.3882   -0.8319 H   0  0  0  0  0  0  0  0  0  0  0  0
   -2.7571   -3.2530   -0.0115 H   0  0  0  0  0  0  0  0  0  0  0  0
   -1.0505   -2.6645   -1.8518 H   0  0  0  0  0  0  0  0  0  0  0  0
   -0.8655   -0.9069   -2.3299 H   0  0  0  0  0  0  0  0  0  0  0  0
   -0.5005   -2.1383    0.5055 H   0  0  0  0  0  0  0  0  0  0  0  0
   -1.1287    1.8205    0.6033 H   0  0  0  0  0  0  0  0  0  0  0  0
    0.0008    1.8730   -0.7595 H   0  0  0  0  0  0  0  0  0  0  0  0
   -3.2391    0.5057    0.1723 H   0  0  0  0  0  0  0  0  0  0  0  0
   -3.5817    0.1823   -1.5411 H   0  0  0  0  0  0  0  0  0  0  0  0
  1 12  1  0  0  0  0
  1 10  1  0  0  0  0
  2  1  1  1  0  0  0
  2  4  1  0  0  0  0
  3  2  1  0  0  0  0
  3  4  1  0  0  0  0
  4  5  1  0  0  0  0
  4 15  1  1  0  0  0
  5  6  2  0  0  0  0
  7  5  1  0  0  0  0
  7 16  1  0  0  0  0
  8  9  1  0  0  0  0
  8  7  1  0  0  0  0
  9  2  1  0  0  0  0
  9 18  1  0  0  0  0
 11  1  1  0  0  0  0
 13  3  1  0  0  0  0
 14  3  1  0  0  0  0
 17  7  1  0  0  0  0
 19  9  1  0  0  0  0
M TOR 0 0 1 2 3
M TOR 1 0 1 2 12
M TOR 2 0 1 2 13
M TOR 3 0 1 3 4
M TOR 4 0 1 3 14
M TOR 5 0 1 8 7
M TOR 6 0 1 8 17
M TOR 7 0 1 8 18
M TOR 8 1 2 3 4
M TOR 9 1 2 3 14
M TOR 10 1 3 2 12
M TOR 11 1 3 2 13
M TOR 12 1 3 4 5
M TOR 13 1 3 4 6
M TOR 14 1 8 7 6
M TOR 15 2 1 0 9
M TOR 16 2 1 0 10
M TOR 17 2 1 0 11
M TOR 18 2 1 8 7
M TOR 19 2 1 8 17
M TOR 20 2 1 8 18
M TOR 21 2 3 1 8
M TOR 22 2 3 4 5
M TOR 23 2 3 4 6
M TOR 24 3 1 0 9
M TOR 25 3 1 0 10
M TOR 26 3 1 0 11
M TOR 27 3 1 8 7
M TOR 28 3 1 8 17
M TOR 29 3 1 8 18
M TOR 30 3 4 6 7
M TOR 31 3 4 6 15
M TOR 32 3 4 6 16
M TOR 33 4 3 1 8
M TOR 34 4 3 2 12
M TOR 35 4 3 2 13
M TOR 36 4 6 7 8
M TOR 37 5 4 3 14
M TOR 38 5 4 6 7
M TOR 39 5 4 6 15
M TOR 40 5 4 6 16
M TOR 41 6 4 3 14
M TOR 42 6 7 8 17
M TOR 43 6 7 8 18
M TOR 44 8 1 0 9
M TOR 45 8 1 0 10
M TOR 46 8 1 0 11
M TOR 47 8 1 2 12
M TOR 48 8 1 2 13
M TOR 49 8 1 3 14
M TOR 50 8 7 6 15
M TOR 51 8 7 6 16
M  END
$$$$
