gdb 657	6.075246	0.7424265	0.7183721	2.9845	77.34	-0.24167	-0.02079	0.22088	1581.8185	0.154758	-422.531649	-422.522771	-422.521827	-422.566351	32.663
 OpenBabel02181911403D

 19 20  0  0  0  0  0  0  0  0999 V2000
    1.1761    0.2370    0.8186 O   0  0  0  0  0  0  0  0  0  0  0  0
    0.0641    0.1074    0.3976 C   0  0  0  0  0  0  0  0  0  0  0  0
   -0.8195   -1.1102    0.0794 C   0  0  0  0  0  0  0  0  0  0  0  0
   -2.0368   -0.1257    0.0382 C   0  0  0  0  0  0  0  0  0  0  0  0
   -1.0734    1.0871    0.0721 C   0  0  0  0  0  0  0  0  0  0  0  0
   -2.8349   -0.1404   -1.1194 O   0  0  0  0  0  0  0  0  0  0  0  0
   -3.7175   -1.2216   -1.1787 C   0  0  0  0  0  0  0  0  0  0  0  0
   -4.9670   -1.0100   -1.9671 C   0  0  0  0  0  0  0  0  0  0  0  0
   -5.0378   -1.1292   -0.4565 C   0  0  0  0  0  0  0  0  0  0  0  0
   -0.5982   -1.5121   -0.9157 H   0  0  0  0  0  0  0  0  0  0  0  0
   -0.8152   -1.9236    0.8083 H   0  0  0  0  0  0  0  0  0  0  0  0
   -2.6586   -0.2049    0.9386 H   0  0  0  0  0  0  0  0  0  0  0  0
   -0.9587    1.5156   -0.9296 H   0  0  0  0  0  0  0  0  0  0  0  0
   -1.2618    1.8902    0.7874 H   0  0  0  0  0  0  0  0  0  0  0  0
   -3.2308   -2.1956   -1.2305 H   0  0  0  0  0  0  0  0  0  0  0  0
   -5.1059   -0.0217   -2.3899 H   0  0  0  0  0  0  0  0  0  0  0  0
   -5.3386   -1.8250   -2.5774 H   0  0  0  0  0  0  0  0  0  0  0  0
   -5.2312   -0.2174    0.0976 H   0  0  0  0  0  0  0  0  0  0  0  0
   -5.4590   -2.0278   -0.0194 H   0  0  0  0  0  0  0  0  0  0  0  0
  2  1  2  0  0  0  0
  3  2  1  0  0  0  0
  3 11  1  0  0  0  0
  4  5  1  0  0  0  0
  4  3  1  0  0  0  0
  4 12  1  0  0  0  0
  5  2  1  0  0  0  0
  5 14  1  0  0  0  0
  6  4  1  0  0  0  0
  7  6  1  0  0  0  0
  7  9  1  0  0  0  0
  8  7  1  0  0  0  0
  8  9  1  0  0  0  0
  9 19  1  0  0  0  0
  9 18  1  0  0  0  0
 10  3  1  0  0  0  0
 13  5  1  0  0  0  0
 15  7  1  0  0  0  0
 16  8  1  0  0  0  0
 17  8  1  0  0  0  0
M TOR 0 0 1 2 3
M TOR 1 0 1 2 9
M TOR 2 0 1 2 10
M TOR 3 0 1 4 3
M TOR 4 0 1 4 12
M TOR 5 0 1 4 13
M TOR 6 1 2 3 4
M TOR 7 1 2 3 5
M TOR 8 1 2 3 11
M TOR 9 1 4 3 5
M TOR 10 1 4 3 11
M TOR 11 2 1 4 12
M TOR 12 2 1 4 13
M TOR 13 2 3 4 12
M TOR 14 2 3 4 13
M TOR 15 2 3 5 6
M TOR 16 3 5 6 7
M TOR 17 3 5 6 8
M TOR 18 3 5 6 14
M TOR 19 4 1 2 9
M TOR 20 4 1 2 10
M TOR 21 4 3 2 9
M TOR 22 4 3 2 10
M TOR 23 4 3 5 6
M TOR 24 5 3 2 9
M TOR 25 5 3 2 10
M TOR 26 5 3 4 12
M TOR 27 5 3 4 13
M TOR 28 5 6 7 8
M TOR 29 5 6 7 15
M TOR 30 5 6 7 16
M TOR 31 5 6 8 17
M TOR 32 5 6 8 18
M TOR 33 6 5 3 11
M TOR 34 6 7 8 17
M TOR 35 6 7 8 18
M TOR 36 6 8 7 15
M TOR 37 6 8 7 16
M TOR 38 7 8 6 14
M  END
$$$$
