
     RDKit          3D

 19 21  0  0  0  0  0  0  0  0999 V2000
    0.1132    0.5787   -0.4812 C   0  0  0  0  0  0  0  0  0  0  0  0
    1.4192   -0.0017   -0.0546 C   0  0  0  0  0  0  0  0  0  0  0  0
    1.9315   -1.4660    0.2932 C   0  0  0  0  0  0  0  0  0  0  0  0
    2.4840   -0.9281    1.6505 C   0  0  0  0  0  0  0  0  0  0  0  0
    2.4711    0.4225    0.9620 C   0  0  0  0  0  0  0  0  0  0  0  0
    2.6648    1.6559    1.5409 O   0  0  0  0  0  0  0  0  0  0  0  0
    2.8616    0.2008   -0.5063 C   0  0  0  0  0  0  0  0  0  0  0  0
    3.4404    1.2965   -1.1265 O   0  0  0  0  0  0  0  0  0  0  0  0
    3.1098   -1.2832   -0.7134 C   0  0  0  0  0  0  0  0  0  0  0  0
   -0.6758    0.3806    0.2534 H   0  0  0  0  0  0  0  0  0  0  0  0
    0.1995    1.6669   -0.5773 H   0  0  0  0  0  0  0  0  0  0  0  0
   -0.2262    0.1830   -1.4465 H   0  0  0  0  0  0  0  0  0  0  0  0
    1.3136   -2.3596    0.2604 H   0  0  0  0  0  0  0  0  0  0  0  0
    1.7341   -0.9842    2.4447 H   0  0  0  0  0  0  0  0  0  0  0  0
    3.4370   -1.3361    2.0079 H   0  0  0  0  0  0  0  0  0  0  0  0
    3.1893    2.1782    0.9189 H   0  0  0  0  0  0  0  0  0  0  0  0
    3.0656    1.3996   -2.0077 H   0  0  0  0  0  0  0  0  0  0  0  0
    2.8352   -1.6110   -1.7218 H   0  0  0  0  0  0  0  0  0  0  0  0
    4.0827   -1.7060   -0.4370 H   0  0  0  0  0  0  0  0  0  0  0  0
  1  2  1  0
  2  3  1  0
  3  4  1  0
  4  5  1  0
  5  6  1  0
  5  7  1  0
  7  8  1  0
  7  9  1  0
  5  2  1  0
  7  2  1  0
  9  3  1  0
  1 10  1  0
  1 11  1  0
  1 12  1  0
  3 13  1  0
  4 14  1  0
  4 15  1  0
  6 16  1  0
  8 17  1  0
  9 18  1  0
  9 19  1  0
M  END
$$$$
