
     RDKit          3D

 19 19  0  0  0  0  0  0  0  0999 V2000
    1.3700   -0.0867   -0.1495 C   0  0  0  0  0  0  0  0  0  0  0  0
   -0.0347    0.1000   -0.0450 O   0  0  0  0  0  0  0  0  0  0  0  0
   -0.4624    0.7320    1.1184 C   0  0  0  0  0  0  0  0  0  0  0  0
   -0.1036    2.1968    1.2427 C   0  0  0  0  0  0  0  0  0  0  0  0
   -1.7959    0.2436    1.6008 C   0  0  0  0  0  0  0  0  0  0  0  0
   -0.5373   -0.1491    2.3766 C   0  0  0  0  0  0  0  0  0  0  0  0
   -0.0571   -1.4548    2.2044 O   0  0  0  0  0  0  0  0  0  0  0  0
   -0.3046    0.4169    3.6791 C   0  0  0  0  0  0  0  0  0  0  0  0
   -0.1151    0.8552    4.7841 C   0  0  0  0  0  0  0  0  0  0  0  0
    1.7636   -0.6333    0.7140 H   0  0  0  0  0  0  0  0  0  0  0  0
    1.5335   -0.6774   -1.0537 H   0  0  0  0  0  0  0  0  0  0  0  0
    1.9066    0.8659   -0.2546 H   0  0  0  0  0  0  0  0  0  0  0  0
   -0.5279    2.6264    2.1519 H   0  0  0  0  0  0  0  0  0  0  0  0
    0.9796    2.3464    1.2833 H   0  0  0  0  0  0  0  0  0  0  0  0
   -0.4960    2.7428    0.3788 H   0  0  0  0  0  0  0  0  0  0  0  0
   -2.4855    0.9479    2.0518 H   0  0  0  0  0  0  0  0  0  0  0  0
   -2.2374   -0.5600    1.0224 H   0  0  0  0  0  0  0  0  0  0  0  0
   -0.5612   -2.0315    2.7893 H   0  0  0  0  0  0  0  0  0  0  0  0
    0.0633    1.2479    5.7544 H   0  0  0  0  0  0  0  0  0  0  0  0
  1  2  1  0
  2  3  1  0
  3  4  1  0
  3  5  1  0
  5  6  1  0
  6  7  1  0
  6  8  1  0
  8  9  3  0
  6  3  1  0
  1 10  1  0
  1 11  1  0
  1 12  1  0
  4 13  1  0
  4 14  1  0
  4 15  1  0
  5 16  1  0
  5 17  1  0
  7 18  1  0
  9 19  1  0
M  END
$$$$
