
     RDKit          3D

 19 21  0  0  0  0  0  0  0  0999 V2000
    1.4925    3.8263    1.5437 O   0  0  0  0  0  0  0  0  0  0  0  0
    1.4932    2.8511    0.5377 C   0  0  0  0  0  0  0  0  0  0  0  0
    1.3970    3.3035   -0.9007 C   0  0  0  0  0  0  0  0  0  0  0  0
    2.7136    2.8208   -0.3285 C   0  0  0  0  0  0  0  0  0  0  0  0
    0.8414    1.5892    0.9694 C   0  0  0  0  0  0  0  0  0  0  0  0
    0.4447    0.3027    0.2007 C   0  0  0  0  0  0  0  0  0  0  0  0
   -0.2236    0.2898    1.5971 C   0  0  0  0  0  0  0  0  0  0  0  0
    1.1056    0.7364    2.2411 C   0  0  0  0  0  0  0  0  0  0  0  0
   -0.5894    1.7123    1.4088 O   0  0  0  0  0  0  0  0  0  0  0  0
    0.5754    3.9232    1.8294 H   0  0  0  0  0  0  0  0  0  0  0  0
    0.8787    2.6736   -1.6148 H   0  0  0  0  0  0  0  0  0  0  0  0
    1.2845    4.3700   -1.0562 H   0  0  0  0  0  0  0  0  0  0  0  0
    3.0996    1.8594   -0.6488 H   0  0  0  0  0  0  0  0  0  0  0  0
    3.4676    3.5663   -0.1044 H   0  0  0  0  0  0  0  0  0  0  0  0
   -0.2384    0.4535   -0.6360 H   0  0  0  0  0  0  0  0  0  0  0  0
    1.2248   -0.4346   -0.0051 H   0  0  0  0  0  0  0  0  0  0  0  0
   -0.9945   -0.3755    1.9840 H   0  0  0  0  0  0  0  0  0  0  0  0
    1.0115    1.2743    3.1840 H   0  0  0  0  0  0  0  0  0  0  0  0
    1.9502    0.0430    2.2223 H   0  0  0  0  0  0  0  0  0  0  0  0
  1  2  1  0
  2  3  1  0
  3  4  1  0
  2  5  1  0
  5  6  1  0
  6  7  1  0
  7  8  1  0
  7  9  1  0
  4  2  1  0
  8  5  1  0
  9  5  1  0
  1 10  1  0
  3 11  1  0
  3 12  1  0
  4 13  1  0
  4 14  1  0
  6 15  1  0
  6 16  1  0
  7 17  1  0
  8 18  1  0
  8 19  1  0
M  END
$$$$
