gdb 2416	2.8170633	1.8454555	1.2978278	1.6137	74.28	-0.23934	0.07107	0.31040999999999996	998.7199	0.157196	-422.519301	-422.511638	-422.510694	-422.550699	31.29
 OpenBabel02181911413D

 19 21  0  0  1  0  0  0  0  0999 V2000
    0.4959    0.5385   -2.1030 C   0  0  0  0  0  0  0  0  0  0  0  0
    1.7552    0.4156   -1.2812 C   0  0  2  0  0  0  0  0  0  0  0  0
    2.3171    1.6437   -0.5530 C   0  0  0  0  0  0  0  0  0  0  0  0
    3.5787    1.0477    0.1370 C   0  0  0  0  0  0  0  0  0  0  0  0
    3.4711   -0.3867   -0.3402 C   0  0  2  0  0  0  0  0  0  0  0  0
    4.4500   -1.2615    0.0790 O   0  0  0  0  0  0  0  0  0  0  0  0
    2.9533   -0.4240   -1.8181 C   0  0  1  0  0  0  0  0  0  0  0  0
    2.2496   -1.6925   -1.5388 O   0  0  0  0  0  0  0  0  0  0  0  0
    1.9696   -0.8316   -0.3715 C   0  0  2  0  0  0  0  0  0  0  0  0
   -0.3465    0.8708   -1.4860 H   0  0  0  0  0  0  0  0  0  0  0  0
    0.6215    1.2698   -2.9093 H   0  0  0  0  0  0  0  0  0  0  0  0
    0.2409   -0.4273   -2.5473 H   0  0  0  0  0  0  0  0  0  0  0  0
    2.5620    2.4482   -1.2537 H   0  0  0  0  0  0  0  0  0  0  0  0
    1.5970    2.0484    0.1653 H   0  0  0  0  0  0  0  0  0  0  0  0
    4.5114    1.5131   -0.1936 H   0  0  0  0  0  0  0  0  0  0  0  0
    3.5445    1.1126    1.2282 H   0  0  0  0  0  0  0  0  0  0  0  0
    4.2220   -2.1154   -0.3166 H   0  0  0  0  0  0  0  0  0  0  0  0
    3.4992   -0.3443   -2.7603 H   0  0  0  0  0  0  0  0  0  0  0  0
    1.3371   -1.2401    0.4192 H   0  0  0  0  0  0  0  0  0  0  0  0
  1 10  1  0  0  0  0
  2  1  1  6  0  0  0
  2  3  1  0  0  0  0
  2  9  1  0  0  0  0
  3  4  1  0  0  0  0
  3 14  1  0  0  0  0
  4 16  1  0  0  0  0
  5  6  1  1  0  0  0
  5  4  1  0  0  0  0
  7 18  1  6  0  0  0
  7  8  1  0  0  0  0
  7  2  1  0  0  0  0
  7  5  1  0  0  0  0
  8  9  1  0  0  0  0
  9  5  1  0  0  0  0
  9 19  1  1  0  0  0
 11  1  1  0  0  0  0
 12  1  1  0  0  0  0
 13  3  1  0  0  0  0
 15  4  1  0  0  0  0
 17  6  1  0  0  0  0
M TOR 0 0 1 2 3
M TOR 1 0 1 2 12
M TOR 2 0 1 2 13
M TOR 3 0 1 6 4
M TOR 4 0 1 6 7
M TOR 5 0 1 6 17
M TOR 6 0 1 8 4
M TOR 7 0 1 8 7
M TOR 8 0 1 8 18
M TOR 9 1 2 3 4
M TOR 10 1 2 3 14
M TOR 11 1 2 3 15
M TOR 12 1 6 4 3
M TOR 13 1 6 4 5
M TOR 14 1 6 4 8
M TOR 15 1 6 7 8
M TOR 16 1 8 4 3
M TOR 17 1 8 4 5
M TOR 18 2 1 0 9
M TOR 19 2 1 0 10
M TOR 20 2 1 0 11
M TOR 21 2 1 6 4
M TOR 22 2 1 6 7
M TOR 23 2 1 6 17
M TOR 24 2 1 8 4
M TOR 25 2 1 8 7
M TOR 26 2 1 8 18
M TOR 27 2 3 4 5
M TOR 28 2 3 4 6
M TOR 29 2 3 4 8
M TOR 30 3 2 1 6
M TOR 31 3 2 1 8
M TOR 32 3 4 5 16
M TOR 33 3 4 6 7
M TOR 34 3 4 6 17
M TOR 35 3 4 8 7
M TOR 36 3 4 8 18
M TOR 37 4 3 2 12
M TOR 38 4 3 2 13
M TOR 39 4 6 7 8
M TOR 40 5 4 3 14
M TOR 41 5 4 3 15
M TOR 42 5 4 6 7
M TOR 43 5 4 6 17
M TOR 44 5 4 8 7
M TOR 45 5 4 8 18
M TOR 46 6 1 0 9
M TOR 47 6 1 0 10
M TOR 48 6 1 0 11
M TOR 49 6 1 2 12
M TOR 50 6 1 2 13
M TOR 51 6 1 8 18
M TOR 52 6 4 3 14
M TOR 53 6 4 3 15
M TOR 54 6 4 5 16
M TOR 55 6 4 8 18
M TOR 56 6 7 8 18
M TOR 57 8 1 0 9
M TOR 58 8 1 0 10
M TOR 59 8 1 0 11
M TOR 60 8 1 2 12
M TOR 61 8 1 2 13
M TOR 62 8 1 6 17
M TOR 63 8 4 3 14
M TOR 64 8 4 3 15
M TOR 65 8 4 5 16
M TOR 66 8 4 6 17
M TOR 67 8 7 6 17
M  END
$$$$
