gdb 4427	3.0761303	1.430869	1.2421518	2.413	74.56	-0.242	0.07313	0.31513	1075.9853	0.155981	-422.494112	-422.485875	-422.484931	-422.527167	31.228
 OpenBabel02181911413D

 19 21  0  0  1  0  0  0  0  0999 V2000
    0.1749    0.0961    0.3936 C   0  0  0  0  0  0  0  0  0  0  0  0
    1.0836   -0.4061   -0.7106 C   0  0  2  0  0  0  0  0  0  0  0  0
    2.4821   -0.1002   -0.4657 O   0  0  0  0  0  0  0  0  0  0  0  0
    2.5785    0.7007   -1.6592 C   0  0  0  0  0  0  0  0  0  0  0  0
    1.1193    0.3990   -2.0301 C   0  0  2  0  0  0  0  0  0  0  0  0
    0.2370    1.5404   -2.1722 O   0  0  0  0  0  0  0  0  0  0  0  0
   -0.0921    1.1338   -3.5065 C   0  0  2  0  0  0  0  0  0  0  0  0
   -0.7869   -0.1880   -3.4990 C   0  0  0  0  0  0  0  0  0  0  0  0
    0.7279   -0.1276   -3.4020 C   0  0  2  0  0  0  0  0  0  0  0  0
    0.4646   -0.3611    1.3447 H   0  0  0  0  0  0  0  0  0  0  0  0
    0.2390    1.1826    0.4890 H   0  0  0  0  0  0  0  0  0  0  0  0
   -0.8667   -0.1692    0.1856 H   0  0  0  0  0  0  0  0  0  0  0  0
    0.9493   -1.4854   -0.8678 H   0  0  0  0  0  0  0  0  0  0  0  0
    2.7694    1.7592   -1.4455 H   0  0  0  0  0  0  0  0  0  0  0  0
    3.3382    0.3228   -2.3555 H   0  0  0  0  0  0  0  0  0  0  0  0
   -0.1755    1.9021   -4.2652 H   0  0  0  0  0  0  0  0  0  0  0  0
   -1.3910   -0.4720   -2.6420 H   0  0  0  0  0  0  0  0  0  0  0  0
   -1.1596   -0.5296   -4.4599 H   0  0  0  0  0  0  0  0  0  0  0  0
    1.3919   -0.6076   -4.1078 H   0  0  0  0  0  0  0  0  0  0  0  0
  1 11  1  0  0  0  0
  1 10  1  0  0  0  0
  2 13  1  6  0  0  0
  2  3  1  0  0  0  0
  2  1  1  0  0  0  0
  4 14  1  0  0  0  0
  4  3  1  0  0  0  0
  5  6  1  1  0  0  0
  5  4  1  0  0  0  0
  5  2  1  0  0  0  0
  7 16  1  6  0  0  0
  7  8  1  0  0  0  0
  7  9  1  0  0  0  0
  7  6  1  0  0  0  0
  8  9  1  0  0  0  0
  8 17  1  0  0  0  0
  9 19  1  6  0  0  0
  9  5  1  0  0  0  0
 12  1  1  0  0  0  0
 15  4  1  0  0  0  0
 18  8  1  0  0  0  0
M TOR 0 0 1 2 3
M TOR 1 0 1 4 3
M TOR 2 0 1 4 5
M TOR 3 0 1 4 8
M TOR 4 1 2 3 4
M TOR 5 1 2 3 13
M TOR 6 1 2 3 14
M TOR 7 1 4 3 13
M TOR 8 1 4 3 14
M TOR 9 1 4 5 6
M TOR 10 1 4 8 6
M TOR 11 1 4 8 7
M TOR 12 1 4 8 18
M TOR 13 2 1 0 9
M TOR 14 2 1 0 10
M TOR 15 2 1 0 11
M TOR 16 2 1 4 5
M TOR 17 2 1 4 8
M TOR 18 2 3 4 5
M TOR 19 2 3 4 8
M TOR 20 3 2 1 12
M TOR 21 3 4 1 12
M TOR 22 3 4 5 6
M TOR 23 3 4 8 6
M TOR 24 3 4 8 7
M TOR 25 3 4 8 18
M TOR 26 4 1 0 9
M TOR 27 4 1 0 10
M TOR 28 4 1 0 11
M TOR 29 4 5 6 7
M TOR 30 4 5 6 8
M TOR 31 4 5 6 15
M TOR 32 4 8 6 7
M TOR 33 4 8 6 15
M TOR 34 4 8 7 16
M TOR 35 4 8 7 17
M TOR 36 5 4 1 12
M TOR 37 5 4 3 13
M TOR 38 5 4 3 14
M TOR 39 5 4 8 7
M TOR 40 5 4 8 18
M TOR 41 5 6 7 8
M TOR 42 5 6 7 16
M TOR 43 5 6 7 17
M TOR 44 5 6 8 18
M TOR 45 6 7 8 18
M TOR 46 6 8 7 16
M TOR 47 6 8 7 17
M TOR 48 7 8 6 15
M TOR 49 8 4 1 12
M TOR 50 8 4 3 13
M TOR 51 8 4 3 14
M  END
$$$$
