
     RDKit          3D

 19 20  0  0  0  0  0  0  0  0999 V2000
   -2.9185   -0.0350   -1.3540 C   0  0  0  0  0  0  0  0  0  0  0  0
   -2.1172    0.0033   -0.0514 C   0  0  0  0  0  0  0  0  0  0  0  0
   -0.9755   -1.0765   -0.0163 C   0  0  0  0  0  0  0  0  0  0  0  0
    0.0160    0.0510   -0.3332 C   0  0  0  0  0  0  0  0  0  0  0  0
    1.1391    0.0762   -0.7442 O   0  0  0  0  0  0  0  0  0  0  0  0
   -1.0299    1.1298   -0.0293 C   0  0  0  0  0  0  0  0  0  0  0  0
   -3.0457   -0.0402    1.1401 C   0  0  0  0  0  0  0  0  0  0  0  0
   -3.5367    1.1614    1.8240 C   0  0  0  0  0  0  0  0  0  0  0  0
   -2.5108    0.3488    2.4061 O   0  0  0  0  0  0  0  0  0  0  0  0
   -3.5455   -0.9322   -1.4062 H   0  0  0  0  0  0  0  0  0  0  0  0
   -3.5721    0.8393   -1.4414 H   0  0  0  0  0  0  0  0  0  0  0  0
   -2.2528   -0.0454   -2.2233 H   0  0  0  0  0  0  0  0  0  0  0  0
   -0.8061   -1.4771    0.9890 H   0  0  0  0  0  0  0  0  0  0  0  0
   -1.0266   -1.9038   -0.7288 H   0  0  0  0  0  0  0  0  0  0  0  0
   -0.8814    1.5244    0.9818 H   0  0  0  0  0  0  0  0  0  0  0  0
   -1.1185    1.9549   -0.7401 H   0  0  0  0  0  0  0  0  0  0  0  0
   -3.6722   -0.9342    1.1867 H   0  0  0  0  0  0  0  0  0  0  0  0
   -3.2121    2.1438    1.4839 H   0  0  0  0  0  0  0  0  0  0  0  0
   -4.4950    1.1408    2.3400 H   0  0  0  0  0  0  0  0  0  0  0  0
  1  2  1  0
  2  3  1  0
  3  4  1  0
  4  5  2  0
  4  6  1  0
  2  7  1  0
  7  8  1  0
  8  9  1  0
  6  2  1  0
  9  7  1  0
  1 10  1  0
  1 11  1  0
  1 12  1  0
  3 13  1  0
  3 14  1  0
  6 15  1  0
  6 16  1  0
  7 17  1  0
  8 18  1  0
  8 19  1  0
M  END
$$$$
