gdb 727	2.5494784	1.7621786	1.2588711	4.3043	73.44	-0.26075	0.01412	0.27487	1030.8813	0.160468	-422.624925	-422.617421	-422.616477	-422.657766	28.593
 OpenBabel02181911403D

 19 20  0  0  1  0  0  0  0  0999 V2000
    1.1907   -0.3659   -0.5118 O   0  0  0  0  0  0  0  0  0  0  0  0
    0.0270   -0.2098   -0.2747 C   0  0  0  0  0  0  0  0  0  0  0  0
   -0.8344   -1.2527   -0.1625 O   0  0  0  0  0  0  0  0  0  0  0  0
   -2.1655   -0.8177    0.1502 C   0  0  0  0  0  0  0  0  0  0  0  0
   -2.2078    0.7207    0.0010 C   0  0  2  0  0  0  0  0  0  0  0  0
   -2.8485    1.2444   -1.3126 C   0  0  0  0  0  0  0  0  0  0  0  0
   -1.6699    1.5034   -2.2701 C   0  0  0  0  0  0  0  0  0  0  0  0
   -0.5592    2.0088   -1.3358 C   0  0  0  0  0  0  0  0  0  0  0  0
   -0.7122    1.1148   -0.0876 C   0  0  2  0  0  0  0  0  0  0  0  0
   -2.8498   -1.3298   -0.5326 H   0  0  0  0  0  0  0  0  0  0  0  0
   -2.3937   -1.1392    1.1719 H   0  0  0  0  0  0  0  0  0  0  0  0
   -2.7064    1.1535    0.8700 H   0  0  0  0  0  0  0  0  0  0  0  0
   -3.5930    0.5532   -1.7197 H   0  0  0  0  0  0  0  0  0  0  0  0
   -3.3674    2.1875   -1.1083 H   0  0  0  0  0  0  0  0  0  0  0  0
   -1.3553    0.5687   -2.7503 H   0  0  0  0  0  0  0  0  0  0  0  0
   -1.9169    2.2094   -3.0670 H   0  0  0  0  0  0  0  0  0  0  0  0
    0.4459    1.9364   -1.7578 H   0  0  0  0  0  0  0  0  0  0  0  0
   -0.7388    3.0548   -1.0643 H   0  0  0  0  0  0  0  0  0  0  0  0
   -0.3178    1.5906    0.8138 H   0  0  0  0  0  0  0  0  0  0  0  0
  1  2  2  0  0  0  0
  2  3  1  0  0  0  0
  2  9  1  0  0  0  0
  3  4  1  0  0  0  0
  4 11  1  0  0  0  0
  5  4  1  0  0  0  0
  5 12  1  1  0  0  0
  6 14  1  0  0  0  0
  6  5  1  0  0  0  0
  7  8  1  0  0  0  0
  7  6  1  0  0  0  0
  8 18  1  0  0  0  0
  8  9  1  0  0  0  0
  9  5  1  0  0  0  0
  9 19  1  1  0  0  0
 10  4  1  0  0  0  0
 13  6  1  0  0  0  0
 15  7  1  0  0  0  0
 16  7  1  0  0  0  0
 17  8  1  0  0  0  0
M TOR 0 0 1 2 3
M TOR 1 0 1 8 4
M TOR 2 0 1 8 7
M TOR 3 0 1 8 18
M TOR 4 1 2 3 4
M TOR 5 1 2 3 9
M TOR 6 1 2 3 10
M TOR 7 1 8 4 3
M TOR 8 1 8 4 5
M TOR 9 1 8 4 11
M TOR 10 1 8 7 6
M TOR 11 1 8 7 16
M TOR 12 1 8 7 17
M TOR 13 2 1 8 4
M TOR 14 2 1 8 7
M TOR 15 2 1 8 18
M TOR 16 2 3 4 5
M TOR 17 2 3 4 8
M TOR 18 2 3 4 11
M TOR 19 3 2 1 8
M TOR 20 3 4 5 6
M TOR 21 3 4 5 12
M TOR 22 3 4 5 13
M TOR 23 3 4 8 7
M TOR 24 3 4 8 18
M TOR 25 4 5 6 7
M TOR 26 4 5 6 14
M TOR 27 4 5 6 15
M TOR 28 4 8 7 6
M TOR 29 4 8 7 16
M TOR 30 4 8 7 17
M TOR 31 5 4 3 9
M TOR 32 5 4 3 10
M TOR 33 5 4 8 7
M TOR 34 5 4 8 18
M TOR 35 5 6 7 8
M TOR 36 5 6 7 16
M TOR 37 5 6 7 17
M TOR 38 6 5 4 8
M TOR 39 6 5 4 11
M TOR 40 6 7 8 18
M TOR 41 7 6 5 12
M TOR 42 7 6 5 13
M TOR 43 7 8 4 11
M TOR 44 8 4 3 9
M TOR 45 8 4 3 10
M TOR 46 8 4 5 12
M TOR 47 8 4 5 13
M TOR 48 8 7 6 14
M TOR 49 8 7 6 15
M  END
$$$$
