
     RDKit          3D

 19 20  0  0  0  0  0  0  0  0999 V2000
   -0.0681    2.7710    4.5130 C   0  0  0  0  0  0  0  0  0  0  0  0
    1.0473    1.9032    3.9294 C   0  0  0  0  0  0  0  0  0  0  0  0
    2.0552    1.6247    4.8973 O   0  0  0  0  0  0  0  0  0  0  0  0
    0.5533    0.5867    3.3710 C   0  0  0  0  0  0  0  0  0  0  0  0
   -0.7237    0.3291    2.5061 C   0  0  0  0  0  0  0  0  0  0  0  0
   -0.5136   -1.0368    3.2225 C   0  0  0  0  0  0  0  0  0  0  0  0
   -0.0630   -0.2831    4.3998 O   0  0  0  0  0  0  0  0  0  0  0  0
    0.8253   -1.5042    2.6204 C   0  0  0  0  0  0  0  0  0  0  0  0
    1.5569   -0.3948    2.7245 C   0  0  0  0  0  0  0  0  0  0  0  0
   -0.6416    2.2045    5.2527 H   0  0  0  0  0  0  0  0  0  0  0  0
    0.3688    3.6468    4.9987 H   0  0  0  0  0  0  0  0  0  0  0  0
   -0.7569    3.1128    3.7335 H   0  0  0  0  0  0  0  0  0  0  0  0
    1.5564    2.4499    3.1254 H   0  0  0  0  0  0  0  0  0  0  0  0
    1.6935    0.9463    5.4814 H   0  0  0  0  0  0  0  0  0  0  0  0
   -1.6007    0.8680    2.8713 H   0  0  0  0  0  0  0  0  0  0  0  0
   -0.6349    0.3700    1.4190 H   0  0  0  0  0  0  0  0  0  0  0  0
   -1.3118   -1.7502    3.4215 H   0  0  0  0  0  0  0  0  0  0  0  0
    1.0623   -2.4812    2.2261 H   0  0  0  0  0  0  0  0  0  0  0  0
    2.5802   -0.1791    2.4568 H   0  0  0  0  0  0  0  0  0  0  0  0
  1  2  1  0
  2  3  1  0
  2  4  1  0
  4  5  1  0
  5  6  1  0
  6  7  1  0
  6  8  1  0
  8  9  2  0
  7  4  1  0
  9  4  1  0
  1 10  1  0
  1 11  1  0
  1 12  1  0
  2 13  1  0
  3 14  1  0
  5 15  1  0
  5 16  1  0
  6 17  1  0
  8 18  1  0
  9 19  1  0
M  END
$$$$
