gdb 1314	2.0265283	1.2807066	0.938249	3.0792	77.89	-0.24932	-0.02905	0.22027000000000002	1315.9237	0.152845	-422.544624	-422.534122	-422.533178	-422.580596	37.478
 OpenBabel02181911403D

 19 18  0  0  1  0  0  0  0  0999 V2000
    2.4104   -2.5745    3.9614 C   0  0  0  0  0  0  0  0  0  0  0  0
    2.0997   -2.0015    2.5824 C   0  0  2  0  0  0  0  0  0  0  0  0
    1.1744   -2.8795    1.9637 O   0  0  0  0  0  0  0  0  0  0  0  0
    3.3889   -1.8631    1.7424 C   0  0  0  0  0  0  0  0  0  0  0  0
    3.1933   -1.3602    0.3222 C   0  0  0  0  0  0  0  0  0  0  0  0
    3.6508   -1.9245   -0.6380 O   0  0  0  0  0  0  0  0  0  0  0  0
    2.4007   -0.0370    0.1313 C   0  0  0  0  0  0  0  0  0  0  0  0
    0.9638   -0.2733    0.0786 C   0  0  0  0  0  0  0  0  0  0  0  0
   -0.2173   -0.5009    0.0346 C   0  0  0  0  0  0  0  0  0  0  0  0
    2.8443   -3.5746    3.8640 H   0  0  0  0  0  0  0  0  0  0  0  0
    3.1164   -1.9391    4.5045 H   0  0  0  0  0  0  0  0  0  0  0  0
    1.4906   -2.6579    4.5455 H   0  0  0  0  0  0  0  0  0  0  0  0
    1.6492   -1.0048    2.7095 H   0  0  0  0  0  0  0  0  0  0  0  0
    0.7389   -2.3983    1.2491 H   0  0  0  0  0  0  0  0  0  0  0  0
    4.0632   -1.1552    2.2466 H   0  0  0  0  0  0  0  0  0  0  0  0
    3.8964   -2.8291    1.6764 H   0  0  0  0  0  0  0  0  0  0  0  0
    2.6333    0.6633    0.9425 H   0  0  0  0  0  0  0  0  0  0  0  0
    2.7418    0.4006   -0.8117 H   0  0  0  0  0  0  0  0  0  0  0  0
   -1.2653   -0.6682   -0.0184 H   0  0  0  0  0  0  0  0  0  0  0  0
  1 11  1  0  0  0  0
  1 12  1  0  0  0  0
  2 13  1  1  0  0  0
  2  1  1  0  0  0  0
  3  2  1  0  0  0  0
  4 15  1  0  0  0  0
  4  2  1  0  0  0  0
  5  4  1  0  0  0  0
  6  5  2  0  0  0  0
  7  5  1  0  0  0  0
  7 17  1  0  0  0  0
  8  7  1  0  0  0  0
  9  8  3  0  0  0  0
 10  1  1  0  0  0  0
 14  3  1  0  0  0  0
 16  4  1  0  0  0  0
 18  7  1  0  0  0  0
 19  9  1  0  0  0  0
M TOR 0 0 1 2 13
M TOR 1 0 1 3 4
M TOR 2 0 1 3 14
M TOR 3 0 1 3 15
M TOR 4 1 3 4 5
M TOR 5 1 3 4 6
M TOR 6 2 1 0 9
M TOR 7 2 1 0 10
M TOR 8 2 1 0 11
M TOR 9 2 1 3 4
M TOR 10 2 1 3 14
M TOR 11 2 1 3 15
M TOR 12 3 1 0 9
M TOR 13 3 1 0 10
M TOR 14 3 1 0 11
M TOR 15 3 1 2 13
M TOR 16 3 4 6 7
M TOR 17 3 4 6 16
M TOR 18 3 4 6 17
M TOR 19 4 3 1 12
M TOR 20 4 6 7 8
M TOR 21 5 4 3 14
M TOR 22 5 4 3 15
M TOR 23 5 4 6 7
M TOR 24 5 4 6 16
M TOR 25 5 4 6 17
M TOR 26 6 4 3 14
M TOR 27 6 4 3 15
M TOR 28 6 7 8 18
M TOR 29 8 7 6 16
M TOR 30 8 7 6 17
M  END
$$$$
