
     RDKit          3D

 19 19  0  0  0  0  0  0  0  0999 V2000
    1.5371    0.0879   -0.2919 C   0  0  0  0  0  0  0  0  0  0  0  0
    0.1462    0.3173   -0.2969 O   0  0  0  0  0  0  0  0  0  0  0  0
   -0.3857    0.6048    0.9803 C   0  0  0  0  0  0  0  0  0  0  0  0
   -0.0718    2.0423    1.4764 C   0  0  0  0  0  0  0  0  0  0  0  0
   -1.4579    2.6298    1.7790 C   0  0  0  0  0  0  0  0  0  0  0  0
   -2.3399    1.9685    0.8798 O   0  0  0  0  0  0  0  0  0  0  0  0
   -1.9386    0.6023    0.8541 C   0  0  0  0  0  0  0  0  0  0  0  0
   -2.5802   -0.1692    1.9246 C   0  0  0  0  0  0  0  0  0  0  0  0
   -3.1023   -0.7936    2.8093 C   0  0  0  0  0  0  0  0  0  0  0  0
    1.8066   -0.7451    0.3765 H   0  0  0  0  0  0  0  0  0  0  0  0
    1.8244   -0.1703   -1.3138 H   0  0  0  0  0  0  0  0  0  0  0  0
    2.1065    0.9763    0.0193 H   0  0  0  0  0  0  0  0  0  0  0  0
   -0.0526   -0.1568    1.6976 H   0  0  0  0  0  0  0  0  0  0  0  0
    0.5950    2.0643    2.3412 H   0  0  0  0  0  0  0  0  0  0  0  0
    0.4007    2.5886    0.6553 H   0  0  0  0  0  0  0  0  0  0  0  0
   -1.7523    2.4357    2.8215 H   0  0  0  0  0  0  0  0  0  0  0  0
   -1.5355    3.7027    1.5895 H   0  0  0  0  0  0  0  0  0  0  0  0
   -2.2173    0.1963   -0.1221 H   0  0  0  0  0  0  0  0  0  0  0  0
   -3.5753   -1.3486    3.5815 H   0  0  0  0  0  0  0  0  0  0  0  0
  1  2  1  0
  2  3  1  0
  3  4  1  0
  4  5  1  0
  5  6  1  0
  6  7  1  0
  7  8  1  0
  8  9  3  0
  7  3  1  0
  1 10  1  0
  1 11  1  0
  1 12  1  0
  3 13  1  0
  4 14  1  0
  4 15  1  0
  5 16  1  0
  5 17  1  0
  7 18  1  0
  9 19  1  0
M  END
$$$$
