
     RDKit          3D

 19 21  0  0  0  0  0  0  0  0999 V2000
    0.0220   -0.0529    0.2432 C   0  0  0  0  0  0  0  0  0  0  0  0
    1.5172    0.0114   -0.0240 C   0  0  0  0  0  0  0  0  0  0  0  0
    1.9572    1.2254   -0.8866 C   0  0  0  0  0  0  0  0  0  0  0  0
    2.9040    1.8422    0.1941 C   0  0  0  0  0  0  0  0  0  0  0  0
    2.2709    1.6427    1.6262 C   0  0  0  0  0  0  0  0  0  0  0  0
    2.5022    0.2038    1.1405 C   0  0  0  0  0  0  0  0  0  0  0  0
    2.5276   -1.3216    1.2139 C   0  0  0  0  0  0  0  0  0  0  0  0
    2.0275   -1.3617   -0.1577 O   0  0  0  0  0  0  0  0  0  0  0  0
    3.7096    0.6669    0.4649 O   0  0  0  0  0  0  0  0  0  0  0  0
   -0.2104   -0.7057    1.0903 H   0  0  0  0  0  0  0  0  0  0  0  0
   -0.4041    0.9357    0.4390 H   0  0  0  0  0  0  0  0  0  0  0  0
   -0.4803   -0.4643   -0.6389 H   0  0  0  0  0  0  0  0  0  0  0  0
    2.5510    0.9601   -1.7630 H   0  0  0  0  0  0  0  0  0  0  0  0
    1.1154    1.8511   -1.1941 H   0  0  0  0  0  0  0  0  0  0  0  0
    3.4738    2.7379   -0.0545 H   0  0  0  0  0  0  0  0  0  0  0  0
    2.9712    1.9835    2.3891 H   0  0  0  0  0  0  0  0  0  0  0  0
    1.2505    1.9710    1.8371 H   0  0  0  0  0  0  0  0  0  0  0  0
    3.5192   -1.7703    1.3094 H   0  0  0  0  0  0  0  0  0  0  0  0
    1.8257   -1.7824    1.9181 H   0  0  0  0  0  0  0  0  0  0  0  0
  1  2  1  0
  2  3  1  0
  3  4  1  0
  4  5  1  0
  5  6  1  0
  6  7  1  0
  7  8  1  0
  6  9  1  0
  6  2  1  0
  8  2  1  0
  9  4  1  0
  1 10  1  0
  1 11  1  0
  1 12  1  0
  3 13  1  0
  3 14  1  0
  4 15  1  0
  5 16  1  0
  5 17  1  0
  7 18  1  0
  7 19  1  0
M  END
$$$$
