gdb 2260	3.2668776	1.5630717	1.2941994	0.7841	73.78	-0.23217	0.08132	0.31349	1013.8906	0.158845	-422.529128	-422.521641	-422.520697	-422.560537	30.222
 OpenBabel02181911413D

 19 21  0  0  1  0  0  0  0  0999 V2000
    0.2599    0.0348    0.4698 O   0  0  0  0  0  0  0  0  0  0  0  0
   -0.8595    0.7023    0.9332 C   0  0  2  0  0  0  0  0  0  0  0  0
   -0.8965    2.1702    1.3517 C   0  0  0  0  0  0  0  0  0  0  0  0
   -2.3427    2.2829    0.7467 C   0  0  2  0  0  0  0  0  0  0  0  0
   -3.4865    2.4931    1.7556 C   0  0  0  0  0  0  0  0  0  0  0  0
   -3.8409    1.1642    2.4440 C   0  0  0  0  0  0  0  0  0  0  0  0
   -2.6824    0.3635    2.6694 O   0  0  0  0  0  0  0  0  0  0  0  0
   -2.0663   -0.0163    1.4678 C   0  0  1  0  0  0  0  0  0  0  0  0
   -2.2131    0.8334    0.2313 C   0  0  2  0  0  0  0  0  0  0  0  0
    0.6909   -0.3903    1.2197 H   0  0  0  0  0  0  0  0  0  0  0  0
   -0.7876    2.3818    2.4200 H   0  0  0  0  0  0  0  0  0  0  0  0
   -0.1779    2.7642    0.7829 H   0  0  0  0  0  0  0  0  0  0  0  0
   -2.3829    3.0240   -0.0526 H   0  0  0  0  0  0  0  0  0  0  0  0
   -3.1835    3.2424    2.4959 H   0  0  0  0  0  0  0  0  0  0  0  0
   -4.3813    2.8837    1.2571 H   0  0  0  0  0  0  0  0  0  0  0  0
   -4.2960    1.3237    3.4249 H   0  0  0  0  0  0  0  0  0  0  0  0
   -4.5580    0.6033    1.8266 H   0  0  0  0  0  0  0  0  0  0  0  0
   -2.0588   -1.0925    1.3025 H   0  0  0  0  0  0  0  0  0  0  0  0
   -2.5616    0.4426   -0.7167 H   0  0  0  0  0  0  0  0  0  0  0  0
  1 10  1  0  0  0  0
  2  1  1  6  0  0  0
  2  3  1  0  0  0  0
  2  8  1  0  0  0  0
  3 11  1  0  0  0  0
  4 13  1  6  0  0  0
  4  3  1  0  0  0  0
  4  5  1  0  0  0  0
  5  6  1  0  0  0  0
  5 14  1  0  0  0  0
  6  7  1  0  0  0  0
  6 16  1  0  0  0  0
  8 18  1  6  0  0  0
  8  7  1  0  0  0  0
  9 19  1  6  0  0  0
  9  4  1  0  0  0  0
  9  2  1  0  0  0  0
  9  8  1  0  0  0  0
 12  3  1  0  0  0  0
 15  5  1  0  0  0  0
 17  6  1  0  0  0  0
M TOR 0 0 1 2 3
M TOR 1 0 1 2 10
M TOR 2 0 1 2 11
M TOR 3 0 1 7 6
M TOR 4 0 1 7 8
M TOR 5 0 1 7 17
M TOR 6 0 1 8 3
M TOR 7 0 1 8 18
M TOR 8 1 2 3 4
M TOR 9 1 2 3 8
M TOR 10 1 2 3 12
M TOR 11 1 7 6 5
M TOR 12 1 7 8 3
M TOR 13 1 7 8 18
M TOR 14 1 8 3 4
M TOR 15 1 8 3 12
M TOR 16 1 8 7 6
M TOR 17 1 8 7 17
M TOR 18 2 1 0 9
M TOR 19 2 1 7 6
M TOR 20 2 1 7 8
M TOR 21 2 1 7 17
M TOR 22 2 1 8 18
M TOR 23 2 3 4 5
M TOR 24 2 3 4 13
M TOR 25 2 3 4 14
M TOR 26 2 3 8 7
M TOR 27 2 3 8 18
M TOR 28 3 2 1 7
M TOR 29 3 4 5 6
M TOR 30 3 4 5 15
M TOR 31 3 4 5 16
M TOR 32 3 8 7 6
M TOR 33 3 8 7 17
M TOR 34 4 3 2 10
M TOR 35 4 3 2 11
M TOR 36 4 3 8 7
M TOR 37 4 3 8 18
M TOR 38 4 5 6 7
M TOR 39 5 4 3 8
M TOR 40 5 4 3 12
M TOR 41 5 6 7 8
M TOR 42 5 6 7 17
M TOR 43 6 5 4 13
M TOR 44 6 5 4 14
M TOR 45 6 7 8 18
M TOR 46 7 1 0 9
M TOR 47 7 1 2 10
M TOR 48 7 1 2 11
M TOR 49 7 6 5 15
M TOR 50 7 6 5 16
M TOR 51 7 8 3 12
M TOR 52 8 1 0 9
M TOR 53 8 1 2 10
M TOR 54 8 1 2 11
M TOR 55 8 3 2 10
M TOR 56 8 3 2 11
M TOR 57 8 3 4 13
M TOR 58 8 3 4 14
M  END
$$$$
