
     RDKit          3D

 19 20  0  0  0  0  0  0  0  0999 V2000
    0.3587    0.4102    0.6284 O   0  0  0  0  0  0  0  0  0  0  0  0
   -0.9211    0.8295    0.2191 C   0  0  0  0  0  0  0  0  0  0  0  0
   -2.1017   -0.1855    0.2856 C   0  0  0  0  0  0  0  0  0  0  0  0
   -2.5090    0.2555   -1.1350 C   0  0  0  0  0  0  0  0  0  0  0  0
   -3.4984    1.2656   -1.0391 O   0  0  0  0  0  0  0  0  0  0  0  0
   -3.5365    2.1290   -2.1624 C   0  0  0  0  0  0  0  0  0  0  0  0
   -2.1898    2.7114   -2.5078 C   0  0  0  0  0  0  0  0  0  0  0  0
   -1.0581    2.1472   -2.0900 C   0  0  0  0  0  0  0  0  0  0  0  0
   -1.0947    0.8648   -1.3272 C   0  0  0  0  0  0  0  0  0  0  0  0
    0.4033    0.4609    1.5884 H   0  0  0  0  0  0  0  0  0  0  0  0
   -1.1948    1.7927    0.6670 H   0  0  0  0  0  0  0  0  0  0  0  0
   -1.7188   -1.2094    0.2953 H   0  0  0  0  0  0  0  0  0  0  0  0
   -2.8587   -0.0574    1.0618 H   0  0  0  0  0  0  0  0  0  0  0  0
   -2.8189   -0.5206   -1.8481 H   0  0  0  0  0  0  0  0  0  0  0  0
   -3.9648    1.6092   -3.0393 H   0  0  0  0  0  0  0  0  0  0  0  0
   -4.2387    2.9277   -1.8981 H   0  0  0  0  0  0  0  0  0  0  0  0
   -2.1867    3.6181   -3.1066 H   0  0  0  0  0  0  0  0  0  0  0  0
   -0.0924    2.5941   -2.3115 H   0  0  0  0  0  0  0  0  0  0  0  0
   -0.4092    0.1228   -1.7522 H   0  0  0  0  0  0  0  0  0  0  0  0
  1  2  1  0
  2  3  1  0
  3  4  1  0
  4  5  1  0
  5  6  1  0
  6  7  1  0
  7  8  2  0
  8  9  1  0
  9  2  1  0
  9  4  1  0
  1 10  1  0
  2 11  1  0
  3 12  1  0
  3 13  1  0
  4 14  1  0
  6 15  1  0
  6 16  1  0
  7 17  1  0
  8 18  1  0
  9 19  1  0
M  END
$$$$
