gdb 1501	1.8127555	1.7063162	1.1040636	2.7599	76.91	-0.24634	-0.03468	0.21166000000000001	1167.271	0.153174	-422.578845	-422.569188	-422.568243	-422.613501	35.043
 OpenBabel02181911403D

 19 19  0  0  1  0  0  0  0  0999 V2000
   -3.0406   -0.0331   -1.1877 C   0  0  0  0  0  0  0  0  0  0  0  0
   -2.1192    0.0165    0.0350 C   0  0  0  0  0  0  0  0  0  0  0  0
   -2.9190    0.0868    1.3326 C   0  0  0  0  0  0  0  0  0  0  0  0
   -1.0364   -1.1209   -0.0300 C   0  0  0  0  0  0  0  0  0  0  0  0
   -0.0084   -0.0775   -0.4679 C   0  0  0  0  0  0  0  0  0  0  0  0
    1.0726   -0.1148   -0.9765 O   0  0  0  0  0  0  0  0  0  0  0  0
   -0.9641    1.0779   -0.0847 C   0  0  1  0  0  0  0  0  0  0  0  0
   -1.0179    2.2950   -0.9687 C   0  0  0  0  0  0  0  0  0  0  0  0
   -2.0240    2.8008   -1.3978 O   0  0  0  0  0  0  0  0  0  0  0  0
   -3.6780   -0.9224   -1.1318 H   0  0  0  0  0  0  0  0  0  0  0  0
   -3.6738    0.8537   -1.2443 H   0  0  0  0  0  0  0  0  0  0  0  0
   -2.4716   -0.0907   -2.1218 H   0  0  0  0  0  0  0  0  0  0  0  0
   -3.5913   -0.7734    1.4240 H   0  0  0  0  0  0  0  0  0  0  0  0
   -2.2623    0.0919    2.2097 H   0  0  0  0  0  0  0  0  0  0  0  0
   -3.5319    0.9937    1.3639 H   0  0  0  0  0  0  0  0  0  0  0  0
   -0.7798   -1.5323    0.9527 H   0  0  0  0  0  0  0  0  0  0  0  0
   -1.2102   -1.9483   -0.7230 H   0  0  0  0  0  0  0  0  0  0  0  0
   -0.6481    1.4292    0.9100 H   0  0  0  0  0  0  0  0  0  0  0  0
   -0.0146    2.7136   -1.2044 H   0  0  0  0  0  0  0  0  0  0  0  0
  1 10  1  0  0  0  0
  1  2  1  0  0  0  0
  2  3  1  0  0  0  0
  3 15  1  0  0  0  0
  3 13  1  0  0  0  0
  3 14  1  0  0  0  0
  4  2  1  0  0  0  0
  4 16  1  0  0  0  0
  5  7  1  0  0  0  0
  5  4  1  0  0  0  0
  6  5  2  0  0  0  0
  7  2  1  0  0  0  0
  7 18  1  1  0  0  0
  8  7  1  0  0  0  0
  9  8  2  0  0  0  0
 11  1  1  0  0  0  0
 12  1  1  0  0  0  0
 17  4  1  0  0  0  0
 19  8  1  0  0  0  0
M TOR 0 0 1 2 12
M TOR 1 0 1 2 13
M TOR 2 0 1 2 14
M TOR 3 0 1 3 4
M TOR 4 0 1 3 15
M TOR 5 0 1 3 16
M TOR 6 0 1 6 4
M TOR 7 0 1 6 7
M TOR 8 0 1 6 17
M TOR 9 1 3 4 5
M TOR 10 1 3 4 6
M TOR 11 1 6 4 5
M TOR 12 1 6 7 8
M TOR 13 1 6 7 18
M TOR 14 2 1 0 9
M TOR 15 2 1 0 10
M TOR 16 2 1 0 11
M TOR 17 2 1 3 4
M TOR 18 2 1 3 15
M TOR 19 2 1 3 16
M TOR 20 2 1 6 4
M TOR 21 2 1 6 7
M TOR 22 2 1 6 17
M TOR 23 3 1 0 9
M TOR 24 3 1 0 10
M TOR 25 3 1 0 11
M TOR 26 3 1 2 12
M TOR 27 3 1 2 13
M TOR 28 3 1 2 14
M TOR 29 3 1 6 7
M TOR 30 3 1 6 17
M TOR 31 3 4 6 7
M TOR 32 3 4 6 17
M TOR 33 4 6 7 8
M TOR 34 4 6 7 18
M TOR 35 5 4 3 15
M TOR 36 5 4 3 16
M TOR 37 5 4 6 7
M TOR 38 5 4 6 17
M TOR 39 6 1 0 9
M TOR 40 6 1 0 10
M TOR 41 6 1 0 11
M TOR 42 6 1 2 12
M TOR 43 6 1 2 13
M TOR 44 6 1 2 14
M TOR 45 6 1 3 15
M TOR 46 6 1 3 16
M TOR 47 6 4 3 15
M TOR 48 6 4 3 16
M TOR 49 8 7 6 17
M  END
$$$$
