gdb 5512	2.3405456	1.291847	1.151092	3.0199	76.25	-0.24984	-0.00611	0.24373	1207.4828	0.154253	-422.513078	-422.503701	-422.502757	-422.547397	33.96
 OpenBabel02181911423D

 19 20  0  0  1  0  0  0  0  0999 V2000
    1.5717    1.3378    0.3174 C   0  0  0  0  0  0  0  0  0  0  0  0
    1.1158   -0.1175    0.1565 C   0  0  0  0  0  0  0  0  0  0  0  0
    1.6572   -0.7670   -1.1080 C   0  0  2  0  0  0  0  0  0  0  0  0
    1.0658   -0.4541   -2.5100 C   0  0  1  0  0  0  0  0  0  0  0  0
    1.6296   -1.7410   -2.9913 O   0  0  0  0  0  0  0  0  0  0  0  0
    1.0832   -2.1139   -1.6457 C   0  0  1  0  0  0  0  0  0  0  0  0
    1.2522   -3.5149   -1.1601 C   0  0  0  0  0  0  0  0  0  0  0  0
   -0.1654   -1.3197   -2.1374 C   0  0  0  0  0  0  0  0  0  0  0  0
   -1.3403   -1.4110   -2.2805 O   0  0  0  0  0  0  0  0  0  0  0  0
    1.1869    1.7701    1.2455 H   0  0  0  0  0  0  0  0  0  0  0  0
    2.6643    1.4099    0.3422 H   0  0  0  0  0  0  0  0  0  0  0  0
    1.2170    1.9595   -0.5114 H   0  0  0  0  0  0  0  0  0  0  0  0
    1.4486   -0.7044    1.0219 H   0  0  0  0  0  0  0  0  0  0  0  0
    0.0194   -0.1630    0.1599 H   0  0  0  0  0  0  0  0  0  0  0  0
    2.7508   -0.7785   -1.1600 H   0  0  0  0  0  0  0  0  0  0  0  0
    1.1853    0.4160   -3.1514 H   0  0  0  0  0  0  0  0  0  0  0  0
    0.7777   -3.6275   -0.1803 H   0  0  0  0  0  0  0  0  0  0  0  0
    0.7807   -4.2187   -1.8516 H   0  0  0  0  0  0  0  0  0  0  0  0
    2.3113   -3.7717   -1.0644 H   0  0  0  0  0  0  0  0  0  0  0  0
  1 11  1  0  0  0  0
  1 10  1  0  0  0  0
  2 14  1  0  0  0  0
  2  1  1  0  0  0  0
  2 13  1  0  0  0  0
  3 15  1  6  0  0  0
  3  2  1  0  0  0  0
  4 16  1  6  0  0  0
  4  8  1  0  0  0  0
  4  3  1  0  0  0  0
  5  4  1  0  0  0  0
  5  6  1  0  0  0  0
  6  7  1  1  0  0  0
  6  3  1  0  0  0  0
  7 19  1  0  0  0  0
  7 17  1  0  0  0  0
  8  6  1  0  0  0  0
  9  8  2  0  0  0  0
 12  1  1  0  0  0  0
 18  7  1  0  0  0  0
M TOR 0 0 1 2 3
M TOR 1 0 1 2 5
M TOR 2 0 1 2 14
M TOR 3 1 2 3 4
M TOR 4 1 2 3 7
M TOR 5 1 2 3 15
M TOR 6 1 2 5 4
M TOR 7 1 2 5 6
M TOR 8 1 2 5 7
M TOR 9 2 1 0 9
M TOR 10 2 1 0 10
M TOR 11 2 1 0 11
M TOR 12 2 3 4 5
M TOR 13 2 3 7 5
M TOR 14 2 3 7 8
M TOR 15 2 5 6 16
M TOR 16 2 5 6 17
M TOR 17 2 5 6 18
M TOR 18 2 5 7 8
M TOR 19 3 2 1 12
M TOR 20 3 2 1 13
M TOR 21 3 2 5 6
M TOR 22 3 4 5 6
M TOR 23 3 4 5 7
M TOR 24 3 7 5 6
M TOR 25 4 3 2 14
M TOR 26 4 3 7 8
M TOR 27 4 5 2 14
M TOR 28 4 5 6 16
M TOR 29 4 5 6 17
M TOR 30 4 5 6 18
M TOR 31 4 5 7 8
M TOR 32 5 2 1 12
M TOR 33 5 2 1 13
M TOR 34 5 2 3 15
M TOR 35 5 4 3 15
M TOR 36 5 7 3 15
M TOR 37 6 5 2 14
M TOR 38 6 5 7 8
M TOR 39 7 3 2 14
M TOR 40 7 5 2 14
M TOR 41 7 5 6 16
M TOR 42 7 5 6 17
M TOR 43 7 5 6 18
M TOR 44 8 7 3 15
M  END
$$$$
