
     RDKit          3D

 19 20  0  0  0  0  0  0  0  0999 V2000
    1.4830   -0.3821    0.5908 C   0  0  0  0  0  0  0  0  0  0  0  0
    0.0830   -0.3354    0.7360 O   0  0  0  0  0  0  0  0  0  0  0  0
   -0.4594    0.9233    0.4011 C   0  0  0  0  0  0  0  0  0  0  0  0
   -1.9615    0.8342    0.5028 C   0  0  0  0  0  0  0  0  0  0  0  0
   -2.6030    1.0375    1.8275 C   0  0  0  0  0  0  0  0  0  0  0  0
   -4.1104    0.7620    1.7155 C   0  0  0  0  0  0  0  0  0  0  0  0
   -4.1699    1.9257    0.6853 C   0  0  0  0  0  0  0  0  0  0  0  0
   -5.0777    2.5250    0.1838 O   0  0  0  0  0  0  0  0  0  0  0  0
   -2.6891    2.1551    0.7526 C   0  0  0  0  0  0  0  0  0  0  0  0
    1.9876    0.3415    1.2508 H   0  0  0  0  0  0  0  0  0  0  0  0
    1.8055   -1.3903    0.8610 H   0  0  0  0  0  0  0  0  0  0  0  0
    1.7938   -0.1741   -0.4453 H   0  0  0  0  0  0  0  0  0  0  0  0
   -0.0761    1.7059    1.0792 H   0  0  0  0  0  0  0  0  0  0  0  0
   -0.1632    1.2095   -0.6224 H   0  0  0  0  0  0  0  0  0  0  0  0
   -2.4033    0.1159   -0.1850 H   0  0  0  0  0  0  0  0  0  0  0  0
   -2.0382    1.0740    2.7493 H   0  0  0  0  0  0  0  0  0  0  0  0
   -4.4075   -0.2365    1.3821 H   0  0  0  0  0  0  0  0  0  0  0  0
   -4.6858    1.0305    2.6061 H   0  0  0  0  0  0  0  0  0  0  0  0
   -2.1726    3.1037    0.6660 H   0  0  0  0  0  0  0  0  0  0  0  0
  1  2  1  0
  2  3  1  0
  3  4  1  0
  4  5  1  0
  5  6  1  0
  6  7  1  0
  7  8  2  0
  7  9  1  0
  9  4  1  0
  9  5  1  0
  1 10  1  0
  1 11  1  0
  1 12  1  0
  3 13  1  0
  3 14  1  0
  4 15  1  0
  5 16  1  0
  6 17  1  0
  6 18  1  0
  9 19  1  0
M  END
$$$$
