
     RDKit          3D

 19 21  0  0  0  0  0  0  0  0999 V2000
    1.4765    0.1509   -0.0580 C   0  0  0  0  0  0  0  0  0  0  0  0
    0.0656    0.0168    0.0289 O   0  0  0  0  0  0  0  0  0  0  0  0
   -0.4586    0.5589    1.1792 C   0  0  0  0  0  0  0  0  0  0  0  0
   -0.7028    2.0366    1.3439 C   0  0  0  0  0  0  0  0  0  0  0  0
   -1.8630    1.0526    1.4045 C   0  0  0  0  0  0  0  0  0  0  0  0
   -1.9378    0.2506    2.7304 C   0  0  0  0  0  0  0  0  0  0  0  0
   -0.8530    0.5579    3.7310 C   0  0  0  0  0  0  0  0  0  0  0  0
   -0.8983   -0.1033    4.9631 O   0  0  0  0  0  0  0  0  0  0  0  0
   -0.5061   -0.2540    2.5102 C   0  0  0  0  0  0  0  0  0  0  0  0
    1.9837   -0.3578    0.7736 H   0  0  0  0  0  0  0  0  0  0  0  0
    1.7831   -0.3123   -0.9983 H   0  0  0  0  0  0  0  0  0  0  0  0
    1.7779    1.2073   -0.0569 H   0  0  0  0  0  0  0  0  0  0  0  0
   -0.3746    2.6312    2.1890 H   0  0  0  0  0  0  0  0  0  0  0  0
   -0.6638    2.5662    0.3961 H   0  0  0  0  0  0  0  0  0  0  0  0
   -2.6875    1.1134    0.7061 H   0  0  0  0  0  0  0  0  0  0  0  0
   -2.8132   -0.3173    3.0238 H   0  0  0  0  0  0  0  0  0  0  0  0
   -0.4726    1.5593    3.8946 H   0  0  0  0  0  0  0  0  0  0  0  0
   -1.2502   -0.9894    4.8248 H   0  0  0  0  0  0  0  0  0  0  0  0
   -0.1277   -1.2669    2.5843 H   0  0  0  0  0  0  0  0  0  0  0  0
  1  2  1  0
  2  3  1  0
  3  4  1  0
  4  5  1  0
  5  6  1  0
  6  7  1  0
  7  8  1  0
  7  9  1  0
  5  3  1  0
  9  6  1  0
  9  3  1  0
  1 10  1  0
  1 11  1  0
  1 12  1  0
  4 13  1  0
  4 14  1  0
  5 15  1  0
  6 16  1  0
  7 17  1  0
  8 18  1  0
  9 19  1  0
M  END
$$$$
