gdb 3115	2.2033754	1.797048	1.2969466	2.3705	75.49	-0.25222	0.07921	0.33143	1052.2656	0.155584	-422.508174	-422.499517	-422.498572	-422.541006	33.235
 OpenBabel02181911413D

 19 21  0  0  1  0  0  0  0  0999 V2000
   -1.0312    2.6907    3.5371 C   0  0  0  0  0  0  0  0  0  0  0  0
   -1.4496    1.7841    2.4165 C   0  0  2  0  0  0  0  0  0  0  0  0
   -2.7300    0.9843    2.4007 C   0  0  0  0  0  0  0  0  0  0  0  0
   -1.4269    0.2493    2.2754 C   0  0  1  0  0  0  0  0  0  0  0  0
   -0.9556    0.3475    0.8079 C   0  0  2  0  0  0  0  0  0  0  0  0
    0.3099   -0.1775    0.5193 O   0  0  0  0  0  0  0  0  0  0  0  0
   -0.9339    1.8883    0.9982 C   0  0  1  0  0  0  0  0  0  0  0  0
   -0.8473    2.9802    0.0305 C   0  0  0  0  0  0  0  0  0  0  0  0
    0.3198    2.5229    0.7511 O   0  0  0  0  0  0  0  0  0  0  0  0
    0.0477    2.8704    3.5104 H   0  0  0  0  0  0  0  0  0  0  0  0
   -1.5347    3.6630    3.4757 H   0  0  0  0  0  0  0  0  0  0  0  0
   -1.2838    2.2506    4.5068 H   0  0  0  0  0  0  0  0  0  0  0  0
   -3.2261    0.9088    3.3634 H   0  0  0  0  0  0  0  0  0  0  0  0
   -3.4144    1.0354    1.5556 H   0  0  0  0  0  0  0  0  0  0  0  0
   -1.0891   -0.4993    2.9808 H   0  0  0  0  0  0  0  0  0  0  0  0
   -1.6786   -0.0460    0.0813 H   0  0  0  0  0  0  0  0  0  0  0  0
    0.9215    0.5728    0.5096 H   0  0  0  0  0  0  0  0  0  0  0  0
   -0.8445    2.7597   -1.0358 H   0  0  0  0  0  0  0  0  0  0  0  0
   -1.1820    3.9810    0.2984 H   0  0  0  0  0  0  0  0  0  0  0  0
  1 12  1  0  0  0  0
  2  1  1  1  0  0  0
  3  2  1  0  0  0  0
  3 13  1  0  0  0  0
  4  3  1  0  0  0  0
  4  2  1  0  0  0  0
  4 15  1  1  0  0  0
  5 16  1  6  0  0  0
  5  7  1  0  0  0  0
  5  4  1  0  0  0  0
  6  5  1  0  0  0  0
  7  9  1  1  0  0  0
  7  2  1  0  0  0  0
  8 19  1  0  0  0  0
  8  9  1  0  0  0  0
  8  7  1  0  0  0  0
 10  1  1  0  0  0  0
 11  1  1  0  0  0  0
 14  3  1  0  0  0  0
 17  6  1  0  0  0  0
 18  8  1  0  0  0  0
M TOR 0 0 1 2 3
M TOR 1 0 1 2 12
M TOR 2 0 1 2 13
M TOR 3 0 1 3 4
M TOR 4 0 1 3 14
M TOR 5 0 1 6 4
M TOR 6 0 1 6 7
M TOR 7 0 1 6 8
M TOR 8 1 2 3 4
M TOR 9 1 2 3 14
M TOR 10 1 3 2 12
M TOR 11 1 3 2 13
M TOR 12 1 3 4 5
M TOR 13 1 3 4 6
M TOR 14 1 3 4 15
M TOR 15 1 6 4 5
M TOR 16 1 6 4 15
M TOR 17 1 6 7 8
M TOR 18 1 6 7 17
M TOR 19 1 6 7 18
M TOR 20 2 1 0 9
M TOR 21 2 1 0 10
M TOR 22 2 1 0 11
M TOR 23 2 1 6 4
M TOR 24 2 1 6 7
M TOR 25 2 1 6 8
M TOR 26 2 3 1 6
M TOR 27 2 3 4 5
M TOR 28 2 3 4 6
M TOR 29 2 3 4 15
M TOR 30 3 1 0 9
M TOR 31 3 1 0 10
M TOR 32 3 1 0 11
M TOR 33 3 1 6 7
M TOR 34 3 1 6 8
M TOR 35 3 4 5 16
M TOR 36 3 4 6 7
M TOR 37 3 4 6 8
M TOR 38 4 3 2 12
M TOR 39 4 3 2 13
M TOR 40 4 6 7 8
M TOR 41 4 6 7 17
M TOR 42 4 6 7 18
M TOR 43 5 4 3 14
M TOR 44 5 4 6 7
M TOR 45 5 4 6 8
M TOR 46 6 1 0 9
M TOR 47 6 1 0 10
M TOR 48 6 1 0 11
M TOR 49 6 1 2 12
M TOR 50 6 1 2 13
M TOR 51 6 1 3 14
M TOR 52 6 4 3 14
M TOR 53 6 4 5 16
M TOR 54 6 8 7 17
M TOR 55 6 8 7 18
M TOR 56 7 6 4 15
M TOR 57 8 6 4 15
M  END
$$$$
