gdb 1902	2.5756519	1.6145726	1.2106963	3.1732	76.39	-0.23902	-0.02633	0.21269000000000002	1073.1659	0.156168	-422.563181	-422.554612	-422.553668	-422.595907	32.473
 OpenBabel02181911403D

 19 20  0  0  1  0  0  0  0  0999 V2000
    0.1070    0.1757   -0.5634 C   0  0  0  0  0  0  0  0  0  0  0  0
    1.4418    0.0261    0.1235 C   0  0  1  0  0  0  0  0  0  0  0  0
    1.8495   -1.2959    0.7175 C   0  0  0  0  0  0  0  0  0  0  0  0
    2.6176   -0.7606   -0.4767 C   0  0  2  0  0  0  0  0  0  0  0  0
    3.8257   -0.0883   -0.2549 O   0  0  0  0  0  0  0  0  0  0  0  0
    3.6114    0.9020    0.7541 C   0  0  0  0  0  0  0  0  0  0  0  0
    2.1131    1.2639    0.7105 C   0  0  0  0  0  0  0  0  0  0  0  0
    2.5420   -1.4233   -1.7940 C   0  0  0  0  0  0  0  0  0  0  0  0
    1.6437   -2.1575   -2.1381 O   0  0  0  0  0  0  0  0  0  0  0  0
   -0.6830    0.3698    0.1710 H   0  0  0  0  0  0  0  0  0  0  0  0
    0.1180    1.0124   -1.2708 H   0  0  0  0  0  0  0  0  0  0  0  0
   -0.1527   -0.7318   -1.1132 H   0  0  0  0  0  0  0  0  0  0  0  0
    2.3689   -1.3346    1.6693 H   0  0  0  0  0  0  0  0  0  0  0  0
    1.2056   -2.1428    0.5052 H   0  0  0  0  0  0  0  0  0  0  0  0
    3.8892    0.4972    1.7365 H   0  0  0  0  0  0  0  0  0  0  0  0
    4.2713    1.7469    0.5410 H   0  0  0  0  0  0  0  0  0  0  0  0
    1.7335    1.5311    1.7017 H   0  0  0  0  0  0  0  0  0  0  0  0
    1.9320    2.1139    0.0438 H   0  0  0  0  0  0  0  0  0  0  0  0
    3.3908   -1.1734   -2.4655 H   0  0  0  0  0  0  0  0  0  0  0  0
  1 10  1  0  0  0  0
  2  1  1  6  0  0  0
  2  7  1  0  0  0  0
  2  3  1  0  0  0  0
  3 13  1  0  0  0  0
  4  8  1  6  0  0  0
  4  5  1  0  0  0  0
  4  2  1  0  0  0  0
  4  3  1  0  0  0  0
  5  6  1  0  0  0  0
  6 15  1  0  0  0  0
  7  6  1  0  0  0  0
  7 17  1  0  0  0  0
  9  8  2  0  0  0  0
 11  1  1  0  0  0  0
 12  1  1  0  0  0  0
 14  3  1  0  0  0  0
 16  6  1  0  0  0  0
 18  7  1  0  0  0  0
 19  8  1  0  0  0  0
M TOR 0 0 1 2 3
M TOR 1 0 1 2 12
M TOR 2 0 1 2 13
M TOR 3 0 1 3 4
M TOR 4 0 1 3 7
M TOR 5 0 1 6 5
M TOR 6 0 1 6 16
M TOR 7 0 1 6 17
M TOR 8 1 2 3 4
M TOR 9 1 2 3 7
M TOR 10 1 3 2 12
M TOR 11 1 3 2 13
M TOR 12 1 3 4 5
M TOR 13 1 3 7 8
M TOR 14 1 3 7 18
M TOR 15 1 6 5 4
M TOR 16 1 6 5 14
M TOR 17 1 6 5 15
M TOR 18 2 1 0 9
M TOR 19 2 1 0 10
M TOR 20 2 1 0 11
M TOR 21 2 1 6 5
M TOR 22 2 1 6 16
M TOR 23 2 1 6 17
M TOR 24 2 3 1 6
M TOR 25 2 3 4 5
M TOR 26 2 3 7 8
M TOR 27 2 3 7 18
M TOR 28 3 1 0 9
M TOR 29 3 1 0 10
M TOR 30 3 1 0 11
M TOR 31 3 1 6 5
M TOR 32 3 1 6 16
M TOR 33 3 1 6 17
M TOR 34 3 4 5 6
M TOR 35 3 4 5 14
M TOR 36 3 4 5 15
M TOR 37 4 3 1 6
M TOR 38 4 3 2 12
M TOR 39 4 3 2 13
M TOR 40 4 3 7 8
M TOR 41 4 3 7 18
M TOR 42 4 5 6 16
M TOR 43 4 5 6 17
M TOR 44 5 4 3 7
M TOR 45 6 1 0 9
M TOR 46 6 1 0 10
M TOR 47 6 1 0 11
M TOR 48 6 1 2 12
M TOR 49 6 1 2 13
M TOR 50 6 1 3 7
M TOR 51 7 3 2 12
M TOR 52 7 3 2 13
M  END
$$$$
