
     RDKit          3D

 19 21  0  0  0  0  0  0  0  0999 V2000
   -0.2423   -0.1458   -0.0930 C   0  0  0  0  0  0  0  0  0  0  0  0
    1.1926   -0.0999   -0.5653 C   0  0  0  0  0  0  0  0  0  0  0  0
    1.7628    0.8143   -1.4781 O   0  0  0  0  0  0  0  0  0  0  0  0
    2.1672    1.9120   -0.6294 C   0  0  0  0  0  0  0  0  0  0  0  0
    0.9181    2.1221    0.2228 C   0  0  0  0  0  0  0  0  0  0  0  0
    0.7911    0.6562    0.6714 C   0  0  0  0  0  0  0  0  0  0  0  0
    1.7241    0.3939    1.8243 C   0  0  0  0  0  0  0  0  0  0  0  0
    3.0648    0.5514    1.3216 O   0  0  0  0  0  0  0  0  0  0  0  0
    3.3204    1.5703    0.3488 C   0  0  0  0  0  0  0  0  0  0  0  0
   -1.0173    0.4292   -0.5898 H   0  0  0  0  0  0  0  0  0  0  0  0
   -0.5714   -1.1113    0.2820 H   0  0  0  0  0  0  0  0  0  0  0  0
    1.7665   -1.0146   -0.4549 H   0  0  0  0  0  0  0  0  0  0  0  0
    2.4734    2.7358   -1.2810 H   0  0  0  0  0  0  0  0  0  0  0  0
    1.0563    2.8058    1.0646 H   0  0  0  0  0  0  0  0  0  0  0  0
    0.0749    2.4656   -0.3805 H   0  0  0  0  0  0  0  0  0  0  0  0
    1.5473    1.0773    2.6685 H   0  0  0  0  0  0  0  0  0  0  0  0
    1.6734   -0.6333    2.1983 H   0  0  0  0  0  0  0  0  0  0  0  0
    3.5893    2.5153    0.8507 H   0  0  0  0  0  0  0  0  0  0  0  0
    4.1981    1.2228   -0.2051 H   0  0  0  0  0  0  0  0  0  0  0  0
  1  2  1  0
  2  3  1  0
  3  4  1  0
  4  5  1  0
  5  6  1  0
  6  7  1  0
  7  8  1  0
  8  9  1  0
  6  1  1  0
  6  2  1  0
  9  4  1  0
  1 10  1  0
  1 11  1  0
  2 12  1  0
  4 13  1  0
  5 14  1  0
  5 15  1  0
  7 16  1  0
  7 17  1  0
  9 18  1  0
  9 19  1  0
M  END
$$$$
