gdb 797	3.2718237	1.375633	1.1597665	1.7002	75.41	-0.24601	-0.0285	0.21751	1083.7528	0.158192	-422.556097	-422.548364	-422.54742	-422.588303	30.093
 OpenBabel02181911403D

 19 20  0  0  1  0  0  0  0  0999 V2000
    0.9964   -0.6992   -0.5223 O   0  0  0  0  0  0  0  0  0  0  0  0
    0.1831    0.0163    0.0063 C   0  0  0  0  0  0  0  0  0  0  0  0
   -0.4534    1.2222   -0.6182 C   0  0  2  0  0  0  0  0  0  0  0  0
   -0.4684    2.5421    0.2234 C   0  0  0  0  0  0  0  0  0  0  0  0
   -1.8086    2.8459   -0.4957 C   0  0  2  0  0  0  0  0  0  0  0  0
   -2.0202    1.3091   -0.5781 C   0  0  0  0  0  0  0  0  0  0  0  0
   -1.5648    3.4332   -1.7622 O   0  0  0  0  0  0  0  0  0  0  0  0
   -0.9310    2.5516   -2.6918 C   0  0  0  0  0  0  0  0  0  0  0  0
    0.0486    1.5611   -2.0285 C   0  0  0  0  0  0  0  0  0  0  0  0
   -0.1665   -0.1840    1.0479 H   0  0  0  0  0  0  0  0  0  0  0  0
   -0.6065    2.3482    1.2916 H   0  0  0  0  0  0  0  0  0  0  0  0
    0.3535    3.2442    0.0666 H   0  0  0  0  0  0  0  0  0  0  0  0
   -2.5557    3.4689   -0.0008 H   0  0  0  0  0  0  0  0  0  0  0  0
   -2.4169    0.9207    0.3638 H   0  0  0  0  0  0  0  0  0  0  0  0
   -2.5875    0.8895   -1.4111 H   0  0  0  0  0  0  0  0  0  0  0  0
   -1.7030    1.9897   -3.2357 H   0  0  0  0  0  0  0  0  0  0  0  0
   -0.4237    3.1891   -3.4207 H   0  0  0  0  0  0  0  0  0  0  0  0
    0.1274    0.6547   -2.6365 H   0  0  0  0  0  0  0  0  0  0  0  0
    1.0568    1.9826   -1.9560 H   0  0  0  0  0  0  0  0  0  0  0  0
  1  2  2  0  0  0  0
  2 10  1  0  0  0  0
  3  6  1  0  0  0  0
  3  2  1  1  0  0  0
  3  4  1  0  0  0  0
  4 11  1  0  0  0  0
  5 13  1  1  0  0  0
  5  4  1  0  0  0  0
  6  5  1  0  0  0  0
  6 14  1  0  0  0  0
  7  5  1  0  0  0  0
  8  9  1  0  0  0  0
  8  7  1  0  0  0  0
  9 19  1  0  0  0  0
  9  3  1  0  0  0  0
 12  4  1  0  0  0  0
 15  6  1  0  0  0  0
 16  8  1  0  0  0  0
 17  8  1  0  0  0  0
 18  9  1  0  0  0  0
M TOR 0 0 1 2 3
M TOR 1 0 1 2 5
M TOR 2 0 1 2 8
M TOR 3 1 2 3 4
M TOR 4 1 2 3 10
M TOR 5 1 2 3 11
M TOR 6 1 2 5 4
M TOR 7 1 2 5 13
M TOR 8 1 2 5 14
M TOR 9 1 2 8 7
M TOR 10 1 2 8 17
M TOR 11 1 2 8 18
M TOR 12 2 3 4 5
M TOR 13 2 3 4 6
M TOR 14 2 3 4 12
M TOR 15 2 5 4 6
M TOR 16 2 5 4 12
M TOR 17 2 8 7 6
M TOR 18 2 8 7 15
M TOR 19 2 8 7 16
M TOR 20 3 2 1 9
M TOR 21 3 2 5 13
M TOR 22 3 2 5 14
M TOR 23 3 2 8 7
M TOR 24 3 2 8 17
M TOR 25 3 2 8 18
M TOR 26 3 4 5 13
M TOR 27 3 4 5 14
M TOR 28 3 4 6 7
M TOR 29 4 3 2 8
M TOR 30 4 5 2 8
M TOR 31 4 6 7 8
M TOR 32 4 6 7 15
M TOR 33 4 6 7 16
M TOR 34 5 2 1 9
M TOR 35 5 2 3 10
M TOR 36 5 2 3 11
M TOR 37 5 2 8 7
M TOR 38 5 2 8 17
M TOR 39 5 2 8 18
M TOR 40 5 4 3 10
M TOR 41 5 4 3 11
M TOR 42 5 4 6 7
M TOR 43 6 4 3 10
M TOR 44 6 4 3 11
M TOR 45 6 4 5 13
M TOR 46 6 4 5 14
M TOR 47 6 7 8 17
M TOR 48 6 7 8 18
M TOR 49 7 6 4 12
M TOR 50 8 2 1 9
M TOR 51 8 2 3 10
M TOR 52 8 2 3 11
M TOR 53 8 2 5 13
M TOR 54 8 2 5 14
M  END
$$$$
