
     RDKit          3D

 19 19  0  0  0  0  0  0  0  0999 V2000
   -3.6783    3.9180    2.2967 C   0  0  0  0  0  0  0  0  0  0  0  0
   -2.8457    3.0536    1.4050 C   0  0  0  0  0  0  0  0  0  0  0  0
   -1.6787    2.4764    1.6990 C   0  0  0  0  0  0  0  0  0  0  0  0
   -1.0986    1.7310    0.5346 C   0  0  0  0  0  0  0  0  0  0  0  0
   -2.2500    1.6904   -0.4957 C   0  0  0  0  0  0  0  0  0  0  0  0
   -3.2533    2.7711   -0.0265 C   0  0  0  0  0  0  0  0  0  0  0  0
   -0.6981    0.3975    0.9692 O   0  0  0  0  0  0  0  0  0  0  0  0
    0.1602   -0.2503    0.1753 C   0  0  0  0  0  0  0  0  0  0  0  0
    0.6095    0.1447   -0.8672 O   0  0  0  0  0  0  0  0  0  0  0  0
   -3.2342    4.0262    3.2895 H   0  0  0  0  0  0  0  0  0  0  0  0
   -3.8058    4.9202    1.8681 H   0  0  0  0  0  0  0  0  0  0  0  0
   -4.6864    3.5010    2.4139 H   0  0  0  0  0  0  0  0  0  0  0  0
   -1.1559    2.5553    2.6455 H   0  0  0  0  0  0  0  0  0  0  0  0
   -0.1987    2.2053    0.1300 H   0  0  0  0  0  0  0  0  0  0  0  0
   -1.8968    1.8345   -1.5178 H   0  0  0  0  0  0  0  0  0  0  0  0
   -2.7113    0.7001   -0.4411 H   0  0  0  0  0  0  0  0  0  0  0  0
   -3.1759    3.6858   -0.6302 H   0  0  0  0  0  0  0  0  0  0  0  0
   -4.2975    2.4453   -0.1051 H   0  0  0  0  0  0  0  0  0  0  0  0
    0.3998   -1.2232    0.6339 H   0  0  0  0  0  0  0  0  0  0  0  0
  1  2  1  0
  2  3  2  0
  3  4  1  0
  4  5  1  0
  5  6  1  0
  4  7  1  0
  7  8  1  0
  8  9  2  0
  6  2  1  0
  1 10  1  0
  1 11  1  0
  1 12  1  0
  3 13  1  0
  4 14  1  0
  5 15  1  0
  5 16  1  0
  6 17  1  0
  6 18  1  0
  8 19  1  0
M  END
$$$$
