
     RDKit          3D

 19 20  0  0  0  0  0  0  0  0999 V2000
   -0.5755    2.3324    1.1316 C   0  0  0  0  0  0  0  0  0  0  0  0
   -0.8494    1.2242    0.1179 C   0  0  0  0  0  0  0  0  0  0  0  0
   -2.3015    0.6856    0.0811 C   0  0  0  0  0  0  0  0  0  0  0  0
   -2.1589   -0.7815   -0.2869 C   0  0  0  0  0  0  0  0  0  0  0  0
   -1.3145   -0.9893   -1.4180 O   0  0  0  0  0  0  0  0  0  0  0  0
   -0.7670   -1.2415   -0.0988 C   0  0  0  0  0  0  0  0  0  0  0  0
   -0.2996   -2.6284    0.2193 C   0  0  0  0  0  0  0  0  0  0  0  0
    0.0099   -0.0283    0.3648 C   0  0  0  0  0  0  0  0  0  0  0  0
    1.0912   -0.0574    0.8974 O   0  0  0  0  0  0  0  0  0  0  0  0
   -0.8648    2.0228    2.1414 H   0  0  0  0  0  0  0  0  0  0  0  0
    0.4908    2.5706    1.1517 H   0  0  0  0  0  0  0  0  0  0  0  0
   -1.1326    3.2403    0.8821 H   0  0  0  0  0  0  0  0  0  0  0  0
   -0.5801    1.5774   -0.8853 H   0  0  0  0  0  0  0  0  0  0  0  0
   -2.7673    0.7682    1.0707 H   0  0  0  0  0  0  0  0  0  0  0  0
   -2.9378    1.2235   -0.6281 H   0  0  0  0  0  0  0  0  0  0  0  0
   -2.9963   -1.4696   -0.1953 H   0  0  0  0  0  0  0  0  0  0  0  0
   -0.2292   -2.7697    1.3019 H   0  0  0  0  0  0  0  0  0  0  0  0
   -0.9879   -3.3694   -0.1935 H   0  0  0  0  0  0  0  0  0  0  0  0
    0.6960   -2.7988   -0.2007 H   0  0  0  0  0  0  0  0  0  0  0  0
  1  2  1  0
  2  3  1  0
  3  4  1  0
  4  5  1  0
  5  6  1  0
  6  7  1  0
  6  8  1  0
  8  9  2  0
  8  2  1  0
  6  4  1  0
  1 10  1  0
  1 11  1  0
  1 12  1  0
  2 13  1  0
  3 14  1  0
  3 15  1  0
  4 16  1  0
  7 17  1  0
  7 18  1  0
  7 19  1  0
M  END
$$$$
