
     RDKit          3D

 19 18  0  0  0  0  0  0  0  0999 V2000
   -1.8341    1.7409   -2.6027 C   0  0  0  0  0  0  0  0  0  0  0  0
   -1.2425    2.2182   -1.2720 C   0  0  0  0  0  0  0  0  0  0  0  0
    0.1690    2.3129   -1.4933 O   0  0  0  0  0  0  0  0  0  0  0  0
   -1.5771    1.3102   -0.0814 C   0  0  0  0  0  0  0  0  0  0  0  0
   -1.0684   -0.1362   -0.2441 C   0  0  0  0  0  0  0  0  0  0  0  0
   -1.2447   -0.9250    0.9686 C   0  0  0  0  0  0  0  0  0  0  0  0
   -1.3996   -1.5532    1.9815 C   0  0  0  0  0  0  0  0  0  0  0  0
   -1.7560    3.6436   -1.0286 C   0  0  0  0  0  0  0  0  0  0  0  0
   -2.5541    3.9687   -0.1903 O   0  0  0  0  0  0  0  0  0  0  0  0
   -1.3555    0.8083   -2.9117 H   0  0  0  0  0  0  0  0  0  0  0  0
   -2.9119    1.5810   -2.5143 H   0  0  0  0  0  0  0  0  0  0  0  0
   -1.6509    2.4813   -3.3872 H   0  0  0  0  0  0  0  0  0  0  0  0
    0.5876    2.5719   -0.6640 H   0  0  0  0  0  0  0  0  0  0  0  0
   -1.1366    1.7456    0.8237 H   0  0  0  0  0  0  0  0  0  0  0  0
   -2.6577    1.3189    0.0849 H   0  0  0  0  0  0  0  0  0  0  0  0
   -1.5914   -0.6288   -1.0725 H   0  0  0  0  0  0  0  0  0  0  0  0
   -0.0084   -0.1137   -0.5238 H   0  0  0  0  0  0  0  0  0  0  0  0
   -1.5322   -2.1189    2.8701 H   0  0  0  0  0  0  0  0  0  0  0  0
   -1.2885    4.3822   -1.7201 H   0  0  0  0  0  0  0  0  0  0  0  0
  1  2  1  0
  2  3  1  0
  2  4  1  0
  4  5  1  0
  5  6  1  0
  6  7  3  0
  2  8  1  0
  8  9  2  0
  1 10  1  0
  1 11  1  0
  1 12  1  0
  3 13  1  0
  4 14  1  0
  4 15  1  0
  5 16  1  0
  5 17  1  0
  7 18  1  0
  8 19  1  0
M  END
$$$$
