
     RDKit          3D

 19 19  0  0  0  0  0  0  0  0999 V2000
    2.0821    2.6863    0.0425 O   0  0  0  0  0  0  0  0  0  0  0  0
    1.2969    2.1115    0.7487 C   0  0  0  0  0  0  0  0  0  0  0  0
   -0.0832    1.6132    0.3100 C   0  0  0  0  0  0  0  0  0  0  0  0
   -1.1431    1.9481    1.3981 C   0  0  0  0  0  0  0  0  0  0  0  0
   -2.3367    2.5225    0.6148 C   0  0  0  0  0  0  0  0  0  0  0  0
   -1.6850    3.2388   -0.5786 C   0  0  0  0  0  0  0  0  0  0  0  0
   -0.5562    2.2861   -1.0102 C   0  0  0  0  0  0  0  0  0  0  0  0
    0.0742    0.1037    0.1039 C   0  0  0  0  0  0  0  0  0  0  0  0
   -0.2990   -0.7425    0.8721 O   0  0  0  0  0  0  0  0  0  0  0  0
    1.5300    1.8906    1.8133 H   0  0  0  0  0  0  0  0  0  0  0  0
   -1.3877    1.0595    1.9835 H   0  0  0  0  0  0  0  0  0  0  0  0
   -0.7470    2.6997    2.0917 H   0  0  0  0  0  0  0  0  0  0  0  0
   -2.9719    1.7043    0.2546 H   0  0  0  0  0  0  0  0  0  0  0  0
   -2.9638    3.1782    1.2246 H   0  0  0  0  0  0  0  0  0  0  0  0
   -2.3854    3.4559   -1.3894 H   0  0  0  0  0  0  0  0  0  0  0  0
   -1.2584    4.1942   -0.2500 H   0  0  0  0  0  0  0  0  0  0  0  0
   -0.9427    1.5283   -1.7024 H   0  0  0  0  0  0  0  0  0  0  0  0
    0.2771    2.7877   -1.5065 H   0  0  0  0  0  0  0  0  0  0  0  0
    0.5832   -0.1628   -0.8481 H   0  0  0  0  0  0  0  0  0  0  0  0
  1  2  2  0
  2  3  1  0
  3  4  1  0
  4  5  1  0
  5  6  1  0
  6  7  1  0
  3  8  1  0
  8  9  2  0
  7  3  1  0
  2 10  1  0
  4 11  1  0
  4 12  1  0
  5 13  1  0
  5 14  1  0
  6 15  1  0
  6 16  1  0
  7 17  1  0
  7 18  1  0
  8 19  1  0
M  END
$$$$
