gdb 1099	3.3106458	1.1422223	0.8796324	1.9466	79.79	-0.24349	-0.04778	0.19571	1313.5032	0.156746	-422.58025	-422.571406	-422.570462	-422.614205	32.378
 OpenBabel02181911403D

 19 19  0  0  0  0  0  0  0  0999 V2000
   -2.2624   -2.1299   -1.1697 C   0  0  0  0  0  0  0  0  0  0  0  0
   -1.1615   -1.4465   -0.3759 C   0  0  0  0  0  0  0  0  0  0  0  0
   -0.5339   -2.0559    0.4669 O   0  0  0  0  0  0  0  0  0  0  0  0
   -0.8797   -0.0045   -0.6740 C   0  0  0  0  0  0  0  0  0  0  0  0
    0.0901    0.6207    0.0060 C   0  0  0  0  0  0  0  0  0  0  0  0
    0.4058    2.0722   -0.1900 C   0  0  0  0  0  0  0  0  0  0  0  0
   -0.7251    2.7562   -0.9614 C   0  0  0  0  0  0  0  0  0  0  0  0
   -1.1045    1.9804   -2.0849 O   0  0  0  0  0  0  0  0  0  0  0  0
   -1.6783    0.7400   -1.7235 C   0  0  0  0  0  0  0  0  0  0  0  0
   -2.4083   -3.1389   -0.7837 H   0  0  0  0  0  0  0  0  0  0  0  0
   -3.2026   -1.5704   -1.1095 H   0  0  0  0  0  0  0  0  0  0  0  0
   -1.9915   -2.1854   -2.2305 H   0  0  0  0  0  0  0  0  0  0  0  0
    0.6585    0.0459    0.7319 H   0  0  0  0  0  0  0  0  0  0  0  0
    0.5589    2.5629    0.7797 H   0  0  0  0  0  0  0  0  0  0  0  0
    1.3552    2.1734   -0.7345 H   0  0  0  0  0  0  0  0  0  0  0  0
   -1.5894    2.9139   -0.2953 H   0  0  0  0  0  0  0  0  0  0  0  0
   -0.4165    3.7299   -1.3505 H   0  0  0  0  0  0  0  0  0  0  0  0
   -2.7179    0.8873   -1.3758 H   0  0  0  0  0  0  0  0  0  0  0  0
   -1.7368    0.1623   -2.6523 H   0  0  0  0  0  0  0  0  0  0  0  0
  1 11  1  0  0  0  0
  1 10  1  0  0  0  0
  1  2  1  0  0  0  0
  2  3  2  0  0  0  0
  4  2  1  0  0  0  0
  4  5  2  0  0  0  0
  5 13  1  0  0  0  0
  6  5  1  0  0  0  0
  6 14  1  0  0  0  0
  7 16  1  0  0  0  0
  7  6  1  0  0  0  0
  8  9  1  0  0  0  0
  8  7  1  0  0  0  0
  9 18  1  0  0  0  0
  9  4  1  0  0  0  0
 12  1  1  0  0  0  0
 15  6  1  0  0  0  0
 17  7  1  0  0  0  0
 19  9  1  0  0  0  0
M TOR 0 0 1 3 4
M TOR 1 0 1 3 8
M TOR 2 1 3 4 5
M TOR 3 1 3 4 12
M TOR 4 1 3 8 7
M TOR 5 1 3 8 17
M TOR 6 1 3 8 18
M TOR 7 2 1 0 9
M TOR 8 2 1 0 10
M TOR 9 2 1 0 11
M TOR 10 2 1 3 4
M TOR 11 2 1 3 8
M TOR 12 3 1 0 9
M TOR 13 3 1 0 10
M TOR 14 3 1 0 11
M TOR 15 3 4 5 6
M TOR 16 3 4 5 13
M TOR 17 3 4 5 14
M TOR 18 3 8 7 6
M TOR 19 4 3 8 7
M TOR 20 4 3 8 17
M TOR 21 4 3 8 18
M TOR 22 4 5 6 7
M TOR 23 4 5 6 15
M TOR 24 4 5 6 16
M TOR 25 5 4 3 8
M TOR 26 5 6 7 8
M TOR 27 6 5 4 12
M TOR 28 6 7 8 17
M TOR 29 6 7 8 18
M TOR 30 7 6 5 13
M TOR 31 7 6 5 14
M TOR 32 8 3 4 12
M TOR 33 8 7 6 15
M TOR 34 8 7 6 16
M  END
$$$$
