
     RDKit          3D

 19 20  0  0  0  0  0  0  0  0999 V2000
    1.3414    0.7928   -0.0389 O   0  0  0  0  0  0  0  0  0  0  0  0
    0.3941   -0.0670    0.5712 C   0  0  0  0  0  0  0  0  0  0  0  0
   -0.9241    0.6408    0.8969 C   0  0  0  0  0  0  0  0  0  0  0  0
   -1.9934   -0.2931    1.4927 C   0  0  0  0  0  0  0  0  0  0  0  0
   -3.1944    0.4563    2.0445 C   0  0  0  0  0  0  0  0  0  0  0  0
   -4.3325    0.1439    1.4197 C   0  0  0  0  0  0  0  0  0  0  0  0
   -4.0813   -0.9192    0.4029 C   0  0  0  0  0  0  0  0  0  0  0  0
   -3.5753   -2.1486    0.9787 O   0  0  0  0  0  0  0  0  0  0  0  0
   -2.6378   -1.2134    0.4511 C   0  0  0  0  0  0  0  0  0  0  0  0
    1.5373    1.5027    0.5812 H   0  0  0  0  0  0  0  0  0  0  0  0
    0.2308   -0.8764   -0.1482 H   0  0  0  0  0  0  0  0  0  0  0  0
    0.8006   -0.5309    1.4852 H   0  0  0  0  0  0  0  0  0  0  0  0
   -0.7215    1.4499    1.6124 H   0  0  0  0  0  0  0  0  0  0  0  0
   -1.3094    1.1198   -0.0111 H   0  0  0  0  0  0  0  0  0  0  0  0
   -1.5332   -0.8989    2.2867 H   0  0  0  0  0  0  0  0  0  0  0  0
   -3.1007    1.1480    2.8751 H   0  0  0  0  0  0  0  0  0  0  0  0
   -5.3123    0.5525    1.6329 H   0  0  0  0  0  0  0  0  0  0  0  0
   -4.7012   -1.0478   -0.4790 H   0  0  0  0  0  0  0  0  0  0  0  0
   -2.0721   -1.5541   -0.4129 H   0  0  0  0  0  0  0  0  0  0  0  0
  1  2  1  0
  2  3  1  0
  3  4  1  0
  4  5  1  0
  5  6  2  0
  6  7  1  0
  7  8  1  0
  8  9  1  0
  9  4  1  0
  9  7  1  0
  1 10  1  0
  2 11  1  0
  2 12  1  0
  3 13  1  0
  3 14  1  0
  4 15  1  0
  5 16  1  0
  6 17  1  0
  7 18  1  0
  9 19  1  0
M  END
$$$$
