
     RDKit          3D

 19 20  0  0  0  0  0  0  0  0999 V2000
   -3.1609    0.6500    0.0568 C   0  0  0  0  0  0  0  0  0  0  0  0
   -2.4689    1.9698    0.2463 C   0  0  0  0  0  0  0  0  0  0  0  0
   -2.9839    3.2955   -0.3196 C   0  0  0  0  0  0  0  0  0  0  0  0
   -2.5399    4.0282    0.8560 O   0  0  0  0  0  0  0  0  0  0  0  0
   -2.0990    2.8105    1.4508 C   0  0  0  0  0  0  0  0  0  0  0  0
   -1.0055    2.1827    0.6303 C   0  0  0  0  0  0  0  0  0  0  0  0
   -0.2429    1.0223    1.2518 C   0  0  0  0  0  0  0  0  0  0  0  0
    0.2367    0.0436    0.1997 C   0  0  0  0  0  0  0  0  0  0  0  0
   -0.0791   -1.1172    0.1459 O   0  0  0  0  0  0  0  0  0  0  0  0
   -2.7104   -0.1470    0.6527 H   0  0  0  0  0  0  0  0  0  0  0  0
   -4.2199    0.7206    0.3285 H   0  0  0  0  0  0  0  0  0  0  0  0
   -3.1077    0.3317   -0.9914 H   0  0  0  0  0  0  0  0  0  0  0  0
   -2.5284    3.6711   -1.2441 H   0  0  0  0  0  0  0  0  0  0  0  0
   -4.0766    3.3333   -0.4037 H   0  0  0  0  0  0  0  0  0  0  0  0
   -2.2258    2.6834    2.5210 H   0  0  0  0  0  0  0  0  0  0  0  0
   -0.4033    2.8560    0.0208 H   0  0  0  0  0  0  0  0  0  0  0  0
    0.6368    1.4202    1.7768 H   0  0  0  0  0  0  0  0  0  0  0  0
   -0.8501    0.4763    1.9795 H   0  0  0  0  0  0  0  0  0  0  0  0
    0.9157    0.4880   -0.5651 H   0  0  0  0  0  0  0  0  0  0  0  0
  1  2  1  0
  2  3  1  0
  3  4  1  0
  4  5  1  0
  5  6  1  0
  6  7  1  0
  7  8  1  0
  8  9  2  0
  5  2  1  0
  6  2  1  0
  1 10  1  0
  1 11  1  0
  1 12  1  0
  3 13  1  0
  3 14  1  0
  5 15  1  0
  6 16  1  0
  7 17  1  0
  7 18  1  0
  8 19  1  0
M  END
$$$$
