gdb 1676	2.3678457	1.6421959	1.3490238	3.1701	74.83	-0.24245	-0.01937	0.22308	1043.7475	0.155692	-422.533189	-422.524521	-422.523577	-422.566868	31.887
 OpenBabel02181911403D

 19 20  0  0  1  0  0  0  0  0999 V2000
   -0.1067   -0.0672   -0.0375 C   0  0  0  0  0  0  0  0  0  0  0  0
    1.4156    0.0536    0.0417 C   0  0  1  0  0  0  0  0  0  0  0  0
    2.2107   -0.6858   -1.0774 C   0  0  0  0  0  0  0  0  0  0  0  0
    2.7502    0.6673   -1.6056 C   0  0  2  0  0  0  0  0  0  0  0  0
    3.9905    1.2063   -0.8628 C   0  0  0  0  0  0  0  0  0  0  0  0
    3.1680    1.8672    0.1356 O   0  0  0  0  0  0  0  0  0  0  0  0
    1.9620    1.4248   -0.5050 C   0  0  2  0  0  0  0  0  0  0  0  0
    1.8928   -0.2081    1.4527 C   0  0  0  0  0  0  0  0  0  0  0  0
    2.7154   -1.0306    1.7639 O   0  0  0  0  0  0  0  0  0  0  0  0
   -0.5942    0.5487    0.7272 H   0  0  0  0  0  0  0  0  0  0  0  0
   -0.4698    0.2671   -1.0150 H   0  0  0  0  0  0  0  0  0  0  0  0
   -0.4283   -1.1045    0.1022 H   0  0  0  0  0  0  0  0  0  0  0  0
    2.9622   -1.3861   -0.7067 H   0  0  0  0  0  0  0  0  0  0  0  0
    1.5610   -1.2030   -1.7872 H   0  0  0  0  0  0  0  0  0  0  0  0
    2.6710    0.8782   -2.6707 H   0  0  0  0  0  0  0  0  0  0  0  0
    4.6531    0.4543   -0.4192 H   0  0  0  0  0  0  0  0  0  0  0  0
    4.5876    1.9371   -1.4205 H   0  0  0  0  0  0  0  0  0  0  0  0
    1.2377    2.2314   -0.6527 H   0  0  0  0  0  0  0  0  0  0  0  0
    1.4097    0.4392    2.2204 H   0  0  0  0  0  0  0  0  0  0  0  0
  1  2  1  0  0  0  0
  1 12  1  0  0  0  0
  1 10  1  0  0  0  0
  2  8  1  1  0  0  0
  3 13  1  0  0  0  0
  3  2  1  0  0  0  0
  4 15  1  6  0  0  0
  4  3  1  0  0  0  0
  4  5  1  0  0  0  0
  4  7  1  0  0  0  0
  5 16  1  0  0  0  0
  5  6  1  0  0  0  0
  7 18  1  6  0  0  0
  7  2  1  0  0  0  0
  7  6  1  0  0  0  0
  8  9  2  0  0  0  0
  8 19  1  0  0  0  0
 11  1  1  0  0  0  0
 14  3  1  0  0  0  0
 17  5  1  0  0  0  0
M TOR 0 0 1 2 3
M TOR 1 0 1 2 12
M TOR 2 0 1 2 13
M TOR 3 0 1 6 3
M TOR 4 0 1 6 5
M TOR 5 0 1 6 17
M TOR 6 0 1 7 8
M TOR 7 0 1 7 18
M TOR 8 1 2 3 4
M TOR 9 1 2 3 6
M TOR 10 1 2 3 14
M TOR 11 1 6 3 4
M TOR 12 1 6 3 14
M TOR 13 1 6 5 4
M TOR 14 2 1 0 9
M TOR 15 2 1 0 10
M TOR 16 2 1 0 11
M TOR 17 2 1 6 5
M TOR 18 2 1 6 17
M TOR 19 2 1 7 8
M TOR 20 2 1 7 18
M TOR 21 2 3 4 5
M TOR 22 2 3 4 15
M TOR 23 2 3 4 16
M TOR 24 2 3 6 5
M TOR 25 2 3 6 17
M TOR 26 3 2 1 7
M TOR 27 3 4 5 6
M TOR 28 3 6 1 7
M TOR 29 4 3 2 12
M TOR 30 4 3 2 13
M TOR 31 4 3 6 17
M TOR 32 4 5 6 17
M TOR 33 5 4 3 14
M TOR 34 5 6 1 7
M TOR 35 5 6 3 14
M TOR 36 6 1 0 9
M TOR 37 6 1 0 10
M TOR 38 6 1 0 11
M TOR 39 6 1 2 12
M TOR 40 6 1 2 13
M TOR 41 6 1 7 8
M TOR 42 6 1 7 18
M TOR 43 6 3 2 12
M TOR 44 6 3 2 13
M TOR 45 6 3 4 15
M TOR 46 6 3 4 16
M TOR 47 6 5 4 15
M TOR 48 6 5 4 16
M TOR 49 7 1 0 9
M TOR 50 7 1 0 10
M TOR 51 7 1 0 11
M TOR 52 7 1 2 12
M TOR 53 7 1 2 13
M TOR 54 7 1 6 17
M  END
$$$$
