
     RDKit          3D

 19 21  0  0  0  0  0  0  0  0999 V2000
   -0.0036   -0.0255    0.0602 C   0  0  0  0  0  0  0  0  0  0  0  0
    1.5039   -0.0167    0.0755 C   0  0  0  0  0  0  0  0  0  0  0  0
    2.3818    0.3436    1.3267 C   0  0  0  0  0  0  0  0  0  0  0  0
    3.4836    0.4826    0.2430 C   0  0  0  0  0  0  0  0  0  0  0  0
    3.6345   -0.8596   -0.2431 O   0  0  0  0  0  0  0  0  0  0  0  0
    2.2568   -1.2719   -0.4094 C   0  0  0  0  0  0  0  0  0  0  0  0
    2.3701    1.0423   -0.6442 C   0  0  0  0  0  0  0  0  0  0  0  0
    2.0585    2.3817   -1.1183 C   0  0  0  0  0  0  0  0  0  0  0  0
    2.4122    1.3103   -2.0220 O   0  0  0  0  0  0  0  0  0  0  0  0
   -0.4029   -0.8397    0.6746 H   0  0  0  0  0  0  0  0  0  0  0  0
   -0.4106    0.9143    0.4467 H   0  0  0  0  0  0  0  0  0  0  0  0
   -0.3801   -0.1619   -0.9598 H   0  0  0  0  0  0  0  0  0  0  0  0
    2.0920    1.2884    1.7905 H   0  0  0  0  0  0  0  0  0  0  0  0
    2.5413   -0.4370    2.0731 H   0  0  0  0  0  0  0  0  0  0  0  0
    4.4569    0.9437    0.3956 H   0  0  0  0  0  0  0  0  0  0  0  0
    2.0574   -1.4999   -1.4631 H   0  0  0  0  0  0  0  0  0  0  0  0
    2.0536   -2.1600    0.2006 H   0  0  0  0  0  0  0  0  0  0  0  0
    1.0231    2.7141   -1.1796 H   0  0  0  0  0  0  0  0  0  0  0  0
    2.7967    3.1783   -1.0363 H   0  0  0  0  0  0  0  0  0  0  0  0
  1  2  1  0
  2  3  1  0
  3  4  1  0
  4  5  1  0
  5  6  1  0
  4  7  1  0
  7  8  1  0
  8  9  1  0
  6  2  1  0
  9  7  1  0
  7  2  1  0
  1 10  1  0
  1 11  1  0
  1 12  1  0
  3 13  1  0
  3 14  1  0
  4 15  1  0
  6 16  1  0
  6 17  1  0
  8 18  1  0
  8 19  1  0
M  END
$$$$
