gdb 5102	3.2149628	1.1652132	1.0027227	1.4138	74.87	-0.2218	0.06096	0.28276	1245.4488	0.154785	-422.478173	-422.469361	-422.468416	-422.511528	33.573
 OpenBabel02181911423D

 19 21  0  0  1  0  0  0  0  0999 V2000
    1.4311    1.2320    0.0613 C   0  0  0  0  0  0  0  0  0  0  0  0
    1.1371   -0.2740    0.1128 C   0  0  0  0  0  0  0  0  0  0  0  0
    1.4889   -0.9659   -1.1648 C   0  0  1  0  0  0  0  0  0  0  0  0
    2.8809   -1.2100   -1.4571 O   0  0  0  0  0  0  0  0  0  0  0  0
    1.9510   -2.3110   -1.5054 C   0  0  2  0  0  0  0  0  0  0  0  0
    1.1891   -2.2803   -2.8603 C   0  0  2  0  0  0  0  0  0  0  0  0
    1.5921   -1.0867   -3.7055 C   0  0  1  0  0  0  0  0  0  0  0  0
    0.9130   -0.9431   -4.9204 O   0  0  0  0  0  0  0  0  0  0  0  0
    0.7046   -0.8701   -2.5183 C   0  0  2  0  0  0  0  0  0  0  0  0
    1.1565    1.7155    1.0031 H   0  0  0  0  0  0  0  0  0  0  0  0
    2.4952    1.4107   -0.1182 H   0  0  0  0  0  0  0  0  0  0  0  0
    0.8690    1.7174   -0.7431 H   0  0  0  0  0  0  0  0  0  0  0  0
    1.7030   -0.7427    0.9255 H   0  0  0  0  0  0  0  0  0  0  0  0
    0.0731   -0.4419    0.3220 H   0  0  0  0  0  0  0  0  0  0  0  0
    2.1776   -3.1772   -0.8936 H   0  0  0  0  0  0  0  0  0  0  0  0
    0.6121   -3.0991   -3.2682 H   0  0  0  0  0  0  0  0  0  0  0  0
    2.6186   -0.7334   -3.6948 H   0  0  0  0  0  0  0  0  0  0  0  0
    1.3624   -1.4904   -5.5728 H   0  0  0  0  0  0  0  0  0  0  0  0
   -0.2929   -0.4648   -2.6248 H   0  0  0  0  0  0  0  0  0  0  0  0
  1  2  1  0  0  0  0
  1 10  1  0  0  0  0
  2 14  1  0  0  0  0
  2 13  1  0  0  0  0
  3  2  1  1  0  0  0
  4  3  1  0  0  0  0
  5  4  1  0  0  0  0
  5  3  1  0  0  0  0
  5 15  1  1  0  0  0
  6 16  1  6  0  0  0
  6  9  1  0  0  0  0
  6  5  1  0  0  0  0
  7 17  1  1  0  0  0
  7  6  1  0  0  0  0
  7  9  1  0  0  0  0
  8  7  1  0  0  0  0
  9 19  1  6  0  0  0
  9  3  1  0  0  0  0
 11  1  1  0  0  0  0
 12  1  1  0  0  0  0
 18  8  1  0  0  0  0
M TOR 0 0 1 2 3
M TOR 1 0 1 2 4
M TOR 2 0 1 2 8
M TOR 3 1 2 3 4
M TOR 4 1 2 4 5
M TOR 5 1 2 4 14
M TOR 6 1 2 8 5
M TOR 7 1 2 8 6
M TOR 8 1 2 8 18
M TOR 9 2 1 0 9
M TOR 10 2 1 0 10
M TOR 11 2 1 0 11
M TOR 12 2 3 4 5
M TOR 13 2 3 4 14
M TOR 14 2 4 5 6
M TOR 15 2 4 5 8
M TOR 16 2 4 5 15
M TOR 17 2 8 5 6
M TOR 18 2 8 5 15
M TOR 19 2 8 6 7
M TOR 20 2 8 6 16
M TOR 21 3 2 1 12
M TOR 22 3 2 1 13
M TOR 23 3 2 8 5
M TOR 24 3 2 8 6
M TOR 25 3 2 8 18
M TOR 26 3 4 2 8
M TOR 27 3 4 5 6
M TOR 28 3 4 5 8
M TOR 29 3 4 5 15
M TOR 30 4 2 1 12
M TOR 31 4 2 1 13
M TOR 32 4 2 8 6
M TOR 33 4 2 8 18
M TOR 34 4 5 6 7
M TOR 35 4 5 6 8
M TOR 36 4 5 6 16
M TOR 37 4 5 8 18
M TOR 38 5 6 7 17
M TOR 39 5 6 8 18
M TOR 40 5 8 6 7
M TOR 41 5 8 6 16
M TOR 42 6 5 4 14
M TOR 43 6 8 5 15
M TOR 44 7 6 5 15
M TOR 45 7 6 8 18
M TOR 46 8 2 1 12
M TOR 47 8 2 1 13
M TOR 48 8 2 4 14
M TOR 49 8 5 4 14
M TOR 50 8 6 7 17
M  END
$$$$
