gdb 5970	3.037082	1.1492843	0.9286191	2.7053	77.64	-0.23044	-0.01044	0.22	1314.8303	0.155065	-422.533952	-422.524797	-422.523853	-422.568625	33.181
 OpenBabel02181911423D

 19 20  0  0  1  0  0  0  0  0999 V2000
    2.9587   -0.2825    1.3668 C   0  0  0  0  0  0  0  0  0  0  0  0
    2.0680    0.1010    0.2004 C   0  0  0  0  0  0  0  0  0  0  0  0
    2.3753    1.4526   -0.1657 O   0  0  0  0  0  0  0  0  0  0  0  0
    1.6374    1.9202   -1.2163 C   0  0  1  0  0  0  0  0  0  0  0  0
    0.2043    2.4292   -1.0387 C   0  0  0  0  0  0  0  0  0  0  0  0
    1.2358    3.3763   -1.5566 C   0  0  2  0  0  0  0  0  0  0  0  0
    1.4319    3.1187   -3.0585 C   0  0  0  0  0  0  0  0  0  0  0  0
    1.9192    1.6908   -2.6760 C   0  0  0  0  0  0  0  0  0  0  0  0
    2.5018    0.8328   -3.2771 O   0  0  0  0  0  0  0  0  0  0  0  0
    2.7517   -1.3111    1.6767 H   0  0  0  0  0  0  0  0  0  0  0  0
    4.0127   -0.2105    1.0848 H   0  0  0  0  0  0  0  0  0  0  0  0
    2.7845    0.3794    2.2200 H   0  0  0  0  0  0  0  0  0  0  0  0
    2.2390   -0.5565   -0.6613 H   0  0  0  0  0  0  0  0  0  0  0  0
    1.0047    0.0297    0.4743 H   0  0  0  0  0  0  0  0  0  0  0  0
   -0.6082    2.0925   -1.6773 H   0  0  0  0  0  0  0  0  0  0  0  0
   -0.0541    2.5382    0.0101 H   0  0  0  0  0  0  0  0  0  0  0  0
    1.5451    4.2660   -1.0255 H   0  0  0  0  0  0  0  0  0  0  0  0
    0.5411    3.1971   -3.6883 H   0  0  0  0  0  0  0  0  0  0  0  0
    2.2508    3.6818   -3.5150 H   0  0  0  0  0  0  0  0  0  0  0  0
  1 10  1  0  0  0  0
  1 12  1  0  0  0  0
  2 14  1  0  0  0  0
  2  1  1  0  0  0  0
  3  2  1  0  0  0  0
  4  5  1  0  0  0  0
  4  3  1  1  0  0  0
  5 16  1  0  0  0  0
  6  4  1  0  0  0  0
  6  5  1  0  0  0  0
  6 17  1  1  0  0  0
  7  8  1  0  0  0  0
  7  6  1  0  0  0  0
  8  4  1  0  0  0  0
  9  8  2  0  0  0  0
 11  1  1  0  0  0  0
 13  2  1  0  0  0  0
 15  5  1  0  0  0  0
 18  7  1  0  0  0  0
 19  7  1  0  0  0  0
M TOR 0 0 1 2 3
M TOR 1 1 2 3 4
M TOR 2 1 2 3 5
M TOR 3 1 2 3 7
M TOR 4 2 1 0 9
M TOR 5 2 1 0 10
M TOR 6 2 1 0 11
M TOR 7 2 3 4 5
M TOR 8 2 3 4 14
M TOR 9 2 3 4 15
M TOR 10 2 3 5 6
M TOR 11 2 3 5 16
M TOR 12 2 3 7 6
M TOR 13 2 3 7 8
M TOR 14 3 2 1 12
M TOR 15 3 2 1 13
M TOR 16 3 4 5 6
M TOR 17 3 4 5 16
M TOR 18 3 5 4 14
M TOR 19 3 5 4 15
M TOR 20 3 5 6 7
M TOR 21 3 5 6 17
M TOR 22 3 5 6 18
M TOR 23 3 7 6 17
M TOR 24 3 7 6 18
M TOR 25 4 3 7 6
M TOR 26 4 3 7 8
M TOR 27 4 5 3 7
M TOR 28 4 5 6 7
M TOR 29 4 5 6 17
M TOR 30 4 5 6 18
M TOR 31 5 3 7 8
M TOR 32 5 6 7 8
M TOR 33 6 5 4 14
M TOR 34 6 5 4 15
M TOR 35 7 3 4 14
M TOR 36 7 3 4 15
M TOR 37 7 3 5 16
M TOR 38 7 6 5 16
M TOR 39 8 7 6 17
M TOR 40 8 7 6 18
M  END
$$$$
