gdb 672	2.474956	1.671402	1.6389948	3.3582	73.61	-0.22643	-0.01763	0.20879999999999999	959.5499	0.15981	-422.595888	-422.588483	-422.587539	-422.627822	29.058
 OpenBabel02181911403D

 19 20  0  0  1  0  0  0  0  0999 V2000
    1.2135   -0.0597   -0.6093 O   0  0  0  0  0  0  0  0  0  0  0  0
    0.0801   -0.0350   -0.2001 C   0  0  0  0  0  0  0  0  0  0  0  0
   -0.7486   -1.2718    0.1532 C   0  0  0  0  0  0  0  0  0  0  0  0
   -2.2000   -0.8227    0.4053 C   0  0  2  0  0  0  0  0  0  0  0  0
   -2.7188   -0.0666   -0.8361 C   0  0  0  0  0  0  0  0  0  0  0  0
   -1.9012    1.2482   -0.9971 C   0  0  0  0  0  0  0  0  0  0  0  0
   -0.7446    1.2353    0.0168 C   0  0  1  0  0  0  0  0  0  0  0  0
   -1.2467    1.2046    1.3561 O   0  0  0  0  0  0  0  0  0  0  0  0
   -2.1905    0.1503    1.5881 C   0  0  0  0  0  0  0  0  0  0  0  0
   -0.6720   -1.9940   -0.6665 H   0  0  0  0  0  0  0  0  0  0  0  0
   -0.3128   -1.7485    1.0397 H   0  0  0  0  0  0  0  0  0  0  0  0
   -2.8406   -1.6788    0.6368 H   0  0  0  0  0  0  0  0  0  0  0  0
   -2.6206   -0.7012   -1.7231 H   0  0  0  0  0  0  0  0  0  0  0  0
   -3.7844    0.1534   -0.7210 H   0  0  0  0  0  0  0  0  0  0  0  0
   -1.5077    1.3605   -2.0120 H   0  0  0  0  0  0  0  0  0  0  0  0
   -2.5193    2.1271   -0.7899 H   0  0  0  0  0  0  0  0  0  0  0  0
   -0.1111    2.1201   -0.0577 H   0  0  0  0  0  0  0  0  0  0  0  0
   -1.8960   -0.3560    2.5162 H   0  0  0  0  0  0  0  0  0  0  0  0
   -3.1899    0.5821    1.7441 H   0  0  0  0  0  0  0  0  0  0  0  0
  1  2  2  0  0  0  0
  2  7  1  0  0  0  0
  2  3  1  0  0  0  0
  3  4  1  0  0  0  0
  3 11  1  0  0  0  0
  4 12  1  1  0  0  0
  4  9  1  0  0  0  0
  5 14  1  0  0  0  0
  5  4  1  0  0  0  0
  6  5  1  0  0  0  0
  6 16  1  0  0  0  0
  6  7  1  0  0  0  0
  7 17  1  6  0  0  0
  7  8  1  0  0  0  0
  8  9  1  0  0  0  0
  9 19  1  0  0  0  0
  9 18  1  0  0  0  0
 10  3  1  0  0  0  0
 13  5  1  0  0  0  0
 15  6  1  0  0  0  0
M TOR 0 0 1 2 3
M TOR 1 0 1 2 9
M TOR 2 0 1 2 10
M TOR 3 0 1 6 5
M TOR 4 0 1 6 7
M TOR 5 0 1 6 16
M TOR 6 1 2 3 4
M TOR 7 1 2 3 8
M TOR 8 1 2 3 11
M TOR 9 1 6 5 4
M TOR 10 1 6 5 14
M TOR 11 1 6 5 15
M TOR 12 1 6 7 8
M TOR 13 2 1 6 5
M TOR 14 2 1 6 7
M TOR 15 2 1 6 16
M TOR 16 2 3 4 5
M TOR 17 2 3 4 12
M TOR 18 2 3 4 13
M TOR 19 2 3 8 7
M TOR 20 2 3 8 17
M TOR 21 2 3 8 18
M TOR 22 3 2 1 6
M TOR 23 3 4 5 6
M TOR 24 3 4 5 14
M TOR 25 3 4 5 15
M TOR 26 3 8 7 6
M TOR 27 4 3 2 9
M TOR 28 4 3 2 10
M TOR 29 4 3 8 7
M TOR 30 4 3 8 17
M TOR 31 4 3 8 18
M TOR 32 4 5 6 7
M TOR 33 4 5 6 16
M TOR 34 5 4 3 8
M TOR 35 5 4 3 11
M TOR 36 5 6 7 8
M TOR 37 6 1 2 9
M TOR 38 6 1 2 10
M TOR 39 6 5 4 12
M TOR 40 6 5 4 13
M TOR 41 6 7 8 17
M TOR 42 6 7 8 18
M TOR 43 7 6 5 14
M TOR 44 7 6 5 15
M TOR 45 7 8 3 11
M TOR 46 8 3 2 9
M TOR 47 8 3 2 10
M TOR 48 8 3 4 12
M TOR 49 8 3 4 13
M TOR 50 8 7 6 16
M  END
$$$$
