
     RDKit          3D

 19 20  0  0  0  0  0  0  0  0999 V2000
    3.7168    2.5817    0.2328 C   0  0  0  0  0  0  0  0  0  0  0  0
    4.2675    3.8853    0.8053 C   0  0  0  0  0  0  0  0  0  0  0  0
    5.5437    3.5677    1.3711 O   0  0  0  0  0  0  0  0  0  0  0  0
    3.3783    4.5070    1.8480 C   0  0  0  0  0  0  0  0  0  0  0  0
    2.9041    5.7598    1.8404 C   0  0  0  0  0  0  0  0  0  0  0  0
    2.2117    6.0703    3.1249 C   0  0  0  0  0  0  0  0  0  0  0  0
    3.0959    5.9835    4.2704 O   0  0  0  0  0  0  0  0  0  0  0  0
    2.2891    4.8501    3.9474 C   0  0  0  0  0  0  0  0  0  0  0  0
    3.0022    3.7787    3.1328 C   0  0  0  0  0  0  0  0  0  0  0  0
    3.5884    1.8359    1.0223 H   0  0  0  0  0  0  0  0  0  0  0  0
    2.7518    2.7520   -0.2525 H   0  0  0  0  0  0  0  0  0  0  0  0
    4.4164    2.1785   -0.5042 H   0  0  0  0  0  0  0  0  0  0  0  0
    4.3896    4.6072   -0.0179 H   0  0  0  0  0  0  0  0  0  0  0  0
    5.8871    4.3710    1.7773 H   0  0  0  0  0  0  0  0  0  0  0  0
    3.0423    6.4793    1.0418 H   0  0  0  0  0  0  0  0  0  0  0  0
    1.4264    6.8152    3.2064 H   0  0  0  0  0  0  0  0  0  0  0  0
    1.5436    4.5806    4.6907 H   0  0  0  0  0  0  0  0  0  0  0  0
    3.8855    3.3820    3.6442 H   0  0  0  0  0  0  0  0  0  0  0  0
    2.3360    2.9289    2.9376 H   0  0  0  0  0  0  0  0  0  0  0  0
  1  2  1  0
  2  3  1  0
  2  4  1  0
  4  5  2  0
  5  6  1  0
  6  7  1  0
  7  8  1  0
  8  9  1  0
  9  4  1  0
  8  6  1  0
  1 10  1  0
  1 11  1  0
  1 12  1  0
  2 13  1  0
  3 14  1  0
  5 15  1  0
  6 16  1  0
  8 17  1  0
  9 18  1  0
  9 19  1  0
M  END
$$$$
