gdb 3088	3.4836466	1.5579716	1.4974664	1.6318	73.16	-0.2519	0.06489	0.31679	952.4329	0.160604	-422.505197	-422.498729	-422.497785	-422.535526	28.064
 OpenBabel02181911413D

 19 21  0  0  1  0  0  0  0  0999 V2000
    0.2909    0.1036    0.1865 O   0  0  0  0  0  0  0  0  0  0  0  0
   -0.8907    0.8316    0.3846 C   0  0  1  0  0  0  0  0  0  0  0  0
   -0.7393    2.0020    1.3995 C   0  0  1  0  0  0  0  0  0  0  0  0
   -0.0534    2.7174    0.3091 O   0  0  0  0  0  0  0  0  0  0  0  0
   -1.0362    2.0551   -0.5665 C   0  0  2  0  0  0  0  0  0  0  0  0
   -2.4197    2.7860   -0.3842 C   0  0  2  0  0  0  0  0  0  0  0  0
   -2.1721    3.9188    0.6615 C   0  0  0  0  0  0  0  0  0  0  0  0
   -2.1091    2.7305    1.6724 C   0  0  1  0  0  0  0  0  0  0  0  0
   -3.2032    2.0840    0.7677 C   0  0  0  0  0  0  0  0  0  0  0  0
    0.9939    0.7607    0.0981 H   0  0  0  0  0  0  0  0  0  0  0  0
   -1.6859    0.0973    0.4849 H   0  0  0  0  0  0  0  0  0  0  0  0
   -0.1017    1.8777    2.2773 H   0  0  0  0  0  0  0  0  0  0  0  0
   -0.6870    1.9823   -1.5986 H   0  0  0  0  0  0  0  0  0  0  0  0
   -2.9162    3.0023   -1.3314 H   0  0  0  0  0  0  0  0  0  0  0  0
   -1.3010    4.5579    0.5472 H   0  0  0  0  0  0  0  0  0  0  0  0
   -3.0747    4.5137    0.8139 H   0  0  0  0  0  0  0  0  0  0  0  0
   -2.3023    2.8926    2.7340 H   0  0  0  0  0  0  0  0  0  0  0  0
   -3.3516    1.0049    0.7610 H   0  0  0  0  0  0  0  0  0  0  0  0
   -4.1728    2.5623    0.9270 H   0  0  0  0  0  0  0  0  0  0  0  0
  1  2  1  0  0  0  0
  2 11  1  1  0  0  0
  2  3  1  0  0  0  0
  3  8  1  0  0  0  0
  3 12  1  1  0  0  0
  4  3  1  0  0  0  0
  5 13  1  6  0  0  0
  5  6  1  0  0  0  0
  5  4  1  0  0  0  0
  5  2  1  0  0  0  0
  6 14  1  6  0  0  0
  6  7  1  0  0  0  0
  6  9  1  0  0  0  0
  7 16  1  0  0  0  0
  7  8  1  0  0  0  0
  8 17  1  1  0  0  0
  9 19  1  0  0  0  0
  9  8  1  0  0  0  0
 10  1  1  0  0  0  0
 15  7  1  0  0  0  0
 18  9  1  0  0  0  0
M TOR 0 0 1 2 3
M TOR 1 0 1 2 7
M TOR 2 0 1 2 11
M TOR 3 0 1 4 3
M TOR 4 0 1 4 5
M TOR 5 0 1 4 12
M TOR 6 1 2 3 4
M TOR 7 1 2 7 6
M TOR 8 1 2 7 8
M TOR 9 1 2 7 16
M TOR 10 1 4 5 6
M TOR 11 1 4 5 8
M TOR 12 1 4 5 13
M TOR 13 2 1 0 9
M TOR 14 2 1 4 5
M TOR 15 2 1 4 12
M TOR 16 2 3 4 5
M TOR 17 2 3 4 12
M TOR 18 2 7 6 5
M TOR 19 2 7 6 14
M TOR 20 2 7 6 15
M TOR 21 2 7 8 5
M TOR 22 2 7 8 17
M TOR 23 2 7 8 18
M TOR 24 3 2 1 10
M TOR 25 3 2 7 6
M TOR 26 3 2 7 8
M TOR 27 3 2 7 16
M TOR 28 3 4 1 10
M TOR 29 3 4 5 6
M TOR 30 3 4 5 8
M TOR 31 3 4 5 13
M TOR 32 4 1 0 9
M TOR 33 4 1 2 7
M TOR 34 4 1 2 11
M TOR 35 4 3 2 7
M TOR 36 4 3 2 11
M TOR 37 4 5 6 7
M TOR 38 4 5 6 14
M TOR 39 4 5 6 15
M TOR 40 4 5 8 7
M TOR 41 4 5 8 17
M TOR 42 4 5 8 18
M TOR 43 5 4 1 10
M TOR 44 5 6 7 8
M TOR 45 5 6 7 16
M TOR 46 5 8 7 16
M TOR 47 6 5 4 12
M TOR 48 6 5 8 17
M TOR 49 6 5 8 18
M TOR 50 6 7 2 11
M TOR 51 6 7 8 17
M TOR 52 6 7 8 18
M TOR 53 7 2 1 10
M TOR 54 7 6 5 13
M TOR 55 7 8 5 13
M TOR 56 8 5 4 12
M TOR 57 8 5 6 14
M TOR 58 8 5 6 15
M TOR 59 8 7 2 11
M TOR 60 8 7 6 14
M TOR 61 8 7 6 15
M  END
$$$$
