
     RDKit          3D

 19 21  0  0  0  0  0  0  0  0999 V2000
   -0.0121    0.1951    0.3860 C   0  0  0  0  0  0  0  0  0  0  0  0
    1.3847   -0.1005   -0.1311 C   0  0  0  0  0  0  0  0  0  0  0  0
    2.1124   -0.8608    0.8576 O   0  0  0  0  0  0  0  0  0  0  0  0
    3.4317   -0.3774    0.8770 C   0  0  0  0  0  0  0  0  0  0  0  0
    3.7164    0.5727   -0.2536 C   0  0  0  0  0  0  0  0  0  0  0  0
    2.2775    1.1219   -0.3417 C   0  0  0  0  0  0  0  0  0  0  0  0
    2.4111    1.7906    0.9520 O   0  0  0  0  0  0  0  0  0  0  0  0
    3.6517    1.1027    1.1654 C   0  0  0  0  0  0  0  0  0  0  0  0
    4.6437    1.7167    2.0936 C   0  0  0  0  0  0  0  0  0  0  0  0
    0.0482    0.8338    1.2696 H   0  0  0  0  0  0  0  0  0  0  0  0
   -0.6052    0.7004   -0.3835 H   0  0  0  0  0  0  0  0  0  0  0  0
   -0.5204   -0.7349    0.6535 H   0  0  0  0  0  0  0  0  0  0  0  0
    1.3349   -0.6823   -1.0672 H   0  0  0  0  0  0  0  0  0  0  0  0
    4.1633   -1.1047    1.2100 H   0  0  0  0  0  0  0  0  0  0  0  0
    4.4849    0.5271   -1.0134 H   0  0  0  0  0  0  0  0  0  0  0  0
    1.9912    1.8079   -1.1399 H   0  0  0  0  0  0  0  0  0  0  0  0
    4.2282    1.7853    3.1049 H   0  0  0  0  0  0  0  0  0  0  0  0
    5.5514    1.1076    2.1390 H   0  0  0  0  0  0  0  0  0  0  0  0
    4.9174    2.7246    1.7653 H   0  0  0  0  0  0  0  0  0  0  0  0
  1  2  1  0
  2  3  1  0
  3  4  1  0
  4  5  1  0
  5  6  1  0
  6  7  1  0
  7  8  1  0
  8  9  1  0
  6  2  1  0
  8  4  1  0
  8  5  1  0
  1 10  1  0
  1 11  1  0
  1 12  1  0
  2 13  1  0
  4 14  1  0
  5 15  1  0
  6 16  1  0
  9 17  1  0
  9 18  1  0
  9 19  1  0
M  END
$$$$
