
     RDKit          3D

 19 19  0  0  0  0  0  0  0  0999 V2000
    4.3706   -0.0552   -2.1557 C   0  0  0  0  0  0  0  0  0  0  0  0
    3.4655   -0.0160   -0.9770 C   0  0  0  0  0  0  0  0  0  0  0  0
    3.6787    0.0161    0.3657 C   0  0  0  0  0  0  0  0  0  0  0  0
    2.3869    0.0454    0.9965 C   0  0  0  0  0  0  0  0  0  0  0  0
    2.1228    0.0887    2.4706 C   0  0  0  0  0  0  0  0  0  0  0  0
    1.4776    0.0322   -0.0230 C   0  0  0  0  0  0  0  0  0  0  0  0
   -0.0083    0.0100   -0.0702 C   0  0  0  0  0  0  0  0  0  0  0  0
   -0.5546   -1.2529   -0.4489 O   0  0  0  0  0  0  0  0  0  0  0  0
    2.1295   -0.0061   -1.2295 O   0  0  0  0  0  0  0  0  0  0  0  0
    5.4117   -0.0639   -1.8258 H   0  0  0  0  0  0  0  0  0  0  0  0
    4.1950   -0.9485   -2.7657 H   0  0  0  0  0  0  0  0  0  0  0  0
    4.2224    0.8158   -2.8042 H   0  0  0  0  0  0  0  0  0  0  0  0
    4.6398    0.0203    0.8578 H   0  0  0  0  0  0  0  0  0  0  0  0
    2.5543   -0.7814    2.9789 H   0  0  0  0  0  0  0  0  0  0  0  0
    2.5691    0.9787    2.9291 H   0  0  0  0  0  0  0  0  0  0  0  0
    1.0526    0.1047    2.6926 H   0  0  0  0  0  0  0  0  0  0  0  0
   -0.3956    0.3378    0.9054 H   0  0  0  0  0  0  0  0  0  0  0  0
   -0.3742    0.7168   -0.8221 H   0  0  0  0  0  0  0  0  0  0  0  0
   -0.1419   -1.9192    0.1107 H   0  0  0  0  0  0  0  0  0  0  0  0
  1  2  1  0
  2  3  2  0
  3  4  1  0
  4  5  1  0
  4  6  2  0
  6  7  1  0
  7  8  1  0
  6  9  1  0
  9  2  1  0
  1 10  1  0
  1 11  1  0
  1 12  1  0
  3 13  1  0
  5 14  1  0
  5 15  1  0
  5 16  1  0
  7 17  1  0
  7 18  1  0
  8 19  1  0
M  END
$$$$
