gdb 490	3.796301	1.3222605	1.1993381	2.9149	75.11	-0.22935	0.05355	0.2829	1091.3649	0.157647	-422.495948	-422.488208	-422.487264	-422.528831	29.251
 OpenBabel02181911403D

 19 21  0  0  1  0  0  0  0  0999 V2000
    1.1953    0.2572   -0.8363 C   0  0  0  0  0  0  0  0  0  0  0  0
   -0.1244   -0.1376   -0.1457 C   0  0  0  0  0  0  0  0  0  0  0  0
   -0.0537    1.2813    0.4602 C   0  0  2  0  0  0  0  0  0  0  0  0
   -0.2222    1.5133    1.9864 C   0  0  0  0  0  0  0  0  0  0  0  0
   -1.5046    2.3523    1.7200 C   0  0  1  0  0  0  0  0  0  0  0  0
   -1.2234    3.8494    1.5357 C   0  0  0  0  0  0  0  0  0  0  0  0
   -0.8015    3.6458    0.1658 O   0  0  0  0  0  0  0  0  0  0  0  0
   -1.2154    2.2683    0.1893 C   0  0  1  0  0  0  0  0  0  0  0  0
    1.2164    1.5286   -0.1522 O   0  0  0  0  0  0  0  0  0  0  0  0
    2.0728   -0.3522   -0.5924 H   0  0  0  0  0  0  0  0  0  0  0  0
    1.1388    0.3807   -1.9244 H   0  0  0  0  0  0  0  0  0  0  0  0
   -0.9750   -0.3325   -0.8025 H   0  0  0  0  0  0  0  0  0  0  0  0
   -0.0380   -0.9457    0.5832 H   0  0  0  0  0  0  0  0  0  0  0  0
   -0.3702    0.5974    2.5644 H   0  0  0  0  0  0  0  0  0  0  0  0
    0.5993    2.0813    2.4316 H   0  0  0  0  0  0  0  0  0  0  0  0
   -2.4323    2.0421    2.1966 H   0  0  0  0  0  0  0  0  0  0  0  0
   -2.1126    4.4919    1.5833 H   0  0  0  0  0  0  0  0  0  0  0  0
   -0.4304    4.2841    2.1566 H   0  0  0  0  0  0  0  0  0  0  0  0
   -1.9326    2.0316   -0.6042 H   0  0  0  0  0  0  0  0  0  0  0  0
  1 10  1  0  0  0  0
  1  9  1  0  0  0  0
  1  2  1  0  0  0  0
  2  3  1  0  0  0  0
  2 13  1  0  0  0  0
  3  9  1  6  0  0  0
  3  4  1  0  0  0  0
  4 15  1  0  0  0  0
  4 14  1  0  0  0  0
  5  4  1  0  0  0  0
  5 16  1  1  0  0  0
  6 17  1  0  0  0  0
  6  5  1  0  0  0  0
  6 18  1  0  0  0  0
  7  8  1  0  0  0  0
  7  6  1  0  0  0  0
  8 19  1  6  0  0  0
  8  3  1  0  0  0  0
  8  5  1  0  0  0  0
 11  1  1  0  0  0  0
 12  2  1  0  0  0  0
M TOR 0 0 1 2 3
M TOR 1 0 1 2 7
M TOR 2 0 1 2 8
M TOR 3 0 8 2 3
M TOR 4 0 8 2 7
M TOR 5 1 2 3 4
M TOR 6 1 2 3 13
M TOR 7 1 2 3 14
M TOR 8 1 2 7 4
M TOR 9 1 2 7 6
M TOR 10 1 2 7 18
M TOR 11 2 1 0 9
M TOR 12 2 1 0 10
M TOR 13 2 3 4 5
M TOR 14 2 3 4 7
M TOR 15 2 3 4 15
M TOR 16 2 7 4 5
M TOR 17 2 7 4 15
M TOR 18 2 7 6 5
M TOR 19 2 8 0 9
M TOR 20 2 8 0 10
M TOR 21 3 2 1 11
M TOR 22 3 2 1 12
M TOR 23 3 2 7 6
M TOR 24 3 2 7 18
M TOR 25 3 4 5 6
M TOR 26 3 4 5 16
M TOR 27 3 4 5 17
M TOR 28 3 4 7 6
M TOR 29 3 4 7 18
M TOR 30 4 3 2 8
M TOR 31 4 5 6 7
M TOR 32 4 7 2 8
M TOR 33 5 4 3 13
M TOR 34 5 4 3 14
M TOR 35 5 4 7 18
M TOR 36 5 6 7 18
M TOR 37 6 5 4 15
M TOR 38 6 7 2 8
M TOR 39 6 7 4 15
M TOR 40 7 2 1 11
M TOR 41 7 2 1 12
M TOR 42 7 2 3 13
M TOR 43 7 2 3 14
M TOR 44 7 4 3 13
M TOR 45 7 4 3 14
M TOR 46 7 4 5 16
M TOR 47 7 4 5 17
M TOR 48 7 6 5 16
M TOR 49 7 6 5 17
M TOR 50 8 0 1 11
M TOR 51 8 0 1 12
M TOR 52 8 2 1 11
M TOR 53 8 2 1 12
M TOR 54 8 2 3 13
M TOR 55 8 2 3 14
M TOR 56 8 2 7 18
M  END
$$$$
