
     RDKit          3D

 19 19  0  0  0  0  0  0  0  0999 V2000
    1.2899   -0.7677    0.0129 O   0  0  0  0  0  0  0  0  0  0  0  0
    0.2782   -0.1054   -0.0341 C   0  0  0  0  0  0  0  0  0  0  0  0
    0.2329    1.3702    0.0465 C   0  0  0  0  0  0  0  0  0  0  0  0
   -0.9729    1.9499   -0.0706 C   0  0  0  0  0  0  0  0  0  0  0  0
   -1.2821    3.4179    0.0046 C   0  0  0  0  0  0  0  0  0  0  0  0
   -0.2515    4.2523    0.7779 C   0  0  0  0  0  0  0  0  0  0  0  0
    0.9561    4.5217    0.0989 O   0  0  0  0  0  0  0  0  0  0  0  0
    1.6142    3.4346   -0.5357 C   0  0  0  0  0  0  0  0  0  0  0  0
    1.5512    2.0923    0.1982 C   0  0  0  0  0  0  0  0  0  0  0  0
   -0.7188   -0.5877   -0.1485 H   0  0  0  0  0  0  0  0  0  0  0  0
   -1.8288    1.2927   -0.2262 H   0  0  0  0  0  0  0  0  0  0  0  0
   -1.4109    3.8311   -1.0064 H   0  0  0  0  0  0  0  0  0  0  0  0
   -2.2562    3.5420    0.4952 H   0  0  0  0  0  0  0  0  0  0  0  0
   -0.6770    5.2367    0.9968 H   0  0  0  0  0  0  0  0  0  0  0  0
   -0.0588    3.7608    1.7447 H   0  0  0  0  0  0  0  0  0  0  0  0
    1.2216    3.2981   -1.5558 H   0  0  0  0  0  0  0  0  0  0  0  0
    2.6574    3.7527   -0.6300 H   0  0  0  0  0  0  0  0  0  0  0  0
    2.3288    1.4338   -0.2027 H   0  0  0  0  0  0  0  0  0  0  0  0
    1.8055    2.2312    1.2568 H   0  0  0  0  0  0  0  0  0  0  0  0
  1  2  2  0
  2  3  1  0
  3  4  2  0
  4  5  1  0
  5  6  1  0
  6  7  1  0
  7  8  1  0
  8  9  1  0
  9  3  1  0
  2 10  1  0
  4 11  1  0
  5 12  1  0
  5 13  1  0
  6 14  1  0
  6 15  1  0
  8 16  1  0
  8 17  1  0
  9 18  1  0
  9 19  1  0
M  END
$$$$
