gdb 563	3.0623761	1.7948451	1.5040007	2.9241	72.9	-0.22861	0.07759	0.3062	932.8769	0.160308	-422.532442	-422.525715	-422.524771	-422.563339	27.404
 OpenBabel02181911403D

 19 21  0  0  1  0  0  0  0  0999 V2000
    1.1603    0.9354   -1.1639 C   0  0  0  0  0  0  0  0  0  0  0  0
    0.3808   -0.1727   -0.6639 O   0  0  0  0  0  0  0  0  0  0  0  0
    0.5844    0.2440    0.6974 C   0  0  2  0  0  0  0  0  0  0  0  0
    1.2774    1.5650    0.2445 C   0  0  1  0  0  0  0  0  0  0  0  0
    2.6834    1.8250    0.8285 C   0  0  0  0  0  0  0  0  0  0  0  0
    3.1573    0.5873    1.5914 C   0  0  1  0  0  0  0  0  0  0  0  0
    2.1317    0.1290    2.6526 C   0  0  0  0  0  0  0  0  0  0  0  0
    1.5559   -0.6488    1.4528 C   0  0  2  0  0  0  0  0  0  0  0  0
    2.8517   -0.5926    0.7910 O   0  0  0  0  0  0  0  0  0  0  0  0
    2.1130    0.5992   -1.5886 H   0  0  0  0  0  0  0  0  0  0  0  0
    0.6067    1.5166   -1.9111 H   0  0  0  0  0  0  0  0  0  0  0  0
   -0.3639    0.3367    1.2439 H   0  0  0  0  0  0  0  0  0  0  0  0
    0.6340    2.4391    0.3539 H   0  0  0  0  0  0  0  0  0  0  0  0
    3.3876    2.0513    0.0196 H   0  0  0  0  0  0  0  0  0  0  0  0
    2.6828    2.6907    1.5012 H   0  0  0  0  0  0  0  0  0  0  0  0
    4.2126    0.6330    1.8729 H   0  0  0  0  0  0  0  0  0  0  0  0
    2.5725   -0.5254    3.4055 H   0  0  0  0  0  0  0  0  0  0  0  0
    1.5040    0.8872    3.1286 H   0  0  0  0  0  0  0  0  0  0  0  0
    1.1982   -1.6747    1.5731 H   0  0  0  0  0  0  0  0  0  0  0  0
  1  2  1  0  0  0  0
  1  4  1  0  0  0  0
  2  3  1  0  0  0  0
  3 12  1  1  0  0  0
  3  8  1  0  0  0  0
  4 13  1  1  0  0  0
  4  3  1  0  0  0  0
  4  5  1  0  0  0  0
  5 15  1  0  0  0  0
  5  6  1  0  0  0  0
  6 16  1  1  0  0  0
  6  7  1  0  0  0  0
  7 18  1  0  0  0  0
  7 17  1  0  0  0  0
  8 19  1  1  0  0  0
  8  7  1  0  0  0  0
  9  8  1  0  0  0  0
  9  6  1  0  0  0  0
 10  1  1  0  0  0  0
 11  1  1  0  0  0  0
 14  5  1  0  0  0  0
M TOR 0 0 1 2 3
M TOR 1 0 1 2 7
M TOR 2 0 1 2 11
M TOR 3 0 3 2 7
M TOR 4 0 3 2 11
M TOR 5 0 3 4 5
M TOR 6 0 3 4 13
M TOR 7 0 3 4 14
M TOR 8 1 0 3 4
M TOR 9 1 0 3 12
M TOR 10 1 2 3 4
M TOR 11 1 2 3 12
M TOR 12 1 2 7 6
M TOR 13 1 2 7 8
M TOR 14 1 2 7 18
M TOR 15 2 1 0 9
M TOR 16 2 1 0 10
M TOR 17 2 3 0 9
M TOR 18 2 3 0 10
M TOR 19 2 3 4 5
M TOR 20 2 3 4 13
M TOR 21 2 3 4 14
M TOR 22 2 7 6 5
M TOR 23 2 7 6 16
M TOR 24 2 7 6 17
M TOR 25 2 7 8 5
M TOR 26 3 2 7 6
M TOR 27 3 2 7 8
M TOR 28 3 2 7 18
M TOR 29 3 4 5 6
M TOR 30 3 4 5 8
M TOR 31 3 4 5 15
M TOR 32 4 3 0 9
M TOR 33 4 3 0 10
M TOR 34 4 3 2 7
M TOR 35 4 3 2 11
M TOR 36 4 5 6 7
M TOR 37 4 5 6 16
M TOR 38 4 5 6 17
M TOR 39 4 5 8 7
M TOR 40 5 4 3 12
M TOR 41 5 6 7 8
M TOR 42 5 6 7 18
M TOR 43 5 8 7 18
M TOR 44 6 5 4 13
M TOR 45 6 5 4 14
M TOR 46 6 7 2 11
M TOR 47 7 2 3 12
M TOR 48 7 6 5 15
M TOR 49 7 8 5 15
M TOR 50 8 5 4 13
M TOR 51 8 5 4 14
M TOR 52 8 5 6 16
M TOR 53 8 5 6 17
M TOR 54 8 7 2 11
M TOR 55 8 7 6 16
M TOR 56 8 7 6 17
M  END
$$$$
