
     RDKit          3D

 19 21  0  0  0  0  0  0  0  0999 V2000
    1.2485    0.0797   -0.1532 C   0  0  0  0  0  0  0  0  0  0  0  0
   -0.1521    0.1548    0.0670 O   0  0  0  0  0  0  0  0  0  0  0  0
   -0.4997    0.7050    1.2878 C   0  0  0  0  0  0  0  0  0  0  0  0
   -0.1689    0.2387    2.7203 C   0  0  0  0  0  0  0  0  0  0  0  0
   -1.0991    1.4645    2.8800 C   0  0  0  0  0  0  0  0  0  0  0  0
   -1.9746    1.0711    1.6400 C   0  0  0  0  0  0  0  0  0  0  0  0
   -1.8334    2.4778    1.0187 C   0  0  0  0  0  0  0  0  0  0  0  0
   -1.9118    2.6205   -0.3739 O   0  0  0  0  0  0  0  0  0  0  0  0
   -0.4563    2.2375    1.6806 C   0  0  0  0  0  0  0  0  0  0  0  0
    1.7371   -0.5531    0.5990 H   0  0  0  0  0  0  0  0  0  0  0  0
    1.3927   -0.3639   -1.1402 H   0  0  0  0  0  0  0  0  0  0  0  0
    1.7127    1.0751   -0.1328 H   0  0  0  0  0  0  0  0  0  0  0  0
   -0.5745   -0.7299    3.0286 H   0  0  0  0  0  0  0  0  0  0  0  0
    0.8620    0.3611    3.0667 H   0  0  0  0  0  0  0  0  0  0  0  0
   -1.4693    1.9179    3.7958 H   0  0  0  0  0  0  0  0  0  0  0  0
   -2.8183    0.3794    1.6403 H   0  0  0  0  0  0  0  0  0  0  0  0
   -2.4511    3.2688    1.4546 H   0  0  0  0  0  0  0  0  0  0  0  0
   -1.4183    1.8878   -0.7643 H   0  0  0  0  0  0  0  0  0  0  0  0
    0.4245    2.8796    1.7284 H   0  0  0  0  0  0  0  0  0  0  0  0
  1  2  1  0
  2  3  1  0
  3  4  1  0
  4  5  1  0
  5  6  1  0
  6  7  1  0
  7  8  1  0
  7  9  1  0
  6  3  1  0
  9  3  1  0
  9  5  1  0
  1 10  1  0
  1 11  1  0
  1 12  1  0
  4 13  1  0
  4 14  1  0
  5 15  1  0
  6 16  1  0
  7 17  1  0
  8 18  1  0
  9 19  1  0
M  END
$$$$
