
     RDKit          3D

 19 21  0  0  0  0  0  0  0  0999 V2000
    2.8256    0.1223    1.1873 C   0  0  0  0  0  0  0  0  0  0  0  0
    1.8693    0.3838    0.0162 C   0  0  0  0  0  0  0  0  0  0  0  0
    2.4052   -0.0270   -1.3279 C   0  0  0  0  0  0  0  0  0  0  0  0
    1.7075    0.0161   -2.7089 C   0  0  0  0  0  0  0  0  0  0  0  0
    0.6413   -0.8829   -2.9273 O   0  0  0  0  0  0  0  0  0  0  0  0
    3.0752   -0.5641   -3.0684 C   0  0  0  0  0  0  0  0  0  0  0  0
    3.7908    0.2992   -1.9864 C   0  0  0  0  0  0  0  0  0  0  0  0
    4.4880   -0.8277   -1.3746 O   0  0  0  0  0  0  0  0  0  0  0  0
    3.1685   -1.3470   -1.7232 C   0  0  0  0  0  0  0  0  0  0  0  0
    3.0641   -0.9413    1.2742 H   0  0  0  0  0  0  0  0  0  0  0  0
    3.7704    0.6566    1.0573 H   0  0  0  0  0  0  0  0  0  0  0  0
    2.3751    0.4475    2.1300 H   0  0  0  0  0  0  0  0  0  0  0  0
    0.9240   -0.1500    0.1875 H   0  0  0  0  0  0  0  0  0  0  0  0
    1.6107    1.4513   -0.0194 H   0  0  0  0  0  0  0  0  0  0  0  0
    1.4844    1.0166   -3.1064 H   0  0  0  0  0  0  0  0  0  0  0  0
   -0.1654   -0.4856   -2.5853 H   0  0  0  0  0  0  0  0  0  0  0  0
    3.4744   -0.8706   -4.0338 H   0  0  0  0  0  0  0  0  0  0  0  0
    4.3161    1.2484   -2.0877 H   0  0  0  0  0  0  0  0  0  0  0  0
    2.9388   -2.3873   -1.5023 H   0  0  0  0  0  0  0  0  0  0  0  0
  1  2  1  0
  2  3  1  0
  3  4  1  0
  4  5  1  0
  4  6  1  0
  6  7  1  0
  7  8  1  0
  8  9  1  0
  7  3  1  0
  9  3  1  0
  9  6  1  0
  1 10  1  0
  1 11  1  0
  1 12  1  0
  2 13  1  0
  2 14  1  0
  4 15  1  0
  5 16  1  0
  6 17  1  0
  7 18  1  0
  9 19  1  0
M  END
$$$$
