
     RDKit          3D

 19 19  0  0  0  0  0  0  0  0999 V2000
   -1.4214   -3.7912    2.6696 C   0  0  0  0  0  0  0  0  0  0  0  0
   -1.6021   -2.5997    1.7839 C   0  0  0  0  0  0  0  0  0  0  0  0
   -0.6977   -1.6616    1.4916 C   0  0  0  0  0  0  0  0  0  0  0  0
   -1.2076   -0.6332    0.5190 C   0  0  0  0  0  0  0  0  0  0  0  0
   -2.7437   -0.9239    0.4383 C   0  0  0  0  0  0  0  0  0  0  0  0
   -3.2522   -0.8273   -0.8644 O   0  0  0  0  0  0  0  0  0  0  0  0
   -2.8998   -2.3528    1.0486 C   0  0  0  0  0  0  0  0  0  0  0  0
   -3.4658    0.0682    1.3291 C   0  0  0  0  0  0  0  0  0  0  0  0
   -4.3320    0.7994    0.9130 O   0  0  0  0  0  0  0  0  0  0  0  0
   -2.1551   -3.7950    3.4858 H   0  0  0  0  0  0  0  0  0  0  0  0
   -1.5745   -4.7241    2.1120 H   0  0  0  0  0  0  0  0  0  0  0  0
   -0.4209   -3.8186    3.1094 H   0  0  0  0  0  0  0  0  0  0  0  0
    0.3177   -1.6474    1.8741 H   0  0  0  0  0  0  0  0  0  0  0  0
   -0.9895    0.3994    0.8215 H   0  0  0  0  0  0  0  0  0  0  0  0
   -0.7872   -0.7565   -0.4866 H   0  0  0  0  0  0  0  0  0  0  0  0
   -3.9341   -0.1372   -0.8322 H   0  0  0  0  0  0  0  0  0  0  0  0
   -3.7814   -2.4439    1.6976 H   0  0  0  0  0  0  0  0  0  0  0  0
   -3.0493   -3.0624    0.2252 H   0  0  0  0  0  0  0  0  0  0  0  0
   -3.1467    0.0832    2.3913 H   0  0  0  0  0  0  0  0  0  0  0  0
  1  2  1  0
  2  3  2  0
  3  4  1  0
  4  5  1  0
  5  6  1  0
  5  7  1  0
  5  8  1  0
  8  9  2  0
  7  2  1  0
  1 10  1  0
  1 11  1  0
  1 12  1  0
  3 13  1  0
  4 14  1  0
  4 15  1  0
  6 16  1  0
  7 17  1  0
  7 18  1  0
  8 19  1  0
M  END
$$$$
