
     RDKit          3D

 19 21  0  0  0  0  0  0  0  0999 V2000
    0.1509    0.2336    0.0500 C   0  0  0  0  0  0  0  0  0  0  0  0
    1.3163   -0.7271    0.2740 C   0  0  0  0  0  0  0  0  0  0  0  0
    2.4947   -0.0212    0.7531 O   0  0  0  0  0  0  0  0  0  0  0  0
    2.5465   -0.0662    2.1863 C   0  0  0  0  0  0  0  0  0  0  0  0
    1.8987   -1.3832    2.5265 C   0  0  0  0  0  0  0  0  0  0  0  0
    2.2405   -2.6335    1.7899 C   0  0  0  0  0  0  0  0  0  0  0  0
    1.0668   -1.7870    1.3297 C   0  0  0  0  0  0  0  0  0  0  0  0
   -0.0655   -1.8937    2.3634 C   0  0  0  0  0  0  0  0  0  0  0  0
    0.8292   -1.5547    3.4651 O   0  0  0  0  0  0  0  0  0  0  0  0
   -0.1442    0.7344    0.9772 H   0  0  0  0  0  0  0  0  0  0  0  0
    0.4442    1.0019   -0.6696 H   0  0  0  0  0  0  0  0  0  0  0  0
   -0.7217   -0.2963   -0.3466 H   0  0  0  0  0  0  0  0  0  0  0  0
    1.6238   -1.1522   -0.6879 H   0  0  0  0  0  0  0  0  0  0  0  0
    3.6003    0.0351    2.4620 H   0  0  0  0  0  0  0  0  0  0  0  0
    1.9764    0.7479    2.6580 H   0  0  0  0  0  0  0  0  0  0  0  0
    3.1196   -2.5916    1.1561 H   0  0  0  0  0  0  0  0  0  0  0  0
    2.0481   -3.5886    2.2671 H   0  0  0  0  0  0  0  0  0  0  0  0
   -0.8498   -1.1389    2.2524 H   0  0  0  0  0  0  0  0  0  0  0  0
   -0.5210   -2.8812    2.4988 H   0  0  0  0  0  0  0  0  0  0  0  0
  1  2  1  0
  2  3  1  0
  3  4  1  0
  4  5  1  0
  5  6  1  0
  6  7  1  0
  7  8  1  0
  8  9  1  0
  7  2  1  0
  7  5  1  0
  9  5  1  0
  1 10  1  0
  1 11  1  0
  1 12  1  0
  2 13  1  0
  4 14  1  0
  4 15  1  0
  6 16  1  0
  6 17  1  0
  8 18  1  0
  8 19  1  0
M  END
$$$$
