gdb 993	1.9907192	1.2299429	0.9392388	1.9013	81.05	-0.24879	0.01305	0.26184	1366.6295	0.152543	-422.56258	-422.551629	-422.550684	-422.599715	37.586
 OpenBabel02181911403D

 19 18  0  0  0  0  0  0  0  0999 V2000
    1.5732   -0.0966    0.1932 C   0  0  0  0  0  0  0  0  0  0  0  0
    0.1206   -0.0338    0.2519 C   0  0  0  0  0  0  0  0  0  0  0  0
   -1.0805    0.0359    0.2782 C   0  0  0  0  0  0  0  0  0  0  0  0
   -2.5415    0.0623    0.3526 C   0  0  0  0  0  0  0  0  0  0  0  0
   -3.1873   -0.6512   -0.8446 C   0  0  0  0  0  0  0  0  0  0  0  0
   -3.0171   -0.5452    1.6792 C   0  0  0  0  0  0  0  0  0  0  0  0
   -3.0290    1.4508    0.4313 O   0  0  0  0  0  0  0  0  0  0  0  0
   -2.7427    2.3211   -0.5453 C   0  0  0  0  0  0  0  0  0  0  0  0
   -2.1290    2.1165   -1.5555 O   0  0  0  0  0  0  0  0  0  0  0  0
    2.0172   -0.0924    1.1946 H   0  0  0  0  0  0  0  0  0  0  0  0
    1.9075   -1.0070   -0.3161 H   0  0  0  0  0  0  0  0  0  0  0  0
    1.9792    0.7587   -0.3578 H   0  0  0  0  0  0  0  0  0  0  0  0
   -2.9229   -1.7117   -0.8178 H   0  0  0  0  0  0  0  0  0  0  0  0
   -4.2760   -0.5609   -0.7822 H   0  0  0  0  0  0  0  0  0  0  0  0
   -2.8398   -0.2233   -1.7837 H   0  0  0  0  0  0  0  0  0  0  0  0
   -2.7026   -1.5895    1.7416 H   0  0  0  0  0  0  0  0  0  0  0  0
   -2.5884    0.0016    2.5214 H   0  0  0  0  0  0  0  0  0  0  0  0
   -4.1077   -0.4955    1.7417 H   0  0  0  0  0  0  0  0  0  0  0  0
   -3.1787    3.2947   -0.2652 H   0  0  0  0  0  0  0  0  0  0  0  0
  1  2  1  0  0  0  0
  1 10  1  0  0  0  0
  2  3  3  0  0  0  0
  3  4  1  0  0  0  0
  4  7  1  0  0  0  0
  4  6  1  0  0  0  0
  5 13  1  0  0  0  0
  5 14  1  0  0  0  0
  5  4  1  0  0  0  0
  6 16  1  0  0  0  0
  6 18  1  0  0  0  0
  6 17  1  0  0  0  0
  8 19  1  0  0  0  0
  8  7  1  0  0  0  0
  9  8  2  0  0  0  0
 11  1  1  0  0  0  0
 12  1  1  0  0  0  0
 15  5  1  0  0  0  0
M TOR 0 0 1 2 3
M TOR 1 1 2 3 4
M TOR 2 1 2 3 5
M TOR 3 1 2 3 6
M TOR 4 2 1 0 9
M TOR 5 2 1 0 10
M TOR 6 2 1 0 11
M TOR 7 2 3 4 12
M TOR 8 2 3 4 13
M TOR 9 2 3 4 14
M TOR 10 2 3 5 15
M TOR 11 2 3 5 16
M TOR 12 2 3 5 17
M TOR 13 2 3 6 7
M TOR 14 3 6 7 8
M TOR 15 3 6 7 18
M TOR 16 4 3 5 15
M TOR 17 4 3 5 16
M TOR 18 4 3 5 17
M TOR 19 4 3 6 7
M TOR 20 5 3 4 12
M TOR 21 5 3 4 13
M TOR 22 5 3 4 14
M TOR 23 5 3 6 7
M TOR 24 6 3 4 12
M TOR 25 6 3 4 13
M TOR 26 6 3 4 14
M TOR 27 6 3 5 15
M TOR 28 6 3 5 16
M TOR 29 6 3 5 17
M  END
$$$$
