
     RDKit          3D

 19 19  0  0  0  0  0  0  0  0999 V2000
    4.0209    1.5356   -1.9492 C   0  0  0  0  0  0  0  0  0  0  0  0
    3.7228    0.1247   -1.4203 C   0  0  0  0  0  0  0  0  0  0  0  0
    3.4900   -0.7952   -2.4866 O   0  0  0  0  0  0  0  0  0  0  0  0
    2.6223    0.1358   -0.4523 C   0  0  0  0  0  0  0  0  0  0  0  0
    1.6944    0.1647    0.3187 C   0  0  0  0  0  0  0  0  0  0  0  0
    0.5995    0.1260    1.2528 C   0  0  0  0  0  0  0  0  0  0  0  0
    0.6971   -0.8462    2.2619 O   0  0  0  0  0  0  0  0  0  0  0  0
   -0.7981    0.4867    0.7686 C   0  0  0  0  0  0  0  0  0  0  0  0
   -0.0565    1.4042    1.7070 C   0  0  0  0  0  0  0  0  0  0  0  0
    4.3006    2.2073   -1.1325 H   0  0  0  0  0  0  0  0  0  0  0  0
    4.8404    1.4863   -2.6708 H   0  0  0  0  0  0  0  0  0  0  0  0
    3.1389    1.9527   -2.4462 H   0  0  0  0  0  0  0  0  0  0  0  0
    4.6224   -0.2600   -0.9243 H   0  0  0  0  0  0  0  0  0  0  0  0
    2.6270   -0.5861   -2.8611 H   0  0  0  0  0  0  0  0  0  0  0  0
    0.7621   -1.7060    1.8309 H   0  0  0  0  0  0  0  0  0  0  0  0
   -0.9221    0.7864   -0.2654 H   0  0  0  0  0  0  0  0  0  0  0  0
   -1.6020   -0.1098    1.1843 H   0  0  0  0  0  0  0  0  0  0  0  0
    0.3345    2.3387    1.3241 H   0  0  0  0  0  0  0  0  0  0  0  0
   -0.3662    1.4180    2.7455 H   0  0  0  0  0  0  0  0  0  0  0  0
  1  2  1  0
  2  3  1  0
  2  4  1  0
  4  5  3  0
  5  6  1  0
  6  7  1  0
  6  8  1  0
  8  9  1  0
  9  6  1  0
  1 10  1  0
  1 11  1  0
  1 12  1  0
  2 13  1  0
  3 14  1  0
  7 15  1  0
  8 16  1  0
  8 17  1  0
  9 18  1  0
  9 19  1  0
M  END
$$$$
