
     RDKit          3D

 19 18  0  0  0  0  0  0  0  0999 V2000
   -2.3862   -2.9726    3.4555 C   0  0  0  0  0  0  0  0  0  0  0  0
   -1.1485   -2.1054    3.3377 C   0  0  0  0  0  0  0  0  0  0  0  0
   -0.2234   -2.1697    4.1197 O   0  0  0  0  0  0  0  0  0  0  0  0
   -1.1389   -1.1822    2.2186 C   0  0  0  0  0  0  0  0  0  0  0  0
   -1.1364   -0.4138    1.2869 C   0  0  0  0  0  0  0  0  0  0  0  0
   -1.0922    0.5251    0.1759 C   0  0  0  0  0  0  0  0  0  0  0  0
    0.3297    1.0281   -0.1442 C   0  0  0  0  0  0  0  0  0  0  0  0
    0.3354    2.0431   -1.2886 C   0  0  0  0  0  0  0  0  0  0  0  0
    1.6407    2.4625   -1.6418 O   0  0  0  0  0  0  0  0  0  0  0  0
   -2.2933   -3.6273    4.3233 H   0  0  0  0  0  0  0  0  0  0  0  0
   -3.2778   -2.3438    3.5529 H   0  0  0  0  0  0  0  0  0  0  0  0
   -2.5150   -3.5696    2.5462 H   0  0  0  0  0  0  0  0  0  0  0  0
   -1.5294    0.0542   -0.7149 H   0  0  0  0  0  0  0  0  0  0  0  0
   -1.7436    1.3782    0.4118 H   0  0  0  0  0  0  0  0  0  0  0  0
    0.7591    1.4831    0.7570 H   0  0  0  0  0  0  0  0  0  0  0  0
    0.9724    0.1829   -0.4098 H   0  0  0  0  0  0  0  0  0  0  0  0
   -0.0837    1.5895   -2.1942 H   0  0  0  0  0  0  0  0  0  0  0  0
   -0.3089    2.9009   -1.0323 H   0  0  0  0  0  0  0  0  0  0  0  0
    2.0237    2.9130   -0.8822 H   0  0  0  0  0  0  0  0  0  0  0  0
  1  2  1  0
  2  3  2  0
  2  4  1  0
  4  5  3  0
  5  6  1  0
  6  7  1  0
  7  8  1  0
  8  9  1  0
  1 10  1  0
  1 11  1  0
  1 12  1  0
  6 13  1  0
  6 14  1  0
  7 15  1  0
  7 16  1  0
  8 17  1  0
  8 18  1  0
  9 19  1  0
M  END
$$$$
