
     RDKit          3D

 19 20  0  0  0  0  0  0  0  0999 V2000
    1.2743   -0.6898    0.2145 O   0  0  0  0  0  0  0  0  0  0  0  0
    0.1723   -0.2075    0.1798 C   0  0  0  0  0  0  0  0  0  0  0  0
   -0.3789    0.7713    1.1964 C   0  0  0  0  0  0  0  0  0  0  0  0
   -0.9159    2.0266    0.5319 C   0  0  0  0  0  0  0  0  0  0  0  0
    0.0101    3.1622    0.1778 C   0  0  0  0  0  0  0  0  0  0  0  0
   -0.9874    3.3233    1.3033 C   0  0  0  0  0  0  0  0  0  0  0  0
   -2.1607    4.2257    1.1322 C   0  0  0  0  0  0  0  0  0  0  0  0
   -2.4189    5.3596    2.0286 C   0  0  0  0  0  0  0  0  0  0  0  0
   -3.1817    4.1555    2.1331 O   0  0  0  0  0  0  0  0  0  0  0  0
   -0.5380   -0.4611   -0.6427 H   0  0  0  0  0  0  0  0  0  0  0  0
   -1.1923    0.2677    1.7393 H   0  0  0  0  0  0  0  0  0  0  0  0
    0.4125    1.0038    1.9152 H   0  0  0  0  0  0  0  0  0  0  0  0
   -1.7352    1.8518   -0.1620 H   0  0  0  0  0  0  0  0  0  0  0  0
    1.0581    3.0715    0.4426 H   0  0  0  0  0  0  0  0  0  0  0  0
   -0.1693    3.7025   -0.7459 H   0  0  0  0  0  0  0  0  0  0  0  0
   -0.5902    3.3025    2.3144 H   0  0  0  0  0  0  0  0  0  0  0  0
   -2.5459    4.2901    0.1119 H   0  0  0  0  0  0  0  0  0  0  0  0
   -1.7360    5.5531    2.8553 H   0  0  0  0  0  0  0  0  0  0  0  0
   -2.9615    6.2307    1.6636 H   0  0  0  0  0  0  0  0  0  0  0  0
  1  2  2  0
  2  3  1  0
  3  4  1  0
  4  5  1  0
  5  6  1  0
  6  7  1  0
  7  8  1  0
  8  9  1  0
  6  4  1  0
  9  7  1  0
  2 10  1  0
  3 11  1  0
  3 12  1  0
  4 13  1  0
  5 14  1  0
  5 15  1  0
  6 16  1  0
  7 17  1  0
  8 18  1  0
  8 19  1  0
M  END
$$$$
