gdb 4066	3.1834417	1.4062903	1.1614844	2.6799	75.28	-0.23999	0.07285	0.31284	1108.7984	0.156421	-422.513111	-422.504881	-422.503937	-422.545506	32.01
 OpenBabel02181911413D

 19 21  0  0  1  0  0  0  0  0999 V2000
    0.2945    0.3128    0.1047 C   0  0  0  0  0  0  0  0  0  0  0  0
    1.1509   -0.8227   -0.4194 C   0  0  1  0  0  0  0  0  0  0  0  0
    2.5349   -0.4096   -0.5944 O   0  0  0  0  0  0  0  0  0  0  0  0
    3.0042   -1.3868    0.3464 C   0  0  2  0  0  0  0  0  0  0  0  0
    3.3748   -2.7104   -0.3042 C   0  0  1  0  0  0  0  0  0  0  0  0
    3.1284   -3.8338    0.6814 C   0  0  0  0  0  0  0  0  0  0  0  0
    1.9608   -3.2320   -0.0495 C   0  0  2  0  0  0  0  0  0  0  0  0
    1.1703   -3.9534   -0.9267 O   0  0  0  0  0  0  0  0  0  0  0  0
    1.5494   -1.9148    0.5985 C   0  0  2  0  0  0  0  0  0  0  0  0
    0.6771    0.6831    1.0611 H   0  0  0  0  0  0  0  0  0  0  0  0
    0.2916    1.1439   -0.6074 H   0  0  0  0  0  0  0  0  0  0  0  0
   -0.7391   -0.0223    0.2472 H   0  0  0  0  0  0  0  0  0  0  0  0
    0.7383   -1.2184   -1.3556 H   0  0  0  0  0  0  0  0  0  0  0  0
    3.6697   -0.9600    1.1023 H   0  0  0  0  0  0  0  0  0  0  0  0
    4.0052   -2.8281   -1.1765 H   0  0  0  0  0  0  0  0  0  0  0  0
    3.4210   -4.8132    0.3163 H   0  0  0  0  0  0  0  0  0  0  0  0
    3.2727   -3.6868    1.7501 H   0  0  0  0  0  0  0  0  0  0  0  0
    0.6700   -4.6043   -0.4222 H   0  0  0  0  0  0  0  0  0  0  0  0
    1.0287   -1.9227    1.5589 H   0  0  0  0  0  0  0  0  0  0  0  0
  1 12  1  0  0  0  0
  1 10  1  0  0  0  0
  2 13  1  6  0  0  0
  2  1  1  0  0  0  0
  2  9  1  0  0  0  0
  3  2  1  0  0  0  0
  3  4  1  0  0  0  0
  4  9  1  0  0  0  0
  4 14  1  1  0  0  0
  5 15  1  6  0  0  0
  5  7  1  0  0  0  0
  5  4  1  0  0  0  0
  5  6  1  0  0  0  0
  6 17  1  0  0  0  0
  7  8  1  6  0  0  0
  7  9  1  0  0  0  0
  7  6  1  0  0  0  0
  8 18  1  0  0  0  0
  9 19  1  1  0  0  0
 11  1  1  0  0  0  0
 16  6  1  0  0  0  0
M TOR 0 0 1 2 3
M TOR 1 0 1 8 3
M TOR 2 0 1 8 6
M TOR 3 0 1 8 18
M TOR 4 1 2 3 4
M TOR 5 1 2 3 8
M TOR 6 1 2 3 13
M TOR 7 1 8 3 4
M TOR 8 1 8 3 13
M TOR 9 1 8 6 4
M TOR 10 1 8 6 5
M TOR 11 1 8 6 7
M TOR 12 2 1 0 9
M TOR 13 2 1 0 10
M TOR 14 2 1 0 11
M TOR 15 2 1 8 6
M TOR 16 2 1 8 18
M TOR 17 2 3 4 5
M TOR 18 2 3 4 6
M TOR 19 2 3 4 14
M TOR 20 2 3 8 6
M TOR 21 2 3 8 18
M TOR 22 3 2 1 12
M TOR 23 3 4 5 6
M TOR 24 3 4 5 15
M TOR 25 3 4 5 16
M TOR 26 3 4 6 7
M TOR 27 3 4 6 8
M TOR 28 3 8 1 12
M TOR 29 3 8 6 5
M TOR 30 3 8 6 7
M TOR 31 4 3 8 18
M TOR 32 4 5 6 7
M TOR 33 4 5 6 8
M TOR 34 4 6 5 15
M TOR 35 4 6 5 16
M TOR 36 4 6 7 17
M TOR 37 4 6 8 18
M TOR 38 5 4 3 8
M TOR 39 5 4 3 13
M TOR 40 5 6 4 14
M TOR 41 5 6 7 17
M TOR 42 5 6 8 18
M TOR 43 6 4 3 13
M TOR 44 6 8 1 12
M TOR 45 6 8 3 13
M TOR 46 7 6 4 14
M TOR 47 7 6 5 15
M TOR 48 7 6 5 16
M TOR 49 7 6 8 18
M TOR 50 8 1 0 9
M TOR 51 8 1 0 10
M TOR 52 8 1 0 11
M TOR 53 8 3 4 14
M TOR 54 8 6 4 14
M TOR 55 8 6 5 15
M TOR 56 8 6 5 16
M TOR 57 8 6 7 17
M  END
$$$$
