
     RDKit          3D

 19 19  0  0  0  0  0  0  0  0999 V2000
   -2.1949    1.6256    0.2446 C   0  0  0  0  0  0  0  0  0  0  0  0
   -1.0121    2.0229   -0.6432 C   0  0  0  0  0  0  0  0  0  0  0  0
   -0.1995    0.7953   -1.0856 C   0  0  0  0  0  0  0  0  0  0  0  0
    0.4222    0.0463    0.0740 C   0  0  0  0  0  0  0  0  0  0  0  0
    0.2672   -1.1259    0.2997 O   0  0  0  0  0  0  0  0  0  0  0  0
   -1.4551    2.9623   -1.8187 C   0  0  0  0  0  0  0  0  0  0  0  0
   -0.8519    4.1426   -1.0432 C   0  0  0  0  0  0  0  0  0  0  0  0
   -0.9232    5.3308   -1.1538 O   0  0  0  0  0  0  0  0  0  0  0  0
   -0.1791    3.2064   -0.0282 C   0  0  0  0  0  0  0  0  0  0  0  0
   -1.8605    1.1339    1.1643 H   0  0  0  0  0  0  0  0  0  0  0  0
   -2.7823    2.5039    0.5326 H   0  0  0  0  0  0  0  0  0  0  0  0
   -2.8618    0.9329   -0.2795 H   0  0  0  0  0  0  0  0  0  0  0  0
   -0.8204    0.0952   -1.6535 H   0  0  0  0  0  0  0  0  0  0  0  0
    0.6226    1.1257   -1.7375 H   0  0  0  0  0  0  0  0  0  0  0  0
    1.0639    0.6735    0.7367 H   0  0  0  0  0  0  0  0  0  0  0  0
   -0.9159    2.7810   -2.7552 H   0  0  0  0  0  0  0  0  0  0  0  0
   -2.5241    3.0212   -2.0402 H   0  0  0  0  0  0  0  0  0  0  0  0
    0.8987    3.1344   -0.2127 H   0  0  0  0  0  0  0  0  0  0  0  0
   -0.3341    3.4433    1.0277 H   0  0  0  0  0  0  0  0  0  0  0  0
  1  2  1  0
  2  3  1  0
  3  4  1  0
  4  5  2  0
  2  6  1  0
  6  7  1  0
  7  8  2  0
  7  9  1  0
  9  2  1  0
  1 10  1  0
  1 11  1  0
  1 12  1  0
  3 13  1  0
  3 14  1  0
  4 15  1  0
  6 16  1  0
  6 17  1  0
  9 18  1  0
  9 19  1  0
M  END
$$$$
