
     RDKit          3D

 19 21  0  0  0  0  0  0  0  0999 V2000
    0.2782   -0.0915    0.3129 O   0  0  0  0  0  0  0  0  0  0  0  0
   -0.9079    0.3223    0.8897 C   0  0  0  0  0  0  0  0  0  0  0  0
   -1.0103    1.2779    2.0775 C   0  0  0  0  0  0  0  0  0  0  0  0
   -2.3721    0.5975    2.4606 C   0  0  0  0  0  0  0  0  0  0  0  0
   -3.5878    1.4679    2.1486 C   0  0  0  0  0  0  0  0  0  0  0  0
   -3.4080    2.1728    0.9301 O   0  0  0  0  0  0  0  0  0  0  0  0
   -3.1699    1.3358   -0.1905 C   0  0  0  0  0  0  0  0  0  0  0  0
   -2.1561    0.2355    0.0619 C   0  0  0  0  0  0  0  0  0  0  0  0
   -2.1200   -0.4852    1.3902 C   0  0  0  0  0  0  0  0  0  0  0  0
    0.8673   -0.3855    1.0173 H   0  0  0  0  0  0  0  0  0  0  0  0
   -0.2410    1.0471    2.8227 H   0  0  0  0  0  0  0  0  0  0  0  0
   -1.0126    2.3520    1.8787 H   0  0  0  0  0  0  0  0  0  0  0  0
   -2.4105    0.2227    3.4854 H   0  0  0  0  0  0  0  0  0  0  0  0
   -4.5002    0.8479    2.1134 H   0  0  0  0  0  0  0  0  0  0  0  0
   -3.7318    2.2401    2.9113 H   0  0  0  0  0  0  0  0  0  0  0  0
   -4.1150    0.8643   -0.5148 H   0  0  0  0  0  0  0  0  0  0  0  0
   -2.8402    2.0037   -0.9937 H   0  0  0  0  0  0  0  0  0  0  0  0
   -2.0116   -0.4245   -0.7903 H   0  0  0  0  0  0  0  0  0  0  0  0
   -2.2762   -1.5516    1.4971 H   0  0  0  0  0  0  0  0  0  0  0  0
  1  2  1  0
  2  3  1  0
  3  4  1  0
  4  5  1  0
  5  6  1  0
  6  7  1  0
  7  8  1  0
  8  9  1  0
  8  2  1  0
  9  2  1  0
  9  4  1  0
  1 10  1  0
  3 11  1  0
  3 12  1  0
  4 13  1  0
  5 14  1  0
  5 15  1  0
  7 16  1  0
  7 17  1  0
  8 18  1  0
  9 19  1  0
M  END
$$$$
