gdb 620	2.6838229	2.005903	1.5945458	1.9987	73.52	-0.23156	0.08036	0.31192	912.8921	0.160461	-422.54661	-422.539639	-422.538695	-422.578009	27.714
 OpenBabel02181911403D

 19 21  0  0  1  0  0  0  0  0999 V2000
   -0.7582   -0.3843   -1.0632 C   0  0  0  0  0  0  0  0  0  0  0  0
   -0.8322   -1.2713    0.0473 O   0  0  0  0  0  0  0  0  0  0  0  0
    0.2752   -1.1209    0.9421 C   0  0  2  0  0  0  0  0  0  0  0  0
   -0.2715   -0.7495    2.3361 C   0  0  0  0  0  0  0  0  0  0  0  0
   -0.5221    0.7701    2.4579 C   0  0  0  0  0  0  0  0  0  0  0  0
   -0.6804    1.3950    1.1822 O   0  0  0  0  0  0  0  0  0  0  0  0
    0.4844    1.3098    0.4194 C   0  0  2  0  0  0  0  0  0  0  0  0
    0.4506    0.5057   -0.8520 C   0  0  1  0  0  0  0  0  0  0  0  0
    1.1685   -0.0309    0.3633 C   0  0  2  0  0  0  0  0  0  0  0  0
   -0.6505   -0.9563   -1.9957 H   0  0  0  0  0  0  0  0  0  0  0  0
   -1.6942    0.1856   -1.1132 H   0  0  0  0  0  0  0  0  0  0  0  0
    0.8127   -2.0759    0.9973 H   0  0  0  0  0  0  0  0  0  0  0  0
   -1.1958   -1.3141    2.4843 H   0  0  0  0  0  0  0  0  0  0  0  0
    0.4356   -1.0697    3.1097 H   0  0  0  0  0  0  0  0  0  0  0  0
   -1.4426    0.9819    3.0067 H   0  0  0  0  0  0  0  0  0  0  0  0
    0.3068    1.2527    2.9960 H   0  0  0  0  0  0  0  0  0  0  0  0
    1.0990    2.2094    0.4374 H   0  0  0  0  0  0  0  0  0  0  0  0
    0.9917    0.8715   -1.7168 H   0  0  0  0  0  0  0  0  0  0  0  0
    2.2452   -0.1247    0.4297 H   0  0  0  0  0  0  0  0  0  0  0  0
  1  8  1  0  0  0  0
  1  2  1  0  0  0  0
  2  3  1  0  0  0  0
  3 12  1  1  0  0  0
  3  4  1  0  0  0  0
  4  5  1  0  0  0  0
  4 13  1  0  0  0  0
  4 14  1  0  0  0  0
  5 16  1  0  0  0  0
  5 15  1  0  0  0  0
  6  5  1  0  0  0  0
  7 17  1  1  0  0  0
  7  6  1  0  0  0  0
  8 18  1  6  0  0  0
  8  9  1  0  0  0  0
  8  7  1  0  0  0  0
  9  7  1  0  0  0  0
  9 19  1  1  0  0  0
  9  3  1  0  0  0  0
 10  1  1  0  0  0  0
 11  1  1  0  0  0  0
M TOR 0 0 1 2 3
M TOR 1 0 1 2 8
M TOR 2 0 1 2 11
M TOR 3 0 7 6 5
M TOR 4 0 7 6 8
M TOR 5 0 7 6 16
M TOR 6 0 7 8 2
M TOR 7 0 7 8 18
M TOR 8 1 0 7 6
M TOR 9 1 0 7 8
M TOR 10 1 0 7 17
M TOR 11 1 2 3 4
M TOR 12 1 2 3 12
M TOR 13 1 2 3 13
M TOR 14 1 2 8 6
M TOR 15 1 2 8 7
M TOR 16 1 2 8 18
M TOR 17 2 1 0 7
M TOR 18 2 1 0 9
M TOR 19 2 1 0 10
M TOR 20 2 3 4 5
M TOR 21 2 3 4 14
M TOR 22 2 3 4 15
M TOR 23 2 8 6 5
M TOR 24 2 8 6 7
M TOR 25 2 8 6 16
M TOR 26 2 8 7 17
M TOR 27 3 2 8 6
M TOR 28 3 2 8 7
M TOR 29 3 2 8 18
M TOR 30 3 4 5 6
M TOR 31 4 3 2 8
M TOR 32 4 3 2 11
M TOR 33 4 5 6 7
M TOR 34 4 5 6 8
M TOR 35 4 5 6 16
M TOR 36 5 4 3 12
M TOR 37 5 4 3 13
M TOR 38 5 6 7 8
M TOR 39 5 6 7 17
M TOR 40 5 6 8 18
M TOR 41 6 5 4 14
M TOR 42 6 5 4 15
M TOR 43 6 7 0 9
M TOR 44 6 7 0 10
M TOR 45 6 7 8 18
M TOR 46 6 8 2 11
M TOR 47 6 8 7 17
M TOR 48 7 8 2 11
M TOR 49 7 8 6 16
M TOR 50 8 2 3 12
M TOR 51 8 2 3 13
M TOR 52 8 7 0 9
M TOR 53 8 7 0 10
M  END
$$$$
