gdb 5197	3.2394224	1.4043569	1.3709104	2.0759	74.18	-0.23412	0.07246	0.30657999999999996	1024.3704	0.158473	-422.520637	-422.513177	-422.512233	-422.552429	29.762
 OpenBabel02181911423D

 19 21  0  0  1  0  0  0  0  0999 V2000
    1.1920    0.7973    0.1622 O   0  0  0  0  0  0  0  0  0  0  0  0
    0.0963   -0.0870   -0.0482 C   0  0  0  0  0  0  0  0  0  0  0  0
   -0.9898    0.6804   -0.7474 C   0  0  1  0  0  0  0  0  0  0  0  0
   -0.7438    1.4539   -2.0739 C   0  0  0  0  0  0  0  0  0  0  0  0
   -1.9484    2.2977   -1.6305 C   0  0  1  0  0  0  0  0  0  0  0  0
   -3.1038    1.3338   -1.1401 C   0  0  1  0  0  0  0  0  0  0  0  0
   -2.3415   -0.0032   -1.0465 C   0  0  0  0  0  0  0  0  0  0  0  0
   -2.9637    1.8299    0.2261 O   0  0  0  0  0  0  0  0  0  0  0  0
   -1.6002    2.0481   -0.1504 C   0  0  1  0  0  0  0  0  0  0  0  0
    1.8856    0.3136    0.6198 H   0  0  0  0  0  0  0  0  0  0  0  0
    0.3994   -0.9553   -0.6573 H   0  0  0  0  0  0  0  0  0  0  0  0
   -0.2892   -0.4769    0.9080 H   0  0  0  0  0  0  0  0  0  0  0  0
    0.1783    2.0387   -2.0410 H   0  0  0  0  0  0  0  0  0  0  0  0
   -0.7947    0.8859   -3.0080 H   0  0  0  0  0  0  0  0  0  0  0  0
   -2.2213    3.2703   -2.0354 H   0  0  0  0  0  0  0  0  0  0  0  0
   -4.1250    1.3611   -1.5175 H   0  0  0  0  0  0  0  0  0  0  0  0
   -2.7381   -0.6095   -0.2287 H   0  0  0  0  0  0  0  0  0  0  0  0
   -2.3231   -0.5891   -1.9698 H   0  0  0  0  0  0  0  0  0  0  0  0
   -1.0033    2.6698    0.5132 H   0  0  0  0  0  0  0  0  0  0  0  0
  1 10  1  0  0  0  0
  2  1  1  0  0  0  0
  2 12  1  0  0  0  0
  3  9  1  0  0  0  0
  3  2  1  1  0  0  0
  4 13  1  0  0  0  0
  4  5  1  0  0  0  0
  4  3  1  0  0  0  0
  5 15  1  6  0  0  0
  5  6  1  0  0  0  0
  5  9  1  0  0  0  0
  6 16  1  6  0  0  0
  6  7  1  0  0  0  0
  6  8  1  0  0  0  0
  7  3  1  0  0  0  0
  7 17  1  0  0  0  0
  9  8  1  0  0  0  0
  9 19  1  1  0  0  0
 11  2  1  0  0  0  0
 14  4  1  0  0  0  0
 18  7  1  0  0  0  0
M TOR 0 0 1 2 3
M TOR 1 0 1 2 6
M TOR 2 0 1 2 8
M TOR 3 1 2 3 4
M TOR 4 1 2 3 12
M TOR 5 1 2 3 13
M TOR 6 1 2 6 5
M TOR 7 1 2 6 16
M TOR 8 1 2 6 17
M TOR 9 1 2 8 4
M TOR 10 1 2 8 7
M TOR 11 1 2 8 18
M TOR 12 2 1 0 9
M TOR 13 2 3 4 5
M TOR 14 2 3 4 8
M TOR 15 2 3 4 14
M TOR 16 2 6 5 4
M TOR 17 2 6 5 7
M TOR 18 2 6 5 15
M TOR 19 2 8 4 5
M TOR 20 2 8 4 14
M TOR 21 2 8 7 5
M TOR 22 3 2 1 10
M TOR 23 3 2 1 11
M TOR 24 3 2 6 5
M TOR 25 3 2 6 16
M TOR 26 3 2 6 17
M TOR 27 3 2 8 7
M TOR 28 3 2 8 18
M TOR 29 3 4 5 6
M TOR 30 3 4 5 7
M TOR 31 3 4 5 15
M TOR 32 3 4 8 7
M TOR 33 3 4 8 18
M TOR 34 4 3 2 6
M TOR 35 4 5 6 16
M TOR 36 4 5 6 17
M TOR 37 4 5 7 8
M TOR 38 4 8 2 6
M TOR 39 5 4 3 12
M TOR 40 5 4 3 13
M TOR 41 5 4 8 18
M TOR 42 5 6 2 8
M TOR 43 5 7 8 18
M TOR 44 6 2 1 10
M TOR 45 6 2 1 11
M TOR 46 6 2 3 12
M TOR 47 6 2 3 13
M TOR 48 6 2 8 7
M TOR 49 6 2 8 18
M TOR 50 6 5 4 8
M TOR 51 6 5 4 14
M TOR 52 6 5 7 8
M TOR 53 7 5 4 14
M TOR 54 7 5 6 16
M TOR 55 7 5 6 17
M TOR 56 7 8 4 14
M TOR 57 8 2 1 10
M TOR 58 8 2 1 11
M TOR 59 8 2 3 12
M TOR 60 8 2 3 13
M TOR 61 8 2 6 16
M TOR 62 8 2 6 17
M TOR 63 8 4 3 12
M TOR 64 8 4 3 13
M TOR 65 8 4 5 15
M TOR 66 8 7 5 15
M  END
$$$$
