
     RDKit          3D

 19 18  0  0  0  0  0  0  0  0999 V2000
    1.3726   -0.0246   -0.1703 C   0  0  0  0  0  0  0  0  0  0  0  0
   -0.0122   -0.0674    0.0822 O   0  0  0  0  0  0  0  0  0  0  0  0
   -0.3941    0.7257    1.1819 C   0  0  0  0  0  0  0  0  0  0  0  0
   -1.9045    0.5933    1.3454 C   0  0  0  0  0  0  0  0  0  0  0  0
   -2.4553    1.4223    2.5363 C   0  0  0  0  0  0  0  0  0  0  0  0
   -1.9576    0.8181    3.8549 C   0  0  0  0  0  0  0  0  0  0  0  0
   -1.1007    1.3059    4.5404 O   0  0  0  0  0  0  0  0  0  0  0  0
   -3.9130    1.4430    2.5447 C   0  0  0  0  0  0  0  0  0  0  0  0
   -5.1142    1.4221    2.5839 C   0  0  0  0  0  0  0  0  0  0  0  0
    1.9562   -0.3923    0.6884 H   0  0  0  0  0  0  0  0  0  0  0  0
    1.5673   -0.6679   -1.0317 H   0  0  0  0  0  0  0  0  0  0  0  0
    1.7140    0.9963   -0.4039 H   0  0  0  0  0  0  0  0  0  0  0  0
    0.1327    0.4031    2.0954 H   0  0  0  0  0  0  0  0  0  0  0  0
   -0.1199    1.7822    1.0142 H   0  0  0  0  0  0  0  0  0  0  0  0
   -2.3980    0.9266    0.4282 H   0  0  0  0  0  0  0  0  0  0  0  0
   -2.1660   -0.4624    1.4788 H   0  0  0  0  0  0  0  0  0  0  0  0
   -2.0604    2.4439    2.4852 H   0  0  0  0  0  0  0  0  0  0  0  0
   -2.4514   -0.1428    4.1205 H   0  0  0  0  0  0  0  0  0  0  0  0
   -6.1761    1.4238    2.6083 H   0  0  0  0  0  0  0  0  0  0  0  0
  1  2  1  0
  2  3  1  0
  3  4  1  0
  4  5  1  0
  5  6  1  0
  6  7  2  0
  5  8  1  0
  8  9  3  0
  1 10  1  0
  1 11  1  0
  1 12  1  0
  3 13  1  0
  3 14  1  0
  4 15  1  0
  4 16  1  0
  5 17  1  0
  6 18  1  0
  9 19  1  0
M  END
$$$$
