
     RDKit          3D

 19 18  0  0  0  0  0  0  0  0999 V2000
   -3.0658    0.0669   -1.9604 C   0  0  0  0  0  0  0  0  0  0  0  0
   -1.9106   -0.8366   -1.4917 C   0  0  0  0  0  0  0  0  0  0  0  0
   -1.3843   -1.5737   -2.6018 O   0  0  0  0  0  0  0  0  0  0  0  0
   -0.7361    0.0203   -0.9747 C   0  0  0  0  0  0  0  0  0  0  0  0
    0.4687   -0.8083   -0.5057 C   0  0  0  0  0  0  0  0  0  0  0  0
    1.6831    0.0550   -0.2646 C   0  0  0  0  0  0  0  0  0  0  0  0
    2.3243    0.0847    0.7541 O   0  0  0  0  0  0  0  0  0  0  0  0
   -2.3931   -1.7605   -0.4527 C   0  0  0  0  0  0  0  0  0  0  0  0
   -2.8181   -2.5303    0.3673 C   0  0  0  0  0  0  0  0  0  0  0  0
   -3.4527    0.6717   -1.1355 H   0  0  0  0  0  0  0  0  0  0  0  0
   -2.7096    0.7277   -2.7554 H   0  0  0  0  0  0  0  0  0  0  0  0
   -3.8880   -0.5397   -2.3510 H   0  0  0  0  0  0  0  0  0  0  0  0
   -2.0134   -2.2692   -2.8204 H   0  0  0  0  0  0  0  0  0  0  0  0
   -0.4372    0.6757   -1.8019 H   0  0  0  0  0  0  0  0  0  0  0  0
   -1.0981    0.6603   -0.1639 H   0  0  0  0  0  0  0  0  0  0  0  0
    0.2445   -1.3713    0.4032 H   0  0  0  0  0  0  0  0  0  0  0  0
    0.7189   -1.5205   -1.3031 H   0  0  0  0  0  0  0  0  0  0  0  0
    1.9670    0.6947   -1.1351 H   0  0  0  0  0  0  0  0  0  0  0  0
   -3.1807   -3.2093    1.0997 H   0  0  0  0  0  0  0  0  0  0  0  0
  1  2  1  0
  2  3  1  0
  2  4  1  0
  4  5  1  0
  5  6  1  0
  6  7  2  0
  2  8  1  0
  8  9  3  0
  1 10  1  0
  1 11  1  0
  1 12  1  0
  3 13  1  0
  4 14  1  0
  4 15  1  0
  5 16  1  0
  5 17  1  0
  6 18  1  0
  9 19  1  0
M  END
$$$$
