gdb 4830	3.7012377	1.2558535	1.1183844	2.7192	74.15	-0.2285	0.06103	0.28953	1138.7819	0.155176	-422.470868	-422.462523	-422.461579	-422.503598	32.343
 OpenBabel02181911413D

 19 21  0  0  1  0  0  0  0  0999 V2000
    0.4824   -0.4104    1.2546 C   0  0  0  0  0  0  0  0  0  0  0  0
    1.2260    0.0324   -0.0119 C   0  0  0  0  0  0  0  0  0  0  0  0
    2.1626   -1.0316   -0.5785 C   0  0  2  0  0  0  0  0  0  0  0  0
    1.4641   -2.1988   -0.9803 O   0  0  0  0  0  0  0  0  0  0  0  0
    3.5220   -1.2825    0.1275 C   0  0  1  0  0  0  0  0  0  0  0  0
    4.1854   -1.7262   -1.2162 C   0  0  2  0  0  0  0  0  0  0  0  0
    5.3241   -0.8221   -1.0913 O   0  0  0  0  0  0  0  0  0  0  0  0
    4.1863   -0.0641   -0.5862 C   0  0  1  0  0  0  0  0  0  0  0  0
    3.1824   -0.6110   -1.6499 C   0  0  2  0  0  0  0  0  0  0  0  0
   -0.1793   -1.2620    1.0590 H   0  0  0  0  0  0  0  0  0  0  0  0
    1.1787   -0.6977    2.0501 H   0  0  0  0  0  0  0  0  0  0  0  0
   -0.1469    0.3966    1.6404 H   0  0  0  0  0  0  0  0  0  0  0  0
    0.4998    0.2992   -0.7892 H   0  0  0  0  0  0  0  0  0  0  0  0
    1.8037    0.9386    0.2058 H   0  0  0  0  0  0  0  0  0  0  0  0
    1.0135   -2.5632   -0.2118 H   0  0  0  0  0  0  0  0  0  0  0  0
    3.7499   -1.6605    1.1247 H   0  0  0  0  0  0  0  0  0  0  0  0
    4.3431   -2.7213   -1.6243 H   0  0  0  0  0  0  0  0  0  0  0  0
    4.3519    0.9530   -0.2346 H   0  0  0  0  0  0  0  0  0  0  0  0
    3.0150   -0.2317   -2.6576 H   0  0  0  0  0  0  0  0  0  0  0  0
  1 12  1  0  0  0  0
  1 11  1  0  0  0  0
  2 14  1  0  0  0  0
  2  1  1  0  0  0  0
  3  4  1  6  0  0  0
  3  2  1  0  0  0  0
  3  5  1  0  0  0  0
  4 15  1  0  0  0  0
  5 16  1  1  0  0  0
  6 17  1  6  0  0  0
  6  7  1  0  0  0  0
  6  5  1  0  0  0  0
  7  8  1  0  0  0  0
  8 18  1  1  0  0  0
  8  5  1  0  0  0  0
  9 19  1  6  0  0  0
  9  6  1  0  0  0  0
  9  8  1  0  0  0  0
  9  3  1  0  0  0  0
 10  1  1  0  0  0  0
 13  2  1  0  0  0  0
M TOR 0 0 1 2 3
M TOR 1 0 1 2 4
M TOR 2 0 1 2 8
M TOR 3 1 2 3 14
M TOR 4 1 2 4 5
M TOR 5 1 2 4 7
M TOR 6 1 2 4 15
M TOR 7 1 2 8 5
M TOR 8 1 2 8 7
M TOR 9 1 2 8 18
M TOR 10 2 1 0 9
M TOR 11 2 1 0 10
M TOR 12 2 1 0 11
M TOR 13 2 4 5 6
M TOR 14 2 4 5 8
M TOR 15 2 4 5 16
M TOR 16 2 4 7 6
M TOR 17 2 4 7 8
M TOR 18 2 4 7 17
M TOR 19 2 8 5 6
M TOR 20 2 8 5 16
M TOR 21 2 8 7 6
M TOR 22 2 8 7 17
M TOR 23 3 2 1 12
M TOR 24 3 2 1 13
M TOR 25 3 2 4 5
M TOR 26 3 2 4 7
M TOR 27 3 2 4 15
M TOR 28 3 2 8 5
M TOR 29 3 2 8 7
M TOR 30 3 2 8 18
M TOR 31 4 2 1 12
M TOR 32 4 2 1 13
M TOR 33 4 2 3 14
M TOR 34 4 2 8 18
M TOR 35 4 5 6 7
M TOR 36 4 5 8 7
M TOR 37 4 5 8 18
M TOR 38 4 7 8 18
M TOR 39 5 4 7 17
M TOR 40 5 6 7 8
M TOR 41 5 6 7 17
M TOR 42 5 8 7 17
M TOR 43 6 5 4 15
M TOR 44 6 5 8 18
M TOR 45 6 7 4 15
M TOR 46 6 7 8 18
M TOR 47 7 4 5 16
M TOR 48 7 6 5 16
M TOR 49 7 8 5 16
M TOR 50 8 2 1 12
M TOR 51 8 2 1 13
M TOR 52 8 2 3 14
M TOR 53 8 2 4 15
M TOR 54 8 5 4 15
M TOR 55 8 7 4 15
M  END
$$$$
