gdb 3851	2.5479985	1.5478836	1.1636482	1.9459	78.47	-0.22769	0.0123	0.23999	1103.6037	0.15664	-422.542767	-422.534193	-422.533249	-422.575584	33.15
 OpenBabel02181911413D

 19 20  0  0  1  0  0  0  0  0999 V2000
   -0.2218    1.4391    0.0895 O   0  0  0  0  0  0  0  0  0  0  0  0
   -0.0068    0.0543    0.0284 C   0  0  2  0  0  0  0  0  0  0  0  0
    0.2668   -0.6399   -1.3728 C   0  0  0  0  0  0  0  0  0  0  0  0
   -0.7107   -1.7874   -0.9294 C   0  0  2  0  0  0  0  0  0  0  0  0
   -0.0157   -2.8589   -0.2992 O   0  0  0  0  0  0  0  0  0  0  0  0
   -1.9703   -2.2334   -1.7063 C   0  0  0  0  0  0  0  0  0  0  0  0
   -3.1503   -1.8642   -0.7489 C   0  0  0  0  0  0  0  0  0  0  0  0
   -2.5674   -0.7563    0.1253 C   0  0  0  0  0  3  0  0  0  0  0  0
   -1.2421   -0.7996    0.0747 C   0  0  2  0  0  3  0  0  0  0  0  0
    0.6286    1.8733    0.2050 H   0  0  0  0  0  0  0  0  0  0  0  0
    0.7506   -0.2746    0.7528 H   0  0  0  0  0  0  0  0  0  0  0  0
   -0.1414   -0.0252   -2.1781 H   0  0  0  0  0  0  0  0  0  0  0  0
    1.2994   -0.9296   -1.5897 H   0  0  0  0  0  0  0  0  0  0  0  0
    0.4694   -3.3305   -0.9851 H   0  0  0  0  0  0  0  0  0  0  0  0
   -2.0696   -1.6714   -2.6406 H   0  0  0  0  0  0  0  0  0  0  0  0
   -1.9398   -3.2983   -1.9548 H   0  0  0  0  0  0  0  0  0  0  0  0
   -4.0285   -1.5151   -1.3026 H   0  0  0  0  0  0  0  0  0  0  0  0
   -3.4816   -2.7270   -0.1561 H   0  0  0  0  0  0  0  0  0  0  0  0
   -3.1769   -0.0072    0.6168 H   0  0  0  0  0  0  0  0  0  0  0  0
  1 10  1  0  0  0  0
  2  9  1  0  0  0  0
  2  1  1  0  0  0  0
  2 11  1  1  0  0  0
  3  4  1  0  0  0  0
  3  2  1  0  0  0  0
  4  5  1  1  0  0  0
  4  9  1  0  0  0  0
  6  4  1  0  0  0  0
  6  7  1  0  0  0  0
  7 18  1  0  0  0  0
  7  8  1  0  0  0  0
  8 19  1  0  0  0  0
  9  8  1  6  0  0  0
 12  3  1  0  0  0  0
 13  3  1  0  0  0  0
 14  5  1  0  0  0  0
 15  6  1  0  0  0  0
 16  6  1  0  0  0  0
 17  7  1  0  0  0  0
M TOR 0 0 1 2 3
M TOR 1 0 1 2 11
M TOR 2 0 1 2 12
M TOR 3 0 1 8 3
M TOR 4 0 1 8 7
M TOR 5 1 2 3 4
M TOR 6 1 2 3 5
M TOR 7 1 2 3 8
M TOR 8 1 8 3 4
M TOR 9 1 8 3 5
M TOR 10 1 8 7 6
M TOR 11 1 8 7 18
M TOR 12 2 1 0 9
M TOR 13 2 1 8 7
M TOR 14 2 3 4 13
M TOR 15 2 3 5 6
M TOR 16 2 3 5 14
M TOR 17 2 3 5 15
M TOR 18 2 3 8 7
M TOR 19 3 2 1 10
M TOR 20 3 5 6 7
M TOR 21 3 5 6 16
M TOR 22 3 5 6 17
M TOR 23 3 8 1 10
M TOR 24 3 8 7 6
M TOR 25 3 8 7 18
M TOR 26 4 3 2 11
M TOR 27 4 3 2 12
M TOR 28 4 3 5 6
M TOR 29 4 3 5 14
M TOR 30 4 3 5 15
M TOR 31 4 3 8 7
M TOR 32 5 3 2 11
M TOR 33 5 3 2 12
M TOR 34 5 3 4 13
M TOR 35 5 3 8 7
M TOR 36 5 6 7 8
M TOR 37 5 6 7 18
M TOR 38 6 5 3 8
M TOR 39 7 6 5 14
M TOR 40 7 6 5 15
M TOR 41 7 8 1 10
M TOR 42 8 1 0 9
M TOR 43 8 1 2 11
M TOR 44 8 1 2 12
M TOR 45 8 3 2 11
M TOR 46 8 3 2 12
M TOR 47 8 3 4 13
M TOR 48 8 3 5 14
M TOR 49 8 3 5 15
M TOR 50 8 7 6 16
M TOR 51 8 7 6 17
M  END
$$$$
