
     RDKit          3D

 19 19  0  0  0  0  0  0  0  0999 V2000
   -0.9183    5.1070    0.2479 O   0  0  0  0  0  0  0  0  0  0  0  0
   -0.4430    4.3311   -0.8351 C   0  0  0  0  0  0  0  0  0  0  0  0
   -0.8043    2.8639   -0.6755 C   0  0  0  0  0  0  0  0  0  0  0  0
   -0.1885    2.4294    0.5367 O   0  0  0  0  0  0  0  0  0  0  0  0
   -0.5178    1.1257    0.9261 C   0  0  0  0  0  0  0  0  0  0  0  0
   -0.5256    0.9062    2.4172 C   0  0  0  0  0  0  0  0  0  0  0  0
   -1.8320    0.9319    1.6665 C   0  0  0  0  0  0  0  0  0  0  0  0
   -0.0405    0.0791    0.0565 C   0  0  0  0  0  0  0  0  0  0  0  0
    0.3579   -0.7794   -0.6858 C   0  0  0  0  0  0  0  0  0  0  0  0
   -0.5970    4.6690    1.0442 H   0  0  0  0  0  0  0  0  0  0  0  0
   -0.9093    4.7253   -1.7438 H   0  0  0  0  0  0  0  0  0  0  0  0
    0.6488    4.4220   -0.9482 H   0  0  0  0  0  0  0  0  0  0  0  0
   -1.8949    2.7458   -0.6048 H   0  0  0  0  0  0  0  0  0  0  0  0
   -0.4404    2.2717   -1.5264 H   0  0  0  0  0  0  0  0  0  0  0  0
   -0.1528   -0.0408    2.7878 H   0  0  0  0  0  0  0  0  0  0  0  0
   -0.2698    1.7731    3.0152 H   0  0  0  0  0  0  0  0  0  0  0  0
   -2.3694    0.0029    1.5189 H   0  0  0  0  0  0  0  0  0  0  0  0
   -2.4501    1.8170    1.7672 H   0  0  0  0  0  0  0  0  0  0  0  0
    0.7144   -1.5413   -1.3341 H   0  0  0  0  0  0  0  0  0  0  0  0
  1  2  1  0
  2  3  1  0
  3  4  1  0
  4  5  1  0
  5  6  1  0
  6  7  1  0
  5  8  1  0
  8  9  3  0
  7  5  1  0
  1 10  1  0
  2 11  1  0
  2 12  1  0
  3 13  1  0
  3 14  1  0
  6 15  1  0
  6 16  1  0
  7 17  1  0
  7 18  1  0
  9 19  1  0
M  END
$$$$
