gdb 2949	2.8109532	1.4829141	1.1605873	2.1082	77.58	-0.22488	0.01348	0.23836	1103.8474	0.156285	-422.543148	-422.534483	-422.533539	-422.575878	33.216
 OpenBabel02181911413D

 19 20  0  0  1  0  0  0  0  0999 V2000
    1.4154   -1.6598   -2.3280 C   0  0  0  0  0  0  0  0  0  0  0  0
    0.3380   -0.6359   -2.0733 C   0  0  1  0  0  0  0  0  0  0  0  0
   -0.2261   -0.1006   -3.2479 O   0  0  0  0  0  0  0  0  0  0  0  0
   -1.5509   -0.5256   -3.5426 C   0  0  0  0  0  0  0  0  0  0  0  0
   -2.4912   -0.3862   -2.3722 C   0  0  0  0  0  0  0  0  0  0  0  0
   -2.0302   -0.4747   -1.1256 C   0  0  0  0  0  0  0  0  0  0  0  0
   -0.5943   -0.7432   -0.8847 C   0  0  2  0  0  0  0  0  0  0  0  0
    0.4631    0.3644   -0.9597 C   0  0  1  0  0  0  0  0  0  0  0  0
    1.5925    0.2883   -0.1463 O   0  0  0  0  0  0  0  0  0  0  0  0
    1.9143   -1.9357   -1.3967 H   0  0  0  0  0  0  0  0  0  0  0  0
    0.9951   -2.5621   -2.7848 H   0  0  0  0  0  0  0  0  0  0  0  0
    2.1651   -1.2485   -3.0112 H   0  0  0  0  0  0  0  0  0  0  0  0
   -1.8778    0.1015   -4.3784 H   0  0  0  0  0  0  0  0  0  0  0  0
   -1.5533   -1.5679   -3.9068 H   0  0  0  0  0  0  0  0  0  0  0  0
   -3.5424   -0.2180   -2.5855 H   0  0  0  0  0  0  0  0  0  0  0  0
   -2.6896   -0.3643   -0.2688 H   0  0  0  0  0  0  0  0  0  0  0  0
   -0.3552   -1.5270   -0.1698 H   0  0  0  0  0  0  0  0  0  0  0  0
    0.1018    1.3652   -1.1938 H   0  0  0  0  0  0  0  0  0  0  0  0
    1.3380    0.5471    0.7457 H   0  0  0  0  0  0  0  0  0  0  0  0
  1 10  1  0  0  0  0
  2  1  1  6  0  0  0
  2  8  1  0  0  0  0
  2  7  1  0  0  0  0
  3  2  1  0  0  0  0
  4  3  1  0  0  0  0
  4  5  1  0  0  0  0
  5  6  2  0  0  0  0
  6  7  1  0  0  0  0
  6 16  1  0  0  0  0
  7 17  1  1  0  0  0
  8 18  1  6  0  0  0
  8  7  1  0  0  0  0
  8  9  1  0  0  0  0
  9 19  1  0  0  0  0
 11  1  1  0  0  0  0
 12  1  1  0  0  0  0
 13  4  1  0  0  0  0
 14  4  1  0  0  0  0
 15  5  1  0  0  0  0
M TOR 0 0 1 2 3
M TOR 1 0 1 6 5
M TOR 2 0 1 6 7
M TOR 3 0 1 6 16
M TOR 4 0 1 7 8
M TOR 5 0 1 7 17
M TOR 6 1 2 3 4
M TOR 7 1 2 3 12
M TOR 8 1 2 3 13
M TOR 9 1 6 5 4
M TOR 10 1 6 5 15
M TOR 11 1 6 7 8
M TOR 12 1 6 7 17
M TOR 13 1 7 6 5
M TOR 14 1 7 6 16
M TOR 15 1 7 8 18
M TOR 16 2 1 0 9
M TOR 17 2 1 0 10
M TOR 18 2 1 0 11
M TOR 19 2 1 6 5
M TOR 20 2 1 6 7
M TOR 21 2 1 6 16
M TOR 22 2 1 7 8
M TOR 23 2 1 7 17
M TOR 24 2 3 4 5
M TOR 25 2 3 4 14
M TOR 26 3 2 1 6
M TOR 27 3 2 1 7
M TOR 28 3 4 5 6
M TOR 29 3 4 5 15
M TOR 30 4 5 6 7
M TOR 31 4 5 6 16
M TOR 32 5 4 3 12
M TOR 33 5 4 3 13
M TOR 34 5 6 7 8
M TOR 35 5 6 7 17
M TOR 36 6 1 0 9
M TOR 37 6 1 0 10
M TOR 38 6 1 0 11
M TOR 39 6 5 4 14
M TOR 40 6 7 8 18
M TOR 41 7 1 0 9
M TOR 42 7 1 0 10
M TOR 43 7 1 0 11
M TOR 44 7 6 5 15
M TOR 45 8 7 6 16
M  END
$$$$
