gdb 4724	1.765669	1.1790352	0.7920059	3.9478	81.89	-0.23674	-0.0141	0.22264	1519.2803	0.151721	-422.527677	-422.51613	-422.515186	-422.566777	37.699
 OpenBabel02181911413D

 19 18  0  0  1  0  0  0  0  0999 V2000
   -2.7599   -0.1423   -2.5185 C   0  0  0  0  0  0  0  0  0  0  0  0
   -3.0994   -0.7422   -1.2855 O   0  0  0  0  0  0  0  0  0  0  0  0
   -2.6643   -0.0174   -0.1652 C   0  0  2  0  0  0  0  0  0  0  0  0
   -1.2029    0.0322   -0.0255 C   0  0  0  0  0  0  0  0  0  0  0  0
   -0.0033    0.0399    0.0894 C   0  0  0  0  0  0  0  0  0  0  0  0
    1.4457    0.0486    0.2260 C   0  0  0  0  0  0  0  0  0  0  0  0
   -3.2819   -0.6740    1.1016 C   0  0  0  0  0  0  0  0  0  0  0  0
   -3.1617    0.1438    2.3723 C   0  0  0  0  0  0  0  0  0  0  0  0
   -3.8273   -1.7426    1.0492 O   0  0  0  0  0  0  0  0  0  0  0  0
   -3.1725   -0.7814   -3.3019 H   0  0  0  0  0  0  0  0  0  0  0  0
   -3.1964    0.8648   -2.6123 H   0  0  0  0  0  0  0  0  0  0  0  0
   -1.6723   -0.0644   -2.6501 H   0  0  0  0  0  0  0  0  0  0  0  0
   -3.0470    1.0205   -0.2083 H   0  0  0  0  0  0  0  0  0  0  0  0
    1.7435   -0.0519    1.2753 H   0  0  0  0  0  0  0  0  0  0  0  0
    1.8959   -0.7834   -0.3260 H   0  0  0  0  0  0  0  0  0  0  0  0
    1.8797    0.9785   -0.1571 H   0  0  0  0  0  0  0  0  0  0  0  0
   -3.4371   -0.4701    3.2304 H   0  0  0  0  0  0  0  0  0  0  0  0
   -2.1492    0.5382    2.4932 H   0  0  0  0  0  0  0  0  0  0  0  0
   -3.8419    1.0024    2.3157 H   0  0  0  0  0  0  0  0  0  0  0  0
  1  2  1  0  0  0  0
  2  3  1  0  0  0  0
  3 13  1  6  0  0  0
  3  4  1  0  0  0  0
  3  7  1  0  0  0  0
  4  5  3  0  0  0  0
  5  6  1  0  0  0  0
  6 14  1  0  0  0  0
  7  8  1  0  0  0  0
  8 18  1  0  0  0  0
  8 17  1  0  0  0  0
  9  7  2  0  0  0  0
 10  1  1  0  0  0  0
 11  1  1  0  0  0  0
 12  1  1  0  0  0  0
 15  6  1  0  0  0  0
 16  6  1  0  0  0  0
 19  8  1  0  0  0  0
M TOR 0 0 1 2 3
M TOR 1 0 1 2 6
M TOR 2 0 1 2 12
M TOR 3 1 2 3 4
M TOR 4 1 2 6 7
M TOR 5 1 2 6 8
M TOR 6 2 1 0 9
M TOR 7 2 1 0 10
M TOR 8 2 1 0 11
M TOR 9 2 3 4 5
M TOR 10 2 6 7 16
M TOR 11 2 6 7 17
M TOR 12 2 6 7 18
M TOR 13 3 2 6 7
M TOR 14 3 2 6 8
M TOR 15 3 4 5 13
M TOR 16 3 4 5 14
M TOR 17 3 4 5 15
M TOR 18 4 3 2 6
M TOR 19 4 3 2 12
M TOR 20 7 6 2 12
M TOR 21 8 6 2 12
M TOR 22 8 6 7 16
M TOR 23 8 6 7 17
M TOR 24 8 6 7 18
M  END
$$$$
