gdb 6071	2.6750555	0.8236414	0.650413	1.8297	78.28	-0.25799	0.01079	0.26878	1733.2168	0.153455	-422.556733	-422.546023	-422.545079	-422.594949	36.39
 OpenBabel02181911423D

 19 18  0  0  0  0  0  0  0  0999 V2000
   -3.2160   -3.5767   -0.7262 C   0  0  0  0  0  0  0  0  0  0  0  0
   -1.7450   -3.1568   -0.6599 C   0  0  0  0  0  0  0  0  0  0  0  0
   -1.5941   -1.6600   -0.4478 C   0  0  0  0  0  0  0  0  0  0  0  0
   -0.1828   -1.3628   -0.3990 O   0  0  0  0  0  0  0  0  0  0  0  0
    0.1388   -0.0810   -0.1884 C   0  0  0  0  0  0  0  0  0  0  0  0
   -0.6568    0.8128   -0.0536 O   0  0  0  0  0  0  0  0  0  0  0  0
    1.6539    0.1350   -0.1940 C   0  0  0  0  0  0  0  0  0  0  0  0
    2.4476   -0.9288    0.4021 C   0  0  0  0  0  0  0  0  0  0  0  0
    3.1222   -1.7863    0.9034 C   0  0  0  0  0  0  0  0  0  0  0  0
   -3.7449   -3.3274    0.2000 H   0  0  0  0  0  0  0  0  0  0  0  0
   -3.7375   -3.0780   -1.5504 H   0  0  0  0  0  0  0  0  0  0  0  0
   -3.3065   -4.6555   -0.8803 H   0  0  0  0  0  0  0  0  0  0  0  0
   -1.2358   -3.6826    0.1555 H   0  0  0  0  0  0  0  0  0  0  0  0
   -1.2282   -3.4378   -1.5846 H   0  0  0  0  0  0  0  0  0  0  0  0
   -2.0499   -1.0837   -1.2603 H   0  0  0  0  0  0  0  0  0  0  0  0
   -2.0576   -1.3299    0.4878 H   0  0  0  0  0  0  0  0  0  0  0  0
    1.9450    0.2742   -1.2445 H   0  0  0  0  0  0  0  0  0  0  0  0
    1.8326    1.0913    0.3055 H   0  0  0  0  0  0  0  0  0  0  0  0
    3.7101   -2.5517    1.3460 H   0  0  0  0  0  0  0  0  0  0  0  0
  1  2  1  0  0  0  0
  1 10  1  0  0  0  0
  2  3  1  0  0  0  0
  2 13  1  0  0  0  0
  3  4  1  0  0  0  0
  3 16  1  0  0  0  0
  4  5  1  0  0  0  0
  5  6  2  0  0  0  0
  7  5  1  0  0  0  0
  7 18  1  0  0  0  0
  7  8  1  0  0  0  0
  8  9  3  0  0  0  0
  9 19  1  0  0  0  0
 11  1  1  0  0  0  0
 12  1  1  0  0  0  0
 14  2  1  0  0  0  0
 15  3  1  0  0  0  0
 17  7  1  0  0  0  0
M TOR 0 0 1 2 3
M TOR 1 0 1 2 14
M TOR 2 0 1 2 15
M TOR 3 1 2 3 4
M TOR 4 2 1 0 9
M TOR 5 2 1 0 10
M TOR 6 2 1 0 11
M TOR 7 2 3 4 5
M TOR 8 2 3 4 6
M TOR 9 3 2 1 12
M TOR 10 3 2 1 13
M TOR 11 3 4 6 7
M TOR 12 3 4 6 16
M TOR 13 3 4 6 17
M TOR 14 4 3 2 14
M TOR 15 4 3 2 15
M TOR 16 4 6 7 8
M TOR 17 5 4 6 7
M TOR 18 5 4 6 16
M TOR 19 5 4 6 17
M TOR 20 6 7 8 18
M TOR 21 8 7 6 16
M TOR 22 8 7 6 17
M  END
$$$$
