gdb 3492	1.9721449	1.5973084	1.4228862	1.4247	76.73	-0.23399	-0.02165	0.21234	1074.4353	0.156548	-422.592443	-422.583461	-422.582516	-422.62613	33.499
 OpenBabel02181911413D

 19 19  0  0  1  0  0  0  0  0999 V2000
   -1.4138   -1.7476    2.4745 C   0  0  0  0  0  0  0  0  0  0  0  0
   -2.0326   -1.3201    1.1299 C   0  0  1  0  0  0  0  0  0  0  0  0
   -2.6375    0.0606    1.2197 C   0  0  0  0  0  0  0  0  0  0  0  0
   -2.1046    1.1527    0.6764 C   0  0  0  0  0  0  0  0  0  0  0  0
   -0.8253    1.1480   -0.1224 C   0  0  0  0  0  0  0  0  0  0  0  0
   -0.0933   -0.1804   -0.0164 C   0  0  0  0  0  0  0  0  0  0  0  0
    1.1105   -0.2722    0.0465 O   0  0  0  0  0  0  0  0  0  0  0  0
   -1.0105   -1.4067   -0.0149 C   0  0  2  0  0  0  0  0  0  0  0  0
   -1.7453   -1.4329   -1.2395 O   0  0  0  0  0  0  0  0  0  0  0  0
   -1.0795   -2.7896    2.4407 H   0  0  0  0  0  0  0  0  0  0  0  0
   -0.5529   -1.1210    2.7295 H   0  0  0  0  0  0  0  0  0  0  0  0
   -2.1443   -1.6520    3.2831 H   0  0  0  0  0  0  0  0  0  0  0  0
   -2.8266   -2.0344    0.8746 H   0  0  0  0  0  0  0  0  0  0  0  0
   -3.5587    0.1421    1.7918 H   0  0  0  0  0  0  0  0  0  0  0  0
   -2.5978    2.1144    0.7914 H   0  0  0  0  0  0  0  0  0  0  0  0
   -1.0517    1.3304   -1.1835 H   0  0  0  0  0  0  0  0  0  0  0  0
   -0.1406    1.9427    0.1902 H   0  0  0  0  0  0  0  0  0  0  0  0
   -0.3869   -2.3033    0.0950 H   0  0  0  0  0  0  0  0  0  0  0  0
   -1.1222   -1.6047   -1.9535 H   0  0  0  0  0  0  0  0  0  0  0  0
  1 11  1  0  0  0  0
  1 12  1  0  0  0  0
  2 13  1  6  0  0  0
  2  3  1  0  0  0  0
  2  1  1  0  0  0  0
  3 14  1  0  0  0  0
  4 15  1  0  0  0  0
  4  3  2  0  0  0  0
  5  6  1  0  0  0  0
  5 17  1  0  0  0  0
  5  4  1  0  0  0  0
  6  8  1  0  0  0  0
  6  7  2  0  0  0  0
  8 18  1  1  0  0  0
  8  2  1  0  0  0  0
  9  8  1  0  0  0  0
 10  1  1  0  0  0  0
 16  5  1  0  0  0  0
 19  9  1  0  0  0  0
M TOR 0 0 1 2 3
M TOR 1 0 1 2 13
M TOR 2 0 1 7 5
M TOR 3 0 1 7 8
M TOR 4 0 1 7 17
M TOR 5 1 2 3 4
M TOR 6 1 2 3 14
M TOR 7 1 7 5 4
M TOR 8 1 7 5 6
M TOR 9 1 7 8 18
M TOR 10 2 1 0 9
M TOR 11 2 1 0 10
M TOR 12 2 1 0 11
M TOR 13 2 1 7 5
M TOR 14 2 1 7 8
M TOR 15 2 1 7 17
M TOR 16 2 3 4 5
M TOR 17 2 3 4 15
M TOR 18 2 3 4 16
M TOR 19 3 2 1 7
M TOR 20 3 2 1 12
M TOR 21 3 4 5 6
M TOR 22 3 4 5 7
M TOR 23 4 3 2 13
M TOR 24 4 5 7 8
M TOR 25 4 5 7 17
M TOR 26 5 4 3 14
M TOR 27 5 7 1 12
M TOR 28 5 7 8 18
M TOR 29 6 5 4 15
M TOR 30 6 5 4 16
M TOR 31 6 5 7 8
M TOR 32 6 5 7 17
M TOR 33 7 1 0 9
M TOR 34 7 1 0 10
M TOR 35 7 1 0 11
M TOR 36 7 1 2 13
M TOR 37 7 5 4 15
M TOR 38 7 5 4 16
M TOR 39 8 7 1 12
M  END
$$$$
