
     RDKit          3D

 19 19  0  0  0  0  0  0  0  0999 V2000
   -3.1413   -1.8644    2.3146 C   0  0  0  0  0  0  0  0  0  0  0  0
   -1.9618   -2.0690    1.3750 C   0  0  0  0  0  0  0  0  0  0  0  0
   -2.3045   -2.4650    0.0364 C   0  0  0  0  0  0  0  0  0  0  0  0
   -2.6131   -2.8121   -1.0745 C   0  0  0  0  0  0  0  0  0  0  0  0
   -0.6531   -2.6307    1.9549 C   0  0  0  0  0  0  0  0  0  0  0  0
   -0.5686   -2.9219    3.3152 O   0  0  0  0  0  0  0  0  0  0  0  0
   -0.7159   -1.1901    1.5867 C   0  0  0  0  0  0  0  0  0  0  0  0
    0.1038   -0.6467    0.4379 C   0  0  0  0  0  0  0  0  0  0  0  0
    1.4925   -0.5915    0.7324 O   0  0  0  0  0  0  0  0  0  0  0  0
   -2.7890   -1.7016    3.3353 H   0  0  0  0  0  0  0  0  0  0  0  0
   -3.7409   -1.0031    2.0054 H   0  0  0  0  0  0  0  0  0  0  0  0
   -3.7934   -2.7437    2.3112 H   0  0  0  0  0  0  0  0  0  0  0  0
   -2.8822   -3.1149   -2.0558 H   0  0  0  0  0  0  0  0  0  0  0  0
   -0.0818   -3.2852    1.2982 H   0  0  0  0  0  0  0  0  0  0  0  0
   -0.9183   -3.8086    3.4558 H   0  0  0  0  0  0  0  0  0  0  0  0
   -0.8158   -0.5221    2.4404 H   0  0  0  0  0  0  0  0  0  0  0  0
    0.0083   -1.3022   -0.4315 H   0  0  0  0  0  0  0  0  0  0  0  0
   -0.2824    0.3407    0.1404 H   0  0  0  0  0  0  0  0  0  0  0  0
    1.6109   -0.0275    1.5032 H   0  0  0  0  0  0  0  0  0  0  0  0
  1  2  1  0
  2  3  1  0
  3  4  3  0
  2  5  1  0
  5  6  1  0
  5  7  1  0
  7  8  1  0
  8  9  1  0
  7  2  1  0
  1 10  1  0
  1 11  1  0
  1 12  1  0
  4 13  1  0
  5 14  1  0
  6 15  1  0
  7 16  1  0
  8 17  1  0
  8 18  1  0
  9 19  1  0
M  END
$$$$
