
     RDKit          3D

 19 21  0  0  0  0  0  0  0  0999 V2000
    0.1245    0.2450    0.6707 O   0  0  0  0  0  0  0  0  0  0  0  0
   -1.0014    1.0053    0.3612 C   0  0  0  0  0  0  0  0  0  0  0  0
   -1.2525    2.1489    1.3362 C   0  0  0  0  0  0  0  0  0  0  0  0
   -2.8005    2.3211    1.2708 C   0  0  0  0  0  0  0  0  0  0  0  0
   -3.1934    1.5631   -0.0129 C   0  0  0  0  0  0  0  0  0  0  0  0
   -2.4419    2.1985   -1.2243 C   0  0  0  0  0  0  0  0  0  0  0  0
   -1.2225    1.2685   -1.1749 C   0  0  0  0  0  0  0  0  0  0  0  0
   -1.8653   -0.0476   -1.2621 O   0  0  0  0  0  0  0  0  0  0  0  0
   -2.3391    0.2614    0.0769 C   0  0  0  0  0  0  0  0  0  0  0  0
    0.1503   -0.4787    0.0306 H   0  0  0  0  0  0  0  0  0  0  0  0
   -0.9037    1.8681    2.3329 H   0  0  0  0  0  0  0  0  0  0  0  0
   -0.7150    3.0578    1.0489 H   0  0  0  0  0  0  0  0  0  0  0  0
   -3.2719    1.8610    2.1466 H   0  0  0  0  0  0  0  0  0  0  0  0
   -3.1152    3.3682    1.2473 H   0  0  0  0  0  0  0  0  0  0  0  0
   -4.2657    1.4305   -0.1549 H   0  0  0  0  0  0  0  0  0  0  0  0
   -2.9704    2.0765   -2.1722 H   0  0  0  0  0  0  0  0  0  0  0  0
   -2.2110    3.2575   -1.0783 H   0  0  0  0  0  0  0  0  0  0  0  0
   -0.3955    1.4064   -1.8731 H   0  0  0  0  0  0  0  0  0  0  0  0
   -2.7057   -0.5973    0.6397 H   0  0  0  0  0  0  0  0  0  0  0  0
  1  2  1  0
  2  3  1  0
  3  4  1  0
  4  5  1  0
  5  6  1  0
  6  7  1  0
  7  8  1  0
  8  9  1  0
  7  2  1  0
  9  2  1  0
  9  5  1  0
  1 10  1  0
  3 11  1  0
  3 12  1  0
  4 13  1  0
  4 14  1  0
  5 15  1  0
  6 16  1  0
  6 17  1  0
  7 18  1  0
  9 19  1  0
M  END
$$$$
