gdb 4666	2.5948045	1.427519	1.0988722	1.9647	76.25	-0.23421	-0.02566	0.20855	1146.4595	0.156798	-422.519383	-422.510737	-422.509792	-422.553354	32.044
 OpenBabel02181911413D

 19 20  0  0  1  0  0  0  0  0999 V2000
    1.1800   -0.1097    0.4293 O   0  0  0  0  0  0  0  0  0  0  0  0
    0.4554   -0.5934   -0.6864 C   0  0  0  0  0  0  0  0  0  0  0  0
   -0.5652    0.3819   -1.2868 C   0  0  0  0  0  0  0  0  0  0  0  0
   -1.4778   -0.0406   -1.9624 O   0  0  0  0  0  0  0  0  0  0  0  0
   -0.3691    1.8494   -1.0515 C   0  0  1  0  0  0  0  0  0  0  0  0
   -0.5200    2.6426    0.2955 C   0  0  0  0  0  0  0  0  0  0  0  0
   -0.1571    3.6995   -0.7857 C   0  0  1  0  0  0  0  0  0  0  0  0
    0.9221    2.7020   -1.2969 C   0  0  0  0  0  0  0  0  0  0  0  0
   -1.1747    2.9914   -1.7281 C   0  0  0  0  0  0  0  0  0  0  0  0
    0.5847   -0.0849    1.1846 H   0  0  0  0  0  0  0  0  0  0  0  0
    1.1981   -0.7959   -1.4687 H   0  0  0  0  0  0  0  0  0  0  0  0
   -0.0627   -1.5406   -0.4859 H   0  0  0  0  0  0  0  0  0  0  0  0
   -1.5300    2.6897    0.7122 H   0  0  0  0  0  0  0  0  0  0  0  0
    0.2324    2.4451    1.0616 H   0  0  0  0  0  0  0  0  0  0  0  0
   -0.0392    4.7729   -0.6361 H   0  0  0  0  0  0  0  0  0  0  0  0
    1.2320    2.8071   -2.3403 H   0  0  0  0  0  0  0  0  0  0  0  0
    1.7670    2.4976   -0.6375 H   0  0  0  0  0  0  0  0  0  0  0  0
   -2.2313    3.0654   -1.4608 H   0  0  0  0  0  0  0  0  0  0  0  0
   -1.0233    3.1170   -2.8028 H   0  0  0  0  0  0  0  0  0  0  0  0
  1 10  1  0  0  0  0
  2 12  1  0  0  0  0
  2  1  1  0  0  0  0
  3  2  1  0  0  0  0
  4  3  2  0  0  0  0
  5  3  1  6  0  0  0
  5  6  1  0  0  0  0
  6 13  1  0  0  0  0
  6 14  1  0  0  0  0
  7 15  1  1  0  0  0
  7  6  1  0  0  0  0
  8  5  1  0  0  0  0
  8  7  1  0  0  0  0
  8 17  1  0  0  0  0
  9 18  1  0  0  0  0
  9  5  1  0  0  0  0
  9  7  1  0  0  0  0
 11  2  1  0  0  0  0
 16  8  1  0  0  0  0
 19  9  1  0  0  0  0
M TOR 0 0 1 2 3
M TOR 1 0 1 2 4
M TOR 2 1 2 4 5
M TOR 3 1 2 4 7
M TOR 4 1 2 4 8
M TOR 5 2 1 0 9
M TOR 6 2 4 5 6
M TOR 7 2 4 5 12
M TOR 8 2 4 5 13
M TOR 9 2 4 7 6
M TOR 10 2 4 7 15
M TOR 11 2 4 7 16
M TOR 12 2 4 8 6
M TOR 13 2 4 8 17
M TOR 14 2 4 8 18
M TOR 15 3 2 1 10
M TOR 16 3 2 1 11
M TOR 17 3 2 4 5
M TOR 18 3 2 4 7
M TOR 19 3 2 4 8
M TOR 20 4 2 1 10
M TOR 21 4 2 1 11
M TOR 22 4 5 6 7
M TOR 23 4 5 6 8
M TOR 24 4 5 6 14
M TOR 25 4 7 6 8
M TOR 26 4 7 6 14
M TOR 27 4 8 6 14
M TOR 28 5 4 7 15
M TOR 29 5 4 7 16
M TOR 30 5 4 8 17
M TOR 31 5 4 8 18
M TOR 32 5 6 7 15
M TOR 33 5 6 7 16
M TOR 34 5 6 8 17
M TOR 35 5 6 8 18
M TOR 36 7 4 5 12
M TOR 37 7 4 5 13
M TOR 38 7 4 8 17
M TOR 39 7 4 8 18
M TOR 40 7 6 5 12
M TOR 41 7 6 5 13
M TOR 42 7 6 8 17
M TOR 43 7 6 8 18
M TOR 44 8 4 5 12
M TOR 45 8 4 5 13
M TOR 46 8 4 7 15
M TOR 47 8 4 7 16
M TOR 48 8 6 5 12
M TOR 49 8 6 5 13
M TOR 50 8 6 7 15
M TOR 51 8 6 7 16
M  END
$$$$
