
     RDKit          3D

 19 21  0  0  0  0  0  0  0  0999 V2000
    3.3545    0.5425   -0.5141 C   0  0  0  0  0  0  0  0  0  0  0  0
    1.9030    0.1902   -0.2275 C   0  0  0  0  0  0  0  0  0  0  0  0
    0.9199    1.2915    0.2186 C   0  0  0  0  0  0  0  0  0  0  0  0
    1.0487    2.7449    0.1163 C   0  0  0  0  0  0  0  0  0  0  0  0
    0.0838    2.0160   -0.6604 O   0  0  0  0  0  0  0  0  0  0  0  0
    0.4135    0.4478    1.3990 C   0  0  0  0  0  0  0  0  0  0  0  0
    1.5786   -0.5089    1.1100 C   0  0  0  0  0  0  0  0  0  0  0  0
    1.8480   -1.8686    1.5662 C   0  0  0  0  0  0  0  0  0  0  0  0
    2.5922   -0.7497    2.0756 O   0  0  0  0  0  0  0  0  0  0  0  0
    3.8035    1.0747    0.3287 H   0  0  0  0  0  0  0  0  0  0  0  0
    3.9481   -0.3604   -0.6893 H   0  0  0  0  0  0  0  0  0  0  0  0
    3.4332    1.1713   -1.4068 H   0  0  0  0  0  0  0  0  0  0  0  0
    1.4638   -0.3648   -1.0656 H   0  0  0  0  0  0  0  0  0  0  0  0
    0.6347    3.3796    0.8989 H   0  0  0  0  0  0  0  0  0  0  0  0
    1.8681    3.1822   -0.4522 H   0  0  0  0  0  0  0  0  0  0  0  0
    0.4215    0.9133    2.3873 H   0  0  0  0  0  0  0  0  0  0  0  0
   -0.5714    0.0115    1.2073 H   0  0  0  0  0  0  0  0  0  0  0  0
    1.1777   -2.3456    2.2805 H   0  0  0  0  0  0  0  0  0  0  0  0
    2.4122   -2.5528    0.9329 H   0  0  0  0  0  0  0  0  0  0  0  0
  1  2  1  0
  2  3  1  0
  3  4  1  0
  4  5  1  0
  3  6  1  0
  6  7  1  0
  7  8  1  0
  8  9  1  0
  7  2  1  0
  9  7  1  0
  5  3  1  0
  1 10  1  0
  1 11  1  0
  1 12  1  0
  2 13  1  0
  4 14  1  0
  4 15  1  0
  6 16  1  0
  6 17  1  0
  8 18  1  0
  8 19  1  0
M  END
$$$$
