
     RDKit          3D

 19 19  0  0  0  0  0  0  0  0999 V2000
    1.5188    0.4314   -0.0298 C   0  0  0  0  0  0  0  0  0  0  0  0
    0.1300    0.1886   -0.0119 O   0  0  0  0  0  0  0  0  0  0  0  0
   -0.4633    0.4559    1.2283 C   0  0  0  0  0  0  0  0  0  0  0  0
   -0.2704   -0.5693    2.3836 C   0  0  0  0  0  0  0  0  0  0  0  0
   -1.8077   -0.4478    2.6766 C   0  0  0  0  0  0  0  0  0  0  0  0
   -2.5330   -1.6549    2.8129 O   0  0  0  0  0  0  0  0  0  0  0  0
   -1.9763    0.1760    1.2619 C   0  0  0  0  0  0  0  0  0  0  0  0
   -2.0996    0.4764    3.7684 C   0  0  0  0  0  0  0  0  0  0  0  0
   -2.3312    1.2083    4.6945 C   0  0  0  0  0  0  0  0  0  0  0  0
    2.0593   -0.2130    0.6798 H   0  0  0  0  0  0  0  0  0  0  0  0
    1.8737    0.2157   -1.0403 H   0  0  0  0  0  0  0  0  0  0  0  0
    1.7512    1.4805    0.2127 H   0  0  0  0  0  0  0  0  0  0  0  0
   -0.2224    1.4773    1.5591 H   0  0  0  0  0  0  0  0  0  0  0  0
   -0.0706   -1.5644    1.9776 H   0  0  0  0  0  0  0  0  0  0  0  0
    0.4222   -0.3368    3.1938 H   0  0  0  0  0  0  0  0  0  0  0  0
   -2.5043   -1.9180    3.7394 H   0  0  0  0  0  0  0  0  0  0  0  0
   -2.2226   -0.6215    0.5571 H   0  0  0  0  0  0  0  0  0  0  0  0
   -2.6706    1.0086    1.1494 H   0  0  0  0  0  0  0  0  0  0  0  0
   -2.5450    1.8620    5.5039 H   0  0  0  0  0  0  0  0  0  0  0  0
  1  2  1  0
  2  3  1  0
  3  4  1  0
  4  5  1  0
  5  6  1  0
  5  7  1  0
  5  8  1  0
  8  9  3  0
  7  3  1  0
  1 10  1  0
  1 11  1  0
  1 12  1  0
  3 13  1  0
  4 14  1  0
  4 15  1  0
  6 16  1  0
  7 17  1  0
  7 18  1  0
  9 19  1  0
M  END
$$$$
