gdb 1239	2.1752701	1.341832	0.960812	1.5736	78.03	-0.23881	-0.02736	0.21145	1284.75	0.152711	-422.546149	-422.535509	-422.534564	-422.582168	38.064
 OpenBabel02181911403D

 19 18  0  0  1  0  0  0  0  0999 V2000
   -1.6176    0.4791   -0.7856 C   0  0  0  0  0  0  0  0  0  0  0  0
   -0.8619    0.5512    0.5409 C   0  0  1  0  0  0  0  0  0  0  0  0
   -0.7957    1.9104    0.9263 O   0  0  0  0  0  0  0  0  0  0  0  0
   -1.5475   -0.3555    1.5816 C   0  0  0  0  0  0  0  0  0  0  0  0
   -1.7269   -1.5270    1.3621 O   0  0  0  0  0  0  0  0  0  0  0  0
   -2.0015    0.2985    2.9112 C   0  0  1  0  0  0  0  0  0  0  0  0
   -2.8472   -0.6668    3.7532 C   0  0  0  0  0  0  0  0  0  0  0  0
   -0.8169    0.7718    3.6275 C   0  0  0  0  0  0  0  0  0  0  0  0
    0.1812    1.1325    4.1962 C   0  0  0  0  0  0  0  0  0  0  0  0
   -2.6140    0.9186   -0.6769 H   0  0  0  0  0  0  0  0  0  0  0  0
   -1.0765    1.0424   -1.5492 H   0  0  0  0  0  0  0  0  0  0  0  0
   -1.7200   -0.5606   -1.1006 H   0  0  0  0  0  0  0  0  0  0  0  0
    0.1451    0.1280    0.3955 H   0  0  0  0  0  0  0  0  0  0  0  0
   -0.2414    1.9775    1.7134 H   0  0  0  0  0  0  0  0  0  0  0  0
   -2.5915    1.1811    2.6295 H   0  0  0  0  0  0  0  0  0  0  0  0
   -3.1643   -0.1828    4.6796 H   0  0  0  0  0  0  0  0  0  0  0  0
   -3.7311   -0.9766    3.1910 H   0  0  0  0  0  0  0  0  0  0  0  0
   -2.2745   -1.5630    3.9987 H   0  0  0  0  0  0  0  0  0  0  0  0
    1.0465    1.4518    4.7234 H   0  0  0  0  0  0  0  0  0  0  0  0
  1 10  1  0  0  0  0
  1  2  1  0  0  0  0
  2 13  1  6  0  0  0
  2  3  1  0  0  0  0
  2  4  1  0  0  0  0
  3 14  1  0  0  0  0
  4  6  1  0  0  0  0
  5  4  2  0  0  0  0
  6 15  1  6  0  0  0
  6  8  1  0  0  0  0
  6  7  1  0  0  0  0
  7 18  1  0  0  0  0
  7 16  1  0  0  0  0
  8  9  3  0  0  0  0
  9 19  1  0  0  0  0
 11  1  1  0  0  0  0
 12  1  1  0  0  0  0
 17  7  1  0  0  0  0
M TOR 0 0 1 2 13
M TOR 1 0 1 3 4
M TOR 2 0 1 3 5
M TOR 3 1 3 5 6
M TOR 4 1 3 5 7
M TOR 5 1 3 5 14
M TOR 6 2 1 0 9
M TOR 7 2 1 0 10
M TOR 8 2 1 0 11
M TOR 9 2 1 3 4
M TOR 10 2 1 3 5
M TOR 11 3 1 0 9
M TOR 12 3 1 0 10
M TOR 13 3 1 0 11
M TOR 14 3 1 2 13
M TOR 15 3 5 6 15
M TOR 16 3 5 6 16
M TOR 17 3 5 6 17
M TOR 18 3 5 7 8
M TOR 19 4 3 1 12
M TOR 20 4 3 5 6
M TOR 21 4 3 5 7
M TOR 22 4 3 5 14
M TOR 23 5 3 1 12
M TOR 24 5 7 8 18
M TOR 25 6 5 7 8
M TOR 26 7 5 6 15
M TOR 27 7 5 6 16
M TOR 28 7 5 6 17
M TOR 29 8 7 5 14
M  END
$$$$
