gdb 1388	4.5297583	0.7291959	0.6906194	2.4275	78.73	-0.25725	0.03524	0.29248999999999997	1656.1515	0.154061	-422.488535	-422.47865	-422.477706	-422.524252	35.712
 OpenBabel02181911403D

 19 19  0  0  1  0  0  0  0  0999 V2000
   -0.4685    0.9307   -3.7314 O   0  0  0  0  0  0  0  0  0  0  0  0
    0.5605    1.9064   -3.6776 C   0  0  1  0  0  0  0  0  0  0  0  0
    1.4282    1.6899   -2.4304 C   0  0  0  0  0  0  0  0  0  0  0  0
    0.5373    1.7349   -1.3259 O   0  0  0  0  0  0  0  0  0  0  0  0
    1.1308    1.3960   -0.1082 C   0  0  0  0  0  0  0  0  0  0  0  0
    0.2325    0.8120    0.9311 C   0  0  0  0  0  0  0  0  0  0  0  0
    1.2778   -0.0578    0.2588 C   0  0  0  0  0  0  0  0  0  0  0  0
    1.3724    1.8324   -4.8886 C   0  0  0  0  0  0  0  0  0  0  0  0
    2.0706    1.7899   -5.8648 C   0  0  0  0  0  0  0  0  0  0  0  0
   -0.8275    0.9022   -2.8350 H   0  0  0  0  0  0  0  0  0  0  0  0
    0.1233    2.9167   -3.6057 H   0  0  0  0  0  0  0  0  0  0  0  0
    1.9247    0.7123   -2.4903 H   0  0  0  0  0  0  0  0  0  0  0  0
    2.1950    2.4738   -2.3530 H   0  0  0  0  0  0  0  0  0  0  0  0
    1.9125    2.0868    0.2080 H   0  0  0  0  0  0  0  0  0  0  0  0
    0.3768    1.1076    1.9639 H   0  0  0  0  0  0  0  0  0  0  0  0
   -0.8006    0.6533    0.6437 H   0  0  0  0  0  0  0  0  0  0  0  0
    2.1483   -0.3686    0.8257 H   0  0  0  0  0  0  0  0  0  0  0  0
    0.9208   -0.7837   -0.4634 H   0  0  0  0  0  0  0  0  0  0  0  0
    2.6746    1.7517   -6.7375 H   0  0  0  0  0  0  0  0  0  0  0  0
  1  2  1  0  0  0  0
  1 10  1  0  0  0  0
  2 11  1  1  0  0  0
  2  3  1  0  0  0  0
  3 13  1  0  0  0  0
  3  4  1  0  0  0  0
  4  5  1  0  0  0  0
  5 14  1  0  0  0  0
  5  7  1  0  0  0  0
  5  6  1  0  0  0  0
  6 15  1  0  0  0  0
  7 17  1  0  0  0  0
  7  6  1  0  0  0  0
  8  2  1  0  0  0  0
  9  8  3  0  0  0  0
 12  3  1  0  0  0  0
 16  6  1  0  0  0  0
 18  7  1  0  0  0  0
 19  9  1  0  0  0  0
M TOR 0 0 1 2 3
M TOR 1 0 1 2 11
M TOR 2 0 1 2 12
M TOR 3 0 1 7 8
M TOR 4 1 2 3 4
M TOR 5 1 7 8 18
M TOR 6 2 1 0 9
M TOR 7 2 1 7 8
M TOR 8 2 3 4 5
M TOR 9 2 3 4 6
M TOR 10 2 3 4 13
M TOR 11 3 2 1 7
M TOR 12 3 2 1 10
M TOR 13 3 4 5 6
M TOR 14 3 4 5 14
M TOR 15 3 4 5 15
M TOR 16 3 4 6 16
M TOR 17 3 4 6 17
M TOR 18 4 3 2 11
M TOR 19 4 3 2 12
M TOR 20 4 5 6 16
M TOR 21 4 5 6 17
M TOR 22 4 6 5 14
M TOR 23 4 6 5 15
M TOR 24 5 6 4 13
M TOR 25 7 1 0 9
M TOR 26 7 1 2 11
M TOR 27 7 1 2 12
M TOR 28 8 7 1 10
M  END
$$$$
