
     RDKit          3D

 19 21  0  0  0  0  0  0  0  0999 V2000
    0.9382   -2.6191   -0.9655 O   0  0  0  0  0  0  0  0  0  0  0  0
    1.3152   -1.8038   -2.0369 C   0  0  0  0  0  0  0  0  0  0  0  0
    2.5903   -2.1860   -2.7217 C   0  0  0  0  0  0  0  0  0  0  0  0
    1.2648   -2.3927   -3.4280 C   0  0  0  0  0  0  0  0  0  0  0  0
    0.9833   -0.3506   -1.8425 C   0  0  0  0  0  0  0  0  0  0  0  0
   -0.4247   -0.2155   -1.4378 O   0  0  0  0  0  0  0  0  0  0  0  0
   -0.0157    0.3374   -0.1792 C   0  0  0  0  0  0  0  0  0  0  0  0
    0.7266    1.6209   -0.3686 C   0  0  0  0  0  0  0  0  0  0  0  0
    1.4454    0.2958   -0.5350 C   0  0  0  0  0  0  0  0  0  0  0  0
   -0.0048   -2.4534   -0.8373 H   0  0  0  0  0  0  0  0  0  0  0  0
    3.2509   -1.3996   -3.0715 H   0  0  0  0  0  0  0  0  0  0  0  0
    3.0935   -3.0643   -2.3347 H   0  0  0  0  0  0  0  0  0  0  0  0
    1.0150   -1.7495   -4.2650 H   0  0  0  0  0  0  0  0  0  0  0  0
    0.8984   -3.4098   -3.5023 H   0  0  0  0  0  0  0  0  0  0  0  0
    1.1912    0.2162   -2.7585 H   0  0  0  0  0  0  0  0  0  0  0  0
   -0.5725    0.0482    0.7042 H   0  0  0  0  0  0  0  0  0  0  0  0
    0.5087    2.2477   -1.2295 H   0  0  0  0  0  0  0  0  0  0  0  0
    0.9714    2.1584    0.5426 H   0  0  0  0  0  0  0  0  0  0  0  0
    2.3064   -0.0051    0.0449 H   0  0  0  0  0  0  0  0  0  0  0  0
  1  2  1  0
  2  3  1  0
  3  4  1  0
  2  5  1  0
  5  6  1  0
  6  7  1  0
  7  8  1  0
  8  9  1  0
  4  2  1  0
  9  5  1  0
  9  7  1  0
  1 10  1  0
  3 11  1  0
  3 12  1  0
  4 13  1  0
  4 14  1  0
  5 15  1  0
  7 16  1  0
  8 17  1  0
  8 18  1  0
  9 19  1  0
M  END
$$$$
