
     RDKit          3D

 19 21  0  0  0  0  0  0  0  0999 V2000
    0.2239   -0.7611    0.0413 C   0  0  0  0  0  0  0  0  0  0  0  0
    0.9898    0.5103    0.3636 C   0  0  0  0  0  0  0  0  0  0  0  0
    1.6417    0.9520   -0.8141 O   0  0  0  0  0  0  0  0  0  0  0  0
    2.3280    2.1543   -0.6638 C   0  0  0  0  0  0  0  0  0  0  0  0
    3.1221    2.6334   -1.8622 C   0  0  0  0  0  0  0  0  0  0  0  0
    4.5117    2.0045   -1.6830 C   0  0  0  0  0  0  0  0  0  0  0  0
    4.4779    1.1484   -0.5427 O   0  0  0  0  0  0  0  0  0  0  0  0
    3.6951    2.1843    0.1027 C   0  0  0  0  0  0  0  0  0  0  0  0
    4.1798    3.2526   -0.9417 C   0  0  0  0  0  0  0  0  0  0  0  0
   -0.2884   -1.1354    0.9327 H   0  0  0  0  0  0  0  0  0  0  0  0
   -0.5219   -0.5731   -0.7363 H   0  0  0  0  0  0  0  0  0  0  0  0
    0.9069   -1.5353   -0.3190 H   0  0  0  0  0  0  0  0  0  0  0  0
    0.3054    1.2934    0.7327 H   0  0  0  0  0  0  0  0  0  0  0  0
    1.7267    0.3218    1.1603 H   0  0  0  0  0  0  0  0  0  0  0  0
    1.6737    2.9524   -0.2784 H   0  0  0  0  0  0  0  0  0  0  0  0
    2.7547    3.0023   -2.8105 H   0  0  0  0  0  0  0  0  0  0  0  0
    5.1999    1.7889   -2.4888 H   0  0  0  0  0  0  0  0  0  0  0  0
    3.7863    2.1959    1.1863 H   0  0  0  0  0  0  0  0  0  0  0  0
    4.6055    4.2432   -0.8797 H   0  0  0  0  0  0  0  0  0  0  0  0
  1  2  1  0
  2  3  1  0
  3  4  1  0
  4  5  1  0
  5  6  1  0
  6  7  1  0
  7  8  1  0
  8  9  1  0
  8  4  1  0
  9  5  1  0
  9  6  1  0
  1 10  1  0
  1 11  1  0
  1 12  1  0
  2 13  1  0
  2 14  1  0
  4 15  1  0
  5 16  1  0
  6 17  1  0
  8 18  1  0
  9 19  1  0
M  END
$$$$
