gdb 1110	4.4683366	0.7764256	0.7403127	3.7538	77.76	-0.24355	-0.03329	0.21026	1551.9781	0.154429	-422.574761	-422.565049	-422.564105	-422.611148	33.704
 OpenBabel02181911403D

 19 19  0  0  1  0  0  0  0  0999 V2000
    4.6974    3.5749    3.9069 C   0  0  0  0  0  0  0  0  0  0  0  0
    4.0801    2.2505    3.5005 C   0  0  0  0  0  0  0  0  0  0  0  0
    4.7057    1.2142    3.5226 O   0  0  0  0  0  0  0  0  0  0  0  0
    2.6410    2.2961    3.0200 C   0  0  2  0  0  0  0  0  0  0  0  0
    1.8868    0.9544    2.8754 C   0  0  0  0  0  0  0  0  0  0  0  0
    1.3366    1.4224    1.4923 C   0  0  1  0  0  0  0  0  0  0  0  0
    2.4556    2.5083    1.4780 C   0  0  0  0  0  0  0  0  0  0  0  0
    1.3576    0.4141    0.3779 C   0  0  0  0  0  0  0  0  0  0  0  0
    0.4171    0.1236   -0.3157 O   0  0  0  0  0  0  0  0  0  0  0  0
    4.2187    3.9365    4.8250 H   0  0  0  0  0  0  0  0  0  0  0  0
    5.7674    3.4555    4.0797 H   0  0  0  0  0  0  0  0  0  0  0  0
    4.5227    4.3372    3.1393 H   0  0  0  0  0  0  0  0  0  0  0  0
    2.0725    3.0458    3.5778 H   0  0  0  0  0  0  0  0  0  0  0  0
    2.6062    0.1364    2.7780 H   0  0  0  0  0  0  0  0  0  0  0  0
    1.1488    0.6980    3.6367 H   0  0  0  0  0  0  0  0  0  0  0  0
    0.3378    1.8581    1.5629 H   0  0  0  0  0  0  0  0  0  0  0  0
    3.3360    2.1667    0.9237 H   0  0  0  0  0  0  0  0  0  0  0  0
    2.1772    3.5037    1.1284 H   0  0  0  0  0  0  0  0  0  0  0  0
    2.3524   -0.0730    0.2326 H   0  0  0  0  0  0  0  0  0  0  0  0
  1 11  1  0  0  0  0
  1 10  1  0  0  0  0
  2  3  2  0  0  0  0
  2  1  1  0  0  0  0
  4  2  1  0  0  0  0
  4 13  1  1  0  0  0
  5  4  1  0  0  0  0
  5 15  1  0  0  0  0
  6 16  1  1  0  0  0
  6  5  1  0  0  0  0
  7  6  1  0  0  0  0
  7  4  1  0  0  0  0
  8  6  1  0  0  0  0
  9  8  2  0  0  0  0
 12  1  1  0  0  0  0
 14  5  1  0  0  0  0
 17  7  1  0  0  0  0
 18  7  1  0  0  0  0
 19  8  1  0  0  0  0
M TOR 0 0 1 3 4
M TOR 1 0 1 3 6
M TOR 2 0 1 3 12
M TOR 3 1 3 4 5
M TOR 4 1 3 4 13
M TOR 5 1 3 4 14
M TOR 6 1 3 6 5
M TOR 7 1 3 6 16
M TOR 8 1 3 6 17
M TOR 9 2 1 0 9
M TOR 10 2 1 0 10
M TOR 11 2 1 0 11
M TOR 12 2 1 3 4
M TOR 13 2 1 3 6
M TOR 14 2 1 3 12
M TOR 15 3 1 0 9
M TOR 16 3 1 0 10
M TOR 17 3 1 0 11
M TOR 18 3 4 5 6
M TOR 19 3 4 5 7
M TOR 20 3 4 5 15
M TOR 21 3 6 5 7
M TOR 22 3 6 5 15
M TOR 23 4 3 6 16
M TOR 24 4 3 6 17
M TOR 25 4 5 6 16
M TOR 26 4 5 6 17
M TOR 27 4 5 7 8
M TOR 28 4 5 7 18
M TOR 29 5 4 3 12
M TOR 30 5 6 3 12
M TOR 31 6 3 4 13
M TOR 32 6 3 4 14
M TOR 33 6 5 4 13
M TOR 34 6 5 4 14
M TOR 35 6 5 7 8
M TOR 36 6 5 7 18
M TOR 37 7 5 4 13
M TOR 38 7 5 4 14
M TOR 39 7 5 6 16
M TOR 40 7 5 6 17
M TOR 41 8 7 5 15
M  END
$$$$
