
     RDKit          3D

 19 21  0  0  0  0  0  0  0  0999 V2000
   -1.4540   -3.6420    0.5553 C   0  0  0  0  0  0  0  0  0  0  0  0
    0.0286   -3.5415    0.6757 C   0  0  0  0  0  0  0  0  0  0  0  0
    0.8508   -4.4022   -0.1187 O   0  0  0  0  0  0  0  0  0  0  0  0
    1.9751   -3.5614    0.2693 C   0  0  0  0  0  0  0  0  0  0  0  0
    2.1757   -3.8968    1.7678 C   0  0  0  0  0  0  0  0  0  0  0  0
    0.8179   -3.2223    1.9630 C   0  0  0  0  0  0  0  0  0  0  0  0
    0.9915   -2.3962    0.6739 C   0  0  0  0  0  0  0  0  0  0  0  0
    0.9110   -0.9340    0.3991 C   0  0  0  0  0  0  0  0  0  0  0  0
    1.9758   -0.1950    0.9875 O   0  0  0  0  0  0  0  0  0  0  0  0
   -1.9410   -2.8874    1.1800 H   0  0  0  0  0  0  0  0  0  0  0  0
   -1.7746   -3.4944   -0.4806 H   0  0  0  0  0  0  0  0  0  0  0  0
   -1.7987   -4.6282    0.8840 H   0  0  0  0  0  0  0  0  0  0  0  0
    2.7826   -3.5462   -0.4593 H   0  0  0  0  0  0  0  0  0  0  0  0
    2.2852   -4.9572    2.0153 H   0  0  0  0  0  0  0  0  0  0  0  0
    2.9853   -3.3097    2.2090 H   0  0  0  0  0  0  0  0  0  0  0  0
    0.3242   -2.9308    2.8828 H   0  0  0  0  0  0  0  0  0  0  0  0
    0.9816   -0.7386   -0.6766 H   0  0  0  0  0  0  0  0  0  0  0  0
   -0.0708   -0.5575    0.7314 H   0  0  0  0  0  0  0  0  0  0  0  0
    1.9609   -0.3809    1.9325 H   0  0  0  0  0  0  0  0  0  0  0  0
  1  2  1  0
  2  3  1  0
  3  4  1  0
  4  5  1  0
  5  6  1  0
  6  7  1  0
  7  8  1  0
  8  9  1  0
  6  2  1  0
  7  2  1  0
  7  4  1  0
  1 10  1  0
  1 11  1  0
  1 12  1  0
  4 13  1  0
  5 14  1  0
  5 15  1  0
  6 16  1  0
  8 17  1  0
  8 18  1  0
  9 19  1  0
M  END
$$$$
