gdb 3412	2.2811391	1.5289697	1.0277864	2.386	76.16	-0.23165	-0.0085	0.22315	1173.0124	0.158032	-422.578546	-422.57029	-422.569345	-422.611316	31.802
 OpenBabel02181911413D

 19 20  0  0  1  0  0  0  0  0999 V2000
   -2.2623   -3.0352   -0.9579 O   0  0  0  0  0  0  0  0  0  0  0  0
   -2.0398   -1.6822   -0.7229 C   0  0  1  0  0  0  0  0  0  0  0  0
   -2.3885   -1.1670    0.6241 C   0  0  2  0  0  0  0  0  0  0  0  0
   -3.0053    0.2240    0.7866 C   0  0  0  0  0  0  0  0  0  0  0  0
   -1.9586    1.3427    0.9028 C   0  0  0  0  0  0  0  0  0  0  0  0
   -0.8800    1.2232   -0.1899 C   0  0  0  0  0  0  0  0  0  0  0  0
   -0.0965   -0.0726   -0.0198 C   0  0  0  0  0  0  0  0  0  0  0  0
    1.1162   -0.1057   -0.0469 O   0  0  0  0  0  0  0  0  0  0  0  0
   -0.9079   -1.2926    0.2347 C   0  0  2  0  0  0  0  0  0  0  0  0
   -1.5809   -3.3536   -1.5601 H   0  0  0  0  0  0  0  0  0  0  0  0
   -2.2190   -1.0252   -1.5752 H   0  0  0  0  0  0  0  0  0  0  0  0
   -2.7273   -1.9324    1.3144 H   0  0  0  0  0  0  0  0  0  0  0  0
   -3.6634    0.4320   -0.0666 H   0  0  0  0  0  0  0  0  0  0  0  0
   -3.6453    0.2301    1.6741 H   0  0  0  0  0  0  0  0  0  0  0  0
   -2.4476    2.3207    0.8446 H   0  0  0  0  0  0  0  0  0  0  0  0
   -1.4733    1.2928    1.8854 H   0  0  0  0  0  0  0  0  0  0  0  0
   -1.3587    1.2328   -1.1797 H   0  0  0  0  0  0  0  0  0  0  0  0
   -0.1666    2.0500   -0.1626 H   0  0  0  0  0  0  0  0  0  0  0  0
   -0.3492   -2.1305    0.6361 H   0  0  0  0  0  0  0  0  0  0  0  0
  1  2  1  0  0  0  0
  2 11  1  6  0  0  0
  2  9  1  0  0  0  0
  2  3  1  0  0  0  0
  3  4  1  0  0  0  0
  3 12  1  1  0  0  0
  4  5  1  0  0  0  0
  4 14  1  0  0  0  0
  5 16  1  0  0  0  0
  6 18  1  0  0  0  0
  6  7  1  0  0  0  0
  6  5  1  0  0  0  0
  7  9  1  0  0  0  0
  8  7  2  0  0  0  0
  9  3  1  0  0  0  0
  9 19  1  1  0  0  0
 10  1  1  0  0  0  0
 13  4  1  0  0  0  0
 15  5  1  0  0  0  0
 17  6  1  0  0  0  0
M TOR 0 0 1 2 3
M TOR 1 0 1 2 8
M TOR 2 0 1 2 11
M TOR 3 0 1 8 6
M TOR 4 0 1 8 18
M TOR 5 1 2 3 4
M TOR 6 1 2 3 12
M TOR 7 1 2 3 13
M TOR 8 1 2 8 6
M TOR 9 1 2 8 18
M TOR 10 1 8 2 3
M TOR 11 1 8 2 11
M TOR 12 1 8 6 5
M TOR 13 1 8 6 7
M TOR 14 2 1 0 9
M TOR 15 2 3 4 5
M TOR 16 2 3 4 14
M TOR 17 2 3 4 15
M TOR 18 2 8 1 10
M TOR 19 2 8 6 5
M TOR 20 2 8 6 7
M TOR 21 3 2 1 10
M TOR 22 3 2 8 6
M TOR 23 3 2 8 18
M TOR 24 3 4 5 6
M TOR 25 3 4 5 16
M TOR 26 3 4 5 17
M TOR 27 4 3 2 8
M TOR 28 4 3 2 11
M TOR 29 4 5 6 7
M TOR 30 4 5 6 8
M TOR 31 5 4 3 12
M TOR 32 5 4 3 13
M TOR 33 5 6 8 18
M TOR 34 6 5 4 14
M TOR 35 6 5 4 15
M TOR 36 6 8 1 10
M TOR 37 6 8 2 11
M TOR 38 7 6 5 16
M TOR 39 7 6 5 17
M TOR 40 7 6 8 18
M TOR 41 8 1 0 9
M TOR 42 8 2 3 12
M TOR 43 8 2 3 13
M TOR 44 8 6 5 16
M TOR 45 8 6 5 17
M  END
$$$$
