gdb 3391	2.5150508	1.8501284	1.4571523	2.1936	73.87	-0.24824	0.0874	0.33564	975.5079	0.158233	-422.54084	-422.533096	-422.532152	-422.572559	30.723
 OpenBabel02181911413D

 19 21  0  0  1  0  0  0  0  0999 V2000
    1.5763   -0.3089   -3.1274 C   0  0  0  0  0  0  0  0  0  0  0  0
    0.4894    0.1943   -2.2221 C   0  0  1  0  0  0  0  0  0  0  0  0
   -0.2679    1.4810   -2.4963 C   0  0  2  0  0  0  0  0  0  0  0  0
   -0.6867    2.3724   -1.3407 C   0  0  0  0  0  0  0  0  0  0  0  0
   -1.3639    1.5031   -0.4140 O   0  0  0  0  0  0  0  0  0  0  0  0
   -1.2086    0.1596   -0.8866 C   0  0  1  0  0  0  0  0  0  0  0  0
   -1.0374    0.1951   -2.4135 C   0  0  2  0  0  0  0  0  0  0  0  0
    0.2905   -0.2411   -0.7597 C   0  0  2  0  0  0  0  0  0  0  0  0
    1.0226    0.3586    0.2759 O   0  0  0  0  0  0  0  0  0  0  0  0
    2.5470    0.1138   -2.8448 H   0  0  0  0  0  0  0  0  0  0  0  0
    1.6607   -1.4003   -3.0719 H   0  0  0  0  0  0  0  0  0  0  0  0
    1.3876   -0.0395   -4.1721 H   0  0  0  0  0  0  0  0  0  0  0  0
   -0.1002    1.9338   -3.4673 H   0  0  0  0  0  0  0  0  0  0  0  0
    0.1634    2.8545   -0.8423 H   0  0  0  0  0  0  0  0  0  0  0  0
   -1.3859    3.1521   -1.6671 H   0  0  0  0  0  0  0  0  0  0  0  0
   -1.9678   -0.4612   -0.4143 H   0  0  0  0  0  0  0  0  0  0  0  0
   -1.6669   -0.2346   -3.1803 H   0  0  0  0  0  0  0  0  0  0  0  0
    0.4086   -1.3297   -0.6921 H   0  0  0  0  0  0  0  0  0  0  0  0
    0.4529    1.0603    0.6204 H   0  0  0  0  0  0  0  0  0  0  0  0
  1 11  1  0  0  0  0
  1 10  1  0  0  0  0
  2  1  1  6  0  0  0
  2  8  1  0  0  0  0
  3 13  1  6  0  0  0
  3  7  1  0  0  0  0
  3  2  1  0  0  0  0
  3  4  1  0  0  0  0
  4 14  1  0  0  0  0
  4  5  1  0  0  0  0
  6  8  1  0  0  0  0
  6 16  1  1  0  0  0
  6  5  1  0  0  0  0
  7 17  1  6  0  0  0
  7  2  1  0  0  0  0
  7  6  1  0  0  0  0
  8 18  1  1  0  0  0
  8  9  1  0  0  0  0
  9 19  1  0  0  0  0
 12  1  1  0  0  0  0
 15  4  1  0  0  0  0
M TOR 0 0 1 2 3
M TOR 1 0 1 2 6
M TOR 2 0 1 2 12
M TOR 3 0 1 6 5
M TOR 4 0 1 6 16
M TOR 5 0 1 7 5
M TOR 6 0 1 7 8
M TOR 7 0 1 7 17
M TOR 8 1 2 3 4
M TOR 9 1 2 3 13
M TOR 10 1 2 3 14
M TOR 11 1 2 6 5
M TOR 12 1 2 6 16
M TOR 13 1 6 2 3
M TOR 14 1 6 2 12
M TOR 15 1 6 5 4
M TOR 16 1 6 5 7
M TOR 17 1 6 5 15
M TOR 18 1 7 5 4
M TOR 19 1 7 5 15
M TOR 20 1 7 8 18
M TOR 21 2 1 0 9
M TOR 22 2 1 0 10
M TOR 23 2 1 0 11
M TOR 24 2 1 7 5
M TOR 25 2 1 7 8
M TOR 26 2 1 7 17
M TOR 27 2 3 4 5
M TOR 28 2 6 1 7
M TOR 29 2 6 5 4
M TOR 30 2 6 5 7
M TOR 31 2 6 5 15
M TOR 32 3 2 1 7
M TOR 33 3 2 6 5
M TOR 34 3 2 6 16
M TOR 35 3 4 5 6
M TOR 36 3 4 5 7
M TOR 37 3 4 5 15
M TOR 38 4 3 2 6
M TOR 39 4 3 2 12
M TOR 40 4 5 6 16
M TOR 41 4 5 7 8
M TOR 42 4 5 7 17
M TOR 43 5 4 3 13
M TOR 44 5 4 3 14
M TOR 45 5 6 2 12
M TOR 46 5 7 8 18
M TOR 47 6 1 0 9
M TOR 48 6 1 0 10
M TOR 49 6 1 0 11
M TOR 50 6 1 7 8
M TOR 51 6 1 7 17
M TOR 52 6 2 3 13
M TOR 53 6 2 3 14
M TOR 54 6 5 7 8
M TOR 55 6 5 7 17
M TOR 56 7 1 0 9
M TOR 57 7 1 0 10
M TOR 58 7 1 0 11
M TOR 59 7 1 2 12
M TOR 60 7 1 6 16
M TOR 61 7 5 6 16
M TOR 62 8 7 5 15
M  END
$$$$
