gdb 1760	2.2747353	1.7327033	1.2630853	3.1481	74.84	-0.23815	-0.02389	0.21426	1057.4294	0.156815	-422.574347	-422.566085	-422.565141	-422.607417	31.424
 OpenBabel02181911403D

 19 20  0  0  1  0  0  0  0  0999 V2000
   -2.9947   -0.0797    1.1994 C   0  0  0  0  0  0  0  0  0  0  0  0
   -2.0392   -0.0543    0.0175 C   0  0  2  0  0  0  0  0  0  0  0  0
   -0.8926   -1.1225    0.0498 C   0  0  0  0  0  0  0  0  0  0  0  0
    0.1287    0.0199    0.0768 C   0  0  0  0  0  0  0  0  0  0  0  0
    1.3201    0.0686    0.1827 O   0  0  0  0  0  0  0  0  0  0  0  0
   -0.9587    1.0964   -0.0474 C   0  0  1  0  0  0  0  0  0  0  0  0
   -1.1200    1.6719   -1.4661 C   0  0  0  0  0  0  0  0  0  0  0  0
   -1.7635    0.6525   -2.2189 O   0  0  0  0  0  0  0  0  0  0  0  0
   -2.7229    0.0622   -1.3525 C   0  0  0  0  0  0  0  0  0  0  0  0
   -3.6402   -0.9650    1.1662 H   0  0  0  0  0  0  0  0  0  0  0  0
   -2.4524   -0.1053    2.1503 H   0  0  0  0  0  0  0  0  0  0  0  0
   -3.6420    0.8039    1.2065 H   0  0  0  0  0  0  0  0  0  0  0  0
   -0.8681   -1.7672    0.9339 H   0  0  0  0  0  0  0  0  0  0  0  0
   -0.8137   -1.7502   -0.8438 H   0  0  0  0  0  0  0  0  0  0  0  0
   -0.9507    1.8629    0.7310 H   0  0  0  0  0  0  0  0  0  0  0  0
   -1.7388    2.5830   -1.4320 H   0  0  0  0  0  0  0  0  0  0  0  0
   -0.1719    1.9096   -1.9551 H   0  0  0  0  0  0  0  0  0  0  0  0
   -3.6204    0.6995   -1.2739 H   0  0  0  0  0  0  0  0  0  0  0  0
   -3.0166   -0.8989   -1.7841 H   0  0  0  0  0  0  0  0  0  0  0  0
  1 12  1  0  0  0  0
  1 11  1  0  0  0  0
  2  3  1  0  0  0  0
  2  1  1  1  0  0  0
  3  4  1  0  0  0  0
  3 13  1  0  0  0  0
  4  5  2  0  0  0  0
  6  2  1  0  0  0  0
  6  4  1  0  0  0  0
  6 15  1  1  0  0  0
  7 16  1  0  0  0  0
  7  6  1  0  0  0  0
  8  7  1  0  0  0  0
  8  9  1  0  0  0  0
  9 18  1  0  0  0  0
  9  2  1  0  0  0  0
 10  1  1  0  0  0  0
 14  3  1  0  0  0  0
 17  7  1  0  0  0  0
 19  9  1  0  0  0  0
M TOR 0 0 1 2 3
M TOR 1 0 1 2 12
M TOR 2 0 1 2 13
M TOR 3 0 1 5 3
M TOR 4 0 1 5 6
M TOR 5 0 1 5 14
M TOR 6 0 1 8 7
M TOR 7 0 1 8 17
M TOR 8 0 1 8 18
M TOR 9 1 2 3 4
M TOR 10 1 2 3 5
M TOR 11 1 5 3 4
M TOR 12 1 5 6 7
M TOR 13 1 5 6 15
M TOR 14 1 5 6 16
M TOR 15 1 8 7 6
M TOR 16 2 1 0 9
M TOR 17 2 1 0 10
M TOR 18 2 1 0 11
M TOR 19 2 1 5 6
M TOR 20 2 1 5 14
M TOR 21 2 1 8 7
M TOR 22 2 1 8 17
M TOR 23 2 1 8 18
M TOR 24 2 3 5 6
M TOR 25 2 3 5 14
M TOR 26 3 2 1 8
M TOR 27 3 5 1 8
M TOR 28 3 5 6 7
M TOR 29 3 5 6 15
M TOR 30 3 5 6 16
M TOR 31 4 3 2 12
M TOR 32 4 3 2 13
M TOR 33 4 3 5 6
M TOR 34 4 3 5 14
M TOR 35 5 1 0 9
M TOR 36 5 1 0 10
M TOR 37 5 1 0 11
M TOR 38 5 1 2 12
M TOR 39 5 1 2 13
M TOR 40 5 1 8 7
M TOR 41 5 1 8 17
M TOR 42 5 1 8 18
M TOR 43 5 3 2 12
M TOR 44 5 3 2 13
M TOR 45 5 6 7 8
M TOR 46 6 5 1 8
M TOR 47 6 7 8 17
M TOR 48 6 7 8 18
M TOR 49 7 6 5 14
M TOR 50 8 1 0 9
M TOR 51 8 1 0 10
M TOR 52 8 1 0 11
M TOR 53 8 1 2 12
M TOR 54 8 1 2 13
M TOR 55 8 1 5 14
M TOR 56 8 7 6 15
M TOR 57 8 7 6 16
M  END
$$$$
