
     RDKit          3D

 19 21  0  0  0  0  0  0  0  0999 V2000
   -1.7063   -1.3808   -0.5963 C   0  0  0  0  0  0  0  0  0  0  0  0
   -1.9990   -0.2115    0.2946 C   0  0  0  0  0  0  0  0  0  0  0  0
   -3.3052   -0.1193    1.1440 C   0  0  0  0  0  0  0  0  0  0  0  0
   -3.2930    0.8751    2.2799 C   0  0  0  0  0  0  0  0  0  0  0  0
   -3.4166    1.3695    0.8633 C   0  0  0  0  0  0  0  0  0  0  0  0
   -2.1051    1.3010    0.0565 C   0  0  0  0  0  0  0  0  0  0  0  0
   -1.9501    2.0926   -1.0582 O   0  0  0  0  0  0  0  0  0  0  0  0
   -0.9267    0.7490    0.8085 C   0  0  0  0  0  0  0  0  0  0  0  0
    0.2167    0.8515   -0.0097 O   0  0  0  0  0  0  0  0  0  0  0  0
   -1.4946   -2.2898   -0.0171 H   0  0  0  0  0  0  0  0  0  0  0  0
   -2.5565   -1.6010   -1.2519 H   0  0  0  0  0  0  0  0  0  0  0  0
   -0.8448   -1.1776   -1.2393 H   0  0  0  0  0  0  0  0  0  0  0  0
   -4.0836   -0.8669    1.0516 H   0  0  0  0  0  0  0  0  0  0  0  0
   -4.2224    0.9104    2.8422 H   0  0  0  0  0  0  0  0  0  0  0  0
   -2.4207    1.0646    2.8943 H   0  0  0  0  0  0  0  0  0  0  0  0
   -4.2729    1.9217    0.4994 H   0  0  0  0  0  0  0  0  0  0  0  0
   -1.0153    2.0339   -1.3003 H   0  0  0  0  0  0  0  0  0  0  0  0
   -0.7097    0.9142    1.8636 H   0  0  0  0  0  0  0  0  0  0  0  0
    0.7342    0.0438    0.0723 H   0  0  0  0  0  0  0  0  0  0  0  0
  1  2  1  0
  2  3  1  0
  3  4  1  0
  4  5  1  0
  5  6  1  0
  6  7  1  0
  6  8  1  0
  8  9  1  0
  6  2  1  0
  8  2  1  0
  5  3  1  0
  1 10  1  0
  1 11  1  0
  1 12  1  0
  3 13  1  0
  4 14  1  0
  4 15  1  0
  5 16  1  0
  7 17  1  0
  8 18  1  0
  9 19  1  0
M  END
$$$$
