gdb 2335	2.7148295	1.5057691	1.2898672	1.957	74.53	-0.23983	-0.02219	0.21764	1059.2553	0.156899	-422.580911	-422.572661	-422.571717	-422.613621	31.475
 OpenBabel02181911413D

 19 20  0  0  1  0  0  0  0  0999 V2000
   -3.2571   -1.5339   -0.6568 C   0  0  0  0  0  0  0  0  0  0  0  0
   -2.1951   -0.7407    0.0765 C   0  0  2  0  0  0  0  0  0  0  0  0
   -2.2895    0.7860   -0.0849 C   0  0  0  0  0  0  0  0  0  0  0  0
   -0.8858    1.3166    0.2481 C   0  0  0  0  0  0  0  0  0  0  0  0
    0.0645    0.1903   -0.1753 C   0  0  0  0  0  0  0  0  0  0  0  0
    1.2100    0.3170   -0.5233 O   0  0  0  0  0  0  0  0  0  0  0  0
   -0.6995   -1.1281   -0.0951 C   0  0  1  0  0  0  0  0  0  0  0  0
   -0.8257   -1.6575    1.3529 C   0  0  0  0  0  0  0  0  0  0  0  0
   -2.1452   -1.1018    1.4921 O   0  0  0  0  0  0  0  0  0  0  0  0
   -4.2521   -1.2562   -0.2933 H   0  0  0  0  0  0  0  0  0  0  0  0
   -3.2181   -1.3382   -1.7334 H   0  0  0  0  0  0  0  0  0  0  0  0
   -3.1249   -2.6073   -0.4935 H   0  0  0  0  0  0  0  0  0  0  0  0
   -2.5505    1.0241   -1.1227 H   0  0  0  0  0  0  0  0  0  0  0  0
   -3.0742    1.1917    0.5593 H   0  0  0  0  0  0  0  0  0  0  0  0
   -0.6171    2.2572   -0.2354 H   0  0  0  0  0  0  0  0  0  0  0  0
   -0.7724    1.4566    1.3305 H   0  0  0  0  0  0  0  0  0  0  0  0
   -0.3939   -1.8389   -0.8620 H   0  0  0  0  0  0  0  0  0  0  0  0
   -0.8280   -2.7525    1.4218 H   0  0  0  0  0  0  0  0  0  0  0  0
   -0.1211   -1.2563    2.0907 H   0  0  0  0  0  0  0  0  0  0  0  0
  1 12  1  0  0  0  0
  1 10  1  0  0  0  0
  2  1  1  6  0  0  0
  2  9  1  0  0  0  0
  3  2  1  0  0  0  0
  3  4  1  0  0  0  0
  3 14  1  0  0  0  0
  4 16  1  0  0  0  0
  5  7  1  0  0  0  0
  5  4  1  0  0  0  0
  6  5  2  0  0  0  0
  7 17  1  6  0  0  0
  7  2  1  0  0  0  0
  7  8  1  0  0  0  0
  8 18  1  0  0  0  0
  8  9  1  0  0  0  0
  8 19  1  0  0  0  0
 11  1  1  0  0  0  0
 13  3  1  0  0  0  0
 15  4  1  0  0  0  0
M TOR 0 0 1 2 3
M TOR 1 0 1 2 12
M TOR 2 0 1 2 13
M TOR 3 0 1 6 4
M TOR 4 0 1 6 7
M TOR 5 0 1 6 16
M TOR 6 0 1 8 7
M TOR 7 1 2 3 4
M TOR 8 1 2 3 14
M TOR 9 1 2 3 15
M TOR 10 1 6 4 3
M TOR 11 1 6 4 5
M TOR 12 1 6 7 8
M TOR 13 1 6 7 17
M TOR 14 1 6 7 18
M TOR 15 1 8 7 17
M TOR 16 1 8 7 18
M TOR 17 2 1 0 9
M TOR 18 2 1 0 10
M TOR 19 2 1 0 11
M TOR 20 2 1 6 4
M TOR 21 2 1 6 7
M TOR 22 2 1 6 16
M TOR 23 2 1 8 7
M TOR 24 2 3 4 5
M TOR 25 2 3 4 6
M TOR 26 3 2 1 6
M TOR 27 3 2 1 8
M TOR 28 3 4 6 7
M TOR 29 3 4 6 16
M TOR 30 4 3 2 12
M TOR 31 4 3 2 13
M TOR 32 4 6 1 8
M TOR 33 4 6 7 8
M TOR 34 4 6 7 17
M TOR 35 4 6 7 18
M TOR 36 5 4 3 14
M TOR 37 5 4 3 15
M TOR 38 5 4 6 7
M TOR 39 5 4 6 16
M TOR 40 6 1 0 9
M TOR 41 6 1 0 10
M TOR 42 6 1 0 11
M TOR 43 6 1 2 12
M TOR 44 6 1 2 13
M TOR 45 6 4 3 14
M TOR 46 6 4 3 15
M TOR 47 8 1 0 9
M TOR 48 8 1 0 10
M TOR 49 8 1 0 11
M TOR 50 8 1 2 12
M TOR 51 8 1 2 13
M TOR 52 8 1 6 16
M TOR 53 8 7 6 16
M  END
$$$$
