
     RDKit          3D

 19 20  0  0  0  0  0  0  0  0999 V2000
   -4.0406    0.9364    1.3074 C   0  0  0  0  0  0  0  0  0  0  0  0
   -2.6652    0.3056    1.2142 C   0  0  0  0  0  0  0  0  0  0  0  0
   -1.6226    1.2924    1.4645 O   0  0  0  0  0  0  0  0  0  0  0  0
   -1.0944    1.1731    0.1262 C   0  0  0  0  0  0  0  0  0  0  0  0
    0.0738    0.1650    0.1276 C   0  0  0  0  0  0  0  0  0  0  0  0
    1.2614    0.2631    0.2161 O   0  0  0  0  0  0  0  0  0  0  0  0
   -0.8906   -1.0200   -0.0936 C   0  0  0  0  0  0  0  0  0  0  0  0
   -2.0793   -0.0105   -0.1874 C   0  0  0  0  0  0  0  0  0  0  0  0
   -2.9704   -0.1068   -1.4053 C   0  0  0  0  0  0  0  0  0  0  0  0
   -4.1997    1.3170    2.3209 H   0  0  0  0  0  0  0  0  0  0  0  0
   -4.1447    1.7737    0.6116 H   0  0  0  0  0  0  0  0  0  0  0  0
   -4.8223    0.1999    1.0922 H   0  0  0  0  0  0  0  0  0  0  0  0
   -2.5866   -0.5280    1.9252 H   0  0  0  0  0  0  0  0  0  0  0  0
   -1.0075    2.1303   -0.3957 H   0  0  0  0  0  0  0  0  0  0  0  0
   -0.6740   -1.5412   -1.0323 H   0  0  0  0  0  0  0  0  0  0  0  0
   -0.9340   -1.7608    0.7103 H   0  0  0  0  0  0  0  0  0  0  0  0
   -3.5597   -1.0310   -1.3886 H   0  0  0  0  0  0  0  0  0  0  0  0
   -3.6674    0.7330   -1.4737 H   0  0  0  0  0  0  0  0  0  0  0  0
   -2.3731   -0.1181   -2.3235 H   0  0  0  0  0  0  0  0  0  0  0  0
  1  2  1  0
  2  3  1  0
  3  4  1  0
  4  5  1  0
  5  6  2  0
  5  7  1  0
  7  8  1  0
  8  9  1  0
  8  2  1  0
  8  4  1  0
  1 10  1  0
  1 11  1  0
  1 12  1  0
  2 13  1  0
  4 14  1  0
  7 15  1  0
  7 16  1  0
  9 17  1  0
  9 18  1  0
  9 19  1  0
M  END
$$$$
