gdb 2856	4.2925709	1.1831916	1.101201	1.2286	74.43	-0.25561	0.07151	0.32712	1128.9563	0.15843	-422.529613	-422.521944	-422.521	-422.561402	30.729
 OpenBabel02181911413D

 19 21  0  0  1  0  0  0  0  0999 V2000
   -6.0939   -0.2699    2.1381 O   0  0  0  0  0  0  0  0  0  0  0  0
   -4.7492   -0.6455    2.0247 C   0  0  2  0  0  0  0  0  0  0  0  0
   -3.6353    0.4083    1.7961 C   0  0  2  0  0  0  0  0  0  0  0  0
   -4.0399    0.5020    0.2839 C   0  0  1  0  0  0  0  0  0  0  0  0
   -2.7866    0.7233   -0.5600 C   0  0  0  0  0  0  0  0  0  0  0  0
   -1.7895   -0.2007    0.1990 C   0  0  1  0  0  0  0  0  0  0  0  0
   -0.6423    0.4516    0.7191 O   0  0  0  0  0  0  0  0  0  0  0  0
   -2.7212   -0.7561    1.2753 C   0  0  2  0  0  0  0  0  0  0  0  0
   -4.1288   -1.0216    0.6542 C   0  0  1  0  0  0  0  0  0  0  0  0
   -6.3067    0.3534    1.4363 H   0  0  0  0  0  0  0  0  0  0  0  0
   -4.5703   -1.3551    2.8367 H   0  0  0  0  0  0  0  0  0  0  0  0
   -3.3480    1.2333    2.4532 H   0  0  0  0  0  0  0  0  0  0  0  0
   -4.9420    1.0469   -0.0043 H   0  0  0  0  0  0  0  0  0  0  0  0
   -2.9296    0.4305   -1.6049 H   0  0  0  0  0  0  0  0  0  0  0  0
   -2.4355    1.7605   -0.5511 H   0  0  0  0  0  0  0  0  0  0  0  0
   -1.3906   -0.9921   -0.4423 H   0  0  0  0  0  0  0  0  0  0  0  0
   -0.9410    1.1049    1.3613 H   0  0  0  0  0  0  0  0  0  0  0  0
   -2.3053   -1.4688    1.9894 H   0  0  0  0  0  0  0  0  0  0  0  0
   -4.4024   -1.8425   -0.0119 H   0  0  0  0  0  0  0  0  0  0  0  0
  2  1  1  0  0  0  0
  2 11  1  1  0  0  0
  3  2  1  0  0  0  0
  3 12  1  1  0  0  0
  4 13  1  6  0  0  0
  4  9  1  0  0  0  0
  4  3  1  0  0  0  0
  5 15  1  0  0  0  0
  5  6  1  0  0  0  0
  5  4  1  0  0  0  0
  6 16  1  6  0  0  0
  6  7  1  0  0  0  0
  6  8  1  0  0  0  0
  7 17  1  0  0  0  0
  8  3  1  0  0  0  0
  8 18  1  1  0  0  0
  9 19  1  6  0  0  0
  9  8  1  0  0  0  0
  9  2  1  0  0  0  0
 10  1  1  0  0  0  0
 14  5  1  0  0  0  0
M TOR 0 0 1 2 3
M TOR 1 0 1 2 7
M TOR 2 0 1 2 11
M TOR 3 0 1 8 3
M TOR 4 0 1 8 7
M TOR 5 0 1 8 18
M TOR 6 1 2 3 4
M TOR 7 1 2 3 8
M TOR 8 1 2 3 12
M TOR 9 1 2 7 5
M TOR 10 1 2 7 8
M TOR 11 1 2 7 17
M TOR 12 1 8 3 4
M TOR 13 1 8 3 12
M TOR 14 1 8 7 5
M TOR 15 1 8 7 17
M TOR 16 2 1 0 9
M TOR 17 2 1 8 18
M TOR 18 2 3 4 5
M TOR 19 2 3 4 13
M TOR 20 2 3 4 14
M TOR 21 2 3 8 7
M TOR 22 2 3 8 18
M TOR 23 2 7 5 4
M TOR 24 2 7 5 6
M TOR 25 2 7 5 15
M TOR 26 2 7 8 18
M TOR 27 3 2 1 10
M TOR 28 3 2 7 5
M TOR 29 3 2 7 17
M TOR 30 3 4 5 6
M TOR 31 3 4 5 7
M TOR 32 3 4 5 15
M TOR 33 3 8 1 10
M TOR 34 3 8 7 5
M TOR 35 3 8 7 17
M TOR 36 4 3 2 7
M TOR 37 4 3 2 11
M TOR 38 4 3 8 7
M TOR 39 4 3 8 18
M TOR 40 4 5 6 16
M TOR 41 4 5 7 8
M TOR 42 4 5 7 17
M TOR 43 5 4 3 8
M TOR 44 5 4 3 12
M TOR 45 5 7 2 11
M TOR 46 5 7 8 18
M TOR 47 6 5 4 13
M TOR 48 6 5 4 14
M TOR 49 6 5 7 8
M TOR 50 6 5 7 17
M TOR 51 7 2 1 10
M TOR 52 7 2 3 12
M TOR 53 7 5 4 13
M TOR 54 7 5 4 14
M TOR 55 7 5 6 16
M TOR 56 7 8 1 10
M TOR 57 7 8 3 12
M TOR 58 8 1 0 9
M TOR 59 8 1 2 11
M TOR 60 8 3 2 11
M TOR 61 8 3 4 13
M TOR 62 8 3 4 14
M TOR 63 8 7 2 11
M TOR 64 8 7 5 15
M  END
$$$$
