gdb 4784	2.0700566	1.2234136	0.8142299	2.5807	78.22	-0.25138	-0.02653	0.22485	1389.6866	0.152671	-422.533107	-422.522259	-422.521315	-422.569703	37.747
 OpenBabel02181911413D

 19 18  0  0  1  0  0  0  0  0999 V2000
   -0.3778    2.8251   -0.7416 C   0  0  0  0  0  0  0  0  0  0  0  0
   -0.9739    2.1709    0.5228 C   0  0  2  0  0  0  0  0  0  0  0  0
   -1.2943    3.1907    1.5206 C   0  0  0  0  0  0  0  0  0  0  0  0
   -1.5365    4.0520    2.3240 C   0  0  0  0  0  0  0  0  0  0  0  0
   -0.0306    1.0792    1.1107 C   0  0  1  0  0  0  0  0  0  0  0  0
   -0.5928    0.4568    2.4005 C   0  0  0  0  0  0  0  0  0  0  0  0
    0.1773   -0.6498    2.8390 O   0  0  0  0  0  0  0  0  0  0  0  0
    0.1671   -0.0317    0.0933 C   0  0  0  0  0  0  0  0  0  0  0  0
    1.2046   -0.2934   -0.4550 O   0  0  0  0  0  0  0  0  0  0  0  0
   -0.1769    2.0755   -1.5117 H   0  0  0  0  0  0  0  0  0  0  0  0
   -1.0700    3.5663   -1.1480 H   0  0  0  0  0  0  0  0  0  0  0  0
    0.5626    3.3303   -0.5041 H   0  0  0  0  0  0  0  0  0  0  0  0
   -1.9129    1.6722    0.2394 H   0  0  0  0  0  0  0  0  0  0  0  0
   -1.7643    4.8090    3.0333 H   0  0  0  0  0  0  0  0  0  0  0  0
    0.9511    1.5264    1.3080 H   0  0  0  0  0  0  0  0  0  0  0  0
   -0.6868    1.2307    3.1722 H   0  0  0  0  0  0  0  0  0  0  0  0
   -1.5976    0.0594    2.2132 H   0  0  0  0  0  0  0  0  0  0  0  0
    1.0627   -0.3364    3.0514 H   0  0  0  0  0  0  0  0  0  0  0  0
   -0.7627   -0.6104   -0.1234 H   0  0  0  0  0  0  0  0  0  0  0  0
  1 12  1  0  0  0  0
  1  2  1  0  0  0  0
  2 13  1  6  0  0  0
  2  5  1  0  0  0  0
  2  3  1  0  0  0  0
  3  4  3  0  0  0  0
  4 14  1  0  0  0  0
  5 15  1  1  0  0  0
  5  6  1  0  0  0  0
  6  7  1  0  0  0  0
  6 16  1  0  0  0  0
  7 18  1  0  0  0  0
  8  5  1  0  0  0  0
  9  8  2  0  0  0  0
 10  1  1  0  0  0  0
 11  1  1  0  0  0  0
 17  6  1  0  0  0  0
 19  8  1  0  0  0  0
M TOR 0 0 1 2 3
M TOR 1 0 1 4 5
M TOR 2 0 1 4 7
M TOR 3 0 1 4 14
M TOR 4 1 2 3 13
M TOR 5 1 4 5 6
M TOR 6 1 4 5 15
M TOR 7 1 4 5 16
M TOR 8 1 4 7 8
M TOR 9 1 4 7 18
M TOR 10 2 1 0 9
M TOR 11 2 1 0 10
M TOR 12 2 1 0 11
M TOR 13 2 1 4 5
M TOR 14 2 1 4 7
M TOR 15 2 1 4 14
M TOR 16 3 2 1 4
M TOR 17 3 2 1 12
M TOR 18 4 1 0 9
M TOR 19 4 1 0 10
M TOR 20 4 1 0 11
M TOR 21 4 5 6 17
M TOR 22 5 4 1 12
M TOR 23 5 4 7 8
M TOR 24 5 4 7 18
M TOR 25 6 5 4 7
M TOR 26 6 5 4 14
M TOR 27 7 4 1 12
M TOR 28 7 4 5 15
M TOR 29 7 4 5 16
M TOR 30 8 7 4 14
M  END
$$$$
