
     RDKit          3D

 19 21  0  0  0  0  0  0  0  0999 V2000
    0.8018   -2.7444    1.5876 C   0  0  0  0  0  0  0  0  0  0  0  0
    1.0607   -1.3020    1.8991 C   0  0  0  0  0  0  0  0  0  0  0  0
    0.5602   -0.7704    3.1342 O   0  0  0  0  0  0  0  0  0  0  0  0
    1.9691   -0.7247    2.8891 C   0  0  0  0  0  0  0  0  0  0  0  0
    2.4158    0.5489    2.1145 C   0  0  0  0  0  0  0  0  0  0  0  0
    2.7427   -0.0502    0.7200 C   0  0  0  0  0  0  0  0  0  0  0  0
    1.1875   -0.1990    0.7832 C   0  0  0  0  0  0  0  0  0  0  0  0
    0.2676   -0.2125   -0.4036 C   0  0  0  0  0  0  0  0  0  0  0  0
    1.1640    1.0295    1.5683 O   0  0  0  0  0  0  0  0  0  0  0  0
    0.9416   -3.3601    2.4795 H   0  0  0  0  0  0  0  0  0  0  0  0
   -0.2244   -2.8903    1.2324 H   0  0  0  0  0  0  0  0  0  0  0  0
    1.4791   -3.1051    0.8057 H   0  0  0  0  0  0  0  0  0  0  0  0
    2.6167   -1.2742    3.5643 H   0  0  0  0  0  0  0  0  0  0  0  0
    3.0149    1.3092    2.6134 H   0  0  0  0  0  0  0  0  0  0  0  0
    3.0608    0.7047   -0.0017 H   0  0  0  0  0  0  0  0  0  0  0  0
    3.3617   -0.9509    0.6611 H   0  0  0  0  0  0  0  0  0  0  0  0
    0.3718   -1.1471   -0.9639 H   0  0  0  0  0  0  0  0  0  0  0  0
   -0.7732   -0.1241   -0.0757 H   0  0  0  0  0  0  0  0  0  0  0  0
    0.4889    0.6208   -1.0758 H   0  0  0  0  0  0  0  0  0  0  0  0
  1  2  1  0
  2  3  1  0
  3  4  1  0
  4  5  1  0
  5  6  1  0
  6  7  1  0
  7  8  1  0
  7  9  1  0
  4  2  1  0
  9  5  1  0
  7  2  1  0
  1 10  1  0
  1 11  1  0
  1 12  1  0
  4 13  1  0
  5 14  1  0
  6 15  1  0
  6 16  1  0
  8 17  1  0
  8 18  1  0
  8 19  1  0
M  END
$$$$
