
     RDKit          3D

 19 20  0  0  0  0  0  0  0  0999 V2000
    1.0634    0.4696   -0.6385 O   0  0  0  0  0  0  0  0  0  0  0  0
    0.0222    0.4974    0.3272 C   0  0  0  0  0  0  0  0  0  0  0  0
   -1.3447    0.6390   -0.3073 C   0  0  0  0  0  0  0  0  0  0  0  0
   -1.8430    2.0144   -0.7628 C   0  0  0  0  0  0  0  0  0  0  0  0
   -3.3410    1.9437   -0.5499 C   0  0  0  0  0  0  0  0  0  0  0  0
   -3.7201    0.7962    0.0213 C   0  0  0  0  0  0  0  0  0  0  0  0
   -2.5683   -0.1262    0.2159 C   0  0  0  0  0  0  0  0  0  0  0  0
   -1.8708   -0.5395   -1.0726 C   0  0  0  0  0  0  0  0  0  0  0  0
   -1.0191   -1.6528   -1.0820 O   0  0  0  0  0  0  0  0  0  0  0  0
    0.9264   -0.3378   -1.1478 H   0  0  0  0  0  0  0  0  0  0  0  0
    0.0497   -0.3984    0.9616 H   0  0  0  0  0  0  0  0  0  0  0  0
    0.2245    1.3626    0.9681 H   0  0  0  0  0  0  0  0  0  0  0  0
   -1.3905    2.8180   -0.1642 H   0  0  0  0  0  0  0  0  0  0  0  0
   -1.5775    2.2260   -1.8058 H   0  0  0  0  0  0  0  0  0  0  0  0
   -4.0077    2.7491   -0.8366 H   0  0  0  0  0  0  0  0  0  0  0  0
   -4.7383    0.5300    0.2816 H   0  0  0  0  0  0  0  0  0  0  0  0
   -2.4999   -0.7914    1.0708 H   0  0  0  0  0  0  0  0  0  0  0  0
   -2.4104   -0.3616   -2.0037 H   0  0  0  0  0  0  0  0  0  0  0  0
   -1.5549   -2.4511   -1.1309 H   0  0  0  0  0  0  0  0  0  0  0  0
  1  2  1  0
  2  3  1  0
  3  4  1  0
  4  5  1  0
  5  6  2  0
  6  7  1  0
  7  8  1  0
  8  9  1  0
  7  3  1  0
  8  3  1  0
  1 10  1  0
  2 11  1  0
  2 12  1  0
  4 13  1  0
  4 14  1  0
  5 15  1  0
  6 16  1  0
  7 17  1  0
  8 18  1  0
  9 19  1  0
M  END
$$$$
