
     RDKit          3D

 19 20  0  0  0  0  0  0  0  0999 V2000
   -0.4225    2.3346    1.0196 C   0  0  0  0  0  0  0  0  0  0  0  0
   -0.8413    1.2361    0.0767 C   0  0  0  0  0  0  0  0  0  0  0  0
   -0.8534    1.6548   -1.3241 O   0  0  0  0  0  0  0  0  0  0  0  0
   -2.2440    1.2896   -1.4691 C   0  0  0  0  0  0  0  0  0  0  0  0
   -2.3090    0.7396   -0.0316 C   0  0  0  0  0  0  0  0  0  0  0  0
   -2.2804   -0.7963    0.1030 C   0  0  0  0  0  0  0  0  0  0  0  0
   -0.8498   -1.2190   -0.2854 C   0  0  0  0  0  0  0  0  0  0  0  0
    0.0212   -0.0417    0.1531 C   0  0  0  0  0  0  0  0  0  0  0  0
    1.1711   -0.0823    0.5049 O   0  0  0  0  0  0  0  0  0  0  0  0
   -0.5507    2.0172    2.0600 H   0  0  0  0  0  0  0  0  0  0  0  0
    0.6354    2.5664    0.8684 H   0  0  0  0  0  0  0  0  0  0  0  0
   -1.0156    3.2373    0.8505 H   0  0  0  0  0  0  0  0  0  0  0  0
   -2.8695    2.1677   -1.6697 H   0  0  0  0  0  0  0  0  0  0  0  0
   -2.3983    0.5557   -2.2707 H   0  0  0  0  0  0  0  0  0  0  0  0
   -3.0448    1.2139    0.6186 H   0  0  0  0  0  0  0  0  0  0  0  0
   -2.4771   -1.0745    1.1444 H   0  0  0  0  0  0  0  0  0  0  0  0
   -3.0495   -1.2768   -0.5090 H   0  0  0  0  0  0  0  0  0  0  0  0
   -0.5091   -2.1523    0.1656 H   0  0  0  0  0  0  0  0  0  0  0  0
   -0.7477   -1.3226   -1.3730 H   0  0  0  0  0  0  0  0  0  0  0  0
  1  2  1  0
  2  3  1  0
  3  4  1  0
  4  5  1  0
  5  6  1  0
  6  7  1  0
  7  8  1  0
  8  9  2  0
  5  2  1  0
  8  2  1  0
  1 10  1  0
  1 11  1  0
  1 12  1  0
  4 13  1  0
  4 14  1  0
  5 15  1  0
  6 16  1  0
  6 17  1  0
  7 18  1  0
  7 19  1  0
M  END
$$$$
