gdb 4803	2.8937208	0.8822207	0.7460636	2.6884	77.85	-0.26131	0.04058	0.30189	1536.4593	0.154481	-422.499081	-422.489108	-422.488164	-422.534789	35.526
 OpenBabel02181911413D

 19 19  0  0  1  0  0  0  0  0999 V2000
    2.8887   -1.1307    2.2472 O   0  0  0  0  0  0  0  0  0  0  0  0
    3.1608   -1.2427    0.8697 C   0  0  0  0  0  0  0  0  0  0  0  0
    2.5716   -0.0743    0.0445 C   0  0  1  0  0  0  0  0  0  0  0  0
    2.9234   -0.2176   -1.4536 C   0  0  0  0  0  0  0  0  0  0  0  0
    2.4946    0.9761   -2.2701 C   0  0  2  0  0  0  0  0  0  0  0  0
    3.2993    1.4880   -3.3851 C   0  0  0  0  0  0  0  0  0  0  0  0
    3.2910    2.1567   -2.1223 O   0  0  0  0  0  0  0  0  0  0  0  0
    1.1282   -0.0031    0.2670 C   0  0  0  0  0  0  0  0  0  0  0  0
   -0.0562    0.0009    0.4809 C   0  0  0  0  0  0  0  0  0  0  0  0
    1.9303   -1.0740    2.3439 H   0  0  0  0  0  0  0  0  0  0  0  0
    4.2507   -1.2348    0.7672 H   0  0  0  0  0  0  0  0  0  0  0  0
    2.7899   -2.1940    0.4545 H   0  0  0  0  0  0  0  0  0  0  0  0
    3.0268    0.8533    0.4143 H   0  0  0  0  0  0  0  0  0  0  0  0
    4.0083   -0.3402   -1.5453 H   0  0  0  0  0  0  0  0  0  0  0  0
    2.4508   -1.1225   -1.8551 H   0  0  0  0  0  0  0  0  0  0  0  0
    1.4214    1.1692   -2.2841 H   0  0  0  0  0  0  0  0  0  0  0  0
    4.2340    0.9918   -3.6446 H   0  0  0  0  0  0  0  0  0  0  0  0
    2.8175    2.0229   -4.2024 H   0  0  0  0  0  0  0  0  0  0  0  0
   -1.1033    0.0341    0.6569 H   0  0  0  0  0  0  0  0  0  0  0  0
  1 10  1  0  0  0  0
  2  1  1  0  0  0  0
  3  8  1  0  0  0  0
  3 13  1  1  0  0  0
  3  2  1  0  0  0  0
  4  3  1  0  0  0  0
  5 16  1  6  0  0  0
  5  7  1  0  0  0  0
  5  4  1  0  0  0  0
  6  5  1  0  0  0  0
  6  7  1  0  0  0  0
  8  9  3  0  0  0  0
  9 19  1  0  0  0  0
 11  2  1  0  0  0  0
 12  2  1  0  0  0  0
 14  4  1  0  0  0  0
 15  4  1  0  0  0  0
 17  6  1  0  0  0  0
 18  6  1  0  0  0  0
M TOR 0 0 1 2 3
M TOR 1 0 1 2 7
M TOR 2 0 1 2 12
M TOR 3 1 2 3 4
M TOR 4 1 2 3 13
M TOR 5 1 2 3 14
M TOR 6 1 2 7 8
M TOR 7 2 1 0 9
M TOR 8 2 3 4 5
M TOR 9 2 3 4 6
M TOR 10 2 3 4 15
M TOR 11 2 7 8 18
M TOR 12 3 2 1 10
M TOR 13 3 2 1 11
M TOR 14 3 2 7 8
M TOR 15 3 4 5 6
M TOR 16 3 4 5 16
M TOR 17 3 4 5 17
M TOR 18 4 3 2 7
M TOR 19 4 3 2 12
M TOR 20 4 6 5 16
M TOR 21 4 6 5 17
M TOR 22 5 4 3 13
M TOR 23 5 4 3 14
M TOR 24 5 6 4 15
M TOR 25 6 4 3 13
M TOR 26 6 4 3 14
M TOR 27 7 2 1 10
M TOR 28 7 2 1 11
M TOR 29 7 2 3 13
M TOR 30 7 2 3 14
M TOR 31 8 7 2 12
M  END
$$$$
