
     RDKit          3D

 19 20  0  0  0  0  0  0  0  0999 V2000
    0.7661    0.1754   -0.7684 O   0  0  0  0  0  0  0  0  0  0  0  0
    0.1851   -0.2011    0.2109 C   0  0  0  0  0  0  0  0  0  0  0  0
   -0.7837    0.4570    0.8681 O   0  0  0  0  0  0  0  0  0  0  0  0
   -1.1653    1.7203    0.3388 C   0  0  0  0  0  0  0  0  0  0  0  0
   -2.5491    1.8448   -0.2278 C   0  0  0  0  0  0  0  0  0  0  0  0
   -2.2042    2.4591    1.1196 C   0  0  0  0  0  0  0  0  0  0  0  0
   -2.1128    3.9401    1.3038 C   0  0  0  0  0  0  0  0  0  0  0  0
   -1.7871    4.5224    2.6577 C   0  0  0  0  0  0  0  0  0  0  0  0
   -3.1740    4.6774    2.0835 C   0  0  0  0  0  0  0  0  0  0  0  0
    0.3706   -1.1525    0.7329 H   0  0  0  0  0  0  0  0  0  0  0  0
   -0.3447    2.2510   -0.1278 H   0  0  0  0  0  0  0  0  0  0  0  0
   -2.6878    2.4987   -1.0825 H   0  0  0  0  0  0  0  0  0  0  0  0
   -3.1666    0.9539   -0.2279 H   0  0  0  0  0  0  0  0  0  0  0  0
   -2.5907    1.9152    1.9781 H   0  0  0  0  0  0  0  0  0  0  0  0
   -1.7016    4.4686    0.4472 H   0  0  0  0  0  0  0  0  0  0  0  0
   -1.6550    3.8326    3.4847 H   0  0  0  0  0  0  0  0  0  0  0  0
   -1.1452    5.3951    2.7026 H   0  0  0  0  0  0  0  0  0  0  0  0
   -3.9734    4.0905    2.5240 H   0  0  0  0  0  0  0  0  0  0  0  0
   -3.4835    5.6564    1.7351 H   0  0  0  0  0  0  0  0  0  0  0  0
  1  2  2  0
  2  3  1  0
  3  4  1  0
  4  5  1  0
  5  6  1  0
  6  7  1  0
  7  8  1  0
  8  9  1  0
  6  4  1  0
  9  7  1  0
  2 10  1  0
  4 11  1  0
  5 12  1  0
  5 13  1  0
  6 14  1  0
  7 15  1  0
  8 16  1  0
  8 17  1  0
  9 18  1  0
  9 19  1  0
M  END
$$$$
