gdb 3550	2.5465893	1.6159072	1.2078371	2.1729	74.68	-0.23488	-0.00875	0.22613	1059.4152	0.158562	-422.58126	-422.573407	-422.572463	-422.613576	30.821
 OpenBabel02181911413D

 19 20  0  0  1  0  0  0  0  0999 V2000
   -3.1338   -1.7556   -0.9890 O   0  0  0  0  0  0  0  0  0  0  0  0
   -2.4015   -1.0862    0.0317 C   0  0  1  0  0  0  0  0  0  0  0  0
   -0.8723   -1.2832   -0.1363 C   0  0  0  0  0  0  0  0  0  0  0  0
   -0.0353   -0.0187    0.0997 C   0  0  0  0  0  0  0  0  0  0  0  0
    1.1420   -0.0652    0.3636 O   0  0  0  0  0  0  0  0  0  0  0  0
   -0.8202    1.2680   -0.0269 C   0  0  2  0  0  0  0  0  0  0  0  0
   -1.9811    1.1887    1.0201 C   0  0  0  0  0  0  0  0  0  0  0  0
   -2.7755    0.3945   -0.0477 C   0  0  1  0  0  0  0  0  0  0  0  0
   -1.9229    1.1231   -1.1213 C   0  0  0  0  0  0  0  0  0  0  0  0
   -2.9122   -2.6916   -0.9537 H   0  0  0  0  0  0  0  0  0  0  0  0
   -2.7095   -1.4627    1.0200 H   0  0  0  0  0  0  0  0  0  0  0  0
   -0.4712   -2.0928    0.4788 H   0  0  0  0  0  0  0  0  0  0  0  0
   -0.6962   -1.5635   -1.1831 H   0  0  0  0  0  0  0  0  0  0  0  0
   -0.1542    2.1307   -0.0226 H   0  0  0  0  0  0  0  0  0  0  0  0
   -1.7758    0.7107    1.9833 H   0  0  0  0  0  0  0  0  0  0  0  0
   -2.4115    2.1770    1.1959 H   0  0  0  0  0  0  0  0  0  0  0  0
   -3.8611    0.5005   -0.0805 H   0  0  0  0  0  0  0  0  0  0  0  0
   -1.6824    0.5864   -2.0418 H   0  0  0  0  0  0  0  0  0  0  0  0
   -2.3431    2.0993   -1.3741 H   0  0  0  0  0  0  0  0  0  0  0  0
  1 10  1  0  0  0  0
  1  2  1  0  0  0  0
  2 11  1  1  0  0  0
  3  2  1  0  0  0  0
  3  4  1  0  0  0  0
  3 12  1  0  0  0  0
  4  5  2  0  0  0  0
  6 14  1  6  0  0  0
  6  4  1  0  0  0  0
  6  7  1  0  0  0  0
  7 16  1  0  0  0  0
  7 15  1  0  0  0  0
  8 17  1  6  0  0  0
  8  2  1  0  0  0  0
  8  7  1  0  0  0  0
  9  8  1  0  0  0  0
  9  6  1  0  0  0  0
 13  3  1  0  0  0  0
 18  9  1  0  0  0  0
 19  9  1  0  0  0  0
M TOR 0 0 1 2 3
M TOR 1 0 1 2 11
M TOR 2 0 1 2 12
M TOR 3 0 1 7 6
M TOR 4 0 1 7 8
M TOR 5 0 1 7 16
M TOR 6 1 2 3 4
M TOR 7 1 2 3 5
M TOR 8 1 7 6 5
M TOR 9 1 7 6 14
M TOR 10 1 7 6 15
M TOR 11 1 7 8 5
M TOR 12 1 7 8 17
M TOR 13 1 7 8 18
M TOR 14 2 1 0 9
M TOR 15 2 1 7 6
M TOR 16 2 1 7 8
M TOR 17 2 1 7 16
M TOR 18 2 3 5 6
M TOR 19 2 3 5 8
M TOR 20 2 3 5 13
M TOR 21 3 2 1 7
M TOR 22 3 2 1 10
M TOR 23 3 5 6 7
M TOR 24 3 5 6 14
M TOR 25 3 5 6 15
M TOR 26 3 5 8 7
M TOR 27 3 5 8 17
M TOR 28 3 5 8 18
M TOR 29 4 3 2 11
M TOR 30 4 3 2 12
M TOR 31 4 3 5 6
M TOR 32 4 3 5 8
M TOR 33 4 3 5 13
M TOR 34 5 3 2 11
M TOR 35 5 3 2 12
M TOR 36 5 6 7 8
M TOR 37 5 6 7 16
M TOR 38 5 8 7 16
M TOR 39 6 5 8 17
M TOR 40 6 5 8 18
M TOR 41 6 7 1 10
M TOR 42 6 7 8 17
M TOR 43 6 7 8 18
M TOR 44 7 1 0 9
M TOR 45 7 1 2 11
M TOR 46 7 1 2 12
M TOR 47 7 6 5 13
M TOR 48 7 8 5 13
M TOR 49 8 5 6 14
M TOR 50 8 5 6 15
M TOR 51 8 7 1 10
M TOR 52 8 7 6 14
M TOR 53 8 7 6 15
M  END
$$$$
