
     RDKit          3D

 19 21  0  0  0  0  0  0  0  0999 V2000
   -3.8971   -0.3294    2.0501 C   0  0  0  0  0  0  0  0  0  0  0  0
   -2.6048    0.2759    1.6090 C   0  0  0  0  0  0  0  0  0  0  0  0
   -2.1291    1.6559    1.3200 C   0  0  0  0  0  0  0  0  0  0  0  0
   -0.9532    1.5863    2.1379 O   0  0  0  0  0  0  0  0  0  0  0  0
   -1.1009    0.1243    2.0732 C   0  0  0  0  0  0  0  0  0  0  0  0
   -0.5161   -0.6013    3.2425 C   0  0  0  0  0  0  0  0  0  0  0  0
   -0.7116   -0.1462    0.5890 C   0  0  0  0  0  0  0  0  0  0  0  0
    0.5254    0.3399    0.1579 O   0  0  0  0  0  0  0  0  0  0  0  0
   -2.0054    0.5863    0.2294 C   0  0  0  0  0  0  0  0  0  0  0  0
   -4.0843   -0.1461    3.1140 H   0  0  0  0  0  0  0  0  0  0  0  0
   -4.7334    0.0980    1.4869 H   0  0  0  0  0  0  0  0  0  0  0  0
   -3.9120   -1.4130    1.8877 H   0  0  0  0  0  0  0  0  0  0  0  0
   -2.6416    2.6032    1.2156 H   0  0  0  0  0  0  0  0  0  0  0  0
   -0.6990   -1.6768    3.1556 H   0  0  0  0  0  0  0  0  0  0  0  0
    0.5670   -0.4415    3.2729 H   0  0  0  0  0  0  0  0  0  0  0  0
   -0.9448   -0.2458    4.1837 H   0  0  0  0  0  0  0  0  0  0  0  0
   -0.7666   -1.2097    0.3423 H   0  0  0  0  0  0  0  0  0  0  0  0
    0.6030    1.2162    0.5607 H   0  0  0  0  0  0  0  0  0  0  0  0
   -2.5126    0.6515   -0.7250 H   0  0  0  0  0  0  0  0  0  0  0  0
  1  2  1  0
  2  3  1  0
  3  4  1  0
  4  5  1  0
  5  6  1  0
  5  7  1  0
  7  8  1  0
  7  9  1  0
  5  2  1  0
  9  2  1  0
  9  3  1  0
  1 10  1  0
  1 11  1  0
  1 12  1  0
  3 13  1  0
  6 14  1  0
  6 15  1  0
  6 16  1  0
  7 17  1  0
  8 18  1  0
  9 19  1  0
M  END
$$$$
