
     RDKit          3D

 19 19  0  0  0  0  0  0  0  0999 V2000
   -0.4069   -0.1779   -2.4097 O   0  0  0  0  0  0  0  0  0  0  0  0
    0.0185    0.8494   -1.5207 C   0  0  0  0  0  0  0  0  0  0  0  0
   -0.2823    0.5002   -0.0441 C   0  0  0  0  0  0  0  0  0  0  0  0
   -1.7588    0.2670    0.1816 C   0  0  0  0  0  0  0  0  0  0  0  0
   -2.2820   -0.5578    1.3442 C   0  0  0  0  0  0  0  0  0  0  0  0
   -2.3716   -1.0797   -0.0654 C   0  0  0  0  0  0  0  0  0  0  0  0
   -3.5929   -1.0794   -0.7485 O   0  0  0  0  0  0  0  0  0  0  0  0
    1.4494    1.0679   -1.7238 C   0  0  0  0  0  0  0  0  0  0  0  0
    2.6283    1.2623   -1.8470 C   0  0  0  0  0  0  0  0  0  0  0  0
   -1.3624   -0.2609   -2.3103 H   0  0  0  0  0  0  0  0  0  0  0  0
   -0.5052    1.7914   -1.7591 H   0  0  0  0  0  0  0  0  0  0  0  0
    0.2914   -0.3940    0.2228 H   0  0  0  0  0  0  0  0  0  0  0  0
    0.0817    1.3179    0.5890 H   0  0  0  0  0  0  0  0  0  0  0  0
   -2.4052    1.0972   -0.0963 H   0  0  0  0  0  0  0  0  0  0  0  0
   -1.5676   -1.0178    2.0195 H   0  0  0  0  0  0  0  0  0  0  0  0
   -3.2015   -0.2194    1.8088 H   0  0  0  0  0  0  0  0  0  0  0  0
   -1.6921   -1.8864   -0.3393 H   0  0  0  0  0  0  0  0  0  0  0  0
   -4.1080   -1.8352   -0.4467 H   0  0  0  0  0  0  0  0  0  0  0  0
    3.6686    1.4348   -1.9722 H   0  0  0  0  0  0  0  0  0  0  0  0
  1  2  1  0
  2  3  1  0
  3  4  1  0
  4  5  1  0
  5  6  1  0
  6  7  1  0
  2  8  1  0
  8  9  3  0
  6  4  1  0
  1 10  1  0
  2 11  1  0
  3 12  1  0
  3 13  1  0
  4 14  1  0
  5 15  1  0
  5 16  1  0
  6 17  1  0
  7 18  1  0
  9 19  1  0
M  END
$$$$
