gdb 3765	2.5103982	1.1699188	0.9794721	2.0545	77.83	-0.25572	0.03093	0.28665	1301.5071	0.152168	-422.508415	-422.497906	-422.496962	-422.543686	38.044
 OpenBabel02181911413D

 19 19  0  0  1  0  0  0  0  0999 V2000
    3.3980    2.1252   -3.2809 C   0  0  0  0  0  0  0  0  0  0  0  0
    3.6165    1.6586   -1.8661 C   0  0  2  0  0  0  0  0  0  0  0  0
    4.5107    0.5423   -1.6869 O   0  0  0  0  0  0  0  0  0  0  0  0
    3.1333    0.3619   -1.3841 C   0  0  1  0  0  0  0  0  0  0  0  0
    2.7868    0.0862    0.0817 C   0  0  1  0  0  0  0  0  0  0  0  0
    3.3752   -1.2756    0.4954 C   0  0  0  0  0  0  0  0  0  0  0  0
    3.3652    1.1319    0.8587 O   0  0  0  0  0  0  0  0  0  0  0  0
    1.3214    0.0855    0.2253 C   0  0  0  0  0  0  0  0  0  0  0  0
    0.1270    0.0822    0.3618 C   0  0  0  0  0  0  0  0  0  0  0  0
    3.2562    1.2772   -3.9566 H   0  0  0  0  0  0  0  0  0  0  0  0
    2.5150    2.7708   -3.3380 H   0  0  0  0  0  0  0  0  0  0  0  0
    4.2593    2.7029   -3.6320 H   0  0  0  0  0  0  0  0  0  0  0  0
    3.7528    2.4352   -1.1168 H   0  0  0  0  0  0  0  0  0  0  0  0
    2.5939   -0.2876   -2.0750 H   0  0  0  0  0  0  0  0  0  0  0  0
    3.1437   -1.4876    1.5437 H   0  0  0  0  0  0  0  0  0  0  0  0
    2.9607   -2.0846   -0.1128 H   0  0  0  0  0  0  0  0  0  0  0  0
    4.4586   -1.2407    0.3618 H   0  0  0  0  0  0  0  0  0  0  0  0
    3.1055    0.9912    1.7750 H   0  0  0  0  0  0  0  0  0  0  0  0
   -0.9286    0.0862    0.4804 H   0  0  0  0  0  0  0  0  0  0  0  0
  1  2  1  0  0  0  0
  2  3  1  0  0  0  0
  2  4  1  0  0  0  0
  2 13  1  1  0  0  0
  3  4  1  0  0  0  0
  4 14  1  6  0  0  0
  4  5  1  0  0  0  0
  5  8  1  1  0  0  0
  5  6  1  0  0  0  0
  5  7  1  0  0  0  0
  6 15  1  0  0  0  0
  7 18  1  0  0  0  0
  8  9  3  0  0  0  0
  9 19  1  0  0  0  0
 10  1  1  0  0  0  0
 11  1  1  0  0  0  0
 12  1  1  0  0  0  0
 16  6  1  0  0  0  0
 17  6  1  0  0  0  0
M TOR 0 0 1 2 3
M TOR 1 0 1 3 4
M TOR 2 0 1 3 13
M TOR 3 1 2 3 4
M TOR 4 1 2 3 13
M TOR 5 1 3 4 5
M TOR 6 1 3 4 6
M TOR 7 1 3 4 7
M TOR 8 2 1 0 9
M TOR 9 2 1 0 10
M TOR 10 2 1 0 11
M TOR 11 2 3 1 12
M TOR 12 2 3 4 5
M TOR 13 2 3 4 6
M TOR 14 2 3 4 7
M TOR 15 3 1 0 9
M TOR 16 3 1 0 10
M TOR 17 3 1 0 11
M TOR 18 3 4 5 14
M TOR 19 3 4 5 15
M TOR 20 3 4 5 16
M TOR 21 3 4 6 17
M TOR 22 3 4 7 8
M TOR 23 4 3 1 12
M TOR 24 4 7 8 18
M TOR 25 5 4 3 13
M TOR 26 5 4 6 17
M TOR 27 5 4 7 8
M TOR 28 6 4 3 13
M TOR 29 6 4 5 14
M TOR 30 6 4 5 15
M TOR 31 6 4 5 16
M TOR 32 6 4 7 8
M TOR 33 7 4 3 13
M TOR 34 7 4 5 14
M TOR 35 7 4 5 15
M TOR 36 7 4 5 16
M TOR 37 7 4 6 17
M  END
$$$$
