gdb 5802	2.7036764	1.0637057	0.8327344	4.1052	80.25	-0.24626	-0.05214	0.19412000000000001	1382.0523	0.156536	-422.584355	-422.575223	-422.574279	-422.618877	32.869
 OpenBabel02181911423D

 19 19  0  0  1  0  0  0  0  0999 V2000
   -0.6913   -1.3902   -1.8715 O   0  0  0  0  0  0  0  0  0  0  0  0
   -0.2351   -0.2460   -1.1693 C   0  0  0  0  0  0  0  0  0  0  0  0
   -0.4688    0.9804   -2.0503 C   0  0  2  0  0  0  0  0  0  0  0  0
    0.0178    2.2702   -1.3272 C   0  0  0  0  0  0  0  0  0  0  0  0
   -1.2546    2.9129   -0.8477 C   0  0  0  0  0  0  0  0  0  0  0  0
   -2.3434    2.3374   -1.3782 C   0  0  0  0  0  0  0  0  0  0  0  0
   -1.9848    1.2064   -2.3135 C   0  0  0  0  0  0  0  0  0  0  0  0
   -3.7147    2.7718   -1.1042 C   0  0  0  0  0  0  0  0  0  0  0  0
   -4.7025    2.2684   -1.5931 O   0  0  0  0  0  0  0  0  0  0  0  0
   -0.6556   -2.1461   -1.2787 H   0  0  0  0  0  0  0  0  0  0  0  0
   -0.7741   -0.1189   -0.2155 H   0  0  0  0  0  0  0  0  0  0  0  0
    0.8385   -0.3266   -0.9332 H   0  0  0  0  0  0  0  0  0  0  0  0
    0.0731    0.8187   -2.9859 H   0  0  0  0  0  0  0  0  0  0  0  0
    0.7152    2.0573   -0.5065 H   0  0  0  0  0  0  0  0  0  0  0  0
    0.5548    2.9465   -2.0064 H   0  0  0  0  0  0  0  0  0  0  0  0
   -1.2730    3.7604   -0.1693 H   0  0  0  0  0  0  0  0  0  0  0  0
   -2.5710    0.3017   -2.1332 H   0  0  0  0  0  0  0  0  0  0  0  0
   -2.1837    1.4948   -3.3525 H   0  0  0  0  0  0  0  0  0  0  0  0
   -3.7962    3.6238   -0.3914 H   0  0  0  0  0  0  0  0  0  0  0  0
  1 10  1  0  0  0  0
  1  2  1  0  0  0  0
  2 12  1  0  0  0  0
  2 11  1  0  0  0  0
  3 13  1  6  0  0  0
  3  4  1  0  0  0  0
  3  2  1  0  0  0  0
  4  5  1  0  0  0  0
  4 14  1  0  0  0  0
  5 16  1  0  0  0  0
  6  8  1  0  0  0  0
  6  5  2  0  0  0  0
  7 17  1  0  0  0  0
  7  3  1  0  0  0  0
  7  6  1  0  0  0  0
  8 19  1  0  0  0  0
  9  8  2  0  0  0  0
 15  4  1  0  0  0  0
 18  7  1  0  0  0  0
M TOR 0 0 1 2 3
M TOR 1 0 1 2 6
M TOR 2 0 1 2 12
M TOR 3 1 2 3 4
M TOR 4 1 2 3 13
M TOR 5 1 2 3 14
M TOR 6 1 2 6 5
M TOR 7 1 2 6 16
M TOR 8 1 2 6 17
M TOR 9 2 1 0 9
M TOR 10 2 3 4 5
M TOR 11 2 3 4 15
M TOR 12 2 6 5 4
M TOR 13 2 6 5 7
M TOR 14 3 2 1 10
M TOR 15 3 2 1 11
M TOR 16 3 2 6 5
M TOR 17 3 2 6 16
M TOR 18 3 2 6 17
M TOR 19 3 4 5 6
M TOR 20 3 4 5 7
M TOR 21 4 3 2 6
M TOR 22 4 3 2 12
M TOR 23 4 5 6 16
M TOR 24 4 5 6 17
M TOR 25 4 5 7 8
M TOR 26 4 5 7 18
M TOR 27 5 4 3 13
M TOR 28 5 4 3 14
M TOR 29 5 6 2 12
M TOR 30 6 2 1 10
M TOR 31 6 2 1 11
M TOR 32 6 2 3 13
M TOR 33 6 2 3 14
M TOR 34 6 5 4 15
M TOR 35 6 5 7 8
M TOR 36 6 5 7 18
M TOR 37 7 5 4 15
M TOR 38 7 5 6 16
M TOR 39 7 5 6 17
M  END
$$$$
