
     RDKit          3D

 19 21  0  0  0  0  0  0  0  0999 V2000
    1.4028    0.1989    4.1906 C   0  0  0  0  0  0  0  0  0  0  0  0
    0.9732    1.5589    4.2577 O   0  0  0  0  0  0  0  0  0  0  0  0
    0.4160    0.7206    3.2361 C   0  0  0  0  0  0  0  0  0  0  0  0
    0.7742    1.0689    1.8208 C   0  0  0  0  0  0  0  0  0  0  0  0
   -0.0199    2.2167    1.1081 C   0  0  0  0  0  0  0  0  0  0  0  0
   -0.3516    1.2639   -0.0759 C   0  0  0  0  0  0  0  0  0  0  0  0
   -1.6487    0.4665    0.1120 C   0  0  0  0  0  0  0  0  0  0  0  0
   -0.9847   -0.4955    0.9694 O   0  0  0  0  0  0  0  0  0  0  0  0
    0.3090    0.0945    0.7084 C   0  0  0  0  0  0  0  0  0  0  0  0
    2.4340    0.0496    3.8713 H   0  0  0  0  0  0  0  0  0  0  0  0
    1.0771   -0.4380    5.0120 H   0  0  0  0  0  0  0  0  0  0  0  0
   -0.6290    0.4583    3.3957 H   0  0  0  0  0  0  0  0  0  0  0  0
    1.8527    1.2442    1.7517 H   0  0  0  0  0  0  0  0  0  0  0  0
   -0.8970    2.5776    1.6534 H   0  0  0  0  0  0  0  0  0  0  0  0
    0.5954    3.0783    0.8439 H   0  0  0  0  0  0  0  0  0  0  0  0
   -0.0718    1.5754   -1.0807 H   0  0  0  0  0  0  0  0  0  0  0  0
   -2.4772    0.9766    0.6189 H   0  0  0  0  0  0  0  0  0  0  0  0
   -2.0272   -0.0157   -0.7989 H   0  0  0  0  0  0  0  0  0  0  0  0
    1.0205   -0.6350    0.3110 H   0  0  0  0  0  0  0  0  0  0  0  0
  1  2  1  0
  2  3  1  0
  3  4  1  0
  4  5  1  0
  5  6  1  0
  6  7  1  0
  7  8  1  0
  8  9  1  0
  3  1  1  0
  9  4  1  0
  9  6  1  0
  1 10  1  0
  1 11  1  0
  3 12  1  0
  4 13  1  0
  5 14  1  0
  5 15  1  0
  6 16  1  0
  7 17  1  0
  7 18  1  0
  9 19  1  0
M  END
$$$$
