gdb 5276	2.7718055	1.5879229	1.3043668	1.0772	74.29	-0.24124	0.07175	0.31299	1043.3006	0.156032	-422.479538	-422.471388	-422.470444	-422.51203	31.28
 OpenBabel02181911423D

 19 21  0  0  1  0  0  0  0  0999 V2000
    1.5209   -0.0417    0.0608 C   0  0  0  0  0  0  0  0  0  0  0  0
    0.1079    0.0522    0.0796 O   0  0  0  0  0  0  0  0  0  0  0  0
   -0.3955    0.6558    1.2276 C   0  0  2  0  0  0  0  0  0  0  0  0
   -0.3168   -0.0910    2.5956 C   0  0  0  0  0  0  0  0  0  0  0  0
   -1.8643    0.0604    2.7530 C   0  0  0  0  0  0  0  0  0  0  0  0
   -1.9385    0.7900    1.3794 C   0  0  1  0  0  0  0  0  0  0  0  0
   -1.7598    2.3278    1.3995 C   0  0  1  0  0  0  0  0  0  0  0  0
   -0.8846    2.6645    2.4887 O   0  0  0  0  0  0  0  0  0  0  0  0
   -0.2978    2.2181    1.2639 C   0  0  1  0  0  0  0  0  0  0  0  0
    1.8991   -0.6548    0.8908 H   0  0  0  0  0  0  0  0  0  0  0  0
    1.7965   -0.5158   -0.8836 H   0  0  0  0  0  0  0  0  0  0  0  0
    2.0005    0.9462    0.1148 H   0  0  0  0  0  0  0  0  0  0  0  0
    0.0038   -1.1278    2.4659 H   0  0  0  0  0  0  0  0  0  0  0  0
    0.2874    0.3848    3.3695 H   0  0  0  0  0  0  0  0  0  0  0  0
   -2.4011   -0.8901    2.7675 H   0  0  0  0  0  0  0  0  0  0  0  0
   -2.1795    0.6637    3.6049 H   0  0  0  0  0  0  0  0  0  0  0  0
   -2.5949    0.4036    0.6008 H   0  0  0  0  0  0  0  0  0  0  0  0
   -2.4499    3.0999    1.0779 H   0  0  0  0  0  0  0  0  0  0  0  0
    0.4303    2.8679    0.7897 H   0  0  0  0  0  0  0  0  0  0  0  0
  1  2  1  0  0  0  0
  1 12  1  0  0  0  0
  1 10  1  0  0  0  0
  3  2  1  6  0  0  0
  3  9  1  0  0  0  0
  3  6  1  0  0  0  0
  3  4  1  0  0  0  0
  4  5  1  0  0  0  0
  4 14  1  0  0  0  0
  5 15  1  0  0  0  0
  5 16  1  0  0  0  0
  6 17  1  6  0  0  0
  6  7  1  0  0  0  0
  6  5  1  0  0  0  0
  7 18  1  6  0  0  0
  7  8  1  0  0  0  0
  9 19  1  6  0  0  0
  9  7  1  0  0  0  0
  9  8  1  0  0  0  0
 11  1  1  0  0  0  0
 13  4  1  0  0  0  0
M TOR 0 0 1 2 3
M TOR 1 0 1 2 5
M TOR 2 0 1 2 8
M TOR 3 1 2 3 4
M TOR 4 1 2 3 12
M TOR 5 1 2 3 13
M TOR 6 1 2 5 4
M TOR 7 1 2 5 6
M TOR 8 1 2 5 16
M TOR 9 1 2 8 6
M TOR 10 1 2 8 7
M TOR 11 1 2 8 18
M TOR 12 2 1 0 9
M TOR 13 2 1 0 10
M TOR 14 2 1 0 11
M TOR 15 2 3 4 5
M TOR 16 2 3 4 14
M TOR 17 2 3 4 15
M TOR 18 2 5 4 14
M TOR 19 2 5 4 15
M TOR 20 2 5 6 7
M TOR 21 2 5 6 8
M TOR 22 2 5 6 17
M TOR 23 2 8 6 7
M TOR 24 2 8 6 17
M TOR 25 3 2 5 6
M TOR 26 3 2 5 16
M TOR 27 3 2 8 6
M TOR 28 3 2 8 7
M TOR 29 3 2 8 18
M TOR 30 3 4 5 6
M TOR 31 3 4 5 16
M TOR 32 4 3 2 8
M TOR 33 4 5 2 8
M TOR 34 4 5 6 7
M TOR 35 4 5 6 8
M TOR 36 4 5 6 17
M TOR 37 5 2 3 12
M TOR 38 5 2 3 13
M TOR 39 5 2 8 7
M TOR 40 5 2 8 18
M TOR 41 5 4 3 12
M TOR 42 5 4 3 13
M TOR 43 5 6 7 8
M TOR 44 5 6 8 18
M TOR 45 6 5 4 14
M TOR 46 6 5 4 15
M TOR 47 6 7 8 18
M TOR 48 7 6 5 16
M TOR 49 7 8 6 17
M TOR 50 8 2 3 12
M TOR 51 8 2 3 13
M TOR 52 8 2 5 16
M TOR 53 8 6 5 16
M  END
$$$$
