
     RDKit          3D

 19 20  0  0  0  0  0  0  0  0999 V2000
   -3.7251   -1.2056   -0.0391 C   0  0  0  0  0  0  0  0  0  0  0  0
   -2.3703   -0.5399   -0.0179 C   0  0  0  0  0  0  0  0  0  0  0  0
   -1.9820    0.5418    1.0391 C   0  0  0  0  0  0  0  0  0  0  0  0
   -0.8706    0.9188   -0.0072 C   0  0  0  0  0  0  0  0  0  0  0  0
   -1.9192    0.5036   -1.0886 C   0  0  0  0  0  0  0  0  0  0  0  0
   -0.0494   -0.3459    0.0878 C   0  0  0  0  0  0  0  0  0  0  0  0
    1.1226   -0.5172    0.3032 O   0  0  0  0  0  0  0  0  0  0  0  0
   -1.1299   -1.4539    0.0028 C   0  0  0  0  0  0  0  0  0  0  0  0
   -1.0830   -2.3049    1.1276 O   0  0  0  0  0  0  0  0  0  0  0  0
   -3.8479   -1.8520    0.8355 H   0  0  0  0  0  0  0  0  0  0  0  0
   -4.5313   -0.4647   -0.0347 H   0  0  0  0  0  0  0  0  0  0  0  0
   -3.8440   -1.8287   -0.9328 H   0  0  0  0  0  0  0  0  0  0  0  0
   -2.7331    1.3311    1.1205 H   0  0  0  0  0  0  0  0  0  0  0  0
   -1.6706    0.2017    2.0288 H   0  0  0  0  0  0  0  0  0  0  0  0
   -0.3451    1.8710   -0.0035 H   0  0  0  0  0  0  0  0  0  0  0  0
   -2.6709    1.2816   -1.2399 H   0  0  0  0  0  0  0  0  0  0  0  0
   -1.5541    0.1407   -2.0545 H   0  0  0  0  0  0  0  0  0  0  0  0
   -1.0406   -2.0282   -0.9339 H   0  0  0  0  0  0  0  0  0  0  0  0
   -0.1496   -2.4664    1.3150 H   0  0  0  0  0  0  0  0  0  0  0  0
  1  2  1  0
  2  3  1  0
  3  4  1  0
  4  5  1  0
  4  6  1  0
  6  7  2  0
  6  8  1  0
  8  9  1  0
  5  2  1  0
  8  2  1  0
  1 10  1  0
  1 11  1  0
  1 12  1  0
  3 13  1  0
  3 14  1  0
  4 15  1  0
  5 16  1  0
  5 17  1  0
  8 18  1  0
  9 19  1  0
M  END
$$$$
