gdb 114	3.4019177	1.1035073	1.0931577	1.8809	75.62	-0.24761	0.05117	0.29878	1196.0841	0.156558	-422.480389	-422.472061	-422.471117	-422.513928	30.488
 OpenBabel02181911403D

 19 21  0  0  0  0  0  0  0  0999 V2000
   -1.2774    2.0065   -1.1336 C   0  0  0  0  0  0  0  0  0  0  0  0
   -1.4724    2.0762    0.3534 C   0  0  0  0  0  0  0  0  0  0  0  0
   -1.4732    3.2905    1.2783 C   0  0  0  0  0  0  0  0  0  0  0  0
   -2.5408    2.7156    2.0627 O   0  0  0  0  0  0  0  0  0  0  0  0
   -2.6237    1.5539    1.2088 C   0  0  0  0  0  0  0  0  0  0  0  0
   -0.3103    1.3287   -0.2065 C   0  0  0  0  0  0  0  0  0  0  0  0
    1.1805    1.5835   -0.0003 C   0  0  0  0  0  0  0  0  0  0  0  0
    1.4201    0.1678    0.1542 O   0  0  0  0  0  0  0  0  0  0  0  0
    0.0300   -0.1530   -0.0699 C   0  0  0  0  0  0  0  0  0  0  0  0
   -1.9561    1.3832   -1.7101 H   0  0  0  0  0  0  0  0  0  0  0  0
   -0.9479    2.9050   -1.6492 H   0  0  0  0  0  0  0  0  0  0  0  0
   -0.5641    3.4472    1.8744 H   0  0  0  0  0  0  0  0  0  0  0  0
   -1.7683    4.2421    0.8163 H   0  0  0  0  0  0  0  0  0  0  0  0
   -2.4346    0.6238    1.7614 H   0  0  0  0  0  0  0  0  0  0  0  0
   -3.5972    1.4814    0.7058 H   0  0  0  0  0  0  0  0  0  0  0  0
    1.7172    2.0001   -0.8631 H   0  0  0  0  0  0  0  0  0  0  0  0
    1.4564    2.1475    0.9009 H   0  0  0  0  0  0  0  0  0  0  0  0
   -0.1118   -0.7605   -0.9736 H   0  0  0  0  0  0  0  0  0  0  0  0
   -0.4142   -0.6759    0.7879 H   0  0  0  0  0  0  0  0  0  0  0  0
  1  6  1  0  0  0  0
  1  2  1  0  0  0  0
  2  5  1  0  0  0  0
  2  3  1  0  0  0  0
  3 12  1  0  0  0  0
  3  4  1  0  0  0  0
  5 14  1  0  0  0  0
  5  4  1  0  0  0  0
  6  9  1  0  0  0  0
  6  7  1  0  0  0  0
  6  2  1  0  0  0  0
  7  8  1  0  0  0  0
  7 17  1  0  0  0  0
  9  8  1  0  0  0  0
  9 19  1  0  0  0  0
 10  1  1  0  0  0  0
 11  1  1  0  0  0  0
 13  3  1  0  0  0  0
 15  5  1  0  0  0  0
 16  7  1  0  0  0  0
 18  9  1  0  0  0  0
M TOR 0 0 1 2 3
M TOR 1 0 1 2 11
M TOR 2 0 1 2 12
M TOR 3 0 1 4 3
M TOR 4 0 1 4 13
M TOR 5 0 1 4 14
M TOR 6 0 1 5 6
M TOR 7 0 1 5 8
M TOR 8 0 5 1 2
M TOR 9 0 5 1 4
M TOR 10 0 5 6 7
M TOR 11 0 5 6 15
M TOR 12 0 5 6 16
M TOR 13 0 5 8 7
M TOR 14 0 5 8 17
M TOR 15 0 5 8 18
M TOR 16 1 2 3 4
M TOR 17 1 5 0 9
M TOR 18 1 5 0 10
M TOR 19 1 5 6 7
M TOR 20 1 5 6 15
M TOR 21 1 5 6 16
M TOR 22 1 5 8 7
M TOR 23 1 5 8 17
M TOR 24 1 5 8 18
M TOR 25 2 1 0 9
M TOR 26 2 1 0 10
M TOR 27 2 1 4 13
M TOR 28 2 1 4 14
M TOR 29 2 1 5 6
M TOR 30 2 1 5 8
M TOR 31 2 3 4 13
M TOR 32 2 3 4 14
M TOR 33 3 2 1 5
M TOR 34 3 4 1 5
M TOR 35 4 1 0 9
M TOR 36 4 1 0 10
M TOR 37 4 1 2 11
M TOR 38 4 1 2 12
M TOR 39 4 1 5 6
M TOR 40 4 1 5 8
M TOR 41 4 3 2 11
M TOR 42 4 3 2 12
M TOR 43 5 1 2 11
M TOR 44 5 1 2 12
M TOR 45 5 1 4 13
M TOR 46 5 1 4 14
M TOR 47 5 6 7 8
M TOR 48 6 5 0 9
M TOR 49 6 5 0 10
M TOR 50 6 5 8 17
M TOR 51 6 5 8 18
M TOR 52 6 7 8 17
M TOR 53 6 7 8 18
M TOR 54 8 5 0 9
M TOR 55 8 5 0 10
M TOR 56 8 5 6 15
M TOR 57 8 5 6 16
M TOR 58 8 7 6 15
M TOR 59 8 7 6 16
M  END
$$$$
