
     RDKit          3D

 19 20  0  0  0  0  0  0  0  0999 V2000
    1.0669   -2.7205   -0.3738 C   0  0  0  0  0  0  0  0  0  0  0  0
    0.7447   -1.4778   -1.1716 C   0  0  0  0  0  0  0  0  0  0  0  0
    1.9470   -0.9036   -1.7790 O   0  0  0  0  0  0  0  0  0  0  0  0
    1.4514   -1.1504   -3.1159 C   0  0  0  0  0  0  0  0  0  0  0  0
    0.0736   -1.5869   -2.5685 C   0  0  0  0  0  0  0  0  0  0  0  0
   -0.9727   -0.5060   -2.5554 C   0  0  0  0  0  0  0  0  0  0  0  0
   -1.0076    0.1565   -1.3995 C   0  0  0  0  0  0  0  0  0  0  0  0
   -0.0127   -0.3672   -0.3827 C   0  0  0  0  0  0  0  0  0  0  0  0
    0.8748    0.6112    0.1209 O   0  0  0  0  0  0  0  0  0  0  0  0
    1.6822   -2.4550    0.4923 H   0  0  0  0  0  0  0  0  0  0  0  0
    0.1475   -3.1909   -0.0087 H   0  0  0  0  0  0  0  0  0  0  0  0
    1.6162   -3.4495   -0.9767 H   0  0  0  0  0  0  0  0  0  0  0  0
    1.4675   -0.2471   -3.7350 H   0  0  0  0  0  0  0  0  0  0  0  0
    2.0266   -1.9434   -3.6092 H   0  0  0  0  0  0  0  0  0  0  0  0
   -0.2838   -2.5662   -2.8948 H   0  0  0  0  0  0  0  0  0  0  0  0
   -1.5938   -0.2926   -3.4194 H   0  0  0  0  0  0  0  0  0  0  0  0
   -1.6574    0.9939   -1.1703 H   0  0  0  0  0  0  0  0  0  0  0  0
   -0.5249   -0.7860    0.4935 H   0  0  0  0  0  0  0  0  0  0  0  0
    1.5652    0.6927   -0.5542 H   0  0  0  0  0  0  0  0  0  0  0  0
  1  2  1  0
  2  3  1  0
  3  4  1  0
  4  5  1  0
  5  6  1  0
  6  7  2  0
  7  8  1  0
  8  9  1  0
  5  2  1  0
  8  2  1  0
  1 10  1  0
  1 11  1  0
  1 12  1  0
  4 13  1  0
  4 14  1  0
  5 15  1  0
  6 16  1  0
  7 17  1  0
  8 18  1  0
  9 19  1  0
M  END
$$$$
