gdb 3782	5.3947346	0.8098004	0.7581716	3.0929	77.04	-0.23367	0.07268	0.30635	1525.1146	0.155704	-422.48523	-422.476654	-422.475709	-422.51898	31.615
 OpenBabel02181911413D

 19 21  0  0  1  0  0  0  0  0999 V2000
    2.4660   -1.6427    4.3171 C   0  0  0  0  0  0  0  0  0  0  0  0
    1.3155   -1.2487    3.4277 C   0  0  2  0  0  0  0  0  0  0  0  0
    0.6549   -2.3058    2.7203 O   0  0  0  0  0  0  0  0  0  0  0  0
    1.3769   -1.3260    1.9610 C   0  0  1  0  0  0  0  0  0  0  0  0
    0.5722   -0.4411    1.0713 C   0  0  1  0  0  0  0  0  0  0  0  0
    1.3571    0.4106    0.0839 C   0  0  2  0  0  0  0  0  0  0  0  0
    0.3796    1.2364   -0.7441 C   0  0  0  0  0  0  0  0  0  0  0  0
   -0.3939    0.0523   -1.0851 O   0  0  0  0  0  0  0  0  0  0  0  0
    0.5470   -0.7700   -0.3946 C   0  0  2  0  0  0  0  0  0  0  0  0
    2.0987   -2.1097    5.2369 H   0  0  0  0  0  0  0  0  0  0  0  0
    3.1213   -2.3564    3.8105 H   0  0  0  0  0  0  0  0  0  0  0  0
    3.0548   -0.7629    4.5985 H   0  0  0  0  0  0  0  0  0  0  0  0
    0.6271   -0.5151    3.8530 H   0  0  0  0  0  0  0  0  0  0  0  0
    2.3022   -1.7061    1.5204 H   0  0  0  0  0  0  0  0  0  0  0  0
   -0.3384   -0.0424    1.5139 H   0  0  0  0  0  0  0  0  0  0  0  0
    2.4262    0.5614    0.1524 H   0  0  0  0  0  0  0  0  0  0  0  0
   -0.2206    1.9930   -0.2250 H   0  0  0  0  0  0  0  0  0  0  0  0
    0.8280    1.6708   -1.6446 H   0  0  0  0  0  0  0  0  0  0  0  0
    0.8085   -1.7294   -0.8266 H   0  0  0  0  0  0  0  0  0  0  0  0
  1 12  1  0  0  0  0
  1 10  1  0  0  0  0
  2 13  1  1  0  0  0
  2  1  1  0  0  0  0
  3  2  1  0  0  0  0
  4 14  1  6  0  0  0
  4  3  1  0  0  0  0
  4  2  1  0  0  0  0
  5 15  1  1  0  0  0
  5  4  1  0  0  0  0
  6 16  1  6  0  0  0
  6  5  1  0  0  0  0
  7 17  1  0  0  0  0
  7  6  1  0  0  0  0
  8  7  1  0  0  0  0
  8  9  1  0  0  0  0
  9 19  1  6  0  0  0
  9  6  1  0  0  0  0
  9  5  1  0  0  0  0
 11  1  1  0  0  0  0
 18  7  1  0  0  0  0
M TOR 0 0 1 2 3
M TOR 1 0 1 3 4
M TOR 2 0 1 3 13
M TOR 3 1 2 3 4
M TOR 4 1 2 3 13
M TOR 5 1 3 4 5
M TOR 6 1 3 4 8
M TOR 7 1 3 4 14
M TOR 8 2 1 0 9
M TOR 9 2 1 0 10
M TOR 10 2 1 0 11
M TOR 11 2 3 1 12
M TOR 12 2 3 4 5
M TOR 13 2 3 4 8
M TOR 14 2 3 4 14
M TOR 15 3 1 0 9
M TOR 16 3 1 0 10
M TOR 17 3 1 0 11
M TOR 18 3 4 5 6
M TOR 19 3 4 5 8
M TOR 20 3 4 5 15
M TOR 21 3 4 8 7
M TOR 22 3 4 8 18
M TOR 23 4 3 1 12
M TOR 24 4 5 6 7
M TOR 25 4 5 6 16
M TOR 26 4 5 6 17
M TOR 27 4 5 8 7
M TOR 28 4 5 8 18
M TOR 29 4 8 5 6
M TOR 30 4 8 5 15
M TOR 31 4 8 7 6
M TOR 32 5 4 3 13
M TOR 33 5 6 7 8
M TOR 34 5 8 4 14
M TOR 35 6 5 4 14
M TOR 36 6 5 8 18
M TOR 37 6 7 8 18
M TOR 38 7 6 5 15
M TOR 39 7 8 4 14
M TOR 40 7 8 5 15
M TOR 41 8 4 3 13
M TOR 42 8 5 6 16
M TOR 43 8 5 6 17
M TOR 44 8 7 6 16
M TOR 45 8 7 6 17
M  END
$$$$
