gdb 4171	2.3737951	1.596048	1.2275394	2.7453	75.97	-0.23776	-0.02863	0.20913	1079.3642	0.15714	-422.547043	-422.538942	-422.537998	-422.579835	30.876
 OpenBabel02181911413D

 19 20  0  0  1  0  0  0  0  0999 V2000
   -0.0985   -0.1995    0.0874 C   0  0  0  0  0  0  0  0  0  0  0  0
    1.4090   -0.0107    0.0878 C   0  0  2  0  0  0  0  0  0  0  0  0
    2.0418   -0.6361   -1.0646 O   0  0  0  0  0  0  0  0  0  0  0  0
    3.1246   -1.3665   -0.4617 C   0  0  1  0  0  0  0  0  0  0  0  0
    3.6706   -0.4108    0.6219 C   0  0  0  0  0  0  0  0  0  0  0  0
    2.2416   -0.6583    1.2054 C   0  0  2  0  0  0  0  0  0  0  0  0
    2.4271   -2.1456    0.6873 C   0  0  1  0  0  0  0  0  0  0  0  0
    1.2892   -3.0744    0.3629 C   0  0  0  0  0  0  0  0  0  0  0  0
    0.8952   -3.9347    1.1135 O   0  0  0  0  0  0  0  0  0  0  0  0
   -0.5500    0.4206    0.8688 H   0  0  0  0  0  0  0  0  0  0  0  0
   -0.5096    0.1174   -0.8757 H   0  0  0  0  0  0  0  0  0  0  0  0
   -0.4004   -1.2347    0.2608 H   0  0  0  0  0  0  0  0  0  0  0  0
    1.6197    1.0673    0.0499 H   0  0  0  0  0  0  0  0  0  0  0  0
    3.7287   -1.8352   -1.2368 H   0  0  0  0  0  0  0  0  0  0  0  0
    4.4672   -0.8471    1.2254 H   0  0  0  0  0  0  0  0  0  0  0  0
    3.9239    0.6052    0.3103 H   0  0  0  0  0  0  0  0  0  0  0  0
    1.9728   -0.4437    2.2383 H   0  0  0  0  0  0  0  0  0  0  0  0
    3.1246   -2.6656    1.3473 H   0  0  0  0  0  0  0  0  0  0  0  0
    0.8460   -2.9447   -0.6465 H   0  0  0  0  0  0  0  0  0  0  0  0
  1  2  1  0  0  0  0
  1 12  1  0  0  0  0
  1 10  1  0  0  0  0
  2 13  1  6  0  0  0
  2  6  1  0  0  0  0
  3  4  1  0  0  0  0
  3  2  1  0  0  0  0
  4 14  1  6  0  0  0
  4  5  1  0  0  0  0
  4  7  1  0  0  0  0
  5  6  1  0  0  0  0
  5 15  1  0  0  0  0
  6 17  1  1  0  0  0
  7  6  1  0  0  0  0
  7 18  1  1  0  0  0
  8  7  1  0  0  0  0
  8  9  2  0  0  0  0
 11  1  1  0  0  0  0
 16  5  1  0  0  0  0
 19  8  1  0  0  0  0
M TOR 0 0 1 2 3
M TOR 1 0 1 5 4
M TOR 2 0 1 5 6
M TOR 3 0 1 5 16
M TOR 4 1 2 3 4
M TOR 5 1 2 3 6
M TOR 6 1 2 3 13
M TOR 7 1 5 4 3
M TOR 8 1 5 4 14
M TOR 9 1 5 4 15
M TOR 10 1 5 6 3
M TOR 11 1 5 6 7
M TOR 12 1 5 6 17
M TOR 13 2 1 0 9
M TOR 14 2 1 0 10
M TOR 15 2 1 0 11
M TOR 16 2 1 5 4
M TOR 17 2 1 5 6
M TOR 18 2 1 5 16
M TOR 19 2 3 4 5
M TOR 20 2 3 4 14
M TOR 21 2 3 4 15
M TOR 22 2 3 6 5
M TOR 23 2 3 6 7
M TOR 24 2 3 6 17
M TOR 25 3 2 1 5
M TOR 26 3 2 1 12
M TOR 27 3 4 5 6
M TOR 28 3 4 5 16
M TOR 29 3 6 5 16
M TOR 30 3 6 7 8
M TOR 31 3 6 7 18
M TOR 32 4 3 6 7
M TOR 33 4 3 6 17
M TOR 34 4 5 1 12
M TOR 35 4 5 6 7
M TOR 36 4 5 6 17
M TOR 37 5 1 0 9
M TOR 38 5 1 0 10
M TOR 39 5 1 0 11
M TOR 40 5 4 3 13
M TOR 41 5 6 3 13
M TOR 42 5 6 7 8
M TOR 43 5 6 7 18
M TOR 44 6 3 4 14
M TOR 45 6 3 4 15
M TOR 46 6 5 1 12
M TOR 47 6 5 4 14
M TOR 48 6 5 4 15
M TOR 49 7 6 3 13
M TOR 50 7 6 5 16
M TOR 51 8 7 6 17
M  END
$$$$
