
     RDKit          3D

 19 19  0  0  0  0  0  0  0  0999 V2000
   -1.6367   -1.1445    1.1897 O   0  0  0  0  0  0  0  0  0  0  0  0
   -0.7777   -1.3470    0.0675 C   0  0  0  0  0  0  0  0  0  0  0  0
   -1.5456   -1.6629   -1.2033 C   0  0  0  0  0  0  0  0  0  0  0  0
   -2.4807   -0.8686   -1.7303 C   0  0  0  0  0  0  0  0  0  0  0  0
   -2.9006    0.4864   -1.1997 C   0  0  0  0  0  0  0  0  0  0  0  0
   -1.7541    1.5144   -1.1188 C   0  0  0  0  0  0  0  0  0  0  0  0
   -0.7094    1.2542   -0.0093 C   0  0  0  0  0  0  0  0  0  0  0  0
    0.0344   -0.0612   -0.1602 C   0  0  0  0  0  0  0  0  0  0  0  0
    1.1983   -0.1271   -0.4787 O   0  0  0  0  0  0  0  0  0  0  0  0
   -2.3199   -1.8220    1.1544 H   0  0  0  0  0  0  0  0  0  0  0  0
   -0.0512   -2.1430    0.2709 H   0  0  0  0  0  0  0  0  0  0  0  0
   -1.2952   -2.5971   -1.6975 H   0  0  0  0  0  0  0  0  0  0  0  0
   -2.9831   -1.2097   -2.6329 H   0  0  0  0  0  0  0  0  0  0  0  0
   -3.6833    0.8910   -1.8487 H   0  0  0  0  0  0  0  0  0  0  0  0
   -3.3445    0.3728   -0.2035 H   0  0  0  0  0  0  0  0  0  0  0  0
   -1.2461    1.5682   -2.0889 H   0  0  0  0  0  0  0  0  0  0  0  0
   -2.1874    2.5046   -0.9368 H   0  0  0  0  0  0  0  0  0  0  0  0
    0.0410    2.0489   -0.0186 H   0  0  0  0  0  0  0  0  0  0  0  0
   -1.2149    1.2549    0.9619 H   0  0  0  0  0  0  0  0  0  0  0  0
  1  2  1  0
  2  3  1  0
  3  4  2  0
  4  5  1  0
  5  6  1  0
  6  7  1  0
  7  8  1  0
  8  9  2  0
  8  2  1  0
  1 10  1  0
  2 11  1  0
  3 12  1  0
  4 13  1  0
  5 14  1  0
  5 15  1  0
  6 16  1  0
  6 17  1  0
  7 18  1  0
  7 19  1  0
M  END
$$$$
