gdb 6069	1.8292361	0.9527644	0.6364332	3.2737	83.47	-0.25406	-0.04897	0.20509	1766.7042	0.152437	-422.527953	-422.516572	-422.515628	-422.568218	36.731
 OpenBabel02181911423D

 19 18  0  0  0  0  0  0  0  0999 V2000
   -2.6846   -4.3821   -1.4582 C   0  0  0  0  0  0  0  0  0  0  0  0
   -3.5852   -3.3031   -0.8828 C   0  0  0  0  0  0  0  0  0  0  0  0
   -2.7934   -2.1691   -0.5816 O   0  0  0  0  0  0  0  0  0  0  0  0
   -3.5302   -1.1085   -0.0419 C   0  0  0  0  0  0  0  0  0  0  0  0
   -2.6411    0.0939    0.2703 C   0  0  0  0  0  0  0  0  0  0  0  0
   -3.1303    1.0982    0.7439 O   0  0  0  0  0  0  0  0  0  0  0  0
   -1.2327   -0.0249   -0.0189 C   0  0  0  0  0  0  0  0  0  0  0  0
   -0.0476   -0.0722   -0.2422 C   0  0  0  0  0  0  0  0  0  0  0  0
    1.3775   -0.1343   -0.5110 C   0  0  0  0  0  0  0  0  0  0  0  0
   -3.2685   -5.2746   -1.7018 H   0  0  0  0  0  0  0  0  0  0  0  0
   -2.1951   -4.0270   -2.3694 H   0  0  0  0  0  0  0  0  0  0  0  0
   -1.9098   -4.6589   -0.7378 H   0  0  0  0  0  0  0  0  0  0  0  0
   -4.3759   -3.0311   -1.6023 H   0  0  0  0  0  0  0  0  0  0  0  0
   -4.0909   -3.6632    0.0291 H   0  0  0  0  0  0  0  0  0  0  0  0
   -4.3185   -0.7610   -0.7312 H   0  0  0  0  0  0  0  0  0  0  0  0
   -4.0356   -1.3929    0.8967 H   0  0  0  0  0  0  0  0  0  0  0  0
    1.9470   -0.1143    0.4248 H   0  0  0  0  0  0  0  0  0  0  0  0
    1.6445   -1.0484   -1.0512 H   0  0  0  0  0  0  0  0  0  0  0  0
    1.6990    0.7245   -1.1101 H   0  0  0  0  0  0  0  0  0  0  0  0
  1  2  1  0  0  0  0
  1 12  1  0  0  0  0
  2  3  1  0  0  0  0
  2 14  1  0  0  0  0
  3  4  1  0  0  0  0
  4  5  1  0  0  0  0
  4 16  1  0  0  0  0
  5  6  2  0  0  0  0
  7  5  1  0  0  0  0
  8  7  3  0  0  0  0
  9  8  1  0  0  0  0
  9 17  1  0  0  0  0
 10  1  1  0  0  0  0
 11  1  1  0  0  0  0
 13  2  1  0  0  0  0
 15  4  1  0  0  0  0
 18  9  1  0  0  0  0
 19  9  1  0  0  0  0
M TOR 0 0 1 2 3
M TOR 1 1 2 3 4
M TOR 2 1 2 3 14
M TOR 3 1 2 3 15
M TOR 4 2 1 0 9
M TOR 5 2 1 0 10
M TOR 6 2 1 0 11
M TOR 7 2 3 4 5
M TOR 8 2 3 4 6
M TOR 9 3 2 1 12
M TOR 10 3 2 1 13
M TOR 11 3 4 6 7
M TOR 12 4 6 7 8
M TOR 13 5 4 3 14
M TOR 14 5 4 3 15
M TOR 15 5 4 6 7
M TOR 16 6 4 3 14
M TOR 17 6 4 3 15
M TOR 18 6 7 8 16
M TOR 19 6 7 8 17
M TOR 20 6 7 8 18
M  END
$$$$
