
     RDKit          3D

 19 20  0  0  0  0  0  0  0  0999 V2000
   -1.1226   -2.3817    1.0187 C   0  0  0  0  0  0  0  0  0  0  0  0
   -1.0943   -1.1679    0.1353 C   0  0  0  0  0  0  0  0  0  0  0  0
   -1.9133   -1.0389   -1.1419 C   0  0  0  0  0  0  0  0  0  0  0  0
   -2.1199   -0.0026   -0.0975 C   0  0  0  0  0  0  0  0  0  0  0  0
   -1.0055    1.0529   -0.1538 C   0  0  0  0  0  0  0  0  0  0  0  0
   -0.8451    1.9310   -1.3837 C   0  0  0  0  0  0  0  0  0  0  0  0
   -1.0526    1.8394    1.0299 O   0  0  0  0  0  0  0  0  0  0  0  0
   -0.0211   -0.1319    0.1282 C   0  0  0  0  0  0  0  0  0  0  0  0
    1.1134   -0.1129    0.5288 O   0  0  0  0  0  0  0  0  0  0  0  0
   -0.4520   -3.1587    0.6364 H   0  0  0  0  0  0  0  0  0  0  0  0
   -0.8005   -2.1343    2.0347 H   0  0  0  0  0  0  0  0  0  0  0  0
   -2.1296   -2.8073    1.0705 H   0  0  0  0  0  0  0  0  0  0  0  0
   -1.4407   -0.7997   -2.0897 H   0  0  0  0  0  0  0  0  0  0  0  0
   -2.6931   -1.7901   -1.2239 H   0  0  0  0  0  0  0  0  0  0  0  0
   -3.0508    0.1431    0.4346 H   0  0  0  0  0  0  0  0  0  0  0  0
   -0.8879    1.3587   -2.3144 H   0  0  0  0  0  0  0  0  0  0  0  0
   -1.6318    2.6914   -1.4022 H   0  0  0  0  0  0  0  0  0  0  0  0
    0.1230    2.4422   -1.3499 H   0  0  0  0  0  0  0  0  0  0  0  0
   -0.1407    2.0572    1.2592 H   0  0  0  0  0  0  0  0  0  0  0  0
  1  2  1  0
  2  3  1  0
  3  4  1  0
  4  5  1  0
  5  6  1  0
  5  7  1  0
  5  8  1  0
  8  9  2  0
  4  2  1  0
  8  2  1  0
  1 10  1  0
  1 11  1  0
  1 12  1  0
  3 13  1  0
  3 14  1  0
  4 15  1  0
  6 16  1  0
  6 17  1  0
  6 18  1  0
  7 19  1  0
M  END
$$$$
