
     RDKit          3D

 19 20  0  0  0  0  0  0  0  0999 V2000
   -0.1309    4.1876   -2.3563 C   0  0  0  0  0  0  0  0  0  0  0  0
   -0.8279    4.9738   -1.3714 O   0  0  0  0  0  0  0  0  0  0  0  0
   -1.1676    3.7952   -0.6074 C   0  0  0  0  0  0  0  0  0  0  0  0
   -0.3298    2.8920   -1.5379 C   0  0  0  0  0  0  0  0  0  0  0  0
    0.9317    2.3056   -0.9086 C   0  0  0  0  0  0  0  0  0  0  0  0
    0.5663    1.3571    0.1003 O   0  0  0  0  0  0  0  0  0  0  0  0
    1.1794    0.0950   -0.1515 C   0  0  0  0  0  0  0  0  0  0  0  0
    1.9345    0.2774   -1.4378 C   0  0  0  0  0  0  0  0  0  0  0  0
    1.8039    1.5290   -1.8602 C   0  0  0  0  0  0  0  0  0  0  0  0
   -0.6340    4.2057   -3.3317 H   0  0  0  0  0  0  0  0  0  0  0  0
    0.9071    4.5219   -2.4894 H   0  0  0  0  0  0  0  0  0  0  0  0
   -0.8243    3.8604    0.4315 H   0  0  0  0  0  0  0  0  0  0  0  0
   -2.2471    3.6000   -0.6157 H   0  0  0  0  0  0  0  0  0  0  0  0
   -0.8881    2.1001   -2.0415 H   0  0  0  0  0  0  0  0  0  0  0  0
    1.4931    3.1307   -0.4351 H   0  0  0  0  0  0  0  0  0  0  0  0
    1.8421   -0.1761    0.6861 H   0  0  0  0  0  0  0  0  0  0  0  0
    0.4085   -0.6881   -0.2185 H   0  0  0  0  0  0  0  0  0  0  0  0
    2.4975   -0.5163   -1.9124 H   0  0  0  0  0  0  0  0  0  0  0  0
    2.2405    1.9654   -2.7495 H   0  0  0  0  0  0  0  0  0  0  0  0
  1  2  1  0
  2  3  1  0
  3  4  1  0
  4  5  1  0
  5  6  1  0
  6  7  1  0
  7  8  1  0
  8  9  2  0
  4  1  1  0
  9  5  1  0
  1 10  1  0
  1 11  1  0
  3 12  1  0
  3 13  1  0
  4 14  1  0
  5 15  1  0
  7 16  1  0
  7 17  1  0
  8 18  1  0
  9 19  1  0
M  END
$$$$
