gdb 2772	2.6137572	1.3462594	1.0667795	2.6825	78.08	-0.2393	-0.03338	0.20592000000000002	1199.6962	0.154326	-422.531608	-422.522353	-422.521408	-422.565355	33.875
 OpenBabel02181911413D

 19 20  0  0  1  0  0  0  0  0999 V2000
    2.0649   -3.5740    1.8938 C   0  0  0  0  0  0  0  0  0  0  0  0
    1.4395   -2.5581    0.9646 C   0  0  1  0  0  0  0  0  0  0  0  0
    1.7280   -1.1011    1.1800 C   0  0  2  0  0  0  0  0  0  0  0  0
    0.9671   -0.2534    0.1598 C   0  0  1  0  0  0  0  0  0  0  0  0
    1.4083    1.1886    0.0250 C   0  0  0  0  0  0  0  0  0  0  0  0
    1.4714   -1.0703   -0.9470 O   0  0  0  0  0  0  0  0  0  0  0  0
    2.2951   -1.8155   -0.0498 C   0  0  2  0  0  0  0  0  0  0  0  0
    3.6749   -2.1152   -0.4600 C   0  0  0  0  0  0  0  0  0  0  0  0
    4.5267   -2.6045    0.2466 O   0  0  0  0  0  0  0  0  0  0  0  0
    1.4713   -3.6639    2.8099 H   0  0  0  0  0  0  0  0  0  0  0  0
    2.1053   -4.5592    1.4197 H   0  0  0  0  0  0  0  0  0  0  0  0
    3.0863   -3.2953    2.1580 H   0  0  0  0  0  0  0  0  0  0  0  0
    0.4509   -2.8113    0.5840 H   0  0  0  0  0  0  0  0  0  0  0  0
    2.2760   -0.7301    2.0372 H   0  0  0  0  0  0  0  0  0  0  0  0
   -0.1261   -0.3274    0.2195 H   0  0  0  0  0  0  0  0  0  0  0  0
    1.0555    1.7751    0.8805 H   0  0  0  0  0  0  0  0  0  0  0  0
    2.4990    1.2595   -0.0218 H   0  0  0  0  0  0  0  0  0  0  0  0
    0.9925    1.6258   -0.8873 H   0  0  0  0  0  0  0  0  0  0  0  0
    3.8764   -1.8333   -1.5171 H   0  0  0  0  0  0  0  0  0  0  0  0
  1 12  1  0  0  0  0
  1 10  1  0  0  0  0
  2 13  1  6  0  0  0
  2  3  1  0  0  0  0
  2  1  1  0  0  0  0
  3 14  1  1  0  0  0
  4 15  1  1  0  0  0
  4  3  1  0  0  0  0
  5  4  1  0  0  0  0
  5 16  1  0  0  0  0
  6  7  1  0  0  0  0
  6  4  1  0  0  0  0
  7  8  1  6  0  0  0
  7  2  1  0  0  0  0
  7  3  1  0  0  0  0
  8  9  2  0  0  0  0
 11  1  1  0  0  0  0
 17  5  1  0  0  0  0
 18  5  1  0  0  0  0
 19  8  1  0  0  0  0
M TOR 0 0 1 2 3
M TOR 1 0 1 2 6
M TOR 2 0 1 2 13
M TOR 3 0 1 6 5
M TOR 4 0 1 6 7
M TOR 5 1 2 3 4
M TOR 6 1 2 3 5
M TOR 7 1 2 3 14
M TOR 8 1 2 6 5
M TOR 9 1 2 6 7
M TOR 10 1 6 2 3
M TOR 11 1 6 2 13
M TOR 12 1 6 5 3
M TOR 13 1 6 7 8
M TOR 14 1 6 7 18
M TOR 15 2 1 0 9
M TOR 16 2 1 0 10
M TOR 17 2 1 0 11
M TOR 18 2 3 4 15
M TOR 19 2 3 4 16
M TOR 20 2 3 4 17
M TOR 21 2 3 5 6
M TOR 22 2 6 1 12
M TOR 23 2 6 7 8
M TOR 24 2 6 7 18
M TOR 25 3 2 1 12
M TOR 26 3 2 6 7
M TOR 27 3 5 6 7
M TOR 28 4 3 2 6
M TOR 29 4 3 2 13
M TOR 30 4 3 5 6
M TOR 31 5 3 2 13
M TOR 32 5 3 4 15
M TOR 33 5 3 4 16
M TOR 34 5 3 4 17
M TOR 35 5 6 1 12
M TOR 36 5 6 2 13
M TOR 37 5 6 7 8
M TOR 38 5 6 7 18
M TOR 39 6 1 0 9
M TOR 40 6 1 0 10
M TOR 41 6 1 0 11
M TOR 42 6 2 3 14
M TOR 43 6 5 3 14
M TOR 44 7 6 1 12
M TOR 45 7 6 2 13
M  END
$$$$
