
     RDKit          3D

 19 19  0  0  0  0  0  0  0  0999 V2000
   -6.4942   -0.5363    2.1178 C   0  0  0  0  0  0  0  0  0  0  0  0
   -5.4475   -1.0816    1.1288 C   0  0  0  0  0  0  0  0  0  0  0  0
   -4.1148   -0.5233    1.3294 C   0  0  0  0  0  0  0  0  0  0  0  0
   -3.0269   -0.0369    1.5195 C   0  0  0  0  0  0  0  0  0  0  0  0
   -1.7121    0.4942    1.7242 C   0  0  0  0  0  0  0  0  0  0  0  0
   -0.9115   -0.1760    2.6825 O   0  0  0  0  0  0  0  0  0  0  0  0
   -1.4314    1.9842    1.6662 C   0  0  0  0  0  0  0  0  0  0  0  0
   -0.8986    1.0891    0.5761 C   0  0  0  0  0  0  0  0  0  0  0  0
    0.4514    0.7719    0.5166 O   0  0  0  0  0  0  0  0  0  0  0  0
   -6.2077   -0.7605    3.1487 H   0  0  0  0  0  0  0  0  0  0  0  0
   -6.5891    0.5486    2.0231 H   0  0  0  0  0  0  0  0  0  0  0  0
   -7.4723   -0.9870    1.9246 H   0  0  0  0  0  0  0  0  0  0  0  0
   -5.3959   -2.1748    1.2132 H   0  0  0  0  0  0  0  0  0  0  0  0
   -5.7713   -0.8783    0.0998 H   0  0  0  0  0  0  0  0  0  0  0  0
   -1.0055   -1.1214    2.5151 H   0  0  0  0  0  0  0  0  0  0  0  0
   -2.2639    2.6443    1.4531 H   0  0  0  0  0  0  0  0  0  0  0  0
   -0.7162    2.3493    2.3960 H   0  0  0  0  0  0  0  0  0  0  0  0
   -1.3523    1.1368   -0.4079 H   0  0  0  0  0  0  0  0  0  0  0  0
    0.6578    0.3417    1.3595 H   0  0  0  0  0  0  0  0  0  0  0  0
  1  2  1  0
  2  3  1  0
  3  4  3  0
  4  5  1  0
  5  6  1  0
  5  7  1  0
  7  8  1  0
  8  9  1  0
  8  5  1  0
  1 10  1  0
  1 11  1  0
  1 12  1  0
  2 13  1  0
  2 14  1  0
  6 15  1  0
  7 16  1  0
  7 17  1  0
  8 18  1  0
  9 19  1  0
M  END
$$$$
