
     RDKit          3D

 19 21  0  0  0  0  0  0  0  0999 V2000
   -1.8058   -1.0397   -0.8204 C   0  0  0  0  0  0  0  0  0  0  0  0
   -1.9630   -0.0304    0.2755 C   0  0  0  0  0  0  0  0  0  0  0  0
   -0.8203    0.8359    0.8213 C   0  0  0  0  0  0  0  0  0  0  0  0
    0.2932    0.9798   -0.0092 O   0  0  0  0  0  0  0  0  0  0  0  0
   -2.0557    1.4846    0.2833 C   0  0  0  0  0  0  0  0  0  0  0  0
   -3.0831    1.4961    1.2783 O   0  0  0  0  0  0  0  0  0  0  0  0
   -3.0905    0.0552    1.2785 C   0  0  0  0  0  0  0  0  0  0  0  0
   -3.4031   -0.7325    2.5062 C   0  0  0  0  0  0  0  0  0  0  0  0
   -4.3724   -0.7048    1.3284 C   0  0  0  0  0  0  0  0  0  0  0  0
   -1.5855   -2.0372   -0.4192 H   0  0  0  0  0  0  0  0  0  0  0  0
   -2.7142   -1.1179   -1.4265 H   0  0  0  0  0  0  0  0  0  0  0  0
   -0.9827   -0.7558   -1.4819 H   0  0  0  0  0  0  0  0  0  0  0  0
   -0.6292    0.8784    1.8954 H   0  0  0  0  0  0  0  0  0  0  0  0
    0.8219    0.1767    0.0521 H   0  0  0  0  0  0  0  0  0  0  0  0
   -2.0728    2.2328   -0.5005 H   0  0  0  0  0  0  0  0  0  0  0  0
   -2.8447   -1.6428    2.6999 H   0  0  0  0  0  0  0  0  0  0  0  0
   -3.6826   -0.1730    3.3922 H   0  0  0  0  0  0  0  0  0  0  0  0
   -4.4727   -1.5964    0.7179 H   0  0  0  0  0  0  0  0  0  0  0  0
   -5.2817   -0.1247    1.4424 H   0  0  0  0  0  0  0  0  0  0  0  0
  1  2  1  0
  2  3  1  0
  3  4  1  0
  3  5  1  0
  5  6  1  0
  6  7  1  0
  7  8  1  0
  8  9  1  0
  5  2  1  0
  9  7  1  0
  7  2  1  0
  1 10  1  0
  1 11  1  0
  1 12  1  0
  3 13  1  0
  4 14  1  0
  5 15  1  0
  8 16  1  0
  8 17  1  0
  9 18  1  0
  9 19  1  0
M  END
$$$$
