
     RDKit          3D

 19 21  0  0  0  0  0  0  0  0999 V2000
    1.6335    0.1744    0.0166 O   0  0  0  0  0  0  0  0  0  0  0  0
    0.2423    0.4346   -0.1271 C   0  0  0  0  0  0  0  0  0  0  0  0
   -0.1411    0.7189   -1.5591 C   0  0  0  0  0  0  0  0  0  0  0  0
   -0.1333   -0.4395   -2.5795 C   0  0  0  0  0  0  0  0  0  0  0  0
   -1.4832   -0.1129   -3.0127 O   0  0  0  0  0  0  0  0  0  0  0  0
   -1.5968    0.9336   -2.0187 C   0  0  0  0  0  0  0  0  0  0  0  0
   -1.2713    2.3713   -2.4769 C   0  0  0  0  0  0  0  0  0  0  0  0
   -0.1908    2.3598   -3.5170 C   0  0  0  0  0  0  0  0  0  0  0  0
    0.1997    2.1427   -2.0830 C   0  0  0  0  0  0  0  0  0  0  0  0
    2.1114    0.9639   -0.2575 H   0  0  0  0  0  0  0  0  0  0  0  0
   -0.2637   -0.4708    0.2251 H   0  0  0  0  0  0  0  0  0  0  0  0
   -0.0809    1.2659    0.5206 H   0  0  0  0  0  0  0  0  0  0  0  0
    0.5903   -0.3908   -3.4004 H   0  0  0  0  0  0  0  0  0  0  0  0
   -0.0938   -1.4348   -2.1200 H   0  0  0  0  0  0  0  0  0  0  0  0
   -2.4643    0.8111   -1.3647 H   0  0  0  0  0  0  0  0  0  0  0  0
   -1.9037    3.2344   -2.3075 H   0  0  0  0  0  0  0  0  0  0  0  0
   -0.1555    1.5592   -4.2474 H   0  0  0  0  0  0  0  0  0  0  0  0
    0.0701    3.3363   -3.9121 H   0  0  0  0  0  0  0  0  0  0  0  0
    0.8722    2.8261   -1.5749 H   0  0  0  0  0  0  0  0  0  0  0  0
  1  2  1  0
  2  3  1  0
  3  4  1  0
  4  5  1  0
  5  6  1  0
  6  7  1  0
  7  8  1  0
  8  9  1  0
  6  3  1  0
  9  7  1  0
  9  3  1  0
  1 10  1  0
  2 11  1  0
  2 12  1  0
  4 13  1  0
  4 14  1  0
  6 15  1  0
  7 16  1  0
  8 17  1  0
  8 18  1  0
  9 19  1  0
M  END
$$$$
