
     RDKit          3D

 19 20  0  0  0  0  0  0  0  0999 V2000
   -0.0957    1.5325    0.1772 C   0  0  0  0  0  0  0  0  0  0  0  0
    0.0287    0.0324    0.0104 C   0  0  0  0  0  0  0  0  0  0  0  0
   -1.1800   -0.7009    0.4105 O   0  0  0  0  0  0  0  0  0  0  0  0
   -0.3904   -1.6772    1.1418 C   0  0  0  0  0  0  0  0  0  0  0  0
   -0.6638   -1.9284    2.6222 C   0  0  0  0  0  0  0  0  0  0  0  0
    0.5546   -2.4444    3.1543 O   0  0  0  0  0  0  0  0  0  0  0  0
    1.6527   -1.5407    3.1697 C   0  0  0  0  0  0  0  0  0  0  0  0
    1.7131   -0.6180    1.9753 C   0  0  0  0  0  0  0  0  0  0  0  0
    0.7981   -0.7724    1.0322 C   0  0  0  0  0  0  0  0  0  0  0  0
    0.8441    2.0227   -0.0987 H   0  0  0  0  0  0  0  0  0  0  0  0
   -0.8850    1.9211   -0.4737 H   0  0  0  0  0  0  0  0  0  0  0  0
   -0.3364    1.7868    1.2125 H   0  0  0  0  0  0  0  0  0  0  0  0
    0.2775   -0.2184   -1.0319 H   0  0  0  0  0  0  0  0  0  0  0  0
   -0.3372   -2.6267    0.5928 H   0  0  0  0  0  0  0  0  0  0  0  0
   -0.9674   -0.9893    3.1076 H   0  0  0  0  0  0  0  0  0  0  0  0
   -1.4206   -2.6929    2.8147 H   0  0  0  0  0  0  0  0  0  0  0  0
    1.6145   -0.9152    4.0796 H   0  0  0  0  0  0  0  0  0  0  0  0
    2.5475   -2.1691    3.2543 H   0  0  0  0  0  0  0  0  0  0  0  0
    2.4242    0.2028    2.0015 H   0  0  0  0  0  0  0  0  0  0  0  0
  1  2  1  0
  2  3  1  0
  3  4  1  0
  4  5  1  0
  5  6  1  0
  6  7  1  0
  7  8  1  0
  8  9  2  0
  9  2  1  0
  9  4  1  0
  1 10  1  0
  1 11  1  0
  1 12  1  0
  2 13  1  0
  4 14  1  0
  5 15  1  0
  5 16  1  0
  7 17  1  0
  7 18  1  0
  8 19  1  0
M  END
$$$$
