
     RDKit          3D

 19 20  0  0  0  0  0  0  0  0999 V2000
    0.9789   -0.8425    1.5661 O   0  0  0  0  0  0  0  0  0  0  0  0
    0.6315    0.5312    1.5520 C   0  0  0  0  0  0  0  0  0  0  0  0
   -0.8331    0.7629    1.1568 C   0  0  0  0  0  0  0  0  0  0  0  0
   -1.1891    2.2224    1.0781 C   0  0  0  0  0  0  0  0  0  0  0  0
   -2.5432    2.8780    0.6187 C   0  0  0  0  0  0  0  0  0  0  0  0
   -1.6549    4.1208    0.9626 C   0  0  0  0  0  0  0  0  0  0  0  0
   -1.1978    3.3103    2.2210 C   0  0  0  0  0  0  0  0  0  0  0  0
   -0.5455    3.3452    0.2396 C   0  0  0  0  0  0  0  0  0  0  0  0
    0.3419    3.5064   -0.5413 O   0  0  0  0  0  0  0  0  0  0  0  0
    0.4671   -1.2702    2.2601 H   0  0  0  0  0  0  0  0  0  0  0  0
    0.8390    1.0076    2.5235 H   0  0  0  0  0  0  0  0  0  0  0  0
    1.2880    1.0016    0.8137 H   0  0  0  0  0  0  0  0  0  0  0  0
   -1.0083    0.2900    0.1833 H   0  0  0  0  0  0  0  0  0  0  0  0
   -1.4923    0.2571    1.8768 H   0  0  0  0  0  0  0  0  0  0  0  0
   -2.8447    2.7389   -0.4215 H   0  0  0  0  0  0  0  0  0  0  0  0
   -3.3750    2.7157    1.3092 H   0  0  0  0  0  0  0  0  0  0  0  0
   -1.9253    5.1722    0.9081 H   0  0  0  0  0  0  0  0  0  0  0  0
   -0.2444    3.5798    2.6793 H   0  0  0  0  0  0  0  0  0  0  0  0
   -1.9821    3.1631    2.9683 H   0  0  0  0  0  0  0  0  0  0  0  0
  1  2  1  0
  2  3  1  0
  3  4  1  0
  4  5  1  0
  5  6  1  0
  6  7  1  0
  6  8  1  0
  8  9  2  0
  7  4  1  0
  8  4  1  0
  1 10  1  0
  2 11  1  0
  2 12  1  0
  3 13  1  0
  3 14  1  0
  5 15  1  0
  5 16  1  0
  6 17  1  0
  7 18  1  0
  7 19  1  0
M  END
$$$$
