gdb 4710	2.0860297	1.1936806	0.9853793	3.5083	78.44	-0.24383	-0.01642	0.22741	1316.4676	0.152168	-422.519266	-422.50849	-422.507546	-422.555463	37.222
 OpenBabel02181911413D

 19 18  0  0  1  0  0  0  0  0999 V2000
    1.4628   -0.0545   -0.0723 C   0  0  0  0  0  0  0  0  0  0  0  0
    0.0647    0.1491   -0.0123 O   0  0  0  0  0  0  0  0  0  0  0  0
   -0.3899    0.7580    1.1839 C   0  0  1  0  0  0  0  0  0  0  0  0
    0.0896    2.1416    1.3248 C   0  0  0  0  0  0  0  0  0  0  0  0
    0.4897    3.2687    1.4493 C   0  0  0  0  0  0  0  0  0  0  0  0
   -1.9325    0.6665    1.1599 C   0  0  2  0  0  0  0  0  0  0  0  0
   -2.4358   -0.7698    1.2994 C   0  0  0  0  0  0  0  0  0  0  0  0
   -2.4705    1.3469   -0.0941 C   0  0  0  0  0  0  0  0  0  0  0  0
   -3.3855    0.9235   -0.7513 O   0  0  0  0  0  0  0  0  0  0  0  0
    1.8099   -0.6906    0.7561 H   0  0  0  0  0  0  0  0  0  0  0  0
    1.6672   -0.5592   -1.0187 H   0  0  0  0  0  0  0  0  0  0  0  0
    2.0133    0.8948   -0.0411 H   0  0  0  0  0  0  0  0  0  0  0  0
   -0.0251    0.1848    2.0534 H   0  0  0  0  0  0  0  0  0  0  0  0
    0.8409    4.2655    1.5583 H   0  0  0  0  0  0  0  0  0  0  0  0
   -2.2911    1.2762    2.0029 H   0  0  0  0  0  0  0  0  0  0  0  0
   -2.1691   -1.1825    2.2770 H   0  0  0  0  0  0  0  0  0  0  0  0
   -3.5210   -0.8008    1.1873 H   0  0  0  0  0  0  0  0  0  0  0  0
   -1.9985   -1.4004    0.5223 H   0  0  0  0  0  0  0  0  0  0  0  0
   -1.9666    2.3021   -0.3539 H   0  0  0  0  0  0  0  0  0  0  0  0
  1 12  1  0  0  0  0
  1  2  1  0  0  0  0
  1 10  1  0  0  0  0
  2  3  1  0  0  0  0
  3  4  1  0  0  0  0
  3 13  1  1  0  0  0
  4  5  3  0  0  0  0
  5 14  1  0  0  0  0
  6  3  1  0  0  0  0
  6  7  1  0  0  0  0
  6 15  1  1  0  0  0
  7 16  1  0  0  0  0
  8  6  1  0  0  0  0
  9  8  2  0  0  0  0
 11  1  1  0  0  0  0
 17  7  1  0  0  0  0
 18  7  1  0  0  0  0
 19  8  1  0  0  0  0
M TOR 0 0 1 2 3
M TOR 1 0 1 2 5
M TOR 2 0 1 2 12
M TOR 3 1 2 3 4
M TOR 4 1 2 5 6
M TOR 5 1 2 5 7
M TOR 6 1 2 5 14
M TOR 7 2 1 0 9
M TOR 8 2 1 0 10
M TOR 9 2 1 0 11
M TOR 10 2 3 4 13
M TOR 11 2 5 6 15
M TOR 12 2 5 6 16
M TOR 13 2 5 6 17
M TOR 14 2 5 7 8
M TOR 15 2 5 7 18
M TOR 16 3 2 5 6
M TOR 17 3 2 5 7
M TOR 18 3 2 5 14
M TOR 19 4 3 2 5
M TOR 20 4 3 2 12
M TOR 21 6 5 2 12
M TOR 22 6 5 7 8
M TOR 23 6 5 7 18
M TOR 24 7 5 2 12
M TOR 25 7 5 6 15
M TOR 26 7 5 6 16
M TOR 27 7 5 6 17
M TOR 28 8 7 5 14
M  END
$$$$
