gdb 2640	1.9691443	1.3083143	0.948231	3.1114	78.75	-0.24682	0.05244	0.29926	1308.4771	0.153293	-422.520145	-422.509772	-422.508828	-422.555274	37.556
 OpenBabel02181911413D

 19 19  0  0  1  0  0  0  0  0999 V2000
    1.6178   -1.0444    1.3823 C   0  0  0  0  0  0  0  0  0  0  0  0
    1.3867   -0.3397    0.0559 C   0  0  2  0  0  0  0  0  0  0  0  0
    2.3972   -0.5333   -1.1117 C   0  0  1  0  0  0  0  0  0  0  0  0
    2.0745   -1.4164   -2.1564 O   0  0  0  0  0  0  0  0  0  0  0  0
    2.2039    0.9610   -1.4898 C   0  0  2  0  0  0  0  0  0  0  0  0
    3.3330    1.7387   -1.9493 C   0  0  0  0  0  0  0  0  0  0  0  0
    4.2906    2.3755   -2.3015 C   0  0  0  0  0  0  0  0  0  0  0  0
    1.6358    1.1918   -0.0625 C   0  0  1  0  0  0  0  0  0  0  0  0
    0.5369    2.0677   -0.0374 O   0  0  0  0  0  0  0  0  0  0  0  0
    1.5177   -2.1312    1.2821 H   0  0  0  0  0  0  0  0  0  0  0  0
    2.6217   -0.8380    1.7715 H   0  0  0  0  0  0  0  0  0  0  0  0
    0.8951   -0.7206    2.1400 H   0  0  0  0  0  0  0  0  0  0  0  0
    0.3843   -0.5432   -0.3368 H   0  0  0  0  0  0  0  0  0  0  0  0
    3.4143   -0.7065   -0.7338 H   0  0  0  0  0  0  0  0  0  0  0  0
    2.3165   -2.3087   -1.8895 H   0  0  0  0  0  0  0  0  0  0  0  0
    1.3661    1.0192   -2.1935 H   0  0  0  0  0  0  0  0  0  0  0  0
    5.1283    2.9419   -2.6248 H   0  0  0  0  0  0  0  0  0  0  0  0
    2.4316    1.5200    0.6204 H   0  0  0  0  0  0  0  0  0  0  0  0
    0.3069    2.2451    0.8799 H   0  0  0  0  0  0  0  0  0  0  0  0
  1 11  1  0  0  0  0
  1 12  1  0  0  0  0
  2 13  1  6  0  0  0
  2  1  1  0  0  0  0
  3 14  1  1  0  0  0
  3  2  1  0  0  0  0
  4 15  1  0  0  0  0
  4  3  1  0  0  0  0
  5 16  1  6  0  0  0
  5  3  1  0  0  0  0
  5  8  1  0  0  0  0
  6  5  1  0  0  0  0
  7  6  3  0  0  0  0
  8  9  1  0  0  0  0
  8  2  1  0  0  0  0
  8 18  1  1  0  0  0
  9 19  1  0  0  0  0
 10  1  1  0  0  0  0
 17  7  1  0  0  0  0
M TOR 0 0 1 2 3
M TOR 1 0 1 2 4
M TOR 2 0 1 2 13
M TOR 3 0 1 7 4
M TOR 4 0 1 7 8
M TOR 5 0 1 7 17
M TOR 6 1 2 3 14
M TOR 7 1 2 4 5
M TOR 8 1 2 4 7
M TOR 9 1 2 4 15
M TOR 10 1 7 4 5
M TOR 11 1 7 4 15
M TOR 12 1 7 8 18
M TOR 13 2 1 0 9
M TOR 14 2 1 0 10
M TOR 15 2 1 0 11
M TOR 16 2 1 7 8
M TOR 17 2 1 7 17
M TOR 18 2 4 5 6
M TOR 19 2 4 7 8
M TOR 20 2 4 7 17
M TOR 21 3 2 1 7
M TOR 22 3 2 1 12
M TOR 23 3 2 4 5
M TOR 24 3 2 4 7
M TOR 25 3 2 4 15
M TOR 26 4 2 1 12
M TOR 27 4 2 3 14
M TOR 28 4 5 6 16
M TOR 29 4 7 1 12
M TOR 30 4 7 8 18
M TOR 31 5 4 2 13
M TOR 32 5 4 7 8
M TOR 33 5 4 7 17
M TOR 34 6 5 4 7
M TOR 35 6 5 4 15
M TOR 36 7 1 0 9
M TOR 37 7 1 0 10
M TOR 38 7 1 0 11
M TOR 39 7 1 2 13
M TOR 40 7 4 2 13
M TOR 41 8 7 1 12
M TOR 42 8 7 4 15
M  END
$$$$
