
     RDKit          3D

 19 21  0  0  0  0  0  0  0  0999 V2000
    0.2800    0.4292   -0.0725 O   0  0  0  0  0  0  0  0  0  0  0  0
   -0.8789    0.5699    0.7486 C   0  0  0  0  0  0  0  0  0  0  0  0
   -2.0540   -0.2030    0.1126 C   0  0  0  0  0  0  0  0  0  0  0  0
   -3.1886    0.0970    1.1074 C   0  0  0  0  0  0  0  0  0  0  0  0
   -3.2018    1.6199    0.8311 C   0  0  0  0  0  0  0  0  0  0  0  0
   -3.6218    1.6572   -0.6677 C   0  0  0  0  0  0  0  0  0  0  0  0
   -2.2431    1.0449   -0.8842 C   0  0  0  0  0  0  0  0  0  0  0  0
   -1.6686    1.0128   -2.1381 O   0  0  0  0  0  0  0  0  0  0  0  0
   -1.6943    1.8193    0.3774 C   0  0  0  0  0  0  0  0  0  0  0  0
    0.8850    1.1478    0.1403 H   0  0  0  0  0  0  0  0  0  0  0  0
   -0.6362    0.3595    1.7992 H   0  0  0  0  0  0  0  0  0  0  0  0
   -1.9134   -1.2173   -0.2596 H   0  0  0  0  0  0  0  0  0  0  0  0
   -4.1400   -0.3787    0.8546 H   0  0  0  0  0  0  0  0  0  0  0  0
   -2.9299   -0.1715    2.1370 H   0  0  0  0  0  0  0  0  0  0  0  0
   -3.6673    2.2772    1.5629 H   0  0  0  0  0  0  0  0  0  0  0  0
   -4.5195    1.1064   -0.9669 H   0  0  0  0  0  0  0  0  0  0  0  0
   -3.6519    2.6737   -1.0704 H   0  0  0  0  0  0  0  0  0  0  0  0
   -0.7596    0.7107   -2.0036 H   0  0  0  0  0  0  0  0  0  0  0  0
   -1.2856    2.8296    0.3432 H   0  0  0  0  0  0  0  0  0  0  0  0
  1  2  1  0
  2  3  1  0
  3  4  1  0
  4  5  1  0
  5  6  1  0
  6  7  1  0
  7  8  1  0
  7  9  1  0
  9  2  1  0
  7  3  1  0
  9  5  1  0
  1 10  1  0
  2 11  1  0
  3 12  1  0
  4 13  1  0
  4 14  1  0
  5 15  1  0
  6 16  1  0
  6 17  1  0
  8 18  1  0
  9 19  1  0
M  END
$$$$
