
     RDKit          3D

 19 18  0  0  0  0  0  0  0  0999 V2000
   -2.3077    1.4918    0.2122 C   0  0  0  0  0  0  0  0  0  0  0  0
   -1.0890    1.9597   -0.6099 C   0  0  0  0  0  0  0  0  0  0  0  0
   -1.5842    2.7789   -1.8364 C   0  0  0  0  0  0  0  0  0  0  0  0
   -0.5320    3.2824   -2.6271 O   0  0  0  0  0  0  0  0  0  0  0  0
   -0.2715    0.7436   -1.1293 C   0  0  0  0  0  0  0  0  0  0  0  0
    0.3944   -0.0661   -0.0411 C   0  0  0  0  0  0  0  0  0  0  0  0
    0.2611   -1.2558    0.0990 O   0  0  0  0  0  0  0  0  0  0  0  0
   -0.2393    2.8497    0.1909 C   0  0  0  0  0  0  0  0  0  0  0  0
    0.4480    3.6286    0.7989 C   0  0  0  0  0  0  0  0  0  0  0  0
   -1.9979    0.9072    1.0822 H   0  0  0  0  0  0  0  0  0  0  0  0
   -2.8886    2.3472    0.5678 H   0  0  0  0  0  0  0  0  0  0  0  0
   -2.9560    0.8622   -0.4057 H   0  0  0  0  0  0  0  0  0  0  0  0
   -2.1722    2.1217   -2.4852 H   0  0  0  0  0  0  0  0  0  0  0  0
   -2.2435    3.5824   -1.4757 H   0  0  0  0  0  0  0  0  0  0  0  0
   -0.0147    3.8748   -2.0675 H   0  0  0  0  0  0  0  0  0  0  0  0
   -0.9237    0.0797   -1.7045 H   0  0  0  0  0  0  0  0  0  0  0  0
    0.5066    1.1296   -1.7997 H   0  0  0  0  0  0  0  0  0  0  0  0
    1.0450    0.5223    0.6428 H   0  0  0  0  0  0  0  0  0  0  0  0
    1.0540    4.2937    1.3642 H   0  0  0  0  0  0  0  0  0  0  0  0
  1  2  1  0
  2  3  1  0
  3  4  1  0
  2  5  1  0
  5  6  1  0
  6  7  2  0
  2  8  1  0
  8  9  3  0
  1 10  1  0
  1 11  1  0
  1 12  1  0
  3 13  1  0
  3 14  1  0
  4 15  1  0
  5 16  1  0
  5 17  1  0
  6 18  1  0
  9 19  1  0
M  END
$$$$
