gdb 2222	2.535627	1.9866886	1.7764561	2.458	73.06	-0.23476	0.07167	0.30643	887.571	0.159807	-422.566693	-422.55989	-422.558946	-422.597214	28.917
 OpenBabel02181911413D

 19 21  0  0  1  0  0  0  0  0999 V2000
    0.4516    0.1976    0.7026 O   0  0  0  0  0  0  0  0  0  0  0  0
   -0.8002    0.7276    1.0149 C   0  0  2  0  0  0  0  0  0  0  0  0
   -1.1380    2.1873    0.7177 C   0  0  0  0  0  0  0  0  0  0  0  0
   -2.6100    2.0053    1.1165 C   0  0  2  0  0  0  0  0  0  0  0  0
   -2.5002    1.5030    2.5738 C   0  0  0  0  0  0  0  0  0  0  0  0
   -1.4601    0.3654    2.4162 C   0  0  1  0  0  0  0  0  0  0  0  0
   -2.1169   -0.8605    1.7317 C   0  0  0  0  0  0  0  0  0  0  0  0
   -1.9948   -0.0787    0.4058 C   0  0  1  0  0  0  0  0  0  0  0  0
   -3.0308    0.9049    0.2885 O   0  0  0  0  0  0  0  0  0  0  0  0
    1.1071    0.6106    1.2747 H   0  0  0  0  0  0  0  0  0  0  0  0
   -0.6015    2.9029    1.3488 H   0  0  0  0  0  0  0  0  0  0  0  0
   -1.0122    2.4472   -0.3361 H   0  0  0  0  0  0  0  0  0  0  0  0
   -3.2902    2.8397    0.9465 H   0  0  0  0  0  0  0  0  0  0  0  0
   -2.1350    2.3038    3.2259 H   0  0  0  0  0  0  0  0  0  0  0  0
   -3.4579    1.1515    2.9674 H   0  0  0  0  0  0  0  0  0  0  0  0
   -0.8154    0.2062    3.2828 H   0  0  0  0  0  0  0  0  0  0  0  0
   -1.4562   -1.7315    1.7359 H   0  0  0  0  0  0  0  0  0  0  0  0
   -3.1233   -1.1492    2.0453 H   0  0  0  0  0  0  0  0  0  0  0  0
   -1.8834   -0.6069   -0.5428 H   0  0  0  0  0  0  0  0  0  0  0  0
  1 10  1  0  0  0  0
  2  1  1  6  0  0  0
  2  6  1  0  0  0  0
  3  2  1  0  0  0  0
  3  4  1  0  0  0  0
  3 11  1  0  0  0  0
  4 13  1  6  0  0  0
  4  5  1  0  0  0  0
  5 15  1  0  0  0  0
  5 14  1  0  0  0  0
  6  5  1  0  0  0  0
  6 16  1  1  0  0  0
  7 17  1  0  0  0  0
  7 18  1  0  0  0  0
  7  6  1  0  0  0  0
  8 19  1  6  0  0  0
  8  2  1  0  0  0  0
  8  7  1  0  0  0  0
  9  8  1  0  0  0  0
  9  4  1  0  0  0  0
 12  3  1  0  0  0  0
M TOR 0 0 1 2 3
M TOR 1 0 1 2 10
M TOR 2 0 1 2 11
M TOR 3 0 1 5 4
M TOR 4 0 1 5 6
M TOR 5 0 1 5 15
M TOR 6 0 1 7 6
M TOR 7 0 1 7 8
M TOR 8 0 1 7 18
M TOR 9 1 2 3 4
M TOR 10 1 2 3 8
M TOR 11 1 2 3 12
M TOR 12 1 5 4 3
M TOR 13 1 5 4 13
M TOR 14 1 5 4 14
M TOR 15 1 5 6 7
M TOR 16 1 5 6 16
M TOR 17 1 5 6 17
M TOR 18 1 7 6 16
M TOR 19 1 7 6 17
M TOR 20 1 7 8 3
M TOR 21 2 1 0 9
M TOR 22 2 1 5 4
M TOR 23 2 1 5 6
M TOR 24 2 1 5 15
M TOR 25 2 1 7 6
M TOR 26 2 1 7 8
M TOR 27 2 1 7 18
M TOR 28 2 3 4 5
M TOR 29 2 3 4 13
M TOR 30 2 3 4 14
M TOR 31 2 3 8 7
M TOR 32 3 2 1 5
M TOR 33 3 2 1 7
M TOR 34 3 4 5 6
M TOR 35 3 4 5 15
M TOR 36 3 8 7 6
M TOR 37 3 8 7 18
M TOR 38 4 3 2 10
M TOR 39 4 3 2 11
M TOR 40 4 3 8 7
M TOR 41 4 5 1 7
M TOR 42 4 5 6 7
M TOR 43 4 5 6 16
M TOR 44 4 5 6 17
M TOR 45 5 1 0 9
M TOR 46 5 1 2 10
M TOR 47 5 1 2 11
M TOR 48 5 1 7 8
M TOR 49 5 1 7 18
M TOR 50 5 4 3 8
M TOR 51 5 4 3 12
M TOR 52 5 6 7 8
M TOR 53 5 6 7 18
M TOR 54 6 5 4 13
M TOR 55 6 5 4 14
M TOR 56 7 1 0 9
M TOR 57 7 1 2 10
M TOR 58 7 1 2 11
M TOR 59 7 1 5 15
M TOR 60 7 6 5 15
M TOR 61 7 8 3 12
M TOR 62 8 3 2 10
M TOR 63 8 3 2 11
M TOR 64 8 3 4 13
M TOR 65 8 3 4 14
M TOR 66 8 7 6 16
M TOR 67 8 7 6 17
M  END
$$$$
