gdb 4331	2.6913568	1.5441736	1.2354797	2.7963	77.35	-0.24772	0.00184	0.24956	1068.2444	0.157506	-422.558102	-422.549811	-422.548866	-422.590868	32.033
 OpenBabel02181911413D

 19 20  0  0  1  0  0  0  0  0999 V2000
    0.5128   -0.1241    0.6702 O   0  0  0  0  0  0  0  0  0  0  0  0
   -0.4056    0.8550    1.1359 C   0  0  1  0  0  0  0  0  0  0  0  0
   -1.4492    0.2499    2.0952 C   0  0  0  0  0  0  0  0  0  0  0  0
   -0.9274    0.0782    3.4972 C   0  0  0  0  0  0  0  0  0  0  0  0
    0.1833    0.6653    3.9468 C   0  0  0  0  0  0  0  0  0  0  0  0
    1.0008    1.5520    3.0831 C   0  0  1  0  0  0  0  0  0  0  0  0
    2.1406    2.2972    3.6343 C   0  0  0  0  0  0  0  0  0  0  0  0
    2.3790    1.0938    2.9091 O   0  0  0  0  0  0  0  0  0  0  0  0
    0.3200    2.0256    1.8132 C   0  0  0  0  0  0  0  0  0  0  0  0
    1.2010   -0.2416    1.3346 H   0  0  0  0  0  0  0  0  0  0  0  0
   -0.9211    1.2127    0.2382 H   0  0  0  0  0  0  0  0  0  0  0  0
   -2.3506    0.8810    2.1121 H   0  0  0  0  0  0  0  0  0  0  0  0
   -1.7656   -0.7187    1.6922 H   0  0  0  0  0  0  0  0  0  0  0  0
   -1.4965   -0.5676    4.1616 H   0  0  0  0  0  0  0  0  0  0  0  0
    0.5470    0.4828    4.9539 H   0  0  0  0  0  0  0  0  0  0  0  0
    2.4653    3.2146    3.1431 H   0  0  0  0  0  0  0  0  0  0  0  0
    2.3520    2.2479    4.7024 H   0  0  0  0  0  0  0  0  0  0  0  0
   -0.4055    2.8096    2.0641 H   0  0  0  0  0  0  0  0  0  0  0  0
    1.0642    2.4517    1.1347 H   0  0  0  0  0  0  0  0  0  0  0  0
  1  2  1  0  0  0  0
  1 10  1  0  0  0  0
  2 11  1  6  0  0  0
  2  9  1  0  0  0  0
  2  3  1  0  0  0  0
  3 12  1  0  0  0  0
  3  4  1  0  0  0  0
  4  5  2  0  0  0  0
  4 14  1  0  0  0  0
  5 15  1  0  0  0  0
  6  8  1  6  0  0  0
  6  7  1  0  0  0  0
  6  5  1  0  0  0  0
  7 17  1  0  0  0  0
  8  7  1  0  0  0  0
  9 18  1  0  0  0  0
  9  6  1  0  0  0  0
 13  3  1  0  0  0  0
 16  7  1  0  0  0  0
 19  9  1  0  0  0  0
M TOR 0 0 1 2 3
M TOR 1 0 1 2 11
M TOR 2 0 1 2 12
M TOR 3 0 1 8 5
M TOR 4 0 1 8 17
M TOR 5 0 1 8 18
M TOR 6 1 2 3 4
M TOR 7 1 2 3 13
M TOR 8 1 8 5 4
M TOR 9 1 8 5 6
M TOR 10 1 8 5 7
M TOR 11 2 1 0 9
M TOR 12 2 1 8 5
M TOR 13 2 1 8 17
M TOR 14 2 1 8 18
M TOR 15 2 3 4 5
M TOR 16 2 3 4 14
M TOR 17 3 2 1 8
M TOR 18 3 2 1 10
M TOR 19 3 4 5 6
M TOR 20 3 4 5 7
M TOR 21 3 4 5 8
M TOR 22 4 3 2 11
M TOR 23 4 3 2 12
M TOR 24 4 5 6 7
M TOR 25 4 5 6 15
M TOR 26 4 5 6 16
M TOR 27 4 5 8 17
M TOR 28 4 5 8 18
M TOR 29 5 4 3 13
M TOR 30 5 7 6 15
M TOR 31 5 7 6 16
M TOR 32 5 8 1 10
M TOR 33 6 5 4 14
M TOR 34 6 5 8 17
M TOR 35 6 5 8 18
M TOR 36 6 7 5 8
M TOR 37 7 5 4 14
M TOR 38 7 5 8 17
M TOR 39 7 5 8 18
M TOR 40 8 1 0 9
M TOR 41 8 1 2 11
M TOR 42 8 1 2 12
M TOR 43 8 5 4 14
M TOR 44 8 5 6 15
M TOR 45 8 5 6 16
M  END
$$$$
