gdb 1777	2.5443458	1.6375079	1.3285881	2.4855	75.87	-0.22114	-0.01477	0.20637	1052.8592	0.155488	-422.561308	-422.552462	-422.551517	-422.594271	33.249
 OpenBabel02181911403D

 19 20  0  0  1  0  0  0  0  0999 V2000
   -0.7284   -2.4962   -0.2373 C   0  0  0  0  0  0  0  0  0  0  0  0
   -0.9445   -1.0255    0.0031 C   0  0  1  0  0  0  0  0  0  0  0  0
   -1.6305   -0.0346   -1.0111 C   0  0  0  0  0  0  0  0  0  0  0  0
   -0.9561    1.0652   -0.1316 C   0  0  1  0  0  0  0  0  0  0  0  0
   -0.8084    2.5131   -0.4834 C   0  0  0  0  0  0  0  0  0  0  0  0
   -1.6137    0.8817    1.1398 O   0  0  0  0  0  0  0  0  0  0  0  0
   -1.6320   -0.5588    1.2991 C   0  0  0  0  0  0  0  0  0  0  0  0
    0.1915    0.0285   -0.0347 C   0  0  0  0  0  0  0  0  0  0  0  0
    1.3801    0.0088   -0.1503 O   0  0  0  0  0  0  0  0  0  0  0  0
   -0.1320   -2.9369    0.5687 H   0  0  0  0  0  0  0  0  0  0  0  0
   -1.6789   -3.0384   -0.2864 H   0  0  0  0  0  0  0  0  0  0  0  0
   -0.1916   -2.6645   -1.1756 H   0  0  0  0  0  0  0  0  0  0  0  0
   -1.2271   -0.1032   -2.0237 H   0  0  0  0  0  0  0  0  0  0  0  0
   -2.7230   -0.0213   -1.0113 H   0  0  0  0  0  0  0  0  0  0  0  0
   -0.2351    3.0314    0.2905 H   0  0  0  0  0  0  0  0  0  0  0  0
   -0.2808    2.6210   -1.4347 H   0  0  0  0  0  0  0  0  0  0  0  0
   -1.7872    2.9949   -0.5661 H   0  0  0  0  0  0  0  0  0  0  0  0
   -1.0794   -0.8479    2.2016 H   0  0  0  0  0  0  0  0  0  0  0  0
   -2.6673   -0.9108    1.3878 H   0  0  0  0  0  0  0  0  0  0  0  0
  1 10  1  0  0  0  0
  2  1  1  6  0  0  0
  2  7  1  0  0  0  0
  3  4  1  0  0  0  0
  3  2  1  0  0  0  0
  4  5  1  6  0  0  0
  4  8  1  0  0  0  0
  4  6  1  0  0  0  0
  5 15  1  0  0  0  0
  6  7  1  0  0  0  0
  7 19  1  0  0  0  0
  7 18  1  0  0  0  0
  8  2  1  0  0  0  0
  9  8  2  0  0  0  0
 11  1  1  0  0  0  0
 12  1  1  0  0  0  0
 13  3  1  0  0  0  0
 14  3  1  0  0  0  0
 16  5  1  0  0  0  0
 17  5  1  0  0  0  0
M TOR 0 0 1 2 3
M TOR 1 0 1 2 12
M TOR 2 0 1 2 13
M TOR 3 0 1 6 5
M TOR 4 0 1 6 17
M TOR 5 0 1 6 18
M TOR 6 0 1 7 3
M TOR 7 0 1 7 8
M TOR 8 1 2 3 4
M TOR 9 1 2 3 5
M TOR 10 1 2 3 7
M TOR 11 1 6 5 3
M TOR 12 1 7 3 4
M TOR 13 1 7 3 5
M TOR 14 2 1 0 9
M TOR 15 2 1 0 10
M TOR 16 2 1 0 11
M TOR 17 2 1 6 5
M TOR 18 2 1 6 17
M TOR 19 2 1 6 18
M TOR 20 2 1 7 8
M TOR 21 2 3 4 14
M TOR 22 2 3 4 15
M TOR 23 2 3 4 16
M TOR 24 2 3 5 6
M TOR 25 2 3 7 8
M TOR 26 3 2 1 6
M TOR 27 3 5 6 17
M TOR 28 3 5 6 18
M TOR 29 3 7 1 6
M TOR 30 4 3 2 12
M TOR 31 4 3 2 13
M TOR 32 4 3 5 6
M TOR 33 4 3 7 8
M TOR 34 5 3 2 12
M TOR 35 5 3 2 13
M TOR 36 5 3 4 14
M TOR 37 5 3 4 15
M TOR 38 5 3 4 16
M TOR 39 5 3 7 8
M TOR 40 5 6 1 7
M TOR 41 6 1 0 9
M TOR 42 6 1 0 10
M TOR 43 6 1 0 11
M TOR 44 6 1 2 12
M TOR 45 6 1 2 13
M TOR 46 6 1 7 8
M TOR 47 6 5 3 7
M TOR 48 7 1 0 9
M TOR 49 7 1 0 10
M TOR 50 7 1 0 11
M TOR 51 7 1 2 12
M TOR 52 7 1 2 13
M TOR 53 7 1 6 17
M TOR 54 7 1 6 18
M TOR 55 7 3 2 12
M TOR 56 7 3 2 13
M TOR 57 7 3 4 14
M TOR 58 7 3 4 15
M TOR 59 7 3 4 16
M  END
$$$$
