gdb 5553	1.7968876	1.7592891	0.9660858	1.4128	76.06	-0.24942	-0.02505	0.22437	1217.0945	0.155579	-422.528689	-422.519649	-422.518705	-422.563018	32.834
 OpenBabel02181911423D

 19 20  0  0  1  0  0  0  0  0999 V2000
   -0.2399    0.0514   -1.0296 O   0  0  0  0  0  0  0  0  0  0  0  0
    0.2021   -0.4897    0.2123 C   0  0  0  0  0  0  0  0  0  0  0  0
   -0.3973    0.4027    1.2887 C   0  0  2  0  0  0  0  0  0  0  0  0
    0.1875    1.8259    1.2911 C   0  0  1  0  0  0  0  0  0  0  0  0
   -0.3673    2.6408    2.4237 C   0  0  0  0  0  0  0  0  0  0  0  0
    0.7178    1.6420    2.7123 C   0  0  1  0  0  0  0  0  0  0  0  0
    0.1188    0.2209    2.7586 C   0  0  2  0  0  0  0  0  0  0  0  0
    1.1004   -0.8682    3.1053 C   0  0  0  0  0  0  0  0  0  0  0  0
    1.2752   -1.9027    2.5128 O   0  0  0  0  0  0  0  0  0  0  0  0
    0.1256   -0.4901   -1.7349 H   0  0  0  0  0  0  0  0  0  0  0  0
   -0.1295   -1.5268    0.3447 H   0  0  0  0  0  0  0  0  0  0  0  0
    1.2993   -0.4861    0.2769 H   0  0  0  0  0  0  0  0  0  0  0  0
   -1.4880    0.3680    1.1901 H   0  0  0  0  0  0  0  0  0  0  0  0
    0.6663    2.2797    0.4331 H   0  0  0  0  0  0  0  0  0  0  0  0
   -0.0586    3.6812    2.4438 H   0  0  0  0  0  0  0  0  0  0  0  0
   -1.3798    2.4697    2.7842 H   0  0  0  0  0  0  0  0  0  0  0  0
    1.6735    1.9256    3.1381 H   0  0  0  0  0  0  0  0  0  0  0  0
   -0.6789    0.1245    3.5131 H   0  0  0  0  0  0  0  0  0  0  0  0
    1.6740   -0.6461    4.0373 H   0  0  0  0  0  0  0  0  0  0  0  0
  1  2  1  0  0  0  0
  2 12  1  0  0  0  0
  2 11  1  0  0  0  0
  2  3  1  0  0  0  0
  3 13  1  6  0  0  0
  3  4  1  0  0  0  0
  3  7  1  0  0  0  0
  4 14  1  6  0  0  0
  4  5  1  0  0  0  0
  4  6  1  0  0  0  0
  5 15  1  0  0  0  0
  5  6  1  0  0  0  0
  5 16  1  0  0  0  0
  6  7  1  0  0  0  0
  6 17  1  1  0  0  0
  7  8  1  0  0  0  0
  7 18  1  1  0  0  0
  8 19  1  0  0  0  0
  9  8  2  0  0  0  0
 10  1  1  0  0  0  0
M TOR 0 0 1 2 3
M TOR 1 0 1 2 6
M TOR 2 0 1 2 12
M TOR 3 1 2 3 4
M TOR 4 1 2 3 5
M TOR 5 1 2 3 13
M TOR 6 1 2 6 5
M TOR 7 1 2 6 7
M TOR 8 1 2 6 17
M TOR 9 2 1 0 9
M TOR 10 2 3 4 5
M TOR 11 2 3 4 14
M TOR 12 2 3 4 15
M TOR 13 2 3 5 6
M TOR 14 2 3 5 16
M TOR 15 2 6 5 4
M TOR 16 2 6 5 16
M TOR 17 2 6 7 8
M TOR 18 2 6 7 18
M TOR 19 3 2 1 10
M TOR 20 3 2 1 11
M TOR 21 3 2 6 7
M TOR 22 3 2 6 17
M TOR 23 3 4 5 6
M TOR 24 3 4 5 16
M TOR 25 3 5 4 14
M TOR 26 3 5 4 15
M TOR 27 3 5 6 7
M TOR 28 3 5 6 17
M TOR 29 4 3 2 6
M TOR 30 4 3 2 12
M TOR 31 4 5 3 13
M TOR 32 4 5 6 7
M TOR 33 4 5 6 17
M TOR 34 5 3 2 12
M TOR 35 5 6 2 12
M TOR 36 5 6 7 8
M TOR 37 5 6 7 18
M TOR 38 6 2 1 10
M TOR 39 6 2 1 11
M TOR 40 6 2 3 13
M TOR 41 6 5 3 13
M TOR 42 6 5 4 14
M TOR 43 6 5 4 15
M TOR 44 7 6 2 12
M TOR 45 7 6 5 16
M TOR 46 8 7 6 17
M  END
$$$$
