
     RDKit          3D

 19 20  0  0  0  0  0  0  0  0999 V2000
   -0.0587    0.1379   -0.0965 C   0  0  0  0  0  0  0  0  0  0  0  0
    1.4490    0.1215    0.0233 C   0  0  0  0  0  0  0  0  0  0  0  0
    2.2313   -0.9875   -0.6319 C   0  0  0  0  0  0  0  0  0  0  0  0
    3.5629   -0.7596   -1.0117 O   0  0  0  0  0  0  0  0  0  0  0  0
    4.2623   -0.2247    0.1061 C   0  0  0  0  0  0  0  0  0  0  0  0
    3.5144   -0.6887    1.3915 C   0  0  0  0  0  0  0  0  0  0  0  0
    4.1233   -1.9634    1.9379 C   0  0  0  0  0  0  0  0  0  0  0  0
    4.5219   -2.1065    3.0648 O   0  0  0  0  0  0  0  0  0  0  0  0
    2.1066   -0.9640    0.8667 C   0  0  0  0  0  0  0  0  0  0  0  0
   -0.5223    0.6276    0.7666 H   0  0  0  0  0  0  0  0  0  0  0  0
   -0.3759    0.6714   -0.9987 H   0  0  0  0  0  0  0  0  0  0  0  0
   -0.4612   -0.8792   -0.1536 H   0  0  0  0  0  0  0  0  0  0  0  0
    1.9164    1.1028    0.0398 H   0  0  0  0  0  0  0  0  0  0  0  0
    1.7418   -1.7105   -1.2745 H   0  0  0  0  0  0  0  0  0  0  0  0
    5.2978   -0.5771    0.0538 H   0  0  0  0  0  0  0  0  0  0  0  0
    4.2797    0.8722    0.0678 H   0  0  0  0  0  0  0  0  0  0  0  0
    3.5544    0.0715    2.1763 H   0  0  0  0  0  0  0  0  0  0  0  0
    4.1844   -2.7915    1.1935 H   0  0  0  0  0  0  0  0  0  0  0  0
    1.4750   -1.6615    1.4064 H   0  0  0  0  0  0  0  0  0  0  0  0
  1  2  1  0
  2  3  1  0
  3  4  1  0
  4  5  1  0
  5  6  1  0
  6  7  1  0
  7  8  2  0
  6  9  1  0
  9  2  1  0
  9  3  1  0
  1 10  1  0
  1 11  1  0
  1 12  1  0
  2 13  1  0
  3 14  1  0
  5 15  1  0
  5 16  1  0
  6 17  1  0
  7 18  1  0
  9 19  1  0
M  END
$$$$
