gdb 2531	3.0225231	1.1195992	1.040618	3.49	79.79	-0.22922	-0.03042	0.1988	1257.6351	0.153919	-422.579536	-422.569852	-422.568908	-422.614312	34.514
 OpenBabel02181911413D

 19 19  0  0  1  0  0  0  0  0999 V2000
    1.4103    0.8298   -0.0201 C   0  0  0  0  0  0  0  0  0  0  0  0
    0.0110    0.3294    0.1297 C   0  0  0  0  0  0  0  0  0  0  0  0
   -1.1362    0.9931    0.0043 C   0  0  0  0  0  0  0  0  0  0  0  0
   -2.3135    0.0809    0.2645 C   0  0  2  0  0  0  0  0  0  0  0  0
   -3.2285    0.5317    1.4025 C   0  0  0  0  0  0  0  0  0  0  0  0
   -1.7149   -1.1874    0.5585 O   0  0  0  0  0  0  0  0  0  0  0  0
   -0.2944   -1.1006    0.4977 C   0  0  0  0  0  0  0  0  0  0  0  0
   -3.0968   -0.0736   -1.0488 C   0  0  0  0  0  0  0  0  0  0  0  0
   -4.0518    0.5866   -1.3617 O   0  0  0  0  0  0  0  0  0  0  0  0
    1.9788    0.6945    0.9085 H   0  0  0  0  0  0  0  0  0  0  0  0
    1.9464    0.2730   -0.7987 H   0  0  0  0  0  0  0  0  0  0  0  0
    1.4324    1.8900   -0.2827 H   0  0  0  0  0  0  0  0  0  0  0  0
   -1.2603    2.0380   -0.2507 H   0  0  0  0  0  0  0  0  0  0  0  0
   -3.9561   -0.2527    1.6288 H   0  0  0  0  0  0  0  0  0  0  0  0
   -2.6423    0.7398    2.3007 H   0  0  0  0  0  0  0  0  0  0  0  0
   -3.7754    1.4300    1.1064 H   0  0  0  0  0  0  0  0  0  0  0  0
    0.1440   -1.3799    1.4693 H   0  0  0  0  0  0  0  0  0  0  0  0
    0.0947   -1.8137   -0.2459 H   0  0  0  0  0  0  0  0  0  0  0  0
   -2.6678   -0.8588   -1.7112 H   0  0  0  0  0  0  0  0  0  0  0  0
  1  2  1  0  0  0  0
  1 10  1  0  0  0  0
  2  7  1  0  0  0  0
  3  2  2  0  0  0  0
  3  4  1  0  0  0  0
  4  8  1  6  0  0  0
  4  6  1  0  0  0  0
  4  5  1  0  0  0  0
  5 14  1  0  0  0  0
  5 15  1  0  0  0  0
  7  6  1  0  0  0  0
  7 17  1  0  0  0  0
  9  8  2  0  0  0  0
 11  1  1  0  0  0  0
 12  1  1  0  0  0  0
 13  3  1  0  0  0  0
 16  5  1  0  0  0  0
 18  7  1  0  0  0  0
 19  8  1  0  0  0  0
M TOR 0 0 1 2 3
M TOR 1 0 1 2 12
M TOR 2 0 1 6 5
M TOR 3 0 1 6 16
M TOR 4 0 1 6 17
M TOR 5 1 2 3 4
M TOR 6 1 2 3 5
M TOR 7 1 2 3 7
M TOR 8 1 6 5 3
M TOR 9 2 1 0 9
M TOR 10 2 1 0 10
M TOR 11 2 1 0 11
M TOR 12 2 1 6 5
M TOR 13 2 1 6 16
M TOR 14 2 1 6 17
M TOR 15 2 3 4 13
M TOR 16 2 3 4 14
M TOR 17 2 3 4 15
M TOR 18 2 3 5 6
M TOR 19 2 3 7 8
M TOR 20 2 3 7 18
M TOR 21 3 2 1 6
M TOR 22 3 5 6 16
M TOR 23 3 5 6 17
M TOR 24 4 3 2 12
M TOR 25 4 3 5 6
M TOR 26 4 3 7 8
M TOR 27 4 3 7 18
M TOR 28 5 3 2 12
M TOR 29 5 3 4 13
M TOR 30 5 3 4 14
M TOR 31 5 3 4 15
M TOR 32 5 3 7 8
M TOR 33 5 3 7 18
M TOR 34 6 1 0 9
M TOR 35 6 1 0 10
M TOR 36 6 1 0 11
M TOR 37 6 1 2 12
M TOR 38 6 5 3 7
M TOR 39 7 3 2 12
M TOR 40 7 3 4 13
M TOR 41 7 3 4 14
M TOR 42 7 3 4 15
M  END
$$$$
