gdb 5729	3.3740098	1.07568	0.9013759	3.6648	78.8	-0.23742	-0.02542	0.212	1338.8952	0.154996	-422.529112	-422.519818	-422.518874	-422.563837	33.277
 OpenBabel02181911423D

 19 20  0  0  1  0  0  0  0  0999 V2000
    1.5081    0.2083   -0.2336 C   0  0  0  0  0  0  0  0  0  0  0  0
    0.1232    0.0000   -0.0466 O   0  0  0  0  0  0  0  0  0  0  0  0
   -0.3578    0.4962    1.1612 C   0  0  2  0  0  0  0  0  0  0  0  0
   -0.1739   -0.3484    2.4770 C   0  0  0  0  0  0  0  0  0  0  0  0
   -1.6885   -0.2463    2.7180 C   0  0  0  0  0  0  0  0  0  0  0  0
   -2.4393    0.1796    3.9645 C   0  0  0  0  0  0  0  0  0  0  0  0
   -2.6426   -1.1927    3.4075 C   0  0  0  0  0  0  0  0  0  0  0  0
   -1.8915    0.3613    1.3606 C   0  0  0  0  0  0  0  0  0  0  0  0
   -2.8492    0.6057    0.6840 O   0  0  0  0  0  0  0  0  0  0  0  0
    2.1099   -0.3207    0.5200 H   0  0  0  0  0  0  0  0  0  0  0  0
    1.7608   -0.1798   -1.2228 H   0  0  0  0  0  0  0  0  0  0  0  0
    1.7624    1.2786   -0.1924 H   0  0  0  0  0  0  0  0  0  0  0  0
   -0.0497    1.5443    1.3184 H   0  0  0  0  0  0  0  0  0  0  0  0
    0.1566   -1.3656    2.2503 H   0  0  0  0  0  0  0  0  0  0  0  0
    0.4741    0.0886    3.2393 H   0  0  0  0  0  0  0  0  0  0  0  0
   -1.8549    0.2878    4.8723 H   0  0  0  0  0  0  0  0  0  0  0  0
   -3.2284    0.9128    3.8349 H   0  0  0  0  0  0  0  0  0  0  0  0
   -2.2051   -2.0348    3.9330 H   0  0  0  0  0  0  0  0  0  0  0  0
   -3.5693   -1.4048    2.8844 H   0  0  0  0  0  0  0  0  0  0  0  0
  1 12  1  0  0  0  0
  1  2  1  0  0  0  0
  1 10  1  0  0  0  0
  2  3  1  0  0  0  0
  3 13  1  1  0  0  0
  3  8  1  0  0  0  0
  3  4  1  0  0  0  0
  4  5  1  0  0  0  0
  4 15  1  0  0  0  0
  5  7  1  0  0  0  0
  5  6  1  0  0  0  0
  6 16  1  0  0  0  0
  7 18  1  0  0  0  0
  7  6  1  0  0  0  0
  8  5  1  0  0  0  0
  9  8  2  0  0  0  0
 11  1  1  0  0  0  0
 14  4  1  0  0  0  0
 17  6  1  0  0  0  0
 19  7  1  0  0  0  0
M TOR 0 0 1 2 3
M TOR 1 0 1 2 7
M TOR 2 0 1 2 12
M TOR 3 1 2 3 4
M TOR 4 1 2 3 13
M TOR 5 1 2 3 14
M TOR 6 1 2 7 4
M TOR 7 1 2 7 8
M TOR 8 2 1 0 9
M TOR 9 2 1 0 10
M TOR 10 2 1 0 11
M TOR 11 2 3 4 5
M TOR 12 2 3 4 6
M TOR 13 2 3 4 7
M TOR 14 2 7 4 5
M TOR 15 2 7 4 6
M TOR 16 3 2 7 8
M TOR 17 3 4 5 6
M TOR 18 3 4 5 15
M TOR 19 3 4 5 16
M TOR 20 3 4 6 17
M TOR 21 3 4 6 18
M TOR 22 3 4 7 8
M TOR 23 4 3 2 12
M TOR 24 4 5 6 17
M TOR 25 4 5 6 18
M TOR 26 4 6 5 15
M TOR 27 4 6 5 16
M TOR 28 4 7 2 12
M TOR 29 5 4 3 13
M TOR 30 5 4 3 14
M TOR 31 5 4 7 8
M TOR 32 5 6 4 7
M TOR 33 6 4 3 13
M TOR 34 6 4 3 14
M TOR 35 6 4 7 8
M TOR 36 7 2 3 13
M TOR 37 7 2 3 14
M TOR 38 7 4 3 13
M TOR 39 7 4 3 14
M TOR 40 7 4 5 15
M TOR 41 7 4 5 16
M TOR 42 7 4 6 17
M TOR 43 7 4 6 18
M TOR 44 8 7 2 12
M  END
$$$$
