gdb 3410	2.3109754	1.5673764	1.0838407	2.9971	76.77	-0.23033	-0.01482	0.21551	1156.8286	0.157618	-422.568493	-422.560207	-422.559263	-422.601282	31.463
 OpenBabel02181911413D

 19 20  0  0  1  0  0  0  0  0999 V2000
   -1.1621   -3.3296   -1.4824 C   0  0  0  0  0  0  0  0  0  0  0  0
   -1.2339   -1.8342   -1.2744 C   0  0  1  0  0  0  0  0  0  0  0  0
   -2.3090   -1.2149   -0.4461 C   0  0  2  0  0  0  0  0  0  0  0  0
   -2.8070    0.1651   -0.8301 C   0  0  0  0  0  0  0  0  0  0  0  0
   -1.7613    0.9498   -1.3801 O   0  0  0  0  0  0  0  0  0  0  0  0
   -0.7312    1.2250   -0.4502 C   0  0  0  0  0  0  0  0  0  0  0  0
   -0.1533    0.0010    0.2690 C   0  0  0  0  0  0  0  0  0  0  0  0
    0.8168    0.1224    0.9849 O   0  0  0  0  0  0  0  0  0  0  0  0
   -0.8912   -1.2771    0.1139 C   0  0  2  0  0  0  0  0  0  0  0  0
   -1.5246   -3.8711   -0.6025 H   0  0  0  0  0  0  0  0  0  0  0  0
   -1.7761   -3.6329   -2.3375 H   0  0  0  0  0  0  0  0  0  0  0  0
   -0.1345   -3.6544   -1.6755 H   0  0  0  0  0  0  0  0  0  0  0  0
   -0.8929   -1.2320   -2.1104 H   0  0  0  0  0  0  0  0  0  0  0  0
   -3.0437   -1.8682    0.0167 H   0  0  0  0  0  0  0  0  0  0  0  0
   -3.5741    0.1014   -1.6087 H   0  0  0  0  0  0  0  0  0  0  0  0
   -3.2516    0.6711    0.0437 H   0  0  0  0  0  0  0  0  0  0  0  0
    0.0693    1.7304   -0.9967 H   0  0  0  0  0  0  0  0  0  0  0  0
   -1.0804    1.9154    0.3372 H   0  0  0  0  0  0  0  0  0  0  0  0
   -0.6528   -2.0133    0.8742 H   0  0  0  0  0  0  0  0  0  0  0  0
  1  2  1  0  0  0  0
  1 10  1  0  0  0  0
  2 13  1  6  0  0  0
  2  3  1  0  0  0  0
  2  9  1  0  0  0  0
  3 14  1  1  0  0  0
  3  9  1  0  0  0  0
  4  3  1  0  0  0  0
  4 16  1  0  0  0  0
  5  4  1  0  0  0  0
  5  6  1  0  0  0  0
  6  7  1  0  0  0  0
  6 18  1  0  0  0  0
  7  8  2  0  0  0  0
  9  7  1  0  0  0  0
  9 19  1  1  0  0  0
 11  1  1  0  0  0  0
 12  1  1  0  0  0  0
 15  4  1  0  0  0  0
 17  6  1  0  0  0  0
M TOR 0 0 1 2 3
M TOR 1 0 1 2 8
M TOR 2 0 1 2 13
M TOR 3 0 1 8 6
M TOR 4 0 1 8 18
M TOR 5 1 2 3 4
M TOR 6 1 2 3 14
M TOR 7 1 2 3 15
M TOR 8 1 2 8 6
M TOR 9 1 2 8 18
M TOR 10 1 8 2 3
M TOR 11 1 8 2 13
M TOR 12 1 8 6 5
M TOR 13 1 8 6 7
M TOR 14 2 1 0 9
M TOR 15 2 1 0 10
M TOR 16 2 1 0 11
M TOR 17 2 3 4 5
M TOR 18 2 8 1 12
M TOR 19 2 8 6 5
M TOR 20 2 8 6 7
M TOR 21 3 2 1 12
M TOR 22 3 2 8 6
M TOR 23 3 2 8 18
M TOR 24 3 4 5 6
M TOR 25 3 4 5 16
M TOR 26 3 4 5 17
M TOR 27 4 3 2 8
M TOR 28 4 3 2 13
M TOR 29 4 5 6 7
M TOR 30 4 5 6 8
M TOR 31 5 4 3 14
M TOR 32 5 4 3 15
M TOR 33 5 6 8 18
M TOR 34 6 8 1 12
M TOR 35 6 8 2 13
M TOR 36 7 6 5 16
M TOR 37 7 6 5 17
M TOR 38 7 6 8 18
M TOR 39 8 1 0 9
M TOR 40 8 1 0 10
M TOR 41 8 1 0 11
M TOR 42 8 2 3 14
M TOR 43 8 2 3 15
M TOR 44 8 6 5 16
M TOR 45 8 6 5 17
M  END
$$$$
