gdb 4576	2.7683919	1.3797135	1.014183	3.4443	80.13	-0.25209	-0.05849	0.1936	1185.0554	0.158002	-422.595948	-422.587519	-422.586575	-422.628939	31.93
 OpenBabel02181911413D

 19 19  0  0  1  0  0  0  0  0999 V2000
   -1.2393   -0.4402    1.2114 O   0  0  0  0  0  0  0  0  0  0  0  0
   -1.0740    0.2360   -0.0319 C   0  0  1  0  0  0  0  0  0  0  0  0
   -2.2204    1.2371   -0.1955 C   0  0  0  0  0  0  0  0  0  0  0  0
   -1.9601    2.5306    0.5833 C   0  0  0  0  0  0  0  0  0  0  0  0
   -0.6879    3.2199    0.0688 C   0  0  0  0  0  0  0  0  0  0  0  0
    0.4458    2.2488   -0.0712 C   0  0  0  0  0  0  0  0  0  0  0  0
    0.2816    0.9173   -0.0892 C   0  0  0  0  0  0  0  0  0  0  0  0
    1.4633    0.0462   -0.0784 C   0  0  0  0  0  0  0  0  0  0  0  0
    1.4148   -1.1544    0.1073 O   0  0  0  0  0  0  0  0  0  0  0  0
   -0.5323   -1.0976    1.2485 H   0  0  0  0  0  0  0  0  0  0  0  0
   -1.1165   -0.4957   -0.8533 H   0  0  0  0  0  0  0  0  0  0  0  0
   -2.3412    1.4664   -1.2619 H   0  0  0  0  0  0  0  0  0  0  0  0
   -3.1414    0.7522    0.1402 H   0  0  0  0  0  0  0  0  0  0  0  0
   -2.8143    3.2100    0.5053 H   0  0  0  0  0  0  0  0  0  0  0  0
   -1.8350    2.2860    1.6440 H   0  0  0  0  0  0  0  0  0  0  0  0
   -0.8734    3.6935   -0.9083 H   0  0  0  0  0  0  0  0  0  0  0  0
   -0.3851    4.0385    0.7330 H   0  0  0  0  0  0  0  0  0  0  0  0
    1.4554    2.6551   -0.1346 H   0  0  0  0  0  0  0  0  0  0  0  0
    2.4383    0.5605   -0.2280 H   0  0  0  0  0  0  0  0  0  0  0  0
  1 10  1  0  0  0  0
  2 11  1  6  0  0  0
  2  1  1  0  0  0  0
  3  2  1  0  0  0  0
  3 13  1  0  0  0  0
  3  4  1  0  0  0  0
  4 15  1  0  0  0  0
  5  4  1  0  0  0  0
  5 17  1  0  0  0  0
  6  5  1  0  0  0  0
  7  8  1  0  0  0  0
  7  6  2  0  0  0  0
  7  2  1  0  0  0  0
  8  9  2  0  0  0  0
 12  3  1  0  0  0  0
 14  4  1  0  0  0  0
 16  5  1  0  0  0  0
 18  6  1  0  0  0  0
 19  8  1  0  0  0  0
M TOR 0 0 1 2 3
M TOR 1 0 1 2 11
M TOR 2 0 1 2 12
M TOR 3 0 1 6 5
M TOR 4 0 1 6 7
M TOR 5 1 2 3 4
M TOR 6 1 2 3 13
M TOR 7 1 2 3 14
M TOR 8 1 6 5 4
M TOR 9 1 6 5 17
M TOR 10 1 6 7 8
M TOR 11 1 6 7 18
M TOR 12 2 1 0 9
M TOR 13 2 1 6 5
M TOR 14 2 1 6 7
M TOR 15 2 3 4 5
M TOR 16 2 3 4 15
M TOR 17 2 3 4 16
M TOR 18 3 2 1 6
M TOR 19 3 2 1 10
M TOR 20 3 4 5 6
M TOR 21 3 4 5 17
M TOR 22 4 3 2 11
M TOR 23 4 3 2 12
M TOR 24 4 5 6 7
M TOR 25 5 4 3 13
M TOR 26 5 4 3 14
M TOR 27 5 6 1 10
M TOR 28 5 6 7 8
M TOR 29 5 6 7 18
M TOR 30 6 1 0 9
M TOR 31 6 1 2 11
M TOR 32 6 1 2 12
M TOR 33 6 5 4 15
M TOR 34 6 5 4 16
M TOR 35 7 6 1 10
M TOR 36 7 6 5 17
M  END
$$$$
