gdb 4345	2.4347717	1.5621647	1.0337868	2.9986	76.79	-0.25157	-0.02697	0.22460000000000002	1154.0482	0.158019	-422.590955	-422.582546	-422.581602	-422.624039	32.041
 OpenBabel02181911413D

 19 19  0  0  1  0  0  0  0  0999 V2000
    0.0775   -2.4391    0.2615 O   0  0  0  0  0  0  0  0  0  0  0  0
   -0.8516   -1.4036    0.0987 C   0  0  2  0  0  0  0  0  0  0  0  0
   -1.6271   -1.5986   -1.2359 C   0  0  0  0  0  0  0  0  0  0  0  0
   -2.8671   -0.7576   -1.3893 C   0  0  0  0  0  0  0  0  0  0  0  0
   -2.9057    0.5751   -1.3680 C   0  0  0  0  0  0  0  0  0  0  0  0
   -1.7102    1.4776   -1.1846 C   0  0  0  0  0  0  0  0  0  0  0  0
   -0.9164    1.2331    0.1264 C   0  0  0  0  0  0  0  0  0  0  0  0
   -0.1250   -0.0566    0.1236 C   0  0  0  0  0  0  0  0  0  0  0  0
    1.0905   -0.0577    0.1271 O   0  0  0  0  0  0  0  0  0  0  0  0
    0.9458   -2.0031    0.2382 H   0  0  0  0  0  0  0  0  0  0  0  0
   -1.5807   -1.4187    0.9234 H   0  0  0  0  0  0  0  0  0  0  0  0
   -0.9233   -1.4220   -2.0608 H   0  0  0  0  0  0  0  0  0  0  0  0
   -1.8820   -2.6602   -1.2746 H   0  0  0  0  0  0  0  0  0  0  0  0
   -3.8017   -1.2973   -1.5193 H   0  0  0  0  0  0  0  0  0  0  0  0
   -3.8671    1.0683   -1.4864 H   0  0  0  0  0  0  0  0  0  0  0  0
   -1.0193    1.3816   -2.0334 H   0  0  0  0  0  0  0  0  0  0  0  0
   -2.0388    2.5205   -1.1802 H   0  0  0  0  0  0  0  0  0  0  0  0
   -0.1990    2.0428    0.2832 H   0  0  0  0  0  0  0  0  0  0  0  0
   -1.6197    1.2213    0.9670 H   0  0  0  0  0  0  0  0  0  0  0  0
  2  8  1  0  0  0  0
  2  1  1  0  0  0  0
  2 11  1  1  0  0  0
  3  2  1  0  0  0  0
  4  5  2  0  0  0  0
  4  3  1  0  0  0  0
  5  6  1  0  0  0  0
  6 17  1  0  0  0  0
  6  7  1  0  0  0  0
  7 18  1  0  0  0  0
  7 19  1  0  0  0  0
  8  7  1  0  0  0  0
  8  9  2  0  0  0  0
 10  1  1  0  0  0  0
 12  3  1  0  0  0  0
 13  3  1  0  0  0  0
 14  4  1  0  0  0  0
 15  5  1  0  0  0  0
 16  6  1  0  0  0  0
M TOR 0 0 1 2 3
M TOR 1 0 1 2 11
M TOR 2 0 1 2 12
M TOR 3 0 1 7 6
M TOR 4 0 1 7 8
M TOR 5 1 2 3 4
M TOR 6 1 2 3 13
M TOR 7 1 7 6 5
M TOR 8 1 7 6 17
M TOR 9 1 7 6 18
M TOR 10 2 1 0 9
M TOR 11 2 1 7 6
M TOR 12 2 1 7 8
M TOR 13 2 3 4 5
M TOR 14 2 3 4 14
M TOR 15 3 2 1 7
M TOR 16 3 2 1 10
M TOR 17 3 4 5 6
M TOR 18 3 4 5 15
M TOR 19 3 4 5 16
M TOR 20 4 3 2 11
M TOR 21 4 3 2 12
M TOR 22 4 5 6 7
M TOR 23 4 5 6 17
M TOR 24 4 5 6 18
M TOR 25 5 4 3 13
M TOR 26 5 6 7 8
M TOR 27 6 5 4 14
M TOR 28 6 7 1 10
M TOR 29 7 1 0 9
M TOR 30 7 1 2 11
M TOR 31 7 1 2 12
M TOR 32 7 6 5 15
M TOR 33 7 6 5 16
M TOR 34 8 7 1 10
M TOR 35 8 7 6 17
M TOR 36 8 7 6 18
M  END
$$$$
