gdb 1662	2.8507363	0.9439206	0.8075009	3.9152	78.43	-0.24721	-0.03762	0.20959	1447.93	0.153547	-422.566692	-422.556763	-422.555819	-422.60217	34.842
 OpenBabel02181911403D

 19 19  0  0  1  0  0  0  0  0999 V2000
   -2.3348    4.0833    1.3621 C   0  0  0  0  0  0  0  0  0  0  0  0
   -1.0237    3.3279    1.4663 C   0  0  2  0  0  0  0  0  0  0  0  0
   -0.1247    3.2044    0.2456 C   0  0  0  0  0  0  0  0  0  0  0  0
   -0.8911    2.0007    0.6918 C   0  0  1  0  0  0  0  0  0  0  0  0
   -0.2017    0.7705    1.2505 C   0  0  0  0  0  0  0  0  0  0  0  0
    0.3705   -0.0857    0.1393 C   0  0  0  0  0  0  0  0  0  0  0  0
    0.1767   -1.2666    0.0112 O   0  0  0  0  0  0  0  0  0  0  0  0
   -0.3372    3.4326    2.7824 C   0  0  0  0  0  0  0  0  0  0  0  0
    0.7910    3.0636    3.0187 O   0  0  0  0  0  0  0  0  0  0  0  0
   -3.0546    3.7411    2.1141 H   0  0  0  0  0  0  0  0  0  0  0  0
   -2.1863    5.1594    1.5053 H   0  0  0  0  0  0  0  0  0  0  0  0
   -2.7909    3.9418    0.3787 H   0  0  0  0  0  0  0  0  0  0  0  0
   -0.4350    3.7271   -0.6525 H   0  0  0  0  0  0  0  0  0  0  0  0
    0.9404    3.2246    0.4524 H   0  0  0  0  0  0  0  0  0  0  0  0
   -1.7864    1.7768    0.1163 H   0  0  0  0  0  0  0  0  0  0  0  0
    0.6320    1.0817    1.8920 H   0  0  0  0  0  0  0  0  0  0  0  0
   -0.8838    0.1553    1.8447 H   0  0  0  0  0  0  0  0  0  0  0  0
    1.0121    0.4729   -0.5812 H   0  0  0  0  0  0  0  0  0  0  0  0
   -0.9568    3.8942    3.5838 H   0  0  0  0  0  0  0  0  0  0  0  0
  1  2  1  0  0  0  0
  1 11  1  0  0  0  0
  1 10  1  0  0  0  0
  2  8  1  1  0  0  0
  3 14  1  0  0  0  0
  3  4  1  0  0  0  0
  3  2  1  0  0  0  0
  4 15  1  6  0  0  0
  4  5  1  0  0  0  0
  4  2  1  0  0  0  0
  5 17  1  0  0  0  0
  5 16  1  0  0  0  0
  6  5  1  0  0  0  0
  7  6  2  0  0  0  0
  8  9  2  0  0  0  0
  8 19  1  0  0  0  0
 12  1  1  0  0  0  0
 13  3  1  0  0  0  0
 18  6  1  0  0  0  0
M TOR 0 0 1 2 3
M TOR 1 0 1 2 12
M TOR 2 0 1 2 13
M TOR 3 0 1 3 4
M TOR 4 0 1 3 14
M TOR 5 0 1 7 8
M TOR 6 0 1 7 18
M TOR 7 1 2 3 4
M TOR 8 1 2 3 14
M TOR 9 1 3 2 12
M TOR 10 1 3 2 13
M TOR 11 1 3 4 5
M TOR 12 1 3 4 15
M TOR 13 1 3 4 16
M TOR 14 2 1 0 9
M TOR 15 2 1 0 10
M TOR 16 2 1 0 11
M TOR 17 2 1 7 8
M TOR 18 2 1 7 18
M TOR 19 2 3 1 7
M TOR 20 2 3 4 5
M TOR 21 2 3 4 15
M TOR 22 2 3 4 16
M TOR 23 3 1 0 9
M TOR 24 3 1 0 10
M TOR 25 3 1 0 11
M TOR 26 3 1 7 8
M TOR 27 3 1 7 18
M TOR 28 3 4 5 6
M TOR 29 3 4 5 17
M TOR 30 4 3 1 7
M TOR 31 4 3 2 12
M TOR 32 4 3 2 13
M TOR 33 5 4 3 14
M TOR 34 6 5 4 15
M TOR 35 6 5 4 16
M TOR 36 7 1 0 9
M TOR 37 7 1 0 10
M TOR 38 7 1 0 11
M TOR 39 7 1 2 12
M TOR 40 7 1 2 13
M TOR 41 7 1 3 14
M  END
$$$$
