
     RDKit          3D

 19 19  0  0  0  0  0  0  0  0999 V2000
    1.4468   -0.2774    0.1234 C   0  0  0  0  0  0  0  0  0  0  0  0
    0.0426   -0.1977    0.1861 O   0  0  0  0  0  0  0  0  0  0  0  0
   -0.4104    0.9115    0.9398 C   0  0  0  0  0  0  0  0  0  0  0  0
   -1.9008    0.8565    1.0295 C   0  0  0  0  0  0  0  0  0  0  0  0
   -2.7500    1.8450    0.7336 C   0  0  0  0  0  0  0  0  0  0  0  0
   -4.1879    1.4745    0.9672 C   0  0  0  0  0  0  0  0  0  0  0  0
   -4.0983    0.0285    1.4888 C   0  0  0  0  0  0  0  0  0  0  0  0
   -5.0267   -0.6565    1.8263 O   0  0  0  0  0  0  0  0  0  0  0  0
   -2.6179   -0.3803    1.5085 C   0  0  0  0  0  0  0  0  0  0  0  0
    1.8955   -0.3754    1.1250 H   0  0  0  0  0  0  0  0  0  0  0  0
    1.6975   -1.1631   -0.4650 H   0  0  0  0  0  0  0  0  0  0  0  0
    1.8859    0.6083   -0.3625 H   0  0  0  0  0  0  0  0  0  0  0  0
    0.0317    0.8749    1.9534 H   0  0  0  0  0  0  0  0  0  0  0  0
   -0.0859    1.8597    0.4802 H   0  0  0  0  0  0  0  0  0  0  0  0
   -2.4477    2.8185    0.3626 H   0  0  0  0  0  0  0  0  0  0  0  0
   -4.7005    2.1088    1.7021 H   0  0  0  0  0  0  0  0  0  0  0  0
   -4.8034    1.5055    0.0586 H   0  0  0  0  0  0  0  0  0  0  0  0
   -2.3253   -0.6964    2.5187 H   0  0  0  0  0  0  0  0  0  0  0  0
   -2.4491   -1.2475    0.8593 H   0  0  0  0  0  0  0  0  0  0  0  0
  1  2  1  0
  2  3  1  0
  3  4  1  0
  4  5  2  0
  5  6  1  0
  6  7  1  0
  7  8  2  0
  7  9  1  0
  9  4  1  0
  1 10  1  0
  1 11  1  0
  1 12  1  0
  3 13  1  0
  3 14  1  0
  5 15  1  0
  6 16  1  0
  6 17  1  0
  9 18  1  0
  9 19  1  0
M  END
$$$$
