gdb 4363	3.0186442	1.2625449	0.9497762	5.1173	79.07	-0.25868	-0.03794	0.22074000000000002	1245.9671	0.157908	-422.596567	-422.588064	-422.58712	-422.629794	31.859
 OpenBabel02181911413D

 19 19  0  0  1  0  0  0  0  0999 V2000
   -3.1438   -1.5413    2.8549 C   0  0  0  0  0  0  0  0  0  0  0  0
   -2.3900   -0.8155    1.7329 C   0  0  2  0  0  0  0  0  0  0  0  0
   -0.9531   -1.3344    1.6073 C   0  0  0  0  0  0  0  0  0  0  0  0
   -0.4528   -1.2901    0.2698 O   0  0  0  0  0  0  0  0  0  0  0  0
   -0.2224   -0.1280   -0.3866 C   0  0  0  0  0  0  0  0  0  0  0  0
    0.3043   -0.1801   -1.4704 O   0  0  0  0  0  0  0  0  0  0  0  0
   -0.5950    1.1879    0.1986 C   0  0  0  0  0  0  0  0  0  0  0  0
   -1.4982    1.5353    1.1218 C   0  0  0  0  0  0  0  0  0  0  0  0
   -2.4108    0.6993    1.9649 C   0  0  0  0  0  0  0  0  0  0  0  0
   -3.2265   -2.6126    2.6486 H   0  0  0  0  0  0  0  0  0  0  0  0
   -2.6305   -1.4222    3.8166 H   0  0  0  0  0  0  0  0  0  0  0  0
   -4.1561   -1.1413    2.9701 H   0  0  0  0  0  0  0  0  0  0  0  0
   -2.8830   -1.0389    0.7786 H   0  0  0  0  0  0  0  0  0  0  0  0
   -0.2774   -0.7928    2.2824 H   0  0  0  0  0  0  0  0  0  0  0  0
   -0.9053   -2.3950    1.8655 H   0  0  0  0  0  0  0  0  0  0  0  0
   -0.0623    1.9805   -0.3175 H   0  0  0  0  0  0  0  0  0  0  0  0
   -1.5988    2.6047    1.3055 H   0  0  0  0  0  0  0  0  0  0  0  0
   -2.1604    0.9058    3.0181 H   0  0  0  0  0  0  0  0  0  0  0  0
   -3.4352    1.0801    1.8474 H   0  0  0  0  0  0  0  0  0  0  0  0
  1 12  1  0  0  0  0
  1 11  1  0  0  0  0
  2 13  1  6  0  0  0
  2  9  1  0  0  0  0
  2  1  1  0  0  0  0
  3  2  1  0  0  0  0
  3 15  1  0  0  0  0
  3 14  1  0  0  0  0
  4  3  1  0  0  0  0
  5  7  1  0  0  0  0
  5  4  1  0  0  0  0
  6  5  2  0  0  0  0
  7  8  2  0  0  0  0
  8 17  1  0  0  0  0
  8  9  1  0  0  0  0
  9 18  1  0  0  0  0
 10  1  1  0  0  0  0
 16  7  1  0  0  0  0
 19  9  1  0  0  0  0
M TOR 0 0 1 2 3
M TOR 1 0 1 2 13
M TOR 2 0 1 2 14
M TOR 3 0 1 8 7
M TOR 4 0 1 8 17
M TOR 5 0 1 8 18
M TOR 6 1 2 3 4
M TOR 7 1 8 7 6
M TOR 8 1 8 7 16
M TOR 9 2 1 0 9
M TOR 10 2 1 0 10
M TOR 11 2 1 0 11
M TOR 12 2 1 8 7
M TOR 13 2 1 8 17
M TOR 14 2 1 8 18
M TOR 15 2 3 4 5
M TOR 16 2 3 4 6
M TOR 17 3 2 1 8
M TOR 18 3 2 1 12
M TOR 19 3 4 6 7
M TOR 20 3 4 6 15
M TOR 21 4 3 2 13
M TOR 22 4 3 2 14
M TOR 23 4 6 7 8
M TOR 24 4 6 7 16
M TOR 25 5 4 6 7
M TOR 26 5 4 6 15
M TOR 27 6 7 8 17
M TOR 28 6 7 8 18
M TOR 29 7 8 1 12
M TOR 30 8 1 0 9
M TOR 31 8 1 0 10
M TOR 32 8 1 0 11
M TOR 33 8 1 2 13
M TOR 34 8 1 2 14
M TOR 35 8 7 6 15
M  END
$$$$
