gdb 6024	4.7093533	0.8706005	0.8496796	2.6921	75.41	-0.23572	0.00053	0.23625000000000002	1400.1168	0.15693	-422.506709	-422.498346	-422.497401	-422.54021	31.522
 OpenBabel02181911423D

 19 20  0  0  1  0  0  0  0  0999 V2000
    1.5146    0.9362   -0.0202 O   0  0  0  0  0  0  0  0  0  0  0  0
    0.1958    0.4773    0.2327 C   0  0  0  0  0  0  0  0  0  0  0  0
   -0.7491    1.2535   -0.6788 C   0  0  0  0  0  0  0  0  0  0  0  0
   -2.1961    0.8010   -0.5528 C   0  0  2  0  0  0  0  0  0  0  0  0
   -3.2768    1.7355   -1.2028 C   0  0  2  0  0  0  0  0  0  0  0  0
   -3.1370    2.6166   -0.0392 O   0  0  0  0  0  0  0  0  0  0  0  0
   -3.0167    1.3440    0.6765 C   0  0  1  0  0  0  0  0  0  0  0  0
   -4.3952    0.7104    0.4248 C   0  0  0  0  0  0  0  0  0  0  0  0
   -4.5751    0.9811   -0.8701 C   0  0  0  0  0  0  0  0  0  0  0  0
    2.1143    0.4702    0.5695 H   0  0  0  0  0  0  0  0  0  0  0  0
    0.1051   -0.6036    0.0320 H   0  0  0  0  0  0  0  0  0  0  0  0
   -0.0849    0.6352    1.2869 H   0  0  0  0  0  0  0  0  0  0  0  0
   -0.6723    2.3211   -0.4562 H   0  0  0  0  0  0  0  0  0  0  0  0
   -0.4117    1.1114   -1.7134 H   0  0  0  0  0  0  0  0  0  0  0  0
   -2.3103   -0.2675   -0.7601 H   0  0  0  0  0  0  0  0  0  0  0  0
   -3.1505    2.2296   -2.1657 H   0  0  0  0  0  0  0  0  0  0  0  0
   -2.6237    1.4282    1.6893 H   0  0  0  0  0  0  0  0  0  0  0  0
   -5.0136    0.1817    1.1348 H   0  0  0  0  0  0  0  0  0  0  0  0
   -5.3849    0.7415   -1.5429 H   0  0  0  0  0  0  0  0  0  0  0  0
  1  2  1  0  0  0  0
  1 10  1  0  0  0  0
  2 12  1  0  0  0  0
  3  4  1  0  0  0  0
  3 13  1  0  0  0  0
  3  2  1  0  0  0  0
  4 15  1  6  0  0  0
  4  7  1  0  0  0  0
  5 16  1  6  0  0  0
  5  9  1  0  0  0  0
  5  4  1  0  0  0  0
  5  6  1  0  0  0  0
  6  7  1  0  0  0  0
  7 17  1  1  0  0  0
  8  7  1  0  0  0  0
  8 18  1  0  0  0  0
  9  8  2  0  0  0  0
 11  2  1  0  0  0  0
 14  3  1  0  0  0  0
 19  9  1  0  0  0  0
M TOR 0 0 1 2 3
M TOR 1 0 1 2 12
M TOR 2 0 1 2 13
M TOR 3 1 2 3 4
M TOR 4 1 2 3 6
M TOR 5 1 2 3 14
M TOR 6 2 1 0 9
M TOR 7 2 3 4 5
M TOR 8 2 3 4 8
M TOR 9 2 3 4 15
M TOR 10 2 3 6 5
M TOR 11 2 3 6 7
M TOR 12 2 3 6 16
M TOR 13 3 2 1 10
M TOR 14 3 2 1 11
M TOR 15 3 4 5 6
M TOR 16 3 4 8 7
M TOR 17 3 4 8 18
M TOR 18 3 6 7 8
M TOR 19 3 6 7 17
M TOR 20 4 3 2 12
M TOR 21 4 3 2 13
M TOR 22 4 3 6 7
M TOR 23 4 3 6 16
M TOR 24 4 5 6 7
M TOR 25 4 5 6 16
M TOR 26 4 8 7 6
M TOR 27 4 8 7 17
M TOR 28 5 4 3 14
M TOR 29 5 4 8 7
M TOR 30 5 4 8 18
M TOR 31 5 6 3 14
M TOR 32 5 6 7 8
M TOR 33 5 6 7 17
M TOR 34 6 3 2 12
M TOR 35 6 3 2 13
M TOR 36 6 3 4 8
M TOR 37 6 3 4 15
M TOR 38 6 5 4 8
M TOR 39 6 5 4 15
M TOR 40 6 7 8 18
M TOR 41 7 6 3 14
M TOR 42 7 8 4 15
M TOR 43 8 4 3 14
M TOR 44 8 7 6 16
M  END
$$$$
