
     RDKit          3D

 19 19  0  0  0  0  0  0  0  0999 V2000
    1.4777   -0.0423    0.0711 C   0  0  0  0  0  0  0  0  0  0  0  0
    0.0216   -0.0318    0.0691 C   0  0  0  0  0  0  0  0  0  0  0  0
   -1.1831    0.0067    0.0541 C   0  0  0  0  0  0  0  0  0  0  0  0
   -2.6566    0.0049    0.0819 C   0  0  0  0  0  0  0  0  0  0  0  0
   -3.1662    0.7270    1.1933 O   0  0  0  0  0  0  0  0  0  0  0  0
   -3.1627   -1.4319    0.1088 C   0  0  0  0  0  0  0  0  0  0  0  0
   -2.7656   -2.0990    1.2807 O   0  0  0  0  0  0  0  0  0  0  0  0
   -3.3191   -2.2197   -1.1614 C   0  0  0  0  0  0  0  0  0  0  0  0
   -4.5357   -1.7572   -0.3761 C   0  0  0  0  0  0  0  0  0  0  0  0
    1.8732   -0.0331    1.0926 H   0  0  0  0  0  0  0  0  0  0  0  0
    1.8715   -0.9335   -0.4297 H   0  0  0  0  0  0  0  0  0  0  0  0
    1.8796    0.8350   -0.4473 H   0  0  0  0  0  0  0  0  0  0  0  0
   -3.0416    0.5110   -0.8108 H   0  0  0  0  0  0  0  0  0  0  0  0
   -3.0395    0.1480    1.9565 H   0  0  0  0  0  0  0  0  0  0  0  0
   -1.8026   -2.1754    1.2435 H   0  0  0  0  0  0  0  0  0  0  0  0
   -3.0933   -1.7372   -2.1065 H   0  0  0  0  0  0  0  0  0  0  0  0
   -3.0704   -3.2739   -1.1149 H   0  0  0  0  0  0  0  0  0  0  0  0
   -5.1432   -0.9540   -0.7777 H   0  0  0  0  0  0  0  0  0  0  0  0
   -5.0808   -2.5076    0.1844 H   0  0  0  0  0  0  0  0  0  0  0  0
  1  2  1  0
  2  3  3  0
  3  4  1  0
  4  5  1  0
  4  6  1  0
  6  7  1  0
  6  8  1  0
  8  9  1  0
  9  6  1  0
  1 10  1  0
  1 11  1  0
  1 12  1  0
  4 13  1  0
  5 14  1  0
  7 15  1  0
  8 16  1  0
  8 17  1  0
  9 18  1  0
  9 19  1  0
M  END
$$$$
