gdb 528	2.448994	1.8425166	1.7544702	1.4851	73.07	-0.24761	0.05565	0.30326	920.7935	0.158906	-422.515534	-422.508313	-422.507369	-422.546941	28.805
 OpenBabel02181911403D

 19 21  0  0  1  0  0  0  0  0999 V2000
   -1.3303    2.0406   -0.3331 C   0  0  0  0  0  0  0  0  0  0  0  0
   -0.4736    2.5014   -1.5625 C   0  0  0  0  0  0  0  0  0  0  0  0
    0.7933    1.9765   -0.8377 C   0  0  2  0  0  0  0  0  0  0  0  0
    1.5100    0.7039   -1.2704 C   0  0  0  0  0  0  0  0  0  0  0  0
    0.7447   -0.3486   -0.6681 O   0  0  0  0  0  0  0  0  0  0  0  0
    0.2693    0.1124    0.6079 C   0  0  0  0  0  0  0  0  0  0  0  0
   -0.0335    1.5879    0.3964 C   0  0  2  0  0  0  0  0  0  0  0  0
    0.7902    2.6912    1.0972 C   0  0  0  0  0  0  0  0  0  0  0  0
    1.5484    2.9718   -0.1134 O   0  0  0  0  0  0  0  0  0  0  0  0
   -1.9089    2.8189    0.1706 H   0  0  0  0  0  0  0  0  0  0  0  0
   -1.9962    1.2052   -0.5619 H   0  0  0  0  0  0  0  0  0  0  0  0
   -0.7103    1.9917   -2.4995 H   0  0  0  0  0  0  0  0  0  0  0  0
   -0.4452    3.5784   -1.7370 H   0  0  0  0  0  0  0  0  0  0  0  0
    1.5231    0.5144   -2.3468 H   0  0  0  0  0  0  0  0  0  0  0  0
    2.5425    0.7224   -0.8906 H   0  0  0  0  0  0  0  0  0  0  0  0
   -0.5950   -0.5056    0.8661 H   0  0  0  0  0  0  0  0  0  0  0  0
    1.0427   -0.0250    1.3804 H   0  0  0  0  0  0  0  0  0  0  0  0
    0.2240    3.5680    1.4334 H   0  0  0  0  0  0  0  0  0  0  0  0
    1.4423    2.3495    1.9106 H   0  0  0  0  0  0  0  0  0  0  0  0
  1 10  1  0  0  0  0
  2  3  1  0  0  0  0
  2  1  1  0  0  0  0
  3  9  1  1  0  0  0
  3  7  1  0  0  0  0
  4 15  1  0  0  0  0
  4  3  1  0  0  0  0
  4  5  1  0  0  0  0
  5  6  1  0  0  0  0
  6 16  1  0  0  0  0
  6 17  1  0  0  0  0
  7  1  1  6  0  0  0
  7  6  1  0  0  0  0
  7  8  1  0  0  0  0
  8 18  1  0  0  0  0
  8 19  1  0  0  0  0
  9  8  1  0  0  0  0
 11  1  1  0  0  0  0
 12  2  1  0  0  0  0
 13  2  1  0  0  0  0
 14  4  1  0  0  0  0
M TOR 0 0 1 2 3
M TOR 1 0 1 2 6
M TOR 2 0 1 2 8
M TOR 3 0 6 2 3
M TOR 4 0 6 2 8
M TOR 5 0 6 5 4
M TOR 6 0 6 5 15
M TOR 7 0 6 5 16
M TOR 8 0 6 7 8
M TOR 9 0 6 7 17
M TOR 10 0 6 7 18
M TOR 11 1 0 6 5
M TOR 12 1 0 6 7
M TOR 13 1 2 3 4
M TOR 14 1 2 3 13
M TOR 15 1 2 3 14
M TOR 16 1 2 6 5
M TOR 17 1 2 6 7
M TOR 18 1 2 8 7
M TOR 19 2 1 0 9
M TOR 20 2 1 0 10
M TOR 21 2 3 4 5
M TOR 22 2 6 0 9
M TOR 23 2 6 0 10
M TOR 24 2 6 5 4
M TOR 25 2 6 5 15
M TOR 26 2 6 5 16
M TOR 27 2 6 7 8
M TOR 28 2 6 7 17
M TOR 29 2 6 7 18
M TOR 30 2 8 7 17
M TOR 31 2 8 7 18
M TOR 32 3 2 1 11
M TOR 33 3 2 1 12
M TOR 34 3 2 6 5
M TOR 35 3 2 6 7
M TOR 36 3 2 8 7
M TOR 37 3 4 5 6
M TOR 38 3 4 5 15
M TOR 39 3 4 5 16
M TOR 40 4 3 2 6
M TOR 41 4 3 2 8
M TOR 42 4 5 6 7
M TOR 43 5 4 3 13
M TOR 44 5 4 3 14
M TOR 45 5 6 0 9
M TOR 46 5 6 0 10
M TOR 47 5 6 2 8
M TOR 48 5 6 7 8
M TOR 49 5 6 7 17
M TOR 50 5 6 7 18
M TOR 51 6 0 1 11
M TOR 52 6 0 1 12
M TOR 53 6 2 1 11
M TOR 54 6 2 1 12
M TOR 55 6 2 3 13
M TOR 56 6 2 3 14
M TOR 57 7 6 0 9
M TOR 58 7 6 0 10
M TOR 59 7 6 5 15
M TOR 60 7 6 5 16
M TOR 61 8 2 1 11
M TOR 62 8 2 1 12
M TOR 63 8 2 3 13
M TOR 64 8 2 3 14
M  END
$$$$
