gdb 1811	3.0840174	1.2045359	1.0357855	1.6278	76.18	-0.2564	0.06618	0.32258000000000003	1201.5969	0.156885	-422.486752	-422.478591	-422.477647	-422.5199	31.382
 OpenBabel02181911403D

 19 21  0  0  1  0  0  0  0  0999 V2000
   -1.1595   -0.6637   -0.0176 O   0  0  0  0  0  0  0  0  0  0  0  0
   -0.1930    0.0393   -0.7099 C   0  0  2  0  0  0  0  0  0  0  0  0
   -0.2064    0.2012   -2.2463 C   0  0  0  0  0  0  0  0  0  0  0  0
    1.0530    0.9683   -1.7432 C   0  0  2  0  0  0  0  0  0  0  0  0
    1.3392   -0.2540   -0.8235 C   0  0  0  0  0  0  0  0  0  0  0  0
    0.1421    1.5752   -0.6274 C   0  0  2  0  0  0  0  0  0  0  0  0
    0.7221    2.1906    0.6119 C   0  0  2  0  0  0  0  0  0  0  0  0
   -0.1090    3.0089    1.5095 C   0  0  0  0  0  0  0  0  0  0  0  0
    0.8111    3.6236    0.6113 O   0  0  0  0  0  0  0  0  0  0  0  0
   -0.9298   -0.6644    0.9178 H   0  0  0  0  0  0  0  0  0  0  0  0
   -0.0229   -0.7053   -2.8279 H   0  0  0  0  0  0  0  0  0  0  0  0
   -1.0146    0.8035   -2.6684 H   0  0  0  0  0  0  0  0  0  0  0  0
    1.7736    1.5091   -2.3509 H   0  0  0  0  0  0  0  0  0  0  0  0
    1.6095   -1.1833   -1.3313 H   0  0  0  0  0  0  0  0  0  0  0  0
    1.9629   -0.0962    0.0582 H   0  0  0  0  0  0  0  0  0  0  0  0
   -0.6542    2.2248   -1.0063 H   0  0  0  0  0  0  0  0  0  0  0  0
    1.5957    1.7113    1.0520 H   0  0  0  0  0  0  0  0  0  0  0  0
   -1.1627    3.1571    1.2742 H   0  0  0  0  0  0  0  0  0  0  0  0
    0.1436    3.0826    2.5668 H   0  0  0  0  0  0  0  0  0  0  0  0
  1 10  1  0  0  0  0
  2  6  1  0  0  0  0
  2  1  1  1  0  0  0
  3  4  1  0  0  0  0
  3  2  1  0  0  0  0
  4 13  1  6  0  0  0
  4  5  1  0  0  0  0
  4  6  1  0  0  0  0
  5  2  1  0  0  0  0
  5 15  1  0  0  0  0
  6 16  1  6  0  0  0
  6  7  1  0  0  0  0
  7 17  1  1  0  0  0
  7  8  1  0  0  0  0
  8 19  1  0  0  0  0
  9  7  1  0  0  0  0
  9  8  1  0  0  0  0
 11  3  1  0  0  0  0
 12  3  1  0  0  0  0
 14  5  1  0  0  0  0
 18  8  1  0  0  0  0
M TOR 0 0 1 2 3
M TOR 1 0 1 2 10
M TOR 2 0 1 2 11
M TOR 3 0 1 4 3
M TOR 4 0 1 4 13
M TOR 5 0 1 4 14
M TOR 6 0 1 5 3
M TOR 7 0 1 5 6
M TOR 8 0 1 5 15
M TOR 9 1 2 3 4
M TOR 10 1 2 3 5
M TOR 11 1 2 3 12
M TOR 12 1 4 3 5
M TOR 13 1 4 3 12
M TOR 14 1 5 3 12
M TOR 15 1 5 6 7
M TOR 16 1 5 6 8
M TOR 17 1 5 6 16
M TOR 18 2 1 0 9
M TOR 19 2 1 4 13
M TOR 20 2 1 4 14
M TOR 21 2 1 5 6
M TOR 22 2 1 5 15
M TOR 23 2 3 4 13
M TOR 24 2 3 4 14
M TOR 25 2 3 5 6
M TOR 26 2 3 5 15
M TOR 27 3 5 6 7
M TOR 28 3 5 6 8
M TOR 29 3 5 6 16
M TOR 30 4 1 0 9
M TOR 31 4 1 2 10
M TOR 32 4 1 2 11
M TOR 33 4 1 5 6
M TOR 34 4 1 5 15
M TOR 35 4 3 2 10
M TOR 36 4 3 2 11
M TOR 37 4 3 5 6
M TOR 38 4 3 5 15
M TOR 39 5 1 0 9
M TOR 40 5 1 2 10
M TOR 41 5 1 2 11
M TOR 42 5 1 4 13
M TOR 43 5 1 4 14
M TOR 44 5 3 2 10
M TOR 45 5 3 2 11
M TOR 46 5 3 4 13
M TOR 47 5 3 4 14
M TOR 48 5 6 7 8
M TOR 49 5 6 7 17
M TOR 50 5 6 7 18
M TOR 51 6 5 3 12
M TOR 52 6 8 7 17
M TOR 53 6 8 7 18
M TOR 54 7 6 5 15
M TOR 55 7 8 6 16
M TOR 56 8 6 5 15
M  END
$$$$
