
     RDKit          3D

 19 20  0  0  0  0  0  0  0  0999 V2000
   -3.1797   -1.1077    1.0791 C   0  0  0  0  0  0  0  0  0  0  0  0
   -2.3693   -0.8260   -0.1917 C   0  0  0  0  0  0  0  0  0  0  0  0
   -2.1982    0.6743   -0.4035 C   0  0  0  0  0  0  0  0  0  0  0  0
   -1.3264    0.9980   -1.4804 O   0  0  0  0  0  0  0  0  0  0  0  0
   -0.8095    1.0911   -0.1343 C   0  0  0  0  0  0  0  0  0  0  0  0
   -0.0329   -0.1514    0.2174 C   0  0  0  0  0  0  0  0  0  0  0  0
    1.0658   -0.1824    0.7105 O   0  0  0  0  0  0  0  0  0  0  0  0
   -0.9132   -1.3720   -0.1131 C   0  0  0  0  0  0  0  0  0  0  0  0
   -0.4202   -2.0762   -1.3880 C   0  0  0  0  0  0  0  0  0  0  0  0
   -3.2970   -2.1843    1.2342 H   0  0  0  0  0  0  0  0  0  0  0  0
   -2.6840   -0.6953    1.9654 H   0  0  0  0  0  0  0  0  0  0  0  0
   -4.1803   -0.6665    1.0201 H   0  0  0  0  0  0  0  0  0  0  0  0
   -2.8928   -1.2543   -1.0543 H   0  0  0  0  0  0  0  0  0  0  0  0
   -3.0341    1.3550   -0.2552 H   0  0  0  0  0  0  0  0  0  0  0  0
   -0.4987    2.0750    0.2012 H   0  0  0  0  0  0  0  0  0  0  0  0
   -0.8145   -2.0668    0.7276 H   0  0  0  0  0  0  0  0  0  0  0  0
    0.6283   -2.3684   -1.2803 H   0  0  0  0  0  0  0  0  0  0  0  0
   -1.0089   -2.9792   -1.5789 H   0  0  0  0  0  0  0  0  0  0  0  0
   -0.5102   -1.4153   -2.2534 H   0  0  0  0  0  0  0  0  0  0  0  0
  1  2  1  0
  2  3  1  0
  3  4  1  0
  4  5  1  0
  5  6  1  0
  6  7  2  0
  6  8  1  0
  8  9  1  0
  8  2  1  0
  5  3  1  0
  1 10  1  0
  1 11  1  0
  1 12  1  0
  2 13  1  0
  3 14  1  0
  5 15  1  0
  8 16  1  0
  9 17  1  0
  9 18  1  0
  9 19  1  0
M  END
$$$$
