gdb 5306	3.3002974	1.3774044	1.2105258	1.4721	73.69	-0.22763	0.07458	0.30221	1075.5257	0.158216	-422.525531	-422.517773	-422.516829	-422.557702	30.386
 OpenBabel02181911423D

 19 21  0  0  1  0  0  0  0  0999 V2000
    1.4623    0.5693    0.3061 O   0  0  0  0  0  0  0  0  0  0  0  0
    0.1394    0.0593    0.2045 C   0  0  0  0  0  0  0  0  0  0  0  0
   -0.6708    0.3016    1.4500 C   0  0  2  0  0  0  0  0  0  0  0  0
   -0.8958    1.7320    1.9546 C   0  0  0  0  0  0  0  0  0  0  0  0
   -2.2211    1.6577    2.7635 C   0  0  0  0  0  0  0  0  0  0  0  0
   -2.3730    0.1640    3.0207 C   0  0  2  0  0  0  0  0  0  0  0  0
   -1.1801   -0.2866    3.7559 O   0  0  0  0  0  0  0  0  0  0  0  0
   -0.6425   -0.7772    2.5304 C   0  0  1  0  0  0  0  0  0  0  0  0
   -1.8913   -0.5577    1.7418 C   0  0  2  0  0  0  0  0  0  0  0  0
    1.8570    0.1896    1.0983 H   0  0  0  0  0  0  0  0  0  0  0  0
   -0.3070    0.5820   -0.6494 H   0  0  0  0  0  0  0  0  0  0  0  0
    0.1403   -1.0165   -0.0399 H   0  0  0  0  0  0  0  0  0  0  0  0
   -0.0653    2.0676    2.5807 H   0  0  0  0  0  0  0  0  0  0  0  0
   -0.9659    2.4271    1.1125 H   0  0  0  0  0  0  0  0  0  0  0  0
   -2.1845    2.2264    3.6967 H   0  0  0  0  0  0  0  0  0  0  0  0
   -3.0717    2.0223    2.1756 H   0  0  0  0  0  0  0  0  0  0  0  0
   -3.2890   -0.1701    3.5104 H   0  0  0  0  0  0  0  0  0  0  0  0
    0.0624   -1.6014    2.5737 H   0  0  0  0  0  0  0  0  0  0  0  0
   -2.4468   -1.1760    1.0499 H   0  0  0  0  0  0  0  0  0  0  0  0
  1 10  1  0  0  0  0
  2  1  1  0  0  0  0
  3  2  1  6  0  0  0
  3  9  1  0  0  0  0
  3  4  1  0  0  0  0
  3  8  1  0  0  0  0
  4 13  1  0  0  0  0
  4  5  1  0  0  0  0
  5  6  1  0  0  0  0
  5 15  1  0  0  0  0
  6 17  1  1  0  0  0
  6  7  1  0  0  0  0
  8 18  1  6  0  0  0
  8  7  1  0  0  0  0
  9 19  1  6  0  0  0
  9  8  1  0  0  0  0
  9  6  1  0  0  0  0
 11  2  1  0  0  0  0
 12  2  1  0  0  0  0
 14  4  1  0  0  0  0
 16  5  1  0  0  0  0
M TOR 0 0 1 2 3
M TOR 1 0 1 2 7
M TOR 2 0 1 2 8
M TOR 3 1 2 3 4
M TOR 4 1 2 3 12
M TOR 5 1 2 3 13
M TOR 6 1 2 7 6
M TOR 7 1 2 7 8
M TOR 8 1 2 7 17
M TOR 9 1 2 8 5
M TOR 10 1 2 8 18
M TOR 11 2 1 0 9
M TOR 12 2 3 4 5
M TOR 13 2 3 4 14
M TOR 14 2 3 4 15
M TOR 15 2 7 6 5
M TOR 16 2 7 8 5
M TOR 17 2 7 8 18
M TOR 18 2 8 5 4
M TOR 19 2 8 5 6
M TOR 20 2 8 5 16
M TOR 21 2 8 7 6
M TOR 22 2 8 7 17
M TOR 23 3 2 1 10
M TOR 24 3 2 1 11
M TOR 25 3 2 7 6
M TOR 26 3 2 7 8
M TOR 27 3 2 7 17
M TOR 28 3 2 8 5
M TOR 29 3 2 8 18
M TOR 30 3 4 5 6
M TOR 31 3 4 5 8
M TOR 32 3 4 5 16
M TOR 33 4 3 2 7
M TOR 34 4 3 2 8
M TOR 35 4 5 6 7
M TOR 36 4 5 8 7
M TOR 37 4 5 8 18
M TOR 38 5 4 3 12
M TOR 39 5 4 3 13
M TOR 40 5 6 7 8
M TOR 41 5 6 7 17
M TOR 42 5 8 7 17
M TOR 43 6 5 4 14
M TOR 44 6 5 4 15
M TOR 45 6 5 8 18
M TOR 46 6 7 8 18
M TOR 47 7 2 1 10
M TOR 48 7 2 1 11
M TOR 49 7 2 3 12
M TOR 50 7 2 3 13
M TOR 51 7 6 5 16
M TOR 52 7 8 5 16
M TOR 53 8 2 1 10
M TOR 54 8 2 1 11
M TOR 55 8 2 3 12
M TOR 56 8 2 3 13
M TOR 57 8 5 4 14
M TOR 58 8 5 4 15
M  END
$$$$
