gdb 3043	2.81645	1.2832423	1.0530576	2.816	76.24	-0.24295	-0.02559	0.21736	1183.8173	0.154639	-422.505852	-422.496945	-422.496001	-422.540186	32.696
 OpenBabel02181911413D

 19 20  0  0  1  0  0  0  0  0999 V2000
   -2.1736    1.3196   -1.7035 C   0  0  0  0  0  0  0  0  0  0  0  0
   -2.3699    1.9466   -0.3366 C   0  0  2  0  0  0  0  0  0  0  0  0
   -1.9472    3.4235   -0.1104 C   0  0  1  0  0  0  0  0  0  0  0  0
   -1.8813    3.1719    1.4115 C   0  0  0  0  0  0  0  0  0  0  0  0
   -1.1736    2.0086    0.6715 C   0  0  1  0  0  0  0  0  0  0  0  0
   -0.3108    0.9074    1.2336 C   0  0  0  0  0  0  0  0  0  0  0  0
    0.3928    0.1039    0.1549 C   0  0  0  0  0  0  0  0  0  0  0  0
    0.3044   -1.0910    0.0352 O   0  0  0  0  0  0  0  0  0  0  0  0
   -0.5218    3.0213   -0.2066 O   0  0  0  0  0  0  0  0  0  0  0  0
   -2.1690    0.2266   -1.6391 H   0  0  0  0  0  0  0  0  0  0  0  0
   -2.9880    1.6051   -2.3780 H   0  0  0  0  0  0  0  0  0  0  0  0
   -1.2298    1.6470   -2.1449 H   0  0  0  0  0  0  0  0  0  0  0  0
   -3.3273    1.6696    0.1173 H   0  0  0  0  0  0  0  0  0  0  0  0
   -2.2473    4.3208   -0.6512 H   0  0  0  0  0  0  0  0  0  0  0  0
   -1.2133    3.8376    1.9594 H   0  0  0  0  0  0  0  0  0  0  0  0
   -2.8111    2.9574    1.9441 H   0  0  0  0  0  0  0  0  0  0  0  0
    0.4610    1.3679    1.8661 H   0  0  0  0  0  0  0  0  0  0  0  0
   -0.9099    0.2302    1.8492 H   0  0  0  0  0  0  0  0  0  0  0  0
    1.0195    0.7112   -0.5323 H   0  0  0  0  0  0  0  0  0  0  0  0
  1 10  1  0  0  0  0
  1  2  1  0  0  0  0
  2  3  1  0  0  0  0
  2 13  1  1  0  0  0
  2  5  1  0  0  0  0
  3 14  1  6  0  0  0
  3  4  1  0  0  0  0
  4 16  1  0  0  0  0
  4 15  1  0  0  0  0
  5  6  1  1  0  0  0
  5  4  1  0  0  0  0
  6 18  1  0  0  0  0
  6 17  1  0  0  0  0
  7  6  1  0  0  0  0
  8  7  2  0  0  0  0
  9  3  1  0  0  0  0
  9  5  1  0  0  0  0
 11  1  1  0  0  0  0
 12  1  1  0  0  0  0
 19  7  1  0  0  0  0
M TOR 0 0 1 2 3
M TOR 1 0 1 2 8
M TOR 2 0 1 2 13
M TOR 3 0 1 4 3
M TOR 4 0 1 4 5
M TOR 5 0 1 4 8
M TOR 6 1 2 3 4
M TOR 7 1 2 3 14
M TOR 8 1 2 3 15
M TOR 9 1 2 8 4
M TOR 10 1 4 3 14
M TOR 11 1 4 3 15
M TOR 12 1 4 5 6
M TOR 13 1 4 5 16
M TOR 14 1 4 5 17
M TOR 15 2 1 0 9
M TOR 16 2 1 0 10
M TOR 17 2 1 0 11
M TOR 18 2 1 4 5
M TOR 19 2 3 4 5
M TOR 20 2 3 4 8
M TOR 21 2 8 4 5
M TOR 22 3 2 1 12
M TOR 23 3 4 1 12
M TOR 24 3 4 5 6
M TOR 25 3 4 5 16
M TOR 26 3 4 5 17
M TOR 27 4 1 0 9
M TOR 28 4 1 0 10
M TOR 29 4 1 0 11
M TOR 30 4 1 2 13
M TOR 31 4 3 2 13
M TOR 32 4 5 6 7
M TOR 33 4 5 6 18
M TOR 34 4 8 2 13
M TOR 35 5 4 1 12
M TOR 36 5 4 3 14
M TOR 37 5 4 3 15
M TOR 38 6 5 4 8
M TOR 39 7 6 5 16
M TOR 40 7 6 5 17
M TOR 41 8 2 1 12
M TOR 42 8 2 3 14
M TOR 43 8 2 3 15
M TOR 44 8 4 1 12
M TOR 45 8 4 3 14
M TOR 46 8 4 3 15
M TOR 47 8 4 5 16
M TOR 48 8 4 5 17
M  END
$$$$
