gdb 3429	2.1953887	1.5300935	0.9625178	2.4232	78.88	-0.23664	-0.04326	0.19338	1239.9431	0.155295	-422.603286	-422.593614	-422.59267	-422.637862	34.859
 OpenBabel02181911413D

 19 19  0  0  1  0  0  0  0  0999 V2000
   -2.4035   -2.3796   -0.6186 C   0  0  0  0  0  0  0  0  0  0  0  0
   -1.8443   -1.3061    0.3119 C   0  0  2  0  0  0  0  0  0  0  0  0
   -2.3748    0.1361    0.1332 C   0  0  1  0  0  0  0  0  0  0  0  0
   -3.3594    0.5395    1.0757 O   0  0  0  0  0  0  0  0  0  0  0  0
   -1.1491    0.9975    0.3037 C   0  0  0  0  0  0  0  0  0  0  0  0
   -0.0031    0.3042    0.3236 C   0  0  0  0  0  0  0  0  0  0  0  0
    1.4062    0.7893    0.4097 C   0  0  0  0  0  0  0  0  0  0  0  0
   -0.3201   -1.1461    0.2042 C   0  0  0  0  0  0  0  0  0  0  0  0
    0.4784   -2.0402    0.0368 O   0  0  0  0  0  0  0  0  0  0  0  0
   -1.8627   -3.3180   -0.4716 H   0  0  0  0  0  0  0  0  0  0  0  0
   -3.4673   -2.5602   -0.4334 H   0  0  0  0  0  0  0  0  0  0  0  0
   -2.2869   -2.0913   -1.6690 H   0  0  0  0  0  0  0  0  0  0  0  0
   -2.0477   -1.5751    1.3571 H   0  0  0  0  0  0  0  0  0  0  0  0
   -2.7659    0.2636   -0.8908 H   0  0  0  0  0  0  0  0  0  0  0  0
   -4.1777    0.0779    0.8673 H   0  0  0  0  0  0  0  0  0  0  0  0
   -1.2407    2.0765    0.3750 H   0  0  0  0  0  0  0  0  0  0  0  0
    1.8888    0.4138    1.3189 H   0  0  0  0  0  0  0  0  0  0  0  0
    1.9923    0.4014   -0.4303 H   0  0  0  0  0  0  0  0  0  0  0  0
    1.4624    1.8803    0.4096 H   0  0  0  0  0  0  0  0  0  0  0  0
  1 10  1  0  0  0  0
  1 11  1  0  0  0  0
  1  2  1  0  0  0  0
  2 13  1  1  0  0  0
  3 14  1  6  0  0  0
  3  5  1  0  0  0  0
  3  2  1  0  0  0  0
  3  4  1  0  0  0  0
  5  6  2  0  0  0  0
  5 16  1  0  0  0  0
  6  7  1  0  0  0  0
  7 17  1  0  0  0  0
  8  2  1  0  0  0  0
  8  6  1  0  0  0  0
  9  8  2  0  0  0  0
 12  1  1  0  0  0  0
 15  4  1  0  0  0  0
 18  7  1  0  0  0  0
 19  7  1  0  0  0  0
M TOR 0 0 1 2 3
M TOR 1 0 1 2 4
M TOR 2 0 1 2 13
M TOR 3 0 1 7 5
M TOR 4 0 1 7 8
M TOR 5 1 2 3 14
M TOR 6 1 2 4 5
M TOR 7 1 2 4 15
M TOR 8 1 7 5 4
M TOR 9 1 7 5 6
M TOR 10 2 1 0 9
M TOR 11 2 1 0 10
M TOR 12 2 1 0 11
M TOR 13 2 1 7 5
M TOR 14 2 1 7 8
M TOR 15 2 4 5 6
M TOR 16 2 4 5 7
M TOR 17 3 2 1 7
M TOR 18 3 2 1 12
M TOR 19 3 2 4 5
M TOR 20 3 2 4 15
M TOR 21 4 2 1 7
M TOR 22 4 2 1 12
M TOR 23 4 2 3 14
M TOR 24 4 5 6 16
M TOR 25 4 5 6 17
M TOR 26 4 5 6 18
M TOR 27 4 5 7 8
M TOR 28 5 4 2 13
M TOR 29 5 7 1 12
M TOR 30 6 5 4 15
M TOR 31 6 5 7 8
M TOR 32 7 1 0 9
M TOR 33 7 1 0 10
M TOR 34 7 1 0 11
M TOR 35 7 1 2 13
M TOR 36 7 5 4 15
M TOR 37 7 5 6 16
M TOR 38 7 5 6 17
M TOR 39 7 5 6 18
M TOR 40 8 7 1 12
M  END
$$$$
