
     RDKit          3D

 19 21  0  0  0  0  0  0  0  0999 V2000
    0.2943    0.1883    0.1277 O   0  0  0  0  0  0  0  0  0  0  0  0
   -0.3689    0.8418    1.1860 C   0  0  0  0  0  0  0  0  0  0  0  0
   -1.4796    0.0509    1.9229 C   0  0  0  0  0  0  0  0  0  0  0  0
   -2.0874    1.1776    2.8067 C   0  0  0  0  0  0  0  0  0  0  0  0
   -0.7322    1.0759    3.5188 C   0  0  0  0  0  0  0  0  0  0  0  0
   -0.4235    1.6606    4.7379 O   0  0  0  0  0  0  0  0  0  0  0  0
   -0.6583   -0.4608    3.1840 C   0  0  0  0  0  0  0  0  0  0  0  0
    0.8487   -0.3043    2.9321 C   0  0  0  0  0  0  0  0  0  0  0  0
    0.4558    1.1224    2.4647 C   0  0  0  0  0  0  0  0  0  0  0  0
    0.6418   -0.6485    0.4507 H   0  0  0  0  0  0  0  0  0  0  0  0
   -0.7630    1.7594    0.7412 H   0  0  0  0  0  0  0  0  0  0  0  0
   -2.1061   -0.6131    1.3302 H   0  0  0  0  0  0  0  0  0  0  0  0
   -2.3965    2.1106    2.3245 H   0  0  0  0  0  0  0  0  0  0  0  0
   -2.8913    0.8107    3.4549 H   0  0  0  0  0  0  0  0  0  0  0  0
   -1.1203    1.4389    5.3652 H   0  0  0  0  0  0  0  0  0  0  0  0
   -1.1062   -1.2385    3.8025 H   0  0  0  0  0  0  0  0  0  0  0  0
    1.3915   -0.2754    3.8796 H   0  0  0  0  0  0  0  0  0  0  0  0
    1.3833   -0.9683    2.2433 H   0  0  0  0  0  0  0  0  0  0  0  0
    1.1693    1.9449    2.4559 H   0  0  0  0  0  0  0  0  0  0  0  0
  1  2  1  0
  2  3  1  0
  3  4  1  0
  4  5  1  0
  5  6  1  0
  5  7  1  0
  7  8  1  0
  8  9  1  0
  9  2  1  0
  7  3  1  0
  9  5  1  0
  1 10  1  0
  2 11  1  0
  3 12  1  0
  4 13  1  0
  4 14  1  0
  6 15  1  0
  7 16  1  0
  8 17  1  0
  8 18  1  0
  9 19  1  0
M  END
$$$$
