gdb 1153	3.9778176	1.1197941	1.0249161	1.5652	76.57	-0.26622	0.01365	0.27987	1231.9071	0.156382	-422.550339	-422.541788	-422.540843	-422.584352	31.575
 OpenBabel02181911403D

 19 20  0  0  1  0  0  0  0  0999 V2000
   -0.3118   -1.8999    2.8488 C   0  0  0  0  0  0  0  0  0  0  0  0
   -1.1503   -1.7128    1.6077 C   0  0  0  0  0  0  0  0  0  0  0  0
   -1.6868   -2.5909    0.9837 O   0  0  0  0  0  0  0  0  0  0  0  0
   -1.2207   -0.3971    1.2820 O   0  0  0  0  0  0  0  0  0  0  0  0
   -1.9700   -0.0510    0.1421 C   0  0  1  0  0  0  0  0  0  0  0  0
   -3.4893   -0.2508   -0.1056 C   0  0  0  0  0  0  0  0  0  0  0  0
   -2.9237    0.5266   -1.3322 C   0  0  1  0  0  0  0  0  0  0  0  0
   -2.1212    1.4089   -0.3256 C   0  0  0  0  0  0  0  0  0  0  0  0
   -1.7180   -0.4608   -1.3338 C   0  0  0  0  0  0  0  0  0  0  0  0
   -0.2643   -2.9590    3.0986 H   0  0  0  0  0  0  0  0  0  0  0  0
    0.6959   -1.5086    2.6822 H   0  0  0  0  0  0  0  0  0  0  0  0
   -0.7443   -1.3375    3.6811 H   0  0  0  0  0  0  0  0  0  0  0  0
   -3.8219   -1.2745   -0.2764 H   0  0  0  0  0  0  0  0  0  0  0  0
   -4.1652    0.3031    0.5513 H   0  0  0  0  0  0  0  0  0  0  0  0
   -3.4824    0.8735   -2.1972 H   0  0  0  0  0  0  0  0  0  0  0  0
   -1.2211    1.8961   -0.7088 H   0  0  0  0  0  0  0  0  0  0  0  0
   -2.7034    2.0719    0.3191 H   0  0  0  0  0  0  0  0  0  0  0  0
   -1.9265   -1.4992   -1.5906 H   0  0  0  0  0  0  0  0  0  0  0  0
   -0.7924   -0.0968   -1.7874 H   0  0  0  0  0  0  0  0  0  0  0  0
  1 10  1  0  0  0  0
  1 12  1  0  0  0  0
  2  1  1  0  0  0  0
  3  2  2  0  0  0  0
  4  2  1  0  0  0  0
  5  4  1  1  0  0  0
  6  5  1  0  0  0  0
  6 14  1  0  0  0  0
  7 15  1  6  0  0  0
  7  8  1  0  0  0  0
  7  6  1  0  0  0  0
  8  5  1  0  0  0  0
  8 17  1  0  0  0  0
  9  7  1  0  0  0  0
  9  5  1  0  0  0  0
 11  1  1  0  0  0  0
 13  6  1  0  0  0  0
 16  8  1  0  0  0  0
 18  9  1  0  0  0  0
 19  9  1  0  0  0  0
M TOR 0 0 1 3 4
M TOR 1 1 3 4 5
M TOR 2 1 3 4 7
M TOR 3 1 3 4 8
M TOR 4 2 1 0 9
M TOR 5 2 1 0 10
M TOR 6 2 1 0 11
M TOR 7 2 1 3 4
M TOR 8 3 1 0 9
M TOR 9 3 1 0 10
M TOR 10 3 1 0 11
M TOR 11 3 4 5 6
M TOR 12 3 4 5 12
M TOR 13 3 4 5 13
M TOR 14 3 4 7 6
M TOR 15 3 4 7 15
M TOR 16 3 4 7 16
M TOR 17 3 4 8 6
M TOR 18 3 4 8 17
M TOR 19 3 4 8 18
M TOR 20 4 5 6 7
M TOR 21 4 5 6 8
M TOR 22 4 5 6 14
M TOR 23 4 7 6 8
M TOR 24 4 7 6 14
M TOR 25 4 8 6 14
M TOR 26 5 4 7 15
M TOR 27 5 4 7 16
M TOR 28 5 4 8 17
M TOR 29 5 4 8 18
M TOR 30 5 6 7 15
M TOR 31 5 6 7 16
M TOR 32 5 6 8 17
M TOR 33 5 6 8 18
M TOR 34 7 4 5 12
M TOR 35 7 4 5 13
M TOR 36 7 4 8 17
M TOR 37 7 4 8 18
M TOR 38 7 6 5 12
M TOR 39 7 6 5 13
M TOR 40 7 6 8 17
M TOR 41 7 6 8 18
M TOR 42 8 4 5 12
M TOR 43 8 4 5 13
M TOR 44 8 4 7 15
M TOR 45 8 4 7 16
M TOR 46 8 6 5 12
M TOR 47 8 6 5 13
M TOR 48 8 6 7 15
M TOR 49 8 6 7 16
M  END
$$$$
