gdb 1089	2.5465987	1.410643	1.150649	3.0569	77.5	-0.23674	-0.01768	0.21906	1144.1762	0.154406	-422.541743	-422.532426	-422.531482	-422.57581	34.131
 OpenBabel02181911403D

 19 20  0  0  1  0  0  0  0  0999 V2000
    2.4697    0.0386    2.8184 C   0  0  0  0  0  0  0  0  0  0  0  0
    3.5938    0.0503    1.7960 C   0  0  0  0  0  0  0  0  0  0  0  0
    4.7481    0.2434    2.1263 O   0  0  0  0  0  0  0  0  0  0  0  0
    3.2582   -0.1824    0.3772 C   0  0  1  0  0  0  0  0  0  0  0  0
    1.9636   -0.7652   -0.1881 C   0  0  0  0  0  0  0  0  0  0  0  0
    2.3568    0.6001   -0.6210 C   0  0  1  0  0  0  0  0  0  0  0  0
    1.5485    1.8517   -0.5185 C   0  0  0  0  0  0  0  0  0  0  0  0
    3.3465    0.5448   -1.6406 O   0  0  0  0  0  0  0  0  0  0  0  0
    4.2823   -0.1248   -0.7463 C   0  0  0  0  0  0  0  0  0  0  0  0
    2.0461   -0.9684    2.9040 H   0  0  0  0  0  0  0  0  0  0  0  0
    2.8682    0.3443    3.7862 H   0  0  0  0  0  0  0  0  0  0  0  0
    1.6531    0.7091    2.5295 H   0  0  0  0  0  0  0  0  0  0  0  0
    2.0266   -1.5953   -0.8872 H   0  0  0  0  0  0  0  0  0  0  0  0
    1.1406   -0.8193    0.5167 H   0  0  0  0  0  0  0  0  0  0  0  0
    0.8689    1.8132    0.3367 H   0  0  0  0  0  0  0  0  0  0  0  0
    2.1936    2.7297   -0.4240 H   0  0  0  0  0  0  0  0  0  0  0  0
    0.9421    1.9714   -1.4238 H   0  0  0  0  0  0  0  0  0  0  0  0
    4.6364   -1.0765   -1.1571 H   0  0  0  0  0  0  0  0  0  0  0  0
    5.1275    0.5251   -0.5084 H   0  0  0  0  0  0  0  0  0  0  0  0
  1 10  1  0  0  0  0
  1 11  1  0  0  0  0
  2  3  2  0  0  0  0
  2  1  1  0  0  0  0
  4  2  1  1  0  0  0
  5  4  1  0  0  0  0
  5 14  1  0  0  0  0
  6  7  1  1  0  0  0
  6  5  1  0  0  0  0
  6  4  1  0  0  0  0
  7 16  1  0  0  0  0
  7 15  1  0  0  0  0
  8  9  1  0  0  0  0
  8  6  1  0  0  0  0
  9 19  1  0  0  0  0
  9  4  1  0  0  0  0
 12  1  1  0  0  0  0
 13  5  1  0  0  0  0
 17  7  1  0  0  0  0
 18  9  1  0  0  0  0
M TOR 0 0 1 3 4
M TOR 1 0 1 3 5
M TOR 2 0 1 3 8
M TOR 3 1 3 4 5
M TOR 4 1 3 4 12
M TOR 5 1 3 4 13
M TOR 6 1 3 5 6
M TOR 7 1 3 5 7
M TOR 8 1 3 8 7
M TOR 9 1 3 8 17
M TOR 10 1 3 8 18
M TOR 11 2 1 0 9
M TOR 12 2 1 0 10
M TOR 13 2 1 0 11
M TOR 14 2 1 3 4
M TOR 15 2 1 3 5
M TOR 16 2 1 3 8
M TOR 17 3 1 0 9
M TOR 18 3 1 0 10
M TOR 19 3 1 0 11
M TOR 20 3 4 5 6
M TOR 21 3 4 5 7
M TOR 22 3 5 4 12
M TOR 23 3 5 4 13
M TOR 24 3 5 6 14
M TOR 25 3 5 6 15
M TOR 26 3 5 6 16
M TOR 27 3 5 7 8
M TOR 28 4 3 8 7
M TOR 29 4 3 8 17
M TOR 30 4 3 8 18
M TOR 31 4 5 3 8
M TOR 32 4 5 6 14
M TOR 33 4 5 6 15
M TOR 34 4 5 6 16
M TOR 35 4 5 7 8
M TOR 36 5 3 8 17
M TOR 37 5 3 8 18
M TOR 38 5 7 8 17
M TOR 39 5 7 8 18
M TOR 40 6 5 3 8
M TOR 41 6 5 4 12
M TOR 42 6 5 4 13
M TOR 43 6 5 7 8
M TOR 44 7 5 4 12
M TOR 45 7 5 4 13
M TOR 46 7 5 6 14
M TOR 47 7 5 6 15
M TOR 48 7 5 6 16
M TOR 49 8 3 4 12
M TOR 50 8 3 4 13
M  END
$$$$
