gdb 4205	2.6383223	1.5269312	1.2160993	3.0486	74.37	-0.25354	-0.03524	0.2183	1072.1286	0.158033	-422.569322	-422.561288	-422.560344	-422.60183	31.168
 OpenBabel02181911413D

 19 20  0  0  1  0  0  0  0  0999 V2000
   -0.7149   -0.8372   -1.0692 O   0  0  0  0  0  0  0  0  0  0  0  0
    0.3776   -1.1594   -1.8927 C   0  0  1  0  0  0  0  0  0  0  0  0
    0.4990   -0.3180   -3.1904 C   0  0  0  0  0  0  0  0  0  0  0  0
    1.9598   -0.4134   -3.5947 C   0  0  2  0  0  0  0  0  0  0  0  0
    2.6031   -1.7792   -3.5789 C   0  0  0  0  0  0  0  0  0  0  0  0
    2.7559   -0.8673   -2.3850 C   0  0  2  0  0  0  0  0  0  0  0  0
    1.7806   -1.0458   -1.2189 C   0  0  1  0  0  0  0  0  0  0  0  0
    1.9332    0.1525   -0.3077 C   0  0  0  0  0  0  0  0  0  0  0  0
    1.1103    1.0222   -0.1341 O   0  0  0  0  0  0  0  0  0  0  0  0
   -0.5365    0.0449   -0.7142 H   0  0  0  0  0  0  0  0  0  0  0  0
    0.2253   -2.2093   -2.1622 H   0  0  0  0  0  0  0  0  0  0  0  0
   -0.1977   -0.6669   -3.9587 H   0  0  0  0  0  0  0  0  0  0  0  0
    0.2457    0.7237   -2.9621 H   0  0  0  0  0  0  0  0  0  0  0  0
    2.3625    0.3316   -4.2717 H   0  0  0  0  0  0  0  0  0  0  0  0
    1.9817   -2.6655   -3.5033 H   0  0  0  0  0  0  0  0  0  0  0  0
    3.4863   -1.9165   -4.1933 H   0  0  0  0  0  0  0  0  0  0  0  0
    3.7415   -0.4658   -2.1725 H   0  0  0  0  0  0  0  0  0  0  0  0
    2.0189   -1.9346   -0.6180 H   0  0  0  0  0  0  0  0  0  0  0  0
    2.9179    0.2103    0.2093 H   0  0  0  0  0  0  0  0  0  0  0  0
  1 10  1  0  0  0  0
  2 11  1  6  0  0  0
  2  7  1  0  0  0  0
  2  1  1  0  0  0  0
  3 13  1  0  0  0  0
  3  2  1  0  0  0  0
  4 14  1  6  0  0  0
  4  5  1  0  0  0  0
  4  3  1  0  0  0  0
  4  6  1  0  0  0  0
  5 15  1  0  0  0  0
  5  6  1  0  0  0  0
  6 17  1  1  0  0  0
  6  7  1  0  0  0  0
  7 18  1  1  0  0  0
  7  8  1  0  0  0  0
  8  9  2  0  0  0  0
  8 19  1  0  0  0  0
 12  3  1  0  0  0  0
 16  5  1  0  0  0  0
M TOR 0 0 1 2 3
M TOR 1 0 1 2 11
M TOR 2 0 1 2 12
M TOR 3 0 1 6 5
M TOR 4 0 1 6 7
M TOR 5 0 1 6 17
M TOR 6 1 2 3 4
M TOR 7 1 2 3 5
M TOR 8 1 2 3 13
M TOR 9 1 6 5 3
M TOR 10 1 6 5 4
M TOR 11 1 6 5 16
M TOR 12 1 6 7 8
M TOR 13 1 6 7 18
M TOR 14 2 1 0 9
M TOR 15 2 1 6 5
M TOR 16 2 1 6 7
M TOR 17 2 1 6 17
M TOR 18 2 3 4 5
M TOR 19 2 3 4 14
M TOR 20 2 3 4 15
M TOR 21 2 3 5 6
M TOR 22 2 3 5 16
M TOR 23 3 2 1 6
M TOR 24 3 2 1 10
M TOR 25 3 4 5 6
M TOR 26 3 4 5 16
M TOR 27 3 5 4 14
M TOR 28 3 5 4 15
M TOR 29 3 5 6 7
M TOR 30 3 5 6 17
M TOR 31 4 3 2 11
M TOR 32 4 3 2 12
M TOR 33 4 5 3 13
M TOR 34 4 5 6 7
M TOR 35 4 5 6 17
M TOR 36 5 3 2 11
M TOR 37 5 3 2 12
M TOR 38 5 6 1 10
M TOR 39 5 6 7 8
M TOR 40 5 6 7 18
M TOR 41 6 1 0 9
M TOR 42 6 1 2 11
M TOR 43 6 1 2 12
M TOR 44 6 5 3 13
M TOR 45 6 5 4 14
M TOR 46 6 5 4 15
M TOR 47 7 6 1 10
M TOR 48 7 6 5 16
M TOR 49 8 7 6 17
M  END
$$$$
