gdb 5261	3.2264745	1.546577	1.3773487	1.7709	75.12	-0.23836	0.00991	0.24827	1009.7749	0.157985	-422.552306	-422.544594	-422.54365	-422.584221	30.494
 OpenBabel02181911423D

 19 20  0  0  1  0  0  0  0  0999 V2000
    1.4695   -0.0552   -0.0969 C   0  0  0  0  0  0  0  0  0  0  0  0
    0.0543   -0.0109    0.0301 O   0  0  0  0  0  0  0  0  0  0  0  0
   -0.4212    0.5840    1.1669 C   0  0  1  0  0  0  0  0  0  0  0  0
   -0.0163    0.1111    2.5837 C   0  0  0  0  0  0  0  0  0  0  0  0
   -0.9073    1.1956    3.2370 C   0  0  1  0  0  0  0  0  0  0  0  0
   -0.2803    2.4457    2.5377 C   0  0  0  0  0  0  0  0  0  0  0  0
    0.0003    1.9949    1.2140 O   0  0  0  0  0  0  0  0  0  0  0  0
   -2.2264    0.9466    2.5201 C   0  0  0  0  0  0  0  0  0  0  0  0
   -1.9350    0.5841    1.2675 C   0  0  0  0  0  0  0  0  0  0  0  0
    1.9206   -0.7115    0.6593 H   0  0  0  0  0  0  0  0  0  0  0  0
    1.6762   -0.4648   -1.0873 H   0  0  0  0  0  0  0  0  0  0  0  0
    1.9050    0.9449   -0.0138 H   0  0  0  0  0  0  0  0  0  0  0  0
   -0.3458   -0.9052    2.8016 H   0  0  0  0  0  0  0  0  0  0  0  0
    1.0503    0.2294    2.7918 H   0  0  0  0  0  0  0  0  0  0  0  0
   -0.9350    1.2507    4.3244 H   0  0  0  0  0  0  0  0  0  0  0  0
   -0.9674    3.2993    2.5101 H   0  0  0  0  0  0  0  0  0  0  0  0
    0.6500    2.7535    3.0331 H   0  0  0  0  0  0  0  0  0  0  0  0
   -3.2036    1.1516    2.9383 H   0  0  0  0  0  0  0  0  0  0  0  0
   -2.5928    0.4251    0.4241 H   0  0  0  0  0  0  0  0  0  0  0  0
  1 12  1  0  0  0  0
  1  2  1  0  0  0  0
  1 10  1  0  0  0  0
  3  2  1  6  0  0  0
  3  7  1  0  0  0  0
  3  9  1  0  0  0  0
  3  4  1  0  0  0  0
  4 14  1  0  0  0  0
  4 13  1  0  0  0  0
  4  5  1  0  0  0  0
  5 15  1  1  0  0  0
  6 17  1  0  0  0  0
  6  5  1  0  0  0  0
  7  6  1  0  0  0  0
  8 18  1  0  0  0  0
  8  5  1  0  0  0  0
  9  8  2  0  0  0  0
 11  1  1  0  0  0  0
 16  6  1  0  0  0  0
 19  9  1  0  0  0  0
M TOR 0 0 1 2 3
M TOR 1 0 1 2 6
M TOR 2 0 1 2 8
M TOR 3 1 2 3 4
M TOR 4 1 2 3 12
M TOR 5 1 2 3 13
M TOR 6 1 2 6 5
M TOR 7 1 2 8 7
M TOR 8 1 2 8 18
M TOR 9 2 1 0 9
M TOR 10 2 1 0 10
M TOR 11 2 1 0 11
M TOR 12 2 3 4 5
M TOR 13 2 3 4 7
M TOR 14 2 3 4 14
M TOR 15 2 6 5 4
M TOR 16 2 6 5 15
M TOR 17 2 6 5 16
M TOR 18 2 8 7 4
M TOR 19 2 8 7 17
M TOR 20 3 2 6 5
M TOR 21 3 2 8 7
M TOR 22 3 2 8 18
M TOR 23 3 4 5 6
M TOR 24 3 4 5 15
M TOR 25 3 4 5 16
M TOR 26 3 4 7 8
M TOR 27 3 4 7 17
M TOR 28 4 3 2 6
M TOR 29 4 3 2 8
M TOR 30 4 7 8 18
M TOR 31 5 4 3 12
M TOR 32 5 4 3 13
M TOR 33 5 4 7 8
M TOR 34 5 4 7 17
M TOR 35 5 6 2 8
M TOR 36 6 2 3 12
M TOR 37 6 2 3 13
M TOR 38 6 2 8 7
M TOR 39 6 2 8 18
M TOR 40 6 5 4 7
M TOR 41 6 5 4 14
M TOR 42 7 4 3 12
M TOR 43 7 4 3 13
M TOR 44 7 4 5 15
M TOR 45 7 4 5 16
M TOR 46 8 2 3 12
M TOR 47 8 2 3 13
M TOR 48 8 7 4 14
M  END
$$$$
