gdb 540	3.1290624	1.6532778	1.3406571	1.6041	74.	-0.23672	0.06462	0.30134	993.3472	0.159164	-422.524323	-422.517145	-422.5162	-422.555848	28.419
 OpenBabel02181911403D

 19 21  0  0  1  0  0  0  0  0999 V2000
   -1.3895    3.0041    0.9296 C   0  0  0  0  0  0  0  0  0  0  0  0
   -1.5642    1.8999   -0.0026 O   0  0  0  0  0  0  0  0  0  0  0  0
   -0.2418    1.4423    0.2641 C   0  0  1  0  0  0  0  0  0  0  0  0
    0.0475   -0.0400    0.3247 C   0  0  0  0  0  0  0  0  0  0  0  0
    1.4610   -0.1235    0.1966 O   0  0  0  0  0  0  0  0  0  0  0  0
    1.8666    0.8631   -0.7623 C   0  0  0  0  0  0  0  0  0  0  0  0
    0.9346    2.0610   -0.5725 C   0  0  2  0  0  0  0  0  0  0  0  0
    1.2245    3.0432    0.6060 C   0  0  0  0  0  0  0  0  0  0  0  0
   -0.0002    2.4922    1.3763 C   0  0  1  0  0  0  0  0  0  0  0  0
   -1.3971    3.9758    0.4194 H   0  0  0  0  0  0  0  0  0  0  0  0
   -2.1696    2.9935    1.6980 H   0  0  0  0  0  0  0  0  0  0  0  0
   -0.2332   -0.5177    1.2670 H   0  0  0  0  0  0  0  0  0  0  0  0
   -0.4759   -0.5518   -0.5016 H   0  0  0  0  0  0  0  0  0  0  0  0
    2.9234    1.0770   -0.5774 H   0  0  0  0  0  0  0  0  0  0  0  0
    1.7665    0.4608   -1.7826 H   0  0  0  0  0  0  0  0  0  0  0  0
    0.6415    2.5292   -1.5132 H   0  0  0  0  0  0  0  0  0  0  0  0
    2.1694    2.8291    1.1135 H   0  0  0  0  0  0  0  0  0  0  0  0
    1.1975    4.1079    0.3578 H   0  0  0  0  0  0  0  0  0  0  0  0
    0.1105    2.2415    2.4313 H   0  0  0  0  0  0  0  0  0  0  0  0
  1  9  1  0  0  0  0
  1 11  1  0  0  0  0
  2  1  1  0  0  0  0
  3  2  1  6  0  0  0
  3  4  1  0  0  0  0
  3  9  1  0  0  0  0
  4 12  1  0  0  0  0
  5  4  1  0  0  0  0
  6 14  1  0  0  0  0
  6  7  1  0  0  0  0
  6  5  1  0  0  0  0
  7 16  1  6  0  0  0
  7  3  1  0  0  0  0
  7  8  1  0  0  0  0
  8 17  1  0  0  0  0
  8  9  1  0  0  0  0
  9 19  1  1  0  0  0
 10  1  1  0  0  0  0
 13  4  1  0  0  0  0
 15  6  1  0  0  0  0
 18  8  1  0  0  0  0
M TOR 0 0 1 2 3
M TOR 1 0 1 2 6
M TOR 2 0 1 2 8
M TOR 3 0 8 2 3
M TOR 4 0 8 2 6
M TOR 5 0 8 7 6
M TOR 6 0 8 7 16
M TOR 7 0 8 7 17
M TOR 8 1 0 8 7
M TOR 9 1 0 8 18
M TOR 10 1 2 3 4
M TOR 11 1 2 3 11
M TOR 12 1 2 3 12
M TOR 13 1 2 6 5
M TOR 14 1 2 6 7
M TOR 15 1 2 6 15
M TOR 16 1 2 8 7
M TOR 17 1 2 8 18
M TOR 18 2 1 0 9
M TOR 19 2 1 0 10
M TOR 20 2 3 4 5
M TOR 21 2 6 5 4
M TOR 22 2 6 5 13
M TOR 23 2 6 5 14
M TOR 24 2 6 7 8
M TOR 25 2 6 7 16
M TOR 26 2 6 7 17
M TOR 27 2 8 0 9
M TOR 28 2 8 0 10
M TOR 29 2 8 7 16
M TOR 30 2 8 7 17
M TOR 31 3 2 6 5
M TOR 32 3 2 6 7
M TOR 33 3 2 6 15
M TOR 34 3 2 8 7
M TOR 35 3 2 8 18
M TOR 36 3 4 5 6
M TOR 37 3 4 5 13
M TOR 38 3 4 5 14
M TOR 39 4 3 2 6
M TOR 40 4 3 2 8
M TOR 41 4 5 6 7
M TOR 42 4 5 6 15
M TOR 43 5 4 3 11
M TOR 44 5 4 3 12
M TOR 45 5 6 2 8
M TOR 46 5 6 7 8
M TOR 47 5 6 7 16
M TOR 48 5 6 7 17
M TOR 49 6 2 3 11
M TOR 50 6 2 3 12
M TOR 51 6 2 8 18
M TOR 52 6 7 8 18
M TOR 53 7 6 5 13
M TOR 54 7 6 5 14
M TOR 55 7 8 0 9
M TOR 56 7 8 0 10
M TOR 57 8 2 3 11
M TOR 58 8 2 3 12
M TOR 59 8 2 6 15
M TOR 60 8 7 6 15
M  END
$$$$
