
     RDKit          3D

 19 19  0  0  0  0  0  0  0  0999 V2000
   -2.8195    2.8436    1.3589 O   0  0  0  0  0  0  0  0  0  0  0  0
   -1.4345    3.0581    1.4265 C   0  0  0  0  0  0  0  0  0  0  0  0
   -0.8137    4.2284    0.6105 C   0  0  0  0  0  0  0  0  0  0  0  0
    0.3095    3.2629    0.1374 C   0  0  0  0  0  0  0  0  0  0  0  0
   -0.5203    2.0587    0.6356 C   0  0  0  0  0  0  0  0  0  0  0  0
   -1.2303    1.4719   -0.4482 O   0  0  0  0  0  0  0  0  0  0  0  0
   -1.8260    0.2169   -0.1305 C   0  0  0  0  0  0  0  0  0  0  0  0
   -0.8513   -0.8662    0.0163 C   0  0  0  0  0  0  0  0  0  0  0  0
   -0.0510   -1.7543    0.1399 C   0  0  0  0  0  0  0  0  0  0  0  0
   -3.0157    2.6853    0.4270 H   0  0  0  0  0  0  0  0  0  0  0  0
   -1.1724    3.1038    2.4872 H   0  0  0  0  0  0  0  0  0  0  0  0
   -1.4733    4.5285   -0.2090 H   0  0  0  0  0  0  0  0  0  0  0  0
   -0.5193    5.1223    1.1644 H   0  0  0  0  0  0  0  0  0  0  0  0
    0.5341    3.2475   -0.9303 H   0  0  0  0  0  0  0  0  0  0  0  0
    1.2423    3.3764    0.6948 H   0  0  0  0  0  0  0  0  0  0  0  0
    0.0058    1.2850    1.2047 H   0  0  0  0  0  0  0  0  0  0  0  0
   -2.4352    0.2967    0.7798 H   0  0  0  0  0  0  0  0  0  0  0  0
   -2.5028   -0.0072   -0.9623 H   0  0  0  0  0  0  0  0  0  0  0  0
    0.6519   -2.5436    0.2446 H   0  0  0  0  0  0  0  0  0  0  0  0
  1  2  1  0
  2  3  1  0
  3  4  1  0
  4  5  1  0
  5  6  1  0
  6  7  1  0
  7  8  1  0
  8  9  3  0
  5  2  1  0
  1 10  1  0
  2 11  1  0
  3 12  1  0
  3 13  1  0
  4 14  1  0
  4 15  1  0
  5 16  1  0
  7 17  1  0
  7 18  1  0
  9 19  1  0
M  END
$$$$
