gdb 1374	2.3495003	1.0581953	0.9497772	2.7906	77.72	-0.2542	-0.02162	0.23257999999999998	1343.006	0.152533	-422.536214	-422.525601	-422.524657	-422.572039	37.609
 OpenBabel02181911403D

 19 18  0  0  1  0  0  0  0  0999 V2000
    2.5971    1.6372   -1.7963 C   0  0  0  0  0  0  0  0  0  0  0  0
    3.1580    1.2912   -0.4124 C   0  0  2  0  0  0  0  0  0  0  0  0
    4.6907    1.2341   -0.4366 C   0  0  0  0  0  0  0  0  0  0  0  0
    5.3605    1.2942    0.9148 C   0  0  0  0  0  0  0  0  0  0  0  0
    4.7858    1.3597    1.9733 O   0  0  0  0  0  0  0  0  0  0  0  0
    2.5921   -0.0533    0.1244 C   0  0  2  0  0  0  0  0  0  0  0  0
    2.9807   -1.1574   -0.6967 O   0  0  0  0  0  0  0  0  0  0  0  0
    1.1395   -0.0029    0.3016 C   0  0  0  0  0  0  0  0  0  0  0  0
   -0.0573    0.0339    0.4126 C   0  0  0  0  0  0  0  0  0  0  0  0
    2.9110    0.9018   -2.5459 H   0  0  0  0  0  0  0  0  0  0  0  0
    1.5040    1.6665   -1.7808 H   0  0  0  0  0  0  0  0  0  0  0  0
    2.9567    2.6159   -2.1281 H   0  0  0  0  0  0  0  0  0  0  0  0
    2.8518    2.0609    0.3048 H   0  0  0  0  0  0  0  0  0  0  0  0
    5.0311    0.3170   -0.9381 H   0  0  0  0  0  0  0  0  0  0  0  0
    5.1078    2.0591   -1.0323 H   0  0  0  0  0  0  0  0  0  0  0  0
    6.4740    1.2801    0.8746 H   0  0  0  0  0  0  0  0  0  0  0  0
    3.0552   -0.2415    1.0978 H   0  0  0  0  0  0  0  0  0  0  0  0
    2.3684   -1.1997   -1.4387 H   0  0  0  0  0  0  0  0  0  0  0  0
   -1.1125    0.0591    0.5320 H   0  0  0  0  0  0  0  0  0  0  0  0
  1 11  1  0  0  0  0
  1  2  1  0  0  0  0
  2  6  1  0  0  0  0
  2 13  1  1  0  0  0
  3  2  1  0  0  0  0
  3  4  1  0  0  0  0
  4  5  2  0  0  0  0
  6  8  1  0  0  0  0
  6 17  1  1  0  0  0
  7  6  1  0  0  0  0
  8  9  3  0  0  0  0
  9 19  1  0  0  0  0
 10  1  1  0  0  0  0
 12  1  1  0  0  0  0
 14  3  1  0  0  0  0
 15  3  1  0  0  0  0
 16  4  1  0  0  0  0
 18  7  1  0  0  0  0
M TOR 0 0 1 2 3
M TOR 1 0 1 2 13
M TOR 2 0 1 2 14
M TOR 3 0 1 5 6
M TOR 4 0 1 5 7
M TOR 5 0 1 5 16
M TOR 6 1 2 3 4
M TOR 7 1 2 3 15
M TOR 8 1 5 6 17
M TOR 9 1 5 7 8
M TOR 10 2 1 0 9
M TOR 11 2 1 0 10
M TOR 12 2 1 0 11
M TOR 13 2 1 5 6
M TOR 14 2 1 5 7
M TOR 15 2 1 5 16
M TOR 16 3 2 1 5
M TOR 17 3 2 1 12
M TOR 18 4 3 2 13
M TOR 19 4 3 2 14
M TOR 20 5 1 0 9
M TOR 21 5 1 0 10
M TOR 22 5 1 0 11
M TOR 23 5 1 2 13
M TOR 24 5 1 2 14
M TOR 25 5 7 8 18
M TOR 26 6 5 1 12
M TOR 27 6 5 7 8
M TOR 28 7 5 1 12
M TOR 29 7 5 6 17
M TOR 30 8 7 5 16
M  END
$$$$
