
     RDKit          3D

 19 21  0  0  0  0  0  0  0  0999 V2000
   -0.3741    1.2199    0.0045 O   0  0  0  0  0  0  0  0  0  0  0  0
   -0.7293    0.1021    0.7901 C   0  0  0  0  0  0  0  0  0  0  0  0
   -0.7801    0.4545    2.3295 C   0  0  0  0  0  0  0  0  0  0  0  0
   -2.2631    0.4215    2.7286 C   0  0  0  0  0  0  0  0  0  0  0  0
   -3.2608    1.6066    2.6183 C   0  0  0  0  0  0  0  0  0  0  0  0
   -4.3467    0.6261    2.0614 C   0  0  0  0  0  0  0  0  0  0  0  0
   -2.9919    0.3409    1.3745 C   0  0  0  0  0  0  0  0  0  0  0  0
   -2.1587   -0.4327    0.3997 C   0  0  0  0  0  0  0  0  0  0  0  0
   -2.8204    1.8409    1.2329 O   0  0  0  0  0  0  0  0  0  0  0  0
   -1.0250    1.9021    0.2248 H   0  0  0  0  0  0  0  0  0  0  0  0
    0.0341   -0.6531    0.5835 H   0  0  0  0  0  0  0  0  0  0  0  0
   -0.2246   -0.2829    2.9161 H   0  0  0  0  0  0  0  0  0  0  0  0
   -0.2885    1.4185    2.4739 H   0  0  0  0  0  0  0  0  0  0  0  0
   -2.5229   -0.3417    3.4669 H   0  0  0  0  0  0  0  0  0  0  0  0
   -3.4006    2.4819    3.2543 H   0  0  0  0  0  0  0  0  0  0  0  0
   -4.7451   -0.1398    2.7310 H   0  0  0  0  0  0  0  0  0  0  0  0
   -5.1106    1.0968    1.4424 H   0  0  0  0  0  0  0  0  0  0  0  0
   -2.2559   -1.5068    0.5939 H   0  0  0  0  0  0  0  0  0  0  0  0
   -2.3625   -0.2371   -0.6549 H   0  0  0  0  0  0  0  0  0  0  0  0
  1  2  1  0
  2  3  1  0
  3  4  1  0
  4  5  1  0
  5  6  1  0
  6  7  1  0
  7  8  1  0
  7  9  1  0
  8  2  1  0
  7  4  1  0
  9  5  1  0
  1 10  1  0
  2 11  1  0
  3 12  1  0
  3 13  1  0
  4 14  1  0
  5 15  1  0
  6 16  1  0
  6 17  1  0
  8 18  1  0
  8 19  1  0
M  END
$$$$
