gdb 1750	2.375973	1.7378796	1.6932154	2.2012	73.69	-0.23224	0.0736	0.30584	950.5723	0.159102	-422.529626	-422.522244	-422.5213	-422.560895	30.035
 OpenBabel02181911403D

 19 21  0  0  1  0  0  0  0  0999 V2000
    0.4290    0.6938    0.2535 O   0  0  0  0  0  0  0  0  0  0  0  0
   -0.8475    0.4952    0.7423 C   0  0  2  0  0  0  0  0  0  0  0  0
   -1.5077    0.7695    2.1104 C   0  0  2  0  0  0  0  0  0  0  0  0
   -2.3178   -0.5175    1.9768 C   0  0  0  0  0  0  0  0  0  0  0  0
   -1.7254   -0.7566    0.5406 C   0  0  1  0  0  0  0  0  0  0  0  0
   -2.7095   -0.6456   -0.6378 C   0  0  0  0  0  0  0  0  0  0  0  0
   -3.0094    0.8360   -0.9317 C   0  0  0  0  0  0  0  0  0  0  0  0
   -3.0368    1.6167    0.2633 O   0  0  0  0  0  0  0  0  0  0  0  0
   -1.7859    1.6350    0.8966 C   0  0  2  0  0  0  0  0  0  0  0  0
    1.0031    0.0120    0.6207 H   0  0  0  0  0  0  0  0  0  0  0  0
   -1.1061    1.1940    3.0226 H   0  0  0  0  0  0  0  0  0  0  0  0
   -2.0069   -1.2919    2.6816 H   0  0  0  0  0  0  0  0  0  0  0  0
   -3.4038   -0.4011    2.0241 H   0  0  0  0  0  0  0  0  0  0  0  0
   -1.1495   -1.6843    0.4968 H   0  0  0  0  0  0  0  0  0  0  0  0
   -2.2985   -1.1118   -1.5404 H   0  0  0  0  0  0  0  0  0  0  0  0
   -3.6307   -1.1858   -0.3919 H   0  0  0  0  0  0  0  0  0  0  0  0
   -2.2480    1.2418   -1.6137 H   0  0  0  0  0  0  0  0  0  0  0  0
   -3.9871    0.9651   -1.4027 H   0  0  0  0  0  0  0  0  0  0  0  0
   -1.3198    2.6181    0.9189 H   0  0  0  0  0  0  0  0  0  0  0  0
  1 10  1  0  0  0  0
  2  1  1  6  0  0  0
  2  9  1  0  0  0  0
  2  3  1  0  0  0  0
  3 11  1  1  0  0  0
  4 13  1  0  0  0  0
  4  3  1  0  0  0  0
  4 12  1  0  0  0  0
  5 14  1  6  0  0  0
  5  2  1  0  0  0  0
  5  4  1  0  0  0  0
  6 16  1  0  0  0  0
  6  5  1  0  0  0  0
  7  6  1  0  0  0  0
  7  8  1  0  0  0  0
  8  9  1  0  0  0  0
  9 19  1  1  0  0  0
  9  3  1  0  0  0  0
 15  6  1  0  0  0  0
 17  7  1  0  0  0  0
 18  7  1  0  0  0  0
M TOR 0 0 1 2 3
M TOR 1 0 1 2 8
M TOR 2 0 1 2 10
M TOR 3 0 1 4 3
M TOR 4 0 1 4 5
M TOR 5 0 1 4 13
M TOR 6 0 1 8 7
M TOR 7 0 1 8 18
M TOR 8 1 2 3 4
M TOR 9 1 2 3 11
M TOR 10 1 2 3 12
M TOR 11 1 2 8 7
M TOR 12 1 2 8 18
M TOR 13 1 4 3 11
M TOR 14 1 4 3 12
M TOR 15 1 4 5 6
M TOR 16 1 4 5 14
M TOR 17 1 4 5 15
M TOR 18 1 8 2 3
M TOR 19 1 8 2 10
M TOR 20 1 8 7 6
M TOR 21 2 1 0 9
M TOR 22 2 1 4 5
M TOR 23 2 1 4 13
M TOR 24 2 3 4 5
M TOR 25 2 3 4 13
M TOR 26 2 8 1 4
M TOR 27 2 8 7 6
M TOR 28 3 2 8 7
M TOR 29 3 2 8 18
M TOR 30 3 4 1 8
M TOR 31 3 4 5 6
M TOR 32 3 4 5 14
M TOR 33 3 4 5 15
M TOR 34 4 1 0 9
M TOR 35 4 1 2 10
M TOR 36 4 1 8 7
M TOR 37 4 1 8 18
M TOR 38 4 3 2 8
M TOR 39 4 3 2 10
M TOR 40 4 5 6 7
M TOR 41 4 5 6 16
M TOR 42 4 5 6 17
M TOR 43 5 4 1 8
M TOR 44 5 4 3 11
M TOR 45 5 4 3 12
M TOR 46 5 6 7 8
M TOR 47 6 5 4 13
M TOR 48 6 7 8 18
M TOR 49 7 6 5 14
M TOR 50 7 6 5 15
M TOR 51 7 8 2 10
M TOR 52 8 1 0 9
M TOR 53 8 1 4 13
M TOR 54 8 2 3 11
M TOR 55 8 2 3 12
M TOR 56 8 7 6 16
M TOR 57 8 7 6 17
M  END
$$$$
