gdb 1837	2.3137149	1.8878868	1.4832647	0.4549	74.59	-0.25338	0.08398	0.33736	985.3535	0.156886	-422.524385	-422.516436	-422.515492	-422.556357	31.143
 OpenBabel02181911403D

 19 21  0  0  1  0  0  0  0  0999 V2000
   -0.0199   -0.0041    0.1757 C   0  0  0  0  0  0  0  0  0  0  0  0
    1.4429    0.1984   -0.0884 C   0  0  1  0  0  0  0  0  0  0  0  0
    1.9092    1.0813   -1.2724 C   0  0  0  0  0  0  0  0  0  0  0  0
    3.4365    1.1211   -0.9400 C   0  0  0  0  0  0  0  0  0  0  0  0
    3.3891    0.2477    0.3300 C   0  0  1  0  0  0  0  0  0  0  0  0
    2.2157    0.7692    1.0285 O   0  0  0  0  0  0  0  0  0  0  0  0
    2.5006   -0.9165   -0.1028 C   0  0  1  0  0  0  0  0  0  0  0  0
    2.4539   -2.3192    0.2651 C   0  0  0  0  0  0  0  0  0  0  0  0
    2.7362   -1.8874   -1.0906 O   0  0  0  0  0  0  0  0  0  0  0  0
   -0.1753   -0.6001    1.0791 H   0  0  0  0  0  0  0  0  0  0  0  0
   -0.5256    0.9580    0.3053 H   0  0  0  0  0  0  0  0  0  0  0  0
   -0.4854   -0.5206   -0.6700 H   0  0  0  0  0  0  0  0  0  0  0  0
    1.6920    0.6198   -2.2393 H   0  0  0  0  0  0  0  0  0  0  0  0
    1.4395    2.0668   -1.2350 H   0  0  0  0  0  0  0  0  0  0  0  0
    4.0603    0.6823   -1.7228 H   0  0  0  0  0  0  0  0  0  0  0  0
    3.7968    2.1275   -0.7182 H   0  0  0  0  0  0  0  0  0  0  0  0
    4.2764    0.1450    0.9531 H   0  0  0  0  0  0  0  0  0  0  0  0
    3.2931   -2.7754    0.7874 H   0  0  0  0  0  0  0  0  0  0  0  0
    1.4963   -2.8199    0.3971 H   0  0  0  0  0  0  0  0  0  0  0  0
  1 11  1  0  0  0  0
  1 10  1  0  0  0  0
  2  1  1  1  0  0  0
  2  6  1  0  0  0  0
  3 14  1  0  0  0  0
  3  4  1  0  0  0  0
  3  2  1  0  0  0  0
  4 16  1  0  0  0  0
  4  5  1  0  0  0  0
  5 17  1  1  0  0  0
  5  6  1  0  0  0  0
  7  9  1  6  0  0  0
  7  2  1  0  0  0  0
  7  8  1  0  0  0  0
  7  5  1  0  0  0  0
  8 19  1  0  0  0  0
  8 18  1  0  0  0  0
  9  8  1  0  0  0  0
 12  1  1  0  0  0  0
 13  3  1  0  0  0  0
 15  4  1  0  0  0  0
M TOR 0 0 1 2 3
M TOR 1 0 1 2 12
M TOR 2 0 1 2 13
M TOR 3 0 1 5 4
M TOR 4 0 1 6 4
M TOR 5 0 1 6 7
M TOR 6 0 1 6 8
M TOR 7 1 2 3 4
M TOR 8 1 2 3 14
M TOR 9 1 2 3 15
M TOR 10 1 5 4 3
M TOR 11 1 5 4 6
M TOR 12 1 5 4 16
M TOR 13 1 6 4 3
M TOR 14 1 6 4 16
M TOR 15 1 6 7 8
M TOR 16 1 6 7 17
M TOR 17 1 6 7 18
M TOR 18 2 1 0 9
M TOR 19 2 1 0 10
M TOR 20 2 1 0 11
M TOR 21 2 1 5 4
M TOR 22 2 1 6 4
M TOR 23 2 1 6 7
M TOR 24 2 1 6 8
M TOR 25 2 3 4 5
M TOR 26 2 3 4 6
M TOR 27 2 3 4 16
M TOR 28 3 2 1 5
M TOR 29 3 2 1 6
M TOR 30 3 4 6 7
M TOR 31 3 4 6 8
M TOR 32 4 3 2 12
M TOR 33 4 3 2 13
M TOR 34 4 6 7 8
M TOR 35 4 6 7 17
M TOR 36 4 6 7 18
M TOR 37 5 1 0 9
M TOR 38 5 1 0 10
M TOR 39 5 1 0 11
M TOR 40 5 1 2 12
M TOR 41 5 1 2 13
M TOR 42 5 1 6 7
M TOR 43 5 1 6 8
M TOR 44 5 4 3 14
M TOR 45 5 4 3 15
M TOR 46 5 4 6 7
M TOR 47 5 4 6 8
M TOR 48 6 1 0 9
M TOR 49 6 1 0 10
M TOR 50 6 1 0 11
M TOR 51 6 1 2 12
M TOR 52 6 1 2 13
M TOR 53 6 4 3 14
M TOR 54 6 4 3 15
M TOR 55 6 8 7 17
M TOR 56 6 8 7 18
M TOR 57 7 6 4 16
M TOR 58 8 6 4 16
M  END
$$$$
