
     RDKit          3D

 19 20  0  0  0  0  0  0  0  0999 V2000
    1.3546    1.1838   -0.1051 C   0  0  0  0  0  0  0  0  0  0  0  0
    1.0741   -0.3234    0.0086 C   0  0  0  0  0  0  0  0  0  0  0  0
    1.5268   -1.0974   -1.2146 C   0  0  0  0  0  0  0  0  0  0  0  0
    2.5050   -1.9692   -0.9484 C   0  0  0  0  0  0  0  0  0  0  0  0
    2.8201   -2.0138    0.5036 C   0  0  0  0  0  0  0  0  0  0  0  0
    1.6487   -2.4648    1.3815 C   0  0  0  0  0  0  0  0  0  0  0  0
    1.9094   -2.8244    2.7118 O   0  0  0  0  0  0  0  0  0  0  0  0
    1.8582   -0.9989    1.1395 C   0  0  0  0  0  0  0  0  0  0  0  0
    2.1908   -0.2048    2.2266 O   0  0  0  0  0  0  0  0  0  0  0  0
    1.0531    1.7037    0.8071 H   0  0  0  0  0  0  0  0  0  0  0  0
    2.4204    1.3704   -0.2663 H   0  0  0  0  0  0  0  0  0  0  0  0
    0.8023    1.6097   -0.9488 H   0  0  0  0  0  0  0  0  0  0  0  0
   -0.0036   -0.4596    0.1740 H   0  0  0  0  0  0  0  0  0  0  0  0
    1.0965   -0.9185   -2.1937 H   0  0  0  0  0  0  0  0  0  0  0  0
    2.9904   -2.6073   -1.6787 H   0  0  0  0  0  0  0  0  0  0  0  0
    3.8265   -2.1717    0.8783 H   0  0  0  0  0  0  0  0  0  0  0  0
    0.8244   -2.9991    0.9079 H   0  0  0  0  0  0  0  0  0  0  0  0
    2.4506   -3.6204    2.7189 H   0  0  0  0  0  0  0  0  0  0  0  0
    2.2468   -0.8005    2.9867 H   0  0  0  0  0  0  0  0  0  0  0  0
  1  2  1  0
  2  3  1  0
  3  4  2  0
  4  5  1  0
  5  6  1  0
  6  7  1  0
  6  8  1  0
  8  9  1  0
  8  2  1  0
  8  5  1  0
  1 10  1  0
  1 11  1  0
  1 12  1  0
  2 13  1  0
  3 14  1  0
  4 15  1  0
  5 16  1  0
  6 17  1  0
  7 18  1  0
  9 19  1  0
M  END
$$$$
