gdb 4190	2.875016	1.2869897	1.02886	2.4576	77.1	-0.23984	-0.01767	0.22217	1200.613	0.156444	-422.564173	-422.555667	-422.554723	-422.597274	32.076
 OpenBabel02181911413D

 19 20  0  0  1  0  0  0  0  0999 V2000
    2.5699    1.5096   -0.5130 C   0  0  0  0  0  0  0  0  0  0  0  0
    2.0407    0.1407   -0.1235 C   0  0  2  0  0  0  0  0  0  0  0  0
    2.7913   -0.5573    1.0363 C   0  0  0  0  0  0  0  0  0  0  0  0
    2.7686   -2.0274    0.6653 C   0  0  1  0  0  0  0  0  0  0  0  0
    1.4244   -2.6151    0.2231 C   0  0  0  0  0  0  0  0  0  0  0  0
    2.3310   -2.0423   -0.8093 C   0  0  1  0  0  0  0  0  0  0  0  0
    2.1626   -0.7389   -1.2585 O   0  0  0  0  0  0  0  0  0  0  0  0
    3.8392   -2.9253    1.1273 C   0  0  0  0  0  0  0  0  0  0  0  0
    4.7791   -2.5858    1.8071 O   0  0  0  0  0  0  0  0  0  0  0  0
    2.4575    2.2096    0.3207 H   0  0  0  0  0  0  0  0  0  0  0  0
    3.6295    1.4486   -0.7780 H   0  0  0  0  0  0  0  0  0  0  0  0
    2.0194    1.9053   -1.3708 H   0  0  0  0  0  0  0  0  0  0  0  0
    0.9744    0.2268    0.1320 H   0  0  0  0  0  0  0  0  0  0  0  0
    3.8340   -0.2304    1.0938 H   0  0  0  0  0  0  0  0  0  0  0  0
    2.3219   -0.3446    2.0008 H   0  0  0  0  0  0  0  0  0  0  0  0
    1.3406   -3.6973    0.2562 H   0  0  0  0  0  0  0  0  0  0  0  0
    0.5238   -2.0841    0.5104 H   0  0  0  0  0  0  0  0  0  0  0  0
    2.8002   -2.6802   -1.5496 H   0  0  0  0  0  0  0  0  0  0  0  0
    3.7300   -3.9813    0.7842 H   0  0  0  0  0  0  0  0  0  0  0  0
  1  2  1  0  0  0  0
  1 10  1  0  0  0  0
  2 13  1  1  0  0  0
  2  3  1  0  0  0  0
  3 14  1  0  0  0  0
  3 15  1  0  0  0  0
  4  3  1  0  0  0  0
  4  8  1  1  0  0  0
  5 16  1  0  0  0  0
  5 17  1  0  0  0  0
  5  4  1  0  0  0  0
  6 18  1  6  0  0  0
  6  5  1  0  0  0  0
  6  4  1  0  0  0  0
  7  6  1  0  0  0  0
  7  2  1  0  0  0  0
  8  9  2  0  0  0  0
 11  1  1  0  0  0  0
 12  1  1  0  0  0  0
 19  8  1  0  0  0  0
M TOR 0 0 1 2 3
M TOR 1 0 1 2 13
M TOR 2 0 1 2 14
M TOR 3 0 1 6 5
M TOR 4 1 2 3 4
M TOR 5 1 2 3 5
M TOR 6 1 2 3 7
M TOR 7 1 6 5 3
M TOR 8 1 6 5 4
M TOR 9 1 6 5 17
M TOR 10 2 1 0 9
M TOR 11 2 1 0 10
M TOR 12 2 1 0 11
M TOR 13 2 1 6 5
M TOR 14 2 3 4 5
M TOR 15 2 3 4 15
M TOR 16 2 3 4 16
M TOR 17 2 3 5 6
M TOR 18 2 3 5 17
M TOR 19 2 3 7 8
M TOR 20 2 3 7 18
M TOR 21 3 2 1 6
M TOR 22 3 2 1 12
M TOR 23 3 4 5 6
M TOR 24 3 4 5 17
M TOR 25 3 5 4 15
M TOR 26 3 5 4 16
M TOR 27 4 3 2 13
M TOR 28 4 3 2 14
M TOR 29 4 3 7 8
M TOR 30 4 3 7 18
M TOR 31 4 5 3 7
M TOR 32 5 3 2 13
M TOR 33 5 3 2 14
M TOR 34 5 3 7 8
M TOR 35 5 3 7 18
M TOR 36 5 6 1 12
M TOR 37 6 1 0 9
M TOR 38 6 1 0 10
M TOR 39 6 1 0 11
M TOR 40 6 1 2 13
M TOR 41 6 1 2 14
M TOR 42 6 5 3 7
M TOR 43 6 5 4 15
M TOR 44 6 5 4 16
M TOR 45 7 3 2 13
M TOR 46 7 3 2 14
M TOR 47 7 3 4 15
M TOR 48 7 3 4 16
M TOR 49 7 3 5 17
M  END
$$$$
