gdb 723	2.8019364	1.5924382	1.2562841	4.0241	74.19	-0.22815	-0.02039	0.20776	1042.1507	0.159285	-422.592006	-422.584266	-422.583322	-422.624889	29.305
 OpenBabel02181911403D

 19 20  0  0  1  0  0  0  0  0999 V2000
    0.4288   -0.0386    1.5457 O   0  0  0  0  0  0  0  0  0  0  0  0
   -0.2477    0.0204    0.5538 C   0  0  0  0  0  0  0  0  0  0  0  0
   -0.6625   -1.1352   -0.3525 C   0  0  0  0  0  0  0  0  0  0  0  0
   -2.0761   -0.7433   -0.8289 C   0  0  0  0  0  0  0  0  0  0  0  0
   -2.1800    0.8180   -0.7397 C   0  0  2  0  0  0  0  0  0  0  0  0
   -2.0947    1.5459   -2.0936 C   0  0  0  0  0  0  0  0  0  0  0  0
   -0.5854    1.6271   -2.3201 C   0  0  0  0  0  0  0  0  0  0  0  0
   -0.0169    1.8140   -1.0257 O   0  0  0  0  0  0  0  0  0  0  0  0
   -0.8988    1.2922   -0.0188 C   0  0  2  0  0  0  0  0  0  0  0  0
    0.0441   -1.1727   -1.1916 H   0  0  0  0  0  0  0  0  0  0  0  0
   -0.6033   -2.0910    0.1706 H   0  0  0  0  0  0  0  0  0  0  0  0
   -2.2882   -1.1005   -1.8403 H   0  0  0  0  0  0  0  0  0  0  0  0
   -2.8233   -1.1966   -0.1713 H   0  0  0  0  0  0  0  0  0  0  0  0
   -3.0809    1.1047   -0.1946 H   0  0  0  0  0  0  0  0  0  0  0  0
   -2.6229    1.0223   -2.8949 H   0  0  0  0  0  0  0  0  0  0  0  0
   -2.5161    2.5525   -2.0079 H   0  0  0  0  0  0  0  0  0  0  0  0
   -0.2028    0.7034   -2.7824 H   0  0  0  0  0  0  0  0  0  0  0  0
   -0.2748    2.4691   -2.9457 H   0  0  0  0  0  0  0  0  0  0  0  0
   -1.0378    2.0541    0.7529 H   0  0  0  0  0  0  0  0  0  0  0  0
  2  1  2  0  0  0  0
  3 11  1  0  0  0  0
  3  2  1  0  0  0  0
  4  5  1  0  0  0  0
  4  3  1  0  0  0  0
  4 13  1  0  0  0  0
  5 14  1  1  0  0  0
  5  9  1  0  0  0  0
  6 16  1  0  0  0  0
  6  5  1  0  0  0  0
  7  6  1  0  0  0  0
  7  8  1  0  0  0  0
  8  9  1  0  0  0  0
  9  2  1  0  0  0  0
  9 19  1  1  0  0  0
 10  3  1  0  0  0  0
 12  4  1  0  0  0  0
 15  6  1  0  0  0  0
 17  7  1  0  0  0  0
 18  7  1  0  0  0  0
M TOR 0 0 1 2 3
M TOR 1 0 1 2 9
M TOR 2 0 1 2 10
M TOR 3 0 1 8 4
M TOR 4 0 1 8 7
M TOR 5 0 1 8 18
M TOR 6 1 2 3 4
M TOR 7 1 2 3 11
M TOR 8 1 2 3 12
M TOR 9 1 8 4 3
M TOR 10 1 8 4 5
M TOR 11 1 8 4 13
M TOR 12 1 8 7 6
M TOR 13 2 1 8 4
M TOR 14 2 1 8 7
M TOR 15 2 1 8 18
M TOR 16 2 3 4 5
M TOR 17 2 3 4 8
M TOR 18 2 3 4 13
M TOR 19 3 2 1 8
M TOR 20 3 4 5 6
M TOR 21 3 4 5 14
M TOR 22 3 4 5 15
M TOR 23 3 4 8 7
M TOR 24 3 4 8 18
M TOR 25 4 3 2 9
M TOR 26 4 3 2 10
M TOR 27 4 5 6 7
M TOR 28 4 5 6 16
M TOR 29 4 5 6 17
M TOR 30 4 8 7 6
M TOR 31 5 4 3 11
M TOR 32 5 4 3 12
M TOR 33 5 4 8 7
M TOR 34 5 4 8 18
M TOR 35 5 6 7 8
M TOR 36 6 5 4 8
M TOR 37 6 5 4 13
M TOR 38 6 7 8 18
M TOR 39 7 6 5 14
M TOR 40 7 6 5 15
M TOR 41 7 8 4 13
M TOR 42 8 1 2 9
M TOR 43 8 1 2 10
M TOR 44 8 4 3 11
M TOR 45 8 4 3 12
M TOR 46 8 4 5 14
M TOR 47 8 4 5 15
M TOR 48 8 7 6 16
M TOR 49 8 7 6 17
M  END
$$$$
