
     RDKit          3D

 19 20  0  0  0  0  0  0  0  0999 V2000
   -0.2681   -2.0578   -3.9992 C   0  0  0  0  0  0  0  0  0  0  0  0
   -0.4829   -0.5555   -4.0628 C   0  0  0  0  0  0  0  0  0  0  0  0
   -0.7786    0.0020   -5.0974 O   0  0  0  0  0  0  0  0  0  0  0  0
   -0.2974    0.1826   -2.7542 C   0  0  0  0  0  0  0  0  0  0  0  0
   -0.4535    1.7141   -2.5873 C   0  0  0  0  0  0  0  0  0  0  0  0
   -1.8482    2.0518   -3.1481 C   0  0  0  0  0  0  0  0  0  0  0  0
   -2.6287    0.8929   -2.4494 C   0  0  0  0  0  0  0  0  0  0  0  0
   -1.4344    0.2834   -1.6857 C   0  0  0  0  0  0  0  0  0  0  0  0
   -0.7578    1.4659   -1.1719 O   0  0  0  0  0  0  0  0  0  0  0  0
    0.7803   -2.2744   -3.7628 H   0  0  0  0  0  0  0  0  0  0  0  0
   -0.8698   -2.5033   -3.1989 H   0  0  0  0  0  0  0  0  0  0  0  0
   -0.5253   -2.5117   -4.9569 H   0  0  0  0  0  0  0  0  0  0  0  0
    0.6083   -0.1604   -2.2466 H   0  0  0  0  0  0  0  0  0  0  0  0
    0.3709    2.4073   -2.7492 H   0  0  0  0  0  0  0  0  0  0  0  0
   -2.1675    3.0369   -2.8026 H   0  0  0  0  0  0  0  0  0  0  0  0
   -1.8863    2.0088   -4.2355 H   0  0  0  0  0  0  0  0  0  0  0  0
   -3.3932    1.2483   -1.7559 H   0  0  0  0  0  0  0  0  0  0  0  0
   -3.0907    0.1953   -3.1530 H   0  0  0  0  0  0  0  0  0  0  0  0
   -1.6102   -0.4928   -0.9407 H   0  0  0  0  0  0  0  0  0  0  0  0
  1  2  1  0
  2  3  2  0
  2  4  1  0
  4  5  1  0
  5  6  1  0
  6  7  1  0
  7  8  1  0
  8  9  1  0
  8  4  1  0
  9  5  1  0
  1 10  1  0
  1 11  1  0
  1 12  1  0
  4 13  1  0
  5 14  1  0
  6 15  1  0
  6 16  1  0
  7 17  1  0
  7 18  1  0
  8 19  1  0
M  END
$$$$
