gdb 511	3.2749153	1.7111259	1.4206716	2.3676	73.66	-0.24157	0.06413	0.3057	961.1714	0.159532	-422.515288	-422.508352	-422.507408	-422.546271	28.293
 OpenBabel02181911403D

 19 21  0  0  1  0  0  0  0  0999 V2000
    1.8458    0.0561    0.0663 C   0  0  0  0  0  0  0  0  0  0  0  0
    0.5895   -0.5307   -0.3852 O   0  0  0  0  0  0  0  0  0  0  0  0
    0.2013    0.6917   -1.0461 C   0  0  1  0  0  0  0  0  0  0  0  0
   -0.6754    1.6950   -0.2996 C   0  0  2  0  0  0  0  0  0  0  0  0
   -0.6810    2.9797   -1.1658 C   0  0  0  0  0  0  0  0  0  0  0  0
    0.7285    3.6525   -1.1461 C   0  0  0  0  0  0  0  0  0  0  0  0
    1.9221    2.6547   -0.9757 C   0  0  0  0  0  0  0  0  0  0  0  0
    1.3339    1.4366   -0.3193 C   0  0  2  0  0  0  0  0  0  0  0  0
    0.3660    1.8641    0.7016 O   0  0  0  0  0  0  0  0  0  0  0  0
    2.0254   -0.1062    1.1327 H   0  0  0  0  0  0  0  0  0  0  0  0
    2.6919   -0.3135   -0.5289 H   0  0  0  0  0  0  0  0  0  0  0  0
    0.0898    0.5722   -2.1270 H   0  0  0  0  0  0  0  0  0  0  0  0
   -1.6424    1.4197    0.1302 H   0  0  0  0  0  0  0  0  0  0  0  0
   -0.9943    2.7311   -2.1873 H   0  0  0  0  0  0  0  0  0  0  0  0
   -1.4162    3.6909   -0.7784 H   0  0  0  0  0  0  0  0  0  0  0  0
    0.8661    4.2610   -2.0442 H   0  0  0  0  0  0  0  0  0  0  0  0
    0.7518    4.3379   -0.2970 H   0  0  0  0  0  0  0  0  0  0  0  0
    2.3677    2.3783   -1.9380 H   0  0  0  0  0  0  0  0  0  0  0  0
    2.7101    3.1176   -0.3717 H   0  0  0  0  0  0  0  0  0  0  0  0
  1 10  1  0  0  0  0
  2  1  1  0  0  0  0
  3 12  1  6  0  0  0
  3  2  1  0  0  0  0
  3  8  1  0  0  0  0
  3  4  1  0  0  0  0
  4 13  1  1  0  0  0
  4  9  1  0  0  0  0
  5  6  1  0  0  0  0
  5 15  1  0  0  0  0
  5  4  1  0  0  0  0
  6  7  1  0  0  0  0
  6 17  1  0  0  0  0
  7 19  1  0  0  0  0
  7  8  1  0  0  0  0
  8  1  1  0  0  0  0
  8  9  1  1  0  0  0
 11  1  1  0  0  0  0
 14  5  1  0  0  0  0
 16  6  1  0  0  0  0
 18  7  1  0  0  0  0
M TOR 0 0 1 2 3
M TOR 1 0 1 2 7
M TOR 2 0 1 2 11
M TOR 3 0 7 2 3
M TOR 4 0 7 2 11
M TOR 5 0 7 6 5
M TOR 6 0 7 6 17
M TOR 7 0 7 6 18
M TOR 8 0 7 8 3
M TOR 9 1 0 7 6
M TOR 10 1 0 7 8
M TOR 11 1 2 3 4
M TOR 12 1 2 3 8
M TOR 13 1 2 3 12
M TOR 14 1 2 7 6
M TOR 15 1 2 7 8
M TOR 16 2 1 0 9
M TOR 17 2 1 0 10
M TOR 18 2 3 4 5
M TOR 19 2 3 4 13
M TOR 20 2 3 4 14
M TOR 21 2 3 8 7
M TOR 22 2 7 0 9
M TOR 23 2 7 0 10
M TOR 24 2 7 6 5
M TOR 25 2 7 6 17
M TOR 26 2 7 6 18
M TOR 27 3 2 7 6
M TOR 28 3 4 5 6
M TOR 29 3 4 5 15
M TOR 30 3 4 5 16
M TOR 31 3 8 7 6
M TOR 32 4 3 2 7
M TOR 33 4 3 2 11
M TOR 34 4 3 8 7
M TOR 35 4 5 6 7
M TOR 36 4 5 6 17
M TOR 37 4 5 6 18
M TOR 38 5 4 3 8
M TOR 39 5 4 3 12
M TOR 40 5 6 7 8
M TOR 41 6 5 4 13
M TOR 42 6 5 4 14
M TOR 43 6 7 0 9
M TOR 44 6 7 0 10
M TOR 45 6 7 2 11
M TOR 46 7 2 3 12
M TOR 47 7 6 5 15
M TOR 48 7 6 5 16
M TOR 49 7 8 3 12
M TOR 50 8 3 2 11
M TOR 51 8 3 4 13
M TOR 52 8 3 4 14
M TOR 53 8 7 0 9
M TOR 54 8 7 0 10
M TOR 55 8 7 2 11
M TOR 56 8 7 6 17
M TOR 57 8 7 6 18
M  END
$$$$
