gdb 607	2.2400377	2.1616173	1.8856631	1.4582	73.18	-0.23113	0.07353	0.30466	879.8089	0.160867	-422.544886	-422.53802	-422.537076	-422.576009	27.668
 OpenBabel02181911403D

 19 21  0  0  1  0  0  0  0  0999 V2000
    1.0085   -0.9691   -1.0570 C   0  0  0  0  0  0  0  0  0  0  0  0
    2.3428   -0.6661   -1.4665 O   0  0  0  0  0  0  0  0  0  0  0  0
    3.0082    0.3734   -0.7636 C   0  0  2  0  0  0  0  0  0  0  0  0
    3.2115    0.0744    0.7256 C   0  0  0  0  0  0  0  0  0  0  0  0
    2.0000   -0.0550    1.4616 O   0  0  0  0  0  0  0  0  0  0  0  0
    0.8689    0.6149    0.9732 C   0  0  2  0  0  0  0  0  0  0  0  0
    0.2707    0.1462   -0.3305 C   0  0  1  0  0  0  0  0  0  0  0  0
    0.9120    1.5214   -0.2299 C   0  0  2  0  0  0  0  0  0  0  0  0
    2.2454    1.6918   -0.9233 C   0  0  0  0  0  0  0  0  0  0  0  0
    0.4692   -1.2339   -1.9731 H   0  0  0  0  0  0  0  0  0  0  0  0
    1.0244   -1.8606   -0.4121 H   0  0  0  0  0  0  0  0  0  0  0  0
    3.9974    0.4382   -1.2288 H   0  0  0  0  0  0  0  0  0  0  0  0
    3.7477   -0.8711    0.8530 H   0  0  0  0  0  0  0  0  0  0  0  0
    3.8301    0.8794    1.1542 H   0  0  0  0  0  0  0  0  0  0  0  0
    0.2068    0.8678    1.7947 H   0  0  0  0  0  0  0  0  0  0  0  0
   -0.8110    0.0854   -0.4030 H   0  0  0  0  0  0  0  0  0  0  0  0
    0.2507    2.3828   -0.2209 H   0  0  0  0  0  0  0  0  0  0  0  0
    2.1132    1.9126   -1.9877 H   0  0  0  0  0  0  0  0  0  0  0  0
    2.8161    2.5152   -0.4770 H   0  0  0  0  0  0  0  0  0  0  0  0
  1 11  1  0  0  0  0
  1  7  1  0  0  0  0
  2  1  1  0  0  0  0
  2  3  1  0  0  0  0
  3 12  1  6  0  0  0
  3  4  1  0  0  0  0
  4 13  1  0  0  0  0
  4 14  1  0  0  0  0
  4  5  1  0  0  0  0
  6  5  1  0  0  0  0
  6 15  1  1  0  0  0
  7 16  1  6  0  0  0
  7  8  1  0  0  0  0
  7  6  1  0  0  0  0
  8 17  1  1  0  0  0
  8  6  1  0  0  0  0
  9  3  1  0  0  0  0
  9 19  1  0  0  0  0
  9  8  1  0  0  0  0
 10  1  1  0  0  0  0
 18  9  1  0  0  0  0
M TOR 0 0 1 2 3
M TOR 1 0 1 2 8
M TOR 2 0 1 2 11
M TOR 3 0 6 5 4
M TOR 4 0 6 5 7
M TOR 5 0 6 5 14
M TOR 6 0 6 7 8
M TOR 7 0 6 7 16
M TOR 8 1 0 6 5
M TOR 9 1 0 6 7
M TOR 10 1 0 6 15
M TOR 11 1 2 3 4
M TOR 12 1 2 3 12
M TOR 13 1 2 3 13
M TOR 14 1 2 8 7
M TOR 15 1 2 8 17
M TOR 16 1 2 8 18
M TOR 17 2 1 0 6
M TOR 18 2 1 0 9
M TOR 19 2 1 0 10
M TOR 20 2 3 4 5
M TOR 21 2 8 7 5
M TOR 22 2 8 7 6
M TOR 23 2 8 7 16
M TOR 24 3 2 8 7
M TOR 25 3 2 8 17
M TOR 26 3 2 8 18
M TOR 27 3 4 5 6
M TOR 28 3 4 5 7
M TOR 29 3 4 5 14
M TOR 30 4 3 2 8
M TOR 31 4 3 2 11
M TOR 32 4 5 6 7
M TOR 33 4 5 6 15
M TOR 34 4 5 7 8
M TOR 35 4 5 7 16
M TOR 36 5 4 3 12
M TOR 37 5 4 3 13
M TOR 38 5 6 0 9
M TOR 39 5 6 0 10
M TOR 40 5 6 7 8
M TOR 41 5 6 7 16
M TOR 42 5 7 6 15
M TOR 43 5 7 8 17
M TOR 44 5 7 8 18
M TOR 45 6 7 5 14
M TOR 46 6 7 8 17
M TOR 47 6 7 8 18
M TOR 48 7 6 0 9
M TOR 49 7 6 0 10
M TOR 50 7 8 2 11
M TOR 51 8 2 3 12
M TOR 52 8 2 3 13
M TOR 53 8 7 5 14
M TOR 54 8 7 6 15
M  END
$$$$
