
     RDKit          3D

 19 21  0  0  0  0  0  0  0  0999 V2000
    0.0133    0.0996    0.3646 C   0  0  0  0  0  0  0  0  0  0  0  0
    1.2955   -0.5276   -0.1509 C   0  0  0  0  0  0  0  0  0  0  0  0
    2.2151   -0.7668    0.9205 O   0  0  0  0  0  0  0  0  0  0  0  0
    1.2329   -1.6513   -1.2126 C   0  0  0  0  0  0  0  0  0  0  0  0
    1.0875   -0.6297   -2.3890 C   0  0  0  0  0  0  0  0  0  0  0  0
    2.2757   -1.2372   -3.1728 C   0  0  0  0  0  0  0  0  0  0  0  0
    2.6962   -1.3057   -1.7046 C   0  0  0  0  0  0  0  0  0  0  0  0
    3.8830   -1.8049   -1.2312 O   0  0  0  0  0  0  0  0  0  0  0  0
    2.0260    0.0827   -1.3581 C   0  0  0  0  0  0  0  0  0  0  0  0
   -0.5049   -0.5796    1.0538 H   0  0  0  0  0  0  0  0  0  0  0  0
    0.2296    1.0268    0.9045 H   0  0  0  0  0  0  0  0  0  0  0  0
   -0.6757    0.3254   -0.4540 H   0  0  0  0  0  0  0  0  0  0  0  0
    1.7602   -1.2761    1.6000 H   0  0  0  0  0  0  0  0  0  0  0  0
    0.7785   -2.6426   -1.1554 H   0  0  0  0  0  0  0  0  0  0  0  0
    0.1529   -0.2335   -2.7779 H   0  0  0  0  0  0  0  0  0  0  0  0
    2.0946   -2.1908   -3.6785 H   0  0  0  0  0  0  0  0  0  0  0  0
    2.8413   -0.5548   -3.8150 H   0  0  0  0  0  0  0  0  0  0  0  0
    3.8563   -1.6702   -0.2731 H   0  0  0  0  0  0  0  0  0  0  0  0
    2.4766    1.0710   -1.4611 H   0  0  0  0  0  0  0  0  0  0  0  0
  1  2  1  0
  2  3  1  0
  2  4  1  0
  4  5  1  0
  5  6  1  0
  6  7  1  0
  7  8  1  0
  7  9  1  0
  9  2  1  0
  7  4  1  0
  9  5  1  0
  1 10  1  0
  1 11  1  0
  1 12  1  0
  3 13  1  0
  4 14  1  0
  5 15  1  0
  6 16  1  0
  6 17  1  0
  8 18  1  0
  9 19  1  0
M  END
$$$$
