gdb 5435	3.0347225	1.1785352	1.0004247	3.8327	76.16	-0.23978	0.01586	0.25564	1250.0219	0.155791	-422.530733	-422.521831	-422.520887	-422.564322	33.284
 OpenBabel02181911423D

 19 20  0  0  1  0  0  0  0  0999 V2000
    1.2047   -0.7074    0.9941 C   0  0  0  0  0  0  0  0  0  0  0  0
    0.9865    0.0874   -0.2983 C   0  0  0  0  0  0  0  0  0  0  0  0
    1.9207   -0.3492   -1.4175 C   0  0  1  0  0  0  0  0  0  0  0  0
    2.0602    0.5150   -2.7237 C   0  0  2  0  0  0  0  0  0  0  0  0
    3.3944   -0.2469   -2.9463 C   0  0  1  0  0  0  0  0  0  0  0  0
    4.2947    0.3874   -3.8084 O   0  0  0  0  0  0  0  0  0  0  0  0
    3.4372    0.0721   -1.4073 C   0  0  1  0  0  0  0  0  0  0  0  0
    2.9089    1.4539   -1.8379 C   0  0  0  0  0  0  0  0  0  0  0  0
    3.0442    2.6084   -1.5865 O   0  0  0  0  0  0  0  0  0  0  0  0
    1.0611   -1.7811    0.8296 H   0  0  0  0  0  0  0  0  0  0  0  0
    2.2187   -0.5634    1.3818 H   0  0  0  0  0  0  0  0  0  0  0  0
    0.5028   -0.3931    1.7720 H   0  0  0  0  0  0  0  0  0  0  0  0
   -0.0487   -0.0443   -0.6384 H   0  0  0  0  0  0  0  0  0  0  0  0
    1.1109    1.1582   -0.1000 H   0  0  0  0  0  0  0  0  0  0  0  0
    1.7959   -1.4142   -1.6441 H   0  0  0  0  0  0  0  0  0  0  0  0
    1.2955    0.7450   -3.4624 H   0  0  0  0  0  0  0  0  0  0  0  0
    3.2690   -1.3132   -3.1714 H   0  0  0  0  0  0  0  0  0  0  0  0
    5.1533   -0.0403   -3.7272 H   0  0  0  0  0  0  0  0  0  0  0  0
    4.2061   -0.1949   -0.6845 H   0  0  0  0  0  0  0  0  0  0  0  0
  1 11  1  0  0  0  0
  1 12  1  0  0  0  0
  2 14  1  0  0  0  0
  2  1  1  0  0  0  0
  3 15  1  6  0  0  0
  3  7  1  0  0  0  0
  3  2  1  0  0  0  0
  4 16  1  6  0  0  0
  4  8  1  0  0  0  0
  4  3  1  0  0  0  0
  5 17  1  6  0  0  0
  5  4  1  0  0  0  0
  5  7  1  0  0  0  0
  6 18  1  0  0  0  0
  6  5  1  0  0  0  0
  7 19  1  1  0  0  0
  8  9  2  0  0  0  0
  8  7  1  0  0  0  0
 10  1  1  0  0  0  0
 13  2  1  0  0  0  0
M TOR 0 0 1 2 3
M TOR 1 0 1 2 6
M TOR 2 0 1 2 14
M TOR 3 1 2 3 4
M TOR 4 1 2 3 7
M TOR 5 1 2 3 15
M TOR 6 1 2 6 4
M TOR 7 1 2 6 7
M TOR 8 1 2 6 18
M TOR 9 2 1 0 9
M TOR 10 2 1 0 10
M TOR 11 2 1 0 11
M TOR 12 2 3 4 5
M TOR 13 2 3 4 6
M TOR 14 2 3 4 16
M TOR 15 2 3 7 6
M TOR 16 2 3 7 8
M TOR 17 2 6 4 5
M TOR 18 2 6 4 16
M TOR 19 2 6 7 8
M TOR 20 3 2 1 12
M TOR 21 3 2 1 13
M TOR 22 3 2 6 18
M TOR 23 3 4 5 17
M TOR 24 3 4 6 7
M TOR 25 3 4 6 18
M TOR 26 3 7 6 18
M TOR 27 4 3 2 14
M TOR 28 4 3 7 8
M TOR 29 4 6 2 14
M TOR 30 4 6 7 8
M TOR 31 5 4 3 7
M TOR 32 5 4 3 15
M TOR 33 5 4 6 7
M TOR 34 5 4 6 18
M TOR 35 6 2 1 12
M TOR 36 6 2 1 13
M TOR 37 6 2 3 15
M TOR 38 6 4 3 15
M TOR 39 6 4 5 17
M TOR 40 6 7 3 15
M TOR 41 7 3 2 14
M TOR 42 7 3 4 16
M TOR 43 7 6 2 14
M TOR 44 7 6 4 16
M TOR 45 8 7 3 15
M TOR 46 8 7 6 18
M  END
$$$$
