
     RDKit          3D

 19 19  0  0  0  0  0  0  0  0999 V2000
    4.4735    1.1287    0.7717 O   0  0  0  0  0  0  0  0  0  0  0  0
    3.0646    1.1541    0.9057 C   0  0  0  0  0  0  0  0  0  0  0  0
    2.5426   -0.0383    0.0828 C   0  0  0  0  0  0  0  0  0  0  0  0
    1.1133   -0.2695    0.2370 C   0  0  0  0  0  0  0  0  0  0  0  0
   -0.0684   -0.4394    0.3801 C   0  0  0  0  0  0  0  0  0  0  0  0
    2.4831    2.4945    0.4283 C   0  0  0  0  0  0  0  0  0  0  0  0
    2.8543    3.6302    1.3527 C   0  0  0  0  0  0  0  0  0  0  0  0
    3.4732    4.8718    0.8737 C   0  0  0  0  0  0  0  0  0  0  0  0
    4.2676    3.8740    1.5237 O   0  0  0  0  0  0  0  0  0  0  0  0
    4.8050    2.0000    1.0271 H   0  0  0  0  0  0  0  0  0  0  0  0
    2.7703    0.9951    1.9573 H   0  0  0  0  0  0  0  0  0  0  0  0
    2.7922    0.1304   -0.9722 H   0  0  0  0  0  0  0  0  0  0  0  0
    3.1063   -0.9248    0.3952 H   0  0  0  0  0  0  0  0  0  0  0  0
   -1.1104   -0.6048    0.4991 H   0  0  0  0  0  0  0  0  0  0  0  0
    2.8611    2.6902   -0.5823 H   0  0  0  0  0  0  0  0  0  0  0  0
    1.3912    2.4237    0.3724 H   0  0  0  0  0  0  0  0  0  0  0  0
    2.3053    3.6703    2.2942 H   0  0  0  0  0  0  0  0  0  0  0  0
    3.6599    4.9961   -0.1918 H   0  0  0  0  0  0  0  0  0  0  0  0
    3.3512    5.7954    1.4365 H   0  0  0  0  0  0  0  0  0  0  0  0
  1  2  1  0
  2  3  1  0
  3  4  1  0
  4  5  3  0
  2  6  1  0
  6  7  1  0
  7  8  1  0
  8  9  1  0
  9  7  1  0
  1 10  1  0
  2 11  1  0
  3 12  1  0
  3 13  1  0
  5 14  1  0
  6 15  1  0
  6 16  1  0
  7 17  1  0
  8 18  1  0
  8 19  1  0
M  END
$$$$
