
     RDKit          3D

 19 20  0  0  0  0  0  0  0  0999 V2000
    0.9743   -1.1781   -1.1277 O   0  0  0  0  0  0  0  0  0  0  0  0
    1.2323   -0.1151   -0.6082 C   0  0  0  0  0  0  0  0  0  0  0  0
    1.1327    0.1060    0.8641 C   0  0  0  0  0  0  0  0  0  0  0  0
   -0.0009   -0.6059    1.5928 C   0  0  0  0  0  0  0  0  0  0  0  0
    1.3970   -1.0869    1.7700 C   0  0  0  0  0  0  0  0  0  0  0  0
    1.7146    1.0871   -1.4123 C   0  0  0  0  0  0  0  0  0  0  0  0
    3.2618    1.2511   -1.4486 C   0  0  0  0  0  0  0  0  0  0  0  0
    3.0902    0.9658   -2.9553 C   0  0  0  0  0  0  0  0  0  0  0  0
    1.6545    0.9012   -2.8278 O   0  0  0  0  0  0  0  0  0  0  0  0
    1.4173    1.0875    1.2284 H   0  0  0  0  0  0  0  0  0  0  0  0
   -0.4807   -0.0690    2.4028 H   0  0  0  0  0  0  0  0  0  0  0  0
   -0.6578   -1.1974    0.9655 H   0  0  0  0  0  0  0  0  0  0  0  0
    1.9050   -0.8933    2.7077 H   0  0  0  0  0  0  0  0  0  0  0  0
    1.6763   -2.0027    1.2615 H   0  0  0  0  0  0  0  0  0  0  0  0
    1.1625    1.9820   -1.0911 H   0  0  0  0  0  0  0  0  0  0  0  0
    3.6209    2.2502   -1.2000 H   0  0  0  0  0  0  0  0  0  0  0  0
    3.8280    0.5096   -0.8830 H   0  0  0  0  0  0  0  0  0  0  0  0
    3.4039    1.7680   -3.6328 H   0  0  0  0  0  0  0  0  0  0  0  0
    3.5093    0.0148   -3.3035 H   0  0  0  0  0  0  0  0  0  0  0  0
  1  2  2  0
  2  3  1  0
  3  4  1  0
  4  5  1  0
  2  6  1  0
  6  7  1  0
  7  8  1  0
  8  9  1  0
  5  3  1  0
  9  6  1  0
  3 10  1  0
  4 11  1  0
  4 12  1  0
  5 13  1  0
  5 14  1  0
  6 15  1  0
  7 16  1  0
  7 17  1  0
  8 18  1  0
  8 19  1  0
M  END
$$$$
