
     RDKit          3D

 19 21  0  0  0  0  0  0  0  0999 V2000
    0.5288    0.8476   -0.7463 C   0  0  0  0  0  0  0  0  0  0  0  0
    0.1042   -0.2018    0.1326 O   0  0  0  0  0  0  0  0  0  0  0  0
    1.4729    0.1601    0.1356 C   0  0  0  0  0  0  0  0  0  0  0  0
    2.6036   -0.8249   -0.1789 C   0  0  0  0  0  0  0  0  0  0  0  0
    3.3358   -0.3613    1.1195 C   0  0  0  0  0  0  0  0  0  0  0  0
    3.2442   -1.3073    2.3264 C   0  0  0  0  0  0  0  0  0  0  0  0
    1.8283   -1.0413    2.8694 C   0  0  0  0  0  0  0  0  0  0  0  0
    1.5928    0.3463    2.6362 O   0  0  0  0  0  0  0  0  0  0  0  0
    2.1917    0.6747    1.4056 C   0  0  0  0  0  0  0  0  0  0  0  0
    0.5060    0.6049   -1.8085 H   0  0  0  0  0  0  0  0  0  0  0  0
    0.1739    1.8448   -0.4872 H   0  0  0  0  0  0  0  0  0  0  0  0
    2.2879   -1.8724   -0.1844 H   0  0  0  0  0  0  0  0  0  0  0  0
    3.1456   -0.6185   -1.1055 H   0  0  0  0  0  0  0  0  0  0  0  0
    4.3374    0.0399    0.9654 H   0  0  0  0  0  0  0  0  0  0  0  0
    3.4033   -2.3567    2.0625 H   0  0  0  0  0  0  0  0  0  0  0  0
    3.9895   -1.0279    3.0773 H   0  0  0  0  0  0  0  0  0  0  0  0
    1.0790   -1.6511    2.3441 H   0  0  0  0  0  0  0  0  0  0  0  0
    1.7266   -1.2192    3.9427 H   0  0  0  0  0  0  0  0  0  0  0  0
    2.4285    1.7415    1.4147 H   0  0  0  0  0  0  0  0  0  0  0  0
  1  2  1  0
  2  3  1  0
  3  4  1  0
  4  5  1  0
  5  6  1  0
  6  7  1  0
  7  8  1  0
  8  9  1  0
  3  1  1  0
  9  3  1  0
  9  5  1  0
  1 10  1  0
  1 11  1  0
  4 12  1  0
  4 13  1  0
  5 14  1  0
  6 15  1  0
  6 16  1  0
  7 17  1  0
  7 18  1  0
  9 19  1  0
M  END
$$$$
