
     RDKit          3D

 19 21  0  0  0  0  0  0  0  0999 V2000
    1.3166   -0.6779    0.9999 C   0  0  0  0  0  0  0  0  0  0  0  0
    0.9846    0.0666   -0.3004 C   0  0  0  0  0  0  0  0  0  0  0  0
    1.6413   -0.5480   -1.4920 C   0  0  0  0  0  0  0  0  0  0  0  0
    3.0858   -0.5695   -1.5548 O   0  0  0  0  0  0  0  0  0  0  0  0
    2.9345   -0.9157   -2.9648 C   0  0  0  0  0  0  0  0  0  0  0  0
    1.4529   -0.4206   -2.9663 C   0  0  0  0  0  0  0  0  0  0  0  0
    1.1442   -1.7630   -2.2883 C   0  0  0  0  0  0  0  0  0  0  0  0
    2.4182   -2.3796   -2.8785 C   0  0  0  0  0  0  0  0  0  0  0  0
    3.1754   -3.2844   -2.1346 O   0  0  0  0  0  0  0  0  0  0  0  0
    0.9705   -1.7155    0.9583 H   0  0  0  0  0  0  0  0  0  0  0  0
    2.3968   -0.6900    1.1707 H   0  0  0  0  0  0  0  0  0  0  0  0
    0.8425   -0.1939    1.8584 H   0  0  0  0  0  0  0  0  0  0  0  0
   -0.0983    0.0733   -0.4723 H   0  0  0  0  0  0  0  0  0  0  0  0
    1.2987    1.1144   -0.2219 H   0  0  0  0  0  0  0  0  0  0  0  0
    3.7719   -0.6007   -3.5832 H   0  0  0  0  0  0  0  0  0  0  0  0
    0.8688    0.2306   -3.6000 H   0  0  0  0  0  0  0  0  0  0  0  0
    0.1799   -2.2244   -2.1170 H   0  0  0  0  0  0  0  0  0  0  0  0
    2.2370   -2.8081   -3.8672 H   0  0  0  0  0  0  0  0  0  0  0  0
    3.4808   -2.7845   -1.3649 H   0  0  0  0  0  0  0  0  0  0  0  0
  1  2  1  0
  2  3  1  0
  3  4  1  0
  4  5  1  0
  5  6  1  0
  6  7  1  0
  7  8  1  0
  8  9  1  0
  6  3  1  0
  7  3  1  0
  8  5  1  0
  1 10  1  0
  1 11  1  0
  1 12  1  0
  2 13  1  0
  2 14  1  0
  5 15  1  0
  6 16  1  0
  7 17  1  0
  8 18  1  0
  9 19  1  0
M  END
$$$$
