gdb 104	5.0653672	0.922357	0.882612	2.5745	76.71	-0.23473	0.08767	0.3224	1369.8725	0.156045	-422.450071	-422.442042	-422.441097	-422.48369	30.482
 OpenBabel02181911403D

 19 21  0  0  1  0  0  0  0  0999 V2000
    4.4691   -0.6865   -2.3773 C   0  0  0  0  0  0  0  0  0  0  0  0
    3.4996    0.1122   -3.2273 C   0  0  0  0  0  0  0  0  0  0  0  0
    3.4814    0.2196   -1.7224 C   0  0  0  0  0  0  0  0  0  0  0  0
    2.4544   -0.4016   -1.0071 O   0  0  0  0  0  0  0  0  0  0  0  0
    1.2836    0.3462   -0.9510 C   0  0  1  0  0  0  0  0  0  0  0  0
    0.2318   -0.1435    0.0665 C   0  0  2  0  0  0  0  0  0  0  0  0
   -0.4263    1.2571    0.0216 C   0  0  0  0  0  0  0  0  0  0  0  0
    1.1039    1.4225    0.1698 C   0  0  1  0  0  0  0  0  0  0  0  0
    1.0943    0.3343    1.1722 O   0  0  0  0  0  0  0  0  0  0  0  0
    4.2803   -1.7495   -2.2816 H   0  0  0  0  0  0  0  0  0  0  0  0
    5.5158   -0.4052   -2.3672 H   0  0  0  0  0  0  0  0  0  0  0  0
    3.8741    0.9489   -3.8067 H   0  0  0  0  0  0  0  0  0  0  0  0
    2.6881   -0.4373   -3.6913 H   0  0  0  0  0  0  0  0  0  0  0  0
    3.8446    1.1424   -1.2711 H   0  0  0  0  0  0  0  0  0  0  0  0
    0.9255    0.6243   -1.9514 H   0  0  0  0  0  0  0  0  0  0  0  0
   -0.2220   -1.1291    0.1677 H   0  0  0  0  0  0  0  0  0  0  0  0
   -0.9096    1.5859   -0.9024 H   0  0  0  0  0  0  0  0  0  0  0  0
   -0.9900    1.5116    0.9179 H   0  0  0  0  0  0  0  0  0  0  0  0
    1.6880    2.3145    0.3965 H   0  0  0  0  0  0  0  0  0  0  0  0
  1 11  1  0  0  0  0
  1 10  1  0  0  0  0
  1  3  1  0  0  0  0
  2  1  1  0  0  0  0
  2  3  1  0  0  0  0
  3 14  1  0  0  0  0
  3  4  1  0  0  0  0
  4  5  1  0  0  0  0
  5 15  1  6  0  0  0
  5  6  1  0  0  0  0
  5  8  1  0  0  0  0
  6 16  1  6  0  0  0
  6  9  1  0  0  0  0
  7  6  1  0  0  0  0
  7  8  1  0  0  0  0
  7 18  1  0  0  0  0
  8 19  1  1  0  0  0
  8  9  1  0  0  0  0
 12  2  1  0  0  0  0
 13  2  1  0  0  0  0
 17  7  1  0  0  0  0
M TOR 0 0 1 2 3
M TOR 1 0 1 2 13
M TOR 2 0 2 1 11
M TOR 3 0 2 1 12
M TOR 4 0 2 3 4
M TOR 5 1 2 0 9
M TOR 6 1 2 0 10
M TOR 7 1 2 3 4
M TOR 8 2 3 4 5
M TOR 9 2 3 4 7
M TOR 10 2 3 4 14
M TOR 11 3 2 0 9
M TOR 12 3 2 0 10
M TOR 13 3 2 1 11
M TOR 14 3 2 1 12
M TOR 15 3 4 5 6
M TOR 16 3 4 5 8
M TOR 17 3 4 5 15
M TOR 18 3 4 7 6
M TOR 19 3 4 7 8
M TOR 20 3 4 7 18
M TOR 21 4 3 2 13
M TOR 22 4 5 6 7
M TOR 23 4 5 6 16
M TOR 24 4 5 6 17
M TOR 25 4 5 8 7
M TOR 26 4 7 6 16
M TOR 27 4 7 6 17
M TOR 28 5 4 7 18
M TOR 29 5 6 7 8
M TOR 30 5 6 7 18
M TOR 31 5 8 7 18
M TOR 32 6 5 4 14
M TOR 33 6 7 4 14
M TOR 34 7 4 5 15
M TOR 35 7 6 5 15
M TOR 36 7 8 5 15
M TOR 37 8 5 4 14
M TOR 38 8 5 6 16
M TOR 39 8 5 6 17
M TOR 40 8 7 4 14
M TOR 41 8 7 6 16
M TOR 42 8 7 6 17
M  END
$$$$
