
     RDKit          3D

 19 21  0  0  0  0  0  0  0  0999 V2000
   -2.2297    2.4417   -1.2978 C   0  0  0  0  0  0  0  0  0  0  0  0
   -1.1920    1.3919   -1.5021 C   0  0  0  0  0  0  0  0  0  0  0  0
    0.0365    1.7699   -2.1635 O   0  0  0  0  0  0  0  0  0  0  0  0
    0.2856    0.3405   -2.3282 C   0  0  0  0  0  0  0  0  0  0  0  0
   -1.2152    0.0049   -2.0651 C   0  0  0  0  0  0  0  0  0  0  0  0
   -0.8710    0.2042   -0.5778 C   0  0  0  0  0  0  0  0  0  0  0  0
   -1.6391   -0.1652    0.6551 C   0  0  0  0  0  0  0  0  0  0  0  0
    0.6088   -0.0890   -0.8755 C   0  0  0  0  0  0  0  0  0  0  0  0
    1.6105    0.6157   -0.2032 O   0  0  0  0  0  0  0  0  0  0  0  0
   -3.1256    2.0154   -0.8385 H   0  0  0  0  0  0  0  0  0  0  0  0
   -1.8541    3.2329   -0.6397 H   0  0  0  0  0  0  0  0  0  0  0  0
   -2.5152    2.8958   -2.2514 H   0  0  0  0  0  0  0  0  0  0  0  0
    0.9076    0.1031   -3.1884 H   0  0  0  0  0  0  0  0  0  0  0  0
   -1.9622   -0.5871   -2.5748 H   0  0  0  0  0  0  0  0  0  0  0  0
   -1.2395    0.3581    1.5308 H   0  0  0  0  0  0  0  0  0  0  0  0
   -2.7002    0.0910    0.5696 H   0  0  0  0  0  0  0  0  0  0  0  0
   -1.5755   -1.2412    0.8531 H   0  0  0  0  0  0  0  0  0  0  0  0
    0.8233   -1.1587   -0.7973 H   0  0  0  0  0  0  0  0  0  0  0  0
    1.5062    1.5329   -0.4938 H   0  0  0  0  0  0  0  0  0  0  0  0
  1  2  1  0
  2  3  1  0
  3  4  1  0
  4  5  1  0
  5  6  1  0
  6  7  1  0
  6  8  1  0
  8  9  1  0
  5  2  1  0
  6  2  1  0
  8  4  1  0
  1 10  1  0
  1 11  1  0
  1 12  1  0
  4 13  1  0
  5 14  1  0
  7 15  1  0
  7 16  1  0
  7 17  1  0
  8 18  1  0
  9 19  1  0
M  END
$$$$
