
     RDKit          3D

 19 21  0  0  0  0  0  0  0  0999 V2000
   -0.7626    0.7687    0.7936 O   0  0  0  0  0  0  0  0  0  0  0  0
   -2.1253    0.5183    0.5303 C   0  0  0  0  0  0  0  0  0  0  0  0
   -2.4407    0.0213   -0.9308 C   0  0  0  0  0  0  0  0  0  0  0  0
   -3.3844    1.1530   -1.3913 C   0  0  0  0  0  0  0  0  0  0  0  0
   -4.3129    1.3104   -0.1451 C   0  0  0  0  0  0  0  0  0  0  0  0
   -3.0034    1.7920    0.5514 C   0  0  0  0  0  0  0  0  0  0  0  0
   -2.6547    2.3746   -0.8242 C   0  0  0  0  0  0  0  0  0  0  0  0
   -2.5110    3.7463   -1.2854 C   0  0  0  0  0  0  0  0  0  0  0  0
   -1.3770    2.8487   -1.2288 O   0  0  0  0  0  0  0  0  0  0  0  0
   -0.4807    1.4856    0.2109 H   0  0  0  0  0  0  0  0  0  0  0  0
   -2.4433   -0.2065    1.2845 H   0  0  0  0  0  0  0  0  0  0  0  0
   -1.5206   -0.0325   -1.5182 H   0  0  0  0  0  0  0  0  0  0  0  0
   -2.9256   -0.9584   -0.9536 H   0  0  0  0  0  0  0  0  0  0  0  0
   -3.7709    1.1251   -2.4094 H   0  0  0  0  0  0  0  0  0  0  0  0
   -5.0547    2.1040   -0.2537 H   0  0  0  0  0  0  0  0  0  0  0  0
   -4.7787    0.4017    0.2439 H   0  0  0  0  0  0  0  0  0  0  0  0
   -2.9969    2.3849    1.4648 H   0  0  0  0  0  0  0  0  0  0  0  0
   -2.8200    4.0205   -2.2927 H   0  0  0  0  0  0  0  0  0  0  0  0
   -2.4882    4.5652   -0.5680 H   0  0  0  0  0  0  0  0  0  0  0  0
  1  2  1  0
  2  3  1  0
  3  4  1  0
  4  5  1  0
  5  6  1  0
  6  7  1  0
  7  8  1  0
  8  9  1  0
  6  2  1  0
  9  7  1  0
  7  4  1  0
  1 10  1  0
  2 11  1  0
  3 12  1  0
  3 13  1  0
  4 14  1  0
  5 15  1  0
  5 16  1  0
  6 17  1  0
  8 18  1  0
  8 19  1  0
M  END
$$$$
