
     RDKit          3D

 19 20  0  0  0  0  0  0  0  0999 V2000
    1.0466   -0.2797   -1.0590 C   0  0  0  0  0  0  0  0  0  0  0  0
    0.9785    0.1420    0.4062 C   0  0  0  0  0  0  0  0  0  0  0  0
    1.5052    1.5916    0.6884 C   0  0  0  0  0  0  0  0  0  0  0  0
    2.6370    1.2194    1.6650 C   0  0  0  0  0  0  0  0  0  0  0  0
    1.9710    0.2247    2.6380 C   0  0  0  0  0  0  0  0  0  0  0  0
    2.0035   -0.5926    1.3133 C   0  0  0  0  0  0  0  0  0  0  0  0
    3.2626    0.0764    0.9913 O   0  0  0  0  0  0  0  0  0  0  0  0
    2.0724   -2.0886    1.3465 C   0  0  0  0  0  0  0  0  0  0  0  0
    1.1065   -2.8031    1.2455 O   0  0  0  0  0  0  0  0  0  0  0  0
    0.7025   -1.3098   -1.1896 H   0  0  0  0  0  0  0  0  0  0  0  0
    0.4168    0.3672   -1.6779 H   0  0  0  0  0  0  0  0  0  0  0  0
    2.0743   -0.2047   -1.4284 H   0  0  0  0  0  0  0  0  0  0  0  0
   -0.0345   -0.0044    0.7907 H   0  0  0  0  0  0  0  0  0  0  0  0
    1.8993    2.0667   -0.2132 H   0  0  0  0  0  0  0  0  0  0  0  0
    0.7575    2.2529    1.1341 H   0  0  0  0  0  0  0  0  0  0  0  0
    3.3438    1.9849    1.9842 H   0  0  0  0  0  0  0  0  0  0  0  0
    2.6724   -0.1645    3.3768 H   0  0  0  0  0  0  0  0  0  0  0  0
    1.0011    0.4623    3.0806 H   0  0  0  0  0  0  0  0  0  0  0  0
    3.0958   -2.4935    1.5075 H   0  0  0  0  0  0  0  0  0  0  0  0
  1  2  1  0
  2  3  1  0
  3  4  1  0
  4  5  1  0
  5  6  1  0
  6  7  1  0
  6  8  1  0
  8  9  2  0
  6  2  1  0
  7  4  1  0
  1 10  1  0
  1 11  1  0
  1 12  1  0
  2 13  1  0
  3 14  1  0
  3 15  1  0
  4 16  1  0
  5 17  1  0
  5 18  1  0
  8 19  1  0
M  END
$$$$
