
     RDKit          3D

 19 21  0  0  0  0  0  0  0  0999 V2000
    0.4627    0.4505   -0.0498 O   0  0  0  0  0  0  0  0  0  0  0  0
   -0.6690    0.3006    0.7563 C   0  0  0  0  0  0  0  0  0  0  0  0
   -2.1173    0.2263    0.1573 C   0  0  0  0  0  0  0  0  0  0  0  0
   -1.7960   -1.2357   -0.2957 C   0  0  0  0  0  0  0  0  0  0  0  0
   -1.2252   -1.1152    1.1441 C   0  0  0  0  0  0  0  0  0  0  0  0
   -0.6037   -2.1525    1.8092 O   0  0  0  0  0  0  0  0  0  0  0  0
   -2.5371   -0.3796    1.5045 C   0  0  0  0  0  0  0  0  0  0  0  0
   -3.8314   -0.8820    2.0305 C   0  0  0  0  0  0  0  0  0  0  0  0
   -3.0456    0.1973    2.7787 C   0  0  0  0  0  0  0  0  0  0  0  0
    0.4725   -0.2415   -0.7189 H   0  0  0  0  0  0  0  0  0  0  0  0
   -0.5521    1.0038    1.5847 H   0  0  0  0  0  0  0  0  0  0  0  0
   -2.6362    0.9944   -0.4107 H   0  0  0  0  0  0  0  0  0  0  0  0
   -2.6500   -1.9039   -0.4175 H   0  0  0  0  0  0  0  0  0  0  0  0
   -1.0858   -1.3668   -1.1180 H   0  0  0  0  0  0  0  0  0  0  0  0
   -0.1842   -1.7995    2.6016 H   0  0  0  0  0  0  0  0  0  0  0  0
   -4.7538   -0.5844    1.5416 H   0  0  0  0  0  0  0  0  0  0  0  0
   -3.8585   -1.8754    2.4685 H   0  0  0  0  0  0  0  0  0  0  0  0
   -3.4476    1.2057    2.7791 H   0  0  0  0  0  0  0  0  0  0  0  0
   -2.5685   -0.0882    3.7123 H   0  0  0  0  0  0  0  0  0  0  0  0
  1  2  1  0
  2  3  1  0
  3  4  1  0
  4  5  1  0
  5  6  1  0
  5  7  1  0
  7  8  1  0
  8  9  1  0
  5  2  1  0
  9  7  1  0
  7  3  1  0
  1 10  1  0
  2 11  1  0
  3 12  1  0
  4 13  1  0
  4 14  1  0
  6 15  1  0
  8 16  1  0
  8 17  1  0
  9 18  1  0
  9 19  1  0
M  END
$$$$
