gdb 1954	2.7622999	1.5269882	1.3726186	1.4606	74.59	-0.24236	0.07312	0.31548	1032.0758	0.155867	-422.502844	-422.494593	-422.493649	-422.534941	32.635
 OpenBabel02181911403D

 19 21  0  0  1  0  0  0  0  0999 V2000
   -0.0173   -0.1280    0.0337 C   0  0  0  0  0  0  0  0  0  0  0  0
    1.4816    0.0034    0.0055 C   0  0  1  0  0  0  0  0  0  0  0  0
    2.1687   -1.2871   -0.0523 O   0  0  0  0  0  0  0  0  0  0  0  0
    2.8870   -0.9036   -1.2522 C   0  0  0  0  0  0  0  0  0  0  0  0
    2.3175    0.5243   -1.1869 C   0  0  2  0  0  0  0  0  0  0  0  0
    2.9757    1.5505   -0.2308 C   0  0  2  0  0  0  0  0  0  0  0  0
    3.2203    2.8618   -0.5977 O   0  0  0  0  0  0  0  0  0  0  0  0
    3.6234    0.9117    0.9628 C   0  0  0  0  0  0  0  0  0  0  0  0
    2.1193    1.0616    0.9379 C   0  0  2  0  0  0  0  0  0  0  0  0
   -0.3352   -0.6054    0.9677 H   0  0  0  0  0  0  0  0  0  0  0  0
   -0.4921    0.8568   -0.0230 H   0  0  0  0  0  0  0  0  0  0  0  0
   -0.3724   -0.7398   -0.8005 H   0  0  0  0  0  0  0  0  0  0  0  0
    3.9720   -1.0215   -1.1456 H   0  0  0  0  0  0  0  0  0  0  0  0
    2.5467   -1.4841   -2.1187 H   0  0  0  0  0  0  0  0  0  0  0  0
    1.8534    0.9648   -2.0683 H   0  0  0  0  0  0  0  0  0  0  0  0
    4.1473    2.9408   -0.8487 H   0  0  0  0  0  0  0  0  0  0  0  0
    4.0708   -0.0757    0.9343 H   0  0  0  0  0  0  0  0  0  0  0  0
    4.1197    1.6251    1.6136 H   0  0  0  0  0  0  0  0  0  0  0  0
    1.5887    1.6204    1.7001 H   0  0  0  0  0  0  0  0  0  0  0  0
  1 10  1  0  0  0  0
  2  1  1  6  0  0  0
  2  9  1  0  0  0  0
  3  2  1  0  0  0  0
  4  5  1  0  0  0  0
  4 13  1  0  0  0  0
  4  3  1  0  0  0  0
  5 15  1  6  0  0  0
  5  6  1  0  0  0  0
  5  2  1  0  0  0  0
  6  7  1  6  0  0  0
  6  9  1  0  0  0  0
  6  8  1  0  0  0  0
  8 18  1  0  0  0  0
  9  8  1  0  0  0  0
  9 19  1  1  0  0  0
 11  1  1  0  0  0  0
 12  1  1  0  0  0  0
 14  4  1  0  0  0  0
 16  7  1  0  0  0  0
 17  8  1  0  0  0  0
M TOR 0 0 1 2 3
M TOR 1 0 1 4 3
M TOR 2 0 1 4 5
M TOR 3 0 1 4 14
M TOR 4 0 1 8 5
M TOR 5 0 1 8 7
M TOR 6 0 1 8 18
M TOR 7 1 2 3 4
M TOR 8 1 2 3 12
M TOR 9 1 2 3 13
M TOR 10 1 4 3 12
M TOR 11 1 4 3 13
M TOR 12 1 4 5 6
M TOR 13 1 4 5 7
M TOR 14 1 4 5 8
M TOR 15 1 8 5 6
M TOR 16 1 8 5 7
M TOR 17 1 8 7 16
M TOR 18 1 8 7 17
M TOR 19 2 1 0 9
M TOR 20 2 1 0 10
M TOR 21 2 1 0 11
M TOR 22 2 1 4 5
M TOR 23 2 1 4 14
M TOR 24 2 1 8 5
M TOR 25 2 1 8 7
M TOR 26 2 1 8 18
M TOR 27 2 3 4 5
M TOR 28 2 3 4 14
M TOR 29 3 2 1 8
M TOR 30 3 4 1 8
M TOR 31 3 4 5 6
M TOR 32 3 4 5 7
M TOR 33 3 4 5 8
M TOR 34 4 1 0 9
M TOR 35 4 1 0 10
M TOR 36 4 1 0 11
M TOR 37 4 1 8 7
M TOR 38 4 1 8 18
M TOR 39 4 5 6 15
M TOR 40 4 5 7 8
M TOR 41 4 5 7 16
M TOR 42 4 5 7 17
M TOR 43 4 5 8 18
M TOR 44 5 4 3 12
M TOR 45 5 4 3 13
M TOR 46 5 7 8 18
M TOR 47 5 8 7 16
M TOR 48 5 8 7 17
M TOR 49 6 5 4 14
M TOR 50 6 5 7 8
M TOR 51 6 5 7 16
M TOR 52 6 5 7 17
M TOR 53 6 5 8 18
M TOR 54 7 5 4 14
M TOR 55 7 5 6 15
M TOR 56 8 1 0 9
M TOR 57 8 1 0 10
M TOR 58 8 1 0 11
M TOR 59 8 1 4 14
M TOR 60 8 5 4 14
M TOR 61 8 5 6 15
M  END
$$$$
