gdb 3163	2.4048649	1.79746	1.3320961	1.5753	73.03	-0.23999	0.06527	0.30526	1009.9259	0.157466	-422.536205	-422.528035	-422.527091	-422.568319	32.605
 OpenBabel02181911413D

 19 21  0  0  1  0  0  0  0  0999 V2000
    0.4846    0.7175    0.6951 O   0  0  0  0  0  0  0  0  0  0  0  0
   -0.8827    1.0668    0.5262 C   0  0  1  0  0  0  0  0  0  0  0  0
   -1.8179   -0.0717    0.1118 C   0  0  1  0  0  0  0  0  0  0  0  0
   -2.0750   -1.2330    1.0449 C   0  0  0  0  0  0  0  0  0  0  0  0
   -3.0224   -0.0602    1.0302 C   0  0  1  0  0  0  0  0  0  0  0  0
   -2.8314    1.0631    2.0395 C   0  0  1  0  0  0  0  0  0  0  0  0
   -1.6826    0.9873    3.0345 C   0  0  0  0  0  0  0  0  0  0  0  0
   -1.5304    1.7505    1.7452 C   0  0  1  0  0  0  0  0  0  0  0  0
   -1.4452    3.1430    1.8000 O   0  0  0  0  0  0  0  0  0  0  0  0
    0.5181   -0.0619    1.2596 H   0  0  0  0  0  0  0  0  0  0  0  0
   -0.8791    1.8195   -0.2693 H   0  0  0  0  0  0  0  0  0  0  0  0
   -1.9180   -0.2613   -0.9507 H   0  0  0  0  0  0  0  0  0  0  0  0
   -2.4158   -2.1504    0.5769 H   0  0  0  0  0  0  0  0  0  0  0  0
   -1.4454   -1.4094    1.9100 H   0  0  0  0  0  0  0  0  0  0  0  0
   -4.0244   -0.2146    0.6474 H   0  0  0  0  0  0  0  0  0  0  0  0
   -3.7035    1.6366    2.3304 H   0  0  0  0  0  0  0  0  0  0  0  0
   -1.7898    1.6079    3.9180 H   0  0  0  0  0  0  0  0  0  0  0  0
   -1.1576    0.0557    3.2126 H   0  0  0  0  0  0  0  0  0  0  0  0
   -0.5411    3.3680    2.0484 H   0  0  0  0  0  0  0  0  0  0  0  0
  1 10  1  0  0  0  0
  2 11  1  6  0  0  0
  2  1  1  0  0  0  0
  2  8  1  0  0  0  0
  3 12  1  6  0  0  0
  3  2  1  0  0  0  0
  3  5  1  0  0  0  0
  3  4  1  0  0  0  0
  4 14  1  0  0  0  0
  5 15  1  6  0  0  0
  5  4  1  0  0  0  0
  5  6  1  0  0  0  0
  6 16  1  1  0  0  0
  6  7  1  0  0  0  0
  7 18  1  0  0  0  0
  7 17  1  0  0  0  0
  8  9  1  1  0  0  0
  8  6  1  0  0  0  0
  8  7  1  0  0  0  0
  9 19  1  0  0  0  0
 13  4  1  0  0  0  0
M TOR 0 0 1 2 3
M TOR 1 0 1 2 4
M TOR 2 0 1 2 11
M TOR 3 0 1 7 5
M TOR 4 0 1 7 6
M TOR 5 0 1 7 8
M TOR 6 1 2 3 4
M TOR 7 1 2 3 12
M TOR 8 1 2 3 13
M TOR 9 1 2 4 5
M TOR 10 1 2 4 14
M TOR 11 1 7 5 4
M TOR 12 1 7 5 6
M TOR 13 1 7 5 15
M TOR 14 1 7 6 16
M TOR 15 1 7 6 17
M TOR 16 1 7 8 18
M TOR 17 2 1 0 9
M TOR 18 2 1 7 5
M TOR 19 2 1 7 6
M TOR 20 2 1 7 8
M TOR 21 2 3 4 5
M TOR 22 2 3 4 14
M TOR 23 2 4 3 12
M TOR 24 2 4 3 13
M TOR 25 2 4 5 6
M TOR 26 2 4 5 7
M TOR 27 2 4 5 15
M TOR 28 3 2 1 7
M TOR 29 3 2 1 10
M TOR 30 3 4 2 11
M TOR 31 3 4 5 6
M TOR 32 3 4 5 7
M TOR 33 3 4 5 15
M TOR 34 4 2 1 7
M TOR 35 4 2 1 10
M TOR 36 4 5 6 7
M TOR 37 4 5 6 16
M TOR 38 4 5 6 17
M TOR 39 4 5 7 8
M TOR 40 5 4 2 11
M TOR 41 5 4 3 12
M TOR 42 5 4 3 13
M TOR 43 5 6 7 8
M TOR 44 5 7 1 10
M TOR 45 5 7 6 16
M TOR 46 5 7 6 17
M TOR 47 5 7 8 18
M TOR 48 6 5 4 14
M TOR 49 6 7 1 10
M TOR 50 6 7 5 15
M TOR 51 6 7 8 18
M TOR 52 7 1 0 9
M TOR 53 7 1 2 11
M TOR 54 7 5 4 14
M TOR 55 8 7 1 10
M TOR 56 8 7 5 15
M TOR 57 8 7 6 16
M TOR 58 8 7 6 17
M  END
$$$$
