
     RDKit          3D

 19 18  0  0  0  0  0  0  0  0999 V2000
   -0.0553    0.2054    0.5239 C   0  0  0  0  0  0  0  0  0  0  0  0
    1.1581   -0.2428   -0.2922 C   0  0  0  0  0  0  0  0  0  0  0  0
    1.5317   -1.5277    0.2012 O   0  0  0  0  0  0  0  0  0  0  0  0
    2.2692    0.7129   -0.2115 C   0  0  0  0  0  0  0  0  0  0  0  0
    3.2051    1.4722   -0.1724 C   0  0  0  0  0  0  0  0  0  0  0  0
    4.3357    2.3873   -0.0583 C   0  0  0  0  0  0  0  0  0  0  0  0
    3.8818    3.8669   -0.0244 C   0  0  0  0  0  0  0  0  0  0  0  0
    5.1090    2.0830    1.2297 C   0  0  0  0  0  0  0  0  0  0  0  0
    6.3005    1.9458    1.2835 O   0  0  0  0  0  0  0  0  0  0  0  0
    0.2193    0.3090    1.5764 H   0  0  0  0  0  0  0  0  0  0  0  0
   -0.4314    1.1638    0.1577 H   0  0  0  0  0  0  0  0  0  0  0  0
   -0.8450   -0.5455    0.4385 H   0  0  0  0  0  0  0  0  0  0  0  0
    0.8562   -0.3209   -1.3501 H   0  0  0  0  0  0  0  0  0  0  0  0
    2.3700   -1.7676   -0.2071 H   0  0  0  0  0  0  0  0  0  0  0  0
    5.0366    2.2423   -0.8878 H   0  0  0  0  0  0  0  0  0  0  0  0
    3.2471    4.0583    0.8459 H   0  0  0  0  0  0  0  0  0  0  0  0
    4.7522    4.5272    0.0216 H   0  0  0  0  0  0  0  0  0  0  0  0
    3.3059    4.1026   -0.9222 H   0  0  0  0  0  0  0  0  0  0  0  0
    4.4646    2.0195    2.1347 H   0  0  0  0  0  0  0  0  0  0  0  0
  1  2  1  0
  2  3  1  0
  2  4  1  0
  4  5  3  0
  5  6  1  0
  6  7  1  0
  6  8  1  0
  8  9  2  0
  1 10  1  0
  1 11  1  0
  1 12  1  0
  2 13  1  0
  3 14  1  0
  6 15  1  0
  7 16  1  0
  7 17  1  0
  7 18  1  0
  8 19  1  0
M  END
$$$$
