
     RDKit          3D

 19 20  0  0  0  0  0  0  0  0999 V2000
    1.0966    1.0370   -0.5362 O   0  0  0  0  0  0  0  0  0  0  0  0
   -0.0036    0.2608   -0.0415 C   0  0  0  0  0  0  0  0  0  0  0  0
   -0.9911    0.1325   -1.1659 C   0  0  0  0  0  0  0  0  0  0  0  0
   -2.4606    0.4149   -0.9067 C   0  0  0  0  0  0  0  0  0  0  0  0
   -1.6419    1.4113   -1.6839 C   0  0  0  0  0  0  0  0  0  0  0  0
   -1.3875    2.6499   -1.0995 O   0  0  0  0  0  0  0  0  0  0  0  0
   -1.6732    1.2663   -3.1713 C   0  0  0  0  0  0  0  0  0  0  0  0
   -1.1469    0.1031   -3.5593 C   0  0  0  0  0  0  0  0  0  0  0  0
   -0.6291   -0.7110   -2.3897 C   0  0  0  0  0  0  0  0  0  0  0  0
    1.7720    1.0746    0.1484 H   0  0  0  0  0  0  0  0  0  0  0  0
    0.3430   -0.7286    0.2940 H   0  0  0  0  0  0  0  0  0  0  0  0
   -0.4716    0.7629    0.8158 H   0  0  0  0  0  0  0  0  0  0  0  0
   -3.2109   -0.1663   -1.4328 H   0  0  0  0  0  0  0  0  0  0  0  0
   -2.7223    0.6982    0.1079 H   0  0  0  0  0  0  0  0  0  0  0  0
   -0.4275    2.7619   -1.1130 H   0  0  0  0  0  0  0  0  0  0  0  0
   -2.1002    2.0280   -3.8133 H   0  0  0  0  0  0  0  0  0  0  0  0
   -1.1062   -0.2592   -4.5805 H   0  0  0  0  0  0  0  0  0  0  0  0
   -1.0821   -1.7107   -2.3554 H   0  0  0  0  0  0  0  0  0  0  0  0
    0.4570   -0.8578   -2.4565 H   0  0  0  0  0  0  0  0  0  0  0  0
  1  2  1  0
  2  3  1  0
  3  4  1  0
  4  5  1  0
  5  6  1  0
  5  7  1  0
  7  8  2  0
  8  9  1  0
  5  3  1  0
  9  3  1  0
  1 10  1  0
  2 11  1  0
  2 12  1  0
  4 13  1  0
  4 14  1  0
  6 15  1  0
  7 16  1  0
  8 17  1  0
  9 18  1  0
  9 19  1  0
M  END
$$$$
