
     RDKit          3D

 19 19  0  0  0  0  0  0  0  0999 V2000
   -1.5520   -3.1538   -0.8943 C   0  0  0  0  0  0  0  0  0  0  0  0
   -1.2148   -1.9364   -0.0366 C   0  0  0  0  0  0  0  0  0  0  0  0
   -2.3833   -1.1355    0.0227 O   0  0  0  0  0  0  0  0  0  0  0  0
   -2.1822    0.1050    0.6643 C   0  0  0  0  0  0  0  0  0  0  0  0
   -1.0809    0.9395    0.0160 C   0  0  0  0  0  0  0  0  0  0  0  0
   -1.0795    2.1519    0.0886 O   0  0  0  0  0  0  0  0  0  0  0  0
    0.0175    0.1724   -0.6213 C   0  0  0  0  0  0  0  0  0  0  0  0
    1.1534    0.9601   -1.2085 C   0  0  0  0  0  0  0  0  0  0  0  0
   -0.0377   -1.1673   -0.5767 C   0  0  0  0  0  0  0  0  0  0  0  0
   -2.4205   -3.6696   -0.4777 H   0  0  0  0  0  0  0  0  0  0  0  0
   -1.7881   -2.8434   -1.9159 H   0  0  0  0  0  0  0  0  0  0  0  0
   -0.7097   -3.8509   -0.9226 H   0  0  0  0  0  0  0  0  0  0  0  0
   -0.9600   -2.2861    0.9845 H   0  0  0  0  0  0  0  0  0  0  0  0
   -3.1231    0.6574    0.6177 H   0  0  0  0  0  0  0  0  0  0  0  0
   -1.9226   -0.0311    1.7308 H   0  0  0  0  0  0  0  0  0  0  0  0
    1.5836    1.6361   -0.4629 H   0  0  0  0  0  0  0  0  0  0  0  0
    1.9378    0.3016   -1.5898 H   0  0  0  0  0  0  0  0  0  0  0  0
    0.7993    1.5947   -2.0278 H   0  0  0  0  0  0  0  0  0  0  0  0
    0.7967   -1.7621   -0.9451 H   0  0  0  0  0  0  0  0  0  0  0  0
  1  2  1  0
  2  3  1  0
  3  4  1  0
  4  5  1  0
  5  6  2  0
  5  7  1  0
  7  8  1  0
  7  9  2  0
  9  2  1  0
  1 10  1  0
  1 11  1  0
  1 12  1  0
  2 13  1  0
  4 14  1  0
  4 15  1  0
  8 16  1  0
  8 17  1  0
  8 18  1  0
  9 19  1  0
M  END
$$$$
