gdb 600	2.2112957	2.0667112	1.7801535	1.7291	74.94	-0.24238	0.01739	0.25977	907.6366	0.160451	-422.566456	-422.559286	-422.558342	-422.597903	28.517
 OpenBabel02181911403D

 19 20  0  0  1  0  0  0  0  0999 V2000
   -0.0606    0.0625    0.4594 C   0  0  0  0  0  0  0  0  0  0  0  0
   -1.3034    0.7381    0.6183 O   0  0  0  0  0  0  0  0  0  0  0  0
   -2.3680   -0.0823    1.0688 C   0  0  1  0  0  0  0  0  0  0  0  0
   -3.1532   -0.6642   -0.1240 C   0  0  0  0  0  0  0  0  0  0  0  0
   -2.3342   -1.4237   -1.1315 C   0  0  0  0  0  0  0  0  0  0  0  0
   -1.0556   -1.7623   -0.9788 C   0  0  0  0  0  0  0  0  0  0  0  0
   -0.2604   -1.4504    0.2717 C   0  0  2  0  0  0  0  0  0  0  0  0
   -0.9593   -1.9635    1.5437 C   0  0  0  0  0  0  0  0  0  0  0  0
   -1.9488   -1.0412    2.0060 O   0  0  0  0  0  0  0  0  0  0  0  0
    0.4369    0.5078   -0.4082 H   0  0  0  0  0  0  0  0  0  0  0  0
    0.5719    0.2368    1.3436 H   0  0  0  0  0  0  0  0  0  0  0  0
   -3.0346    0.5792    1.6313 H   0  0  0  0  0  0  0  0  0  0  0  0
   -3.9671   -1.2897    0.2698 H   0  0  0  0  0  0  0  0  0  0  0  0
   -3.6421    0.1796   -0.6289 H   0  0  0  0  0  0  0  0  0  0  0  0
   -2.8485   -1.6916   -2.0520 H   0  0  0  0  0  0  0  0  0  0  0  0
   -0.5423   -2.2951   -1.7744 H   0  0  0  0  0  0  0  0  0  0  0  0
    0.7247   -1.9228    0.2050 H   0  0  0  0  0  0  0  0  0  0  0  0
   -1.4167   -2.9458    1.3682 H   0  0  0  0  0  0  0  0  0  0  0  0
   -0.2324   -2.0638    2.3588 H   0  0  0  0  0  0  0  0  0  0  0  0
  1  2  1  0  0  0  0
  1 11  1  0  0  0  0
  2  3  1  0  0  0  0
  3 12  1  1  0  0  0
  3  9  1  0  0  0  0
  4 13  1  0  0  0  0
  4  3  1  0  0  0  0
  5  6  2  0  0  0  0
  5  4  1  0  0  0  0
  6  7  1  0  0  0  0
  7 17  1  6  0  0  0
  7  1  1  0  0  0  0
  7  8  1  0  0  0  0
  8  9  1  0  0  0  0
  8 19  1  0  0  0  0
 10  1  1  0  0  0  0
 14  4  1  0  0  0  0
 15  5  1  0  0  0  0
 16  6  1  0  0  0  0
 18  8  1  0  0  0  0
M TOR 0 0 1 2 3
M TOR 1 0 1 2 8
M TOR 2 0 1 2 11
M TOR 3 0 6 5 4
M TOR 4 0 6 5 15
M TOR 5 0 6 7 8
M TOR 6 0 6 7 17
M TOR 7 0 6 7 18
M TOR 8 1 0 6 5
M TOR 9 1 0 6 7
M TOR 10 1 0 6 16
M TOR 11 1 2 3 4
M TOR 12 1 2 3 12
M TOR 13 1 2 3 13
M TOR 14 1 2 8 7
M TOR 15 2 1 0 6
M TOR 16 2 1 0 9
M TOR 17 2 1 0 10
M TOR 18 2 3 4 5
M TOR 19 2 3 4 14
M TOR 20 2 8 7 6
M TOR 21 2 8 7 17
M TOR 22 2 8 7 18
M TOR 23 3 2 8 7
M TOR 24 3 4 5 6
M TOR 25 3 4 5 15
M TOR 26 4 3 2 8
M TOR 27 4 3 2 11
M TOR 28 4 5 6 7
M TOR 29 4 5 6 16
M TOR 30 5 4 3 12
M TOR 31 5 4 3 13
M TOR 32 5 6 0 9
M TOR 33 5 6 0 10
M TOR 34 5 6 7 8
M TOR 35 5 6 7 17
M TOR 36 5 6 7 18
M TOR 37 6 5 4 14
M TOR 38 7 6 0 9
M TOR 39 7 6 0 10
M TOR 40 7 6 5 15
M TOR 41 7 8 2 11
M TOR 42 8 2 3 12
M TOR 43 8 2 3 13
M TOR 44 8 7 6 16
M  END
$$$$
