
     RDKit          3D

 19 21  0  0  0  0  0  0  0  0999 V2000
    0.8856   -0.4428    0.9612 C   0  0  0  0  0  0  0  0  0  0  0  0
    0.8569    0.2618   -0.4030 C   0  0  0  0  0  0  0  0  0  0  0  0
    1.6032   -0.4976   -1.4483 C   0  0  0  0  0  0  0  0  0  0  0  0
    1.2126   -1.8392   -1.7745 O   0  0  0  0  0  0  0  0  0  0  0  0
    2.1042   -1.7281   -2.9220 C   0  0  0  0  0  0  0  0  0  0  0  0
    3.5252   -1.7535   -2.3008 C   0  0  0  0  0  0  0  0  0  0  0  0
    3.1250   -0.3905   -1.7298 C   0  0  0  0  0  0  0  0  0  0  0  0
    3.9277    0.5838   -1.1759 O   0  0  0  0  0  0  0  0  0  0  0  0
    2.0939   -0.1599   -2.8245 C   0  0  0  0  0  0  0  0  0  0  0  0
    0.4801   -1.4549    0.8804 H   0  0  0  0  0  0  0  0  0  0  0  0
    1.9083   -0.5254    1.3449 H   0  0  0  0  0  0  0  0  0  0  0  0
    0.2936    0.1073    1.6981 H   0  0  0  0  0  0  0  0  0  0  0  0
   -0.1815    0.4001   -0.7272 H   0  0  0  0  0  0  0  0  0  0  0  0
    1.3033    1.2602   -0.3295 H   0  0  0  0  0  0  0  0  0  0  0  0
    1.8151   -2.3491   -3.7663 H   0  0  0  0  0  0  0  0  0  0  0  0
    3.7465   -2.5843   -1.6227 H   0  0  0  0  0  0  0  0  0  0  0  0
    4.3037   -1.6482   -3.0609 H   0  0  0  0  0  0  0  0  0  0  0  0
    4.0758    0.3679   -0.2481 H   0  0  0  0  0  0  0  0  0  0  0  0
    1.9121    0.6499   -3.5174 H   0  0  0  0  0  0  0  0  0  0  0  0
  1  2  1  0
  2  3  1  0
  3  4  1  0
  4  5  1  0
  5  6  1  0
  6  7  1  0
  7  8  1  0
  7  9  1  0
  7  3  1  0
  9  3  1  0
  9  5  1  0
  1 10  1  0
  1 11  1  0
  1 12  1  0
  2 13  1  0
  2 14  1  0
  5 15  1  0
  6 16  1  0
  6 17  1  0
  8 18  1  0
  9 19  1  0
M  END
$$$$
