
     RDKit          3D

 19 21  0  0  0  0  0  0  0  0999 V2000
    1.1619    0.6898   -0.6026 O   0  0  0  0  0  0  0  0  0  0  0  0
    0.0381    0.1641    0.0885 C   0  0  0  0  0  0  0  0  0  0  0  0
   -1.2086    0.2468   -0.7388 C   0  0  0  0  0  0  0  0  0  0  0  0
   -1.3265   -0.7418   -1.7923 O   0  0  0  0  0  0  0  0  0  0  0  0
   -2.3335   -0.6885   -0.7662 C   0  0  0  0  0  0  0  0  0  0  0  0
   -3.5161    0.2692   -1.0387 C   0  0  0  0  0  0  0  0  0  0  0  0
   -3.1461    1.4187   -0.0345 C   0  0  0  0  0  0  0  0  0  0  0  0
   -1.9346    1.5855   -1.0204 C   0  0  0  0  0  0  0  0  0  0  0  0
   -2.9415    1.2035   -2.1397 C   0  0  0  0  0  0  0  0  0  0  0  0
    1.2551    0.1761   -1.4128 H   0  0  0  0  0  0  0  0  0  0  0  0
    0.2038   -0.8791    0.3952 H   0  0  0  0  0  0  0  0  0  0  0  0
   -0.0706    0.7713    0.9939 H   0  0  0  0  0  0  0  0  0  0  0  0
   -2.4324   -1.5743   -0.1467 H   0  0  0  0  0  0  0  0  0  0  0  0
   -4.5160   -0.1596   -1.0969 H   0  0  0  0  0  0  0  0  0  0  0  0
   -3.8454    2.2583   -0.0602 H   0  0  0  0  0  0  0  0  0  0  0  0
   -2.9289    1.1406    1.0019 H   0  0  0  0  0  0  0  0  0  0  0  0
   -1.3246    2.4866   -1.0583 H   0  0  0  0  0  0  0  0  0  0  0  0
   -3.6244    2.0244   -2.3650 H   0  0  0  0  0  0  0  0  0  0  0  0
   -2.5551    0.7515   -3.0509 H   0  0  0  0  0  0  0  0  0  0  0  0
  1  2  1  0
  2  3  1  0
  3  4  1  0
  4  5  1  0
  5  6  1  0
  6  7  1  0
  7  8  1  0
  8  9  1  0
  5  3  1  0
  9  6  1  0
  8  3  1  0
  1 10  1  0
  2 11  1  0
  2 12  1  0
  5 13  1  0
  6 14  1  0
  7 15  1  0
  7 16  1  0
  8 17  1  0
  9 18  1  0
  9 19  1  0
M  END
$$$$
