gdb 1186	2.4848879	1.2825164	1.1163493	0.8982	76.57	-0.2541	0.04724	0.30134	1184.9421	0.15382	-422.505273	-422.495437	-422.494493	-422.539774	36.031
 OpenBabel02181911403D

 19 19  0  0  1  0  0  0  0  0999 V2000
   -1.2597    0.6318   -1.1457 C   0  0  0  0  0  0  0  0  0  0  0  0
    0.2232    0.3497   -0.8337 C   0  0  1  0  0  0  0  0  0  0  0  0
    0.8453    1.4760   -0.1376 C   0  0  0  0  0  0  0  0  0  0  0  0
    1.3557    2.4078    0.4244 C   0  0  0  0  0  0  0  0  0  0  0  0
    0.4032   -0.9565   -0.0365 C   0  0  0  0  0  0  0  0  0  0  0  0
   -0.3657   -0.8513    1.1308 O   0  0  0  0  0  0  0  0  0  0  0  0
    0.2583   -2.2395   -0.9003 C   0  0  0  0  0  0  0  0  0  0  0  0
    1.6874   -2.4099   -0.9356 O   0  0  0  0  0  0  0  0  0  0  0  0
    1.8788   -1.4132    0.0896 C   0  0  0  0  0  0  0  0  0  0  0  0
   -1.8216    0.7659   -0.2202 H   0  0  0  0  0  0  0  0  0  0  0  0
   -1.3550    1.5370   -1.7496 H   0  0  0  0  0  0  0  0  0  0  0  0
   -1.7001   -0.2012   -1.7024 H   0  0  0  0  0  0  0  0  0  0  0  0
    0.7593    0.2023   -1.7810 H   0  0  0  0  0  0  0  0  0  0  0  0
    1.8043    3.2308    0.9234 H   0  0  0  0  0  0  0  0  0  0  0  0
   -0.2328   -1.6445    1.6600 H   0  0  0  0  0  0  0  0  0  0  0  0
   -0.2470   -3.0581   -0.3658 H   0  0  0  0  0  0  0  0  0  0  0  0
   -0.1753   -2.1452   -1.9023 H   0  0  0  0  0  0  0  0  0  0  0  0
    2.1080   -1.8624    1.0677 H   0  0  0  0  0  0  0  0  0  0  0  0
    2.6582   -0.6886   -0.1659 H   0  0  0  0  0  0  0  0  0  0  0  0
  1  2  1  0  0  0  0
  1 10  1  0  0  0  0
  2 13  1  6  0  0  0
  2  3  1  0  0  0  0
  2  5  1  0  0  0  0
  3  4  3  0  0  0  0
  4 14  1  0  0  0  0
  5  9  1  0  0  0  0
  5  6  1  0  0  0  0
  6 15  1  0  0  0  0
  7 16  1  0  0  0  0
  7  5  1  0  0  0  0
  8  7  1  0  0  0  0
  8  9  1  0  0  0  0
  9 18  1  0  0  0  0
 11  1  1  0  0  0  0
 12  1  1  0  0  0  0
 17  7  1  0  0  0  0
 19  9  1  0  0  0  0
M TOR 0 0 1 2 3
M TOR 1 0 1 4 5
M TOR 2 0 1 4 6
M TOR 3 0 1 4 8
M TOR 4 1 2 3 13
M TOR 5 1 4 5 14
M TOR 6 1 4 6 7
M TOR 7 1 4 6 15
M TOR 8 1 4 6 16
M TOR 9 1 4 8 7
M TOR 10 1 4 8 17
M TOR 11 1 4 8 18
M TOR 12 2 1 0 9
M TOR 13 2 1 0 10
M TOR 14 2 1 0 11
M TOR 15 2 1 4 5
M TOR 16 2 1 4 6
M TOR 17 2 1 4 8
M TOR 18 3 2 1 4
M TOR 19 3 2 1 12
M TOR 20 4 1 0 9
M TOR 21 4 1 0 10
M TOR 22 4 1 0 11
M TOR 23 4 6 7 8
M TOR 24 5 4 1 12
M TOR 25 5 4 6 7
M TOR 26 5 4 6 15
M TOR 27 5 4 6 16
M TOR 28 5 4 8 7
M TOR 29 5 4 8 17
M TOR 30 5 4 8 18
M TOR 31 6 4 1 12
M TOR 32 6 4 5 14
M TOR 33 6 4 8 17
M TOR 34 6 4 8 18
M TOR 35 6 7 8 17
M TOR 36 6 7 8 18
M TOR 37 8 4 1 12
M TOR 38 8 4 5 14
M TOR 39 8 4 6 15
M TOR 40 8 4 6 16
M TOR 41 8 7 6 15
M TOR 42 8 7 6 16
M  END
$$$$
