
     RDKit          3D

 19 20  0  0  0  0  0  0  0  0999 V2000
    1.4638   -1.0154    4.7594 O   0  0  0  0  0  0  0  0  0  0  0  0
    1.0514    0.2698    4.3049 C   0  0  0  0  0  0  0  0  0  0  0  0
   -0.4817    0.4668    4.4550 C   0  0  0  0  0  0  0  0  0  0  0  0
   -1.0162    0.1041    3.0941 C   0  0  0  0  0  0  0  0  0  0  0  0
   -0.0460   -0.0028    2.1820 C   0  0  0  0  0  0  0  0  0  0  0  0
    1.3101    0.2976    2.7842 C   0  0  0  0  0  0  0  0  0  0  0  0
   -0.2432   -0.3169    0.7559 C   0  0  0  0  0  0  0  0  0  0  0  0
    0.7340   -1.0813   -0.0428 C   0  0  0  0  0  0  0  0  0  0  0  0
    0.6362    0.3316   -0.1832 O   0  0  0  0  0  0  0  0  0  0  0  0
    1.2538   -1.0790    5.6966 H   0  0  0  0  0  0  0  0  0  0  0  0
    1.6147    1.0538    4.8293 H   0  0  0  0  0  0  0  0  0  0  0  0
   -0.8814   -0.1613    5.2616 H   0  0  0  0  0  0  0  0  0  0  0  0
   -0.7317    1.5052    4.7156 H   0  0  0  0  0  0  0  0  0  0  0  0
   -2.0738   -0.0277    2.8909 H   0  0  0  0  0  0  0  0  0  0  0  0
    2.0823   -0.4354    2.5315 H   0  0  0  0  0  0  0  0  0  0  0  0
    1.6723    1.2757    2.4473 H   0  0  0  0  0  0  0  0  0  0  0  0
   -1.2829   -0.3552    0.4295 H   0  0  0  0  0  0  0  0  0  0  0  0
    1.6476   -1.4462    0.4227 H   0  0  0  0  0  0  0  0  0  0  0  0
    0.3798   -1.6654   -0.8918 H   0  0  0  0  0  0  0  0  0  0  0  0
  1  2  1  0
  2  3  1  0
  3  4  1  0
  4  5  2  0
  5  6  1  0
  5  7  1  0
  7  8  1  0
  8  9  1  0
  6  2  1  0
  9  7  1  0
  1 10  1  0
  2 11  1  0
  3 12  1  0
  3 13  1  0
  4 14  1  0
  6 15  1  0
  6 16  1  0
  7 17  1  0
  8 18  1  0
  8 19  1  0
M  END
$$$$
