
     RDKit          3D

 19 19  0  0  0  0  0  0  0  0999 V2000
    5.2691   -0.9743    0.0885 O   0  0  0  0  0  0  0  0  0  0  0  0
    4.6695   -0.8296   -1.1902 C   0  0  0  0  0  0  0  0  0  0  0  0
    4.8372   -2.1046   -2.0142 C   0  0  0  0  0  0  0  0  0  0  0  0
    3.8949   -2.9910   -1.4192 O   0  0  0  0  0  0  0  0  0  0  0  0
    2.6984   -2.2326   -1.1950 C   0  0  0  0  0  0  0  0  0  0  0  0
    3.1225   -0.7386   -1.1240 C   0  0  0  0  0  0  0  0  0  0  0  0
    2.5929    0.0206    0.1047 C   0  0  0  0  0  0  0  0  0  0  0  0
    1.1357    0.0620    0.1524 C   0  0  0  0  0  0  0  0  0  0  0  0
   -0.0664    0.0781    0.1680 C   0  0  0  0  0  0  0  0  0  0  0  0
    5.0789   -1.8747    0.3810 H   0  0  0  0  0  0  0  0  0  0  0  0
    5.1210    0.0553   -1.6459 H   0  0  0  0  0  0  0  0  0  0  0  0
    4.6141   -1.9300   -3.0795 H   0  0  0  0  0  0  0  0  0  0  0  0
    5.8322   -2.5468   -1.9229 H   0  0  0  0  0  0  0  0  0  0  0  0
    1.9837   -2.4065   -2.0096 H   0  0  0  0  0  0  0  0  0  0  0  0
    2.2450   -2.5908   -0.2659 H   0  0  0  0  0  0  0  0  0  0  0  0
    2.7738   -0.2225   -2.0245 H   0  0  0  0  0  0  0  0  0  0  0  0
    2.9869   -0.4465    1.0137 H   0  0  0  0  0  0  0  0  0  0  0  0
    2.9908    1.0430    0.0988 H   0  0  0  0  0  0  0  0  0  0  0  0
   -1.1275    0.1016    0.1966 H   0  0  0  0  0  0  0  0  0  0  0  0
  1  2  1  0
  2  3  1  0
  3  4  1  0
  4  5  1  0
  5  6  1  0
  6  7  1  0
  7  8  1  0
  8  9  3  0
  6  2  1  0
  1 10  1  0
  2 11  1  0
  3 12  1  0
  3 13  1  0
  5 14  1  0
  5 15  1  0
  6 16  1  0
  7 17  1  0
  7 18  1  0
  9 19  1  0
M  END
$$$$
