gdb 4538	2.6303667	1.7181623	1.2921027	1.665	76.96	-0.23953	0.00957	0.2491	1026.8038	0.157759	-422.526971	-422.518986	-422.518042	-422.559129	30.728
 OpenBabel02181911413D

 19 20  0  0  1  0  0  0  0  0999 V2000
   -0.0216    1.5945   -0.0435 C   0  0  0  0  0  0  0  0  0  0  0  0
   -0.0029    0.0717    0.0289 C   0  0  2  0  0  0  0  0  0  0  0  0
   -1.3044   -0.5385    0.0615 O   0  0  0  0  0  0  0  0  0  0  0  0
   -2.1521   -0.2278    1.1612 C   0  0  0  0  0  0  0  0  0  0  0  0
   -1.4335   -0.0639    2.4788 C   0  0  0  0  0  3  0  0  0  0  0  0
   -0.1264   -0.2589    2.4851 C   0  0  2  0  0  3  0  0  0  0  0  0
    1.1295    0.1891    3.1865 C   0  0  0  0  0  0  0  0  0  0  0  0
    1.8046    0.2273    1.8926 O   0  0  0  0  0  0  0  0  0  0  0  0
    0.7082   -0.4987    1.2641 C   0  0  2  0  0  0  0  0  0  0  0  0
    0.9995    1.9686   -0.1568 H   0  0  0  0  0  0  0  0  0  0  0  0
   -0.6133    1.9181   -0.9044 H   0  0  0  0  0  0  0  0  0  0  0  0
   -0.4419    2.0451    0.8595 H   0  0  0  0  0  0  0  0  0  0  0  0
    0.4364   -0.3232   -0.8924 H   0  0  0  0  0  0  0  0  0  0  0  0
   -2.7134    0.7020    0.9641 H   0  0  0  0  0  0  0  0  0  0  0  0
   -2.8910   -1.0379    1.1921 H   0  0  0  0  0  0  0  0  0  0  0  0
   -1.9950    0.3252    3.3234 H   0  0  0  0  0  0  0  0  0  0  0  0
    1.1104    1.1672    3.6804 H   0  0  0  0  0  0  0  0  0  0  0  0
    1.5978   -0.5464    3.8553 H   0  0  0  0  0  0  0  0  0  0  0  0
    0.9992   -1.5411    1.0800 H   0  0  0  0  0  0  0  0  0  0  0  0
  1  2  1  0  0  0  0
  1 12  1  0  0  0  0
  2 13  1  6  0  0  0
  2  3  1  0  0  0  0
  2  9  1  0  0  0  0
  3  4  1  0  0  0  0
  4 15  1  0  0  0  0
  4  5  1  0  0  0  0
  5 16  1  0  0  0  0
  6  5  1  6  0  0  0
  6  7  1  0  0  0  0
  7 17  1  0  0  0  0
  7 18  1  0  0  0  0
  8  7  1  0  0  0  0
  9 19  1  6  0  0  0
  9  8  1  0  0  0  0
  9  6  1  0  0  0  0
 10  1  1  0  0  0  0
 11  1  1  0  0  0  0
 14  4  1  0  0  0  0
M TOR 0 0 1 2 3
M TOR 1 0 1 8 5
M TOR 2 0 1 8 7
M TOR 3 0 1 8 18
M TOR 4 1 2 3 4
M TOR 5 1 2 3 13
M TOR 6 1 2 3 14
M TOR 7 1 8 5 4
M TOR 8 1 8 5 6
M TOR 9 1 8 7 6
M TOR 10 2 1 0 9
M TOR 11 2 1 0 10
M TOR 12 2 1 0 11
M TOR 13 2 1 8 5
M TOR 14 2 1 8 7
M TOR 15 2 1 8 18
M TOR 16 2 3 4 5
M TOR 17 2 3 4 15
M TOR 18 3 2 1 8
M TOR 19 3 2 1 12
M TOR 20 3 4 5 6
M TOR 21 3 4 5 8
M TOR 22 4 5 6 7
M TOR 23 4 5 6 16
M TOR 24 4 5 6 17
M TOR 25 4 5 8 7
M TOR 26 4 5 8 18
M TOR 27 5 4 3 13
M TOR 28 5 4 3 14
M TOR 29 5 6 7 8
M TOR 30 5 8 1 12
M TOR 31 6 5 4 15
M TOR 32 6 5 8 18
M TOR 33 6 7 8 18
M TOR 34 7 8 1 12
M TOR 35 8 1 0 9
M TOR 36 8 1 0 10
M TOR 37 8 1 0 11
M TOR 38 8 5 4 15
M TOR 39 8 5 6 16
M TOR 40 8 5 6 17
M TOR 41 8 7 6 16
M TOR 42 8 7 6 17
M  END
$$$$
