
     RDKit          3D

 19 21  0  0  0  0  0  0  0  0999 V2000
    1.5079   -0.1276    0.1288 C   0  0  0  0  0  0  0  0  0  0  0  0
    0.0989    0.0252    0.0459 O   0  0  0  0  0  0  0  0  0  0  0  0
   -0.4580    0.6697    1.1205 C   0  0  0  0  0  0  0  0  0  0  0  0
   -0.7504   -0.0159    2.4357 C   0  0  0  0  0  0  0  0  0  0  0  0
   -1.8890    0.5615    1.6238 C   0  0  0  0  0  0  0  0  0  0  0  0
   -1.9593    2.0850    1.8298 C   0  0  0  0  0  0  0  0  0  0  0  0
   -0.5042    2.1808    1.3273 C   0  0  0  0  0  0  0  0  0  0  0  0
    0.5513    3.1631    1.5817 C   0  0  0  0  0  0  0  0  0  0  0  0
   -0.1282    3.0898    0.3143 O   0  0  0  0  0  0  0  0  0  0  0  0
    1.8016   -0.6381    1.0564 H   0  0  0  0  0  0  0  0  0  0  0  0
    1.8107   -0.7341   -0.7275 H   0  0  0  0  0  0  0  0  0  0  0  0
    2.0217    0.8407    0.0742 H   0  0  0  0  0  0  0  0  0  0  0  0
   -0.6652   -1.0972    2.3908 H   0  0  0  0  0  0  0  0  0  0  0  0
   -0.4670    0.4254    3.3888 H   0  0  0  0  0  0  0  0  0  0  0  0
   -2.6906   -0.0585    1.2445 H   0  0  0  0  0  0  0  0  0  0  0  0
   -2.6345    2.5831    1.1297 H   0  0  0  0  0  0  0  0  0  0  0  0
   -2.1639    2.4320    2.8476 H   0  0  0  0  0  0  0  0  0  0  0  0
    0.3332    4.0530    2.1710 H   0  0  0  0  0  0  0  0  0  0  0  0
    1.5976    2.8606    1.5702 H   0  0  0  0  0  0  0  0  0  0  0  0
  1  2  1  0
  2  3  1  0
  3  4  1  0
  4  5  1  0
  5  6  1  0
  6  7  1  0
  7  8  1  0
  8  9  1  0
  5  3  1  0
  9  7  1  0
  7  3  1  0
  1 10  1  0
  1 11  1  0
  1 12  1  0
  4 13  1  0
  4 14  1  0
  5 15  1  0
  6 16  1  0
  6 17  1  0
  8 18  1  0
  8 19  1  0
M  END
$$$$
