
     RDKit          3D

 19 21  0  0  0  0  0  0  0  0999 V2000
    1.7283    0.1704    0.1331 O   0  0  0  0  0  0  0  0  0  0  0  0
    0.3435    0.0998   -0.1779 C   0  0  0  0  0  0  0  0  0  0  0  0
    0.0759   -0.0047   -1.6736 C   0  0  0  0  0  0  0  0  0  0  0  0
    0.3388    1.2962   -2.4352 C   0  0  0  0  0  0  0  0  0  0  0  0
   -0.6302    1.3211   -3.6587 C   0  0  0  0  0  0  0  0  0  0  0  0
   -1.4539    0.0377   -3.5907 C   0  0  0  0  0  0  0  0  0  0  0  0
   -1.4223    0.2057   -2.0472 C   0  0  0  0  0  0  0  0  0  0  0  0
   -1.0773    1.7552   -2.2855 C   0  0  0  0  0  0  0  0  0  0  0  0
   -1.5503    2.9306   -1.7670 O   0  0  0  0  0  0  0  0  0  0  0  0
    2.0602    1.0057   -0.2105 H   0  0  0  0  0  0  0  0  0  0  0  0
   -0.0254   -0.8002    0.3269 H   0  0  0  0  0  0  0  0  0  0  0  0
   -0.2051    0.9600    0.2382 H   0  0  0  0  0  0  0  0  0  0  0  0
    0.5419   -0.9150   -2.0702 H   0  0  0  0  0  0  0  0  0  0  0  0
    1.2325    1.9085   -2.4572 H   0  0  0  0  0  0  0  0  0  0  0  0
   -0.3966    1.9395   -4.5161 H   0  0  0  0  0  0  0  0  0  0  0  0
   -2.4572    0.1827   -4.0021 H   0  0  0  0  0  0  0  0  0  0  0  0
   -1.0236   -0.8859   -3.9934 H   0  0  0  0  0  0  0  0  0  0  0  0
   -2.2123   -0.2009   -1.4175 H   0  0  0  0  0  0  0  0  0  0  0  0
   -2.3926    3.1379   -2.1882 H   0  0  0  0  0  0  0  0  0  0  0  0
  1  2  1  0
  2  3  1  0
  3  4  1  0
  4  5  1  0
  5  6  1  0
  6  7  1  0
  7  8  1  0
  8  9  1  0
  7  3  1  0
  8  4  1  0
  8  5  1  0
  1 10  1  0
  2 11  1  0
  2 12  1  0
  3 13  1  0
  4 14  1  0
  5 15  1  0
  6 16  1  0
  6 17  1  0
  7 18  1  0
  9 19  1  0
M  END
$$$$
