gdb 1768	2.5320022	1.8672628	1.3574598	0.384	74.01	-0.23409	0.07578	0.30987	1008.7314	0.155652	-422.516857	-422.508819	-422.507875	-422.548675	32.14
 OpenBabel02181911403D

 19 21  0  0  1  0  0  0  0  0999 V2000
    4.2692   -0.4345    1.7162 C   0  0  0  0  0  0  0  0  0  0  0  0
    3.2353   -0.1671    0.6603 C   0  0  2  0  0  0  0  0  0  0  0  0
    2.5009    1.1776    0.4487 C   0  0  0  0  0  0  0  0  0  0  0  0
    1.4529    0.1868   -0.1103 C   0  0  2  0  0  0  0  0  0  0  0  0
   -0.0305    0.4190   -0.1428 C   0  0  0  0  0  0  0  0  0  0  0  0
    1.9125   -0.7828    0.9090 O   0  0  0  0  0  0  0  0  0  0  0  0
    2.1650   -0.4023   -1.3650 C   0  0  1  0  0  0  0  0  0  0  0  0
    3.3138    0.3339   -1.8191 O   0  0  0  0  0  0  0  0  0  0  0  0
    3.4799   -0.6634   -0.7965 C   0  0  1  0  0  0  0  0  0  0  0  0
    4.5008   -1.5039    1.7660 H   0  0  0  0  0  0  0  0  0  0  0  0
    5.1934    0.1048    1.4852 H   0  0  0  0  0  0  0  0  0  0  0  0
    3.9129   -0.1142    2.6987 H   0  0  0  0  0  0  0  0  0  0  0  0
    2.1697    1.5882    1.4031 H   0  0  0  0  0  0  0  0  0  0  0  0
    2.9337    1.9315   -0.2060 H   0  0  0  0  0  0  0  0  0  0  0  0
   -0.3943    0.7452    0.8350 H   0  0  0  0  0  0  0  0  0  0  0  0
   -0.2767    1.1870   -0.8829 H   0  0  0  0  0  0  0  0  0  0  0  0
   -0.5578   -0.5012   -0.4165 H   0  0  0  0  0  0  0  0  0  0  0  0
    1.6502   -1.0141   -2.0982 H   0  0  0  0  0  0  0  0  0  0  0  0
    4.1236   -1.5052   -1.0288 H   0  0  0  0  0  0  0  0  0  0  0  0
  1 10  1  0  0  0  0
  1 12  1  0  0  0  0
  2  6  1  0  0  0  0
  2  1  1  1  0  0  0
  3  2  1  0  0  0  0
  3 13  1  0  0  0  0
  4  5  1  6  0  0  0
  4  3  1  0  0  0  0
  4  6  1  0  0  0  0
  5 15  1  0  0  0  0
  7 18  1  6  0  0  0
  7  9  1  0  0  0  0
  7  4  1  0  0  0  0
  8  7  1  0  0  0  0
  8  9  1  0  0  0  0
  9 19  1  6  0  0  0
  9  2  1  0  0  0  0
 11  1  1  0  0  0  0
 14  3  1  0  0  0  0
 16  5  1  0  0  0  0
 17  5  1  0  0  0  0
M TOR 0 0 1 2 3
M TOR 1 0 1 2 12
M TOR 2 0 1 2 13
M TOR 3 0 1 5 3
M TOR 4 0 1 8 6
M TOR 5 0 1 8 7
M TOR 6 0 1 8 18
M TOR 7 1 2 3 4
M TOR 8 1 2 3 5
M TOR 9 1 2 3 6
M TOR 10 1 5 3 4
M TOR 11 1 5 3 6
M TOR 12 1 8 6 3
M TOR 13 1 8 6 7
M TOR 14 1 8 6 17
M TOR 15 2 1 0 9
M TOR 16 2 1 0 10
M TOR 17 2 1 0 11
M TOR 18 2 1 8 6
M TOR 19 2 1 8 7
M TOR 20 2 1 8 18
M TOR 21 2 3 4 14
M TOR 22 2 3 4 15
M TOR 23 2 3 4 16
M TOR 24 2 3 6 7
M TOR 25 2 3 6 8
M TOR 26 2 3 6 17
M TOR 27 3 2 1 8
M TOR 28 3 5 1 8
M TOR 29 3 6 7 8
M TOR 30 3 6 8 18
M TOR 31 4 3 2 12
M TOR 32 4 3 2 13
M TOR 33 4 3 6 7
M TOR 34 4 3 6 8
M TOR 35 4 3 6 17
M TOR 36 5 1 0 9
M TOR 37 5 1 0 10
M TOR 38 5 1 0 11
M TOR 39 5 1 2 12
M TOR 40 5 1 2 13
M TOR 41 5 1 8 6
M TOR 42 5 1 8 7
M TOR 43 5 1 8 18
M TOR 44 5 3 2 12
M TOR 45 5 3 2 13
M TOR 46 5 3 4 14
M TOR 47 5 3 4 15
M TOR 48 5 3 4 16
M TOR 49 5 3 6 7
M TOR 50 5 3 6 8
M TOR 51 5 3 6 17
M TOR 52 6 3 2 12
M TOR 53 6 3 2 13
M TOR 54 6 3 4 14
M TOR 55 6 3 4 15
M TOR 56 6 3 4 16
M TOR 57 6 7 8 18
M TOR 58 7 8 6 17
M TOR 59 8 1 0 9
M TOR 60 8 1 0 10
M TOR 61 8 1 0 11
M TOR 62 8 1 2 12
M TOR 63 8 1 2 13
M  END
$$$$
