gdb 3261	2.81672	1.8795937	1.6098257	1.8467	72.48	-0.24685	0.08461	0.33146000000000003	908.9921	0.160987	-422.574079	-422.567547	-422.566603	-422.604535	27.83
 OpenBabel02181911413D

 19 21  0  0  1  0  0  0  0  0999 V2000
    0.4471    0.6120    0.3847 O   0  0  0  0  0  0  0  0  0  0  0  0
   -0.9075    0.7289    0.7716 C   0  0  1  0  0  0  0  0  0  0  0  0
   -1.1649    0.1471    2.1869 C   0  0  2  0  0  0  0  0  0  0  0  0
   -2.6724   -0.0026    2.4986 C   0  0  0  0  0  0  0  0  0  0  0  0
   -2.7118    1.5191    2.7796 C   0  0  2  0  0  0  0  0  0  0  0  0
   -2.7537    2.3258    1.4620 C   0  0  0  0  0  0  0  0  0  0  0  0
   -1.2881    2.2095    1.0029 C   0  0  1  0  0  0  0  0  0  0  0  0
   -0.5597    2.4862    2.2172 O   0  0  0  0  0  0  0  0  0  0  0  0
   -1.1568    1.4784    3.0197 C   0  0  2  0  0  0  0  0  0  0  0  0
    0.9432    1.1834    0.9850 H   0  0  0  0  0  0  0  0  0  0  0  0
   -1.5020    0.2406   -0.0052 H   0  0  0  0  0  0  0  0  0  0  0  0
   -0.4787   -0.6671    2.4191 H   0  0  0  0  0  0  0  0  0  0  0  0
   -3.3197   -0.3842    1.7026 H   0  0  0  0  0  0  0  0  0  0  0  0
   -2.8415   -0.5935    3.4031 H   0  0  0  0  0  0  0  0  0  0  0  0
   -3.3771    1.8966    3.5559 H   0  0  0  0  0  0  0  0  0  0  0  0
   -3.4701    1.9271    0.7380 H   0  0  0  0  0  0  0  0  0  0  0  0
   -2.9926    3.3763    1.6469 H   0  0  0  0  0  0  0  0  0  0  0  0
   -0.9628    2.8888    0.2152 H   0  0  0  0  0  0  0  0  0  0  0  0
   -0.7591    1.4931    4.0318 H   0  0  0  0  0  0  0  0  0  0  0  0
  1  2  1  0  0  0  0
  1 10  1  0  0  0  0
  2 11  1  6  0  0  0
  2  7  1  0  0  0  0
  2  3  1  0  0  0  0
  3 12  1  1  0  0  0
  3  4  1  0  0  0  0
  3  9  1  0  0  0  0
  4  5  1  0  0  0  0
  4 14  1  0  0  0  0
  5  9  1  0  0  0  0
  5 15  1  1  0  0  0
  6 17  1  0  0  0  0
  6  5  1  0  0  0  0
  7 18  1  6  0  0  0
  7  6  1  0  0  0  0
  7  8  1  0  0  0  0
  8  9  1  0  0  0  0
  9 19  1  1  0  0  0
 13  4  1  0  0  0  0
 16  6  1  0  0  0  0
M TOR 0 0 1 2 3
M TOR 1 0 1 2 8
M TOR 2 0 1 2 11
M TOR 3 0 1 6 5
M TOR 4 0 1 6 7
M TOR 5 0 1 6 17
M TOR 6 1 2 3 4
M TOR 7 1 2 3 12
M TOR 8 1 2 3 13
M TOR 9 1 2 8 4
M TOR 10 1 2 8 7
M TOR 11 1 2 8 18
M TOR 12 1 6 5 4
M TOR 13 1 6 5 15
M TOR 14 1 6 5 16
M TOR 15 1 6 7 8
M TOR 16 2 1 0 9
M TOR 17 2 1 6 5
M TOR 18 2 1 6 7
M TOR 19 2 1 6 17
M TOR 20 2 3 4 5
M TOR 21 2 3 4 8
M TOR 22 2 3 4 14
M TOR 23 2 8 4 5
M TOR 24 2 8 4 14
M TOR 25 2 8 7 6
M TOR 26 3 2 1 6
M TOR 27 3 2 1 10
M TOR 28 3 2 8 7
M TOR 29 3 2 8 18
M TOR 30 3 4 5 6
M TOR 31 3 4 5 15
M TOR 32 3 4 5 16
M TOR 33 3 4 8 7
M TOR 34 3 4 8 18
M TOR 35 4 3 2 11
M TOR 36 4 5 6 7
M TOR 37 4 5 6 17
M TOR 38 4 8 2 11
M TOR 39 4 8 7 6
M TOR 40 5 4 3 12
M TOR 41 5 4 3 13
M TOR 42 5 4 8 7
M TOR 43 5 4 8 18
M TOR 44 5 6 1 10
M TOR 45 5 6 7 8
M TOR 46 6 1 0 9
M TOR 47 6 1 2 8
M TOR 48 6 1 2 11
M TOR 49 6 5 4 8
M TOR 50 6 5 4 14
M TOR 51 6 7 8 18
M TOR 52 7 6 1 10
M TOR 53 7 6 5 15
M TOR 54 7 6 5 16
M TOR 55 7 8 2 11
M TOR 56 7 8 4 14
M TOR 57 8 2 1 10
M TOR 58 8 2 3 12
M TOR 59 8 2 3 13
M TOR 60 8 4 3 12
M TOR 61 8 4 3 13
M TOR 62 8 4 5 15
M TOR 63 8 4 5 16
M TOR 64 8 7 6 17
M  END
$$$$
