gdb 3170	2.6868218	1.7251018	1.2249449	1.5586	73.61	-0.24527	0.06217	0.30744	1032.1913	0.158781	-422.536684	-422.529085	-422.528141	-422.568879	29.821
 OpenBabel02181911413D

 19 21  0  0  1  0  0  0  0  0999 V2000
    0.3914    0.0971   -0.0724 O   0  0  0  0  0  0  0  0  0  0  0  0
   -0.7717    0.4752    0.6589 C   0  0  2  0  0  0  0  0  0  0  0  0
   -1.9969    0.2844   -0.2245 C   0  0  2  0  0  0  0  0  0  0  0  0
   -1.9679    1.0327   -1.5348 C   0  0  0  0  0  0  0  0  0  0  0  0
   -2.7389    1.5960   -0.3733 C   0  0  2  0  0  0  0  0  0  0  0  0
   -2.0210    2.6532    0.4304 C   0  0  1  0  0  0  0  0  0  0  0  0
   -2.6151    2.8822    1.7300 O   0  0  0  0  0  0  0  0  0  0  0  0
   -1.4720    2.3191    2.4001 C   0  0  0  0  0  0  0  0  0  0  0  0
   -0.7770    1.9723    1.0654 C   0  0  1  0  0  0  0  0  0  0  0  0
    1.1442    0.1362    0.5263 H   0  0  0  0  0  0  0  0  0  0  0  0
   -0.8614   -0.1532    1.5580 H   0  0  0  0  0  0  0  0  0  0  0  0
   -2.5222   -0.6620   -0.1784 H   0  0  0  0  0  0  0  0  0  0  0  0
   -1.0344    1.5016   -1.8278 H   0  0  0  0  0  0  0  0  0  0  0  0
   -2.5353    0.6177   -2.3599 H   0  0  0  0  0  0  0  0  0  0  0  0
   -3.8216    1.6383   -0.4136 H   0  0  0  0  0  0  0  0  0  0  0  0
   -1.8803    3.5987   -0.1069 H   0  0  0  0  0  0  0  0  0  0  0  0
   -0.9537    3.0643    3.0167 H   0  0  0  0  0  0  0  0  0  0  0  0
   -1.7427    1.4632    3.0336 H   0  0  0  0  0  0  0  0  0  0  0  0
    0.1971    2.4362    0.9055 H   0  0  0  0  0  0  0  0  0  0  0  0
  1 10  1  0  0  0  0
  1  2  1  0  0  0  0
  2  9  1  0  0  0  0
  2 11  1  1  0  0  0
  3 12  1  1  0  0  0
  3  2  1  0  0  0  0
  4  5  1  0  0  0  0
  4  3  1  0  0  0  0
  5 15  1  6  0  0  0
  5  3  1  0  0  0  0
  5  6  1  0  0  0  0
  6 16  1  6  0  0  0
  6  9  1  0  0  0  0
  6  7  1  0  0  0  0
  7  8  1  0  0  0  0
  8 17  1  0  0  0  0
  8 18  1  0  0  0  0
  9 19  1  6  0  0  0
  9  8  1  0  0  0  0
 13  4  1  0  0  0  0
 14  4  1  0  0  0  0
M TOR 0 0 1 2 3
M TOR 1 0 1 2 4
M TOR 2 0 1 2 11
M TOR 3 0 1 8 5
M TOR 4 0 1 8 7
M TOR 5 0 1 8 18
M TOR 6 1 2 3 4
M TOR 7 1 2 3 12
M TOR 8 1 2 3 13
M TOR 9 1 2 4 5
M TOR 10 1 2 4 14
M TOR 11 1 8 5 4
M TOR 12 1 8 5 6
M TOR 13 1 8 5 15
M TOR 14 1 8 7 6
M TOR 15 1 8 7 16
M TOR 16 1 8 7 17
M TOR 17 2 1 0 9
M TOR 18 2 1 8 5
M TOR 19 2 1 8 7
M TOR 20 2 1 8 18
M TOR 21 2 3 4 5
M TOR 22 2 3 4 14
M TOR 23 2 4 3 12
M TOR 24 2 4 3 13
M TOR 25 2 4 5 6
M TOR 26 2 4 5 8
M TOR 27 2 4 5 15
M TOR 28 3 2 1 8
M TOR 29 3 2 1 10
M TOR 30 3 4 2 11
M TOR 31 3 4 5 6
M TOR 32 3 4 5 8
M TOR 33 3 4 5 15
M TOR 34 4 2 1 8
M TOR 35 4 2 1 10
M TOR 36 4 5 6 7
M TOR 37 4 5 8 7
M TOR 38 4 5 8 18
M TOR 39 5 4 2 11
M TOR 40 5 4 3 12
M TOR 41 5 4 3 13
M TOR 42 5 6 7 8
M TOR 43 5 6 7 16
M TOR 44 5 6 7 17
M TOR 45 5 8 1 10
M TOR 46 5 8 7 16
M TOR 47 5 8 7 17
M TOR 48 6 5 4 14
M TOR 49 6 5 8 18
M TOR 50 6 7 8 18
M TOR 51 7 6 5 15
M TOR 52 7 8 1 10
M TOR 53 7 8 5 15
M TOR 54 8 1 0 9
M TOR 55 8 1 2 11
M TOR 56 8 5 4 14
M  END
$$$$
