
     RDKit          3D

 19 19  0  0  0  0  0  0  0  0999 V2000
    4.9087    3.0902   -0.8042 C   0  0  0  0  0  0  0  0  0  0  0  0
    5.1213    1.6171   -0.5265 C   0  0  0  0  0  0  0  0  0  0  0  0
    4.3938    0.5850   -1.4141 C   0  0  0  0  0  0  0  0  0  0  0  0
    3.8064    0.0571   -0.0783 C   0  0  0  0  0  0  0  0  0  0  0  0
    4.3972    1.1659    0.6488 O   0  0  0  0  0  0  0  0  0  0  0  0
    2.3639   -0.0319    0.0529 C   0  0  0  0  0  0  0  0  0  0  0  0
    1.1661   -0.1272    0.1512 C   0  0  0  0  0  0  0  0  0  0  0  0
   -0.2891   -0.1771    0.2793 C   0  0  0  0  0  0  0  0  0  0  0  0
   -0.9651    0.8048   -0.4935 O   0  0  0  0  0  0  0  0  0  0  0  0
    5.2855    3.6941    0.0273 H   0  0  0  0  0  0  0  0  0  0  0  0
    5.4424    3.3892   -1.7132 H   0  0  0  0  0  0  0  0  0  0  0  0
    3.8443    3.3085   -0.9333 H   0  0  0  0  0  0  0  0  0  0  0  0
    6.1934    1.4022   -0.4134 H   0  0  0  0  0  0  0  0  0  0  0  0
    3.6433    1.0210   -2.0753 H   0  0  0  0  0  0  0  0  0  0  0  0
    5.0139   -0.1170   -1.9723 H   0  0  0  0  0  0  0  0  0  0  0  0
    4.2602   -0.8924    0.2391 H   0  0  0  0  0  0  0  0  0  0  0  0
   -0.6629   -1.1443   -0.0750 H   0  0  0  0  0  0  0  0  0  0  0  0
   -0.5590   -0.1058    1.3452 H   0  0  0  0  0  0  0  0  0  0  0  0
   -0.5834    1.6597   -0.2682 H   0  0  0  0  0  0  0  0  0  0  0  0
  1  2  1  0
  2  3  1  0
  3  4  1  0
  4  5  1  0
  4  6  1  0
  6  7  3  0
  7  8  1  0
  8  9  1  0
  5  2  1  0
  1 10  1  0
  1 11  1  0
  1 12  1  0
  2 13  1  0
  3 14  1  0
  3 15  1  0
  4 16  1  0
  8 17  1  0
  8 18  1  0
  9 19  1  0
M  END
$$$$
