
     RDKit          3D

 19 18  0  0  0  0  0  0  0  0999 V2000
    1.5705   -0.0967   -0.0100 C   0  0  0  0  0  0  0  0  0  0  0  0
    0.1180   -0.0417    0.0550 C   0  0  0  0  0  0  0  0  0  0  0  0
   -1.0833   -0.0035    0.1083 C   0  0  0  0  0  0  0  0  0  0  0  0
   -2.5338    0.0719    0.1762 C   0  0  0  0  0  0  0  0  0  0  0  0
   -3.0990   -1.2172   -0.0454 O   0  0  0  0  0  0  0  0  0  0  0  0
   -4.5126   -1.2170   -0.0008 C   0  0  0  0  0  0  0  0  0  0  0  0
   -4.9730   -2.6724    0.0848 C   0  0  0  0  0  0  0  0  0  0  0  0
   -5.0892   -0.5839   -1.2665 C   0  0  0  0  0  0  0  0  0  0  0  0
   -6.1420   -0.0056   -1.3244 O   0  0  0  0  0  0  0  0  0  0  0  0
    2.0254    0.2630    0.9193 H   0  0  0  0  0  0  0  0  0  0  0  0
    1.9148   -1.1239   -0.1718 H   0  0  0  0  0  0  0  0  0  0  0  0
    1.9573    0.5162   -0.8314 H   0  0  0  0  0  0  0  0  0  0  0  0
   -2.8506    0.4519    1.1620 H   0  0  0  0  0  0  0  0  0  0  0  0
   -2.9064    0.7933   -0.5705 H   0  0  0  0  0  0  0  0  0  0  0  0
   -4.8860   -0.6513    0.8668 H   0  0  0  0  0  0  0  0  0  0  0  0
   -4.5391   -3.1407    0.9715 H   0  0  0  0  0  0  0  0  0  0  0  0
   -6.0630   -2.7217    0.1467 H   0  0  0  0  0  0  0  0  0  0  0  0
   -4.6414   -3.2315   -0.7956 H   0  0  0  0  0  0  0  0  0  0  0  0
   -4.4442   -0.7410   -2.1633 H   0  0  0  0  0  0  0  0  0  0  0  0
  1  2  1  0
  2  3  3  0
  3  4  1  0
  4  5  1  0
  5  6  1  0
  6  7  1  0
  6  8  1  0
  8  9  2  0
  1 10  1  0
  1 11  1  0
  1 12  1  0
  4 13  1  0
  4 14  1  0
  6 15  1  0
  7 16  1  0
  7 17  1  0
  7 18  1  0
  8 19  1  0
M  END
$$$$
