gdb 5497	2.928998	1.1700386	0.997112	3.0353	77.	-0.23751	-0.00807	0.22944	1239.0024	0.155252	-422.549304	-422.539794	-422.53885	-422.584041	34.188
 OpenBabel02181911423D

 19 20  0  0  1  0  0  0  0  0999 V2000
   -0.9328    2.2813   -1.0540 C   0  0  0  0  0  0  0  0  0  0  0  0
   -1.0304    1.0832   -0.1519 C   0  0  1  0  0  0  0  0  0  0  0  0
   -1.9537    0.9771    1.0663 C   0  0  1  0  0  0  0  0  0  0  0  0
   -3.0700    1.9926    1.1977 C   0  0  0  0  0  0  0  0  0  0  0  0
   -2.6201    3.2890    1.5590 O   0  0  0  0  0  0  0  0  0  0  0  0
   -2.0554   -0.0794    0.0171 C   0  0  2  0  0  0  0  0  0  0  0  0
   -0.9374   -1.1082    0.2292 C   0  0  0  0  0  0  0  0  0  0  0  0
    0.0610    0.0620    0.0124 C   0  0  0  0  0  0  0  0  0  0  0  0
    1.2454    0.1007   -0.1717 O   0  0  0  0  0  0  0  0  0  0  0  0
   -0.6187    1.9842   -2.0597 H   0  0  0  0  0  0  0  0  0  0  0  0
   -1.8773    2.8224   -1.1318 H   0  0  0  0  0  0  0  0  0  0  0  0
   -0.1856    2.9812   -0.6666 H   0  0  0  0  0  0  0  0  0  0  0  0
   -1.5097    0.6969    2.0232 H   0  0  0  0  0  0  0  0  0  0  0  0
   -3.5898    2.1161    0.2426 H   0  0  0  0  0  0  0  0  0  0  0  0
   -3.8111    1.6122    1.9182 H   0  0  0  0  0  0  0  0  0  0  0  0
   -2.1544    3.2196    2.3986 H   0  0  0  0  0  0  0  0  0  0  0  0
   -2.9538   -0.2391   -0.5656 H   0  0  0  0  0  0  0  0  0  0  0  0
   -0.9196   -1.6308    1.1905 H   0  0  0  0  0  0  0  0  0  0  0  0
   -0.8325   -1.8383   -0.5787 H   0  0  0  0  0  0  0  0  0  0  0  0
  1 12  1  0  0  0  0
  2  1  1  6  0  0  0
  2  8  1  0  0  0  0
  2  6  1  0  0  0  0
  2  3  1  0  0  0  0
  3  4  1  0  0  0  0
  3 13  1  1  0  0  0
  4  5  1  0  0  0  0
  4 15  1  0  0  0  0
  5 16  1  0  0  0  0
  6 17  1  6  0  0  0
  6  7  1  0  0  0  0
  6  3  1  0  0  0  0
  7 18  1  0  0  0  0
  8  7  1  0  0  0  0
  9  8  2  0  0  0  0
 10  1  1  0  0  0  0
 11  1  1  0  0  0  0
 14  4  1  0  0  0  0
 19  7  1  0  0  0  0
M TOR 0 0 1 2 3
M TOR 1 0 1 2 5
M TOR 2 0 1 2 12
M TOR 3 0 1 5 6
M TOR 4 0 1 5 16
M TOR 5 0 1 7 6
M TOR 6 0 1 7 8
M TOR 7 1 2 3 4
M TOR 8 1 2 3 13
M TOR 9 1 2 3 14
M TOR 10 1 2 5 6
M TOR 11 1 2 5 16
M TOR 12 1 5 2 3
M TOR 13 1 5 2 12
M TOR 14 1 5 6 7
M TOR 15 1 5 6 17
M TOR 16 1 5 6 18
M TOR 17 1 7 6 17
M TOR 18 1 7 6 18
M TOR 19 2 1 0 9
M TOR 20 2 1 0 10
M TOR 21 2 1 0 11
M TOR 22 2 1 7 6
M TOR 23 2 1 7 8
M TOR 24 2 3 4 15
M TOR 25 2 5 1 7
M TOR 26 2 5 6 7
M TOR 27 2 5 6 17
M TOR 28 2 5 6 18
M TOR 29 3 2 1 7
M TOR 30 3 2 5 6
M TOR 31 3 2 5 16
M TOR 32 4 3 2 5
M TOR 33 4 3 2 12
M TOR 34 5 1 0 9
M TOR 35 5 1 0 10
M TOR 36 5 1 0 11
M TOR 37 5 1 7 8
M TOR 38 5 2 3 13
M TOR 39 5 2 3 14
M TOR 40 5 6 7 8
M TOR 41 6 5 2 12
M TOR 42 7 1 0 9
M TOR 43 7 1 0 10
M TOR 44 7 1 0 11
M TOR 45 7 1 2 12
M TOR 46 7 1 5 16
M TOR 47 7 6 5 16
M TOR 48 8 7 6 17
M TOR 49 8 7 6 18
M  END
$$$$
