
     RDKit          3D

 19 19  0  0  0  0  0  0  0  0999 V2000
    0.7304   -2.2514    0.6207 C   0  0  0  0  0  0  0  0  0  0  0  0
   -0.2055   -1.1666    0.2000 C   0  0  0  0  0  0  0  0  0  0  0  0
    0.0262    0.1559    0.0927 C   0  0  0  0  0  0  0  0  0  0  0  0
    1.2735    0.9407    0.3437 C   0  0  0  0  0  0  0  0  0  0  0  0
   -1.2034    0.8503   -0.3670 C   0  0  0  0  0  0  0  0  0  0  0  0
   -1.3023    2.0344   -0.5997 O   0  0  0  0  0  0  0  0  0  0  0  0
   -2.3122   -0.1959   -0.5058 C   0  0  0  0  0  0  0  0  0  0  0  0
   -1.6399   -1.5365   -0.1598 C   0  0  0  0  0  0  0  0  0  0  0  0
   -2.2782   -2.2779    0.8773 O   0  0  0  0  0  0  0  0  0  0  0  0
    1.6788   -1.8692    1.0029 H   0  0  0  0  0  0  0  0  0  0  0  0
    0.2583   -2.8737    1.3879 H   0  0  0  0  0  0  0  0  0  0  0  0
    0.9462   -2.9177   -0.2251 H   0  0  0  0  0  0  0  0  0  0  0  0
    2.1135    0.3110    0.6440 H   0  0  0  0  0  0  0  0  0  0  0  0
    1.5570    1.4968   -0.5564 H   0  0  0  0  0  0  0  0  0  0  0  0
    1.1037    1.6917    1.1230 H   0  0  0  0  0  0  0  0  0  0  0  0
   -3.1309    0.0238    0.1872 H   0  0  0  0  0  0  0  0  0  0  0  0
   -2.7361   -0.1642   -1.5133 H   0  0  0  0  0  0  0  0  0  0  0  0
   -1.6481   -2.2219   -1.0156 H   0  0  0  0  0  0  0  0  0  0  0  0
   -2.3006   -1.7183    1.6624 H   0  0  0  0  0  0  0  0  0  0  0  0
  1  2  1  0
  2  3  2  0
  3  4  1  0
  3  5  1  0
  5  6  2  0
  5  7  1  0
  7  8  1  0
  8  9  1  0
  8  2  1  0
  1 10  1  0
  1 11  1  0
  1 12  1  0
  4 13  1  0
  4 14  1  0
  4 15  1  0
  7 16  1  0
  7 17  1  0
  8 18  1  0
  9 19  1  0
M  END
$$$$
