
     RDKit          3D

 19 20  0  0  0  0  0  0  0  0999 V2000
   -1.0983   -2.1297    1.1867 C   0  0  0  0  0  0  0  0  0  0  0  0
   -1.0236   -1.1303    0.0379 C   0  0  0  0  0  0  0  0  0  0  0  0
    0.1236   -0.0958    0.0797 C   0  0  0  0  0  0  0  0  0  0  0  0
    1.3002   -0.1887    0.2775 O   0  0  0  0  0  0  0  0  0  0  0  0
   -0.8348    1.0868   -0.1488 C   0  0  0  0  0  0  0  0  0  0  0  0
   -1.9880    0.0777   -0.0199 C   0  0  0  0  0  0  0  0  0  0  0  0
   -3.3473    0.1726   -0.6591 C   0  0  0  0  0  0  0  0  0  0  0  0
   -3.1879    0.3029    0.8399 C   0  0  0  0  0  0  0  0  0  0  0  0
   -3.2818    1.5592    1.4441 O   0  0  0  0  0  0  0  0  0  0  0  0
   -0.2116   -2.7703    1.1832 H   0  0  0  0  0  0  0  0  0  0  0  0
   -1.1407   -1.6181    2.1531 H   0  0  0  0  0  0  0  0  0  0  0  0
   -1.9810   -2.7722    1.1029 H   0  0  0  0  0  0  0  0  0  0  0  0
   -0.9956   -1.6604   -0.9242 H   0  0  0  0  0  0  0  0  0  0  0  0
   -0.7969    1.8741    0.6088 H   0  0  0  0  0  0  0  0  0  0  0  0
   -0.7209    1.5450   -1.1374 H   0  0  0  0  0  0  0  0  0  0  0  0
   -3.5714    1.0802   -1.2117 H   0  0  0  0  0  0  0  0  0  0  0  0
   -3.8076   -0.7291   -1.0524 H   0  0  0  0  0  0  0  0  0  0  0  0
   -3.5343   -0.5295    1.4537 H   0  0  0  0  0  0  0  0  0  0  0  0
   -4.2087    1.8194    1.4565 H   0  0  0  0  0  0  0  0  0  0  0  0
  1  2  1  0
  2  3  1  0
  3  4  2  0
  3  5  1  0
  5  6  1  0
  6  7  1  0
  7  8  1  0
  8  9  1  0
  6  2  1  0
  8  6  1  0
  1 10  1  0
  1 11  1  0
  1 12  1  0
  2 13  1  0
  5 14  1  0
  5 15  1  0
  7 16  1  0
  7 17  1  0
  8 18  1  0
  9 19  1  0
M  END
$$$$
