
     RDKit          3D

 19 20  0  0  0  0  0  0  0  0999 V2000
    1.2999   -0.4542   -0.0109 O   0  0  0  0  0  0  0  0  0  0  0  0
    0.1568   -0.0744    0.0477 C   0  0  0  0  0  0  0  0  0  0  0  0
   -0.4228    0.7450    1.1594 C   0  0  0  0  0  0  0  0  0  0  0  0
   -1.1710    2.0268    0.6925 C   0  0  0  0  0  0  0  0  0  0  0  0
   -2.0235    2.4019    1.9481 C   0  0  0  0  0  0  0  0  0  0  0  0
   -1.6636    1.2689    2.9268 C   0  0  0  0  0  0  0  0  0  0  0  0
   -1.5331    0.0513    2.0008 C   0  0  0  0  0  0  0  0  0  0  0  0
   -0.3231    1.4736    3.3890 O   0  0  0  0  0  0  0  0  0  0  0  0
    0.5437    1.1437    2.2857 C   0  0  0  0  0  0  0  0  0  0  0  0
   -0.5714   -0.3267   -0.7590 H   0  0  0  0  0  0  0  0  0  0  0  0
   -0.4697    2.8133    0.4023 H   0  0  0  0  0  0  0  0  0  0  0  0
   -1.8028    1.8110   -0.1753 H   0  0  0  0  0  0  0  0  0  0  0  0
   -1.7491    3.3713    2.3687 H   0  0  0  0  0  0  0  0  0  0  0  0
   -3.0946    2.4181    1.7246 H   0  0  0  0  0  0  0  0  0  0  0  0
   -2.3136    1.1705    3.7971 H   0  0  0  0  0  0  0  0  0  0  0  0
   -1.1873   -0.8459    2.5190 H   0  0  0  0  0  0  0  0  0  0  0  0
   -2.4373   -0.1704    1.4279 H   0  0  0  0  0  0  0  0  0  0  0  0
    1.1591    2.0109    2.0203 H   0  0  0  0  0  0  0  0  0  0  0  0
    1.2094    0.3197    2.5643 H   0  0  0  0  0  0  0  0  0  0  0  0
  1  2  2  0
  2  3  1  0
  3  4  1  0
  4  5  1  0
  5  6  1  0
  6  7  1  0
  6  8  1  0
  8  9  1  0
  7  3  1  0
  9  3  1  0
  2 10  1  0
  4 11  1  0
  4 12  1  0
  5 13  1  0
  5 14  1  0
  6 15  1  0
  7 16  1  0
  7 17  1  0
  9 18  1  0
  9 19  1  0
M  END
$$$$
