gdb 3121	2.1529151	1.5581931	1.0748647	3.0193	76.27	-0.23947	-0.02025	0.21922	1164.2189	0.15486	-422.536088	-422.526918	-422.525974	-422.570153	34.054
 OpenBabel02181911413D

 19 20  0  0  1  0  0  0  0  0999 V2000
    0.7989   -0.6019   -0.7256 C   0  0  0  0  0  0  0  0  0  0  0  0
    0.9408    0.0929    0.6251 C   0  0  2  0  0  0  0  0  0  0  0  0
    1.5649    1.4959    0.5854 C   0  0  1  0  0  0  0  0  0  0  0  0
    1.6655    2.0473    1.9908 C   0  0  0  0  0  0  0  0  0  0  0  0
    2.6792    1.0490    1.5144 C   0  0  2  0  0  0  0  0  0  0  0  0
    4.0293    1.3378    1.4156 O   0  0  0  0  0  0  0  0  0  0  0  0
    2.1214   -0.3883    1.5776 C   0  0  2  0  0  0  0  0  0  0  0  0
    3.0464   -1.4074    0.9650 C   0  0  0  0  0  0  0  0  0  0  0  0
    3.2588   -2.4953    1.4403 O   0  0  0  0  0  0  0  0  0  0  0  0
    0.5592   -1.6635   -0.6056 H   0  0  0  0  0  0  0  0  0  0  0  0
   -0.0112   -0.1382   -1.2983 H   0  0  0  0  0  0  0  0  0  0  0  0
    1.7091   -0.5260   -1.3277 H   0  0  0  0  0  0  0  0  0  0  0  0
   -0.0221    0.0634    1.1481 H   0  0  0  0  0  0  0  0  0  0  0  0
    1.6045    2.1397   -0.2851 H   0  0  0  0  0  0  0  0  0  0  0  0
    2.0480    3.0617    2.0484 H   0  0  0  0  0  0  0  0  0  0  0  0
    0.9215    1.7932    2.7433 H   0  0  0  0  0  0  0  0  0  0  0  0
    4.3812    1.4674    2.3037 H   0  0  0  0  0  0  0  0  0  0  0  0
    1.8165   -0.7530    2.5632 H   0  0  0  0  0  0  0  0  0  0  0  0
    3.5479   -1.0887    0.0267 H   0  0  0  0  0  0  0  0  0  0  0  0
  1 10  1  0  0  0  0
  1  2  1  0  0  0  0
  2 13  1  1  0  0  0
  2  7  1  0  0  0  0
  3 14  1  6  0  0  0
  3  2  1  0  0  0  0
  3  5  1  0  0  0  0
  3  4  1  0  0  0  0
  4 15  1  0  0  0  0
  4 16  1  0  0  0  0
  5  6  1  6  0  0  0
  5  7  1  0  0  0  0
  5  4  1  0  0  0  0
  6 17  1  0  0  0  0
  7 18  1  1  0  0  0
  8  9  2  0  0  0  0
  8  7  1  0  0  0  0
 11  1  1  0  0  0  0
 12  1  1  0  0  0  0
 19  8  1  0  0  0  0
M TOR 0 0 1 2 3
M TOR 1 0 1 2 4
M TOR 2 0 1 2 13
M TOR 3 0 1 6 4
M TOR 4 0 1 6 7
M TOR 5 0 1 6 17
M TOR 6 1 2 3 4
M TOR 7 1 2 3 14
M TOR 8 1 2 3 15
M TOR 9 1 2 4 5
M TOR 10 1 2 4 6
M TOR 11 1 6 4 3
M TOR 12 1 6 4 5
M TOR 13 1 6 7 8
M TOR 14 1 6 7 18
M TOR 15 2 1 0 9
M TOR 16 2 1 0 10
M TOR 17 2 1 0 11
M TOR 18 2 1 6 7
M TOR 19 2 1 6 17
M TOR 20 2 3 4 5
M TOR 21 2 3 4 6
M TOR 22 2 4 3 14
M TOR 23 2 4 3 15
M TOR 24 2 4 5 16
M TOR 25 2 4 6 7
M TOR 26 2 4 6 17
M TOR 27 3 2 1 6
M TOR 28 3 2 1 12
M TOR 29 3 4 2 13
M TOR 30 3 4 5 16
M TOR 31 3 4 6 7
M TOR 32 3 4 6 17
M TOR 33 4 2 1 12
M TOR 34 4 6 1 12
M TOR 35 4 6 7 8
M TOR 36 4 6 7 18
M TOR 37 5 4 2 13
M TOR 38 5 4 3 14
M TOR 39 5 4 3 15
M TOR 40 5 4 6 7
M TOR 41 5 4 6 17
M TOR 42 6 1 0 9
M TOR 43 6 1 0 10
M TOR 44 6 1 0 11
M TOR 45 6 1 2 13
M TOR 46 6 4 2 13
M TOR 47 6 4 3 14
M TOR 48 6 4 3 15
M TOR 49 6 4 5 16
M TOR 50 7 6 1 12
M TOR 51 8 7 6 17
M  END
$$$$
