gdb 930	3.7525305	1.1647349	1.0930174	2.1241	75.57	-0.27593	0.01099	0.28692	1162.9169	0.159135	-422.58053	-422.572926	-422.571982	-422.613293	29.144
 OpenBabel02181911403D

 19 20  0  0  1  0  0  0  0  0999 V2000
    1.1803    0.7259    0.6732 O   0  0  0  0  0  0  0  0  0  0  0  0
    0.2736   -0.0478    0.5250 C   0  0  0  0  0  0  0  0  0  0  0  0
   -0.9973    0.2588    0.2371 O   0  0  0  0  0  0  0  0  0  0  0  0
   -1.3039    1.6657    0.0751 C   0  0  1  0  0  0  0  0  0  0  0  0
   -2.7041    1.8080   -0.5838 C   0  0  0  0  0  0  0  0  0  0  0  0
   -3.4183    2.5870    0.5393 C   0  0  1  0  0  0  0  0  0  0  0  0
   -2.9614    1.8149    1.8107 C   0  0  0  0  0  0  0  0  0  0  0  0
   -1.5662    2.3789    1.4102 C   0  0  2  0  0  0  0  0  0  0  0  0
   -2.3362    3.6409    0.9183 C   0  0  0  0  0  0  0  0  0  0  0  0
    0.3617   -1.1434    0.6010 H   0  0  0  0  0  0  0  0  0  0  0  0
   -0.4896    2.1217   -0.4893 H   0  0  0  0  0  0  0  0  0  0  0  0
   -2.6661    2.3605   -1.5265 H   0  0  0  0  0  0  0  0  0  0  0  0
   -3.1452    0.8267   -0.7752 H   0  0  0  0  0  0  0  0  0  0  0  0
   -4.4598    2.8604    0.3710 H   0  0  0  0  0  0  0  0  0  0  0  0
   -3.3367    2.2647    2.7323 H   0  0  0  0  0  0  0  0  0  0  0  0
   -3.0907    0.7300    1.8354 H   0  0  0  0  0  0  0  0  0  0  0  0
   -0.7280    2.4367    2.1021 H   0  0  0  0  0  0  0  0  0  0  0  0
   -2.6385    4.2859    1.7460 H   0  0  0  0  0  0  0  0  0  0  0  0
   -1.8935    4.2410    0.1168 H   0  0  0  0  0  0  0  0  0  0  0  0
  2 10  1  0  0  0  0
  2  1  2  0  0  0  0
  3  2  1  0  0  0  0
  4 11  1  6  0  0  0
  4  3  1  0  0  0  0
  4  8  1  0  0  0  0
  5  4  1  0  0  0  0
  5  6  1  0  0  0  0
  6 14  1  6  0  0  0
  6  9  1  0  0  0  0
  6  7  1  0  0  0  0
  7 16  1  0  0  0  0
  7 15  1  0  0  0  0
  8  7  1  0  0  0  0
  8 17  1  1  0  0  0
  9  8  1  0  0  0  0
  9 18  1  0  0  0  0
 12  5  1  0  0  0  0
 13  5  1  0  0  0  0
 19  9  1  0  0  0  0
M TOR 0 0 1 2 3
M TOR 1 1 2 3 4
M TOR 2 1 2 3 7
M TOR 3 1 2 3 10
M TOR 4 2 3 4 5
M TOR 5 2 3 4 11
M TOR 6 2 3 4 12
M TOR 7 2 3 7 6
M TOR 8 2 3 7 8
M TOR 9 2 3 7 16
M TOR 10 3 2 1 9
M TOR 11 3 4 5 6
M TOR 12 3 4 5 8
M TOR 13 3 4 5 13
M TOR 14 3 7 6 5
M TOR 15 3 7 6 14
M TOR 16 3 7 6 15
M TOR 17 3 7 8 5
M TOR 18 3 7 8 17
M TOR 19 3 7 8 18
M TOR 20 4 3 7 6
M TOR 21 4 3 7 8
M TOR 22 4 3 7 16
M TOR 23 4 5 6 7
M TOR 24 4 5 6 14
M TOR 25 4 5 6 15
M TOR 26 4 5 8 7
M TOR 27 4 5 8 17
M TOR 28 4 5 8 18
M TOR 29 5 4 3 7
M TOR 30 5 4 3 10
M TOR 31 5 6 7 8
M TOR 32 5 6 7 16
M TOR 33 5 8 7 16
M TOR 34 6 5 4 11
M TOR 35 6 5 4 12
M TOR 36 6 5 8 17
M TOR 37 6 5 8 18
M TOR 38 6 7 3 10
M TOR 39 6 7 8 17
M TOR 40 6 7 8 18
M TOR 41 7 3 4 11
M TOR 42 7 3 4 12
M TOR 43 7 6 5 13
M TOR 44 7 8 5 13
M TOR 45 8 5 4 11
M TOR 46 8 5 4 12
M TOR 47 8 5 6 14
M TOR 48 8 5 6 15
M TOR 49 8 7 3 10
M TOR 50 8 7 6 14
M TOR 51 8 7 6 15
M  END
$$$$
