
     RDKit          3D

 19 19  0  0  0  0  0  0  0  0999 V2000
   -1.6810   -1.9931    3.3087 O   0  0  0  0  0  0  0  0  0  0  0  0
   -1.1830   -0.8455    2.6490 C   0  0  0  0  0  0  0  0  0  0  0  0
   -0.3520    0.0488    3.5761 C   0  0  0  0  0  0  0  0  0  0  0  0
    0.1281    1.3034    2.8426 C   0  0  0  0  0  0  0  0  0  0  0  0
   -0.9598    2.0261    2.2913 O   0  0  0  0  0  0  0  0  0  0  0  0
   -1.6783    1.2651    1.3465 C   0  0  0  0  0  0  0  0  0  0  0  0
   -2.3011   -0.0038    1.9835 C   0  0  0  0  0  0  0  0  0  0  0  0
   -3.0554   -0.7580    0.9924 C   0  0  0  0  0  0  0  0  0  0  0  0
   -3.6568   -1.3495    0.1361 C   0  0  0  0  0  0  0  0  0  0  0  0
   -2.2598   -1.7008    4.0217 H   0  0  0  0  0  0  0  0  0  0  0  0
   -0.5396   -1.2392    1.8525 H   0  0  0  0  0  0  0  0  0  0  0  0
   -0.9699    0.3525    4.4323 H   0  0  0  0  0  0  0  0  0  0  0  0
    0.4988   -0.5186    3.9674 H   0  0  0  0  0  0  0  0  0  0  0  0
    0.6399    1.9885    3.5236 H   0  0  0  0  0  0  0  0  0  0  0  0
    0.8390    1.0254    2.0456 H   0  0  0  0  0  0  0  0  0  0  0  0
   -2.4643    1.9108    0.9485 H   0  0  0  0  0  0  0  0  0  0  0  0
   -1.0280    0.9620    0.5092 H   0  0  0  0  0  0  0  0  0  0  0  0
   -2.9807    0.3350    2.7799 H   0  0  0  0  0  0  0  0  0  0  0  0
   -4.1959   -1.8855   -0.6052 H   0  0  0  0  0  0  0  0  0  0  0  0
  1  2  1  0
  2  3  1  0
  3  4  1  0
  4  5  1  0
  5  6  1  0
  6  7  1  0
  7  8  1  0
  8  9  3  0
  7  2  1  0
  1 10  1  0
  2 11  1  0
  3 12  1  0
  3 13  1  0
  4 14  1  0
  4 15  1  0
  6 16  1  0
  6 17  1  0
  7 18  1  0
  9 19  1  0
M  END
$$$$
