
     RDKit          3D

 19 21  0  0  0  0  0  0  0  0999 V2000
    1.0941    1.3413    0.1834 C   0  0  0  0  0  0  0  0  0  0  0  0
    0.8672   -0.1558    0.1704 C   0  0  0  0  0  0  0  0  0  0  0  0
    1.8765   -1.0397    0.8412 C   0  0  0  0  0  0  0  0  0  0  0  0
    1.7823   -0.9920   -0.6946 C   0  0  0  0  0  0  0  0  0  0  0  0
    1.3290   -2.4280   -0.6943 C   0  0  0  0  0  0  0  0  0  0  0  0
    0.6951   -3.2955   -1.6849 C   0  0  0  0  0  0  0  0  0  0  0  0
    2.0980   -3.4250   -1.3628 O   0  0  0  0  0  0  0  0  0  0  0  0
    1.3452   -2.4922    0.8591 C   0  0  0  0  0  0  0  0  0  0  0  0
    2.2162   -3.4734    1.3473 O   0  0  0  0  0  0  0  0  0  0  0  0
    0.7141    1.7874    1.1084 H   0  0  0  0  0  0  0  0  0  0  0  0
    2.1607    1.5786    0.1127 H   0  0  0  0  0  0  0  0  0  0  0  0
    0.5869    1.8263   -0.6573 H   0  0  0  0  0  0  0  0  0  0  0  0
   -0.1817   -0.4485    0.2314 H   0  0  0  0  0  0  0  0  0  0  0  0
    2.6583   -0.6648    1.4895 H   0  0  0  0  0  0  0  0  0  0  0  0
    2.4535   -0.5540   -1.4240 H   0  0  0  0  0  0  0  0  0  0  0  0
    0.0700   -4.1251   -1.3582 H   0  0  0  0  0  0  0  0  0  0  0  0
    0.4922   -2.9248   -2.6884 H   0  0  0  0  0  0  0  0  0  0  0  0
    0.3716   -2.6023    1.3547 H   0  0  0  0  0  0  0  0  0  0  0  0
    2.6211   -3.8882    0.5718 H   0  0  0  0  0  0  0  0  0  0  0  0
  1  2  1  0
  2  3  1  0
  3  4  1  0
  4  5  1  0
  5  6  1  0
  6  7  1  0
  5  8  1  0
  8  9  1  0
  4  2  1  0
  7  5  1  0
  8  3  1  0
  1 10  1  0
  1 11  1  0
  1 12  1  0
  2 13  1  0
  3 14  1  0
  4 15  1  0
  6 16  1  0
  6 17  1  0
  8 18  1  0
  9 19  1  0
M  END
$$$$
