
     RDKit          3D

 19 21  0  0  0  0  0  0  0  0999 V2000
    1.3244   -1.4084    2.4185 O   0  0  0  0  0  0  0  0  0  0  0  0
    0.4030   -0.3895    2.2039 C   0  0  0  0  0  0  0  0  0  0  0  0
   -1.0381   -0.4585    2.5861 C   0  0  0  0  0  0  0  0  0  0  0  0
   -0.1471    0.6068    3.2089 C   0  0  0  0  0  0  0  0  0  0  0  0
    0.1516    1.7804    2.2430 C   0  0  0  0  0  0  0  0  0  0  0  0
   -0.9250    2.1991    1.1964 C   0  0  0  0  0  0  0  0  0  0  0  0
   -0.3015    1.2126    0.1532 C   0  0  0  0  0  0  0  0  0  0  0  0
    0.7406    0.7610    1.2099 C   0  0  0  0  0  0  0  0  0  0  0  0
    2.0691    0.7396    0.7981 O   0  0  0  0  0  0  0  0  0  0  0  0
    1.0823   -2.1624    1.8678 H   0  0  0  0  0  0  0  0  0  0  0  0
   -1.8366   -0.2152    1.8917 H   0  0  0  0  0  0  0  0  0  0  0  0
   -1.2746   -1.2705    3.2677 H   0  0  0  0  0  0  0  0  0  0  0  0
   -0.0198    0.6384    4.2843 H   0  0  0  0  0  0  0  0  0  0  0  0
    0.7809    2.5645    2.6634 H   0  0  0  0  0  0  0  0  0  0  0  0
   -1.9608    1.9989    1.4803 H   0  0  0  0  0  0  0  0  0  0  0  0
   -0.8530    3.2470    0.8981 H   0  0  0  0  0  0  0  0  0  0  0  0
   -0.9572    0.4390   -0.2580 H   0  0  0  0  0  0  0  0  0  0  0  0
    0.1923    1.7263   -0.6752 H   0  0  0  0  0  0  0  0  0  0  0  0
    2.5006    0.0254    1.2868 H   0  0  0  0  0  0  0  0  0  0  0  0
  1  2  1  0
  2  3  1  0
  3  4  1  0
  4  5  1  0
  5  6  1  0
  6  7  1  0
  7  8  1  0
  8  9  1  0
  4  2  1  0
  8  5  1  0
  8  2  1  0
  1 10  1  0
  3 11  1  0
  3 12  1  0
  4 13  1  0
  5 14  1  0
  6 15  1  0
  6 16  1  0
  7 17  1  0
  7 18  1  0
  9 19  1  0
M  END
$$$$
