
     RDKit          3D

 19 21  0  0  0  0  0  0  0  0999 V2000
   -0.0721   -0.0220   -0.1580 C   0  0  0  0  0  0  0  0  0  0  0  0
    1.4405    0.0013    0.0617 C   0  0  0  0  0  0  0  0  0  0  0  0
    2.1267   -0.5736   -1.0536 O   0  0  0  0  0  0  0  0  0  0  0  0
    1.9085   -0.6890    1.3603 C   0  0  0  0  0  0  0  0  0  0  0  0
    1.5162   -0.1710    2.7196 C   0  0  0  0  0  0  0  0  0  0  0  0
    2.8391    0.2382    2.1149 C   0  0  0  0  0  0  0  0  0  0  0  0
    2.8433    1.5463    1.3545 C   0  0  0  0  0  0  0  0  0  0  0  0
    1.5538    2.1825    1.2642 O   0  0  0  0  0  0  0  0  0  0  0  0
    2.0159    1.4195    0.1480 C   0  0  0  0  0  0  0  0  0  0  0  0
   -0.5894    0.5209    0.6367 H   0  0  0  0  0  0  0  0  0  0  0  0
   -0.3222    0.4387   -1.1184 H   0  0  0  0  0  0  0  0  0  0  0  0
   -0.4467   -1.0526   -0.1623 H   0  0  0  0  0  0  0  0  0  0  0  0
    1.7555   -1.4485   -1.2083 H   0  0  0  0  0  0  0  0  0  0  0  0
    2.1341   -1.7467    1.2661 H   0  0  0  0  0  0  0  0  0  0  0  0
    0.7511    0.5905    2.8002 H   0  0  0  0  0  0  0  0  0  0  0  0
    1.5446   -0.8841    3.5367 H   0  0  0  0  0  0  0  0  0  0  0  0
    3.7704   -0.1009    2.5519 H   0  0  0  0  0  0  0  0  0  0  0  0
    3.6873    2.2253    1.4306 H   0  0  0  0  0  0  0  0  0  0  0  0
    2.1747    1.9650   -0.7793 H   0  0  0  0  0  0  0  0  0  0  0  0
  1  2  1  0
  2  3  1  0
  2  4  1  0
  4  5  1  0
  5  6  1  0
  6  7  1  0
  7  8  1  0
  8  9  1  0
  9  2  1  0
  6  4  1  0
  9  7  1  0
  1 10  1  0
  1 11  1  0
  1 12  1  0
  3 13  1  0
  4 14  1  0
  5 15  1  0
  5 16  1  0
  6 17  1  0
  7 18  1  0
  9 19  1  0
M  END
$$$$
