
     RDKit          3D

 19 19  0  0  0  0  0  0  0  0999 V2000
   -0.0484    0.0819   -0.1756 C   0  0  0  0  0  0  0  0  0  0  0  0
    1.4667   -0.0934    0.0031 C   0  0  0  0  0  0  0  0  0  0  0  0
    2.2500    1.2635   -0.0605 C   0  0  0  0  0  0  0  0  0  0  0  0
    2.5018    1.0164   -1.5730 C   0  0  0  0  0  0  0  0  0  0  0  0
    3.7130    1.4063   -2.1619 O   0  0  0  0  0  0  0  0  0  0  0  0
    2.1945   -0.4766   -1.3532 C   0  0  0  0  0  0  0  0  0  0  0  0
    1.4663   -1.0934   -2.3762 O   0  0  0  0  0  0  0  0  0  0  0  0
    1.7708   -0.9584    1.1283 C   0  0  0  0  0  0  0  0  0  0  0  0
    2.0395   -1.6944    2.0420 C   0  0  0  0  0  0  0  0  0  0  0  0
   -0.4867    0.5145    0.7282 H   0  0  0  0  0  0  0  0  0  0  0  0
   -0.2732    0.7376   -1.0205 H   0  0  0  0  0  0  0  0  0  0  0  0
   -0.5299   -0.8811   -0.3639 H   0  0  0  0  0  0  0  0  0  0  0  0
    1.6982    2.1613    0.2238 H   0  0  0  0  0  0  0  0  0  0  0  0
    3.1785    1.2175    0.5151 H   0  0  0  0  0  0  0  0  0  0  0  0
    1.7158    1.4646   -2.1868 H   0  0  0  0  0  0  0  0  0  0  0  0
    4.4341    1.0367   -1.6413 H   0  0  0  0  0  0  0  0  0  0  0  0
    3.1215   -1.0205   -1.1199 H   0  0  0  0  0  0  0  0  0  0  0  0
    1.4224   -2.0389   -2.2005 H   0  0  0  0  0  0  0  0  0  0  0  0
    2.2711   -2.3349    2.8566 H   0  0  0  0  0  0  0  0  0  0  0  0
  1  2  1  0
  2  3  1  0
  3  4  1  0
  4  5  1  0
  4  6  1  0
  6  7  1  0
  2  8  1  0
  8  9  3  0
  6  2  1  0
  1 10  1  0
  1 11  1  0
  1 12  1  0
  3 13  1  0
  3 14  1  0
  4 15  1  0
  5 16  1  0
  6 17  1  0
  7 18  1  0
  9 19  1  0
M  END
$$$$
