gdb 2895	3.0937339	1.5413399	1.2671005	1.8702	73.85	-0.22596	0.06306	0.28902	1032.7111	0.157463	-422.505671	-422.497856	-422.496912	-422.537791	30.698
 OpenBabel02181911413D

 19 21  0  0  1  0  0  0  0  0999 V2000
    0.0787   -1.8674    0.5790 C   0  0  0  0  0  0  0  0  0  0  0  0
    1.5653   -1.7620    0.9242 C   0  0  1  0  0  0  0  0  0  0  0  0
    2.0580   -0.3399    1.1808 C   0  0  2  0  0  0  0  0  0  0  0  0
    3.4220   -0.3838    1.9254 C   0  0  1  0  0  0  0  0  0  0  0  0
    3.1019    0.8423    2.6687 O   0  0  0  0  0  0  0  0  0  0  0  0
    1.8663    0.0417    2.6799 C   0  0  2  0  0  0  0  0  0  0  0  0
    2.6690   -1.2593    2.9695 C   0  0  1  0  0  0  0  0  0  0  0  0
    1.9842   -2.4317    2.2799 C   0  0  1  0  0  0  0  0  0  0  0  0
    0.8284   -2.8822    2.9768 O   0  0  0  0  0  0  0  0  0  0  0  0
   -0.5458   -1.4132    1.3520 H   0  0  0  0  0  0  0  0  0  0  0  0
   -0.1238   -1.3595   -0.3696 H   0  0  0  0  0  0  0  0  0  0  0  0
   -0.2307   -2.9110    0.4801 H   0  0  0  0  0  0  0  0  0  0  0  0
    2.1459   -2.2104    0.1088 H   0  0  0  0  0  0  0  0  0  0  0  0
    1.9068    0.4354    0.4299 H   0  0  0  0  0  0  0  0  0  0  0  0
    4.4314   -0.4918    1.5263 H   0  0  0  0  0  0  0  0  0  0  0  0
    0.9990    0.4511    3.1964 H   0  0  0  0  0  0  0  0  0  0  0  0
    3.1151   -1.3886    3.9568 H   0  0  0  0  0  0  0  0  0  0  0  0
    2.6741   -3.2716    2.1122 H   0  0  0  0  0  0  0  0  0  0  0  0
    1.1108   -3.2124    3.8353 H   0  0  0  0  0  0  0  0  0  0  0  0
  1  2  1  0  0  0  0
  1 10  1  0  0  0  0
  2 13  1  6  0  0  0
  2  3  1  0  0  0  0
  2  8  1  0  0  0  0
  3 14  1  6  0  0  0
  3  4  1  0  0  0  0
  3  6  1  0  0  0  0
  4 15  1  6  0  0  0
  4  5  1  0  0  0  0
  4  7  1  0  0  0  0
  5  6  1  0  0  0  0
  6  7  1  0  0  0  0
  6 16  1  1  0  0  0
  7 17  1  1  0  0  0
  8 18  1  6  0  0  0
  8  7  1  0  0  0  0
  8  9  1  0  0  0  0
  9 19  1  0  0  0  0
 11  1  1  0  0  0  0
 12  1  1  0  0  0  0
M TOR 0 0 1 2 3
M TOR 1 0 1 2 5
M TOR 2 0 1 2 13
M TOR 3 0 1 7 6
M TOR 4 0 1 7 8
M TOR 5 0 1 7 17
M TOR 6 1 2 3 4
M TOR 7 1 2 3 6
M TOR 8 1 2 3 14
M TOR 9 1 2 5 4
M TOR 10 1 2 5 6
M TOR 11 1 2 5 15
M TOR 12 1 7 6 3
M TOR 13 1 7 6 5
M TOR 14 1 7 6 16
M TOR 15 1 7 8 18
M TOR 16 2 1 0 9
M TOR 17 2 1 0 10
M TOR 18 2 1 0 11
M TOR 19 2 1 7 6
M TOR 20 2 1 7 8
M TOR 21 2 1 7 17
M TOR 22 2 3 4 5
M TOR 23 2 3 6 5
M TOR 24 2 3 6 7
M TOR 25 2 3 6 16
M TOR 26 2 5 6 7
M TOR 27 2 5 6 16
M TOR 28 3 2 1 7
M TOR 29 3 2 1 12
M TOR 30 3 2 5 15
M TOR 31 3 4 5 6
M TOR 32 3 4 5 15
M TOR 33 3 6 5 15
M TOR 34 3 6 7 8
M TOR 35 3 6 7 17
M TOR 36 4 3 2 13
M TOR 37 4 3 6 7
M TOR 38 4 3 6 16
M TOR 39 4 5 2 13
M TOR 40 4 5 6 7
M TOR 41 4 5 6 16
M TOR 42 5 2 1 7
M TOR 43 5 2 1 12
M TOR 44 5 2 3 14
M TOR 45 5 4 3 14
M TOR 46 5 6 3 14
M TOR 47 5 6 7 8
M TOR 48 5 6 7 17
M TOR 49 6 3 2 13
M TOR 50 6 5 2 13
M TOR 51 6 7 1 12
M TOR 52 6 7 8 18
M TOR 53 7 1 0 9
M TOR 54 7 1 0 10
M TOR 55 7 1 0 11
M TOR 56 7 1 2 13
M TOR 57 7 6 3 14
M TOR 58 7 6 5 15
M TOR 59 8 7 1 12
M TOR 60 8 7 6 16
M  END
$$$$
