
     RDKit          3D

 19 21  0  0  0  0  0  0  0  0999 V2000
   -0.1765    0.1292    0.6702 O   0  0  0  0  0  0  0  0  0  0  0  0
   -1.5012   -0.3441    0.6862 C   0  0  0  0  0  0  0  0  0  0  0  0
   -1.8381   -1.4462   -0.3436 C   0  0  0  0  0  0  0  0  0  0  0  0
   -3.0723   -1.7664    0.5565 C   0  0  0  0  0  0  0  0  0  0  0  0
   -1.8919   -1.5812    1.5576 C   0  0  0  0  0  0  0  0  0  0  0  0
   -1.0530   -2.4323    0.5670 C   0  0  0  0  0  0  0  0  0  0  0  0
    0.4629   -2.6782    0.5887 C   0  0  0  0  0  0  0  0  0  0  0  0
    0.0816   -4.1630    0.4578 C   0  0  0  0  0  0  0  0  0  0  0  0
   -1.3262   -3.8383    0.4596 O   0  0  0  0  0  0  0  0  0  0  0  0
   -0.0521    0.6985    1.4357 H   0  0  0  0  0  0  0  0  0  0  0  0
   -2.2240    0.4811    0.7235 H   0  0  0  0  0  0  0  0  0  0  0  0
   -1.8045   -1.3666   -1.4305 H   0  0  0  0  0  0  0  0  0  0  0  0
   -3.8608   -1.0095    0.5860 H   0  0  0  0  0  0  0  0  0  0  0  0
   -3.4730   -2.7745    0.4734 H   0  0  0  0  0  0  0  0  0  0  0  0
   -1.9216   -1.6558    2.6459 H   0  0  0  0  0  0  0  0  0  0  0  0
    1.0122   -2.2472   -0.2481 H   0  0  0  0  0  0  0  0  0  0  0  0
    0.9597   -2.3979    1.5182 H   0  0  0  0  0  0  0  0  0  0  0  0
    0.3818   -4.6558   -0.4746 H   0  0  0  0  0  0  0  0  0  0  0  0
    0.3490   -4.8074    1.3036 H   0  0  0  0  0  0  0  0  0  0  0  0
  1  2  1  0
  2  3  1  0
  3  4  1  0
  4  5  1  0
  5  6  1  0
  6  7  1  0
  7  8  1  0
  8  9  1  0
  5  2  1  0
  9  6  1  0
  6  3  1  0
  1 10  1  0
  2 11  1  0
  3 12  1  0
  4 13  1  0
  4 14  1  0
  5 15  1  0
  7 16  1  0
  7 17  1  0
  8 18  1  0
  8 19  1  0
M  END
$$$$
