gdb 5586	3.2576215	1.2262735	1.0611729	3.1324	76.66	-0.23187	0.00889	0.24076	1180.2022	0.157297	-422.554774	-422.546273	-422.545329	-422.587551	32.968
 OpenBabel02181911423D

 19 20  0  0  1  0  0  0  0  0999 V2000
    1.5030    0.7026    0.2511 O   0  0  0  0  0  0  0  0  0  0  0  0
    0.3516   -0.1172    0.3610 C   0  0  0  0  0  0  0  0  0  0  0  0
   -0.8711    0.6660    0.7993 C   0  0  1  0  0  0  0  0  0  0  0  0
   -1.8308    0.0088    1.7784 C   0  0  2  0  0  0  0  0  0  0  0  0
   -3.2635    0.5258    1.8674 C   0  0  0  0  0  0  0  0  0  0  0  0
   -3.0999    1.9673    2.3112 C   0  0  0  0  0  0  0  0  0  0  0  0
   -1.8215    2.2891    2.5215 C   0  0  0  0  0  0  0  0  0  0  0  0
   -0.9111    1.1436    2.2261 C   0  0  2  0  0  0  0  0  0  0  0  0
    0.2652    0.9791    2.9661 O   0  0  0  0  0  0  0  0  0  0  0  0
    1.6716    1.0381    1.1396 H   0  0  0  0  0  0  0  0  0  0  0  0
    0.1842   -0.5469   -0.6325 H   0  0  0  0  0  0  0  0  0  0  0  0
    0.5261   -0.9523    1.0550 H   0  0  0  0  0  0  0  0  0  0  0  0
   -1.2804    1.3417    0.0522 H   0  0  0  0  0  0  0  0  0  0  0  0
   -1.6120   -1.0155    2.0584 H   0  0  0  0  0  0  0  0  0  0  0  0
   -3.7864    0.4604    0.9041 H   0  0  0  0  0  0  0  0  0  0  0  0
   -3.8662   -0.0502    2.5824 H   0  0  0  0  0  0  0  0  0  0  0  0
   -3.9404    2.6468    2.3953 H   0  0  0  0  0  0  0  0  0  0  0  0
   -1.4434    3.2568    2.8309 H   0  0  0  0  0  0  0  0  0  0  0  0
    0.0311    0.8196    3.8870 H   0  0  0  0  0  0  0  0  0  0  0  0
  1  2  1  0  0  0  0
  1 10  1  0  0  0  0
  2  3  1  0  0  0  0
  2 12  1  0  0  0  0
  3 13  1  6  0  0  0
  3  4  1  0  0  0  0
  3  8  1  0  0  0  0
  4  5  1  0  0  0  0
  4 14  1  1  0  0  0
  4  8  1  0  0  0  0
  5  6  1  0  0  0  0
  5 16  1  0  0  0  0
  6 17  1  0  0  0  0
  6  7  2  0  0  0  0
  7 18  1  0  0  0  0
  8  7  1  0  0  0  0
  8  9  1  1  0  0  0
  9 19  1  0  0  0  0
 11  2  1  0  0  0  0
 15  5  1  0  0  0  0
M TOR 0 0 1 2 3
M TOR 1 0 1 2 7
M TOR 2 0 1 2 12
M TOR 3 1 2 3 4
M TOR 4 1 2 3 7
M TOR 5 1 2 3 13
M TOR 6 1 2 7 6
M TOR 7 1 2 7 8
M TOR 8 2 1 0 9
M TOR 9 2 3 4 5
M TOR 10 2 3 4 14
M TOR 11 2 3 4 15
M TOR 12 2 3 7 6
M TOR 13 2 3 7 8
M TOR 14 2 7 3 4
M TOR 15 2 7 3 13
M TOR 16 2 7 6 5
M TOR 17 2 7 6 17
M TOR 18 2 7 8 18
M TOR 19 3 2 1 10
M TOR 20 3 2 1 11
M TOR 21 3 4 5 6
M TOR 22 3 4 5 16
M TOR 23 3 7 2 12
M TOR 24 3 7 6 5
M TOR 25 3 7 6 17
M TOR 26 3 7 8 18
M TOR 27 4 3 2 12
M TOR 28 4 3 7 6
M TOR 29 4 3 7 8
M TOR 30 4 5 6 7
M TOR 31 4 5 6 17
M TOR 32 5 4 3 7
M TOR 33 5 4 3 13
M TOR 34 5 6 7 8
M TOR 35 6 5 4 14
M TOR 36 6 5 4 15
M TOR 37 6 7 2 12
M TOR 38 6 7 3 13
M TOR 39 6 7 8 18
M TOR 40 7 2 1 10
M TOR 41 7 2 1 11
M TOR 42 7 3 4 14
M TOR 43 7 3 4 15
M TOR 44 7 6 5 16
M TOR 45 8 7 2 12
M TOR 46 8 7 3 13
M TOR 47 8 7 6 17
M  END
$$$$
