gdb 865	3.6141899	1.091505	0.9326126	2.0909	75.54	-0.24909	-0.02329	0.2258	1253.8661	0.157784	-422.567471	-422.559278	-422.558333	-422.600886	30.577
 OpenBabel02181911403D

 19 20  0  0  1  0  0  0  0  0999 V2000
    1.0173   -0.4472   -0.7819 O   0  0  0  0  0  0  0  0  0  0  0  0
    0.2388   -0.0301    0.0355 C   0  0  0  0  0  0  0  0  0  0  0  0
    0.3055    1.3303    0.6956 C   0  0  1  0  0  0  0  0  0  0  0  0
   -0.9222    2.1723    0.2865 C   0  0  0  0  0  0  0  0  0  0  0  0
   -0.8252    3.5917    0.8626 C   0  0  0  0  0  0  0  0  0  0  0  0
   -0.5839    3.5836    2.3541 C   0  0  1  0  0  0  0  0  0  0  0  0
   -1.3918    2.6827    3.1172 O   0  0  0  0  0  0  0  0  0  0  0  0
    0.0122    2.4080    3.0098 C   0  0  1  0  0  0  0  0  0  0  0  0
    0.3919    1.1616    2.2304 C   0  0  0  0  0  0  0  0  0  0  0  0
   -0.6295   -0.6488    0.3699 H   0  0  0  0  0  0  0  0  0  0  0  0
    1.2118    1.8224    0.3254 H   0  0  0  0  0  0  0  0  0  0  0  0
   -0.9911    2.2225   -0.8048 H   0  0  0  0  0  0  0  0  0  0  0  0
   -1.8374    1.6930    0.6509 H   0  0  0  0  0  0  0  0  0  0  0  0
   -0.0031    4.1387    0.3825 H   0  0  0  0  0  0  0  0  0  0  0  0
   -1.7433    4.1501    0.6447 H   0  0  0  0  0  0  0  0  0  0  0  0
   -0.4460    4.5614    2.8179 H   0  0  0  0  0  0  0  0  0  0  0  0
    0.5544    2.5576    3.9437 H   0  0  0  0  0  0  0  0  0  0  0  0
    1.4078    0.8590    2.5053 H   0  0  0  0  0  0  0  0  0  0  0  0
   -0.2739    0.3512    2.5567 H   0  0  0  0  0  0  0  0  0  0  0  0
  1  2  2  0  0  0  0
  2 10  1  0  0  0  0
  2  3  1  0  0  0  0
  3 11  1  6  0  0  0
  3  9  1  0  0  0  0
  4 13  1  0  0  0  0
  4  3  1  0  0  0  0
  4  5  1  0  0  0  0
  5  6  1  0  0  0  0
  6 16  1  1  0  0  0
  6  8  1  0  0  0  0
  6  7  1  0  0  0  0
  8  7  1  0  0  0  0
  8 17  1  1  0  0  0
  9 18  1  0  0  0  0
  9 19  1  0  0  0  0
  9  8  1  0  0  0  0
 12  4  1  0  0  0  0
 14  5  1  0  0  0  0
 15  5  1  0  0  0  0
M TOR 0 0 1 2 3
M TOR 1 0 1 2 8
M TOR 2 0 1 2 10
M TOR 3 1 2 3 4
M TOR 4 1 2 3 11
M TOR 5 1 2 3 12
M TOR 6 1 2 8 7
M TOR 7 1 2 8 17
M TOR 8 1 2 8 18
M TOR 9 2 3 4 5
M TOR 10 2 3 4 13
M TOR 11 2 3 4 14
M TOR 12 2 8 7 5
M TOR 13 2 8 7 6
M TOR 14 2 8 7 16
M TOR 15 3 2 1 9
M TOR 16 3 2 8 7
M TOR 17 3 2 8 17
M TOR 18 3 2 8 18
M TOR 19 3 4 5 6
M TOR 20 3 4 5 7
M TOR 21 3 4 5 15
M TOR 22 4 3 2 8
M TOR 23 4 3 2 10
M TOR 24 4 5 6 7
M TOR 25 4 5 7 8
M TOR 26 4 5 7 16
M TOR 27 5 4 3 11
M TOR 28 5 4 3 12
M TOR 29 5 6 7 8
M TOR 30 5 6 7 16
M TOR 31 5 7 8 17
M TOR 32 5 7 8 18
M TOR 33 6 5 4 13
M TOR 34 6 5 4 14
M TOR 35 6 7 5 15
M TOR 36 6 7 8 17
M TOR 37 6 7 8 18
M TOR 38 7 5 4 13
M TOR 39 7 5 4 14
M TOR 40 7 8 2 10
M TOR 41 8 2 1 9
M TOR 42 8 2 3 11
M TOR 43 8 2 3 12
M TOR 44 8 7 5 15
M  END
$$$$
