
     RDKit          3D

 19 21  0  0  0  0  0  0  0  0999 V2000
    0.2801    0.5323    0.1580 C   0  0  0  0  0  0  0  0  0  0  0  0
    0.7927   -0.8499   -0.2155 C   0  0  0  0  0  0  0  0  0  0  0  0
    1.9044   -0.7185   -1.1367 O   0  0  0  0  0  0  0  0  0  0  0  0
    2.8633   -1.6415   -0.6959 C   0  0  0  0  0  0  0  0  0  0  0  0
    2.3126   -2.9690   -0.7744 O   0  0  0  0  0  0  0  0  0  0  0  0
    1.8314   -3.1146    0.5778 C   0  0  0  0  0  0  0  0  0  0  0  0
    3.1172   -2.8943    1.4036 C   0  0  0  0  0  0  0  0  0  0  0  0
    2.9545   -1.4627    0.8400 C   0  0  0  0  0  0  0  0  0  0  0  0
    1.4033   -1.6510    0.9397 C   0  0  0  0  0  0  0  0  0  0  0  0
   -0.6240    0.4550    0.7710 H   0  0  0  0  0  0  0  0  0  0  0  0
    1.0355    1.0924    0.7178 H   0  0  0  0  0  0  0  0  0  0  0  0
    0.0357    1.0983   -0.7452 H   0  0  0  0  0  0  0  0  0  0  0  0
   -0.0008   -1.4230   -0.7133 H   0  0  0  0  0  0  0  0  0  0  0  0
    3.7543   -1.5541   -1.3161 H   0  0  0  0  0  0  0  0  0  0  0  0
    1.1813   -3.9848    0.6553 H   0  0  0  0  0  0  0  0  0  0  0  0
    2.9585   -2.9338    2.4839 H   0  0  0  0  0  0  0  0  0  0  0  0
    3.9917   -3.4805    1.1127 H   0  0  0  0  0  0  0  0  0  0  0  0
    3.4856   -0.5872    1.2082 H   0  0  0  0  0  0  0  0  0  0  0  0
    0.9519   -1.5206    1.9221 H   0  0  0  0  0  0  0  0  0  0  0  0
  1  2  1  0
  2  3  1  0
  3  4  1  0
  4  5  1  0
  5  6  1  0
  6  7  1  0
  7  8  1  0
  8  9  1  0
  9  2  1  0
  8  4  1  0
  9  6  1  0
  1 10  1  0
  1 11  1  0
  1 12  1  0
  2 13  1  0
  4 14  1  0
  6 15  1  0
  7 16  1  0
  7 17  1  0
  8 18  1  0
  9 19  1  0
M  END
$$$$
