gdb 669	2.8394848	1.5979033	1.3977774	4.5594	73.79	-0.25554	0.01601	0.27155	999.6284	0.160488	-422.622709	-422.615503	-422.614559	-422.654498	28.612
 OpenBabel02181911403D

 19 20  0  0  1  0  0  0  0  0999 V2000
    1.1097   -0.0478   -0.3082 O   0  0  0  0  0  0  0  0  0  0  0  0
   -0.0604   -0.0214   -0.0399 C   0  0  0  0  0  0  0  0  0  0  0  0
   -0.8489    1.2843    0.0710 C   0  0  0  0  0  0  0  0  0  0  0  0
   -2.2745    1.1390    0.6219 C   0  0  2  0  0  0  0  0  0  0  0  0
   -2.2723    0.7195    2.1142 C   0  0  0  0  0  0  0  0  0  0  0  0
   -2.1468   -0.8343    2.0921 C   0  0  0  0  0  0  0  0  0  0  0  0
   -2.0999   -1.1951    0.5967 C   0  0  1  0  0  0  0  0  0  0  0  0
   -2.9041   -0.0811   -0.0720 C   0  0  0  0  0  0  0  0  0  0  0  0
   -0.7303   -1.1898    0.1245 O   0  0  0  0  0  0  0  0  0  0  0  0
   -0.2422    1.9739    0.6655 H   0  0  0  0  0  0  0  0  0  0  0  0
   -0.8727    1.6993   -0.9441 H   0  0  0  0  0  0  0  0  0  0  0  0
   -2.8286    2.0671    0.4600 H   0  0  0  0  0  0  0  0  0  0  0  0
   -1.4621    1.1987    2.6706 H   0  0  0  0  0  0  0  0  0  0  0  0
   -3.2085    1.0217    2.5922 H   0  0  0  0  0  0  0  0  0  0  0  0
   -1.2561   -1.2076    2.6019 H   0  0  0  0  0  0  0  0  0  0  0  0
   -3.0139   -1.3081    2.5614 H   0  0  0  0  0  0  0  0  0  0  0  0
   -2.4501   -2.2050    0.3804 H   0  0  0  0  0  0  0  0  0  0  0  0
   -2.8021   -0.0780   -1.1608 H   0  0  0  0  0  0  0  0  0  0  0  0
   -3.9652   -0.1874    0.1774 H   0  0  0  0  0  0  0  0  0  0  0  0
  1  2  2  0  0  0  0
  2  3  1  0  0  0  0
  2  9  1  0  0  0  0
  3  4  1  0  0  0  0
  3 10  1  0  0  0  0
  4 12  1  6  0  0  0
  4  5  1  0  0  0  0
  5 14  1  0  0  0  0
  5 13  1  0  0  0  0
  6  5  1  0  0  0  0
  6 16  1  0  0  0  0
  6 15  1  0  0  0  0
  7 17  1  6  0  0  0
  7  6  1  0  0  0  0
  8 19  1  0  0  0  0
  8  7  1  0  0  0  0
  8  4  1  0  0  0  0
  9  7  1  0  0  0  0
 11  3  1  0  0  0  0
 18  8  1  0  0  0  0
M TOR 0 0 1 2 3
M TOR 1 0 1 2 9
M TOR 2 0 1 2 10
M TOR 3 0 1 8 6
M TOR 4 1 2 3 4
M TOR 5 1 2 3 7
M TOR 6 1 2 3 11
M TOR 7 1 8 6 5
M TOR 8 1 8 6 7
M TOR 9 1 8 6 16
M TOR 10 2 1 8 6
M TOR 11 2 3 4 5
M TOR 12 2 3 4 12
M TOR 13 2 3 4 13
M TOR 14 2 3 7 6
M TOR 15 2 3 7 17
M TOR 16 2 3 7 18
M TOR 17 3 2 1 8
M TOR 18 3 4 5 6
M TOR 19 3 4 5 14
M TOR 20 3 4 5 15
M TOR 21 3 7 6 5
M TOR 22 3 7 6 8
M TOR 23 3 7 6 16
M TOR 24 4 3 2 9
M TOR 25 4 3 2 10
M TOR 26 4 3 7 6
M TOR 27 4 3 7 17
M TOR 28 4 3 7 18
M TOR 29 4 5 6 7
M TOR 30 4 5 6 8
M TOR 31 4 5 6 16
M TOR 32 5 4 3 7
M TOR 33 5 4 3 11
M TOR 34 5 6 7 17
M TOR 35 5 6 7 18
M TOR 36 6 5 4 12
M TOR 37 6 5 4 13
M TOR 38 6 7 3 11
M TOR 39 7 3 2 9
M TOR 40 7 3 2 10
M TOR 41 7 3 4 12
M TOR 42 7 3 4 13
M TOR 43 7 6 5 14
M TOR 44 7 6 5 15
M TOR 45 8 1 2 9
M TOR 46 8 1 2 10
M TOR 47 8 6 5 14
M TOR 48 8 6 5 15
M TOR 49 8 6 7 17
M TOR 50 8 6 7 18
M  END
$$$$
