
     RDKit          3D

 19 21  0  0  0  0  0  0  0  0999 V2000
    0.0216    0.5567    0.0714 C   0  0  0  0  0  0  0  0  0  0  0  0
    1.4177   -0.0557    0.0799 C   0  0  0  0  0  0  0  0  0  0  0  0
    1.5966   -0.8927    1.2437 O   0  0  0  0  0  0  0  0  0  0  0  0
    1.4960   -2.2318    0.8120 C   0  0  0  0  0  0  0  0  0  0  0  0
    1.0970   -2.3570   -0.6231 C   0  0  0  0  0  0  0  0  0  0  0  0
    1.7029   -1.0036   -1.0924 C   0  0  0  0  0  0  0  0  0  0  0  0
    3.1354   -1.6197   -0.9537 C   0  0  0  0  0  0  0  0  0  0  0  0
    2.5000   -2.7787   -0.1886 C   0  0  0  0  0  0  0  0  0  0  0  0
    2.9873   -4.0709   -0.1316 O   0  0  0  0  0  0  0  0  0  0  0  0
   -0.1588    1.0959    1.0054 H   0  0  0  0  0  0  0  0  0  0  0  0
   -0.0901    1.2603   -0.7608 H   0  0  0  0  0  0  0  0  0  0  0  0
   -0.7437   -0.2202   -0.0270 H   0  0  0  0  0  0  0  0  0  0  0  0
    2.1749    0.7354    0.1397 H   0  0  0  0  0  0  0  0  0  0  0  0
    1.1101   -2.9127    1.5619 H   0  0  0  0  0  0  0  0  0  0  0  0
    0.2597   -2.9102   -1.0260 H   0  0  0  0  0  0  0  0  0  0  0  0
    1.4269   -0.6175   -2.0723 H   0  0  0  0  0  0  0  0  0  0  0  0
    3.5199   -1.9590   -1.9187 H   0  0  0  0  0  0  0  0  0  0  0  0
    3.8938   -1.0152   -0.4429 H   0  0  0  0  0  0  0  0  0  0  0  0
    3.5858   -4.1362    0.6211 H   0  0  0  0  0  0  0  0  0  0  0  0
  1  2  1  0
  2  3  1  0
  3  4  1  0
  4  5  1  0
  5  6  1  0
  6  7  1  0
  7  8  1  0
  8  9  1  0
  6  2  1  0
  8  4  1  0
  8  5  1  0
  1 10  1  0
  1 11  1  0
  1 12  1  0
  2 13  1  0
  4 14  1  0
  5 15  1  0
  6 16  1  0
  7 17  1  0
  7 18  1  0
  9 19  1  0
M  END
$$$$
