gdb 5607	3.2342103	1.1740234	0.9401945	0.7977	78.22	-0.23716	0.00122	0.23838	1293.4502	0.155563	-422.532383	-422.523447	-422.522503	-422.566091	32.7
 OpenBabel02181911423D

 19 20  0  0  1  0  0  0  0  0999 V2000
    1.4955    0.0233   -0.1283 C   0  0  0  0  0  0  0  0  0  0  0  0
    0.1365   -0.2280    0.1599 O   0  0  0  0  0  0  0  0  0  0  0  0
   -0.3753    0.5534    1.2263 C   0  0  1  0  0  0  0  0  0  0  0  0
   -1.8857    0.5811    1.1779 C   0  0  0  0  0  0  0  0  0  0  0  0
   -2.4538    0.0616    2.2726 C   0  0  0  0  0  0  0  0  0  0  0  0
   -3.9096   -0.0606    2.5885 C   0  0  0  0  0  0  0  0  0  0  0  0
   -1.3826   -0.3730    3.2276 C   0  0  2  0  0  0  0  0  0  0  0  0
   -0.5473    0.7178    3.6980 O   0  0  0  0  0  0  0  0  0  0  0  0
   -0.0916   -0.0703    2.6006 C   0  0  2  0  0  0  0  0  0  0  0  0
    2.1573   -0.2096    0.7192 H   0  0  0  0  0  0  0  0  0  0  0  0
    1.7692   -0.6181   -0.9694 H   0  0  0  0  0  0  0  0  0  0  0  0
    1.6610    1.0742   -0.4118 H   0  0  0  0  0  0  0  0  0  0  0  0
    0.0406    1.5735    1.1768 H   0  0  0  0  0  0  0  0  0  0  0  0
   -2.4167    1.0257    0.3436 H   0  0  0  0  0  0  0  0  0  0  0  0
   -4.1708    0.5264    3.4777 H   0  0  0  0  0  0  0  0  0  0  0  0
   -4.5313    0.2815    1.7573 H   0  0  0  0  0  0  0  0  0  0  0  0
   -4.1790   -1.1009    2.8093 H   0  0  0  0  0  0  0  0  0  0  0  0
   -1.5414   -1.1684    3.9504 H   0  0  0  0  0  0  0  0  0  0  0  0
    0.8112   -0.6538    2.7622 H   0  0  0  0  0  0  0  0  0  0  0  0
  1  2  1  0  0  0  0
  1 10  1  0  0  0  0
  2  3  1  0  0  0  0
  3 13  1  6  0  0  0
  3  9  1  0  0  0  0
  4  3  1  0  0  0  0
  4  5  2  0  0  0  0
  5  6  1  0  0  0  0
  5  7  1  0  0  0  0
  6 17  1  0  0  0  0
  6 15  1  0  0  0  0
  7  8  1  0  0  0  0
  7 18  1  1  0  0  0
  9 19  1  1  0  0  0
  9  7  1  0  0  0  0
  9  8  1  0  0  0  0
 11  1  1  0  0  0  0
 12  1  1  0  0  0  0
 14  4  1  0  0  0  0
 16  6  1  0  0  0  0
M TOR 0 0 1 2 3
M TOR 1 0 1 2 8
M TOR 2 0 1 2 12
M TOR 3 1 2 3 4
M TOR 4 1 2 3 13
M TOR 5 1 2 8 6
M TOR 6 1 2 8 7
M TOR 7 1 2 8 18
M TOR 8 2 1 0 9
M TOR 9 2 1 0 10
M TOR 10 2 1 0 11
M TOR 11 2 3 4 5
M TOR 12 2 3 4 6
M TOR 13 2 8 6 4
M TOR 14 2 8 6 7
M TOR 15 2 8 6 17
M TOR 16 3 2 8 6
M TOR 17 3 2 8 7
M TOR 18 3 2 8 18
M TOR 19 3 4 5 14
M TOR 20 3 4 5 15
M TOR 21 3 4 5 16
M TOR 22 3 4 6 7
M TOR 23 3 4 6 8
M TOR 24 3 4 6 17
M TOR 25 4 3 2 8
M TOR 26 4 3 2 12
M TOR 27 4 6 7 8
M TOR 28 4 6 8 18
M TOR 29 5 4 3 13
M TOR 30 5 4 6 7
M TOR 31 5 4 6 8
M TOR 32 5 4 6 17
M TOR 33 6 4 3 13
M TOR 34 6 4 5 14
M TOR 35 6 4 5 15
M TOR 36 6 4 5 16
M TOR 37 6 7 8 18
M TOR 38 6 8 2 12
M TOR 39 7 8 2 12
M TOR 40 7 8 6 17
M TOR 41 8 2 3 13
M  END
$$$$
