gdb 4201	2.4439446	1.7192781	1.3979115	3.0978	74.73	-0.25201	0.06327	0.31528	1009.123	0.157694	-422.532709	-422.524802	-422.523858	-422.564698	31.298
 OpenBabel02181911413D

 19 21  0  0  1  0  0  0  0  0999 V2000
    0.4931    0.7237   -0.0373 O   0  0  0  0  0  0  0  0  0  0  0  0
   -0.7498    0.7192    0.6582 C   0  0  1  0  0  0  0  0  0  0  0  0
   -1.3532    2.1338    0.8294 C   0  0  0  0  0  0  0  0  0  0  0  0
   -2.2172    2.3702   -0.4071 C   0  0  1  0  0  0  0  0  0  0  0  0
   -1.6199    2.0618   -1.7546 C   0  0  0  0  0  0  0  0  0  0  0  0
   -2.4803    1.0283   -1.0609 C   0  0  1  0  0  0  0  0  0  0  0  0
   -1.7730   -0.0024   -0.2297 C   0  0  2  0  0  0  0  0  0  0  0  0
   -2.4342   -1.2401    0.2069 C   0  0  0  0  0  0  0  0  0  0  0  0
   -1.4056   -1.2599   -0.7854 O   0  0  0  0  0  0  0  0  0  0  0  0
    1.1183    1.2336    0.4876 H   0  0  0  0  0  0  0  0  0  0  0  0
   -0.6326    0.2081    1.6232 H   0  0  0  0  0  0  0  0  0  0  0  0
   -1.9827    2.1578    1.7270 H   0  0  0  0  0  0  0  0  0  0  0  0
   -0.5667    2.8860    0.9638 H   0  0  0  0  0  0  0  0  0  0  0  0
   -2.9998    3.1181   -0.3458 H   0  0  0  0  0  0  0  0  0  0  0  0
   -2.0650    2.5554   -2.6119 H   0  0  0  0  0  0  0  0  0  0  0  0
   -0.5554    1.8788   -1.8287 H   0  0  0  0  0  0  0  0  0  0  0  0
   -3.4440    0.7715   -1.4850 H   0  0  0  0  0  0  0  0  0  0  0  0
   -2.1722   -1.6911    1.1639 H   0  0  0  0  0  0  0  0  0  0  0  0
   -3.4380   -1.4674   -0.1518 H   0  0  0  0  0  0  0  0  0  0  0  0
  1 10  1  0  0  0  0
  1  2  1  0  0  0  0
  2  3  1  0  0  0  0
  2 11  1  1  0  0  0
  3 13  1  0  0  0  0
  3 12  1  0  0  0  0
  4 14  1  1  0  0  0
  4  3  1  0  0  0  0
  5  6  1  0  0  0  0
  5  4  1  0  0  0  0
  6 17  1  6  0  0  0
  6  4  1  0  0  0  0
  6  7  1  0  0  0  0
  7  9  1  6  0  0  0
  7  8  1  0  0  0  0
  7  2  1  0  0  0  0
  8 18  1  0  0  0  0
  9  8  1  0  0  0  0
 15  5  1  0  0  0  0
 16  5  1  0  0  0  0
 19  8  1  0  0  0  0
M TOR 0 0 1 2 3
M TOR 1 0 1 2 11
M TOR 2 0 1 2 12
M TOR 3 0 1 6 5
M TOR 4 0 1 6 7
M TOR 5 0 1 6 8
M TOR 6 1 2 3 4
M TOR 7 1 2 3 5
M TOR 8 1 2 3 13
M TOR 9 1 6 5 3
M TOR 10 1 6 5 4
M TOR 11 1 6 5 16
M TOR 12 1 6 7 8
M TOR 13 1 6 7 17
M TOR 14 1 6 7 18
M TOR 15 2 1 0 9
M TOR 16 2 1 6 5
M TOR 17 2 1 6 7
M TOR 18 2 1 6 8
M TOR 19 2 3 4 5
M TOR 20 2 3 4 14
M TOR 21 2 3 4 15
M TOR 22 2 3 5 6
M TOR 23 2 3 5 16
M TOR 24 3 2 1 6
M TOR 25 3 2 1 10
M TOR 26 3 4 5 6
M TOR 27 3 4 5 16
M TOR 28 3 5 4 14
M TOR 29 3 5 4 15
M TOR 30 3 5 6 7
M TOR 31 3 5 6 8
M TOR 32 4 3 2 11
M TOR 33 4 3 2 12
M TOR 34 4 5 3 13
M TOR 35 4 5 6 7
M TOR 36 4 5 6 8
M TOR 37 5 3 2 11
M TOR 38 5 3 2 12
M TOR 39 5 6 1 10
M TOR 40 5 6 7 8
M TOR 41 5 6 7 17
M TOR 42 5 6 7 18
M TOR 43 6 1 0 9
M TOR 44 6 1 2 11
M TOR 45 6 1 2 12
M TOR 46 6 5 3 13
M TOR 47 6 5 4 14
M TOR 48 6 5 4 15
M TOR 49 6 8 7 17
M TOR 50 6 8 7 18
M TOR 51 7 6 1 10
M TOR 52 7 6 5 16
M TOR 53 8 6 1 10
M TOR 54 8 6 5 16
M  END
$$$$
