gdb 1853	2.7401558	1.828624	1.5462876	2.23	74.3	-0.25043	0.00112	0.25155	947.6152	0.158712	-422.57345	-422.566079	-422.565135	-422.604577	30.167
 OpenBabel02181911403D

 19 20  0  0  1  0  0  0  0  0999 V2000
   -0.0295   -0.1274    0.1389 C   0  0  0  0  0  0  0  0  0  0  0  0
    1.4635    0.0602   -0.0444 C   0  0  2  0  0  0  0  0  0  0  0  0
    2.0397   -0.6006   -1.3200 C   0  0  0  0  0  0  0  0  0  0  0  0
    3.5740   -0.4171   -1.3522 C   0  0  0  0  0  0  0  0  0  0  0  0
    4.1953   -0.5860   -0.0747 O   0  0  0  0  0  0  0  0  0  0  0  0
    3.4475   -0.0066    0.9832 C   0  0  2  0  0  0  0  0  0  0  0  0
    2.1648   -0.5894    1.0377 O   0  0  0  0  0  0  0  0  0  0  0  0
    3.1410    1.4636    0.7075 C   0  0  0  0  0  0  0  0  0  0  0  0
    1.9772    1.4965    0.0673 C   0  0  0  0  0  0  0  0  0  0  0  0
   -0.3511    0.3010    1.0922 H   0  0  0  0  0  0  0  0  0  0  0  0
   -0.5813    0.3623   -0.6698 H   0  0  0  0  0  0  0  0  0  0  0  0
   -0.2840   -1.1912    0.1347 H   0  0  0  0  0  0  0  0  0  0  0  0
    1.7791   -1.6633   -1.2825 H   0  0  0  0  0  0  0  0  0  0  0  0
    1.6088   -0.1774   -2.2349 H   0  0  0  0  0  0  0  0  0  0  0  0
    4.0396   -1.1572   -2.0084 H   0  0  0  0  0  0  0  0  0  0  0  0
    3.8110    0.5784   -1.7502 H   0  0  0  0  0  0  0  0  0  0  0  0
    3.9939   -0.2371    1.8988 H   0  0  0  0  0  0  0  0  0  0  0  0
    3.8273    2.2770    0.9009 H   0  0  0  0  0  0  0  0  0  0  0  0
    1.4823    2.3495   -0.3797 H   0  0  0  0  0  0  0  0  0  0  0  0
  1 10  1  0  0  0  0
  2  9  1  0  0  0  0
  2  1  1  1  0  0  0
  2  7  1  0  0  0  0
  3 13  1  0  0  0  0
  3  2  1  0  0  0  0
  4  3  1  0  0  0  0
  4  5  1  0  0  0  0
  5  6  1  0  0  0  0
  6  7  1  0  0  0  0
  6 17  1  1  0  0  0
  8 18  1  0  0  0  0
  8  6  1  0  0  0  0
  9  8  2  0  0  0  0
 11  1  1  0  0  0  0
 12  1  1  0  0  0  0
 14  3  1  0  0  0  0
 15  4  1  0  0  0  0
 16  4  1  0  0  0  0
 19  9  1  0  0  0  0
M TOR 0 0 1 2 3
M TOR 1 0 1 2 12
M TOR 2 0 1 2 13
M TOR 3 0 1 6 5
M TOR 4 0 1 8 7
M TOR 5 0 1 8 18
M TOR 6 1 2 3 4
M TOR 7 1 2 3 14
M TOR 8 1 2 3 15
M TOR 9 1 6 5 4
M TOR 10 1 6 5 7
M TOR 11 1 6 5 16
M TOR 12 1 8 7 5
M TOR 13 1 8 7 17
M TOR 14 2 1 0 9
M TOR 15 2 1 0 10
M TOR 16 2 1 0 11
M TOR 17 2 1 6 5
M TOR 18 2 1 8 7
M TOR 19 2 1 8 18
M TOR 20 2 3 4 5
M TOR 21 3 2 1 6
M TOR 22 3 2 1 8
M TOR 23 3 4 5 6
M TOR 24 3 4 5 7
M TOR 25 3 4 5 16
M TOR 26 4 3 2 12
M TOR 27 4 3 2 13
M TOR 28 4 5 7 8
M TOR 29 4 5 7 17
M TOR 30 5 4 3 14
M TOR 31 5 4 3 15
M TOR 32 5 6 1 8
M TOR 33 5 7 8 18
M TOR 34 6 1 0 9
M TOR 35 6 1 0 10
M TOR 36 6 1 0 11
M TOR 37 6 1 2 12
M TOR 38 6 1 2 13
M TOR 39 6 1 8 7
M TOR 40 6 1 8 18
M TOR 41 6 5 7 8
M TOR 42 6 5 7 17
M TOR 43 8 1 0 9
M TOR 44 8 1 0 10
M TOR 45 8 1 0 11
M TOR 46 8 1 2 12
M TOR 47 8 1 2 13
M TOR 48 8 7 5 16
M  END
$$$$
