
     RDKit          3D

 19 20  0  0  0  0  0  0  0  0999 V2000
    0.8498   -0.0371   -1.0198 O   0  0  0  0  0  0  0  0  0  0  0  0
   -0.1631   -0.0312   -0.3695 C   0  0  0  0  0  0  0  0  0  0  0  0
   -0.8394   -1.2593    0.2502 C   0  0  0  0  0  0  0  0  0  0  0  0
   -2.1714   -0.7492    0.8217 C   0  0  0  0  0  0  0  0  0  0  0  0
   -1.9365    0.7438    1.0791 C   0  0  0  0  0  0  0  0  0  0  0  0
   -1.1878    0.9012    2.2816 O   0  0  0  0  0  0  0  0  0  0  0  0
   -0.4769    2.1311    2.1830 C   0  0  0  0  0  0  0  0  0  0  0  0
   -0.1106    2.3154    0.6874 C   0  0  0  0  0  0  0  0  0  0  0  0
   -0.9648    1.2328   -0.0042 C   0  0  0  0  0  0  0  0  0  0  0  0
   -0.9337   -2.0602   -0.4870 H   0  0  0  0  0  0  0  0  0  0  0  0
   -0.1757   -1.6283    1.0399 H   0  0  0  0  0  0  0  0  0  0  0  0
   -2.9781   -0.8623    0.0896 H   0  0  0  0  0  0  0  0  0  0  0  0
   -2.4786   -1.2608    1.7363 H   0  0  0  0  0  0  0  0  0  0  0  0
   -2.8710    1.3219    1.1276 H   0  0  0  0  0  0  0  0  0  0  0  0
   -1.1075    2.9633    2.5312 H   0  0  0  0  0  0  0  0  0  0  0  0
    0.3922    2.0631    2.8424 H   0  0  0  0  0  0  0  0  0  0  0  0
   -0.3619    3.3188    0.3366 H   0  0  0  0  0  0  0  0  0  0  0  0
    0.9509    2.1508    0.4873 H   0  0  0  0  0  0  0  0  0  0  0  0
   -1.4595    1.5967   -0.9104 H   0  0  0  0  0  0  0  0  0  0  0  0
  1  2  2  0
  2  3  1  0
  3  4  1  0
  4  5  1  0
  5  6  1  0
  6  7  1  0
  7  8  1  0
  8  9  1  0
  9  2  1  0
  9  5  1  0
  3 10  1  0
  3 11  1  0
  4 12  1  0
  4 13  1  0
  5 14  1  0
  7 15  1  0
  7 16  1  0
  8 17  1  0
  8 18  1  0
  9 19  1  0
M  END
$$$$
