gdb 1851	2.3411927	1.772622	1.3790651	2.414	74.45	-0.23684	-0.01607	0.22077	1011.4884	0.158322	-422.582338	-422.574266	-422.573322	-422.614524	31.487
 OpenBabel02181911403D

 19 20  0  0  1  0  0  0  0  0999 V2000
   -0.9175    2.4176   -0.3967 O   0  0  0  0  0  0  0  0  0  0  0  0
   -1.1404    1.1519    0.1393 C   0  0  2  0  0  0  0  0  0  0  0  0
   -1.9720    0.0498   -0.6296 C   0  0  0  0  0  0  0  0  0  0  0  0
   -1.0475   -1.0144    0.0526 C   0  0  2  0  0  0  0  0  0  0  0  0
   -1.5038   -1.3038    1.5040 C   0  0  0  0  0  0  0  0  0  0  0  0
   -2.2248   -0.0740    2.1017 C   0  0  0  0  0  0  0  0  0  0  0  0
   -1.6410    1.2630    1.5957 C   0  0  0  0  0  0  0  0  0  0  0  0
   -0.0184    0.1192    0.0708 C   0  0  0  0  0  0  0  0  0  0  0  0
    1.1539    0.2222   -0.1705 O   0  0  0  0  0  0  0  0  0  0  0  0
   -0.0953    2.3775   -0.9012 H   0  0  0  0  0  0  0  0  0  0  0  0
   -3.0420    0.0021   -0.4237 H   0  0  0  0  0  0  0  0  0  0  0  0
   -1.8002    0.1088   -1.7063 H   0  0  0  0  0  0  0  0  0  0  0  0
   -0.7816   -1.9159   -0.5003 H   0  0  0  0  0  0  0  0  0  0  0  0
   -2.1726   -2.1708    1.5183 H   0  0  0  0  0  0  0  0  0  0  0  0
   -0.6270   -1.5766    2.1023 H   0  0  0  0  0  0  0  0  0  0  0  0
   -3.2828   -0.1222    1.8263 H   0  0  0  0  0  0  0  0  0  0  0  0
   -2.1994   -0.1106    3.1947 H   0  0  0  0  0  0  0  0  0  0  0  0
   -2.3986    2.0532    1.6316 H   0  0  0  0  0  0  0  0  0  0  0  0
   -0.8052    1.6004    2.2186 H   0  0  0  0  0  0  0  0  0  0  0  0
  2  1  1  6  0  0  0
  2  7  1  0  0  0  0
  3 11  1  0  0  0  0
  3  4  1  0  0  0  0
  3  2  1  0  0  0  0
  4 13  1  6  0  0  0
  4  8  1  0  0  0  0
  4  5  1  0  0  0  0
  5 14  1  0  0  0  0
  5  6  1  0  0  0  0
  5 15  1  0  0  0  0
  6 17  1  0  0  0  0
  7 18  1  0  0  0  0
  7  6  1  0  0  0  0
  7 19  1  0  0  0  0
  8  2  1  0  0  0  0
  9  8  2  0  0  0  0
 10  1  1  0  0  0  0
 12  3  1  0  0  0  0
 16  6  1  0  0  0  0
M TOR 0 0 1 2 3
M TOR 1 0 1 2 10
M TOR 2 0 1 2 11
M TOR 3 0 1 6 5
M TOR 4 0 1 6 17
M TOR 5 0 1 6 18
M TOR 6 0 1 7 3
M TOR 7 0 1 7 8
M TOR 8 1 2 3 4
M TOR 9 1 2 3 7
M TOR 10 1 2 3 12
M TOR 11 1 6 5 4
M TOR 12 1 6 5 15
M TOR 13 1 6 5 16
M TOR 14 1 7 3 4
M TOR 15 1 7 3 12
M TOR 16 2 1 0 9
M TOR 17 2 1 6 5
M TOR 18 2 1 6 17
M TOR 19 2 1 6 18
M TOR 20 2 1 7 8
M TOR 21 2 3 4 5
M TOR 22 2 3 4 13
M TOR 23 2 3 4 14
M TOR 24 2 3 7 8
M TOR 25 3 2 1 6
M TOR 26 3 4 5 6
M TOR 27 3 4 5 15
M TOR 28 3 4 5 16
M TOR 29 3 7 1 6
M TOR 30 4 3 2 10
M TOR 31 4 3 2 11
M TOR 32 4 3 7 8
M TOR 33 4 5 6 17
M TOR 34 4 5 6 18
M TOR 35 5 4 3 7
M TOR 36 5 4 3 12
M TOR 37 5 6 1 7
M TOR 38 6 1 0 9
M TOR 39 6 1 2 10
M TOR 40 6 1 2 11
M TOR 41 6 1 7 8
M TOR 42 6 5 4 13
M TOR 43 6 5 4 14
M TOR 44 7 1 0 9
M TOR 45 7 1 2 10
M TOR 46 7 1 2 11
M TOR 47 7 1 6 17
M TOR 48 7 1 6 18
M TOR 49 7 3 2 10
M TOR 50 7 3 2 11
M TOR 51 7 3 4 13
M TOR 52 7 3 4 14
M TOR 53 8 7 3 12
M  END
$$$$
