
     RDKit          3D

 19 21  0  0  0  0  0  0  0  0999 V2000
    0.4464   -0.4649   -0.7660 C   0  0  0  0  0  0  0  0  0  0  0  0
    0.9289    0.1370    0.5427 C   0  0  0  0  0  0  0  0  0  0  0  0
    1.3643    1.4947    0.3189 O   0  0  0  0  0  0  0  0  0  0  0  0
    2.4024    1.7460    1.2383 C   0  0  0  0  0  0  0  0  0  0  0  0
    3.7083    0.9832    1.1084 C   0  0  0  0  0  0  0  0  0  0  0  0
    2.6493    0.6121    2.1671 C   0  0  0  0  0  0  0  0  0  0  0  0
    2.1452   -0.5121    1.2128 C   0  0  0  0  0  0  0  0  0  0  0  0
    3.4549   -0.3278    0.3675 C   0  0  0  0  0  0  0  0  0  0  0  0
    4.4333   -1.3182    0.6028 O   0  0  0  0  0  0  0  0  0  0  0  0
    0.0559   -1.4733   -0.5960 H   0  0  0  0  0  0  0  0  0  0  0  0
   -0.3579    0.1456   -1.1856 H   0  0  0  0  0  0  0  0  0  0  0  0
    1.2497   -0.5232   -1.5047 H   0  0  0  0  0  0  0  0  0  0  0  0
    0.0934    0.1520    1.2627 H   0  0  0  0  0  0  0  0  0  0  0  0
    2.4461    2.7760    1.5721 H   0  0  0  0  0  0  0  0  0  0  0  0
    4.6753    1.4594    1.2331 H   0  0  0  0  0  0  0  0  0  0  0  0
    2.6580    0.6419    3.2487 H   0  0  0  0  0  0  0  0  0  0  0  0
    1.9868   -1.5185    1.6002 H   0  0  0  0  0  0  0  0  0  0  0  0
    3.3454   -0.2800   -0.7190 H   0  0  0  0  0  0  0  0  0  0  0  0
    4.6217   -1.3238    1.5487 H   0  0  0  0  0  0  0  0  0  0  0  0
  1  2  1  0
  2  3  1  0
  3  4  1  0
  4  5  1  0
  5  6  1  0
  6  7  1  0
  7  8  1  0
  8  9  1  0
  7  2  1  0
  6  4  1  0
  8  5  1  0
  1 10  1  0
  1 11  1  0
  1 12  1  0
  2 13  1  0
  4 14  1  0
  5 15  1  0
  6 16  1  0
  7 17  1  0
  8 18  1  0
  9 19  1  0
M  END
$$$$
