
     RDKit          3D

 19 19  0  0  0  0  0  0  0  0999 V2000
    1.4988    1.0531    0.0066 O   0  0  0  0  0  0  0  0  0  0  0  0
    0.2229    0.4418    0.1243 C   0  0  0  0  0  0  0  0  0  0  0  0
   -0.7686    1.2890   -0.6653 C   0  0  0  0  0  0  0  0  0  0  0  0
   -2.1761    0.7345   -0.6085 C   0  0  0  0  0  0  0  0  0  0  0  0
   -2.3017   -0.5632   -1.2392 O   0  0  0  0  0  0  0  0  0  0  0  0
   -3.4673   -0.1494   -1.9729 C   0  0  0  0  0  0  0  0  0  0  0  0
   -3.2476    1.3344   -1.5685 C   0  0  0  0  0  0  0  0  0  0  0  0
   -4.3522    2.0787   -1.0061 C   0  0  0  0  0  0  0  0  0  0  0  0
   -5.2715    2.6840   -0.5220 C   0  0  0  0  0  0  0  0  0  0  0  0
    2.1430    0.4876    0.4421 H   0  0  0  0  0  0  0  0  0  0  0  0
    0.2255   -0.5818   -0.2775 H   0  0  0  0  0  0  0  0  0  0  0  0
   -0.0962    0.3827    1.1782 H   0  0  0  0  0  0  0  0  0  0  0  0
   -0.7703    2.3103   -0.2640 H   0  0  0  0  0  0  0  0  0  0  0  0
   -0.4358    1.3445   -1.7080 H   0  0  0  0  0  0  0  0  0  0  0  0
   -2.5404    0.6927    0.4281 H   0  0  0  0  0  0  0  0  0  0  0  0
   -3.3917   -0.3826   -3.0398 H   0  0  0  0  0  0  0  0  0  0  0  0
   -4.3899   -0.5807   -1.5656 H   0  0  0  0  0  0  0  0  0  0  0  0
   -2.7712    1.9010   -2.3743 H   0  0  0  0  0  0  0  0  0  0  0  0
   -6.0830    3.2235   -0.1000 H   0  0  0  0  0  0  0  0  0  0  0  0
  1  2  1  0
  2  3  1  0
  3  4  1  0
  4  5  1  0
  5  6  1  0
  6  7  1  0
  7  8  1  0
  8  9  3  0
  7  4  1  0
  1 10  1  0
  2 11  1  0
  2 12  1  0
  3 13  1  0
  3 14  1  0
  4 15  1  0
  6 16  1  0
  6 17  1  0
  7 18  1  0
  9 19  1  0
M  END
$$$$
