gdb 805	3.0000381	1.4609082	1.3278834	4.0184	74.33	-0.24982	-0.02153	0.22829	1038.6532	0.158725	-422.585616	-422.577906	-422.576962	-422.617999	29.664
 OpenBabel02181911403D

 19 20  0  0  1  0  0  0  0  0999 V2000
    1.3678   -0.3412   -0.2280 O   0  0  0  0  0  0  0  0  0  0  0  0
    0.2147   -0.0423   -0.0693 C   0  0  0  0  0  0  0  0  0  0  0  0
   -0.3540    1.3454   -0.1641 C   0  0  2  0  0  0  0  0  0  0  0  0
   -0.9742    1.8711    1.1669 C   0  0  0  0  0  0  0  0  0  0  0  0
   -0.8812    3.4089    0.9363 C   0  0  0  0  0  0  0  0  0  0  0  0
   -0.2572    3.4627   -0.4761 C   0  0  2  0  0  0  0  0  0  0  0  0
   -1.3099    3.0643   -1.5346 C   0  0  0  0  0  0  0  0  0  0  0  0
   -1.4030    1.5265   -1.3040 C   0  0  0  0  0  0  0  0  0  0  0  0
    0.6252    2.3304   -0.4714 O   0  0  0  0  0  0  0  0  0  0  0  0
   -0.5589   -0.8095    0.1721 H   0  0  0  0  0  0  0  0  0  0  0  0
   -1.9945    1.5139    1.3235 H   0  0  0  0  0  0  0  0  0  0  0  0
   -0.3692    1.5590    2.0216 H   0  0  0  0  0  0  0  0  0  0  0  0
   -1.8505    3.9111    0.9893 H   0  0  0  0  0  0  0  0  0  0  0  0
   -0.2172    3.8752    1.6672 H   0  0  0  0  0  0  0  0  0  0  0  0
    0.3111    4.3652   -0.7006 H   0  0  0  0  0  0  0  0  0  0  0  0
   -2.2643    3.5785   -1.3955 H   0  0  0  0  0  0  0  0  0  0  0  0
   -0.9472    3.2886   -2.5399 H   0  0  0  0  0  0  0  0  0  0  0  0
   -2.4001    1.1880   -1.0135 H   0  0  0  0  0  0  0  0  0  0  0  0
   -1.1010    0.9709   -2.1951 H   0  0  0  0  0  0  0  0  0  0  0  0
  1  2  2  0  0  0  0
  2 10  1  0  0  0  0
  3  2  1  1  0  0  0
  3  4  1  0  0  0  0
  4 11  1  0  0  0  0
  4 12  1  0  0  0  0
  5 13  1  0  0  0  0
  5  4  1  0  0  0  0
  5 14  1  0  0  0  0
  6 15  1  6  0  0  0
  6  9  1  0  0  0  0
  6  5  1  0  0  0  0
  7 16  1  0  0  0  0
  7  8  1  0  0  0  0
  7  6  1  0  0  0  0
  8 18  1  0  0  0  0
  8  3  1  0  0  0  0
  9  3  1  0  0  0  0
 17  7  1  0  0  0  0
 19  8  1  0  0  0  0
M TOR 0 0 1 2 3
M TOR 1 0 1 2 7
M TOR 2 0 1 2 8
M TOR 3 1 2 3 4
M TOR 4 1 2 3 10
M TOR 5 1 2 3 11
M TOR 6 1 2 7 6
M TOR 7 1 2 7 17
M TOR 8 1 2 7 18
M TOR 9 1 2 8 5
M TOR 10 2 3 4 5
M TOR 11 2 3 4 12
M TOR 12 2 3 4 13
M TOR 13 2 7 6 5
M TOR 14 2 7 6 15
M TOR 15 2 7 6 16
M TOR 16 2 8 5 4
M TOR 17 2 8 5 6
M TOR 18 2 8 5 14
M TOR 19 3 2 1 9
M TOR 20 3 2 7 6
M TOR 21 3 2 7 17
M TOR 22 3 2 7 18
M TOR 23 3 2 8 5
M TOR 24 3 4 5 6
M TOR 25 3 4 5 8
M TOR 26 3 4 5 14
M TOR 27 4 3 2 7
M TOR 28 4 3 2 8
M TOR 29 4 5 6 7
M TOR 30 4 5 6 15
M TOR 31 4 5 6 16
M TOR 32 5 4 3 10
M TOR 33 5 4 3 11
M TOR 34 5 6 7 17
M TOR 35 5 6 7 18
M TOR 36 5 8 2 7
M TOR 37 6 5 4 12
M TOR 38 6 5 4 13
M TOR 39 6 7 2 8
M TOR 40 7 2 1 9
M TOR 41 7 2 3 10
M TOR 42 7 2 3 11
M TOR 43 7 6 5 8
M TOR 44 7 6 5 14
M TOR 45 8 2 1 9
M TOR 46 8 2 3 10
M TOR 47 8 2 3 11
M TOR 48 8 2 7 17
M TOR 49 8 2 7 18
M TOR 50 8 5 4 12
M TOR 51 8 5 4 13
M TOR 52 8 5 6 15
M TOR 53 8 5 6 16
M  END
$$$$
