
     RDKit          3D

 19 20  0  0  0  0  0  0  0  0999 V2000
    1.9734   -0.9890   -0.7699 C   0  0  0  0  0  0  0  0  0  0  0  0
    1.3359    0.0074    0.1952 C   0  0  0  0  0  0  0  0  0  0  0  0
    1.7617   -0.1429    1.6936 C   0  0  0  0  0  0  0  0  0  0  0  0
    2.6019    1.1587    1.6051 C   0  0  0  0  0  0  0  0  0  0  0  0
    4.1021    0.9710    1.5583 C   0  0  0  0  0  0  0  0  0  0  0  0
    4.6653   -0.0913    1.6386 O   0  0  0  0  0  0  0  0  0  0  0  0
    1.9893    1.3979    0.2035 C   0  0  0  0  0  0  0  0  0  0  0  0
    1.5380    2.6522   -0.3976 C   0  0  0  0  0  0  0  0  0  0  0  0
    2.6987    1.9615   -0.8860 O   0  0  0  0  0  0  0  0  0  0  0  0
    1.5369   -1.9836   -0.6340 H   0  0  0  0  0  0  0  0  0  0  0  0
    1.8176   -0.6833   -1.8088 H   0  0  0  0  0  0  0  0  0  0  0  0
    3.0512   -1.0675   -0.5999 H   0  0  0  0  0  0  0  0  0  0  0  0
    0.2528    0.0407    0.0410 H   0  0  0  0  0  0  0  0  0  0  0  0
    0.9328   -0.0746    2.3996 H   0  0  0  0  0  0  0  0  0  0  0  0
    2.3605   -1.0281    1.9141 H   0  0  0  0  0  0  0  0  0  0  0  0
    2.3787    1.9501    2.3293 H   0  0  0  0  0  0  0  0  0  0  0  0
    4.6764    1.9130    1.4227 H   0  0  0  0  0  0  0  0  0  0  0  0
    0.6802    2.6495   -1.0693 H   0  0  0  0  0  0  0  0  0  0  0  0
    1.7350    3.6004    0.1019 H   0  0  0  0  0  0  0  0  0  0  0  0
  1  2  1  0
  2  3  1  0
  3  4  1  0
  4  5  1  0
  5  6  2  0
  4  7  1  0
  7  8  1  0
  8  9  1  0
  7  2  1  0
  9  7  1  0
  1 10  1  0
  1 11  1  0
  1 12  1  0
  2 13  1  0
  3 14  1  0
  3 15  1  0
  4 16  1  0
  5 17  1  0
  8 18  1  0
  8 19  1  0
M  END
$$$$
