
     RDKit          3D

 19 20  0  0  0  0  0  0  0  0999 V2000
    1.6410    0.6953   -0.2787 O   0  0  0  0  0  0  0  0  0  0  0  0
    0.6785    0.0613    0.5472 C   0  0  0  0  0  0  0  0  0  0  0  0
   -0.3485    1.0460    1.1262 C   0  0  0  0  0  0  0  0  0  0  0  0
   -1.3828    0.3843    2.0233 C   0  0  0  0  0  0  0  0  0  0  0  0
   -2.6324    0.6929    1.6712 C   0  0  0  0  0  0  0  0  0  0  0  0
   -2.6654    1.5791    0.4663 C   0  0  0  0  0  0  0  0  0  0  0  0
   -3.6521    2.5547    0.3441 O   0  0  0  0  0  0  0  0  0  0  0  0
   -2.1427    0.9613   -0.7962 C   0  0  0  0  0  0  0  0  0  0  0  0
   -1.2016    1.7680    0.0824 C   0  0  0  0  0  0  0  0  0  0  0  0
    2.1395    1.3108    0.2685 H   0  0  0  0  0  0  0  0  0  0  0  0
    0.1764   -0.6723   -0.0913 H   0  0  0  0  0  0  0  0  0  0  0  0
    1.1593   -0.4950    1.3683 H   0  0  0  0  0  0  0  0  0  0  0  0
    0.2227    1.7857    1.7126 H   0  0  0  0  0  0  0  0  0  0  0  0
   -1.1047   -0.2930    2.8238 H   0  0  0  0  0  0  0  0  0  0  0  0
   -3.5396    0.3439    2.1522 H   0  0  0  0  0  0  0  0  0  0  0  0
   -3.5537    3.1680    1.0813 H   0  0  0  0  0  0  0  0  0  0  0  0
   -2.0565   -0.1186   -0.8538 H   0  0  0  0  0  0  0  0  0  0  0  0
   -2.4372    1.4491   -1.7194 H   0  0  0  0  0  0  0  0  0  0  0  0
   -0.8610    2.7137   -0.3199 H   0  0  0  0  0  0  0  0  0  0  0  0
  1  2  1  0
  2  3  1  0
  3  4  1  0
  4  5  2  0
  5  6  1  0
  6  7  1  0
  6  8  1  0
  8  9  1  0
  9  3  1  0
  9  6  1  0
  1 10  1  0
  2 11  1  0
  2 12  1  0
  3 13  1  0
  4 14  1  0
  5 15  1  0
  7 16  1  0
  8 17  1  0
  8 18  1  0
  9 19  1  0
M  END
$$$$
