gdb 1230	4.0452001	0.5974261	0.5722871	3.153	83.65	-0.23828	0.03372	0.272	1971.5364	0.154132	-422.509225	-422.498739	-422.497795	-422.546222	37.098
 OpenBabel02181911403D

 19 19  0  0  1  0  0  0  0  0999 V2000
   -6.0186    2.0472   -2.3689 C   0  0  0  0  0  0  0  0  0  0  0  0
   -5.8135    2.7891   -1.0394 C   0  0  2  0  0  0  0  0  0  0  0  0
   -5.4938    4.1637   -1.2550 O   0  0  0  0  0  0  0  0  0  0  0  0
   -4.8134    2.1218   -0.2010 C   0  0  0  0  0  0  0  0  0  0  0  0
   -3.9533    1.5893    0.4566 C   0  0  0  0  0  0  0  0  0  0  0  0
   -2.9417    0.9624    1.2538 C   0  0  1  0  0  0  0  0  0  0  0  0
   -2.7571   -0.5575    1.2282 C   0  0  0  0  0  0  0  0  0  0  0  0
   -1.7240    0.3380    0.6122 C   0  0  2  0  0  0  0  0  0  0  0  0
   -0.5196    0.5632    1.2784 O   0  0  0  0  0  0  0  0  0  0  0  0
   -6.3622    1.0230   -2.1957 H   0  0  0  0  0  0  0  0  0  0  0  0
   -6.7619    2.5779   -2.9696 H   0  0  0  0  0  0  0  0  0  0  0  0
   -5.0796    2.0021   -2.9299 H   0  0  0  0  0  0  0  0  0  0  0  0
   -6.7706    2.8151   -0.5036 H   0  0  0  0  0  0  0  0  0  0  0  0
   -4.5715    4.2015   -1.5313 H   0  0  0  0  0  0  0  0  0  0  0  0
   -2.7362    1.4260    2.2142 H   0  0  0  0  0  0  0  0  0  0  0  0
   -2.5094   -1.0224    2.1758 H   0  0  0  0  0  0  0  0  0  0  0  0
   -3.4044   -1.1322    0.5765 H   0  0  0  0  0  0  0  0  0  0  0  0
   -1.6751    0.3788   -0.4751 H   0  0  0  0  0  0  0  0  0  0  0  0
    0.0193   -0.2312    1.1968 H   0  0  0  0  0  0  0  0  0  0  0  0
  1 10  1  0  0  0  0
  1  2  1  0  0  0  0
  2 13  1  1  0  0  0
  2  4  1  0  0  0  0
  3  2  1  0  0  0  0
  4  5  3  0  0  0  0
  5  6  1  0  0  0  0
  6 15  1  1  0  0  0
  7  6  1  0  0  0  0
  7 16  1  0  0  0  0
  8 18  1  6  0  0  0
  8  7  1  0  0  0  0
  8  6  1  0  0  0  0
  8  9  1  0  0  0  0
 11  1  1  0  0  0  0
 12  1  1  0  0  0  0
 14  3  1  0  0  0  0
 17  7  1  0  0  0  0
 19  9  1  0  0  0  0
M TOR 0 0 1 2 13
M TOR 1 0 1 3 4
M TOR 2 1 3 4 5
M TOR 3 2 1 0 9
M TOR 4 2 1 0 10
M TOR 5 2 1 0 11
M TOR 6 2 1 3 4
M TOR 7 3 1 0 9
M TOR 8 3 1 0 10
M TOR 9 3 1 0 11
M TOR 10 3 1 2 13
M TOR 11 3 4 5 6
M TOR 12 3 4 5 7
M TOR 13 3 4 5 14
M TOR 14 4 3 1 12
M TOR 15 4 5 6 7
M TOR 16 4 5 6 15
M TOR 17 4 5 6 16
M TOR 18 4 5 7 8
M TOR 19 4 5 7 17
M TOR 20 5 6 7 8
M TOR 21 5 6 7 17
M TOR 22 5 7 6 15
M TOR 23 5 7 6 16
M TOR 24 5 7 8 18
M TOR 25 6 7 5 14
M TOR 26 6 7 8 18
M TOR 27 8 7 5 14
M TOR 28 8 7 6 15
M TOR 29 8 7 6 16
M  END
$$$$
