gdb 79	3.0275623	1.2341043	1.0262171	0.4794	77.67	-0.24564	0.03176	0.2774	1200.0186	0.157093	-422.509138	-422.500534	-422.49959	-422.542395	32.644
 OpenBabel02181911403D

 19 19  0  0  1  0  0  0  0  0999 V2000
    0.2150    0.3963    0.8242 C   0  0  0  0  0  0  0  0  0  0  0  0
    1.2602    0.0900    0.3150 C   0  0  0  0  0  0  0  0  0  0  0  0
    2.5470   -0.2585   -0.2997 C   0  0  1  0  0  0  0  0  0  0  0  0
    3.1663    0.9737   -1.0125 C   0  0  0  0  0  0  0  0  0  0  0  0
    4.6929    0.9219   -1.1487 C   0  0  0  0  0  0  0  0  0  0  0  0
    5.3541    1.3594    0.0275 O   0  0  0  0  0  0  0  0  0  0  0  0
    5.4161    0.4121    1.0730 C   0  0  0  0  0  0  0  0  0  0  0  0
    4.0560   -0.0600    1.5826 C   0  0  0  0  0  0  0  0  0  0  0  0
    3.4188   -0.8982    0.6266 O   0  0  0  0  0  0  0  0  0  0  0  0
   -0.7136    0.6522    1.2720 H   0  0  0  0  0  0  0  0  0  0  0  0
    2.3708   -1.0382   -1.0500 H   0  0  0  0  0  0  0  0  0  0  0  0
    2.7039    1.0549   -2.0027 H   0  0  0  0  0  0  0  0  0  0  0  0
    2.9147    1.8903   -0.4714 H   0  0  0  0  0  0  0  0  0  0  0  0
    5.0320   -0.0847   -1.4371 H   0  0  0  0  0  0  0  0  0  0  0  0
    5.0042    1.6207   -1.9314 H   0  0  0  0  0  0  0  0  0  0  0  0
    5.9878   -0.4760    0.7570 H   0  0  0  0  0  0  0  0  0  0  0  0
    5.9638    0.9006    1.8868 H   0  0  0  0  0  0  0  0  0  0  0  0
    4.2069   -0.6721    2.4796 H   0  0  0  0  0  0  0  0  0  0  0  0
    3.4190    0.7900    1.8594 H   0  0  0  0  0  0  0  0  0  0  0  0
  1 10  1  0  0  0  0
  2  1  3  0  0  0  0
  3 11  1  6  0  0  0
  3  2  1  0  0  0  0
  3  9  1  0  0  0  0
  4 13  1  0  0  0  0
  4  3  1  0  0  0  0
  5  4  1  0  0  0  0
  5  6  1  0  0  0  0
  6  7  1  0  0  0  0
  7  8  1  0  0  0  0
  7 17  1  0  0  0  0
  8 19  1  0  0  0  0
  8 18  1  0  0  0  0
  9  8  1  0  0  0  0
 12  4  1  0  0  0  0
 14  5  1  0  0  0  0
 15  5  1  0  0  0  0
 16  7  1  0  0  0  0
M TOR 0 0 1 2 3
M TOR 1 0 1 2 8
M TOR 2 0 1 2 10
M TOR 3 1 2 3 4
M TOR 4 1 2 3 11
M TOR 5 1 2 3 12
M TOR 6 1 2 8 7
M TOR 7 2 1 0 9
M TOR 8 2 3 4 5
M TOR 9 2 3 4 13
M TOR 10 2 3 4 14
M TOR 11 2 8 7 6
M TOR 12 2 8 7 17
M TOR 13 2 8 7 18
M TOR 14 3 2 8 7
M TOR 15 3 4 5 6
M TOR 16 4 3 2 8
M TOR 17 4 3 2 10
M TOR 18 4 5 6 7
M TOR 19 4 5 6 15
M TOR 20 4 5 6 16
M TOR 21 5 4 3 11
M TOR 22 5 4 3 12
M TOR 23 5 6 7 8
M TOR 24 5 6 7 17
M TOR 25 5 6 7 18
M TOR 26 6 5 4 13
M TOR 27 6 5 4 14
M TOR 28 7 8 2 10
M TOR 29 8 2 3 11
M TOR 30 8 2 3 12
M TOR 31 8 7 6 15
M TOR 32 8 7 6 16
M  END
$$$$
