
     RDKit          3D

 19 21  0  0  0  0  0  0  0  0999 V2000
    0.5052    0.7472    0.4134 O   0  0  0  0  0  0  0  0  0  0  0  0
   -0.6346    0.0447    0.8983 C   0  0  0  0  0  0  0  0  0  0  0  0
   -1.7593    0.0774   -0.1601 C   0  0  0  0  0  0  0  0  0  0  0  0
   -2.7711    1.0965    0.3886 C   0  0  0  0  0  0  0  0  0  0  0  0
   -2.0961    2.4958    0.5939 C   0  0  0  0  0  0  0  0  0  0  0  0
   -1.8132    2.0953    2.0383 C   0  0  0  0  0  0  0  0  0  0  0  0
   -2.7548    0.8973    1.9332 C   0  0  0  0  0  0  0  0  0  0  0  0
   -1.2765    0.6816    2.1302 C   0  0  0  0  0  0  0  0  0  0  0  0
   -0.7470    0.3794    3.3873 O   0  0  0  0  0  0  0  0  0  0  0  0
    1.0731    0.9262    1.1709 H   0  0  0  0  0  0  0  0  0  0  0  0
   -0.3486   -0.9921    1.1424 H   0  0  0  0  0  0  0  0  0  0  0  0
   -1.3592    0.3491   -1.1408 H   0  0  0  0  0  0  0  0  0  0  0  0
   -2.2247   -0.9106   -0.2428 H   0  0  0  0  0  0  0  0  0  0  0  0
   -3.7332    1.0989   -0.1230 H   0  0  0  0  0  0  0  0  0  0  0  0
   -1.2430    2.7326   -0.0476 H   0  0  0  0  0  0  0  0  0  0  0  0
   -2.8307    3.3041    0.5473 H   0  0  0  0  0  0  0  0  0  0  0  0
   -1.6642    2.7518    2.8875 H   0  0  0  0  0  0  0  0  0  0  0  0
   -3.5375    0.5544    2.5974 H   0  0  0  0  0  0  0  0  0  0  0  0
   -0.9432   -0.5444    3.5805 H   0  0  0  0  0  0  0  0  0  0  0  0
  1  2  1  0
  2  3  1  0
  3  4  1  0
  4  5  1  0
  5  6  1  0
  6  7  1  0
  7  8  1  0
  8  9  1  0
  8  2  1  0
  7  4  1  0
  8  6  1  0
  1 10  1  0
  2 11  1  0
  3 12  1  0
  3 13  1  0
  4 14  1  0
  5 15  1  0
  5 16  1  0
  6 17  1  0
  7 18  1  0
  9 19  1  0
M  END
$$$$
