gdb 609	3.2746505	1.522992	1.0990132	0.6912	76.49	-0.2386	0.01271	0.25131000000000003	1096.2135	0.159538	-422.555096	-422.54765	-422.546706	-422.587053	29.002
 OpenBabel02181911403D

 19 20  0  0  1  0  0  0  0  0999 V2000
   -0.3011    0.3476   -1.3121 C   0  0  0  0  0  0  0  0  0  0  0  0
   -0.0894    0.0638    0.2083 C   0  0  0  0  0  0  0  0  0  0  0  0
    0.7605    1.2647    0.6012 C   0  0  1  0  0  0  0  0  0  0  0  0
    1.6063    1.1309    1.7168 O   0  0  0  0  0  0  0  0  0  0  0  0
    2.3254    2.3447    1.9361 C   0  0  0  0  0  0  0  0  0  0  0  0
    2.7156    3.1048    0.6864 C   0  0  0  0  0  0  0  0  0  0  0  0
    2.3561    2.7402   -0.5455 C   0  0  0  0  0  0  0  0  0  0  0  0
    1.5731    1.4726   -0.6726 C   0  0  2  0  0  0  0  0  0  0  0  0
    0.5900    1.4185   -1.6901 O   0  0  0  0  0  0  0  0  0  0  0  0
   -0.0883   -0.5444   -1.9152 H   0  0  0  0  0  0  0  0  0  0  0  0
   -1.3197    0.6761   -1.5383 H   0  0  0  0  0  0  0  0  0  0  0  0
   -1.0313   -0.0101    0.7552 H   0  0  0  0  0  0  0  0  0  0  0  0
    0.4748   -0.8597    0.3689 H   0  0  0  0  0  0  0  0  0  0  0  0
    0.1104    2.1469    0.7212 H   0  0  0  0  0  0  0  0  0  0  0  0
    1.7335    3.0165    2.5837 H   0  0  0  0  0  0  0  0  0  0  0  0
    3.2208    2.0693    2.5063 H   0  0  0  0  0  0  0  0  0  0  0  0
    3.3093    3.9990    0.8595 H   0  0  0  0  0  0  0  0  0  0  0  0
    2.6478    3.2980   -1.4296 H   0  0  0  0  0  0  0  0  0  0  0  0
    2.2720    0.6216   -0.7817 H   0  0  0  0  0  0  0  0  0  0  0  0
  1  2  1  0  0  0  0
  2 13  1  0  0  0  0
  2  3  1  0  0  0  0
  2 12  1  0  0  0  0
  3 14  1  1  0  0  0
  3  4  1  0  0  0  0
  4  5  1  0  0  0  0
  5 16  1  0  0  0  0
  5 15  1  0  0  0  0
  6 17  1  0  0  0  0
  6  5  1  0  0  0  0
  7  6  2  0  0  0  0
  8 19  1  6  0  0  0
  8  7  1  0  0  0  0
  8  3  1  0  0  0  0
  9  1  1  0  0  0  0
  9  8  1  0  0  0  0
 10  1  1  0  0  0  0
 11  1  1  0  0  0  0
 18  7  1  0  0  0  0
M TOR 0 0 1 2 3
M TOR 1 0 1 2 7
M TOR 2 0 1 2 13
M TOR 3 0 8 7 2
M TOR 4 0 8 7 6
M TOR 5 0 8 7 18
M TOR 6 1 0 8 7
M TOR 7 1 2 3 4
M TOR 8 1 2 7 6
M TOR 9 1 2 7 8
M TOR 10 1 2 7 18
M TOR 11 2 1 0 8
M TOR 12 2 1 0 9
M TOR 13 2 1 0 10
M TOR 14 2 3 4 5
M TOR 15 2 3 4 14
M TOR 16 2 3 4 15
M TOR 17 2 7 6 5
M TOR 18 2 7 6 17
M TOR 19 3 2 1 11
M TOR 20 3 2 1 12
M TOR 21 3 2 7 6
M TOR 22 3 2 7 8
M TOR 23 3 2 7 18
M TOR 24 3 4 5 6
M TOR 25 3 4 5 16
M TOR 26 4 3 2 7
M TOR 27 4 3 2 13
M TOR 28 4 5 6 7
M TOR 29 4 5 6 17
M TOR 30 5 6 7 8
M TOR 31 5 6 7 18
M TOR 32 6 5 4 14
M TOR 33 6 5 4 15
M TOR 34 6 7 2 13
M TOR 35 7 2 1 11
M TOR 36 7 2 1 12
M TOR 37 7 6 5 16
M TOR 38 7 8 0 9
M TOR 39 7 8 0 10
M TOR 40 8 0 1 11
M TOR 41 8 0 1 12
M TOR 42 8 7 2 13
M TOR 43 8 7 6 17
M  END
$$$$
