
     RDKit          3D

 19 20  0  0  0  0  0  0  0  0999 V2000
   -1.1646    2.1875    1.1297 C   0  0  0  0  0  0  0  0  0  0  0  0
   -1.1421    1.0538    0.1300 C   0  0  0  0  0  0  0  0  0  0  0  0
   -1.6070    1.3570   -1.3412 C   0  0  0  0  0  0  0  0  0  0  0  0
   -2.6962    0.2669   -1.2333 C   0  0  0  0  0  0  0  0  0  0  0  0
   -2.7042   -0.6161   -2.3326 O   0  0  0  0  0  0  0  0  0  0  0  0
   -2.0928   -0.2213    0.1090 C   0  0  0  0  0  0  0  0  0  0  0  0
   -0.8551   -1.1470   -0.0545 C   0  0  0  0  0  0  0  0  0  0  0  0
    0.0463    0.0885    0.1323 C   0  0  0  0  0  0  0  0  0  0  0  0
    1.2176    0.2356    0.3355 O   0  0  0  0  0  0  0  0  0  0  0  0
   -1.0011    1.8256    2.1500 H   0  0  0  0  0  0  0  0  0  0  0  0
   -0.3699    2.9068    0.9037 H   0  0  0  0  0  0  0  0  0  0  0  0
   -2.1200    2.7225    1.1065 H   0  0  0  0  0  0  0  0  0  0  0  0
   -1.9738    2.3743   -1.4933 H   0  0  0  0  0  0  0  0  0  0  0  0
   -0.8612    1.1382   -2.1090 H   0  0  0  0  0  0  0  0  0  0  0  0
   -3.6903    0.7078   -1.0764 H   0  0  0  0  0  0  0  0  0  0  0  0
   -3.4107   -1.2578   -2.2042 H   0  0  0  0  0  0  0  0  0  0  0  0
   -2.7706   -0.4627    0.9284 H   0  0  0  0  0  0  0  0  0  0  0  0
   -0.7179   -1.8980    0.7283 H   0  0  0  0  0  0  0  0  0  0  0  0
   -0.7780   -1.6349   -1.0304 H   0  0  0  0  0  0  0  0  0  0  0  0
  1  2  1  0
  2  3  1  0
  3  4  1  0
  4  5  1  0
  4  6  1  0
  6  7  1  0
  7  8  1  0
  8  9  2  0
  6  2  1  0
  8  2  1  0
  1 10  1  0
  1 11  1  0
  1 12  1  0
  3 13  1  0
  3 14  1  0
  4 15  1  0
  5 16  1  0
  6 17  1  0
  7 18  1  0
  7 19  1  0
M  END
$$$$
