
     RDKit          3D

 19 20  0  0  0  0  0  0  0  0999 V2000
    1.8258    1.3215    0.2674 C   0  0  0  0  0  0  0  0  0  0  0  0
    1.3175   -0.0844   -0.0408 C   0  0  0  0  0  0  0  0  0  0  0  0
    1.6074   -1.1417    1.0790 C   0  0  0  0  0  0  0  0  0  0  0  0
    2.4827   -2.0924    0.2408 C   0  0  0  0  0  0  0  0  0  0  0  0
    3.3579   -1.1653   -0.4739 O   0  0  0  0  0  0  0  0  0  0  0  0
    2.1235   -0.7890   -1.1596 C   0  0  0  0  0  0  0  0  0  0  0  0
    1.6621   -2.2733   -1.0721 C   0  0  0  0  0  0  0  0  0  0  0  0
    2.3115   -3.1773   -2.0803 C   0  0  0  0  0  0  0  0  0  0  0  0
    1.7136   -4.0154   -2.7095 O   0  0  0  0  0  0  0  0  0  0  0  0
    1.3339    1.7314    1.1552 H   0  0  0  0  0  0  0  0  0  0  0  0
    2.9036    1.3012    0.4541 H   0  0  0  0  0  0  0  0  0  0  0  0
    1.6339    2.0060   -0.5661 H   0  0  0  0  0  0  0  0  0  0  0  0
    0.2534   -0.0534   -0.2960 H   0  0  0  0  0  0  0  0  0  0  0  0
    2.1755   -0.7194    1.9116 H   0  0  0  0  0  0  0  0  0  0  0  0
    0.7098   -1.6236    1.4740 H   0  0  0  0  0  0  0  0  0  0  0  0
    3.0078   -2.9136    0.7290 H   0  0  0  0  0  0  0  0  0  0  0  0
    2.2806   -0.2705   -2.1063 H   0  0  0  0  0  0  0  0  0  0  0  0
    0.5933   -2.4868   -0.9977 H   0  0  0  0  0  0  0  0  0  0  0  0
    3.4023   -3.0186   -2.2107 H   0  0  0  0  0  0  0  0  0  0  0  0
  1  2  1  0
  2  3  1  0
  3  4  1  0
  4  5  1  0
  5  6  1  0
  6  7  1  0
  7  8  1  0
  8  9  2  0
  6  2  1  0
  7  4  1  0
  1 10  1  0
  1 11  1  0
  1 12  1  0
  2 13  1  0
  3 14  1  0
  3 15  1  0
  4 16  1  0
  6 17  1  0
  7 18  1  0
  8 19  1  0
M  END
$$$$
