
     RDKit          3D

 19 20  0  0  0  0  0  0  0  0999 V2000
    4.1987    0.9106   -1.3889 C   0  0  0  0  0  0  0  0  0  0  0  0
    3.2454    1.7752   -0.5944 C   0  0  0  0  0  0  0  0  0  0  0  0
    3.4739    2.9553   -0.3959 O   0  0  0  0  0  0  0  0  0  0  0  0
    1.9956    1.1159   -0.0579 C   0  0  0  0  0  0  0  0  0  0  0  0
    0.6986    1.8464   -0.4717 C   0  0  0  0  0  0  0  0  0  0  0  0
   -0.4800    1.2391    0.2325 C   0  0  0  0  0  0  0  0  0  0  0  0
    0.3890    2.2171    0.9726 C   0  0  0  0  0  0  0  0  0  0  0  0
    1.6686    1.5198    1.4590 C   0  0  0  0  0  0  0  0  0  0  0  0
    2.6028    2.3281    2.1008 O   0  0  0  0  0  0  0  0  0  0  0  0
    4.5607    0.0884   -0.7601 H   0  0  0  0  0  0  0  0  0  0  0  0
    3.6790    0.4507   -2.2374 H   0  0  0  0  0  0  0  0  0  0  0  0
    5.0420    1.5039   -1.7437 H   0  0  0  0  0  0  0  0  0  0  0  0
    2.0051    0.0419   -0.2698 H   0  0  0  0  0  0  0  0  0  0  0  0
    0.5977    2.4432   -1.3699 H   0  0  0  0  0  0  0  0  0  0  0  0
   -1.4497    1.6167   -0.0754 H   0  0  0  0  0  0  0  0  0  0  0  0
   -0.4789    0.1846    0.5021 H   0  0  0  0  0  0  0  0  0  0  0  0
    0.0120    3.1448    1.3852 H   0  0  0  0  0  0  0  0  0  0  0  0
    1.5048    0.6547    2.1109 H   0  0  0  0  0  0  0  0  0  0  0  0
    2.8878    3.0000    1.4605 H   0  0  0  0  0  0  0  0  0  0  0  0
  1  2  1  0
  2  3  2  0
  2  4  1  0
  4  5  1  0
  5  6  1  0
  6  7  1  0
  7  8  1  0
  8  9  1  0
  8  4  1  0
  7  5  1  0
  1 10  1  0
  1 11  1  0
  1 12  1  0
  4 13  1  0
  5 14  1  0
  6 15  1  0
  6 16  1  0
  7 17  1  0
  8 18  1  0
  9 19  1  0
M  END
$$$$
