
     RDKit          3D

 19 21  0  0  0  0  0  0  0  0999 V2000
    0.3062    0.6563    0.0820 C   0  0  0  0  0  0  0  0  0  0  0  0
    1.0365   -0.6146   -0.3209 C   0  0  0  0  0  0  0  0  0  0  0  0
    0.1405   -1.7231   -0.9056 C   0  0  0  0  0  0  0  0  0  0  0  0
    0.3708   -1.7010   -2.3132 O   0  0  0  0  0  0  0  0  0  0  0  0
    1.7563   -1.4302   -2.5271 C   0  0  0  0  0  0  0  0  0  0  0  0
    2.1527   -0.4454   -1.4193 C   0  0  0  0  0  0  0  0  0  0  0  0
    3.1943   -0.8709   -0.3621 C   0  0  0  0  0  0  0  0  0  0  0  0
    2.8282   -2.1773    0.1000 O   0  0  0  0  0  0  0  0  0  0  0  0
    2.1569   -1.0461    0.6636 C   0  0  0  0  0  0  0  0  0  0  0  0
   -0.3719    0.4730    0.9236 H   0  0  0  0  0  0  0  0  0  0  0  0
    1.0067    1.4424    0.3858 H   0  0  0  0  0  0  0  0  0  0  0  0
   -0.2888    1.0386   -0.7538 H   0  0  0  0  0  0  0  0  0  0  0  0
    0.4060   -2.7018   -0.4836 H   0  0  0  0  0  0  0  0  0  0  0  0
   -0.9277   -1.5447   -0.7519 H   0  0  0  0  0  0  0  0  0  0  0  0
    2.3483   -2.3531   -2.4567 H   0  0  0  0  0  0  0  0  0  0  0  0
    1.8529   -1.0215   -3.5363 H   0  0  0  0  0  0  0  0  0  0  0  0
    2.2746    0.5850   -1.7590 H   0  0  0  0  0  0  0  0  0  0  0  0
    4.2380   -0.5918   -0.2765 H   0  0  0  0  0  0  0  0  0  0  0  0
    2.1929   -0.9309    1.7417 H   0  0  0  0  0  0  0  0  0  0  0  0
  1  2  1  0
  2  3  1  0
  3  4  1  0
  4  5  1  0
  5  6  1  0
  6  7  1  0
  7  8  1  0
  8  9  1  0
  6  2  1  0
  9  7  1  0
  9  2  1  0
  1 10  1  0
  1 11  1  0
  1 12  1  0
  3 13  1  0
  3 14  1  0
  5 15  1  0
  5 16  1  0
  6 17  1  0
  7 18  1  0
  9 19  1  0
M  END
$$$$
