gdb 3045	2.3758149	1.9636173	1.6816252	0.8178	74.37	-0.23999	0.05602	0.29601	925.3225	0.158318	-422.476729	-422.46957	-422.468626	-422.507704	29.548
 OpenBabel02181911413D

 19 21  0  0  1  0  0  0  0  0999 V2000
    1.1973   -0.3791    1.0309 C   0  0  0  0  0  0  0  0  0  0  0  0
    1.2349    0.2631   -0.3457 C   0  0  2  0  0  0  0  0  0  0  0  0
    2.1360   -0.3190   -1.4551 C   0  0  1  0  0  0  0  0  0  0  0  0
    1.9660    1.0725   -2.2083 C   0  0  0  0  0  0  0  0  0  0  0  0
    2.1091    1.5077   -0.7268 C   0  0  1  0  0  0  0  0  0  0  0  0
    2.2478    2.6399    0.1488 O   0  0  0  0  0  0  0  0  0  0  0  0
    3.3468    1.9277    0.8314 C   0  0  0  0  0  0  0  0  0  0  0  0
    3.5152    1.0612   -0.4607 C   0  0  1  0  0  0  0  0  0  0  0  0
    3.4513   -0.3260   -0.8060 O   0  0  0  0  0  0  0  0  0  0  0  0
    0.5026   -1.2261    1.0329 H   0  0  0  0  0  0  0  0  0  0  0  0
    2.1796   -0.7511    1.3285 H   0  0  0  0  0  0  0  0  0  0  0  0
    0.8445    0.3328    1.7846 H   0  0  0  0  0  0  0  0  0  0  0  0
    0.2200    0.4268   -0.7205 H   0  0  0  0  0  0  0  0  0  0  0  0
    1.9627   -1.2697   -1.9539 H   0  0  0  0  0  0  0  0  0  0  0  0
    2.7459    1.3895   -2.9020 H   0  0  0  0  0  0  0  0  0  0  0  0
    0.9751    1.1446   -2.6591 H   0  0  0  0  0  0  0  0  0  0  0  0
    4.1717    2.6065    1.0596 H   0  0  0  0  0  0  0  0  0  0  0  0
    2.9971    1.4258    1.7352 H   0  0  0  0  0  0  0  0  0  0  0  0
    4.2643    1.5510   -1.0913 H   0  0  0  0  0  0  0  0  0  0  0  0
  1 10  1  0  0  0  0
  1 11  1  0  0  0  0
  1 12  1  0  0  0  0
  2 13  1  6  0  0  0
  2  1  1  0  0  0  0
  3 14  1  6  0  0  0
  3  9  1  0  0  0  0
  3  2  1  0  0  0  0
  4  3  1  0  0  0  0
  4  5  1  0  0  0  0
  5  8  1  0  0  0  0
  5  2  1  0  0  0  0
  5  6  1  1  0  0  0
  6  7  1  0  0  0  0
  7 17  1  0  0  0  0
  7 18  1  0  0  0  0
  8 19  1  6  0  0  0
  8  7  1  0  0  0  0
  9  8  1  0  0  0  0
 15  4  1  0  0  0  0
 16  4  1  0  0  0  0
M TOR 0 0 1 2 3
M TOR 1 0 1 2 8
M TOR 2 0 1 2 13
M TOR 3 0 1 4 3
M TOR 4 0 1 4 5
M TOR 5 0 1 4 7
M TOR 6 1 2 3 4
M TOR 7 1 2 3 14
M TOR 8 1 2 3 15
M TOR 9 1 2 8 7
M TOR 10 1 4 3 14
M TOR 11 1 4 3 15
M TOR 12 1 4 5 6
M TOR 13 1 4 7 6
M TOR 14 1 4 7 8
M TOR 15 1 4 7 18
M TOR 16 2 1 0 9
M TOR 17 2 1 0 10
M TOR 18 2 1 0 11
M TOR 19 2 1 4 5
M TOR 20 2 1 4 7
M TOR 21 2 3 4 5
M TOR 22 2 3 4 7
M TOR 23 2 8 7 4
M TOR 24 2 8 7 6
M TOR 25 2 8 7 18
M TOR 26 3 2 1 12
M TOR 27 3 2 8 7
M TOR 28 3 4 1 12
M TOR 29 3 4 5 6
M TOR 30 3 4 7 6
M TOR 31 3 4 7 8
M TOR 32 3 4 7 18
M TOR 33 4 1 0 9
M TOR 34 4 1 0 10
M TOR 35 4 1 0 11
M TOR 36 4 1 2 8
M TOR 37 4 1 2 13
M TOR 38 4 3 2 8
M TOR 39 4 3 2 13
M TOR 40 4 5 6 7
M TOR 41 4 5 6 16
M TOR 42 4 5 6 17
M TOR 43 4 7 6 16
M TOR 44 4 7 6 17
M TOR 45 5 4 1 12
M TOR 46 5 4 3 14
M TOR 47 5 4 3 15
M TOR 48 5 4 7 8
M TOR 49 5 4 7 18
M TOR 50 5 6 7 8
M TOR 51 5 6 7 18
M TOR 52 7 4 1 12
M TOR 53 7 4 3 14
M TOR 54 7 4 3 15
M TOR 55 7 8 2 13
M TOR 56 8 2 1 12
M TOR 57 8 2 3 14
M TOR 58 8 2 3 15
M TOR 59 8 7 6 16
M TOR 60 8 7 6 17
M  END
$$$$
