gdb 479	3.4106784	1.4637086	1.3064061	2.0069	74.	-0.24094	0.07221	0.31315	1020.059	0.158692	-422.509439	-422.502139	-422.501195	-422.541352	28.507
 OpenBabel02181911403D

 19 21  0  0  1  0  0  0  0  0999 V2000
   -0.1982    1.2080    0.7246 C   0  0  0  0  0  0  0  0  0  0  0  0
   -0.1150   -0.1898    0.3668 O   0  0  0  0  0  0  0  0  0  0  0  0
    1.1334    0.0055   -0.3269 C   0  0  0  0  0  0  0  0  0  0  0  0
    1.1496    1.4950    0.0566 C   0  0  0  0  0  0  0  0  0  0  0  0
    1.4599    2.6179   -0.9774 C   0  0  2  0  0  0  0  0  0  0  0  0
    2.9634    2.3552   -0.6431 C   0  0  0  0  0  0  0  0  0  0  0  0
    2.3569    2.1487    0.7652 C   0  0  1  0  0  0  0  0  0  0  0  0
    1.8591    3.4493    1.1187 O   0  0  0  0  0  0  0  0  0  0  0  0
    1.1998    3.8531   -0.1072 C   0  0  0  0  0  0  0  0  0  0  0  0
   -1.0706    1.6964    0.2684 H   0  0  0  0  0  0  0  0  0  0  0  0
   -0.2334    1.3598    1.8102 H   0  0  0  0  0  0  0  0  0  0  0  0
    1.9376   -0.6147    0.0909 H   0  0  0  0  0  0  0  0  0  0  0  0
    1.0451   -0.2068   -1.4012 H   0  0  0  0  0  0  0  0  0  0  0  0
    1.0612    2.6098   -1.9915 H   0  0  0  0  0  0  0  0  0  0  0  0
    3.3459    1.4380   -1.0941 H   0  0  0  0  0  0  0  0  0  0  0  0
    3.6728    3.1771   -0.7641 H   0  0  0  0  0  0  0  0  0  0  0  0
    2.8811    1.7087    1.6124 H   0  0  0  0  0  0  0  0  0  0  0  0
    0.1364    4.0400    0.0837 H   0  0  0  0  0  0  0  0  0  0  0  0
    1.6578    4.7688   -0.4981 H   0  0  0  0  0  0  0  0  0  0  0  0
  1 11  1  0  0  0  0
  2  1  1  0  0  0  0
  3  4  1  0  0  0  0
  3 12  1  0  0  0  0
  3  2  1  0  0  0  0
  4  1  1  0  0  0  0
  4  7  1  0  0  0  0
  5 14  1  6  0  0  0
  5  6  1  0  0  0  0
  5  9  1  0  0  0  0
  5  4  1  0  0  0  0
  6  7  1  0  0  0  0
  7  8  1  0  0  0  0
  7 17  1  1  0  0  0
  9 18  1  0  0  0  0
  9  8  1  0  0  0  0
 10  1  1  0  0  0  0
 13  3  1  0  0  0  0
 15  6  1  0  0  0  0
 16  6  1  0  0  0  0
 19  9  1  0  0  0  0
M TOR 0 0 1 2 3
M TOR 1 0 1 2 11
M TOR 2 0 1 2 12
M TOR 3 0 3 2 11
M TOR 4 0 3 2 12
M TOR 5 0 3 4 5
M TOR 6 0 3 4 8
M TOR 7 0 3 4 13
M TOR 8 0 3 6 5
M TOR 9 0 3 6 7
M TOR 10 0 3 6 16
M TOR 11 1 0 3 4
M TOR 12 1 0 3 6
M TOR 13 1 2 3 4
M TOR 14 1 2 3 6
M TOR 15 2 1 0 9
M TOR 16 2 1 0 10
M TOR 17 2 3 0 9
M TOR 18 2 3 0 10
M TOR 19 2 3 4 5
M TOR 20 2 3 4 8
M TOR 21 2 3 4 13
M TOR 22 2 3 6 5
M TOR 23 2 3 6 7
M TOR 24 2 3 6 16
M TOR 25 3 4 5 6
M TOR 26 3 4 5 14
M TOR 27 3 4 5 15
M TOR 28 3 4 8 7
M TOR 29 3 4 8 17
M TOR 30 3 4 8 18
M TOR 31 3 6 5 14
M TOR 32 3 6 5 15
M TOR 33 3 6 7 8
M TOR 34 4 3 0 9
M TOR 35 4 3 0 10
M TOR 36 4 3 2 11
M TOR 37 4 3 2 12
M TOR 38 4 3 6 7
M TOR 39 4 3 6 16
M TOR 40 4 5 6 7
M TOR 41 4 5 6 16
M TOR 42 4 8 7 6
M TOR 43 5 4 8 7
M TOR 44 5 4 8 17
M TOR 45 5 4 8 18
M TOR 46 5 6 7 8
M TOR 47 6 3 0 9
M TOR 48 6 3 0 10
M TOR 49 6 3 2 11
M TOR 50 6 3 2 12
M TOR 51 6 3 4 8
M TOR 52 6 3 4 13
M TOR 53 6 5 4 8
M TOR 54 6 5 4 13
M TOR 55 6 7 8 17
M TOR 56 6 7 8 18
M TOR 57 7 6 5 14
M TOR 58 7 6 5 15
M TOR 59 7 8 4 13
M TOR 60 8 4 5 14
M TOR 61 8 4 5 15
M TOR 62 8 7 6 16
M  END
$$$$
