
     RDKit          3D

 19 19  0  0  0  0  0  0  0  0999 V2000
    1.5471   -0.0797   -0.0421 C   0  0  0  0  0  0  0  0  0  0  0  0
    0.1469    0.1169   -0.0525 O   0  0  0  0  0  0  0  0  0  0  0  0
   -0.3611    0.7312    1.1206 C   0  0  0  0  0  0  0  0  0  0  0  0
    0.1285    2.1068    1.2923 C   0  0  0  0  0  0  0  0  0  0  0  0
    0.5332    3.2308    1.4257 C   0  0  0  0  0  0  0  0  0  0  0  0
   -1.8867    0.6796    1.0154 C   0  0  0  0  0  0  0  0  0  0  0  0
   -2.5046    1.4389   -0.1324 C   0  0  0  0  0  0  0  0  0  0  0  0
   -2.5630   -0.4772    1.6144 C   0  0  0  0  0  0  0  0  0  0  0  0
   -2.5405    0.7901    2.2816 O   0  0  0  0  0  0  0  0  0  0  0  0
    1.8563   -0.7175    0.8002 H   0  0  0  0  0  0  0  0  0  0  0  0
    1.8021   -0.5797   -0.9789 H   0  0  0  0  0  0  0  0  0  0  0  0
    2.0916    0.8715    0.0207 H   0  0  0  0  0  0  0  0  0  0  0  0
   -0.0697    0.1496    2.0103 H   0  0  0  0  0  0  0  0  0  0  0  0
    0.8863    4.2246    1.5523 H   0  0  0  0  0  0  0  0  0  0  0  0
   -2.1075    1.0694   -1.0816 H   0  0  0  0  0  0  0  0  0  0  0  0
   -3.5904    1.3204   -0.1256 H   0  0  0  0  0  0  0  0  0  0  0  0
   -2.2691    2.5044   -0.0548 H   0  0  0  0  0  0  0  0  0  0  0  0
   -3.5338   -0.7850    1.2293 H   0  0  0  0  0  0  0  0  0  0  0  0
   -1.9804   -1.2667    2.0876 H   0  0  0  0  0  0  0  0  0  0  0  0
  1  2  1  0
  2  3  1  0
  3  4  1  0
  4  5  3  0
  3  6  1  0
  6  7  1  0
  6  8  1  0
  8  9  1  0
  9  6  1  0
  1 10  1  0
  1 11  1  0
  1 12  1  0
  3 13  1  0
  5 14  1  0
  7 15  1  0
  7 16  1  0
  7 17  1  0
  8 18  1  0
  8 19  1  0
M  END
$$$$
