
     RDKit          3D

 19 20  0  0  0  0  0  0  0  0999 V2000
   -0.2458    0.8654   -0.8004 C   0  0  0  0  0  0  0  0  0  0  0  0
    0.3386   -0.0754    0.1004 O   0  0  0  0  0  0  0  0  0  0  0  0
    1.7135    0.2771    0.1536 C   0  0  0  0  0  0  0  0  0  0  0  0
    2.4988   -0.0984    1.3902 C   0  0  0  0  0  0  0  0  0  0  0  0
    3.9396    0.4542    1.1867 C   0  0  0  0  0  0  0  0  0  0  0  0
    4.0333    1.7383    0.3824 C   0  0  0  0  0  0  0  0  0  0  0  0
    3.0025    2.3551   -0.2013 C   0  0  0  0  0  0  0  0  0  0  0  0
    1.6378    1.7850    0.0158 C   0  0  0  0  0  0  0  0  0  0  0  0
    0.6875    1.9159   -1.0359 O   0  0  0  0  0  0  0  0  0  0  0  0
   -0.4762    0.4023   -1.7697 H   0  0  0  0  0  0  0  0  0  0  0  0
   -1.1673    1.2435   -0.3347 H   0  0  0  0  0  0  0  0  0  0  0  0
    2.2312   -0.1188   -0.7361 H   0  0  0  0  0  0  0  0  0  0  0  0
    2.0324    0.3503    2.2742 H   0  0  0  0  0  0  0  0  0  0  0  0
    2.5261   -1.1801    1.5492 H   0  0  0  0  0  0  0  0  0  0  0  0
    4.4199    0.6007    2.1620 H   0  0  0  0  0  0  0  0  0  0  0  0
    4.5536   -0.3035    0.6793 H   0  0  0  0  0  0  0  0  0  0  0  0
    5.0338    2.1527    0.2810 H   0  0  0  0  0  0  0  0  0  0  0  0
    3.1225    3.2720   -0.7690 H   0  0  0  0  0  0  0  0  0  0  0  0
    1.2017    2.2039    0.9411 H   0  0  0  0  0  0  0  0  0  0  0  0
  1  2  1  0
  2  3  1  0
  3  4  1  0
  4  5  1  0
  5  6  1  0
  6  7  2  0
  7  8  1  0
  8  9  1  0
  9  1  1  0
  8  3  1  0
  1 10  1  0
  1 11  1  0
  3 12  1  0
  4 13  1  0
  4 14  1  0
  5 15  1  0
  5 16  1  0
  6 17  1  0
  7 18  1  0
  8 19  1  0
M  END
$$$$
