
     RDKit          3D

 19 19  0  0  0  0  0  0  0  0999 V2000
    2.7803   -0.4219    1.3792 C   0  0  0  0  0  0  0  0  0  0  0  0
    1.7164    0.6274    1.7476 C   0  0  0  0  0  0  0  0  0  0  0  0
    1.8019    1.8781    0.9468 C   0  0  0  0  0  0  0  0  0  0  0  0
    0.9861    2.4999    0.0586 C   0  0  0  0  0  0  0  0  0  0  0  0
    1.6433    3.7049   -0.3696 C   0  0  0  0  0  0  0  0  0  0  0  0
    2.8273    3.7168    0.2964 C   0  0  0  0  0  0  0  0  0  0  0  0
    3.8416    4.5879    0.2441 O   0  0  0  0  0  0  0  0  0  0  0  0
    4.8268    4.4997    1.2706 C   0  0  0  0  0  0  0  0  0  0  0  0
    2.9556    2.6311    1.0977 O   0  0  0  0  0  0  0  0  0  0  0  0
    2.6809   -1.3136    2.0059 H   0  0  0  0  0  0  0  0  0  0  0  0
    2.6828   -0.7243    0.3321 H   0  0  0  0  0  0  0  0  0  0  0  0
    3.7874   -0.0189    1.5193 H   0  0  0  0  0  0  0  0  0  0  0  0
    0.7140    0.2118    1.6003 H   0  0  0  0  0  0  0  0  0  0  0  0
    1.8001    0.8627    2.8177 H   0  0  0  0  0  0  0  0  0  0  0  0
    0.0155    2.1478   -0.2564 H   0  0  0  0  0  0  0  0  0  0  0  0
    1.2924    4.4508   -1.0624 H   0  0  0  0  0  0  0  0  0  0  0  0
    4.3772    4.6168    2.2629 H   0  0  0  0  0  0  0  0  0  0  0  0
    5.3574    3.5434    1.2312 H   0  0  0  0  0  0  0  0  0  0  0  0
    5.5240    5.3167    1.0823 H   0  0  0  0  0  0  0  0  0  0  0  0
  1  2  1  0
  2  3  1  0
  3  4  2  0
  4  5  1  0
  5  6  2  0
  6  7  1  0
  7  8  1  0
  6  9  1  0
  9  3  1  0
  1 10  1  0
  1 11  1  0
  1 12  1  0
  2 13  1  0
  2 14  1  0
  4 15  1  0
  5 16  1  0
  8 17  1  0
  8 18  1  0
  8 19  1  0
M  END
$$$$
