
     RDKit          3D

 19 19  0  0  0  0  0  0  0  0999 V2000
    1.5317   -0.1713    0.1878 C   0  0  0  0  0  0  0  0  0  0  0  0
    0.1958   -0.3959    0.6551 O   0  0  0  0  0  0  0  0  0  0  0  0
   -0.4802    0.7112    1.0298 C   0  0  0  0  0  0  0  0  0  0  0  0
   -0.0182    1.8224    0.9676 O   0  0  0  0  0  0  0  0  0  0  0  0
   -1.8613    0.3331    1.5479 C   0  0  0  0  0  0  0  0  0  0  0  0
   -2.7894    1.5521    1.7722 C   0  0  0  0  0  0  0  0  0  0  0  0
   -3.4898    1.3129    3.1359 C   0  0  0  0  0  0  0  0  0  0  0  0
   -2.6592    0.2264    3.7714 C   0  0  0  0  0  0  0  0  0  0  0  0
   -1.7879   -0.3121    2.9226 C   0  0  0  0  0  0  0  0  0  0  0  0
    2.1423    0.2897    0.9685 H   0  0  0  0  0  0  0  0  0  0  0  0
    1.9247   -1.1542   -0.0731 H   0  0  0  0  0  0  0  0  0  0  0  0
    1.5293    0.4843   -0.6866 H   0  0  0  0  0  0  0  0  0  0  0  0
   -2.2740   -0.3875    0.8289 H   0  0  0  0  0  0  0  0  0  0  0  0
   -2.1663    2.4483    1.8134 H   0  0  0  0  0  0  0  0  0  0  0  0
   -3.4990    1.6836    0.9524 H   0  0  0  0  0  0  0  0  0  0  0  0
   -3.5356    2.2222    3.7459 H   0  0  0  0  0  0  0  0  0  0  0  0
   -4.5289    0.9780    3.0112 H   0  0  0  0  0  0  0  0  0  0  0  0
   -2.7998   -0.0923    4.7987 H   0  0  0  0  0  0  0  0  0  0  0  0
   -1.1075   -1.1285    3.1333 H   0  0  0  0  0  0  0  0  0  0  0  0
  1  2  1  0
  2  3  1  0
  3  4  2  0
  3  5  1  0
  5  6  1  0
  6  7  1  0
  7  8  1  0
  8  9  2  0
  9  5  1  0
  1 10  1  0
  1 11  1  0
  1 12  1  0
  5 13  1  0
  6 14  1  0
  6 15  1  0
  7 16  1  0
  7 17  1  0
  8 18  1  0
  9 19  1  0
M  END
$$$$
