
     RDKit          3D

 19 19  0  0  0  0  0  0  0  0999 V2000
    0.0076    0.3446   -0.0349 C   0  0  0  0  0  0  0  0  0  0  0  0
    1.4208   -0.1729   -0.2030 C   0  0  0  0  0  0  0  0  0  0  0  0
    1.4234   -1.3600   -0.9924 O   0  0  0  0  0  0  0  0  0  0  0  0
    2.7929   -1.6482   -1.2902 C   0  0  0  0  0  0  0  0  0  0  0  0
    3.5336   -0.2850   -1.3109 C   0  0  0  0  0  0  0  0  0  0  0  0
    2.3981    0.7330   -1.0081 C   0  0  0  0  0  0  0  0  0  0  0  0
    1.7777    1.1628   -2.2168 O   0  0  0  0  0  0  0  0  0  0  0  0
    2.8390    1.9086   -0.2705 C   0  0  0  0  0  0  0  0  0  0  0  0
    3.2048    2.8497    0.3804 C   0  0  0  0  0  0  0  0  0  0  0  0
   -0.6146   -0.4106    0.4518 H   0  0  0  0  0  0  0  0  0  0  0  0
    0.0170    1.2449    0.5856 H   0  0  0  0  0  0  0  0  0  0  0  0
   -0.4343    0.5979   -1.0008 H   0  0  0  0  0  0  0  0  0  0  0  0
    1.8714   -0.3727    0.7834 H   0  0  0  0  0  0  0  0  0  0  0  0
    3.2116   -2.3117   -0.5211 H   0  0  0  0  0  0  0  0  0  0  0  0
    2.8190   -2.1762   -2.2468 H   0  0  0  0  0  0  0  0  0  0  0  0
    4.3102   -0.2404   -0.5450 H   0  0  0  0  0  0  0  0  0  0  0  0
    3.9857   -0.0484   -2.2752 H   0  0  0  0  0  0  0  0  0  0  0  0
    1.3400    0.3796   -2.5764 H   0  0  0  0  0  0  0  0  0  0  0  0
    3.5274    3.6910    0.9426 H   0  0  0  0  0  0  0  0  0  0  0  0
  1  2  1  0
  2  3  1  0
  3  4  1  0
  4  5  1  0
  5  6  1  0
  6  7  1  0
  6  8  1  0
  8  9  3  0
  6  2  1  0
  1 10  1  0
  1 11  1  0
  1 12  1  0
  2 13  1  0
  4 14  1  0
  4 15  1  0
  5 16  1  0
  5 17  1  0
  7 18  1  0
  9 19  1  0
M  END
$$$$
