
     RDKit          3D

 19 19  0  0  0  0  0  0  0  0999 V2000
    2.8462   -1.0668   -0.3547 C   0  0  0  0  0  0  0  0  0  0  0  0
    1.6715   -0.1012   -0.3375 C   0  0  0  0  0  0  0  0  0  0  0  0
    0.9201   -0.0612   -1.6549 C   0  0  0  0  0  0  0  0  0  0  0  0
    0.9393    0.1268    0.9266 C   0  0  0  0  0  0  0  0  0  0  0  0
    1.8514    1.2629    0.4509 C   0  0  0  0  0  0  0  0  0  0  0  0
    1.2046    2.5008   -0.0745 C   0  0  0  0  0  0  0  0  0  0  0  0
    0.0478    2.5790   -0.4228 O   0  0  0  0  0  0  0  0  0  0  0  0
    3.1384    1.4914    1.1618 C   0  0  0  0  0  0  0  0  0  0  0  0
    3.7769    2.5152    1.1040 O   0  0  0  0  0  0  0  0  0  0  0  0
    3.3209   -1.1880    0.6207 H   0  0  0  0  0  0  0  0  0  0  0  0
    2.4880   -2.0534   -0.6691 H   0  0  0  0  0  0  0  0  0  0  0  0
    3.6110   -0.7507   -1.0717 H   0  0  0  0  0  0  0  0  0  0  0  0
    0.5244   -1.0616   -1.8644 H   0  0  0  0  0  0  0  0  0  0  0  0
    0.0885    0.6417   -1.6345 H   0  0  0  0  0  0  0  0  0  0  0  0
    1.5885    0.2088   -2.4795 H   0  0  0  0  0  0  0  0  0  0  0  0
   -0.1174    0.3673    0.8758 H   0  0  0  0  0  0  0  0  0  0  0  0
    1.2565   -0.4023    1.8206 H   0  0  0  0  0  0  0  0  0  0  0  0
    1.8787    3.3762   -0.1047 H   0  0  0  0  0  0  0  0  0  0  0  0
    3.4867    0.6437    1.7914 H   0  0  0  0  0  0  0  0  0  0  0  0
  1  2  1  0
  2  3  1  0
  2  4  1  0
  4  5  1  0
  5  6  1  0
  6  7  2  0
  5  8  1  0
  8  9  2  0
  5  2  1  0
  1 10  1  0
  1 11  1  0
  1 12  1  0
  3 13  1  0
  3 14  1  0
  3 15  1  0
  4 16  1  0
  4 17  1  0
  6 18  1  0
  8 19  1  0
M  END
$$$$
