
     RDKit          3D

 19 19  0  0  0  0  0  0  0  0999 V2000
    4.1021   -3.4609   -3.3956 O   0  0  0  0  0  0  0  0  0  0  0  0
    4.6139   -2.5110   -2.4690 C   0  0  0  0  0  0  0  0  0  0  0  0
    3.7727   -2.3316   -1.2877 C   0  0  0  0  0  0  0  0  0  0  0  0
    3.0274   -2.1887   -0.3502 C   0  0  0  0  0  0  0  0  0  0  0  0
    2.1463   -2.0019    0.7713 C   0  0  0  0  0  0  0  0  0  0  0  0
    1.0408   -0.9721    0.5809 C   0  0  0  0  0  0  0  0  0  0  0  0
    0.1628   -1.2888   -0.4814 O   0  0  0  0  0  0  0  0  0  0  0  0
    2.7284   -2.1569    2.1685 C   0  0  0  0  0  0  0  0  0  0  0  0
    1.8201   -3.2217    1.6317 C   0  0  0  0  0  0  0  0  0  0  0  0
    3.1850   -3.2229   -3.5679 H   0  0  0  0  0  0  0  0  0  0  0  0
    5.6022   -2.8844   -2.1775 H   0  0  0  0  0  0  0  0  0  0  0  0
    4.7760   -1.5327   -2.9497 H   0  0  0  0  0  0  0  0  0  0  0  0
    0.4995   -0.8583    1.5346 H   0  0  0  0  0  0  0  0  0  0  0  0
    1.4744    0.0003    0.3275 H   0  0  0  0  0  0  0  0  0  0  0  0
   -0.1661   -2.1816   -0.3308 H   0  0  0  0  0  0  0  0  0  0  0  0
    3.7874   -2.3719    2.2400 H   0  0  0  0  0  0  0  0  0  0  0  0
    2.3467   -1.4937    2.9377 H   0  0  0  0  0  0  0  0  0  0  0  0
    2.2551   -4.1688    1.3372 H   0  0  0  0  0  0  0  0  0  0  0  0
    0.8154   -3.2890    2.0380 H   0  0  0  0  0  0  0  0  0  0  0  0
  1  2  1  0
  2  3  1  0
  3  4  3  0
  4  5  1  0
  5  6  1  0
  6  7  1  0
  5  8  1  0
  8  9  1  0
  9  5  1  0
  1 10  1  0
  2 11  1  0
  2 12  1  0
  6 13  1  0
  6 14  1  0
  7 15  1  0
  8 16  1  0
  8 17  1  0
  9 18  1  0
  9 19  1  0
M  END
$$$$
