gdb 766	2.2020906	1.7707288	1.2147236	2.6388	75.14	-0.24386	-0.02626	0.2176	1072.0757	0.158658	-422.571405	-422.563508	-422.562564	-422.60383	30.393
 OpenBabel02181911403D

 19 20  0  0  1  0  0  0  0  0999 V2000
   -1.2182   -0.1305    2.5277 O   0  0  0  0  0  0  0  0  0  0  0  0
   -0.9629    0.1164    1.3689 C   0  0  0  0  0  0  0  0  0  0  0  0
   -1.9774   -0.0476    0.2550 C   0  0  0  0  0  0  0  0  0  0  0  0
   -1.7122   -1.2832   -0.6304 C   0  0  0  0  0  0  0  0  0  0  0  0
   -0.4841   -1.1856   -1.5445 C   0  0  0  0  0  0  0  0  0  0  0  0
    0.8857   -1.2437   -0.8533 C   0  0  0  0  0  0  0  0  0  0  0  0
    1.2705   -0.0528    0.0029 C   0  0  1  0  0  0  0  0  0  0  0  0
    0.6570    1.2066   -0.2502 O   0  0  0  0  0  0  0  0  0  0  0  0
    0.4190    0.5988    1.0262 C   0  0  1  0  0  0  0  0  0  0  0  0
   -2.9536   -0.1406    0.7372 H   0  0  0  0  0  0  0  0  0  0  0  0
   -1.9736    0.8514   -0.3712 H   0  0  0  0  0  0  0  0  0  0  0  0
   -1.6373   -2.1748    0.0059 H   0  0  0  0  0  0  0  0  0  0  0  0
   -2.5974   -1.4306   -1.2587 H   0  0  0  0  0  0  0  0  0  0  0  0
   -0.5225   -2.0169   -2.2576 H   0  0  0  0  0  0  0  0  0  0  0  0
   -0.5436   -0.2651   -2.1357 H   0  0  0  0  0  0  0  0  0  0  0  0
    0.9657   -2.1488   -0.2355 H   0  0  0  0  0  0  0  0  0  0  0  0
    1.6551   -1.3429   -1.6288 H   0  0  0  0  0  0  0  0  0  0  0  0
    2.3425    0.0174    0.1991 H   0  0  0  0  0  0  0  0  0  0  0  0
    0.9195    1.0716    1.8704 H   0  0  0  0  0  0  0  0  0  0  0  0
  2  1  2  0  0  0  0
  3 10  1  0  0  0  0
  3  2  1  0  0  0  0
  4 12  1  0  0  0  0
  4  3  1  0  0  0  0
  5  6  1  0  0  0  0
  5  4  1  0  0  0  0
  6 16  1  0  0  0  0
  6  7  1  0  0  0  0
  7 18  1  1  0  0  0
  7  9  1  0  0  0  0
  8  7  1  0  0  0  0
  8  9  1  0  0  0  0
  9  2  1  0  0  0  0
  9 19  1  1  0  0  0
 11  3  1  0  0  0  0
 13  4  1  0  0  0  0
 14  5  1  0  0  0  0
 15  5  1  0  0  0  0
 17  6  1  0  0  0  0
M TOR 0 0 1 2 3
M TOR 1 0 1 2 9
M TOR 2 0 1 2 10
M TOR 3 0 1 8 6
M TOR 4 0 1 8 7
M TOR 5 0 1 8 18
M TOR 6 1 2 3 4
M TOR 7 1 2 3 11
M TOR 8 1 2 3 12
M TOR 9 1 8 6 5
M TOR 10 1 8 6 7
M TOR 11 1 8 6 17
M TOR 12 2 1 8 6
M TOR 13 2 1 8 7
M TOR 14 2 1 8 18
M TOR 15 2 3 4 5
M TOR 16 2 3 4 13
M TOR 17 2 3 4 14
M TOR 18 3 2 1 8
M TOR 19 3 4 5 6
M TOR 20 3 4 5 15
M TOR 21 3 4 5 16
M TOR 22 4 3 2 9
M TOR 23 4 3 2 10
M TOR 24 4 5 6 7
M TOR 25 4 5 6 8
M TOR 26 4 5 6 17
M TOR 27 5 4 3 11
M TOR 28 5 4 3 12
M TOR 29 5 6 7 8
M TOR 30 5 6 8 18
M TOR 31 6 5 4 13
M TOR 32 6 5 4 14
M TOR 33 6 7 8 18
M TOR 34 7 6 5 15
M TOR 35 7 6 5 16
M TOR 36 7 8 6 17
M TOR 37 8 1 2 9
M TOR 38 8 1 2 10
M TOR 39 8 6 5 15
M TOR 40 8 6 5 16
M  END
$$$$
