gdb 1850	2.2896087	1.8150839	1.4206528	2.0736	74.66	-0.2432	-0.01754	0.22566	1012.563	0.157344	-422.573707	-422.565488	-422.564544	-422.606161	31.454
 OpenBabel02181911403D

 19 20  0  0  1  0  0  0  0  0999 V2000
   -0.8843    2.2531    0.8248 C   0  0  0  0  0  0  0  0  0  0  0  0
   -1.0370    1.0193   -0.0287 C   0  0  2  0  0  0  0  0  0  0  0  0
   -1.4723    1.2593   -1.4955 C   0  0  0  0  0  0  0  0  0  0  0  0
   -2.1744   -0.0071   -2.0394 C   0  0  0  0  0  0  0  0  0  0  0  0
   -1.5582   -1.3157   -1.4898 C   0  0  0  0  0  0  0  0  0  0  0  0
   -1.1029   -1.0635   -0.0376 C   0  0  2  0  0  0  0  0  0  0  0  0
   -1.9153   -0.0070    0.5545 O   0  0  0  0  0  0  0  0  0  0  0  0
    0.0556   -0.0625   -0.0494 C   0  0  0  0  0  0  0  0  0  0  0  0
    1.2479   -0.0938   -0.0008 O   0  0  0  0  0  0  0  0  0  0  0  0
   -0.5575    1.9921    1.8343 H   0  0  0  0  0  0  0  0  0  0  0  0
   -0.1410    2.9218    0.3799 H   0  0  0  0  0  0  0  0  0  0  0  0
   -1.8348    2.7920    0.8914 H   0  0  0  0  0  0  0  0  0  0  0  0
   -2.1522    2.1169   -1.5493 H   0  0  0  0  0  0  0  0  0  0  0  0
   -0.5874    1.5191   -2.0891 H   0  0  0  0  0  0  0  0  0  0  0  0
   -3.2190    0.0285   -1.7223 H   0  0  0  0  0  0  0  0  0  0  0  0
   -2.1736   -0.0096   -3.1330 H   0  0  0  0  0  0  0  0  0  0  0  0
   -2.2953   -2.1237   -1.5285 H   0  0  0  0  0  0  0  0  0  0  0  0
   -0.6950   -1.6415   -2.0825 H   0  0  0  0  0  0  0  0  0  0  0  0
   -1.0428   -1.9565    0.5884 H   0  0  0  0  0  0  0  0  0  0  0  0
  1 12  1  0  0  0  0
  1 10  1  0  0  0  0
  2  7  1  0  0  0  0
  2  1  1  1  0  0  0
  3  2  1  0  0  0  0
  4 15  1  0  0  0  0
  4  3  1  0  0  0  0
  4  5  1  0  0  0  0
  5  6  1  0  0  0  0
  6  7  1  0  0  0  0
  6 19  1  1  0  0  0
  8  6  1  0  0  0  0
  8  2  1  0  0  0  0
  8  9  2  0  0  0  0
 11  1  1  0  0  0  0
 13  3  1  0  0  0  0
 14  3  1  0  0  0  0
 16  4  1  0  0  0  0
 17  5  1  0  0  0  0
 18  5  1  0  0  0  0
M TOR 0 0 1 2 3
M TOR 1 0 1 2 12
M TOR 2 0 1 2 13
M TOR 3 0 1 6 5
M TOR 4 0 1 7 5
M TOR 5 0 1 7 8
M TOR 6 1 2 3 4
M TOR 7 1 2 3 14
M TOR 8 1 2 3 15
M TOR 9 1 6 5 4
M TOR 10 1 6 5 7
M TOR 11 1 6 5 18
M TOR 12 1 7 5 4
M TOR 13 1 7 5 18
M TOR 14 2 1 0 9
M TOR 15 2 1 0 10
M TOR 16 2 1 0 11
M TOR 17 2 1 6 5
M TOR 18 2 1 7 5
M TOR 19 2 1 7 8
M TOR 20 2 3 4 5
M TOR 21 2 3 4 16
M TOR 22 2 3 4 17
M TOR 23 3 2 1 6
M TOR 24 3 2 1 7
M TOR 25 3 4 5 6
M TOR 26 3 4 5 7
M TOR 27 3 4 5 18
M TOR 28 4 3 2 12
M TOR 29 4 3 2 13
M TOR 30 4 5 7 8
M TOR 31 5 4 3 14
M TOR 32 5 4 3 15
M TOR 33 6 1 0 9
M TOR 34 6 1 0 10
M TOR 35 6 1 0 11
M TOR 36 6 1 2 12
M TOR 37 6 1 2 13
M TOR 38 6 1 7 8
M TOR 39 6 5 4 16
M TOR 40 6 5 4 17
M TOR 41 6 5 7 8
M TOR 42 7 1 0 9
M TOR 43 7 1 0 10
M TOR 44 7 1 0 11
M TOR 45 7 1 2 12
M TOR 46 7 1 2 13
M TOR 47 7 5 4 16
M TOR 48 7 5 4 17
M TOR 49 8 7 5 18
M  END
$$$$
