
     RDKit          3D

 19 21  0  0  0  0  0  0  0  0999 V2000
   -0.0483    0.4416    0.0090 C   0  0  0  0  0  0  0  0  0  0  0  0
    1.4158    0.1375    0.0184 C   0  0  0  0  0  0  0  0  0  0  0  0
    1.8491   -1.2832    0.0670 O   0  0  0  0  0  0  0  0  0  0  0  0
    3.0984   -0.5025    0.0393 C   0  0  0  0  0  0  0  0  0  0  0  0
    2.5070    0.4664    1.0895 C   0  0  0  0  0  0  0  0  0  0  0  0
    3.0346    1.8951    1.1402 C   0  0  0  0  0  0  0  0  0  0  0  0
    2.7722    2.5919   -0.0669 O   0  0  0  0  0  0  0  0  0  0  0  0
    3.0330    1.8139   -1.2235 C   0  0  0  0  0  0  0  0  0  0  0  0
    2.5055    0.3920   -1.0742 C   0  0  0  0  0  0  0  0  0  0  0  0
   -0.5288    0.0515    0.9115 H   0  0  0  0  0  0  0  0  0  0  0  0
   -0.2003    1.5245   -0.0287 H   0  0  0  0  0  0  0  0  0  0  0  0
   -0.5301   -0.0105   -0.8634 H   0  0  0  0  0  0  0  0  0  0  0  0
    4.0397   -1.0533    0.0576 H   0  0  0  0  0  0  0  0  0  0  0  0
    2.3377    0.0154    2.0698 H   0  0  0  0  0  0  0  0  0  0  0  0
    2.5362    2.4667    1.9296 H   0  0  0  0  0  0  0  0  0  0  0  0
    4.1153    1.8919    1.3672 H   0  0  0  0  0  0  0  0  0  0  0  0
    2.5335    2.3299   -2.0497 H   0  0  0  0  0  0  0  0  0  0  0  0
    4.1134    1.7950   -1.4513 H   0  0  0  0  0  0  0  0  0  0  0  0
    2.3349   -0.1252   -2.0210 H   0  0  0  0  0  0  0  0  0  0  0  0
  1  2  1  0
  2  3  1  0
  3  4  1  0
  4  5  1  0
  5  6  1  0
  6  7  1  0
  7  8  1  0
  8  9  1  0
  5  2  1  0
  9  2  1  0
  9  4  1  0
  1 10  1  0
  1 11  1  0
  1 12  1  0
  4 13  1  0
  5 14  1  0
  6 15  1  0
  6 16  1  0
  8 17  1  0
  8 18  1  0
  9 19  1  0
M  END
$$$$
