gdb 4437	3.0378004	1.3866826	1.2081417	2.6864	77.34	-0.23566	0.00618	0.24184	1102.3603	0.156481	-422.54239	-422.533929	-422.532985	-422.576031	31.32
 OpenBabel02181911413D

 19 20  0  0  1  0  0  0  0  0999 V2000
    0.1565    0.1483    0.3280 C   0  0  0  0  0  0  0  0  0  0  0  0
    1.0652   -0.3824   -0.7609 C   0  0  2  0  0  0  0  0  0  0  0  0
    2.4706   -0.1720   -0.4805 O   0  0  0  0  0  0  0  0  0  0  0  0
    2.6466    0.6551   -1.6436 C   0  0  0  0  0  0  0  0  0  0  0  0
    1.1738    0.4556   -2.0801 C   0  0  2  0  0  0  0  0  0  0  0  0
    0.4075    1.6507   -2.1139 O   0  0  0  0  0  0  0  0  0  0  0  0
   -0.3770    1.7134   -3.3041 C   0  0  0  0  0  0  0  0  0  0  0  0
   -0.0081    0.4784   -4.0746 C   0  0  0  0  0  0  0  0  0  0  0  0
    0.8748   -0.2278   -3.3777 C   0  0  0  0  0  0  0  0  0  0  0  0
    0.3783   -0.3595    1.2718 H   0  0  0  0  0  0  0  0  0  0  0  0
    0.2915    1.2236    0.4620 H   0  0  0  0  0  0  0  0  0  0  0  0
   -0.8925   -0.0388    0.0751 H   0  0  0  0  0  0  0  0  0  0  0  0
    0.8691   -1.4487   -0.9411 H   0  0  0  0  0  0  0  0  0  0  0  0
    2.8795    1.6964   -1.3909 H   0  0  0  0  0  0  0  0  0  0  0  0
    3.4116    0.2619   -2.3249 H   0  0  0  0  0  0  0  0  0  0  0  0
   -1.4476    1.7464   -3.0492 H   0  0  0  0  0  0  0  0  0  0  0  0
   -0.1441    2.6404   -3.8493 H   0  0  0  0  0  0  0  0  0  0  0  0
   -0.4232    0.2351   -5.0441 H   0  0  0  0  0  0  0  0  0  0  0  0
    1.3311   -1.1685   -3.6579 H   0  0  0  0  0  0  0  0  0  0  0  0
  1 11  1  0  0  0  0
  1 10  1  0  0  0  0
  2 13  1  6  0  0  0
  2  3  1  0  0  0  0
  2  1  1  0  0  0  0
  4 14  1  0  0  0  0
  4  3  1  0  0  0  0
  5  9  1  6  0  0  0
  5  4  1  0  0  0  0
  5  2  1  0  0  0  0
  6  5  1  0  0  0  0
  7 16  1  0  0  0  0
  7  6  1  0  0  0  0
  8  9  2  0  0  0  0
  8  7  1  0  0  0  0
 12  1  1  0  0  0  0
 15  4  1  0  0  0  0
 17  7  1  0  0  0  0
 18  8  1  0  0  0  0
 19  9  1  0  0  0  0
M TOR 0 0 1 2 3
M TOR 1 0 1 4 3
M TOR 2 0 1 4 5
M TOR 3 0 1 4 8
M TOR 4 1 2 3 4
M TOR 5 1 2 3 13
M TOR 6 1 2 3 14
M TOR 7 1 4 3 13
M TOR 8 1 4 3 14
M TOR 9 1 4 5 6
M TOR 10 1 4 8 7
M TOR 11 1 4 8 18
M TOR 12 2 1 0 9
M TOR 13 2 1 0 10
M TOR 14 2 1 0 11
M TOR 15 2 1 4 5
M TOR 16 2 1 4 8
M TOR 17 2 3 4 5
M TOR 18 2 3 4 8
M TOR 19 3 2 1 12
M TOR 20 3 4 1 12
M TOR 21 3 4 5 6
M TOR 22 3 4 8 7
M TOR 23 3 4 8 18
M TOR 24 4 1 0 9
M TOR 25 4 1 0 10
M TOR 26 4 1 0 11
M TOR 27 4 5 6 7
M TOR 28 4 5 6 15
M TOR 29 4 5 6 16
M TOR 30 4 8 7 6
M TOR 31 4 8 7 17
M TOR 32 5 4 1 12
M TOR 33 5 4 3 13
M TOR 34 5 4 3 14
M TOR 35 5 4 8 7
M TOR 36 5 4 8 18
M TOR 37 5 6 7 8
M TOR 38 5 6 7 17
M TOR 39 6 5 4 8
M TOR 40 6 7 8 18
M TOR 41 8 4 1 12
M TOR 42 8 4 3 13
M TOR 43 8 4 3 14
M TOR 44 8 7 6 15
M TOR 45 8 7 6 16
M  END
$$$$
