gdb 1796	3.0739735	1.6371308	1.3914205	2.4369	73.4	-0.25373	0.07486	0.32859	973.0575	0.158693	-422.547184	-422.539959	-422.539015	-422.578175	30.08
 OpenBabel02181911403D

 19 21  0  0  1  0  0  0  0  0999 V2000
    0.5554    0.6608    0.5337 O   0  0  0  0  0  0  0  0  0  0  0  0
   -0.8103    0.5485    0.8426 C   0  0  2  0  0  0  0  0  0  0  0  0
   -1.7593    0.8959   -0.3248 C   0  0  0  0  0  0  0  0  0  0  0  0
   -2.7535    1.3946    0.7609 C   0  0  2  0  0  0  0  0  0  0  0  0
   -1.5105    1.6847    1.6571 C   0  0  0  0  0  0  0  0  0  0  0  0
   -3.4956    0.2129    1.3738 C   0  0  1  0  0  0  0  0  0  0  0  0
   -3.5493   -0.9997    0.6135 O   0  0  0  0  0  0  0  0  0  0  0  0
   -2.6571   -0.9394    1.7351 C   0  0  1  0  0  0  0  0  0  0  0  0
   -1.1672   -0.8265    1.4384 C   0  0  0  0  0  0  0  0  0  0  0  0
    1.0684    0.3699    1.2958 H   0  0  0  0  0  0  0  0  0  0  0  0
   -1.3544    1.7324   -0.8988 H   0  0  0  0  0  0  0  0  0  0  0  0
   -2.0836    0.0937   -0.9868 H   0  0  0  0  0  0  0  0  0  0  0  0
   -3.4187    2.2208    0.5076 H   0  0  0  0  0  0  0  0  0  0  0  0
   -1.0548    2.6498    1.4249 H   0  0  0  0  0  0  0  0  0  0  0  0
   -1.6163    1.5693    2.7407 H   0  0  0  0  0  0  0  0  0  0  0  0
   -4.3985    0.4302    1.9427 H   0  0  0  0  0  0  0  0  0  0  0  0
   -2.9454   -1.5916    2.5581 H   0  0  0  0  0  0  0  0  0  0  0  0
   -0.6179   -0.9628    2.3809 H   0  0  0  0  0  0  0  0  0  0  0  0
   -0.8463   -1.6223    0.7559 H   0  0  0  0  0  0  0  0  0  0  0  0
  1 10  1  0  0  0  0
  2  1  1  6  0  0  0
  2  9  1  0  0  0  0
  2  5  1  0  0  0  0
  3  4  1  0  0  0  0
  3  2  1  0  0  0  0
  4 13  1  6  0  0  0
  4  6  1  0  0  0  0
  4  5  1  0  0  0  0
  5 15  1  0  0  0  0
  6  8  1  0  0  0  0
  6 16  1  1  0  0  0
  7  6  1  0  0  0  0
  7  8  1  0  0  0  0
  8 17  1  1  0  0  0
  9  8  1  0  0  0  0
  9 18  1  0  0  0  0
 11  3  1  0  0  0  0
 12  3  1  0  0  0  0
 14  5  1  0  0  0  0
 19  9  1  0  0  0  0
M TOR 0 0 1 2 3
M TOR 1 0 1 2 10
M TOR 2 0 1 2 11
M TOR 3 0 1 4 3
M TOR 4 0 1 4 13
M TOR 5 0 1 4 14
M TOR 6 0 1 8 7
M TOR 7 0 1 8 17
M TOR 8 0 1 8 18
M TOR 9 1 2 3 4
M TOR 10 1 2 3 5
M TOR 11 1 2 3 12
M TOR 12 1 4 3 5
M TOR 13 1 4 3 12
M TOR 14 1 8 7 5
M TOR 15 1 8 7 6
M TOR 16 1 8 7 16
M TOR 17 2 1 0 9
M TOR 18 2 1 4 13
M TOR 19 2 1 4 14
M TOR 20 2 1 8 7
M TOR 21 2 1 8 17
M TOR 22 2 1 8 18
M TOR 23 2 3 4 13
M TOR 24 2 3 4 14
M TOR 25 2 3 5 6
M TOR 26 2 3 5 7
M TOR 27 2 3 5 15
M TOR 28 3 2 1 8
M TOR 29 3 4 1 8
M TOR 30 3 5 6 7
M TOR 31 3 5 7 8
M TOR 32 3 5 7 16
M TOR 33 4 1 0 9
M TOR 34 4 1 2 10
M TOR 35 4 1 2 11
M TOR 36 4 1 8 7
M TOR 37 4 1 8 17
M TOR 38 4 1 8 18
M TOR 39 4 3 2 10
M TOR 40 4 3 2 11
M TOR 41 4 3 5 6
M TOR 42 4 3 5 7
M TOR 43 4 3 5 15
M TOR 44 5 3 2 10
M TOR 45 5 3 2 11
M TOR 46 5 3 4 13
M TOR 47 5 3 4 14
M TOR 48 5 6 7 8
M TOR 49 5 6 7 16
M TOR 50 5 7 8 17
M TOR 51 5 7 8 18
M TOR 52 6 5 3 12
M TOR 53 6 7 5 15
M TOR 54 6 7 8 17
M TOR 55 6 7 8 18
M TOR 56 7 5 3 12
M TOR 57 8 1 0 9
M TOR 58 8 1 2 10
M TOR 59 8 1 2 11
M TOR 60 8 1 4 13
M TOR 61 8 1 4 14
M TOR 62 8 7 5 15
M  END
$$$$
