gdb 2026	3.0038047	1.5340463	1.269554	1.7557	73.8	-0.21717	0.07393	0.2911	1037.6538	0.157542	-422.517224	-422.509317	-422.508372	-422.549306	31.595
 OpenBabel02181911403D

 19 21  0  0  1  0  0  0  0  0999 V2000
   -0.8193    0.8529    0.1478 O   0  0  0  0  0  0  0  0  0  0  0  0
   -1.7762    0.4132    1.0789 C   0  0  1  0  0  0  0  0  0  0  0  0
   -3.1861    0.7261    0.6541 C   0  0  0  0  0  0  0  0  0  0  0  0
   -2.6863   -0.7085    0.6559 C   0  0  2  0  0  0  0  0  0  0  0  0
   -3.1944   -1.6675    1.5382 O   0  0  0  0  0  0  0  0  0  0  0  0
   -2.8529   -1.6049    2.8942 C   0  0  2  0  0  0  0  0  0  0  0  0
   -3.4341   -0.5469    3.8003 C   0  0  0  0  0  0  0  0  0  0  0  0
   -1.9558   -0.5363    3.4526 C   0  0  2  0  0  0  0  0  0  0  0  0
   -1.3265    0.4980    2.5289 C   0  0  0  0  0  0  0  0  0  0  0  0
   -0.0709    0.2457    0.1822 H   0  0  0  0  0  0  0  0  0  0  0  0
   -3.9030    1.0315    1.4067 H   0  0  0  0  0  0  0  0  0  0  0  0
   -3.3000    1.2062   -0.3111 H   0  0  0  0  0  0  0  0  0  0  0  0
   -2.4960   -1.1551   -0.3150 H   0  0  0  0  0  0  0  0  0  0  0  0
   -2.7621   -2.6127    3.2870 H   0  0  0  0  0  0  0  0  0  0  0  0
   -4.0763    0.2009    3.3504 H   0  0  0  0  0  0  0  0  0  0  0  0
   -3.7205   -0.8297    4.8077 H   0  0  0  0  0  0  0  0  0  0  0  0
   -1.2950   -0.8547    4.2532 H   0  0  0  0  0  0  0  0  0  0  0  0
   -1.4598    1.5158    2.9165 H   0  0  0  0  0  0  0  0  0  0  0  0
   -0.2441    0.3164    2.5224 H   0  0  0  0  0  0  0  0  0  0  0  0
  1 10  1  0  0  0  0
  2  1  1  6  0  0  0
  2  9  1  0  0  0  0
  3  4  1  0  0  0  0
  3  2  1  0  0  0  0
  3 11  1  0  0  0  0
  4 13  1  6  0  0  0
  4  2  1  0  0  0  0
  4  5  1  0  0  0  0
  5  6  1  0  0  0  0
  6 14  1  1  0  0  0
  6  8  1  0  0  0  0
  6  7  1  0  0  0  0
  7 16  1  0  0  0  0
  8  7  1  0  0  0  0
  8 17  1  1  0  0  0
  9 18  1  0  0  0  0
  9  8  1  0  0  0  0
 12  3  1  0  0  0  0
 15  7  1  0  0  0  0
 19  9  1  0  0  0  0
M TOR 0 0 1 2 3
M TOR 1 0 1 2 10
M TOR 2 0 1 2 11
M TOR 3 0 1 3 4
M TOR 4 0 1 3 12
M TOR 5 0 1 8 7
M TOR 6 0 1 8 17
M TOR 7 0 1 8 18
M TOR 8 1 2 3 4
M TOR 9 1 2 3 12
M TOR 10 1 3 2 10
M TOR 11 1 3 2 11
M TOR 12 1 3 4 5
M TOR 13 1 8 7 5
M TOR 14 1 8 7 6
M TOR 15 1 8 7 16
M TOR 16 2 1 0 9
M TOR 17 2 1 8 7
M TOR 18 2 1 8 17
M TOR 19 2 1 8 18
M TOR 20 2 3 1 8
M TOR 21 2 3 4 5
M TOR 22 3 1 0 9
M TOR 23 3 1 8 7
M TOR 24 3 1 8 17
M TOR 25 3 1 8 18
M TOR 26 3 4 5 6
M TOR 27 3 4 5 7
M TOR 28 3 4 5 13
M TOR 29 4 3 1 8
M TOR 30 4 3 2 10
M TOR 31 4 3 2 11
M TOR 32 4 5 6 7
M TOR 33 4 5 6 14
M TOR 34 4 5 6 15
M TOR 35 4 5 7 8
M TOR 36 4 5 7 16
M TOR 37 5 4 3 12
M TOR 38 5 6 7 8
M TOR 39 5 6 7 16
M TOR 40 5 7 6 14
M TOR 41 5 7 6 15
M TOR 42 5 7 8 17
M TOR 43 5 7 8 18
M TOR 44 6 7 5 13
M TOR 45 6 7 8 17
M TOR 46 6 7 8 18
M TOR 47 8 1 0 9
M TOR 48 8 1 2 10
M TOR 49 8 1 2 11
M TOR 50 8 1 3 12
M TOR 51 8 7 5 13
M TOR 52 8 7 6 14
M TOR 53 8 7 6 15
M  END
$$$$
