gdb 4645	6.3857402	0.4557415	0.4518414	2.7521	81.9	-0.25042	0.03473	0.28514999999999996	2385.1066	0.15483	-422.496929	-422.486531	-422.485587	-422.535208	35.092
 OpenBabel02181911413D

 19 19  0  0  1  0  0  0  0  0999 V2000
    1.5353    0.2817   -0.2154 O   0  0  0  0  0  0  0  0  0  0  0  0
    0.1320    0.2032   -0.0007 C   0  0  0  0  0  0  0  0  0  0  0  0
   -0.3823   -1.1656    0.0121 C   0  0  0  0  0  0  0  0  0  0  0  0
   -0.7624   -2.3090    0.0404 C   0  0  0  0  0  0  0  0  0  0  0  0
   -1.2427   -3.6841    0.0904 C   0  0  0  0  0  0  0  0  0  0  0  0
   -1.8491   -4.0682    1.4578 C   0  0  0  0  0  0  0  0  0  0  0  0
   -2.3411   -5.4938    1.4647 C   0  0  2  0  0  0  0  0  0  0  0  0
   -2.1857   -6.3761    2.6269 C   0  0  0  0  0  0  0  0  0  0  0  0
   -1.3337   -6.5113    1.4881 O   0  0  0  0  0  0  0  0  0  0  0  0
    1.9533   -0.3267    0.4027 H   0  0  0  0  0  0  0  0  0  0  0  0
   -0.1572    0.7093    0.9348 H   0  0  0  0  0  0  0  0  0  0  0  0
   -0.3247    0.7718   -0.8187 H   0  0  0  0  0  0  0  0  0  0  0  0
   -1.9906   -3.8406   -0.6986 H   0  0  0  0  0  0  0  0  0  0  0  0
   -0.4187   -4.3731   -0.1320 H   0  0  0  0  0  0  0  0  0  0  0  0
   -1.0931   -3.9388    2.2388 H   0  0  0  0  0  0  0  0  0  0  0  0
   -2.6803   -3.3933    1.6933 H   0  0  0  0  0  0  0  0  0  0  0  0
   -3.1604   -5.7094    0.7750 H   0  0  0  0  0  0  0  0  0  0  0  0
   -1.7051   -5.9950    3.5273 H   0  0  0  0  0  0  0  0  0  0  0  0
   -2.8875   -7.1935    2.7870 H   0  0  0  0  0  0  0  0  0  0  0  0
  1  2  1  0  0  0  0
  1 10  1  0  0  0  0
  2  3  1  0  0  0  0
  2 11  1  0  0  0  0
  3  4  3  0  0  0  0
  4  5  1  0  0  0  0
  5  6  1  0  0  0  0
  6  7  1  0  0  0  0
  6 16  1  0  0  0  0
  6 15  1  0  0  0  0
  7 17  1  6  0  0  0
  7  9  1  0  0  0  0
  7  8  1  0  0  0  0
  8 19  1  0  0  0  0
  8 18  1  0  0  0  0
  9  8  1  0  0  0  0
 12  2  1  0  0  0  0
 13  5  1  0  0  0  0
 14  5  1  0  0  0  0
M TOR 0 0 1 2 3
M TOR 1 1 2 3 4
M TOR 2 2 1 0 9
M TOR 3 2 3 4 5
M TOR 4 2 3 4 12
M TOR 5 2 3 4 13
M TOR 6 3 2 1 10
M TOR 7 3 2 1 11
M TOR 8 3 4 5 6
M TOR 9 3 4 5 14
M TOR 10 3 4 5 15
M TOR 11 4 5 6 7
M TOR 12 4 5 6 8
M TOR 13 4 5 6 16
M TOR 14 5 6 7 8
M TOR 15 5 6 7 17
M TOR 16 5 6 7 18
M TOR 17 6 5 4 12
M TOR 18 6 5 4 13
M TOR 19 6 8 7 17
M TOR 20 6 8 7 18
M TOR 21 7 6 5 14
M TOR 22 7 6 5 15
M TOR 23 7 8 6 16
M TOR 24 8 6 5 14
M TOR 25 8 6 5 15
M  END
$$$$
