gdb 747	2.6958383	1.5072046	1.0560923	4.4438	75.41	-0.25447	0.01298	0.26744999999999997	1136.27	0.158898	-422.576669	-422.568687	-422.567743	-422.609523	30.453
 OpenBabel02181911403D

 19 20  0  0  1  0  0  0  0  0999 V2000
   -1.6979    3.0416    0.9010 O   0  0  0  0  0  0  0  0  0  0  0  0
   -1.1374    2.0568    0.5012 C   0  0  0  0  0  0  0  0  0  0  0  0
    0.3394    2.0649    0.1139 C   0  0  0  0  0  0  0  0  0  0  0  0
    0.6424    1.6192   -1.3041 C   0  0  1  0  0  0  0  0  0  0  0  0
    1.8208    0.7114   -1.5711 C   0  0  0  0  0  0  0  0  0  0  0  0
    0.4162    0.1722   -1.6572 C   0  0  1  0  0  0  0  0  0  0  0  0
   -0.1757   -0.7223   -0.5867 C   0  0  0  0  0  0  0  0  0  0  0  0
   -1.6094   -0.3188   -0.2457 C   0  0  0  0  0  0  0  0  0  0  0  0
   -1.8276    0.8853    0.5105 O   0  0  0  0  0  0  0  0  0  0  0  0
    0.6843    3.0870    0.2828 H   0  0  0  0  0  0  0  0  0  0  0  0
    0.8684    1.4268    0.8302 H   0  0  0  0  0  0  0  0  0  0  0  0
    0.4069    2.3551   -2.0668 H   0  0  0  0  0  0  0  0  0  0  0  0
    2.3772    0.8449   -2.4921 H   0  0  0  0  0  0  0  0  0  0  0  0
    2.4308    0.4159   -0.7228 H   0  0  0  0  0  0  0  0  0  0  0  0
    0.0363   -0.0230   -2.6566 H   0  0  0  0  0  0  0  0  0  0  0  0
   -0.2096   -1.7614   -0.9374 H   0  0  0  0  0  0  0  0  0  0  0  0
    0.4381   -0.7317    0.3198 H   0  0  0  0  0  0  0  0  0  0  0  0
   -2.1911   -0.2301   -1.1728 H   0  0  0  0  0  0  0  0  0  0  0  0
   -2.0812   -1.0937    0.3653 H   0  0  0  0  0  0  0  0  0  0  0  0
  2  9  1  0  0  0  0
  2  1  2  0  0  0  0
  3 10  1  0  0  0  0
  3  2  1  0  0  0  0
  3 11  1  0  0  0  0
  4 12  1  6  0  0  0
  4  3  1  0  0  0  0
  5  4  1  0  0  0  0
  5 14  1  0  0  0  0
  6 15  1  6  0  0  0
  6  5  1  0  0  0  0
  6  4  1  0  0  0  0
  6  7  1  0  0  0  0
  7  8  1  0  0  0  0
  7 17  1  0  0  0  0
  8 19  1  0  0  0  0
  8  9  1  0  0  0  0
 13  5  1  0  0  0  0
 16  7  1  0  0  0  0
 18  8  1  0  0  0  0
M TOR 0 0 1 2 3
M TOR 1 0 1 2 9
M TOR 2 0 1 2 10
M TOR 3 0 1 8 7
M TOR 4 1 2 3 4
M TOR 5 1 2 3 5
M TOR 6 1 2 3 11
M TOR 7 1 8 7 6
M TOR 8 1 8 7 17
M TOR 9 1 8 7 18
M TOR 10 2 1 8 7
M TOR 11 2 3 4 5
M TOR 12 2 3 4 12
M TOR 13 2 3 4 13
M TOR 14 2 3 5 6
M TOR 15 2 3 5 14
M TOR 16 3 2 1 8
M TOR 17 3 4 5 6
M TOR 18 3 4 5 14
M TOR 19 3 5 4 12
M TOR 20 3 5 4 13
M TOR 21 3 5 6 7
M TOR 22 3 5 6 15
M TOR 23 3 5 6 16
M TOR 24 4 3 2 9
M TOR 25 4 3 2 10
M TOR 26 4 5 3 11
M TOR 27 4 5 6 7
M TOR 28 4 5 6 15
M TOR 29 4 5 6 16
M TOR 30 5 3 2 9
M TOR 31 5 3 2 10
M TOR 32 5 6 7 8
M TOR 33 5 6 7 17
M TOR 34 5 6 7 18
M TOR 35 6 5 3 11
M TOR 36 6 5 4 12
M TOR 37 6 5 4 13
M TOR 38 7 6 5 14
M TOR 39 8 1 2 9
M TOR 40 8 1 2 10
M TOR 41 8 7 6 15
M TOR 42 8 7 6 16
M  END
$$$$
