
     RDKit          3D

 19 19  0  0  0  0  0  0  0  0999 V2000
   -4.0155    0.1517    1.3232 C   0  0  0  0  0  0  0  0  0  0  0  0
   -2.8678    0.0211    0.3238 C   0  0  0  0  0  0  0  0  0  0  0  0
   -2.0496   -1.0447    0.7679 O   0  0  0  0  0  0  0  0  0  0  0  0
   -0.8484   -1.2236    0.0269 C   0  0  0  0  0  0  0  0  0  0  0  0
   -0.1218   -2.4349    0.5859 C   0  0  0  0  0  0  0  0  0  0  0  0
    0.0104    0.0491    0.0662 C   0  0  0  0  0  0  0  0  0  0  0  0
    1.2212    0.0158   -0.0206 O   0  0  0  0  0  0  0  0  0  0  0  0
   -0.7507    1.3119    0.1273 C   0  0  0  0  0  0  0  0  0  0  0  0
   -2.0866    1.3000    0.1824 C   0  0  0  0  0  0  0  0  0  0  0  0
   -3.6291    0.4220    2.3097 H   0  0  0  0  0  0  0  0  0  0  0  0
   -4.7251    0.9184    0.9989 H   0  0  0  0  0  0  0  0  0  0  0  0
   -4.5423   -0.8019    1.4058 H   0  0  0  0  0  0  0  0  0  0  0  0
   -3.2927   -0.2284   -0.6698 H   0  0  0  0  0  0  0  0  0  0  0  0
   -1.0950   -1.3977   -1.0387 H   0  0  0  0  0  0  0  0  0  0  0  0
    0.0681   -2.2979    1.6541 H   0  0  0  0  0  0  0  0  0  0  0  0
   -0.7257   -3.3351    0.4506 H   0  0  0  0  0  0  0  0  0  0  0  0
    0.8363   -2.5558    0.0779 H   0  0  0  0  0  0  0  0  0  0  0  0
   -0.1736    2.2288    0.0598 H   0  0  0  0  0  0  0  0  0  0  0  0
   -2.6598    2.2230    0.1277 H   0  0  0  0  0  0  0  0  0  0  0  0
  1  2  1  0
  2  3  1  0
  3  4  1  0
  4  5  1  0
  4  6  1  0
  6  7  2  0
  6  8  1  0
  8  9  2  0
  9  2  1  0
  1 10  1  0
  1 11  1  0
  1 12  1  0
  2 13  1  0
  4 14  1  0
  5 15  1  0
  5 16  1  0
  5 17  1  0
  8 18  1  0
  9 19  1  0
M  END
$$$$
