
     RDKit          3D

 19 21  0  0  0  0  0  0  0  0999 V2000
    0.1072    2.7559   -2.1963 C   0  0  0  0  0  0  0  0  0  0  0  0
   -0.8015    1.7954   -1.3993 C   0  0  0  0  0  0  0  0  0  0  0  0
    0.5186    1.2475   -0.8662 C   0  0  0  0  0  0  0  0  0  0  0  0
    1.3017    2.1657   -1.6319 O   0  0  0  0  0  0  0  0  0  0  0  0
    0.9009   -0.1769   -0.6256 C   0  0  0  0  0  0  0  0  0  0  0  0
    2.3710   -0.5266   -0.7842 C   0  0  0  0  0  0  0  0  0  0  0  0
    3.1022    0.4623   -0.0723 O   0  0  0  0  0  0  0  0  0  0  0  0
    2.2962    0.9985    0.9679 C   0  0  0  0  0  0  0  0  0  0  0  0
    0.8516    0.8279    0.5288 C   0  0  0  0  0  0  0  0  0  0  0  0
    0.0778    2.6454   -3.2860 H   0  0  0  0  0  0  0  0  0  0  0  0
    0.0204    3.8174   -1.9391 H   0  0  0  0  0  0  0  0  0  0  0  0
   -1.4470    2.2677   -0.6559 H   0  0  0  0  0  0  0  0  0  0  0  0
   -1.3896    1.0983   -1.9997 H   0  0  0  0  0  0  0  0  0  0  0  0
    0.1611   -0.9616   -0.7478 H   0  0  0  0  0  0  0  0  0  0  0  0
    2.5574   -1.5357   -0.3809 H   0  0  0  0  0  0  0  0  0  0  0  0
    2.7204   -0.4992   -1.8217 H   0  0  0  0  0  0  0  0  0  0  0  0
    2.4591    0.4674    1.9202 H   0  0  0  0  0  0  0  0  0  0  0  0
    2.5955    2.0437    1.0994 H   0  0  0  0  0  0  0  0  0  0  0  0
    0.0742    0.8086    1.2859 H   0  0  0  0  0  0  0  0  0  0  0  0
  1  2  1  0
  2  3  1  0
  3  4  1  0
  3  5  1  0
  5  6  1  0
  6  7  1  0
  7  8  1  0
  8  9  1  0
  4  1  1  0
  9  5  1  0
  9  3  1  0
  1 10  1  0
  1 11  1  0
  2 12  1  0
  2 13  1  0
  5 14  1  0
  6 15  1  0
  6 16  1  0
  8 17  1  0
  8 18  1  0
  9 19  1  0
M  END
$$$$
