
     RDKit          3D

 19 20  0  0  0  0  0  0  0  0999 V2000
    1.4049   -0.0721   -0.1084 C   0  0  0  0  0  0  0  0  0  0  0  0
    0.0171   -0.1176    0.1503 O   0  0  0  0  0  0  0  0  0  0  0  0
   -0.4297    0.6340    1.2492 C   0  0  0  0  0  0  0  0  0  0  0  0
   -1.9323    0.9452    1.1055 C   0  0  0  0  0  0  0  0  0  0  0  0
   -1.6983    2.3673    1.0301 O   0  0  0  0  0  0  0  0  0  0  0  0
   -0.2695    2.1888    1.2290 C   0  0  0  0  0  0  0  0  0  0  0  0
    0.2008    2.5328    2.6115 C   0  0  0  0  0  0  0  0  0  0  0  0
    0.3627    1.4427    3.3651 C   0  0  0  0  0  0  0  0  0  0  0  0
    0.0533    0.1557    2.6386 C   0  0  0  0  0  0  0  0  0  0  0  0
    2.0033   -0.5080    0.7039 H   0  0  0  0  0  0  0  0  0  0  0  0
    1.5729   -0.6596   -1.0138 H   0  0  0  0  0  0  0  0  0  0  0  0
    1.7561    0.9544   -0.2842 H   0  0  0  0  0  0  0  0  0  0  0  0
   -2.3674    0.5480    0.1824 H   0  0  0  0  0  0  0  0  0  0  0  0
   -2.5602    0.6735    1.9629 H   0  0  0  0  0  0  0  0  0  0  0  0
    0.2947    2.6574    0.4153 H   0  0  0  0  0  0  0  0  0  0  0  0
    0.3622    3.5529    2.9411 H   0  0  0  0  0  0  0  0  0  0  0  0
    0.6828    1.4510    4.4022 H   0  0  0  0  0  0  0  0  0  0  0  0
    0.9344   -0.4929    2.5628 H   0  0  0  0  0  0  0  0  0  0  0  0
   -0.7140   -0.4365    3.1525 H   0  0  0  0  0  0  0  0  0  0  0  0
  1  2  1  0
  2  3  1  0
  3  4  1  0
  4  5  1  0
  5  6  1  0
  6  7  1  0
  7  8  2  0
  8  9  1  0
  6  3  1  0
  9  3  1  0
  1 10  1  0
  1 11  1  0
  1 12  1  0
  4 13  1  0
  4 14  1  0
  6 15  1  0
  7 16  1  0
  8 17  1  0
  9 18  1  0
  9 19  1  0
M  END
$$$$
