gdb 5927	1.679789	1.1423169	0.7257653	2.3168	78.19	-0.25676	-0.03071	0.22604999999999997	1537.682	0.153111	-422.532616	-422.521985	-422.521041	-422.569138	36.92
 OpenBabel02181911423D

 19 18  0  0  1  0  0  0  0  0999 V2000
   -3.8250    2.9624    1.8989 O   0  0  0  0  0  0  0  0  0  0  0  0
   -2.8046    3.1137    0.9257 C   0  0  0  0  0  0  0  0  0  0  0  0
   -2.2956    1.7691    0.4030 C   0  0  0  0  0  0  0  0  0  0  0  0
   -1.1906    1.9072   -0.6700 C   0  0  1  0  0  0  0  0  0  0  0  0
   -0.5983    0.5363   -1.0567 C   0  0  0  0  0  0  0  0  0  0  0  0
    0.2866   -0.0839   -0.0008 C   0  0  0  0  0  0  0  0  0  0  0  0
    0.5843    0.4349    1.0457 O   0  0  0  0  0  0  0  0  0  0  0  0
   -1.6786    2.5977   -1.8628 C   0  0  0  0  0  0  0  0  0  0  0  0
   -2.0884    3.1388   -2.8554 C   0  0  0  0  0  0  0  0  0  0  0  0
   -3.4404    2.5171    2.6607 H   0  0  0  0  0  0  0  0  0  0  0  0
   -3.2516    3.6887    0.1095 H   0  0  0  0  0  0  0  0  0  0  0  0
   -1.9606    3.7050    1.3170 H   0  0  0  0  0  0  0  0  0  0  0  0
   -1.8824    1.1940    1.2389 H   0  0  0  0  0  0  0  0  0  0  0  0
   -3.1406    1.2045   -0.0074 H   0  0  0  0  0  0  0  0  0  0  0  0
   -0.3739    2.4968   -0.2323 H   0  0  0  0  0  0  0  0  0  0  0  0
   -1.3903   -0.1819   -1.3105 H   0  0  0  0  0  0  0  0  0  0  0  0
    0.0101    0.6191   -1.9683 H   0  0  0  0  0  0  0  0  0  0  0  0
    0.6794   -1.0907   -0.2700 H   0  0  0  0  0  0  0  0  0  0  0  0
   -2.4459    3.6334   -3.7245 H   0  0  0  0  0  0  0  0  0  0  0  0
  1 10  1  0  0  0  0
  2 12  1  0  0  0  0
  2  1  1  0  0  0  0
  3  2  1  0  0  0  0
  3 13  1  0  0  0  0
  4 15  1  1  0  0  0
  4  3  1  0  0  0  0
  5  4  1  0  0  0  0
  5  6  1  0  0  0  0
  6  7  2  0  0  0  0
  8  4  1  0  0  0  0
  9  8  3  0  0  0  0
 11  2  1  0  0  0  0
 14  3  1  0  0  0  0
 16  5  1  0  0  0  0
 17  5  1  0  0  0  0
 18  6  1  0  0  0  0
 19  9  1  0  0  0  0
M TOR 0 0 1 2 3
M TOR 1 0 1 2 12
M TOR 2 0 1 2 13
M TOR 3 1 2 3 4
M TOR 4 1 2 3 7
M TOR 5 1 2 3 14
M TOR 6 2 1 0 9
M TOR 7 2 3 4 5
M TOR 8 2 3 4 15
M TOR 9 2 3 4 16
M TOR 10 2 3 7 8
M TOR 11 3 2 1 10
M TOR 12 3 2 1 11
M TOR 13 3 4 5 6
M TOR 14 3 4 5 17
M TOR 15 3 7 8 18
M TOR 16 4 3 2 12
M TOR 17 4 3 2 13
M TOR 18 4 3 7 8
M TOR 19 5 4 3 7
M TOR 20 5 4 3 14
M TOR 21 6 5 4 15
M TOR 22 6 5 4 16
M TOR 23 7 3 2 12
M TOR 24 7 3 2 13
M TOR 25 7 3 4 15
M TOR 26 7 3 4 16
M TOR 27 8 7 3 14
M  END
$$$$
