
     RDKit          3D

 19 21  0  0  0  0  0  0  0  0999 V2000
    1.4562    0.8613    0.1757 O   0  0  0  0  0  0  0  0  0  0  0  0
    0.3649   -0.0469    0.2469 C   0  0  0  0  0  0  0  0  0  0  0  0
   -0.9200    0.6238    0.6395 C   0  0  0  0  0  0  0  0  0  0  0  0
   -1.9332    1.3850   -0.2154 C   0  0  0  0  0  0  0  0  0  0  0  0
   -2.8642    1.3155    1.0269 C   0  0  0  0  0  0  0  0  0  0  0  0
   -2.1540    2.2229    2.0777 C   0  0  0  0  0  0  0  0  0  0  0  0
   -1.0733    1.1510    2.0728 C   0  0  0  0  0  0  0  0  0  0  0  0
    0.0294    1.0389    2.9024 O   0  0  0  0  0  0  0  0  0  0  0  0
   -2.0165    0.0866    1.5540 C   0  0  0  0  0  0  0  0  0  0  0  0
    1.5695    1.2111    1.0670 H   0  0  0  0  0  0  0  0  0  0  0  0
    0.2726   -0.4901   -0.7507 H   0  0  0  0  0  0  0  0  0  0  0  0
    0.5772   -0.8660    0.9506 H   0  0  0  0  0  0  0  0  0  0  0  0
   -1.6694    2.3788   -0.5945 H   0  0  0  0  0  0  0  0  0  0  0  0
   -2.2990    0.7623   -1.0376 H   0  0  0  0  0  0  0  0  0  0  0  0
   -3.9468    1.3371    0.9294 H   0  0  0  0  0  0  0  0  0  0  0  0
   -1.8949    3.2445    1.7769 H   0  0  0  0  0  0  0  0  0  0  0  0
   -2.6991    2.2401    3.0275 H   0  0  0  0  0  0  0  0  0  0  0  0
   -0.2706    0.8984    3.8070 H   0  0  0  0  0  0  0  0  0  0  0  0
   -2.2593   -0.9164    1.8741 H   0  0  0  0  0  0  0  0  0  0  0  0
  1  2  1  0
  2  3  1  0
  3  4  1  0
  4  5  1  0
  5  6  1  0
  6  7  1  0
  7  8  1  0
  7  9  1  0
  7  3  1  0
  9  3  1  0
  9  5  1  0
  1 10  1  0
  2 11  1  0
  2 12  1  0
  4 13  1  0
  4 14  1  0
  5 15  1  0
  6 16  1  0
  6 17  1  0
  8 18  1  0
  9 19  1  0
M  END
$$$$
