
     RDKit          3D

 19 19  0  0  0  0  0  0  0  0999 V2000
   -2.3661    4.2577    1.2357 C   0  0  0  0  0  0  0  0  0  0  0  0
   -1.2034    3.2882    1.2849 C   0  0  0  0  0  0  0  0  0  0  0  0
   -0.1932    3.2045    0.1938 C   0  0  0  0  0  0  0  0  0  0  0  0
   -1.1187    2.0067    0.4369 C   0  0  0  0  0  0  0  0  0  0  0  0
   -0.5345    0.7520    1.0815 C   0  0  0  0  0  0  0  0  0  0  0  0
    0.4190    0.0437    0.1371 C   0  0  0  0  0  0  0  0  0  0  0  0
    1.6117   -0.0071    0.3056 O   0  0  0  0  0  0  0  0  0  0  0  0
   -2.1616    1.7602   -0.5863 C   0  0  0  0  0  0  0  0  0  0  0  0
   -2.5644    0.6614   -0.8916 O   0  0  0  0  0  0  0  0  0  0  0  0
   -3.2381    3.8683    1.7710 H   0  0  0  0  0  0  0  0  0  0  0  0
   -2.0772    5.2013    1.7108 H   0  0  0  0  0  0  0  0  0  0  0  0
   -2.6741    4.4917    0.2137 H   0  0  0  0  0  0  0  0  0  0  0  0
   -0.8171    3.1273    2.2880 H   0  0  0  0  0  0  0  0  0  0  0  0
   -0.3673    3.7892   -0.7047 H   0  0  0  0  0  0  0  0  0  0  0  0
    0.8531    3.0525    0.4354 H   0  0  0  0  0  0  0  0  0  0  0  0
    0.0195    1.0063    1.9887 H   0  0  0  0  0  0  0  0  0  0  0  0
   -1.3559    0.0712    1.3328 H   0  0  0  0  0  0  0  0  0  0  0  0
   -0.0602   -0.4141   -0.7534 H   0  0  0  0  0  0  0  0  0  0  0  0
   -2.5615    2.6686   -1.0857 H   0  0  0  0  0  0  0  0  0  0  0  0
  1  2  1  0
  2  3  1  0
  3  4  1  0
  4  5  1  0
  5  6  1  0
  6  7  2  0
  4  8  1  0
  8  9  2  0
  4  2  1  0
  1 10  1  0
  1 11  1  0
  1 12  1  0
  2 13  1  0
  3 14  1  0
  3 15  1  0
  5 16  1  0
  5 17  1  0
  6 18  1  0
  8 19  1  0
M  END
$$$$
