gdb 1157	3.9197704	1.0472103	1.0090946	1.8321	76.36	-0.25354	0.01483	0.26837	1274.6742	0.155537	-422.559902	-422.550869	-422.549925	-422.594644	32.654
 OpenBabel02181911403D

 19 20  0  0  1  0  0  0  0  0999 V2000
   -0.1935    2.4173   -0.7877 C   0  0  0  0  0  0  0  0  0  0  0  0
    0.5331    1.1086   -0.5958 C   0  0  0  0  0  0  0  0  0  0  0  0
    0.0352    0.0144   -0.6057 O   0  0  0  0  0  0  0  0  0  0  0  0
    1.8630    1.3299   -0.4129 O   0  0  0  0  0  0  0  0  0  0  0  0
    2.6477    0.1850   -0.2063 C   0  0  2  0  0  0  0  0  0  0  0  0
    2.8516   -0.3852    1.1586 C   0  0  0  0  0  0  0  0  0  0  0  0
    4.0431    0.1463    0.3851 C   0  0  1  0  0  0  0  0  0  0  0  0
    4.4638   -0.8808   -0.6767 C   0  0  0  0  0  0  0  0  0  0  0  0
    3.0286   -0.8025   -1.3049 C   0  0  0  0  0  0  0  0  0  0  0  0
   -1.2540    2.2242   -0.9438 H   0  0  0  0  0  0  0  0  0  0  0  0
   -0.0545    3.0549    0.0902 H   0  0  0  0  0  0  0  0  0  0  0  0
    0.2201    2.9537   -1.6463 H   0  0  0  0  0  0  0  0  0  0  0  0
    2.5168    0.2595    1.9648 H   0  0  0  0  0  0  0  0  0  0  0  0
    2.7312   -1.4499    1.3460 H   0  0  0  0  0  0  0  0  0  0  0  0
    4.6531    0.9534    0.7708 H   0  0  0  0  0  0  0  0  0  0  0  0
    5.2365   -0.5144   -1.3554 H   0  0  0  0  0  0  0  0  0  0  0  0
    4.7691   -1.8574   -0.2887 H   0  0  0  0  0  0  0  0  0  0  0  0
    3.0446   -0.3340   -2.2915 H   0  0  0  0  0  0  0  0  0  0  0  0
    2.4349   -1.7183   -1.3517 H   0  0  0  0  0  0  0  0  0  0  0  0
  1  2  1  0  0  0  0
  1 11  1  0  0  0  0
  2  4  1  0  0  0  0
  3  2  2  0  0  0  0
  5  4  1  6  0  0  0
  5  7  1  0  0  0  0
  5  6  1  0  0  0  0
  6 14  1  0  0  0  0
  6 13  1  0  0  0  0
  7 15  1  1  0  0  0
  7  6  1  0  0  0  0
  8 17  1  0  0  0  0
  8  7  1  0  0  0  0
  9  8  1  0  0  0  0
  9  5  1  0  0  0  0
 10  1  1  0  0  0  0
 12  1  1  0  0  0  0
 16  8  1  0  0  0  0
 18  9  1  0  0  0  0
 19  9  1  0  0  0  0
M TOR 0 0 1 3 4
M TOR 1 1 3 4 5
M TOR 2 1 3 4 6
M TOR 3 1 3 4 8
M TOR 4 2 1 0 9
M TOR 5 2 1 0 10
M TOR 6 2 1 0 11
M TOR 7 2 1 3 4
M TOR 8 3 1 0 9
M TOR 9 3 1 0 10
M TOR 10 3 1 0 11
M TOR 11 3 4 5 6
M TOR 12 3 4 5 12
M TOR 13 3 4 5 13
M TOR 14 3 4 6 7
M TOR 15 3 4 6 14
M TOR 16 3 4 8 7
M TOR 17 3 4 8 17
M TOR 18 3 4 8 18
M TOR 19 4 5 6 7
M TOR 20 4 5 6 14
M TOR 21 4 6 5 12
M TOR 22 4 6 5 13
M TOR 23 4 6 7 8
M TOR 24 4 6 7 15
M TOR 25 4 6 7 16
M TOR 26 4 8 7 15
M TOR 27 4 8 7 16
M TOR 28 5 4 8 7
M TOR 29 5 4 8 17
M TOR 30 5 4 8 18
M TOR 31 5 6 4 8
M TOR 32 5 6 7 8
M TOR 33 5 6 7 15
M TOR 34 5 6 7 16
M TOR 35 6 4 8 17
M TOR 36 6 4 8 18
M TOR 37 6 7 8 17
M TOR 38 6 7 8 18
M TOR 39 7 6 5 12
M TOR 40 7 6 5 13
M TOR 41 8 4 5 12
M TOR 42 8 4 5 13
M TOR 43 8 4 6 14
M TOR 44 8 7 6 14
M  END
$$$$
