
     RDKit          3D

 19 20  0  0  0  0  0  0  0  0999 V2000
   -2.7503   -1.6699   -3.2073 O   0  0  0  0  0  0  0  0  0  0  0  0
   -2.0410   -0.9997   -2.1866 C   0  0  0  0  0  0  0  0  0  0  0  0
   -2.9180   -0.1790   -1.2151 C   0  0  0  0  0  0  0  0  0  0  0  0
   -2.0327    0.0801    0.0109 C   0  0  0  0  0  0  0  0  0  0  0  0
   -0.9368    1.1814   -0.1476 C   0  0  0  0  0  0  0  0  0  0  0  0
    0.1200    0.0683   -0.2401 C   0  0  0  0  0  0  0  0  0  0  0  0
    1.3023    0.0581   -0.4263 O   0  0  0  0  0  0  0  0  0  0  0  0
   -0.9246   -1.0445   -0.0265 C   0  0  0  0  0  0  0  0  0  0  0  0
   -1.2127   -1.9146   -1.2591 C   0  0  0  0  0  0  0  0  0  0  0  0
   -3.3728   -2.2738   -2.7871 H   0  0  0  0  0  0  0  0  0  0  0  0
   -1.3623   -0.3267   -2.7249 H   0  0  0  0  0  0  0  0  0  0  0  0
   -3.3100    0.7334   -1.6736 H   0  0  0  0  0  0  0  0  0  0  0  0
   -3.7814   -0.7943   -0.9263 H   0  0  0  0  0  0  0  0  0  0  0  0
   -2.6027    0.1632    0.9362 H   0  0  0  0  0  0  0  0  0  0  0  0
   -1.0059    1.8251   -1.0308 H   0  0  0  0  0  0  0  0  0  0  0  0
   -0.8001    1.8228    0.7288 H   0  0  0  0  0  0  0  0  0  0  0  0
   -0.7529   -1.6238    0.8842 H   0  0  0  0  0  0  0  0  0  0  0  0
   -0.3057   -2.2934   -1.7367 H   0  0  0  0  0  0  0  0  0  0  0  0
   -1.8240   -2.7801   -0.9701 H   0  0  0  0  0  0  0  0  0  0  0  0
  1  2  1  0
  2  3  1  0
  3  4  1  0
  4  5  1  0
  5  6  1  0
  6  7  2  0
  6  8  1  0
  8  9  1  0
  9  2  1  0
  8  4  1  0
  1 10  1  0
  2 11  1  0
  3 12  1  0
  3 13  1  0
  4 14  1  0
  5 15  1  0
  5 16  1  0
  8 17  1  0
  9 18  1  0
  9 19  1  0
M  END
$$$$
