
     RDKit          3D

 19 21  0  0  0  0  0  0  0  0999 V2000
    0.9396    1.3182   -0.0796 C   0  0  0  0  0  0  0  0  0  0  0  0
    1.4308   -0.1143   -0.1847 C   0  0  0  0  0  0  0  0  0  0  0  0
   -0.0276    0.1887    0.0395 C   0  0  0  0  0  0  0  0  0  0  0  0
   -0.9300    0.0149   -1.0287 O   0  0  0  0  0  0  0  0  0  0  0  0
   -1.7942   -1.0603   -0.6658 C   0  0  0  0  0  0  0  0  0  0  0  0
   -2.0669   -0.8418    0.8281 C   0  0  0  0  0  0  0  0  0  0  0  0
   -0.7399   -0.2567    1.3064 C   0  0  0  0  0  0  0  0  0  0  0  0
   -0.5295    0.2907    2.6479 C   0  0  0  0  0  0  0  0  0  0  0  0
    0.0138   -0.9845    2.2802 O   0  0  0  0  0  0  0  0  0  0  0  0
    1.1875    1.8925    0.8066 H   0  0  0  0  0  0  0  0  0  0  0  0
    0.8860    1.8986   -0.9941 H   0  0  0  0  0  0  0  0  0  0  0  0
    1.7069   -0.4756   -1.1687 H   0  0  0  0  0  0  0  0  0  0  0  0
    1.9856   -0.5332    0.6467 H   0  0  0  0  0  0  0  0  0  0  0  0
   -2.6829   -1.0004   -1.2974 H   0  0  0  0  0  0  0  0  0  0  0  0
   -1.3015   -2.0295   -0.8377 H   0  0  0  0  0  0  0  0  0  0  0  0
   -2.8729   -0.1135    0.9618 H   0  0  0  0  0  0  0  0  0  0  0  0
   -2.3184   -1.7523    1.3757 H   0  0  0  0  0  0  0  0  0  0  0  0
    0.2021    1.0807    2.8111 H   0  0  0  0  0  0  0  0  0  0  0  0
   -1.3412    0.2620    3.3750 H   0  0  0  0  0  0  0  0  0  0  0  0
  1  2  1  0
  2  3  1  0
  3  4  1  0
  4  5  1  0
  5  6  1  0
  6  7  1  0
  7  8  1  0
  8  9  1  0
  3  1  1  0
  7  3  1  0
  9  7  1  0
  1 10  1  0
  1 11  1  0
  2 12  1  0
  2 13  1  0
  5 14  1  0
  5 15  1  0
  6 16  1  0
  6 17  1  0
  8 18  1  0
  8 19  1  0
M  END
$$$$
