gdb 3361	3.8296783	1.1495961	1.0801395	3.0435	75.96	-0.24024	-0.0292	0.21104	1175.5597	0.157316	-422.546507	-422.538318	-422.537374	-422.579439	30.882
 OpenBabel02181911413D

 19 20  0  0  1  0  0  0  0  0999 V2000
   -0.1732    0.0132    0.0152 C   0  0  0  0  0  0  0  0  0  0  0  0
    1.3408   -0.0728    0.1038 C   0  0  2  0  0  0  0  0  0  0  0  0
    2.1984   -0.8298   -0.9747 C   0  0  2  0  0  0  0  0  0  0  0  0
    1.5638   -2.2206   -0.9141 C   0  0  0  0  0  0  0  0  0  0  0  0
    1.4684   -2.3898    0.5210 O   0  0  0  0  0  0  0  0  0  0  0  0
    2.0075   -1.1455    1.0044 C   0  0  1  0  0  0  0  0  0  0  0  0
    3.2983   -0.9505    0.1541 C   0  0  1  0  0  0  0  0  0  0  0  0
    4.3334   -2.0370    0.1254 C   0  0  0  0  0  0  0  0  0  0  0  0
    5.5194   -1.8242    0.0431 O   0  0  0  0  0  0  0  0  0  0  0  0
   -0.5717    0.5758    0.8659 H   0  0  0  0  0  0  0  0  0  0  0  0
   -0.4878    0.5312   -0.8973 H   0  0  0  0  0  0  0  0  0  0  0  0
   -0.6370   -0.9759    0.0302 H   0  0  0  0  0  0  0  0  0  0  0  0
    1.7795    0.9107    0.2899 H   0  0  0  0  0  0  0  0  0  0  0  0
    2.4276   -0.4092   -1.9529 H   0  0  0  0  0  0  0  0  0  0  0  0
    0.5684   -2.2622   -1.3685 H   0  0  0  0  0  0  0  0  0  0  0  0
    2.1791   -3.0152   -1.3482 H   0  0  0  0  0  0  0  0  0  0  0  0
    1.9912   -1.1400    2.0932 H   0  0  0  0  0  0  0  0  0  0  0  0
    3.7878    0.0092    0.3243 H   0  0  0  0  0  0  0  0  0  0  0  0
    3.9438   -3.0734    0.2051 H   0  0  0  0  0  0  0  0  0  0  0  0
  1 12  1  0  0  0  0
  1  2  1  0  0  0  0
  1 10  1  0  0  0  0
  2 13  1  1  0  0  0
  2  6  1  0  0  0  0
  3 14  1  6  0  0  0
  3  4  1  0  0  0  0
  3  2  1  0  0  0  0
  3  7  1  0  0  0  0
  4  5  1  0  0  0  0
  5  6  1  0  0  0  0
  6 17  1  1  0  0  0
  7 18  1  1  0  0  0
  7  6  1  0  0  0  0
  8  7  1  0  0  0  0
  8 19  1  0  0  0  0
  9  8  2  0  0  0  0
 11  1  1  0  0  0  0
 15  4  1  0  0  0  0
 16  4  1  0  0  0  0
M TOR 0 0 1 2 3
M TOR 1 0 1 2 6
M TOR 2 0 1 2 13
M TOR 3 0 1 5 4
M TOR 4 0 1 5 6
M TOR 5 0 1 5 16
M TOR 6 1 2 3 4
M TOR 7 1 2 3 14
M TOR 8 1 2 3 15
M TOR 9 1 2 6 5
M TOR 10 1 2 6 7
M TOR 11 1 2 6 17
M TOR 12 1 5 4 3
M TOR 13 1 5 6 7
M TOR 14 1 5 6 17
M TOR 15 2 1 0 9
M TOR 16 2 1 0 10
M TOR 17 2 1 0 11
M TOR 18 2 1 5 4
M TOR 19 2 1 5 16
M TOR 20 2 3 4 5
M TOR 21 2 6 5 4
M TOR 22 2 6 5 16
M TOR 23 2 6 7 8
M TOR 24 2 6 7 18
M TOR 25 3 2 1 5
M TOR 26 3 2 1 12
M TOR 27 3 2 6 5
M TOR 28 3 2 6 7
M TOR 29 3 2 6 17
M TOR 30 3 4 5 6
M TOR 31 3 4 5 16
M TOR 32 4 3 2 6
M TOR 33 4 3 2 13
M TOR 34 4 5 1 12
M TOR 35 4 5 6 7
M TOR 36 4 5 6 17
M TOR 37 5 1 0 9
M TOR 38 5 1 0 10
M TOR 39 5 1 0 11
M TOR 40 5 1 2 13
M TOR 41 5 4 3 14
M TOR 42 5 4 3 15
M TOR 43 5 6 2 13
M TOR 44 5 6 7 8
M TOR 45 5 6 7 18
M TOR 46 6 2 1 12
M TOR 47 6 2 3 14
M TOR 48 6 2 3 15
M TOR 49 6 5 1 12
M TOR 50 7 6 2 13
M TOR 51 7 6 5 16
M TOR 52 8 7 6 17
M  END
$$$$
