gdb 5256	3.6872035	1.3123557	1.1642855	1.5862	73.97	-0.22466	0.0683	0.29296	1090.5886	0.158183	-422.527391	-422.519536	-422.518592	-422.559909	30.454
 OpenBabel02181911423D

 19 21  0  0  1  0  0  0  0  0999 V2000
    1.3936   -0.0914    1.0891 O   0  0  0  0  0  0  0  0  0  0  0  0
    0.3344    0.1561    0.1812 C   0  0  0  0  0  0  0  0  0  0  0  0
   -0.8913    0.7102    0.8534 C   0  0  2  0  0  0  0  0  0  0  0  0
   -1.9692    1.1068   -0.0016 O   0  0  0  0  0  0  0  0  0  0  0  0
   -2.9061    0.8654    1.1083 C   0  0  2  0  0  0  0  0  0  0  0  0
   -3.2340    2.2173    1.7312 C   0  0  0  0  0  0  0  0  0  0  0  0
   -1.8353    2.7453    2.1660 C   0  0  0  0  0  0  0  0  0  0  0  0
   -0.9457    1.4999    2.1522 C   0  0  1  0  0  0  0  0  0  0  0  0
   -1.7812    0.2419    1.9589 C   0  0  2  0  0  0  0  0  0  0  0  0
    1.7285    0.7611    1.3841 H   0  0  0  0  0  0  0  0  0  0  0  0
    0.6297    0.8460   -0.6255 H   0  0  0  0  0  0  0  0  0  0  0  0
    0.0984   -0.8047   -0.2879 H   0  0  0  0  0  0  0  0  0  0  0  0
   -3.7470    0.2469    0.7904 H   0  0  0  0  0  0  0  0  0  0  0  0
   -3.7351    2.8789    1.0193 H   0  0  0  0  0  0  0  0  0  0  0  0
   -3.8964    2.0799    2.5940 H   0  0  0  0  0  0  0  0  0  0  0  0
   -1.4695    3.5075    1.4717 H   0  0  0  0  0  0  0  0  0  0  0  0
   -1.8630    3.1962    3.1619 H   0  0  0  0  0  0  0  0  0  0  0  0
   -0.0802    1.4311    2.8016 H   0  0  0  0  0  0  0  0  0  0  0  0
   -1.7888   -0.6468    2.5738 H   0  0  0  0  0  0  0  0  0  0  0  0
  1 10  1  0  0  0  0
  2  1  1  0  0  0  0
  3  2  1  6  0  0  0
  3  9  1  0  0  0  0
  3  8  1  0  0  0  0
  4  3  1  0  0  0  0
  4  5  1  0  0  0  0
  5 13  1  6  0  0  0
  5  6  1  0  0  0  0
  5  9  1  0  0  0  0
  6  7  1  0  0  0  0
  6 15  1  0  0  0  0
  7 17  1  0  0  0  0
  8  7  1  0  0  0  0
  8 18  1  1  0  0  0
  9  8  1  0  0  0  0
  9 19  1  1  0  0  0
 11  2  1  0  0  0  0
 12  2  1  0  0  0  0
 14  6  1  0  0  0  0
 16  7  1  0  0  0  0
M TOR 0 0 1 2 3
M TOR 1 0 1 2 7
M TOR 2 0 1 2 8
M TOR 3 1 2 3 4
M TOR 4 1 2 7 6
M TOR 5 1 2 7 8
M TOR 6 1 2 7 17
M TOR 7 1 2 8 4
M TOR 8 1 2 8 18
M TOR 9 2 1 0 9
M TOR 10 2 3 4 5
M TOR 11 2 3 4 8
M TOR 12 2 3 4 12
M TOR 13 2 7 6 5
M TOR 14 2 7 6 15
M TOR 15 2 7 6 16
M TOR 16 2 7 8 4
M TOR 17 2 7 8 18
M TOR 18 2 8 4 5
M TOR 19 2 8 4 12
M TOR 20 2 8 7 6
M TOR 21 2 8 7 17
M TOR 22 3 2 1 10
M TOR 23 3 2 1 11
M TOR 24 3 2 7 6
M TOR 25 3 2 7 8
M TOR 26 3 2 7 17
M TOR 27 3 2 8 18
M TOR 28 3 4 5 6
M TOR 29 3 4 5 13
M TOR 30 3 4 5 14
M TOR 31 3 4 8 7
M TOR 32 3 4 8 18
M TOR 33 4 3 2 7
M TOR 34 4 5 6 7
M TOR 35 4 5 6 15
M TOR 36 4 5 6 16
M TOR 37 4 8 7 6
M TOR 38 4 8 7 17
M TOR 39 5 4 8 7
M TOR 40 5 4 8 18
M TOR 41 5 6 7 8
M TOR 42 5 6 7 17
M TOR 43 6 5 4 8
M TOR 44 6 5 4 12
M TOR 45 6 7 8 18
M TOR 46 7 2 1 10
M TOR 47 7 2 1 11
M TOR 48 7 6 5 13
M TOR 49 7 6 5 14
M TOR 50 7 8 4 12
M TOR 51 8 2 1 10
M TOR 52 8 2 1 11
M TOR 53 8 4 5 13
M TOR 54 8 4 5 14
M TOR 55 8 7 6 15
M TOR 56 8 7 6 16
M  END
$$$$
