
     RDKit          3D

 19 21  0  0  0  0  0  0  0  0999 V2000
    1.3867    1.3006   -0.0969 C   0  0  0  0  0  0  0  0  0  0  0  0
    1.1553   -0.2006    0.0353 C   0  0  0  0  0  0  0  0  0  0  0  0
    1.7733   -1.0564   -1.1007 C   0  0  0  0  0  0  0  0  0  0  0  0
    3.1854   -0.7012   -1.0108 O   0  0  0  0  0  0  0  0  0  0  0  0
    3.1548   -1.4728    0.1945 C   0  0  0  0  0  0  0  0  0  0  0  0
    2.0457   -2.4080   -0.3361 C   0  0  0  0  0  0  0  0  0  0  0  0
    1.3495   -2.3679    1.0303 C   0  0  0  0  0  0  0  0  0  0  0  0
    1.9632   -3.3380    1.8579 O   0  0  0  0  0  0  0  0  0  0  0  0
    1.9576   -0.9426    1.1302 C   0  0  0  0  0  0  0  0  0  0  0  0
    1.0453    1.8264    0.8008 H   0  0  0  0  0  0  0  0  0  0  0  0
    2.4461    1.5174   -0.2462 H   0  0  0  0  0  0  0  0  0  0  0  0
    0.8325    1.7076   -0.9504 H   0  0  0  0  0  0  0  0  0  0  0  0
    0.0834   -0.4056    0.1412 H   0  0  0  0  0  0  0  0  0  0  0  0
    1.3702   -0.9976   -2.1114 H   0  0  0  0  0  0  0  0  0  0  0  0
    4.1202   -1.7485    0.6096 H   0  0  0  0  0  0  0  0  0  0  0  0
    2.2261   -3.3200   -0.9012 H   0  0  0  0  0  0  0  0  0  0  0  0
    0.2537   -2.4399    1.0739 H   0  0  0  0  0  0  0  0  0  0  0  0
    1.7248   -3.1411    2.7694 H   0  0  0  0  0  0  0  0  0  0  0  0
    2.1175   -0.4522    2.0904 H   0  0  0  0  0  0  0  0  0  0  0  0
  1  2  1  0
  2  3  1  0
  3  4  1  0
  4  5  1  0
  5  6  1  0
  6  7  1  0
  7  8  1  0
  7  9  1  0
  9  2  1  0
  6  3  1  0
  9  5  1  0
  1 10  1  0
  1 11  1  0
  1 12  1  0
  2 13  1  0
  3 14  1  0
  5 15  1  0
  6 16  1  0
  7 17  1  0
  8 18  1  0
  9 19  1  0
M  END
$$$$
