gdb 2363	2.8561827	1.6885791	1.307568	0.897	74.15	-0.24404	0.06358	0.30762	1009.6015	0.157593	-422.512048	-422.50432	-422.503376	-422.544126	30.365
 OpenBabel02181911413D

 19 21  0  0  1  0  0  0  0  0999 V2000
    0.1256    0.2024    0.0969 O   0  0  0  0  0  0  0  0  0  0  0  0
   -0.7929    0.6515    1.0422 C   0  0  1  0  0  0  0  0  0  0  0  0
   -1.1094    2.1520    0.8944 C   0  0  0  0  0  0  0  0  0  0  0  0
   -2.6341    1.8621    1.0193 C   0  0  0  0  0  0  0  0  0  0  0  0
   -2.3629    0.3372    1.0960 C   0  0  2  0  0  0  0  0  0  0  0  0
   -2.1802   -0.1572    2.5313 C   0  0  1  0  0  0  0  0  0  0  0  0
   -1.8775   -1.5684    2.5847 O   0  0  0  0  0  0  0  0  0  0  0  0
   -0.4632   -1.3107    2.7070 C   0  0  0  0  0  0  0  0  0  0  0  0
   -0.6552    0.1994    2.5205 C   0  0  1  0  0  0  0  0  0  0  0  0
    0.2054   -0.7552    0.1670 H   0  0  0  0  0  0  0  0  0  0  0  0
   -0.6620    2.8162    1.6393 H   0  0  0  0  0  0  0  0  0  0  0  0
   -0.8265    2.5010   -0.1009 H   0  0  0  0  0  0  0  0  0  0  0  0
   -3.1199    2.2816    1.9056 H   0  0  0  0  0  0  0  0  0  0  0  0
   -3.2125    2.1644    0.1446 H   0  0  0  0  0  0  0  0  0  0  0  0
   -2.8941   -0.3254    0.4123 H   0  0  0  0  0  0  0  0  0  0  0  0
   -2.8974    0.1483    3.2989 H   0  0  0  0  0  0  0  0  0  0  0  0
   -0.0865   -1.5947    3.6982 H   0  0  0  0  0  0  0  0  0  0  0  0
    0.1313   -1.8495    1.9543 H   0  0  0  0  0  0  0  0  0  0  0  0
   -0.1445    0.8682    3.2140 H   0  0  0  0  0  0  0  0  0  0  0  0
  1 10  1  0  0  0  0
  2  1  1  6  0  0  0
  2  5  1  0  0  0  0
  2  9  1  0  0  0  0
  3  4  1  0  0  0  0
  3  2  1  0  0  0  0
  3 11  1  0  0  0  0
  4  5  1  0  0  0  0
  4 13  1  0  0  0  0
  5 15  1  6  0  0  0
  5  6  1  0  0  0  0
  6  7  1  0  0  0  0
  6 16  1  1  0  0  0
  7  8  1  0  0  0  0
  8 17  1  0  0  0  0
  9  6  1  0  0  0  0
  9  8  1  0  0  0  0
  9 19  1  1  0  0  0
 12  3  1  0  0  0  0
 14  4  1  0  0  0  0
 18  8  1  0  0  0  0
M TOR 0 0 1 2 3
M TOR 1 0 1 2 10
M TOR 2 0 1 2 11
M TOR 3 0 1 4 3
M TOR 4 0 1 4 5
M TOR 5 0 1 4 14
M TOR 6 0 1 8 5
M TOR 7 0 1 8 7
M TOR 8 0 1 8 18
M TOR 9 1 2 3 4
M TOR 10 1 2 3 12
M TOR 11 1 2 3 13
M TOR 12 1 4 3 12
M TOR 13 1 4 3 13
M TOR 14 1 4 5 6
M TOR 15 1 4 5 8
M TOR 16 1 4 5 15
M TOR 17 1 8 5 6
M TOR 18 1 8 5 15
M TOR 19 1 8 7 6
M TOR 20 1 8 7 16
M TOR 21 1 8 7 17
M TOR 22 2 1 0 9
M TOR 23 2 1 4 5
M TOR 24 2 1 4 14
M TOR 25 2 1 8 5
M TOR 26 2 1 8 7
M TOR 27 2 1 8 18
M TOR 28 2 3 4 5
M TOR 29 2 3 4 14
M TOR 30 3 2 1 8
M TOR 31 3 4 1 8
M TOR 32 3 4 5 6
M TOR 33 3 4 5 8
M TOR 34 3 4 5 15
M TOR 35 4 1 0 9
M TOR 36 4 1 2 10
M TOR 37 4 1 2 11
M TOR 38 4 1 8 7
M TOR 39 4 1 8 18
M TOR 40 4 3 2 10
M TOR 41 4 3 2 11
M TOR 42 4 5 6 7
M TOR 43 4 5 8 7
M TOR 44 4 5 8 18
M TOR 45 5 4 3 12
M TOR 46 5 4 3 13
M TOR 47 5 6 7 8
M TOR 48 5 6 7 16
M TOR 49 5 6 7 17
M TOR 50 5 8 7 16
M TOR 51 5 8 7 17
M TOR 52 6 5 4 14
M TOR 53 6 5 8 18
M TOR 54 6 7 8 18
M TOR 55 7 6 5 15
M TOR 56 7 8 5 15
M TOR 57 8 1 0 9
M TOR 58 8 1 2 10
M TOR 59 8 1 2 11
M TOR 60 8 1 4 14
M TOR 61 8 5 4 14
M  END
$$$$
