gdb 6076	2.7559182	0.8346547	0.6657158	3.3756	80.45	-0.24951	-0.02757	0.22194	1685.158	0.152392	-422.519611	-422.508784	-422.50784	-422.556858	36.704
 OpenBabel02181911423D

 19 18  0  0  1  0  0  0  0  0999 V2000
    6.5835   -2.1076    1.4734 C   0  0  0  0  0  0  0  0  0  0  0  0
    5.0805   -2.2038    1.6674 C   0  0  0  0  0  0  0  0  0  0  0  0
    4.4583   -1.2256    0.8525 O   0  0  0  0  0  0  0  0  0  0  0  0
    3.0568   -1.2213    0.9503 C   0  0  0  0  0  0  0  0  0  0  0  0
    2.5416   -0.0980    0.0360 C   0  0  2  0  0  0  0  0  0  0  0  0
    3.1408    1.2446    0.4866 C   0  0  0  0  0  0  0  0  0  0  0  0
    3.7303    1.9983   -0.2343 O   0  0  0  0  0  0  0  0  0  0  0  0
    1.0883   -0.0036    0.0925 C   0  0  0  0  0  0  0  0  0  0  0  0
   -0.1060    0.1001    0.1806 C   0  0  0  0  0  0  0  0  0  0  0  0
    7.0940   -2.8518    2.0916 H   0  0  0  0  0  0  0  0  0  0  0  0
    6.8472   -2.2838    0.4270 H   0  0  0  0  0  0  0  0  0  0  0  0
    6.9436   -1.1143    1.7550 H   0  0  0  0  0  0  0  0  0  0  0  0
    4.7148   -3.2072    1.3931 H   0  0  0  0  0  0  0  0  0  0  0  0
    4.8115   -2.0396    2.7240 H   0  0  0  0  0  0  0  0  0  0  0  0
    2.6231   -2.1837    0.6378 H   0  0  0  0  0  0  0  0  0  0  0  0
    2.7291   -1.0347    1.9871 H   0  0  0  0  0  0  0  0  0  0  0  0
    2.8836   -0.2771   -0.9886 H   0  0  0  0  0  0  0  0  0  0  0  0
    2.9596    1.4701    1.5616 H   0  0  0  0  0  0  0  0  0  0  0  0
   -1.1632    0.1863    0.2357 H   0  0  0  0  0  0  0  0  0  0  0  0
  1  2  1  0  0  0  0
  1 12  1  0  0  0  0
  1 10  1  0  0  0  0
  2 14  1  0  0  0  0
  3  4  1  0  0  0  0
  3  2  1  0  0  0  0
  4 16  1  0  0  0  0
  5 17  1  6  0  0  0
  5  8  1  0  0  0  0
  5  6  1  0  0  0  0
  5  4  1  0  0  0  0
  6 18  1  0  0  0  0
  7  6  2  0  0  0  0
  8  9  3  0  0  0  0
  9 19  1  0  0  0  0
 11  1  1  0  0  0  0
 13  2  1  0  0  0  0
 15  4  1  0  0  0  0
M TOR 0 0 1 2 3
M TOR 1 1 2 3 4
M TOR 2 1 2 3 14
M TOR 3 1 2 3 15
M TOR 4 2 1 0 9
M TOR 5 2 1 0 10
M TOR 6 2 1 0 11
M TOR 7 2 3 4 5
M TOR 8 2 3 4 7
M TOR 9 2 3 4 16
M TOR 10 3 2 1 12
M TOR 11 3 2 1 13
M TOR 12 3 4 5 6
M TOR 13 3 4 5 17
M TOR 14 3 4 7 8
M TOR 15 4 7 8 18
M TOR 16 5 4 3 14
M TOR 17 5 4 3 15
M TOR 18 5 4 7 8
M TOR 19 6 5 4 7
M TOR 20 6 5 4 16
M TOR 21 7 4 3 14
M TOR 22 7 4 3 15
M TOR 23 7 4 5 17
M TOR 24 8 7 4 16
M  END
$$$$
