
     RDKit          3D

 19 21  0  0  0  0  0  0  0  0999 V2000
    0.7779    0.4229    0.6792 O   0  0  0  0  0  0  0  0  0  0  0  0
   -0.6256    0.5686    0.7792 C   0  0  0  0  0  0  0  0  0  0  0  0
   -1.0628    2.0469    0.6540 C   0  0  0  0  0  0  0  0  0  0  0  0
   -0.2285    2.6273    1.8187 C   0  0  0  0  0  0  0  0  0  0  0  0
   -1.0519    1.8459    2.8558 C   0  0  0  0  0  0  0  0  0  0  0  0
   -2.3121    2.5139    2.6520 O   0  0  0  0  0  0  0  0  0  0  0  0
   -2.5318    2.0061    1.3271 C   0  0  0  0  0  0  0  0  0  0  0  0
   -2.7451    0.5261    1.7111 C   0  0  0  0  0  0  0  0  0  0  0  0
   -1.2808    0.3959    2.1812 C   0  0  0  0  0  0  0  0  0  0  0  0
    0.9847   -0.5068    0.8131 H   0  0  0  0  0  0  0  0  0  0  0  0
   -1.1114   -0.0826    0.0421 H   0  0  0  0  0  0  0  0  0  0  0  0
   -0.9864    2.5148   -0.3259 H   0  0  0  0  0  0  0  0  0  0  0  0
    0.8237    2.3637    1.7359 H   0  0  0  0  0  0  0  0  0  0  0  0
   -0.3474    3.6992    1.9794 H   0  0  0  0  0  0  0  0  0  0  0  0
   -0.7694    1.8714    3.9066 H   0  0  0  0  0  0  0  0  0  0  0  0
   -3.3288    2.5557    0.8294 H   0  0  0  0  0  0  0  0  0  0  0  0
   -3.5001    0.4548    2.4945 H   0  0  0  0  0  0  0  0  0  0  0  0
   -2.9913   -0.1625    0.8992 H   0  0  0  0  0  0  0  0  0  0  0  0
   -0.9958   -0.4730    2.7741 H   0  0  0  0  0  0  0  0  0  0  0  0
  1  2  1  0
  2  3  1  0
  3  4  1  0
  4  5  1  0
  5  6  1  0
  6  7  1  0
  7  8  1  0
  8  9  1  0
  9  2  1  0
  7  3  1  0
  9  5  1  0
  1 10  1  0
  2 11  1  0
  3 12  1  0
  4 13  1  0
  4 14  1  0
  5 15  1  0
  7 16  1  0
  8 17  1  0
  8 18  1  0
  9 19  1  0
M  END
$$$$
