
     RDKit          3D

 19 20  0  0  0  0  0  0  0  0999 V2000
    1.6248    0.8871   -2.9095 O   0  0  0  0  0  0  0  0  0  0  0  0
    1.2885    2.1452   -2.3233 C   0  0  0  0  0  0  0  0  0  0  0  0
    0.5018    1.8445   -1.0346 C   0  0  0  0  0  0  0  0  0  0  0  0
    1.5592    1.7193    0.1015 C   0  0  0  0  0  0  0  0  0  0  0  0
    2.0464    0.2881    0.2517 C   0  0  0  0  0  0  0  0  0  0  0  0
    2.0406   -0.3231    1.2905 O   0  0  0  0  0  0  0  0  0  0  0  0
    2.7101    2.6087   -0.3730 C   0  0  0  0  0  0  0  0  0  0  0  0
    2.3507    3.9936   -0.8534 C   0  0  0  0  0  0  0  0  0  0  0  0
    2.5339    2.8786   -1.8518 C   0  0  0  0  0  0  0  0  0  0  0  0
    2.2238    1.0491   -3.6456 H   0  0  0  0  0  0  0  0  0  0  0  0
    0.6890    2.7379   -3.0299 H   0  0  0  0  0  0  0  0  0  0  0  0
   -0.1878    2.6617   -0.8094 H   0  0  0  0  0  0  0  0  0  0  0  0
   -0.0984    0.9405   -1.1624 H   0  0  0  0  0  0  0  0  0  0  0  0
    1.1579    2.0283    1.0713 H   0  0  0  0  0  0  0  0  0  0  0  0
    2.4218   -0.1665   -0.6901 H   0  0  0  0  0  0  0  0  0  0  0  0
    3.6927    2.4564    0.0599 H   0  0  0  0  0  0  0  0  0  0  0  0
    1.3561    4.3835   -0.6633 H   0  0  0  0  0  0  0  0  0  0  0  0
    3.1313    4.7448   -0.8092 H   0  0  0  0  0  0  0  0  0  0  0  0
    3.3816    2.9247   -2.5287 H   0  0  0  0  0  0  0  0  0  0  0  0
  1  2  1  0
  2  3  1  0
  3  4  1  0
  4  5  1  0
  5  6  2  0
  4  7  1  0
  7  8  1  0
  8  9  1  0
  9  2  1  0
  9  7  1  0
  1 10  1  0
  2 11  1  0
  3 12  1  0
  3 13  1  0
  4 14  1  0
  5 15  1  0
  7 16  1  0
  8 17  1  0
  8 18  1  0
  9 19  1  0
M  END
$$$$
