
     RDKit          3D

 19 20  0  0  0  0  0  0  0  0999 V2000
   -0.1298   -0.0045    0.2727 C   0  0  0  0  0  0  0  0  0  0  0  0
    1.3820    0.1029    0.1684 C   0  0  0  0  0  0  0  0  0  0  0  0
    2.0303    0.0940   -1.2313 C   0  0  0  0  0  0  0  0  0  0  0  0
    2.5330    1.4776   -0.8417 C   0  0  0  0  0  0  0  0  0  0  0  0
    3.8828    2.0930   -0.9928 C   0  0  0  0  0  0  0  0  0  0  0  0
    2.6559    2.7303   -1.6381 C   0  0  0  0  0  0  0  0  0  0  0  0
    1.8536    1.4611    0.4241 O   0  0  0  0  0  0  0  0  0  0  0  0
    2.0624   -0.8022    1.1868 C   0  0  0  0  0  0  0  0  0  0  0  0
    2.6789   -1.8008    0.9226 O   0  0  0  0  0  0  0  0  0  0  0  0
   -0.4638    0.2013    1.2952 H   0  0  0  0  0  0  0  0  0  0  0  0
   -0.6005    0.7235   -0.3936 H   0  0  0  0  0  0  0  0  0  0  0  0
   -0.4633   -1.0096   -0.0062 H   0  0  0  0  0  0  0  0  0  0  0  0
    2.7861   -0.6803   -1.3681 H   0  0  0  0  0  0  0  0  0  0  0  0
    1.3186    0.0749   -2.0592 H   0  0  0  0  0  0  0  0  0  0  0  0
    4.2994    2.5891   -0.1228 H   0  0  0  0  0  0  0  0  0  0  0  0
    4.6106    1.5991   -1.6285 H   0  0  0  0  0  0  0  0  0  0  0  0
    2.2750    3.6407   -1.1876 H   0  0  0  0  0  0  0  0  0  0  0  0
    2.5432    2.6735   -2.7161 H   0  0  0  0  0  0  0  0  0  0  0  0
    1.9532   -0.4343    2.2321 H   0  0  0  0  0  0  0  0  0  0  0  0
  1  2  1  0
  2  3  1  0
  3  4  1  0
  4  5  1  0
  5  6  1  0
  4  7  1  0
  2  8  1  0
  8  9  2  0
  7  2  1  0
  6  4  1  0
  1 10  1  0
  1 11  1  0
  1 12  1  0
  3 13  1  0
  3 14  1  0
  5 15  1  0
  5 16  1  0
  6 17  1  0
  6 18  1  0
  8 19  1  0
M  END
$$$$
