
     RDKit          3D

 19 19  0  0  0  0  0  0  0  0999 V2000
   -1.1275    1.7372    1.4886 C   0  0  0  0  0  0  0  0  0  0  0  0
   -0.8743    1.2998    0.0339 C   0  0  0  0  0  0  0  0  0  0  0  0
   -0.1753    2.4015   -0.7579 C   0  0  0  0  0  0  0  0  0  0  0  0
   -2.1056    1.0548   -0.6625 O   0  0  0  0  0  0  0  0  0  0  0  0
   -2.8674   -0.0487   -0.2344 C   0  0  0  0  0  0  0  0  0  0  0  0
   -2.0599   -1.2978   -0.0653 C   0  0  0  0  0  0  0  0  0  0  0  0
   -0.7262   -1.2602    0.0180 C   0  0  0  0  0  0  0  0  0  0  0  0
   -0.0050    0.0257    0.0557 C   0  0  0  0  0  0  0  0  0  0  0  0
    1.2027    0.0856    0.1746 O   0  0  0  0  0  0  0  0  0  0  0  0
   -1.6096    0.9498    2.0763 H   0  0  0  0  0  0  0  0  0  0  0  0
   -0.1784    1.9799    1.9732 H   0  0  0  0  0  0  0  0  0  0  0  0
   -1.7695    2.6228    1.4995 H   0  0  0  0  0  0  0  0  0  0  0  0
    0.8270    2.5658   -0.3600 H   0  0  0  0  0  0  0  0  0  0  0  0
   -0.0916    2.1125   -1.8086 H   0  0  0  0  0  0  0  0  0  0  0  0
   -0.7514    3.3287   -0.6982 H   0  0  0  0  0  0  0  0  0  0  0  0
   -3.4108    0.1629    0.7056 H   0  0  0  0  0  0  0  0  0  0  0  0
   -3.6360   -0.2006   -1.0018 H   0  0  0  0  0  0  0  0  0  0  0  0
   -2.6054   -2.2369   -0.0046 H   0  0  0  0  0  0  0  0  0  0  0  0
   -0.1175   -2.1531    0.1191 H   0  0  0  0  0  0  0  0  0  0  0  0
  1  2  1  0
  2  3  1  0
  2  4  1  0
  4  5  1  0
  5  6  1  0
  6  7  2  0
  7  8  1  0
  8  9  2  0
  8  2  1  0
  1 10  1  0
  1 11  1  0
  1 12  1  0
  3 13  1  0
  3 14  1  0
  3 15  1  0
  5 16  1  0
  5 17  1  0
  6 18  1  0
  7 19  1  0
M  END
$$$$
