
     RDKit          3D

 19 20  0  0  0  0  0  0  0  0999 V2000
    1.2446    0.8121    0.2173 C   0  0  0  0  0  0  0  0  0  0  0  0
   -0.0738    0.1104    0.2955 C   0  0  0  0  0  0  0  0  0  0  0  0
   -0.3151   -1.1624    0.6285 C   0  0  0  0  0  0  0  0  0  0  0  0
   -1.7867   -1.5199    0.5835 C   0  0  0  0  0  0  0  0  0  0  0  0
   -2.4446   -0.1977    0.2133 C   0  0  0  0  0  0  0  0  0  0  0  0
   -2.2530    0.8466    1.1720 O   0  0  0  0  0  0  0  0  0  0  0  0
   -1.3808    0.8087    0.0159 C   0  0  0  0  0  0  0  0  0  0  0  0
   -1.4775    2.0042   -0.8978 C   0  0  0  0  0  0  0  0  0  0  0  0
   -0.8807    1.7628   -2.1643 O   0  0  0  0  0  0  0  0  0  0  0  0
    1.2995    1.6385    0.9374 H   0  0  0  0  0  0  0  0  0  0  0  0
    2.0717    0.1281    0.4247 H   0  0  0  0  0  0  0  0  0  0  0  0
    1.3902    1.2457   -0.7782 H   0  0  0  0  0  0  0  0  0  0  0  0
    0.4429   -1.8728    0.9415 H   0  0  0  0  0  0  0  0  0  0  0  0
   -2.0041   -2.2923   -0.1662 H   0  0  0  0  0  0  0  0  0  0  0  0
   -2.1558   -1.8981    1.5448 H   0  0  0  0  0  0  0  0  0  0  0  0
   -3.3969   -0.1724   -0.3120 H   0  0  0  0  0  0  0  0  0  0  0  0
   -2.5311    2.3068   -0.9804 H   0  0  0  0  0  0  0  0  0  0  0  0
   -0.9282    2.8501   -0.4702 H   0  0  0  0  0  0  0  0  0  0  0  0
   -1.3232    1.0027   -2.5562 H   0  0  0  0  0  0  0  0  0  0  0  0
  1  2  1  0
  2  3  2  0
  3  4  1  0
  4  5  1  0
  5  6  1  0
  6  7  1  0
  7  8  1  0
  8  9  1  0
  7  2  1  0
  7  5  1  0
  1 10  1  0
  1 11  1  0
  1 12  1  0
  3 13  1  0
  4 14  1  0
  4 15  1  0
  5 16  1  0
  8 17  1  0
  8 18  1  0
  9 19  1  0
M  END
$$$$
