
     RDKit          3D

 19 20  0  0  0  0  0  0  0  0999 V2000
    2.7971   -1.9598    0.0937 C   0  0  0  0  0  0  0  0  0  0  0  0
    2.3830   -0.5263    0.2508 C   0  0  0  0  0  0  0  0  0  0  0  0
    2.8999    0.1500    1.4646 O   0  0  0  0  0  0  0  0  0  0  0  0
    1.8644    1.1461    1.1586 C   0  0  0  0  0  0  0  0  0  0  0  0
    2.3088    1.6608   -0.2014 C   0  0  0  0  0  0  0  0  0  0  0  0
    2.6600    0.5263   -0.8174 C   0  0  0  0  0  0  0  0  0  0  0  0
    0.9326   -0.0812    0.7776 C   0  0  0  0  0  0  0  0  0  0  0  0
   -0.2720    0.0405   -0.1309 C   0  0  0  0  0  0  0  0  0  0  0  0
    0.5343   -0.8204    1.8950 O   0  0  0  0  0  0  0  0  0  0  0  0
    2.3661   -2.5726    0.8905 H   0  0  0  0  0  0  0  0  0  0  0  0
    2.4514   -2.3538   -0.8672 H   0  0  0  0  0  0  0  0  0  0  0  0
    3.8868   -2.0519    0.1306 H   0  0  0  0  0  0  0  0  0  0  0  0
    1.6397    1.8289    1.9773 H   0  0  0  0  0  0  0  0  0  0  0  0
    2.2777    2.6792   -0.5596 H   0  0  0  0  0  0  0  0  0  0  0  0
    3.0018    0.3473   -1.8268 H   0  0  0  0  0  0  0  0  0  0  0  0
   -1.0865    0.5361    0.4061 H   0  0  0  0  0  0  0  0  0  0  0  0
   -0.0499    0.6019   -1.0376 H   0  0  0  0  0  0  0  0  0  0  0  0
   -0.6221   -0.9590   -0.4065 H   0  0  0  0  0  0  0  0  0  0  0  0
    1.3163   -0.8603    2.4643 H   0  0  0  0  0  0  0  0  0  0  0  0
  1  2  1  0
  2  3  1  0
  3  4  1  0
  4  5  1  0
  5  6  2  0
  4  7  1  0
  7  8  1  0
  7  9  1  0
  6  2  1  0
  7  2  1  0
  1 10  1  0
  1 11  1  0
  1 12  1  0
  4 13  1  0
  5 14  1  0
  6 15  1  0
  8 16  1  0
  8 17  1  0
  8 18  1  0
  9 19  1  0
M  END
$$$$
