gdb 5206	3.807044	1.1729936	1.0880963	1.0757	75.09	-0.2384	0.08034	0.31874	1170.8476	0.156298	-422.491175	-422.48281	-422.481866	-422.523959	32.104
 OpenBabel02181911423D

 19 21  0  0  1  0  0  0  0  0999 V2000
    1.4089    0.1644    0.0227 C   0  0  0  0  0  0  0  0  0  0  0  0
    0.0097   -0.0180    0.1757 O   0  0  0  0  0  0  0  0  0  0  0  0
   -0.5024    0.5870    1.2954 C   0  0  2  0  0  0  0  0  0  0  0  0
   -0.3875    0.1175    2.7470 C   0  0  0  0  0  0  0  0  0  0  0  0
   -1.5674    1.0949    3.0106 C   0  0  2  0  0  0  0  0  0  0  0  0
   -1.9171    1.0434    1.4629 C   0  0  1  0  0  0  0  0  0  0  0  0
   -0.8195    2.0985    1.3165 C   0  0  1  0  0  0  0  0  0  0  0  0
   -0.9605    2.5111    2.7791 C   0  0  1  0  0  0  0  0  0  0  0  0
   -1.8518    3.5808    3.0034 O   0  0  0  0  0  0  0  0  0  0  0  0
    1.9681   -0.2773    0.8589 H   0  0  0  0  0  0  0  0  0  0  0  0
    1.6961   -0.3404   -0.9019 H   0  0  0  0  0  0  0  0  0  0  0  0
    1.6681    1.2296   -0.0485 H   0  0  0  0  0  0  0  0  0  0  0  0
   -0.6906   -0.9291    2.8432 H   0  0  0  0  0  0  0  0  0  0  0  0
    0.5423    0.2909    3.3012 H   0  0  0  0  0  0  0  0  0  0  0  0
   -2.2632    0.9325    3.8308 H   0  0  0  0  0  0  0  0  0  0  0  0
   -2.8081    0.8305    0.8911 H   0  0  0  0  0  0  0  0  0  0  0  0
   -0.6052    2.7162    0.4527 H   0  0  0  0  0  0  0  0  0  0  0  0
   -0.0571    2.7578    3.3476 H   0  0  0  0  0  0  0  0  0  0  0  0
   -2.6128    3.4478    2.4251 H   0  0  0  0  0  0  0  0  0  0  0  0
  1  2  1  0  0  0  0
  1 10  1  0  0  0  0
  3  2  1  6  0  0  0
  3  7  1  0  0  0  0
  3  6  1  0  0  0  0
  3  4  1  0  0  0  0
  4 13  1  0  0  0  0
  4  5  1  0  0  0  0
  4 14  1  0  0  0  0
  5 15  1  1  0  0  0
  6 16  1  6  0  0  0
  6  5  1  0  0  0  0
  7 17  1  6  0  0  0
  7  6  1  0  0  0  0
  7  8  1  0  0  0  0
  8  9  1  0  0  0  0
  8  5  1  0  0  0  0
  8 18  1  1  0  0  0
 11  1  1  0  0  0  0
 12  1  1  0  0  0  0
 19  9  1  0  0  0  0
M TOR 0 0 1 2 3
M TOR 1 0 1 2 5
M TOR 2 0 1 2 6
M TOR 3 1 2 3 4
M TOR 4 1 2 3 12
M TOR 5 1 2 3 13
M TOR 6 1 2 5 4
M TOR 7 1 2 5 6
M TOR 8 1 2 5 15
M TOR 9 1 2 6 7
M TOR 10 1 2 6 16
M TOR 11 2 1 0 9
M TOR 12 2 1 0 10
M TOR 13 2 1 0 11
M TOR 14 2 3 4 5
M TOR 15 2 3 4 7
M TOR 16 2 3 4 14
M TOR 17 2 5 4 7
M TOR 18 2 5 4 14
M TOR 19 2 5 6 7
M TOR 20 2 5 6 16
M TOR 21 2 6 5 4
M TOR 22 2 6 5 15
M TOR 23 2 6 7 4
M TOR 24 2 6 7 8
M TOR 25 2 6 7 17
M TOR 26 3 2 5 6
M TOR 27 3 2 5 15
M TOR 28 3 2 6 7
M TOR 29 3 2 6 16
M TOR 30 3 4 5 6
M TOR 31 3 4 5 15
M TOR 32 3 4 7 6
M TOR 33 3 4 7 8
M TOR 34 3 4 7 17
M TOR 35 4 3 2 6
M TOR 36 4 5 6 7
M TOR 37 4 5 6 16
M TOR 38 4 7 6 16
M TOR 39 4 7 8 18
M TOR 40 5 2 3 12
M TOR 41 5 2 3 13
M TOR 42 5 4 3 12
M TOR 43 5 4 3 13
M TOR 44 5 4 7 8
M TOR 45 5 4 7 17
M TOR 46 5 6 7 8
M TOR 47 5 6 7 17
M TOR 48 6 2 3 12
M TOR 49 6 2 3 13
M TOR 50 6 5 4 14
M TOR 51 6 7 4 14
M TOR 52 6 7 8 18
M TOR 53 7 4 3 12
M TOR 54 7 4 3 13
M TOR 55 7 4 5 15
M TOR 56 7 6 5 15
M TOR 57 8 7 4 14
M TOR 58 8 7 6 16
M  END
$$$$
