
     RDKit          3D

 19 20  0  0  0  0  0  0  0  0999 V2000
   -0.4663    2.2316    1.2557 C   0  0  0  0  0  0  0  0  0  0  0  0
   -0.7994    1.2814    0.0992 C   0  0  0  0  0  0  0  0  0  0  0  0
   -0.5900    1.9679   -1.2654 C   0  0  0  0  0  0  0  0  0  0  0  0
   -2.1928    0.6853    0.1913 C   0  0  0  0  0  0  0  0  0  0  0  0
   -2.3873   -0.1369    1.3486 O   0  0  0  0  0  0  0  0  0  0  0  0
   -2.1477   -0.7841    0.0906 C   0  0  0  0  0  0  0  0  0  0  0  0
   -0.7206   -1.2498   -0.0558 C   0  0  0  0  0  0  0  0  0  0  0  0
    0.1118    0.0269    0.1542 C   0  0  0  0  0  0  0  0  0  0  0  0
    1.3030    0.0602    0.3145 O   0  0  0  0  0  0  0  0  0  0  0  0
   -0.7189    1.7720    2.2147 H   0  0  0  0  0  0  0  0  0  0  0  0
    0.6032    2.4580    1.2513 H   0  0  0  0  0  0  0  0  0  0  0  0
   -1.0238    3.1694    1.1630 H   0  0  0  0  0  0  0  0  0  0  0  0
   -0.8202    1.2976   -2.1007 H   0  0  0  0  0  0  0  0  0  0  0  0
   -1.2362    2.8477   -1.3528 H   0  0  0  0  0  0  0  0  0  0  0  0
    0.4490    2.2925   -1.3663 H   0  0  0  0  0  0  0  0  0  0  0  0
   -3.0583    1.2661   -0.1207 H   0  0  0  0  0  0  0  0  0  0  0  0
   -2.9751   -1.3706   -0.2992 H   0  0  0  0  0  0  0  0  0  0  0  0
   -0.4321   -2.0154    0.6696 H   0  0  0  0  0  0  0  0  0  0  0  0
   -0.5221   -1.6529   -1.0570 H   0  0  0  0  0  0  0  0  0  0  0  0
  1  2  1  0
  2  3  1  0
  2  4  1  0
  4  5  1  0
  5  6  1  0
  6  7  1  0
  7  8  1  0
  8  9  2  0
  8  2  1  0
  6  4  1  0
  1 10  1  0
  1 11  1  0
  1 12  1  0
  3 13  1  0
  3 14  1  0
  3 15  1  0
  4 16  1  0
  6 17  1  0
  7 18  1  0
  7 19  1  0
M  END
$$$$
