
     RDKit          3D

 19 21  0  0  0  0  0  0  0  0999 V2000
   -0.7902    0.6387    0.4705 O   0  0  0  0  0  0  0  0  0  0  0  0
   -2.0258    0.0483    0.2223 C   0  0  0  0  0  0  0  0  0  0  0  0
   -2.2903   -1.3907    0.6376 C   0  0  0  0  0  0  0  0  0  0  0  0
   -3.7893   -1.5286    0.3040 C   0  0  0  0  0  0  0  0  0  0  0  0
   -4.4045   -0.1934    0.7823 C   0  0  0  0  0  0  0  0  0  0  0  0
   -3.3485    0.8010    0.3260 C   0  0  0  0  0  0  0  0  0  0  0  0
   -2.7426    0.4583   -1.0269 C   0  0  0  0  0  0  0  0  0  0  0  0
   -3.4161   -0.6031   -1.8777 C   0  0  0  0  0  0  0  0  0  0  0  0
   -3.9636   -1.6729   -1.1028 O   0  0  0  0  0  0  0  0  0  0  0  0
   -0.6671    0.6825    1.4258 H   0  0  0  0  0  0  0  0  0  0  0  0
   -1.6884   -2.1255    0.0954 H   0  0  0  0  0  0  0  0  0  0  0  0
   -2.1099   -1.5201    1.7135 H   0  0  0  0  0  0  0  0  0  0  0  0
   -4.2567   -2.4106    0.7453 H   0  0  0  0  0  0  0  0  0  0  0  0
   -5.3924   -0.0419    0.3360 H   0  0  0  0  0  0  0  0  0  0  0  0
   -4.5173   -0.1785    1.8732 H   0  0  0  0  0  0  0  0  0  0  0  0
   -3.3718    1.8380    0.6400 H   0  0  0  0  0  0  0  0  0  0  0  0
   -2.2930    1.2796   -1.5753 H   0  0  0  0  0  0  0  0  0  0  0  0
   -4.2284   -0.1523   -2.4660 H   0  0  0  0  0  0  0  0  0  0  0  0
   -2.6974   -1.0293   -2.5919 H   0  0  0  0  0  0  0  0  0  0  0  0
  1  2  1  0
  2  3  1  0
  3  4  1  0
  4  5  1  0
  5  6  1  0
  6  7  1  0
  7  8  1  0
  8  9  1  0
  6  2  1  0
  7  2  1  0
  9  4  1  0
  1 10  1  0
  3 11  1  0
  3 12  1  0
  4 13  1  0
  5 14  1  0
  5 15  1  0
  6 16  1  0
  7 17  1  0
  8 18  1  0
  8 19  1  0
M  END
$$$$
