gdb 2614	2.4234695	1.2558738	1.1363991	1.9374	76.4	-0.25153	-0.03358	0.21794999999999998	1184.6956	0.153167	-422.580628	-422.570746	-422.569802	-422.615607	35.277
 OpenBabel02181911413D

 19 19  0  0  1  0  0  0  0  0999 V2000
   -0.9934   -2.1590   -1.1590 C   0  0  0  0  0  0  0  0  0  0  0  0
   -0.9264   -0.9666   -0.2141 C   0  0  1  0  0  0  0  0  0  0  0  0
   -0.0552    0.2431   -0.5689 C   0  0  0  0  0  0  0  0  0  0  0  0
    0.9757    0.3669   -1.1640 O   0  0  0  0  0  0  0  0  0  0  0  0
   -1.0955    1.2294   -0.0229 C   0  0  0  0  0  0  0  0  0  0  0  0
   -2.1359    0.0472   -0.0097 C   0  0  2  0  0  0  0  0  0  0  0  0
   -2.9750   -0.1431    1.2446 C   0  0  0  0  0  0  0  0  0  0  0  0
   -2.9884    0.1204   -1.2555 C   0  0  0  0  0  0  0  0  0  0  0  0
   -4.1796   -0.0537   -1.2861 O   0  0  0  0  0  0  0  0  0  0  0  0
   -1.7400   -2.8859   -0.8251 H   0  0  0  0  0  0  0  0  0  0  0  0
   -1.2433   -1.8593   -2.1805 H   0  0  0  0  0  0  0  0  0  0  0  0
   -0.0219   -2.6605   -1.1925 H   0  0  0  0  0  0  0  0  0  0  0  0
   -0.6316   -1.3025    0.7897 H   0  0  0  0  0  0  0  0  0  0  0  0
   -0.8546    1.5654    0.9905 H   0  0  0  0  0  0  0  0  0  0  0  0
   -1.3095    2.1050   -0.6415 H   0  0  0  0  0  0  0  0  0  0  0  0
   -3.5536   -1.0694    1.1896 H   0  0  0  0  0  0  0  0  0  0  0  0
   -2.3374   -0.1837    2.1333 H   0  0  0  0  0  0  0  0  0  0  0  0
   -3.6887    0.6765    1.3679 H   0  0  0  0  0  0  0  0  0  0  0  0
   -2.4260    0.3661   -2.1869 H   0  0  0  0  0  0  0  0  0  0  0  0
  1 10  1  0  0  0  0
  1  2  1  0  0  0  0
  2  6  1  0  0  0  0
  2 13  1  1  0  0  0
  3  2  1  0  0  0  0
  3  5  1  0  0  0  0
  4  3  2  0  0  0  0
  5  6  1  0  0  0  0
  5 14  1  0  0  0  0
  6  8  1  6  0  0  0
  6  7  1  0  0  0  0
  7 18  1  0  0  0  0
  7 17  1  0  0  0  0
  9  8  2  0  0  0  0
 11  1  1  0  0  0  0
 12  1  1  0  0  0  0
 15  5  1  0  0  0  0
 16  7  1  0  0  0  0
 19  8  1  0  0  0  0
M TOR 0 0 1 2 3
M TOR 1 0 1 2 4
M TOR 2 0 1 5 4
M TOR 3 0 1 5 6
M TOR 4 0 1 5 7
M TOR 5 1 2 4 5
M TOR 6 1 2 4 13
M TOR 7 1 2 4 14
M TOR 8 1 5 4 13
M TOR 9 1 5 4 14
M TOR 10 1 5 6 15
M TOR 11 1 5 6 16
M TOR 12 1 5 6 17
M TOR 13 1 5 7 8
M TOR 14 1 5 7 18
M TOR 15 2 1 0 9
M TOR 16 2 1 0 10
M TOR 17 2 1 0 11
M TOR 18 2 1 5 6
M TOR 19 2 1 5 7
M TOR 20 2 4 5 6
M TOR 21 2 4 5 7
M TOR 22 3 2 1 5
M TOR 23 3 2 1 12
M TOR 24 3 2 4 5
M TOR 25 3 2 4 13
M TOR 26 3 2 4 14
M TOR 27 4 2 1 12
M TOR 28 4 5 1 12
M TOR 29 4 5 6 15
M TOR 30 4 5 6 16
M TOR 31 4 5 6 17
M TOR 32 4 5 7 8
M TOR 33 4 5 7 18
M TOR 34 5 1 0 9
M TOR 35 5 1 0 10
M TOR 36 5 1 0 11
M TOR 37 6 5 1 12
M TOR 38 6 5 4 13
M TOR 39 6 5 4 14
M TOR 40 6 5 7 8
M TOR 41 6 5 7 18
M TOR 42 7 5 1 12
M TOR 43 7 5 4 13
M TOR 44 7 5 4 14
M TOR 45 7 5 6 15
M TOR 46 7 5 6 16
M TOR 47 7 5 6 17
M  END
$$$$
