
     RDKit          3D

 19 21  0  0  0  0  0  0  0  0999 V2000
   -0.0068   -0.1855   -0.1192 C   0  0  0  0  0  0  0  0  0  0  0  0
    1.4777   -0.0454    0.0506 C   0  0  0  0  0  0  0  0  0  0  0  0
    2.3645    0.7114   -0.9306 C   0  0  0  0  0  0  0  0  0  0  0  0
    2.3411    1.1254    0.5032 C   0  0  0  0  0  0  0  0  0  0  0  0
    2.0127    2.4294    0.8320 O   0  0  0  0  0  0  0  0  0  0  0  0
    3.1524    0.2010    1.4606 C   0  0  0  0  0  0  0  0  0  0  0  0
    3.7735   -1.0034    0.7666 C   0  0  0  0  0  0  0  0  0  0  0  0
    2.3035   -0.9772    1.0083 C   0  0  0  0  0  0  0  0  0  0  0  0
    1.7125   -2.0058    1.7211 O   0  0  0  0  0  0  0  0  0  0  0  0
   -0.5150   -0.3657    0.8367 H   0  0  0  0  0  0  0  0  0  0  0  0
   -0.4320    0.7279   -0.5465 H   0  0  0  0  0  0  0  0  0  0  0  0
   -0.2647   -1.0187   -0.7833 H   0  0  0  0  0  0  0  0  0  0  0  0
    3.2302    0.2799   -1.4218 H   0  0  0  0  0  0  0  0  0  0  0  0
    1.7977    1.3853   -1.5682 H   0  0  0  0  0  0  0  0  0  0  0  0
    1.5882    2.4257    1.6976 H   0  0  0  0  0  0  0  0  0  0  0  0
    3.4621    0.5084    2.4525 H   0  0  0  0  0  0  0  0  0  0  0  0
    4.2281   -0.9527   -0.2167 H   0  0  0  0  0  0  0  0  0  0  0  0
    4.2958   -1.6611    1.4561 H   0  0  0  0  0  0  0  0  0  0  0  0
    0.9896   -1.6410    2.2433 H   0  0  0  0  0  0  0  0  0  0  0  0
  1  2  1  0
  2  3  1  0
  3  4  1  0
  4  5  1  0
  4  6  1  0
  6  7  1  0
  7  8  1  0
  8  9  1  0
  4  2  1  0
  8  6  1  0
  8  2  1  0
  1 10  1  0
  1 11  1  0
  1 12  1  0
  3 13  1  0
  3 14  1  0
  5 15  1  0
  6 16  1  0
  7 17  1  0
  7 18  1  0
  9 19  1  0
M  END
$$$$
