
     RDKit          3D

 19 20  0  0  0  0  0  0  0  0999 V2000
   -0.1666    0.0094    0.0989 C   0  0  0  0  0  0  0  0  0  0  0  0
    1.3588   -0.0346    0.1084 C   0  0  0  0  0  0  0  0  0  0  0  0
    2.1224    1.1937   -0.4277 C   0  0  0  0  0  0  0  0  0  0  0  0
    2.7651    0.4052   -1.4592 O   0  0  0  0  0  0  0  0  0  0  0  0
    2.0408   -0.7565   -1.0758 C   0  0  0  0  0  0  0  0  0  0  0  0
    2.6322   -2.1223   -1.2035 C   0  0  0  0  0  0  0  0  0  0  0  0
    1.4686   -1.6931   -2.0893 C   0  0  0  0  0  0  0  0  0  0  0  0
    1.8666   -0.5461    1.4418 C   0  0  0  0  0  0  0  0  0  0  0  0
    2.6835    0.0014    2.1353 O   0  0  0  0  0  0  0  0  0  0  0  0
   -0.5420    0.7467    0.8167 H   0  0  0  0  0  0  0  0  0  0  0  0
   -0.5360    0.2772   -0.8945 H   0  0  0  0  0  0  0  0  0  0  0  0
   -0.5941   -0.9636    0.3670 H   0  0  0  0  0  0  0  0  0  0  0  0
    1.4886    1.9798   -0.8534 H   0  0  0  0  0  0  0  0  0  0  0  0
    2.8449    1.6220    0.2718 H   0  0  0  0  0  0  0  0  0  0  0  0
    3.6157   -2.1783   -1.6574 H   0  0  0  0  0  0  0  0  0  0  0  0
    2.4486   -2.8613   -0.4307 H   0  0  0  0  0  0  0  0  0  0  0  0
    1.6844   -1.4709   -3.1289 H   0  0  0  0  0  0  0  0  0  0  0  0
    0.4934   -2.1346   -1.9105 H   0  0  0  0  0  0  0  0  0  0  0  0
    1.4127   -1.5166    1.7515 H   0  0  0  0  0  0  0  0  0  0  0  0
  1  2  1  0
  2  3  1  0
  3  4  1  0
  4  5  1  0
  5  6  1  0
  6  7  1  0
  2  8  1  0
  8  9  2  0
  5  2  1  0
  7  5  1  0
  1 10  1  0
  1 11  1  0
  1 12  1  0
  3 13  1  0
  3 14  1  0
  6 15  1  0
  6 16  1  0
  7 17  1  0
  7 18  1  0
  8 19  1  0
M  END
$$$$
