gdb 3396	3.0324886	1.7133744	1.4840641	2.3253	73.32	-0.2253	0.06656	0.29186	961.2699	0.159059	-422.519068	-422.512057	-422.511113	-422.55006	28.577
 OpenBabel02181911413D

 19 21  0  0  1  0  0  0  0  0999 V2000
    0.0395    0.0512    0.0855 C   0  0  0  0  0  0  0  0  0  0  0  0
    1.5646    0.0711    0.0197 C   0  0  1  0  0  0  0  0  0  0  0  0
    2.2561   -0.9563    0.9682 C   0  0  2  0  0  0  0  0  0  0  0  0
    3.5840   -0.5743    1.2713 O   0  0  0  0  0  0  0  0  0  0  0  0
    4.3015   -0.2004    0.0929 C   0  0  0  0  0  0  0  0  0  0  0  0
    3.6973   -0.9433   -1.0905 C   0  0  1  0  0  0  0  0  0  0  0  0
    3.5711   -2.3322   -0.6645 O   0  0  0  0  0  0  0  0  0  0  0  0
    2.2485   -2.0103   -0.2298 C   0  0  2  0  0  0  0  0  0  0  0  0
    2.1338   -0.7717   -1.1420 C   0  0  1  0  0  0  0  0  0  0  0  0
   -0.3145    0.4677    1.0344 H   0  0  0  0  0  0  0  0  0  0  0  0
   -0.3983    0.6425   -0.7257 H   0  0  0  0  0  0  0  0  0  0  0  0
   -0.3575   -0.9666    0.0010 H   0  0  0  0  0  0  0  0  0  0  0  0
    1.9318    1.0973    0.1234 H   0  0  0  0  0  0  0  0  0  0  0  0
    1.7698   -1.2140    1.9107 H   0  0  0  0  0  0  0  0  0  0  0  0
    4.2727    0.8891   -0.0625 H   0  0  0  0  0  0  0  0  0  0  0  0
    5.3431   -0.5008    0.2433 H   0  0  0  0  0  0  0  0  0  0  0  0
    4.2658   -0.8356   -2.0175 H   0  0  0  0  0  0  0  0  0  0  0  0
    1.5720   -2.8644   -0.1800 H   0  0  0  0  0  0  0  0  0  0  0  0
    1.6796   -0.7705   -2.1337 H   0  0  0  0  0  0  0  0  0  0  0  0
  1 10  1  0  0  0  0
  2  1  1  0  0  0  0
  2 13  1  1  0  0  0
  2  3  1  0  0  0  0
  3  4  1  0  0  0  0
  3 14  1  1  0  0  0
  5 16  1  0  0  0  0
  5  4  1  0  0  0  0
  6 17  1  6  0  0  0
  6  7  1  0  0  0  0
  6  5  1  0  0  0  0
  7  8  1  0  0  0  0
  8 18  1  6  0  0  0
  8  3  1  0  0  0  0
  9 19  1  6  0  0  0
  9  6  1  0  0  0  0
  9  8  1  0  0  0  0
  9  2  1  0  0  0  0
 11  1  1  0  0  0  0
 12  1  1  0  0  0  0
 15  5  1  0  0  0  0
M TOR 0 0 1 2 3
M TOR 1 0 1 2 7
M TOR 2 0 1 2 13
M TOR 3 0 1 8 5
M TOR 4 0 1 8 7
M TOR 5 0 1 8 18
M TOR 6 1 2 3 4
M TOR 7 1 2 7 6
M TOR 8 1 2 7 8
M TOR 9 1 2 7 17
M TOR 10 1 8 5 4
M TOR 11 1 8 5 6
M TOR 12 1 8 5 16
M TOR 13 1 8 7 6
M TOR 14 1 8 7 17
M TOR 15 2 1 0 9
M TOR 16 2 1 0 10
M TOR 17 2 1 0 11
M TOR 18 2 1 8 5
M TOR 19 2 1 8 18
M TOR 20 2 3 4 5
M TOR 21 2 3 4 14
M TOR 22 2 3 4 15
M TOR 23 2 7 6 5
M TOR 24 2 7 8 5
M TOR 25 2 7 8 18
M TOR 26 3 2 1 8
M TOR 27 3 2 1 12
M TOR 28 3 2 7 6
M TOR 29 3 2 7 8
M TOR 30 3 2 7 17
M TOR 31 3 4 5 6
M TOR 32 3 4 5 8
M TOR 33 3 4 5 16
M TOR 34 4 3 2 7
M TOR 35 4 3 2 13
M TOR 36 4 5 6 7
M TOR 37 4 5 8 7
M TOR 38 4 5 8 18
M TOR 39 5 6 7 8
M TOR 40 5 6 7 17
M TOR 41 5 8 1 12
M TOR 42 5 8 7 17
M TOR 43 6 5 4 14
M TOR 44 6 5 4 15
M TOR 45 6 5 8 18
M TOR 46 6 7 2 13
M TOR 47 6 7 8 18
M TOR 48 7 2 1 12
M TOR 49 7 6 5 16
M TOR 50 7 8 1 12
M TOR 51 7 8 5 16
M TOR 52 8 1 0 9
M TOR 53 8 1 0 10
M TOR 54 8 1 0 11
M TOR 55 8 1 2 13
M TOR 56 8 5 4 14
M TOR 57 8 5 4 15
M TOR 58 8 7 2 13
M  END
$$$$
