gdb 61	3.9933265	0.8266671	0.7214856	1.5673	80.52	-0.20571	0.0214	0.22711	1580.2881	0.156372	-422.590799	-422.581322	-422.580378	-422.625939	33.733
 OpenBabel02181911403D

 19 19  0  0  0  0  0  0  0  0999 V2000
   -2.6988   -3.1658    3.9258 C   0  0  0  0  0  0  0  0  0  0  0  0
   -2.6949   -2.0074    2.9945 C   0  0  0  0  0  0  0  0  0  0  0  0
   -3.6573   -1.3903    2.2584 C   0  0  0  0  0  0  0  0  0  0  0  0
   -3.0129   -0.3170    1.5585 C   0  0  0  0  0  0  0  0  0  0  0  0
   -1.7018   -0.3509    1.9168 C   0  0  0  0  0  0  0  0  0  0  0  0
   -0.5073    0.4526    1.5406 C   0  0  0  0  0  0  0  0  0  0  0  0
    0.5042   -0.3296    0.6816 C   0  0  0  0  0  0  0  0  0  0  0  0
    1.6245    0.4568    0.3156 O   0  0  0  0  0  0  0  0  0  0  0  0
   -1.4956   -1.3829    2.7940 O   0  0  0  0  0  0  0  0  0  0  0  0
   -2.3732   -2.8769    4.9319 H   0  0  0  0  0  0  0  0  0  0  0  0
   -3.7077   -3.5777    3.9991 H   0  0  0  0  0  0  0  0  0  0  0  0
   -2.0283   -3.9622    3.5826 H   0  0  0  0  0  0  0  0  0  0  0  0
   -4.7004   -1.6636    2.2206 H   0  0  0  0  0  0  0  0  0  0  0  0
   -3.4672    0.3892    0.8807 H   0  0  0  0  0  0  0  0  0  0  0  0
   -0.8329    1.3379    0.9866 H   0  0  0  0  0  0  0  0  0  0  0  0
    0.0032    0.8085    2.4469 H   0  0  0  0  0  0  0  0  0  0  0  0
    0.8040   -1.2466    1.2097 H   0  0  0  0  0  0  0  0  0  0  0  0
    0.0288   -0.6335   -0.2562 H   0  0  0  0  0  0  0  0  0  0  0  0
    2.1200    0.6560    1.1164 H   0  0  0  0  0  0  0  0  0  0  0  0
  1 11  1  0  0  0  0
  1 10  1  0  0  0  0
  2  1  1  0  0  0  0
  3  2  2  0  0  0  0
  4  5  2  0  0  0  0
  4  3  1  0  0  0  0
  5  9  1  0  0  0  0
  6  5  1  0  0  0  0
  6 16  1  0  0  0  0
  7 17  1  0  0  0  0
  7  6  1  0  0  0  0
  8  7  1  0  0  0  0
  8 19  1  0  0  0  0
  9  2  1  0  0  0  0
 12  1  1  0  0  0  0
 13  3  1  0  0  0  0
 14  4  1  0  0  0  0
 15  6  1  0  0  0  0
 18  7  1  0  0  0  0
M TOR 0 0 1 2 3
M TOR 1 0 1 2 12
M TOR 2 0 1 8 4
M TOR 3 1 2 3 4
M TOR 4 1 2 3 13
M TOR 5 1 8 4 3
M TOR 6 1 8 4 5
M TOR 7 2 1 0 9
M TOR 8 2 1 0 10
M TOR 9 2 1 0 11
M TOR 10 2 1 8 4
M TOR 11 2 3 4 5
M TOR 12 2 3 4 8
M TOR 13 3 2 1 8
M TOR 14 3 4 5 6
M TOR 15 3 4 5 14
M TOR 16 3 4 5 15
M TOR 17 4 3 2 12
M TOR 18 4 5 6 7
M TOR 19 4 5 6 16
M TOR 20 4 5 6 17
M TOR 21 5 4 3 13
M TOR 22 5 6 7 18
M TOR 23 6 5 4 8
M TOR 24 7 6 5 14
M TOR 25 7 6 5 15
M TOR 26 8 1 0 9
M TOR 27 8 1 0 10
M TOR 28 8 1 0 11
M TOR 29 8 1 2 12
M TOR 30 8 4 3 13
M TOR 31 8 4 5 14
M TOR 32 8 4 5 15
M  END
$$$$
