gdb 4662	2.064458	1.2106151	0.9069349	1.7458	77.53	-0.26201	0.01346	0.27547	1368.8851	0.153509	-422.560327	-422.549573	-422.548629	-422.597645	36.913
 OpenBabel02181911413D

 19 18  0  0  1  0  0  0  0  0999 V2000
    1.4990   -0.1398    0.0518 C   0  0  0  0  0  0  0  0  0  0  0  0
    0.1562   -0.4237    0.4673 O   0  0  0  0  0  0  0  0  0  0  0  0
   -0.4460    0.5530    1.1714 C   0  0  0  0  0  0  0  0  0  0  0  0
    0.0813    1.6013    1.4499 O   0  0  0  0  0  0  0  0  0  0  0  0
   -1.8444    0.1425    1.6091 C   0  0  1  0  0  0  0  0  0  0  0  0
   -1.7862   -0.3240    3.0748 C   0  0  0  0  0  0  0  0  0  0  0  0
   -2.8148    1.3334    1.4435 C   0  0  0  0  0  0  0  0  0  0  0  0
   -3.0440    1.6938    0.0498 C   0  0  0  0  0  0  0  0  0  0  0  0
   -3.2211    1.9659   -1.1074 C   0  0  0  0  0  0  0  0  0  0  0  0
    2.1422    0.0352    0.9180 H   0  0  0  0  0  0  0  0  0  0  0  0
    1.8311   -1.0190   -0.5003 H   0  0  0  0  0  0  0  0  0  0  0  0
    1.5227    0.7463   -0.5871 H   0  0  0  0  0  0  0  0  0  0  0  0
   -2.1721   -0.6864    0.9768 H   0  0  0  0  0  0  0  0  0  0  0  0
   -1.1091   -1.1754    3.1883 H   0  0  0  0  0  0  0  0  0  0  0  0
   -1.4320    0.4842    3.7219 H   0  0  0  0  0  0  0  0  0  0  0  0
   -2.7788   -0.6319    3.4166 H   0  0  0  0  0  0  0  0  0  0  0  0
   -3.7690    1.0801    1.9209 H   0  0  0  0  0  0  0  0  0  0  0  0
   -2.4004    2.1917    1.9848 H   0  0  0  0  0  0  0  0  0  0  0  0
   -3.3809    2.2204   -2.1257 H   0  0  0  0  0  0  0  0  0  0  0  0
  1  2  1  0  0  0  0
  1 10  1  0  0  0  0
  2  3  1  0  0  0  0
  3  4  2  0  0  0  0
  3  5  1  0  0  0  0
  5 13  1  6  0  0  0
  5  6  1  0  0  0  0
  6 14  1  0  0  0  0
  6 16  1  0  0  0  0
  6 15  1  0  0  0  0
  7  5  1  0  0  0  0
  7 17  1  0  0  0  0
  7 18  1  0  0  0  0
  8  7  1  0  0  0  0
  9  8  3  0  0  0  0
 11  1  1  0  0  0  0
 12  1  1  0  0  0  0
 19  9  1  0  0  0  0
M TOR 0 0 1 2 3
M TOR 1 0 1 2 4
M TOR 2 1 2 4 5
M TOR 3 1 2 4 6
M TOR 4 1 2 4 12
M TOR 5 2 1 0 9
M TOR 6 2 1 0 10
M TOR 7 2 1 0 11
M TOR 8 2 4 5 13
M TOR 9 2 4 5 14
M TOR 10 2 4 5 15
M TOR 11 2 4 6 7
M TOR 12 2 4 6 16
M TOR 13 2 4 6 17
M TOR 14 3 2 4 5
M TOR 15 3 2 4 6
M TOR 16 3 2 4 12
M TOR 17 4 6 7 8
M TOR 18 5 4 6 7
M TOR 19 5 4 6 16
M TOR 20 5 4 6 17
M TOR 21 6 4 5 13
M TOR 22 6 4 5 14
M TOR 23 6 4 5 15
M TOR 24 6 7 8 18
M TOR 25 7 6 4 12
M TOR 26 8 7 6 16
M TOR 27 8 7 6 17
M  END
$$$$
