
     RDKit          3D

 19 20  0  0  0  0  0  0  0  0999 V2000
    1.2575   -0.3384    4.4833 C   0  0  0  0  0  0  0  0  0  0  0  0
    1.3792   -0.6342    3.0074 C   0  0  0  0  0  0  0  0  0  0  0  0
    0.5704   -1.5147    2.4116 C   0  0  0  0  0  0  0  0  0  0  0  0
    0.5733   -1.9571    0.9710 C   0  0  0  0  0  0  0  0  0  0  0  0
    1.8535   -2.1053    0.3860 O   0  0  0  0  0  0  0  0  0  0  0  0
    2.4224   -0.9216   -0.1029 C   0  0  0  0  0  0  0  0  0  0  0  0
    2.9351    0.0403    0.9463 C   0  0  0  0  0  0  0  0  0  0  0  0
    3.7109   -0.4894    2.0128 O   0  0  0  0  0  0  0  0  0  0  0  0
    2.4543    0.1532    2.3331 C   0  0  0  0  0  0  0  0  0  0  0  0
    0.4488   -0.9102    4.9442 H   0  0  0  0  0  0  0  0  0  0  0  0
    2.1899   -0.5805    5.0082 H   0  0  0  0  0  0  0  0  0  0  0  0
    1.0669    0.7279    4.6598 H   0  0  0  0  0  0  0  0  0  0  0  0
   -0.1862   -1.9995    3.0268 H   0  0  0  0  0  0  0  0  0  0  0  0
    0.1054   -2.9456    0.9097 H   0  0  0  0  0  0  0  0  0  0  0  0
   -0.0451   -1.2773    0.3570 H   0  0  0  0  0  0  0  0  0  0  0  0
    3.2702   -1.2298   -0.7263 H   0  0  0  0  0  0  0  0  0  0  0  0
    1.7151   -0.3756   -0.7531 H   0  0  0  0  0  0  0  0  0  0  0  0
    3.3483    0.9509    0.4989 H   0  0  0  0  0  0  0  0  0  0  0  0
    2.6094    1.1273    2.8038 H   0  0  0  0  0  0  0  0  0  0  0  0
  1  2  1  0
  2  3  2  0
  3  4  1  0
  4  5  1  0
  5  6  1  0
  6  7  1  0
  7  8  1  0
  8  9  1  0
  9  2  1  0
  9  7  1  0
  1 10  1  0
  1 11  1  0
  1 12  1  0
  3 13  1  0
  4 14  1  0
  4 15  1  0
  6 16  1  0
  6 17  1  0
  7 18  1  0
  9 19  1  0
M  END
$$$$
