
     RDKit          3D

 19 20  0  0  0  0  0  0  0  0999 V2000
   -1.9573   -2.7433   -0.0881 C   0  0  0  0  0  0  0  0  0  0  0  0
   -2.6777   -2.8906    1.2432 C   0  0  0  0  0  0  0  0  0  0  0  0
   -3.1200   -3.9624    1.6066 O   0  0  0  0  0  0  0  0  0  0  0  0
   -2.8412   -1.6872    2.0904 C   0  0  0  0  0  0  0  0  0  0  0  0
   -2.0132   -0.4247    1.9896 C   0  0  0  0  0  0  0  0  0  0  0  0
   -3.4709   -0.3137    1.7015 C   0  0  0  0  0  0  0  0  0  0  0  0
   -4.2888   -0.3164    3.0046 C   0  0  0  0  0  0  0  0  0  0  0  0
   -5.6854   -0.3341    2.8416 O   0  0  0  0  0  0  0  0  0  0  0  0
   -3.6345   -1.6793    3.4031 C   0  0  0  0  0  0  0  0  0  0  0  0
   -0.8821   -2.6145    0.0804 H   0  0  0  0  0  0  0  0  0  0  0  0
   -2.1157   -3.6466   -0.6782 H   0  0  0  0  0  0  0  0  0  0  0  0
   -2.3056   -1.8693   -0.6478 H   0  0  0  0  0  0  0  0  0  0  0  0
   -1.6010   -0.0059    2.9052 H   0  0  0  0  0  0  0  0  0  0  0  0
   -1.3537   -0.3468    1.1321 H   0  0  0  0  0  0  0  0  0  0  0  0
   -3.8501   -0.0034    0.7341 H   0  0  0  0  0  0  0  0  0  0  0  0
   -4.0832    0.5280    3.6698 H   0  0  0  0  0  0  0  0  0  0  0  0
   -5.9187   -1.1123    2.3225 H   0  0  0  0  0  0  0  0  0  0  0  0
   -3.0456   -1.7087    4.3249 H   0  0  0  0  0  0  0  0  0  0  0  0
   -4.3770   -2.4795    3.4346 H   0  0  0  0  0  0  0  0  0  0  0  0
  1  2  1  0
  2  3  2  0
  2  4  1  0
  4  5  1  0
  5  6  1  0
  6  7  1  0
  7  8  1  0
  7  9  1  0
  6  4  1  0
  9  4  1  0
  1 10  1  0
  1 11  1  0
  1 12  1  0
  5 13  1  0
  5 14  1  0
  6 15  1  0
  7 16  1  0
  8 17  1  0
  9 18  1  0
  9 19  1  0
M  END
$$$$
