gdb 2950	2.9106514	1.4241724	1.1154018	2.0905	76.91	-0.22206	0.01826	0.24032	1120.4401	0.157346	-422.556007	-422.547621	-422.546677	-422.588438	32.981
 OpenBabel02181911413D

 19 20  0  0  1  0  0  0  0  0999 V2000
    0.3324   -0.0726    0.1474 O   0  0  0  0  0  0  0  0  0  0  0  0
   -0.8188    0.5586    0.6390 C   0  0  2  0  0  0  0  0  0  0  0  0
   -2.1819   -0.0761    0.3585 C   0  0  1  0  0  0  0  0  0  0  0  0
   -3.3128    0.1184    1.2981 C   0  0  0  0  0  0  0  0  0  0  0  0
   -4.1128    1.1827    1.2111 C   0  0  0  0  0  0  0  0  0  0  0  0
   -3.9258    2.2452    0.1536 C   0  0  0  0  0  0  0  0  0  0  0  0
   -2.4408    2.4443   -0.2084 C   0  0  0  0  0  0  0  0  0  0  0  0
   -1.7059    1.1291   -0.4348 C   0  0  1  0  0  0  0  0  0  0  0  0
   -1.2830    0.9472   -1.7540 O   0  0  0  0  0  0  0  0  0  0  0  0
    0.4166   -0.9360    0.5648 H   0  0  0  0  0  0  0  0  0  0  0  0
   -0.6852    1.1091    1.5702 H   0  0  0  0  0  0  0  0  0  0  0  0
   -2.1235   -1.0302   -0.1621 H   0  0  0  0  0  0  0  0  0  0  0  0
   -3.4749   -0.6349    2.0661 H   0  0  0  0  0  0  0  0  0  0  0  0
   -4.9404    1.2982    1.9061 H   0  0  0  0  0  0  0  0  0  0  0  0
   -4.4899    1.9632   -0.7468 H   0  0  0  0  0  0  0  0  0  0  0  0
   -4.3549    3.1950    0.4902 H   0  0  0  0  0  0  0  0  0  0  0  0
   -2.3411    3.0401   -1.1199 H   0  0  0  0  0  0  0  0  0  0  0  0
   -1.9537    3.0047    0.5981 H   0  0  0  0  0  0  0  0  0  0  0  0
   -0.4502    0.4572   -1.7027 H   0  0  0  0  0  0  0  0  0  0  0  0
  1 10  1  0  0  0  0
  1  2  1  0  0  0  0
  2 11  1  1  0  0  0
  3 12  1  6  0  0  0
  3  2  1  0  0  0  0
  3  4  1  0  0  0  0
  4 13  1  0  0  0  0
  5  4  2  0  0  0  0
  5 14  1  0  0  0  0
  6 16  1  0  0  0  0
  6  5  1  0  0  0  0
  7  6  1  0  0  0  0
  7 18  1  0  0  0  0
  8  9  1  6  0  0  0
  8  7  1  0  0  0  0
  8  3  1  0  0  0  0
  8  2  1  0  0  0  0
  9 19  1  0  0  0  0
 15  6  1  0  0  0  0
 17  7  1  0  0  0  0
M TOR 0 0 1 2 3
M TOR 1 0 1 2 7
M TOR 2 0 1 2 11
M TOR 3 0 1 7 6
M TOR 4 0 1 7 8
M TOR 5 1 2 3 4
M TOR 6 1 2 3 12
M TOR 7 1 2 7 6
M TOR 8 1 2 7 8
M TOR 9 1 7 2 3
M TOR 10 1 7 2 11
M TOR 11 1 7 6 5
M TOR 12 1 7 6 16
M TOR 13 1 7 6 17
M TOR 14 1 7 8 18
M TOR 15 2 1 0 9
M TOR 16 2 3 4 5
M TOR 17 2 3 4 13
M TOR 18 2 7 1 10
M TOR 19 2 7 6 5
M TOR 20 2 7 6 16
M TOR 21 2 7 6 17
M TOR 22 2 7 8 18
M TOR 23 3 2 1 10
M TOR 24 3 2 7 6
M TOR 25 3 2 7 8
M TOR 26 3 4 5 6
M TOR 27 3 4 5 14
M TOR 28 3 4 5 15
M TOR 29 4 3 2 7
M TOR 30 4 3 2 11
M TOR 31 4 5 6 7
M TOR 32 4 5 6 16
M TOR 33 4 5 6 17
M TOR 34 5 4 3 12
M TOR 35 5 6 7 8
M TOR 36 6 5 4 13
M TOR 37 6 7 1 10
M TOR 38 6 7 2 11
M TOR 39 6 7 8 18
M TOR 40 7 1 0 9
M TOR 41 7 2 3 12
M TOR 42 7 6 5 14
M TOR 43 7 6 5 15
M TOR 44 8 7 1 10
M TOR 45 8 7 2 11
M TOR 46 8 7 6 16
M TOR 47 8 7 6 17
M  END
$$$$
