
     RDKit          3D

 19 19  0  0  0  0  0  0  0  0999 V2000
    5.2710    0.3937    1.2856 C   0  0  0  0  0  0  0  0  0  0  0  0
    4.0355   -0.1174    0.5541 C   0  0  0  0  0  0  0  0  0  0  0  0
    4.1103   -0.2627   -1.0130 C   0  0  0  0  0  0  0  0  0  0  0  0
    2.6861    0.3421   -1.1080 C   0  0  0  0  0  0  0  0  0  0  0  0
    2.8376    0.8715    0.3385 C   0  0  0  0  0  0  0  0  0  0  0  0
    1.6759    0.8152    1.3099 C   0  0  0  0  0  0  0  0  0  0  0  0
    1.7471    1.2355    2.4376 O   0  0  0  0  0  0  0  0  0  0  0  0
    3.5899   -1.4503    1.1046 C   0  0  0  0  0  0  0  0  0  0  0  0
    2.4481   -1.7628    1.3362 O   0  0  0  0  0  0  0  0  0  0  0  0
    5.0252    0.6655    2.3172 H   0  0  0  0  0  0  0  0  0  0  0  0
    6.0635   -0.3632    1.3094 H   0  0  0  0  0  0  0  0  0  0  0  0
    5.6717    1.2815    0.7873 H   0  0  0  0  0  0  0  0  0  0  0  0
    4.8797    0.3992   -1.4198 H   0  0  0  0  0  0  0  0  0  0  0  0
    4.2657   -1.2668   -1.4171 H   0  0  0  0  0  0  0  0  0  0  0  0
    2.5114    1.0773   -1.8953 H   0  0  0  0  0  0  0  0  0  0  0  0
    1.9159   -0.4318   -1.1692 H   0  0  0  0  0  0  0  0  0  0  0  0
    3.2280    1.8941    0.3567 H   0  0  0  0  0  0  0  0  0  0  0  0
    0.7331    0.3888    0.9049 H   0  0  0  0  0  0  0  0  0  0  0  0
    4.4194   -2.1805    1.2467 H   0  0  0  0  0  0  0  0  0  0  0  0
  1  2  1  0
  2  3  1  0
  3  4  1  0
  4  5  1  0
  5  6  1  0
  6  7  2  0
  2  8  1  0
  8  9  2  0
  5  2  1  0
  1 10  1  0
  1 11  1  0
  1 12  1  0
  3 13  1  0
  3 14  1  0
  4 15  1  0
  4 16  1  0
  5 17  1  0
  6 18  1  0
  8 19  1  0
M  END
$$$$
