gdb 4004	4.5830957	1.0365603	1.0121152	2.3632	75.81	-0.2348	0.07105	0.30585	1245.9848	0.156281	-422.483561	-422.475271	-422.474327	-422.516627	30.932
 OpenBabel02181911413D

 19 21  0  0  1  0  0  0  0  0999 V2000
    0.2546   -0.3709   -0.3151 C   0  0  0  0  0  0  0  0  0  0  0  0
    0.7999    0.7711    0.5159 C   0  0  2  0  0  0  0  0  0  0  0  0
    2.1081    1.2068    0.0194 O   0  0  0  0  0  0  0  0  0  0  0  0
    2.7272    0.7756    1.2313 C   0  0  2  0  0  0  0  0  0  0  0  0
    1.4059    0.3873    1.8680 C   0  0  1  0  0  0  0  0  0  0  0  0
    2.2089    1.5468    2.3931 C   0  0  0  0  0  0  0  0  0  0  0  0
    2.8569    1.6551    3.7705 C   0  0  0  0  0  0  0  0  0  0  0  0
    2.5993    3.0746    3.7947 O   0  0  0  0  0  0  0  0  0  0  0  0
    1.9096    3.0352    2.5214 C   0  0  0  0  0  0  0  0  0  0  0  0
   -0.7056   -0.7109    0.0886 H   0  0  0  0  0  0  0  0  0  0  0  0
    0.0975   -0.0439   -1.3472 H   0  0  0  0  0  0  0  0  0  0  0  0
    0.9514   -1.2142   -0.3197 H   0  0  0  0  0  0  0  0  0  0  0  0
    0.0948    1.6126    0.5331 H   0  0  0  0  0  0  0  0  0  0  0  0
    3.6986    0.2957    1.1716 H   0  0  0  0  0  0  0  0  0  0  0  0
    1.1240   -0.4662    2.4725 H   0  0  0  0  0  0  0  0  0  0  0  0
    2.3365    1.1299    4.5833 H   0  0  0  0  0  0  0  0  0  0  0  0
    3.9294    1.4265    3.8262 H   0  0  0  0  0  0  0  0  0  0  0  0
    0.8502    3.3059    2.6243 H   0  0  0  0  0  0  0  0  0  0  0  0
    2.3792    3.6831    1.7725 H   0  0  0  0  0  0  0  0  0  0  0  0
  1 10  1  0  0  0  0
  1  2  1  0  0  0  0
  2 13  1  1  0  0  0
  2  5  1  0  0  0  0
  3  2  1  0  0  0  0
  3  4  1  0  0  0  0
  4 14  1  1  0  0  0
  4  5  1  0  0  0  0
  4  6  1  0  0  0  0
  5  6  1  0  0  0  0
  5 15  1  1  0  0  0
  6  9  1  0  0  0  0
  6  7  1  0  0  0  0
  7  8  1  0  0  0  0
  7 17  1  0  0  0  0
  7 16  1  0  0  0  0
  9 18  1  0  0  0  0
  9  8  1  0  0  0  0
 11  1  1  0  0  0  0
 12  1  1  0  0  0  0
 19  9  1  0  0  0  0
M TOR 0 0 1 2 3
M TOR 1 0 1 4 3
M TOR 2 0 1 4 5
M TOR 3 0 1 4 14
M TOR 4 1 2 3 4
M TOR 5 1 2 3 5
M TOR 6 1 2 3 13
M TOR 7 1 4 3 5
M TOR 8 1 4 3 13
M TOR 9 1 4 5 6
M TOR 10 1 4 5 8
M TOR 11 2 1 0 9
M TOR 12 2 1 0 10
M TOR 13 2 1 0 11
M TOR 14 2 1 4 5
M TOR 15 2 1 4 14
M TOR 16 2 3 4 5
M TOR 17 2 3 4 14
M TOR 18 2 3 5 6
M TOR 19 2 3 5 8
M TOR 20 3 2 1 12
M TOR 21 3 4 1 12
M TOR 22 3 4 5 6
M TOR 23 3 4 5 8
M TOR 24 3 5 4 14
M TOR 25 3 5 6 7
M TOR 26 3 5 6 15
M TOR 27 3 5 6 16
M TOR 28 3 5 8 7
M TOR 29 3 5 8 17
M TOR 30 3 5 8 18
M TOR 31 4 1 0 9
M TOR 32 4 1 0 10
M TOR 33 4 1 0 11
M TOR 34 4 5 3 13
M TOR 35 4 5 6 7
M TOR 36 4 5 6 15
M TOR 37 4 5 6 16
M TOR 38 4 5 8 7
M TOR 39 4 5 8 17
M TOR 40 4 5 8 18
M TOR 41 5 4 1 12
M TOR 42 5 6 7 8
M TOR 43 6 5 3 13
M TOR 44 6 5 4 14
M TOR 45 6 5 8 17
M TOR 46 6 5 8 18
M TOR 47 6 7 8 17
M TOR 48 6 7 8 18
M TOR 49 8 5 3 13
M TOR 50 8 5 4 14
M TOR 51 8 5 6 15
M TOR 52 8 5 6 16
M TOR 53 8 7 6 15
M TOR 54 8 7 6 16
M  END
$$$$
