
     RDKit          3D

 19 21  0  0  0  0  0  0  0  0999 V2000
   -0.4863    0.0604    0.4572 O   0  0  0  0  0  0  0  0  0  0  0  0
   -1.7799    0.4508    0.8246 C   0  0  0  0  0  0  0  0  0  0  0  0
   -2.6020    1.0650   -0.3306 C   0  0  0  0  0  0  0  0  0  0  0  0
   -3.7418    0.0293   -0.0683 C   0  0  0  0  0  0  0  0  0  0  0  0
   -2.8940   -0.6324    1.0586 C   0  0  0  0  0  0  0  0  0  0  0  0
   -3.1637   -0.3145    2.5426 C   0  0  0  0  0  0  0  0  0  0  0  0
   -3.3104    1.2220    2.6115 C   0  0  0  0  0  0  0  0  0  0  0  0
   -1.8253    1.0842    2.2347 C   0  0  0  0  0  0  0  0  0  0  0  0
   -1.7827   -0.1472    3.0433 O   0  0  0  0  0  0  0  0  0  0  0  0
   -0.1344   -0.4404    1.2048 H   0  0  0  0  0  0  0  0  0  0  0  0
   -2.8634    2.1215   -0.2261 H   0  0  0  0  0  0  0  0  0  0  0  0
   -2.0998    0.9221   -1.2890 H   0  0  0  0  0  0  0  0  0  0  0  0
   -4.6968    0.4519    0.2531 H   0  0  0  0  0  0  0  0  0  0  0  0
   -3.9358   -0.6331   -0.9139 H   0  0  0  0  0  0  0  0  0  0  0  0
   -2.6094   -1.6726    0.8962 H   0  0  0  0  0  0  0  0  0  0  0  0
   -3.7644   -0.9979    3.1427 H   0  0  0  0  0  0  0  0  0  0  0  0
   -4.0010    1.7416    1.9457 H   0  0  0  0  0  0  0  0  0  0  0  0
   -3.4266    1.5642    3.6401 H   0  0  0  0  0  0  0  0  0  0  0  0
   -1.0577    1.8154    2.4897 H   0  0  0  0  0  0  0  0  0  0  0  0
  1  2  1  0
  2  3  1  0
  3  4  1  0
  4  5  1  0
  5  6  1  0
  6  7  1  0
  7  8  1  0
  8  9  1  0
  5  2  1  0
  9  6  1  0
  8  2  1  0
  1 10  1  0
  3 11  1  0
  3 12  1  0
  4 13  1  0
  4 14  1  0
  5 15  1  0
  6 16  1  0
  7 17  1  0
  7 18  1  0
  8 19  1  0
M  END
$$$$
