
     RDKit          3D

 19 20  0  0  0  0  0  0  0  0999 V2000
   -2.8247    0.0285   -1.3299 C   0  0  0  0  0  0  0  0  0  0  0  0
   -2.0069   -0.0642   -0.0530 C   0  0  0  0  0  0  0  0  0  0  0  0
   -0.8917   -1.1396   -0.0404 C   0  0  0  0  0  0  0  0  0  0  0  0
    0.0515    0.0580   -0.0488 C   0  0  0  0  0  0  0  0  0  0  0  0
    1.2226    0.2626   -0.0545 O   0  0  0  0  0  0  0  0  0  0  0  0
   -0.9570    0.9877   -0.0506 O   0  0  0  0  0  0  0  0  0  0  0  0
   -2.8568    0.0245    1.1923 C   0  0  0  0  0  0  0  0  0  0  0  0
   -3.2540    1.3626    1.7597 C   0  0  0  0  0  0  0  0  0  0  0  0
   -2.2917    0.4767    2.5134 C   0  0  0  0  0  0  0  0  0  0  0  0
   -3.5368   -0.8015   -1.3831 H   0  0  0  0  0  0  0  0  0  0  0  0
   -3.3891    0.9647   -1.3539 H   0  0  0  0  0  0  0  0  0  0  0  0
   -2.1797   -0.0116   -2.2121 H   0  0  0  0  0  0  0  0  0  0  0  0
   -0.8292   -1.7476    0.8634 H   0  0  0  0  0  0  0  0  0  0  0  0
   -0.8194   -1.7760   -0.9242 H   0  0  0  0  0  0  0  0  0  0  0  0
   -3.6087   -0.7596    1.2338 H   0  0  0  0  0  0  0  0  0  0  0  0
   -2.8364    2.2446    1.2874 H   0  0  0  0  0  0  0  0  0  0  0  0
   -4.2625    1.4825    2.1387 H   0  0  0  0  0  0  0  0  0  0  0  0
   -1.2557    0.7933    2.5449 H   0  0  0  0  0  0  0  0  0  0  0  0
   -2.6390   -0.0229    3.4106 H   0  0  0  0  0  0  0  0  0  0  0  0
  1  2  1  0
  2  3  1  0
  3  4  1  0
  4  5  2  0
  4  6  1  0
  2  7  1  0
  7  8  1  0
  8  9  1  0
  6  2  1  0
  9  7  1  0
  1 10  1  0
  1 11  1  0
  1 12  1  0
  3 13  1  0
  3 14  1  0
  7 15  1  0
  8 16  1  0
  8 17  1  0
  9 18  1  0
  9 19  1  0
M  END
$$$$
