gdb 4696	2.8406826	0.9257559	0.8119922	1.6627	77.87	-0.26198	0.0139	0.27588	1500.9805	0.153461	-422.559766	-422.549044	-422.5481	-422.596892	36.873
 OpenBabel02181911413D

 19 18  0  0  1  0  0  0  0  0999 V2000
    1.4412    0.3734   -0.3827 C   0  0  0  0  0  0  0  0  0  0  0  0
    0.1696   -0.1226    0.0573 O   0  0  0  0  0  0  0  0  0  0  0  0
   -0.2612    0.3671    1.2354 C   0  0  0  0  0  0  0  0  0  0  0  0
    0.3592    1.1603    1.8982 O   0  0  0  0  0  0  0  0  0  0  0  0
   -1.6310   -0.1793    1.5878 C   0  0  0  0  0  0  0  0  0  0  0  0
   -1.8291   -0.3203    3.1119 C   0  0  1  0  0  0  0  0  0  0  0  0
   -3.3095   -0.5590    3.4639 C   0  0  0  0  0  0  0  0  0  0  0  0
   -0.9826   -1.3866    3.6466 C   0  0  0  0  0  0  0  0  0  0  0  0
   -0.3046   -2.2833    4.0723 C   0  0  0  0  0  0  0  0  0  0  0  0
    2.2196    0.1319    0.3450 H   0  0  0  0  0  0  0  0  0  0  0  0
    1.6391   -0.1208   -1.3338 H   0  0  0  0  0  0  0  0  0  0  0  0
    1.4080    1.4580   -0.5138 H   0  0  0  0  0  0  0  0  0  0  0  0
   -2.3688    0.5334    1.1971 H   0  0  0  0  0  0  0  0  0  0  0  0
   -1.7960   -1.1291    1.0745 H   0  0  0  0  0  0  0  0  0  0  0  0
   -1.5047    0.6261    3.5610 H   0  0  0  0  0  0  0  0  0  0  0  0
   -3.4389   -0.6464    4.5454 H   0  0  0  0  0  0  0  0  0  0  0  0
   -3.9248    0.2733    3.1075 H   0  0  0  0  0  0  0  0  0  0  0  0
   -3.6766   -1.4817    3.0044 H   0  0  0  0  0  0  0  0  0  0  0  0
    0.3052   -3.0622    4.4584 H   0  0  0  0  0  0  0  0  0  0  0  0
  1  2  1  0  0  0  0
  1 10  1  0  0  0  0
  2  3  1  0  0  0  0
  3  5  1  0  0  0  0
  3  4  2  0  0  0  0
  5  6  1  0  0  0  0
  6  7  1  0  0  0  0
  6 15  1  1  0  0  0
  6  8  1  0  0  0  0
  7 16  1  0  0  0  0
  8  9  3  0  0  0  0
  9 19  1  0  0  0  0
 11  1  1  0  0  0  0
 12  1  1  0  0  0  0
 13  5  1  0  0  0  0
 14  5  1  0  0  0  0
 17  7  1  0  0  0  0
 18  7  1  0  0  0  0
M TOR 0 0 1 2 3
M TOR 1 0 1 2 4
M TOR 2 1 2 4 5
M TOR 3 1 2 4 12
M TOR 4 1 2 4 13
M TOR 5 2 1 0 9
M TOR 6 2 1 0 10
M TOR 7 2 1 0 11
M TOR 8 2 4 5 6
M TOR 9 2 4 5 7
M TOR 10 2 4 5 14
M TOR 11 3 2 4 5
M TOR 12 3 2 4 12
M TOR 13 3 2 4 13
M TOR 14 4 5 6 15
M TOR 15 4 5 6 16
M TOR 16 4 5 6 17
M TOR 17 4 5 7 8
M TOR 18 5 7 8 18
M TOR 19 6 5 4 12
M TOR 20 6 5 4 13
M TOR 21 6 5 7 8
M TOR 22 7 5 4 12
M TOR 23 7 5 4 13
M TOR 24 7 5 6 15
M TOR 25 7 5 6 16
M TOR 26 7 5 6 17
M TOR 27 8 7 5 14
M  END
$$$$
