gdb 5640	2.3875397	1.3817376	0.9486955	2.3998	77.41	-0.23937	-0.01701	0.22236	1244.3959	0.157177	-422.588252	-422.579282	-422.578338	-422.622559	32.762
 OpenBabel02181911423D

 19 19  0  0  1  0  0  0  0  0999 V2000
   -2.1118   -0.7742    0.0955 O   0  0  0  0  0  0  0  0  0  0  0  0
   -0.9082   -0.0624   -0.1433 C   0  0  0  0  0  0  0  0  0  0  0  0
   -0.5893    0.7450    1.1291 C   0  0  1  0  0  0  0  0  0  0  0  0
   -0.4063   -0.1315    2.3407 C   0  0  0  0  0  0  0  0  0  0  0  0
    0.5998   -0.0075    3.2043 C   0  0  0  0  0  0  0  0  0  0  0  0
    1.7067    0.9993    3.0344 C   0  0  0  0  0  0  0  0  0  0  0  0
    1.8979    1.3718    1.5542 C   0  0  0  0  0  0  0  0  0  0  0  0
    0.5903    1.6833    0.8483 C   0  0  0  0  0  0  0  0  0  0  0  0
    0.4774    2.5993    0.0661 O   0  0  0  0  0  0  0  0  0  0  0  0
   -2.2961   -1.3213   -0.6735 H   0  0  0  0  0  0  0  0  0  0  0  0
   -0.0761   -0.7495   -0.3655 H   0  0  0  0  0  0  0  0  0  0  0  0
   -1.0095    0.6392   -0.9822 H   0  0  0  0  0  0  0  0  0  0  0  0
   -1.4629    1.3948    1.2825 H   0  0  0  0  0  0  0  0  0  0  0  0
   -1.1823   -0.8744    2.4967 H   0  0  0  0  0  0  0  0  0  0  0  0
    0.6396   -0.6496    4.0804 H   0  0  0  0  0  0  0  0  0  0  0  0
    1.4899    1.9021    3.6234 H   0  0  0  0  0  0  0  0  0  0  0  0
    2.6464    0.6046    3.4363 H   0  0  0  0  0  0  0  0  0  0  0  0
    2.5782    2.2147    1.4132 H   0  0  0  0  0  0  0  0  0  0  0  0
    2.3295    0.5039    1.0343 H   0  0  0  0  0  0  0  0  0  0  0  0
  2  1  1  0  0  0  0
  2  3  1  0  0  0  0
  3 13  1  1  0  0  0
  3  4  1  0  0  0  0
  4 14  1  0  0  0  0
  4  5  2  0  0  0  0
  5 15  1  0  0  0  0
  6  5  1  0  0  0  0
  6 17  1  0  0  0  0
  6 16  1  0  0  0  0
  7  6  1  0  0  0  0
  8  3  1  0  0  0  0
  8  7  1  0  0  0  0
  9  8  2  0  0  0  0
 10  1  1  0  0  0  0
 11  2  1  0  0  0  0
 12  2  1  0  0  0  0
 18  7  1  0  0  0  0
 19  7  1  0  0  0  0
M TOR 0 0 1 2 3
M TOR 1 0 1 2 7
M TOR 2 0 1 2 12
M TOR 3 1 2 3 4
M TOR 4 1 2 3 13
M TOR 5 1 2 7 6
M TOR 6 1 2 7 8
M TOR 7 2 1 0 9
M TOR 8 2 3 4 5
M TOR 9 2 3 4 14
M TOR 10 2 7 6 5
M TOR 11 2 7 6 17
M TOR 12 2 7 6 18
M TOR 13 3 2 1 10
M TOR 14 3 2 1 11
M TOR 15 3 2 7 6
M TOR 16 3 2 7 8
M TOR 17 3 4 5 6
M TOR 18 3 4 5 15
M TOR 19 3 4 5 16
M TOR 20 4 3 2 7
M TOR 21 4 3 2 12
M TOR 22 4 5 6 7
M TOR 23 4 5 6 17
M TOR 24 4 5 6 18
M TOR 25 5 4 3 13
M TOR 26 5 6 7 8
M TOR 27 6 5 4 14
M TOR 28 6 7 2 12
M TOR 29 7 2 1 10
M TOR 30 7 2 1 11
M TOR 31 7 2 3 13
M TOR 32 7 6 5 15
M TOR 33 7 6 5 16
M TOR 34 8 7 2 12
M TOR 35 8 7 6 17
M TOR 36 8 7 6 18
M  END
$$$$
