gdb 287	2.4074554	2.2474349	1.5642953	1.0768	73.75	-0.23168	0.08535	0.31703	907.3731	0.159944	-422.526899	-422.520164	-422.51922	-422.557473	28.446
 OpenBabel02181911403D

 19 21  0  0  1  0  0  0  0  0999 V2000
    2.4219    0.6882   -2.2853 C   0  0  0  0  0  0  0  0  0  0  0  0
    1.1230   -0.1098   -2.1384 C   0  0  2  0  0  0  0  0  0  0  0  0
   -0.3002    0.2010   -2.5284 C   0  0  0  0  0  0  0  0  0  0  0  0
   -1.0910    0.3395   -1.3230 O   0  0  0  0  0  0  0  0  0  0  0  0
   -0.4577    1.0533   -0.2494 C   0  0  1  0  0  0  0  0  0  0  0  0
    0.4171    0.1355    0.6698 C   0  0  0  0  0  0  0  0  0  0  0  0
    1.7882    0.2666    0.2073 O   0  0  0  0  0  0  0  0  0  0  0  0
    1.6000    0.8391   -1.0624 C   0  0  1  0  0  0  0  0  0  0  0  0
    0.6275    1.9777   -0.8107 C   0  0  0  0  0  0  0  0  0  0  0  0
    3.3248    0.0891   -2.2491 H   0  0  0  0  0  0  0  0  0  0  0  0
    2.4800    1.5437   -2.9520 H   0  0  0  0  0  0  0  0  0  0  0  0
    1.3042   -1.1511   -1.8889 H   0  0  0  0  0  0  0  0  0  0  0  0
   -0.3761    1.1070   -3.1445 H   0  0  0  0  0  0  0  0  0  0  0  0
   -0.7768   -0.6113   -3.0823 H   0  0  0  0  0  0  0  0  0  0  0  0
   -1.2651    1.5325    0.3084 H   0  0  0  0  0  0  0  0  0  0  0  0
    0.3835    0.4503    1.7173 H   0  0  0  0  0  0  0  0  0  0  0  0
    0.0833   -0.9046    0.5876 H   0  0  0  0  0  0  0  0  0  0  0  0
    1.0260    2.6638   -0.0587 H   0  0  0  0  0  0  0  0  0  0  0  0
    0.3093    2.5446   -1.6851 H   0  0  0  0  0  0  0  0  0  0  0  0
  1 10  1  0  0  0  0
  1  2  1  0  0  0  0
  1  8  1  0  0  0  0
  2 12  1  1  0  0  0
  2  8  1  0  0  0  0
  3  2  1  0  0  0  0
  3  4  1  0  0  0  0
  4  5  1  0  0  0  0
  5 15  1  1  0  0  0
  5  6  1  0  0  0  0
  6 16  1  0  0  0  0
  7  6  1  0  0  0  0
  8  9  1  0  0  0  0
  8  7  1  1  0  0  0
  9  5  1  0  0  0  0
  9 18  1  0  0  0  0
 11  1  1  0  0  0  0
 13  3  1  0  0  0  0
 14  3  1  0  0  0  0
 17  6  1  0  0  0  0
 19  9  1  0  0  0  0
M TOR 0 0 1 2 3
M TOR 1 0 1 2 12
M TOR 2 0 1 2 13
M TOR 3 0 1 7 6
M TOR 4 0 1 7 8
M TOR 5 0 7 1 2
M TOR 6 0 7 1 11
M TOR 7 0 7 6 5
M TOR 8 0 7 8 4
M TOR 9 0 7 8 17
M TOR 10 0 7 8 18
M TOR 11 1 2 3 4
M TOR 12 1 7 0 9
M TOR 13 1 7 0 10
M TOR 14 1 7 6 5
M TOR 15 1 7 8 4
M TOR 16 1 7 8 17
M TOR 17 1 7 8 18
M TOR 18 2 1 0 9
M TOR 19 2 1 0 10
M TOR 20 2 1 7 6
M TOR 21 2 1 7 8
M TOR 22 2 3 4 5
M TOR 23 2 3 4 8
M TOR 24 2 3 4 14
M TOR 25 3 2 1 7
M TOR 26 3 2 1 11
M TOR 27 3 4 5 6
M TOR 28 3 4 5 15
M TOR 29 3 4 5 16
M TOR 30 3 4 8 7
M TOR 31 3 4 8 17
M TOR 32 3 4 8 18
M TOR 33 4 3 2 12
M TOR 34 4 3 2 13
M TOR 35 4 5 6 7
M TOR 36 4 8 7 6
M TOR 37 5 4 8 7
M TOR 38 5 4 8 17
M TOR 39 5 4 8 18
M TOR 40 5 6 7 8
M TOR 41 6 5 4 8
M TOR 42 6 5 4 14
M TOR 43 6 7 0 9
M TOR 44 6 7 0 10
M TOR 45 6 7 1 11
M TOR 46 6 7 8 17
M TOR 47 6 7 8 18
M TOR 48 7 1 2 12
M TOR 49 7 1 2 13
M TOR 50 7 6 5 15
M TOR 51 7 6 5 16
M TOR 52 7 8 4 14
M TOR 53 8 4 5 15
M TOR 54 8 4 5 16
M TOR 55 8 7 0 9
M TOR 56 8 7 0 10
M TOR 57 8 7 1 11
M  END
$$$$
