
     RDKit          3D

 19 20  0  0  0  0  0  0  0  0999 V2000
    1.8565    0.3324    0.0584 O   0  0  0  0  0  0  0  0  0  0  0  0
    0.4308    0.3785    0.0567 C   0  0  0  0  0  0  0  0  0  0  0  0
   -0.0905    1.0266   -1.2225 C   0  0  0  0  0  0  0  0  0  0  0  0
   -0.1087    0.2219   -2.5836 C   0  0  0  0  0  0  0  0  0  0  0  0
   -0.6389    1.3079   -3.5197 C   0  0  0  0  0  0  0  0  0  0  0  0
   -1.6391    1.8613   -2.8194 C   0  0  0  0  0  0  0  0  0  0  0  0
   -1.6396    1.0701   -1.5146 C   0  0  0  0  0  0  0  0  0  0  0  0
   -1.4901   -0.3813   -2.1474 C   0  0  0  0  0  0  0  0  0  0  0  0
   -1.3828   -1.4911   -1.2914 O   0  0  0  0  0  0  0  0  0  0  0  0
    2.1212   -0.3356   -0.5815 H   0  0  0  0  0  0  0  0  0  0  0  0
   -0.0015   -0.6089    0.2306 H   0  0  0  0  0  0  0  0  0  0  0  0
    0.1591    1.0201    0.9040 H   0  0  0  0  0  0  0  0  0  0  0  0
    0.3964    2.0012   -1.3176 H   0  0  0  0  0  0  0  0  0  0  0  0
    0.7128   -0.4126   -2.9182 H   0  0  0  0  0  0  0  0  0  0  0  0
   -0.2839    1.5249   -4.5171 H   0  0  0  0  0  0  0  0  0  0  0  0
   -2.3258    2.6492   -3.0951 H   0  0  0  0  0  0  0  0  0  0  0  0
   -2.3803    1.3023   -0.7483 H   0  0  0  0  0  0  0  0  0  0  0  0
   -2.1858   -0.5880   -2.9699 H   0  0  0  0  0  0  0  0  0  0  0  0
   -2.2713   -1.7743   -1.0539 H   0  0  0  0  0  0  0  0  0  0  0  0
  1  2  1  0
  2  3  1  0
  3  4  1  0
  4  5  1  0
  5  6  2  0
  6  7  1  0
  7  8  1  0
  8  9  1  0
  7  3  1  0
  8  4  1  0
  1 10  1  0
  2 11  1  0
  2 12  1  0
  3 13  1  0
  4 14  1  0
  5 15  1  0
  6 16  1  0
  7 17  1  0
  8 18  1  0
  9 19  1  0
M  END
$$$$
