
     RDKit          3D

 19 19  0  0  0  0  0  0  0  0999 V2000
    1.2688   -0.5480   -0.1462 C   0  0  0  0  0  0  0  0  0  0  0  0
    0.0581    0.1849   -0.1283 O   0  0  0  0  0  0  0  0  0  0  0  0
   -0.2639    0.7980    1.1109 C   0  0  0  0  0  0  0  0  0  0  0  0
    0.0841    2.3056    1.1103 C   0  0  0  0  0  0  0  0  0  0  0  0
    1.5631    2.5942    1.1747 C   0  0  0  0  0  0  0  0  0  0  0  0
    2.1587    3.7785    0.5435 C   0  0  0  0  0  0  0  0  0  0  0  0
    2.3178    2.4828   -0.0353 O   0  0  0  0  0  0  0  0  0  0  0  0
   -1.6950    0.6059    1.3667 C   0  0  0  0  0  0  0  0  0  0  0  0
   -2.8690    0.4770    1.5862 C   0  0  0  0  0  0  0  0  0  0  0  0
    1.2886   -1.3129    0.6448 H   0  0  0  0  0  0  0  0  0  0  0  0
    1.3108   -1.0506   -1.1156 H   0  0  0  0  0  0  0  0  0  0  0  0
    2.1495    0.0981   -0.0494 H   0  0  0  0  0  0  0  0  0  0  0  0
    0.2968    0.3082    1.9244 H   0  0  0  0  0  0  0  0  0  0  0  0
   -0.3473    2.7521    0.2094 H   0  0  0  0  0  0  0  0  0  0  0  0
   -0.3988    2.7693    1.9790 H   0  0  0  0  0  0  0  0  0  0  0  0
    2.0772    2.1828    2.0468 H   0  0  0  0  0  0  0  0  0  0  0  0
    1.5224    4.4627   -0.0165 H   0  0  0  0  0  0  0  0  0  0  0  0
    3.0614    4.2209    0.9623 H   0  0  0  0  0  0  0  0  0  0  0  0
   -3.9058    0.3465    1.7759 H   0  0  0  0  0  0  0  0  0  0  0  0
  1  2  1  0
  2  3  1  0
  3  4  1  0
  4  5  1  0
  5  6  1  0
  6  7  1  0
  3  8  1  0
  8  9  3  0
  7  5  1  0
  1 10  1  0
  1 11  1  0
  1 12  1  0
  3 13  1  0
  4 14  1  0
  4 15  1  0
  5 16  1  0
  6 17  1  0
  6 18  1  0
  9 19  1  0
M  END
$$$$
