gdb 2643	2.7008022	1.1733244	0.957701	1.4326	77.62	-0.23513	0.04121	0.27634000000000003	1283.1559	0.153141	-422.512131	-422.50179	-422.500846	-422.547303	37.988
 OpenBabel02181911413D

 19 19  0  0  1  0  0  0  0  0999 V2000
    5.3403    0.4033   -2.8679 C   0  0  0  0  0  0  0  0  0  0  0  0
    4.5538   -0.3133   -1.7931 C   0  0  2  0  0  0  0  0  0  0  0  0
    3.2833   -1.0626   -2.1167 C   0  0  1  0  0  0  0  0  0  0  0  0
    3.1121   -2.3068   -1.4996 O   0  0  0  0  0  0  0  0  0  0  0  0
    3.2270    0.2127   -1.3012 C   0  0  2  0  0  0  0  0  0  0  0  0
    2.7646    1.3722   -1.9321 O   0  0  0  0  0  0  0  0  0  0  0  0
    2.8720    0.1166    0.1783 C   0  0  0  0  0  0  0  0  0  0  0  0
    1.4210    0.0852    0.3564 C   0  0  0  0  0  0  0  0  0  0  0  0
    0.2198    0.0647    0.4257 C   0  0  0  0  0  0  0  0  0  0  0  0
    5.9934    1.1671   -2.4331 H   0  0  0  0  0  0  0  0  0  0  0  0
    5.9683   -0.3017   -3.4226 H   0  0  0  0  0  0  0  0  0  0  0  0
    4.6731    0.9040   -3.5725 H   0  0  0  0  0  0  0  0  0  0  0  0
    5.1517   -0.7973   -1.0243 H   0  0  0  0  0  0  0  0  0  0  0  0
    2.9201   -0.9854   -3.1425 H   0  0  0  0  0  0  0  0  0  0  0  0
    2.1735   -2.4147   -1.3073 H   0  0  0  0  0  0  0  0  0  0  0  0
    1.8017    1.3722   -1.8595 H   0  0  0  0  0  0  0  0  0  0  0  0
    3.3161   -0.7893    0.6019 H   0  0  0  0  0  0  0  0  0  0  0  0
    3.2962    0.9758    0.7115 H   0  0  0  0  0  0  0  0  0  0  0  0
   -0.8372    0.0444    0.5274 H   0  0  0  0  0  0  0  0  0  0  0  0
  1 10  1  0  0  0  0
  1  2  1  0  0  0  0
  2  5  1  0  0  0  0
  2 13  1  1  0  0  0
  3 14  1  6  0  0  0
  3  2  1  0  0  0  0
  3  4  1  0  0  0  0
  3  5  1  0  0  0  0
  4 15  1  0  0  0  0
  5  6  1  6  0  0  0
  5  7  1  0  0  0  0
  6 16  1  0  0  0  0
  7  8  1  0  0  0  0
  7 17  1  0  0  0  0
  7 18  1  0  0  0  0
  8  9  3  0  0  0  0
  9 19  1  0  0  0  0
 11  1  1  0  0  0  0
 12  1  1  0  0  0  0
M TOR 0 0 1 2 3
M TOR 1 0 1 2 4
M TOR 2 0 1 2 13
M TOR 3 0 1 4 5
M TOR 4 0 1 4 6
M TOR 5 1 2 3 14
M TOR 6 1 2 4 5
M TOR 7 1 2 4 6
M TOR 8 1 4 2 3
M TOR 9 1 4 2 13
M TOR 10 1 4 5 15
M TOR 11 1 4 6 7
M TOR 12 1 4 6 16
M TOR 13 1 4 6 17
M TOR 14 2 1 0 9
M TOR 15 2 1 0 10
M TOR 16 2 1 0 11
M TOR 17 2 4 1 12
M TOR 18 2 4 5 15
M TOR 19 2 4 6 7
M TOR 20 2 4 6 16
M TOR 21 2 4 6 17
M TOR 22 3 2 1 12
M TOR 23 3 2 4 5
M TOR 24 3 2 4 6
M TOR 25 4 1 0 9
M TOR 26 4 1 0 10
M TOR 27 4 1 0 11
M TOR 28 4 2 3 14
M TOR 29 4 6 7 8
M TOR 30 5 4 1 12
M TOR 31 5 4 2 13
M TOR 32 5 4 6 7
M TOR 33 5 4 6 16
M TOR 34 5 4 6 17
M TOR 35 6 4 1 12
M TOR 36 6 4 2 13
M TOR 37 6 4 5 15
M TOR 38 6 7 8 18
M TOR 39 8 7 6 16
M TOR 40 8 7 6 17
M  END
$$$$
