
     RDKit          3D

 19 21  0  0  0  0  0  0  0  0999 V2000
   -0.0412   -0.3685    0.0724 C   0  0  0  0  0  0  0  0  0  0  0  0
    1.4041    0.0497   -0.0932 C   0  0  0  0  0  0  0  0  0  0  0  0
    2.0355   -0.2890   -1.4448 C   0  0  0  0  0  0  0  0  0  0  0  0
    3.4440   -0.3992   -1.2490 O   0  0  0  0  0  0  0  0  0  0  0  0
    3.7741   -0.2824    0.1258 C   0  0  0  0  0  0  0  0  0  0  0  0
    4.0102    1.1765    0.6363 C   0  0  0  0  0  0  0  0  0  0  0  0
    2.5867    1.1742    1.2277 C   0  0  0  0  0  0  0  0  0  0  0  0
    1.5849    1.4646    0.2276 O   0  0  0  0  0  0  0  0  0  0  0  0
    2.4628   -0.3486    0.9575 C   0  0  0  0  0  0  0  0  0  0  0  0
   -0.4038   -0.1051    1.0693 H   0  0  0  0  0  0  0  0  0  0  0  0
   -0.6717    0.1448   -0.6616 H   0  0  0  0  0  0  0  0  0  0  0  0
   -0.1557   -1.4479   -0.0707 H   0  0  0  0  0  0  0  0  0  0  0  0
    1.6483   -1.2410   -1.8346 H   0  0  0  0  0  0  0  0  0  0  0  0
    1.8223    0.5009   -2.1746 H   0  0  0  0  0  0  0  0  0  0  0  0
    4.5710   -0.9951    0.3491 H   0  0  0  0  0  0  0  0  0  0  0  0
    4.7748    1.2044    1.4197 H   0  0  0  0  0  0  0  0  0  0  0  0
    4.2251    1.9330   -0.1210 H   0  0  0  0  0  0  0  0  0  0  0  0
    2.3864    1.6826    2.1729 H   0  0  0  0  0  0  0  0  0  0  0  0
    2.2757   -1.1380    1.6815 H   0  0  0  0  0  0  0  0  0  0  0  0
  1  2  1  0
  2  3  1  0
  3  4  1  0
  4  5  1  0
  5  6  1  0
  6  7  1  0
  7  8  1  0
  7  9  1  0
  8  2  1  0
  9  2  1  0
  9  5  1  0
  1 10  1  0
  1 11  1  0
  1 12  1  0
  3 13  1  0
  3 14  1  0
  5 15  1  0
  6 16  1  0
  6 17  1  0
  7 18  1  0
  9 19  1  0
M  END
$$$$
