
     RDKit          3D

 19 18  0  0  0  0  0  0  0  0999 V2000
    1.4278   -0.0760   -0.0093 C   0  0  0  0  0  0  0  0  0  0  0  0
    0.0225   -0.0639    0.0921 O   0  0  0  0  0  0  0  0  0  0  0  0
   -0.4436    0.6804    1.1888 C   0  0  0  0  0  0  0  0  0  0  0  0
   -1.9796    0.6921    1.1516 C   0  0  0  0  0  0  0  0  0  0  0  0
   -2.5576    1.3473    2.4232 C   0  0  0  0  0  0  0  0  0  0  0  0
   -2.4662    1.3716   -0.0450 C   0  0  0  0  0  0  0  0  0  0  0  0
   -2.8692    1.9772   -1.0099 C   0  0  0  0  0  0  0  0  0  0  0  0
   -3.3713    2.6545   -2.1753 C   0  0  0  0  0  0  0  0  0  0  0  0
   -2.9921    3.7376   -2.5605 O   0  0  0  0  0  0  0  0  0  0  0  0
    1.8974   -0.5255    0.8799 H   0  0  0  0  0  0  0  0  0  0  0  0
    1.6850   -0.6752   -0.8856 H   0  0  0  0  0  0  0  0  0  0  0  0
    1.8350    0.9385   -0.1386 H   0  0  0  0  0  0  0  0  0  0  0  0
   -0.1116    0.2294    2.1397 H   0  0  0  0  0  0  0  0  0  0  0  0
   -0.0613    1.7140    1.1582 H   0  0  0  0  0  0  0  0  0  0  0  0
   -2.3050   -0.3555    1.1130 H   0  0  0  0  0  0  0  0  0  0  0  0
   -2.2270    0.7999    3.3109 H   0  0  0  0  0  0  0  0  0  0  0  0
   -2.2269    2.3862    2.5105 H   0  0  0  0  0  0  0  0  0  0  0  0
   -3.6495    1.3406    2.4000 H   0  0  0  0  0  0  0  0  0  0  0  0
   -4.1609    2.0952   -2.7182 H   0  0  0  0  0  0  0  0  0  0  0  0
  1  2  1  0
  2  3  1  0
  3  4  1  0
  4  5  1  0
  4  6  1  0
  6  7  3  0
  7  8  1  0
  8  9  2  0
  1 10  1  0
  1 11  1  0
  1 12  1  0
  3 13  1  0
  3 14  1  0
  4 15  1  0
  5 16  1  0
  5 17  1  0
  5 18  1  0
  8 19  1  0
M  END
$$$$
