
     RDKit          3D

 19 21  0  0  0  0  0  0  0  0999 V2000
    0.2661    0.6135    0.0473 O   0  0  0  0  0  0  0  0  0  0  0  0
   -0.6860   -0.0906    0.8092 C   0  0  0  0  0  0  0  0  0  0  0  0
   -0.9439    0.5396    2.2301 C   0  0  0  0  0  0  0  0  0  0  0  0
   -2.1696   -0.2405    2.7006 C   0  0  0  0  0  0  0  0  0  0  0  0
   -2.7587    0.6365    1.5725 C   0  0  0  0  0  0  0  0  0  0  0  0
   -4.1722    0.4352    1.0181 C   0  0  0  0  0  0  0  0  0  0  0  0
   -3.4979   -0.7009    0.1366 C   0  0  0  0  0  0  0  0  0  0  0  0
   -2.1516    0.0911    0.3023 C   0  0  0  0  0  0  0  0  0  0  0  0
   -1.8335    1.7036    1.9809 O   0  0  0  0  0  0  0  0  0  0  0  0
    0.0042    1.5423    0.0727 H   0  0  0  0  0  0  0  0  0  0  0  0
   -0.3215   -1.1175    0.8933 H   0  0  0  0  0  0  0  0  0  0  0  0
   -0.0800    0.7833    2.8475 H   0  0  0  0  0  0  0  0  0  0  0  0
   -2.1805   -1.3295    2.6052 H   0  0  0  0  0  0  0  0  0  0  0  0
   -2.5230    0.0820    3.6808 H   0  0  0  0  0  0  0  0  0  0  0  0
   -4.9649    0.1598    1.7173 H   0  0  0  0  0  0  0  0  0  0  0  0
   -4.5067    1.2621    0.3866 H   0  0  0  0  0  0  0  0  0  0  0  0
   -3.5162   -1.6696    0.6392 H   0  0  0  0  0  0  0  0  0  0  0  0
   -3.8735   -0.8158   -0.8807 H   0  0  0  0  0  0  0  0  0  0  0  0
   -2.1410    0.8712   -0.4661 H   0  0  0  0  0  0  0  0  0  0  0  0
  1  2  1  0
  2  3  1  0
  3  4  1  0
  4  5  1  0
  5  6  1  0
  6  7  1  0
  7  8  1  0
  5  9  1  0
  8  2  1  0
  9  3  1  0
  8  5  1  0
  1 10  1  0
  2 11  1  0
  3 12  1  0
  4 13  1  0
  4 14  1  0
  6 15  1  0
  6 16  1  0
  7 17  1  0
  7 18  1  0
  8 19  1  0
M  END
$$$$
