gdb 604	2.249311	2.1753253	1.8566673	1.9939	72.26	-0.22949	0.07018	0.29967	883.5286	0.161206	-422.553058	-422.546278	-422.545334	-422.584101	27.573
 OpenBabel02181911403D

 19 21  0  0  1  0  0  0  0  0999 V2000
    2.9793    0.0278    1.3215 C   0  0  0  0  0  0  0  0  0  0  0  0
    2.1641    1.0390    2.1653 C   0  0  0  0  0  0  0  0  0  0  0  0
    1.0063    1.6909    1.3966 C   0  0  2  0  0  0  0  0  0  0  0  0
   -0.0602    0.8287    1.0888 O   0  0  0  0  0  0  0  0  0  0  0  0
    0.2378   -0.2421    0.1910 C   0  0  0  0  0  0  0  0  0  0  0  0
    1.3879    0.0471   -0.7574 C   0  0  2  0  0  0  0  0  0  0  0  0
    2.7916    0.2156   -0.1765 C   0  0  1  0  0  0  0  0  0  0  0  0
    2.0245    1.4081   -0.6820 C   0  0  2  0  0  0  0  0  0  0  0  0
    1.5016    2.3322    0.2330 O   0  0  0  0  0  0  0  0  0  0  0  0
    4.0405    0.1321    1.5666 H   0  0  0  0  0  0  0  0  0  0  0  0
    2.7084   -0.9994    1.5945 H   0  0  0  0  0  0  0  0  0  0  0  0
    1.7685    0.5685    3.0699 H   0  0  0  0  0  0  0  0  0  0  0  0
    2.8121    1.8609    2.4855 H   0  0  0  0  0  0  0  0  0  0  0  0
    0.5566    2.4855    1.9969 H   0  0  0  0  0  0  0  0  0  0  0  0
    0.4307   -1.1618    0.7664 H   0  0  0  0  0  0  0  0  0  0  0  0
   -0.6799   -0.4069   -0.3825 H   0  0  0  0  0  0  0  0  0  0  0  0
    1.3046   -0.4283   -1.7293 H   0  0  0  0  0  0  0  0  0  0  0  0
    3.6081   -0.1370   -0.7989 H   0  0  0  0  0  0  0  0  0  0  0  0
    2.3379    1.9165   -1.5866 H   0  0  0  0  0  0  0  0  0  0  0  0
  1 10  1  0  0  0  0
  1 11  1  0  0  0  0
  1  2  1  0  0  0  0
  2 13  1  0  0  0  0
  2 12  1  0  0  0  0
  3 14  1  1  0  0  0
  3  2  1  0  0  0  0
  4  3  1  0  0  0  0
  5 15  1  0  0  0  0
  5  4  1  0  0  0  0
  6 17  1  6  0  0  0
  6  8  1  0  0  0  0
  6  7  1  0  0  0  0
  6  5  1  0  0  0  0
  7 18  1  6  0  0  0
  7  1  1  0  0  0  0
  8 19  1  6  0  0  0
  8  7  1  0  0  0  0
  8  9  1  0  0  0  0
  9  3  1  0  0  0  0
 16  5  1  0  0  0  0
M TOR 0 0 1 2 3
M TOR 1 0 1 2 8
M TOR 2 0 1 2 13
M TOR 3 0 6 5 4
M TOR 4 0 6 5 7
M TOR 5 0 6 5 16
M TOR 6 0 6 7 8
M TOR 7 0 6 7 18
M TOR 8 1 0 6 5
M TOR 9 1 0 6 7
M TOR 10 1 0 6 17
M TOR 11 1 2 3 4
M TOR 12 1 2 8 7
M TOR 13 2 1 0 6
M TOR 14 2 1 0 9
M TOR 15 2 1 0 10
M TOR 16 2 3 4 5
M TOR 17 2 3 4 14
M TOR 18 2 3 4 15
M TOR 19 2 8 7 5
M TOR 20 2 8 7 6
M TOR 21 2 8 7 18
M TOR 22 3 2 1 11
M TOR 23 3 2 1 12
M TOR 24 3 2 8 7
M TOR 25 3 4 5 6
M TOR 26 3 4 5 7
M TOR 27 3 4 5 16
M TOR 28 4 3 2 8
M TOR 29 4 3 2 13
M TOR 30 4 5 6 7
M TOR 31 4 5 6 17
M TOR 32 4 5 7 8
M TOR 33 4 5 7 18
M TOR 34 5 6 0 9
M TOR 35 5 6 0 10
M TOR 36 5 6 7 8
M TOR 37 5 6 7 18
M TOR 38 5 7 6 17
M TOR 39 6 0 1 11
M TOR 40 6 0 1 12
M TOR 41 6 5 4 14
M TOR 42 6 5 4 15
M TOR 43 6 7 5 16
M TOR 44 7 5 4 14
M TOR 45 7 5 4 15
M TOR 46 7 6 0 9
M TOR 47 7 6 0 10
M TOR 48 7 8 2 13
M TOR 49 8 2 1 11
M TOR 50 8 2 1 12
M TOR 51 8 7 5 16
M TOR 52 8 7 6 17
M  END
$$$$
