
     RDKit          3D

 19 20  0  0  0  0  0  0  0  0999 V2000
    0.9023    0.0255   -0.8937 O   0  0  0  0  0  0  0  0  0  0  0  0
   -0.0903    0.0308   -0.2185 C   0  0  0  0  0  0  0  0  0  0  0  0
   -0.9071   -1.2317    0.0443 C   0  0  0  0  0  0  0  0  0  0  0  0
   -1.8529   -1.1538    1.2256 C   0  0  0  0  0  0  0  0  0  0  0  0
   -1.4350   -1.7572    2.5464 C   0  0  0  0  0  0  0  0  0  0  0  0
   -2.5200   -2.4073    1.7170 C   0  0  0  0  0  0  0  0  0  0  0  0
   -2.5881    0.1686    1.2263 C   0  0  0  0  0  0  0  0  0  0  0  0
   -1.5646    1.2950    1.2796 C   0  0  0  0  0  0  0  0  0  0  0  0
   -0.5575    1.2127    0.2552 O   0  0  0  0  0  0  0  0  0  0  0  0
   -1.4782   -1.4031   -0.8796 H   0  0  0  0  0  0  0  0  0  0  0  0
   -0.1996   -2.0603    0.1251 H   0  0  0  0  0  0  0  0  0  0  0  0
   -0.4713   -2.2518    2.6045 H   0  0  0  0  0  0  0  0  0  0  0  0
   -1.7280   -1.2506    3.4604 H   0  0  0  0  0  0  0  0  0  0  0  0
   -2.2875   -3.3409    1.2150 H   0  0  0  0  0  0  0  0  0  0  0  0
   -3.5436   -2.3369    2.0706 H   0  0  0  0  0  0  0  0  0  0  0  0
   -3.2029    0.2634    0.3217 H   0  0  0  0  0  0  0  0  0  0  0  0
   -3.2578    0.2580    2.0884 H   0  0  0  0  0  0  0  0  0  0  0  0
   -2.0301    2.2742    1.1418 H   0  0  0  0  0  0  0  0  0  0  0  0
   -1.0550    1.2939    2.2513 H   0  0  0  0  0  0  0  0  0  0  0  0
  1  2  2  0
  2  3  1  0
  3  4  1  0
  4  5  1  0
  5  6  1  0
  4  7  1  0
  7  8  1  0
  8  9  1  0
  9  2  1  0
  6  4  1  0
  3 10  1  0
  3 11  1  0
  5 12  1  0
  5 13  1  0
  6 14  1  0
  6 15  1  0
  7 16  1  0
  7 17  1  0
  8 18  1  0
  8 19  1  0
M  END
$$$$
