
     RDKit          3D

 19 20  0  0  0  0  0  0  0  0999 V2000
    0.4099    0.0273    0.2614 O   0  0  0  0  0  0  0  0  0  0  0  0
   -0.7749    0.6929    0.5811 C   0  0  0  0  0  0  0  0  0  0  0  0
   -2.1112   -0.0234    0.4735 C   0  0  0  0  0  0  0  0  0  0  0  0
   -3.2611    0.3525    1.3967 C   0  0  0  0  0  0  0  0  0  0  0  0
   -4.5473    0.6744    0.6610 C   0  0  0  0  0  0  0  0  0  0  0  0
   -4.6703    1.4470   -0.4179 C   0  0  0  0  0  0  0  0  0  0  0  0
   -3.5997    2.2026   -1.1616 C   0  0  0  0  0  0  0  0  0  0  0  0
   -2.3198    2.2352   -0.5493 O   0  0  0  0  0  0  0  0  0  0  0  0
   -1.6836    0.9964   -0.5599 C   0  0  0  0  0  0  0  0  0  0  0  0
    0.6143   -0.5758    0.9839 H   0  0  0  0  0  0  0  0  0  0  0  0
   -0.6984    1.4638    1.3489 H   0  0  0  0  0  0  0  0  0  0  0  0
   -2.0691   -1.0604    0.1521 H   0  0  0  0  0  0  0  0  0  0  0  0
   -3.4419   -0.4645    2.1035 H   0  0  0  0  0  0  0  0  0  0  0  0
   -2.9718    1.2160    2.0084 H   0  0  0  0  0  0  0  0  0  0  0  0
   -5.4543    0.2356    1.0711 H   0  0  0  0  0  0  0  0  0  0  0  0
   -5.6627    1.5845   -0.8467 H   0  0  0  0  0  0  0  0  0  0  0  0
   -3.5181    1.8060   -2.1898 H   0  0  0  0  0  0  0  0  0  0  0  0
   -3.9044    3.2521   -1.2617 H   0  0  0  0  0  0  0  0  0  0  0  0
   -1.3768    0.6360   -1.5425 H   0  0  0  0  0  0  0  0  0  0  0  0
  1  2  1  0
  2  3  1  0
  3  4  1  0
  4  5  1  0
  5  6  2  0
  6  7  1  0
  7  8  1  0
  8  9  1  0
  9  2  1  0
  9  3  1  0
  1 10  1  0
  2 11  1  0
  3 12  1  0
  4 13  1  0
  4 14  1  0
  5 15  1  0
  6 16  1  0
  7 17  1  0
  7 18  1  0
  9 19  1  0
M  END
$$$$
