
     RDKit          3D

 19 21  0  0  0  0  0  0  0  0999 V2000
    0.7976    0.9623   -0.8777 C   0  0  0  0  0  0  0  0  0  0  0  0
   -0.0259    0.1021   -0.0785 O   0  0  0  0  0  0  0  0  0  0  0  0
    1.3540    0.2205    0.2561 C   0  0  0  0  0  0  0  0  0  0  0  0
    1.7550    0.8471    1.6071 C   0  0  0  0  0  0  0  0  0  0  0  0
    2.8366   -0.1478    2.0763 C   0  0  0  0  0  0  0  0  0  0  0  0
    3.5506   -0.5086    0.7617 C   0  0  0  0  0  0  0  0  0  0  0  0
    2.2411   -1.0187    0.1203 C   0  0  0  0  0  0  0  0  0  0  0  0
    1.7789   -2.0013    1.2110 C   0  0  0  0  0  0  0  0  0  0  0  0
    2.1901   -1.3745    2.4433 O   0  0  0  0  0  0  0  0  0  0  0  0
    0.9783    0.6211   -1.8969 H   0  0  0  0  0  0  0  0  0  0  0  0
    0.5915    2.0278   -0.7774 H   0  0  0  0  0  0  0  0  0  0  0  0
    2.1516    1.8614    1.4927 H   0  0  0  0  0  0  0  0  0  0  0  0
    0.9079    0.8767    2.2959 H   0  0  0  0  0  0  0  0  0  0  0  0
    3.4487    0.1799    2.9165 H   0  0  0  0  0  0  0  0  0  0  0  0
    3.9837    0.3520    0.2453 H   0  0  0  0  0  0  0  0  0  0  0  0
    4.3081   -1.2852    0.8900 H   0  0  0  0  0  0  0  0  0  0  0  0
    2.2898   -1.4428   -0.8825 H   0  0  0  0  0  0  0  0  0  0  0  0
    0.6934   -2.1446    1.2076 H   0  0  0  0  0  0  0  0  0  0  0  0
    2.2670   -2.9800    1.1187 H   0  0  0  0  0  0  0  0  0  0  0  0
  1  2  1  0
  2  3  1  0
  3  4  1  0
  4  5  1  0
  5  6  1  0
  6  7  1  0
  7  8  1  0
  8  9  1  0
  3  1  1  0
  7  3  1  0
  9  5  1  0
  1 10  1  0
  1 11  1  0
  4 12  1  0
  4 13  1  0
  5 14  1  0
  6 15  1  0
  6 16  1  0
  7 17  1  0
  8 18  1  0
  8 19  1  0
M  END
$$$$
