
     RDKit          3D

 19 20  0  0  0  0  0  0  0  0999 V2000
    0.5794    0.0687    0.7466 O   0  0  0  0  0  0  0  0  0  0  0  0
   -0.7637    0.4613    0.8819 C   0  0  0  0  0  0  0  0  0  0  0  0
   -1.3234    0.4720    2.3205 C   0  0  0  0  0  0  0  0  0  0  0  0
   -0.3773    1.2449    3.2556 C   0  0  0  0  0  0  0  0  0  0  0  0
    0.1113    2.5151    2.5997 C   0  0  0  0  0  0  0  0  0  0  0  0
   -0.2115    2.8358    1.3425 C   0  0  0  0  0  0  0  0  0  0  0  0
   -1.0985    1.9271    0.5147 C   0  0  0  0  0  0  0  0  0  0  0  0
   -2.5515    1.9754    1.0143 C   0  0  0  0  0  0  0  0  0  0  0  0
   -2.5701    1.1621    2.1985 O   0  0  0  0  0  0  0  0  0  0  0  0
    1.1229    0.7948    1.0774 H   0  0  0  0  0  0  0  0  0  0  0  0
   -1.3472   -0.2271    0.2627 H   0  0  0  0  0  0  0  0  0  0  0  0
   -1.5275   -0.5285    2.7120 H   0  0  0  0  0  0  0  0  0  0  0  0
   -0.9179    1.4776    4.1810 H   0  0  0  0  0  0  0  0  0  0  0  0
    0.4728    0.6122    3.5476 H   0  0  0  0  0  0  0  0  0  0  0  0
    0.7451    3.1736    3.1888 H   0  0  0  0  0  0  0  0  0  0  0  0
    0.1451    3.7599    0.8968 H   0  0  0  0  0  0  0  0  0  0  0  0
   -1.0167    2.1351   -0.5538 H   0  0  0  0  0  0  0  0  0  0  0  0
   -2.8866    2.9855    1.2716 H   0  0  0  0  0  0  0  0  0  0  0  0
   -3.2412    1.5591    0.2658 H   0  0  0  0  0  0  0  0  0  0  0  0
  1  2  1  0
  2  3  1  0
  3  4  1  0
  4  5  1  0
  5  6  2  0
  6  7  1  0
  7  8  1  0
  8  9  1  0
  7  2  1  0
  9  3  1  0
  1 10  1  0
  2 11  1  0
  3 12  1  0
  4 13  1  0
  4 14  1  0
  5 15  1  0
  6 16  1  0
  7 17  1  0
  8 18  1  0
  8 19  1  0
M  END
$$$$
