gdb 4065	2.6859225	1.6793791	1.3862545	2.7988	74.11	-0.24185	0.06879	0.31064	1009.2992	0.156737	-422.506154	-422.498241	-422.497297	-422.538081	31.561
 OpenBabel02181911413D

 19 21  0  0  1  0  0  0  0  0999 V2000
   -2.4452    1.5396   -2.2272 C   0  0  0  0  0  0  0  0  0  0  0  0
   -2.3529    0.9989   -0.8389 C   0  0  2  0  0  0  0  0  0  0  0  0
   -2.2603   -0.4348   -0.6827 O   0  0  0  0  0  0  0  0  0  0  0  0
   -3.2948    0.2674    0.0351 C   0  0  1  0  0  0  0  0  0  0  0  0
   -2.6688    0.8707    1.3145 C   0  0  1  0  0  0  0  0  0  0  0  0
   -1.4995    0.0717    1.9523 C   0  0  0  0  0  0  0  0  0  0  0  0
   -0.4766    0.8362    1.0385 C   0  0  1  0  0  0  0  0  0  0  0  0
    0.3562    0.0906    0.1965 O   0  0  0  0  0  0  0  0  0  0  0  0
   -1.6609    1.6387    0.3953 C   0  0  1  0  0  0  0  0  0  0  0  0
   -3.1303    0.9362   -2.8289 H   0  0  0  0  0  0  0  0  0  0  0  0
   -2.8024    2.5743   -2.2157 H   0  0  0  0  0  0  0  0  0  0  0  0
   -1.4613    1.5292   -2.7096 H   0  0  0  0  0  0  0  0  0  0  0  0
   -4.3074   -0.0841   -0.1344 H   0  0  0  0  0  0  0  0  0  0  0  0
   -3.3640    1.4021    1.9631 H   0  0  0  0  0  0  0  0  0  0  0  0
   -1.3646    0.2650    3.0191 H   0  0  0  0  0  0  0  0  0  0  0  0
   -1.5239   -1.0076    1.7874 H   0  0  0  0  0  0  0  0  0  0  0  0
    0.1806    1.4899    1.6189 H   0  0  0  0  0  0  0  0  0  0  0  0
   -0.2282   -0.5138   -0.2799 H   0  0  0  0  0  0  0  0  0  0  0  0
   -1.6064    2.7276    0.3779 H   0  0  0  0  0  0  0  0  0  0  0  0
  1 11  1  0  0  0  0
  2  1  1  6  0  0  0
  2  3  1  0  0  0  0
  2  4  1  0  0  0  0
  2  9  1  0  0  0  0
  3  4  1  0  0  0  0
  4 13  1  6  0  0  0
  4  5  1  0  0  0  0
  5  6  1  0  0  0  0
  5 14  1  1  0  0  0
  6 15  1  0  0  0  0
  7 17  1  1  0  0  0
  7  6  1  0  0  0  0
  8  7  1  0  0  0  0
  9 19  1  1  0  0  0
  9  7  1  0  0  0  0
  9  5  1  0  0  0  0
 10  1  1  0  0  0  0
 12  1  1  0  0  0  0
 16  6  1  0  0  0  0
 18  8  1  0  0  0  0
M TOR 0 0 1 2 3
M TOR 1 0 1 3 4
M TOR 2 0 1 3 12
M TOR 3 0 1 8 4
M TOR 4 0 1 8 6
M TOR 5 0 1 8 18
M TOR 6 1 2 3 4
M TOR 7 1 2 3 12
M TOR 8 1 3 4 5
M TOR 9 1 3 4 8
M TOR 10 1 3 4 13
M TOR 11 1 8 4 5
M TOR 12 1 8 4 13
M TOR 13 1 8 6 5
M TOR 14 1 8 6 7
M TOR 15 1 8 6 16
M TOR 16 2 1 0 9
M TOR 17 2 1 0 10
M TOR 18 2 1 0 11
M TOR 19 2 1 8 4
M TOR 20 2 1 8 6
M TOR 21 2 1 8 18
M TOR 22 2 3 1 8
M TOR 23 2 3 4 5
M TOR 24 2 3 4 8
M TOR 25 2 3 4 13
M TOR 26 3 1 0 9
M TOR 27 3 1 0 10
M TOR 28 3 1 0 11
M TOR 29 3 1 8 6
M TOR 30 3 1 8 18
M TOR 31 3 4 5 6
M TOR 32 3 4 5 14
M TOR 33 3 4 5 15
M TOR 34 3 4 8 6
M TOR 35 3 4 8 18
M TOR 36 4 5 6 7
M TOR 37 4 5 6 8
M TOR 38 4 5 6 16
M TOR 39 4 8 6 7
M TOR 40 4 8 6 16
M TOR 41 5 4 3 12
M TOR 42 5 4 8 18
M TOR 43 5 6 7 17
M TOR 44 5 6 8 18
M TOR 45 6 5 4 13
M TOR 46 6 8 4 13
M TOR 47 7 6 5 14
M TOR 48 7 6 5 15
M TOR 49 7 6 8 18
M TOR 50 8 1 0 9
M TOR 51 8 1 0 10
M TOR 52 8 1 0 11
M TOR 53 8 1 3 12
M TOR 54 8 4 3 12
M TOR 55 8 4 5 14
M TOR 56 8 4 5 15
M TOR 57 8 6 5 14
M TOR 58 8 6 5 15
M TOR 59 8 6 7 17
M  END
$$$$
