gdb 529	2.4715826	1.844562	1.7578478	1.5816	73.03	-0.24613	0.04981	0.29594	921.6251	0.158727	-422.520727	-422.513548	-422.512603	-422.55194	28.984
 OpenBabel02181911403D

 19 21  0  0  1  0  0  0  0  0999 V2000
    3.8282    3.0448   -3.2549 C   0  0  0  0  0  0  0  0  0  0  0  0
    3.4317    1.6666   -3.5374 O   0  0  0  0  0  0  0  0  0  0  0  0
    2.5043    1.6786   -2.4289 C   0  0  2  0  0  0  0  0  0  0  0  0
    1.1136    2.2706   -2.7548 C   0  0  0  0  0  0  0  0  0  0  0  0
    1.5548    3.5982   -2.3282 O   0  0  0  0  0  0  0  0  0  0  0  0
    2.8771    3.0918   -2.0396 C   0  0  2  0  0  0  0  0  0  0  0  0
    3.3948    3.0838   -0.6101 C   0  0  0  0  0  0  0  0  0  0  0  0
    3.8239    1.5948   -0.4240 C   0  0  0  0  0  0  0  0  0  0  0  0
    2.8155    0.7520   -1.2657 C   0  0  0  0  0  0  0  0  0  0  0  0
    4.9010    3.1137   -3.0368 H   0  0  0  0  0  0  0  0  0  0  0  0
    3.5661    3.7309   -4.0669 H   0  0  0  0  0  0  0  0  0  0  0  0
    0.8438    2.2451   -3.8153 H   0  0  0  0  0  0  0  0  0  0  0  0
    0.2764    1.9135   -2.1437 H   0  0  0  0  0  0  0  0  0  0  0  0
    4.2135    3.7819   -0.4137 H   0  0  0  0  0  0  0  0  0  0  0  0
    2.5670    3.3358    0.0604 H   0  0  0  0  0  0  0  0  0  0  0  0
    4.8338    1.4524   -0.8245 H   0  0  0  0  0  0  0  0  0  0  0  0
    3.8530    1.2960    0.6272 H   0  0  0  0  0  0  0  0  0  0  0  0
    3.2302   -0.2084   -1.5818 H   0  0  0  0  0  0  0  0  0  0  0  0
    1.9060    0.5531   -0.6883 H   0  0  0  0  0  0  0  0  0  0  0  0
  1 10  1  0  0  0  0
  1  6  1  0  0  0  0
  2  1  1  0  0  0  0
  3  2  1  6  0  0  0
  3  6  1  0  0  0  0
  3  9  1  0  0  0  0
  4  3  1  0  0  0  0
  4  5  1  0  0  0  0
  4 13  1  0  0  0  0
  6  5  1  6  0  0  0
  6  7  1  0  0  0  0
  7  8  1  0  0  0  0
  7 14  1  0  0  0  0
  7 15  1  0  0  0  0
  8 17  1  0  0  0  0
  9 19  1  0  0  0  0
  9  8  1  0  0  0  0
 11  1  1  0  0  0  0
 12  4  1  0  0  0  0
 16  8  1  0  0  0  0
 18  9  1  0  0  0  0
M TOR 0 0 1 2 3
M TOR 1 0 1 2 5
M TOR 2 0 1 2 8
M TOR 3 0 5 2 3
M TOR 4 0 5 2 8
M TOR 5 0 5 4 3
M TOR 6 0 5 6 7
M TOR 7 0 5 6 13
M TOR 8 0 5 6 14
M TOR 9 1 0 5 4
M TOR 10 1 0 5 6
M TOR 11 1 2 3 4
M TOR 12 1 2 3 11
M TOR 13 1 2 3 12
M TOR 14 1 2 5 4
M TOR 15 1 2 5 6
M TOR 16 1 2 8 7
M TOR 17 1 2 8 17
M TOR 18 1 2 8 18
M TOR 19 2 1 0 9
M TOR 20 2 1 0 10
M TOR 21 2 3 4 5
M TOR 22 2 5 0 9
M TOR 23 2 5 0 10
M TOR 24 2 5 6 7
M TOR 25 2 5 6 13
M TOR 26 2 5 6 14
M TOR 27 2 8 7 6
M TOR 28 2 8 7 15
M TOR 29 2 8 7 16
M TOR 30 3 2 5 6
M TOR 31 3 2 8 7
M TOR 32 3 2 8 17
M TOR 33 3 2 8 18
M TOR 34 3 4 5 6
M TOR 35 4 3 2 8
M TOR 36 4 5 0 9
M TOR 37 4 5 0 10
M TOR 38 4 5 2 8
M TOR 39 4 5 6 7
M TOR 40 4 5 6 13
M TOR 41 4 5 6 14
M TOR 42 5 2 3 11
M TOR 43 5 2 3 12
M TOR 44 5 2 8 7
M TOR 45 5 2 8 17
M TOR 46 5 2 8 18
M TOR 47 5 4 3 11
M TOR 48 5 4 3 12
M TOR 49 5 6 7 8
M TOR 50 5 6 7 15
M TOR 51 5 6 7 16
M TOR 52 6 5 0 9
M TOR 53 6 5 0 10
M TOR 54 6 5 2 8
M TOR 55 6 7 8 17
M TOR 56 6 7 8 18
M TOR 57 8 2 3 11
M TOR 58 8 2 3 12
M TOR 59 8 7 6 13
M TOR 60 8 7 6 14
M  END
$$$$
