
     RDKit          3D

 19 19  0  0  0  0  0  0  0  0999 V2000
   -1.1552    0.8712   -2.0205 C   0  0  0  0  0  0  0  0  0  0  0  0
   -1.7028    1.2719   -0.6498 C   0  0  0  0  0  0  0  0  0  0  0  0
   -2.8099    0.4110   -0.3945 O   0  0  0  0  0  0  0  0  0  0  0  0
   -0.6698    1.1734    0.4399 C   0  0  0  0  0  0  0  0  0  0  0  0
   -0.5055    0.1309    1.2991 C   0  0  0  0  0  0  0  0  0  0  0  0
    0.5202    0.3677    2.1586 O   0  0  0  0  0  0  0  0  0  0  0  0
    1.0210    1.5900    1.8362 C   0  0  0  0  0  0  0  0  0  0  0  0
    0.3415    2.1428    0.7964 C   0  0  0  0  0  0  0  0  0  0  0  0
    0.5889    3.4777    0.1639 C   0  0  0  0  0  0  0  0  0  0  0  0
   -0.8066   -0.1648   -1.9926 H   0  0  0  0  0  0  0  0  0  0  0  0
   -1.9396    0.9594   -2.7773 H   0  0  0  0  0  0  0  0  0  0  0  0
   -0.3171    1.5131   -2.3056 H   0  0  0  0  0  0  0  0  0  0  0  0
   -2.0473    2.3184   -0.7126 H   0  0  0  0  0  0  0  0  0  0  0  0
   -3.1367    0.6178    0.4877 H   0  0  0  0  0  0  0  0  0  0  0  0
   -1.0175   -0.8090    1.4171 H   0  0  0  0  0  0  0  0  0  0  0  0
    1.8492    1.9324    2.4356 H   0  0  0  0  0  0  0  0  0  0  0  0
    1.3907    4.0127    0.6802 H   0  0  0  0  0  0  0  0  0  0  0  0
    0.8786    3.3841   -0.8891 H   0  0  0  0  0  0  0  0  0  0  0  0
   -0.3055    4.1113    0.1934 H   0  0  0  0  0  0  0  0  0  0  0  0
  1  2  1  0
  2  3  1  0
  2  4  1  0
  4  5  2  0
  5  6  1  0
  6  7  1  0
  7  8  2  0
  8  9  1  0
  8  4  1  0
  1 10  1  0
  1 11  1  0
  1 12  1  0
  2 13  1  0
  3 14  1  0
  5 15  1  0
  7 16  1  0
  9 17  1  0
  9 18  1  0
  9 19  1  0
M  END
$$$$
