
     RDKit          3D

 19 20  0  0  0  0  0  0  0  0999 V2000
    1.3739   -0.4202   -0.2551 O   0  0  0  0  0  0  0  0  0  0  0  0
    0.2208   -0.1315   -0.0648 C   0  0  0  0  0  0  0  0  0  0  0  0
   -0.2879    0.6520    1.1258 C   0  0  0  0  0  0  0  0  0  0  0  0
   -0.9442    1.9586    0.6778 C   0  0  0  0  0  0  0  0  0  0  0  0
   -1.4199    3.0500    1.6724 C   0  0  0  0  0  0  0  0  0  0  0  0
   -0.1765    3.3824    2.5237 C   0  0  0  0  0  0  0  0  0  0  0  0
    0.8444    3.5021    1.3468 C   0  0  0  0  0  0  0  0  0  0  0  0
   -0.1424    3.2006    0.2004 C   0  0  0  0  0  0  0  0  0  0  0  0
   -1.2988    4.0120    0.5793 O   0  0  0  0  0  0  0  0  0  0  0  0
   -0.5703   -0.4217   -0.7958 H   0  0  0  0  0  0  0  0  0  0  0  0
   -1.0457    0.0386    1.6340 H   0  0  0  0  0  0  0  0  0  0  0  0
    0.5443    0.8096    1.8149 H   0  0  0  0  0  0  0  0  0  0  0  0
   -1.7486    1.7684   -0.0378 H   0  0  0  0  0  0  0  0  0  0  0  0
   -2.4009    3.0328    2.1478 H   0  0  0  0  0  0  0  0  0  0  0  0
   -0.3143    4.3236    3.0589 H   0  0  0  0  0  0  0  0  0  0  0  0
    0.0740    2.6051    3.2506 H   0  0  0  0  0  0  0  0  0  0  0  0
    1.2570    4.5077    1.2487 H   0  0  0  0  0  0  0  0  0  0  0  0
    1.6727    2.7912    1.4017 H   0  0  0  0  0  0  0  0  0  0  0  0
    0.1833    3.3411   -0.8301 H   0  0  0  0  0  0  0  0  0  0  0  0
  1  2  2  0
  2  3  1  0
  3  4  1  0
  4  5  1  0
  5  6  1  0
  6  7  1  0
  7  8  1  0
  8  9  1  0
  8  4  1  0
  9  5  1  0
  2 10  1  0
  3 11  1  0
  3 12  1  0
  4 13  1  0
  5 14  1  0
  6 15  1  0
  6 16  1  0
  7 17  1  0
  7 18  1  0
  8 19  1  0
M  END
$$$$
