gdb 3990	3.9776392	0.9150609	0.827704	2.0762	77.24	-0.26317	0.00778	0.27095	1427.2952	0.156015	-422.548468	-422.539684	-422.53874	-422.582935	32.035
 OpenBabel02181911413D

 19 20  0  0  1  0  0  0  0  0999 V2000
   -4.4881    3.1342    0.8861 C   0  0  0  0  0  0  0  0  0  0  0  0
   -3.0089    3.0531    0.5328 C   0  0  2  0  0  0  0  0  0  0  0  0
   -2.6381    3.6935   -0.8530 C   0  0  0  0  0  0  0  0  0  0  0  0
   -2.1897    2.3203   -1.3599 C   0  0  1  0  0  0  0  0  0  0  0  0
   -1.1271    1.7781   -0.4614 C   0  0  2  0  0  0  0  0  0  0  0  0
   -0.5789    0.5618   -0.9522 O   0  0  0  0  0  0  0  0  0  0  0  0
    0.2565   -0.0874   -0.1232 C   0  0  0  0  0  0  0  0  0  0  0  0
    0.5800    0.2613    0.9771 O   0  0  0  0  0  0  0  0  0  0  0  0
   -2.5509    1.6881   -0.0036 C   0  0  1  0  0  0  0  0  0  0  0  0
   -4.7154    2.5408    1.7784 H   0  0  0  0  0  0  0  0  0  0  0  0
   -4.7853    4.1694    1.0857 H   0  0  0  0  0  0  0  0  0  0  0  0
   -5.1097    2.7570    0.0661 H   0  0  0  0  0  0  0  0  0  0  0  0
   -2.4072    3.4191    1.3735 H   0  0  0  0  0  0  0  0  0  0  0  0
   -3.5243    4.0675   -1.3717 H   0  0  0  0  0  0  0  0  0  0  0  0
   -1.8760    4.4801   -0.8509 H   0  0  0  0  0  0  0  0  0  0  0  0
   -2.3118    1.9230   -2.3601 H   0  0  0  0  0  0  0  0  0  0  0  0
   -0.3953    2.4028    0.0438 H   0  0  0  0  0  0  0  0  0  0  0  0
    0.6089   -0.9977   -0.6323 H   0  0  0  0  0  0  0  0  0  0  0  0
   -3.0023    0.7266    0.2119 H   0  0  0  0  0  0  0  0  0  0  0  0
  1 11  1  0  0  0  0
  1 10  1  0  0  0  0
  2  1  1  0  0  0  0
  2 13  1  1  0  0  0
  3 15  1  0  0  0  0
  3  2  1  0  0  0  0
  4 16  1  6  0  0  0
  4  3  1  0  0  0  0
  4  5  1  0  0  0  0
  4  9  1  0  0  0  0
  5  9  1  0  0  0  0
  5 17  1  1  0  0  0
  6  5  1  0  0  0  0
  6  7  1  0  0  0  0
  7  8  2  0  0  0  0
  9 19  1  1  0  0  0
  9  2  1  0  0  0  0
 12  1  1  0  0  0  0
 14  3  1  0  0  0  0
 18  7  1  0  0  0  0
M TOR 0 0 1 2 3
M TOR 1 0 1 2 13
M TOR 2 0 1 2 14
M TOR 3 0 1 8 3
M TOR 4 0 1 8 4
M TOR 5 0 1 8 18
M TOR 6 1 2 3 4
M TOR 7 1 2 3 8
M TOR 8 1 2 3 15
M TOR 9 1 8 3 4
M TOR 10 1 8 3 15
M TOR 11 1 8 4 5
M TOR 12 1 8 4 16
M TOR 13 2 1 0 9
M TOR 14 2 1 0 10
M TOR 15 2 1 0 11
M TOR 16 2 1 8 4
M TOR 17 2 1 8 18
M TOR 18 2 3 4 5
M TOR 19 2 3 4 8
M TOR 20 2 3 4 16
M TOR 21 2 3 8 18
M TOR 22 3 2 1 12
M TOR 23 3 4 5 6
M TOR 24 3 4 8 18
M TOR 25 3 8 1 12
M TOR 26 3 8 4 5
M TOR 27 3 8 4 16
M TOR 28 4 3 2 13
M TOR 29 4 3 2 14
M TOR 30 4 5 6 7
M TOR 31 4 5 6 17
M TOR 32 4 8 1 12
M TOR 33 4 8 3 15
M TOR 34 5 4 3 15
M TOR 35 5 4 8 18
M TOR 36 6 5 4 8
M TOR 37 6 5 4 16
M TOR 38 8 1 0 9
M TOR 39 8 1 0 10
M TOR 40 8 1 0 11
M TOR 41 8 1 2 13
M TOR 42 8 1 2 14
M TOR 43 8 3 2 13
M TOR 44 8 3 2 14
M  END
$$$$
