
     RDKit          3D

 19 20  0  0  0  0  0  0  0  0999 V2000
    1.4414   -0.1505    0.0415 C   0  0  0  0  0  0  0  0  0  0  0  0
    0.0384   -0.0170    0.1071 O   0  0  0  0  0  0  0  0  0  0  0  0
   -0.3949    0.7485    1.1941 C   0  0  0  0  0  0  0  0  0  0  0  0
   -1.9127    0.9978    1.0901 C   0  0  0  0  0  0  0  0  0  0  0  0
   -2.5163    1.4167    2.4390 C   0  0  0  0  0  0  0  0  0  0  0  0
   -1.6505    2.5110    3.0343 C   0  0  0  0  0  0  0  0  0  0  0  0
   -0.5962    2.9472    2.3429 C   0  0  0  0  0  0  0  0  0  0  0  0
   -0.3710    2.2972    0.9947 C   0  0  0  0  0  0  0  0  0  0  0  0
   -1.6540    2.1977    0.3078 O   0  0  0  0  0  0  0  0  0  0  0  0
    1.8463   -0.6195    0.9520 H   0  0  0  0  0  0  0  0  0  0  0  0
    1.6654   -0.7890   -0.8159 H   0  0  0  0  0  0  0  0  0  0  0  0
    1.9437    0.8180   -0.0993 H   0  0  0  0  0  0  0  0  0  0  0  0
    0.0141    0.3704    2.1416 H   0  0  0  0  0  0  0  0  0  0  0  0
   -2.5005    0.2569    0.5427 H   0  0  0  0  0  0  0  0  0  0  0  0
   -3.5450    1.7721    2.2949 H   0  0  0  0  0  0  0  0  0  0  0  0
   -2.5771    0.5536    3.1157 H   0  0  0  0  0  0  0  0  0  0  0  0
   -1.9201    2.9224    4.0025 H   0  0  0  0  0  0  0  0  0  0  0  0
    0.0799    3.7116    2.7107 H   0  0  0  0  0  0  0  0  0  0  0  0
    0.4010    2.7563    0.3744 H   0  0  0  0  0  0  0  0  0  0  0  0
  1  2  1  0
  2  3  1  0
  3  4  1  0
  4  5  1  0
  5  6  1  0
  6  7  2  0
  7  8  1  0
  8  9  1  0
  8  3  1  0
  9  4  1  0
  1 10  1  0
  1 11  1  0
  1 12  1  0
  3 13  1  0
  4 14  1  0
  5 15  1  0
  5 16  1  0
  6 17  1  0
  7 18  1  0
  8 19  1  0
M  END
$$$$
