gdb 5149	2.3650919	1.6791024	1.203452	2.0138	75.83	-0.22637	0.07632	0.30269	1092.3307	0.154772	-422.471813	-422.463077	-422.462133	-422.505152	32.872
 OpenBabel02181911423D

 19 21  0  0  1  0  0  0  0  0999 V2000
    1.4899    0.2918   -0.1963 C   0  0  0  0  0  0  0  0  0  0  0  0
    0.1442   -0.0895    0.0564 O   0  0  0  0  0  0  0  0  0  0  0  0
   -0.4268    0.5496    1.1281 C   0  0  1  0  0  0  0  0  0  0  0  0
   -0.7785    2.0275    1.1523 C   0  0  0  0  0  0  0  0  0  0  0  0
   -1.8484    0.9845    1.3514 C   0  0  2  0  0  0  0  0  0  0  0  0
   -1.8537    0.5151    2.7061 O   0  0  0  0  0  0  0  0  0  0  0  0
   -0.5237   -0.0098    2.5334 C   0  0  0  0  0  0  0  0  0  0  0  0
    0.4489   -0.1292    3.6558 C   0  0  0  0  0  0  0  0  0  0  0  0
   -0.1541   -1.3716    3.0048 C   0  0  0  0  0  0  0  0  0  0  0  0
    2.1567    0.0091    0.6295 H   0  0  0  0  0  0  0  0  0  0  0  0
    1.8021   -0.2361   -1.0998 H   0  0  0  0  0  0  0  0  0  0  0  0
    1.5744    1.3741   -0.3598 H   0  0  0  0  0  0  0  0  0  0  0  0
   -0.4859    2.6718    1.9765 H   0  0  0  0  0  0  0  0  0  0  0  0
   -0.7843    2.4881    0.1684 H   0  0  0  0  0  0  0  0  0  0  0  0
   -2.7554    0.8825    0.7694 H   0  0  0  0  0  0  0  0  0  0  0  0
    1.4927    0.1065    3.4749 H   0  0  0  0  0  0  0  0  0  0  0  0
    0.0907    0.1315    4.6459 H   0  0  0  0  0  0  0  0  0  0  0  0
    0.4701   -1.9786    2.3575 H   0  0  0  0  0  0  0  0  0  0  0  0
   -0.9002   -1.9197    3.5694 H   0  0  0  0  0  0  0  0  0  0  0  0
  1  2  1  0  0  0  0
  1 10  1  0  0  0  0
  3  2  1  6  0  0  0
  3  4  1  0  0  0  0
  3  5  1  0  0  0  0
  3  7  1  0  0  0  0
  4  5  1  0  0  0  0
  4 13  1  0  0  0  0
  5 15  1  6  0  0  0
  5  6  1  0  0  0  0
  7  6  1  0  0  0  0
  7  9  1  0  0  0  0
  7  8  1  0  0  0  0
  8 17  1  0  0  0  0
  9 19  1  0  0  0  0
  9  8  1  0  0  0  0
 11  1  1  0  0  0  0
 12  1  1  0  0  0  0
 14  4  1  0  0  0  0
 16  8  1  0  0  0  0
 18  9  1  0  0  0  0
M TOR 0 0 1 2 3
M TOR 1 0 1 2 4
M TOR 2 0 1 2 6
M TOR 3 1 2 3 4
M TOR 4 1 2 3 12
M TOR 5 1 2 3 13
M TOR 6 1 2 4 5
M TOR 7 1 2 4 14
M TOR 8 1 2 6 5
M TOR 9 1 2 6 7
M TOR 10 1 2 6 8
M TOR 11 2 1 0 9
M TOR 12 2 1 0 10
M TOR 13 2 1 0 11
M TOR 14 2 3 4 5
M TOR 15 2 3 4 14
M TOR 16 2 4 3 12
M TOR 17 2 4 3 13
M TOR 18 2 4 5 6
M TOR 19 2 6 7 8
M TOR 20 2 6 7 15
M TOR 21 2 6 7 16
M TOR 22 2 6 8 17
M TOR 23 2 6 8 18
M TOR 24 3 2 6 5
M TOR 25 3 2 6 7
M TOR 26 3 2 6 8
M TOR 27 3 4 2 6
M TOR 28 3 4 5 6
M TOR 29 4 2 6 7
M TOR 30 4 2 6 8
M TOR 31 4 5 6 7
M TOR 32 4 5 6 8
M TOR 33 5 4 3 12
M TOR 34 5 4 3 13
M TOR 35 5 6 7 8
M TOR 36 5 6 7 15
M TOR 37 5 6 7 16
M TOR 38 5 6 8 17
M TOR 39 5 6 8 18
M TOR 40 6 2 3 12
M TOR 41 6 2 3 13
M TOR 42 6 2 4 14
M TOR 43 6 5 4 14
M TOR 44 6 7 8 17
M TOR 45 6 7 8 18
M TOR 46 6 8 7 15
M TOR 47 6 8 7 16
M  END
$$$$
