gdb 4088	4.4526476	1.2120115	1.0725302	2.4874	74.66	-0.23296	0.06595	0.29891	1155.2842	0.157579	-422.502718	-422.495034	-422.49409	-422.534888	29.5
 OpenBabel02181911413D

 19 21  0  0  1  0  0  0  0  0999 V2000
    0.3260   -0.4716   -0.1322 C   0  0  0  0  0  0  0  0  0  0  0  0
    1.0018    0.8678    0.0880 C   0  0  2  0  0  0  0  0  0  0  0  0
    2.4484    0.7297    0.1753 O   0  0  0  0  0  0  0  0  0  0  0  0
    2.4665    1.1920    1.5352 C   0  0  1  0  0  0  0  0  0  0  0  0
    2.7241    2.7062    1.6237 C   0  0  2  0  0  0  0  0  0  0  0  0
    2.7905    3.1496    2.9915 O   0  0  0  0  0  0  0  0  0  0  0  0
    1.3910    3.5163    2.9943 C   0  0  0  0  0  0  0  0  0  0  0  0
    1.1825    2.9767    1.5699 C   0  0  2  0  0  0  0  0  0  0  0  0
    0.9242    1.4558    1.5129 C   0  0  1  0  0  0  0  0  0  0  0  0
    0.5607   -1.1657    0.6808 H   0  0  0  0  0  0  0  0  0  0  0  0
   -0.7616   -0.3482   -0.1834 H   0  0  0  0  0  0  0  0  0  0  0  0
    0.6672   -0.9165   -1.0720 H   0  0  0  0  0  0  0  0  0  0  0  0
    0.7275    1.5695   -0.7120 H   0  0  0  0  0  0  0  0  0  0  0  0
    3.0138    0.5381    2.2186 H   0  0  0  0  0  0  0  0  0  0  0  0
    3.4914    3.1429    0.9797 H   0  0  0  0  0  0  0  0  0  0  0  0
    0.8305    3.0215    3.7976 H   0  0  0  0  0  0  0  0  0  0  0  0
    1.2674    4.6027    3.0893 H   0  0  0  0  0  0  0  0  0  0  0  0
    0.6726    3.6150    0.8481 H   0  0  0  0  0  0  0  0  0  0  0  0
    0.1920    1.0237    2.1964 H   0  0  0  0  0  0  0  0  0  0  0  0
  1  2  1  0  0  0  0
  1 10  1  0  0  0  0
  2 13  1  6  0  0  0
  2  3  1  0  0  0  0
  2  9  1  0  0  0  0
  3  4  1  0  0  0  0
  4  5  1  0  0  0  0
  4 14  1  1  0  0  0
  5 15  1  6  0  0  0
  5  6  1  0  0  0  0
  6  7  1  0  0  0  0
  7 17  1  0  0  0  0
  7 16  1  0  0  0  0
  8 18  1  6  0  0  0
  8  5  1  0  0  0  0
  8  7  1  0  0  0  0
  9  4  1  0  0  0  0
  9  8  1  0  0  0  0
  9 19  1  1  0  0  0
 11  1  1  0  0  0  0
 12  1  1  0  0  0  0
M TOR 0 0 1 2 3
M TOR 1 0 1 8 3
M TOR 2 0 1 8 7
M TOR 3 0 1 8 18
M TOR 4 1 2 3 4
M TOR 5 1 2 3 8
M TOR 6 1 2 3 13
M TOR 7 1 8 3 4
M TOR 8 1 8 3 13
M TOR 9 1 8 7 4
M TOR 10 1 8 7 6
M TOR 11 1 8 7 17
M TOR 12 2 1 0 9
M TOR 13 2 1 0 10
M TOR 14 2 1 0 11
M TOR 15 2 1 8 7
M TOR 16 2 1 8 18
M TOR 17 2 3 4 5
M TOR 18 2 3 4 7
M TOR 19 2 3 4 14
M TOR 20 2 3 8 7
M TOR 21 2 3 8 18
M TOR 22 3 2 1 12
M TOR 23 3 4 5 6
M TOR 24 3 4 7 6
M TOR 25 3 4 7 8
M TOR 26 3 4 7 17
M TOR 27 3 8 1 12
M TOR 28 3 8 7 6
M TOR 29 3 8 7 17
M TOR 30 4 3 8 18
M TOR 31 4 5 6 7
M TOR 32 4 5 6 15
M TOR 33 4 5 6 16
M TOR 34 4 7 6 15
M TOR 35 4 7 6 16
M TOR 36 4 7 8 18
M TOR 37 5 4 3 8
M TOR 38 5 4 3 13
M TOR 39 5 4 7 8
M TOR 40 5 4 7 17
M TOR 41 5 6 7 8
M TOR 42 5 6 7 17
M TOR 43 6 5 4 14
M TOR 44 6 7 4 14
M TOR 45 6 7 8 18
M TOR 46 7 4 3 13
M TOR 47 7 8 1 12
M TOR 48 7 8 3 13
M TOR 49 8 1 0 9
M TOR 50 8 1 0 10
M TOR 51 8 1 0 11
M TOR 52 8 3 4 14
M TOR 53 8 7 4 14
M TOR 54 8 7 6 15
M TOR 55 8 7 6 16
M  END
$$$$
