
     RDKit          3D

 19 18  0  0  0  0  0  0  0  0999 V2000
    1.0818   -0.9152    0.9442 C   0  0  0  0  0  0  0  0  0  0  0  0
    0.8229    0.0707   -0.1976 C   0  0  0  0  0  0  0  0  0  0  0  0
    1.6266    1.3676   -0.0484 C   0  0  0  0  0  0  0  0  0  0  0  0
    1.3158    2.0493    1.1515 O   0  0  0  0  0  0  0  0  0  0  0  0
    1.4427    2.3071   -1.2906 C   0  0  0  0  0  0  0  0  0  0  0  0
    2.0763    1.6699   -2.5322 C   0  0  0  0  0  0  0  0  0  0  0  0
    1.4567    1.1121   -3.3972 O   0  0  0  0  0  0  0  0  0  0  0  0
    2.0465    3.6161   -1.0812 C   0  0  0  0  0  0  0  0  0  0  0  0
    2.5867    4.6839   -0.9691 C   0  0  0  0  0  0  0  0  0  0  0  0
    0.4516   -1.8036    0.8451 H   0  0  0  0  0  0  0  0  0  0  0  0
    2.1263   -1.2455    0.9496 H   0  0  0  0  0  0  0  0  0  0  0  0
    0.8758   -0.4501    1.9116 H   0  0  0  0  0  0  0  0  0  0  0  0
    1.0521   -0.3943   -1.1625 H   0  0  0  0  0  0  0  0  0  0  0  0
   -0.2452    0.3304   -0.2361 H   0  0  0  0  0  0  0  0  0  0  0  0
    2.6946    1.1327    0.0403 H   0  0  0  0  0  0  0  0  0  0  0  0
    0.3814    2.2867    1.1292 H   0  0  0  0  0  0  0  0  0  0  0  0
    0.3685    2.4035   -1.4940 H   0  0  0  0  0  0  0  0  0  0  0  0
    3.1843    1.7569   -2.5634 H   0  0  0  0  0  0  0  0  0  0  0  0
    3.0468    5.6331   -0.8456 H   0  0  0  0  0  0  0  0  0  0  0  0
  1  2  1  0
  2  3  1  0
  3  4  1  0
  3  5  1  0
  5  6  1  0
  6  7  2  0
  5  8  1  0
  8  9  3  0
  1 10  1  0
  1 11  1  0
  1 12  1  0
  2 13  1  0
  2 14  1  0
  3 15  1  0
  4 16  1  0
  5 17  1  0
  6 18  1  0
  9 19  1  0
M  END
$$$$
