gdb 4053	2.636395	1.8668696	1.3373582	2.9503	74.39	-0.22874	0.06853	0.29727	987.9388	0.157066	-422.512154	-422.504304	-422.50336	-422.544037	31.205
 OpenBabel02181911413D

 19 21  0  0  1  0  0  0  0  0999 V2000
    1.1501    0.8828   -3.2603 C   0  0  0  0  0  0  0  0  0  0  0  0
    0.3407    0.0560   -2.2941 C   0  0  1  0  0  0  0  0  0  0  0  0
   -1.0776   -0.4764   -2.6893 C   0  0  1  0  0  0  0  0  0  0  0  0
   -0.4903   -1.4609   -3.6075 O   0  0  0  0  0  0  0  0  0  0  0  0
    0.3432   -1.5082   -2.3937 C   0  0  2  0  0  0  0  0  0  0  0  0
   -0.9180   -1.4502   -1.4884 C   0  0  1  0  0  0  0  0  0  0  0  0
   -0.6159   -0.6531   -0.2284 C   0  0  0  0  0  0  0  0  0  0  0  0
    0.3315    0.4365   -0.8178 C   0  0  1  0  0  0  0  0  0  0  0  0
    1.6672    0.3591   -0.3370 O   0  0  0  0  0  0  0  0  0  0  0  0
    2.1987    0.9139   -2.9510 H   0  0  0  0  0  0  0  0  0  0  0  0
    1.0853    0.4551   -4.2639 H   0  0  0  0  0  0  0  0  0  0  0  0
    0.7840    1.9154   -3.2981 H   0  0  0  0  0  0  0  0  0  0  0  0
   -1.9553    0.0762   -3.0299 H   0  0  0  0  0  0  0  0  0  0  0  0
    1.1850   -2.2005   -2.3797 H   0  0  0  0  0  0  0  0  0  0  0  0
   -1.5629   -2.3271   -1.4539 H   0  0  0  0  0  0  0  0  0  0  0  0
   -1.5183   -0.2322    0.2268 H   0  0  0  0  0  0  0  0  0  0  0  0
   -0.0932   -1.2437    0.5304 H   0  0  0  0  0  0  0  0  0  0  0  0
   -0.0689    1.4507   -0.6693 H   0  0  0  0  0  0  0  0  0  0  0  0
    1.6701    0.6229    0.5882 H   0  0  0  0  0  0  0  0  0  0  0  0
  1 10  1  0  0  0  0
  2  1  1  6  0  0  0
  2  8  1  0  0  0  0
  3 13  1  6  0  0  0
  3  2  1  0  0  0  0
  3  6  1  0  0  0  0
  4  3  1  0  0  0  0
  4  5  1  0  0  0  0
  5 14  1  1  0  0  0
  5  2  1  0  0  0  0
  5  6  1  0  0  0  0
  6 15  1  1  0  0  0
  6  7  1  0  0  0  0
  7 16  1  0  0  0  0
  7 17  1  0  0  0  0
  8 18  1  1  0  0  0
  8  9  1  0  0  0  0
  8  7  1  0  0  0  0
  9 19  1  0  0  0  0
 11  1  1  0  0  0  0
 12  1  1  0  0  0  0
M TOR 0 0 1 2 3
M TOR 1 0 1 2 5
M TOR 2 0 1 2 12
M TOR 3 0 1 4 3
M TOR 4 0 1 4 5
M TOR 5 0 1 4 13
M TOR 6 0 1 7 6
M TOR 7 0 1 7 8
M TOR 8 0 1 7 17
M TOR 9 1 2 3 4
M TOR 10 1 2 5 4
M TOR 11 1 2 5 6
M TOR 12 1 2 5 14
M TOR 13 1 4 5 6
M TOR 14 1 4 5 14
M TOR 15 1 7 6 5
M TOR 16 1 7 6 15
M TOR 17 1 7 6 16
M TOR 18 1 7 8 18
M TOR 19 2 1 0 9
M TOR 20 2 1 0 10
M TOR 21 2 1 0 11
M TOR 22 2 1 4 13
M TOR 23 2 1 7 6
M TOR 24 2 1 7 8
M TOR 25 2 1 7 17
M TOR 26 2 3 4 5
M TOR 27 2 3 4 13
M TOR 28 2 5 4 13
M TOR 29 2 5 6 7
M TOR 30 2 5 6 15
M TOR 31 2 5 6 16
M TOR 32 3 2 1 7
M TOR 33 3 2 5 6
M TOR 34 3 2 5 14
M TOR 35 3 4 1 7
M TOR 36 3 4 5 6
M TOR 37 3 4 5 14
M TOR 38 4 1 0 9
M TOR 39 4 1 0 10
M TOR 40 4 1 0 11
M TOR 41 4 1 2 12
M TOR 42 4 1 7 6
M TOR 43 4 1 7 8
M TOR 44 4 1 7 17
M TOR 45 4 3 2 12
M TOR 46 4 5 2 12
M TOR 47 4 5 6 7
M TOR 48 4 5 6 15
M TOR 49 4 5 6 16
M TOR 50 5 2 1 7
M TOR 51 5 4 1 7
M TOR 52 5 6 7 8
M TOR 53 5 6 7 17
M TOR 54 6 5 2 12
M TOR 55 6 5 4 13
M TOR 56 6 7 8 18
M TOR 57 7 1 0 9
M TOR 58 7 1 0 10
M TOR 59 7 1 0 11
M TOR 60 7 1 2 12
M TOR 61 7 1 4 13
M TOR 62 7 6 5 14
M TOR 63 8 7 6 15
M TOR 64 8 7 6 16
M  END
$$$$
