
     RDKit          3D

 19 20  0  0  0  0  0  0  0  0999 V2000
   -0.1866   -2.3929   -0.7703 C   0  0  0  0  0  0  0  0  0  0  0  0
   -0.7587   -1.2250    0.0296 C   0  0  0  0  0  0  0  0  0  0  0  0
   -2.2709   -1.0422   -0.1373 C   0  0  0  0  0  0  0  0  0  0  0  0
   -3.1915   -1.0625    1.0659 C   0  0  0  0  0  0  0  0  0  0  0  0
   -2.8149    0.2418    0.4352 C   0  0  0  0  0  0  0  0  0  0  0  0
   -1.8674    1.0142    1.1206 O   0  0  0  0  0  0  0  0  0  0  0  0
   -0.7720    1.3404    0.2817 C   0  0  0  0  0  0  0  0  0  0  0  0
   -0.0945    0.1059   -0.3258 C   0  0  0  0  0  0  0  0  0  0  0  0
    0.8788    0.2141   -1.0322 O   0  0  0  0  0  0  0  0  0  0  0  0
   -0.6483   -3.3342   -0.4586 H   0  0  0  0  0  0  0  0  0  0  0  0
   -0.3686   -2.2570   -1.8409 H   0  0  0  0  0  0  0  0  0  0  0  0
    0.8941   -2.4665   -0.6308 H   0  0  0  0  0  0  0  0  0  0  0  0
   -0.5497   -1.3780    1.0979 H   0  0  0  0  0  0  0  0  0  0  0  0
   -2.6722   -1.3875   -1.0852 H   0  0  0  0  0  0  0  0  0  0  0  0
   -4.2067   -1.4182    0.9299 H   0  0  0  0  0  0  0  0  0  0  0  0
   -2.7527   -1.2830    2.0331 H   0  0  0  0  0  0  0  0  0  0  0  0
   -3.5628    0.8175   -0.1092 H   0  0  0  0  0  0  0  0  0  0  0  0
   -1.0678    2.0130   -0.5385 H   0  0  0  0  0  0  0  0  0  0  0  0
   -0.0420    1.8749    0.8973 H   0  0  0  0  0  0  0  0  0  0  0  0
  1  2  1  0
  2  3  1  0
  3  4  1  0
  4  5  1  0
  5  6  1  0
  6  7  1  0
  7  8  1  0
  8  9  2  0
  8  2  1  0
  5  3  1  0
  1 10  1  0
  1 11  1  0
  1 12  1  0
  2 13  1  0
  3 14  1  0
  4 15  1  0
  4 16  1  0
  5 17  1  0
  7 18  1  0
  7 19  1  0
M  END
$$$$
