gdb 5145	2.9881625	1.3919578	1.1713861	0.7441	73.81	-0.23523	0.07544	0.31067	1098.8915	0.15745	-422.517252	-422.509247	-422.508303	-422.549688	31.421
 OpenBabel02181911423D

 19 21  0  0  1  0  0  0  0  0999 V2000
    1.4095    0.5583   -0.1695 O   0  0  0  0  0  0  0  0  0  0  0  0
    0.0334    0.2789    0.0427 C   0  0  0  0  0  0  0  0  0  0  0  0
   -0.7969    0.4600   -1.2026 C   0  0  1  0  0  0  0  0  0  0  0  0
   -0.9869   -0.7050   -2.1677 C   0  0  0  0  0  0  0  0  0  0  0  0
   -2.1588   -0.1626   -1.3887 C   0  0  2  0  0  0  0  0  0  0  0  0
   -3.0293    0.7586   -1.9968 O   0  0  0  0  0  0  0  0  0  0  0  0
   -2.3848    2.0029   -2.1534 C   0  0  2  0  0  0  0  0  0  0  0  0
   -1.2978    2.1283   -3.1871 C   0  0  0  0  0  0  0  0  0  0  0  0
   -0.9427    1.8745   -1.7337 C   0  0  2  0  0  0  0  0  0  0  0  0
    1.7001    0.0185   -0.9126 H   0  0  0  0  0  0  0  0  0  0  0  0
   -0.1137   -0.7385    0.4397 H   0  0  0  0  0  0  0  0  0  0  0  0
   -0.2892    0.9813    0.8198 H   0  0  0  0  0  0  0  0  0  0  0  0
   -0.9395   -0.5444   -3.2373 H   0  0  0  0  0  0  0  0  0  0  0  0
   -0.6052   -1.6704   -1.8459 H   0  0  0  0  0  0  0  0  0  0  0  0
   -2.6533   -0.7825   -0.6472 H   0  0  0  0  0  0  0  0  0  0  0  0
   -3.0304    2.8420   -1.9176 H   0  0  0  0  0  0  0  0  0  0  0  0
   -1.1789    1.3454   -3.9257 H   0  0  0  0  0  0  0  0  0  0  0  0
   -1.0973    3.1264   -3.5635 H   0  0  0  0  0  0  0  0  0  0  0  0
   -0.4248    2.6488   -1.1812 H   0  0  0  0  0  0  0  0  0  0  0  0
  1  2  1  0  0  0  0
  2 11  1  0  0  0  0
  2 12  1  0  0  0  0
  3  2  1  1  0  0  0
  4 14  1  0  0  0  0
  4  5  1  0  0  0  0
  4  3  1  0  0  0  0
  5  3  1  0  0  0  0
  5 15  1  1  0  0  0
  6  5  1  0  0  0  0
  7  6  1  0  0  0  0
  7 16  1  1  0  0  0
  7  9  1  0  0  0  0
  8  7  1  0  0  0  0
  8  9  1  0  0  0  0
  9  3  1  0  0  0  0
  9 19  1  1  0  0  0
 10  1  1  0  0  0  0
 13  4  1  0  0  0  0
 17  8  1  0  0  0  0
 18  8  1  0  0  0  0
M TOR 0 0 1 2 3
M TOR 1 0 1 2 4
M TOR 2 0 1 2 8
M TOR 3 1 2 3 4
M TOR 4 1 2 3 12
M TOR 5 1 2 3 13
M TOR 6 1 2 4 5
M TOR 7 1 2 4 14
M TOR 8 1 2 8 6
M TOR 9 1 2 8 7
M TOR 10 1 2 8 18
M TOR 11 2 1 0 9
M TOR 12 2 3 4 5
M TOR 13 2 3 4 14
M TOR 14 2 4 3 12
M TOR 15 2 4 3 13
M TOR 16 2 4 5 6
M TOR 17 2 8 6 5
M TOR 18 2 8 6 7
M TOR 19 2 8 6 15
M TOR 20 2 8 7 16
M TOR 21 2 8 7 17
M TOR 22 3 2 1 10
M TOR 23 3 2 1 11
M TOR 24 3 2 8 6
M TOR 25 3 2 8 7
M TOR 26 3 2 8 18
M TOR 27 3 4 2 8
M TOR 28 3 4 5 6
M TOR 29 4 2 1 10
M TOR 30 4 2 1 11
M TOR 31 4 2 8 6
M TOR 32 4 2 8 7
M TOR 33 4 2 8 18
M TOR 34 4 5 6 7
M TOR 35 4 5 6 8
M TOR 36 4 5 6 15
M TOR 37 5 4 2 8
M TOR 38 5 4 3 12
M TOR 39 5 4 3 13
M TOR 40 5 6 7 8
M TOR 41 5 6 7 16
M TOR 42 5 6 7 17
M TOR 43 5 6 8 18
M TOR 44 6 5 4 14
M TOR 45 6 7 8 18
M TOR 46 6 8 7 16
M TOR 47 6 8 7 17
M TOR 48 7 8 6 15
M TOR 49 8 2 1 10
M TOR 50 8 2 1 11
M TOR 51 8 2 3 12
M TOR 52 8 2 3 13
M TOR 53 8 2 4 14
M  END
$$$$
