
     RDKit          3D

 19 20  0  0  0  0  0  0  0  0999 V2000
   -0.0762    2.5351    0.2143 C   0  0  0  0  0  0  0  0  0  0  0  0
   -0.8851    1.2976   -0.0712 C   0  0  0  0  0  0  0  0  0  0  0  0
   -1.8943    1.2399   -1.2491 C   0  0  0  0  0  0  0  0  0  0  0  0
   -2.7380    0.4559   -0.2272 C   0  0  0  0  0  0  0  0  0  0  0  0
   -2.4235   -1.0416   -0.2519 C   0  0  0  0  0  0  0  0  0  0  0  0
   -0.9248   -1.2523    0.0901 C   0  0  0  0  0  0  0  0  0  0  0  0
   -0.0719   -0.0022   -0.1380 C   0  0  0  0  0  0  0  0  0  0  0  0
    1.1150   -0.0337   -0.3547 O   0  0  0  0  0  0  0  0  0  0  0  0
   -1.9860    1.0672    0.8638 O   0  0  0  0  0  0  0  0  0  0  0  0
    0.3699    2.4755    1.2117 H   0  0  0  0  0  0  0  0  0  0  0  0
    0.7372    2.6220   -0.5104 H   0  0  0  0  0  0  0  0  0  0  0  0
   -0.7076    3.4258    0.1659 H   0  0  0  0  0  0  0  0  0  0  0  0
   -2.3021    2.2291   -1.4670 H   0  0  0  0  0  0  0  0  0  0  0  0
   -1.5954    0.7409   -2.1743 H   0  0  0  0  0  0  0  0  0  0  0  0
   -3.8074    0.6712   -0.1599 H   0  0  0  0  0  0  0  0  0  0  0  0
   -3.0506   -1.5691    0.4729 H   0  0  0  0  0  0  0  0  0  0  0  0
   -2.6651   -1.4487   -1.2402 H   0  0  0  0  0  0  0  0  0  0  0  0
   -0.8270   -1.4762    1.1587 H   0  0  0  0  0  0  0  0  0  0  0  0
   -0.4736   -2.0891   -0.4474 H   0  0  0  0  0  0  0  0  0  0  0  0
  1  2  1  0
  2  3  1  0
  3  4  1  0
  4  5  1  0
  5  6  1  0
  6  7  1  0
  7  8  2  0
  4  9  1  0
  7  2  1  0
  9  2  1  0
  1 10  1  0
  1 11  1  0
  1 12  1  0
  3 13  1  0
  3 14  1  0
  4 15  1  0
  5 16  1  0
  5 17  1  0
  6 18  1  0
  6 19  1  0
M  END
$$$$
