
     RDKit          3D

 19 19  0  0  0  0  0  0  0  0999 V2000
    0.5751    4.1593   -1.6720 O   0  0  0  0  0  0  0  0  0  0  0  0
    0.1267    2.8479   -2.0259 C   0  0  0  0  0  0  0  0  0  0  0  0
    1.0598    1.7524   -1.4835 C   0  0  0  0  0  0  0  0  0  0  0  0
    0.7679    1.4419   -0.0016 C   0  0  0  0  0  0  0  0  0  0  0  0
   -0.6850    0.9505    0.1511 C   0  0  0  0  0  0  0  0  0  0  0  0
   -1.6580    1.7966   -0.6264 C   0  0  0  0  0  0  0  0  0  0  0  0
   -1.3019    2.6372   -1.5978 C   0  0  0  0  0  0  0  0  0  0  0  0
    1.7365    0.4008    0.5138 C   0  0  0  0  0  0  0  0  0  0  0  0
    2.5478    0.5738    1.3853 O   0  0  0  0  0  0  0  0  0  0  0  0
    0.2884    4.3301   -0.7686 H   0  0  0  0  0  0  0  0  0  0  0  0
    0.1851    2.8327   -3.1208 H   0  0  0  0  0  0  0  0  0  0  0  0
    0.9250    0.8394   -2.0788 H   0  0  0  0  0  0  0  0  0  0  0  0
    2.0939    2.0842   -1.6145 H   0  0  0  0  0  0  0  0  0  0  0  0
    0.9196    2.3464    0.5979 H   0  0  0  0  0  0  0  0  0  0  0  0
   -0.7620   -0.0960   -0.1844 H   0  0  0  0  0  0  0  0  0  0  0  0
   -0.9672    0.9390    1.2107 H   0  0  0  0  0  0  0  0  0  0  0  0
   -2.7075    1.6929   -0.3600 H   0  0  0  0  0  0  0  0  0  0  0  0
   -2.0496    3.2420   -2.1040 H   0  0  0  0  0  0  0  0  0  0  0  0
    1.6485   -0.5877   -0.0002 H   0  0  0  0  0  0  0  0  0  0  0  0
  1  2  1  0
  2  3  1  0
  3  4  1  0
  4  5  1  0
  5  6  1  0
  6  7  2  0
  4  8  1  0
  8  9  2  0
  7  2  1  0
  1 10  1  0
  2 11  1  0
  3 12  1  0
  3 13  1  0
  4 14  1  0
  5 15  1  0
  5 16  1  0
  6 17  1  0
  7 18  1  0
  8 19  1  0
M  END
$$$$
