
     RDKit          3D

 19 20  0  0  0  0  0  0  0  0999 V2000
    2.1350    0.4678    3.7752 C   0  0  0  0  0  0  0  0  0  0  0  0
    2.6895    0.0218    2.4406 C   0  0  0  0  0  0  0  0  0  0  0  0
    3.6526   -0.7116    2.3269 O   0  0  0  0  0  0  0  0  0  0  0  0
    2.0100    0.5480    1.2365 C   0  0  0  0  0  0  0  0  0  0  0  0
    2.0228   -0.1158   -0.1174 C   0  0  0  0  0  0  0  0  0  0  0  0
    2.6223    1.2550    0.0157 C   0  0  0  0  0  0  0  0  0  0  0  0
    4.0541    1.5794   -0.2861 C   0  0  0  0  0  0  0  0  0  0  0  0
    1.4892    2.2595    0.2344 C   0  0  0  0  0  0  0  0  0  0  0  0
    0.9297    1.4806    1.3278 O   0  0  0  0  0  0  0  0  0  0  0  0
    2.7210    0.0260    4.5815 H   0  0  0  0  0  0  0  0  0  0  0  0
    2.1504    1.5603    3.8443 H   0  0  0  0  0  0  0  0  0  0  0  0
    1.0838    0.1716    3.8633 H   0  0  0  0  0  0  0  0  0  0  0  0
    2.7419   -0.9221   -0.2108 H   0  0  0  0  0  0  0  0  0  0  0  0
    1.0655   -0.2645   -0.6098 H   0  0  0  0  0  0  0  0  0  0  0  0
    4.3735    2.4919    0.2285 H   0  0  0  0  0  0  0  0  0  0  0  0
    4.7037    0.7627    0.0420 H   0  0  0  0  0  0  0  0  0  0  0  0
    4.2100    1.7259   -1.3613 H   0  0  0  0  0  0  0  0  0  0  0  0
    1.8383    3.2337    0.5962 H   0  0  0  0  0  0  0  0  0  0  0  0
    0.7712    2.4019   -0.5817 H   0  0  0  0  0  0  0  0  0  0  0  0
  1  2  1  0
  2  3  2  0
  2  4  1  0
  4  5  1  0
  5  6  1  0
  6  7  1  0
  6  8  1  0
  8  9  1  0
  6  4  1  0
  9  4  1  0
  1 10  1  0
  1 11  1  0
  1 12  1  0
  5 13  1  0
  5 14  1  0
  7 15  1  0
  7 16  1  0
  7 17  1  0
  8 18  1  0
  8 19  1  0
M  END
$$$$
