gdb 2580	2.6820556	1.2243655	0.8691115	2.6875	78.65	-0.24305	-0.02787	0.21517999999999998	1321.048	0.155575	-422.574746	-422.565691	-422.564747	-422.608943	32.761
 OpenBabel02181911413D

 19 19  0  0  1  0  0  0  0  0999 V2000
    1.2495    0.5106   -1.0977 C   0  0  0  0  0  0  0  0  0  0  0  0
   -0.0772    0.1046   -0.5208 C   0  0  0  0  0  0  0  0  0  0  0  0
   -1.0940    0.9526   -0.3598 C   0  0  0  0  0  0  0  0  0  0  0  0
   -2.4061    0.5551    0.2572 C   0  0  0  0  0  0  0  0  0  0  0  0
   -2.3712   -0.7203    0.8752 O   0  0  0  0  0  0  0  0  0  0  0  0
   -1.7065   -1.6886    0.0886 C   0  0  1  0  0  0  0  0  0  0  0  0
   -0.2292   -1.3419   -0.1092 C   0  0  0  0  0  0  0  0  0  0  0  0
   -1.9299   -3.0297    0.7683 C   0  0  0  0  0  0  0  0  0  0  0  0
   -1.2183   -3.9878    0.6163 O   0  0  0  0  0  0  0  0  0  0  0  0
    2.0645    0.3039   -0.3921 H   0  0  0  0  0  0  0  0  0  0  0  0
    1.4765   -0.0588   -2.0081 H   0  0  0  0  0  0  0  0  0  0  0  0
    1.2752    1.5755   -1.3438 H   0  0  0  0  0  0  0  0  0  0  0  0
   -1.0080    1.9900   -0.6746 H   0  0  0  0  0  0  0  0  0  0  0  0
   -2.6908    1.2618    1.0457 H   0  0  0  0  0  0  0  0  0  0  0  0
   -3.2096    0.5868   -0.5021 H   0  0  0  0  0  0  0  0  0  0  0  0
   -2.1909   -1.7604   -0.9054 H   0  0  0  0  0  0  0  0  0  0  0  0
    0.3276   -1.5385    0.8167 H   0  0  0  0  0  0  0  0  0  0  0  0
    0.2000   -2.0100   -0.8644 H   0  0  0  0  0  0  0  0  0  0  0  0
   -2.8308   -3.0508    1.4200 H   0  0  0  0  0  0  0  0  0  0  0  0
  1  2  1  0  0  0  0
  1 10  1  0  0  0  0
  2  3  2  0  0  0  0
  2  7  1  0  0  0  0
  3  4  1  0  0  0  0
  4  5  1  0  0  0  0
  4 14  1  0  0  0  0
  6 16  1  6  0  0  0
  6  8  1  0  0  0  0
  6  5  1  0  0  0  0
  7  6  1  0  0  0  0
  7 17  1  0  0  0  0
  8 19  1  0  0  0  0
  9  8  2  0  0  0  0
 11  1  1  0  0  0  0
 12  1  1  0  0  0  0
 13  3  1  0  0  0  0
 15  4  1  0  0  0  0
 18  7  1  0  0  0  0
M TOR 0 0 1 2 3
M TOR 1 0 1 2 12
M TOR 2 0 1 6 5
M TOR 3 0 1 6 16
M TOR 4 0 1 6 17
M TOR 5 1 2 3 4
M TOR 6 1 2 3 13
M TOR 7 1 2 3 14
M TOR 8 1 6 5 4
M TOR 9 1 6 5 7
M TOR 10 1 6 5 15
M TOR 11 2 1 0 9
M TOR 12 2 1 0 10
M TOR 13 2 1 0 11
M TOR 14 2 1 6 5
M TOR 15 2 1 6 16
M TOR 16 2 1 6 17
M TOR 17 2 3 4 5
M TOR 18 3 2 1 6
M TOR 19 3 4 5 6
M TOR 20 3 4 5 7
M TOR 21 3 4 5 15
M TOR 22 4 3 2 12
M TOR 23 4 5 6 16
M TOR 24 4 5 6 17
M TOR 25 4 5 7 8
M TOR 26 4 5 7 18
M TOR 27 5 4 3 13
M TOR 28 5 4 3 14
M TOR 29 6 1 0 9
M TOR 30 6 1 0 10
M TOR 31 6 1 0 11
M TOR 32 6 1 2 12
M TOR 33 6 5 7 8
M TOR 34 6 5 7 18
M TOR 35 7 5 6 16
M TOR 36 7 5 6 17
M TOR 37 8 7 5 15
M  END
$$$$
