gdb 791	2.0152339	1.6773818	1.1259812	1.8335	75.18	-0.25101	-0.02575	0.22526000000000002	1136.5121	0.155786	-422.52972	-422.520884	-422.51994	-422.563698	32.129
 OpenBabel02181911403D

 19 20  0  0  1  0  0  0  0  0999 V2000
    0.9711   -0.6651    0.2336 O   0  0  0  0  0  0  0  0  0  0  0  0
    0.0829    0.0242   -0.2020 C   0  0  0  0  0  0  0  0  0  0  0  0
   -0.3259    1.3633    0.3571 C   0  0  0  0  0  0  0  0  0  0  0  0
   -1.8832    1.4726    0.5025 C   0  0  0  0  0  0  0  0  0  0  0  0
   -1.9567    2.1897   -0.8690 C   0  0  0  0  0  0  0  0  0  0  0  0
   -0.4286    2.4317   -0.7957 C   0  0  0  0  0  0  0  0  0  0  0  0
    0.5282    1.7370    1.5425 C   0  0  2  0  0  0  0  0  0  0  0  0
    0.1061    1.5243    2.9290 C   0  0  0  0  0  0  0  0  0  0  0  0
    0.0630    2.8296    2.3403 O   0  0  0  0  0  0  0  0  0  0  0  0
   -0.5090   -0.3035   -1.0887 H   0  0  0  0  0  0  0  0  0  0  0  0
   -2.4401    0.5399    0.6219 H   0  0  0  0  0  0  0  0  0  0  0  0
   -2.1206    2.1455    1.3289 H   0  0  0  0  0  0  0  0  0  0  0  0
   -2.2313    1.5106   -1.6805 H   0  0  0  0  0  0  0  0  0  0  0  0
   -2.5952    3.0729   -0.9311 H   0  0  0  0  0  0  0  0  0  0  0  0
    0.1617    2.2502   -1.6975 H   0  0  0  0  0  0  0  0  0  0  0  0
   -0.1810    3.4204   -0.4034 H   0  0  0  0  0  0  0  0  0  0  0  0
    1.5988    1.7585    1.3404 H   0  0  0  0  0  0  0  0  0  0  0  0
   -0.8648    1.0766    3.1354 H   0  0  0  0  0  0  0  0  0  0  0  0
    0.8563    1.3853    3.7050 H   0  0  0  0  0  0  0  0  0  0  0  0
  2  1  2  0  0  0  0
  2  3  1  0  0  0  0
  3  4  1  0  0  0  0
  3  7  1  0  0  0  0
  4 11  1  0  0  0  0
  4 12  1  0  0  0  0
  5  6  1  0  0  0  0
  5  4  1  0  0  0  0
  6 16  1  0  0  0  0
  6  3  1  0  0  0  0
  7 17  1  6  0  0  0
  7  9  1  0  0  0  0
  7  8  1  0  0  0  0
  8 18  1  0  0  0  0
  8 19  1  0  0  0  0
  9  8  1  0  0  0  0
 10  2  1  0  0  0  0
 13  5  1  0  0  0  0
 14  5  1  0  0  0  0
 15  6  1  0  0  0  0
M TOR 0 0 1 2 3
M TOR 1 0 1 2 5
M TOR 2 0 1 2 6
M TOR 3 1 2 3 4
M TOR 4 1 2 3 10
M TOR 5 1 2 3 11
M TOR 6 1 2 5 4
M TOR 7 1 2 5 14
M TOR 8 1 2 5 15
M TOR 9 1 2 6 7
M TOR 10 1 2 6 8
M TOR 11 1 2 6 16
M TOR 12 2 3 4 5
M TOR 13 2 3 4 12
M TOR 14 2 3 4 13
M TOR 15 2 5 4 12
M TOR 16 2 5 4 13
M TOR 17 2 6 7 8
M TOR 18 2 6 7 17
M TOR 19 2 6 7 18
M TOR 20 3 2 1 9
M TOR 21 3 2 5 14
M TOR 22 3 2 5 15
M TOR 23 3 2 6 7
M TOR 24 3 2 6 8
M TOR 25 3 2 6 16
M TOR 26 3 4 5 14
M TOR 27 3 4 5 15
M TOR 28 4 3 2 6
M TOR 29 4 5 2 6
M TOR 30 5 2 1 9
M TOR 31 5 2 3 10
M TOR 32 5 2 3 11
M TOR 33 5 2 6 7
M TOR 34 5 2 6 8
M TOR 35 5 2 6 16
M TOR 36 5 4 3 10
M TOR 37 5 4 3 11
M TOR 38 6 2 1 9
M TOR 39 6 2 3 10
M TOR 40 6 2 3 11
M TOR 41 6 2 5 14
M TOR 42 6 2 5 15
M TOR 43 6 8 7 17
M TOR 44 6 8 7 18
M TOR 45 7 8 6 16
M  END
$$$$
