gdb 1547	2.7706978	1.4811961	1.2259447	4.1888	74.67	-0.26894	0.00828	0.27722	1083.6159	0.15626	-422.577915	-422.569431	-422.568487	-422.61077	32.336
 OpenBabel02181911403D

 19 20  0  0  1  0  0  0  0  0999 V2000
   -2.0359   -3.0655   -1.1531 C   0  0  0  0  0  0  0  0  0  0  0  0
   -1.5287   -1.6281   -1.2795 C   0  0  0  0  0  0  0  0  0  0  0  0
   -0.6847   -1.4539   -2.5389 C   0  0  0  0  0  0  0  0  0  0  0  0
   -2.6766   -0.5762   -1.0629 C   0  0  0  0  0  0  0  0  0  0  0  0
   -2.0304   -0.1413    0.2634 C   0  0  2  0  0  0  0  0  0  0  0  0
   -1.0906    0.9677    0.0775 O   0  0  0  0  0  0  0  0  0  0  0  0
   -0.0216    0.1037   -0.0440 C   0  0  0  0  0  0  0  0  0  0  0  0
    1.1221    0.3896   -0.1977 O   0  0  0  0  0  0  0  0  0  0  0  0
   -0.8751   -1.1521    0.0793 C   0  0  2  0  0  0  0  0  0  0  0  0
   -2.6226   -3.2085   -0.2391 H   0  0  0  0  0  0  0  0  0  0  0  0
   -2.6753   -3.3234   -2.0047 H   0  0  0  0  0  0  0  0  0  0  0  0
   -1.2010   -3.7746   -1.1307 H   0  0  0  0  0  0  0  0  0  0  0  0
    0.1855   -2.1190   -2.5257 H   0  0  0  0  0  0  0  0  0  0  0  0
   -1.2779   -1.6949   -3.4282 H   0  0  0  0  0  0  0  0  0  0  0  0
   -0.3183   -0.4294   -2.6489 H   0  0  0  0  0  0  0  0  0  0  0  0
   -2.7394    0.2272   -1.7999 H   0  0  0  0  0  0  0  0  0  0  0  0
   -3.6637   -1.0304   -0.9460 H   0  0  0  0  0  0  0  0  0  0  0  0
   -2.6224   -0.0050    1.1665 H   0  0  0  0  0  0  0  0  0  0  0  0
   -0.5581   -1.9113    0.7921 H   0  0  0  0  0  0  0  0  0  0  0  0
  1 12  1  0  0  0  0
  1 10  1  0  0  0  0
  2  1  1  0  0  0  0
  2  4  1  0  0  0  0
  2  9  1  0  0  0  0
  3 13  1  0  0  0  0
  3  2  1  0  0  0  0
  4 17  1  0  0  0  0
  4  5  1  0  0  0  0
  5 18  1  1  0  0  0
  6  5  1  0  0  0  0
  7  6  1  0  0  0  0
  7  9  1  0  0  0  0
  8  7  2  0  0  0  0
  9  5  1  0  0  0  0
  9 19  1  1  0  0  0
 11  1  1  0  0  0  0
 14  3  1  0  0  0  0
 15  3  1  0  0  0  0
 16  4  1  0  0  0  0
M TOR 0 0 1 2 12
M TOR 1 0 1 2 13
M TOR 2 0 1 2 14
M TOR 3 0 1 3 4
M TOR 4 0 1 3 15
M TOR 5 0 1 3 16
M TOR 6 0 1 8 4
M TOR 7 0 1 8 6
M TOR 8 0 1 8 18
M TOR 9 1 3 4 5
M TOR 10 1 3 4 8
M TOR 11 1 3 4 17
M TOR 12 1 8 4 5
M TOR 13 1 8 4 17
M TOR 14 1 8 6 5
M TOR 15 1 8 6 7
M TOR 16 2 1 0 9
M TOR 17 2 1 0 10
M TOR 18 2 1 0 11
M TOR 19 2 1 3 4
M TOR 20 2 1 3 15
M TOR 21 2 1 3 16
M TOR 22 2 1 8 4
M TOR 23 2 1 8 6
M TOR 24 2 1 8 18
M TOR 25 3 1 0 9
M TOR 26 3 1 0 10
M TOR 27 3 1 0 11
M TOR 28 3 1 2 12
M TOR 29 3 1 2 13
M TOR 30 3 1 2 14
M TOR 31 3 1 8 6
M TOR 32 3 1 8 18
M TOR 33 3 4 5 6
M TOR 34 3 4 8 6
M TOR 35 3 4 8 18
M TOR 36 4 5 6 7
M TOR 37 4 5 6 8
M TOR 38 4 8 6 7
M TOR 39 5 4 3 15
M TOR 40 5 4 3 16
M TOR 41 5 4 8 18
M TOR 42 5 6 8 18
M TOR 43 6 5 4 17
M TOR 44 6 8 4 17
M TOR 45 7 6 8 18
M TOR 46 8 1 0 9
M TOR 47 8 1 0 10
M TOR 48 8 1 0 11
M TOR 49 8 1 2 12
M TOR 50 8 1 2 13
M TOR 51 8 1 2 14
M TOR 52 8 1 3 15
M TOR 53 8 1 3 16
M TOR 54 8 4 3 15
M TOR 55 8 4 3 16
M  END
$$$$
