
     RDKit          3D

 19 20  0  0  0  0  0  0  0  0999 V2000
   -0.9816   -2.1150    1.1124 C   0  0  0  0  0  0  0  0  0  0  0  0
   -0.9352   -1.0081    0.0688 C   0  0  0  0  0  0  0  0  0  0  0  0
    0.0565    0.1488    0.2769 C   0  0  0  0  0  0  0  0  0  0  0  0
    1.1702    0.2097    0.7105 O   0  0  0  0  0  0  0  0  0  0  0  0
   -0.9908    1.1940   -0.1373 C   0  0  0  0  0  0  0  0  0  0  0  0
   -2.0629    0.0722   -0.0445 C   0  0  0  0  0  0  0  0  0  0  0  0
   -3.1914    0.1772    1.0055 C   0  0  0  0  0  0  0  0  0  0  0  0
   -4.2079    0.0760   -0.0109 O   0  0  0  0  0  0  0  0  0  0  0  0
   -3.2200   -0.0483   -1.0518 C   0  0  0  0  0  0  0  0  0  0  0  0
   -1.7934   -2.8212    0.9111 H   0  0  0  0  0  0  0  0  0  0  0  0
   -0.0390   -2.6697    1.1104 H   0  0  0  0  0  0  0  0  0  0  0  0
   -1.1231   -1.7107    2.1193 H   0  0  0  0  0  0  0  0  0  0  0  0
   -0.7590   -1.4374   -0.9281 H   0  0  0  0  0  0  0  0  0  0  0  0
   -1.0990    2.0579    0.5246 H   0  0  0  0  0  0  0  0  0  0  0  0
   -0.8300    1.5569   -1.1588 H   0  0  0  0  0  0  0  0  0  0  0  0
   -3.2564   -0.6445    1.7295 H   0  0  0  0  0  0  0  0  0  0  0  0
   -3.2424    1.1314    1.5462 H   0  0  0  0  0  0  0  0  0  0  0  0
   -3.2908   -1.0129   -1.5732 H   0  0  0  0  0  0  0  0  0  0  0  0
   -3.2933    0.7610   -1.7907 H   0  0  0  0  0  0  0  0  0  0  0  0
  1  2  1  0
  2  3  1  0
  3  4  2  0
  3  5  1  0
  5  6  1  0
  6  7  1  0
  7  8  1  0
  8  9  1  0
  6  2  1  0
  9  6  1  0
  1 10  1  0
  1 11  1  0
  1 12  1  0
  2 13  1  0
  5 14  1  0
  5 15  1  0
  7 16  1  0
  7 17  1  0
  9 18  1  0
  9 19  1  0
M  END
$$$$
