gdb 4617	6.1271055	0.5333428	0.5309505	1.0413	82.39	-0.24621	0.03043	0.27664	2069.5657	0.155632	-422.511528	-422.501533	-422.500589	-422.54843	35.272
 OpenBabel02181911413D

 19 19  0  0  1  0  0  0  0  0999 V2000
   -6.4627   -2.3625    0.3917 O   0  0  0  0  0  0  0  0  0  0  0  0
   -5.2016   -2.3767   -0.2650 C   0  0  0  0  0  0  0  0  0  0  0  0
   -4.2594   -1.3880    0.2572 C   0  0  0  0  0  0  0  0  0  0  0  0
   -3.5027   -0.5821    0.7398 C   0  0  0  0  0  0  0  0  0  0  0  0
   -2.5751    0.3839    1.2889 C   0  0  2  0  0  0  0  0  0  0  0  0
   -1.7363    1.2706    0.3103 C   0  0  0  0  0  0  0  0  0  0  0  0
   -0.5494    1.1419    1.3007 C   0  0  2  0  0  0  0  0  0  0  0  0
    0.7658    1.0730    0.8209 O   0  0  0  0  0  0  0  0  0  0  0  0
   -1.2271   -0.1155    1.9055 C   0  0  0  0  0  0  0  0  0  0  0  0
   -6.2920   -2.4027    1.3385 H   0  0  0  0  0  0  0  0  0  0  0  0
   -4.7414   -3.3774   -0.2224 H   0  0  0  0  0  0  0  0  0  0  0  0
   -5.4160   -2.1752   -1.3208 H   0  0  0  0  0  0  0  0  0  0  0  0
   -3.0940    1.0249    2.0099 H   0  0  0  0  0  0  0  0  0  0  0  0
   -1.5308    0.7252   -0.6165 H   0  0  0  0  0  0  0  0  0  0  0  0
   -2.1144    2.2648    0.0650 H   0  0  0  0  0  0  0  0  0  0  0  0
   -0.5549    1.9674    2.0193 H   0  0  0  0  0  0  0  0  0  0  0  0
    0.8141    0.3537    0.1820 H   0  0  0  0  0  0  0  0  0  0  0  0
   -0.8888   -1.0232    1.3953 H   0  0  0  0  0  0  0  0  0  0  0  0
   -1.1805   -0.2722    2.9849 H   0  0  0  0  0  0  0  0  0  0  0  0
  1 10  1  0  0  0  0
  2 11  1  0  0  0  0
  2  3  1  0  0  0  0
  2  1  1  0  0  0  0
  3  4  3  0  0  0  0
  4  5  1  0  0  0  0
  5  9  1  0  0  0  0
  5 13  1  1  0  0  0
  6  5  1  0  0  0  0
  6  7  1  0  0  0  0
  7  9  1  0  0  0  0
  7 16  1  1  0  0  0
  8  7  1  0  0  0  0
  9 19  1  0  0  0  0
 12  2  1  0  0  0  0
 14  6  1  0  0  0  0
 15  6  1  0  0  0  0
 17  8  1  0  0  0  0
 18  9  1  0  0  0  0
M TOR 0 0 1 2 3
M TOR 1 1 2 3 4
M TOR 2 2 1 0 9
M TOR 3 2 3 4 5
M TOR 4 2 3 4 8
M TOR 5 2 3 4 12
M TOR 6 3 2 1 10
M TOR 7 3 2 1 11
M TOR 8 3 4 5 6
M TOR 9 3 4 5 13
M TOR 10 3 4 5 14
M TOR 11 3 4 8 6
M TOR 12 3 4 8 17
M TOR 13 3 4 8 18
M TOR 14 4 5 6 7
M TOR 15 4 5 6 8
M TOR 16 4 5 6 15
M TOR 17 4 8 6 7
M TOR 18 4 8 6 15
M TOR 19 5 4 8 17
M TOR 20 5 4 8 18
M TOR 21 5 6 7 16
M TOR 22 5 6 8 17
M TOR 23 5 6 8 18
M TOR 24 6 5 4 12
M TOR 25 6 8 4 12
M TOR 26 7 6 5 13
M TOR 27 7 6 5 14
M TOR 28 7 6 8 17
M TOR 29 7 6 8 18
M TOR 30 8 4 5 13
M TOR 31 8 4 5 14
M TOR 32 8 6 5 13
M TOR 33 8 6 5 14
M TOR 34 8 6 7 16
M  END
$$$$
