
     RDKit          3D

 19 21  0  0  0  0  0  0  0  0999 V2000
   -0.0145   -0.1728    0.0883 C   0  0  0  0  0  0  0  0  0  0  0  0
    1.4948   -0.1307    0.0429 C   0  0  0  0  0  0  0  0  0  0  0  0
    2.2495    0.2216    1.3157 C   0  0  0  0  0  0  0  0  0  0  0  0
    2.2585    1.1748    0.1460 C   0  0  0  0  0  0  0  0  0  0  0  0
    1.5788    2.3914    0.1851 O   0  0  0  0  0  0  0  0  0  0  0  0
    3.4522    1.0750   -0.7893 C   0  0  0  0  0  0  0  0  0  0  0  0
    4.4019    0.0581   -0.4396 O   0  0  0  0  0  0  0  0  0  0  0  0
    3.4323   -0.2332   -1.4587 C   0  0  0  0  0  0  0  0  0  0  0  0
    2.2146   -1.0187   -0.9875 C   0  0  0  0  0  0  0  0  0  0  0  0
   -0.4035    0.6248    0.7265 H   0  0  0  0  0  0  0  0  0  0  0  0
   -0.4444   -0.0370   -0.9107 H   0  0  0  0  0  0  0  0  0  0  0  0
   -0.3746   -1.1310    0.4802 H   0  0  0  0  0  0  0  0  0  0  0  0
    1.6307    0.5094    2.1604 H   0  0  0  0  0  0  0  0  0  0  0  0
    3.1688   -0.2966    1.5587 H   0  0  0  0  0  0  0  0  0  0  0  0
    1.9897    2.9442    0.8585 H   0  0  0  0  0  0  0  0  0  0  0  0
    3.8568    1.9848   -1.2249 H   0  0  0  0  0  0  0  0  0  0  0  0
    3.8493   -0.4123   -2.4472 H   0  0  0  0  0  0  0  0  0  0  0  0
    1.5545   -1.1952   -1.8453 H   0  0  0  0  0  0  0  0  0  0  0  0
    2.4945   -1.9988   -0.5858 H   0  0  0  0  0  0  0  0  0  0  0  0
  1  2  1  0
  2  3  1  0
  3  4  1  0
  4  5  1  0
  4  6  1  0
  6  7  1  0
  7  8  1  0
  8  9  1  0
  4  2  1  0
  8  6  1  0
  9  2  1  0
  1 10  1  0
  1 11  1  0
  1 12  1  0
  3 13  1  0
  3 14  1  0
  5 15  1  0
  6 16  1  0
  8 17  1  0
  9 18  1  0
  9 19  1  0
M  END
$$$$
