gdb 2993	4.9672121	0.8932927	0.8129153	0.3867	76.25	-0.22468	0.06862	0.2933	1423.3089	0.156181	-422.489543	-422.481093	-422.480149	-422.522825	32.1
 OpenBabel02181911413D

 19 21  0  0  1  0  0  0  0  0999 V2000
    0.5211    0.6237    0.3827 O   0  0  0  0  0  0  0  0  0  0  0  0
   -0.7518    0.7121    0.9518 C   0  0  2  0  0  0  0  0  0  0  0  0
   -1.8581   -0.0479    0.2757 C   0  0  1  0  0  0  0  0  0  0  0  0
   -3.0748    0.0788    1.0086 O   0  0  0  0  0  0  0  0  0  0  0  0
   -3.0816    1.5303    0.7740 C   0  0  2  0  0  0  0  0  0  0  0  0
   -4.2460    1.9508   -0.0686 C   0  0  0  0  0  0  0  0  0  0  0  0
   -5.5565    2.3008    0.5885 C   0  0  0  0  0  0  0  0  0  0  0  0
   -4.7109    3.3880   -0.0206 C   0  0  0  0  0  0  0  0  0  0  0  0
   -1.7312    1.4443    0.0653 C   0  0  1  0  0  0  0  0  0  0  0  0
    0.9034   -0.2218    0.6413 H   0  0  0  0  0  0  0  0  0  0  0  0
   -0.7900    0.8478    2.0354 H   0  0  0  0  0  0  0  0  0  0  0  0
   -1.7189   -0.9030   -0.3770 H   0  0  0  0  0  0  0  0  0  0  0  0
   -3.0865    2.0744    1.7290 H   0  0  0  0  0  0  0  0  0  0  0  0
   -4.2983    1.4508   -1.0313 H   0  0  0  0  0  0  0  0  0  0  0  0
   -6.4710    2.0118    0.0834 H   0  0  0  0  0  0  0  0  0  0  0  0
   -5.6094    2.2438    1.6707 H   0  0  0  0  0  0  0  0  0  0  0  0
   -5.0404    3.8471   -0.9456 H   0  0  0  0  0  0  0  0  0  0  0  0
   -4.1949    4.0669    0.6508 H   0  0  0  0  0  0  0  0  0  0  0  0
   -1.4073    2.0194   -0.7912 H   0  0  0  0  0  0  0  0  0  0  0  0
  1 10  1  0  0  0  0
  1  2  1  0  0  0  0
  2 11  1  1  0  0  0
  3 12  1  6  0  0  0
  3  2  1  0  0  0  0
  3  4  1  0  0  0  0
  5  4  1  0  0  0  0
  5 13  1  1  0  0  0
  6  8  1  0  0  0  0
  6  7  1  0  0  0  0
  6  5  1  0  0  0  0
  7 16  1  0  0  0  0
  8  7  1  0  0  0  0
  8 18  1  0  0  0  0
  9 19  1  6  0  0  0
  9  3  1  0  0  0  0
  9  5  1  0  0  0  0
  9  2  1  0  0  0  0
 14  6  1  0  0  0  0
 15  7  1  0  0  0  0
 17  8  1  0  0  0  0
M TOR 0 0 1 2 3
M TOR 1 0 1 2 8
M TOR 2 0 1 2 11
M TOR 3 0 1 8 4
M TOR 4 0 1 8 18
M TOR 5 1 2 3 4
M TOR 6 1 2 8 4
M TOR 7 1 2 8 18
M TOR 8 1 8 2 3
M TOR 9 1 8 2 11
M TOR 10 1 8 4 3
M TOR 11 1 8 4 5
M TOR 12 1 8 4 12
M TOR 13 2 1 0 9
M TOR 14 2 3 4 5
M TOR 15 2 3 4 8
M TOR 16 2 3 4 12
M TOR 17 2 8 1 10
M TOR 18 2 8 4 5
M TOR 19 2 8 4 12
M TOR 20 3 2 1 10
M TOR 21 3 2 8 18
M TOR 22 3 4 5 6
M TOR 23 3 4 5 7
M TOR 24 3 4 5 13
M TOR 25 3 4 8 18
M TOR 26 4 3 2 11
M TOR 27 4 5 6 7
M TOR 28 4 5 6 14
M TOR 29 4 5 6 15
M TOR 30 4 5 7 16
M TOR 31 4 5 7 17
M TOR 32 4 8 1 10
M TOR 33 4 8 2 11
M TOR 34 5 4 8 18
M TOR 35 5 6 7 16
M TOR 36 5 6 7 17
M TOR 37 5 7 6 14
M TOR 38 5 7 6 15
M TOR 39 6 5 4 8
M TOR 40 6 5 4 12
M TOR 41 6 7 5 13
M TOR 42 7 5 4 8
M TOR 43 7 5 4 12
M TOR 44 8 1 0 9
M TOR 45 8 4 5 13
M  END
$$$$
