gdb 2982	2.4994208	1.8512783	1.3969691	3.0124	74.2	-0.24299	0.08089	0.32388	991.1512	0.157428	-422.516539	-422.508854	-422.50791	-422.548359	30.338
 OpenBabel02181911413D

 19 21  0  0  1  0  0  0  0  0999 V2000
    1.2784   -0.9615   -0.9112 C   0  0  0  0  0  0  0  0  0  0  0  0
    1.2154   -0.0589    0.3171 C   0  0  2  0  0  0  0  0  0  0  0  0
    1.7153    1.3886    0.0650 C   0  0  1  0  0  0  0  0  0  0  0  0
    1.9230    1.9738    1.4797 C   0  0  0  0  0  0  0  0  0  0  0  0
    3.0544    0.9223    1.4077 C   0  0  2  0  0  0  0  0  0  0  0  0
    3.1665    1.2039   -0.0254 O   0  0  0  0  0  0  0  0  0  0  0  0
    2.2814   -0.3915    1.3927 C   0  0  1  0  0  0  0  0  0  0  0  0
    2.1644   -1.3398    2.4986 C   0  0  0  0  0  0  0  0  0  0  0  0
    2.9885   -1.6212    1.3567 O   0  0  0  0  0  0  0  0  0  0  0  0
    1.1278   -2.0086   -0.6351 H   0  0  0  0  0  0  0  0  0  0  0  0
    0.5084   -0.6833   -1.6382 H   0  0  0  0  0  0  0  0  0  0  0  0
    2.2584   -0.8789   -1.3876 H   0  0  0  0  0  0  0  0  0  0  0  0
    0.2061   -0.0570    0.7437 H   0  0  0  0  0  0  0  0  0  0  0  0
    1.2867    1.9491   -0.7659 H   0  0  0  0  0  0  0  0  0  0  0  0
    2.3127    2.9915    1.4531 H   0  0  0  0  0  0  0  0  0  0  0  0
    1.1338    1.8600    2.2279 H   0  0  0  0  0  0  0  0  0  0  0  0
    3.9923    0.9731    1.9593 H   0  0  0  0  0  0  0  0  0  0  0  0
    2.7041   -1.1689    3.4300 H   0  0  0  0  0  0  0  0  0  0  0  0
    1.2691   -1.9538    2.5913 H   0  0  0  0  0  0  0  0  0  0  0  0
  1 10  1  0  0  0  0
  1  2  1  0  0  0  0
  2 13  1  1  0  0  0
  2  7  1  0  0  0  0
  3 14  1  6  0  0  0
  3  2  1  0  0  0  0
  3  4  1  0  0  0  0
  4 16  1  0  0  0  0
  5  4  1  0  0  0  0
  5 17  1  1  0  0  0
  6  3  1  0  0  0  0
  6  5  1  0  0  0  0
  7  9  1  6  0  0  0
  7  5  1  0  0  0  0
  7  8  1  0  0  0  0
  8 19  1  0  0  0  0
  8 18  1  0  0  0  0
  9  8  1  0  0  0  0
 11  1  1  0  0  0  0
 12  1  1  0  0  0  0
 15  4  1  0  0  0  0
M TOR 0 0 1 2 3
M TOR 1 0 1 2 5
M TOR 2 0 1 2 13
M TOR 3 0 1 6 4
M TOR 4 0 1 6 7
M TOR 5 0 1 6 8
M TOR 6 1 2 3 4
M TOR 7 1 2 3 14
M TOR 8 1 2 3 15
M TOR 9 1 2 5 4
M TOR 10 1 6 4 3
M TOR 11 1 6 4 5
M TOR 12 1 6 4 16
M TOR 13 1 6 7 8
M TOR 14 1 6 7 17
M TOR 15 1 6 7 18
M TOR 16 2 1 0 9
M TOR 17 2 1 0 10
M TOR 18 2 1 0 11
M TOR 19 2 1 6 4
M TOR 20 2 1 6 7
M TOR 21 2 1 6 8
M TOR 22 2 3 4 5
M TOR 23 2 3 4 6
M TOR 24 2 3 4 16
M TOR 25 2 5 4 6
M TOR 26 2 5 4 16
M TOR 27 3 2 1 6
M TOR 28 3 2 1 12
M TOR 29 3 4 6 7
M TOR 30 3 4 6 8
M TOR 31 4 3 2 13
M TOR 32 4 5 2 13
M TOR 33 4 6 1 12
M TOR 34 4 6 7 8
M TOR 35 4 6 7 17
M TOR 36 4 6 7 18
M TOR 37 5 2 1 6
M TOR 38 5 2 1 12
M TOR 39 5 2 3 14
M TOR 40 5 2 3 15
M TOR 41 5 4 3 14
M TOR 42 5 4 3 15
M TOR 43 5 4 6 7
M TOR 44 5 4 6 8
M TOR 45 6 1 0 9
M TOR 46 6 1 0 10
M TOR 47 6 1 0 11
M TOR 48 6 1 2 13
M TOR 49 6 4 3 14
M TOR 50 6 4 3 15
M TOR 51 6 8 7 17
M TOR 52 6 8 7 18
M TOR 53 7 6 1 12
M TOR 54 7 6 4 16
M TOR 55 8 6 1 12
M TOR 56 8 6 4 16
M  END
$$$$
