gdb 3986	2.780265	1.2046931	1.0288439	3.8462	77.42	-0.23148	-0.01984	0.21164	1233.5797	0.154568	-422.529288	-422.520076	-422.519132	-422.563112	33.751
 OpenBabel02181911413D

 19 20  0  0  1  0  0  0  0  0999 V2000
    1.2094    1.3116    0.0092 C   0  0  0  0  0  0  0  0  0  0  0  0
    0.9475   -0.1739    0.1500 C   0  0  1  0  0  0  0  0  0  0  0  0
    1.2953   -0.8786   -1.0864 O   0  0  0  0  0  0  0  0  0  0  0  0
    2.3494   -1.5598   -0.4127 C   0  0  2  0  0  0  0  0  0  0  0  0
    1.8042   -2.4842    0.6589 C   0  0  2  0  0  0  0  0  0  0  0  0
    0.4957   -3.1680    0.5351 C   0  0  0  0  0  0  0  0  0  0  0  0
    0.2397   -4.2183    1.0774 O   0  0  0  0  0  0  0  0  0  0  0  0
    2.0083   -0.9756    0.9232 C   0  0  2  0  0  0  0  0  0  0  0  0
    2.8339   -0.4883    2.0778 C   0  0  0  0  0  0  0  0  0  0  0  0
    0.9876    1.8346    0.9456 H   0  0  0  0  0  0  0  0  0  0  0  0
    2.2510    1.5037   -0.2641 H   0  0  0  0  0  0  0  0  0  0  0  0
    0.5668    1.7245   -0.7737 H   0  0  0  0  0  0  0  0  0  0  0  0
   -0.0982   -0.3545    0.4252 H   0  0  0  0  0  0  0  0  0  0  0  0
    3.2774   -1.7320   -0.9468 H   0  0  0  0  0  0  0  0  0  0  0  0
    2.5562   -3.0855    1.1631 H   0  0  0  0  0  0  0  0  0  0  0  0
   -0.2471   -2.6632   -0.1146 H   0  0  0  0  0  0  0  0  0  0  0  0
    2.2527   -0.4826    3.0068 H   0  0  0  0  0  0  0  0  0  0  0  0
    3.7016   -1.1352    2.2375 H   0  0  0  0  0  0  0  0  0  0  0  0
    3.2029    0.5278    1.9045 H   0  0  0  0  0  0  0  0  0  0  0  0
  1  2  1  0  0  0  0
  1 10  1  0  0  0  0
  2 13  1  1  0  0  0
  2  8  1  0  0  0  0
  3  4  1  0  0  0  0
  3  2  1  0  0  0  0
  4 14  1  6  0  0  0
  4  5  1  0  0  0  0
  4  8  1  0  0  0  0
  5  8  1  0  0  0  0
  5 15  1  1  0  0  0
  6  5  1  0  0  0  0
  6  7  2  0  0  0  0
  8  9  1  1  0  0  0
  9 18  1  0  0  0  0
  9 17  1  0  0  0  0
 11  1  1  0  0  0  0
 12  1  1  0  0  0  0
 16  6  1  0  0  0  0
 19  9  1  0  0  0  0
M TOR 0 0 1 2 3
M TOR 1 0 1 7 3
M TOR 2 0 1 7 4
M TOR 3 0 1 7 8
M TOR 4 1 2 3 4
M TOR 5 1 2 3 7
M TOR 6 1 2 3 13
M TOR 7 1 7 3 4
M TOR 8 1 7 3 13
M TOR 9 1 7 4 5
M TOR 10 1 7 4 14
M TOR 11 1 7 8 16
M TOR 12 1 7 8 17
M TOR 13 1 7 8 18
M TOR 14 2 1 0 9
M TOR 15 2 1 0 10
M TOR 16 2 1 0 11
M TOR 17 2 1 7 4
M TOR 18 2 1 7 8
M TOR 19 2 3 4 5
M TOR 20 2 3 4 7
M TOR 21 2 3 4 14
M TOR 22 2 3 7 8
M TOR 23 3 2 1 12
M TOR 24 3 4 5 6
M TOR 25 3 4 5 15
M TOR 26 3 4 7 8
M TOR 27 3 7 1 12
M TOR 28 3 7 4 5
M TOR 29 3 7 4 14
M TOR 30 3 7 8 16
M TOR 31 3 7 8 17
M TOR 32 3 7 8 18
M TOR 33 4 7 1 12
M TOR 34 4 7 3 13
M TOR 35 4 7 8 16
M TOR 36 4 7 8 17
M TOR 37 4 7 8 18
M TOR 38 5 4 3 13
M TOR 39 5 4 7 8
M TOR 40 6 5 4 7
M TOR 41 6 5 4 14
M TOR 42 7 1 0 9
M TOR 43 7 1 0 10
M TOR 44 7 1 0 11
M TOR 45 7 4 5 15
M TOR 46 8 7 1 12
M TOR 47 8 7 3 13
M TOR 48 8 7 4 14
M  END
$$$$
