gdb 3925	3.5060854	1.423423	1.248002	1.1408	75.31	-0.23323	0.07661	0.30984	1043.526	0.15845	-422.4998	-422.492581	-422.491637	-422.530954	29.882
 OpenBabel02181911413D

 19 21  0  0  1  0  0  0  0  0999 V2000
    0.4687    0.3850    0.6479 O   0  0  0  0  0  0  0  0  0  0  0  0
   -0.8885    0.6321    0.9037 C   0  0  2  0  0  0  0  0  0  0  0  0
   -1.8599   -0.0857   -0.1058 C   0  0  0  0  0  0  0  0  0  0  0  0
   -2.7431    1.1759   -0.0071 C   0  0  1  0  0  0  0  0  0  0  0  0
   -3.5753    2.2853   -0.7102 C   0  0  0  0  0  0  0  0  0  0  0  0
   -3.4735    2.8802    0.7508 C   0  0  1  0  0  0  0  0  0  0  0  0
   -3.6386    1.4347    1.2508 C   0  0  0  0  0  0  0  0  0  0  0  0
   -2.0638    3.1274    1.0148 O   0  0  0  0  0  0  0  0  0  0  0  0
   -1.5105    1.9732    0.3723 C   0  0  1  0  0  0  0  0  0  0  0  0
    0.9920    0.8534    1.3066 H   0  0  0  0  0  0  0  0  0  0  0  0
   -1.1582    0.4150    1.9437 H   0  0  0  0  0  0  0  0  0  0  0  0
   -1.3592   -0.1965   -1.0712 H   0  0  0  0  0  0  0  0  0  0  0  0
   -2.2925   -1.0407    0.1956 H   0  0  0  0  0  0  0  0  0  0  0  0
   -3.0970    2.8340   -1.5249 H   0  0  0  0  0  0  0  0  0  0  0  0
   -4.6065    2.0279   -0.9613 H   0  0  0  0  0  0  0  0  0  0  0  0
   -4.0674    3.7261    1.0925 H   0  0  0  0  0  0  0  0  0  0  0  0
   -3.2543    1.2173    2.2489 H   0  0  0  0  0  0  0  0  0  0  0  0
   -4.6447    1.0286    1.1226 H   0  0  0  0  0  0  0  0  0  0  0  0
   -0.9019    2.2799   -0.4888 H   0  0  0  0  0  0  0  0  0  0  0  0
  1  2  1  0  0  0  0
  1 10  1  0  0  0  0
  2 11  1  1  0  0  0
  3  4  1  0  0  0  0
  3 13  1  0  0  0  0
  3  2  1  0  0  0  0
  4  5  1  6  0  0  0
  4  9  1  0  0  0  0
  4  7  1  0  0  0  0
  5  6  1  0  0  0  0
  6  8  1  0  0  0  0
  6 16  1  1  0  0  0
  6  7  1  0  0  0  0
  7 17  1  0  0  0  0
  9 19  1  6  0  0  0
  9  2  1  0  0  0  0
  9  8  1  0  0  0  0
 12  3  1  0  0  0  0
 14  5  1  0  0  0  0
 15  5  1  0  0  0  0
 18  7  1  0  0  0  0
M TOR 0 0 1 2 3
M TOR 1 0 1 2 11
M TOR 2 0 1 2 12
M TOR 3 0 1 8 3
M TOR 4 0 1 8 7
M TOR 5 0 1 8 18
M TOR 6 1 2 3 4
M TOR 7 1 2 3 6
M TOR 8 1 2 3 8
M TOR 9 1 8 3 4
M TOR 10 1 8 3 6
M TOR 11 1 8 7 5
M TOR 12 2 1 0 9
M TOR 13 2 1 8 7
M TOR 14 2 1 8 18
M TOR 15 2 3 4 5
M TOR 16 2 3 4 13
M TOR 17 2 3 4 14
M TOR 18 2 3 6 5
M TOR 19 2 3 6 16
M TOR 20 2 3 6 17
M TOR 21 2 3 8 7
M TOR 22 2 3 8 18
M TOR 23 3 2 1 10
M TOR 24 3 4 5 6
M TOR 25 3 4 5 7
M TOR 26 3 4 5 15
M TOR 27 3 6 5 7
M TOR 28 3 6 5 15
M TOR 29 3 8 1 10
M TOR 30 3 8 7 5
M TOR 31 4 3 2 11
M TOR 32 4 3 2 12
M TOR 33 4 3 6 16
M TOR 34 4 3 6 17
M TOR 35 4 3 8 7
M TOR 36 4 3 8 18
M TOR 37 4 5 6 16
M TOR 38 4 5 6 17
M TOR 39 4 5 7 8
M TOR 40 5 4 3 8
M TOR 41 5 6 3 8
M TOR 42 5 7 8 18
M TOR 43 6 3 2 11
M TOR 44 6 3 2 12
M TOR 45 6 3 4 13
M TOR 46 6 3 4 14
M TOR 47 6 3 8 7
M TOR 48 6 3 8 18
M TOR 49 6 5 4 13
M TOR 50 6 5 4 14
M TOR 51 6 5 7 8
M TOR 52 7 5 4 13
M TOR 53 7 5 4 14
M TOR 54 7 5 6 16
M TOR 55 7 5 6 17
M TOR 56 7 8 1 10
M TOR 57 8 1 0 9
M TOR 58 8 1 2 11
M TOR 59 8 1 2 12
M TOR 60 8 3 2 11
M TOR 61 8 3 2 12
M TOR 62 8 3 4 13
M TOR 63 8 3 4 14
M TOR 64 8 3 6 16
M TOR 65 8 3 6 17
M TOR 66 8 7 5 15
M  END
$$$$
