gdb 2292	2.3648713	1.9305227	1.4806274	4.2728	73.68	-0.25688	0.01895	0.27583	971.3653	0.159249	-422.626326	-422.618738	-422.617794	-422.657947	30.097
 OpenBabel02181911413D

 19 20  0  0  1  0  0  0  0  0999 V2000
   -0.1838    2.5361   -0.3822 C   0  0  0  0  0  0  0  0  0  0  0  0
   -0.9483    1.2718   -0.0495 C   0  0  1  0  0  0  0  0  0  0  0  0
   -1.8108    1.3104    1.2565 C   0  0  0  0  0  0  0  0  0  0  0  0
   -2.6984    0.0340    1.1431 C   0  0  0  0  0  0  0  0  0  0  0  0
   -2.2277   -0.5499   -0.2011 C   0  0  1  0  0  0  0  0  0  0  0  0
   -1.9714    0.6963   -1.0555 C   0  0  0  0  0  0  0  0  0  0  0  0
   -0.8814   -1.0594    0.0127 O   0  0  0  0  0  0  0  0  0  0  0  0
   -0.0643    0.0326    0.1247 C   0  0  0  0  0  0  0  0  0  0  0  0
    1.1090   -0.0462    0.3460 O   0  0  0  0  0  0  0  0  0  0  0  0
    0.5633    2.7439    0.3892 H   0  0  0  0  0  0  0  0  0  0  0  0
    0.3472    2.4383   -1.3338 H   0  0  0  0  0  0  0  0  0  0  0  0
   -0.8587    3.3952   -0.4516 H   0  0  0  0  0  0  0  0  0  0  0  0
   -1.1880    1.3227    2.1542 H   0  0  0  0  0  0  0  0  0  0  0  0
   -2.4135    2.2235    1.2600 H   0  0  0  0  0  0  0  0  0  0  0  0
   -2.5321   -0.6792    1.9528 H   0  0  0  0  0  0  0  0  0  0  0  0
   -3.7650    0.2735    1.1151 H   0  0  0  0  0  0  0  0  0  0  0  0
   -2.8253   -1.3566   -0.6217 H   0  0  0  0  0  0  0  0  0  0  0  0
   -1.5399    0.4617   -2.0322 H   0  0  0  0  0  0  0  0  0  0  0  0
   -2.8574    1.3244   -1.1840 H   0  0  0  0  0  0  0  0  0  0  0  0
  1 10  1  0  0  0  0
  2  1  1  6  0  0  0
  2  8  1  0  0  0  0
  2  3  1  0  0  0  0
  3 14  1  0  0  0  0
  3 13  1  0  0  0  0
  4  3  1  0  0  0  0
  4 15  1  0  0  0  0
  5 17  1  6  0  0  0
  5  7  1  0  0  0  0
  5  4  1  0  0  0  0
  6  5  1  0  0  0  0
  6  2  1  0  0  0  0
  7  8  1  0  0  0  0
  8  9  2  0  0  0  0
 11  1  1  0  0  0  0
 12  1  1  0  0  0  0
 16  4  1  0  0  0  0
 18  6  1  0  0  0  0
 19  6  1  0  0  0  0
M TOR 0 0 1 2 3
M TOR 1 0 1 2 12
M TOR 2 0 1 2 13
M TOR 3 0 1 5 4
M TOR 4 0 1 5 17
M TOR 5 0 1 5 18
M TOR 6 0 1 7 6
M TOR 7 0 1 7 8
M TOR 8 1 2 3 4
M TOR 9 1 2 3 14
M TOR 10 1 2 3 15
M TOR 11 1 5 4 3
M TOR 12 1 5 4 6
M TOR 13 1 5 4 16
M TOR 14 1 7 6 4
M TOR 15 2 1 0 9
M TOR 16 2 1 0 10
M TOR 17 2 1 0 11
M TOR 18 2 1 5 4
M TOR 19 2 1 5 17
M TOR 20 2 1 5 18
M TOR 21 2 1 7 6
M TOR 22 2 1 7 8
M TOR 23 2 3 4 5
M TOR 24 2 3 4 6
M TOR 25 2 3 4 16
M TOR 26 3 2 1 5
M TOR 27 3 2 1 7
M TOR 28 3 4 5 17
M TOR 29 3 4 5 18
M TOR 30 3 4 6 7
M TOR 31 4 3 2 12
M TOR 32 4 3 2 13
M TOR 33 4 5 1 7
M TOR 34 4 6 7 8
M TOR 35 5 1 0 9
M TOR 36 5 1 0 10
M TOR 37 5 1 0 11
M TOR 38 5 1 2 12
M TOR 39 5 1 2 13
M TOR 40 5 1 7 6
M TOR 41 5 1 7 8
M TOR 42 5 4 3 14
M TOR 43 5 4 3 15
M TOR 44 5 4 6 7
M TOR 45 6 4 3 14
M TOR 46 6 4 3 15
M TOR 47 6 4 5 17
M TOR 48 6 4 5 18
M TOR 49 7 1 0 9
M TOR 50 7 1 0 10
M TOR 51 7 1 0 11
M TOR 52 7 1 2 12
M TOR 53 7 1 2 13
M TOR 54 7 1 5 17
M TOR 55 7 1 5 18
M TOR 56 7 6 4 16
M  END
$$$$
