gdb 985	11.5394599	0.4278245	0.4206164	2.2359	80.55	-0.25668	-0.02848	0.22820000000000001	2459.651	0.152711	-422.5178	-422.506986	-422.506042	-422.555784	35.99
 OpenBabel02181911403D

 19 18  0  0  0  0  0  0  0  0999 V2000
    8.0426    1.3950    4.3414 O   0  0  0  0  0  0  0  0  0  0  0  0
    7.1182    0.6497    4.1476 C   0  0  0  0  0  0  0  0  0  0  0  0
    6.4578    0.4189    2.8074 C   0  0  0  0  0  0  0  0  0  0  0  0
    4.9486    0.6552    2.8616 C   0  0  0  0  0  0  0  0  0  0  0  0
    4.3907    0.2005    1.6495 O   0  0  0  0  0  0  0  0  0  0  0  0
    2.9961    0.4006    1.5668 C   0  0  0  0  0  0  0  0  0  0  0  0
    2.5323   -0.1392    0.2099 C   0  0  0  0  0  0  0  0  0  0  0  0
    1.0975    0.0191    0.0176 C   0  0  0  0  0  0  0  0  0  0  0  0
   -0.0883    0.1626   -0.1139 C   0  0  0  0  0  0  0  0  0  0  0  0
    6.6799    0.0542    4.9835 H   0  0  0  0  0  0  0  0  0  0  0  0
    6.9322    1.0519    2.0544 H   0  0  0  0  0  0  0  0  0  0  0  0
    6.6188   -0.6325    2.5307 H   0  0  0  0  0  0  0  0  0  0  0  0
    4.5061    0.1142    3.7162 H   0  0  0  0  0  0  0  0  0  0  0  0
    4.7332    1.7260    3.0101 H   0  0  0  0  0  0  0  0  0  0  0  0
    2.4748   -0.1263    2.3816 H   0  0  0  0  0  0  0  0  0  0  0  0
    2.7471    1.4698    1.6536 H   0  0  0  0  0  0  0  0  0  0  0  0
    3.0833    0.3827   -0.5814 H   0  0  0  0  0  0  0  0  0  0  0  0
    2.8124   -1.1969    0.1391 H   0  0  0  0  0  0  0  0  0  0  0  0
   -1.1351    0.2834   -0.2443 H   0  0  0  0  0  0  0  0  0  0  0  0
  2  1  2  0  0  0  0
  2 10  1  0  0  0  0
  3  4  1  0  0  0  0
  3  2  1  0  0  0  0
  4 14  1  0  0  0  0
  4 13  1  0  0  0  0
  5  4  1  0  0  0  0
  6  5  1  0  0  0  0
  6 16  1  0  0  0  0
  6 15  1  0  0  0  0
  7  6  1  0  0  0  0
  8  7  1  0  0  0  0
  9  8  3  0  0  0  0
 11  3  1  0  0  0  0
 12  3  1  0  0  0  0
 17  7  1  0  0  0  0
 18  7  1  0  0  0  0
 19  9  1  0  0  0  0
M TOR 0 0 1 2 3
M TOR 1 0 1 2 10
M TOR 2 0 1 2 11
M TOR 3 1 2 3 4
M TOR 4 1 2 3 12
M TOR 5 1 2 3 13
M TOR 6 2 3 4 5
M TOR 7 3 2 1 9
M TOR 8 3 4 5 6
M TOR 9 3 4 5 14
M TOR 10 3 4 5 15
M TOR 11 4 3 2 10
M TOR 12 4 3 2 11
M TOR 13 4 5 6 7
M TOR 14 4 5 6 16
M TOR 15 4 5 6 17
M TOR 16 5 4 3 12
M TOR 17 5 4 3 13
M TOR 18 5 6 7 8
M TOR 19 6 7 8 18
M TOR 20 7 6 5 14
M TOR 21 7 6 5 15
M TOR 22 8 7 6 16
M TOR 23 8 7 6 17
M  END
$$$$
