
     RDKit          3D

 19 20  0  0  0  0  0  0  0  0999 V2000
   -0.7340   -0.5083    3.3920 O   0  0  0  0  0  0  0  0  0  0  0  0
    0.1999   -0.0757    2.7545 C   0  0  0  0  0  0  0  0  0  0  0  0
    0.8654   -0.8726    1.6376 C   0  0  0  0  0  0  0  0  0  0  0  0
   -0.0344   -0.9931    0.4165 C   0  0  0  0  0  0  0  0  0  0  0  0
    0.0038   -2.2415   -0.4301 C   0  0  0  0  0  0  0  0  0  0  0  0
   -1.2010   -1.9451    0.4287 C   0  0  0  0  0  0  0  0  0  0  0  0
    0.7159    1.3060    3.0634 C   0  0  0  0  0  0  0  0  0  0  0  0
    1.0675    2.2576    1.9881 C   0  0  0  0  0  0  0  0  0  0  0  0
    2.0778    1.6093    2.7421 O   0  0  0  0  0  0  0  0  0  0  0  0
    1.8297   -0.4289    1.3747 H   0  0  0  0  0  0  0  0  0  0  0  0
    1.0565   -1.8722    2.0427 H   0  0  0  0  0  0  0  0  0  0  0  0
   -0.1876   -0.0616   -0.1227 H   0  0  0  0  0  0  0  0  0  0  0  0
   -0.0880   -2.1352   -1.5054 H   0  0  0  0  0  0  0  0  0  0  0  0
    0.6678   -3.0416   -0.1197 H   0  0  0  0  0  0  0  0  0  0  0  0
   -2.1190   -1.6391   -0.0600 H   0  0  0  0  0  0  0  0  0  0  0  0
   -1.3520   -2.5344    1.3256 H   0  0  0  0  0  0  0  0  0  0  0  0
    0.3571    1.7019    4.0117 H   0  0  0  0  0  0  0  0  0  0  0  0
    0.9886    1.9529    0.9461 H   0  0  0  0  0  0  0  0  0  0  0  0
    0.9419    3.3224    2.1767 H   0  0  0  0  0  0  0  0  0  0  0  0
  1  2  2  0
  2  3  1  0
  3  4  1  0
  4  5  1  0
  5  6  1  0
  2  7  1  0
  7  8  1  0
  8  9  1  0
  6  4  1  0
  9  7  1  0
  3 10  1  0
  3 11  1  0
  4 12  1  0
  5 13  1  0
  5 14  1  0
  6 15  1  0
  6 16  1  0
  7 17  1  0
  8 18  1  0
  8 19  1  0
M  END
$$$$
