gdb 3967	2.8568817	1.5207893	1.2595072	2.3659	78.13	-0.22699	0.00415	0.23113999999999998	1059.9515	0.156076	-422.533311	-422.524708	-422.523763	-422.565981	32.934
 OpenBabel02181911413D

 19 20  0  0  1  0  0  0  0  0999 V2000
   -0.1289    1.6690   -0.1565 C   0  0  0  0  0  0  0  0  0  0  0  0
   -0.0277    0.1603    0.0371 C   0  0  2  0  0  0  0  0  0  0  0  0
   -1.2592   -0.3650    0.5201 O   0  0  0  0  0  0  0  0  0  0  0  0
   -1.0241   -0.8928    1.8380 C   0  0  0  0  0  0  0  0  0  0  0  0
    0.4837   -1.0668    1.9442 C   0  0  0  0  0  3  0  0  0  0  0  0
    1.0349   -0.3975    0.9396 C   0  0  1  0  0  3  0  0  0  0  0  0
    2.0444   -0.5497   -0.1706 C   0  0  0  0  0  0  0  0  0  0  0  0
    0.7662   -0.5635   -1.1131 C   0  0  2  0  0  0  0  0  0  0  0  0
    0.8157    0.1277   -2.3329 O   0  0  0  0  0  0  0  0  0  0  0  0
    0.8175    2.0981   -0.4945 H   0  0  0  0  0  0  0  0  0  0  0  0
   -0.8848    1.8924   -0.9139 H   0  0  0  0  0  0  0  0  0  0  0  0
   -0.4207    2.1462    0.7831 H   0  0  0  0  0  0  0  0  0  0  0  0
   -1.4510   -0.2172    2.5969 H   0  0  0  0  0  0  0  0  0  0  0  0
   -1.5427   -1.8562    1.9319 H   0  0  0  0  0  0  0  0  0  0  0  0
    0.9517   -1.7494    2.6427 H   0  0  0  0  0  0  0  0  0  0  0  0
    2.6372    0.3485   -0.3682 H   0  0  0  0  0  0  0  0  0  0  0  0
    2.6938   -1.4267   -0.1527 H   0  0  0  0  0  0  0  0  0  0  0  0
    0.3898   -1.5883   -1.2210 H   0  0  0  0  0  0  0  0  0  0  0  0
    1.3268   -0.3930   -2.9604 H   0  0  0  0  0  0  0  0  0  0  0  0
  1 12  1  0  0  0  0
  2  1  1  6  0  0  0
  2  3  1  0  0  0  0
  2  6  1  0  0  0  0
  3  4  1  0  0  0  0
  4 14  1  0  0  0  0
  4  5  1  0  0  0  0
  4 13  1  0  0  0  0
  5 15  1  0  0  0  0
  6  5  1  6  0  0  0
  7 17  1  0  0  0  0
  7  6  1  0  0  0  0
  8 18  1  6  0  0  0
  8  7  1  0  0  0  0
  8  2  1  0  0  0  0
  9  8  1  0  0  0  0
 10  1  1  0  0  0  0
 11  1  1  0  0  0  0
 16  7  1  0  0  0  0
 19  9  1  0  0  0  0
M TOR 0 0 1 2 3
M TOR 1 0 1 5 4
M TOR 2 0 1 5 6
M TOR 3 0 1 7 6
M TOR 4 0 1 7 8
M TOR 5 0 1 7 17
M TOR 6 1 2 3 4
M TOR 7 1 2 3 12
M TOR 8 1 2 3 13
M TOR 9 1 5 4 3
M TOR 10 1 5 4 14
M TOR 11 1 5 6 7
M TOR 12 1 5 6 15
M TOR 13 1 5 6 16
M TOR 14 1 7 6 15
M TOR 15 1 7 6 16
M TOR 16 1 7 8 18
M TOR 17 2 1 0 9
M TOR 18 2 1 0 10
M TOR 19 2 1 0 11
M TOR 20 2 1 5 4
M TOR 21 2 1 5 6
M TOR 22 2 1 7 6
M TOR 23 2 1 7 8
M TOR 24 2 1 7 17
M TOR 25 2 3 4 5
M TOR 26 2 3 4 14
M TOR 27 3 2 1 5
M TOR 28 3 2 1 7
M TOR 29 3 4 5 6
M TOR 30 4 5 1 7
M TOR 31 4 5 6 7
M TOR 32 4 5 6 15
M TOR 33 4 5 6 16
M TOR 34 5 1 0 9
M TOR 35 5 1 0 10
M TOR 36 5 1 0 11
M TOR 37 5 1 7 8
M TOR 38 5 1 7 17
M TOR 39 5 4 3 12
M TOR 40 5 4 3 13
M TOR 41 5 6 7 8
M TOR 42 5 6 7 17
M TOR 43 6 5 4 14
M TOR 44 6 7 8 18
M TOR 45 7 1 0 9
M TOR 46 7 1 0 10
M TOR 47 7 1 0 11
M TOR 48 8 7 6 15
M TOR 49 8 7 6 16
M  END
$$$$
