gdb 3010	2.2615907	1.8870501	1.5319801	0.7585	73.24	-0.2432	0.06779	0.31099	968.3389	0.15737	-422.519572	-422.511833	-422.510889	-422.551088	31.442
 OpenBabel02181911413D

 19 21  0  0  1  0  0  0  0  0999 V2000
    0.3233    0.6950   -0.2948 C   0  0  0  0  0  0  0  0  0  0  0  0
    1.5463   -0.2089   -0.3488 C   0  0  1  0  0  0  0  0  0  0  0  0
    3.0125    0.3520   -0.5080 C   0  0  2  0  0  0  0  0  0  0  0  0
    3.4774   -1.0025    0.1009 C   0  0  0  0  0  0  0  0  0  0  0  0
    2.1829   -0.8243    0.9476 C   0  0  2  0  0  0  0  0  0  0  0  0
    1.5086   -1.8655    1.5800 O   0  0  0  0  0  0  0  0  0  0  0  0
    2.4951    0.4667    1.7531 C   0  0  1  0  0  0  0  0  0  0  0  0
    3.8832    0.8364    1.8159 O   0  0  0  0  0  0  0  0  0  0  0  0
    3.0888    1.3007    0.7100 C   0  0  1  0  0  0  0  0  0  0  0  0
    0.4434    1.5300    0.4002 H   0  0  0  0  0  0  0  0  0  0  0  0
    0.1089    1.1124   -1.2847 H   0  0  0  0  0  0  0  0  0  0  0  0
   -0.5563    0.1229    0.0186 H   0  0  0  0  0  0  0  0  0  0  0  0
    1.3767   -1.0106   -1.0752 H   0  0  0  0  0  0  0  0  0  0  0  0
    3.3878    0.7107   -1.4648 H   0  0  0  0  0  0  0  0  0  0  0  0
    3.3729   -1.8234   -0.6091 H   0  0  0  0  0  0  0  0  0  0  0  0
    4.4365   -1.0306    0.6133 H   0  0  0  0  0  0  0  0  0  0  0  0
    2.0319   -2.1563    2.3347 H   0  0  0  0  0  0  0  0  0  0  0  0
    1.8593    0.8060    2.5642 H   0  0  0  0  0  0  0  0  0  0  0  0
    2.9755    2.3759    0.6275 H   0  0  0  0  0  0  0  0  0  0  0  0
  1 12  1  0  0  0  0
  1 10  1  0  0  0  0
  2 13  1  6  0  0  0
  2  1  1  0  0  0  0
  2  5  1  0  0  0  0
  3 14  1  6  0  0  0
  3  2  1  0  0  0  0
  3  4  1  0  0  0  0
  3  9  1  0  0  0  0
  4 16  1  0  0  0  0
  4  5  1  0  0  0  0
  5  6  1  1  0  0  0
  5  7  1  0  0  0  0
  6 17  1  0  0  0  0
  7  8  1  0  0  0  0
  7 18  1  1  0  0  0
  9 19  1  6  0  0  0
  9  7  1  0  0  0  0
  9  8  1  0  0  0  0
 11  1  1  0  0  0  0
 15  4  1  0  0  0  0
M TOR 0 0 1 2 3
M TOR 1 0 1 2 8
M TOR 2 0 1 2 13
M TOR 3 0 1 4 3
M TOR 4 0 1 4 5
M TOR 5 0 1 4 6
M TOR 6 1 2 3 4
M TOR 7 1 2 3 14
M TOR 8 1 2 3 15
M TOR 9 1 2 8 6
M TOR 10 1 2 8 7
M TOR 11 1 2 8 18
M TOR 12 1 4 3 14
M TOR 13 1 4 3 15
M TOR 14 1 4 5 16
M TOR 15 1 4 6 7
M TOR 16 1 4 6 8
M TOR 17 1 4 6 17
M TOR 18 2 1 0 9
M TOR 19 2 1 0 10
M TOR 20 2 1 0 11
M TOR 21 2 1 4 5
M TOR 22 2 1 4 6
M TOR 23 2 3 4 5
M TOR 24 2 3 4 6
M TOR 25 2 8 6 4
M TOR 26 2 8 6 7
M TOR 27 2 8 6 17
M TOR 28 3 2 1 12
M TOR 29 3 2 8 6
M TOR 30 3 2 8 7
M TOR 31 3 2 8 18
M TOR 32 3 4 1 12
M TOR 33 3 4 5 16
M TOR 34 3 4 6 7
M TOR 35 3 4 6 8
M TOR 36 3 4 6 17
M TOR 37 4 1 0 9
M TOR 38 4 1 0 10
M TOR 39 4 1 0 11
M TOR 40 4 1 2 8
M TOR 41 4 1 2 13
M TOR 42 4 3 2 8
M TOR 43 4 3 2 13
M TOR 44 4 6 7 8
M TOR 45 4 6 8 18
M TOR 46 5 4 1 12
M TOR 47 5 4 3 14
M TOR 48 5 4 3 15
M TOR 49 5 4 6 7
M TOR 50 5 4 6 8
M TOR 51 5 4 6 17
M TOR 52 6 4 1 12
M TOR 53 6 4 3 14
M TOR 54 6 4 3 15
M TOR 55 6 4 5 16
M TOR 56 6 7 8 18
M TOR 57 6 8 2 13
M TOR 58 7 8 2 13
M TOR 59 7 8 6 17
M TOR 60 8 2 1 12
M TOR 61 8 2 3 14
M TOR 62 8 2 3 15
M  END
$$$$
