gdb 4514	3.2762791	1.3731781	1.07833	1.6518	76.19	-0.24827	-0.00996	0.23831	1138.5766	0.157487	-422.530449	-422.522372	-422.521427	-422.56274	31.332
 OpenBabel02181911413D

 19 20  0  0  1  0  0  0  0  0999 V2000
   -0.2607   -0.8471    1.9806 C   0  0  0  0  0  0  0  0  0  0  0  0
    1.1460   -0.2645    1.9759 C   0  0  2  0  0  0  0  0  0  0  0  0
    1.7032   -0.5897    0.6925 O   0  0  0  0  0  0  0  0  0  0  0  0
    3.1109   -0.4935    0.5552 C   0  0  0  0  0  0  0  0  0  0  0  0
    3.7274    0.7492    1.1802 C   0  0  2  0  0  0  0  0  0  0  0  0
    4.9500    0.5212    1.8922 O   0  0  0  0  0  0  0  0  0  0  0  0
    3.7756    0.8515    2.6486 C   0  0  2  0  0  0  0  0  0  0  0  0
    3.1603   -0.2303    3.4707 C   0  0  0  0  0  0  0  0  0  0  0  0
    1.9755   -0.7525    3.1541 C   0  0  0  0  0  0  0  0  0  0  0  0
   -0.7937   -0.5548    2.8906 H   0  0  0  0  0  0  0  0  0  0  0  0
   -0.8210   -0.4859    1.1149 H   0  0  0  0  0  0  0  0  0  0  0  0
   -0.2207   -1.9399    1.9332 H   0  0  0  0  0  0  0  0  0  0  0  0
    1.0723    0.8313    2.0459 H   0  0  0  0  0  0  0  0  0  0  0  0
    3.6167   -1.3586    1.0017 H   0  0  0  0  0  0  0  0  0  0  0  0
    3.2959   -0.5145   -0.5233 H   0  0  0  0  0  0  0  0  0  0  0  0
    3.7108    1.6673    0.5938 H   0  0  0  0  0  0  0  0  0  0  0  0
    3.8271    1.8423    3.1038 H   0  0  0  0  0  0  0  0  0  0  0  0
    3.7204   -0.5853    4.3324 H   0  0  0  0  0  0  0  0  0  0  0  0
    1.5591   -1.5598    3.7521 H   0  0  0  0  0  0  0  0  0  0  0  0
  1 10  1  0  0  0  0
  2  1  1  0  0  0  0
  2 13  1  1  0  0  0
  2  9  1  0  0  0  0
  3  2  1  0  0  0  0
  4  3  1  0  0  0  0
  4 14  1  0  0  0  0
  4  5  1  0  0  0  0
  5 16  1  6  0  0  0
  5  6  1  0  0  0  0
  5  7  1  0  0  0  0
  6  7  1  0  0  0  0
  7 17  1  1  0  0  0
  7  8  1  0  0  0  0
  8 18  1  0  0  0  0
  9  8  2  0  0  0  0
  9 19  1  0  0  0  0
 11  1  1  0  0  0  0
 12  1  1  0  0  0  0
 15  4  1  0  0  0  0
M TOR 0 0 1 2 3
M TOR 1 0 1 8 7
M TOR 2 0 1 8 18
M TOR 3 1 2 3 4
M TOR 4 1 2 3 13
M TOR 5 1 2 3 14
M TOR 6 1 8 7 6
M TOR 7 1 8 7 17
M TOR 8 2 1 0 9
M TOR 9 2 1 0 10
M TOR 10 2 1 0 11
M TOR 11 2 1 8 7
M TOR 12 2 1 8 18
M TOR 13 2 3 4 5
M TOR 14 2 3 4 6
M TOR 15 2 3 4 15
M TOR 16 3 2 1 8
M TOR 17 3 2 1 12
M TOR 18 3 4 5 6
M TOR 19 3 4 6 7
M TOR 20 3 4 6 16
M TOR 21 4 5 6 7
M TOR 22 4 5 6 16
M TOR 23 4 6 7 8
M TOR 24 4 6 7 17
M TOR 25 5 4 3 13
M TOR 26 5 4 3 14
M TOR 27 5 6 4 15
M TOR 28 5 6 7 8
M TOR 29 5 6 7 17
M TOR 30 6 4 3 13
M TOR 31 6 4 3 14
M TOR 32 6 7 8 18
M TOR 33 7 6 4 15
M TOR 34 7 8 1 12
M TOR 35 8 1 0 9
M TOR 36 8 1 0 10
M TOR 37 8 1 0 11
M TOR 38 8 7 6 16
M  END
$$$$
