
     RDKit          3D

 19 21  0  0  0  0  0  0  0  0999 V2000
    1.1505   -0.4824    0.9474 C   0  0  0  0  0  0  0  0  0  0  0  0
    0.9594    0.1870   -0.4194 C   0  0  0  0  0  0  0  0  0  0  0  0
    1.6639   -0.5304   -1.5288 C   0  0  0  0  0  0  0  0  0  0  0  0
    3.0744   -0.6691   -1.3861 O   0  0  0  0  0  0  0  0  0  0  0  0
    3.3293   -1.4386   -2.5536 C   0  0  0  0  0  0  0  0  0  0  0  0
    2.7390   -0.5692   -3.6854 C   0  0  0  0  0  0  0  0  0  0  0  0
    1.3716   -0.4659   -3.0277 C   0  0  0  0  0  0  0  0  0  0  0  0
    1.2378   -1.7815   -2.2614 C   0  0  0  0  0  0  0  0  0  0  0  0
    2.4204   -2.5319   -2.4707 O   0  0  0  0  0  0  0  0  0  0  0  0
    0.7493   -1.5009    0.9461 H   0  0  0  0  0  0  0  0  0  0  0  0
    2.2117   -0.5431    1.2015 H   0  0  0  0  0  0  0  0  0  0  0  0
    0.6397    0.0835    1.7319 H   0  0  0  0  0  0  0  0  0  0  0  0
   -0.1065    0.2390   -0.6712 H   0  0  0  0  0  0  0  0  0  0  0  0
    1.3181    1.2234   -0.3822 H   0  0  0  0  0  0  0  0  0  0  0  0
    4.3597   -1.7809   -2.5905 H   0  0  0  0  0  0  0  0  0  0  0  0
    3.2557    0.3884   -3.7771 H   0  0  0  0  0  0  0  0  0  0  0  0
    2.7289   -1.0924   -4.6439 H   0  0  0  0  0  0  0  0  0  0  0  0
    0.5291    0.0678   -3.4445 H   0  0  0  0  0  0  0  0  0  0  0  0
    0.3405   -2.3628   -2.1076 H   0  0  0  0  0  0  0  0  0  0  0  0
  1  2  1  0
  2  3  1  0
  3  4  1  0
  4  5  1  0
  5  6  1  0
  6  7  1  0
  7  8  1  0
  8  9  1  0
  7  3  1  0
  8  3  1  0
  9  5  1  0
  1 10  1  0
  1 11  1  0
  1 12  1  0
  2 13  1  0
  2 14  1  0
  5 15  1  0
  6 16  1  0
  6 17  1  0
  7 18  1  0
  8 19  1  0
M  END
$$$$
