
     RDKit          3D

 19 21  0  0  0  0  0  0  0  0999 V2000
    0.4384    0.0238    0.8842 O   0  0  0  0  0  0  0  0  0  0  0  0
   -0.9067    0.4829    0.9492 C   0  0  0  0  0  0  0  0  0  0  0  0
   -1.4810    0.2933    2.3600 C   0  0  0  0  0  0  0  0  0  0  0  0
   -1.0525   -0.7314    3.1679 O   0  0  0  0  0  0  0  0  0  0  0  0
   -2.7973    0.9536    2.5386 C   0  0  0  0  0  0  0  0  0  0  0  0
   -1.5505    1.8268    2.5576 C   0  0  0  0  0  0  0  0  0  0  0  0
   -1.0590    2.0075    1.1333 C   0  0  0  0  0  0  0  0  0  0  0  0
   -1.4794    3.0260    0.1157 C   0  0  0  0  0  0  0  0  0  0  0  0
   -0.0595    3.0175    0.6426 C   0  0  0  0  0  0  0  0  0  0  0  0
    0.9939    0.7163    1.2612 H   0  0  0  0  0  0  0  0  0  0  0  0
   -1.4393    0.0032    0.1208 H   0  0  0  0  0  0  0  0  0  0  0  0
   -0.1639   -0.9487    2.8511 H   0  0  0  0  0  0  0  0  0  0  0  0
   -3.5195    1.0304    1.7271 H   0  0  0  0  0  0  0  0  0  0  0  0
   -3.2374    0.7833    3.5169 H   0  0  0  0  0  0  0  0  0  0  0  0
   -1.3000    2.4542    3.4048 H   0  0  0  0  0  0  0  0  0  0  0  0
   -1.6379    2.6991   -0.9068 H   0  0  0  0  0  0  0  0  0  0  0  0
   -2.1377    3.8261    0.4384 H   0  0  0  0  0  0  0  0  0  0  0  0
    0.7257    2.6810   -0.0283 H   0  0  0  0  0  0  0  0  0  0  0  0
    0.2403    3.8101    1.3206 H   0  0  0  0  0  0  0  0  0  0  0  0
  1  2  1  0
  2  3  1  0
  3  4  1  0
  3  5  1  0
  5  6  1  0
  6  7  1  0
  7  8  1  0
  8  9  1  0
  7  2  1  0
  9  7  1  0
  6  3  1  0
  1 10  1  0
  2 11  1  0
  4 12  1  0
  5 13  1  0
  5 14  1  0
  6 15  1  0
  8 16  1  0
  8 17  1  0
  9 18  1  0
  9 19  1  0
M  END
$$$$
