
     RDKit          3D

 19 19  0  0  0  0  0  0  0  0999 V2000
   -0.2503   -0.7842    4.0390 C   0  0  0  0  0  0  0  0  0  0  0  0
    1.2017   -0.6857    3.5214 C   0  0  0  0  0  0  0  0  0  0  0  0
    1.7227    0.6753    3.6586 C   0  0  0  0  0  0  0  0  0  0  0  0
    2.1341    1.7979    3.7816 C   0  0  0  0  0  0  0  0  0  0  0  0
    1.3260   -1.1973    2.0838 C   0  0  0  0  0  0  0  0  0  0  0  0
    0.6380   -0.3935    0.9851 C   0  0  0  0  0  0  0  0  0  0  0  0
    0.9777   -0.8701   -0.2981 O   0  0  0  0  0  0  0  0  0  0  0  0
    1.6039   -2.6200    1.8569 C   0  0  0  0  0  0  0  0  0  0  0  0
    2.6413   -1.6325    1.7099 O   0  0  0  0  0  0  0  0  0  0  0  0
   -0.2940   -0.5037    5.0939 H   0  0  0  0  0  0  0  0  0  0  0  0
   -0.9145   -0.1136    3.4879 H   0  0  0  0  0  0  0  0  0  0  0  0
   -0.6223   -1.8076    3.9339 H   0  0  0  0  0  0  0  0  0  0  0  0
    1.8299   -1.3469    4.1316 H   0  0  0  0  0  0  0  0  0  0  0  0
    2.5107    2.7851    3.8897 H   0  0  0  0  0  0  0  0  0  0  0  0
   -0.4496   -0.4767    1.0824 H   0  0  0  0  0  0  0  0  0  0  0  0
    0.9046    0.6669    1.1100 H   0  0  0  0  0  0  0  0  0  0  0  0
    1.9381   -0.9784   -0.2887 H   0  0  0  0  0  0  0  0  0  0  0  0
    1.7271   -3.2897    2.7065 H   0  0  0  0  0  0  0  0  0  0  0  0
    1.2767   -3.0805    0.9285 H   0  0  0  0  0  0  0  0  0  0  0  0
  1  2  1  0
  2  3  1  0
  3  4  3  0
  2  5  1  0
  5  6  1  0
  6  7  1  0
  5  8  1  0
  8  9  1  0
  9  5  1  0
  1 10  1  0
  1 11  1  0
  1 12  1  0
  2 13  1  0
  4 14  1  0
  6 15  1  0
  6 16  1  0
  7 17  1  0
  8 18  1  0
  8 19  1  0
M  END
$$$$
