gdb 3816	3.0190259	1.5852166	1.2529342	1.6976	73.95	-0.23765	0.0672	0.30485	1041.2895	0.157466	-422.515229	-422.507635	-422.506691	-422.54687	30.764
 OpenBabel02181911413D

 19 21  0  0  1  0  0  0  0  0999 V2000
    1.9934    1.7416    1.2066 C   0  0  0  0  0  0  0  0  0  0  0  0
    1.9022    0.4551    0.3842 C   0  0  2  0  0  0  0  0  0  0  0  0
    2.0432   -0.8556    1.2254 C   0  0  0  0  0  0  0  0  0  0  0  0
    3.2335   -1.4898    0.5338 C   0  0  2  0  0  0  0  0  0  0  0  0
    3.6654   -2.7071    1.0118 O   0  0  0  0  0  0  0  0  0  0  0  0
    4.2685   -0.3825    0.1255 C   0  0  1  0  0  0  0  0  0  0  0  0
    4.6327   -1.1622   -1.0745 O   0  0  0  0  0  0  0  0  0  0  0  0
    3.1588   -1.2209   -1.0116 C   0  0  2  0  0  0  0  0  0  0  0  0
    3.0624    0.2678   -0.6009 C   0  0  1  0  0  0  0  0  0  0  0  0
    1.1717    1.8074    1.9271 H   0  0  0  0  0  0  0  0  0  0  0  0
    2.9329    1.7866    1.7692 H   0  0  0  0  0  0  0  0  0  0  0  0
    1.9475    2.6276    0.5642 H   0  0  0  0  0  0  0  0  0  0  0  0
    0.9516    0.4532   -0.1618 H   0  0  0  0  0  0  0  0  0  0  0  0
    2.2505   -0.6560    2.2816 H   0  0  0  0  0  0  0  0  0  0  0  0
    1.1581   -1.4965    1.1771 H   0  0  0  0  0  0  0  0  0  0  0  0
    4.4201   -2.9513    0.4559 H   0  0  0  0  0  0  0  0  0  0  0  0
    5.0789    0.0708    0.6975 H   0  0  0  0  0  0  0  0  0  0  0  0
    2.6377   -1.7683   -1.7984 H   0  0  0  0  0  0  0  0  0  0  0  0
    3.2663    1.0244   -1.3574 H   0  0  0  0  0  0  0  0  0  0  0  0
  1 11  1  0  0  0  0
  1 10  1  0  0  0  0
  2 13  1  6  0  0  0
  2  1  1  0  0  0  0
  2  3  1  0  0  0  0
  3 14  1  0  0  0  0
  4  5  1  1  0  0  0
  4  3  1  0  0  0  0
  6  4  1  0  0  0  0
  6 17  1  1  0  0  0
  7  8  1  0  0  0  0
  7  6  1  0  0  0  0
  8 18  1  6  0  0  0
  8  9  1  0  0  0  0
  8  4  1  0  0  0  0
  9 19  1  6  0  0  0
  9  6  1  0  0  0  0
  9  2  1  0  0  0  0
 12  1  1  0  0  0  0
 15  3  1  0  0  0  0
 16  5  1  0  0  0  0
M TOR 0 0 1 2 3
M TOR 1 0 1 2 13
M TOR 2 0 1 2 14
M TOR 3 0 1 8 5
M TOR 4 0 1 8 7
M TOR 5 0 1 8 18
M TOR 6 1 2 3 4
M TOR 7 1 2 3 5
M TOR 8 1 2 3 7
M TOR 9 1 8 5 3
M TOR 10 1 8 5 6
M TOR 11 1 8 5 16
M TOR 12 1 8 7 3
M TOR 13 1 8 7 6
M TOR 14 1 8 7 17
M TOR 15 2 1 0 9
M TOR 16 2 1 0 10
M TOR 17 2 1 0 11
M TOR 18 2 1 8 5
M TOR 19 2 1 8 7
M TOR 20 2 1 8 18
M TOR 21 2 3 4 15
M TOR 22 2 3 5 6
M TOR 23 2 3 5 8
M TOR 24 2 3 5 16
M TOR 25 2 3 7 6
M TOR 26 2 3 7 8
M TOR 27 2 3 7 17
M TOR 28 3 2 1 8
M TOR 29 3 2 1 12
M TOR 30 3 5 6 7
M TOR 31 3 5 8 7
M TOR 32 3 5 8 18
M TOR 33 3 7 8 18
M TOR 34 4 3 2 13
M TOR 35 4 3 2 14
M TOR 36 4 3 5 6
M TOR 37 4 3 5 8
M TOR 38 4 3 5 16
M TOR 39 4 3 7 6
M TOR 40 4 3 7 8
M TOR 41 4 3 7 17
M TOR 42 5 3 2 13
M TOR 43 5 3 2 14
M TOR 44 5 3 4 15
M TOR 45 5 3 7 17
M TOR 46 5 6 7 8
M TOR 47 5 6 7 17
M TOR 48 5 8 1 12
M TOR 49 5 8 7 17
M TOR 50 6 5 8 18
M TOR 51 6 7 8 18
M TOR 52 7 3 2 13
M TOR 53 7 3 2 14
M TOR 54 7 3 4 15
M TOR 55 7 3 5 16
M TOR 56 7 6 5 16
M TOR 57 7 8 1 12
M TOR 58 7 8 5 16
M TOR 59 8 1 0 9
M TOR 60 8 1 0 10
M TOR 61 8 1 0 11
M TOR 62 8 1 2 13
M TOR 63 8 1 2 14
M  END
$$$$
