gdb 4752	3.7125147	0.6378688	0.5725958	3.3926	84.93	-0.25603	-0.0472	0.20883	1961.5567	0.15237	-422.526732	-422.515499	-422.514554	-422.565163	37.323
 OpenBabel02181911413D

 19 18  0  0  1  0  0  0  0  0999 V2000
   -5.1070    3.2333    0.6403 C   0  0  0  0  0  0  0  0  0  0  0  0
   -3.7527    2.8445    0.7222 O   0  0  0  0  0  0  0  0  0  0  0  0
   -3.1590    2.5414   -0.5336 C   0  0  1  0  0  0  0  0  0  0  0  0
   -2.7691    3.8060   -1.3197 C   0  0  0  0  0  0  0  0  0  0  0  0
   -1.9870    1.7027   -0.2910 C   0  0  0  0  0  0  0  0  0  0  0  0
   -1.0046    1.0180   -0.1395 C   0  0  0  0  0  0  0  0  0  0  0  0
    0.1731    0.1929    0.0551 C   0  0  0  0  0  0  0  0  0  0  0  0
    0.5597   -0.0545    1.4988 C   0  0  0  0  0  0  0  0  0  0  0  0
    0.7939   -0.2592   -0.8837 O   0  0  0  0  0  0  0  0  0  0  0  0
   -5.4660    3.3400    1.6664 H   0  0  0  0  0  0  0  0  0  0  0  0
   -5.2438    4.1933    0.1222 H   0  0  0  0  0  0  0  0  0  0  0  0
   -5.7170    2.4728    0.1284 H   0  0  0  0  0  0  0  0  0  0  0  0
   -3.8714    1.9549   -1.1398 H   0  0  0  0  0  0  0  0  0  0  0  0
   -2.0671    4.4051   -0.7351 H   0  0  0  0  0  0  0  0  0  0  0  0
   -2.2979    3.5329   -2.2673 H   0  0  0  0  0  0  0  0  0  0  0  0
   -3.6546    4.4089   -1.5369 H   0  0  0  0  0  0  0  0  0  0  0  0
   -0.2651   -0.5409    2.0305 H   0  0  0  0  0  0  0  0  0  0  0  0
    1.4518   -0.6813    1.5354 H   0  0  0  0  0  0  0  0  0  0  0  0
    0.7472    0.8981    2.0059 H   0  0  0  0  0  0  0  0  0  0  0  0
  1  2  1  0  0  0  0
  1 10  1  0  0  0  0
  3 13  1  6  0  0  0
  3  5  1  0  0  0  0
  3  2  1  0  0  0  0
  4 14  1  0  0  0  0
  4  3  1  0  0  0  0
  5  6  3  0  0  0  0
  6  7  1  0  0  0  0
  7  8  1  0  0  0  0
  8 18  1  0  0  0  0
  8 19  1  0  0  0  0
  8 17  1  0  0  0  0
  9  7  2  0  0  0  0
 11  1  1  0  0  0  0
 12  1  1  0  0  0  0
 15  4  1  0  0  0  0
 16  4  1  0  0  0  0
M TOR 0 0 1 2 3
M TOR 1 0 1 2 4
M TOR 2 0 1 2 12
M TOR 3 1 2 3 13
M TOR 4 1 2 3 14
M TOR 5 1 2 3 15
M TOR 6 1 2 4 5
M TOR 7 2 1 0 9
M TOR 8 2 1 0 10
M TOR 9 2 1 0 11
M TOR 10 2 4 5 6
M TOR 11 3 2 4 5
M TOR 12 4 2 3 13
M TOR 13 4 2 3 14
M TOR 14 4 2 3 15
M TOR 15 4 5 6 7
M TOR 16 4 5 6 8
M TOR 17 5 4 2 12
M TOR 18 5 6 7 16
M TOR 19 5 6 7 17
M TOR 20 5 6 7 18
M TOR 21 8 6 7 16
M TOR 22 8 6 7 17
M TOR 23 8 6 7 18
M  END
$$$$
