
     RDKit          3D

 19 20  0  0  0  0  0  0  0  0999 V2000
    1.3646   -0.1327   -0.0130 C   0  0  0  0  0  0  0  0  0  0  0  0
   -0.0225   -0.2065    0.2120 O   0  0  0  0  0  0  0  0  0  0  0  0
   -0.4806    0.7628    1.1230 C   0  0  0  0  0  0  0  0  0  0  0  0
   -1.9732    0.6679    1.2559 C   0  0  0  0  0  0  0  0  0  0  0  0
   -2.7907   -0.6646    1.2330 C   0  0  0  0  0  0  0  0  0  0  0  0
   -3.8370    0.3961    0.7815 C   0  0  0  0  0  0  0  0  0  0  0  0
   -2.7512    1.0827    0.0794 O   0  0  0  0  0  0  0  0  0  0  0  0
   -3.9758    1.2575    2.0539 C   0  0  0  0  0  0  0  0  0  0  0  0
   -2.6970    1.4459    2.3809 C   0  0  0  0  0  0  0  0  0  0  0  0
    1.9394   -0.2939    0.9134 H   0  0  0  0  0  0  0  0  0  0  0  0
    1.6210   -0.9174   -0.7286 H   0  0  0  0  0  0  0  0  0  0  0  0
    1.6589    0.8420   -0.4330 H   0  0  0  0  0  0  0  0  0  0  0  0
   -0.0192    0.6170    2.1159 H   0  0  0  0  0  0  0  0  0  0  0  0
   -0.2167    1.7793    0.7843 H   0  0  0  0  0  0  0  0  0  0  0  0
   -2.4724   -1.3229    0.4237 H   0  0  0  0  0  0  0  0  0  0  0  0
   -2.9513   -1.1974    2.1724 H   0  0  0  0  0  0  0  0  0  0  0  0
   -4.7076    0.1741    0.1665 H   0  0  0  0  0  0  0  0  0  0  0  0
   -4.8866    1.5876    2.5312 H   0  0  0  0  0  0  0  0  0  0  0  0
   -2.2413    1.9778    3.2034 H   0  0  0  0  0  0  0  0  0  0  0  0
  1  2  1  0
  2  3  1  0
  3  4  1  0
  4  5  1  0
  5  6  1  0
  6  7  1  0
  6  8  1  0
  8  9  2  0
  7  4  1  0
  9  4  1  0
  1 10  1  0
  1 11  1  0
  1 12  1  0
  3 13  1  0
  3 14  1  0
  5 15  1  0
  5 16  1  0
  6 17  1  0
  8 18  1  0
  9 19  1  0
M  END
$$$$
