gdb 2205	2.3888858	1.9806882	1.5304853	0.6494	73.64	-0.21548	0.07054	0.28602	953.3206	0.158053	-422.56624	-422.558555	-422.557611	-422.597723	31.098
 OpenBabel02181911413D

 19 21  0  0  1  0  0  0  0  0999 V2000
   -0.0136    0.0335   -0.0276 C   0  0  0  0  0  0  0  0  0  0  0  0
    1.4618   -0.0909    0.1655 C   0  0  2  0  0  0  0  0  0  0  0  0
    2.1442   -0.9514   -0.7385 O   0  0  0  0  0  0  0  0  0  0  0  0
    3.4901   -0.7942   -0.2519 C   0  0  2  0  0  0  0  0  0  0  0  0
    3.3493   -1.1157    1.2557 C   0  0  0  0  0  0  0  0  0  0  0  0
    2.2052   -0.1401    1.4947 C   0  0  1  0  0  0  0  0  0  0  0  0
    2.4144    1.0292    0.5380 C   0  0  2  0  0  0  0  0  0  0  0  0
    2.0042    2.3018    0.9080 O   0  0  0  0  0  0  0  0  0  0  0  0
    3.6860    0.7377   -0.2537 C   0  0  0  0  0  0  0  0  0  0  0  0
   -0.4092    0.8049    0.6388 H   0  0  0  0  0  0  0  0  0  0  0  0
   -0.2469    0.3164   -1.0599 H   0  0  0  0  0  0  0  0  0  0  0  0
   -0.5279   -0.9083    0.1888 H   0  0  0  0  0  0  0  0  0  0  0  0
    4.1697   -1.3998   -0.8478 H   0  0  0  0  0  0  0  0  0  0  0  0
    3.0683   -2.1583    1.4280 H   0  0  0  0  0  0  0  0  0  0  0  0
    4.2550   -0.8834    1.8231 H   0  0  0  0  0  0  0  0  0  0  0  0
    1.6980   -0.0090    2.4409 H   0  0  0  0  0  0  0  0  0  0  0  0
    1.7266    2.7714    0.1130 H   0  0  0  0  0  0  0  0  0  0  0  0
    3.6645    1.1552   -1.2657 H   0  0  0  0  0  0  0  0  0  0  0  0
    4.5997    1.0549    0.2561 H   0  0  0  0  0  0  0  0  0  0  0  0
  1 12  1  0  0  0  0
  1 10  1  0  0  0  0
  2  1  1  6  0  0  0
  2  7  1  0  0  0  0
  2  6  1  0  0  0  0
  3  4  1  0  0  0  0
  3  2  1  0  0  0  0
  4 13  1  6  0  0  0
  4  5  1  0  0  0  0
  5 14  1  0  0  0  0
  5  6  1  0  0  0  0
  5 15  1  0  0  0  0
  6 16  1  1  0  0  0
  7  8  1  1  0  0  0
  7  6  1  0  0  0  0
  9  4  1  0  0  0  0
  9 19  1  0  0  0  0
  9  7  1  0  0  0  0
 11  1  1  0  0  0  0
 17  8  1  0  0  0  0
 18  9  1  0  0  0  0
M TOR 0 0 1 2 3
M TOR 1 0 1 5 4
M TOR 2 0 1 5 6
M TOR 3 0 1 5 15
M TOR 4 0 1 6 7
M TOR 5 0 1 6 8
M TOR 6 1 2 3 4
M TOR 7 1 2 3 8
M TOR 8 1 2 3 12
M TOR 9 1 5 4 3
M TOR 10 1 5 4 13
M TOR 11 1 5 4 14
M TOR 12 1 5 6 7
M TOR 13 1 5 6 8
M TOR 14 1 6 5 4
M TOR 15 1 6 5 15
M TOR 16 1 6 7 16
M TOR 17 1 6 8 3
M TOR 18 1 6 8 17
M TOR 19 1 6 8 18
M TOR 20 2 1 0 9
M TOR 21 2 1 0 10
M TOR 22 2 1 0 11
M TOR 23 2 1 5 4
M TOR 24 2 1 5 6
M TOR 25 2 1 5 15
M TOR 26 2 1 6 7
M TOR 27 2 1 6 8
M TOR 28 2 3 4 5
M TOR 29 2 3 4 13
M TOR 30 2 3 4 14
M TOR 31 2 3 8 6
M TOR 32 2 3 8 17
M TOR 33 2 3 8 18
M TOR 34 3 2 1 5
M TOR 35 3 2 1 6
M TOR 36 3 4 5 6
M TOR 37 3 4 5 15
M TOR 38 3 8 6 5
M TOR 39 3 8 6 7
M TOR 40 4 3 8 6
M TOR 41 4 3 8 17
M TOR 42 4 3 8 18
M TOR 43 4 5 6 7
M TOR 44 4 5 6 8
M TOR 45 5 1 0 9
M TOR 46 5 1 0 10
M TOR 47 5 1 0 11
M TOR 48 5 4 3 8
M TOR 49 5 4 3 12
M TOR 50 5 6 7 16
M TOR 51 5 6 8 17
M TOR 52 5 6 8 18
M TOR 53 6 1 0 9
M TOR 54 6 1 0 10
M TOR 55 6 1 0 11
M TOR 56 6 5 4 13
M TOR 57 6 5 4 14
M TOR 58 6 8 3 12
M TOR 59 7 6 5 15
M TOR 60 7 6 8 17
M TOR 61 7 6 8 18
M TOR 62 8 3 4 13
M TOR 63 8 3 4 14
M TOR 64 8 6 5 15
M TOR 65 8 6 7 16
M  END
$$$$
