gdb 4632	3.4075304	0.634708	0.5602087	3.357	81.5	-0.25235	-0.02746	0.22489000000000003	1980.0142	0.153358	-422.547263	-422.536374	-422.53543	-422.586869	36.748
 OpenBabel02181911413D

 19 18  0  0  0  0  0  0  0  0999 V2000
    0.2043   -0.0641   -0.4772 C   0  0  0  0  0  0  0  0  0  0  0  0
    1.6746   -0.0367   -0.0215 C   0  0  0  0  0  0  0  0  0  0  0  0
    2.1608    1.3088    0.2676 C   0  0  0  0  0  0  0  0  0  0  0  0
    2.5410    2.4276    0.5013 C   0  0  0  0  0  0  0  0  0  0  0  0
    3.0055    3.7765    0.7938 C   0  0  0  0  0  0  0  0  0  0  0  0
    4.0382    4.3642   -0.1736 C   0  0  0  0  0  0  0  0  0  0  0  0
    4.5831    5.4180    0.0707 O   0  0  0  0  0  0  0  0  0  0  0  0
    4.3659    3.6274   -1.4583 C   0  0  0  0  0  0  0  0  0  0  0  0
    5.2874    4.3374   -2.2286 O   0  0  0  0  0  0  0  0  0  0  0  0
   -0.4496    0.3524    0.2937 H   0  0  0  0  0  0  0  0  0  0  0  0
    0.0687    0.5238   -1.3890 H   0  0  0  0  0  0  0  0  0  0  0  0
   -0.1115   -1.0917   -0.6791 H   0  0  0  0  0  0  0  0  0  0  0  0
    1.7951   -0.6636    0.8712 H   0  0  0  0  0  0  0  0  0  0  0  0
    2.3076   -0.4909   -0.7945 H   0  0  0  0  0  0  0  0  0  0  0  0
    2.1630    4.4821    0.8007 H   0  0  0  0  0  0  0  0  0  0  0  0
    3.4437    3.8395    1.7974 H   0  0  0  0  0  0  0  0  0  0  0  0
    4.7404    2.6266   -1.1874 H   0  0  0  0  0  0  0  0  0  0  0  0
    3.4240    3.4528   -2.0040 H   0  0  0  0  0  0  0  0  0  0  0  0
    5.4927    5.1324   -1.7108 H   0  0  0  0  0  0  0  0  0  0  0  0
  1  2  1  0  0  0  0
  1 10  1  0  0  0  0
  2  3  1  0  0  0  0
  2 13  1  0  0  0  0
  3  4  3  0  0  0  0
  4  5  1  0  0  0  0
  5 15  1  0  0  0  0
  5 16  1  0  0  0  0
  6  7  2  0  0  0  0
  6  5  1  0  0  0  0
  8 17  1  0  0  0  0
  8  6  1  0  0  0  0
  9 19  1  0  0  0  0
  9  8  1  0  0  0  0
 11  1  1  0  0  0  0
 12  1  1  0  0  0  0
 14  2  1  0  0  0  0
 18  8  1  0  0  0  0
M TOR 0 0 1 2 3
M TOR 1 1 2 3 4
M TOR 2 2 1 0 9
M TOR 3 2 1 0 10
M TOR 4 2 1 0 11
M TOR 5 2 3 4 5
M TOR 6 2 3 4 14
M TOR 7 2 3 4 15
M TOR 8 3 2 1 12
M TOR 9 3 2 1 13
M TOR 10 3 4 5 6
M TOR 11 3 4 5 7
M TOR 12 4 5 7 8
M TOR 13 4 5 7 16
M TOR 14 4 5 7 17
M TOR 15 5 7 8 18
M TOR 16 6 5 4 14
M TOR 17 6 5 4 15
M TOR 18 6 5 7 8
M TOR 19 6 5 7 16
M TOR 20 6 5 7 17
M TOR 21 7 5 4 14
M TOR 22 7 5 4 15
M  END
$$$$
