
     RDKit          3D

 19 20  0  0  0  0  0  0  0  0999 V2000
    2.3323    1.5472    0.1221 C   0  0  0  0  0  0  0  0  0  0  0  0
    1.5711    0.2486    0.2891 C   0  0  0  0  0  0  0  0  0  0  0  0
    1.7804   -0.8306   -0.7310 C   0  0  0  0  0  0  0  0  0  0  0  0
    0.8327   -2.0067   -0.4631 C   0  0  0  0  0  0  0  0  0  0  0  0
    1.4908   -2.2062    0.9583 C   0  0  0  0  0  0  0  0  0  0  0  0
    2.2318   -3.3900    1.0359 O   0  0  0  0  0  0  0  0  0  0  0  0
    0.5742   -2.1096    2.1557 C   0  0  0  0  0  0  0  0  0  0  0  0
    0.5175   -2.9852    2.9884 O   0  0  0  0  0  0  0  0  0  0  0  0
    2.3761   -0.9715    0.6713 C   0  0  0  0  0  0  0  0  0  0  0  0
    2.4646    2.0569    1.0823 H   0  0  0  0  0  0  0  0  0  0  0  0
    3.3272    1.3694   -0.2996 H   0  0  0  0  0  0  0  0  0  0  0  0
    1.8022    2.2296   -0.5507 H   0  0  0  0  0  0  0  0  0  0  0  0
    0.5694    0.3761    0.6978 H   0  0  0  0  0  0  0  0  0  0  0  0
    2.2888   -0.6389   -1.6681 H   0  0  0  0  0  0  0  0  0  0  0  0
   -0.2405   -1.7904   -0.5124 H   0  0  0  0  0  0  0  0  0  0  0  0
    1.0543   -2.8982   -1.0508 H   0  0  0  0  0  0  0  0  0  0  0  0
    1.9207   -3.8375    1.8395 H   0  0  0  0  0  0  0  0  0  0  0  0
   -0.0461   -1.1969    2.2393 H   0  0  0  0  0  0  0  0  0  0  0  0
    3.4068   -0.9056    0.9992 H   0  0  0  0  0  0  0  0  0  0  0  0
  1  2  1  0
  2  3  1  0
  3  4  1  0
  4  5  1  0
  5  6  1  0
  5  7  1  0
  7  8  2  0
  5  9  1  0
  9  2  1  0
  9  3  1  0
  1 10  1  0
  1 11  1  0
  1 12  1  0
  2 13  1  0
  3 14  1  0
  4 15  1  0
  4 16  1  0
  6 17  1  0
  7 18  1  0
  9 19  1  0
M  END
$$$$
