
     RDKit          3D

 19 21  0  0  0  0  0  0  0  0999 V2000
    0.5417    0.1565   -0.1360 O   0  0  0  0  0  0  0  0  0  0  0  0
   -0.4762    0.4238    0.7840 C   0  0  0  0  0  0  0  0  0  0  0  0
   -1.9242    0.2601    0.4099 C   0  0  0  0  0  0  0  0  0  0  0  0
   -3.0575    1.1298    0.9613 C   0  0  0  0  0  0  0  0  0  0  0  0
   -3.3134    0.8152    2.4450 C   0  0  0  0  0  0  0  0  0  0  0  0
   -2.0309    0.8715    3.2947 C   0  0  0  0  0  0  0  0  0  0  0  0
   -1.8906   -0.5811    2.7921 C   0  0  0  0  0  0  0  0  0  0  0  0
   -3.3480   -0.6297    2.6255 O   0  0  0  0  0  0  0  0  0  0  0  0
   -1.2723   -0.6962    1.4110 C   0  0  0  0  0  0  0  0  0  0  0  0
    0.2274   -0.5049   -0.7607 H   0  0  0  0  0  0  0  0  0  0  0  0
   -0.1781    1.2664    1.3975 H   0  0  0  0  0  0  0  0  0  0  0  0
   -2.0890   -0.1293   -0.5918 H   0  0  0  0  0  0  0  0  0  0  0  0
   -2.8580    2.2017    0.8326 H   0  0  0  0  0  0  0  0  0  0  0  0
   -3.9751    0.9062    0.4074 H   0  0  0  0  0  0  0  0  0  0  0  0
   -4.2185    1.3005    2.8199 H   0  0  0  0  0  0  0  0  0  0  0  0
   -1.2628    1.6118    3.0675 H   0  0  0  0  0  0  0  0  0  0  0  0
   -2.2593    0.8920    4.3612 H   0  0  0  0  0  0  0  0  0  0  0  0
   -1.5345   -1.3431    3.4887 H   0  0  0  0  0  0  0  0  0  0  0  0
   -1.0470   -1.7051    1.0763 H   0  0  0  0  0  0  0  0  0  0  0  0
  1  2  1  0
  2  3  1  0
  3  4  1  0
  4  5  1  0
  5  6  1  0
  6  7  1  0
  7  8  1  0
  7  9  1  0
  9  2  1  0
  9  3  1  0
  8  5  1  0
  1 10  1  0
  2 11  1  0
  3 12  1  0
  4 13  1  0
  4 14  1  0
  5 15  1  0
  6 16  1  0
  6 17  1  0
  7 18  1  0
  9 19  1  0
M  END
$$$$
