gdb 64	4.8614347	0.7441687	0.6788669	1.5818	79.59	-0.20996	0.02439	0.23435	1661.9657	0.156243	-422.587934	-422.578352	-422.577408	-422.623269	33.832
 OpenBabel02181911403D

 19 19  0  0  0  0  0  0  0  0999 V2000
   -5.3323   -1.1306   -0.7481 C   0  0  0  0  0  0  0  0  0  0  0  0
   -4.1574   -0.2409   -0.5542 C   0  0  0  0  0  0  0  0  0  0  0  0
   -2.8725   -0.2729   -0.9988 C   0  0  0  0  0  0  0  0  0  0  0  0
   -2.2096    0.8903   -0.4664 C   0  0  0  0  0  0  0  0  0  0  0  0
   -0.7792    1.2938   -0.6562 C   0  0  0  0  0  0  0  0  0  0  0  0
    0.1961    0.3796    0.0882 C   0  0  0  0  0  0  0  0  0  0  0  0
    1.5106    0.8365   -0.1886 O   0  0  0  0  0  0  0  0  0  0  0  0
   -3.1583    1.5330    0.2643 C   0  0  0  0  0  0  0  0  0  0  0  0
   -4.3449    0.8643    0.2232 O   0  0  0  0  0  0  0  0  0  0  0  0
   -5.6992   -1.5270    0.2057 H   0  0  0  0  0  0  0  0  0  0  0  0
   -6.1655   -0.5996   -1.2225 H   0  0  0  0  0  0  0  0  0  0  0  0
   -5.0576   -1.9740   -1.3854 H   0  0  0  0  0  0  0  0  0  0  0  0
   -2.4418   -1.0285   -1.6388 H   0  0  0  0  0  0  0  0  0  0  0  0
   -0.5115    1.2794   -1.7196 H   0  0  0  0  0  0  0  0  0  0  0  0
   -0.6242    2.3201   -0.3072 H   0  0  0  0  0  0  0  0  0  0  0  0
   -0.0258    0.4115    1.1664 H   0  0  0  0  0  0  0  0  0  0  0  0
    0.0544   -0.6616   -0.2428 H   0  0  0  0  0  0  0  0  0  0  0  0
    2.1305    0.2762    0.2869 H   0  0  0  0  0  0  0  0  0  0  0  0
   -3.1516    2.4430    0.8423 H   0  0  0  0  0  0  0  0  0  0  0  0
  1  2  1  0  0  0  0
  1 10  1  0  0  0  0
  2  9  1  0  0  0  0
  3  2  2  0  0  0  0
  3  4  1  0  0  0  0
  4  8  2  0  0  0  0
  5  4  1  0  0  0  0
  5 15  1  0  0  0  0
  5  6  1  0  0  0  0
  6 16  1  0  0  0  0
  7  6  1  0  0  0  0
  7 18  1  0  0  0  0
  8 19  1  0  0  0  0
  9  8  1  0  0  0  0
 11  1  1  0  0  0  0
 12  1  1  0  0  0  0
 13  3  1  0  0  0  0
 14  5  1  0  0  0  0
 17  6  1  0  0  0  0
M TOR 0 0 1 2 3
M TOR 1 0 1 2 12
M TOR 2 0 1 8 7
M TOR 3 1 2 3 4
M TOR 4 1 2 3 7
M TOR 5 1 8 7 3
M TOR 6 1 8 7 18
M TOR 7 2 1 0 9
M TOR 8 2 1 0 10
M TOR 9 2 1 0 11
M TOR 10 2 1 8 7
M TOR 11 2 3 4 5
M TOR 12 2 3 4 13
M TOR 13 2 3 4 14
M TOR 14 2 3 7 8
M TOR 15 2 3 7 18
M TOR 16 3 2 1 8
M TOR 17 3 4 5 6
M TOR 18 3 4 5 15
M TOR 19 3 4 5 16
M TOR 20 4 3 2 12
M TOR 21 4 3 7 8
M TOR 22 4 3 7 18
M TOR 23 4 5 6 17
M TOR 24 5 4 3 7
M TOR 25 6 5 4 13
M TOR 26 6 5 4 14
M TOR 27 7 3 2 12
M TOR 28 7 3 4 13
M TOR 29 7 3 4 14
M TOR 30 8 1 0 9
M TOR 31 8 1 0 10
M TOR 32 8 1 0 11
M TOR 33 8 1 2 12
M  END
$$$$
