gdb 1685	2.4279866	1.3680225	1.0529148	3.2163	75.33	-0.23319	-0.01679	0.2164	1183.1936	0.154877	-422.530901	-422.521688	-422.520743	-422.565793	33.503
 OpenBabel02181911403D

 19 20  0  0  1  0  0  0  0  0999 V2000
   -2.3166    1.4081   -0.2265 O   0  0  0  0  0  0  0  0  0  0  0  0
   -1.1023    1.7535   -0.8561 C   0  0  1  0  0  0  0  0  0  0  0  0
   -0.2905    0.4852   -1.0487 C   0  0  0  0  0  0  0  0  0  0  0  0
    0.2796    0.0014    0.2686 C   0  0  0  0  0  0  0  0  0  0  0  0
    1.4516   -0.1972    0.4682 O   0  0  0  0  0  0  0  0  0  0  0  0
   -1.1945    2.8794   -1.8533 C   0  0  2  0  0  0  0  0  0  0  0  0
    0.1397    3.1701   -2.5455 C   0  0  0  0  0  0  0  0  0  0  0  0
    0.8186    3.3567   -1.1469 C   0  0  0  0  0  0  0  0  0  0  0  0
   -0.5292    3.0875   -0.4667 C   0  0  2  0  0  0  0  0  0  0  0  0
   -2.7433    2.2112    0.0902 H   0  0  0  0  0  0  0  0  0  0  0  0
   -0.9673   -0.2837   -1.4443 H   0  0  0  0  0  0  0  0  0  0  0  0
    0.5305    0.6222   -1.7533 H   0  0  0  0  0  0  0  0  0  0  0  0
   -0.4758   -0.1454    1.0706 H   0  0  0  0  0  0  0  0  0  0  0  0
   -2.1723    3.1929   -2.2036 H   0  0  0  0  0  0  0  0  0  0  0  0
    0.5356    2.3841   -3.1965 H   0  0  0  0  0  0  0  0  0  0  0  0
    0.1178    4.1027   -3.1133 H   0  0  0  0  0  0  0  0  0  0  0  0
    1.6298    2.6697   -0.8888 H   0  0  0  0  0  0  0  0  0  0  0  0
    1.1698    4.3790   -0.9945 H   0  0  0  0  0  0  0  0  0  0  0  0
   -0.9011    3.6071    0.4114 H   0  0  0  0  0  0  0  0  0  0  0  0
  1 10  1  0  0  0  0
  2  9  1  0  0  0  0
  2  1  1  1  0  0  0
  3  2  1  0  0  0  0
  3  4  1  0  0  0  0
  4  5  2  0  0  0  0
  4 13  1  0  0  0  0
  6 14  1  6  0  0  0
  6  2  1  0  0  0  0
  6  9  1  0  0  0  0
  7  6  1  0  0  0  0
  7  8  1  0  0  0  0
  8 18  1  0  0  0  0
  8 17  1  0  0  0  0
  8  9  1  0  0  0  0
  9 19  1  1  0  0  0
 11  3  1  0  0  0  0
 12  3  1  0  0  0  0
 15  7  1  0  0  0  0
 16  7  1  0  0  0  0
M TOR 0 0 1 2 3
M TOR 1 0 1 2 10
M TOR 2 0 1 2 11
M TOR 3 0 1 5 6
M TOR 4 0 1 5 8
M TOR 5 0 1 5 13
M TOR 6 0 1 8 7
M TOR 7 0 1 8 18
M TOR 8 1 2 3 4
M TOR 9 1 2 3 12
M TOR 10 1 5 6 7
M TOR 11 1 5 6 14
M TOR 12 1 5 6 15
M TOR 13 1 5 8 7
M TOR 14 1 5 8 18
M TOR 15 1 8 5 6
M TOR 16 1 8 5 13
M TOR 17 1 8 7 6
M TOR 18 1 8 7 16
M TOR 19 1 8 7 17
M TOR 20 2 1 0 9
M TOR 21 2 1 5 6
M TOR 22 2 1 5 8
M TOR 23 2 1 5 13
M TOR 24 2 1 8 7
M TOR 25 2 1 8 18
M TOR 26 3 2 1 5
M TOR 27 3 2 1 8
M TOR 28 4 3 2 10
M TOR 29 4 3 2 11
M TOR 30 5 1 0 9
M TOR 31 5 1 2 10
M TOR 32 5 1 2 11
M TOR 33 5 6 7 8
M TOR 34 5 6 7 16
M TOR 35 5 6 7 17
M TOR 36 5 8 7 16
M TOR 37 5 8 7 17
M TOR 38 6 5 8 18
M TOR 39 6 7 8 18
M TOR 40 7 6 5 13
M TOR 41 7 8 5 13
M TOR 42 8 1 0 9
M TOR 43 8 1 2 10
M TOR 44 8 1 2 11
M TOR 45 8 5 6 14
M TOR 46 8 5 6 15
M TOR 47 8 7 6 14
M TOR 48 8 7 6 15
M  END
$$$$
