
     RDKit          3D

 19 21  0  0  0  0  0  0  0  0999 V2000
    0.0312   -0.1129    0.2548 C   0  0  0  0  0  0  0  0  0  0  0  0
    1.4953    0.0442   -0.1330 C   0  0  0  0  0  0  0  0  0  0  0  0
    1.8127    1.4447   -0.1838 O   0  0  0  0  0  0  0  0  0  0  0  0
    2.6364    1.7088   -1.2998 C   0  0  0  0  0  0  0  0  0  0  0  0
    4.0047    1.5235   -0.9955 O   0  0  0  0  0  0  0  0  0  0  0  0
    4.3333    0.1429   -1.1649 C   0  0  0  0  0  0  0  0  0  0  0  0
    3.2400   -0.4512   -2.0446 C   0  0  0  0  0  0  0  0  0  0  0  0
    1.8121   -0.4961   -1.5262 C   0  0  0  0  0  0  0  0  0  0  0  0
    2.2806    0.6599   -2.3624 C   0  0  0  0  0  0  0  0  0  0  0  0
   -0.1659    0.4106    1.1940 H   0  0  0  0  0  0  0  0  0  0  0  0
   -0.6176    0.3102   -0.5183 H   0  0  0  0  0  0  0  0  0  0  0  0
   -0.2225   -1.1695    0.3886 H   0  0  0  0  0  0  0  0  0  0  0  0
    2.1272   -0.4310    0.6321 H   0  0  0  0  0  0  0  0  0  0  0  0
    2.5011    2.7563   -1.5706 H   0  0  0  0  0  0  0  0  0  0  0  0
    5.3125    0.0799   -1.6519 H   0  0  0  0  0  0  0  0  0  0  0  0
    4.4078   -0.3523   -0.1867 H   0  0  0  0  0  0  0  0  0  0  0  0
    3.5220   -1.1809   -2.7947 H   0  0  0  0  0  0  0  0  0  0  0  0
    1.1557   -1.2557   -1.9361 H   0  0  0  0  0  0  0  0  0  0  0  0
    1.9181    0.9263   -3.3458 H   0  0  0  0  0  0  0  0  0  0  0  0
  1  2  1  0
  2  3  1  0
  3  4  1  0
  4  5  1  0
  5  6  1  0
  6  7  1  0
  7  8  1  0
  8  9  1  0
  8  2  1  0
  9  4  1  0
  9  7  1  0
  1 10  1  0
  1 11  1  0
  1 12  1  0
  2 13  1  0
  4 14  1  0
  6 15  1  0
  6 16  1  0
  7 17  1  0
  8 18  1  0
  9 19  1  0
M  END
$$$$
