
     RDKit          3D

 19 19  0  0  0  0  0  0  0  0999 V2000
   -3.9631    3.5818    2.1783 C   0  0  0  0  0  0  0  0  0  0  0  0
   -3.0202    2.9159    1.2279 C   0  0  0  0  0  0  0  0  0  0  0  0
   -3.3042    2.3735    0.0421 C   0  0  0  0  0  0  0  0  0  0  0  0
   -2.0866    1.8232   -0.6563 C   0  0  0  0  0  0  0  0  0  0  0  0
   -0.9990    1.8616    0.4429 C   0  0  0  0  0  0  0  0  0  0  0  0
   -1.5373    2.8160    1.5240 C   0  0  0  0  0  0  0  0  0  0  0  0
   -0.8737    0.5558    1.0710 O   0  0  0  0  0  0  0  0  0  0  0  0
   -0.0689   -0.3233    0.4641 C   0  0  0  0  0  0  0  0  0  0  0  0
    0.5481   -0.1466   -0.5517 O   0  0  0  0  0  0  0  0  0  0  0  0
   -3.9646    3.0774    3.1531 H   0  0  0  0  0  0  0  0  0  0  0  0
   -3.6673    4.6217    2.3684 H   0  0  0  0  0  0  0  0  0  0  0  0
   -4.9871    3.5854    1.7955 H   0  0  0  0  0  0  0  0  0  0  0  0
   -4.2932    2.3463   -0.4026 H   0  0  0  0  0  0  0  0  0  0  0  0
   -2.2180    0.8088   -1.0459 H   0  0  0  0  0  0  0  0  0  0  0  0
   -1.7922    2.4450   -1.5126 H   0  0  0  0  0  0  0  0  0  0  0  0
   -0.0176    2.1337    0.0552 H   0  0  0  0  0  0  0  0  0  0  0  0
   -1.3186    2.4286    2.5253 H   0  0  0  0  0  0  0  0  0  0  0  0
   -1.0550    3.8008    1.4555 H   0  0  0  0  0  0  0  0  0  0  0  0
   -0.0555   -1.2531    1.0550 H   0  0  0  0  0  0  0  0  0  0  0  0
  1  2  1  0
  2  3  2  0
  3  4  1  0
  4  5  1  0
  5  6  1  0
  5  7  1  0
  7  8  1  0
  8  9  2  0
  6  2  1  0
  1 10  1  0
  1 11  1  0
  1 12  1  0
  3 13  1  0
  4 14  1  0
  4 15  1  0
  5 16  1  0
  6 17  1  0
  6 18  1  0
  8 19  1  0
M  END
$$$$
