
     RDKit          3D

 19 19  0  0  0  0  0  0  0  0999 V2000
    3.9879    1.9730   -1.7160 C   0  0  0  0  0  0  0  0  0  0  0  0
    3.3402    0.5764   -1.7335 C   0  0  0  0  0  0  0  0  0  0  0  0
    2.3355    0.3954   -0.6913 C   0  0  0  0  0  0  0  0  0  0  0  0
    1.4987    0.2715    0.1658 C   0  0  0  0  0  0  0  0  0  0  0  0
    0.5324    0.0922    1.2357 C   0  0  0  0  0  0  0  0  0  0  0  0
   -0.7448    0.4457    0.7511 O   0  0  0  0  0  0  0  0  0  0  0  0
    0.6396   -1.2646    2.0032 C   0  0  0  0  0  0  0  0  0  0  0  0
    1.1033   -0.6088    3.1957 O   0  0  0  0  0  0  0  0  0  0  0  0
    0.9488    0.6971    2.6147 C   0  0  0  0  0  0  0  0  0  0  0  0
    4.4863    2.1584   -0.7607 H   0  0  0  0  0  0  0  0  0  0  0  0
    4.7306    2.0577   -2.5147 H   0  0  0  0  0  0  0  0  0  0  0  0
    3.2345    2.7518   -1.8607 H   0  0  0  0  0  0  0  0  0  0  0  0
    2.8773    0.3971   -2.7122 H   0  0  0  0  0  0  0  0  0  0  0  0
    4.1169   -0.1913   -1.6231 H   0  0  0  0  0  0  0  0  0  0  0  0
   -1.3761    0.3264    1.4698 H   0  0  0  0  0  0  0  0  0  0  0  0
   -0.3342   -1.7558    2.1425 H   0  0  0  0  0  0  0  0  0  0  0  0
    1.3626   -1.9878    1.6139 H   0  0  0  0  0  0  0  0  0  0  0  0
    0.1432    1.2772    3.0874 H   0  0  0  0  0  0  0  0  0  0  0  0
    1.8767    1.2771    2.6325 H   0  0  0  0  0  0  0  0  0  0  0  0
  1  2  1  0
  2  3  1  0
  3  4  3  0
  4  5  1  0
  5  6  1  0
  5  7  1  0
  7  8  1  0
  8  9  1  0
  9  5  1  0
  1 10  1  0
  1 11  1  0
  1 12  1  0
  2 13  1  0
  2 14  1  0
  6 15  1  0
  7 16  1  0
  7 17  1  0
  9 18  1  0
  9 19  1  0
M  END
$$$$
