
     RDKit          3D

 19 21  0  0  0  0  0  0  0  0999 V2000
    0.0122    0.0892    0.0895 C   0  0  0  0  0  0  0  0  0  0  0  0
    1.5203    0.0352    0.1142 C   0  0  0  0  0  0  0  0  0  0  0  0
    2.0556   -0.7114   -1.0656 O   0  0  0  0  0  0  0  0  0  0  0  0
    2.9771   -1.3156   -0.1607 C   0  0  0  0  0  0  0  0  0  0  0  0
    3.5582   -2.5914    0.4742 C   0  0  0  0  0  0  0  0  0  0  0  0
    3.6423   -1.3490    1.5438 C   0  0  0  0  0  0  0  0  0  0  0  0
    4.2102   -1.3782    2.7959 O   0  0  0  0  0  0  0  0  0  0  0  0
    4.1898   -0.4997    0.4029 C   0  0  0  0  0  0  0  0  0  0  0  0
    2.1666   -1.0206    1.0884 C   0  0  0  0  0  0  0  0  0  0  0  0
   -0.3574    0.6240    0.9710 H   0  0  0  0  0  0  0  0  0  0  0  0
   -0.3355    0.6139   -0.8056 H   0  0  0  0  0  0  0  0  0  0  0  0
   -0.4132   -0.9183    0.0832 H   0  0  0  0  0  0  0  0  0  0  0  0
    1.9558    1.0381    0.1309 H   0  0  0  0  0  0  0  0  0  0  0  0
    2.8484   -3.3864    0.7131 H   0  0  0  0  0  0  0  0  0  0  0  0
    4.5211   -2.9776    0.1283 H   0  0  0  0  0  0  0  0  0  0  0  0
    3.6859   -1.9588    3.3582 H   0  0  0  0  0  0  0  0  0  0  0  0
    4.0660    0.5794    0.4964 H   0  0  0  0  0  0  0  0  0  0  0  0
    5.1780   -0.7647    0.0226 H   0  0  0  0  0  0  0  0  0  0  0  0
    1.4301   -1.7889    1.3425 H   0  0  0  0  0  0  0  0  0  0  0  0
  1  2  1  0
  2  3  1  0
  3  4  1  0
  4  5  1  0
  5  6  1  0
  6  7  1  0
  6  8  1  0
  6  9  1  0
  9  2  1  0
  8  4  1  0
  9  4  1  0
  1 10  1  0
  1 11  1  0
  1 12  1  0
  2 13  1  0
  5 14  1  0
  5 15  1  0
  7 16  1  0
  8 17  1  0
  8 18  1  0
  9 19  1  0
M  END
$$$$
