gdb 1502	2.5826705	1.5096635	1.2444056	3.0463	74.65	-0.24183	-0.02925	0.21258	1082.1846	0.155705	-422.576897	-422.568294	-422.56735	-422.609724	32.986
 OpenBabel02181911403D

 19 20  0  0  1  0  0  0  0  0999 V2000
   -2.9578   -1.1300   -1.1707 C   0  0  0  0  0  0  0  0  0  0  0  0
   -2.3039   -0.7915    0.1792 C   0  0  0  0  0  0  0  0  0  0  0  0
   -3.1285   -1.3535    1.3432 C   0  0  0  0  0  0  0  0  0  0  0  0
   -0.8241   -1.2726    0.2061 C   0  0  0  0  0  0  0  0  0  0  0  0
    0.0137   -0.0896   -0.2923 C   0  0  0  0  0  0  0  0  0  0  0  0
    1.0688   -0.1380   -0.8702 O   0  0  0  0  0  0  0  0  0  0  0  0
   -0.7801    1.1588   -0.0024 C   0  0  2  0  0  0  0  0  0  0  0  0
   -1.3028    1.1435    1.3440 O   0  0  0  0  0  0  0  0  0  0  0  0
   -2.1610    0.7297    0.2886 C   0  0  2  0  0  0  0  0  0  0  0  0
   -3.0564   -2.2135   -1.2901 H   0  0  0  0  0  0  0  0  0  0  0  0
   -3.9602   -0.6938   -1.2432 H   0  0  0  0  0  0  0  0  0  0  0  0
   -2.3658   -0.7531   -2.0120 H   0  0  0  0  0  0  0  0  0  0  0  0
   -3.1535   -2.4477    1.3111 H   0  0  0  0  0  0  0  0  0  0  0  0
   -2.7002   -1.0481    2.3023 H   0  0  0  0  0  0  0  0  0  0  0  0
   -4.1634   -0.9955    1.3027 H   0  0  0  0  0  0  0  0  0  0  0  0
   -0.5062   -1.5108    1.2267 H   0  0  0  0  0  0  0  0  0  0  0  0
   -0.6412   -2.1534   -0.4128 H   0  0  0  0  0  0  0  0  0  0  0  0
   -0.4936    2.1245   -0.4051 H   0  0  0  0  0  0  0  0  0  0  0  0
   -3.0134    1.3775    0.0916 H   0  0  0  0  0  0  0  0  0  0  0  0
  1  2  1  0  0  0  0
  2  4  1  0  0  0  0
  2  9  1  0  0  0  0
  2  3  1  0  0  0  0
  3 14  1  0  0  0  0
  4 16  1  0  0  0  0
  5  7  1  0  0  0  0
  5  4  1  0  0  0  0
  6  5  2  0  0  0  0
  7 18  1  6  0  0  0
  7  9  1  0  0  0  0
  7  8  1  0  0  0  0
  9 19  1  6  0  0  0
  9  8  1  0  0  0  0
 10  1  1  0  0  0  0
 11  1  1  0  0  0  0
 12  1  1  0  0  0  0
 13  3  1  0  0  0  0
 15  3  1  0  0  0  0
 17  4  1  0  0  0  0
M TOR 0 0 1 2 12
M TOR 1 0 1 2 13
M TOR 2 0 1 2 14
M TOR 3 0 1 3 4
M TOR 4 0 1 3 15
M TOR 5 0 1 3 16
M TOR 6 0 1 8 6
M TOR 7 0 1 8 7
M TOR 8 0 1 8 18
M TOR 9 1 3 4 5
M TOR 10 1 3 4 6
M TOR 11 1 8 6 4
M TOR 12 1 8 6 7
M TOR 13 1 8 6 17
M TOR 14 2 1 0 9
M TOR 15 2 1 0 10
M TOR 16 2 1 0 11
M TOR 17 2 1 3 4
M TOR 18 2 1 3 15
M TOR 19 2 1 3 16
M TOR 20 2 1 8 6
M TOR 21 2 1 8 7
M TOR 22 2 1 8 18
M TOR 23 3 1 0 9
M TOR 24 3 1 0 10
M TOR 25 3 1 0 11
M TOR 26 3 1 2 12
M TOR 27 3 1 2 13
M TOR 28 3 1 2 14
M TOR 29 3 1 8 6
M TOR 30 3 1 8 7
M TOR 31 3 1 8 18
M TOR 32 3 4 6 7
M TOR 33 3 4 6 8
M TOR 34 3 4 6 17
M TOR 35 4 3 1 8
M TOR 36 4 6 7 8
M TOR 37 4 6 8 18
M TOR 38 5 4 3 15
M TOR 39 5 4 3 16
M TOR 40 5 4 6 7
M TOR 41 5 4 6 8
M TOR 42 5 4 6 17
M TOR 43 6 4 3 15
M TOR 44 6 4 3 16
M TOR 45 6 7 8 18
M TOR 46 7 8 6 17
M TOR 47 8 1 0 9
M TOR 48 8 1 0 10
M TOR 49 8 1 0 11
M TOR 50 8 1 2 12
M TOR 51 8 1 2 13
M TOR 52 8 1 2 14
M TOR 53 8 1 3 15
M TOR 54 8 1 3 16
M  END
$$$$
