
     RDKit          3D

 19 20  0  0  0  0  0  0  0  0999 V2000
   -2.0890   -2.9416   -1.1147 O   0  0  0  0  0  0  0  0  0  0  0  0
   -1.1988   -1.8506   -1.3207 C   0  0  0  0  0  0  0  0  0  0  0  0
   -1.9063   -0.8704   -2.2662 C   0  0  0  0  0  0  0  0  0  0  0  0
   -2.8597   -0.0756   -1.3499 C   0  0  0  0  0  0  0  0  0  0  0  0
   -2.0782    0.1143   -0.0390 C   0  0  0  0  0  0  0  0  0  0  0  0
   -0.9462    1.1915   -0.0666 C   0  0  0  0  0  0  0  0  0  0  0  0
    0.0864    0.0554   -0.1052 C   0  0  0  0  0  0  0  0  0  0  0  0
    1.2808    0.0151   -0.1848 O   0  0  0  0  0  0  0  0  0  0  0  0
   -1.0007   -1.0315   -0.0253 C   0  0  0  0  0  0  0  0  0  0  0  0
   -1.6789   -3.5498   -0.4915 H   0  0  0  0  0  0  0  0  0  0  0  0
   -0.2382   -2.2012   -1.7218 H   0  0  0  0  0  0  0  0  0  0  0  0
   -1.1606   -0.2108   -2.7249 H   0  0  0  0  0  0  0  0  0  0  0  0
   -2.4196   -1.4020   -3.0702 H   0  0  0  0  0  0  0  0  0  0  0  0
   -3.1816    0.8731   -1.7902 H   0  0  0  0  0  0  0  0  0  0  0  0
   -3.7557   -0.6730   -1.1577 H   0  0  0  0  0  0  0  0  0  0  0  0
   -2.7247    0.1825    0.8358 H   0  0  0  0  0  0  0  0  0  0  0  0
   -0.9260    1.8667   -0.9285 H   0  0  0  0  0  0  0  0  0  0  0  0
   -0.8669    1.7984    0.8410 H   0  0  0  0  0  0  0  0  0  0  0  0
   -0.9196   -1.6701    0.8590 H   0  0  0  0  0  0  0  0  0  0  0  0
  1  2  1  0
  2  3  1  0
  3  4  1  0
  4  5  1  0
  5  6  1  0
  6  7  1  0
  7  8  2  0
  7  9  1  0
  9  2  1  0
  9  5  1  0
  1 10  1  0
  2 11  1  0
  3 12  1  0
  3 13  1  0
  4 14  1  0
  4 15  1  0
  5 16  1  0
  6 17  1  0
  6 18  1  0
  9 19  1  0
M  END
$$$$
