
     RDKit          3D

 19 20  0  0  0  0  0  0  0  0999 V2000
   -0.0855    1.4460    0.0651 O   0  0  0  0  0  0  0  0  0  0  0  0
   -0.0349    0.0303    0.0328 C   0  0  0  0  0  0  0  0  0  0  0  0
   -1.4168   -0.5037   -0.1293 C   0  0  0  0  0  0  0  0  0  0  0  0
   -2.5570    0.1681   -0.2525 C   0  0  0  0  0  0  0  0  0  0  0  0
   -3.3447    1.3374    0.2739 C   0  0  0  0  0  0  0  0  0  0  0  0
   -4.3512    0.3859    0.7525 O   0  0  0  0  0  0  0  0  0  0  0  0
   -3.7718   -0.6796   -0.0806 C   0  0  0  0  0  0  0  0  0  0  0  0
   -3.2227   -1.9845    0.5182 C   0  0  0  0  0  0  0  0  0  0  0  0
   -1.7487   -1.9956   -0.0132 C   0  0  0  0  0  0  0  0  0  0  0  0
    0.8141    1.7783    0.1317 H   0  0  0  0  0  0  0  0  0  0  0  0
    0.6040   -0.3329   -0.7925 H   0  0  0  0  0  0  0  0  0  0  0  0
    0.4050   -0.3792    0.9605 H   0  0  0  0  0  0  0  0  0  0  0  0
   -2.8861    1.9191    1.0783 H   0  0  0  0  0  0  0  0  0  0  0  0
   -3.7740    2.0143   -0.4762 H   0  0  0  0  0  0  0  0  0  0  0  0
   -4.4173   -0.8427   -0.9550 H   0  0  0  0  0  0  0  0  0  0  0  0
   -3.2163   -1.8937    1.6090 H   0  0  0  0  0  0  0  0  0  0  0  0
   -3.7869   -2.8817    0.2485 H   0  0  0  0  0  0  0  0  0  0  0  0
   -1.6727   -2.5229   -0.9740 H   0  0  0  0  0  0  0  0  0  0  0  0
   -1.0654   -2.5083    0.6738 H   0  0  0  0  0  0  0  0  0  0  0  0
  1  2  1  0
  2  3  1  0
  3  4  2  0
  4  5  1  0
  5  6  1  0
  6  7  1  0
  7  8  1  0
  8  9  1  0
  9  3  1  0
  7  4  1  0
  1 10  1  0
  2 11  1  0
  2 12  1  0
  5 13  1  0
  5 14  1  0
  7 15  1  0
  8 16  1  0
  8 17  1  0
  9 18  1  0
  9 19  1  0
M  END
$$$$
