
     RDKit          3D

 19 21  0  0  0  0  0  0  0  0999 V2000
    0.9213    1.0045   -1.1786 C   0  0  0  0  0  0  0  0  0  0  0  0
    0.1452    1.2808    0.1406 C   0  0  0  0  0  0  0  0  0  0  0  0
    1.2973    1.6162    1.1012 C   0  0  0  0  0  0  0  0  0  0  0  0
    2.2361    0.4012    0.7916 C   0  0  0  0  0  0  0  0  0  0  0  0
    2.3154   -0.5000    1.8998 O   0  0  0  0  0  0  0  0  0  0  0  0
    1.2368   -1.4045    1.9453 C   0  0  0  0  0  0  0  0  0  0  0  0
    0.0092   -0.8151    1.5844 O   0  0  0  0  0  0  0  0  0  0  0  0
    0.0638   -0.2718    0.2785 C   0  0  0  0  0  0  0  0  0  0  0  0
    1.4663   -0.2156   -0.3967 C   0  0  0  0  0  0  0  0  0  0  0  0
    0.2774    0.7061   -2.0096 H   0  0  0  0  0  0  0  0  0  0  0  0
    1.6356    1.7613   -1.5126 H   0  0  0  0  0  0  0  0  0  0  0  0
   -0.7466    1.9056    0.1681 H   0  0  0  0  0  0  0  0  0  0  0  0
    1.7600    2.5792    0.8668 H   0  0  0  0  0  0  0  0  0  0  0  0
    1.0083    1.6077    2.1528 H   0  0  0  0  0  0  0  0  0  0  0  0
    3.2637    0.6904    0.5629 H   0  0  0  0  0  0  0  0  0  0  0  0
    1.4389   -2.2673    1.2882 H   0  0  0  0  0  0  0  0  0  0  0  0
    1.1423   -1.7455    2.9788 H   0  0  0  0  0  0  0  0  0  0  0  0
   -0.7144   -0.7202   -0.3464 H   0  0  0  0  0  0  0  0  0  0  0  0
    1.9161   -1.0739   -0.8946 H   0  0  0  0  0  0  0  0  0  0  0  0
  1  2  1  0
  2  3  1  0
  3  4  1  0
  4  5  1  0
  5  6  1  0
  6  7  1  0
  7  8  1  0
  8  9  1  0
  9  1  1  0
  8  2  1  0
  9  4  1  0
  1 10  1  0
  1 11  1  0
  2 12  1  0
  3 13  1  0
  3 14  1  0
  4 15  1  0
  6 16  1  0
  6 17  1  0
  8 18  1  0
  9 19  1  0
M  END
$$$$
