
     RDKit          3D

 19 18  0  0  0  0  0  0  0  0999 V2000
    4.3255    0.0749   -1.5301 C   0  0  0  0  0  0  0  0  0  0  0  0
    3.8945    0.1078   -0.0554 C   0  0  0  0  0  0  0  0  0  0  0  0
    2.4403    0.0975    0.0968 C   0  0  0  0  0  0  0  0  0  0  0  0
    1.2396    0.1037    0.2072 C   0  0  0  0  0  0  0  0  0  0  0  0
   -0.2191    0.1609    0.3102 C   0  0  0  0  0  0  0  0  0  0  0  0
   -0.8416    0.7799   -0.8060 O   0  0  0  0  0  0  0  0  0  0  0  0
    4.4849    1.3387    0.6835 C   0  0  0  0  0  0  0  0  0  0  0  0
    4.3220    1.3575    2.1898 C   0  0  0  0  0  0  0  0  0  0  0  0
    5.0553    2.2118    0.0783 O   0  0  0  0  0  0  0  0  0  0  0  0
    3.9153   -0.8090   -2.0235 H   0  0  0  0  0  0  0  0  0  0  0  0
    3.9709    0.9667   -2.0498 H   0  0  0  0  0  0  0  0  0  0  0  0
    5.4153    0.0541   -1.6042 H   0  0  0  0  0  0  0  0  0  0  0  0
    4.2919   -0.7807    0.4586 H   0  0  0  0  0  0  0  0  0  0  0  0
   -0.6341   -0.8522    0.3577 H   0  0  0  0  0  0  0  0  0  0  0  0
   -0.4969    0.6599    1.2528 H   0  0  0  0  0  0  0  0  0  0  0  0
   -0.4086    1.6289   -0.9440 H   0  0  0  0  0  0  0  0  0  0  0  0
    4.9228    0.5530    2.6311 H   0  0  0  0  0  0  0  0  0  0  0  0
    4.6582    2.3155    2.5873 H   0  0  0  0  0  0  0  0  0  0  0  0
    3.2815    1.1707    2.4695 H   0  0  0  0  0  0  0  0  0  0  0  0
  1  2  1  0
  2  3  1  0
  3  4  3  0
  4  5  1  0
  5  6  1  0
  2  7  1  0
  7  8  1  0
  7  9  2  0
  1 10  1  0
  1 11  1  0
  1 12  1  0
  2 13  1  0
  5 14  1  0
  5 15  1  0
  6 16  1  0
  8 17  1  0
  8 18  1  0
  8 19  1  0
M  END
$$$$
