gdb 4713	2.2453146	1.3253494	1.0458036	1.8871	78.06	-0.24637	0.03349	0.27986	1241.3157	0.153212	-422.492083	-422.481964	-422.481019	-422.527056	36.884
 OpenBabel02181911413D

 19 19  0  0  1  0  0  0  0  0999 V2000
    1.4473    0.0198   -0.1308 C   0  0  0  0  0  0  0  0  0  0  0  0
    0.0425    0.1321   -0.0158 O   0  0  0  0  0  0  0  0  0  0  0  0
   -0.4101    0.7469    1.1865 C   0  0  1  0  0  0  0  0  0  0  0  0
    0.0490    2.1374    1.3055 C   0  0  0  0  0  0  0  0  0  0  0  0
    0.4370    3.2699    1.4126 C   0  0  0  0  0  0  0  0  0  0  0  0
   -1.9269    0.6454    1.1372 C   0  0  0  0  0  0  0  0  0  0  0  0
   -2.4781    1.2366    0.0005 O   0  0  0  0  0  0  0  0  0  0  0  0
   -2.7292    0.7657    2.3886 C   0  0  0  0  0  0  0  0  0  0  0  0
   -2.5920   -0.5842    1.7063 C   0  0  0  0  0  0  0  0  0  0  0  0
    1.8678   -0.5843    0.6874 H   0  0  0  0  0  0  0  0  0  0  0  0
    1.6474   -0.4815   -1.0803 H   0  0  0  0  0  0  0  0  0  0  0  0
    1.9355    1.0026   -0.1286 H   0  0  0  0  0  0  0  0  0  0  0  0
   -0.0399    0.1783    2.0555 H   0  0  0  0  0  0  0  0  0  0  0  0
    0.7652    4.2758    1.5060 H   0  0  0  0  0  0  0  0  0  0  0  0
   -1.9951    0.8694   -0.7507 H   0  0  0  0  0  0  0  0  0  0  0  0
   -2.2110    0.9333    3.3265 H   0  0  0  0  0  0  0  0  0  0  0  0
   -3.6781    1.2806    2.2949 H   0  0  0  0  0  0  0  0  0  0  0  0
   -1.9807   -1.3462    2.1780 H   0  0  0  0  0  0  0  0  0  0  0  0
   -3.4533   -0.9561    1.1639 H   0  0  0  0  0  0  0  0  0  0  0  0
  1 12  1  0  0  0  0
  1  2  1  0  0  0  0
  1 10  1  0  0  0  0
  2  3  1  0  0  0  0
  3  4  1  0  0  0  0
  3 13  1  1  0  0  0
  4  5  3  0  0  0  0
  5 14  1  0  0  0  0
  6  3  1  0  0  0  0
  6  9  1  0  0  0  0
  6  8  1  0  0  0  0
  7  6  1  0  0  0  0
  8 16  1  0  0  0  0
  9 18  1  0  0  0  0
  9  8  1  0  0  0  0
 11  1  1  0  0  0  0
 15  7  1  0  0  0  0
 17  8  1  0  0  0  0
 19  9  1  0  0  0  0
M TOR 0 0 1 2 3
M TOR 1 0 1 2 5
M TOR 2 0 1 2 12
M TOR 3 1 2 3 4
M TOR 4 1 2 5 6
M TOR 5 1 2 5 7
M TOR 6 1 2 5 8
M TOR 7 2 1 0 9
M TOR 8 2 1 0 10
M TOR 9 2 1 0 11
M TOR 10 2 3 4 13
M TOR 11 2 5 6 14
M TOR 12 2 5 7 8
M TOR 13 2 5 7 15
M TOR 14 2 5 7 16
M TOR 15 2 5 8 17
M TOR 16 2 5 8 18
M TOR 17 3 2 5 6
M TOR 18 3 2 5 7
M TOR 19 3 2 5 8
M TOR 20 4 3 2 5
M TOR 21 4 3 2 12
M TOR 22 5 7 8 17
M TOR 23 5 7 8 18
M TOR 24 5 8 7 15
M TOR 25 5 8 7 16
M TOR 26 6 5 2 12
M TOR 27 6 5 7 8
M TOR 28 6 5 7 15
M TOR 29 6 5 7 16
M TOR 30 6 5 8 17
M TOR 31 6 5 8 18
M TOR 32 7 5 2 12
M TOR 33 7 5 6 14
M TOR 34 8 5 2 12
M TOR 35 8 5 6 14
M  END
$$$$
