gdb 916	4.4583991	0.7063621	0.6680599	2.7718	77.87	-0.24918	-0.0311	0.21808000000000002	1654.3329	0.154763	-422.562891	-422.553382	-422.552437	-422.599107	32.824
 OpenBabel02181911403D

 19 19  0  0  1  0  0  0  0  0999 V2000
    1.5483    0.1705    0.4428 O   0  0  0  0  0  0  0  0  0  0  0  0
    0.3597    0.2554    0.2687 C   0  0  0  0  0  0  0  0  0  0  0  0
   -0.2941    0.7795   -0.9905 C   0  0  0  0  0  0  0  0  0  0  0  0
   -1.1739    2.0017   -0.7101 C   0  0  1  0  0  0  0  0  0  0  0  0
   -2.0171    2.5740   -1.8837 C   0  0  0  0  0  0  0  0  0  0  0  0
   -3.1959    2.7895   -0.8674 C   0  0  2  0  0  0  0  0  0  0  0  0
   -2.4834    1.8299    0.1127 C   0  0  0  0  0  0  0  0  0  0  0  0
   -4.5576    2.4083   -1.3768 C   0  0  0  0  0  0  0  0  0  0  0  0
   -5.1240    1.3773   -1.1119 O   0  0  0  0  0  0  0  0  0  0  0  0
   -0.3561   -0.0507    1.0667 H   0  0  0  0  0  0  0  0  0  0  0  0
    0.4908    1.0142   -1.7164 H   0  0  0  0  0  0  0  0  0  0  0  0
   -0.9222   -0.0223   -1.4051 H   0  0  0  0  0  0  0  0  0  0  0  0
   -0.5600    2.7989   -0.2770 H   0  0  0  0  0  0  0  0  0  0  0  0
   -1.6334    3.4528   -2.4052 H   0  0  0  0  0  0  0  0  0  0  0  0
   -2.2603    1.8022   -2.6207 H   0  0  0  0  0  0  0  0  0  0  0  0
   -3.2167    3.8290   -0.5232 H   0  0  0  0  0  0  0  0  0  0  0  0
   -2.4632    2.1130    1.1667 H   0  0  0  0  0  0  0  0  0  0  0  0
   -2.9081    0.8258    0.0241 H   0  0  0  0  0  0  0  0  0  0  0  0
   -5.0166    3.1475   -2.0736 H   0  0  0  0  0  0  0  0  0  0  0  0
  2  1  2  0  0  0  0
  2 10  1  0  0  0  0
  3  4  1  0  0  0  0
  3  2  1  0  0  0  0
  4 13  1  1  0  0  0
  4  7  1  0  0  0  0
  5  6  1  0  0  0  0
  5  4  1  0  0  0  0
  6 16  1  1  0  0  0
  6  7  1  0  0  0  0
  7 17  1  0  0  0  0
  8  9  2  0  0  0  0
  8  6  1  0  0  0  0
 11  3  1  0  0  0  0
 12  3  1  0  0  0  0
 14  5  1  0  0  0  0
 15  5  1  0  0  0  0
 18  7  1  0  0  0  0
 19  8  1  0  0  0  0
M TOR 0 0 1 2 3
M TOR 1 0 1 2 10
M TOR 2 0 1 2 11
M TOR 3 1 2 3 4
M TOR 4 1 2 3 6
M TOR 5 1 2 3 12
M TOR 6 2 3 4 5
M TOR 7 2 3 4 13
M TOR 8 2 3 4 14
M TOR 9 2 3 6 5
M TOR 10 2 3 6 16
M TOR 11 2 3 6 17
M TOR 12 3 2 1 9
M TOR 13 3 4 5 6
M TOR 14 3 4 5 7
M TOR 15 3 4 5 15
M TOR 16 3 6 5 7
M TOR 17 3 6 5 15
M TOR 18 4 3 2 10
M TOR 19 4 3 2 11
M TOR 20 4 3 6 16
M TOR 21 4 3 6 17
M TOR 22 4 5 6 16
M TOR 23 4 5 6 17
M TOR 24 4 5 7 8
M TOR 25 4 5 7 18
M TOR 26 5 4 3 12
M TOR 27 5 6 3 12
M TOR 28 6 3 2 10
M TOR 29 6 3 2 11
M TOR 30 6 3 4 13
M TOR 31 6 3 4 14
M TOR 32 6 5 4 13
M TOR 33 6 5 4 14
M TOR 34 6 5 7 8
M TOR 35 6 5 7 18
M TOR 36 7 5 4 13
M TOR 37 7 5 4 14
M TOR 38 7 5 6 16
M TOR 39 7 5 6 17
M TOR 40 8 7 5 15
M  END
$$$$
