
     RDKit          3D

 19 19  0  0  0  0  0  0  0  0999 V2000
    2.7626    0.9994   -2.5179 O   0  0  0  0  0  0  0  0  0  0  0  0
    2.5553   -0.3933   -2.3413 C   0  0  0  0  0  0  0  0  0  0  0  0
    3.1195   -0.9140   -1.0279 C   0  0  0  0  0  0  0  0  0  0  0  0
    2.6966   -0.1360    0.2217 C   0  0  0  0  0  0  0  0  0  0  0  0
    1.2988    0.2885    0.2038 C   0  0  0  0  0  0  0  0  0  0  0  0
    0.1585    0.6688    0.1514 C   0  0  0  0  0  0  0  0  0  0  0  0
    4.5215   -1.4927   -1.0162 C   0  0  0  0  0  0  0  0  0  0  0  0
    3.3191   -2.4006   -0.9164 C   0  0  0  0  0  0  0  0  0  0  0  0
    3.0048   -3.0021    0.3067 O   0  0  0  0  0  0  0  0  0  0  0  0
    2.0993    1.4490   -1.9825 H   0  0  0  0  0  0  0  0  0  0  0  0
    1.4858   -0.6396   -2.3985 H   0  0  0  0  0  0  0  0  0  0  0  0
    3.0540   -0.8920   -3.1795 H   0  0  0  0  0  0  0  0  0  0  0  0
    2.8806   -0.7567    1.1038 H   0  0  0  0  0  0  0  0  0  0  0  0
    3.3296    0.7548    0.3132 H   0  0  0  0  0  0  0  0  0  0  0  0
   -0.8548    0.9862    0.1347 H   0  0  0  0  0  0  0  0  0  0  0  0
    5.0991   -1.4762   -1.9348 H   0  0  0  0  0  0  0  0  0  0  0  0
    5.1043   -1.3605   -0.1096 H   0  0  0  0  0  0  0  0  0  0  0  0
    3.0614   -2.9992   -1.7913 H   0  0  0  0  0  0  0  0  0  0  0  0
    3.6609   -3.6852    0.4792 H   0  0  0  0  0  0  0  0  0  0  0  0
  1  2  1  0
  2  3  1  0
  3  4  1  0
  4  5  1  0
  5  6  3  0
  3  7  1  0
  7  8  1  0
  8  9  1  0
  8  3  1  0
  1 10  1  0
  2 11  1  0
  2 12  1  0
  4 13  1  0
  4 14  1  0
  6 15  1  0
  7 16  1  0
  7 17  1  0
  8 18  1  0
  9 19  1  0
M  END
$$$$
