
     RDKit          3D

 19 19  0  0  0  0  0  0  0  0999 V2000
    1.5672    0.0027   -0.0158 C   0  0  0  0  0  0  0  0  0  0  0  0
    0.1125   -0.0233   -0.0427 C   0  0  0  0  0  0  0  0  0  0  0  0
   -1.0901   -0.0500   -0.0566 C   0  0  0  0  0  0  0  0  0  0  0  0
   -2.5450   -0.0609   -0.0948 C   0  0  0  0  0  0  0  0  0  0  0  0
   -3.0535   -0.9857    0.8515 O   0  0  0  0  0  0  0  0  0  0  0  0
   -4.4621   -1.0568    0.8286 C   0  0  0  0  0  0  0  0  0  0  0  0
   -4.9049   -2.0561    1.8606 C   0  0  0  0  0  0  0  0  0  0  0  0
   -6.2500   -2.0001    2.4435 C   0  0  0  0  0  0  0  0  0  0  0  0
   -5.1109   -1.5722    3.1880 O   0  0  0  0  0  0  0  0  0  0  0  0
    1.9536   -0.6356    0.7862 H   0  0  0  0  0  0  0  0  0  0  0  0
    1.9921   -0.3564   -0.9595 H   0  0  0  0  0  0  0  0  0  0  0  0
    1.9451    1.0163    0.1570 H   0  0  0  0  0  0  0  0  0  0  0  0
   -2.9355    0.9501    0.1153 H   0  0  0  0  0  0  0  0  0  0  0  0
   -2.8932   -0.3258   -1.1090 H   0  0  0  0  0  0  0  0  0  0  0  0
   -4.9160   -0.0773    1.0521 H   0  0  0  0  0  0  0  0  0  0  0  0
   -4.8170   -1.3718   -0.1694 H   0  0  0  0  0  0  0  0  0  0  0  0
   -4.3963   -3.0188    1.8068 H   0  0  0  0  0  0  0  0  0  0  0  0
   -6.9364   -1.2088    2.1429 H   0  0  0  0  0  0  0  0  0  0  0  0
   -6.7254   -2.9170    2.7886 H   0  0  0  0  0  0  0  0  0  0  0  0
  1  2  1  0
  2  3  3  0
  3  4  1  0
  4  5  1  0
  5  6  1  0
  6  7  1  0
  7  8  1  0
  8  9  1  0
  9  7  1  0
  1 10  1  0
  1 11  1  0
  1 12  1  0
  4 13  1  0
  4 14  1  0
  6 15  1  0
  6 16  1  0
  7 17  1  0
  8 18  1  0
  8 19  1  0
M  END
$$$$
