
     RDKit          3D

 19 21  0  0  0  0  0  0  0  0999 V2000
    0.2745   -0.0775    0.2997 O   0  0  0  0  0  0  0  0  0  0  0  0
   -0.9127    0.4519    0.8340 C   0  0  0  0  0  0  0  0  0  0  0  0
   -2.1415    0.1775   -0.1089 C   0  0  0  0  0  0  0  0  0  0  0  0
   -2.5333    1.6215    0.1737 C   0  0  0  0  0  0  0  0  0  0  0  0
   -2.9937    2.0075    1.6221 C   0  0  0  0  0  0  0  0  0  0  0  0
   -1.8996    3.0821    1.3958 C   0  0  0  0  0  0  0  0  0  0  0  0
   -2.5595    3.7962    0.1668 C   0  0  0  0  0  0  0  0  0  0  0  0
   -3.0590    2.6667   -0.6245 O   0  0  0  0  0  0  0  0  0  0  0  0
   -1.1075    2.0103    0.5993 C   0  0  0  0  0  0  0  0  0  0  0  0
    1.0034    0.1871    0.8712 H   0  0  0  0  0  0  0  0  0  0  0  0
   -1.0749    0.1078    1.8620 H   0  0  0  0  0  0  0  0  0  0  0  0
   -1.7719    0.0372   -1.1281 H   0  0  0  0  0  0  0  0  0  0  0  0
   -2.8369   -0.6226    0.1543 H   0  0  0  0  0  0  0  0  0  0  0  0
   -4.0298    2.3403    1.7176 H   0  0  0  0  0  0  0  0  0  0  0  0
   -2.7527    1.2793    2.3952 H   0  0  0  0  0  0  0  0  0  0  0  0
   -1.5094    3.7394    2.1759 H   0  0  0  0  0  0  0  0  0  0  0  0
   -3.3981    4.4355    0.4606 H   0  0  0  0  0  0  0  0  0  0  0  0
   -1.8516    4.3753   -0.4364 H   0  0  0  0  0  0  0  0  0  0  0  0
   -0.4155    2.3427   -0.1789 H   0  0  0  0  0  0  0  0  0  0  0  0
  1  2  1  0
  2  3  1  0
  3  4  1  0
  4  5  1  0
  5  6  1  0
  6  7  1  0
  7  8  1  0
  6  9  1  0
  9  2  1  0
  8  4  1  0
  9  4  1  0
  1 10  1  0
  2 11  1  0
  3 12  1  0
  3 13  1  0
  5 14  1  0
  5 15  1  0
  6 16  1  0
  7 17  1  0
  7 18  1  0
  9 19  1  0
M  END
$$$$
