
     RDKit          3D

 19 21  0  0  0  0  0  0  0  0999 V2000
    1.2998   -0.1254   -0.1810 C   0  0  0  0  0  0  0  0  0  0  0  0
   -0.0910   -0.1152    0.0446 O   0  0  0  0  0  0  0  0  0  0  0  0
   -0.4601    0.5195    1.2396 C   0  0  0  0  0  0  0  0  0  0  0  0
   -0.1250   -0.1012    2.5983 C   0  0  0  0  0  0  0  0  0  0  0  0
   -1.1165   -1.1993    2.9344 C   0  0  0  0  0  0  0  0  0  0  0  0
   -1.7729   -1.8946    1.9047 O   0  0  0  0  0  0  0  0  0  0  0  0
   -2.5322   -0.9303    1.1623 C   0  0  0  0  0  0  0  0  0  0  0  0
   -1.9727    0.4293    1.5854 C   0  0  0  0  0  0  0  0  0  0  0  0
   -1.5646    0.2083    3.0679 C   0  0  0  0  0  0  0  0  0  0  0  0
    1.8379   -0.6843    0.5986 H   0  0  0  0  0  0  0  0  0  0  0  0
    1.4704   -0.6136   -1.1433 H   0  0  0  0  0  0  0  0  0  0  0  0
    1.7126    0.8955   -0.2226 H   0  0  0  0  0  0  0  0  0  0  0  0
   -0.1292    1.5700    1.2289 H   0  0  0  0  0  0  0  0  0  0  0  0
    0.7995    0.0236    3.1514 H   0  0  0  0  0  0  0  0  0  0  0  0
   -0.9101   -1.8154    3.8015 H   0  0  0  0  0  0  0  0  0  0  0  0
   -2.3884   -1.1242    0.0967 H   0  0  0  0  0  0  0  0  0  0  0  0
   -3.6001   -1.0188    1.4112 H   0  0  0  0  0  0  0  0  0  0  0  0
   -2.5936    1.2823    1.3161 H   0  0  0  0  0  0  0  0  0  0  0  0
   -1.9280    0.7154    3.9505 H   0  0  0  0  0  0  0  0  0  0  0  0
  1  2  1  0
  2  3  1  0
  3  4  1  0
  4  5  1  0
  5  6  1  0
  6  7  1  0
  7  8  1  0
  8  9  1  0
  8  3  1  0
  9  4  1  0
  9  5  1  0
  1 10  1  0
  1 11  1  0
  1 12  1  0
  3 13  1  0
  4 14  1  0
  5 15  1  0
  7 16  1  0
  7 17  1  0
  8 18  1  0
  9 19  1  0
M  END
$$$$
