
     RDKit          3D

 19 21  0  0  0  0  0  0  0  0999 V2000
   -1.9181    1.5222    0.7508 O   0  0  0  0  0  0  0  0  0  0  0  0
   -0.6366    1.0166    0.9746 C   0  0  0  0  0  0  0  0  0  0  0  0
   -0.1481    0.3585   -0.2907 C   0  0  0  0  0  0  0  0  0  0  0  0
   -0.9890   -0.7153   -0.9336 C   0  0  0  0  0  0  0  0  0  0  0  0
    0.3440   -1.0704   -0.3358 C   0  0  0  0  0  0  0  0  0  0  0  0
    0.2991    1.9543    1.8163 C   0  0  0  0  0  0  0  0  0  0  0  0
    1.1061    0.7425    2.3153 C   0  0  0  0  0  0  0  0  0  0  0  0
   -0.3942    0.3948    2.4018 C   0  0  0  0  0  0  0  0  0  0  0  0
   -0.6360    1.7563    2.9624 O   0  0  0  0  0  0  0  0  0  0  0  0
   -2.1552    1.9577    1.5841 H   0  0  0  0  0  0  0  0  0  0  0  0
    0.3311    1.0497   -0.9786 H   0  0  0  0  0  0  0  0  0  0  0  0
   -1.8831   -1.0234   -0.4042 H   0  0  0  0  0  0  0  0  0  0  0  0
   -1.0916   -0.7040   -2.0126 H   0  0  0  0  0  0  0  0  0  0  0  0
    0.3470   -1.6428    0.5856 H   0  0  0  0  0  0  0  0  0  0  0  0
    1.1705   -1.3014   -0.9990 H   0  0  0  0  0  0  0  0  0  0  0  0
    0.6208    2.9767    1.6118 H   0  0  0  0  0  0  0  0  0  0  0  0
    1.7338    0.2027    1.6073 H   0  0  0  0  0  0  0  0  0  0  0  0
    1.5799    0.8955    3.2845 H   0  0  0  0  0  0  0  0  0  0  0  0
   -0.8936   -0.4365    2.9016 H   0  0  0  0  0  0  0  0  0  0  0  0
  1  2  1  0
  2  3  1  0
  3  4  1  0
  4  5  1  0
  2  6  1  0
  6  7  1  0
  7  8  1  0
  8  9  1  0
  8  2  1  0
  5  3  1  0
  9  6  1  0
  1 10  1  0
  3 11  1  0
  4 12  1  0
  4 13  1  0
  5 14  1  0
  5 15  1  0
  6 16  1  0
  7 17  1  0
  7 18  1  0
  8 19  1  0
M  END
$$$$
