
     RDKit          3D

 19 21  0  0  0  0  0  0  0  0999 V2000
    1.6250    0.0530    0.1048 C   0  0  0  0  0  0  0  0  0  0  0  0
    0.2099    0.1366    0.0127 O   0  0  0  0  0  0  0  0  0  0  0  0
   -0.3711    0.8131    1.0539 C   0  0  0  0  0  0  0  0  0  0  0  0
   -0.4353    2.3203    1.3162 C   0  0  0  0  0  0  0  0  0  0  0  0
   -1.5150    1.9298    2.3602 C   0  0  0  0  0  0  0  0  0  0  0  0
   -0.7745    1.2193    3.3946 O   0  0  0  0  0  0  0  0  0  0  0  0
   -0.6316    0.1673    2.4408 C   0  0  0  0  0  0  0  0  0  0  0  0
   -1.7810    0.5821    1.5721 C   0  0  0  0  0  0  0  0  0  0  0  0
   -2.9866   -0.0989    1.0145 C   0  0  0  0  0  0  0  0  0  0  0  0
    1.9362   -0.4388    1.0361 H   0  0  0  0  0  0  0  0  0  0  0  0
    1.9646   -0.5369   -0.7490 H   0  0  0  0  0  0  0  0  0  0  0  0
    2.0905    1.0469    0.0613 H   0  0  0  0  0  0  0  0  0  0  0  0
    0.4413    2.8492    1.7030 H   0  0  0  0  0  0  0  0  0  0  0  0
   -0.8689    2.8504    0.4641 H   0  0  0  0  0  0  0  0  0  0  0  0
   -2.2445    2.6381    2.7473 H   0  0  0  0  0  0  0  0  0  0  0  0
   -0.2661   -0.8029    2.7523 H   0  0  0  0  0  0  0  0  0  0  0  0
   -3.7138   -0.3361    1.7984 H   0  0  0  0  0  0  0  0  0  0  0  0
   -3.4880    0.5219    0.2633 H   0  0  0  0  0  0  0  0  0  0  0  0
   -2.6969   -1.0347    0.5260 H   0  0  0  0  0  0  0  0  0  0  0  0
  1  2  1  0
  2  3  1  0
  3  4  1  0
  4  5  1  0
  5  6  1  0
  6  7  1  0
  7  8  1  0
  8  9  1  0
  7  3  1  0
  8  3  1  0
  8  5  1  0
  1 10  1  0
  1 11  1  0
  1 12  1  0
  4 13  1  0
  4 14  1  0
  5 15  1  0
  7 16  1  0
  9 17  1  0
  9 18  1  0
  9 19  1  0
M  END
$$$$
