gdb 5034	2.484059	1.58557	1.3182526	2.3872	75.33	-0.22389	-0.0172	0.20669	1065.4577	0.15678	-422.552773	-422.544379	-422.543435	-422.58571	31.737
 OpenBabel02181911413D

 19 20  0  0  1  0  0  0  0  0999 V2000
    1.2380   -0.1905    1.0147 C   0  0  0  0  0  0  0  0  0  0  0  0
    0.8152    0.1963   -0.4089 C   0  0  0  0  0  0  0  0  0  0  0  0
    1.5430   -0.5911   -1.4609 C   0  0  1  0  0  0  0  0  0  0  0  0
    1.2488   -0.5754   -2.9942 C   0  0  0  0  0  0  0  0  0  0  0  0
    2.1718   -1.8435   -3.0036 C   0  0  1  0  0  0  0  0  0  0  0  0
    3.4762   -1.2234   -2.4801 C   0  0  0  0  0  0  0  0  0  0  0  0
    2.9700   -0.3635   -1.4250 O   0  0  0  0  0  0  0  0  0  0  0  0
    1.4896   -2.1326   -1.6447 C   0  0  0  0  0  0  0  0  0  0  0  0
    0.9977   -3.0720   -1.0965 O   0  0  0  0  0  0  0  0  0  0  0  0
    1.0266   -1.2464    1.2069 H   0  0  0  0  0  0  0  0  0  0  0  0
    2.3091   -0.0266    1.1565 H   0  0  0  0  0  0  0  0  0  0  0  0
    0.6969    0.4064    1.7541 H   0  0  0  0  0  0  0  0  0  0  0  0
   -0.2596    0.0280   -0.5430 H   0  0  0  0  0  0  0  0  0  0  0  0
    0.9944    1.2644   -0.5831 H   0  0  0  0  0  0  0  0  0  0  0  0
    0.2090   -0.7905   -3.2473 H   0  0  0  0  0  0  0  0  0  0  0  0
    1.6224    0.3006   -3.5289 H   0  0  0  0  0  0  0  0  0  0  0  0
    2.2179   -2.5593   -3.8201 H   0  0  0  0  0  0  0  0  0  0  0  0
    4.1698   -1.9634   -2.0646 H   0  0  0  0  0  0  0  0  0  0  0  0
    4.0026   -0.6188   -3.2277 H   0  0  0  0  0  0  0  0  0  0  0  0
  1 11  1  0  0  0  0
  1 10  1  0  0  0  0
  1 12  1  0  0  0  0
  2  1  1  0  0  0  0
  3  7  1  0  0  0  0
  3  2  1  1  0  0  0
  4  3  1  0  0  0  0
  5 17  1  6  0  0  0
  5  4  1  0  0  0  0
  5  6  1  0  0  0  0
  5  8  1  0  0  0  0
  6 18  1  0  0  0  0
  6  7  1  0  0  0  0
  8  3  1  0  0  0  0
  8  9  2  0  0  0  0
 13  2  1  0  0  0  0
 14  2  1  0  0  0  0
 15  4  1  0  0  0  0
 16  4  1  0  0  0  0
 19  6  1  0  0  0  0
M TOR 0 0 1 2 3
M TOR 1 0 1 2 6
M TOR 2 0 1 2 7
M TOR 3 1 2 3 4
M TOR 4 1 2 3 14
M TOR 5 1 2 3 15
M TOR 6 1 2 6 5
M TOR 7 1 2 7 4
M TOR 8 1 2 7 8
M TOR 9 2 1 0 9
M TOR 10 2 1 0 10
M TOR 11 2 1 0 11
M TOR 12 2 3 4 5
M TOR 13 2 3 4 7
M TOR 14 2 3 4 16
M TOR 15 2 6 5 4
M TOR 16 2 6 5 17
M TOR 17 2 6 5 18
M TOR 18 2 7 4 5
M TOR 19 2 7 4 16
M TOR 20 3 2 1 12
M TOR 21 3 2 1 13
M TOR 22 3 2 6 5
M TOR 23 3 2 7 8
M TOR 24 3 4 5 6
M TOR 25 3 4 5 17
M TOR 26 3 4 5 18
M TOR 27 3 4 7 8
M TOR 28 4 3 2 6
M TOR 29 4 7 2 6
M TOR 30 5 4 3 14
M TOR 31 5 4 3 15
M TOR 32 5 4 7 8
M TOR 33 5 6 2 7
M TOR 34 6 2 1 12
M TOR 35 6 2 1 13
M TOR 36 6 2 3 14
M TOR 37 6 2 3 15
M TOR 38 6 2 7 8
M TOR 39 6 5 4 7
M TOR 40 6 5 4 16
M TOR 41 7 2 1 12
M TOR 42 7 2 1 13
M TOR 43 7 2 3 14
M TOR 44 7 2 3 15
M TOR 45 7 4 3 14
M TOR 46 7 4 3 15
M TOR 47 7 4 5 17
M TOR 48 7 4 5 18
M TOR 49 8 7 4 16
M  END
$$$$
