
     RDKit          3D

 19 21  0  0  0  0  0  0  0  0999 V2000
   -1.2270    2.4462    0.2013 C   0  0  0  0  0  0  0  0  0  0  0  0
   -1.4046    2.2125   -1.3375 C   0  0  0  0  0  0  0  0  0  0  0  0
   -1.2753    0.7067   -1.0396 C   0  0  0  0  0  0  0  0  0  0  0  0
   -0.2392    1.2633   -0.0047 C   0  0  0  0  0  0  0  0  0  0  0  0
    0.6507    0.3842    0.8320 C   0  0  0  0  0  0  0  0  0  0  0  0
    1.7110   -0.0047   -0.0700 O   0  0  0  0  0  0  0  0  0  0  0  0
    1.6951    0.7793   -1.2778 C   0  0  0  0  0  0  0  0  0  0  0  0
    0.7609    1.9435   -0.9496 C   0  0  0  0  0  0  0  0  0  0  0  0
   -0.1169    2.5261   -1.9203 O   0  0  0  0  0  0  0  0  0  0  0  0
   -0.8174    3.4053    0.5274 H   0  0  0  0  0  0  0  0  0  0  0  0
   -2.1270    2.1918    0.7635 H   0  0  0  0  0  0  0  0  0  0  0  0
   -2.1995    2.6608   -1.9305 H   0  0  0  0  0  0  0  0  0  0  0  0
   -2.1488    0.2773   -0.5449 H   0  0  0  0  0  0  0  0  0  0  0  0
   -0.9322    0.0657   -1.8531 H   0  0  0  0  0  0  0  0  0  0  0  0
    1.0753    0.9224    1.6920 H   0  0  0  0  0  0  0  0  0  0  0  0
    0.1629   -0.5242    1.2004 H   0  0  0  0  0  0  0  0  0  0  0  0
    2.7225    1.0859   -1.4962 H   0  0  0  0  0  0  0  0  0  0  0  0
    1.3216    0.1859   -2.1225 H   0  0  0  0  0  0  0  0  0  0  0  0
    1.3239    2.7413   -0.4479 H   0  0  0  0  0  0  0  0  0  0  0  0
  1  2  1  0
  2  3  1  0
  3  4  1  0
  4  5  1  0
  5  6  1  0
  6  7  1  0
  7  8  1  0
  8  9  1  0
  4  1  1  0
  8  4  1  0
  9  2  1  0
  1 10  1  0
  1 11  1  0
  2 12  1  0
  3 13  1  0
  3 14  1  0
  5 15  1  0
  5 16  1  0
  7 17  1  0
  7 18  1  0
  8 19  1  0
M  END
$$$$
