
     RDKit          3D

 19 21  0  0  0  0  0  0  0  0999 V2000
   -3.3384    1.2916   -1.7835 C   0  0  0  0  0  0  0  0  0  0  0  0
   -2.5786    1.2025   -0.4863 C   0  0  0  0  0  0  0  0  0  0  0  0
   -1.7390   -0.0469   -0.2256 C   0  0  0  0  0  0  0  0  0  0  0  0
   -0.9807    0.2665    1.0849 C   0  0  0  0  0  0  0  0  0  0  0  0
    0.3819   -0.1054    0.9044 O   0  0  0  0  0  0  0  0  0  0  0  0
   -1.1609    1.7772    1.2627 C   0  0  0  0  0  0  0  0  0  0  0  0
   -2.5784    2.3155    1.2219 C   0  0  0  0  0  0  0  0  0  0  0  0
   -3.4776    1.3505    0.6826 O   0  0  0  0  0  0  0  0  0  0  0  0
   -1.7221    2.4032    0.0024 C   0  0  0  0  0  0  0  0  0  0  0  0
   -4.0465    0.4611   -1.8682 H   0  0  0  0  0  0  0  0  0  0  0  0
   -3.9010    2.2275   -1.8365 H   0  0  0  0  0  0  0  0  0  0  0  0
   -2.6510    1.2458   -2.6347 H   0  0  0  0  0  0  0  0  0  0  0  0
   -2.3616   -0.9425   -0.1538 H   0  0  0  0  0  0  0  0  0  0  0  0
   -1.0004   -0.1924   -1.0212 H   0  0  0  0  0  0  0  0  0  0  0  0
   -1.4121   -0.2834    1.9322 H   0  0  0  0  0  0  0  0  0  0  0  0
    0.8319   -0.0067    1.7493 H   0  0  0  0  0  0  0  0  0  0  0  0
   -0.4426    2.3302    1.8597 H   0  0  0  0  0  0  0  0  0  0  0  0
   -2.9773    3.0608    1.9003 H   0  0  0  0  0  0  0  0  0  0  0  0
   -1.3261    3.2292   -0.5716 H   0  0  0  0  0  0  0  0  0  0  0  0
  1  2  1  0
  2  3  1  0
  3  4  1  0
  4  5  1  0
  4  6  1  0
  6  7  1  0
  7  8  1  0
  7  9  1  0
  8  2  1  0
  9  2  1  0
  9  6  1  0
  1 10  1  0
  1 11  1  0
  1 12  1  0
  3 13  1  0
  3 14  1  0
  4 15  1  0
  5 16  1  0
  6 17  1  0
  7 18  1  0
  9 19  1  0
M  END
$$$$
