gdb 3453	2.2077845	1.7937941	1.1394351	0.8065	76.27	-0.252	-0.0011	0.2509	1090.2653	0.157255	-422.554704	-422.546141	-422.545197	-422.587906	33.191
 OpenBabel02181911413D

 19 20  0  0  1  0  0  0  0  0999 V2000
    0.0440    3.2799    3.0006 O   0  0  0  0  0  0  0  0  0  0  0  0
   -0.6319    2.4094    2.0955 C   0  0  2  0  0  0  0  0  0  0  0  0
   -1.6509    3.1326    1.2447 C   0  0  0  0  0  0  0  0  0  0  0  0
   -2.8794    2.6368    1.3762 C   0  0  0  0  0  0  0  0  0  0  0  0
   -2.9323    1.4340    2.2904 C   0  0  1  0  0  0  0  0  0  0  0  0
   -3.4653    0.2786    1.6464 O   0  0  0  0  0  0  0  0  0  0  0  0
   -1.4703    1.3002    2.7625 C   0  0  0  0  0  0  0  0  0  0  0  0
   -1.1458    0.8592    4.1683 C   0  0  0  0  0  0  0  0  0  0  0  0
   -0.8872   -0.0683    3.0146 C   0  0  0  0  0  0  0  0  0  0  0  0
   -0.6286    3.6869    3.5590 H   0  0  0  0  0  0  0  0  0  0  0  0
    0.1812    1.9948    1.4873 H   0  0  0  0  0  0  0  0  0  0  0  0
   -1.3675    3.9836    0.6347 H   0  0  0  0  0  0  0  0  0  0  0  0
   -3.7710    2.9982    0.8751 H   0  0  0  0  0  0  0  0  0  0  0  0
   -3.6182    1.5951    3.1309 H   0  0  0  0  0  0  0  0  0  0  0  0
   -2.9043    0.0941    0.8841 H   0  0  0  0  0  0  0  0  0  0  0  0
   -0.2946    1.3319    4.6458 H   0  0  0  0  0  0  0  0  0  0  0  0
   -1.9754    0.6316    4.8305 H   0  0  0  0  0  0  0  0  0  0  0  0
    0.1430   -0.2407    2.7189 H   0  0  0  0  0  0  0  0  0  0  0  0
   -1.5505   -0.9157    2.8805 H   0  0  0  0  0  0  0  0  0  0  0  0
  1 10  1  0  0  0  0
  2 11  1  6  0  0  0
  2  7  1  0  0  0  0
  2  1  1  0  0  0  0
  3  4  2  0  0  0  0
  3  2  1  0  0  0  0
  4  5  1  0  0  0  0
  5  7  1  0  0  0  0
  5 14  1  1  0  0  0
  6  5  1  0  0  0  0
  7  9  1  0  0  0  0
  7  8  1  0  0  0  0
  8 16  1  0  0  0  0
  8 17  1  0  0  0  0
  9  8  1  0  0  0  0
 12  3  1  0  0  0  0
 13  4  1  0  0  0  0
 15  6  1  0  0  0  0
 18  9  1  0  0  0  0
 19  9  1  0  0  0  0
M TOR 0 0 1 2 3
M TOR 1 0 1 2 11
M TOR 2 0 1 6 4
M TOR 3 0 1 6 7
M TOR 4 0 1 6 8
M TOR 5 1 2 3 4
M TOR 6 1 2 3 12
M TOR 7 1 6 4 3
M TOR 8 1 6 4 5
M TOR 9 1 6 4 13
M TOR 10 1 6 7 8
M TOR 11 1 6 7 15
M TOR 12 1 6 7 16
M TOR 13 1 6 8 17
M TOR 14 1 6 8 18
M TOR 15 2 1 0 9
M TOR 16 2 1 6 4
M TOR 17 2 1 6 7
M TOR 18 2 1 6 8
M TOR 19 2 3 4 5
M TOR 20 2 3 4 6
M TOR 21 2 3 4 13
M TOR 22 3 2 1 6
M TOR 23 3 2 1 10
M TOR 24 3 4 5 14
M TOR 25 3 4 6 7
M TOR 26 3 4 6 8
M TOR 27 4 3 2 11
M TOR 28 4 6 1 10
M TOR 29 4 6 7 8
M TOR 30 4 6 7 15
M TOR 31 4 6 7 16
M TOR 32 4 6 8 17
M TOR 33 4 6 8 18
M TOR 34 5 4 3 12
M TOR 35 5 4 6 7
M TOR 36 5 4 6 8
M TOR 37 6 1 0 9
M TOR 38 6 1 2 11
M TOR 39 6 4 3 12
M TOR 40 6 4 5 14
M TOR 41 6 7 8 17
M TOR 42 6 7 8 18
M TOR 43 6 8 7 15
M TOR 44 6 8 7 16
M TOR 45 7 6 1 10
M TOR 46 7 6 4 13
M TOR 47 8 6 1 10
M TOR 48 8 6 4 13
M  END
$$$$
