
     RDKit          3D

 19 21  0  0  0  0  0  0  0  0999 V2000
   -0.0039   -0.3613   -0.3088 C   0  0  0  0  0  0  0  0  0  0  0  0
    0.8494    0.4621    0.6192 C   0  0  0  0  0  0  0  0  0  0  0  0
    2.0479   -0.1581    1.1242 O   0  0  0  0  0  0  0  0  0  0  0  0
    2.1801    0.9542    0.2559 C   0  0  0  0  0  0  0  0  0  0  0  0
    2.9263    0.8893   -1.0885 C   0  0  0  0  0  0  0  0  0  0  0  0
    3.5975    2.2184   -0.7034 C   0  0  0  0  0  0  0  0  0  0  0  0
    4.8761    2.7869   -1.1246 C   0  0  0  0  0  0  0  0  0  0  0  0
    3.6276    3.3362   -1.5733 O   0  0  0  0  0  0  0  0  0  0  0  0
    2.8970    2.2525    0.6647 C   0  0  0  0  0  0  0  0  0  0  0  0
   -0.5596   -1.1204    0.2514 H   0  0  0  0  0  0  0  0  0  0  0  0
   -0.7317    0.2747   -0.8247 H   0  0  0  0  0  0  0  0  0  0  0  0
    0.6088   -0.8699   -1.0576 H   0  0  0  0  0  0  0  0  0  0  0  0
    0.3028    1.0257    1.3784 H   0  0  0  0  0  0  0  0  0  0  0  0
    3.6043    0.0355   -1.1726 H   0  0  0  0  0  0  0  0  0  0  0  0
    2.3025    0.9465   -1.9849 H   0  0  0  0  0  0  0  0  0  0  0  0
    5.4426    3.4154   -0.4382 H   0  0  0  0  0  0  0  0  0  0  0  0
    5.4671    2.2852   -1.8903 H   0  0  0  0  0  0  0  0  0  0  0  0
    3.5596    2.1305    1.5262 H   0  0  0  0  0  0  0  0  0  0  0  0
    2.2562    3.1246    0.8202 H   0  0  0  0  0  0  0  0  0  0  0  0
  1  2  1  0
  2  3  1  0
  3  4  1  0
  4  5  1  0
  5  6  1  0
  6  7  1  0
  7  8  1  0
  6  9  1  0
  4  2  1  0
  9  4  1  0
  8  6  1  0
  1 10  1  0
  1 11  1  0
  1 12  1  0
  2 13  1  0
  5 14  1  0
  5 15  1  0
  7 16  1  0
  7 17  1  0
  9 18  1  0
  9 19  1  0
M  END
$$$$
