gdb 4771	1.8782111	1.3763776	1.3008759	1.7906	77.6	-0.25517	0.02042	0.27559	1172.0941	0.152702	-422.487191	-422.476941	-422.475997	-422.522412	36.62
 OpenBabel02181911413D

 19 19  0  0  1  0  0  0  0  0999 V2000
    1.3303   -0.1814   -0.2646 C   0  0  0  0  0  0  0  0  0  0  0  0
   -0.0536   -0.1386    0.0082 O   0  0  0  0  0  0  0  0  0  0  0  0
   -0.4150    0.6047    1.1528 C   0  0  1  0  0  0  0  0  0  0  0  0
   -1.9310    0.7501    1.1392 C   0  0  0  0  0  0  0  0  0  0  0  0
    0.0671   -0.0584    2.4518 C   0  0  1  0  0  0  0  0  0  0  0  0
    1.2688    0.4551    3.1449 C   0  0  0  0  0  0  0  0  0  0  0  0
   -0.0322    0.8048    3.6007 O   0  0  0  0  0  0  0  0  0  0  0  0
   -0.3266   -1.4324    2.6548 C   0  0  0  0  0  0  0  0  0  0  0  0
   -0.6577   -2.5780    2.8044 C   0  0  0  0  0  0  0  0  0  0  0  0
    1.8883   -0.7611    0.4836 H   0  0  0  0  0  0  0  0  0  0  0  0
    1.4473   -0.6657   -1.2370 H   0  0  0  0  0  0  0  0  0  0  0  0
    1.7643    0.8294   -0.3186 H   0  0  0  0  0  0  0  0  0  0  0  0
    0.0533    1.6031    1.1223 H   0  0  0  0  0  0  0  0  0  0  0  0
   -2.2603    1.3336    2.0025 H   0  0  0  0  0  0  0  0  0  0  0  0
   -2.2467    1.2555    0.2234 H   0  0  0  0  0  0  0  0  0  0  0  0
   -2.4045   -0.2347    1.1750 H   0  0  0  0  0  0  0  0  0  0  0  0
    1.8310   -0.2118    3.7957 H   0  0  0  0  0  0  0  0  0  0  0  0
    1.8395    1.2615    2.6852 H   0  0  0  0  0  0  0  0  0  0  0  0
   -0.9531   -3.5893    2.9401 H   0  0  0  0  0  0  0  0  0  0  0  0
  1  2  1  0  0  0  0
  1 10  1  0  0  0  0
  2  3  1  0  0  0  0
  3 13  1  6  0  0  0
  3  5  1  0  0  0  0
  4  3  1  0  0  0  0
  4 16  1  0  0  0  0
  4 14  1  0  0  0  0
  5  8  1  1  0  0  0
  5  6  1  0  0  0  0
  5  7  1  0  0  0  0
  6  7  1  0  0  0  0
  6 17  1  0  0  0  0
  8  9  3  0  0  0  0
  9 19  1  0  0  0  0
 11  1  1  0  0  0  0
 12  1  1  0  0  0  0
 15  4  1  0  0  0  0
 18  6  1  0  0  0  0
M TOR 0 0 1 2 3
M TOR 1 0 1 2 4
M TOR 2 0 1 2 12
M TOR 3 1 2 3 13
M TOR 4 1 2 3 14
M TOR 5 1 2 3 15
M TOR 6 1 2 4 5
M TOR 7 1 2 4 6
M TOR 8 1 2 4 7
M TOR 9 2 1 0 9
M TOR 10 2 1 0 10
M TOR 11 2 1 0 11
M TOR 12 2 4 5 6
M TOR 13 2 4 5 16
M TOR 14 2 4 5 17
M TOR 15 2 4 7 8
M TOR 16 3 2 4 5
M TOR 17 3 2 4 6
M TOR 18 3 2 4 7
M TOR 19 4 2 3 13
M TOR 20 4 2 3 14
M TOR 21 4 2 3 15
M TOR 22 4 6 5 16
M TOR 23 4 6 5 17
M TOR 24 4 7 8 18
M TOR 25 5 4 2 12
M TOR 26 5 4 7 8
M TOR 27 5 6 4 7
M TOR 28 6 4 2 12
M TOR 29 6 4 7 8
M TOR 30 7 4 2 12
M TOR 31 7 4 5 16
M TOR 32 7 4 5 17
M  END
$$$$
