
     RDKit          3D

 19 20  0  0  0  0  0  0  0  0999 V2000
    0.9474    0.8147   -0.0528 C   0  0  0  0  0  0  0  0  0  0  0  0
    0.8132   -0.6614    0.3159 C   0  0  0  0  0  0  0  0  0  0  0  0
    1.0202   -1.5086   -0.8280 O   0  0  0  0  0  0  0  0  0  0  0  0
    2.3995   -1.8443   -0.9081 C   0  0  0  0  0  0  0  0  0  0  0  0
    2.8735   -1.9553    0.5305 C   0  0  0  0  0  0  0  0  0  0  0  0
    1.9603   -2.6739    1.4570 C   0  0  0  0  0  0  0  0  0  0  0  0
    1.8443   -1.1527    1.3333 C   0  0  0  0  0  0  0  0  0  0  0  0
    2.2549   -0.3776    2.5196 C   0  0  0  0  0  0  0  0  0  0  0  0
    1.7755    0.6675    2.8901 O   0  0  0  0  0  0  0  0  0  0  0  0
    0.7112    1.4449    0.8059 H   0  0  0  0  0  0  0  0  0  0  0  0
    1.9653    1.0530   -0.3782 H   0  0  0  0  0  0  0  0  0  0  0  0
    0.2621    1.0417   -0.8738 H   0  0  0  0  0  0  0  0  0  0  0  0
   -0.2101   -0.8646    0.6509 H   0  0  0  0  0  0  0  0  0  0  0  0
    2.4739   -2.7832   -1.4667 H   0  0  0  0  0  0  0  0  0  0  0  0
    2.9806   -1.0775   -1.4428 H   0  0  0  0  0  0  0  0  0  0  0  0
    3.9322   -1.8816    0.7515 H   0  0  0  0  0  0  0  0  0  0  0  0
    1.1429   -3.2530    1.0413 H   0  0  0  0  0  0  0  0  0  0  0  0
    2.3741   -3.0550    2.3847 H   0  0  0  0  0  0  0  0  0  0  0  0
    3.0742   -0.8640    3.1005 H   0  0  0  0  0  0  0  0  0  0  0  0
  1  2  1  0
  2  3  1  0
  3  4  1  0
  4  5  1  0
  5  6  1  0
  6  7  1  0
  7  8  1  0
  8  9  2  0
  7  2  1  0
  7  5  1  0
  1 10  1  0
  1 11  1  0
  1 12  1  0
  2 13  1  0
  4 14  1  0
  4 15  1  0
  5 16  1  0
  6 17  1  0
  6 18  1  0
  8 19  1  0
M  END
$$$$
