
     RDKit          3D

 19 18  0  0  0  0  0  0  0  0999 V2000
   -1.8766    1.9485   -1.4846 C   0  0  0  0  0  0  0  0  0  0  0  0
   -1.7953    1.5260   -0.0011 C   0  0  0  0  0  0  0  0  0  0  0  0
   -2.5822    2.5226    0.8802 C   0  0  0  0  0  0  0  0  0  0  0  0
   -0.3284    1.5352    0.4777 C   0  0  0  0  0  0  0  0  0  0  0  0
    0.4607    0.6475   -0.3340 O   0  0  0  0  0  0  0  0  0  0  0  0
    1.1721   -0.3048    0.2927 C   0  0  0  0  0  0  0  0  0  0  0  0
    1.2687   -0.4706    1.4759 O   0  0  0  0  0  0  0  0  0  0  0  0
   -2.3506    0.1788    0.1642 C   0  0  0  0  0  0  0  0  0  0  0  0
   -2.8113   -0.9227    0.3023 C   0  0  0  0  0  0  0  0  0  0  0  0
   -1.2940    1.2718   -2.1122 H   0  0  0  0  0  0  0  0  0  0  0  0
   -2.9139    1.9350   -1.8286 H   0  0  0  0  0  0  0  0  0  0  0  0
   -1.4844    2.9637   -1.6083 H   0  0  0  0  0  0  0  0  0  0  0  0
   -2.5435    2.2345    1.9343 H   0  0  0  0  0  0  0  0  0  0  0  0
   -2.1675    3.5311    0.7781 H   0  0  0  0  0  0  0  0  0  0  0  0
   -3.6310    2.5511    0.5746 H   0  0  0  0  0  0  0  0  0  0  0  0
    0.0915    2.5393    0.3560 H   0  0  0  0  0  0  0  0  0  0  0  0
   -0.2490    1.2304    1.5221 H   0  0  0  0  0  0  0  0  0  0  0  0
    1.6716   -0.9169   -0.4734 H   0  0  0  0  0  0  0  0  0  0  0  0
   -3.2151   -1.8969    0.4286 H   0  0  0  0  0  0  0  0  0  0  0  0
  1  2  1  0
  2  3  1  0
  2  4  1  0
  4  5  1  0
  5  6  1  0
  6  7  2  0
  2  8  1  0
  8  9  3  0
  1 10  1  0
  1 11  1  0
  1 12  1  0
  3 13  1  0
  3 14  1  0
  3 15  1  0
  4 16  1  0
  4 17  1  0
  6 18  1  0
  9 19  1  0
M  END
$$$$
