gdb 3291	2.8688868	1.7276779	1.3212154	1.2257	73.87	-0.23845	0.07166	0.31011	991.8309	0.158833	-422.535936	-422.528594	-422.52765	-422.567704	29.183
 OpenBabel02181911413D

 19 21  0  0  1  0  0  0  0  0999 V2000
    0.5090    0.4520    0.4545 O   0  0  0  0  0  0  0  0  0  0  0  0
   -0.6556   -0.1708    0.9566 C   0  0  2  0  0  0  0  0  0  0  0  0
   -1.8467    0.1564    0.0251 C   0  0  1  0  0  0  0  0  0  0  0  0
   -3.0303   -0.8345    0.1268 C   0  0  0  0  0  0  0  0  0  0  0  0
   -3.5169   -0.1176    1.4210 C   0  0  1  0  0  0  0  0  0  0  0  0
   -3.1678   -0.8016    2.6195 O   0  0  0  0  0  0  0  0  0  0  0  0
   -2.0071   -0.2204    3.2134 C   0  0  0  0  0  0  0  0  0  0  0  0
   -1.3343    0.6136    2.1316 C   0  0  2  0  0  0  0  0  0  0  0  0
   -2.4845    1.0181    1.1731 C   0  0  1  0  0  0  0  0  0  0  0  0
    1.1978    0.3818    1.1240 H   0  0  0  0  0  0  0  0  0  0  0  0
   -0.4852   -1.2418    1.1482 H   0  0  0  0  0  0  0  0  0  0  0  0
   -1.5617    0.5415   -0.9529 H   0  0  0  0  0  0  0  0  0  0  0  0
   -3.7371   -0.6961   -0.6961 H   0  0  0  0  0  0  0  0  0  0  0  0
   -2.8033   -1.8994    0.2291 H   0  0  0  0  0  0  0  0  0  0  0  0
   -4.5783    0.1424    1.4566 H   0  0  0  0  0  0  0  0  0  0  0  0
   -2.2945    0.4076    4.0709 H   0  0  0  0  0  0  0  0  0  0  0  0
   -1.3712   -1.0324    3.5882 H   0  0  0  0  0  0  0  0  0  0  0  0
   -0.7047    1.4162    2.5208 H   0  0  0  0  0  0  0  0  0  0  0  0
   -2.8146    2.0514    1.0903 H   0  0  0  0  0  0  0  0  0  0  0  0
  1  2  1  0  0  0  0
  1 10  1  0  0  0  0
  2 11  1  1  0  0  0
  2  8  1  0  0  0  0
  3 12  1  6  0  0  0
  3  4  1  0  0  0  0
  3  2  1  0  0  0  0
  3  9  1  0  0  0  0
  4 14  1  0  0  0  0
  4  5  1  0  0  0  0
  5 15  1  6  0  0  0
  5  6  1  0  0  0  0
  6  7  1  0  0  0  0
  7 17  1  0  0  0  0
  7 16  1  0  0  0  0
  8 18  1  1  0  0  0
  8  7  1  0  0  0  0
  9 19  1  6  0  0  0
  9  5  1  0  0  0  0
  9  8  1  0  0  0  0
 13  4  1  0  0  0  0
M TOR 0 0 1 2 3
M TOR 1 0 1 2 8
M TOR 2 0 1 2 11
M TOR 3 0 1 7 6
M TOR 4 0 1 7 8
M TOR 5 0 1 7 17
M TOR 6 1 2 3 4
M TOR 7 1 2 3 12
M TOR 8 1 2 3 13
M TOR 9 1 2 8 4
M TOR 10 1 2 8 7
M TOR 11 1 2 8 18
M TOR 12 1 7 6 5
M TOR 13 1 7 6 15
M TOR 14 1 7 6 16
M TOR 15 1 7 8 4
M TOR 16 1 7 8 18
M TOR 17 2 1 0 9
M TOR 18 2 1 7 6
M TOR 19 2 1 7 17
M TOR 20 2 3 4 5
M TOR 21 2 3 4 8
M TOR 22 2 3 4 14
M TOR 23 2 8 4 5
M TOR 24 2 8 4 14
M TOR 25 2 8 7 6
M TOR 26 2 8 7 17
M TOR 27 3 2 1 7
M TOR 28 3 2 1 10
M TOR 29 3 2 8 7
M TOR 30 3 2 8 18
M TOR 31 3 4 5 6
M TOR 32 3 4 8 7
M TOR 33 3 4 8 18
M TOR 34 4 3 2 11
M TOR 35 4 5 6 7
M TOR 36 4 5 6 15
M TOR 37 4 5 6 16
M TOR 38 4 8 2 11
M TOR 39 4 8 7 6
M TOR 40 4 8 7 17
M TOR 41 5 4 3 12
M TOR 42 5 4 3 13
M TOR 43 5 4 8 7
M TOR 44 5 4 8 18
M TOR 45 5 6 7 8
M TOR 46 5 6 7 17
M TOR 47 6 5 4 8
M TOR 48 6 5 4 14
M TOR 49 6 7 1 10
M TOR 50 6 7 8 18
M TOR 51 7 1 0 9
M TOR 52 7 1 2 11
M TOR 53 7 8 2 11
M TOR 54 7 8 4 14
M TOR 55 8 2 1 10
M TOR 56 8 2 3 12
M TOR 57 8 2 3 13
M TOR 58 8 4 3 12
M TOR 59 8 4 3 13
M TOR 60 8 7 1 10
M TOR 61 8 7 6 15
M TOR 62 8 7 6 16
M  END
$$$$
