gdb 5675	2.717616	1.1320609	0.9489307	3.3482	78.7	-0.24033	-0.02884	0.21148999999999998	1296.3893	0.155879	-422.563665	-422.554528	-422.553584	-422.598446	32.551
 OpenBabel02181911423D

 19 19  0  0  1  0  0  0  0  0999 V2000
    1.3125   -0.3332   -0.0363 C   0  0  0  0  0  0  0  0  0  0  0  0
   -0.0456   -0.3444    0.3444 O   0  0  0  0  0  0  0  0  0  0  0  0
   -0.3866    0.6586    1.2988 C   0  0  2  0  0  0  0  0  0  0  0  0
   -0.0740    0.2419    2.7596 C   0  0  0  0  0  0  0  0  0  0  0  0
   -1.3948   -0.3497    3.3188 C   0  0  2  0  0  0  0  0  0  0  0  0
   -1.4306   -1.8697    3.1954 C   0  0  0  0  0  0  0  0  0  0  0  0
   -1.7971   -2.6215    4.0601 O   0  0  0  0  0  0  0  0  0  0  0  0
   -2.4336    0.2479    2.3903 C   0  0  0  0  0  0  0  0  0  0  0  0
   -1.8899    0.7925    1.3035 C   0  0  0  0  0  0  0  0  0  0  0  0
    1.9884   -0.5408    0.8072 H   0  0  0  0  0  0  0  0  0  0  0  0
    1.4433   -1.1165   -0.7867 H   0  0  0  0  0  0  0  0  0  0  0  0
    1.6018    0.6336   -0.4767 H   0  0  0  0  0  0  0  0  0  0  0  0
    0.1246    1.5939    1.0242 H   0  0  0  0  0  0  0  0  0  0  0  0
    0.7673   -0.4557    2.8087 H   0  0  0  0  0  0  0  0  0  0  0  0
    0.1954    1.1221    3.3503 H   0  0  0  0  0  0  0  0  0  0  0  0
   -1.5684   -0.1010    4.3697 H   0  0  0  0  0  0  0  0  0  0  0  0
   -1.0897   -2.2356    2.2007 H   0  0  0  0  0  0  0  0  0  0  0  0
   -3.4949    0.1767    2.5999 H   0  0  0  0  0  0  0  0  0  0  0  0
   -2.4302    1.2366    0.4762 H   0  0  0  0  0  0  0  0  0  0  0  0
  1  2  1  0  0  0  0
  1 10  1  0  0  0  0
  2  3  1  0  0  0  0
  3 13  1  6  0  0  0
  3  9  1  0  0  0  0
  3  4  1  0  0  0  0
  4 14  1  0  0  0  0
  4  5  1  0  0  0  0
  4 15  1  0  0  0  0
  5 16  1  1  0  0  0
  6  5  1  0  0  0  0
  6  7  2  0  0  0  0
  8 18  1  0  0  0  0
  8  5  1  0  0  0  0
  9  8  2  0  0  0  0
 11  1  1  0  0  0  0
 12  1  1  0  0  0  0
 17  6  1  0  0  0  0
 19  9  1  0  0  0  0
M TOR 0 0 1 2 3
M TOR 1 0 1 2 8
M TOR 2 0 1 2 12
M TOR 3 1 2 3 4
M TOR 4 1 2 3 13
M TOR 5 1 2 3 14
M TOR 6 1 2 8 7
M TOR 7 1 2 8 18
M TOR 8 2 1 0 9
M TOR 9 2 1 0 10
M TOR 10 2 1 0 11
M TOR 11 2 3 4 5
M TOR 12 2 3 4 7
M TOR 13 2 3 4 15
M TOR 14 2 8 7 4
M TOR 15 2 8 7 17
M TOR 16 3 2 8 7
M TOR 17 3 2 8 18
M TOR 18 3 4 5 6
M TOR 19 3 4 5 16
M TOR 20 3 4 7 8
M TOR 21 3 4 7 17
M TOR 22 4 3 2 8
M TOR 23 4 3 2 12
M TOR 24 4 7 8 18
M TOR 25 5 4 3 13
M TOR 26 5 4 3 14
M TOR 27 5 4 7 8
M TOR 28 5 4 7 17
M TOR 29 6 5 4 7
M TOR 30 6 5 4 15
M TOR 31 7 4 3 13
M TOR 32 7 4 3 14
M TOR 33 7 4 5 16
M TOR 34 7 8 2 12
M TOR 35 8 2 3 13
M TOR 36 8 2 3 14
M TOR 37 8 7 4 15
M  END
$$$$
