
     RDKit          3D

 19 21  0  0  0  0  0  0  0  0999 V2000
    0.0051    0.1541    0.0068 C   0  0  0  0  0  0  0  0  0  0  0  0
    1.5174    0.0635   -0.0099 C   0  0  0  0  0  0  0  0  0  0  0  0
    2.1468   -1.0441   -0.8526 C   0  0  0  0  0  0  0  0  0  0  0  0
    3.6648   -1.1063   -1.0908 C   0  0  0  0  0  0  0  0  0  0  0  0
    4.2895   -0.0839   -0.1175 C   0  0  0  0  0  0  0  0  0  0  0  0
    3.7055   -1.1266    0.8583 C   0  0  0  0  0  0  0  0  0  0  0  0
    4.0751   -2.1599   -0.1303 O   0  0  0  0  0  0  0  0  0  0  0  0
    2.1729   -1.0991    0.6716 C   0  0  0  0  0  0  0  0  0  0  0  0
    1.4129   -1.9647    1.4460 O   0  0  0  0  0  0  0  0  0  0  0  0
   -0.3412    0.6725    0.9066 H   0  0  0  0  0  0  0  0  0  0  0  0
   -0.3574    0.7092   -0.8645 H   0  0  0  0  0  0  0  0  0  0  0  0
   -0.4515   -0.8380    0.0037 H   0  0  0  0  0  0  0  0  0  0  0  0
    2.0077    1.0312    0.0286 H   0  0  0  0  0  0  0  0  0  0  0  0
    1.4930   -1.6915   -1.4256 H   0  0  0  0  0  0  0  0  0  0  0  0
    4.0317   -1.2764   -2.1024 H   0  0  0  0  0  0  0  0  0  0  0  0
    5.3773   -0.1441   -0.1358 H   0  0  0  0  0  0  0  0  0  0  0  0
    3.9576    0.9544   -0.1019 H   0  0  0  0  0  0  0  0  0  0  0  0
    4.0882   -1.3118    1.8618 H   0  0  0  0  0  0  0  0  0  0  0  0
    1.7274   -2.8580    1.2604 H   0  0  0  0  0  0  0  0  0  0  0  0
  1  2  1  0
  2  3  1  0
  3  4  1  0
  4  5  1  0
  5  6  1  0
  6  7  1  0
  6  8  1  0
  8  9  1  0
  8  2  1  0
  8  3  1  0
  7  4  1  0
  1 10  1  0
  1 11  1  0
  1 12  1  0
  2 13  1  0
  3 14  1  0
  4 15  1  0
  5 16  1  0
  5 17  1  0
  6 18  1  0
  9 19  1  0
M  END
$$$$
