gdb 1613	2.6086238	1.3720611	1.0588532	0.9982	78.42	-0.2556	-0.05685	0.19874999999999998	1168.5786	0.15322	-422.571911	-422.561981	-422.561037	-422.606164	35.785
 OpenBabel02181911403D

 19 19  0  0  1  0  0  0  0  0999 V2000
    0.0611    0.3580   -0.3090 C   0  0  0  0  0  0  0  0  0  0  0  0
    1.0137    0.0924    0.8416 C   0  0  2  0  0  0  0  0  0  0  0  0
    2.3323    0.8071    0.9410 C   0  0  0  0  0  0  0  0  0  0  0  0
    2.3847   -0.6597    0.6165 C   0  0  1  0  0  0  0  0  0  0  0  0
    2.9054   -1.6687    1.6226 C   0  0  0  0  0  0  0  0  0  0  0  0
    2.6937   -1.0242   -0.8015 C   0  0  0  0  0  0  0  0  0  0  0  0
    2.6685   -0.2727   -1.7473 O   0  0  0  0  0  0  0  0  0  0  0  0
    0.3156   -0.2134    2.1294 C   0  0  0  0  0  0  0  0  0  0  0  0
    0.8080   -0.1607    3.2314 O   0  0  0  0  0  0  0  0  0  0  0  0
   -0.5568    1.2343   -0.0830 H   0  0  0  0  0  0  0  0  0  0  0  0
    0.5968    0.5539   -1.2367 H   0  0  0  0  0  0  0  0  0  0  0  0
   -0.6135   -0.4902   -0.4720 H   0  0  0  0  0  0  0  0  0  0  0  0
    2.5789    1.4880    0.1334 H   0  0  0  0  0  0  0  0  0  0  0  0
    2.6492    1.0966    1.9373 H   0  0  0  0  0  0  0  0  0  0  0  0
    2.6455   -1.3896    2.6426 H   0  0  0  0  0  0  0  0  0  0  0  0
    2.5062   -2.6703    1.4261 H   0  0  0  0  0  0  0  0  0  0  0  0
    3.9976   -1.7282    1.5555 H   0  0  0  0  0  0  0  0  0  0  0  0
    2.9769   -2.0918   -0.9363 H   0  0  0  0  0  0  0  0  0  0  0  0
   -0.7526   -0.4976    2.0014 H   0  0  0  0  0  0  0  0  0  0  0  0
  1 10  1  0  0  0  0
  1  2  1  0  0  0  0
  2  3  1  0  0  0  0
  2  8  1  1  0  0  0
  3 14  1  0  0  0  0
  4  6  1  6  0  0  0
  4  2  1  0  0  0  0
  4  3  1  0  0  0  0
  4  5  1  0  0  0  0
  5 15  1  0  0  0  0
  7  6  2  0  0  0  0
  8  9  2  0  0  0  0
 11  1  1  0  0  0  0
 12  1  1  0  0  0  0
 13  3  1  0  0  0  0
 16  5  1  0  0  0  0
 17  5  1  0  0  0  0
 18  6  1  0  0  0  0
 19  8  1  0  0  0  0
M TOR 0 0 1 2 3
M TOR 1 0 1 2 12
M TOR 2 0 1 2 13
M TOR 3 0 1 3 4
M TOR 4 0 1 3 5
M TOR 5 0 1 7 8
M TOR 6 0 1 7 18
M TOR 7 1 2 3 4
M TOR 8 1 2 3 5
M TOR 9 1 3 2 12
M TOR 10 1 3 2 13
M TOR 11 1 3 4 14
M TOR 12 1 3 4 15
M TOR 13 1 3 4 16
M TOR 14 1 3 5 6
M TOR 15 1 3 5 17
M TOR 16 2 1 0 9
M TOR 17 2 1 0 10
M TOR 18 2 1 0 11
M TOR 19 2 1 7 8
M TOR 20 2 1 7 18
M TOR 21 2 3 1 7
M TOR 22 2 3 4 14
M TOR 23 2 3 4 15
M TOR 24 2 3 4 16
M TOR 25 2 3 5 6
M TOR 26 2 3 5 17
M TOR 27 3 1 0 9
M TOR 28 3 1 0 10
M TOR 29 3 1 0 11
M TOR 30 3 1 7 8
M TOR 31 3 1 7 18
M TOR 32 4 3 1 7
M TOR 33 4 3 2 12
M TOR 34 4 3 2 13
M TOR 35 4 3 5 6
M TOR 36 4 3 5 17
M TOR 37 5 3 1 7
M TOR 38 5 3 2 12
M TOR 39 5 3 2 13
M TOR 40 5 3 4 14
M TOR 41 5 3 4 15
M TOR 42 5 3 4 16
M TOR 43 7 1 0 9
M TOR 44 7 1 0 10
M TOR 45 7 1 0 11
M TOR 46 7 1 2 12
M TOR 47 7 1 2 13
M  END
$$$$
