
     RDKit          3D

 19 21  0  0  0  0  0  0  0  0999 V2000
    0.1071   -0.3845   -0.2852 C   0  0  0  0  0  0  0  0  0  0  0  0
    0.9911    0.3929    0.6550 C   0  0  0  0  0  0  0  0  0  0  0  0
    2.1650   -0.2823    1.1469 O   0  0  0  0  0  0  0  0  0  0  0  0
    2.3357    0.8489    0.3014 C   0  0  0  0  0  0  0  0  0  0  0  0
    3.0610    2.1443    0.7258 C   0  0  0  0  0  0  0  0  0  0  0  0
    3.7906    2.0967   -0.6290 C   0  0  0  0  0  0  0  0  0  0  0  0
    3.9999    3.2007   -1.4332 O   0  0  0  0  0  0  0  0  0  0  0  0
    4.5514    0.8142   -0.7827 C   0  0  0  0  0  0  0  0  0  0  0  0
    3.0505    0.8205   -1.0278 C   0  0  0  0  0  0  0  0  0  0  0  0
   -0.4787   -1.1273    0.2663 H   0  0  0  0  0  0  0  0  0  0  0  0
   -0.5942    0.2849   -0.7953 H   0  0  0  0  0  0  0  0  0  0  0  0
    0.7016   -0.9096   -1.0369 H   0  0  0  0  0  0  0  0  0  0  0  0
    0.4623    0.9602    1.4246 H   0  0  0  0  0  0  0  0  0  0  0  0
    2.3817    2.9978    0.7973 H   0  0  0  0  0  0  0  0  0  0  0  0
    3.6779    2.0850    1.6281 H   0  0  0  0  0  0  0  0  0  0  0  0
    4.8591    3.5771   -1.2130 H   0  0  0  0  0  0  0  0  0  0  0  0
    5.1406    0.7522   -1.6922 H   0  0  0  0  0  0  0  0  0  0  0  0
    4.9684    0.2892    0.0729 H   0  0  0  0  0  0  0  0  0  0  0  0
    2.6323    0.5355   -1.9849 H   0  0  0  0  0  0  0  0  0  0  0  0
  1  2  1  0
  2  3  1  0
  3  4  1  0
  4  5  1  0
  5  6  1  0
  6  7  1  0
  6  8  1  0
  8  9  1  0
  4  2  1  0
  9  4  1  0
  9  6  1  0
  1 10  1  0
  1 11  1  0
  1 12  1  0
  2 13  1  0
  5 14  1  0
  5 15  1  0
  7 16  1  0
  8 17  1  0
  8 18  1  0
  9 19  1  0
M  END
$$$$
