
     RDKit          3D

 19 18  0  0  0  0  0  0  0  0999 V2000
    1.4146   -0.2480    0.0719 C   0  0  0  0  0  0  0  0  0  0  0  0
   -0.0268   -0.0745    0.0201 C   0  0  0  0  0  0  0  0  0  0  0  0
   -1.2242    0.0697   -0.0356 C   0  0  0  0  0  0  0  0  0  0  0  0
   -2.6622    0.2528   -0.1045 C   0  0  0  0  0  0  0  0  0  0  0  0
   -3.2030    0.6691   -1.1076 O   0  0  0  0  0  0  0  0  0  0  0  0
   -3.4362   -0.1097    1.1538 C   0  0  0  0  0  0  0  0  0  0  0  0
   -3.3319   -1.6033    1.5024 C   0  0  0  0  0  0  0  0  0  0  0  0
   -4.0796   -1.9487    2.7841 C   0  0  0  0  0  0  0  0  0  0  0  0
   -3.9109   -3.3369    3.0215 O   0  0  0  0  0  0  0  0  0  0  0  0
    1.8220    0.1124    1.0225 H   0  0  0  0  0  0  0  0  0  0  0  0
    1.6777   -1.3075   -0.0209 H   0  0  0  0  0  0  0  0  0  0  0  0
    1.9101    0.2938   -0.7403 H   0  0  0  0  0  0  0  0  0  0  0  0
   -3.0380    0.4873    1.9854 H   0  0  0  0  0  0  0  0  0  0  0  0
   -4.4762    0.1854    0.9860 H   0  0  0  0  0  0  0  0  0  0  0  0
   -3.7377   -2.2087    0.6842 H   0  0  0  0  0  0  0  0  0  0  0  0
   -2.2814   -1.8892    1.6207 H   0  0  0  0  0  0  0  0  0  0  0  0
   -3.6800   -1.3480    3.6184 H   0  0  0  0  0  0  0  0  0  0  0  0
   -5.1448   -1.6867    2.6764 H   0  0  0  0  0  0  0  0  0  0  0  0
   -4.4101   -3.5711    3.8092 H   0  0  0  0  0  0  0  0  0  0  0  0
  1  2  1  0
  2  3  3  0
  3  4  1  0
  4  5  2  0
  4  6  1  0
  6  7  1  0
  7  8  1  0
  8  9  1  0
  1 10  1  0
  1 11  1  0
  1 12  1  0
  6 13  1  0
  6 14  1  0
  7 15  1  0
  7 16  1  0
  8 17  1  0
  8 18  1  0
  9 19  1  0
M  END
$$$$
