gdb 4860	2.0235707	1.6148507	1.4932137	2.9363	76.76	-0.23096	-0.02686	0.2041	1056.5816	0.15477	-422.575487	-422.566118	-422.565173	-422.609599	34.169
 OpenBabel02181911413D

 19 19  0  0  1  0  0  0  0  0999 V2000
    1.4045   -0.0772   -0.1582 C   0  0  0  0  0  0  0  0  0  0  0  0
    0.0036    0.0617   -0.0071 O   0  0  0  0  0  0  0  0  0  0  0  0
   -0.4373    0.7438    1.1565 C   0  0  2  0  0  0  0  0  0  0  0  0
   -1.9636    0.6182    1.1372 C   0  0  0  0  0  0  0  0  0  0  0  0
    0.0449    2.1731    1.2672 C   0  0  0  0  0  0  0  0  0  0  0  0
    0.6355    2.4396    2.4333 C   0  0  0  0  0  0  0  0  0  0  0  0
    0.6953    1.2439    3.3473 C   0  0  0  0  0  0  0  0  0  0  0  0
    0.1210    0.1195    2.4751 C   0  0  0  0  0  0  0  0  0  0  0  0
    0.1146   -1.0536    2.7350 O   0  0  0  0  0  0  0  0  0  0  0  0
    1.8375   -0.7270    0.6140 H   0  0  0  0  0  0  0  0  0  0  0  0
    1.5646   -0.5409   -1.1341 H   0  0  0  0  0  0  0  0  0  0  0  0
    1.9218    0.8917   -0.1368 H   0  0  0  0  0  0  0  0  0  0  0  0
   -2.4141    1.1277    1.9935 H   0  0  0  0  0  0  0  0  0  0  0  0
   -2.3563    1.0612    0.2177 H   0  0  0  0  0  0  0  0  0  0  0  0
   -2.2351   -0.4402    1.1650 H   0  0  0  0  0  0  0  0  0  0  0  0
   -0.1107    2.8840    0.4631 H   0  0  0  0  0  0  0  0  0  0  0  0
    1.0287    3.4081    2.7222 H   0  0  0  0  0  0  0  0  0  0  0  0
    1.7042    0.9911    3.6953 H   0  0  0  0  0  0  0  0  0  0  0  0
    0.0812    1.3585    4.2508 H   0  0  0  0  0  0  0  0  0  0  0  0
  1 12  1  0  0  0  0
  1  2  1  0  0  0  0
  1 10  1  0  0  0  0
  3  2  1  6  0  0  0
  3  5  1  0  0  0  0
  3  8  1  0  0  0  0
  4  3  1  0  0  0  0
  4 15  1  0  0  0  0
  4 13  1  0  0  0  0
  5  6  2  0  0  0  0
  6 17  1  0  0  0  0
  6  7  1  0  0  0  0
  7 18  1  0  0  0  0
  7 19  1  0  0  0  0
  8  9  2  0  0  0  0
  8  7  1  0  0  0  0
 11  1  1  0  0  0  0
 14  4  1  0  0  0  0
 16  5  1  0  0  0  0
M TOR 0 0 1 2 3
M TOR 1 0 1 2 4
M TOR 2 0 1 2 7
M TOR 3 1 2 3 12
M TOR 4 1 2 3 13
M TOR 5 1 2 3 14
M TOR 6 1 2 4 5
M TOR 7 1 2 4 15
M TOR 8 1 2 7 6
M TOR 9 1 2 7 8
M TOR 10 2 1 0 9
M TOR 11 2 1 0 10
M TOR 12 2 1 0 11
M TOR 13 2 4 5 6
M TOR 14 2 4 5 16
M TOR 15 2 7 6 5
M TOR 16 2 7 6 17
M TOR 17 2 7 6 18
M TOR 18 3 2 4 5
M TOR 19 3 2 4 15
M TOR 20 3 2 7 6
M TOR 21 3 2 7 8
M TOR 22 4 2 3 12
M TOR 23 4 2 3 13
M TOR 24 4 2 3 14
M TOR 25 4 2 7 6
M TOR 26 4 2 7 8
M TOR 27 4 5 6 7
M TOR 28 4 5 6 17
M TOR 29 4 5 6 18
M TOR 30 5 4 2 7
M TOR 31 5 6 7 8
M TOR 32 6 5 4 15
M TOR 33 7 2 3 12
M TOR 34 7 2 3 13
M TOR 35 7 2 3 14
M TOR 36 7 2 4 15
M TOR 37 7 6 5 16
M TOR 38 8 7 6 17
M TOR 39 8 7 6 18
M  END
$$$$
