
     RDKit          3D

 19 19  0  0  0  0  0  0  0  0999 V2000
    1.1421    0.3464   -0.7007 C   0  0  0  0  0  0  0  0  0  0  0  0
   -0.2506    0.1661   -0.3188 C   0  0  0  0  0  0  0  0  0  0  0  0
   -1.4060    0.0209   -0.0121 C   0  0  0  0  0  0  0  0  0  0  0  0
   -2.8062   -0.1830    0.3726 C   0  0  0  0  0  0  0  0  0  0  0  0
   -3.6681    1.0933    0.2667 C   0  0  0  0  0  0  0  0  0  0  0  0
   -4.1041    1.0937   -1.2128 C   0  0  0  0  0  0  0  0  0  0  0  0
   -3.2423    1.8406   -2.0599 O   0  0  0  0  0  0  0  0  0  0  0  0
   -3.9690   -0.3930   -1.6152 C   0  0  0  0  0  0  0  0  0  0  0  0
   -3.4856   -1.1066   -0.4806 O   0  0  0  0  0  0  0  0  0  0  0  0
    1.7210    0.7971    0.1132 H   0  0  0  0  0  0  0  0  0  0  0  0
    1.6128   -0.6111   -0.9494 H   0  0  0  0  0  0  0  0  0  0  0  0
    1.2339    0.9997   -1.5754 H   0  0  0  0  0  0  0  0  0  0  0  0
   -2.8446   -0.6151    1.3781 H   0  0  0  0  0  0  0  0  0  0  0  0
   -4.5410    0.9835    0.9172 H   0  0  0  0  0  0  0  0  0  0  0  0
   -3.1341    2.0050    0.5432 H   0  0  0  0  0  0  0  0  0  0  0  0
   -5.1386    1.4471   -1.3185 H   0  0  0  0  0  0  0  0  0  0  0  0
   -3.2948    2.7653   -1.7984 H   0  0  0  0  0  0  0  0  0  0  0  0
   -4.9191   -0.8492   -1.9061 H   0  0  0  0  0  0  0  0  0  0  0  0
   -3.2676   -0.4548   -2.4567 H   0  0  0  0  0  0  0  0  0  0  0  0
  1  2  1  0
  2  3  3  0
  3  4  1  0
  4  5  1  0
  5  6  1  0
  6  7  1  0
  6  8  1  0
  8  9  1  0
  9  4  1  0
  1 10  1  0
  1 11  1  0
  1 12  1  0
  4 13  1  0
  5 14  1  0
  5 15  1  0
  6 16  1  0
  7 17  1  0
  8 18  1  0
  8 19  1  0
M  END
$$$$
