gdb 655	5.3813032	0.8068641	0.7325418	1.1313	75.89	-0.2469	-0.02413	0.22277000000000002	1498.0191	0.156005	-422.535623	-422.526855	-422.525911	-422.571087	31.22
 OpenBabel02181911403D

 19 20  0  0  0  0  0  0  0  0999 V2000
    1.2571   -0.0005    0.6252 O   0  0  0  0  0  0  0  0  0  0  0  0
    0.1176   -0.0004    0.2636 C   0  0  0  0  0  0  0  0  0  0  0  0
   -0.9120   -1.1076   -0.0153 C   0  0  0  0  0  0  0  0  0  0  0  0
   -2.0182   -0.0008   -0.0374 C   0  0  0  0  0  0  0  0  0  0  0  0
   -0.9129    1.1068   -0.0120 C   0  0  0  0  0  0  0  0  0  0  0  0
   -2.9768    0.0005   -1.2095 C   0  0  0  0  0  0  0  0  0  0  0  0
   -4.1270    1.0366   -1.1940 C   0  0  0  0  0  0  0  0  0  0  0  0
   -5.1272   -0.0003   -1.2255 O   0  0  0  0  0  0  0  0  0  0  0  0
   -4.1262   -1.0365   -1.1971 C   0  0  0  0  0  0  0  0  0  0  0  0
   -0.7451   -1.5717   -0.9946 H   0  0  0  0  0  0  0  0  0  0  0  0
   -0.9839   -1.8996    0.7342 H   0  0  0  0  0  0  0  0  0  0  0  0
   -2.5820   -0.0025    0.9011 H   0  0  0  0  0  0  0  0  0  0  0  0
   -0.7464    1.5740   -0.9899 H   0  0  0  0  0  0  0  0  0  0  0  0
   -0.9854    1.8965    0.7399 H   0  0  0  0  0  0  0  0  0  0  0  0
   -2.4151    0.0022   -2.1493 H   0  0  0  0  0  0  0  0  0  0  0  0
   -4.1924    1.6442   -0.2809 H   0  0  0  0  0  0  0  0  0  0  0  0
   -4.1945    1.6999   -2.0647 H   0  0  0  0  0  0  0  0  0  0  0  0
   -4.1911   -1.6469   -0.2858 H   0  0  0  0  0  0  0  0  0  0  0  0
   -4.1932   -1.6972   -2.0698 H   0  0  0  0  0  0  0  0  0  0  0  0
  2  1  2  0  0  0  0
  3  2  1  0  0  0  0
  3 11  1  0  0  0  0
  4  3  1  0  0  0  0
  4  5  1  0  0  0  0
  4 12  1  0  0  0  0
  5  2  1  0  0  0  0
  5 14  1  0  0  0  0
  6  9  1  0  0  0  0
  6  7  1  0  0  0  0
  6  4  1  0  0  0  0
  7 16  1  0  0  0  0
  8  9  1  0  0  0  0
  8  7  1  0  0  0  0
  9 18  1  0  0  0  0
 10  3  1  0  0  0  0
 13  5  1  0  0  0  0
 15  6  1  0  0  0  0
 17  7  1  0  0  0  0
 19  9  1  0  0  0  0
M TOR 0 0 1 2 3
M TOR 1 0 1 2 9
M TOR 2 0 1 2 10
M TOR 3 0 1 4 3
M TOR 4 0 1 4 12
M TOR 5 0 1 4 13
M TOR 6 1 2 3 4
M TOR 7 1 2 3 5
M TOR 8 1 2 3 11
M TOR 9 1 4 3 5
M TOR 10 1 4 3 11
M TOR 11 2 1 4 12
M TOR 12 2 1 4 13
M TOR 13 2 3 4 12
M TOR 14 2 3 4 13
M TOR 15 2 3 5 6
M TOR 16 2 3 5 8
M TOR 17 2 3 5 14
M TOR 18 3 5 6 7
M TOR 19 3 5 6 15
M TOR 20 3 5 6 16
M TOR 21 3 5 8 7
M TOR 22 3 5 8 17
M TOR 23 3 5 8 18
M TOR 24 4 1 2 9
M TOR 25 4 1 2 10
M TOR 26 4 3 2 9
M TOR 27 4 3 2 10
M TOR 28 4 3 5 6
M TOR 29 4 3 5 8
M TOR 30 4 3 5 14
M TOR 31 5 3 2 9
M TOR 32 5 3 2 10
M TOR 33 5 3 4 12
M TOR 34 5 3 4 13
M TOR 35 5 6 7 8
M TOR 36 6 5 3 11
M TOR 37 6 5 8 17
M TOR 38 6 5 8 18
M TOR 39 6 7 8 17
M TOR 40 6 7 8 18
M TOR 41 7 6 5 14
M TOR 42 7 8 5 14
M TOR 43 8 5 3 11
M TOR 44 8 5 6 15
M TOR 45 8 5 6 16
M TOR 46 8 7 6 15
M TOR 47 8 7 6 16
M  END
$$$$
