
     RDKit          3D

 19 20  0  0  0  0  0  0  0  0999 V2000
    1.7824   -0.6916   -1.5875 C   0  0  0  0  0  0  0  0  0  0  0  0
    1.5876    0.0052   -0.2392 C   0  0  0  0  0  0  0  0  0  0  0  0
    2.0077    1.4836   -0.2742 C   0  0  0  0  0  0  0  0  0  0  0  0
    1.7906    2.1770    1.0301 C   0  0  0  0  0  0  0  0  0  0  0  0
    2.6486    2.2355    2.2395 C   0  0  0  0  0  0  0  0  0  0  0  0
    2.1701    3.5386    1.5704 C   0  0  0  0  0  0  0  0  0  0  0  0
    0.7009    3.6749    1.8545 C   0  0  0  0  0  0  0  0  0  0  0  0
   -0.0612    4.5090    2.2195 O   0  0  0  0  0  0  0  0  0  0  0  0
    0.4013    2.3749    1.4606 O   0  0  0  0  0  0  0  0  0  0  0  0
    1.4707   -1.7391   -1.5394 H   0  0  0  0  0  0  0  0  0  0  0  0
    1.1943   -0.2049   -2.3733 H   0  0  0  0  0  0  0  0  0  0  0  0
    2.8328   -0.6701   -1.8990 H   0  0  0  0  0  0  0  0  0  0  0  0
    0.5365   -0.0548    0.0647 H   0  0  0  0  0  0  0  0  0  0  0  0
    2.1636   -0.5135    0.5369 H   0  0  0  0  0  0  0  0  0  0  0  0
    3.0699    1.5665   -0.5360 H   0  0  0  0  0  0  0  0  0  0  0  0
    1.4448    2.0110   -1.0540 H   0  0  0  0  0  0  0  0  0  0  0  0
    2.2517    1.9443    3.2065 H   0  0  0  0  0  0  0  0  0  0  0  0
    3.7059    2.0347    2.0917 H   0  0  0  0  0  0  0  0  0  0  0  0
    2.8425    4.3029    1.2092 H   0  0  0  0  0  0  0  0  0  0  0  0
  1  2  1  0
  2  3  1  0
  3  4  1  0
  4  5  1  0
  5  6  1  0
  6  7  1  0
  7  8  2  0
  7  9  1  0
  6  4  1  0
  9  4  1  0
  1 10  1  0
  1 11  1  0
  1 12  1  0
  2 13  1  0
  2 14  1  0
  3 15  1  0
  3 16  1  0
  5 17  1  0
  5 18  1  0
  6 19  1  0
M  END
$$$$
