
     RDKit          3D

 19 19  0  0  0  0  0  0  0  0999 V2000
    1.3828    0.7705    0.1466 C   0  0  0  0  0  0  0  0  0  0  0  0
    0.0316    0.1398   -0.0878 C   0  0  0  0  0  0  0  0  0  0  0  0
   -0.1160   -1.1796    0.1131 C   0  0  0  0  0  0  0  0  0  0  0  0
   -1.2351   -2.1365   -0.0928 C   0  0  0  0  0  0  0  0  0  0  0  0
   -0.9968   -3.3114   -0.2336 O   0  0  0  0  0  0  0  0  0  0  0  0
   -2.5331   -1.7473   -0.1119 O   0  0  0  0  0  0  0  0  0  0  0  0
   -2.9310   -0.4006    0.1440 C   0  0  0  0  0  0  0  0  0  0  0  0
   -2.3936    0.5785   -0.8953 C   0  0  0  0  0  0  0  0  0  0  0  0
   -1.0142    1.1275   -0.5356 C   0  0  0  0  0  0  0  0  0  0  0  0
    1.3067    1.5973    0.8639 H   0  0  0  0  0  0  0  0  0  0  0  0
    2.1112    0.0510    0.5251 H   0  0  0  0  0  0  0  0  0  0  0  0
    1.7753    1.2018   -0.7828 H   0  0  0  0  0  0  0  0  0  0  0  0
    0.7668   -1.7401    0.4067 H   0  0  0  0  0  0  0  0  0  0  0  0
   -4.0221   -0.4415    0.1131 H   0  0  0  0  0  0  0  0  0  0  0  0
   -2.6332   -0.1049    1.1588 H   0  0  0  0  0  0  0  0  0  0  0  0
   -2.3749    0.0653   -1.8631 H   0  0  0  0  0  0  0  0  0  0  0  0
   -3.0900    1.4180   -0.9979 H   0  0  0  0  0  0  0  0  0  0  0  0
   -0.6087    1.6987   -1.3820 H   0  0  0  0  0  0  0  0  0  0  0  0
   -1.1199    1.8689    0.2714 H   0  0  0  0  0  0  0  0  0  0  0  0
  1  2  1  0
  2  3  2  0
  3  4  1  0
  4  5  2  0
  4  6  1  0
  6  7  1  0
  7  8  1  0
  8  9  1  0
  9  2  1  0
  1 10  1  0
  1 11  1  0
  1 12  1  0
  3 13  1  0
  7 14  1  0
  7 15  1  0
  8 16  1  0
  8 17  1  0
  9 18  1  0
  9 19  1  0
M  END
$$$$
