
     RDKit          3D

 19 18  0  0  0  0  0  0  0  0999 V2000
    6.9335    1.0583    0.8087 C   0  0  0  0  0  0  0  0  0  0  0  0
    5.4281    0.9980    0.5596 C   0  0  0  0  0  0  0  0  0  0  0  0
    4.6907    0.0952    1.5372 C   0  0  0  0  0  0  0  0  0  0  0  0
    5.2742   -0.6323    2.3068 O   0  0  0  0  0  0  0  0  0  0  0  0
    3.1616    0.1503    1.5371 C   0  0  0  0  0  0  0  0  0  0  0  0
    2.5365    0.0345    0.1310 C   0  0  0  0  0  0  0  0  0  0  0  0
    3.0907   -1.0584   -0.5965 O   0  0  0  0  0  0  0  0  0  0  0  0
    1.0760   -0.0440    0.2137 C   0  0  0  0  0  0  0  0  0  0  0  0
   -0.1179   -0.1446    0.3091 C   0  0  0  0  0  0  0  0  0  0  0  0
    7.1522    1.4719    1.7970 H   0  0  0  0  0  0  0  0  0  0  0  0
    7.3702    0.0578    0.7715 H   0  0  0  0  0  0  0  0  0  0  0  0
    7.4247    1.6825    0.0572 H   0  0  0  0  0  0  0  0  0  0  0  0
    4.9743    1.9981    0.5911 H   0  0  0  0  0  0  0  0  0  0  0  0
    5.2158    0.6102   -0.4459 H   0  0  0  0  0  0  0  0  0  0  0  0
    2.8008   -0.6574    2.1802 H   0  0  0  0  0  0  0  0  0  0  0  0
    2.8420    1.0986    1.9887 H   0  0  0  0  0  0  0  0  0  0  0  0
    2.8085    0.9178   -0.4578 H   0  0  0  0  0  0  0  0  0  0  0  0
    2.7943   -1.8736   -0.1754 H   0  0  0  0  0  0  0  0  0  0  0  0
   -1.1753   -0.2223    0.3766 H   0  0  0  0  0  0  0  0  0  0  0  0
  1  2  1  0
  2  3  1  0
  3  4  2  0
  3  5  1  0
  5  6  1  0
  6  7  1  0
  6  8  1  0
  8  9  3  0
  1 10  1  0
  1 11  1  0
  1 12  1  0
  2 13  1  0
  2 14  1  0
  5 15  1  0
  5 16  1  0
  6 17  1  0
  7 18  1  0
  9 19  1  0
M  END
$$$$
