
     RDKit          3D

 19 21  0  0  0  0  0  0  0  0999 V2000
    0.2907    0.7286    0.4073 C   0  0  0  0  0  0  0  0  0  0  0  0
    1.5923    0.0331    0.1263 C   0  0  0  0  0  0  0  0  0  0  0  0
    1.6985   -0.6612   -1.1394 O   0  0  0  0  0  0  0  0  0  0  0  0
    2.5966    0.4270   -0.8721 C   0  0  0  0  0  0  0  0  0  0  0  0
    3.9958   -0.0200   -0.4621 C   0  0  0  0  0  0  0  0  0  0  0  0
    3.7737   -0.7758    0.8458 C   0  0  0  0  0  0  0  0  0  0  0  0
    3.2769    0.0166    2.0469 C   0  0  0  0  0  0  0  0  0  0  0  0
    2.3016   -0.7433    1.2079 C   0  0  0  0  0  0  0  0  0  0  0  0
    1.6271   -1.8096    1.7972 O   0  0  0  0  0  0  0  0  0  0  0  0
    0.4177    1.4855    1.1882 H   0  0  0  0  0  0  0  0  0  0  0  0
   -0.0943    1.2091   -0.4951 H   0  0  0  0  0  0  0  0  0  0  0  0
   -0.4521    0.0072    0.7628 H   0  0  0  0  0  0  0  0  0  0  0  0
    2.4610    1.2975   -1.5100 H   0  0  0  0  0  0  0  0  0  0  0  0
    4.4330   -0.6615   -1.2347 H   0  0  0  0  0  0  0  0  0  0  0  0
    4.6584    0.8457   -0.3407 H   0  0  0  0  0  0  0  0  0  0  0  0
    4.3498   -1.6698    1.0525 H   0  0  0  0  0  0  0  0  0  0  0  0
    3.4888   -0.4065    3.0224 H   0  0  0  0  0  0  0  0  0  0  0  0
    3.2850    1.1024    2.0085 H   0  0  0  0  0  0  0  0  0  0  0  0
    1.4435   -2.4484    1.0974 H   0  0  0  0  0  0  0  0  0  0  0  0
  1  2  1  0
  2  3  1  0
  3  4  1  0
  4  5  1  0
  5  6  1  0
  6  7  1  0
  7  8  1  0
  8  9  1  0
  4  2  1  0
  8  6  1  0
  8  2  1  0
  1 10  1  0
  1 11  1  0
  1 12  1  0
  4 13  1  0
  5 14  1  0
  5 15  1  0
  6 16  1  0
  7 17  1  0
  7 18  1  0
  9 19  1  0
M  END
$$$$
