gdb 2431	2.4582811	2.2416875	1.6129066	1.8963	73.54	-0.22522	0.08477	0.30999	904.8975	0.158929	-422.550609	-422.54364	-422.542696	-422.581422	28.844
 OpenBabel02181911413D

 19 21  0  0  1  0  0  0  0  0999 V2000
    0.1631   -0.5668    0.1280 C   0  0  0  0  0  0  0  0  0  0  0  0
    1.5014    0.1023   -0.0690 C   0  0  2  0  0  0  0  0  0  0  0  0
    1.7865    1.3601    0.7596 C   0  0  0  0  0  0  0  0  0  0  0  0
    3.0475    1.8218    0.2491 O   0  0  0  0  0  0  0  0  0  0  0  0
    3.2906    1.0787   -0.9191 C   0  0  1  0  0  0  0  0  0  0  0  0
    3.5550   -0.4587   -0.7337 C   0  0  2  0  0  0  0  0  0  0  0  0
    2.7571   -0.6810   -2.0381 C   0  0  0  0  0  0  0  0  0  0  0  0
    1.9581    0.5283   -1.4979 C   0  0  1  0  0  0  0  0  0  0  0  0
    2.5952   -0.7996    0.2774 O   0  0  0  0  0  0  0  0  0  0  0  0
    0.0594   -0.9155    1.1603 H   0  0  0  0  0  0  0  0  0  0  0  0
   -0.6548    0.1291   -0.0840 H   0  0  0  0  0  0  0  0  0  0  0  0
    0.0635   -1.4332   -0.5315 H   0  0  0  0  0  0  0  0  0  0  0  0
    1.0205    2.1404    0.6344 H   0  0  0  0  0  0  0  0  0  0  0  0
    1.8865    1.1180    1.8220 H   0  0  0  0  0  0  0  0  0  0  0  0
    3.9691    1.6114   -1.5840 H   0  0  0  0  0  0  0  0  0  0  0  0
    4.5209   -0.9082   -0.5097 H   0  0  0  0  0  0  0  0  0  0  0  0
    3.3136   -0.4350   -2.9455 H   0  0  0  0  0  0  0  0  0  0  0  0
    2.2530   -1.6437   -2.1386 H   0  0  0  0  0  0  0  0  0  0  0  0
    1.2665    1.1253   -2.0907 H   0  0  0  0  0  0  0  0  0  0  0  0
  1 10  1  0  0  0  0
  2  1  1  1  0  0  0
  2  9  1  0  0  0  0
  2  3  1  0  0  0  0
  3 14  1  0  0  0  0
  4  3  1  0  0  0  0
  5 15  1  6  0  0  0
  5  6  1  0  0  0  0
  5  4  1  0  0  0  0
  6 16  1  1  0  0  0
  6  9  1  0  0  0  0
  7  8  1  0  0  0  0
  7  6  1  0  0  0  0
  8 19  1  6  0  0  0
  8  5  1  0  0  0  0
  8  2  1  0  0  0  0
 11  1  1  0  0  0  0
 12  1  1  0  0  0  0
 13  3  1  0  0  0  0
 17  7  1  0  0  0  0
 18  7  1  0  0  0  0
M TOR 0 0 1 2 3
M TOR 1 0 1 2 12
M TOR 2 0 1 2 13
M TOR 3 0 1 7 4
M TOR 4 0 1 7 6
M TOR 5 0 1 7 18
M TOR 6 0 1 8 5
M TOR 7 1 2 3 4
M TOR 8 1 7 4 3
M TOR 9 1 7 4 5
M TOR 10 1 7 4 14
M TOR 11 1 7 6 5
M TOR 12 1 7 6 16
M TOR 13 1 7 6 17
M TOR 14 1 8 5 4
M TOR 15 1 8 5 6
M TOR 16 1 8 5 15
M TOR 17 2 1 0 9
M TOR 18 2 1 0 10
M TOR 19 2 1 0 11
M TOR 20 2 1 7 4
M TOR 21 2 1 7 6
M TOR 22 2 1 7 18
M TOR 23 2 1 8 5
M TOR 24 2 3 4 5
M TOR 25 2 3 4 7
M TOR 26 2 3 4 14
M TOR 27 3 2 1 7
M TOR 28 3 2 1 8
M TOR 29 3 4 5 6
M TOR 30 3 4 5 8
M TOR 31 3 4 5 15
M TOR 32 3 4 7 6
M TOR 33 3 4 7 18
M TOR 34 4 3 2 12
M TOR 35 4 3 2 13
M TOR 36 4 5 6 7
M TOR 37 4 5 6 16
M TOR 38 4 5 6 17
M TOR 39 4 7 1 8
M TOR 40 4 7 6 16
M TOR 41 4 7 6 17
M TOR 42 5 4 7 18
M TOR 43 5 6 7 18
M TOR 44 5 8 1 7
M TOR 45 6 5 4 14
M TOR 46 6 7 1 8
M TOR 47 6 7 4 14
M TOR 48 7 1 0 9
M TOR 49 7 1 0 10
M TOR 50 7 1 0 11
M TOR 51 7 1 2 12
M TOR 52 7 1 2 13
M TOR 53 7 4 5 8
M TOR 54 7 4 5 15
M TOR 55 7 6 5 8
M TOR 56 7 6 5 15
M TOR 57 8 1 0 9
M TOR 58 8 1 0 10
M TOR 59 8 1 0 11
M TOR 60 8 1 2 12
M TOR 61 8 1 2 13
M TOR 62 8 1 7 18
M TOR 63 8 5 4 14
M TOR 64 8 5 6 16
M TOR 65 8 5 6 17
M  END
$$$$
