gdb 1641	3.376113	0.9818606	0.9015374	2.5368	78.23	-0.24581	-0.02023	0.22558	1344.7195	0.154896	-422.539797	-422.530552	-422.529608	-422.574199	34.116
 OpenBabel02181911403D

 19 20  0  0  1  0  0  0  0  0999 V2000
   -0.9905   -0.0667    2.4918 O   0  0  0  0  0  0  0  0  0  0  0  0
    0.4108    0.0018    2.4208 C   0  0  0  0  0  0  0  0  0  0  0  0
    1.2008   -0.8699    3.3680 C   0  0  0  0  0  0  0  0  0  0  0  0
    1.0647    0.6186    3.6217 C   0  0  0  0  0  0  0  0  0  0  0  0
    0.9634    0.2877    1.0559 C   0  0  1  0  0  0  0  0  0  0  0  0
    0.2612   -0.1328   -0.1856 C   0  0  0  0  0  0  0  0  0  0  0  0
    0.2847    1.3476    0.1811 C   0  0  2  0  0  0  0  0  0  0  0  0
    1.1649    2.2420   -0.6004 C   0  0  0  0  0  0  0  0  0  0  0  0
    2.1950    1.8904   -1.1311 O   0  0  0  0  0  0  0  0  0  0  0  0
   -1.2600   -0.9390    2.1839 H   0  0  0  0  0  0  0  0  0  0  0  0
    0.6325   -1.5351    4.0089 H   0  0  0  0  0  0  0  0  0  0  0  0
    2.1593   -1.2583    3.0413 H   0  0  0  0  0  0  0  0  0  0  0  0
    0.4043    0.9286    4.4228 H   0  0  0  0  0  0  0  0  0  0  0  0
    1.9310    1.2524    3.4673 H   0  0  0  0  0  0  0  0  0  0  0  0
    2.0474    0.3064    0.9949 H   0  0  0  0  0  0  0  0  0  0  0  0
    0.8685   -0.4165   -1.0374 H   0  0  0  0  0  0  0  0  0  0  0  0
   -0.7024   -0.6226   -0.1049 H   0  0  0  0  0  0  0  0  0  0  0  0
   -0.6333    1.7725    0.5694 H   0  0  0  0  0  0  0  0  0  0  0  0
    0.8225    3.2980   -0.6719 H   0  0  0  0  0  0  0  0  0  0  0  0
  2  1  1  0  0  0  0
  2  3  1  0  0  0  0
  2  4  1  0  0  0  0
  3  4  1  0  0  0  0
  3 11  1  0  0  0  0
  4 13  1  0  0  0  0
  5 15  1  6  0  0  0
  5  2  1  0  0  0  0
  6 17  1  0  0  0  0
  6  7  1  0  0  0  0
  6  5  1  0  0  0  0
  7 18  1  1  0  0  0
  7  5  1  0  0  0  0
  8  7  1  0  0  0  0
  9  8  2  0  0  0  0
 10  1  1  0  0  0  0
 12  3  1  0  0  0  0
 14  4  1  0  0  0  0
 16  6  1  0  0  0  0
 19  8  1  0  0  0  0
M TOR 0 0 1 2 3
M TOR 1 0 1 2 10
M TOR 2 0 1 2 11
M TOR 3 0 1 3 12
M TOR 4 0 1 3 13
M TOR 5 0 1 4 5
M TOR 6 0 1 4 6
M TOR 7 0 1 4 14
M TOR 8 1 2 3 12
M TOR 9 1 2 3 13
M TOR 10 1 3 2 10
M TOR 11 1 3 2 11
M TOR 12 1 4 5 6
M TOR 13 1 4 5 15
M TOR 14 1 4 5 16
M TOR 15 1 4 6 7
M TOR 16 1 4 6 17
M TOR 17 2 1 0 9
M TOR 18 2 1 4 5
M TOR 19 2 1 4 6
M TOR 20 2 1 4 14
M TOR 21 2 3 1 4
M TOR 22 3 1 0 9
M TOR 23 3 1 4 5
M TOR 24 3 1 4 6
M TOR 25 3 1 4 14
M TOR 26 4 1 0 9
M TOR 27 4 1 2 10
M TOR 28 4 1 2 11
M TOR 29 4 1 3 12
M TOR 30 4 1 3 13
M TOR 31 4 5 6 7
M TOR 32 4 5 6 17
M TOR 33 4 6 5 15
M TOR 34 4 6 5 16
M TOR 35 4 6 7 8
M TOR 36 4 6 7 18
M TOR 37 5 6 4 14
M TOR 38 5 6 7 8
M TOR 39 5 6 7 18
M TOR 40 7 6 4 14
M TOR 41 7 6 5 15
M TOR 42 7 6 5 16
M TOR 43 8 7 6 17
M  END
$$$$
