
     RDKit          3D

 19 20  0  0  0  0  0  0  0  0999 V2000
    0.0188   -1.1959    0.0266 O   0  0  0  0  0  0  0  0  0  0  0  0
    0.0935    0.2206    0.0448 C   0  0  0  0  0  0  0  0  0  0  0  0
   -0.5588    0.8595   -1.1584 C   0  0  0  0  0  0  0  0  0  0  0  0
   -0.0855    2.1847   -1.6502 C   0  0  0  0  0  0  0  0  0  0  0  0
    0.1710    0.9437   -2.5013 C   0  0  0  0  0  0  0  0  0  0  0  0
   -0.8281    0.6632   -3.5762 C   0  0  0  0  0  0  0  0  0  0  0  0
   -0.5781    0.3556   -4.7154 O   0  0  0  0  0  0  0  0  0  0  0  0
   -2.2327    0.7517   -2.9563 C   0  0  0  0  0  0  0  0  0  0  0  0
   -2.0268    0.5219   -1.4456 C   0  0  0  0  0  0  0  0  0  0  0  0
    0.4720   -1.5008   -0.7670 H   0  0  0  0  0  0  0  0  0  0  0  0
   -0.4271    0.5279    0.9594 H   0  0  0  0  0  0  0  0  0  0  0  0
    1.1348    0.5695    0.1303 H   0  0  0  0  0  0  0  0  0  0  0  0
   -0.8042    2.9208   -1.9955 H   0  0  0  0  0  0  0  0  0  0  0  0
    0.7970    2.6120   -1.1850 H   0  0  0  0  0  0  0  0  0  0  0  0
    1.1956    0.6252   -2.6541 H   0  0  0  0  0  0  0  0  0  0  0  0
   -2.6475    1.7435   -3.1729 H   0  0  0  0  0  0  0  0  0  0  0  0
   -2.8940    0.0249   -3.4314 H   0  0  0  0  0  0  0  0  0  0  0  0
   -2.7071    1.1160   -0.8264 H   0  0  0  0  0  0  0  0  0  0  0  0
   -2.1870   -0.5305   -1.1935 H   0  0  0  0  0  0  0  0  0  0  0  0
  1  2  1  0
  2  3  1  0
  3  4  1  0
  4  5  1  0
  5  6  1  0
  6  7  2  0
  6  8  1  0
  8  9  1  0
  5  3  1  0
  9  3  1  0
  1 10  1  0
  2 11  1  0
  2 12  1  0
  4 13  1  0
  4 14  1  0
  5 15  1  0
  8 16  1  0
  8 17  1  0
  9 18  1  0
  9 19  1  0
M  END
$$$$
