
     RDKit          3D

 19 21  0  0  0  0  0  0  0  0999 V2000
    0.1918   -0.4066   -0.2936 C   0  0  0  0  0  0  0  0  0  0  0  0
    0.9039    0.6580    0.5149 C   0  0  0  0  0  0  0  0  0  0  0  0
    1.5863    0.2432    1.8378 C   0  0  0  0  0  0  0  0  0  0  0  0
    2.8755    0.7537    1.1659 C   0  0  0  0  0  0  0  0  0  0  0  0
    3.7260    1.8828    1.8533 C   0  0  0  0  0  0  0  0  0  0  0  0
    4.9026    0.8996    1.8607 C   0  0  0  0  0  0  0  0  0  0  0  0
    5.1731    0.5915    0.4924 O   0  0  0  0  0  0  0  0  0  0  0  0
    4.1251   -0.1315    1.1464 C   0  0  0  0  0  0  0  0  0  0  0  0
    2.1860    1.0260   -0.0579 O   0  0  0  0  0  0  0  0  0  0  0  0
   -0.7556   -0.6806    0.1841 H   0  0  0  0  0  0  0  0  0  0  0  0
   -0.0270   -0.0380   -1.3006 H   0  0  0  0  0  0  0  0  0  0  0  0
    0.8105   -1.3049   -0.3850 H   0  0  0  0  0  0  0  0  0  0  0  0
    0.2668    1.5471    0.6154 H   0  0  0  0  0  0  0  0  0  0  0  0
    1.2700    0.7734    2.7375 H   0  0  0  0  0  0  0  0  0  0  0  0
    1.5720   -0.8332    2.0295 H   0  0  0  0  0  0  0  0  0  0  0  0
    3.8923    2.7750    1.2466 H   0  0  0  0  0  0  0  0  0  0  0  0
    3.3451    2.1584    2.8400 H   0  0  0  0  0  0  0  0  0  0  0  0
    5.7109    0.7902    2.5731 H   0  0  0  0  0  0  0  0  0  0  0  0
    4.1912   -1.2146    1.1467 H   0  0  0  0  0  0  0  0  0  0  0  0
  1  2  1  0
  2  3  1  0
  3  4  1  0
  4  5  1  0
  5  6  1  0
  6  7  1  0
  7  8  1  0
  4  9  1  0
  9  2  1  0
  8  4  1  0
  8  6  1  0
  1 10  1  0
  1 11  1  0
  1 12  1  0
  2 13  1  0
  3 14  1  0
  3 15  1  0
  5 16  1  0
  5 17  1  0
  6 18  1  0
  8 19  1  0
M  END
$$$$
