
     RDKit          3D

 19 19  0  0  0  0  0  0  0  0999 V2000
   -3.7787   -1.3810    2.1893 C   0  0  0  0  0  0  0  0  0  0  0  0
   -2.7207   -0.6470    1.3539 C   0  0  0  0  0  0  0  0  0  0  0  0
   -1.4237   -1.4653    1.3468 C   0  0  0  0  0  0  0  0  0  0  0  0
   -0.4176   -1.1445    0.3728 O   0  0  0  0  0  0  0  0  0  0  0  0
    0.0005    0.0731   -0.0527 C   0  0  0  0  0  0  0  0  0  0  0  0
    1.0951    0.1556   -0.5409 O   0  0  0  0  0  0  0  0  0  0  0  0
   -0.9595    1.2619   -0.0448 C   0  0  0  0  0  0  0  0  0  0  0  0
   -1.6438    1.5937    1.2592 C   0  0  0  0  0  0  0  0  0  0  0  0
   -2.4611    0.7475    1.8772 C   0  0  0  0  0  0  0  0  0  0  0  0
   -3.4358   -1.5242    3.2205 H   0  0  0  0  0  0  0  0  0  0  0  0
   -4.7070   -0.8035    2.2260 H   0  0  0  0  0  0  0  0  0  0  0  0
   -4.0085   -2.3651    1.7704 H   0  0  0  0  0  0  0  0  0  0  0  0
   -3.0818   -0.5855    0.3163 H   0  0  0  0  0  0  0  0  0  0  0  0
   -0.9590   -1.4145    2.3398 H   0  0  0  0  0  0  0  0  0  0  0  0
   -1.6512   -2.5148    1.1353 H   0  0  0  0  0  0  0  0  0  0  0  0
   -0.3719    2.1046   -0.4084 H   0  0  0  0  0  0  0  0  0  0  0  0
   -1.7177    1.0466   -0.8130 H   0  0  0  0  0  0  0  0  0  0  0  0
   -1.4571    2.5798    1.6734 H   0  0  0  0  0  0  0  0  0  0  0  0
   -2.9464    1.0344    2.8068 H   0  0  0  0  0  0  0  0  0  0  0  0
  1  2  1  0
  2  3  1  0
  3  4  1  0
  4  5  1  0
  5  6  2  0
  5  7  1  0
  7  8  1  0
  8  9  2  0
  9  2  1  0
  1 10  1  0
  1 11  1  0
  1 12  1  0
  2 13  1  0
  3 14  1  0
  3 15  1  0
  7 16  1  0
  7 17  1  0
  8 18  1  0
  9 19  1  0
M  END
$$$$
