
     RDKit          3D

 19 20  0  0  0  0  0  0  0  0999 V2000
    3.4712    0.4007   -3.9331 O   0  0  0  0  0  0  0  0  0  0  0  0
    2.6264    1.0742   -3.0546 C   0  0  0  0  0  0  0  0  0  0  0  0
    1.1924    1.1605   -3.4657 C   0  0  0  0  0  0  0  0  0  0  0  0
    1.5679    0.3710   -2.2205 C   0  0  0  0  0  0  0  0  0  0  0  0
    1.4379    1.0826   -0.8774 C   0  0  0  0  0  0  0  0  0  0  0  0
    2.1614    2.4501   -1.1024 C   0  0  0  0  0  0  0  0  0  0  0  0
    3.1945    2.2176   -2.2258 C   0  0  0  0  0  0  0  0  0  0  0  0
    2.1390    0.2821    0.1997 C   0  0  0  0  0  0  0  0  0  0  0  0
    1.6210   -0.1328    1.2037 O   0  0  0  0  0  0  0  0  0  0  0  0
    4.1855    0.0052   -3.4201 H   0  0  0  0  0  0  0  0  0  0  0  0
    0.6491    2.0957   -3.3759 H   0  0  0  0  0  0  0  0  0  0  0  0
    0.9237    0.5639   -4.3299 H   0  0  0  0  0  0  0  0  0  0  0  0
    1.4535   -0.7067   -2.2641 H   0  0  0  0  0  0  0  0  0  0  0  0
    0.4008    1.2217   -0.5571 H   0  0  0  0  0  0  0  0  0  0  0  0
    1.4212    3.1933   -1.4098 H   0  0  0  0  0  0  0  0  0  0  0  0
    2.6193    2.8304   -0.1847 H   0  0  0  0  0  0  0  0  0  0  0  0
    3.3836    3.1208   -2.8147 H   0  0  0  0  0  0  0  0  0  0  0  0
    4.1595    1.8987   -1.8089 H   0  0  0  0  0  0  0  0  0  0  0  0
    3.2216    0.0924   -0.0038 H   0  0  0  0  0  0  0  0  0  0  0  0
  1  2  1  0
  2  3  1  0
  3  4  1  0
  4  5  1  0
  5  6  1  0
  6  7  1  0
  5  8  1  0
  8  9  2  0
  4  2  1  0
  7  2  1  0
  1 10  1  0
  3 11  1  0
  3 12  1  0
  4 13  1  0
  5 14  1  0
  6 15  1  0
  6 16  1  0
  7 17  1  0
  7 18  1  0
  8 19  1  0
M  END
$$$$
