gdb 4505	2.2373385	1.6626048	1.4097961	2.4625	74.33	-0.23711	-0.01423	0.22288	1024.7892	0.158821	-422.578171	-422.570305	-422.569361	-422.610344	30.866
 OpenBabel02181911413D

 19 20  0  0  1  0  0  0  0  0999 V2000
   -0.9587   -2.3517   -2.1148 O   0  0  0  0  0  0  0  0  0  0  0  0
   -1.6008   -1.2881   -1.4381 C   0  0  2  0  0  0  0  0  0  0  0  0
   -1.5216    0.0293   -2.2443 C   0  0  0  0  0  0  0  0  0  0  0  0
   -1.7161    1.3016   -1.3862 C   0  0  0  0  0  0  0  0  0  0  0  0
   -1.1374    1.0965    0.0334 C   0  0  1  0  0  0  0  0  0  0  0  0
   -1.9373   -0.0420    0.7386 C   0  0  0  0  0  0  0  0  0  0  0  0
   -1.0352   -1.0706   -0.0082 C   0  0  2  0  0  0  0  0  0  0  0  0
    0.0042    0.0631   -0.0479 C   0  0  0  0  0  0  0  0  0  0  0  0
    1.2007    0.1153   -0.0238 O   0  0  0  0  0  0  0  0  0  0  0  0
   -0.0306   -2.1161   -2.2294 H   0  0  0  0  0  0  0  0  0  0  0  0
   -2.6413   -1.6167   -1.3349 H   0  0  0  0  0  0  0  0  0  0  0  0
   -0.5140    0.0643   -2.6794 H   0  0  0  0  0  0  0  0  0  0  0  0
   -2.2178    0.0033   -3.0869 H   0  0  0  0  0  0  0  0  0  0  0  0
   -1.2239    2.1459   -1.8782 H   0  0  0  0  0  0  0  0  0  0  0  0
   -2.7769    1.5616   -1.2956 H   0  0  0  0  0  0  0  0  0  0  0  0
   -0.9603    2.0349    0.5607 H   0  0  0  0  0  0  0  0  0  0  0  0
   -1.7833   -0.0610    1.8191 H   0  0  0  0  0  0  0  0  0  0  0  0
   -3.0070   -0.0865    0.5169 H   0  0  0  0  0  0  0  0  0  0  0  0
   -0.7784   -2.0223    0.4582 H   0  0  0  0  0  0  0  0  0  0  0  0
  1  2  1  0  0  0  0
  2 11  1  1  0  0  0
  2  7  1  0  0  0  0
  3  2  1  0  0  0  0
  3  4  1  0  0  0  0
  4 15  1  0  0  0  0
  4  5  1  0  0  0  0
  5 16  1  1  0  0  0
  5  6  1  0  0  0  0
  6 17  1  0  0  0  0
  7 19  1  1  0  0  0
  7  6  1  0  0  0  0
  8  9  2  0  0  0  0
  8  7  1  0  0  0  0
  8  5  1  0  0  0  0
 10  1  1  0  0  0  0
 12  3  1  0  0  0  0
 13  3  1  0  0  0  0
 14  4  1  0  0  0  0
 18  6  1  0  0  0  0
M TOR 0 0 1 2 3
M TOR 1 0 1 2 11
M TOR 2 0 1 2 12
M TOR 3 0 1 6 5
M TOR 4 0 1 6 7
M TOR 5 0 1 6 18
M TOR 6 1 2 3 4
M TOR 7 1 2 3 13
M TOR 8 1 2 3 14
M TOR 9 1 6 5 4
M TOR 10 1 6 5 16
M TOR 11 1 6 5 17
M TOR 12 1 6 7 4
M TOR 13 1 6 7 8
M TOR 14 2 1 0 9
M TOR 15 2 1 6 5
M TOR 16 2 1 6 7
M TOR 17 2 1 6 18
M TOR 18 2 3 4 5
M TOR 19 2 3 4 7
M TOR 20 2 3 4 15
M TOR 21 3 2 1 6
M TOR 22 3 2 1 10
M TOR 23 3 4 5 6
M TOR 24 3 4 5 16
M TOR 25 3 4 5 17
M TOR 26 3 4 7 6
M TOR 27 3 4 7 8
M TOR 28 4 3 2 11
M TOR 29 4 3 2 12
M TOR 30 4 5 6 7
M TOR 31 4 5 6 18
M TOR 32 4 7 6 18
M TOR 33 5 4 3 13
M TOR 34 5 4 3 14
M TOR 35 5 4 7 8
M TOR 36 5 6 1 10
M TOR 37 5 6 7 8
M TOR 38 6 1 0 9
M TOR 39 6 1 2 11
M TOR 40 6 1 2 12
M TOR 41 6 5 4 15
M TOR 42 6 7 4 15
M TOR 43 7 4 3 13
M TOR 44 7 4 3 14
M TOR 45 7 4 5 16
M TOR 46 7 4 5 17
M TOR 47 7 6 1 10
M TOR 48 7 6 5 16
M TOR 49 7 6 5 17
M TOR 50 8 7 4 15
M TOR 51 8 7 6 18
M  END
$$$$
