
     RDKit          3D

 19 21  0  0  0  0  0  0  0  0999 V2000
   -0.0195    0.2479   -0.2319 C   0  0  0  0  0  0  0  0  0  0  0  0
    1.4530    0.0039   -0.1833 C   0  0  0  0  0  0  0  0  0  0  0  0
    2.1427    0.2336    1.0543 O   0  0  0  0  0  0  0  0  0  0  0  0
    2.6149    0.9172   -0.1179 C   0  0  0  0  0  0  0  0  0  0  0  0
    3.4857   -0.0754   -0.9269 C   0  0  0  0  0  0  0  0  0  0  0  0
    4.5760   -0.7025   -0.3091 O   0  0  0  0  0  0  0  0  0  0  0  0
    4.1037   -1.8138    0.4636 C   0  0  0  0  0  0  0  0  0  0  0  0
    2.7842   -2.2962   -0.1907 C   0  0  0  0  0  0  0  0  0  0  0  0
    2.2735   -1.0633   -0.9488 C   0  0  0  0  0  0  0  0  0  0  0  0
   -0.2720    1.1699    0.2984 H   0  0  0  0  0  0  0  0  0  0  0  0
   -0.3655    0.3301   -1.2674 H   0  0  0  0  0  0  0  0  0  0  0  0
   -0.5666   -0.5768    0.2394 H   0  0  0  0  0  0  0  0  0  0  0  0
    2.6697    1.9995   -0.0630 H   0  0  0  0  0  0  0  0  0  0  0  0
    3.8008    0.3320   -1.8916 H   0  0  0  0  0  0  0  0  0  0  0  0
    4.8902   -2.5751    0.4465 H   0  0  0  0  0  0  0  0  0  0  0  0
    3.9299   -1.5051    1.4986 H   0  0  0  0  0  0  0  0  0  0  0  0
    2.9788   -3.1104   -0.8946 H   0  0  0  0  0  0  0  0  0  0  0  0
    2.0790   -2.6609    0.5604 H   0  0  0  0  0  0  0  0  0  0  0  0
    1.8785   -1.2812   -1.9423 H   0  0  0  0  0  0  0  0  0  0  0  0
  1  2  1  0
  2  3  1  0
  3  4  1  0
  4  5  1  0
  5  6  1  0
  6  7  1  0
  7  8  1  0
  8  9  1  0
  4  2  1  0
  9  5  1  0
  9  2  1  0
  1 10  1  0
  1 11  1  0
  1 12  1  0
  4 13  1  0
  5 14  1  0
  7 15  1  0
  7 16  1  0
  8 17  1  0
  8 18  1  0
  9 19  1  0
M  END
$$$$
