gdb 1217	2.1709629	1.5011669	1.0911212	1.8229	76.37	-0.2539	0.04805	0.30195	1172.9559	0.153176	-422.510027	-422.500062	-422.499118	-422.544624	36.798
 OpenBabel02181911403D

 19 19  0  0  1  0  0  0  0  0999 V2000
    4.7154    1.3612   -0.0137 C   0  0  0  0  0  0  0  0  0  0  0  0
    3.1885    1.3960    0.0535 C   0  0  2  0  0  0  0  0  0  0  0  0
    2.8372    2.1114    1.2216 O   0  0  0  0  0  0  0  0  0  0  0  0
    2.6383   -0.0596    0.1305 C   0  0  0  0  0  0  0  0  0  0  0  0
    1.1920   -0.1290    0.2934 C   0  0  0  0  0  0  0  0  0  0  0  0
   -0.0005   -0.1688    0.4381 C   0  0  0  0  0  0  0  0  0  0  0  0
    2.6269    2.1149   -1.1750 C   0  0  2  0  0  0  0  0  0  0  0  0
    2.5652    3.5788   -1.2293 C   0  0  0  0  0  0  0  0  0  0  0  0
    1.3875    2.7967   -0.9786 O   0  0  0  0  0  0  0  0  0  0  0  0
    5.1193    0.8555    0.8678 H   0  0  0  0  0  0  0  0  0  0  0  0
    5.0591    0.8301   -0.9068 H   0  0  0  0  0  0  0  0  0  0  0  0
    5.1130    2.3786   -0.0375 H   0  0  0  0  0  0  0  0  0  0  0  0
    1.8897    2.2948    1.1473 H   0  0  0  0  0  0  0  0  0  0  0  0
    2.9406   -0.6119   -0.7685 H   0  0  0  0  0  0  0  0  0  0  0  0
    3.1251   -0.5491    0.9821 H   0  0  0  0  0  0  0  0  0  0  0  0
   -1.0550   -0.2061    0.5563 H   0  0  0  0  0  0  0  0  0  0  0  0
    2.6913    1.5618   -2.1130 H   0  0  0  0  0  0  0  0  0  0  0  0
    2.9218    4.1516   -0.3770 H   0  0  0  0  0  0  0  0  0  0  0  0
    2.5865    4.0851   -2.1924 H   0  0  0  0  0  0  0  0  0  0  0  0
  1  2  1  0  0  0  0
  1 10  1  0  0  0  0
  2  4  1  0  0  0  0
  2  3  1  1  0  0  0
  4  5  1  0  0  0  0
  4 15  1  0  0  0  0
  5  6  3  0  0  0  0
  6 16  1  0  0  0  0
  7 17  1  6  0  0  0
  7  9  1  0  0  0  0
  7  2  1  0  0  0  0
  8  7  1  0  0  0  0
  8  9  1  0  0  0  0
  8 18  1  0  0  0  0
 11  1  1  0  0  0  0
 12  1  1  0  0  0  0
 13  3  1  0  0  0  0
 14  4  1  0  0  0  0
 19  8  1  0  0  0  0
M TOR 0 0 1 2 12
M TOR 1 0 1 3 4
M TOR 2 0 1 3 13
M TOR 3 0 1 3 14
M TOR 4 0 1 6 7
M TOR 5 0 1 6 8
M TOR 6 0 1 6 16
M TOR 7 1 3 4 5
M TOR 8 1 6 7 8
M TOR 9 1 6 7 17
M TOR 10 1 6 7 18
M TOR 11 2 1 0 9
M TOR 12 2 1 0 10
M TOR 13 2 1 0 11
M TOR 14 2 1 3 4
M TOR 15 2 1 3 13
M TOR 16 2 1 3 14
M TOR 17 2 1 6 7
M TOR 18 2 1 6 8
M TOR 19 2 1 6 16
M TOR 20 3 1 0 9
M TOR 21 3 1 0 10
M TOR 22 3 1 0 11
M TOR 23 3 1 2 12
M TOR 24 3 1 6 7
M TOR 25 3 1 6 8
M TOR 26 3 1 6 16
M TOR 27 3 4 5 15
M TOR 28 4 3 1 6
M TOR 29 5 4 3 13
M TOR 30 5 4 3 14
M TOR 31 6 1 0 9
M TOR 32 6 1 0 10
M TOR 33 6 1 0 11
M TOR 34 6 1 2 12
M TOR 35 6 1 3 13
M TOR 36 6 1 3 14
M TOR 37 6 8 7 17
M TOR 38 6 8 7 18
M TOR 39 7 8 6 16
M  END
$$$$
