
     RDKit          3D

 19 20  0  0  0  0  0  0  0  0999 V2000
    0.0944    1.5614    0.1610 C   0  0  0  0  0  0  0  0  0  0  0  0
   -0.0057    0.0559   -0.0061 C   0  0  0  0  0  0  0  0  0  0  0  0
   -1.4383   -0.6398    0.0918 C   0  0  0  0  0  0  0  0  0  0  0  0
   -2.3422    0.0521    0.9061 O   0  0  0  0  0  0  0  0  0  0  0  0
   -0.7465   -1.8236    0.8709 C   0  0  0  0  0  0  0  0  0  0  0  0
   -1.2738   -2.2164    2.1272 O   0  0  0  0  0  0  0  0  0  0  0  0
   -0.2744   -1.8769    3.1218 C   0  0  0  0  0  0  0  0  0  0  0  0
    0.5802   -0.8005    2.4675 C   0  0  0  0  0  0  0  0  0  0  0  0
    0.3499   -0.8479    1.1597 C   0  0  0  0  0  0  0  0  0  0  0  0
    1.1339    1.8720    0.3086 H   0  0  0  0  0  0  0  0  0  0  0  0
   -0.2876    2.0780   -0.7255 H   0  0  0  0  0  0  0  0  0  0  0  0
   -0.4948    1.8835    1.0227 H   0  0  0  0  0  0  0  0  0  0  0  0
    0.4688   -0.2744   -0.9377 H   0  0  0  0  0  0  0  0  0  0  0  0
   -1.9007   -0.8856   -0.8712 H   0  0  0  0  0  0  0  0  0  0  0  0
   -2.4425   -0.4828    1.7074 H   0  0  0  0  0  0  0  0  0  0  0  0
   -0.5254   -2.6900    0.2364 H   0  0  0  0  0  0  0  0  0  0  0  0
   -0.7901   -1.5086    4.0161 H   0  0  0  0  0  0  0  0  0  0  0  0
    0.2823   -2.7835    3.4050 H   0  0  0  0  0  0  0  0  0  0  0  0
    1.1247   -0.0562    3.0338 H   0  0  0  0  0  0  0  0  0  0  0  0
  1  2  1  0
  2  3  1  0
  3  4  1  0
  3  5  1  0
  5  6  1  0
  6  7  1  0
  7  8  1  0
  8  9  2  0
  9  2  1  0
  9  5  1  0
  1 10  1  0
  1 11  1  0
  1 12  1  0
  2 13  1  0
  3 14  1  0
  4 15  1  0
  5 16  1  0
  7 17  1  0
  7 18  1  0
  8 19  1  0
M  END
$$$$
