
     RDKit          3D

 19 21  0  0  0  0  0  0  0  0999 V2000
    0.4694    0.3566    0.2067 O   0  0  0  0  0  0  0  0  0  0  0  0
   -0.8016    0.1511    0.7530 C   0  0  0  0  0  0  0  0  0  0  0  0
   -1.9760    0.8591    0.1023 C   0  0  0  0  0  0  0  0  0  0  0  0
   -3.1174    1.2341    0.8314 O   0  0  0  0  0  0  0  0  0  0  0  0
   -4.0293    0.1682    1.0964 C   0  0  0  0  0  0  0  0  0  0  0  0
   -3.3284   -1.0051    1.8299 C   0  0  0  0  0  0  0  0  0  0  0  0
   -2.8846   -1.4733    0.4120 C   0  0  0  0  0  0  0  0  0  0  0  0
   -4.1946   -0.7981   -0.1119 C   0  0  0  0  0  0  0  0  0  0  0  0
   -1.7485   -0.6161   -0.1303 C   0  0  0  0  0  0  0  0  0  0  0  0
    0.7823    1.2183    0.5032 H   0  0  0  0  0  0  0  0  0  0  0  0
   -0.8304   -0.0138    1.8285 H   0  0  0  0  0  0  0  0  0  0  0  0
   -1.7357    1.5699   -0.6834 H   0  0  0  0  0  0  0  0  0  0  0  0
   -4.9082    0.6387    1.5389 H   0  0  0  0  0  0  0  0  0  0  0  0
   -2.5816   -0.7656    2.5887 H   0  0  0  0  0  0  0  0  0  0  0  0
   -4.0605   -1.6977    2.2531 H   0  0  0  0  0  0  0  0  0  0  0  0
   -2.7223   -2.5401    0.2478 H   0  0  0  0  0  0  0  0  0  0  0  0
   -4.1845   -0.3674   -1.1159 H   0  0  0  0  0  0  0  0  0  0  0  0
   -5.0754   -1.4317    0.0177 H   0  0  0  0  0  0  0  0  0  0  0  0
   -1.3528   -0.9066   -1.0991 H   0  0  0  0  0  0  0  0  0  0  0  0
  1  2  1  0
  2  3  1  0
  3  4  1  0
  4  5  1  0
  5  6  1  0
  6  7  1  0
  7  8  1  0
  7  9  1  0
  9  2  1  0
  9  3  1  0
  8  5  1  0
  1 10  1  0
  2 11  1  0
  3 12  1  0
  5 13  1  0
  6 14  1  0
  6 15  1  0
  7 16  1  0
  8 17  1  0
  8 18  1  0
  9 19  1  0
M  END
$$$$
