
     RDKit          3D

 19 20  0  0  0  0  0  0  0  0999 V2000
   -2.8068   -0.8985   -1.5192 C   0  0  0  0  0  0  0  0  0  0  0  0
   -2.2166   -0.7189   -0.1204 C   0  0  0  0  0  0  0  0  0  0  0  0
   -2.1402    0.6811    0.2204 O   0  0  0  0  0  0  0  0  0  0  0  0
   -0.8579    1.1851   -0.0988 C   0  0  0  0  0  0  0  0  0  0  0  0
    0.0875   -0.0151   -0.0843 C   0  0  0  0  0  0  0  0  0  0  0  0
    1.2922    0.0086   -0.1440 O   0  0  0  0  0  0  0  0  0  0  0  0
   -0.7874   -1.2221    0.0284 C   0  0  0  0  0  0  0  0  0  0  0  0
   -0.3535   -2.2846    1.0287 C   0  0  0  0  0  0  0  0  0  0  0  0
   -0.2526   -2.5551   -0.4366 C   0  0  0  0  0  0  0  0  0  0  0  0
   -2.9517   -1.9589   -1.7490 H   0  0  0  0  0  0  0  0  0  0  0  0
   -3.7764   -0.3970   -1.5794 H   0  0  0  0  0  0  0  0  0  0  0  0
   -2.1491   -0.4748   -2.2853 H   0  0  0  0  0  0  0  0  0  0  0  0
   -2.8863   -1.1691    0.6200 H   0  0  0  0  0  0  0  0  0  0  0  0
   -0.8259    1.6609   -1.0926 H   0  0  0  0  0  0  0  0  0  0  0  0
   -0.5629    1.9342    0.6426 H   0  0  0  0  0  0  0  0  0  0  0  0
    0.5627   -2.0874    1.5745 H   0  0  0  0  0  0  0  0  0  0  0  0
   -1.1397   -2.7711    1.5964 H   0  0  0  0  0  0  0  0  0  0  0  0
    0.7340   -2.5364   -0.8878 H   0  0  0  0  0  0  0  0  0  0  0  0
   -0.9574   -3.2466   -0.8851 H   0  0  0  0  0  0  0  0  0  0  0  0
  1  2  1  0
  2  3  1  0
  3  4  1  0
  4  5  1  0
  5  6  2  0
  5  7  1  0
  7  8  1  0
  8  9  1  0
  7  2  1  0
  9  7  1  0
  1 10  1  0
  1 11  1  0
  1 12  1  0
  2 13  1  0
  4 14  1  0
  4 15  1  0
  8 16  1  0
  8 17  1  0
  9 18  1  0
  9 19  1  0
M  END
$$$$
