gdb 3799	4.0479621	0.9520484	0.8280332	1.8482	78.34	-0.23352	0.01582	0.24934	1393.8458	0.156573	-422.537769	-422.529101	-422.528157	-422.57183	32.089
 OpenBabel02181911413D

 19 20  0  0  1  0  0  0  0  0999 V2000
   -0.6248    4.4642    2.5627 O   0  0  0  0  0  0  0  0  0  0  0  0
   -0.4023    4.1693    1.2157 C   0  0  2  0  0  0  0  0  0  0  0  0
   -1.6122    4.1132    0.3383 C   0  0  0  0  0  0  0  0  0  0  0  0
   -0.8494    2.8404    0.6621 C   0  0  1  0  0  0  0  0  0  0  0  0
   -0.0288    2.1445   -0.3990 C   0  0  1  0  0  0  0  0  0  0  0  0
    1.0603    1.4320    0.2073 O   0  0  0  0  0  0  0  0  0  0  0  0
    1.0612    0.0697   -0.2089 C   0  0  0  0  0  0  0  0  0  0  0  0
   -0.1647   -0.0805   -1.0652 C   0  0  0  0  0  0  0  0  0  0  0  0
   -0.7735    1.0928   -1.1817 C   0  0  0  0  0  0  0  0  0  0  0  0
    0.0201    3.9688    3.0790 H   0  0  0  0  0  0  0  0  0  0  0  0
    0.5047    4.6005    0.7904 H   0  0  0  0  0  0  0  0  0  0  0  0
   -2.5713    4.2505    0.8236 H   0  0  0  0  0  0  0  0  0  0  0  0
   -1.5421    4.5256   -0.6631 H   0  0  0  0  0  0  0  0  0  0  0  0
   -1.3236    2.1750    1.3780 H   0  0  0  0  0  0  0  0  0  0  0  0
    0.3836    2.9151   -1.0753 H   0  0  0  0  0  0  0  0  0  0  0  0
    1.9859   -0.1568   -0.7650 H   0  0  0  0  0  0  0  0  0  0  0  0
    1.0476   -0.5893    0.6730 H   0  0  0  0  0  0  0  0  0  0  0  0
   -0.4662   -1.0205   -1.5099 H   0  0  0  0  0  0  0  0  0  0  0  0
   -1.6757    1.3118   -1.7381 H   0  0  0  0  0  0  0  0  0  0  0  0
  1 10  1  0  0  0  0
  2 11  1  6  0  0  0
  2  1  1  0  0  0  0
  3  4  1  0  0  0  0
  3 12  1  0  0  0  0
  3  2  1  0  0  0  0
  4  2  1  0  0  0  0
  4 14  1  1  0  0  0
  5 15  1  6  0  0  0
  5  6  1  0  0  0  0
  5  4  1  0  0  0  0
  7  6  1  0  0  0  0
  7 17  1  0  0  0  0
  8  7  1  0  0  0  0
  9  8  2  0  0  0  0
  9  5  1  0  0  0  0
 13  3  1  0  0  0  0
 16  7  1  0  0  0  0
 18  8  1  0  0  0  0
 19  9  1  0  0  0  0
M TOR 0 0 1 2 3
M TOR 1 0 1 2 11
M TOR 2 0 1 2 12
M TOR 3 0 1 3 4
M TOR 4 0 1 3 13
M TOR 5 1 2 3 4
M TOR 6 1 2 3 13
M TOR 7 1 3 2 11
M TOR 8 1 3 2 12
M TOR 9 1 3 4 5
M TOR 10 1 3 4 8
M TOR 11 1 3 4 14
M TOR 12 2 1 0 9
M TOR 13 2 3 1 10
M TOR 14 2 3 4 5
M TOR 15 2 3 4 8
M TOR 16 2 3 4 14
M TOR 17 3 1 0 9
M TOR 18 3 4 5 6
M TOR 19 3 4 8 7
M TOR 20 3 4 8 18
M TOR 21 4 3 1 10
M TOR 22 4 3 2 11
M TOR 23 4 3 2 12
M TOR 24 4 5 6 7
M TOR 25 4 5 6 15
M TOR 26 4 5 6 16
M TOR 27 4 8 7 6
M TOR 28 4 8 7 17
M TOR 29 5 4 3 13
M TOR 30 5 4 8 7
M TOR 31 5 4 8 18
M TOR 32 5 6 7 8
M TOR 33 5 6 7 17
M TOR 34 6 5 4 8
M TOR 35 6 5 4 14
M TOR 36 6 7 8 18
M TOR 37 7 8 4 14
M TOR 38 8 4 3 13
M TOR 39 8 7 6 15
M TOR 40 8 7 6 16
M  END
$$$$
