
     RDKit          3D

 19 20  0  0  0  0  0  0  0  0999 V2000
    1.8739   -0.6273   -1.4472 C   0  0  0  0  0  0  0  0  0  0  0  0
    1.3696    0.1340   -0.2193 C   0  0  0  0  0  0  0  0  0  0  0  0
    2.0959    1.4737   -0.0177 C   0  0  0  0  0  0  0  0  0  0  0  0
    1.6022    2.1997    1.1921 C   0  0  0  0  0  0  0  0  0  0  0  0
    0.2359    2.8772    1.4978 C   0  0  0  0  0  0  0  0  0  0  0  0
    1.1921    3.3381    2.6193 C   0  0  0  0  0  0  0  0  0  0  0  0
    2.2579    3.4895    1.5944 O   0  0  0  0  0  0  0  0  0  0  0  0
    1.7105    1.8795    2.7138 C   0  0  0  0  0  0  0  0  0  0  0  0
    2.1053    1.0586    3.4749 O   0  0  0  0  0  0  0  0  0  0  0  0
    1.3428   -1.5759   -1.5690 H   0  0  0  0  0  0  0  0  0  0  0  0
    1.7299   -0.0432   -2.3628 H   0  0  0  0  0  0  0  0  0  0  0  0
    2.9426   -0.8514   -1.3618 H   0  0  0  0  0  0  0  0  0  0  0  0
    0.2920    0.3170   -0.3162 H   0  0  0  0  0  0  0  0  0  0  0  0
    1.4989   -0.4810    0.6791 H   0  0  0  0  0  0  0  0  0  0  0  0
    3.1728    1.3024    0.1003 H   0  0  0  0  0  0  0  0  0  0  0  0
    1.9698    2.1122   -0.9010 H   0  0  0  0  0  0  0  0  0  0  0  0
   -0.0076    3.6751    0.7939 H   0  0  0  0  0  0  0  0  0  0  0  0
   -0.6211    2.2496    1.7568 H   0  0  0  0  0  0  0  0  0  0  0  0
    1.0824    4.1322    3.3537 H   0  0  0  0  0  0  0  0  0  0  0  0
  1  2  1  0
  2  3  1  0
  3  4  1  0
  4  5  1  0
  5  6  1  0
  6  7  1  0
  6  8  1  0
  8  9  2  0
  7  4  1  0
  8  4  1  0
  1 10  1  0
  1 11  1  0
  1 12  1  0
  2 13  1  0
  2 14  1  0
  3 15  1  0
  3 16  1  0
  5 17  1  0
  5 18  1  0
  6 19  1  0
M  END
$$$$
