
     RDKit          3D

 19 21  0  0  0  0  0  0  0  0999 V2000
   -0.0392   -0.0962    0.3827 C   0  0  0  0  0  0  0  0  0  0  0  0
    1.3911   -0.0664   -0.0904 C   0  0  0  0  0  0  0  0  0  0  0  0
    1.8554   -1.4242   -0.3841 O   0  0  0  0  0  0  0  0  0  0  0  0
    2.8381   -1.3730    0.6927 C   0  0  0  0  0  0  0  0  0  0  0  0
    2.6965    0.1384    0.7102 C   0  0  0  0  0  0  0  0  0  0  0  0
    2.5547    1.4263    1.5046 C   0  0  0  0  0  0  0  0  0  0  0  0
    1.9496    2.2482    0.2880 C   0  0  0  0  0  0  0  0  0  0  0  0
    2.0180    1.1415   -0.8238 C   0  0  0  0  0  0  0  0  0  0  0  0
    3.3324    0.6147   -0.5345 O   0  0  0  0  0  0  0  0  0  0  0  0
   -0.1496   -0.7267    1.2708 H   0  0  0  0  0  0  0  0  0  0  0  0
   -0.4323    0.8975    0.6098 H   0  0  0  0  0  0  0  0  0  0  0  0
   -0.6607   -0.5348   -0.4060 H   0  0  0  0  0  0  0  0  0  0  0  0
    2.4757   -1.8921    1.5892 H   0  0  0  0  0  0  0  0  0  0  0  0
    3.8131   -1.7612    0.3880 H   0  0  0  0  0  0  0  0  0  0  0  0
    1.8625    1.3386    2.3458 H   0  0  0  0  0  0  0  0  0  0  0  0
    3.5007    1.8388    1.8592 H   0  0  0  0  0  0  0  0  0  0  0  0
    0.9505    2.6427    0.4868 H   0  0  0  0  0  0  0  0  0  0  0  0
    2.5991    3.0766    0.0008 H   0  0  0  0  0  0  0  0  0  0  0  0
    1.8530    1.4435   -1.8603 H   0  0  0  0  0  0  0  0  0  0  0  0
  1  2  1  0
  2  3  1  0
  3  4  1  0
  4  5  1  0
  5  6  1  0
  6  7  1  0
  7  8  1  0
  8  9  1  0
  5  2  1  0
  9  5  1  0
  8  2  1  0
  1 10  1  0
  1 11  1  0
  1 12  1  0
  4 13  1  0
  4 14  1  0
  6 15  1  0
  6 16  1  0
  7 17  1  0
  7 18  1  0
  8 19  1  0
M  END
$$$$
