
     RDKit          3D

 19 20  0  0  0  0  0  0  0  0999 V2000
   -2.6790    1.1994   -1.9238 C   0  0  0  0  0  0  0  0  0  0  0  0
   -1.3471    0.6380   -1.4570 C   0  0  0  0  0  0  0  0  0  0  0  0
   -1.4412   -0.8011   -1.2367 O   0  0  0  0  0  0  0  0  0  0  0  0
   -0.9444   -0.9798    0.1068 C   0  0  0  0  0  0  0  0  0  0  0  0
   -0.9074   -2.4231    0.5047 C   0  0  0  0  0  0  0  0  0  0  0  0
   -1.6612    0.1708    0.8796 C   0  0  0  0  0  0  0  0  0  0  0  0
   -0.8247    1.0902   -0.0751 C   0  0  0  0  0  0  0  0  0  0  0  0
    0.2590    0.0017    0.1153 C   0  0  0  0  0  0  0  0  0  0  0  0
    1.4318   -0.0396    0.3294 O   0  0  0  0  0  0  0  0  0  0  0  0
   -3.4513    1.1194   -1.1545 H   0  0  0  0  0  0  0  0  0  0  0  0
   -2.5704    2.2531   -2.2011 H   0  0  0  0  0  0  0  0  0  0  0  0
   -3.0201    0.6470   -2.8047 H   0  0  0  0  0  0  0  0  0  0  0  0
   -0.5886    0.8229   -2.2298 H   0  0  0  0  0  0  0  0  0  0  0  0
   -0.5074   -2.5284    1.5167 H   0  0  0  0  0  0  0  0  0  0  0  0
   -1.9103   -2.8596    0.4749 H   0  0  0  0  0  0  0  0  0  0  0  0
   -0.2677   -2.9862   -0.1805 H   0  0  0  0  0  0  0  0  0  0  0  0
   -2.7467    0.1975    0.7767 H   0  0  0  0  0  0  0  0  0  0  0  0
   -1.3591    0.2526    1.9257 H   0  0  0  0  0  0  0  0  0  0  0  0
   -0.6485    2.1492    0.0957 H   0  0  0  0  0  0  0  0  0  0  0  0
  1  2  1  0
  2  3  1  0
  3  4  1  0
  4  5  1  0
  4  6  1  0
  6  7  1  0
  7  8  1  0
  8  9  2  0
  7  2  1  0
  8  4  1  0
  1 10  1  0
  1 11  1  0
  1 12  1  0
  2 13  1  0
  5 14  1  0
  5 15  1  0
  5 16  1  0
  6 17  1  0
  6 18  1  0
  7 19  1  0
M  END
$$$$
