gdb 2079	2.4975132	1.7001914	1.2596752	1.7656	76.36	-0.23	0.01232	0.24232	1045.703	0.157379	-422.538668	-422.53061	-422.529666	-422.570728	31.989
 OpenBabel02181911403D

 19 20  0  0  1  0  0  0  0  0999 V2000
    0.1886    0.0817    0.8093 O   0  0  0  0  0  0  0  0  0  0  0  0
   -1.0141    0.3827    0.1554 C   0  0  1  0  0  0  0  0  0  0  0  0
   -2.2435    0.3334    1.0226 C   0  0  0  0  0  0  0  0  0  0  0  0
   -1.7215    1.6580    0.5270 C   0  0  2  0  0  0  0  0  0  0  0  0
   -2.4593    2.3059   -0.4643 O   0  0  0  0  0  0  0  0  0  0  0  0
   -1.6424    3.0764   -1.3311 C   0  0  0  0  0  0  0  0  0  0  0  0
   -0.6944    2.3040   -2.2136 C   0  0  0  0  0  0  0  0  0  0  0  0
   -0.4578    0.9910   -2.2309 C   0  0  0  0  0  0  0  0  0  0  0  0
   -1.0897   -0.0326   -1.3082 C   0  0  0  0  0  0  0  0  0  0  0  0
    0.8842    0.5950    0.3805 H   0  0  0  0  0  0  0  0  0  0  0  0
   -3.1625   -0.0393    0.5847 H   0  0  0  0  0  0  0  0  0  0  0  0
   -2.1008    0.1129    2.0740 H   0  0  0  0  0  0  0  0  0  0  0  0
   -1.2359    2.3156    1.2504 H   0  0  0  0  0  0  0  0  0  0  0  0
   -2.3365    3.6458   -1.9626 H   0  0  0  0  0  0  0  0  0  0  0  0
   -1.0714    3.8238   -0.7504 H   0  0  0  0  0  0  0  0  0  0  0  0
   -0.1690    2.9370   -2.9284 H   0  0  0  0  0  0  0  0  0  0  0  0
    0.2389    0.6129   -2.9756 H   0  0  0  0  0  0  0  0  0  0  0  0
   -2.1355   -0.1876   -1.5936 H   0  0  0  0  0  0  0  0  0  0  0  0
   -0.5901   -1.0006   -1.4143 H   0  0  0  0  0  0  0  0  0  0  0  0
  2  4  1  0  0  0  0
  2  1  1  1  0  0  0
  2  3  1  0  0  0  0
  3 12  1  0  0  0  0
  4  3  1  0  0  0  0
  4 13  1  1  0  0  0
  5  4  1  0  0  0  0
  6 15  1  0  0  0  0
  6  5  1  0  0  0  0
  7  6  1  0  0  0  0
  8  7  2  0  0  0  0
  8  9  1  0  0  0  0
  9  2  1  0  0  0  0
 10  1  1  0  0  0  0
 11  3  1  0  0  0  0
 14  6  1  0  0  0  0
 16  7  1  0  0  0  0
 17  8  1  0  0  0  0
 18  9  1  0  0  0  0
 19  9  1  0  0  0  0
M TOR 0 0 1 2 3
M TOR 1 0 1 2 10
M TOR 2 0 1 2 11
M TOR 3 0 1 3 4
M TOR 4 0 1 3 12
M TOR 5 0 1 8 7
M TOR 6 0 1 8 17
M TOR 7 0 1 8 18
M TOR 8 1 2 3 4
M TOR 9 1 2 3 12
M TOR 10 1 3 2 10
M TOR 11 1 3 2 11
M TOR 12 1 3 4 5
M TOR 13 1 8 7 6
M TOR 14 1 8 7 16
M TOR 15 2 1 0 9
M TOR 16 2 1 8 7
M TOR 17 2 1 8 17
M TOR 18 2 1 8 18
M TOR 19 2 3 1 8
M TOR 20 2 3 4 5
M TOR 21 3 1 0 9
M TOR 22 3 1 8 7
M TOR 23 3 1 8 17
M TOR 24 3 1 8 18
M TOR 25 3 4 5 6
M TOR 26 3 4 5 13
M TOR 27 3 4 5 14
M TOR 28 4 3 1 8
M TOR 29 4 3 2 10
M TOR 30 4 3 2 11
M TOR 31 4 5 6 7
M TOR 32 4 5 6 15
M TOR 33 5 4 3 12
M TOR 34 5 6 7 8
M TOR 35 5 6 7 16
M TOR 36 6 7 8 17
M TOR 37 6 7 8 18
M TOR 38 7 6 5 13
M TOR 39 7 6 5 14
M TOR 40 8 1 0 9
M TOR 41 8 1 2 10
M TOR 42 8 1 2 11
M TOR 43 8 1 3 12
M TOR 44 8 7 6 15
M  END
$$$$
