gdb 2073	2.3994327	1.8870967	1.3449363	1.5523	75.3	-0.23035	0.06992	0.30027	1006.0926	0.156961	-422.530292	-422.522299	-422.521354	-422.562252	32.009
 OpenBabel02181911403D

 19 21  0  0  1  0  0  0  0  0999 V2000
   -0.4137   -0.5132   -2.3951 O   0  0  0  0  0  0  0  0  0  0  0  0
   -0.9870   -0.2296   -1.1623 C   0  0  1  0  0  0  0  0  0  0  0  0
   -2.3698    0.3409   -1.1436 C   0  0  0  0  0  0  0  0  0  0  0  0
   -2.1135   -1.0236   -0.5299 C   0  0  2  0  0  0  0  0  0  0  0  0
   -1.8055   -1.0525    0.9523 C   0  0  0  0  0  0  0  0  0  0  0  0
   -0.8525   -0.0027    1.1691 O   0  0  0  0  0  0  0  0  0  0  0  0
   -0.0993    0.1658   -0.0081 C   0  0  0  0  0  0  0  0  0  0  0  0
    1.3744   -0.1598    0.0051 C   0  0  0  0  0  0  0  0  0  0  0  0
    0.8861    1.2818   -0.0223 C   0  0  0  0  0  0  0  0  0  0  0  0
    0.1281   -1.3042   -2.2952 H   0  0  0  0  0  0  0  0  0  0  0  0
   -2.5828    1.1834   -0.4932 H   0  0  0  0  0  0  0  0  0  0  0  0
   -2.8878    0.3423   -2.0957 H   0  0  0  0  0  0  0  0  0  0  0  0
   -2.5194   -1.9043   -1.0132 H   0  0  0  0  0  0  0  0  0  0  0  0
   -2.6611   -0.8404    1.6017 H   0  0  0  0  0  0  0  0  0  0  0  0
   -1.3862   -2.0301    1.2374 H   0  0  0  0  0  0  0  0  0  0  0  0
    1.7806   -0.5310    0.9392 H   0  0  0  0  0  0  0  0  0  0  0  0
    1.8455   -0.5510   -0.8909 H   0  0  0  0  0  0  0  0  0  0  0  0
    0.9879    1.8634    0.8869 H   0  0  0  0  0  0  0  0  0  0  0  0
    1.0031    1.8406   -0.9445 H   0  0  0  0  0  0  0  0  0  0  0  0
  1 10  1  0  0  0  0
  2  1  1  6  0  0  0
  2  3  1  0  0  0  0
  2  4  1  0  0  0  0
  2  7  1  0  0  0  0
  3  4  1  0  0  0  0
  3 11  1  0  0  0  0
  4 13  1  6  0  0  0
  4  5  1  0  0  0  0
  5  6  1  0  0  0  0
  5 15  1  0  0  0  0
  5 14  1  0  0  0  0
  7  8  1  0  0  0  0
  7  6  1  0  0  0  0
  8 16  1  0  0  0  0
  9  7  1  0  0  0  0
  9  8  1  0  0  0  0
  9 18  1  0  0  0  0
 12  3  1  0  0  0  0
 17  8  1  0  0  0  0
 19  9  1  0  0  0  0
M TOR 0 0 1 2 3
M TOR 1 0 1 2 10
M TOR 2 0 1 2 11
M TOR 3 0 1 3 4
M TOR 4 0 1 3 12
M TOR 5 0 1 6 5
M TOR 6 0 1 6 7
M TOR 7 0 1 6 8
M TOR 8 1 2 3 4
M TOR 9 1 2 3 12
M TOR 10 1 3 2 10
M TOR 11 1 3 2 11
M TOR 12 1 3 4 5
M TOR 13 1 3 4 13
M TOR 14 1 3 4 14
M TOR 15 1 6 5 4
M TOR 16 1 6 7 8
M TOR 17 1 6 7 15
M TOR 18 1 6 7 16
M TOR 19 1 6 8 17
M TOR 20 1 6 8 18
M TOR 21 2 1 0 9
M TOR 22 2 1 6 5
M TOR 23 2 1 6 7
M TOR 24 2 1 6 8
M TOR 25 2 3 1 6
M TOR 26 2 3 4 5
M TOR 27 2 3 4 13
M TOR 28 2 3 4 14
M TOR 29 3 1 0 9
M TOR 30 3 1 6 5
M TOR 31 3 1 6 7
M TOR 32 3 1 6 8
M TOR 33 3 4 5 6
M TOR 34 4 3 1 6
M TOR 35 4 3 2 10
M TOR 36 4 3 2 11
M TOR 37 4 5 6 7
M TOR 38 4 5 6 8
M TOR 39 5 4 3 12
M TOR 40 5 6 7 8
M TOR 41 5 6 7 15
M TOR 42 5 6 7 16
M TOR 43 5 6 8 17
M TOR 44 5 6 8 18
M TOR 45 6 1 0 9
M TOR 46 6 1 2 10
M TOR 47 6 1 2 11
M TOR 48 6 1 3 12
M TOR 49 6 5 4 13
M TOR 50 6 5 4 14
M TOR 51 6 7 8 17
M TOR 52 6 7 8 18
M TOR 53 6 8 7 15
M TOR 54 6 8 7 16
M  END
$$$$
