
     RDKit          3D

 19 21  0  0  0  0  0  0  0  0999 V2000
   -0.1247   -0.3687    0.0962 C   0  0  0  0  0  0  0  0  0  0  0  0
    1.3758   -0.1194    0.0725 C   0  0  0  0  0  0  0  0  0  0  0  0
    2.0118   -1.0147    0.9481 O   0  0  0  0  0  0  0  0  0  0  0  0
    2.1967    0.0129   -1.3261 C   0  0  0  0  0  0  0  0  0  0  0  0
    3.3140    0.7048   -0.5251 C   0  0  0  0  0  0  0  0  0  0  0  0
    1.9609    1.3474   -0.0671 C   0  0  0  0  0  0  0  0  0  0  0  0
    1.8926    2.7667    0.1536 O   0  0  0  0  0  0  0  0  0  0  0  0
    1.9726    2.8872   -1.3222 C   0  0  0  0  0  0  0  0  0  0  0  0
    1.5021    1.4021   -1.5144 C   0  0  0  0  0  0  0  0  0  0  0  0
   -0.5029   -0.2280    1.1169 H   0  0  0  0  0  0  0  0  0  0  0  0
   -0.6971    0.2939   -0.5509 H   0  0  0  0  0  0  0  0  0  0  0  0
   -0.3283   -1.4034   -0.1956 H   0  0  0  0  0  0  0  0  0  0  0  0
    1.4563   -1.1306    1.7251 H   0  0  0  0  0  0  0  0  0  0  0  0
    2.3033   -0.8073   -2.0378 H   0  0  0  0  0  0  0  0  0  0  0  0
    3.8511    0.1042    0.2024 H   0  0  0  0  0  0  0  0  0  0  0  0
    3.9777    1.3462   -1.1030 H   0  0  0  0  0  0  0  0  0  0  0  0
    1.2438    3.6154   -1.6844 H   0  0  0  0  0  0  0  0  0  0  0  0
    2.9792    3.1719   -1.6361 H   0  0  0  0  0  0  0  0  0  0  0  0
    0.4315    1.3790   -1.7030 H   0  0  0  0  0  0  0  0  0  0  0  0
  1  2  1  0
  2  3  1  0
  2  4  1  0
  4  5  1  0
  5  6  1  0
  6  7  1  0
  7  8  1  0
  8  9  1  0
  6  2  1  0
  9  6  1  0
  9  4  1  0
  1 10  1  0
  1 11  1  0
  1 12  1  0
  3 13  1  0
  4 14  1  0
  5 15  1  0
  5 16  1  0
  8 17  1  0
  8 18  1  0
  9 19  1  0
M  END
$$$$
