gdb 5275	2.6496563	1.6396696	1.3102265	2.9109	73.65	-0.24041	0.05715	0.29756	1043.0201	0.156262	-422.487794	-422.479761	-422.478817	-422.520232	31.016
 OpenBabel02181911423D

 19 21  0  0  1  0  0  0  0  0999 V2000
    1.2192   -1.2360    1.0440 C   0  0  0  0  0  0  0  0  0  0  0  0
    1.4482   -0.0628    0.0834 C   0  0  0  0  0  0  0  0  0  0  0  0
    1.9989   -0.4632   -1.2644 C   0  0  1  0  0  0  0  0  0  0  0  0
    2.3669    0.6556   -2.0948 O   0  0  0  0  0  0  0  0  0  0  0  0
    3.6684    0.0813   -2.3798 C   0  0  0  0  0  0  0  0  0  0  0  0
    3.3592   -1.1694   -1.5302 C   0  0  2  0  0  0  0  0  0  0  0  0
    2.5862   -2.3034   -2.2480 C   0  0  2  0  0  0  0  0  0  0  0  0
    1.8661   -1.7221   -3.3341 O   0  0  0  0  0  0  0  0  0  0  0  0
    1.2883   -1.6311   -2.0318 C   0  0  2  0  0  0  0  0  0  0  0  0
    0.8494   -0.8757    2.0080 H   0  0  0  0  0  0  0  0  0  0  0  0
    0.4848   -1.9479    0.6547 H   0  0  0  0  0  0  0  0  0  0  0  0
    2.1480   -1.7856    1.2300 H   0  0  0  0  0  0  0  0  0  0  0  0
    0.5055    0.4752   -0.0862 H   0  0  0  0  0  0  0  0  0  0  0  0
    2.1390    0.6612    0.5299 H   0  0  0  0  0  0  0  0  0  0  0  0
    3.8170   -0.0854   -3.4500 H   0  0  0  0  0  0  0  0  0  0  0  0
    4.4711    0.7113   -1.9795 H   0  0  0  0  0  0  0  0  0  0  0  0
    4.0366   -1.4602   -0.7291 H   0  0  0  0  0  0  0  0  0  0  0  0
    2.8393   -3.3548   -2.3230 H   0  0  0  0  0  0  0  0  0  0  0  0
    0.2828   -2.0221   -1.9145 H   0  0  0  0  0  0  0  0  0  0  0  0
  1 12  1  0  0  0  0
  1 10  1  0  0  0  0
  2 14  1  0  0  0  0
  2  1  1  0  0  0  0
  3  2  1  1  0  0  0
  4  3  1  0  0  0  0
  5  4  1  0  0  0  0
  5 16  1  0  0  0  0
  5  6  1  0  0  0  0
  6  3  1  0  0  0  0
  6 17  1  1  0  0  0
  7 18  1  1  0  0  0
  7  9  1  0  0  0  0
  7  6  1  0  0  0  0
  8  7  1  0  0  0  0
  8  9  1  0  0  0  0
  9 19  1  1  0  0  0
  9  3  1  0  0  0  0
 11  1  1  0  0  0  0
 13  2  1  0  0  0  0
 15  5  1  0  0  0  0
M TOR 0 0 1 2 3
M TOR 1 0 1 2 5
M TOR 2 0 1 2 8
M TOR 3 1 2 3 4
M TOR 4 1 2 5 4
M TOR 5 1 2 5 6
M TOR 6 1 2 5 16
M TOR 7 1 2 8 6
M TOR 8 1 2 8 7
M TOR 9 1 2 8 18
M TOR 10 2 1 0 9
M TOR 11 2 1 0 10
M TOR 12 2 1 0 11
M TOR 13 2 3 4 5
M TOR 14 2 3 4 14
M TOR 15 2 3 4 15
M TOR 16 2 5 4 14
M TOR 17 2 5 4 15
M TOR 18 2 5 6 7
M TOR 19 2 5 6 8
M TOR 20 2 5 6 17
M TOR 21 2 8 6 7
M TOR 22 2 8 6 17
M TOR 23 3 2 1 12
M TOR 24 3 2 1 13
M TOR 25 3 2 5 6
M TOR 26 3 2 5 16
M TOR 27 3 2 8 6
M TOR 28 3 2 8 7
M TOR 29 3 2 8 18
M TOR 30 3 4 5 6
M TOR 31 3 4 5 16
M TOR 32 4 3 2 8
M TOR 33 4 5 2 8
M TOR 34 4 5 6 7
M TOR 35 4 5 6 8
M TOR 36 4 5 6 17
M TOR 37 5 2 1 12
M TOR 38 5 2 1 13
M TOR 39 5 2 8 7
M TOR 40 5 2 8 18
M TOR 41 5 6 7 8
M TOR 42 5 6 8 18
M TOR 43 6 5 4 14
M TOR 44 6 5 4 15
M TOR 45 6 7 8 18
M TOR 46 7 6 5 16
M TOR 47 7 8 6 17
M TOR 48 8 2 1 12
M TOR 49 8 2 1 13
M TOR 50 8 2 5 16
M TOR 51 8 6 5 16
M  END
$$$$
