gdb 5089	3.6040691	1.1138719	1.0866786	1.8711	75.26	-0.22803	0.05754	0.28557	1211.5575	0.155134	-422.482497	-422.473676	-422.472732	-422.515933	33.483
 OpenBabel02181911423D

 19 21  0  0  1  0  0  0  0  0999 V2000
    4.5953   -2.3443    2.9373 C   0  0  0  0  0  0  0  0  0  0  0  0
    3.8928   -2.4404    1.6156 C   0  0  1  0  0  0  0  0  0  0  0  0
    3.7084   -3.6990    0.8124 C   0  0  0  0  0  0  0  0  0  0  0  0
    2.4897   -2.9406    1.2791 C   0  0  2  0  0  0  0  0  0  0  0  0
    2.2570   -1.6467    0.4375 C   0  0  2  0  0  0  0  0  0  0  0  0
    0.9615   -0.9469    0.1890 C   0  0  0  0  0  0  0  0  0  0  0  0
    0.1174   -1.6835   -0.6818 O   0  0  0  0  0  0  0  0  0  0  0  0
    3.2558   -1.5844   -0.6073 O   0  0  0  0  0  0  0  0  0  0  0  0
    3.6100   -1.1802    0.7239 C   0  0  2  0  0  0  0  0  0  0  0  0
    4.4598   -3.2615    3.5191 H   0  0  0  0  0  0  0  0  0  0  0  0
    5.6736   -2.1895    2.8072 H   0  0  0  0  0  0  0  0  0  0  0  0
    4.2115   -1.5111    3.5382 H   0  0  0  0  0  0  0  0  0  0  0  0
    3.9617   -3.7322   -0.2397 H   0  0  0  0  0  0  0  0  0  0  0  0
    3.9031   -4.6141    1.3638 H   0  0  0  0  0  0  0  0  0  0  0  0
    1.7446   -3.3590    1.9433 H   0  0  0  0  0  0  0  0  0  0  0  0
    0.4076   -0.8411    1.1281 H   0  0  0  0  0  0  0  0  0  0  0  0
    1.1718    0.0617   -0.1974 H   0  0  0  0  0  0  0  0  0  0  0  0
    0.6058   -1.8166   -1.5018 H   0  0  0  0  0  0  0  0  0  0  0  0
    4.0232   -0.1855    0.8529 H   0  0  0  0  0  0  0  0  0  0  0  0
  1 10  1  0  0  0  0
  1 12  1  0  0  0  0
  2  1  1  1  0  0  0
  3  4  1  0  0  0  0
  3 14  1  0  0  0  0
  3  2  1  0  0  0  0
  4  2  1  0  0  0  0
  4 15  1  1  0  0  0
  5  6  1  1  0  0  0
  5  9  1  0  0  0  0
  5  4  1  0  0  0  0
  6 16  1  0  0  0  0
  7  6  1  0  0  0  0
  8  5  1  0  0  0  0
  8  9  1  0  0  0  0
  9 19  1  1  0  0  0
  9  2  1  0  0  0  0
 11  1  1  0  0  0  0
 13  3  1  0  0  0  0
 17  6  1  0  0  0  0
 18  7  1  0  0  0  0
M TOR 0 0 1 2 3
M TOR 1 0 1 2 12
M TOR 2 0 1 2 13
M TOR 3 0 1 3 4
M TOR 4 0 1 3 14
M TOR 5 0 1 8 4
M TOR 6 0 1 8 7
M TOR 7 0 1 8 18
M TOR 8 1 2 3 4
M TOR 9 1 2 3 14
M TOR 10 1 3 2 12
M TOR 11 1 3 2 13
M TOR 12 1 3 4 5
M TOR 13 1 3 4 7
M TOR 14 1 3 4 8
M TOR 15 1 8 4 5
M TOR 16 1 8 4 7
M TOR 17 2 1 0 9
M TOR 18 2 1 0 10
M TOR 19 2 1 0 11
M TOR 20 2 1 8 4
M TOR 21 2 1 8 7
M TOR 22 2 1 8 18
M TOR 23 2 3 1 8
M TOR 24 2 3 4 5
M TOR 25 2 3 4 7
M TOR 26 2 3 4 8
M TOR 27 3 1 0 9
M TOR 28 3 1 0 10
M TOR 29 3 1 0 11
M TOR 30 3 1 8 7
M TOR 31 3 1 8 18
M TOR 32 3 4 5 6
M TOR 33 3 4 5 15
M TOR 34 3 4 5 16
M TOR 35 3 4 7 8
M TOR 36 3 4 8 18
M TOR 37 4 3 2 12
M TOR 38 4 3 2 13
M TOR 39 4 5 6 17
M TOR 40 4 7 8 18
M TOR 41 5 4 3 14
M TOR 42 5 4 7 8
M TOR 43 5 4 8 18
M TOR 44 6 5 4 7
M TOR 45 6 5 4 8
M TOR 46 7 4 3 14
M TOR 47 7 4 5 15
M TOR 48 7 4 5 16
M TOR 49 8 1 0 9
M TOR 50 8 1 0 10
M TOR 51 8 1 0 11
M TOR 52 8 1 2 12
M TOR 53 8 1 2 13
M TOR 54 8 1 3 14
M TOR 55 8 4 3 14
M TOR 56 8 4 5 15
M TOR 57 8 4 5 16
M  END
$$$$
