gdb 3399	2.9554125	1.723413	1.4917719	0.4767	73.57	-0.231	0.07168	0.30268	948.1537	0.159584	-422.527205	-422.520241	-422.519297	-422.55804	28.881
 OpenBabel02181911413D

 19 21  0  0  1  0  0  0  0  0999 V2000
    0.2546    0.0873    0.6278 O   0  0  0  0  0  0  0  0  0  0  0  0
   -0.8950    0.7965    0.2018 C   0  0  2  0  0  0  0  0  0  0  0  0
   -2.2089   -0.0289    0.3617 C   0  0  1  0  0  0  0  0  0  0  0  0
   -3.3548    0.8047    0.3072 O   0  0  0  0  0  0  0  0  0  0  0  0
   -3.2493    1.7511   -0.7626 C   0  0  0  0  0  0  0  0  0  0  0  0
   -2.4137    1.1457   -1.8888 C   0  0  2  0  0  0  0  0  0  0  0  0
   -2.9146   -0.3112   -2.1131 C   0  0  0  0  0  0  0  0  0  0  0  0
   -1.9054   -0.7182   -1.0321 C   0  0  1  0  0  0  0  0  0  0  0  0
   -1.0596    0.5679   -1.3056 C   0  0  2  0  0  0  0  0  0  0  0  0
    0.2310    0.0379    1.5893 H   0  0  0  0  0  0  0  0  0  0  0  0
   -0.9043    1.8206    0.6005 H   0  0  0  0  0  0  0  0  0  0  0  0
   -2.3109   -0.6644    1.2445 H   0  0  0  0  0  0  0  0  0  0  0  0
   -4.2708    1.9600   -1.0992 H   0  0  0  0  0  0  0  0  0  0  0  0
   -2.8138    2.6937   -0.4009 H   0  0  0  0  0  0  0  0  0  0  0  0
   -2.3453    1.8191   -2.7456 H   0  0  0  0  0  0  0  0  0  0  0  0
   -3.9776   -0.5062   -1.9418 H   0  0  0  0  0  0  0  0  0  0  0  0
   -2.6228   -0.7044   -3.0909 H   0  0  0  0  0  0  0  0  0  0  0  0
   -1.4836   -1.7212   -0.9826 H   0  0  0  0  0  0  0  0  0  0  0  0
   -0.1871    0.6070   -1.9582 H   0  0  0  0  0  0  0  0  0  0  0  0
  1 10  1  0  0  0  0
  2  3  1  0  0  0  0
  2 11  1  1  0  0  0
  2  1  1  0  0  0  0
  3 12  1  1  0  0  0
  4  3  1  0  0  0  0
  5 14  1  0  0  0  0
  5  4  1  0  0  0  0
  6 15  1  6  0  0  0
  6  9  1  0  0  0  0
  6  5  1  0  0  0  0
  7 16  1  0  0  0  0
  7  6  1  0  0  0  0
  7  8  1  0  0  0  0
  8 18  1  6  0  0  0
  8  3  1  0  0  0  0
  9 19  1  6  0  0  0
  9  8  1  0  0  0  0
  9  2  1  0  0  0  0
 13  5  1  0  0  0  0
 17  7  1  0  0  0  0
M TOR 0 0 1 2 3
M TOR 1 0 1 2 7
M TOR 2 0 1 2 11
M TOR 3 0 1 8 5
M TOR 4 0 1 8 7
M TOR 5 0 1 8 18
M TOR 6 1 2 3 4
M TOR 7 1 2 7 6
M TOR 8 1 2 7 8
M TOR 9 1 2 7 17
M TOR 10 1 8 5 4
M TOR 11 1 8 5 6
M TOR 12 1 8 5 14
M TOR 13 1 8 7 6
M TOR 14 1 8 7 17
M TOR 15 2 1 0 9
M TOR 16 2 1 8 5
M TOR 17 2 1 8 18
M TOR 18 2 3 4 5
M TOR 19 2 3 4 12
M TOR 20 2 3 4 13
M TOR 21 2 7 6 5
M TOR 22 2 7 6 15
M TOR 23 2 7 6 16
M TOR 24 2 7 8 5
M TOR 25 2 7 8 18
M TOR 26 3 2 1 8
M TOR 27 3 2 1 10
M TOR 28 3 2 7 6
M TOR 29 3 2 7 8
M TOR 30 3 2 7 17
M TOR 31 3 4 5 6
M TOR 32 3 4 5 8
M TOR 33 3 4 5 14
M TOR 34 4 3 2 7
M TOR 35 4 3 2 11
M TOR 36 4 5 6 7
M TOR 37 4 5 6 15
M TOR 38 4 5 6 16
M TOR 39 4 5 8 7
M TOR 40 4 5 8 18
M TOR 41 5 6 7 8
M TOR 42 5 6 7 17
M TOR 43 5 8 1 10
M TOR 44 5 8 7 17
M TOR 45 6 5 4 12
M TOR 46 6 5 4 13
M TOR 47 6 5 8 18
M TOR 48 6 7 2 11
M TOR 49 6 7 8 18
M TOR 50 7 2 1 10
M TOR 51 7 6 5 14
M TOR 52 7 8 1 10
M TOR 53 7 8 5 14
M TOR 54 8 1 0 9
M TOR 55 8 1 2 11
M TOR 56 8 5 4 12
M TOR 57 8 5 4 13
M TOR 58 8 5 6 15
M TOR 59 8 5 6 16
M TOR 60 8 7 2 11
M TOR 61 8 7 6 15
M TOR 62 8 7 6 16
M  END
$$$$
