gdb 4405	2.4816764	1.262694	1.0985965	1.786	76.24	-0.24766	0.0409	0.28856	1192.9852	0.153769	-422.513725	-422.503847	-422.502903	-422.548593	36.154
 OpenBabel02181911413D

 19 19  0  0  1  0  0  0  0  0999 V2000
    2.8620    2.4930   -0.5623 C   0  0  0  0  0  0  0  0  0  0  0  0
    3.1122    1.0515   -0.9712 C   0  0  2  0  0  0  0  0  0  0  0  0
    2.6000    0.0359    0.0669 C   0  0  0  0  0  0  0  0  0  0  0  0
    1.1458    0.0294    0.1641 C   0  0  0  0  0  0  0  0  0  0  0  0
   -0.0564    0.0412    0.1998 C   0  0  0  0  0  0  0  0  0  0  0  0
    4.5230    0.8126   -1.2319 O   0  0  0  0  0  0  0  0  0  0  0  0
    4.2907    0.6503   -2.6477 C   0  0  0  0  0  0  0  0  0  0  0  0
    2.7708    0.6975   -2.4540 C   0  0  2  0  0  0  0  0  0  0  0  0
    2.1383    1.6630   -3.2530 O   0  0  0  0  0  0  0  0  0  0  0  0
    3.4473    2.7239    0.3335 H   0  0  0  0  0  0  0  0  0  0  0  0
    3.1548    3.1768   -1.3611 H   0  0  0  0  0  0  0  0  0  0  0  0
    1.8042    2.6573   -0.3360 H   0  0  0  0  0  0  0  0  0  0  0  0
    2.9611   -0.9589   -0.2192 H   0  0  0  0  0  0  0  0  0  0  0  0
    3.0486    0.2614    1.0423 H   0  0  0  0  0  0  0  0  0  0  0  0
   -1.1167    0.0403    0.2583 H   0  0  0  0  0  0  0  0  0  0  0  0
    4.6666    1.4993   -3.2317 H   0  0  0  0  0  0  0  0  0  0  0  0
    4.7194   -0.2801   -3.0343 H   0  0  0  0  0  0  0  0  0  0  0  0
    2.2817   -0.2804   -2.5442 H   0  0  0  0  0  0  0  0  0  0  0  0
    1.1933    1.6296   -3.0711 H   0  0  0  0  0  0  0  0  0  0  0  0
  1 12  1  0  0  0  0
  1 10  1  0  0  0  0
  2  1  1  1  0  0  0
  2  3  1  0  0  0  0
  3  4  1  0  0  0  0
  3 14  1  0  0  0  0
  4  5  3  0  0  0  0
  5 15  1  0  0  0  0
  6  2  1  0  0  0  0
  7  8  1  0  0  0  0
  7  6  1  0  0  0  0
  8 18  1  6  0  0  0
  8  2  1  0  0  0  0
  9 19  1  0  0  0  0
  9  8  1  0  0  0  0
 11  1  1  0  0  0  0
 13  3  1  0  0  0  0
 16  7  1  0  0  0  0
 17  7  1  0  0  0  0
M TOR 0 0 1 2 3
M TOR 1 0 1 2 12
M TOR 2 0 1 2 13
M TOR 3 0 1 5 6
M TOR 4 0 1 7 6
M TOR 5 0 1 7 8
M TOR 6 0 1 7 17
M TOR 7 1 2 3 4
M TOR 8 1 5 6 7
M TOR 9 1 5 6 15
M TOR 10 1 5 6 16
M TOR 11 1 7 6 15
M TOR 12 1 7 6 16
M TOR 13 1 7 8 18
M TOR 14 2 1 0 9
M TOR 15 2 1 0 10
M TOR 16 2 1 0 11
M TOR 17 2 1 5 6
M TOR 18 2 1 7 6
M TOR 19 2 1 7 8
M TOR 20 2 1 7 17
M TOR 21 2 3 4 14
M TOR 22 3 2 1 5
M TOR 23 3 2 1 7
M TOR 24 4 3 2 12
M TOR 25 4 3 2 13
M TOR 26 5 1 0 9
M TOR 27 5 1 0 10
M TOR 28 5 1 0 11
M TOR 29 5 1 2 12
M TOR 30 5 1 2 13
M TOR 31 5 1 7 8
M TOR 32 5 1 7 17
M TOR 33 5 6 7 8
M TOR 34 5 6 7 17
M TOR 35 6 7 8 18
M TOR 36 7 1 0 9
M TOR 37 7 1 0 10
M TOR 38 7 1 0 11
M TOR 39 7 1 2 12
M TOR 40 7 1 2 13
M TOR 41 8 7 6 15
M TOR 42 8 7 6 16
M  END
$$$$
