gdb 3462	2.536158	1.6459308	1.2464325	2.2824	75.82	-0.22294	0.01506	0.238	1061.6728	0.155316	-422.555796	-422.546788	-422.545844	-422.588611	34.864
 OpenBabel02181911413D

 19 20  0  0  1  0  0  0  0  0999 V2000
    0.0845    0.1982    0.0964 C   0  0  0  0  0  0  0  0  0  0  0  0
    1.5822   -0.1360    0.0797 C   0  0  2  0  0  0  0  0  0  0  0  0
    2.0523   -0.8785   -1.1612 C   0  0  0  0  0  0  0  0  0  0  0  0
    2.7629   -1.9724   -0.8759 C   0  0  0  0  0  0  0  0  0  0  0  0
    2.8422   -2.1901    0.5985 C   0  0  2  0  0  0  0  0  0  0  0  0
    4.0244   -2.6511    1.1651 O   0  0  0  0  0  0  0  0  0  0  0  0
    1.5140   -2.4679    1.2956 C   0  0  0  0  0  0  0  0  0  0  0  0
    2.0560   -1.0558    1.2098 C   0  0  2  0  0  0  0  0  0  0  0  0
    2.5992   -0.4715    2.3600 O   0  0  0  0  0  0  0  0  0  0  0  0
   -0.1855    0.7257    1.0174 H   0  0  0  0  0  0  0  0  0  0  0  0
   -0.1833    0.8441   -0.7460 H   0  0  0  0  0  0  0  0  0  0  0  0
   -0.5273   -0.7071    0.0309 H   0  0  0  0  0  0  0  0  0  0  0  0
    2.1400    0.8076    0.1733 H   0  0  0  0  0  0  0  0  0  0  0  0
    1.8029   -0.5354   -2.1596 H   0  0  0  0  0  0  0  0  0  0  0  0
    3.2158   -2.6504   -1.5895 H   0  0  0  0  0  0  0  0  0  0  0  0
    4.2721   -2.0057    1.8406 H   0  0  0  0  0  0  0  0  0  0  0  0
    0.6476   -2.7594    0.7114 H   0  0  0  0  0  0  0  0  0  0  0  0
    1.6051   -2.9378    2.2705 H   0  0  0  0  0  0  0  0  0  0  0  0
    1.9296   -0.4610    3.0513 H   0  0  0  0  0  0  0  0  0  0  0  0
  1 10  1  0  0  0  0
  2  1  1  0  0  0  0
  2 13  1  1  0  0  0
  2  8  1  0  0  0  0
  3  4  2  0  0  0  0
  3  2  1  0  0  0  0
  4  5  1  0  0  0  0
  5  6  1  1  0  0  0
  5  8  1  0  0  0  0
  5  7  1  0  0  0  0
  6 16  1  0  0  0  0
  7 18  1  0  0  0  0
  8  7  1  0  0  0  0
  8  9  1  1  0  0  0
  9 19  1  0  0  0  0
 11  1  1  0  0  0  0
 12  1  1  0  0  0  0
 14  3  1  0  0  0  0
 15  4  1  0  0  0  0
 17  7  1  0  0  0  0
M TOR 0 0 1 2 3
M TOR 1 0 1 2 13
M TOR 2 0 1 7 4
M TOR 3 0 1 7 6
M TOR 4 0 1 7 8
M TOR 5 1 2 3 4
M TOR 6 1 2 3 14
M TOR 7 1 7 4 3
M TOR 8 1 7 4 5
M TOR 9 1 7 4 6
M TOR 10 1 7 6 16
M TOR 11 1 7 6 17
M TOR 12 1 7 8 18
M TOR 13 2 1 0 9
M TOR 14 2 1 0 10
M TOR 15 2 1 0 11
M TOR 16 2 1 7 4
M TOR 17 2 1 7 6
M TOR 18 2 1 7 8
M TOR 19 2 3 4 5
M TOR 20 2 3 4 6
M TOR 21 2 3 4 7
M TOR 22 3 2 1 7
M TOR 23 3 2 1 12
M TOR 24 3 4 5 15
M TOR 25 3 4 6 7
M TOR 26 3 4 6 16
M TOR 27 3 4 6 17
M TOR 28 3 4 7 8
M TOR 29 4 3 2 13
M TOR 30 4 6 7 8
M TOR 31 4 7 1 12
M TOR 32 4 7 6 16
M TOR 33 4 7 6 17
M TOR 34 4 7 8 18
M TOR 35 5 4 3 14
M TOR 36 5 4 6 7
M TOR 37 5 4 6 16
M TOR 38 5 4 6 17
M TOR 39 5 4 7 8
M TOR 40 6 4 3 14
M TOR 41 6 4 5 15
M TOR 42 6 7 1 12
M TOR 43 6 7 8 18
M TOR 44 7 1 0 9
M TOR 45 7 1 0 10
M TOR 46 7 1 0 11
M TOR 47 7 1 2 13
M TOR 48 7 4 3 14
M TOR 49 7 4 5 15
M TOR 50 8 7 1 12
M TOR 51 8 7 6 16
M TOR 52 8 7 6 17
M  END
$$$$
