
     RDKit          3D

 19 21  0  0  0  0  0  0  0  0999 V2000
   -0.5363    2.9527   -0.1520 C   0  0  0  0  0  0  0  0  0  0  0  0
   -1.5207    1.9521    0.4269 C   0  0  0  0  0  0  0  0  0  0  0  0
   -0.8967    0.5093    0.6410 C   0  0  0  0  0  0  0  0  0  0  0  0
    0.2176    0.2667   -0.1734 O   0  0  0  0  0  0  0  0  0  0  0  0
   -0.6214    0.9363    2.1799 C   0  0  0  0  0  0  0  0  0  0  0  0
   -1.7837    1.8935    1.9178 C   0  0  0  0  0  0  0  0  0  0  0  0
   -3.2369    1.3637    1.6948 C   0  0  0  0  0  0  0  0  0  0  0  0
   -2.9612    2.5109    0.7364 C   0  0  0  0  0  0  0  0  0  0  0  0
   -2.3536    3.2758    1.9216 O   0  0  0  0  0  0  0  0  0  0  0  0
    0.4897    2.7677    0.1765 H   0  0  0  0  0  0  0  0  0  0  0  0
   -0.5337    2.8836   -1.2451 H   0  0  0  0  0  0  0  0  0  0  0  0
   -0.8196    3.9656    0.1392 H   0  0  0  0  0  0  0  0  0  0  0  0
   -1.6083   -0.3201    0.5901 H   0  0  0  0  0  0  0  0  0  0  0  0
    0.5489   -0.6161    0.0196 H   0  0  0  0  0  0  0  0  0  0  0  0
   -0.7229    0.1857    2.9685 H   0  0  0  0  0  0  0  0  0  0  0  0
    0.3522    1.4274    2.2394 H   0  0  0  0  0  0  0  0  0  0  0  0
   -3.3906    0.3631    1.2877 H   0  0  0  0  0  0  0  0  0  0  0  0
   -3.9259    1.5998    2.5052 H   0  0  0  0  0  0  0  0  0  0  0  0
   -3.6453    3.1104    0.1286 H   0  0  0  0  0  0  0  0  0  0  0  0
  1  2  1  0
  2  3  1  0
  3  4  1  0
  3  5  1  0
  5  6  1  0
  6  7  1  0
  7  8  1  0
  8  9  1  0
  6  2  1  0
  9  6  1  0
  8  2  1  0
  1 10  1  0
  1 11  1  0
  1 12  1  0
  3 13  1  0
  4 14  1  0
  5 15  1  0
  5 16  1  0
  7 17  1  0
  7 18  1  0
  8 19  1  0
M  END
$$$$
