
     RDKit          3D

 19 20  0  0  0  0  0  0  0  0999 V2000
    1.0200    1.0963    0.1584 C   0  0  0  0  0  0  0  0  0  0  0  0
    0.9147   -0.4133    0.0825 C   0  0  0  0  0  0  0  0  0  0  0  0
    1.8334   -1.2447    0.9076 C   0  0  0  0  0  0  0  0  0  0  0  0
    1.4336   -2.7316    0.8564 C   0  0  0  0  0  0  0  0  0  0  0  0
    2.3850   -3.6223    1.3924 O   0  0  0  0  0  0  0  0  0  0  0  0
    1.5519   -2.7092   -0.6926 C   0  0  0  0  0  0  0  0  0  0  0  0
    1.9715   -1.2373   -0.6464 C   0  0  0  0  0  0  0  0  0  0  0  0
    3.0548   -0.6710   -1.4544 C   0  0  0  0  0  0  0  0  0  0  0  0
    3.6176   -1.2719   -2.3421 O   0  0  0  0  0  0  0  0  0  0  0  0
    0.3819    1.4752    0.9634 H   0  0  0  0  0  0  0  0  0  0  0  0
    2.0412    1.4273    0.3672 H   0  0  0  0  0  0  0  0  0  0  0  0
    0.6974    1.5681   -0.7751 H   0  0  0  0  0  0  0  0  0  0  0  0
   -0.1061   -0.7741   -0.0492 H   0  0  0  0  0  0  0  0  0  0  0  0
    2.5171   -0.8056    1.6265 H   0  0  0  0  0  0  0  0  0  0  0  0
    0.4289   -2.9355    1.2556 H   0  0  0  0  0  0  0  0  0  0  0  0
    2.3490   -3.5590    2.3526 H   0  0  0  0  0  0  0  0  0  0  0  0
    2.3710   -3.3536   -1.0138 H   0  0  0  0  0  0  0  0  0  0  0  0
    0.6510   -2.9434   -1.2664 H   0  0  0  0  0  0  0  0  0  0  0  0
    3.3516    0.3693   -1.1954 H   0  0  0  0  0  0  0  0  0  0  0  0
  1  2  1  0
  2  3  1  0
  3  4  1  0
  4  5  1  0
  4  6  1  0
  6  7  1  0
  7  8  1  0
  8  9  2  0
  7  2  1  0
  7  3  1  0
  1 10  1  0
  1 11  1  0
  1 12  1  0
  2 13  1  0
  3 14  1  0
  4 15  1  0
  5 16  1  0
  6 17  1  0
  6 18  1  0
  8 19  1  0
M  END
$$$$
