
     RDKit          3D

 19 19  0  0  0  0  0  0  0  0999 V2000
   -2.8994    1.0278   -1.3517 C   0  0  0  0  0  0  0  0  0  0  0  0
   -2.3603    0.7740    0.0682 C   0  0  0  0  0  0  0  0  0  0  0  0
   -3.2249    1.5033    1.0995 C   0  0  0  0  0  0  0  0  0  0  0  0
   -2.2970   -0.7557    0.3323 C   0  0  0  0  0  0  0  0  0  0  0  0
   -0.9971   -1.2230   -0.3010 C   0  0  0  0  0  0  0  0  0  0  0  0
   -0.6871   -2.3269   -0.6565 O   0  0  0  0  0  0  0  0  0  0  0  0
   -0.0805    0.0373   -0.4238 C   0  0  0  0  0  0  0  0  0  0  0  0
    1.0273    0.0303   -0.8864 O   0  0  0  0  0  0  0  0  0  0  0  0
   -0.8699    1.2063    0.1412 C   0  0  0  0  0  0  0  0  0  0  0  0
   -2.2986    0.5166   -2.1133 H   0  0  0  0  0  0  0  0  0  0  0  0
   -3.9290    0.6684   -1.4485 H   0  0  0  0  0  0  0  0  0  0  0  0
   -2.8900    2.0968   -1.5877 H   0  0  0  0  0  0  0  0  0  0  0  0
   -4.2635    1.1573    1.0565 H   0  0  0  0  0  0  0  0  0  0  0  0
   -2.8572    1.3350    2.1175 H   0  0  0  0  0  0  0  0  0  0  0  0
   -3.2260    2.5836    0.9176 H   0  0  0  0  0  0  0  0  0  0  0  0
   -2.2265   -0.9532    1.4117 H   0  0  0  0  0  0  0  0  0  0  0  0
   -3.1579   -1.3135   -0.0442 H   0  0  0  0  0  0  0  0  0  0  0  0
   -0.5617    1.3355    1.1888 H   0  0  0  0  0  0  0  0  0  0  0  0
   -0.6460    2.1400   -0.3805 H   0  0  0  0  0  0  0  0  0  0  0  0
  1  2  1  0
  2  3  1  0
  2  4  1  0
  4  5  1  0
  5  6  2  0
  5  7  1  0
  7  8  2  0
  7  9  1  0
  9  2  1  0
  1 10  1  0
  1 11  1  0
  1 12  1  0
  3 13  1  0
  3 14  1  0
  3 15  1  0
  4 16  1  0
  4 17  1  0
  9 18  1  0
  9 19  1  0
M  END
$$$$
