
     RDKit          3D

 19 21  0  0  0  0  0  0  0  0999 V2000
    0.0412    0.1806    0.5316 O   0  0  0  0  0  0  0  0  0  0  0  0
   -0.8021    1.2475    0.2985 C   0  0  0  0  0  0  0  0  0  0  0  0
   -1.9417    1.2445   -0.7164 C   0  0  0  0  0  0  0  0  0  0  0  0
   -2.7818    2.0136    0.1908 O   0  0  0  0  0  0  0  0  0  0  0  0
   -1.7804    1.9504    1.2094 C   0  0  0  0  0  0  0  0  0  0  0  0
   -0.5269    2.6683    0.7644 C   0  0  0  0  0  0  0  0  0  0  0  0
    0.5736    2.8404    1.7648 C   0  0  0  0  0  0  0  0  0  0  0  0
    1.8897    3.4615    1.3483 C   0  0  0  0  0  0  0  0  0  0  0  0
    0.9472    4.2170    2.2528 C   0  0  0  0  0  0  0  0  0  0  0  0
    0.9233    0.4199    0.2262 H   0  0  0  0  0  0  0  0  0  0  0  0
   -1.7883    1.7515   -1.6767 H   0  0  0  0  0  0  0  0  0  0  0  0
   -2.3598    0.2442   -0.8784 H   0  0  0  0  0  0  0  0  0  0  0  0
   -2.0904    1.8087    2.2383 H   0  0  0  0  0  0  0  0  0  0  0  0
   -0.6463    3.4880    0.0552 H   0  0  0  0  0  0  0  0  0  0  0  0
    0.6420    2.0399    2.4955 H   0  0  0  0  0  0  0  0  0  0  0  0
    2.8065    3.0664    1.7721 H   0  0  0  0  0  0  0  0  0  0  0  0
    1.9842    3.8031    0.3225 H   0  0  0  0  0  0  0  0  0  0  0  0
    1.2186    4.3357    3.2958 H   0  0  0  0  0  0  0  0  0  0  0  0
    0.4127    5.0629    1.8337 H   0  0  0  0  0  0  0  0  0  0  0  0
  1  2  1  0
  2  3  1  0
  3  4  1  0
  4  5  1  0
  5  6  1  0
  6  7  1  0
  7  8  1  0
  8  9  1  0
  5  2  1  0
  9  7  1  0
  6  2  1  0
  1 10  1  0
  3 11  1  0
  3 12  1  0
  5 13  1  0
  6 14  1  0
  7 15  1  0
  8 16  1  0
  8 17  1  0
  9 18  1  0
  9 19  1  0
M  END
$$$$
