gdb 3666	2.498166	1.6077511	1.1744836	2.3729	75.79	-0.23917	0.05667	0.29584	1093.9727	0.155456	-422.466728	-422.458237	-422.457293	-422.499474	32.813
 OpenBabel02181911413D

 19 21  0  0  1  0  0  0  0  0999 V2000
    2.3099   -1.0938    1.3557 C   0  0  0  0  0  0  0  0  0  0  0  0
    1.3963    0.0856    1.0881 C   0  0  2  0  0  0  0  0  0  0  0  0
    0.9951    0.4300   -0.3428 C   0  0  0  0  0  0  0  0  0  0  0  0
    1.9007    1.3302    0.4159 C   0  0  2  0  0  0  0  0  0  0  0  0
    3.2869    1.9141    0.0925 C   0  0  1  0  0  0  0  0  0  0  0  0
    2.6089    3.0676   -0.5400 O   0  0  0  0  0  0  0  0  0  0  0  0
    1.8509    2.8383    0.7101 C   0  0  2  0  0  0  0  0  0  0  0  0
    3.2328    2.7215    1.4321 C   0  0  1  0  0  0  0  0  0  0  0  0
    3.3837    2.1288    2.6801 O   0  0  0  0  0  0  0  0  0  0  0  0
    2.8443   -0.9943    2.3082 H   0  0  0  0  0  0  0  0  0  0  0  0
    1.7420   -2.0294    1.3929 H   0  0  0  0  0  0  0  0  0  0  0  0
    3.0636   -1.1921    0.5679 H   0  0  0  0  0  0  0  0  0  0  0  0
    0.6130    0.2293    1.8305 H   0  0  0  0  0  0  0  0  0  0  0  0
    1.4234   -0.1721   -1.1387 H   0  0  0  0  0  0  0  0  0  0  0  0
   -0.0242    0.7524   -0.5287 H   0  0  0  0  0  0  0  0  0  0  0  0
    4.1306    1.4699   -0.4363 H   0  0  0  0  0  0  0  0  0  0  0  0
    0.9948    3.4832    0.9118 H   0  0  0  0  0  0  0  0  0  0  0  0
    3.8172    3.6414    1.4076 H   0  0  0  0  0  0  0  0  0  0  0  0
    2.8323    1.3390    2.7068 H   0  0  0  0  0  0  0  0  0  0  0  0
  1 11  1  0  0  0  0
  1 10  1  0  0  0  0
  2  1  1  0  0  0  0
  2 13  1  1  0  0  0
  3  2  1  0  0  0  0
  4  3  1  6  0  0  0
  4  7  1  0  0  0  0
  4  2  1  0  0  0  0
  5 16  1  6  0  0  0
  5  4  1  0  0  0  0
  5  8  1  0  0  0  0
  6  5  1  0  0  0  0
  6  7  1  0  0  0  0
  7 17  1  1  0  0  0
  7  8  1  0  0  0  0
  8 18  1  6  0  0  0
  8  9  1  0  0  0  0
  9 19  1  0  0  0  0
 12  1  1  0  0  0  0
 14  3  1  0  0  0  0
 15  3  1  0  0  0  0
M TOR 0 0 1 2 3
M TOR 1 0 1 2 13
M TOR 2 0 1 2 14
M TOR 3 0 1 3 4
M TOR 4 0 1 3 6
M TOR 5 1 2 3 4
M TOR 6 1 2 3 6
M TOR 7 1 3 2 13
M TOR 8 1 3 2 14
M TOR 9 1 3 4 5
M TOR 10 1 3 4 7
M TOR 11 1 3 4 15
M TOR 12 1 3 6 5
M TOR 13 1 3 6 7
M TOR 14 1 3 6 16
M TOR 15 2 1 0 9
M TOR 16 2 1 0 10
M TOR 17 2 1 0 11
M TOR 18 2 3 1 12
M TOR 19 2 3 4 5
M TOR 20 2 3 4 7
M TOR 21 2 3 4 15
M TOR 22 2 3 6 5
M TOR 23 2 3 6 7
M TOR 24 2 3 6 16
M TOR 25 3 1 0 9
M TOR 26 3 1 0 10
M TOR 27 3 1 0 11
M TOR 28 3 4 5 6
M TOR 29 3 4 7 6
M TOR 30 3 4 7 8
M TOR 31 3 4 7 17
M TOR 32 3 6 7 8
M TOR 33 3 6 7 17
M TOR 34 4 3 1 12
M TOR 35 4 3 2 13
M TOR 36 4 3 2 14
M TOR 37 4 3 6 16
M TOR 38 4 5 6 7
M TOR 39 4 5 6 16
M TOR 40 4 7 6 16
M TOR 41 4 7 8 18
M TOR 42 5 4 7 8
M TOR 43 5 4 7 17
M TOR 44 5 6 7 8
M TOR 45 5 6 7 17
M TOR 46 6 3 1 12
M TOR 47 6 3 2 13
M TOR 48 6 3 2 14
M TOR 49 6 3 4 15
M TOR 50 6 5 4 15
M TOR 51 6 7 4 15
M TOR 52 6 7 8 18
M TOR 53 8 7 4 15
M TOR 54 8 7 6 16
M  END
$$$$
