
     RDKit          3D

 19 20  0  0  0  0  0  0  0  0999 V2000
   -2.7564   -1.5366   -1.1170 C   0  0  0  0  0  0  0  0  0  0  0  0
   -2.1802   -0.7614    0.0474 C   0  0  0  0  0  0  0  0  0  0  0  0
   -2.8625   -0.8497    1.4354 C   0  0  0  0  0  0  0  0  0  0  0  0
   -2.7131    0.6907    1.5941 C   0  0  0  0  0  0  0  0  0  0  0  0
   -2.2715    0.7996    0.1028 C   0  0  0  0  0  0  0  0  0  0  0  0
   -0.8608    1.2892   -0.1758 C   0  0  0  0  0  0  0  0  0  0  0  0
    0.0143    0.0543    0.0492 C   0  0  0  0  0  0  0  0  0  0  0  0
    1.2069   -0.0014    0.1201 O   0  0  0  0  0  0  0  0  0  0  0  0
   -0.7716   -1.0539    0.1573 O   0  0  0  0  0  0  0  0  0  0  0  0
   -2.6277   -2.6128   -0.9644 H   0  0  0  0  0  0  0  0  0  0  0  0
   -3.8256   -1.3288   -1.2219 H   0  0  0  0  0  0  0  0  0  0  0  0
   -2.2568   -1.2642   -2.0523 H   0  0  0  0  0  0  0  0  0  0  0  0
   -3.9034   -1.1748    1.3618 H   0  0  0  0  0  0  0  0  0  0  0  0
   -2.3446   -1.4790    2.1613 H   0  0  0  0  0  0  0  0  0  0  0  0
   -3.6214    1.2348    1.8585 H   0  0  0  0  0  0  0  0  0  0  0  0
   -1.9248    0.9831    2.2931 H   0  0  0  0  0  0  0  0  0  0  0  0
   -3.0307    1.2313   -0.5506 H   0  0  0  0  0  0  0  0  0  0  0  0
   -0.7189    1.6201   -1.2105 H   0  0  0  0  0  0  0  0  0  0  0  0
   -0.5225    2.1006    0.4731 H   0  0  0  0  0  0  0  0  0  0  0  0
  1  2  1  0
  2  3  1  0
  3  4  1  0
  4  5  1  0
  5  6  1  0
  6  7  1  0
  7  8  2  0
  7  9  1  0
  5  2  1  0
  9  2  1  0
  1 10  1  0
  1 11  1  0
  1 12  1  0
  3 13  1  0
  3 14  1  0
  4 15  1  0
  4 16  1  0
  5 17  1  0
  6 18  1  0
  6 19  1  0
M  END
$$$$
