
     RDKit          3D

 19 19  0  0  0  0  0  0  0  0999 V2000
   -2.1986    3.6962    1.8384 C   0  0  0  0  0  0  0  0  0  0  0  0
   -2.4785    2.2076    1.7462 C   0  0  0  0  0  0  0  0  0  0  0  0
   -3.6004    1.7575    1.7969 O   0  0  0  0  0  0  0  0  0  0  0  0
   -1.2724    1.2933    1.5545 C   0  0  0  0  0  0  0  0  0  0  0  0
   -1.0243    1.0415    0.0615 C   0  0  0  0  0  0  0  0  0  0  0  0
   -2.0478    0.1926   -0.7590 C   0  0  0  0  0  0  0  0  0  0  0  0
   -0.8913   -0.6961   -1.3101 C   0  0  0  0  0  0  0  0  0  0  0  0
    0.0399   -0.0204   -0.2914 C   0  0  0  0  0  0  0  0  0  0  0  0
    1.1222   -0.2697    0.1524 O   0  0  0  0  0  0  0  0  0  0  0  0
   -1.6762    3.9100    2.7788 H   0  0  0  0  0  0  0  0  0  0  0  0
   -1.5349    4.0236    1.0304 H   0  0  0  0  0  0  0  0  0  0  0  0
   -3.1326    4.2582    1.8077 H   0  0  0  0  0  0  0  0  0  0  0  0
   -0.3689    1.7253    1.9971 H   0  0  0  0  0  0  0  0  0  0  0  0
   -1.4851    0.3430    2.0533 H   0  0  0  0  0  0  0  0  0  0  0  0
   -0.7832    1.9813   -0.4523 H   0  0  0  0  0  0  0  0  0  0  0  0
   -2.7360   -0.3518   -0.1102 H   0  0  0  0  0  0  0  0  0  0  0  0
   -2.6286    0.7378   -1.5031 H   0  0  0  0  0  0  0  0  0  0  0  0
   -0.9846   -1.7812   -1.2192 H   0  0  0  0  0  0  0  0  0  0  0  0
   -0.6037   -0.4605   -2.3400 H   0  0  0  0  0  0  0  0  0  0  0  0
  1  2  1  0
  2  3  2  0
  2  4  1  0
  4  5  1  0
  5  6  1  0
  6  7  1  0
  7  8  1  0
  8  9  2  0
  8  5  1  0
  1 10  1  0
  1 11  1  0
  1 12  1  0
  4 13  1  0
  4 14  1  0
  5 15  1  0
  6 16  1  0
  6 17  1  0
  7 18  1  0
  7 19  1  0
M  END
$$$$
