gdb 5346	3.7074237	1.1417997	1.0598329	1.9477	76.44	-0.2366	-0.00236	0.23424	1188.8821	0.158525	-422.544391	-422.536516	-422.535572	-422.576907	30.682
 OpenBabel02181911423D

 19 20  0  0  1  0  0  0  0  0999 V2000
    1.9145    0.4664   -0.1916 O   0  0  0  0  0  0  0  0  0  0  0  0
    0.5305    0.7484    0.0126 C   0  0  0  0  0  0  0  0  0  0  0  0
   -0.3001    0.4489   -1.2024 C   0  0  0  0  0  0  0  0  0  0  0  0
   -1.3223   -0.4118   -1.2141 C   0  0  0  0  0  0  0  0  0  0  0  0
   -2.0548   -0.5763   -2.5297 C   0  0  2  0  0  0  0  0  0  0  0  0
   -1.0281   -0.8606   -3.6532 C   0  0  0  0  0  0  0  0  0  0  0  0
   -0.9071    0.6796   -3.6103 C   0  0  2  0  0  0  0  0  0  0  0  0
    0.0414    1.1599   -2.5026 C   0  0  0  0  0  0  0  0  0  0  0  0
   -2.2734    0.7502   -3.1051 O   0  0  0  0  0  0  0  0  0  0  0  0
    1.9849   -0.4736   -0.3895 H   0  0  0  0  0  0  0  0  0  0  0  0
    0.1327    0.2058    0.8833 H   0  0  0  0  0  0  0  0  0  0  0  0
    0.4937    1.8194    0.2470 H   0  0  0  0  0  0  0  0  0  0  0  0
   -1.6268   -0.9698   -0.3334 H   0  0  0  0  0  0  0  0  0  0  0  0
   -2.9760   -1.1584   -2.4673 H   0  0  0  0  0  0  0  0  0  0  0  0
   -0.1560   -1.4733   -3.4166 H   0  0  0  0  0  0  0  0  0  0  0  0
   -1.5062   -1.1966   -4.5747 H   0  0  0  0  0  0  0  0  0  0  0  0
   -0.7834    1.2296   -4.5469 H   0  0  0  0  0  0  0  0  0  0  0  0
    1.0892    0.9787   -2.7714 H   0  0  0  0  0  0  0  0  0  0  0  0
   -0.0607    2.2457   -2.3718 H   0  0  0  0  0  0  0  0  0  0  0  0
  1  2  1  0  0  0  0
  2 12  1  0  0  0  0
  2 11  1  0  0  0  0
  3  2  1  0  0  0  0
  4  3  2  0  0  0  0
  4 13  1  0  0  0  0
  5 14  1  1  0  0  0
  5  4  1  0  0  0  0
  6  7  1  0  0  0  0
  6 15  1  0  0  0  0
  6  5  1  0  0  0  0
  7 17  1  6  0  0  0
  7  9  1  0  0  0  0
  7  8  1  0  0  0  0
  8 19  1  0  0  0  0
  8  3  1  0  0  0  0
  9  5  1  0  0  0  0
 10  1  1  0  0  0  0
 16  6  1  0  0  0  0
 18  8  1  0  0  0  0
M TOR 0 0 1 2 3
M TOR 1 0 1 2 7
M TOR 2 1 2 3 4
M TOR 3 1 2 3 12
M TOR 4 1 2 7 6
M TOR 5 1 2 7 17
M TOR 6 1 2 7 18
M TOR 7 2 1 0 9
M TOR 8 2 3 4 5
M TOR 9 2 3 4 8
M TOR 10 2 3 4 13
M TOR 11 2 7 6 5
M TOR 12 2 7 6 8
M TOR 13 2 7 6 16
M TOR 14 3 2 1 10
M TOR 15 3 2 1 11
M TOR 16 3 2 7 6
M TOR 17 3 2 7 17
M TOR 18 3 2 7 18
M TOR 19 3 4 5 6
M TOR 20 3 4 5 14
M TOR 21 3 4 5 15
M TOR 22 3 4 8 6
M TOR 23 4 3 2 7
M TOR 24 4 5 6 7
M TOR 25 4 5 6 8
M TOR 26 4 5 6 16
M TOR 27 4 8 6 7
M TOR 28 4 8 6 16
M TOR 29 5 4 3 12
M TOR 30 5 6 7 17
M TOR 31 5 6 7 18
M TOR 32 6 5 4 13
M TOR 33 6 8 4 13
M TOR 34 7 2 1 10
M TOR 35 7 2 1 11
M TOR 36 7 2 3 12
M TOR 37 7 6 5 14
M TOR 38 7 6 5 15
M TOR 39 8 4 3 12
M TOR 40 8 4 5 14
M TOR 41 8 4 5 15
M TOR 42 8 6 5 14
M TOR 43 8 6 5 15
M TOR 44 8 6 7 17
M TOR 45 8 6 7 18
M  END
$$$$
