
     RDKit          3D

 19 20  0  0  0  0  0  0  0  0999 V2000
    0.2924    5.2687   -1.1411 C   0  0  0  0  0  0  0  0  0  0  0  0
   -0.6378    5.5276   -0.0837 O   0  0  0  0  0  0  0  0  0  0  0  0
   -0.2668    4.1748   -0.3434 C   0  0  0  0  0  0  0  0  0  0  0  0
   -1.3763    3.2883   -0.8770 C   0  0  0  0  0  0  0  0  0  0  0  0
   -0.7402    2.1515   -1.4365 O   0  0  0  0  0  0  0  0  0  0  0  0
   -1.6243    1.0640   -1.6626 C   0  0  0  0  0  0  0  0  0  0  0  0
   -2.1972    0.5320   -0.3481 C   0  0  0  0  0  0  0  0  0  0  0  0
   -2.7059    1.6817    0.4808 C   0  0  0  0  0  0  0  0  0  0  0  0
   -2.3539    2.9371    0.2158 C   0  0  0  0  0  0  0  0  0  0  0  0
   -0.0850    5.4427   -2.1477 H   0  0  0  0  0  0  0  0  0  0  0  0
    1.3110    5.6062   -0.9582 H   0  0  0  0  0  0  0  0  0  0  0  0
    0.3522    3.7102    0.4243 H   0  0  0  0  0  0  0  0  0  0  0  0
   -1.9046    3.8580   -1.6645 H   0  0  0  0  0  0  0  0  0  0  0  0
   -2.4473    1.3767   -2.3254 H   0  0  0  0  0  0  0  0  0  0  0  0
   -1.0388    0.3033   -2.1862 H   0  0  0  0  0  0  0  0  0  0  0  0
   -3.0064   -0.1789   -0.5583 H   0  0  0  0  0  0  0  0  0  0  0  0
   -1.4297   -0.0292    0.2024 H   0  0  0  0  0  0  0  0  0  0  0  0
   -3.3877    1.4622    1.2981 H   0  0  0  0  0  0  0  0  0  0  0  0
   -2.7455    3.7763    0.7834 H   0  0  0  0  0  0  0  0  0  0  0  0
  1  2  1  0
  2  3  1  0
  3  4  1  0
  4  5  1  0
  5  6  1  0
  6  7  1  0
  7  8  1  0
  8  9  2  0
  3  1  1  0
  9  4  1  0
  1 10  1  0
  1 11  1  0
  3 12  1  0
  4 13  1  0
  6 14  1  0
  6 15  1  0
  7 16  1  0
  7 17  1  0
  8 18  1  0
  9 19  1  0
M  END
$$$$
