
     RDKit          3D

 19 19  0  0  0  0  0  0  0  0999 V2000
    2.5678    2.1704   -1.2728 C   0  0  0  0  0  0  0  0  0  0  0  0
    3.0514    0.7418   -1.0592 C   0  0  0  0  0  0  0  0  0  0  0  0
    2.5521    0.1454    0.2837 C   0  0  0  0  0  0  0  0  0  0  0  0
    1.1030    0.0423    0.3827 C   0  0  0  0  0  0  0  0  0  0  0  0
   -0.0931   -0.0319    0.4734 C   0  0  0  0  0  0  0  0  0  0  0  0
    4.5809    0.5758   -1.1685 C   0  0  0  0  0  0  0  0  0  0  0  0
    4.7252   -0.7264   -1.7112 O   0  0  0  0  0  0  0  0  0  0  0  0
    3.6754   -0.8321   -2.6408 C   0  0  0  0  0  0  0  0  0  0  0  0
    2.5833   -0.0865   -2.1355 O   0  0  0  0  0  0  0  0  0  0  0  0
    2.9703    2.8350   -0.5006 H   0  0  0  0  0  0  0  0  0  0  0  0
    2.8899    2.5367   -2.2511 H   0  0  0  0  0  0  0  0  0  0  0  0
    1.4773    2.2123   -1.2259 H   0  0  0  0  0  0  0  0  0  0  0  0
    3.0050   -0.8467    0.3955 H   0  0  0  0  0  0  0  0  0  0  0  0
    2.9329    0.7641    1.1071 H   0  0  0  0  0  0  0  0  0  0  0  0
   -1.1494   -0.1074    0.5483 H   0  0  0  0  0  0  0  0  0  0  0  0
    5.0064    1.3366   -1.8412 H   0  0  0  0  0  0  0  0  0  0  0  0
    5.1030    0.6106   -0.2100 H   0  0  0  0  0  0  0  0  0  0  0  0
    3.9753   -0.4240   -3.6226 H   0  0  0  0  0  0  0  0  0  0  0  0
    3.4035   -1.8881   -2.7430 H   0  0  0  0  0  0  0  0  0  0  0  0
  1  2  1  0
  2  3  1  0
  3  4  1  0
  4  5  3  0
  2  6  1  0
  6  7  1  0
  7  8  1  0
  8  9  1  0
  9  2  1  0
  1 10  1  0
  1 11  1  0
  1 12  1  0
  3 13  1  0
  3 14  1  0
  5 15  1  0
  6 16  1  0
  6 17  1  0
  8 18  1  0
  8 19  1  0
M  END
$$$$
