gdb 4676	3.8435184	1.1200986	1.0082229	1.773	76.65	-0.26243	0.01313	0.27555999999999997	1241.2236	0.157238	-422.535687	-422.527165	-422.52622	-422.570233	30.902
 OpenBabel02181911413D

 19 20  0  0  1  0  0  0  0  0999 V2000
    1.5762    0.0564   -0.1700 C   0  0  0  0  0  0  0  0  0  0  0  0
    0.2229   -0.2458    0.1945 O   0  0  0  0  0  0  0  0  0  0  0  0
   -0.2781    0.4927    1.2084 C   0  0  0  0  0  0  0  0  0  0  0  0
    0.3498    1.3514    1.7768 O   0  0  0  0  0  0  0  0  0  0  0  0
   -1.7159    0.1497    1.5167 C   0  0  2  0  0  0  0  0  0  0  0  0
   -2.0499   -0.5639    2.8677 C   0  0  1  0  0  0  0  0  0  0  0  0
   -3.4193   -0.9326    2.2269 C   0  0  0  0  0  0  0  0  0  0  0  0
   -2.3540   -1.2149    1.1251 C   0  0  2  0  0  0  0  0  0  0  0  0
   -1.4943   -1.8783    2.2439 C   0  0  0  0  0  0  0  0  0  0  0  0
    2.2507   -0.1163    0.6725 H   0  0  0  0  0  0  0  0  0  0  0  0
    1.8176   -0.6119   -0.9965 H   0  0  0  0  0  0  0  0  0  0  0  0
    1.6672    1.1002   -0.4809 H   0  0  0  0  0  0  0  0  0  0  0  0
   -2.3250    1.0379    1.3177 H   0  0  0  0  0  0  0  0  0  0  0  0
   -1.8650   -0.1681    3.8661 H   0  0  0  0  0  0  0  0  0  0  0  0
   -3.9273   -1.8060    2.6431 H   0  0  0  0  0  0  0  0  0  0  0  0
   -4.1166   -0.1106    2.0434 H   0  0  0  0  0  0  0  0  0  0  0  0
   -2.5265   -1.5862    0.1153 H   0  0  0  0  0  0  0  0  0  0  0  0
   -1.8829   -2.8102    2.6628 H   0  0  0  0  0  0  0  0  0  0  0  0
   -0.4187   -1.9417    2.0711 H   0  0  0  0  0  0  0  0  0  0  0  0
  1  2  1  0  0  0  0
  1 10  1  0  0  0  0
  2  3  1  0  0  0  0
  3  5  1  0  0  0  0
  3  4  2  0  0  0  0
  5 13  1  6  0  0  0
  5  6  1  0  0  0  0
  6 14  1  1  0  0  0
  7 15  1  0  0  0  0
  7  6  1  0  0  0  0
  8 17  1  6  0  0  0
  8  5  1  0  0  0  0
  8  7  1  0  0  0  0
  8  9  1  0  0  0  0
  9 18  1  0  0  0  0
  9  6  1  0  0  0  0
 11  1  1  0  0  0  0
 12  1  1  0  0  0  0
 16  7  1  0  0  0  0
 19  9  1  0  0  0  0
M TOR 0 0 1 2 3
M TOR 1 0 1 2 4
M TOR 2 1 2 4 5
M TOR 3 1 2 4 7
M TOR 4 1 2 4 12
M TOR 5 2 1 0 9
M TOR 6 2 1 0 10
M TOR 7 2 1 0 11
M TOR 8 2 4 5 6
M TOR 9 2 4 5 8
M TOR 10 2 4 5 13
M TOR 11 2 4 7 6
M TOR 12 2 4 7 8
M TOR 13 2 4 7 16
M TOR 14 3 2 4 5
M TOR 15 3 2 4 7
M TOR 16 3 2 4 12
M TOR 17 4 5 6 7
M TOR 18 4 5 6 14
M TOR 19 4 5 6 15
M TOR 20 4 5 8 7
M TOR 21 4 5 8 17
M TOR 22 4 5 8 18
M TOR 23 4 7 6 14
M TOR 24 4 7 6 15
M TOR 25 4 7 8 17
M TOR 26 4 7 8 18
M TOR 27 5 4 7 16
M TOR 28 5 6 7 8
M TOR 29 5 6 7 16
M TOR 30 5 8 7 16
M TOR 31 6 5 4 12
M TOR 32 6 5 8 17
M TOR 33 6 5 8 18
M TOR 34 6 7 4 12
M TOR 35 6 7 8 17
M TOR 36 6 7 8 18
M TOR 37 7 4 5 13
M TOR 38 7 6 5 13
M TOR 39 7 8 5 13
M TOR 40 8 5 4 12
M TOR 41 8 5 6 14
M TOR 42 8 5 6 15
M TOR 43 8 7 4 12
M TOR 44 8 7 6 14
M TOR 45 8 7 6 15
M  END
$$$$
