gdb 4892	2.1016615	1.3654284	0.9669218	1.612	77.25	-0.2557	0.04865	0.30435	1254.617	0.154105	-422.505592	-422.495502	-422.494558	-422.540684	37.086
 OpenBabel02181911413D

 19 19  0  0  1  0  0  0  0  0999 V2000
    2.7626    0.9994   -2.5179 O   0  0  0  0  0  0  0  0  0  0  0  0
    2.5553   -0.3933   -2.3413 C   0  0  0  0  0  0  0  0  0  0  0  0
    3.1195   -0.9140   -1.0279 C   0  0  2  0  0  0  0  0  0  0  0  0
    2.6966   -0.1360    0.2217 C   0  0  0  0  0  0  0  0  0  0  0  0
    1.2988    0.2885    0.2038 C   0  0  0  0  0  0  0  0  0  0  0  0
    0.1585    0.6688    0.1514 C   0  0  0  0  0  0  0  0  0  0  0  0
    4.5215   -1.4927   -1.0162 C   0  0  0  0  0  0  0  0  0  0  0  0
    3.3191   -2.4006   -0.9164 C   0  0  1  0  0  0  0  0  0  0  0  0
    3.0048   -3.0021    0.3067 O   0  0  0  0  0  0  0  0  0  0  0  0
    2.0993    1.4490   -1.9825 H   0  0  0  0  0  0  0  0  0  0  0  0
    1.4858   -0.6396   -2.3985 H   0  0  0  0  0  0  0  0  0  0  0  0
    3.0540   -0.8920   -3.1795 H   0  0  0  0  0  0  0  0  0  0  0  0
    2.8806   -0.7567    1.1038 H   0  0  0  0  0  0  0  0  0  0  0  0
    3.3296    0.7548    0.3132 H   0  0  0  0  0  0  0  0  0  0  0  0
   -0.8548    0.9862    0.1347 H   0  0  0  0  0  0  0  0  0  0  0  0
    5.0991   -1.4762   -1.9348 H   0  0  0  0  0  0  0  0  0  0  0  0
    5.1043   -1.3605   -0.1096 H   0  0  0  0  0  0  0  0  0  0  0  0
    3.0614   -2.9992   -1.7913 H   0  0  0  0  0  0  0  0  0  0  0  0
    3.6609   -3.6852    0.4792 H   0  0  0  0  0  0  0  0  0  0  0  0
  1  2  1  0  0  0  0
  1 10  1  0  0  0  0
  3  2  1  6  0  0  0
  3  7  1  0  0  0  0
  3  8  1  0  0  0  0
  3  4  1  0  0  0  0
  4 14  1  0  0  0  0
  4 13  1  0  0  0  0
  5  4  1  0  0  0  0
  6  5  3  0  0  0  0
  7  8  1  0  0  0  0
  7 17  1  0  0  0  0
  8 18  1  6  0  0  0
  8  9  1  0  0  0  0
  9 19  1  0  0  0  0
 11  2  1  0  0  0  0
 12  2  1  0  0  0  0
 15  6  1  0  0  0  0
 16  7  1  0  0  0  0
M TOR 0 0 1 2 3
M TOR 1 0 1 2 6
M TOR 2 0 1 2 7
M TOR 3 1 2 3 4
M TOR 4 1 2 3 12
M TOR 5 1 2 3 13
M TOR 6 1 2 6 7
M TOR 7 1 2 6 15
M TOR 8 1 2 6 16
M TOR 9 1 2 7 8
M TOR 10 1 2 7 17
M TOR 11 2 1 0 9
M TOR 12 2 3 4 5
M TOR 13 2 6 7 8
M TOR 14 2 6 7 17
M TOR 15 2 7 6 15
M TOR 16 2 7 6 16
M TOR 17 2 7 8 18
M TOR 18 3 2 1 10
M TOR 19 3 2 1 11
M TOR 20 3 2 6 7
M TOR 21 3 2 6 15
M TOR 22 3 2 6 16
M TOR 23 3 2 7 8
M TOR 24 3 2 7 17
M TOR 25 3 4 5 14
M TOR 26 4 3 2 6
M TOR 27 4 3 2 7
M TOR 28 5 4 3 12
M TOR 29 5 4 3 13
M TOR 30 6 2 1 10
M TOR 31 6 2 1 11
M TOR 32 6 2 3 12
M TOR 33 6 2 3 13
M TOR 34 6 7 8 18
M TOR 35 7 2 1 10
M TOR 36 7 2 1 11
M TOR 37 7 2 3 12
M TOR 38 7 2 3 13
M TOR 39 8 7 6 15
M TOR 40 8 7 6 16
M  END
$$$$
