gdb 5250	2.9965923	1.5407176	1.3949857	1.9687	73.79	-0.24481	0.06917	0.31398	1005.5043	0.158845	-422.524167	-422.516778	-422.515834	-422.556057	29.546
 OpenBabel02181911423D

 19 21  0  0  1  0  0  0  0  0999 V2000
    0.9785    1.0838    0.4161 O   0  0  0  0  0  0  0  0  0  0  0  0
    0.4208   -0.2082    0.5990 C   0  0  0  0  0  0  0  0  0  0  0  0
   -0.9179   -0.1185    1.2694 C   0  0  1  0  0  0  0  0  0  0  0  0
   -0.8719    0.4046    2.6095 O   0  0  0  0  0  0  0  0  0  0  0  0
   -2.2488   -0.0800    2.6905 C   0  0  1  0  0  0  0  0  0  0  0  0
   -2.9682    0.9412    1.7892 C   0  0  0  0  0  0  0  0  0  0  0  0
   -2.2073    0.4950    0.5233 C   0  0  2  0  0  0  0  0  0  0  0  0
   -2.7198   -0.9608    0.3583 C   0  0  0  0  0  0  0  0  0  0  0  0
   -1.9279   -1.2268    1.6493 C   0  0  1  0  0  0  0  0  0  0  0  0
    0.9695    1.5106    1.2806 H   0  0  0  0  0  0  0  0  0  0  0  0
    0.3196   -0.6536   -0.3961 H   0  0  0  0  0  0  0  0  0  0  0  0
    1.0859   -0.8539    1.1932 H   0  0  0  0  0  0  0  0  0  0  0  0
   -2.5890   -0.2636    3.7083 H   0  0  0  0  0  0  0  0  0  0  0  0
   -4.0496    0.8011    1.7049 H   0  0  0  0  0  0  0  0  0  0  0  0
   -2.7519    1.9588    2.1198 H   0  0  0  0  0  0  0  0  0  0  0  0
   -2.1190    1.1822   -0.3151 H   0  0  0  0  0  0  0  0  0  0  0  0
   -3.8021   -1.1177    0.3493 H   0  0  0  0  0  0  0  0  0  0  0  0
   -2.2677   -1.4817   -0.4903 H   0  0  0  0  0  0  0  0  0  0  0  0
   -1.6441   -2.2074    2.0285 H   0  0  0  0  0  0  0  0  0  0  0  0
  1  2  1  0  0  0  0
  1 10  1  0  0  0  0
  2 12  1  0  0  0  0
  3  2  1  6  0  0  0
  3  9  1  0  0  0  0
  3  4  1  0  0  0  0
  4  5  1  0  0  0  0
  5 13  1  1  0  0  0
  6 15  1  0  0  0  0
  6  5  1  0  0  0  0
  7 16  1  6  0  0  0
  7  3  1  0  0  0  0
  7  6  1  0  0  0  0
  8  7  1  0  0  0  0
  8  9  1  0  0  0  0
  9 19  1  1  0  0  0
  9  5  1  0  0  0  0
 11  2  1  0  0  0  0
 14  6  1  0  0  0  0
 17  8  1  0  0  0  0
 18  8  1  0  0  0  0
M TOR 0 0 1 2 3
M TOR 1 0 1 2 6
M TOR 2 0 1 2 8
M TOR 3 1 2 3 4
M TOR 4 1 2 6 5
M TOR 5 1 2 6 7
M TOR 6 1 2 6 15
M TOR 7 1 2 8 4
M TOR 8 1 2 8 7
M TOR 9 1 2 8 18
M TOR 10 2 1 0 9
M TOR 11 2 3 4 5
M TOR 12 2 3 4 8
M TOR 13 2 3 4 12
M TOR 14 2 6 5 4
M TOR 15 2 6 5 13
M TOR 16 2 6 5 14
M TOR 17 2 6 7 8
M TOR 18 2 6 7 16
M TOR 19 2 6 7 17
M TOR 20 2 8 4 5
M TOR 21 2 8 4 12
M TOR 22 2 8 7 16
M TOR 23 2 8 7 17
M TOR 24 3 2 1 10
M TOR 25 3 2 1 11
M TOR 26 3 2 6 5
M TOR 27 3 2 6 7
M TOR 28 3 2 6 15
M TOR 29 3 2 8 7
M TOR 30 3 2 8 18
M TOR 31 3 4 5 6
M TOR 32 3 4 5 13
M TOR 33 3 4 5 14
M TOR 34 3 4 8 7
M TOR 35 3 4 8 18
M TOR 36 4 3 2 6
M TOR 37 4 5 6 7
M TOR 38 4 5 6 15
M TOR 39 4 8 2 6
M TOR 40 4 8 7 6
M TOR 41 4 8 7 16
M TOR 42 4 8 7 17
M TOR 43 5 4 8 7
M TOR 44 5 4 8 18
M TOR 45 5 6 2 8
M TOR 46 5 6 7 8
M TOR 47 5 6 7 16
M TOR 48 5 6 7 17
M TOR 49 6 2 1 10
M TOR 50 6 2 1 11
M TOR 51 6 2 8 18
M TOR 52 6 5 4 8
M TOR 53 6 5 4 12
M TOR 54 6 7 8 18
M TOR 55 7 6 5 13
M TOR 56 7 6 5 14
M TOR 57 7 8 4 12
M TOR 58 8 2 1 10
M TOR 59 8 2 1 11
M TOR 60 8 2 6 15
M TOR 61 8 4 5 13
M TOR 62 8 4 5 14
M TOR 63 8 7 6 15
M  END
$$$$
