gdb 2088	2.8475745	1.6816113	1.423616	2.5967	74.32	-0.23637	0.0719	0.30827	987.6077	0.157001	-422.527638	-422.519853	-422.518909	-422.559195	31.431
 OpenBabel02181911403D

 19 21  0  0  1  0  0  0  0  0999 V2000
    0.0091    0.6980   -0.2118 C   0  0  0  0  0  0  0  0  0  0  0  0
    1.4013    0.1492   -0.0217 C   0  0  1  0  0  0  0  0  0  0  0  0
    2.3251    0.6051    1.1458 C   0  0  0  0  0  0  0  0  0  0  0  0
    3.4613    0.1536    0.2123 C   0  0  1  0  0  0  0  0  0  0  0  0
    4.7840    0.5463    0.3212 O   0  0  0  0  0  0  0  0  0  0  0  0
    3.1018   -1.2821   -0.3892 C   0  0  1  0  0  0  0  0  0  0  0  0
    1.6226   -1.3843    0.0105 C   0  0  0  0  0  0  0  0  0  0  0  0
    2.9974   -0.7024   -1.7240 O   0  0  0  0  0  0  0  0  0  0  0  0
    2.6183    0.4870   -1.0279 C   0  0  1  0  0  0  0  0  0  0  0  0
   -0.6532    0.3968    0.6083 H   0  0  0  0  0  0  0  0  0  0  0  0
    0.0113    1.7927   -0.2491 H   0  0  0  0  0  0  0  0  0  0  0  0
   -0.4313    0.3307   -1.1455 H   0  0  0  0  0  0  0  0  0  0  0  0
    2.3501    1.6928    1.2637 H   0  0  0  0  0  0  0  0  0  0  0  0
    2.1893    0.1255    2.1203 H   0  0  0  0  0  0  0  0  0  0  0  0
    5.1825    0.0857    1.0677 H   0  0  0  0  0  0  0  0  0  0  0  0
    3.7680   -2.1428   -0.3318 H   0  0  0  0  0  0  0  0  0  0  0  0
    1.0558   -1.9380   -0.7422 H   0  0  0  0  0  0  0  0  0  0  0  0
    1.4397   -1.8127    1.0004 H   0  0  0  0  0  0  0  0  0  0  0  0
    2.6254    1.4115   -1.6037 H   0  0  0  0  0  0  0  0  0  0  0  0
  1 10  1  0  0  0  0
  2  1  1  6  0  0  0
  2  7  1  0  0  0  0
  2  3  1  0  0  0  0
  3 13  1  0  0  0  0
  3 14  1  0  0  0  0
  4  5  1  1  0  0  0
  4  3  1  0  0  0  0
  5 15  1  0  0  0  0
  6 16  1  1  0  0  0
  6  7  1  0  0  0  0
  6  4  1  0  0  0  0
  7 18  1  0  0  0  0
  8  9  1  0  0  0  0
  8  6  1  0  0  0  0
  9 19  1  6  0  0  0
  9  2  1  0  0  0  0
  9  4  1  0  0  0  0
 11  1  1  0  0  0  0
 12  1  1  0  0  0  0
 17  7  1  0  0  0  0
M TOR 0 0 1 2 3
M TOR 1 0 1 2 12
M TOR 2 0 1 2 13
M TOR 3 0 1 6 5
M TOR 4 0 1 6 16
M TOR 5 0 1 6 17
M TOR 6 0 1 8 3
M TOR 7 0 1 8 7
M TOR 8 0 1 8 18
M TOR 9 1 2 3 4
M TOR 10 1 2 3 5
M TOR 11 1 2 3 8
M TOR 12 1 6 5 3
M TOR 13 1 6 5 7
M TOR 14 1 6 5 15
M TOR 15 1 8 3 4
M TOR 16 1 8 3 5
M TOR 17 1 8 7 5
M TOR 18 2 1 0 9
M TOR 19 2 1 0 10
M TOR 20 2 1 0 11
M TOR 21 2 1 6 5
M TOR 22 2 1 6 16
M TOR 23 2 1 6 17
M TOR 24 2 1 8 7
M TOR 25 2 1 8 18
M TOR 26 2 3 4 14
M TOR 27 2 3 5 6
M TOR 28 2 3 5 7
M TOR 29 2 3 5 15
M TOR 30 2 3 8 7
M TOR 31 2 3 8 18
M TOR 32 3 2 1 6
M TOR 33 3 5 6 16
M TOR 34 3 5 6 17
M TOR 35 3 5 7 8
M TOR 36 3 8 1 6
M TOR 37 4 3 2 12
M TOR 38 4 3 2 13
M TOR 39 4 3 5 6
M TOR 40 4 3 5 7
M TOR 41 4 3 5 15
M TOR 42 4 3 8 7
M TOR 43 4 3 8 18
M TOR 44 5 3 2 12
M TOR 45 5 3 2 13
M TOR 46 5 3 4 14
M TOR 47 5 3 8 18
M TOR 48 5 6 1 8
M TOR 49 5 7 8 18
M TOR 50 6 1 0 9
M TOR 51 6 1 0 10
M TOR 52 6 1 0 11
M TOR 53 6 1 2 12
M TOR 54 6 1 2 13
M TOR 55 6 1 8 7
M TOR 56 6 1 8 18
M TOR 57 6 5 3 8
M TOR 58 6 5 7 8
M TOR 59 7 5 6 16
M TOR 60 7 5 6 17
M TOR 61 8 1 0 9
M TOR 62 8 1 0 10
M TOR 63 8 1 0 11
M TOR 64 8 1 2 12
M TOR 65 8 1 2 13
M TOR 66 8 1 6 16
M TOR 67 8 1 6 17
M TOR 68 8 3 2 12
M TOR 69 8 3 2 13
M TOR 70 8 3 4 14
M TOR 71 8 3 5 15
M TOR 72 8 7 5 15
M  END
$$$$
