
     RDKit          3D

 19 20  0  0  0  0  0  0  0  0999 V2000
   -2.4897    2.7754    1.5389 C   0  0  0  0  0  0  0  0  0  0  0  0
   -1.1743    2.4365    0.8743 C   0  0  0  0  0  0  0  0  0  0  0  0
   -1.0131    2.4794   -0.6188 C   0  0  0  0  0  0  0  0  0  0  0  0
    0.2576    2.9829   -1.2687 C   0  0  0  0  0  0  0  0  0  0  0  0
   -1.0268    1.1472    0.0970 C   0  0  0  0  0  0  0  0  0  0  0  0
   -1.9359   -0.0678   -0.0264 C   0  0  0  0  0  0  0  0  0  0  0  0
   -0.7576   -0.9332    0.0991 O   0  0  0  0  0  0  0  0  0  0  0  0
    0.0875    0.1528    0.2111 C   0  0  0  0  0  0  0  0  0  0  0  0
    1.2702    0.1466    0.3513 O   0  0  0  0  0  0  0  0  0  0  0  0
   -2.5891    2.2749    2.5079 H   0  0  0  0  0  0  0  0  0  0  0  0
   -2.5701    3.8539    1.7107 H   0  0  0  0  0  0  0  0  0  0  0  0
   -3.3403    2.4750    0.9181 H   0  0  0  0  0  0  0  0  0  0  0  0
   -0.2870    2.7032    1.4447 H   0  0  0  0  0  0  0  0  0  0  0  0
   -1.9292    2.6875   -1.1692 H   0  0  0  0  0  0  0  0  0  0  0  0
    1.1377    2.6677   -0.7023 H   0  0  0  0  0  0  0  0  0  0  0  0
    0.3617    2.5924   -2.2863 H   0  0  0  0  0  0  0  0  0  0  0  0
    0.2549    4.0766   -1.3263 H   0  0  0  0  0  0  0  0  0  0  0  0
   -2.6352   -0.2477    0.7939 H   0  0  0  0  0  0  0  0  0  0  0  0
   -2.4250   -0.2211   -0.9914 H   0  0  0  0  0  0  0  0  0  0  0  0
  1  2  1  0
  2  3  1  0
  3  4  1  0
  3  5  1  0
  5  6  1  0
  6  7  1  0
  7  8  1  0
  8  9  2  0
  5  2  1  0
  8  5  1  0
  1 10  1  0
  1 11  1  0
  1 12  1  0
  2 13  1  0
  3 14  1  0
  4 15  1  0
  4 16  1  0
  4 17  1  0
  6 18  1  0
  6 19  1  0
M  END
$$$$
