gdb 90	4.2462125	0.9021122	0.8573175	0.9055	77.23	-0.2619	0.03596	0.29786	1405.2172	0.156601	-422.523011	-422.51393	-422.512986	-422.558034	32.742
 OpenBabel02181911403D

 19 19  0  0  1  0  0  0  0  0999 V2000
   -2.5529    4.0447    1.5715 C   0  0  0  0  0  0  0  0  0  0  0  0
   -2.2034    3.3659    0.6431 C   0  0  0  0  0  0  0  0  0  0  0  0
   -1.7711    2.5357   -0.4839 C   0  0  0  0  0  0  0  0  0  0  0  0
   -1.0110    1.4002   -0.0877 O   0  0  0  0  0  0  0  0  0  0  0  0
    0.2899    1.7142    0.3759 C   0  0  1  0  0  0  0  0  0  0  0  0
    0.9576    0.3883    0.7927 C   0  0  0  0  0  0  0  0  0  0  0  0
    2.1023    0.2067   -0.2300 C   0  0  0  0  0  0  0  0  0  0  0  0
    1.7147    1.1917   -1.3389 C   0  0  0  0  0  0  0  0  0  0  0  0
    1.0867    2.2723   -0.6459 O   0  0  0  0  0  0  0  0  0  0  0  0
   -2.8677    4.6475    2.3873 H   0  0  0  0  0  0  0  0  0  0  0  0
   -2.6453    2.1386   -1.0096 H   0  0  0  0  0  0  0  0  0  0  0  0
   -1.1991    3.1442   -1.1962 H   0  0  0  0  0  0  0  0  0  0  0  0
    0.2254    2.4692    1.1675 H   0  0  0  0  0  0  0  0  0  0  0  0
    1.3221    0.4339    1.8206 H   0  0  0  0  0  0  0  0  0  0  0  0
    0.2159   -0.4103    0.7311 H   0  0  0  0  0  0  0  0  0  0  0  0
    3.0617    0.4966    0.2077 H   0  0  0  0  0  0  0  0  0  0  0  0
    2.1928   -0.8205   -0.5907 H   0  0  0  0  0  0  0  0  0  0  0  0
    2.5623    1.6015   -1.8928 H   0  0  0  0  0  0  0  0  0  0  0  0
    1.0152    0.7336   -2.0523 H   0  0  0  0  0  0  0  0  0  0  0  0
  1 10  1  0  0  0  0
  2  1  3  0  0  0  0
  3  4  1  0  0  0  0
  3  2  1  0  0  0  0
  4  5  1  0  0  0  0
  5  6  1  0  0  0  0
  5 13  1  1  0  0  0
  6 14  1  0  0  0  0
  7 16  1  0  0  0  0
  7  6  1  0  0  0  0
  8  9  1  0  0  0  0
  8  7  1  0  0  0  0
  9  5  1  0  0  0  0
 11  3  1  0  0  0  0
 12  3  1  0  0  0  0
 15  6  1  0  0  0  0
 17  7  1  0  0  0  0
 18  8  1  0  0  0  0
 19  8  1  0  0  0  0
M TOR 0 0 1 2 3
M TOR 1 0 1 2 10
M TOR 2 0 1 2 11
M TOR 3 1 2 3 4
M TOR 4 2 1 0 9
M TOR 5 2 3 4 5
M TOR 6 2 3 4 8
M TOR 7 2 3 4 12
M TOR 8 3 4 5 6
M TOR 9 3 4 5 13
M TOR 10 3 4 5 14
M TOR 11 3 4 8 7
M TOR 12 4 3 2 10
M TOR 13 4 3 2 11
M TOR 14 4 5 6 7
M TOR 15 4 5 6 15
M TOR 16 4 5 6 16
M TOR 17 4 8 7 6
M TOR 18 4 8 7 17
M TOR 19 4 8 7 18
M TOR 20 5 4 8 7
M TOR 21 5 6 7 8
M TOR 22 5 6 7 17
M TOR 23 5 6 7 18
M TOR 24 6 5 4 8
M TOR 25 6 5 4 12
M TOR 26 7 6 5 13
M TOR 27 7 6 5 14
M TOR 28 7 8 4 12
M TOR 29 8 4 5 13
M TOR 30 8 4 5 14
M TOR 31 8 7 6 15
M TOR 32 8 7 6 16
M  END
$$$$
