gdb 5490	4.7959811	1.0446749	1.0082815	1.1738	74.8	-0.24099	0.06893	0.30992000000000003	1218.5715	0.158612	-422.511031	-422.50345	-422.502506	-422.54326	29.589
 OpenBabel02181911423D

 19 21  0  0  1  0  0  0  0  0999 V2000
    1.3112   -0.1560    0.8578 O   0  0  0  0  0  0  0  0  0  0  0  0
    0.3255    0.2552   -0.0811 C   0  0  0  0  0  0  0  0  0  0  0  0
   -0.7701    1.0845    0.5713 C   0  0  2  0  0  0  0  0  0  0  0  0
   -1.9162    0.3965    1.3644 C   0  0  1  0  0  0  0  0  0  0  0  0
   -2.7859    1.6860    1.1639 C   0  0  2  0  0  0  0  0  0  0  0  0
   -4.2235    1.2231    0.9843 C   0  0  0  0  0  0  0  0  0  0  0  0
   -4.0272    0.0486    0.1781 O   0  0  0  0  0  0  0  0  0  0  0  0
   -2.6219    0.0157    0.0263 C   0  0  1  0  0  0  0  0  0  0  0  0
   -2.0592    1.4517   -0.2072 C   0  0  2  0  0  0  0  0  0  0  0  0
    0.8734   -0.7029    1.5179 H   0  0  0  0  0  0  0  0  0  0  0  0
    0.8609    0.8666   -0.8162 H   0  0  0  0  0  0  0  0  0  0  0  0
   -0.0894   -0.6078   -0.6227 H   0  0  0  0  0  0  0  0  0  0  0  0
   -0.3137    1.9264    1.1032 H   0  0  0  0  0  0  0  0  0  0  0  0
   -1.8543   -0.2042    2.2742 H   0  0  0  0  0  0  0  0  0  0  0  0
   -2.5757    2.5826    1.7470 H   0  0  0  0  0  0  0  0  0  0  0  0
   -4.7171    0.9546    1.9267 H   0  0  0  0  0  0  0  0  0  0  0  0
   -4.8519    1.9465    0.4501 H   0  0  0  0  0  0  0  0  0  0  0  0
   -2.3322   -0.8409   -0.5777 H   0  0  0  0  0  0  0  0  0  0  0  0
   -2.1549    2.0618   -1.1067 H   0  0  0  0  0  0  0  0  0  0  0  0
  1 10  1  0  0  0  0
  2  3  1  0  0  0  0
  2  1  1  0  0  0  0
  3 13  1  1  0  0  0
  3  4  1  0  0  0  0
  4 14  1  1  0  0  0
  5  4  1  0  0  0  0
  5 15  1  1  0  0  0
  6  5  1  0  0  0  0
  6 16  1  0  0  0  0
  7  6  1  0  0  0  0
  8 18  1  6  0  0  0
  8  7  1  0  0  0  0
  8  4  1  0  0  0  0
  9 19  1  6  0  0  0
  9  8  1  0  0  0  0
  9  3  1  0  0  0  0
  9  5  1  0  0  0  0
 11  2  1  0  0  0  0
 12  2  1  0  0  0  0
 17  6  1  0  0  0  0
M TOR 0 0 1 2 3
M TOR 1 0 1 2 8
M TOR 2 0 1 2 12
M TOR 3 1 2 3 4
M TOR 4 1 2 3 7
M TOR 5 1 2 3 13
M TOR 6 1 2 8 4
M TOR 7 1 2 8 7
M TOR 8 1 2 8 18
M TOR 9 2 1 0 9
M TOR 10 2 3 4 5
M TOR 11 2 3 4 8
M TOR 12 2 3 4 14
M TOR 13 2 3 7 6
M TOR 14 2 3 7 8
M TOR 15 2 3 7 17
M TOR 16 2 8 4 5
M TOR 17 2 8 4 14
M TOR 18 2 8 7 6
M TOR 19 2 8 7 17
M TOR 20 3 2 1 10
M TOR 21 3 2 1 11
M TOR 22 3 2 8 18
M TOR 23 3 4 5 6
M TOR 24 3 4 5 15
M TOR 25 3 4 5 16
M TOR 26 3 4 8 7
M TOR 27 3 4 8 18
M TOR 28 3 7 6 5
M TOR 29 3 7 8 18
M TOR 30 4 3 2 12
M TOR 31 4 3 7 6
M TOR 32 4 3 7 17
M TOR 33 4 5 6 7
M TOR 34 4 8 2 12
M TOR 35 4 8 7 6
M TOR 36 4 8 7 17
M TOR 37 5 4 3 7
M TOR 38 5 4 3 13
M TOR 39 5 4 8 7
M TOR 40 5 4 8 18
M TOR 41 5 6 7 8
M TOR 42 5 6 7 17
M TOR 43 6 5 4 8
M TOR 44 6 5 4 14
M TOR 45 6 7 3 13
M TOR 46 6 7 8 18
M TOR 47 7 3 2 12
M TOR 48 7 3 4 14
M TOR 49 7 6 5 15
M TOR 50 7 6 5 16
M TOR 51 7 8 2 12
M TOR 52 7 8 4 14
M TOR 53 8 2 1 10
M TOR 54 8 2 1 11
M TOR 55 8 2 3 13
M TOR 56 8 4 3 13
M TOR 57 8 4 5 15
M TOR 58 8 4 5 16
M TOR 59 8 7 3 13
M  END
$$$$
