gdb 1793	3.7373877	1.3169992	1.2426825	3.1183	75.08	-0.24063	0.08115	0.32178	1081.5028	0.156682	-422.524123	-422.516306	-422.515362	-422.556002	31.053
 OpenBabel02181911403D

 19 21  0  0  1  0  0  0  0  0999 V2000
   -0.0439    0.3140    0.0695 C   0  0  0  0  0  0  0  0  0  0  0  0
    1.4493    0.1589    0.0945 C   0  0  2  0  0  0  0  0  0  0  0  0
    2.4511    1.2582   -0.3555 C   0  0  0  0  0  0  0  0  0  0  0  0
    3.2573   -0.0226   -0.6551 C   0  0  2  0  0  0  0  0  0  0  0  0
    2.0004   -0.6972   -0.9700 O   0  0  0  0  0  0  0  0  0  0  0  0
    3.5447   -0.5646    0.7416 C   0  0  2  0  0  0  0  0  0  0  0  0
    4.8303   -0.5241    1.4367 C   0  0  0  0  0  0  0  0  0  0  0  0
    4.3100   -1.7479    0.8953 O   0  0  0  0  0  0  0  0  0  0  0  0
    2.1354   -0.4474    1.3482 C   0  0  0  0  0  0  0  0  0  0  0  0
   -0.3697    0.9977    0.8602 H   0  0  0  0  0  0  0  0  0  0  0  0
   -0.3766    0.7106   -0.8935 H   0  0  0  0  0  0  0  0  0  0  0  0
   -0.5316   -0.6525    0.2324 H   0  0  0  0  0  0  0  0  0  0  0  0
    2.1221    1.7560   -1.2687 H   0  0  0  0  0  0  0  0  0  0  0  0
    2.8308    1.9724    0.3806 H   0  0  0  0  0  0  0  0  0  0  0  0
    4.0284   -0.1094   -1.4193 H   0  0  0  0  0  0  0  0  0  0  0  0
    5.7146   -0.1314    0.9346 H   0  0  0  0  0  0  0  0  0  0  0  0
    4.8554   -0.4671    2.5244 H   0  0  0  0  0  0  0  0  0  0  0  0
    1.7274   -1.4312    1.5915 H   0  0  0  0  0  0  0  0  0  0  0  0
    2.0835    0.1968    2.2303 H   0  0  0  0  0  0  0  0  0  0  0  0
  1 12  1  0  0  0  0
  1 10  1  0  0  0  0
  2  1  1  1  0  0  0
  2  9  1  0  0  0  0
  3  2  1  0  0  0  0
  3 14  1  0  0  0  0
  4 15  1  6  0  0  0
  4  3  1  0  0  0  0
  4  6  1  0  0  0  0
  5  4  1  0  0  0  0
  5  2  1  0  0  0  0
  6  8  1  6  0  0  0
  6  9  1  0  0  0  0
  6  7  1  0  0  0  0
  7 17  1  0  0  0  0
  8  7  1  0  0  0  0
  9 18  1  0  0  0  0
  9 19  1  0  0  0  0
 11  1  1  0  0  0  0
 13  3  1  0  0  0  0
 16  7  1  0  0  0  0
M TOR 0 0 1 2 3
M TOR 1 0 1 2 12
M TOR 2 0 1 2 13
M TOR 3 0 1 4 3
M TOR 4 0 1 8 5
M TOR 5 0 1 8 17
M TOR 6 0 1 8 18
M TOR 7 1 2 3 4
M TOR 8 1 2 3 5
M TOR 9 1 2 3 14
M TOR 10 1 4 3 5
M TOR 11 1 4 3 14
M TOR 12 1 8 5 3
M TOR 13 1 8 5 6
M TOR 14 1 8 5 7
M TOR 15 2 1 0 9
M TOR 16 2 1 0 10
M TOR 17 2 1 0 11
M TOR 18 2 1 8 5
M TOR 19 2 1 8 17
M TOR 20 2 1 8 18
M TOR 21 2 3 5 6
M TOR 22 2 3 5 7
M TOR 23 2 3 5 8
M TOR 24 3 2 1 8
M TOR 25 3 4 1 8
M TOR 26 3 5 6 7
M TOR 27 3 5 6 15
M TOR 28 3 5 6 16
M TOR 29 3 5 8 17
M TOR 30 3 5 8 18
M TOR 31 4 1 0 9
M TOR 32 4 1 0 10
M TOR 33 4 1 0 11
M TOR 34 4 1 2 12
M TOR 35 4 1 2 13
M TOR 36 4 1 8 5
M TOR 37 4 1 8 17
M TOR 38 4 1 8 18
M TOR 39 4 3 2 12
M TOR 40 4 3 2 13
M TOR 41 4 3 5 6
M TOR 42 4 3 5 7
M TOR 43 4 3 5 8
M TOR 44 5 3 2 12
M TOR 45 5 3 2 13
M TOR 46 5 7 6 15
M TOR 47 5 7 6 16
M TOR 48 6 5 3 14
M TOR 49 6 5 8 17
M TOR 50 6 5 8 18
M TOR 51 6 7 5 8
M TOR 52 7 5 3 14
M TOR 53 7 5 8 17
M TOR 54 7 5 8 18
M TOR 55 8 1 0 9
M TOR 56 8 1 0 10
M TOR 57 8 1 0 11
M TOR 58 8 1 2 12
M TOR 59 8 1 2 13
M TOR 60 8 5 3 14
M TOR 61 8 5 6 15
M TOR 62 8 5 6 16
M  END
$$$$
