
     RDKit          3D

 19 19  0  0  0  0  0  0  0  0999 V2000
    0.1580   -0.4843    0.5294 C   0  0  0  0  0  0  0  0  0  0  0  0
    1.1818    0.1010   -0.4277 C   0  0  0  0  0  0  0  0  0  0  0  0
    2.5381   -0.6137   -0.4025 C   0  0  0  0  0  0  0  0  0  0  0  0
    3.5424    0.1800   -1.2400 C   0  0  0  0  0  0  0  0  0  0  0  0
    3.5759    1.5407   -0.8229 O   0  0  0  0  0  0  0  0  0  0  0  0
    2.2945    2.1203   -0.8987 C   0  0  0  0  0  0  0  0  0  0  0  0
    1.3646    1.4736   -0.0624 O   0  0  0  0  0  0  0  0  0  0  0  0
    2.3884    3.5235   -0.5026 C   0  0  0  0  0  0  0  0  0  0  0  0
    2.4525    4.6864   -0.2159 C   0  0  0  0  0  0  0  0  0  0  0  0
    0.5318   -0.4459    1.5569 H   0  0  0  0  0  0  0  0  0  0  0  0
   -0.7755    0.0825    0.4825 H   0  0  0  0  0  0  0  0  0  0  0  0
   -0.0520   -1.5271    0.2730 H   0  0  0  0  0  0  0  0  0  0  0  0
    0.7852    0.0673   -1.4587 H   0  0  0  0  0  0  0  0  0  0  0  0
    2.8918   -0.6727    0.6327 H   0  0  0  0  0  0  0  0  0  0  0  0
    2.4409   -1.6340   -0.7905 H   0  0  0  0  0  0  0  0  0  0  0  0
    4.5607   -0.1994   -1.1280 H   0  0  0  0  0  0  0  0  0  0  0  0
    3.2728    0.1250   -2.3088 H   0  0  0  0  0  0  0  0  0  0  0  0
    1.9371    2.0502   -1.9467 H   0  0  0  0  0  0  0  0  0  0  0  0
    2.5139    5.7129    0.0500 H   0  0  0  0  0  0  0  0  0  0  0  0
  1  2  1  0
  2  3  1  0
  3  4  1  0
  4  5  1  0
  5  6  1  0
  6  7  1  0
  6  8  1  0
  8  9  3  0
  7  2  1  0
  1 10  1  0
  1 11  1  0
  1 12  1  0
  2 13  1  0
  3 14  1  0
  3 15  1  0
  4 16  1  0
  4 17  1  0
  6 18  1  0
  9 19  1  0
M  END
$$$$
