
     RDKit          3D

 19 21  0  0  0  0  0  0  0  0999 V2000
   -0.5186   -0.3814   -0.4790 C   0  0  0  0  0  0  0  0  0  0  0  0
   -0.6601   -0.1285    1.0470 C   0  0  0  0  0  0  0  0  0  0  0  0
   -0.2074    1.3342    0.7371 C   0  0  0  0  0  0  0  0  0  0  0  0
   -0.4957    2.3944    1.6124 O   0  0  0  0  0  0  0  0  0  0  0  0
   -0.9268    2.0393    2.9071 C   0  0  0  0  0  0  0  0  0  0  0  0
   -2.3102    1.3126    2.8992 C   0  0  0  0  0  0  0  0  0  0  0  0
   -2.8357    1.1652    1.5992 O   0  0  0  0  0  0  0  0  0  0  0  0
   -2.1186    0.3302    0.7263 C   0  0  0  0  0  0  0  0  0  0  0  0
   -1.2390    0.9889   -0.3793 C   0  0  0  0  0  0  0  0  0  0  0  0
    0.4983   -0.3715   -0.8760 H   0  0  0  0  0  0  0  0  0  0  0  0
   -1.1003   -1.2113   -0.8850 H   0  0  0  0  0  0  0  0  0  0  0  0
   -0.3211   -0.7826    1.8510 H   0  0  0  0  0  0  0  0  0  0  0  0
    0.8293    1.4401    0.3958 H   0  0  0  0  0  0  0  0  0  0  0  0
   -0.1750    1.4150    3.4124 H   0  0  0  0  0  0  0  0  0  0  0  0
   -0.9950    2.9812    3.4587 H   0  0  0  0  0  0  0  0  0  0  0  0
   -2.2271    0.3368    3.4007 H   0  0  0  0  0  0  0  0  0  0  0  0
   -3.0519    1.9006    3.4471 H   0  0  0  0  0  0  0  0  0  0  0  0
   -2.7910   -0.4616    0.3753 H   0  0  0  0  0  0  0  0  0  0  0  0
   -1.5720    1.6317   -1.1933 H   0  0  0  0  0  0  0  0  0  0  0  0
  1  2  1  0
  2  3  1  0
  3  4  1  0
  4  5  1  0
  5  6  1  0
  6  7  1  0
  7  8  1  0
  8  9  1  0
  9  1  1  0
  8  2  1  0
  9  3  1  0
  1 10  1  0
  1 11  1  0
  2 12  1  0
  3 13  1  0
  5 14  1  0
  5 15  1  0
  6 16  1  0
  6 17  1  0
  8 18  1  0
  9 19  1  0
M  END
$$$$
