
     RDKit          3D

 19 19  0  0  0  0  0  0  0  0999 V2000
   -4.7995    1.6139   -1.7636 C   0  0  0  0  0  0  0  0  0  0  0  0
   -3.7995    1.5558   -1.1015 C   0  0  0  0  0  0  0  0  0  0  0  0
   -2.6057    1.4839   -0.2693 C   0  0  0  0  0  0  0  0  0  0  0  0
   -1.4512    1.4747   -1.0881 O   0  0  0  0  0  0  0  0  0  0  0  0
   -0.2315    1.4801   -0.3567 C   0  0  0  0  0  0  0  0  0  0  0  0
    0.1797    0.0788    0.1447 C   0  0  0  0  0  0  0  0  0  0  0  0
    1.0549   -0.4222   -1.0075 C   0  0  0  0  0  0  0  0  0  0  0  0
    1.7846    0.7265   -1.4145 O   0  0  0  0  0  0  0  0  0  0  0  0
    0.8997    1.8371   -1.3517 C   0  0  0  0  0  0  0  0  0  0  0  0
   -5.6799    1.6670   -2.3550 H   0  0  0  0  0  0  0  0  0  0  0  0
   -2.5788    2.3474    0.4176 H   0  0  0  0  0  0  0  0  0  0  0  0
   -2.6557    0.5826    0.3631 H   0  0  0  0  0  0  0  0  0  0  0  0
   -0.3053    2.2065    0.4644 H   0  0  0  0  0  0  0  0  0  0  0  0
    0.7768    0.1667    1.0578 H   0  0  0  0  0  0  0  0  0  0  0  0
   -0.6813   -0.5601    0.3543 H   0  0  0  0  0  0  0  0  0  0  0  0
    1.7737   -1.1945   -0.7232 H   0  0  0  0  0  0  0  0  0  0  0  0
    0.4295   -0.8064   -1.8291 H   0  0  0  0  0  0  0  0  0  0  0  0
    1.4794    2.7119   -1.0436 H   0  0  0  0  0  0  0  0  0  0  0  0
    0.4391    2.0409   -2.3279 H   0  0  0  0  0  0  0  0  0  0  0  0
  1  2  3  0
  2  3  1  0
  3  4  1  0
  4  5  1  0
  5  6  1  0
  6  7  1  0
  7  8  1  0
  8  9  1  0
  9  5  1  0
  1 10  1  0
  3 11  1  0
  3 12  1  0
  5 13  1  0
  6 14  1  0
  6 15  1  0
  7 16  1  0
  7 17  1  0
  9 18  1  0
  9 19  1  0
M  END
$$$$
