gdb 288	2.4715524	2.2004654	1.5662528	1.0906	73.92	-0.23673	0.08725	0.32398	905.9425	0.160197	-422.529725	-422.523028	-422.522084	-422.560284	28.145
 OpenBabel02181911403D

 19 21  0  0  1  0  0  0  0  0999 V2000
    0.0228    1.4720   -0.0390 C   0  0  0  0  0  0  0  0  0  0  0  0
    1.3326    0.7279    0.0021 C   0  0  2  0  0  0  0  0  0  0  0  0
    2.1401    0.4580   -1.1042 O   0  0  0  0  0  0  0  0  0  0  0  0
    2.3809   -0.9629   -1.1397 C   0  0  0  0  0  0  0  0  0  0  0  0
    1.0790   -1.7814   -0.9044 C   0  0  2  0  0  0  0  0  0  0  0  0
   -0.0862   -0.8625   -1.2644 C   0  0  0  0  0  0  0  0  0  0  0  0
    0.0301   -0.0325    0.0118 C   0  0  2  0  0  0  0  0  0  0  0  0
   -0.0194   -1.1022    1.0722 C   0  0  0  0  0  0  0  0  0  0  0  0
    0.8563   -2.1006    0.4928 O   0  0  0  0  0  0  0  0  0  0  0  0
   -0.2233    2.0490    0.8467 H   0  0  0  0  0  0  0  0  0  0  0  0
   -0.3145    1.9158   -0.9697 H   0  0  0  0  0  0  0  0  0  0  0  0
    1.8784    0.7804    0.9458 H   0  0  0  0  0  0  0  0  0  0  0  0
    2.7882   -1.1679   -2.1345 H   0  0  0  0  0  0  0  0  0  0  0  0
    3.1267   -1.2441   -0.3829 H   0  0  0  0  0  0  0  0  0  0  0  0
    1.1327   -2.7340   -1.4376 H   0  0  0  0  0  0  0  0  0  0  0  0
    0.0752   -0.2945   -2.1796 H   0  0  0  0  0  0  0  0  0  0  0  0
   -1.0394   -1.3954   -1.3223 H   0  0  0  0  0  0  0  0  0  0  0  0
    0.3868   -0.7900    2.0396 H   0  0  0  0  0  0  0  0  0  0  0  0
   -1.0169   -1.5353    1.2294 H   0  0  0  0  0  0  0  0  0  0  0  0
  1  2  1  0  0  0  0
  1  7  1  0  0  0  0
  1 10  1  0  0  0  0
  2  7  1  0  0  0  0
  2 12  1  1  0  0  0
  3  2  1  0  0  0  0
  4  3  1  0  0  0  0
  4  5  1  0  0  0  0
  4 14  1  0  0  0  0
  5 15  1  6  0  0  0
  5  9  1  0  0  0  0
  6  5  1  0  0  0  0
  7  6  1  6  0  0  0
  7  8  1  0  0  0  0
  8 19  1  0  0  0  0
  8 18  1  0  0  0  0
  9  8  1  0  0  0  0
 11  1  1  0  0  0  0
 13  4  1  0  0  0  0
 16  6  1  0  0  0  0
 17  6  1  0  0  0  0
M TOR 0 0 1 2 3
M TOR 1 0 1 6 5
M TOR 2 0 1 6 7
M TOR 3 0 6 1 2
M TOR 4 0 6 1 11
M TOR 5 0 6 5 4
M TOR 6 0 6 5 15
M TOR 7 0 6 5 16
M TOR 8 0 6 7 8
M TOR 9 0 6 7 17
M TOR 10 0 6 7 18
M TOR 11 1 2 3 4
M TOR 12 1 2 3 12
M TOR 13 1 2 3 13
M TOR 14 1 6 0 9
M TOR 15 1 6 0 10
M TOR 16 1 6 5 4
M TOR 17 1 6 5 15
M TOR 18 1 6 5 16
M TOR 19 1 6 7 8
M TOR 20 1 6 7 17
M TOR 21 1 6 7 18
M TOR 22 2 1 0 9
M TOR 23 2 1 0 10
M TOR 24 2 1 6 5
M TOR 25 2 1 6 7
M TOR 26 2 3 4 5
M TOR 27 2 3 4 8
M TOR 28 2 3 4 14
M TOR 29 3 2 1 6
M TOR 30 3 2 1 11
M TOR 31 3 4 5 6
M TOR 32 3 4 5 15
M TOR 33 3 4 5 16
M TOR 34 3 4 8 7
M TOR 35 4 5 6 7
M TOR 36 4 8 7 6
M TOR 37 4 8 7 17
M TOR 38 4 8 7 18
M TOR 39 5 4 3 12
M TOR 40 5 4 3 13
M TOR 41 5 4 8 7
M TOR 42 5 6 0 9
M TOR 43 5 6 0 10
M TOR 44 5 6 1 11
M TOR 45 5 6 7 8
M TOR 46 5 6 7 17
M TOR 47 5 6 7 18
M TOR 48 6 5 4 8
M TOR 49 6 5 4 14
M TOR 50 7 6 0 9
M TOR 51 7 6 0 10
M TOR 52 7 6 1 11
M TOR 53 7 6 5 15
M TOR 54 7 6 5 16
M TOR 55 7 8 4 14
M TOR 56 8 4 3 12
M TOR 57 8 4 3 13
M TOR 58 8 4 5 15
M TOR 59 8 4 5 16
M  END
$$$$
