gdb 2788	2.7914091	1.1752874	0.9301044	1.6495	77.07	-0.24902	-0.02566	0.22336	1291.8248	0.155069	-422.539126	-422.529865	-422.52892	-422.57353	33.631
 OpenBabel02181911413D

 19 20  0  0  1  0  0  0  0  0999 V2000
    1.3227   -0.4849   -1.1471 C   0  0  0  0  0  0  0  0  0  0  0  0
    0.9877    0.0646    0.2227 C   0  0  2  0  0  0  0  0  0  0  0  0
    1.6981    1.3206    0.6575 C   0  0  2  0  0  0  0  0  0  0  0  0
    2.0352   -0.0316    1.2958 C   0  0  1  0  0  0  0  0  0  0  0  0
    1.4391    0.4366    2.6426 C   0  0  1  0  0  0  0  0  0  0  0  0
    2.4267    0.4433    3.7803 C   0  0  0  0  0  0  0  0  0  0  0  0
    2.9895    1.4199    4.2098 O   0  0  0  0  0  0  0  0  0  0  0  0
    1.1555    1.8322    1.9828 C   0  0  2  0  0  0  0  0  0  0  0  0
   -0.1784    2.2844    1.9244 O   0  0  0  0  0  0  0  0  0  0  0  0
    1.1167   -1.5590   -1.2051 H   0  0  0  0  0  0  0  0  0  0  0  0
    0.7329    0.0126   -1.9242 H   0  0  0  0  0  0  0  0  0  0  0  0
    2.3812   -0.3353   -1.3861 H   0  0  0  0  0  0  0  0  0  0  0  0
   -0.0530   -0.0527    0.5181 H   0  0  0  0  0  0  0  0  0  0  0  0
    2.2819    1.9076   -0.0416 H   0  0  0  0  0  0  0  0  0  0  0  0
    2.9342   -0.6259    1.1830 H   0  0  0  0  0  0  0  0  0  0  0  0
    0.5523   -0.1348    2.9470 H   0  0  0  0  0  0  0  0  0  0  0  0
    2.6298   -0.5625    4.2159 H   0  0  0  0  0  0  0  0  0  0  0  0
    1.8207    2.5769    2.4326 H   0  0  0  0  0  0  0  0  0  0  0  0
   -0.3961    2.6920    2.7687 H   0  0  0  0  0  0  0  0  0  0  0  0
  1  2  1  0  0  0  0
  2 13  1  1  0  0  0
  2  3  1  0  0  0  0
  2  4  1  0  0  0  0
  3 14  1  6  0  0  0
  3  4  1  0  0  0  0
  3  8  1  0  0  0  0
  4 15  1  6  0  0  0
  4  5  1  0  0  0  0
  5 16  1  1  0  0  0
  5  6  1  0  0  0  0
  6  7  2  0  0  0  0
  6 17  1  0  0  0  0
  8 18  1  1  0  0  0
  8  5  1  0  0  0  0
  9  8  1  0  0  0  0
  9 19  1  0  0  0  0
 10  1  1  0  0  0  0
 11  1  1  0  0  0  0
 12  1  1  0  0  0  0
M TOR 0 0 1 2 3
M TOR 1 0 1 2 7
M TOR 2 0 1 2 13
M TOR 3 0 1 3 4
M TOR 4 0 1 3 14
M TOR 5 1 2 3 4
M TOR 6 1 2 3 14
M TOR 7 1 2 7 4
M TOR 8 1 2 7 8
M TOR 9 1 2 7 17
M TOR 10 1 3 2 7
M TOR 11 1 3 2 13
M TOR 12 1 3 4 5
M TOR 13 1 3 4 7
M TOR 14 1 3 4 15
M TOR 15 2 1 0 9
M TOR 16 2 1 0 10
M TOR 17 2 1 0 11
M TOR 18 2 3 1 12
M TOR 19 2 3 4 5
M TOR 20 2 3 4 7
M TOR 21 2 3 4 15
M TOR 22 2 7 4 5
M TOR 23 2 7 4 15
M TOR 24 2 7 8 18
M TOR 25 3 1 0 9
M TOR 26 3 1 0 10
M TOR 27 3 1 0 11
M TOR 28 3 2 7 8
M TOR 29 3 2 7 17
M TOR 30 3 4 5 6
M TOR 31 3 4 5 16
M TOR 32 3 4 7 8
M TOR 33 3 4 7 17
M TOR 34 4 3 1 12
M TOR 35 4 3 2 13
M TOR 36 4 7 2 13
M TOR 37 4 7 8 18
M TOR 38 5 4 3 14
M TOR 39 5 4 7 8
M TOR 40 5 4 7 17
M TOR 41 6 5 4 7
M TOR 42 6 5 4 15
M TOR 43 7 2 1 12
M TOR 44 7 2 3 14
M TOR 45 7 4 3 14
M TOR 46 7 4 5 16
M TOR 47 8 7 2 13
M TOR 48 8 7 4 15
M  END
$$$$
