gdb 3053	2.9778191	1.5185736	1.3987629	1.3874	75.27	-0.24439	0.06592	0.31031	1018.0257	0.157333	-422.460811	-422.453117	-422.452172	-422.492789	30.189
 OpenBabel02181911413D

 19 21  0  0  1  0  0  0  0  0999 V2000
    2.2604    1.5081   -0.8908 C   0  0  0  0  0  0  0  0  0  0  0  0
    1.6229    0.1741   -0.5522 C   0  0  2  0  0  0  0  0  0  0  0  0
    1.9303   -0.4942    0.8007 C   0  0  2  0  0  0  0  0  0  0  0  0
    3.3426   -0.7451    0.3330 O   0  0  0  0  0  0  0  0  0  0  0  0
    2.4385   -1.1415   -0.7715 C   0  0  2  0  0  0  0  0  0  0  0  0
    2.4894   -2.0023   -2.0021 C   0  0  0  0  0  0  0  0  0  0  0  0
    1.1638   -2.5746   -1.9924 O   0  0  0  0  0  0  0  0  0  0  0  0
    0.4804   -2.4169   -0.7072 C   0  0  0  0  0  0  0  0  0  0  0  0
    1.5638   -1.9005    0.2235 C   0  0  2  0  0  0  0  0  0  0  0  0
    1.7285    2.3272   -0.3947 H   0  0  0  0  0  0  0  0  0  0  0  0
    3.3048    1.5286   -0.5746 H   0  0  0  0  0  0  0  0  0  0  0  0
    2.2154    1.6966   -1.9689 H   0  0  0  0  0  0  0  0  0  0  0  0
    0.5767    0.1294   -0.8644 H   0  0  0  0  0  0  0  0  0  0  0  0
    1.8350   -0.1150    1.8191 H   0  0  0  0  0  0  0  0  0  0  0  0
    2.6141   -1.4616   -2.9452 H   0  0  0  0  0  0  0  0  0  0  0  0
    3.2600   -2.7813   -1.9240 H   0  0  0  0  0  0  0  0  0  0  0  0
   -0.3742   -1.7465   -0.8457 H   0  0  0  0  0  0  0  0  0  0  0  0
    0.1020   -3.3996   -0.4116 H   0  0  0  0  0  0  0  0  0  0  0  0
    2.1125   -2.6954    0.7314 H   0  0  0  0  0  0  0  0  0  0  0  0
  1 11  1  0  0  0  0
  1  2  1  0  0  0  0
  1 10  1  0  0  0  0
  2 13  1  6  0  0  0
  2  3  1  0  0  0  0
  3 14  1  1  0  0  0
  4  3  1  0  0  0  0
  5  2  1  0  0  0  0
  5  9  1  0  0  0  0
  5  4  1  1  0  0  0
  6  7  1  0  0  0  0
  6 16  1  0  0  0  0
  6  5  1  0  0  0  0
  7  8  1  0  0  0  0
  8 18  1  0  0  0  0
  8  9  1  0  0  0  0
  9 19  1  1  0  0  0
  9  3  1  0  0  0  0
 12  1  1  0  0  0  0
 15  6  1  0  0  0  0
 17  8  1  0  0  0  0
M TOR 0 0 1 2 3
M TOR 1 0 1 2 8
M TOR 2 0 1 2 13
M TOR 3 0 1 4 3
M TOR 4 0 1 4 5
M TOR 5 0 1 4 8
M TOR 6 1 2 3 4
M TOR 7 1 2 8 4
M TOR 8 1 2 8 7
M TOR 9 1 2 8 18
M TOR 10 1 4 5 6
M TOR 11 1 4 5 14
M TOR 12 1 4 5 15
M TOR 13 1 4 8 7
M TOR 14 1 4 8 18
M TOR 15 2 1 0 9
M TOR 16 2 1 0 10
M TOR 17 2 1 0 11
M TOR 18 2 1 4 5
M TOR 19 2 3 4 5
M TOR 20 2 3 4 8
M TOR 21 2 8 4 5
M TOR 22 2 8 7 6
M TOR 23 2 8 7 16
M TOR 24 2 8 7 17
M TOR 25 3 2 1 12
M TOR 26 3 2 8 7
M TOR 27 3 2 8 18
M TOR 28 3 4 1 12
M TOR 29 3 4 5 6
M TOR 30 3 4 5 14
M TOR 31 3 4 5 15
M TOR 32 3 4 8 7
M TOR 33 3 4 8 18
M TOR 34 4 1 0 9
M TOR 35 4 1 0 10
M TOR 36 4 1 0 11
M TOR 37 4 1 2 13
M TOR 38 4 3 2 13
M TOR 39 4 5 6 7
M TOR 40 4 8 2 13
M TOR 41 4 8 7 6
M TOR 42 4 8 7 16
M TOR 43 4 8 7 17
M TOR 44 5 4 1 12
M TOR 45 5 4 8 7
M TOR 46 5 4 8 18
M TOR 47 5 6 7 8
M TOR 48 5 6 7 16
M TOR 49 5 6 7 17
M TOR 50 6 5 4 8
M TOR 51 6 7 8 18
M TOR 52 7 6 5 14
M TOR 53 7 6 5 15
M TOR 54 7 8 2 13
M TOR 55 8 2 1 12
M TOR 56 8 4 1 12
M TOR 57 8 4 5 14
M TOR 58 8 4 5 15
M  END
$$$$
