gdb 1728	2.3289933	1.4537494	1.3473668	1.9928	76.61	-0.25016	0.05562	0.30578	1087.3146	0.15651	-422.526882	-422.518107	-422.517163	-422.559785	33.487
 OpenBabel02181911403D

 19 19  0  0  0  0  0  0  0  0999 V2000
   -0.0030    0.0188    0.0606 C   0  0  0  0  0  0  0  0  0  0  0  0
    1.5370   -0.0225    0.0684 C   0  0  0  0  0  0  0  0  0  0  0  0
    2.0475   -0.6481    1.3914 C   0  0  0  0  0  0  0  0  0  0  0  0
    3.4511   -0.5244    1.5154 O   0  0  0  0  0  0  0  0  0  0  0  0
    3.8537    0.8175    1.4448 C   0  0  0  0  0  0  0  0  0  0  0  0
    3.5099    1.4238    0.2275 O   0  0  0  0  0  0  0  0  0  0  0  0
    2.1098    1.4171    0.0261 C   0  0  0  0  0  0  0  0  0  0  0  0
    2.0240   -0.7937   -1.0760 C   0  0  0  0  0  0  0  0  0  0  0  0
    2.3843   -1.4335   -2.0274 C   0  0  0  0  0  0  0  0  0  0  0  0
   -0.3791    0.5939    0.9133 H   0  0  0  0  0  0  0  0  0  0  0  0
   -0.3720    0.4816   -0.8589 H   0  0  0  0  0  0  0  0  0  0  0  0
   -0.4164   -0.9921    0.1154 H   0  0  0  0  0  0  0  0  0  0  0  0
    1.5447   -0.1416    2.2335 H   0  0  0  0  0  0  0  0  0  0  0  0
    1.8157   -1.7146    1.4360 H   0  0  0  0  0  0  0  0  0  0  0  0
    3.4049    1.3859    2.2840 H   0  0  0  0  0  0  0  0  0  0  0  0
    4.9426    0.8311    1.5150 H   0  0  0  0  0  0  0  0  0  0  0  0
    1.6097    2.0145    0.8082 H   0  0  0  0  0  0  0  0  0  0  0  0
    1.9243    1.8848   -0.9434 H   0  0  0  0  0  0  0  0  0  0  0  0
    2.7224   -1.9956   -2.8623 H   0  0  0  0  0  0  0  0  0  0  0  0
  1  2  1  0  0  0  0
  1 12  1  0  0  0  0
  1 10  1  0  0  0  0
  2  3  1  0  0  0  0
  3 14  1  0  0  0  0
  3  4  1  0  0  0  0
  3 13  1  0  0  0  0
  5 16  1  0  0  0  0
  5  4  1  0  0  0  0
  5 15  1  0  0  0  0
  6  5  1  0  0  0  0
  7  2  1  0  0  0  0
  7  6  1  0  0  0  0
  7 17  1  0  0  0  0
  8  2  1  0  0  0  0
  9  8  3  0  0  0  0
 11  1  1  0  0  0  0
 18  7  1  0  0  0  0
 19  9  1  0  0  0  0
M TOR 0 0 1 2 3
M TOR 1 0 1 2 12
M TOR 2 0 1 2 13
M TOR 3 0 1 6 5
M TOR 4 0 1 6 16
M TOR 5 0 1 6 17
M TOR 6 0 1 7 8
M TOR 7 1 2 3 4
M TOR 8 1 6 5 4
M TOR 9 1 7 8 18
M TOR 10 2 1 0 9
M TOR 11 2 1 0 10
M TOR 12 2 1 0 11
M TOR 13 2 1 6 5
M TOR 14 2 1 6 16
M TOR 15 2 1 6 17
M TOR 16 2 1 7 8
M TOR 17 2 3 4 5
M TOR 18 2 3 4 14
M TOR 19 2 3 4 15
M TOR 20 3 2 1 6
M TOR 21 3 2 1 7
M TOR 22 3 4 5 6
M TOR 23 4 3 2 12
M TOR 24 4 3 2 13
M TOR 25 4 5 6 16
M TOR 26 4 5 6 17
M TOR 27 5 6 1 7
M TOR 28 6 1 0 9
M TOR 29 6 1 0 10
M TOR 30 6 1 0 11
M TOR 31 6 1 2 12
M TOR 32 6 1 2 13
M TOR 33 6 1 7 8
M TOR 34 6 5 4 14
M TOR 35 6 5 4 15
M TOR 36 7 1 0 9
M TOR 37 7 1 0 10
M TOR 38 7 1 0 11
M TOR 39 7 1 2 12
M TOR 40 7 1 2 13
M TOR 41 7 1 6 16
M TOR 42 7 1 6 17
M  END
$$$$
