gdb 4297	3.0281379	1.4029915	1.0893649	1.3941	77.85	-0.24352	0.00604	0.24955999999999998	1130.6473	0.158343	-422.541311	-422.533376	-422.532432	-422.573598	31.041
 OpenBabel02181911413D

 19 20  0  0  1  0  0  0  0  0999 V2000
   -0.1656    1.4535   -0.1588 O   0  0  0  0  0  0  0  0  0  0  0  0
   -0.0129    0.0685   -0.0108 C   0  0  2  0  0  0  0  0  0  0  0  0
    0.2002   -0.8523   -1.2704 C   0  0  0  0  0  0  0  0  0  0  0  0
   -0.7033   -1.9219   -0.5648 C   0  0  2  0  0  0  0  0  0  0  0  0
   -1.6477   -2.7076   -1.2582 O   0  0  0  0  0  0  0  0  0  0  0  0
   -2.9646   -2.1734   -1.3260 C   0  0  0  0  0  0  0  0  0  0  0  0
   -3.4750   -1.6441    0.0291 C   0  0  0  0  0  0  0  0  0  0  0  0
   -2.5181   -0.5755    0.5099 C   0  0  0  0  0  3  0  0  0  0  0  0
   -1.2291   -0.7894    0.2750 C   0  0  2  0  0  3  0  0  0  0  0  0
   -0.9416    1.5999   -0.7118 H   0  0  0  0  0  0  0  0  0  0  0  0
    0.7983   -0.0681    0.7115 H   0  0  0  0  0  0  0  0  0  0  0  0
   -0.3057   -0.4232   -2.1399 H   0  0  0  0  0  0  0  0  0  0  0  0
    1.2211   -1.1364   -1.5333 H   0  0  0  0  0  0  0  0  0  0  0  0
   -0.0753   -2.6241   -0.0039 H   0  0  0  0  0  0  0  0  0  0  0  0
   -3.0178   -1.3583   -2.0650 H   0  0  0  0  0  0  0  0  0  0  0  0
   -3.5869   -2.9967   -1.6884 H   0  0  0  0  0  0  0  0  0  0  0  0
   -4.4840   -1.2391   -0.1027 H   0  0  0  0  0  0  0  0  0  0  0  0
   -3.5561   -2.4758    0.7404 H   0  0  0  0  0  0  0  0  0  0  0  0
   -2.8895    0.3629    0.9124 H   0  0  0  0  0  0  0  0  0  0  0  0
  1  2  1  0  0  0  0
  2  9  1  0  0  0  0
  2 11  1  1  0  0  0
  3  4  1  0  0  0  0
  3  2  1  0  0  0  0
  4 14  1  1  0  0  0
  4  9  1  0  0  0  0
  5  4  1  0  0  0  0
  6  5  1  0  0  0  0
  6  7  1  0  0  0  0
  7  8  1  0  0  0  0
  7 18  1  0  0  0  0
  8 19  1  0  0  0  0
  9  8  1  6  0  0  0
 10  1  1  0  0  0  0
 12  3  1  0  0  0  0
 13  3  1  0  0  0  0
 15  6  1  0  0  0  0
 16  6  1  0  0  0  0
 17  7  1  0  0  0  0
M TOR 0 0 1 2 3
M TOR 1 0 1 2 11
M TOR 2 0 1 2 12
M TOR 3 0 1 8 3
M TOR 4 0 1 8 7
M TOR 5 1 2 3 4
M TOR 6 1 2 3 8
M TOR 7 1 2 3 13
M TOR 8 1 8 3 4
M TOR 9 1 8 3 13
M TOR 10 1 8 7 6
M TOR 11 1 8 7 18
M TOR 12 2 1 0 9
M TOR 13 2 1 8 7
M TOR 14 2 3 4 5
M TOR 15 2 3 8 7
M TOR 16 3 2 1 10
M TOR 17 3 4 5 6
M TOR 18 3 4 5 14
M TOR 19 3 4 5 15
M TOR 20 3 8 1 10
M TOR 21 3 8 7 6
M TOR 22 3 8 7 18
M TOR 23 4 3 2 11
M TOR 24 4 3 2 12
M TOR 25 4 3 8 7
M TOR 26 4 5 6 7
M TOR 27 4 5 6 16
M TOR 28 4 5 6 17
M TOR 29 5 4 3 8
M TOR 30 5 4 3 13
M TOR 31 5 6 7 8
M TOR 32 5 6 7 18
M TOR 33 7 6 5 14
M TOR 34 7 6 5 15
M TOR 35 7 8 1 10
M TOR 36 7 8 3 13
M TOR 37 8 1 0 9
M TOR 38 8 1 2 11
M TOR 39 8 1 2 12
M TOR 40 8 3 2 11
M TOR 41 8 3 2 12
M TOR 42 8 7 6 16
M TOR 43 8 7 6 17
M  END
$$$$
