gdb 3804	3.049532	1.1503818	1.0101003	1.9632	77.66	-0.25054	-0.02927	0.22127	1230.1239	0.155165	-422.542264	-422.53316	-422.532215	-422.575805	33.848
 OpenBabel02181911413D

 19 20  0  0  1  0  0  0  0  0999 V2000
   -0.6860   -1.0332   -1.3872 C   0  0  0  0  0  0  0  0  0  0  0  0
    0.4134   -0.5212   -2.2720 C   0  0  2  0  0  0  0  0  0  0  0  0
    0.2666   -0.2264   -3.7777 C   0  0  0  0  0  0  0  0  0  0  0  0
    1.7298   -0.7425   -4.0062 C   0  0  2  0  0  0  0  0  0  0  0  0
    1.8515   -1.8834   -4.8208 O   0  0  0  0  0  0  0  0  0  0  0  0
    1.8343   -0.9920   -2.4955 C   0  0  1  0  0  0  0  0  0  0  0  0
    1.5904    0.3277   -1.7696 C   0  0  2  0  0  0  0  0  0  0  0  0
    1.8910    0.3472   -0.3197 C   0  0  0  0  0  0  0  0  0  0  0  0
    1.8432   -0.6132    0.4164 O   0  0  0  0  0  0  0  0  0  0  0  0
   -0.3060   -1.3105   -0.4025 H   0  0  0  0  0  0  0  0  0  0  0  0
   -1.4691   -0.2769   -1.2578 H   0  0  0  0  0  0  0  0  0  0  0  0
   -1.1540   -1.9170   -1.8357 H   0  0  0  0  0  0  0  0  0  0  0  0
   -0.4473   -0.8955   -4.2679 H   0  0  0  0  0  0  0  0  0  0  0  0
    0.0323    0.8050   -4.0607 H   0  0  0  0  0  0  0  0  0  0  0  0
    2.4390   -0.0168   -4.4156 H   0  0  0  0  0  0  0  0  0  0  0  0
    1.2729   -2.5691   -4.4683 H   0  0  0  0  0  0  0  0  0  0  0  0
    2.3949   -1.7747   -1.9967 H   0  0  0  0  0  0  0  0  0  0  0  0
    1.8076    1.2615   -2.2852 H   0  0  0  0  0  0  0  0  0  0  0  0
    2.1829    1.3460    0.0740 H   0  0  0  0  0  0  0  0  0  0  0  0
  1 11  1  0  0  0  0
  1 10  1  0  0  0  0
  2  7  1  0  0  0  0
  2  1  1  1  0  0  0
  3  2  1  0  0  0  0
  4 15  1  6  0  0  0
  4  3  1  0  0  0  0
  4  6  1  0  0  0  0
  5 16  1  0  0  0  0
  5  4  1  0  0  0  0
  6  2  1  0  0  0  0
  6 17  1  1  0  0  0
  6  7  1  0  0  0  0
  7 18  1  6  0  0  0
  7  8  1  0  0  0  0
  8 19  1  0  0  0  0
  8  9  2  0  0  0  0
 12  1  1  0  0  0  0
 13  3  1  0  0  0  0
 14  3  1  0  0  0  0
M TOR 0 0 1 2 3
M TOR 1 0 1 2 12
M TOR 2 0 1 2 13
M TOR 3 0 1 5 3
M TOR 4 0 1 5 6
M TOR 5 0 1 5 16
M TOR 6 0 1 6 7
M TOR 7 0 1 6 17
M TOR 8 1 2 3 4
M TOR 9 1 2 3 5
M TOR 10 1 2 3 14
M TOR 11 1 5 3 4
M TOR 12 1 5 3 14
M TOR 13 1 5 6 7
M TOR 14 1 5 6 17
M TOR 15 1 6 5 3
M TOR 16 1 6 5 16
M TOR 17 1 6 7 8
M TOR 18 1 6 7 18
M TOR 19 2 1 0 9
M TOR 20 2 1 0 10
M TOR 21 2 1 0 11
M TOR 22 2 1 5 6
M TOR 23 2 1 5 16
M TOR 24 2 1 6 7
M TOR 25 2 1 6 17
M TOR 26 2 3 4 15
M TOR 27 2 3 5 6
M TOR 28 2 3 5 16
M TOR 29 3 2 1 6
M TOR 30 3 5 6 7
M TOR 31 3 5 6 17
M TOR 32 4 3 2 12
M TOR 33 4 3 2 13
M TOR 34 4 3 5 6
M TOR 35 4 3 5 16
M TOR 36 5 1 0 9
M TOR 37 5 1 0 10
M TOR 38 5 1 0 11
M TOR 39 5 1 2 12
M TOR 40 5 1 2 13
M TOR 41 5 3 2 12
M TOR 42 5 3 2 13
M TOR 43 5 3 4 15
M TOR 44 5 6 7 8
M TOR 45 5 6 7 18
M TOR 46 6 1 0 9
M TOR 47 6 1 0 10
M TOR 48 6 1 0 11
M TOR 49 6 1 2 12
M TOR 50 6 1 2 13
M TOR 51 6 5 3 14
M TOR 52 7 6 5 16
M TOR 53 8 7 6 17
M  END
$$$$
