
     RDKit          3D

 19 18  0  0  0  0  0  0  0  0999 V2000
   -3.7858    2.4269   -1.7999 C   0  0  0  0  0  0  0  0  0  0  0  0
   -2.7673    2.9044   -0.7801 C   0  0  0  0  0  0  0  0  0  0  0  0
   -2.1433    1.7612   -0.2086 O   0  0  0  0  0  0  0  0  0  0  0  0
   -1.1435    2.0559    0.7517 C   0  0  0  0  0  0  0  0  0  0  0  0
   -0.4160    0.7326    1.0482 C   0  0  0  0  0  0  0  0  0  0  0  0
    0.3100    0.1844   -0.1647 C   0  0  0  0  0  0  0  0  0  0  0  0
    1.3876   -0.3512   -0.1163 O   0  0  0  0  0  0  0  0  0  0  0  0
   -1.6957    2.6442    1.9788 C   0  0  0  0  0  0  0  0  0  0  0  0
   -2.1476    3.1134    2.9889 C   0  0  0  0  0  0  0  0  0  0  0  0
   -4.5443    1.8019   -1.3206 H   0  0  0  0  0  0  0  0  0  0  0  0
   -4.2842    3.2828   -2.2645 H   0  0  0  0  0  0  0  0  0  0  0  0
   -3.3020    1.8391   -2.5851 H   0  0  0  0  0  0  0  0  0  0  0  0
   -2.0059    3.5435   -1.2565 H   0  0  0  0  0  0  0  0  0  0  0  0
   -3.2507    3.4995    0.0074 H   0  0  0  0  0  0  0  0  0  0  0  0
   -0.4236    2.7750    0.3220 H   0  0  0  0  0  0  0  0  0  0  0  0
    0.2926    0.8464    1.8712 H   0  0  0  0  0  0  0  0  0  0  0  0
   -1.1773    0.0014    1.3497 H   0  0  0  0  0  0  0  0  0  0  0  0
   -0.2376    0.3027   -1.1236 H   0  0  0  0  0  0  0  0  0  0  0  0
   -2.5457    3.5323    3.8803 H   0  0  0  0  0  0  0  0  0  0  0  0
  1  2  1  0
  2  3  1  0
  3  4  1  0
  4  5  1  0
  5  6  1  0
  6  7  2  0
  4  8  1  0
  8  9  3  0
  1 10  1  0
  1 11  1  0
  1 12  1  0
  2 13  1  0
  2 14  1  0
  4 15  1  0
  5 16  1  0
  5 17  1  0
  6 18  1  0
  9 19  1  0
M  END
$$$$
