
     RDKit          3D

 19 19  0  0  0  0  0  0  0  0999 V2000
    3.3325    2.4070    5.3301 C   0  0  0  0  0  0  0  0  0  0  0  0
    2.7480    2.5610    3.9316 C   0  0  0  0  0  0  0  0  0  0  0  0
    1.6963    3.5085    4.0289 O   0  0  0  0  0  0  0  0  0  0  0  0
    2.2408    1.2109    3.3723 C   0  0  0  0  0  0  0  0  0  0  0  0
    1.8096    1.2762    1.9483 C   0  0  0  0  0  0  0  0  0  0  0  0
    2.2265    0.6666    0.8061 C   0  0  0  0  0  0  0  0  0  0  0  0
    1.4156    1.1790   -0.2610 C   0  0  0  0  0  0  0  0  0  0  0  0
    0.5634    2.0668    0.3062 C   0  0  0  0  0  0  0  0  0  0  0  0
    0.7844    2.1402    1.6509 O   0  0  0  0  0  0  0  0  0  0  0  0
    4.2078    1.7506    5.3203 H   0  0  0  0  0  0  0  0  0  0  0  0
    3.6336    3.3844    5.7160 H   0  0  0  0  0  0  0  0  0  0  0  0
    2.5855    1.9881    6.0121 H   0  0  0  0  0  0  0  0  0  0  0  0
    3.5350    2.9323    3.2530 H   0  0  0  0  0  0  0  0  0  0  0  0
    1.2305    3.5214    3.1851 H   0  0  0  0  0  0  0  0  0  0  0  0
    3.0361    0.4623    3.4454 H   0  0  0  0  0  0  0  0  0  0  0  0
    1.4126    0.8757    4.0107 H   0  0  0  0  0  0  0  0  0  0  0  0
    3.0175   -0.0633    0.7310 H   0  0  0  0  0  0  0  0  0  0  0  0
    1.4640    0.9145   -1.3056 H   0  0  0  0  0  0  0  0  0  0  0  0
   -0.2243    2.6966   -0.0722 H   0  0  0  0  0  0  0  0  0  0  0  0
  1  2  1  0
  2  3  1  0
  2  4  1  0
  4  5  1  0
  5  6  2  0
  6  7  1  0
  7  8  2  0
  8  9  1  0
  9  5  1  0
  1 10  1  0
  1 11  1  0
  1 12  1  0
  2 13  1  0
  3 14  1  0
  4 15  1  0
  4 16  1  0
  6 17  1  0
  7 18  1  0
  8 19  1  0
M  END
$$$$
