
     RDKit          3D

 19 19  0  0  0  0  0  0  0  0999 V2000
   -1.7554    2.9693   -1.2944 C   0  0  0  0  0  0  0  0  0  0  0  0
   -1.4383    1.4806   -1.2383 C   0  0  0  0  0  0  0  0  0  0  0  0
   -2.6770    0.5964   -1.4187 C   0  0  0  0  0  0  0  0  0  0  0  0
   -2.3455   -0.7826   -1.9892 C   0  0  0  0  0  0  0  0  0  0  0  0
   -1.1941   -1.5039   -1.3596 C   0  0  0  0  0  0  0  0  0  0  0  0
   -0.3504   -1.1196   -0.3957 C   0  0  0  0  0  0  0  0  0  0  0  0
   -0.2890    0.1045    0.4486 C   0  0  0  0  0  0  0  0  0  0  0  0
    0.2768    0.0703    1.5140 O   0  0  0  0  0  0  0  0  0  0  0  0
   -0.8441    1.2749    0.0572 O   0  0  0  0  0  0  0  0  0  0  0  0
   -2.5179    3.2264   -0.5527 H   0  0  0  0  0  0  0  0  0  0  0  0
   -0.8595    3.5576   -1.0825 H   0  0  0  0  0  0  0  0  0  0  0  0
   -2.1280    3.2405   -2.2864 H   0  0  0  0  0  0  0  0  0  0  0  0
   -0.6911    1.2363   -2.0057 H   0  0  0  0  0  0  0  0  0  0  0  0
   -3.1689    0.5100   -0.4434 H   0  0  0  0  0  0  0  0  0  0  0  0
   -3.3878    1.0933   -2.0873 H   0  0  0  0  0  0  0  0  0  0  0  0
   -3.2302   -1.4324   -1.9428 H   0  0  0  0  0  0  0  0  0  0  0  0
   -2.1248   -0.6929   -3.0640 H   0  0  0  0  0  0  0  0  0  0  0  0
   -1.0301   -2.5022   -1.7643 H   0  0  0  0  0  0  0  0  0  0  0  0
    0.4017   -1.8282   -0.0633 H   0  0  0  0  0  0  0  0  0  0  0  0
  1  2  1  0
  2  3  1  0
  3  4  1  0
  4  5  1  0
  5  6  2  0
  6  7  1  0
  7  8  2  0
  7  9  1  0
  9  2  1  0
  1 10  1  0
  1 11  1  0
  1 12  1  0
  2 13  1  0
  3 14  1  0
  3 15  1  0
  4 16  1  0
  4 17  1  0
  5 18  1  0
  6 19  1  0
M  END
$$$$
