gdb 2200	1.8605371	1.8216617	1.6934196	2.5296	75.58	-0.2224	0.06057	0.28297	1008.9277	0.154947	-422.498983	-422.490034	-422.48909	-422.531939	33.911
 OpenBabel02181911413D

 19 21  0  0  1  0  0  0  0  0999 V2000
   -1.1445    0.7437    2.3030 C   0  0  0  0  0  0  0  0  0  0  0  0
    0.2210    0.9666    1.7250 C   0  0  2  0  0  0  0  0  0  0  0  0
    0.9198    2.2969    1.4321 C   0  0  0  0  0  0  0  0  0  0  0  0
    2.1903    1.4540    1.1709 C   0  0  2  0  0  0  0  0  0  0  0  0
    1.8615    0.7143   -0.0339 O   0  0  0  0  0  0  0  0  0  0  0  0
    0.9372   -0.0429    0.7535 C   0  0  2  0  0  0  0  0  0  0  0  0
    0.3448   -1.2820    0.1754 C   0  0  0  0  0  0  0  0  0  0  0  0
    1.5563    0.2932    2.0624 C   0  0  2  0  0  0  0  0  0  0  0  0
    1.9855   -0.5139    3.0820 O   0  0  0  0  0  0  0  0  0  0  0  0
   -1.2826    1.3108    3.2315 H   0  0  0  0  0  0  0  0  0  0  0  0
   -1.9300    1.0590    1.6065 H   0  0  0  0  0  0  0  0  0  0  0  0
   -1.3147   -0.3121    2.5382 H   0  0  0  0  0  0  0  0  0  0  0  0
    0.5737    2.9033    0.5888 H   0  0  0  0  0  0  0  0  0  0  0  0
    1.0053    2.9108    2.3345 H   0  0  0  0  0  0  0  0  0  0  0  0
    3.1982    1.8637    1.1740 H   0  0  0  0  0  0  0  0  0  0  0  0
   -0.2899   -1.7855    0.9091 H   0  0  0  0  0  0  0  0  0  0  0  0
   -0.2656   -1.0478   -0.7033 H   0  0  0  0  0  0  0  0  0  0  0  0
    1.1322   -1.9783   -0.1287 H   0  0  0  0  0  0  0  0  0  0  0  0
    1.8832   -0.0429    3.9175 H   0  0  0  0  0  0  0  0  0  0  0  0
  1 12  1  0  0  0  0
  1 10  1  0  0  0  0
  2  8  1  0  0  0  0
  2  1  1  1  0  0  0
  3  2  1  0  0  0  0
  3 14  1  0  0  0  0
  4 15  1  1  0  0  0
  4  3  1  0  0  0  0
  4  8  1  0  0  0  0
  5  6  1  0  0  0  0
  5  4  1  0  0  0  0
  6  7  1  6  0  0  0
  6  2  1  0  0  0  0
  6  8  1  0  0  0  0
  7 16  1  0  0  0  0
  8  9  1  1  0  0  0
  9 19  1  0  0  0  0
 11  1  1  0  0  0  0
 13  3  1  0  0  0  0
 17  7  1  0  0  0  0
 18  7  1  0  0  0  0
M TOR 0 0 1 2 3
M TOR 1 0 1 2 12
M TOR 2 0 1 2 13
M TOR 3 0 1 5 4
M TOR 4 0 1 5 6
M TOR 5 0 1 5 7
M TOR 6 0 1 7 3
M TOR 7 0 1 7 8
M TOR 8 1 2 3 4
M TOR 9 1 2 3 7
M TOR 10 1 2 3 14
M TOR 11 1 5 4 3
M TOR 12 1 5 6 15
M TOR 13 1 5 6 16
M TOR 14 1 5 6 17
M TOR 15 1 5 7 3
M TOR 16 1 5 7 8
M TOR 17 1 7 3 4
M TOR 18 1 7 3 14
M TOR 19 1 7 5 4
M TOR 20 1 7 5 6
M TOR 21 1 7 8 18
M TOR 22 2 1 0 9
M TOR 23 2 1 0 10
M TOR 24 2 1 0 11
M TOR 25 2 1 5 4
M TOR 26 2 1 5 6
M TOR 27 2 1 5 7
M TOR 28 2 1 7 8
M TOR 29 2 3 4 5
M TOR 30 2 3 7 5
M TOR 31 2 3 7 8
M TOR 32 3 2 1 5
M TOR 33 3 4 5 6
M TOR 34 3 4 5 7
M TOR 35 3 7 5 6
M TOR 36 3 7 8 18
M TOR 37 4 3 2 12
M TOR 38 4 3 2 13
M TOR 39 4 3 7 8
M TOR 40 4 5 6 15
M TOR 41 4 5 6 16
M TOR 42 4 5 6 17
M TOR 43 4 5 7 8
M TOR 44 5 1 0 9
M TOR 45 5 1 0 10
M TOR 46 5 1 0 11
M TOR 47 5 1 2 12
M TOR 48 5 1 2 13
M TOR 49 5 4 3 14
M TOR 50 5 7 3 14
M TOR 51 5 7 8 18
M TOR 52 6 5 7 8
M TOR 53 7 1 0 9
M TOR 54 7 1 0 10
M TOR 55 7 1 0 11
M TOR 56 7 1 2 12
M TOR 57 7 1 2 13
M TOR 58 7 3 2 12
M TOR 59 7 3 2 13
M TOR 60 7 5 6 15
M TOR 61 7 5 6 16
M TOR 62 7 5 6 17
M TOR 63 8 7 3 14
M  END
$$$$
