
     RDKit          3D

 19 20  0  0  0  0  0  0  0  0999 V2000
   -0.5770   -1.4850   -2.2194 O   0  0  0  0  0  0  0  0  0  0  0  0
   -0.6131   -0.6223   -1.0933 C   0  0  0  0  0  0  0  0  0  0  0  0
   -0.3281    0.7858   -1.5824 C   0  0  0  0  0  0  0  0  0  0  0  0
   -1.4546    1.4130   -2.4712 C   0  0  0  0  0  0  0  0  0  0  0  0
   -1.6499    2.4937   -1.3910 C   0  0  0  0  0  0  0  0  0  0  0  0
   -2.3816    3.4358   -1.2593 O   0  0  0  0  0  0  0  0  0  0  0  0
   -0.5479    1.9127   -0.5516 C   0  0  0  0  0  0  0  0  0  0  0  0
    0.4601    2.7391    0.2175 C   0  0  0  0  0  0  0  0  0  0  0  0
   -0.5196    1.8928    0.9634 C   0  0  0  0  0  0  0  0  0  0  0  0
   -0.7874   -2.3762   -1.9256 H   0  0  0  0  0  0  0  0  0  0  0  0
   -1.5981   -0.6469   -0.5985 H   0  0  0  0  0  0  0  0  0  0  0  0
    0.1373   -0.9162   -0.3410 H   0  0  0  0  0  0  0  0  0  0  0  0
    0.6552    0.8096   -2.0600 H   0  0  0  0  0  0  0  0  0  0  0  0
   -1.1308    1.8083   -3.4376 H   0  0  0  0  0  0  0  0  0  0  0  0
   -2.3248    0.7713   -2.6365 H   0  0  0  0  0  0  0  0  0  0  0  0
    1.4948    2.4152    0.1751 H   0  0  0  0  0  0  0  0  0  0  0  0
    0.3113    3.8138    0.2060 H   0  0  0  0  0  0  0  0  0  0  0  0
   -0.1590    0.9899    1.4441 H   0  0  0  0  0  0  0  0  0  0  0  0
   -1.3482    2.3815    1.4650 H   0  0  0  0  0  0  0  0  0  0  0  0
  1  2  1  0
  2  3  1  0
  3  4  1  0
  4  5  1  0
  5  6  2  0
  5  7  1  0
  7  8  1  0
  8  9  1  0
  7  3  1  0
  9  7  1  0
  1 10  1  0
  2 11  1  0
  2 12  1  0
  3 13  1  0
  4 14  1  0
  4 15  1  0
  8 16  1  0
  8 17  1  0
  9 18  1  0
  9 19  1  0
M  END
$$$$
