gdb 2299	2.2043901	1.5741999	1.4455097	3.2076	75.48	-0.23414	-0.01697	0.21716999999999997	1044.5568	0.154645	-422.559148	-422.549933	-422.548989	-422.592976	34.319
 OpenBabel02181911413D

 19 20  0  0  1  0  0  0  0  0999 V2000
   -0.9556    2.2224    1.1022 C   0  0  0  0  0  0  0  0  0  0  0  0
   -1.1064    1.1050    0.0965 C   0  0  2  0  0  0  0  0  0  0  0  0
   -1.7254    1.4428   -1.3092 C   0  0  0  0  0  0  0  0  0  0  0  0
   -2.8382    0.3738   -1.1027 C   0  0  0  0  0  0  0  0  0  0  0  0
   -2.1349   -0.0932    0.1929 C   0  0  2  0  0  0  0  0  0  0  0  0
   -2.8866   -0.2319    1.3627 O   0  0  0  0  0  0  0  0  0  0  0  0
   -0.9749   -1.1153   -0.0230 C   0  0  0  0  0  0  0  0  0  0  0  0
    0.0096    0.0725   -0.0644 C   0  0  0  0  0  0  0  0  0  0  0  0
    1.2022    0.1511   -0.1472 O   0  0  0  0  0  0  0  0  0  0  0  0
   -0.7180    1.8338    2.0969 H   0  0  0  0  0  0  0  0  0  0  0  0
   -0.1463    2.8963    0.8013 H   0  0  0  0  0  0  0  0  0  0  0  0
   -1.8772    2.8078    1.1806 H   0  0  0  0  0  0  0  0  0  0  0  0
   -2.0936    2.4692   -1.3653 H   0  0  0  0  0  0  0  0  0  0  0  0
   -1.0576    1.2733   -2.1571 H   0  0  0  0  0  0  0  0  0  0  0  0
   -3.8065    0.8278   -0.8786 H   0  0  0  0  0  0  0  0  0  0  0  0
   -2.9699   -0.3713   -1.8924 H   0  0  0  0  0  0  0  0  0  0  0  0
   -3.4304   -1.0242    1.2885 H   0  0  0  0  0  0  0  0  0  0  0  0
   -0.8082   -1.7317    0.8666 H   0  0  0  0  0  0  0  0  0  0  0  0
   -1.0031   -1.7591   -0.9070 H   0  0  0  0  0  0  0  0  0  0  0  0
  1 12  1  0  0  0  0
  1 10  1  0  0  0  0
  2  5  1  0  0  0  0
  2  1  1  1  0  0  0
  3  4  1  0  0  0  0
  3  2  1  0  0  0  0
  4 15  1  0  0  0  0
  4  5  1  0  0  0  0
  5  6  1  1  0  0  0
  7  5  1  0  0  0  0
  7 18  1  0  0  0  0
  8  7  1  0  0  0  0
  8  2  1  0  0  0  0
  9  8  2  0  0  0  0
 11  1  1  0  0  0  0
 13  3  1  0  0  0  0
 14  3  1  0  0  0  0
 16  4  1  0  0  0  0
 17  6  1  0  0  0  0
 19  7  1  0  0  0  0
M TOR 0 0 1 2 3
M TOR 1 0 1 2 12
M TOR 2 0 1 2 13
M TOR 3 0 1 4 3
M TOR 4 0 1 4 5
M TOR 5 0 1 4 6
M TOR 6 0 1 7 6
M TOR 7 0 1 7 8
M TOR 8 1 2 3 4
M TOR 9 1 2 3 14
M TOR 10 1 2 3 15
M TOR 11 1 4 3 14
M TOR 12 1 4 3 15
M TOR 13 1 4 5 16
M TOR 14 1 4 6 7
M TOR 15 1 4 6 17
M TOR 16 1 4 6 18
M TOR 17 1 7 6 17
M TOR 18 1 7 6 18
M TOR 19 2 1 0 9
M TOR 20 2 1 0 10
M TOR 21 2 1 0 11
M TOR 22 2 1 4 5
M TOR 23 2 1 4 6
M TOR 24 2 1 7 6
M TOR 25 2 1 7 8
M TOR 26 2 3 4 5
M TOR 27 2 3 4 6
M TOR 28 3 2 1 7
M TOR 29 3 4 1 7
M TOR 30 3 4 5 16
M TOR 31 3 4 6 7
M TOR 32 3 4 6 17
M TOR 33 3 4 6 18
M TOR 34 4 1 0 9
M TOR 35 4 1 0 10
M TOR 36 4 1 0 11
M TOR 37 4 1 2 12
M TOR 38 4 1 2 13
M TOR 39 4 1 7 8
M TOR 40 4 3 2 12
M TOR 41 4 3 2 13
M TOR 42 4 6 7 8
M TOR 43 5 4 1 7
M TOR 44 5 4 3 14
M TOR 45 5 4 3 15
M TOR 46 5 4 6 7
M TOR 47 5 4 6 17
M TOR 48 5 4 6 18
M TOR 49 6 4 3 14
M TOR 50 6 4 3 15
M TOR 51 6 4 5 16
M TOR 52 7 1 0 9
M TOR 53 7 1 0 10
M TOR 54 7 1 0 11
M TOR 55 7 1 2 12
M TOR 56 7 1 2 13
M TOR 57 8 7 6 17
M TOR 58 8 7 6 18
M  END
$$$$
