gdb 4602	3.5171249	0.6735271	0.6620192	3.0535	83.09	-0.23814	0.03117	0.26931	1774.0701	0.153889	-422.507566	-422.49686	-422.495916	-422.544678	37.464
 OpenBabel02181911413D

 19 19  0  0  1  0  0  0  0  0999 V2000
    4.4309   -0.7336   -1.3742 C   0  0  0  0  0  0  0  0  0  0  0  0
    3.9605   -0.0792   -0.0836 C   0  0  1  0  0  0  0  0  0  0  0  0
    4.8027   -0.2830    1.1816 C   0  0  0  0  0  0  0  0  0  0  0  0
    4.7861    1.0561    0.5038 C   0  0  1  0  0  0  0  0  0  0  0  0
    5.8909    1.4765   -0.2372 O   0  0  0  0  0  0  0  0  0  0  0  0
    2.5344    0.0026    0.0893 C   0  0  0  0  0  0  0  0  0  0  0  0
    1.3348    0.0472    0.2122 C   0  0  0  0  0  0  0  0  0  0  0  0
   -0.1140    0.1679    0.3597 C   0  0  0  0  0  0  0  0  0  0  0  0
   -0.7008    1.1252   -0.5136 O   0  0  0  0  0  0  0  0  0  0  0  0
    4.1281   -1.7845   -1.4023 H   0  0  0  0  0  0  0  0  0  0  0  0
    3.9919   -0.2305   -2.2407 H   0  0  0  0  0  0  0  0  0  0  0  0
    5.5168   -0.6717   -1.4611 H   0  0  0  0  0  0  0  0  0  0  0  0
    4.2886   -0.4000    2.1282 H   0  0  0  0  0  0  0  0  0  0  0  0
    5.6970   -0.8853    1.0589 H   0  0  0  0  0  0  0  0  0  0  0  0
    4.2240    1.8559    0.9837 H   0  0  0  0  0  0  0  0  0  0  0  0
    6.6153    1.6409    0.3756 H   0  0  0  0  0  0  0  0  0  0  0  0
   -0.6003   -0.7854    0.1229 H   0  0  0  0  0  0  0  0  0  0  0  0
   -0.3533    0.3901    1.4126 H   0  0  0  0  0  0  0  0  0  0  0  0
   -0.1784    1.9310   -0.4451 H   0  0  0  0  0  0  0  0  0  0  0  0
  1  2  1  0  0  0  0
  2  6  1  1  0  0  0
  2  4  1  0  0  0  0
  2  3  1  0  0  0  0
  3 13  1  0  0  0  0
  4 15  1  1  0  0  0
  4  3  1  0  0  0  0
  5 16  1  0  0  0  0
  5  4  1  0  0  0  0
  6  7  3  0  0  0  0
  7  8  1  0  0  0  0
  8 18  1  0  0  0  0
  9 19  1  0  0  0  0
  9  8  1  0  0  0  0
 10  1  1  0  0  0  0
 11  1  1  0  0  0  0
 12  1  1  0  0  0  0
 14  3  1  0  0  0  0
 17  8  1  0  0  0  0
M TOR 0 0 1 2 3
M TOR 1 0 1 2 12
M TOR 2 0 1 2 13
M TOR 3 0 1 3 4
M TOR 4 0 1 3 14
M TOR 5 0 1 5 6
M TOR 6 1 2 3 4
M TOR 7 1 2 3 14
M TOR 8 1 3 2 12
M TOR 9 1 3 2 13
M TOR 10 1 3 4 15
M TOR 11 1 5 6 7
M TOR 12 2 1 0 9
M TOR 13 2 1 0 10
M TOR 14 2 1 0 11
M TOR 15 2 1 5 6
M TOR 16 2 3 1 5
M TOR 17 2 3 4 15
M TOR 18 3 1 0 9
M TOR 19 3 1 0 10
M TOR 20 3 1 0 11
M TOR 21 3 1 5 6
M TOR 22 4 3 1 5
M TOR 23 4 3 2 12
M TOR 24 4 3 2 13
M TOR 25 5 1 0 9
M TOR 26 5 1 0 10
M TOR 27 5 1 0 11
M TOR 28 5 1 2 12
M TOR 29 5 1 2 13
M TOR 30 5 1 3 14
M TOR 31 5 6 7 8
M TOR 32 5 6 7 16
M TOR 33 5 6 7 17
M TOR 34 6 7 8 18
M  END
$$$$
