
     RDKit          3D

 19 20  0  0  0  0  0  0  0  0999 V2000
    5.4947    1.5658    0.8987 C   0  0  0  0  0  0  0  0  0  0  0  0
    4.6931    0.6890   -0.0340 C   0  0  0  0  0  0  0  0  0  0  0  0
    5.1562   -0.2352   -0.6629 O   0  0  0  0  0  0  0  0  0  0  0  0
    3.2310    1.0184   -0.1613 C   0  0  0  0  0  0  0  0  0  0  0  0
    2.0040    0.1584    0.2421 C   0  0  0  0  0  0  0  0  0  0  0  0
    1.5199    1.5746   -0.1708 C   0  0  0  0  0  0  0  0  0  0  0  0
    0.1771    2.2137   -0.0127 C   0  0  0  0  0  0  0  0  0  0  0  0
    2.4528    1.5105   -1.4103 C   0  0  0  0  0  0  0  0  0  0  0  0
    2.6611    2.1476    0.6079 O   0  0  0  0  0  0  0  0  0  0  0  0
    5.0644    1.5271    1.9053 H   0  0  0  0  0  0  0  0  0  0  0  0
    6.5356    1.2413    0.9141 H   0  0  0  0  0  0  0  0  0  0  0  0
    5.4218    2.6112    0.5794 H   0  0  0  0  0  0  0  0  0  0  0  0
    1.7451   -0.6874   -0.3979 H   0  0  0  0  0  0  0  0  0  0  0  0
    1.9313   -0.0653    1.3073 H   0  0  0  0  0  0  0  0  0  0  0  0
   -0.1516    2.1625    1.0297 H   0  0  0  0  0  0  0  0  0  0  0  0
    0.2146    3.2645   -0.3148 H   0  0  0  0  0  0  0  0  0  0  0  0
   -0.5615    1.6994   -0.6354 H   0  0  0  0  0  0  0  0  0  0  0  0
    2.2320    0.7796   -2.1908 H   0  0  0  0  0  0  0  0  0  0  0  0
    2.7750    2.4772   -1.7999 H   0  0  0  0  0  0  0  0  0  0  0  0
  1  2  1  0
  2  3  2  0
  2  4  1  0
  4  5  1  0
  5  6  1  0
  6  7  1  0
  6  8  1  0
  6  9  1  0
  8  4  1  0
  9  4  1  0
  1 10  1  0
  1 11  1  0
  1 12  1  0
  5 13  1  0
  5 14  1  0
  7 15  1  0
  7 16  1  0
  7 17  1  0
  8 18  1  0
  8 19  1  0
M  END
$$$$
