gdb 2417	2.901208	1.8340413	1.310598	1.2314	74.91	-0.23618	0.07553	0.31171	1003.5664	0.156189	-422.507764	-422.49986	-422.498916	-422.53941	31.509
 OpenBabel02181911413D

 19 21  0  0  1  0  0  0  0  0999 V2000
    4.5386    0.3646    1.4066 C   0  0  0  0  0  0  0  0  0  0  0  0
    3.3129    0.1627    0.5547 C   0  0  2  0  0  0  0  0  0  0  0  0
    3.2049   -1.0237   -0.3901 C   0  0  0  0  0  0  0  0  0  0  0  0
    1.9077   -0.8226   -0.9831 O   0  0  0  0  0  0  0  0  0  0  0  0
    1.4474    0.3583   -0.3678 C   0  0  2  0  0  0  0  0  0  0  0  0
    0.0865    0.7795   -0.8335 C   0  0  0  0  0  0  0  0  0  0  0  0
    2.6273    1.3681   -0.1757 C   0  0  1  0  0  0  0  0  0  0  0  0
    2.0423    1.8469    1.0806 O   0  0  0  0  0  0  0  0  0  0  0  0
    1.8759    0.3913    1.1369 C   0  0  2  0  0  0  0  0  0  0  0  0
    4.6996   -0.4840    2.0806 H   0  0  0  0  0  0  0  0  0  0  0  0
    5.4381    0.4749    0.7909 H   0  0  0  0  0  0  0  0  0  0  0  0
    4.4200    1.2682    2.0106 H   0  0  0  0  0  0  0  0  0  0  0  0
    3.9766   -1.0241   -1.1702 H   0  0  0  0  0  0  0  0  0  0  0  0
    3.2332   -1.9905    0.1282 H   0  0  0  0  0  0  0  0  0  0  0  0
   -0.2005    1.6973   -0.3152 H   0  0  0  0  0  0  0  0  0  0  0  0
    0.0868    0.9613   -1.9123 H   0  0  0  0  0  0  0  0  0  0  0  0
   -0.6523    0.0010   -0.6209 H   0  0  0  0  0  0  0  0  0  0  0  0
    3.0557    2.1047   -0.8572 H   0  0  0  0  0  0  0  0  0  0  0  0
    1.4068   -0.0388    2.0231 H   0  0  0  0  0  0  0  0  0  0  0  0
  1 12  1  0  0  0  0
  1 10  1  0  0  0  0
  2  9  1  0  0  0  0
  2  1  1  1  0  0  0
  3 14  1  0  0  0  0
  3  2  1  0  0  0  0
  4  3  1  0  0  0  0
  4  5  1  0  0  0  0
  5  6  1  6  0  0  0
  5  7  1  0  0  0  0
  5  9  1  0  0  0  0
  6 17  1  0  0  0  0
  6 15  1  0  0  0  0
  7 18  1  6  0  0  0
  7  2  1  0  0  0  0
  7  8  1  0  0  0  0
  8  9  1  0  0  0  0
  9 19  1  1  0  0  0
 11  1  1  0  0  0  0
 13  3  1  0  0  0  0
 16  6  1  0  0  0  0
M TOR 0 0 1 2 3
M TOR 1 0 1 2 12
M TOR 2 0 1 2 13
M TOR 3 0 1 6 4
M TOR 4 0 1 6 7
M TOR 5 0 1 6 17
M TOR 6 0 1 8 4
M TOR 7 0 1 8 7
M TOR 8 0 1 8 18
M TOR 9 1 2 3 4
M TOR 10 1 6 4 3
M TOR 11 1 6 4 5
M TOR 12 1 6 4 8
M TOR 13 1 6 7 8
M TOR 14 1 8 4 3
M TOR 15 1 8 4 5
M TOR 16 2 1 0 9
M TOR 17 2 1 0 10
M TOR 18 2 1 0 11
M TOR 19 2 1 6 4
M TOR 20 2 1 6 7
M TOR 21 2 1 6 17
M TOR 22 2 1 8 4
M TOR 23 2 1 8 7
M TOR 24 2 1 8 18
M TOR 25 2 3 4 5
M TOR 26 2 3 4 6
M TOR 27 2 3 4 8
M TOR 28 3 2 1 6
M TOR 29 3 2 1 8
M TOR 30 3 4 5 14
M TOR 31 3 4 5 15
M TOR 32 3 4 5 16
M TOR 33 3 4 6 7
M TOR 34 3 4 6 17
M TOR 35 3 4 8 7
M TOR 36 3 4 8 18
M TOR 37 4 3 2 12
M TOR 38 4 3 2 13
M TOR 39 4 6 7 8
M TOR 40 5 4 6 7
M TOR 41 5 4 6 17
M TOR 42 5 4 8 7
M TOR 43 5 4 8 18
M TOR 44 6 1 0 9
M TOR 45 6 1 0 10
M TOR 46 6 1 0 11
M TOR 47 6 1 2 12
M TOR 48 6 1 2 13
M TOR 49 6 1 8 18
M TOR 50 6 4 5 14
M TOR 51 6 4 5 15
M TOR 52 6 4 5 16
M TOR 53 6 4 8 18
M TOR 54 6 7 8 18
M TOR 55 8 1 0 9
M TOR 56 8 1 0 10
M TOR 57 8 1 0 11
M TOR 58 8 1 2 12
M TOR 59 8 1 2 13
M TOR 60 8 1 6 17
M TOR 61 8 4 5 14
M TOR 62 8 4 5 15
M TOR 63 8 4 5 16
M TOR 64 8 4 6 17
M TOR 65 8 7 6 17
M  END
$$$$
