
     RDKit          3D

 19 21  0  0  0  0  0  0  0  0999 V2000
    0.2876   -0.2405   -0.4685 C   0  0  0  0  0  0  0  0  0  0  0  0
    0.8531    0.0950    0.8974 C   0  0  0  0  0  0  0  0  0  0  0  0
    2.1955   -0.4541    1.0736 O   0  0  0  0  0  0  0  0  0  0  0  0
    2.7652    0.8525    1.2584 C   0  0  0  0  0  0  0  0  0  0  0  0
    3.9934    1.1239    0.4319 C   0  0  0  0  0  0  0  0  0  0  0  0
    2.7979    1.3589    2.7421 C   0  0  0  0  0  0  0  0  0  0  0  0
    1.6247    0.8900    3.4038 O   0  0  0  0  0  0  0  0  0  0  0  0
    1.4972    2.0342    2.5582 C   0  0  0  0  0  0  0  0  0  0  0  0
    1.3816    1.5371    1.0964 C   0  0  0  0  0  0  0  0  0  0  0  0
    0.2116   -1.3255   -0.5898 H   0  0  0  0  0  0  0  0  0  0  0  0
   -0.7145    0.1885   -0.5810 H   0  0  0  0  0  0  0  0  0  0  0  0
    0.9246    0.1483   -1.2692 H   0  0  0  0  0  0  0  0  0  0  0  0
    0.1943   -0.2554    1.6977 H   0  0  0  0  0  0  0  0  0  0  0  0
    4.8026    0.4476    0.7302 H   0  0  0  0  0  0  0  0  0  0  0  0
    3.7915    0.9664   -0.6311 H   0  0  0  0  0  0  0  0  0  0  0  0
    4.3407    2.1528    0.5754 H   0  0  0  0  0  0  0  0  0  0  0  0
    3.6556    1.5968    3.3635 H   0  0  0  0  0  0  0  0  0  0  0  0
    1.0960    2.9381    3.0018 H   0  0  0  0  0  0  0  0  0  0  0  0
    1.1845    2.2842    0.3285 H   0  0  0  0  0  0  0  0  0  0  0  0
  1  2  1  0
  2  3  1  0
  3  4  1  0
  4  5  1  0
  4  6  1  0
  6  7  1  0
  7  8  1  0
  8  9  1  0
  9  2  1  0
  9  4  1  0
  8  6  1  0
  1 10  1  0
  1 11  1  0
  1 12  1  0
  2 13  1  0
  5 14  1  0
  5 15  1  0
  5 16  1  0
  6 17  1  0
  8 18  1  0
  9 19  1  0
M  END
$$$$
