
     RDKit          3D

 19 21  0  0  0  0  0  0  0  0999 V2000
   -0.8901   -0.3722    1.1232 C   0  0  0  0  0  0  0  0  0  0  0  0
    0.4708    0.2469    0.9013 C   0  0  0  0  0  0  0  0  0  0  0  0
    0.7190    1.2230   -0.1646 C   0  0  0  0  0  0  0  0  0  0  0  0
    1.1505   -0.1325   -0.3003 O   0  0  0  0  0  0  0  0  0  0  0  0
   -0.7865   -1.7791    1.6410 C   0  0  0  0  0  0  0  0  0  0  0  0
   -1.8928   -2.7559    2.1217 C   0  0  0  0  0  0  0  0  0  0  0  0
   -0.5069   -3.3310    2.4940 C   0  0  0  0  0  0  0  0  0  0  0  0
    0.0174   -2.9860    1.0834 C   0  0  0  0  0  0  0  0  0  0  0  0
   -0.0997   -1.9814    2.9516 O   0  0  0  0  0  0  0  0  0  0  0  0
   -1.4560    0.2300    1.8453 H   0  0  0  0  0  0  0  0  0  0  0  0
   -1.4488   -0.3770    0.1805 H   0  0  0  0  0  0  0  0  0  0  0  0
    1.1122    0.2698    1.7820 H   0  0  0  0  0  0  0  0  0  0  0  0
   -0.0990    1.5211   -0.8201 H   0  0  0  0  0  0  0  0  0  0  0  0
    1.5135    1.9595   -0.0531 H   0  0  0  0  0  0  0  0  0  0  0  0
   -2.4889   -2.4008    2.9637 H   0  0  0  0  0  0  0  0  0  0  0  0
   -2.4842   -3.2772    1.3643 H   0  0  0  0  0  0  0  0  0  0  0  0
   -0.2593   -4.1719    3.1412 H   0  0  0  0  0  0  0  0  0  0  0  0
    1.0931   -2.8292    1.0068 H   0  0  0  0  0  0  0  0  0  0  0  0
   -0.3986   -3.5264    0.2294 H   0  0  0  0  0  0  0  0  0  0  0  0
  1  2  1  0
  2  3  1  0
  3  4  1  0
  1  5  1  0
  5  6  1  0
  6  7  1  0
  7  8  1  0
  7  9  1  0
  4  2  1  0
  8  5  1  0
  9  5  1  0
  1 10  1  0
  1 11  1  0
  2 12  1  0
  3 13  1  0
  3 14  1  0
  6 15  1  0
  6 16  1  0
  7 17  1  0
  8 18  1  0
  8 19  1  0
M  END
$$$$
