
     RDKit          3D

 19 20  0  0  0  0  0  0  0  0999 V2000
    0.5812    4.5395   -1.6178 O   0  0  0  0  0  0  0  0  0  0  0  0
    0.7869    3.1895   -1.3649 C   0  0  0  0  0  0  0  0  0  0  0  0
    0.2630    2.4506   -0.0954 C   0  0  0  0  0  0  0  0  0  0  0  0
    1.2922    1.3853   -0.5523 C   0  0  0  0  0  0  0  0  0  0  0  0
    2.1885    2.5795   -1.0373 C   0  0  0  0  0  0  0  0  0  0  0  0
    0.6984    0.8957   -1.8994 C   0  0  0  0  0  0  0  0  0  0  0  0
    0.3014    2.2787   -2.5036 C   0  0  0  0  0  0  0  0  0  0  0  0
    1.8679    0.3735    0.3780 C   0  0  0  0  0  0  0  0  0  0  0  0
    1.6351    0.3089    1.5602 O   0  0  0  0  0  0  0  0  0  0  0  0
    0.8565    5.0424   -0.8445 H   0  0  0  0  0  0  0  0  0  0  0  0
    0.5635    2.9322    0.8380 H   0  0  0  0  0  0  0  0  0  0  0  0
   -0.7913    2.1652   -0.0572 H   0  0  0  0  0  0  0  0  0  0  0  0
    2.6850    3.0843   -0.2045 H   0  0  0  0  0  0  0  0  0  0  0  0
    2.8883    2.4028   -1.8585 H   0  0  0  0  0  0  0  0  0  0  0  0
    1.4345    0.3601   -2.5058 H   0  0  0  0  0  0  0  0  0  0  0  0
   -0.1611    0.2370   -1.7491 H   0  0  0  0  0  0  0  0  0  0  0  0
    0.8111    2.5030   -3.4441 H   0  0  0  0  0  0  0  0  0  0  0  0
   -0.7746    2.3801   -2.6659 H   0  0  0  0  0  0  0  0  0  0  0  0
    2.5738   -0.3442   -0.1041 H   0  0  0  0  0  0  0  0  0  0  0  0
  1  2  1  0
  2  3  1  0
  3  4  1  0
  4  5  1  0
  4  6  1  0
  6  7  1  0
  4  8  1  0
  8  9  2  0
  5  2  1  0
  7  2  1  0
  1 10  1  0
  3 11  1  0
  3 12  1  0
  5 13  1  0
  5 14  1  0
  6 15  1  0
  6 16  1  0
  7 17  1  0
  7 18  1  0
  8 19  1  0
M  END
$$$$
