gdb 2134	3.7438503	1.4319539	1.2886553	2.3902	74.6	-0.23966	0.06698	0.30664	1016.3064	0.158422	-422.500655	-422.493397	-422.492453	-422.531671	30.249
 OpenBabel02181911403D

 19 21  0  0  1  0  0  0  0  0999 V2000
    0.8151    0.7263    0.1889 O   0  0  0  0  0  0  0  0  0  0  0  0
   -0.2184    0.9739    1.0848 C   0  0  2  0  0  0  0  0  0  0  0  0
   -1.6654    1.1492    0.4508 C   0  0  0  0  0  0  0  0  0  0  0  0
   -1.8868    1.7643    1.8457 C   0  0  1  0  0  0  0  0  0  0  0  0
   -0.4606    2.3587    1.7568 C   0  0  0  0  0  0  0  0  0  0  0  0
   -2.8956    2.3608    2.6675 O   0  0  0  0  0  0  0  0  0  0  0  0
   -2.3827    1.5543    3.7887 C   0  0  0  0  0  0  0  0  0  0  0  0
   -1.7605    0.5646    2.7664 C   0  0  2  0  0  0  0  0  0  0  0  0
   -0.3691    0.0393    2.3418 C   0  0  0  0  0  0  0  0  0  0  0  0
    1.6488    0.7601    0.6707 H   0  0  0  0  0  0  0  0  0  0  0  0
   -1.6101    1.8447   -0.3888 H   0  0  0  0  0  0  0  0  0  0  0  0
   -2.2400    0.2574    0.1907 H   0  0  0  0  0  0  0  0  0  0  0  0
   -0.3969    3.1853    1.0470 H   0  0  0  0  0  0  0  0  0  0  0  0
    0.0785    2.5895    2.6795 H   0  0  0  0  0  0  0  0  0  0  0  0
   -1.6722    2.1323    4.3910 H   0  0  0  0  0  0  0  0  0  0  0  0
   -3.1953    1.1837    4.4181 H   0  0  0  0  0  0  0  0  0  0  0  0
   -2.5332   -0.1699    2.5251 H   0  0  0  0  0  0  0  0  0  0  0  0
    0.4470    0.2179    3.0503 H   0  0  0  0  0  0  0  0  0  0  0  0
   -0.3787   -1.0245    2.0917 H   0  0  0  0  0  0  0  0  0  0  0  0
  1 10  1  0  0  0  0
  2  1  1  6  0  0  0
  2  5  1  0  0  0  0
  2  9  1  0  0  0  0
  3  2  1  0  0  0  0
  3  4  1  0  0  0  0
  4  6  1  1  0  0  0
  4  8  1  0  0  0  0
  5  4  1  0  0  0  0
  5 14  1  0  0  0  0
  6  7  1  0  0  0  0
  7 15  1  0  0  0  0
  7 16  1  0  0  0  0
  8 17  1  6  0  0  0
  8  7  1  0  0  0  0
  9  8  1  0  0  0  0
  9 18  1  0  0  0  0
 11  3  1  0  0  0  0
 12  3  1  0  0  0  0
 13  5  1  0  0  0  0
 19  9  1  0  0  0  0
M TOR 0 0 1 2 3
M TOR 1 0 1 2 10
M TOR 2 0 1 2 11
M TOR 3 0 1 4 3
M TOR 4 0 1 4 12
M TOR 5 0 1 4 13
M TOR 6 0 1 8 7
M TOR 7 0 1 8 17
M TOR 8 0 1 8 18
M TOR 9 1 2 3 4
M TOR 10 1 2 3 5
M TOR 11 1 2 3 7
M TOR 12 1 4 3 5
M TOR 13 1 4 3 7
M TOR 14 1 8 7 3
M TOR 15 1 8 7 6
M TOR 16 1 8 7 16
M TOR 17 2 1 0 9
M TOR 18 2 1 4 12
M TOR 19 2 1 4 13
M TOR 20 2 1 8 7
M TOR 21 2 1 8 17
M TOR 22 2 1 8 18
M TOR 23 2 3 4 12
M TOR 24 2 3 4 13
M TOR 25 2 3 5 6
M TOR 26 2 3 7 6
M TOR 27 2 3 7 8
M TOR 28 2 3 7 16
M TOR 29 3 2 1 8
M TOR 30 3 4 1 8
M TOR 31 3 5 6 7
M TOR 32 3 5 6 14
M TOR 33 3 5 6 15
M TOR 34 3 7 6 14
M TOR 35 3 7 6 15
M TOR 36 3 7 8 17
M TOR 37 3 7 8 18
M TOR 38 4 1 0 9
M TOR 39 4 1 2 10
M TOR 40 4 1 2 11
M TOR 41 4 1 8 7
M TOR 42 4 1 8 17
M TOR 43 4 1 8 18
M TOR 44 4 3 2 10
M TOR 45 4 3 2 11
M TOR 46 4 3 5 6
M TOR 47 4 3 7 6
M TOR 48 4 3 7 8
M TOR 49 4 3 7 16
M TOR 50 5 3 2 10
M TOR 51 5 3 2 11
M TOR 52 5 3 4 12
M TOR 53 5 3 4 13
M TOR 54 5 3 7 8
M TOR 55 5 3 7 16
M TOR 56 5 6 7 8
M TOR 57 5 6 7 16
M TOR 58 6 7 8 17
M TOR 59 6 7 8 18
M TOR 60 7 3 2 10
M TOR 61 7 3 2 11
M TOR 62 7 3 4 12
M TOR 63 7 3 4 13
M TOR 64 8 1 0 9
M TOR 65 8 1 2 10
M TOR 66 8 1 2 11
M TOR 67 8 1 4 12
M TOR 68 8 1 4 13
M TOR 69 8 7 6 14
M TOR 70 8 7 6 15
M  END
$$$$
