gdb 5378	2.6054914	1.4653924	1.0869406	2.4784	77.01	-0.24203	-0.00154	0.24048999999999998	1149.5434	0.156155	-422.55256	-422.543701	-422.542757	-422.585987	33.245
 OpenBabel02181911423D

 19 20  0  0  1  0  0  0  0  0999 V2000
    2.6876   -0.3290   -0.8330 C   0  0  0  0  0  0  0  0  0  0  0  0
    2.2782   -0.7234    0.5576 C   0  0  1  0  0  0  0  0  0  0  0  0
    2.5901   -2.0883    0.9485 O   0  0  0  0  0  0  0  0  0  0  0  0
    3.1912   -1.0165    1.6797 C   0  0  2  0  0  0  0  0  0  0  0  0
    2.4851   -0.6850    2.9883 C   0  0  0  0  0  0  0  0  0  0  0  0
    1.1076   -0.2633    2.5236 C   0  0  0  0  0  0  0  0  0  0  0  0
    0.9878   -0.2592    1.1908 C   0  0  0  0  0  0  0  0  0  0  0  0
   -0.2281    0.1264    0.4053 C   0  0  0  0  0  0  0  0  0  0  0  0
   -0.0167    1.3005   -0.3813 O   0  0  0  0  0  0  0  0  0  0  0  0
    3.6879   -0.7097   -1.0535 H   0  0  0  0  0  0  0  0  0  0  0  0
    1.9945   -0.7415   -1.5735 H   0  0  0  0  0  0  0  0  0  0  0  0
    2.6763    0.7576   -0.9501 H   0  0  0  0  0  0  0  0  0  0  0  0
    4.2732   -0.9453    1.5974 H   0  0  0  0  0  0  0  0  0  0  0  0
    2.4495   -1.5501    3.6618 H   0  0  0  0  0  0  0  0  0  0  0  0
    3.0009    0.1192    3.5293 H   0  0  0  0  0  0  0  0  0  0  0  0
    0.3022   -0.0391    3.2161 H   0  0  0  0  0  0  0  0  0  0  0  0
   -0.4915   -0.6554   -0.3160 H   0  0  0  0  0  0  0  0  0  0  0  0
   -1.0851    0.2504    1.0837 H   0  0  0  0  0  0  0  0  0  0  0  0
    0.2399    2.0023    0.2265 H   0  0  0  0  0  0  0  0  0  0  0  0
  2  1  1  6  0  0  0
  2  3  1  0  0  0  0
  2  7  1  0  0  0  0
  2  4  1  0  0  0  0
  3  4  1  0  0  0  0
  4 13  1  6  0  0  0
  4  5  1  0  0  0  0
  5 15  1  0  0  0  0
  5 14  1  0  0  0  0
  6  5  1  0  0  0  0
  6 16  1  0  0  0  0
  7  6  2  0  0  0  0
  8 18  1  0  0  0  0
  8  7  1  0  0  0  0
  9 19  1  0  0  0  0
  9  8  1  0  0  0  0
 10  1  1  0  0  0  0
 11  1  1  0  0  0  0
 12  1  1  0  0  0  0
 17  8  1  0  0  0  0
M TOR 0 0 1 2 3
M TOR 1 0 1 3 4
M TOR 2 0 1 3 12
M TOR 3 0 1 6 5
M TOR 4 0 1 6 7
M TOR 5 1 2 3 4
M TOR 6 1 2 3 12
M TOR 7 1 3 4 5
M TOR 8 1 3 4 13
M TOR 9 1 3 4 14
M TOR 10 1 6 5 4
M TOR 11 1 6 5 15
M TOR 12 1 6 7 8
M TOR 13 1 6 7 16
M TOR 14 1 6 7 17
M TOR 15 2 1 0 9
M TOR 16 2 1 0 10
M TOR 17 2 1 0 11
M TOR 18 2 1 6 5
M TOR 19 2 1 6 7
M TOR 20 2 3 1 6
M TOR 21 2 3 4 5
M TOR 22 2 3 4 13
M TOR 23 2 3 4 14
M TOR 24 3 1 0 9
M TOR 25 3 1 0 10
M TOR 26 3 1 0 11
M TOR 27 3 1 6 5
M TOR 28 3 1 6 7
M TOR 29 3 4 5 6
M TOR 30 3 4 5 15
M TOR 31 4 3 1 6
M TOR 32 4 5 6 7
M TOR 33 5 4 3 12
M TOR 34 5 6 7 8
M TOR 35 5 6 7 16
M TOR 36 5 6 7 17
M TOR 37 6 1 0 9
M TOR 38 6 1 0 10
M TOR 39 6 1 0 11
M TOR 40 6 1 3 12
M TOR 41 6 5 4 13
M TOR 42 6 5 4 14
M TOR 43 6 7 8 18
M TOR 44 7 6 5 15
M  END
$$$$
