gdb 5377	2.3034593	1.3924348	0.9519157	2.4328	77.36	-0.22962	0.01398	0.24359999999999998	1244.2483	0.156785	-422.550933	-422.54206	-422.541116	-422.584515	33.292
 OpenBabel02181911423D

 19 20  0  0  1  0  0  0  0  0999 V2000
    1.8000    0.2566   -0.0781 O   0  0  0  0  0  0  0  0  0  0  0  0
    0.4244    0.6187    0.0088 C   0  0  0  0  0  0  0  0  0  0  0  0
   -0.3363    0.3188   -1.2475 C   0  0  0  0  0  0  0  0  0  0  0  0
   -1.3546   -0.5348   -1.4020 C   0  0  0  0  0  0  0  0  0  0  0  0
   -1.8855   -0.5687   -2.8200 C   0  0  0  0  0  0  0  0  0  0  0  0
   -0.9257    0.3479   -3.5777 C   0  0  2  0  0  0  0  0  0  0  0  0
    0.5395   -0.0020   -3.6058 C   0  0  1  0  0  0  0  0  0  0  0  0
    1.3340    0.5726   -4.6017 O   0  0  0  0  0  0  0  0  0  0  0  0
    0.0329    0.9526   -2.5520 C   0  0  2  0  0  0  0  0  0  0  0  0
    2.1680    0.6904   -0.8551 H   0  0  0  0  0  0  0  0  0  0  0  0
    0.0147    0.0491    0.8481 H   0  0  0  0  0  0  0  0  0  0  0  0
    0.3214    1.6889    0.2586 H   0  0  0  0  0  0  0  0  0  0  0  0
   -1.7634   -1.1557   -0.6121 H   0  0  0  0  0  0  0  0  0  0  0  0
   -1.9004   -1.5879   -3.2291 H   0  0  0  0  0  0  0  0  0  0  0  0
   -2.9201   -0.2028   -2.8725 H   0  0  0  0  0  0  0  0  0  0  0  0
   -1.2876    0.9560   -4.3986 H   0  0  0  0  0  0  0  0  0  0  0  0
    0.8493   -0.9934   -3.2713 H   0  0  0  0  0  0  0  0  0  0  0  0
    1.1172    0.1483   -5.4389 H   0  0  0  0  0  0  0  0  0  0  0  0
    0.3622    1.9855   -2.6077 H   0  0  0  0  0  0  0  0  0  0  0  0
  1  2  1  0  0  0  0
  2 12  1  0  0  0  0
  2 11  1  0  0  0  0
  3  2  1  0  0  0  0
  4  3  2  0  0  0  0
  4 13  1  0  0  0  0
  5  4  1  0  0  0  0
  6 16  1  6  0  0  0
  6  5  1  0  0  0  0
  6  9  1  0  0  0  0
  7  6  1  0  0  0  0
  7 17  1  1  0  0  0
  7  9  1  0  0  0  0
  8  7  1  0  0  0  0
  9 19  1  6  0  0  0
  9  3  1  0  0  0  0
 10  1  1  0  0  0  0
 14  5  1  0  0  0  0
 15  5  1  0  0  0  0
 18  8  1  0  0  0  0
M TOR 0 0 1 2 3
M TOR 1 0 1 2 8
M TOR 2 1 2 3 4
M TOR 3 1 2 3 12
M TOR 4 1 2 8 5
M TOR 5 1 2 8 6
M TOR 6 1 2 8 18
M TOR 7 2 1 0 9
M TOR 8 2 3 4 5
M TOR 9 2 3 4 13
M TOR 10 2 3 4 14
M TOR 11 2 8 5 4
M TOR 12 2 8 5 6
M TOR 13 2 8 5 15
M TOR 14 2 8 6 7
M TOR 15 2 8 6 16
M TOR 16 3 2 1 10
M TOR 17 3 2 1 11
M TOR 18 3 2 8 5
M TOR 19 3 2 8 6
M TOR 20 3 2 8 18
M TOR 21 3 4 5 6
M TOR 22 3 4 5 8
M TOR 23 3 4 5 15
M TOR 24 4 3 2 8
M TOR 25 4 5 6 7
M TOR 26 4 5 6 8
M TOR 27 4 5 6 16
M TOR 28 4 5 8 18
M TOR 29 5 4 3 12
M TOR 30 5 6 7 17
M TOR 31 5 6 8 18
M TOR 32 5 8 6 7
M TOR 33 5 8 6 16
M TOR 34 6 5 4 13
M TOR 35 6 5 4 14
M TOR 36 6 8 5 15
M TOR 37 7 6 5 15
M TOR 38 7 6 8 18
M TOR 39 8 2 1 10
M TOR 40 8 2 1 11
M TOR 41 8 2 3 12
M TOR 42 8 5 4 13
M TOR 43 8 5 4 14
M TOR 44 8 6 7 17
M  END
$$$$
