gdb 5081	2.7197253	1.2324187	1.1676044	2.2306	75.91	-0.24684	0.00089	0.24773	1178.1698	0.156154	-422.548834	-422.540019	-422.539075	-422.58236	33.108
 OpenBabel02181911423D

 19 20  0  0  1  0  0  0  0  0999 V2000
    1.4776    1.1797    0.1293 C   0  0  0  0  0  0  0  0  0  0  0  0
    1.1522   -0.3173    0.0305 C   0  0  1  0  0  0  0  0  0  0  0  0
    1.7709   -0.9826   -1.1878 C   0  0  0  0  0  0  0  0  0  0  0  0
    2.6514   -1.9324   -0.8648 C   0  0  0  0  0  0  0  0  0  0  0  0
    2.7056   -2.1100    0.6207 C   0  0  2  0  0  0  0  0  0  0  0  0
    3.9237   -2.6550    1.3212 C   0  0  0  0  0  0  0  0  0  0  0  0
    5.1092   -1.9808    0.9302 O   0  0  0  0  0  0  0  0  0  0  0  0
    1.4312   -2.5111    1.1821 O   0  0  0  0  0  0  0  0  0  0  0  0
    1.7577   -1.1214    1.1808 C   0  0  2  0  0  0  0  0  0  0  0  0
    1.0317    1.6201    1.0277 H   0  0  0  0  0  0  0  0  0  0  0  0
    2.5599    1.3426    0.1690 H   0  0  0  0  0  0  0  0  0  0  0  0
    1.0918    1.7227   -0.7387 H   0  0  0  0  0  0  0  0  0  0  0  0
    0.0617   -0.4465    0.0234 H   0  0  0  0  0  0  0  0  0  0  0  0
    1.4892   -0.7013   -2.1970 H   0  0  0  0  0  0  0  0  0  0  0  0
    3.2359   -2.5308   -1.5522 H   0  0  0  0  0  0  0  0  0  0  0  0
    3.7578   -2.6259    2.4078 H   0  0  0  0  0  0  0  0  0  0  0  0
    4.0743   -3.7038    1.0420 H   0  0  0  0  0  0  0  0  0  0  0  0
    4.9993   -1.0482    1.1434 H   0  0  0  0  0  0  0  0  0  0  0  0
    1.8751   -0.6682    2.1642 H   0  0  0  0  0  0  0  0  0  0  0  0
  1 11  1  0  0  0  0
  1 10  1  0  0  0  0
  2 13  1  6  0  0  0
  2  1  1  0  0  0  0
  2  9  1  0  0  0  0
  3  4  2  0  0  0  0
  3  2  1  0  0  0  0
  4  5  1  0  0  0  0
  5  9  1  0  0  0  0
  5  8  1  0  0  0  0
  5  6  1  1  0  0  0
  6 16  1  0  0  0  0
  7 18  1  0  0  0  0
  7  6  1  0  0  0  0
  9  8  1  0  0  0  0
  9 19  1  1  0  0  0
 12  1  1  0  0  0  0
 14  3  1  0  0  0  0
 15  4  1  0  0  0  0
 17  6  1  0  0  0  0
M TOR 0 0 1 2 3
M TOR 1 0 1 2 13
M TOR 2 0 1 8 4
M TOR 3 0 1 8 7
M TOR 4 0 1 8 18
M TOR 5 1 2 3 4
M TOR 6 1 2 3 14
M TOR 7 1 8 4 3
M TOR 8 1 8 4 5
M TOR 9 1 8 4 7
M TOR 10 2 1 0 9
M TOR 11 2 1 0 10
M TOR 12 2 1 0 11
M TOR 13 2 1 8 4
M TOR 14 2 1 8 7
M TOR 15 2 1 8 18
M TOR 16 2 3 4 5
M TOR 17 2 3 4 7
M TOR 18 2 3 4 8
M TOR 19 3 2 1 8
M TOR 20 3 2 1 12
M TOR 21 3 4 5 6
M TOR 22 3 4 5 15
M TOR 23 3 4 5 16
M TOR 24 3 4 7 8
M TOR 25 3 4 8 18
M TOR 26 4 3 2 13
M TOR 27 4 5 6 17
M TOR 28 4 7 8 18
M TOR 29 4 8 1 12
M TOR 30 5 4 3 14
M TOR 31 5 4 7 8
M TOR 32 5 4 8 18
M TOR 33 6 5 4 7
M TOR 34 6 5 4 8
M TOR 35 7 4 3 14
M TOR 36 7 4 5 15
M TOR 37 7 4 5 16
M TOR 38 7 8 1 12
M TOR 39 8 1 0 9
M TOR 40 8 1 0 10
M TOR 41 8 1 0 11
M TOR 42 8 1 2 13
M TOR 43 8 4 3 14
M TOR 44 8 4 5 15
M TOR 45 8 4 5 16
M  END
$$$$
