gdb 5207	3.6916477	1.1162074	1.0382914	2.0366	74.82	-0.24509	0.06186	0.30695	1202.7198	0.156942	-422.506021	-422.497619	-422.496675	-422.539013	32.304
 OpenBabel02181911423D

 19 21  0  0  1  0  0  0  0  0999 V2000
    0.5848    1.1537    0.1301 O   0  0  0  0  0  0  0  0  0  0  0  0
    0.2275   -0.1421    0.5972 C   0  0  0  0  0  0  0  0  0  0  0  0
   -1.0698   -0.1701    1.3474 C   0  0  2  0  0  0  0  0  0  0  0  0
   -1.3189    0.2734    2.7965 C   0  0  0  0  0  0  0  0  0  0  0  0
   -2.6612   -0.4898    2.6866 C   0  0  2  0  0  0  0  0  0  0  0  0
   -2.0481   -1.3162    1.4772 C   0  0  1  0  0  0  0  0  0  0  0  0
   -2.4207   -0.1151    0.6231 C   0  0  1  0  0  0  0  0  0  0  0  0
   -3.4726    0.3286    1.6389 C   0  0  1  0  0  0  0  0  0  0  0  0
   -4.7689   -0.1607    1.3796 O   0  0  0  0  0  0  0  0  0  0  0  0
    0.6685    1.7282    0.8978 H   0  0  0  0  0  0  0  0  0  0  0  0
    0.1540   -0.7684   -0.2991 H   0  0  0  0  0  0  0  0  0  0  0  0
    1.0265   -0.5685    1.2257 H   0  0  0  0  0  0  0  0  0  0  0  0
   -0.6169   -0.2147    3.4803 H   0  0  0  0  0  0  0  0  0  0  0  0
   -1.3714    1.3448    3.0284 H   0  0  0  0  0  0  0  0  0  0  0  0
   -3.1685   -0.8942    3.5603 H   0  0  0  0  0  0  0  0  0  0  0  0
   -1.9401   -2.3682    1.2547 H   0  0  0  0  0  0  0  0  0  0  0  0
   -2.4680   -0.0430   -0.4567 H   0  0  0  0  0  0  0  0  0  0  0  0
   -3.5958    1.3987    1.8375 H   0  0  0  0  0  0  0  0  0  0  0  0
   -4.6792   -1.0753    1.0851 H   0  0  0  0  0  0  0  0  0  0  0  0
  1  2  1  0  0  0  0
  1 10  1  0  0  0  0
  2 12  1  0  0  0  0
  3  2  1  6  0  0  0
  3  6  1  0  0  0  0
  3  4  1  0  0  0  0
  4 14  1  0  0  0  0
  4 13  1  0  0  0  0
  5  4  1  0  0  0  0
  5 15  1  1  0  0  0
  6 16  1  6  0  0  0
  6  5  1  0  0  0  0
  7 17  1  6  0  0  0
  7  3  1  0  0  0  0
  7  6  1  0  0  0  0
  7  8  1  0  0  0  0
  8 18  1  1  0  0  0
  8  5  1  0  0  0  0
  9  8  1  0  0  0  0
 11  2  1  0  0  0  0
 19  9  1  0  0  0  0
M TOR 0 0 1 2 3
M TOR 1 0 1 2 5
M TOR 2 0 1 2 6
M TOR 3 1 2 3 4
M TOR 4 1 2 3 12
M TOR 5 1 2 3 13
M TOR 6 1 2 5 4
M TOR 7 1 2 5 6
M TOR 8 1 2 5 15
M TOR 9 1 2 6 7
M TOR 10 1 2 6 16
M TOR 11 2 1 0 9
M TOR 12 2 3 4 5
M TOR 13 2 3 4 7
M TOR 14 2 3 4 14
M TOR 15 2 5 4 7
M TOR 16 2 5 4 14
M TOR 17 2 5 6 7
M TOR 18 2 5 6 16
M TOR 19 2 6 5 4
M TOR 20 2 6 5 15
M TOR 21 2 6 7 4
M TOR 22 2 6 7 8
M TOR 23 2 6 7 17
M TOR 24 3 2 1 10
M TOR 25 3 2 1 11
M TOR 26 3 2 5 6
M TOR 27 3 2 5 15
M TOR 28 3 2 6 7
M TOR 29 3 2 6 16
M TOR 30 3 4 5 6
M TOR 31 3 4 5 15
M TOR 32 3 4 7 6
M TOR 33 3 4 7 8
M TOR 34 3 4 7 17
M TOR 35 4 3 2 6
M TOR 36 4 5 6 7
M TOR 37 4 5 6 16
M TOR 38 4 7 6 16
M TOR 39 4 7 8 18
M TOR 40 5 2 1 10
M TOR 41 5 2 1 11
M TOR 42 5 2 3 12
M TOR 43 5 2 3 13
M TOR 44 5 4 3 12
M TOR 45 5 4 3 13
M TOR 46 5 4 7 8
M TOR 47 5 4 7 17
M TOR 48 5 6 7 8
M TOR 49 5 6 7 17
M TOR 50 6 2 1 10
M TOR 51 6 2 1 11
M TOR 52 6 2 3 12
M TOR 53 6 2 3 13
M TOR 54 6 5 4 14
M TOR 55 6 7 4 14
M TOR 56 6 7 8 18
M TOR 57 7 4 3 12
M TOR 58 7 4 3 13
M TOR 59 7 4 5 15
M TOR 60 7 6 5 15
M TOR 61 8 7 4 14
M TOR 62 8 7 6 16
M  END
$$$$
