gdb 2233	2.3654129	2.1590999	1.6824249	1.1294	73.	-0.22855	0.0639	0.29245	896.9723	0.159655	-422.560495	-422.553481	-422.552537	-422.591375	29.017
 OpenBabel02181911413D

 19 21  0  0  1  0  0  0  0  0999 V2000
    0.1510    0.1914    0.8648 O   0  0  0  0  0  0  0  0  0  0  0  0
   -0.7226    1.2589    0.6822 C   0  0  2  0  0  0  0  0  0  0  0  0
   -2.0182    1.0375   -0.1102 C   0  0  0  0  0  0  0  0  0  0  0  0
   -2.4413    2.3730    0.5641 C   0  0  2  0  0  0  0  0  0  0  0  0
   -1.4748    3.3682   -0.1114 C   0  0  0  0  0  0  0  0  0  0  0  0
   -0.1410    2.6528    0.2600 C   0  0  1  0  0  0  0  0  0  0  0  0
    0.2924    3.2110    1.6188 C   0  0  0  0  0  0  0  0  0  0  0  0
   -0.8173    2.8984    2.4790 O   0  0  0  0  0  0  0  0  0  0  0  0
   -1.5774    1.9146    1.7986 C   0  0  2  0  0  0  0  0  0  0  0  0
    0.8687    0.4695    1.4439 H   0  0  0  0  0  0  0  0  0  0  0  0
   -1.9685    1.0115   -1.2013 H   0  0  0  0  0  0  0  0  0  0  0  0
   -2.5663    0.1698    0.2643 H   0  0  0  0  0  0  0  0  0  0  0  0
   -3.4878    2.6553    0.6616 H   0  0  0  0  0  0  0  0  0  0  0  0
   -1.6439    3.4260   -1.1901 H   0  0  0  0  0  0  0  0  0  0  0  0
   -1.5298    4.3791    0.3017 H   0  0  0  0  0  0  0  0  0  0  0  0
    0.6354    2.6358   -0.5055 H   0  0  0  0  0  0  0  0  0  0  0  0
    1.2151    2.7414    2.0014 H   0  0  0  0  0  0  0  0  0  0  0  0
    0.4463    4.2951    1.6131 H   0  0  0  0  0  0  0  0  0  0  0  0
   -2.0772    1.2557    2.5081 H   0  0  0  0  0  0  0  0  0  0  0  0
  1 10  1  0  0  0  0
  2  1  1  1  0  0  0
  2  9  1  0  0  0  0
  3 12  1  0  0  0  0
  3  4  1  0  0  0  0
  3  2  1  0  0  0  0
  4 13  1  1  0  0  0
  4  9  1  0  0  0  0
  5  6  1  0  0  0  0
  5 15  1  0  0  0  0
  5  4  1  0  0  0  0
  6 16  1  6  0  0  0
  6  2  1  0  0  0  0
  6  7  1  0  0  0  0
  7 17  1  0  0  0  0
  7  8  1  0  0  0  0
  9  8  1  0  0  0  0
  9 19  1  1  0  0  0
 11  3  1  0  0  0  0
 14  5  1  0  0  0  0
 18  7  1  0  0  0  0
M TOR 0 0 1 2 3
M TOR 1 0 1 2 10
M TOR 2 0 1 2 11
M TOR 3 0 1 5 4
M TOR 4 0 1 5 6
M TOR 5 0 1 5 15
M TOR 6 0 1 8 3
M TOR 7 0 1 8 7
M TOR 8 0 1 8 18
M TOR 9 1 2 3 4
M TOR 10 1 2 3 8
M TOR 11 1 2 3 12
M TOR 12 1 5 4 3
M TOR 13 1 5 4 13
M TOR 14 1 5 4 14
M TOR 15 1 5 6 7
M TOR 16 1 5 6 16
M TOR 17 1 5 6 17
M TOR 18 1 8 3 4
M TOR 19 1 8 3 12
M TOR 20 1 8 7 6
M TOR 21 2 1 0 9
M TOR 22 2 1 5 4
M TOR 23 2 1 5 6
M TOR 24 2 1 5 15
M TOR 25 2 1 8 7
M TOR 26 2 1 8 18
M TOR 27 2 3 4 5
M TOR 28 2 3 4 13
M TOR 29 2 3 4 14
M TOR 30 2 3 8 7
M TOR 31 2 3 8 18
M TOR 32 3 2 1 5
M TOR 33 3 4 5 6
M TOR 34 3 4 5 15
M TOR 35 3 8 1 5
M TOR 36 3 8 7 6
M TOR 37 4 3 2 10
M TOR 38 4 3 2 11
M TOR 39 4 3 8 7
M TOR 40 4 3 8 18
M TOR 41 4 5 1 8
M TOR 42 4 5 6 7
M TOR 43 4 5 6 16
M TOR 44 4 5 6 17
M TOR 45 5 1 0 9
M TOR 46 5 1 2 10
M TOR 47 5 1 2 11
M TOR 48 5 1 8 7
M TOR 49 5 1 8 18
M TOR 50 5 4 3 8
M TOR 51 5 4 3 12
M TOR 52 5 6 7 8
M TOR 53 6 5 1 8
M TOR 54 6 5 4 13
M TOR 55 6 5 4 14
M TOR 56 6 7 8 18
M TOR 57 7 6 5 15
M TOR 58 7 8 3 12
M TOR 59 8 1 0 9
M TOR 60 8 1 2 10
M TOR 61 8 1 2 11
M TOR 62 8 1 5 15
M TOR 63 8 3 2 10
M TOR 64 8 3 2 11
M TOR 65 8 3 4 13
M TOR 66 8 3 4 14
M TOR 67 8 7 6 16
M TOR 68 8 7 6 17
M  END
$$$$
