gdb 4056	2.6892811	1.8593772	1.3444584	1.6594	73.99	-0.23551	0.07342	0.30893	992.9678	0.156377	-422.504693	-422.496852	-422.495907	-422.536501	31.062
 OpenBabel02181911413D

 19 21  0  0  1  0  0  0  0  0999 V2000
    0.4688    0.6376    0.2959 C   0  0  0  0  0  0  0  0  0  0  0  0
    0.8092   -0.7001   -0.3430 C   0  0  1  0  0  0  0  0  0  0  0  0
    2.1142   -0.6313   -0.9776 O   0  0  0  0  0  0  0  0  0  0  0  0
    2.8160   -1.6791   -0.3700 C   0  0  2  0  0  0  0  0  0  0  0  0
    1.9047   -2.9161   -0.1373 C   0  0  1  0  0  0  0  0  0  0  0  0
    2.6245   -3.2477    1.0950 O   0  0  0  0  0  0  0  0  0  0  0  0
    2.4796   -1.7897    1.1443 C   0  0  2  0  0  0  0  0  0  0  0  0
    1.0018   -1.8753    0.6158 C   0  0  1  0  0  0  0  0  0  0  0  0
   -0.1179   -2.3371    1.5115 C   0  0  0  0  0  0  0  0  0  0  0  0
    1.1728    0.8807    1.0980 H   0  0  0  0  0  0  0  0  0  0  0  0
    0.5172    1.4330   -0.4528 H   0  0  0  0  0  0  0  0  0  0  0  0
   -0.5432    0.6226    0.7131 H   0  0  0  0  0  0  0  0  0  0  0  0
    0.0657   -0.9430   -1.1156 H   0  0  0  0  0  0  0  0  0  0  0  0
    3.8341   -1.7779   -0.7393 H   0  0  0  0  0  0  0  0  0  0  0  0
    1.6187   -3.7311   -0.8030 H   0  0  0  0  0  0  0  0  0  0  0  0
    2.8852   -1.2631    2.0084 H   0  0  0  0  0  0  0  0  0  0  0  0
   -0.4319   -1.5475    2.2022 H   0  0  0  0  0  0  0  0  0  0  0  0
   -0.9956   -2.6373    0.9282 H   0  0  0  0  0  0  0  0  0  0  0  0
    0.2165   -3.1960    2.0999 H   0  0  0  0  0  0  0  0  0  0  0  0
  1 12  1  0  0  0  0
  1 10  1  0  0  0  0
  2 13  1  6  0  0  0
  2  1  1  0  0  0  0
  2  8  1  0  0  0  0
  3  4  1  0  0  0  0
  3  2  1  0  0  0  0
  4 14  1  6  0  0  0
  4  5  1  0  0  0  0
  4  7  1  0  0  0  0
  5 15  1  6  0  0  0
  5  8  1  0  0  0  0
  5  6  1  0  0  0  0
  6  7  1  0  0  0  0
  7 16  1  1  0  0  0
  8  7  1  0  0  0  0
  8  9  1  1  0  0  0
  9 19  1  0  0  0  0
  9 17  1  0  0  0  0
 11  1  1  0  0  0  0
 18  9  1  0  0  0  0
M TOR 0 0 1 2 3
M TOR 1 0 1 7 4
M TOR 2 0 1 7 6
M TOR 3 0 1 7 8
M TOR 4 1 2 3 4
M TOR 5 1 2 3 6
M TOR 6 1 2 3 13
M TOR 7 1 7 4 3
M TOR 8 1 7 4 5
M TOR 9 1 7 4 14
M TOR 10 1 7 6 3
M TOR 11 1 7 6 5
M TOR 12 1 7 6 15
M TOR 13 1 7 8 16
M TOR 14 1 7 8 17
M TOR 15 1 7 8 18
M TOR 16 2 1 0 9
M TOR 17 2 1 0 10
M TOR 18 2 1 0 11
M TOR 19 2 1 7 4
M TOR 20 2 1 7 6
M TOR 21 2 1 7 8
M TOR 22 2 3 4 5
M TOR 23 2 3 4 7
M TOR 24 2 3 4 14
M TOR 25 2 3 6 5
M TOR 26 2 3 6 7
M TOR 27 2 3 6 15
M TOR 28 3 2 1 7
M TOR 29 3 2 1 12
M TOR 30 3 4 5 6
M TOR 31 3 4 7 6
M TOR 32 3 4 7 8
M TOR 33 3 6 7 8
M TOR 34 4 3 6 15
M TOR 35 4 5 6 7
M TOR 36 4 5 6 15
M TOR 37 4 7 1 12
M TOR 38 4 7 6 15
M TOR 39 4 7 8 16
M TOR 40 4 7 8 17
M TOR 41 4 7 8 18
M TOR 42 5 4 3 13
M TOR 43 5 4 7 8
M TOR 44 5 6 3 13
M TOR 45 5 6 7 8
M TOR 46 6 3 4 14
M TOR 47 6 5 4 14
M TOR 48 6 7 1 12
M TOR 49 6 7 4 14
M TOR 50 6 7 8 16
M TOR 51 6 7 8 17
M TOR 52 6 7 8 18
M TOR 53 7 1 0 9
M TOR 54 7 1 0 10
M TOR 55 7 1 0 11
M TOR 56 7 4 3 13
M TOR 57 7 6 3 13
M TOR 58 8 7 1 12
M TOR 59 8 7 4 14
M TOR 60 8 7 6 15
M  END
$$$$
