
     RDKit          3D

 19 21  0  0  0  0  0  0  0  0999 V2000
    0.3837    0.1234    0.3339 O   0  0  0  0  0  0  0  0  0  0  0  0
   -0.6197    1.0487    0.6111 C   0  0  0  0  0  0  0  0  0  0  0  0
   -0.7929    1.7054    1.9900 C   0  0  0  0  0  0  0  0  0  0  0  0
   -2.2429    2.0200    1.5200 C   0  0  0  0  0  0  0  0  0  0  0  0
   -2.3179    3.2680    0.8482 O   0  0  0  0  0  0  0  0  0  0  0  0
   -1.2301    3.4143   -0.0688 C   0  0  0  0  0  0  0  0  0  0  0  0
   -0.8448    2.0363   -0.5993 C   0  0  0  0  0  0  0  0  0  0  0  0
   -2.1537    1.2723   -0.9576 C   0  0  0  0  0  0  0  0  0  0  0  0
   -2.1667    0.8067    0.5033 C   0  0  0  0  0  0  0  0  0  0  0  0
    0.3862   -0.5383    1.0344 H   0  0  0  0  0  0  0  0  0  0  0  0
   -0.7981    0.9404    2.7754 H   0  0  0  0  0  0  0  0  0  0  0  0
   -0.1559    2.5380    2.3024 H   0  0  0  0  0  0  0  0  0  0  0  0
   -3.0431    2.0097    2.2595 H   0  0  0  0  0  0  0  0  0  0  0  0
   -1.5805    4.0701   -0.8730 H   0  0  0  0  0  0  0  0  0  0  0  0
   -0.3753    3.9051    0.4198 H   0  0  0  0  0  0  0  0  0  0  0  0
   -0.0347    2.0764   -1.3294 H   0  0  0  0  0  0  0  0  0  0  0  0
   -2.9938    1.8712   -1.3194 H   0  0  0  0  0  0  0  0  0  0  0  0
   -1.9721    0.4368   -1.6376 H   0  0  0  0  0  0  0  0  0  0  0  0
   -2.6708   -0.1069    0.8254 H   0  0  0  0  0  0  0  0  0  0  0  0
  1  2  1  0
  2  3  1  0
  3  4  1  0
  4  5  1  0
  5  6  1  0
  6  7  1  0
  7  8  1  0
  8  9  1  0
  7  2  1  0
  9  2  1  0
  9  4  1  0
  1 10  1  0
  3 11  1  0
  3 12  1  0
  4 13  1  0
  6 14  1  0
  6 15  1  0
  7 16  1  0
  8 17  1  0
  8 18  1  0
  9 19  1  0
M  END
$$$$
