gdb 3064	2.5696031	1.5654854	1.2257564	1.808	74.81	-0.23562	-0.01029	0.22533	1064.1535	0.158547	-422.579958	-422.572057	-422.571112	-422.612233	30.923
 OpenBabel02181911413D

 19 20  0  0  1  0  0  0  0  0999 V2000
   -2.7508   -2.4491    1.2648 O   0  0  0  0  0  0  0  0  0  0  0  0
   -2.0989   -1.2123    1.0832 C   0  0  2  0  0  0  0  0  0  0  0  0
   -2.8198   -0.3997   -0.0149 C   0  0  2  0  0  0  0  0  0  0  0  0
   -1.9288   -1.1407   -1.0527 C   0  0  0  0  0  0  0  0  0  0  0  0
   -0.8800   -1.2908    0.0913 C   0  0  1  0  0  0  0  0  0  0  0  0
   -0.0859   -0.0135    0.2644 C   0  0  0  0  0  0  0  0  0  0  0  0
    1.0702    0.0074    0.6151 O   0  0  0  0  0  0  0  0  0  0  0  0
   -0.8830    1.2621   -0.0313 C   0  0  0  0  0  0  0  0  0  0  0  0
   -2.4186    1.0791    0.0897 C   0  0  0  0  0  0  0  0  0  0  0  0
   -2.1774   -3.0171    1.7902 H   0  0  0  0  0  0  0  0  0  0  0  0
   -1.9222   -0.7121    2.0464 H   0  0  0  0  0  0  0  0  0  0  0  0
   -3.9026   -0.5299   -0.0696 H   0  0  0  0  0  0  0  0  0  0  0  0
   -2.3467   -2.1112   -1.3189 H   0  0  0  0  0  0  0  0  0  0  0  0
   -1.6306   -0.6070   -1.9587 H   0  0  0  0  0  0  0  0  0  0  0  0
   -0.2302   -2.1661    0.1409 H   0  0  0  0  0  0  0  0  0  0  0  0
   -0.5001    2.0640    0.6038 H   0  0  0  0  0  0  0  0  0  0  0  0
   -0.6185    1.5416   -1.0592 H   0  0  0  0  0  0  0  0  0  0  0  0
   -2.7700    1.4767    1.0487 H   0  0  0  0  0  0  0  0  0  0  0  0
   -2.9237    1.6559   -0.6913 H   0  0  0  0  0  0  0  0  0  0  0  0
  1 10  1  0  0  0  0
  2  1  1  0  0  0  0
  2 11  1  1  0  0  0
  3 12  1  6  0  0  0
  3  9  1  0  0  0  0
  3  2  1  0  0  0  0
  4  3  1  0  0  0  0
  4  5  1  0  0  0  0
  5 15  1  1  0  0  0
  5  6  1  0  0  0  0
  5  2  1  0  0  0  0
  6  7  2  0  0  0  0
  8  9  1  0  0  0  0
  8  6  1  0  0  0  0
  8 16  1  0  0  0  0
  9 18  1  0  0  0  0
 13  4  1  0  0  0  0
 14  4  1  0  0  0  0
 17  8  1  0  0  0  0
 19  9  1  0  0  0  0
M TOR 0 0 1 2 3
M TOR 1 0 1 2 8
M TOR 2 0 1 2 11
M TOR 3 0 1 4 3
M TOR 4 0 1 4 5
M TOR 5 0 1 4 14
M TOR 6 1 2 3 4
M TOR 7 1 2 3 12
M TOR 8 1 2 3 13
M TOR 9 1 2 8 7
M TOR 10 1 2 8 17
M TOR 11 1 2 8 18
M TOR 12 1 4 3 12
M TOR 13 1 4 3 13
M TOR 14 1 4 5 6
M TOR 15 1 4 5 7
M TOR 16 2 1 0 9
M TOR 17 2 1 4 5
M TOR 18 2 1 4 14
M TOR 19 2 3 4 5
M TOR 20 2 3 4 14
M TOR 21 2 8 7 5
M TOR 22 2 8 7 15
M TOR 23 2 8 7 16
M TOR 24 3 2 1 10
M TOR 25 3 2 8 7
M TOR 26 3 2 8 17
M TOR 27 3 2 8 18
M TOR 28 3 4 1 10
M TOR 29 3 4 5 6
M TOR 30 3 4 5 7
M TOR 31 4 1 0 9
M TOR 32 4 1 2 8
M TOR 33 4 1 2 11
M TOR 34 4 3 2 8
M TOR 35 4 3 2 11
M TOR 36 4 5 7 8
M TOR 37 4 5 7 15
M TOR 38 4 5 7 16
M TOR 39 5 4 1 10
M TOR 40 5 4 3 12
M TOR 41 5 4 3 13
M TOR 42 5 7 8 17
M TOR 43 5 7 8 18
M TOR 44 6 5 4 14
M TOR 45 6 5 7 8
M TOR 46 6 5 7 15
M TOR 47 6 5 7 16
M TOR 48 7 5 4 14
M TOR 49 7 8 2 11
M TOR 50 8 2 1 10
M TOR 51 8 2 3 12
M TOR 52 8 2 3 13
M  END
$$$$
