gdb 261	3.4207714	1.6589807	1.429379	2.3032	73.69	-0.23423	0.08022	0.31445	954.0746	0.160047	-422.528404	-422.521536	-422.520592	-422.559693	27.81
 OpenBabel02181911403D

 19 21  0  0  1  0  0  0  0  0999 V2000
    0.5056   -0.9305    0.1852 C   0  0  0  0  0  0  0  0  0  0  0  0
    1.1682   -0.0134    1.2221 C   0  0  2  0  0  0  0  0  0  0  0  0
    0.0580    0.3889    2.0607 O   0  0  0  0  0  0  0  0  0  0  0  0
   -0.9988    0.6740    1.0946 C   0  0  0  0  0  0  0  0  0  0  0  0
   -0.2160    0.4237   -0.1823 C   0  0  2  0  0  0  0  0  0  0  0  0
   -0.4827    0.7974   -1.6193 C   0  0  0  0  0  0  0  0  0  0  0  0
    0.9740    0.9768   -2.1531 C   0  0  0  0  0  0  0  0  0  0  0  0
    1.8718    1.0383   -1.0240 O   0  0  0  0  0  0  0  0  0  0  0  0
    1.1280    1.1233    0.1663 C   0  0  2  0  0  0  0  0  0  0  0  0
    1.1837   -1.2743   -0.5935 H   0  0  0  0  0  0  0  0  0  0  0  0
   -0.1113   -1.7466    0.5672 H   0  0  0  0  0  0  0  0  0  0  0  0
    2.0170   -0.2734    1.8515 H   0  0  0  0  0  0  0  0  0  0  0  0
   -1.8460   -0.0009    1.2616 H   0  0  0  0  0  0  0  0  0  0  0  0
   -1.3362    1.7106    1.2081 H   0  0  0  0  0  0  0  0  0  0  0  0
   -1.0318    0.0432   -2.1891 H   0  0  0  0  0  0  0  0  0  0  0  0
   -1.0397    1.7388   -1.6811 H   0  0  0  0  0  0  0  0  0  0  0  0
    1.2830    0.1314   -2.7775 H   0  0  0  0  0  0  0  0  0  0  0  0
    1.0775    1.8913   -2.7494 H   0  0  0  0  0  0  0  0  0  0  0  0
    1.1118    2.1416    0.5753 H   0  0  0  0  0  0  0  0  0  0  0  0
  1 11  1  0  0  0  0
  1  2  1  0  0  0  0
  2 12  1  1  0  0  0
  2  3  1  0  0  0  0
  4 14  1  0  0  0  0
  4 13  1  0  0  0  0
  4  3  1  0  0  0  0
  5  6  1  6  0  0  0
  5  9  1  0  0  0  0
  5  1  1  0  0  0  0
  5  4  1  0  0  0  0
  7  6  1  0  0  0  0
  7  8  1  0  0  0  0
  8  9  1  0  0  0  0
  9 19  1  1  0  0  0
  9  2  1  0  0  0  0
 10  1  1  0  0  0  0
 15  6  1  0  0  0  0
 16  6  1  0  0  0  0
 17  7  1  0  0  0  0
 18  7  1  0  0  0  0
M TOR 0 0 1 2 3
M TOR 1 0 1 8 4
M TOR 2 0 1 8 7
M TOR 3 0 1 8 18
M TOR 4 0 4 3 2
M TOR 5 0 4 3 12
M TOR 6 0 4 3 13
M TOR 7 0 4 5 6
M TOR 8 0 4 5 14
M TOR 9 0 4 5 15
M TOR 10 0 4 8 7
M TOR 11 0 4 8 18
M TOR 12 1 0 4 3
M TOR 13 1 0 4 5
M TOR 14 1 2 3 4
M TOR 15 1 2 3 12
M TOR 16 1 2 3 13
M TOR 17 1 8 4 3
M TOR 18 1 8 4 5
M TOR 19 1 8 7 6
M TOR 20 2 1 0 4
M TOR 21 2 1 0 9
M TOR 22 2 1 0 10
M TOR 23 2 1 8 4
M TOR 24 2 1 8 7
M TOR 25 2 1 8 18
M TOR 26 2 3 4 5
M TOR 27 2 3 4 8
M TOR 28 3 2 1 8
M TOR 29 3 2 1 11
M TOR 30 3 4 0 9
M TOR 31 3 4 0 10
M TOR 32 3 4 5 6
M TOR 33 3 4 5 14
M TOR 34 3 4 5 15
M TOR 35 3 4 8 7
M TOR 36 3 4 8 18
M TOR 37 4 0 1 11
M TOR 38 4 5 6 7
M TOR 39 4 5 6 16
M TOR 40 4 5 6 17
M TOR 41 4 8 1 11
M TOR 42 4 8 7 6
M TOR 43 5 4 0 9
M TOR 44 5 4 0 10
M TOR 45 5 4 3 12
M TOR 46 5 4 3 13
M TOR 47 5 4 8 7
M TOR 48 5 4 8 18
M TOR 49 5 6 7 8
M TOR 50 6 5 4 8
M TOR 51 6 7 8 18
M TOR 52 7 6 5 14
M TOR 53 7 6 5 15
M TOR 54 7 8 1 11
M TOR 55 8 1 0 9
M TOR 56 8 1 0 10
M TOR 57 8 4 0 9
M TOR 58 8 4 0 10
M TOR 59 8 4 3 12
M TOR 60 8 4 3 13
M TOR 61 8 4 5 14
M TOR 62 8 4 5 15
M TOR 63 8 7 6 16
M TOR 64 8 7 6 17
M  END
$$$$
