gdb 1363	2.4509162	0.97614	0.8287266	2.696	77.98	-0.25287	-0.02724	0.22563	1448.5164	0.152638	-422.536574	-422.525861	-422.524917	-422.573299	37.57
 OpenBabel02181911403D

 19 18  0  0  1  0  0  0  0  0999 V2000
   -2.2169    0.4578   -3.4619 C   0  0  0  0  0  0  0  0  0  0  0  0
   -1.7114    0.1461   -2.0407 C   0  0  1  0  0  0  0  0  0  0  0  0
   -0.1908   -0.1351   -2.0367 C   0  0  0  0  0  0  0  0  0  0  0  0
    0.3949   -0.2881   -0.6282 C   0  0  1  0  0  0  0  0  0  0  0  0
   -0.3270   -1.1976    0.1894 O   0  0  0  0  0  0  0  0  0  0  0  0
    1.8378   -0.7711   -0.6566 C   0  0  0  0  0  0  0  0  0  0  0  0
    2.6202   -0.5221   -1.5363 O   0  0  0  0  0  0  0  0  0  0  0  0
   -2.0722    1.2083   -1.0998 C   0  0  0  0  0  0  0  0  0  0  0  0
   -2.3566    2.0702   -0.3092 C   0  0  0  0  0  0  0  0  0  0  0  0
   -1.9629   -0.3629   -4.1395 H   0  0  0  0  0  0  0  0  0  0  0  0
   -3.3016    0.5915   -3.4709 H   0  0  0  0  0  0  0  0  0  0  0  0
   -1.7571    1.3739   -3.8441 H   0  0  0  0  0  0  0  0  0  0  0  0
   -2.2060   -0.7719   -1.6975 H   0  0  0  0  0  0  0  0  0  0  0  0
   -0.0136   -1.0525   -2.6083 H   0  0  0  0  0  0  0  0  0  0  0  0
    0.3483    0.6689   -2.5474 H   0  0  0  0  0  0  0  0  0  0  0  0
    0.4236    0.7060   -0.1514 H   0  0  0  0  0  0  0  0  0  0  0  0
   -1.0751   -0.7209    0.5634 H   0  0  0  0  0  0  0  0  0  0  0  0
    2.1133   -1.3767    0.2349 H   0  0  0  0  0  0  0  0  0  0  0  0
   -2.6211    2.8389    0.3745 H   0  0  0  0  0  0  0  0  0  0  0  0
  1  2  1  0  0  0  0
  2  3  1  0  0  0  0
  2 13  1  1  0  0  0
  2  8  1  0  0  0  0
  3  4  1  0  0  0  0
  4 16  1  1  0  0  0
  4  5  1  0  0  0  0
  5 17  1  0  0  0  0
  6  4  1  0  0  0  0
  6 18  1  0  0  0  0
  7  6  2  0  0  0  0
  8  9  3  0  0  0  0
  9 19  1  0  0  0  0
 10  1  1  0  0  0  0
 11  1  1  0  0  0  0
 12  1  1  0  0  0  0
 14  3  1  0  0  0  0
 15  3  1  0  0  0  0
M TOR 0 0 1 2 3
M TOR 1 0 1 2 13
M TOR 2 0 1 2 14
M TOR 3 0 1 7 8
M TOR 4 1 2 3 4
M TOR 5 1 2 3 5
M TOR 6 1 2 3 15
M TOR 7 1 7 8 18
M TOR 8 2 1 0 9
M TOR 9 2 1 0 10
M TOR 10 2 1 0 11
M TOR 11 2 1 7 8
M TOR 12 2 3 4 16
M TOR 13 2 3 5 6
M TOR 14 2 3 5 17
M TOR 15 3 2 1 7
M TOR 16 3 2 1 12
M TOR 17 4 3 2 13
M TOR 18 4 3 2 14
M TOR 19 4 3 5 6
M TOR 20 4 3 5 17
M TOR 21 5 3 2 13
M TOR 22 5 3 2 14
M TOR 23 5 3 4 16
M TOR 24 6 5 3 15
M TOR 25 7 1 0 9
M TOR 26 7 1 0 10
M TOR 27 7 1 0 11
M TOR 28 7 1 2 13
M TOR 29 7 1 2 14
M TOR 30 8 7 1 12
M  END
$$$$
