gdb 1605	2.9645823	1.17798	1.0892789	1.3626	76.6	-0.25036	0.04963	0.29999000000000003	1199.2618	0.155043	-422.528412	-422.519044	-422.5181	-422.562862	34.222
 OpenBabel02181911403D

 19 19  0  0  1  0  0  0  0  0999 V2000
    2.5678    2.1704   -1.2728 C   0  0  0  0  0  0  0  0  0  0  0  0
    3.0514    0.7418   -1.0592 C   0  0  2  0  0  0  0  0  0  0  0  0
    2.5521    0.1454    0.2837 C   0  0  0  0  0  0  0  0  0  0  0  0
    1.1030    0.0423    0.3827 C   0  0  0  0  0  0  0  0  0  0  0  0
   -0.0931   -0.0319    0.4734 C   0  0  0  0  0  0  0  0  0  0  0  0
    4.5809    0.5758   -1.1685 C   0  0  0  0  0  0  0  0  0  0  0  0
    4.7252   -0.7264   -1.7112 O   0  0  0  0  0  0  0  0  0  0  0  0
    3.6754   -0.8321   -2.6408 C   0  0  0  0  0  0  0  0  0  0  0  0
    2.5833   -0.0865   -2.1355 O   0  0  0  0  0  0  0  0  0  0  0  0
    2.9703    2.8350   -0.5006 H   0  0  0  0  0  0  0  0  0  0  0  0
    2.8899    2.5367   -2.2511 H   0  0  0  0  0  0  0  0  0  0  0  0
    1.4773    2.2123   -1.2259 H   0  0  0  0  0  0  0  0  0  0  0  0
    3.0050   -0.8467    0.3955 H   0  0  0  0  0  0  0  0  0  0  0  0
    2.9329    0.7641    1.1071 H   0  0  0  0  0  0  0  0  0  0  0  0
   -1.1494   -0.1074    0.5483 H   0  0  0  0  0  0  0  0  0  0  0  0
    5.0064    1.3366   -1.8412 H   0  0  0  0  0  0  0  0  0  0  0  0
    5.1030    0.6106   -0.2100 H   0  0  0  0  0  0  0  0  0  0  0  0
    3.9753   -0.4240   -3.6226 H   0  0  0  0  0  0  0  0  0  0  0  0
    3.4035   -1.8881   -2.7430 H   0  0  0  0  0  0  0  0  0  0  0  0
  1 12  1  0  0  0  0
  1 10  1  0  0  0  0
  2  1  1  6  0  0  0
  2  3  1  0  0  0  0
  3  4  1  0  0  0  0
  3 13  1  0  0  0  0
  3 14  1  0  0  0  0
  4  5  3  0  0  0  0
  5 15  1  0  0  0  0
  6  2  1  0  0  0  0
  6 17  1  0  0  0  0
  7  6  1  0  0  0  0
  8  9  1  0  0  0  0
  8  7  1  0  0  0  0
  9  2  1  0  0  0  0
 11  1  1  0  0  0  0
 16  6  1  0  0  0  0
 18  8  1  0  0  0  0
 19  8  1  0  0  0  0
M TOR 0 0 1 2 3
M TOR 1 0 1 2 12
M TOR 2 0 1 2 13
M TOR 3 0 1 5 6
M TOR 4 0 1 5 15
M TOR 5 0 1 5 16
M TOR 6 0 1 8 7
M TOR 7 1 2 3 4
M TOR 8 1 5 6 7
M TOR 9 1 8 7 6
M TOR 10 1 8 7 17
M TOR 11 1 8 7 18
M TOR 12 2 1 0 9
M TOR 13 2 1 0 10
M TOR 14 2 1 0 11
M TOR 15 2 1 5 6
M TOR 16 2 1 5 15
M TOR 17 2 1 5 16
M TOR 18 2 1 8 7
M TOR 19 2 3 4 14
M TOR 20 3 2 1 5
M TOR 21 3 2 1 8
M TOR 22 4 3 2 12
M TOR 23 4 3 2 13
M TOR 24 5 1 0 9
M TOR 25 5 1 0 10
M TOR 26 5 1 0 11
M TOR 27 5 1 2 12
M TOR 28 5 1 2 13
M TOR 29 5 1 8 7
M TOR 30 5 6 7 8
M TOR 31 5 6 7 17
M TOR 32 5 6 7 18
M TOR 33 6 5 1 8
M TOR 34 7 6 5 15
M TOR 35 7 6 5 16
M TOR 36 8 1 0 9
M TOR 37 8 1 0 10
M TOR 38 8 1 0 11
M TOR 39 8 1 2 12
M TOR 40 8 1 2 13
M TOR 41 8 1 5 15
M TOR 42 8 1 5 16
M  END
$$$$
