gdb 6045	2.4385537	1.1992451	1.0340116	3.5134	78.74	-0.23232	0.04835	0.28067	1251.3179	0.15449	-422.509802	-422.499974	-422.499029	-422.544264	36.594
 OpenBabel02181911423D

 19 19  0  0  1  0  0  0  0  0999 V2000
    0.2392    1.0659    1.0587 O   0  0  0  0  0  0  0  0  0  0  0  0
    0.2079    0.3135   -0.1575 C   0  0  0  0  0  0  0  0  0  0  0  0
   -0.8111    0.9492   -1.1002 C   0  0  0  0  0  0  0  0  0  0  0  0
   -2.2411    0.7968   -0.6233 C   0  0  2  0  0  0  0  0  0  0  0  0
   -3.2990    1.8183   -0.9583 C   0  0  0  0  0  0  0  0  0  0  0  0
   -2.7785    1.7297    0.4597 C   0  0  2  0  0  0  0  0  0  0  0  0
   -1.9621    2.7883    0.8632 O   0  0  0  0  0  0  0  0  0  0  0  0
   -3.6212    1.1645    1.4857 C   0  0  0  0  0  0  0  0  0  0  0  0
   -4.3085    0.6886    2.3511 C   0  0  0  0  0  0  0  0  0  0  0  0
    0.6553    0.5397    1.7465 H   0  0  0  0  0  0  0  0  0  0  0  0
    1.2031    0.3145   -0.6252 H   0  0  0  0  0  0  0  0  0  0  0  0
   -0.0674   -0.7316    0.0448 H   0  0  0  0  0  0  0  0  0  0  0  0
   -0.5642    2.0091   -1.2157 H   0  0  0  0  0  0  0  0  0  0  0  0
   -0.7009    0.4853   -2.0882 H   0  0  0  0  0  0  0  0  0  0  0  0
   -2.5859   -0.2314   -0.5489 H   0  0  0  0  0  0  0  0  0  0  0  0
   -2.9882    2.7058   -1.4987 H   0  0  0  0  0  0  0  0  0  0  0  0
   -4.3080    1.4788   -1.1594 H   0  0  0  0  0  0  0  0  0  0  0  0
   -1.1587    2.3839    1.2295 H   0  0  0  0  0  0  0  0  0  0  0  0
   -4.9220    0.2820    3.1162 H   0  0  0  0  0  0  0  0  0  0  0  0
  1 10  1  0  0  0  0
  2 12  1  0  0  0  0
  2  1  1  0  0  0  0
  3  4  1  0  0  0  0
  3  2  1  0  0  0  0
  4 15  1  1  0  0  0
  4  6  1  0  0  0  0
  5  4  1  0  0  0  0
  5  6  1  0  0  0  0
  6  7  1  0  0  0  0
  6  8  1  1  0  0  0
  7 18  1  0  0  0  0
  8  9  3  0  0  0  0
  9 19  1  0  0  0  0
 11  2  1  0  0  0  0
 13  3  1  0  0  0  0
 14  3  1  0  0  0  0
 16  5  1  0  0  0  0
 17  5  1  0  0  0  0
M TOR 0 0 1 2 3
M TOR 1 0 1 2 12
M TOR 2 0 1 2 13
M TOR 3 1 2 3 4
M TOR 4 1 2 3 5
M TOR 5 1 2 3 14
M TOR 6 2 1 0 9
M TOR 7 2 3 4 5
M TOR 8 2 3 4 15
M TOR 9 2 3 4 16
M TOR 10 2 3 5 6
M TOR 11 2 3 5 7
M TOR 12 3 2 1 10
M TOR 13 3 2 1 11
M TOR 14 3 4 5 6
M TOR 15 3 4 5 7
M TOR 16 3 5 4 15
M TOR 17 3 5 4 16
M TOR 18 3 5 6 17
M TOR 19 3 5 7 8
M TOR 20 4 3 2 12
M TOR 21 4 3 2 13
M TOR 22 4 5 3 14
M TOR 23 4 5 6 17
M TOR 24 4 5 7 8
M TOR 25 5 3 2 12
M TOR 26 5 3 2 13
M TOR 27 5 7 8 18
M TOR 28 6 5 3 14
M TOR 29 6 5 4 15
M TOR 30 6 5 4 16
M TOR 31 6 5 7 8
M TOR 32 7 5 3 14
M TOR 33 7 5 4 15
M TOR 34 7 5 4 16
M TOR 35 7 5 6 17
M  END
$$$$
