gdb 827	3.9123807	0.8004111	0.7052122	2.7409	78.08	-0.25204	-0.02104	0.23099999999999998	1566.6887	0.156076	-422.526948	-422.517979	-422.517035	-422.56213	31.621
 OpenBabel02181911403D

 19 20  0  0  1  0  0  0  0  0999 V2000
    0.7571   -1.1769    0.1842 O   0  0  0  0  0  0  0  0  0  0  0  0
    0.4072   -0.0548   -0.0837 C   0  0  0  0  0  0  0  0  0  0  0  0
    0.1347    1.0097    0.9054 C   0  0  2  0  0  0  0  0  0  0  0  0
   -0.9390    2.0413    0.5833 C   0  0  0  0  0  0  0  0  0  0  0  0
    0.4953    2.4482    0.5339 C   0  0  1  0  0  0  0  0  0  0  0  0
    1.0967    3.3487    1.5764 C   0  0  0  0  0  0  0  0  0  0  0  0
    1.2051    4.8594    1.2495 C   0  0  0  0  0  0  0  0  0  0  0  0
    2.6269    4.8539    1.4789 O   0  0  0  0  0  0  0  0  0  0  0  0
    2.6403    3.4251    1.6691 C   0  0  0  0  0  0  0  0  0  0  0  0
    0.2627    0.2680   -1.1439 H   0  0  0  0  0  0  0  0  0  0  0  0
    0.2572    0.7109    1.9409 H   0  0  0  0  0  0  0  0  0  0  0  0
   -1.4776    1.9283   -0.3519 H   0  0  0  0  0  0  0  0  0  0  0  0
   -1.5484    2.3751    1.4158 H   0  0  0  0  0  0  0  0  0  0  0  0
    0.9174    2.5708   -0.4621 H   0  0  0  0  0  0  0  0  0  0  0  0
    0.6271    3.1650    2.5465 H   0  0  0  0  0  0  0  0  0  0  0  0
    0.9548    5.1203    0.2118 H   0  0  0  0  0  0  0  0  0  0  0  0
    0.6799    5.5455    1.9242 H   0  0  0  0  0  0  0  0  0  0  0  0
    3.1708    2.9059    0.8591 H   0  0  0  0  0  0  0  0  0  0  0  0
    3.0900    3.1402    2.6271 H   0  0  0  0  0  0  0  0  0  0  0  0
  2  1  2  0  0  0  0
  2  3  1  0  0  0  0
  3 11  1  1  0  0  0
  4  3  1  0  0  0  0
  4 13  1  0  0  0  0
  5 14  1  6  0  0  0
  5  4  1  0  0  0  0
  5  3  1  0  0  0  0
  5  6  1  0  0  0  0
  6  9  1  0  0  0  0
  6 15  1  0  0  0  0
  7  8  1  0  0  0  0
  7  6  1  0  0  0  0
  7 17  1  0  0  0  0
  8  9  1  0  0  0  0
  9 19  1  0  0  0  0
 10  2  1  0  0  0  0
 12  4  1  0  0  0  0
 16  7  1  0  0  0  0
 18  9  1  0  0  0  0
M TOR 0 0 1 2 3
M TOR 1 0 1 2 4
M TOR 2 0 1 2 10
M TOR 3 1 2 3 4
M TOR 4 1 2 3 11
M TOR 5 1 2 3 12
M TOR 6 1 2 4 5
M TOR 7 1 2 4 13
M TOR 8 2 3 4 5
M TOR 9 2 3 4 13
M TOR 10 2 4 3 11
M TOR 11 2 4 3 12
M TOR 12 2 4 5 6
M TOR 13 2 4 5 8
M TOR 14 2 4 5 14
M TOR 15 3 2 1 9
M TOR 16 3 4 2 10
M TOR 17 3 4 5 6
M TOR 18 3 4 5 8
M TOR 19 3 4 5 14
M TOR 20 4 2 1 9
M TOR 21 4 5 6 7
M TOR 22 4 5 6 15
M TOR 23 4 5 6 16
M TOR 24 4 5 8 7
M TOR 25 4 5 8 17
M TOR 26 4 5 8 18
M TOR 27 5 4 2 10
M TOR 28 5 4 3 11
M TOR 29 5 4 3 12
M TOR 30 5 6 7 8
M TOR 31 6 5 4 13
M TOR 32 6 5 8 17
M TOR 33 6 5 8 18
M TOR 34 6 7 8 17
M TOR 35 6 7 8 18
M TOR 36 7 6 5 14
M TOR 37 7 8 5 14
M TOR 38 8 5 4 13
M TOR 39 8 5 6 15
M TOR 40 8 5 6 16
M TOR 41 8 7 6 15
M TOR 42 8 7 6 16
M  END
$$$$
