gdb 1785	3.3592121	1.2433027	1.0872854	1.6901	75.93	-0.24841	-0.0245	0.22391	1130.1145	0.157156	-422.570294	-422.562082	-422.561138	-422.60298	31.916
 OpenBabel02181911403D

 19 20  0  0  1  0  0  0  0  0999 V2000
    0.5812    4.5395   -1.6178 O   0  0  0  0  0  0  0  0  0  0  0  0
    0.7869    3.1895   -1.3649 C   0  0  2  0  0  0  0  0  0  0  0  0
    0.2630    2.4506   -0.0954 C   0  0  0  0  0  0  0  0  0  0  0  0
    1.2922    1.3853   -0.5523 C   0  0  2  0  0  0  0  0  0  0  0  0
    2.1885    2.5795   -1.0373 C   0  0  0  0  0  0  0  0  0  0  0  0
    0.6984    0.8957   -1.8994 C   0  0  0  0  0  0  0  0  0  0  0  0
    0.3014    2.2787   -2.5036 C   0  0  0  0  0  0  0  0  0  0  0  0
    1.8679    0.3735    0.3780 C   0  0  0  0  0  0  0  0  0  0  0  0
    1.6351    0.3089    1.5602 O   0  0  0  0  0  0  0  0  0  0  0  0
    0.8565    5.0424   -0.8445 H   0  0  0  0  0  0  0  0  0  0  0  0
    0.5635    2.9322    0.8380 H   0  0  0  0  0  0  0  0  0  0  0  0
   -0.7913    2.1652   -0.0572 H   0  0  0  0  0  0  0  0  0  0  0  0
    2.6850    3.0843   -0.2045 H   0  0  0  0  0  0  0  0  0  0  0  0
    2.8883    2.4028   -1.8585 H   0  0  0  0  0  0  0  0  0  0  0  0
    1.4345    0.3601   -2.5058 H   0  0  0  0  0  0  0  0  0  0  0  0
   -0.1611    0.2370   -1.7491 H   0  0  0  0  0  0  0  0  0  0  0  0
    0.8111    2.5030   -3.4441 H   0  0  0  0  0  0  0  0  0  0  0  0
   -0.7746    2.3801   -2.6659 H   0  0  0  0  0  0  0  0  0  0  0  0
    2.5738   -0.3442   -0.1041 H   0  0  0  0  0  0  0  0  0  0  0  0
  1 10  1  0  0  0  0
  2  1  1  6  0  0  0
  2  5  1  0  0  0  0
  2  3  1  0  0  0  0
  3 12  1  0  0  0  0
  3 11  1  0  0  0  0
  4  3  1  0  0  0  0
  4  8  1  1  0  0  0
  5  4  1  0  0  0  0
  5 13  1  0  0  0  0
  6 16  1  0  0  0  0
  6  4  1  0  0  0  0
  7  6  1  0  0  0  0
  7  2  1  0  0  0  0
  8  9  2  0  0  0  0
 14  5  1  0  0  0  0
 15  6  1  0  0  0  0
 17  7  1  0  0  0  0
 18  7  1  0  0  0  0
 19  8  1  0  0  0  0
M TOR 0 0 1 2 3
M TOR 1 0 1 2 10
M TOR 2 0 1 2 11
M TOR 3 0 1 4 3
M TOR 4 0 1 4 12
M TOR 5 0 1 4 13
M TOR 6 0 1 6 5
M TOR 7 0 1 6 16
M TOR 8 0 1 6 17
M TOR 9 1 2 3 4
M TOR 10 1 2 3 5
M TOR 11 1 2 3 7
M TOR 12 1 4 3 5
M TOR 13 1 4 3 7
M TOR 14 1 6 5 3
M TOR 15 1 6 5 14
M TOR 16 1 6 5 15
M TOR 17 2 1 0 9
M TOR 18 2 1 4 12
M TOR 19 2 1 4 13
M TOR 20 2 1 6 5
M TOR 21 2 1 6 16
M TOR 22 2 1 6 17
M TOR 23 2 3 4 12
M TOR 24 2 3 4 13
M TOR 25 2 3 5 6
M TOR 26 2 3 5 14
M TOR 27 2 3 5 15
M TOR 28 2 3 7 8
M TOR 29 2 3 7 18
M TOR 30 3 2 1 6
M TOR 31 3 4 1 6
M TOR 32 3 5 6 16
M TOR 33 3 5 6 17
M TOR 34 4 1 0 9
M TOR 35 4 1 2 10
M TOR 36 4 1 2 11
M TOR 37 4 1 6 5
M TOR 38 4 1 6 16
M TOR 39 4 1 6 17
M TOR 40 4 3 2 10
M TOR 41 4 3 2 11
M TOR 42 4 3 5 6
M TOR 43 4 3 5 14
M TOR 44 4 3 5 15
M TOR 45 4 3 7 8
M TOR 46 4 3 7 18
M TOR 47 5 3 2 10
M TOR 48 5 3 2 11
M TOR 49 5 3 4 12
M TOR 50 5 3 4 13
M TOR 51 5 3 7 8
M TOR 52 5 3 7 18
M TOR 53 6 1 0 9
M TOR 54 6 1 2 10
M TOR 55 6 1 2 11
M TOR 56 6 1 4 12
M TOR 57 6 1 4 13
M TOR 58 6 5 3 7
M TOR 59 7 3 2 10
M TOR 60 7 3 2 11
M TOR 61 7 3 4 12
M TOR 62 7 3 4 13
M TOR 63 7 3 5 14
M TOR 64 7 3 5 15
M  END
$$$$
