
     RDKit          3D

 19 20  0  0  0  0  0  0  0  0999 V2000
    1.3372    0.8883    0.1305 O   0  0  0  0  0  0  0  0  0  0  0  0
    0.3679   -0.0439    0.5752 C   0  0  0  0  0  0  0  0  0  0  0  0
   -0.8526    0.6613    1.1174 C   0  0  0  0  0  0  0  0  0  0  0  0
   -2.1784   -0.0968    1.3732 C   0  0  0  0  0  0  0  0  0  0  0  0
   -2.7752    1.1996    0.7827 C   0  0  0  0  0  0  0  0  0  0  0  0
   -2.9176    2.3041    1.8409 C   0  0  0  0  0  0  0  0  0  0  0  0
   -1.6154    2.4166    2.6074 C   0  0  0  0  0  0  0  0  0  0  0  0
   -0.6005    1.6242    2.2656 C   0  0  0  0  0  0  0  0  0  0  0  0
   -1.5336    1.4202    0.0503 O   0  0  0  0  0  0  0  0  0  0  0  0
    0.8847    1.4809   -0.4816 H   0  0  0  0  0  0  0  0  0  0  0  0
    0.0600   -0.7261   -0.2316 H   0  0  0  0  0  0  0  0  0  0  0  0
    0.8394   -0.6410    1.3643 H   0  0  0  0  0  0  0  0  0  0  0  0
   -2.3080   -0.9421    0.6936 H   0  0  0  0  0  0  0  0  0  0  0  0
   -2.4216   -0.3760    2.3994 H   0  0  0  0  0  0  0  0  0  0  0  0
   -3.6387    1.1295    0.1162 H   0  0  0  0  0  0  0  0  0  0  0  0
   -3.1599    3.2582    1.3546 H   0  0  0  0  0  0  0  0  0  0  0  0
   -3.7548    2.0787    2.5156 H   0  0  0  0  0  0  0  0  0  0  0  0
   -1.5376    3.1500    3.4047 H   0  0  0  0  0  0  0  0  0  0  0  0
    0.3683    1.6453    2.7517 H   0  0  0  0  0  0  0  0  0  0  0  0
  1  2  1  0
  2  3  1  0
  3  4  1  0
  4  5  1  0
  5  6  1  0
  6  7  1  0
  7  8  2  0
  5  9  1  0
  8  3  1  0
  9  3  1  0
  1 10  1  0
  2 11  1  0
  2 12  1  0
  4 13  1  0
  4 14  1  0
  5 15  1  0
  6 16  1  0
  6 17  1  0
  7 18  1  0
  8 19  1  0
M  END
$$$$
