gdb 1061	3.4145363	1.0332783	0.8760285	0.3635	76.99	-0.23597	-0.08046	0.15551	1370.9519	0.154761	-422.575248	-422.565478	-422.564534	-422.611751	33.76
 OpenBabel02181911403D

 19 19  0  0  0  0  0  0  0  0999 V2000
    0.3663    0.4575   -3.4988 C   0  0  0  0  0  0  0  0  0  0  0  0
    0.8020    0.1017   -2.0993 C   0  0  0  0  0  0  0  0  0  0  0  0
    1.9183    0.2798   -1.6690 O   0  0  0  0  0  0  0  0  0  0  0  0
   -0.2811   -0.5295   -1.1861 C   0  0  0  0  0  0  0  0  0  0  0  0
   -1.3982   -0.7012   -1.6225 O   0  0  0  0  0  0  0  0  0  0  0  0
    0.1366   -0.8413    0.2222 C   0  0  0  0  0  0  0  0  0  0  0  0
   -0.8460   -1.6303    1.1209 C   0  0  0  0  0  0  0  0  0  0  0  0
   -0.5548   -0.6317    2.2735 C   0  0  0  0  0  0  0  0  0  0  0  0
    0.0371    0.3580    1.2352 C   0  0  0  0  0  0  0  0  0  0  0  0
   -0.0071   -0.4342   -4.0124 H   0  0  0  0  0  0  0  0  0  0  0  0
   -0.4734    1.1588   -3.4627 H   0  0  0  0  0  0  0  0  0  0  0  0
    1.2028    0.8913   -4.0470 H   0  0  0  0  0  0  0  0  0  0  0  0
    1.1532   -1.2388    0.2249 H   0  0  0  0  0  0  0  0  0  0  0  0
   -1.8652   -1.5428    0.7369 H   0  0  0  0  0  0  0  0  0  0  0  0
   -0.6213   -2.6848    1.2936 H   0  0  0  0  0  0  0  0  0  0  0  0
   -1.4045   -0.2839    2.8649 H   0  0  0  0  0  0  0  0  0  0  0  0
    0.2131   -1.0066    2.9556 H   0  0  0  0  0  0  0  0  0  0  0  0
   -0.6994    1.0981    0.9093 H   0  0  0  0  0  0  0  0  0  0  0  0
    0.9707    0.8681    1.4759 H   0  0  0  0  0  0  0  0  0  0  0  0
  1 11  1  0  0  0  0
  1  2  1  0  0  0  0
  2  3  2  0  0  0  0
  2  4  1  0  0  0  0
  4  6  1  0  0  0  0
  5  4  2  0  0  0  0
  6 13  1  0  0  0  0
  6  7  1  0  0  0  0
  6  9  1  0  0  0  0
  7 15  1  0  0  0  0
  7  8  1  0  0  0  0
  8 16  1  0  0  0  0
  8 17  1  0  0  0  0
  9 19  1  0  0  0  0
  9  8  1  0  0  0  0
 10  1  1  0  0  0  0
 12  1  1  0  0  0  0
 14  7  1  0  0  0  0
 18  9  1  0  0  0  0
M TOR 0 0 1 3 4
M TOR 1 0 1 3 5
M TOR 2 1 3 5 6
M TOR 3 1 3 5 8
M TOR 4 1 3 5 12
M TOR 5 2 1 0 9
M TOR 6 2 1 0 10
M TOR 7 2 1 0 11
M TOR 8 2 1 3 4
M TOR 9 2 1 3 5
M TOR 10 3 1 0 9
M TOR 11 3 1 0 10
M TOR 12 3 1 0 11
M TOR 13 3 5 6 7
M TOR 14 3 5 6 13
M TOR 15 3 5 6 14
M TOR 16 3 5 8 7
M TOR 17 3 5 8 17
M TOR 18 3 5 8 18
M TOR 19 4 3 5 6
M TOR 20 4 3 5 8
M TOR 21 4 3 5 12
M TOR 22 5 6 7 8
M TOR 23 5 6 7 15
M TOR 24 5 6 7 16
M TOR 25 5 8 7 15
M TOR 26 5 8 7 16
M TOR 27 6 5 8 17
M TOR 28 6 5 8 18
M TOR 29 6 7 8 17
M TOR 30 6 7 8 18
M TOR 31 7 6 5 12
M TOR 32 7 8 5 12
M TOR 33 8 5 6 13
M TOR 34 8 5 6 14
M TOR 35 8 7 6 13
M TOR 36 8 7 6 14
M  END
$$$$
