gdb 3165	2.381152	2.0109137	1.4391257	2.2487	73.09	-0.23718	0.0655	0.30268	957.754	0.159396	-422.536884	-422.529681	-422.528737	-422.568013	29.658
 OpenBabel02181911413D

 19 21  0  0  1  0  0  0  0  0999 V2000
    0.3832   -0.9333    0.2876 O   0  0  0  0  0  0  0  0  0  0  0  0
    1.5582   -0.1811    0.5639 C   0  0  1  0  0  0  0  0  0  0  0  0
    1.2997    0.9324    1.5890 C   0  0  2  0  0  0  0  0  0  0  0  0
    2.2974    2.0428    1.8311 C   0  0  0  0  0  0  0  0  0  0  0  0
    2.1702    0.9267    2.8319 C   0  0  2  0  0  0  0  0  0  0  0  0
    3.2017   -0.1887    2.8033 C   0  0  1  0  0  0  0  0  0  0  0  0
    2.5006   -1.5374    2.5315 C   0  0  0  0  0  0  0  0  0  0  0  0
    2.6907   -1.0937    1.0633 C   0  0  2  0  0  0  0  0  0  0  0  0
    3.8025   -0.2483    1.4760 O   0  0  0  0  0  0  0  0  0  0  0  0
    0.0692   -1.3068    1.1186 H   0  0  0  0  0  0  0  0  0  0  0  0
    1.8517    0.2445   -0.4022 H   0  0  0  0  0  0  0  0  0  0  0  0
    0.2498    1.1904    1.6841 H   0  0  0  0  0  0  0  0  0  0  0  0
    3.1913    2.0588    1.2190 H   0  0  0  0  0  0  0  0  0  0  0  0
    1.9021    3.0153    2.1031 H   0  0  0  0  0  0  0  0  0  0  0  0
    1.7176    1.1294    3.7980 H   0  0  0  0  0  0  0  0  0  0  0  0
    3.9574   -0.1170    3.5899 H   0  0  0  0  0  0  0  0  0  0  0  0
    3.1226   -2.3998    2.7750 H   0  0  0  0  0  0  0  0  0  0  0  0
    1.4898   -1.6753    2.9254 H   0  0  0  0  0  0  0  0  0  0  0  0
    2.9766   -1.8402    0.3187 H   0  0  0  0  0  0  0  0  0  0  0  0
  1  2  1  0  0  0  0
  1 10  1  0  0  0  0
  2 11  1  6  0  0  0
  2  8  1  0  0  0  0
  2  3  1  0  0  0  0
  3 12  1  1  0  0  0
  3  4  1  0  0  0  0
  3  5  1  0  0  0  0
  4 14  1  0  0  0  0
  4  5  1  0  0  0  0
  5 15  1  1  0  0  0
  6  5  1  0  0  0  0
  6 16  1  1  0  0  0
  7 17  1  0  0  0  0
  7  6  1  0  0  0  0
  7 18  1  0  0  0  0
  8 19  1  6  0  0  0
  8  9  1  0  0  0  0
  8  7  1  0  0  0  0
  9  6  1  0  0  0  0
 13  4  1  0  0  0  0
M TOR 0 0 1 2 3
M TOR 1 0 1 2 4
M TOR 2 0 1 2 11
M TOR 3 0 1 7 6
M TOR 4 0 1 7 8
M TOR 5 0 1 7 18
M TOR 6 1 2 3 4
M TOR 7 1 2 3 12
M TOR 8 1 2 3 13
M TOR 9 1 2 4 5
M TOR 10 1 2 4 14
M TOR 11 1 7 6 5
M TOR 12 1 7 6 16
M TOR 13 1 7 6 17
M TOR 14 1 7 8 5
M TOR 15 2 1 0 9
M TOR 16 2 1 7 6
M TOR 17 2 1 7 8
M TOR 18 2 1 7 18
M TOR 19 2 3 4 5
M TOR 20 2 3 4 14
M TOR 21 2 4 3 12
M TOR 22 2 4 3 13
M TOR 23 2 4 5 6
M TOR 24 2 4 5 8
M TOR 25 2 4 5 15
M TOR 26 3 2 1 7
M TOR 27 3 2 1 10
M TOR 28 3 4 2 11
M TOR 29 3 4 5 6
M TOR 30 3 4 5 8
M TOR 31 3 4 5 15
M TOR 32 4 2 1 7
M TOR 33 4 2 1 10
M TOR 34 4 5 6 7
M TOR 35 4 5 6 16
M TOR 36 4 5 6 17
M TOR 37 4 5 8 7
M TOR 38 5 4 2 11
M TOR 39 5 4 3 12
M TOR 40 5 4 3 13
M TOR 41 5 6 7 8
M TOR 42 5 6 7 18
M TOR 43 5 8 7 18
M TOR 44 6 5 4 14
M TOR 45 6 7 1 10
M TOR 46 7 1 0 9
M TOR 47 7 1 2 11
M TOR 48 7 6 5 15
M TOR 49 7 8 5 15
M TOR 50 8 5 4 14
M TOR 51 8 5 6 16
M TOR 52 8 5 6 17
M TOR 53 8 7 1 10
M TOR 54 8 7 6 16
M TOR 55 8 7 6 17
M  END
$$$$
