
     RDKit          3D

 19 20  0  0  0  0  0  0  0  0999 V2000
   -1.9175   -3.2065   -1.1732 C   0  0  0  0  0  0  0  0  0  0  0  0
   -1.5301   -1.7357   -1.2352 C   0  0  0  0  0  0  0  0  0  0  0  0
   -0.7175   -1.4616   -2.3627 O   0  0  0  0  0  0  0  0  0  0  0  0
   -2.7066   -0.7198   -1.1824 C   0  0  0  0  0  0  0  0  0  0  0  0
   -2.1207   -0.0725    0.0946 C   0  0  0  0  0  0  0  0  0  0  0  0
   -1.0608    1.0406   -0.1595 C   0  0  0  0  0  0  0  0  0  0  0  0
    0.0384   -0.0366   -0.0981 C   0  0  0  0  0  0  0  0  0  0  0  0
    1.2342   -0.0099   -0.1543 O   0  0  0  0  0  0  0  0  0  0  0  0
   -0.9763   -1.1571    0.1288 C   0  0  0  0  0  0  0  0  0  0  0  0
   -2.5745   -3.4102   -0.3219 H   0  0  0  0  0  0  0  0  0  0  0  0
   -2.4358   -3.4949   -2.0933 H   0  0  0  0  0  0  0  0  0  0  0  0
   -1.0267   -3.8373   -1.0672 H   0  0  0  0  0  0  0  0  0  0  0  0
    0.1200   -1.9284   -2.2573 H   0  0  0  0  0  0  0  0  0  0  0  0
   -2.7765   -0.0757   -2.0620 H   0  0  0  0  0  0  0  0  0  0  0  0
   -3.6724   -1.2050   -1.0215 H   0  0  0  0  0  0  0  0  0  0  0  0
   -2.7931    0.0900    0.9352 H   0  0  0  0  0  0  0  0  0  0  0  0
   -1.1317    1.5904   -1.1023 H   0  0  0  0  0  0  0  0  0  0  0  0
   -0.9642    1.7631    0.6578 H   0  0  0  0  0  0  0  0  0  0  0  0
   -0.7910   -1.8732    0.9307 H   0  0  0  0  0  0  0  0  0  0  0  0
  1  2  1  0
  2  3  1  0
  2  4  1  0
  4  5  1  0
  5  6  1  0
  6  7  1  0
  7  8  2  0
  7  9  1  0
  9  2  1  0
  9  5  1  0
  1 10  1  0
  1 11  1  0
  1 12  1  0
  3 13  1  0
  4 14  1  0
  4 15  1  0
  5 16  1  0
  6 17  1  0
  6 18  1  0
  9 19  1  0
M  END
$$$$
