gdb 5485	3.0170882	1.514967	1.3799312	2.5748	74.42	-0.23503	0.08258	0.31761	1026.124	0.158267	-422.514983	-422.507306	-422.506362	-422.547333	29.403
 OpenBabel02181911423D

 19 21  0  0  1  0  0  0  0  0999 V2000
    1.4075   -0.1375   -0.2004 C   0  0  0  0  0  0  0  0  0  0  0  0
    0.0105   -0.1746   -0.0153 O   0  0  0  0  0  0  0  0  0  0  0  0
   -0.4177    0.5210    1.1231 C   0  0  2  0  0  0  0  0  0  0  0  0
   -0.2094   -0.0629    2.5241 C   0  0  2  0  0  0  0  0  0  0  0  0
   -1.2354   -1.1467    2.8023 C   0  0  2  0  0  0  0  0  0  0  0  0
   -1.9432   -1.7953    1.6165 C   0  0  0  0  0  0  0  0  0  0  0  0
   -2.5529   -0.7120    0.9043 O   0  0  0  0  0  0  0  0  0  0  0  0
   -1.9599    0.4806    1.3761 C   0  0  1  0  0  0  0  0  0  0  0  0
   -1.6556    0.2890    2.8799 C   0  0  2  0  0  0  0  0  0  0  0  0
    1.9475   -0.6179    0.6295 H   0  0  0  0  0  0  0  0  0  0  0  0
    1.6285   -0.6795   -1.1230 H   0  0  0  0  0  0  0  0  0  0  0  0
    1.7771    0.8957   -0.2987 H   0  0  0  0  0  0  0  0  0  0  0  0
   -0.0614    1.5636    1.0998 H   0  0  0  0  0  0  0  0  0  0  0  0
    0.6720    0.0493    3.1447 H   0  0  0  0  0  0  0  0  0  0  0  0
   -1.1031   -1.7133    3.7164 H   0  0  0  0  0  0  0  0  0  0  0  0
   -1.2495   -2.3285    0.9569 H   0  0  0  0  0  0  0  0  0  0  0  0
   -2.7302   -2.4854    1.9430 H   0  0  0  0  0  0  0  0  0  0  0  0
   -2.5500    1.3263    1.0274 H   0  0  0  0  0  0  0  0  0  0  0  0
   -2.0692    0.8035    3.7352 H   0  0  0  0  0  0  0  0  0  0  0  0
  1  2  1  0  0  0  0
  1 10  1  0  0  0  0
  2  3  1  0  0  0  0
  3 13  1  6  0  0  0
  3  8  1  0  0  0  0
  3  4  1  0  0  0  0
  4  5  1  0  0  0  0
  4  9  1  0  0  0  0
  4 14  1  1  0  0  0
  5  9  1  0  0  0  0
  5 15  1  1  0  0  0
  6 17  1  0  0  0  0
  6  5  1  0  0  0  0
  7  8  1  0  0  0  0
  7  6  1  0  0  0  0
  8 18  1  6  0  0  0
  8  9  1  0  0  0  0
  9 19  1  1  0  0  0
 11  1  1  0  0  0  0
 12  1  1  0  0  0  0
 16  6  1  0  0  0  0
M TOR 0 0 1 2 3
M TOR 1 0 1 2 7
M TOR 2 0 1 2 12
M TOR 3 1 2 3 4
M TOR 4 1 2 3 8
M TOR 5 1 2 3 13
M TOR 6 1 2 7 6
M TOR 7 1 2 7 8
M TOR 8 1 2 7 17
M TOR 9 2 1 0 9
M TOR 10 2 1 0 10
M TOR 11 2 1 0 11
M TOR 12 2 3 4 5
M TOR 13 2 3 4 8
M TOR 14 2 3 4 14
M TOR 15 2 3 8 7
M TOR 16 2 3 8 18
M TOR 17 2 7 6 5
M TOR 18 2 7 8 4
M TOR 19 2 7 8 18
M TOR 20 3 2 7 6
M TOR 21 3 2 7 17
M TOR 22 3 4 5 6
M TOR 23 3 4 5 15
M TOR 24 3 4 5 16
M TOR 25 3 4 8 7
M TOR 26 3 4 8 18
M TOR 27 3 8 4 5
M TOR 28 3 8 4 14
M TOR 29 3 8 7 6
M TOR 30 3 8 7 17
M TOR 31 4 3 2 7
M TOR 32 4 3 2 12
M TOR 33 4 5 6 7
M TOR 34 4 8 3 13
M TOR 35 4 8 7 6
M TOR 36 4 8 7 17
M TOR 37 5 4 3 13
M TOR 38 5 4 8 7
M TOR 39 5 4 8 18
M TOR 40 5 6 7 8
M TOR 41 5 6 7 17
M TOR 42 6 5 4 8
M TOR 43 6 5 4 14
M TOR 44 6 7 2 12
M TOR 45 6 7 8 18
M TOR 46 7 2 3 13
M TOR 47 7 6 5 15
M TOR 48 7 6 5 16
M TOR 49 7 8 3 13
M TOR 50 7 8 4 14
M TOR 51 8 3 2 12
M TOR 52 8 4 5 15
M TOR 53 8 4 5 16
M TOR 54 8 7 2 12
M  END
$$$$
