gdb 1438	2.3727889	1.4679675	1.3313241	4.17	77.04	-0.24848	-0.03708	0.2114	1085.9072	0.15391	-422.4983	-422.489212	-422.488268	-422.531937	33.848
 OpenBabel02181911403D

 19 20  0  0  1  0  0  0  0  0999 V2000
   -0.0694   -0.1240    0.2063 C   0  0  0  0  0  0  0  0  0  0  0  0
    1.4472   -0.0335    0.0635 C   0  0  0  0  0  0  0  0  0  0  0  0
    2.1387   -0.6669    1.2672 C   0  0  0  0  0  0  0  0  0  0  0  0
    2.1305   -0.2842   -1.3233 C   0  0  1  0  0  0  0  0  0  0  0  0
    1.5433    1.0242   -1.8975 C   0  0  0  0  0  0  0  0  0  0  0  0
    2.1364    1.2960   -0.4843 C   0  0  2  0  0  0  0  0  0  0  0  0
    3.3083    0.4975   -0.8693 O   0  0  0  0  0  0  0  0  0  0  0  0
    2.3204    2.5927    0.2252 C   0  0  0  0  0  0  0  0  0  0  0  0
    3.3752    3.0104    0.6262 O   0  0  0  0  0  0  0  0  0  0  0  0
   -0.3917    0.3595    1.1349 H   0  0  0  0  0  0  0  0  0  0  0  0
   -0.6311    0.3240   -0.6144 H   0  0  0  0  0  0  0  0  0  0  0  0
   -0.3691   -1.1759    0.2753 H   0  0  0  0  0  0  0  0  0  0  0  0
    1.8685   -1.7266    1.3411 H   0  0  0  0  0  0  0  0  0  0  0  0
    3.2217   -0.5844    1.1870 H   0  0  0  0  0  0  0  0  0  0  0  0
    1.8150   -0.1855    2.1964 H   0  0  0  0  0  0  0  0  0  0  0  0
    2.3339   -1.2289   -1.8297 H   0  0  0  0  0  0  0  0  0  0  0  0
    2.1343    1.4601   -2.7028 H   0  0  0  0  0  0  0  0  0  0  0  0
    0.4714    1.1160   -2.0643 H   0  0  0  0  0  0  0  0  0  0  0  0
    1.3683    3.1536    0.3727 H   0  0  0  0  0  0  0  0  0  0  0  0
  1 12  1  0  0  0  0
  1 10  1  0  0  0  0
  2  1  1  0  0  0  0
  2  3  1  0  0  0  0
  3 13  1  0  0  0  0
  3 15  1  0  0  0  0
  4 16  1  6  0  0  0
  4  7  1  0  0  0  0
  4  2  1  0  0  0  0
  5  4  1  0  0  0  0
  5  6  1  0  0  0  0
  6  2  1  0  0  0  0
  6  8  1  1  0  0  0
  7  6  1  0  0  0  0
  8 19  1  0  0  0  0
  8  9  2  0  0  0  0
 11  1  1  0  0  0  0
 14  3  1  0  0  0  0
 17  5  1  0  0  0  0
 18  5  1  0  0  0  0
M TOR 0 0 1 2 12
M TOR 1 0 1 2 13
M TOR 2 0 1 2 14
M TOR 3 0 1 3 4
M TOR 4 0 1 3 6
M TOR 5 0 1 3 15
M TOR 6 0 1 5 4
M TOR 7 0 1 5 6
M TOR 8 0 1 5 7
M TOR 9 1 3 4 5
M TOR 10 1 3 4 16
M TOR 11 1 3 4 17
M TOR 12 1 3 6 5
M TOR 13 1 5 4 16
M TOR 14 1 5 4 17
M TOR 15 1 5 7 8
M TOR 16 1 5 7 18
M TOR 17 2 1 0 9
M TOR 18 2 1 0 10
M TOR 19 2 1 0 11
M TOR 20 2 1 3 4
M TOR 21 2 1 3 6
M TOR 22 2 1 3 15
M TOR 23 2 1 5 4
M TOR 24 2 1 5 6
M TOR 25 2 1 5 7
M TOR 26 3 1 0 9
M TOR 27 3 1 0 10
M TOR 28 3 1 0 11
M TOR 29 3 1 2 12
M TOR 30 3 1 2 13
M TOR 31 3 1 2 14
M TOR 32 3 1 5 7
M TOR 33 3 4 5 6
M TOR 34 3 4 5 7
M TOR 35 3 6 5 7
M TOR 36 4 5 7 8
M TOR 37 4 5 7 18
M TOR 38 5 1 0 9
M TOR 39 5 1 0 10
M TOR 40 5 1 0 11
M TOR 41 5 1 2 12
M TOR 42 5 1 2 13
M TOR 43 5 1 2 14
M TOR 44 5 1 3 15
M TOR 45 5 4 3 15
M TOR 46 5 6 3 15
M TOR 47 6 3 4 16
M TOR 48 6 3 4 17
M TOR 49 6 5 4 16
M TOR 50 6 5 4 17
M TOR 51 6 5 7 8
M TOR 52 6 5 7 18
M TOR 53 7 5 4 16
M TOR 54 7 5 4 17
M  END
$$$$
