
     RDKit          3D

 19 21  0  0  0  0  0  0  0  0999 V2000
   -1.3544    1.7003   -0.2548 C   0  0  0  0  0  0  0  0  0  0  0  0
   -1.2362    0.2411    0.2429 C   0  0  0  0  0  0  0  0  0  0  0  0
    0.2596    0.0253    0.2385 C   0  0  0  0  0  0  0  0  0  0  0  0
    1.0151   -1.1013    0.9022 C   0  0  0  0  0  0  0  0  0  0  0  0
    2.3611   -0.9602    0.4568 O   0  0  0  0  0  0  0  0  0  0  0  0
    2.3525   -0.4143   -0.8629 C   0  0  0  0  0  0  0  0  0  0  0  0
    1.1115    0.4563   -0.9546 C   0  0  0  0  0  0  0  0  0  0  0  0
    0.8793    1.3939    0.2034 C   0  0  0  0  0  0  0  0  0  0  0  0
   -0.1308    2.3608    0.0806 O   0  0  0  0  0  0  0  0  0  0  0  0
   -1.5051    1.7200   -1.3432 H   0  0  0  0  0  0  0  0  0  0  0  0
   -2.1740    2.2560    0.2086 H   0  0  0  0  0  0  0  0  0  0  0  0
   -1.6219    0.1381    1.2640 H   0  0  0  0  0  0  0  0  0  0  0  0
   -1.7941   -0.4489   -0.3978 H   0  0  0  0  0  0  0  0  0  0  0  0
    1.0283   -1.0501    1.9967 H   0  0  0  0  0  0  0  0  0  0  0  0
    0.5942   -2.0777    0.6075 H   0  0  0  0  0  0  0  0  0  0  0  0
    3.2961    0.1277   -0.9883 H   0  0  0  0  0  0  0  0  0  0  0  0
    2.3086   -1.2109   -1.6233 H   0  0  0  0  0  0  0  0  0  0  0  0
    0.6898    0.6721   -1.9301 H   0  0  0  0  0  0  0  0  0  0  0  0
    1.6927    1.7153    0.8456 H   0  0  0  0  0  0  0  0  0  0  0  0
  1  2  1  0
  2  3  1  0
  3  4  1  0
  4  5  1  0
  5  6  1  0
  6  7  1  0
  7  8  1  0
  8  9  1  0
  9  1  1  0
  7  3  1  0
  8  3  1  0
  1 10  1  0
  1 11  1  0
  2 12  1  0
  2 13  1  0
  4 14  1  0
  4 15  1  0
  6 16  1  0
  6 17  1  0
  7 18  1  0
  8 19  1  0
M  END
$$$$
