gdb 4422	2.6276282	1.1318096	1.062618	4.1506	77.66	-0.23444	-0.01412	0.22032000000000002	1249.2281	0.154855	-422.531808	-422.522648	-422.521704	-422.566299	33.113
 OpenBabel02181911413D

 19 20  0  0  1  0  0  0  0  0999 V2000
    2.5682    1.4796   -0.2703 C   0  0  0  0  0  0  0  0  0  0  0  0
    1.7059    0.2337   -0.1456 C   0  0  1  0  0  0  0  0  0  0  0  0
    2.0906   -1.0070   -0.9888 C   0  0  0  0  0  0  0  0  0  0  0  0
    2.1580   -1.8429    0.1932 O   0  0  0  0  0  0  0  0  0  0  0  0
    1.9386   -0.7165    1.0325 C   0  0  2  0  0  0  0  0  0  0  0  0
    1.2967   -0.8443    2.3514 C   0  0  0  0  0  0  0  0  0  0  0  0
    2.7893   -0.4698    2.2715 C   0  0  1  0  0  0  0  0  0  0  0  0
    3.7874   -1.4862    2.6701 C   0  0  0  0  0  0  0  0  0  0  0  0
    4.8617   -1.2298    3.1583 O   0  0  0  0  0  0  0  0  0  0  0  0
    2.3081    2.2223    0.4913 H   0  0  0  0  0  0  0  0  0  0  0  0
    3.6301    1.2394   -0.1588 H   0  0  0  0  0  0  0  0  0  0  0  0
    2.4265    1.9496   -1.2491 H   0  0  0  0  0  0  0  0  0  0  0  0
    0.6466    0.4869   -0.2509 H   0  0  0  0  0  0  0  0  0  0  0  0
    1.3434   -1.3746   -1.6987 H   0  0  0  0  0  0  0  0  0  0  0  0
    3.0655   -0.9340   -1.4863 H   0  0  0  0  0  0  0  0  0  0  0  0
    0.6100   -0.0773    2.6933 H   0  0  0  0  0  0  0  0  0  0  0  0
    1.0691   -1.8507    2.6909 H   0  0  0  0  0  0  0  0  0  0  0  0
    3.0705    0.5546    2.4930 H   0  0  0  0  0  0  0  0  0  0  0  0
    3.4741   -2.5365    2.4810 H   0  0  0  0  0  0  0  0  0  0  0  0
  1 11  1  0  0  0  0
  1  2  1  0  0  0  0
  1 10  1  0  0  0  0
  2 13  1  6  0  0  0
  2  5  1  0  0  0  0
  3  2  1  0  0  0  0
  3  4  1  0  0  0  0
  5  4  1  6  0  0  0
  5  7  1  0  0  0  0
  5  6  1  0  0  0  0
  6 17  1  0  0  0  0
  6 16  1  0  0  0  0
  7  6  1  0  0  0  0
  7 18  1  1  0  0  0
  7  8  1  0  0  0  0
  8  9  2  0  0  0  0
 12  1  1  0  0  0  0
 14  3  1  0  0  0  0
 15  3  1  0  0  0  0
 19  8  1  0  0  0  0
M TOR 0 0 1 2 3
M TOR 1 0 1 2 13
M TOR 2 0 1 2 14
M TOR 3 0 1 4 3
M TOR 4 0 1 4 5
M TOR 5 0 1 4 6
M TOR 6 1 2 3 4
M TOR 7 1 4 5 6
M TOR 8 1 4 5 15
M TOR 9 1 4 5 16
M TOR 10 1 4 6 7
M TOR 11 1 4 6 17
M TOR 12 2 1 0 9
M TOR 13 2 1 0 10
M TOR 14 2 1 0 11
M TOR 15 2 1 4 5
M TOR 16 2 1 4 6
M TOR 17 2 3 4 5
M TOR 18 2 3 4 6
M TOR 19 3 2 1 12
M TOR 20 3 4 1 12
M TOR 21 3 4 5 6
M TOR 22 3 4 5 15
M TOR 23 3 4 5 16
M TOR 24 3 4 6 7
M TOR 25 3 4 6 17
M TOR 26 4 1 0 9
M TOR 27 4 1 0 10
M TOR 28 4 1 0 11
M TOR 29 4 1 2 13
M TOR 30 4 1 2 14
M TOR 31 4 3 2 13
M TOR 32 4 3 2 14
M TOR 33 4 5 6 7
M TOR 34 4 5 6 17
M TOR 35 4 6 5 15
M TOR 36 4 6 5 16
M TOR 37 4 6 7 8
M TOR 38 4 6 7 18
M TOR 39 5 4 1 12
M TOR 40 5 6 7 8
M TOR 41 5 6 7 18
M TOR 42 6 4 1 12
M TOR 43 7 6 5 15
M TOR 44 7 6 5 16
M TOR 45 8 7 6 17
M  END
$$$$
