
     RDKit          3D

 19 20  0  0  0  0  0  0  0  0999 V2000
    1.3611    0.7103    0.2782 C   0  0  0  0  0  0  0  0  0  0  0  0
    0.0087    0.0716    0.2167 C   0  0  0  0  0  0  0  0  0  0  0  0
   -0.2758   -1.2330    0.1730 C   0  0  0  0  0  0  0  0  0  0  0  0
   -1.7595   -1.5382    0.1187 C   0  0  0  0  0  0  0  0  0  0  0  0
   -2.2136   -2.4135    1.1333 O   0  0  0  0  0  0  0  0  0  0  0  0
   -2.3941   -0.1300    0.2505 C   0  0  0  0  0  0  0  0  0  0  0  0
   -2.6888    0.1753    1.6406 O   0  0  0  0  0  0  0  0  0  0  0  0
   -1.7637    1.2896    1.6394 C   0  0  0  0  0  0  0  0  0  0  0  0
   -1.2515    0.9081    0.2296 C   0  0  0  0  0  0  0  0  0  0  0  0
    1.4590    1.3484    1.1660 H   0  0  0  0  0  0  0  0  0  0  0  0
    2.1594   -0.0356    0.3066 H   0  0  0  0  0  0  0  0  0  0  0  0
    1.5311    1.3597   -0.5901 H   0  0  0  0  0  0  0  0  0  0  0  0
    0.4608   -2.0297    0.1844 H   0  0  0  0  0  0  0  0  0  0  0  0
   -2.0354   -2.0124   -0.8319 H   0  0  0  0  0  0  0  0  0  0  0  0
   -2.3155   -1.8564    1.9188 H   0  0  0  0  0  0  0  0  0  0  0  0
   -3.2714    0.0310   -0.3822 H   0  0  0  0  0  0  0  0  0  0  0  0
   -2.2995    2.2451    1.6932 H   0  0  0  0  0  0  0  0  0  0  0  0
   -1.0419    1.2280    2.4618 H   0  0  0  0  0  0  0  0  0  0  0  0
   -1.2707    1.7036   -0.5190 H   0  0  0  0  0  0  0  0  0  0  0  0
  1  2  1  0
  2  3  2  0
  3  4  1  0
  4  5  1  0
  4  6  1  0
  6  7  1  0
  7  8  1  0
  8  9  1  0
  9  2  1  0
  9  6  1  0
  1 10  1  0
  1 11  1  0
  1 12  1  0
  3 13  1  0
  4 14  1  0
  5 15  1  0
  6 16  1  0
  8 17  1  0
  8 18  1  0
  9 19  1  0
M  END
$$$$
