gdb 2940	3.4899456	1.1678248	1.0067118	2.1624	78.06	-0.21124	0.02275	0.23399	1228.8058	0.155839	-422.558671	-422.54986	-422.548916	-422.591414	34.26
 OpenBabel02181911413D

 19 20  0  0  1  0  0  0  0  0999 V2000
    1.3319    0.8494    0.2287 C   0  0  0  0  0  0  0  0  0  0  0  0
   -0.0500    0.2794    0.2678 C   0  0  0  0  0  0  0  0  0  0  0  0
   -1.2055    0.9407    0.1108 C   0  0  0  0  0  0  0  0  0  0  0  0
   -2.3911    0.0565    0.2643 C   0  0  2  0  0  0  0  0  0  0  0  0
   -2.5390   -0.5867    1.6465 C   0  0  1  0  0  0  0  0  0  0  0  0
   -3.7600   -1.1976    1.9685 O   0  0  0  0  0  0  0  0  0  0  0  0
   -1.8053   -1.3281    0.5666 C   0  0  1  0  0  0  0  0  0  0  0  0
   -2.3432   -2.5183    0.1015 O   0  0  0  0  0  0  0  0  0  0  0  0
   -0.2917   -1.2030    0.4945 C   0  0  0  0  0  0  0  0  0  0  0  0
    1.8558    0.7019    1.1818 H   0  0  0  0  0  0  0  0  0  0  0  0
    1.9418    0.3550   -0.5387 H   0  0  0  0  0  0  0  0  0  0  0  0
    1.3182    1.9216    0.0141 H   0  0  0  0  0  0  0  0  0  0  0  0
   -1.2819    2.0076   -0.0734 H   0  0  0  0  0  0  0  0  0  0  0  0
   -3.2896    0.1822   -0.3321 H   0  0  0  0  0  0  0  0  0  0  0  0
   -2.0043   -0.1429    2.4871 H   0  0  0  0  0  0  0  0  0  0  0  0
   -4.4433   -0.5211    2.0136 H   0  0  0  0  0  0  0  0  0  0  0  0
   -3.1809   -2.6355    0.5711 H   0  0  0  0  0  0  0  0  0  0  0  0
    0.1978   -1.5728    1.4045 H   0  0  0  0  0  0  0  0  0  0  0  0
    0.0969   -1.8082   -0.3364 H   0  0  0  0  0  0  0  0  0  0  0  0
  1  2  1  0  0  0  0
  1 10  1  0  0  0  0
  2  9  1  0  0  0  0
  3  4  1  0  0  0  0
  3  2  2  0  0  0  0
  4 14  1  6  0  0  0
  4  7  1  0  0  0  0
  4  5  1  0  0  0  0
  5  6  1  0  0  0  0
  5 15  1  1  0  0  0
  6 16  1  0  0  0  0
  7  8  1  6  0  0  0
  7  5  1  0  0  0  0
  8 17  1  0  0  0  0
  9  7  1  0  0  0  0
  9 18  1  0  0  0  0
 11  1  1  0  0  0  0
 12  1  1  0  0  0  0
 13  3  1  0  0  0  0
 19  9  1  0  0  0  0
M TOR 0 0 1 2 3
M TOR 1 0 1 2 12
M TOR 2 0 1 8 6
M TOR 3 0 1 8 17
M TOR 4 0 1 8 18
M TOR 5 1 2 3 4
M TOR 6 1 2 3 6
M TOR 7 1 2 3 13
M TOR 8 1 8 6 3
M TOR 9 1 8 6 4
M TOR 10 1 8 6 7
M TOR 11 2 1 0 9
M TOR 12 2 1 0 10
M TOR 13 2 1 0 11
M TOR 14 2 1 8 6
M TOR 15 2 1 8 17
M TOR 16 2 1 8 18
M TOR 17 2 3 4 5
M TOR 18 2 3 4 6
M TOR 19 2 3 4 14
M TOR 20 2 3 6 7
M TOR 21 2 3 6 8
M TOR 22 3 2 1 8
M TOR 23 3 4 5 15
M TOR 24 3 4 6 7
M TOR 25 3 4 6 8
M TOR 26 3 6 4 5
M TOR 27 3 6 4 14
M TOR 28 3 6 7 16
M TOR 29 3 6 8 17
M TOR 30 3 6 8 18
M TOR 31 4 3 2 12
M TOR 32 4 6 3 13
M TOR 33 4 6 7 16
M TOR 34 4 6 8 17
M TOR 35 4 6 8 18
M TOR 36 5 4 3 13
M TOR 37 5 4 6 7
M TOR 38 5 4 6 8
M TOR 39 6 3 2 12
M TOR 40 6 4 5 15
M TOR 41 7 6 3 13
M TOR 42 7 6 4 14
M TOR 43 7 6 8 17
M TOR 44 7 6 8 18
M TOR 45 8 1 0 9
M TOR 46 8 1 0 10
M TOR 47 8 1 0 11
M TOR 48 8 1 2 12
M TOR 49 8 6 3 13
M TOR 50 8 6 4 14
M TOR 51 8 6 7 16
M  END
$$$$
