gdb 4727	1.7122657	1.6050943	1.2449906	3.258	77.62	-0.24695	-0.0332	0.21375	1160.7543	0.152737	-422.547049	-422.536431	-422.535486	-422.582397	38.288
 OpenBabel02181911413D

 19 18  0  0  1  0  0  0  0  0999 V2000
    2.5340   -0.2694   -2.5466 C   0  0  0  0  0  0  0  0  0  0  0  0
    3.0447   -0.7909   -1.2200 C   0  0  0  0  0  0  0  0  0  0  0  0
    3.7291   -1.7887   -1.1558 O   0  0  0  0  0  0  0  0  0  0  0  0
    2.6758    0.0059    0.0650 C   0  0  2  0  0  0  0  0  0  0  0  0
    3.1273    1.4800   -0.0853 C   0  0  0  0  0  0  0  0  0  0  0  0
    3.4027   -0.6200    1.2892 C   0  0  0  0  0  0  0  0  0  0  0  0
    3.0559   -1.9559    1.5382 O   0  0  0  0  0  0  0  0  0  0  0  0
    1.2247   -0.0644    0.2337 C   0  0  0  0  0  0  0  0  0  0  0  0
    0.0297   -0.1112    0.3595 C   0  0  0  0  0  0  0  0  0  0  0  0
    2.6089   -1.0574   -3.2968 H   0  0  0  0  0  0  0  0  0  0  0  0
    1.5045    0.0861   -2.4623 H   0  0  0  0  0  0  0  0  0  0  0  0
    3.1519    0.5768   -2.8680 H   0  0  0  0  0  0  0  0  0  0  0  0
    2.9108    2.0241    0.8380 H   0  0  0  0  0  0  0  0  0  0  0  0
    4.2045    1.5342   -0.2737 H   0  0  0  0  0  0  0  0  0  0  0  0
    2.6018    1.9815   -0.8999 H   0  0  0  0  0  0  0  0  0  0  0  0
    4.4852   -0.4986    1.1284 H   0  0  0  0  0  0  0  0  0  0  0  0
    3.1282   -0.0455    2.1794 H   0  0  0  0  0  0  0  0  0  0  0  0
    3.3871   -2.4529    0.7791 H   0  0  0  0  0  0  0  0  0  0  0  0
   -1.0231   -0.1652    0.4889 H   0  0  0  0  0  0  0  0  0  0  0  0
  1 11  1  0  0  0  0
  1  2  1  0  0  0  0
  2  3  2  0  0  0  0
  2  4  1  0  0  0  0
  4  8  1  1  0  0  0
  4  6  1  0  0  0  0
  5  4  1  0  0  0  0
  5 13  1  0  0  0  0
  6  7  1  0  0  0  0
  6 17  1  0  0  0  0
  8  9  3  0  0  0  0
  9 19  1  0  0  0  0
 10  1  1  0  0  0  0
 12  1  1  0  0  0  0
 14  5  1  0  0  0  0
 15  5  1  0  0  0  0
 16  6  1  0  0  0  0
 18  7  1  0  0  0  0
M TOR 0 0 1 3 4
M TOR 1 0 1 3 5
M TOR 2 0 1 3 7
M TOR 3 1 3 4 12
M TOR 4 1 3 4 13
M TOR 5 1 3 4 14
M TOR 6 1 3 5 6
M TOR 7 1 3 5 15
M TOR 8 1 3 5 16
M TOR 9 1 3 7 8
M TOR 10 2 1 0 9
M TOR 11 2 1 0 10
M TOR 12 2 1 0 11
M TOR 13 2 1 3 4
M TOR 14 2 1 3 5
M TOR 15 2 1 3 7
M TOR 16 3 1 0 9
M TOR 17 3 1 0 10
M TOR 18 3 1 0 11
M TOR 19 3 5 6 17
M TOR 20 3 7 8 18
M TOR 21 4 3 5 6
M TOR 22 4 3 5 15
M TOR 23 4 3 5 16
M TOR 24 4 3 7 8
M TOR 25 5 3 4 12
M TOR 26 5 3 4 13
M TOR 27 5 3 4 14
M TOR 28 5 3 7 8
M TOR 29 6 5 3 7
M TOR 30 7 3 4 12
M TOR 31 7 3 4 13
M TOR 32 7 3 4 14
M TOR 33 7 3 5 15
M TOR 34 7 3 5 16
M  END
$$$$
