gdb 3459	2.5177613	1.6481521	1.2315853	1.735	76.21	-0.22205	0.00825	0.2303	1066.2737	0.155683	-422.557642	-422.548676	-422.547732	-422.590511	34.617
 OpenBabel02181911413D

 19 20  0  0  1  0  0  0  0  0999 V2000
   -3.2132    0.7838    3.4408 C   0  0  0  0  0  0  0  0  0  0  0  0
   -2.3054    1.0491    2.2654 C   0  0  1  0  0  0  0  0  0  0  0  0
   -1.0193    1.8593    2.4493 C   0  0  0  0  0  0  0  0  0  0  0  0
   -0.9376    0.4057    2.1032 C   0  0  1  0  0  0  0  0  0  0  0  0
   -0.3570   -0.4254    3.0652 O   0  0  0  0  0  0  0  0  0  0  0  0
   -0.7534    0.0426    0.6266 C   0  0  2  0  0  0  0  0  0  0  0  0
    0.4049    0.5968    0.0147 O   0  0  0  0  0  0  0  0  0  0  0  0
   -2.0008    0.5966   -0.0259 C   0  0  0  0  0  0  0  0  0  0  0  0
   -2.8444    1.1145    0.8681 C   0  0  0  0  0  0  0  0  0  0  0  0
   -3.8584   -0.0837    3.2592 H   0  0  0  0  0  0  0  0  0  0  0  0
   -2.6251    0.5831    4.3411 H   0  0  0  0  0  0  0  0  0  0  0  0
   -3.8636    1.6411    3.6476 H   0  0  0  0  0  0  0  0  0  0  0  0
   -0.7458    2.5935    1.7001 H   0  0  0  0  0  0  0  0  0  0  0  0
   -0.7478    2.1019    3.4719 H   0  0  0  0  0  0  0  0  0  0  0  0
   -0.7868   -1.2870    3.0152 H   0  0  0  0  0  0  0  0  0  0  0  0
   -0.7230   -1.0603    0.5351 H   0  0  0  0  0  0  0  0  0  0  0  0
    1.1645    0.3104    0.5337 H   0  0  0  0  0  0  0  0  0  0  0  0
   -2.1386    0.5702   -1.0998 H   0  0  0  0  0  0  0  0  0  0  0  0
   -3.8052    1.5640    0.6375 H   0  0  0  0  0  0  0  0  0  0  0  0
  1 12  1  0  0  0  0
  1 11  1  0  0  0  0
  2  3  1  0  0  0  0
  2  1  1  1  0  0  0
  3 14  1  0  0  0  0
  4  2  1  0  0  0  0
  4  3  1  0  0  0  0
  4  5  1  1  0  0  0
  6 16  1  6  0  0  0
  6  4  1  0  0  0  0
  7 17  1  0  0  0  0
  7  6  1  0  0  0  0
  8  6  1  0  0  0  0
  8  9  2  0  0  0  0
  9  2  1  0  0  0  0
 10  1  1  0  0  0  0
 13  3  1  0  0  0  0
 15  5  1  0  0  0  0
 18  8  1  0  0  0  0
 19  9  1  0  0  0  0
M TOR 0 0 1 2 3
M TOR 1 0 1 2 12
M TOR 2 0 1 2 13
M TOR 3 0 1 3 4
M TOR 4 0 1 3 5
M TOR 5 0 1 8 7
M TOR 6 0 1 8 18
M TOR 7 1 2 3 4
M TOR 8 1 2 3 5
M TOR 9 1 3 2 12
M TOR 10 1 3 2 13
M TOR 11 1 3 4 14
M TOR 12 1 3 5 6
M TOR 13 1 3 5 7
M TOR 14 1 3 5 15
M TOR 15 1 8 7 5
M TOR 16 1 8 7 17
M TOR 17 2 1 0 9
M TOR 18 2 1 0 10
M TOR 19 2 1 0 11
M TOR 20 2 1 8 7
M TOR 21 2 1 8 18
M TOR 22 2 3 1 8
M TOR 23 2 3 4 14
M TOR 24 2 3 5 6
M TOR 25 2 3 5 7
M TOR 26 2 3 5 15
M TOR 27 3 1 0 9
M TOR 28 3 1 0 10
M TOR 29 3 1 0 11
M TOR 30 3 1 8 7
M TOR 31 3 1 8 18
M TOR 32 3 5 6 16
M TOR 33 3 5 7 8
M TOR 34 3 5 7 17
M TOR 35 4 3 1 8
M TOR 36 4 3 2 12
M TOR 37 4 3 2 13
M TOR 38 4 3 5 6
M TOR 39 4 3 5 7
M TOR 40 4 3 5 15
M TOR 41 5 3 1 8
M TOR 42 5 3 2 12
M TOR 43 5 3 2 13
M TOR 44 5 3 4 14
M TOR 45 5 7 8 18
M TOR 46 6 5 7 8
M TOR 47 6 5 7 17
M TOR 48 7 5 6 16
M TOR 49 8 1 0 9
M TOR 50 8 1 0 10
M TOR 51 8 1 0 11
M TOR 52 8 1 2 12
M TOR 53 8 1 2 13
M TOR 54 8 7 5 15
M  END
$$$$
