
     RDKit          3D

 19 21  0  0  0  0  0  0  0  0999 V2000
    1.5940    0.1854   -0.0122 O   0  0  0  0  0  0  0  0  0  0  0  0
    0.2103    0.5226   -0.2058 C   0  0  0  0  0  0  0  0  0  0  0  0
   -0.0559    0.4791   -1.6918 C   0  0  0  0  0  0  0  0  0  0  0  0
   -1.3379   -0.2335   -2.1034 C   0  0  0  0  0  0  0  0  0  0  0  0
   -1.5401   -0.3077   -3.6439 C   0  0  0  0  0  0  0  0  0  0  0  0
   -0.4554    0.3415   -4.4659 C   0  0  0  0  0  0  0  0  0  0  0  0
   -0.1922   -0.9848   -3.8029 C   0  0  0  0  0  0  0  0  0  0  0  0
    0.0187   -0.9078   -2.2630 C   0  0  0  0  0  0  0  0  0  0  0  0
    0.6072   -1.9545   -1.5843 O   0  0  0  0  0  0  0  0  0  0  0  0
    1.7752    0.1803    0.9333 H   0  0  0  0  0  0  0  0  0  0  0  0
   -0.4306   -0.1995    0.3180 H   0  0  0  0  0  0  0  0  0  0  0  0
   -0.0016    1.5223    0.1974 H   0  0  0  0  0  0  0  0  0  0  0  0
    0.3186    1.3485   -2.2243 H   0  0  0  0  0  0  0  0  0  0  0  0
   -2.1390   -0.4029   -1.3945 H   0  0  0  0  0  0  0  0  0  0  0  0
   -2.4860   -0.6046   -4.0781 H   0  0  0  0  0  0  0  0  0  0  0  0
   -0.6141    0.2758   -5.5391 H   0  0  0  0  0  0  0  0  0  0  0  0
    0.0414    1.2581   -4.1682 H   0  0  0  0  0  0  0  0  0  0  0  0
    0.0440   -1.8860   -4.3537 H   0  0  0  0  0  0  0  0  0  0  0  0
    1.2979   -1.5660   -1.0266 H   0  0  0  0  0  0  0  0  0  0  0  0
  1  2  1  0
  2  3  1  0
  3  4  1  0
  4  5  1  0
  5  6  1  0
  6  7  1  0
  7  8  1  0
  8  9  1  0
  8  3  1  0
  8  4  1  0
  7  5  1  0
  1 10  1  0
  2 11  1  0
  2 12  1  0
  3 13  1  0
  4 14  1  0
  5 15  1  0
  6 16  1  0
  6 17  1  0
  7 18  1  0
  9 19  1  0
M  END
$$$$
