gdb 2955	2.6445038	1.4325756	1.2217276	4.6509	75.5	-0.25638	0.01931	0.27569	1110.2233	0.15745	-422.571303	-422.562852	-422.561908	-422.604445	31.677
 OpenBabel02181911413D

 19 20  0  0  1  0  0  0  0  0999 V2000
   -2.8308   -1.4256   -1.5831 C   0  0  0  0  0  0  0  0  0  0  0  0
   -1.6517   -0.6027   -1.0803 C   0  0  1  0  0  0  0  0  0  0  0  0
   -1.8125    0.4676    0.0328 C   0  0  2  0  0  0  0  0  0  0  0  0
   -0.4921    1.0982   -0.0105 O   0  0  0  0  0  0  0  0  0  0  0  0
    0.3447   -0.0014   -0.0402 C   0  0  0  0  0  0  0  0  0  0  0  0
    1.5352    0.0649   -0.0818 O   0  0  0  0  0  0  0  0  0  0  0  0
   -0.6353   -1.1656   -0.0032 C   0  0  1  0  0  0  0  0  0  0  0  0
   -1.5728   -0.6007    1.1384 C   0  0  2  0  0  0  0  0  0  0  0  0
   -2.6809   -1.4653    1.7260 C   0  0  0  0  0  0  0  0  0  0  0  0
   -3.5108   -1.7780   -0.8101 H   0  0  0  0  0  0  0  0  0  0  0  0
   -3.4187   -0.8200   -2.2816 H   0  0  0  0  0  0  0  0  0  0  0  0
   -2.4699   -2.2991   -2.1362 H   0  0  0  0  0  0  0  0  0  0  0  0
   -1.1430   -0.1881   -1.9569 H   0  0  0  0  0  0  0  0  0  0  0  0
   -2.5815    1.2385    0.0584 H   0  0  0  0  0  0  0  0  0  0  0  0
   -0.2124   -2.1675   -0.0152 H   0  0  0  0  0  0  0  0  0  0  0  0
   -1.0161   -0.1650    1.9748 H   0  0  0  0  0  0  0  0  0  0  0  0
   -2.2518   -2.1328    2.4806 H   0  0  0  0  0  0  0  0  0  0  0  0
   -3.4215   -0.8371    2.2336 H   0  0  0  0  0  0  0  0  0  0  0  0
   -3.2050   -2.0919    1.0070 H   0  0  0  0  0  0  0  0  0  0  0  0
  1  2  1  0  0  0  0
  1 10  1  0  0  0  0
  2 13  1  6  0  0  0
  2  7  1  0  0  0  0
  2  3  1  0  0  0  0
  3 14  1  1  0  0  0
  3  8  1  0  0  0  0
  4  3  1  0  0  0  0
  5  4  1  0  0  0  0
  5  7  1  0  0  0  0
  6  5  2  0  0  0  0
  7 15  1  6  0  0  0
  7  8  1  0  0  0  0
  8  9  1  0  0  0  0
  8 16  1  1  0  0  0
  9 18  1  0  0  0  0
  9 17  1  0  0  0  0
 11  1  1  0  0  0  0
 12  1  1  0  0  0  0
 19  9  1  0  0  0  0
M TOR 0 0 1 2 3
M TOR 1 0 1 2 7
M TOR 2 0 1 2 13
M TOR 3 0 1 6 4
M TOR 4 0 1 6 7
M TOR 5 0 1 6 14
M TOR 6 1 2 3 4
M TOR 7 1 2 7 6
M TOR 8 1 2 7 8
M TOR 9 1 2 7 15
M TOR 10 1 6 4 3
M TOR 11 1 6 4 5
M TOR 12 1 6 7 8
M TOR 13 1 6 7 15
M TOR 14 2 1 0 9
M TOR 15 2 1 0 10
M TOR 16 2 1 0 11
M TOR 17 2 1 6 4
M TOR 18 2 1 6 14
M TOR 19 2 3 4 5
M TOR 20 2 3 4 6
M TOR 21 2 7 6 4
M TOR 22 2 7 6 14
M TOR 23 2 7 8 16
M TOR 24 2 7 8 17
M TOR 25 2 7 8 18
M TOR 26 3 2 1 6
M TOR 27 3 2 1 12
M TOR 28 3 2 7 6
M TOR 29 3 2 7 8
M TOR 30 3 2 7 15
M TOR 31 3 4 6 7
M TOR 32 3 4 6 14
M TOR 33 4 3 2 7
M TOR 34 4 3 2 13
M TOR 35 4 6 1 12
M TOR 36 4 6 7 8
M TOR 37 4 6 7 15
M TOR 38 5 4 6 7
M TOR 39 5 4 6 14
M TOR 40 6 1 0 9
M TOR 41 6 1 0 10
M TOR 42 6 1 0 11
M TOR 43 6 1 2 13
M TOR 44 6 7 2 13
M TOR 45 6 7 8 16
M TOR 46 6 7 8 17
M TOR 47 6 7 8 18
M TOR 48 7 2 1 12
M TOR 49 7 6 1 12
M TOR 50 8 7 2 13
M TOR 51 8 7 6 14
M  END
$$$$
