
     RDKit          3D

 19 20  0  0  0  0  0  0  0  0999 V2000
    0.4251    0.4519    0.8404 O   0  0  0  0  0  0  0  0  0  0  0  0
   -0.8116    1.0965    0.5516 C   0  0  0  0  0  0  0  0  0  0  0  0
   -1.9011    0.0766    0.2926 C   0  0  0  0  0  0  0  0  0  0  0  0
   -2.4128   -0.0805   -0.9281 C   0  0  0  0  0  0  0  0  0  0  0  0
   -1.9322    0.7990   -2.0616 C   0  0  0  0  0  0  0  0  0  0  0  0
   -2.6774    2.1536   -2.0550 C   0  0  0  0  0  0  0  0  0  0  0  0
   -1.9368    2.9033   -0.9169 C   0  0  0  0  0  0  0  0  0  0  0  0
   -0.6802    2.0269   -0.6657 C   0  0  0  0  0  0  0  0  0  0  0  0
   -0.5759    1.1886   -1.8268 O   0  0  0  0  0  0  0  0  0  0  0  0
    0.6546   -0.0365    0.0398 H   0  0  0  0  0  0  0  0  0  0  0  0
   -1.0433    1.6895    1.4444 H   0  0  0  0  0  0  0  0  0  0  0  0
   -2.2026   -0.5515    1.1258 H   0  0  0  0  0  0  0  0  0  0  0  0
   -3.1960   -0.8049   -1.1346 H   0  0  0  0  0  0  0  0  0  0  0  0
   -1.9673    0.2813   -3.0230 H   0  0  0  0  0  0  0  0  0  0  0  0
   -2.5350    2.6564   -3.0152 H   0  0  0  0  0  0  0  0  0  0  0  0
   -3.7498    2.0497   -1.8758 H   0  0  0  0  0  0  0  0  0  0  0  0
   -1.6561    3.9132   -1.2221 H   0  0  0  0  0  0  0  0  0  0  0  0
   -2.5480    2.9904   -0.0150 H   0  0  0  0  0  0  0  0  0  0  0  0
    0.2478    2.5972   -0.5872 H   0  0  0  0  0  0  0  0  0  0  0  0
  1  2  1  0
  2  3  1  0
  3  4  2  0
  4  5  1  0
  5  6  1  0
  6  7  1  0
  7  8  1  0
  8  9  1  0
  8  2  1  0
  9  5  1  0
  1 10  1  0
  2 11  1  0
  3 12  1  0
  4 13  1  0
  5 14  1  0
  6 15  1  0
  6 16  1  0
  7 17  1  0
  7 18  1  0
  8 19  1  0
M  END
$$$$
