
     RDKit          3D

 19 21  0  0  0  0  0  0  0  0999 V2000
    2.2420   -0.6233   -1.0149 C   0  0  0  0  0  0  0  0  0  0  0  0
    1.1055    0.3753   -0.9016 C   0  0  0  0  0  0  0  0  0  0  0  0
    1.0421    1.2047    0.3745 C   0  0  0  0  0  0  0  0  0  0  0  0
    2.2504    1.4234    1.2785 C   0  0  0  0  0  0  0  0  0  0  0  0
    2.7180    0.1918    2.0614 C   0  0  0  0  0  0  0  0  0  0  0  0
    3.1478   -0.8997    1.2603 O   0  0  0  0  0  0  0  0  0  0  0  0
    2.1995   -1.3867    0.3314 C   0  0  0  0  0  0  0  0  0  0  0  0
    0.8726   -1.2699    0.8090 O   0  0  0  0  0  0  0  0  0  0  0  0
    0.2908   -0.1041    0.2659 C   0  0  0  0  0  0  0  0  0  0  0  0
    2.0493   -1.3123   -1.8437 H   0  0  0  0  0  0  0  0  0  0  0  0
    3.2308   -0.1817   -1.1600 H   0  0  0  0  0  0  0  0  0  0  0  0
    0.6496    0.7590   -1.8066 H   0  0  0  0  0  0  0  0  0  0  0  0
    0.4003    2.0772    0.2817 H   0  0  0  0  0  0  0  0  0  0  0  0
    3.0869    1.8251    0.6924 H   0  0  0  0  0  0  0  0  0  0  0  0
    1.9963    2.1901    2.0205 H   0  0  0  0  0  0  0  0  0  0  0  0
    3.5901    0.4528    2.6680 H   0  0  0  0  0  0  0  0  0  0  0  0
    1.9186   -0.1327    2.7388 H   0  0  0  0  0  0  0  0  0  0  0  0
    2.4245   -2.4515    0.2266 H   0  0  0  0  0  0  0  0  0  0  0  0
   -0.7912   -0.1455    0.2962 H   0  0  0  0  0  0  0  0  0  0  0  0
  1  2  1  0
  2  3  1  0
  3  4  1  0
  4  5  1  0
  5  6  1  0
  6  7  1  0
  7  8  1  0
  8  9  1  0
  7  1  1  0
  9  2  1  0
  9  3  1  0
  1 10  1  0
  1 11  1  0
  2 12  1  0
  3 13  1  0
  4 14  1  0
  4 15  1  0
  5 16  1  0
  5 17  1  0
  7 18  1  0
  9 19  1  0
M  END
$$$$
