gdb 5331	3.2039136	1.1776972	0.95208	2.5064	77.34	-0.24443	-0.00381	0.24062	1267.2936	0.156512	-422.54719	-422.538387	-422.537442	-422.580835	32.748
 OpenBabel02181911423D

 19 20  0  0  1  0  0  0  0  0999 V2000
    3.1906    2.9417    0.2834 C   0  0  0  0  0  0  0  0  0  0  0  0
    1.7747    2.5433   -0.1584 C   0  0  1  0  0  0  0  0  0  0  0  0
    1.6006    1.0444   -0.3217 C   0  0  0  0  0  0  0  0  0  0  0  0
    0.7236    0.5184    0.5423 C   0  0  0  0  0  0  0  0  0  0  0  0
    0.3081   -0.9117    0.6828 C   0  0  0  0  0  0  0  0  0  0  0  0
   -1.1043   -1.0692    0.6044 O   0  0  0  0  0  0  0  0  0  0  0  0
    0.1005    1.6177    1.3484 C   0  0  2  0  0  0  0  0  0  0  0  0
   -0.6204    2.5679    0.5280 O   0  0  0  0  0  0  0  0  0  0  0  0
    0.7220    2.8757    0.9004 C   0  0  2  0  0  0  0  0  0  0  0  0
    3.4519    2.4660    1.2342 H   0  0  0  0  0  0  0  0  0  0  0  0
    3.9336    2.6357   -0.4593 H   0  0  0  0  0  0  0  0  0  0  0  0
    3.2689    4.0268    0.4109 H   0  0  0  0  0  0  0  0  0  0  0  0
    1.5355    3.0612   -1.0970 H   0  0  0  0  0  0  0  0  0  0  0  0
    2.1370    0.4818   -1.0799 H   0  0  0  0  0  0  0  0  0  0  0  0
    0.8329   -1.5309   -0.0610 H   0  0  0  0  0  0  0  0  0  0  0  0
    0.5821   -1.2976    1.6729 H   0  0  0  0  0  0  0  0  0  0  0  0
   -1.4001   -0.6168   -0.1930 H   0  0  0  0  0  0  0  0  0  0  0  0
   -0.3192    1.4498    2.3353 H   0  0  0  0  0  0  0  0  0  0  0  0
    0.8445    3.7466    1.5407 H   0  0  0  0  0  0  0  0  0  0  0  0
  1 12  1  0  0  0  0
  1 10  1  0  0  0  0
  2 13  1  6  0  0  0
  2  1  1  0  0  0  0
  2  9  1  0  0  0  0
  3  2  1  0  0  0  0
  3  4  2  0  0  0  0
  4  5  1  0  0  0  0
  4  7  1  0  0  0  0
  5 16  1  0  0  0  0
  6  5  1  0  0  0  0
  7 18  1  1  0  0  0
  8  9  1  0  0  0  0
  8  7  1  0  0  0  0
  9  7  1  0  0  0  0
  9 19  1  1  0  0  0
 11  1  1  0  0  0  0
 14  3  1  0  0  0  0
 15  5  1  0  0  0  0
 17  6  1  0  0  0  0
M TOR 0 0 1 2 3
M TOR 1 0 1 2 13
M TOR 2 0 1 8 6
M TOR 3 0 1 8 7
M TOR 4 0 1 8 18
M TOR 5 1 2 3 4
M TOR 6 1 2 3 6
M TOR 7 1 8 6 3
M TOR 8 1 8 6 7
M TOR 9 1 8 6 17
M TOR 10 2 1 0 9
M TOR 11 2 1 0 10
M TOR 12 2 1 0 11
M TOR 13 2 1 8 6
M TOR 14 2 1 8 7
M TOR 15 2 1 8 18
M TOR 16 2 3 4 5
M TOR 17 2 3 4 14
M TOR 18 2 3 4 15
M TOR 19 2 3 6 7
M TOR 20 2 3 6 8
M TOR 21 2 3 6 17
M TOR 22 3 2 1 8
M TOR 23 3 2 1 12
M TOR 24 3 4 5 16
M TOR 25 3 6 7 8
M TOR 26 3 6 8 18
M TOR 27 4 3 2 13
M TOR 28 4 3 6 7
M TOR 29 4 3 6 8
M TOR 30 4 3 6 17
M TOR 31 5 4 3 6
M TOR 32 6 3 2 13
M TOR 33 6 3 4 14
M TOR 34 6 3 4 15
M TOR 35 6 7 8 18
M TOR 36 6 8 1 12
M TOR 37 7 8 1 12
M TOR 38 7 8 6 17
M TOR 39 8 1 0 9
M TOR 40 8 1 0 10
M TOR 41 8 1 0 11
M TOR 42 8 1 2 13
M  END
$$$$
