
     RDKit          3D

 19 21  0  0  0  0  0  0  0  0999 V2000
    1.7779    3.4075   -1.0138 C   0  0  0  0  0  0  0  0  0  0  0  0
    1.1773    2.7742    0.2160 C   0  0  0  0  0  0  0  0  0  0  0  0
   -0.1621    2.3417    0.1797 O   0  0  0  0  0  0  0  0  0  0  0  0
   -0.3430    1.0858   -0.4454 C   0  0  0  0  0  0  0  0  0  0  0  0
    0.2496   -0.0959    0.3658 C   0  0  0  0  0  0  0  0  0  0  0  0
    1.5866   -0.3998   -0.3568 C   0  0  0  0  0  0  0  0  0  0  0  0
    1.6991    0.8004   -1.3147 C   0  0  0  0  0  0  0  0  0  0  0  0
    0.3323    1.0413   -1.6879 O   0  0  0  0  0  0  0  0  0  0  0  0
    2.2193    2.0263   -0.5810 C   0  0  0  0  0  0  0  0  0  0  0  0
    1.1301    3.4681   -1.8803 H   0  0  0  0  0  0  0  0  0  0  0  0
    2.4707    4.2321   -0.8854 H   0  0  0  0  0  0  0  0  0  0  0  0
    1.4369    3.1796    1.1892 H   0  0  0  0  0  0  0  0  0  0  0  0
   -1.4149    1.0092   -0.6331 H   0  0  0  0  0  0  0  0  0  0  0  0
    0.3783    0.1898    1.4114 H   0  0  0  0  0  0  0  0  0  0  0  0
   -0.4296   -0.9507    0.3344 H   0  0  0  0  0  0  0  0  0  0  0  0
    2.4367   -0.4749    0.3256 H   0  0  0  0  0  0  0  0  0  0  0  0
    1.5255   -1.3303   -0.9267 H   0  0  0  0  0  0  0  0  0  0  0  0
    2.2578    0.5949   -2.2311 H   0  0  0  0  0  0  0  0  0  0  0  0
    3.2085    1.9206   -0.1454 H   0  0  0  0  0  0  0  0  0  0  0  0
  1  2  1  0
  2  3  1  0
  3  4  1  0
  4  5  1  0
  5  6  1  0
  6  7  1  0
  7  8  1  0
  7  9  1  0
  9  1  1  0
  9  2  1  0
  8  4  1  0
  1 10  1  0
  1 11  1  0
  2 12  1  0
  4 13  1  0
  5 14  1  0
  5 15  1  0
  6 16  1  0
  6 17  1  0
  7 18  1  0
  9 19  1  0
M  END
$$$$
