gdb 2781	2.1538356	1.5292782	1.032846	4.4226	76.32	-0.23359	-0.00725	0.22633999999999999	1197.6037	0.156658	-422.583731	-422.575037	-422.574093	-422.616944	32.923
 OpenBabel02181911413D

 19 20  0  0  1  0  0  0  0  0999 V2000
   -2.0402   -2.6168   -1.9475 C   0  0  0  0  0  0  0  0  0  0  0  0
   -1.6507   -1.2601   -1.4025 C   0  0  1  0  0  0  0  0  0  0  0  0
   -2.2973   -0.7319   -0.1646 C   0  0  1  0  0  0  0  0  0  0  0  0
   -0.8545   -1.2045   -0.0968 C   0  0  2  0  0  0  0  0  0  0  0  0
    0.0003    0.0087    0.0792 C   0  0  0  0  0  0  0  0  0  0  0  0
    1.1612    0.0264    0.4026 O   0  0  0  0  0  0  0  0  0  0  0  0
   -0.8759    1.2458   -0.1871 C   0  0  0  0  0  0  0  0  0  0  0  0
   -2.3234    0.7859    0.0385 C   0  0  2  0  0  0  0  0  0  0  0  0
   -2.6475    1.1174    1.3838 O   0  0  0  0  0  0  0  0  0  0  0  0
   -2.3059   -3.3062   -1.1398 H   0  0  0  0  0  0  0  0  0  0  0  0
   -2.9040   -2.5356   -2.6162 H   0  0  0  0  0  0  0  0  0  0  0  0
   -1.2179   -3.0659   -2.5138 H   0  0  0  0  0  0  0  0  0  0  0  0
   -1.3764   -0.5363   -2.1667 H   0  0  0  0  0  0  0  0  0  0  0  0
   -3.0918   -1.3148    0.2928 H   0  0  0  0  0  0  0  0  0  0  0  0
   -0.5413   -2.1347    0.3605 H   0  0  0  0  0  0  0  0  0  0  0  0
   -0.6102    2.0596    0.4889 H   0  0  0  0  0  0  0  0  0  0  0  0
   -0.7086    1.5959   -1.2113 H   0  0  0  0  0  0  0  0  0  0  0  0
   -3.0263    1.2715   -0.6547 H   0  0  0  0  0  0  0  0  0  0  0  0
   -3.5233    0.7671    1.5767 H   0  0  0  0  0  0  0  0  0  0  0  0
  1  2  1  0  0  0  0
  1 10  1  0  0  0  0
  2 13  1  6  0  0  0
  2  3  1  0  0  0  0
  2  4  1  0  0  0  0
  3  4  1  0  0  0  0
  3  8  1  0  0  0  0
  3 14  1  1  0  0  0
  4  5  1  0  0  0  0
  4 15  1  1  0  0  0
  5  6  2  0  0  0  0
  7  8  1  0  0  0  0
  7  5  1  0  0  0  0
  7 16  1  0  0  0  0
  8 18  1  6  0  0  0
  8  9  1  0  0  0  0
  9 19  1  0  0  0  0
 11  1  1  0  0  0  0
 12  1  1  0  0  0  0
 17  7  1  0  0  0  0
M TOR 0 0 1 2 3
M TOR 1 0 1 2 7
M TOR 2 0 1 2 13
M TOR 3 0 1 3 4
M TOR 4 0 1 3 14
M TOR 5 1 2 3 4
M TOR 6 1 2 3 14
M TOR 7 1 2 7 6
M TOR 8 1 2 7 8
M TOR 9 1 2 7 17
M TOR 10 1 3 2 7
M TOR 11 1 3 2 13
M TOR 12 1 3 4 5
M TOR 13 1 3 4 6
M TOR 14 2 1 0 9
M TOR 15 2 1 0 10
M TOR 16 2 1 0 11
M TOR 17 2 3 1 12
M TOR 18 2 3 4 5
M TOR 19 2 3 4 6
M TOR 20 2 7 6 4
M TOR 21 2 7 6 15
M TOR 22 2 7 6 16
M TOR 23 2 7 8 18
M TOR 24 3 1 0 9
M TOR 25 3 1 0 10
M TOR 26 3 1 0 11
M TOR 27 3 2 7 6
M TOR 28 3 2 7 8
M TOR 29 3 2 7 17
M TOR 30 3 4 6 7
M TOR 31 3 4 6 15
M TOR 32 3 4 6 16
M TOR 33 4 3 1 12
M TOR 34 4 3 2 7
M TOR 35 4 3 2 13
M TOR 36 4 6 7 8
M TOR 37 4 6 7 17
M TOR 38 5 4 3 14
M TOR 39 5 4 6 7
M TOR 40 5 4 6 15
M TOR 41 5 4 6 16
M TOR 42 6 4 3 14
M TOR 43 6 7 2 13
M TOR 44 6 7 8 18
M TOR 45 7 2 1 12
M TOR 46 7 2 3 14
M TOR 47 8 7 2 13
M TOR 48 8 7 6 15
M TOR 49 8 7 6 16
M  END
$$$$
