
     RDKit          3D

 19 19  0  0  0  0  0  0  0  0999 V2000
    1.6100    0.7440   -0.1315 O   0  0  0  0  0  0  0  0  0  0  0  0
    0.2758    0.3361    0.1305 C   0  0  0  0  0  0  0  0  0  0  0  0
   -0.7490    1.1631   -0.6558 C   0  0  0  0  0  0  0  0  0  0  0  0
   -2.1707    0.7143   -0.4046 C   0  0  0  0  0  0  0  0  0  0  0  0
   -2.5280    0.8475    0.9394 O   0  0  0  0  0  0  0  0  0  0  0  0
   -2.7543   -0.4281   -1.1876 C   0  0  0  0  0  0  0  0  0  0  0  0
   -3.2419    0.9995   -1.4594 C   0  0  0  0  0  0  0  0  0  0  0  0
   -4.5300    1.4092   -0.9922 C   0  0  0  0  0  0  0  0  0  0  0  0
   -5.5770    1.7684   -0.5153 C   0  0  0  0  0  0  0  0  0  0  0  0
    1.7262    1.6232    0.2421 H   0  0  0  0  0  0  0  0  0  0  0  0
    0.2197   -0.7141   -0.1755 H   0  0  0  0  0  0  0  0  0  0  0  0
    0.0400    0.3769    1.2024 H   0  0  0  0  0  0  0  0  0  0  0  0
   -0.6587    2.2194   -0.3689 H   0  0  0  0  0  0  0  0  0  0  0  0
   -0.5157    1.0925   -1.7237 H   0  0  0  0  0  0  0  0  0  0  0  0
   -3.4253    1.2056    0.9827 H   0  0  0  0  0  0  0  0  0  0  0  0
   -2.1617   -0.8986   -1.9648 H   0  0  0  0  0  0  0  0  0  0  0  0
   -3.4399   -1.0842   -0.6648 H   0  0  0  0  0  0  0  0  0  0  0  0
   -2.9054    1.4640   -2.3812 H   0  0  0  0  0  0  0  0  0  0  0  0
   -6.5220    2.0735   -0.1390 H   0  0  0  0  0  0  0  0  0  0  0  0
  1  2  1  0
  2  3  1  0
  3  4  1  0
  4  5  1  0
  4  6  1  0
  6  7  1  0
  7  8  1  0
  8  9  3  0
  7  4  1  0
  1 10  1  0
  2 11  1  0
  2 12  1  0
  3 13  1  0
  3 14  1  0
  5 15  1  0
  6 16  1  0
  6 17  1  0
  7 18  1  0
  9 19  1  0
M  END
$$$$
