gdb 5108	3.7232981	1.2235375	1.0915948	1.1732	73.74	-0.25161	0.07507	0.32667999999999997	1138.4201	0.157877	-422.534325	-422.526415	-422.525471	-422.566682	30.991
 OpenBabel02181911423D

 19 21  0  0  1  0  0  0  0  0999 V2000
    1.6917    0.4295   -0.0774 O   0  0  0  0  0  0  0  0  0  0  0  0
    0.4158    0.1150    0.4648 C   0  0  0  0  0  0  0  0  0  0  0  0
   -0.4852    1.3202    0.5669 C   0  0  2  0  0  0  0  0  0  0  0  0
   -0.4353    2.1544    1.8279 C   0  0  0  0  0  0  0  0  0  0  0  0
   -1.6755    1.3504    1.5155 C   0  0  1  0  0  0  0  0  0  0  0  0
   -2.7900    2.0849    0.8041 C   0  0  1  0  0  0  0  0  0  0  0  0
   -2.5009    3.4589    0.5052 O   0  0  0  0  0  0  0  0  0  0  0  0
   -2.3326    2.4862   -0.5365 C   0  0  1  0  0  0  0  0  0  0  0  0
   -0.9013    2.0110   -0.7432 C   0  0  0  0  0  0  0  0  0  0  0  0
    2.0724    1.1227    0.4727 H   0  0  0  0  0  0  0  0  0  0  0  0
   -0.0109   -0.6285   -0.2187 H   0  0  0  0  0  0  0  0  0  0  0  0
    0.5058   -0.3630    1.4542 H   0  0  0  0  0  0  0  0  0  0  0  0
    0.1938    1.7911    2.6356 H   0  0  0  0  0  0  0  0  0  0  0  0
   -0.5135    3.2316    1.7507 H   0  0  0  0  0  0  0  0  0  0  0  0
   -1.9350    0.4979    2.1328 H   0  0  0  0  0  0  0  0  0  0  0  0
   -3.8266    1.8709    1.0487 H   0  0  0  0  0  0  0  0  0  0  0  0
   -2.9959    2.6121   -1.3895 H   0  0  0  0  0  0  0  0  0  0  0  0
   -0.8775    1.2841   -1.5635 H   0  0  0  0  0  0  0  0  0  0  0  0
   -0.2368    2.8336   -1.0254 H   0  0  0  0  0  0  0  0  0  0  0  0
  1  2  1  0  0  0  0
  1 10  1  0  0  0  0
  2 12  1  0  0  0  0
  3  2  1  6  0  0  0
  3  5  1  0  0  0  0
  3  4  1  0  0  0  0
  4 13  1  0  0  0  0
  5  4  1  0  0  0  0
  5 15  1  1  0  0  0
  6 16  1  1  0  0  0
  6  5  1  0  0  0  0
  7  6  1  0  0  0  0
  8 17  1  6  0  0  0
  8  7  1  0  0  0  0
  8  6  1  0  0  0  0
  9  8  1  0  0  0  0
  9  3  1  0  0  0  0
 11  2  1  0  0  0  0
 14  4  1  0  0  0  0
 18  9  1  0  0  0  0
 19  9  1  0  0  0  0
M TOR 0 0 1 2 3
M TOR 1 0 1 2 4
M TOR 2 0 1 2 8
M TOR 3 1 2 3 4
M TOR 4 1 2 3 12
M TOR 5 1 2 3 13
M TOR 6 1 2 4 5
M TOR 7 1 2 4 14
M TOR 8 1 2 8 7
M TOR 9 1 2 8 17
M TOR 10 1 2 8 18
M TOR 11 2 1 0 9
M TOR 12 2 3 4 5
M TOR 13 2 3 4 14
M TOR 14 2 4 3 12
M TOR 15 2 4 3 13
M TOR 16 2 4 5 6
M TOR 17 2 4 5 7
M TOR 18 2 4 5 15
M TOR 19 2 8 7 5
M TOR 20 2 8 7 6
M TOR 21 2 8 7 16
M TOR 22 3 2 1 10
M TOR 23 3 2 1 11
M TOR 24 3 2 8 7
M TOR 25 3 2 8 17
M TOR 26 3 2 8 18
M TOR 27 3 4 2 8
M TOR 28 3 4 5 6
M TOR 29 3 4 5 7
M TOR 30 3 4 5 15
M TOR 31 4 2 1 10
M TOR 32 4 2 1 11
M TOR 33 4 2 8 7
M TOR 34 4 2 8 17
M TOR 35 4 2 8 18
M TOR 36 4 5 6 7
M TOR 37 4 5 7 8
M TOR 38 4 5 7 16
M TOR 39 5 4 2 8
M TOR 40 5 4 3 12
M TOR 41 5 4 3 13
M TOR 42 5 6 7 8
M TOR 43 5 6 7 16
M TOR 44 5 7 8 17
M TOR 45 5 7 8 18
M TOR 46 6 5 4 14
M TOR 47 6 7 5 15
M TOR 48 6 7 8 17
M TOR 49 6 7 8 18
M TOR 50 7 5 4 14
M TOR 51 8 2 1 10
M TOR 52 8 2 1 11
M TOR 53 8 2 3 12
M TOR 54 8 2 3 13
M TOR 55 8 2 4 14
M TOR 56 8 7 5 15
M  END
$$$$
