
     RDKit          3D

 19 21  0  0  0  0  0  0  0  0999 V2000
   -0.3312    0.4017   -0.1439 C   0  0  0  0  0  0  0  0  0  0  0  0
    0.2384    1.4256   -1.1337 C   0  0  0  0  0  0  0  0  0  0  0  0
    0.6759    0.7811   -2.4411 C   0  0  0  0  0  0  0  0  0  0  0  0
    1.5730    1.4911   -3.4983 C   0  0  0  0  0  0  0  0  0  0  0  0
    1.8703    0.1528   -4.0708 O   0  0  0  0  0  0  0  0  0  0  0  0
    1.9971   -0.0349   -2.6029 C   0  0  0  0  0  0  0  0  0  0  0  0
    2.7854    1.2846   -2.5753 C   0  0  0  0  0  0  0  0  0  0  0  0
    3.6141    2.0541   -1.6577 C   0  0  0  0  0  0  0  0  0  0  0  0
    4.1301    1.4780   -2.8814 O   0  0  0  0  0  0  0  0  0  0  0  0
   -0.6739    0.8879    0.7743 H   0  0  0  0  0  0  0  0  0  0  0  0
   -1.1826   -0.1349   -0.5761 H   0  0  0  0  0  0  0  0  0  0  0  0
    0.4215   -0.3437    0.1343 H   0  0  0  0  0  0  0  0  0  0  0  0
   -0.5270    2.1791   -1.3593 H   0  0  0  0  0  0  0  0  0  0  0  0
    1.0709    1.9641   -0.6699 H   0  0  0  0  0  0  0  0  0  0  0  0
   -0.1434    0.2573   -2.9413 H   0  0  0  0  0  0  0  0  0  0  0  0
    1.3396    2.2988   -4.1913 H   0  0  0  0  0  0  0  0  0  0  0  0
    2.2656   -1.0270   -2.2421 H   0  0  0  0  0  0  0  0  0  0  0  0
    3.5563    3.1414   -1.6474 H   0  0  0  0  0  0  0  0  0  0  0  0
    3.9854    1.5991   -0.7406 H   0  0  0  0  0  0  0  0  0  0  0  0
  1  2  1  0
  2  3  1  0
  3  4  1  0
  4  5  1  0
  5  6  1  0
  6  7  1  0
  7  8  1  0
  8  9  1  0
  6  3  1  0
  9  7  1  0
  7  4  1  0
  1 10  1  0
  1 11  1  0
  1 12  1  0
  2 13  1  0
  2 14  1  0
  3 15  1  0
  4 16  1  0
  6 17  1  0
  8 18  1  0
  8 19  1  0
M  END
$$$$
