
     RDKit          3D

 19 21  0  0  0  0  0  0  0  0999 V2000
    1.4239   -0.0984    0.0958 C   0  0  0  0  0  0  0  0  0  0  0  0
    0.0101    0.0291    0.0947 O   0  0  0  0  0  0  0  0  0  0  0  0
   -0.4614    0.7012    1.2373 C   0  0  0  0  0  0  0  0  0  0  0  0
   -1.9028    1.1260    1.0675 C   0  0  0  0  0  0  0  0  0  0  0  0
   -2.4459    1.9539    2.2667 C   0  0  0  0  0  0  0  0  0  0  0  0
   -1.4602    2.1927    3.3835 C   0  0  0  0  0  0  0  0  0  0  0  0
   -1.3303    2.9732    2.1015 C   0  0  0  0  0  0  0  0  0  0  0  0
   -0.7711    2.1448    0.9271 C   0  0  0  0  0  0  0  0  0  0  0  0
   -0.2387    2.7971   -0.1647 O   0  0  0  0  0  0  0  0  0  0  0  0
    1.7679   -0.6933    0.9542 H   0  0  0  0  0  0  0  0  0  0  0  0
    1.6983   -0.6164   -0.8261 H   0  0  0  0  0  0  0  0  0  0  0  0
    1.9225    0.8798    0.1271 H   0  0  0  0  0  0  0  0  0  0  0  0
   -0.0411    0.3080    2.1644 H   0  0  0  0  0  0  0  0  0  0  0  0
   -2.5333    0.6441    0.3309 H   0  0  0  0  0  0  0  0  0  0  0  0
   -3.5038    2.1460    2.3899 H   0  0  0  0  0  0  0  0  0  0  0  0
   -1.8626    2.7696    4.2116 H   0  0  0  0  0  0  0  0  0  0  0  0
   -0.7323    1.4533    3.6965 H   0  0  0  0  0  0  0  0  0  0  0  0
   -1.4015    4.0516    2.0517 H   0  0  0  0  0  0  0  0  0  0  0  0
   -0.0592    2.1113   -0.8216 H   0  0  0  0  0  0  0  0  0  0  0  0
  1  2  1  0
  2  3  1  0
  3  4  1  0
  4  5  1  0
  5  6  1  0
  6  7  1  0
  7  8  1  0
  8  9  1  0
  8  3  1  0
  8  4  1  0
  7  5  1  0
  1 10  1  0
  1 11  1  0
  1 12  1  0
  3 13  1  0
  4 14  1  0
  5 15  1  0
  6 16  1  0
  6 17  1  0
  7 18  1  0
  9 19  1  0
M  END
$$$$
