
     RDKit          3D

 19 19  0  0  0  0  0  0  0  0999 V2000
   -1.1616   -1.8946   -1.7209 C   0  0  0  0  0  0  0  0  0  0  0  0
   -0.9483   -0.9475   -0.5403 C   0  0  0  0  0  0  0  0  0  0  0  0
   -2.2351   -0.4714   -0.1892 O   0  0  0  0  0  0  0  0  0  0  0  0
   -2.2407    0.5027    0.8333 C   0  0  0  0  0  0  0  0  0  0  0  0
   -1.3827    1.7151    0.4868 C   0  0  0  0  0  0  0  0  0  0  0  0
   -1.6033    2.8113    0.9617 O   0  0  0  0  0  0  0  0  0  0  0  0
   -0.2356    1.4244   -0.3832 C   0  0  0  0  0  0  0  0  0  0  0  0
    0.0261    0.1832   -0.8268 C   0  0  0  0  0  0  0  0  0  0  0  0
    1.2893   -0.1486   -1.5678 C   0  0  0  0  0  0  0  0  0  0  0  0
   -1.9196   -2.6324   -1.4486 H   0  0  0  0  0  0  0  0  0  0  0  0
   -1.5179   -1.3418   -2.5948 H   0  0  0  0  0  0  0  0  0  0  0  0
   -0.2418   -2.4218   -1.9833 H   0  0  0  0  0  0  0  0  0  0  0  0
   -0.5285   -1.5315    0.3042 H   0  0  0  0  0  0  0  0  0  0  0  0
   -3.2758    0.8186    0.9789 H   0  0  0  0  0  0  0  0  0  0  0  0
   -1.8754    0.0842    1.7893 H   0  0  0  0  0  0  0  0  0  0  0  0
    0.4375    2.2537   -0.5830 H   0  0  0  0  0  0  0  0  0  0  0  0
    1.8190   -0.9799   -1.0857 H   0  0  0  0  0  0  0  0  0  0  0  0
    1.0795   -0.4668   -2.5953 H   0  0  0  0  0  0  0  0  0  0  0  0
    1.9618    0.7111   -1.6041 H   0  0  0  0  0  0  0  0  0  0  0  0
  1  2  1  0
  2  3  1  0
  3  4  1  0
  4  5  1  0
  5  6  2  0
  5  7  1  0
  7  8  2  0
  8  9  1  0
  8  2  1  0
  1 10  1  0
  1 11  1  0
  1 12  1  0
  2 13  1  0
  4 14  1  0
  4 15  1  0
  7 16  1  0
  9 17  1  0
  9 18  1  0
  9 19  1  0
M  END
$$$$
