
     RDKit          3D

 19 19  0  0  0  0  0  0  0  0999 V2000
    1.3910    0.4521   -0.4669 C   0  0  0  0  0  0  0  0  0  0  0  0
   -0.0090    0.1946    0.0107 C   0  0  0  0  0  0  0  0  0  0  0  0
   -1.0869    0.7989   -0.4932 C   0  0  0  0  0  0  0  0  0  0  0  0
   -2.4628    0.5325    0.0748 C   0  0  0  0  0  0  0  0  0  0  0  0
   -3.4915    1.0219   -0.7376 O   0  0  0  0  0  0  0  0  0  0  0  0
   -2.6085   -0.9765    0.2812 C   0  0  0  0  0  0  0  0  0  0  0  0
   -3.6111   -1.5393   -0.1006 O   0  0  0  0  0  0  0  0  0  0  0  0
   -1.4326   -1.6935    0.9163 C   0  0  0  0  0  0  0  0  0  0  0  0
   -0.2071   -0.7882    1.1504 C   0  0  0  0  0  0  0  0  0  0  0  0
    2.0257    0.8190    0.3503 H   0  0  0  0  0  0  0  0  0  0  0  0
    1.8606   -0.4699   -0.8337 H   0  0  0  0  0  0  0  0  0  0  0  0
    1.4132    1.1912   -1.2717 H   0  0  0  0  0  0  0  0  0  0  0  0
   -1.0355    1.5157   -1.3066 H   0  0  0  0  0  0  0  0  0  0  0  0
   -2.5285    0.9881    1.0847 H   0  0  0  0  0  0  0  0  0  0  0  0
   -4.0990    0.2726   -0.8516 H   0  0  0  0  0  0  0  0  0  0  0  0
   -1.7763   -2.1594    1.8468 H   0  0  0  0  0  0  0  0  0  0  0  0
   -1.1767   -2.5188    0.2426 H   0  0  0  0  0  0  0  0  0  0  0  0
   -0.3315   -0.2322    2.0909 H   0  0  0  0  0  0  0  0  0  0  0  0
    0.6829   -1.4099    1.2875 H   0  0  0  0  0  0  0  0  0  0  0  0
  1  2  1  0
  2  3  2  0
  3  4  1  0
  4  5  1  0
  4  6  1  0
  6  7  2  0
  6  8  1  0
  8  9  1  0
  9  2  1  0
  1 10  1  0
  1 11  1  0
  1 12  1  0
  3 13  1  0
  4 14  1  0
  5 15  1  0
  8 16  1  0
  8 17  1  0
  9 18  1  0
  9 19  1  0
M  END
$$$$
