gdb 3543	2.8356899	1.3278664	1.003684	3.4916	76.35	-0.23924	-0.01513	0.22411	1194.8468	0.156958	-422.58266	-422.574137	-422.573192	-422.615766	32.619
 OpenBabel02181911413D

 19 20  0  0  1  0  0  0  0  0999 V2000
   -2.9501   -1.7197    1.3208 O   0  0  0  0  0  0  0  0  0  0  0  0
   -1.9203   -0.7668    1.1372 C   0  0  1  0  0  0  0  0  0  0  0  0
   -0.8706   -1.3209    0.1696 C   0  0  0  0  0  0  0  0  0  0  0  0
   -0.2133   -0.0819   -0.4363 C   0  0  0  0  0  0  0  0  0  0  0  0
    0.8506   -0.0369   -1.0062 O   0  0  0  0  0  0  0  0  0  0  0  0
   -1.1218    1.0890   -0.1841 C   0  0  0  0  0  0  0  0  0  0  0  0
   -1.0648    2.2690   -1.1279 C   0  0  0  0  0  0  0  0  0  0  0  0
   -0.4450    2.3932    0.2245 C   0  0  0  0  0  0  0  0  0  0  0  0
   -2.3837    0.5525    0.4708 C   0  0  0  0  0  0  0  0  0  0  0  0
   -3.5770   -1.3660    1.9600 H   0  0  0  0  0  0  0  0  0  0  0  0
   -1.4359   -0.5317    2.0983 H   0  0  0  0  0  0  0  0  0  0  0  0
   -0.1404   -2.0003    0.6121 H   0  0  0  0  0  0  0  0  0  0  0  0
   -1.3894   -1.8634   -0.6327 H   0  0  0  0  0  0  0  0  0  0  0  0
   -0.3992    2.1640   -1.9780 H   0  0  0  0  0  0  0  0  0  0  0  0
   -1.9966    2.7888   -1.3232 H   0  0  0  0  0  0  0  0  0  0  0  0
    0.6373    2.3740    0.2887 H   0  0  0  0  0  0  0  0  0  0  0  0
   -0.9493    2.9901    0.9771 H   0  0  0  0  0  0  0  0  0  0  0  0
   -2.8376    1.2487    1.1832 H   0  0  0  0  0  0  0  0  0  0  0  0
   -3.1412    0.3001   -0.2819 H   0  0  0  0  0  0  0  0  0  0  0  0
  1 10  1  0  0  0  0
  2  1  1  0  0  0  0
  2 11  1  1  0  0  0
  3 12  1  0  0  0  0
  3  2  1  0  0  0  0
  4  6  1  0  0  0  0
  4  3  1  0  0  0  0
  5  4  2  0  0  0  0
  6  8  1  0  0  0  0
  6  9  1  0  0  0  0
  7  6  1  0  0  0  0
  7  8  1  0  0  0  0
  8 16  1  0  0  0  0
  8 17  1  0  0  0  0
  9  2  1  0  0  0  0
  9 18  1  0  0  0  0
 13  3  1  0  0  0  0
 14  7  1  0  0  0  0
 15  7  1  0  0  0  0
 19  9  1  0  0  0  0
M TOR 0 0 1 2 3
M TOR 1 0 1 2 11
M TOR 2 0 1 2 12
M TOR 3 0 1 8 5
M TOR 4 0 1 8 17
M TOR 5 0 1 8 18
M TOR 6 1 2 3 4
M TOR 7 1 2 3 5
M TOR 8 1 8 5 3
M TOR 9 1 8 5 6
M TOR 10 1 8 5 7
M TOR 11 2 1 0 9
M TOR 12 2 1 8 5
M TOR 13 2 1 8 17
M TOR 14 2 1 8 18
M TOR 15 2 3 5 6
M TOR 16 2 3 5 7
M TOR 17 2 3 5 8
M TOR 18 3 2 1 8
M TOR 19 3 2 1 10
M TOR 20 3 5 6 7
M TOR 21 3 5 6 13
M TOR 22 3 5 6 14
M TOR 23 3 5 7 15
M TOR 24 3 5 7 16
M TOR 25 3 5 8 17
M TOR 26 3 5 8 18
M TOR 27 4 3 2 11
M TOR 28 4 3 2 12
M TOR 29 4 3 5 6
M TOR 30 4 3 5 7
M TOR 31 4 3 5 8
M TOR 32 5 3 2 11
M TOR 33 5 3 2 12
M TOR 34 5 6 7 15
M TOR 35 5 6 7 16
M TOR 36 5 7 6 13
M TOR 37 5 7 6 14
M TOR 38 5 8 1 10
M TOR 39 6 5 8 17
M TOR 40 6 5 8 18
M TOR 41 6 7 5 8
M TOR 42 7 5 8 17
M TOR 43 7 5 8 18
M TOR 44 8 1 0 9
M TOR 45 8 1 2 11
M TOR 46 8 1 2 12
M TOR 47 8 5 6 13
M TOR 48 8 5 6 14
M TOR 49 8 5 7 15
M TOR 50 8 5 7 16
M  END
$$$$
