
     RDKit          3D

 19 20  0  0  0  0  0  0  0  0999 V2000
   -1.0223    2.0644   -1.2389 C   0  0  0  0  0  0  0  0  0  0  0  0
   -1.0782    1.1084   -0.0471 C   0  0  0  0  0  0  0  0  0  0  0  0
   -1.0376    1.8591    1.2890 C   0  0  0  0  0  0  0  0  0  0  0  0
   -2.1780   -0.0137   -0.1167 C   0  0  0  0  0  0  0  0  0  0  0  0
   -1.0837   -1.0821    0.0280 C   0  0  0  0  0  0  0  0  0  0  0  0
   -1.0349   -2.2992    0.8573 C   0  0  0  0  0  0  0  0  0  0  0  0
   -1.0657   -2.3649   -0.5651 O   0  0  0  0  0  0  0  0  0  0  0  0
   -0.0077   -0.0150   -0.1084 C   0  0  0  0  0  0  0  0  0  0  0  0
    1.1806   -0.0241   -0.2490 O   0  0  0  0  0  0  0  0  0  0  0  0
   -1.0470    1.5238   -2.1902 H   0  0  0  0  0  0  0  0  0  0  0  0
   -1.8716    2.7560   -1.2195 H   0  0  0  0  0  0  0  0  0  0  0  0
   -0.1000    2.6531   -1.2128 H   0  0  0  0  0  0  0  0  0  0  0  0
   -1.0818    1.1727    2.1411 H   0  0  0  0  0  0  0  0  0  0  0  0
   -0.1155    2.4422    1.3744 H   0  0  0  0  0  0  0  0  0  0  0  0
   -1.8865    2.5472    1.3673 H   0  0  0  0  0  0  0  0  0  0  0  0
   -2.9307    0.0081    0.6740 H   0  0  0  0  0  0  0  0  0  0  0  0
   -2.6764   -0.0636   -1.0880 H   0  0  0  0  0  0  0  0  0  0  0  0
   -0.0941   -2.5936    1.3196 H   0  0  0  0  0  0  0  0  0  0  0  0
   -1.9432   -2.6216    1.3648 H   0  0  0  0  0  0  0  0  0  0  0  0
  1  2  1  0
  2  3  1  0
  2  4  1  0
  4  5  1  0
  5  6  1  0
  6  7  1  0
  5  8  1  0
  8  9  2  0
  8  2  1  0
  7  5  1  0
  1 10  1  0
  1 11  1  0
  1 12  1  0
  3 13  1  0
  3 14  1  0
  3 15  1  0
  4 16  1  0
  4 17  1  0
  6 18  1  0
  6 19  1  0
M  END
$$$$
