
     RDKit          3D

 19 21  0  0  0  0  0  0  0  0999 V2000
    0.7625    0.5155    0.8301 O   0  0  0  0  0  0  0  0  0  0  0  0
   -0.6524    0.5126    0.8708 C   0  0  0  0  0  0  0  0  0  0  0  0
   -1.2322    0.4048    2.3638 C   0  0  0  0  0  0  0  0  0  0  0  0
   -1.6003    1.7195    2.8509 O   0  0  0  0  0  0  0  0  0  0  0  0
   -0.9531    2.5519    1.8897 C   0  0  0  0  0  0  0  0  0  0  0  0
   -1.1516    3.9495    1.3076 C   0  0  0  0  0  0  0  0  0  0  0  0
   -2.1591    4.0905    0.2014 C   0  0  0  0  0  0  0  0  0  0  0  0
   -0.9282    3.2759   -0.0860 C   0  0  0  0  0  0  0  0  0  0  0  0
   -1.2167    1.8873    0.5647 C   0  0  0  0  0  0  0  0  0  0  0  0
    1.0778   -0.3143    1.2018 H   0  0  0  0  0  0  0  0  0  0  0  0
   -1.0553   -0.2981    0.2489 H   0  0  0  0  0  0  0  0  0  0  0  0
   -2.1201   -0.2343    2.4084 H   0  0  0  0  0  0  0  0  0  0  0  0
   -0.4513   -0.0275    3.0047 H   0  0  0  0  0  0  0  0  0  0  0  0
    0.1286    2.5004    2.0799 H   0  0  0  0  0  0  0  0  0  0  0  0
   -0.6460    4.8226    1.7023 H   0  0  0  0  0  0  0  0  0  0  0  0
   -3.1323    3.6072    0.2440 H   0  0  0  0  0  0  0  0  0  0  0  0
   -2.1862    5.0847   -0.2349 H   0  0  0  0  0  0  0  0  0  0  0  0
   -0.1922    3.5325   -0.8352 H   0  0  0  0  0  0  0  0  0  0  0  0
   -2.2943    1.7112    0.4613 H   0  0  0  0  0  0  0  0  0  0  0  0
  1  2  1  0
  2  3  1  0
  3  4  1  0
  4  5  1  0
  5  6  1  0
  6  7  1  0
  7  8  1  0
  8  9  1  0
  9  2  1  0
  9  5  1  0
  8  6  1  0
  1 10  1  0
  2 11  1  0
  3 12  1  0
  3 13  1  0
  5 14  1  0
  6 15  1  0
  7 16  1  0
  7 17  1  0
  8 18  1  0
  9 19  1  0
M  END
$$$$
