
     RDKit          3D

 19 20  0  0  0  0  0  0  0  0999 V2000
    4.8156   -0.5231    0.3986 C   0  0  0  0  0  0  0  0  0  0  0  0
    4.1616    0.7928   -0.0222 C   0  0  0  0  0  0  0  0  0  0  0  0
    4.1305    0.7858   -1.4507 O   0  0  0  0  0  0  0  0  0  0  0  0
    2.7764    0.9658    0.5300 C   0  0  0  0  0  0  0  0  0  0  0  0
    2.3500    1.8833    1.4063 C   0  0  0  0  0  0  0  0  0  0  0  0
    0.8707    1.7623    1.7111 C   0  0  0  0  0  0  0  0  0  0  0  0
    0.4223    0.6497    0.7699 C   0  0  0  0  0  0  0  0  0  0  0  0
    0.6098    0.9436   -0.6165 O   0  0  0  0  0  0  0  0  0  0  0  0
    1.6101    0.1459    0.0606 C   0  0  0  0  0  0  0  0  0  0  0  0
    4.9428   -0.5596    1.4838 H   0  0  0  0  0  0  0  0  0  0  0  0
    4.2071   -1.3769    0.0861 H   0  0  0  0  0  0  0  0  0  0  0  0
    5.7960   -0.6140   -0.0771 H   0  0  0  0  0  0  0  0  0  0  0  0
    4.7872    1.6237    0.3424 H   0  0  0  0  0  0  0  0  0  0  0  0
    3.5917    1.5318   -1.7353 H   0  0  0  0  0  0  0  0  0  0  0  0
    2.9705    2.6628    1.8363 H   0  0  0  0  0  0  0  0  0  0  0  0
    0.6879    1.4911    2.7591 H   0  0  0  0  0  0  0  0  0  0  0  0
    0.3280    2.6970    1.5249 H   0  0  0  0  0  0  0  0  0  0  0  0
   -0.4423    0.0343    1.0032 H   0  0  0  0  0  0  0  0  0  0  0  0
    1.7192   -0.8664   -0.3143 H   0  0  0  0  0  0  0  0  0  0  0  0
  1  2  1  0
  2  3  1  0
  2  4  1  0
  4  5  2  0
  5  6  1  0
  6  7  1  0
  7  8  1  0
  8  9  1  0
  9  4  1  0
  9  7  1  0
  1 10  1  0
  1 11  1  0
  1 12  1  0
  2 13  1  0
  3 14  1  0
  5 15  1  0
  6 16  1  0
  6 17  1  0
  7 18  1  0
  9 19  1  0
M  END
$$$$
