gdb 606	2.2861547	2.1712765	1.8325562	2.4132	73.13	-0.24615	0.07311	0.31926	878.1109	0.161055	-422.557778	-422.550862	-422.549918	-422.589195	27.583
 OpenBabel02181911403D

 19 21  0  0  1  0  0  0  0  0999 V2000
    2.2999   -0.1985   -1.3794 C   0  0  0  0  0  0  0  0  0  0  0  0
    3.3796    0.0918   -0.4913 O   0  0  0  0  0  0  0  0  0  0  0  0
    3.1609    0.9785    0.5833 C   0  0  1  0  0  0  0  0  0  0  0  0
    2.1999    2.1179    0.2324 C   0  0  0  0  0  0  0  0  0  0  0  0
    0.8496    1.5143   -0.0953 C   0  0  1  0  0  0  0  0  0  0  0  0
    0.9312    0.2456   -0.9047 C   0  0  2  0  0  0  0  0  0  0  0  0
    0.5443    0.1815    0.5550 C   0  0  1  0  0  0  0  0  0  0  0  0
    1.4850   -0.3880    1.6053 C   0  0  0  0  0  0  0  0  0  0  0  0
    2.7144    0.3150    1.7465 O   0  0  0  0  0  0  0  0  0  0  0  0
    2.5105    0.2757   -2.3503 H   0  0  0  0  0  0  0  0  0  0  0  0
    2.3128   -1.2840   -1.5429 H   0  0  0  0  0  0  0  0  0  0  0  0
    4.1511    1.3560    0.8504 H   0  0  0  0  0  0  0  0  0  0  0  0
    2.1431    2.7937    1.0915 H   0  0  0  0  0  0  0  0  0  0  0  0
    2.5933    2.6865   -0.6189 H   0  0  0  0  0  0  0  0  0  0  0  0
    0.0306    2.2035   -0.2750 H   0  0  0  0  0  0  0  0  0  0  0  0
    0.1449    0.0458   -1.6274 H   0  0  0  0  0  0  0  0  0  0  0  0
   -0.5010   -0.0401    0.7484 H   0  0  0  0  0  0  0  0  0  0  0  0
    1.0029   -0.3468    2.5883 H   0  0  0  0  0  0  0  0  0  0  0  0
    1.6919   -1.4470    1.3879 H   0  0  0  0  0  0  0  0  0  0  0  0
  1  6  1  0  0  0  0
  1  2  1  0  0  0  0
  2  3  1  0  0  0  0
  3 12  1  1  0  0  0
  3  9  1  0  0  0  0
  4  3  1  0  0  0  0
  4 13  1  0  0  0  0
  5 15  1  6  0  0  0
  5  4  1  0  0  0  0
  5  7  1  0  0  0  0
  6 16  1  6  0  0  0
  6  5  1  0  0  0  0
  6  7  1  0  0  0  0
  7 17  1  1  0  0  0
  7  8  1  0  0  0  0
  8  9  1  0  0  0  0
  8 18  1  0  0  0  0
 10  1  1  0  0  0  0
 11  1  1  0  0  0  0
 14  4  1  0  0  0  0
 19  8  1  0  0  0  0
M TOR 0 0 1 2 3
M TOR 1 0 1 2 8
M TOR 2 0 1 2 11
M TOR 3 0 5 4 3
M TOR 4 0 5 4 6
M TOR 5 0 5 4 14
M TOR 6 0 5 6 7
M TOR 7 0 5 6 16
M TOR 8 1 0 5 4
M TOR 9 1 0 5 6
M TOR 10 1 0 5 15
M TOR 11 1 2 3 4
M TOR 12 1 2 3 12
M TOR 13 1 2 3 13
M TOR 14 1 2 8 7
M TOR 15 2 1 0 5
M TOR 16 2 1 0 9
M TOR 17 2 1 0 10
M TOR 18 2 3 4 5
M TOR 19 2 3 4 6
M TOR 20 2 3 4 14
M TOR 21 2 8 7 6
M TOR 22 2 8 7 17
M TOR 23 2 8 7 18
M TOR 24 3 2 8 7
M TOR 25 3 4 5 6
M TOR 26 3 4 5 15
M TOR 27 3 4 6 7
M TOR 28 3 4 6 16
M TOR 29 4 3 2 8
M TOR 30 4 3 2 11
M TOR 31 4 5 0 9
M TOR 32 4 5 0 10
M TOR 33 4 5 6 7
M TOR 34 4 5 6 16
M TOR 35 4 6 5 15
M TOR 36 4 6 7 8
M TOR 37 4 6 7 17
M TOR 38 4 6 7 18
M TOR 39 5 4 3 12
M TOR 40 5 4 3 13
M TOR 41 5 6 4 14
M TOR 42 5 6 7 8
M TOR 43 5 6 7 17
M TOR 44 5 6 7 18
M TOR 45 6 4 3 12
M TOR 46 6 4 3 13
M TOR 47 6 5 0 9
M TOR 48 6 5 0 10
M TOR 49 7 6 4 14
M TOR 50 7 6 5 15
M TOR 51 7 8 2 11
M TOR 52 8 2 3 12
M TOR 53 8 2 3 13
M TOR 54 8 7 6 16
M  END
$$$$
