
     RDKit          3D

 19 20  0  0  0  0  0  0  0  0999 V2000
    1.4542   -0.0997    0.0769 C   0  0  0  0  0  0  0  0  0  0  0  0
    0.0408   -0.0202    0.1465 O   0  0  0  0  0  0  0  0  0  0  0  0
   -0.4066    0.6601    1.2739 C   0  0  0  0  0  0  0  0  0  0  0  0
   -1.8873    1.0030    1.1793 C   0  0  0  0  0  0  0  0  0  0  0  0
   -2.3499    1.5831    2.4733 C   0  0  0  0  0  0  0  0  0  0  0  0
   -3.3318    1.4357    3.1454 O   0  0  0  0  0  0  0  0  0  0  0  0
   -1.2003    2.6258    2.5071 C   0  0  0  0  0  0  0  0  0  0  0  0
   -0.7618    2.1016    1.1268 C   0  0  0  0  0  0  0  0  0  0  0  0
   -0.3608    2.9580   -0.0367 C   0  0  0  0  0  0  0  0  0  0  0  0
    1.8689   -0.6129    0.9566 H   0  0  0  0  0  0  0  0  0  0  0  0
    1.6956   -0.6777   -0.8175 H   0  0  0  0  0  0  0  0  0  0  0  0
    1.9173    0.8936    0.0009 H   0  0  0  0  0  0  0  0  0  0  0  0
    0.0127    0.2833    2.2117 H   0  0  0  0  0  0  0  0  0  0  0  0
   -2.4774    0.5482    0.3929 H   0  0  0  0  0  0  0  0  0  0  0  0
   -1.6107    3.6400    2.4795 H   0  0  0  0  0  0  0  0  0  0  0  0
   -0.4749    2.5552    3.3244 H   0  0  0  0  0  0  0  0  0  0  0  0
   -0.2142    2.3472   -0.9309 H   0  0  0  0  0  0  0  0  0  0  0  0
   -1.1251    3.7110   -0.2571 H   0  0  0  0  0  0  0  0  0  0  0  0
    0.5753    3.4899    0.1723 H   0  0  0  0  0  0  0  0  0  0  0  0
  1  2  1  0
  2  3  1  0
  3  4  1  0
  4  5  1  0
  5  6  2  0
  5  7  1  0
  7  8  1  0
  8  9  1  0
  8  3  1  0
  8  4  1  0
  1 10  1  0
  1 11  1  0
  1 12  1  0
  3 13  1  0
  4 14  1  0
  7 15  1  0
  7 16  1  0
  9 17  1  0
  9 18  1  0
  9 19  1  0
M  END
$$$$
