
     RDKit          3D

 19 19  0  0  0  0  0  0  0  0999 V2000
   -1.3855    0.1654   -4.5025 C   0  0  0  0  0  0  0  0  0  0  0  0
   -0.7815    0.9059   -3.3166 C   0  0  0  0  0  0  0  0  0  0  0  0
    0.6287    0.9633   -3.5241 O   0  0  0  0  0  0  0  0  0  0  0  0
   -1.1008    0.2531   -1.9624 C   0  0  0  0  0  0  0  0  0  0  0  0
   -0.5814   -1.1817   -1.7415 C   0  0  0  0  0  0  0  0  0  0  0  0
   -0.0033   -1.1522   -0.3491 C   0  0  0  0  0  0  0  0  0  0  0  0
    0.0483    0.0792    0.1744 C   0  0  0  0  0  0  0  0  0  0  0  0
   -0.4818    1.0555   -0.8000 C   0  0  0  0  0  0  0  0  0  0  0  0
   -0.4117    2.2652   -0.7472 O   0  0  0  0  0  0  0  0  0  0  0  0
   -0.9837   -0.8499   -4.5776 H   0  0  0  0  0  0  0  0  0  0  0  0
   -2.4737    0.1009   -4.4067 H   0  0  0  0  0  0  0  0  0  0  0  0
   -1.1468    0.6904   -5.4310 H   0  0  0  0  0  0  0  0  0  0  0  0
   -1.1908    1.9253   -3.2804 H   0  0  0  0  0  0  0  0  0  0  0  0
    0.9733    1.6441   -2.9357 H   0  0  0  0  0  0  0  0  0  0  0  0
   -2.1887    0.2810   -1.8123 H   0  0  0  0  0  0  0  0  0  0  0  0
   -1.3523   -1.9518   -1.8494 H   0  0  0  0  0  0  0  0  0  0  0  0
    0.2112   -1.4189   -2.4630 H   0  0  0  0  0  0  0  0  0  0  0  0
    0.3566   -2.0521    0.1392 H   0  0  0  0  0  0  0  0  0  0  0  0
    0.4602    0.3700    1.1320 H   0  0  0  0  0  0  0  0  0  0  0  0
  1  2  1  0
  2  3  1  0
  2  4  1  0
  4  5  1  0
  5  6  1  0
  6  7  2  0
  7  8  1  0
  8  9  2  0
  8  4  1  0
  1 10  1  0
  1 11  1  0
  1 12  1  0
  2 13  1  0
  3 14  1  0
  4 15  1  0
  5 16  1  0
  5 17  1  0
  6 18  1  0
  7 19  1  0
M  END
$$$$
