
     RDKit          3D

 19 21  0  0  0  0  0  0  0  0999 V2000
   -0.7016    0.0516    0.4992 O   0  0  0  0  0  0  0  0  0  0  0  0
   -1.8238    0.8306    0.3005 C   0  0  0  0  0  0  0  0  0  0  0  0
   -3.2953    0.3964    0.0590 C   0  0  0  0  0  0  0  0  0  0  0  0
   -3.2973    1.9434   -0.0495 C   0  0  0  0  0  0  0  0  0  0  0  0
   -2.3650    1.9869    1.2109 C   0  0  0  0  0  0  0  0  0  0  0  0
   -1.4390    3.1881    1.3753 C   0  0  0  0  0  0  0  0  0  0  0  0
   -1.2535    3.8527    0.0094 C   0  0  0  0  0  0  0  0  0  0  0  0
   -1.1107    2.8874   -1.0247 O   0  0  0  0  0  0  0  0  0  0  0  0
   -1.9885    1.8037   -0.8969 C   0  0  0  0  0  0  0  0  0  0  0  0
   -0.8205   -0.4607    1.3064 H   0  0  0  0  0  0  0  0  0  0  0  0
   -3.5041   -0.1651   -0.8558 H   0  0  0  0  0  0  0  0  0  0  0  0
   -3.8253   -0.0177    0.9209 H   0  0  0  0  0  0  0  0  0  0  0  0
   -4.1603    2.5727   -0.2542 H   0  0  0  0  0  0  0  0  0  0  0  0
   -2.8334    1.6599    2.1456 H   0  0  0  0  0  0  0  0  0  0  0  0
   -1.8475    3.9168    2.0842 H   0  0  0  0  0  0  0  0  0  0  0  0
   -0.4762    2.8479    1.7765 H   0  0  0  0  0  0  0  0  0  0  0  0
   -2.1265    4.4886   -0.2063 H   0  0  0  0  0  0  0  0  0  0  0  0
   -0.3622    4.4844   -0.0295 H   0  0  0  0  0  0  0  0  0  0  0  0
   -2.0831    1.3421   -1.8832 H   0  0  0  0  0  0  0  0  0  0  0  0
  1  2  1  0
  2  3  1  0
  3  4  1  0
  4  5  1  0
  5  6  1  0
  6  7  1  0
  7  8  1  0
  8  9  1  0
  5  2  1  0
  9  2  1  0
  9  4  1  0
  1 10  1  0
  3 11  1  0
  3 12  1  0
  4 13  1  0
  5 14  1  0
  6 15  1  0
  6 16  1  0
  7 17  1  0
  7 18  1  0
  9 19  1  0
M  END
$$$$
