
     RDKit          3D

 19 20  0  0  0  0  0  0  0  0999 V2000
   -0.1173    0.1913    0.2942 C   0  0  0  0  0  0  0  0  0  0  0  0
    1.3901    0.0058    0.0877 C   0  0  0  0  0  0  0  0  0  0  0  0
    1.5977   -1.3503   -0.2555 O   0  0  0  0  0  0  0  0  0  0  0  0
    2.1751    0.4698    1.3062 C   0  0  0  0  0  0  0  0  0  0  0  0
    2.7810    1.6390    1.1090 C   0  0  0  0  0  0  0  0  0  0  0  0
    2.5556    2.1720   -0.2904 C   0  0  0  0  0  0  0  0  0  0  0  0
    1.9688    0.9545   -0.9936 C   0  0  0  0  0  0  0  0  0  0  0  0
    1.6070    0.8596   -2.4056 C   0  0  0  0  0  0  0  0  0  0  0  0
    2.8418    0.2962   -1.9299 O   0  0  0  0  0  0  0  0  0  0  0  0
   -0.4567   -0.4385    1.1219 H   0  0  0  0  0  0  0  0  0  0  0  0
   -0.3618    1.2308    0.5314 H   0  0  0  0  0  0  0  0  0  0  0  0
   -0.6619   -0.1089   -0.6056 H   0  0  0  0  0  0  0  0  0  0  0  0
    2.3694   -1.3598   -0.8399 H   0  0  0  0  0  0  0  0  0  0  0  0
    2.1742   -0.1074    2.2236 H   0  0  0  0  0  0  0  0  0  0  0  0
    3.3582    2.1829    1.8483 H   0  0  0  0  0  0  0  0  0  0  0  0
    1.8588    3.0214   -0.2933 H   0  0  0  0  0  0  0  0  0  0  0  0
    3.4717    2.5039   -0.7900 H   0  0  0  0  0  0  0  0  0  0  0  0
    0.8619    0.1300   -2.7187 H   0  0  0  0  0  0  0  0  0  0  0  0
    1.7186    1.7232   -3.0594 H   0  0  0  0  0  0  0  0  0  0  0  0
  1  2  1  0
  2  3  1  0
  2  4  1  0
  4  5  2  0
  5  6  1  0
  6  7  1  0
  7  8  1  0
  8  9  1  0
  7  2  1  0
  9  7  1  0
  1 10  1  0
  1 11  1  0
  1 12  1  0
  3 13  1  0
  4 14  1  0
  5 15  1  0
  6 16  1  0
  6 17  1  0
  8 18  1  0
  8 19  1  0
M  END
$$$$
