
     RDKit          3D

 19 21  0  0  0  0  0  0  0  0999 V2000
   -0.1518    0.2192   -0.0363 C   0  0  0  0  0  0  0  0  0  0  0  0
    1.3549    0.0314    0.0665 C   0  0  0  0  0  0  0  0  0  0  0  0
    1.8733   -0.9917    1.1202 C   0  0  0  0  0  0  0  0  0  0  0  0
    0.9868   -2.1181    1.3508 O   0  0  0  0  0  0  0  0  0  0  0  0
    1.8099   -3.0093    0.5515 C   0  0  0  0  0  0  0  0  0  0  0  0
    2.6015   -1.8246    0.0335 C   0  0  0  0  0  0  0  0  0  0  0  0
    3.9777   -1.5030   -0.5186 C   0  0  0  0  0  0  0  0  0  0  0  0
    3.4209   -0.4181   -1.3073 O   0  0  0  0  0  0  0  0  0  0  0  0
    2.0590   -0.8289   -1.0219 C   0  0  0  0  0  0  0  0  0  0  0  0
   -0.5389    0.7685    0.8282 H   0  0  0  0  0  0  0  0  0  0  0  0
   -0.4112    0.7836   -0.9381 H   0  0  0  0  0  0  0  0  0  0  0  0
   -0.6640   -0.7460   -0.0692 H   0  0  0  0  0  0  0  0  0  0  0  0
    1.8691    0.9934    0.1619 H   0  0  0  0  0  0  0  0  0  0  0  0
    2.3233   -0.6311    2.0508 H   0  0  0  0  0  0  0  0  0  0  0  0
    2.3768   -3.7023    1.1890 H   0  0  0  0  0  0  0  0  0  0  0  0
    1.2230   -3.5849   -0.1738 H   0  0  0  0  0  0  0  0  0  0  0  0
    4.7414   -1.1590    0.1890 H   0  0  0  0  0  0  0  0  0  0  0  0
    4.4087   -2.2826   -1.1623 H   0  0  0  0  0  0  0  0  0  0  0  0
    1.5085   -1.1074   -1.9272 H   0  0  0  0  0  0  0  0  0  0  0  0
  1  2  1  0
  2  3  1  0
  3  4  1  0
  4  5  1  0
  5  6  1  0
  6  7  1  0
  7  8  1  0
  8  9  1  0
  9  2  1  0
  6  3  1  0
  9  6  1  0
  1 10  1  0
  1 11  1  0
  1 12  1  0
  2 13  1  0
  3 14  1  0
  5 15  1  0
  5 16  1  0
  7 17  1  0
  7 18  1  0
  9 19  1  0
M  END
$$$$
