gdb 931	4.6604095	0.8903319	0.8192429	3.6211	75.73	-0.24089	-0.01957	0.22132	1406.3257	0.156694	-422.553459	-422.544959	-422.544015	-422.587727	31.148
 OpenBabel02181911403D

 19 20  0  0  1  0  0  0  0  0999 V2000
    1.4510   -0.1631   -0.1906 O   0  0  0  0  0  0  0  0  0  0  0  0
    0.2796    0.0705   -0.0313 C   0  0  0  0  0  0  0  0  0  0  0  0
   -0.2811    0.8554    1.1376 C   0  0  0  0  0  0  0  0  0  0  0  0
   -1.1459    2.0356    0.6881 C   0  0  2  0  0  0  0  0  0  0  0  0
   -1.7659    2.8660    1.8401 C   0  0  0  0  0  0  0  0  0  0  0  0
   -3.1305    3.2584    1.2991 C   0  0  1  0  0  0  0  0  0  0  0  0
   -3.1838    3.8513   -0.1005 C   0  0  0  0  0  0  0  0  0  0  0  0
   -3.3525    2.3693    0.1103 C   0  0  1  0  0  0  0  0  0  0  0  0
   -2.2431    1.5296   -0.0825 O   0  0  0  0  0  0  0  0  0  0  0  0
   -0.4847   -0.2848   -0.7544 H   0  0  0  0  0  0  0  0  0  0  0  0
   -0.9117    0.1803    1.7318 H   0  0  0  0  0  0  0  0  0  0  0  0
    0.5513    1.2002    1.7577 H   0  0  0  0  0  0  0  0  0  0  0  0
   -0.5394    2.6957    0.0509 H   0  0  0  0  0  0  0  0  0  0  0  0
   -1.8901    2.2479    2.7365 H   0  0  0  0  0  0  0  0  0  0  0  0
   -1.1273    3.7141    2.1040 H   0  0  0  0  0  0  0  0  0  0  0  0
   -3.9231    3.4872    2.0012 H   0  0  0  0  0  0  0  0  0  0  0  0
   -4.0727    4.4160   -0.3603 H   0  0  0  0  0  0  0  0  0  0  0  0
   -2.2725    4.2208   -0.5588 H   0  0  0  0  0  0  0  0  0  0  0  0
   -4.2851    1.8685   -0.1194 H   0  0  0  0  0  0  0  0  0  0  0  0
  1  2  2  0  0  0  0
  2  3  1  0  0  0  0
  3 11  1  0  0  0  0
  3 12  1  0  0  0  0
  4 13  1  6  0  0  0
  4  3  1  0  0  0  0
  4  5  1  0  0  0  0
  5 15  1  0  0  0  0
  5 14  1  0  0  0  0
  6  5  1  0  0  0  0
  6 16  1  1  0  0  0
  7  8  1  0  0  0  0
  7  6  1  0  0  0  0
  8 19  1  6  0  0  0
  8  6  1  0  0  0  0
  9  8  1  0  0  0  0
  9  4  1  0  0  0  0
 10  2  1  0  0  0  0
 17  7  1  0  0  0  0
 18  7  1  0  0  0  0
M TOR 0 0 1 2 3
M TOR 1 0 1 2 10
M TOR 2 0 1 2 11
M TOR 3 1 2 3 4
M TOR 4 1 2 3 8
M TOR 5 1 2 3 12
M TOR 6 2 3 4 5
M TOR 7 2 3 4 13
M TOR 8 2 3 4 14
M TOR 9 2 3 8 7
M TOR 10 3 2 1 9
M TOR 11 3 4 5 6
M TOR 12 3 4 5 7
M TOR 13 3 4 5 15
M TOR 14 3 8 7 5
M TOR 15 3 8 7 6
M TOR 16 3 8 7 18
M TOR 17 4 3 2 10
M TOR 18 4 3 2 11
M TOR 19 4 3 8 7
M TOR 20 4 5 6 7
M TOR 21 4 5 6 16
M TOR 22 4 5 6 17
M TOR 23 4 5 7 8
M TOR 24 4 5 7 18
M TOR 25 5 4 3 8
M TOR 26 5 4 3 12
M TOR 27 5 6 7 8
M TOR 28 5 6 7 18
M TOR 29 5 7 6 16
M TOR 30 5 7 6 17
M TOR 31 6 5 4 13
M TOR 32 6 5 4 14
M TOR 33 6 7 5 15
M TOR 34 7 5 4 13
M TOR 35 7 5 4 14
M TOR 36 7 8 3 12
M TOR 37 8 3 2 10
M TOR 38 8 3 2 11
M TOR 39 8 3 4 13
M TOR 40 8 3 4 14
M TOR 41 8 7 5 15
M TOR 42 8 7 6 16
M TOR 43 8 7 6 17
M  END
$$$$
