
     RDKit          3D

 19 20  0  0  0  0  0  0  0  0999 V2000
    1.5860    0.6898    0.0907 O   0  0  0  0  0  0  0  0  0  0  0  0
    0.5553   -0.1716    0.5603 C   0  0  0  0  0  0  0  0  0  0  0  0
   -0.3601    0.5228    1.5604 C   0  0  0  0  0  0  0  0  0  0  0  0
   -1.1770    1.7383    1.0290 C   0  0  0  0  0  0  0  0  0  0  0  0
   -1.9428    2.0752    2.3448 C   0  0  0  0  0  0  0  0  0  0  0  0
   -2.2197    0.7921    2.9229 O   0  0  0  0  0  0  0  0  0  0  0  0
   -1.6562   -0.1880    2.0005 C   0  0  0  0  0  0  0  0  0  0  0  0
   -2.4951   -0.1299    0.7328 C   0  0  0  0  0  0  0  0  0  0  0  0
   -2.2021    1.0392    0.1517 C   0  0  0  0  0  0  0  0  0  0  0  0
    2.1420    0.9210    0.8417 H   0  0  0  0  0  0  0  0  0  0  0  0
   -0.0018   -0.4779   -0.3279 H   0  0  0  0  0  0  0  0  0  0  0  0
    0.9777   -1.0817    1.0155 H   0  0  0  0  0  0  0  0  0  0  0  0
    0.2255    0.7937    2.4491 H   0  0  0  0  0  0  0  0  0  0  0  0
   -0.6193    2.5635    0.5904 H   0  0  0  0  0  0  0  0  0  0  0  0
   -1.3222    2.6599    3.0356 H   0  0  0  0  0  0  0  0  0  0  0  0
   -2.8776    2.6171    2.1620 H   0  0  0  0  0  0  0  0  0  0  0  0
   -1.5857   -1.1378    2.5285 H   0  0  0  0  0  0  0  0  0  0  0  0
   -3.2605   -0.8423    0.4546 H   0  0  0  0  0  0  0  0  0  0  0  0
   -2.6748    1.4852   -0.7143 H   0  0  0  0  0  0  0  0  0  0  0  0
  1  2  1  0
  2  3  1  0
  3  4  1  0
  4  5  1  0
  5  6  1  0
  6  7  1  0
  7  8  1  0
  8  9  2  0
  7  3  1  0
  9  4  1  0
  1 10  1  0
  2 11  1  0
  2 12  1  0
  3 13  1  0
  4 14  1  0
  5 15  1  0
  5 16  1  0
  7 17  1  0
  8 18  1  0
  9 19  1  0
M  END
$$$$
