gdb 1	3.1580357	1.2436329	1.1060216	1.1312	77.92	-0.21236	0.02396	0.23632	1176.6995	0.155411	-422.593067	-422.583794	-422.58285	-422.62703	34.695
 OpenBabel02181911403D

 19 19  0  0  0  0  0  0  0  0999 V2000
   -1.8396    0.5293    3.1821 C   0  0  0  0  0  0  0  0  0  0  0  0
   -2.1465   -0.1645    1.8425 C   0  0  0  0  0  0  0  0  0  0  0  0
   -3.5866    0.1327    1.3867 C   0  0  0  0  0  0  0  0  0  0  0  0
   -1.9453   -1.5736    1.9581 O   0  0  0  0  0  0  0  0  0  0  0  0
   -1.1645    0.2690    0.7910 C   0  0  0  0  0  0  0  0  0  0  0  0
   -0.2471   -0.3976    0.0429 C   0  0  0  0  0  0  0  0  0  0  0  0
    0.3852    0.5870   -0.7884 C   0  0  0  0  0  0  0  0  0  0  0  0
   -0.1971    1.7725   -0.4802 C   0  0  0  0  0  0  0  0  0  0  0  0
   -1.1464    1.5977    0.4828 O   0  0  0  0  0  0  0  0  0  0  0  0
   -2.5655    0.2228    3.9444 H   0  0  0  0  0  0  0  0  0  0  0  0
   -0.8377    0.2552    3.5216 H   0  0  0  0  0  0  0  0  0  0  0  0
   -1.8911    1.6166    3.0809 H   0  0  0  0  0  0  0  0  0  0  0  0
   -4.3012   -0.1713    2.1608 H   0  0  0  0  0  0  0  0  0  0  0  0
   -3.7249    1.2003    1.1966 H   0  0  0  0  0  0  0  0  0  0  0  0
   -3.8075   -0.4188    0.4694 H   0  0  0  0  0  0  0  0  0  0  0  0
   -2.5620   -1.8979    2.6221 H   0  0  0  0  0  0  0  0  0  0  0  0
   -0.0515   -1.4558    0.0837 H   0  0  0  0  0  0  0  0  0  0  0  0
    1.1667    0.4259   -1.5145 H   0  0  0  0  0  0  0  0  0  0  0  0
   -0.0672    2.7838   -0.8278 H   0  0  0  0  0  0  0  0  0  0  0  0
  1 11  1  0  0  0  0
  1 10  1  0  0  0  0
  2  4  1  0  0  0  0
  2  1  1  0  0  0  0
  3  2  1  0  0  0  0
  3 13  1  0  0  0  0
  4 16  1  0  0  0  0
  5  2  1  0  0  0  0
  6 17  1  0  0  0  0
  6  5  2  0  0  0  0
  7  8  2  0  0  0  0
  7  6  1  0  0  0  0
  8  9  1  0  0  0  0
  9  5  1  0  0  0  0
 12  1  1  0  0  0  0
 14  3  1  0  0  0  0
 15  3  1  0  0  0  0
 18  7  1  0  0  0  0
 19  8  1  0  0  0  0
M TOR 0 0 1 2 12
M TOR 1 0 1 2 13
M TOR 2 0 1 2 14
M TOR 3 0 1 3 15
M TOR 4 0 1 4 5
M TOR 5 0 1 4 8
M TOR 6 1 4 5 6
M TOR 7 1 4 5 16
M TOR 8 1 4 8 7
M TOR 9 2 1 0 9
M TOR 10 2 1 0 10
M TOR 11 2 1 0 11
M TOR 12 2 1 3 15
M TOR 13 2 1 4 5
M TOR 14 2 1 4 8
M TOR 15 3 1 0 9
M TOR 16 3 1 0 10
M TOR 17 3 1 0 11
M TOR 18 3 1 2 12
M TOR 19 3 1 2 13
M TOR 20 3 1 2 14
M TOR 21 3 1 4 5
M TOR 22 3 1 4 8
M TOR 23 4 1 0 9
M TOR 24 4 1 0 10
M TOR 25 4 1 0 11
M TOR 26 4 1 2 12
M TOR 27 4 1 2 13
M TOR 28 4 1 2 14
M TOR 29 4 1 3 15
M TOR 30 4 5 6 7
M TOR 31 4 5 6 17
M TOR 32 4 8 7 6
M TOR 33 4 8 7 18
M TOR 34 5 4 8 7
M TOR 35 5 6 7 8
M TOR 36 5 6 7 18
M TOR 37 6 5 4 8
M TOR 38 7 6 5 16
M TOR 39 8 4 5 16
M TOR 40 8 7 6 17
M  END
$$$$
