
     RDKit          3D

 19 19  0  0  0  0  0  0  0  0999 V2000
   -2.5207    4.0255    0.4995 O   0  0  0  0  0  0  0  0  0  0  0  0
   -1.4053    3.1402    0.5542 C   0  0  0  0  0  0  0  0  0  0  0  0
   -1.1731    2.4195   -0.7503 C   0  0  0  0  0  0  0  0  0  0  0  0
   -0.0230    2.5309   -1.4198 C   0  0  0  0  0  0  0  0  0  0  0  0
    0.2686    1.8400   -2.7249 C   0  0  0  0  0  0  0  0  0  0  0  0
   -0.6829    0.6546   -2.9793 C   0  0  0  0  0  0  0  0  0  0  0  0
   -2.1208    1.0276   -2.6631 C   0  0  0  0  0  0  0  0  0  0  0  0
   -3.0297    0.8693   -3.4433 O   0  0  0  0  0  0  0  0  0  0  0  0
   -2.3383    1.6071   -1.2711 C   0  0  0  0  0  0  0  0  0  0  0  0
   -2.3329    4.6797   -0.1822 H   0  0  0  0  0  0  0  0  0  0  0  0
   -0.4884    3.6647    0.8612 H   0  0  0  0  0  0  0  0  0  0  0  0
   -1.6558    2.4234    1.3463 H   0  0  0  0  0  0  0  0  0  0  0  0
    0.7665    3.1596   -1.0120 H   0  0  0  0  0  0  0  0  0  0  0  0
    0.1909    2.5631   -3.5498 H   0  0  0  0  0  0  0  0  0  0  0  0
    1.3074    1.4899   -2.7410 H   0  0  0  0  0  0  0  0  0  0  0  0
   -0.6255    0.2918   -4.0076 H   0  0  0  0  0  0  0  0  0  0  0  0
   -0.4023   -0.1684   -2.3077 H   0  0  0  0  0  0  0  0  0  0  0  0
   -3.2550    2.2041   -1.2746 H   0  0  0  0  0  0  0  0  0  0  0  0
   -2.5385    0.7660   -0.5874 H   0  0  0  0  0  0  0  0  0  0  0  0
  1  2  1  0
  2  3  1  0
  3  4  2  0
  4  5  1  0
  5  6  1  0
  6  7  1  0
  7  8  2  0
  7  9  1  0
  9  3  1  0
  1 10  1  0
  2 11  1  0
  2 12  1  0
  4 13  1  0
  5 14  1  0
  5 15  1  0
  6 16  1  0
  6 17  1  0
  9 18  1  0
  9 19  1  0
M  END
$$$$
