gdb 6016	5.8352419	0.7317869	0.6894259	3.491	78.61	-0.2411	-0.00841	0.23269	1637.1756	0.155537	-422.528918	-422.51984	-422.518895	-422.563526	32.497
 OpenBabel02181911423D

 19 20  0  0  1  0  0  0  0  0999 V2000
    1.4830   -0.3821    0.5908 C   0  0  0  0  0  0  0  0  0  0  0  0
    0.0830   -0.3354    0.7360 O   0  0  0  0  0  0  0  0  0  0  0  0
   -0.4594    0.9233    0.4011 C   0  0  0  0  0  0  0  0  0  0  0  0
   -1.9615    0.8342    0.5028 C   0  0  1  0  0  0  0  0  0  0  0  0
   -2.6030    1.0375    1.8275 C   0  0  2  0  0  0  0  0  0  0  0  0
   -4.1104    0.7620    1.7155 C   0  0  0  0  0  0  0  0  0  0  0  0
   -4.1699    1.9257    0.6853 C   0  0  0  0  0  0  0  0  0  0  0  0
   -5.0777    2.5250    0.1838 O   0  0  0  0  0  0  0  0  0  0  0  0
   -2.6891    2.1551    0.7526 C   0  0  2  0  0  0  0  0  0  0  0  0
    1.9876    0.3415    1.2508 H   0  0  0  0  0  0  0  0  0  0  0  0
    1.8055   -1.3903    0.8610 H   0  0  0  0  0  0  0  0  0  0  0  0
    1.7938   -0.1741   -0.4453 H   0  0  0  0  0  0  0  0  0  0  0  0
   -0.0761    1.7059    1.0792 H   0  0  0  0  0  0  0  0  0  0  0  0
   -0.1632    1.2095   -0.6224 H   0  0  0  0  0  0  0  0  0  0  0  0
   -2.4033    0.1159   -0.1850 H   0  0  0  0  0  0  0  0  0  0  0  0
   -2.0382    1.0740    2.7493 H   0  0  0  0  0  0  0  0  0  0  0  0
   -4.4075   -0.2365    1.3821 H   0  0  0  0  0  0  0  0  0  0  0  0
   -4.6858    1.0305    2.6061 H   0  0  0  0  0  0  0  0  0  0  0  0
   -2.1726    3.1037    0.6660 H   0  0  0  0  0  0  0  0  0  0  0  0
  1  2  1  0  0  0  0
  1 11  1  0  0  0  0
  1 10  1  0  0  0  0
  3  4  1  0  0  0  0
  3  2  1  0  0  0  0
  3 13  1  0  0  0  0
  4 15  1  6  0  0  0
  4  9  1  0  0  0  0
  4  5  1  0  0  0  0
  5 16  1  1  0  0  0
  6  5  1  0  0  0  0
  6 18  1  0  0  0  0
  7  9  1  0  0  0  0
  7  6  1  0  0  0  0
  8  7  2  0  0  0  0
  9 19  1  1  0  0  0
  9  5  1  0  0  0  0
 12  1  1  0  0  0  0
 14  3  1  0  0  0  0
 17  6  1  0  0  0  0
M TOR 0 0 1 2 3
M TOR 1 0 1 2 12
M TOR 2 0 1 2 13
M TOR 3 1 2 3 4
M TOR 4 1 2 3 8
M TOR 5 1 2 3 14
M TOR 6 2 1 0 9
M TOR 7 2 1 0 10
M TOR 8 2 1 0 11
M TOR 9 2 3 4 5
M TOR 10 2 3 4 8
M TOR 11 2 3 4 15
M TOR 12 2 3 8 6
M TOR 13 2 3 8 18
M TOR 14 3 4 5 6
M TOR 15 3 4 5 16
M TOR 16 3 4 5 17
M TOR 17 3 4 8 6
M TOR 18 3 4 8 18
M TOR 19 3 8 4 5
M TOR 20 3 8 4 15
M TOR 21 3 8 6 5
M TOR 22 3 8 6 7
M TOR 23 4 3 2 12
M TOR 24 4 3 2 13
M TOR 25 4 5 6 7
M TOR 26 4 5 6 8
M TOR 27 4 8 3 14
M TOR 28 4 8 6 7
M TOR 29 5 4 3 14
M TOR 30 5 4 8 18
M TOR 31 5 6 8 18
M TOR 32 6 5 4 15
M TOR 33 6 8 3 14
M TOR 34 6 8 4 15
M TOR 35 7 6 5 16
M TOR 36 7 6 5 17
M TOR 37 7 6 8 18
M TOR 38 8 3 2 12
M TOR 39 8 3 2 13
M TOR 40 8 4 5 16
M TOR 41 8 4 5 17
M TOR 42 8 6 5 16
M TOR 43 8 6 5 17
M  END
$$$$
