gdb 441	3.1786051	1.3319645	1.1461904	1.7057	74.71	-0.24483	0.06593	0.31076	1116.3993	0.157154	-422.494605	-422.486602	-422.485658	-422.527561	30.13
 OpenBabel02181911403D

 19 21  0  0  1  0  0  0  0  0999 V2000
    0.8768   -0.6100   -0.6215 C   0  0  0  0  0  0  0  0  0  0  0  0
   -0.0016    0.2930    0.0508 O   0  0  0  0  0  0  0  0  0  0  0  0
    1.4085    0.4913    0.1955 C   0  0  1  0  0  0  0  0  0  0  0  0
    2.0003    0.2748    1.5503 C   0  0  2  0  0  0  0  0  0  0  0  0
    1.3485   -0.7591    2.5121 C   0  0  0  0  0  0  0  0  0  0  0  0
    1.3282    0.3063    3.6535 C   0  0  0  0  0  0  0  0  0  0  0  0
    2.0076    1.3231    2.7124 C   0  0  1  0  0  0  0  0  0  0  0  0
    3.4474    1.2859    2.7894 O   0  0  0  0  0  0  0  0  0  0  0  0
    3.5353    0.3705    1.6766 C   0  0  0  0  0  0  0  0  0  0  0  0
    0.8913   -1.6247   -0.2265 H   0  0  0  0  0  0  0  0  0  0  0  0
    0.8887   -0.5317   -1.7075 H   0  0  0  0  0  0  0  0  0  0  0  0
    1.7825    1.3712   -0.3325 H   0  0  0  0  0  0  0  0  0  0  0  0
    0.3482   -1.0489    2.1856 H   0  0  0  0  0  0  0  0  0  0  0  0
    1.9400   -1.6594    2.6982 H   0  0  0  0  0  0  0  0  0  0  0  0
    0.3182    0.5956    3.9547 H   0  0  0  0  0  0  0  0  0  0  0  0
    1.9171    0.0796    4.5445 H   0  0  0  0  0  0  0  0  0  0  0  0
    1.6191    2.3436    2.6538 H   0  0  0  0  0  0  0  0  0  0  0  0
    4.0354    0.8358    0.8156 H   0  0  0  0  0  0  0  0  0  0  0  0
    4.0601   -0.5586    1.9329 H   0  0  0  0  0  0  0  0  0  0  0  0
  1 10  1  0  0  0  0
  1  2  1  0  0  0  0
  1  3  1  0  0  0  0
  2  3  1  0  0  0  0
  3 12  1  6  0  0  0
  3  4  1  0  0  0  0
  4  9  1  6  0  0  0
  4  5  1  0  0  0  0
  4  7  1  0  0  0  0
  5 14  1  0  0  0  0
  5  6  1  0  0  0  0
  6 15  1  0  0  0  0
  6 16  1  0  0  0  0
  7 17  1  6  0  0  0
  7  8  1  0  0  0  0
  7  6  1  0  0  0  0
  9 19  1  0  0  0  0
  9  8  1  0  0  0  0
 11  1  1  0  0  0  0
 13  5  1  0  0  0  0
 18  9  1  0  0  0  0
M TOR 0 0 1 2 3
M TOR 1 0 1 2 11
M TOR 2 0 2 3 4
M TOR 3 0 2 3 6
M TOR 4 0 2 3 8
M TOR 5 1 2 0 9
M TOR 6 1 2 0 10
M TOR 7 1 2 3 4
M TOR 8 1 2 3 6
M TOR 9 1 2 3 8
M TOR 10 2 3 4 5
M TOR 11 2 3 4 12
M TOR 12 2 3 4 13
M TOR 13 2 3 6 5
M TOR 14 2 3 6 7
M TOR 15 2 3 6 16
M TOR 16 2 3 8 7
M TOR 17 2 3 8 17
M TOR 18 2 3 8 18
M TOR 19 3 2 0 9
M TOR 20 3 2 0 10
M TOR 21 3 4 5 6
M TOR 22 3 4 5 14
M TOR 23 3 4 5 15
M TOR 24 3 6 5 14
M TOR 25 3 6 5 15
M TOR 26 3 6 7 8
M TOR 27 4 3 2 11
M TOR 28 4 3 6 7
M TOR 29 4 3 6 16
M TOR 30 4 3 8 7
M TOR 31 4 3 8 17
M TOR 32 4 3 8 18
M TOR 33 4 5 6 7
M TOR 34 4 5 6 16
M TOR 35 5 4 3 8
M TOR 36 5 6 3 8
M TOR 37 5 6 7 8
M TOR 38 6 3 2 11
M TOR 39 6 3 4 12
M TOR 40 6 3 4 13
M TOR 41 6 3 8 17
M TOR 42 6 3 8 18
M TOR 43 6 5 4 12
M TOR 44 6 5 4 13
M TOR 45 6 7 8 17
M TOR 46 6 7 8 18
M TOR 47 7 6 5 14
M TOR 48 7 6 5 15
M TOR 49 8 3 2 11
M TOR 50 8 3 4 12
M TOR 51 8 3 4 13
M TOR 52 8 3 6 16
M TOR 53 8 7 6 16
M  END
$$$$
