
     RDKit          3D

 19 20  0  0  0  0  0  0  0  0999 V2000
   -2.3148    1.9363   -1.7448 C   0  0  0  0  0  0  0  0  0  0  0  0
   -2.3738    1.8717   -0.2250 C   0  0  0  0  0  0  0  0  0  0  0  0
   -2.7365    3.1654    0.5946 C   0  0  0  0  0  0  0  0  0  0  0  0
   -1.4580    2.9901    1.4255 C   0  0  0  0  0  0  0  0  0  0  0  0
   -0.2472    3.0320    0.5151 C   0  0  0  0  0  0  0  0  0  0  0  0
   -1.0750    1.7909    0.5855 C   0  0  0  0  0  0  0  0  0  0  0  0
   -0.5343    0.5847    1.0797 O   0  0  0  0  0  0  0  0  0  0  0  0
    0.1519   -0.1742    0.2053 C   0  0  0  0  0  0  0  0  0  0  0  0
    0.3260    0.0575   -0.9576 O   0  0  0  0  0  0  0  0  0  0  0  0
   -1.9167    1.0078   -2.1614 H   0  0  0  0  0  0  0  0  0  0  0  0
   -3.3140    2.1054   -2.1612 H   0  0  0  0  0  0  0  0  0  0  0  0
   -1.6707    2.7530   -2.0858 H   0  0  0  0  0  0  0  0  0  0  0  0
   -3.0322    1.0564    0.0924 H   0  0  0  0  0  0  0  0  0  0  0  0
   -2.7870    4.0912    0.0122 H   0  0  0  0  0  0  0  0  0  0  0  0
   -3.6585    3.0600    1.1696 H   0  0  0  0  0  0  0  0  0  0  0  0
   -1.3667    3.1312    2.4949 H   0  0  0  0  0  0  0  0  0  0  0  0
   -0.2318    3.6545   -0.3758 H   0  0  0  0  0  0  0  0  0  0  0  0
    0.7050    2.9574    1.0299 H   0  0  0  0  0  0  0  0  0  0  0  0
    0.5296   -1.0601    0.7392 H   0  0  0  0  0  0  0  0  0  0  0  0
  1  2  1  0
  2  3  1  0
  3  4  1  0
  4  5  1  0
  5  6  1  0
  6  7  1  0
  7  8  1  0
  8  9  2  0
  6  2  1  0
  6  4  1  0
  1 10  1  0
  1 11  1  0
  1 12  1  0
  2 13  1  0
  3 14  1  0
  3 15  1  0
  4 16  1  0
  5 17  1  0
  5 18  1  0
  8 19  1  0
M  END
$$$$
