gdb 3659	2.0554378	1.5833806	1.0939909	3.2713	78.04	-0.23347	-0.01685	0.21662	1170.1978	0.154823	-422.55489	-422.545527	-422.544582	-422.589163	34.419
 OpenBabel02181911413D

 19 20  0  0  1  0  0  0  0  0999 V2000
   -2.5198    2.7891    1.3364 C   0  0  0  0  0  0  0  0  0  0  0  0
   -1.1943    2.3540    0.7538 C   0  0  2  0  0  0  0  0  0  0  0  0
   -1.0054    2.2519   -0.7229 C   0  0  0  0  0  0  0  0  0  0  0  0
   -1.0777    0.9851    0.1121 C   0  0  2  0  0  0  0  0  0  0  0  0
   -2.1136   -0.1366   -0.0218 C   0  0  1  0  0  0  0  0  0  0  0  0
   -2.8859   -0.0234   -1.1969 O   0  0  0  0  0  0  0  0  0  0  0  0
   -0.9441   -1.1819   -0.0263 C   0  0  0  0  0  0  0  0  0  0  0  0
    0.0265   -0.0138    0.2526 C   0  0  0  0  0  0  0  0  0  0  0  0
    1.1963    0.0635    0.5102 O   0  0  0  0  0  0  0  0  0  0  0  0
   -2.6594    2.3983    2.3501 H   0  0  0  0  0  0  0  0  0  0  0  0
   -2.5802    3.8814    1.3885 H   0  0  0  0  0  0  0  0  0  0  0  0
   -3.3530    2.4376    0.7198 H   0  0  0  0  0  0  0  0  0  0  0  0
   -0.3136    2.6388    1.3249 H   0  0  0  0  0  0  0  0  0  0  0  0
   -1.8603    2.4296   -1.3669 H   0  0  0  0  0  0  0  0  0  0  0  0
   -0.0386    2.4943   -1.1508 H   0  0  0  0  0  0  0  0  0  0  0  0
   -2.7556   -0.2329    0.8642 H   0  0  0  0  0  0  0  0  0  0  0  0
   -3.5191   -0.7481   -1.2138 H   0  0  0  0  0  0  0  0  0  0  0  0
   -0.9680   -1.9783    0.7221 H   0  0  0  0  0  0  0  0  0  0  0  0
   -0.7892   -1.6160   -1.0189 H   0  0  0  0  0  0  0  0  0  0  0  0
  1 11  1  0  0  0  0
  1 10  1  0  0  0  0
  2 13  1  1  0  0  0
  2  1  1  0  0  0  0
  3  4  1  0  0  0  0
  3  2  1  0  0  0  0
  4  8  1  1  0  0  0
  4  2  1  0  0  0  0
  5  4  1  0  0  0  0
  5 16  1  1  0  0  0
  6  5  1  0  0  0  0
  7  5  1  0  0  0  0
  7  8  1  0  0  0  0
  7 18  1  0  0  0  0
  8  9  2  0  0  0  0
 12  1  1  0  0  0  0
 14  3  1  0  0  0  0
 15  3  1  0  0  0  0
 17  6  1  0  0  0  0
 19  7  1  0  0  0  0
M TOR 0 0 1 2 3
M TOR 1 0 1 2 13
M TOR 2 0 1 2 14
M TOR 3 0 1 3 4
M TOR 4 0 1 3 7
M TOR 5 1 2 3 4
M TOR 6 1 2 3 7
M TOR 7 1 3 2 13
M TOR 8 1 3 2 14
M TOR 9 1 3 4 5
M TOR 10 1 3 4 6
M TOR 11 1 3 4 15
M TOR 12 1 3 7 6
M TOR 13 1 3 7 8
M TOR 14 2 1 0 9
M TOR 15 2 1 0 10
M TOR 16 2 1 0 11
M TOR 17 2 3 1 12
M TOR 18 2 3 4 5
M TOR 19 2 3 4 6
M TOR 20 2 3 4 15
M TOR 21 2 3 7 6
M TOR 22 2 3 7 8
M TOR 23 3 1 0 9
M TOR 24 3 1 0 10
M TOR 25 3 1 0 11
M TOR 26 3 4 5 16
M TOR 27 3 4 6 7
M TOR 28 3 4 6 17
M TOR 29 3 4 6 18
M TOR 30 3 7 6 17
M TOR 31 3 7 6 18
M TOR 32 4 3 1 12
M TOR 33 4 3 2 13
M TOR 34 4 3 2 14
M TOR 35 4 3 7 8
M TOR 36 4 6 7 8
M TOR 37 5 4 3 7
M TOR 38 5 4 6 7
M TOR 39 5 4 6 17
M TOR 40 5 4 6 18
M TOR 41 6 4 5 16
M TOR 42 7 3 1 12
M TOR 43 7 3 2 13
M TOR 44 7 3 2 14
M TOR 45 7 3 4 15
M TOR 46 7 6 4 15
M TOR 47 8 7 6 17
M TOR 48 8 7 6 18
M  END
$$$$
