gdb 3563	2.693331	1.418491	1.0406815	3.1129	74.99	-0.24045	-0.01922	0.22122999999999998	1165.9649	0.155839	-422.573971	-422.565356	-422.564411	-422.607367	32.538
 OpenBabel02181911413D

 19 20  0  0  1  0  0  0  0  0999 V2000
   -2.4996   -1.4817   -2.0650 C   0  0  0  0  0  0  0  0  0  0  0  0
   -2.0340   -0.7700   -0.7980 C   0  0  1  0  0  0  0  0  0  0  0  0
   -0.6348   -1.1886   -0.3015 C   0  0  0  0  0  0  0  0  0  0  0  0
   -0.1222   -0.0076    0.5274 C   0  0  0  0  0  0  0  0  0  0  0  0
    0.8004   -0.0285    1.2985 O   0  0  0  0  0  0  0  0  0  0  0  0
   -0.9986    1.2136    0.2135 C   0  0  0  0  0  0  0  0  0  0  0  0
   -1.8994    0.7549   -0.9183 C   0  0  2  0  0  0  0  0  0  0  0  0
   -2.8458    1.6272   -1.6132 C   0  0  0  0  0  0  0  0  0  0  0  0
   -1.5949    1.2783   -2.2199 O   0  0  0  0  0  0  0  0  0  0  0  0
   -2.4921   -2.5662   -1.9205 H   0  0  0  0  0  0  0  0  0  0  0  0
   -3.5197   -1.1939   -2.3379 H   0  0  0  0  0  0  0  0  0  0  0  0
   -1.8450   -1.2373   -2.9055 H   0  0  0  0  0  0  0  0  0  0  0  0
   -2.7530   -0.9635    0.0110 H   0  0  0  0  0  0  0  0  0  0  0  0
   -0.6058   -2.1178    0.2716 H   0  0  0  0  0  0  0  0  0  0  0  0
    0.0492   -1.3095   -1.1535 H   0  0  0  0  0  0  0  0  0  0  0  0
   -1.5740    1.4604    1.1148 H   0  0  0  0  0  0  0  0  0  0  0  0
   -0.3969    2.0873   -0.0469 H   0  0  0  0  0  0  0  0  0  0  0  0
   -3.7288    1.2074   -2.0928 H   0  0  0  0  0  0  0  0  0  0  0  0
   -2.9408    2.6689   -1.3080 H   0  0  0  0  0  0  0  0  0  0  0  0
  1 10  1  0  0  0  0
  1  2  1  0  0  0  0
  2  3  1  0  0  0  0
  2 13  1  1  0  0  0
  3 14  1  0  0  0  0
  3  4  1  0  0  0  0
  4  5  2  0  0  0  0
  6  4  1  0  0  0  0
  6 16  1  0  0  0  0
  7  9  1  6  0  0  0
  7  2  1  0  0  0  0
  7  6  1  0  0  0  0
  8 19  1  0  0  0  0
  8  7  1  0  0  0  0
  9  8  1  0  0  0  0
 11  1  1  0  0  0  0
 12  1  1  0  0  0  0
 15  3  1  0  0  0  0
 17  6  1  0  0  0  0
 18  8  1  0  0  0  0
M TOR 0 0 1 2 3
M TOR 1 0 1 2 13
M TOR 2 0 1 2 14
M TOR 3 0 1 6 5
M TOR 4 0 1 6 7
M TOR 5 0 1 6 8
M TOR 6 1 2 3 4
M TOR 7 1 2 3 5
M TOR 8 1 6 5 3
M TOR 9 1 6 5 15
M TOR 10 1 6 5 16
M TOR 11 1 6 7 8
M TOR 12 1 6 7 17
M TOR 13 1 6 7 18
M TOR 14 2 1 0 9
M TOR 15 2 1 0 10
M TOR 16 2 1 0 11
M TOR 17 2 1 6 5
M TOR 18 2 1 6 7
M TOR 19 2 1 6 8
M TOR 20 2 3 5 6
M TOR 21 2 3 5 15
M TOR 22 2 3 5 16
M TOR 23 3 2 1 6
M TOR 24 3 2 1 12
M TOR 25 3 5 6 7
M TOR 26 3 5 6 8
M TOR 27 4 3 2 13
M TOR 28 4 3 2 14
M TOR 29 4 3 5 6
M TOR 30 4 3 5 15
M TOR 31 4 3 5 16
M TOR 32 5 3 2 13
M TOR 33 5 3 2 14
M TOR 34 5 6 1 12
M TOR 35 5 6 7 8
M TOR 36 5 6 7 17
M TOR 37 5 6 7 18
M TOR 38 6 1 0 9
M TOR 39 6 1 0 10
M TOR 40 6 1 0 11
M TOR 41 6 1 2 13
M TOR 42 6 1 2 14
M TOR 43 6 8 7 17
M TOR 44 6 8 7 18
M TOR 45 7 6 1 12
M TOR 46 7 6 5 15
M TOR 47 7 6 5 16
M TOR 48 8 6 1 12
M TOR 49 8 6 5 15
M TOR 50 8 6 5 16
M  END
$$$$
