
     RDKit          3D

 19 20  0  0  0  0  0  0  0  0999 V2000
    0.4418    0.4336    0.2131 O   0  0  0  0  0  0  0  0  0  0  0  0
   -0.7045   -0.1658    0.7625 C   0  0  0  0  0  0  0  0  0  0  0  0
   -1.2968    0.4066    2.0664 C   0  0  0  0  0  0  0  0  0  0  0  0
   -2.5878    0.5448    1.4450 O   0  0  0  0  0  0  0  0  0  0  0  0
   -2.0374    0.2834    0.1184 C   0  0  0  0  0  0  0  0  0  0  0  0
   -2.8890   -0.7386   -0.6633 C   0  0  0  0  0  0  0  0  0  0  0  0
   -3.5807    0.0887   -1.7170 C   0  0  0  0  0  0  0  0  0  0  0  0
   -3.1034    1.3310   -1.7640 C   0  0  0  0  0  0  0  0  0  0  0  0
   -2.0066    1.5605   -0.7558 C   0  0  0  0  0  0  0  0  0  0  0  0
    1.2211    0.0257    0.6022 H   0  0  0  0  0  0  0  0  0  0  0  0
   -0.6126   -1.2596    0.7868 H   0  0  0  0  0  0  0  0  0  0  0  0
   -1.3290   -0.2444    2.9476 H   0  0  0  0  0  0  0  0  0  0  0  0
   -0.8546    1.3753    2.3375 H   0  0  0  0  0  0  0  0  0  0  0  0
   -2.2560   -1.5168   -1.1132 H   0  0  0  0  0  0  0  0  0  0  0  0
   -3.5768   -1.2450    0.0232 H   0  0  0  0  0  0  0  0  0  0  0  0
   -4.3562   -0.3129   -2.3595 H   0  0  0  0  0  0  0  0  0  0  0  0
   -3.4313    2.1028   -2.4515 H   0  0  0  0  0  0  0  0  0  0  0  0
   -1.0288    1.6841   -1.2364 H   0  0  0  0  0  0  0  0  0  0  0  0
   -2.1691    2.4443   -0.1292 H   0  0  0  0  0  0  0  0  0  0  0  0
  1  2  1  0
  2  3  1  0
  3  4  1  0
  4  5  1  0
  5  6  1  0
  6  7  1  0
  7  8  2  0
  8  9  1  0
  5  2  1  0
  9  5  1  0
  1 10  1  0
  2 11  1  0
  3 12  1  0
  3 13  1  0
  6 14  1  0
  6 15  1  0
  7 16  1  0
  8 17  1  0
  9 18  1  0
  9 19  1  0
M  END
$$$$
