gdb 459	4.6768206	1.0734919	0.9693769	0.5228	75.29	-0.2275	0.09181	0.31931	1256.6602	0.157193	-422.514735	-422.506795	-422.505851	-422.547703	30.435
 OpenBabel02181911403D

 19 21  0  0  1  0  0  0  0  0999 V2000
   -2.0121   -2.9195    1.6285 C   0  0  0  0  0  0  0  0  0  0  0  0
   -3.0624   -1.9058    1.2641 C   0  0  0  0  0  0  0  0  0  0  0  0
   -1.6499   -1.4585    1.5429 C   0  0  0  0  0  0  0  0  0  0  0  0
   -0.7968   -0.9827    0.4078 C   0  0  1  0  0  0  0  0  0  0  0  0
   -1.0132    0.4041    0.1555 O   0  0  0  0  0  0  0  0  0  0  0  0
    0.2256    0.9707   -0.1809 C   0  0  2  0  0  0  0  0  0  0  0  0
    1.0408    0.3140   -1.2806 C   0  0  0  0  0  0  0  0  0  0  0  0
    1.2661   -0.0337    0.1800 C   0  0  2  0  0  0  0  0  0  0  0  0
    0.5876   -1.1414    0.7109 O   0  0  0  0  0  0  0  0  0  0  0  0
   -2.0444   -3.3734    2.6120 H   0  0  0  0  0  0  0  0  0  0  0  0
   -1.6459   -3.5779    0.8478 H   0  0  0  0  0  0  0  0  0  0  0  0
   -3.4085   -1.8769    0.2362 H   0  0  0  0  0  0  0  0  0  0  0  0
   -3.8230   -1.6570    1.9949 H   0  0  0  0  0  0  0  0  0  0  0  0
   -1.4615   -0.9295    2.4712 H   0  0  0  0  0  0  0  0  0  0  0  0
   -1.0306   -1.5540   -0.5083 H   0  0  0  0  0  0  0  0  0  0  0  0
    0.2687    2.0336    0.0195 H   0  0  0  0  0  0  0  0  0  0  0  0
    0.5714   -0.4087   -1.9386 H   0  0  0  0  0  0  0  0  0  0  0  0
    1.7994    0.9303   -1.7524 H   0  0  0  0  0  0  0  0  0  0  0  0
    2.1993    0.1697    0.6893 H   0  0  0  0  0  0  0  0  0  0  0  0
  1 10  1  0  0  0  0
  2  3  1  0  0  0  0
  2  1  1  0  0  0  0
  2 13  1  0  0  0  0
  3  1  1  0  0  0  0
  3 14  1  0  0  0  0
  4 15  1  6  0  0  0
  4  9  1  0  0  0  0
  4  3  1  0  0  0  0
  5  4  1  0  0  0  0
  6 16  1  1  0  0  0
  6  5  1  0  0  0  0
  6  8  1  0  0  0  0
  7  6  1  0  0  0  0
  7  8  1  0  0  0  0
  8 19  1  1  0  0  0
  8  9  1  0  0  0  0
 11  1  1  0  0  0  0
 12  2  1  0  0  0  0
 17  7  1  0  0  0  0
 18  7  1  0  0  0  0
M TOR 0 0 1 2 3
M TOR 1 0 1 2 13
M TOR 2 0 2 1 11
M TOR 3 0 2 1 12
M TOR 4 0 2 3 4
M TOR 5 0 2 3 8
M TOR 6 0 2 3 14
M TOR 7 1 2 0 9
M TOR 8 1 2 0 10
M TOR 9 1 2 3 4
M TOR 10 1 2 3 8
M TOR 11 1 2 3 14
M TOR 12 2 3 4 5
M TOR 13 2 3 8 7
M TOR 14 3 2 0 9
M TOR 15 3 2 0 10
M TOR 16 3 2 1 11
M TOR 17 3 2 1 12
M TOR 18 3 4 5 6
M TOR 19 3 4 5 7
M TOR 20 3 4 5 15
M TOR 21 3 8 7 5
M TOR 22 3 8 7 6
M TOR 23 3 8 7 18
M TOR 24 4 3 2 13
M TOR 25 4 3 8 7
M TOR 26 4 5 6 7
M TOR 27 4 5 6 16
M TOR 28 4 5 6 17
M TOR 29 4 5 7 8
M TOR 30 4 5 7 18
M TOR 31 5 4 3 8
M TOR 32 5 4 3 14
M TOR 33 5 6 7 8
M TOR 34 5 6 7 18
M TOR 35 5 7 6 16
M TOR 36 5 7 6 17
M TOR 37 6 7 5 15
M TOR 38 7 8 3 14
M TOR 39 8 3 2 13
M TOR 40 8 7 5 15
M TOR 41 8 7 6 16
M TOR 42 8 7 6 17
M  END
$$$$
