
     RDKit          3D

 19 21  0  0  0  0  0  0  0  0999 V2000
    0.2805    0.4284    0.9262 O   0  0  0  0  0  0  0  0  0  0  0  0
   -1.0238    0.8602    0.7167 C   0  0  0  0  0  0  0  0  0  0  0  0
   -1.1262    2.3600    0.9464 C   0  0  0  0  0  0  0  0  0  0  0  0
   -2.5766    2.7625    1.2469 C   0  0  0  0  0  0  0  0  0  0  0  0
   -3.5533    2.0133    0.3268 C   0  0  0  0  0  0  0  0  0  0  0  0
   -3.1275    0.5543    0.1764 C   0  0  0  0  0  0  0  0  0  0  0  0
   -1.7749    0.2359   -0.5022 C   0  0  0  0  0  0  0  0  0  0  0  0
   -1.7482   -1.0726    0.2038 O   0  0  0  0  0  0  0  0  0  0  0  0
   -2.1773   -0.0838    1.2268 C   0  0  0  0  0  0  0  0  0  0  0  0
    0.2614   -0.5209    0.7325 H   0  0  0  0  0  0  0  0  0  0  0  0
   -0.4644    2.6325    1.7741 H   0  0  0  0  0  0  0  0  0  0  0  0
   -0.7460    2.8795    0.0578 H   0  0  0  0  0  0  0  0  0  0  0  0
   -2.8042    2.4952    2.2864 H   0  0  0  0  0  0  0  0  0  0  0  0
   -2.7087    3.8459    1.1683 H   0  0  0  0  0  0  0  0  0  0  0  0
   -4.5710    2.0710    0.7274 H   0  0  0  0  0  0  0  0  0  0  0  0
   -3.5868    2.4795   -0.6669 H   0  0  0  0  0  0  0  0  0  0  0  0
   -3.9181   -0.1267   -0.1430 H   0  0  0  0  0  0  0  0  0  0  0  0
   -1.5078    0.2390   -1.5609 H   0  0  0  0  0  0  0  0  0  0  0  0
   -2.3862   -0.4691    2.2261 H   0  0  0  0  0  0  0  0  0  0  0  0
  1  2  1  0
  2  3  1  0
  3  4  1  0
  4  5  1  0
  5  6  1  0
  6  7  1  0
  7  8  1  0
  8  9  1  0
  7  2  1  0
  9  2  1  0
  9  6  1  0
  1 10  1  0
  3 11  1  0
  3 12  1  0
  4 13  1  0
  4 14  1  0
  5 15  1  0
  5 16  1  0
  6 17  1  0
  7 18  1  0
  9 19  1  0
M  END
$$$$
