gdb 5302	2.7553244	1.7228034	1.2857259	2.3668	74.62	-0.24515	0.0906	0.33575	1017.3531	0.158762	-422.519283	-422.511879	-422.510935	-422.550989	29.625
 OpenBabel02181911423D

 19 21  0  0  1  0  0  0  0  0999 V2000
    1.6539    0.6286   -0.0705 O   0  0  0  0  0  0  0  0  0  0  0  0
    0.3100    0.2853    0.2183 C   0  0  0  0  0  0  0  0  0  0  0  0
   -0.6468    1.1040   -0.6091 C   0  0  2  0  0  0  0  0  0  0  0  0
   -0.3600    0.8732   -1.9905 O   0  0  0  0  0  0  0  0  0  0  0  0
   -1.3055    1.7182   -2.6632 C   0  0  0  0  0  0  0  0  0  0  0  0
   -2.0304    2.3252   -1.4731 C   0  0  2  0  0  0  0  0  0  0  0  0
   -0.9435    2.6221   -0.3842 C   0  0  1  0  0  0  0  0  0  0  0  0
   -1.9716    2.2476    0.7074 C   0  0  0  0  0  0  0  0  0  0  0  0
   -2.1904    1.1899   -0.4000 C   0  0  2  0  0  0  0  0  0  0  0  0
    1.7268    0.6157   -1.0322 H   0  0  0  0  0  0  0  0  0  0  0  0
    0.1178   -0.7834    0.0309 H   0  0  0  0  0  0  0  0  0  0  0  0
    0.1549    0.4701    1.2849 H   0  0  0  0  0  0  0  0  0  0  0  0
   -0.7814    2.4604   -3.2782 H   0  0  0  0  0  0  0  0  0  0  0  0
   -1.9526    1.1151   -3.3120 H   0  0  0  0  0  0  0  0  0  0  0  0
   -2.8434    3.0318   -1.6404 H   0  0  0  0  0  0  0  0  0  0  0  0
   -0.2211    3.4385   -0.3858 H   0  0  0  0  0  0  0  0  0  0  0  0
   -1.5831    1.8999    1.6675 H   0  0  0  0  0  0  0  0  0  0  0  0
   -2.7887    2.9574    0.8566 H   0  0  0  0  0  0  0  0  0  0  0  0
   -2.9061    0.3668   -0.4227 H   0  0  0  0  0  0  0  0  0  0  0  0
  1  2  1  0  0  0  0
  2 12  1  0  0  0  0
  3  9  1  0  0  0  0
  3  7  1  0  0  0  0
  3  2  1  1  0  0  0
  4  3  1  0  0  0  0
  5  4  1  0  0  0  0
  5  6  1  0  0  0  0
  6 15  1  6  0  0  0
  6  9  1  0  0  0  0
  6  7  1  0  0  0  0
  7 16  1  1  0  0  0
  7  8  1  0  0  0  0
  8 18  1  0  0  0  0
  8 17  1  0  0  0  0
  9 19  1  6  0  0  0
  9  8  1  0  0  0  0
 10  1  1  0  0  0  0
 11  2  1  0  0  0  0
 13  5  1  0  0  0  0
 14  5  1  0  0  0  0
M TOR 0 0 1 2 3
M TOR 1 0 1 2 6
M TOR 2 0 1 2 8
M TOR 3 1 2 3 4
M TOR 4 1 2 6 5
M TOR 5 1 2 6 7
M TOR 6 1 2 6 15
M TOR 7 1 2 8 5
M TOR 8 1 2 8 7
M TOR 9 1 2 8 18
M TOR 10 2 1 0 9
M TOR 11 2 3 4 5
M TOR 12 2 3 4 12
M TOR 13 2 3 4 13
M TOR 14 2 6 5 4
M TOR 15 2 6 5 8
M TOR 16 2 6 5 14
M TOR 17 2 6 7 8
M TOR 18 2 6 7 16
M TOR 19 2 6 7 17
M TOR 20 2 8 5 4
M TOR 21 2 8 5 14
M TOR 22 2 8 7 16
M TOR 23 2 8 7 17
M TOR 24 3 2 1 10
M TOR 25 3 2 1 11
M TOR 26 3 2 6 5
M TOR 27 3 2 6 7
M TOR 28 3 2 6 15
M TOR 29 3 2 8 5
M TOR 30 3 2 8 7
M TOR 31 3 2 8 18
M TOR 32 3 4 5 6
M TOR 33 3 4 5 8
M TOR 34 3 4 5 14
M TOR 35 4 3 2 6
M TOR 36 4 3 2 8
M TOR 37 4 5 6 7
M TOR 38 4 5 6 15
M TOR 39 4 5 8 7
M TOR 40 4 5 8 18
M TOR 41 5 6 7 8
M TOR 42 5 6 7 16
M TOR 43 5 6 7 17
M TOR 44 5 8 7 16
M TOR 45 5 8 7 17
M TOR 46 6 2 1 10
M TOR 47 6 2 1 11
M TOR 48 6 2 8 18
M TOR 49 6 5 4 12
M TOR 50 6 5 4 13
M TOR 51 6 5 8 18
M TOR 52 6 7 8 18
M TOR 53 7 6 5 14
M TOR 54 7 8 5 14
M TOR 55 8 2 1 10
M TOR 56 8 2 1 11
M TOR 57 8 2 6 15
M TOR 58 8 5 4 12
M TOR 59 8 5 4 13
M TOR 60 8 5 6 15
M TOR 61 8 7 6 15
M  END
$$$$
