
     RDKit          3D

 19 21  0  0  0  0  0  0  0  0999 V2000
   -1.3715    1.2680   -1.2969 C   0  0  0  0  0  0  0  0  0  0  0  0
   -1.6885    2.4205   -0.5261 O   0  0  0  0  0  0  0  0  0  0  0  0
   -0.6430    3.0798    0.1293 C   0  0  0  0  0  0  0  0  0  0  0  0
    0.8025    2.6395   -0.0120 C   0  0  0  0  0  0  0  0  0  0  0  0
    1.0834    1.4706   -0.9309 C   0  0  0  0  0  0  0  0  0  0  0  0
   -0.1180    0.5223   -0.8211 C   0  0  0  0  0  0  0  0  0  0  0  0
   -0.2190    0.0307    0.6287 C   0  0  0  0  0  0  0  0  0  0  0  0
   -0.4266    1.0673    1.5800 O   0  0  0  0  0  0  0  0  0  0  0  0
    0.0384    2.3492    1.2666 C   0  0  0  0  0  0  0  0  0  0  0  0
   -2.2555    0.6227   -1.2455 H   0  0  0  0  0  0  0  0  0  0  0  0
   -1.2272    1.5540   -2.3514 H   0  0  0  0  0  0  0  0  0  0  0  0
   -0.8656    4.1376    0.2281 H   0  0  0  0  0  0  0  0  0  0  0  0
    1.5588    3.4180    0.0349 H   0  0  0  0  0  0  0  0  0  0  0  0
    1.2123    1.8127   -1.9647 H   0  0  0  0  0  0  0  0  0  0  0  0
    2.0074    0.9592   -0.6360 H   0  0  0  0  0  0  0  0  0  0  0  0
    0.0202   -0.3533   -1.4664 H   0  0  0  0  0  0  0  0  0  0  0  0
   -1.0610   -0.6596    0.7514 H   0  0  0  0  0  0  0  0  0  0  0  0
    0.7034   -0.5201    0.8745 H   0  0  0  0  0  0  0  0  0  0  0  0
    0.2985    2.8889    2.1717 H   0  0  0  0  0  0  0  0  0  0  0  0
  1  2  1  0
  2  3  1  0
  3  4  1  0
  4  5  1  0
  5  6  1  0
  6  7  1  0
  7  8  1  0
  8  9  1  0
  6  1  1  0
  9  3  1  0
  9  4  1  0
  1 10  1  0
  1 11  1  0
  3 12  1  0
  4 13  1  0
  5 14  1  0
  5 15  1  0
  6 16  1  0
  7 17  1  0
  7 18  1  0
  9 19  1  0
M  END
$$$$
