
     RDKit          3D

 19 21  0  0  0  0  0  0  0  0999 V2000
    0.4471    0.6120    0.3847 O   0  0  0  0  0  0  0  0  0  0  0  0
   -0.9075    0.7289    0.7716 C   0  0  0  0  0  0  0  0  0  0  0  0
   -1.1649    0.1471    2.1869 C   0  0  0  0  0  0  0  0  0  0  0  0
   -2.6724   -0.0026    2.4986 C   0  0  0  0  0  0  0  0  0  0  0  0
   -2.7118    1.5191    2.7796 C   0  0  0  0  0  0  0  0  0  0  0  0
   -2.7537    2.3258    1.4620 C   0  0  0  0  0  0  0  0  0  0  0  0
   -1.2881    2.2095    1.0029 C   0  0  0  0  0  0  0  0  0  0  0  0
   -0.5597    2.4862    2.2172 O   0  0  0  0  0  0  0  0  0  0  0  0
   -1.1568    1.4784    3.0197 C   0  0  0  0  0  0  0  0  0  0  0  0
    0.9432    1.1834    0.9850 H   0  0  0  0  0  0  0  0  0  0  0  0
   -1.5020    0.2406   -0.0052 H   0  0  0  0  0  0  0  0  0  0  0  0
   -0.4787   -0.6671    2.4191 H   0  0  0  0  0  0  0  0  0  0  0  0
   -3.3197   -0.3842    1.7026 H   0  0  0  0  0  0  0  0  0  0  0  0
   -2.8415   -0.5935    3.4031 H   0  0  0  0  0  0  0  0  0  0  0  0
   -3.3771    1.8966    3.5559 H   0  0  0  0  0  0  0  0  0  0  0  0
   -3.4701    1.9271    0.7380 H   0  0  0  0  0  0  0  0  0  0  0  0
   -2.9926    3.3763    1.6469 H   0  0  0  0  0  0  0  0  0  0  0  0
   -0.9628    2.8888    0.2152 H   0  0  0  0  0  0  0  0  0  0  0  0
   -0.7591    1.4931    4.0318 H   0  0  0  0  0  0  0  0  0  0  0  0
  1  2  1  0
  2  3  1  0
  3  4  1  0
  4  5  1  0
  5  6  1  0
  6  7  1  0
  7  8  1  0
  8  9  1  0
  7  2  1  0
  9  3  1  0
  9  5  1  0
  1 10  1  0
  2 11  1  0
  3 12  1  0
  4 13  1  0
  4 14  1  0
  5 15  1  0
  6 16  1  0
  6 17  1  0
  7 18  1  0
  9 19  1  0
M  END
$$$$
