
     RDKit          3D

 19 20  0  0  0  0  0  0  0  0999 V2000
    1.4741   -0.1750    0.1012 C   0  0  0  0  0  0  0  0  0  0  0  0
    0.0920    0.0820   -0.0026 O   0  0  0  0  0  0  0  0  0  0  0  0
   -0.4738    0.7678    1.0952 C   0  0  0  0  0  0  0  0  0  0  0  0
   -1.9846    0.7241    0.9566 C   0  0  0  0  0  0  0  0  0  0  0  0
   -2.5354    1.9361    0.9998 C   0  0  0  0  0  0  0  0  0  0  0  0
   -1.4693    2.9771    1.1316 C   0  0  0  0  0  0  0  0  0  0  0  0
   -0.5595    3.0009    0.0072 O   0  0  0  0  0  0  0  0  0  0  0  0
   -0.1713    2.2864    1.1865 C   0  0  0  0  0  0  0  0  0  0  0  0
    1.0308    2.8074    1.9287 C   0  0  0  0  0  0  0  0  0  0  0  0
    1.7289   -0.6525    1.0609 H   0  0  0  0  0  0  0  0  0  0  0  0
    1.7330   -0.8586   -0.7113 H   0  0  0  0  0  0  0  0  0  0  0  0
    2.0800    0.7352   -0.0061 H   0  0  0  0  0  0  0  0  0  0  0  0
   -0.1488    0.2833    2.0348 H   0  0  0  0  0  0  0  0  0  0  0  0
   -2.4989   -0.2139    0.7850 H   0  0  0  0  0  0  0  0  0  0  0  0
   -3.5906    2.1644    0.9136 H   0  0  0  0  0  0  0  0  0  0  0  0
   -1.6491    3.9396    1.6026 H   0  0  0  0  0  0  0  0  0  0  0  0
    1.0833    2.3761    2.9341 H   0  0  0  0  0  0  0  0  0  0  0  0
    1.9607    2.5574    1.4082 H   0  0  0  0  0  0  0  0  0  0  0  0
    0.9808    3.8957    2.0195 H   0  0  0  0  0  0  0  0  0  0  0  0
  1  2  1  0
  2  3  1  0
  3  4  1  0
  4  5  2  0
  5  6  1  0
  6  7  1  0
  7  8  1  0
  8  9  1  0
  8  3  1  0
  8  6  1  0
  1 10  1  0
  1 11  1  0
  1 12  1  0
  3 13  1  0
  4 14  1  0
  5 15  1  0
  6 16  1  0
  9 17  1  0
  9 18  1  0
  9 19  1  0
M  END
$$$$
