gdb 1783	3.4485358	1.2731245	1.0982723	2.964	76.07	-0.25073	-0.03305	0.21768	1146.64	0.155862	-422.553804	-422.545247	-422.544303	-422.588666	31.999
 OpenBabel02181911403D

 19 20  0  0  1  0  0  0  0  0999 V2000
    0.1624   -1.4768   -1.2551 C   0  0  0  0  0  0  0  0  0  0  0  0
    1.5815   -1.0725   -0.9385 C   0  0  2  0  0  0  0  0  0  0  0  0
    2.8058   -2.0401   -1.0694 C   0  0  0  0  0  0  0  0  0  0  0  0
    3.4683   -0.9287   -0.2079 C   0  0  2  0  0  0  0  0  0  0  0  0
    2.0980   -0.7953    0.5137 C   0  0  0  0  0  0  0  0  0  0  0  0
    3.4955    0.2042   -1.0866 O   0  0  0  0  0  0  0  0  0  0  0  0
    2.1643    0.1630   -1.6495 C   0  0  0  0  0  0  0  0  0  0  0  0
    4.7705   -1.1024    0.5108 C   0  0  0  0  0  0  0  0  0  0  0  0
    4.9725   -1.9907    1.3003 O   0  0  0  0  0  0  0  0  0  0  0  0
   -0.1308   -2.3651   -0.6872 H   0  0  0  0  0  0  0  0  0  0  0  0
   -0.5420   -0.6740   -1.0085 H   0  0  0  0  0  0  0  0  0  0  0  0
    0.0449   -1.7065   -2.3204 H   0  0  0  0  0  0  0  0  0  0  0  0
    2.6752   -2.9747   -0.5232 H   0  0  0  0  0  0  0  0  0  0  0  0
    3.2341   -2.2114   -2.0601 H   0  0  0  0  0  0  0  0  0  0  0  0
    1.9033   -1.6171    1.2033 H   0  0  0  0  0  0  0  0  0  0  0  0
    1.8786    0.1725    0.9714 H   0  0  0  0  0  0  0  0  0  0  0  0
    1.6274    1.0901   -1.4148 H   0  0  0  0  0  0  0  0  0  0  0  0
    2.2194    0.0489   -2.7388 H   0  0  0  0  0  0  0  0  0  0  0  0
    5.5436   -0.3444    0.2595 H   0  0  0  0  0  0  0  0  0  0  0  0
  1 11  1  0  0  0  0
  1 10  1  0  0  0  0
  2  1  1  6  0  0  0
  2  5  1  0  0  0  0
  3  2  1  0  0  0  0
  3 13  1  0  0  0  0
  3  4  1  0  0  0  0
  4  8  1  1  0  0  0
  4  5  1  0  0  0  0
  5 16  1  0  0  0  0
  5 15  1  0  0  0  0
  6  4  1  0  0  0  0
  7 17  1  0  0  0  0
  7  6  1  0  0  0  0
  7  2  1  0  0  0  0
  8  9  2  0  0  0  0
 12  1  1  0  0  0  0
 14  3  1  0  0  0  0
 18  7  1  0  0  0  0
 19  8  1  0  0  0  0
M TOR 0 0 1 2 3
M TOR 1 0 1 2 12
M TOR 2 0 1 2 13
M TOR 3 0 1 4 3
M TOR 4 0 1 4 14
M TOR 5 0 1 4 15
M TOR 6 0 1 6 5
M TOR 7 0 1 6 16
M TOR 8 0 1 6 17
M TOR 9 1 2 3 4
M TOR 10 1 2 3 5
M TOR 11 1 2 3 7
M TOR 12 1 4 3 5
M TOR 13 1 4 3 7
M TOR 14 1 6 5 3
M TOR 15 2 1 0 9
M TOR 16 2 1 0 10
M TOR 17 2 1 0 11
M TOR 18 2 1 4 14
M TOR 19 2 1 4 15
M TOR 20 2 1 6 5
M TOR 21 2 1 6 16
M TOR 22 2 1 6 17
M TOR 23 2 3 4 14
M TOR 24 2 3 4 15
M TOR 25 2 3 5 6
M TOR 26 2 3 7 8
M TOR 27 2 3 7 18
M TOR 28 3 2 1 6
M TOR 29 3 4 1 6
M TOR 30 3 5 6 16
M TOR 31 3 5 6 17
M TOR 32 4 1 0 9
M TOR 33 4 1 0 10
M TOR 34 4 1 0 11
M TOR 35 4 1 2 12
M TOR 36 4 1 2 13
M TOR 37 4 1 6 5
M TOR 38 4 1 6 16
M TOR 39 4 1 6 17
M TOR 40 4 3 2 12
M TOR 41 4 3 2 13
M TOR 42 4 3 5 6
M TOR 43 4 3 7 8
M TOR 44 4 3 7 18
M TOR 45 5 3 2 12
M TOR 46 5 3 2 13
M TOR 47 5 3 4 14
M TOR 48 5 3 4 15
M TOR 49 5 3 7 8
M TOR 50 5 3 7 18
M TOR 51 6 1 0 9
M TOR 52 6 1 0 10
M TOR 53 6 1 0 11
M TOR 54 6 1 2 12
M TOR 55 6 1 2 13
M TOR 56 6 1 4 14
M TOR 57 6 1 4 15
M TOR 58 6 5 3 7
M TOR 59 7 3 2 12
M TOR 60 7 3 2 13
M TOR 61 7 3 4 14
M TOR 62 7 3 4 15
M  END
$$$$
