gdb 4823	2.2407244	1.325248	1.0521853	1.831	78.63	-0.23384	0.03535	0.26919	1231.8346	0.153366	-422.513261	-422.503129	-422.502184	-422.54792	37.544
 OpenBabel02181911413D

 19 19  0  0  1  0  0  0  0  0999 V2000
    1.2088   -0.1570    1.0851 C   0  0  0  0  0  0  0  0  0  0  0  0
    0.8806    0.2521   -0.3545 C   0  0  0  0  0  0  0  0  0  0  0  0
    1.6323   -0.5554   -1.3867 C   0  0  2  0  0  0  0  0  0  0  0  0
    3.0257   -0.3752   -1.3468 O   0  0  0  0  0  0  0  0  0  0  0  0
    1.1188   -0.7840   -2.7763 C   0  0  1  0  0  0  0  0  0  0  0  0
    2.0083   -0.7230   -3.8281 O   0  0  0  0  0  0  0  0  0  0  0  0
    1.1516   -1.9658   -1.7761 C   0  0  1  0  0  0  0  0  0  0  0  0
    2.1391   -2.9888   -1.8930 C   0  0  0  0  0  0  0  0  0  0  0  0
    3.0310   -3.7974   -1.9522 C   0  0  0  0  0  0  0  0  0  0  0  0
    0.9358   -1.2009    1.2729 H   0  0  0  0  0  0  0  0  0  0  0  0
    2.2793   -0.0477    1.2796 H   0  0  0  0  0  0  0  0  0  0  0  0
    0.6681    0.4670    1.8023 H   0  0  0  0  0  0  0  0  0  0  0  0
   -0.1943    0.1493   -0.5451 H   0  0  0  0  0  0  0  0  0  0  0  0
    1.1252    1.3107   -0.5072 H   0  0  0  0  0  0  0  0  0  0  0  0
    3.4379   -1.2237   -1.1294 H   0  0  0  0  0  0  0  0  0  0  0  0
    0.1276   -0.4258   -3.0394 H   0  0  0  0  0  0  0  0  0  0  0  0
    2.8647   -0.4968   -3.4339 H   0  0  0  0  0  0  0  0  0  0  0  0
    0.1906   -2.2697   -1.3709 H   0  0  0  0  0  0  0  0  0  0  0  0
    3.7825   -4.5425   -2.0407 H   0  0  0  0  0  0  0  0  0  0  0  0
  1 10  1  0  0  0  0
  1 11  1  0  0  0  0
  1 12  1  0  0  0  0
  2  1  1  0  0  0  0
  3  4  1  1  0  0  0
  3  2  1  0  0  0  0
  4 15  1  0  0  0  0
  5 16  1  6  0  0  0
  5  7  1  0  0  0  0
  5  3  1  0  0  0  0
  6 17  1  0  0  0  0
  6  5  1  0  0  0  0
  7  3  1  0  0  0  0
  7 18  1  1  0  0  0
  8  7  1  0  0  0  0
  9  8  3  0  0  0  0
 13  2  1  0  0  0  0
 14  2  1  0  0  0  0
 19  9  1  0  0  0  0
M TOR 0 0 1 2 3
M TOR 1 0 1 2 4
M TOR 2 0 1 2 6
M TOR 3 1 2 3 14
M TOR 4 1 2 4 5
M TOR 5 1 2 4 6
M TOR 6 1 2 4 15
M TOR 7 1 2 6 7
M TOR 8 1 2 6 17
M TOR 9 2 1 0 9
M TOR 10 2 1 0 10
M TOR 11 2 1 0 11
M TOR 12 2 4 5 16
M TOR 13 2 4 6 7
M TOR 14 2 4 6 17
M TOR 15 2 6 4 5
M TOR 16 2 6 4 15
M TOR 17 2 6 7 8
M TOR 18 3 2 1 12
M TOR 19 3 2 1 13
M TOR 20 3 2 4 5
M TOR 21 3 2 4 6
M TOR 22 3 2 4 15
M TOR 23 3 2 6 7
M TOR 24 3 2 6 17
M TOR 25 4 2 1 12
M TOR 26 4 2 1 13
M TOR 27 4 2 3 14
M TOR 28 4 6 7 8
M TOR 29 5 4 6 7
M TOR 30 5 4 6 17
M TOR 31 6 2 1 12
M TOR 32 6 2 1 13
M TOR 33 6 2 3 14
M TOR 34 6 4 5 16
M TOR 35 6 7 8 18
M TOR 36 7 6 4 15
M TOR 37 8 7 6 17
M  END
$$$$
