gdb 3549	2.4134036	1.7991176	1.2877843	4.5512	75.09	-0.25607	0.01879	0.27486	1034.7661	0.158874	-422.596253	-422.588566	-422.587622	-422.628233	30.115
 OpenBabel02181911413D

 19 20  0  0  1  0  0  0  0  0999 V2000
   -2.8184   -1.8935    1.2475 C   0  0  0  0  0  0  0  0  0  0  0  0
   -2.2863   -1.0887    0.0694 C   0  0  2  0  0  0  0  0  0  0  0  0
   -0.8366   -1.1800    0.0918 O   0  0  0  0  0  0  0  0  0  0  0  0
   -0.0644   -0.0599    0.0258 C   0  0  0  0  0  0  0  0  0  0  0  0
    1.1309   -0.1612    0.0197 O   0  0  0  0  0  0  0  0  0  0  0  0
   -0.8299    1.2453   -0.0248 C   0  0  2  0  0  0  0  0  0  0  0  0
   -1.9404    1.2038    1.0654 C   0  0  0  0  0  0  0  0  0  0  0  0
   -2.7498    0.3670    0.0381 C   0  0  1  0  0  0  0  0  0  0  0  0
   -1.9705    1.1131   -1.0764 C   0  0  0  0  0  0  0  0  0  0  0  0
   -2.3946   -2.9007    1.2361 H   0  0  0  0  0  0  0  0  0  0  0  0
   -2.5575   -1.4242    2.2005 H   0  0  0  0  0  0  0  0  0  0  0  0
   -3.9082   -1.9749    1.1874 H   0  0  0  0  0  0  0  0  0  0  0  0
   -2.5953   -1.5751   -0.8654 H   0  0  0  0  0  0  0  0  0  0  0  0
   -0.1304    2.0777   -0.0704 H   0  0  0  0  0  0  0  0  0  0  0  0
   -1.6958    0.7614    2.0338 H   0  0  0  0  0  0  0  0  0  0  0  0
   -2.3799    2.1922    1.2168 H   0  0  0  0  0  0  0  0  0  0  0  0
   -3.8409    0.4159    0.0491 H   0  0  0  0  0  0  0  0  0  0  0  0
   -1.7571    0.5782   -2.0060 H   0  0  0  0  0  0  0  0  0  0  0  0
   -2.4100    2.0866   -1.3048 H   0  0  0  0  0  0  0  0  0  0  0  0
  1 11  1  0  0  0  0
  2 13  1  6  0  0  0
  2  3  1  0  0  0  0
  2  1  1  0  0  0  0
  4  3  1  0  0  0  0
  5  4  2  0  0  0  0
  6 14  1  6  0  0  0
  6  4  1  0  0  0  0
  6  7  1  0  0  0  0
  7 16  1  0  0  0  0
  7 15  1  0  0  0  0
  8 17  1  1  0  0  0
  8  2  1  0  0  0  0
  8  7  1  0  0  0  0
  9  6  1  0  0  0  0
  9  8  1  0  0  0  0
 10  1  1  0  0  0  0
 12  1  1  0  0  0  0
 18  9  1  0  0  0  0
 19  9  1  0  0  0  0
M TOR 0 0 1 2 3
M TOR 1 0 1 7 6
M TOR 2 0 1 7 8
M TOR 3 0 1 7 16
M TOR 4 1 2 3 4
M TOR 5 1 2 3 5
M TOR 6 1 7 6 5
M TOR 7 1 7 6 14
M TOR 8 1 7 6 15
M TOR 9 1 7 8 5
M TOR 10 1 7 8 17
M TOR 11 1 7 8 18
M TOR 12 2 1 0 9
M TOR 13 2 1 0 10
M TOR 14 2 1 0 11
M TOR 15 2 1 7 6
M TOR 16 2 1 7 8
M TOR 17 2 1 7 16
M TOR 18 2 3 5 6
M TOR 19 2 3 5 8
M TOR 20 2 3 5 13
M TOR 21 3 2 1 7
M TOR 22 3 2 1 12
M TOR 23 3 5 6 7
M TOR 24 3 5 6 14
M TOR 25 3 5 6 15
M TOR 26 3 5 8 7
M TOR 27 3 5 8 17
M TOR 28 3 5 8 18
M TOR 29 4 3 5 6
M TOR 30 4 3 5 8
M TOR 31 4 3 5 13
M TOR 32 5 6 7 8
M TOR 33 5 6 7 16
M TOR 34 5 8 7 16
M TOR 35 6 5 8 17
M TOR 36 6 5 8 18
M TOR 37 6 7 1 12
M TOR 38 6 7 8 17
M TOR 39 6 7 8 18
M TOR 40 7 1 0 9
M TOR 41 7 1 0 10
M TOR 42 7 1 0 11
M TOR 43 7 6 5 13
M TOR 44 7 8 5 13
M TOR 45 8 5 6 14
M TOR 46 8 5 6 15
M TOR 47 8 7 1 12
M TOR 48 8 7 6 14
M TOR 49 8 7 6 15
M  END
$$$$
