gdb 3012	2.6063231	1.738386	1.4675159	2.2306	73.61	-0.24641	0.06342	0.30983	971.2439	0.157995	-422.523228	-422.515475	-422.514531	-422.554718	31.768
 OpenBabel02181911413D

 19 21  0  0  1  0  0  0  0  0999 V2000
    0.5736    0.5246    0.6892 O   0  0  0  0  0  0  0  0  0  0  0  0
   -0.8221    0.5916    0.8880 C   0  0  1  0  0  0  0  0  0  0  0  0
   -1.2641   -0.0353    2.2375 C   0  0  1  0  0  0  0  0  0  0  0  0
   -0.6874    1.2586    2.9083 C   0  0  0  0  0  0  0  0  0  0  0  0
   -1.2716    1.8978    1.5850 C   0  0  1  0  0  0  0  0  0  0  0  0
   -0.7856    3.0747    1.0132 O   0  0  0  0  0  0  0  0  0  0  0  0
   -2.7839    1.7126    1.8250 C   0  0  1  0  0  0  0  0  0  0  0  0
   -3.5559    0.6580    1.0684 C   0  0  0  0  0  0  0  0  0  0  0  0
   -2.7760    0.2701    2.3037 C   0  0  1  0  0  0  0  0  0  0  0  0
    0.8377    1.3742    0.3158 H   0  0  0  0  0  0  0  0  0  0  0  0
   -1.3393    0.2844   -0.0244 H   0  0  0  0  0  0  0  0  0  0  0  0
   -0.9263   -1.0309    2.5195 H   0  0  0  0  0  0  0  0  0  0  0  0
   -1.1348    1.5712    3.8555 H   0  0  0  0  0  0  0  0  0  0  0  0
    0.4003    1.2798    2.9476 H   0  0  0  0  0  0  0  0  0  0  0  0
   -0.9314    3.8057    1.6224 H   0  0  0  0  0  0  0  0  0  0  0  0
   -3.3156    2.4998    2.3505 H   0  0  0  0  0  0  0  0  0  0  0  0
   -4.6324    0.6953    1.2076 H   0  0  0  0  0  0  0  0  0  0  0  0
   -3.2717    0.3368    0.0744 H   0  0  0  0  0  0  0  0  0  0  0  0
   -3.3168   -0.0416    3.1903 H   0  0  0  0  0  0  0  0  0  0  0  0
  1  2  1  0  0  0  0
  2 11  1  6  0  0  0
  2  5  1  0  0  0  0
  2  3  1  0  0  0  0
  3  9  1  0  0  0  0
  3 12  1  1  0  0  0
  3  4  1  0  0  0  0
  4 14  1  0  0  0  0
  4 13  1  0  0  0  0
  5  6  1  6  0  0  0
  5  7  1  0  0  0  0
  5  4  1  0  0  0  0
  6 15  1  0  0  0  0
  7  9  1  0  0  0  0
  7 16  1  1  0  0  0
  8 17  1  0  0  0  0
  8  7  1  0  0  0  0
  8  9  1  0  0  0  0
  9 19  1  1  0  0  0
 10  1  1  0  0  0  0
 18  8  1  0  0  0  0
M TOR 0 0 1 2 3
M TOR 1 0 1 2 8
M TOR 2 0 1 2 11
M TOR 3 0 1 4 3
M TOR 4 0 1 4 5
M TOR 5 0 1 4 6
M TOR 6 1 2 3 4
M TOR 7 1 2 3 12
M TOR 8 1 2 3 13
M TOR 9 1 2 8 6
M TOR 10 1 2 8 7
M TOR 11 1 2 8 18
M TOR 12 1 4 3 12
M TOR 13 1 4 3 13
M TOR 14 1 4 5 14
M TOR 15 1 4 6 7
M TOR 16 1 4 6 8
M TOR 17 1 4 6 15
M TOR 18 2 1 0 9
M TOR 19 2 1 4 5
M TOR 20 2 1 4 6
M TOR 21 2 3 4 5
M TOR 22 2 3 4 6
M TOR 23 2 8 6 4
M TOR 24 2 8 6 7
M TOR 25 2 8 6 15
M TOR 26 2 8 7 16
M TOR 27 2 8 7 17
M TOR 28 3 2 1 10
M TOR 29 3 2 8 6
M TOR 30 3 2 8 7
M TOR 31 3 2 8 18
M TOR 32 3 4 1 10
M TOR 33 3 4 5 14
M TOR 34 3 4 6 7
M TOR 35 3 4 6 8
M TOR 36 3 4 6 15
M TOR 37 4 1 0 9
M TOR 38 4 1 2 8
M TOR 39 4 1 2 11
M TOR 40 4 3 2 8
M TOR 41 4 3 2 11
M TOR 42 4 6 7 8
M TOR 43 4 6 7 16
M TOR 44 4 6 7 17
M TOR 45 4 6 8 18
M TOR 46 5 4 1 10
M TOR 47 5 4 3 12
M TOR 48 5 4 3 13
M TOR 49 5 4 6 7
M TOR 50 5 4 6 8
M TOR 51 5 4 6 15
M TOR 52 6 4 1 10
M TOR 53 6 4 3 12
M TOR 54 6 4 3 13
M TOR 55 6 4 5 14
M TOR 56 6 7 8 18
M TOR 57 6 8 2 11
M TOR 58 6 8 7 16
M TOR 59 6 8 7 17
M TOR 60 7 8 2 11
M TOR 61 7 8 6 15
M TOR 62 8 2 1 10
M TOR 63 8 2 3 12
M TOR 64 8 2 3 13
M  END
$$$$
