
     RDKit          3D

 19 21  0  0  0  0  0  0  0  0999 V2000
   -0.1057    0.1513    0.0081 C   0  0  0  0  0  0  0  0  0  0  0  0
    1.3999    0.0342    0.0872 C   0  0  0  0  0  0  0  0  0  0  0  0
    1.8105   -0.9802    1.0684 O   0  0  0  0  0  0  0  0  0  0  0  0
    2.6287   -1.5935    0.1037 C   0  0  0  0  0  0  0  0  0  0  0  0
    3.0726   -3.0355   -0.0250 C   0  0  0  0  0  0  0  0  0  0  0  0
    4.2947   -2.5799   -0.6701 O   0  0  0  0  0  0  0  0  0  0  0  0
    4.0890   -1.1998   -0.2649 C   0  0  0  0  0  0  0  0  0  0  0  0
    3.5818   -0.2914   -1.4116 C   0  0  0  0  0  0  0  0  0  0  0  0
    2.1264   -0.7188   -1.0656 C   0  0  0  0  0  0  0  0  0  0  0  0
   -0.5164    0.4619    0.9738 H   0  0  0  0  0  0  0  0  0  0  0  0
   -0.3889    0.8963   -0.7435 H   0  0  0  0  0  0  0  0  0  0  0  0
   -0.5554   -0.8083   -0.2641 H   0  0  0  0  0  0  0  0  0  0  0  0
    1.8564    1.0008    0.3382 H   0  0  0  0  0  0  0  0  0  0  0  0
    3.2823   -3.5296    0.9340 H   0  0  0  0  0  0  0  0  0  0  0  0
    2.4850   -3.7045   -0.6638 H   0  0  0  0  0  0  0  0  0  0  0  0
    4.8595   -0.8471    0.4262 H   0  0  0  0  0  0  0  0  0  0  0  0
    3.7931    0.7749   -1.2824 H   0  0  0  0  0  0  0  0  0  0  0  0
    3.9306   -0.6084   -2.3968 H   0  0  0  0  0  0  0  0  0  0  0  0
    1.4754   -1.0912   -1.8577 H   0  0  0  0  0  0  0  0  0  0  0  0
  1  2  1  0
  2  3  1  0
  3  4  1  0
  4  5  1  0
  5  6  1  0
  6  7  1  0
  7  8  1  0
  8  9  1  0
  9  2  1  0
  7  4  1  0
  9  4  1  0
  1 10  1  0
  1 11  1  0
  1 12  1  0
  2 13  1  0
  5 14  1  0
  5 15  1  0
  7 16  1  0
  8 17  1  0
  8 18  1  0
  9 19  1  0
M  END
$$$$
