gdb 433	3.4405328	1.3020088	1.1674801	0.9789	74.91	-0.22323	0.08341	0.30664	1119.4377	0.157425	-422.512672	-422.504726	-422.503782	-422.545355	30.567
 OpenBabel02181911403D

 19 21  0  0  1  0  0  0  0  0999 V2000
   -0.3988    1.3411   -0.5375 C   0  0  0  0  0  0  0  0  0  0  0  0
   -1.2246    0.1471   -0.9504 C   0  0  0  0  0  0  0  0  0  0  0  0
   -0.1290   -0.0124    0.0734 C   0  0  0  0  0  0  0  0  0  0  0  0
   -0.4539   -0.2776    1.5021 C   0  0  2  0  0  0  0  0  0  0  0  0
    0.6012   -0.5483    2.5659 C   0  0  0  0  0  0  0  0  0  0  0  0
   -0.4386   -1.5965    2.2067 C   0  0  1  0  0  0  0  0  0  0  0  0
   -1.6080   -1.6700    2.9849 O   0  0  0  0  0  0  0  0  0  0  0  0
   -2.1179   -0.3521    3.0586 C   0  0  0  0  0  0  0  0  0  0  0  0
   -1.6315    0.3702    1.9425 O   0  0  0  0  0  0  0  0  0  0  0  0
    0.3274    1.7393   -1.2374 H   0  0  0  0  0  0  0  0  0  0  0  0
   -0.8779    2.0819    0.0917 H   0  0  0  0  0  0  0  0  0  0  0  0
   -2.2454    0.1034   -0.5905 H   0  0  0  0  0  0  0  0  0  0  0  0
   -1.0681   -0.2782   -1.9354 H   0  0  0  0  0  0  0  0  0  0  0  0
    0.7752   -0.5175   -0.2526 H   0  0  0  0  0  0  0  0  0  0  0  0
    1.6109   -0.7294    2.2115 H   0  0  0  0  0  0  0  0  0  0  0  0
    0.5457   -0.0422    3.5236 H   0  0  0  0  0  0  0  0  0  0  0  0
   -0.1768   -2.5469    1.7590 H   0  0  0  0  0  0  0  0  0  0  0  0
   -3.2120   -0.3825    3.0244 H   0  0  0  0  0  0  0  0  0  0  0  0
   -1.7890    0.1315    3.9929 H   0  0  0  0  0  0  0  0  0  0  0  0
  1  3  1  0  0  0  0
  1 11  1  0  0  0  0
  2 12  1  0  0  0  0
  2  1  1  0  0  0  0
  2  3  1  0  0  0  0
  4  3  1  6  0  0  0
  4  9  1  0  0  0  0
  4  6  1  0  0  0  0
  4  5  1  0  0  0  0
  5 16  1  0  0  0  0
  6 17  1  6  0  0  0
  6  5  1  0  0  0  0
  6  7  1  0  0  0  0
  7  8  1  0  0  0  0
  8 19  1  0  0  0  0
  9  8  1  0  0  0  0
 10  1  1  0  0  0  0
 13  2  1  0  0  0  0
 14  3  1  0  0  0  0
 15  5  1  0  0  0  0
 18  8  1  0  0  0  0
M TOR 0 0 1 2 3
M TOR 1 0 1 2 13
M TOR 2 0 2 1 11
M TOR 3 0 2 1 12
M TOR 4 0 2 3 4
M TOR 5 0 2 3 5
M TOR 6 0 2 3 8
M TOR 7 1 2 0 9
M TOR 8 1 2 0 10
M TOR 9 1 2 3 4
M TOR 10 1 2 3 5
M TOR 11 1 2 3 8
M TOR 12 2 3 4 5
M TOR 13 2 3 4 14
M TOR 14 2 3 4 15
M TOR 15 2 3 5 6
M TOR 16 2 3 5 16
M TOR 17 2 3 8 7
M TOR 18 3 2 0 9
M TOR 19 3 2 0 10
M TOR 20 3 2 1 11
M TOR 21 3 2 1 12
M TOR 22 3 4 5 6
M TOR 23 3 4 5 16
M TOR 24 3 5 4 14
M TOR 25 3 5 4 15
M TOR 26 3 5 6 7
M TOR 27 3 8 7 6
M TOR 28 3 8 7 17
M TOR 29 3 8 7 18
M TOR 30 4 3 2 13
M TOR 31 4 3 8 7
M TOR 32 4 5 3 8
M TOR 33 4 5 6 7
M TOR 34 5 3 2 13
M TOR 35 5 3 8 7
M TOR 36 5 6 7 8
M TOR 37 5 6 7 17
M TOR 38 5 6 7 18
M TOR 39 6 5 3 8
M TOR 40 6 5 4 14
M TOR 41 6 5 4 15
M TOR 42 7 6 5 16
M TOR 43 8 3 2 13
M TOR 44 8 3 4 14
M TOR 45 8 3 4 15
M TOR 46 8 3 5 16
M  END
$$$$
