gdb 5269	3.025434	1.2779466	1.0559076	2.3081	75.68	-0.2455	-0.02781	0.21769	1188.0431	0.155409	-422.545755	-422.536982	-422.536037	-422.579454	32.504
 OpenBabel02181911423D

 19 20  0  0  1  0  0  0  0  0999 V2000
    3.7591    0.9765   -0.9475 C   0  0  0  0  0  0  0  0  0  0  0  0
    2.2762    0.5857   -0.9672 C   0  0  0  0  0  0  0  0  0  0  0  0
    2.0731   -0.8689   -1.3124 C   0  0  2  0  0  0  0  0  0  0  0  0
    2.3576   -1.3759   -2.7564 C   0  0  0  0  0  0  0  0  0  0  0  0
    1.0228   -2.1480   -2.6985 C   0  0  0  0  0  0  0  0  0  0  0  0
    0.4279   -2.8321   -3.4792 O   0  0  0  0  0  0  0  0  0  0  0  0
    0.7086   -1.6461   -1.2836 C   0  0  1  0  0  0  0  0  0  0  0  0
    1.3985   -2.4930   -0.1897 C   0  0  0  0  0  0  0  0  0  0  0  0
    2.6407   -1.7737   -0.3292 O   0  0  0  0  0  0  0  0  0  0  0  0
    4.3079    0.3546   -0.2351 H   0  0  0  0  0  0  0  0  0  0  0  0
    4.2186    0.8464   -1.9331 H   0  0  0  0  0  0  0  0  0  0  0  0
    3.8831    2.0231   -0.6558 H   0  0  0  0  0  0  0  0  0  0  0  0
    1.8284    0.7779    0.0149 H   0  0  0  0  0  0  0  0  0  0  0  0
    1.7284    1.2000   -1.6930 H   0  0  0  0  0  0  0  0  0  0  0  0
    2.3309   -0.5919   -3.5218 H   0  0  0  0  0  0  0  0  0  0  0  0
    3.2633   -1.9731   -2.8843 H   0  0  0  0  0  0  0  0  0  0  0  0
   -0.2765   -1.2284   -1.0784 H   0  0  0  0  0  0  0  0  0  0  0  0
    0.9641   -2.3523    0.8071 H   0  0  0  0  0  0  0  0  0  0  0  0
    1.5040   -3.5659   -0.3864 H   0  0  0  0  0  0  0  0  0  0  0  0
  1 12  1  0  0  0  0
  1 10  1  0  0  0  0
  2  1  1  0  0  0  0
  2 13  1  0  0  0  0
  3  7  1  0  0  0  0
  3  2  1  1  0  0  0
  3  9  1  0  0  0  0
  4  5  1  0  0  0  0
  4  3  1  0  0  0  0
  5  7  1  0  0  0  0
  6  5  2  0  0  0  0
  7 17  1  1  0  0  0
  7  8  1  0  0  0  0
  8 18  1  0  0  0  0
  9  8  1  0  0  0  0
 11  1  1  0  0  0  0
 14  2  1  0  0  0  0
 15  4  1  0  0  0  0
 16  4  1  0  0  0  0
 19  8  1  0  0  0  0
M TOR 0 0 1 2 3
M TOR 1 0 1 2 6
M TOR 2 0 1 2 8
M TOR 3 1 2 3 4
M TOR 4 1 2 3 14
M TOR 5 1 2 3 15
M TOR 6 1 2 6 4
M TOR 7 1 2 6 7
M TOR 8 1 2 6 16
M TOR 9 1 2 8 7
M TOR 10 2 1 0 9
M TOR 11 2 1 0 10
M TOR 12 2 1 0 11
M TOR 13 2 3 4 5
M TOR 14 2 3 4 6
M TOR 15 2 6 4 5
M TOR 16 2 6 7 8
M TOR 17 2 6 7 17
M TOR 18 2 6 7 18
M TOR 19 2 8 7 17
M TOR 20 2 8 7 18
M TOR 21 3 2 1 12
M TOR 22 3 2 1 13
M TOR 23 3 2 6 7
M TOR 24 3 2 6 16
M TOR 25 3 2 8 7
M TOR 26 3 4 6 7
M TOR 27 3 4 6 16
M TOR 28 4 3 2 8
M TOR 29 4 6 2 8
M TOR 30 4 6 7 8
M TOR 31 4 6 7 17
M TOR 32 4 6 7 18
M TOR 33 5 4 3 14
M TOR 34 5 4 3 15
M TOR 35 5 4 6 7
M TOR 36 5 4 6 16
M TOR 37 6 2 1 12
M TOR 38 6 2 1 13
M TOR 39 6 2 3 14
M TOR 40 6 2 3 15
M TOR 41 6 4 3 14
M TOR 42 6 4 3 15
M TOR 43 8 2 1 12
M TOR 44 8 2 1 13
M TOR 45 8 2 3 14
M TOR 46 8 2 3 15
M TOR 47 8 2 6 16
M TOR 48 8 7 6 16
M  END
$$$$
