
     RDKit          3D

 19 20  0  0  0  0  0  0  0  0999 V2000
    0.8421    2.8735   -3.6351 C   0  0  0  0  0  0  0  0  0  0  0  0
    1.7807    3.5783   -2.8288 O   0  0  0  0  0  0  0  0  0  0  0  0
    1.8468    2.1399   -2.8413 C   0  0  0  0  0  0  0  0  0  0  0  0
    1.5419    1.4269   -1.5788 C   0  0  0  0  0  0  0  0  0  0  0  0
    2.2378    0.3484   -1.2100 C   0  0  0  0  0  0  0  0  0  0  0  0
    1.9256   -0.4195    0.0446 C   0  0  0  0  0  0  0  0  0  0  0  0
    0.5636    0.0091    0.5961 C   0  0  0  0  0  0  0  0  0  0  0  0
    0.4442    1.4208    0.6037 O   0  0  0  0  0  0  0  0  0  0  0  0
    0.4333    1.9635   -0.6999 C   0  0  0  0  0  0  0  0  0  0  0  0
   -0.1924    2.9187   -3.2995 H   0  0  0  0  0  0  0  0  0  0  0  0
    0.9816    2.9661   -4.7118 H   0  0  0  0  0  0  0  0  0  0  0  0
    2.7093    1.7470   -3.3812 H   0  0  0  0  0  0  0  0  0  0  0  0
    3.0636    0.0007   -1.8274 H   0  0  0  0  0  0  0  0  0  0  0  0
    1.9248   -1.4990   -0.1546 H   0  0  0  0  0  0  0  0  0  0  0  0
    2.7099   -0.2466    0.7945 H   0  0  0  0  0  0  0  0  0  0  0  0
   -0.2419   -0.4380   -0.0104 H   0  0  0  0  0  0  0  0  0  0  0  0
    0.4282   -0.3175    1.6307 H   0  0  0  0  0  0  0  0  0  0  0  0
   -0.5470    1.7831   -1.1794 H   0  0  0  0  0  0  0  0  0  0  0  0
    0.5456    3.0465   -0.5910 H   0  0  0  0  0  0  0  0  0  0  0  0
  1  2  1  0
  2  3  1  0
  3  4  1  0
  4  5  2  0
  5  6  1  0
  6  7  1  0
  7  8  1  0
  8  9  1  0
  3  1  1  0
  9  4  1  0
  1 10  1  0
  1 11  1  0
  3 12  1  0
  5 13  1  0
  6 14  1  0
  6 15  1  0
  7 16  1  0
  7 17  1  0
  9 18  1  0
  9 19  1  0
M  END
$$$$
