gdb 4578	2.3943473	1.5824286	1.0624758	3.1383	79.83	-0.23476	-0.05309	0.18167	1158.9217	0.157252	-422.576953	-422.568366	-422.567422	-422.610477	32.119
 OpenBabel02181911413D

 19 19  0  0  1  0  0  0  0  0999 V2000
    0.3997   -2.3406   -0.1587 C   0  0  0  0  0  0  0  0  0  0  0  0
   -0.8035   -1.4097   -0.0188 C   0  0  2  0  0  0  0  0  0  0  0  0
   -1.4617   -1.3861   -1.2675 O   0  0  0  0  0  0  0  0  0  0  0  0
   -2.6584   -0.6344   -1.3048 C   0  0  0  0  0  0  0  0  0  0  0  0
   -2.4095    0.7510   -1.8887 C   0  0  0  0  0  0  0  0  0  0  0  0
   -1.3972    1.5794   -1.1605 C   0  0  0  0  0  0  0  0  0  0  0  0
   -0.5560    1.2410   -0.1737 C   0  0  0  0  0  0  0  0  0  0  0  0
   -0.3398   -0.0456    0.5314 C   0  0  0  0  0  0  0  0  0  0  0  0
    0.2613   -0.0402    1.5906 O   0  0  0  0  0  0  0  0  0  0  0  0
    0.9399   -2.3849    0.7878 H   0  0  0  0  0  0  0  0  0  0  0  0
    0.0630   -3.3414   -0.4391 H   0  0  0  0  0  0  0  0  0  0  0  0
    1.0737   -1.9717   -0.9377 H   0  0  0  0  0  0  0  0  0  0  0  0
   -1.4809   -1.8156    0.7519 H   0  0  0  0  0  0  0  0  0  0  0  0
   -3.3695   -1.1790   -1.9364 H   0  0  0  0  0  0  0  0  0  0  0  0
   -3.1006   -0.5542   -0.3006 H   0  0  0  0  0  0  0  0  0  0  0  0
   -2.0811    0.6458   -2.9330 H   0  0  0  0  0  0  0  0  0  0  0  0
   -3.3570    1.3063   -1.9361 H   0  0  0  0  0  0  0  0  0  0  0  0
   -1.3607    2.6183   -1.4867 H   0  0  0  0  0  0  0  0  0  0  0  0
    0.0674    2.0207    0.2572 H   0  0  0  0  0  0  0  0  0  0  0  0
  1  2  1  0  0  0  0
  1 10  1  0  0  0  0
  2  8  1  0  0  0  0
  2 13  1  1  0  0  0
  3  2  1  0  0  0  0
  4  3  1  0  0  0  0
  4 15  1  0  0  0  0
  5  4  1  0  0  0  0
  5  6  1  0  0  0  0
  6  7  2  0  0  0  0
  7 19  1  0  0  0  0
  7  8  1  0  0  0  0
  8  9  2  0  0  0  0
 11  1  1  0  0  0  0
 12  1  1  0  0  0  0
 14  4  1  0  0  0  0
 16  5  1  0  0  0  0
 17  5  1  0  0  0  0
 18  6  1  0  0  0  0
M TOR 0 0 1 2 3
M TOR 1 0 1 7 6
M TOR 2 0 1 7 8
M TOR 3 1 2 3 4
M TOR 4 1 2 3 13
M TOR 5 1 2 3 14
M TOR 6 1 7 6 5
M TOR 7 1 7 6 18
M TOR 8 2 1 0 9
M TOR 9 2 1 0 10
M TOR 10 2 1 0 11
M TOR 11 2 1 7 6
M TOR 12 2 1 7 8
M TOR 13 2 3 4 5
M TOR 14 2 3 4 15
M TOR 15 2 3 4 16
M TOR 16 3 2 1 7
M TOR 17 3 2 1 12
M TOR 18 3 4 5 6
M TOR 19 3 4 5 17
M TOR 20 4 5 6 7
M TOR 21 4 5 6 18
M TOR 22 5 4 3 13
M TOR 23 5 4 3 14
M TOR 24 5 6 7 8
M TOR 25 6 5 4 15
M TOR 26 6 5 4 16
M TOR 27 6 7 1 12
M TOR 28 7 1 0 9
M TOR 29 7 1 0 10
M TOR 30 7 1 0 11
M TOR 31 7 6 5 17
M TOR 32 8 7 1 12
M TOR 33 8 7 6 18
M  END
$$$$
