
     RDKit          3D

 19 21  0  0  0  0  0  0  0  0999 V2000
   -0.7200    0.9387   -1.3030 C   0  0  0  0  0  0  0  0  0  0  0  0
    0.3898    1.9999   -1.5014 C   0  0  0  0  0  0  0  0  0  0  0  0
    1.4005    2.1368   -0.3695 C   0  0  0  0  0  0  0  0  0  0  0  0
    0.7452    2.6238    0.8489 O   0  0  0  0  0  0  0  0  0  0  0  0
    0.9817    1.3777    1.4978 C   0  0  0  0  0  0  0  0  0  0  0  0
    0.0444    0.2192    1.0158 C   0  0  0  0  0  0  0  0  0  0  0  0
   -1.1436    0.6664    0.1537 C   0  0  0  0  0  0  0  0  0  0  0  0
    1.1309   -0.3307    0.1987 O   0  0  0  0  0  0  0  0  0  0  0  0
    1.8984    0.8572    0.3950 C   0  0  0  0  0  0  0  0  0  0  0  0
   -1.6025    1.2433   -1.8755 H   0  0  0  0  0  0  0  0  0  0  0  0
   -0.3818   -0.0093   -1.7267 H   0  0  0  0  0  0  0  0  0  0  0  0
    0.9235    1.8002   -2.4385 H   0  0  0  0  0  0  0  0  0  0  0  0
   -0.0597    2.9946   -1.6104 H   0  0  0  0  0  0  0  0  0  0  0  0
    2.2079    2.8226   -0.6514 H   0  0  0  0  0  0  0  0  0  0  0  0
    1.1978    1.4654    2.5632 H   0  0  0  0  0  0  0  0  0  0  0  0
   -0.2441   -0.5002    1.7884 H   0  0  0  0  0  0  0  0  0  0  0  0
   -1.9119   -0.1140    0.1501 H   0  0  0  0  0  0  0  0  0  0  0  0
   -1.5866    1.5588    0.6096 H   0  0  0  0  0  0  0  0  0  0  0  0
    2.9733    0.6778    0.4425 H   0  0  0  0  0  0  0  0  0  0  0  0
  1  2  1  0
  2  3  1  0
  3  4  1  0
  4  5  1  0
  5  6  1  0
  6  7  1  0
  6  8  1  0
  8  9  1  0
  7  1  1  0
  9  3  1  0
  9  5  1  0
  1 10  1  0
  1 11  1  0
  2 12  1  0
  2 13  1  0
  3 14  1  0
  5 15  1  0
  6 16  1  0
  7 17  1  0
  7 18  1  0
  9 19  1  0
M  END
$$$$
