
     RDKit          3D

 19 18  0  0  0  0  0  0  0  0999 V2000
    1.1727   -0.6453   -0.4319 C   0  0  0  0  0  0  0  0  0  0  0  0
   -0.0503   -0.0902    0.0123 O   0  0  0  0  0  0  0  0  0  0  0  0
    0.0143    0.5616    1.2519 C   0  0  0  0  0  0  0  0  0  0  0  0
   -1.2598    1.4021    1.3971 C   0  0  0  0  0  0  0  0  0  0  0  0
    0.1410   -0.4270    2.4215 C   0  0  0  0  0  0  0  0  0  0  0  0
    0.0824   -1.6207    2.2704 O   0  0  0  0  0  0  0  0  0  0  0  0
    0.2994    0.1487    3.8492 C   0  0  0  0  0  0  0  0  0  0  0  0
    1.0121    1.4115    3.9697 C   0  0  0  0  0  0  0  0  0  0  0  0
    1.6070    2.4508    4.0753 C   0  0  0  0  0  0  0  0  0  0  0  0
    1.5067   -1.4689    0.2088 H   0  0  0  0  0  0  0  0  0  0  0  0
    0.9962   -1.0283   -1.4396 H   0  0  0  0  0  0  0  0  0  0  0  0
    1.9641    0.1193   -0.4786 H   0  0  0  0  0  0  0  0  0  0  0  0
    0.8904    1.2308    1.2977 H   0  0  0  0  0  0  0  0  0  0  0  0
   -1.2399    1.9986    2.3119 H   0  0  0  0  0  0  0  0  0  0  0  0
   -1.3370    2.0775    0.5421 H   0  0  0  0  0  0  0  0  0  0  0  0
   -2.1414    0.7547    1.4041 H   0  0  0  0  0  0  0  0  0  0  0  0
   -0.7181    0.2566    4.2512 H   0  0  0  0  0  0  0  0  0  0  0  0
    0.7797   -0.6350    4.4435 H   0  0  0  0  0  0  0  0  0  0  0  0
    2.1346    3.3679    4.1684 H   0  0  0  0  0  0  0  0  0  0  0  0
  1  2  1  0
  2  3  1  0
  3  4  1  0
  3  5  1  0
  5  6  2  0
  5  7  1  0
  7  8  1  0
  8  9  3  0
  1 10  1  0
  1 11  1  0
  1 12  1  0
  3 13  1  0
  4 14  1  0
  4 15  1  0
  4 16  1  0
  7 17  1  0
  7 18  1  0
  9 19  1  0
M  END
$$$$
