
     RDKit          3D

 19 19  0  0  0  0  0  0  0  0999 V2000
   -0.2591    4.0383   -1.0375 C   0  0  0  0  0  0  0  0  0  0  0  0
   -0.5351    2.6288   -1.5041 C   0  0  0  0  0  0  0  0  0  0  0  0
   -1.8902    2.0270   -1.4065 C   0  0  0  0  0  0  0  0  0  0  0  0
   -0.7934    1.5268   -0.4698 C   0  0  0  0  0  0  0  0  0  0  0  0
   -0.2159    0.1887   -0.7456 C   0  0  0  0  0  0  0  0  0  0  0  0
   -0.1449   -0.2731   -1.8681 O   0  0  0  0  0  0  0  0  0  0  0  0
    0.3338   -0.6096    0.4379 C   0  0  0  0  0  0  0  0  0  0  0  0
    1.7746   -1.0316    0.1812 C   0  0  0  0  0  0  0  0  0  0  0  0
    2.6442   -0.9840    1.0097 O   0  0  0  0  0  0  0  0  0  0  0  0
    0.7877    4.1650   -0.7427 H   0  0  0  0  0  0  0  0  0  0  0  0
   -0.4712    4.7577   -1.8361 H   0  0  0  0  0  0  0  0  0  0  0  0
   -0.8853    4.3025   -0.1790 H   0  0  0  0  0  0  0  0  0  0  0  0
    0.0587    2.2824   -2.3452 H   0  0  0  0  0  0  0  0  0  0  0  0
   -2.6862    2.6067   -0.9511 H   0  0  0  0  0  0  0  0  0  0  0  0
   -2.1953    1.3291   -2.1778 H   0  0  0  0  0  0  0  0  0  0  0  0
   -0.8450    1.8339    0.5685 H   0  0  0  0  0  0  0  0  0  0  0  0
    0.2671   -0.0914    1.3960 H   0  0  0  0  0  0  0  0  0  0  0  0
   -0.2582   -1.5336    0.4935 H   0  0  0  0  0  0  0  0  0  0  0  0
    1.9560   -1.3926   -0.8518 H   0  0  0  0  0  0  0  0  0  0  0  0
  1  2  1  0
  2  3  1  0
  3  4  1  0
  4  5  1  0
  5  6  2  0
  5  7  1  0
  7  8  1  0
  8  9  2  0
  4  2  1  0
  1 10  1  0
  1 11  1  0
  1 12  1  0
  2 13  1  0
  3 14  1  0
  3 15  1  0
  4 16  1  0
  7 17  1  0
  7 18  1  0
  8 19  1  0
M  END
$$$$
