gdb 3395	2.6741673	1.7523049	1.2959368	1.6486	73.86	-0.23051	0.06892	0.29943	1010.8054	0.158448	-422.544917	-422.53723	-422.536286	-422.576507	31.193
 OpenBabel02181911413D

 19 21  0  0  1  0  0  0  0  0999 V2000
    0.5645    0.2556    0.8334 O   0  0  0  0  0  0  0  0  0  0  0  0
   -0.8102    0.6084    0.9409 C   0  0  1  0  0  0  0  0  0  0  0  0
   -1.4363    0.3463    2.3477 C   0  0  2  0  0  0  0  0  0  0  0  0
   -2.9603    0.1659    2.2596 C   0  0  0  0  0  0  0  0  0  0  0  0
   -3.4634    1.5040    1.6470 C   0  0  0  0  0  0  0  0  0  0  0  0
   -2.2754    2.4536    1.8132 C   0  0  1  0  0  0  0  0  0  0  0  0
   -1.1964    1.8460    2.6924 C   0  0  2  0  0  0  0  0  0  0  0  0
   -0.9560    2.1027    1.1926 C   0  0  1  0  0  0  0  0  0  0  0  0
   -0.2051    3.0437    0.5258 O   0  0  0  0  0  0  0  0  0  0  0  0
    0.9804    0.4587    1.6806 H   0  0  0  0  0  0  0  0  0  0  0  0
   -1.2934    0.1630    0.0639 H   0  0  0  0  0  0  0  0  0  0  0  0
   -0.9123   -0.4164    2.9269 H   0  0  0  0  0  0  0  0  0  0  0  0
   -3.2405   -0.7057    1.6596 H   0  0  0  0  0  0  0  0  0  0  0  0
   -3.3764    0.0218    3.2623 H   0  0  0  0  0  0  0  0  0  0  0  0
   -3.7473    1.3909    0.5954 H   0  0  0  0  0  0  0  0  0  0  0  0
   -4.3431    1.8832    2.1756 H   0  0  0  0  0  0  0  0  0  0  0  0
   -2.4448    3.5223    1.8965 H   0  0  0  0  0  0  0  0  0  0  0  0
   -0.8003    2.2902    3.5957 H   0  0  0  0  0  0  0  0  0  0  0  0
    0.6379    2.6131    0.3281 H   0  0  0  0  0  0  0  0  0  0  0  0
  1  2  1  0  0  0  0
  1 10  1  0  0  0  0
  2 11  1  6  0  0  0
  2  8  1  0  0  0  0
  2  3  1  0  0  0  0
  3  7  1  0  0  0  0
  3 12  1  1  0  0  0
  4  3  1  0  0  0  0
  4 14  1  0  0  0  0
  5  6  1  0  0  0  0
  5 16  1  0  0  0  0
  5  4  1  0  0  0  0
  6 17  1  1  0  0  0
  6  7  1  0  0  0  0
  7 18  1  1  0  0  0
  8  9  1  6  0  0  0
  8  6  1  0  0  0  0
  8  7  1  0  0  0  0
 13  4  1  0  0  0  0
 15  5  1  0  0  0  0
 19  9  1  0  0  0  0
M TOR 0 0 1 2 3
M TOR 1 0 1 2 6
M TOR 2 0 1 2 11
M TOR 3 0 1 7 5
M TOR 4 0 1 7 6
M TOR 5 0 1 7 8
M TOR 6 1 2 3 4
M TOR 7 1 2 3 12
M TOR 8 1 2 3 13
M TOR 9 1 2 6 5
M TOR 10 1 2 6 7
M TOR 11 1 2 6 17
M TOR 12 1 7 5 4
M TOR 13 1 7 5 6
M TOR 14 1 7 5 16
M TOR 15 1 7 6 17
M TOR 16 1 7 8 18
M TOR 17 2 1 0 9
M TOR 18 2 1 7 5
M TOR 19 2 1 7 8
M TOR 20 2 3 4 5
M TOR 21 2 3 4 14
M TOR 22 2 3 4 15
M TOR 23 2 6 5 4
M TOR 24 2 6 5 7
M TOR 25 2 6 5 16
M TOR 26 2 6 7 8
M TOR 27 3 2 1 7
M TOR 28 3 2 1 10
M TOR 29 3 2 6 5
M TOR 30 3 2 6 7
M TOR 31 3 2 6 17
M TOR 32 3 4 5 6
M TOR 33 3 4 5 7
M TOR 34 3 4 5 16
M TOR 35 4 3 2 6
M TOR 36 4 3 2 11
M TOR 37 4 5 6 7
M TOR 38 4 5 6 17
M TOR 39 4 5 7 8
M TOR 40 5 4 3 12
M TOR 41 5 4 3 13
M TOR 42 5 6 2 11
M TOR 43 5 6 7 8
M TOR 44 5 7 1 10
M TOR 45 5 7 6 17
M TOR 46 5 7 8 18
M TOR 47 6 2 1 10
M TOR 48 6 2 3 12
M TOR 49 6 2 3 13
M TOR 50 6 5 4 14
M TOR 51 6 5 4 15
M TOR 52 6 7 1 10
M TOR 53 6 7 5 16
M TOR 54 6 7 8 18
M TOR 55 7 1 0 9
M TOR 56 7 1 2 11
M TOR 57 7 5 4 14
M TOR 58 7 5 4 15
M TOR 59 7 6 2 11
M TOR 60 8 7 1 10
M TOR 61 8 7 5 16
M TOR 62 8 7 6 17
M  END
$$$$
