gdb 4007	4.1728107	0.8805642	0.8639286	1.8837	77.51	-0.24484	-0.01403	0.23081000000000002	1412.4579	0.15535	-422.548304	-422.539156	-422.538212	-422.582648	33.509
 OpenBabel02181911413D

 19 20  0  0  1  0  0  0  0  0999 V2000
   -1.1478   -2.4836   -2.3228 C   0  0  0  0  0  0  0  0  0  0  0  0
   -0.9191   -0.9846   -2.3184 C   0  0  0  0  0  0  0  0  0  0  0  0
   -1.7249   -0.2063   -2.7857 O   0  0  0  0  0  0  0  0  0  0  0  0
    0.3610   -0.5150   -1.7047 C   0  0  1  0  0  0  0  0  0  0  0  0
    0.9551    0.7449   -2.3079 C   0  0  2  0  0  0  0  0  0  0  0  0
    2.3225    1.0186   -1.6702 C   0  0  0  0  0  0  0  0  0  0  0  0
    1.6253    1.0802   -0.2641 C   0  0  1  0  0  0  0  0  0  0  0  0
    1.7203    2.3121    0.4086 O   0  0  0  0  0  0  0  0  0  0  0  0
    0.2795    0.8064   -0.9565 C   0  0  2  0  0  0  0  0  0  0  0  0
   -1.1296   -2.8721   -1.2979 H   0  0  0  0  0  0  0  0  0  0  0  0
   -2.1067   -2.7132   -2.7883 H   0  0  0  0  0  0  0  0  0  0  0  0
   -0.3406   -2.9882   -2.8666 H   0  0  0  0  0  0  0  0  0  0  0  0
    1.0288   -1.2896   -1.3333 H   0  0  0  0  0  0  0  0  0  0  0  0
    0.5863    1.0963   -3.2630 H   0  0  0  0  0  0  0  0  0  0  0  0
    3.1026    0.2660   -1.8252 H   0  0  0  0  0  0  0  0  0  0  0  0
    2.7271    2.0015   -1.9270 H   0  0  0  0  0  0  0  0  0  0  0  0
    1.9445    0.3274    0.4633 H   0  0  0  0  0  0  0  0  0  0  0  0
    1.4103    3.0039   -0.1870 H   0  0  0  0  0  0  0  0  0  0  0  0
   -0.6852    1.2162   -0.6828 H   0  0  0  0  0  0  0  0  0  0  0  0
  1  2  1  0  0  0  0
  1 10  1  0  0  0  0
  2  4  1  0  0  0  0
  3  2  2  0  0  0  0
  4 13  1  1  0  0  0
  4  9  1  0  0  0  0
  5 14  1  6  0  0  0
  5  4  1  0  0  0  0
  5  6  1  0  0  0  0
  5  9  1  0  0  0  0
  6  7  1  0  0  0  0
  7  8  1  0  0  0  0
  7 17  1  1  0  0  0
  9 19  1  1  0  0  0
  9  7  1  0  0  0  0
 11  1  1  0  0  0  0
 12  1  1  0  0  0  0
 15  6  1  0  0  0  0
 16  6  1  0  0  0  0
 18  8  1  0  0  0  0
M TOR 0 0 1 3 4
M TOR 1 0 1 3 8
M TOR 2 0 1 3 12
M TOR 3 1 3 4 5
M TOR 4 1 3 4 8
M TOR 5 1 3 4 13
M TOR 6 1 3 8 6
M TOR 7 1 3 8 18
M TOR 8 2 1 0 9
M TOR 9 2 1 0 10
M TOR 10 2 1 0 11
M TOR 11 2 1 3 4
M TOR 12 2 1 3 8
M TOR 13 2 1 3 12
M TOR 14 3 1 0 9
M TOR 15 3 1 0 10
M TOR 16 3 1 0 11
M TOR 17 3 4 5 6
M TOR 18 3 4 5 14
M TOR 19 3 4 5 15
M TOR 20 3 4 8 6
M TOR 21 3 4 8 18
M TOR 22 3 8 4 5
M TOR 23 3 8 4 13
M TOR 24 3 8 6 5
M TOR 25 3 8 6 7
M TOR 26 3 8 6 16
M TOR 27 4 5 6 7
M TOR 28 4 5 6 8
M TOR 29 4 5 6 16
M TOR 30 4 8 3 12
M TOR 31 4 8 6 7
M TOR 32 4 8 6 16
M TOR 33 5 4 3 12
M TOR 34 5 4 8 18
M TOR 35 5 6 7 17
M TOR 36 5 6 8 18
M TOR 37 6 5 4 13
M TOR 38 6 8 3 12
M TOR 39 6 8 4 13
M TOR 40 7 6 5 14
M TOR 41 7 6 5 15
M TOR 42 7 6 8 18
M TOR 43 8 4 5 14
M TOR 44 8 4 5 15
M TOR 45 8 6 5 14
M TOR 46 8 6 5 15
M TOR 47 8 6 7 17
M  END
$$$$
