
     RDKit          3D

 19 21  0  0  0  0  0  0  0  0999 V2000
   -1.0668   -0.8311    3.1590 C   0  0  0  0  0  0  0  0  0  0  0  0
   -1.1772    0.3686    2.2682 C   0  0  0  0  0  0  0  0  0  0  0  0
   -0.6985    1.8059    2.5034 C   0  0  0  0  0  0  0  0  0  0  0  0
   -0.9317    2.0042    0.9478 C   0  0  0  0  0  0  0  0  0  0  0  0
   -2.4404    2.2489    1.2325 C   0  0  0  0  0  0  0  0  0  0  0  0
   -2.1726    1.5159    2.5451 C   0  0  0  0  0  0  0  0  0  0  0  0
   -2.9498    1.5303    3.6858 O   0  0  0  0  0  0  0  0  0  0  0  0
   -0.8146    0.4638    0.7841 C   0  0  0  0  0  0  0  0  0  0  0  0
    0.4823   -0.0064    0.4824 O   0  0  0  0  0  0  0  0  0  0  0  0
   -1.2392   -0.5595    4.2046 H   0  0  0  0  0  0  0  0  0  0  0  0
   -1.8014   -1.5988    2.8850 H   0  0  0  0  0  0  0  0  0  0  0  0
   -0.0752   -1.2886    3.0805 H   0  0  0  0  0  0  0  0  0  0  0  0
   -0.0416    2.2520    3.2360 H   0  0  0  0  0  0  0  0  0  0  0  0
   -0.3648    2.6633    0.2941 H   0  0  0  0  0  0  0  0  0  0  0  0
   -2.6583    3.3055    1.4129 H   0  0  0  0  0  0  0  0  0  0  0  0
   -3.1646    1.8338    0.5205 H   0  0  0  0  0  0  0  0  0  0  0  0
   -3.6304    0.8527    3.6019 H   0  0  0  0  0  0  0  0  0  0  0  0
   -1.4748   -0.0111    0.0490 H   0  0  0  0  0  0  0  0  0  0  0  0
    1.0816    0.3566    1.1464 H   0  0  0  0  0  0  0  0  0  0  0  0
  1  2  1  0
  2  3  1  0
  3  4  1  0
  4  5  1  0
  5  6  1  0
  6  7  1  0
  4  8  1  0
  8  9  1  0
  6  2  1  0
  8  2  1  0
  6  3  1  0
  1 10  1  0
  1 11  1  0
  1 12  1  0
  3 13  1  0
  4 14  1  0
  5 15  1  0
  5 16  1  0
  7 17  1  0
  8 18  1  0
  9 19  1  0
M  END
$$$$
