
     RDKit          3D

 19 21  0  0  0  0  0  0  0  0999 V2000
    1.3044    0.8367   -0.1463 O   0  0  0  0  0  0  0  0  0  0  0  0
    0.3153   -0.0109    0.4159 C   0  0  0  0  0  0  0  0  0  0  0  0
   -0.8658    0.7600    1.0086 C   0  0  0  0  0  0  0  0  0  0  0  0
   -0.4681    1.6553    2.2230 C   0  0  0  0  0  0  0  0  0  0  0  0
   -1.6056    1.4308    3.2125 C   0  0  0  0  0  0  0  0  0  0  0  0
   -2.8529    1.8432    2.5555 O   0  0  0  0  0  0  0  0  0  0  0  0
   -3.1231    0.4711    2.2672 C   0  0  0  0  0  0  0  0  0  0  0  0
   -2.0018   -0.0586    3.1007 C   0  0  0  0  0  0  0  0  0  0  0  0
   -1.9317   -0.1768    1.5878 C   0  0  0  0  0  0  0  0  0  0  0  0
    1.6828    1.3624    0.5657 H   0  0  0  0  0  0  0  0  0  0  0  0
   -0.0286   -0.6462   -0.4075 H   0  0  0  0  0  0  0  0  0  0  0  0
    0.7457   -0.6761    1.1835 H   0  0  0  0  0  0  0  0  0  0  0  0
   -1.2909    1.3841    0.2159 H   0  0  0  0  0  0  0  0  0  0  0  0
    0.4788    1.3204    2.6715 H   0  0  0  0  0  0  0  0  0  0  0  0
   -0.3674    2.7116    1.9595 H   0  0  0  0  0  0  0  0  0  0  0  0
   -1.5041    1.8890    4.1975 H   0  0  0  0  0  0  0  0  0  0  0  0
   -4.1565    0.1712    2.1390 H   0  0  0  0  0  0  0  0  0  0  0  0
   -1.9331   -0.8450    3.8386 H   0  0  0  0  0  0  0  0  0  0  0  0
   -2.1046   -1.1474    1.1337 H   0  0  0  0  0  0  0  0  0  0  0  0
  1  2  1  0
  2  3  1  0
  3  4  1  0
  4  5  1  0
  5  6  1  0
  6  7  1  0
  7  8  1  0
  8  9  1  0
  9  3  1  0
  8  5  1  0
  9  7  1  0
  1 10  1  0
  2 11  1  0
  2 12  1  0
  3 13  1  0
  4 14  1  0
  4 15  1  0
  5 16  1  0
  7 17  1  0
  8 18  1  0
  9 19  1  0
M  END
$$$$
