
     RDKit          3D

 19 19  0  0  0  0  0  0  0  0999 V2000
   -1.6139    1.5779   -0.8922 O   0  0  0  0  0  0  0  0  0  0  0  0
   -0.3650    1.1209   -0.3697 C   0  0  0  0  0  0  0  0  0  0  0  0
   -0.4225    0.8133    1.0953 C   0  0  0  0  0  0  0  0  0  0  0  0
    0.2689    1.4204    2.0629 C   0  0  0  0  0  0  0  0  0  0  0  0
   -0.0255    0.8742    3.4353 C   0  0  0  0  0  0  0  0  0  0  0  0
   -0.8625   -0.3991    3.1423 C   0  0  0  0  0  0  0  0  0  0  0  0
   -1.3475   -0.2579    1.6801 C   0  0  0  0  0  0  0  0  0  0  0  0
   -2.8066    0.1809    1.5660 C   0  0  0  0  0  0  0  0  0  0  0  0
   -3.4871    0.5187    2.5024 O   0  0  0  0  0  0  0  0  0  0  0  0
   -1.8357    2.3943   -0.4311 H   0  0  0  0  0  0  0  0  0  0  0  0
   -0.1366    0.2153   -0.9445 H   0  0  0  0  0  0  0  0  0  0  0  0
    0.4382    1.8456   -0.5663 H   0  0  0  0  0  0  0  0  0  0  0  0
    0.9711    2.2306    1.8903 H   0  0  0  0  0  0  0  0  0  0  0  0
    0.8866    0.6533    4.0012 H   0  0  0  0  0  0  0  0  0  0  0  0
   -0.5869    1.6057    4.0314 H   0  0  0  0  0  0  0  0  0  0  0  0
   -0.2324   -1.2878    3.2323 H   0  0  0  0  0  0  0  0  0  0  0  0
   -1.7058   -0.5085    3.8256 H   0  0  0  0  0  0  0  0  0  0  0  0
   -1.2617   -1.1916    1.1051 H   0  0  0  0  0  0  0  0  0  0  0  0
   -3.2051    0.1878    0.5317 H   0  0  0  0  0  0  0  0  0  0  0  0
  1  2  1  0
  2  3  1  0
  3  4  2  0
  4  5  1  0
  5  6  1  0
  6  7  1  0
  7  8  1  0
  8  9  2  0
  7  3  1  0
  1 10  1  0
  2 11  1  0
  2 12  1  0
  4 13  1  0
  5 14  1  0
  5 15  1  0
  6 16  1  0
  6 17  1  0
  7 18  1  0
  8 19  1  0
M  END
$$$$
