gdb 3716	3.279407	1.2815554	1.1651052	0.6226	74.38	-0.25973	0.08593	0.34566	1128.4173	0.156704	-422.538853	-422.530753	-422.529809	-422.571534	31.161
 OpenBabel02181911413D

 19 21  0  0  1  0  0  0  0  0999 V2000
    0.0747    0.4093   -0.0206 C   0  0  0  0  0  0  0  0  0  0  0  0
    0.9929   -0.7823   -0.0822 C   0  0  2  0  0  0  0  0  0  0  0  0
    2.1329   -0.7783    0.7939 O   0  0  0  0  0  0  0  0  0  0  0  0
    2.3646   -0.7578   -0.6144 C   0  0  2  0  0  0  0  0  0  0  0  0
    3.0289    0.4829   -1.2267 C   0  0  0  0  0  0  0  0  0  0  0  0
    3.6294   -0.0300   -2.5179 C   0  0  2  0  0  0  0  0  0  0  0  0
    2.6932   -0.7556   -3.3281 O   0  0  0  0  0  0  0  0  0  0  0  0
    3.6189   -1.5000   -2.5224 C   0  0  2  0  0  0  0  0  0  0  0  0
    3.0182   -2.0040   -1.2297 C   0  0  0  0  0  0  0  0  0  0  0  0
   -0.5828    0.3356    0.8519 H   0  0  0  0  0  0  0  0  0  0  0  0
    0.6359    1.3427    0.0593 H   0  0  0  0  0  0  0  0  0  0  0  0
   -0.5565    0.4522   -0.9149 H   0  0  0  0  0  0  0  0  0  0  0  0
    0.4806   -1.7466   -0.1182 H   0  0  0  0  0  0  0  0  0  0  0  0
    2.3279    1.3052   -1.3917 H   0  0  0  0  0  0  0  0  0  0  0  0
    3.8204    0.8479   -0.5609 H   0  0  0  0  0  0  0  0  0  0  0  0
    4.3628    0.5579   -3.0634 H   0  0  0  0  0  0  0  0  0  0  0  0
    4.3447   -2.0935   -3.0719 H   0  0  0  0  0  0  0  0  0  0  0  0
    2.3057   -2.8205   -1.3783 H   0  0  0  0  0  0  0  0  0  0  0  0
    3.8119   -2.3688   -0.5659 H   0  0  0  0  0  0  0  0  0  0  0  0
  1 11  1  0  0  0  0
  1 10  1  0  0  0  0
  2 13  1  6  0  0  0
  2  1  1  0  0  0  0
  2  3  1  0  0  0  0
  4  2  1  0  0  0  0
  4  3  1  1  0  0  0
  5  4  1  0  0  0  0
  5 15  1  0  0  0  0
  6 16  1  6  0  0  0
  6  5  1  0  0  0  0
  7  8  1  0  0  0  0
  7  6  1  0  0  0  0
  8 17  1  6  0  0  0
  8  6  1  0  0  0  0
  8  9  1  0  0  0  0
  9  4  1  0  0  0  0
  9 19  1  0  0  0  0
 12  1  1  0  0  0  0
 14  5  1  0  0  0  0
 18  9  1  0  0  0  0
M TOR 0 0 1 2 3
M TOR 1 0 1 3 4
M TOR 2 0 1 3 8
M TOR 3 1 2 3 4
M TOR 4 1 2 3 8
M TOR 5 1 3 4 5
M TOR 6 1 3 4 13
M TOR 7 1 3 4 14
M TOR 8 1 3 8 7
M TOR 9 1 3 8 17
M TOR 10 1 3 8 18
M TOR 11 2 1 0 9
M TOR 12 2 1 0 10
M TOR 13 2 1 0 11
M TOR 14 2 3 1 12
M TOR 15 2 3 4 5
M TOR 16 2 3 4 13
M TOR 17 2 3 4 14
M TOR 18 2 3 8 7
M TOR 19 2 3 8 17
M TOR 20 2 3 8 18
M TOR 21 3 1 0 9
M TOR 22 3 1 0 10
M TOR 23 3 1 0 11
M TOR 24 3 4 5 6
M TOR 25 3 4 5 7
M TOR 26 3 4 5 15
M TOR 27 3 8 7 5
M TOR 28 3 8 7 6
M TOR 29 3 8 7 16
M TOR 30 4 3 1 12
M TOR 31 4 3 8 7
M TOR 32 4 3 8 17
M TOR 33 4 3 8 18
M TOR 34 4 5 6 7
M TOR 35 4 5 7 8
M TOR 36 4 5 7 16
M TOR 37 5 4 3 8
M TOR 38 5 6 7 8
M TOR 39 5 6 7 16
M TOR 40 5 7 8 17
M TOR 41 5 7 8 18
M TOR 42 6 5 4 13
M TOR 43 6 5 4 14
M TOR 44 6 7 5 15
M TOR 45 6 7 8 17
M TOR 46 6 7 8 18
M TOR 47 7 5 4 13
M TOR 48 7 5 4 14
M TOR 49 8 3 1 12
M TOR 50 8 3 4 13
M TOR 51 8 3 4 14
M TOR 52 8 7 5 15
M  END
$$$$
