
     RDKit          3D

 19 20  0  0  0  0  0  0  0  0999 V2000
    0.2335   -2.1165    0.7481 C   0  0  0  0  0  0  0  0  0  0  0  0
   -0.8470   -1.3817   -0.0728 C   0  0  0  0  0  0  0  0  0  0  0  0
   -2.1585   -1.2845    0.6855 C   0  0  0  0  0  0  0  0  0  0  0  0
   -3.1981   -0.2587    0.2967 C   0  0  0  0  0  0  0  0  0  0  0  0
   -2.3589   -0.0607    1.5332 C   0  0  0  0  0  0  0  0  0  0  0  0
   -1.2343    0.9466    1.5228 C   0  0  0  0  0  0  0  0  0  0  0  0
   -0.5794    1.0643    0.2509 O   0  0  0  0  0  0  0  0  0  0  0  0
   -0.3030   -0.0241   -0.5142 C   0  0  0  0  0  0  0  0  0  0  0  0
    0.3589    0.1195   -1.5058 O   0  0  0  0  0  0  0  0  0  0  0  0
    0.4463   -1.5995    1.6894 H   0  0  0  0  0  0  0  0  0  0  0  0
   -0.1037   -3.1284    0.9926 H   0  0  0  0  0  0  0  0  0  0  0  0
    1.1627   -2.1903    0.1774 H   0  0  0  0  0  0  0  0  0  0  0  0
   -0.9917   -1.9337   -1.0073 H   0  0  0  0  0  0  0  0  0  0  0  0
   -2.5248   -2.2337    1.0662 H   0  0  0  0  0  0  0  0  0  0  0  0
   -3.0046    0.3746   -0.5630 H   0  0  0  0  0  0  0  0  0  0  0  0
   -4.2413   -0.5204    0.4313 H   0  0  0  0  0  0  0  0  0  0  0  0
   -2.8407   -0.1659    2.5004 H   0  0  0  0  0  0  0  0  0  0  0  0
   -1.5960    1.9560    1.7405 H   0  0  0  0  0  0  0  0  0  0  0  0
   -0.4853    0.6905    2.2844 H   0  0  0  0  0  0  0  0  0  0  0  0
  1  2  1  0
  2  3  1  0
  3  4  1  0
  4  5  1  0
  5  6  1  0
  6  7  1  0
  7  8  1  0
  8  9  2  0
  8  2  1  0
  5  3  1  0
  1 10  1  0
  1 11  1  0
  1 12  1  0
  2 13  1  0
  3 14  1  0
  4 15  1  0
  4 16  1  0
  5 17  1  0
  6 18  1  0
  6 19  1  0
M  END
$$$$
