gdb 1017	3.1031706	0.9616231	0.8942125	1.76	80.32	-0.24708	0.03968	0.28676	1414.8555	0.155206	-422.531094	-422.521219	-422.520274	-422.56772	34.285
 OpenBabel02181911403D

 19 19  0  0  1  0  0  0  0  0999 V2000
    1.3744   -0.2874    0.0193 C   0  0  0  0  0  0  0  0  0  0  0  0
   -0.0646   -0.0708   -0.0112 C   0  0  0  0  0  0  0  0  0  0  0  0
   -1.2557    0.1033   -0.0470 C   0  0  0  0  0  0  0  0  0  0  0  0
   -2.7009    0.3336   -0.0775 C   0  0  2  0  0  0  0  0  0  0  0  0
   -3.0360    1.7505   -0.5552 C   0  0  0  0  0  0  0  0  0  0  0  0
   -3.3705   -0.0097    1.2945 C   0  0  0  0  0  0  0  0  0  0  0  0
   -4.5398   -0.7217    0.9324 O   0  0  0  0  0  0  0  0  0  0  0  0
   -4.1462   -1.4537   -0.2004 C   0  0  0  0  0  0  0  0  0  0  0  0
   -3.3495   -0.5917   -0.9798 O   0  0  0  0  0  0  0  0  0  0  0  0
    1.6869   -0.7737    0.9499 H   0  0  0  0  0  0  0  0  0  0  0  0
    1.6928   -0.9257   -0.8122 H   0  0  0  0  0  0  0  0  0  0  0  0
    1.9204    0.6589   -0.0621 H   0  0  0  0  0  0  0  0  0  0  0  0
   -2.5347    2.4967    0.0678 H   0  0  0  0  0  0  0  0  0  0  0  0
   -2.7084    1.8821   -1.5890 H   0  0  0  0  0  0  0  0  0  0  0  0
   -4.1178    1.9037   -0.5057 H   0  0  0  0  0  0  0  0  0  0  0  0
   -2.6989   -0.6301    1.9032 H   0  0  0  0  0  0  0  0  0  0  0  0
   -3.6609    0.8785    1.8584 H   0  0  0  0  0  0  0  0  0  0  0  0
   -3.5729   -2.3515    0.0960 H   0  0  0  0  0  0  0  0  0  0  0  0
   -5.0344   -1.7415   -0.7696 H   0  0  0  0  0  0  0  0  0  0  0  0
  1 10  1  0  0  0  0
  2  1  1  0  0  0  0
  3  2  3  0  0  0  0
  4  3  1  1  0  0  0
  4  6  1  0  0  0  0
  5 15  1  0  0  0  0
  5  4  1  0  0  0  0
  5 13  1  0  0  0  0
  6 17  1  0  0  0  0
  6 16  1  0  0  0  0
  7  6  1  0  0  0  0
  8 18  1  0  0  0  0
  8  7  1  0  0  0  0
  9  8  1  0  0  0  0
  9  4  1  0  0  0  0
 11  1  1  0  0  0  0
 12  1  1  0  0  0  0
 14  5  1  0  0  0  0
 19  8  1  0  0  0  0
M TOR 0 0 1 2 3
M TOR 1 1 2 3 4
M TOR 2 1 2 3 5
M TOR 3 1 2 3 8
M TOR 4 2 1 0 9
M TOR 5 2 1 0 10
M TOR 6 2 1 0 11
M TOR 7 2 3 4 12
M TOR 8 2 3 4 13
M TOR 9 2 3 4 14
M TOR 10 2 3 5 6
M TOR 11 2 3 5 15
M TOR 12 2 3 5 16
M TOR 13 2 3 8 7
M TOR 14 3 5 6 7
M TOR 15 3 8 7 6
M TOR 16 3 8 7 17
M TOR 17 3 8 7 18
M TOR 18 4 3 5 6
M TOR 19 4 3 5 15
M TOR 20 4 3 5 16
M TOR 21 4 3 8 7
M TOR 22 5 3 4 12
M TOR 23 5 3 4 13
M TOR 24 5 3 4 14
M TOR 25 5 3 8 7
M TOR 26 5 6 7 8
M TOR 27 5 6 7 17
M TOR 28 5 6 7 18
M TOR 29 6 5 3 8
M TOR 30 7 6 5 15
M TOR 31 7 6 5 16
M TOR 32 8 3 4 12
M TOR 33 8 3 4 13
M TOR 34 8 3 4 14
M TOR 35 8 3 5 15
M TOR 36 8 3 5 16
M  END
$$$$
