gdb 57	5.5464309	0.7367095	0.6872101	1.3801	79.88	-0.2102	0.02519	0.23539	1659.4872	0.15634	-422.587338	-422.577782	-422.576838	-422.622545	33.817
 OpenBabel02181911403D

 19 19  0  0  0  0  0  0  0  0999 V2000
   -5.6443    1.2340    1.0337 C   0  0  0  0  0  0  0  0  0  0  0  0
   -4.3268    0.9076    0.4024 C   0  0  0  0  0  0  0  0  0  0  0  0
   -4.0045   -0.2043   -0.3088 C   0  0  0  0  0  0  0  0  0  0  0  0
   -2.7107   -0.1560   -0.7354 O   0  0  0  0  0  0  0  0  0  0  0  0
   -2.1835    1.0216   -0.2864 C   0  0  0  0  0  0  0  0  0  0  0  0
   -0.7605    1.2924   -0.6269 C   0  0  0  0  0  0  0  0  0  0  0  0
    0.2136    0.3222    0.0480 C   0  0  0  0  0  0  0  0  0  0  0  0
    1.5219    0.6809   -0.3669 O   0  0  0  0  0  0  0  0  0  0  0  0
   -3.1284    1.7049    0.4139 C   0  0  0  0  0  0  0  0  0  0  0  0
   -5.5487    1.3711    2.1169 H   0  0  0  0  0  0  0  0  0  0  0  0
   -6.0652    2.1617    0.6292 H   0  0  0  0  0  0  0  0  0  0  0  0
   -6.3729    0.4364    0.8628 H   0  0  0  0  0  0  0  0  0  0  0  0
   -4.5594   -1.0843   -0.5912 H   0  0  0  0  0  0  0  0  0  0  0  0
   -0.6053    1.2314   -1.7110 H   0  0  0  0  0  0  0  0  0  0  0  0
   -0.5120    2.3135   -0.3230 H   0  0  0  0  0  0  0  0  0  0  0  0
    0.1011    0.3928    1.1412 H   0  0  0  0  0  0  0  0  0  0  0  0
   -0.0367   -0.7081   -0.2451 H   0  0  0  0  0  0  0  0  0  0  0  0
    2.1430    0.0633    0.0296 H   0  0  0  0  0  0  0  0  0  0  0  0
   -2.9959    2.6680    0.8840 H   0  0  0  0  0  0  0  0  0  0  0  0
  1 10  1  0  0  0  0
  2  9  1  0  0  0  0
  2  1  1  0  0  0  0
  3  2  2  0  0  0  0
  4  3  1  0  0  0  0
  4  5  1  0  0  0  0
  5  9  2  0  0  0  0
  6 15  1  0  0  0  0
  6  5  1  0  0  0  0
  6  7  1  0  0  0  0
  7 16  1  0  0  0  0
  8 18  1  0  0  0  0
  8  7  1  0  0  0  0
  9 19  1  0  0  0  0
 11  1  1  0  0  0  0
 12  1  1  0  0  0  0
 13  3  1  0  0  0  0
 14  6  1  0  0  0  0
 17  7  1  0  0  0  0
M TOR 0 0 1 2 3
M TOR 1 0 1 2 12
M TOR 2 0 1 8 4
M TOR 3 0 1 8 18
M TOR 4 1 2 3 4
M TOR 5 1 8 4 3
M TOR 6 1 8 4 5
M TOR 7 2 1 0 9
M TOR 8 2 1 0 10
M TOR 9 2 1 0 11
M TOR 10 2 1 8 4
M TOR 11 2 1 8 18
M TOR 12 2 3 4 5
M TOR 13 2 3 4 8
M TOR 14 3 2 1 8
M TOR 15 3 4 5 6
M TOR 16 3 4 5 13
M TOR 17 3 4 5 14
M TOR 18 3 4 8 18
M TOR 19 4 3 2 12
M TOR 20 4 5 6 7
M TOR 21 4 5 6 15
M TOR 22 4 5 6 16
M TOR 23 5 4 8 18
M TOR 24 5 6 7 17
M TOR 25 6 5 4 8
M TOR 26 7 6 5 13
M TOR 27 7 6 5 14
M TOR 28 8 1 0 9
M TOR 29 8 1 0 10
M TOR 30 8 1 0 11
M TOR 31 8 1 2 12
M TOR 32 8 4 5 13
M TOR 33 8 4 5 14
M  END
$$$$
