
     RDKit          3D

 19 20  0  0  0  0  0  0  0  0999 V2000
    0.0074   -0.4783    0.0244 C   0  0  0  0  0  0  0  0  0  0  0  0
    1.4471    0.0150   -0.0197 C   0  0  0  0  0  0  0  0  0  0  0  0
    1.7746    0.7293    1.1628 O   0  0  0  0  0  0  0  0  0  0  0  0
    1.8946    0.9025   -1.2241 C   0  0  0  0  0  0  0  0  0  0  0  0
    3.0234   -0.0842   -1.5417 C   0  0  0  0  0  0  0  0  0  0  0  0
    2.4749   -1.4692   -1.7912 C   0  0  0  0  0  0  0  0  0  0  0  0
    2.5476   -1.0087   -0.3802 C   0  0  0  0  0  0  0  0  0  0  0  0
    4.4297    0.2436   -1.8199 C   0  0  0  0  0  0  0  0  0  0  0  0
    5.3015   -0.5740   -2.0118 O   0  0  0  0  0  0  0  0  0  0  0  0
   -0.1368   -1.1747    0.8598 H   0  0  0  0  0  0  0  0  0  0  0  0
   -0.6727    0.3676    0.1637 H   0  0  0  0  0  0  0  0  0  0  0  0
   -0.2739   -1.0015   -0.8936 H   0  0  0  0  0  0  0  0  0  0  0  0
    1.6185    0.1460    1.9142 H   0  0  0  0  0  0  0  0  0  0  0  0
    1.1592    1.0614   -2.0187 H   0  0  0  0  0  0  0  0  0  0  0  0
    2.2518    1.8666   -0.8570 H   0  0  0  0  0  0  0  0  0  0  0  0
    1.5204   -1.5663   -2.3018 H   0  0  0  0  0  0  0  0  0  0  0  0
    3.2300   -2.1912   -2.0831 H   0  0  0  0  0  0  0  0  0  0  0  0
    3.1972   -1.4833    0.3469 H   0  0  0  0  0  0  0  0  0  0  0  0
    4.6565    1.3342   -1.8183 H   0  0  0  0  0  0  0  0  0  0  0  0
  1  2  1  0
  2  3  1  0
  2  4  1  0
  4  5  1  0
  5  6  1  0
  6  7  1  0
  5  8  1  0
  8  9  2  0
  7  2  1  0
  7  5  1  0
  1 10  1  0
  1 11  1  0
  1 12  1  0
  3 13  1  0
  4 14  1  0
  4 15  1  0
  6 16  1  0
  6 17  1  0
  7 18  1  0
  8 19  1  0
M  END
$$$$
