
     RDKit          3D

 19 21  0  0  0  0  0  0  0  0999 V2000
    1.5623   -0.1795   -0.0667 C   0  0  0  0  0  0  0  0  0  0  0  0
    0.1546   -0.2171    0.0896 O   0  0  0  0  0  0  0  0  0  0  0  0
   -0.3326    0.5226    1.1529 C   0  0  0  0  0  0  0  0  0  0  0  0
   -0.0268    0.0808    2.5920 C   0  0  0  0  0  0  0  0  0  0  0  0
   -0.7795    1.0509    3.3275 O   0  0  0  0  0  0  0  0  0  0  0  0
   -1.3636    1.8293    2.2948 C   0  0  0  0  0  0  0  0  0  0  0  0
   -1.8400    0.9267    1.1231 C   0  0  0  0  0  0  0  0  0  0  0  0
   -1.5021    2.0691    0.1363 C   0  0  0  0  0  0  0  0  0  0  0  0
   -0.3413    2.1043    1.1582 C   0  0  0  0  0  0  0  0  0  0  0  0
    2.0844   -0.6585    0.7729 H   0  0  0  0  0  0  0  0  0  0  0  0
    1.7933   -0.7292   -0.9816 H   0  0  0  0  0  0  0  0  0  0  0  0
    1.9299    0.8510   -0.1666 H   0  0  0  0  0  0  0  0  0  0  0  0
   -0.3866   -0.9339    2.8030 H   0  0  0  0  0  0  0  0  0  0  0  0
    1.0345    0.1447    2.8608 H   0  0  0  0  0  0  0  0  0  0  0  0
   -1.9917    2.6184    2.7026 H   0  0  0  0  0  0  0  0  0  0  0  0
   -2.6888    0.2424    1.1142 H   0  0  0  0  0  0  0  0  0  0  0  0
   -1.2413    1.7586   -0.8758 H   0  0  0  0  0  0  0  0  0  0  0  0
   -2.1772    2.9291    0.1296 H   0  0  0  0  0  0  0  0  0  0  0  0
    0.5171    2.7757    1.1970 H   0  0  0  0  0  0  0  0  0  0  0  0
  1  2  1  0
  2  3  1  0
  3  4  1  0
  4  5  1  0
  5  6  1  0
  6  7  1  0
  7  8  1  0
  8  9  1  0
  7  3  1  0
  9  3  1  0
  9  6  1  0
  1 10  1  0
  1 11  1  0
  1 12  1  0
  4 13  1  0
  4 14  1  0
  6 15  1  0
  7 16  1  0
  8 17  1  0
  8 18  1  0
  9 19  1  0
M  END
$$$$
