gdb 5650	2.8271292	1.2312765	1.0139881	3.1893	74.83	-0.24106	-0.02851	0.21255	1231.4546	0.156703	-422.569788	-422.561239	-422.560295	-422.603378	31.837
 OpenBabel02181911423D

 19 20  0  0  1  0  0  0  0  0999 V2000
    1.9443    1.7978   -0.4807 C   0  0  0  0  0  0  0  0  0  0  0  0
    1.1752    0.4726   -0.4783 C   0  0  0  0  0  0  0  0  0  0  0  0
    1.8925   -0.6797   -1.2043 C   0  0  1  0  0  0  0  0  0  0  0  0
    1.1142   -2.0172   -1.0954 C   0  0  0  0  0  0  0  0  0  0  0  0
    0.3002   -2.1356   -2.3903 C   0  0  0  0  0  0  0  0  0  0  0  0
   -0.7404   -2.7219   -2.5417 O   0  0  0  0  0  0  0  0  0  0  0  0
    1.0106   -1.3063   -3.4289 C   0  0  2  0  0  0  0  0  0  0  0  0
    2.4259   -1.5868   -3.4328 O   0  0  0  0  0  0  0  0  0  0  0  0
    1.9742   -0.4465   -2.7121 C   0  0  2  0  0  0  0  0  0  0  0  0
    1.4110    2.5567    0.0994 H   0  0  0  0  0  0  0  0  0  0  0  0
    2.9383    1.6773   -0.0361 H   0  0  0  0  0  0  0  0  0  0  0  0
    2.0798    2.1970   -1.4908 H   0  0  0  0  0  0  0  0  0  0  0  0
    1.0002    0.1628    0.5587 H   0  0  0  0  0  0  0  0  0  0  0  0
    0.1805    0.6171   -0.9218 H   0  0  0  0  0  0  0  0  0  0  0  0
    2.9046   -0.7794   -0.7947 H   0  0  0  0  0  0  0  0  0  0  0  0
    1.7941   -2.8732   -1.0406 H   0  0  0  0  0  0  0  0  0  0  0  0
    0.4505   -2.0655   -0.2297 H   0  0  0  0  0  0  0  0  0  0  0  0
    0.5533   -1.0747   -4.3851 H   0  0  0  0  0  0  0  0  0  0  0  0
    2.2836    0.5122   -3.1194 H   0  0  0  0  0  0  0  0  0  0  0  0
  1  2  1  0  0  0  0
  1 11  1  0  0  0  0
  1 10  1  0  0  0  0
  2 13  1  0  0  0  0
  3  4  1  0  0  0  0
  3 15  1  1  0  0  0
  3  2  1  0  0  0  0
  4 16  1  0  0  0  0
  4 17  1  0  0  0  0
  5  4  1  0  0  0  0
  6  5  2  0  0  0  0
  7 18  1  6  0  0  0
  7  9  1  0  0  0  0
  7  5  1  0  0  0  0
  8  7  1  0  0  0  0
  8  9  1  0  0  0  0
  9 19  1  6  0  0  0
  9  3  1  0  0  0  0
 12  1  1  0  0  0  0
 14  2  1  0  0  0  0
M TOR 0 0 1 2 3
M TOR 1 0 1 2 8
M TOR 2 0 1 2 14
M TOR 3 1 2 3 4
M TOR 4 1 2 3 15
M TOR 5 1 2 3 16
M TOR 6 1 2 8 6
M TOR 7 1 2 8 7
M TOR 8 1 2 8 18
M TOR 9 2 1 0 9
M TOR 10 2 1 0 10
M TOR 11 2 1 0 11
M TOR 12 2 3 4 5
M TOR 13 2 3 4 6
M TOR 14 2 8 6 4
M TOR 15 2 8 6 7
M TOR 16 2 8 6 17
M TOR 17 3 2 1 12
M TOR 18 3 2 1 13
M TOR 19 3 2 8 6
M TOR 20 3 2 8 7
M TOR 21 3 2 8 18
M TOR 22 3 4 6 7
M TOR 23 3 4 6 8
M TOR 24 3 4 6 17
M TOR 25 4 3 2 8
M TOR 26 4 3 2 14
M TOR 27 4 6 7 8
M TOR 28 4 6 8 18
M TOR 29 5 4 3 15
M TOR 30 5 4 3 16
M TOR 31 5 4 6 7
M TOR 32 5 4 6 8
M TOR 33 5 4 6 17
M TOR 34 6 4 3 15
M TOR 35 6 4 3 16
M TOR 36 6 7 8 18
M TOR 37 6 8 2 14
M TOR 38 7 8 2 14
M TOR 39 7 8 6 17
M TOR 40 8 2 1 12
M TOR 41 8 2 1 13
M TOR 42 8 2 3 15
M TOR 43 8 2 3 16
M  END
$$$$
