gdb 2279	2.5575609	1.9583688	1.4989367	1.8615	74.32	-0.24095	0.00884	0.24979	952.8841	0.15869	-422.579458	-422.572004	-422.57106	-422.610815	30.035
 OpenBabel02181911413D

 19 20  0  0  1  0  0  0  0  0999 V2000
    0.0845    0.3336    0.0111 C   0  0  0  0  0  0  0  0  0  0  0  0
    1.5766    0.0732    0.1079 C   0  0  2  0  0  0  0  0  0  0  0  0
    2.4633    1.2309   -0.4574 C   0  0  0  0  0  0  0  0  0  0  0  0
    3.4271    0.5822   -1.2879 O   0  0  0  0  0  0  0  0  0  0  0  0
    3.3045   -0.7991   -0.9632 C   0  0  2  0  0  0  0  0  0  0  0  0
    1.9214   -1.0007   -0.7848 O   0  0  0  0  0  0  0  0  0  0  0  0
    4.0474   -1.1090    0.3238 C   0  0  0  0  0  0  0  0  0  0  0  0
    3.4375   -0.8831    1.4854 C   0  0  0  0  0  0  0  0  0  0  0  0
    2.0308   -0.3344    1.5239 C   0  0  0  0  0  0  0  0  0  0  0  0
   -0.2006    1.1768    0.6486 H   0  0  0  0  0  0  0  0  0  0  0  0
   -0.1942    0.5652   -1.0203 H   0  0  0  0  0  0  0  0  0  0  0  0
   -0.4813   -0.5451    0.3337 H   0  0  0  0  0  0  0  0  0  0  0  0
    1.8865    1.9232   -1.0789 H   0  0  0  0  0  0  0  0  0  0  0  0
    2.9537    1.7968    0.3438 H   0  0  0  0  0  0  0  0  0  0  0  0
    3.6465   -1.3871   -1.8175 H   0  0  0  0  0  0  0  0  0  0  0  0
    5.0675   -1.4723    0.2595 H   0  0  0  0  0  0  0  0  0  0  0  0
    3.9298   -1.0893    2.4320 H   0  0  0  0  0  0  0  0  0  0  0  0
    1.3418   -1.0846    1.9367 H   0  0  0  0  0  0  0  0  0  0  0  0
    1.9779    0.5321    2.1963 H   0  0  0  0  0  0  0  0  0  0  0  0
  1 12  1  0  0  0  0
  1 10  1  0  0  0  0
  2  1  1  6  0  0  0
  2  9  1  0  0  0  0
  3  2  1  0  0  0  0
  3 14  1  0  0  0  0
  4  5  1  0  0  0  0
  4  3  1  0  0  0  0
  5 15  1  6  0  0  0
  5  6  1  0  0  0  0
  5  7  1  0  0  0  0
  6  2  1  0  0  0  0
  7  8  2  0  0  0  0
  8  9  1  0  0  0  0
  8 17  1  0  0  0  0
  9 18  1  0  0  0  0
  9 19  1  0  0  0  0
 11  1  1  0  0  0  0
 13  3  1  0  0  0  0
 16  7  1  0  0  0  0
M TOR 0 0 1 2 3
M TOR 1 0 1 2 12
M TOR 2 0 1 2 13
M TOR 3 0 1 5 4
M TOR 4 0 1 8 7
M TOR 5 0 1 8 17
M TOR 6 0 1 8 18
M TOR 7 1 2 3 4
M TOR 8 1 5 4 3
M TOR 9 1 5 4 6
M TOR 10 1 5 4 14
M TOR 11 1 8 7 6
M TOR 12 1 8 7 16
M TOR 13 2 1 0 9
M TOR 14 2 1 0 10
M TOR 15 2 1 0 11
M TOR 16 2 1 5 4
M TOR 17 2 1 8 7
M TOR 18 2 1 8 17
M TOR 19 2 1 8 18
M TOR 20 2 3 4 5
M TOR 21 2 3 4 6
M TOR 22 2 3 4 14
M TOR 23 3 2 1 5
M TOR 24 3 2 1 8
M TOR 25 3 4 6 7
M TOR 26 3 4 6 15
M TOR 27 4 3 2 12
M TOR 28 4 3 2 13
M TOR 29 4 5 1 8
M TOR 30 4 6 7 8
M TOR 31 4 6 7 16
M TOR 32 5 1 0 9
M TOR 33 5 1 0 10
M TOR 34 5 1 0 11
M TOR 35 5 1 2 12
M TOR 36 5 1 2 13
M TOR 37 5 1 8 7
M TOR 38 5 1 8 17
M TOR 39 5 1 8 18
M TOR 40 5 4 6 7
M TOR 41 5 4 6 15
M TOR 42 6 7 8 17
M TOR 43 6 7 8 18
M TOR 44 7 6 4 14
M TOR 45 8 1 0 9
M TOR 46 8 1 0 10
M TOR 47 8 1 0 11
M TOR 48 8 1 2 12
M TOR 49 8 1 2 13
M TOR 50 8 7 6 15
M  END
$$$$
