gdb 713	2.6362676	1.7192477	1.4190571	2.0086	73.92	-0.2382	-0.01325	0.22494999999999998	980.8149	0.160076	-422.601021	-422.593725	-422.592781	-422.632684	28.835
 OpenBabel02181911403D

 19 20  0  0  1  0  0  0  0  0999 V2000
    1.1807   -0.0030   -0.1451 O   0  0  0  0  0  0  0  0  0  0  0  0
   -0.0231   -0.0219   -0.0445 C   0  0  0  0  0  0  0  0  0  0  0  0
   -0.8655    1.2509    0.0444 C   0  0  0  0  0  0  0  0  0  0  0  0
   -2.2228    1.1585   -0.6919 C   0  0  0  0  0  0  0  0  0  0  0  0
   -2.8197   -0.2505   -0.5663 C   0  0  1  0  0  0  0  0  0  0  0  0
   -1.8509   -1.2861   -1.1451 C   0  0  0  0  0  0  0  0  0  0  0  0
   -0.8229   -1.3217    0.0083 C   0  0  2  0  0  0  0  0  0  0  0  0
   -1.7837   -1.3485    1.2133 C   0  0  0  0  0  0  0  0  0  0  0  0
   -2.9441   -0.6107    0.8182 O   0  0  0  0  0  0  0  0  0  0  0  0
   -1.0631    1.4079    1.1132 H   0  0  0  0  0  0  0  0  0  0  0  0
   -0.2606    2.0941   -0.2950 H   0  0  0  0  0  0  0  0  0  0  0  0
   -2.9181    1.8951   -0.2785 H   0  0  0  0  0  0  0  0  0  0  0  0
   -2.0990    1.3943   -1.7559 H   0  0  0  0  0  0  0  0  0  0  0  0
   -3.8186   -0.2929   -1.0098 H   0  0  0  0  0  0  0  0  0  0  0  0
   -2.3301   -2.2624   -1.2655 H   0  0  0  0  0  0  0  0  0  0  0  0
   -1.4218   -0.9886   -2.1053 H   0  0  0  0  0  0  0  0  0  0  0  0
   -0.1358   -2.1682   -0.0149 H   0  0  0  0  0  0  0  0  0  0  0  0
   -2.0659   -2.3834    1.4504 H   0  0  0  0  0  0  0  0  0  0  0  0
   -1.3564   -0.8985    2.1173 H   0  0  0  0  0  0  0  0  0  0  0  0
  1  2  2  0  0  0  0
  2  7  1  0  0  0  0
  2  3  1  0  0  0  0
  3 10  1  0  0  0  0
  4  5  1  0  0  0  0
  4 12  1  0  0  0  0
  4  3  1  0  0  0  0
  5 14  1  6  0  0  0
  5  9  1  0  0  0  0
  6  5  1  0  0  0  0
  6  7  1  0  0  0  0
  7 17  1  6  0  0  0
  7  8  1  0  0  0  0
  8 18  1  0  0  0  0
  8 19  1  0  0  0  0
  9  8  1  0  0  0  0
 11  3  1  0  0  0  0
 13  4  1  0  0  0  0
 15  6  1  0  0  0  0
 16  6  1  0  0  0  0
M TOR 0 0 1 2 3
M TOR 1 0 1 2 9
M TOR 2 0 1 2 10
M TOR 3 0 1 6 5
M TOR 4 0 1 6 7
M TOR 5 0 1 6 16
M TOR 6 1 2 3 4
M TOR 7 1 2 3 11
M TOR 8 1 2 3 12
M TOR 9 1 6 5 4
M TOR 10 1 6 5 14
M TOR 11 1 6 5 15
M TOR 12 1 6 7 8
M TOR 13 1 6 7 17
M TOR 14 1 6 7 18
M TOR 15 2 1 6 5
M TOR 16 2 1 6 7
M TOR 17 2 1 6 16
M TOR 18 2 3 4 5
M TOR 19 2 3 4 8
M TOR 20 2 3 4 13
M TOR 21 3 2 1 6
M TOR 22 3 4 5 6
M TOR 23 3 4 5 14
M TOR 24 3 4 5 15
M TOR 25 3 4 8 7
M TOR 26 4 3 2 9
M TOR 27 4 3 2 10
M TOR 28 4 5 6 7
M TOR 29 4 5 6 16
M TOR 30 4 8 7 6
M TOR 31 4 8 7 17
M TOR 32 4 8 7 18
M TOR 33 5 4 3 11
M TOR 34 5 4 3 12
M TOR 35 5 4 8 7
M TOR 36 5 6 7 8
M TOR 37 5 6 7 17
M TOR 38 5 6 7 18
M TOR 39 6 1 2 9
M TOR 40 6 1 2 10
M TOR 41 6 5 4 8
M TOR 42 6 5 4 13
M TOR 43 7 6 5 14
M TOR 44 7 6 5 15
M TOR 45 7 8 4 13
M TOR 46 8 4 3 11
M TOR 47 8 4 3 12
M TOR 48 8 4 5 14
M TOR 49 8 4 5 15
M TOR 50 8 7 6 16
M  END
$$$$
