gdb 4369	3.4420805	1.0003392	0.808386	3.0398	79.73	-0.24534	-0.0546	0.19074	1410.117	0.155901	-422.591634	-422.582276	-422.581331	-422.626396	33.871
 OpenBabel02181911413D

 19 19  0  0  1  0  0  0  0  0999 V2000
    1.9004    5.1400   -1.9028 C   0  0  0  0  0  0  0  0  0  0  0  0
    1.4151    3.8951   -1.1824 C   0  0  0  0  0  0  0  0  0  0  0  0
    0.2379    3.7227   -0.9375 O   0  0  0  0  0  0  0  0  0  0  0  0
    2.4433    2.8869   -0.7922 C   0  0  0  0  0  0  0  0  0  0  0  0
    2.1533    1.7692   -0.1138 C   0  0  0  0  0  0  0  0  0  0  0  0
    3.3761    0.9366    0.1809 C   0  0  1  0  0  0  0  0  0  0  0  0
    3.2019   -0.4585   -0.0103 O   0  0  0  0  0  0  0  0  0  0  0  0
    4.4602    1.5831   -0.7224 C   0  0  0  0  0  0  0  0  0  0  0  0
    3.9355    3.0006   -1.0544 C   0  0  0  0  0  0  0  0  0  0  0  0
    2.6614    5.6612   -1.3111 H   0  0  0  0  0  0  0  0  0  0  0  0
    2.3716    4.8711   -2.8555 H   0  0  0  0  0  0  0  0  0  0  0  0
    1.0568    5.8051   -2.0892 H   0  0  0  0  0  0  0  0  0  0  0  0
    1.1587    1.4936    0.2168 H   0  0  0  0  0  0  0  0  0  0  0  0
    3.6422    1.0275    1.2429 H   0  0  0  0  0  0  0  0  0  0  0  0
    2.8783   -0.5906   -0.9087 H   0  0  0  0  0  0  0  0  0  0  0  0
    5.4510    1.5820   -0.2633 H   0  0  0  0  0  0  0  0  0  0  0  0
    4.5281    0.9868   -1.6398 H   0  0  0  0  0  0  0  0  0  0  0  0
    4.3858    3.7545   -0.3945 H   0  0  0  0  0  0  0  0  0  0  0  0
    4.1731    3.3107   -2.0775 H   0  0  0  0  0  0  0  0  0  0  0  0
  1 10  1  0  0  0  0
  1  2  1  0  0  0  0
  2  3  2  0  0  0  0
  2  4  1  0  0  0  0
  4  5  2  0  0  0  0
  5  6  1  0  0  0  0
  5 13  1  0  0  0  0
  6 14  1  1  0  0  0
  7  6  1  0  0  0  0
  8 16  1  0  0  0  0
  8  6  1  0  0  0  0
  9  4  1  0  0  0  0
  9  8  1  0  0  0  0
  9 18  1  0  0  0  0
 11  1  1  0  0  0  0
 12  1  1  0  0  0  0
 15  7  1  0  0  0  0
 17  8  1  0  0  0  0
 19  9  1  0  0  0  0
M TOR 0 0 1 3 4
M TOR 1 0 1 3 8
M TOR 2 1 3 4 5
M TOR 3 1 3 4 12
M TOR 4 1 3 8 7
M TOR 5 1 3 8 17
M TOR 6 1 3 8 18
M TOR 7 2 1 0 9
M TOR 8 2 1 0 10
M TOR 9 2 1 0 11
M TOR 10 2 1 3 4
M TOR 11 2 1 3 8
M TOR 12 3 1 0 9
M TOR 13 3 1 0 10
M TOR 14 3 1 0 11
M TOR 15 3 4 5 6
M TOR 16 3 4 5 7
M TOR 17 3 4 5 13
M TOR 18 3 8 7 5
M TOR 19 3 8 7 15
M TOR 20 3 8 7 16
M TOR 21 4 3 8 7
M TOR 22 4 3 8 17
M TOR 23 4 3 8 18
M TOR 24 4 5 6 14
M TOR 25 4 5 7 8
M TOR 26 4 5 7 15
M TOR 27 4 5 7 16
M TOR 28 5 4 3 8
M TOR 29 5 7 8 17
M TOR 30 5 7 8 18
M TOR 31 6 5 4 12
M TOR 32 6 5 7 8
M TOR 33 6 5 7 15
M TOR 34 6 5 7 16
M TOR 35 7 5 4 12
M TOR 36 7 5 6 14
M TOR 37 8 3 4 12
M TOR 38 8 7 5 13
M  END
$$$$
