
     RDKit          3D

 19 21  0  0  0  0  0  0  0  0999 V2000
    0.3978   -0.1677   -0.5347 C   0  0  0  0  0  0  0  0  0  0  0  0
    0.7633    0.0898    0.9192 C   0  0  0  0  0  0  0  0  0  0  0  0
    2.0574   -0.4914    1.2266 O   0  0  0  0  0  0  0  0  0  0  0  0
    2.8134    0.5964    1.7027 C   0  0  0  0  0  0  0  0  0  0  0  0
    4.2117    0.2250    2.0941 C   0  0  0  0  0  0  0  0  0  0  0  0
    2.4755    1.8933    0.8891 C   0  0  0  0  0  0  0  0  0  0  0  0
    2.6564    2.7197    2.0860 O   0  0  0  0  0  0  0  0  0  0  0  0
    1.9139    1.5503    2.5641 C   0  0  0  0  0  0  0  0  0  0  0  0
    1.0116    1.5427    1.2960 C   0  0  0  0  0  0  0  0  0  0  0  0
    0.3905   -1.2420   -0.7386 H   0  0  0  0  0  0  0  0  0  0  0  0
   -0.5978    0.2305   -0.7573 H   0  0  0  0  0  0  0  0  0  0  0  0
    1.1186    0.3037   -1.2098 H   0  0  0  0  0  0  0  0  0  0  0  0
    0.0160   -0.3726    1.5786 H   0  0  0  0  0  0  0  0  0  0  0  0
    4.2026   -0.5267    2.8890 H   0  0  0  0  0  0  0  0  0  0  0  0
    4.7533   -0.1919    1.2398 H   0  0  0  0  0  0  0  0  0  0  0  0
    4.7334    1.1165    2.4494 H   0  0  0  0  0  0  0  0  0  0  0  0
    2.8721    2.2655   -0.0557 H   0  0  0  0  0  0  0  0  0  0  0  0
    1.6374    1.5106    3.6181 H   0  0  0  0  0  0  0  0  0  0  0  0
    0.2245    2.2862    1.1860 H   0  0  0  0  0  0  0  0  0  0  0  0
  1  2  1  0
  2  3  1  0
  3  4  1  0
  4  5  1  0
  4  6  1  0
  6  7  1  0
  7  8  1  0
  8  9  1  0
  9  2  1  0
  8  4  1  0
  9  6  1  0
  1 10  1  0
  1 11  1  0
  1 12  1  0
  2 13  1  0
  5 14  1  0
  5 15  1  0
  5 16  1  0
  6 17  1  0
  8 18  1  0
  9 19  1  0
M  END
$$$$
