gdb 4385	2.9111069	1.3186325	0.9424125	3.649	80.94	-0.22885	-0.04955	0.17930000000000001	1259.2814	0.155863	-422.590033	-422.58093	-422.579986	-422.623831	33.372
 OpenBabel02181911413D

 19 19  0  0  1  0  0  0  0  0999 V2000
   -3.9589   -1.5141   -0.1620 C   0  0  0  0  0  0  0  0  0  0  0  0
   -2.6805   -0.8995    0.3808 C   0  0  1  0  0  0  0  0  0  0  0  0
   -1.5781   -1.6371   -0.1349 O   0  0  0  0  0  0  0  0  0  0  0  0
   -0.3275   -1.1774    0.3137 C   0  0  0  0  0  0  0  0  0  0  0  0
   -0.1133    0.3007    0.1005 C   0  0  0  0  0  0  0  0  0  0  0  0
    1.3039    0.7879    0.1206 C   0  0  0  0  0  0  0  0  0  0  0  0
   -1.1762    1.1001   -0.0792 C   0  0  0  0  0  0  0  0  0  0  0  0
   -2.5518    0.5923    0.0339 C   0  0  0  0  0  0  0  0  0  0  0  0
   -3.5274    1.3101   -0.0713 O   0  0  0  0  0  0  0  0  0  0  0  0
   -4.8156   -0.9216    0.1624 H   0  0  0  0  0  0  0  0  0  0  0  0
   -3.9362   -1.5203   -1.2553 H   0  0  0  0  0  0  0  0  0  0  0  0
   -4.0669   -2.5421    0.1915 H   0  0  0  0  0  0  0  0  0  0  0  0
   -2.6780   -0.9616    1.4868 H   0  0  0  0  0  0  0  0  0  0  0  0
   -0.1789   -1.4079    1.3875 H   0  0  0  0  0  0  0  0  0  0  0  0
    0.4277   -1.7499   -0.2371 H   0  0  0  0  0  0  0  0  0  0  0  0
    1.8032    0.4969    1.0536 H   0  0  0  0  0  0  0  0  0  0  0  0
    1.8824    0.3364   -0.6951 H   0  0  0  0  0  0  0  0  0  0  0  0
    1.3582    1.8745    0.0264 H   0  0  0  0  0  0  0  0  0  0  0  0
   -1.0717    2.1667   -0.2571 H   0  0  0  0  0  0  0  0  0  0  0  0
  1 10  1  0  0  0  0
  1 12  1  0  0  0  0
  1  2  1  0  0  0  0
  2 13  1  1  0  0  0
  3  4  1  0  0  0  0
  3  2  1  0  0  0  0
  4 14  1  0  0  0  0
  5  6  1  0  0  0  0
  5  4  1  0  0  0  0
  6 16  1  0  0  0  0
  7  8  1  0  0  0  0
  7  5  2  0  0  0  0
  8  2  1  0  0  0  0
  9  8  2  0  0  0  0
 11  1  1  0  0  0  0
 15  4  1  0  0  0  0
 17  6  1  0  0  0  0
 18  6  1  0  0  0  0
 19  7  1  0  0  0  0
M TOR 0 0 1 2 3
M TOR 1 0 1 7 6
M TOR 2 0 1 7 8
M TOR 3 1 2 3 4
M TOR 4 1 2 3 13
M TOR 5 1 2 3 14
M TOR 6 1 7 6 4
M TOR 7 1 7 6 18
M TOR 8 2 1 0 9
M TOR 9 2 1 0 10
M TOR 10 2 1 0 11
M TOR 11 2 1 7 6
M TOR 12 2 1 7 8
M TOR 13 2 3 4 5
M TOR 14 2 3 4 6
M TOR 15 3 2 1 7
M TOR 16 3 2 1 12
M TOR 17 3 4 5 15
M TOR 18 3 4 5 16
M TOR 19 3 4 5 17
M TOR 20 3 4 6 7
M TOR 21 3 4 6 18
M TOR 22 4 6 7 8
M TOR 23 5 4 3 13
M TOR 24 5 4 3 14
M TOR 25 5 4 6 7
M TOR 26 5 4 6 18
M TOR 27 6 4 3 13
M TOR 28 6 4 3 14
M TOR 29 6 4 5 15
M TOR 30 6 4 5 16
M TOR 31 6 4 5 17
M TOR 32 6 7 1 12
M TOR 33 7 1 0 9
M TOR 34 7 1 0 10
M TOR 35 7 1 0 11
M TOR 36 8 7 1 12
M TOR 37 8 7 6 18
M  END
$$$$
