gdb 5418	2.3206797	1.4645636	0.9804066	4.4764	78.	-0.24821	-0.05668	0.19152999999999998	1218.2133	0.157265	-422.597292	-422.588499	-422.587555	-422.630949	32.721
 OpenBabel02181911423D

 19 19  0  0  1  0  0  0  0  0999 V2000
   -3.2175   -1.1208    1.1761 C   0  0  0  0  0  0  0  0  0  0  0  0
   -2.3234   -0.5980    0.0429 C   0  0  1  0  0  0  0  0  0  0  0  0
   -2.0738    0.8917    0.1202 C   0  0  0  0  0  0  0  0  0  0  0  0
   -0.7795    1.2260    0.0451 C   0  0  0  0  0  0  0  0  0  0  0  0
    0.0372    0.0070   -0.1125 C   0  0  0  0  0  0  0  0  0  0  0  0
    1.2307   -0.0552   -0.3427 O   0  0  0  0  0  0  0  0  0  0  0  0
   -0.9008   -1.2010    0.0131 C   0  0  2  0  0  0  0  0  0  0  0  0
   -0.6213   -2.2267   -1.0987 C   0  0  0  0  0  0  0  0  0  0  0  0
    0.6723   -2.7708   -0.9943 O   0  0  0  0  0  0  0  0  0  0  0  0
   -3.3648   -2.2012    1.0852 H   0  0  0  0  0  0  0  0  0  0  0  0
   -2.7670   -0.9212    2.1538 H   0  0  0  0  0  0  0  0  0  0  0  0
   -4.2034   -0.6449    1.1544 H   0  0  0  0  0  0  0  0  0  0  0  0
   -2.8316   -0.8083   -0.9107 H   0  0  0  0  0  0  0  0  0  0  0  0
   -2.8956    1.5951    0.2176 H   0  0  0  0  0  0  0  0  0  0  0  0
   -0.3550    2.2215    0.0521 H   0  0  0  0  0  0  0  0  0  0  0  0
   -0.6763   -1.6878    0.9709 H   0  0  0  0  0  0  0  0  0  0  0  0
   -1.3303   -3.0594   -1.0242 H   0  0  0  0  0  0  0  0  0  0  0  0
   -0.7888   -1.7467   -2.0795 H   0  0  0  0  0  0  0  0  0  0  0  0
    1.2751   -2.0172   -0.9025 H   0  0  0  0  0  0  0  0  0  0  0  0
  1 11  1  0  0  0  0
  2 13  1  6  0  0  0
  2  3  1  0  0  0  0
  2  1  1  0  0  0  0
  3 14  1  0  0  0  0
  4 15  1  0  0  0  0
  4  3  2  0  0  0  0
  5  7  1  0  0  0  0
  5  4  1  0  0  0  0
  6  5  2  0  0  0  0
  7  2  1  0  0  0  0
  7 16  1  1  0  0  0
  8 17  1  0  0  0  0
  8  9  1  0  0  0  0
  8  7  1  0  0  0  0
  9 19  1  0  0  0  0
 10  1  1  0  0  0  0
 12  1  1  0  0  0  0
 18  8  1  0  0  0  0
M TOR 0 0 1 2 3
M TOR 1 0 1 2 13
M TOR 2 0 1 6 4
M TOR 3 0 1 6 7
M TOR 4 0 1 6 15
M TOR 5 1 2 3 4
M TOR 6 1 2 3 14
M TOR 7 1 6 4 3
M TOR 8 1 6 4 5
M TOR 9 1 6 7 8
M TOR 10 1 6 7 16
M TOR 11 1 6 7 17
M TOR 12 2 1 0 9
M TOR 13 2 1 0 10
M TOR 14 2 1 0 11
M TOR 15 2 1 6 4
M TOR 16 2 1 6 7
M TOR 17 2 1 6 15
M TOR 18 2 3 4 5
M TOR 19 2 3 4 6
M TOR 20 3 2 1 6
M TOR 21 3 2 1 12
M TOR 22 3 4 6 7
M TOR 23 3 4 6 15
M TOR 24 4 3 2 13
M TOR 25 4 6 1 12
M TOR 26 4 6 7 8
M TOR 27 4 6 7 16
M TOR 28 4 6 7 17
M TOR 29 5 4 3 14
M TOR 30 5 4 6 7
M TOR 31 5 4 6 15
M TOR 32 6 1 0 9
M TOR 33 6 1 0 10
M TOR 34 6 1 0 11
M TOR 35 6 1 2 13
M TOR 36 6 4 3 14
M TOR 37 6 7 8 18
M TOR 38 7 6 1 12
M TOR 39 8 7 6 15
M  END
$$$$
