
     RDKit          3D

 19 21  0  0  0  0  0  0  0  0999 V2000
   -2.8061    1.4578    3.5472 C   0  0  0  0  0  0  0  0  0  0  0  0
   -2.0925    1.1895    2.2508 C   0  0  0  0  0  0  0  0  0  0  0  0
   -0.8043    1.8316    2.0994 O   0  0  0  0  0  0  0  0  0  0  0  0
   -0.8601    0.3936    2.1174 C   0  0  0  0  0  0  0  0  0  0  0  0
   -0.7119   -0.1605    0.6972 C   0  0  0  0  0  0  0  0  0  0  0  0
    0.4222    0.3858    0.0516 O   0  0  0  0  0  0  0  0  0  0  0  0
   -2.0257    0.2392    0.0173 C   0  0  0  0  0  0  0  0  0  0  0  0
   -3.3104   -0.2953    0.5971 C   0  0  0  0  0  0  0  0  0  0  0  0
   -2.8483    1.0970    0.9542 C   0  0  0  0  0  0  0  0  0  0  0  0
   -3.5954    0.7175    3.7116 H   0  0  0  0  0  0  0  0  0  0  0  0
   -2.1094    1.4271    4.3883 H   0  0  0  0  0  0  0  0  0  0  0  0
   -3.2747    2.4478    3.5285 H   0  0  0  0  0  0  0  0  0  0  0  0
   -0.3610   -0.0780    2.9603 H   0  0  0  0  0  0  0  0  0  0  0  0
   -0.5649   -1.2460    0.7016 H   0  0  0  0  0  0  0  0  0  0  0  0
    0.4049    1.3298    0.2595 H   0  0  0  0  0  0  0  0  0  0  0  0
   -1.9765    0.4499   -1.0443 H   0  0  0  0  0  0  0  0  0  0  0  0
   -4.1598   -0.3870   -0.0705 H   0  0  0  0  0  0  0  0  0  0  0  0
   -3.2578   -1.0699    1.3576 H   0  0  0  0  0  0  0  0  0  0  0  0
   -3.4115    1.9567    0.6072 H   0  0  0  0  0  0  0  0  0  0  0  0
  1  2  1  0
  2  3  1  0
  3  4  1  0
  4  5  1  0
  5  6  1  0
  5  7  1  0
  7  8  1  0
  8  9  1  0
  4  2  1  0
  9  7  1  0
  9  2  1  0
  1 10  1  0
  1 11  1  0
  1 12  1  0
  4 13  1  0
  5 14  1  0
  6 15  1  0
  7 16  1  0
  8 17  1  0
  8 18  1  0
  9 19  1  0
M  END
$$$$
