
     RDKit          3D

 19 21  0  0  0  0  0  0  0  0999 V2000
    0.0211    0.1727    0.2678 C   0  0  0  0  0  0  0  0  0  0  0  0
    1.4043   -0.3861    0.0008 C   0  0  0  0  0  0  0  0  0  0  0  0
    2.1698   -0.0928    1.1664 O   0  0  0  0  0  0  0  0  0  0  0  0
    3.2622   -0.9550    1.3191 C   0  0  0  0  0  0  0  0  0  0  0  0
    3.9729   -1.1135    0.1161 O   0  0  0  0  0  0  0  0  0  0  0  0
    3.0776   -1.3038   -0.9482 C   0  0  0  0  0  0  0  0  0  0  0  0
    2.1493   -0.1162   -1.3505 C   0  0  0  0  0  0  0  0  0  0  0  0
    1.2445   -1.1881   -2.0109 C   0  0  0  0  0  0  0  0  0  0  0  0
    1.6243   -1.8104   -0.6428 C   0  0  0  0  0  0  0  0  0  0  0  0
   -0.4400   -0.3556    1.1078 H   0  0  0  0  0  0  0  0  0  0  0  0
    0.1072    1.2269    0.5475 H   0  0  0  0  0  0  0  0  0  0  0  0
   -0.6416    0.0997   -0.5954 H   0  0  0  0  0  0  0  0  0  0  0  0
    3.9384   -0.5153    2.0559 H   0  0  0  0  0  0  0  0  0  0  0  0
    2.9138   -1.9422    1.6697 H   0  0  0  0  0  0  0  0  0  0  0  0
    3.6162   -1.7996   -1.7583 H   0  0  0  0  0  0  0  0  0  0  0  0
    2.4545    0.8508   -1.7514 H   0  0  0  0  0  0  0  0  0  0  0  0
    0.1977   -0.9385   -2.1753 H   0  0  0  0  0  0  0  0  0  0  0  0
    1.6659   -1.6894   -2.8862 H   0  0  0  0  0  0  0  0  0  0  0  0
    1.3135   -2.7824   -0.2569 H   0  0  0  0  0  0  0  0  0  0  0  0
  1  2  1  0
  2  3  1  0
  3  4  1  0
  4  5  1  0
  5  6  1  0
  6  7  1  0
  7  8  1  0
  8  9  1  0
  7  2  1  0
  9  2  1  0
  9  6  1  0
  1 10  1  0
  1 11  1  0
  1 12  1  0
  4 13  1  0
  4 14  1  0
  6 15  1  0
  7 16  1  0
  8 17  1  0
  8 18  1  0
  9 19  1  0
M  END
$$$$
