
     RDKit          3D

 19 18  0  0  0  0  0  0  0  0999 V2000
   -0.8433    3.9441    1.2065 C   0  0  0  0  0  0  0  0  0  0  0  0
   -0.9396    2.5065    0.6590 C   0  0  0  0  0  0  0  0  0  0  0  0
   -1.6372    2.4782   -0.6240 C   0  0  0  0  0  0  0  0  0  0  0  0
   -2.1900    2.4771   -1.6921 C   0  0  0  0  0  0  0  0  0  0  0  0
    0.4684    1.8571    0.5453 C   0  0  0  0  0  0  0  0  0  0  0  0
    1.1688    1.9359    1.7790 O   0  0  0  0  0  0  0  0  0  0  0  0
    0.4176    0.4094    0.0417 C   0  0  0  0  0  0  0  0  0  0  0  0
    1.8060   -0.1821   -0.0637 C   0  0  0  0  0  0  0  0  0  0  0  0
    2.1463   -1.2246    0.4314 O   0  0  0  0  0  0  0  0  0  0  0  0
   -0.2996    3.9441    2.1527 H   0  0  0  0  0  0  0  0  0  0  0  0
   -0.3104    4.5874    0.4997 H   0  0  0  0  0  0  0  0  0  0  0  0
   -1.8401    4.3634    1.3616 H   0  0  0  0  0  0  0  0  0  0  0  0
   -1.5131    1.9004    1.3769 H   0  0  0  0  0  0  0  0  0  0  0  0
   -2.6910    2.4719   -2.6286 H   0  0  0  0  0  0  0  0  0  0  0  0
    1.0610    2.4620   -0.1524 H   0  0  0  0  0  0  0  0  0  0  0  0
    0.8044    1.2732    2.3774 H   0  0  0  0  0  0  0  0  0  0  0  0
   -0.1841   -0.2212    0.7073 H   0  0  0  0  0  0  0  0  0  0  0  0
   -0.0477    0.3915   -0.9519 H   0  0  0  0  0  0  0  0  0  0  0  0
    2.5202    0.4323   -0.6596 H   0  0  0  0  0  0  0  0  0  0  0  0
  1  2  1  0
  2  3  1  0
  3  4  3  0
  2  5  1  0
  5  6  1  0
  5  7  1  0
  7  8  1  0
  8  9  2  0
  1 10  1  0
  1 11  1  0
  1 12  1  0
  2 13  1  0
  4 14  1  0
  5 15  1  0
  6 16  1  0
  7 17  1  0
  7 18  1  0
  8 19  1  0
M  END
$$$$
