gdb 3384	2.5661206	1.5384835	1.2131331	3.1761	74.32	-0.23785	-0.02022	0.21763000000000002	1085.8583	0.157355	-422.573636	-422.565381	-422.564437	-422.607058	30.8
 OpenBabel02181911413D

 19 20  0  0  1  0  0  0  0  0999 V2000
   -0.4281    1.9808    1.3713 C   0  0  0  0  0  0  0  0  0  0  0  0
   -0.7745    1.3129    0.0280 C   0  0  2  0  0  0  0  0  0  0  0  0
   -2.2233    0.8134   -0.0558 C   0  0  1  0  0  0  0  0  0  0  0  0
   -2.8054    0.6504   -1.4735 C   0  0  0  0  0  0  0  0  0  0  0  0
   -2.5613   -0.7724   -1.4666 O   0  0  0  0  0  0  0  0  0  0  0  0
   -2.1739   -0.7495   -0.0734 C   0  0  1  0  0  0  0  0  0  0  0  0
   -0.7357   -1.1923    0.1258 C   0  0  0  0  0  0  0  0  0  0  0  0
    0.1070    0.0587   -0.1523 C   0  0  0  0  0  0  0  0  0  0  0  0
    1.2769    0.0758   -0.4299 O   0  0  0  0  0  0  0  0  0  0  0  0
   -0.6437    1.3163    2.2157 H   0  0  0  0  0  0  0  0  0  0  0  0
    0.6336    2.2387    1.4054 H   0  0  0  0  0  0  0  0  0  0  0  0
   -1.0140    2.8947    1.5085 H   0  0  0  0  0  0  0  0  0  0  0  0
   -0.5369    2.0132   -0.7799 H   0  0  0  0  0  0  0  0  0  0  0  0
   -2.8813    1.2861    0.6744 H   0  0  0  0  0  0  0  0  0  0  0  0
   -3.8757    0.8786   -1.5581 H   0  0  0  0  0  0  0  0  0  0  0  0
   -2.2678    1.1559   -2.2853 H   0  0  0  0  0  0  0  0  0  0  0  0
   -2.8987   -1.2819    0.5515 H   0  0  0  0  0  0  0  0  0  0  0  0
   -0.5529   -1.5038    1.1631 H   0  0  0  0  0  0  0  0  0  0  0  0
   -0.4487   -2.0199   -0.5265 H   0  0  0  0  0  0  0  0  0  0  0  0
  1 11  1  0  0  0  0
  1 12  1  0  0  0  0
  1 10  1  0  0  0  0
  2 13  1  6  0  0  0
  2  1  1  0  0  0  0
  3  2  1  0  0  0  0
  3 14  1  1  0  0  0
  4  5  1  0  0  0  0
  4  3  1  0  0  0  0
  5  6  1  0  0  0  0
  6  3  1  0  0  0  0
  6  7  1  0  0  0  0
  6 17  1  1  0  0  0
  7 18  1  0  0  0  0
  8  2  1  0  0  0  0
  8  7  1  0  0  0  0
  9  8  2  0  0  0  0
 15  4  1  0  0  0  0
 16  4  1  0  0  0  0
 19  7  1  0  0  0  0
M TOR 0 0 1 2 3
M TOR 1 0 1 2 5
M TOR 2 0 1 2 13
M TOR 3 0 1 7 6
M TOR 4 0 1 7 8
M TOR 5 1 2 3 4
M TOR 6 1 2 3 14
M TOR 7 1 2 3 15
M TOR 8 1 2 5 4
M TOR 9 1 2 5 6
M TOR 10 1 2 5 16
M TOR 11 1 7 6 5
M TOR 12 1 7 6 17
M TOR 13 1 7 6 18
M TOR 14 2 1 0 9
M TOR 15 2 1 0 10
M TOR 16 2 1 0 11
M TOR 17 2 1 7 6
M TOR 18 2 1 7 8
M TOR 19 2 3 4 5
M TOR 20 2 5 6 7
M TOR 21 2 5 6 17
M TOR 22 2 5 6 18
M TOR 23 3 2 1 7
M TOR 24 3 2 1 12
M TOR 25 3 2 5 6
M TOR 26 3 2 5 16
M TOR 27 3 4 5 6
M TOR 28 3 4 5 16
M TOR 29 4 3 2 13
M TOR 30 4 5 2 13
M TOR 31 4 5 6 7
M TOR 32 4 5 6 17
M TOR 33 4 5 6 18
M TOR 34 5 2 1 7
M TOR 35 5 2 1 12
M TOR 36 5 2 3 14
M TOR 37 5 2 3 15
M TOR 38 5 4 3 14
M TOR 39 5 4 3 15
M TOR 40 5 6 7 8
M TOR 41 6 5 2 13
M TOR 42 6 7 1 12
M TOR 43 7 1 0 9
M TOR 44 7 1 0 10
M TOR 45 7 1 0 11
M TOR 46 7 1 2 13
M TOR 47 7 6 5 16
M TOR 48 8 7 1 12
M TOR 49 8 7 6 17
M TOR 50 8 7 6 18
M  END
$$$$
