gdb 5701	4.8130836	1.012938	0.9496543	2.0627	77.5	-0.22565	0.06906	0.29470999999999997	1299.9685	0.154965	-422.466198	-422.457571	-422.456627	-422.499611	32.257
 OpenBabel02181911423D

 19 21  0  0  1  0  0  0  0  0999 V2000
    1.3945   -0.0010   -0.0975 C   0  0  0  0  0  0  0  0  0  0  0  0
   -0.0099    0.0497    0.0586 O   0  0  0  0  0  0  0  0  0  0  0  0
   -0.4045    0.7361    1.1944 C   0  0  1  0  0  0  0  0  0  0  0  0
   -0.4730    2.2638    1.1656 C   0  0  0  0  0  0  0  0  0  0  0  0
   -1.7215    1.4332    1.1549 C   0  0  1  0  0  0  0  0  0  0  0  0
   -2.5734    1.3594    0.0031 O   0  0  0  0  0  0  0  0  0  0  0  0
   -3.7019    1.1492    0.8631 C   0  0  2  0  0  0  0  0  0  0  0  0
   -3.9322    2.3337    1.7466 C   0  0  0  0  0  0  0  0  0  0  0  0
   -2.8745    1.3075    2.1179 C   0  0  2  0  0  0  0  0  0  0  0  0
    1.8771   -0.5188    0.7455 H   0  0  0  0  0  0  0  0  0  0  0  0
    1.5939   -0.5568   -1.0165 H   0  0  0  0  0  0  0  0  0  0  0  0
    1.8301    1.0049   -0.1811 H   0  0  0  0  0  0  0  0  0  0  0  0
   -0.1129    0.2694    2.1395 H   0  0  0  0  0  0  0  0  0  0  0  0
   -0.2085    2.8331    2.0507 H   0  0  0  0  0  0  0  0  0  0  0  0
   -0.2185    2.7254    0.2169 H   0  0  0  0  0  0  0  0  0  0  0  0
   -4.4408    0.4201    0.5553 H   0  0  0  0  0  0  0  0  0  0  0  0
   -3.6454    3.3234    1.4031 H   0  0  0  0  0  0  0  0  0  0  0  0
   -4.8295    2.2937    2.3568 H   0  0  0  0  0  0  0  0  0  0  0  0
   -2.8732    0.7483    3.0433 H   0  0  0  0  0  0  0  0  0  0  0  0
  1  2  1  0  0  0  0
  1 10  1  0  0  0  0
  2  3  1  0  0  0  0
  3 13  1  1  0  0  0
  4  3  1  0  0  0  0
  4 14  1  0  0  0  0
  5  6  1  6  0  0  0
  5  4  1  0  0  0  0
  5  3  1  0  0  0  0
  5  9  1  0  0  0  0
  6  7  1  0  0  0  0
  7 16  1  6  0  0  0
  7  8  1  0  0  0  0
  7  9  1  0  0  0  0
  8  9  1  0  0  0  0
  8 18  1  0  0  0  0
  9 19  1  1  0  0  0
 11  1  1  0  0  0  0
 12  1  1  0  0  0  0
 15  4  1  0  0  0  0
 17  8  1  0  0  0  0
M TOR 0 0 1 2 3
M TOR 1 0 1 2 4
M TOR 2 0 1 2 12
M TOR 3 1 2 3 4
M TOR 4 1 2 3 13
M TOR 5 1 2 3 14
M TOR 6 1 2 4 5
M TOR 7 1 2 4 8
M TOR 8 2 1 0 9
M TOR 9 2 1 0 10
M TOR 10 2 1 0 11
M TOR 11 2 3 4 5
M TOR 12 2 3 4 8
M TOR 13 2 4 3 13
M TOR 14 2 4 3 14
M TOR 15 2 4 5 6
M TOR 16 2 4 8 6
M TOR 17 2 4 8 7
M TOR 18 2 4 8 18
M TOR 19 3 4 2 12
M TOR 20 3 4 5 6
M TOR 21 3 4 8 6
M TOR 22 3 4 8 7
M TOR 23 3 4 8 18
M TOR 24 4 5 6 7
M TOR 25 4 5 6 8
M TOR 26 4 5 6 15
M TOR 27 4 8 6 7
M TOR 28 4 8 6 15
M TOR 29 4 8 7 16
M TOR 30 4 8 7 17
M TOR 31 5 4 2 12
M TOR 32 5 4 3 13
M TOR 33 5 4 3 14
M TOR 34 5 4 8 7
M TOR 35 5 4 8 18
M TOR 36 5 6 7 8
M TOR 37 5 6 7 16
M TOR 38 5 6 7 17
M TOR 39 5 6 8 18
M TOR 40 6 7 8 18
M TOR 41 6 8 7 16
M TOR 42 6 8 7 17
M TOR 43 7 8 6 15
M TOR 44 8 4 2 12
M TOR 45 8 4 3 13
M TOR 46 8 4 3 14
M  END
$$$$
