gdb 3886	2.9672417	1.2320515	0.9909046	1.6739	79.3	-0.24176	0.00343	0.24519	1234.51	0.155921	-422.555076	-422.546139	-422.545195	-422.589004	33.456
 OpenBabel02181911413D

 19 20  0  0  1  0  0  0  0  0999 V2000
    1.3573    0.7176   -0.4912 C   0  0  0  0  0  0  0  0  0  0  0  0
    0.0453    0.1329   -0.0795 C   0  0  0  0  0  0  0  0  0  0  0  0
   -0.2505   -1.1446    0.1787 C   0  0  0  0  0  0  0  0  0  0  0  0
   -1.6787   -1.3276    0.5424 C   0  0  1  0  0  0  0  0  0  0  0  0
   -2.4403   -2.5592    0.2738 C   0  0  0  0  0  0  0  0  0  0  0  0
   -2.0027   -2.2500    1.5968 O   0  0  0  0  0  0  0  0  0  0  0  0
   -2.2803    0.0772    0.6036 C   0  0  0  0  0  0  0  0  0  0  0  0
   -1.1934    1.0121    0.0148 C   0  0  2  0  0  0  0  0  0  0  0  0
   -1.5327    1.5717   -1.2559 O   0  0  0  0  0  0  0  0  0  0  0  0
    1.7190    1.4289    0.2624 H   0  0  0  0  0  0  0  0  0  0  0  0
    2.1231   -0.0492   -0.6324 H   0  0  0  0  0  0  0  0  0  0  0  0
    1.2458    1.2832   -1.4230 H   0  0  0  0  0  0  0  0  0  0  0  0
    0.4424   -1.9785    0.1446 H   0  0  0  0  0  0  0  0  0  0  0  0
   -3.5159   -2.4961    0.1073 H   0  0  0  0  0  0  0  0  0  0  0  0
   -1.9516   -3.4134   -0.1956 H   0  0  0  0  0  0  0  0  0  0  0  0
   -3.2165    0.1807    0.0494 H   0  0  0  0  0  0  0  0  0  0  0  0
   -2.4858    0.3207    1.6500 H   0  0  0  0  0  0  0  0  0  0  0  0
   -1.0242    1.8900    0.6477 H   0  0  0  0  0  0  0  0  0  0  0  0
   -1.6143    0.8401   -1.8787 H   0  0  0  0  0  0  0  0  0  0  0  0
  1  2  1  0  0  0  0
  1 10  1  0  0  0  0
  2  8  1  0  0  0  0
  2  3  2  0  0  0  0
  4  3  1  6  0  0  0
  4  7  1  0  0  0  0
  4  6  1  0  0  0  0
  5  4  1  0  0  0  0
  5  6  1  0  0  0  0
  7 17  1  0  0  0  0
  8  7  1  0  0  0  0
  8 18  1  1  0  0  0
  9  8  1  0  0  0  0
 11  1  1  0  0  0  0
 12  1  1  0  0  0  0
 13  3  1  0  0  0  0
 14  5  1  0  0  0  0
 15  5  1  0  0  0  0
 16  7  1  0  0  0  0
 19  9  1  0  0  0  0
M TOR 0 0 1 2 3
M TOR 1 0 1 2 12
M TOR 2 0 1 7 6
M TOR 3 0 1 7 8
M TOR 4 0 1 7 17
M TOR 5 1 2 3 4
M TOR 6 1 2 3 5
M TOR 7 1 2 3 6
M TOR 8 1 7 6 3
M TOR 9 1 7 6 15
M TOR 10 1 7 6 16
M TOR 11 1 7 8 18
M TOR 12 2 1 0 9
M TOR 13 2 1 0 10
M TOR 14 2 1 0 11
M TOR 15 2 1 7 6
M TOR 16 2 1 7 8
M TOR 17 2 1 7 17
M TOR 18 2 3 4 5
M TOR 19 2 3 4 13
M TOR 20 2 3 4 14
M TOR 21 2 3 6 7
M TOR 22 2 3 6 15
M TOR 23 2 3 6 16
M TOR 24 3 2 1 7
M TOR 25 3 5 4 13
M TOR 26 3 5 4 14
M TOR 27 3 6 7 8
M TOR 28 3 6 7 17
M TOR 29 4 3 2 12
M TOR 30 4 3 6 7
M TOR 31 4 3 6 15
M TOR 32 4 3 6 16
M TOR 33 4 5 3 6
M TOR 34 5 3 2 12
M TOR 35 5 3 6 7
M TOR 36 5 3 6 15
M TOR 37 5 3 6 16
M TOR 38 6 3 2 12
M TOR 39 6 3 4 13
M TOR 40 6 3 4 14
M TOR 41 6 7 8 18
M TOR 42 7 1 0 9
M TOR 43 7 1 0 10
M TOR 44 7 1 0 11
M TOR 45 7 1 2 12
M TOR 46 8 7 6 15
M TOR 47 8 7 6 16
M  END
$$$$
