gdb 5292	2.3222002	1.6414114	1.1918367	3.2875	75.29	-0.24471	-0.02823	0.21648	1091.1752	0.156715	-422.549551	-422.540935	-422.539991	-422.583127	32.178
 OpenBabel02181911423D

 19 20  0  0  1  0  0  0  0  0999 V2000
   -1.0993    2.7279    0.0623 O   0  0  0  0  0  0  0  0  0  0  0  0
   -0.1763    1.6604   -0.0650 C   0  0  0  0  0  0  0  0  0  0  0  0
   -0.3437    0.6861    1.0851 C   0  0  2  0  0  0  0  0  0  0  0  0
    0.1066    1.1338    2.5160 C   0  0  0  0  0  0  0  0  0  0  0  0
    0.9099   -0.1886    2.6904 C   0  0  0  0  0  0  0  0  0  0  0  0
    0.3780   -0.7068    1.3324 C   0  0  1  0  0  0  0  0  0  0  0  0
   -1.0087   -1.4148    1.4060 C   0  0  0  0  0  0  0  0  0  0  0  0
   -1.6709   -0.0601    1.1055 C   0  0  0  0  0  0  0  0  0  0  0  0
   -2.7921    0.2881    0.8413 O   0  0  0  0  0  0  0  0  0  0  0  0
   -1.9772    2.3277    0.1222 H   0  0  0  0  0  0  0  0  0  0  0  0
   -0.2950    1.1334   -1.0266 H   0  0  0  0  0  0  0  0  0  0  0  0
    0.8253    2.1056   -0.0588 H   0  0  0  0  0  0  0  0  0  0  0  0
    0.7226    2.0352    2.4857 H   0  0  0  0  0  0  0  0  0  0  0  0
   -0.7030    1.3049    3.2290 H   0  0  0  0  0  0  0  0  0  0  0  0
    1.9904   -0.0275    2.6921 H   0  0  0  0  0  0  0  0  0  0  0  0
    0.6580   -0.8025    3.5595 H   0  0  0  0  0  0  0  0  0  0  0  0
    1.0896   -1.1330    0.6258 H   0  0  0  0  0  0  0  0  0  0  0  0
   -1.1960   -2.1435    0.6106 H   0  0  0  0  0  0  0  0  0  0  0  0
   -1.2756   -1.8771    2.3613 H   0  0  0  0  0  0  0  0  0  0  0  0
  1 10  1  0  0  0  0
  2 12  1  0  0  0  0
  2  1  1  0  0  0  0
  3  2  1  6  0  0  0
  3  8  1  0  0  0  0
  3  6  1  0  0  0  0
  3  4  1  0  0  0  0
  4  5  1  0  0  0  0
  4 14  1  0  0  0  0
  5 15  1  0  0  0  0
  5 16  1  0  0  0  0
  6 17  1  6  0  0  0
  6  7  1  0  0  0  0
  6  5  1  0  0  0  0
  7 19  1  0  0  0  0
  8  7  1  0  0  0  0
  9  8  2  0  0  0  0
 11  2  1  0  0  0  0
 13  4  1  0  0  0  0
 18  7  1  0  0  0  0
M TOR 0 0 1 2 3
M TOR 1 0 1 2 5
M TOR 2 0 1 2 7
M TOR 3 1 2 3 4
M TOR 4 1 2 3 12
M TOR 5 1 2 3 13
M TOR 6 1 2 5 4
M TOR 7 1 2 5 6
M TOR 8 1 2 5 16
M TOR 9 1 2 7 6
M TOR 10 1 2 7 8
M TOR 11 2 1 0 9
M TOR 12 2 3 4 5
M TOR 13 2 3 4 14
M TOR 14 2 3 4 15
M TOR 15 2 5 4 14
M TOR 16 2 5 4 15
M TOR 17 2 5 6 7
M TOR 18 2 5 6 17
M TOR 19 2 5 6 18
M TOR 20 2 7 6 17
M TOR 21 2 7 6 18
M TOR 22 3 2 1 10
M TOR 23 3 2 1 11
M TOR 24 3 2 5 6
M TOR 25 3 2 5 16
M TOR 26 3 2 7 6
M TOR 27 3 2 7 8
M TOR 28 3 4 5 6
M TOR 29 3 4 5 16
M TOR 30 4 3 2 7
M TOR 31 4 5 2 7
M TOR 32 4 5 6 7
M TOR 33 4 5 6 17
M TOR 34 4 5 6 18
M TOR 35 5 2 1 10
M TOR 36 5 2 1 11
M TOR 37 5 2 3 12
M TOR 38 5 2 3 13
M TOR 39 5 2 7 8
M TOR 40 5 4 3 12
M TOR 41 5 4 3 13
M TOR 42 5 6 7 8
M TOR 43 6 5 4 14
M TOR 44 6 5 4 15
M TOR 45 7 2 1 10
M TOR 46 7 2 1 11
M TOR 47 7 2 3 12
M TOR 48 7 2 3 13
M TOR 49 7 2 5 16
M TOR 50 7 6 5 16
M TOR 51 8 7 6 17
M TOR 52 8 7 6 18
M  END
$$$$
