gdb 3900	3.8378221	0.9452956	0.8583852	3.3384	76.79	-0.23692	-0.02227	0.21464999999999998	1384.6373	0.154297	-422.528703	-422.519489	-422.518544	-422.563714	33.215
 OpenBabel02181911413D

 19 20  0  0  1  0  0  0  0  0999 V2000
   -3.9868    2.7320   -1.6588 C   0  0  0  0  0  0  0  0  0  0  0  0
   -2.8033    3.0947   -0.7866 C   0  0  1  0  0  0  0  0  0  0  0  0
   -2.2811    1.9191   -0.0856 O   0  0  0  0  0  0  0  0  0  0  0  0
   -1.0467    2.0192   -0.8083 C   0  0  2  0  0  0  0  0  0  0  0  0
   -0.3989    0.7381   -1.2469 C   0  0  0  0  0  0  0  0  0  0  0  0
    0.1482   -0.0508   -0.0680 C   0  0  0  0  0  0  0  0  0  0  0  0
    1.2407   -0.5552   -0.0398 O   0  0  0  0  0  0  0  0  0  0  0  0
   -0.3544    3.3080   -0.4774 C   0  0  0  0  0  0  0  0  0  0  0  0
   -1.4694    3.2914   -1.5064 C   0  0  2  0  0  0  0  0  0  0  0  0
   -4.8068    2.3500   -1.0436 H   0  0  0  0  0  0  0  0  0  0  0  0
   -4.3447    3.6150   -2.1999 H   0  0  0  0  0  0  0  0  0  0  0  0
   -3.7133    1.9636   -2.3880 H   0  0  0  0  0  0  0  0  0  0  0  0
   -3.0724    3.8801   -0.0684 H   0  0  0  0  0  0  0  0  0  0  0  0
   -1.1513    0.1114   -1.7465 H   0  0  0  0  0  0  0  0  0  0  0  0
    0.4170    0.9272   -1.9496 H   0  0  0  0  0  0  0  0  0  0  0  0
   -0.5529   -0.1392    0.7905 H   0  0  0  0  0  0  0  0  0  0  0  0
   -0.5098    3.7693    0.4943 H   0  0  0  0  0  0  0  0  0  0  0  0
    0.6429    3.4262   -0.8903 H   0  0  0  0  0  0  0  0  0  0  0  0
   -1.3445    3.6145   -2.5318 H   0  0  0  0  0  0  0  0  0  0  0  0
  1 10  1  0  0  0  0
  1  2  1  0  0  0  0
  2  3  1  0  0  0  0
  2 13  1  1  0  0  0
  4  5  1  6  0  0  0
  4  8  1  0  0  0  0
  4  3  1  0  0  0  0
  5  6  1  0  0  0  0
  6  7  2  0  0  0  0
  6 16  1  0  0  0  0
  8 17  1  0  0  0  0
  9 19  1  6  0  0  0
  9  4  1  0  0  0  0
  9  2  1  0  0  0  0
  9  8  1  0  0  0  0
 11  1  1  0  0  0  0
 12  1  1  0  0  0  0
 14  5  1  0  0  0  0
 15  5  1  0  0  0  0
 18  8  1  0  0  0  0
M TOR 0 0 1 2 3
M TOR 1 0 1 8 3
M TOR 2 0 1 8 7
M TOR 3 0 1 8 18
M TOR 4 1 2 3 4
M TOR 5 1 2 3 7
M TOR 6 1 2 3 8
M TOR 7 1 8 3 4
M TOR 8 1 8 3 7
M TOR 9 1 8 7 16
M TOR 10 1 8 7 17
M TOR 11 2 1 0 9
M TOR 12 2 1 0 10
M TOR 13 2 1 0 11
M TOR 14 2 1 8 7
M TOR 15 2 1 8 18
M TOR 16 2 3 4 5
M TOR 17 2 3 4 13
M TOR 18 2 3 4 14
M TOR 19 2 3 7 8
M TOR 20 2 3 7 16
M TOR 21 2 3 7 17
M TOR 22 2 3 8 18
M TOR 23 3 2 1 12
M TOR 24 3 4 5 6
M TOR 25 3 4 5 15
M TOR 26 3 7 8 18
M TOR 27 3 8 1 12
M TOR 28 3 8 7 16
M TOR 29 3 8 7 17
M TOR 30 4 3 7 8
M TOR 31 4 3 7 16
M TOR 32 4 3 7 17
M TOR 33 4 3 8 18
M TOR 34 5 4 3 7
M TOR 35 5 4 3 8
M TOR 36 6 5 4 13
M TOR 37 6 5 4 14
M TOR 38 7 3 4 13
M TOR 39 7 3 4 14
M TOR 40 7 8 1 12
M TOR 41 8 1 0 9
M TOR 42 8 1 0 10
M TOR 43 8 1 0 11
M TOR 44 8 3 4 13
M TOR 45 8 3 4 14
M  END
$$$$
