gdb 1358	2.8510165	1.0080833	0.8656018	3.0048	76.65	-0.23734	0.04203	0.27937	1372.4147	0.155076	-422.498663	-422.48899	-422.488046	-422.533888	34.653
 OpenBabel02181911403D

 19 19  0  0  1  0  0  0  0  0999 V2000
    4.5248    1.3548    0.6099 O   0  0  0  0  0  0  0  0  0  0  0  0
    3.1067    1.3432    0.6805 C   0  0  2  0  0  0  0  0  0  0  0  0
    2.5615   -0.0061    0.1455 C   0  0  0  0  0  0  0  0  0  0  0  0
    1.1205   -0.1517    0.2966 C   0  0  0  0  0  0  0  0  0  0  0  0
   -0.0689   -0.2448    0.4450 C   0  0  0  0  0  0  0  0  0  0  0  0
    2.5930    2.5309   -0.1192 C   0  0  0  0  0  0  0  0  0  0  0  0
    3.1932    2.7856   -1.5230 C   0  0  0  0  0  0  0  0  0  0  0  0
    3.5996    4.1181   -1.1527 O   0  0  0  0  0  0  0  0  0  0  0  0
    3.1744    3.9234    0.2108 C   0  0  0  0  0  0  0  0  0  0  0  0
    4.8689    0.7044    1.2296 H   0  0  0  0  0  0  0  0  0  0  0  0
    2.7712    1.4573    1.7236 H   0  0  0  0  0  0  0  0  0  0  0  0
    2.8501   -0.1058   -0.9083 H   0  0  0  0  0  0  0  0  0  0  0  0
    3.0683   -0.8204    0.6804 H   0  0  0  0  0  0  0  0  0  0  0  0
   -1.1197   -0.3382    0.5658 H   0  0  0  0  0  0  0  0  0  0  0  0
    1.5019    2.5073   -0.1162 H   0  0  0  0  0  0  0  0  0  0  0  0
    4.0526    2.1531   -1.7747 H   0  0  0  0  0  0  0  0  0  0  0  0
    2.4846    2.7901   -2.3597 H   0  0  0  0  0  0  0  0  0  0  0  0
    4.0230    3.9058    0.9051 H   0  0  0  0  0  0  0  0  0  0  0  0
    2.4553    4.6873    0.5302 H   0  0  0  0  0  0  0  0  0  0  0  0
  1  2  1  0  0  0  0
  1 10  1  0  0  0  0
  2 11  1  1  0  0  0
  3  4  1  0  0  0  0
  3 13  1  0  0  0  0
  3  2  1  0  0  0  0
  4  5  3  0  0  0  0
  5 14  1  0  0  0  0
  6 15  1  0  0  0  0
  6  9  1  0  0  0  0
  6  2  1  0  0  0  0
  7  8  1  0  0  0  0
  7  6  1  0  0  0  0
  8  9  1  0  0  0  0
  9 19  1  0  0  0  0
  9 18  1  0  0  0  0
 12  3  1  0  0  0  0
 16  7  1  0  0  0  0
 17  7  1  0  0  0  0
M TOR 0 0 1 2 3
M TOR 1 0 1 2 11
M TOR 2 0 1 2 12
M TOR 3 0 1 5 6
M TOR 4 0 1 5 8
M TOR 5 0 1 5 14
M TOR 6 1 2 3 4
M TOR 7 1 5 6 7
M TOR 8 1 5 6 15
M TOR 9 1 5 6 16
M TOR 10 1 5 8 7
M TOR 11 1 5 8 17
M TOR 12 1 5 8 18
M TOR 13 2 1 0 9
M TOR 14 2 1 5 6
M TOR 15 2 1 5 8
M TOR 16 2 1 5 14
M TOR 17 2 3 4 13
M TOR 18 3 2 1 5
M TOR 19 3 2 1 10
M TOR 20 4 3 2 11
M TOR 21 4 3 2 12
M TOR 22 5 1 0 9
M TOR 23 5 1 2 11
M TOR 24 5 1 2 12
M TOR 25 5 6 7 8
M TOR 26 6 5 1 10
M TOR 27 6 5 8 17
M TOR 28 6 5 8 18
M TOR 29 6 7 8 17
M TOR 30 6 7 8 18
M TOR 31 7 6 5 14
M TOR 32 7 8 5 14
M TOR 33 8 5 1 10
M TOR 34 8 5 6 15
M TOR 35 8 5 6 16
M TOR 36 8 7 6 15
M TOR 37 8 7 6 16
M  END
$$$$
