gdb 5999	3.4093849	0.9869531	0.8165514	4.2783	79.14	-0.26617	-0.03616	0.23001000000000002	1441.2802	0.157078	-422.611612	-422.602597	-422.601653	-422.646146	32.306
 OpenBabel02181911423D

 19 19  0  0  0  0  0  0  0  0999 V2000
    2.1449   -0.4826   -1.6799 C   0  0  0  0  0  0  0  0  0  0  0  0
    1.5645    0.0625   -0.3735 C   0  0  0  0  0  0  0  0  0  0  0  0
    2.1982    1.4081    0.0340 C   0  0  0  0  0  0  0  0  0  0  0  0
    1.6100    1.9703    1.2879 C   0  0  0  0  0  0  0  0  0  0  0  0
    2.1217    2.1250    2.5107 C   0  0  0  0  0  0  0  0  0  0  0  0
    1.0940    2.7398    3.4125 C   0  0  0  0  0  0  0  0  0  0  0  0
   -0.0571    2.9256    2.5917 O   0  0  0  0  0  0  0  0  0  0  0  0
    0.2101    2.4840    1.3212 C   0  0  0  0  0  0  0  0  0  0  0  0
   -0.5974    2.5381    0.4349 O   0  0  0  0  0  0  0  0  0  0  0  0
    1.6848   -1.4387   -1.9472 H   0  0  0  0  0  0  0  0  0  0  0  0
    1.9729    0.2128   -2.5086 H   0  0  0  0  0  0  0  0  0  0  0  0
    3.2261   -0.6434   -1.6007 H   0  0  0  0  0  0  0  0  0  0  0  0
    0.4836    0.2032   -0.4733 H   0  0  0  0  0  0  0  0  0  0  0  0
    1.7165   -0.6633    0.4350 H   0  0  0  0  0  0  0  0  0  0  0  0
    3.2812    1.2901    0.1534 H   0  0  0  0  0  0  0  0  0  0  0  0
    2.0378    2.1274   -0.7790 H   0  0  0  0  0  0  0  0  0  0  0  0
    3.1184    1.8666    2.8458 H   0  0  0  0  0  0  0  0  0  0  0  0
    0.8286    2.0954    4.2606 H   0  0  0  0  0  0  0  0  0  0  0  0
    1.4067    3.7119    3.8150 H   0  0  0  0  0  0  0  0  0  0  0  0
  1 12  1  0  0  0  0
  1  2  1  0  0  0  0
  2  3  1  0  0  0  0
  2 14  1  0  0  0  0
  3 15  1  0  0  0  0
  3  4  1  0  0  0  0
  4  8  1  0  0  0  0
  4  5  2  0  0  0  0
  5 17  1  0  0  0  0
  5  6  1  0  0  0  0
  6 19  1  0  0  0  0
  6 18  1  0  0  0  0
  7  6  1  0  0  0  0
  8  7  1  0  0  0  0
  9  8  2  0  0  0  0
 10  1  1  0  0  0  0
 11  1  1  0  0  0  0
 13  2  1  0  0  0  0
 16  3  1  0  0  0  0
M TOR 0 0 1 2 3
M TOR 1 0 1 2 14
M TOR 2 0 1 2 15
M TOR 3 1 2 3 4
M TOR 4 1 2 3 7
M TOR 5 2 1 0 9
M TOR 6 2 1 0 10
M TOR 7 2 1 0 11
M TOR 8 2 3 4 5
M TOR 9 2 3 4 16
M TOR 10 2 3 7 6
M TOR 11 2 3 7 8
M TOR 12 3 2 1 12
M TOR 13 3 2 1 13
M TOR 14 3 4 5 6
M TOR 15 3 4 5 17
M TOR 16 3 4 5 18
M TOR 17 3 7 6 5
M TOR 18 4 3 2 14
M TOR 19 4 3 2 15
M TOR 20 4 3 7 6
M TOR 21 4 3 7 8
M TOR 22 4 5 6 7
M TOR 23 5 4 3 7
M TOR 24 5 6 7 8
M TOR 25 6 5 4 16
M TOR 26 7 3 2 14
M TOR 27 7 3 2 15
M TOR 28 7 3 4 16
M TOR 29 7 6 5 17
M TOR 30 7 6 5 18
M  END
$$$$
