
     RDKit          3D

 19 21  0  0  0  0  0  0  0  0999 V2000
    1.4186    1.0645    0.0741 C   0  0  0  0  0  0  0  0  0  0  0  0
    1.0819   -0.4192    0.0022 C   0  0  0  0  0  0  0  0  0  0  0  0
    1.8627   -1.2091   -1.0969 C   0  0  0  0  0  0  0  0  0  0  0  0
    1.3253   -2.6634   -0.9864 C   0  0  0  0  0  0  0  0  0  0  0  0
    2.0039   -2.6984    0.3795 C   0  0  0  0  0  0  0  0  0  0  0  0
    1.8606   -1.2715    1.0031 C   0  0  0  0  0  0  0  0  0  0  0  0
    2.0215   -1.0461    2.3547 O   0  0  0  0  0  0  0  0  0  0  0  0
    2.9519   -1.5818    0.0178 C   0  0  0  0  0  0  0  0  0  0  0  0
    4.3185   -1.5666    0.0652 O   0  0  0  0  0  0  0  0  0  0  0  0
    1.0550    1.5067    1.0071 H   0  0  0  0  0  0  0  0  0  0  0  0
    2.5027    1.2251    0.0362 H   0  0  0  0  0  0  0  0  0  0  0  0
    0.9692    1.6130   -0.7604 H   0  0  0  0  0  0  0  0  0  0  0  0
   -0.0069   -0.5650   -0.0227 H   0  0  0  0  0  0  0  0  0  0  0  0
    2.0583   -0.7426   -2.0607 H   0  0  0  0  0  0  0  0  0  0  0  0
    0.2383   -2.7938   -1.0410 H   0  0  0  0  0  0  0  0  0  0  0  0
    1.8115   -3.3400   -1.6948 H   0  0  0  0  0  0  0  0  0  0  0  0
    2.2130   -3.5369    1.0327 H   0  0  0  0  0  0  0  0  0  0  0  0
    1.2963   -1.4691    2.8277 H   0  0  0  0  0  0  0  0  0  0  0  0
    4.6082   -0.6850    0.3257 H   0  0  0  0  0  0  0  0  0  0  0  0
  1  2  1  0
  2  3  1  0
  3  4  1  0
  4  5  1  0
  5  6  1  0
  6  7  1  0
  6  8  1  0
  8  9  1  0
  6  2  1  0
  8  3  1  0
  8  5  1  0
  1 10  1  0
  1 11  1  0
  1 12  1  0
  2 13  1  0
  3 14  1  0
  4 15  1  0
  4 16  1  0
  5 17  1  0
  7 18  1  0
  9 19  1  0
M  END
$$$$
