gdb 5141	3.055701	1.4458809	1.154751	0.3071	73.95	-0.25836	0.07491	0.33326999999999996	1113.6536	0.156895	-422.537717	-422.529586	-422.528641	-422.570443	31.061
 OpenBabel02181911423D

 19 21  0  0  1  0  0  0  0  0999 V2000
    1.1258   -0.2293    1.0432 C   0  0  0  0  0  0  0  0  0  0  0  0
    0.8771    0.2171   -0.4036 C   0  0  0  0  0  0  0  0  0  0  0  0
    1.8109   -0.4382   -1.3868 C   0  0  1  0  0  0  0  0  0  0  0  0
    1.5856   -1.8337   -1.6736 O   0  0  0  0  0  0  0  0  0  0  0  0
    1.4518   -0.8828   -2.7427 C   0  0  2  0  0  0  0  0  0  0  0  0
    2.6513   -0.8430   -3.6808 C   0  0  0  0  0  0  0  0  0  0  0  0
    3.7765   -0.3415   -2.7841 C   0  0  1  0  0  0  0  0  0  0  0  0
    3.5749    0.9933   -2.2949 O   0  0  0  0  0  0  0  0  0  0  0  0
    3.2855   -0.1096   -1.4214 C   0  0  1  0  0  0  0  0  0  0  0  0
    1.0199   -1.3144    1.1349 H   0  0  0  0  0  0  0  0  0  0  0  0
    2.1311    0.0420    1.3821 H   0  0  0  0  0  0  0  0  0  0  0  0
    0.4104    0.2417    1.7232 H   0  0  0  0  0  0  0  0  0  0  0  0
   -0.1528   -0.0207   -0.6907 H   0  0  0  0  0  0  0  0  0  0  0  0
    0.9933    1.3044   -0.4916 H   0  0  0  0  0  0  0  0  0  0  0  0
    0.4431   -0.7667   -3.1310 H   0  0  0  0  0  0  0  0  0  0  0  0
    2.8730   -1.8379   -4.0810 H   0  0  0  0  0  0  0  0  0  0  0  0
    2.4817   -0.1643   -4.5232 H   0  0  0  0  0  0  0  0  0  0  0  0
    4.8101   -0.6056   -2.9895 H   0  0  0  0  0  0  0  0  0  0  0  0
    3.9115   -0.1925   -0.5369 H   0  0  0  0  0  0  0  0  0  0  0  0
  1 10  1  0  0  0  0
  1 11  1  0  0  0  0
  1 12  1  0  0  0  0
  2  1  1  0  0  0  0
  3  2  1  1  0  0  0
  4  3  1  0  0  0  0
  5 15  1  6  0  0  0
  5  4  1  0  0  0  0
  5  3  1  0  0  0  0
  6  7  1  0  0  0  0
  6  5  1  0  0  0  0
  7 18  1  6  0  0  0
  7  8  1  0  0  0  0
  7  9  1  0  0  0  0
  8  9  1  0  0  0  0
  9  3  1  0  0  0  0
  9 19  1  1  0  0  0
 13  2  1  0  0  0  0
 14  2  1  0  0  0  0
 16  6  1  0  0  0  0
 17  6  1  0  0  0  0
M TOR 0 0 1 2 3
M TOR 1 0 1 2 4
M TOR 2 0 1 2 8
M TOR 3 1 2 3 4
M TOR 4 1 2 4 5
M TOR 5 1 2 4 14
M TOR 6 1 2 8 6
M TOR 7 1 2 8 7
M TOR 8 1 2 8 18
M TOR 9 2 1 0 9
M TOR 10 2 1 0 10
M TOR 11 2 1 0 11
M TOR 12 2 3 4 5
M TOR 13 2 3 4 14
M TOR 14 2 4 5 6
M TOR 15 2 4 5 15
M TOR 16 2 4 5 16
M TOR 17 2 8 6 5
M TOR 18 2 8 6 7
M TOR 19 2 8 6 17
M TOR 20 3 2 1 12
M TOR 21 3 2 1 13
M TOR 22 3 2 8 6
M TOR 23 3 2 8 7
M TOR 24 3 2 8 18
M TOR 25 3 4 2 8
M TOR 26 3 4 5 6
M TOR 27 3 4 5 15
M TOR 28 3 4 5 16
M TOR 29 4 2 1 12
M TOR 30 4 2 1 13
M TOR 31 4 2 8 6
M TOR 32 4 2 8 7
M TOR 33 4 2 8 18
M TOR 34 4 5 6 7
M TOR 35 4 5 6 8
M TOR 36 4 5 6 17
M TOR 37 5 4 2 8
M TOR 38 5 6 7 8
M TOR 39 5 6 8 18
M TOR 40 6 5 4 14
M TOR 41 6 7 8 18
M TOR 42 7 6 5 15
M TOR 43 7 6 5 16
M TOR 44 7 8 6 17
M TOR 45 8 2 1 12
M TOR 46 8 2 1 13
M TOR 47 8 2 4 14
M TOR 48 8 6 5 15
M TOR 49 8 6 5 16
M  END
$$$$
