
     RDKit          3D

 19 21  0  0  0  0  0  0  0  0999 V2000
    0.4038    0.6217    0.0507 C   0  0  0  0  0  0  0  0  0  0  0  0
    0.9272   -0.7366   -0.3719 C   0  0  0  0  0  0  0  0  0  0  0  0
    2.2663   -0.6322   -0.9472 O   0  0  0  0  0  0  0  0  0  0  0  0
    2.8108   -1.5391    0.0144 C   0  0  0  0  0  0  0  0  0  0  0  0
    2.7845   -3.0490   -0.3748 C   0  0  0  0  0  0  0  0  0  0  0  0
    1.5901   -3.2825   -1.1240 O   0  0  0  0  0  0  0  0  0  0  0  0
    1.4779   -3.2139    0.2946 C   0  0  0  0  0  0  0  0  0  0  0  0
    1.4469   -1.7160    0.7277 C   0  0  0  0  0  0  0  0  0  0  0  0
    1.2232   -1.4645    2.2004 C   0  0  0  0  0  0  0  0  0  0  0  0
    1.0789    1.1143    0.7560 H   0  0  0  0  0  0  0  0  0  0  0  0
    0.3064    1.2667   -0.8281 H   0  0  0  0  0  0  0  0  0  0  0  0
   -0.5845    0.5288    0.5145 H   0  0  0  0  0  0  0  0  0  0  0  0
    0.2471   -1.2106   -1.0871 H   0  0  0  0  0  0  0  0  0  0  0  0
    3.7210   -1.1836    0.5063 H   0  0  0  0  0  0  0  0  0  0  0  0
    3.6066   -3.7391   -0.5305 H   0  0  0  0  0  0  0  0  0  0  0  0
    1.0384   -4.0649    0.8048 H   0  0  0  0  0  0  0  0  0  0  0  0
    1.8459   -2.1335    2.8054 H   0  0  0  0  0  0  0  0  0  0  0  0
    1.4705   -0.4376    2.4827 H   0  0  0  0  0  0  0  0  0  0  0  0
    0.1789   -1.6487    2.4794 H   0  0  0  0  0  0  0  0  0  0  0  0
  1  2  1  0
  2  3  1  0
  3  4  1  0
  4  5  1  0
  5  6  1  0
  6  7  1  0
  7  8  1  0
  8  9  1  0
  8  2  1  0
  8  4  1  0
  7  5  1  0
  1 10  1  0
  1 11  1  0
  1 12  1  0
  2 13  1  0
  4 14  1  0
  5 15  1  0
  7 16  1  0
  9 17  1  0
  9 18  1  0
  9 19  1  0
M  END
$$$$
