
     RDKit          3D

 19 20  0  0  0  0  0  0  0  0999 V2000
    1.6736    0.5424   -0.2269 O   0  0  0  0  0  0  0  0  0  0  0  0
    0.5039    0.1458    0.4783 C   0  0  0  0  0  0  0  0  0  0  0  0
   -0.4967    1.2610    0.6615 C   0  0  0  0  0  0  0  0  0  0  0  0
   -1.9790    0.9940    0.5612 C   0  0  0  0  0  0  0  0  0  0  0  0
   -2.8078    1.7004    1.4386 O   0  0  0  0  0  0  0  0  0  0  0  0
   -3.5781    2.7399    0.8445 C   0  0  0  0  0  0  0  0  0  0  0  0
   -2.7709    3.6381   -0.0586 C   0  0  0  0  0  0  0  0  0  0  0  0
   -1.6889    3.1780   -0.6842 C   0  0  0  0  0  0  0  0  0  0  0  0
   -1.2955    1.7556   -0.5391 C   0  0  0  0  0  0  0  0  0  0  0  0
    2.0852    1.2574    0.2689 H   0  0  0  0  0  0  0  0  0  0  0  0
    0.0623   -0.6561   -0.1239 H   0  0  0  0  0  0  0  0  0  0  0  0
    0.7593   -0.2900    1.4572 H   0  0  0  0  0  0  0  0  0  0  0  0
   -0.2398    2.0216    1.3950 H   0  0  0  0  0  0  0  0  0  0  0  0
   -2.3099   -0.0270    0.3752 H   0  0  0  0  0  0  0  0  0  0  0  0
   -4.4358    2.3190    0.2913 H   0  0  0  0  0  0  0  0  0  0  0  0
   -3.9908    3.3082    1.6843 H   0  0  0  0  0  0  0  0  0  0  0  0
   -3.1074    4.6638   -0.1760 H   0  0  0  0  0  0  0  0  0  0  0  0
   -1.0882    3.8179   -1.3246 H   0  0  0  0  0  0  0  0  0  0  0  0
   -1.1029    1.2224   -1.4668 H   0  0  0  0  0  0  0  0  0  0  0  0
  1  2  1  0
  2  3  1  0
  3  4  1  0
  4  5  1  0
  5  6  1  0
  6  7  1  0
  7  8  2  0
  8  9  1  0
  9  3  1  0
  9  4  1  0
  1 10  1  0
  2 11  1  0
  2 12  1  0
  3 13  1  0
  4 14  1  0
  6 15  1  0
  6 16  1  0
  7 17  1  0
  8 18  1  0
  9 19  1  0
M  END
$$$$
