
     RDKit          3D

 19 20  0  0  0  0  0  0  0  0999 V2000
    3.2621    2.8487   -3.1910 C   0  0  0  0  0  0  0  0  0  0  0  0
    2.0817    2.6827   -2.2783 C   0  0  0  0  0  0  0  0  0  0  0  0
    1.4407    3.8384   -1.5503 C   0  0  0  0  0  0  0  0  0  0  0  0
    2.1134    2.7133   -0.7741 C   0  0  0  0  0  0  0  0  0  0  0  0
    1.2131    1.5769   -0.3005 C   0  0  0  0  0  0  0  0  0  0  0  0
    0.4298    1.2250   -1.5993 C   0  0  0  0  0  0  0  0  0  0  0  0
    1.2272    1.6401   -2.6992 O   0  0  0  0  0  0  0  0  0  0  0  0
    2.0518    0.4012    0.1557 C   0  0  0  0  0  0  0  0  0  0  0  0
    2.0057   -0.0926    1.2524 O   0  0  0  0  0  0  0  0  0  0  0  0
    3.9282    3.6316   -2.8187 H   0  0  0  0  0  0  0  0  0  0  0  0
    3.8273    1.9144   -3.2651 H   0  0  0  0  0  0  0  0  0  0  0  0
    2.9350    3.1292   -4.1972 H   0  0  0  0  0  0  0  0  0  0  0  0
    1.9609    4.7901   -1.5721 H   0  0  0  0  0  0  0  0  0  0  0  0
    0.3596    3.9243   -1.5276 H   0  0  0  0  0  0  0  0  0  0  0  0
    3.0229    2.9239   -0.2224 H   0  0  0  0  0  0  0  0  0  0  0  0
    0.5396    1.8531    0.5153 H   0  0  0  0  0  0  0  0  0  0  0  0
    0.2331    0.1537   -1.7118 H   0  0  0  0  0  0  0  0  0  0  0  0
   -0.5379    1.7435   -1.5970 H   0  0  0  0  0  0  0  0  0  0  0  0
    2.7378    0.0035   -0.6288 H   0  0  0  0  0  0  0  0  0  0  0  0
  1  2  1  0
  2  3  1  0
  3  4  1  0
  4  5  1  0
  5  6  1  0
  6  7  1  0
  5  8  1  0
  8  9  2  0
  4  2  1  0
  7  2  1  0
  1 10  1  0
  1 11  1  0
  1 12  1  0
  3 13  1  0
  3 14  1  0
  4 15  1  0
  5 16  1  0
  6 17  1  0
  6 18  1  0
  8 19  1  0
M  END
$$$$
