gdb 5664	3.1863745	0.9626464	0.7935791	1.262	78.39	-0.25118	0.04218	0.29336	1427.4108	0.154666	-422.511754	-422.501784	-422.50084	-422.546721	36.265
 OpenBabel02181911423D

 19 19  0  0  1  0  0  0  0  0999 V2000
    1.4246    0.7866    0.1984 O   0  0  0  0  0  0  0  0  0  0  0  0
    0.0185    0.5981    0.2555 C   0  0  0  0  0  0  0  0  0  0  0  0
   -0.5773    0.2700   -1.1111 C   0  0  2  0  0  0  0  0  0  0  0  0
   -0.7334    1.4975   -2.0552 C   0  0  0  0  0  0  0  0  0  0  0  0
   -2.2387    1.5976   -1.6398 C   0  0  1  0  0  0  0  0  0  0  0  0
   -3.2330    1.9149   -2.6418 C   0  0  0  0  0  0  0  0  0  0  0  0
   -4.0458    2.1569   -3.4948 C   0  0  0  0  0  0  0  0  0  0  0  0
   -2.1344    0.1400   -1.1123 C   0  0  2  0  0  0  0  0  0  0  0  0
   -2.8064   -0.0635    0.1068 O   0  0  0  0  0  0  0  0  0  0  0  0
    1.5987    1.5336   -0.3831 H   0  0  0  0  0  0  0  0  0  0  0  0
   -0.1426   -0.2392    0.9411 H   0  0  0  0  0  0  0  0  0  0  0  0
   -0.4847    1.4703    0.7001 H   0  0  0  0  0  0  0  0  0  0  0  0
   -0.0318   -0.5793   -1.5316 H   0  0  0  0  0  0  0  0  0  0  0  0
   -0.1215    2.3797   -1.8465 H   0  0  0  0  0  0  0  0  0  0  0  0
   -0.6232    1.2392   -3.1098 H   0  0  0  0  0  0  0  0  0  0  0  0
   -2.3447    2.2597   -0.7741 H   0  0  0  0  0  0  0  0  0  0  0  0
   -4.7694    2.3773   -4.2398 H   0  0  0  0  0  0  0  0  0  0  0  0
   -2.4697   -0.5669   -1.8811 H   0  0  0  0  0  0  0  0  0  0  0  0
   -2.8744   -1.0091    0.2702 H   0  0  0  0  0  0  0  0  0  0  0  0
  1  2  1  0  0  0  0
  2 12  1  0  0  0  0
  2 11  1  0  0  0  0
  3 13  1  6  0  0  0
  3  2  1  0  0  0  0
  4 14  1  0  0  0  0
  4  5  1  0  0  0  0
  4  3  1  0  0  0  0
  5  8  1  0  0  0  0
  5 16  1  1  0  0  0
  6  5  1  0  0  0  0
  7  6  3  0  0  0  0
  8 18  1  6  0  0  0
  8  3  1  0  0  0  0
  8  9  1  0  0  0  0
  9 19  1  0  0  0  0
 10  1  1  0  0  0  0
 15  4  1  0  0  0  0
 17  7  1  0  0  0  0
M TOR 0 0 1 2 3
M TOR 1 0 1 2 7
M TOR 2 0 1 2 12
M TOR 3 1 2 3 4
M TOR 4 1 2 3 13
M TOR 5 1 2 3 14
M TOR 6 1 2 7 4
M TOR 7 1 2 7 8
M TOR 8 1 2 7 17
M TOR 9 2 1 0 9
M TOR 10 2 3 4 5
M TOR 11 2 3 4 7
M TOR 12 2 3 4 15
M TOR 13 2 7 4 5
M TOR 14 2 7 4 15
M TOR 15 2 7 8 18
M TOR 16 3 2 1 10
M TOR 17 3 2 1 11
M TOR 18 3 2 7 8
M TOR 19 3 2 7 17
M TOR 20 3 4 5 6
M TOR 21 3 4 7 8
M TOR 22 3 4 7 17
M TOR 23 4 3 2 12
M TOR 24 4 5 6 16
M TOR 25 4 7 2 12
M TOR 26 4 7 8 18
M TOR 27 5 4 3 13
M TOR 28 5 4 3 14
M TOR 29 5 4 7 8
M TOR 30 5 4 7 17
M TOR 31 6 5 4 7
M TOR 32 6 5 4 15
M TOR 33 7 2 1 10
M TOR 34 7 2 1 11
M TOR 35 7 2 3 13
M TOR 36 7 2 3 14
M TOR 37 7 4 3 13
M TOR 38 7 4 3 14
M TOR 39 8 7 2 12
M TOR 40 8 7 4 15
M  END
$$$$
