gdb 4792	3.1272782	0.7823007	0.6628961	1.3437	81.48	-0.24123	-0.03042	0.21081	1726.3945	0.152167	-422.523874	-422.512402	-422.511458	-422.56415	37.025
 OpenBabel02181911413D

 19 18  0  0  1  0  0  0  0  0999 V2000
   -5.2634   -0.2669   -2.5602 C   0  0  0  0  0  0  0  0  0  0  0  0
   -4.5723   -0.1732   -1.3266 O   0  0  0  0  0  0  0  0  0  0  0  0
   -3.1692   -0.3274   -1.4391 C   0  0  1  0  0  0  0  0  0  0  0  0
   -2.5681    0.1846   -0.1190 C   0  0  0  0  0  0  0  0  0  0  0  0
   -1.1145    0.0903   -0.0858 C   0  0  0  0  0  0  0  0  0  0  0  0
    0.0854   -0.0057   -0.0874 C   0  0  0  0  0  0  0  0  0  0  0  0
    1.5365   -0.1203   -0.0844 C   0  0  0  0  0  0  0  0  0  0  0  0
   -2.8534   -1.8097   -1.6434 C   0  0  0  0  0  0  0  0  0  0  0  0
   -2.2649   -2.2682   -2.5856 O   0  0  0  0  0  0  0  0  0  0  0  0
   -5.1304   -1.2461   -3.0404 H   0  0  0  0  0  0  0  0  0  0  0  0
   -6.3230   -0.1212   -2.3399 H   0  0  0  0  0  0  0  0  0  0  0  0
   -4.9313    0.5104   -3.2635 H   0  0  0  0  0  0  0  0  0  0  0  0
   -2.7661    0.2353   -2.2926 H   0  0  0  0  0  0  0  0  0  0  0  0
   -2.9026    1.2198    0.0150 H   0  0  0  0  0  0  0  0  0  0  0  0
   -3.0141   -0.3906    0.7031 H   0  0  0  0  0  0  0  0  0  0  0  0
    1.8958   -0.6035    0.8308 H   0  0  0  0  0  0  0  0  0  0  0  0
    1.8860   -0.7171   -0.9339 H   0  0  0  0  0  0  0  0  0  0  0  0
    2.0141    0.8633   -0.1504 H   0  0  0  0  0  0  0  0  0  0  0  0
   -3.2699   -2.4558   -0.8352 H   0  0  0  0  0  0  0  0  0  0  0  0
  1 11  1  0  0  0  0
  1  2  1  0  0  0  0
  3 13  1  6  0  0  0
  3  2  1  0  0  0  0
  3  4  1  0  0  0  0
  4  5  1  0  0  0  0
  4 14  1  0  0  0  0
  4 15  1  0  0  0  0
  6  5  3  0  0  0  0
  6  7  1  0  0  0  0
  7 16  1  0  0  0  0
  8  3  1  0  0  0  0
  8 19  1  0  0  0  0
  9  8  2  0  0  0  0
 10  1  1  0  0  0  0
 12  1  1  0  0  0  0
 17  7  1  0  0  0  0
 18  7  1  0  0  0  0
M TOR 0 0 1 2 3
M TOR 1 0 1 2 7
M TOR 2 0 1 2 12
M TOR 3 1 2 3 4
M TOR 4 1 2 3 13
M TOR 5 1 2 3 14
M TOR 6 1 2 7 8
M TOR 7 1 2 7 18
M TOR 8 2 1 0 9
M TOR 9 2 1 0 10
M TOR 10 2 1 0 11
M TOR 11 2 3 4 5
M TOR 12 3 2 7 8
M TOR 13 3 2 7 18
M TOR 14 3 4 5 6
M TOR 15 4 3 2 7
M TOR 16 4 3 2 12
M TOR 17 4 5 6 15
M TOR 18 4 5 6 16
M TOR 19 4 5 6 17
M TOR 20 5 4 3 13
M TOR 21 5 4 3 14
M TOR 22 7 2 3 13
M TOR 23 7 2 3 14
M TOR 24 8 7 2 12
M  END
$$$$
