
     RDKit          3D

 19 20  0  0  0  0  0  0  0  0999 V2000
    1.5717    1.3378    0.3174 C   0  0  0  0  0  0  0  0  0  0  0  0
    1.1158   -0.1175    0.1565 C   0  0  0  0  0  0  0  0  0  0  0  0
    1.6572   -0.7670   -1.1080 C   0  0  0  0  0  0  0  0  0  0  0  0
    1.0658   -0.4541   -2.5100 C   0  0  0  0  0  0  0  0  0  0  0  0
    1.6296   -1.7410   -2.9913 O   0  0  0  0  0  0  0  0  0  0  0  0
    1.0832   -2.1139   -1.6457 C   0  0  0  0  0  0  0  0  0  0  0  0
    1.2522   -3.5149   -1.1601 C   0  0  0  0  0  0  0  0  0  0  0  0
   -0.1654   -1.3197   -2.1374 C   0  0  0  0  0  0  0  0  0  0  0  0
   -1.3403   -1.4110   -2.2805 O   0  0  0  0  0  0  0  0  0  0  0  0
    1.1869    1.7701    1.2455 H   0  0  0  0  0  0  0  0  0  0  0  0
    2.6643    1.4099    0.3422 H   0  0  0  0  0  0  0  0  0  0  0  0
    1.2170    1.9595   -0.5114 H   0  0  0  0  0  0  0  0  0  0  0  0
    1.4486   -0.7044    1.0219 H   0  0  0  0  0  0  0  0  0  0  0  0
    0.0194   -0.1630    0.1599 H   0  0  0  0  0  0  0  0  0  0  0  0
    2.7508   -0.7785   -1.1600 H   0  0  0  0  0  0  0  0  0  0  0  0
    1.1853    0.4160   -3.1514 H   0  0  0  0  0  0  0  0  0  0  0  0
    0.7777   -3.6275   -0.1803 H   0  0  0  0  0  0  0  0  0  0  0  0
    0.7807   -4.2187   -1.8516 H   0  0  0  0  0  0  0  0  0  0  0  0
    2.3113   -3.7717   -1.0644 H   0  0  0  0  0  0  0  0  0  0  0  0
  1  2  1  0
  2  3  1  0
  3  4  1  0
  4  5  1  0
  5  6  1  0
  6  7  1  0
  6  8  1  0
  8  9  2  0
  6  3  1  0
  8  4  1  0
  1 10  1  0
  1 11  1  0
  1 12  1  0
  2 13  1  0
  2 14  1  0
  3 15  1  0
  4 16  1  0
  7 17  1  0
  7 18  1  0
  7 19  1  0
M  END
$$$$
