
     RDKit          3D

 19 20  0  0  0  0  0  0  0  0999 V2000
    1.0543    0.9041    0.3778 O   0  0  0  0  0  0  0  0  0  0  0  0
    0.4031   -0.3137    0.6644 C   0  0  0  0  0  0  0  0  0  0  0  0
   -0.9125   -0.0841    1.4074 C   0  0  0  0  0  0  0  0  0  0  0  0
   -0.5395    0.6516    2.5804 O   0  0  0  0  0  0  0  0  0  0  0  0
   -1.5379    0.8204    3.5471 C   0  0  0  0  0  0  0  0  0  0  0  0
   -1.3862    0.0198    4.8117 C   0  0  0  0  0  0  0  0  0  0  0  0
   -2.4642   -0.3350    3.7941 C   0  0  0  0  0  0  0  0  0  0  0  0
   -2.3161   -1.4919    2.8774 C   0  0  0  0  0  0  0  0  0  0  0  0
   -1.6218   -1.3699    1.7476 C   0  0  0  0  0  0  0  0  0  0  0  0
    1.0675    1.3929    1.2096 H   0  0  0  0  0  0  0  0  0  0  0  0
    0.2024   -0.8093   -0.2915 H   0  0  0  0  0  0  0  0  0  0  0  0
    1.0347   -0.9836    1.2702 H   0  0  0  0  0  0  0  0  0  0  0  0
   -1.5557    0.5506    0.7742 H   0  0  0  0  0  0  0  0  0  0  0  0
   -1.9231    1.8364    3.6054 H   0  0  0  0  0  0  0  0  0  0  0  0
   -0.5185   -0.6276    4.8623 H   0  0  0  0  0  0  0  0  0  0  0  0
   -1.6960    0.4633    5.7517 H   0  0  0  0  0  0  0  0  0  0  0  0
   -3.4839   -0.0981    4.0858 H   0  0  0  0  0  0  0  0  0  0  0  0
   -2.8104   -2.4240    3.1374 H   0  0  0  0  0  0  0  0  0  0  0  0
   -1.5353   -2.1903    1.0405 H   0  0  0  0  0  0  0  0  0  0  0  0
  1  2  1  0
  2  3  1  0
  3  4  1  0
  4  5  1  0
  5  6  1  0
  6  7  1  0
  7  8  1  0
  8  9  2  0
  9  3  1  0
  7  5  1  0
  1 10  1  0
  2 11  1  0
  2 12  1  0
  3 13  1  0
  5 14  1  0
  6 15  1  0
  6 16  1  0
  7 17  1  0
  8 18  1  0
  9 19  1  0
M  END
$$$$
