gdb 1798	2.7503895	1.8671259	1.6417322	2.2877	73.28	-0.23998	0.07597	0.31595	909.039	0.159746	-422.510942	-422.504267	-422.503323	-422.541377	28.884
 OpenBabel02181911403D

 19 21  0  0  1  0  0  0  0  0999 V2000
    0.3870    0.4563    0.1921 O   0  0  0  0  0  0  0  0  0  0  0  0
   -0.8936    0.8271    0.6115 C   0  0  2  0  0  0  0  0  0  0  0  0
   -1.5006    2.2469    0.3723 C   0  0  0  0  0  0  0  0  0  0  0  0
   -2.4789    1.7971    1.5057 C   0  0  2  0  0  0  0  0  0  0  0  0
   -1.2465    1.0559    2.1104 C   0  0  0  0  0  0  0  0  0  0  0  0
   -3.4506    0.7341    0.8508 C   0  0  2  0  0  0  0  0  0  0  0  0
   -2.9278   -0.7073    1.0706 C   0  0  0  0  0  0  0  0  0  0  0  0
   -1.9362   -0.1970   -0.0013 C   0  0  1  0  0  0  0  0  0  0  0  0
   -3.0450    0.5800   -0.5471 O   0  0  0  0  0  0  0  0  0  0  0  0
    1.0209    1.0657    0.5847 H   0  0  0  0  0  0  0  0  0  0  0  0
   -0.8247    3.0306    0.7265 H   0  0  0  0  0  0  0  0  0  0  0  0
   -1.9023    2.4904   -0.6069 H   0  0  0  0  0  0  0  0  0  0  0  0
   -2.9959    2.5466    2.1039 H   0  0  0  0  0  0  0  0  0  0  0  0
   -0.5554    1.7700    2.5702 H   0  0  0  0  0  0  0  0  0  0  0  0
   -1.3759    0.2127    2.7868 H   0  0  0  0  0  0  0  0  0  0  0  0
   -4.5095    0.9764    0.9557 H   0  0  0  0  0  0  0  0  0  0  0  0
   -2.5931   -1.0563    2.0454 H   0  0  0  0  0  0  0  0  0  0  0  0
   -3.6168   -1.4281    0.6288 H   0  0  0  0  0  0  0  0  0  0  0  0
   -1.4663   -0.8606   -0.7280 H   0  0  0  0  0  0  0  0  0  0  0  0
  1 10  1  0  0  0  0
  2  1  1  6  0  0  0
  2  5  1  0  0  0  0
  3  2  1  0  0  0  0
  3 11  1  0  0  0  0
  3  4  1  0  0  0  0
  4 13  1  1  0  0  0
  4  5  1  0  0  0  0
  5 14  1  0  0  0  0
  5 15  1  0  0  0  0
  6 16  1  1  0  0  0
  6  7  1  0  0  0  0
  6  4  1  0  0  0  0
  7 17  1  0  0  0  0
  8 19  1  6  0  0  0
  8  2  1  0  0  0  0
  8  7  1  0  0  0  0
  9  8  1  0  0  0  0
  9  6  1  0  0  0  0
 12  3  1  0  0  0  0
 18  7  1  0  0  0  0
M TOR 0 0 1 2 3
M TOR 1 0 1 2 10
M TOR 2 0 1 2 11
M TOR 3 0 1 4 3
M TOR 4 0 1 4 13
M TOR 5 0 1 4 14
M TOR 6 0 1 7 6
M TOR 7 0 1 7 8
M TOR 8 0 1 7 18
M TOR 9 1 2 3 4
M TOR 10 1 2 3 5
M TOR 11 1 2 3 12
M TOR 12 1 4 3 5
M TOR 13 1 4 3 12
M TOR 14 1 7 6 5
M TOR 15 1 7 6 16
M TOR 16 1 7 6 17
M TOR 17 1 7 8 5
M TOR 18 2 1 0 9
M TOR 19 2 1 4 13
M TOR 20 2 1 4 14
M TOR 21 2 1 7 6
M TOR 22 2 1 7 8
M TOR 23 2 1 7 18
M TOR 24 2 3 4 13
M TOR 25 2 3 4 14
M TOR 26 2 3 5 6
M TOR 27 2 3 5 8
M TOR 28 2 3 5 15
M TOR 29 3 2 1 7
M TOR 30 3 4 1 7
M TOR 31 3 5 6 7
M TOR 32 3 5 6 16
M TOR 33 3 5 6 17
M TOR 34 3 5 8 7
M TOR 35 4 1 0 9
M TOR 36 4 1 2 10
M TOR 37 4 1 2 11
M TOR 38 4 1 7 6
M TOR 39 4 1 7 8
M TOR 40 4 1 7 18
M TOR 41 4 3 2 10
M TOR 42 4 3 2 11
M TOR 43 4 3 5 6
M TOR 44 4 3 5 8
M TOR 45 4 3 5 15
M TOR 46 5 3 2 10
M TOR 47 5 3 2 11
M TOR 48 5 3 4 13
M TOR 49 5 3 4 14
M TOR 50 5 6 7 8
M TOR 51 5 6 7 18
M TOR 52 5 8 7 18
M TOR 53 6 5 3 12
M TOR 54 7 1 0 9
M TOR 55 7 1 2 10
M TOR 56 7 1 2 11
M TOR 57 7 1 4 13
M TOR 58 7 1 4 14
M TOR 59 7 6 5 15
M TOR 60 7 8 5 15
M TOR 61 8 5 3 12
M TOR 62 8 5 6 16
M TOR 63 8 5 6 17
M TOR 64 8 7 6 16
M TOR 65 8 7 6 17
M  END
$$$$
