gdb 1825	2.6507569	1.6034964	1.2304243	2.7152	75.01	-0.243	-0.03299	0.21001	1056.0576	0.156305	-422.552278	-422.544028	-422.543084	-422.585149	31.465
 OpenBabel02181911403D

 19 20  0  0  1  0  0  0  0  0999 V2000
   -1.2716   -1.1315   -0.2240 C   0  0  0  0  0  0  0  0  0  0  0  0
   -0.2554   -1.1947   -1.3370 C   0  0  2  0  0  0  0  0  0  0  0  0
   -0.2445   -0.2335   -2.5805 C   0  0  0  0  0  0  0  0  0  0  0  0
    0.6971   -1.3314   -3.1226 C   0  0  2  0  0  0  0  0  0  0  0  0
   -0.1927   -2.3569   -2.3881 C   0  0  0  0  0  0  0  0  0  0  0  0
    1.8554   -1.2339   -2.2661 O   0  0  0  0  0  0  0  0  0  0  0  0
    1.2536   -1.1464   -0.9644 C   0  0  1  0  0  0  0  0  0  0  0  0
    1.6865    0.1224   -0.2530 C   0  0  0  0  0  0  0  0  0  0  0  0
    1.4242    0.3585    0.8990 O   0  0  0  0  0  0  0  0  0  0  0  0
   -1.1622   -1.9856    0.4537 H   0  0  0  0  0  0  0  0  0  0  0  0
   -1.1532   -0.2231    0.3734 H   0  0  0  0  0  0  0  0  0  0  0  0
   -2.2890   -1.1499   -0.6272 H   0  0  0  0  0  0  0  0  0  0  0  0
   -1.2133   -0.2088   -3.0828 H   0  0  0  0  0  0  0  0  0  0  0  0
    0.1588    0.7762   -2.4728 H   0  0  0  0  0  0  0  0  0  0  0  0
    1.0170   -1.4166   -4.1590 H   0  0  0  0  0  0  0  0  0  0  0  0
   -1.1578   -2.5247   -2.8704 H   0  0  0  0  0  0  0  0  0  0  0  0
    0.2690   -3.3025   -2.0930 H   0  0  0  0  0  0  0  0  0  0  0  0
    1.5391   -2.0043   -0.3408 H   0  0  0  0  0  0  0  0  0  0  0  0
    2.2673    0.8276   -0.8877 H   0  0  0  0  0  0  0  0  0  0  0  0
  1 11  1  0  0  0  0
  1 10  1  0  0  0  0
  2  7  1  0  0  0  0
  2  1  1  1  0  0  0
  3 14  1  0  0  0  0
  3  2  1  0  0  0  0
  4 15  1  6  0  0  0
  4  3  1  0  0  0  0
  4  5  1  0  0  0  0
  4  6  1  0  0  0  0
  5 17  1  0  0  0  0
  5  2  1  0  0  0  0
  6  7  1  0  0  0  0
  7 18  1  1  0  0  0
  7  8  1  0  0  0  0
  8  9  2  0  0  0  0
 12  1  1  0  0  0  0
 13  3  1  0  0  0  0
 16  5  1  0  0  0  0
 19  8  1  0  0  0  0
M TOR 0 0 1 2 3
M TOR 1 0 1 2 12
M TOR 2 0 1 2 13
M TOR 3 0 1 4 3
M TOR 4 0 1 4 15
M TOR 5 0 1 4 16
M TOR 6 0 1 6 5
M TOR 7 0 1 6 7
M TOR 8 0 1 6 17
M TOR 9 1 2 3 4
M TOR 10 1 2 3 5
M TOR 11 1 2 3 14
M TOR 12 1 4 3 5
M TOR 13 1 4 3 14
M TOR 14 1 6 5 3
M TOR 15 1 6 7 8
M TOR 16 1 6 7 18
M TOR 17 2 1 0 9
M TOR 18 2 1 0 10
M TOR 19 2 1 0 11
M TOR 20 2 1 4 15
M TOR 21 2 1 4 16
M TOR 22 2 1 6 5
M TOR 23 2 1 6 7
M TOR 24 2 1 6 17
M TOR 25 2 3 4 15
M TOR 26 2 3 4 16
M TOR 27 2 3 5 6
M TOR 28 3 2 1 6
M TOR 29 3 4 1 6
M TOR 30 3 5 6 7
M TOR 31 3 5 6 17
M TOR 32 4 1 0 9
M TOR 33 4 1 0 10
M TOR 34 4 1 0 11
M TOR 35 4 1 2 12
M TOR 36 4 1 2 13
M TOR 37 4 1 6 5
M TOR 38 4 1 6 7
M TOR 39 4 1 6 17
M TOR 40 4 3 2 12
M TOR 41 4 3 2 13
M TOR 42 4 3 5 6
M TOR 43 5 3 2 12
M TOR 44 5 3 2 13
M TOR 45 5 3 4 15
M TOR 46 5 3 4 16
M TOR 47 5 6 7 8
M TOR 48 5 6 7 18
M TOR 49 6 1 0 9
M TOR 50 6 1 0 10
M TOR 51 6 1 0 11
M TOR 52 6 1 2 12
M TOR 53 6 1 2 13
M TOR 54 6 1 4 15
M TOR 55 6 1 4 16
M TOR 56 6 5 3 14
M TOR 57 8 7 6 17
M  END
$$$$
