
     RDKit          3D

 19 19  0  0  0  0  0  0  0  0999 V2000
    2.6942   -1.9110   -1.4620 O   0  0  0  0  0  0  0  0  0  0  0  0
    3.0694   -0.5685   -1.2522 C   0  0  0  0  0  0  0  0  0  0  0  0
    2.6183   -0.0325    0.1288 C   0  0  0  0  0  0  0  0  0  0  0  0
    1.1661   -0.1679    0.2515 C   0  0  0  0  0  0  0  0  0  0  0  0
   -0.0290   -0.3023    0.2908 C   0  0  0  0  0  0  0  0  0  0  0  0
    3.0775    1.4023    0.3413 C   0  0  0  0  0  0  0  0  0  0  0  0
    4.4922    1.6937    0.8078 C   0  0  0  0  0  0  0  0  0  0  0  0
    3.3109    1.9475    1.7129 C   0  0  0  0  0  0  0  0  0  0  0  0
    2.8793    3.2568    1.9369 O   0  0  0  0  0  0  0  0  0  0  0  0
    1.7365   -1.9563   -1.3514 H   0  0  0  0  0  0  0  0  0  0  0  0
    4.1615   -0.5352   -1.3047 H   0  0  0  0  0  0  0  0  0  0  0  0
    2.6734    0.0961   -2.0363 H   0  0  0  0  0  0  0  0  0  0  0  0
    3.0882   -0.6729    0.8879 H   0  0  0  0  0  0  0  0  0  0  0  0
   -1.0841   -0.4033    0.3592 H   0  0  0  0  0  0  0  0  0  0  0  0
    2.6590    2.1214   -0.3567 H   0  0  0  0  0  0  0  0  0  0  0  0
    5.1481    0.8591    1.0355 H   0  0  0  0  0  0  0  0  0  0  0  0
    4.9853    2.5602    0.3815 H   0  0  0  0  0  0  0  0  0  0  0  0
    3.1671    1.2634    2.5501 H   0  0  0  0  0  0  0  0  0  0  0  0
    3.4962    3.6717    2.5491 H   0  0  0  0  0  0  0  0  0  0  0  0
  1  2  1  0
  2  3  1  0
  3  4  1  0
  4  5  3  0
  3  6  1  0
  6  7  1  0
  7  8  1  0
  8  9  1  0
  8  6  1  0
  1 10  1  0
  2 11  1  0
  2 12  1  0
  3 13  1  0
  5 14  1  0
  6 15  1  0
  7 16  1  0
  7 17  1  0
  8 18  1  0
  9 19  1  0
M  END
$$$$
