gdb 5440	3.5282252	0.9663961	0.8101972	2.6265	77.21	-0.24096	-0.01209	0.22887000000000002	1421.0414	0.155721	-422.547649	-422.538441	-422.537497	-422.58178	33.652
 OpenBabel02181911423D

 19 20  0  0  1  0  0  0  0  0999 V2000
   -0.9615   -1.9957    1.1096 C   0  0  0  0  0  0  0  0  0  0  0  0
   -1.0290   -1.0006   -0.0460 C   0  0  1  0  0  0  0  0  0  0  0  0
   -2.1717    0.0363   -0.0039 C   0  0  2  0  0  0  0  0  0  0  0  0
   -2.0235    0.9978   -1.1247 C   0  0  1  0  0  0  0  0  0  0  0  0
   -3.1026    2.0331   -1.3638 C   0  0  0  0  0  0  0  0  0  0  0  0
   -2.6264    3.1702   -2.0600 O   0  0  0  0  0  0  0  0  0  0  0  0
   -1.1612    1.2086    0.1256 C   0  0  2  0  0  0  0  0  0  0  0  0
   -0.0566    0.1990    0.1621 C   0  0  0  0  0  0  0  0  0  0  0  0
    1.1028    0.2502    0.4643 O   0  0  0  0  0  0  0  0  0  0  0  0
   -1.7436   -2.7560    1.0197 H   0  0  0  0  0  0  0  0  0  0  0  0
    0.0094   -2.4983    1.1169 H   0  0  0  0  0  0  0  0  0  0  0  0
   -1.0845   -1.4922    2.0743 H   0  0  0  0  0  0  0  0  0  0  0  0
   -0.9338   -1.5196   -1.0065 H   0  0  0  0  0  0  0  0  0  0  0  0
   -3.0876   -0.0784    0.5624 H   0  0  0  0  0  0  0  0  0  0  0  0
   -1.5312    0.6647   -2.0367 H   0  0  0  0  0  0  0  0  0  0  0  0
   -3.8871    1.6070   -1.9982 H   0  0  0  0  0  0  0  0  0  0  0  0
   -3.5713    2.3073   -0.4043 H   0  0  0  0  0  0  0  0  0  0  0  0
   -1.8980    3.5421   -1.5514 H   0  0  0  0  0  0  0  0  0  0  0  0
   -1.2188    2.1291    0.6962 H   0  0  0  0  0  0  0  0  0  0  0  0
  1 11  1  0  0  0  0
  1 12  1  0  0  0  0
  2 13  1  6  0  0  0
  2  3  1  0  0  0  0
  2  8  1  0  0  0  0
  2  1  1  0  0  0  0
  3  7  1  0  0  0  0
  3 14  1  1  0  0  0
  4 15  1  6  0  0  0
  4  3  1  0  0  0  0
  4  7  1  0  0  0  0
  5  4  1  0  0  0  0
  5 17  1  0  0  0  0
  6 18  1  0  0  0  0
  6  5  1  0  0  0  0
  7  8  1  0  0  0  0
  7 19  1  1  0  0  0
  8  9  2  0  0  0  0
 10  1  1  0  0  0  0
 16  5  1  0  0  0  0
M TOR 0 0 1 2 3
M TOR 1 0 1 2 6
M TOR 2 0 1 2 13
M TOR 3 0 1 7 6
M TOR 4 0 1 7 8
M TOR 5 1 2 3 4
M TOR 6 1 2 3 6
M TOR 7 1 2 3 14
M TOR 8 1 2 6 7
M TOR 9 1 2 6 18
M TOR 10 1 7 6 3
M TOR 11 1 7 6 18
M TOR 12 2 1 0 9
M TOR 13 2 1 0 10
M TOR 14 2 1 0 11
M TOR 15 2 1 7 8
M TOR 16 2 3 4 5
M TOR 17 2 3 4 15
M TOR 18 2 3 4 16
M TOR 19 2 3 6 7
M TOR 20 2 3 6 18
M TOR 21 2 6 3 4
M TOR 22 2 6 3 14
M TOR 23 2 6 7 8
M TOR 24 3 2 1 7
M TOR 25 3 2 1 12
M TOR 26 3 4 5 17
M TOR 27 3 6 2 13
M TOR 28 3 6 7 8
M TOR 29 4 3 2 13
M TOR 30 4 3 6 7
M TOR 31 4 3 6 18
M TOR 32 5 4 3 6
M TOR 33 5 4 3 14
M TOR 34 6 2 1 12
M TOR 35 6 3 4 15
M TOR 36 6 3 4 16
M TOR 37 6 7 1 12
M TOR 38 7 1 0 9
M TOR 39 7 1 0 10
M TOR 40 7 1 0 11
M TOR 41 7 1 2 13
M TOR 42 7 6 2 13
M TOR 43 7 6 3 14
M TOR 44 8 7 1 12
M TOR 45 8 7 6 18
M  END
$$$$
