gdb 1036	4.5525006	0.8279342	0.7323441	1.0961	81.75	-0.25414	0.04414	0.29828	1588.4891	0.156686	-422.526512	-422.517313	-422.516369	-422.562104	32.735
 OpenBabel02181911403D

 19 19  0  0  0  0  0  0  0  0999 V2000
    1.4779   -0.0078   -0.0219 C   0  0  0  0  0  0  0  0  0  0  0  0
    0.0236   -0.0302   -0.0341 C   0  0  0  0  0  0  0  0  0  0  0  0
   -1.1779   -0.0549   -0.0564 C   0  0  0  0  0  0  0  0  0  0  0  0
   -2.6357   -0.0636   -0.0419 C   0  0  0  0  0  0  0  0  0  0  0  0
   -3.0887   -1.4004   -0.0746 O   0  0  0  0  0  0  0  0  0  0  0  0
   -4.5092   -1.4635   -0.0120 C   0  0  0  0  0  0  0  0  0  0  0  0
   -5.1315   -0.6623   -1.1573 C   0  0  0  0  0  0  0  0  0  0  0  0
   -4.5337    0.7461   -1.1431 C   0  0  0  0  0  0  0  0  0  0  0  0
   -3.1118    0.6834   -1.1413 O   0  0  0  0  0  0  0  0  0  0  0  0
    1.8623    0.4017    0.9186 H   0  0  0  0  0  0  0  0  0  0  0  0
    1.8879   -1.0166   -0.1397 H   0  0  0  0  0  0  0  0  0  0  0  0
    1.8684    0.6083   -0.8390 H   0  0  0  0  0  0  0  0  0  0  0  0
   -3.0118    0.4088    0.8892 H   0  0  0  0  0  0  0  0  0  0  0  0
   -4.7714   -2.5231   -0.0605 H   0  0  0  0  0  0  0  0  0  0  0  0
   -4.8580   -1.0693    0.9583 H   0  0  0  0  0  0  0  0  0  0  0  0
   -4.8957   -1.1473   -2.1100 H   0  0  0  0  0  0  0  0  0  0  0  0
   -6.2214   -0.6204   -1.0521 H   0  0  0  0  0  0  0  0  0  0  0  0
   -4.8140    1.3216   -2.0286 H   0  0  0  0  0  0  0  0  0  0  0  0
   -4.8842    1.2966   -0.2528 H   0  0  0  0  0  0  0  0  0  0  0  0
  1 10  1  0  0  0  0
  2  1  1  0  0  0  0
  3  4  1  0  0  0  0
  3  2  3  0  0  0  0
  4 13  1  0  0  0  0
  5  4  1  0  0  0  0
  5  6  1  0  0  0  0
  6 15  1  0  0  0  0
  7  8  1  0  0  0  0
  7 17  1  0  0  0  0
  7  6  1  0  0  0  0
  8  9  1  0  0  0  0
  8 19  1  0  0  0  0
  9  4  1  0  0  0  0
 11  1  1  0  0  0  0
 12  1  1  0  0  0  0
 14  6  1  0  0  0  0
 16  7  1  0  0  0  0
 18  8  1  0  0  0  0
M TOR 0 0 1 2 3
M TOR 1 1 2 3 4
M TOR 2 1 2 3 8
M TOR 3 1 2 3 12
M TOR 4 2 1 0 9
M TOR 5 2 1 0 10
M TOR 6 2 1 0 11
M TOR 7 2 3 4 5
M TOR 8 2 3 8 7
M TOR 9 3 4 5 6
M TOR 10 3 4 5 13
M TOR 11 3 4 5 14
M TOR 12 3 8 7 6
M TOR 13 3 8 7 17
M TOR 14 3 8 7 18
M TOR 15 4 3 8 7
M TOR 16 4 5 6 7
M TOR 17 4 5 6 15
M TOR 18 4 5 6 16
M TOR 19 5 4 3 8
M TOR 20 5 4 3 12
M TOR 21 5 6 7 8
M TOR 22 5 6 7 17
M TOR 23 5 6 7 18
M TOR 24 7 6 5 13
M TOR 25 7 6 5 14
M TOR 26 7 8 3 12
M TOR 27 8 7 6 15
M TOR 28 8 7 6 16
M  END
$$$$
