
     RDKit          3D

 19 19  0  0  0  0  0  0  0  0999 V2000
    1.3744   -0.2874    0.0193 C   0  0  0  0  0  0  0  0  0  0  0  0
   -0.0646   -0.0708   -0.0112 C   0  0  0  0  0  0  0  0  0  0  0  0
   -1.2557    0.1033   -0.0470 C   0  0  0  0  0  0  0  0  0  0  0  0
   -2.7009    0.3336   -0.0775 C   0  0  0  0  0  0  0  0  0  0  0  0
   -3.0360    1.7505   -0.5552 C   0  0  0  0  0  0  0  0  0  0  0  0
   -3.3705   -0.0097    1.2945 C   0  0  0  0  0  0  0  0  0  0  0  0
   -4.5398   -0.7217    0.9324 O   0  0  0  0  0  0  0  0  0  0  0  0
   -4.1462   -1.4537   -0.2004 C   0  0  0  0  0  0  0  0  0  0  0  0
   -3.3495   -0.5917   -0.9798 O   0  0  0  0  0  0  0  0  0  0  0  0
    1.6869   -0.7737    0.9499 H   0  0  0  0  0  0  0  0  0  0  0  0
    1.6928   -0.9257   -0.8122 H   0  0  0  0  0  0  0  0  0  0  0  0
    1.9204    0.6589   -0.0621 H   0  0  0  0  0  0  0  0  0  0  0  0
   -2.5347    2.4967    0.0678 H   0  0  0  0  0  0  0  0  0  0  0  0
   -2.7084    1.8821   -1.5890 H   0  0  0  0  0  0  0  0  0  0  0  0
   -4.1178    1.9037   -0.5057 H   0  0  0  0  0  0  0  0  0  0  0  0
   -2.6989   -0.6301    1.9032 H   0  0  0  0  0  0  0  0  0  0  0  0
   -3.6609    0.8785    1.8584 H   0  0  0  0  0  0  0  0  0  0  0  0
   -3.5729   -2.3515    0.0960 H   0  0  0  0  0  0  0  0  0  0  0  0
   -5.0344   -1.7415   -0.7696 H   0  0  0  0  0  0  0  0  0  0  0  0
  1  2  1  0
  2  3  3  0
  3  4  1  0
  4  5  1  0
  4  6  1  0
  6  7  1  0
  7  8  1  0
  8  9  1  0
  9  4  1  0
  1 10  1  0
  1 11  1  0
  1 12  1  0
  5 13  1  0
  5 14  1  0
  5 15  1  0
  6 16  1  0
  6 17  1  0
  8 18  1  0
  8 19  1  0
M  END
$$$$
