gdb 474	3.8743132	1.086724	0.9029974	1.3847	77.11	-0.24685	0.02088	0.26773	1290.3002	0.157458	-422.534487	-422.526267	-422.525323	-422.567819	30.662
 OpenBabel02181911403D

 19 20  0  0  1  0  0  0  0  0999 V2000
   -2.1992    4.9546   -0.4719 C   0  0  0  0  0  0  0  0  0  0  0  0
   -1.1751    5.2696    0.4772 O   0  0  0  0  0  0  0  0  0  0  0  0
   -0.8536    4.3905   -0.6011 C   0  0  1  0  0  0  0  0  0  0  0  0
   -0.5367    2.9681   -0.2061 C   0  0  2  0  0  0  0  0  0  0  0  0
    0.8209    2.8464    0.4974 C   0  0  0  0  0  0  0  0  0  0  0  0
    1.2366    1.4015    0.5725 C   0  0  0  0  0  0  0  0  0  0  0  0
    0.6580    0.4723   -0.1837 C   0  0  0  0  0  0  0  0  0  0  0  0
   -0.4095    0.8137   -1.1852 C   0  0  0  0  0  0  0  0  0  0  0  0
   -0.5506    2.2051   -1.4057 O   0  0  0  0  0  0  0  0  0  0  0  0
   -3.0084    4.3306   -0.0953 H   0  0  0  0  0  0  0  0  0  0  0  0
   -2.5050    5.7764   -1.1173 H   0  0  0  0  0  0  0  0  0  0  0  0
   -0.1818    4.8111   -1.3511 H   0  0  0  0  0  0  0  0  0  0  0  0
   -1.3229    2.6097    0.4793 H   0  0  0  0  0  0  0  0  0  0  0  0
    1.5759    3.4359   -0.0424 H   0  0  0  0  0  0  0  0  0  0  0  0
    0.7469    3.2855    1.4990 H   0  0  0  0  0  0  0  0  0  0  0  0
    2.0230    1.1340    1.2731 H   0  0  0  0  0  0  0  0  0  0  0  0
    0.9333   -0.5761   -0.1059 H   0  0  0  0  0  0  0  0  0  0  0  0
   -0.1718    0.3774   -2.1630 H   0  0  0  0  0  0  0  0  0  0  0  0
   -1.3745    0.3741   -0.8704 H   0  0  0  0  0  0  0  0  0  0  0  0
  1 10  1  0  0  0  0
  1  2  1  0  0  0  0
  3 12  1  6  0  0  0
  3  1  1  0  0  0  0
  3  4  1  0  0  0  0
  3  2  1  0  0  0  0
  4 13  1  1  0  0  0
  4  5  1  0  0  0  0
  5  6  1  0  0  0  0
  5 15  1  0  0  0  0
  6 16  1  0  0  0  0
  7 17  1  0  0  0  0
  7  6  2  0  0  0  0
  8 19  1  0  0  0  0
  8  7  1  0  0  0  0
  9  8  1  0  0  0  0
  9  4  1  0  0  0  0
 11  1  1  0  0  0  0
 14  5  1  0  0  0  0
 18  8  1  0  0  0  0
M TOR 0 0 1 2 3
M TOR 1 0 1 2 11
M TOR 2 0 2 3 4
M TOR 3 0 2 3 8
M TOR 4 0 2 3 12
M TOR 5 1 2 0 9
M TOR 6 1 2 0 10
M TOR 7 1 2 3 4
M TOR 8 1 2 3 8
M TOR 9 1 2 3 12
M TOR 10 2 3 4 5
M TOR 11 2 3 4 13
M TOR 12 2 3 4 14
M TOR 13 2 3 8 7
M TOR 14 3 2 0 9
M TOR 15 3 2 0 10
M TOR 16 3 4 5 6
M TOR 17 3 4 5 15
M TOR 18 3 8 7 6
M TOR 19 3 8 7 17
M TOR 20 3 8 7 18
M TOR 21 4 3 2 11
M TOR 22 4 3 8 7
M TOR 23 4 5 6 7
M TOR 24 4 5 6 16
M TOR 25 5 4 3 8
M TOR 26 5 4 3 12
M TOR 27 5 6 7 8
M TOR 28 5 6 7 17
M TOR 29 5 6 7 18
M TOR 30 6 5 4 13
M TOR 31 6 5 4 14
M TOR 32 7 6 5 15
M TOR 33 7 8 3 12
M TOR 34 8 3 2 11
M TOR 35 8 3 4 13
M TOR 36 8 3 4 14
M TOR 37 8 7 6 16
M  END
$$$$
