gdb 3614	3.4539103	0.923663	0.8199398	1.4801	77.6	-0.24664	-0.09292	0.15372	1443.2118	0.15478	-422.567016	-422.557432	-422.556487	-422.604391	33.545
 OpenBabel02181911413D

 19 19  0  0  1  0  0  0  0  0999 V2000
   -0.7699    4.4599    2.8049 C   0  0  0  0  0  0  0  0  0  0  0  0
   -1.3573    3.6184    1.6837 C   0  0  2  0  0  0  0  0  0  0  0  0
   -1.2401    2.0709    1.7729 C   0  0  0  0  0  0  0  0  0  0  0  0
   -0.9426    2.0502    0.2282 C   0  0  1  0  0  0  0  0  0  0  0  0
   -0.6152    3.5596    0.3187 C   0  0  0  0  0  0  0  0  0  0  0  0
    0.1443    1.1099   -0.1961 C   0  0  0  0  0  0  0  0  0  0  0  0
    1.3258    1.3765   -0.2268 O   0  0  0  0  0  0  0  0  0  0  0  0
   -0.2699   -0.3206   -0.5769 C   0  0  0  0  0  0  0  0  0  0  0  0
   -1.4113   -0.6985   -0.6136 O   0  0  0  0  0  0  0  0  0  0  0  0
    0.2790    4.1975    2.9830 H   0  0  0  0  0  0  0  0  0  0  0  0
   -0.8098    5.5273    2.5611 H   0  0  0  0  0  0  0  0  0  0  0  0
   -1.3166    4.3124    3.7431 H   0  0  0  0  0  0  0  0  0  0  0  0
   -2.4057    3.8922    1.5204 H   0  0  0  0  0  0  0  0  0  0  0  0
   -0.3597    1.7699    2.3497 H   0  0  0  0  0  0  0  0  0  0  0  0
   -2.1051    1.5003    2.1153 H   0  0  0  0  0  0  0  0  0  0  0  0
   -1.8581    1.8280   -0.3237 H   0  0  0  0  0  0  0  0  0  0  0  0
    0.4630    3.7052    0.4323 H   0  0  0  0  0  0  0  0  0  0  0  0
   -0.9784    4.1976   -0.4899 H   0  0  0  0  0  0  0  0  0  0  0  0
    0.5990   -0.9681   -0.8215 H   0  0  0  0  0  0  0  0  0  0  0  0
  1 10  1  0  0  0  0
  1 12  1  0  0  0  0
  2 13  1  6  0  0  0
  2  3  1  0  0  0  0
  2  1  1  0  0  0  0
  3 15  1  0  0  0  0
  3 14  1  0  0  0  0
  4 16  1  6  0  0  0
  4  5  1  0  0  0  0
  4  3  1  0  0  0  0
  5 17  1  0  0  0  0
  5  2  1  0  0  0  0
  6  4  1  0  0  0  0
  7  6  2  0  0  0  0
  8  6  1  0  0  0  0
  9  8  2  0  0  0  0
 11  1  1  0  0  0  0
 18  5  1  0  0  0  0
 19  8  1  0  0  0  0
M TOR 0 0 1 2 3
M TOR 1 0 1 2 13
M TOR 2 0 1 2 14
M TOR 3 0 1 4 3
M TOR 4 0 1 4 16
M TOR 5 0 1 4 17
M TOR 6 1 2 3 4
M TOR 7 1 2 3 5
M TOR 8 1 2 3 15
M TOR 9 1 4 3 5
M TOR 10 1 4 3 15
M TOR 11 2 1 0 9
M TOR 12 2 1 0 10
M TOR 13 2 1 0 11
M TOR 14 2 1 4 16
M TOR 15 2 1 4 17
M TOR 16 2 3 4 16
M TOR 17 2 3 4 17
M TOR 18 2 3 5 6
M TOR 19 2 3 5 7
M TOR 20 3 2 1 12
M TOR 21 3 4 1 12
M TOR 22 3 5 7 8
M TOR 23 3 5 7 18
M TOR 24 4 1 0 9
M TOR 25 4 1 0 10
M TOR 26 4 1 0 11
M TOR 27 4 1 2 13
M TOR 28 4 1 2 14
M TOR 29 4 3 2 13
M TOR 30 4 3 2 14
M TOR 31 4 3 5 6
M TOR 32 4 3 5 7
M TOR 33 5 3 2 13
M TOR 34 5 3 2 14
M TOR 35 5 3 4 16
M TOR 36 5 3 4 17
M TOR 37 6 5 3 15
M TOR 38 6 5 7 8
M TOR 39 6 5 7 18
M TOR 40 7 5 3 15
M  END
$$$$
