gdb 5544	2.7263669	1.1990987	0.9829317	2.738	76.53	-0.23732	-0.02308	0.21424	1287.9209	0.15431	-422.541267	-422.53177	-422.530826	-422.575799	34.1
 OpenBabel02181911423D

 19 20  0  0  1  0  0  0  0  0999 V2000
    1.6835    1.1068    0.6521 C   0  0  0  0  0  0  0  0  0  0  0  0
    1.0709   -0.2353    0.2381 C   0  0  0  0  0  0  0  0  0  0  0  0
    1.6713   -0.8001   -1.0506 C   0  0  2  0  0  0  0  0  0  0  0  0
    1.1943   -0.2108   -2.3926 C   0  0  1  0  0  0  0  0  0  0  0  0
    1.8052   -0.9991   -3.4073 O   0  0  0  0  0  0  0  0  0  0  0  0
    0.5545   -1.4776   -2.8510 C   0  0  2  0  0  0  0  0  0  0  0  0
   -0.5730   -1.8022   -3.7713 C   0  0  0  0  0  0  0  0  0  0  0  0
    0.9541   -2.1087   -1.5168 C   0  0  0  0  0  0  0  0  0  0  0  0
    0.6428   -3.1152   -0.9506 O   0  0  0  0  0  0  0  0  0  0  0  0
    1.2341    1.4725    1.5803 H   0  0  0  0  0  0  0  0  0  0  0  0
    2.7622    1.0132    0.8161 H   0  0  0  0  0  0  0  0  0  0  0  0
    1.5315    1.8739   -0.1147 H   0  0  0  0  0  0  0  0  0  0  0  0
    1.2167   -0.9762    1.0321 H   0  0  0  0  0  0  0  0  0  0  0  0
   -0.0155   -0.1286    0.1204 H   0  0  0  0  0  0  0  0  0  0  0  0
    2.7618   -0.8662   -0.9871 H   0  0  0  0  0  0  0  0  0  0  0  0
    0.9048    0.8052   -2.6348 H   0  0  0  0  0  0  0  0  0  0  0  0
   -1.5074   -1.9027   -3.2111 H   0  0  0  0  0  0  0  0  0  0  0  0
   -0.6909   -1.0188   -4.5245 H   0  0  0  0  0  0  0  0  0  0  0  0
   -0.3863   -2.7499   -4.2862 H   0  0  0  0  0  0  0  0  0  0  0  0
  1 11  1  0  0  0  0
  1 10  1  0  0  0  0
  2  1  1  0  0  0  0
  2 13  1  0  0  0  0
  3 15  1  1  0  0  0
  3  2  1  0  0  0  0
  4 16  1  6  0  0  0
  4  3  1  0  0  0  0
  5  6  1  0  0  0  0
  5  4  1  0  0  0  0
  6  7  1  6  0  0  0
  6  4  1  0  0  0  0
  6  8  1  0  0  0  0
  7 17  1  0  0  0  0
  8  3  1  0  0  0  0
  8  9  2  0  0  0  0
 12  1  1  0  0  0  0
 14  2  1  0  0  0  0
 18  7  1  0  0  0  0
 19  7  1  0  0  0  0
M TOR 0 0 1 2 3
M TOR 1 0 1 2 7
M TOR 2 0 1 2 14
M TOR 3 1 2 3 4
M TOR 4 1 2 3 5
M TOR 5 1 2 3 15
M TOR 6 1 2 7 5
M TOR 7 1 2 7 8
M TOR 8 2 1 0 9
M TOR 9 2 1 0 10
M TOR 10 2 1 0 11
M TOR 11 2 3 4 5
M TOR 12 2 3 5 6
M TOR 13 2 3 5 7
M TOR 14 2 7 5 4
M TOR 15 2 7 5 6
M TOR 16 3 2 1 12
M TOR 17 3 2 1 13
M TOR 18 3 2 7 8
M TOR 19 3 4 5 6
M TOR 20 3 4 5 7
M TOR 21 3 5 6 16
M TOR 22 3 5 6 17
M TOR 23 3 5 6 18
M TOR 24 3 5 7 8
M TOR 25 4 3 2 7
M TOR 26 4 3 2 14
M TOR 27 4 5 3 15
M TOR 28 4 5 6 16
M TOR 29 4 5 6 17
M TOR 30 4 5 6 18
M TOR 31 4 5 7 8
M TOR 32 5 3 2 14
M TOR 33 5 7 2 14
M TOR 34 6 5 3 15
M TOR 35 6 5 7 8
M TOR 36 7 2 1 12
M TOR 37 7 2 1 13
M TOR 38 7 2 3 15
M TOR 39 7 5 3 15
M TOR 40 7 5 6 16
M TOR 41 7 5 6 17
M TOR 42 7 5 6 18
M TOR 43 8 7 2 14
M  END
$$$$
