gdb 1035	2.9813065	0.9812045	0.9429694	1.501	79.96	-0.23813	0.0574	0.29553	1381.1713	0.157456	-422.528083	-422.518978	-422.518034	-422.563449	32.291
 OpenBabel02181911403D

 19 19  0  0  0  0  0  0  0  0999 V2000
    1.5509    0.0488   -0.0348 C   0  0  0  0  0  0  0  0  0  0  0  0
    0.0960    0.0063   -0.0035 C   0  0  0  0  0  0  0  0  0  0  0  0
   -1.1068   -0.0345    0.0258 C   0  0  0  0  0  0  0  0  0  0  0  0
   -2.5652   -0.0755    0.0562 C   0  0  0  0  0  0  0  0  0  0  0  0
   -3.1290   -1.3547   -0.6060 C   0  0  0  0  0  0  0  0  0  0  0  0
   -2.8759   -2.4945    0.1960 O   0  0  0  0  0  0  0  0  0  0  0  0
   -3.4148   -2.3406    1.4818 C   0  0  0  0  0  0  0  0  0  0  0  0
   -2.8697   -1.2505    2.1761 O   0  0  0  0  0  0  0  0  0  0  0  0
   -3.1224   -0.0326    1.4985 C   0  0  0  0  0  0  0  0  0  0  0  0
    1.9693    0.0623    0.9777 H   0  0  0  0  0  0  0  0  0  0  0  0
    1.9625   -0.8258   -0.5505 H   0  0  0  0  0  0  0  0  0  0  0  0
    1.9143    0.9419   -0.5555 H   0  0  0  0  0  0  0  0  0  0  0  0
   -2.9662    0.7914   -0.4873 H   0  0  0  0  0  0  0  0  0  0  0  0
   -4.2154   -1.2291   -0.7547 H   0  0  0  0  0  0  0  0  0  0  0  0
   -2.6616   -1.5383   -1.5752 H   0  0  0  0  0  0  0  0  0  0  0  0
   -4.5151   -2.2250    1.4127 H   0  0  0  0  0  0  0  0  0  0  0  0
   -3.1616   -3.2399    2.0460 H   0  0  0  0  0  0  0  0  0  0  0  0
   -4.2085    0.1590    1.4547 H   0  0  0  0  0  0  0  0  0  0  0  0
   -2.6501    0.7595    2.0824 H   0  0  0  0  0  0  0  0  0  0  0  0
  1  2  1  0  0  0  0
  1 10  1  0  0  0  0
  2  3  3  0  0  0  0
  3  4  1  0  0  0  0
  4  9  1  0  0  0  0
  5  4  1  0  0  0  0
  5  6  1  0  0  0  0
  6  7  1  0  0  0  0
  7 17  1  0  0  0  0
  7  8  1  0  0  0  0
  9 19  1  0  0  0  0
  9  8  1  0  0  0  0
 11  1  1  0  0  0  0
 12  1  1  0  0  0  0
 13  4  1  0  0  0  0
 14  5  1  0  0  0  0
 15  5  1  0  0  0  0
 16  7  1  0  0  0  0
 18  9  1  0  0  0  0
M TOR 0 0 1 2 3
M TOR 1 1 2 3 4
M TOR 2 1 2 3 8
M TOR 3 1 2 3 12
M TOR 4 2 1 0 9
M TOR 5 2 1 0 10
M TOR 6 2 1 0 11
M TOR 7 2 3 4 5
M TOR 8 2 3 4 13
M TOR 9 2 3 4 14
M TOR 10 2 3 8 7
M TOR 11 2 3 8 17
M TOR 12 2 3 8 18
M TOR 13 3 4 5 6
M TOR 14 3 8 7 6
M TOR 15 4 3 8 7
M TOR 16 4 3 8 17
M TOR 17 4 3 8 18
M TOR 18 4 5 6 7
M TOR 19 4 5 6 15
M TOR 20 4 5 6 16
M TOR 21 5 4 3 8
M TOR 22 5 4 3 12
M TOR 23 5 6 7 8
M TOR 24 6 5 4 13
M TOR 25 6 5 4 14
M TOR 26 6 7 8 17
M TOR 27 6 7 8 18
M TOR 28 7 8 3 12
M TOR 29 8 3 4 13
M TOR 30 8 3 4 14
M TOR 31 8 7 6 15
M TOR 32 8 7 6 16
M  END
$$$$
