gdb 5015	2.2147314	1.7455893	1.2954522	1.9922	75.91	-0.23936	0.0721	0.31145999999999996	1055.8683	0.156086	-422.46739	-422.45905	-422.458106	-422.500094	32.324
 OpenBabel02181911413D

 19 21  0  0  1  0  0  0  0  0999 V2000
    1.3626   -0.2649    1.1976 O   0  0  0  0  0  0  0  0  0  0  0  0
    0.5685    0.2348    0.1364 C   0  0  0  0  0  0  0  0  0  0  0  0
   -0.4457    1.2119    0.6499 C   0  0  1  0  0  0  0  0  0  0  0  0
   -1.6556    1.9149   -0.0215 C   0  0  0  0  0  0  0  0  0  0  0  0
   -1.7503    2.1079    1.5139 C   0  0  1  0  0  0  0  0  0  0  0  0
   -1.3926    0.6742    1.6811 O   0  0  0  0  0  0  0  0  0  0  0  0
   -0.2589    2.4489    1.5467 C   0  0  0  0  0  0  0  0  0  0  0  0
    0.5501    3.6942    1.4446 C   0  0  0  0  0  0  0  0  0  0  0  0
    0.6935    2.7526    2.6412 C   0  0  0  0  0  0  0  0  0  0  0  0
    0.7499   -0.4957    1.9069 H   0  0  0  0  0  0  0  0  0  0  0  0
    1.2434    0.7300   -0.5705 H   0  0  0  0  0  0  0  0  0  0  0  0
    0.0506   -0.5740   -0.4033 H   0  0  0  0  0  0  0  0  0  0  0  0
   -1.4570    2.7941   -0.6383 H   0  0  0  0  0  0  0  0  0  0  0  0
   -2.4015    1.2416   -0.4460 H   0  0  0  0  0  0  0  0  0  0  0  0
   -2.5723    2.4922    2.1175 H   0  0  0  0  0  0  0  0  0  0  0  0
    1.3636    3.7304    0.7266 H   0  0  0  0  0  0  0  0  0  0  0  0
    0.0599    4.6489    1.6081 H   0  0  0  0  0  0  0  0  0  0  0  0
    1.5933    2.1512    2.7055 H   0  0  0  0  0  0  0  0  0  0  0  0
    0.3012    3.0884    3.5958 H   0  0  0  0  0  0  0  0  0  0  0  0
  1 10  1  0  0  0  0
  2  1  1  0  0  0  0
  3  2  1  6  0  0  0
  3  7  1  0  0  0  0
  3  6  1  0  0  0  0
  4  3  1  0  0  0  0
  4  5  1  0  0  0  0
  5  7  1  0  0  0  0
  5  6  1  0  0  0  0
  5 15  1  1  0  0  0
  7  9  1  0  0  0  0
  8  7  1  0  0  0  0
  8 17  1  0  0  0  0
  8  9  1  0  0  0  0
  9 18  1  0  0  0  0
  9 19  1  0  0  0  0
 11  2  1  0  0  0  0
 12  2  1  0  0  0  0
 13  4  1  0  0  0  0
 14  4  1  0  0  0  0
 16  8  1  0  0  0  0
M TOR 0 0 1 2 3
M TOR 1 0 1 2 5
M TOR 2 0 1 2 6
M TOR 3 1 2 3 4
M TOR 4 1 2 3 12
M TOR 5 1 2 3 13
M TOR 6 1 2 5 4
M TOR 7 1 2 6 4
M TOR 8 1 2 6 7
M TOR 9 1 2 6 8
M TOR 10 2 1 0 9
M TOR 11 2 3 4 5
M TOR 12 2 3 4 6
M TOR 13 2 3 4 14
M TOR 14 2 5 4 6
M TOR 15 2 5 4 14
M TOR 16 2 6 4 14
M TOR 17 2 6 7 8
M TOR 18 2 6 7 15
M TOR 19 2 6 7 16
M TOR 20 2 6 8 17
M TOR 21 2 6 8 18
M TOR 22 3 2 1 10
M TOR 23 3 2 1 11
M TOR 24 3 2 6 7
M TOR 25 3 2 6 8
M TOR 26 3 4 6 7
M TOR 27 3 4 6 8
M TOR 28 4 6 7 8
M TOR 29 4 6 7 15
M TOR 30 4 6 7 16
M TOR 31 4 6 8 17
M TOR 32 4 6 8 18
M TOR 33 5 2 1 10
M TOR 34 5 2 1 11
M TOR 35 5 2 3 12
M TOR 36 5 2 3 13
M TOR 37 5 2 6 7
M TOR 38 5 2 6 8
M TOR 39 5 4 3 12
M TOR 40 5 4 3 13
M TOR 41 5 4 6 7
M TOR 42 5 4 6 8
M TOR 43 6 2 1 10
M TOR 44 6 2 1 11
M TOR 45 6 2 3 12
M TOR 46 6 2 3 13
M TOR 47 6 4 3 12
M TOR 48 6 4 3 13
M TOR 49 6 7 8 17
M TOR 50 6 7 8 18
M TOR 51 6 8 7 15
M TOR 52 6 8 7 16
M TOR 53 7 6 4 14
M TOR 54 8 6 4 14
M  END
$$$$
