gdb 2829	3.1807968	1.241084	1.0295125	1.3552	76.64	-0.24669	0.07262	0.31931	1198.3107	0.155265	-422.504582	-422.495848	-422.494904	-422.537501	33.493
 OpenBabel02181911413D

 19 21  0  0  1  0  0  0  0  0999 V2000
    0.8528    1.5928   -2.5927 C   0  0  0  0  0  0  0  0  0  0  0  0
    0.3280    0.2355   -2.2302 C   0  0  2  0  0  0  0  0  0  0  0  0
   -0.0184   -0.8748   -3.2414 C   0  0  0  0  0  0  0  0  0  0  0  0
   -1.2536   -1.2100   -2.3826 C   0  0  1  0  0  0  0  0  0  0  0  0
   -2.5709   -1.6664   -2.8189 C   0  0  0  0  0  0  0  0  0  0  0  0
   -1.6972   -2.5253   -2.0709 O   0  0  0  0  0  0  0  0  0  0  0  0
   -0.8970   -0.1652   -1.3644 C   0  0  1  0  0  0  0  0  0  0  0  0
    0.5250   -0.3951   -0.8870 C   0  0  2  0  0  0  0  0  0  0  0  0
    0.9919    0.4820    0.0963 O   0  0  0  0  0  0  0  0  0  0  0  0
    0.9340    2.2237   -1.7051 H   0  0  0  0  0  0  0  0  0  0  0  0
    1.8505    1.5159   -3.0416 H   0  0  0  0  0  0  0  0  0  0  0  0
    0.2003    2.0907   -3.3184 H   0  0  0  0  0  0  0  0  0  0  0  0
   -0.2799   -0.4903   -4.2312 H   0  0  0  0  0  0  0  0  0  0  0  0
    0.7191   -1.6768   -3.3504 H   0  0  0  0  0  0  0  0  0  0  0  0
   -3.4646   -1.3358   -2.2896 H   0  0  0  0  0  0  0  0  0  0  0  0
   -2.7290   -1.9487   -3.8598 H   0  0  0  0  0  0  0  0  0  0  0  0
   -1.5756    0.4585   -0.7933 H   0  0  0  0  0  0  0  0  0  0  0  0
    0.9128   -1.4139   -0.8101 H   0  0  0  0  0  0  0  0  0  0  0  0
    0.5831    0.2346    0.9321 H   0  0  0  0  0  0  0  0  0  0  0  0
  1 10  1  0  0  0  0
  2  1  1  6  0  0  0
  2  7  1  0  0  0  0
  2  8  1  0  0  0  0
  3  4  1  0  0  0  0
  3  2  1  0  0  0  0
  4  6  1  1  0  0  0
  4  7  1  0  0  0  0
  5  4  1  0  0  0  0
  5 15  1  0  0  0  0
  5  6  1  0  0  0  0
  7  8  1  0  0  0  0
  7 17  1  1  0  0  0
  8 18  1  1  0  0  0
  8  9  1  0  0  0  0
  9 19  1  0  0  0  0
 11  1  1  0  0  0  0
 12  1  1  0  0  0  0
 13  3  1  0  0  0  0
 14  3  1  0  0  0  0
 16  5  1  0  0  0  0
M TOR 0 0 1 2 3
M TOR 1 0 1 2 12
M TOR 2 0 1 2 13
M TOR 3 0 1 6 3
M TOR 4 0 1 6 7
M TOR 5 0 1 6 16
M TOR 6 0 1 7 8
M TOR 7 0 1 7 17
M TOR 8 1 2 3 4
M TOR 9 1 2 3 5
M TOR 10 1 2 3 6
M TOR 11 1 6 3 4
M TOR 12 1 6 3 5
M TOR 13 1 6 7 8
M TOR 14 1 6 7 17
M TOR 15 1 7 6 3
M TOR 16 1 7 6 16
M TOR 17 1 7 8 18
M TOR 18 2 1 0 9
M TOR 19 2 1 0 10
M TOR 20 2 1 0 11
M TOR 21 2 1 6 7
M TOR 22 2 1 6 16
M TOR 23 2 1 7 8
M TOR 24 2 1 7 17
M TOR 25 2 3 4 5
M TOR 26 2 3 4 14
M TOR 27 2 3 4 15
M TOR 28 2 3 6 7
M TOR 29 2 3 6 16
M TOR 30 3 2 1 7
M TOR 31 3 5 4 14
M TOR 32 3 5 4 15
M TOR 33 3 6 7 8
M TOR 34 3 6 7 17
M TOR 35 4 3 2 12
M TOR 36 4 3 2 13
M TOR 37 4 3 6 7
M TOR 38 4 3 6 16
M TOR 39 4 5 3 6
M TOR 40 5 3 2 12
M TOR 41 5 3 2 13
M TOR 42 5 3 6 7
M TOR 43 5 3 6 16
M TOR 44 6 1 0 9
M TOR 45 6 1 0 10
M TOR 46 6 1 0 11
M TOR 47 6 1 2 12
M TOR 48 6 1 2 13
M TOR 49 6 3 2 12
M TOR 50 6 3 2 13
M TOR 51 6 3 4 14
M TOR 52 6 3 4 15
M TOR 53 6 7 8 18
M TOR 54 7 1 0 9
M TOR 55 7 1 0 10
M TOR 56 7 1 0 11
M TOR 57 7 1 2 12
M TOR 58 7 1 2 13
M TOR 59 8 7 6 16
M  END
$$$$
