
     RDKit          3D

 19 20  0  0  0  0  0  0  0  0999 V2000
    1.3838    1.2387   -0.1964 C   0  0  0  0  0  0  0  0  0  0  0  0
    1.0151   -0.2468   -0.0970 C   0  0  0  0  0  0  0  0  0  0  0  0
    1.6612   -1.0985   -1.2212 C   0  0  0  0  0  0  0  0  0  0  0  0
    2.8930   -1.6146   -0.6993 O   0  0  0  0  0  0  0  0  0  0  0  0
    2.7760   -1.6705    0.6878 C   0  0  0  0  0  0  0  0  0  0  0  0
    1.5549   -2.4009    1.2746 C   0  0  0  0  0  0  0  0  0  0  0  0
    1.7083   -3.0002    2.6133 C   0  0  0  0  0  0  0  0  0  0  0  0
    1.2070   -4.0392    2.9689 O   0  0  0  0  0  0  0  0  0  0  0  0
    1.6195   -0.8712    1.1573 C   0  0  0  0  0  0  0  0  0  0  0  0
    0.9890    1.8037    0.6539 H   0  0  0  0  0  0  0  0  0  0  0  0
    2.4709    1.3695   -0.2147 H   0  0  0  0  0  0  0  0  0  0  0  0
    0.9749    1.6803   -1.1106 H   0  0  0  0  0  0  0  0  0  0  0  0
   -0.0740   -0.3570   -0.1253 H   0  0  0  0  0  0  0  0  0  0  0  0
    1.0062   -1.9290   -1.5137 H   0  0  0  0  0  0  0  0  0  0  0  0
    1.8981   -0.5194   -2.1177 H   0  0  0  0  0  0  0  0  0  0  0  0
    3.7348   -1.7372    1.1876 H   0  0  0  0  0  0  0  0  0  0  0  0
    0.9141   -2.9564    0.5987 H   0  0  0  0  0  0  0  0  0  0  0  0
    2.3540   -2.4090    3.3075 H   0  0  0  0  0  0  0  0  0  0  0  0
    1.6490   -0.2888    2.0718 H   0  0  0  0  0  0  0  0  0  0  0  0
  1  2  1  0
  2  3  1  0
  3  4  1  0
  4  5  1  0
  5  6  1  0
  6  7  1  0
  7  8  2  0
  6  9  1  0
  9  2  1  0
  9  5  1  0
  1 10  1  0
  1 11  1  0
  1 12  1  0
  2 13  1  0
  3 14  1  0
  3 15  1  0
  5 16  1  0
  6 17  1  0
  7 18  1  0
  9 19  1  0
M  END
$$$$
