
     RDKit          3D

 19 21  0  0  0  0  0  0  0  0999 V2000
   -1.1985    0.1140    0.7887 C   0  0  0  0  0  0  0  0  0  0  0  0
   -0.8510   -1.3055    1.2434 C   0  0  0  0  0  0  0  0  0  0  0  0
    0.6203   -1.6666    1.1269 C   0  0  0  0  0  0  0  0  0  0  0  0
    1.2460   -1.2747   -0.1378 O   0  0  0  0  0  0  0  0  0  0  0  0
    2.3441   -0.7011    0.5771 C   0  0  0  0  0  0  0  0  0  0  0  0
    1.9022    0.4790    1.3882 C   0  0  0  0  0  0  0  0  0  0  0  0
    0.7808    1.4299    0.9714 C   0  0  0  0  0  0  0  0  0  0  0  0
   -0.4986    1.1215    1.4935 O   0  0  0  0  0  0  0  0  0  0  0  0
    1.6958   -0.9251    1.9238 C   0  0  0  0  0  0  0  0  0  0  0  0
   -1.0143    0.2082   -0.2908 H   0  0  0  0  0  0  0  0  0  0  0  0
   -2.2642    0.2969    0.9649 H   0  0  0  0  0  0  0  0  0  0  0  0
   -1.1453   -1.4417    2.2917 H   0  0  0  0  0  0  0  0  0  0  0  0
   -1.4493   -2.0104    0.6503 H   0  0  0  0  0  0  0  0  0  0  0  0
    0.7516   -2.7492    1.2525 H   0  0  0  0  0  0  0  0  0  0  0  0
    3.3429   -0.8794    0.1951 H   0  0  0  0  0  0  0  0  0  0  0  0
    2.7366    0.9618    1.8931 H   0  0  0  0  0  0  0  0  0  0  0  0
    1.0147    2.4315    1.3454 H   0  0  0  0  0  0  0  0  0  0  0  0
    0.7321    1.4853   -0.1259 H   0  0  0  0  0  0  0  0  0  0  0  0
    2.1109   -1.2610    2.8644 H   0  0  0  0  0  0  0  0  0  0  0  0
  1  2  1  0
  2  3  1  0
  3  4  1  0
  4  5  1  0
  5  6  1  0
  6  7  1  0
  7  8  1  0
  6  9  1  0
  8  1  1  0
  9  3  1  0
  9  5  1  0
  1 10  1  0
  1 11  1  0
  2 12  1  0
  2 13  1  0
  3 14  1  0
  5 15  1  0
  6 16  1  0
  7 17  1  0
  7 18  1  0
  9 19  1  0
M  END
$$$$
