
     RDKit          3D

 19 20  0  0  0  0  0  0  0  0999 V2000
   -0.1732    0.0132    0.0152 C   0  0  0  0  0  0  0  0  0  0  0  0
    1.3408   -0.0728    0.1038 C   0  0  0  0  0  0  0  0  0  0  0  0
    2.1984   -0.8298   -0.9747 C   0  0  0  0  0  0  0  0  0  0  0  0
    1.5638   -2.2206   -0.9141 C   0  0  0  0  0  0  0  0  0  0  0  0
    1.4684   -2.3898    0.5210 O   0  0  0  0  0  0  0  0  0  0  0  0
    2.0075   -1.1455    1.0044 C   0  0  0  0  0  0  0  0  0  0  0  0
    3.2983   -0.9505    0.1541 C   0  0  0  0  0  0  0  0  0  0  0  0
    4.3334   -2.0370    0.1254 C   0  0  0  0  0  0  0  0  0  0  0  0
    5.5194   -1.8242    0.0431 O   0  0  0  0  0  0  0  0  0  0  0  0
   -0.5717    0.5758    0.8659 H   0  0  0  0  0  0  0  0  0  0  0  0
   -0.4878    0.5312   -0.8973 H   0  0  0  0  0  0  0  0  0  0  0  0
   -0.6370   -0.9759    0.0302 H   0  0  0  0  0  0  0  0  0  0  0  0
    1.7795    0.9107    0.2899 H   0  0  0  0  0  0  0  0  0  0  0  0
    2.4276   -0.4092   -1.9529 H   0  0  0  0  0  0  0  0  0  0  0  0
    0.5684   -2.2622   -1.3685 H   0  0  0  0  0  0  0  0  0  0  0  0
    2.1791   -3.0152   -1.3482 H   0  0  0  0  0  0  0  0  0  0  0  0
    1.9912   -1.1400    2.0932 H   0  0  0  0  0  0  0  0  0  0  0  0
    3.7878    0.0092    0.3243 H   0  0  0  0  0  0  0  0  0  0  0  0
    3.9438   -3.0734    0.2051 H   0  0  0  0  0  0  0  0  0  0  0  0
  1  2  1  0
  2  3  1  0
  3  4  1  0
  4  5  1  0
  5  6  1  0
  6  7  1  0
  7  8  1  0
  8  9  2  0
  6  2  1  0
  7  3  1  0
  1 10  1  0
  1 11  1  0
  1 12  1  0
  2 13  1  0
  3 14  1  0
  4 15  1  0
  4 16  1  0
  6 17  1  0
  7 18  1  0
  8 19  1  0
M  END
$$$$
