
     RDKit          3D

 19 20  0  0  0  0  0  0  0  0999 V2000
   -0.0095   -0.2770    0.1048 C   0  0  0  0  0  0  0  0  0  0  0  0
    1.4172    0.1816   -0.0946 C   0  0  0  0  0  0  0  0  0  0  0  0
    2.2706   -0.9324    0.1850 O   0  0  0  0  0  0  0  0  0  0  0  0
    3.6526   -0.5898    0.0790 C   0  0  0  0  0  0  0  0  0  0  0  0
    3.7806    0.9019   -0.3009 C   0  0  0  0  0  0  0  0  0  0  0  0
    3.0240    1.6787    0.7990 C   0  0  0  0  0  0  0  0  0  0  0  0
    1.6769    1.2104    0.8653 O   0  0  0  0  0  0  0  0  0  0  0  0
    3.0203    1.0995   -1.5873 C   0  0  0  0  0  0  0  0  0  0  0  0
    1.7504    0.7122   -1.4756 C   0  0  0  0  0  0  0  0  0  0  0  0
   -0.1370   -0.6357    1.1277 H   0  0  0  0  0  0  0  0  0  0  0  0
   -0.6959    0.5546   -0.0706 H   0  0  0  0  0  0  0  0  0  0  0  0
   -0.2403   -1.0882   -0.5897 H   0  0  0  0  0  0  0  0  0  0  0  0
    4.1333   -0.7746    1.0493 H   0  0  0  0  0  0  0  0  0  0  0  0
    4.1272   -1.2323   -0.6736 H   0  0  0  0  0  0  0  0  0  0  0  0
    4.8277    1.2071   -0.3484 H   0  0  0  0  0  0  0  0  0  0  0  0
    3.5001    1.5111    1.7747 H   0  0  0  0  0  0  0  0  0  0  0  0
    3.0218    2.7566    0.5923 H   0  0  0  0  0  0  0  0  0  0  0  0
    3.4752    1.5095   -2.4816 H   0  0  0  0  0  0  0  0  0  0  0  0
    1.0008    0.7526   -2.2571 H   0  0  0  0  0  0  0  0  0  0  0  0
  1  2  1  0
  2  3  1  0
  3  4  1  0
  4  5  1  0
  5  6  1  0
  6  7  1  0
  5  8  1  0
  8  9  2  0
  7  2  1  0
  9  2  1  0
  1 10  1  0
  1 11  1  0
  1 12  1  0
  4 13  1  0
  4 14  1  0
  5 15  1  0
  6 16  1  0
  6 17  1  0
  8 18  1  0
  9 19  1  0
M  END
$$$$
