gdb 5370	3.9046666	0.9583725	0.8247369	2.4328	78.27	-0.23874	-0.01433	0.22441	1382.5313	0.157233	-422.592515	-422.58365	-422.582706	-422.626618	32.738
 OpenBabel02181911423D

 19 19  0  0  0  0  0  0  0  0999 V2000
    0.1110    2.3591   -1.0821 O   0  0  0  0  0  0  0  0  0  0  0  0
   -0.0035    1.1047   -0.4136 C   0  0  0  0  0  0  0  0  0  0  0  0
   -0.4459    1.2515    1.0204 C   0  0  0  0  0  0  0  0  0  0  0  0
    0.2993    0.8016    2.0331 C   0  0  0  0  0  0  0  0  0  0  0  0
   -0.1030    0.8749    3.4821 C   0  0  0  0  0  0  0  0  0  0  0  0
   -1.4680    1.5179    3.7178 C   0  0  0  0  0  0  0  0  0  0  0  0
   -2.1440    1.2428    4.6804 O   0  0  0  0  0  0  0  0  0  0  0  0
   -1.8899    2.5271    2.6654 C   0  0  0  0  0  0  0  0  0  0  0  0
   -1.7723    1.9396    1.2473 C   0  0  0  0  0  0  0  0  0  0  0  0
    0.7792    2.8708   -0.6138 H   0  0  0  0  0  0  0  0  0  0  0  0
   -0.7547    0.5489   -0.9883 H   0  0  0  0  0  0  0  0  0  0  0  0
    0.9363    0.5356   -0.4625 H   0  0  0  0  0  0  0  0  0  0  0  0
    1.2516    0.3179    1.8221 H   0  0  0  0  0  0  0  0  0  0  0  0
   -0.1115   -0.1167    3.9494 H   0  0  0  0  0  0  0  0  0  0  0  0
    0.6379    1.4568    4.0529 H   0  0  0  0  0  0  0  0  0  0  0  0
   -2.9017    2.8719    2.8890 H   0  0  0  0  0  0  0  0  0  0  0  0
   -1.2103    3.3872    2.7453 H   0  0  0  0  0  0  0  0  0  0  0  0
   -2.5894    1.2252    1.0705 H   0  0  0  0  0  0  0  0  0  0  0  0
   -1.8967    2.7303    0.5008 H   0  0  0  0  0  0  0  0  0  0  0  0
  1 10  1  0  0  0  0
  1  2  1  0  0  0  0
  2  3  1  0  0  0  0
  3  9  1  0  0  0  0
  3  4  2  0  0  0  0
  4  5  1  0  0  0  0
  5  6  1  0  0  0  0
  5 14  1  0  0  0  0
  5 15  1  0  0  0  0
  6  7  2  0  0  0  0
  8 17  1  0  0  0  0
  8 16  1  0  0  0  0
  8  6  1  0  0  0  0
  9  8  1  0  0  0  0
 11  2  1  0  0  0  0
 12  2  1  0  0  0  0
 13  4  1  0  0  0  0
 18  9  1  0  0  0  0
 19  9  1  0  0  0  0
M TOR 0 0 1 2 3
M TOR 1 0 1 2 8
M TOR 2 1 2 3 4
M TOR 3 1 2 3 12
M TOR 4 1 2 8 7
M TOR 5 1 2 8 17
M TOR 6 1 2 8 18
M TOR 7 2 1 0 9
M TOR 8 2 3 4 5
M TOR 9 2 3 4 13
M TOR 10 2 3 4 14
M TOR 11 2 8 7 5
M TOR 12 2 8 7 15
M TOR 13 2 8 7 16
M TOR 14 3 2 1 10
M TOR 15 3 2 1 11
M TOR 16 3 2 8 7
M TOR 17 3 2 8 17
M TOR 18 3 2 8 18
M TOR 19 3 4 5 6
M TOR 20 3 4 5 7
M TOR 21 4 3 2 8
M TOR 22 4 5 7 8
M TOR 23 4 5 7 15
M TOR 24 4 5 7 16
M TOR 25 5 4 3 12
M TOR 26 5 7 8 17
M TOR 27 5 7 8 18
M TOR 28 6 5 4 13
M TOR 29 6 5 4 14
M TOR 30 6 5 7 8
M TOR 31 6 5 7 15
M TOR 32 6 5 7 16
M TOR 33 7 5 4 13
M TOR 34 7 5 4 14
M TOR 35 8 2 1 10
M TOR 36 8 2 1 11
M TOR 37 8 2 3 12
M  END
$$$$
