gdb 4976	2.3024989	1.6651314	1.3183826	2.6088	75.22	-0.22725	0.07086	0.29811	1066.4706	0.155391	-422.473247	-422.464555	-422.46361	-422.506516	32.362
 OpenBabel02181911413D

 19 21  0  0  1  0  0  0  0  0999 V2000
    1.4731   -0.1301   -0.1158 C   0  0  0  0  0  0  0  0  0  0  0  0
    0.0566   -0.1920    0.0041 O   0  0  0  0  0  0  0  0  0  0  0  0
   -0.4367    0.4870    1.0745 C   0  0  1  0  0  0  0  0  0  0  0  0
   -1.7927    1.0091    1.3560 C   0  0  1  0  0  0  0  0  0  0  0  0
   -1.9536    0.3624    2.6148 O   0  0  0  0  0  0  0  0  0  0  0  0
   -0.5047    0.2461    2.6566 C   0  0  2  0  0  0  0  0  0  0  0  0
   -0.0293    1.7064    2.8579 C   0  0  0  0  0  0  0  0  0  0  0  0
   -0.5576    1.9700    1.4470 C   0  0  1  0  0  0  0  0  0  0  0  0
   -0.4301    3.1984    0.5976 C   0  0  0  0  0  0  0  0  0  0  0  0
    1.9671   -0.5985    0.7461 H   0  0  0  0  0  0  0  0  0  0  0  0
    1.7378   -0.6804   -1.0206 H   0  0  0  0  0  0  0  0  0  0  0  0
    1.8211    0.9070   -0.2042 H   0  0  0  0  0  0  0  0  0  0  0  0
   -2.6557    1.1897    0.7287 H   0  0  0  0  0  0  0  0  0  0  0  0
   -0.1498   -0.5914    3.2532 H   0  0  0  0  0  0  0  0  0  0  0  0
   -0.4871    2.2360    3.6997 H   0  0  0  0  0  0  0  0  0  0  0  0
    1.0610    1.7856    2.9015 H   0  0  0  0  0  0  0  0  0  0  0  0
   -0.9868    4.0392    1.0277 H   0  0  0  0  0  0  0  0  0  0  0  0
    0.6149    3.5123    0.4932 H   0  0  0  0  0  0  0  0  0  0  0  0
   -0.8223    3.0220   -0.4101 H   0  0  0  0  0  0  0  0  0  0  0  0
  1  2  1  0  0  0  0
  1 10  1  0  0  0  0
  3  2  1  6  0  0  0
  3  4  1  0  0  0  0
  3  8  1  0  0  0  0
  3  6  1  0  0  0  0
  4 13  1  6  0  0  0
  4  8  1  0  0  0  0
  4  5  1  0  0  0  0
  5  6  1  0  0  0  0
  6  7  1  0  0  0  0
  6 14  1  1  0  0  0
  7 16  1  0  0  0  0
  7 15  1  0  0  0  0
  8  9  1  6  0  0  0
  8  7  1  0  0  0  0
  9 17  1  0  0  0  0
 11  1  1  0  0  0  0
 12  1  1  0  0  0  0
 18  9  1  0  0  0  0
 19  9  1  0  0  0  0
M TOR 0 0 1 2 3
M TOR 1 0 1 2 5
M TOR 2 0 1 2 7
M TOR 3 1 2 3 4
M TOR 4 1 2 3 7
M TOR 5 1 2 3 12
M TOR 6 1 2 5 4
M TOR 7 1 2 5 6
M TOR 8 1 2 5 13
M TOR 9 1 2 7 6
M TOR 10 1 2 7 8
M TOR 11 2 1 0 9
M TOR 12 2 1 0 10
M TOR 13 2 1 0 11
M TOR 14 2 3 4 5
M TOR 15 2 3 7 6
M TOR 16 2 3 7 8
M TOR 17 2 5 6 7
M TOR 18 2 5 6 14
M TOR 19 2 5 6 15
M TOR 20 2 7 3 4
M TOR 21 2 7 3 12
M TOR 22 2 7 6 14
M TOR 23 2 7 6 15
M TOR 24 2 7 8 16
M TOR 25 2 7 8 17
M TOR 26 2 7 8 18
M TOR 27 3 2 5 6
M TOR 28 3 2 5 13
M TOR 29 3 4 5 6
M TOR 30 3 4 5 13
M TOR 31 3 7 2 5
M TOR 32 3 7 6 5
M TOR 33 3 7 6 14
M TOR 34 3 7 6 15
M TOR 35 3 7 8 16
M TOR 36 3 7 8 17
M TOR 37 3 7 8 18
M TOR 38 4 3 7 6
M TOR 39 4 3 7 8
M TOR 40 4 5 2 7
M TOR 41 4 5 6 7
M TOR 42 4 5 6 14
M TOR 43 4 5 6 15
M TOR 44 5 2 3 12
M TOR 45 5 2 7 8
M TOR 46 5 4 3 7
M TOR 47 5 4 3 12
M TOR 48 5 6 7 8
M TOR 49 6 7 3 12
M TOR 50 6 7 8 16
M TOR 51 6 7 8 17
M TOR 52 6 7 8 18
M TOR 53 7 2 5 13
M TOR 54 7 6 5 13
M TOR 55 8 7 3 12
M TOR 56 8 7 6 14
M TOR 57 8 7 6 15
M  END
$$$$
