
     RDKit          3D

 19 21  0  0  0  0  0  0  0  0999 V2000
    0.4975   -0.1823    0.5479 O   0  0  0  0  0  0  0  0  0  0  0  0
   -0.6398    0.5842    0.8214 C   0  0  0  0  0  0  0  0  0  0  0  0
   -1.9756    0.0724    0.3342 C   0  0  0  0  0  0  0  0  0  0  0  0
   -3.1508    0.5361    0.9460 O   0  0  0  0  0  0  0  0  0  0  0  0
   -3.1455    1.9662    0.9191 C   0  0  0  0  0  0  0  0  0  0  0  0
   -2.1784    2.3869   -0.1934 C   0  0  0  0  0  0  0  0  0  0  0  0
   -2.6374    3.2145   -1.3662 C   0  0  0  0  0  0  0  0  0  0  0  0
   -1.7193    3.8129   -0.3239 C   0  0  0  0  0  0  0  0  0  0  0  0
   -1.2896    1.1926   -0.4036 C   0  0  0  0  0  0  0  0  0  0  0  0
    0.5017   -0.9322    1.1528 H   0  0  0  0  0  0  0  0  0  0  0  0
   -0.6049    1.1714    1.7400 H   0  0  0  0  0  0  0  0  0  0  0  0
   -2.0624   -0.9386   -0.0475 H   0  0  0  0  0  0  0  0  0  0  0  0
   -4.1729    2.3074    0.7544 H   0  0  0  0  0  0  0  0  0  0  0  0
   -2.8107    2.3551    1.8922 H   0  0  0  0  0  0  0  0  0  0  0  0
   -2.2245    2.9911   -2.3447 H   0  0  0  0  0  0  0  0  0  0  0  0
   -3.6718    3.5425   -1.3846 H   0  0  0  0  0  0  0  0  0  0  0  0
   -0.6843    3.9938   -0.5933 H   0  0  0  0  0  0  0  0  0  0  0  0
   -2.1349    4.5481    0.3590 H   0  0  0  0  0  0  0  0  0  0  0  0
   -0.8044    1.0359   -1.3597 H   0  0  0  0  0  0  0  0  0  0  0  0
  1  2  1  0
  2  3  1  0
  3  4  1  0
  4  5  1  0
  5  6  1  0
  6  7  1  0
  7  8  1  0
  6  9  1  0
  9  2  1  0
  9  3  1  0
  8  6  1  0
  1 10  1  0
  2 11  1  0
  3 12  1  0
  5 13  1  0
  5 14  1  0
  7 15  1  0
  7 16  1  0
  8 17  1  0
  8 18  1  0
  9 19  1  0
M  END
$$$$
