
     RDKit          3D

 19 19  0  0  0  0  0  0  0  0999 V2000
    5.6776    0.2803    4.2214 C   0  0  0  0  0  0  0  0  0  0  0  0
    5.6791   -0.2081    2.7830 C   0  0  0  0  0  0  0  0  0  0  0  0
    6.7064   -0.5606    2.2372 O   0  0  0  0  0  0  0  0  0  0  0  0
    4.3717   -0.2370    2.0740 C   0  0  0  0  0  0  0  0  0  0  0  0
    4.2367   -0.6417    0.8036 C   0  0  0  0  0  0  0  0  0  0  0  0
    2.8197   -0.5504    0.3181 C   0  0  0  0  0  0  0  0  0  0  0  0
    2.0026   -0.3073    1.6069 C   0  0  0  0  0  0  0  0  0  0  0  0
    1.4615   -1.5688    1.9802 O   0  0  0  0  0  0  0  0  0  0  0  0
    3.0382    0.2058    2.6455 C   0  0  0  0  0  0  0  0  0  0  0  0
    5.0557   -0.3713    4.8463 H   0  0  0  0  0  0  0  0  0  0  0  0
    6.6982    0.2863    4.6050 H   0  0  0  0  0  0  0  0  0  0  0  0
    5.2495    1.2869    4.2901 H   0  0  0  0  0  0  0  0  0  0  0  0
    5.0668   -0.9760    0.1928 H   0  0  0  0  0  0  0  0  0  0  0  0
    2.7050    0.2739   -0.3988 H   0  0  0  0  0  0  0  0  0  0  0  0
    2.4699   -1.4584   -0.1840 H   0  0  0  0  0  0  0  0  0  0  0  0
    1.1950    0.4202    1.4495 H   0  0  0  0  0  0  0  0  0  0  0  0
    0.9726   -1.4524    2.8012 H   0  0  0  0  0  0  0  0  0  0  0  0
    2.9914    1.2990    2.7466 H   0  0  0  0  0  0  0  0  0  0  0  0
    2.8254   -0.2100    3.6375 H   0  0  0  0  0  0  0  0  0  0  0  0
  1  2  1  0
  2  3  2  0
  2  4  1  0
  4  5  2  0
  5  6  1  0
  6  7  1  0
  7  8  1  0
  7  9  1  0
  9  4  1  0
  1 10  1  0
  1 11  1  0
  1 12  1  0
  5 13  1  0
  6 14  1  0
  6 15  1  0
  7 16  1  0
  8 17  1  0
  9 18  1  0
  9 19  1  0
M  END
$$$$
