gdb 715	2.6560232	1.7187514	1.4371298	3.6306	73.8	-0.22655	-0.01448	0.21207	978.1537	0.160078	-422.59855	-422.591284	-422.590339	-422.630135	28.84
 OpenBabel02181911403D

 19 20  0  0  1  0  0  0  0  0999 V2000
    1.1613    0.0264   -0.2448 O   0  0  0  0  0  0  0  0  0  0  0  0
   -0.0319   -0.0070   -0.0667 C   0  0  0  0  0  0  0  0  0  0  0  0
   -0.9104    1.2295    0.0915 C   0  0  0  0  0  0  0  0  0  0  0  0
   -2.2285    1.1170   -0.7188 C   0  0  0  0  0  0  0  0  0  0  0  0
   -2.8282   -0.3036   -0.6788 C   0  0  2  0  0  0  0  0  0  0  0  0
   -2.9842   -0.8161    0.7595 C   0  0  0  0  0  0  0  0  0  0  0  0
   -1.6874   -1.3038    1.1381 O   0  0  0  0  0  0  0  0  0  0  0  0
   -0.8337   -1.3136   -0.0124 C   0  0  1  0  0  0  0  0  0  0  0  0
   -1.7926   -1.3122   -1.2123 C   0  0  0  0  0  0  0  0  0  0  0  0
   -1.1461    1.3086    1.1600 H   0  0  0  0  0  0  0  0  0  0  0  0
   -0.3341    2.1150   -0.1847 H   0  0  0  0  0  0  0  0  0  0  0  0
   -2.9539    1.8446   -0.3388 H   0  0  0  0  0  0  0  0  0  0  0  0
   -2.0351    1.3850   -1.7643 H   0  0  0  0  0  0  0  0  0  0  0  0
   -3.7732   -0.3329   -1.2274 H   0  0  0  0  0  0  0  0  0  0  0  0
   -3.2900   -0.0341    1.4643 H   0  0  0  0  0  0  0  0  0  0  0  0
   -3.7134   -1.6352    0.8209 H   0  0  0  0  0  0  0  0  0  0  0  0
   -0.1586   -2.1691    0.0494 H   0  0  0  0  0  0  0  0  0  0  0  0
   -1.3157   -0.9973   -2.1447 H   0  0  0  0  0  0  0  0  0  0  0  0
   -2.2260   -2.3061   -1.3607 H   0  0  0  0  0  0  0  0  0  0  0  0
  1  2  2  0  0  0  0
  2  8  1  0  0  0  0
  2  3  1  0  0  0  0
  3 10  1  0  0  0  0
  4  5  1  0  0  0  0
  4 12  1  0  0  0  0
  4  3  1  0  0  0  0
  5 14  1  6  0  0  0
  5  6  1  0  0  0  0
  6 16  1  0  0  0  0
  6  7  1  0  0  0  0
  6 15  1  0  0  0  0
  8 17  1  6  0  0  0
  8  7  1  0  0  0  0
  9  5  1  0  0  0  0
  9  8  1  0  0  0  0
 11  3  1  0  0  0  0
 13  4  1  0  0  0  0
 18  9  1  0  0  0  0
 19  9  1  0  0  0  0
M TOR 0 0 1 2 3
M TOR 1 0 1 2 9
M TOR 2 0 1 2 10
M TOR 3 0 1 7 6
M TOR 4 0 1 7 8
M TOR 5 0 1 7 16
M TOR 6 1 2 3 4
M TOR 7 1 2 3 11
M TOR 8 1 2 3 12
M TOR 9 1 7 6 5
M TOR 10 1 7 8 4
M TOR 11 1 7 8 17
M TOR 12 1 7 8 18
M TOR 13 2 1 7 6
M TOR 14 2 1 7 8
M TOR 15 2 1 7 16
M TOR 16 2 3 4 5
M TOR 17 2 3 4 8
M TOR 18 2 3 4 13
M TOR 19 3 2 1 7
M TOR 20 3 4 5 6
M TOR 21 3 4 5 14
M TOR 22 3 4 5 15
M TOR 23 3 4 8 7
M TOR 24 3 4 8 17
M TOR 25 3 4 8 18
M TOR 26 4 3 2 9
M TOR 27 4 3 2 10
M TOR 28 4 5 6 7
M TOR 29 4 8 7 6
M TOR 30 4 8 7 16
M TOR 31 5 4 3 11
M TOR 32 5 4 3 12
M TOR 33 5 4 8 7
M TOR 34 5 4 8 17
M TOR 35 5 4 8 18
M TOR 36 5 6 7 8
M TOR 37 5 6 7 16
M TOR 38 6 5 4 8
M TOR 39 6 5 4 13
M TOR 40 6 7 8 17
M TOR 41 6 7 8 18
M TOR 42 7 1 2 9
M TOR 43 7 1 2 10
M TOR 44 7 6 5 14
M TOR 45 7 6 5 15
M TOR 46 7 8 4 13
M TOR 47 8 4 3 11
M TOR 48 8 4 3 12
M TOR 49 8 4 5 14
M TOR 50 8 4 5 15
M  END
$$$$
