gdb 5620	2.2995701	1.5455504	1.0305015	1.0331	77.17	-0.22427	0.00992	0.23419	1179.4844	0.156488	-422.535222	-422.52654	-422.525595	-422.568556	32.646
 OpenBabel02181911423D

 19 20  0  0  1  0  0  0  0  0999 V2000
    1.4948   -0.1249    0.0105 C   0  0  0  0  0  0  0  0  0  0  0  0
    0.0944    0.0320   -0.0355 O   0  0  0  0  0  0  0  0  0  0  0  0
   -0.4332    0.7134    1.0936 C   0  0  2  0  0  0  0  0  0  0  0  0
   -1.9470    0.7182    0.9948 C   0  0  0  0  0  0  0  0  0  0  0  0
   -2.4571    1.9484    1.0711 C   0  0  0  0  0  0  0  0  0  0  0  0
   -1.3902    2.9832    1.1796 C   0  0  2  0  0  0  0  0  0  0  0  0
   -0.4419    3.0529   -0.0108 C   0  0  1  0  0  0  0  0  0  0  0  0
    0.3541    4.1868   -0.1764 O   0  0  0  0  0  0  0  0  0  0  0  0
   -0.0815    2.2055    1.1705 C   0  0  2  0  0  0  0  0  0  0  0  0
    1.8125   -0.6668    0.9162 H   0  0  0  0  0  0  0  0  0  0  0  0
    1.7842   -0.7078   -0.8674 H   0  0  0  0  0  0  0  0  0  0  0  0
    2.0206    0.8404   -0.0164 H   0  0  0  0  0  0  0  0  0  0  0  0
   -0.0896    0.1927    2.0056 H   0  0  0  0  0  0  0  0  0  0  0  0
   -2.5014   -0.1997    0.8422 H   0  0  0  0  0  0  0  0  0  0  0  0
   -3.5122    2.1930    1.0160 H   0  0  0  0  0  0  0  0  0  0  0  0
   -1.5134    3.8741    1.7846 H   0  0  0  0  0  0  0  0  0  0  0  0
   -0.7512    2.5461   -0.9244 H   0  0  0  0  0  0  0  0  0  0  0  0
   -0.1721    4.8549   -0.6283 H   0  0  0  0  0  0  0  0  0  0  0  0
    0.7538    2.5436    1.7705 H   0  0  0  0  0  0  0  0  0  0  0  0
  1 10  1  0  0  0  0
  2  1  1  0  0  0  0
  2  3  1  0  0  0  0
  3  9  1  0  0  0  0
  3 13  1  1  0  0  0
  4  5  2  0  0  0  0
  4  3  1  0  0  0  0
  5  6  1  0  0  0  0
  6 16  1  1  0  0  0
  7 17  1  6  0  0  0
  7  9  1  0  0  0  0
  7  6  1  0  0  0  0
  8  7  1  0  0  0  0
  9  6  1  0  0  0  0
  9 19  1  1  0  0  0
 11  1  1  0  0  0  0
 12  1  1  0  0  0  0
 14  4  1  0  0  0  0
 15  5  1  0  0  0  0
 18  8  1  0  0  0  0
M TOR 0 0 1 2 3
M TOR 1 0 1 2 8
M TOR 2 0 1 2 12
M TOR 3 1 2 3 4
M TOR 4 1 2 3 13
M TOR 5 1 2 8 5
M TOR 6 1 2 8 6
M TOR 7 1 2 8 18
M TOR 8 2 1 0 9
M TOR 9 2 1 0 10
M TOR 10 2 1 0 11
M TOR 11 2 3 4 5
M TOR 12 2 3 4 14
M TOR 13 2 8 5 4
M TOR 14 2 8 5 6
M TOR 15 2 8 5 15
M TOR 16 2 8 6 7
M TOR 17 2 8 6 16
M TOR 18 3 2 8 5
M TOR 19 3 2 8 6
M TOR 20 3 2 8 18
M TOR 21 3 4 5 6
M TOR 22 3 4 5 8
M TOR 23 3 4 5 15
M TOR 24 4 3 2 8
M TOR 25 4 3 2 12
M TOR 26 4 5 6 7
M TOR 27 4 5 6 8
M TOR 28 4 5 6 16
M TOR 29 4 5 8 18
M TOR 30 5 4 3 13
M TOR 31 5 6 7 17
M TOR 32 5 6 8 18
M TOR 33 5 8 2 12
M TOR 34 5 8 6 7
M TOR 35 5 8 6 16
M TOR 36 6 5 4 14
M TOR 37 6 8 2 12
M TOR 38 6 8 5 15
M TOR 39 7 6 5 15
M TOR 40 7 6 8 18
M TOR 41 8 2 3 13
M TOR 42 8 5 4 14
M TOR 43 8 6 7 17
M  END
$$$$
