
     RDKit          3D

 19 21  0  0  0  0  0  0  0  0999 V2000
    1.1501    0.8828   -3.2603 C   0  0  0  0  0  0  0  0  0  0  0  0
    0.3407    0.0560   -2.2941 C   0  0  0  0  0  0  0  0  0  0  0  0
   -1.0776   -0.4764   -2.6893 C   0  0  0  0  0  0  0  0  0  0  0  0
   -0.4903   -1.4609   -3.6075 O   0  0  0  0  0  0  0  0  0  0  0  0
    0.3432   -1.5082   -2.3937 C   0  0  0  0  0  0  0  0  0  0  0  0
   -0.9180   -1.4502   -1.4884 C   0  0  0  0  0  0  0  0  0  0  0  0
   -0.6159   -0.6531   -0.2284 C   0  0  0  0  0  0  0  0  0  0  0  0
    0.3315    0.4365   -0.8178 C   0  0  0  0  0  0  0  0  0  0  0  0
    1.6672    0.3591   -0.3370 O   0  0  0  0  0  0  0  0  0  0  0  0
    2.1987    0.9139   -2.9510 H   0  0  0  0  0  0  0  0  0  0  0  0
    1.0853    0.4551   -4.2639 H   0  0  0  0  0  0  0  0  0  0  0  0
    0.7840    1.9154   -3.2981 H   0  0  0  0  0  0  0  0  0  0  0  0
   -1.9553    0.0762   -3.0299 H   0  0  0  0  0  0  0  0  0  0  0  0
    1.1850   -2.2005   -2.3797 H   0  0  0  0  0  0  0  0  0  0  0  0
   -1.5629   -2.3271   -1.4539 H   0  0  0  0  0  0  0  0  0  0  0  0
   -1.5183   -0.2322    0.2268 H   0  0  0  0  0  0  0  0  0  0  0  0
   -0.0932   -1.2437    0.5304 H   0  0  0  0  0  0  0  0  0  0  0  0
   -0.0689    1.4507   -0.6693 H   0  0  0  0  0  0  0  0  0  0  0  0
    1.6701    0.6229    0.5882 H   0  0  0  0  0  0  0  0  0  0  0  0
  1  2  1  0
  2  3  1  0
  3  4  1  0
  4  5  1  0
  5  6  1  0
  6  7  1  0
  7  8  1  0
  8  9  1  0
  5  2  1  0
  8  2  1  0
  6  3  1  0
  1 10  1  0
  1 11  1  0
  1 12  1  0
  3 13  1  0
  5 14  1  0
  6 15  1  0
  7 16  1  0
  7 17  1  0
  8 18  1  0
  9 19  1  0
M  END
$$$$
