gdb 512	2.9849878	1.904294	1.5545944	0.9405	73.53	-0.23566	0.07967	0.31533	914.6816	0.16002	-422.53753	-422.530956	-422.530011	-422.567981	27.908
 OpenBabel02181911403D

 19 21  0  0  1  0  0  0  0  0999 V2000
    0.6779    0.7569    1.4073 C   0  0  0  0  0  0  0  0  0  0  0  0
   -0.5634    1.2380    0.5607 C   0  0  0  0  0  0  0  0  0  0  0  0
    0.1020    0.5536   -0.6392 C   0  0  1  0  0  0  0  0  0  0  0  0
   -0.0194   -0.9776   -0.8138 C   0  0  0  0  0  0  0  0  0  0  0  0
    1.3634   -0.9875   -1.4721 C   0  0  1  0  0  0  0  0  0  0  0  0
    1.1463    0.1083   -2.5570 C   0  0  0  0  0  0  0  0  0  0  0  0
    0.1496    1.0040   -1.9854 O   0  0  0  0  0  0  0  0  0  0  0  0
    2.2067   -0.4783   -0.4117 O   0  0  0  0  0  0  0  0  0  0  0  0
    1.4535    0.6462    0.0552 C   0  0  2  0  0  0  0  0  0  0  0  0
    1.0744    1.4589    2.1416 H   0  0  0  0  0  0  0  0  0  0  0  0
    0.5100   -0.2090    1.8854 H   0  0  0  0  0  0  0  0  0  0  0  0
   -1.5568    0.8986    0.8581 H   0  0  0  0  0  0  0  0  0  0  0  0
   -0.5695    2.3254    0.4538 H   0  0  0  0  0  0  0  0  0  0  0  0
   -0.0468   -1.5662    0.1028 H   0  0  0  0  0  0  0  0  0  0  0  0
   -0.8518   -1.2365   -1.4711 H   0  0  0  0  0  0  0  0  0  0  0  0
    1.7879   -1.9219   -1.8367 H   0  0  0  0  0  0  0  0  0  0  0  0
    2.0752    0.6525   -2.7604 H   0  0  0  0  0  0  0  0  0  0  0  0
    0.7559   -0.3050   -3.4931 H   0  0  0  0  0  0  0  0  0  0  0  0
    1.9908    1.5761   -0.1586 H   0  0  0  0  0  0  0  0  0  0  0  0
  1 11  1  0  0  0  0
  1 10  1  0  0  0  0
  2 12  1  0  0  0  0
  2  1  1  0  0  0  0
  3  7  1  6  0  0  0
  3  9  1  0  0  0  0
  3  2  1  0  0  0  0
  4  3  1  0  0  0  0
  4 14  1  0  0  0  0
  5 16  1  6  0  0  0
  5  4  1  0  0  0  0
  5  8  1  0  0  0  0
  6  7  1  0  0  0  0
  6  5  1  0  0  0  0
  8  9  1  0  0  0  0
  9 19  1  6  0  0  0
  9  1  1  0  0  0  0
 13  2  1  0  0  0  0
 15  4  1  0  0  0  0
 17  6  1  0  0  0  0
 18  6  1  0  0  0  0
M TOR 0 0 1 2 3
M TOR 1 0 1 2 6
M TOR 2 0 1 2 8
M TOR 3 0 8 2 3
M TOR 4 0 8 2 6
M TOR 5 0 8 7 4
M TOR 6 1 0 8 7
M TOR 7 1 0 8 18
M TOR 8 1 2 3 4
M TOR 9 1 2 3 13
M TOR 10 1 2 3 14
M TOR 11 1 2 6 5
M TOR 12 1 2 8 7
M TOR 13 1 2 8 18
M TOR 14 2 1 0 9
M TOR 15 2 1 0 10
M TOR 16 2 3 4 5
M TOR 17 2 3 4 7
M TOR 18 2 3 4 15
M TOR 19 2 6 5 4
M TOR 20 2 6 5 16
M TOR 21 2 6 5 17
M TOR 22 2 8 0 9
M TOR 23 2 8 0 10
M TOR 24 2 8 7 4
M TOR 25 3 2 1 11
M TOR 26 3 2 1 12
M TOR 27 3 2 6 5
M TOR 28 3 2 8 7
M TOR 29 3 2 8 18
M TOR 30 3 4 5 6
M TOR 31 3 4 5 16
M TOR 32 3 4 5 17
M TOR 33 3 4 7 8
M TOR 34 4 3 2 6
M TOR 35 4 3 2 8
M TOR 36 4 7 8 18
M TOR 37 5 4 3 13
M TOR 38 5 4 3 14
M TOR 39 5 4 7 8
M TOR 40 5 6 2 8
M TOR 41 6 2 1 11
M TOR 42 6 2 1 12
M TOR 43 6 2 3 13
M TOR 44 6 2 3 14
M TOR 45 6 2 8 7
M TOR 46 6 2 8 18
M TOR 47 6 5 4 7
M TOR 48 6 5 4 15
M TOR 49 7 4 3 13
M TOR 50 7 4 3 14
M TOR 51 7 4 5 16
M TOR 52 7 4 5 17
M TOR 53 7 8 0 9
M TOR 54 7 8 0 10
M TOR 55 8 0 1 11
M TOR 56 8 0 1 12
M TOR 57 8 2 1 11
M TOR 58 8 2 1 12
M TOR 59 8 2 3 13
M TOR 60 8 2 3 14
M TOR 61 8 7 4 15
M  END
$$$$
