
     RDKit          3D

 19 20  0  0  0  0  0  0  0  0999 V2000
    1.1807   -0.0030   -0.1451 O   0  0  0  0  0  0  0  0  0  0  0  0
   -0.0231   -0.0219   -0.0445 C   0  0  0  0  0  0  0  0  0  0  0  0
   -0.8655    1.2509    0.0444 C   0  0  0  0  0  0  0  0  0  0  0  0
   -2.2228    1.1585   -0.6919 C   0  0  0  0  0  0  0  0  0  0  0  0
   -2.8197   -0.2505   -0.5663 C   0  0  0  0  0  0  0  0  0  0  0  0
   -1.8509   -1.2861   -1.1451 C   0  0  0  0  0  0  0  0  0  0  0  0
   -0.8229   -1.3217    0.0083 C   0  0  0  0  0  0  0  0  0  0  0  0
   -1.7837   -1.3485    1.2133 C   0  0  0  0  0  0  0  0  0  0  0  0
   -2.9441   -0.6107    0.8182 O   0  0  0  0  0  0  0  0  0  0  0  0
   -1.0631    1.4079    1.1132 H   0  0  0  0  0  0  0  0  0  0  0  0
   -0.2606    2.0941   -0.2950 H   0  0  0  0  0  0  0  0  0  0  0  0
   -2.9181    1.8951   -0.2785 H   0  0  0  0  0  0  0  0  0  0  0  0
   -2.0990    1.3943   -1.7559 H   0  0  0  0  0  0  0  0  0  0  0  0
   -3.8186   -0.2929   -1.0098 H   0  0  0  0  0  0  0  0  0  0  0  0
   -2.3301   -2.2624   -1.2655 H   0  0  0  0  0  0  0  0  0  0  0  0
   -1.4218   -0.9886   -2.1053 H   0  0  0  0  0  0  0  0  0  0  0  0
   -0.1358   -2.1682   -0.0149 H   0  0  0  0  0  0  0  0  0  0  0  0
   -2.0659   -2.3834    1.4504 H   0  0  0  0  0  0  0  0  0  0  0  0
   -1.3564   -0.8985    2.1173 H   0  0  0  0  0  0  0  0  0  0  0  0
  1  2  2  0
  2  3  1  0
  3  4  1  0
  4  5  1  0
  5  6  1  0
  6  7  1  0
  7  8  1  0
  8  9  1  0
  7  2  1  0
  9  5  1  0
  3 10  1  0
  3 11  1  0
  4 12  1  0
  4 13  1  0
  5 14  1  0
  6 15  1  0
  6 16  1  0
  7 17  1  0
  8 18  1  0
  8 19  1  0
M  END
$$$$
