
     RDKit          3D

 19 21  0  0  0  0  0  0  0  0999 V2000
    1.6056   -1.1609   -0.9576 C   0  0  0  0  0  0  0  0  0  0  0  0
    1.3931   -0.0388    0.0453 C   0  0  0  0  0  0  0  0  0  0  0  0
    2.2331    1.2701    0.0639 C   0  0  0  0  0  0  0  0  0  0  0  0
    3.7039    0.8023    0.1423 C   0  0  0  0  0  0  0  0  0  0  0  0
    3.4830   -0.2457    1.2486 C   0  0  0  0  0  0  0  0  0  0  0  0
    4.2542   -1.4629    1.5024 C   0  0  0  0  0  0  0  0  0  0  0  0
    4.3565   -0.3212    2.3641 O   0  0  0  0  0  0  0  0  0  0  0  0
    1.9867   -0.0547    1.4812 C   0  0  0  0  0  0  0  0  0  0  0  0
    1.8933    1.4058    1.4802 O   0  0  0  0  0  0  0  0  0  0  0  0
    1.0245   -2.0449   -0.6741 H   0  0  0  0  0  0  0  0  0  0  0  0
    1.2694   -0.8558   -1.9544 H   0  0  0  0  0  0  0  0  0  0  0  0
    2.6525   -1.4652   -1.0355 H   0  0  0  0  0  0  0  0  0  0  0  0
    0.3374    0.2336    0.1191 H   0  0  0  0  0  0  0  0  0  0  0  0
    1.9919    2.1455   -0.5390 H   0  0  0  0  0  0  0  0  0  0  0  0
    4.0942    0.3907   -0.7922 H   0  0  0  0  0  0  0  0  0  0  0  0
    4.3600    1.6045    0.4859 H   0  0  0  0  0  0  0  0  0  0  0  0
    3.7737   -2.3373    1.9415 H   0  0  0  0  0  0  0  0  0  0  0  0
    5.1380   -1.6774    0.9023 H   0  0  0  0  0  0  0  0  0  0  0  0
    1.5268   -0.5442    2.3393 H   0  0  0  0  0  0  0  0  0  0  0  0
  1  2  1  0
  2  3  1  0
  3  4  1  0
  4  5  1  0
  5  6  1  0
  6  7  1  0
  5  8  1  0
  8  9  1  0
  8  2  1  0
  9  3  1  0
  7  5  1  0
  1 10  1  0
  1 11  1  0
  1 12  1  0
  2 13  1  0
  3 14  1  0
  4 15  1  0
  4 16  1  0
  6 17  1  0
  6 18  1  0
  8 19  1  0
M  END
$$$$
