
     RDKit          3D

 19 20  0  0  0  0  0  0  0  0999 V2000
    0.1292   -2.3427    0.5320 C   0  0  0  0  0  0  0  0  0  0  0  0
   -0.8485   -1.3062   -0.0050 C   0  0  0  0  0  0  0  0  0  0  0  0
   -1.8959   -1.1501    0.9441 O   0  0  0  0  0  0  0  0  0  0  0  0
   -2.8480   -0.1666    0.5794 C   0  0  0  0  0  0  0  0  0  0  0  0
   -2.2234    1.2146    0.5668 C   0  0  0  0  0  0  0  0  0  0  0  0
   -1.1453    1.4923    1.5586 C   0  0  0  0  0  0  0  0  0  0  0  0
   -0.7800    1.2772    0.0880 C   0  0  0  0  0  0  0  0  0  0  0  0
   -0.1433    0.0134   -0.3658 C   0  0  0  0  0  0  0  0  0  0  0  0
    0.8457    0.0019   -1.0671 O   0  0  0  0  0  0  0  0  0  0  0  0
    0.5271   -2.0250    1.5003 H   0  0  0  0  0  0  0  0  0  0  0  0
   -0.3724   -3.3043    0.6625 H   0  0  0  0  0  0  0  0  0  0  0  0
    0.9581   -2.4537   -0.1690 H   0  0  0  0  0  0  0  0  0  0  0  0
   -1.2747   -1.6681   -0.9592 H   0  0  0  0  0  0  0  0  0  0  0  0
   -3.2873   -0.3989   -0.4055 H   0  0  0  0  0  0  0  0  0  0  0  0
   -3.6460   -0.2273    1.3266 H   0  0  0  0  0  0  0  0  0  0  0  0
   -2.8779    2.0264    0.2641 H   0  0  0  0  0  0  0  0  0  0  0  0
   -1.0191    2.5040    1.9256 H   0  0  0  0  0  0  0  0  0  0  0  0
   -0.8947    0.7094    2.2635 H   0  0  0  0  0  0  0  0  0  0  0  0
   -0.4362    2.1499   -0.4555 H   0  0  0  0  0  0  0  0  0  0  0  0
  1  2  1  0
  2  3  1  0
  3  4  1  0
  4  5  1  0
  5  6  1  0
  6  7  1  0
  7  8  1  0
  8  9  2  0
  8  2  1  0
  7  5  1  0
  1 10  1  0
  1 11  1  0
  1 12  1  0
  2 13  1  0
  4 14  1  0
  4 15  1  0
  5 16  1  0
  6 17  1  0
  6 18  1  0
  7 19  1  0
M  END
$$$$
