
     RDKit          3D

 19 21  0  0  0  0  0  0  0  0999 V2000
   -0.0072    0.1671    0.0067 C   0  0  0  0  0  0  0  0  0  0  0  0
    1.4775    0.0134    0.0986 C   0  0  0  0  0  0  0  0  0  0  0  0
    2.3462   -1.2914    0.2876 C   0  0  0  0  0  0  0  0  0  0  0  0
    3.2752   -0.1046   -0.0438 C   0  0  0  0  0  0  0  0  0  0  0  0
    4.6250    0.5165   -0.2423 C   0  0  0  0  0  0  0  0  0  0  0  0
    4.1956    2.0144   -0.0687 C   0  0  0  0  0  0  0  0  0  0  0  0
    2.9951    2.0670    0.7417 O   0  0  0  0  0  0  0  0  0  0  0  0
    2.5491    0.7619    0.9738 C   0  0  0  0  0  0  0  0  0  0  0  0
    2.2919    0.3182   -1.0901 O   0  0  0  0  0  0  0  0  0  0  0  0
   -0.4781   -0.1072    0.9557 H   0  0  0  0  0  0  0  0  0  0  0  0
   -0.2617    1.2068   -0.2197 H   0  0  0  0  0  0  0  0  0  0  0  0
   -0.4156   -0.4719   -0.7825 H   0  0  0  0  0  0  0  0  0  0  0  0
    2.4178   -1.7416    1.2816 H   0  0  0  0  0  0  0  0  0  0  0  0
    2.2155   -2.0244   -0.5079 H   0  0  0  0  0  0  0  0  0  0  0  0
    5.3195    0.1993    0.5414 H   0  0  0  0  0  0  0  0  0  0  0  0
    5.0767    0.3355   -1.2196 H   0  0  0  0  0  0  0  0  0  0  0  0
    4.9693    2.6103    0.4262 H   0  0  0  0  0  0  0  0  0  0  0  0
    3.9741    2.4554   -1.0447 H   0  0  0  0  0  0  0  0  0  0  0  0
    2.5799    0.5003    2.0381 H   0  0  0  0  0  0  0  0  0  0  0  0
  1  2  1  0
  2  3  1  0
  3  4  1  0
  4  5  1  0
  5  6  1  0
  6  7  1  0
  7  8  1  0
  4  9  1  0
  8  2  1  0
  9  2  1  0
  8  4  1  0
  1 10  1  0
  1 11  1  0
  1 12  1  0
  3 13  1  0
  3 14  1  0
  5 15  1  0
  5 16  1  0
  6 17  1  0
  6 18  1  0
  8 19  1  0
M  END
$$$$
