
     RDKit          3D

 19 19  0  0  0  0  0  0  0  0999 V2000
    0.3629    1.1036    0.0608 O   0  0  0  0  0  0  0  0  0  0  0  0
   -0.7212    0.5307    0.7911 C   0  0  0  0  0  0  0  0  0  0  0  0
   -0.2085   -0.2957    1.9786 C   0  0  0  0  0  0  0  0  0  0  0  0
   -1.2614   -0.6558    3.0329 C   0  0  0  0  0  0  0  0  0  0  0  0
   -0.6327   -1.2652    4.1650 O   0  0  0  0  0  0  0  0  0  0  0  0
   -2.4044   -1.5195    2.5653 C   0  0  0  0  0  0  0  0  0  0  0  0
   -2.8420   -1.7674    1.3224 C   0  0  0  0  0  0  0  0  0  0  0  0
   -2.3871   -1.2418    0.0352 C   0  0  0  0  0  0  0  0  0  0  0  0
   -1.5032   -0.2690   -0.2145 C   0  0  0  0  0  0  0  0  0  0  0  0
    0.8728    1.6472    0.6694 H   0  0  0  0  0  0  0  0  0  0  0  0
   -1.3724    1.3368    1.1780 H   0  0  0  0  0  0  0  0  0  0  0  0
    0.2669   -1.2077    1.5986 H   0  0  0  0  0  0  0  0  0  0  0  0
    0.5675    0.2786    2.4984 H   0  0  0  0  0  0  0  0  0  0  0  0
   -1.6786    0.2747    3.4438 H   0  0  0  0  0  0  0  0  0  0  0  0
   -0.3193   -2.1325    3.8836 H   0  0  0  0  0  0  0  0  0  0  0  0
   -2.9203   -2.0030    3.3924 H   0  0  0  0  0  0  0  0  0  0  0  0
   -3.6830   -2.4533    1.2417 H   0  0  0  0  0  0  0  0  0  0  0  0
   -2.8697   -1.6969   -0.8263 H   0  0  0  0  0  0  0  0  0  0  0  0
   -1.3007    0.0124   -1.2438 H   0  0  0  0  0  0  0  0  0  0  0  0
  1  2  1  0
  2  3  1  0
  3  4  1  0
  4  5  1  0
  4  6  1  0
  6  7  2  0
  7  8  1  0
  8  9  2  0
  9  2  1  0
  1 10  1  0
  2 11  1  0
  3 12  1  0
  3 13  1  0
  4 14  1  0
  5 15  1  0
  6 16  1  0
  7 17  1  0
  8 18  1  0
  9 19  1  0
M  END
$$$$
