gdb 4549	2.325511	1.6749555	1.1052693	2.2141	77.55	-0.23064	-0.01542	0.21522000000000002	1127.0992	0.156829	-422.57723	-422.568597	-422.567653	-422.610727	32.341
 OpenBabel02181911413D

 19 19  0  0  1  0  0  0  0  0999 V2000
   -0.6687   -2.0464    1.2303 C   0  0  0  0  0  0  0  0  0  0  0  0
   -0.7989   -1.2184   -0.0475 C   0  0  1  0  0  0  0  0  0  0  0  0
   -2.1763   -1.0817   -0.3439 O   0  0  0  0  0  0  0  0  0  0  0  0
   -2.4704   -0.7799   -1.6924 C   0  0  0  0  0  0  0  0  0  0  0  0
   -2.0922    0.6057   -2.1355 C   0  0  0  0  0  0  0  0  0  0  0  0
   -1.4757    1.5371   -1.4093 C   0  0  0  0  0  0  0  0  0  0  0  0
   -0.9790    1.3789    0.0149 C   0  0  0  0  0  0  0  0  0  0  0  0
   -0.0957    0.1407    0.1389 C   0  0  0  0  0  0  0  0  0  0  0  0
    1.0879    0.1931    0.3681 O   0  0  0  0  0  0  0  0  0  0  0  0
   -1.0896   -3.0425    1.0751 H   0  0  0  0  0  0  0  0  0  0  0  0
    0.3839   -2.1321    1.5065 H   0  0  0  0  0  0  0  0  0  0  0  0
   -1.2122   -1.5676    2.0507 H   0  0  0  0  0  0  0  0  0  0  0  0
   -0.2810   -1.7371   -0.8708 H   0  0  0  0  0  0  0  0  0  0  0  0
   -1.9983   -1.5225   -2.3622 H   0  0  0  0  0  0  0  0  0  0  0  0
   -3.5544   -0.9161   -1.7981 H   0  0  0  0  0  0  0  0  0  0  0  0
   -2.3755    0.8396   -3.1604 H   0  0  0  0  0  0  0  0  0  0  0  0
   -1.2641    2.4956   -1.8741 H   0  0  0  0  0  0  0  0  0  0  0  0
   -0.3825    2.2422    0.3141 H   0  0  0  0  0  0  0  0  0  0  0  0
   -1.8237    1.2787    0.7062 H   0  0  0  0  0  0  0  0  0  0  0  0
  1 11  1  0  0  0  0
  1 12  1  0  0  0  0
  2 13  1  6  0  0  0
  2  8  1  0  0  0  0
  2  1  1  0  0  0  0
  3  2  1  0  0  0  0
  4  3  1  0  0  0  0
  5  4  1  0  0  0  0
  5  6  2  0  0  0  0
  6  7  1  0  0  0  0
  7  8  1  0  0  0  0
  7 18  1  0  0  0  0
  7 19  1  0  0  0  0
  8  9  2  0  0  0  0
 10  1  1  0  0  0  0
 14  4  1  0  0  0  0
 15  4  1  0  0  0  0
 16  5  1  0  0  0  0
 17  6  1  0  0  0  0
M TOR 0 0 1 2 3
M TOR 1 0 1 7 6
M TOR 2 0 1 7 8
M TOR 3 1 2 3 4
M TOR 4 1 2 3 13
M TOR 5 1 2 3 14
M TOR 6 1 7 6 5
M TOR 7 1 7 6 17
M TOR 8 1 7 6 18
M TOR 9 2 1 0 9
M TOR 10 2 1 0 10
M TOR 11 2 1 0 11
M TOR 12 2 1 7 6
M TOR 13 2 1 7 8
M TOR 14 2 3 4 5
M TOR 15 2 3 4 15
M TOR 16 3 2 1 7
M TOR 17 3 2 1 12
M TOR 18 3 4 5 6
M TOR 19 3 4 5 16
M TOR 20 4 5 6 7
M TOR 21 4 5 6 17
M TOR 22 4 5 6 18
M TOR 23 5 4 3 13
M TOR 24 5 4 3 14
M TOR 25 5 6 7 8
M TOR 26 6 5 4 15
M TOR 27 6 7 1 12
M TOR 28 7 1 0 9
M TOR 29 7 1 0 10
M TOR 30 7 1 0 11
M TOR 31 7 6 5 16
M TOR 32 8 7 1 12
M TOR 33 8 7 6 17
M TOR 34 8 7 6 18
M  END
$$$$
