gdb 5875	5.2440923	0.5382151	0.5289795	2.6227	83.18	-0.24893	0.02866	0.27759	2130.6239	0.15517	-422.477624	-422.467572	-422.466627	-422.515168	33.589
 OpenBabel02181911423D

 19 19  0  0  0  0  0  0  0  0999 V2000
   -2.5971    2.2015   -5.6442 C   0  0  0  0  0  0  0  0  0  0  0  0
   -1.9044    1.8360   -4.4733 O   0  0  0  0  0  0  0  0  0  0  0  0
   -2.3050    2.6089   -3.3582 C   0  0  0  0  0  0  0  0  0  0  0  0
   -1.5670    2.2007   -2.1709 C   0  0  0  0  0  0  0  0  0  0  0  0
   -0.9704    1.8820   -1.1744 C   0  0  0  0  0  0  0  0  0  0  0  0
   -0.2375    1.4766    0.0044 C   0  0  0  0  0  0  0  0  0  0  0  0
    1.3116    1.3562   -0.0725 C   0  0  0  0  0  0  0  0  0  0  0  0
    1.2745    0.0347    0.4963 O   0  0  0  0  0  0  0  0  0  0  0  0
   -0.1568   -0.0352    0.3621 C   0  0  0  0  0  0  0  0  0  0  0  0
   -2.2307    1.5611   -6.4494 H   0  0  0  0  0  0  0  0  0  0  0  0
   -3.6844    2.0566   -5.5394 H   0  0  0  0  0  0  0  0  0  0  0  0
   -2.4171    3.2543   -5.9154 H   0  0  0  0  0  0  0  0  0  0  0  0
   -2.1336    3.6824   -3.5539 H   0  0  0  0  0  0  0  0  0  0  0  0
   -3.3894    2.4945   -3.1818 H   0  0  0  0  0  0  0  0  0  0  0  0
   -0.5459    2.0719    0.8686 H   0  0  0  0  0  0  0  0  0  0  0  0
    1.6993    1.3564   -1.0987 H   0  0  0  0  0  0  0  0  0  0  0  0
    1.8890    2.0566    0.5402 H   0  0  0  0  0  0  0  0  0  0  0  0
   -0.4658   -0.6950   -0.4578 H   0  0  0  0  0  0  0  0  0  0  0  0
   -0.6467   -0.3462    1.2908 H   0  0  0  0  0  0  0  0  0  0  0  0
  1 11  1  0  0  0  0
  1  2  1  0  0  0  0
  2  3  1  0  0  0  0
  3 14  1  0  0  0  0
  3  4  1  0  0  0  0
  4  5  3  0  0  0  0
  5  6  1  0  0  0  0
  6  9  1  0  0  0  0
  6 15  1  0  0  0  0
  7  6  1  0  0  0  0
  7  8  1  0  0  0  0
  7 17  1  0  0  0  0
  9  8  1  0  0  0  0
  9 19  1  0  0  0  0
 10  1  1  0  0  0  0
 12  1  1  0  0  0  0
 13  3  1  0  0  0  0
 16  7  1  0  0  0  0
 18  9  1  0  0  0  0
M TOR 0 0 1 2 3
M TOR 1 0 1 2 12
M TOR 2 0 1 2 13
M TOR 3 1 2 3 4
M TOR 4 2 1 0 9
M TOR 5 2 1 0 10
M TOR 6 2 1 0 11
M TOR 7 2 3 4 5
M TOR 8 3 4 5 6
M TOR 9 3 4 5 8
M TOR 10 3 4 5 14
M TOR 11 4 3 2 12
M TOR 12 4 3 2 13
M TOR 13 4 5 6 7
M TOR 14 4 5 6 15
M TOR 15 4 5 6 16
M TOR 16 4 5 8 7
M TOR 17 4 5 8 17
M TOR 18 4 5 8 18
M TOR 19 5 6 7 8
M TOR 20 6 5 8 17
M TOR 21 6 5 8 18
M TOR 22 6 7 8 17
M TOR 23 6 7 8 18
M TOR 24 7 6 5 14
M TOR 25 7 8 5 14
M TOR 26 8 5 6 15
M TOR 27 8 5 6 16
M TOR 28 8 7 6 15
M TOR 29 8 7 6 16
M  END
$$$$
