
     RDKit          3D

 19 20  0  0  0  0  0  0  0  0999 V2000
   -0.2639   -0.3022   -0.1680 C   0  0  0  0  0  0  0  0  0  0  0  0
    1.2238   -0.0163    0.0130 C   0  0  0  0  0  0  0  0  0  0  0  0
    1.7291   -0.6324    1.2978 C   0  0  0  0  0  0  0  0  0  0  0  0
    2.7364   -0.3111    1.8887 O   0  0  0  0  0  0  0  0  0  0  0  0
    2.2032   -0.4499   -1.1195 C   0  0  0  0  0  0  0  0  0  0  0  0
    1.9831    0.3399   -2.3797 C   0  0  0  0  0  0  0  0  0  0  0  0
    2.7456    0.9658   -1.2481 C   0  0  0  0  0  0  0  0  0  0  0  0
    1.7443    1.4803   -0.1953 C   0  0  0  0  0  0  0  0  0  0  0  0
    2.2524    2.1542    0.9109 O   0  0  0  0  0  0  0  0  0  0  0  0
   -0.8576    0.2084    0.5988 H   0  0  0  0  0  0  0  0  0  0  0  0
   -0.6176    0.0401   -1.1434 H   0  0  0  0  0  0  0  0  0  0  0  0
   -0.4760   -1.3755   -0.0972 H   0  0  0  0  0  0  0  0  0  0  0  0
    1.1120   -1.4763    1.6809 H   0  0  0  0  0  0  0  0  0  0  0  0
    2.7386   -1.3924   -1.1260 H   0  0  0  0  0  0  0  0  0  0  0  0
    2.5751    0.0110   -3.2279 H   0  0  0  0  0  0  0  0  0  0  0  0
    0.9975    0.7120   -2.6489 H   0  0  0  0  0  0  0  0  0  0  0  0
    3.7692    1.3077   -1.3358 H   0  0  0  0  0  0  0  0  0  0  0  0
    0.9660    2.1272   -0.6168 H   0  0  0  0  0  0  0  0  0  0  0  0
    2.8165    1.5294    1.3933 H   0  0  0  0  0  0  0  0  0  0  0  0
  1  2  1  0
  2  3  1  0
  3  4  2  0
  2  5  1  0
  5  6  1  0
  6  7  1  0
  7  8  1  0
  8  9  1  0
  8  2  1  0
  7  5  1  0
  1 10  1  0
  1 11  1  0
  1 12  1  0
  3 13  1  0
  5 14  1  0
  6 15  1  0
  6 16  1  0
  7 17  1  0
  8 18  1  0
  9 19  1  0
M  END
$$$$
