gdb 2065	2.6139111	1.8251369	1.3194392	2.3827	74.14	-0.23613	0.08659	0.32272	1009.1747	0.157379	-422.528057	-422.520214	-422.51927	-422.559907	30.944
 OpenBabel02181911403D

 19 21  0  0  1  0  0  0  0  0999 V2000
    0.0420   -0.0985   -0.3214 C   0  0  0  0  0  0  0  0  0  0  0  0
    1.5283   -0.0101   -0.0737 C   0  0  1  0  0  0  0  0  0  0  0  0
    2.0104   -0.8223    1.0248 O   0  0  0  0  0  0  0  0  0  0  0  0
    2.4075   -1.1665   -0.2992 C   0  0  2  0  0  0  0  0  0  0  0  0
    3.8637   -0.9772   -0.6698 C   0  0  0  0  0  0  0  0  0  0  0  0
    4.4311    0.2327   -0.2177 O   0  0  0  0  0  0  0  0  0  0  0  0
    3.6486    1.3841   -0.3329 C   0  0  1  0  0  0  0  0  0  0  0  0
    2.7900    1.7153   -1.5239 C   0  0  0  0  0  0  0  0  0  0  0  0
    2.1566    1.3434   -0.1817 C   0  0  1  0  0  0  0  0  0  0  0  0
   -0.5026    0.5161    0.4040 H   0  0  0  0  0  0  0  0  0  0  0  0
   -0.2068    0.2674   -1.3230 H   0  0  0  0  0  0  0  0  0  0  0  0
   -0.3061   -1.1299   -0.2244 H   0  0  0  0  0  0  0  0  0  0  0  0
    1.9714   -2.0900   -0.6879 H   0  0  0  0  0  0  0  0  0  0  0  0
    4.4717   -1.7714   -0.2236 H   0  0  0  0  0  0  0  0  0  0  0  0
    3.9497   -1.0746   -1.7658 H   0  0  0  0  0  0  0  0  0  0  0  0
    4.1802    2.2046    0.1357 H   0  0  0  0  0  0  0  0  0  0  0  0
    2.7524    2.7476   -1.8540 H   0  0  0  0  0  0  0  0  0  0  0  0
    2.6972    0.9890   -2.3240 H   0  0  0  0  0  0  0  0  0  0  0  0
    1.6774    2.1309    0.3933 H   0  0  0  0  0  0  0  0  0  0  0  0
  1 12  1  0  0  0  0
  1 10  1  0  0  0  0
  2  1  1  6  0  0  0
  2  3  1  0  0  0  0
  4 13  1  6  0  0  0
  4  2  1  0  0  0  0
  4  3  1  0  0  0  0
  5  4  1  0  0  0  0
  5 14  1  0  0  0  0
  5  6  1  0  0  0  0
  7  6  1  0  0  0  0
  7  9  1  0  0  0  0
  7 16  1  1  0  0  0
  8  7  1  0  0  0  0
  8  9  1  0  0  0  0
  9  2  1  0  0  0  0
  9 19  1  1  0  0  0
 11  1  1  0  0  0  0
 15  5  1  0  0  0  0
 17  8  1  0  0  0  0
 18  8  1  0  0  0  0
M TOR 0 0 1 2 3
M TOR 1 0 1 3 4
M TOR 2 0 1 3 12
M TOR 3 0 1 8 6
M TOR 4 0 1 8 7
M TOR 5 0 1 8 18
M TOR 6 1 2 3 4
M TOR 7 1 2 3 12
M TOR 8 1 3 4 5
M TOR 9 1 3 4 13
M TOR 10 1 3 4 14
M TOR 11 1 8 6 5
M TOR 12 1 8 6 7
M TOR 13 1 8 6 15
M TOR 14 1 8 7 16
M TOR 15 1 8 7 17
M TOR 16 2 1 0 9
M TOR 17 2 1 0 10
M TOR 18 2 1 0 11
M TOR 19 2 1 8 6
M TOR 20 2 1 8 7
M TOR 21 2 1 8 18
M TOR 22 2 3 1 8
M TOR 23 2 3 4 5
M TOR 24 2 3 4 13
M TOR 25 2 3 4 14
M TOR 26 3 1 0 9
M TOR 27 3 1 0 10
M TOR 28 3 1 0 11
M TOR 29 3 1 8 6
M TOR 30 3 1 8 7
M TOR 31 3 1 8 18
M TOR 32 3 4 5 6
M TOR 33 4 3 1 8
M TOR 34 4 5 6 7
M TOR 35 4 5 6 8
M TOR 36 4 5 6 15
M TOR 37 5 4 3 12
M TOR 38 5 6 7 8
M TOR 39 5 6 7 16
M TOR 40 5 6 7 17
M TOR 41 5 6 8 18
M TOR 42 6 5 4 13
M TOR 43 6 5 4 14
M TOR 44 6 7 8 18
M TOR 45 6 8 7 16
M TOR 46 6 8 7 17
M TOR 47 7 8 6 15
M TOR 48 8 1 0 9
M TOR 49 8 1 0 10
M TOR 50 8 1 0 11
M TOR 51 8 1 3 12
M  END
$$$$
