gdb 5184	3.5885885	1.4876591	1.4389722	1.4728	73.13	-0.23226	0.09079	0.32305	990.395	0.158631	-422.552898	-422.545513	-422.544569	-422.584584	29.513
 OpenBabel02181911423D

 19 21  0  0  1  0  0  0  0  0999 V2000
    0.6090    0.1134   -0.6883 C   0  0  0  0  0  0  0  0  0  0  0  0
    0.5066   -0.3084    0.6663 O   0  0  0  0  0  0  0  0  0  0  0  0
   -0.1498    0.5477    1.5057 C   0  0  1  0  0  0  0  0  0  0  0  0
   -0.2564    0.0506    2.9627 C   0  0  0  0  0  0  0  0  0  0  0  0
   -1.1738    1.1676    3.4344 C   0  0  1  0  0  0  0  0  0  0  0  0
   -0.8075    2.4177    2.6211 C   0  0  1  0  0  0  0  0  0  0  0  0
    0.3173    2.0234    1.6789 C   0  0  0  0  0  0  0  0  0  0  0  0
   -1.9631    1.5373    2.1980 C   0  0  1  0  0  0  0  0  0  0  0  0
   -1.5427    0.7153    1.1314 O   0  0  0  0  0  0  0  0  0  0  0  0
    1.2705    0.9832   -0.7915 H   0  0  0  0  0  0  0  0  0  0  0  0
    1.0398   -0.7249   -1.2388 H   0  0  0  0  0  0  0  0  0  0  0  0
   -0.3747    0.3560   -1.1023 H   0  0  0  0  0  0  0  0  0  0  0  0
   -0.7169   -0.9395    3.0044 H   0  0  0  0  0  0  0  0  0  0  0  0
    0.7160    0.0284    3.4607 H   0  0  0  0  0  0  0  0  0  0  0  0
   -1.5847    1.2234    4.4330 H   0  0  0  0  0  0  0  0  0  0  0  0
   -0.9439    3.4208    3.0020 H   0  0  0  0  0  0  0  0  0  0  0  0
    0.2951    2.5825    0.7400 H   0  0  0  0  0  0  0  0  0  0  0  0
    1.3155    2.0832    2.1203 H   0  0  0  0  0  0  0  0  0  0  0  0
   -3.0040    1.8265    2.1693 H   0  0  0  0  0  0  0  0  0  0  0  0
  1  2  1  0  0  0  0
  3  2  1  6  0  0  0
  3  7  1  0  0  0  0
  3  4  1  0  0  0  0
  4 13  1  0  0  0  0
  4  5  1  0  0  0  0
  4 14  1  0  0  0  0
  5 15  1  1  0  0  0
  6 16  1  1  0  0  0
  6  5  1  0  0  0  0
  7 18  1  0  0  0  0
  7  6  1  0  0  0  0
  8 19  1  1  0  0  0
  8  6  1  0  0  0  0
  8  5  1  0  0  0  0
  9  3  1  0  0  0  0
  9  8  1  0  0  0  0
 10  1  1  0  0  0  0
 11  1  1  0  0  0  0
 12  1  1  0  0  0  0
 17  7  1  0  0  0  0
M TOR 0 0 1 2 3
M TOR 1 0 1 2 6
M TOR 2 0 1 2 8
M TOR 3 1 2 3 4
M TOR 4 1 2 3 12
M TOR 5 1 2 3 13
M TOR 6 1 2 6 5
M TOR 7 1 2 6 16
M TOR 8 1 2 6 17
M TOR 9 1 2 8 7
M TOR 10 2 1 0 9
M TOR 11 2 1 0 10
M TOR 12 2 1 0 11
M TOR 13 2 3 4 5
M TOR 14 2 3 4 7
M TOR 15 2 3 4 14
M TOR 16 2 6 5 4
M TOR 17 2 6 5 7
M TOR 18 2 6 5 15
M TOR 19 2 8 7 4
M TOR 20 2 8 7 5
M TOR 21 2 8 7 18
M TOR 22 3 2 6 5
M TOR 23 3 2 6 16
M TOR 24 3 2 6 17
M TOR 25 3 2 8 7
M TOR 26 3 4 5 6
M TOR 27 3 4 5 7
M TOR 28 3 4 5 15
M TOR 29 3 4 7 8
M TOR 30 3 4 7 18
M TOR 31 4 3 2 6
M TOR 32 4 3 2 8
M TOR 33 4 5 6 16
M TOR 34 4 5 6 17
M TOR 35 4 5 7 8
M TOR 36 4 5 7 18
M TOR 37 4 7 5 6
M TOR 38 4 7 5 15
M TOR 39 5 4 3 12
M TOR 40 5 4 3 13
M TOR 41 5 6 2 8
M TOR 42 5 7 4 14
M TOR 43 6 2 3 12
M TOR 44 6 2 3 13
M TOR 45 6 2 8 7
M TOR 46 6 5 4 14
M TOR 47 6 5 7 8
M TOR 48 6 5 7 18
M TOR 49 7 4 3 12
M TOR 50 7 4 3 13
M TOR 51 7 5 6 16
M TOR 52 7 5 6 17
M TOR 53 8 2 3 12
M TOR 54 8 2 3 13
M TOR 55 8 2 6 16
M TOR 56 8 2 6 17
M TOR 57 8 7 4 14
M TOR 58 8 7 5 15
M  END
$$$$
