gdb 5055	2.2470005	1.5205885	1.0948318	4.3316	75.99	-0.26413	0.00777	0.2719	1182.121	0.155209	-422.568542	-422.559255	-422.558311	-422.602756	33.839
 OpenBabel02181911413D

 19 20  0  0  1  0  0  0  0  0999 V2000
    0.8310   -0.4693    1.1184 C   0  0  0  0  0  0  0  0  0  0  0  0
    0.6967    0.1792   -0.2668 C   0  0  0  0  0  0  0  0  0  0  0  0
    1.5714   -0.4841   -1.2934 C   0  0  2  0  0  0  0  0  0  0  0  0
    3.0636   -0.1602   -1.5257 C   0  0  0  0  0  0  0  0  0  0  0  0
    2.1047   -0.1005   -2.6596 C   0  0  2  0  0  0  0  0  0  0  0  0
    1.8073    1.0066   -3.6116 C   0  0  0  0  0  0  0  0  0  0  0  0
    1.9154   -1.4711   -3.1481 O   0  0  0  0  0  0  0  0  0  0  0  0
    1.3304   -1.8241   -1.9395 C   0  0  0  0  0  0  0  0  0  0  0  0
    0.7968   -2.8516   -1.6672 O   0  0  0  0  0  0  0  0  0  0  0  0
    0.5719   -1.5308    1.0708 H   0  0  0  0  0  0  0  0  0  0  0  0
    1.8569   -0.3892    1.4921 H   0  0  0  0  0  0  0  0  0  0  0  0
    0.1670    0.0137    1.8411 H   0  0  0  0  0  0  0  0  0  0  0  0
   -0.3483    0.1278   -0.5955 H   0  0  0  0  0  0  0  0  0  0  0  0
    0.9530    1.2443   -0.2109 H   0  0  0  0  0  0  0  0  0  0  0  0
    3.3663    0.7929   -1.0992 H   0  0  0  0  0  0  0  0  0  0  0  0
    3.8165   -0.9414   -1.4924 H   0  0  0  0  0  0  0  0  0  0  0  0
    1.8696    1.9713   -3.1001 H   0  0  0  0  0  0  0  0  0  0  0  0
    2.5294    1.0125   -4.4348 H   0  0  0  0  0  0  0  0  0  0  0  0
    0.8048    0.8970   -4.0352 H   0  0  0  0  0  0  0  0  0  0  0  0
  1 11  1  0  0  0  0
  1 12  1  0  0  0  0
  2 14  1  0  0  0  0
  2  1  1  0  0  0  0
  3  2  1  1  0  0  0
  4 16  1  0  0  0  0
  4  3  1  0  0  0  0
  4 15  1  0  0  0  0
  5  6  1  6  0  0  0
  5  4  1  0  0  0  0
  5  3  1  0  0  0  0
  6 17  1  0  0  0  0
  7  5  1  0  0  0  0
  7  8  1  0  0  0  0
  8  9  2  0  0  0  0
  8  3  1  0  0  0  0
 10  1  1  0  0  0  0
 13  2  1  0  0  0  0
 18  6  1  0  0  0  0
 19  6  1  0  0  0  0
M TOR 0 0 1 2 3
M TOR 1 0 1 2 4
M TOR 2 0 1 2 7
M TOR 3 1 2 3 4
M TOR 4 1 2 3 14
M TOR 5 1 2 3 15
M TOR 6 1 2 4 5
M TOR 7 1 2 4 6
M TOR 8 1 2 7 6
M TOR 9 1 2 7 8
M TOR 10 2 1 0 9
M TOR 11 2 1 0 10
M TOR 12 2 1 0 11
M TOR 13 2 3 4 5
M TOR 14 2 3 4 6
M TOR 15 2 4 3 14
M TOR 16 2 4 3 15
M TOR 17 2 4 5 16
M TOR 18 2 4 5 17
M TOR 19 2 4 5 18
M TOR 20 2 4 6 7
M TOR 21 3 2 1 12
M TOR 22 3 2 1 13
M TOR 23 3 2 7 6
M TOR 24 3 2 7 8
M TOR 25 3 4 2 7
M TOR 26 3 4 5 16
M TOR 27 3 4 5 17
M TOR 28 3 4 5 18
M TOR 29 3 4 6 7
M TOR 30 4 2 1 12
M TOR 31 4 2 1 13
M TOR 32 4 2 7 8
M TOR 33 4 6 7 8
M TOR 34 5 4 2 7
M TOR 35 5 4 3 14
M TOR 36 5 4 3 15
M TOR 37 5 4 6 7
M TOR 38 6 4 3 14
M TOR 39 6 4 3 15
M TOR 40 6 4 5 16
M TOR 41 6 4 5 17
M TOR 42 6 4 5 18
M TOR 43 7 2 1 12
M TOR 44 7 2 1 13
M TOR 45 7 2 3 14
M TOR 46 7 2 3 15
M  END
$$$$
