gdb 3982	5.3623633	0.843973	0.7868432	1.021	77.04	-0.23489	0.07555	0.31044	1476.2595	0.155719	-422.486746	-422.478228	-422.477284	-422.520298	31.634
 OpenBabel02181911413D

 19 21  0  0  1  0  0  0  0  0999 V2000
    5.0517    2.4774    0.1899 C   0  0  0  0  0  0  0  0  0  0  0  0
    4.8016    0.9960    0.0016 C   0  0  1  0  0  0  0  0  0  0  0  0
    4.2097    0.4035    1.2053 O   0  0  0  0  0  0  0  0  0  0  0  0
    3.0138    0.1171    0.4869 C   0  0  2  0  0  0  0  0  0  0  0  0
    3.2732   -0.8578   -0.6299 C   0  0  1  0  0  0  0  0  0  0  0  0
    2.0905   -1.4004   -1.3556 C   0  0  2  0  0  0  0  0  0  0  0  0
    1.8594   -2.8415   -1.5116 C   0  0  0  0  0  0  0  0  0  0  0  0
    2.3395   -2.0569   -2.6053 O   0  0  0  0  0  0  0  0  0  0  0  0
    3.5671    0.6226   -0.8201 C   0  0  2  0  0  0  0  0  0  0  0  0
    5.7729    2.6378    0.9968 H   0  0  0  0  0  0  0  0  0  0  0  0
    5.4590    2.9142   -0.7287 H   0  0  0  0  0  0  0  0  0  0  0  0
    4.1242    2.9984    0.4446 H   0  0  0  0  0  0  0  0  0  0  0  0
    5.7275    0.4724   -0.2697 H   0  0  0  0  0  0  0  0  0  0  0  0
    2.0649    0.2467    0.9960 H   0  0  0  0  0  0  0  0  0  0  0  0
    4.1073   -1.5477   -0.5190 H   0  0  0  0  0  0  0  0  0  0  0  0
    1.2170   -0.7447   -1.3734 H   0  0  0  0  0  0  0  0  0  0  0  0
    2.5768   -3.5453   -1.0910 H   0  0  0  0  0  0  0  0  0  0  0  0
    0.8439   -3.2221   -1.6149 H   0  0  0  0  0  0  0  0  0  0  0  0
    3.1205    1.2172   -1.6065 H   0  0  0  0  0  0  0  0  0  0  0  0
  1 12  1  0  0  0  0
  1 10  1  0  0  0  0
  2 13  1  6  0  0  0
  2  1  1  0  0  0  0
  2  3  1  0  0  0  0
  4 14  1  1  0  0  0
  4  3  1  0  0  0  0
  5 15  1  1  0  0  0
  5  4  1  0  0  0  0
  6 16  1  1  0  0  0
  6  5  1  0  0  0  0
  7  6  1  0  0  0  0
  7 17  1  0  0  0  0
  8  7  1  0  0  0  0
  8  6  1  0  0  0  0
  9 19  1  6  0  0  0
  9  5  1  0  0  0  0
  9  2  1  0  0  0  0
  9  4  1  0  0  0  0
 11  1  1  0  0  0  0
 18  7  1  0  0  0  0
M TOR 0 0 1 2 3
M TOR 1 0 1 8 3
M TOR 2 0 1 8 4
M TOR 3 0 1 8 18
M TOR 4 1 2 3 4
M TOR 5 1 2 3 8
M TOR 6 1 2 3 13
M TOR 7 1 8 3 4
M TOR 8 1 8 3 13
M TOR 9 1 8 4 5
M TOR 10 1 8 4 14
M TOR 11 2 1 0 9
M TOR 12 2 1 0 10
M TOR 13 2 1 0 11
M TOR 14 2 1 8 4
M TOR 15 2 1 8 18
M TOR 16 2 3 4 5
M TOR 17 2 3 4 8
M TOR 18 2 3 4 14
M TOR 19 2 3 8 18
M TOR 20 3 2 1 12
M TOR 21 3 4 5 6
M TOR 22 3 4 5 7
M TOR 23 3 4 5 15
M TOR 24 3 4 8 18
M TOR 25 3 8 1 12
M TOR 26 3 8 4 5
M TOR 27 3 8 4 14
M TOR 28 4 5 6 7
M TOR 29 4 5 6 16
M TOR 30 4 5 6 17
M TOR 31 4 8 1 12
M TOR 32 4 8 3 13
M TOR 33 5 4 3 13
M TOR 34 5 4 8 18
M TOR 35 5 7 6 16
M TOR 36 5 7 6 17
M TOR 37 6 5 4 8
M TOR 38 6 5 4 14
M TOR 39 6 7 5 15
M TOR 40 7 5 4 8
M TOR 41 7 5 4 14
M TOR 42 8 1 0 9
M TOR 43 8 1 0 10
M TOR 44 8 1 0 11
M TOR 45 8 4 5 15
M  END
$$$$
