gdb 418	2.8598729	1.6188614	1.2424241	2.3396	75.19	-0.25484	0.08423	0.33907	1046.7354	0.158351	-422.524295	-422.516742	-422.515798	-422.556173	29.846
 OpenBabel02181911403D

 19 21  0  0  1  0  0  0  0  0999 V2000
    1.5191    0.0835   -0.0285 C   0  0  0  0  0  0  0  0  0  0  0  0
    0.7163    1.3571   -0.0419 C   0  0  0  0  0  0  0  0  0  0  0  0
    0.0123    0.0237    0.0293 C   0  0  0  0  0  0  0  0  0  0  0  0
   -0.6400   -0.4196    1.3274 C   0  0  0  0  0  0  0  0  0  0  0  0
   -2.0427   -0.2178    1.3077 O   0  0  0  0  0  0  0  0  0  0  0  0
   -2.6894   -1.0650    0.3820 C   0  0  0  0  0  0  0  0  0  0  0  0
   -2.1007   -0.9810   -1.0114 C   0  0  1  0  0  0  0  0  0  0  0  0
   -1.9118    0.3276   -1.5381 O   0  0  0  0  0  0  0  0  0  0  0  0
   -0.7448   -0.4343   -1.1836 C   0  0  1  0  0  0  0  0  0  0  0  0
    2.0060   -0.2297   -0.9467 H   0  0  0  0  0  0  0  0  0  0  0  0
    2.0698   -0.1709    0.8717 H   0  0  0  0  0  0  0  0  0  0  0  0
    0.7137    1.9740    0.8507 H   0  0  0  0  0  0  0  0  0  0  0  0
    0.6472    1.9149   -0.9693 H   0  0  0  0  0  0  0  0  0  0  0  0
   -0.4199   -1.4865    1.5094 H   0  0  0  0  0  0  0  0  0  0  0  0
   -0.2550    0.1533    2.1764 H   0  0  0  0  0  0  0  0  0  0  0  0
   -2.6428   -2.1185    0.7127 H   0  0  0  0  0  0  0  0  0  0  0  0
   -3.7410   -0.7609    0.3685 H   0  0  0  0  0  0  0  0  0  0  0  0
   -2.4798   -1.7201   -1.7195 H   0  0  0  0  0  0  0  0  0  0  0  0
   -0.1517   -0.7463   -2.0438 H   0  0  0  0  0  0  0  0  0  0  0  0
  1  3  1  0  0  0  0
  1 11  1  0  0  0  0
  2  1  1  0  0  0  0
  2  3  1  0  0  0  0
  2 12  1  0  0  0  0
  3  4  1  0  0  0  0
  4 14  1  0  0  0  0
  4 15  1  0  0  0  0
  5  4  1  0  0  0  0
  6 16  1  0  0  0  0
  6  5  1  0  0  0  0
  7 18  1  6  0  0  0
  7  6  1  0  0  0  0
  8  9  1  0  0  0  0
  8  7  1  0  0  0  0
  9 19  1  6  0  0  0
  9  7  1  0  0  0  0
  9  3  1  0  0  0  0
 10  1  1  0  0  0  0
 13  2  1  0  0  0  0
 17  6  1  0  0  0  0
M TOR 0 0 1 2 3
M TOR 1 0 1 2 8
M TOR 2 0 2 1 11
M TOR 3 0 2 1 12
M TOR 4 0 2 3 4
M TOR 5 0 2 3 13
M TOR 6 0 2 3 14
M TOR 7 0 2 8 6
M TOR 8 0 2 8 7
M TOR 9 0 2 8 18
M TOR 10 1 2 0 9
M TOR 11 1 2 0 10
M TOR 12 1 2 3 4
M TOR 13 1 2 3 13
M TOR 14 1 2 3 14
M TOR 15 1 2 8 6
M TOR 16 1 2 8 7
M TOR 17 1 2 8 18
M TOR 18 2 3 4 5
M TOR 19 2 8 6 5
M TOR 20 2 8 6 7
M TOR 21 2 8 6 17
M TOR 22 3 2 0 9
M TOR 23 3 2 0 10
M TOR 24 3 2 1 11
M TOR 25 3 2 1 12
M TOR 26 3 2 8 6
M TOR 27 3 2 8 7
M TOR 28 3 2 8 18
M TOR 29 3 4 5 6
M TOR 30 3 4 5 15
M TOR 31 3 4 5 16
M TOR 32 4 3 2 8
M TOR 33 4 5 6 7
M TOR 34 4 5 6 8
M TOR 35 4 5 6 17
M TOR 36 5 4 3 13
M TOR 37 5 4 3 14
M TOR 38 5 6 7 8
M TOR 39 5 6 8 18
M TOR 40 6 7 8 18
M TOR 41 7 6 5 15
M TOR 42 7 6 5 16
M TOR 43 7 8 6 17
M TOR 44 8 2 0 9
M TOR 45 8 2 0 10
M TOR 46 8 2 1 11
M TOR 47 8 2 1 12
M TOR 48 8 2 3 13
M TOR 49 8 2 3 14
M TOR 50 8 6 5 15
M TOR 51 8 6 5 16
M  END
$$$$
