gdb 1786	3.4051344	1.4310429	1.2123217	2.6741	75.37	-0.24169	-0.01438	0.22730999999999998	1065.8394	0.15678	-422.571134	-422.562943	-422.561999	-422.603939	31.544
 OpenBabel02181911403D

 19 20  0  0  1  0  0  0  0  0999 V2000
   -4.2593   -0.4808    0.0230 C   0  0  0  0  0  0  0  0  0  0  0  0
   -2.7493   -0.4323    0.0114 C   0  0  2  0  0  0  0  0  0  0  0  0
   -1.9424   -1.1742   -1.0925 C   0  0  0  0  0  0  0  0  0  0  0  0
   -0.8040   -1.3136   -0.0314 C   0  0  2  0  0  0  0  0  0  0  0  0
   -1.9241   -1.2380    1.0554 C   0  0  0  0  0  0  0  0  0  0  0  0
   -0.0615   -0.0032    0.0013 C   0  0  0  0  0  0  0  0  0  0  0  0
    1.1384    0.1221   -0.0048 O   0  0  0  0  0  0  0  0  0  0  0  0
   -0.9869    1.2227    0.0451 C   0  0  0  0  0  0  0  0  0  0  0  0
   -2.3823    0.9458    0.0493 O   0  0  0  0  0  0  0  0  0  0  0  0
   -4.6487   -0.0029    0.9270 H   0  0  0  0  0  0  0  0  0  0  0  0
   -4.6640    0.0514   -0.8432 H   0  0  0  0  0  0  0  0  0  0  0  0
   -4.6108   -1.5159   -0.0057 H   0  0  0  0  0  0  0  0  0  0  0  0
   -2.3772   -2.1484   -1.3279 H   0  0  0  0  0  0  0  0  0  0  0  0
   -1.7343   -0.6302   -2.0175 H   0  0  0  0  0  0  0  0  0  0  0  0
   -0.1212   -2.1622   -0.0624 H   0  0  0  0  0  0  0  0  0  0  0  0
   -2.3552   -2.2247    1.2400 H   0  0  0  0  0  0  0  0  0  0  0  0
   -1.6999   -0.7497    2.0073 H   0  0  0  0  0  0  0  0  0  0  0  0
   -0.7281    1.8015    0.9414 H   0  0  0  0  0  0  0  0  0  0  0  0
   -0.7435    1.8528   -0.8203 H   0  0  0  0  0  0  0  0  0  0  0  0
  1 10  1  0  0  0  0
  2  1  1  1  0  0  0
  2  9  1  0  0  0  0
  2  5  1  0  0  0  0
  3  4  1  0  0  0  0
  3  2  1  0  0  0  0
  4 15  1  6  0  0  0
  4  6  1  0  0  0  0
  4  5  1  0  0  0  0
  5 16  1  0  0  0  0
  5 17  1  0  0  0  0
  6  8  1  0  0  0  0
  7  6  2  0  0  0  0
  8  9  1  0  0  0  0
  8 18  1  0  0  0  0
 11  1  1  0  0  0  0
 12  1  1  0  0  0  0
 13  3  1  0  0  0  0
 14  3  1  0  0  0  0
 19  8  1  0  0  0  0
M TOR 0 0 1 2 3
M TOR 1 0 1 2 12
M TOR 2 0 1 2 13
M TOR 3 0 1 4 3
M TOR 4 0 1 4 15
M TOR 5 0 1 4 16
M TOR 6 0 1 8 7
M TOR 7 1 2 3 4
M TOR 8 1 2 3 5
M TOR 9 1 2 3 14
M TOR 10 1 4 3 5
M TOR 11 1 4 3 14
M TOR 12 1 8 7 5
M TOR 13 1 8 7 17
M TOR 14 1 8 7 18
M TOR 15 2 1 0 9
M TOR 16 2 1 0 10
M TOR 17 2 1 0 11
M TOR 18 2 1 4 15
M TOR 19 2 1 4 16
M TOR 20 2 1 8 7
M TOR 21 2 3 4 15
M TOR 22 2 3 4 16
M TOR 23 2 3 5 6
M TOR 24 2 3 5 7
M TOR 25 3 2 1 8
M TOR 26 3 4 1 8
M TOR 27 3 5 7 8
M TOR 28 3 5 7 17
M TOR 29 3 5 7 18
M TOR 30 4 1 0 9
M TOR 31 4 1 0 10
M TOR 32 4 1 0 11
M TOR 33 4 1 2 12
M TOR 34 4 1 2 13
M TOR 35 4 1 8 7
M TOR 36 4 3 2 12
M TOR 37 4 3 2 13
M TOR 38 4 3 5 6
M TOR 39 4 3 5 7
M TOR 40 5 3 2 12
M TOR 41 5 3 2 13
M TOR 42 5 3 4 15
M TOR 43 5 3 4 16
M TOR 44 6 5 3 14
M TOR 45 6 5 7 8
M TOR 46 6 5 7 17
M TOR 47 6 5 7 18
M TOR 48 7 5 3 14
M TOR 49 8 1 0 9
M TOR 50 8 1 0 10
M TOR 51 8 1 0 11
M TOR 52 8 1 2 12
M TOR 53 8 1 2 13
M TOR 54 8 1 4 15
M TOR 55 8 1 4 16
M  END
$$$$
