
     RDKit          3D

 19 20  0  0  0  0  0  0  0  0999 V2000
    0.3083   -1.4271    0.2744 O   0  0  0  0  0  0  0  0  0  0  0  0
    0.6806   -0.2854    0.9833 C   0  0  0  0  0  0  0  0  0  0  0  0
   -0.2243    0.8921    0.6339 C   0  0  0  0  0  0  0  0  0  0  0  0
   -1.1387    0.7081   -0.1536 O   0  0  0  0  0  0  0  0  0  0  0  0
    0.0357    2.1924    1.2677 C   0  0  0  0  0  0  0  0  0  0  0  0
   -0.4893    3.4652    0.6307 C   0  0  0  0  0  0  0  0  0  0  0  0
   -1.0353    3.0931    1.9584 C   0  0  0  0  0  0  0  0  0  0  0  0
   -0.0410    3.4213    3.0771 C   0  0  0  0  0  0  0  0  0  0  0  0
    1.0411    2.5325    2.3792 C   0  0  0  0  0  0  0  0  0  0  0  0
   -0.4650   -1.1483   -0.2452 H   0  0  0  0  0  0  0  0  0  0  0  0
    0.6282   -0.4538    2.0725 H   0  0  0  0  0  0  0  0  0  0  0  0
    1.7238    0.0024    0.7687 H   0  0  0  0  0  0  0  0  0  0  0  0
    0.1906    4.3083    0.5312 H   0  0  0  0  0  0  0  0  0  0  0  0
   -1.1424    3.2873   -0.2159 H   0  0  0  0  0  0  0  0  0  0  0  0
   -2.0794    2.8370    2.0897 H   0  0  0  0  0  0  0  0  0  0  0  0
    0.1974    4.4830    3.1944 H   0  0  0  0  0  0  0  0  0  0  0  0
   -0.3395    3.0219    4.0479 H   0  0  0  0  0  0  0  0  0  0  0  0
    1.9541    3.0375    2.0489 H   0  0  0  0  0  0  0  0  0  0  0  0
    1.3234    1.6739    2.9917 H   0  0  0  0  0  0  0  0  0  0  0  0
  1  2  1  0
  2  3  1  0
  3  4  2  0
  3  5  1  0
  5  6  1  0
  6  7  1  0
  7  8  1  0
  8  9  1  0
  7  5  1  0
  9  5  1  0
  1 10  1  0
  2 11  1  0
  2 12  1  0
  6 13  1  0
  6 14  1  0
  7 15  1  0
  8 16  1  0
  8 17  1  0
  9 18  1  0
  9 19  1  0
M  END
$$$$
