
     RDKit          3D

 19 21  0  0  0  0  0  0  0  0999 V2000
   -2.7355    3.6251    2.2138 C   0  0  0  0  0  0  0  0  0  0  0  0
   -2.0751    2.2840    2.0854 C   0  0  0  0  0  0  0  0  0  0  0  0
   -2.7390    0.9169    2.2957 C   0  0  0  0  0  0  0  0  0  0  0  0
   -1.3038    0.3419    2.3272 C   0  0  0  0  0  0  0  0  0  0  0  0
   -0.9777   -0.8529    2.9326 O   0  0  0  0  0  0  0  0  0  0  0  0
   -0.7646    1.8192    2.6751 C   0  0  0  0  0  0  0  0  0  0  0  0
   -0.8637    2.0489    1.1765 C   0  0  0  0  0  0  0  0  0  0  0  0
   -0.7830    0.5499    0.8779 C   0  0  0  0  0  0  0  0  0  0  0  0
    0.5172    0.0714    0.6410 O   0  0  0  0  0  0  0  0  0  0  0  0
   -3.2573    3.7188    3.1732 H   0  0  0  0  0  0  0  0  0  0  0  0
   -2.0007    4.4349    2.1535 H   0  0  0  0  0  0  0  0  0  0  0  0
   -3.4718    3.7852    1.4176 H   0  0  0  0  0  0  0  0  0  0  0  0
   -3.2198    0.8688    3.2807 H   0  0  0  0  0  0  0  0  0  0  0  0
   -3.4240    0.5257    1.5331 H   0  0  0  0  0  0  0  0  0  0  0  0
   -1.4066   -0.8895    3.7941 H   0  0  0  0  0  0  0  0  0  0  0  0
   -0.1295    2.2456    3.4390 H   0  0  0  0  0  0  0  0  0  0  0  0
   -0.4259    2.8525    0.5972 H   0  0  0  0  0  0  0  0  0  0  0  0
   -1.4015    0.1388    0.0726 H   0  0  0  0  0  0  0  0  0  0  0  0
    1.0772    0.3707    1.3676 H   0  0  0  0  0  0  0  0  0  0  0  0
  1  2  1  0
  2  3  1  0
  3  4  1  0
  4  5  1  0
  4  6  1  0
  6  7  1  0
  7  8  1  0
  8  9  1  0
  6  2  1  0
  7  2  1  0
  8  4  1  0
  1 10  1  0
  1 11  1  0
  1 12  1  0
  3 13  1  0
  3 14  1  0
  5 15  1  0
  6 16  1  0
  7 17  1  0
  8 18  1  0
  9 19  1  0
M  END
$$$$
