gdb 5305	3.3183006	1.4717671	1.2656421	1.7354	74.12	-0.2383	0.07784	0.31614000000000003	1049.9388	0.157511	-422.508642	-422.500805	-422.49986	-422.54093	30.222
 OpenBabel02181911423D

 19 21  0  0  1  0  0  0  0  0999 V2000
    1.4218   -0.0540   -0.0196 C   0  0  0  0  0  0  0  0  0  0  0  0
    0.0289    0.2069    0.0323 O   0  0  0  0  0  0  0  0  0  0  0  0
   -0.3827    0.8346    1.1965 C   0  0  2  0  0  0  0  0  0  0  0  0
   -0.0737    2.3219    1.3978 C   0  0  0  0  0  0  0  0  0  0  0  0
   -1.1550    2.8245    2.1879 O   0  0  0  0  0  0  0  0  0  0  0  0
   -1.8272    1.6956    2.7332 C   0  0  2  0  0  0  0  0  0  0  0  0
   -0.8875    0.8419    3.6516 C   0  0  0  0  0  0  0  0  0  0  0  0
   -0.5946   -0.0353    2.4339 C   0  0  1  0  0  0  0  0  0  0  0  0
   -1.7737    0.5727    1.6720 C   0  0  2  0  0  0  0  0  0  0  0  0
    1.7504   -0.6632    0.8335 H   0  0  0  0  0  0  0  0  0  0  0  0
    1.6061   -0.6032   -0.9455 H   0  0  0  0  0  0  0  0  0  0  0  0
    2.0124    0.8726   -0.0357 H   0  0  0  0  0  0  0  0  0  0  0  0
    0.8823    2.5037    1.9077 H   0  0  0  0  0  0  0  0  0  0  0  0
   -0.0575    2.8396    0.4313 H   0  0  0  0  0  0  0  0  0  0  0  0
   -2.7802    2.0263    3.1421 H   0  0  0  0  0  0  0  0  0  0  0  0
   -0.0651    1.3792    4.1353 H   0  0  0  0  0  0  0  0  0  0  0  0
   -1.4584    0.2952    4.4076 H   0  0  0  0  0  0  0  0  0  0  0  0
   -0.2684   -1.0688    2.4328 H   0  0  0  0  0  0  0  0  0  0  0  0
   -2.5580    0.1259    1.0774 H   0  0  0  0  0  0  0  0  0  0  0  0
  1  2  1  0  0  0  0
  1 10  1  0  0  0  0
  3  2  1  6  0  0  0
  3  4  1  0  0  0  0
  3  9  1  0  0  0  0
  3  8  1  0  0  0  0
  4 13  1  0  0  0  0
  4  5  1  0  0  0  0
  5  6  1  0  0  0  0
  6 15  1  1  0  0  0
  6  7  1  0  0  0  0
  7 16  1  0  0  0  0
  7 17  1  0  0  0  0
  8 18  1  1  0  0  0
  8  7  1  0  0  0  0
  9 19  1  6  0  0  0
  9  8  1  0  0  0  0
  9  6  1  0  0  0  0
 11  1  1  0  0  0  0
 12  1  1  0  0  0  0
 14  4  1  0  0  0  0
M TOR 0 0 1 2 3
M TOR 1 0 1 2 7
M TOR 2 0 1 2 8
M TOR 3 1 2 3 4
M TOR 4 1 2 3 12
M TOR 5 1 2 3 13
M TOR 6 1 2 7 6
M TOR 7 1 2 7 8
M TOR 8 1 2 7 17
M TOR 9 1 2 8 5
M TOR 10 1 2 8 18
M TOR 11 2 1 0 9
M TOR 12 2 1 0 10
M TOR 13 2 1 0 11
M TOR 14 2 3 4 5
M TOR 15 2 7 6 5
M TOR 16 2 7 6 15
M TOR 17 2 7 6 16
M TOR 18 2 7 8 5
M TOR 19 2 7 8 18
M TOR 20 2 8 5 4
M TOR 21 2 8 5 6
M TOR 22 2 8 5 14
M TOR 23 2 8 7 6
M TOR 24 2 8 7 17
M TOR 25 3 2 7 6
M TOR 26 3 2 7 8
M TOR 27 3 2 7 17
M TOR 28 3 2 8 5
M TOR 29 3 2 8 18
M TOR 30 3 4 5 6
M TOR 31 3 4 5 8
M TOR 32 3 4 5 14
M TOR 33 4 3 2 7
M TOR 34 4 3 2 8
M TOR 35 4 5 6 7
M TOR 36 4 5 6 15
M TOR 37 4 5 6 16
M TOR 38 4 5 8 7
M TOR 39 4 5 8 18
M TOR 40 5 4 3 12
M TOR 41 5 4 3 13
M TOR 42 5 6 7 8
M TOR 43 5 6 7 17
M TOR 44 5 8 7 17
M TOR 45 6 5 8 18
M TOR 46 6 7 8 18
M TOR 47 7 2 3 12
M TOR 48 7 2 3 13
M TOR 49 7 6 5 14
M TOR 50 7 8 5 14
M TOR 51 8 2 3 12
M TOR 52 8 2 3 13
M TOR 53 8 5 6 15
M TOR 54 8 5 6 16
M TOR 55 8 7 6 15
M TOR 56 8 7 6 16
M  END
$$$$
