
     RDKit          3D

 19 21  0  0  0  0  0  0  0  0999 V2000
    0.0027   -0.1439    0.0681 C   0  0  0  0  0  0  0  0  0  0  0  0
    1.5200   -0.0683   -0.0301 C   0  0  0  0  0  0  0  0  0  0  0  0
    2.0855   -0.5345    1.1707 O   0  0  0  0  0  0  0  0  0  0  0  0
    2.2910   -0.5482   -1.4113 C   0  0  0  0  0  0  0  0  0  0  0  0
    3.4906    0.2605   -0.8978 C   0  0  0  0  0  0  0  0  0  0  0  0
    2.2399    1.1806   -0.6326 C   0  0  0  0  0  0  0  0  0  0  0  0
    2.3912    2.5922   -1.2365 C   0  0  0  0  0  0  0  0  0  0  0  0
    2.4325    1.9568   -2.5635 O   0  0  0  0  0  0  0  0  0  0  0  0
    1.7371    0.7777   -2.0066 C   0  0  0  0  0  0  0  0  0  0  0  0
   -0.3344    0.4169    0.9455 H   0  0  0  0  0  0  0  0  0  0  0  0
   -0.5166    0.2421   -0.8086 H   0  0  0  0  0  0  0  0  0  0  0  0
   -0.3081   -1.1884    0.1980 H   0  0  0  0  0  0  0  0  0  0  0  0
    1.5935   -1.3121    1.4535 H   0  0  0  0  0  0  0  0  0  0  0  0
    2.2852   -1.5646   -1.8193 H   0  0  0  0  0  0  0  0  0  0  0  0
    4.0001   -0.1187   -0.0161 H   0  0  0  0  0  0  0  0  0  0  0  0
    4.1742    0.6257   -1.6613 H   0  0  0  0  0  0  0  0  0  0  0  0
    1.5183    3.2505   -1.1482 H   0  0  0  0  0  0  0  0  0  0  0  0
    3.3127    3.1384   -1.0157 H   0  0  0  0  0  0  0  0  0  0  0  0
    0.6878    0.8270   -2.2980 H   0  0  0  0  0  0  0  0  0  0  0  0
  1  2  1  0
  2  3  1  0
  2  4  1  0
  4  5  1  0
  5  6  1  0
  6  7  1  0
  7  8  1  0
  8  9  1  0
  6  2  1  0
  9  6  1  0
  9  4  1  0
  1 10  1  0
  1 11  1  0
  1 12  1  0
  3 13  1  0
  4 14  1  0
  5 15  1  0
  5 16  1  0
  7 17  1  0
  7 18  1  0
  9 19  1  0
M  END
$$$$
