
     RDKit          3D

 19 18  0  0  0  0  0  0  0  0999 V2000
    5.8280   -2.6456    0.5486 C   0  0  0  0  0  0  0  0  0  0  0  0
    5.1051   -2.0125    1.7283 C   0  0  0  0  0  0  0  0  0  0  0  0
    3.7430   -1.6682    1.3921 O   0  0  0  0  0  0  0  0  0  0  0  0
    3.5660   -0.4795    0.7815 C   0  0  0  0  0  0  0  0  0  0  0  0
    4.4539    0.2931    0.5083 O   0  0  0  0  0  0  0  0  0  0  0  0
    2.1703   -0.2487    0.5006 C   0  0  0  0  0  0  0  0  0  0  0  0
    1.0215    0.0042    0.2370 C   0  0  0  0  0  0  0  0  0  0  0  0
   -0.3613    0.3245   -0.0882 C   0  0  0  0  0  0  0  0  0  0  0  0
   -0.5209    1.6740   -0.8116 C   0  0  0  0  0  0  0  0  0  0  0  0
    6.8267   -2.9695    0.8584 H   0  0  0  0  0  0  0  0  0  0  0  0
    5.2814   -3.5187    0.1812 H   0  0  0  0  0  0  0  0  0  0  0  0
    5.9372   -1.9259   -0.2657 H   0  0  0  0  0  0  0  0  0  0  0  0
    5.0077   -2.7137    2.5602 H   0  0  0  0  0  0  0  0  0  0  0  0
    5.6228   -1.1132    2.0699 H   0  0  0  0  0  0  0  0  0  0  0  0
   -0.7748   -0.4831   -0.7057 H   0  0  0  0  0  0  0  0  0  0  0  0
   -0.9504    0.3238    0.8379 H   0  0  0  0  0  0  0  0  0  0  0  0
   -0.1435    2.4929   -0.1938 H   0  0  0  0  0  0  0  0  0  0  0  0
    0.0337    1.6779   -1.7533 H   0  0  0  0  0  0  0  0  0  0  0  0
   -1.5759    1.8623   -1.0299 H   0  0  0  0  0  0  0  0  0  0  0  0
  1  2  1  0
  2  3  1  0
  3  4  1  0
  4  5  2  0
  4  6  1  0
  6  7  3  0
  7  8  1  0
  8  9  1  0
  1 10  1  0
  1 11  1  0
  1 12  1  0
  2 13  1  0
  2 14  1  0
  8 15  1  0
  8 16  1  0
  9 17  1  0
  9 18  1  0
  9 19  1  0
M  END
$$$$
