
     RDKit          3D

 19 20  0  0  0  0  0  0  0  0999 V2000
    0.1491    1.5200   -0.1069 C   0  0  0  0  0  0  0  0  0  0  0  0
   -0.0140    0.0084    0.0161 C   0  0  0  0  0  0  0  0  0  0  0  0
   -1.4093   -0.3425    0.2102 O   0  0  0  0  0  0  0  0  0  0  0  0
   -1.6077   -0.9608    1.4888 C   0  0  0  0  0  0  0  0  0  0  0  0
   -0.2647   -1.6476    1.7750 C   0  0  0  0  0  0  0  0  0  0  0  0
    0.1356   -1.8076    3.1225 O   0  0  0  0  0  0  0  0  0  0  0  0
    1.4385   -1.2274    3.2798 C   0  0  0  0  0  0  0  0  0  0  0  0
    1.6336   -0.3539    2.0590 C   0  0  0  0  0  0  0  0  0  0  0  0
    0.6609   -0.6137    1.1961 C   0  0  0  0  0  0  0  0  0  0  0  0
    1.1943    1.7760   -0.3110 H   0  0  0  0  0  0  0  0  0  0  0  0
   -0.4647    1.8968   -0.9291 H   0  0  0  0  0  0  0  0  0  0  0  0
   -0.1578    2.0180    0.8168 H   0  0  0  0  0  0  0  0  0  0  0  0
    0.2997   -0.4665   -0.9249 H   0  0  0  0  0  0  0  0  0  0  0  0
   -1.8154   -0.2217    2.2766 H   0  0  0  0  0  0  0  0  0  0  0  0
   -2.4622   -1.6357    1.3947 H   0  0  0  0  0  0  0  0  0  0  0  0
   -0.2176   -2.6114    1.2411 H   0  0  0  0  0  0  0  0  0  0  0  0
    1.4596   -0.6477    4.2123 H   0  0  0  0  0  0  0  0  0  0  0  0
    2.2008   -2.0193    3.3694 H   0  0  0  0  0  0  0  0  0  0  0  0
    2.4157    0.3906    1.9821 H   0  0  0  0  0  0  0  0  0  0  0  0
  1  2  1  0
  2  3  1  0
  3  4  1  0
  4  5  1  0
  5  6  1  0
  6  7  1  0
  7  8  1  0
  8  9  2  0
  9  2  1  0
  9  5  1  0
  1 10  1  0
  1 11  1  0
  1 12  1  0
  2 13  1  0
  4 14  1  0
  4 15  1  0
  5 16  1  0
  7 17  1  0
  7 18  1  0
  8 19  1  0
M  END
$$$$
