
     RDKit          3D

 19 21  0  0  0  0  0  0  0  0999 V2000
    0.2989   -0.2646    0.0944 O   0  0  0  0  0  0  0  0  0  0  0  0
   -0.7814    0.5767    0.4439 C   0  0  0  0  0  0  0  0  0  0  0  0
   -2.1069   -0.2182    0.5299 C   0  0  0  0  0  0  0  0  0  0  0  0
   -3.0844    0.9285    0.8530 C   0  0  0  0  0  0  0  0  0  0  0  0
   -2.3797    1.4203    2.1529 C   0  0  0  0  0  0  0  0  0  0  0  0
   -2.9664    0.7525    3.2714 O   0  0  0  0  0  0  0  0  0  0  0  0
   -2.6927   -0.6457    3.0761 C   0  0  0  0  0  0  0  0  0  0  0  0
   -1.6426   -0.6721    1.9699 C   0  0  0  0  0  0  0  0  0  0  0  0
   -0.9956    0.7475    1.9705 C   0  0  0  0  0  0  0  0  0  0  0  0
    1.1161    0.1852    0.3314 H   0  0  0  0  0  0  0  0  0  0  0  0
   -0.7893    1.4829   -0.1791 H   0  0  0  0  0  0  0  0  0  0  0  0
   -2.3771   -0.9342   -0.2459 H   0  0  0  0  0  0  0  0  0  0  0  0
   -3.1117    1.6797    0.0572 H   0  0  0  0  0  0  0  0  0  0  0  0
   -4.1081    0.6147    1.0683 H   0  0  0  0  0  0  0  0  0  0  0  0
   -2.4097    2.4919    2.3493 H   0  0  0  0  0  0  0  0  0  0  0  0
   -2.3200   -1.0646    4.0183 H   0  0  0  0  0  0  0  0  0  0  0  0
   -3.6117   -1.1842    2.8046 H   0  0  0  0  0  0  0  0  0  0  0  0
   -0.9569   -1.5147    1.9660 H   0  0  0  0  0  0  0  0  0  0  0  0
   -0.1990    1.0405    2.6555 H   0  0  0  0  0  0  0  0  0  0  0  0
  1  2  1  0
  2  3  1  0
  3  4  1  0
  4  5  1  0
  5  6  1  0
  6  7  1  0
  7  8  1  0
  8  9  1  0
  9  2  1  0
  8  3  1  0
  9  5  1  0
  1 10  1  0
  2 11  1  0
  3 12  1  0
  4 13  1  0
  4 14  1  0
  5 15  1  0
  7 16  1  0
  7 17  1  0
  8 18  1  0
  9 19  1  0
M  END
$$$$
