
     RDKit          3D

 19 21  0  0  0  0  0  0  0  0999 V2000
   -3.6817   -0.6058    2.5021 C   0  0  0  0  0  0  0  0  0  0  0  0
   -2.6631    0.1752    1.7098 C   0  0  0  0  0  0  0  0  0  0  0  0
   -1.1727   -0.0149    1.9796 C   0  0  0  0  0  0  0  0  0  0  0  0
   -0.5509    0.9502    0.9244 C   0  0  0  0  0  0  0  0  0  0  0  0
    0.1788    0.2893   -0.1006 O   0  0  0  0  0  0  0  0  0  0  0  0
   -1.8135    1.5263    0.3116 C   0  0  0  0  0  0  0  0  0  0  0  0
   -2.9111    1.6921    1.3972 C   0  0  0  0  0  0  0  0  0  0  0  0
   -3.9647    1.3560    0.4305 O   0  0  0  0  0  0  0  0  0  0  0  0
   -2.8739    0.3999    0.1728 C   0  0  0  0  0  0  0  0  0  0  0  0
   -3.5839   -0.4081    3.5756 H   0  0  0  0  0  0  0  0  0  0  0  0
   -4.6913   -0.3286    2.1879 H   0  0  0  0  0  0  0  0  0  0  0  0
   -3.5545   -1.6841    2.3538 H   0  0  0  0  0  0  0  0  0  0  0  0
   -0.9064    0.2493    3.0092 H   0  0  0  0  0  0  0  0  0  0  0  0
   -0.8446   -1.0440    1.7982 H   0  0  0  0  0  0  0  0  0  0  0  0
    0.0677    1.7277    1.3953 H   0  0  0  0  0  0  0  0  0  0  0  0
    0.9754   -0.0821    0.2912 H   0  0  0  0  0  0  0  0  0  0  0  0
   -1.7384    2.2715   -0.4779 H   0  0  0  0  0  0  0  0  0  0  0  0
   -3.0945    2.5227    2.0815 H   0  0  0  0  0  0  0  0  0  0  0  0
   -3.0119   -0.3280   -0.6268 H   0  0  0  0  0  0  0  0  0  0  0  0
  1  2  1  0
  2  3  1  0
  3  4  1  0
  4  5  1  0
  4  6  1  0
  6  7  1  0
  7  8  1  0
  8  9  1  0
  7  2  1  0
  9  2  1  0
  9  6  1  0
  1 10  1  0
  1 11  1  0
  1 12  1  0
  3 13  1  0
  3 14  1  0
  4 15  1  0
  5 16  1  0
  6 17  1  0
  7 18  1  0
  9 19  1  0
M  END
$$$$
