
     RDKit          3D

 19 21  0  0  0  0  0  0  0  0999 V2000
    0.3679    0.6919    0.3599 O   0  0  0  0  0  0  0  0  0  0  0  0
   -0.6974    0.2432    1.1465 C   0  0  0  0  0  0  0  0  0  0  0  0
   -1.3255    1.2009    2.1314 C   0  0  0  0  0  0  0  0  0  0  0  0
   -0.4715    0.0283    2.6212 C   0  0  0  0  0  0  0  0  0  0  0  0
   -1.5135   -0.7077    3.4778 C   0  0  0  0  0  0  0  0  0  0  0  0
   -1.0135   -1.8572    4.0797 O   0  0  0  0  0  0  0  0  0  0  0  0
   -2.1455    0.5044    4.2665 C   0  0  0  0  0  0  0  0  0  0  0  0
   -2.6567    0.8615    2.8311 C   0  0  0  0  0  0  0  0  0  0  0  0
   -2.8156   -0.6733    2.6246 C   0  0  0  0  0  0  0  0  0  0  0  0
    0.9340    1.2554    0.8979 H   0  0  0  0  0  0  0  0  0  0  0  0
   -1.2937   -0.4409    0.5558 H   0  0  0  0  0  0  0  0  0  0  0  0
   -0.9660    2.2252    2.1518 H   0  0  0  0  0  0  0  0  0  0  0  0
    0.5267    0.1451    3.0314 H   0  0  0  0  0  0  0  0  0  0  0  0
   -1.7142   -2.2527    4.6081 H   0  0  0  0  0  0  0  0  0  0  0  0
   -2.9476    0.1994    4.9462 H   0  0  0  0  0  0  0  0  0  0  0  0
   -1.4645    1.2045    4.7573 H   0  0  0  0  0  0  0  0  0  0  0  0
   -3.4969    1.5357    2.6755 H   0  0  0  0  0  0  0  0  0  0  0  0
   -3.6677   -1.0578    3.1915 H   0  0  0  0  0  0  0  0  0  0  0  0
   -2.8280   -1.0980    1.6209 H   0  0  0  0  0  0  0  0  0  0  0  0
  1  2  1  0
  2  3  1  0
  3  4  1  0
  4  5  1  0
  5  6  1  0
  5  7  1  0
  7  8  1  0
  8  9  1  0
  4  2  1  0
  9  5  1  0
  8  3  1  0
  1 10  1  0
  2 11  1  0
  3 12  1  0
  4 13  1  0
  6 14  1  0
  7 15  1  0
  7 16  1  0
  8 17  1  0
  9 18  1  0
  9 19  1  0
M  END
$$$$
