
     RDKit          3D

 19 20  0  0  0  0  0  0  0  0999 V2000
   -0.2466   -2.4331   -0.8971 C   0  0  0  0  0  0  0  0  0  0  0  0
   -0.8519   -1.2611   -0.1282 C   0  0  0  0  0  0  0  0  0  0  0  0
   -2.3673   -1.0310   -0.4021 C   0  0  0  0  0  0  0  0  0  0  0  0
   -2.7300    0.4361   -0.1487 C   0  0  0  0  0  0  0  0  0  0  0  0
   -1.9767    1.3873   -1.1019 C   0  0  0  0  0  0  0  0  0  0  0  0
   -0.8942    1.2764   -0.0026 C   0  0  0  0  0  0  0  0  0  0  0  0
   -1.9179    0.9265    0.9655 O   0  0  0  0  0  0  0  0  0  0  0  0
   -0.0588    0.0385   -0.3156 C   0  0  0  0  0  0  0  0  0  0  0  0
    1.0868    0.0912   -0.6930 O   0  0  0  0  0  0  0  0  0  0  0  0
   -0.7647   -3.3658   -0.6538 H   0  0  0  0  0  0  0  0  0  0  0  0
   -0.3232   -2.2743   -1.9780 H   0  0  0  0  0  0  0  0  0  0  0  0
    0.8123   -2.5465   -0.6554 H   0  0  0  0  0  0  0  0  0  0  0  0
   -0.7609   -1.4553    0.9497 H   0  0  0  0  0  0  0  0  0  0  0  0
   -2.6157   -1.2947   -1.4375 H   0  0  0  0  0  0  0  0  0  0  0  0
   -2.9587   -1.6879    0.2432 H   0  0  0  0  0  0  0  0  0  0  0  0
   -3.7977    0.5982    0.0178 H   0  0  0  0  0  0  0  0  0  0  0  0
   -1.7387    1.0413   -2.1106 H   0  0  0  0  0  0  0  0  0  0  0  0
   -2.4161    2.3853   -1.1336 H   0  0  0  0  0  0  0  0  0  0  0  0
   -0.2905    2.1407    0.2787 H   0  0  0  0  0  0  0  0  0  0  0  0
  1  2  1  0
  2  3  1  0
  3  4  1  0
  4  5  1  0
  5  6  1  0
  6  7  1  0
  6  8  1  0
  8  9  2  0
  8  2  1  0
  7  4  1  0
  1 10  1  0
  1 11  1  0
  1 12  1  0
  2 13  1  0
  3 14  1  0
  3 15  1  0
  4 16  1  0
  5 17  1  0
  5 18  1  0
  6 19  1  0
M  END
$$$$
