
     RDKit          3D

 19 21  0  0  0  0  0  0  0  0999 V2000
    0.1946   -3.6419    1.0050 O   0  0  0  0  0  0  0  0  0  0  0  0
    0.0787   -2.2302    0.8700 C   0  0  0  0  0  0  0  0  0  0  0  0
    1.4579   -1.5619    0.7721 C   0  0  0  0  0  0  0  0  0  0  0  0
    1.4254   -0.0956    0.3750 C   0  0  0  0  0  0  0  0  0  0  0  0
    0.3615    0.8663    0.8418 C   0  0  0  0  0  0  0  0  0  0  0  0
    0.3758    0.3799   -0.5964 C   0  0  0  0  0  0  0  0  0  0  0  0
   -0.6657   -0.6025   -1.0162 C   0  0  0  0  0  0  0  0  0  0  0  0
   -0.2131   -1.8440   -1.5934 O   0  0  0  0  0  0  0  0  0  0  0  0
   -0.8228   -1.8722   -0.2949 C   0  0  0  0  0  0  0  0  0  0  0  0
    0.5801   -3.9734    0.1854 H   0  0  0  0  0  0  0  0  0  0  0  0
   -0.4266   -1.9105    1.7897 H   0  0  0  0  0  0  0  0  0  0  0  0
    1.9785   -1.6962    1.7264 H   0  0  0  0  0  0  0  0  0  0  0  0
    2.0363   -2.1053    0.0145 H   0  0  0  0  0  0  0  0  0  0  0  0
    2.4124    0.3388    0.2448 H   0  0  0  0  0  0  0  0  0  0  0  0
   -0.4337    0.5050    1.4849 H   0  0  0  0  0  0  0  0  0  0  0  0
    0.6529    1.8925    1.0358 H   0  0  0  0  0  0  0  0  0  0  0  0
    0.6750    1.0915   -1.3600 H   0  0  0  0  0  0  0  0  0  0  0  0
   -1.5425   -0.1906   -1.5166 H   0  0  0  0  0  0  0  0  0  0  0  0
   -1.8013   -2.3534   -0.2704 H   0  0  0  0  0  0  0  0  0  0  0  0
  1  2  1  0
  2  3  1  0
  3  4  1  0
  4  5  1  0
  5  6  1  0
  6  7  1  0
  7  8  1  0
  8  9  1  0
  9  2  1  0
  6  4  1  0
  9  7  1  0
  1 10  1  0
  2 11  1  0
  3 12  1  0
  3 13  1  0
  4 14  1  0
  5 15  1  0
  5 16  1  0
  6 17  1  0
  7 18  1  0
  9 19  1  0
M  END
$$$$
