
     RDKit          3D

 19 21  0  0  0  0  0  0  0  0999 V2000
    0.4489    0.9472    0.2851 O   0  0  0  0  0  0  0  0  0  0  0  0
   -0.7825    0.7537    0.9155 C   0  0  0  0  0  0  0  0  0  0  0  0
   -1.8403    0.0113    0.1469 C   0  0  0  0  0  0  0  0  0  0  0  0
   -3.0062   -0.1584    0.9532 O   0  0  0  0  0  0  0  0  0  0  0  0
   -3.1989    1.2826    1.0081 C   0  0  0  0  0  0  0  0  0  0  0  0
   -4.5095    1.8629    0.4348 C   0  0  0  0  0  0  0  0  0  0  0  0
   -4.5085    2.8849    1.6066 C   0  0  0  0  0  0  0  0  0  0  0  0
   -3.5052    1.9631    2.3570 C   0  0  0  0  0  0  0  0  0  0  0  0
   -1.9009    1.5172    0.2436 C   0  0  0  0  0  0  0  0  0  0  0  0
    0.9493    0.1270    0.3540 H   0  0  0  0  0  0  0  0  0  0  0  0
   -0.7615    0.6591    2.0035 H   0  0  0  0  0  0  0  0  0  0  0  0
   -1.6605   -0.6690   -0.6777 H   0  0  0  0  0  0  0  0  0  0  0  0
   -4.4925    2.2381   -0.5914 H   0  0  0  0  0  0  0  0  0  0  0  0
   -5.3133    1.1281    0.5345 H   0  0  0  0  0  0  0  0  0  0  0  0
   -4.0576    3.8390    1.3224 H   0  0  0  0  0  0  0  0  0  0  0  0
   -5.4643    3.0834    2.0942 H   0  0  0  0  0  0  0  0  0  0  0  0
   -2.6707    2.4208    2.8935 H   0  0  0  0  0  0  0  0  0  0  0  0
   -4.0191    1.2636    3.0225 H   0  0  0  0  0  0  0  0  0  0  0  0
   -1.7034    2.2831   -0.4940 H   0  0  0  0  0  0  0  0  0  0  0  0
  1  2  1  0
  2  3  1  0
  3  4  1  0
  4  5  1  0
  5  6  1  0
  6  7  1  0
  7  8  1  0
  5  9  1  0
  9  2  1  0
  9  3  1  0
  8  5  1  0
  1 10  1  0
  2 11  1  0
  3 12  1  0
  6 13  1  0
  6 14  1  0
  7 15  1  0
  7 16  1  0
  8 17  1  0
  8 18  1  0
  9 19  1  0
M  END
$$$$
