
     RDKit          3D

 19 21  0  0  0  0  0  0  0  0999 V2000
    1.5567    0.8984    0.0260 O   0  0  0  0  0  0  0  0  0  0  0  0
    0.2248    0.3700    0.1256 C   0  0  0  0  0  0  0  0  0  0  0  0
   -0.6673    0.9609   -0.9074 C   0  0  0  0  0  0  0  0  0  0  0  0
   -2.1251    1.3322   -1.0336 C   0  0  0  0  0  0  0  0  0  0  0  0
   -2.2298    0.6988   -2.4217 C   0  0  0  0  0  0  0  0  0  0  0  0
   -0.6899    0.8611   -2.4971 C   0  0  0  0  0  0  0  0  0  0  0  0
   -0.4384    2.3914   -2.5245 C   0  0  0  0  0  0  0  0  0  0  0  0
    0.9304    2.7325   -2.5378 O   0  0  0  0  0  0  0  0  0  0  0  0
   -1.0502    2.4207   -1.1207 C   0  0  0  0  0  0  0  0  0  0  0  0
    1.5271    1.8001    0.3645 H   0  0  0  0  0  0  0  0  0  0  0  0
    0.3335   -0.7111   -0.0094 H   0  0  0  0  0  0  0  0  0  0  0  0
   -0.1873    0.5358    1.1315 H   0  0  0  0  0  0  0  0  0  0  0  0
   -2.8731    1.3590   -0.2499 H   0  0  0  0  0  0  0  0  0  0  0  0
   -2.5325   -0.3503   -2.3626 H   0  0  0  0  0  0  0  0  0  0  0  0
   -2.8252    1.2108   -3.1863 H   0  0  0  0  0  0  0  0  0  0  0  0
   -0.0731    0.2090   -3.1131 H   0  0  0  0  0  0  0  0  0  0  0  0
   -0.9063    2.9744   -3.3249 H   0  0  0  0  0  0  0  0  0  0  0  0
    1.3771    2.1456   -1.9086 H   0  0  0  0  0  0  0  0  0  0  0  0
   -1.0030    3.2263   -0.3968 H   0  0  0  0  0  0  0  0  0  0  0  0
  1  2  1  0
  2  3  1  0
  3  4  1  0
  4  5  1  0
  5  6  1  0
  6  7  1  0
  7  8  1  0
  7  9  1  0
  6  3  1  0
  9  3  1  0
  9  4  1  0
  1 10  1  0
  2 11  1  0
  2 12  1  0
  4 13  1  0
  5 14  1  0
  5 15  1  0
  6 16  1  0
  7 17  1  0
  8 18  1  0
  9 19  1  0
M  END
$$$$
