gdb 28	3.1422024	1.1243135	0.8653636	1.498	80.77	-0.20284	0.01895	0.22179	1356.6125	0.155828	-422.593233	-422.583534	-422.58259	-422.627938	34.656
 OpenBabel02181911403D

 19 19  0  0  0  0  0  0  0  0999 V2000
    4.1708    0.3128    3.0486 C   0  0  0  0  0  0  0  0  0  0  0  0
    2.8038    0.2346    2.4705 C   0  0  0  0  0  0  0  0  0  0  0  0
    2.3189   -0.0881    1.2435 C   0  0  0  0  0  0  0  0  0  0  0  0
    0.8857    0.0193    1.3144 C   0  0  0  0  0  0  0  0  0  0  0  0
   -0.0861   -0.2362    0.1969 C   0  0  0  0  0  0  0  0  0  0  0  0
   -1.2502   -0.9539    0.5992 O   0  0  0  0  0  0  0  0  0  0  0  0
    0.6021    0.4023    2.5947 C   0  0  0  0  0  0  0  0  0  0  0  0
   -0.6619    0.7002    3.3195 C   0  0  0  0  0  0  0  0  0  0  0  0
    1.7634    0.5316    3.3046 O   0  0  0  0  0  0  0  0  0  0  0  0
    4.2922   -0.3739    3.8944 H   0  0  0  0  0  0  0  0  0  0  0  0
    4.9098    0.0514    2.2879 H   0  0  0  0  0  0  0  0  0  0  0  0
    4.3976    1.3213    3.4135 H   0  0  0  0  0  0  0  0  0  0  0  0
    2.9031   -0.3733    0.3813 H   0  0  0  0  0  0  0  0  0  0  0  0
   -0.4665    0.7025   -0.2227 H   0  0  0  0  0  0  0  0  0  0  0  0
    0.4359   -0.7575   -0.6205 H   0  0  0  0  0  0  0  0  0  0  0  0
   -0.9475   -1.7372    1.0714 H   0  0  0  0  0  0  0  0  0  0  0  0
   -0.7185    0.1456    4.2631 H   0  0  0  0  0  0  0  0  0  0  0  0
   -0.7462    1.7660    3.5649 H   0  0  0  0  0  0  0  0  0  0  0  0
   -1.5089    0.4147    2.6942 H   0  0  0  0  0  0  0  0  0  0  0  0
  1 12  1  0  0  0  0
  1 10  1  0  0  0  0
  2  1  1  0  0  0  0
  2  9  1  0  0  0  0
  3  4  1  0  0  0  0
  3  2  2  0  0  0  0
  4  7  2  0  0  0  0
  5  6  1  0  0  0  0
  5  4  1  0  0  0  0
  6 16  1  0  0  0  0
  7  9  1  0  0  0  0
  7  8  1  0  0  0  0
  8 18  1  0  0  0  0
  8 17  1  0  0  0  0
 11  1  1  0  0  0  0
 13  3  1  0  0  0  0
 14  5  1  0  0  0  0
 15  5  1  0  0  0  0
 19  8  1  0  0  0  0
M TOR 0 0 1 2 3
M TOR 1 0 1 2 12
M TOR 2 0 1 8 6
M TOR 3 1 2 3 4
M TOR 4 1 2 3 6
M TOR 5 1 8 6 3
M TOR 6 1 8 6 7
M TOR 7 2 1 0 9
M TOR 8 2 1 0 10
M TOR 9 2 1 0 11
M TOR 10 2 1 8 6
M TOR 11 2 3 4 5
M TOR 12 2 3 4 13
M TOR 13 2 3 4 14
M TOR 14 2 3 6 7
M TOR 15 2 3 6 8
M TOR 16 3 2 1 8
M TOR 17 3 4 5 15
M TOR 18 3 6 7 16
M TOR 19 3 6 7 17
M TOR 20 3 6 7 18
M TOR 21 4 3 2 12
M TOR 22 4 3 6 7
M TOR 23 4 3 6 8
M TOR 24 5 4 3 6
M TOR 25 6 3 2 12
M TOR 26 6 3 4 13
M TOR 27 6 3 4 14
M TOR 28 8 1 0 9
M TOR 29 8 1 0 10
M TOR 30 8 1 0 11
M TOR 31 8 1 2 12
M TOR 32 8 6 7 16
M TOR 33 8 6 7 17
M TOR 34 8 6 7 18
M  END
$$$$
