gdb 3014	2.1197661	1.7121635	1.4580886	1.58	76.34	-0.23178	0.06616	0.29794	1035.2408	0.154623	-422.474589	-422.465755	-422.464811	-422.507448	33.806
 OpenBabel02181911413D

 19 21  0  0  1  0  0  0  0  0999 V2000
    0.3594   -0.0831   -0.0835 O   0  0  0  0  0  0  0  0  0  0  0  0
   -0.6936    0.5537    0.5804 C   0  0  2  0  0  0  0  0  0  0  0  0
   -2.1906    0.2158    0.2787 C   0  0  1  0  0  0  0  0  0  0  0  0
   -2.5041    1.5715    0.7823 O   0  0  0  0  0  0  0  0  0  0  0  0
   -1.3390    1.7734   -0.1308 C   0  0  1  0  0  0  0  0  0  0  0  0
   -0.8113    3.1559   -0.3364 C   0  0  0  0  0  0  0  0  0  0  0  0
   -2.0197    0.8056   -1.1205 C   0  0  0  0  0  0  0  0  0  0  0  0
   -1.6752    0.2648   -2.4606 C   0  0  0  0  0  0  0  0  0  0  0  0
   -2.9722    1.0367   -2.2381 C   0  0  0  0  0  0  0  0  0  0  0  0
    0.6465   -0.8308    0.4492 H   0  0  0  0  0  0  0  0  0  0  0  0
   -0.5040    0.7292    1.6456 H   0  0  0  0  0  0  0  0  0  0  0  0
   -2.8159   -0.6078    0.6245 H   0  0  0  0  0  0  0  0  0  0  0  0
   -0.5357    3.6071    0.6215 H   0  0  0  0  0  0  0  0  0  0  0  0
    0.0790    3.1234   -0.9723 H   0  0  0  0  0  0  0  0  0  0  0  0
   -1.5625    3.7902   -0.8167 H   0  0  0  0  0  0  0  0  0  0  0  0
   -0.8826    0.7468   -3.0238 H   0  0  0  0  0  0  0  0  0  0  0  0
   -1.7381   -0.8071   -2.6179 H   0  0  0  0  0  0  0  0  0  0  0  0
   -3.0474    2.0358   -2.6563 H   0  0  0  0  0  0  0  0  0  0  0  0
   -3.9057    0.4830   -2.2469 H   0  0  0  0  0  0  0  0  0  0  0  0
  1 10  1  0  0  0  0
  1  2  1  0  0  0  0
  2 11  1  1  0  0  0
  3  2  1  0  0  0  0
  3 12  1  1  0  0  0
  3  4  1  0  0  0  0
  5  6  1  6  0  0  0
  5  2  1  0  0  0  0
  5  4  1  0  0  0  0
  6 13  1  0  0  0  0
  7  5  1  0  0  0  0
  7  3  1  0  0  0  0
  8  9  1  0  0  0  0
  8  7  1  0  0  0  0
  9  7  1  0  0  0  0
 14  6  1  0  0  0  0
 15  6  1  0  0  0  0
 16  8  1  0  0  0  0
 17  8  1  0  0  0  0
 18  9  1  0  0  0  0
 19  9  1  0  0  0  0
M TOR 0 0 1 2 3
M TOR 1 0 1 2 6
M TOR 2 0 1 2 11
M TOR 3 0 1 4 3
M TOR 4 0 1 4 5
M TOR 5 0 1 4 6
M TOR 6 1 2 3 4
M TOR 7 1 2 6 4
M TOR 8 1 2 6 7
M TOR 9 1 2 6 8
M TOR 10 1 4 5 12
M TOR 11 1 4 5 13
M TOR 12 1 4 5 14
M TOR 13 1 4 6 7
M TOR 14 1 4 6 8
M TOR 15 2 1 0 9
M TOR 16 2 1 4 5
M TOR 17 2 3 4 5
M TOR 18 2 3 4 6
M TOR 19 2 6 4 5
M TOR 20 2 6 7 8
M TOR 21 2 6 7 15
M TOR 22 2 6 7 16
M TOR 23 2 6 8 17
M TOR 24 2 6 8 18
M TOR 25 3 2 1 10
M TOR 26 3 2 6 7
M TOR 27 3 2 6 8
M TOR 28 3 4 1 10
M TOR 29 3 4 5 12
M TOR 30 3 4 5 13
M TOR 31 3 4 5 14
M TOR 32 3 4 6 7
M TOR 33 3 4 6 8
M TOR 34 4 1 0 9
M TOR 35 4 1 2 11
M TOR 36 4 3 2 11
M TOR 37 4 6 2 11
M TOR 38 4 6 7 8
M TOR 39 4 6 7 15
M TOR 40 4 6 7 16
M TOR 41 4 6 8 17
M TOR 42 4 6 8 18
M TOR 43 5 4 1 10
M TOR 44 5 4 6 7
M TOR 45 5 4 6 8
M TOR 46 6 2 1 10
M TOR 47 6 4 1 10
M TOR 48 6 4 5 12
M TOR 49 6 4 5 13
M TOR 50 6 4 5 14
M TOR 51 6 7 8 17
M TOR 52 6 7 8 18
M TOR 53 6 8 7 15
M TOR 54 6 8 7 16
M TOR 55 7 6 2 11
M TOR 56 8 6 2 11
M  END
$$$$
