
     RDKit          3D

 19 20  0  0  0  0  0  0  0  0999 V2000
    1.3069   -0.4297    0.4450 O   0  0  0  0  0  0  0  0  0  0  0  0
    0.1395   -0.2906    0.1755 C   0  0  0  0  0  0  0  0  0  0  0  0
   -0.6613    0.9297    0.5547 C   0  0  0  0  0  0  0  0  0  0  0  0
   -1.8121    1.4743   -0.3515 C   0  0  0  0  0  0  0  0  0  0  0  0
   -1.4675    2.8792    0.2108 C   0  0  0  0  0  0  0  0  0  0  0  0
   -0.0228    2.3412    0.3837 C   0  0  0  0  0  0  0  0  0  0  0  0
    0.6888    2.3665   -0.9769 C   0  0  0  0  0  0  0  0  0  0  0  0
    0.0701    1.4696   -1.8983 O   0  0  0  0  0  0  0  0  0  0  0  0
   -1.3485    1.4126   -1.8146 C   0  0  0  0  0  0  0  0  0  0  0  0
   -0.4297   -1.0957   -0.3447 H   0  0  0  0  0  0  0  0  0  0  0  0
   -1.0259    0.7925    1.5797 H   0  0  0  0  0  0  0  0  0  0  0  0
   -2.8268    1.0892   -0.2295 H   0  0  0  0  0  0  0  0  0  0  0  0
   -1.6112    3.7345   -0.4577 H   0  0  0  0  0  0  0  0  0  0  0  0
   -1.9557    3.0780    1.1682 H   0  0  0  0  0  0  0  0  0  0  0  0
    0.6082    2.7486    1.1749 H   0  0  0  0  0  0  0  0  0  0  0  0
    0.6959    3.3922   -1.3787 H   0  0  0  0  0  0  0  0  0  0  0  0
    1.7211    2.0190   -0.8865 H   0  0  0  0  0  0  0  0  0  0  0  0
   -1.8128    2.2324   -2.3869 H   0  0  0  0  0  0  0  0  0  0  0  0
   -1.6325    0.4696   -2.2929 H   0  0  0  0  0  0  0  0  0  0  0  0
  1  2  2  0
  2  3  1  0
  3  4  1  0
  4  5  1  0
  5  6  1  0
  6  7  1  0
  7  8  1  0
  8  9  1  0
  6  3  1  0
  9  4  1  0
  2 10  1  0
  3 11  1  0
  4 12  1  0
  5 13  1  0
  5 14  1  0
  6 15  1  0
  7 16  1  0
  7 17  1  0
  9 18  1  0
  9 19  1  0
M  END
$$$$
