
     RDKit          3D

 19 21  0  0  0  0  0  0  0  0999 V2000
    1.3374    0.7135    0.0365 O   0  0  0  0  0  0  0  0  0  0  0  0
    0.3209   -0.1004    0.5981 C   0  0  0  0  0  0  0  0  0  0  0  0
   -0.9164    0.7020    1.0230 C   0  0  0  0  0  0  0  0  0  0  0  0
   -2.0371   -0.1708    1.5109 C   0  0  0  0  0  0  0  0  0  0  0  0
   -2.1666   -0.7285    2.9057 C   0  0  0  0  0  0  0  0  0  0  0  0
   -3.2510    0.1718    2.3687 C   0  0  0  0  0  0  0  0  0  0  0  0
   -4.1568   -0.5837    1.3469 C   0  0  0  0  0  0  0  0  0  0  0  0
   -3.7244   -1.9486    1.2383 O   0  0  0  0  0  0  0  0  0  0  0  0
   -3.0027   -0.9324    0.5298 C   0  0  0  0  0  0  0  0  0  0  0  0
    1.6432    1.3166    0.7215 H   0  0  0  0  0  0  0  0  0  0  0  0
    0.0509   -0.8170   -0.1854 H   0  0  0  0  0  0  0  0  0  0  0  0
    0.6948   -0.6861    1.4522 H   0  0  0  0  0  0  0  0  0  0  0  0
   -0.6338    1.4078    1.8165 H   0  0  0  0  0  0  0  0  0  0  0  0
   -1.2445    1.3087    0.1688 H   0  0  0  0  0  0  0  0  0  0  0  0
   -2.3650   -1.7805    3.0670 H   0  0  0  0  0  0  0  0  0  0  0  0
   -1.5177   -0.2606    3.6402 H   0  0  0  0  0  0  0  0  0  0  0  0
   -3.5088    1.1252    2.8114 H   0  0  0  0  0  0  0  0  0  0  0  0
   -5.1849   -0.3613    1.0895 H   0  0  0  0  0  0  0  0  0  0  0  0
   -2.8796   -1.0526   -0.5404 H   0  0  0  0  0  0  0  0  0  0  0  0
  1  2  1  0
  2  3  1  0
  3  4  1  0
  4  5  1  0
  5  6  1  0
  6  7  1  0
  7  8  1  0
  8  9  1  0
  6  4  1  0
  9  7  1  0
  9  4  1  0
  1 10  1  0
  2 11  1  0
  2 12  1  0
  3 13  1  0
  3 14  1  0
  5 15  1  0
  5 16  1  0
  6 17  1  0
  7 18  1  0
  9 19  1  0
M  END
$$$$
