gdb 1969	3.231747	1.4366584	1.1835289	1.0632	74.3	-0.25116	0.07016	0.32132	1085.4736	0.156325	-422.542787	-422.534584	-422.53364	-422.574817	32.67
 OpenBabel02181911403D

 19 21  0  0  1  0  0  0  0  0999 V2000
    0.0388   -0.4243   -0.3046 C   0  0  0  0  0  0  0  0  0  0  0  0
    1.3900    0.0879    0.1141 C   0  0  2  0  0  0  0  0  0  0  0  0
    2.0400   -0.4167    1.4024 C   0  0  0  0  0  0  0  0  0  0  0  0
    3.0183    0.6780    1.8560 C   0  0  1  0  0  0  0  0  0  0  0  0
    3.0978    0.9273    3.2292 O   0  0  0  0  0  0  0  0  0  0  0  0
    4.1884    1.0399    0.9857 C   0  0  0  0  0  0  0  0  0  0  0  0
    2.9002    1.8447    0.9025 C   0  0  1  0  0  0  0  0  0  0  0  0
    1.9215    1.4365   -0.1711 C   0  0  1  0  0  0  0  0  0  0  0  0
    2.3335    0.3020   -0.9532 O   0  0  0  0  0  0  0  0  0  0  0  0
   -0.7059   -0.2474    0.4784 H   0  0  0  0  0  0  0  0  0  0  0  0
   -0.2895    0.0724   -1.2212 H   0  0  0  0  0  0  0  0  0  0  0  0
    0.0729   -1.5024   -0.4978 H   0  0  0  0  0  0  0  0  0  0  0  0
    1.2776   -0.5254    2.1811 H   0  0  0  0  0  0  0  0  0  0  0  0
    2.5148   -1.3938    1.2583 H   0  0  0  0  0  0  0  0  0  0  0  0
    3.7647    0.3399    3.6006 H   0  0  0  0  0  0  0  0  0  0  0  0
    5.0167    1.5265    1.4900 H   0  0  0  0  0  0  0  0  0  0  0  0
    4.4444    0.4108    0.1420 H   0  0  0  0  0  0  0  0  0  0  0  0
    2.8894    2.8643    1.2671 H   0  0  0  0  0  0  0  0  0  0  0  0
    1.3607    2.1920   -0.7151 H   0  0  0  0  0  0  0  0  0  0  0  0
  1 10  1  0  0  0  0
  2  1  1  6  0  0  0
  2  3  1  0  0  0  0
  3  4  1  0  0  0  0
  3 13  1  0  0  0  0
  4  5  1  1  0  0  0
  5 15  1  0  0  0  0
  6 16  1  0  0  0  0
  6  4  1  0  0  0  0
  7  6  1  0  0  0  0
  7 18  1  1  0  0  0
  7  4  1  0  0  0  0
  8 19  1  6  0  0  0
  8  2  1  0  0  0  0
  8  7  1  0  0  0  0
  9  8  1  0  0  0  0
  9  2  1  0  0  0  0
 11  1  1  0  0  0  0
 12  1  1  0  0  0  0
 14  3  1  0  0  0  0
 17  6  1  0  0  0  0
M TOR 0 0 1 2 3
M TOR 1 0 1 2 12
M TOR 2 0 1 2 13
M TOR 3 0 1 7 6
M TOR 4 0 1 7 8
M TOR 5 0 1 7 18
M TOR 6 1 2 3 4
M TOR 7 1 2 3 5
M TOR 8 1 2 3 6
M TOR 9 1 7 6 3
M TOR 10 1 7 6 5
M TOR 11 1 7 6 17
M TOR 12 1 8 7 6
M TOR 13 1 8 7 18
M TOR 14 2 1 0 9
M TOR 15 2 1 0 10
M TOR 16 2 1 0 11
M TOR 17 2 1 7 6
M TOR 18 2 1 7 8
M TOR 19 2 1 7 18
M TOR 20 2 3 4 14
M TOR 21 2 3 5 6
M TOR 22 2 3 5 15
M TOR 23 2 3 5 16
M TOR 24 2 3 6 7
M TOR 25 2 3 6 17
M TOR 26 3 2 1 7
M TOR 27 3 2 1 8
M TOR 28 3 5 6 7
M TOR 29 3 5 6 17
M TOR 30 3 6 5 15
M TOR 31 3 6 5 16
M TOR 32 3 6 7 8
M TOR 33 3 6 7 18
M TOR 34 4 3 2 12
M TOR 35 4 3 2 13
M TOR 36 4 3 5 6
M TOR 37 4 3 5 15
M TOR 38 4 3 5 16
M TOR 39 4 3 6 7
M TOR 40 4 3 6 17
M TOR 41 5 3 2 12
M TOR 42 5 3 2 13
M TOR 43 5 3 4 14
M TOR 44 5 6 7 8
M TOR 45 5 6 7 18
M TOR 46 6 3 2 12
M TOR 47 6 3 2 13
M TOR 48 6 3 4 14
M TOR 49 7 1 0 9
M TOR 50 7 1 0 10
M TOR 51 7 1 0 11
M TOR 52 7 1 2 12
M TOR 53 7 1 2 13
M TOR 54 7 6 5 15
M TOR 55 7 6 5 16
M TOR 56 8 1 0 9
M TOR 57 8 1 0 10
M TOR 58 8 1 0 11
M TOR 59 8 1 2 12
M TOR 60 8 1 2 13
M TOR 61 8 7 6 17
M  END
$$$$
