gdb 3959	3.5998954	1.33761	1.1463047	2.4522	75.02	-0.23557	0.06031	0.29588000000000003	1104.0228	0.157074	-422.50435	-422.496453	-422.495509	-422.536642	30.852
 OpenBabel02181911413D

 19 21  0  0  1  0  0  0  0  0999 V2000
    0.5070    0.3753    0.6368 O   0  0  0  0  0  0  0  0  0  0  0  0
   -0.7857    0.8221    0.2994 C   0  0  2  0  0  0  0  0  0  0  0  0
   -1.9242   -0.2584    0.3043 C   0  0  0  0  0  0  0  0  0  0  0  0
   -2.2321    0.1032   -1.1514 C   0  0  1  0  0  0  0  0  0  0  0  0
   -2.8192   -0.6465   -2.3513 C   0  0  0  0  0  0  0  0  0  0  0  0
   -3.3148    0.7232   -2.9272 C   0  0  0  0  0  0  0  0  0  0  0  0
   -2.9204    1.4238   -1.5951 C   0  0  2  0  0  0  0  0  0  0  0  0
   -1.6787    2.1611   -1.6414 O   0  0  0  0  0  0  0  0  0  0  0  0
   -0.9551    0.9828   -1.2362 C   0  0  1  0  0  0  0  0  0  0  0  0
    0.5194    0.1677    1.5769 H   0  0  0  0  0  0  0  0  0  0  0  0
   -1.0557    1.7483    0.8236 H   0  0  0  0  0  0  0  0  0  0  0  0
   -1.4814   -1.2562    0.3914 H   0  0  0  0  0  0  0  0  0  0  0  0
   -2.7298   -0.1556    1.0370 H   0  0  0  0  0  0  0  0  0  0  0  0
   -2.1215   -1.2281   -2.9602 H   0  0  0  0  0  0  0  0  0  0  0  0
   -3.6519   -1.2980   -2.0683 H   0  0  0  0  0  0  0  0  0  0  0  0
   -2.7368    1.1028   -3.7719 H   0  0  0  0  0  0  0  0  0  0  0  0
   -4.3777    0.7627   -3.1762 H   0  0  0  0  0  0  0  0  0  0  0  0
   -3.7039    1.9515   -1.0436 H   0  0  0  0  0  0  0  0  0  0  0  0
   -0.0644    0.7733   -1.8347 H   0  0  0  0  0  0  0  0  0  0  0  0
  1 10  1  0  0  0  0
  2  3  1  0  0  0  0
  2  1  1  0  0  0  0
  2 11  1  1  0  0  0
  3 12  1  0  0  0  0
  3 13  1  0  0  0  0
  4  5  1  6  0  0  0
  4  3  1  0  0  0  0
  5 15  1  0  0  0  0
  6  5  1  0  0  0  0
  6  7  1  0  0  0  0
  7  4  1  0  0  0  0
  7 18  1  1  0  0  0
  8  7  1  0  0  0  0
  8  9  1  0  0  0  0
  9 19  1  6  0  0  0
  9  4  1  0  0  0  0
  9  2  1  0  0  0  0
 14  5  1  0  0  0  0
 16  6  1  0  0  0  0
 17  6  1  0  0  0  0
M TOR 0 0 1 2 3
M TOR 1 0 1 2 11
M TOR 2 0 1 2 12
M TOR 3 0 1 8 3
M TOR 4 0 1 8 7
M TOR 5 0 1 8 18
M TOR 6 1 2 3 4
M TOR 7 1 2 3 6
M TOR 8 1 2 3 8
M TOR 9 1 8 3 4
M TOR 10 1 8 3 6
M TOR 11 1 8 7 6
M TOR 12 2 1 0 9
M TOR 13 2 1 8 7
M TOR 14 2 1 8 18
M TOR 15 2 3 4 5
M TOR 16 2 3 4 13
M TOR 17 2 3 4 14
M TOR 18 2 3 6 5
M TOR 19 2 3 6 7
M TOR 20 2 3 6 17
M TOR 21 2 3 8 7
M TOR 22 2 3 8 18
M TOR 23 3 2 1 10
M TOR 24 3 4 5 6
M TOR 25 3 4 5 15
M TOR 26 3 4 5 16
M TOR 27 3 6 5 15
M TOR 28 3 6 5 16
M TOR 29 3 6 7 8
M TOR 30 3 8 1 10
M TOR 31 4 3 2 11
M TOR 32 4 3 2 12
M TOR 33 4 3 6 7
M TOR 34 4 3 6 17
M TOR 35 4 3 8 7
M TOR 36 4 3 8 18
M TOR 37 4 5 6 7
M TOR 38 4 5 6 17
M TOR 39 5 4 3 8
M TOR 40 5 6 3 8
M TOR 41 5 6 7 8
M TOR 42 6 3 2 11
M TOR 43 6 3 2 12
M TOR 44 6 3 4 13
M TOR 45 6 3 4 14
M TOR 46 6 3 8 18
M TOR 47 6 5 4 13
M TOR 48 6 5 4 14
M TOR 49 6 7 8 18
M TOR 50 7 6 5 15
M TOR 51 7 6 5 16
M TOR 52 7 8 1 10
M TOR 53 8 1 0 9
M TOR 54 8 1 2 11
M TOR 55 8 1 2 12
M TOR 56 8 3 2 11
M TOR 57 8 3 2 12
M TOR 58 8 3 4 13
M TOR 59 8 3 4 14
M TOR 60 8 3 6 17
M TOR 61 8 7 6 17
M  END
$$$$
