gdb 1453	2.8209541	1.4134273	1.1084175	1.9219	76.39	-0.24076	-0.03094	0.20982	1133.575	0.153742	-422.490786	-422.481696	-422.480752	-422.524716	33.533
 OpenBabel02181911403D

 19 20  0  0  1  0  0  0  0  0999 V2000
    1.1609    0.2386    0.1560 O   0  0  0  0  0  0  0  0  0  0  0  0
    0.0837   -0.3039    0.1354 C   0  0  0  0  0  0  0  0  0  0  0  0
   -1.1068    0.2160   -0.6224 C   0  0  1  0  0  0  0  0  0  0  0  0
   -2.5753    0.3942   -0.1182 C   0  0  2  0  0  0  0  0  0  0  0  0
   -2.7988    1.2244   -1.3213 O   0  0  0  0  0  0  0  0  0  0  0  0
   -1.5148    1.7039   -0.7489 C   0  0  1  0  0  0  0  0  0  0  0  0
   -2.1960    1.6941    0.6711 C   0  0  0  0  0  0  0  0  0  0  0  0
   -1.3777    1.6076    1.9562 C   0  0  0  0  0  0  0  0  0  0  0  0
   -3.3226    2.7124    0.8468 C   0  0  0  0  0  0  0  0  0  0  0  0
   -0.0702   -1.2934    0.6269 H   0  0  0  0  0  0  0  0  0  0  0  0
   -1.1130   -0.2832   -1.5994 H   0  0  0  0  0  0  0  0  0  0  0  0
   -3.3223   -0.3689    0.1079 H   0  0  0  0  0  0  0  0  0  0  0  0
   -1.0028    2.5134   -1.2694 H   0  0  0  0  0  0  0  0  0  0  0  0
   -0.8657    2.5575    2.1436 H   0  0  0  0  0  0  0  0  0  0  0  0
   -2.0479    1.4273    2.8038 H   0  0  0  0  0  0  0  0  0  0  0  0
   -0.6187    0.8264    1.9707 H   0  0  0  0  0  0  0  0  0  0  0  0
   -3.9860    2.4097    1.6648 H   0  0  0  0  0  0  0  0  0  0  0  0
   -2.9083    3.6910    1.1139 H   0  0  0  0  0  0  0  0  0  0  0  0
   -3.9125    2.8154   -0.0628 H   0  0  0  0  0  0  0  0  0  0  0  0
  2  1  2  0  0  0  0
  2 10  1  0  0  0  0
  3 11  1  6  0  0  0
  3  4  1  0  0  0  0
  3  2  1  0  0  0  0
  4 12  1  1  0  0  0
  4  7  1  0  0  0  0
  5  6  1  0  0  0  0
  5  4  1  0  0  0  0
  6 13  1  6  0  0  0
  6  3  1  0  0  0  0
  6  7  1  0  0  0  0
  7  9  1  0  0  0  0
  7  8  1  0  0  0  0
  8 16  1  0  0  0  0
  8 14  1  0  0  0  0
  8 15  1  0  0  0  0
  9 18  1  0  0  0  0
  9 17  1  0  0  0  0
 19  9  1  0  0  0  0
M TOR 0 0 1 2 3
M TOR 1 0 1 2 5
M TOR 2 0 1 2 10
M TOR 3 1 2 3 4
M TOR 4 1 2 3 6
M TOR 5 1 2 3 11
M TOR 6 1 2 5 4
M TOR 7 1 2 5 6
M TOR 8 1 2 5 12
M TOR 9 2 3 4 5
M TOR 10 2 3 6 5
M TOR 11 2 3 6 7
M TOR 12 2 3 6 8
M TOR 13 2 5 6 7
M TOR 14 2 5 6 8
M TOR 15 3 2 1 9
M TOR 16 3 2 5 12
M TOR 17 3 4 5 6
M TOR 18 3 4 5 12
M TOR 19 3 6 5 12
M TOR 20 3 6 7 13
M TOR 21 3 6 7 14
M TOR 22 3 6 7 15
M TOR 23 3 6 8 16
M TOR 24 3 6 8 17
M TOR 25 3 6 8 18
M TOR 26 4 3 2 10
M TOR 27 4 3 6 7
M TOR 28 4 3 6 8
M TOR 29 4 5 2 10
M TOR 30 4 5 6 7
M TOR 31 4 5 6 8
M TOR 32 5 2 1 9
M TOR 33 5 2 3 11
M TOR 34 5 4 3 11
M TOR 35 5 6 3 11
M TOR 36 5 6 7 13
M TOR 37 5 6 7 14
M TOR 38 5 6 7 15
M TOR 39 5 6 8 16
M TOR 40 5 6 8 17
M TOR 41 5 6 8 18
M TOR 42 6 3 2 10
M TOR 43 6 5 2 10
M TOR 44 7 6 3 11
M TOR 45 7 6 5 12
M TOR 46 7 6 8 16
M TOR 47 7 6 8 17
M TOR 48 7 6 8 18
M TOR 49 8 6 3 11
M TOR 50 8 6 5 12
M TOR 51 8 6 7 13
M TOR 52 8 6 7 14
M TOR 53 8 6 7 15
M  END
$$$$
