gdb 3680	2.6405752	1.5396508	1.1659615	2.0774	77.79	-0.22428	0.02079	0.24507	1092.4669	0.157223	-422.553944	-422.545576	-422.544632	-422.586471	32.958
 OpenBabel02181911413D

 19 20  0  0  1  0  0  0  0  0999 V2000
    0.8220    1.5406    3.5482 O   0  0  0  0  0  0  0  0  0  0  0  0
   -0.3356    0.7633    3.7535 C   0  0  2  0  0  0  0  0  0  0  0  0
   -0.3692   -0.6383    3.2068 C   0  0  0  0  0  0  0  0  0  0  0  0
   -1.1270    0.4869    2.5146 C   0  0  1  0  0  0  0  0  0  0  0  0
   -2.6070    0.4867    2.3886 C   0  0  0  0  0  0  0  0  0  0  0  0
   -2.9740    0.6013    1.1095 C   0  0  0  0  0  0  0  0  0  0  0  0
   -1.7780    0.6973    0.1885 C   0  0  0  0  0  0  0  0  0  0  0  0
   -0.6352    1.0452    1.1616 C   0  0  2  0  0  0  0  0  0  0  0  0
    0.6099    0.5584    0.7131 O   0  0  0  0  0  0  0  0  0  0  0  0
    1.5022    1.2213    4.1510 H   0  0  0  0  0  0  0  0  0  0  0  0
   -0.8619    0.9765    4.6839 H   0  0  0  0  0  0  0  0  0  0  0  0
    0.5162   -0.9936    2.6899 H   0  0  0  0  0  0  0  0  0  0  0  0
   -0.9364   -1.3928    3.7415 H   0  0  0  0  0  0  0  0  0  0  0  0
   -3.2757    0.3677    3.2342 H   0  0  0  0  0  0  0  0  0  0  0  0
   -3.9964    0.5926    0.7497 H   0  0  0  0  0  0  0  0  0  0  0  0
   -1.5702   -0.2654   -0.2990 H   0  0  0  0  0  0  0  0  0  0  0  0
   -1.8903    1.4419   -0.6057 H   0  0  0  0  0  0  0  0  0  0  0  0
   -0.5948    2.1398    1.2674 H   0  0  0  0  0  0  0  0  0  0  0  0
    1.2634    0.9220    1.3231 H   0  0  0  0  0  0  0  0  0  0  0  0
  1  2  1  0  0  0  0
  1 10  1  0  0  0  0
  2 11  1  1  0  0  0
  3 13  1  0  0  0  0
  3  2  1  0  0  0  0
  4  5  1  1  0  0  0
  4  3  1  0  0  0  0
  4  2  1  0  0  0  0
  5 14  1  0  0  0  0
  6  5  2  0  0  0  0
  7  6  1  0  0  0  0
  7  8  1  0  0  0  0
  8 18  1  1  0  0  0
  8  4  1  0  0  0  0
  9  8  1  0  0  0  0
  9 19  1  0  0  0  0
 12  3  1  0  0  0  0
 15  6  1  0  0  0  0
 16  7  1  0  0  0  0
 17  7  1  0  0  0  0
M TOR 0 0 1 2 3
M TOR 1 0 1 2 11
M TOR 2 0 1 2 12
M TOR 3 0 1 3 4
M TOR 4 0 1 3 7
M TOR 5 1 2 3 4
M TOR 6 1 2 3 7
M TOR 7 1 3 2 11
M TOR 8 1 3 2 12
M TOR 9 1 3 4 5
M TOR 10 1 3 4 13
M TOR 11 1 3 7 6
M TOR 12 1 3 7 8
M TOR 13 1 3 7 17
M TOR 14 2 1 0 9
M TOR 15 2 3 1 10
M TOR 16 2 3 4 5
M TOR 17 2 3 4 13
M TOR 18 2 3 7 6
M TOR 19 2 3 7 8
M TOR 20 2 3 7 17
M TOR 21 3 1 0 9
M TOR 22 3 4 5 6
M TOR 23 3 4 5 14
M TOR 24 3 7 6 5
M TOR 25 3 7 6 15
M TOR 26 3 7 6 16
M TOR 27 3 7 8 18
M TOR 28 4 3 1 10
M TOR 29 4 3 2 11
M TOR 30 4 3 2 12
M TOR 31 4 3 7 6
M TOR 32 4 3 7 8
M TOR 33 4 3 7 17
M TOR 34 4 5 6 7
M TOR 35 4 5 6 15
M TOR 36 4 5 6 16
M TOR 37 5 4 3 7
M TOR 38 5 6 7 8
M TOR 39 5 6 7 17
M TOR 40 6 5 4 13
M TOR 41 6 7 8 18
M TOR 42 7 3 1 10
M TOR 43 7 3 2 11
M TOR 44 7 3 2 12
M TOR 45 7 3 4 13
M TOR 46 7 6 5 14
M TOR 47 8 7 6 15
M TOR 48 8 7 6 16
M  END
$$$$
