gdb 3472	2.8492038	1.3065521	1.1763227	2.6372	76.97	-0.22864	0.00484	0.23348000000000002	1128.1685	0.156186	-422.558873	-422.550173	-422.549229	-422.591485	34.075
 OpenBabel02181911413D

 19 20  0  0  1  0  0  0  0  0999 V2000
   -3.8392    1.0026    0.4595 C   0  0  0  0  0  0  0  0  0  0  0  0
   -2.7447    2.0243    0.2628 C   0  0  1  0  0  0  0  0  0  0  0  0
   -3.0444    2.9786   -0.7256 O   0  0  0  0  0  0  0  0  0  0  0  0
   -1.8669    2.5644    1.4032 C   0  0  1  0  0  0  0  0  0  0  0  0
   -1.7142    1.7304    2.6222 C   0  0  0  0  0  0  0  0  0  0  0  0
   -1.1533    0.5436    2.3586 C   0  0  0  0  0  0  0  0  0  0  0  0
   -0.7603    0.4140    0.9010 C   0  0  2  0  0  0  0  0  0  0  0  0
    0.6417    0.2368    0.7183 O   0  0  0  0  0  0  0  0  0  0  0  0
   -1.2800    1.7140    0.2737 C   0  0  1  0  0  0  0  0  0  0  0  0
   -3.6050    0.2937    1.2547 H   0  0  0  0  0  0  0  0  0  0  0  0
   -4.7800    1.5016    0.7251 H   0  0  0  0  0  0  0  0  0  0  0  0
   -4.0055    0.4485   -0.4698 H   0  0  0  0  0  0  0  0  0  0  0  0
   -3.8572    3.4261   -0.4639 H   0  0  0  0  0  0  0  0  0  0  0  0
   -1.7426    3.6411    1.4415 H   0  0  0  0  0  0  0  0  0  0  0  0
   -2.0618    2.0521    3.5982 H   0  0  0  0  0  0  0  0  0  0  0  0
   -0.9784   -0.2541    3.0711 H   0  0  0  0  0  0  0  0  0  0  0  0
   -1.2072   -0.4705    0.4315 H   0  0  0  0  0  0  0  0  0  0  0  0
    1.0790    0.9291    1.2268 H   0  0  0  0  0  0  0  0  0  0  0  0
   -0.6869    2.1577   -0.5172 H   0  0  0  0  0  0  0  0  0  0  0  0
  1 11  1  0  0  0  0
  1 10  1  0  0  0  0
  2  3  1  6  0  0  0
  2  9  1  0  0  0  0
  2  1  1  0  0  0  0
  2  4  1  0  0  0  0
  3 13  1  0  0  0  0
  4 14  1  1  0  0  0
  4  5  1  0  0  0  0
  5 15  1  0  0  0  0
  6  5  2  0  0  0  0
  6 16  1  0  0  0  0
  7 17  1  6  0  0  0
  7  6  1  0  0  0  0
  8  7  1  0  0  0  0
  8 18  1  0  0  0  0
  9 19  1  6  0  0  0
  9  7  1  0  0  0  0
  9  4  1  0  0  0  0
 12  1  1  0  0  0  0
M TOR 0 0 1 2 12
M TOR 1 0 1 3 4
M TOR 2 0 1 3 8
M TOR 3 0 1 3 13
M TOR 4 0 1 8 6
M TOR 5 0 1 8 18
M TOR 6 1 3 4 5
M TOR 7 1 3 4 14
M TOR 8 1 3 8 6
M TOR 9 1 3 8 18
M TOR 10 1 8 3 4
M TOR 11 1 8 3 13
M TOR 12 1 8 6 5
M TOR 13 1 8 6 7
M TOR 14 1 8 6 16
M TOR 15 2 1 0 9
M TOR 16 2 1 0 10
M TOR 17 2 1 0 11
M TOR 18 2 1 3 4
M TOR 19 2 1 3 8
M TOR 20 2 1 3 13
M TOR 21 2 1 8 6
M TOR 22 2 1 8 18
M TOR 23 3 1 0 9
M TOR 24 3 1 0 10
M TOR 25 3 1 0 11
M TOR 26 3 1 2 12
M TOR 27 3 4 5 6
M TOR 28 3 4 5 15
M TOR 29 3 8 6 5
M TOR 30 3 8 6 7
M TOR 31 3 8 6 16
M TOR 32 4 3 8 6
M TOR 33 4 3 8 18
M TOR 34 4 5 6 7
M TOR 35 4 5 6 8
M TOR 36 4 5 6 16
M TOR 37 5 4 3 8
M TOR 38 5 4 3 13
M TOR 39 5 6 7 17
M TOR 40 5 6 8 18
M TOR 41 6 5 4 14
M TOR 42 6 8 3 13
M TOR 43 7 6 5 15
M TOR 44 7 6 8 18
M TOR 45 8 1 0 9
M TOR 46 8 1 0 10
M TOR 47 8 1 0 11
M TOR 48 8 1 2 12
M TOR 49 8 3 4 14
M TOR 50 8 6 5 15
M TOR 51 8 6 7 17
M  END
$$$$
