gdb 815	2.5683555	1.6364016	1.5161154	3.4073	74.83	-0.24104	-0.01316	0.22788	979.8923	0.158405	-422.553465	-422.545769	-422.544824	-422.585658	29.472
 OpenBabel02181911403D

 19 20  0  0  1  0  0  0  0  0999 V2000
    1.3069   -0.4297    0.4450 O   0  0  0  0  0  0  0  0  0  0  0  0
    0.1395   -0.2906    0.1755 C   0  0  0  0  0  0  0  0  0  0  0  0
   -0.6613    0.9297    0.5547 C   0  0  2  0  0  0  0  0  0  0  0  0
   -1.8121    1.4743   -0.3515 C   0  0  1  0  0  0  0  0  0  0  0  0
   -1.4675    2.8792    0.2108 C   0  0  0  0  0  0  0  0  0  0  0  0
   -0.0228    2.3412    0.3837 C   0  0  2  0  0  0  0  0  0  0  0  0
    0.6888    2.3665   -0.9769 C   0  0  0  0  0  0  0  0  0  0  0  0
    0.0701    1.4696   -1.8983 O   0  0  0  0  0  0  0  0  0  0  0  0
   -1.3485    1.4126   -1.8146 C   0  0  0  0  0  0  0  0  0  0  0  0
   -0.4297   -1.0957   -0.3447 H   0  0  0  0  0  0  0  0  0  0  0  0
   -1.0259    0.7925    1.5797 H   0  0  0  0  0  0  0  0  0  0  0  0
   -2.8268    1.0892   -0.2295 H   0  0  0  0  0  0  0  0  0  0  0  0
   -1.6112    3.7345   -0.4577 H   0  0  0  0  0  0  0  0  0  0  0  0
   -1.9557    3.0780    1.1682 H   0  0  0  0  0  0  0  0  0  0  0  0
    0.6082    2.7486    1.1749 H   0  0  0  0  0  0  0  0  0  0  0  0
    0.6959    3.3922   -1.3787 H   0  0  0  0  0  0  0  0  0  0  0  0
    1.7211    2.0190   -0.8865 H   0  0  0  0  0  0  0  0  0  0  0  0
   -1.8128    2.2324   -2.3869 H   0  0  0  0  0  0  0  0  0  0  0  0
   -1.6325    0.4696   -2.2929 H   0  0  0  0  0  0  0  0  0  0  0  0
  2  1  2  0  0  0  0
  2  3  1  0  0  0  0
  3 11  1  1  0  0  0
  4 12  1  1  0  0  0
  4  5  1  0  0  0  0
  4  3  1  0  0  0  0
  5  6  1  0  0  0  0
  5 14  1  0  0  0  0
  6  3  1  0  0  0  0
  6 15  1  1  0  0  0
  7 17  1  0  0  0  0
  7  6  1  0  0  0  0
  8  9  1  0  0  0  0
  8  7  1  0  0  0  0
  9  4  1  0  0  0  0
 10  2  1  0  0  0  0
 13  5  1  0  0  0  0
 16  7  1  0  0  0  0
 18  9  1  0  0  0  0
 19  9  1  0  0  0  0
M TOR 0 0 1 2 3
M TOR 1 0 1 2 5
M TOR 2 0 1 2 10
M TOR 3 1 2 3 4
M TOR 4 1 2 3 8
M TOR 5 1 2 3 11
M TOR 6 1 2 5 4
M TOR 7 1 2 5 6
M TOR 8 1 2 5 14
M TOR 9 2 3 4 5
M TOR 10 2 3 4 12
M TOR 11 2 3 4 13
M TOR 12 2 3 8 7
M TOR 13 2 3 8 17
M TOR 14 2 3 8 18
M TOR 15 2 5 4 12
M TOR 16 2 5 4 13
M TOR 17 2 5 6 7
M TOR 18 2 5 6 15
M TOR 19 2 5 6 16
M TOR 20 3 2 1 9
M TOR 21 3 2 5 6
M TOR 22 3 2 5 14
M TOR 23 3 4 5 6
M TOR 24 3 4 5 14
M TOR 25 3 8 7 6
M TOR 26 4 3 2 10
M TOR 27 4 3 8 7
M TOR 28 4 3 8 17
M TOR 29 4 3 8 18
M TOR 30 4 5 2 10
M TOR 31 4 5 6 7
M TOR 32 4 5 6 15
M TOR 33 4 5 6 16
M TOR 34 5 2 1 9
M TOR 35 5 2 3 8
M TOR 36 5 2 3 11
M TOR 37 5 4 3 8
M TOR 38 5 4 3 11
M TOR 39 5 6 7 8
M TOR 40 6 5 2 10
M TOR 41 6 5 4 12
M TOR 42 6 5 4 13
M TOR 43 6 7 8 17
M TOR 44 6 7 8 18
M TOR 45 7 6 5 14
M TOR 46 7 8 3 11
M TOR 47 8 3 2 10
M TOR 48 8 3 4 12
M TOR 49 8 3 4 13
M TOR 50 8 7 6 15
M TOR 51 8 7 6 16
M  END
$$$$
