gdb 1766	2.9166011	1.5181838	1.1963814	2.7296	75.64	-0.24701	-0.01578	0.23123000000000002	1076.1875	0.156821	-422.585561	-422.577374	-422.576429	-422.617608	32.608
 OpenBabel02181911403D

 19 20  0  0  1  0  0  0  0  0999 V2000
   -3.6397   -1.3316   -0.0830 C   0  0  0  0  0  0  0  0  0  0  0  0
   -2.3669   -0.5223    0.0002 C   0  0  2  0  0  0  0  0  0  0  0  0
   -2.1668    0.5906    1.0778 C   0  0  0  0  0  0  0  0  0  0  0  0
   -1.0653    1.0881    0.0794 C   0  0  2  0  0  0  0  0  0  0  0  0
   -0.4959    2.3384    0.1100 O   0  0  0  0  0  0  0  0  0  0  0  0
   -2.0170    0.5744   -1.0555 C   0  0  0  0  0  0  0  0  0  0  0  0
   -0.0994   -0.0754    0.1561 C   0  0  0  0  0  0  0  0  0  0  0  0
    1.0993    0.0207    0.2396 O   0  0  0  0  0  0  0  0  0  0  0  0
   -1.0250   -1.2938    0.1004 C   0  0  0  0  0  0  0  0  0  0  0  0
   -3.7613   -1.9696    0.7996 H   0  0  0  0  0  0  0  0  0  0  0  0
   -4.5172   -0.6804   -0.1494 H   0  0  0  0  0  0  0  0  0  0  0  0
   -3.6376   -1.9827   -0.9645 H   0  0  0  0  0  0  0  0  0  0  0  0
   -3.0052    1.2899    1.1169 H   0  0  0  0  0  0  0  0  0  0  0  0
   -1.8638    0.2968    2.0873 H   0  0  0  0  0  0  0  0  0  0  0  0
    0.4615    2.1946    0.1783 H   0  0  0  0  0  0  0  0  0  0  0  0
   -2.8409    1.2722   -1.2219 H   0  0  0  0  0  0  0  0  0  0  0  0
   -1.5762    0.2657   -2.0081 H   0  0  0  0  0  0  0  0  0  0  0  0
   -0.8118   -1.9244   -0.7693 H   0  0  0  0  0  0  0  0  0  0  0  0
   -0.9361   -1.9109    1.0008 H   0  0  0  0  0  0  0  0  0  0  0  0
  1 10  1  0  0  0  0
  2  1  1  6  0  0  0
  2  9  1  0  0  0  0
  2  3  1  0  0  0  0
  3 13  1  0  0  0  0
  3 14  1  0  0  0  0
  4  5  1  1  0  0  0
  4  7  1  0  0  0  0
  4  3  1  0  0  0  0
  5 15  1  0  0  0  0
  6  2  1  0  0  0  0
  6  4  1  0  0  0  0
  7  8  2  0  0  0  0
  9  7  1  0  0  0  0
  9 19  1  0  0  0  0
 11  1  1  0  0  0  0
 12  1  1  0  0  0  0
 16  6  1  0  0  0  0
 17  6  1  0  0  0  0
 18  9  1  0  0  0  0
M TOR 0 0 1 2 3
M TOR 1 0 1 2 12
M TOR 2 0 1 2 13
M TOR 3 0 1 5 3
M TOR 4 0 1 5 15
M TOR 5 0 1 5 16
M TOR 6 0 1 8 6
M TOR 7 0 1 8 17
M TOR 8 0 1 8 18
M TOR 9 1 2 3 4
M TOR 10 1 2 3 5
M TOR 11 1 2 3 6
M TOR 12 1 5 3 4
M TOR 13 1 5 3 6
M TOR 14 1 8 6 3
M TOR 15 1 8 6 7
M TOR 16 2 1 0 9
M TOR 17 2 1 0 10
M TOR 18 2 1 0 11
M TOR 19 2 1 5 15
M TOR 20 2 1 5 16
M TOR 21 2 1 8 6
M TOR 22 2 1 8 17
M TOR 23 2 1 8 18
M TOR 24 2 3 4 14
M TOR 25 2 3 5 15
M TOR 26 2 3 5 16
M TOR 27 2 3 6 7
M TOR 28 2 3 6 8
M TOR 29 3 2 1 8
M TOR 30 3 5 1 8
M TOR 31 3 6 8 17
M TOR 32 3 6 8 18
M TOR 33 4 3 2 12
M TOR 34 4 3 2 13
M TOR 35 4 3 5 15
M TOR 36 4 3 5 16
M TOR 37 4 3 6 7
M TOR 38 4 3 6 8
M TOR 39 5 1 0 9
M TOR 40 5 1 0 10
M TOR 41 5 1 0 11
M TOR 42 5 1 2 12
M TOR 43 5 1 2 13
M TOR 44 5 1 8 6
M TOR 45 5 1 8 17
M TOR 46 5 1 8 18
M TOR 47 5 3 2 12
M TOR 48 5 3 2 13
M TOR 49 5 3 4 14
M TOR 50 5 3 6 7
M TOR 51 5 3 6 8
M TOR 52 6 3 2 12
M TOR 53 6 3 2 13
M TOR 54 6 3 4 14
M TOR 55 6 3 5 15
M TOR 56 6 3 5 16
M TOR 57 7 6 8 17
M TOR 58 7 6 8 18
M TOR 59 8 1 0 9
M TOR 60 8 1 0 10
M TOR 61 8 1 0 11
M TOR 62 8 1 2 12
M TOR 63 8 1 2 13
M TOR 64 8 1 5 15
M TOR 65 8 1 5 16
M  END
$$$$
