
     RDKit          3D

 19 19  0  0  0  0  0  0  0  0999 V2000
   -1.5696   -1.5672   -1.2277 C   0  0  0  0  0  0  0  0  0  0  0  0
   -1.0629   -1.0752    0.1425 C   0  0  0  0  0  0  0  0  0  0  0  0
   -2.1601   -0.3903    0.9555 C   0  0  0  0  0  0  0  0  0  0  0  0
   -2.5334    0.8821    0.4113 O   0  0  0  0  0  0  0  0  0  0  0  0
   -1.5340    1.7582    0.1047 C   0  0  0  0  0  0  0  0  0  0  0  0
   -1.8062    2.9086   -0.1246 O   0  0  0  0  0  0  0  0  0  0  0  0
   -0.1655    1.2082    0.0203 C   0  0  0  0  0  0  0  0  0  0  0  0
    0.0929   -0.1064   -0.0014 C   0  0  0  0  0  0  0  0  0  0  0  0
    1.4708   -0.6668   -0.1899 C   0  0  0  0  0  0  0  0  0  0  0  0
   -2.3403   -2.3334   -1.0971 H   0  0  0  0  0  0  0  0  0  0  0  0
   -2.0021   -0.7400   -1.7969 H   0  0  0  0  0  0  0  0  0  0  0  0
   -0.7614   -2.0034   -1.8215 H   0  0  0  0  0  0  0  0  0  0  0  0
   -0.7240   -1.9457    0.7196 H   0  0  0  0  0  0  0  0  0  0  0  0
   -3.0799   -0.9807    0.9663 H   0  0  0  0  0  0  0  0  0  0  0  0
   -1.8268   -0.2490    1.9920 H   0  0  0  0  0  0  0  0  0  0  0  0
    0.6116    1.9536   -0.1072 H   0  0  0  0  0  0  0  0  0  0  0  0
    1.7672   -1.2646    0.6812 H   0  0  0  0  0  0  0  0  0  0  0  0
    1.5061   -1.3409   -1.0545 H   0  0  0  0  0  0  0  0  0  0  0  0
    2.2128    0.1211   -0.3381 H   0  0  0  0  0  0  0  0  0  0  0  0
  1  2  1  0
  2  3  1  0
  3  4  1  0
  4  5  1  0
  5  6  2  0
  5  7  1  0
  7  8  2  0
  8  9  1  0
  8  2  1  0
  1 10  1  0
  1 11  1  0
  1 12  1  0
  2 13  1  0
  3 14  1  0
  3 15  1  0
  7 16  1  0
  9 17  1  0
  9 18  1  0
  9 19  1  0
M  END
$$$$
