
     RDKit          3D

 19 21  0  0  0  0  0  0  0  0999 V2000
    5.0268   -2.8168   -1.4792 C   0  0  0  0  0  0  0  0  0  0  0  0
    4.0284   -2.7965   -0.3684 C   0  0  0  0  0  0  0  0  0  0  0  0
    4.2376   -3.6608    0.7962 O   0  0  0  0  0  0  0  0  0  0  0  0
    2.9953   -2.9598    1.0828 C   0  0  0  0  0  0  0  0  0  0  0  0
    3.4637   -1.6009    0.4760 C   0  0  0  0  0  0  0  0  0  0  0  0
    2.2121   -1.4767   -0.4255 C   0  0  0  0  0  0  0  0  0  0  0  0
    0.9241   -0.9418    0.1787 C   0  0  0  0  0  0  0  0  0  0  0  0
   -0.1980   -1.1401   -0.6701 O   0  0  0  0  0  0  0  0  0  0  0  0
    2.4738   -3.0044   -0.3874 C   0  0  0  0  0  0  0  0  0  0  0  0
    5.1003   -3.8198   -1.9105 H   0  0  0  0  0  0  0  0  0  0  0  0
    4.7316   -2.1196   -2.2695 H   0  0  0  0  0  0  0  0  0  0  0  0
    6.0152   -2.5257   -1.1106 H   0  0  0  0  0  0  0  0  0  0  0  0
    2.4866   -3.1759    2.0205 H   0  0  0  0  0  0  0  0  0  0  0  0
    4.0466   -0.8277    0.9777 H   0  0  0  0  0  0  0  0  0  0  0  0
    2.3874   -1.0099   -1.4013 H   0  0  0  0  0  0  0  0  0  0  0  0
    0.7551   -1.3842    1.1743 H   0  0  0  0  0  0  0  0  0  0  0  0
    0.9970    0.1426    0.3182 H   0  0  0  0  0  0  0  0  0  0  0  0
   -0.2959   -2.0880   -0.8071 H   0  0  0  0  0  0  0  0  0  0  0  0
    1.9421   -3.8285   -0.8664 H   0  0  0  0  0  0  0  0  0  0  0  0
  1  2  1  0
  2  3  1  0
  3  4  1  0
  4  5  1  0
  5  6  1  0
  6  7  1  0
  7  8  1  0
  6  9  1  0
  5  2  1  0
  9  2  1  0
  9  4  1  0
  1 10  1  0
  1 11  1  0
  1 12  1  0
  4 13  1  0
  5 14  1  0
  6 15  1  0
  7 16  1  0
  7 17  1  0
  8 18  1  0
  9 19  1  0
M  END
$$$$
