
     RDKit          3D

 19 20  0  0  0  0  0  0  0  0999 V2000
   -3.1042   -0.7908   -2.1300 O   0  0  0  0  0  0  0  0  0  0  0  0
   -3.2201    0.0453   -1.0087 C   0  0  0  0  0  0  0  0  0  0  0  0
   -4.1967   -0.3074    0.1412 C   0  0  0  0  0  0  0  0  0  0  0  0
   -3.1482    0.2649    1.1345 C   0  0  0  0  0  0  0  0  0  0  0  0
   -2.0671    0.1132    0.0323 C   0  0  0  0  0  0  0  0  0  0  0  0
   -1.1034   -1.1103    0.1364 C   0  0  0  0  0  0  0  0  0  0  0  0
    0.0514   -0.1088    0.3022 C   0  0  0  0  0  0  0  0  0  0  0  0
    1.1843   -0.2079    0.6719 O   0  0  0  0  0  0  0  0  0  0  0  0
   -0.8515    1.0733   -0.0790 C   0  0  0  0  0  0  0  0  0  0  0  0
   -3.1019   -1.7042   -1.8244 H   0  0  0  0  0  0  0  0  0  0  0  0
   -3.4242    1.0455   -1.4061 H   0  0  0  0  0  0  0  0  0  0  0  0
   -5.1960    0.1321    0.1222 H   0  0  0  0  0  0  0  0  0  0  0  0
   -4.2938   -1.3938    0.2484 H   0  0  0  0  0  0  0  0  0  0  0  0
   -3.3394    1.3155    1.3714 H   0  0  0  0  0  0  0  0  0  0  0  0
   -2.9887   -0.2793    2.0682 H   0  0  0  0  0  0  0  0  0  0  0  0
   -1.2471   -1.8298    0.9473 H   0  0  0  0  0  0  0  0  0  0  0  0
   -1.0128   -1.6518   -0.8135 H   0  0  0  0  0  0  0  0  0  0  0  0
   -0.8180    1.9398    0.5878 H   0  0  0  0  0  0  0  0  0  0  0  0
   -0.6659    1.4127   -1.1052 H   0  0  0  0  0  0  0  0  0  0  0  0
  1  2  1  0
  2  3  1  0
  3  4  1  0
  4  5  1  0
  5  6  1  0
  6  7  1  0
  7  8  2  0
  7  9  1  0
  5  2  1  0
  9  5  1  0
  1 10  1  0
  2 11  1  0
  3 12  1  0
  3 13  1  0
  4 14  1  0
  4 15  1  0
  6 16  1  0
  6 17  1  0
  9 18  1  0
  9 19  1  0
M  END
$$$$
