
     RDKit          3D

 19 21  0  0  0  0  0  0  0  0999 V2000
    0.7990   -2.4100   -1.1953 C   0  0  0  0  0  0  0  0  0  0  0  0
   -0.5150   -1.7054   -1.6102 C   0  0  0  0  0  0  0  0  0  0  0  0
   -0.3816   -0.1799   -1.4633 C   0  0  0  0  0  0  0  0  0  0  0  0
    0.7209    0.2508   -2.2680 O   0  0  0  0  0  0  0  0  0  0  0  0
    1.8847   -0.1415   -1.5332 C   0  0  0  0  0  0  0  0  0  0  0  0
    2.0604   -1.6618   -1.6895 C   0  0  0  0  0  0  0  0  0  0  0  0
    1.5209    0.2158   -0.0938 C   0  0  0  0  0  0  0  0  0  0  0  0
    0.7715    1.4270    0.0217 O   0  0  0  0  0  0  0  0  0  0  0  0
    0.0578    0.1911   -0.0488 C   0  0  0  0  0  0  0  0  0  0  0  0
    0.8340   -2.4893   -0.1032 H   0  0  0  0  0  0  0  0  0  0  0  0
    0.8048   -3.4375   -1.5726 H   0  0  0  0  0  0  0  0  0  0  0  0
   -0.7416   -1.9110   -2.6618 H   0  0  0  0  0  0  0  0  0  0  0  0
   -1.3552   -2.0877   -1.0182 H   0  0  0  0  0  0  0  0  0  0  0  0
   -1.2701    0.3533   -1.8122 H   0  0  0  0  0  0  0  0  0  0  0  0
    2.7315    0.4211   -1.9354 H   0  0  0  0  0  0  0  0  0  0  0  0
    2.2286   -1.8607   -2.7534 H   0  0  0  0  0  0  0  0  0  0  0  0
    2.9478   -2.0148   -1.1507 H   0  0  0  0  0  0  0  0  0  0  0  0
    2.1622   -0.0482    0.7422 H   0  0  0  0  0  0  0  0  0  0  0  0
   -0.5215   -0.0936    0.8249 H   0  0  0  0  0  0  0  0  0  0  0  0
  1  2  1  0
  2  3  1  0
  3  4  1  0
  4  5  1  0
  5  6  1  0
  5  7  1  0
  7  8  1  0
  8  9  1  0
  6  1  1  0
  9  7  1  0
  9  3  1  0
  1 10  1  0
  1 11  1  0
  2 12  1  0
  2 13  1  0
  3 14  1  0
  5 15  1  0
  6 16  1  0
  6 17  1  0
  7 18  1  0
  9 19  1  0
M  END
$$$$
