gdb 2309	2.0819849	1.9059713	1.6340064	2.7303	75.1	-0.2424	0.01867	0.26107	966.0772	0.15653	-422.569415	-422.560978	-422.560034	-422.601776	33.226
 OpenBabel02181911413D

 19 20  0  0  1  0  0  0  0  0999 V2000
   -1.5121   -0.4387    1.8315 O   0  0  0  0  0  0  0  0  0  0  0  0
   -1.9672    0.5563    0.9348 C   0  0  1  0  0  0  0  0  0  0  0  0
   -2.3450    1.9079    1.6121 C   0  0  0  0  0  0  0  0  0  0  0  0
   -0.9699    2.5073    1.2017 C   0  0  0  0  0  0  0  0  0  0  0  0
   -0.7349    1.2743    0.2769 C   0  0  1  0  0  0  0  0  0  0  0  0
    0.5131    0.6365    0.3581 O   0  0  0  0  0  0  0  0  0  0  0  0
   -1.1820    1.4361   -1.1505 C   0  0  0  0  0  0  0  0  0  0  0  0
   -2.3249    0.7966   -1.4026 C   0  0  0  0  0  0  0  0  0  0  0  0
   -2.8791    0.0608   -0.2014 C   0  0  0  0  0  0  0  0  0  0  0  0
   -2.1902   -0.5976    2.4954 H   0  0  0  0  0  0  0  0  0  0  0  0
   -3.1977    2.3955    1.1339 H   0  0  0  0  0  0  0  0  0  0  0  0
   -2.5358    1.8425    2.6869 H   0  0  0  0  0  0  0  0  0  0  0  0
   -0.9776    3.4912    0.7269 H   0  0  0  0  0  0  0  0  0  0  0  0
   -0.2492    2.5149    2.0236 H   0  0  0  0  0  0  0  0  0  0  0  0
    0.4742    0.0785    1.1466 H   0  0  0  0  0  0  0  0  0  0  0  0
   -0.6039    2.0050   -1.8703 H   0  0  0  0  0  0  0  0  0  0  0  0
   -2.8222    0.7786   -2.3670 H   0  0  0  0  0  0  0  0  0  0  0  0
   -3.9382    0.2853   -0.0201 H   0  0  0  0  0  0  0  0  0  0  0  0
   -2.7965   -1.0272   -0.3225 H   0  0  0  0  0  0  0  0  0  0  0  0
  1 10  1  0  0  0  0
  2  3  1  0  0  0  0
  2  1  1  1  0  0  0
  3 12  1  0  0  0  0
  4  3  1  0  0  0  0
  4 14  1  0  0  0  0
  5  6  1  1  0  0  0
  5  2  1  0  0  0  0
  5  4  1  0  0  0  0
  6 15  1  0  0  0  0
  7  5  1  0  0  0  0
  8  7  2  0  0  0  0
  8  9  1  0  0  0  0
  9 18  1  0  0  0  0
  9  2  1  0  0  0  0
 11  3  1  0  0  0  0
 13  4  1  0  0  0  0
 16  7  1  0  0  0  0
 17  8  1  0  0  0  0
 19  9  1  0  0  0  0
M TOR 0 0 1 2 3
M TOR 1 0 1 2 10
M TOR 2 0 1 2 11
M TOR 3 0 1 4 3
M TOR 4 0 1 4 5
M TOR 5 0 1 4 6
M TOR 6 0 1 8 7
M TOR 7 0 1 8 17
M TOR 8 0 1 8 18
M TOR 9 1 2 3 4
M TOR 10 1 2 3 12
M TOR 11 1 2 3 13
M TOR 12 1 4 3 12
M TOR 13 1 4 3 13
M TOR 14 1 4 5 14
M TOR 15 1 4 6 7
M TOR 16 1 4 6 15
M TOR 17 1 8 7 6
M TOR 18 1 8 7 16
M TOR 19 2 1 0 9
M TOR 20 2 1 4 5
M TOR 21 2 1 4 6
M TOR 22 2 1 8 7
M TOR 23 2 1 8 17
M TOR 24 2 1 8 18
M TOR 25 2 3 4 5
M TOR 26 2 3 4 6
M TOR 27 3 2 1 8
M TOR 28 3 4 1 8
M TOR 29 3 4 5 14
M TOR 30 3 4 6 7
M TOR 31 3 4 6 15
M TOR 32 4 1 0 9
M TOR 33 4 1 2 10
M TOR 34 4 1 2 11
M TOR 35 4 1 8 7
M TOR 36 4 1 8 17
M TOR 37 4 1 8 18
M TOR 38 4 3 2 10
M TOR 39 4 3 2 11
M TOR 40 4 6 7 8
M TOR 41 4 6 7 16
M TOR 42 5 4 1 8
M TOR 43 5 4 3 12
M TOR 44 5 4 3 13
M TOR 45 5 4 6 7
M TOR 46 5 4 6 15
M TOR 47 6 4 1 8
M TOR 48 6 4 3 12
M TOR 49 6 4 3 13
M TOR 50 6 4 5 14
M TOR 51 6 7 8 17
M TOR 52 6 7 8 18
M TOR 53 8 1 0 9
M TOR 54 8 1 2 10
M TOR 55 8 1 2 11
M TOR 56 8 7 6 15
M  END
$$$$
