gdb 906	3.3391197	1.1071474	0.963653	1.0189	75.51	-0.24791	-0.02939	0.21852	1246.555	0.155906	-422.528565	-422.51987	-422.518926	-422.56323	31.285
 OpenBabel02181911403D

 19 20  0  0  1  0  0  0  0  0999 V2000
    0.0177   -0.9815    0.3473 O   0  0  0  0  0  0  0  0  0  0  0  0
    0.3221    0.1358    0.0181 C   0  0  0  0  0  0  0  0  0  0  0  0
   -0.2421    0.8658   -1.1828 C   0  0  0  0  0  0  0  0  0  0  0  0
   -1.0666    2.0706   -0.7491 C   0  0  2  0  0  0  0  0  0  0  0  0
   -2.4335    1.8124   -0.0411 C   0  0  0  0  0  0  0  0  0  0  0  0
   -3.1475    2.7473   -1.0671 C   0  0  0  0  0  0  0  0  0  0  0  0
   -1.7847    3.0607   -1.7193 C   0  0  1  0  0  0  0  0  0  0  0  0
   -1.1201    4.1897   -1.1165 O   0  0  0  0  0  0  0  0  0  0  0  0
   -0.3478    3.3389   -0.2421 C   0  0  0  0  0  0  0  0  0  0  0  0
    1.0510    0.7284    0.6195 H   0  0  0  0  0  0  0  0  0  0  0  0
    0.5950    1.2023   -1.8102 H   0  0  0  0  0  0  0  0  0  0  0  0
   -0.8502    0.1609   -1.7580 H   0  0  0  0  0  0  0  0  0  0  0  0
   -2.7551    0.7699   -0.0957 H   0  0  0  0  0  0  0  0  0  0  0  0
   -2.4762    2.1268    1.0049 H   0  0  0  0  0  0  0  0  0  0  0  0
   -3.8343    2.2149   -1.7305 H   0  0  0  0  0  0  0  0  0  0  0  0
   -3.6529    3.6263   -0.6625 H   0  0  0  0  0  0  0  0  0  0  0  0
   -1.6964    3.0594   -2.8098 H   0  0  0  0  0  0  0  0  0  0  0  0
    0.7228    3.3862   -0.4867 H   0  0  0  0  0  0  0  0  0  0  0  0
   -0.4814    3.5932    0.8169 H   0  0  0  0  0  0  0  0  0  0  0  0
  2  1  2  0  0  0  0
  2 10  1  0  0  0  0
  3  2  1  0  0  0  0
  4  3  1  6  0  0  0
  4  9  1  0  0  0  0
  4  5  1  0  0  0  0
  5 14  1  0  0  0  0
  6 16  1  0  0  0  0
  6  5  1  0  0  0  0
  7 17  1  6  0  0  0
  7  8  1  0  0  0  0
  7  6  1  0  0  0  0
  7  4  1  0  0  0  0
  8  9  1  0  0  0  0
  9 19  1  0  0  0  0
 11  3  1  0  0  0  0
 12  3  1  0  0  0  0
 13  5  1  0  0  0  0
 15  6  1  0  0  0  0
 18  9  1  0  0  0  0
M TOR 0 0 1 2 3
M TOR 1 0 1 2 10
M TOR 2 0 1 2 11
M TOR 3 1 2 3 4
M TOR 4 1 2 3 6
M TOR 5 1 2 3 8
M TOR 6 2 3 4 5
M TOR 7 2 3 4 12
M TOR 8 2 3 4 13
M TOR 9 2 3 6 5
M TOR 10 2 3 6 7
M TOR 11 2 3 6 16
M TOR 12 2 3 8 7
M TOR 13 2 3 8 17
M TOR 14 2 3 8 18
M TOR 15 3 2 1 9
M TOR 16 3 4 5 6
M TOR 17 3 4 5 14
M TOR 18 3 4 5 15
M TOR 19 3 6 5 14
M TOR 20 3 6 5 15
M TOR 21 3 6 7 8
M TOR 22 4 3 2 10
M TOR 23 4 3 2 11
M TOR 24 4 3 6 7
M TOR 25 4 3 6 16
M TOR 26 4 3 8 7
M TOR 27 4 3 8 17
M TOR 28 4 3 8 18
M TOR 29 4 5 6 7
M TOR 30 4 5 6 16
M TOR 31 5 4 3 8
M TOR 32 5 6 3 8
M TOR 33 5 6 7 8
M TOR 34 6 3 2 10
M TOR 35 6 3 2 11
M TOR 36 6 3 4 12
M TOR 37 6 3 4 13
M TOR 38 6 3 8 17
M TOR 39 6 3 8 18
M TOR 40 6 5 4 12
M TOR 41 6 5 4 13
M TOR 42 6 7 8 17
M TOR 43 6 7 8 18
M TOR 44 7 6 5 14
M TOR 45 7 6 5 15
M TOR 46 8 3 2 10
M TOR 47 8 3 2 11
M TOR 48 8 3 4 12
M TOR 49 8 3 4 13
M TOR 50 8 3 6 16
M TOR 51 8 7 6 16
M  END
$$$$
