gdb 5847	2.4878889	1.4466989	0.9527016	3.1132	78.96	-0.23335	-0.05586	0.17749	1240.5371	0.156628	-422.58144	-422.572626	-422.571682	-422.615246	32.389
 OpenBabel02181911423D

 19 19  0  0  1  0  0  0  0  0999 V2000
    1.3125    1.1315    0.2772 C   0  0  0  0  0  0  0  0  0  0  0  0
    1.0095   -0.3491    0.0417 C   0  0  0  0  0  0  0  0  0  0  0  0
    1.8319   -0.9529   -1.0900 C   0  0  1  0  0  0  0  0  0  0  0  0
    3.2033   -0.9330   -0.7054 O   0  0  0  0  0  0  0  0  0  0  0  0
    4.0835   -1.4323   -1.6832 C   0  0  0  0  0  0  0  0  0  0  0  0
    3.6764   -2.7813   -2.1978 C   0  0  0  0  0  0  0  0  0  0  0  0
    2.4310   -3.2402   -2.0347 C   0  0  0  0  0  0  0  0  0  0  0  0
    1.3839   -2.3784   -1.4517 C   0  0  0  0  0  0  0  0  0  0  0  0
    0.2304   -2.7400   -1.3359 O   0  0  0  0  0  0  0  0  0  0  0  0
    0.7254    1.5210    1.1141 H   0  0  0  0  0  0  0  0  0  0  0  0
    2.3713    1.2815    0.5042 H   0  0  0  0  0  0  0  0  0  0  0  0
    1.0695    1.7313   -0.6073 H   0  0  0  0  0  0  0  0  0  0  0  0
    1.2114   -0.9274    0.9509 H   0  0  0  0  0  0  0  0  0  0  0  0
   -0.0448   -0.5051   -0.2018 H   0  0  0  0  0  0  0  0  0  0  0  0
    1.6982   -0.3438   -2.0065 H   0  0  0  0  0  0  0  0  0  0  0  0
    4.1773   -0.7292   -2.5344 H   0  0  0  0  0  0  0  0  0  0  0  0
    5.0716   -1.4876   -1.2124 H   0  0  0  0  0  0  0  0  0  0  0  0
    4.4341   -3.3675   -2.7128 H   0  0  0  0  0  0  0  0  0  0  0  0
    2.1159   -4.2225   -2.3719 H   0  0  0  0  0  0  0  0  0  0  0  0
  1 11  1  0  0  0  0
  1 10  1  0  0  0  0
  2  1  1  0  0  0  0
  2 13  1  0  0  0  0
  3 15  1  6  0  0  0
  3  4  1  0  0  0  0
  3  2  1  0  0  0  0
  5 17  1  0  0  0  0
  5  4  1  0  0  0  0
  6  7  2  0  0  0  0
  6  5  1  0  0  0  0
  7  8  1  0  0  0  0
  8  9  2  0  0  0  0
  8  3  1  0  0  0  0
 12  1  1  0  0  0  0
 14  2  1  0  0  0  0
 16  5  1  0  0  0  0
 18  6  1  0  0  0  0
 19  7  1  0  0  0  0
M TOR 0 0 1 2 3
M TOR 1 0 1 2 7
M TOR 2 0 1 2 14
M TOR 3 1 2 3 4
M TOR 4 1 2 7 6
M TOR 5 1 2 7 8
M TOR 6 2 1 0 9
M TOR 7 2 1 0 10
M TOR 8 2 1 0 11
M TOR 9 2 3 4 5
M TOR 10 2 3 4 15
M TOR 11 2 3 4 16
M TOR 12 2 7 6 5
M TOR 13 2 7 6 18
M TOR 14 3 2 1 12
M TOR 15 3 2 1 13
M TOR 16 3 2 7 6
M TOR 17 3 2 7 8
M TOR 18 3 4 5 6
M TOR 19 3 4 5 17
M TOR 20 4 3 2 7
M TOR 21 4 3 2 14
M TOR 22 4 5 6 7
M TOR 23 4 5 6 18
M TOR 24 5 6 7 8
M TOR 25 6 5 4 15
M TOR 26 6 5 4 16
M TOR 27 6 7 2 14
M TOR 28 7 2 1 12
M TOR 29 7 2 1 13
M TOR 30 7 6 5 17
M TOR 31 8 7 2 14
M TOR 32 8 7 6 18
M  END
$$$$
