gdb 2030	2.177892	2.0523621	1.3715171	1.0098	73.84	-0.22597	0.06781	0.29378	994.1708	0.157158	-422.536454	-422.528431	-422.527487	-422.568194	32.718
 OpenBabel02181911403D

 19 21  0  0  1  0  0  0  0  0999 V2000
    1.9885    0.5140    0.6350 O   0  0  0  0  0  0  0  0  0  0  0  0
    0.9591    0.5547    1.5824 C   0  0  1  0  0  0  0  0  0  0  0  0
    0.8204   -0.5267    2.6177 C   0  0  0  0  0  0  0  0  0  0  0  0
    1.2627    0.8758    3.0144 C   0  0  2  0  0  0  0  0  0  0  0  0
    0.2429    1.9068    3.5187 C   0  0  0  0  0  0  0  0  0  0  0  0
   -0.6799    2.2303    2.3402 C   0  0  2  0  0  0  0  0  0  0  0  0
   -1.5937    1.1443    1.7878 C   0  0  0  0  0  0  0  0  0  0  0  0
   -0.2644    1.3784    1.1534 C   0  0  2  0  0  0  0  0  0  0  0  0
   -0.2512    1.8110   -0.1679 O   0  0  0  0  0  0  0  0  0  0  0  0
    1.7536   -0.1508   -0.0232 H   0  0  0  0  0  0  0  0  0  0  0  0
   -0.1587   -0.8988    2.8985 H   0  0  0  0  0  0  0  0  0  0  0  0
    1.6034   -1.2784    2.6291 H   0  0  0  0  0  0  0  0  0  0  0  0
    2.2933    0.9745    3.3363 H   0  0  0  0  0  0  0  0  0  0  0  0
   -0.3065    1.5494    4.3979 H   0  0  0  0  0  0  0  0  0  0  0  0
    0.7732    2.8142    3.8264 H   0  0  0  0  0  0  0  0  0  0  0  0
   -1.0047    3.2555    2.2013 H   0  0  0  0  0  0  0  0  0  0  0  0
   -1.7917    0.2443    2.3603 H   0  0  0  0  0  0  0  0  0  0  0  0
   -2.4447    1.4995    1.2154 H   0  0  0  0  0  0  0  0  0  0  0  0
    0.6658    2.0432   -0.3635 H   0  0  0  0  0  0  0  0  0  0  0  0
  2  1  1  6  0  0  0
  2  3  1  0  0  0  0
  2  4  1  0  0  0  0
  3 12  1  0  0  0  0
  3 11  1  0  0  0  0
  3  4  1  0  0  0  0
  4 13  1  1  0  0  0
  4  5  1  0  0  0  0
  5 15  1  0  0  0  0
  5 14  1  0  0  0  0
  6 16  1  6  0  0  0
  6  5  1  0  0  0  0
  7  6  1  0  0  0  0
  7 17  1  0  0  0  0
  8  9  1  6  0  0  0
  8  2  1  0  0  0  0
  8  7  1  0  0  0  0
  8  6  1  0  0  0  0
 10  1  1  0  0  0  0
 18  7  1  0  0  0  0
 19  9  1  0  0  0  0
M TOR 0 0 1 2 3
M TOR 1 0 1 2 10
M TOR 2 0 1 2 11
M TOR 3 0 1 3 4
M TOR 4 0 1 3 12
M TOR 5 0 1 7 5
M TOR 6 0 1 7 6
M TOR 7 0 1 7 8
M TOR 8 1 2 3 4
M TOR 9 1 2 3 12
M TOR 10 1 3 2 10
M TOR 11 1 3 2 11
M TOR 12 1 3 4 5
M TOR 13 1 3 4 13
M TOR 14 1 3 4 14
M TOR 15 1 7 5 4
M TOR 16 1 7 5 6
M TOR 17 1 7 5 15
M TOR 18 1 7 6 16
M TOR 19 1 7 6 17
M TOR 20 1 7 8 18
M TOR 21 2 1 0 9
M TOR 22 2 1 7 5
M TOR 23 2 1 7 6
M TOR 24 2 1 7 8
M TOR 25 2 3 1 7
M TOR 26 2 3 4 5
M TOR 27 2 3 4 13
M TOR 28 2 3 4 14
M TOR 29 3 1 0 9
M TOR 30 3 1 7 5
M TOR 31 3 1 7 6
M TOR 32 3 1 7 8
M TOR 33 3 4 5 6
M TOR 34 3 4 5 7
M TOR 35 3 4 5 15
M TOR 36 4 3 1 7
M TOR 37 4 3 2 10
M TOR 38 4 3 2 11
M TOR 39 4 5 6 7
M TOR 40 4 5 6 16
M TOR 41 4 5 6 17
M TOR 42 4 5 7 8
M TOR 43 5 4 3 12
M TOR 44 5 6 7 8
M TOR 45 5 7 6 16
M TOR 46 5 7 6 17
M TOR 47 5 7 8 18
M TOR 48 6 5 4 13
M TOR 49 6 5 4 14
M TOR 50 6 7 5 15
M TOR 51 6 7 8 18
M TOR 52 7 1 0 9
M TOR 53 7 1 2 10
M TOR 54 7 1 2 11
M TOR 55 7 1 3 12
M TOR 56 7 5 4 13
M TOR 57 7 5 4 14
M TOR 58 8 7 5 15
M TOR 59 8 7 6 16
M TOR 60 8 7 6 17
M  END
$$$$
