
     RDKit          3D

 19 20  0  0  0  0  0  0  0  0999 V2000
    1.4652   -0.0015    0.0006 C   0  0  0  0  0  0  0  0  0  0  0  0
    0.0520   -0.0114    0.0631 O   0  0  0  0  0  0  0  0  0  0  0  0
   -0.4460    0.6104    1.1969 C   0  0  0  0  0  0  0  0  0  0  0  0
   -1.8162    1.2003    1.1016 C   0  0  0  0  0  0  0  0  0  0  0  0
   -2.6331    1.0679    2.2281 O   0  0  0  0  0  0  0  0  0  0  0  0
   -2.8342    2.2604    2.9791 C   0  0  0  0  0  0  0  0  0  0  0  0
   -1.5585    3.0143    3.2606 C   0  0  0  0  0  0  0  0  0  0  0  0
   -0.5234    2.9386    2.4249 C   0  0  0  0  0  0  0  0  0  0  0  0
   -0.6289    2.1320    1.1880 C   0  0  0  0  0  0  0  0  0  0  0  0
    1.9106   -0.5365    0.8524 H   0  0  0  0  0  0  0  0  0  0  0  0
    1.7498   -0.5076   -0.9246 H   0  0  0  0  0  0  0  0  0  0  0  0
    1.8628    1.0237   -0.0106 H   0  0  0  0  0  0  0  0  0  0  0  0
   -0.1812    0.1543    2.1519 H   0  0  0  0  0  0  0  0  0  0  0  0
   -2.3346    1.1054    0.1492 H   0  0  0  0  0  0  0  0  0  0  0  0
   -3.5564    2.9207    2.4685 H   0  0  0  0  0  0  0  0  0  0  0  0
   -3.3049    1.9372    3.9131 H   0  0  0  0  0  0  0  0  0  0  0  0
   -1.5237    3.6204    4.1608 H   0  0  0  0  0  0  0  0  0  0  0  0
    0.4045    3.4679    2.6239 H   0  0  0  0  0  0  0  0  0  0  0  0
   -0.3312    2.6103    0.2587 H   0  0  0  0  0  0  0  0  0  0  0  0
  1  2  1  0
  2  3  1  0
  3  4  1  0
  4  5  1  0
  5  6  1  0
  6  7  1  0
  7  8  2  0
  8  9  1  0
  9  3  1  0
  9  4  1  0
  1 10  1  0
  1 11  1  0
  1 12  1  0
  3 13  1  0
  4 14  1  0
  6 15  1  0
  6 16  1  0
  7 17  1  0
  8 18  1  0
  9 19  1  0
M  END
$$$$
