
     RDKit          3D

 19 20  0  0  0  0  0  0  0  0999 V2000
    1.2976    0.6370   -0.0863 O   0  0  0  0  0  0  0  0  0  0  0  0
    0.3217   -0.1314    0.5966 C   0  0  0  0  0  0  0  0  0  0  0  0
   -0.9370    0.6773    0.9574 C   0  0  0  0  0  0  0  0  0  0  0  0
   -2.0322   -0.1977    1.5327 C   0  0  0  0  0  0  0  0  0  0  0  0
   -2.3246    0.0785    2.8043 C   0  0  0  0  0  0  0  0  0  0  0  0
   -1.5211    1.2407    3.3187 C   0  0  0  0  0  0  0  0  0  0  0  0
   -2.2593    2.4924    3.3600 O   0  0  0  0  0  0  0  0  0  0  0  0
   -1.6299    2.9428    2.1411 C   0  0  0  0  0  0  0  0  0  0  0  0
   -0.7053    1.7068    2.0834 C   0  0  0  0  0  0  0  0  0  0  0  0
    1.6447    1.2931    0.5259 H   0  0  0  0  0  0  0  0  0  0  0  0
    0.0525   -0.9427   -0.0880 H   0  0  0  0  0  0  0  0  0  0  0  0
    0.7339   -0.5966    1.5064 H   0  0  0  0  0  0  0  0  0  0  0  0
   -1.2657    1.1709    0.0323 H   0  0  0  0  0  0  0  0  0  0  0  0
   -2.5002   -0.9808    0.9438 H   0  0  0  0  0  0  0  0  0  0  0  0
   -3.0681   -0.4319    3.4060 H   0  0  0  0  0  0  0  0  0  0  0  0
   -1.0200    1.0587    4.2758 H   0  0  0  0  0  0  0  0  0  0  0  0
   -2.3432    3.0203    1.3099 H   0  0  0  0  0  0  0  0  0  0  0  0
   -1.1352    3.9114    2.2783 H   0  0  0  0  0  0  0  0  0  0  0  0
    0.3476    1.9369    2.2612 H   0  0  0  0  0  0  0  0  0  0  0  0
  1  2  1  0
  2  3  1  0
  3  4  1  0
  4  5  2  0
  5  6  1  0
  6  7  1  0
  7  8  1  0
  8  9  1  0
  9  3  1  0
  9  6  1  0
  1 10  1  0
  2 11  1  0
  2 12  1  0
  3 13  1  0
  4 14  1  0
  5 15  1  0
  6 16  1  0
  8 17  1  0
  8 18  1  0
  9 19  1  0
M  END
$$$$
