
     RDKit          3D

 19 21  0  0  0  0  0  0  0  0999 V2000
    0.2259    0.6143    0.0678 O   0  0  0  0  0  0  0  0  0  0  0  0
   -0.2995    1.2761    1.1866 C   0  0  0  0  0  0  0  0  0  0  0  0
   -1.8440    1.1988    1.1925 C   0  0  0  0  0  0  0  0  0  0  0  0
   -2.2470    2.2477    2.0894 O   0  0  0  0  0  0  0  0  0  0  0  0
   -1.0230    2.8640    2.5557 C   0  0  0  0  0  0  0  0  0  0  0  0
   -0.1483    2.8144    1.2988 C   0  0  0  0  0  0  0  0  0  0  0  0
   -0.3748    1.8612    3.5127 C   0  0  0  0  0  0  0  0  0  0  0  0
    1.0996    1.5629    3.4131 C   0  0  0  0  0  0  0  0  0  0  0  0
    0.1268    0.7733    2.5725 C   0  0  0  0  0  0  0  0  0  0  0  0
    1.1834    0.5831    0.1637 H   0  0  0  0  0  0  0  0  0  0  0  0
   -2.2470    1.3832    0.1888 H   0  0  0  0  0  0  0  0  0  0  0  0
   -2.2116    0.2300    1.5502 H   0  0  0  0  0  0  0  0  0  0  0  0
   -1.2802    3.8394    2.9686 H   0  0  0  0  0  0  0  0  0  0  0  0
   -0.6128    3.3344    0.4592 H   0  0  0  0  0  0  0  0  0  0  0  0
    0.8760    3.1675    1.4194 H   0  0  0  0  0  0  0  0  0  0  0  0
   -0.9091    1.6214    4.4243 H   0  0  0  0  0  0  0  0  0  0  0  0
    1.7892    2.2743    2.9732 H   0  0  0  0  0  0  0  0  0  0  0  0
    1.5205    1.0248    4.2560 H   0  0  0  0  0  0  0  0  0  0  0  0
   -0.0290   -0.2791    2.7847 H   0  0  0  0  0  0  0  0  0  0  0  0
  1  2  1  0
  2  3  1  0
  3  4  1  0
  4  5  1  0
  5  6  1  0
  5  7  1  0
  7  8  1  0
  8  9  1  0
  6  2  1  0
  9  7  1  0
  9  2  1  0
  1 10  1  0
  3 11  1  0
  3 12  1  0
  5 13  1  0
  6 14  1  0
  6 15  1  0
  7 16  1  0
  8 17  1  0
  8 18  1  0
  9 19  1  0
M  END
$$$$
