
     RDKit          3D

 19 21  0  0  0  0  0  0  0  0999 V2000
   -0.8495   -0.3945   -0.9616 C   0  0  0  0  0  0  0  0  0  0  0  0
   -1.6124    0.3893   -0.0427 O   0  0  0  0  0  0  0  0  0  0  0  0
   -0.7509    0.9189    0.9653 C   0  0  0  0  0  0  0  0  0  0  0  0
   -0.7647   -0.0111    2.1813 C   0  0  0  0  0  0  0  0  0  0  0  0
   -0.3018   -1.3028    1.8283 O   0  0  0  0  0  0  0  0  0  0  0  0
    1.0602   -1.3219    1.4421 C   0  0  0  0  0  0  0  0  0  0  0  0
    1.4226   -0.2818    0.3996 C   0  0  0  0  0  0  0  0  0  0  0  0
    0.6021    0.0564   -0.8273 C   0  0  0  0  0  0  0  0  0  0  0  0
    0.6445    1.0100    0.3408 C   0  0  0  0  0  0  0  0  0  0  0  0
   -0.9858   -1.4622   -0.7509 H   0  0  0  0  0  0  0  0  0  0  0  0
   -1.2234   -0.1915   -1.9719 H   0  0  0  0  0  0  0  0  0  0  0  0
   -1.1316    1.9061    1.2505 H   0  0  0  0  0  0  0  0  0  0  0  0
   -0.1602    0.4208    2.9983 H   0  0  0  0  0  0  0  0  0  0  0  0
   -1.7896   -0.1465    2.5363 H   0  0  0  0  0  0  0  0  0  0  0  0
    1.7028   -1.1591    2.3257 H   0  0  0  0  0  0  0  0  0  0  0  0
    1.2533   -2.3364    1.0765 H   0  0  0  0  0  0  0  0  0  0  0  0
    2.4974   -0.1946    0.2567 H   0  0  0  0  0  0  0  0  0  0  0  0
    1.1466    0.2812   -1.7373 H   0  0  0  0  0  0  0  0  0  0  0  0
    1.1448    1.9696    0.2963 H   0  0  0  0  0  0  0  0  0  0  0  0
  1  2  1  0
  2  3  1  0
  3  4  1  0
  4  5  1  0
  5  6  1  0
  6  7  1  0
  7  8  1  0
  8  9  1  0
  8  1  1  0
  9  3  1  0
  9  7  1  0
  1 10  1  0
  1 11  1  0
  3 12  1  0
  4 13  1  0
  4 14  1  0
  6 15  1  0
  6 16  1  0
  7 17  1  0
  8 18  1  0
  9 19  1  0
M  END
$$$$
