gdb 5212	3.7677996	1.1656767	1.0617719	2.0377	74.88	-0.24202	0.06296	0.30498000000000003	1169.8456	0.156445	-422.506227	-422.497781	-422.496836	-422.538976	32.874
 OpenBabel02181911423D

 19 21  0  0  1  0  0  0  0  0999 V2000
    1.2607    1.0281   -0.1341 O   0  0  0  0  0  0  0  0  0  0  0  0
    0.4191    0.0295    0.4294 C   0  0  0  0  0  0  0  0  0  0  0  0
   -0.8641    0.6030    0.9689 C   0  0  2  0  0  0  0  0  0  0  0  0
   -0.8767    1.5048    2.2459 C   0  0  0  0  0  0  0  0  0  0  0  0
   -2.3058    1.0141    2.4423 C   0  0  2  0  0  0  0  0  0  0  0  0
   -2.0665   -0.2242    1.5960 C   0  0  1  0  0  0  0  0  0  0  0  0
   -2.9369    0.8627    1.0408 C   0  0  1  0  0  0  0  0  0  0  0  0
   -4.3025    0.7753    0.8672 O   0  0  0  0  0  0  0  0  0  0  0  0
   -1.8908    1.2963    0.0196 C   0  0  0  0  0  0  0  0  0  0  0  0
    1.4872    1.6478    0.5669 H   0  0  0  0  0  0  0  0  0  0  0  0
    0.2077   -0.6736   -0.3840 H   0  0  0  0  0  0  0  0  0  0  0  0
    0.9407   -0.5341    1.2208 H   0  0  0  0  0  0  0  0  0  0  0  0
   -0.2070    1.1157    3.0210 H   0  0  0  0  0  0  0  0  0  0  0  0
   -0.6994    2.5791    2.1105 H   0  0  0  0  0  0  0  0  0  0  0  0
   -2.9421    1.0909    3.3153 H   0  0  0  0  0  0  0  0  0  0  0  0
   -2.2359   -1.2751    1.7787 H   0  0  0  0  0  0  0  0  0  0  0  0
   -4.6863    1.6445    1.0287 H   0  0  0  0  0  0  0  0  0  0  0  0
   -2.0027    0.7423   -0.9170 H   0  0  0  0  0  0  0  0  0  0  0  0
   -1.7471    2.3622   -0.1909 H   0  0  0  0  0  0  0  0  0  0  0  0
  1  2  1  0  0  0  0
  1 10  1  0  0  0  0
  2 12  1  0  0  0  0
  3  2  1  6  0  0  0
  3  6  1  0  0  0  0
  3  4  1  0  0  0  0
  4  5  1  0  0  0  0
  4 13  1  0  0  0  0
  5 15  1  1  0  0  0
  6 16  1  1  0  0  0
  6  5  1  0  0  0  0
  7  8  1  6  0  0  0
  7  6  1  0  0  0  0
  7  5  1  0  0  0  0
  8 17  1  0  0  0  0
  9  3  1  0  0  0  0
  9  7  1  0  0  0  0
 11  2  1  0  0  0  0
 14  4  1  0  0  0  0
 18  9  1  0  0  0  0
 19  9  1  0  0  0  0
M TOR 0 0 1 2 3
M TOR 1 0 1 2 5
M TOR 2 0 1 2 8
M TOR 3 1 2 3 4
M TOR 4 1 2 3 12
M TOR 5 1 2 3 13
M TOR 6 1 2 5 4
M TOR 7 1 2 5 6
M TOR 8 1 2 5 15
M TOR 9 1 2 8 6
M TOR 10 1 2 8 17
M TOR 11 1 2 8 18
M TOR 12 2 1 0 9
M TOR 13 2 3 4 5
M TOR 14 2 3 4 6
M TOR 15 2 3 4 14
M TOR 16 2 5 4 6
M TOR 17 2 5 4 14
M TOR 18 2 5 6 7
M TOR 19 2 5 6 8
M TOR 20 2 8 6 4
M TOR 21 2 8 6 7
M TOR 22 3 2 1 10
M TOR 23 3 2 1 11
M TOR 24 3 2 5 6
M TOR 25 3 2 5 15
M TOR 26 3 2 8 6
M TOR 27 3 2 8 17
M TOR 28 3 2 8 18
M TOR 29 3 4 5 6
M TOR 30 3 4 5 15
M TOR 31 3 4 6 7
M TOR 32 3 4 6 8
M TOR 33 4 3 2 8
M TOR 34 4 5 2 8
M TOR 35 4 5 6 7
M TOR 36 4 5 6 8
M TOR 37 4 6 5 15
M TOR 38 4 6 7 16
M TOR 39 4 6 8 17
M TOR 40 4 6 8 18
M TOR 41 5 2 1 10
M TOR 42 5 2 1 11
M TOR 43 5 2 3 12
M TOR 44 5 2 3 13
M TOR 45 5 2 8 17
M TOR 46 5 2 8 18
M TOR 47 5 4 3 12
M TOR 48 5 4 3 13
M TOR 49 5 6 4 14
M TOR 50 5 6 7 16
M TOR 51 5 6 8 17
M TOR 52 5 6 8 18
M TOR 53 6 4 3 12
M TOR 54 6 4 3 13
M TOR 55 7 6 4 14
M TOR 56 7 6 5 15
M TOR 57 7 6 8 17
M TOR 58 7 6 8 18
M TOR 59 8 2 1 10
M TOR 60 8 2 1 11
M TOR 61 8 2 3 12
M TOR 62 8 2 3 13
M TOR 63 8 2 5 15
M TOR 64 8 6 4 14
M TOR 65 8 6 5 15
M TOR 66 8 6 7 16
M  END
$$$$
