gdb 1651	3.5840446	1.1905139	1.1296887	1.574	77.28	-0.23776	0.01434	0.2521	1163.6461	0.156562	-422.543302	-422.534858	-422.533913	-422.576489	32.218
 OpenBabel02181911403D

 19 20  0  0  1  0  0  0  0  0999 V2000
   -1.4567    2.5092    1.6604 O   0  0  0  0  0  0  0  0  0  0  0  0
   -0.8729    3.0497    0.5113 C   0  0  0  0  0  0  0  0  0  0  0  0
   -1.6507    4.1352   -0.1612 C   0  0  0  0  0  0  0  0  0  0  0  0
   -0.3655    4.4704    0.5722 C   0  0  0  0  0  0  0  0  0  0  0  0
   -0.1231    2.0250   -0.3177 C   0  0  1  0  0  0  0  0  0  0  0  0
    0.8513    1.3957    0.5340 O   0  0  0  0  0  0  0  0  0  0  0  0
    0.7979   -0.0229    0.3791 C   0  0  0  0  0  0  0  0  0  0  0  0
   -0.4324   -0.2773   -0.4462 C   0  0  0  0  0  0  0  0  0  0  0  0
   -0.9526    0.8785   -0.8372 C   0  0  0  0  0  0  0  0  0  0  0  0
   -0.7405    2.0472    2.1148 H   0  0  0  0  0  0  0  0  0  0  0  0
   -1.6585    4.1806   -1.2454 H   0  0  0  0  0  0  0  0  0  0  0  0
   -2.5847    4.4162    0.3113 H   0  0  0  0  0  0  0  0  0  0  0  0
    0.5089    4.7411   -0.0101 H   0  0  0  0  0  0  0  0  0  0  0  0
   -0.4582    4.9744    1.5269 H   0  0  0  0  0  0  0  0  0  0  0  0
    0.3877    2.5491   -1.1439 H   0  0  0  0  0  0  0  0  0  0  0  0
    1.7122   -0.3873   -0.1181 H   0  0  0  0  0  0  0  0  0  0  0  0
    0.7596   -0.4944    1.3714 H   0  0  0  0  0  0  0  0  0  0  0  0
   -0.7961   -1.2704   -0.6770 H   0  0  0  0  0  0  0  0  0  0  0  0
   -1.8313    1.0284   -1.4504 H   0  0  0  0  0  0  0  0  0  0  0  0
  1 10  1  0  0  0  0
  2  4  1  0  0  0  0
  2  1  1  0  0  0  0
  3 12  1  0  0  0  0
  3  2  1  0  0  0  0
  3  4  1  0  0  0  0
  4 14  1  0  0  0  0
  5 15  1  6  0  0  0
  5  2  1  0  0  0  0
  5  6  1  0  0  0  0
  7  6  1  0  0  0  0
  7 17  1  0  0  0  0
  8  7  1  0  0  0  0
  9  8  2  0  0  0  0
  9  5  1  0  0  0  0
 11  3  1  0  0  0  0
 13  4  1  0  0  0  0
 16  7  1  0  0  0  0
 18  8  1  0  0  0  0
 19  9  1  0  0  0  0
M TOR 0 0 1 2 3
M TOR 1 0 1 2 10
M TOR 2 0 1 2 11
M TOR 3 0 1 3 12
M TOR 4 0 1 3 13
M TOR 5 0 1 4 5
M TOR 6 0 1 4 8
M TOR 7 0 1 4 14
M TOR 8 1 2 3 12
M TOR 9 1 2 3 13
M TOR 10 1 3 2 10
M TOR 11 1 3 2 11
M TOR 12 1 4 5 6
M TOR 13 1 4 8 7
M TOR 14 1 4 8 18
M TOR 15 2 1 0 9
M TOR 16 2 1 4 5
M TOR 17 2 1 4 8
M TOR 18 2 1 4 14
M TOR 19 2 3 1 4
M TOR 20 3 1 0 9
M TOR 21 3 1 4 5
M TOR 22 3 1 4 8
M TOR 23 3 1 4 14
M TOR 24 4 1 0 9
M TOR 25 4 1 2 10
M TOR 26 4 1 2 11
M TOR 27 4 1 3 12
M TOR 28 4 1 3 13
M TOR 29 4 5 6 7
M TOR 30 4 5 6 15
M TOR 31 4 5 6 16
M TOR 32 4 8 7 6
M TOR 33 4 8 7 17
M TOR 34 5 4 8 7
M TOR 35 5 4 8 18
M TOR 36 5 6 7 8
M TOR 37 5 6 7 17
M TOR 38 6 5 4 8
M TOR 39 6 5 4 14
M TOR 40 6 7 8 18
M TOR 41 7 8 4 14
M TOR 42 8 7 6 15
M TOR 43 8 7 6 16
M  END
$$$$
