gdb 5786	3.4229184	1.2260887	0.9815512	2.4882	77.35	-0.24111	0.00663	0.24774	1214.062	0.157872	-422.540753	-422.532592	-422.531648	-422.573565	31.511
 OpenBabel02181911423D

 19 20  0  0  1  0  0  0  0  0999 V2000
    1.0543    0.9041    0.3778 O   0  0  0  0  0  0  0  0  0  0  0  0
    0.4031   -0.3137    0.6644 C   0  0  0  0  0  0  0  0  0  0  0  0
   -0.9125   -0.0841    1.4074 C   0  0  2  0  0  0  0  0  0  0  0  0
   -0.5395    0.6516    2.5804 O   0  0  0  0  0  0  0  0  0  0  0  0
   -1.5379    0.8204    3.5471 C   0  0  2  0  0  0  0  0  0  0  0  0
   -1.3862    0.0198    4.8117 C   0  0  0  0  0  0  0  0  0  0  0  0
   -2.4642   -0.3350    3.7941 C   0  0  2  0  0  0  0  0  0  0  0  0
   -2.3161   -1.4919    2.8774 C   0  0  0  0  0  0  0  0  0  0  0  0
   -1.6218   -1.3699    1.7476 C   0  0  0  0  0  0  0  0  0  0  0  0
    1.0675    1.3929    1.2096 H   0  0  0  0  0  0  0  0  0  0  0  0
    0.2024   -0.8093   -0.2915 H   0  0  0  0  0  0  0  0  0  0  0  0
    1.0347   -0.9836    1.2702 H   0  0  0  0  0  0  0  0  0  0  0  0
   -1.5557    0.5506    0.7742 H   0  0  0  0  0  0  0  0  0  0  0  0
   -1.9231    1.8364    3.6054 H   0  0  0  0  0  0  0  0  0  0  0  0
   -0.5185   -0.6276    4.8623 H   0  0  0  0  0  0  0  0  0  0  0  0
   -1.6960    0.4633    5.7517 H   0  0  0  0  0  0  0  0  0  0  0  0
   -3.4839   -0.0981    4.0858 H   0  0  0  0  0  0  0  0  0  0  0  0
   -2.8104   -2.4240    3.1374 H   0  0  0  0  0  0  0  0  0  0  0  0
   -1.5353   -2.1903    1.0405 H   0  0  0  0  0  0  0  0  0  0  0  0
  1  2  1  0  0  0  0
  1 10  1  0  0  0  0
  2 12  1  0  0  0  0
  2  3  1  0  0  0  0
  3 13  1  6  0  0  0
  3  9  1  0  0  0  0
  3  4  1  0  0  0  0
  4  5  1  0  0  0  0
  5 14  1  1  0  0  0
  5  7  1  0  0  0  0
  5  6  1  0  0  0  0
  6 15  1  0  0  0  0
  6 16  1  0  0  0  0
  7 17  1  1  0  0  0
  7  6  1  0  0  0  0
  8 18  1  0  0  0  0
  8  7  1  0  0  0  0
  9  8  2  0  0  0  0
 11  2  1  0  0  0  0
 19  9  1  0  0  0  0
M TOR 0 0 1 2 3
M TOR 1 0 1 2 8
M TOR 2 0 1 2 12
M TOR 3 1 2 3 4
M TOR 4 1 2 8 7
M TOR 5 1 2 8 18
M TOR 6 2 1 0 9
M TOR 7 2 3 4 5
M TOR 8 2 3 4 6
M TOR 9 2 3 4 13
M TOR 10 2 8 7 6
M TOR 11 2 8 7 17
M TOR 12 3 2 1 10
M TOR 13 3 2 1 11
M TOR 14 3 2 8 7
M TOR 15 3 2 8 18
M TOR 16 3 4 5 6
M TOR 17 3 4 5 14
M TOR 18 3 4 5 15
M TOR 19 3 4 6 7
M TOR 20 3 4 6 16
M TOR 21 4 3 2 8
M TOR 22 4 3 2 12
M TOR 23 4 5 6 7
M TOR 24 4 5 6 16
M TOR 25 4 6 5 14
M TOR 26 4 6 5 15
M TOR 27 4 6 7 8
M TOR 28 4 6 7 17
M TOR 29 5 6 4 13
M TOR 30 5 6 7 8
M TOR 31 5 6 7 17
M TOR 32 6 7 8 18
M TOR 33 7 6 4 13
M TOR 34 7 6 5 14
M TOR 35 7 6 5 15
M TOR 36 7 8 2 12
M TOR 37 8 2 1 10
M TOR 38 8 2 1 11
M TOR 39 8 7 6 16
M  END
$$$$
