gdb 2244	2.4194009	1.7156137	1.4705707	1.4253	74.65	-0.23489	0.07714	0.31203	998.2637	0.157161	-422.535452	-422.527298	-422.526354	-422.567567	31.777
 OpenBabel02181911413D

 19 21  0  0  1  0  0  0  0  0999 V2000
    0.3880    0.3597   -1.1252 C   0  0  0  0  0  0  0  0  0  0  0  0
    1.3541    0.0685   -0.0186 C   0  0  2  0  0  0  0  0  0  0  0  0
    1.3730   -1.1295    0.9026 C   0  0  2  0  0  0  0  0  0  0  0  0
    1.3037   -0.6445    2.3449 C   0  0  0  0  0  0  0  0  0  0  0  0
    1.5021    0.7729    2.2743 O   0  0  0  0  0  0  0  0  0  0  0  0
    2.0271    1.0467    0.9836 C   0  0  1  0  0  0  0  0  0  0  0  0
    3.4014    0.3352    0.7358 C   0  0  0  0  0  0  0  0  0  0  0  0
    2.6042   -0.7826    0.0654 C   0  0  2  0  0  0  0  0  0  0  0  0
    3.0734   -1.6281   -0.9232 O   0  0  0  0  0  0  0  0  0  0  0  0
    0.1934   -0.5416   -1.7148 H   0  0  0  0  0  0  0  0  0  0  0  0
   -0.5701    0.7202   -0.7340 H   0  0  0  0  0  0  0  0  0  0  0  0
    0.7782    1.1224   -1.8084 H   0  0  0  0  0  0  0  0  0  0  0  0
    0.8360   -2.0208    0.5983 H   0  0  0  0  0  0  0  0  0  0  0  0
    0.3236   -0.8398    2.7963 H   0  0  0  0  0  0  0  0  0  0  0  0
    2.0698   -1.1011    2.9876 H   0  0  0  0  0  0  0  0  0  0  0  0
    1.9759    2.1206    0.8081 H   0  0  0  0  0  0  0  0  0  0  0  0
    4.0091    0.8720    0.0016 H   0  0  0  0  0  0  0  0  0  0  0  0
    4.0037    0.1138    1.6238 H   0  0  0  0  0  0  0  0  0  0  0  0
    3.5191   -2.3728   -0.5043 H   0  0  0  0  0  0  0  0  0  0  0  0
  1 11  1  0  0  0  0
  2  1  1  6  0  0  0
  2  8  1  0  0  0  0
  2  3  1  0  0  0  0
  2  6  1  0  0  0  0
  3 13  1  6  0  0  0
  3  4  1  0  0  0  0
  4 14  1  0  0  0  0
  4 15  1  0  0  0  0
  5  4  1  0  0  0  0
  6 16  1  6  0  0  0
  6  5  1  0  0  0  0
  7  6  1  0  0  0  0
  7 18  1  0  0  0  0
  8  9  1  6  0  0  0
  8  7  1  0  0  0  0
  8  3  1  0  0  0  0
  9 19  1  0  0  0  0
 10  1  1  0  0  0  0
 12  1  1  0  0  0  0
 17  7  1  0  0  0  0
M TOR 0 0 1 2 3
M TOR 1 0 1 2 7
M TOR 2 0 1 2 12
M TOR 3 0 1 5 4
M TOR 4 0 1 5 6
M TOR 5 0 1 5 15
M TOR 6 0 1 7 6
M TOR 7 0 1 7 8
M TOR 8 1 2 3 4
M TOR 9 1 2 3 13
M TOR 10 1 2 3 14
M TOR 11 1 2 7 6
M TOR 12 1 2 7 8
M TOR 13 1 5 4 3
M TOR 14 1 5 6 7
M TOR 15 1 5 6 16
M TOR 16 1 5 6 17
M TOR 17 1 7 2 3
M TOR 18 1 7 2 12
M TOR 19 1 7 6 16
M TOR 20 1 7 6 17
M TOR 21 1 7 8 18
M TOR 22 2 1 0 9
M TOR 23 2 1 0 10
M TOR 24 2 1 0 11
M TOR 25 2 1 5 4
M TOR 26 2 1 5 6
M TOR 27 2 1 5 15
M TOR 28 2 3 4 5
M TOR 29 2 7 1 5
M TOR 30 2 7 6 5
M TOR 31 2 7 6 16
M TOR 32 2 7 6 17
M TOR 33 2 7 8 18
M TOR 34 3 2 1 5
M TOR 35 3 2 7 6
M TOR 36 3 2 7 8
M TOR 37 3 4 5 6
M TOR 38 3 4 5 15
M TOR 39 4 3 2 7
M TOR 40 4 3 2 12
M TOR 41 4 5 1 7
M TOR 42 4 5 6 7
M TOR 43 4 5 6 16
M TOR 44 4 5 6 17
M TOR 45 5 1 0 9
M TOR 46 5 1 0 10
M TOR 47 5 1 0 11
M TOR 48 5 1 2 12
M TOR 49 5 1 7 8
M TOR 50 5 4 3 13
M TOR 51 5 4 3 14
M TOR 52 5 6 7 8
M TOR 53 6 7 2 12
M TOR 54 6 7 8 18
M TOR 55 7 1 0 9
M TOR 56 7 1 0 10
M TOR 57 7 1 0 11
M TOR 58 7 1 5 15
M TOR 59 7 2 3 13
M TOR 60 7 2 3 14
M TOR 61 7 6 5 15
M TOR 62 8 7 2 12
M TOR 63 8 7 6 16
M TOR 64 8 7 6 17
M  END
$$$$
