gdb 3496	2.6792422	1.614625	1.2159049	2.0035	75.16	-0.24702	0.0114	0.25842	1054.9475	0.157846	-422.54313	-422.53508	-422.534136	-422.575812	30.979
 OpenBabel02181911413D

 19 20  0  0  1  0  0  0  0  0999 V2000
    0.4059    0.2279    0.7725 O   0  0  0  0  0  0  0  0  0  0  0  0
   -0.6078    1.1402    1.1593 C   0  0  1  0  0  0  0  0  0  0  0  0
   -1.4265    1.5785   -0.0269 C   0  0  0  0  0  0  0  0  0  0  0  0
   -2.7186    1.6732    0.2795 C   0  0  0  0  0  0  0  0  0  0  0  0
   -2.9889    1.2805    1.7145 C   0  0  0  0  0  0  0  0  0  0  0  0
   -1.6864    0.5752    2.1324 C   0  0  0  0  0  0  0  0  0  0  0  0
   -1.2295    0.4785    3.6003 C   0  0  0  0  0  0  0  0  0  0  0  0
   -0.8827   -0.9147    3.4282 O   0  0  0  0  0  0  0  0  0  0  0  0
   -1.6652   -0.9694    2.2105 C   0  0  0  0  0  0  0  0  0  0  0  0
    0.8332   -0.0943    1.5750 H   0  0  0  0  0  0  0  0  0  0  0  0
   -0.1377    2.0245    1.6299 H   0  0  0  0  0  0  0  0  0  0  0  0
   -0.9663    1.8273   -0.9756 H   0  0  0  0  0  0  0  0  0  0  0  0
   -3.4986    2.0243   -0.3870 H   0  0  0  0  0  0  0  0  0  0  0  0
   -3.1765    2.1697    2.3345 H   0  0  0  0  0  0  0  0  0  0  0  0
   -3.8687    0.6368    1.8317 H   0  0  0  0  0  0  0  0  0  0  0  0
   -0.3686    1.0873    3.9041 H   0  0  0  0  0  0  0  0  0  0  0  0
   -2.0371    0.6076    4.3356 H   0  0  0  0  0  0  0  0  0  0  0  0
   -1.1520   -1.5085    1.4118 H   0  0  0  0  0  0  0  0  0  0  0  0
   -2.6569   -1.4078    2.3908 H   0  0  0  0  0  0  0  0  0  0  0  0
  1  2  1  0  0  0  0
  1 10  1  0  0  0  0
  2 11  1  1  0  0  0
  2  6  1  0  0  0  0
  3  4  2  0  0  0  0
  3  2  1  0  0  0  0
  4  5  1  0  0  0  0
  5 15  1  0  0  0  0
  5  6  1  0  0  0  0
  5 14  1  0  0  0  0
  6  9  1  0  0  0  0
  6  7  1  0  0  0  0
  7 16  1  0  0  0  0
  7 17  1  0  0  0  0
  8  7  1  0  0  0  0
  9 19  1  0  0  0  0
  9  8  1  0  0  0  0
 12  3  1  0  0  0  0
 13  4  1  0  0  0  0
 18  9  1  0  0  0  0
M TOR 0 0 1 2 3
M TOR 1 0 1 2 11
M TOR 2 0 1 5 4
M TOR 3 0 1 5 6
M TOR 4 0 1 5 8
M TOR 5 1 2 3 4
M TOR 6 1 2 3 12
M TOR 7 1 5 4 3
M TOR 8 1 5 4 13
M TOR 9 1 5 4 14
M TOR 10 1 5 6 7
M TOR 11 1 5 6 15
M TOR 12 1 5 6 16
M TOR 13 1 5 8 7
M TOR 14 1 5 8 17
M TOR 15 1 5 8 18
M TOR 16 2 1 0 9
M TOR 17 2 1 5 4
M TOR 18 2 1 5 6
M TOR 19 2 1 5 8
M TOR 20 2 3 4 5
M TOR 21 2 3 4 13
M TOR 22 2 3 4 14
M TOR 23 3 2 1 5
M TOR 24 3 2 1 10
M TOR 25 3 4 5 6
M TOR 26 3 4 5 8
M TOR 27 4 3 2 11
M TOR 28 4 5 1 10
M TOR 29 4 5 6 7
M TOR 30 4 5 6 15
M TOR 31 4 5 6 16
M TOR 32 4 5 8 7
M TOR 33 4 5 8 17
M TOR 34 4 5 8 18
M TOR 35 5 1 0 9
M TOR 36 5 1 2 11
M TOR 37 5 4 3 12
M TOR 38 5 6 7 8
M TOR 39 6 5 1 10
M TOR 40 6 5 4 13
M TOR 41 6 5 4 14
M TOR 42 6 5 8 17
M TOR 43 6 5 8 18
M TOR 44 6 7 8 17
M TOR 45 6 7 8 18
M TOR 46 8 5 1 10
M TOR 47 8 5 4 13
M TOR 48 8 5 4 14
M TOR 49 8 5 6 15
M TOR 50 8 5 6 16
M TOR 51 8 7 6 15
M TOR 52 8 7 6 16
M  END
$$$$
