
     RDKit          3D

 19 21  0  0  0  0  0  0  0  0999 V2000
    3.0489   -0.5771   -1.2077 C   0  0  0  0  0  0  0  0  0  0  0  0
    2.6206    0.0171    0.1228 C   0  0  0  0  0  0  0  0  0  0  0  0
    1.2235   -0.3799    0.8045 C   0  0  0  0  0  0  0  0  0  0  0  0
    0.5020    0.5055   -0.2313 C   0  0  0  0  0  0  0  0  0  0  0  0
    1.7560    1.3117    0.2499 C   0  0  0  0  0  0  0  0  0  0  0  0
    1.8420    2.7028    0.2283 O   0  0  0  0  0  0  0  0  0  0  0  0
    0.9586    3.0803    1.3135 C   0  0  0  0  0  0  0  0  0  0  0  0
    0.5211    1.9097    2.0352 O   0  0  0  0  0  0  0  0  0  0  0  0
    1.4560    0.9099    1.6677 C   0  0  0  0  0  0  0  0  0  0  0  0
    3.3736   -1.6143   -1.0714 H   0  0  0  0  0  0  0  0  0  0  0  0
    2.2613   -0.5703   -1.9639 H   0  0  0  0  0  0  0  0  0  0  0  0
    3.9002   -0.0184   -1.6104 H   0  0  0  0  0  0  0  0  0  0  0  0
    3.4578   -0.0092    0.8293 H   0  0  0  0  0  0  0  0  0  0  0  0
    0.9483   -1.3776    1.1404 H   0  0  0  0  0  0  0  0  0  0  0  0
    0.4829    0.1625   -1.2642 H   0  0  0  0  0  0  0  0  0  0  0  0
   -0.4630    0.9058    0.0766 H   0  0  0  0  0  0  0  0  0  0  0  0
    1.5172    3.7566    1.9733 H   0  0  0  0  0  0  0  0  0  0  0  0
    0.0655    3.5773    0.9186 H   0  0  0  0  0  0  0  0  0  0  0  0
    2.2848    0.8578    2.3825 H   0  0  0  0  0  0  0  0  0  0  0  0
  1  2  1  0
  2  3  1  0
  3  4  1  0
  4  5  1  0
  5  6  1  0
  6  7  1  0
  7  8  1  0
  8  9  1  0
  5  2  1  0
  9  5  1  0
  9  3  1  0
  1 10  1  0
  1 11  1  0
  1 12  1  0
  2 13  1  0
  3 14  1  0
  4 15  1  0
  4 16  1  0
  7 17  1  0
  7 18  1  0
  9 19  1  0
M  END
$$$$
