gdb 2604	2.532219	1.746317	1.2772892	2.3336	75.19	-0.23581	-0.0156	0.22021	1030.7595	0.157125	-422.576338	-422.568037	-422.567093	-422.608737	32.297
 OpenBabel02181911413D

 19 20  0  0  1  0  0  0  0  0999 V2000
   -3.7251   -1.2056   -0.0391 C   0  0  0  0  0  0  0  0  0  0  0  0
   -2.3703   -0.5399   -0.0179 C   0  0  2  0  0  0  0  0  0  0  0  0
   -1.9820    0.5418    1.0391 C   0  0  0  0  0  0  0  0  0  0  0  0
   -0.8706    0.9188   -0.0072 C   0  0  2  0  0  0  0  0  0  0  0  0
   -1.9192    0.5036   -1.0886 C   0  0  0  0  0  0  0  0  0  0  0  0
   -0.0494   -0.3459    0.0878 C   0  0  0  0  0  0  0  0  0  0  0  0
    1.1226   -0.5172    0.3032 O   0  0  0  0  0  0  0  0  0  0  0  0
   -1.1299   -1.4539    0.0028 C   0  0  1  0  0  0  0  0  0  0  0  0
   -1.0830   -2.3049    1.1276 O   0  0  0  0  0  0  0  0  0  0  0  0
   -3.8479   -1.8520    0.8355 H   0  0  0  0  0  0  0  0  0  0  0  0
   -4.5313   -0.4647   -0.0347 H   0  0  0  0  0  0  0  0  0  0  0  0
   -3.8440   -1.8287   -0.9328 H   0  0  0  0  0  0  0  0  0  0  0  0
   -2.7331    1.3311    1.1205 H   0  0  0  0  0  0  0  0  0  0  0  0
   -1.6706    0.2017    2.0288 H   0  0  0  0  0  0  0  0  0  0  0  0
   -0.3451    1.8710   -0.0035 H   0  0  0  0  0  0  0  0  0  0  0  0
   -2.6709    1.2816   -1.2399 H   0  0  0  0  0  0  0  0  0  0  0  0
   -1.5541    0.1407   -2.0545 H   0  0  0  0  0  0  0  0  0  0  0  0
   -1.0406   -2.0282   -0.9339 H   0  0  0  0  0  0  0  0  0  0  0  0
   -0.1496   -2.4664    1.3150 H   0  0  0  0  0  0  0  0  0  0  0  0
  1 11  1  0  0  0  0
  1 10  1  0  0  0  0
  2  1  1  6  0  0  0
  2  8  1  0  0  0  0
  2  3  1  0  0  0  0
  3 13  1  0  0  0  0
  3 14  1  0  0  0  0
  4 15  1  6  0  0  0
  4  6  1  0  0  0  0
  4  3  1  0  0  0  0
  5  2  1  0  0  0  0
  5  4  1  0  0  0  0
  6  7  2  0  0  0  0
  8 18  1  6  0  0  0
  8  6  1  0  0  0  0
  8  9  1  0  0  0  0
  9 19  1  0  0  0  0
 12  1  1  0  0  0  0
 16  5  1  0  0  0  0
 17  5  1  0  0  0  0
M TOR 0 0 1 2 3
M TOR 1 0 1 2 12
M TOR 2 0 1 2 13
M TOR 3 0 1 4 3
M TOR 4 0 1 4 15
M TOR 5 0 1 4 16
M TOR 6 0 1 7 5
M TOR 7 0 1 7 8
M TOR 8 0 1 7 17
M TOR 9 1 2 3 4
M TOR 10 1 2 3 5
M TOR 11 1 2 3 14
M TOR 12 1 4 3 5
M TOR 13 1 4 3 14
M TOR 14 1 7 5 3
M TOR 15 1 7 5 6
M TOR 16 1 7 8 18
M TOR 17 2 1 0 9
M TOR 18 2 1 0 10
M TOR 19 2 1 0 11
M TOR 20 2 1 4 15
M TOR 21 2 1 4 16
M TOR 22 2 1 7 5
M TOR 23 2 1 7 8
M TOR 24 2 1 7 17
M TOR 25 2 3 4 15
M TOR 26 2 3 4 16
M TOR 27 2 3 5 6
M TOR 28 2 3 5 7
M TOR 29 3 2 1 7
M TOR 30 3 4 1 7
M TOR 31 3 5 7 8
M TOR 32 3 5 7 17
M TOR 33 4 1 0 9
M TOR 34 4 1 0 10
M TOR 35 4 1 0 11
M TOR 36 4 1 2 12
M TOR 37 4 1 2 13
M TOR 38 4 1 7 5
M TOR 39 4 1 7 8
M TOR 40 4 1 7 17
M TOR 41 4 3 2 12
M TOR 42 4 3 2 13
M TOR 43 4 3 5 6
M TOR 44 4 3 5 7
M TOR 45 5 3 2 12
M TOR 46 5 3 2 13
M TOR 47 5 3 4 15
M TOR 48 5 3 4 16
M TOR 49 5 7 8 18
M TOR 50 6 5 3 14
M TOR 51 6 5 7 8
M TOR 52 6 5 7 17
M TOR 53 7 1 0 9
M TOR 54 7 1 0 10
M TOR 55 7 1 0 11
M TOR 56 7 1 2 12
M TOR 57 7 1 2 13
M TOR 58 7 1 4 15
M TOR 59 7 1 4 16
M TOR 60 7 5 3 14
M  END
$$$$
