
     RDKit          3D

 19 21  0  0  0  0  0  0  0  0999 V2000
    0.0553   -0.4788    0.2342 C   0  0  0  0  0  0  0  0  0  0  0  0
    1.4799   -0.0985   -0.0631 C   0  0  0  0  0  0  0  0  0  0  0  0
    1.7147    0.6385   -1.2322 O   0  0  0  0  0  0  0  0  0  0  0  0
    1.1225    1.9348   -1.1496 C   0  0  0  0  0  0  0  0  0  0  0  0
    2.0815    2.9432   -1.2928 O   0  0  0  0  0  0  0  0  0  0  0  0
    2.5845    3.2536    0.0055 C   0  0  0  0  0  0  0  0  0  0  0  0
    1.3455    3.2092    0.9099 C   0  0  0  0  0  0  0  0  0  0  0  0
    0.4962    2.0807    0.2793 C   0  0  0  0  0  0  0  0  0  0  0  0
    0.6940    0.7183    0.9195 C   0  0  0  0  0  0  0  0  0  0  0  0
   -0.6868   -0.3033   -0.5385 H   0  0  0  0  0  0  0  0  0  0  0  0
   -0.1212   -1.3593    0.8429 H   0  0  0  0  0  0  0  0  0  0  0  0
    2.3079   -0.7456    0.2033 H   0  0  0  0  0  0  0  0  0  0  0  0
    0.4275    2.0432   -1.9864 H   0  0  0  0  0  0  0  0  0  0  0  0
    3.3364    2.5142    0.3159 H   0  0  0  0  0  0  0  0  0  0  0  0
    3.0633    4.2338   -0.0489 H   0  0  0  0  0  0  0  0  0  0  0  0
    1.5904    3.0192    1.9580 H   0  0  0  0  0  0  0  0  0  0  0  0
    0.8108    4.1616    0.8544 H   0  0  0  0  0  0  0  0  0  0  0  0
   -0.5584    2.3605    0.2211 H   0  0  0  0  0  0  0  0  0  0  0  0
    0.8832    0.6690    1.9855 H   0  0  0  0  0  0  0  0  0  0  0  0
  1  2  1  0
  2  3  1  0
  3  4  1  0
  4  5  1  0
  5  6  1  0
  6  7  1  0
  7  8  1  0
  8  9  1  0
  9  1  1  0
  9  2  1  0
  8  4  1  0
  1 10  1  0
  1 11  1  0
  2 12  1  0
  4 13  1  0
  6 14  1  0
  6 15  1  0
  7 16  1  0
  7 17  1  0
  8 18  1  0
  9 19  1  0
M  END
$$$$
