
     RDKit          3D

 19 21  0  0  0  0  0  0  0  0999 V2000
    5.6965   -0.7385    0.7272 C   0  0  0  0  0  0  0  0  0  0  0  0
    4.9410   -0.7113    2.0674 C   0  0  0  0  0  0  0  0  0  0  0  0
    3.8497   -1.7688    2.0626 C   0  0  0  0  0  0  0  0  0  0  0  0
    3.0267   -1.9023    3.2215 O   0  0  0  0  0  0  0  0  0  0  0  0
    2.4188   -1.4315    2.0164 C   0  0  0  0  0  0  0  0  0  0  0  0
    1.9331    0.0014    1.9934 C   0  0  0  0  0  0  0  0  0  0  0  0
    2.9966    1.0356    2.2919 C   0  0  0  0  0  0  0  0  0  0  0  0
    3.6896    0.9281    3.5376 O   0  0  0  0  0  0  0  0  0  0  0  0
    4.4262    0.6928    2.3375 C   0  0  0  0  0  0  0  0  0  0  0  0
    6.1191   -1.7294    0.5363 H   0  0  0  0  0  0  0  0  0  0  0  0
    5.0324   -0.4897   -0.1079 H   0  0  0  0  0  0  0  0  0  0  0  0
    6.5199   -0.0182    0.7273 H   0  0  0  0  0  0  0  0  0  0  0  0
    5.6484   -0.9664    2.8691 H   0  0  0  0  0  0  0  0  0  0  0  0
    4.1632   -2.7245    1.6367 H   0  0  0  0  0  0  0  0  0  0  0  0
    1.7350   -2.1489    1.5594 H   0  0  0  0  0  0  0  0  0  0  0  0
    1.5213    0.2092    0.9966 H   0  0  0  0  0  0  0  0  0  0  0  0
    1.1020    0.1170    2.7012 H   0  0  0  0  0  0  0  0  0  0  0  0
    2.7203    2.0583    2.0292 H   0  0  0  0  0  0  0  0  0  0  0  0
    5.1478    1.4795    2.1061 H   0  0  0  0  0  0  0  0  0  0  0  0
  1  2  1  0
  2  3  1  0
  3  4  1  0
  4  5  1  0
  5  6  1  0
  6  7  1  0
  7  8  1  0
  8  9  1  0
  9  2  1  0
  5  3  1  0
  9  7  1  0
  1 10  1  0
  1 11  1  0
  1 12  1  0
  2 13  1  0
  3 14  1  0
  5 15  1  0
  6 16  1  0
  6 17  1  0
  7 18  1  0
  9 19  1  0
M  END
$$$$
