gdb 1469	2.632983	2.0271291	1.5517471	2.2762	73.1	-0.23903	0.06899	0.30801999999999996	919.8056	0.158319	-422.52755	-422.520371	-422.519427	-422.558544	29.999
 OpenBabel02181911403D

 19 21  0  0  1  0  0  0  0  0999 V2000
   -0.1433    0.1066   -0.1041 C   0  0  0  0  0  0  0  0  0  0  0  0
    1.3627   -0.0119    0.0752 C   0  0  2  0  0  0  0  0  0  0  0  0
    1.7367    0.9780    1.0091 O   0  0  0  0  0  0  0  0  0  0  0  0
    2.2506    0.0125   -1.2058 C   0  0  2  0  0  0  0  0  0  0  0  0
    1.7243   -1.1821   -2.0404 C   0  0  0  0  0  0  0  0  0  0  0  0
    2.2960   -2.0352   -0.8938 C   0  0  1  0  0  0  0  0  0  0  0  0
    3.3894   -0.9753   -0.6592 C   0  0  2  0  0  0  0  0  0  0  0  0
    3.2950   -1.0797    0.7754 O   0  0  0  0  0  0  0  0  0  0  0  0
    1.8932   -1.4149    0.4997 C   0  0  1  0  0  0  0  0  0  0  0  0
   -0.6108    0.1228    0.8843 H   0  0  0  0  0  0  0  0  0  0  0  0
   -0.3970    1.0438   -0.6088 H   0  0  0  0  0  0  0  0  0  0  0  0
   -0.5728   -0.7207   -0.6721 H   0  0  0  0  0  0  0  0  0  0  0  0
    2.6186    0.7150    1.3124 H   0  0  0  0  0  0  0  0  0  0  0  0
    2.4627    0.9892   -1.6362 H   0  0  0  0  0  0  0  0  0  0  0  0
    0.6635   -1.2211   -2.2909 H   0  0  0  0  0  0  0  0  0  0  0  0
    2.3120   -1.3433   -2.9493 H   0  0  0  0  0  0  0  0  0  0  0  0
    2.4888   -3.1054   -0.9434 H   0  0  0  0  0  0  0  0  0  0  0  0
    4.3983   -0.9587   -1.0675 H   0  0  0  0  0  0  0  0  0  0  0  0
    1.4088   -1.9616    1.3077 H   0  0  0  0  0  0  0  0  0  0  0  0
  1  2  1  0  0  0  0
  1 10  1  0  0  0  0
  2  9  1  0  0  0  0
  2  3  1  1  0  0  0
  3 13  1  0  0  0  0
  4 14  1  6  0  0  0
  4  7  1  0  0  0  0
  4  2  1  0  0  0  0
  5  4  1  0  0  0  0
  5  6  1  0  0  0  0
  6 17  1  6  0  0  0
  6  7  1  0  0  0  0
  6  9  1  0  0  0  0
  7 18  1  6  0  0  0
  7  8  1  0  0  0  0
  9  8  1  0  0  0  0
  9 19  1  1  0  0  0
 11  1  1  0  0  0  0
 12  1  1  0  0  0  0
 15  5  1  0  0  0  0
 16  5  1  0  0  0  0
M TOR 0 0 1 2 12
M TOR 1 0 1 3 4
M TOR 2 0 1 3 6
M TOR 3 0 1 3 13
M TOR 4 0 1 8 5
M TOR 5 0 1 8 7
M TOR 6 0 1 8 18
M TOR 7 1 3 4 5
M TOR 8 1 3 4 14
M TOR 9 1 3 4 15
M TOR 10 1 3 6 5
M TOR 11 1 3 6 7
M TOR 12 1 3 6 17
M TOR 13 1 8 5 4
M TOR 14 1 8 5 6
M TOR 15 1 8 5 16
M TOR 16 1 8 7 6
M TOR 17 2 1 0 9
M TOR 18 2 1 0 10
M TOR 19 2 1 0 11
M TOR 20 2 1 3 4
M TOR 21 2 1 3 6
M TOR 22 2 1 3 13
M TOR 23 2 1 8 5
M TOR 24 2 1 8 7
M TOR 25 2 1 8 18
M TOR 26 3 1 0 9
M TOR 27 3 1 0 10
M TOR 28 3 1 0 11
M TOR 29 3 1 2 12
M TOR 30 3 1 8 5
M TOR 31 3 1 8 7
M TOR 32 3 1 8 18
M TOR 33 3 4 5 6
M TOR 34 3 4 5 8
M TOR 35 3 4 5 16
M TOR 36 3 6 5 8
M TOR 37 3 6 5 16
M TOR 38 3 6 7 8
M TOR 39 4 3 1 8
M TOR 40 4 3 6 7
M TOR 41 4 3 6 17
M TOR 42 4 5 6 7
M TOR 43 4 5 6 17
M TOR 44 4 5 8 7
M TOR 45 4 5 8 18
M TOR 46 5 4 3 13
M TOR 47 5 6 3 13
M TOR 48 5 6 7 8
M TOR 49 6 3 1 8
M TOR 50 6 3 4 14
M TOR 51 6 3 4 15
M TOR 52 6 5 4 14
M TOR 53 6 5 4 15
M TOR 54 6 5 8 18
M TOR 55 6 7 8 18
M TOR 56 7 6 3 13
M TOR 57 7 6 5 16
M TOR 58 7 8 5 16
M TOR 59 8 1 0 9
M TOR 60 8 1 0 10
M TOR 61 8 1 0 11
M TOR 62 8 1 2 12
M TOR 63 8 1 3 13
M TOR 64 8 5 4 14
M TOR 65 8 5 4 15
M TOR 66 8 5 6 17
M TOR 67 8 7 6 17
M  END
$$$$
