
     RDKit          3D

 19 20  0  0  0  0  0  0  0  0999 V2000
    1.6055   -0.0378    0.0597 C   0  0  0  0  0  0  0  0  0  0  0  0
    0.2027    0.1171   -0.0621 O   0  0  0  0  0  0  0  0  0  0  0  0
   -0.3926    0.7062    1.0567 C   0  0  0  0  0  0  0  0  0  0  0  0
   -1.9086    0.9588    0.8729 C   0  0  0  0  0  0  0  0  0  0  0  0
   -1.7035    2.4775    1.1093 C   0  0  0  0  0  0  0  0  0  0  0  0
   -1.4373    3.2981   -0.1842 C   0  0  0  0  0  0  0  0  0  0  0  0
    0.0674    3.0204   -0.0091 C   0  0  0  0  0  0  0  0  0  0  0  0
    1.0463    3.3305   -0.6250 O   0  0  0  0  0  0  0  0  0  0  0  0
   -0.1511    2.2450    1.2927 C   0  0  0  0  0  0  0  0  0  0  0  0
    1.8650   -0.6375    0.9458 H   0  0  0  0  0  0  0  0  0  0  0  0
    1.9480   -0.5614   -0.8354 H   0  0  0  0  0  0  0  0  0  0  0  0
    2.1141    0.9331    0.1209 H   0  0  0  0  0  0  0  0  0  0  0  0
   -0.1553    0.1356    1.9674 H   0  0  0  0  0  0  0  0  0  0  0  0
   -2.2751    0.6869   -0.1201 H   0  0  0  0  0  0  0  0  0  0  0  0
   -2.5266    0.4613    1.6229 H   0  0  0  0  0  0  0  0  0  0  0  0
   -2.3144    2.9563    1.8722 H   0  0  0  0  0  0  0  0  0  0  0  0
   -1.8917    2.9422   -1.1135 H   0  0  0  0  0  0  0  0  0  0  0  0
   -1.6527    4.3675   -0.0806 H   0  0  0  0  0  0  0  0  0  0  0  0
    0.4435    2.5377    2.1589 H   0  0  0  0  0  0  0  0  0  0  0  0
  1  2  1  0
  2  3  1  0
  3  4  1  0
  4  5  1  0
  5  6  1  0
  6  7  1  0
  7  8  2  0
  7  9  1  0
  9  3  1  0
  9  5  1  0
  1 10  1  0
  1 11  1  0
  1 12  1  0
  3 13  1  0
  4 14  1  0
  4 15  1  0
  5 16  1  0
  6 17  1  0
  6 18  1  0
  9 19  1  0
M  END
$$$$
