gdb 5637	2.4999231	1.5061117	1.2946386	1.4527	75.82	-0.25234	0.01255	0.26489	1068.5166	0.158127	-422.553731	-422.545556	-422.544612	-422.586683	31.172
 OpenBabel02181911423D

 19 20  0  0  1  0  0  0  0  0999 V2000
    1.1762    0.6441   -0.6300 O   0  0  0  0  0  0  0  0  0  0  0  0
    0.0348    0.3322    0.1451 C   0  0  0  0  0  0  0  0  0  0  0  0
   -1.2849    0.6922   -0.5734 C   0  0  1  0  0  0  0  0  0  0  0  0
   -1.3514    2.1798   -0.8068 C   0  0  0  0  0  0  0  0  0  0  0  0
   -1.2281    2.7668   -1.9973 C   0  0  0  0  0  0  0  0  0  0  0  0
   -1.0767    2.0273   -3.2988 C   0  0  0  0  0  0  0  0  0  0  0  0
   -1.3106    0.5391   -3.1737 C   0  0  2  0  0  0  0  0  0  0  0  0
   -2.5816    0.1386   -2.6493 O   0  0  0  0  0  0  0  0  0  0  0  0
   -1.4144   -0.1030   -1.8582 C   0  0  2  0  0  0  0  0  0  0  0  0
    1.1047    1.5759   -0.8701 H   0  0  0  0  0  0  0  0  0  0  0  0
    0.0775   -0.7471    0.3284 H   0  0  0  0  0  0  0  0  0  0  0  0
    0.0601    0.8333    1.1259 H   0  0  0  0  0  0  0  0  0  0  0  0
   -2.1039    0.3964    0.0995 H   0  0  0  0  0  0  0  0  0  0  0  0
   -1.4736    2.7956    0.0820 H   0  0  0  0  0  0  0  0  0  0  0  0
   -1.2623    3.8518   -2.0625 H   0  0  0  0  0  0  0  0  0  0  0  0
   -1.7692    2.4423   -4.0443 H   0  0  0  0  0  0  0  0  0  0  0  0
   -0.0709    2.1908   -3.7122 H   0  0  0  0  0  0  0  0  0  0  0  0
   -0.9710   -0.0605   -4.0185 H   0  0  0  0  0  0  0  0  0  0  0  0
   -1.1435   -1.1566   -1.7746 H   0  0  0  0  0  0  0  0  0  0  0  0
  1  2  1  0  0  0  0
  2 11  1  0  0  0  0
  2 12  1  0  0  0  0
  3 13  1  1  0  0  0
  3  2  1  0  0  0  0
  4  3  1  0  0  0  0
  4 14  1  0  0  0  0
  5  4  2  0  0  0  0
  6  7  1  0  0  0  0
  6  5  1  0  0  0  0
  7 18  1  6  0  0  0
  7  8  1  0  0  0  0
  7  9  1  0  0  0  0
  8  9  1  0  0  0  0
  9 19  1  1  0  0  0
  9  3  1  0  0  0  0
 10  1  1  0  0  0  0
 15  5  1  0  0  0  0
 16  6  1  0  0  0  0
 17  6  1  0  0  0  0
M TOR 0 0 1 2 3
M TOR 1 0 1 2 8
M TOR 2 0 1 2 12
M TOR 3 1 2 3 4
M TOR 4 1 2 3 13
M TOR 5 1 2 8 6
M TOR 6 1 2 8 7
M TOR 7 1 2 8 18
M TOR 8 2 1 0 9
M TOR 9 2 3 4 5
M TOR 10 2 3 4 14
M TOR 11 2 8 6 5
M TOR 12 2 8 6 7
M TOR 13 2 8 6 17
M TOR 14 3 2 1 10
M TOR 15 3 2 1 11
M TOR 16 3 2 8 6
M TOR 17 3 2 8 7
M TOR 18 3 2 8 18
M TOR 19 3 4 5 6
M TOR 20 3 4 5 15
M TOR 21 3 4 5 16
M TOR 22 4 3 2 8
M TOR 23 4 3 2 12
M TOR 24 4 5 6 7
M TOR 25 4 5 6 8
M TOR 26 4 5 6 17
M TOR 27 5 4 3 13
M TOR 28 5 6 7 8
M TOR 29 5 6 8 18
M TOR 30 6 5 4 14
M TOR 31 6 7 8 18
M TOR 32 6 8 2 12
M TOR 33 7 6 5 15
M TOR 34 7 6 5 16
M TOR 35 7 8 2 12
M TOR 36 7 8 6 17
M TOR 37 8 2 1 10
M TOR 38 8 2 1 11
M TOR 39 8 2 3 13
M TOR 40 8 6 5 15
M TOR 41 8 6 5 16
M  END
$$$$
