gdb 4394	3.1720847	1.0810361	1.0185896	3.0557	79.23	-0.23887	-0.02987	0.209	1258.7014	0.15642	-422.573591	-422.56479	-422.563846	-422.607478	32.338
 OpenBabel02181911413D

 19 19  0  0  1  0  0  0  0  0999 V2000
    2.2795   -0.6544   -1.2127 C   0  0  0  0  0  0  0  0  0  0  0  0
    1.5899    0.2001   -0.1521 C   0  0  1  0  0  0  0  0  0  0  0  0
    1.8018   -0.4446    1.0980 O   0  0  0  0  0  0  0  0  0  0  0  0
    1.4614    0.3560    2.2137 C   0  0  0  0  0  0  0  0  0  0  0  0
    2.3866    1.5798    2.3192 C   0  0  1  0  0  0  0  0  0  0  0  0
    3.7927    1.1677    2.7408 C   0  0  0  0  0  0  0  0  0  0  0  0
    4.4620    1.7511    3.5533 O   0  0  0  0  0  0  0  0  0  0  0  0
    2.4595    2.2519    0.9668 C   0  0  0  0  0  0  0  0  0  0  0  0
    2.0866    1.6231   -0.1460 C   0  0  0  0  0  0  0  0  0  0  0  0
    1.9029   -1.6794   -1.1671 H   0  0  0  0  0  0  0  0  0  0  0  0
    2.0867   -0.2548   -2.2126 H   0  0  0  0  0  0  0  0  0  0  0  0
    3.3598   -0.6707   -1.0436 H   0  0  0  0  0  0  0  0  0  0  0  0
    0.5042    0.2142   -0.3659 H   0  0  0  0  0  0  0  0  0  0  0  0
    0.4172    0.7003    2.1483 H   0  0  0  0  0  0  0  0  0  0  0  0
    1.5491   -0.2918    3.0914 H   0  0  0  0  0  0  0  0  0  0  0  0
    2.0141    2.2824    3.0728 H   0  0  0  0  0  0  0  0  0  0  0  0
    4.1697    0.2683    2.2061 H   0  0  0  0  0  0  0  0  0  0  0  0
    2.8385    3.2691    0.9368 H   0  0  0  0  0  0  0  0  0  0  0  0
    2.1109    2.1293   -1.1076 H   0  0  0  0  0  0  0  0  0  0  0  0
  1 10  1  0  0  0  0
  1 12  1  0  0  0  0
  1  2  1  0  0  0  0
  2 13  1  6  0  0  0
  2  9  1  0  0  0  0
  2  3  1  0  0  0  0
  3  4  1  0  0  0  0
  4  5  1  0  0  0  0
  4 15  1  0  0  0  0
  5  6  1  0  0  0  0
  5 16  1  1  0  0  0
  6  7  2  0  0  0  0
  8  5  1  0  0  0  0
  9  8  2  0  0  0  0
 11  1  1  0  0  0  0
 14  4  1  0  0  0  0
 17  6  1  0  0  0  0
 18  8  1  0  0  0  0
 19  9  1  0  0  0  0
M TOR 0 0 1 2 3
M TOR 1 0 1 8 7
M TOR 2 0 1 8 18
M TOR 3 1 2 3 4
M TOR 4 1 2 3 13
M TOR 5 1 2 3 14
M TOR 6 1 8 7 4
M TOR 7 1 8 7 17
M TOR 8 2 1 0 9
M TOR 9 2 1 0 10
M TOR 10 2 1 0 11
M TOR 11 2 1 8 7
M TOR 12 2 1 8 18
M TOR 13 2 3 4 5
M TOR 14 2 3 4 7
M TOR 15 2 3 4 15
M TOR 16 3 2 1 8
M TOR 17 3 2 1 12
M TOR 18 3 4 5 6
M TOR 19 3 4 5 16
M TOR 20 3 4 7 8
M TOR 21 3 4 7 17
M TOR 22 4 7 8 18
M TOR 23 5 4 3 13
M TOR 24 5 4 3 14
M TOR 25 5 4 7 8
M TOR 26 5 4 7 17
M TOR 27 6 5 4 7
M TOR 28 6 5 4 15
M TOR 29 7 4 3 13
M TOR 30 7 4 3 14
M TOR 31 7 4 5 16
M TOR 32 7 8 1 12
M TOR 33 8 1 0 9
M TOR 34 8 1 0 10
M TOR 35 8 1 0 11
M TOR 36 8 7 4 15
M  END
$$$$
