gdb 2962	2.4842919	1.7468972	1.2836866	2.5797	75.09	-0.24412	-0.0162	0.22792	1036.7752	0.157488	-422.581161	-422.573023	-422.572079	-422.613348	31.993
 OpenBabel02181911413D

 19 20  0  0  1  0  0  0  0  0999 V2000
   -0.7320    2.2116   -1.2678 C   0  0  0  0  0  0  0  0  0  0  0  0
   -1.0371    1.3157   -0.0670 C   0  0  1  0  0  0  0  0  0  0  0  0
   -2.3753    0.5288   -0.0709 C   0  0  1  0  0  0  0  0  0  0  0  0
   -2.0826   -0.6711   -1.0193 C   0  0  0  0  0  0  0  0  0  0  0  0
   -1.0976   -1.0736    0.1365 C   0  0  2  0  0  0  0  0  0  0  0  0
   -0.5306   -2.3164    0.2789 O   0  0  0  0  0  0  0  0  0  0  0  0
   -2.1703   -0.4659    1.1074 C   0  0  0  0  0  0  0  0  0  0  0  0
   -0.1260    0.0855    0.0535 C   0  0  0  0  0  0  0  0  0  0  0  0
    1.0764   -0.0135    0.0654 O   0  0  0  0  0  0  0  0  0  0  0  0
   -0.8618    1.6814   -2.2160 H   0  0  0  0  0  0  0  0  0  0  0  0
   -1.3915    3.0847   -1.2775 H   0  0  0  0  0  0  0  0  0  0  0  0
    0.3025    2.5639   -1.2219 H   0  0  0  0  0  0  0  0  0  0  0  0
   -0.9453    1.9078    0.8529 H   0  0  0  0  0  0  0  0  0  0  0  0
   -3.2912    1.1088   -0.1641 H   0  0  0  0  0  0  0  0  0  0  0  0
   -2.9173   -1.3722   -1.0818 H   0  0  0  0  0  0  0  0  0  0  0  0
   -1.6719   -0.4806   -2.0139 H   0  0  0  0  0  0  0  0  0  0  0  0
    0.4295   -2.1741    0.2788 H   0  0  0  0  0  0  0  0  0  0  0  0
   -3.0107   -1.1502    1.2401 H   0  0  0  0  0  0  0  0  0  0  0  0
   -1.8367   -0.0731    2.0725 H   0  0  0  0  0  0  0  0  0  0  0  0
  1 12  1  0  0  0  0
  1  2  1  0  0  0  0
  2  8  1  0  0  0  0
  2 13  1  1  0  0  0
  3 14  1  6  0  0  0
  3  2  1  0  0  0  0
  3  7  1  0  0  0  0
  4  3  1  0  0  0  0
  4  5  1  0  0  0  0
  5  6  1  1  0  0  0
  5  7  1  0  0  0  0
  7 18  1  0  0  0  0
  7 19  1  0  0  0  0
  8  9  2  0  0  0  0
  8  5  1  0  0  0  0
 10  1  1  0  0  0  0
 11  1  1  0  0  0  0
 15  4  1  0  0  0  0
 16  4  1  0  0  0  0
 17  6  1  0  0  0  0
M TOR 0 0 1 2 3
M TOR 1 0 1 2 6
M TOR 2 0 1 2 13
M TOR 3 0 1 7 4
M TOR 4 0 1 7 8
M TOR 5 1 2 3 4
M TOR 6 1 2 3 14
M TOR 7 1 2 3 15
M TOR 8 1 2 6 4
M TOR 9 1 2 6 17
M TOR 10 1 2 6 18
M TOR 11 1 7 4 3
M TOR 12 1 7 4 5
M TOR 13 1 7 4 6
M TOR 14 2 1 0 9
M TOR 15 2 1 0 10
M TOR 16 2 1 0 11
M TOR 17 2 1 7 4
M TOR 18 2 1 7 8
M TOR 19 2 3 4 5
M TOR 20 2 3 4 6
M TOR 21 2 3 4 7
M TOR 22 2 6 4 5
M TOR 23 2 6 4 7
M TOR 24 3 2 1 7
M TOR 25 3 2 1 12
M TOR 26 3 2 6 17
M TOR 27 3 2 6 18
M TOR 28 3 4 5 16
M TOR 29 3 4 6 17
M TOR 30 3 4 6 18
M TOR 31 3 4 7 8
M TOR 32 4 3 2 13
M TOR 33 4 6 2 13
M TOR 34 4 7 1 12
M TOR 35 5 4 3 14
M TOR 36 5 4 3 15
M TOR 37 5 4 6 17
M TOR 38 5 4 6 18
M TOR 39 5 4 7 8
M TOR 40 6 2 1 7
M TOR 41 6 2 1 12
M TOR 42 6 2 3 14
M TOR 43 6 2 3 15
M TOR 44 6 4 3 14
M TOR 45 6 4 3 15
M TOR 46 6 4 5 16
M TOR 47 6 4 7 8
M TOR 48 7 1 0 9
M TOR 49 7 1 0 10
M TOR 50 7 1 0 11
M TOR 51 7 1 2 13
M TOR 52 7 4 3 14
M TOR 53 7 4 3 15
M TOR 54 7 4 5 16
M TOR 55 7 4 6 17
M TOR 56 7 4 6 18
M TOR 57 8 7 1 12
M  END
$$$$
