
     RDKit          3D

 19 20  0  0  0  0  0  0  0  0999 V2000
    0.1935   -0.1911    0.4073 O   0  0  0  0  0  0  0  0  0  0  0  0
   -0.9594    0.4255    0.9017 C   0  0  0  0  0  0  0  0  0  0  0  0
   -1.3091    0.2772    2.4120 C   0  0  0  0  0  0  0  0  0  0  0  0
   -1.5901    1.8089    2.4736 C   0  0  0  0  0  0  0  0  0  0  0  0
   -2.9957    2.2671    2.1982 C   0  0  0  0  0  0  0  0  0  0  0  0
   -3.1346    2.8099    0.9856 C   0  0  0  0  0  0  0  0  0  0  0  0
   -1.8467    2.8249    0.1944 C   0  0  0  0  0  0  0  0  0  0  0  0
   -0.9050    1.9828    1.0737 C   0  0  0  0  0  0  0  0  0  0  0  0
    0.4550    2.3625    1.0632 O   0  0  0  0  0  0  0  0  0  0  0  0
    0.9335    0.3676    0.6788 H   0  0  0  0  0  0  0  0  0  0  0  0
   -1.7929    0.1247    0.2601 H   0  0  0  0  0  0  0  0  0  0  0  0
   -2.1287   -0.3976    2.6704 H   0  0  0  0  0  0  0  0  0  0  0  0
   -0.4228    0.0025    2.9905 H   0  0  0  0  0  0  0  0  0  0  0  0
   -1.1328    2.3274    3.3245 H   0  0  0  0  0  0  0  0  0  0  0  0
   -3.7947    2.1667    2.9258 H   0  0  0  0  0  0  0  0  0  0  0  0
   -4.0610    3.2136    0.5910 H   0  0  0  0  0  0  0  0  0  0  0  0
   -1.9541    2.4025   -0.8124 H   0  0  0  0  0  0  0  0  0  0  0  0
   -1.4622    3.8474    0.0601 H   0  0  0  0  0  0  0  0  0  0  0  0
    0.5390    3.2324    1.4662 H   0  0  0  0  0  0  0  0  0  0  0  0
  1  2  1  0
  2  3  1  0
  3  4  1  0
  4  5  1  0
  5  6  2  0
  6  7  1  0
  7  8  1  0
  8  9  1  0
  8  2  1  0
  8  4  1  0
  1 10  1  0
  2 11  1  0
  3 12  1  0
  3 13  1  0
  4 14  1  0
  5 15  1  0
  6 16  1  0
  7 17  1  0
  7 18  1  0
  9 19  1  0
M  END
$$$$
