gdb 2094	2.339834	1.6932738	1.4582651	0.8883	75.44	-0.2302	0.07472	0.30491999999999997	1021.6293	0.154401	-422.490495	-422.481648	-422.480703	-422.523158	34.071
 OpenBabel02181911403D

 19 21  0  0  1  0  0  0  0  0999 V2000
    2.8509    1.3862   -1.2228 C   0  0  0  0  0  0  0  0  0  0  0  0
    1.8687    1.8805   -0.2022 C   0  0  2  0  0  0  0  0  0  0  0  0
    0.9233    3.1112   -0.2350 C   0  0  0  0  0  0  0  0  0  0  0  0
    0.6283    2.4788    1.1274 C   0  0  2  0  0  0  0  0  0  0  0  0
   -0.2785    2.9514    2.0441 O   0  0  0  0  0  0  0  0  0  0  0  0
    2.1124    2.0233    1.3332 C   0  0  1  0  0  0  0  0  0  0  0  0
    1.7703    0.6393    1.6401 O   0  0  0  0  0  0  0  0  0  0  0  0
    0.8207    1.0108    0.5830 C   0  0  2  0  0  0  0  0  0  0  0  0
   -0.1684    0.0005    0.1007 C   0  0  0  0  0  0  0  0  0  0  0  0
    3.3542    0.4867   -0.8527 H   0  0  0  0  0  0  0  0  0  0  0  0
    2.3538    1.1365   -2.1665 H   0  0  0  0  0  0  0  0  0  0  0  0
    3.6153    2.1401   -1.4393 H   0  0  0  0  0  0  0  0  0  0  0  0
    1.4033    4.0940   -0.2223 H   0  0  0  0  0  0  0  0  0  0  0  0
    0.1145    3.0885   -0.9713 H   0  0  0  0  0  0  0  0  0  0  0  0
   -0.2385    2.3760    2.8184 H   0  0  0  0  0  0  0  0  0  0  0  0
    2.9382    2.4926    1.8684 H   0  0  0  0  0  0  0  0  0  0  0  0
   -0.8237   -0.3194    0.9173 H   0  0  0  0  0  0  0  0  0  0  0  0
   -0.7927    0.4289   -0.6899 H   0  0  0  0  0  0  0  0  0  0  0  0
    0.3389   -0.8834   -0.2989 H   0  0  0  0  0  0  0  0  0  0  0  0
  1 10  1  0  0  0  0
  2  1  1  6  0  0  0
  2  8  1  0  0  0  0
  2  6  1  0  0  0  0
  3 13  1  0  0  0  0
  3  2  1  0  0  0  0
  3  4  1  0  0  0  0
  4  6  1  0  0  0  0
  4  5  1  1  0  0  0
  5 15  1  0  0  0  0
  6  7  1  0  0  0  0
  6 16  1  1  0  0  0
  8  9  1  6  0  0  0
  8  4  1  0  0  0  0
  8  7  1  0  0  0  0
  9 17  1  0  0  0  0
 11  1  1  0  0  0  0
 12  1  1  0  0  0  0
 14  3  1  0  0  0  0
 18  9  1  0  0  0  0
 19  9  1  0  0  0  0
M TOR 0 0 1 2 3
M TOR 1 0 1 2 12
M TOR 2 0 1 2 13
M TOR 3 0 1 5 3
M TOR 4 0 1 5 6
M TOR 5 0 1 5 15
M TOR 6 0 1 7 3
M TOR 7 0 1 7 6
M TOR 8 0 1 7 8
M TOR 9 1 2 3 4
M TOR 10 1 2 3 5
M TOR 11 1 2 3 7
M TOR 12 1 5 3 4
M TOR 13 1 5 3 7
M TOR 14 1 5 6 7
M TOR 15 1 7 3 4
M TOR 16 1 7 8 16
M TOR 17 1 7 8 17
M TOR 18 1 7 8 18
M TOR 19 2 1 0 9
M TOR 20 2 1 0 10
M TOR 21 2 1 0 11
M TOR 22 2 1 5 6
M TOR 23 2 1 5 15
M TOR 24 2 1 7 6
M TOR 25 2 1 7 8
M TOR 26 2 3 4 14
M TOR 27 2 3 5 6
M TOR 28 2 3 5 15
M TOR 29 2 3 7 6
M TOR 30 2 3 7 8
M TOR 31 3 5 6 7
M TOR 32 3 7 8 16
M TOR 33 3 7 8 17
M TOR 34 3 7 8 18
M TOR 35 4 3 2 12
M TOR 36 4 3 2 13
M TOR 37 4 3 5 6
M TOR 38 4 3 5 15
M TOR 39 4 3 7 6
M TOR 40 4 3 7 8
M TOR 41 5 1 0 9
M TOR 42 5 1 0 10
M TOR 43 5 1 0 11
M TOR 44 5 1 2 12
M TOR 45 5 1 2 13
M TOR 46 5 1 7 8
M TOR 47 5 3 2 12
M TOR 48 5 3 2 13
M TOR 49 5 3 4 14
M TOR 50 5 3 7 8
M TOR 51 5 6 7 8
M TOR 52 6 7 8 16
M TOR 53 6 7 8 17
M TOR 54 6 7 8 18
M TOR 55 7 1 0 9
M TOR 56 7 1 0 10
M TOR 57 7 1 0 11
M TOR 58 7 1 2 12
M TOR 59 7 1 2 13
M TOR 60 7 1 5 15
M TOR 61 7 3 2 12
M TOR 62 7 3 2 13
M TOR 63 7 3 4 14
M TOR 64 7 3 5 15
M TOR 65 7 6 5 15
M  END
$$$$
