
     RDKit          3D

 19 21  0  0  0  0  0  0  0  0999 V2000
    2.2840    1.5488    0.0415 C   0  0  0  0  0  0  0  0  0  0  0  0
    1.6965    0.1628   -0.2445 C   0  0  0  0  0  0  0  0  0  0  0  0
    2.4607   -0.5803   -1.3452 C   0  0  0  0  0  0  0  0  0  0  0  0
    3.8506   -0.7853   -1.0546 O   0  0  0  0  0  0  0  0  0  0  0  0
    2.9363   -1.8850   -0.8732 C   0  0  0  0  0  0  0  0  0  0  0  0
    2.5433   -2.0517    0.5649 C   0  0  0  0  0  0  0  0  0  0  0  0
    3.4075   -2.7226    1.4244 O   0  0  0  0  0  0  0  0  0  0  0  0
    1.0786   -2.1366    0.8465 C   0  0  0  0  0  0  0  0  0  0  0  0
    1.7829   -0.7927    0.9494 C   0  0  0  0  0  0  0  0  0  0  0  0
    1.7483    2.0391    0.8602 H   0  0  0  0  0  0  0  0  0  0  0  0
    3.3386    1.4629    0.3181 H   0  0  0  0  0  0  0  0  0  0  0  0
    2.2167    2.1960   -0.8392 H   0  0  0  0  0  0  0  0  0  0  0  0
    0.6532    0.2769   -0.5694 H   0  0  0  0  0  0  0  0  0  0  0  0
    2.2378   -0.3887   -2.3923 H   0  0  0  0  0  0  0  0  0  0  0  0
    3.1023   -2.7425   -1.5211 H   0  0  0  0  0  0  0  0  0  0  0  0
    4.2455   -2.2445    1.4157 H   0  0  0  0  0  0  0  0  0  0  0  0
    0.3846   -2.3122    0.0293 H   0  0  0  0  0  0  0  0  0  0  0  0
    0.8106   -2.6123    1.7833 H   0  0  0  0  0  0  0  0  0  0  0  0
    1.9147   -0.3798    1.9433 H   0  0  0  0  0  0  0  0  0  0  0  0
  1  2  1  0
  2  3  1  0
  3  4  1  0
  4  5  1  0
  5  6  1  0
  6  7  1  0
  6  8  1  0
  8  9  1  0
  9  2  1  0
  5  3  1  0
  9  6  1  0
  1 10  1  0
  1 11  1  0
  1 12  1  0
  2 13  1  0
  3 14  1  0
  5 15  1  0
  7 16  1  0
  8 17  1  0
  8 18  1  0
  9 19  1  0
M  END
$$$$
