
     RDKit          3D

 19 20  0  0  0  0  0  0  0  0999 V2000
    0.9897    0.0568    0.8790 O   0  0  0  0  0  0  0  0  0  0  0  0
   -0.0674    0.0352    0.3064 C   0  0  0  0  0  0  0  0  0  0  0  0
   -0.7947    1.2457   -0.2946 C   0  0  0  0  0  0  0  0  0  0  0  0
   -2.1971    0.7244   -0.6399 C   0  0  0  0  0  0  0  0  0  0  0  0
   -1.9824   -0.7668   -0.9692 C   0  0  0  0  0  0  0  0  0  0  0  0
   -1.7077   -1.0916   -2.4630 C   0  0  0  0  0  0  0  0  0  0  0  0
   -2.9498   -1.8087   -2.5828 O   0  0  0  0  0  0  0  0  0  0  0  0
   -3.2444   -1.6289   -1.1840 C   0  0  0  0  0  0  0  0  0  0  0  0
   -0.9274   -1.2098    0.0473 C   0  0  0  0  0  0  0  0  0  0  0  0
   -0.7666    2.1000    0.3855 H   0  0  0  0  0  0  0  0  0  0  0  0
   -0.2443    1.5398   -1.1983 H   0  0  0  0  0  0  0  0  0  0  0  0
   -2.8549    0.8080    0.2345 H   0  0  0  0  0  0  0  0  0  0  0  0
   -2.6779    1.2652   -1.4593 H   0  0  0  0  0  0  0  0  0  0  0  0
   -1.6615   -0.2320   -3.1446 H   0  0  0  0  0  0  0  0  0  0  0  0
   -0.8405   -1.7396   -2.6496 H   0  0  0  0  0  0  0  0  0  0  0  0
   -4.2025   -1.1162   -1.0270 H   0  0  0  0  0  0  0  0  0  0  0  0
   -3.2580   -2.5830   -0.6399 H   0  0  0  0  0  0  0  0  0  0  0  0
   -1.4016   -1.4804    1.0015 H   0  0  0  0  0  0  0  0  0  0  0  0
   -0.3158   -2.0626   -0.2579 H   0  0  0  0  0  0  0  0  0  0  0  0
  1  2  2  0
  2  3  1  0
  3  4  1  0
  4  5  1  0
  5  6  1  0
  6  7  1  0
  7  8  1  0
  5  9  1  0
  9  2  1  0
  8  5  1  0
  3 10  1  0
  3 11  1  0
  4 12  1  0
  4 13  1  0
  6 14  1  0
  6 15  1  0
  8 16  1  0
  8 17  1  0
  9 18  1  0
  9 19  1  0
M  END
$$$$
