
     RDKit          3D

 19 21  0  0  0  0  0  0  0  0999 V2000
    2.0467   -1.6996   -3.0358 O   0  0  0  0  0  0  0  0  0  0  0  0
    1.2684   -1.3797   -1.8899 C   0  0  0  0  0  0  0  0  0  0  0  0
   -0.2291   -1.3329   -2.2309 C   0  0  0  0  0  0  0  0  0  0  0  0
   -1.1139   -0.8068   -1.0829 C   0  0  0  0  0  0  0  0  0  0  0  0
   -0.5013    0.3444   -0.3021 C   0  0  0  0  0  0  0  0  0  0  0  0
    0.3749    1.4475   -0.8456 C   0  0  0  0  0  0  0  0  0  0  0  0
    1.1127    1.0734   -2.0104 O   0  0  0  0  0  0  0  0  0  0  0  0
    1.6992   -0.0521   -1.2731 C   0  0  0  0  0  0  0  0  0  0  0  0
    0.9774    0.3650    0.0153 C   0  0  0  0  0  0  0  0  0  0  0  0
    1.8841   -1.0079   -3.6878 H   0  0  0  0  0  0  0  0  0  0  0  0
    1.4805   -2.1767   -1.1657 H   0  0  0  0  0  0  0  0  0  0  0  0
   -0.3382   -0.6716   -3.0963 H   0  0  0  0  0  0  0  0  0  0  0  0
   -0.5609   -2.3285   -2.5400 H   0  0  0  0  0  0  0  0  0  0  0  0
   -2.0926   -0.5179   -1.4842 H   0  0  0  0  0  0  0  0  0  0  0  0
   -1.3056   -1.6184   -0.3680 H   0  0  0  0  0  0  0  0  0  0  0  0
   -1.1093    0.6969    0.5294 H   0  0  0  0  0  0  0  0  0  0  0  0
    0.2085    2.5061   -0.6811 H   0  0  0  0  0  0  0  0  0  0  0  0
    2.7884    0.0423   -1.2493 H   0  0  0  0  0  0  0  0  0  0  0  0
    1.4067    0.3867    1.0078 H   0  0  0  0  0  0  0  0  0  0  0  0
  1  2  1  0
  2  3  1  0
  3  4  1  0
  4  5  1  0
  5  6  1  0
  6  7  1  0
  7  8  1  0
  8  9  1  0
  8  2  1  0
  9  5  1  0
  9  6  1  0
  1 10  1  0
  2 11  1  0
  3 12  1  0
  3 13  1  0
  4 14  1  0
  4 15  1  0
  5 16  1  0
  6 17  1  0
  8 18  1  0
  9 19  1  0
M  END
$$$$
