
     RDKit          3D

 19 21  0  0  0  0  0  0  0  0999 V2000
   -0.1647    0.0493   -0.0451 C   0  0  0  0  0  0  0  0  0  0  0  0
    1.3585    0.0671    0.0380 C   0  0  0  0  0  0  0  0  0  0  0  0
    2.0581   -0.8723   -0.9658 C   0  0  0  0  0  0  0  0  0  0  0  0
    3.5425   -1.1389   -0.4839 C   0  0  0  0  0  0  0  0  0  0  0  0
    3.4840   -0.5843    0.9507 C   0  0  0  0  0  0  0  0  0  0  0  0
    1.9745   -0.8847    1.0960 C   0  0  0  0  0  0  0  0  0  0  0  0
    1.3806   -0.9341    2.3499 O   0  0  0  0  0  0  0  0  0  0  0  0
    1.9092   -2.0701   -0.0051 C   0  0  0  0  0  0  0  0  0  0  0  0
    3.2373   -2.5492   -0.2524 O   0  0  0  0  0  0  0  0  0  0  0  0
   -0.6013    0.4990    0.8513 H   0  0  0  0  0  0  0  0  0  0  0  0
   -0.5136    0.6151   -0.9153 H   0  0  0  0  0  0  0  0  0  0  0  0
   -0.5605   -0.9677   -0.1292 H   0  0  0  0  0  0  0  0  0  0  0  0
    1.7218    1.0999    0.0857 H   0  0  0  0  0  0  0  0  0  0  0  0
    1.8374   -0.9135   -2.0305 H   0  0  0  0  0  0  0  0  0  0  0  0
    4.4228   -0.9740   -1.1037 H   0  0  0  0  0  0  0  0  0  0  0  0
    4.1274   -1.1726    1.6109 H   0  0  0  0  0  0  0  0  0  0  0  0
    3.7109    0.4795    1.0552 H   0  0  0  0  0  0  0  0  0  0  0  0
    1.8915   -1.5304    2.9080 H   0  0  0  0  0  0  0  0  0  0  0  0
    1.1257   -2.8246    0.0244 H   0  0  0  0  0  0  0  0  0  0  0  0
  1  2  1  0
  2  3  1  0
  3  4  1  0
  4  5  1  0
  5  6  1  0
  6  7  1  0
  6  8  1  0
  8  9  1  0
  6  2  1  0
  8  3  1  0
  9  4  1  0
  1 10  1  0
  1 11  1  0
  1 12  1  0
  2 13  1  0
  3 14  1  0
  4 15  1  0
  5 16  1  0
  5 17  1  0
  7 18  1  0
  8 19  1  0
M  END
$$$$
