gdb 1457	2.0919974	1.8754001	1.4220239	2.9273	75.16	-0.24957	0.06871	0.31828	1018.3557	0.154849	-422.503149	-422.494477	-422.493533	-422.535744	33.705
 OpenBabel02181911403D

 19 21  0  0  1  0  0  0  0  0999 V2000
   -0.1819   -0.3502   -0.1044 C   0  0  0  0  0  0  0  0  0  0  0  0
    1.3077   -0.0366   -0.1090 C   0  0  1  0  0  0  0  0  0  0  0  0
    1.9612   -0.6594    0.9828 O   0  0  0  0  0  0  0  0  0  0  0  0
    2.1049   -0.2249   -1.4257 C   0  0  1  0  0  0  0  0  0  0  0  0
    1.7022    0.7672   -2.4794 C   0  0  0  0  0  0  0  0  0  0  0  0
    2.6101    1.2180   -1.3647 C   0  0  1  0  0  0  0  0  0  0  0  0
    1.7730    1.4485   -0.1238 C   0  0  1  0  0  0  0  0  0  0  0  0
    1.1234    2.6646    0.3716 C   0  0  0  0  0  0  0  0  0  0  0  0
    2.2589    2.0809    1.0331 O   0  0  0  0  0  0  0  0  0  0  0  0
   -0.6271   -0.0448    0.8475 H   0  0  0  0  0  0  0  0  0  0  0  0
   -0.7105    0.1574   -0.9158 H   0  0  0  0  0  0  0  0  0  0  0  0
   -0.3466   -1.4285   -0.2247 H   0  0  0  0  0  0  0  0  0  0  0  0
    1.8003   -1.6069    0.9125 H   0  0  0  0  0  0  0  0  0  0  0  0
    2.6634   -1.1245   -1.6569 H   0  0  0  0  0  0  0  0  0  0  0  0
    2.1806    0.6353   -3.4449 H   0  0  0  0  0  0  0  0  0  0  0  0
    0.6832    1.1407   -2.5427 H   0  0  0  0  0  0  0  0  0  0  0  0
    3.6047    1.6125   -1.5276 H   0  0  0  0  0  0  0  0  0  0  0  0
    1.3089    3.6159   -0.1260 H   0  0  0  0  0  0  0  0  0  0  0  0
    0.1861    2.6001    0.9226 H   0  0  0  0  0  0  0  0  0  0  0  0
  1 10  1  0  0  0  0
  2  1  1  0  0  0  0
  2  3  1  1  0  0  0
  4 14  1  6  0  0  0
  4  6  1  0  0  0  0
  4  2  1  0  0  0  0
  5  4  1  0  0  0  0
  5  6  1  0  0  0  0
  6 17  1  6  0  0  0
  6  7  1  0  0  0  0
  7  2  1  0  0  0  0
  7  8  1  0  0  0  0
  7  9  1  1  0  0  0
  8 19  1  0  0  0  0
  8  9  1  0  0  0  0
 11  1  1  0  0  0  0
 12  1  1  0  0  0  0
 13  3  1  0  0  0  0
 15  5  1  0  0  0  0
 16  5  1  0  0  0  0
 18  8  1  0  0  0  0
M TOR 0 0 1 2 12
M TOR 1 0 1 3 4
M TOR 2 0 1 3 5
M TOR 3 0 1 3 13
M TOR 4 0 1 6 5
M TOR 5 0 1 6 7
M TOR 6 0 1 6 8
M TOR 7 1 3 4 5
M TOR 8 1 3 4 14
M TOR 9 1 3 4 15
M TOR 10 1 3 5 6
M TOR 11 1 3 5 16
M TOR 12 1 6 5 4
M TOR 13 1 6 5 16
M TOR 14 1 6 7 8
M TOR 15 1 6 7 17
M TOR 16 1 6 7 18
M TOR 17 2 1 0 9
M TOR 18 2 1 0 10
M TOR 19 2 1 0 11
M TOR 20 2 1 3 4
M TOR 21 2 1 3 5
M TOR 22 2 1 3 13
M TOR 23 2 1 6 5
M TOR 24 2 1 6 7
M TOR 25 2 1 6 8
M TOR 26 3 1 0 9
M TOR 27 3 1 0 10
M TOR 28 3 1 0 11
M TOR 29 3 1 2 12
M TOR 30 3 1 6 7
M TOR 31 3 1 6 8
M TOR 32 3 4 5 6
M TOR 33 3 4 5 16
M TOR 34 3 5 4 14
M TOR 35 3 5 4 15
M TOR 36 3 5 6 7
M TOR 37 3 5 6 8
M TOR 38 4 3 1 6
M TOR 39 4 5 3 13
M TOR 40 4 5 6 7
M TOR 41 4 5 6 8
M TOR 42 5 6 7 8
M TOR 43 5 6 7 17
M TOR 44 5 6 7 18
M TOR 45 6 1 0 9
M TOR 46 6 1 0 10
M TOR 47 6 1 0 11
M TOR 48 6 1 2 12
M TOR 49 6 1 3 13
M TOR 50 6 5 3 13
M TOR 51 6 5 4 14
M TOR 52 6 5 4 15
M TOR 53 6 8 7 17
M TOR 54 6 8 7 18
M TOR 55 7 6 5 16
M TOR 56 8 6 5 16
M  END
$$$$
