gdb 2689	2.4409421	1.1020469	0.9240375	2.2897	77.54	-0.24	0.04693	0.28693	1338.2698	0.153182	-422.508432	-422.498153	-422.497208	-422.543892	37.787
 OpenBabel02181911413D

 19 19  0  0  1  0  0  0  0  0999 V2000
    3.1356   -3.5163   -1.6573 C   0  0  0  0  0  0  0  0  0  0  0  0
    3.3476   -2.0275   -1.5659 C   0  0  2  0  0  0  0  0  0  0  0  0
    3.0075   -1.3628   -2.7484 O   0  0  0  0  0  0  0  0  0  0  0  0
    4.5125   -1.4423   -0.8092 C   0  0  1  0  0  0  0  0  0  0  0  0
    5.1229   -0.3585   -1.4608 O   0  0  0  0  0  0  0  0  0  0  0  0
    3.1042   -1.2909   -0.2529 C   0  0  1  0  0  0  0  0  0  0  0  0
    2.4115    0.0654   -0.2499 C   0  0  0  0  0  0  0  0  0  0  0  0
    1.0434   -0.0146    0.2504 C   0  0  0  0  0  0  0  0  0  0  0  0
   -0.0777   -0.0943    0.6756 C   0  0  0  0  0  0  0  0  0  0  0  0
    3.4036   -4.0092   -0.7181 H   0  0  0  0  0  0  0  0  0  0  0  0
    2.0847   -3.7370   -1.8703 H   0  0  0  0  0  0  0  0  0  0  0  0
    3.7439   -3.9422   -2.4616 H   0  0  0  0  0  0  0  0  0  0  0  0
    3.7214   -0.7338   -2.9235 H   0  0  0  0  0  0  0  0  0  0  0  0
    5.2063   -2.1068   -0.2960 H   0  0  0  0  0  0  0  0  0  0  0  0
    5.2456    0.3602   -0.8321 H   0  0  0  0  0  0  0  0  0  0  0  0
    2.8843   -1.9099    0.6118 H   0  0  0  0  0  0  0  0  0  0  0  0
    2.9715    0.7851    0.3645 H   0  0  0  0  0  0  0  0  0  0  0  0
    2.4002    0.4610   -1.2710 H   0  0  0  0  0  0  0  0  0  0  0  0
   -1.0724   -0.1557    1.0413 H   0  0  0  0  0  0  0  0  0  0  0  0
  1  2  1  0  0  0  0
  1 10  1  0  0  0  0
  2  3  1  6  0  0  0
  2  4  1  0  0  0  0
  2  6  1  0  0  0  0
  4 14  1  1  0  0  0
  4  6  1  0  0  0  0
  5 15  1  0  0  0  0
  5  4  1  0  0  0  0
  6  7  1  0  0  0  0
  6 16  1  1  0  0  0
  7  8  1  0  0  0  0
  7 17  1  0  0  0  0
  8  9  3  0  0  0  0
  9 19  1  0  0  0  0
 11  1  1  0  0  0  0
 12  1  1  0  0  0  0
 13  3  1  0  0  0  0
 18  7  1  0  0  0  0
M TOR 0 0 1 2 12
M TOR 1 0 1 3 4
M TOR 2 0 1 3 5
M TOR 3 0 1 3 13
M TOR 4 0 1 5 6
M TOR 5 0 1 5 15
M TOR 6 1 3 4 14
M TOR 7 1 3 5 6
M TOR 8 1 3 5 15
M TOR 9 1 5 3 4
M TOR 10 1 5 3 13
M TOR 11 1 5 6 7
M TOR 12 1 5 6 16
M TOR 13 1 5 6 17
M TOR 14 2 1 0 9
M TOR 15 2 1 0 10
M TOR 16 2 1 0 11
M TOR 17 2 1 3 4
M TOR 18 2 1 3 5
M TOR 19 2 1 3 13
M TOR 20 2 1 5 6
M TOR 21 2 1 5 15
M TOR 22 3 1 0 9
M TOR 23 3 1 0 10
M TOR 24 3 1 0 11
M TOR 25 3 1 2 12
M TOR 26 3 5 6 7
M TOR 27 3 5 6 16
M TOR 28 3 5 6 17
M TOR 29 4 3 5 6
M TOR 30 4 3 5 15
M TOR 31 5 1 0 9
M TOR 32 5 1 0 10
M TOR 33 5 1 0 11
M TOR 34 5 1 2 12
M TOR 35 5 3 4 14
M TOR 36 5 6 7 8
M TOR 37 6 5 3 13
M TOR 38 6 7 8 18
M TOR 39 7 6 5 15
M TOR 40 8 7 6 16
M TOR 41 8 7 6 17
M  END
$$$$
