gdb 4523	3.1224991	1.4011366	1.1421593	1.9372	78.43	-0.24124	0.00714	0.24838000000000002	1111.6834	0.158586	-422.544108	-422.536298	-422.535354	-422.576251	30.75
 OpenBabel02181911413D

 19 20  0  0  1  0  0  0  0  0999 V2000
    0.0008    1.4730    0.1498 O   0  0  0  0  0  0  0  0  0  0  0  0
    0.0279    0.0520    0.0007 C   0  0  2  0  0  0  0  0  0  0  0  0
   -1.3973   -0.5203   -0.1361 C   0  0  0  0  0  0  0  0  0  0  0  0
   -2.0636   -0.6225    1.1243 O   0  0  0  0  0  0  0  0  0  0  0  0
   -1.3900   -1.5886    1.8948 C   0  0  2  0  0  0  0  0  0  0  0  0
   -1.4148   -1.5015    3.4462 C   0  0  0  0  0  0  0  0  0  0  0  0
    0.1255   -1.8143    3.4342 C   0  0  0  0  0  0  0  0  0  0  0  0
    0.0968   -1.3644    1.9880 C   0  0  2  0  0  3  0  0  0  0  0  0
    0.7667   -0.5619    1.1721 C   0  0  0  0  0  3  0  0  0  0  0  0
   -0.4705    1.6462    0.9735 H   0  0  0  0  0  0  0  0  0  0  0  0
    0.5567   -0.1184   -0.9447 H   0  0  0  0  0  0  0  0  0  0  0  0
   -1.9911    0.1579   -0.7526 H   0  0  0  0  0  0  0  0  0  0  0  0
   -1.3644   -1.5076   -0.6251 H   0  0  0  0  0  0  0  0  0  0  0  0
   -1.6578   -2.6044    1.5558 H   0  0  0  0  0  0  0  0  0  0  0  0
   -1.6077   -0.4754    3.7653 H   0  0  0  0  0  0  0  0  0  0  0  0
   -2.0731   -2.1899    3.9790 H   0  0  0  0  0  0  0  0  0  0  0  0
    0.7662   -1.2611    4.1238 H   0  0  0  0  0  0  0  0  0  0  0  0
    0.3213   -2.8851    3.5536 H   0  0  0  0  0  0  0  0  0  0  0  0
    1.7726   -0.2024    1.3714 H   0  0  0  0  0  0  0  0  0  0  0  0
  1 10  1  0  0  0  0
  2 11  1  6  0  0  0
  2  1  1  0  0  0  0
  2  9  1  0  0  0  0
  3  2  1  0  0  0  0
  3  4  1  0  0  0  0
  4  5  1  0  0  0  0
  5 14  1  6  0  0  0
  5  8  1  0  0  0  0
  5  6  1  0  0  0  0
  6 15  1  0  0  0  0
  6 16  1  0  0  0  0
  7  6  1  0  0  0  0
  7 18  1  0  0  0  0
  7 17  1  0  0  0  0
  8  9  1  1  0  0  0
  8  7  1  0  0  0  0
  9 19  1  0  0  0  0
 12  3  1  0  0  0  0
 13  3  1  0  0  0  0
M TOR 0 0 1 2 3
M TOR 1 0 1 2 11
M TOR 2 0 1 2 12
M TOR 3 0 1 8 7
M TOR 4 0 1 8 18
M TOR 5 1 2 3 4
M TOR 6 1 8 7 4
M TOR 7 1 8 7 6
M TOR 8 2 1 0 9
M TOR 9 2 1 8 7
M TOR 10 2 1 8 18
M TOR 11 2 3 4 5
M TOR 12 2 3 4 7
M TOR 13 2 3 4 13
M TOR 14 3 2 1 8
M TOR 15 3 2 1 10
M TOR 16 3 4 5 6
M TOR 17 3 4 5 14
M TOR 18 3 4 5 15
M TOR 19 3 4 7 6
M TOR 20 3 4 7 8
M TOR 21 4 3 2 11
M TOR 22 4 3 2 12
M TOR 23 4 5 6 7
M TOR 24 4 5 6 16
M TOR 25 4 5 6 17
M TOR 26 4 7 6 16
M TOR 27 4 7 6 17
M TOR 28 4 7 8 18
M TOR 29 5 4 7 8
M TOR 30 5 6 7 8
M TOR 31 6 5 4 13
M TOR 32 6 7 4 13
M TOR 33 6 7 8 18
M TOR 34 7 4 5 14
M TOR 35 7 4 5 15
M TOR 36 7 6 5 14
M TOR 37 7 6 5 15
M TOR 38 7 8 1 10
M TOR 39 8 1 0 9
M TOR 40 8 1 2 11
M TOR 41 8 1 2 12
M TOR 42 8 7 4 13
M TOR 43 8 7 6 16
M TOR 44 8 7 6 17
M  END
$$$$
