
     RDKit          3D

 19 21  0  0  0  0  0  0  0  0999 V2000
    4.4540   -2.0364   -1.2126 C   0  0  0  0  0  0  0  0  0  0  0  0
    3.2993   -2.8634   -0.7521 C   0  0  0  0  0  0  0  0  0  0  0  0
    2.8711   -4.2743   -0.9649 C   0  0  0  0  0  0  0  0  0  0  0  0
    2.7219   -4.5982    0.4189 O   0  0  0  0  0  0  0  0  0  0  0  0
    2.6248   -3.1666    0.6509 C   0  0  0  0  0  0  0  0  0  0  0  0
    1.2424   -2.7899    0.0438 C   0  0  0  0  0  0  0  0  0  0  0  0
    0.8631   -1.3245    0.1955 C   0  0  0  0  0  0  0  0  0  0  0  0
   -0.1731   -0.9282   -0.6930 O   0  0  0  0  0  0  0  0  0  0  0  0
    1.8922   -3.1307   -1.2968 C   0  0  0  0  0  0  0  0  0  0  0  0
    5.3804   -2.3226   -0.7019 H   0  0  0  0  0  0  0  0  0  0  0  0
    4.6117   -2.1686   -2.2885 H   0  0  0  0  0  0  0  0  0  0  0  0
    4.2871   -0.9680   -1.0355 H   0  0  0  0  0  0  0  0  0  0  0  0
    3.1917   -5.0430   -1.6562 H   0  0  0  0  0  0  0  0  0  0  0  0
    2.9439   -2.8612    1.6468 H   0  0  0  0  0  0  0  0  0  0  0  0
    0.4214   -3.4383    0.3798 H   0  0  0  0  0  0  0  0  0  0  0  0
    0.5879   -1.1180    1.2428 H   0  0  0  0  0  0  0  0  0  0  0  0
    1.7179   -0.6843   -0.0493 H   0  0  0  0  0  0  0  0  0  0  0  0
   -0.9502   -1.4590   -0.4898 H   0  0  0  0  0  0  0  0  0  0  0  0
    1.5126   -2.9457   -2.2935 H   0  0  0  0  0  0  0  0  0  0  0  0
  1  2  1  0
  2  3  1  0
  3  4  1  0
  4  5  1  0
  5  6  1  0
  6  7  1  0
  7  8  1  0
  6  9  1  0
  5  2  1  0
  9  2  1  0
  9  3  1  0
  1 10  1  0
  1 11  1  0
  1 12  1  0
  3 13  1  0
  5 14  1  0
  6 15  1  0
  7 16  1  0
  7 17  1  0
  8 18  1  0
  9 19  1  0
M  END
$$$$
