
     RDKit          3D

 19 18  0  0  0  0  0  0  0  0999 V2000
   -2.1592    2.7595   -0.9876 C   0  0  0  0  0  0  0  0  0  0  0  0
   -0.7376    2.2077   -1.0393 C   0  0  0  0  0  0  0  0  0  0  0  0
    0.1979    3.2160   -1.3975 O   0  0  0  0  0  0  0  0  0  0  0  0
   -0.5931    0.9847   -1.9944 C   0  0  0  0  0  0  0  0  0  0  0  0
    0.8626    0.4737   -2.0382 C   0  0  0  0  0  0  0  0  0  0  0  0
   -1.5024   -0.0947   -1.6307 C   0  0  0  0  0  0  0  0  0  0  0  0
   -2.2428   -0.9899   -1.2945 C   0  0  0  0  0  0  0  0  0  0  0  0
   -3.1223   -2.0714   -0.9369 C   0  0  0  0  0  0  0  0  0  0  0  0
   -3.7622   -2.1267    0.0889 O   0  0  0  0  0  0  0  0  0  0  0  0
   -2.1987    3.6227   -0.3183 H   0  0  0  0  0  0  0  0  0  0  0  0
   -2.4861    3.0826   -1.9850 H   0  0  0  0  0  0  0  0  0  0  0  0
   -2.8664    2.0064   -0.6321 H   0  0  0  0  0  0  0  0  0  0  0  0
   -0.4335    1.8827   -0.0374 H   0  0  0  0  0  0  0  0  0  0  0  0
   -0.1531    3.6877   -2.1613 H   0  0  0  0  0  0  0  0  0  0  0  0
   -0.8681    1.3294   -3.0035 H   0  0  0  0  0  0  0  0  0  0  0  0
    1.1573    0.0734   -1.0637 H   0  0  0  0  0  0  0  0  0  0  0  0
    0.9754   -0.3190   -2.7815 H   0  0  0  0  0  0  0  0  0  0  0  0
    1.5264    1.3031   -2.2868 H   0  0  0  0  0  0  0  0  0  0  0  0
   -3.1762   -2.8808   -1.6937 H   0  0  0  0  0  0  0  0  0  0  0  0
  1  2  1  0
  2  3  1  0
  2  4  1  0
  4  5  1  0
  4  6  1  0
  6  7  3  0
  7  8  1  0
  8  9  2  0
  1 10  1  0
  1 11  1  0
  1 12  1  0
  2 13  1  0
  3 14  1  0
  4 15  1  0
  5 16  1  0
  5 17  1  0
  5 18  1  0
  8 19  1  0
M  END
$$$$
