gdb 1558	2.3887276	1.6922084	1.3699721	2.8199	74.38	-0.23921	-0.03084	0.20837	1029.4786	0.156072	-422.57441	-422.565797	-422.564853	-422.607184	32.832
 OpenBabel02181911403D

 19 20  0  0  1  0  0  0  0  0999 V2000
   -0.4920    2.0466   -1.2404 C   0  0  0  0  0  0  0  0  0  0  0  0
   -0.8498    1.2607    0.0389 C   0  0  0  0  0  0  0  0  0  0  0  0
   -0.6125    2.1361    1.2766 C   0  0  0  0  0  0  0  0  0  0  0  0
   -2.2943    0.6796   -0.0144 C   0  0  0  0  0  0  0  0  0  0  0  0
   -2.1445   -0.7767   -0.4188 C   0  0  1  0  0  0  0  0  0  0  0  0
   -1.3723   -0.9531   -1.6032 O   0  0  0  0  0  0  0  0  0  0  0  0
   -0.7329   -1.1936   -0.3318 C   0  0  1  0  0  0  0  0  0  0  0  0
    0.0583    0.0075    0.1180 C   0  0  0  0  0  0  0  0  0  0  0  0
    1.1918   -0.0122    0.5266 O   0  0  0  0  0  0  0  0  0  0  0  0
   -0.6690    1.4458   -2.1348 H   0  0  0  0  0  0  0  0  0  0  0  0
   -1.1019    2.9545   -1.3041 H   0  0  0  0  0  0  0  0  0  0  0  0
    0.5607    2.3446   -1.2225 H   0  0  0  0  0  0  0  0  0  0  0  0
   -0.8715    1.6071    2.1995 H   0  0  0  0  0  0  0  0  0  0  0  0
    0.4411    2.4203    1.3400 H   0  0  0  0  0  0  0  0  0  0  0  0
   -1.2192    3.0459    1.2240 H   0  0  0  0  0  0  0  0  0  0  0  0
   -2.7687    0.7296    0.9722 H   0  0  0  0  0  0  0  0  0  0  0  0
   -2.9377    1.2222   -0.7143 H   0  0  0  0  0  0  0  0  0  0  0  0
   -2.9558   -1.4869   -0.2802 H   0  0  0  0  0  0  0  0  0  0  0  0
   -0.3814   -2.2034   -0.1464 H   0  0  0  0  0  0  0  0  0  0  0  0
  1 12  1  0  0  0  0
  1  2  1  0  0  0  0
  2  8  1  0  0  0  0
  2  3  1  0  0  0  0
  3 14  1  0  0  0  0
  3 13  1  0  0  0  0
  4  2  1  0  0  0  0
  4 16  1  0  0  0  0
  5  7  1  0  0  0  0
  5 18  1  1  0  0  0
  5  4  1  0  0  0  0
  6  5  1  0  0  0  0
  6  7  1  0  0  0  0
  7 19  1  1  0  0  0
  7  8  1  0  0  0  0
  8  9  2  0  0  0  0
 10  1  1  0  0  0  0
 11  1  1  0  0  0  0
 15  3  1  0  0  0  0
 17  4  1  0  0  0  0
M TOR 0 0 1 2 12
M TOR 1 0 1 2 13
M TOR 2 0 1 2 14
M TOR 3 0 1 3 4
M TOR 4 0 1 3 15
M TOR 5 0 1 3 16
M TOR 6 0 1 7 6
M TOR 7 0 1 7 8
M TOR 8 1 3 4 5
M TOR 9 1 3 4 6
M TOR 10 1 3 4 17
M TOR 11 1 7 6 4
M TOR 12 1 7 6 5
M TOR 13 1 7 6 18
M TOR 14 2 1 0 9
M TOR 15 2 1 0 10
M TOR 16 2 1 0 11
M TOR 17 2 1 3 4
M TOR 18 2 1 3 15
M TOR 19 2 1 3 16
M TOR 20 2 1 7 6
M TOR 21 2 1 7 8
M TOR 22 3 1 0 9
M TOR 23 3 1 0 10
M TOR 24 3 1 0 11
M TOR 25 3 1 2 12
M TOR 26 3 1 2 13
M TOR 27 3 1 2 14
M TOR 28 3 1 7 6
M TOR 29 3 1 7 8
M TOR 30 3 4 5 6
M TOR 31 3 4 6 7
M TOR 32 3 4 6 18
M TOR 33 4 3 1 7
M TOR 34 4 5 6 7
M TOR 35 4 5 6 18
M TOR 36 4 6 7 8
M TOR 37 5 4 3 15
M TOR 38 5 4 3 16
M TOR 39 5 6 4 17
M TOR 40 5 6 7 8
M TOR 41 6 4 3 15
M TOR 42 6 4 3 16
M TOR 43 7 1 0 9
M TOR 44 7 1 0 10
M TOR 45 7 1 0 11
M TOR 46 7 1 2 12
M TOR 47 7 1 2 13
M TOR 48 7 1 2 14
M TOR 49 7 1 3 15
M TOR 50 7 1 3 16
M TOR 51 7 6 4 17
M TOR 52 8 7 6 18
M  END
$$$$
