gdb 3999	3.9287279	1.1706052	1.0904544	1.4703	74.32	-0.23257	0.07268	0.30525	1148.4333	0.156432	-422.500548	-422.492327	-422.491383	-422.532798	32.661
 OpenBabel02181911413D

 19 21  0  0  1  0  0  0  0  0999 V2000
    0.6197    0.8657    0.5696 O   0  0  0  0  0  0  0  0  0  0  0  0
   -0.7157    0.5366    0.8800 C   0  0  2  0  0  0  0  0  0  0  0  0
   -1.1792    0.8233    2.3503 C   0  0  0  0  0  0  0  0  0  0  0  0
   -1.5092   -0.6853    2.5426 C   0  0  2  0  0  0  0  0  0  0  0  0
   -1.0239   -0.9836    1.0928 C   0  0  1  0  0  0  0  0  0  0  0  0
   -2.4226   -1.5390    0.7433 C   0  0  2  0  0  0  0  0  0  0  0  0
   -3.5188   -0.5178    0.9915 C   0  0  0  0  0  0  0  0  0  0  0  0
   -2.9073   -1.2340    2.1570 C   0  0  2  0  0  0  0  0  0  0  0  0
   -3.6471   -2.0517    2.9939 O   0  0  0  0  0  0  0  0  0  0  0  0
    1.1921    0.4425    1.2188 H   0  0  0  0  0  0  0  0  0  0  0  0
   -1.3143    1.0186    0.1034 H   0  0  0  0  0  0  0  0  0  0  0  0
   -0.3407    1.1622    2.9668 H   0  0  0  0  0  0  0  0  0  0  0  0
   -2.0021    1.5328    2.4767 H   0  0  0  0  0  0  0  0  0  0  0  0
   -1.0779   -1.2049    3.3983 H   0  0  0  0  0  0  0  0  0  0  0  0
   -0.1925   -1.6625    0.8953 H   0  0  0  0  0  0  0  0  0  0  0  0
   -2.6100   -2.4010    0.1147 H   0  0  0  0  0  0  0  0  0  0  0  0
   -3.3856    0.5439    0.8060 H   0  0  0  0  0  0  0  0  0  0  0  0
   -4.5070   -0.8880    0.7351 H   0  0  0  0  0  0  0  0  0  0  0  0
   -4.2954   -1.5081    3.4553 H   0  0  0  0  0  0  0  0  0  0  0  0
  1  2  1  0  0  0  0
  1 10  1  0  0  0  0
  2 11  1  6  0  0  0
  2  5  1  0  0  0  0
  2  3  1  0  0  0  0
  3 13  1  0  0  0  0
  3  4  1  0  0  0  0
  3 12  1  0  0  0  0
  4 14  1  1  0  0  0
  5 15  1  6  0  0  0
  5  4  1  0  0  0  0
  6 16  1  6  0  0  0
  6  7  1  0  0  0  0
  6  5  1  0  0  0  0
  6  8  1  0  0  0  0
  7  8  1  0  0  0  0
  8  4  1  0  0  0  0
  8  9  1  1  0  0  0
  9 19  1  0  0  0  0
 17  7  1  0  0  0  0
 18  7  1  0  0  0  0
M TOR 0 0 1 2 3
M TOR 1 0 1 2 11
M TOR 2 0 1 2 12
M TOR 3 0 1 4 3
M TOR 4 0 1 4 5
M TOR 5 0 1 4 14
M TOR 6 1 2 3 4
M TOR 7 1 2 3 7
M TOR 8 1 2 3 13
M TOR 9 1 4 3 7
M TOR 10 1 4 3 13
M TOR 11 1 4 5 6
M TOR 12 1 4 5 7
M TOR 13 1 4 5 15
M TOR 14 2 1 0 9
M TOR 15 2 1 4 5
M TOR 16 2 1 4 14
M TOR 17 2 3 4 5
M TOR 18 2 3 4 14
M TOR 19 2 3 7 5
M TOR 20 2 3 7 6
M TOR 21 2 3 7 8
M TOR 22 3 2 1 10
M TOR 23 3 4 1 10
M TOR 24 3 4 5 6
M TOR 25 3 4 5 7
M TOR 26 3 4 5 15
M TOR 27 3 7 5 6
M TOR 28 3 7 5 15
M TOR 29 3 7 6 16
M TOR 30 3 7 6 17
M TOR 31 3 7 8 18
M TOR 32 4 1 0 9
M TOR 33 4 1 2 11
M TOR 34 4 1 2 12
M TOR 35 4 3 2 11
M TOR 36 4 3 2 12
M TOR 37 4 3 7 6
M TOR 38 4 3 7 8
M TOR 39 4 5 6 7
M TOR 40 4 5 6 16
M TOR 41 4 5 6 17
M TOR 42 4 5 7 8
M TOR 43 5 4 1 10
M TOR 44 5 4 3 13
M TOR 45 5 6 7 8
M TOR 46 5 7 3 13
M TOR 47 5 7 6 16
M TOR 48 5 7 6 17
M TOR 49 5 7 8 18
M TOR 50 6 5 4 14
M TOR 51 6 7 3 13
M TOR 52 6 7 5 15
M TOR 53 6 7 8 18
M TOR 54 7 3 2 11
M TOR 55 7 3 2 12
M TOR 56 7 3 4 14
M TOR 57 7 5 4 14
M TOR 58 8 7 3 13
M TOR 59 8 7 5 15
M TOR 60 8 7 6 16
M TOR 61 8 7 6 17
M  END
$$$$
