gdb 2692	3.2416659	1.0458529	0.8758844	2.0448	77.42	-0.25245	-0.02704	0.22541	1329.4393	0.15473	-422.53622	-422.527094	-422.52615	-422.570582	33.153
 OpenBabel02181911413D

 19 20  0  0  1  0  0  0  0  0999 V2000
    3.3390   -0.2133    0.5549 C   0  0  0  0  0  0  0  0  0  0  0  0
    1.8847   -0.3827    0.1493 C   0  0  2  0  0  0  0  0  0  0  0  0
    1.4908   -0.2203   -1.3656 C   0  0  2  0  0  0  0  0  0  0  0  0
    0.1920    0.5236   -0.9101 C   0  0  0  0  0  0  0  0  0  0  0  0
    0.8521    0.7084    0.4546 C   0  0  2  0  0  0  0  0  0  0  0  0
    1.0203    1.9403    1.2266 C   0  0  0  0  0  0  0  0  0  0  0  0
    0.1728    0.8702    1.6795 O   0  0  0  0  0  0  0  0  0  0  0  0
    1.3021   -1.4932   -2.1377 C   0  0  0  0  0  0  0  0  0  0  0  0
    1.8678   -1.7803   -3.1610 O   0  0  0  0  0  0  0  0  0  0  0  0
    3.4423   -0.2274    1.6452 H   0  0  0  0  0  0  0  0  0  0  0  0
    3.9566   -1.0225    0.1522 H   0  0  0  0  0  0  0  0  0  0  0  0
    3.7454    0.7345    0.1871 H   0  0  0  0  0  0  0  0  0  0  0  0
    1.4935   -1.3397    0.5197 H   0  0  0  0  0  0  0  0  0  0  0  0
    2.1849    0.4327   -1.8988 H   0  0  0  0  0  0  0  0  0  0  0  0
   -0.0975    1.4112   -1.4751 H   0  0  0  0  0  0  0  0  0  0  0  0
   -0.6636   -0.1578   -0.8485 H   0  0  0  0  0  0  0  0  0  0  0  0
    1.9219    2.0989    1.8164 H   0  0  0  0  0  0  0  0  0  0  0  0
    0.5011    2.8467    0.9174 H   0  0  0  0  0  0  0  0  0  0  0  0
    0.5689   -2.1950   -1.6694 H   0  0  0  0  0  0  0  0  0  0  0  0
  1 10  1  0  0  0  0
  2  5  1  0  0  0  0
  2 13  1  1  0  0  0
  2  1  1  0  0  0  0
  3 14  1  6  0  0  0
  3  4  1  0  0  0  0
  3  2  1  0  0  0  0
  4 16  1  0  0  0  0
  4  5  1  0  0  0  0
  5  6  1  0  0  0  0
  5  7  1  1  0  0  0
  6  7  1  0  0  0  0
  6 17  1  0  0  0  0
  8 19  1  0  0  0  0
  8  3  1  0  0  0  0
  9  8  2  0  0  0  0
 11  1  1  0  0  0  0
 12  1  1  0  0  0  0
 15  4  1  0  0  0  0
 18  6  1  0  0  0  0
M TOR 0 0 1 2 3
M TOR 1 0 1 2 7
M TOR 2 0 1 2 13
M TOR 3 0 1 4 3
M TOR 4 0 1 4 5
M TOR 5 0 1 4 6
M TOR 6 1 2 3 4
M TOR 7 1 2 3 14
M TOR 8 1 2 3 15
M TOR 9 1 2 7 8
M TOR 10 1 2 7 18
M TOR 11 1 4 3 14
M TOR 12 1 4 3 15
M TOR 13 1 4 5 6
M TOR 14 1 4 5 16
M TOR 15 1 4 5 17
M TOR 16 2 1 0 9
M TOR 17 2 1 0 10
M TOR 18 2 1 0 11
M TOR 19 2 1 4 5
M TOR 20 2 1 4 6
M TOR 21 2 3 4 5
M TOR 22 2 3 4 6
M TOR 23 3 2 1 12
M TOR 24 3 2 7 8
M TOR 25 3 2 7 18
M TOR 26 3 4 1 12
M TOR 27 3 4 5 6
M TOR 28 3 4 5 16
M TOR 29 3 4 5 17
M TOR 30 4 1 0 9
M TOR 31 4 1 0 10
M TOR 32 4 1 0 11
M TOR 33 4 1 2 7
M TOR 34 4 1 2 13
M TOR 35 4 3 2 7
M TOR 36 4 3 2 13
M TOR 37 4 6 5 16
M TOR 38 4 6 5 17
M TOR 39 5 4 1 12
M TOR 40 5 4 3 14
M TOR 41 5 4 3 15
M TOR 42 6 4 1 12
M TOR 43 6 4 3 14
M TOR 44 6 4 3 15
M TOR 45 7 2 1 12
M TOR 46 7 2 3 14
M TOR 47 7 2 3 15
M TOR 48 8 7 2 13
M  END
$$$$
