gdb 274	3.4723281	1.3306597	1.2036386	1.3984	73.67	-0.23643	0.06849	0.30491999999999997	1079.3543	0.158289	-422.51522	-422.507583	-422.506639	-422.54787	29.287
 OpenBabel02181911403D

 19 21  0  0  1  0  0  0  0  0999 V2000
   -0.9592    3.7540    0.9858 C   0  0  0  0  0  0  0  0  0  0  0  0
   -2.0856    2.8870    0.4919 C   0  0  1  0  0  0  0  0  0  0  0  0
   -2.1741    2.6134   -0.8826 O   0  0  0  0  0  0  0  0  0  0  0  0
   -0.9001    2.1448   -1.3140 C   0  0  0  0  0  0  0  0  0  0  0  0
   -0.2046    1.5150   -0.0886 C   0  0  0  0  0  0  0  0  0  0  0  0
    1.3341    1.3752   -0.1630 C   0  0  0  0  0  0  0  0  0  0  0  0
    1.2577   -0.0626   -0.1148 O   0  0  0  0  0  0  0  0  0  0  0  0
   -0.1772   -0.0331   -0.0004 C   0  0  0  0  0  0  0  0  0  0  0  0
   -0.8602    2.2357    1.0700 C   0  0  1  0  0  0  0  0  0  0  0  0
   -0.3471    4.2918    0.2697 H   0  0  0  0  0  0  0  0  0  0  0  0
   -1.1169    4.2815    1.9202 H   0  0  0  0  0  0  0  0  0  0  0  0
   -3.0580    2.9002    0.9687 H   0  0  0  0  0  0  0  0  0  0  0  0
   -1.0577    1.4394   -2.1351 H   0  0  0  0  0  0  0  0  0  0  0  0
   -0.2931    2.9778   -1.7004 H   0  0  0  0  0  0  0  0  0  0  0  0
    1.7987    1.7313   -1.0929 H   0  0  0  0  0  0  0  0  0  0  0  0
    1.8840    1.7914    0.6906 H   0  0  0  0  0  0  0  0  0  0  0  0
   -0.6700   -0.5669   -0.8233 H   0  0  0  0  0  0  0  0  0  0  0  0
   -0.5230   -0.4540    0.9531 H   0  0  0  0  0  0  0  0  0  0  0  0
   -0.8559    1.7600    2.0438 H   0  0  0  0  0  0  0  0  0  0  0  0
  1  9  1  0  0  0  0
  1 11  1  0  0  0  0
  2 12  1  1  0  0  0
  2  1  1  0  0  0  0
  2  9  1  0  0  0  0
  3  2  1  0  0  0  0
  4  3  1  0  0  0  0
  4  5  1  0  0  0  0
  5  8  1  0  0  0  0
  5  9  1  0  0  0  0
  6  7  1  0  0  0  0
  6  5  1  0  0  0  0
  6 16  1  0  0  0  0
  7  8  1  0  0  0  0
  8 18  1  0  0  0  0
  9 19  1  1  0  0  0
 10  1  1  0  0  0  0
 13  4  1  0  0  0  0
 14  4  1  0  0  0  0
 15  6  1  0  0  0  0
 17  8  1  0  0  0  0
M TOR 0 0 1 2 3
M TOR 1 0 1 8 4
M TOR 2 0 1 8 18
M TOR 3 0 8 1 2
M TOR 4 0 8 1 11
M TOR 5 0 8 4 3
M TOR 6 0 8 4 5
M TOR 7 0 8 4 7
M TOR 8 1 2 3 4
M TOR 9 1 2 3 12
M TOR 10 1 2 3 13
M TOR 11 1 8 0 9
M TOR 12 1 8 0 10
M TOR 13 1 8 4 3
M TOR 14 1 8 4 5
M TOR 15 1 8 4 7
M TOR 16 2 1 0 9
M TOR 17 2 1 0 10
M TOR 18 2 1 8 4
M TOR 19 2 1 8 18
M TOR 20 2 3 4 5
M TOR 21 2 3 4 7
M TOR 22 2 3 4 8
M TOR 23 3 2 1 8
M TOR 24 3 2 1 11
M TOR 25 3 4 5 6
M TOR 26 3 4 5 14
M TOR 27 3 4 5 15
M TOR 28 3 4 7 6
M TOR 29 3 4 7 16
M TOR 30 3 4 7 17
M TOR 31 3 4 8 18
M TOR 32 4 5 6 7
M TOR 33 4 8 0 9
M TOR 34 4 8 0 10
M TOR 35 4 8 1 11
M TOR 36 5 4 3 12
M TOR 37 5 4 3 13
M TOR 38 5 4 7 16
M TOR 39 5 4 7 17
M TOR 40 5 4 8 18
M TOR 41 5 6 7 16
M TOR 42 5 6 7 17
M TOR 43 6 5 4 8
M TOR 44 6 7 4 8
M TOR 45 7 4 3 12
M TOR 46 7 4 3 13
M TOR 47 7 4 5 14
M TOR 48 7 4 5 15
M TOR 49 7 4 8 18
M TOR 50 7 6 5 14
M TOR 51 7 6 5 15
M TOR 52 8 4 3 12
M TOR 53 8 4 3 13
M TOR 54 8 4 5 14
M TOR 55 8 4 5 15
M TOR 56 8 4 7 16
M TOR 57 8 4 7 17
M  END
$$$$
