
     RDKit          3D

 19 20  0  0  0  0  0  0  0  0999 V2000
    1.5978   -0.0956   -0.5555 O   0  0  0  0  0  0  0  0  0  0  0  0
    0.6224    0.9247   -0.6339 C   0  0  0  0  0  0  0  0  0  0  0  0
   -0.7223    0.3590   -1.0674 C   0  0  0  0  0  0  0  0  0  0  0  0
   -1.9354    1.2359   -1.5234 C   0  0  0  0  0  0  0  0  0  0  0  0
   -2.5107   -0.0416   -2.2079 C   0  0  0  0  0  0  0  0  0  0  0  0
   -0.9912   -0.0117   -2.5649 C   0  0  0  0  0  0  0  0  0  0  0  0
   -1.1971    1.5189   -2.8644 C   0  0  0  0  0  0  0  0  0  0  0  0
   -0.2143   -0.9476   -3.4175 C   0  0  0  0  0  0  0  0  0  0  0  0
    0.9021   -1.3375   -3.1510 O   0  0  0  0  0  0  0  0  0  0  0  0
    1.5940   -0.5616   -1.4060 H   0  0  0  0  0  0  0  0  0  0  0  0
    0.5282    1.3421    0.3759 H   0  0  0  0  0  0  0  0  0  0  0  0
    0.9517    1.7490   -1.2852 H   0  0  0  0  0  0  0  0  0  0  0  0
   -0.9962   -0.4479   -0.3787 H   0  0  0  0  0  0  0  0  0  0  0  0
   -2.4899    1.9540   -0.9192 H   0  0  0  0  0  0  0  0  0  0  0  0
   -2.8339   -0.8526   -1.5505 H   0  0  0  0  0  0  0  0  0  0  0  0
   -3.2120    0.1215   -3.0301 H   0  0  0  0  0  0  0  0  0  0  0  0
   -0.3082    2.1482   -2.8417 H   0  0  0  0  0  0  0  0  0  0  0  0
   -1.8279    1.7541   -3.7252 H   0  0  0  0  0  0  0  0  0  0  0  0
   -0.7082   -1.2688   -4.3602 H   0  0  0  0  0  0  0  0  0  0  0  0
  1  2  1  0
  2  3  1  0
  3  4  1  0
  4  5  1  0
  5  6  1  0
  6  7  1  0
  6  8  1  0
  8  9  2  0
  6  3  1  0
  7  4  1  0
  1 10  1  0
  2 11  1  0
  2 12  1  0
  3 13  1  0
  4 14  1  0
  5 15  1  0
  5 16  1  0
  7 17  1  0
  7 18  1  0
  8 19  1  0
M  END
$$$$
