
     RDKit          3D

 19 21  0  0  0  0  0  0  0  0999 V2000
   -1.0556    2.3621    4.6631 C   0  0  0  0  0  0  0  0  0  0  0  0
   -1.4441    1.8574    3.3055 C   0  0  0  0  0  0  0  0  0  0  0  0
   -2.6208    2.3843    2.5299 C   0  0  0  0  0  0  0  0  0  0  0  0
   -3.4973    3.1403    3.3199 O   0  0  0  0  0  0  0  0  0  0  0  0
   -2.5635    0.9062    2.8748 C   0  0  0  0  0  0  0  0  0  0  0  0
   -1.5685    0.0923    2.0184 C   0  0  0  0  0  0  0  0  0  0  0  0
   -0.8431    0.8864    0.9648 C   0  0  0  0  0  0  0  0  0  0  0  0
    0.0557    0.1918    0.1468 O   0  0  0  0  0  0  0  0  0  0  0  0
   -0.4481    1.0678    2.4109 C   0  0  0  0  0  0  0  0  0  0  0  0
   -0.6322    1.5597    5.2783 H   0  0  0  0  0  0  0  0  0  0  0  0
   -0.2991    3.1529    4.5832 H   0  0  0  0  0  0  0  0  0  0  0  0
   -1.9245    2.7755    5.1787 H   0  0  0  0  0  0  0  0  0  0  0  0
   -2.5325    2.7513    1.5094 H   0  0  0  0  0  0  0  0  0  0  0  0
   -4.3954    2.9463    3.0316 H   0  0  0  0  0  0  0  0  0  0  0  0
   -3.3436    0.4649    3.4842 H   0  0  0  0  0  0  0  0  0  0  0  0
   -1.5527   -0.9918    1.9981 H   0  0  0  0  0  0  0  0  0  0  0  0
   -1.3132    1.6592    0.3691 H   0  0  0  0  0  0  0  0  0  0  0  0
    0.4756   -0.5007    0.6691 H   0  0  0  0  0  0  0  0  0  0  0  0
    0.5666    0.8517    2.7280 H   0  0  0  0  0  0  0  0  0  0  0  0
  1  2  1  0
  2  3  1  0
  3  4  1  0
  3  5  1  0
  5  6  1  0
  6  7  1  0
  7  8  1  0
  7  9  1  0
  5  2  1  0
  9  6  1  0
  9  2  1  0
  1 10  1  0
  1 11  1  0
  1 12  1  0
  3 13  1  0
  4 14  1  0
  5 15  1  0
  6 16  1  0
  7 17  1  0
  8 18  1  0
  9 19  1  0
M  END
$$$$
