gdb 3748	3.3050114	1.4077929	1.1913167	2.5714	75.33	-0.22529	0.07253	0.29782	1080.7494	0.157532	-422.527711	-422.519836	-422.518892	-422.559807	31.27
 OpenBabel02181911413D

 19 21  0  0  1  0  0  0  0  0999 V2000
    0.4181    1.0298    0.1542 O   0  0  0  0  0  0  0  0  0  0  0  0
   -0.7496    0.7356    0.8538 C   0  0  2  0  0  0  0  0  0  0  0  0
   -1.7182   -0.3049    0.3085 C   0  0  0  0  0  0  0  0  0  0  0  0
   -2.0607    1.1577    0.2442 C   0  0  2  0  0  0  0  0  0  0  0  0
   -1.9539    1.7496   -1.0429 O   0  0  0  0  0  0  0  0  0  0  0  0
   -2.3874    3.1162   -0.9398 C   0  0  0  0  0  0  0  0  0  0  0  0
   -3.3910    3.1430    0.1970 C   0  0  1  0  0  0  0  0  0  0  0  0
   -4.4399    2.0606    0.1951 C   0  0  0  0  0  0  0  0  0  0  0  0
   -3.1596    1.8654    0.9722 C   0  0  1  0  0  0  0  0  0  0  0  0
    0.1317    1.4219   -0.6832 H   0  0  0  0  0  0  0  0  0  0  0  0
   -0.6088    0.8023    1.9291 H   0  0  0  0  0  0  0  0  0  0  0  0
   -1.4381   -0.7842   -0.6238 H   0  0  0  0  0  0  0  0  0  0  0  0
   -2.2702   -0.9298    1.0031 H   0  0  0  0  0  0  0  0  0  0  0  0
   -1.5395    3.7794   -0.7142 H   0  0  0  0  0  0  0  0  0  0  0  0
   -2.7972    3.3918   -1.9169 H   0  0  0  0  0  0  0  0  0  0  0  0
   -3.5848    4.0862    0.6933 H   0  0  0  0  0  0  0  0  0  0  0  0
   -5.3435    2.2460    0.7649 H   0  0  0  0  0  0  0  0  0  0  0  0
   -4.5827    1.4779   -0.7096 H   0  0  0  0  0  0  0  0  0  0  0  0
   -3.1737    1.8357    2.0547 H   0  0  0  0  0  0  0  0  0  0  0  0
  1  2  1  0  0  0  0
  2 11  1  1  0  0  0
  3  2  1  0  0  0  0
  3 13  1  0  0  0  0
  4  5  1  6  0  0  0
  4  3  1  0  0  0  0
  4  2  1  0  0  0  0
  4  9  1  0  0  0  0
  5  6  1  0  0  0  0
  6 14  1  0  0  0  0
  6  7  1  0  0  0  0
  7 16  1  1  0  0  0
  7  9  1  0  0  0  0
  8  7  1  0  0  0  0
  8 17  1  0  0  0  0
  8  9  1  0  0  0  0
  9 19  1  1  0  0  0
 10  1  1  0  0  0  0
 12  3  1  0  0  0  0
 15  6  1  0  0  0  0
 18  8  1  0  0  0  0
M TOR 0 0 1 2 3
M TOR 1 0 1 2 11
M TOR 2 0 1 2 12
M TOR 3 0 1 3 4
M TOR 4 0 1 3 8
M TOR 5 1 2 3 4
M TOR 6 1 2 3 8
M TOR 7 1 3 2 11
M TOR 8 1 3 2 12
M TOR 9 1 3 4 5
M TOR 10 1 3 8 6
M TOR 11 1 3 8 7
M TOR 12 1 3 8 18
M TOR 13 2 1 0 9
M TOR 14 2 3 1 10
M TOR 15 2 3 4 5
M TOR 16 2 3 8 6
M TOR 17 2 3 8 7
M TOR 18 2 3 8 18
M TOR 19 3 1 0 9
M TOR 20 3 4 5 6
M TOR 21 3 4 5 13
M TOR 22 3 4 5 14
M TOR 23 3 8 6 5
M TOR 24 3 8 6 7
M TOR 25 3 8 6 15
M TOR 26 3 8 7 16
M TOR 27 3 8 7 17
M TOR 28 4 3 1 10
M TOR 29 4 3 2 11
M TOR 30 4 3 2 12
M TOR 31 4 3 8 6
M TOR 32 4 3 8 7
M TOR 33 4 3 8 18
M TOR 34 4 5 6 7
M TOR 35 4 5 6 8
M TOR 36 4 5 6 15
M TOR 37 5 4 3 8
M TOR 38 5 6 7 8
M TOR 39 5 6 7 16
M TOR 40 5 6 7 17
M TOR 41 5 6 8 18
M TOR 42 6 7 8 18
M TOR 43 6 8 7 16
M TOR 44 6 8 7 17
M TOR 45 7 6 5 13
M TOR 46 7 6 5 14
M TOR 47 7 8 6 15
M TOR 48 8 3 1 10
M TOR 49 8 3 2 11
M TOR 50 8 3 2 12
M TOR 51 8 6 5 13
M TOR 52 8 6 5 14
M  END
$$$$
