gdb 405	3.3371401	1.4920008	1.2542959	0.4582	75.01	-0.22815	0.08103	0.30918	1047.9903	0.157521	-422.506852	-422.49918	-422.498236	-422.538794	30.534
 OpenBabel02181911403D

 19 21  0  0  1  0  0  0  0  0999 V2000
    0.7483    1.3187   -0.0408 C   0  0  0  0  0  0  0  0  0  0  0  0
    1.5432    0.0255    0.0099 C   0  0  0  0  0  0  0  0  0  0  0  0
    0.0383    0.0127    0.0742 C   0  0  0  0  0  0  0  0  0  0  0  0
   -0.6805   -0.3848    1.3354 C   0  0  0  0  0  0  0  0  0  0  0  0
   -0.8044   -1.8006    1.4393 O   0  0  0  0  0  0  0  0  0  0  0  0
   -1.0818   -2.4633    0.2409 C   0  0  1  0  0  0  0  0  0  0  0  0
   -2.3127   -2.1960   -0.5967 C   0  0  0  0  0  0  0  0  0  0  0  0
   -0.9409   -1.7679   -1.0838 C   0  0  1  0  0  0  0  0  0  0  0  0
   -0.6701   -0.3880   -1.0750 O   0  0  0  0  0  0  0  0  0  0  0  0
    0.7649    1.9797    0.8194 H   0  0  0  0  0  0  0  0  0  0  0  0
    0.6744    1.8202   -0.9991 H   0  0  0  0  0  0  0  0  0  0  0  0
    1.9982   -0.3105   -0.9146 H   0  0  0  0  0  0  0  0  0  0  0  0
    2.1050   -0.2071    0.9081 H   0  0  0  0  0  0  0  0  0  0  0  0
   -0.1318   -0.0639    2.2249 H   0  0  0  0  0  0  0  0  0  0  0  0
   -1.6741    0.0896    1.3523 H   0  0  0  0  0  0  0  0  0  0  0  0
   -0.7434   -3.4919    0.3114 H   0  0  0  0  0  0  0  0  0  0  0  0
   -2.8068   -3.0395   -1.0667 H   0  0  0  0  0  0  0  0  0  0  0  0
   -2.9704   -1.3871   -0.2987 H   0  0  0  0  0  0  0  0  0  0  0  0
   -0.4796   -2.2860   -1.9211 H   0  0  0  0  0  0  0  0  0  0  0  0
  1  2  1  0  0  0  0
  1  3  1  0  0  0  0
  1 10  1  0  0  0  0
  2  3  1  0  0  0  0
  2 13  1  0  0  0  0
  3  4  1  0  0  0  0
  4 15  1  0  0  0  0
  4  5  1  0  0  0  0
  4 14  1  0  0  0  0
  6 16  1  6  0  0  0
  6  5  1  0  0  0  0
  7 18  1  0  0  0  0
  7  6  1  0  0  0  0
  8 19  1  6  0  0  0
  8  9  1  0  0  0  0
  8  7  1  0  0  0  0
  8  6  1  0  0  0  0
  9  3  1  0  0  0  0
 11  1  1  0  0  0  0
 12  2  1  0  0  0  0
 17  7  1  0  0  0  0
M TOR 0 0 1 2 3
M TOR 1 0 1 2 8
M TOR 2 0 2 1 11
M TOR 3 0 2 1 12
M TOR 4 0 2 3 4
M TOR 5 0 2 3 13
M TOR 6 0 2 3 14
M TOR 7 0 2 8 7
M TOR 8 1 2 0 9
M TOR 9 1 2 0 10
M TOR 10 1 2 3 4
M TOR 11 1 2 3 13
M TOR 12 1 2 3 14
M TOR 13 1 2 8 7
M TOR 14 2 3 4 5
M TOR 15 2 8 7 5
M TOR 16 2 8 7 6
M TOR 17 2 8 7 18
M TOR 18 3 2 0 9
M TOR 19 3 2 0 10
M TOR 20 3 2 1 11
M TOR 21 3 2 1 12
M TOR 22 3 2 8 7
M TOR 23 3 4 5 6
M TOR 24 3 4 5 7
M TOR 25 3 4 5 15
M TOR 26 4 3 2 8
M TOR 27 4 5 6 7
M TOR 28 4 5 6 16
M TOR 29 4 5 6 17
M TOR 30 4 5 7 8
M TOR 31 4 5 7 18
M TOR 32 5 4 3 13
M TOR 33 5 4 3 14
M TOR 34 5 6 7 8
M TOR 35 5 6 7 18
M TOR 36 5 7 6 16
M TOR 37 5 7 6 17
M TOR 38 6 7 5 15
M TOR 39 8 2 0 9
M TOR 40 8 2 0 10
M TOR 41 8 2 1 11
M TOR 42 8 2 1 12
M TOR 43 8 2 3 13
M TOR 44 8 2 3 14
M TOR 45 8 7 5 15
M TOR 46 8 7 6 16
M TOR 47 8 7 6 17
M  END
$$$$
