gdb 5696	4.8582387	0.8264452	0.7765877	2.5245	77.11	-0.24531	-0.02857	0.21674	1503.9271	0.153913	-422.544851	-422.535601	-422.534657	-422.579574	33.799
 OpenBabel02181911423D

 19 20  0  0  1  0  0  0  0  0999 V2000
    3.0189   -3.0646   -0.0218 C   0  0  0  0  0  0  0  0  0  0  0  0
    2.3374   -2.7875   -1.3674 C   0  0  0  0  0  0  0  0  0  0  0  0
    1.3607   -1.6409   -1.2840 C   0  0  1  0  0  0  0  0  0  0  0  0
    1.9272   -0.3163   -1.1919 O   0  0  0  0  0  0  0  0  0  0  0  0
    1.1814   -0.6512   -2.3474 C   0  0  0  0  0  0  0  0  0  0  0  0
    1.7650   -0.6162   -3.7719 C   0  0  0  0  0  0  0  0  0  0  0  0
    0.4320    0.0198   -4.2198 C   0  0  0  0  0  0  0  0  0  0  0  0
   -0.0326    0.2992   -5.2848 O   0  0  0  0  0  0  0  0  0  0  0  0
   -0.0886    0.1083   -2.7706 C   0  0  0  0  0  0  0  0  0  0  0  0
    3.7287   -3.8927   -0.1035 H   0  0  0  0  0  0  0  0  0  0  0  0
    3.5629   -2.1797    0.3209 H   0  0  0  0  0  0  0  0  0  0  0  0
    2.2848   -3.3270    0.7477 H   0  0  0  0  0  0  0  0  0  0  0  0
    3.0913   -2.5593   -2.1287 H   0  0  0  0  0  0  0  0  0  0  0  0
    1.7977   -3.6811   -1.7076 H   0  0  0  0  0  0  0  0  0  0  0  0
    0.5207   -1.7956   -0.6019 H   0  0  0  0  0  0  0  0  0  0  0  0
    2.6178    0.0630   -3.8767 H   0  0  0  0  0  0  0  0  0  0  0  0
    2.0133   -1.5697   -4.2465 H   0  0  0  0  0  0  0  0  0  0  0  0
   -0.1216    1.1368   -2.3947 H   0  0  0  0  0  0  0  0  0  0  0  0
   -1.0552   -0.3675   -2.5831 H   0  0  0  0  0  0  0  0  0  0  0  0
  1 11  1  0  0  0  0
  1 12  1  0  0  0  0
  2  3  1  0  0  0  0
  2  1  1  0  0  0  0
  3  4  1  0  0  0  0
  3 15  1  1  0  0  0
  5  3  1  0  0  0  0
  5  4  1  0  0  0  0
  6  5  1  0  0  0  0
  7  6  1  0  0  0  0
  7  9  1  0  0  0  0
  8  7  2  0  0  0  0
  9 19  1  0  0  0  0
  9 18  1  0  0  0  0
  9  5  1  0  0  0  0
 10  1  1  0  0  0  0
 13  2  1  0  0  0  0
 14  2  1  0  0  0  0
 16  6  1  0  0  0  0
 17  6  1  0  0  0  0
M TOR 0 0 1 2 3
M TOR 1 0 1 2 4
M TOR 2 0 1 2 14
M TOR 3 1 2 3 4
M TOR 4 1 2 4 5
M TOR 5 1 2 4 8
M TOR 6 2 1 0 9
M TOR 7 2 1 0 10
M TOR 8 2 1 0 11
M TOR 9 2 3 4 5
M TOR 10 2 3 4 8
M TOR 11 2 4 5 6
M TOR 12 2 4 5 15
M TOR 13 2 4 5 16
M TOR 14 2 4 8 6
M TOR 15 2 4 8 17
M TOR 16 2 4 8 18
M TOR 17 3 2 1 12
M TOR 18 3 2 1 13
M TOR 19 3 4 2 14
M TOR 20 3 4 5 6
M TOR 21 3 4 5 15
M TOR 22 3 4 5 16
M TOR 23 3 4 8 6
M TOR 24 3 4 8 17
M TOR 25 3 4 8 18
M TOR 26 4 2 1 12
M TOR 27 4 2 1 13
M TOR 28 4 5 6 7
M TOR 29 4 5 6 8
M TOR 30 4 8 6 7
M TOR 31 5 4 2 14
M TOR 32 5 4 8 17
M TOR 33 5 4 8 18
M TOR 34 5 6 8 17
M TOR 35 5 6 8 18
M TOR 36 7 6 5 15
M TOR 37 7 6 5 16
M TOR 38 7 6 8 17
M TOR 39 7 6 8 18
M TOR 40 8 4 2 14
M TOR 41 8 4 5 15
M TOR 42 8 4 5 16
M TOR 43 8 6 5 15
M TOR 44 8 6 5 16
M  END
$$$$
