gdb 1471	3.2265208	1.6502544	1.4200744	2.3846	73.53	-0.23569	0.07022	0.30591	967.3004	0.157869	-422.527775	-422.520378	-422.519433	-422.55893	30.537
 OpenBabel02181911403D

 19 21  0  0  1  0  0  0  0  0999 V2000
    0.0157    0.1271   -0.0840 C   0  0  0  0  0  0  0  0  0  0  0  0
    1.4854   -0.2634    0.0454 C   0  0  1  0  0  0  0  0  0  0  0  0
    1.6504   -1.2516    1.0445 O   0  0  0  0  0  0  0  0  0  0  0  0
    2.2161   -0.4618   -1.3298 C   0  0  2  0  0  0  0  0  0  0  0  0
    3.6311   -0.8604   -0.8750 C   0  0  0  0  0  0  0  0  0  0  0  0
    3.8931    0.5010   -0.1985 C   0  0  1  0  0  0  0  0  0  0  0  0
    3.8584    1.3931   -1.3564 O   0  0  0  0  0  0  0  0  0  0  0  0
    2.4544    1.1289   -1.3353 C   0  0  2  0  0  0  0  0  0  0  0  0
    2.4247    0.9363    0.1980 C   0  0  1  0  0  0  0  0  0  0  0  0
   -0.3739    0.4686    0.8800 H   0  0  0  0  0  0  0  0  0  0  0  0
   -0.1398    0.9202   -0.8206 H   0  0  0  0  0  0  0  0  0  0  0  0
   -0.5799   -0.7369   -0.4053 H   0  0  0  0  0  0  0  0  0  0  0  0
    1.0138   -1.9562    0.8821 H   0  0  0  0  0  0  0  0  0  0  0  0
    1.7452   -0.9925   -2.1564 H   0  0  0  0  0  0  0  0  0  0  0  0
    3.6255   -1.7120   -0.1950 H   0  0  0  0  0  0  0  0  0  0  0  0
    4.3373   -1.0180   -1.6920 H   0  0  0  0  0  0  0  0  0  0  0  0
    4.7587    0.6468    0.4450 H   0  0  0  0  0  0  0  0  0  0  0  0
    1.8409    1.7930   -1.9400 H   0  0  0  0  0  0  0  0  0  0  0  0
    2.2908    1.7402    0.9200 H   0  0  0  0  0  0  0  0  0  0  0  0
  1  2  1  0  0  0  0
  1 10  1  0  0  0  0
  2  9  1  0  0  0  0
  2  3  1  1  0  0  0
  4 14  1  6  0  0  0
  4  5  1  0  0  0  0
  4  2  1  0  0  0  0
  5  6  1  0  0  0  0
  5 15  1  0  0  0  0
  6  9  1  0  0  0  0
  6 17  1  1  0  0  0
  7  8  1  0  0  0  0
  7  6  1  0  0  0  0
  8 18  1  6  0  0  0
  8  4  1  0  0  0  0
  8  9  1  0  0  0  0
  9 19  1  1  0  0  0
 11  1  1  0  0  0  0
 12  1  1  0  0  0  0
 13  3  1  0  0  0  0
 16  5  1  0  0  0  0
M TOR 0 0 1 2 12
M TOR 1 0 1 3 4
M TOR 2 0 1 3 7
M TOR 3 0 1 3 13
M TOR 4 0 1 8 5
M TOR 5 0 1 8 7
M TOR 6 0 1 8 18
M TOR 7 1 3 4 5
M TOR 8 1 3 4 14
M TOR 9 1 3 4 15
M TOR 10 1 3 7 6
M TOR 11 1 3 7 8
M TOR 12 1 3 7 17
M TOR 13 1 8 5 4
M TOR 14 1 8 5 6
M TOR 15 1 8 5 16
M TOR 16 1 8 7 6
M TOR 17 1 8 7 17
M TOR 18 2 1 0 9
M TOR 19 2 1 0 10
M TOR 20 2 1 0 11
M TOR 21 2 1 3 4
M TOR 22 2 1 3 7
M TOR 23 2 1 3 13
M TOR 24 2 1 8 5
M TOR 25 2 1 8 7
M TOR 26 2 1 8 18
M TOR 27 3 1 0 9
M TOR 28 3 1 0 10
M TOR 29 3 1 0 11
M TOR 30 3 1 2 12
M TOR 31 3 1 8 5
M TOR 32 3 1 8 18
M TOR 33 3 4 5 6
M TOR 34 3 4 5 8
M TOR 35 3 4 5 16
M TOR 36 3 7 6 5
M TOR 37 3 7 8 5
M TOR 38 3 7 8 18
M TOR 39 4 3 1 8
M TOR 40 4 3 7 6
M TOR 41 4 3 7 8
M TOR 42 4 3 7 17
M TOR 43 4 5 6 7
M TOR 44 4 5 8 7
M TOR 45 4 5 8 18
M TOR 46 5 4 3 7
M TOR 47 5 4 3 13
M TOR 48 5 6 7 8
M TOR 49 5 6 7 17
M TOR 50 5 8 7 17
M TOR 51 6 5 4 14
M TOR 52 6 5 4 15
M TOR 53 6 5 8 18
M TOR 54 6 7 3 13
M TOR 55 6 7 8 18
M TOR 56 7 3 4 14
M TOR 57 7 3 4 15
M TOR 58 7 6 5 16
M TOR 59 7 8 5 16
M TOR 60 8 1 0 9
M TOR 61 8 1 0 10
M TOR 62 8 1 0 11
M TOR 63 8 1 2 12
M TOR 64 8 1 3 13
M TOR 65 8 5 4 14
M TOR 66 8 5 4 15
M TOR 67 8 7 3 13
M  END
$$$$
