
     RDKit          3D

 19 21  0  0  0  0  0  0  0  0999 V2000
    0.6317    0.3751    0.7580 O   0  0  0  0  0  0  0  0  0  0  0  0
   -0.6486   -0.1670    1.0363 C   0  0  0  0  0  0  0  0  0  0  0  0
   -1.7592   -0.0154   -0.0164 C   0  0  0  0  0  0  0  0  0  0  0  0
   -1.8593    1.5258   -0.1973 C   0  0  0  0  0  0  0  0  0  0  0  0
   -2.3734    1.4921    1.2482 C   0  0  0  0  0  0  0  0  0  0  0  0
   -2.9967    0.0872    0.9905 C   0  0  0  0  0  0  0  0  0  0  0  0
   -2.5850   -0.3635    2.4066 C   0  0  0  0  0  0  0  0  0  0  0  0
   -1.4027    0.5938    2.1556 C   0  0  0  0  0  0  0  0  0  0  0  0
   -0.6205    1.0933    3.1796 O   0  0  0  0  0  0  0  0  0  0  0  0
    0.5254    1.1528    0.2004 H   0  0  0  0  0  0  0  0  0  0  0  0
   -0.4630   -1.2079    1.3159 H   0  0  0  0  0  0  0  0  0  0  0  0
   -1.7546   -0.6931   -0.8698 H   0  0  0  0  0  0  0  0  0  0  0  0
   -0.9668    2.1087   -0.4622 H   0  0  0  0  0  0  0  0  0  0  0  0
   -2.6540    1.7980   -0.8979 H   0  0  0  0  0  0  0  0  0  0  0  0
   -2.9029    2.3063    1.7406 H   0  0  0  0  0  0  0  0  0  0  0  0
   -3.9924   -0.0551    0.5760 H   0  0  0  0  0  0  0  0  0  0  0  0
   -3.2913    0.0234    3.1464 H   0  0  0  0  0  0  0  0  0  0  0  0
   -2.3602   -1.4139    2.6184 H   0  0  0  0  0  0  0  0  0  0  0  0
    0.2755    1.1610    2.8182 H   0  0  0  0  0  0  0  0  0  0  0  0
  1  2  1  0
  2  3  1  0
  3  4  1  0
  4  5  1  0
  5  6  1  0
  6  7  1  0
  7  8  1  0
  8  9  1  0
  8  2  1  0
  6  3  1  0
  8  5  1  0
  1 10  1  0
  2 11  1  0
  3 12  1  0
  4 13  1  0
  4 14  1  0
  5 15  1  0
  6 16  1  0
  7 17  1  0
  7 18  1  0
  9 19  1  0
M  END
$$$$
