
     RDKit          3D

 19 21  0  0  0  0  0  0  0  0999 V2000
   -0.2369   -0.2160   -0.0454 C   0  0  0  0  0  0  0  0  0  0  0  0
    1.2466   -0.1847   -0.3927 C   0  0  0  0  0  0  0  0  0  0  0  0
    1.6293    0.6562   -1.4506 O   0  0  0  0  0  0  0  0  0  0  0  0
    1.9119    1.9463   -0.8928 C   0  0  0  0  0  0  0  0  0  0  0  0
    0.9589    2.1199    0.3093 C   0  0  0  0  0  0  0  0  0  0  0  0
    1.5660    2.7098    1.6017 C   0  0  0  0  0  0  0  0  0  0  0  0
    1.9284    1.4533    2.4192 C   0  0  0  0  0  0  0  0  0  0  0  0
    0.9330    0.4869    2.0814 O   0  0  0  0  0  0  0  0  0  0  0  0
    0.6954    0.6615    0.7198 C   0  0  0  0  0  0  0  0  0  0  0  0
   -0.9417    0.2359   -0.7361 H   0  0  0  0  0  0  0  0  0  0  0  0
   -0.5862   -1.1105    0.4611 H   0  0  0  0  0  0  0  0  0  0  0  0
    1.8605   -1.0662   -0.2375 H   0  0  0  0  0  0  0  0  0  0  0  0
    2.9611    1.9912   -0.5584 H   0  0  0  0  0  0  0  0  0  0  0  0
    1.7705    2.6876   -1.6836 H   0  0  0  0  0  0  0  0  0  0  0  0
    0.0488    2.6469    0.0119 H   0  0  0  0  0  0  0  0  0  0  0  0
    2.4327    3.3506    1.4173 H   0  0  0  0  0  0  0  0  0  0  0  0
    0.8178    3.3013    2.1360 H   0  0  0  0  0  0  0  0  0  0  0  0
    2.9270    1.0822    2.1413 H   0  0  0  0  0  0  0  0  0  0  0  0
    1.8998    1.6012    3.5008 H   0  0  0  0  0  0  0  0  0  0  0  0
  1  2  1  0
  2  3  1  0
  3  4  1  0
  4  5  1  0
  5  6  1  0
  6  7  1  0
  7  8  1  0
  8  9  1  0
  9  1  1  0
  9  2  1  0
  9  5  1  0
  1 10  1  0
  1 11  1  0
  2 12  1  0
  4 13  1  0
  4 14  1  0
  5 15  1  0
  6 16  1  0
  6 17  1  0
  7 18  1  0
  7 19  1  0
M  END
$$$$
