gdb 3289	3.0356884	1.7257298	1.3464772	1.8117	73.91	-0.24109	0.07205	0.31314	995.7013	0.158465	-422.531659	-422.524286	-422.523341	-422.56342	28.873
 OpenBabel02181911413D

 19 21  0  0  1  0  0  0  0  0999 V2000
    3.5379   -1.2427   -0.5229 C   0  0  0  0  0  0  0  0  0  0  0  0
    2.5320   -0.3153    0.1504 C   0  0  2  0  0  0  0  0  0  0  0  0
    3.1557    1.0056    0.6618 C   0  0  1  0  0  0  0  0  0  0  0  0
    2.1549    2.0099    0.9481 O   0  0  0  0  0  0  0  0  0  0  0  0
    2.0261    1.5706    2.3245 C   0  0  1  0  0  0  0  0  0  0  0  0
    0.7281    0.8200    2.5878 C   0  0  0  0  0  0  0  0  0  0  0  0
    0.8960   -0.5013    2.0711 O   0  0  0  0  0  0  0  0  0  0  0  0
    2.2320   -0.7069    1.6411 C   0  0  2  0  0  0  0  0  0  0  0  0
    3.1007    0.4881    2.1238 C   0  0  1  0  0  0  0  0  0  0  0  0
    4.4401   -1.3670    0.0886 H   0  0  0  0  0  0  0  0  0  0  0  0
    3.1079   -2.2373   -0.6807 H   0  0  0  0  0  0  0  0  0  0  0  0
    3.8510   -0.8493   -1.4956 H   0  0  0  0  0  0  0  0  0  0  0  0
    1.6371   -0.1783   -0.4622 H   0  0  0  0  0  0  0  0  0  0  0  0
    4.0286    1.4221    0.1532 H   0  0  0  0  0  0  0  0  0  0  0  0
    2.2113    2.3906    3.0250 H   0  0  0  0  0  0  0  0  0  0  0  0
    0.5199    0.7700    3.6666 H   0  0  0  0  0  0  0  0  0  0  0  0
   -0.1177    1.3070    2.0892 H   0  0  0  0  0  0  0  0  0  0  0  0
    2.5353   -1.7196    1.9209 H   0  0  0  0  0  0  0  0  0  0  0  0
    3.9286    0.3608    2.8159 H   0  0  0  0  0  0  0  0  0  0  0  0
  1 10  1  0  0  0  0
  1  2  1  0  0  0  0
  2 13  1  6  0  0  0
  2  3  1  0  0  0  0
  2  8  1  0  0  0  0
  3 14  1  6  0  0  0
  3  4  1  0  0  0  0
  3  9  1  0  0  0  0
  4  5  1  0  0  0  0
  5  6  1  0  0  0  0
  5 15  1  1  0  0  0
  6 16  1  0  0  0  0
  7  6  1  0  0  0  0
  8 18  1  1  0  0  0
  8  7  1  0  0  0  0
  8  9  1  0  0  0  0
  9  5  1  0  0  0  0
  9 19  1  1  0  0  0
 11  1  1  0  0  0  0
 12  1  1  0  0  0  0
 17  6  1  0  0  0  0
M TOR 0 0 1 2 3
M TOR 1 0 1 2 8
M TOR 2 0 1 2 13
M TOR 3 0 1 7 6
M TOR 4 0 1 7 8
M TOR 5 0 1 7 17
M TOR 6 1 2 3 4
M TOR 7 1 2 8 4
M TOR 8 1 2 8 7
M TOR 9 1 2 8 18
M TOR 10 1 7 6 5
M TOR 11 1 7 8 4
M TOR 12 1 7 8 18
M TOR 13 2 1 0 9
M TOR 14 2 1 0 10
M TOR 15 2 1 0 11
M TOR 16 2 1 7 6
M TOR 17 2 1 7 17
M TOR 18 2 3 4 5
M TOR 19 2 3 4 8
M TOR 20 2 3 4 14
M TOR 21 2 8 4 5
M TOR 22 2 8 4 14
M TOR 23 2 8 7 6
M TOR 24 2 8 7 17
M TOR 25 3 2 1 7
M TOR 26 3 2 1 12
M TOR 27 3 2 8 7
M TOR 28 3 2 8 18
M TOR 29 3 4 5 6
M TOR 30 3 4 5 15
M TOR 31 3 4 5 16
M TOR 32 3 4 8 7
M TOR 33 3 4 8 18
M TOR 34 4 3 2 13
M TOR 35 4 5 6 7
M TOR 36 4 8 2 13
M TOR 37 4 8 7 6
M TOR 38 4 8 7 17
M TOR 39 5 4 8 7
M TOR 40 5 4 8 18
M TOR 41 5 6 7 8
M TOR 42 5 6 7 17
M TOR 43 6 5 4 8
M TOR 44 6 5 4 14
M TOR 45 6 7 1 12
M TOR 46 6 7 8 18
M TOR 47 7 1 0 9
M TOR 48 7 1 0 10
M TOR 49 7 1 0 11
M TOR 50 7 1 2 13
M TOR 51 7 6 5 15
M TOR 52 7 6 5 16
M TOR 53 7 8 2 13
M TOR 54 7 8 4 14
M TOR 55 8 2 1 12
M TOR 56 8 4 5 15
M TOR 57 8 4 5 16
M TOR 58 8 7 1 12
M  END
$$$$
