gdb 5048	2.3963478	1.5956043	1.1845585	1.1072	75.43	-0.22548	0.0663	0.29178000000000004	1114.795	0.154255	-422.46154	-422.452612	-422.451668	-422.494943	33.414
 OpenBabel02181911413D

 19 21  0  0  1  0  0  0  0  0999 V2000
    1.6173    0.1507    0.0553 C   0  0  0  0  0  0  0  0  0  0  0  0
    0.2217   -0.1121    0.1031 O   0  0  0  0  0  0  0  0  0  0  0  0
   -0.4260    0.5612    1.1103 C   0  0  1  0  0  0  0  0  0  0  0  0
   -0.7846    2.0260    1.0664 C   0  0  0  0  0  0  0  0  0  0  0  0
   -1.8808    0.9764    1.1528 C   0  0  1  0  0  0  0  0  0  0  0  0
   -2.9771    0.7968    0.1453 C   0  0  0  0  0  0  0  0  0  0  0  0
   -1.9552    0.4001    2.6115 C   0  0  2  0  0  0  0  0  0  0  0  0
   -0.9751    1.0291    3.4545 O   0  0  0  0  0  0  0  0  0  0  0  0
   -0.5601   -0.0176    2.5667 C   0  0  2  0  0  0  0  0  0  0  0  0
    2.1175   -0.1478    0.9871 H   0  0  0  0  0  0  0  0  0  0  0  0
    2.0231   -0.4370   -0.7709 H   0  0  0  0  0  0  0  0  0  0  0  0
    1.8162    1.2161   -0.1215 H   0  0  0  0  0  0  0  0  0  0  0  0
   -0.5734    2.6931    1.8929 H   0  0  0  0  0  0  0  0  0  0  0  0
   -0.6893    2.4588    0.0745 H   0  0  0  0  0  0  0  0  0  0  0  0
   -3.3729   -0.2253    0.1635 H   0  0  0  0  0  0  0  0  0  0  0  0
   -3.8119    1.4819    0.3355 H   0  0  0  0  0  0  0  0  0  0  0  0
   -2.6078    0.9887   -0.8664 H   0  0  0  0  0  0  0  0  0  0  0  0
   -2.8234   -0.0380    3.0902 H   0  0  0  0  0  0  0  0  0  0  0  0
   -0.0487   -0.8784    2.9812 H   0  0  0  0  0  0  0  0  0  0  0  0
  1  2  1  0  0  0  0
  1 10  1  0  0  0  0
  3  2  1  6  0  0  0
  3  5  1  0  0  0  0
  3  9  1  0  0  0  0
  4  3  1  0  0  0  0
  4  5  1  0  0  0  0
  4 13  1  0  0  0  0
  5  6  1  6  0  0  0
  5  7  1  0  0  0  0
  6 15  1  0  0  0  0
  6 16  1  0  0  0  0
  7 18  1  1  0  0  0
  7  8  1  0  0  0  0
  9  7  1  0  0  0  0
  9 19  1  1  0  0  0
  9  8  1  0  0  0  0
 11  1  1  0  0  0  0
 12  1  1  0  0  0  0
 14  4  1  0  0  0  0
 17  6  1  0  0  0  0
M TOR 0 0 1 2 3
M TOR 1 0 1 2 4
M TOR 2 0 1 2 8
M TOR 3 1 2 3 4
M TOR 4 1 2 3 12
M TOR 5 1 2 3 13
M TOR 6 1 2 4 5
M TOR 7 1 2 4 6
M TOR 8 1 2 8 6
M TOR 9 1 2 8 7
M TOR 10 1 2 8 18
M TOR 11 2 1 0 9
M TOR 12 2 1 0 10
M TOR 13 2 1 0 11
M TOR 14 2 3 4 5
M TOR 15 2 3 4 6
M TOR 16 2 4 3 12
M TOR 17 2 4 3 13
M TOR 18 2 4 5 14
M TOR 19 2 4 5 15
M TOR 20 2 4 5 16
M TOR 21 2 4 6 7
M TOR 22 2 4 6 8
M TOR 23 2 4 6 17
M TOR 24 2 8 6 7
M TOR 25 2 8 6 17
M TOR 26 3 2 8 6
M TOR 27 3 2 8 7
M TOR 28 3 2 8 18
M TOR 29 3 4 2 8
M TOR 30 3 4 5 14
M TOR 31 3 4 5 15
M TOR 32 3 4 5 16
M TOR 33 3 4 6 7
M TOR 34 3 4 6 8
M TOR 35 3 4 6 17
M TOR 36 4 2 8 7
M TOR 37 4 2 8 18
M TOR 38 4 6 7 8
M TOR 39 4 6 8 18
M TOR 40 5 4 2 8
M TOR 41 5 4 3 12
M TOR 42 5 4 3 13
M TOR 43 5 4 6 7
M TOR 44 5 4 6 8
M TOR 45 5 4 6 17
M TOR 46 6 4 3 12
M TOR 47 6 4 3 13
M TOR 48 6 4 5 14
M TOR 49 6 4 5 15
M TOR 50 6 4 5 16
M TOR 51 6 7 8 18
M TOR 52 7 8 6 17
M TOR 53 8 2 3 12
M TOR 54 8 2 3 13
M  END
$$$$
