
     RDKit          3D

 19 20  0  0  0  0  0  0  0  0999 V2000
    1.9218   -0.2650    1.2783 C   0  0  0  0  0  0  0  0  0  0  0  0
    1.6660    0.3612   -0.0974 C   0  0  0  0  0  0  0  0  0  0  0  0
    2.0897   -0.5582   -1.2372 C   0  0  0  0  0  0  0  0  0  0  0  0
    1.9256   -0.1159   -2.7442 C   0  0  0  0  0  0  0  0  0  0  0  0
    2.7897    1.1537   -2.7764 C   0  0  0  0  0  0  0  0  0  0  0  0
    3.9222    0.7352   -1.9633 O   0  0  0  0  0  0  0  0  0  0  0  0
    3.5993   -0.6277   -1.6411 C   0  0  0  0  0  0  0  0  0  0  0  0
    3.0470   -1.1569   -2.9833 C   0  0  0  0  0  0  0  0  0  0  0  0
    3.2665   -2.0410   -3.7525 O   0  0  0  0  0  0  0  0  0  0  0  0
    1.3778   -1.2087    1.3944 H   0  0  0  0  0  0  0  0  0  0  0  0
    2.9864   -0.4740    1.4268 H   0  0  0  0  0  0  0  0  0  0  0  0
    1.6000    0.4062    2.0801 H   0  0  0  0  0  0  0  0  0  0  0  0
    0.5989    0.5928   -0.2040 H   0  0  0  0  0  0  0  0  0  0  0  0
    2.2068    1.3091   -0.1703 H   0  0  0  0  0  0  0  0  0  0  0  0
    1.6815   -1.5656   -1.0999 H   0  0  0  0  0  0  0  0  0  0  0  0
    0.9777   -0.1223   -3.2768 H   0  0  0  0  0  0  0  0  0  0  0  0
    3.1280    1.4133   -3.7858 H   0  0  0  0  0  0  0  0  0  0  0  0
    2.3141    2.0301   -2.3241 H   0  0  0  0  0  0  0  0  0  0  0  0
    4.3908   -1.0834   -1.0525 H   0  0  0  0  0  0  0  0  0  0  0  0
  1  2  1  0
  2  3  1  0
  3  4  1  0
  4  5  1  0
  5  6  1  0
  6  7  1  0
  7  8  1  0
  8  9  2  0
  7  3  1  0
  8  4  1  0
  1 10  1  0
  1 11  1  0
  1 12  1  0
  2 13  1  0
  2 14  1  0
  3 15  1  0
  4 16  1  0
  5 17  1  0
  5 18  1  0
  7 19  1  0
M  END
$$$$
