
     RDKit          3D

 19 21  0  0  0  0  0  0  0  0999 V2000
    4.6244   -0.9480   -1.0972 O   0  0  0  0  0  0  0  0  0  0  0  0
    3.2866   -0.5715   -0.9114 C   0  0  0  0  0  0  0  0  0  0  0  0
    2.3305   -1.6395   -1.3508 C   0  0  0  0  0  0  0  0  0  0  0  0
    2.6877   -3.0601   -1.2633 C   0  0  0  0  0  0  0  0  0  0  0  0
    2.7664   -2.3627   -2.5169 O   0  0  0  0  0  0  0  0  0  0  0  0
    3.0425    0.9118   -1.1040 C   0  0  0  0  0  0  0  0  0  0  0  0
    1.5815    1.3023   -0.8603 C   0  0  0  0  0  0  0  0  0  0  0  0
    1.6608    0.6582    0.5659 C   0  0  0  0  0  0  0  0  0  0  0  0
    3.1249    0.2862    0.3046 C   0  0  0  0  0  0  0  0  0  0  0  0
    4.6699   -1.2978   -1.9977 H   0  0  0  0  0  0  0  0  0  0  0  0
    1.2754   -1.3772   -1.3660 H   0  0  0  0  0  0  0  0  0  0  0  0
    3.6458   -3.3365   -0.8307 H   0  0  0  0  0  0  0  0  0  0  0  0
    1.9017   -3.8106   -1.2036 H   0  0  0  0  0  0  0  0  0  0  0  0
    3.7884    1.4990   -1.6253 H   0  0  0  0  0  0  0  0  0  0  0  0
    1.4419    2.3842   -0.8082 H   0  0  0  0  0  0  0  0  0  0  0  0
    0.8387    0.8995   -1.5566 H   0  0  0  0  0  0  0  0  0  0  0  0
    1.5580    1.4052    1.3553 H   0  0  0  0  0  0  0  0  0  0  0  0
    0.9746   -0.1659    0.7862 H   0  0  0  0  0  0  0  0  0  0  0  0
    3.9348    0.3310    1.0227 H   0  0  0  0  0  0  0  0  0  0  0  0
  1  2  1  0
  2  3  1  0
  3  4  1  0
  4  5  1  0
  2  6  1  0
  6  7  1  0
  7  8  1  0
  8  9  1  0
  9  2  1  0
  5  3  1  0
  9  6  1  0
  1 10  1  0
  3 11  1  0
  4 12  1  0
  4 13  1  0
  6 14  1  0
  7 15  1  0
  7 16  1  0
  8 17  1  0
  8 18  1  0
  9 19  1  0
M  END
$$$$
