gdb 706	2.8220035	1.5890737	1.2422593	4.2727	74.96	-0.25843	0.00941	0.26783999999999997	1044.6226	0.159028	-422.57875	-422.57101	-422.570066	-422.611694	29.567
 OpenBabel02181911403D

 19 20  0  0  1  0  0  0  0  0999 V2000
    0.2305    1.0878    3.7540 O   0  0  0  0  0  0  0  0  0  0  0  0
    0.3362    1.1981    2.5626 C   0  0  0  0  0  0  0  0  0  0  0  0
   -0.3652    0.1984    1.6370 C   0  0  0  0  0  0  0  0  0  0  0  0
   -0.0593    0.1614    0.1456 C   0  0  2  0  0  0  0  0  0  0  0  0
    1.4618    0.1192   -0.1610 C   0  0  0  0  0  0  0  0  0  0  0  0
    1.4125    1.6614   -0.3308 C   0  0  1  0  0  0  0  0  0  0  0  0
   -0.1204    1.5496   -0.5528 C   0  0  0  0  0  0  0  0  0  0  0  0
    1.7894    2.4403    0.9181 C   0  0  0  0  0  0  0  0  0  0  0  0
    0.9468    2.3118    2.0737 O   0  0  0  0  0  0  0  0  0  0  0  0
   -0.1871   -0.7846    2.0850 H   0  0  0  0  0  0  0  0  0  0  0  0
   -1.4337    0.4018    1.7886 H   0  0  0  0  0  0  0  0  0  0  0  0
   -0.6635   -0.6277   -0.3097 H   0  0  0  0  0  0  0  0  0  0  0  0
    2.1219   -0.2866    0.6131 H   0  0  0  0  0  0  0  0  0  0  0  0
    1.6803   -0.3858   -1.1051 H   0  0  0  0  0  0  0  0  0  0  0  0
    2.0035    2.0723   -1.1554 H   0  0  0  0  0  0  0  0  0  0  0  0
   -0.7527    2.3170   -0.0982 H   0  0  0  0  0  0  0  0  0  0  0  0
   -0.3723    1.4618   -1.6122 H   0  0  0  0  0  0  0  0  0  0  0  0
    2.8130    2.1842    1.2234 H   0  0  0  0  0  0  0  0  0  0  0  0
    1.7656    3.5132    0.7044 H   0  0  0  0  0  0  0  0  0  0  0  0
  2  1  2  0  0  0  0
  3 11  1  0  0  0  0
  3 10  1  0  0  0  0
  3  2  1  0  0  0  0
  4 12  1  6  0  0  0
  4  3  1  0  0  0  0
  5  4  1  0  0  0  0
  5 13  1  0  0  0  0
  6 15  1  6  0  0  0
  6  5  1  0  0  0  0
  6  8  1  0  0  0  0
  7  6  1  0  0  0  0
  7 16  1  0  0  0  0
  7  4  1  0  0  0  0
  8 18  1  0  0  0  0
  8  9  1  0  0  0  0
  9  2  1  0  0  0  0
 14  5  1  0  0  0  0
 17  7  1  0  0  0  0
 19  8  1  0  0  0  0
M TOR 0 0 1 2 3
M TOR 1 0 1 2 9
M TOR 2 0 1 2 10
M TOR 3 0 1 8 7
M TOR 4 1 2 3 4
M TOR 5 1 2 3 6
M TOR 6 1 2 3 11
M TOR 7 1 8 7 5
M TOR 8 1 8 7 17
M TOR 9 1 8 7 18
M TOR 10 2 1 8 7
M TOR 11 2 3 4 5
M TOR 12 2 3 4 12
M TOR 13 2 3 4 13
M TOR 14 2 3 6 5
M TOR 15 2 3 6 15
M TOR 16 2 3 6 16
M TOR 17 3 2 1 8
M TOR 18 3 4 5 6
M TOR 19 3 4 5 7
M TOR 20 3 4 5 14
M TOR 21 3 6 5 7
M TOR 22 3 6 5 14
M TOR 23 4 3 2 9
M TOR 24 4 3 2 10
M TOR 25 4 3 6 15
M TOR 26 4 3 6 16
M TOR 27 4 5 6 15
M TOR 28 4 5 6 16
M TOR 29 4 5 7 8
M TOR 30 4 5 7 17
M TOR 31 4 5 7 18
M TOR 32 5 4 3 11
M TOR 33 5 6 3 11
M TOR 34 6 3 2 9
M TOR 35 6 3 2 10
M TOR 36 6 3 4 12
M TOR 37 6 3 4 13
M TOR 38 6 5 4 12
M TOR 39 6 5 4 13
M TOR 40 6 5 7 8
M TOR 41 6 5 7 17
M TOR 42 6 5 7 18
M TOR 43 7 5 4 12
M TOR 44 7 5 4 13
M TOR 45 7 5 6 15
M TOR 46 7 5 6 16
M TOR 47 8 1 2 9
M TOR 48 8 1 2 10
M TOR 49 8 7 5 14
M  END
$$$$
