gdb 2886	2.222201	1.7216391	1.5586787	1.7359	75.44	-0.25112	0.06592	0.31704	1000.3114	0.155543	-422.499558	-422.490929	-422.489985	-422.531958	33.672
 OpenBabel02181911413D

 19 21  0  0  1  0  0  0  0  0999 V2000
    0.8257    0.8912   -0.1186 C   0  0  0  0  0  0  0  0  0  0  0  0
    0.8419   -0.6304   -0.0694 C   0  0  2  0  0  0  0  0  0  0  0  0
    1.6345   -1.3678    1.0399 C   0  0  1  0  0  0  0  0  0  0  0  0
    1.8301   -2.6441    0.1536 C   0  0  2  0  0  0  0  0  0  0  0  0
    3.3528   -2.7062    0.4001 C   0  0  0  0  0  0  0  0  0  0  0  0
    3.0204   -1.2037    0.3067 C   0  0  2  0  0  0  0  0  0  0  0  0
    3.8857   -0.1211    0.3151 O   0  0  0  0  0  0  0  0  0  0  0  0
    1.9450   -1.4267   -0.8129 C   0  0  2  0  0  0  0  0  0  0  0  0
    2.1784   -1.5559   -2.1689 O   0  0  0  0  0  0  0  0  0  0  0  0
    0.1528    1.3007    0.6432 H   0  0  0  0  0  0  0  0  0  0  0  0
    1.8226    1.3069    0.0486 H   0  0  0  0  0  0  0  0  0  0  0  0
    0.4648    1.2447   -1.0916 H   0  0  0  0  0  0  0  0  0  0  0  0
   -0.1637   -1.0404   -0.2282 H   0  0  0  0  0  0  0  0  0  0  0  0
    1.4713   -1.3700    2.1164 H   0  0  0  0  0  0  0  0  0  0  0  0
    1.1138   -3.4570    0.0627 H   0  0  0  0  0  0  0  0  0  0  0  0
    3.6767   -3.0858    1.3750 H   0  0  0  0  0  0  0  0  0  0  0  0
    3.9611   -3.1220   -0.4075 H   0  0  0  0  0  0  0  0  0  0  0  0
    4.3793   -0.1280    1.1425 H   0  0  0  0  0  0  0  0  0  0  0  0
    2.5775   -0.7371   -2.4839 H   0  0  0  0  0  0  0  0  0  0  0  0
  1  2  1  0  0  0  0
  1 11  1  0  0  0  0
  1 10  1  0  0  0  0
  2 13  1  6  0  0  0
  2  3  1  0  0  0  0
  3 14  1  1  0  0  0
  4 15  1  6  0  0  0
  4  5  1  0  0  0  0
  4  3  1  0  0  0  0
  5 16  1  0  0  0  0
  6  7  1  1  0  0  0
  6  5  1  0  0  0  0
  6  3  1  0  0  0  0
  7 18  1  0  0  0  0
  8  9  1  6  0  0  0
  8  2  1  0  0  0  0
  8  4  1  0  0  0  0
  8  6  1  0  0  0  0
 12  1  1  0  0  0  0
 17  5  1  0  0  0  0
 19  9  1  0  0  0  0
M TOR 0 0 1 2 3
M TOR 1 0 1 2 5
M TOR 2 0 1 2 13
M TOR 3 0 1 7 3
M TOR 4 0 1 7 5
M TOR 5 0 1 7 8
M TOR 6 1 2 3 4
M TOR 7 1 2 3 7
M TOR 8 1 2 3 14
M TOR 9 1 2 5 4
M TOR 10 1 2 5 6
M TOR 11 1 2 5 7
M TOR 12 1 7 3 4
M TOR 13 1 7 3 14
M TOR 14 1 7 5 4
M TOR 15 1 7 5 6
M TOR 16 1 7 8 18
M TOR 17 2 1 0 9
M TOR 18 2 1 0 10
M TOR 19 2 1 0 11
M TOR 20 2 1 7 8
M TOR 21 2 3 4 5
M TOR 22 2 3 4 15
M TOR 23 2 3 4 16
M TOR 24 2 3 7 5
M TOR 25 2 3 7 8
M TOR 26 2 5 4 15
M TOR 27 2 5 4 16
M TOR 28 2 5 6 17
M TOR 29 2 5 7 8
M TOR 30 3 2 1 12
M TOR 31 3 2 5 6
M TOR 32 3 4 5 6
M TOR 33 3 4 5 7
M TOR 34 3 7 1 12
M TOR 35 3 7 5 6
M TOR 36 3 7 8 18
M TOR 37 4 3 2 13
M TOR 38 4 3 7 8
M TOR 39 4 5 2 13
M TOR 40 4 5 6 17
M TOR 41 4 5 7 8
M TOR 42 5 2 1 12
M TOR 43 5 2 3 14
M TOR 44 5 4 3 14
M TOR 45 5 7 1 12
M TOR 46 5 7 3 14
M TOR 47 5 7 8 18
M TOR 48 6 5 2 13
M TOR 49 6 5 4 15
M TOR 50 6 5 4 16
M TOR 51 6 5 7 8
M TOR 52 7 1 0 9
M TOR 53 7 1 0 10
M TOR 54 7 1 0 11
M TOR 55 7 1 2 13
M TOR 56 7 3 2 13
M TOR 57 7 3 4 15
M TOR 58 7 3 4 16
M TOR 59 7 5 2 13
M TOR 60 7 5 4 15
M TOR 61 7 5 4 16
M TOR 62 7 5 6 17
M TOR 63 8 7 1 12
M TOR 64 8 7 3 14
M  END
$$$$
