gdb 5355	3.060414	1.2775686	1.0203092	2.2237	76.83	-0.24363	-0.00864	0.23499	1205.1895	0.156605	-422.54802	-422.539298	-422.538353	-422.581523	32.781
 OpenBabel02181911423D

 19 20  0  0  1  0  0  0  0  0999 V2000
    1.5750   -0.8712    0.6614 C   0  0  0  0  0  0  0  0  0  0  0  0
    1.0436    0.1918   -0.3187 C   0  0  0  0  0  0  0  0  0  0  0  0
    1.6921    1.5389   -0.1781 C   0  0  0  0  0  0  0  0  0  0  0  0
    1.1076    2.6786    0.2205 C   0  0  0  0  0  0  0  0  0  0  0  0
    2.0369    3.8376    0.0981 C   0  0  2  0  0  0  0  0  0  0  0  0
    2.4743    4.0699   -1.2670 O   0  0  0  0  0  0  0  0  0  0  0  0
    3.3096    3.3017   -0.4076 C   0  0  2  0  0  0  0  0  0  0  0  0
    3.1540    1.7867   -0.5518 C   0  0  1  0  0  0  0  0  0  0  0  0
    4.0878    1.0825    0.2626 O   0  0  0  0  0  0  0  0  0  0  0  0
    1.0688   -1.8278    0.4996 H   0  0  0  0  0  0  0  0  0  0  0  0
    2.6494   -1.0198    0.5350 H   0  0  0  0  0  0  0  0  0  0  0  0
    1.3948   -0.5670    1.6981 H   0  0  0  0  0  0  0  0  0  0  0  0
    1.1972   -0.1678   -1.3454 H   0  0  0  0  0  0  0  0  0  0  0  0
   -0.0389    0.3016   -0.1886 H   0  0  0  0  0  0  0  0  0  0  0  0
    0.0715    2.7757    0.5246 H   0  0  0  0  0  0  0  0  0  0  0  0
    1.9478    4.7318    0.7067 H   0  0  0  0  0  0  0  0  0  0  0  0
    4.2900    3.7113   -0.1763 H   0  0  0  0  0  0  0  0  0  0  0  0
    3.3638    1.4638   -1.5776 H   0  0  0  0  0  0  0  0  0  0  0  0
    3.8524    1.2533    1.1817 H   0  0  0  0  0  0  0  0  0  0  0  0
  1 12  1  0  0  0  0
  2 14  1  0  0  0  0
  2  3  1  0  0  0  0
  2  1  1  0  0  0  0
  3  4  2  0  0  0  0
  4 15  1  0  0  0  0
  5  4  1  0  0  0  0
  5 16  1  1  0  0  0
  6  7  1  0  0  0  0
  6  5  1  0  0  0  0
  7 17  1  1  0  0  0
  7  5  1  0  0  0  0
  8 18  1  6  0  0  0
  8  7  1  0  0  0  0
  8  3  1  0  0  0  0
  8  9  1  0  0  0  0
  9 19  1  0  0  0  0
 10  1  1  0  0  0  0
 11  1  1  0  0  0  0
 13  2  1  0  0  0  0
M TOR 0 0 1 2 3
M TOR 1 0 1 2 7
M TOR 2 1 2 3 4
M TOR 3 1 2 3 14
M TOR 4 1 2 7 6
M TOR 5 1 2 7 8
M TOR 6 1 2 7 17
M TOR 7 2 1 0 9
M TOR 8 2 1 0 10
M TOR 9 2 1 0 11
M TOR 10 2 3 4 5
M TOR 11 2 3 4 6
M TOR 12 2 3 4 15
M TOR 13 2 7 6 4
M TOR 14 2 7 6 5
M TOR 15 2 7 6 16
M TOR 16 2 7 8 18
M TOR 17 3 2 1 12
M TOR 18 3 2 1 13
M TOR 19 3 2 7 6
M TOR 20 3 2 7 8
M TOR 21 3 2 7 17
M TOR 22 3 4 5 6
M TOR 23 3 4 6 7
M TOR 24 3 4 6 16
M TOR 25 4 3 2 7
M TOR 26 4 5 6 7
M TOR 27 4 5 6 16
M TOR 28 4 6 7 8
M TOR 29 4 6 7 17
M TOR 30 5 4 3 14
M TOR 31 5 6 4 15
M TOR 32 5 6 7 8
M TOR 33 5 6 7 17
M TOR 34 6 4 3 14
M TOR 35 6 7 8 18
M TOR 36 7 2 1 12
M TOR 37 7 2 1 13
M TOR 38 7 2 3 14
M TOR 39 7 6 4 15
M TOR 40 8 7 6 16
M  END
$$$$
