
     RDKit          3D

 19 21  0  0  0  0  0  0  0  0999 V2000
    0.7299    1.2327    0.2820 C   0  0  0  0  0  0  0  0  0  0  0  0
    0.7626    1.0622    1.8283 C   0  0  0  0  0  0  0  0  0  0  0  0
    1.8002   -0.0846    1.6661 C   0  0  0  0  0  0  0  0  0  0  0  0
    1.9885    0.3188    0.1790 C   0  0  0  0  0  0  0  0  0  0  0  0
    1.9427   -0.8405   -0.6407 O   0  0  0  0  0  0  0  0  0  0  0  0
    1.4507   -1.9449    0.0881 C   0  0  0  0  0  0  0  0  0  0  0  0
   -0.0763   -2.1536    0.0739 C   0  0  0  0  0  0  0  0  0  0  0  0
   -0.2048   -1.5835    1.3974 O   0  0  0  0  0  0  0  0  0  0  0  0
    1.2330   -1.5032    1.5597 C   0  0  0  0  0  0  0  0  0  0  0  0
   -0.1482    0.7750   -0.1765 H   0  0  0  0  0  0  0  0  0  0  0  0
    0.8411    2.2476   -0.1066 H   0  0  0  0  0  0  0  0  0  0  0  0
    1.1878    1.9257    2.3444 H   0  0  0  0  0  0  0  0  0  0  0  0
   -0.1786    0.7847    2.3027 H   0  0  0  0  0  0  0  0  0  0  0  0
    2.6796   -0.0647    2.3132 H   0  0  0  0  0  0  0  0  0  0  0  0
    2.9034    0.8631   -0.0689 H   0  0  0  0  0  0  0  0  0  0  0  0
    2.0667   -2.8190   -0.1346 H   0  0  0  0  0  0  0  0  0  0  0  0
   -0.6245   -1.5896   -0.6877 H   0  0  0  0  0  0  0  0  0  0  0  0
   -0.3932   -3.2041    0.0581 H   0  0  0  0  0  0  0  0  0  0  0  0
    1.5768   -2.1743    2.3530 H   0  0  0  0  0  0  0  0  0  0  0  0
  1  2  1  0
  2  3  1  0
  3  4  1  0
  4  5  1  0
  5  6  1  0
  6  7  1  0
  7  8  1  0
  8  9  1  0
  4  1  1  0
  9  6  1  0
  9  3  1  0
  1 10  1  0
  1 11  1  0
  2 12  1  0
  2 13  1  0
  3 14  1  0
  4 15  1  0
  6 16  1  0
  7 17  1  0
  7 18  1  0
  9 19  1  0
M  END
$$$$
