gdb 21	3.7404996	0.9382252	0.9090222	1.3308	78.02	-0.22146	0.0214	0.24286	1376.5034	0.156096	-422.566624	-422.557365	-422.556421	-422.601709	33.026
 OpenBabel02181911403D

 19 19  0  0  1  0  0  0  0  0999 V2000
    1.4429   -0.1822    0.0116 C   0  0  0  0  0  0  0  0  0  0  0  0
    0.0623    0.0932    0.0054 O   0  0  0  0  0  0  0  0  0  0  0  0
   -0.4024    0.8475    1.1221 C   0  0  1  0  0  0  0  0  0  0  0  0
    0.0023    2.3260    1.0194 C   0  0  0  0  0  0  0  0  0  0  0  0
   -1.8920    0.6795    1.1692 C   0  0  0  0  0  0  0  0  0  0  0  0
   -2.6509    0.3355    2.2429 C   0  0  0  0  0  0  0  0  0  0  0  0
   -3.9707    0.3075    1.9169 O   0  0  0  0  0  0  0  0  0  0  0  0
   -4.0535    0.6345    0.5992 C   0  0  0  0  0  0  0  0  0  0  0  0
   -2.8207    0.8752    0.0879 C   0  0  0  0  0  0  0  0  0  0  0  0
    1.7533   -0.6810    0.9438 H   0  0  0  0  0  0  0  0  0  0  0  0
    1.6378   -0.8560   -0.8266 H   0  0  0  0  0  0  0  0  0  0  0  0
    2.0613    0.7182   -0.1176 H   0  0  0  0  0  0  0  0  0  0  0  0
    0.0291    0.4272    2.0461 H   0  0  0  0  0  0  0  0  0  0  0  0
   -0.3902    2.8830    1.8751 H   0  0  0  0  0  0  0  0  0  0  0  0
    1.0897    2.4448    1.0088 H   0  0  0  0  0  0  0  0  0  0  0  0
   -0.4051    2.7662    0.1045 H   0  0  0  0  0  0  0  0  0  0  0  0
   -2.4141    0.0915    3.2657 H   0  0  0  0  0  0  0  0  0  0  0  0
   -5.0473    0.6448    0.1830 H   0  0  0  0  0  0  0  0  0  0  0  0
   -2.5809    1.1375   -0.9301 H   0  0  0  0  0  0  0  0  0  0  0  0
  1 10  1  0  0  0  0
  2  1  1  0  0  0  0
  2  3  1  0  0  0  0
  3  5  1  0  0  0  0
  3 13  1  1  0  0  0
  4  3  1  0  0  0  0
  4 14  1  0  0  0  0
  5  6  2  0  0  0  0
  6 17  1  0  0  0  0
  7  6  1  0  0  0  0
  8  7  1  0  0  0  0
  9  8  2  0  0  0  0
  9  5  1  0  0  0  0
 11  1  1  0  0  0  0
 12  1  1  0  0  0  0
 15  4  1  0  0  0  0
 16  4  1  0  0  0  0
 18  8  1  0  0  0  0
 19  9  1  0  0  0  0
M TOR 0 0 1 2 3
M TOR 1 0 1 2 4
M TOR 2 0 1 2 12
M TOR 3 1 2 3 13
M TOR 4 1 2 3 14
M TOR 5 1 2 3 15
M TOR 6 1 2 4 5
M TOR 7 1 2 4 8
M TOR 8 2 1 0 9
M TOR 9 2 1 0 10
M TOR 10 2 1 0 11
M TOR 11 2 4 5 6
M TOR 12 2 4 5 16
M TOR 13 2 4 8 7
M TOR 14 2 4 8 18
M TOR 15 3 2 4 5
M TOR 16 3 2 4 8
M TOR 17 4 2 3 13
M TOR 18 4 2 3 14
M TOR 19 4 2 3 15
M TOR 20 4 5 6 7
M TOR 21 4 8 7 6
M TOR 22 4 8 7 17
M TOR 23 5 4 2 12
M TOR 24 5 4 8 7
M TOR 25 5 4 8 18
M TOR 26 5 6 7 8
M TOR 27 5 6 7 17
M TOR 28 6 5 4 8
M TOR 29 6 7 8 18
M TOR 30 7 6 5 16
M TOR 31 8 4 2 12
M TOR 32 8 4 5 16
M  END
$$$$
