
     RDKit          3D

 19 21  0  0  0  0  0  0  0  0999 V2000
    0.6749   -2.0425    3.8534 C   0  0  0  0  0  0  0  0  0  0  0  0
    1.3313   -0.7001    3.4793 C   0  0  0  0  0  0  0  0  0  0  0  0
    1.2325   -1.2233    2.0253 C   0  0  0  0  0  0  0  0  0  0  0  0
    0.4783   -2.3820    2.4649 O   0  0  0  0  0  0  0  0  0  0  0  0
    0.4937   -0.4010    1.0133 C   0  0  0  0  0  0  0  0  0  0  0  0
    1.3459    0.4726    0.1040 C   0  0  0  0  0  0  0  0  0  0  0  0
    0.4338    1.2220   -0.8607 C   0  0  0  0  0  0  0  0  0  0  0  0
   -0.2274   -0.0113   -1.2570 O   0  0  0  0  0  0  0  0  0  0  0  0
    0.6648   -0.7629   -0.4329 C   0  0  0  0  0  0  0  0  0  0  0  0
    1.3397   -2.7557    4.3583 H   0  0  0  0  0  0  0  0  0  0  0  0
   -0.2727   -1.9947    4.4018 H   0  0  0  0  0  0  0  0  0  0  0  0
    0.7075    0.1754    3.6705 H   0  0  0  0  0  0  0  0  0  0  0  0
    2.3358   -0.5188    3.8640 H   0  0  0  0  0  0  0  0  0  0  0  0
    2.2060   -1.5339    1.6144 H   0  0  0  0  0  0  0  0  0  0  0  0
   -0.4840   -0.0417    1.3310 H   0  0  0  0  0  0  0  0  0  0  0  0
    2.3896    0.6848    0.2935 H   0  0  0  0  0  0  0  0  0  0  0  0
   -0.2651    1.9554   -0.4411 H   0  0  0  0  0  0  0  0  0  0  0  0
    0.9653    1.6602   -1.7130 H   0  0  0  0  0  0  0  0  0  0  0  0
    1.0278   -1.7153   -0.8017 H   0  0  0  0  0  0  0  0  0  0  0  0
  1  2  1  0
  2  3  1  0
  3  4  1  0
  3  5  1  0
  5  6  1  0
  6  7  1  0
  7  8  1  0
  8  9  1  0
  4  1  1  0
  9  5  1  0
  9  6  1  0
  1 10  1  0
  1 11  1  0
  2 12  1  0
  2 13  1  0
  3 14  1  0
  5 15  1  0
  6 16  1  0
  7 17  1  0
  7 18  1  0
  9 19  1  0
M  END
$$$$
