
     RDKit          3D

 19 21  0  0  0  0  0  0  0  0999 V2000
   -0.1962    0.0684    0.6549 C   0  0  0  0  0  0  0  0  0  0  0  0
    1.1536    0.5709    1.1741 C   0  0  0  0  0  0  0  0  0  0  0  0
    1.0167    1.2213    2.5534 C   0  0  0  0  0  0  0  0  0  0  0  0
    1.9084    1.4420    0.1629 C   0  0  0  0  0  0  0  0  0  0  0  0
    2.6566    0.4469   -0.7157 C   0  0  0  0  0  0  0  0  0  0  0  0
    2.3752   -0.8578   -0.2383 O   0  0  0  0  0  0  0  0  0  0  0  0
    2.2536   -0.5356    1.1432 C   0  0  0  0  0  0  0  0  0  0  0  0
    3.4536    0.1670    1.4493 O   0  0  0  0  0  0  0  0  0  0  0  0
    3.3792    1.1336    0.4152 C   0  0  0  0  0  0  0  0  0  0  0  0
   -0.6430   -0.6419    1.3601 H   0  0  0  0  0  0  0  0  0  0  0  0
   -0.8985    0.9009    0.5414 H   0  0  0  0  0  0  0  0  0  0  0  0
   -0.0907   -0.4292   -0.3109 H   0  0  0  0  0  0  0  0  0  0  0  0
    0.5784    0.5187    3.2716 H   0  0  0  0  0  0  0  0  0  0  0  0
    1.9855    1.5443    2.9388 H   0  0  0  0  0  0  0  0  0  0  0  0
    0.3550    2.0924    2.5037 H   0  0  0  0  0  0  0  0  0  0  0  0
    1.5495    2.3993   -0.1891 H   0  0  0  0  0  0  0  0  0  0  0  0
    2.8609    0.5222   -1.7730 H   0  0  0  0  0  0  0  0  0  0  0  0
    2.1492   -1.4296    1.7528 H   0  0  0  0  0  0  0  0  0  0  0  0
    4.2171    1.8110    0.3494 H   0  0  0  0  0  0  0  0  0  0  0  0
  1  2  1  0
  2  3  1  0
  2  4  1  0
  4  5  1  0
  5  6  1  0
  6  7  1  0
  7  8  1  0
  8  9  1  0
  7  2  1  0
  9  4  1  0
  9  5  1  0
  1 10  1  0
  1 11  1  0
  1 12  1  0
  3 13  1  0
  3 14  1  0
  3 15  1  0
  4 16  1  0
  5 17  1  0
  7 18  1  0
  9 19  1  0
M  END
$$$$
