gdb 4778	6.2595506	0.5168716	0.4956918	4.4443	84.68	-0.26164	-0.05642	0.20521999999999999	2181.2288	0.153179	-422.53546	-422.524428	-422.523483	-422.57387	36.953
 OpenBabel02181911413D

 19 18  0  0  1  0  0  0  0  0999 V2000
   -5.1977    1.6689    2.3808 C   0  0  0  0  0  0  0  0  0  0  0  0
   -4.6048    0.8562    1.2279 C   0  0  0  0  0  0  0  0  0  0  0  0
   -3.0772    0.7428    1.3010 C   0  0  1  0  0  0  0  0  0  0  0  0
   -2.6398    0.1610    2.5186 O   0  0  0  0  0  0  0  0  0  0  0  0
   -2.5148   -0.0229    0.0799 C   0  0  0  0  0  0  0  0  0  0  0  0
   -1.0645   -0.1195    0.0668 C   0  0  0  0  0  0  0  0  0  0  0  0
    0.1408   -0.1962    0.0434 C   0  0  0  0  0  0  0  0  0  0  0  0
    1.5779   -0.2635    0.0568 C   0  0  0  0  0  0  0  0  0  0  0  0
    2.2438   -0.9251   -0.7073 O   0  0  0  0  0  0  0  0  0  0  0  0
   -4.8988    1.2468    3.3436 H   0  0  0  0  0  0  0  0  0  0  0  0
   -4.8470    2.7061    2.3506 H   0  0  0  0  0  0  0  0  0  0  0  0
   -6.2902    1.6832    2.3323 H   0  0  0  0  0  0  0  0  0  0  0  0
   -5.0309   -0.1584    1.2248 H   0  0  0  0  0  0  0  0  0  0  0  0
   -4.8826    1.3053    0.2661 H   0  0  0  0  0  0  0  0  0  0  0  0
   -2.6394    1.7482    1.3056 H   0  0  0  0  0  0  0  0  0  0  0  0
   -3.0215   -0.7223    2.5829 H   0  0  0  0  0  0  0  0  0  0  0  0
   -2.9468   -1.0341    0.0576 H   0  0  0  0  0  0  0  0  0  0  0  0
   -2.8500    0.4658   -0.8443 H   0  0  0  0  0  0  0  0  0  0  0  0
    2.0513    0.3559    0.8459 H   0  0  0  0  0  0  0  0  0  0  0  0
  1 10  1  0  0  0  0
  2  3  1  0  0  0  0
  2  1  1  0  0  0  0
  3 15  1  6  0  0  0
  3  4  1  0  0  0  0
  4 16  1  0  0  0  0
  5  3  1  0  0  0  0
  6  5  1  0  0  0  0
  7  8  1  0  0  0  0
  7  6  3  0  0  0  0
  8 19  1  0  0  0  0
  9  8  2  0  0  0  0
 11  1  1  0  0  0  0
 12  1  1  0  0  0  0
 13  2  1  0  0  0  0
 14  2  1  0  0  0  0
 17  5  1  0  0  0  0
 18  5  1  0  0  0  0
M TOR 0 0 1 2 3
M TOR 1 0 1 2 4
M TOR 2 0 1 2 14
M TOR 3 1 2 3 15
M TOR 4 1 2 4 5
M TOR 5 1 2 4 16
M TOR 6 1 2 4 17
M TOR 7 2 1 0 9
M TOR 8 2 1 0 10
M TOR 9 2 1 0 11
M TOR 10 2 4 5 6
M TOR 11 3 2 1 12
M TOR 12 3 2 1 13
M TOR 13 3 2 4 5
M TOR 14 3 2 4 16
M TOR 15 3 2 4 17
M TOR 16 4 2 1 12
M TOR 17 4 2 1 13
M TOR 18 4 2 3 15
M TOR 19 4 5 6 7
M TOR 20 5 4 2 14
M TOR 21 5 6 7 8
M TOR 22 5 6 7 18
M TOR 23 6 5 4 16
M TOR 24 6 5 4 17
M  END
$$$$
