
     RDKit          3D

 19 19  0  0  0  0  0  0  0  0999 V2000
    1.3273   -0.7499   -1.0976 C   0  0  0  0  0  0  0  0  0  0  0  0
    1.3091    0.0917    0.1844 C   0  0  0  0  0  0  0  0  0  0  0  0
    1.9065   -0.6300    1.4213 C   0  0  0  0  0  0  0  0  0  0  0  0
    2.7570    0.4239    2.1992 C   0  0  0  0  0  0  0  0  0  0  0  0
    3.9760   -0.0979    2.6632 O   0  0  0  0  0  0  0  0  0  0  0  0
    1.9699    0.9674    3.3839 C   0  0  0  0  0  0  0  0  0  0  0  0
    2.4048    0.9535    4.5100 O   0  0  0  0  0  0  0  0  0  0  0  0
    2.9273    1.5259    1.1664 C   0  0  0  0  0  0  0  0  0  0  0  0
    2.1448    1.3501    0.1048 C   0  0  0  0  0  0  0  0  0  0  0  0
    0.7370   -1.6638   -0.9744 H   0  0  0  0  0  0  0  0  0  0  0  0
    0.9088   -0.1939   -1.9433 H   0  0  0  0  0  0  0  0  0  0  0  0
    2.3509   -1.0403   -1.3568 H   0  0  0  0  0  0  0  0  0  0  0  0
    0.2642    0.3688    0.3874 H   0  0  0  0  0  0  0  0  0  0  0  0
    1.1455   -1.1125    2.0422 H   0  0  0  0  0  0  0  0  0  0  0  0
    2.6138   -1.4039    1.1094 H   0  0  0  0  0  0  0  0  0  0  0  0
    3.9782    0.0500    3.6228 H   0  0  0  0  0  0  0  0  0  0  0  0
    0.9687    1.3812    3.1468 H   0  0  0  0  0  0  0  0  0  0  0  0
    3.6109    2.3487    1.3402 H   0  0  0  0  0  0  0  0  0  0  0  0
    2.0904    2.0216   -0.7464 H   0  0  0  0  0  0  0  0  0  0  0  0
  1  2  1  0
  2  3  1  0
  3  4  1  0
  4  5  1  0
  4  6  1  0
  6  7  2  0
  4  8  1  0
  8  9  2  0
  9  2  1  0
  1 10  1  0
  1 11  1  0
  1 12  1  0
  2 13  1  0
  3 14  1  0
  3 15  1  0
  5 16  1  0
  6 17  1  0
  8 18  1  0
  9 19  1  0
M  END
$$$$
