
     RDKit          3D

 19 19  0  0  0  0  0  0  0  0999 V2000
    2.8636    1.4576   -0.1153 C   0  0  0  0  0  0  0  0  0  0  0  0
    2.0425    0.1820    0.1046 C   0  0  0  0  0  0  0  0  0  0  0  0
    1.8310   -0.6058   -1.1846 C   0  0  0  0  0  0  0  0  0  0  0  0
    0.9439   -1.9075   -1.1776 C   0  0  0  0  0  0  0  0  0  0  0  0
    0.2678   -1.4450   -2.5102 C   0  0  0  0  0  0  0  0  0  0  0  0
    0.8704   -0.0562   -2.2541 C   0  0  0  0  0  0  0  0  0  0  0  0
    0.5974    1.0472   -2.6262 O   0  0  0  0  0  0  0  0  0  0  0  0
    1.7028   -3.2016   -1.2387 C   0  0  0  0  0  0  0  0  0  0  0  0
    1.6136   -4.1027   -0.4466 O   0  0  0  0  0  0  0  0  0  0  0  0
    2.9789    2.0122    0.8205 H   0  0  0  0  0  0  0  0  0  0  0  0
    3.8662    1.2221   -0.4893 H   0  0  0  0  0  0  0  0  0  0  0  0
    2.3762    2.1098   -0.8446 H   0  0  0  0  0  0  0  0  0  0  0  0
    2.5362   -0.4667    0.8385 H   0  0  0  0  0  0  0  0  0  0  0  0
    1.0638    0.4395    0.5278 H   0  0  0  0  0  0  0  0  0  0  0  0
    2.7976   -0.8251   -1.6634 H   0  0  0  0  0  0  0  0  0  0  0  0
    0.2494   -1.9239   -0.3355 H   0  0  0  0  0  0  0  0  0  0  0  0
    0.7206   -1.9175   -3.3906 H   0  0  0  0  0  0  0  0  0  0  0  0
   -0.8183   -1.5174   -2.5904 H   0  0  0  0  0  0  0  0  0  0  0  0
    2.3982   -3.2678   -2.1123 H   0  0  0  0  0  0  0  0  0  0  0  0
  1  2  1  0
  2  3  1  0
  3  4  1  0
  4  5  1  0
  5  6  1  0
  6  7  2  0
  4  8  1  0
  8  9  2  0
  6  3  1  0
  1 10  1  0
  1 11  1  0
  1 12  1  0
  2 13  1  0
  2 14  1  0
  3 15  1  0
  4 16  1  0
  5 17  1  0
  5 18  1  0
  8 19  1  0
M  END
$$$$
