
     RDKit          3D

 19 20  0  0  0  0  0  0  0  0999 V2000
    1.0652   -0.6996    0.1641 O   0  0  0  0  0  0  0  0  0  0  0  0
   -0.0153   -0.1885    0.0232 C   0  0  0  0  0  0  0  0  0  0  0  0
   -0.3857    0.7722   -1.0820 C   0  0  0  0  0  0  0  0  0  0  0  0
   -0.9016    2.1147   -0.5206 C   0  0  0  0  0  0  0  0  0  0  0  0
   -1.4083    3.0148   -1.6037 C   0  0  0  0  0  0  0  0  0  0  0  0
   -0.6113    3.8164   -2.6535 C   0  0  0  0  0  0  0  0  0  0  0  0
   -1.8010    4.8391   -2.7069 C   0  0  0  0  0  0  0  0  0  0  0  0
   -2.5259    3.9750   -1.6675 C   0  0  0  0  0  0  0  0  0  0  0  0
   -2.6521    2.6599   -2.2304 O   0  0  0  0  0  0  0  0  0  0  0  0
   -0.8455   -0.3993    0.7391 H   0  0  0  0  0  0  0  0  0  0  0  0
    0.4823    0.9121   -1.7322 H   0  0  0  0  0  0  0  0  0  0  0  0
   -1.1927    0.3153   -1.6711 H   0  0  0  0  0  0  0  0  0  0  0  0
   -1.7157    1.9291    0.1898 H   0  0  0  0  0  0  0  0  0  0  0  0
   -0.0977    2.6197    0.0281 H   0  0  0  0  0  0  0  0  0  0  0  0
    0.3040    4.2607   -2.2545 H   0  0  0  0  0  0  0  0  0  0  0  0
   -0.3837    3.2750   -3.5744 H   0  0  0  0  0  0  0  0  0  0  0  0
   -1.5224    5.8262   -2.3309 H   0  0  0  0  0  0  0  0  0  0  0  0
   -2.3204    4.9439   -3.6620 H   0  0  0  0  0  0  0  0  0  0  0  0
   -3.2610    4.2620   -0.9234 H   0  0  0  0  0  0  0  0  0  0  0  0
  1  2  2  0
  2  3  1  0
  3  4  1  0
  4  5  1  0
  5  6  1  0
  6  7  1  0
  7  8  1  0
  8  9  1  0
  8  5  1  0
  9  5  1  0
  2 10  1  0
  3 11  1  0
  3 12  1  0
  4 13  1  0
  4 14  1  0
  6 15  1  0
  6 16  1  0
  7 17  1  0
  7 18  1  0
  8 19  1  0
M  END
$$$$
