
     RDKit          3D

 19 21  0  0  0  0  0  0  0  0999 V2000
   -0.0452    0.1166    0.1833 C   0  0  0  0  0  0  0  0  0  0  0  0
    1.4539    0.0422    0.1104 C   0  0  0  0  0  0  0  0  0  0  0  0
    2.3651   -1.2175    0.1191 C   0  0  0  0  0  0  0  0  0  0  0  0
    3.3404   -0.0382    0.0303 C   0  0  0  0  0  0  0  0  0  0  0  0
    4.7147   -0.1504   -0.0310 O   0  0  0  0  0  0  0  0  0  0  0  0
    2.3781    0.6826   -0.9876 C   0  0  0  0  0  0  0  0  0  0  0  0
    2.4591    2.1701   -0.6789 C   0  0  0  0  0  0  0  0  0  0  0  0
    2.5335    2.1459    0.7612 O   0  0  0  0  0  0  0  0  0  0  0  0
    2.4765    0.7557    1.0464 C   0  0  0  0  0  0  0  0  0  0  0  0
   -0.4203   -0.3691    1.0906 H   0  0  0  0  0  0  0  0  0  0  0  0
   -0.3828    1.1585    0.2008 H   0  0  0  0  0  0  0  0  0  0  0  0
   -0.5122   -0.3755   -0.6767 H   0  0  0  0  0  0  0  0  0  0  0  0
    2.3847   -1.8063    1.0414 H   0  0  0  0  0  0  0  0  0  0  0  0
    2.3021   -1.8631   -0.7604 H   0  0  0  0  0  0  0  0  0  0  0  0
    5.0962    0.7052    0.1962 H   0  0  0  0  0  0  0  0  0  0  0  0
    2.3182    0.3430   -2.0219 H   0  0  0  0  0  0  0  0  0  0  0  0
    3.3527    2.6542   -1.0953 H   0  0  0  0  0  0  0  0  0  0  0  0
    1.5775    2.7397   -0.9987 H   0  0  0  0  0  0  0  0  0  0  0  0
    2.5127    0.5734    2.1204 H   0  0  0  0  0  0  0  0  0  0  0  0
  1  2  1  0
  2  3  1  0
  3  4  1  0
  4  5  1  0
  4  6  1  0
  6  7  1  0
  7  8  1  0
  8  9  1  0
  6  2  1  0
  9  2  1  0
  9  4  1  0
  1 10  1  0
  1 11  1  0
  1 12  1  0
  3 13  1  0
  3 14  1  0
  5 15  1  0
  6 16  1  0
  7 17  1  0
  7 18  1  0
  9 19  1  0
M  END
$$$$
