
     RDKit          3D

 19 20  0  0  0  0  0  0  0  0999 V2000
    1.2626    0.6354    0.2137 O   0  0  0  0  0  0  0  0  0  0  0  0
    0.3131   -0.4039    0.3835 C   0  0  0  0  0  0  0  0  0  0  0  0
   -0.8699   -0.0004    1.2814 C   0  0  0  0  0  0  0  0  0  0  0  0
   -1.9452   -1.0707    1.3200 C   0  0  0  0  0  0  0  0  0  0  0  0
   -2.0858   -1.6158    2.5327 C   0  0  0  0  0  0  0  0  0  0  0  0
   -1.2244   -0.9445    3.5412 C   0  0  0  0  0  0  0  0  0  0  0  0
   -1.5222    0.5367    3.7465 C   0  0  0  0  0  0  0  0  0  0  0  0
   -1.0270    1.1722    4.8860 O   0  0  0  0  0  0  0  0  0  0  0  0
   -0.4792    0.1381    2.7551 C   0  0  0  0  0  0  0  0  0  0  0  0
    1.6654    0.8151    1.0688 H   0  0  0  0  0  0  0  0  0  0  0  0
   -0.0551   -0.6358   -0.6214 H   0  0  0  0  0  0  0  0  0  0  0  0
    0.7787   -1.3190    0.7820 H   0  0  0  0  0  0  0  0  0  0  0  0
   -1.2591    0.9472    0.8849 H   0  0  0  0  0  0  0  0  0  0  0  0
   -2.5111   -1.3487    0.4377 H   0  0  0  0  0  0  0  0  0  0  0  0
   -2.7763   -2.4131    2.7842 H   0  0  0  0  0  0  0  0  0  0  0  0
   -0.7660   -1.4876    4.3602 H   0  0  0  0  0  0  0  0  0  0  0  0
   -2.4806    0.9042    3.3763 H   0  0  0  0  0  0  0  0  0  0  0  0
   -1.6098    0.9589    5.6225 H   0  0  0  0  0  0  0  0  0  0  0  0
    0.5387    0.3956    3.0299 H   0  0  0  0  0  0  0  0  0  0  0  0
  1  2  1  0
  2  3  1  0
  3  4  1  0
  4  5  2  0
  5  6  1  0
  6  7  1  0
  7  8  1  0
  7  9  1  0
  9  3  1  0
  9  6  1  0
  1 10  1  0
  2 11  1  0
  2 12  1  0
  3 13  1  0
  4 14  1  0
  5 15  1  0
  6 16  1  0
  7 17  1  0
  8 18  1  0
  9 19  1  0
M  END
$$$$
