
     RDKit          3D

 19 20  0  0  0  0  0  0  0  0999 V2000
    1.6151    0.8397    0.8163 O   0  0  0  0  0  0  0  0  0  0  0  0
    0.6021   -0.1224    0.6006 C   0  0  0  0  0  0  0  0  0  0  0  0
   -0.8052    0.3976    0.7686 C   0  0  0  0  0  0  0  0  0  0  0  0
   -1.0915    1.6121    1.2388 C   0  0  0  0  0  0  0  0  0  0  0  0
   -2.5202    2.0621    1.4085 C   0  0  0  0  0  0  0  0  0  0  0  0
   -3.4156    0.9876    1.6748 O   0  0  0  0  0  0  0  0  0  0  0  0
   -3.2985   -0.1037    0.8092 C   0  0  0  0  0  0  0  0  0  0  0  0
   -2.6751   -1.3499    1.3740 C   0  0  0  0  0  0  0  0  0  0  0  0
   -1.9203   -0.4985    0.3581 C   0  0  0  0  0  0  0  0  0  0  0  0
    1.4934    1.5368    0.1630 H   0  0  0  0  0  0  0  0  0  0  0  0
    0.6965   -0.5899   -0.3952 H   0  0  0  0  0  0  0  0  0  0  0  0
    0.7881   -0.9237    1.3275 H   0  0  0  0  0  0  0  0  0  0  0  0
   -0.3011    2.2934    1.5366 H   0  0  0  0  0  0  0  0  0  0  0  0
   -2.6113    2.7332    2.2683 H   0  0  0  0  0  0  0  0  0  0  0  0
   -2.8526    2.6304    0.5220 H   0  0  0  0  0  0  0  0  0  0  0  0
   -4.1280   -0.2014    0.1109 H   0  0  0  0  0  0  0  0  0  0  0  0
   -2.3540   -1.2907    2.4077 H   0  0  0  0  0  0  0  0  0  0  0  0
   -3.0497   -2.3164    1.0545 H   0  0  0  0  0  0  0  0  0  0  0  0
   -1.8315   -0.9245   -0.6386 H   0  0  0  0  0  0  0  0  0  0  0  0
  1  2  1  0
  2  3  1  0
  3  4  2  0
  4  5  1  0
  5  6  1  0
  6  7  1  0
  7  8  1  0
  8  9  1  0
  9  3  1  0
  9  7  1  0
  1 10  1  0
  2 11  1  0
  2 12  1  0
  4 13  1  0
  5 14  1  0
  5 15  1  0
  7 16  1  0
  8 17  1  0
  8 18  1  0
  9 19  1  0
M  END
$$$$
