gdb 2858	2.3557847	1.9523978	1.5082459	2.4643	72.48	-0.23594	0.07206	0.308	959.1883	0.158291	-422.531768	-422.524258	-422.523314	-422.563324	30.329
 OpenBabel02181911413D

 19 21  0  0  1  0  0  0  0  0999 V2000
    1.0139   -0.3383   -0.9509 C   0  0  0  0  0  0  0  0  0  0  0  0
    0.7899    0.2039    0.4624 C   0  0  1  0  0  0  0  0  0  0  0  0
    1.6695   -0.5008    1.4895 C   0  0  2  0  0  0  0  0  0  0  0  0
    1.4591    0.1545    2.7969 O   0  0  0  0  0  0  0  0  0  0  0  0
    2.6772    0.8847    2.5965 C   0  0  1  0  0  0  0  0  0  0  0  0
    3.0741    0.1338    1.3704 C   0  0  2  0  0  0  0  0  0  0  0  0
    2.6388    1.5854    1.2543 C   0  0  1  0  0  0  0  0  0  0  0  0
    1.2391    1.6942    0.6323 C   0  0  2  0  0  0  0  0  0  0  0  0
    0.3449    2.4592    1.4203 O   0  0  0  0  0  0  0  0  0  0  0  0
    0.7515   -1.3993   -1.0196 H   0  0  0  0  0  0  0  0  0  0  0  0
    0.4011    0.2065   -1.6756 H   0  0  0  0  0  0  0  0  0  0  0  0
    2.0615   -0.2323   -1.2549 H   0  0  0  0  0  0  0  0  0  0  0  0
   -0.2679    0.1252    0.7331 H   0  0  0  0  0  0  0  0  0  0  0  0
    1.5748   -1.5847    1.5746 H   0  0  0  0  0  0  0  0  0  0  0  0
    3.2199    1.2184    3.4724 H   0  0  0  0  0  0  0  0  0  0  0  0
    4.0051   -0.3096    1.0483 H   0  0  0  0  0  0  0  0  0  0  0  0
    3.3829    2.3534    1.0781 H   0  0  0  0  0  0  0  0  0  0  0  0
    1.2798    2.1997   -0.3372 H   0  0  0  0  0  0  0  0  0  0  0  0
    0.2787    1.9913    2.2628 H   0  0  0  0  0  0  0  0  0  0  0  0
  1  2  1  0  0  0  0
  2  8  1  0  0  0  0
  2 13  1  1  0  0  0
  2  3  1  0  0  0  0
  3 14  1  6  0  0  0
  3  4  1  0  0  0  0
  5  4  1  0  0  0  0
  5 15  1  1  0  0  0
  6 16  1  6  0  0  0
  6  3  1  0  0  0  0
  6  5  1  0  0  0  0
  7 17  1  6  0  0  0
  7  6  1  0  0  0  0
  7  5  1  0  0  0  0
  8 18  1  6  0  0  0
  8  7  1  0  0  0  0
  8  9  1  0  0  0  0
  9 19  1  0  0  0  0
 10  1  1  0  0  0  0
 11  1  1  0  0  0  0
 12  1  1  0  0  0  0
M TOR 0 0 1 2 3
M TOR 1 0 1 2 5
M TOR 2 0 1 2 13
M TOR 3 0 1 7 6
M TOR 4 0 1 7 8
M TOR 5 0 1 7 17
M TOR 6 1 2 3 4
M TOR 7 1 2 5 4
M TOR 8 1 2 5 6
M TOR 9 1 2 5 15
M TOR 10 1 7 6 4
M TOR 11 1 7 6 5
M TOR 12 1 7 6 16
M TOR 13 1 7 8 18
M TOR 14 2 1 0 9
M TOR 15 2 1 0 10
M TOR 16 2 1 0 11
M TOR 17 2 1 7 6
M TOR 18 2 1 7 8
M TOR 19 2 1 7 17
M TOR 20 2 3 4 5
M TOR 21 2 3 4 6
M TOR 22 2 3 4 14
M TOR 23 2 5 4 6
M TOR 24 2 5 4 14
M TOR 25 2 5 6 7
M TOR 26 2 5 6 16
M TOR 27 3 2 1 7
M TOR 28 3 2 1 12
M TOR 29 3 2 5 6
M TOR 30 3 2 5 15
M TOR 31 3 4 5 6
M TOR 32 3 4 5 15
M TOR 33 3 4 6 7
M TOR 34 3 4 6 16
M TOR 35 4 3 2 13
M TOR 36 4 5 2 13
M TOR 37 4 5 6 7
M TOR 38 4 5 6 16
M TOR 39 4 6 5 15
M TOR 40 4 6 7 8
M TOR 41 4 6 7 17
M TOR 42 5 2 1 7
M TOR 43 5 2 1 12
M TOR 44 5 6 4 14
M TOR 45 5 6 7 8
M TOR 46 5 6 7 17
M TOR 47 6 5 2 13
M TOR 48 6 7 1 12
M TOR 49 6 7 8 18
M TOR 50 7 1 0 9
M TOR 51 7 1 0 10
M TOR 52 7 1 0 11
M TOR 53 7 1 2 13
M TOR 54 7 6 4 14
M TOR 55 7 6 5 15
M TOR 56 8 7 1 12
M TOR 57 8 7 6 16
M  END
$$$$
