
     RDKit          3D

 19 20  0  0  0  0  0  0  0  0999 V2000
   -0.9912   -1.2970    1.5129 O   0  0  0  0  0  0  0  0  0  0  0  0
   -1.0813   -0.2694    0.5356 C   0  0  0  0  0  0  0  0  0  0  0  0
   -2.5455   -0.0662    0.1354 C   0  0  0  0  0  0  0  0  0  0  0  0
   -2.9246    0.4677   -0.8738 O   0  0  0  0  0  0  0  0  0  0  0  0
   -0.1645   -0.4991   -0.6442 C   0  0  0  0  0  0  0  0  0  0  0  0
    0.0974    0.4406   -1.8593 C   0  0  0  0  0  0  0  0  0  0  0  0
    0.9934   -0.8104   -2.0901 C   0  0  0  0  0  0  0  0  0  0  0  0
    1.3746   -0.7331   -0.5838 C   0  0  0  0  0  0  0  0  0  0  0  0
   -0.2271   -1.6791   -1.6711 C   0  0  0  0  0  0  0  0  0  0  0  0
   -1.0618   -2.1429    1.0562 H   0  0  0  0  0  0  0  0  0  0  0  0
   -0.7748    0.6520    1.0536 H   0  0  0  0  0  0  0  0  0  0  0  0
   -3.2530   -0.4726    0.8949 H   0  0  0  0  0  0  0  0  0  0  0  0
   -0.7395    0.5908   -2.5419 H   0  0  0  0  0  0  0  0  0  0  0  0
    0.6148    1.3789   -1.6394 H   0  0  0  0  0  0  0  0  0  0  0  0
    1.6653   -0.9948   -2.9281 H   0  0  0  0  0  0  0  0  0  0  0  0
    1.7110   -1.6589   -0.1094 H   0  0  0  0  0  0  0  0  0  0  0  0
    1.9836    0.1204   -0.2728 H   0  0  0  0  0  0  0  0  0  0  0  0
   -1.0833   -1.6894   -2.3500 H   0  0  0  0  0  0  0  0  0  0  0  0
    0.0003   -2.6807   -1.2906 H   0  0  0  0  0  0  0  0  0  0  0  0
  1  2  1  0
  2  3  1  0
  3  4  2  0
  2  5  1  0
  5  6  1  0
  6  7  1  0
  7  8  1  0
  7  9  1  0
  8  5  1  0
  9  5  1  0
  1 10  1  0
  2 11  1  0
  3 12  1  0
  6 13  1  0
  6 14  1  0
  7 15  1  0
  8 16  1  0
  8 17  1  0
  9 18  1  0
  9 19  1  0
M  END
$$$$
