gdb 2152	2.7145157	1.9263843	1.4511743	2.5426	74.24	-0.22624	0.08335	0.30959	957.5597	0.157912	-422.518912	-422.511436	-422.510491	-422.550266	30.011
 OpenBabel02181911403D

 19 21  0  0  1  0  0  0  0  0999 V2000
    0.0928   -0.3963   -0.2168 C   0  0  0  0  0  0  0  0  0  0  0  0
    1.5775   -0.1739   -0.0379 C   0  0  2  0  0  0  0  0  0  0  0  0
    2.1913   -0.9872    1.1046 C   0  0  0  0  0  0  0  0  0  0  0  0
    3.4770   -0.5227    1.4537 O   0  0  0  0  0  0  0  0  0  0  0  0
    4.4001   -0.4104    0.3859 C   0  0  0  0  0  0  0  0  0  0  0  0
    3.8243    0.1758   -0.8899 C   0  0  2  0  0  0  0  0  0  0  0  0
    2.7411    1.2252   -0.9758 C   0  0  2  0  0  0  0  0  0  0  0  0
    1.8841    1.2488    0.1605 O   0  0  0  0  0  0  0  0  0  0  0  0
    2.4294   -0.2063   -1.3230 C   0  0  2  0  0  0  0  0  0  0  0  0
   -0.4499   -0.0781    0.6788 H   0  0  0  0  0  0  0  0  0  0  0  0
   -0.2797    0.1791   -1.0687 H   0  0  0  0  0  0  0  0  0  0  0  0
   -0.1214   -1.4563   -0.3940 H   0  0  0  0  0  0  0  0  0  0  0  0
    1.5903   -0.8887    2.0145 H   0  0  0  0  0  0  0  0  0  0  0  0
    2.2030   -2.0525    0.8131 H   0  0  0  0  0  0  0  0  0  0  0  0
    5.2157    0.2105    0.7717 H   0  0  0  0  0  0  0  0  0  0  0  0
    4.8232   -1.4015    0.1412 H   0  0  0  0  0  0  0  0  0  0  0  0
    4.5408    0.2329   -1.7071 H   0  0  0  0  0  0  0  0  0  0  0  0
    2.8054    2.1245   -1.5777 H   0  0  0  0  0  0  0  0  0  0  0  0
    2.1607   -0.6895   -2.2534 H   0  0  0  0  0  0  0  0  0  0  0  0
  1 10  1  0  0  0  0
  2  1  1  6  0  0  0
  2  8  1  0  0  0  0
  2  3  1  0  0  0  0
  3  4  1  0  0  0  0
  3 13  1  0  0  0  0
  5 15  1  0  0  0  0
  5  4  1  0  0  0  0
  6 17  1  6  0  0  0
  6  5  1  0  0  0  0
  7 18  1  6  0  0  0
  7  6  1  0  0  0  0
  7  8  1  0  0  0  0
  9 19  1  6  0  0  0
  9  7  1  0  0  0  0
  9  6  1  0  0  0  0
  9  2  1  0  0  0  0
 11  1  1  0  0  0  0
 12  1  1  0  0  0  0
 14  3  1  0  0  0  0
 16  5  1  0  0  0  0
M TOR 0 0 1 2 3
M TOR 1 0 1 2 12
M TOR 2 0 1 2 13
M TOR 3 0 1 7 6
M TOR 4 0 1 8 5
M TOR 5 0 1 8 6
M TOR 6 0 1 8 18
M TOR 7 1 2 3 4
M TOR 8 1 7 6 5
M TOR 9 1 7 6 8
M TOR 10 1 7 6 17
M TOR 11 1 8 5 4
M TOR 12 1 8 5 6
M TOR 13 1 8 5 16
M TOR 14 1 8 6 17
M TOR 15 2 1 0 9
M TOR 16 2 1 0 10
M TOR 17 2 1 0 11
M TOR 18 2 1 7 6
M TOR 19 2 1 8 5
M TOR 20 2 1 8 6
M TOR 21 2 1 8 18
M TOR 22 2 3 4 5
M TOR 23 2 3 4 14
M TOR 24 2 3 4 15
M TOR 25 3 2 1 7
M TOR 26 3 2 1 8
M TOR 27 3 4 5 6
M TOR 28 3 4 5 8
M TOR 29 3 4 5 16
M TOR 30 4 3 2 12
M TOR 31 4 3 2 13
M TOR 32 4 5 6 7
M TOR 33 4 5 6 8
M TOR 34 4 5 6 17
M TOR 35 4 5 8 18
M TOR 36 5 6 8 18
M TOR 37 5 8 1 7
M TOR 38 5 8 6 7
M TOR 39 5 8 6 17
M TOR 40 6 5 4 14
M TOR 41 6 5 4 15
M TOR 42 6 8 5 16
M TOR 43 7 1 0 9
M TOR 44 7 1 0 10
M TOR 45 7 1 0 11
M TOR 46 7 1 2 12
M TOR 47 7 1 2 13
M TOR 48 7 1 8 18
M TOR 49 7 6 5 16
M TOR 50 7 6 8 18
M TOR 51 8 1 0 9
M TOR 52 8 1 0 10
M TOR 53 8 1 0 11
M TOR 54 8 1 2 12
M TOR 55 8 1 2 13
M TOR 56 8 5 4 14
M TOR 57 8 5 4 15
M  END
$$$$
