
     RDKit          3D

 19 19  0  0  0  0  0  0  0  0999 V2000
    1.3627    0.8843    0.0556 C   0  0  0  0  0  0  0  0  0  0  0  0
   -0.0274    0.9675    0.2660 O   0  0  0  0  0  0  0  0  0  0  0  0
   -0.5229   -0.0545    1.0992 C   0  0  0  0  0  0  0  0  0  0  0  0
   -2.0175    0.1121    1.2712 C   0  0  0  0  0  0  0  0  0  0  0  0
   -2.5338   -0.9163    2.0581 O   0  0  0  0  0  0  0  0  0  0  0  0
   -2.8588    0.6746    0.1689 C   0  0  0  0  0  0  0  0  0  0  0  0
   -2.5959    1.5154    1.4249 C   0  0  0  0  0  0  0  0  0  0  0  0
   -3.6224    1.6929    2.4041 C   0  0  0  0  0  0  0  0  0  0  0  0
   -4.4605    1.7625    3.2676 C   0  0  0  0  0  0  0  0  0  0  0  0
    1.6439   -0.0635   -0.4287 H   0  0  0  0  0  0  0  0  0  0  0  0
    1.6444    1.7135   -0.5974 H   0  0  0  0  0  0  0  0  0  0  0  0
    1.9226    0.9670    1.0000 H   0  0  0  0  0  0  0  0  0  0  0  0
   -0.3235   -1.0487    0.6650 H   0  0  0  0  0  0  0  0  0  0  0  0
   -0.0400   -0.0274    2.0902 H   0  0  0  0  0  0  0  0  0  0  0  0
   -3.0699   -0.5197    2.7583 H   0  0  0  0  0  0  0  0  0  0  0  0
   -2.3686    1.0081   -0.7375 H   0  0  0  0  0  0  0  0  0  0  0  0
   -3.8524    0.2576    0.0563 H   0  0  0  0  0  0  0  0  0  0  0  0
   -1.8908    2.3311    1.3074 H   0  0  0  0  0  0  0  0  0  0  0  0
   -5.2182    1.8691    4.0038 H   0  0  0  0  0  0  0  0  0  0  0  0
  1  2  1  0
  2  3  1  0
  3  4  1  0
  4  5  1  0
  4  6  1  0
  6  7  1  0
  7  8  1  0
  8  9  3  0
  7  4  1  0
  1 10  1  0
  1 11  1  0
  1 12  1  0
  3 13  1  0
  3 14  1  0
  5 15  1  0
  6 16  1  0
  6 17  1  0
  7 18  1  0
  9 19  1  0
M  END
$$$$
