gdb 5818	4.1813437	1.0040624	0.8449119	3.431	80.06	-0.23421	-0.05637	0.17784	1369.6032	0.156599	-422.581559	-422.572739	-422.571795	-422.615377	32.45
 OpenBabel02181911423D

 19 19  0  0  1  0  0  0  0  0999 V2000
    2.0219   -0.5362    1.3046 C   0  0  0  0  0  0  0  0  0  0  0  0
    1.8310    0.4165    0.1230 C   0  0  0  0  0  0  0  0  0  0  0  0
    2.0017   -0.2744   -1.2346 C   0  0  2  0  0  0  0  0  0  0  0  0
    3.3176   -0.7991   -1.2800 O   0  0  0  0  0  0  0  0  0  0  0  0
    3.6798   -1.3479   -2.5310 C   0  0  0  0  0  0  0  0  0  0  0  0
    3.5486   -0.3465   -3.6777 C   0  0  0  0  0  0  0  0  0  0  0  0
    4.2163   -0.4389   -4.6866 O   0  0  0  0  0  0  0  0  0  0  0  0
    2.4963    0.6696   -3.4888 C   0  0  0  0  0  0  0  0  0  0  0  0
    1.7394    0.6599   -2.3855 C   0  0  0  0  0  0  0  0  0  0  0  0
    1.2815   -1.3438    1.2841 H   0  0  0  0  0  0  0  0  0  0  0  0
    3.0151   -0.9898    1.2778 H   0  0  0  0  0  0  0  0  0  0  0  0
    1.9108   -0.0047    2.2540 H   0  0  0  0  0  0  0  0  0  0  0  0
    0.8307    0.8649    0.1540 H   0  0  0  0  0  0  0  0  0  0  0  0
    2.5528    1.2398    0.1779 H   0  0  0  0  0  0  0  0  0  0  0  0
    1.2702   -1.1070   -1.2950 H   0  0  0  0  0  0  0  0  0  0  0  0
    4.7185   -1.6764   -2.4562 H   0  0  0  0  0  0  0  0  0  0  0  0
    3.0616   -2.2308   -2.7767 H   0  0  0  0  0  0  0  0  0  0  0  0
    2.3300    1.3608   -4.3089 H   0  0  0  0  0  0  0  0  0  0  0  0
    0.8943    1.3371   -2.2806 H   0  0  0  0  0  0  0  0  0  0  0  0
  1 12  1  0  0  0  0
  2 13  1  0  0  0  0
  2 14  1  0  0  0  0
  2  1  1  0  0  0  0
  3 15  1  6  0  0  0
  3  2  1  0  0  0  0
  4  3  1  0  0  0  0
  5 16  1  0  0  0  0
  5  4  1  0  0  0  0
  6  8  1  0  0  0  0
  6  5  1  0  0  0  0
  7  6  2  0  0  0  0
  8  9  2  0  0  0  0
  9 19  1  0  0  0  0
  9  3  1  0  0  0  0
 10  1  1  0  0  0  0
 11  1  1  0  0  0  0
 17  5  1  0  0  0  0
 18  8  1  0  0  0  0
M TOR 0 0 1 2 3
M TOR 1 0 1 2 8
M TOR 2 0 1 2 14
M TOR 3 1 2 3 4
M TOR 4 1 2 8 7
M TOR 5 1 2 8 18
M TOR 6 2 1 0 9
M TOR 7 2 1 0 10
M TOR 8 2 1 0 11
M TOR 9 2 3 4 5
M TOR 10 2 3 4 15
M TOR 11 2 3 4 16
M TOR 12 2 8 7 5
M TOR 13 2 8 7 17
M TOR 14 3 2 1 12
M TOR 15 3 2 1 13
M TOR 16 3 2 8 7
M TOR 17 3 2 8 18
M TOR 18 3 4 5 6
M TOR 19 3 4 5 7
M TOR 20 4 3 2 8
M TOR 21 4 3 2 14
M TOR 22 4 5 7 8
M TOR 23 4 5 7 17
M TOR 24 5 7 8 18
M TOR 25 6 5 4 15
M TOR 26 6 5 4 16
M TOR 27 6 5 7 8
M TOR 28 6 5 7 17
M TOR 29 7 5 4 15
M TOR 30 7 5 4 16
M TOR 31 7 8 2 14
M TOR 32 8 2 1 12
M TOR 33 8 2 1 13
M  END
$$$$
