
     RDKit          3D

 19 20  0  0  0  0  0  0  0  0999 V2000
   -0.0511    0.1822    0.1188 C   0  0  0  0  0  0  0  0  0  0  0  0
    1.4500   -0.0785   -0.0231 C   0  0  0  0  0  0  0  0  0  0  0  0
    2.1867    0.9481    0.6641 O   0  0  0  0  0  0  0  0  0  0  0  0
    1.9512   -0.0679   -1.4894 C   0  0  0  0  0  0  0  0  0  0  0  0
    2.8631   -1.2876   -1.6235 C   0  0  0  0  0  0  0  0  0  0  0  0
    4.1022   -1.3269   -2.4162 C   0  0  0  0  0  0  0  0  0  0  0  0
    2.9147   -1.9625   -2.8905 O   0  0  0  0  0  0  0  0  0  0  0  0
    2.6499   -2.0966   -0.3956 C   0  0  0  0  0  0  0  0  0  0  0  0
    1.8696   -1.4546    0.4709 C   0  0  0  0  0  0  0  0  0  0  0  0
   -0.3528    0.1454    1.1727 H   0  0  0  0  0  0  0  0  0  0  0  0
   -0.3006    1.1737   -0.2709 H   0  0  0  0  0  0  0  0  0  0  0  0
   -0.6366   -0.5675   -0.4223 H   0  0  0  0  0  0  0  0  0  0  0  0
    1.9588    0.8983    1.5990 H   0  0  0  0  0  0  0  0  0  0  0  0
    1.1177   -0.1794   -2.1884 H   0  0  0  0  0  0  0  0  0  0  0  0
    2.4559    0.8755   -1.7042 H   0  0  0  0  0  0  0  0  0  0  0  0
    4.4105   -0.4358   -2.9626 H   0  0  0  0  0  0  0  0  0  0  0  0
    4.9130   -1.9975   -2.1315 H   0  0  0  0  0  0  0  0  0  0  0  0
    3.1007   -3.0736   -0.2644 H   0  0  0  0  0  0  0  0  0  0  0  0
    1.5748   -1.8212    1.4496 H   0  0  0  0  0  0  0  0  0  0  0  0
  1  2  1  0
  2  3  1  0
  2  4  1  0
  4  5  1  0
  5  6  1  0
  6  7  1  0
  5  8  1  0
  8  9  2  0
  9  2  1  0
  7  5  1  0
  1 10  1  0
  1 11  1  0
  1 12  1  0
  3 13  1  0
  4 14  1  0
  4 15  1  0
  6 16  1  0
  6 17  1  0
  8 18  1  0
  9 19  1  0
M  END
$$$$
