gdb 922	6.4961329	0.6279213	0.6007296	3.3096	78.49	-0.2478	-0.02547	0.22233	1828.227	0.154679	-422.527258	-422.517845	-422.516901	-422.563002	33.036
 OpenBabel02181911403D

 19 20  0  0  1  0  0  0  0  0999 V2000
    0.3569   -1.1834   -0.1656 O   0  0  0  0  0  0  0  0  0  0  0  0
    0.4608   -0.0136    0.0991 C   0  0  0  0  0  0  0  0  0  0  0  0
   -0.3289    0.6961    1.1837 C   0  0  0  0  0  0  0  0  0  0  0  0
   -0.9983    1.9483    0.6555 C   0  0  2  0  0  0  0  0  0  0  0  0
   -0.1303    3.0504    0.3600 O   0  0  0  0  0  0  0  0  0  0  0  0
   -1.0757    3.1944    1.4309 C   0  0  1  0  0  0  0  0  0  0  0  0
   -2.1620    4.1949    1.2469 C   0  0  0  0  0  0  0  0  0  0  0  0
   -3.0523    4.5444    2.4173 C   0  0  0  0  0  0  0  0  0  0  0  0
   -2.0529    5.5480    1.9095 C   0  0  0  0  0  0  0  0  0  0  0  0
    1.1669    0.6453   -0.4525 H   0  0  0  0  0  0  0  0  0  0  0  0
   -1.0612   -0.0017    1.6009 H   0  0  0  0  0  0  0  0  0  0  0  0
    0.3768    0.9828    1.9747 H   0  0  0  0  0  0  0  0  0  0  0  0
   -1.7671    1.7783   -0.1007 H   0  0  0  0  0  0  0  0  0  0  0  0
   -0.6184    3.1908    2.4237 H   0  0  0  0  0  0  0  0  0  0  0  0
   -2.6255    4.1689    0.2655 H   0  0  0  0  0  0  0  0  0  0  0  0
   -4.1050    4.7116    2.2208 H   0  0  0  0  0  0  0  0  0  0  0  0
   -2.8510    4.0628    3.3688 H   0  0  0  0  0  0  0  0  0  0  0  0
   -2.4156    6.4104    1.3621 H   0  0  0  0  0  0  0  0  0  0  0  0
   -1.1744    5.7429    2.5158 H   0  0  0  0  0  0  0  0  0  0  0  0
  1  2  2  0  0  0  0
  2  3  1  0  0  0  0
  3 11  1  0  0  0  0
  3 12  1  0  0  0  0
  4 13  1  6  0  0  0
  4  3  1  0  0  0  0
  4  6  1  0  0  0  0
  5  4  1  0  0  0  0
  5  6  1  0  0  0  0
  6 14  1  1  0  0  0
  7  6  1  0  0  0  0
  7  9  1  0  0  0  0
  7  8  1  0  0  0  0
  8 17  1  0  0  0  0
  9  8  1  0  0  0  0
  9 19  1  0  0  0  0
 10  2  1  0  0  0  0
 15  7  1  0  0  0  0
 16  8  1  0  0  0  0
 18  9  1  0  0  0  0
M TOR 0 0 1 2 3
M TOR 1 0 1 2 10
M TOR 2 0 1 2 11
M TOR 3 1 2 3 4
M TOR 4 1 2 3 5
M TOR 5 1 2 3 12
M TOR 6 2 3 4 5
M TOR 7 2 3 5 6
M TOR 8 2 3 5 13
M TOR 9 3 2 1 9
M TOR 10 3 4 5 6
M TOR 11 3 4 5 13
M TOR 12 3 5 6 7
M TOR 13 3 5 6 8
M TOR 14 3 5 6 14
M TOR 15 4 3 2 10
M TOR 16 4 3 2 11
M TOR 17 4 5 3 12
M TOR 18 4 5 6 7
M TOR 19 4 5 6 8
M TOR 20 4 5 6 14
M TOR 21 5 3 2 10
M TOR 22 5 3 2 11
M TOR 23 5 6 7 8
M TOR 24 5 6 7 15
M TOR 25 5 6 7 16
M TOR 26 5 6 8 17
M TOR 27 5 6 8 18
M TOR 28 6 5 3 12
M TOR 29 6 7 8 17
M TOR 30 6 7 8 18
M TOR 31 6 8 7 15
M TOR 32 6 8 7 16
M TOR 33 7 6 5 13
M TOR 34 7 8 6 14
M TOR 35 8 6 5 13
M  END
$$$$
