
     RDKit          3D

 19 19  0  0  0  0  0  0  0  0999 V2000
    1.5368    0.0030    0.0867 C   0  0  0  0  0  0  0  0  0  0  0  0
    0.0815    0.0072    0.0501 C   0  0  0  0  0  0  0  0  0  0  0  0
   -1.1228    0.0066    0.0101 C   0  0  0  0  0  0  0  0  0  0  0  0
   -2.5600    0.0218   -0.0481 C   0  0  0  0  0  0  0  0  0  0  0  0
   -3.1813    0.5602   -1.3403 C   0  0  0  0  0  0  0  0  0  0  0  0
   -3.0712   -0.3527   -2.4113 O   0  0  0  0  0  0  0  0  0  0  0  0
   -3.3450    0.2422    1.2504 C   0  0  0  0  0  0  0  0  0  0  0  0
   -3.3058   -1.1173    0.6168 C   0  0  0  0  0  0  0  0  0  0  0  0
   -4.4170   -1.6022   -0.0872 O   0  0  0  0  0  0  0  0  0  0  0  0
    1.9262    0.7903    0.7423 H   0  0  0  0  0  0  0  0  0  0  0  0
    1.9246   -0.9545    0.4524 H   0  0  0  0  0  0  0  0  0  0  0  0
    1.9559    0.1674   -0.9122 H   0  0  0  0  0  0  0  0  0  0  0  0
   -4.2293    0.8285   -1.1496 H   0  0  0  0  0  0  0  0  0  0  0  0
   -2.6510    1.4669   -1.6454 H   0  0  0  0  0  0  0  0  0  0  0  0
   -3.5938   -1.1229   -2.1582 H   0  0  0  0  0  0  0  0  0  0  0  0
   -2.7848    0.4026    2.1638 H   0  0  0  0  0  0  0  0  0  0  0  0
   -4.2656    0.8100    1.1627 H   0  0  0  0  0  0  0  0  0  0  0  0
   -2.7005   -1.8843    1.0957 H   0  0  0  0  0  0  0  0  0  0  0  0
   -5.1192   -1.8024    0.5402 H   0  0  0  0  0  0  0  0  0  0  0  0
  1  2  1  0
  2  3  3  0
  3  4  1  0
  4  5  1  0
  5  6  1  0
  4  7  1  0
  7  8  1  0
  8  9  1  0
  8  4  1  0
  1 10  1  0
  1 11  1  0
  1 12  1  0
  5 13  1  0
  5 14  1  0
  6 15  1  0
  7 16  1  0
  7 17  1  0
  8 18  1  0
  9 19  1  0
M  END
$$$$
