
     RDKit          3D

 19 21  0  0  0  0  0  0  0  0999 V2000
    2.6054    2.2524    0.7129 C   0  0  0  0  0  0  0  0  0  0  0  0
    2.4128    0.8360    1.1654 C   0  0  0  0  0  0  0  0  0  0  0  0
    2.7052    0.3962    2.6163 C   0  0  0  0  0  0  0  0  0  0  0  0
    1.9977   -0.9534    2.4247 C   0  0  0  0  0  0  0  0  0  0  0  0
    0.6212   -0.5277    2.1938 O   0  0  0  0  0  0  0  0  0  0  0  0
    1.0874   -0.0635    0.9202 C   0  0  0  0  0  0  0  0  0  0  0  0
    0.0547    0.2969   -0.0999 C   0  0  0  0  0  0  0  0  0  0  0  0
    2.2116   -1.1023    0.8503 C   0  0  0  0  0  0  0  0  0  0  0  0
    3.1924   -0.1621    0.4224 O   0  0  0  0  0  0  0  0  0  0  0  0
    1.9674    2.9244    1.2955 H   0  0  0  0  0  0  0  0  0  0  0  0
    3.6457    2.5645    0.8531 H   0  0  0  0  0  0  0  0  0  0  0  0
    2.3566    2.3668   -0.3460 H   0  0  0  0  0  0  0  0  0  0  0  0
    3.7813    0.3397    2.7934 H   0  0  0  0  0  0  0  0  0  0  0  0
    2.2098    0.9871    3.3892 H   0  0  0  0  0  0  0  0  0  0  0  0
    2.0973   -1.7559    3.1524 H   0  0  0  0  0  0  0  0  0  0  0  0
   -0.6430   -0.5315   -0.2527 H   0  0  0  0  0  0  0  0  0  0  0  0
   -0.5190    1.1737    0.2185 H   0  0  0  0  0  0  0  0  0  0  0  0
    0.5364    0.5284   -1.0545 H   0  0  0  0  0  0  0  0  0  0  0  0
    2.2167   -2.0715    0.3544 H   0  0  0  0  0  0  0  0  0  0  0  0
  1  2  1  0
  2  3  1  0
  3  4  1  0
  4  5  1  0
  5  6  1  0
  6  7  1  0
  6  8  1  0
  8  9  1  0
  6  2  1  0
  9  2  1  0
  8  4  1  0
  1 10  1  0
  1 11  1  0
  1 12  1  0
  3 13  1  0
  3 14  1  0
  4 15  1  0
  7 16  1  0
  7 17  1  0
  7 18  1  0
  8 19  1  0
M  END
$$$$
