
     RDKit          3D

 19 18  0  0  0  0  0  0  0  0999 V2000
    5.4819   -1.6302   -2.9657 C   0  0  0  0  0  0  0  0  0  0  0  0
    4.6706   -1.3754   -1.6930 C   0  0  0  0  0  0  0  0  0  0  0  0
    4.7956    0.0789   -1.1998 C   0  0  0  0  0  0  0  0  0  0  0  0
    3.9797    0.3397    0.0537 C   0  0  0  0  0  0  0  0  0  0  0  0
    4.4802    0.5727    1.1341 O   0  0  0  0  0  0  0  0  0  0  0  0
    2.5366    0.2821   -0.1078 C   0  0  0  0  0  0  0  0  0  0  0  0
    1.3361    0.2507   -0.2423 C   0  0  0  0  0  0  0  0  0  0  0  0
   -0.1216    0.1936   -0.3272 C   0  0  0  0  0  0  0  0  0  0  0  0
   -0.7826    0.7601    0.7896 O   0  0  0  0  0  0  0  0  0  0  0  0
    5.3821   -2.6693   -3.2938 H   0  0  0  0  0  0  0  0  0  0  0  0
    5.1447   -0.9863   -3.7854 H   0  0  0  0  0  0  0  0  0  0  0  0
    6.5467   -1.4314   -2.8042 H   0  0  0  0  0  0  0  0  0  0  0  0
    3.6143   -1.6058   -1.8729 H   0  0  0  0  0  0  0  0  0  0  0  0
    5.0058   -2.0511   -0.8971 H   0  0  0  0  0  0  0  0  0  0  0  0
    5.8363    0.3197   -0.9636 H   0  0  0  0  0  0  0  0  0  0  0  0
    4.4528    0.7591   -1.9903 H   0  0  0  0  0  0  0  0  0  0  0  0
   -0.4654    0.7579   -1.2014 H   0  0  0  0  0  0  0  0  0  0  0  0
   -0.4200   -0.8549   -0.4929 H   0  0  0  0  0  0  0  0  0  0  0  0
   -0.4090    0.3658    1.5851 H   0  0  0  0  0  0  0  0  0  0  0  0
  1  2  1  0
  2  3  1  0
  3  4  1  0
  4  5  2  0
  4  6  1  0
  6  7  3  0
  7  8  1  0
  8  9  1  0
  1 10  1  0
  1 11  1  0
  1 12  1  0
  2 13  1  0
  2 14  1  0
  3 15  1  0
  3 16  1  0
  8 17  1  0
  8 18  1  0
  9 19  1  0
M  END
$$$$
