
     RDKit          3D

 19 19  0  0  0  0  0  0  0  0999 V2000
    1.4117   -0.0113   -0.0877 C   0  0  0  0  0  0  0  0  0  0  0  0
    0.0220   -0.1024    0.2037 O   0  0  0  0  0  0  0  0  0  0  0  0
   -0.3962    0.6969    1.2641 C   0  0  0  0  0  0  0  0  0  0  0  0
   -0.0083    0.2245    2.6471 C   0  0  0  0  0  0  0  0  0  0  0  0
   -0.5608    2.1700    0.9745 C   0  0  0  0  0  0  0  0  0  0  0  0
   -0.1955    2.6987   -0.2549 O   0  0  0  0  0  0  0  0  0  0  0  0
   -1.8062    1.2761    1.0762 C   0  0  0  0  0  0  0  0  0  0  0  0
   -2.5260    1.0315   -0.1338 C   0  0  0  0  0  0  0  0  0  0  0  0
   -3.1028    0.8928   -1.1820 C   0  0  0  0  0  0  0  0  0  0  0  0
    2.0286   -0.4266    0.7209 H   0  0  0  0  0  0  0  0  0  0  0  0
    1.5753   -0.6082   -0.9879 H   0  0  0  0  0  0  0  0  0  0  0  0
    1.7103    1.0249   -0.2782 H   0  0  0  0  0  0  0  0  0  0  0  0
   -0.3893   -0.7861    2.8263 H   0  0  0  0  0  0  0  0  0  0  0  0
    1.0794    0.2097    2.7716 H   0  0  0  0  0  0  0  0  0  0  0  0
   -0.4178    0.8878    3.4146 H   0  0  0  0  0  0  0  0  0  0  0  0
   -0.3947    2.8797    1.7804 H   0  0  0  0  0  0  0  0  0  0  0  0
   -0.7655    2.3046   -0.9299 H   0  0  0  0  0  0  0  0  0  0  0  0
   -2.4094    1.3693    1.9744 H   0  0  0  0  0  0  0  0  0  0  0  0
   -3.6275    0.7260   -2.0900 H   0  0  0  0  0  0  0  0  0  0  0  0
  1  2  1  0
  2  3  1  0
  3  4  1  0
  3  5  1  0
  5  6  1  0
  5  7  1  0
  7  8  1  0
  8  9  3  0
  7  3  1  0
  1 10  1  0
  1 11  1  0
  1 12  1  0
  4 13  1  0
  4 14  1  0
  4 15  1  0
  5 16  1  0
  6 17  1  0
  7 18  1  0
  9 19  1  0
M  END
$$$$
