
     RDKit          3D

 19 20  0  0  0  0  0  0  0  0999 V2000
    1.4727    0.0063    0.0428 C   0  0  0  0  0  0  0  0  0  0  0  0
    0.0495    0.0196    0.0320 O   0  0  0  0  0  0  0  0  0  0  0  0
   -0.5147    0.6356    1.1405 C   0  0  0  0  0  0  0  0  0  0  0  0
   -0.4438   -0.0996    2.5224 C   0  0  0  0  0  0  0  0  0  0  0  0
   -1.9960   -0.0271    2.6410 C   0  0  0  0  0  0  0  0  0  0  0  0
   -2.0789    0.7624    1.3113 C   0  0  0  0  0  0  0  0  0  0  0  0
   -1.9475    2.3038    1.4710 C   0  0  0  0  0  0  0  0  0  0  0  0
   -0.4266    2.1735    1.2514 C   0  0  0  0  0  0  0  0  0  0  0  0
    0.4598    2.9658    1.0987 O   0  0  0  0  0  0  0  0  0  0  0  0
    1.8631   -0.5460    0.9096 H   0  0  0  0  0  0  0  0  0  0  0  0
    1.7866   -0.5041   -0.8702 H   0  0  0  0  0  0  0  0  0  0  0  0
    1.8815    1.0223    0.0559 H   0  0  0  0  0  0  0  0  0  0  0  0
   -0.0705   -1.1181    2.3944 H   0  0  0  0  0  0  0  0  0  0  0  0
    0.1367    0.3911    3.3070 H   0  0  0  0  0  0  0  0  0  0  0  0
   -2.4708   -1.0093    2.5950 H   0  0  0  0  0  0  0  0  0  0  0  0
   -2.3853    0.4986    3.5167 H   0  0  0  0  0  0  0  0  0  0  0  0
   -2.7641    0.4145    0.5406 H   0  0  0  0  0  0  0  0  0  0  0  0
   -2.4162    2.8825    0.6683 H   0  0  0  0  0  0  0  0  0  0  0  0
   -2.2565    2.7326    2.4288 H   0  0  0  0  0  0  0  0  0  0  0  0
  1  2  1  0
  2  3  1  0
  3  4  1  0
  4  5  1  0
  5  6  1  0
  6  7  1  0
  7  8  1  0
  8  9  2  0
  6  3  1  0
  8  3  1  0
  1 10  1  0
  1 11  1  0
  1 12  1  0
  4 13  1  0
  4 14  1  0
  5 15  1  0
  5 16  1  0
  6 17  1  0
  7 18  1  0
  7 19  1  0
M  END
$$$$
