gdb 3640	2.3874163	1.3639094	1.1135272	1.6062	76.64	-0.25745	0.03476	0.29221	1191.1123	0.154696	-422.529377	-422.519885	-422.518941	-422.564252	34.637
 OpenBabel02181911413D

 19 19  0  0  1  0  0  0  0  0999 V2000
    0.7746    1.1925    0.5423 C   0  0  0  0  0  0  0  0  0  0  0  0
    1.1738   -0.2631    0.6860 C   0  0  1  0  0  0  0  0  0  0  0  0
    2.4167   -0.3474    1.3888 O   0  0  0  0  0  0  0  0  0  0  0  0
    2.4575   -1.6503    1.9139 C   0  0  1  0  0  0  0  0  0  0  0  0
    1.1306   -1.9890    2.2790 O   0  0  0  0  0  0  0  0  0  0  0  0
    0.2356   -1.1321    1.5520 C   0  0  2  0  0  0  0  0  0  0  0  0
   -0.7782   -1.9533    0.7704 C   0  0  0  0  0  0  0  0  0  0  0  0
    3.0038   -2.6231    0.9461 C   0  0  0  0  0  0  0  0  0  0  0  0
    3.4663   -3.4159    0.1704 C   0  0  0  0  0  0  0  0  0  0  0  0
    0.6899    1.6653    1.5251 H   0  0  0  0  0  0  0  0  0  0  0  0
    1.5185    1.7389   -0.0432 H   0  0  0  0  0  0  0  0  0  0  0  0
   -0.1891    1.2725    0.0295 H   0  0  0  0  0  0  0  0  0  0  0  0
    1.2867   -0.7278   -0.3059 H   0  0  0  0  0  0  0  0  0  0  0  0
    3.0798   -1.6304    2.8154 H   0  0  0  0  0  0  0  0  0  0  0  0
   -0.2800   -0.4969    2.2859 H   0  0  0  0  0  0  0  0  0  0  0  0
   -1.3675   -2.5784    1.4463 H   0  0  0  0  0  0  0  0  0  0  0  0
   -1.4669   -1.2963    0.2276 H   0  0  0  0  0  0  0  0  0  0  0  0
   -0.2724   -2.6043    0.0516 H   0  0  0  0  0  0  0  0  0  0  0  0
    3.8759   -4.1181   -0.5135 H   0  0  0  0  0  0  0  0  0  0  0  0
  1  2  1  0  0  0  0
  1 10  1  0  0  0  0
  2 13  1  6  0  0  0
  2  3  1  0  0  0  0
  2  6  1  0  0  0  0
  3  4  1  0  0  0  0
  4  5  1  0  0  0  0
  4 14  1  1  0  0  0
  6  5  1  0  0  0  0
  6 15  1  1  0  0  0
  7 16  1  0  0  0  0
  7  6  1  0  0  0  0
  8  4  1  0  0  0  0
  9  8  3  0  0  0  0
 11  1  1  0  0  0  0
 12  1  1  0  0  0  0
 17  7  1  0  0  0  0
 18  7  1  0  0  0  0
 19  9  1  0  0  0  0
M TOR 0 0 1 2 3
M TOR 1 0 1 5 4
M TOR 2 0 1 5 6
M TOR 3 0 1 5 14
M TOR 4 1 2 3 4
M TOR 5 1 2 3 7
M TOR 6 1 2 3 13
M TOR 7 1 5 4 3
M TOR 8 1 5 6 15
M TOR 9 1 5 6 16
M TOR 10 1 5 6 17
M TOR 11 2 1 0 9
M TOR 12 2 1 0 10
M TOR 13 2 1 0 11
M TOR 14 2 1 5 4
M TOR 15 2 1 5 6
M TOR 16 2 1 5 14
M TOR 17 2 3 4 5
M TOR 18 2 3 7 8
M TOR 19 3 2 1 5
M TOR 20 3 2 1 12
M TOR 21 3 4 5 6
M TOR 22 3 4 5 14
M TOR 23 3 7 8 18
M TOR 24 4 3 7 8
M TOR 25 4 5 1 12
M TOR 26 4 5 6 15
M TOR 27 4 5 6 16
M TOR 28 4 5 6 17
M TOR 29 5 1 0 9
M TOR 30 5 1 0 10
M TOR 31 5 1 0 11
M TOR 32 5 4 3 7
M TOR 33 5 4 3 13
M TOR 34 6 5 1 12
M TOR 35 8 7 3 13
M  END
$$$$
