gdb 1911	2.5991831	1.5269874	1.1522674	3.2866	75.71	-0.24153	-0.02476	0.21677	1114.3772	0.15724	-422.581068	-422.572757	-422.571813	-422.613741	31.823
 OpenBabel02181911403D

 19 20  0  0  1  0  0  0  0  0999 V2000
   -2.8105   -2.5107   -0.9876 C   0  0  0  0  0  0  0  0  0  0  0  0
   -2.2033   -1.2634   -0.3875 C   0  0  2  0  0  0  0  0  0  0  0  0
   -2.9898    0.0334   -0.5696 C   0  0  0  0  0  0  0  0  0  0  0  0
   -2.1231    1.2980   -0.6988 C   0  0  0  0  0  0  0  0  0  0  0  0
   -0.9022    1.2851    0.2439 C   0  0  0  0  0  0  0  0  0  0  0  0
   -0.0230    0.1060   -0.1235 C   0  0  0  0  0  0  0  0  0  0  0  0
    1.1428    0.1941   -0.4359 O   0  0  0  0  0  0  0  0  0  0  0  0
   -0.7342   -1.2169   -0.1455 C   0  0  1  0  0  0  0  0  0  0  0  0
   -1.6671   -1.4324    0.9267 O   0  0  0  0  0  0  0  0  0  0  0  0
   -3.8322   -2.6507   -0.6173 H   0  0  0  0  0  0  0  0  0  0  0  0
   -2.8564   -2.4343   -2.0788 H   0  0  0  0  0  0  0  0  0  0  0  0
   -2.2250   -3.3932   -0.7194 H   0  0  0  0  0  0  0  0  0  0  0  0
   -3.6355   -0.0572   -1.4494 H   0  0  0  0  0  0  0  0  0  0  0  0
   -3.6562    0.1189    0.2977 H   0  0  0  0  0  0  0  0  0  0  0  0
   -1.7621    1.3872   -1.7309 H   0  0  0  0  0  0  0  0  0  0  0  0
   -2.7332    2.1862   -0.5071 H   0  0  0  0  0  0  0  0  0  0  0  0
   -0.3123    2.1995    0.1539 H   0  0  0  0  0  0  0  0  0  0  0  0
   -1.2338    1.1757    1.2828 H   0  0  0  0  0  0  0  0  0  0  0  0
   -0.1115   -2.0703   -0.4088 H   0  0  0  0  0  0  0  0  0  0  0  0
  1 12  1  0  0  0  0
  1 10  1  0  0  0  0
  2  1  1  6  0  0  0
  2  8  1  0  0  0  0
  2  9  1  0  0  0  0
  3  2  1  0  0  0  0
  3 14  1  0  0  0  0
  4  3  1  0  0  0  0
  4 16  1  0  0  0  0
  4  5  1  0  0  0  0
  5 18  1  0  0  0  0
  6  5  1  0  0  0  0
  7  6  2  0  0  0  0
  8 19  1  6  0  0  0
  8  6  1  0  0  0  0
  8  9  1  0  0  0  0
 11  1  1  0  0  0  0
 13  3  1  0  0  0  0
 15  4  1  0  0  0  0
 17  5  1  0  0  0  0
M TOR 0 0 1 2 3
M TOR 1 0 1 2 12
M TOR 2 0 1 2 13
M TOR 3 0 1 7 5
M TOR 4 0 1 7 8
M TOR 5 0 1 7 18
M TOR 6 1 2 3 4
M TOR 7 1 2 3 14
M TOR 8 1 2 3 15
M TOR 9 1 7 5 4
M TOR 10 1 7 5 6
M TOR 11 1 8 7 5
M TOR 12 1 8 7 18
M TOR 13 2 1 0 9
M TOR 14 2 1 0 10
M TOR 15 2 1 0 11
M TOR 16 2 1 7 5
M TOR 17 2 1 7 8
M TOR 18 2 1 7 18
M TOR 19 2 3 4 5
M TOR 20 2 3 4 16
M TOR 21 2 3 4 17
M TOR 22 3 2 1 7
M TOR 23 3 2 1 8
M TOR 24 3 4 5 6
M TOR 25 3 4 5 7
M TOR 26 4 3 2 12
M TOR 27 4 3 2 13
M TOR 28 4 5 7 8
M TOR 29 4 5 7 18
M TOR 30 5 4 3 14
M TOR 31 5 4 3 15
M TOR 32 6 5 4 16
M TOR 33 6 5 4 17
M TOR 34 6 5 7 8
M TOR 35 6 5 7 18
M TOR 36 7 1 0 9
M TOR 37 7 1 0 10
M TOR 38 7 1 0 11
M TOR 39 7 1 2 12
M TOR 40 7 1 2 13
M TOR 41 7 5 4 16
M TOR 42 7 5 4 17
M TOR 43 8 1 0 9
M TOR 44 8 1 0 10
M TOR 45 8 1 0 11
M TOR 46 8 1 2 12
M TOR 47 8 1 2 13
M  END
$$$$
