
     RDKit          3D

 19 21  0  0  0  0  0  0  0  0999 V2000
    1.3919    1.3009    0.0144 C   0  0  0  0  0  0  0  0  0  0  0  0
    1.2803   -0.2229    0.0064 C   0  0  0  0  0  0  0  0  0  0  0  0
    1.9886   -1.0716    1.0998 C   0  0  0  0  0  0  0  0  0  0  0  0
    1.4753   -2.4673    0.6612 C   0  0  0  0  0  0  0  0  0  0  0  0
    1.4544   -2.3995   -0.7843 O   0  0  0  0  0  0  0  0  0  0  0  0
    1.9049   -1.0678   -1.1252 C   0  0  0  0  0  0  0  0  0  0  0  0
    3.4053   -1.1029   -0.8140 C   0  0  0  0  0  0  0  0  0  0  0  0
    3.9391    0.0172   -0.0956 O   0  0  0  0  0  0  0  0  0  0  0  0
    3.4547   -1.1018    0.6538 C   0  0  0  0  0  0  0  0  0  0  0  0
    0.8876    1.7024    0.9006 H   0  0  0  0  0  0  0  0  0  0  0  0
    2.4202    1.6530    0.0109 H   0  0  0  0  0  0  0  0  0  0  0  0
    0.8781    1.7144   -0.8610 H   0  0  0  0  0  0  0  0  0  0  0  0
    0.2139   -0.4746    0.0183 H   0  0  0  0  0  0  0  0  0  0  0  0
    1.7890   -0.8158    2.1407 H   0  0  0  0  0  0  0  0  0  0  0  0
    2.1305   -3.2875    0.9785 H   0  0  0  0  0  0  0  0  0  0  0  0
    0.4624   -2.6666    1.0308 H   0  0  0  0  0  0  0  0  0  0  0  0
    1.6024   -0.8557   -2.1505 H   0  0  0  0  0  0  0  0  0  0  0  0
    4.0974   -1.6504   -1.4455 H   0  0  0  0  0  0  0  0  0  0  0  0
    4.1998   -1.6464    1.2269 H   0  0  0  0  0  0  0  0  0  0  0  0
  1  2  1  0
  2  3  1  0
  3  4  1  0
  4  5  1  0
  5  6  1  0
  6  7  1  0
  7  8  1  0
  8  9  1  0
  6  2  1  0
  9  7  1  0
  9  3  1  0
  1 10  1  0
  1 11  1  0
  1 12  1  0
  2 13  1  0
  3 14  1  0
  4 15  1  0
  4 16  1  0
  6 17  1  0
  7 18  1  0
  9 19  1  0
M  END
$$$$
