gdb 172	2.9319576	1.9308518	1.9061257	1.5948	72.38	-0.25168	0.08255	0.33423	853.2545	0.16192	-422.542931	-422.536966	-422.536022	-422.572804	26.171
 OpenBabel02181911403D

 19 21  0  0  1  0  0  0  0  0999 V2000
   -0.2020    1.4236   -0.4065 C   0  0  0  0  0  0  0  0  0  0  0  0
   -0.1092   -0.1011   -0.0781 C   0  0  1  0  0  0  0  0  0  0  0  0
    1.4340    0.0899   -0.2133 C   0  0  0  0  0  0  0  0  0  0  0  0
    1.1593    1.5079    0.3520 C   0  0  2  0  0  0  0  0  0  0  0  0
    0.8421    1.3570    1.8851 C   0  0  2  0  0  0  0  0  0  0  0  0
    1.5154    0.2322    2.4628 O   0  0  0  0  0  0  0  0  0  0  0  0
    0.6152   -0.8785    2.2920 C   0  0  0  0  0  0  0  0  0  0  0  0
   -0.5021   -0.2620    1.4315 C   0  0  1  0  0  0  0  0  0  0  0  0
   -0.5271    1.0474    2.0285 O   0  0  0  0  0  0  0  0  0  0  0  0
   -0.0647    1.5993   -1.4756 H   0  0  0  0  0  0  0  0  0  0  0  0
   -1.0514    1.9925   -0.0323 H   0  0  0  0  0  0  0  0  0  0  0  0
   -0.6154   -0.8318   -0.7125 H   0  0  0  0  0  0  0  0  0  0  0  0
    2.1194   -0.5564    0.3317 H   0  0  0  0  0  0  0  0  0  0  0  0
    1.7300    0.1280   -1.2649 H   0  0  0  0  0  0  0  0  0  0  0  0
    1.8577    2.3219    0.1495 H   0  0  0  0  0  0  0  0  0  0  0  0
    1.0781    2.2478    2.4697 H   0  0  0  0  0  0  0  0  0  0  0  0
    1.1365   -1.7157    1.8187 H   0  0  0  0  0  0  0  0  0  0  0  0
    0.2321   -1.1941    3.2690 H   0  0  0  0  0  0  0  0  0  0  0  0
   -1.4826   -0.7198    1.5652 H   0  0  0  0  0  0  0  0  0  0  0  0
  1  2  1  0  0  0  0
  1 11  1  0  0  0  0
  1  4  1  0  0  0  0
  2 12  1  6  0  0  0
  2  8  1  0  0  0  0
  3  2  1  0  0  0  0
  3 13  1  0  0  0  0
  3  4  1  0  0  0  0
  4 15  1  6  0  0  0
  4  5  1  0  0  0  0
  5  9  1  0  0  0  0
  5  6  1  0  0  0  0
  5 16  1  1  0  0  0
  7  6  1  0  0  0  0
  7 18  1  0  0  0  0
  8 19  1  1  0  0  0
  8  9  1  0  0  0  0
  8  7  1  0  0  0  0
 10  1  1  0  0  0  0
 14  3  1  0  0  0  0
 17  7  1  0  0  0  0
M TOR 0 0 1 2 3
M TOR 1 0 1 2 12
M TOR 2 0 1 2 13
M TOR 3 0 1 7 6
M TOR 4 0 1 7 8
M TOR 5 0 1 7 18
M TOR 6 0 3 2 12
M TOR 7 0 3 2 13
M TOR 8 0 3 4 5
M TOR 9 0 3 4 8
M TOR 10 0 3 4 15
M TOR 11 1 0 3 4
M TOR 12 1 0 3 14
M TOR 13 1 2 3 4
M TOR 14 1 2 3 14
M TOR 15 1 7 6 5
M TOR 16 1 7 6 16
M TOR 17 1 7 6 17
M TOR 18 1 7 8 4
M TOR 19 2 1 0 9
M TOR 20 2 1 0 10
M TOR 21 2 1 7 6
M TOR 22 2 1 7 8
M TOR 23 2 1 7 18
M TOR 24 2 3 0 9
M TOR 25 2 3 0 10
M TOR 26 2 3 4 5
M TOR 27 2 3 4 8
M TOR 28 2 3 4 15
M TOR 29 3 0 1 7
M TOR 30 3 0 1 11
M TOR 31 3 2 1 7
M TOR 32 3 2 1 11
M TOR 33 3 4 5 6
M TOR 34 3 4 8 7
M TOR 35 4 3 0 9
M TOR 36 4 3 0 10
M TOR 37 4 3 2 12
M TOR 38 4 3 2 13
M TOR 39 4 5 6 7
M TOR 40 4 5 6 16
M TOR 41 4 5 6 17
M TOR 42 4 8 7 6
M TOR 43 4 8 7 18
M TOR 44 5 4 3 14
M TOR 45 5 4 8 7
M TOR 46 5 6 7 8
M TOR 47 5 6 7 18
M TOR 48 6 5 4 8
M TOR 49 6 5 4 15
M TOR 50 6 7 1 11
M TOR 51 7 1 0 9
M TOR 52 7 1 0 10
M TOR 53 7 1 2 12
M TOR 54 7 1 2 13
M TOR 55 7 8 4 15
M TOR 56 8 4 3 14
M TOR 57 8 7 1 11
M TOR 58 8 7 6 16
M TOR 59 8 7 6 17
M  END
$$$$
