gdb 4571	3.4303227	1.0343097	0.9352597	1.2934	76.88	-0.24976	0.05147	0.30123	1313.8369	0.155132	-422.526459	-422.516858	-422.515914	-422.562168	33.962
 OpenBabel02181911413D

 19 19  0  0  1  0  0  0  0  0999 V2000
    5.2452    2.1962   -1.3265 C   0  0  0  0  0  0  0  0  0  0  0  0
    4.6514    1.3669   -0.1910 C   0  0  1  0  0  0  0  0  0  0  0  0
    4.8598    1.9755    1.0867 O   0  0  0  0  0  0  0  0  0  0  0  0
    3.7445    2.8002    1.3499 C   0  0  0  0  0  0  0  0  0  0  0  0
    2.7091    2.4351    0.4556 O   0  0  0  0  0  0  0  0  0  0  0  0
    3.1178    1.2631   -0.2389 C   0  0  2  0  0  0  0  0  0  0  0  0
    2.5921   -0.0222    0.4349 C   0  0  0  0  0  0  0  0  0  0  0  0
    1.1397   -0.0712    0.5242 C   0  0  0  0  0  0  0  0  0  0  0  0
   -0.0600   -0.1089    0.5783 C   0  0  0  0  0  0  0  0  0  0  0  0
    5.1609    1.6621   -2.2787 H   0  0  0  0  0  0  0  0  0  0  0  0
    4.7233    3.1532   -1.4240 H   0  0  0  0  0  0  0  0  0  0  0  0
    6.3029    2.3945   -1.1345 H   0  0  0  0  0  0  0  0  0  0  0  0
    5.1294    0.3829   -0.1470 H   0  0  0  0  0  0  0  0  0  0  0  0
    3.4449    2.6449    2.3959 H   0  0  0  0  0  0  0  0  0  0  0  0
    3.9759    3.8638    1.1879 H   0  0  0  0  0  0  0  0  0  0  0  0
    2.7217    1.3351   -1.2560 H   0  0  0  0  0  0  0  0  0  0  0  0
    2.9558   -0.8862   -0.1372 H   0  0  0  0  0  0  0  0  0  0  0  0
    3.0379   -0.0996    1.4344 H   0  0  0  0  0  0  0  0  0  0  0  0
   -1.1196   -0.1390    0.6357 H   0  0  0  0  0  0  0  0  0  0  0  0
  1 12  1  0  0  0  0
  1  2  1  0  0  0  0
  2 13  1  6  0  0  0
  2  3  1  0  0  0  0
  3  4  1  0  0  0  0
  4 14  1  0  0  0  0
  5  4  1  0  0  0  0
  6 16  1  6  0  0  0
  6  2  1  0  0  0  0
  6  7  1  0  0  0  0
  6  5  1  0  0  0  0
  7  8  1  0  0  0  0
  7 18  1  0  0  0  0
  8  9  3  0  0  0  0
  9 19  1  0  0  0  0
 10  1  1  0  0  0  0
 11  1  1  0  0  0  0
 15  4  1  0  0  0  0
 17  7  1  0  0  0  0
M TOR 0 0 1 2 3
M TOR 1 0 1 5 4
M TOR 2 0 1 5 6
M TOR 3 0 1 5 15
M TOR 4 1 2 3 4
M TOR 5 1 2 3 13
M TOR 6 1 2 3 14
M TOR 7 1 5 4 3
M TOR 8 1 5 6 7
M TOR 9 1 5 6 16
M TOR 10 1 5 6 17
M TOR 11 2 1 0 9
M TOR 12 2 1 0 10
M TOR 13 2 1 0 11
M TOR 14 2 1 5 4
M TOR 15 2 1 5 6
M TOR 16 2 1 5 15
M TOR 17 2 3 4 5
M TOR 18 3 2 1 5
M TOR 19 3 2 1 12
M TOR 20 3 4 5 6
M TOR 21 3 4 5 15
M TOR 22 4 5 1 12
M TOR 23 4 5 6 7
M TOR 24 4 5 6 16
M TOR 25 4 5 6 17
M TOR 26 5 1 0 9
M TOR 27 5 1 0 10
M TOR 28 5 1 0 11
M TOR 29 5 4 3 13
M TOR 30 5 4 3 14
M TOR 31 5 6 7 8
M TOR 32 6 5 1 12
M TOR 33 6 7 8 18
M TOR 34 7 6 5 15
M TOR 35 8 7 6 16
M TOR 36 8 7 6 17
M  END
$$$$
