
     RDKit          3D

 19 20  0  0  0  0  0  0  0  0999 V2000
    2.4206    0.0113    1.4644 O   0  0  0  0  0  0  0  0  0  0  0  0
    1.5256    0.2994    0.7155 C   0  0  0  0  0  0  0  0  0  0  0  0
    0.0577    0.0885    1.0395 C   0  0  0  0  0  0  0  0  0  0  0  0
   -0.7046    0.6380   -0.0155 O   0  0  0  0  0  0  0  0  0  0  0  0
   -2.0647    0.4219    0.1000 C   0  0  0  0  0  0  0  0  0  0  0  0
   -2.6893   -0.9059   -0.2291 C   0  0  0  0  0  0  0  0  0  0  0  0
   -3.0784    0.3258   -1.0233 C   0  0  0  0  0  0  0  0  0  0  0  0
   -4.0728    1.1643   -0.2090 C   0  0  0  0  0  0  0  0  0  0  0  0
   -3.0110    1.2924    0.9372 C   0  0  0  0  0  0  0  0  0  0  0  0
    1.7010    0.7422   -0.2898 H   0  0  0  0  0  0  0  0  0  0  0  0
   -0.1297   -0.9912    1.1530 H   0  0  0  0  0  0  0  0  0  0  0  0
   -0.1671    0.5627    2.0069 H   0  0  0  0  0  0  0  0  0  0  0  0
   -2.0292   -1.5870   -0.7570 H   0  0  0  0  0  0  0  0  0  0  0  0
   -3.4030   -1.3854    0.4380 H   0  0  0  0  0  0  0  0  0  0  0  0
   -2.9252    0.3770   -2.0938 H   0  0  0  0  0  0  0  0  0  0  0  0
   -4.3090    2.1270   -0.6663 H   0  0  0  0  0  0  0  0  0  0  0  0
   -5.0079    0.6601    0.0537 H   0  0  0  0  0  0  0  0  0  0  0  0
   -2.6413    2.3157    1.0347 H   0  0  0  0  0  0  0  0  0  0  0  0
   -3.2879    0.9153    1.9268 H   0  0  0  0  0  0  0  0  0  0  0  0
  1  2  2  0
  2  3  1  0
  3  4  1  0
  4  5  1  0
  5  6  1  0
  6  7  1  0
  7  8  1  0
  8  9  1  0
  7  5  1  0
  9  5  1  0
  2 10  1  0
  3 11  1  0
  3 12  1  0
  6 13  1  0
  6 14  1  0
  7 15  1  0
  8 16  1  0
  8 17  1  0
  9 18  1  0
  9 19  1  0
M  END
$$$$
