gdb 1182	2.4338898	1.2667364	1.0256229	1.9941	77.23	-0.23217	0.03646	0.26863	1233.0102	0.153441	-422.510727	-422.500708	-422.499764	-422.545197	37.504
 OpenBabel02181911403D

 19 19  0  0  1  0  0  0  0  0999 V2000
   -4.1567   -2.0843    3.3760 C   0  0  0  0  0  0  0  0  0  0  0  0
   -3.8837   -1.1895    2.1492 C   0  0  2  0  0  0  0  0  0  0  0  0
   -2.6385   -0.4335    2.3086 C   0  0  0  0  0  0  0  0  0  0  0  0
   -1.6562    0.2402    2.4792 C   0  0  0  0  0  0  0  0  0  0  0  0
   -5.0303   -0.2133    1.8946 C   0  0  2  0  0  0  0  0  0  0  0  0
   -5.1805    0.7767    2.8854 O   0  0  0  0  0  0  0  0  0  0  0  0
   -6.3297   -0.6849    1.2980 C   0  0  0  0  0  0  0  0  0  0  0  0
   -5.4141    0.2364    0.5072 C   0  0  1  0  0  0  0  0  0  0  0  0
   -5.7585    1.5700    0.3177 O   0  0  0  0  0  0  0  0  0  0  0  0
   -3.3174   -2.7593    3.5597 H   0  0  0  0  0  0  0  0  0  0  0  0
   -4.3107   -1.4681    4.2648 H   0  0  0  0  0  0  0  0  0  0  0  0
   -5.0583   -2.6803    3.2096 H   0  0  0  0  0  0  0  0  0  0  0  0
   -3.7914   -1.8277    1.2609 H   0  0  0  0  0  0  0  0  0  0  0  0
   -0.7671    0.8074    2.6070 H   0  0  0  0  0  0  0  0  0  0  0  0
   -4.3058    1.1726    3.0118 H   0  0  0  0  0  0  0  0  0  0  0  0
   -6.4178   -1.7257    1.0029 H   0  0  0  0  0  0  0  0  0  0  0  0
   -7.2342   -0.2423    1.7013 H   0  0  0  0  0  0  0  0  0  0  0  0
   -4.8855   -0.1705   -0.3498 H   0  0  0  0  0  0  0  0  0  0  0  0
   -5.7929    1.9600    1.2030 H   0  0  0  0  0  0  0  0  0  0  0  0
  1 10  1  0  0  0  0
  1 11  1  0  0  0  0
  2 13  1  6  0  0  0
  2  3  1  0  0  0  0
  2  1  1  0  0  0  0
  3  4  3  0  0  0  0
  4 14  1  0  0  0  0
  5  2  1  0  0  0  0
  5  6  1  1  0  0  0
  6 15  1  0  0  0  0
  7 17  1  0  0  0  0
  7  5  1  0  0  0  0
  8 18  1  6  0  0  0
  8  7  1  0  0  0  0
  8  5  1  0  0  0  0
  9  8  1  0  0  0  0
  9 19  1  0  0  0  0
 12  1  1  0  0  0  0
 16  7  1  0  0  0  0
M TOR 0 0 1 2 3
M TOR 1 0 1 4 5
M TOR 2 0 1 4 6
M TOR 3 0 1 4 7
M TOR 4 1 2 3 13
M TOR 5 1 4 5 14
M TOR 6 1 4 6 7
M TOR 7 1 4 6 15
M TOR 8 1 4 6 16
M TOR 9 1 4 7 8
M TOR 10 1 4 7 17
M TOR 11 2 1 0 9
M TOR 12 2 1 0 10
M TOR 13 2 1 0 11
M TOR 14 2 1 4 5
M TOR 15 2 1 4 6
M TOR 16 2 1 4 7
M TOR 17 3 2 1 4
M TOR 18 3 2 1 12
M TOR 19 4 1 0 9
M TOR 20 4 1 0 10
M TOR 21 4 1 0 11
M TOR 22 4 6 7 8
M TOR 23 4 6 7 17
M TOR 24 4 7 6 15
M TOR 25 4 7 6 16
M TOR 26 4 7 8 18
M TOR 27 5 4 1 12
M TOR 28 5 4 6 7
M TOR 29 5 4 6 15
M TOR 30 5 4 6 16
M TOR 31 5 4 7 8
M TOR 32 5 4 7 17
M TOR 33 6 4 1 12
M TOR 34 6 4 5 14
M TOR 35 6 7 8 18
M TOR 36 7 4 1 12
M TOR 37 7 4 5 14
M TOR 38 8 7 6 15
M TOR 39 8 7 6 16
M  END
$$$$
