
     RDKit          3D

 19 21  0  0  0  0  0  0  0  0999 V2000
   -0.1669   -0.0760    0.2426 C   0  0  0  0  0  0  0  0  0  0  0  0
    1.3349   -0.1236    0.0732 C   0  0  0  0  0  0  0  0  0  0  0  0
    1.9912   -0.7676    1.1405 O   0  0  0  0  0  0  0  0  0  0  0  0
    2.0248   -0.2660   -1.2713 C   0  0  0  0  0  0  0  0  0  0  0  0
    1.2474    0.0205   -2.5579 C   0  0  0  0  0  0  0  0  0  0  0  0
    0.9373    1.5131   -2.4897 C   0  0  0  0  0  0  0  0  0  0  0  0
    2.1007    2.3434   -2.5106 O   0  0  0  0  0  0  0  0  0  0  0  0
    1.4673    2.0918   -1.2448 C   0  0  0  0  0  0  0  0  0  0  0  0
    2.1576    1.0202   -0.4577 C   0  0  0  0  0  0  0  0  0  0  0  0
   -0.4154    0.3641    1.2133 H   0  0  0  0  0  0  0  0  0  0  0  0
   -0.6582    0.5104   -0.5362 H   0  0  0  0  0  0  0  0  0  0  0  0
   -0.5904   -1.0881    0.2152 H   0  0  0  0  0  0  0  0  0  0  0  0
    1.7603   -1.7028    1.1047 H   0  0  0  0  0  0  0  0  0  0  0  0
    2.8594   -0.9565   -1.3046 H   0  0  0  0  0  0  0  0  0  0  0  0
    1.8510   -0.2036   -3.4436 H   0  0  0  0  0  0  0  0  0  0  0  0
    0.3232   -0.5644   -2.6383 H   0  0  0  0  0  0  0  0  0  0  0  0
    0.0679    1.9206   -3.0007 H   0  0  0  0  0  0  0  0  0  0  0  0
    1.0301    2.9649   -0.7659 H   0  0  0  0  0  0  0  0  0  0  0  0
    3.0757    1.2519    0.0703 H   0  0  0  0  0  0  0  0  0  0  0  0
  1  2  1  0
  2  3  1  0
  2  4  1  0
  4  5  1  0
  5  6  1  0
  6  7  1  0
  7  8  1  0
  8  9  1  0
  9  2  1  0
  9  4  1  0
  8  6  1  0
  1 10  1  0
  1 11  1  0
  1 12  1  0
  3 13  1  0
  4 14  1  0
  5 15  1  0
  5 16  1  0
  6 17  1  0
  8 18  1  0
  9 19  1  0
M  END
$$$$
