
     RDKit          3D

 19 20  0  0  0  0  0  0  0  0999 V2000
   -0.3270    2.4819    0.6141 C   0  0  0  0  0  0  0  0  0  0  0  0
   -0.9547    1.2436    0.0278 C   0  0  0  0  0  0  0  0  0  0  0  0
   -1.6028    1.3586   -1.3838 C   0  0  0  0  0  0  0  0  0  0  0  0
   -2.6184    0.1798   -1.3656 C   0  0  0  0  0  0  0  0  0  0  0  0
   -2.3536   -0.4225    0.0338 C   0  0  0  0  0  0  0  0  0  0  0  0
   -1.0144   -1.1831    0.0433 C   0  0  0  0  0  0  0  0  0  0  0  0
   -0.0412    0.0030   -0.0425 C   0  0  0  0  0  0  0  0  0  0  0  0
    1.1552   -0.0189   -0.1541 O   0  0  0  0  0  0  0  0  0  0  0  0
   -2.0411    0.7370    0.8253 O   0  0  0  0  0  0  0  0  0  0  0  0
   -0.0416    2.3092    1.6551 H   0  0  0  0  0  0  0  0  0  0  0  0
    0.5773    2.7316    0.0524 H   0  0  0  0  0  0  0  0  0  0  0  0
   -1.0171    3.3290    0.5752 H   0  0  0  0  0  0  0  0  0  0  0  0
   -2.1074    2.3242   -1.4710 H   0  0  0  0  0  0  0  0  0  0  0  0
   -0.8656    1.2890   -2.1878 H   0  0  0  0  0  0  0  0  0  0  0  0
   -3.6464    0.5411   -1.4375 H   0  0  0  0  0  0  0  0  0  0  0  0
   -2.4580   -0.5427   -2.1698 H   0  0  0  0  0  0  0  0  0  0  0  0
   -3.1929   -0.9516    0.4840 H   0  0  0  0  0  0  0  0  0  0  0  0
   -0.8693   -1.7084    0.9927 H   0  0  0  0  0  0  0  0  0  0  0  0
   -0.8573   -1.8933   -0.7720 H   0  0  0  0  0  0  0  0  0  0  0  0
  1  2  1  0
  2  3  1  0
  3  4  1  0
  4  5  1  0
  5  6  1  0
  6  7  1  0
  7  8  2  0
  5  9  1  0
  7  2  1  0
  9  2  1  0
  1 10  1  0
  1 11  1  0
  1 12  1  0
  3 13  1  0
  3 14  1  0
  4 15  1  0
  4 16  1  0
  5 17  1  0
  6 18  1  0
  6 19  1  0
M  END
$$$$
