
     RDKit          3D

 19 21  0  0  0  0  0  0  0  0999 V2000
   -0.1061    0.0547    0.1788 C   0  0  0  0  0  0  0  0  0  0  0  0
    1.4003   -0.0490   -0.0157 C   0  0  0  0  0  0  0  0  0  0  0  0
    1.9331   -1.0484    0.8503 O   0  0  0  0  0  0  0  0  0  0  0  0
    2.2643    1.2148   -0.0315 C   0  0  0  0  0  0  0  0  0  0  0  0
    3.2257    0.6004   -1.0294 C   0  0  0  0  0  0  0  0  0  0  0  0
    2.0128   -0.3373   -1.4195 C   0  0  0  0  0  0  0  0  0  0  0  0
    1.4956    0.7868   -2.3598 C   0  0  0  0  0  0  0  0  0  0  0  0
    2.3434    1.7173   -1.4943 C   0  0  0  0  0  0  0  0  0  0  0  0
    2.7604    2.9974   -1.7947 O   0  0  0  0  0  0  0  0  0  0  0  0
   -0.3318    0.3481    1.2118 H   0  0  0  0  0  0  0  0  0  0  0  0
   -0.5607    0.8007   -0.4777 H   0  0  0  0  0  0  0  0  0  0  0  0
   -0.5818   -0.9140   -0.0038 H   0  0  0  0  0  0  0  0  0  0  0  0
    1.8143   -0.7476    1.7576 H   0  0  0  0  0  0  0  0  0  0  0  0
    2.5036    1.8879    0.7845 H   0  0  0  0  0  0  0  0  0  0  0  0
    4.2965    0.4696   -1.0140 H   0  0  0  0  0  0  0  0  0  0  0  0
    2.0874   -1.3688   -1.7552 H   0  0  0  0  0  0  0  0  0  0  0  0
    1.9304    0.6972   -3.3596 H   0  0  0  0  0  0  0  0  0  0  0  0
    0.4142    0.9431   -2.4430 H   0  0  0  0  0  0  0  0  0  0  0  0
    2.0582    3.6111   -1.5520 H   0  0  0  0  0  0  0  0  0  0  0  0
  1  2  1  0
  2  3  1  0
  2  4  1  0
  4  5  1  0
  5  6  1  0
  6  7  1  0
  7  8  1  0
  8  9  1  0
  6  2  1  0
  8  4  1  0
  8  5  1  0
  1 10  1  0
  1 11  1  0
  1 12  1  0
  3 13  1  0
  4 14  1  0
  5 15  1  0
  6 16  1  0
  7 17  1  0
  7 18  1  0
  9 19  1  0
M  END
$$$$
