gdb 1288	2.1296369	1.1733353	0.8710432	2.1133	79.53	-0.23731	0.04629	0.28359999999999996	1367.7397	0.153758	-422.506834	-422.496643	-422.495699	-422.541843	37.671
 OpenBabel02181911403D

 19 19  0  0  1  0  0  0  0  0999 V2000
    0.4423    2.9564    1.2941 C   0  0  0  0  0  0  0  0  0  0  0  0
   -1.0515    2.7848    1.0253 C   0  0  2  0  0  0  0  0  0  0  0  0
   -1.8255    3.3751    2.0696 O   0  0  0  0  0  0  0  0  0  0  0  0
   -1.5430    1.3592    0.7861 C   0  0  1  0  0  0  0  0  0  0  0  0
   -0.9608    0.3841   -0.1818 C   0  0  1  0  0  0  0  0  0  0  0  0
    0.1589    0.7718   -0.9171 O   0  0  0  0  0  0  0  0  0  0  0  0
   -0.8179    0.1127    1.3161 C   0  0  2  0  0  0  0  0  0  0  0  0
   -1.5418   -0.9486    1.9462 C   0  0  0  0  0  0  0  0  0  0  0  0
   -2.1587   -1.8432    2.4638 C   0  0  0  0  0  0  0  0  0  0  0  0
    1.0407    2.5567    0.4736 H   0  0  0  0  0  0  0  0  0  0  0  0
    0.6613    4.0198    1.4200 H   0  0  0  0  0  0  0  0  0  0  0  0
    0.7356    2.4438    2.2185 H   0  0  0  0  0  0  0  0  0  0  0  0
   -1.3157    3.3699    0.1359 H   0  0  0  0  0  0  0  0  0  0  0  0
   -1.6287    2.8932    2.8810 H   0  0  0  0  0  0  0  0  0  0  0  0
   -2.6248    1.3072    0.8639 H   0  0  0  0  0  0  0  0  0  0  0  0
   -1.6642   -0.2515   -0.7181 H   0  0  0  0  0  0  0  0  0  0  0  0
    0.6816   -0.0151   -1.1051 H   0  0  0  0  0  0  0  0  0  0  0  0
    0.1857    0.2907    1.6912 H   0  0  0  0  0  0  0  0  0  0  0  0
   -2.7010   -2.6307    2.9248 H   0  0  0  0  0  0  0  0  0  0  0  0
  1 11  1  0  0  0  0
  1 12  1  0  0  0  0
  2 13  1  6  0  0  0
  2  1  1  0  0  0  0
  2  3  1  0  0  0  0
  3 14  1  0  0  0  0
  4 15  1  1  0  0  0
  4  2  1  0  0  0  0
  4  7  1  0  0  0  0
  5 16  1  6  0  0  0
  5  4  1  0  0  0  0
  5  7  1  0  0  0  0
  6  5  1  0  0  0  0
  7 18  1  1  0  0  0
  7  8  1  0  0  0  0
  8  9  3  0  0  0  0
  9 19  1  0  0  0  0
 10  1  1  0  0  0  0
 17  6  1  0  0  0  0
M TOR 0 0 1 2 13
M TOR 1 0 1 3 4
M TOR 2 0 1 3 6
M TOR 3 0 1 3 14
M TOR 4 1 3 4 5
M TOR 5 1 3 4 6
M TOR 6 1 3 4 15
M TOR 7 1 3 6 7
M TOR 8 1 3 6 17
M TOR 9 2 1 0 9
M TOR 10 2 1 0 10
M TOR 11 2 1 0 11
M TOR 12 2 1 3 4
M TOR 13 2 1 3 6
M TOR 14 2 1 3 14
M TOR 15 3 1 0 9
M TOR 16 3 1 0 10
M TOR 17 3 1 0 11
M TOR 18 3 1 2 13
M TOR 19 3 4 5 16
M TOR 20 3 4 6 7
M TOR 21 3 4 6 17
M TOR 22 3 6 4 5
M TOR 23 3 6 4 15
M TOR 24 3 6 7 8
M TOR 25 4 3 1 12
M TOR 26 4 6 3 14
M TOR 27 4 6 7 8
M TOR 28 5 4 3 14
M TOR 29 5 4 6 7
M TOR 30 5 4 6 17
M TOR 31 6 3 1 12
M TOR 32 6 4 5 16
M TOR 33 6 7 8 18
M TOR 34 7 6 3 14
M TOR 35 7 6 4 15
M TOR 36 8 7 6 17
M  END
$$$$
