
     RDKit          3D

 19 21  0  0  0  0  0  0  0  0999 V2000
    0.4975    0.4054   -0.1115 O   0  0  0  0  0  0  0  0  0  0  0  0
   -0.7743    0.8937    0.2508 C   0  0  0  0  0  0  0  0  0  0  0  0
   -1.8653   -0.1671    0.1001 C   0  0  0  0  0  0  0  0  0  0  0  0
   -3.2208    0.5250   -0.0619 C   0  0  0  0  0  0  0  0  0  0  0  0
   -3.3284    1.6457    0.8022 O   0  0  0  0  0  0  0  0  0  0  0  0
   -2.1512    2.4052    0.8525 C   0  0  0  0  0  0  0  0  0  0  0  0
   -1.0912    2.3233   -0.2966 C   0  0  0  0  0  0  0  0  0  0  0  0
   -0.0768    2.8807    0.7415 C   0  0  0  0  0  0  0  0  0  0  0  0
   -0.8787    1.8045    1.5226 C   0  0  0  0  0  0  0  0  0  0  0  0
    0.6593   -0.4027    0.3868 H   0  0  0  0  0  0  0  0  0  0  0  0
   -1.6572   -0.7856   -0.7795 H   0  0  0  0  0  0  0  0  0  0  0  0
   -1.8620   -0.8257    0.9790 H   0  0  0  0  0  0  0  0  0  0  0  0
   -3.3332    0.8556   -1.1060 H   0  0  0  0  0  0  0  0  0  0  0  0
   -4.0586   -0.1377    0.1709 H   0  0  0  0  0  0  0  0  0  0  0  0
   -2.4238    3.4107    1.1787 H   0  0  0  0  0  0  0  0  0  0  0  0
   -1.2026    2.6219   -1.3399 H   0  0  0  0  0  0  0  0  0  0  0  0
    0.9692    2.6548    0.5503 H   0  0  0  0  0  0  0  0  0  0  0  0
   -0.2257    3.9180    1.0536 H   0  0  0  0  0  0  0  0  0  0  0  0
   -0.7645    1.4993    2.5647 H   0  0  0  0  0  0  0  0  0  0  0  0
  1  2  1  0
  2  3  1  0
  3  4  1  0
  4  5  1  0
  5  6  1  0
  6  7  1  0
  7  8  1  0
  8  9  1  0
  7  2  1  0
  9  2  1  0
  9  6  1  0
  1 10  1  0
  3 11  1  0
  3 12  1  0
  4 13  1  0
  4 14  1  0
  6 15  1  0
  7 16  1  0
  8 17  1  0
  8 18  1  0
  9 19  1  0
M  END
$$$$
