gdb 4074	4.2936456	1.2416642	1.1105961	2.1854	73.9	-0.24107	0.07931	0.32038	1128.2592	0.157829	-422.529737	-422.52212	-422.521176	-422.561679	29.826
 OpenBabel02181911413D

 19 21  0  0  1  0  0  0  0  0999 V2000
    0.2963    0.6164    0.1007 C   0  0  0  0  0  0  0  0  0  0  0  0
    1.1523   -0.6237   -0.0855 C   0  0  1  0  0  0  0  0  0  0  0  0
    2.2976   -0.4918   -1.1080 C   0  0  0  0  0  0  0  0  0  0  0  0
    3.3631   -1.4709   -0.6080 C   0  0  2  0  0  0  0  0  0  0  0  0
    3.0713   -2.9606   -0.8449 C   0  0  1  0  0  0  0  0  0  0  0  0
    3.9151   -3.6956    0.0490 O   0  0  0  0  0  0  0  0  0  0  0  0
    2.6837   -3.1759    0.5598 C   0  0  1  0  0  0  0  0  0  0  0  0
    2.9524   -1.6951    0.9045 C   0  0  2  0  0  0  0  0  0  0  0  0
    1.8051   -0.9198    1.1555 O   0  0  0  0  0  0  0  0  0  0  0  0
   -0.4476    0.4570    0.8862 H   0  0  0  0  0  0  0  0  0  0  0  0
    0.9192    1.4704    0.3845 H   0  0  0  0  0  0  0  0  0  0  0  0
   -0.2308    0.8602   -0.8270 H   0  0  0  0  0  0  0  0  0  0  0  0
    0.5080   -1.4717   -0.3671 H   0  0  0  0  0  0  0  0  0  0  0  0
    1.9649   -0.6989   -2.1295 H   0  0  0  0  0  0  0  0  0  0  0  0
    2.6950    0.5285   -1.0861 H   0  0  0  0  0  0  0  0  0  0  0  0
    4.3868   -1.1652   -0.8296 H   0  0  0  0  0  0  0  0  0  0  0  0
    2.7521   -3.4623   -1.7521 H   0  0  0  0  0  0  0  0  0  0  0  0
    1.9851   -3.8701    1.0131 H   0  0  0  0  0  0  0  0  0  0  0  0
    3.6808   -1.5168    1.6980 H   0  0  0  0  0  0  0  0  0  0  0  0
  1 11  1  0  0  0  0
  1 10  1  0  0  0  0
  2 13  1  6  0  0  0
  2  1  1  0  0  0  0
  2  9  1  0  0  0  0
  3 15  1  0  0  0  0
  3  4  1  0  0  0  0
  3  2  1  0  0  0  0
  4 16  1  6  0  0  0
  4  8  1  0  0  0  0
  5 17  1  6  0  0  0
  5  4  1  0  0  0  0
  5  6  1  0  0  0  0
  5  7  1  0  0  0  0
  6  7  1  0  0  0  0
  7  8  1  0  0  0  0
  7 18  1  1  0  0  0
  8  9  1  0  0  0  0
  8 19  1  1  0  0  0
 12  1  1  0  0  0  0
 14  3  1  0  0  0  0
M TOR 0 0 1 2 3
M TOR 1 0 1 2 13
M TOR 2 0 1 2 14
M TOR 3 0 1 8 7
M TOR 4 1 2 3 4
M TOR 5 1 2 3 7
M TOR 6 1 2 3 15
M TOR 7 1 8 7 3
M TOR 8 1 8 7 6
M TOR 9 1 8 7 18
M TOR 10 2 1 0 9
M TOR 11 2 1 0 10
M TOR 12 2 1 0 11
M TOR 13 2 1 8 7
M TOR 14 2 3 4 5
M TOR 15 2 3 4 6
M TOR 16 2 3 4 16
M TOR 17 2 3 7 6
M TOR 18 2 3 7 8
M TOR 19 2 3 7 18
M TOR 20 3 2 1 8
M TOR 21 3 2 1 12
M TOR 22 3 4 5 6
M TOR 23 3 4 6 7
M TOR 24 3 4 6 17
M TOR 25 3 7 6 5
M TOR 26 3 7 6 17
M TOR 27 4 3 2 13
M TOR 28 4 3 2 14
M TOR 29 4 3 7 8
M TOR 30 4 3 7 18
M TOR 31 4 5 6 7
M TOR 32 4 5 6 17
M TOR 33 4 6 7 8
M TOR 34 4 6 7 18
M TOR 35 5 4 3 7
M TOR 36 5 4 3 15
M TOR 37 5 6 4 16
M TOR 38 5 6 7 8
M TOR 39 5 6 7 18
M TOR 40 6 4 3 15
M TOR 41 6 7 3 15
M TOR 42 7 3 2 13
M TOR 43 7 3 2 14
M TOR 44 7 3 4 16
M TOR 45 7 6 4 16
M TOR 46 7 8 1 12
M TOR 47 8 1 0 9
M TOR 48 8 1 0 10
M TOR 49 8 1 0 11
M TOR 50 8 1 2 13
M TOR 51 8 1 2 14
M TOR 52 8 7 3 15
M TOR 53 8 7 6 17
M  END
$$$$
