
     RDKit          3D

 19 20  0  0  0  0  0  0  0  0999 V2000
    1.6639    0.1018    3.7136 C   0  0  0  0  0  0  0  0  0  0  0  0
    1.7764    1.4837    3.3877 O   0  0  0  0  0  0  0  0  0  0  0  0
    0.7561    0.7141    2.7258 C   0  0  0  0  0  0  0  0  0  0  0  0
    0.8917    0.5170    1.2624 C   0  0  0  0  0  0  0  0  0  0  0  0
   -0.1776    0.5639    0.4640 C   0  0  0  0  0  0  0  0  0  0  0  0
   -0.0940    0.3474   -1.0206 C   0  0  0  0  0  0  0  0  0  0  0  0
    1.1738   -0.0977   -1.4581 O   0  0  0  0  0  0  0  0  0  0  0  0
    2.2387    0.5932   -0.8251 C   0  0  0  0  0  0  0  0  0  0  0  0
    2.2660    0.2965    0.6744 C   0  0  0  0  0  0  0  0  0  0  0  0
    2.4861   -0.5273    3.3773 H   0  0  0  0  0  0  0  0  0  0  0  0
    1.2909   -0.1183    4.7132 H   0  0  0  0  0  0  0  0  0  0  0  0
   -0.2548    0.9483    3.0613 H   0  0  0  0  0  0  0  0  0  0  0  0
   -1.1656    0.7744    0.8680 H   0  0  0  0  0  0  0  0  0  0  0  0
   -0.8124   -0.4189   -1.3372 H   0  0  0  0  0  0  0  0  0  0  0  0
   -0.3799    1.2805   -1.5425 H   0  0  0  0  0  0  0  0  0  0  0  0
    3.1556    0.2554   -1.3154 H   0  0  0  0  0  0  0  0  0  0  0  0
    2.1438    1.6791   -0.9894 H   0  0  0  0  0  0  0  0  0  0  0  0
    2.5932   -0.7387    0.8385 H   0  0  0  0  0  0  0  0  0  0  0  0
    2.9893    0.9461    1.1803 H   0  0  0  0  0  0  0  0  0  0  0  0
  1  2  1  0
  2  3  1  0
  3  4  1  0
  4  5  2  0
  5  6  1  0
  6  7  1  0
  7  8  1  0
  8  9  1  0
  3  1  1  0
  9  4  1  0
  1 10  1  0
  1 11  1  0
  3 12  1  0
  5 13  1  0
  6 14  1  0
  6 15  1  0
  8 16  1  0
  8 17  1  0
  9 18  1  0
  9 19  1  0
M  END
$$$$
