
     RDKit          3D

 19 18  0  0  0  0  0  0  0  0999 V2000
    1.0696   -0.6898   -0.7777 C   0  0  0  0  0  0  0  0  0  0  0  0
    0.5666    0.5547   -0.0291 C   0  0  0  0  0  0  0  0  0  0  0  0
    1.6387    1.6217    0.1292 C   0  0  0  0  0  0  0  0  0  0  0  0
    1.5384    2.7308   -0.3533 O   0  0  0  0  0  0  0  0  0  0  0  0
    2.8064    1.2353    0.9008 C   0  0  0  0  0  0  0  0  0  0  0  0
    3.7751    0.9172    1.5486 C   0  0  0  0  0  0  0  0  0  0  0  0
    4.9588    0.5773    2.3209 C   0  0  0  0  0  0  0  0  0  0  0  0
    5.9805    1.7196    2.3807 C   0  0  0  0  0  0  0  0  0  0  0  0
    7.0672    1.2477    3.1558 O   0  0  0  0  0  0  0  0  0  0  0  0
    1.9157   -1.1476   -0.2576 H   0  0  0  0  0  0  0  0  0  0  0  0
    0.2734   -1.4354   -0.8541 H   0  0  0  0  0  0  0  0  0  0  0  0
    1.3918   -0.4341   -1.7917 H   0  0  0  0  0  0  0  0  0  0  0  0
   -0.2719    1.0201   -0.5541 H   0  0  0  0  0  0  0  0  0  0  0  0
    0.2258    0.2640    0.9729 H   0  0  0  0  0  0  0  0  0  0  0  0
    4.6737    0.3058    3.3449 H   0  0  0  0  0  0  0  0  0  0  0  0
    5.4454   -0.3082    1.8937 H   0  0  0  0  0  0  0  0  0  0  0  0
    6.2889    1.9868    1.3595 H   0  0  0  0  0  0  0  0  0  0  0  0
    5.5098    2.6067    2.8290 H   0  0  0  0  0  0  0  0  0  0  0  0
    7.7266    1.9453    3.2104 H   0  0  0  0  0  0  0  0  0  0  0  0
  1  2  1  0
  2  3  1  0
  3  4  2  0
  3  5  1  0
  5  6  3  0
  6  7  1  0
  7  8  1  0
  8  9  1  0
  1 10  1  0
  1 11  1  0
  1 12  1  0
  2 13  1  0
  2 14  1  0
  7 15  1  0
  7 16  1  0
  8 17  1  0
  8 18  1  0
  9 19  1  0
M  END
$$$$
