
     RDKit          3D

 19 21  0  0  0  0  0  0  0  0999 V2000
    1.5745    0.6537   -0.2553 O   0  0  0  0  0  0  0  0  0  0  0  0
    0.5870    0.1163    0.6072 C   0  0  0  0  0  0  0  0  0  0  0  0
   -0.3376    1.2104    1.0781 C   0  0  0  0  0  0  0  0  0  0  0  0
   -1.0261    1.8275   -0.0576 O   0  0  0  0  0  0  0  0  0  0  0  0
   -2.3257    1.5658    0.5425 C   0  0  0  0  0  0  0  0  0  0  0  0
   -1.6695    1.0226    1.8268 C   0  0  0  0  0  0  0  0  0  0  0  0
   -1.1782    2.0276    2.8957 C   0  0  0  0  0  0  0  0  0  0  0  0
   -0.7649    3.3492    2.3104 C   0  0  0  0  0  0  0  0  0  0  0  0
    0.1686    2.1868    2.1629 C   0  0  0  0  0  0  0  0  0  0  0  0
    1.0940    1.1351   -0.9403 H   0  0  0  0  0  0  0  0  0  0  0  0
   -0.0004   -0.6718    0.1100 H   0  0  0  0  0  0  0  0  0  0  0  0
    1.1126   -0.3360    1.4549 H   0  0  0  0  0  0  0  0  0  0  0  0
   -2.9306    2.4751    0.6285 H   0  0  0  0  0  0  0  0  0  0  0  0
   -2.8808    0.8143   -0.0316 H   0  0  0  0  0  0  0  0  0  0  0  0
   -1.9865    0.0505    2.2024 H   0  0  0  0  0  0  0  0  0  0  0  0
   -1.3611    1.9138    3.9570 H   0  0  0  0  0  0  0  0  0  0  0  0
   -1.2493    3.7649    1.4340 H   0  0  0  0  0  0  0  0  0  0  0  0
   -0.4591    4.0889    3.0434 H   0  0  0  0  0  0  0  0  0  0  0  0
    1.1785    2.1941    2.5547 H   0  0  0  0  0  0  0  0  0  0  0  0
  1  2  1  0
  2  3  1  0
  3  4  1  0
  4  5  1  0
  5  6  1  0
  6  7  1  0
  7  8  1  0
  8  9  1  0
  6  3  1  0
  9  7  1  0
  9  3  1  0
  1 10  1  0
  2 11  1  0
  2 12  1  0
  5 13  1  0
  5 14  1  0
  6 15  1  0
  7 16  1  0
  8 17  1  0
  8 18  1  0
  9 19  1  0
M  END
$$$$
