
     RDKit          3D

 19 20  0  0  0  0  0  0  0  0999 V2000
   -4.3989   -0.2801    0.8649 C   0  0  0  0  0  0  0  0  0  0  0  0
   -3.4164   -1.1590    0.1248 C   0  0  0  0  0  0  0  0  0  0  0  0
   -3.3552   -1.1211   -1.3969 C   0  0  0  0  0  0  0  0  0  0  0  0
   -2.2292   -0.5611   -0.5990 C   0  0  0  0  0  0  0  0  0  0  0  0
   -0.8306   -1.1339   -0.5059 C   0  0  0  0  0  0  0  0  0  0  0  0
   -0.0826   -0.0292    0.2464 C   0  0  0  0  0  0  0  0  0  0  0  0
    1.0025   -0.0903    0.7571 O   0  0  0  0  0  0  0  0  0  0  0  0
   -1.0117    1.1908    0.2343 C   0  0  0  0  0  0  0  0  0  0  0  0
   -2.0916    0.8525   -0.6176 O   0  0  0  0  0  0  0  0  0  0  0  0
   -4.1176   -0.1705    1.9181 H   0  0  0  0  0  0  0  0  0  0  0  0
   -4.4291    0.7186    0.4218 H   0  0  0  0  0  0  0  0  0  0  0  0
   -5.4093   -0.7014    0.8327 H   0  0  0  0  0  0  0  0  0  0  0  0
   -3.2402   -2.1345    0.5736 H   0  0  0  0  0  0  0  0  0  0  0  0
   -3.1965   -2.0430   -1.9465 H   0  0  0  0  0  0  0  0  0  0  0  0
   -3.9942   -0.3992   -1.8956 H   0  0  0  0  0  0  0  0  0  0  0  0
   -0.7532   -2.0896    0.0156 H   0  0  0  0  0  0  0  0  0  0  0  0
   -0.3701   -1.2462   -1.4963 H   0  0  0  0  0  0  0  0  0  0  0  0
   -1.3416    1.3966    1.2653 H   0  0  0  0  0  0  0  0  0  0  0  0
   -0.5065    2.0812   -0.1506 H   0  0  0  0  0  0  0  0  0  0  0  0
  1  2  1  0
  2  3  1  0
  3  4  1  0
  4  5  1  0
  5  6  1  0
  6  7  2  0
  6  8  1  0
  8  9  1  0
  4  2  1  0
  9  4  1  0
  1 10  1  0
  1 11  1  0
  1 12  1  0
  2 13  1  0
  3 14  1  0
  3 15  1  0
  5 16  1  0
  5 17  1  0
  8 18  1  0
  8 19  1  0
M  END
$$$$
