
     RDKit          3D

 19 21  0  0  0  0  0  0  0  0999 V2000
    1.3983   -0.1349    0.0678 C   0  0  0  0  0  0  0  0  0  0  0  0
   -0.0016    0.0709    0.1061 O   0  0  0  0  0  0  0  0  0  0  0  0
   -0.4615    0.6060    1.3149 C   0  0  0  0  0  0  0  0  0  0  0  0
   -1.9825    0.7953    1.2620 C   0  0  0  0  0  0  0  0  0  0  0  0
   -2.4543    1.5504    2.4693 C   0  0  0  0  0  0  0  0  0  0  0  0
   -1.8359    2.3199    1.3294 C   0  0  0  0  0  0  0  0  0  0  0  0
   -0.3330    2.1605    1.4100 C   0  0  0  0  0  0  0  0  0  0  0  0
    0.6890    3.0318    1.9940 C   0  0  0  0  0  0  0  0  0  0  0  0
    0.5556    2.8643    0.5686 O   0  0  0  0  0  0  0  0  0  0  0  0
    1.7280   -0.7860    0.8929 H   0  0  0  0  0  0  0  0  0  0  0  0
    1.6199   -0.6307   -0.8803 H   0  0  0  0  0  0  0  0  0  0  0  0
    1.9473    0.8121    0.1140 H   0  0  0  0  0  0  0  0  0  0  0  0
   -0.0696    0.0296    2.1700 H   0  0  0  0  0  0  0  0  0  0  0  0
   -2.6338    0.1952    0.6406 H   0  0  0  0  0  0  0  0  0  0  0  0
   -3.5306    1.6490    2.5655 H   0  0  0  0  0  0  0  0  0  0  0  0
   -1.9315    1.4606    3.4192 H   0  0  0  0  0  0  0  0  0  0  0  0
   -2.3576    3.0952    0.7828 H   0  0  0  0  0  0  0  0  0  0  0  0
    0.4110    4.0149    2.3716 H   0  0  0  0  0  0  0  0  0  0  0  0
    1.5921    2.6042    2.4273 H   0  0  0  0  0  0  0  0  0  0  0  0
  1  2  1  0
  2  3  1  0
  3  4  1  0
  4  5  1  0
  5  6  1  0
  6  7  1  0
  7  8  1  0
  8  9  1  0
  7  3  1  0
  9  7  1  0
  6  4  1  0
  1 10  1  0
  1 11  1  0
  1 12  1  0
  3 13  1  0
  4 14  1  0
  5 15  1  0
  5 16  1  0
  6 17  1  0
  8 18  1  0
  8 19  1  0
M  END
$$$$
