
     RDKit          3D

 19 20  0  0  0  0  0  0  0  0999 V2000
    1.8182    0.5229   -0.1700 O   0  0  0  0  0  0  0  0  0  0  0  0
    0.4172    0.7045    0.0322 C   0  0  0  0  0  0  0  0  0  0  0  0
   -0.3751    0.4086   -1.2052 C   0  0  0  0  0  0  0  0  0  0  0  0
   -1.3553   -0.4920   -1.3321 C   0  0  0  0  0  0  0  0  0  0  0  0
   -1.9315   -0.5617   -2.7267 C   0  0  0  0  0  0  0  0  0  0  0  0
   -1.2117    0.5847   -3.4548 C   0  0  0  0  0  0  0  0  0  0  0  0
   -1.9363    1.8358   -3.3879 O   0  0  0  0  0  0  0  0  0  0  0  0
   -0.8647    2.4796   -2.6679 C   0  0  0  0  0  0  0  0  0  0  0  0
   -0.1167    1.1349   -2.5028 C   0  0  0  0  0  0  0  0  0  0  0  0
    1.9504   -0.3958   -0.4272 H   0  0  0  0  0  0  0  0  0  0  0  0
    0.0484    0.0986    0.8730 H   0  0  0  0  0  0  0  0  0  0  0  0
    0.3094    1.7579    0.3184 H   0  0  0  0  0  0  0  0  0  0  0  0
   -1.7130   -1.1216   -0.5228 H   0  0  0  0  0  0  0  0  0  0  0  0
   -1.7458   -1.5375   -3.1957 H   0  0  0  0  0  0  0  0  0  0  0  0
   -3.0153   -0.3967   -2.7525 H   0  0  0  0  0  0  0  0  0  0  0  0
   -0.9285    0.3475   -4.4862 H   0  0  0  0  0  0  0  0  0  0  0  0
   -0.3412    3.2169   -3.2909 H   0  0  0  0  0  0  0  0  0  0  0  0
   -1.2170    2.9677   -1.7512 H   0  0  0  0  0  0  0  0  0  0  0  0
    0.9303    1.1256   -2.8099 H   0  0  0  0  0  0  0  0  0  0  0  0
  1  2  1  0
  2  3  1  0
  3  4  2  0
  4  5  1  0
  5  6  1  0
  6  7  1  0
  7  8  1  0
  8  9  1  0
  9  3  1  0
  9  6  1  0
  1 10  1  0
  2 11  1  0
  2 12  1  0
  4 13  1  0
  5 14  1  0
  5 15  1  0
  6 16  1  0
  8 17  1  0
  8 18  1  0
  9 19  1  0
M  END
$$$$
