
     RDKit          3D

 19 20  0  0  0  0  0  0  0  0999 V2000
   -2.0678    1.9564   -1.7414 C   0  0  0  0  0  0  0  0  0  0  0  0
   -2.2316    1.7538   -0.2620 C   0  0  0  0  0  0  0  0  0  0  0  0
   -3.4216    1.0696    0.3602 C   0  0  0  0  0  0  0  0  0  0  0  0
   -3.1186    2.4829    0.7657 C   0  0  0  0  0  0  0  0  0  0  0  0
   -1.9864    2.4765    1.7994 C   0  0  0  0  0  0  0  0  0  0  0  0
   -1.0833    1.7865    0.7460 C   0  0  0  0  0  0  0  0  0  0  0  0
   -0.5493    0.5217    1.2016 O   0  0  0  0  0  0  0  0  0  0  0  0
    0.3038   -0.0919    0.3753 C   0  0  0  0  0  0  0  0  0  0  0  0
    0.6495    0.2968   -0.7081 O   0  0  0  0  0  0  0  0  0  0  0  0
   -1.6083    1.0808   -2.2100 H   0  0  0  0  0  0  0  0  0  0  0  0
   -3.0363    2.1331   -2.2206 H   0  0  0  0  0  0  0  0  0  0  0  0
   -1.4246    2.8170   -1.9561 H   0  0  0  0  0  0  0  0  0  0  0  0
   -4.2637    0.9435   -0.3129 H   0  0  0  0  0  0  0  0  0  0  0  0
   -3.2921    0.2558    1.0696 H   0  0  0  0  0  0  0  0  0  0  0  0
   -3.8083    3.2995    0.5928 H   0  0  0  0  0  0  0  0  0  0  0  0
   -1.6179    3.4658    2.0774 H   0  0  0  0  0  0  0  0  0  0  0  0
   -2.1724    1.8961    2.7080 H   0  0  0  0  0  0  0  0  0  0  0  0
   -0.2515    2.4056    0.4048 H   0  0  0  0  0  0  0  0  0  0  0  0
    0.6513   -1.0236    0.8496 H   0  0  0  0  0  0  0  0  0  0  0  0
  1  2  1  0
  2  3  1  0
  3  4  1  0
  4  5  1  0
  5  6  1  0
  6  7  1  0
  7  8  1  0
  8  9  2  0
  4  2  1  0
  6  2  1  0
  1 10  1  0
  1 11  1  0
  1 12  1  0
  3 13  1  0
  3 14  1  0
  4 15  1  0
  5 16  1  0
  5 17  1  0
  6 18  1  0
  8 19  1  0
M  END
$$$$
