gdb 1791	3.8361503	1.1189249	1.0483154	3.5196	76.12	-0.24117	-0.02023	0.22094	1200.1404	0.156504	-422.560043	-422.551749	-422.550805	-422.592993	31.52
 OpenBabel02181911403D

 19 20  0  0  1  0  0  0  0  0999 V2000
    4.4940    1.0045   -3.5455 C   0  0  0  0  0  0  0  0  0  0  0  0
    3.2215    0.7764   -2.7816 C   0  0  2  0  0  0  0  0  0  0  0  0
    1.8033    0.8239   -3.4051 C   0  0  0  0  0  0  0  0  0  0  0  0
    1.5068    1.2475   -1.9553 C   0  0  2  0  0  0  0  0  0  0  0  0
    2.8118    1.8902   -1.9080 O   0  0  0  0  0  0  0  0  0  0  0  0
    1.7492   -0.0589   -1.1396 C   0  0  1  0  0  0  0  0  0  0  0  0
    3.1284   -0.4137   -1.7948 C   0  0  0  0  0  0  0  0  0  0  0  0
    1.8479    0.2029    0.3413 C   0  0  0  0  0  0  0  0  0  0  0  0
    1.2049   -0.3709    1.1844 O   0  0  0  0  0  0  0  0  0  0  0  0
    5.3393    1.1156   -2.8585 H   0  0  0  0  0  0  0  0  0  0  0  0
    4.6996    0.1536   -4.2030 H   0  0  0  0  0  0  0  0  0  0  0  0
    4.4254    1.9079   -4.1572 H   0  0  0  0  0  0  0  0  0  0  0  0
    1.6950    1.6581   -4.0994 H   0  0  0  0  0  0  0  0  0  0  0  0
    1.3592   -0.0932   -3.8006 H   0  0  0  0  0  0  0  0  0  0  0  0
    0.6768    1.8932   -1.6701 H   0  0  0  0  0  0  0  0  0  0  0  0
    0.9775   -0.8126   -1.3111 H   0  0  0  0  0  0  0  0  0  0  0  0
    3.9550   -0.3889   -1.0788 H   0  0  0  0  0  0  0  0  0  0  0  0
    3.1222   -1.3907   -2.2838 H   0  0  0  0  0  0  0  0  0  0  0  0
    2.5818    0.9948    0.6101 H   0  0  0  0  0  0  0  0  0  0  0  0
  1 10  1  0  0  0  0
  2  1  1  6  0  0  0
  2  5  1  0  0  0  0
  2  7  1  0  0  0  0
  3  2  1  0  0  0  0
  3  4  1  0  0  0  0
  4  5  1  0  0  0  0
  4 15  1  1  0  0  0
  4  6  1  0  0  0  0
  6 16  1  6  0  0  0
  6  8  1  0  0  0  0
  7  6  1  0  0  0  0
  7 17  1  0  0  0  0
  8 19  1  0  0  0  0
  8  9  2  0  0  0  0
 11  1  1  0  0  0  0
 12  1  1  0  0  0  0
 13  3  1  0  0  0  0
 14  3  1  0  0  0  0
 18  7  1  0  0  0  0
M TOR 0 0 1 2 3
M TOR 1 0 1 2 12
M TOR 2 0 1 2 13
M TOR 3 0 1 4 3
M TOR 4 0 1 6 5
M TOR 5 0 1 6 16
M TOR 6 0 1 6 17
M TOR 7 1 2 3 4
M TOR 8 1 2 3 5
M TOR 9 1 2 3 14
M TOR 10 1 4 3 5
M TOR 11 1 4 3 14
M TOR 12 1 6 5 3
M TOR 13 1 6 5 7
M TOR 14 1 6 5 15
M TOR 15 2 1 0 9
M TOR 16 2 1 0 10
M TOR 17 2 1 0 11
M TOR 18 2 1 6 5
M TOR 19 2 1 6 16
M TOR 20 2 1 6 17
M TOR 21 2 3 5 6
M TOR 22 2 3 5 7
M TOR 23 2 3 5 15
M TOR 24 3 2 1 6
M TOR 25 3 4 1 6
M TOR 26 3 5 6 16
M TOR 27 3 5 6 17
M TOR 28 3 5 7 8
M TOR 29 3 5 7 18
M TOR 30 4 1 0 9
M TOR 31 4 1 0 10
M TOR 32 4 1 0 11
M TOR 33 4 1 2 12
M TOR 34 4 1 2 13
M TOR 35 4 1 6 5
M TOR 36 4 1 6 16
M TOR 37 4 1 6 17
M TOR 38 4 3 2 12
M TOR 39 4 3 2 13
M TOR 40 4 3 5 6
M TOR 41 4 3 5 7
M TOR 42 4 3 5 15
M TOR 43 5 3 2 12
M TOR 44 5 3 2 13
M TOR 45 6 1 0 9
M TOR 46 6 1 0 10
M TOR 47 6 1 0 11
M TOR 48 6 1 2 12
M TOR 49 6 1 2 13
M TOR 50 6 5 3 14
M TOR 51 6 5 7 8
M TOR 52 6 5 7 18
M TOR 53 7 5 3 14
M TOR 54 7 5 6 16
M TOR 55 7 5 6 17
M TOR 56 8 7 5 15
M  END
$$$$
