
     RDKit          3D

 19 20  0  0  0  0  0  0  0  0999 V2000
    0.4059    0.2279    0.7725 O   0  0  0  0  0  0  0  0  0  0  0  0
   -0.6078    1.1402    1.1593 C   0  0  0  0  0  0  0  0  0  0  0  0
   -1.4265    1.5785   -0.0269 C   0  0  0  0  0  0  0  0  0  0  0  0
   -2.7186    1.6732    0.2795 C   0  0  0  0  0  0  0  0  0  0  0  0
   -2.9889    1.2805    1.7145 C   0  0  0  0  0  0  0  0  0  0  0  0
   -1.6864    0.5752    2.1324 C   0  0  0  0  0  0  0  0  0  0  0  0
   -1.2295    0.4785    3.6003 C   0  0  0  0  0  0  0  0  0  0  0  0
   -0.8827   -0.9147    3.4282 O   0  0  0  0  0  0  0  0  0  0  0  0
   -1.6652   -0.9694    2.2105 C   0  0  0  0  0  0  0  0  0  0  0  0
    0.8332   -0.0943    1.5750 H   0  0  0  0  0  0  0  0  0  0  0  0
   -0.1377    2.0245    1.6299 H   0  0  0  0  0  0  0  0  0  0  0  0
   -0.9663    1.8273   -0.9756 H   0  0  0  0  0  0  0  0  0  0  0  0
   -3.4986    2.0243   -0.3870 H   0  0  0  0  0  0  0  0  0  0  0  0
   -3.1765    2.1697    2.3345 H   0  0  0  0  0  0  0  0  0  0  0  0
   -3.8687    0.6368    1.8317 H   0  0  0  0  0  0  0  0  0  0  0  0
   -0.3686    1.0873    3.9041 H   0  0  0  0  0  0  0  0  0  0  0  0
   -2.0371    0.6076    4.3356 H   0  0  0  0  0  0  0  0  0  0  0  0
   -1.1520   -1.5085    1.4118 H   0  0  0  0  0  0  0  0  0  0  0  0
   -2.6569   -1.4078    2.3908 H   0  0  0  0  0  0  0  0  0  0  0  0
  1  2  1  0
  2  3  1  0
  3  4  2  0
  4  5  1  0
  5  6  1  0
  6  7  1  0
  7  8  1  0
  8  9  1  0
  6  2  1  0
  9  6  1  0
  1 10  1  0
  2 11  1  0
  3 12  1  0
  4 13  1  0
  5 14  1  0
  5 15  1  0
  7 16  1  0
  7 17  1  0
  9 18  1  0
  9 19  1  0
M  END
$$$$
