gdb 3108	3.7255542	1.2110623	1.1377444	1.633	76.71	-0.23059	0.00486	0.23545	1150.6373	0.157589	-422.552325	-422.544311	-422.543367	-422.584402	31.609
 OpenBabel02181911413D

 19 20  0  0  1  0  0  0  0  0999 V2000
    1.3458    0.8329    0.1496 C   0  0  0  0  0  0  0  0  0  0  0  0
   -0.0561    0.3095    0.2328 C   0  0  0  0  0  0  0  0  0  0  0  0
   -1.1529    1.0271   -0.0296 C   0  0  0  0  0  0  0  0  0  0  0  0
   -2.4795    0.3176    0.0728 C   0  0  1  0  0  0  0  0  0  0  0  0
   -2.3731   -0.9973   -0.5793 O   0  0  0  0  0  0  0  0  0  0  0  0
   -1.7482   -1.4761    0.6539 C   0  0  1  0  0  0  0  0  0  0  0  0
   -0.2518   -1.1490    0.6182 C   0  0  0  0  0  0  0  0  0  0  0  0
   -2.5822   -0.4270    1.4321 C   0  0  2  0  0  0  0  0  0  0  0  0
   -3.8704   -0.8693    1.7698 O   0  0  0  0  0  0  0  0  0  0  0  0
    1.8682    0.7249    1.1090 H   0  0  0  0  0  0  0  0  0  0  0  0
    1.9327    0.2694   -0.5875 H   0  0  0  0  0  0  0  0  0  0  0  0
    1.3663    1.8885   -0.1339 H   0  0  0  0  0  0  0  0  0  0  0  0
   -1.1120    2.0777   -0.2991 H   0  0  0  0  0  0  0  0  0  0  0  0
   -3.3417    0.8873   -0.2802 H   0  0  0  0  0  0  0  0  0  0  0  0
   -1.9629   -2.5315    0.8467 H   0  0  0  0  0  0  0  0  0  0  0  0
    0.2009   -1.3519    1.5990 H   0  0  0  0  0  0  0  0  0  0  0  0
    0.2631   -1.8040   -0.0983 H   0  0  0  0  0  0  0  0  0  0  0  0
   -2.1548    0.0508    2.3154 H   0  0  0  0  0  0  0  0  0  0  0  0
   -4.2335   -1.2902    0.9802 H   0  0  0  0  0  0  0  0  0  0  0  0
  1  2  1  0  0  0  0
  1 10  1  0  0  0  0
  2  7  1  0  0  0  0
  3  4  1  0  0  0  0
  3  2  2  0  0  0  0
  4 14  1  6  0  0  0
  4  8  1  0  0  0  0
  5  4  1  0  0  0  0
  5  6  1  0  0  0  0
  6 15  1  1  0  0  0
  6  8  1  0  0  0  0
  7  6  1  0  0  0  0
  7 16  1  0  0  0  0
  8  9  1  0  0  0  0
  8 18  1  1  0  0  0
 11  1  1  0  0  0  0
 12  1  1  0  0  0  0
 13  3  1  0  0  0  0
 17  7  1  0  0  0  0
 19  9  1  0  0  0  0
M TOR 0 0 1 2 3
M TOR 1 0 1 2 12
M TOR 2 0 1 6 5
M TOR 3 0 1 6 15
M TOR 4 0 1 6 16
M TOR 5 1 2 3 4
M TOR 6 1 2 3 7
M TOR 7 1 2 3 13
M TOR 8 1 6 5 4
M TOR 9 1 6 5 7
M TOR 10 1 6 5 14
M TOR 11 2 1 0 9
M TOR 12 2 1 0 10
M TOR 13 2 1 0 11
M TOR 14 2 1 6 5
M TOR 15 2 1 6 15
M TOR 16 2 1 6 16
M TOR 17 2 3 4 5
M TOR 18 2 3 7 5
M TOR 19 2 3 7 8
M TOR 20 2 3 7 17
M TOR 21 3 2 1 6
M TOR 22 3 4 5 6
M TOR 23 3 4 5 7
M TOR 24 3 4 5 14
M TOR 25 3 7 5 6
M TOR 26 3 7 5 14
M TOR 27 3 7 8 18
M TOR 28 4 3 2 12
M TOR 29 4 3 7 8
M TOR 30 4 3 7 17
M TOR 31 4 5 6 15
M TOR 32 4 5 6 16
M TOR 33 4 5 7 8
M TOR 34 4 5 7 17
M TOR 35 5 4 3 13
M TOR 36 5 7 3 13
M TOR 37 5 7 8 18
M TOR 38 6 1 0 9
M TOR 39 6 1 0 10
M TOR 40 6 1 0 11
M TOR 41 6 1 2 12
M TOR 42 6 5 7 8
M TOR 43 6 5 7 17
M TOR 44 7 3 2 12
M TOR 45 7 5 6 15
M TOR 46 7 5 6 16
M TOR 47 8 7 3 13
M TOR 48 8 7 5 14
M  END
$$$$
