
     RDKit          3D

 19 21  0  0  0  0  0  0  0  0999 V2000
   -0.1079   -0.4672   -0.2064 C   0  0  0  0  0  0  0  0  0  0  0  0
    1.3721   -0.1324   -0.1172 C   0  0  0  0  0  0  0  0  0  0  0  0
    2.0874   -1.0137    0.9038 C   0  0  0  0  0  0  0  0  0  0  0  0
    1.6080    1.2826    0.2289 O   0  0  0  0  0  0  0  0  0  0  0  0
    2.5026    1.4572   -0.8731 C   0  0  0  0  0  0  0  0  0  0  0  0
    1.8928    2.0602   -2.1779 C   0  0  0  0  0  0  0  0  0  0  0  0
    0.5551    1.5881   -2.2954 O   0  0  0  0  0  0  0  0  0  0  0  0
    1.6023    0.6975   -2.6798 C   0  0  0  0  0  0  0  0  0  0  0  0
    2.2195    0.0417   -1.4155 C   0  0  0  0  0  0  0  0  0  0  0  0
   -0.5627   -0.4026    0.7879 H   0  0  0  0  0  0  0  0  0  0  0  0
   -0.6254    0.2180   -0.8749 H   0  0  0  0  0  0  0  0  0  0  0  0
   -0.2396   -1.4932   -0.5676 H   0  0  0  0  0  0  0  0  0  0  0  0
    1.6562   -0.8576    1.8974 H   0  0  0  0  0  0  0  0  0  0  0  0
    1.9819   -2.0728    0.6436 H   0  0  0  0  0  0  0  0  0  0  0  0
    3.1538   -0.7747    0.9545 H   0  0  0  0  0  0  0  0  0  0  0  0
    3.4959    1.8219   -0.5983 H   0  0  0  0  0  0  0  0  0  0  0  0
    2.1397    2.9821   -2.6928 H   0  0  0  0  0  0  0  0  0  0  0  0
    1.5680    0.3041   -3.6894 H   0  0  0  0  0  0  0  0  0  0  0  0
    3.0129   -0.6791   -1.6089 H   0  0  0  0  0  0  0  0  0  0  0  0
  1  2  1  0
  2  3  1  0
  2  4  1  0
  4  5  1  0
  5  6  1  0
  6  7  1  0
  7  8  1  0
  8  9  1  0
  9  2  1  0
  9  5  1  0
  8  6  1  0
  1 10  1  0
  1 11  1  0
  1 12  1  0
  3 13  1  0
  3 14  1  0
  3 15  1  0
  5 16  1  0
  6 17  1  0
  8 18  1  0
  9 19  1  0
M  END
$$$$
