gdb 1787	3.4891673	1.4121224	1.2084481	4.7166	75.14	-0.25726	0.01898	0.27624	1068.6413	0.158468	-422.596802	-422.588973	-422.588028	-422.628761	30.617
 OpenBabel02181911403D

 19 20  0  0  1  0  0  0  0  0999 V2000
   -4.2785   -0.4405   -0.0053 C   0  0  0  0  0  0  0  0  0  0  0  0
   -2.7620   -0.3784    0.0011 C   0  0  2  0  0  0  0  0  0  0  0  0
   -1.9470   -1.1086   -1.1051 C   0  0  0  0  0  0  0  0  0  0  0  0
   -0.8263   -1.2486   -0.0351 C   0  0  2  0  0  0  0  0  0  0  0  0
   -1.9521   -1.2092    1.0380 C   0  0  0  0  0  0  0  0  0  0  0  0
   -0.0502    0.0483    0.0279 C   0  0  0  0  0  0  0  0  0  0  0  0
    1.1449    0.1456    0.0338 O   0  0  0  0  0  0  0  0  0  0  0  0
   -0.8204    1.1714    0.0781 O   0  0  0  0  0  0  0  0  0  0  0  0
   -2.2567    1.0626    0.0697 C   0  0  0  0  0  0  0  0  0  0  0  0
   -4.7008    0.0085    0.9011 H   0  0  0  0  0  0  0  0  0  0  0  0
   -4.6968    0.0918   -0.8674 H   0  0  0  0  0  0  0  0  0  0  0  0
   -4.6214   -1.4786   -0.0550 H   0  0  0  0  0  0  0  0  0  0  0  0
   -2.3814   -2.0813   -1.3501 H   0  0  0  0  0  0  0  0  0  0  0  0
   -1.7187   -0.5659   -2.0267 H   0  0  0  0  0  0  0  0  0  0  0  0
   -0.1346   -2.0877   -0.0729 H   0  0  0  0  0  0  0  0  0  0  0  0
   -2.3873   -2.2005    1.1887 H   0  0  0  0  0  0  0  0  0  0  0  0
   -1.7282   -0.7552    2.0074 H   0  0  0  0  0  0  0  0  0  0  0  0
   -2.6169    1.5553    0.9809 H   0  0  0  0  0  0  0  0  0  0  0  0
   -2.6128    1.6382   -0.7932 H   0  0  0  0  0  0  0  0  0  0  0  0
  1 10  1  0  0  0  0
  2  1  1  6  0  0  0
  2  9  1  0  0  0  0
  2  5  1  0  0  0  0
  3  4  1  0  0  0  0
  3  2  1  0  0  0  0
  4 15  1  6  0  0  0
  4  6  1  0  0  0  0
  4  5  1  0  0  0  0
  5 16  1  0  0  0  0
  5 17  1  0  0  0  0
  6  7  2  0  0  0  0
  6  8  1  0  0  0  0
  9  8  1  0  0  0  0
  9 18  1  0  0  0  0
 11  1  1  0  0  0  0
 12  1  1  0  0  0  0
 13  3  1  0  0  0  0
 14  3  1  0  0  0  0
 19  9  1  0  0  0  0
M TOR 0 0 1 2 3
M TOR 1 0 1 2 12
M TOR 2 0 1 2 13
M TOR 3 0 1 4 3
M TOR 4 0 1 4 15
M TOR 5 0 1 4 16
M TOR 6 0 1 8 7
M TOR 7 0 1 8 17
M TOR 8 0 1 8 18
M TOR 9 1 2 3 4
M TOR 10 1 2 3 5
M TOR 11 1 2 3 14
M TOR 12 1 4 3 5
M TOR 13 1 4 3 14
M TOR 14 1 8 7 5
M TOR 15 2 1 0 9
M TOR 16 2 1 0 10
M TOR 17 2 1 0 11
M TOR 18 2 1 4 15
M TOR 19 2 1 4 16
M TOR 20 2 1 8 7
M TOR 21 2 1 8 17
M TOR 22 2 1 8 18
M TOR 23 2 3 4 15
M TOR 24 2 3 4 16
M TOR 25 2 3 5 6
M TOR 26 2 3 5 7
M TOR 27 3 2 1 8
M TOR 28 3 4 1 8
M TOR 29 3 5 7 8
M TOR 30 4 1 0 9
M TOR 31 4 1 0 10
M TOR 32 4 1 0 11
M TOR 33 4 1 2 12
M TOR 34 4 1 2 13
M TOR 35 4 1 8 7
M TOR 36 4 1 8 17
M TOR 37 4 1 8 18
M TOR 38 4 3 2 12
M TOR 39 4 3 2 13
M TOR 40 4 3 5 6
M TOR 41 4 3 5 7
M TOR 42 5 3 2 12
M TOR 43 5 3 2 13
M TOR 44 5 3 4 15
M TOR 45 5 3 4 16
M TOR 46 5 7 8 17
M TOR 47 5 7 8 18
M TOR 48 6 5 3 14
M TOR 49 6 5 7 8
M TOR 50 7 5 3 14
M TOR 51 8 1 0 9
M TOR 52 8 1 0 10
M TOR 53 8 1 0 11
M TOR 54 8 1 2 12
M TOR 55 8 1 2 13
M TOR 56 8 1 4 15
M TOR 57 8 1 4 16
M  END
$$$$
