gdb 2345	2.9325896	1.5310159	1.2225654	1.3393	75.86	-0.23031	0.06099	0.2913	1080.8551	0.155525	-422.499669	-422.491352	-422.490408	-422.53239	31.921
 OpenBabel02181911413D

 19 21  0  0  1  0  0  0  0  0999 V2000
   -2.9215   -0.1877    0.4910 C   0  0  0  0  0  0  0  0  0  0  0  0
   -1.6615   -0.9690    0.2471 C   0  0  1  0  0  0  0  0  0  0  0  0
   -1.6929   -2.4958    0.0214 C   0  0  0  0  0  0  0  0  0  0  0  0
   -0.7963   -2.3881   -1.1138 O   0  0  0  0  0  0  0  0  0  0  0  0
   -0.7203   -0.9576   -0.9839 C   0  0  2  0  0  0  0  0  0  0  0  0
    0.3316   -0.4856    0.0018 C   0  0  0  0  0  0  0  0  0  0  0  0
    1.3316    0.6179   -0.1196 C   0  0  0  0  0  0  0  0  0  0  0  0
    1.7765   -0.8236    0.0972 C   0  0  0  0  0  0  0  0  0  0  0  0
   -0.5691   -0.5768    1.1184 O   0  0  0  0  0  0  0  0  0  0  0  0
   -3.3051   -0.3976    1.4958 H   0  0  0  0  0  0  0  0  0  0  0  0
   -2.7300    0.8865    0.4207 H   0  0  0  0  0  0  0  0  0  0  0  0
   -3.6953   -0.4581   -0.2338 H   0  0  0  0  0  0  0  0  0  0  0  0
   -1.2721   -3.0859    0.8423 H   0  0  0  0  0  0  0  0  0  0  0  0
   -2.6641   -2.9078   -0.2806 H   0  0  0  0  0  0  0  0  0  0  0  0
   -0.8542   -0.4308   -1.9309 H   0  0  0  0  0  0  0  0  0  0  0  0
    1.4863    1.0732   -1.0928 H   0  0  0  0  0  0  0  0  0  0  0  0
    1.4166    1.2974    0.7216 H   0  0  0  0  0  0  0  0  0  0  0  0
    2.2322   -1.3664   -0.7240 H   0  0  0  0  0  0  0  0  0  0  0  0
    2.1547   -1.0817    1.0804 H   0  0  0  0  0  0  0  0  0  0  0  0
  1 10  1  0  0  0  0
  2  1  1  6  0  0  0
  2  9  1  0  0  0  0
  3  2  1  0  0  0  0
  3 13  1  0  0  0  0
  4  5  1  0  0  0  0
  4  3  1  0  0  0  0
  5 15  1  6  0  0  0
  5  6  1  0  0  0  0
  5  2  1  0  0  0  0
  6  8  1  0  0  0  0
  6  9  1  0  0  0  0
  7  6  1  0  0  0  0
  7  8  1  0  0  0  0
  7 17  1  0  0  0  0
  8 19  1  0  0  0  0
 11  1  1  0  0  0  0
 12  1  1  0  0  0  0
 14  3  1  0  0  0  0
 16  7  1  0  0  0  0
 18  8  1  0  0  0  0
M TOR 0 0 1 2 3
M TOR 1 0 1 2 12
M TOR 2 0 1 2 13
M TOR 3 0 1 4 3
M TOR 4 0 1 4 5
M TOR 5 0 1 4 14
M TOR 6 0 1 8 5
M TOR 7 1 2 3 4
M TOR 8 1 4 5 6
M TOR 9 1 4 5 7
M TOR 10 1 4 5 8
M TOR 11 1 8 5 6
M TOR 12 1 8 5 7
M TOR 13 2 1 0 9
M TOR 14 2 1 0 10
M TOR 15 2 1 0 11
M TOR 16 2 1 4 5
M TOR 17 2 1 4 14
M TOR 18 2 1 8 5
M TOR 19 2 3 4 5
M TOR 20 2 3 4 14
M TOR 21 3 2 1 8
M TOR 22 3 4 1 8
M TOR 23 3 4 5 6
M TOR 24 3 4 5 7
M TOR 25 3 4 5 8
M TOR 26 4 1 0 9
M TOR 27 4 1 0 10
M TOR 28 4 1 0 11
M TOR 29 4 1 2 12
M TOR 30 4 1 2 13
M TOR 31 4 3 2 12
M TOR 32 4 3 2 13
M TOR 33 4 5 6 7
M TOR 34 4 5 6 15
M TOR 35 4 5 6 16
M TOR 36 4 5 7 17
M TOR 37 4 5 7 18
M TOR 38 5 6 7 17
M TOR 39 5 6 7 18
M TOR 40 5 7 6 15
M TOR 41 5 7 6 16
M TOR 42 6 5 4 14
M TOR 43 6 7 5 8
M TOR 44 7 5 4 14
M TOR 45 8 1 0 9
M TOR 46 8 1 0 10
M TOR 47 8 1 0 11
M TOR 48 8 1 2 12
M TOR 49 8 1 2 13
M TOR 50 8 1 4 14
M TOR 51 8 5 4 14
M TOR 52 8 5 6 15
M TOR 53 8 5 6 16
M TOR 54 8 5 7 17
M TOR 55 8 5 7 18
M  END
$$$$
