gdb 3406	2.8563704	1.4547045	1.1481718	1.7151	77.91	-0.22852	0.00423	0.23275	1121.7417	0.1564	-422.539878	-422.531198	-422.530254	-422.572676	33.153
 OpenBabel02181911413D

 19 20  0  0  1  0  0  0  0  0999 V2000
    0.8171   -0.6021   -0.7529 C   0  0  0  0  0  0  0  0  0  0  0  0
    0.9150    0.2700    0.4779 C   0  0  2  0  0  0  0  0  0  0  0  0
    1.9698    1.3516    0.5936 C   0  0  1  0  0  0  0  0  0  0  0  0
    1.5888    2.5619    1.1879 O   0  0  0  0  0  0  0  0  0  0  0  0
    2.0889    2.7745    2.5000 C   0  0  0  0  0  0  0  0  0  0  0  0
    1.9298    1.5774    3.4070 C   0  0  0  0  0  0  0  0  0  0  0  0
    1.8849    0.3418    2.9121 C   0  0  0  0  0  0  0  0  0  0  0  0
    2.0648    0.1180    1.4555 C   0  0  1  0  0  0  0  0  0  0  0  0
    2.9980   -0.8761    1.1155 O   0  0  0  0  0  0  0  0  0  0  0  0
    0.3054   -1.5437   -0.5282 H   0  0  0  0  0  0  0  0  0  0  0  0
    0.2540   -0.0921   -1.5420 H   0  0  0  0  0  0  0  0  0  0  0  0
    1.8075   -0.8511   -1.1391 H   0  0  0  0  0  0  0  0  0  0  0  0
   -0.0281    0.5436    0.9426 H   0  0  0  0  0  0  0  0  0  0  0  0
    2.6846    1.4535   -0.2224 H   0  0  0  0  0  0  0  0  0  0  0  0
    3.1504    3.0805    2.4703 H   0  0  0  0  0  0  0  0  0  0  0  0
    1.5266    3.6279    2.8929 H   0  0  0  0  0  0  0  0  0  0  0  0
    1.8524    1.7683    4.4737 H   0  0  0  0  0  0  0  0  0  0  0  0
    1.7625   -0.5334    3.5445 H   0  0  0  0  0  0  0  0  0  0  0  0
    3.8550   -0.6027    1.4618 H   0  0  0  0  0  0  0  0  0  0  0  0
  1 10  1  0  0  0  0
  1  2  1  0  0  0  0
  2  3  1  0  0  0  0
  2 13  1  1  0  0  0
  2  8  1  0  0  0  0
  3 14  1  6  0  0  0
  3  4  1  0  0  0  0
  3  8  1  0  0  0  0
  4  5  1  0  0  0  0
  5 16  1  0  0  0  0
  5  6  1  0  0  0  0
  6 17  1  0  0  0  0
  7  6  2  0  0  0  0
  7 18  1  0  0  0  0
  8  9  1  6  0  0  0
  8  7  1  0  0  0  0
  9 19  1  0  0  0  0
 11  1  1  0  0  0  0
 12  1  1  0  0  0  0
 15  5  1  0  0  0  0
M TOR 0 0 1 2 3
M TOR 1 0 1 2 7
M TOR 2 0 1 2 13
M TOR 3 0 1 7 6
M TOR 4 0 1 7 8
M TOR 5 1 2 3 4
M TOR 6 1 2 7 6
M TOR 7 1 2 7 8
M TOR 8 1 7 2 3
M TOR 9 1 7 2 13
M TOR 10 1 7 6 5
M TOR 11 1 7 6 17
M TOR 12 1 7 8 18
M TOR 13 2 1 0 9
M TOR 14 2 1 0 10
M TOR 15 2 1 0 11
M TOR 16 2 3 4 5
M TOR 17 2 3 4 14
M TOR 18 2 3 4 15
M TOR 19 2 7 1 12
M TOR 20 2 7 6 5
M TOR 21 2 7 6 17
M TOR 22 2 7 8 18
M TOR 23 3 2 1 12
M TOR 24 3 2 7 6
M TOR 25 3 2 7 8
M TOR 26 3 4 5 6
M TOR 27 3 4 5 16
M TOR 28 4 3 2 7
M TOR 29 4 3 2 13
M TOR 30 4 5 6 7
M TOR 31 4 5 6 17
M TOR 32 5 6 7 8
M TOR 33 6 5 4 14
M TOR 34 6 5 4 15
M TOR 35 6 7 1 12
M TOR 36 6 7 2 13
M TOR 37 6 7 8 18
M TOR 38 7 1 0 9
M TOR 39 7 1 0 10
M TOR 40 7 1 0 11
M TOR 41 7 6 5 16
M TOR 42 8 7 1 12
M TOR 43 8 7 2 13
M TOR 44 8 7 6 17
M  END
$$$$
