
     RDKit          3D

 19 21  0  0  0  0  0  0  0  0999 V2000
    0.6524    0.9618    0.4300 O   0  0  0  0  0  0  0  0  0  0  0  0
   -0.5639    1.0672    1.1204 C   0  0  0  0  0  0  0  0  0  0  0  0
   -1.8869    1.3036    0.3307 C   0  0  0  0  0  0  0  0  0  0  0  0
   -2.5549    0.3303    1.3062 C   0  0  0  0  0  0  0  0  0  0  0  0
   -1.1944   -0.2034    1.7692 C   0  0  0  0  0  0  0  0  0  0  0  0
   -3.8349   -0.4626    1.2369 C   0  0  0  0  0  0  0  0  0  0  0  0
   -4.9429    0.4283    0.6820 C   0  0  0  0  0  0  0  0  0  0  0  0
   -4.6467    1.4754    1.6482 O   0  0  0  0  0  0  0  0  0  0  0  0
   -3.6588    0.6436    2.2605 C   0  0  0  0  0  0  0  0  0  0  0  0
    0.5482    0.2971   -0.2592 H   0  0  0  0  0  0  0  0  0  0  0  0
   -0.4110    1.8497    1.8681 H   0  0  0  0  0  0  0  0  0  0  0  0
   -2.2839    2.3195    0.2828 H   0  0  0  0  0  0  0  0  0  0  0  0
   -1.8179    0.8966   -0.6860 H   0  0  0  0  0  0  0  0  0  0  0  0
   -1.0331   -0.3668    2.8383 H   0  0  0  0  0  0  0  0  0  0  0  0
   -0.8982   -1.1105    1.2275 H   0  0  0  0  0  0  0  0  0  0  0  0
   -3.8754   -1.5381    1.3520 H   0  0  0  0  0  0  0  0  0  0  0  0
   -4.8462    0.7773   -0.3530 H   0  0  0  0  0  0  0  0  0  0  0  0
   -5.9510    0.0327    0.8481 H   0  0  0  0  0  0  0  0  0  0  0  0
   -3.5831    0.6519    3.3429 H   0  0  0  0  0  0  0  0  0  0  0  0
  1  2  1  0
  2  3  1  0
  3  4  1  0
  4  5  1  0
  4  6  1  0
  6  7  1  0
  7  8  1  0
  8  9  1  0
  5  2  1  0
  9  6  1  0
  9  4  1  0
  1 10  1  0
  2 11  1  0
  3 12  1  0
  3 13  1  0
  5 14  1  0
  5 15  1  0
  6 16  1  0
  7 17  1  0
  7 18  1  0
  9 19  1  0
M  END
$$$$
