
     RDKit          3D

 19 19  0  0  0  0  0  0  0  0999 V2000
    1.5963    0.2747    0.3602 O   0  0  0  0  0  0  0  0  0  0  0  0
    0.2537   -0.1774    0.3089 C   0  0  0  0  0  0  0  0  0  0  0  0
   -0.6065    0.3886    1.4425 C   0  0  0  0  0  0  0  0  0  0  0  0
   -0.7279    1.9279    1.3723 C   0  0  0  0  0  0  0  0  0  0  0  0
   -1.9778    2.1900    0.7485 O   0  0  0  0  0  0  0  0  0  0  0  0
   -2.8782    1.2532    1.2998 C   0  0  0  0  0  0  0  0  0  0  0  0
   -2.0934   -0.0891    1.3212 C   0  0  0  0  0  0  0  0  0  0  0  0
   -2.5280   -1.0097    2.3579 C   0  0  0  0  0  0  0  0  0  0  0  0
   -2.8943   -1.7565    3.2264 C   0  0  0  0  0  0  0  0  0  0  0  0
    2.0063   -0.1002    1.1465 H   0  0  0  0  0  0  0  0  0  0  0  0
   -0.1405    0.1712   -0.6529 H   0  0  0  0  0  0  0  0  0  0  0  0
    0.1972   -1.2770    0.3090 H   0  0  0  0  0  0  0  0  0  0  0  0
   -0.1846    0.0736    2.4020 H   0  0  0  0  0  0  0  0  0  0  0  0
   -0.7056    2.3672    2.3818 H   0  0  0  0  0  0  0  0  0  0  0  0
    0.0631    2.3840    0.7735 H   0  0  0  0  0  0  0  0  0  0  0  0
   -3.1684    1.5299    2.3256 H   0  0  0  0  0  0  0  0  0  0  0  0
   -3.7730    1.2201    0.6749 H   0  0  0  0  0  0  0  0  0  0  0  0
   -2.2218   -0.5724    0.3445 H   0  0  0  0  0  0  0  0  0  0  0  0
   -3.2214   -2.4205    3.9876 H   0  0  0  0  0  0  0  0  0  0  0  0
  1  2  1  0
  2  3  1  0
  3  4  1  0
  4  5  1  0
  5  6  1  0
  6  7  1  0
  7  8  1  0
  8  9  3  0
  7  3  1  0
  1 10  1  0
  2 11  1  0
  2 12  1  0
  3 13  1  0
  4 14  1  0
  4 15  1  0
  6 16  1  0
  6 17  1  0
  7 18  1  0
  9 19  1  0
M  END
$$$$
