
     RDKit          3D

 19 21  0  0  0  0  0  0  0  0999 V2000
   -0.4458    2.0327   -1.4384 C   0  0  0  0  0  0  0  0  0  0  0  0
   -0.0627    2.5210   -0.0182 C   0  0  0  0  0  0  0  0  0  0  0  0
    0.7725    1.3738    0.5359 C   0  0  0  0  0  0  0  0  0  0  0  0
    0.1700   -0.0194    0.4420 C   0  0  0  0  0  0  0  0  0  0  0  0
    0.9911   -1.1424    1.0446 C   0  0  0  0  0  0  0  0  0  0  0  0
    2.3251   -0.9813    0.5474 O   0  0  0  0  0  0  0  0  0  0  0  0
    2.2730   -0.3605   -0.7318 C   0  0  0  0  0  0  0  0  0  0  0  0
    1.0534    0.5217   -0.6671 C   0  0  0  0  0  0  0  0  0  0  0  0
    0.5505    1.0846   -1.8351 O   0  0  0  0  0  0  0  0  0  0  0  0
   -1.4303    1.5454   -1.4261 H   0  0  0  0  0  0  0  0  0  0  0  0
   -0.4696    2.8288   -2.1865 H   0  0  0  0  0  0  0  0  0  0  0  0
    0.5568    3.4222   -0.0689 H   0  0  0  0  0  0  0  0  0  0  0  0
   -0.9511    2.7596    0.5744 H   0  0  0  0  0  0  0  0  0  0  0  0
    1.5293    1.5809    1.2858 H   0  0  0  0  0  0  0  0  0  0  0  0
   -0.9004   -0.1536    0.3312 H   0  0  0  0  0  0  0  0  0  0  0  0
    1.0609   -1.1256    2.1377 H   0  0  0  0  0  0  0  0  0  0  0  0
    0.5709   -2.1141    0.7400 H   0  0  0  0  0  0  0  0  0  0  0  0
    3.2137    0.1812   -0.8731 H   0  0  0  0  0  0  0  0  0  0  0  0
    2.1638   -1.0935   -1.5476 H   0  0  0  0  0  0  0  0  0  0  0  0
  1  2  1  0
  2  3  1  0
  3  4  1  0
  4  5  1  0
  5  6  1  0
  6  7  1  0
  7  8  1  0
  8  9  1  0
  9  1  1  0
  8  3  1  0
  8  4  1  0
  1 10  1  0
  1 11  1  0
  2 12  1  0
  2 13  1  0
  3 14  1  0
  4 15  1  0
  5 16  1  0
  5 17  1  0
  7 18  1  0
  7 19  1  0
M  END
$$$$
