gdb 3855	4.5758786	1.0047935	0.9608381	2.3687	75.79	-0.23267	0.074	0.30667	1262.1088	0.156765	-422.493411	-422.485316	-422.484371	-422.52611	31.322
 OpenBabel02181911413D

 19 21  0  0  1  0  0  0  0  0999 V2000
    0.6524    0.9618    0.4300 O   0  0  0  0  0  0  0  0  0  0  0  0
   -0.5639    1.0672    1.1204 C   0  0  1  0  0  0  0  0  0  0  0  0
   -1.8869    1.3036    0.3307 C   0  0  0  0  0  0  0  0  0  0  0  0
   -2.5549    0.3303    1.3062 C   0  0  2  0  0  0  0  0  0  0  0  0
   -1.1944   -0.2034    1.7692 C   0  0  0  0  0  0  0  0  0  0  0  0
   -3.8349   -0.4626    1.2369 C   0  0  2  0  0  0  0  0  0  0  0  0
   -4.9429    0.4283    0.6820 C   0  0  0  0  0  0  0  0  0  0  0  0
   -4.6467    1.4754    1.6482 O   0  0  0  0  0  0  0  0  0  0  0  0
   -3.6588    0.6436    2.2605 C   0  0  2  0  0  0  0  0  0  0  0  0
    0.5482    0.2971   -0.2592 H   0  0  0  0  0  0  0  0  0  0  0  0
   -0.4110    1.8497    1.8681 H   0  0  0  0  0  0  0  0  0  0  0  0
   -2.2839    2.3195    0.2828 H   0  0  0  0  0  0  0  0  0  0  0  0
   -1.8179    0.8966   -0.6860 H   0  0  0  0  0  0  0  0  0  0  0  0
   -1.0331   -0.3668    2.8383 H   0  0  0  0  0  0  0  0  0  0  0  0
   -0.8982   -1.1105    1.2275 H   0  0  0  0  0  0  0  0  0  0  0  0
   -3.8754   -1.5381    1.3520 H   0  0  0  0  0  0  0  0  0  0  0  0
   -4.8462    0.7773   -0.3530 H   0  0  0  0  0  0  0  0  0  0  0  0
   -5.9510    0.0327    0.8481 H   0  0  0  0  0  0  0  0  0  0  0  0
   -3.5831    0.6519    3.3429 H   0  0  0  0  0  0  0  0  0  0  0  0
  1  2  1  0  0  0  0
  2  5  1  0  0  0  0
  2 11  1  1  0  0  0
  3  2  1  0  0  0  0
  4  3  1  6  0  0  0
  4  5  1  0  0  0  0
  4  9  1  0  0  0  0
  5 14  1  0  0  0  0
  6  4  1  0  0  0  0
  6 16  1  1  0  0  0
  6  9  1  0  0  0  0
  7 18  1  0  0  0  0
  7  6  1  0  0  0  0
  7  8  1  0  0  0  0
  8  9  1  0  0  0  0
  9 19  1  1  0  0  0
 10  1  1  0  0  0  0
 12  3  1  0  0  0  0
 13  3  1  0  0  0  0
 15  5  1  0  0  0  0
 17  7  1  0  0  0  0
M TOR 0 0 1 2 3
M TOR 1 0 1 2 11
M TOR 2 0 1 2 12
M TOR 3 0 1 4 3
M TOR 4 0 1 4 13
M TOR 5 0 1 4 14
M TOR 6 1 2 3 4
M TOR 7 1 2 3 5
M TOR 8 1 2 3 8
M TOR 9 1 4 3 5
M TOR 10 1 4 3 8
M TOR 11 2 1 0 9
M TOR 12 2 1 4 13
M TOR 13 2 1 4 14
M TOR 14 2 3 4 13
M TOR 15 2 3 4 14
M TOR 16 2 3 5 6
M TOR 17 2 3 5 8
M TOR 18 2 3 5 15
M TOR 19 2 3 8 7
M TOR 20 2 3 8 18
M TOR 21 3 2 1 10
M TOR 22 3 4 1 10
M TOR 23 3 5 6 7
M TOR 24 3 5 6 16
M TOR 25 3 5 6 17
M TOR 26 3 5 8 7
M TOR 27 3 5 8 18
M TOR 28 3 8 5 6
M TOR 29 3 8 5 15
M TOR 30 3 8 7 6
M TOR 31 4 1 0 9
M TOR 32 4 1 2 11
M TOR 33 4 1 2 12
M TOR 34 4 3 2 11
M TOR 35 4 3 2 12
M TOR 36 4 3 5 6
M TOR 37 4 3 5 8
M TOR 38 4 3 5 15
M TOR 39 4 3 8 7
M TOR 40 4 3 8 18
M TOR 41 5 3 2 11
M TOR 42 5 3 2 12
M TOR 43 5 3 4 13
M TOR 44 5 3 4 14
M TOR 45 5 6 7 8
M TOR 46 6 5 8 18
M TOR 47 6 7 8 18
M TOR 48 7 6 5 15
M TOR 49 7 8 5 15
M TOR 50 8 3 2 11
M TOR 51 8 3 2 12
M TOR 52 8 3 4 13
M TOR 53 8 3 4 14
M TOR 54 8 5 6 16
M TOR 55 8 5 6 17
M TOR 56 8 7 6 16
M TOR 57 8 7 6 17
M  END
$$$$
