
     RDKit          3D

 19 21  0  0  0  0  0  0  0  0999 V2000
   -0.5027   -0.8138    2.9672 C   0  0  0  0  0  0  0  0  0  0  0  0
   -1.3721    0.0436    2.0947 C   0  0  0  0  0  0  0  0  0  0  0  0
   -0.8996    0.6758    0.8232 C   0  0  0  0  0  0  0  0  0  0  0  0
    0.4949    0.6703    0.6869 O   0  0  0  0  0  0  0  0  0  0  0  0
   -1.4456    1.5837    1.9046 C   0  0  0  0  0  0  0  0  0  0  0  0
   -2.9833    1.5528    1.9924 C   0  0  0  0  0  0  0  0  0  0  0  0
   -3.7997    1.2942    0.7076 C   0  0  0  0  0  0  0  0  0  0  0  0
   -3.5977   -0.1399    0.8258 O   0  0  0  0  0  0  0  0  0  0  0  0
   -2.9209    0.0191    2.1015 C   0  0  0  0  0  0  0  0  0  0  0  0
   -0.5843   -1.8687    2.6776 H   0  0  0  0  0  0  0  0  0  0  0  0
    0.5445   -0.5200    2.8683 H   0  0  0  0  0  0  0  0  0  0  0  0
   -0.7876   -0.7354    4.0224 H   0  0  0  0  0  0  0  0  0  0  0  0
   -1.4451    0.4998   -0.1018 H   0  0  0  0  0  0  0  0  0  0  0  0
    0.7469    1.4672    0.2094 H   0  0  0  0  0  0  0  0  0  0  0  0
   -0.8048    2.3481    2.3298 H   0  0  0  0  0  0  0  0  0  0  0  0
   -3.4237    2.1752    2.7697 H   0  0  0  0  0  0  0  0  0  0  0  0
   -4.8634    1.5477    0.7935 H   0  0  0  0  0  0  0  0  0  0  0  0
   -3.4076    1.6959   -0.2340 H   0  0  0  0  0  0  0  0  0  0  0  0
   -3.3858   -0.5642    2.9009 H   0  0  0  0  0  0  0  0  0  0  0  0
  1  2  1  0
  2  3  1  0
  3  4  1  0
  3  5  1  0
  5  6  1  0
  6  7  1  0
  7  8  1  0
  8  9  1  0
  5  2  1  0
  9  6  1  0
  9  2  1  0
  1 10  1  0
  1 11  1  0
  1 12  1  0
  3 13  1  0
  4 14  1  0
  5 15  1  0
  6 16  1  0
  7 17  1  0
  7 18  1  0
  9 19  1  0
M  END
$$$$
