
     RDKit          3D

 19 20  0  0  0  0  0  0  0  0999 V2000
    0.1903    3.0141    1.1069 C   0  0  0  0  0  0  0  0  0  0  0  0
   -1.0561    2.3835    0.5456 C   0  0  0  0  0  0  0  0  0  0  0  0
   -1.1042    2.1888   -0.8698 O   0  0  0  0  0  0  0  0  0  0  0  0
   -1.0605    1.0323   -0.0589 C   0  0  0  0  0  0  0  0  0  0  0  0
   -2.1156   -0.0931    0.0030 C   0  0  0  0  0  0  0  0  0  0  0  0
   -3.2426    0.0277    1.0190 C   0  0  0  0  0  0  0  0  0  0  0  0
   -0.9623   -1.1088    0.3007 C   0  0  0  0  0  0  0  0  0  0  0  0
    0.0597    0.0063   -0.0052 C   0  0  0  0  0  0  0  0  0  0  0  0
    1.2454    0.0432   -0.1692 O   0  0  0  0  0  0  0  0  0  0  0  0
    0.2249    2.8884    2.1943 H   0  0  0  0  0  0  0  0  0  0  0  0
    1.0803    2.5575    0.6687 H   0  0  0  0  0  0  0  0  0  0  0  0
    0.1996    4.0878    0.8923 H   0  0  0  0  0  0  0  0  0  0  0  0
   -2.0034    2.7235    0.9683 H   0  0  0  0  0  0  0  0  0  0  0  0
   -2.5221   -0.2620   -0.9996 H   0  0  0  0  0  0  0  0  0  0  0  0
   -3.8508   -0.8822    1.0409 H   0  0  0  0  0  0  0  0  0  0  0  0
   -2.8493    0.1924    2.0282 H   0  0  0  0  0  0  0  0  0  0  0  0
   -3.9072    0.8634    0.7752 H   0  0  0  0  0  0  0  0  0  0  0  0
   -0.9173   -1.4332    1.3458 H   0  0  0  0  0  0  0  0  0  0  0  0
   -0.8945   -1.9890   -0.3424 H   0  0  0  0  0  0  0  0  0  0  0  0
  1  2  1  0
  2  3  1  0
  3  4  1  0
  4  5  1  0
  5  6  1  0
  5  7  1  0
  7  8  1  0
  8  9  2  0
  4  2  1  0
  8  4  1  0
  1 10  1  0
  1 11  1  0
  1 12  1  0
  2 13  1  0
  5 14  1  0
  6 15  1  0
  6 16  1  0
  6 17  1  0
  7 18  1  0
  7 19  1  0
M  END
$$$$
