
     RDKit          3D

 19 21  0  0  0  0  0  0  0  0999 V2000
    0.2206   -0.2655    0.5167 O   0  0  0  0  0  0  0  0  0  0  0  0
   -0.7262    0.6475    0.9956 C   0  0  0  0  0  0  0  0  0  0  0  0
   -1.6289    0.0784    2.0543 C   0  0  0  0  0  0  0  0  0  0  0  0
   -0.5767    1.1280    2.4183 C   0  0  0  0  0  0  0  0  0  0  0  0
   -1.4528    2.3090    2.8772 C   0  0  0  0  0  0  0  0  0  0  0  0
   -2.5557    1.5820    3.6666 C   0  0  0  0  0  0  0  0  0  0  0  0
   -2.9692    0.7600    2.4147 C   0  0  0  0  0  0  0  0  0  0  0  0
   -3.2419    1.9303    1.4620 C   0  0  0  0  0  0  0  0  0  0  0  0
   -2.1766    2.8597    1.7577 O   0  0  0  0  0  0  0  0  0  0  0  0
    1.0070    0.2315    0.2674 H   0  0  0  0  0  0  0  0  0  0  0  0
   -1.1107    1.3431    0.2550 H   0  0  0  0  0  0  0  0  0  0  0  0
   -1.4856   -0.9676    2.2986 H   0  0  0  0  0  0  0  0  0  0  0  0
    0.3260    0.8766    2.9649 H   0  0  0  0  0  0  0  0  0  0  0  0
   -0.9207    3.1236    3.3687 H   0  0  0  0  0  0  0  0  0  0  0  0
   -2.1661    0.9613    4.4764 H   0  0  0  0  0  0  0  0  0  0  0  0
   -3.3364    2.2508    4.0423 H   0  0  0  0  0  0  0  0  0  0  0  0
   -3.8072    0.0723    2.5284 H   0  0  0  0  0  0  0  0  0  0  0  0
   -3.2050    1.6534    0.4031 H   0  0  0  0  0  0  0  0  0  0  0  0
   -4.2122    2.4027    1.6646 H   0  0  0  0  0  0  0  0  0  0  0  0
  1  2  1  0
  2  3  1  0
  3  4  1  0
  4  5  1  0
  5  6  1  0
  6  7  1  0
  7  8  1  0
  8  9  1  0
  4  2  1  0
  9  5  1  0
  7  3  1  0
  1 10  1  0
  2 11  1  0
  3 12  1  0
  4 13  1  0
  5 14  1  0
  6 15  1  0
  6 16  1  0
  7 17  1  0
  8 18  1  0
  8 19  1  0
M  END
$$$$
