
     RDKit          3D

 19 21  0  0  0  0  0  0  0  0999 V2000
    0.0766    0.3591    0.0964 C   0  0  0  0  0  0  0  0  0  0  0  0
    1.0456   -0.7929    0.0377 C   0  0  0  0  0  0  0  0  0  0  0  0
    2.2660   -0.6641    0.7956 O   0  0  0  0  0  0  0  0  0  0  0  0
    2.3528   -0.7465   -0.6208 C   0  0  0  0  0  0  0  0  0  0  0  0
    3.0560   -1.8740   -1.4118 C   0  0  0  0  0  0  0  0  0  0  0  0
    3.6153   -0.7980   -2.3531 C   0  0  0  0  0  0  0  0  0  0  0  0
    4.4592    0.1658   -1.5555 C   0  0  0  0  0  0  0  0  0  0  0  0
    2.9600    0.3096   -1.5192 C   0  0  0  0  0  0  0  0  0  0  0  0
    2.3152    1.4536   -1.9566 O   0  0  0  0  0  0  0  0  0  0  0  0
   -0.4297    0.3767    1.0675 H   0  0  0  0  0  0  0  0  0  0  0  0
    0.5872    1.3098   -0.0580 H   0  0  0  0  0  0  0  0  0  0  0  0
   -0.6875    0.2515   -0.6808 H   0  0  0  0  0  0  0  0  0  0  0  0
    0.5874   -1.7810    0.1309 H   0  0  0  0  0  0  0  0  0  0  0  0
    3.8005   -2.4467   -0.8505 H   0  0  0  0  0  0  0  0  0  0  0  0
    2.3514   -2.5623   -1.8854 H   0  0  0  0  0  0  0  0  0  0  0  0
    3.6857   -0.8713   -3.4299 H   0  0  0  0  0  0  0  0  0  0  0  0
    5.0176   -0.1711   -0.6853 H   0  0  0  0  0  0  0  0  0  0  0  0
    4.9516    0.9328   -2.1459 H   0  0  0  0  0  0  0  0  0  0  0  0
    2.6767    2.2067   -1.4775 H   0  0  0  0  0  0  0  0  0  0  0  0
  1  2  1  0
  2  3  1  0
  3  4  1  0
  4  5  1  0
  5  6  1  0
  6  7  1  0
  7  8  1  0
  8  9  1  0
  4  2  1  0
  8  4  1  0
  8  6  1  0
  1 10  1  0
  1 11  1  0
  1 12  1  0
  2 13  1  0
  5 14  1  0
  5 15  1  0
  6 16  1  0
  7 17  1  0
  7 18  1  0
  9 19  1  0
M  END
$$$$
