gdb 1220	2.5473083	1.0118318	0.8674171	3.3775	78.09	-0.24264	-0.01822	0.22442	1387.2057	0.151666	-422.542233	-422.531466	-422.530522	-422.578506	38.301
 OpenBabel02181911403D

 19 18  0  0  1  0  0  0  0  0999 V2000
    4.6683    0.7528    1.0620 C   0  0  0  0  0  0  0  0  0  0  0  0
    3.1487    0.7016    1.2725 C   0  0  1  0  0  0  0  0  0  0  0  0
    2.8332   -0.0313    2.4539 O   0  0  0  0  0  0  0  0  0  0  0  0
    2.5651    2.1094    1.5013 C   0  0  0  0  0  0  0  0  0  0  0  0
    3.1115    2.7912    2.7372 C   0  0  0  0  0  0  0  0  0  0  0  0
    3.5984    3.8944    2.7418 O   0  0  0  0  0  0  0  0  0  0  0  0
    2.4840    0.0358    0.0333 C   0  0  0  0  0  0  0  0  0  0  0  0
    1.0384   -0.1073    0.1328 C   0  0  0  0  0  0  0  0  0  0  0  0
   -0.1557   -0.2196    0.2088 C   0  0  0  0  0  0  0  0  0  0  0  0
    5.1616    1.1856    1.9361 H   0  0  0  0  0  0  0  0  0  0  0  0
    5.0704   -0.2555    0.9082 H   0  0  0  0  0  0  0  0  0  0  0  0
    4.9316    1.3554    0.1874 H   0  0  0  0  0  0  0  0  0  0  0  0
    3.2262   -0.9079    2.3833 H   0  0  0  0  0  0  0  0  0  0  0  0
    2.7494    2.7518    0.6362 H   0  0  0  0  0  0  0  0  0  0  0  0
    1.4808    1.9997    1.6323 H   0  0  0  0  0  0  0  0  0  0  0  0
    3.0208    2.1960    3.6693 H   0  0  0  0  0  0  0  0  0  0  0  0
    2.7401    0.6153   -0.8627 H   0  0  0  0  0  0  0  0  0  0  0  0
    2.9418   -0.9537   -0.1051 H   0  0  0  0  0  0  0  0  0  0  0  0
   -1.2103   -0.3232    0.2773 H   0  0  0  0  0  0  0  0  0  0  0  0
  1  2  1  0  0  0  0
  1 10  1  0  0  0  0
  2  4  1  0  0  0  0
  2  3  1  1  0  0  0
  4 15  1  0  0  0  0
  4  5  1  0  0  0  0
  5  6  2  0  0  0  0
  5 16  1  0  0  0  0
  7  8  1  0  0  0  0
  7  2  1  0  0  0  0
  8  9  3  0  0  0  0
  9 19  1  0  0  0  0
 11  1  1  0  0  0  0
 12  1  1  0  0  0  0
 13  3  1  0  0  0  0
 14  4  1  0  0  0  0
 17  7  1  0  0  0  0
 18  7  1  0  0  0  0
M TOR 0 0 1 2 12
M TOR 1 0 1 3 4
M TOR 2 0 1 3 13
M TOR 3 0 1 3 14
M TOR 4 0 1 6 7
M TOR 5 0 1 6 16
M TOR 6 0 1 6 17
M TOR 7 1 3 4 5
M TOR 8 1 3 4 15
M TOR 9 1 6 7 8
M TOR 10 2 1 0 9
M TOR 11 2 1 0 10
M TOR 12 2 1 0 11
M TOR 13 2 1 3 4
M TOR 14 2 1 3 13
M TOR 15 2 1 3 14
M TOR 16 2 1 6 7
M TOR 17 2 1 6 16
M TOR 18 2 1 6 17
M TOR 19 3 1 0 9
M TOR 20 3 1 0 10
M TOR 21 3 1 0 11
M TOR 22 3 1 2 12
M TOR 23 3 1 6 7
M TOR 24 3 1 6 16
M TOR 25 3 1 6 17
M TOR 26 4 3 1 6
M TOR 27 5 4 3 13
M TOR 28 5 4 3 14
M TOR 29 6 1 0 9
M TOR 30 6 1 0 10
M TOR 31 6 1 0 11
M TOR 32 6 1 2 12
M TOR 33 6 1 3 13
M TOR 34 6 1 3 14
M TOR 35 6 7 8 18
M TOR 36 8 7 6 16
M TOR 37 8 7 6 17
M  END
$$$$
