
     RDKit          3D

 19 19  0  0  0  0  0  0  0  0999 V2000
   -0.6396    1.9229   -1.3746 C   0  0  0  0  0  0  0  0  0  0  0  0
   -0.9491    1.2407   -0.0268 C   0  0  0  0  0  0  0  0  0  0  0  0
   -0.7635    2.2307    1.1284 C   0  0  0  0  0  0  0  0  0  0  0  0
   -2.3431    0.5543   -0.0360 C   0  0  0  0  0  0  0  0  0  0  0  0
   -3.1845    1.0997   -1.0434 O   0  0  0  0  0  0  0  0  0  0  0  0
   -2.0362   -0.9160   -0.2405 C   0  0  0  0  0  0  0  0  0  0  0  0
   -0.7348   -1.1965   -0.1309 C   0  0  0  0  0  0  0  0  0  0  0  0
    0.0281    0.0502    0.1163 C   0  0  0  0  0  0  0  0  0  0  0  0
    1.2064    0.1450    0.3717 O   0  0  0  0  0  0  0  0  0  0  0  0
   -0.7651    1.2345   -2.2144 H   0  0  0  0  0  0  0  0  0  0  0  0
   -1.3094    2.7703   -1.5358 H   0  0  0  0  0  0  0  0  0  0  0  0
    0.3948    2.2771   -1.3670 H   0  0  0  0  0  0  0  0  0  0  0  0
   -0.9986    1.7702    2.0940 H   0  0  0  0  0  0  0  0  0  0  0  0
    0.2759    2.5675    1.1654 H   0  0  0  0  0  0  0  0  0  0  0  0
   -1.4113    3.1036    0.9995 H   0  0  0  0  0  0  0  0  0  0  0  0
   -2.8171    0.6844    0.9505 H   0  0  0  0  0  0  0  0  0  0  0  0
   -4.0715    0.7478   -0.9185 H   0  0  0  0  0  0  0  0  0  0  0  0
   -2.8270   -1.6367   -0.4270 H   0  0  0  0  0  0  0  0  0  0  0  0
   -0.2609   -2.1681   -0.1936 H   0  0  0  0  0  0  0  0  0  0  0  0
  1  2  1  0
  2  3  1  0
  2  4  1  0
  4  5  1  0
  4  6  1  0
  6  7  2  0
  7  8  1  0
  8  9  2  0
  8  2  1  0
  1 10  1  0
  1 11  1  0
  1 12  1  0
  3 13  1  0
  3 14  1  0
  3 15  1  0
  4 16  1  0
  5 17  1  0
  6 18  1  0
  7 19  1  0
M  END
$$$$
