gdb 5930	3.4999826	0.9096277	0.8426691	1.1439	80.36	-0.24441	0.04021	0.28462	1441.316	0.153049	-422.495076	-422.484746	-422.483802	-422.530481	36.987
 OpenBabel02181911423D

 19 19  0  0  1  0  0  0  0  0999 V2000
    1.3627    0.8843    0.0556 C   0  0  0  0  0  0  0  0  0  0  0  0
   -0.0274    0.9675    0.2660 O   0  0  0  0  0  0  0  0  0  0  0  0
   -0.5229   -0.0545    1.0992 C   0  0  0  0  0  0  0  0  0  0  0  0
   -2.0175    0.1121    1.2712 C   0  0  2  0  0  0  0  0  0  0  0  0
   -2.5338   -0.9163    2.0581 O   0  0  0  0  0  0  0  0  0  0  0  0
   -2.8588    0.6746    0.1689 C   0  0  0  0  0  0  0  0  0  0  0  0
   -2.5959    1.5154    1.4249 C   0  0  1  0  0  0  0  0  0  0  0  0
   -3.6224    1.6929    2.4041 C   0  0  0  0  0  0  0  0  0  0  0  0
   -4.4605    1.7625    3.2676 C   0  0  0  0  0  0  0  0  0  0  0  0
    1.6439   -0.0635   -0.4287 H   0  0  0  0  0  0  0  0  0  0  0  0
    1.6444    1.7135   -0.5974 H   0  0  0  0  0  0  0  0  0  0  0  0
    1.9226    0.9670    1.0000 H   0  0  0  0  0  0  0  0  0  0  0  0
   -0.3235   -1.0487    0.6650 H   0  0  0  0  0  0  0  0  0  0  0  0
   -0.0400   -0.0274    2.0902 H   0  0  0  0  0  0  0  0  0  0  0  0
   -3.0699   -0.5197    2.7583 H   0  0  0  0  0  0  0  0  0  0  0  0
   -2.3686    1.0081   -0.7375 H   0  0  0  0  0  0  0  0  0  0  0  0
   -3.8524    0.2576    0.0563 H   0  0  0  0  0  0  0  0  0  0  0  0
   -1.8908    2.3311    1.3074 H   0  0  0  0  0  0  0  0  0  0  0  0
   -5.2182    1.8691    4.0038 H   0  0  0  0  0  0  0  0  0  0  0  0
  1  2  1  0  0  0  0
  1 12  1  0  0  0  0
  2  3  1  0  0  0  0
  3  4  1  0  0  0  0
  3 14  1  0  0  0  0
  4  7  1  0  0  0  0
  4  5  1  1  0  0  0
  5 15  1  0  0  0  0
  6  4  1  0  0  0  0
  6  7  1  0  0  0  0
  7 18  1  6  0  0  0
  7  8  1  0  0  0  0
  8  9  3  0  0  0  0
  9 19  1  0  0  0  0
 10  1  1  0  0  0  0
 11  1  1  0  0  0  0
 13  3  1  0  0  0  0
 16  6  1  0  0  0  0
 17  6  1  0  0  0  0
M TOR 0 0 1 2 3
M TOR 1 0 1 2 12
M TOR 2 0 1 2 13
M TOR 3 1 2 3 4
M TOR 4 1 2 3 5
M TOR 5 1 2 3 6
M TOR 6 2 1 0 9
M TOR 7 2 1 0 10
M TOR 8 2 1 0 11
M TOR 9 2 3 4 14
M TOR 10 2 3 5 6
M TOR 11 2 3 5 15
M TOR 12 2 3 5 16
M TOR 13 2 3 6 7
M TOR 14 2 3 6 17
M TOR 15 3 5 6 7
M TOR 16 3 5 6 17
M TOR 17 3 6 5 15
M TOR 18 3 6 5 16
M TOR 19 3 6 7 8
M TOR 20 4 3 2 12
M TOR 21 4 3 2 13
M TOR 22 4 3 5 6
M TOR 23 4 3 5 15
M TOR 24 4 3 5 16
M TOR 25 4 3 6 7
M TOR 26 4 3 6 17
M TOR 27 5 3 2 12
M TOR 28 5 3 2 13
M TOR 29 5 3 4 14
M TOR 30 5 6 7 8
M TOR 31 6 3 2 12
M TOR 32 6 3 2 13
M TOR 33 6 3 4 14
M TOR 34 6 7 8 18
M TOR 35 7 6 5 15
M TOR 36 7 6 5 16
M TOR 37 8 7 6 17
M  END
$$$$
