
     RDKit          3D

 19 18  0  0  0  0  0  0  0  0999 V2000
   -0.1469   -0.1687    0.1438 C   0  0  0  0  0  0  0  0  0  0  0  0
    1.3642   -0.0132    0.1432 C   0  0  0  0  0  0  0  0  0  0  0  0
    1.8453   -0.4892   -1.1100 O   0  0  0  0  0  0  0  0  0  0  0  0
    3.2558   -0.5516   -1.2758 C   0  0  0  0  0  0  0  0  0  0  0  0
    3.9345    0.8227   -1.3004 C   0  0  0  0  0  0  0  0  0  0  0  0
    3.4010   -1.2563   -2.6488 C   0  0  0  0  0  0  0  0  0  0  0  0
    4.2439   -0.9970   -3.4601 O   0  0  0  0  0  0  0  0  0  0  0  0
    3.8847   -1.4525   -0.2965 C   0  0  0  0  0  0  0  0  0  0  0  0
    4.4051   -2.2209    0.4685 C   0  0  0  0  0  0  0  0  0  0  0  0
   -0.5627    0.1938    1.0887 H   0  0  0  0  0  0  0  0  0  0  0  0
   -0.5944    0.4034   -0.6739 H   0  0  0  0  0  0  0  0  0  0  0  0
   -0.4252   -1.2190    0.0206 H   0  0  0  0  0  0  0  0  0  0  0  0
    1.6416    1.0412    0.2842 H   0  0  0  0  0  0  0  0  0  0  0  0
    1.8174   -0.5904    0.9607 H   0  0  0  0  0  0  0  0  0  0  0  0
    3.9763    1.2639   -0.3028 H   0  0  0  0  0  0  0  0  0  0  0  0
    4.9512    0.7157   -1.6831 H   0  0  0  0  0  0  0  0  0  0  0  0
    3.3785    1.4858   -1.9685 H   0  0  0  0  0  0  0  0  0  0  0  0
    2.6284   -2.0376   -2.8000 H   0  0  0  0  0  0  0  0  0  0  0  0
    4.8669   -2.8915    1.1511 H   0  0  0  0  0  0  0  0  0  0  0  0
  1  2  1  0
  2  3  1  0
  3  4  1  0
  4  5  1  0
  4  6  1  0
  6  7  2  0
  4  8  1  0
  8  9  3  0
  1 10  1  0
  1 11  1  0
  1 12  1  0
  2 13  1  0
  2 14  1  0
  5 15  1  0
  5 16  1  0
  5 17  1  0
  6 18  1  0
  9 19  1  0
M  END
$$$$
