gdb 2139	2.7803237	1.8398732	1.5733993	2.4057	72.86	-0.22236	0.06766	0.29002	921.2072	0.159495	-422.5653	-422.558072	-422.557128	-422.596501	29.591
 OpenBabel02181911403D

 19 21  0  0  1  0  0  0  0  0999 V2000
   -0.2361    0.3097   -0.1171 O   0  0  0  0  0  0  0  0  0  0  0  0
   -0.6743    1.4113    0.6468 C   0  0  2  0  0  0  0  0  0  0  0  0
    0.3368    2.5742    0.7794 C   0  0  0  0  0  0  0  0  0  0  0  0
   -0.3035    3.4256    1.8622 C   0  0  2  0  0  0  0  0  0  0  0  0
   -1.1817    2.4888    2.7093 C   0  0  2  0  0  0  0  0  0  0  0  0
   -1.0476    1.0975    2.1147 C   0  0  0  0  0  0  0  0  0  0  0  0
   -1.8041    3.4835    1.7673 C   0  0  2  0  0  0  0  0  0  0  0  0
   -2.4812    3.0720    0.6100 O   0  0  0  0  0  0  0  0  0  0  0  0
   -1.9255    1.9431   -0.0622 C   0  0  0  0  0  0  0  0  0  0  0  0
    0.5527   -0.0494    0.3027 H   0  0  0  0  0  0  0  0  0  0  0  0
    1.3141    2.1951    1.1069 H   0  0  0  0  0  0  0  0  0  0  0  0
    0.4783    3.0970   -0.1720 H   0  0  0  0  0  0  0  0  0  0  0  0
    0.2445    4.2517    2.3013 H   0  0  0  0  0  0  0  0  0  0  0  0
   -1.2894    2.6155    3.7807 H   0  0  0  0  0  0  0  0  0  0  0  0
   -0.2379    0.5396    2.6037 H   0  0  0  0  0  0  0  0  0  0  0  0
   -1.9600    0.4960    2.1798 H   0  0  0  0  0  0  0  0  0  0  0  0
   -2.3123    4.3424    2.1903 H   0  0  0  0  0  0  0  0  0  0  0  0
   -2.6819    1.1490   -0.1112 H   0  0  0  0  0  0  0  0  0  0  0  0
   -1.6675    2.2311   -1.0897 H   0  0  0  0  0  0  0  0  0  0  0  0
  1 10  1  0  0  0  0
  2  1  1  6  0  0  0
  2  3  1  0  0  0  0
  2  6  1  0  0  0  0
  3 11  1  0  0  0  0
  3  4  1  0  0  0  0
  4 13  1  1  0  0  0
  4  5  1  0  0  0  0
  5 14  1  1  0  0  0
  6 16  1  0  0  0  0
  6 15  1  0  0  0  0
  6  5  1  0  0  0  0
  7  4  1  0  0  0  0
  7 17  1  1  0  0  0
  7  5  1  0  0  0  0
  8  7  1  0  0  0  0
  9  8  1  0  0  0  0
  9  2  1  0  0  0  0
 12  3  1  0  0  0  0
 18  9  1  0  0  0  0
 19  9  1  0  0  0  0
M TOR 0 0 1 2 3
M TOR 1 0 1 2 10
M TOR 2 0 1 2 11
M TOR 3 0 1 5 4
M TOR 4 0 1 5 14
M TOR 5 0 1 5 15
M TOR 6 0 1 8 7
M TOR 7 0 1 8 17
M TOR 8 0 1 8 18
M TOR 9 1 2 3 4
M TOR 10 1 2 3 6
M TOR 11 1 2 3 12
M TOR 12 1 5 4 3
M TOR 13 1 5 4 6
M TOR 14 1 5 4 13
M TOR 15 1 8 7 6
M TOR 16 2 1 0 9
M TOR 17 2 1 5 4
M TOR 18 2 1 5 14
M TOR 19 2 1 5 15
M TOR 20 2 1 8 7
M TOR 21 2 1 8 17
M TOR 22 2 1 8 18
M TOR 23 2 3 4 5
M TOR 24 2 3 4 6
M TOR 25 2 3 4 13
M TOR 26 2 3 6 7
M TOR 27 2 3 6 16
M TOR 28 3 2 1 5
M TOR 29 3 2 1 8
M TOR 30 3 4 5 14
M TOR 31 3 4 5 15
M TOR 32 3 4 6 7
M TOR 33 3 4 6 16
M TOR 34 3 6 4 5
M TOR 35 3 6 4 13
M TOR 36 3 6 7 8
M TOR 37 4 3 2 10
M TOR 38 4 3 2 11
M TOR 39 4 5 1 8
M TOR 40 4 6 3 12
M TOR 41 4 6 7 8
M TOR 42 5 1 0 9
M TOR 43 5 1 2 10
M TOR 44 5 1 2 11
M TOR 45 5 1 8 7
M TOR 46 5 1 8 17
M TOR 47 5 1 8 18
M TOR 48 5 4 3 12
M TOR 49 5 4 6 7
M TOR 50 5 4 6 16
M TOR 51 6 3 2 10
M TOR 52 6 3 2 11
M TOR 53 6 4 5 14
M TOR 54 6 4 5 15
M TOR 55 6 7 8 17
M TOR 56 6 7 8 18
M TOR 57 7 6 3 12
M TOR 58 7 6 4 13
M TOR 59 8 1 0 9
M TOR 60 8 1 2 10
M TOR 61 8 1 2 11
M TOR 62 8 1 5 14
M TOR 63 8 1 5 15
M TOR 64 8 7 6 16
M  END
$$$$
