gdb 4718	2.6520383	0.9812396	0.7543957	1.6652	78.01	-0.25545	0.0455	0.30095	1484.276	0.154169	-422.504735	-422.494611	-422.493666	-422.540099	36.836
 OpenBabel02181911413D

 19 19  0  0  1  0  0  0  0  0999 V2000
    2.6942   -1.9110   -1.4620 O   0  0  0  0  0  0  0  0  0  0  0  0
    3.0694   -0.5685   -1.2522 C   0  0  0  0  0  0  0  0  0  0  0  0
    2.6183   -0.0325    0.1288 C   0  0  2  0  0  0  0  0  0  0  0  0
    1.1661   -0.1679    0.2515 C   0  0  0  0  0  0  0  0  0  0  0  0
   -0.0290   -0.3023    0.2908 C   0  0  0  0  0  0  0  0  0  0  0  0
    3.0775    1.4023    0.3413 C   0  0  2  0  0  0  0  0  0  0  0  0
    4.4922    1.6937    0.8078 C   0  0  0  0  0  0  0  0  0  0  0  0
    3.3109    1.9475    1.7129 C   0  0  1  0  0  0  0  0  0  0  0  0
    2.8793    3.2568    1.9369 O   0  0  0  0  0  0  0  0  0  0  0  0
    1.7365   -1.9563   -1.3514 H   0  0  0  0  0  0  0  0  0  0  0  0
    4.1615   -0.5352   -1.3047 H   0  0  0  0  0  0  0  0  0  0  0  0
    2.6734    0.0961   -2.0363 H   0  0  0  0  0  0  0  0  0  0  0  0
    3.0882   -0.6729    0.8879 H   0  0  0  0  0  0  0  0  0  0  0  0
   -1.0841   -0.4033    0.3592 H   0  0  0  0  0  0  0  0  0  0  0  0
    2.6590    2.1214   -0.3567 H   0  0  0  0  0  0  0  0  0  0  0  0
    5.1481    0.8591    1.0355 H   0  0  0  0  0  0  0  0  0  0  0  0
    4.9853    2.5602    0.3815 H   0  0  0  0  0  0  0  0  0  0  0  0
    3.1671    1.2634    2.5501 H   0  0  0  0  0  0  0  0  0  0  0  0
    3.4962    3.6717    2.5491 H   0  0  0  0  0  0  0  0  0  0  0  0
  1 10  1  0  0  0  0
  1  2  1  0  0  0  0
  2  3  1  0  0  0  0
  3  4  1  0  0  0  0
  3  6  1  0  0  0  0
  3 13  1  1  0  0  0
  4  5  3  0  0  0  0
  5 14  1  0  0  0  0
  6 15  1  6  0  0  0
  6  7  1  0  0  0  0
  6  8  1  0  0  0  0
  7 16  1  0  0  0  0
  7  8  1  0  0  0  0
  8  9  1  0  0  0  0
  8 18  1  1  0  0  0
  9 19  1  0  0  0  0
 11  2  1  0  0  0  0
 12  2  1  0  0  0  0
 17  7  1  0  0  0  0
M TOR 0 0 1 2 3
M TOR 1 0 1 2 5
M TOR 2 0 1 2 12
M TOR 3 1 2 3 4
M TOR 4 1 2 5 6
M TOR 5 1 2 5 7
M TOR 6 1 2 5 14
M TOR 7 2 1 0 9
M TOR 8 2 3 4 13
M TOR 9 2 5 6 7
M TOR 10 2 5 6 15
M TOR 11 2 5 6 16
M TOR 12 2 5 7 8
M TOR 13 2 5 7 17
M TOR 14 3 2 1 10
M TOR 15 3 2 1 11
M TOR 16 3 2 5 6
M TOR 17 3 2 5 7
M TOR 18 3 2 5 14
M TOR 19 4 3 2 5
M TOR 20 4 3 2 12
M TOR 21 5 2 1 10
M TOR 22 5 2 1 11
M TOR 23 5 6 7 8
M TOR 24 5 6 7 17
M TOR 25 5 7 6 15
M TOR 26 5 7 6 16
M TOR 27 5 7 8 18
M TOR 28 6 5 2 12
M TOR 29 6 7 5 14
M TOR 30 6 7 8 18
M TOR 31 7 5 2 12
M TOR 32 8 7 5 14
M TOR 33 8 7 6 15
M TOR 34 8 7 6 16
M  END
$$$$
