
     RDKit          3D

 19 18  0  0  0  0  0  0  0  0999 V2000
    0.1216   -0.1618   -0.3792 C   0  0  0  0  0  0  0  0  0  0  0  0
    1.3902    0.0382    0.4699 C   0  0  0  0  0  0  0  0  0  0  0  0
    1.9919    1.3572    0.3052 C   0  0  0  0  0  0  0  0  0  0  0  0
    2.4861    2.4450    0.1484 C   0  0  0  0  0  0  0  0  0  0  0  0
    3.0919    3.7666   -0.0556 C   0  0  0  0  0  0  0  0  0  0  0  0
    3.9425    3.8130   -1.1700 O   0  0  0  0  0  0  0  0  0  0  0  0
    1.9706    4.8270   -0.2129 C   0  0  0  0  0  0  0  0  0  0  0  0
    1.0375    5.0530    0.9476 C   0  0  0  0  0  0  0  0  0  0  0  0
    1.9023    5.4345   -1.2569 O   0  0  0  0  0  0  0  0  0  0  0  0
   -0.6472    0.5675   -0.1094 H   0  0  0  0  0  0  0  0  0  0  0  0
    0.3435   -0.0401   -1.4426 H   0  0  0  0  0  0  0  0  0  0  0  0
   -0.2858   -1.1651   -0.2236 H   0  0  0  0  0  0  0  0  0  0  0  0
    1.1545   -0.1223    1.5298 H   0  0  0  0  0  0  0  0  0  0  0  0
    2.1321   -0.7272    0.2088 H   0  0  0  0  0  0  0  0  0  0  0  0
    3.6643    4.0353    0.8482 H   0  0  0  0  0  0  0  0  0  0  0  0
    3.4869    4.3946   -1.8023 H   0  0  0  0  0  0  0  0  0  0  0  0
    0.5814    4.1075    1.2533 H   0  0  0  0  0  0  0  0  0  0  0  0
    1.6051    5.4283    1.8070 H   0  0  0  0  0  0  0  0  0  0  0  0
    0.2693    5.7768    0.6740 H   0  0  0  0  0  0  0  0  0  0  0  0
  1  2  1  0
  2  3  1  0
  3  4  3  0
  4  5  1  0
  5  6  1  0
  5  7  1  0
  7  8  1  0
  7  9  2  0
  1 10  1  0
  1 11  1  0
  1 12  1  0
  2 13  1  0
  2 14  1  0
  5 15  1  0
  6 16  1  0
  8 17  1  0
  8 18  1  0
  8 19  1  0
M  END
$$$$
