gdb 2592	2.5806692	1.4136209	1.0093917	2.962	79.2	-0.23821	-0.03296	0.20525	1198.3306	0.155916	-422.573173	-422.564155	-422.56321	-422.607309	32.735
 OpenBabel02181911413D

 19 19  0  0  1  0  0  0  0  0999 V2000
    1.3550    0.6713    0.7459 C   0  0  0  0  0  0  0  0  0  0  0  0
   -0.0152    0.1918    0.3537 C   0  0  0  0  0  0  0  0  0  0  0  0
   -1.0219    1.0115    0.0409 C   0  0  0  0  0  0  0  0  0  0  0  0
   -2.4210    0.5188   -0.2127 C   0  0  0  0  0  0  0  0  0  0  0  0
   -2.5847   -0.8553    0.4297 C   0  0  0  0  0  0  0  0  0  0  0  0
   -1.5434   -1.7270    0.0165 O   0  0  0  0  0  0  0  0  0  0  0  0
   -0.2370   -1.3140    0.3625 C   0  0  1  0  0  0  0  0  0  0  0  0
    0.6727   -1.9606   -0.6882 C   0  0  0  0  0  0  0  0  0  0  0  0
    1.8454   -2.1764   -0.5370 O   0  0  0  0  0  0  0  0  0  0  0  0
    1.5838    0.3896    1.7817 H   0  0  0  0  0  0  0  0  0  0  0  0
    2.1401    0.2258    0.1276 H   0  0  0  0  0  0  0  0  0  0  0  0
    1.4197    1.7595    0.6687 H   0  0  0  0  0  0  0  0  0  0  0  0
   -0.8467    2.0846    0.0240 H   0  0  0  0  0  0  0  0  0  0  0  0
   -3.1525    1.2176    0.2114 H   0  0  0  0  0  0  0  0  0  0  0  0
   -2.6355    0.4598   -1.2883 H   0  0  0  0  0  0  0  0  0  0  0  0
   -2.5917   -0.7567    1.5263 H   0  0  0  0  0  0  0  0  0  0  0  0
   -3.5148   -1.3426    0.1253 H   0  0  0  0  0  0  0  0  0  0  0  0
    0.0584   -1.7168    1.3471 H   0  0  0  0  0  0  0  0  0  0  0  0
    0.1318   -2.1978   -1.6297 H   0  0  0  0  0  0  0  0  0  0  0  0
  1 10  1  0  0  0  0
  2  7  1  0  0  0  0
  2  1  1  0  0  0  0
  3  2  2  0  0  0  0
  4  3  1  0  0  0  0
  4 14  1  0  0  0  0
  4  5  1  0  0  0  0
  5 16  1  0  0  0  0
  6  7  1  0  0  0  0
  6  5  1  0  0  0  0
  7 18  1  1  0  0  0
  8  9  2  0  0  0  0
  8  7  1  0  0  0  0
 11  1  1  0  0  0  0
 12  1  1  0  0  0  0
 13  3  1  0  0  0  0
 15  4  1  0  0  0  0
 17  5  1  0  0  0  0
 19  8  1  0  0  0  0
M TOR 0 0 1 2 3
M TOR 1 0 1 2 12
M TOR 2 0 1 6 5
M TOR 3 0 1 6 7
M TOR 4 0 1 6 17
M TOR 5 1 2 3 4
M TOR 6 1 2 3 13
M TOR 7 1 2 3 14
M TOR 8 1 6 5 4
M TOR 9 1 6 7 8
M TOR 10 1 6 7 18
M TOR 11 2 1 0 9
M TOR 12 2 1 0 10
M TOR 13 2 1 0 11
M TOR 14 2 1 6 5
M TOR 15 2 1 6 7
M TOR 16 2 1 6 17
M TOR 17 2 3 4 5
M TOR 18 2 3 4 15
M TOR 19 2 3 4 16
M TOR 20 3 2 1 6
M TOR 21 3 4 5 6
M TOR 22 4 3 2 12
M TOR 23 4 5 6 7
M TOR 24 4 5 6 17
M TOR 25 5 4 3 13
M TOR 26 5 4 3 14
M TOR 27 5 6 7 8
M TOR 28 5 6 7 18
M TOR 29 6 1 0 9
M TOR 30 6 1 0 10
M TOR 31 6 1 0 11
M TOR 32 6 1 2 12
M TOR 33 6 5 4 15
M TOR 34 6 5 4 16
M TOR 35 8 7 6 17
M  END
$$$$
