gdb 2647	2.6942193	1.2167455	0.9536046	4.1468	77.08	-0.26493	0.01187	0.2768	1280.7394	0.155254	-422.571213	-422.562029	-422.561084	-422.605054	33.699
 OpenBabel02181911413D

 19 20  0  0  1  0  0  0  0  0999 V2000
   -3.9360   -1.2119    1.4911 C   0  0  0  0  0  0  0  0  0  0  0  0
   -3.3659    0.0171    0.8181 C   0  0  2  0  0  0  0  0  0  0  0  0
   -3.3385    0.1572   -0.7054 C   0  0  1  0  0  0  0  0  0  0  0  0
   -3.6429    1.4833   -1.3676 C   0  0  0  0  0  0  0  0  0  0  0  0
   -2.0784   -0.0368    0.0691 C   0  0  2  0  0  0  0  0  0  0  0  0
   -0.9800   -1.0856   -0.0077 C   0  0  0  0  0  0  0  0  0  0  0  0
   -0.0580    0.1323    0.1133 C   0  0  0  0  0  0  0  0  0  0  0  0
    1.1063    0.3637    0.1475 O   0  0  0  0  0  0  0  0  0  0  0  0
   -1.0961    1.0321    0.1863 O   0  0  0  0  0  0  0  0  0  0  0  0
   -3.5279   -1.3413    2.4994 H   0  0  0  0  0  0  0  0  0  0  0  0
   -5.0254   -1.1424    1.5777 H   0  0  0  0  0  0  0  0  0  0  0  0
   -3.7075   -2.1184    0.9207 H   0  0  0  0  0  0  0  0  0  0  0  0
   -3.5287    0.9535    1.3476 H   0  0  0  0  0  0  0  0  0  0  0  0
   -3.6743   -0.7211   -1.2549 H   0  0  0  0  0  0  0  0  0  0  0  0
   -3.2153    2.3122   -0.7973 H   0  0  0  0  0  0  0  0  0  0  0  0
   -3.2203    1.5261   -2.3769 H   0  0  0  0  0  0  0  0  0  0  0  0
   -4.7232    1.6423   -1.4475 H   0  0  0  0  0  0  0  0  0  0  0  0
   -0.9086   -1.7808    0.8314 H   0  0  0  0  0  0  0  0  0  0  0  0
   -0.8840   -1.6302   -0.9490 H   0  0  0  0  0  0  0  0  0  0  0  0
  1 11  1  0  0  0  0
  1 10  1  0  0  0  0
  2 13  1  1  0  0  0
  2  1  1  0  0  0  0
  3 14  1  6  0  0  0
  3  5  1  0  0  0  0
  3  2  1  0  0  0  0
  4 15  1  0  0  0  0
  4  3  1  0  0  0  0
  5  9  1  1  0  0  0
  5  2  1  0  0  0  0
  6  5  1  0  0  0  0
  6  7  1  0  0  0  0
  6 18  1  0  0  0  0
  7  8  2  0  0  0  0
  7  9  1  0  0  0  0
 12  1  1  0  0  0  0
 16  4  1  0  0  0  0
 17  4  1  0  0  0  0
 19  6  1  0  0  0  0
M TOR 0 0 1 2 3
M TOR 1 0 1 2 4
M TOR 2 0 1 2 13
M TOR 3 0 1 4 5
M TOR 4 0 1 4 8
M TOR 5 1 2 3 14
M TOR 6 1 2 3 15
M TOR 7 1 2 3 16
M TOR 8 1 2 4 5
M TOR 9 1 2 4 8
M TOR 10 1 4 2 3
M TOR 11 1 4 2 13
M TOR 12 1 4 5 6
M TOR 13 1 4 5 17
M TOR 14 1 4 5 18
M TOR 15 1 4 8 6
M TOR 16 2 1 0 9
M TOR 17 2 1 0 10
M TOR 18 2 1 0 11
M TOR 19 2 4 1 12
M TOR 20 2 4 5 6
M TOR 21 2 4 5 17
M TOR 22 2 4 5 18
M TOR 23 2 4 8 6
M TOR 24 3 2 1 12
M TOR 25 3 2 4 5
M TOR 26 3 2 4 8
M TOR 27 4 1 0 9
M TOR 28 4 1 0 10
M TOR 29 4 1 0 11
M TOR 30 4 2 3 14
M TOR 31 4 2 3 15
M TOR 32 4 2 3 16
M TOR 33 4 5 6 7
M TOR 34 4 5 6 8
M TOR 35 4 8 6 7
M TOR 36 5 4 1 12
M TOR 37 5 4 2 13
M TOR 38 7 6 5 17
M TOR 39 7 6 5 18
M TOR 40 8 4 1 12
M TOR 41 8 4 2 13
M TOR 42 8 4 5 17
M TOR 43 8 4 5 18
M TOR 44 8 6 5 17
M TOR 45 8 6 5 18
M  END
$$$$
