
     RDKit          3D

 19 20  0  0  0  0  0  0  0  0999 V2000
    0.3612   -0.8632    0.2395 O   0  0  0  0  0  0  0  0  0  0  0  0
   -0.0573    0.2180   -0.0821 C   0  0  0  0  0  0  0  0  0  0  0  0
    0.3128    1.5374    0.5989 C   0  0  0  0  0  0  0  0  0  0  0  0
   -0.7183    2.4972    0.3855 O   0  0  0  0  0  0  0  0  0  0  0  0
   -1.6503    2.3411    1.4611 C   0  0  0  0  0  0  0  0  0  0  0  0
   -0.7999    2.0509    2.6941 C   0  0  0  0  0  0  0  0  0  0  0  0
    0.0450    3.2394    3.2384 C   0  0  0  0  0  0  0  0  0  0  0  0
    1.3490    2.5208    2.7923 C   0  0  0  0  0  0  0  0  0  0  0  0
    0.5074    1.4054    2.1140 C   0  0  0  0  0  0  0  0  0  0  0  0
   -0.7548    0.3538   -0.9401 H   0  0  0  0  0  0  0  0  0  0  0  0
    1.2102    1.9110    0.0858 H   0  0  0  0  0  0  0  0  0  0  0  0
   -2.2340    3.2638    1.5231 H   0  0  0  0  0  0  0  0  0  0  0  0
   -2.3384    1.5047    1.2563 H   0  0  0  0  0  0  0  0  0  0  0  0
   -1.3351    1.4765    3.4514 H   0  0  0  0  0  0  0  0  0  0  0  0
   -0.1456    4.1779    2.7111 H   0  0  0  0  0  0  0  0  0  0  0  0
   -0.0468    3.4220    4.3111 H   0  0  0  0  0  0  0  0  0  0  0  0
    2.0064    3.0884    2.1278 H   0  0  0  0  0  0  0  0  0  0  0  0
    1.9470    2.1482    3.6272 H   0  0  0  0  0  0  0  0  0  0  0  0
    0.7487    0.3776    2.3847 H   0  0  0  0  0  0  0  0  0  0  0  0
  1  2  2  0
  2  3  1  0
  3  4  1  0
  4  5  1  0
  5  6  1  0
  6  7  1  0
  7  8  1  0
  8  9  1  0
  9  3  1  0
  9  6  1  0
  2 10  1  0
  3 11  1  0
  5 12  1  0
  5 13  1  0
  6 14  1  0
  7 15  1  0
  7 16  1  0
  8 17  1  0
  8 18  1  0
  9 19  1  0
M  END
$$$$
