gdb 2740	2.0996777	1.4781281	1.3501747	1.5727	78.25	-0.24277	-0.02799	0.21478000000000003	1105.8644	0.154538	-422.535047	-422.525703	-422.524759	-422.568851	33.978
 OpenBabel02181911413D

 19 20  0  0  1  0  0  0  0  0999 V2000
    1.1238   -0.8210   -0.8553 C   0  0  0  0  0  0  0  0  0  0  0  0
    1.0185    0.1130    0.3294 C   0  0  1  0  0  0  0  0  0  0  0  0
    1.9346    0.0810    1.4950 C   0  0  1  0  0  0  0  0  0  0  0  0
    1.5618   -0.0365    2.9353 C   0  0  0  0  0  0  0  0  0  0  0  0
    3.2627   -0.2781    1.1150 O   0  0  0  0  0  0  0  0  0  0  0  0
    3.3888    0.8992    0.2750 C   0  0  0  0  0  0  0  0  0  0  0  0
    1.9469    1.3144    0.5291 C   0  0  1  0  0  0  0  0  0  0  0  0
    1.4464    2.6544    0.8309 C   0  0  0  0  0  0  0  0  0  0  0  0
    0.3065    2.9050    1.1610 O   0  0  0  0  0  0  0  0  0  0  0  0
    0.4804   -1.6937   -0.7034 H   0  0  0  0  0  0  0  0  0  0  0  0
    0.8063   -0.3273   -1.7790 H   0  0  0  0  0  0  0  0  0  0  0  0
    2.1457   -1.1846   -0.9851 H   0  0  0  0  0  0  0  0  0  0  0  0
    0.0083    0.4012    0.6123 H   0  0  0  0  0  0  0  0  0  0  0  0
    1.4346   -1.0901    3.2093 H   0  0  0  0  0  0  0  0  0  0  0  0
    2.3360    0.3926    3.5774 H   0  0  0  0  0  0  0  0  0  0  0  0
    0.6173    0.4822    3.1195 H   0  0  0  0  0  0  0  0  0  0  0  0
    4.1194    1.5951    0.7040 H   0  0  0  0  0  0  0  0  0  0  0  0
    3.6775    0.6467   -0.7512 H   0  0  0  0  0  0  0  0  0  0  0  0
    2.2126    3.4609    0.7671 H   0  0  0  0  0  0  0  0  0  0  0  0
  1 10  1  0  0  0  0
  1  2  1  0  0  0  0
  2  7  1  0  0  0  0
  2 13  1  1  0  0  0
  2  3  1  0  0  0  0
  3  4  1  1  0  0  0
  4 16  1  0  0  0  0
  4 14  1  0  0  0  0
  4 15  1  0  0  0  0
  5  3  1  0  0  0  0
  6  7  1  0  0  0  0
  6 17  1  0  0  0  0
  6  5  1  0  0  0  0
  7  8  1  1  0  0  0
  7  3  1  0  0  0  0
  8  9  2  0  0  0  0
 11  1  1  0  0  0  0
 12  1  1  0  0  0  0
 18  6  1  0  0  0  0
 19  8  1  0  0  0  0
M TOR 0 0 1 2 3
M TOR 1 0 1 2 4
M TOR 2 0 1 2 6
M TOR 3 0 1 6 5
M TOR 4 0 1 6 7
M TOR 5 1 2 3 13
M TOR 6 1 2 3 14
M TOR 7 1 2 3 15
M TOR 8 1 2 4 5
M TOR 9 1 2 6 5
M TOR 10 1 2 6 7
M TOR 11 1 6 2 3
M TOR 12 1 6 2 4
M TOR 13 1 6 5 4
M TOR 14 1 6 5 16
M TOR 15 1 6 5 17
M TOR 16 1 6 7 8
M TOR 17 1 6 7 18
M TOR 18 2 1 0 9
M TOR 19 2 1 0 10
M TOR 20 2 1 0 11
M TOR 21 2 4 5 6
M TOR 22 2 4 5 16
M TOR 23 2 4 5 17
M TOR 24 2 6 1 12
M TOR 25 2 6 5 16
M TOR 26 2 6 5 17
M TOR 27 2 6 7 8
M TOR 28 2 6 7 18
M TOR 29 3 2 1 12
M TOR 30 3 2 4 5
M TOR 31 3 2 6 5
M TOR 32 3 2 6 7
M TOR 33 4 2 1 12
M TOR 34 4 2 3 13
M TOR 35 4 2 3 14
M TOR 36 4 2 3 15
M TOR 37 4 2 6 7
M TOR 38 4 5 6 7
M TOR 39 5 6 1 12
M TOR 40 5 6 7 8
M TOR 41 5 6 7 18
M TOR 42 6 1 0 9
M TOR 43 6 1 0 10
M TOR 44 6 1 0 11
M TOR 45 6 2 3 13
M TOR 46 6 2 3 14
M TOR 47 6 2 3 15
M TOR 48 7 6 1 12
M TOR 49 7 6 5 16
M TOR 50 7 6 5 17
M  END
$$$$
