
     RDKit          3D

 19 19  0  0  0  0  0  0  0  0999 V2000
   -0.5317   -2.2111   -1.1265 C   0  0  0  0  0  0  0  0  0  0  0  0
   -0.8850   -1.2222   -0.0064 C   0  0  0  0  0  0  0  0  0  0  0  0
   -2.2954   -0.6834   -0.0085 C   0  0  0  0  0  0  0  0  0  0  0  0
   -2.3452    0.6495    0.0350 C   0  0  0  0  0  0  0  0  0  0  0  0
   -0.9796    1.2842    0.0753 C   0  0  0  0  0  0  0  0  0  0  0  0
   -0.6746    2.3392   -1.0112 C   0  0  0  0  0  0  0  0  0  0  0  0
    0.6062    2.8991   -0.8462 O   0  0  0  0  0  0  0  0  0  0  0  0
   -0.0556    0.0696   -0.0787 C   0  0  0  0  0  0  0  0  0  0  0  0
    1.1327    0.1259   -0.3019 O   0  0  0  0  0  0  0  0  0  0  0  0
   -1.0834   -3.1480   -1.0079 H   0  0  0  0  0  0  0  0  0  0  0  0
   -0.7771   -1.7934   -2.1077 H   0  0  0  0  0  0  0  0  0  0  0  0
    0.5389   -2.4302   -1.1065 H   0  0  0  0  0  0  0  0  0  0  0  0
   -0.6567   -1.7029    0.9583 H   0  0  0  0  0  0  0  0  0  0  0  0
   -3.1600   -1.3376   -0.0322 H   0  0  0  0  0  0  0  0  0  0  0  0
   -3.2562    1.2375    0.0510 H   0  0  0  0  0  0  0  0  0  0  0  0
   -0.7750    1.7651    1.0434 H   0  0  0  0  0  0  0  0  0  0  0  0
   -0.8009    1.8782   -2.0051 H   0  0  0  0  0  0  0  0  0  0  0  0
   -1.3985    3.1584   -0.9391 H   0  0  0  0  0  0  0  0  0  0  0  0
    1.2236    2.1555   -0.7913 H   0  0  0  0  0  0  0  0  0  0  0  0
  1  2  1  0
  2  3  1  0
  3  4  2  0
  4  5  1  0
  5  6  1  0
  6  7  1  0
  5  8  1  0
  8  9  2  0
  8  2  1  0
  1 10  1  0
  1 11  1  0
  1 12  1  0
  2 13  1  0
  3 14  1  0
  4 15  1  0
  5 16  1  0
  6 17  1  0
  6 18  1  0
  7 19  1  0
M  END
$$$$
