gdb 212	2.918678	1.8746951	1.5649343	1.4107	73.04	-0.24607	0.08372	0.32979	918.9574	0.160758	-422.563204	-422.556463	-422.555519	-422.594051	27.655
 OpenBabel02181911403D

 19 21  0  0  1  0  0  0  0  0999 V2000
   -0.8253   -1.1822    0.2758 C   0  0  0  0  0  0  0  0  0  0  0  0
   -0.6257    0.3049    0.4606 C   0  0  2  0  0  0  0  0  0  0  0  0
   -1.1980    1.2922   -0.5571 C   0  0  0  0  0  0  0  0  0  0  0  0
   -0.3874    1.2734   -1.8579 C   0  0  1  0  0  0  0  0  0  0  0  0
    0.8747    1.9097   -1.6702 O   0  0  0  0  0  0  0  0  0  0  0  0
    1.8587    0.8841   -1.5403 C   0  0  0  0  0  0  0  0  0  0  0  0
    1.0114   -0.3881   -1.3959 C   0  0  2  0  0  0  0  0  0  0  0  0
   -0.0995   -0.0588   -2.2396 O   0  0  0  0  0  0  0  0  0  0  0  0
    0.5314   -0.5792    0.0319 C   0  0  2  0  0  0  0  0  0  0  0  0
   -0.9603   -1.7943    1.1607 H   0  0  0  0  0  0  0  0  0  0  0  0
   -1.3878   -1.5031   -0.5941 H   0  0  0  0  0  0  0  0  0  0  0  0
   -0.6108    0.6567    1.4866 H   0  0  0  0  0  0  0  0  0  0  0  0
   -2.2459    1.0606   -0.7828 H   0  0  0  0  0  0  0  0  0  0  0  0
   -1.1699    2.3110   -0.1587 H   0  0  0  0  0  0  0  0  0  0  0  0
   -0.9133    1.7605   -2.6852 H   0  0  0  0  0  0  0  0  0  0  0  0
    2.4904    0.8492   -2.4374 H   0  0  0  0  0  0  0  0  0  0  0  0
    2.4854    1.0864   -0.6657 H   0  0  0  0  0  0  0  0  0  0  0  0
    1.4876   -1.2829   -1.8046 H   0  0  0  0  0  0  0  0  0  0  0  0
    1.3171   -0.7783    0.7548 H   0  0  0  0  0  0  0  0  0  0  0  0
  1  2  1  0  0  0  0
  1 10  1  0  0  0  0
  2 12  1  1  0  0  0
  3 14  1  0  0  0  0
  3  2  1  0  0  0  0
  4 15  1  6  0  0  0
  4  5  1  0  0  0  0
  4  3  1  0  0  0  0
  5  6  1  0  0  0  0
  6  7  1  0  0  0  0
  6 17  1  0  0  0  0
  7 18  1  6  0  0  0
  7  9  1  0  0  0  0
  8  4  1  0  0  0  0
  8  7  1  0  0  0  0
  9  1  1  0  0  0  0
  9  2  1  0  0  0  0
  9 19  1  1  0  0  0
 11  1  1  0  0  0  0
 13  3  1  0  0  0  0
 16  6  1  0  0  0  0
M TOR 0 0 1 2 3
M TOR 1 0 1 2 12
M TOR 2 0 1 2 13
M TOR 3 0 1 8 6
M TOR 4 0 1 8 18
M TOR 5 0 8 1 2
M TOR 6 0 8 1 11
M TOR 7 0 8 6 5
M TOR 8 0 8 6 7
M TOR 9 0 8 6 17
M TOR 10 1 2 3 4
M TOR 11 1 2 3 7
M TOR 12 1 2 3 14
M TOR 13 1 8 0 9
M TOR 14 1 8 0 10
M TOR 15 1 8 6 5
M TOR 16 1 8 6 7
M TOR 17 1 8 6 17
M TOR 18 2 1 0 9
M TOR 19 2 1 0 10
M TOR 20 2 1 8 6
M TOR 21 2 1 8 18
M TOR 22 2 3 4 5
M TOR 23 2 3 7 6
M TOR 24 3 2 1 8
M TOR 25 3 2 1 11
M TOR 26 3 4 5 6
M TOR 27 3 4 5 15
M TOR 28 3 4 5 16
M TOR 29 3 7 6 5
M TOR 30 3 7 6 8
M TOR 31 3 7 6 17
M TOR 32 4 3 2 12
M TOR 33 4 3 2 13
M TOR 34 4 3 7 6
M TOR 35 4 5 6 7
M TOR 36 4 5 6 8
M TOR 37 4 5 6 17
M TOR 38 5 4 3 7
M TOR 39 5 4 3 14
M TOR 40 5 6 8 18
M TOR 41 6 7 3 14
M TOR 42 6 8 0 9
M TOR 43 6 8 0 10
M TOR 44 6 8 1 11
M TOR 45 7 3 2 12
M TOR 46 7 3 2 13
M TOR 47 7 6 5 15
M TOR 48 7 6 5 16
M TOR 49 7 6 8 18
M TOR 50 8 1 2 12
M TOR 51 8 1 2 13
M TOR 52 8 6 5 15
M TOR 53 8 6 5 16
M  END
$$$$
