
     RDKit          3D

 19 21  0  0  0  0  0  0  0  0999 V2000
   -1.6492    1.2556   -2.3360 C   0  0  0  0  0  0  0  0  0  0  0  0
   -1.2939    1.8826   -1.0282 C   0  0  0  0  0  0  0  0  0  0  0  0
   -1.1982    3.3179   -0.9646 O   0  0  0  0  0  0  0  0  0  0  0  0
   -2.0625    2.6502   -0.0320 C   0  0  0  0  0  0  0  0  0  0  0  0
   -1.1761    2.1590    1.1176 C   0  0  0  0  0  0  0  0  0  0  0  0
   -0.3286    1.3758    0.0651 C   0  0  0  0  0  0  0  0  0  0  0  0
    1.1900    1.5195   -0.1259 C   0  0  0  0  0  0  0  0  0  0  0  0
    1.3682    0.0848   -0.1118 O   0  0  0  0  0  0  0  0  0  0  0  0
   -0.0161   -0.1243    0.2251 C   0  0  0  0  0  0  0  0  0  0  0  0
   -1.9778    0.2204   -2.2016 H   0  0  0  0  0  0  0  0  0  0  0  0
   -2.4544    1.8182   -2.8156 H   0  0  0  0  0  0  0  0  0  0  0  0
   -0.7873    1.2495   -3.0128 H   0  0  0  0  0  0  0  0  0  0  0  0
   -3.1030    2.9549   -0.0187 H   0  0  0  0  0  0  0  0  0  0  0  0
   -0.6629    2.9407    1.6840 H   0  0  0  0  0  0  0  0  0  0  0  0
   -1.6940    1.4858    1.8074 H   0  0  0  0  0  0  0  0  0  0  0  0
    1.5188    1.9731   -1.0682 H   0  0  0  0  0  0  0  0  0  0  0  0
    1.7157    2.0050    0.7071 H   0  0  0  0  0  0  0  0  0  0  0  0
   -0.5121   -0.8130   -0.4709 H   0  0  0  0  0  0  0  0  0  0  0  0
   -0.1387   -0.5072    1.2482 H   0  0  0  0  0  0  0  0  0  0  0  0
  1  2  1  0
  2  3  1  0
  3  4  1  0
  4  5  1  0
  5  6  1  0
  6  7  1  0
  7  8  1  0
  8  9  1  0
  4  2  1  0
  9  6  1  0
  6  2  1  0
  1 10  1  0
  1 11  1  0
  1 12  1  0
  4 13  1  0
  5 14  1  0
  5 15  1  0
  7 16  1  0
  7 17  1  0
  9 18  1  0
  9 19  1  0
M  END
$$$$
