gdb 913	4.3665993	0.8292402	0.7737727	3.1321	76.24	-0.23699	-0.02213	0.21486	1483.6525	0.15679	-422.550046	-422.541469	-422.540524	-422.584335	31.07
 OpenBabel02181911403D

 19 20  0  0  1  0  0  0  0  0999 V2000
    1.3939   -0.5462    0.1101 O   0  0  0  0  0  0  0  0  0  0  0  0
    0.2987   -0.0475    0.0834 C   0  0  0  0  0  0  0  0  0  0  0  0
   -0.2629    0.7429   -1.0825 C   0  0  0  0  0  0  0  0  0  0  0  0
   -0.8629    2.0625   -0.6361 C   0  0  1  0  0  0  0  0  0  0  0  0
   -1.9273    2.7209   -1.5038 C   0  0  2  0  0  0  0  0  0  0  0  0
   -2.1557    4.2138   -1.3233 C   0  0  0  0  0  0  0  0  0  0  0  0
   -2.2901    4.3655    0.2104 C   0  0  0  0  0  0  0  0  0  0  0  0
   -2.7112    3.0967    0.7182 O   0  0  0  0  0  0  0  0  0  0  0  0
   -2.3081    2.1080   -0.1872 C   0  0  2  0  0  0  0  0  0  0  0  0
   -0.3955   -0.1367    0.9508 H   0  0  0  0  0  0  0  0  0  0  0  0
    0.5296    0.8771   -1.8258 H   0  0  0  0  0  0  0  0  0  0  0  0
   -1.0480    0.1264   -1.5456 H   0  0  0  0  0  0  0  0  0  0  0  0
   -0.1686    2.7229   -0.1221 H   0  0  0  0  0  0  0  0  0  0  0  0
   -2.1859    2.2597   -2.4502 H   0  0  0  0  0  0  0  0  0  0  0  0
   -1.3506    4.8394   -1.7200 H   0  0  0  0  0  0  0  0  0  0  0  0
   -3.0836    4.4991   -1.8295 H   0  0  0  0  0  0  0  0  0  0  0  0
   -1.3276    4.6473    0.6584 H   0  0  0  0  0  0  0  0  0  0  0  0
   -3.0310    5.1104    0.5126 H   0  0  0  0  0  0  0  0  0  0  0  0
   -2.8858    1.1963   -0.0822 H   0  0  0  0  0  0  0  0  0  0  0  0
  2  1  2  0  0  0  0
  2 10  1  0  0  0  0
  3  4  1  0  0  0  0
  3  2  1  0  0  0  0
  4  9  1  0  0  0  0
  4 13  1  1  0  0  0
  5 14  1  6  0  0  0
  5  6  1  0  0  0  0
  5  4  1  0  0  0  0
  5  9  1  0  0  0  0
  6  7  1  0  0  0  0
  7 18  1  0  0  0  0
  7 17  1  0  0  0  0
  7  8  1  0  0  0  0
  9 19  1  6  0  0  0
  9  8  1  0  0  0  0
 11  3  1  0  0  0  0
 12  3  1  0  0  0  0
 15  6  1  0  0  0  0
 16  6  1  0  0  0  0
M TOR 0 0 1 2 3
M TOR 1 0 1 2 10
M TOR 2 0 1 2 11
M TOR 3 1 2 3 4
M TOR 4 1 2 3 8
M TOR 5 1 2 3 12
M TOR 6 2 3 4 5
M TOR 7 2 3 4 8
M TOR 8 2 3 4 13
M TOR 9 2 3 8 7
M TOR 10 2 3 8 18
M TOR 11 3 2 1 9
M TOR 12 3 4 5 6
M TOR 13 3 4 5 14
M TOR 14 3 4 5 15
M TOR 15 3 4 8 7
M TOR 16 3 4 8 18
M TOR 17 3 8 4 5
M TOR 18 3 8 4 13
M TOR 19 3 8 7 6
M TOR 20 4 3 2 10
M TOR 21 4 3 2 11
M TOR 22 4 5 6 7
M TOR 23 4 5 6 16
M TOR 24 4 5 6 17
M TOR 25 4 8 3 12
M TOR 26 4 8 7 6
M TOR 27 5 4 3 12
M TOR 28 5 4 8 7
M TOR 29 5 4 8 18
M TOR 30 5 6 7 8
M TOR 31 6 5 4 8
M TOR 32 6 5 4 13
M TOR 33 6 7 8 18
M TOR 34 7 6 5 14
M TOR 35 7 6 5 15
M TOR 36 7 8 3 12
M TOR 37 7 8 4 13
M TOR 38 8 3 2 10
M TOR 39 8 3 2 11
M TOR 40 8 4 5 14
M TOR 41 8 4 5 15
M TOR 42 8 7 6 16
M TOR 43 8 7 6 17
M  END
$$$$
