gdb 5998	3.9503369	0.9189577	0.8122165	0.6019	77.25	-0.2371	0.00569	0.24279	1425.0382	0.156757	-422.545114	-422.536352	-422.535408	-422.579256	32.143
 OpenBabel02181911423D

 19 20  0  0  1  0  0  0  0  0999 V2000
    1.4585    0.9942   -0.1606 O   0  0  0  0  0  0  0  0  0  0  0  0
    0.1637    0.5539    0.2180 C   0  0  0  0  0  0  0  0  0  0  0  0
   -0.8060    0.9700   -0.8916 C   0  0  0  0  0  0  0  0  0  0  0  0
   -2.2280    0.6280   -0.5729 C   0  0  0  0  0  0  0  0  0  0  0  0
   -3.0074   -0.2908   -1.1565 C   0  0  0  0  0  0  0  0  0  0  0  0
   -4.3989   -0.3522   -0.5607 C   0  0  0  0  0  0  0  0  0  0  0  0
   -4.3281    0.6638    0.5737 C   0  0  1  0  0  0  0  0  0  0  0  0
   -3.3725    0.3508    1.5893 O   0  0  0  0  0  0  0  0  0  0  0  0
   -2.9911    1.2785    0.5447 C   0  0  1  0  0  0  0  0  0  0  0  0
    2.0785    0.7258    0.5235 H   0  0  0  0  0  0  0  0  0  0  0  0
    0.1268   -0.5390    0.3429 H   0  0  0  0  0  0  0  0  0  0  0  0
   -0.1489    1.0014    1.1747 H   0  0  0  0  0  0  0  0  0  0  0  0
   -0.6978    2.0535   -1.0363 H   0  0  0  0  0  0  0  0  0  0  0  0
   -0.4969    0.4929   -1.8272 H   0  0  0  0  0  0  0  0  0  0  0  0
   -2.6872   -0.9565   -1.9512 H   0  0  0  0  0  0  0  0  0  0  0  0
   -5.1714   -0.0757   -1.2903 H   0  0  0  0  0  0  0  0  0  0  0  0
   -4.6531   -1.3536   -0.1922 H   0  0  0  0  0  0  0  0  0  0  0  0
   -5.2189    1.1830    0.9168 H   0  0  0  0  0  0  0  0  0  0  0  0
   -2.7740    2.2881    0.8837 H   0  0  0  0  0  0  0  0  0  0  0  0
  1  2  1  0  0  0  0
  1 10  1  0  0  0  0
  2 11  1  0  0  0  0
  2 12  1  0  0  0  0
  3  4  1  0  0  0  0
  3  2  1  0  0  0  0
  4  9  1  0  0  0  0
  5  4  2  0  0  0  0
  5  6  1  0  0  0  0
  6 17  1  0  0  0  0
  6  7  1  0  0  0  0
  7 18  1  1  0  0  0
  7  8  1  0  0  0  0
  9  7  1  0  0  0  0
  9 19  1  1  0  0  0
  9  8  1  0  0  0  0
 13  3  1  0  0  0  0
 14  3  1  0  0  0  0
 15  5  1  0  0  0  0
 16  6  1  0  0  0  0
M TOR 0 0 1 2 3
M TOR 1 0 1 2 12
M TOR 2 0 1 2 13
M TOR 3 1 2 3 4
M TOR 4 1 2 3 8
M TOR 5 2 1 0 9
M TOR 6 2 3 4 5
M TOR 7 2 3 4 14
M TOR 8 2 3 8 6
M TOR 9 2 3 8 7
M TOR 10 2 3 8 18
M TOR 11 3 2 1 10
M TOR 12 3 2 1 11
M TOR 13 3 4 5 6
M TOR 14 3 4 5 15
M TOR 15 3 4 5 16
M TOR 16 3 8 6 5
M TOR 17 3 8 6 7
M TOR 18 3 8 6 17
M TOR 19 4 3 2 12
M TOR 20 4 3 2 13
M TOR 21 4 3 8 6
M TOR 22 4 3 8 7
M TOR 23 4 3 8 18
M TOR 24 4 5 6 7
M TOR 25 4 5 6 8
M TOR 26 4 5 6 17
M TOR 27 5 4 3 8
M TOR 28 5 6 7 8
M TOR 29 5 6 8 18
M TOR 30 6 5 4 14
M TOR 31 6 7 8 18
M TOR 32 7 6 5 15
M TOR 33 7 6 5 16
M TOR 34 7 8 6 17
M TOR 35 8 3 2 12
M TOR 36 8 3 2 13
M TOR 37 8 3 4 14
M TOR 38 8 6 5 15
M TOR 39 8 6 5 16
M  END
$$$$
