
     RDKit          3D

 19 18  0  0  0  0  0  0  0  0999 V2000
    4.4442   -1.2448   -0.8699 C   0  0  0  0  0  0  0  0  0  0  0  0
    3.9535   -0.0476   -0.0391 C   0  0  0  0  0  0  0  0  0  0  0  0
    4.4659    1.2922   -0.6295 C   0  0  0  0  0  0  0  0  0  0  0  0
    4.4865   -0.1329    1.4028 C   0  0  0  0  0  0  0  0  0  0  0  0
    5.2589   -0.9618    1.7998 O   0  0  0  0  0  0  0  0  0  0  0  0
    2.4921   -0.0198    0.0562 C   0  0  0  0  0  0  0  0  0  0  0  0
    1.2907   -0.0106    0.1607 C   0  0  0  0  0  0  0  0  0  0  0  0
   -0.1660    0.0463    0.2877 C   0  0  0  0  0  0  0  0  0  0  0  0
   -0.7269    1.2816   -0.1327 O   0  0  0  0  0  0  0  0  0  0  0  0
    4.0860   -2.1846   -0.4450 H   0  0  0  0  0  0  0  0  0  0  0  0
    4.0817   -1.1642   -1.8977 H   0  0  0  0  0  0  0  0  0  0  0  0
    5.5365   -1.2723   -0.8762 H   0  0  0  0  0  0  0  0  0  0  0  0
    4.1701    2.1400   -0.0047 H   0  0  0  0  0  0  0  0  0  0  0  0
    5.5573    1.2769   -0.7067 H   0  0  0  0  0  0  0  0  0  0  0  0
    4.0446    1.4431   -1.6266 H   0  0  0  0  0  0  0  0  0  0  0  0
    4.0927    0.6683    2.0676 H   0  0  0  0  0  0  0  0  0  0  0  0
   -0.6261   -0.7198   -0.3462 H   0  0  0  0  0  0  0  0  0  0  0  0
   -0.4487   -0.1917    1.3257 H   0  0  0  0  0  0  0  0  0  0  0  0
   -0.2782    1.9825    0.3514 H   0  0  0  0  0  0  0  0  0  0  0  0
  1  2  1  0
  2  3  1  0
  2  4  1  0
  4  5  2  0
  2  6  1  0
  6  7  3  0
  7  8  1  0
  8  9  1  0
  1 10  1  0
  1 11  1  0
  1 12  1  0
  3 13  1  0
  3 14  1  0
  3 15  1  0
  4 16  1  0
  8 17  1  0
  8 18  1  0
  9 19  1  0
M  END
$$$$
