
     RDKit          3D

 19 21  0  0  0  0  0  0  0  0999 V2000
    1.3249   -0.1218   -0.0259 C   0  0  0  0  0  0  0  0  0  0  0  0
   -0.0839    0.0633   -0.0646 O   0  0  0  0  0  0  0  0  0  0  0  0
   -0.6117    0.5354    1.1124 C   0  0  0  0  0  0  0  0  0  0  0  0
   -0.6580   -0.1206    2.5148 C   0  0  0  0  0  0  0  0  0  0  0  0
   -1.4479    1.1986    2.6586 C   0  0  0  0  0  0  0  0  0  0  0  0
   -2.0602    1.0965    1.2214 C   0  0  0  0  0  0  0  0  0  0  0  0
   -1.6307    2.5295    0.8312 C   0  0  0  0  0  0  0  0  0  0  0  0
   -0.4781    1.9867    1.7021 C   0  0  0  0  0  0  0  0  0  0  0  0
    0.7391    2.5630    2.0194 O   0  0  0  0  0  0  0  0  0  0  0  0
    1.6096   -0.8720    0.7245 H   0  0  0  0  0  0  0  0  0  0  0  0
    1.6236   -0.4781   -1.0140 H   0  0  0  0  0  0  0  0  0  0  0  0
    1.8462    0.8165    0.1984 H   0  0  0  0  0  0  0  0  0  0  0  0
   -1.2318   -1.0482    2.6016 H   0  0  0  0  0  0  0  0  0  0  0  0
    0.2827   -0.1854    3.0681 H   0  0  0  0  0  0  0  0  0  0  0  0
   -1.9558    1.6025    3.5321 H   0  0  0  0  0  0  0  0  0  0  0  0
   -2.9675    0.5567    0.9614 H   0  0  0  0  0  0  0  0  0  0  0  0
   -1.4076    2.7027   -0.2248 H   0  0  0  0  0  0  0  0  0  0  0  0
   -2.2267    3.3482    1.2484 H   0  0  0  0  0  0  0  0  0  0  0  0
    0.5775    3.3784    2.5071 H   0  0  0  0  0  0  0  0  0  0  0  0
  1  2  1  0
  2  3  1  0
  3  4  1  0
  4  5  1  0
  5  6  1  0
  6  7  1  0
  7  8  1  0
  8  9  1  0
  6  3  1  0
  8  3  1  0
  8  5  1  0
  1 10  1  0
  1 11  1  0
  1 12  1  0
  4 13  1  0
  4 14  1  0
  5 15  1  0
  6 16  1  0
  7 17  1  0
  7 18  1  0
  9 19  1  0
M  END
$$$$
