gdb 2410	2.1735588	1.8849262	1.3711504	1.6389	74.26	-0.24057	-0.02287	0.2177	1017.9908	0.157072	-422.577934	-422.569603	-422.568659	-422.610787	31.36
 OpenBabel02181911413D

 19 20  0  0  1  0  0  0  0  0999 V2000
   -0.4795    2.2904    1.0020 C   0  0  0  0  0  0  0  0  0  0  0  0
   -0.8202    1.2173   -0.0141 C   0  0  2  0  0  0  0  0  0  0  0  0
   -0.9303    1.6226   -1.5099 C   0  0  0  0  0  0  0  0  0  0  0  0
   -2.2012    0.9599   -1.6440 O   0  0  0  0  0  0  0  0  0  0  0  0
   -2.2658    0.6933   -0.2209 C   0  0  1  0  0  0  0  0  0  0  0  0
   -2.2847   -0.8063    0.0839 C   0  0  0  0  0  0  0  0  0  0  0  0
   -0.8444   -1.2741   -0.1854 C   0  0  0  0  0  0  0  0  0  0  0  0
    0.0252   -0.0555    0.1406 C   0  0  0  0  0  0  0  0  0  0  0  0
    1.1805   -0.0746    0.4809 O   0  0  0  0  0  0  0  0  0  0  0  0
   -0.7029    1.9571    2.0208 H   0  0  0  0  0  0  0  0  0  0  0  0
    0.5900    2.5170    0.9605 H   0  0  0  0  0  0  0  0  0  0  0  0
   -1.0433    3.2087    0.8130 H   0  0  0  0  0  0  0  0  0  0  0  0
   -1.0125    2.7081   -1.6547 H   0  0  0  0  0  0  0  0  0  0  0  0
   -0.1757    1.2263   -2.1998 H   0  0  0  0  0  0  0  0  0  0  0  0
   -3.0796    1.2525    0.2542 H   0  0  0  0  0  0  0  0  0  0  0  0
   -2.5459   -0.9531    1.1389 H   0  0  0  0  0  0  0  0  0  0  0  0
   -3.0338   -1.3233   -0.5212 H   0  0  0  0  0  0  0  0  0  0  0  0
   -0.5233   -2.1466    0.3860 H   0  0  0  0  0  0  0  0  0  0  0  0
   -0.7043   -1.5069   -1.2484 H   0  0  0  0  0  0  0  0  0  0  0  0
  1 10  1  0  0  0  0
  2  8  1  0  0  0  0
  2  1  1  1  0  0  0
  3  2  1  0  0  0  0
  4  3  1  0  0  0  0
  4  5  1  0  0  0  0
  5  2  1  0  0  0  0
  5  6  1  0  0  0  0
  5 15  1  1  0  0  0
  6 16  1  0  0  0  0
  7  6  1  0  0  0  0
  7  8  1  0  0  0  0
  7 18  1  0  0  0  0
  8  9  2  0  0  0  0
 11  1  1  0  0  0  0
 12  1  1  0  0  0  0
 13  3  1  0  0  0  0
 14  3  1  0  0  0  0
 17  6  1  0  0  0  0
 19  7  1  0  0  0  0
M TOR 0 0 1 2 3
M TOR 1 0 1 2 12
M TOR 2 0 1 2 13
M TOR 3 0 1 4 3
M TOR 4 0 1 4 5
M TOR 5 0 1 4 14
M TOR 6 0 1 7 6
M TOR 7 0 1 7 8
M TOR 8 1 2 3 4
M TOR 9 1 4 5 6
M TOR 10 1 4 5 15
M TOR 11 1 4 5 16
M TOR 12 1 7 6 5
M TOR 13 1 7 6 17
M TOR 14 1 7 6 18
M TOR 15 2 1 0 9
M TOR 16 2 1 0 10
M TOR 17 2 1 0 11
M TOR 18 2 1 4 5
M TOR 19 2 1 4 14
M TOR 20 2 1 7 6
M TOR 21 2 1 7 8
M TOR 22 2 3 4 5
M TOR 23 2 3 4 14
M TOR 24 3 2 1 7
M TOR 25 3 4 1 7
M TOR 26 3 4 5 6
M TOR 27 3 4 5 15
M TOR 28 3 4 5 16
M TOR 29 4 1 0 9
M TOR 30 4 1 0 10
M TOR 31 4 1 0 11
M TOR 32 4 1 2 12
M TOR 33 4 1 2 13
M TOR 34 4 1 7 6
M TOR 35 4 1 7 8
M TOR 36 4 3 2 12
M TOR 37 4 3 2 13
M TOR 38 4 5 6 7
M TOR 39 4 5 6 17
M TOR 40 4 5 6 18
M TOR 41 5 4 1 7
M TOR 42 5 6 7 8
M TOR 43 6 5 4 14
M TOR 44 7 1 0 9
M TOR 45 7 1 0 10
M TOR 46 7 1 0 11
M TOR 47 7 1 2 12
M TOR 48 7 1 2 13
M TOR 49 7 1 4 14
M TOR 50 7 6 5 15
M TOR 51 7 6 5 16
M TOR 52 8 7 6 17
M TOR 53 8 7 6 18
M  END
$$$$
