gdb 2688	3.1486515	1.2065513	1.0231059	3.5047	76.16	-0.23841	-0.02543	0.21298	1213.6383	0.154186	-422.535959	-422.526583	-422.525639	-422.570346	33.911
 OpenBabel02181911413D

 19 20  0  0  1  0  0  0  0  0999 V2000
    0.8570    0.8837    0.0235 C   0  0  0  0  0  0  0  0  0  0  0  0
    1.0548   -0.5998    0.3032 C   0  0  2  0  0  0  0  0  0  0  0  0
    2.2052   -1.0790    1.3008 C   0  0  2  0  0  0  0  0  0  0  0  0
    3.1163   -0.0310    1.8851 C   0  0  0  0  0  0  0  0  0  0  0  0
    3.1084    0.2968    3.0466 O   0  0  0  0  0  0  0  0  0  0  0  0
    2.7785   -1.8980    0.1301 C   0  0  2  0  0  0  0  0  0  0  0  0
    3.0683   -0.9688   -0.9250 O   0  0  0  0  0  0  0  0  0  0  0  0
    1.7214   -1.4577   -0.7945 C   0  0  2  0  0  0  0  0  0  0  0  0
    1.0857   -2.0935   -1.9868 C   0  0  0  0  0  0  0  0  0  0  0  0
    0.6013    1.4277    0.9382 H   0  0  0  0  0  0  0  0  0  0  0  0
    1.7630    1.3266   -0.3983 H   0  0  0  0  0  0  0  0  0  0  0  0
    0.0410    1.0349   -0.6914 H   0  0  0  0  0  0  0  0  0  0  0  0
    0.1155   -1.0583    0.6279 H   0  0  0  0  0  0  0  0  0  0  0  0
    1.7960   -1.6866    2.1104 H   0  0  0  0  0  0  0  0  0  0  0  0
    3.8129    0.4370    1.1582 H   0  0  0  0  0  0  0  0  0  0  0  0
    3.3651   -2.8093    0.1640 H   0  0  0  0  0  0  0  0  0  0  0  0
    0.2019   -2.6694   -1.6943 H   0  0  0  0  0  0  0  0  0  0  0  0
    0.7684   -1.3339   -2.7102 H   0  0  0  0  0  0  0  0  0  0  0  0
    1.7924   -2.7620   -2.4853 H   0  0  0  0  0  0  0  0  0  0  0  0
  1  2  1  0  0  0  0
  1 10  1  0  0  0  0
  2 13  1  1  0  0  0
  2  3  1  0  0  0  0
  3  4  1  0  0  0  0
  3 14  1  1  0  0  0
  4  5  2  0  0  0  0
  6 16  1  1  0  0  0
  6  3  1  0  0  0  0
  7  8  1  0  0  0  0
  7  6  1  0  0  0  0
  8  9  1  6  0  0  0
  8  6  1  0  0  0  0
  8  2  1  0  0  0  0
  9 17  1  0  0  0  0
 11  1  1  0  0  0  0
 12  1  1  0  0  0  0
 15  4  1  0  0  0  0
 18  9  1  0  0  0  0
 19  9  1  0  0  0  0
M TOR 0 0 1 2 3
M TOR 1 0 1 2 5
M TOR 2 0 1 2 13
M TOR 3 0 1 7 5
M TOR 4 0 1 7 6
M TOR 5 0 1 7 8
M TOR 6 1 2 3 4
M TOR 7 1 2 3 14
M TOR 8 1 2 5 6
M TOR 9 1 2 5 7
M TOR 10 1 2 5 15
M TOR 11 1 7 5 6
M TOR 12 1 7 5 15
M TOR 13 1 7 8 16
M TOR 14 1 7 8 17
M TOR 15 1 7 8 18
M TOR 16 2 1 0 9
M TOR 17 2 1 0 10
M TOR 18 2 1 0 11
M TOR 19 2 1 7 6
M TOR 20 2 1 7 8
M TOR 21 2 5 6 7
M TOR 22 2 5 7 8
M TOR 23 3 2 1 7
M TOR 24 3 2 1 12
M TOR 25 3 2 5 6
M TOR 26 3 2 5 7
M TOR 27 3 2 5 15
M TOR 28 4 3 2 5
M TOR 29 4 3 2 13
M TOR 30 5 2 1 12
M TOR 31 5 2 3 14
M TOR 32 5 6 7 8
M TOR 33 5 7 1 12
M TOR 34 5 7 8 16
M TOR 35 5 7 8 17
M TOR 36 5 7 8 18
M TOR 37 6 5 2 13
M TOR 38 6 7 1 12
M TOR 39 6 7 5 15
M TOR 40 6 7 8 16
M TOR 41 6 7 8 17
M TOR 42 6 7 8 18
M TOR 43 7 1 0 9
M TOR 44 7 1 0 10
M TOR 45 7 1 0 11
M TOR 46 7 1 2 13
M TOR 47 7 5 2 13
M TOR 48 8 7 1 12
M TOR 49 8 7 5 15
M  END
$$$$
