
     RDKit          3D

 19 18  0  0  0  0  0  0  0  0999 V2000
    1.5453    0.1877   -3.1630 C   0  0  0  0  0  0  0  0  0  0  0  0
    0.6686    0.9834   -2.1950 C   0  0  0  0  0  0  0  0  0  0  0  0
    0.0512    0.1857   -1.1975 O   0  0  0  0  0  0  0  0  0  0  0  0
   -1.0203   -0.6147   -1.6661 C   0  0  0  0  0  0  0  0  0  0  0  0
   -1.7057   -1.2259   -0.5350 C   0  0  0  0  0  0  0  0  0  0  0  0
   -2.2866   -1.7435    0.3794 C   0  0  0  0  0  0  0  0  0  0  0  0
    1.4735    2.0925   -1.4893 C   0  0  0  0  0  0  0  0  0  0  0  0
    1.1434    2.3804   -0.0430 C   0  0  0  0  0  0  0  0  0  0  0  0
    2.3080    2.7112   -2.1079 O   0  0  0  0  0  0  0  0  0  0  0  0
    2.2531   -0.4323   -2.6047 H   0  0  0  0  0  0  0  0  0  0  0  0
    0.9483   -0.4597   -3.8105 H   0  0  0  0  0  0  0  0  0  0  0  0
    2.1084    0.8843   -3.7866 H   0  0  0  0  0  0  0  0  0  0  0  0
   -0.1133    1.5155   -2.7694 H   0  0  0  0  0  0  0  0  0  0  0  0
   -1.7313    0.0014   -2.2428 H   0  0  0  0  0  0  0  0  0  0  0  0
   -0.6597   -1.4028   -2.3445 H   0  0  0  0  0  0  0  0  0  0  0  0
   -2.7977   -2.1985    1.1917 H   0  0  0  0  0  0  0  0  0  0  0  0
    1.3494    1.4970    0.5688 H   0  0  0  0  0  0  0  0  0  0  0  0
    1.7345    3.2300    0.3000 H   0  0  0  0  0  0  0  0  0  0  0  0
    0.0742    2.5843    0.0733 H   0  0  0  0  0  0  0  0  0  0  0  0
  1  2  1  0
  2  3  1  0
  3  4  1  0
  4  5  1  0
  5  6  3  0
  2  7  1  0
  7  8  1  0
  7  9  2  0
  1 10  1  0
  1 11  1  0
  1 12  1  0
  2 13  1  0
  4 14  1  0
  4 15  1  0
  6 16  1  0
  8 17  1  0
  8 18  1  0
  8 19  1  0
M  END
$$$$
