gdb 4390	4.282754	0.9836663	0.8267153	3.696	81.25	-0.24916	-0.05547	0.19369	1381.5654	0.156521	-422.583044	-422.574287	-422.573343	-422.616503	32.355
 OpenBabel02181911413D

 19 19  0  0  1  0  0  0  0  0999 V2000
   -3.4418    3.0185    0.3472 C   0  0  0  0  0  0  0  0  0  0  0  0
   -2.1933    2.2795   -0.1069 C   0  0  2  0  0  0  0  0  0  0  0  0
   -2.2622    0.7653    0.1519 C   0  0  0  0  0  0  0  0  0  0  0  0
   -0.9054    0.1426    0.0216 C   0  0  0  0  0  0  0  0  0  0  0  0
    0.2131    0.8792   -0.0091 C   0  0  0  0  0  0  0  0  0  0  0  0
    0.1626    2.3799    0.1283 C   0  0  0  0  0  0  0  0  0  0  0  0
   -1.0903    2.8411    0.5939 O   0  0  0  0  0  0  0  0  0  0  0  0
    1.5218    0.2344   -0.1821 C   0  0  0  0  0  0  0  0  0  0  0  0
    2.5741    0.8321   -0.2352 O   0  0  0  0  0  0  0  0  0  0  0  0
   -3.5755    2.9065    1.4277 H   0  0  0  0  0  0  0  0  0  0  0  0
   -3.3576    4.0845    0.1216 H   0  0  0  0  0  0  0  0  0  0  0  0
   -4.3291    2.6231   -0.1566 H   0  0  0  0  0  0  0  0  0  0  0  0
   -2.0475    2.4357   -1.1901 H   0  0  0  0  0  0  0  0  0  0  0  0
   -2.6609    0.5753    1.1592 H   0  0  0  0  0  0  0  0  0  0  0  0
   -2.9649    0.2925   -0.5462 H   0  0  0  0  0  0  0  0  0  0  0  0
   -0.8368   -0.9415   -0.0534 H   0  0  0  0  0  0  0  0  0  0  0  0
    0.9135    2.7140    0.8502 H   0  0  0  0  0  0  0  0  0  0  0  0
    0.4218    2.8496   -0.8364 H   0  0  0  0  0  0  0  0  0  0  0  0
    1.4814   -0.8756   -0.2650 H   0  0  0  0  0  0  0  0  0  0  0  0
  1 10  1  0  0  0  0
  2 13  1  6  0  0  0
  2  3  1  0  0  0  0
  2  1  1  0  0  0  0
  2  7  1  0  0  0  0
  3 14  1  0  0  0  0
  4  3  1  0  0  0  0
  5  4  2  0  0  0  0
  5  6  1  0  0  0  0
  6  7  1  0  0  0  0
  6 17  1  0  0  0  0
  8  5  1  0  0  0  0
  9  8  2  0  0  0  0
 11  1  1  0  0  0  0
 12  1  1  0  0  0  0
 15  3  1  0  0  0  0
 16  4  1  0  0  0  0
 18  6  1  0  0  0  0
 19  8  1  0  0  0  0
M TOR 0 0 1 2 3
M TOR 1 0 1 2 13
M TOR 2 0 1 2 14
M TOR 3 0 1 6 5
M TOR 4 1 2 3 4
M TOR 5 1 2 3 15
M TOR 6 1 6 5 4
M TOR 7 1 6 5 16
M TOR 8 1 6 5 17
M TOR 9 2 1 0 9
M TOR 10 2 1 0 10
M TOR 11 2 1 0 11
M TOR 12 2 1 6 5
M TOR 13 2 3 4 5
M TOR 14 2 3 4 7
M TOR 15 3 2 1 6
M TOR 16 3 2 1 12
M TOR 17 3 4 5 6
M TOR 18 3 4 5 16
M TOR 19 3 4 5 17
M TOR 20 3 4 7 8
M TOR 21 3 4 7 18
M TOR 22 4 3 2 13
M TOR 23 4 3 2 14
M TOR 24 5 4 3 15
M TOR 25 5 4 7 8
M TOR 26 5 4 7 18
M TOR 27 5 6 1 12
M TOR 28 6 1 0 9
M TOR 29 6 1 0 10
M TOR 30 6 1 0 11
M TOR 31 6 1 2 13
M TOR 32 6 1 2 14
M TOR 33 6 5 4 7
M TOR 34 7 4 3 15
M TOR 35 7 4 5 16
M TOR 36 7 4 5 17
M  END
$$$$
