
     RDKit          3D

 19 21  0  0  0  0  0  0  0  0999 V2000
   -3.0853    1.3036   -1.6217 O   0  0  0  0  0  0  0  0  0  0  0  0
   -1.9396    1.1170   -0.8378 C   0  0  0  0  0  0  0  0  0  0  0  0
   -1.8528   -0.2061   -0.0053 C   0  0  0  0  0  0  0  0  0  0  0  0
   -0.5153   -0.0951    0.7423 C   0  0  0  0  0  0  0  0  0  0  0  0
    0.5425    0.8828    0.2957 C   0  0  0  0  0  0  0  0  0  0  0  0
   -0.5766    1.3746    1.1806 C   0  0  0  0  0  0  0  0  0  0  0  0
   -1.9340    1.7726    0.5842 C   0  0  0  0  0  0  0  0  0  0  0  0
   -2.7673    0.5115    1.0472 C   0  0  0  0  0  0  0  0  0  0  0  0
   -4.1461    0.4728    0.7023 O   0  0  0  0  0  0  0  0  0  0  0  0
   -3.8453    1.0558   -1.0762 H   0  0  0  0  0  0  0  0  0  0  0  0
   -1.1032    1.3493   -1.4950 H   0  0  0  0  0  0  0  0  0  0  0  0
   -2.1318   -1.1670   -0.4381 H   0  0  0  0  0  0  0  0  0  0  0  0
   -0.2434   -0.8890    1.4288 H   0  0  0  0  0  0  0  0  0  0  0  0
    1.4960    0.7707    0.8027 H   0  0  0  0  0  0  0  0  0  0  0  0
    0.6489    1.1951   -0.7355 H   0  0  0  0  0  0  0  0  0  0  0  0
   -0.3489    1.6805    2.1957 H   0  0  0  0  0  0  0  0  0  0  0  0
   -2.2922    2.7921    0.7375 H   0  0  0  0  0  0  0  0  0  0  0  0
   -2.6306    0.2055    2.0924 H   0  0  0  0  0  0  0  0  0  0  0  0
   -4.6143    1.0976    1.2663 H   0  0  0  0  0  0  0  0  0  0  0  0
  1  2  1  0
  2  3  1  0
  3  4  1  0
  4  5  1  0
  5  6  1  0
  6  7  1  0
  7  8  1  0
  8  9  1  0
  7  2  1  0
  8  3  1  0
  6  4  1  0
  1 10  1  0
  2 11  1  0
  3 12  1  0
  4 13  1  0
  5 14  1  0
  5 15  1  0
  6 16  1  0
  7 17  1  0
  8 18  1  0
  9 19  1  0
M  END
$$$$
