
     RDKit          3D

 19 21  0  0  0  0  0  0  0  0999 V2000
   -0.9659   -0.3552   -0.9168 C   0  0  0  0  0  0  0  0  0  0  0  0
   -0.7513   -1.5781    0.0027 C   0  0  0  0  0  0  0  0  0  0  0  0
    0.1298   -1.0543    1.1491 C   0  0  0  0  0  0  0  0  0  0  0  0
   -0.7381   -0.4926    2.1577 O   0  0  0  0  0  0  0  0  0  0  0  0
   -0.5626    0.8692    2.4055 C   0  0  0  0  0  0  0  0  0  0  0  0
   -0.6249    1.6388    1.2241 O   0  0  0  0  0  0  0  0  0  0  0  0
    0.4769    1.3586    0.4068 C   0  0  0  0  0  0  0  0  0  0  0  0
    0.3297    0.4491   -0.7832 C   0  0  0  0  0  0  0  0  0  0  0  0
    1.0522   -0.0320    0.4715 C   0  0  0  0  0  0  0  0  0  0  0  0
   -1.1501   -0.6444   -1.9539 H   0  0  0  0  0  0  0  0  0  0  0  0
   -1.8200    0.2386   -0.5775 H   0  0  0  0  0  0  0  0  0  0  0  0
   -1.6753   -2.0247    0.3791 H   0  0  0  0  0  0  0  0  0  0  0  0
   -0.1915   -2.3495   -0.5398 H   0  0  0  0  0  0  0  0  0  0  0  0
    0.7039   -1.8515    1.6327 H   0  0  0  0  0  0  0  0  0  0  0  0
   -1.3946    1.1839    3.0392 H   0  0  0  0  0  0  0  0  0  0  0  0
    0.3977    1.0619    2.9140 H   0  0  0  0  0  0  0  0  0  0  0  0
    1.1635    2.1981    0.3155 H   0  0  0  0  0  0  0  0  0  0  0  0
    0.8901    0.7101   -1.6737 H   0  0  0  0  0  0  0  0  0  0  0  0
    2.1245   -0.1756    0.5203 H   0  0  0  0  0  0  0  0  0  0  0  0
  1  2  1  0
  2  3  1  0
  3  4  1  0
  4  5  1  0
  5  6  1  0
  6  7  1  0
  7  8  1  0
  8  9  1  0
  8  1  1  0
  9  3  1  0
  9  7  1  0
  1 10  1  0
  1 11  1  0
  2 12  1  0
  2 13  1  0
  3 14  1  0
  5 15  1  0
  5 16  1  0
  7 17  1  0
  8 18  1  0
  9 19  1  0
M  END
$$$$
