
     RDKit          3D

 19 20  0  0  0  0  0  0  0  0999 V2000
    1.5603    2.0027   -2.4921 C   0  0  0  0  0  0  0  0  0  0  0  0
    0.5189    2.7864   -1.6772 C   0  0  0  0  0  0  0  0  0  0  0  0
    0.4656    2.3834   -0.1901 C   0  0  0  0  0  0  0  0  0  0  0  0
    0.1824    0.9830   -0.0777 O   0  0  0  0  0  0  0  0  0  0  0  0
    1.4319    0.3058   -0.0306 C   0  0  0  0  0  0  0  0  0  0  0  0
    1.8526   -0.1652   -1.4612 C   0  0  0  0  0  0  0  0  0  0  0  0
    1.3155    0.6058   -2.5125 O   0  0  0  0  0  0  0  0  0  0  0  0
    2.3748    1.3313    0.5651 C   0  0  0  0  0  0  0  0  0  0  0  0
    1.8066    2.5293    0.4953 C   0  0  0  0  0  0  0  0  0  0  0  0
    1.5036    2.3287   -3.5366 H   0  0  0  0  0  0  0  0  0  0  0  0
    2.5784    2.2146   -2.1352 H   0  0  0  0  0  0  0  0  0  0  0  0
    0.7341    3.8603   -1.7669 H   0  0  0  0  0  0  0  0  0  0  0  0
   -0.4713    2.6126   -2.1116 H   0  0  0  0  0  0  0  0  0  0  0  0
   -0.3436    2.9249    0.3130 H   0  0  0  0  0  0  0  0  0  0  0  0
    1.3193   -0.5800    0.6071 H   0  0  0  0  0  0  0  0  0  0  0  0
    2.9539   -0.2031   -1.5161 H   0  0  0  0  0  0  0  0  0  0  0  0
    1.4749   -1.1767   -1.6388 H   0  0  0  0  0  0  0  0  0  0  0  0
    3.3627    1.0876    0.9349 H   0  0  0  0  0  0  0  0  0  0  0  0
    2.2311    3.4810    0.7883 H   0  0  0  0  0  0  0  0  0  0  0  0
  1  2  1  0
  2  3  1  0
  3  4  1  0
  4  5  1  0
  5  6  1  0
  6  7  1  0
  5  8  1  0
  8  9  2  0
  7  1  1  0
  9  3  1  0
  1 10  1  0
  1 11  1  0
  2 12  1  0
  2 13  1  0
  3 14  1  0
  5 15  1  0
  6 16  1  0
  6 17  1  0
  8 18  1  0
  9 19  1  0
M  END
$$$$
