
     RDKit          3D

 19 19  0  0  0  0  0  0  0  0999 V2000
    1.4219    0.0906   -0.1461 C   0  0  0  0  0  0  0  0  0  0  0  0
    0.0514   -0.0978    0.1304 O   0  0  0  0  0  0  0  0  0  0  0  0
   -0.4181    0.5638    1.2890 C   0  0  0  0  0  0  0  0  0  0  0  0
    0.0057   -0.1417    2.5886 C   0  0  0  0  0  0  0  0  0  0  0  0
   -0.7241    0.4090    3.7825 C   0  0  0  0  0  0  0  0  0  0  0  0
   -1.8902    1.0619    3.6997 C   0  0  0  0  0  0  0  0  0  0  0  0
   -2.5858    1.2721    2.4110 C   0  0  0  0  0  0  0  0  0  0  0  0
   -3.6240    1.8973    2.3363 O   0  0  0  0  0  0  0  0  0  0  0  0
   -1.9414    0.6244    1.1900 C   0  0  0  0  0  0  0  0  0  0  0  0
    2.0748   -0.3759    0.6058 H   0  0  0  0  0  0  0  0  0  0  0  0
    1.6202   -0.3783   -1.1127 H   0  0  0  0  0  0  0  0  0  0  0  0
    1.6782    1.1594   -0.2114 H   0  0  0  0  0  0  0  0  0  0  0  0
   -0.0203    1.5932    1.3105 H   0  0  0  0  0  0  0  0  0  0  0  0
   -0.2041   -1.2167    2.4856 H   0  0  0  0  0  0  0  0  0  0  0  0
    1.0863   -0.0578    2.7477 H   0  0  0  0  0  0  0  0  0  0  0  0
   -0.2611    0.2591    4.7553 H   0  0  0  0  0  0  0  0  0  0  0  0
   -2.3895    1.4613    4.5767 H   0  0  0  0  0  0  0  0  0  0  0  0
   -2.3252   -0.4025    1.1107 H   0  0  0  0  0  0  0  0  0  0  0  0
   -2.2596    1.1589    0.2927 H   0  0  0  0  0  0  0  0  0  0  0  0
  1  2  1  0
  2  3  1  0
  3  4  1  0
  4  5  1  0
  5  6  2  0
  6  7  1  0
  7  8  2  0
  7  9  1  0
  9  3  1  0
  1 10  1  0
  1 11  1  0
  1 12  1  0
  3 13  1  0
  4 14  1  0
  4 15  1  0
  5 16  1  0
  6 17  1  0
  9 18  1  0
  9 19  1  0
M  END
$$$$
