
     RDKit          3D

 19 21  0  0  0  0  0  0  0  0999 V2000
   -1.2443    2.2083   -2.1114 C   0  0  0  0  0  0  0  0  0  0  0  0
   -0.5474    1.0302   -2.8043 C   0  0  0  0  0  0  0  0  0  0  0  0
    0.7459    1.4697   -3.2629 O   0  0  0  0  0  0  0  0  0  0  0  0
    0.6069    1.1147   -1.8942 C   0  0  0  0  0  0  0  0  0  0  0  0
    1.4787    0.0758   -1.2538 C   0  0  0  0  0  0  0  0  0  0  0  0
    1.2516    0.0267    0.1508 O   0  0  0  0  0  0  0  0  0  0  0  0
   -0.0616    0.3990    0.5511 C   0  0  0  0  0  0  0  0  0  0  0  0
   -0.2866    1.9037    0.3401 C   0  0  0  0  0  0  0  0  0  0  0  0
   -0.0239    2.2989   -1.1273 C   0  0  0  0  0  0  0  0  0  0  0  0
   -1.4403    3.0802   -2.7402 H   0  0  0  0  0  0  0  0  0  0  0  0
   -2.1665    1.9100   -1.6040 H   0  0  0  0  0  0  0  0  0  0  0  0
   -0.9793    0.1802   -3.3214 H   0  0  0  0  0  0  0  0  0  0  0  0
    1.3013   -0.9078   -1.7178 H   0  0  0  0  0  0  0  0  0  0  0  0
    2.5388    0.3209   -1.3895 H   0  0  0  0  0  0  0  0  0  0  0  0
   -0.8198   -0.1996    0.0206 H   0  0  0  0  0  0  0  0  0  0  0  0
   -0.1284    0.1457    1.6128 H   0  0  0  0  0  0  0  0  0  0  0  0
   -1.2967    2.1869    0.6593 H   0  0  0  0  0  0  0  0  0  0  0  0
    0.4171    2.4316    0.9920 H   0  0  0  0  0  0  0  0  0  0  0  0
    0.5445    3.2290   -1.1992 H   0  0  0  0  0  0  0  0  0  0  0  0
  1  2  1  0
  2  3  1  0
  3  4  1  0
  4  5  1  0
  5  6  1  0
  6  7  1  0
  7  8  1  0
  8  9  1  0
  9  1  1  0
  4  2  1  0
  9  4  1  0
  1 10  1  0
  1 11  1  0
  2 12  1  0
  5 13  1  0
  5 14  1  0
  7 15  1  0
  7 16  1  0
  8 17  1  0
  8 18  1  0
  9 19  1  0
M  END
$$$$
