gdb 944	3.9550961	0.9518533	0.8463425	2.894	75.56	-0.2495	-0.02305	0.22644999999999998	1364.0335	0.156894	-422.563296	-422.554802	-422.553858	-422.597631	30.903
 OpenBabel02181911403D

 19 20  0  0  1  0  0  0  0  0999 V2000
    1.6178    0.2680   -0.3098 O   0  0  0  0  0  0  0  0  0  0  0  0
    0.4261    0.2496   -0.1345 C   0  0  0  0  0  0  0  0  0  0  0  0
   -0.2752    0.8280    1.0723 C   0  0  0  0  0  0  0  0  0  0  0  0
   -1.2533    1.9654    0.7121 C   0  0  2  0  0  0  0  0  0  0  0  0
   -1.8564    2.6449    1.9730 C   0  0  0  0  0  0  0  0  0  0  0  0
   -3.2512    3.1666    1.5556 C   0  0  0  0  0  0  0  0  0  0  0  0
   -3.6660    2.2298    0.4397 C   0  0  2  0  0  0  0  0  0  0  0  0
   -3.4498    0.8408    0.7385 O   0  0  0  0  0  0  0  0  0  0  0  0
   -2.4836    1.5283   -0.0709 C   0  0  2  0  0  0  0  0  0  0  0  0
   -0.2500   -0.2107   -0.8925 H   0  0  0  0  0  0  0  0  0  0  0  0
   -0.8521    0.0272    1.5551 H   0  0  0  0  0  0  0  0  0  0  0  0
    0.4874    1.1815    1.7723 H   0  0  0  0  0  0  0  0  0  0  0  0
   -0.7237    2.7137    0.1064 H   0  0  0  0  0  0  0  0  0  0  0  0
   -1.9679    1.8963    2.7612 H   0  0  0  0  0  0  0  0  0  0  0  0
   -1.2083    3.4343    2.3604 H   0  0  0  0  0  0  0  0  0  0  0  0
   -3.9604    3.1779    2.3888 H   0  0  0  0  0  0  0  0  0  0  0  0
   -3.1984    4.1866    1.1554 H   0  0  0  0  0  0  0  0  0  0  0  0
   -4.5360    2.4394   -0.1774 H   0  0  0  0  0  0  0  0  0  0  0  0
   -2.4064    1.1823   -1.0988 H   0  0  0  0  0  0  0  0  0  0  0  0
  1  2  2  0  0  0  0
  2  3  1  0  0  0  0
  3 11  1  0  0  0  0
  3 12  1  0  0  0  0
  4 13  1  6  0  0  0
  4  3  1  0  0  0  0
  4  5  1  0  0  0  0
  5 15  1  0  0  0  0
  5 14  1  0  0  0  0
  6  5  1  0  0  0  0
  6 16  1  0  0  0  0
  7 18  1  6  0  0  0
  7  8  1  0  0  0  0
  7  6  1  0  0  0  0
  9 19  1  6  0  0  0
  9  7  1  0  0  0  0
  9  4  1  0  0  0  0
  9  8  1  0  0  0  0
 10  2  1  0  0  0  0
 17  6  1  0  0  0  0
M TOR 0 0 1 2 3
M TOR 1 0 1 2 10
M TOR 2 0 1 2 11
M TOR 3 1 2 3 4
M TOR 4 1 2 3 8
M TOR 5 1 2 3 12
M TOR 6 2 3 4 5
M TOR 7 2 3 4 13
M TOR 8 2 3 4 14
M TOR 9 2 3 8 6
M TOR 10 2 3 8 7
M TOR 11 2 3 8 18
M TOR 12 3 2 1 9
M TOR 13 3 4 5 6
M TOR 14 3 4 5 15
M TOR 15 3 4 5 16
M TOR 16 3 8 6 5
M TOR 17 3 8 6 7
M TOR 18 3 8 6 17
M TOR 19 4 3 2 10
M TOR 20 4 3 2 11
M TOR 21 4 3 8 6
M TOR 22 4 3 8 7
M TOR 23 4 3 8 18
M TOR 24 4 5 6 7
M TOR 25 4 5 6 8
M TOR 26 4 5 6 17
M TOR 27 5 4 3 8
M TOR 28 5 4 3 12
M TOR 29 5 6 7 8
M TOR 30 5 6 8 18
M TOR 31 6 5 4 13
M TOR 32 6 5 4 14
M TOR 33 6 7 8 18
M TOR 34 6 8 3 12
M TOR 35 7 6 5 15
M TOR 36 7 6 5 16
M TOR 37 7 8 3 12
M TOR 38 7 8 6 17
M TOR 39 8 3 2 10
M TOR 40 8 3 2 11
M TOR 41 8 3 4 13
M TOR 42 8 3 4 14
M TOR 43 8 6 5 15
M TOR 44 8 6 5 16
M  END
$$$$
