
     RDKit          3D

 19 21  0  0  0  0  0  0  0  0999 V2000
   -0.1228    0.4110   -0.0055 C   0  0  0  0  0  0  0  0  0  0  0  0
    1.3741    0.1441   -0.1131 C   0  0  0  0  0  0  0  0  0  0  0  0
    1.9102   -0.1178   -1.5385 C   0  0  0  0  0  0  0  0  0  0  0  0
    1.4843    1.0952   -2.1795 O   0  0  0  0  0  0  0  0  0  0  0  0
    2.3560    1.9732   -1.4448 C   0  0  0  0  0  0  0  0  0  0  0  0
    3.6958    1.4878   -2.0246 C   0  0  0  0  0  0  0  0  0  0  0  0
    3.4960    0.1219   -1.3451 C   0  0  0  0  0  0  0  0  0  0  0  0
    3.5941    0.5549    0.0234 O   0  0  0  0  0  0  0  0  0  0  0  0
    2.3743    1.3157    0.0305 C   0  0  0  0  0  0  0  0  0  0  0  0
   -0.3787    0.7495    1.0042 H   0  0  0  0  0  0  0  0  0  0  0  0
   -0.4510    1.1674   -0.7198 H   0  0  0  0  0  0  0  0  0  0  0  0
   -0.6930   -0.5048   -0.1970 H   0  0  0  0  0  0  0  0  0  0  0  0
    1.6789   -0.6250    0.6009 H   0  0  0  0  0  0  0  0  0  0  0  0
    1.5839   -0.9931   -2.0969 H   0  0  0  0  0  0  0  0  0  0  0  0
    2.0492    3.0116   -1.5478 H   0  0  0  0  0  0  0  0  0  0  0  0
    3.6615    1.5079   -3.1144 H   0  0  0  0  0  0  0  0  0  0  0  0
    4.5995    1.9655   -1.6449 H   0  0  0  0  0  0  0  0  0  0  0  0
    4.1746   -0.7036   -1.5479 H   0  0  0  0  0  0  0  0  0  0  0  0
    2.3242    1.9773    0.8931 H   0  0  0  0  0  0  0  0  0  0  0  0
  1  2  1  0
  2  3  1  0
  3  4  1  0
  4  5  1  0
  5  6  1  0
  6  7  1  0
  7  8  1  0
  8  9  1  0
  9  2  1  0
  7  3  1  0
  9  5  1  0
  1 10  1  0
  1 11  1  0
  1 12  1  0
  2 13  1  0
  3 14  1  0
  5 15  1  0
  6 16  1  0
  6 17  1  0
  7 18  1  0
  9 19  1  0
M  END
$$$$
