gdb 4030	2.3826424	2.105017	1.4921607	2.0709	73.58	-0.21448	0.07415	0.28863	954.7593	0.1564	-422.522126	-422.514267	-422.513323	-422.553862	31.255
 OpenBabel02181911413D

 19 21  0  0  1  0  0  0  0  0999 V2000
    0.3199   -0.3242   -0.7564 C   0  0  0  0  0  0  0  0  0  0  0  0
    0.7696    0.1338    0.6200 C   0  0  2  0  0  0  0  0  0  0  0  0
    1.1659    1.5184    0.5513 O   0  0  0  0  0  0  0  0  0  0  0  0
    2.2997    1.6764    1.3647 C   0  0  2  0  0  0  0  0  0  0  0  0
    3.5105    0.8161    1.0462 C   0  0  2  0  0  0  0  0  0  0  0  0
    3.1083   -0.2768    0.2249 O   0  0  0  0  0  0  0  0  0  0  0  0
    2.0183   -0.5679    1.1754 C   0  0  2  0  0  0  0  0  0  0  0  0
    1.9289   -2.0300    1.5193 C   0  0  0  0  0  0  0  0  0  0  0  0
    2.5918    0.4580    2.1887 C   0  0  2  0  0  0  0  0  0  0  0  0
   -0.0847   -1.3406   -0.7132 H   0  0  0  0  0  0  0  0  0  0  0  0
   -0.4647    0.3372   -1.1327 H   0  0  0  0  0  0  0  0  0  0  0  0
    1.1649   -0.3012   -1.4478 H   0  0  0  0  0  0  0  0  0  0  0  0
   -0.0543    0.0336    1.3472 H   0  0  0  0  0  0  0  0  0  0  0  0
    2.4316    2.6790    1.7538 H   0  0  0  0  0  0  0  0  0  0  0  0
    4.5439    1.1413    1.0014 H   0  0  0  0  0  0  0  0  0  0  0  0
    1.1407   -2.2042    2.2594 H   0  0  0  0  0  0  0  0  0  0  0  0
    1.7007   -2.6201    0.6264 H   0  0  0  0  0  0  0  0  0  0  0  0
    2.8781   -2.3842    1.9288 H   0  0  0  0  0  0  0  0  0  0  0  0
    2.7117    0.3579    3.2591 H   0  0  0  0  0  0  0  0  0  0  0  0
  1 10  1  0  0  0  0
  1  2  1  0  0  0  0
  2  7  1  0  0  0  0
  2 13  1  1  0  0  0
  3  2  1  0  0  0  0
  3  4  1  0  0  0  0
  4 14  1  1  0  0  0
  4  9  1  0  0  0  0
  5 15  1  1  0  0  0
  5  4  1  0  0  0  0
  5  9  1  0  0  0  0
  6  5  1  0  0  0  0
  6  7  1  0  0  0  0
  7  8  1  1  0  0  0
  7  9  1  0  0  0  0
  8 18  1  0  0  0  0
  8 16  1  0  0  0  0
  9 19  1  1  0  0  0
 11  1  1  0  0  0  0
 12  1  1  0  0  0  0
 17  8  1  0  0  0  0
M TOR 0 0 1 2 3
M TOR 1 0 1 6 5
M TOR 2 0 1 6 7
M TOR 3 0 1 6 8
M TOR 4 1 2 3 4
M TOR 5 1 2 3 8
M TOR 6 1 2 3 13
M TOR 7 1 6 5 4
M TOR 8 1 6 7 15
M TOR 9 1 6 7 16
M TOR 10 1 6 7 17
M TOR 11 1 6 8 3
M TOR 12 1 6 8 4
M TOR 13 1 6 8 18
M TOR 14 2 1 0 9
M TOR 15 2 1 0 10
M TOR 16 2 1 0 11
M TOR 17 2 1 6 5
M TOR 18 2 1 6 7
M TOR 19 2 1 6 8
M TOR 20 2 3 4 5
M TOR 21 2 3 4 8
M TOR 22 2 3 4 14
M TOR 23 2 3 8 6
M TOR 24 2 3 8 18
M TOR 25 3 2 1 6
M TOR 26 3 2 1 12
M TOR 27 3 4 5 6
M TOR 28 3 4 8 6
M TOR 29 3 4 8 18
M TOR 30 3 8 4 5
M TOR 31 3 8 4 14
M TOR 32 3 8 6 5
M TOR 33 3 8 6 7
M TOR 34 4 5 6 7
M TOR 35 4 5 6 8
M TOR 36 4 8 3 13
M TOR 37 4 8 6 7
M TOR 38 5 4 3 13
M TOR 39 5 4 8 18
M TOR 40 5 6 1 12
M TOR 41 5 6 7 15
M TOR 42 5 6 7 16
M TOR 43 5 6 7 17
M TOR 44 5 6 8 18
M TOR 45 6 1 0 9
M TOR 46 6 1 0 10
M TOR 47 6 1 0 11
M TOR 48 6 5 4 14
M TOR 49 6 8 3 13
M TOR 50 6 8 4 14
M TOR 51 7 6 1 12
M TOR 52 7 6 8 18
M TOR 53 8 6 1 12
M TOR 54 8 6 7 15
M TOR 55 8 6 7 16
M TOR 56 8 6 7 17
M  END
$$$$
