gdb 5058	2.127869	1.6504727	1.1256856	2.9705	77.75	-0.22979	-0.00825	0.22154	1153.4835	0.154597	-422.536224	-422.52682	-422.525876	-422.570452	34.145
 OpenBabel02181911413D

 19 20  0  0  1  0  0  0  0  0999 V2000
    1.6590    0.1270    0.0128 C   0  0  0  0  0  0  0  0  0  0  0  0
    0.2641   -0.1477    0.1091 O   0  0  0  0  0  0  0  0  0  0  0  0
   -0.3579    0.5216    1.1272 C   0  0  1  0  0  0  0  0  0  0  0  0
   -0.7606    1.9941    0.9952 C   0  0  0  0  0  0  0  0  0  0  0  0
   -1.8402    0.9849    1.2220 C   0  0  1  0  0  0  0  0  0  0  0  0
   -2.9556    0.7034    0.2600 C   0  0  0  0  0  0  0  0  0  0  0  0
   -1.8646    0.6601    2.7282 C   0  0  0  0  0  0  0  0  0  0  0  0
   -0.4204    0.1059    2.5666 C   0  0  0  0  0  0  0  0  0  0  0  0
    0.2745   -0.5854    3.2579 O   0  0  0  0  0  0  0  0  0  0  0  0
    2.1834   -0.1788    0.9252 H   0  0  0  0  0  0  0  0  0  0  0  0
    2.0344   -0.4512   -0.8336 H   0  0  0  0  0  0  0  0  0  0  0  0
    1.8412    1.1953   -0.1671 H   0  0  0  0  0  0  0  0  0  0  0  0
   -0.5052    2.7285    1.7547 H   0  0  0  0  0  0  0  0  0  0  0  0
   -0.6575    2.3445   -0.0281 H   0  0  0  0  0  0  0  0  0  0  0  0
   -3.3673   -0.2994    0.4153 H   0  0  0  0  0  0  0  0  0  0  0  0
   -3.7726    1.4236    0.3827 H   0  0  0  0  0  0  0  0  0  0  0  0
   -2.6026    0.7673   -0.7737 H   0  0  0  0  0  0  0  0  0  0  0  0
   -2.0115    1.5011    3.4123 H   0  0  0  0  0  0  0  0  0  0  0  0
   -2.5461   -0.1525    2.9990 H   0  0  0  0  0  0  0  0  0  0  0  0
  1  2  1  0  0  0  0
  1 10  1  0  0  0  0
  3  2  1  6  0  0  0
  3  5  1  0  0  0  0
  3  8  1  0  0  0  0
  4  3  1  0  0  0  0
  4  5  1  0  0  0  0
  4 13  1  0  0  0  0
  5  6  1  6  0  0  0
  5  7  1  0  0  0  0
  6 16  1  0  0  0  0
  6 15  1  0  0  0  0
  7 19  1  0  0  0  0
  7 18  1  0  0  0  0
  8  7  1  0  0  0  0
  8  9  2  0  0  0  0
 11  1  1  0  0  0  0
 12  1  1  0  0  0  0
 14  4  1  0  0  0  0
 17  6  1  0  0  0  0
M TOR 0 0 1 2 3
M TOR 1 0 1 2 4
M TOR 2 0 1 2 7
M TOR 3 1 2 3 4
M TOR 4 1 2 3 12
M TOR 5 1 2 3 13
M TOR 6 1 2 4 5
M TOR 7 1 2 4 6
M TOR 8 1 2 7 6
M TOR 9 1 2 7 8
M TOR 10 2 1 0 9
M TOR 11 2 1 0 10
M TOR 12 2 1 0 11
M TOR 13 2 3 4 5
M TOR 14 2 3 4 6
M TOR 15 2 4 3 12
M TOR 16 2 4 3 13
M TOR 17 2 4 5 14
M TOR 18 2 4 5 15
M TOR 19 2 4 5 16
M TOR 20 2 4 6 7
M TOR 21 2 4 6 17
M TOR 22 2 4 6 18
M TOR 23 2 7 6 17
M TOR 24 2 7 6 18
M TOR 25 3 2 7 6
M TOR 26 3 2 7 8
M TOR 27 3 4 2 7
M TOR 28 3 4 5 14
M TOR 29 3 4 5 15
M TOR 30 3 4 5 16
M TOR 31 3 4 6 7
M TOR 32 3 4 6 17
M TOR 33 3 4 6 18
M TOR 34 4 2 7 8
M TOR 35 4 6 7 8
M TOR 36 5 4 2 7
M TOR 37 5 4 3 12
M TOR 38 5 4 3 13
M TOR 39 5 4 6 7
M TOR 40 5 4 6 17
M TOR 41 5 4 6 18
M TOR 42 6 4 3 12
M TOR 43 6 4 3 13
M TOR 44 6 4 5 14
M TOR 45 6 4 5 15
M TOR 46 6 4 5 16
M TOR 47 7 2 3 12
M TOR 48 7 2 3 13
M TOR 49 8 7 6 17
M TOR 50 8 7 6 18
M  END
$$$$
