gdb 2289	2.7054705	1.7613465	1.757225	1.9242	74.87	-0.23613	0.00886	0.24499	925.9313	0.15844	-422.573707	-422.566254	-422.56531	-422.60494	30.251
 OpenBabel02181911413D

 19 20  0  0  1  0  0  0  0  0999 V2000
   -0.0095   -0.2770    0.1048 C   0  0  0  0  0  0  0  0  0  0  0  0
    1.4172    0.1816   -0.0946 C   0  0  2  0  0  0  0  0  0  0  0  0
    2.2706   -0.9324    0.1850 O   0  0  0  0  0  0  0  0  0  0  0  0
    3.6526   -0.5898    0.0790 C   0  0  0  0  0  0  0  0  0  0  0  0
    3.7806    0.9019   -0.3009 C   0  0  2  0  0  0  0  0  0  0  0  0
    3.0240    1.6787    0.7990 C   0  0  0  0  0  0  0  0  0  0  0  0
    1.6769    1.2104    0.8653 O   0  0  0  0  0  0  0  0  0  0  0  0
    3.0203    1.0995   -1.5873 C   0  0  0  0  0  0  0  0  0  0  0  0
    1.7504    0.7122   -1.4756 C   0  0  0  0  0  0  0  0  0  0  0  0
   -0.1370   -0.6357    1.1277 H   0  0  0  0  0  0  0  0  0  0  0  0
   -0.6959    0.5546   -0.0706 H   0  0  0  0  0  0  0  0  0  0  0  0
   -0.2403   -1.0882   -0.5897 H   0  0  0  0  0  0  0  0  0  0  0  0
    4.1333   -0.7746    1.0493 H   0  0  0  0  0  0  0  0  0  0  0  0
    4.1272   -1.2323   -0.6736 H   0  0  0  0  0  0  0  0  0  0  0  0
    4.8277    1.2071   -0.3484 H   0  0  0  0  0  0  0  0  0  0  0  0
    3.5001    1.5111    1.7747 H   0  0  0  0  0  0  0  0  0  0  0  0
    3.0218    2.7566    0.5923 H   0  0  0  0  0  0  0  0  0  0  0  0
    3.4752    1.5095   -2.4816 H   0  0  0  0  0  0  0  0  0  0  0  0
    1.0008    0.7526   -2.2571 H   0  0  0  0  0  0  0  0  0  0  0  0
  1 10  1  0  0  0  0
  2  1  1  1  0  0  0
  2  3  1  0  0  0  0
  2  7  1  0  0  0  0
  4  3  1  0  0  0  0
  4 13  1  0  0  0  0
  5 15  1  6  0  0  0
  5  4  1  0  0  0  0
  5  6  1  0  0  0  0
  6  7  1  0  0  0  0
  6 16  1  0  0  0  0
  8  9  2  0  0  0  0
  8  5  1  0  0  0  0
  9  2  1  0  0  0  0
 11  1  1  0  0  0  0
 12  1  1  0  0  0  0
 14  4  1  0  0  0  0
 17  6  1  0  0  0  0
 18  8  1  0  0  0  0
 19  9  1  0  0  0  0
M TOR 0 0 1 2 3
M TOR 1 0 1 6 5
M TOR 2 0 1 8 7
M TOR 3 0 1 8 18
M TOR 4 1 2 3 4
M TOR 5 1 2 3 12
M TOR 6 1 2 3 13
M TOR 7 1 6 5 4
M TOR 8 1 6 5 15
M TOR 9 1 6 5 16
M TOR 10 1 8 7 4
M TOR 11 1 8 7 17
M TOR 12 2 1 0 9
M TOR 13 2 1 0 10
M TOR 14 2 1 0 11
M TOR 15 2 1 6 5
M TOR 16 2 1 8 7
M TOR 17 2 1 8 18
M TOR 18 2 3 4 5
M TOR 19 2 3 4 7
M TOR 20 2 3 4 14
M TOR 21 3 2 1 6
M TOR 22 3 2 1 8
M TOR 23 3 4 5 6
M TOR 24 3 4 5 15
M TOR 25 3 4 5 16
M TOR 26 3 4 7 8
M TOR 27 3 4 7 17
M TOR 28 4 7 8 18
M TOR 29 5 4 3 12
M TOR 30 5 4 3 13
M TOR 31 5 4 7 8
M TOR 32 5 4 7 17
M TOR 33 5 6 1 8
M TOR 34 6 1 0 9
M TOR 35 6 1 0 10
M TOR 36 6 1 0 11
M TOR 37 6 1 8 7
M TOR 38 6 1 8 18
M TOR 39 6 5 4 7
M TOR 40 6 5 4 14
M TOR 41 7 4 3 12
M TOR 42 7 4 3 13
M TOR 43 7 4 5 15
M TOR 44 7 4 5 16
M TOR 45 8 1 0 9
M TOR 46 8 1 0 10
M TOR 47 8 1 0 11
M TOR 48 8 7 4 14
M  END
$$$$
