
     RDKit          3D

 19 19  0  0  0  0  0  0  0  0999 V2000
    0.5811    0.2360   -0.8243 O   0  0  0  0  0  0  0  0  0  0  0  0
    0.0291   -0.2329    0.1358 C   0  0  0  0  0  0  0  0  0  0  0  0
   -0.5344    0.5867    1.2954 C   0  0  0  0  0  0  0  0  0  0  0  0
   -1.0395    1.9674    0.8482 C   0  0  0  0  0  0  0  0  0  0  0  0
   -2.5133    1.9656    0.4084 C   0  0  0  0  0  0  0  0  0  0  0  0
   -3.4883    1.8763    1.5601 C   0  0  0  0  0  0  0  0  0  0  0  0
   -3.3230    1.1888    2.6892 C   0  0  0  0  0  0  0  0  0  0  0  0
   -2.1740    0.2691    3.0174 C   0  0  0  0  0  0  0  0  0  0  0  0
   -1.5090   -0.2520    1.8799 O   0  0  0  0  0  0  0  0  0  0  0  0
   -0.1030   -1.3279    0.2714 H   0  0  0  0  0  0  0  0  0  0  0  0
    0.3116    0.7255    1.9973 H   0  0  0  0  0  0  0  0  0  0  0  0
   -0.9137    2.6918    1.6590 H   0  0  0  0  0  0  0  0  0  0  0  0
   -0.3928    2.2863    0.0240 H   0  0  0  0  0  0  0  0  0  0  0  0
   -2.7111    2.8932   -0.1395 H   0  0  0  0  0  0  0  0  0  0  0  0
   -2.6925    1.1546   -0.3105 H   0  0  0  0  0  0  0  0  0  0  0  0
   -4.4021    2.4561    1.4503 H   0  0  0  0  0  0  0  0  0  0  0  0
   -4.0882    1.2471    3.4609 H   0  0  0  0  0  0  0  0  0  0  0  0
   -1.4522    0.7583    3.6951 H   0  0  0  0  0  0  0  0  0  0  0  0
   -2.5610   -0.6033    3.5574 H   0  0  0  0  0  0  0  0  0  0  0  0
  1  2  2  0
  2  3  1  0
  3  4  1  0
  4  5  1  0
  5  6  1  0
  6  7  2  0
  7  8  1  0
  8  9  1  0
  9  3  1  0
  2 10  1  0
  3 11  1  0
  4 12  1  0
  4 13  1  0
  5 14  1  0
  5 15  1  0
  6 16  1  0
  7 17  1  0
  8 18  1  0
  8 19  1  0
M  END
$$$$
