
     RDKit          3D

 19 21  0  0  0  0  0  0  0  0999 V2000
   -2.2119    1.6791   -0.4244 O   0  0  0  0  0  0  0  0  0  0  0  0
   -1.2766    0.9795    0.3500 C   0  0  0  0  0  0  0  0  0  0  0  0
   -1.4083   -0.5258    0.3501 C   0  0  0  0  0  0  0  0  0  0  0  0
   -0.2130   -1.2481    0.2333 O   0  0  0  0  0  0  0  0  0  0  0  0
   -1.7040    0.2585    1.5897 C   0  0  0  0  0  0  0  0  0  0  0  0
   -1.1396    0.2074    3.0227 C   0  0  0  0  0  0  0  0  0  0  0  0
   -2.3143   -0.7667    3.3529 C   0  0  0  0  0  0  0  0  0  0  0  0
   -2.9488    0.3693    2.4911 C   0  0  0  0  0  0  0  0  0  0  0  0
   -2.1221    1.3738    3.3543 C   0  0  0  0  0  0  0  0  0  0  0  0
   -2.4451    2.4837    0.0498 H   0  0  0  0  0  0  0  0  0  0  0  0
   -0.2515    1.3515    0.3084 H   0  0  0  0  0  0  0  0  0  0  0  0
   -2.2555   -0.9133   -0.2183 H   0  0  0  0  0  0  0  0  0  0  0  0
   -0.2825   -2.0266    0.7953 H   0  0  0  0  0  0  0  0  0  0  0  0
   -0.0946    0.1154    3.3185 H   0  0  0  0  0  0  0  0  0  0  0  0
   -2.2759   -1.7609    2.9003 H   0  0  0  0  0  0  0  0  0  0  0  0
   -2.6267   -0.8132    4.4001 H   0  0  0  0  0  0  0  0  0  0  0  0
   -3.9879    0.4608    2.1748 H   0  0  0  0  0  0  0  0  0  0  0  0
   -1.8977    2.3450    2.9056 H   0  0  0  0  0  0  0  0  0  0  0  0
   -2.4203    1.4739    4.4018 H   0  0  0  0  0  0  0  0  0  0  0  0
  1  2  1  0
  2  3  1  0
  3  4  1  0
  3  5  1  0
  5  6  1  0
  6  7  1  0
  7  8  1  0
  8  9  1  0
  5  2  1  0
  8  5  1  0
  9  6  1  0
  1 10  1  0
  2 11  1  0
  3 12  1  0
  4 13  1  0
  6 14  1  0
  7 15  1  0
  7 16  1  0
  8 17  1  0
  9 18  1  0
  9 19  1  0
M  END
$$$$
