
     RDKit          3D

 19 19  0  0  0  0  0  0  0  0999 V2000
    2.0785    3.2344   -1.0302 O   0  0  0  0  0  0  0  0  0  0  0  0
    2.9899    2.2438   -1.5053 C   0  0  0  0  0  0  0  0  0  0  0  0
    2.1440    1.0681   -2.0143 C   0  0  0  0  0  0  0  0  0  0  0  0
    1.3541    0.4184   -0.8908 C   0  0  0  0  0  0  0  0  0  0  0  0
    0.6906   -0.9477   -1.1761 C   0  0  0  0  0  0  0  0  0  0  0  0
    1.5913   -1.4632   -0.0361 C   0  0  0  0  0  0  0  0  0  0  0  0
    2.2243   -0.1754    0.1100 O   0  0  0  0  0  0  0  0  0  0  0  0
    3.8711    2.7789   -2.5476 C   0  0  0  0  0  0  0  0  0  0  0  0
    4.5961    3.2393   -3.3889 C   0  0  0  0  0  0  0  0  0  0  0  0
    2.5949    3.9854   -0.7206 H   0  0  0  0  0  0  0  0  0  0  0  0
    3.6115    1.8694   -0.6775 H   0  0  0  0  0  0  0  0  0  0  0  0
    1.4582    1.4364   -2.7861 H   0  0  0  0  0  0  0  0  0  0  0  0
    2.8082    0.3283   -2.4728 H   0  0  0  0  0  0  0  0  0  0  0  0
    0.6887    1.1564   -0.4288 H   0  0  0  0  0  0  0  0  0  0  0  0
   -0.3846   -1.0025   -1.0012 H   0  0  0  0  0  0  0  0  0  0  0  0
    0.9158   -1.3603   -2.1620 H   0  0  0  0  0  0  0  0  0  0  0  0
    1.0615   -1.7619    0.8774 H   0  0  0  0  0  0  0  0  0  0  0  0
    2.3109   -2.2481   -0.2979 H   0  0  0  0  0  0  0  0  0  0  0  0
    5.2370    3.6428   -4.1336 H   0  0  0  0  0  0  0  0  0  0  0  0
  1  2  1  0
  2  3  1  0
  3  4  1  0
  4  5  1  0
  5  6  1  0
  6  7  1  0
  2  8  1  0
  8  9  3  0
  7  4  1  0
  1 10  1  0
  2 11  1  0
  3 12  1  0
  3 13  1  0
  4 14  1  0
  5 15  1  0
  5 16  1  0
  6 17  1  0
  6 18  1  0
  9 19  1  0
M  END
$$$$
