gdb 2675	3.0071279	1.4401117	1.1070192	2.6543	75.95	-0.23409	0.01846	0.25255	1109.3431	0.157958	-422.562782	-422.554631	-422.553687	-422.59525	31.77
 OpenBabel02181911413D

 19 20  0  0  1  0  0  0  0  0999 V2000
   -1.7101   -1.2575   -0.5935 O   0  0  0  0  0  0  0  0  0  0  0  0
   -1.9875   -0.1996    0.2760 C   0  0  1  0  0  0  0  0  0  0  0  0
   -0.7637    0.6216    0.7856 C   0  0  1  0  0  0  0  0  0  0  0  0
    0.2792    0.4280   -0.1579 O   0  0  0  0  0  0  0  0  0  0  0  0
   -1.5767    1.9257    0.5367 C   0  0  2  0  0  0  0  0  0  0  0  0
   -2.3955    2.4385    1.6907 C   0  0  0  0  0  0  0  0  0  0  0  0
   -3.6992    2.1967    1.5394 C   0  0  0  0  0  0  0  0  0  0  0  0
   -4.0205    1.4782    0.2467 C   0  0  0  0  0  0  0  0  0  0  0  0
   -2.6268    1.1098   -0.2921 C   0  0  2  0  0  0  0  0  0  0  0  0
   -0.9007   -1.0125   -1.0611 H   0  0  0  0  0  0  0  0  0  0  0  0
   -2.5832   -0.5982    1.1032 H   0  0  0  0  0  0  0  0  0  0  0  0
   -0.4118    0.4313    1.8081 H   0  0  0  0  0  0  0  0  0  0  0  0
    0.9262    1.1323   -0.0565 H   0  0  0  0  0  0  0  0  0  0  0  0
   -1.0003    2.7121    0.0344 H   0  0  0  0  0  0  0  0  0  0  0  0
   -1.9540    2.9539    2.5376 H   0  0  0  0  0  0  0  0  0  0  0  0
   -4.4681    2.4886    2.2474 H   0  0  0  0  0  0  0  0  0  0  0  0
   -4.6449    0.5889    0.4066 H   0  0  0  0  0  0  0  0  0  0  0  0
   -4.5830    2.1284   -0.4370 H   0  0  0  0  0  0  0  0  0  0  0  0
   -2.5279    1.1685   -1.3766 H   0  0  0  0  0  0  0  0  0  0  0  0
  1  2  1  0  0  0  0
  2  3  1  0  0  0  0
  2 11  1  1  0  0  0
  3 12  1  1  0  0  0
  4 13  1  0  0  0  0
  4  3  1  0  0  0  0
  5 14  1  6  0  0  0
  5  3  1  0  0  0  0
  5  6  1  0  0  0  0
  6 15  1  0  0  0  0
  7  6  2  0  0  0  0
  7 16  1  0  0  0  0
  8 17  1  0  0  0  0
  8  7  1  0  0  0  0
  9 19  1  6  0  0  0
  9  8  1  0  0  0  0
  9  2  1  0  0  0  0
  9  5  1  0  0  0  0
 10  1  1  0  0  0  0
 18  8  1  0  0  0  0
M TOR 0 0 1 2 3
M TOR 1 0 1 2 4
M TOR 2 0 1 2 11
M TOR 3 0 1 8 4
M TOR 4 0 1 8 7
M TOR 5 0 1 8 18
M TOR 6 1 2 3 12
M TOR 7 1 2 4 5
M TOR 8 1 2 4 8
M TOR 9 1 2 4 13
M TOR 10 1 8 4 5
M TOR 11 1 8 4 13
M TOR 12 1 8 7 6
M TOR 13 1 8 7 16
M TOR 14 1 8 7 17
M TOR 15 2 1 0 9
M TOR 16 2 1 8 7
M TOR 17 2 1 8 18
M TOR 18 2 4 5 6
M TOR 19 2 4 5 14
M TOR 20 2 4 8 7
M TOR 21 2 4 8 18
M TOR 22 3 2 1 8
M TOR 23 3 2 1 10
M TOR 24 3 2 4 5
M TOR 25 3 2 4 8
M TOR 26 3 2 4 13
M TOR 27 4 2 1 10
M TOR 28 4 2 3 12
M TOR 29 4 5 6 7
M TOR 30 4 5 6 15
M TOR 31 4 8 1 10
M TOR 32 4 8 7 6
M TOR 33 4 8 7 16
M TOR 34 4 8 7 17
M TOR 35 5 4 2 11
M TOR 36 5 4 8 7
M TOR 37 5 4 8 18
M TOR 38 5 6 7 8
M TOR 39 5 6 7 16
M TOR 40 5 6 7 17
M TOR 41 6 5 4 8
M TOR 42 6 5 4 13
M TOR 43 6 7 8 18
M TOR 44 7 6 5 14
M TOR 45 7 8 1 10
M TOR 46 7 8 4 13
M TOR 47 8 1 0 9
M TOR 48 8 1 2 11
M TOR 49 8 4 2 11
M TOR 50 8 4 5 14
M TOR 51 8 7 6 15
M  END
$$$$
