
     RDKit          3D

 19 20  0  0  0  0  0  0  0  0999 V2000
   -2.2141   -1.9259   -0.9045 O   0  0  0  0  0  0  0  0  0  0  0  0
   -1.1576   -1.5008   -0.4938 C   0  0  0  0  0  0  0  0  0  0  0  0
   -0.9668   -1.2119    0.9945 C   0  0  0  0  0  0  0  0  0  0  0  0
   -0.6989    0.2805    1.3076 C   0  0  0  0  0  0  0  0  0  0  0  0
    0.7319    0.6837    1.0146 C   0  0  0  0  0  0  0  0  0  0  0  0
    0.9637    1.9023    0.3020 O   0  0  0  0  0  0  0  0  0  0  0  0
    1.2700    0.6682   -0.3536 C   0  0  0  0  0  0  0  0  0  0  0  0
    0.4190    0.2483   -1.5347 C   0  0  0  0  0  0  0  0  0  0  0  0
   -0.0020   -1.2397   -1.4587 C   0  0  0  0  0  0  0  0  0  0  0  0
   -1.8787   -1.5471    1.4937 H   0  0  0  0  0  0  0  0  0  0  0  0
   -0.1319   -1.8154    1.3757 H   0  0  0  0  0  0  0  0  0  0  0  0
   -1.3810    0.9170    0.7363 H   0  0  0  0  0  0  0  0  0  0  0  0
   -0.9173    0.4611    2.3650 H   0  0  0  0  0  0  0  0  0  0  0  0
    1.4362    0.5114    1.8306 H   0  0  0  0  0  0  0  0  0  0  0  0
    2.3401    0.4853   -0.4677 H   0  0  0  0  0  0  0  0  0  0  0  0
   -0.4647    0.8906   -1.5937 H   0  0  0  0  0  0  0  0  0  0  0  0
    0.9807    0.4064   -2.4609 H   0  0  0  0  0  0  0  0  0  0  0  0
   -0.3321   -1.5917   -2.4386 H   0  0  0  0  0  0  0  0  0  0  0  0
    0.8643   -1.8441   -1.1572 H   0  0  0  0  0  0  0  0  0  0  0  0
  1  2  2  0
  2  3  1  0
  3  4  1  0
  4  5  1  0
  5  6  1  0
  6  7  1  0
  7  8  1  0
  8  9  1  0
  9  2  1  0
  7  5  1  0
  3 10  1  0
  3 11  1  0
  4 12  1  0
  4 13  1  0
  5 14  1  0
  7 15  1  0
  8 16  1  0
  8 17  1  0
  9 18  1  0
  9 19  1  0
M  END
$$$$
