
     RDKit          3D

 19 18  0  0  0  0  0  0  0  0999 V2000
    1.5948   -0.4981   -0.1145 C   0  0  0  0  0  0  0  0  0  0  0  0
    0.1658   -0.2369   -0.0170 C   0  0  0  0  0  0  0  0  0  0  0  0
   -1.0162   -0.0254    0.0664 C   0  0  0  0  0  0  0  0  0  0  0  0
   -2.4458    0.2483    0.1523 C   0  0  0  0  0  0  0  0  0  0  0  0
   -2.7936    1.7372    0.0176 C   0  0  0  0  0  0  0  0  0  0  0  0
   -4.2948    1.9967   -0.0043 C   0  0  0  0  0  0  0  0  0  0  0  0
   -2.2051    2.3944    1.1712 O   0  0  0  0  0  0  0  0  0  0  0  0
   -1.8319    3.6703    1.0201 C   0  0  0  0  0  0  0  0  0  0  0  0
   -1.9553    4.3412    0.0313 O   0  0  0  0  0  0  0  0  0  0  0  0
    1.9951   -0.8836    0.8297 H   0  0  0  0  0  0  0  0  0  0  0  0
    1.8134   -1.2369   -0.8935 H   0  0  0  0  0  0  0  0  0  0  0  0
    2.1487    0.4146   -0.3603 H   0  0  0  0  0  0  0  0  0  0  0  0
   -2.9800   -0.2930   -0.6390 H   0  0  0  0  0  0  0  0  0  0  0  0
   -2.8486   -0.1182    1.1053 H   0  0  0  0  0  0  0  0  0  0  0  0
   -2.3250    2.1541   -0.8768 H   0  0  0  0  0  0  0  0  0  0  0  0
   -4.7670    1.6253    0.9106 H   0  0  0  0  0  0  0  0  0  0  0  0
   -4.4913    3.0672   -0.0945 H   0  0  0  0  0  0  0  0  0  0  0  0
   -4.7526    1.4921   -0.8607 H   0  0  0  0  0  0  0  0  0  0  0  0
   -1.3842    4.0174    1.9646 H   0  0  0  0  0  0  0  0  0  0  0  0
  1  2  1  0
  2  3  3  0
  3  4  1  0
  4  5  1  0
  5  6  1  0
  5  7  1  0
  7  8  1  0
  8  9  2  0
  1 10  1  0
  1 11  1  0
  1 12  1  0
  4 13  1  0
  4 14  1  0
  5 15  1  0
  6 16  1  0
  6 17  1  0
  6 18  1  0
  8 19  1  0
M  END
$$$$
