
     RDKit          3D

 19 21  0  0  0  0  0  0  0  0999 V2000
    0.1606    0.5712   -0.2700 C   0  0  0  0  0  0  0  0  0  0  0  0
    1.5681    0.0574   -0.1116 C   0  0  0  0  0  0  0  0  0  0  0  0
    2.1398   -0.8547   -1.1975 C   0  0  0  0  0  0  0  0  0  0  0  0
    3.6194   -1.0569   -0.7644 C   0  0  0  0  0  0  0  0  0  0  0  0
    3.8685    0.0815    0.2261 C   0  0  0  0  0  0  0  0  0  0  0  0
    2.9221    0.1491    1.4332 C   0  0  0  0  0  0  0  0  0  0  0  0
    1.7588   -0.6362    1.1813 O   0  0  0  0  0  0  0  0  0  0  0  0
    2.7194    1.0462    0.2540 C   0  0  0  0  0  0  0  0  0  0  0  0
    2.8073    2.3963    0.0007 O   0  0  0  0  0  0  0  0  0  0  0  0
   -0.1181    1.2142    0.5706 H   0  0  0  0  0  0  0  0  0  0  0  0
    0.0630    1.1444   -1.1975 H   0  0  0  0  0  0  0  0  0  0  0  0
   -0.5484   -0.2619   -0.3039 H   0  0  0  0  0  0  0  0  0  0  0  0
    1.5850   -1.7949   -1.2676 H   0  0  0  0  0  0  0  0  0  0  0  0
    2.0764   -0.3493   -2.1688 H   0  0  0  0  0  0  0  0  0  0  0  0
    3.7629   -2.0323   -0.2910 H   0  0  0  0  0  0  0  0  0  0  0  0
    4.3045   -1.0005   -1.6148 H   0  0  0  0  0  0  0  0  0  0  0  0
    4.8655    0.4738    0.3955 H   0  0  0  0  0  0  0  0  0  0  0  0
    3.2376    0.2932    2.4600 H   0  0  0  0  0  0  0  0  0  0  0  0
    2.1374    2.8490    0.5256 H   0  0  0  0  0  0  0  0  0  0  0  0
  1  2  1  0
  2  3  1  0
  3  4  1  0
  4  5  1  0
  5  6  1  0
  6  7  1  0
  6  8  1  0
  8  9  1  0
  7  2  1  0
  8  2  1  0
  8  5  1  0
  1 10  1  0
  1 11  1  0
  1 12  1  0
  3 13  1  0
  3 14  1  0
  4 15  1  0
  4 16  1  0
  5 17  1  0
  6 18  1  0
  9 19  1  0
M  END
$$$$
