gdb 5886	2.5600223	0.7420729	0.5836803	3.0676	84.71	-0.25419	-0.04868	0.20551000000000003	1930.4021	0.153084	-422.521988	-422.51083	-422.509885	-422.561268	36.445
 OpenBabel02181911423D

 19 18  0  0  0  0  0  0  0  0999 V2000
   -0.0179   -0.1535   -0.0078 C   0  0  0  0  0  0  0  0  0  0  0  0
    1.4876   -0.0103   -0.2948 C   0  0  0  0  0  0  0  0  0  0  0  0
    1.9798    1.3517   -0.1517 C   0  0  0  0  0  0  0  0  0  0  0  0
    2.3773    2.4856   -0.0300 C   0  0  0  0  0  0  0  0  0  0  0  0
    2.7958    3.8561    0.1299 C   0  0  0  0  0  0  0  0  0  0  0  0
    2.0318    4.7431    0.4495 O   0  0  0  0  0  0  0  0  0  0  0  0
    4.2682    4.1790   -0.1203 C   0  0  0  0  0  0  0  0  0  0  0  0
    4.9942    3.0340   -0.4707 O   0  0  0  0  0  0  0  0  0  0  0  0
    6.3569    3.3005   -0.7092 C   0  0  0  0  0  0  0  0  0  0  0  0
   -0.2498    0.1587    1.0136 H   0  0  0  0  0  0  0  0  0  0  0  0
   -0.6041    0.4658   -0.6914 H   0  0  0  0  0  0  0  0  0  0  0  0
   -0.3284   -1.1950   -0.1309 H   0  0  0  0  0  0  0  0  0  0  0  0
    2.0619   -0.6631    0.3755 H   0  0  0  0  0  0  0  0  0  0  0  0
    1.7115   -0.3592   -1.3113 H   0  0  0  0  0  0  0  0  0  0  0  0
    4.3046    4.9475   -0.9113 H   0  0  0  0  0  0  0  0  0  0  0  0
    4.6601    4.6508    0.7968 H   0  0  0  0  0  0  0  0  0  0  0  0
    6.8538    3.7133    0.1828 H   0  0  0  0  0  0  0  0  0  0  0  0
    6.8318    2.3528   -0.9728 H   0  0  0  0  0  0  0  0  0  0  0  0
    6.4941    4.0120   -1.5386 H   0  0  0  0  0  0  0  0  0  0  0  0
  1 10  1  0  0  0  0
  2  3  1  0  0  0  0
  2  1  1  0  0  0  0
  2 13  1  0  0  0  0
  3  4  3  0  0  0  0
  4  5  1  0  0  0  0
  5  6  2  0  0  0  0
  7  5  1  0  0  0  0
  7 16  1  0  0  0  0
  8  7  1  0  0  0  0
  9  8  1  0  0  0  0
  9 17  1  0  0  0  0
 11  1  1  0  0  0  0
 12  1  1  0  0  0  0
 14  2  1  0  0  0  0
 15  7  1  0  0  0  0
 18  9  1  0  0  0  0
 19  9  1  0  0  0  0
M TOR 0 0 1 2 3
M TOR 1 1 2 3 4
M TOR 2 2 1 0 9
M TOR 3 2 1 0 10
M TOR 4 2 1 0 11
M TOR 5 2 3 4 5
M TOR 6 2 3 4 6
M TOR 7 3 2 1 12
M TOR 8 3 2 1 13
M TOR 9 3 4 6 7
M TOR 10 3 4 6 14
M TOR 11 3 4 6 15
M TOR 12 4 6 7 8
M TOR 13 5 4 6 7
M TOR 14 5 4 6 14
M TOR 15 5 4 6 15
M TOR 16 6 7 8 16
M TOR 17 6 7 8 17
M TOR 18 6 7 8 18
M TOR 19 8 7 6 14
M TOR 20 8 7 6 15
M  END
$$$$
