
     RDKit          3D

 19 21  0  0  0  0  0  0  0  0999 V2000
    0.3867    0.1698    0.0880 O   0  0  0  0  0  0  0  0  0  0  0  0
   -0.7814    0.3803    0.8331 C   0  0  0  0  0  0  0  0  0  0  0  0
   -2.1015    0.3003    0.0367 C   0  0  0  0  0  0  0  0  0  0  0  0
   -2.6186    1.3974    0.9810 C   0  0  0  0  0  0  0  0  0  0  0  0
   -2.6375    0.9517    2.4995 C   0  0  0  0  0  0  0  0  0  0  0  0
   -1.5053    1.9782    2.7854 C   0  0  0  0  0  0  0  0  0  0  0  0
   -1.1598    1.8555    1.2907 C   0  0  0  0  0  0  0  0  0  0  0  0
   -2.1796   -0.3837    2.6515 O   0  0  0  0  0  0  0  0  0  0  0  0
   -0.9067   -0.5650    2.0341 C   0  0  0  0  0  0  0  0  0  0  0  0
    1.1450    0.2590    0.6769 H   0  0  0  0  0  0  0  0  0  0  0  0
   -1.9677    0.6920   -0.9754 H   0  0  0  0  0  0  0  0  0  0  0  0
   -2.6128   -0.6655    0.0026 H   0  0  0  0  0  0  0  0  0  0  0  0
   -3.4113    2.0810    0.6764 H   0  0  0  0  0  0  0  0  0  0  0  0
   -3.5757    1.0219    3.0513 H   0  0  0  0  0  0  0  0  0  0  0  0
   -1.9160    2.9678    3.0071 H   0  0  0  0  0  0  0  0  0  0  0  0
   -0.7703    1.7188    3.5538 H   0  0  0  0  0  0  0  0  0  0  0  0
   -0.6405    2.6421    0.7411 H   0  0  0  0  0  0  0  0  0  0  0  0
   -0.0918   -0.3840    2.7552 H   0  0  0  0  0  0  0  0  0  0  0  0
   -0.8449   -1.6071    1.7049 H   0  0  0  0  0  0  0  0  0  0  0  0
  1  2  1  0
  2  3  1  0
  3  4  1  0
  4  5  1  0
  5  6  1  0
  6  7  1  0
  5  8  1  0
  8  9  1  0
  7  2  1  0
  9  2  1  0
  7  4  1  0
  1 10  1  0
  3 11  1  0
  3 12  1  0
  4 13  1  0
  5 14  1  0
  6 15  1  0
  6 16  1  0
  7 17  1  0
  9 18  1  0
  9 19  1  0
M  END
$$$$
