gdb 4049	2.6779979	1.7464377	1.4552782	2.196	74.33	-0.24894	0.06559	0.31453	969.2439	0.158681	-422.538231	-422.530757	-422.529813	-422.569674	30.622
 OpenBabel02181911413D

 19 21  0  0  1  0  0  0  0  0999 V2000
   -0.6901    0.4135    0.8499 O   0  0  0  0  0  0  0  0  0  0  0  0
   -1.8839    0.9000    0.2529 C   0  0  1  0  0  0  0  0  0  0  0  0
   -2.5800   -0.1193   -0.6993 C   0  0  0  0  0  0  0  0  0  0  0  0
   -3.8576   -0.3887    0.0914 C   0  0  2  0  0  0  0  0  0  0  0  0
   -4.4069    0.9732    0.6316 C   0  0  1  0  0  0  0  0  0  0  0  0
   -4.9417    0.2479    1.8963 C   0  0  0  0  0  0  0  0  0  0  0  0
   -3.5437   -0.3440    1.6124 C   0  0  1  0  0  0  0  0  0  0  0  0
   -2.8520   -1.3630    2.2636 O   0  0  0  0  0  0  0  0  0  0  0  0
   -2.9956    1.0891    1.2855 C   0  0  1  0  0  0  0  0  0  0  0  0
   -0.9315   -0.3804    1.3446 H   0  0  0  0  0  0  0  0  0  0  0  0
   -1.5983    1.8249   -0.2558 H   0  0  0  0  0  0  0  0  0  0  0  0
   -2.7912    0.3004   -1.6883 H   0  0  0  0  0  0  0  0  0  0  0  0
   -1.9545   -1.0058   -0.8374 H   0  0  0  0  0  0  0  0  0  0  0  0
   -4.5694   -1.1329   -0.2697 H   0  0  0  0  0  0  0  0  0  0  0  0
   -4.9156    1.7394    0.0506 H   0  0  0  0  0  0  0  0  0  0  0  0
   -5.0512    0.8560    2.7994 H   0  0  0  0  0  0  0  0  0  0  0  0
   -5.7989   -0.4167    1.7555 H   0  0  0  0  0  0  0  0  0  0  0  0
   -2.7856   -1.1378    3.1985 H   0  0  0  0  0  0  0  0  0  0  0  0
   -2.8343    1.8003    2.0981 H   0  0  0  0  0  0  0  0  0  0  0  0
  1 10  1  0  0  0  0
  2 11  1  6  0  0  0
  2  1  1  0  0  0  0
  2  9  1  0  0  0  0
  3  4  1  0  0  0  0
  3  2  1  0  0  0  0
  4 14  1  6  0  0  0
  4  5  1  0  0  0  0
  4  7  1  0  0  0  0
  5 15  1  6  0  0  0
  5  9  1  0  0  0  0
  5  6  1  0  0  0  0
  6 16  1  0  0  0  0
  7  6  1  0  0  0  0
  7  8  1  1  0  0  0
  8 18  1  0  0  0  0
  9  7  1  0  0  0  0
  9 19  1  1  0  0  0
 12  3  1  0  0  0  0
 13  3  1  0  0  0  0
 17  6  1  0  0  0  0
M TOR 0 0 1 2 3
M TOR 1 0 1 2 11
M TOR 2 0 1 2 12
M TOR 3 0 1 8 4
M TOR 4 0 1 8 6
M TOR 5 0 1 8 18
M TOR 6 1 2 3 4
M TOR 7 1 2 3 6
M TOR 8 1 2 3 13
M TOR 9 1 8 4 3
M TOR 10 1 8 4 5
M TOR 11 1 8 4 14
M TOR 12 1 8 6 3
M TOR 13 1 8 6 5
M TOR 14 1 8 6 7
M TOR 15 2 1 0 9
M TOR 16 2 1 8 4
M TOR 17 2 1 8 6
M TOR 18 2 1 8 18
M TOR 19 2 3 4 5
M TOR 20 2 3 4 8
M TOR 21 2 3 4 14
M TOR 22 2 3 6 5
M TOR 23 2 3 6 7
M TOR 24 2 3 6 8
M TOR 25 3 2 1 8
M TOR 26 3 2 1 10
M TOR 27 3 4 5 6
M TOR 28 3 4 5 15
M TOR 29 3 4 5 16
M TOR 30 3 4 8 6
M TOR 31 3 4 8 18
M TOR 32 3 6 5 15
M TOR 33 3 6 5 16
M TOR 34 3 6 7 17
M TOR 35 3 6 8 18
M TOR 36 4 3 2 11
M TOR 37 4 3 2 12
M TOR 38 4 3 6 7
M TOR 39 4 5 6 7
M TOR 40 4 5 6 8
M TOR 41 4 8 1 10
M TOR 42 4 8 6 7
M TOR 43 5 4 3 13
M TOR 44 5 4 8 18
M TOR 45 5 6 3 13
M TOR 46 5 6 7 17
M TOR 47 5 6 8 18
M TOR 48 6 3 2 11
M TOR 49 6 3 2 12
M TOR 50 6 3 4 14
M TOR 51 6 5 4 14
M TOR 52 6 8 1 10
M TOR 53 6 8 4 14
M TOR 54 7 6 3 13
M TOR 55 7 6 5 15
M TOR 56 7 6 5 16
M TOR 57 7 6 8 18
M TOR 58 8 1 0 9
M TOR 59 8 1 2 11
M TOR 60 8 1 2 12
M TOR 61 8 4 3 13
M TOR 62 8 4 5 15
M TOR 63 8 4 5 16
M TOR 64 8 6 3 13
M TOR 65 8 6 5 15
M TOR 66 8 6 5 16
M TOR 67 8 6 7 17
M  END
$$$$
