
     RDKit          3D

 19 20  0  0  0  0  0  0  0  0999 V2000
   -0.7537    2.3558    0.6013 C   0  0  0  0  0  0  0  0  0  0  0  0
   -1.0251    0.9975    0.0101 C   0  0  0  0  0  0  0  0  0  0  0  0
   -2.0019   -0.0269    0.6761 C   0  0  0  0  0  0  0  0  0  0  0  0
   -1.1413   -1.1623    0.0335 C   0  0  0  0  0  0  0  0  0  0  0  0
   -1.5169   -1.3088   -1.4617 C   0  0  0  0  0  0  0  0  0  0  0  0
   -1.9914    0.0581   -1.9958 C   0  0  0  0  0  0  0  0  0  0  0  0
   -1.3199    1.1614   -1.3890 O   0  0  0  0  0  0  0  0  0  0  0  0
    0.0170   -0.1503    0.0973 C   0  0  0  0  0  0  0  0  0  0  0  0
    1.1996   -0.2173    0.2624 O   0  0  0  0  0  0  0  0  0  0  0  0
   -0.4531    2.2658    1.6488 H   0  0  0  0  0  0  0  0  0  0  0  0
    0.0548    2.8452    0.0512 H   0  0  0  0  0  0  0  0  0  0  0  0
   -1.6445    2.9880    0.5400 H   0  0  0  0  0  0  0  0  0  0  0  0
   -1.9035   -0.0026    1.7639 H   0  0  0  0  0  0  0  0  0  0  0  0
   -3.0567    0.0324    0.4036 H   0  0  0  0  0  0  0  0  0  0  0  0
   -1.0274   -2.1212    0.5413 H   0  0  0  0  0  0  0  0  0  0  0  0
   -0.6487   -1.6734   -2.0205 H   0  0  0  0  0  0  0  0  0  0  0  0
   -2.3180   -2.0460   -1.5874 H   0  0  0  0  0  0  0  0  0  0  0  0
   -1.8107    0.1507   -3.0702 H   0  0  0  0  0  0  0  0  0  0  0  0
   -3.0746    0.1573   -1.8405 H   0  0  0  0  0  0  0  0  0  0  0  0
  1  2  1  0
  2  3  1  0
  3  4  1  0
  4  5  1  0
  5  6  1  0
  6  7  1  0
  4  8  1  0
  8  9  2  0
  7  2  1  0
  8  2  1  0
  1 10  1  0
  1 11  1  0
  1 12  1  0
  3 13  1  0
  3 14  1  0
  4 15  1  0
  5 16  1  0
  5 17  1  0
  6 18  1  0
  6 19  1  0
M  END
$$$$
