
     RDKit          3D

 19 21  0  0  0  0  0  0  0  0999 V2000
    1.4250   -0.6450    1.0740 C   0  0  0  0  0  0  0  0  0  0  0  0
    1.0822    0.0158   -0.2680 C   0  0  0  0  0  0  0  0  0  0  0  0
    1.8047   -0.5855   -1.4325 C   0  0  0  0  0  0  0  0  0  0  0  0
    1.6226   -0.5584   -2.9080 C   0  0  0  0  0  0  0  0  0  0  0  0
    2.9595   -0.1600   -3.2258 O   0  0  0  0  0  0  0  0  0  0  0  0
    3.3197   -0.6548   -1.9085 C   0  0  0  0  0  0  0  0  0  0  0  0
    3.1734   -2.1985   -2.0411 C   0  0  0  0  0  0  0  0  0  0  0  0
    3.5229   -2.9234   -0.8845 O   0  0  0  0  0  0  0  0  0  0  0  0
    1.6794   -1.9204   -2.2010 C   0  0  0  0  0  0  0  0  0  0  0  0
    1.1303   -1.7009    1.0798 H   0  0  0  0  0  0  0  0  0  0  0  0
    2.4998   -0.5898    1.2798 H   0  0  0  0  0  0  0  0  0  0  0  0
    0.9048   -0.1543    1.9018 H   0  0  0  0  0  0  0  0  0  0  0  0
    0.0023   -0.0597   -0.4495 H   0  0  0  0  0  0  0  0  0  0  0  0
    1.3078    1.0889   -0.2177 H   0  0  0  0  0  0  0  0  0  0  0  0
    0.8063   -0.2232   -3.5354 H   0  0  0  0  0  0  0  0  0  0  0  0
    4.2011   -0.1864   -1.4731 H   0  0  0  0  0  0  0  0  0  0  0  0
    3.7174   -2.6544   -2.8730 H   0  0  0  0  0  0  0  0  0  0  0  0
    2.9281   -2.6559   -0.1740 H   0  0  0  0  0  0  0  0  0  0  0  0
    0.8563   -2.6251   -2.2126 H   0  0  0  0  0  0  0  0  0  0  0  0
  1  2  1  0
  2  3  1  0
  3  4  1  0
  4  5  1  0
  5  6  1  0
  6  7  1  0
  7  8  1  0
  7  9  1  0
  6  3  1  0
  9  3  1  0
  9  4  1  0
  1 10  1  0
  1 11  1  0
  1 12  1  0
  2 13  1  0
  2 14  1  0
  4 15  1  0
  6 16  1  0
  7 17  1  0
  8 18  1  0
  9 19  1  0
M  END
$$$$
