gdb 5770	3.7852187	1.0586835	1.0484568	2.683	75.25	-0.24863	-0.0135	0.23512999999999998	1238.9792	0.1571	-422.550815	-422.542521	-422.541577	-422.583856	31.229
 OpenBabel02181911423D

 19 20  0  0  1  0  0  0  0  0999 V2000
    3.3555    1.2527   -0.5932 C   0  0  0  0  0  0  0  0  0  0  0  0
    2.4306    0.0401   -0.4507 C   0  0  0  0  0  0  0  0  0  0  0  0
    2.6508   -1.0241   -1.5296 C   0  0  2  0  0  0  0  0  0  0  0  0
    2.2380   -0.5808   -2.9831 C   0  0  0  0  0  0  0  0  0  0  0  0
    1.1649   -1.6495   -3.2584 C   0  0  2  0  0  0  0  0  0  0  0  0
    0.4431   -1.7121   -1.9832 O   0  0  0  0  0  0  0  0  0  0  0  0
    1.6890   -2.2276   -1.4032 C   0  0  1  0  0  0  0  0  0  0  0  0
    1.8472   -2.9462   -2.7621 C   0  0  0  0  0  0  0  0  0  0  0  0
    2.1464   -4.0190   -3.1800 O   0  0  0  0  0  0  0  0  0  0  0  0
    3.1677    1.9837    0.1988 H   0  0  0  0  0  0  0  0  0  0  0  0
    4.4087    0.9567   -0.5312 H   0  0  0  0  0  0  0  0  0  0  0  0
    3.2119    1.7618   -1.5521 H   0  0  0  0  0  0  0  0  0  0  0  0
    2.5861   -0.4185    0.5345 H   0  0  0  0  0  0  0  0  0  0  0  0
    1.3822    0.3583   -0.4832 H   0  0  0  0  0  0  0  0  0  0  0  0
    3.6921   -1.3661   -1.5011 H   0  0  0  0  0  0  0  0  0  0  0  0
    1.8006    0.4209   -2.9985 H   0  0  0  0  0  0  0  0  0  0  0  0
    3.0610   -0.6127   -3.7017 H   0  0  0  0  0  0  0  0  0  0  0  0
    0.5266   -1.5815   -4.1369 H   0  0  0  0  0  0  0  0  0  0  0  0
    1.5681   -2.7322   -0.4463 H   0  0  0  0  0  0  0  0  0  0  0  0
  1 11  1  0  0  0  0
  1  2  1  0  0  0  0
  1 10  1  0  0  0  0
  2 13  1  0  0  0  0
  3 15  1  1  0  0  0
  3  7  1  0  0  0  0
  3  2  1  0  0  0  0
  4  3  1  0  0  0  0
  5 18  1  6  0  0  0
  5  4  1  0  0  0  0
  5  8  1  0  0  0  0
  5  6  1  0  0  0  0
  6  7  1  0  0  0  0
  7 19  1  1  0  0  0
  8  7  1  0  0  0  0
  9  8  2  0  0  0  0
 12  1  1  0  0  0  0
 14  2  1  0  0  0  0
 16  4  1  0  0  0  0
 17  4  1  0  0  0  0
M TOR 0 0 1 2 3
M TOR 1 0 1 2 6
M TOR 2 0 1 2 14
M TOR 3 1 2 3 4
M TOR 4 1 2 3 15
M TOR 5 1 2 3 16
M TOR 6 1 2 6 5
M TOR 7 1 2 6 7
M TOR 8 1 2 6 18
M TOR 9 2 1 0 9
M TOR 10 2 1 0 10
M TOR 11 2 1 0 11
M TOR 12 2 3 4 5
M TOR 13 2 3 4 7
M TOR 14 2 3 4 17
M TOR 15 2 6 5 4
M TOR 16 2 6 7 4
M TOR 17 2 6 7 8
M TOR 18 3 2 1 12
M TOR 19 3 2 1 13
M TOR 20 3 2 6 5
M TOR 21 3 2 6 7
M TOR 22 3 2 6 18
M TOR 23 3 4 5 6
M TOR 24 3 4 7 6
M TOR 25 3 4 7 8
M TOR 26 4 3 2 6
M TOR 27 4 3 2 14
M TOR 28 4 5 6 7
M TOR 29 4 5 6 18
M TOR 30 4 7 6 18
M TOR 31 5 4 3 15
M TOR 32 5 4 3 16
M TOR 33 5 4 7 8
M TOR 34 5 6 2 14
M TOR 35 5 6 7 8
M TOR 36 6 2 1 12
M TOR 37 6 2 1 13
M TOR 38 6 2 3 15
M TOR 39 6 2 3 16
M TOR 40 6 5 4 17
M TOR 41 6 7 4 17
M TOR 42 7 4 3 15
M TOR 43 7 4 3 16
M TOR 44 7 6 2 14
M TOR 45 8 7 4 17
M TOR 46 8 7 6 18
M  END
$$$$
