
     RDKit          3D

 19 21  0  0  0  0  0  0  0  0999 V2000
    1.5770    2.7335   -3.6551 C   0  0  0  0  0  0  0  0  0  0  0  0
    0.9309    1.6763   -2.8276 C   0  0  0  0  0  0  0  0  0  0  0  0
    1.3279    0.3039   -3.0181 O   0  0  0  0  0  0  0  0  0  0  0  0
    0.1265   -0.0682   -2.2559 C   0  0  0  0  0  0  0  0  0  0  0  0
   -0.4181   -1.4193   -2.5909 C   0  0  0  0  0  0  0  0  0  0  0  0
   -0.4842    1.3582   -2.4845 C   0  0  0  0  0  0  0  0  0  0  0  0
    0.4727    1.8078   -1.3708 C   0  0  0  0  0  0  0  0  0  0  0  0
    0.5446    0.3809   -0.8221 C   0  0  0  0  0  0  0  0  0  0  0  0
    1.7449   -0.1279   -0.3212 O   0  0  0  0  0  0  0  0  0  0  0  0
    1.1345    3.7091   -3.4338 H   0  0  0  0  0  0  0  0  0  0  0  0
    2.6499    2.7908   -3.4422 H   0  0  0  0  0  0  0  0  0  0  0  0
    1.4486    2.5285   -4.7223 H   0  0  0  0  0  0  0  0  0  0  0  0
   -1.3355   -1.6109   -2.0260 H   0  0  0  0  0  0  0  0  0  0  0  0
   -0.6383   -1.5021   -3.6589 H   0  0  0  0  0  0  0  0  0  0  0  0
    0.3141   -2.1897   -2.3267 H   0  0  0  0  0  0  0  0  0  0  0  0
   -1.4442    1.7271   -2.8164 H   0  0  0  0  0  0  0  0  0  0  0  0
    0.4820    2.7475   -0.8331 H   0  0  0  0  0  0  0  0  0  0  0  0
   -0.2440    0.1888   -0.0897 H   0  0  0  0  0  0  0  0  0  0  0  0
    2.3558   -0.1079   -1.0713 H   0  0  0  0  0  0  0  0  0  0  0  0
  1  2  1  0
  2  3  1  0
  3  4  1  0
  4  5  1  0
  4  6  1  0
  6  7  1  0
  7  8  1  0
  8  9  1  0
  6  2  1  0
  7  2  1  0
  8  4  1  0
  1 10  1  0
  1 11  1  0
  1 12  1  0
  5 13  1  0
  5 14  1  0
  5 15  1  0
  6 16  1  0
  7 17  1  0
  8 18  1  0
  9 19  1  0
M  END
$$$$
