
     RDKit          3D

 19 19  0  0  0  0  0  0  0  0999 V2000
    1.4979   -0.0551    0.1171 C   0  0  0  0  0  0  0  0  0  0  0  0
    0.0900   -0.0347    0.0902 O   0  0  0  0  0  0  0  0  0  0  0  0
   -0.4683    0.6570    1.1858 C   0  0  0  0  0  0  0  0  0  0  0  0
   -1.9773    0.5766    1.0800 C   0  0  0  0  0  0  0  0  0  0  0  0
   -2.5574   -0.8155    0.9984 C   0  0  0  0  0  0  0  0  0  0  0  0
   -2.6586    1.4891    1.9441 O   0  0  0  0  0  0  0  0  0  0  0  0
   -2.7394    1.7221    0.5235 C   0  0  0  0  0  0  0  0  0  0  0  0
   -2.1233    2.9135    0.0057 C   0  0  0  0  0  0  0  0  0  0  0  0
   -1.6425    3.9153   -0.4534 C   0  0  0  0  0  0  0  0  0  0  0  0
    1.8807   -0.5517    1.0228 H   0  0  0  0  0  0  0  0  0  0  0  0
    1.8331   -0.6123   -0.7609 H   0  0  0  0  0  0  0  0  0  0  0  0
    1.9212    0.9605    0.0778 H   0  0  0  0  0  0  0  0  0  0  0  0
   -0.1529    0.1963    2.1386 H   0  0  0  0  0  0  0  0  0  0  0  0
   -0.1495    1.7086    1.2010 H   0  0  0  0  0  0  0  0  0  0  0  0
   -2.3000   -1.3814    1.9006 H   0  0  0  0  0  0  0  0  0  0  0  0
   -3.6462   -0.7808    0.9156 H   0  0  0  0  0  0  0  0  0  0  0  0
   -2.1429   -1.3445    0.1372 H   0  0  0  0  0  0  0  0  0  0  0  0
   -3.7191    1.4991    0.1010 H   0  0  0  0  0  0  0  0  0  0  0  0
   -1.2125    4.7994   -0.8552 H   0  0  0  0  0  0  0  0  0  0  0  0
  1  2  1  0
  2  3  1  0
  3  4  1  0
  4  5  1  0
  4  6  1  0
  6  7  1  0
  7  8  1  0
  8  9  3  0
  7  4  1  0
  1 10  1  0
  1 11  1  0
  1 12  1  0
  3 13  1  0
  3 14  1  0
  5 15  1  0
  5 16  1  0
  5 17  1  0
  7 18  1  0
  9 19  1  0
M  END
$$$$
