
     RDKit          3D

 19 20  0  0  0  0  0  0  0  0999 V2000
   -3.4383    0.5381    0.7025 C   0  0  0  0  0  0  0  0  0  0  0  0
   -2.1740    0.2753   -0.0630 C   0  0  0  0  0  0  0  0  0  0  0  0
   -1.6916    1.1257   -1.1856 C   0  0  0  0  0  0  0  0  0  0  0  0
   -0.8052    1.0151    0.0569 C   0  0  0  0  0  0  0  0  0  0  0  0
   -0.1168   -0.3103    0.0071 C   0  0  0  0  0  0  0  0  0  0  0  0
    1.0247   -0.6842    0.0899 O   0  0  0  0  0  0  0  0  0  0  0  0
   -1.4465   -1.0903   -0.0903 C   0  0  0  0  0  0  0  0  0  0  0  0
   -1.5737   -2.1057   -1.2237 C   0  0  0  0  0  0  0  0  0  0  0  0
   -0.6134   -3.1341   -1.0618 O   0  0  0  0  0  0  0  0  0  0  0  0
   -3.3756    0.1421    1.7218 H   0  0  0  0  0  0  0  0  0  0  0  0
   -3.6458    1.6109    0.7670 H   0  0  0  0  0  0  0  0  0  0  0  0
   -4.2985    0.0651    0.2146 H   0  0  0  0  0  0  0  0  0  0  0  0
   -1.3632    0.7058   -2.1309 H   0  0  0  0  0  0  0  0  0  0  0  0
   -2.1717    2.0951   -1.2827 H   0  0  0  0  0  0  0  0  0  0  0  0
   -0.5169    1.8944    0.6197 H   0  0  0  0  0  0  0  0  0  0  0  0
   -1.5827   -1.6140    0.8650 H   0  0  0  0  0  0  0  0  0  0  0  0
   -2.5575   -2.5882   -1.2123 H   0  0  0  0  0  0  0  0  0  0  0  0
   -1.4689   -1.6084   -2.2012 H   0  0  0  0  0  0  0  0  0  0  0  0
    0.2358   -2.7096   -0.8828 H   0  0  0  0  0  0  0  0  0  0  0  0
  1  2  1  0
  2  3  1  0
  3  4  1  0
  4  5  1  0
  5  6  2  0
  5  7  1  0
  7  8  1  0
  8  9  1  0
  4  2  1  0
  7  2  1  0
  1 10  1  0
  1 11  1  0
  1 12  1  0
  3 13  1  0
  3 14  1  0
  4 15  1  0
  7 16  1  0
  8 17  1  0
  8 18  1  0
  9 19  1  0
M  END
$$$$
