
     RDKit          3D

 19 20  0  0  0  0  0  0  0  0999 V2000
   -3.4463   -0.1137    0.8466 C   0  0  0  0  0  0  0  0  0  0  0  0
   -2.1841   -0.0592    0.0367 C   0  0  0  0  0  0  0  0  0  0  0  0
   -1.9707    0.8373   -1.1311 C   0  0  0  0  0  0  0  0  0  0  0  0
   -1.0428    1.0291    0.0701 C   0  0  0  0  0  0  0  0  0  0  0  0
   -0.9083    2.3310    0.8055 C   0  0  0  0  0  0  0  0  0  0  0  0
   -0.0423   -0.0761    0.0343 C   0  0  0  0  0  0  0  0  0  0  0  0
    1.1489   -0.1327    0.1886 O   0  0  0  0  0  0  0  0  0  0  0  0
   -1.1417   -1.1776   -0.0263 C   0  0  0  0  0  0  0  0  0  0  0  0
   -1.2268   -2.0199   -1.1535 O   0  0  0  0  0  0  0  0  0  0  0  0
   -3.2580   -0.4895    1.8580 H   0  0  0  0  0  0  0  0  0  0  0  0
   -3.9055    0.8765    0.9324 H   0  0  0  0  0  0  0  0  0  0  0  0
   -4.1808   -0.7770    0.3758 H   0  0  0  0  0  0  0  0  0  0  0  0
   -1.5959    0.4398   -2.0682 H   0  0  0  0  0  0  0  0  0  0  0  0
   -2.6905    1.6434   -1.2436 H   0  0  0  0  0  0  0  0  0  0  0  0
   -0.4879    2.1807    1.8048 H   0  0  0  0  0  0  0  0  0  0  0  0
   -0.2447    3.0155    0.2664 H   0  0  0  0  0  0  0  0  0  0  0  0
   -1.8783    2.8272    0.9125 H   0  0  0  0  0  0  0  0  0  0  0  0
   -1.1134   -1.7551    0.9127 H   0  0  0  0  0  0  0  0  0  0  0  0
   -0.3866   -2.4852   -1.2320 H   0  0  0  0  0  0  0  0  0  0  0  0
  1  2  1  0
  2  3  1  0
  3  4  1  0
  4  5  1  0
  4  6  1  0
  6  7  2  0
  6  8  1  0
  8  9  1  0
  4  2  1  0
  8  2  1  0
  1 10  1  0
  1 11  1  0
  1 12  1  0
  3 13  1  0
  3 14  1  0
  5 15  1  0
  5 16  1  0
  5 17  1  0
  8 18  1  0
  9 19  1  0
M  END
$$$$
