
     RDKit          3D

 19 20  0  0  0  0  0  0  0  0999 V2000
   -1.7190   -0.5831   -2.4722 C   0  0  0  0  0  0  0  0  0  0  0  0
   -1.9876   -1.1265   -1.0785 C   0  0  0  0  0  0  0  0  0  0  0  0
   -2.7093   -0.2579   -0.0083 C   0  0  0  0  0  0  0  0  0  0  0  0
   -1.9613   -1.0826    1.0680 C   0  0  0  0  0  0  0  0  0  0  0  0
   -0.8432   -1.2734   -0.0081 C   0  0  0  0  0  0  0  0  0  0  0  0
   -0.0230   -0.0075   -0.0191 C   0  0  0  0  0  0  0  0  0  0  0  0
    1.1801    0.0422   -0.0999 O   0  0  0  0  0  0  0  0  0  0  0  0
   -0.8654    1.2686    0.1234 C   0  0  0  0  0  0  0  0  0  0  0  0
   -2.2677    1.0907   -0.0500 O   0  0  0  0  0  0  0  0  0  0  0  0
   -1.0270   -1.2324   -3.0184 H   0  0  0  0  0  0  0  0  0  0  0  0
   -2.6498   -0.5285   -3.0466 H   0  0  0  0  0  0  0  0  0  0  0  0
   -1.2910    0.4223   -2.4486 H   0  0  0  0  0  0  0  0  0  0  0  0
   -2.4995   -2.0928   -1.1426 H   0  0  0  0  0  0  0  0  0  0  0  0
   -3.7996   -0.2134   -0.0001 H   0  0  0  0  0  0  0  0  0  0  0  0
   -1.7059   -0.5862    2.0070 H   0  0  0  0  0  0  0  0  0  0  0  0
   -2.4691   -2.0257    1.2790 H   0  0  0  0  0  0  0  0  0  0  0  0
   -0.2083   -2.1598   -0.0057 H   0  0  0  0  0  0  0  0  0  0  0  0
   -0.6592    1.6817    1.1226 H   0  0  0  0  0  0  0  0  0  0  0  0
   -0.5121    2.0049   -0.6058 H   0  0  0  0  0  0  0  0  0  0  0  0
  1  2  1  0
  2  3  1  0
  3  4  1  0
  4  5  1  0
  5  6  1  0
  6  7  2  0
  6  8  1  0
  8  9  1  0
  5  2  1  0
  9  3  1  0
  1 10  1  0
  1 11  1  0
  1 12  1  0
  2 13  1  0
  3 14  1  0
  4 15  1  0
  4 16  1  0
  5 17  1  0
  8 18  1  0
  8 19  1  0
M  END
$$$$
