
     RDKit          3D

 19 21  0  0  0  0  0  0  0  0999 V2000
   -0.2710   -3.0655    0.1979 C   0  0  0  0  0  0  0  0  0  0  0  0
   -1.0055   -2.1044   -0.6776 C   0  0  0  0  0  0  0  0  0  0  0  0
   -2.4967   -2.0842   -1.0632 C   0  0  0  0  0  0  0  0  0  0  0  0
   -2.3862   -0.5311   -1.2524 C   0  0  0  0  0  0  0  0  0  0  0  0
   -0.8988   -0.6392   -0.8725 C   0  0  0  0  0  0  0  0  0  0  0  0
   -0.3029   -1.5462   -1.8068 O   0  0  0  0  0  0  0  0  0  0  0  0
   -0.0373    0.3922   -0.2421 C   0  0  0  0  0  0  0  0  0  0  0  0
    1.2438    0.8005   -0.8393 C   0  0  0  0  0  0  0  0  0  0  0  0
    1.2048   -0.0501    0.3082 O   0  0  0  0  0  0  0  0  0  0  0  0
   -0.1837   -4.0425   -0.2916 H   0  0  0  0  0  0  0  0  0  0  0  0
    0.7299   -2.6849    0.4086 H   0  0  0  0  0  0  0  0  0  0  0  0
   -0.8030   -3.2109    1.1437 H   0  0  0  0  0  0  0  0  0  0  0  0
   -2.7499   -2.6713   -1.9492 H   0  0  0  0  0  0  0  0  0  0  0  0
   -3.1601   -2.3609   -0.2401 H   0  0  0  0  0  0  0  0  0  0  0  0
   -2.5779   -0.1399   -2.2543 H   0  0  0  0  0  0  0  0  0  0  0  0
   -2.9812    0.0238   -0.5225 H   0  0  0  0  0  0  0  0  0  0  0  0
   -0.5745    1.1112    0.3778 H   0  0  0  0  0  0  0  0  0  0  0  0
    1.5627    0.3167   -1.7593 H   0  0  0  0  0  0  0  0  0  0  0  0
    1.6261    1.8047   -0.6629 H   0  0  0  0  0  0  0  0  0  0  0  0
  1  2  1  0
  2  3  1  0
  3  4  1  0
  4  5  1  0
  5  6  1  0
  5  7  1  0
  7  8  1  0
  8  9  1  0
  5  2  1  0
  9  7  1  0
  6  2  1  0
  1 10  1  0
  1 11  1  0
  1 12  1  0
  3 13  1  0
  3 14  1  0
  4 15  1  0
  4 16  1  0
  7 17  1  0
  8 18  1  0
  8 19  1  0
M  END
$$$$
