gdb 2541	2.9417628	1.5686744	1.3177201	1.7897	75.98	-0.23599	0.01073	0.24672	1051.375	0.156822	-422.566452	-422.558291	-422.557347	-422.598621	31.755
 OpenBabel02181911413D

 19 20  0  0  1  0  0  0  0  0999 V2000
    1.3139    0.7949    0.2465 C   0  0  0  0  0  0  0  0  0  0  0  0
   -0.0490    0.2325    0.0381 C   0  0  0  0  0  0  0  0  0  0  0  0
   -1.2580    0.8002    0.0547 C   0  0  0  0  0  0  0  0  0  0  0  0
   -2.2606   -0.3456   -0.0536 C   0  0  2  0  0  0  0  0  0  0  0  0
   -3.6408   -0.0796   -0.5954 C   0  0  0  0  0  0  0  0  0  0  0  0
   -2.1494   -1.1142    1.3082 C   0  0  0  0  0  0  0  0  0  0  0  0
   -0.8338   -1.6714    1.2397 O   0  0  0  0  0  0  0  0  0  0  0  0
   -0.3657   -1.2630   -0.0712 C   0  0  1  0  0  0  0  0  0  0  0  0
   -1.5220   -1.2946   -0.8647 O   0  0  0  0  0  0  0  0  0  0  0  0
    1.7777    0.3612    1.1414 H   0  0  0  0  0  0  0  0  0  0  0  0
    1.9768    0.5623   -0.5962 H   0  0  0  0  0  0  0  0  0  0  0  0
    1.2874    1.8808    0.3701 H   0  0  0  0  0  0  0  0  0  0  0  0
   -1.5170    1.8328    0.2497 H   0  0  0  0  0  0  0  0  0  0  0  0
   -4.1839    0.6042    0.0645 H   0  0  0  0  0  0  0  0  0  0  0  0
   -3.5817    0.3754   -1.5878 H   0  0  0  0  0  0  0  0  0  0  0  0
   -4.2100   -1.0104   -0.6719 H   0  0  0  0  0  0  0  0  0  0  0  0
   -2.2495   -0.4600    2.1804 H   0  0  0  0  0  0  0  0  0  0  0  0
   -2.8896   -1.9211    1.3605 H   0  0  0  0  0  0  0  0  0  0  0  0
    0.4006   -1.9571   -0.4134 H   0  0  0  0  0  0  0  0  0  0  0  0
  1 12  1  0  0  0  0
  1 10  1  0  0  0  0
  2  3  2  0  0  0  0
  2  1  1  0  0  0  0
  3 13  1  0  0  0  0
  4  5  1  6  0  0  0
  4  3  1  0  0  0  0
  4  6  1  0  0  0  0
  5 14  1  0  0  0  0
  6 18  1  0  0  0  0
  6 17  1  0  0  0  0
  7  6  1  0  0  0  0
  8 19  1  6  0  0  0
  8  2  1  0  0  0  0
  8  7  1  0  0  0  0
  9  8  1  0  0  0  0
  9  4  1  0  0  0  0
 11  1  1  0  0  0  0
 15  5  1  0  0  0  0
 16  5  1  0  0  0  0
M TOR 0 0 1 2 3
M TOR 1 0 1 2 12
M TOR 2 0 1 7 6
M TOR 3 0 1 7 8
M TOR 4 0 1 7 18
M TOR 5 1 2 3 4
M TOR 6 1 2 3 5
M TOR 7 1 2 3 8
M TOR 8 1 7 6 5
M TOR 9 1 7 8 3
M TOR 10 2 1 0 9
M TOR 11 2 1 0 10
M TOR 12 2 1 0 11
M TOR 13 2 1 7 6
M TOR 14 2 1 7 8
M TOR 15 2 1 7 18
M TOR 16 2 3 4 13
M TOR 17 2 3 4 14
M TOR 18 2 3 4 15
M TOR 19 2 3 5 6
M TOR 20 2 3 5 16
M TOR 21 2 3 5 17
M TOR 22 2 3 8 7
M TOR 23 3 2 1 7
M TOR 24 3 5 6 7
M TOR 25 3 8 7 6
M TOR 26 3 8 7 18
M TOR 27 4 3 2 12
M TOR 28 4 3 5 6
M TOR 29 4 3 5 16
M TOR 30 4 3 5 17
M TOR 31 4 3 8 7
M TOR 32 5 3 2 12
M TOR 33 5 3 4 13
M TOR 34 5 3 4 14
M TOR 35 5 3 4 15
M TOR 36 5 3 8 7
M TOR 37 5 6 7 8
M TOR 38 5 6 7 18
M TOR 39 6 5 3 8
M TOR 40 7 1 0 9
M TOR 41 7 1 0 10
M TOR 42 7 1 0 11
M TOR 43 7 1 2 12
M TOR 44 7 6 5 16
M TOR 45 7 6 5 17
M TOR 46 8 3 2 12
M TOR 47 8 3 4 13
M TOR 48 8 3 4 14
M TOR 49 8 3 4 15
M TOR 50 8 3 5 16
M TOR 51 8 3 5 17
M  END
$$$$
