gdb 5029	2.1814756	1.5082166	1.3652075	2.1952	76.13	-0.22727	0.00935	0.23662	1097.0729	0.155353	-422.519485	-422.510349	-422.509405	-422.553408	33.308
 OpenBabel02181911413D

 19 20  0  0  1  0  0  0  0  0999 V2000
    1.3392   -0.1843   -0.1028 C   0  0  0  0  0  0  0  0  0  0  0  0
   -0.0735   -0.0778    0.0438 O   0  0  0  0  0  0  0  0  0  0  0  0
   -0.4633    0.5910    1.1665 C   0  0  2  0  0  0  0  0  0  0  0  0
   -0.3725    0.1562    2.6880 C   0  0  0  0  0  0  0  0  0  0  0  0
   -1.1407    1.5159    2.7269 C   0  0  2  0  0  0  0  0  0  0  0  0
   -1.9409    0.9991    1.4728 C   0  0  1  0  0  0  0  0  0  0  0  0
   -2.6684    1.9673    0.5565 C   0  0  0  0  0  0  0  0  0  0  0  0
   -0.0916    1.9927    1.7079 C   0  0  0  0  0  0  0  0  0  0  0  0
    0.6244    2.9194    1.4785 O   0  0  0  0  0  0  0  0  0  0  0  0
    1.7777   -0.7922    0.7001 H   0  0  0  0  0  0  0  0  0  0  0  0
    1.5190   -0.6767   -1.0600 H   0  0  0  0  0  0  0  0  0  0  0  0
    1.8127    0.8042   -0.1037 H   0  0  0  0  0  0  0  0  0  0  0  0
   -0.9823   -0.7154    2.9343 H   0  0  0  0  0  0  0  0  0  0  0  0
    0.6106    0.1216    3.1597 H   0  0  0  0  0  0  0  0  0  0  0  0
   -1.5332    2.0253    3.6006 H   0  0  0  0  0  0  0  0  0  0  0  0
   -2.5545    0.1273    1.7210 H   0  0  0  0  0  0  0  0  0  0  0  0
   -3.5992    2.3137    1.0172 H   0  0  0  0  0  0  0  0  0  0  0  0
   -2.0593    2.8469    0.3245 H   0  0  0  0  0  0  0  0  0  0  0  0
   -2.9247    1.4786   -0.3887 H   0  0  0  0  0  0  0  0  0  0  0  0
  1  2  1  0  0  0  0
  1 10  1  0  0  0  0
  3  2  1  6  0  0  0
  3  6  1  0  0  0  0
  3  8  1  0  0  0  0
  3  4  1  0  0  0  0
  4  5  1  0  0  0  0
  4 13  1  0  0  0  0
  4 14  1  0  0  0  0
  5 15  1  1  0  0  0
  6 16  1  1  0  0  0
  6  5  1  0  0  0  0
  7 17  1  0  0  0  0
  7  6  1  0  0  0  0
  8  5  1  0  0  0  0
  9  8  2  0  0  0  0
 11  1  1  0  0  0  0
 12  1  1  0  0  0  0
 18  7  1  0  0  0  0
 19  7  1  0  0  0  0
M TOR 0 0 1 2 3
M TOR 1 0 1 2 5
M TOR 2 0 1 2 7
M TOR 3 1 2 3 4
M TOR 4 1 2 3 12
M TOR 5 1 2 3 13
M TOR 6 1 2 5 4
M TOR 7 1 2 5 6
M TOR 8 1 2 5 15
M TOR 9 1 2 7 4
M TOR 10 1 2 7 8
M TOR 11 2 1 0 9
M TOR 12 2 1 0 10
M TOR 13 2 1 0 11
M TOR 14 2 3 4 5
M TOR 15 2 3 4 7
M TOR 16 2 3 4 14
M TOR 17 2 5 4 7
M TOR 18 2 5 4 14
M TOR 19 2 5 6 16
M TOR 20 2 5 6 17
M TOR 21 2 5 6 18
M TOR 22 2 7 4 14
M TOR 23 3 2 5 6
M TOR 24 3 2 5 15
M TOR 25 3 2 7 8
M TOR 26 3 4 5 6
M TOR 27 3 4 5 15
M TOR 28 3 4 7 8
M TOR 29 4 5 6 16
M TOR 30 4 5 6 17
M TOR 31 4 5 6 18
M TOR 32 5 2 3 12
M TOR 33 5 2 3 13
M TOR 34 5 2 7 8
M TOR 35 5 4 3 12
M TOR 36 5 4 3 13
M TOR 37 5 4 7 8
M TOR 38 6 5 2 7
M TOR 39 6 5 4 7
M TOR 40 6 5 4 14
M TOR 41 7 2 3 12
M TOR 42 7 2 3 13
M TOR 43 7 2 5 15
M TOR 44 7 4 3 12
M TOR 45 7 4 3 13
M TOR 46 7 4 5 15
M TOR 47 8 7 4 14
M  END
$$$$
