
     RDKit          3D

 19 20  0  0  0  0  0  0  0  0999 V2000
    0.0841    1.2771    0.2748 O   0  0  0  0  0  0  0  0  0  0  0  0
   -0.0077   -0.0824   -0.1232 C   0  0  0  0  0  0  0  0  0  0  0  0
   -1.4611   -0.4941   -0.0122 C   0  0  0  0  0  0  0  0  0  0  0  0
   -2.1136   -0.6635    1.4166 C   0  0  0  0  0  0  0  0  0  0  0  0
   -2.8665   -1.9294    0.8644 C   0  0  0  0  0  0  0  0  0  0  0  0
   -2.8412   -3.1981    1.4883 O   0  0  0  0  0  0  0  0  0  0  0  0
   -2.0711   -4.0777    0.6460 C   0  0  0  0  0  0  0  0  0  0  0  0
   -1.2835   -3.1661   -0.2866 C   0  0  0  0  0  0  0  0  0  0  0  0
   -1.8184   -1.9540   -0.1990 C   0  0  0  0  0  0  0  0  0  0  0  0
    1.0081    1.5407    0.2385 H   0  0  0  0  0  0  0  0  0  0  0  0
    0.3360   -0.2216   -1.1614 H   0  0  0  0  0  0  0  0  0  0  0  0
    0.6050   -0.7350    0.5185 H   0  0  0  0  0  0  0  0  0  0  0  0
   -2.0743    0.1766   -0.6239 H   0  0  0  0  0  0  0  0  0  0  0  0
   -1.3633   -0.9491    2.1571 H   0  0  0  0  0  0  0  0  0  0  0  0
   -2.7202    0.1650    1.7866 H   0  0  0  0  0  0  0  0  0  0  0  0
   -3.8879   -1.6740    0.5483 H   0  0  0  0  0  0  0  0  0  0  0  0
   -1.4045   -4.6786    1.2788 H   0  0  0  0  0  0  0  0  0  0  0  0
   -2.7425   -4.7760    0.1202 H   0  0  0  0  0  0  0  0  0  0  0  0
   -0.3748   -3.4782   -0.7854 H   0  0  0  0  0  0  0  0  0  0  0  0
  1  2  1  0
  2  3  1  0
  3  4  1  0
  4  5  1  0
  5  6  1  0
  6  7  1  0
  7  8  1  0
  8  9  2  0
  9  3  1  0
  9  5  1  0
  1 10  1  0
  2 11  1  0
  2 12  1  0
  3 13  1  0
  4 14  1  0
  4 15  1  0
  5 16  1  0
  7 17  1  0
  7 18  1  0
  8 19  1  0
M  END
$$$$
