
     RDKit          3D

 19 20  0  0  0  0  0  0  0  0999 V2000
   -1.0106    2.0358    1.1696 C   0  0  0  0  0  0  0  0  0  0  0  0
   -1.0101    1.0209    0.0362 C   0  0  0  0  0  0  0  0  0  0  0  0
   -1.1172    1.6481   -1.3748 C   0  0  0  0  0  0  0  0  0  0  0  0
   -1.7759    0.6960   -2.1950 O   0  0  0  0  0  0  0  0  0  0  0  0
   -2.7637    0.0767   -1.3778 C   0  0  0  0  0  0  0  0  0  0  0  0
   -2.0799   -0.1391   -0.0291 C   0  0  0  0  0  0  0  0  0  0  0  0
   -0.9435   -1.2077   -0.0301 C   0  0  0  0  0  0  0  0  0  0  0  0
    0.0741   -0.0708    0.1225 C   0  0  0  0  0  0  0  0  0  0  0  0
    1.2561   -0.0260    0.3094 O   0  0  0  0  0  0  0  0  0  0  0  0
   -0.9996    1.5449    2.1476 H   0  0  0  0  0  0  0  0  0  0  0  0
   -0.1215    2.6723    1.1127 H   0  0  0  0  0  0  0  0  0  0  0  0
   -1.8953    2.6797    1.1210 H   0  0  0  0  0  0  0  0  0  0  0  0
   -1.7027    2.5808   -1.3089 H   0  0  0  0  0  0  0  0  0  0  0  0
   -0.1485    1.8756   -1.8275 H   0  0  0  0  0  0  0  0  0  0  0  0
   -3.6443    0.7310   -1.2664 H   0  0  0  0  0  0  0  0  0  0  0  0
   -3.0763   -0.8456   -1.8753 H   0  0  0  0  0  0  0  0  0  0  0  0
   -2.7717   -0.2053    0.8111 H   0  0  0  0  0  0  0  0  0  0  0  0
   -0.9448   -1.9242    0.7960 H   0  0  0  0  0  0  0  0  0  0  0  0
   -0.8351   -1.7580   -0.9706 H   0  0  0  0  0  0  0  0  0  0  0  0
  1  2  1  0
  2  3  1  0
  3  4  1  0
  4  5  1  0
  5  6  1  0
  6  7  1  0
  7  8  1  0
  8  9  2  0
  6  2  1  0
  8  2  1  0
  1 10  1  0
  1 11  1  0
  1 12  1  0
  3 13  1  0
  3 14  1  0
  5 15  1  0
  5 16  1  0
  6 17  1  0
  7 18  1  0
  7 19  1  0
M  END
$$$$
