gdb 834	4.6410308	0.8916874	0.8625086	2.1953	76.32	-0.24928	-0.02652	0.22276	1364.9873	0.155956	-422.527625	-422.518885	-422.517941	-422.562462	31.168
 OpenBabel02181911403D

 19 20  0  0  0  0  0  0  0  0999 V2000
    1.0938   -0.3775   -0.1033 O   0  0  0  0  0  0  0  0  0  0  0  0
   -0.0363   -0.2684   -0.5095 C   0  0  0  0  0  0  0  0  0  0  0  0
   -0.7574    1.0375   -0.6924 C   0  0  0  0  0  0  0  0  0  0  0  0
   -1.7776    1.3958    0.4484 C   0  0  0  0  0  0  0  0  0  0  0  0
   -1.1970    2.8318    0.4648 C   0  0  0  0  0  0  0  0  0  0  0  0
   -2.0629    4.0124   -0.0277 C   0  0  0  0  0  0  0  0  0  0  0  0
   -1.8979    4.7159    1.2179 O   0  0  0  0  0  0  0  0  0  0  0  0
   -1.0625    3.6668    1.7490 C   0  0  0  0  0  0  0  0  0  0  0  0
    0.0071    2.3436   -0.3742 C   0  0  0  0  0  0  0  0  0  0  0  0
   -0.6463   -1.1714   -0.7447 H   0  0  0  0  0  0  0  0  0  0  0  0
   -1.2527    1.0403   -1.6690 H   0  0  0  0  0  0  0  0  0  0  0  0
   -2.8403    1.2907    0.2172 H   0  0  0  0  0  0  0  0  0  0  0  0
   -1.5636    0.8545    1.3755 H   0  0  0  0  0  0  0  0  0  0  0  0
   -1.6509    4.5757   -0.8761 H   0  0  0  0  0  0  0  0  0  0  0  0
   -3.1169    3.7792   -0.2323 H   0  0  0  0  0  0  0  0  0  0  0  0
   -0.0471    4.0206    1.9726 H   0  0  0  0  0  0  0  0  0  0  0  0
   -1.4910    3.2164    2.6546 H   0  0  0  0  0  0  0  0  0  0  0  0
    0.3017    2.9683   -1.2210 H   0  0  0  0  0  0  0  0  0  0  0  0
    0.8912    2.1318    0.2335 H   0  0  0  0  0  0  0  0  0  0  0  0
  2  1  2  0  0  0  0
  3  2  1  0  0  0  0
  3  9  1  0  0  0  0
  3  4  1  0  0  0  0
  4  5  1  0  0  0  0
  4 13  1  0  0  0  0
  5  8  1  0  0  0  0
  6  5  1  0  0  0  0
  6  7  1  0  0  0  0
  7  8  1  0  0  0  0
  8 16  1  0  0  0  0
  8 17  1  0  0  0  0
  9 19  1  0  0  0  0
  9  5  1  0  0  0  0
 10  2  1  0  0  0  0
 11  3  1  0  0  0  0
 12  4  1  0  0  0  0
 14  6  1  0  0  0  0
 15  6  1  0  0  0  0
 18  9  1  0  0  0  0
M TOR 0 0 1 2 3
M TOR 1 0 1 2 8
M TOR 2 0 1 2 10
M TOR 3 1 2 3 4
M TOR 4 1 2 3 11
M TOR 5 1 2 3 12
M TOR 6 1 2 8 4
M TOR 7 1 2 8 17
M TOR 8 1 2 8 18
M TOR 9 2 3 4 5
M TOR 10 2 3 4 7
M TOR 11 2 3 4 8
M TOR 12 2 8 4 5
M TOR 13 2 8 4 7
M TOR 14 3 2 1 9
M TOR 15 3 2 8 17
M TOR 16 3 2 8 18
M TOR 17 3 4 5 6
M TOR 18 3 4 5 13
M TOR 19 3 4 5 14
M TOR 20 3 4 7 6
M TOR 21 3 4 7 15
M TOR 22 3 4 7 16
M TOR 23 3 4 8 17
M TOR 24 3 4 8 18
M TOR 25 4 3 2 10
M TOR 26 4 5 6 7
M TOR 27 4 8 2 10
M TOR 28 5 4 3 11
M TOR 29 5 4 3 12
M TOR 30 5 4 7 15
M TOR 31 5 4 7 16
M TOR 32 5 4 8 17
M TOR 33 5 4 8 18
M TOR 34 5 6 7 15
M TOR 35 5 6 7 16
M TOR 36 6 5 4 8
M TOR 37 6 7 4 8
M TOR 38 7 4 3 11
M TOR 39 7 4 3 12
M TOR 40 7 4 5 13
M TOR 41 7 4 5 14
M TOR 42 7 4 8 17
M TOR 43 7 4 8 18
M TOR 44 7 6 5 13
M TOR 45 7 6 5 14
M TOR 46 8 2 1 9
M TOR 47 8 2 3 11
M TOR 48 8 2 3 12
M TOR 49 8 4 3 11
M TOR 50 8 4 3 12
M TOR 51 8 4 5 13
M TOR 52 8 4 5 14
M TOR 53 8 4 7 15
M TOR 54 8 4 7 16
M  END
$$$$
