
     RDKit          3D

 19 21  0  0  0  0  0  0  0  0999 V2000
    1.4690   -0.1769   -0.0702 C   0  0  0  0  0  0  0  0  0  0  0  0
    0.1007    0.1498   -0.0859 O   0  0  0  0  0  0  0  0  0  0  0  0
   -0.3472    0.8009    1.0870 C   0  0  0  0  0  0  0  0  0  0  0  0
    0.0103    2.3228    1.1598 C   0  0  0  0  0  0  0  0  0  0  0  0
   -1.3184    3.0089    0.8725 C   0  0  0  0  0  0  0  0  0  0  0  0
   -1.7424    2.6049   -0.4722 O   0  0  0  0  0  0  0  0  0  0  0  0
   -2.6053    1.6375    0.1184 C   0  0  0  0  0  0  0  0  0  0  0  0
   -2.4216    2.1326    1.5164 C   0  0  0  0  0  0  0  0  0  0  0  0
   -1.8681    0.7755    1.1276 C   0  0  0  0  0  0  0  0  0  0  0  0
    1.7246   -0.8206    0.7875 H   0  0  0  0  0  0  0  0  0  0  0  0
    1.6831   -0.7198   -0.9942 H   0  0  0  0  0  0  0  0  0  0  0  0
    2.1156    0.7134   -0.0315 H   0  0  0  0  0  0  0  0  0  0  0  0
    0.0613    0.2733    1.9637 H   0  0  0  0  0  0  0  0  0  0  0  0
    0.3770    2.5967    2.1557 H   0  0  0  0  0  0  0  0  0  0  0  0
    0.7710    2.5923    0.4225 H   0  0  0  0  0  0  0  0  0  0  0  0
   -1.3562    4.0927    0.9948 H   0  0  0  0  0  0  0  0  0  0  0  0
   -3.4725    1.3141   -0.4446 H   0  0  0  0  0  0  0  0  0  0  0  0
   -3.1027    2.3661    2.3224 H   0  0  0  0  0  0  0  0  0  0  0  0
   -2.3802   -0.1195    1.4623 H   0  0  0  0  0  0  0  0  0  0  0  0
  1  2  1  0
  2  3  1  0
  3  4  1  0
  4  5  1  0
  5  6  1  0
  6  7  1  0
  7  8  1  0
  8  9  1  0
  9  3  1  0
  8  5  1  0
  9  7  1  0
  1 10  1  0
  1 11  1  0
  1 12  1  0
  3 13  1  0
  4 14  1  0
  4 15  1  0
  5 16  1  0
  7 17  1  0
  8 18  1  0
  9 19  1  0
M  END
$$$$
