gdb 4166	3.4030222	1.3482131	1.2947319	0.2644	74.9	-0.25554	0.08044	0.33598	1072.2904	0.15743	-422.515678	-422.507931	-422.506987	-422.547616	30.432
 OpenBabel02181911413D

 19 21  0  0  1  0  0  0  0  0999 V2000
    2.7235   -2.0479   -3.2825 C   0  0  0  0  0  0  0  0  0  0  0  0
    2.0190   -2.1027   -1.9301 C   0  0  2  0  0  0  0  0  0  0  0  0
    2.4617   -0.9821   -0.9215 C   0  0  0  0  0  0  0  0  0  0  0  0
    3.0045   -1.8955    0.1944 C   0  0  2  0  0  0  0  0  0  0  0  0
    3.7551   -2.9034   -0.5593 O   0  0  0  0  0  0  0  0  0  0  0  0
    2.4425   -3.3145   -1.0640 C   0  0  1  0  0  0  0  0  0  0  0  0
    1.9014   -2.9499    0.3192 C   0  0  1  0  0  0  0  0  0  0  0  0
    1.4059   -3.7393    1.4308 C   0  0  0  0  0  0  0  0  0  0  0  0
    0.5693   -2.7851    0.7278 O   0  0  0  0  0  0  0  0  0  0  0  0
    2.4018   -2.8681   -3.9338 H   0  0  0  0  0  0  0  0  0  0  0  0
    2.5077   -1.1074   -3.8000 H   0  0  0  0  0  0  0  0  0  0  0  0
    3.8071   -2.1212   -3.1492 H   0  0  0  0  0  0  0  0  0  0  0  0
    0.9325   -2.1010   -2.0647 H   0  0  0  0  0  0  0  0  0  0  0  0
    3.2471   -0.3417   -1.3304 H   0  0  0  0  0  0  0  0  0  0  0  0
    1.6324   -0.3569   -0.5811 H   0  0  0  0  0  0  0  0  0  0  0  0
    3.5460   -1.4675    1.0371 H   0  0  0  0  0  0  0  0  0  0  0  0
    2.4180   -4.3162   -1.4928 H   0  0  0  0  0  0  0  0  0  0  0  0
    1.1364   -4.7835    1.2828 H   0  0  0  0  0  0  0  0  0  0  0  0
    1.6588   -3.4633    2.4529 H   0  0  0  0  0  0  0  0  0  0  0  0
  1 12  1  0  0  0  0
  1  2  1  0  0  0  0
  2 13  1  6  0  0  0
  2  6  1  0  0  0  0
  2  3  1  0  0  0  0
  3 15  1  0  0  0  0
  3  4  1  0  0  0  0
  4  7  1  0  0  0  0
  4 16  1  1  0  0  0
  5  4  1  0  0  0  0
  6 17  1  6  0  0  0
  6  5  1  0  0  0  0
  6  7  1  0  0  0  0
  7  9  1  6  0  0  0
  7  8  1  0  0  0  0
  8 19  1  0  0  0  0
  9  8  1  0  0  0  0
 10  1  1  0  0  0  0
 11  1  1  0  0  0  0
 14  3  1  0  0  0  0
 18  8  1  0  0  0  0
M TOR 0 0 1 2 3
M TOR 1 0 1 2 13
M TOR 2 0 1 2 14
M TOR 3 0 1 5 4
M TOR 4 0 1 5 6
M TOR 5 0 1 5 16
M TOR 6 1 2 3 4
M TOR 7 1 2 3 6
M TOR 8 1 2 3 15
M TOR 9 1 5 4 3
M TOR 10 1 5 6 3
M TOR 11 1 5 6 7
M TOR 12 1 5 6 8
M TOR 13 2 1 0 9
M TOR 14 2 1 0 10
M TOR 15 2 1 0 11
M TOR 16 2 1 5 4
M TOR 17 2 1 5 6
M TOR 18 2 1 5 16
M TOR 19 2 3 4 5
M TOR 20 2 3 6 5
M TOR 21 2 3 6 7
M TOR 22 2 3 6 8
M TOR 23 3 2 1 5
M TOR 24 3 2 1 12
M TOR 25 3 4 5 6
M TOR 26 3 4 5 16
M TOR 27 3 6 5 16
M TOR 28 3 6 7 8
M TOR 29 3 6 7 17
M TOR 30 3 6 7 18
M TOR 31 4 3 2 13
M TOR 32 4 3 2 14
M TOR 33 4 3 6 7
M TOR 34 4 3 6 8
M TOR 35 4 5 1 12
M TOR 36 4 5 6 7
M TOR 37 4 5 6 8
M TOR 38 5 1 0 9
M TOR 39 5 1 0 10
M TOR 40 5 1 0 11
M TOR 41 5 1 2 13
M TOR 42 5 1 2 14
M TOR 43 5 4 3 15
M TOR 44 5 6 3 15
M TOR 45 5 6 7 8
M TOR 46 5 6 7 17
M TOR 47 5 6 7 18
M TOR 48 6 3 2 13
M TOR 49 6 3 2 14
M TOR 50 6 5 1 12
M TOR 51 6 8 7 17
M TOR 52 6 8 7 18
M TOR 53 7 6 3 15
M TOR 54 7 6 5 16
M TOR 55 8 6 3 15
M TOR 56 8 6 5 16
M  END
$$$$
