
     RDKit          3D

 19 21  0  0  0  0  0  0  0  0999 V2000
    0.2590    0.3615   -0.1601 O   0  0  0  0  0  0  0  0  0  0  0  0
   -0.4918    0.9077    0.8930 C   0  0  0  0  0  0  0  0  0  0  0  0
   -1.1189   -0.0562    1.9246 C   0  0  0  0  0  0  0  0  0  0  0  0
   -2.3975    0.5924    1.8049 O   0  0  0  0  0  0  0  0  0  0  0  0
   -1.9667    1.3861    0.6701 C   0  0  0  0  0  0  0  0  0  0  0  0
   -2.0783    2.8871    0.9484 C   0  0  0  0  0  0  0  0  0  0  0  0
   -0.7220    3.2838    1.5365 C   0  0  0  0  0  0  0  0  0  0  0  0
    0.4459    3.2732    0.5855 C   0  0  0  0  0  0  0  0  0  0  0  0
    0.2218    2.0958    1.4987 C   0  0  0  0  0  0  0  0  0  0  0  0
   -0.2212   -0.3943   -0.5151 H   0  0  0  0  0  0  0  0  0  0  0  0
   -1.1503   -1.1018    1.5808 H   0  0  0  0  0  0  0  0  0  0  0  0
   -0.7290   -0.0292    2.9489 H   0  0  0  0  0  0  0  0  0  0  0  0
   -2.4546    1.0535   -0.2553 H   0  0  0  0  0  0  0  0  0  0  0  0
   -2.3112    3.4543    0.0399 H   0  0  0  0  0  0  0  0  0  0  0  0
   -2.8933    3.0531    1.6591 H   0  0  0  0  0  0  0  0  0  0  0  0
   -0.6973    3.9725    2.3729 H   0  0  0  0  0  0  0  0  0  0  0  0
    0.2531    3.1415   -0.4745 H   0  0  0  0  0  0  0  0  0  0  0  0
    1.2908    3.9157    0.8069 H   0  0  0  0  0  0  0  0  0  0  0  0
    0.9311    1.9116    2.2982 H   0  0  0  0  0  0  0  0  0  0  0  0
  1  2  1  0
  2  3  1  0
  3  4  1  0
  4  5  1  0
  5  6  1  0
  6  7  1  0
  7  8  1  0
  8  9  1  0
  5  2  1  0
  9  7  1  0
  9  2  1  0
  1 10  1  0
  3 11  1  0
  3 12  1  0
  5 13  1  0
  6 14  1  0
  6 15  1  0
  7 16  1  0
  8 17  1  0
  8 18  1  0
  9 19  1  0
M  END
$$$$
