
     RDKit          3D

 19 21  0  0  0  0  0  0  0  0999 V2000
    2.6716    1.3749    0.3385 C   0  0  0  0  0  0  0  0  0  0  0  0
    1.7986    0.1506    0.1957 C   0  0  0  0  0  0  0  0  0  0  0  0
    2.1018   -0.9644   -0.7785 C   0  0  0  0  0  0  0  0  0  0  0  0
    1.0564   -1.9031   -1.3273 C   0  0  0  0  0  0  0  0  0  0  0  0
    0.3108   -2.3585   -0.0298 C   0  0  0  0  0  0  0  0  0  0  0  0
    1.2016   -2.1530    1.0884 O   0  0  0  0  0  0  0  0  0  0  0  0
    2.1691   -1.2355    0.6922 C   0  0  0  0  0  0  0  0  0  0  0  0
    3.6322   -1.5938    0.4291 C   0  0  0  0  0  0  0  0  0  0  0  0
    3.5180   -1.1727   -0.9637 O   0  0  0  0  0  0  0  0  0  0  0  0
    2.6356    1.7666    1.3599 H   0  0  0  0  0  0  0  0  0  0  0  0
    3.7097    1.1456    0.0878 H   0  0  0  0  0  0  0  0  0  0  0  0
    2.3363    2.1661   -0.3402 H   0  0  0  0  0  0  0  0  0  0  0  0
    0.7319    0.3339    0.3000 H   0  0  0  0  0  0  0  0  0  0  0  0
    0.3615   -1.4713   -2.0528 H   0  0  0  0  0  0  0  0  0  0  0  0
    1.5699   -2.7439   -1.8020 H   0  0  0  0  0  0  0  0  0  0  0  0
   -0.6010   -1.7652    0.1185 H   0  0  0  0  0  0  0  0  0  0  0  0
    0.0253   -3.4144   -0.0461 H   0  0  0  0  0  0  0  0  0  0  0  0
    4.4124   -1.0422    0.9645 H   0  0  0  0  0  0  0  0  0  0  0  0
    3.8103   -2.6716    0.5049 H   0  0  0  0  0  0  0  0  0  0  0  0
  1  2  1  0
  2  3  1  0
  3  4  1  0
  4  5  1  0
  5  6  1  0
  6  7  1  0
  7  8  1  0
  8  9  1  0
  7  2  1  0
  7  3  1  0
  9  3  1  0
  1 10  1  0
  1 11  1  0
  1 12  1  0
  2 13  1  0
  4 14  1  0
  4 15  1  0
  5 16  1  0
  5 17  1  0
  8 18  1  0
  8 19  1  0
M  END
$$$$
