
     RDKit          3D

 19 21  0  0  0  0  0  0  0  0999 V2000
   -0.0793    0.0937    0.1815 C   0  0  0  0  0  0  0  0  0  0  0  0
    1.4163    0.1155    0.0625 C   0  0  0  0  0  0  0  0  0  0  0  0
    2.2454    1.2601   -0.5310 C   0  0  0  0  0  0  0  0  0  0  0  0
    3.4618    0.7548    0.3082 C   0  0  0  0  0  0  0  0  0  0  0  0
    4.3013   -0.1138   -0.4517 O   0  0  0  0  0  0  0  0  0  0  0  0
    3.4905   -1.2188   -0.8488 C   0  0  0  0  0  0  0  0  0  0  0  0
    2.2501   -1.1545    0.0467 C   0  0  0  0  0  0  0  0  0  0  0  0
    1.5468   -2.3272    0.2978 O   0  0  0  0  0  0  0  0  0  0  0  0
    2.5003   -0.1304    1.1258 C   0  0  0  0  0  0  0  0  0  0  0  0
   -0.4432    0.9888    0.6984 H   0  0  0  0  0  0  0  0  0  0  0  0
   -0.5487    0.0689   -0.8093 H   0  0  0  0  0  0  0  0  0  0  0  0
   -0.4164   -0.7885    0.7302 H   0  0  0  0  0  0  0  0  0  0  0  0
    2.3880    1.3111   -1.6161 H   0  0  0  0  0  0  0  0  0  0  0  0
    1.8817    2.2264   -0.1677 H   0  0  0  0  0  0  0  0  0  0  0  0
    4.0913    1.4944    0.7998 H   0  0  0  0  0  0  0  0  0  0  0  0
    3.2472   -1.1606   -1.9186 H   0  0  0  0  0  0  0  0  0  0  0  0
    4.0424   -2.1528   -0.6773 H   0  0  0  0  0  0  0  0  0  0  0  0
    2.1037   -2.9045    0.8324 H   0  0  0  0  0  0  0  0  0  0  0  0
    2.4424   -0.3139    2.1910 H   0  0  0  0  0  0  0  0  0  0  0  0
  1  2  1  0
  2  3  1  0
  3  4  1  0
  4  5  1  0
  5  6  1  0
  6  7  1  0
  7  8  1  0
  7  9  1  0
  7  2  1  0
  9  2  1  0
  9  4  1  0
  1 10  1  0
  1 11  1  0
  1 12  1  0
  3 13  1  0
  3 14  1  0
  4 15  1  0
  6 16  1  0
  6 17  1  0
  8 18  1  0
  9 19  1  0
M  END
$$$$
