
     RDKit          3D

 19 20  0  0  0  0  0  0  0  0999 V2000
   -3.2688    0.6742   -0.0719 C   0  0  0  0  0  0  0  0  0  0  0  0
   -2.5355    1.9534   -0.3126 C   0  0  0  0  0  0  0  0  0  0  0  0
   -3.0429    3.1244    0.3497 O   0  0  0  0  0  0  0  0  0  0  0  0
   -2.7690    3.9338   -0.8258 C   0  0  0  0  0  0  0  0  0  0  0  0
   -2.1136    2.7576   -1.5299 C   0  0  0  0  0  0  0  0  0  0  0  0
   -1.0704    2.1535   -0.6010 C   0  0  0  0  0  0  0  0  0  0  0  0
   -0.2560    0.9953   -1.1559 C   0  0  0  0  0  0  0  0  0  0  0  0
    0.2008    0.0622   -0.0532 C   0  0  0  0  0  0  0  0  0  0  0  0
   -0.0754   -1.1080    0.0114 O   0  0  0  0  0  0  0  0  0  0  0  0
   -3.2746    0.4502    1.0009 H   0  0  0  0  0  0  0  0  0  0  0  0
   -4.3081    0.7501   -0.4057 H   0  0  0  0  0  0  0  0  0  0  0  0
   -2.7919   -0.1656   -0.5824 H   0  0  0  0  0  0  0  0  0  0  0  0
   -3.7046    4.2634   -1.2921 H   0  0  0  0  0  0  0  0  0  0  0  0
   -2.1438    4.8053   -0.5964 H   0  0  0  0  0  0  0  0  0  0  0  0
   -2.1577    2.5267   -2.5864 H   0  0  0  0  0  0  0  0  0  0  0  0
   -0.5268    2.8249    0.0631 H   0  0  0  0  0  0  0  0  0  0  0  0
   -0.8235    0.4122   -1.8869 H   0  0  0  0  0  0  0  0  0  0  0  0
    0.6354    1.3925   -1.6623 H   0  0  0  0  0  0  0  0  0  0  0  0
    0.8207    0.5486    0.7356 H   0  0  0  0  0  0  0  0  0  0  0  0
  1  2  1  0
  2  3  1  0
  3  4  1  0
  4  5  1  0
  5  6  1  0
  6  7  1  0
  7  8  1  0
  8  9  2  0
  5  2  1  0
  6  2  1  0
  1 10  1  0
  1 11  1  0
  1 12  1  0
  4 13  1  0
  4 14  1  0
  5 15  1  0
  6 16  1  0
  7 17  1  0
  7 18  1  0
  8 19  1  0
M  END
$$$$
