gdb 2408	2.1262435	1.8962954	1.4476636	4.2257	74.14	-0.25812	0.01313	0.27125	1006.6312	0.158067	-422.599193	-422.591036	-422.590092	-422.631844	30.889
 OpenBabel02181911413D

 19 20  0  0  1  0  0  0  0  0999 V2000
   -0.1893    2.2590    0.9226 C   0  0  0  0  0  0  0  0  0  0  0  0
   -0.9474    1.2910    0.0262 C   0  0  2  0  0  0  0  0  0  0  0  0
   -1.4851    1.8152   -1.3394 C   0  0  0  0  0  0  0  0  0  0  0  0
   -2.8126    1.0472   -1.0878 C   0  0  0  0  0  0  0  0  0  0  0  0
   -2.3719    0.7806    0.3822 C   0  0  1  0  0  0  0  0  0  0  0  0
   -2.1749   -0.6767    0.7911 C   0  0  0  0  0  0  0  0  0  0  0  0
   -0.9154   -1.0818    0.2225 O   0  0  0  0  0  0  0  0  0  0  0  0
   -0.1652   -0.0108   -0.1595 C   0  0  0  0  0  0  0  0  0  0  0  0
    0.9490   -0.1333   -0.5817 O   0  0  0  0  0  0  0  0  0  0  0  0
   -0.0298    1.8444    1.9240 H   0  0  0  0  0  0  0  0  0  0  0  0
    0.7926    2.4749    0.4908 H   0  0  0  0  0  0  0  0  0  0  0  0
   -0.7392    3.1994    1.0275 H   0  0  0  0  0  0  0  0  0  0  0  0
   -1.6162    2.9005   -1.3192 H   0  0  0  0  0  0  0  0  0  0  0  0
   -0.9034    1.5505   -2.2249 H   0  0  0  0  0  0  0  0  0  0  0  0
   -3.7330    1.6200   -1.2137 H   0  0  0  0  0  0  0  0  0  0  0  0
   -2.8975    0.1279   -1.6745 H   0  0  0  0  0  0  0  0  0  0  0  0
   -2.9204    1.3578    1.1280 H   0  0  0  0  0  0  0  0  0  0  0  0
   -2.1175   -0.8039    1.8785 H   0  0  0  0  0  0  0  0  0  0  0  0
   -2.9462   -1.3472    0.4011 H   0  0  0  0  0  0  0  0  0  0  0  0
  1 12  1  0  0  0  0
  1 10  1  0  0  0  0
  2  5  1  0  0  0  0
  2  1  1  1  0  0  0
  3 13  1  0  0  0  0
  3  4  1  0  0  0  0
  3  2  1  0  0  0  0
  4  5  1  0  0  0  0
  5  6  1  0  0  0  0
  5 17  1  1  0  0  0
  6 18  1  0  0  0  0
  7  6  1  0  0  0  0
  8  2  1  0  0  0  0
  8  7  1  0  0  0  0
  9  8  2  0  0  0  0
 11  1  1  0  0  0  0
 14  3  1  0  0  0  0
 15  4  1  0  0  0  0
 16  4  1  0  0  0  0
 19  6  1  0  0  0  0
M TOR 0 0 1 2 3
M TOR 1 0 1 2 12
M TOR 2 0 1 2 13
M TOR 3 0 1 4 3
M TOR 4 0 1 4 5
M TOR 5 0 1 4 16
M TOR 6 0 1 7 6
M TOR 7 0 1 7 8
M TOR 8 1 2 3 4
M TOR 9 1 2 3 14
M TOR 10 1 2 3 15
M TOR 11 1 4 3 14
M TOR 12 1 4 3 15
M TOR 13 1 4 5 6
M TOR 14 1 4 5 17
M TOR 15 1 4 5 18
M TOR 16 1 7 6 5
M TOR 17 2 1 0 9
M TOR 18 2 1 0 10
M TOR 19 2 1 0 11
M TOR 20 2 1 4 5
M TOR 21 2 1 4 16
M TOR 22 2 1 7 6
M TOR 23 2 1 7 8
M TOR 24 2 3 4 5
M TOR 25 2 3 4 16
M TOR 26 3 2 1 7
M TOR 27 3 4 1 7
M TOR 28 3 4 5 6
M TOR 29 3 4 5 17
M TOR 30 3 4 5 18
M TOR 31 4 1 0 9
M TOR 32 4 1 0 10
M TOR 33 4 1 0 11
M TOR 34 4 1 2 12
M TOR 35 4 1 2 13
M TOR 36 4 1 7 6
M TOR 37 4 1 7 8
M TOR 38 4 3 2 12
M TOR 39 4 3 2 13
M TOR 40 4 5 6 7
M TOR 41 5 4 1 7
M TOR 42 5 4 3 14
M TOR 43 5 4 3 15
M TOR 44 5 6 7 8
M TOR 45 6 5 4 16
M TOR 46 7 1 0 9
M TOR 47 7 1 0 10
M TOR 48 7 1 0 11
M TOR 49 7 1 2 12
M TOR 50 7 1 2 13
M TOR 51 7 1 4 16
M TOR 52 7 6 5 17
M TOR 53 7 6 5 18
M  END
$$$$
