
     RDKit          3D

 19 21  0  0  0  0  0  0  0  0999 V2000
    1.4723    0.0277    0.0008 C   0  0  0  0  0  0  0  0  0  0  0  0
    0.0596    0.0470    0.1032 O   0  0  0  0  0  0  0  0  0  0  0  0
   -0.3904    0.6916    1.2486 C   0  0  0  0  0  0  0  0  0  0  0  0
   -0.5459   -0.1555    2.4849 C   0  0  0  0  0  0  0  0  0  0  0  0
   -0.9344    0.6504    3.6025 O   0  0  0  0  0  0  0  0  0  0  0  0
   -2.1576    0.9967    2.9176 C   0  0  0  0  0  0  0  0  0  0  0  0
   -2.8327    2.3094    3.1231 C   0  0  0  0  0  0  0  0  0  0  0  0
   -3.4615    1.0174    3.6379 C   0  0  0  0  0  0  0  0  0  0  0  0
   -1.7664    0.2369    1.6775 C   0  0  0  0  0  0  0  0  0  0  0  0
    1.9351   -0.4918    0.8513 H   0  0  0  0  0  0  0  0  0  0  0  0
    1.7187   -0.5012   -0.9225 H   0  0  0  0  0  0  0  0  0  0  0  0
    1.8845    1.0461   -0.0496 H   0  0  0  0  0  0  0  0  0  0  0  0
   -0.0931    1.7381    1.3560 H   0  0  0  0  0  0  0  0  0  0  0  0
   -0.0623   -1.1079    2.6650 H   0  0  0  0  0  0  0  0  0  0  0  0
   -2.3981    2.9755    3.8603 H   0  0  0  0  0  0  0  0  0  0  0  0
   -3.2806    2.8049    2.2681 H   0  0  0  0  0  0  0  0  0  0  0  0
   -3.4339    0.8403    4.7076 H   0  0  0  0  0  0  0  0  0  0  0  0
   -4.3387    0.6281    3.1313 H   0  0  0  0  0  0  0  0  0  0  0  0
   -2.4087   -0.3482    1.0340 H   0  0  0  0  0  0  0  0  0  0  0  0
  1  2  1  0
  2  3  1  0
  3  4  1  0
  4  5  1  0
  5  6  1  0
  6  7  1  0
  7  8  1  0
  6  9  1  0
  9  3  1  0
  9  4  1  0
  8  6  1  0
  1 10  1  0
  1 11  1  0
  1 12  1  0
  3 13  1  0
  4 14  1  0
  7 15  1  0
  7 16  1  0
  8 17  1  0
  8 18  1  0
  9 19  1  0
M  END
$$$$
