
     RDKit          3D

 19 20  0  0  0  0  0  0  0  0999 V2000
    1.1345    0.1507    0.4834 O   0  0  0  0  0  0  0  0  0  0  0  0
   -0.0074   -0.0012    0.1632 C   0  0  0  0  0  0  0  0  0  0  0  0
   -0.9225   -1.2235   -0.0457 C   0  0  0  0  0  0  0  0  0  0  0  0
   -2.1162   -0.2606    0.1820 C   0  0  0  0  0  0  0  0  0  0  0  0
   -2.4899   -0.3601    1.5420 O   0  0  0  0  0  0  0  0  0  0  0  0
   -2.9781    0.8551    2.0976 C   0  0  0  0  0  0  0  0  0  0  0  0
   -1.8687    1.9033    2.1581 C   0  0  0  0  0  0  0  0  0  0  0  0
   -1.3729    2.2347    0.7427 C   0  0  0  0  0  0  0  0  0  0  0  0
   -1.1829    0.9658   -0.0852 C   0  0  0  0  0  0  0  0  0  0  0  0
   -0.8609   -1.5975   -1.0727 H   0  0  0  0  0  0  0  0  0  0  0  0
   -0.8293   -2.0518    0.6583 H   0  0  0  0  0  0  0  0  0  0  0  0
   -2.9894   -0.3664   -0.4737 H   0  0  0  0  0  0  0  0  0  0  0  0
   -3.8358    1.2304    1.5134 H   0  0  0  0  0  0  0  0  0  0  0  0
   -3.3408    0.5990    3.0968 H   0  0  0  0  0  0  0  0  0  0  0  0
   -2.2324    2.8086    2.6562 H   0  0  0  0  0  0  0  0  0  0  0  0
   -1.0498    1.5002    2.7647 H   0  0  0  0  0  0  0  0  0  0  0  0
   -2.1081    2.8798    0.2454 H   0  0  0  0  0  0  0  0  0  0  0  0
   -0.4313    2.7931    0.7753 H   0  0  0  0  0  0  0  0  0  0  0  0
   -1.1823    1.1929   -1.1594 H   0  0  0  0  0  0  0  0  0  0  0  0
  1  2  2  0
  2  3  1  0
  3  4  1  0
  4  5  1  0
  5  6  1  0
  6  7  1  0
  7  8  1  0
  8  9  1  0
  9  2  1  0
  9  4  1  0
  3 10  1  0
  3 11  1  0
  4 12  1  0
  6 13  1  0
  6 14  1  0
  7 15  1  0
  7 16  1  0
  8 17  1  0
  8 18  1  0
  9 19  1  0
M  END
$$$$
