
     RDKit          3D

 19 20  0  0  0  0  0  0  0  0999 V2000
    1.4550    0.6794    0.1851 O   0  0  0  0  0  0  0  0  0  0  0  0
    0.3473   -0.1098    0.5860 C   0  0  0  0  0  0  0  0  0  0  0  0
   -0.8917    0.7367    0.9065 C   0  0  0  0  0  0  0  0  0  0  0  0
   -2.0751   -0.1017    1.3169 C   0  0  0  0  0  0  0  0  0  0  0  0
   -2.7743   -1.0321    0.3179 C   0  0  0  0  0  0  0  0  0  0  0  0
   -4.1858   -1.1335    0.8584 C   0  0  0  0  0  0  0  0  0  0  0  0
   -4.3636   -0.3847    1.9497 C   0  0  0  0  0  0  0  0  0  0  0  0
   -3.0831    0.2838    2.3246 C   0  0  0  0  0  0  0  0  0  0  0  0
   -2.0228   -0.6515    2.6434 O   0  0  0  0  0  0  0  0  0  0  0  0
    1.7252    1.2109    0.9408 H   0  0  0  0  0  0  0  0  0  0  0  0
    0.1414   -0.7768   -0.2582 H   0  0  0  0  0  0  0  0  0  0  0  0
    0.5907   -0.7439    1.4513 H   0  0  0  0  0  0  0  0  0  0  0  0
   -0.6511    1.4278    1.7238 H   0  0  0  0  0  0  0  0  0  0  0  0
   -1.1457    1.3424    0.0284 H   0  0  0  0  0  0  0  0  0  0  0  0
   -2.7555   -0.6147   -0.6976 H   0  0  0  0  0  0  0  0  0  0  0  0
   -2.2830   -2.0112    0.2682 H   0  0  0  0  0  0  0  0  0  0  0  0
   -4.9341   -1.7746    0.4061 H   0  0  0  0  0  0  0  0  0  0  0  0
   -5.2801   -0.2867    2.5178 H   0  0  0  0  0  0  0  0  0  0  0  0
   -3.0510    1.2171    2.8797 H   0  0  0  0  0  0  0  0  0  0  0  0
  1  2  1  0
  2  3  1  0
  3  4  1  0
  4  5  1  0
  5  6  1  0
  6  7  2  0
  7  8  1  0
  8  9  1  0
  8  4  1  0
  9  4  1  0
  1 10  1  0
  2 11  1  0
  2 12  1  0
  3 13  1  0
  3 14  1  0
  5 15  1  0
  5 16  1  0
  6 17  1  0
  7 18  1  0
  8 19  1  0
M  END
$$$$
