gdb 2879	2.8239875	1.7614045	1.6028833	1.3322	72.94	-0.21931	0.08036	0.29967	939.4561	0.1594	-422.547564	-422.540398	-422.539454	-422.578845	28.774
 OpenBabel02181911413D

 19 21  0  0  1  0  0  0  0  0999 V2000
    0.6772   -0.2726   -1.2296 C   0  0  0  0  0  0  0  0  0  0  0  0
    0.8611    0.4780    0.0913 C   0  0  1  0  0  0  0  0  0  0  0  0
    1.3055   -0.4392    1.2257 C   0  0  1  0  0  0  0  0  0  0  0  0
    2.8179   -0.2670    1.2770 C   0  0  1  0  0  0  0  0  0  0  0  0
    3.2151    0.6337    0.2681 O   0  0  0  0  0  0  0  0  0  0  0  0
    2.0583    1.4609    0.0686 C   0  0  2  0  0  0  0  0  0  0  0  0
    1.9827    2.4238    1.2503 C   0  0  0  0  0  0  0  0  0  0  0  0
    1.7760    1.7090    2.4706 O   0  0  0  0  0  0  0  0  0  0  0  0
    1.9595    0.3228    2.3630 C   0  0  1  0  0  0  0  0  0  0  0  0
   -0.0895   -1.0486   -1.1374 H   0  0  0  0  0  0  0  0  0  0  0  0
    0.3699    0.4077   -2.0310 H   0  0  0  0  0  0  0  0  0  0  0  0
    1.6126   -0.7537   -1.5311 H   0  0  0  0  0  0  0  0  0  0  0  0
   -0.0556    1.0212    0.3483 H   0  0  0  0  0  0  0  0  0  0  0  0
    0.8058   -1.3874    1.3888 H   0  0  0  0  0  0  0  0  0  0  0  0
    3.5386   -1.0573    1.4476 H   0  0  0  0  0  0  0  0  0  0  0  0
    2.1849    1.9973   -0.8745 H   0  0  0  0  0  0  0  0  0  0  0  0
    2.9224    2.9890    1.3110 H   0  0  0  0  0  0  0  0  0  0  0  0
    1.1541    3.1341    1.1330 H   0  0  0  0  0  0  0  0  0  0  0  0
    1.9791   -0.1293    3.3485 H   0  0  0  0  0  0  0  0  0  0  0  0
  1 10  1  0  0  0  0
  1  2  1  0  0  0  0
  2 13  1  1  0  0  0
  2  3  1  0  0  0  0
  3  4  1  0  0  0  0
  3 14  1  1  0  0  0
  3  9  1  0  0  0  0
  4 15  1  1  0  0  0
  4  9  1  0  0  0  0
  5  4  1  0  0  0  0
  6 16  1  6  0  0  0
  6  2  1  0  0  0  0
  6  5  1  0  0  0  0
  6  7  1  0  0  0  0
  7 17  1  0  0  0  0
  7  8  1  0  0  0  0
  9  8  1  0  0  0  0
  9 19  1  1  0  0  0
 11  1  1  0  0  0  0
 12  1  1  0  0  0  0
 18  7  1  0  0  0  0
M TOR 0 0 1 2 3
M TOR 1 0 1 2 8
M TOR 2 0 1 2 13
M TOR 3 0 1 5 4
M TOR 4 0 1 5 6
M TOR 5 0 1 5 15
M TOR 6 1 2 3 4
M TOR 7 1 2 3 8
M TOR 8 1 2 3 14
M TOR 9 1 2 8 7
M TOR 10 1 2 8 18
M TOR 11 1 5 4 3
M TOR 12 1 5 6 7
M TOR 13 1 5 6 16
M TOR 14 1 5 6 17
M TOR 15 2 1 0 9
M TOR 16 2 1 0 10
M TOR 17 2 1 0 11
M TOR 18 2 1 5 4
M TOR 19 2 1 5 6
M TOR 20 2 1 5 15
M TOR 21 2 3 4 5
M TOR 22 2 3 8 7
M TOR 23 2 3 8 18
M TOR 24 2 8 3 4
M TOR 25 2 8 3 14
M TOR 26 2 8 7 6
M TOR 27 3 2 1 5
M TOR 28 3 2 1 12
M TOR 29 3 4 5 6
M TOR 30 3 4 5 15
M TOR 31 3 8 2 13
M TOR 32 3 8 7 6
M TOR 33 4 3 2 13
M TOR 34 4 3 8 7
M TOR 35 4 3 8 18
M TOR 36 4 5 1 12
M TOR 37 4 5 6 7
M TOR 38 4 5 6 16
M TOR 39 4 5 6 17
M TOR 40 5 1 0 9
M TOR 41 5 1 0 10
M TOR 42 5 1 0 11
M TOR 43 5 1 2 8
M TOR 44 5 1 2 13
M TOR 45 5 4 3 8
M TOR 46 5 4 3 14
M TOR 47 5 6 7 8
M TOR 48 6 5 1 12
M TOR 49 6 7 8 18
M TOR 50 7 6 5 15
M TOR 51 7 8 2 13
M TOR 52 7 8 3 14
M TOR 53 8 2 1 12
M TOR 54 8 7 6 16
M TOR 55 8 7 6 17
M  END
$$$$
