gdb 3356	2.7679777	1.7391351	1.5929257	1.4033	72.32	-0.25115	0.07155	0.3227	930.5311	0.15998	-422.55973	-422.552683	-422.551739	-422.590624	29.162
 OpenBabel02181911413D

 19 21  0  0  1  0  0  0  0  0999 V2000
    0.2717   -0.0715    0.6100 O   0  0  0  0  0  0  0  0  0  0  0  0
   -0.9046    0.6694    0.8801 C   0  0  2  0  0  0  0  0  0  0  0  0
   -0.6255    2.1774    0.7350 C   0  0  2  0  0  0  0  0  0  0  0  0
    0.4392    2.3976    1.8476 C   0  0  0  0  0  0  0  0  0  0  0  0
   -0.0130    1.4105    2.9767 C   0  0  0  0  0  0  0  0  0  0  0  0
   -1.2880    0.7504    2.3821 C   0  0  1  0  0  0  0  0  0  0  0  0
   -2.3368    1.8606    2.3662 C   0  0  2  0  0  0  0  0  0  0  0  0
   -3.1023    1.9936    1.1577 O   0  0  0  0  0  0  0  0  0  0  0  0
   -1.9100    2.7804    1.3020 C   0  0  2  0  0  0  0  0  0  0  0  0
    0.0552   -1.0059    0.6819 H   0  0  0  0  0  0  0  0  0  0  0  0
   -1.7353    0.3371    0.2545 H   0  0  0  0  0  0  0  0  0  0  0  0
   -0.3296    2.5114   -0.2601 H   0  0  0  0  0  0  0  0  0  0  0  0
    1.4343    2.1437    1.4795 H   0  0  0  0  0  0  0  0  0  0  0  0
    0.4610    3.4383    2.1842 H   0  0  0  0  0  0  0  0  0  0  0  0
    0.7541    0.6574    3.1650 H   0  0  0  0  0  0  0  0  0  0  0  0
   -0.2227    1.9190    3.9223 H   0  0  0  0  0  0  0  0  0  0  0  0
   -1.5873   -0.1871    2.8560 H   0  0  0  0  0  0  0  0  0  0  0  0
   -2.8353    2.1808    3.2769 H   0  0  0  0  0  0  0  0  0  0  0  0
   -2.0558    3.8561    1.3397 H   0  0  0  0  0  0  0  0  0  0  0  0
  1 10  1  0  0  0  0
  1  2  1  0  0  0  0
  2 11  1  6  0  0  0
  2  6  1  0  0  0  0
  3 12  1  6  0  0  0
  3  2  1  0  0  0  0
  3  9  1  0  0  0  0
  3  4  1  0  0  0  0
  4 14  1  0  0  0  0
  4  5  1  0  0  0  0
  5 15  1  0  0  0  0
  5 16  1  0  0  0  0
  6 17  1  1  0  0  0
  6  5  1  0  0  0  0
  7  6  1  0  0  0  0
  7 18  1  1  0  0  0
  8  9  1  0  0  0  0
  8  7  1  0  0  0  0
  9 19  1  1  0  0  0
  9  7  1  0  0  0  0
 13  4  1  0  0  0  0
M TOR 0 0 1 2 3
M TOR 1 0 1 2 8
M TOR 2 0 1 2 11
M TOR 3 0 1 5 4
M TOR 4 0 1 5 6
M TOR 5 0 1 5 16
M TOR 6 1 2 3 4
M TOR 7 1 2 3 12
M TOR 8 1 2 3 13
M TOR 9 1 2 8 6
M TOR 10 1 2 8 7
M TOR 11 1 2 8 18
M TOR 12 1 5 4 3
M TOR 13 1 5 4 14
M TOR 14 1 5 4 15
M TOR 15 1 5 6 7
M TOR 16 1 5 6 8
M TOR 17 1 5 6 17
M TOR 18 2 1 0 9
M TOR 19 2 1 5 4
M TOR 20 2 1 5 6
M TOR 21 2 1 5 16
M TOR 22 2 3 4 5
M TOR 23 2 3 4 14
M TOR 24 2 3 4 15
M TOR 25 2 8 6 5
M TOR 26 2 8 6 7
M TOR 27 2 8 6 17
M TOR 28 3 2 1 5
M TOR 29 3 2 1 10
M TOR 30 3 2 8 6
M TOR 31 3 2 8 7
M TOR 32 3 2 8 18
M TOR 33 3 4 5 6
M TOR 34 3 4 5 16
M TOR 35 4 3 2 8
M TOR 36 4 3 2 11
M TOR 37 4 5 1 10
M TOR 38 4 5 6 7
M TOR 39 4 5 6 8
M TOR 40 4 5 6 17
M TOR 41 5 1 0 9
M TOR 42 5 1 2 8
M TOR 43 5 1 2 11
M TOR 44 5 4 3 12
M TOR 45 5 4 3 13
M TOR 46 5 6 7 8
M TOR 47 5 6 8 18
M TOR 48 6 5 1 10
M TOR 49 6 5 4 14
M TOR 50 6 5 4 15
M TOR 51 6 7 8 18
M TOR 52 6 8 2 11
M TOR 53 7 6 5 16
M TOR 54 7 8 2 11
M TOR 55 7 8 6 17
M TOR 56 8 2 1 10
M TOR 57 8 2 3 12
M TOR 58 8 2 3 13
M TOR 59 8 6 5 16
M  END
$$$$
