
     RDKit          3D

 19 21  0  0  0  0  0  0  0  0999 V2000
    1.2240    0.1947   -2.8756 C   0  0  0  0  0  0  0  0  0  0  0  0
    2.0721    1.2120   -2.1388 C   0  0  0  0  0  0  0  0  0  0  0  0
    3.4810    0.8858   -1.6662 C   0  0  0  0  0  0  0  0  0  0  0  0
    3.5459   -0.2905   -0.8717 O   0  0  0  0  0  0  0  0  0  0  0  0
    2.6791   -0.2339    0.2557 C   0  0  0  0  0  0  0  0  0  0  0  0
    1.2449   -0.3966   -0.2413 C   0  0  0  0  0  0  0  0  0  0  0  0
    0.2263    0.2888    0.5280 O   0  0  0  0  0  0  0  0  0  0  0  0
   -0.2149    1.0387   -0.6329 C   0  0  0  0  0  0  0  0  0  0  0  0
    0.9553    0.4950   -1.4390 C   0  0  0  0  0  0  0  0  0  0  0  0
    0.5355    0.5717   -3.6252 H   0  0  0  0  0  0  0  0  0  0  0  0
    1.6604   -0.7732   -3.1062 H   0  0  0  0  0  0  0  0  0  0  0  0
    1.9116    2.2537   -2.4043 H   0  0  0  0  0  0  0  0  0  0  0  0
    4.1591    0.7111   -2.5082 H   0  0  0  0  0  0  0  0  0  0  0  0
    3.8703    1.7415   -1.0891 H   0  0  0  0  0  0  0  0  0  0  0  0
    2.9907   -1.0372    0.9283 H   0  0  0  0  0  0  0  0  0  0  0  0
    2.7731    0.7273    0.7844 H   0  0  0  0  0  0  0  0  0  0  0  0
    0.9901   -1.4562   -0.3788 H   0  0  0  0  0  0  0  0  0  0  0  0
   -1.2089    0.7141   -0.9701 H   0  0  0  0  0  0  0  0  0  0  0  0
   -0.2328    2.1190   -0.4442 H   0  0  0  0  0  0  0  0  0  0  0  0
  1  2  1  0
  2  3  1  0
  3  4  1  0
  4  5  1  0
  5  6  1  0
  6  7  1  0
  7  8  1  0
  8  9  1  0
  9  1  1  0
  9  2  1  0
  9  6  1  0
  1 10  1  0
  1 11  1  0
  2 12  1  0
  3 13  1  0
  3 14  1  0
  5 15  1  0
  5 16  1  0
  6 17  1  0
  8 18  1  0
  8 19  1  0
M  END
$$$$
