
     RDKit          3D

 19 19  0  0  0  0  0  0  0  0999 V2000
   -0.6794   -1.8988   -2.3681 O   0  0  0  0  0  0  0  0  0  0  0  0
    0.3684   -1.0259   -1.9529 C   0  0  0  0  0  0  0  0  0  0  0  0
    0.4060    0.1252   -2.9568 C   0  0  0  0  0  0  0  0  0  0  0  0
   -0.9072    0.9195   -2.9471 C   0  0  0  0  0  0  0  0  0  0  0  0
   -1.3695    1.2310   -1.5511 C   0  0  0  0  0  0  0  0  0  0  0  0
   -0.9194    0.6002   -0.4675 C   0  0  0  0  0  0  0  0  0  0  0  0
    0.1201   -0.5001   -0.5248 C   0  0  0  0  0  0  0  0  0  0  0  0
    1.3879   -0.0059    0.1594 C   0  0  0  0  0  0  0  0  0  0  0  0
    2.4798    0.0364   -0.3477 O   0  0  0  0  0  0  0  0  0  0  0  0
   -0.6731   -2.6735   -1.7976 H   0  0  0  0  0  0  0  0  0  0  0  0
    1.3344   -1.5469   -1.9677 H   0  0  0  0  0  0  0  0  0  0  0  0
    1.2457    0.7751   -2.6911 H   0  0  0  0  0  0  0  0  0  0  0  0
    0.6017   -0.2777   -3.9547 H   0  0  0  0  0  0  0  0  0  0  0  0
   -0.7902    1.8486   -3.5174 H   0  0  0  0  0  0  0  0  0  0  0  0
   -1.6915    0.3471   -3.4602 H   0  0  0  0  0  0  0  0  0  0  0  0
   -2.1339    1.9965   -1.4390 H   0  0  0  0  0  0  0  0  0  0  0  0
   -1.2940    0.8672    0.5177 H   0  0  0  0  0  0  0  0  0  0  0  0
   -0.2359   -1.3356    0.1031 H   0  0  0  0  0  0  0  0  0  0  0  0
    1.2309    0.3418    1.2065 H   0  0  0  0  0  0  0  0  0  0  0  0
  1  2  1  0
  2  3  1  0
  3  4  1  0
  4  5  1  0
  5  6  2  0
  6  7  1  0
  7  8  1  0
  8  9  2  0
  7  2  1  0
  1 10  1  0
  2 11  1  0
  3 12  1  0
  3 13  1  0
  4 14  1  0
  4 15  1  0
  5 16  1  0
  6 17  1  0
  7 18  1  0
  8 19  1  0
M  END
$$$$
