gdb 4588	3.1276143	0.7786328	0.6423121	3.6292	83.78	-0.24805	-0.05588	0.19217	1769.2472	0.153032	-422.545283	-422.534143	-422.533198	-422.583959	37.649
 OpenBabel02181911413D

 19 18  0  0  1  0  0  0  0  0999 V2000
    6.4722    0.2144    0.0526 C   0  0  0  0  0  0  0  0  0  0  0  0
    5.8721   -0.9807    0.8148 C   0  0  0  0  0  0  0  0  0  0  0  0
    4.4205   -0.9360    0.9223 C   0  0  0  0  0  0  0  0  0  0  0  0
    3.2147   -0.9071    1.0095 C   0  0  0  0  0  0  0  0  0  0  0  0
    1.7697   -0.8835    1.1507 C   0  0  0  0  0  0  0  0  0  0  0  0
    1.1722   -1.7160    1.7977 O   0  0  0  0  0  0  0  0  0  0  0  0
    1.0511    0.2968    0.4705 C   0  0  2  0  0  0  0  0  0  0  0  0
   -0.2687   -0.1469   -0.1481 C   0  0  0  0  0  0  0  0  0  0  0  0
    1.8307    0.9142   -0.5336 O   0  0  0  0  0  0  0  0  0  0  0  0
    6.0831    0.2607   -0.9678 H   0  0  0  0  0  0  0  0  0  0  0  0
    6.2316    1.1562    0.5531 H   0  0  0  0  0  0  0  0  0  0  0  0
    7.5604    0.1211    0.0026 H   0  0  0  0  0  0  0  0  0  0  0  0
    6.1531   -1.9196    0.3205 H   0  0  0  0  0  0  0  0  0  0  0  0
    6.2984   -1.0359    1.8245 H   0  0  0  0  0  0  0  0  0  0  0  0
    0.8391    1.0065    1.2923 H   0  0  0  0  0  0  0  0  0  0  0  0
   -0.8718   -0.6677    0.5973 H   0  0  0  0  0  0  0  0  0  0  0  0
   -0.8166    0.7221   -0.5195 H   0  0  0  0  0  0  0  0  0  0  0  0
   -0.0793   -0.8228   -0.9869 H   0  0  0  0  0  0  0  0  0  0  0  0
    2.7292    1.0159   -0.1980 H   0  0  0  0  0  0  0  0  0  0  0  0
  1 11  1  0  0  0  0
  1  2  1  0  0  0  0
  2  3  1  0  0  0  0
  2 14  1  0  0  0  0
  3  4  3  0  0  0  0
  4  5  1  0  0  0  0
  5  6  2  0  0  0  0
  7  5  1  0  0  0  0
  7 15  1  1  0  0  0
  8  7  1  0  0  0  0
  8 16  1  0  0  0  0
  9 19  1  0  0  0  0
  9  7  1  0  0  0  0
 10  1  1  0  0  0  0
 12  1  1  0  0  0  0
 13  2  1  0  0  0  0
 17  8  1  0  0  0  0
 18  8  1  0  0  0  0
M TOR 0 0 1 2 3
M TOR 1 1 2 3 4
M TOR 2 2 1 0 9
M TOR 3 2 1 0 10
M TOR 4 2 1 0 11
M TOR 5 2 3 4 5
M TOR 6 2 3 4 6
M TOR 7 3 2 1 12
M TOR 8 3 2 1 13
M TOR 9 3 4 6 7
M TOR 10 3 4 6 8
M TOR 11 3 4 6 14
M TOR 12 4 6 7 15
M TOR 13 4 6 7 16
M TOR 14 4 6 7 17
M TOR 15 4 6 8 18
M TOR 16 5 4 6 7
M TOR 17 5 4 6 8
M TOR 18 5 4 6 14
M TOR 19 7 6 8 18
M TOR 20 8 6 7 15
M TOR 21 8 6 7 16
M TOR 22 8 6 7 17
M  END
$$$$
