gdb 1770	2.5450691	1.7817013	1.3247627	0.9801	73.99	-0.24799	0.07342	0.32141	1000.4778	0.157446	-422.530386	-422.522678	-422.521734	-422.561683	32.262
 OpenBabel02181911403D

 19 21  0  0  1  0  0  0  0  0999 V2000
   -3.5529    0.6196    2.2517 O   0  0  0  0  0  0  0  0  0  0  0  0
   -3.0179    1.5162    1.3296 C   0  0  2  0  0  0  0  0  0  0  0  0
   -3.0491    1.1279   -0.1803 C   0  0  0  0  0  0  0  0  0  0  0  0
   -1.9512    2.2579   -0.2349 C   0  0  2  0  0  0  0  0  0  0  0  0
   -1.0963    2.4597   -1.3139 O   0  0  0  0  0  0  0  0  0  0  0  0
   -1.4818    1.7185    1.1454 C   0  0  0  0  0  0  0  0  0  0  0  0
   -2.8063    3.4925    0.0993 C   0  0  2  0  0  0  0  0  0  0  0  0
   -2.7083    4.1492    1.4519 C   0  0  0  0  0  0  0  0  0  0  0  0
   -3.6039    2.9461    1.2679 C   0  0  2  0  0  0  0  0  0  0  0  0
   -3.4913    1.0187    3.1262 H   0  0  0  0  0  0  0  0  0  0  0  0
   -2.6556    0.1244   -0.3688 H   0  0  0  0  0  0  0  0  0  0  0  0
   -3.9802    1.2951   -0.7273 H   0  0  0  0  0  0  0  0  0  0  0  0
   -0.6283    1.6370   -1.4884 H   0  0  0  0  0  0  0  0  0  0  0  0
   -0.9855    0.7499    1.0472 H   0  0  0  0  0  0  0  0  0  0  0  0
   -0.9147    2.3585    1.8219 H   0  0  0  0  0  0  0  0  0  0  0  0
   -3.2664    4.0156   -0.7310 H   0  0  0  0  0  0  0  0  0  0  0  0
   -1.8030    4.1048    2.0450 H   0  0  0  0  0  0  0  0  0  0  0  0
   -3.2280    5.0987    1.5391 H   0  0  0  0  0  0  0  0  0  0  0  0
   -4.6817    3.0469    1.3355 H   0  0  0  0  0  0  0  0  0  0  0  0
  1 10  1  0  0  0  0
  2  1  1  1  0  0  0
  3  2  1  0  0  0  0
  4  5  1  6  0  0  0
  4  3  1  0  0  0  0
  4  7  1  0  0  0  0
  4  6  1  0  0  0  0
  6  2  1  0  0  0  0
  6 15  1  0  0  0  0
  7 16  1  6  0  0  0
  7  9  1  0  0  0  0
  7  8  1  0  0  0  0
  8 18  1  0  0  0  0
  8 17  1  0  0  0  0
  9  2  1  0  0  0  0
  9 19  1  1  0  0  0
  9  8  1  0  0  0  0
 11  3  1  0  0  0  0
 12  3  1  0  0  0  0
 13  5  1  0  0  0  0
 14  6  1  0  0  0  0
M TOR 0 0 1 2 3
M TOR 1 0 1 2 10
M TOR 2 0 1 2 11
M TOR 3 0 1 5 3
M TOR 4 0 1 5 13
M TOR 5 0 1 5 14
M TOR 6 0 1 8 6
M TOR 7 0 1 8 7
M TOR 8 0 1 8 18
M TOR 9 1 2 3 4
M TOR 10 1 2 3 5
M TOR 11 1 2 3 6
M TOR 12 1 5 3 4
M TOR 13 1 5 3 6
M TOR 14 1 8 6 3
M TOR 15 1 8 6 7
M TOR 16 1 8 6 15
M TOR 17 1 8 7 16
M TOR 18 1 8 7 17
M TOR 19 2 1 0 9
M TOR 20 2 1 5 13
M TOR 21 2 1 5 14
M TOR 22 2 1 8 6
M TOR 23 2 1 8 7
M TOR 24 2 1 8 18
M TOR 25 2 3 4 12
M TOR 26 2 3 5 13
M TOR 27 2 3 5 14
M TOR 28 2 3 6 7
M TOR 29 2 3 6 8
M TOR 30 2 3 6 15
M TOR 31 3 2 1 8
M TOR 32 3 5 1 8
M TOR 33 3 6 7 8
M TOR 34 3 6 7 16
M TOR 35 3 6 7 17
M TOR 36 3 6 8 18
M TOR 37 4 3 2 10
M TOR 38 4 3 2 11
M TOR 39 4 3 5 13
M TOR 40 4 3 5 14
M TOR 41 4 3 6 7
M TOR 42 4 3 6 8
M TOR 43 4 3 6 15
M TOR 44 5 1 0 9
M TOR 45 5 1 2 10
M TOR 46 5 1 2 11
M TOR 47 5 1 8 6
M TOR 48 5 1 8 7
M TOR 49 5 1 8 18
M TOR 50 5 3 2 10
M TOR 51 5 3 2 11
M TOR 52 5 3 4 12
M TOR 53 5 3 6 7
M TOR 54 5 3 6 8
M TOR 55 5 3 6 15
M TOR 56 6 3 2 10
M TOR 57 6 3 2 11
M TOR 58 6 3 4 12
M TOR 59 6 3 5 13
M TOR 60 6 3 5 14
M TOR 61 6 7 8 18
M TOR 62 6 8 7 16
M TOR 63 6 8 7 17
M TOR 64 7 8 6 15
M TOR 65 8 1 0 9
M TOR 66 8 1 2 10
M TOR 67 8 1 2 11
M TOR 68 8 1 5 13
M TOR 69 8 1 5 14
M  END
$$$$
