gdb 421	2.7695957	1.6052606	1.23144	0.7287	74.59	-0.2609	0.07628	0.33718000000000004	1054.3623	0.15843	-422.536509	-422.528914	-422.52797	-422.568449	29.918
 OpenBabel02181911403D

 19 21  0  0  1  0  0  0  0  0999 V2000
    0.5571    0.8108   -0.7348 C   0  0  0  0  0  0  0  0  0  0  0  0
    0.0558   -0.1269    0.2230 O   0  0  0  0  0  0  0  0  0  0  0  0
    1.4681    0.1523    0.2091 C   0  0  2  0  0  0  0  0  0  0  0  0
    2.0175    0.8730    1.4227 C   0  0  0  0  0  0  0  0  0  0  0  0
    2.3301   -0.1411    2.5330 C   0  0  0  0  0  0  0  0  0  0  0  0
    3.4062   -1.1565    2.1068 C   0  0  0  0  0  0  0  0  0  0  0  0
    3.2351   -1.6547    0.6809 C   0  0  2  0  0  0  0  0  0  0  0  0
    3.6943   -0.7746   -0.3575 O   0  0  0  0  0  0  0  0  0  0  0  0
    2.2892   -1.0146   -0.2522 C   0  0  2  0  0  0  0  0  0  0  0  0
    0.5196    0.4841   -1.7736 H   0  0  0  0  0  0  0  0  0  0  0  0
    0.2727    1.8487   -0.5652 H   0  0  0  0  0  0  0  0  0  0  0  0
    2.9255    1.4159    1.1361 H   0  0  0  0  0  0  0  0  0  0  0  0
    1.2790    1.6050    1.7620 H   0  0  0  0  0  0  0  0  0  0  0  0
    2.6492    0.3766    3.4430 H   0  0  0  0  0  0  0  0  0  0  0  0
    1.4041   -0.6740    2.7807 H   0  0  0  0  0  0  0  0  0  0  0  0
    4.4047   -0.7085    2.1821 H   0  0  0  0  0  0  0  0  0  0  0  0
    3.3973   -2.0141    2.7879 H   0  0  0  0  0  0  0  0  0  0  0  0
    3.4922   -2.6984    0.5002 H   0  0  0  0  0  0  0  0  0  0  0  0
    1.8494   -1.5976   -1.0615 H   0  0  0  0  0  0  0  0  0  0  0  0
  1 11  1  0  0  0  0
  1  3  1  0  0  0  0
  1  2  1  0  0  0  0
  3  2  1  1  0  0  0
  3  4  1  0  0  0  0
  4 13  1  0  0  0  0
  4  5  1  0  0  0  0
  5 15  1  0  0  0  0
  5 14  1  0  0  0  0
  6 16  1  0  0  0  0
  6  5  1  0  0  0  0
  6 17  1  0  0  0  0
  7 18  1  6  0  0  0
  7  6  1  0  0  0  0
  8  9  1  0  0  0  0
  8  7  1  0  0  0  0
  9 19  1  6  0  0  0
  9  3  1  0  0  0  0
  9  7  1  0  0  0  0
 10  1  1  0  0  0  0
 12  4  1  0  0  0  0
M TOR 0 0 1 2 3
M TOR 1 0 1 2 8
M TOR 2 0 2 3 4
M TOR 3 0 2 3 11
M TOR 4 0 2 3 12
M TOR 5 0 2 8 6
M TOR 6 0 2 8 7
M TOR 7 0 2 8 18
M TOR 8 1 2 0 9
M TOR 9 1 2 0 10
M TOR 10 1 2 3 4
M TOR 11 1 2 3 11
M TOR 12 1 2 3 12
M TOR 13 1 2 8 6
M TOR 14 1 2 8 7
M TOR 15 1 2 8 18
M TOR 16 2 3 4 5
M TOR 17 2 3 4 13
M TOR 18 2 3 4 14
M TOR 19 2 8 6 5
M TOR 20 2 8 6 7
M TOR 21 2 8 6 17
M TOR 22 3 2 0 9
M TOR 23 3 2 0 10
M TOR 24 3 2 8 6
M TOR 25 3 2 8 7
M TOR 26 3 2 8 18
M TOR 27 3 4 5 6
M TOR 28 3 4 5 15
M TOR 29 3 4 5 16
M TOR 30 4 3 2 8
M TOR 31 4 5 6 7
M TOR 32 4 5 6 8
M TOR 33 4 5 6 17
M TOR 34 5 4 3 11
M TOR 35 5 4 3 12
M TOR 36 5 6 7 8
M TOR 37 5 6 8 18
M TOR 38 6 5 4 13
M TOR 39 6 5 4 14
M TOR 40 6 7 8 18
M TOR 41 7 6 5 15
M TOR 42 7 6 5 16
M TOR 43 7 8 6 17
M TOR 44 8 2 0 9
M TOR 45 8 2 0 10
M TOR 46 8 2 3 11
M TOR 47 8 2 3 12
M TOR 48 8 6 5 15
M TOR 49 8 6 5 16
M  END
$$$$
