
     RDKit          3D

 19 19  0  0  0  0  0  0  0  0999 V2000
    5.2067   -1.6306    0.0520 C   0  0  0  0  0  0  0  0  0  0  0  0
    4.3672   -1.3804    1.2783 C   0  0  0  0  0  0  0  0  0  0  0  0
    3.0626   -1.9799    1.3391 O   0  0  0  0  0  0  0  0  0  0  0  0
    3.1515   -0.5498    1.3654 C   0  0  0  0  0  0  0  0  0  0  0  0
    2.7856    0.1050    2.6787 C   0  0  0  0  0  0  0  0  0  0  0  0
    2.5983    0.1403    0.1121 C   0  0  0  0  0  0  0  0  0  0  0  0
    3.1631    1.4441   -0.0324 O   0  0  0  0  0  0  0  0  0  0  0  0
    1.1345    0.1810    0.1202 C   0  0  0  0  0  0  0  0  0  0  0  0
   -0.0648    0.2606    0.1457 C   0  0  0  0  0  0  0  0  0  0  0  0
    5.6374   -2.6364    0.0975 H   0  0  0  0  0  0  0  0  0  0  0  0
    4.6323   -1.5576   -0.8730 H   0  0  0  0  0  0  0  0  0  0  0  0
    6.0324   -0.9128    0.0070 H   0  0  0  0  0  0  0  0  0  0  0  0
    4.9244   -1.4797    2.2132 H   0  0  0  0  0  0  0  0  0  0  0  0
    3.2096   -0.4561    3.5143 H   0  0  0  0  0  0  0  0  0  0  0  0
    3.1714    1.1287    2.7173 H   0  0  0  0  0  0  0  0  0  0  0  0
    1.6988    0.1392    2.8016 H   0  0  0  0  0  0  0  0  0  0  0  0
    2.9206   -0.4295   -0.7636 H   0  0  0  0  0  0  0  0  0  0  0  0
    2.5761    2.0685    0.4059 H   0  0  0  0  0  0  0  0  0  0  0  0
   -1.1258    0.3134    0.1542 H   0  0  0  0  0  0  0  0  0  0  0  0
  1  2  1  0
  2  3  1  0
  3  4  1  0
  4  5  1  0
  4  6  1  0
  6  7  1  0
  6  8  1  0
  8  9  3  0
  4  2  1  0
  1 10  1  0
  1 11  1  0
  1 12  1  0
  2 13  1  0
  5 14  1  0
  5 15  1  0
  5 16  1  0
  6 17  1  0
  7 18  1  0
  9 19  1  0
M  END
$$$$
