gdb 2273	2.3695374	2.151385	1.5188424	1.2568	72.67	-0.24512	0.08274	0.32786	932.329	0.158853	-422.549728	-422.542602	-422.541657	-422.580685	29.334
 OpenBabel02181911413D

 19 21  0  0  1  0  0  0  0  0999 V2000
   -0.0580   -0.0085   -0.0447 C   0  0  0  0  0  0  0  0  0  0  0  0
    1.4563    0.0373    0.0347 C   0  0  1  0  0  0  0  0  0  0  0  0
    2.2118   -0.2518   -1.2908 C   0  0  0  0  0  0  0  0  0  0  0  0
    3.5459    0.2469   -1.0764 O   0  0  0  0  0  0  0  0  0  0  0  0
    3.5521    0.7978    0.2587 C   0  0  1  0  0  0  0  0  0  0  0  0
    2.1416    1.3778    0.3987 C   0  0  0  0  0  0  0  0  0  0  0  0
    3.5076   -0.4246    1.1852 C   0  0  1  0  0  0  0  0  0  0  0  0
    2.5675   -0.3455    2.2681 O   0  0  0  0  0  0  0  0  0  0  0  0
    2.1365   -0.9214    1.0294 C   0  0  1  0  0  0  0  0  0  0  0  0
   -0.5079    0.2235    0.9258 H   0  0  0  0  0  0  0  0  0  0  0  0
   -0.4381    0.7144   -0.7745 H   0  0  0  0  0  0  0  0  0  0  0  0
   -0.4111   -1.0017   -0.3451 H   0  0  0  0  0  0  0  0  0  0  0  0
    2.2505   -1.3218   -1.5320 H   0  0  0  0  0  0  0  0  0  0  0  0
    1.7545    0.2779   -2.1368 H   0  0  0  0  0  0  0  0  0  0  0  0
    4.4057    1.4687    0.3474 H   0  0  0  0  0  0  0  0  0  0  0  0
    1.9011    1.7267    1.4011 H   0  0  0  0  0  0  0  0  0  0  0  0
    1.9511    2.1606   -0.3387 H   0  0  0  0  0  0  0  0  0  0  0  0
    4.3743   -1.0592    1.3365 H   0  0  0  0  0  0  0  0  0  0  0  0
    1.8668   -1.9739    1.0605 H   0  0  0  0  0  0  0  0  0  0  0  0
  1 10  1  0  0  0  0
  2  1  1  6  0  0  0
  2  6  1  0  0  0  0
  2  9  1  0  0  0  0
  3  4  1  0  0  0  0
  3  2  1  0  0  0  0
  4  5  1  0  0  0  0
  5 15  1  1  0  0  0
  5  6  1  0  0  0  0
  5  7  1  0  0  0  0
  6 16  1  0  0  0  0
  7 18  1  1  0  0  0
  7  8  1  0  0  0  0
  9 19  1  6  0  0  0
  9  7  1  0  0  0  0
  9  8  1  0  0  0  0
 11  1  1  0  0  0  0
 12  1  1  0  0  0  0
 13  3  1  0  0  0  0
 14  3  1  0  0  0  0
 17  6  1  0  0  0  0
M TOR 0 0 1 2 3
M TOR 1 0 1 2 12
M TOR 2 0 1 2 13
M TOR 3 0 1 5 4
M TOR 4 0 1 5 15
M TOR 5 0 1 5 16
M TOR 6 0 1 8 6
M TOR 7 0 1 8 7
M TOR 8 0 1 8 18
M TOR 9 1 2 3 4
M TOR 10 1 5 4 3
M TOR 11 1 5 4 6
M TOR 12 1 5 4 14
M TOR 13 1 8 6 4
M TOR 14 1 8 6 7
M TOR 15 1 8 6 17
M TOR 16 2 1 0 9
M TOR 17 2 1 0 10
M TOR 18 2 1 0 11
M TOR 19 2 1 5 4
M TOR 20 2 1 5 15
M TOR 21 2 1 5 16
M TOR 22 2 1 8 6
M TOR 23 2 1 8 7
M TOR 24 2 1 8 18
M TOR 25 2 3 4 5
M TOR 26 2 3 4 6
M TOR 27 2 3 4 14
M TOR 28 3 2 1 5
M TOR 29 3 2 1 8
M TOR 30 3 4 5 15
M TOR 31 3 4 5 16
M TOR 32 3 4 6 7
M TOR 33 3 4 6 8
M TOR 34 3 4 6 17
M TOR 35 4 3 2 12
M TOR 36 4 3 2 13
M TOR 37 4 5 1 8
M TOR 38 4 6 7 8
M TOR 39 4 6 8 18
M TOR 40 5 1 0 9
M TOR 41 5 1 0 10
M TOR 42 5 1 0 11
M TOR 43 5 1 2 12
M TOR 44 5 1 2 13
M TOR 45 5 1 8 6
M TOR 46 5 1 8 7
M TOR 47 5 1 8 18
M TOR 48 5 4 6 7
M TOR 49 5 4 6 8
M TOR 50 5 4 6 17
M TOR 51 6 4 5 15
M TOR 52 6 4 5 16
M TOR 53 6 7 8 18
M TOR 54 7 6 4 14
M TOR 55 7 8 6 17
M TOR 56 8 1 0 9
M TOR 57 8 1 0 10
M TOR 58 8 1 0 11
M TOR 59 8 1 2 12
M TOR 60 8 1 2 13
M TOR 61 8 1 5 15
M TOR 62 8 1 5 16
M TOR 63 8 6 4 14
M  END
$$$$
