
     RDKit          3D

 19 21  0  0  0  0  0  0  0  0999 V2000
    0.3108    0.6243    0.1465 O   0  0  0  0  0  0  0  0  0  0  0  0
   -1.0252    0.9517    0.4255 C   0  0  0  0  0  0  0  0  0  0  0  0
   -1.2558    1.8669    1.6410 C   0  0  0  0  0  0  0  0  0  0  0  0
   -2.7459    2.2902    1.4794 C   0  0  0  0  0  0  0  0  0  0  0  0
   -3.0459    1.9420    0.0157 C   0  0  0  0  0  0  0  0  0  0  0  0
   -3.1221    0.4321   -0.3908 C   0  0  0  0  0  0  0  0  0  0  0  0
   -2.0458   -0.2323    0.4893 C   0  0  0  0  0  0  0  0  0  0  0  0
   -2.3459    0.7344   -1.5887 O   0  0  0  0  0  0  0  0  0  0  0  0
   -1.7181    1.7256   -0.7435 C   0  0  0  0  0  0  0  0  0  0  0  0
    0.6576    0.1086    0.8818 H   0  0  0  0  0  0  0  0  0  0  0  0
   -1.0493    1.3605    2.5900 H   0  0  0  0  0  0  0  0  0  0  0  0
   -0.5889    2.7341    1.5773 H   0  0  0  0  0  0  0  0  0  0  0  0
   -3.4074    1.7564    2.1696 H   0  0  0  0  0  0  0  0  0  0  0  0
   -2.8844    3.3576    1.6712 H   0  0  0  0  0  0  0  0  0  0  0  0
   -3.7841    2.5519   -0.5030 H   0  0  0  0  0  0  0  0  0  0  0  0
   -4.0570   -0.0944   -0.5866 H   0  0  0  0  0  0  0  0  0  0  0  0
   -2.3697   -0.4783    1.5050 H   0  0  0  0  0  0  0  0  0  0  0  0
   -1.6548   -1.1253   -0.0027 H   0  0  0  0  0  0  0  0  0  0  0  0
   -1.1414    2.4865   -1.2683 H   0  0  0  0  0  0  0  0  0  0  0  0
  1  2  1  0
  2  3  1  0
  3  4  1  0
  4  5  1  0
  5  6  1  0
  6  7  1  0
  6  8  1  0
  8  9  1  0
  7  2  1  0
  9  2  1  0
  9  5  1  0
  1 10  1  0
  3 11  1  0
  3 12  1  0
  4 13  1  0
  4 14  1  0
  5 15  1  0
  6 16  1  0
  7 17  1  0
  7 18  1  0
  9 19  1  0
M  END
$$$$
