gdb 3296	3.506178	1.5294766	1.4082399	1.3325	73.33	-0.23681	0.07427	0.31108	972.1521	0.160211	-422.553101	-422.546262	-422.545318	-422.583879	28.418
 OpenBabel02181911413D

 19 21  0  0  1  0  0  0  0  0999 V2000
    0.2989   -0.2646    0.0944 O   0  0  0  0  0  0  0  0  0  0  0  0
   -0.7814    0.5767    0.4439 C   0  0  1  0  0  0  0  0  0  0  0  0
   -2.1069   -0.2182    0.5299 C   0  0  2  0  0  0  0  0  0  0  0  0
   -3.0844    0.9285    0.8530 C   0  0  0  0  0  0  0  0  0  0  0  0
   -2.3797    1.4203    2.1529 C   0  0  1  0  0  0  0  0  0  0  0  0
   -2.9664    0.7525    3.2714 O   0  0  0  0  0  0  0  0  0  0  0  0
   -2.6927   -0.6457    3.0761 C   0  0  0  0  0  0  0  0  0  0  0  0
   -1.6426   -0.6721    1.9699 C   0  0  2  0  0  0  0  0  0  0  0  0
   -0.9956    0.7475    1.9705 C   0  0  1  0  0  0  0  0  0  0  0  0
    1.1161    0.1852    0.3314 H   0  0  0  0  0  0  0  0  0  0  0  0
   -0.7893    1.4829   -0.1791 H   0  0  0  0  0  0  0  0  0  0  0  0
   -2.3771   -0.9342   -0.2459 H   0  0  0  0  0  0  0  0  0  0  0  0
   -3.1117    1.6797    0.0572 H   0  0  0  0  0  0  0  0  0  0  0  0
   -4.1081    0.6147    1.0683 H   0  0  0  0  0  0  0  0  0  0  0  0
   -2.4097    2.4919    2.3493 H   0  0  0  0  0  0  0  0  0  0  0  0
   -2.3200   -1.0646    4.0183 H   0  0  0  0  0  0  0  0  0  0  0  0
   -3.6117   -1.1842    2.8046 H   0  0  0  0  0  0  0  0  0  0  0  0
   -0.9569   -1.5147    1.9660 H   0  0  0  0  0  0  0  0  0  0  0  0
   -0.1990    1.0405    2.6555 H   0  0  0  0  0  0  0  0  0  0  0  0
  1 10  1  0  0  0  0
  1  2  1  0  0  0  0
  2 11  1  6  0  0  0
  2  3  1  0  0  0  0
  2  9  1  0  0  0  0
  3 12  1  6  0  0  0
  3  4  1  0  0  0  0
  3  8  1  0  0  0  0
  4 14  1  0  0  0  0
  4  5  1  0  0  0  0
  5 15  1  1  0  0  0
  5  6  1  0  0  0  0
  7  6  1  0  0  0  0
  7 16  1  0  0  0  0
  8 18  1  1  0  0  0
  8  9  1  0  0  0  0
  8  7  1  0  0  0  0
  9  5  1  0  0  0  0
  9 19  1  1  0  0  0
 13  4  1  0  0  0  0
 17  7  1  0  0  0  0
M TOR 0 0 1 2 3
M TOR 1 0 1 2 7
M TOR 2 0 1 2 11
M TOR 3 0 1 8 4
M TOR 4 0 1 8 7
M TOR 5 0 1 8 18
M TOR 6 1 2 3 4
M TOR 7 1 2 3 12
M TOR 8 1 2 3 13
M TOR 9 1 2 7 6
M TOR 10 1 2 7 8
M TOR 11 1 2 7 17
M TOR 12 1 8 4 3
M TOR 13 1 8 4 5
M TOR 14 1 8 4 14
M TOR 15 1 8 7 6
M TOR 16 1 8 7 17
M TOR 17 2 1 0 9
M TOR 18 2 1 8 4
M TOR 19 2 1 8 18
M TOR 20 2 3 4 5
M TOR 21 2 3 4 8
M TOR 22 2 3 4 14
M TOR 23 2 7 6 5
M TOR 24 2 7 6 15
M TOR 25 2 7 6 16
M TOR 26 2 7 8 4
M TOR 27 2 7 8 18
M TOR 28 3 2 1 8
M TOR 29 3 2 1 10
M TOR 30 3 2 7 6
M TOR 31 3 2 7 8
M TOR 32 3 2 7 17
M TOR 33 3 4 5 6
M TOR 34 3 4 8 7
M TOR 35 3 4 8 18
M TOR 36 4 3 2 7
M TOR 37 4 3 2 11
M TOR 38 4 5 6 7
M TOR 39 4 5 6 15
M TOR 40 4 5 6 16
M TOR 41 4 8 1 10
M TOR 42 4 8 7 6
M TOR 43 4 8 7 17
M TOR 44 5 4 3 12
M TOR 45 5 4 3 13
M TOR 46 5 4 8 7
M TOR 47 5 4 8 18
M TOR 48 5 6 7 8
M TOR 49 5 6 7 17
M TOR 50 6 5 4 8
M TOR 51 6 5 4 14
M TOR 52 6 7 2 11
M TOR 53 6 7 8 18
M TOR 54 7 2 1 10
M TOR 55 7 2 3 12
M TOR 56 7 2 3 13
M TOR 57 7 8 1 10
M TOR 58 7 8 4 14
M TOR 59 8 1 0 9
M TOR 60 8 1 2 11
M TOR 61 8 4 3 12
M TOR 62 8 4 3 13
M TOR 63 8 7 2 11
M TOR 64 8 7 6 15
M TOR 65 8 7 6 16
M  END
$$$$
