
     RDKit          3D

 19 21  0  0  0  0  0  0  0  0999 V2000
    0.3606    0.4058    0.2453 C   0  0  0  0  0  0  0  0  0  0  0  0
    0.9390   -0.7766   -0.5150 C   0  0  0  0  0  0  0  0  0  0  0  0
    2.3379   -0.5344   -0.8098 O   0  0  0  0  0  0  0  0  0  0  0  0
    3.0302   -1.6057   -0.1710 C   0  0  0  0  0  0  0  0  0  0  0  0
    2.2717   -1.8641    0.9981 O   0  0  0  0  0  0  0  0  0  0  0  0
    1.0322   -2.0938    0.3057 C   0  0  0  0  0  0  0  0  0  0  0  0
    1.3906   -3.2107   -0.6761 C   0  0  0  0  0  0  0  0  0  0  0  0
    2.5129   -4.1336   -0.2798 C   0  0  0  0  0  0  0  0  0  0  0  0
    2.8284   -2.8603   -1.0212 C   0  0  0  0  0  0  0  0  0  0  0  0
    0.8468    0.5017    1.2198 H   0  0  0  0  0  0  0  0  0  0  0  0
    0.5238    1.3308   -0.3146 H   0  0  0  0  0  0  0  0  0  0  0  0
   -0.7174    0.2801    0.3950 H   0  0  0  0  0  0  0  0  0  0  0  0
    0.4019   -0.9355   -1.4580 H   0  0  0  0  0  0  0  0  0  0  0  0
    4.0435   -1.2931    0.0798 H   0  0  0  0  0  0  0  0  0  0  0  0
    0.2297   -2.2713    1.0212 H   0  0  0  0  0  0  0  0  0  0  0  0
    0.6722   -3.4986   -1.4337 H   0  0  0  0  0  0  0  0  0  0  0  0
    2.7859   -4.2144    0.7658 H   0  0  0  0  0  0  0  0  0  0  0  0
    2.5967   -5.0520   -0.8506 H   0  0  0  0  0  0  0  0  0  0  0  0
    3.2047   -2.8683   -2.0358 H   0  0  0  0  0  0  0  0  0  0  0  0
  1  2  1  0
  2  3  1  0
  3  4  1  0
  4  5  1  0
  5  6  1  0
  6  7  1  0
  7  8  1  0
  8  9  1  0
  6  2  1  0
  9  7  1  0
  9  4  1  0
  1 10  1  0
  1 11  1  0
  1 12  1  0
  2 13  1  0
  4 14  1  0
  6 15  1  0
  7 16  1  0
  8 17  1  0
  8 18  1  0
  9 19  1  0
M  END
$$$$
