
     RDKit          3D

 19 19  0  0  0  0  0  0  0  0999 V2000
   -1.0424    0.8501   -1.0701 C   0  0  0  0  0  0  0  0  0  0  0  0
   -1.0258   -0.2659   -0.0241 C   0  0  0  0  0  0  0  0  0  0  0  0
   -2.0751   -1.1516   -0.3908 O   0  0  0  0  0  0  0  0  0  0  0  0
   -2.0369   -2.4044    0.2656 C   0  0  0  0  0  0  0  0  0  0  0  0
   -0.7923   -3.1905   -0.1535 C   0  0  0  0  0  0  0  0  0  0  0  0
    0.4113   -2.3088   -0.0318 C   0  0  0  0  0  0  0  0  0  0  0  0
    0.3139   -0.9753    0.0647 C   0  0  0  0  0  0  0  0  0  0  0  0
    1.5389   -0.1773    0.3192 C   0  0  0  0  0  0  0  0  0  0  0  0
    2.6656   -0.6205    0.3191 O   0  0  0  0  0  0  0  0  0  0  0  0
   -0.3445    1.6516   -0.8144 H   0  0  0  0  0  0  0  0  0  0  0  0
   -0.7756    0.4499   -2.0521 H   0  0  0  0  0  0  0  0  0  0  0  0
   -2.0481    1.2742   -1.1283 H   0  0  0  0  0  0  0  0  0  0  0  0
   -1.2554    0.1748    0.9648 H   0  0  0  0  0  0  0  0  0  0  0  0
   -2.0412   -2.2706    1.3596 H   0  0  0  0  0  0  0  0  0  0  0  0
   -2.9566   -2.9248   -0.0145 H   0  0  0  0  0  0  0  0  0  0  0  0
   -0.6722   -4.0874    0.4670 H   0  0  0  0  0  0  0  0  0  0  0  0
   -0.8989   -3.5449   -1.1881 H   0  0  0  0  0  0  0  0  0  0  0  0
    1.4010   -2.7555    0.0192 H   0  0  0  0  0  0  0  0  0  0  0  0
    1.3640    0.8994    0.5371 H   0  0  0  0  0  0  0  0  0  0  0  0
  1  2  1  0
  2  3  1  0
  3  4  1  0
  4  5  1  0
  5  6  1  0
  6  7  2  0
  7  8  1  0
  8  9  2  0
  7  2  1  0
  1 10  1  0
  1 11  1  0
  1 12  1  0
  2 13  1  0
  4 14  1  0
  4 15  1  0
  5 16  1  0
  5 17  1  0
  6 18  1  0
  8 19  1  0
M  END
$$$$
