
     RDKit          3D

 19 19  0  0  0  0  0  0  0  0999 V2000
   -3.3362    1.7761   -3.8221 C   0  0  0  0  0  0  0  0  0  0  0  0
   -2.1580    2.6824   -3.4368 C   0  0  0  0  0  0  0  0  0  0  0  0
   -1.2199    2.8042   -4.5042 O   0  0  0  0  0  0  0  0  0  0  0  0
   -1.5155    2.2336   -2.1962 C   0  0  0  0  0  0  0  0  0  0  0  0
   -0.9739    1.8329   -1.1960 C   0  0  0  0  0  0  0  0  0  0  0  0
   -0.3069    1.3614   -0.0021 C   0  0  0  0  0  0  0  0  0  0  0  0
    1.2298    1.5663    0.1308 C   0  0  0  0  0  0  0  0  0  0  0  0
    1.4268    0.1763    0.4484 O   0  0  0  0  0  0  0  0  0  0  0  0
    0.0651   -0.1447    0.1136 C   0  0  0  0  0  0  0  0  0  0  0  0
   -4.0965    1.7684   -3.0355 H   0  0  0  0  0  0  0  0  0  0  0  0
   -3.7845    2.1388   -4.7507 H   0  0  0  0  0  0  0  0  0  0  0  0
   -2.9940    0.7472   -3.9741 H   0  0  0  0  0  0  0  0  0  0  0  0
   -2.5344    3.7023   -3.2908 H   0  0  0  0  0  0  0  0  0  0  0  0
   -0.7575    1.9617   -4.5774 H   0  0  0  0  0  0  0  0  0  0  0  0
   -0.8325    1.7103    0.8914 H   0  0  0  0  0  0  0  0  0  0  0  0
    1.7178    1.8517   -0.8093 H   0  0  0  0  0  0  0  0  0  0  0  0
    1.5664    2.2284    0.9353 H   0  0  0  0  0  0  0  0  0  0  0  0
   -0.0126   -0.6907   -0.8350 H   0  0  0  0  0  0  0  0  0  0  0  0
   -0.4350   -0.7124    0.9054 H   0  0  0  0  0  0  0  0  0  0  0  0
  1  2  1  0
  2  3  1  0
  2  4  1  0
  4  5  3  0
  5  6  1  0
  6  7  1  0
  7  8  1  0
  8  9  1  0
  9  6  1  0
  1 10  1  0
  1 11  1  0
  1 12  1  0
  2 13  1  0
  3 14  1  0
  6 15  1  0
  7 16  1  0
  7 17  1  0
  9 18  1  0
  9 19  1  0
M  END
$$$$
