
     RDKit          3D

 19 20  0  0  0  0  0  0  0  0999 V2000
    1.2377   -0.1113    0.6492 O   0  0  0  0  0  0  0  0  0  0  0  0
    0.1114   -0.0593    0.2347 C   0  0  0  0  0  0  0  0  0  0  0  0
   -0.7257    1.2083    0.0382 C   0  0  0  0  0  0  0  0  0  0  0  0
   -1.9399    0.7897   -0.5523 O   0  0  0  0  0  0  0  0  0  0  0  0
   -2.1791   -0.5785   -0.2154 C   0  0  0  0  0  0  0  0  0  0  0  0
   -3.0594   -0.8540    1.0442 C   0  0  0  0  0  0  0  0  0  0  0  0
   -3.8405   -1.9028    0.2064 C   0  0  0  0  0  0  0  0  0  0  0  0
   -3.2633   -1.2499   -1.0803 C   0  0  0  0  0  0  0  0  0  0  0  0
   -0.7878   -1.2187   -0.1920 C   0  0  0  0  0  0  0  0  0  0  0  0
   -0.8791    1.6908    1.0170 H   0  0  0  0  0  0  0  0  0  0  0  0
   -0.2214    1.9254   -0.6174 H   0  0  0  0  0  0  0  0  0  0  0  0
   -2.5624   -1.1883    1.9588 H   0  0  0  0  0  0  0  0  0  0  0  0
   -3.6713    0.0239    1.2669 H   0  0  0  0  0  0  0  0  0  0  0  0
   -3.4641   -2.9176    0.3588 H   0  0  0  0  0  0  0  0  0  0  0  0
   -4.9261   -1.9165    0.3138 H   0  0  0  0  0  0  0  0  0  0  0  0
   -2.9284   -1.9003   -1.8923 H   0  0  0  0  0  0  0  0  0  0  0  0
   -3.9340   -0.4877   -1.4855 H   0  0  0  0  0  0  0  0  0  0  0  0
   -0.6757   -2.0788    0.4703 H   0  0  0  0  0  0  0  0  0  0  0  0
   -0.4851   -1.5237   -1.2022 H   0  0  0  0  0  0  0  0  0  0  0  0
  1  2  2  0
  2  3  1  0
  3  4  1  0
  4  5  1  0
  5  6  1  0
  6  7  1  0
  7  8  1  0
  5  9  1  0
  9  2  1  0
  8  5  1  0
  3 10  1  0
  3 11  1  0
  6 12  1  0
  6 13  1  0
  7 14  1  0
  7 15  1  0
  8 16  1  0
  8 17  1  0
  9 18  1  0
  9 19  1  0
M  END
$$$$
