gdb 5478	3.8396861	1.0573361	0.9713946	1.6723	75.82	-0.22298	0.06501	0.28799	1290.2915	0.154276	-422.463131	-422.454296	-422.453352	-422.496469	33.181
 OpenBabel02181911423D

 19 21  0  0  1  0  0  0  0  0999 V2000
    1.5168   -0.0326    0.0567 C   0  0  0  0  0  0  0  0  0  0  0  0
    0.1165    0.1396    0.1505 O   0  0  0  0  0  0  0  0  0  0  0  0
   -0.2674    0.7938    1.3176 C   0  0  1  0  0  0  0  0  0  0  0  0
   -1.6887    0.5270    1.7039 C   0  0  2  0  0  0  0  0  0  0  0  0
   -2.0979    1.3257    2.9750 C   0  0  2  0  0  0  0  0  0  0  0  0
   -0.9810    2.1146    3.4288 O   0  0  0  0  0  0  0  0  0  0  0  0
   -1.0251    0.7113    3.7586 C   0  0  1  0  0  0  0  0  0  0  0  0
   -0.8876    0.3055    5.1871 C   0  0  0  0  0  0  0  0  0  0  0  0
   -0.5507   -0.1033    2.5098 C   0  0  2  0  0  0  0  0  0  0  0  0
    1.9060   -0.6514    0.8780 H   0  0  0  0  0  0  0  0  0  0  0  0
    1.7160   -0.5313   -0.8945 H   0  0  0  0  0  0  0  0  0  0  0  0
    2.0437    0.9332    0.0716 H   0  0  0  0  0  0  0  0  0  0  0  0
    0.1785    1.7745    1.4644 H   0  0  0  0  0  0  0  0  0  0  0  0
   -2.3791    0.0399    1.0291 H   0  0  0  0  0  0  0  0  0  0  0  0
   -3.0903    1.6701    3.2428 H   0  0  0  0  0  0  0  0  0  0  0  0
   -1.2434   -0.7197    5.3333 H   0  0  0  0  0  0  0  0  0  0  0  0
    0.1612    0.3456    5.5032 H   0  0  0  0  0  0  0  0  0  0  0  0
   -1.4661    0.9752    5.8288 H   0  0  0  0  0  0  0  0  0  0  0  0
   -0.2480   -1.1420    2.5272 H   0  0  0  0  0  0  0  0  0  0  0  0
  1 12  1  0  0  0  0
  1  2  1  0  0  0  0
  1 10  1  0  0  0  0
  2  3  1  0  0  0  0
  3 13  1  1  0  0  0
  3  4  1  0  0  0  0
  3  9  1  0  0  0  0
  4 14  1  6  0  0  0
  4  9  1  0  0  0  0
  4  5  1  0  0  0  0
  5 15  1  1  0  0  0
  5  6  1  0  0  0  0
  5  7  1  0  0  0  0
  6  7  1  0  0  0  0
  7  8  1  1  0  0  0
  8 16  1  0  0  0  0
  8 17  1  0  0  0  0
  8 18  1  0  0  0  0
  9 19  1  1  0  0  0
  9  7  1  0  0  0  0
 11  1  1  0  0  0  0
M TOR 0 0 1 2 3
M TOR 1 0 1 2 8
M TOR 2 0 1 2 12
M TOR 3 1 2 3 4
M TOR 4 1 2 3 8
M TOR 5 1 2 3 13
M TOR 6 1 2 8 6
M TOR 7 1 2 8 18
M TOR 8 2 1 0 9
M TOR 9 2 1 0 10
M TOR 10 2 1 0 11
M TOR 11 2 3 4 5
M TOR 12 2 3 4 6
M TOR 13 2 3 4 14
M TOR 14 2 3 8 6
M TOR 15 2 3 8 18
M TOR 16 2 8 3 4
M TOR 17 2 8 3 13
M TOR 18 2 8 6 4
M TOR 19 2 8 6 5
M TOR 20 2 8 6 7
M TOR 21 3 4 5 6
M TOR 22 3 4 6 7
M TOR 23 3 4 6 8
M TOR 24 3 8 2 12
M TOR 25 3 8 6 5
M TOR 26 3 8 6 7
M TOR 27 4 3 2 12
M TOR 28 4 3 8 18
M TOR 29 4 5 6 7
M TOR 30 4 5 6 8
M TOR 31 4 6 7 15
M TOR 32 4 6 7 16
M TOR 33 4 6 7 17
M TOR 34 4 6 8 18
M TOR 35 5 4 3 8
M TOR 36 5 4 3 13
M TOR 37 5 6 4 14
M TOR 38 5 6 7 15
M TOR 39 5 6 7 16
M TOR 40 5 6 7 17
M TOR 41 5 6 8 18
M TOR 42 6 4 3 13
M TOR 43 6 8 2 12
M TOR 44 6 8 3 13
M TOR 45 7 6 4 14
M TOR 46 7 6 8 18
M TOR 47 8 3 4 14
M TOR 48 8 6 4 14
M TOR 49 8 6 7 15
M TOR 50 8 6 7 16
M TOR 51 8 6 7 17
M  END
$$$$
