gdb 1958	3.5193449	1.3121527	1.2050659	2.3165	76.07	-0.23337	0.08858	0.32195	1114.187	0.156065	-422.529095	-422.520858	-422.519914	-422.561551	31.903
 OpenBabel02181911403D

 19 21  0  0  1  0  0  0  0  0999 V2000
   -2.7338   -2.1990   -1.2822 C   0  0  0  0  0  0  0  0  0  0  0  0
   -2.0374   -1.0652   -0.5855 C   0  0  1  0  0  0  0  0  0  0  0  0
   -1.7802   -1.1038    0.9138 C   0  0  0  0  0  0  0  0  0  0  0  0
   -0.8345   -0.0709    1.1807 O   0  0  0  0  0  0  0  0  0  0  0  0
   -0.1161    0.2111   -0.0006 C   0  0  0  0  0  0  0  0  0  0  0  0
    0.7826    1.4009    0.0234 C   0  0  0  0  0  0  0  0  0  0  0  0
    1.3784    0.0035   -0.0256 C   0  0  0  0  0  0  0  0  0  0  0  0
   -0.9802   -0.2129   -1.1419 C   0  0  2  0  0  0  0  0  0  0  0  0
   -2.3300    0.2683   -1.0333 O   0  0  0  0  0  0  0  0  0  0  0  0
   -3.7611   -2.3062   -0.9166 H   0  0  0  0  0  0  0  0  0  0  0  0
   -2.7761   -2.0164   -2.3584 H   0  0  0  0  0  0  0  0  0  0  0  0
   -2.2132   -3.1459   -1.1054 H   0  0  0  0  0  0  0  0  0  0  0  0
   -2.6754   -0.9001    1.5105 H   0  0  0  0  0  0  0  0  0  0  0  0
   -1.3856   -2.0933    1.1957 H   0  0  0  0  0  0  0  0  0  0  0  0
    0.8387    2.0257   -0.8612 H   0  0  0  0  0  0  0  0  0  0  0  0
    0.8462    1.9363    0.9638 H   0  0  0  0  0  0  0  0  0  0  0  0
    1.8506   -0.3311   -0.9441 H   0  0  0  0  0  0  0  0  0  0  0  0
    1.8266   -0.3768    0.8852 H   0  0  0  0  0  0  0  0  0  0  0  0
   -0.5779   -0.3157   -2.1460 H   0  0  0  0  0  0  0  0  0  0  0  0
  1 12  1  0  0  0  0
  1 10  1  0  0  0  0
  2  1  1  6  0  0  0
  2  3  1  0  0  0  0
  3  4  1  0  0  0  0
  3 14  1  0  0  0  0
  3 13  1  0  0  0  0
  5  6  1  0  0  0  0
  5  4  1  0  0  0  0
  6 16  1  0  0  0  0
  7  5  1  0  0  0  0
  7  6  1  0  0  0  0
  7 18  1  0  0  0  0
  8 19  1  6  0  0  0
  8  9  1  0  0  0  0
  8  2  1  0  0  0  0
  8  5  1  0  0  0  0
  9  2  1  0  0  0  0
 11  1  1  0  0  0  0
 15  6  1  0  0  0  0
 17  7  1  0  0  0  0
M TOR 0 0 1 2 3
M TOR 1 0 1 2 12
M TOR 2 0 1 2 13
M TOR 3 0 1 7 4
M TOR 4 0 1 7 8
M TOR 5 0 1 7 18
M TOR 6 1 2 3 4
M TOR 7 1 7 4 3
M TOR 8 1 7 4 5
M TOR 9 1 7 4 6
M TOR 10 1 8 7 4
M TOR 11 1 8 7 18
M TOR 12 2 1 0 9
M TOR 13 2 1 0 10
M TOR 14 2 1 0 11
M TOR 15 2 1 7 4
M TOR 16 2 1 7 8
M TOR 17 2 1 7 18
M TOR 18 2 3 4 5
M TOR 19 2 3 4 6
M TOR 20 2 3 4 7
M TOR 21 3 2 1 7
M TOR 22 3 2 1 8
M TOR 23 3 4 5 6
M TOR 24 3 4 5 14
M TOR 25 3 4 5 15
M TOR 26 3 4 6 16
M TOR 27 3 4 6 17
M TOR 28 3 4 7 8
M TOR 29 3 4 7 18
M TOR 30 4 3 2 12
M TOR 31 4 3 2 13
M TOR 32 4 5 6 16
M TOR 33 4 5 6 17
M TOR 34 4 6 5 14
M TOR 35 4 6 5 15
M TOR 36 5 4 7 8
M TOR 37 5 4 7 18
M TOR 38 5 6 4 7
M TOR 39 6 4 7 8
M TOR 40 6 4 7 18
M TOR 41 7 1 0 9
M TOR 42 7 1 0 10
M TOR 43 7 1 0 11
M TOR 44 7 1 2 12
M TOR 45 7 1 2 13
M TOR 46 7 4 5 14
M TOR 47 7 4 5 15
M TOR 48 7 4 6 16
M TOR 49 7 4 6 17
M TOR 50 8 1 0 9
M TOR 51 8 1 0 10
M TOR 52 8 1 0 11
M TOR 53 8 1 2 12
M TOR 54 8 1 2 13
M  END
$$$$
