
     RDKit          3D

 19 21  0  0  0  0  0  0  0  0999 V2000
    0.0095   -0.3947    0.1945 C   0  0  0  0  0  0  0  0  0  0  0  0
    1.4876   -0.0872    0.0210 C   0  0  0  0  0  0  0  0  0  0  0  0
    1.9564    1.3716    0.2149 C   0  0  0  0  0  0  0  0  0  0  0  0
    2.9550    0.9750    1.1740 O   0  0  0  0  0  0  0  0  0  0  0  0
    2.4930   -0.3978    1.1778 C   0  0  0  0  0  0  0  0  0  0  0  0
    3.5830   -1.3633    0.6873 C   0  0  0  0  0  0  0  0  0  0  0  0
    3.3319   -1.4851   -0.8064 C   0  0  0  0  0  0  0  0  0  0  0  0
    2.1076   -2.1793   -1.0989 O   0  0  0  0  0  0  0  0  0  0  0  0
    2.1166   -0.7512   -1.1904 C   0  0  0  0  0  0  0  0  0  0  0  0
   -0.3697    0.0055    1.1401 H   0  0  0  0  0  0  0  0  0  0  0  0
   -0.5817    0.0474   -0.6159 H   0  0  0  0  0  0  0  0  0  0  0  0
   -0.1580   -1.4754    0.1815 H   0  0  0  0  0  0  0  0  0  0  0  0
    2.3959    1.8717   -0.6580 H   0  0  0  0  0  0  0  0  0  0  0  0
    1.1998    2.0321    0.6593 H   0  0  0  0  0  0  0  0  0  0  0  0
    2.0630   -0.6675    2.1491 H   0  0  0  0  0  0  0  0  0  0  0  0
    4.5671   -0.9369    0.9045 H   0  0  0  0  0  0  0  0  0  0  0  0
    3.5195   -2.3457    1.1662 H   0  0  0  0  0  0  0  0  0  0  0  0
    4.1454   -1.6773   -1.5015 H   0  0  0  0  0  0  0  0  0  0  0  0
    1.9566   -0.3427   -2.1873 H   0  0  0  0  0  0  0  0  0  0  0  0
  1  2  1  0
  2  3  1  0
  3  4  1  0
  4  5  1  0
  5  6  1  0
  6  7  1  0
  7  8  1  0
  8  9  1  0
  5  2  1  0
  9  7  1  0
  9  2  1  0
  1 10  1  0
  1 11  1  0
  1 12  1  0
  3 13  1  0
  3 14  1  0
  5 15  1  0
  6 16  1  0
  6 17  1  0
  7 18  1  0
  9 19  1  0
M  END
$$$$
