gdb 3774	4.2164206	0.9953518	0.9310541	0.4625	76.7	-0.24833	0.07053	0.31886	1330.0076	0.155447	-422.500424	-422.491792	-422.490848	-422.534061	32.068
 OpenBabel02181911413D

 19 21  0  0  1  0  0  0  0  0999 V2000
   -1.5015    3.4114   -9.8103 C   0  0  0  0  0  0  0  0  0  0  0  0
   -1.2936    3.4478   -8.3193 C   0  0  2  0  0  0  0  0  0  0  0  0
   -0.2766    4.3307   -7.8280 O   0  0  0  0  0  0  0  0  0  0  0  0
   -0.0793    2.9183   -7.6786 C   0  0  1  0  0  0  0  0  0  0  0  0
   -0.0778    2.4091   -6.2894 C   0  0  2  0  0  0  0  0  0  0  0  0
   -0.9239    2.8674   -5.0905 C   0  0  0  0  0  0  0  0  0  0  0  0
    0.2500    2.4137   -4.1519 C   0  0  0  0  0  0  0  0  0  0  0  0
    1.0255    1.9834   -5.4041 C   0  0  1  0  0  0  0  0  0  0  0  0
    0.2205    1.0186   -6.0955 O   0  0  0  0  0  0  0  0  0  0  0  0
   -2.0878    2.5310  -10.0938 H   0  0  0  0  0  0  0  0  0  0  0  0
   -2.0451    4.3010  -10.1450 H   0  0  0  0  0  0  0  0  0  0  0  0
   -0.5429    3.3780  -10.3350 H   0  0  0  0  0  0  0  0  0  0  0  0
   -2.2041    3.4614   -7.7175 H   0  0  0  0  0  0  0  0  0  0  0  0
    0.6960    2.4897   -8.3148 H   0  0  0  0  0  0  0  0  0  0  0  0
   -1.0789    3.9477   -5.0772 H   0  0  0  0  0  0  0  0  0  0  0  0
   -1.8788    2.3500   -4.9729 H   0  0  0  0  0  0  0  0  0  0  0  0
    0.7129    3.2514   -3.6259 H   0  0  0  0  0  0  0  0  0  0  0  0
    0.0341    1.6096   -3.4449 H   0  0  0  0  0  0  0  0  0  0  0  0
    2.0958    1.9427   -5.5735 H   0  0  0  0  0  0  0  0  0  0  0  0
  1  2  1  0  0  0  0
  2  3  1  0  0  0  0
  2 13  1  1  0  0  0
  2  4  1  0  0  0  0
  3  4  1  0  0  0  0
  4 14  1  6  0  0  0
  4  5  1  0  0  0  0
  5  9  1  6  0  0  0
  5  8  1  0  0  0  0
  5  6  1  0  0  0  0
  6 15  1  0  0  0  0
  6 16  1  0  0  0  0
  6  7  1  0  0  0  0
  7 17  1  0  0  0  0
  7 18  1  0  0  0  0
  8 19  1  6  0  0  0
  8  7  1  0  0  0  0
  9  8  1  0  0  0  0
 10  1  1  0  0  0  0
 11  1  1  0  0  0  0
 12  1  1  0  0  0  0
M TOR 0 0 1 2 3
M TOR 1 0 1 3 4
M TOR 2 0 1 3 13
M TOR 3 1 2 3 4
M TOR 4 1 2 3 13
M TOR 5 1 3 4 5
M TOR 6 1 3 4 7
M TOR 7 1 3 4 8
M TOR 8 2 1 0 9
M TOR 9 2 1 0 10
M TOR 10 2 1 0 11
M TOR 11 2 3 1 12
M TOR 12 2 3 4 5
M TOR 13 2 3 4 7
M TOR 14 2 3 4 8
M TOR 15 3 1 0 9
M TOR 16 3 1 0 10
M TOR 17 3 1 0 11
M TOR 18 3 4 5 6
M TOR 19 3 4 5 14
M TOR 20 3 4 5 15
M TOR 21 3 4 7 6
M TOR 22 3 4 7 8
M TOR 23 3 4 7 18
M TOR 24 4 3 1 12
M TOR 25 4 5 6 7
M TOR 26 4 5 6 16
M TOR 27 4 5 6 17
M TOR 28 4 7 6 16
M TOR 29 4 7 6 17
M TOR 30 4 8 7 6
M TOR 31 4 8 7 18
M TOR 32 5 4 3 13
M TOR 33 5 4 7 8
M TOR 34 5 4 7 18
M TOR 35 5 6 7 8
M TOR 36 5 6 7 18
M TOR 37 6 5 4 8
M TOR 38 7 4 3 13
M TOR 39 7 4 5 14
M TOR 40 7 4 5 15
M TOR 41 7 6 5 14
M TOR 42 7 6 5 15
M TOR 43 8 4 3 13
M TOR 44 8 4 5 14
M TOR 45 8 4 5 15
M TOR 46 8 7 6 16
M TOR 47 8 7 6 17
M  END
$$$$
