
     RDKit          3D

 19 20  0  0  0  0  0  0  0  0999 V2000
   -1.0213    1.9698   -1.1974 C   0  0  0  0  0  0  0  0  0  0  0  0
   -1.1650    1.0879    0.0368 C   0  0  0  0  0  0  0  0  0  0  0  0
   -1.2865    1.8481    1.2266 O   0  0  0  0  0  0  0  0  0  0  0  0
   -2.2565   -0.0309   -0.0322 C   0  0  0  0  0  0  0  0  0  0  0  0
   -1.1497   -1.1019   -0.0109 C   0  0  0  0  0  0  0  0  0  0  0  0
   -0.9927   -2.3502   -0.8579 C   0  0  0  0  0  0  0  0  0  0  0  0
   -1.1222   -2.4737    0.6252 C   0  0  0  0  0  0  0  0  0  0  0  0
   -0.1036   -0.0457    0.1540 C   0  0  0  0  0  0  0  0  0  0  0  0
    1.0798   -0.0418    0.3625 O   0  0  0  0  0  0  0  0  0  0  0  0
   -0.9781    1.3726   -2.1141 H   0  0  0  0  0  0  0  0  0  0  0  0
   -1.8710    2.6561   -1.2649 H   0  0  0  0  0  0  0  0  0  0  0  0
   -0.0996    2.5590   -1.1379 H   0  0  0  0  0  0  0  0  0  0  0  0
   -0.4242    2.2428    1.4040 H   0  0  0  0  0  0  0  0  0  0  0  0
   -2.8913   -0.0245    0.8557 H   0  0  0  0  0  0  0  0  0  0  0  0
   -2.8775   -0.0079   -0.9304 H   0  0  0  0  0  0  0  0  0  0  0  0
   -1.8403   -2.6275   -1.4760 H   0  0  0  0  0  0  0  0  0  0  0  0
   -0.0202   -2.5165   -1.3091 H   0  0  0  0  0  0  0  0  0  0  0  0
   -2.0572   -2.8410    1.0345 H   0  0  0  0  0  0  0  0  0  0  0  0
   -0.2372   -2.7195    1.2026 H   0  0  0  0  0  0  0  0  0  0  0  0
  1  2  1  0
  2  3  1  0
  2  4  1  0
  4  5  1  0
  5  6  1  0
  6  7  1  0
  5  8  1  0
  8  9  2  0
  8  2  1  0
  7  5  1  0
  1 10  1  0
  1 11  1  0
  1 12  1  0
  3 13  1  0
  4 14  1  0
  4 15  1  0
  6 16  1  0
  6 17  1  0
  7 18  1  0
  7 19  1  0
M  END
$$$$
