gdb 6046	7.6459222	0.5020131	0.4946381	2.0028	83.78	-0.24392	0.02771	0.27163	2225.6968	0.153918	-422.503816	-422.493053	-422.492109	-422.541658	36.145
 OpenBabel02181911423D

 19 19  0  0  1  0  0  0  0  0999 V2000
    1.5446    0.0208   -0.0248 C   0  0  0  0  0  0  0  0  0  0  0  0
    0.0900    0.0309   -0.0066 C   0  0  0  0  0  0  0  0  0  0  0  0
   -1.1144    0.0341    0.0019 C   0  0  0  0  0  0  0  0  0  0  0  0
   -2.5510    0.0452    0.0396 C   0  0  2  0  0  0  0  0  0  0  0  0
   -3.2479   -1.0119   -0.6503 O   0  0  0  0  0  0  0  0  0  0  0  0
   -3.3706    0.3170   -1.1603 C   0  0  1  0  0  0  0  0  0  0  0  0
   -4.7368    0.9507   -1.0818 C   0  0  0  0  0  0  0  0  0  0  0  0
   -5.6921    0.3899   -2.1428 C   0  0  0  0  0  0  0  0  0  0  0  0
   -6.9619    1.0201   -2.1211 O   0  0  0  0  0  0  0  0  0  0  0  0
    1.9547    0.1407    0.9838 H   0  0  0  0  0  0  0  0  0  0  0  0
    1.9244   -0.9246   -0.4273 H   0  0  0  0  0  0  0  0  0  0  0  0
    1.9425    0.8306   -0.6461 H   0  0  0  0  0  0  0  0  0  0  0  0
   -2.9910    0.2943    1.0055 H   0  0  0  0  0  0  0  0  0  0  0  0
   -2.8260    0.4771   -2.0927 H   0  0  0  0  0  0  0  0  0  0  0  0
   -5.1566    0.7770   -0.0830 H   0  0  0  0  0  0  0  0  0  0  0  0
   -4.6502    2.0353   -1.2193 H   0  0  0  0  0  0  0  0  0  0  0  0
   -5.2864    0.5751   -3.1436 H   0  0  0  0  0  0  0  0  0  0  0  0
   -5.7761   -0.7002   -2.0221 H   0  0  0  0  0  0  0  0  0  0  0  0
   -7.3947    0.7823   -1.2950 H   0  0  0  0  0  0  0  0  0  0  0  0
  1  2  1  0  0  0  0
  1 10  1  0  0  0  0
  2  3  3  0  0  0  0
  3  4  1  0  0  0  0
  4 13  1  1  0  0  0
  5  4  1  0  0  0  0
  6 14  1  6  0  0  0
  6  7  1  0  0  0  0
  6  5  1  0  0  0  0
  6  4  1  0  0  0  0
  7 15  1  0  0  0  0
  8  9  1  0  0  0  0
  8 18  1  0  0  0  0
  8  7  1  0  0  0  0
  9 19  1  0  0  0  0
 11  1  1  0  0  0  0
 12  1  1  0  0  0  0
 16  7  1  0  0  0  0
 17  8  1  0  0  0  0
M TOR 0 0 1 2 3
M TOR 1 1 2 3 4
M TOR 2 1 2 3 5
M TOR 3 1 2 3 12
M TOR 4 2 1 0 9
M TOR 5 2 1 0 10
M TOR 6 2 1 0 11
M TOR 7 2 3 4 5
M TOR 8 2 3 5 6
M TOR 9 2 3 5 13
M TOR 10 3 4 5 6
M TOR 11 3 4 5 13
M TOR 12 3 5 6 7
M TOR 13 3 5 6 14
M TOR 14 3 5 6 15
M TOR 15 4 5 3 12
M TOR 16 4 5 6 7
M TOR 17 4 5 6 14
M TOR 18 4 5 6 15
M TOR 19 5 6 7 8
M TOR 20 5 6 7 16
M TOR 21 5 6 7 17
M TOR 22 6 5 3 12
M TOR 23 6 7 8 18
M TOR 24 7 6 5 13
M TOR 25 8 7 6 14
M TOR 26 8 7 6 15
M  END
$$$$
