
     RDKit          3D

 19 21  0  0  0  0  0  0  0  0999 V2000
   -0.2854   -0.7743   -0.2679 C   0  0  0  0  0  0  0  0  0  0  0  0
    1.0288   -0.0360   -0.4902 C   0  0  0  0  0  0  0  0  0  0  0  0
    0.8633    1.4674   -0.8882 C   0  0  0  0  0  0  0  0  0  0  0  0
    2.3161    2.0182   -1.0430 C   0  0  0  0  0  0  0  0  0  0  0  0
    2.3910    1.0956   -2.2407 C   0  0  0  0  0  0  0  0  0  0  0  0
    3.3969    1.0598   -3.1800 O   0  0  0  0  0  0  0  0  0  0  0  0
    0.8807    1.0497   -2.4163 C   0  0  0  0  0  0  0  0  0  0  0  0
    1.5955   -0.1782   -1.8991 C   0  0  0  0  0  0  0  0  0  0  0  0
    1.8471   -1.3261   -2.6393 O   0  0  0  0  0  0  0  0  0  0  0  0
   -0.7507   -0.4707    0.6759 H   0  0  0  0  0  0  0  0  0  0  0  0
   -0.9917   -0.5681   -1.0792 H   0  0  0  0  0  0  0  0  0  0  0  0
   -0.1286   -1.8574   -0.2327 H   0  0  0  0  0  0  0  0  0  0  0  0
    1.7213   -0.2217    0.3430 H   0  0  0  0  0  0  0  0  0  0  0  0
    0.0877    2.0693   -0.4210 H   0  0  0  0  0  0  0  0  0  0  0  0
    2.3217    3.0712   -1.3392 H   0  0  0  0  0  0  0  0  0  0  0  0
    3.0104    1.8616   -0.2085 H   0  0  0  0  0  0  0  0  0  0  0  0
    3.3451    0.1944   -3.6092 H   0  0  0  0  0  0  0  0  0  0  0  0
    0.2135    1.2190   -3.2483 H   0  0  0  0  0  0  0  0  0  0  0  0
    2.5896   -1.7875   -2.2295 H   0  0  0  0  0  0  0  0  0  0  0  0
  1  2  1  0
  2  3  1  0
  3  4  1  0
  4  5  1  0
  5  6  1  0
  5  7  1  0
  7  8  1  0
  8  9  1  0
  8  2  1  0
  7  3  1  0
  8  5  1  0
  1 10  1  0
  1 11  1  0
  1 12  1  0
  2 13  1  0
  3 14  1  0
  4 15  1  0
  4 16  1  0
  6 17  1  0
  7 18  1  0
  9 19  1  0
M  END
$$$$
