
     RDKit          3D

 19 20  0  0  0  0  0  0  0  0999 V2000
   -2.3318    2.6786    1.5341 C   0  0  0  0  0  0  0  0  0  0  0  0
   -1.1296    2.2564    0.7226 C   0  0  0  0  0  0  0  0  0  0  0  0
   -1.1406    2.3299   -0.7702 C   0  0  0  0  0  0  0  0  0  0  0  0
   -1.1830    0.9741   -0.1016 C   0  0  0  0  0  0  0  0  0  0  0  0
   -2.2536   -0.1348   -0.1196 C   0  0  0  0  0  0  0  0  0  0  0  0
   -1.1272   -1.1927    0.1016 C   0  0  0  0  0  0  0  0  0  0  0  0
   -1.1010   -2.2641   -0.8067 O   0  0  0  0  0  0  0  0  0  0  0  0
   -0.1023   -0.0583   -0.1318 C   0  0  0  0  0  0  0  0  0  0  0  0
    1.0779   -0.0577   -0.3604 O   0  0  0  0  0  0  0  0  0  0  0  0
   -2.3678    2.1596    2.4980 H   0  0  0  0  0  0  0  0  0  0  0  0
   -2.3018    3.7548    1.7357 H   0  0  0  0  0  0  0  0  0  0  0  0
   -3.2648    2.4660    1.0030 H   0  0  0  0  0  0  0  0  0  0  0  0
   -0.1672    2.4341    1.1966 H   0  0  0  0  0  0  0  0  0  0  0  0
   -2.0536    2.6592   -1.2573 H   0  0  0  0  0  0  0  0  0  0  0  0
   -0.2231    2.5810   -1.2923 H   0  0  0  0  0  0  0  0  0  0  0  0
   -3.0203   -0.0944    0.6564 H   0  0  0  0  0  0  0  0  0  0  0  0
   -2.7247   -0.2656   -1.0963 H   0  0  0  0  0  0  0  0  0  0  0  0
   -1.0983   -1.5387    1.1478 H   0  0  0  0  0  0  0  0  0  0  0  0
   -0.1743   -2.4859   -0.9566 H   0  0  0  0  0  0  0  0  0  0  0  0
  1  2  1  0
  2  3  1  0
  3  4  1  0
  4  5  1  0
  5  6  1  0
  6  7  1  0
  6  8  1  0
  8  9  2  0
  4  2  1  0
  8  4  1  0
  1 10  1  0
  1 11  1  0
  1 12  1  0
  2 13  1  0
  3 14  1  0
  3 15  1  0
  5 16  1  0
  5 17  1  0
  6 18  1  0
  7 19  1  0
M  END
$$$$
