
     RDKit          3D

 19 21  0  0  0  0  0  0  0  0999 V2000
   -0.0040   -0.2587    0.2861 O   0  0  0  0  0  0  0  0  0  0  0  0
   -0.9866    0.5162    0.9241 C   0  0  0  0  0  0  0  0  0  0  0  0
   -1.1850    0.3926    2.4585 C   0  0  0  0  0  0  0  0  0  0  0  0
   -1.3153    1.9367    2.5402 C   0  0  0  0  0  0  0  0  0  0  0  0
   -2.7186    2.5009    2.4528 C   0  0  0  0  0  0  0  0  0  0  0  0
   -2.7136    3.9217    2.2777 O   0  0  0  0  0  0  0  0  0  0  0  0
   -2.9488    3.1014    1.1257 C   0  0  0  0  0  0  0  0  0  0  0  0
   -1.7127    2.9547    0.2470 C   0  0  0  0  0  0  0  0  0  0  0  0
   -0.7709    2.0574    1.0729 C   0  0  0  0  0  0  0  0  0  0  0  0
    0.8339   -0.1104    0.7373 H   0  0  0  0  0  0  0  0  0  0  0  0
   -1.9141    0.3051    0.3818 H   0  0  0  0  0  0  0  0  0  0  0  0
   -2.0225   -0.2161    2.8114 H   0  0  0  0  0  0  0  0  0  0  0  0
   -0.2726    0.0409    2.9512 H   0  0  0  0  0  0  0  0  0  0  0  0
   -0.7533    2.4260    3.3388 H   0  0  0  0  0  0  0  0  0  0  0  0
   -3.5213    2.1087    3.0753 H   0  0  0  0  0  0  0  0  0  0  0  0
   -3.9393    3.1989    0.6869 H   0  0  0  0  0  0  0  0  0  0  0  0
   -1.9587    2.4945   -0.7167 H   0  0  0  0  0  0  0  0  0  0  0  0
   -1.2864    3.9419    0.0413 H   0  0  0  0  0  0  0  0  0  0  0  0
    0.2856    2.3261    0.9911 H   0  0  0  0  0  0  0  0  0  0  0  0
  1  2  1  0
  2  3  1  0
  3  4  1  0
  4  5  1  0
  5  6  1  0
  6  7  1  0
  7  8  1  0
  8  9  1  0
  9  2  1  0
  9  4  1  0
  7  5  1  0
  1 10  1  0
  2 11  1  0
  3 12  1  0
  3 13  1  0
  4 14  1  0
  5 15  1  0
  7 16  1  0
  8 17  1  0
  8 18  1  0
  9 19  1  0
M  END
$$$$
