gdb 3631	3.0784157	1.1014597	0.8751898	3.6592	79.79	-0.23057	-0.02967	0.2009	1344.655	0.154357	-422.578195	-422.568619	-422.567674	-422.613133	34.001
 OpenBabel02181911413D

 19 19  0  0  1  0  0  0  0  0999 V2000
    0.2662    2.0636   -0.7987 C   0  0  0  0  0  0  0  0  0  0  0  0
   -0.3549    1.1889    0.2904 C   0  0  1  0  0  0  0  0  0  0  0  0
   -1.7860    1.2103    0.1725 O   0  0  0  0  0  0  0  0  0  0  0  0
   -2.3008   -0.1061    0.0368 C   0  0  2  0  0  0  0  0  0  0  0  0
   -3.2151   -0.4302    1.2200 C   0  0  0  0  0  0  0  0  0  0  0  0
   -4.1046   -1.2377    1.1844 O   0  0  0  0  0  0  0  0  0  0  0  0
   -1.0892   -1.0014    0.0523 C   0  0  0  0  0  0  0  0  0  0  0  0
    0.0156   -0.2772    0.2168 C   0  0  0  0  0  0  0  0  0  0  0  0
    1.4298   -0.7498    0.3167 C   0  0  0  0  0  0  0  0  0  0  0  0
    0.0536    1.6534   -1.7905 H   0  0  0  0  0  0  0  0  0  0  0  0
   -0.1497    3.0732   -0.7438 H   0  0  0  0  0  0  0  0  0  0  0  0
    1.3513    2.1344   -0.6710 H   0  0  0  0  0  0  0  0  0  0  0  0
   -0.0803    1.6062    1.2735 H   0  0  0  0  0  0  0  0  0  0  0  0
   -2.8942   -0.1998   -0.8844 H   0  0  0  0  0  0  0  0  0  0  0  0
   -2.9565    0.1441    2.1387 H   0  0  0  0  0  0  0  0  0  0  0  0
   -1.1596   -2.0778   -0.0373 H   0  0  0  0  0  0  0  0  0  0  0  0
    1.8892   -0.4169    1.2559 H   0  0  0  0  0  0  0  0  0  0  0  0
    1.4906   -1.8398    0.2754 H   0  0  0  0  0  0  0  0  0  0  0  0
    2.0452   -0.3432   -0.4945 H   0  0  0  0  0  0  0  0  0  0  0  0
  1 11  1  0  0  0  0
  1 12  1  0  0  0  0
  1  2  1  0  0  0  0
  2 13  1  1  0  0  0
  3  2  1  0  0  0  0
  4 14  1  6  0  0  0
  4  7  1  0  0  0  0
  4  3  1  0  0  0  0
  4  5  1  0  0  0  0
  5 15  1  0  0  0  0
  6  5  2  0  0  0  0
  7  8  2  0  0  0  0
  8  2  1  0  0  0  0
  8  9  1  0  0  0  0
  9 17  1  0  0  0  0
 10  1  1  0  0  0  0
 16  7  1  0  0  0  0
 18  9  1  0  0  0  0
 19  9  1  0  0  0  0
M TOR 0 0 1 2 3
M TOR 1 0 1 7 6
M TOR 2 0 1 7 8
M TOR 3 1 2 3 4
M TOR 4 1 2 3 6
M TOR 5 1 2 3 13
M TOR 6 1 7 6 3
M TOR 7 1 7 6 15
M TOR 8 1 7 8 16
M TOR 9 1 7 8 17
M TOR 10 1 7 8 18
M TOR 11 2 1 0 9
M TOR 12 2 1 0 10
M TOR 13 2 1 0 11
M TOR 14 2 1 7 6
M TOR 15 2 1 7 8
M TOR 16 2 3 4 5
M TOR 17 2 3 4 14
M TOR 18 2 3 6 7
M TOR 19 2 3 6 15
M TOR 20 3 2 1 7
M TOR 21 3 2 1 12
M TOR 22 3 6 7 8
M TOR 23 4 3 6 7
M TOR 24 4 3 6 15
M TOR 25 5 4 3 6
M TOR 26 5 4 3 13
M TOR 27 6 3 4 14
M TOR 28 6 7 1 12
M TOR 29 6 7 8 16
M TOR 30 6 7 8 17
M TOR 31 6 7 8 18
M TOR 32 7 1 0 9
M TOR 33 7 1 0 10
M TOR 34 7 1 0 11
M TOR 35 7 6 3 13
M TOR 36 8 7 1 12
M TOR 37 8 7 6 15
M  END
$$$$
