
     RDKit          3D

 19 19  0  0  0  0  0  0  0  0999 V2000
   -1.5897    4.1742    1.9142 C   0  0  0  0  0  0  0  0  0  0  0  0
   -2.0259    2.7328    1.7032 C   0  0  0  0  0  0  0  0  0  0  0  0
   -3.3660    2.4698    0.9435 C   0  0  0  0  0  0  0  0  0  0  0  0
   -2.6307    1.3746    0.1630 C   0  0  0  0  0  0  0  0  0  0  0  0
   -2.9780    0.4005   -0.4429 O   0  0  0  0  0  0  0  0  0  0  0  0
   -1.2574    1.8859    0.6289 C   0  0  0  0  0  0  0  0  0  0  0  0
   -0.2013    0.8631    1.0568 C   0  0  0  0  0  0  0  0  0  0  0  0
    0.3382    0.0757   -0.1242 C   0  0  0  0  0  0  0  0  0  0  0  0
    1.5052    0.0157   -0.4167 O   0  0  0  0  0  0  0  0  0  0  0  0
   -2.2631    4.6950    2.6029 H   0  0  0  0  0  0  0  0  0  0  0  0
   -0.5793    4.2267    2.3335 H   0  0  0  0  0  0  0  0  0  0  0  0
   -1.5883    4.7260    0.9672 H   0  0  0  0  0  0  0  0  0  0  0  0
   -2.0295    2.1925    2.6558 H   0  0  0  0  0  0  0  0  0  0  0  0
   -4.2454    2.1597    1.5124 H   0  0  0  0  0  0  0  0  0  0  0  0
   -3.6460    3.3048    0.2908 H   0  0  0  0  0  0  0  0  0  0  0  0
   -0.8481    2.5586   -0.1378 H   0  0  0  0  0  0  0  0  0  0  0  0
    0.6388    1.3477    1.5638 H   0  0  0  0  0  0  0  0  0  0  0  0
   -0.6601    0.1474    1.7536 H   0  0  0  0  0  0  0  0  0  0  0  0
   -0.4396   -0.4490   -0.7183 H   0  0  0  0  0  0  0  0  0  0  0  0
  1  2  1  0
  2  3  1  0
  3  4  1  0
  4  5  2  0
  4  6  1  0
  6  7  1  0
  7  8  1  0
  8  9  2  0
  6  2  1  0
  1 10  1  0
  1 11  1  0
  1 12  1  0
  2 13  1  0
  3 14  1  0
  3 15  1  0
  6 16  1  0
  7 17  1  0
  7 18  1  0
  8 19  1  0
M  END
$$$$
