
     RDKit          3D

 19 19  0  0  0  0  0  0  0  0999 V2000
   -0.0467   -0.1574    0.2086 C   0  0  0  0  0  0  0  0  0  0  0  0
    1.4418   -0.0203   -0.0990 C   0  0  0  0  0  0  0  0  0  0  0  0
    2.1732   -0.1828    1.1265 O   0  0  0  0  0  0  0  0  0  0  0  0
    3.5476   -0.4009    0.7830 C   0  0  0  0  0  0  0  0  0  0  0  0
    3.5485   -1.0395   -0.6306 C   0  0  0  0  0  0  0  0  0  0  0  0
    2.0490   -1.1643   -0.9674 C   0  0  0  0  0  0  0  0  0  0  0  0
    1.5193   -2.4231   -0.5989 O   0  0  0  0  0  0  0  0  0  0  0  0
    1.7253    1.2872   -0.7144 C   0  0  0  0  0  0  0  0  0  0  0  0
    1.9676    2.3467   -1.2290 C   0  0  0  0  0  0  0  0  0  0  0  0
   -0.2575   -1.1469    0.6157 H   0  0  0  0  0  0  0  0  0  0  0  0
   -0.3456    0.6042    0.9321 H   0  0  0  0  0  0  0  0  0  0  0  0
   -0.6319   -0.0221   -0.7042 H   0  0  0  0  0  0  0  0  0  0  0  0
    4.0914    0.5514    0.7889 H   0  0  0  0  0  0  0  0  0  0  0  0
    3.9738   -1.0454    1.5564 H   0  0  0  0  0  0  0  0  0  0  0  0
    4.0572   -0.3960   -1.3513 H   0  0  0  0  0  0  0  0  0  0  0  0
    4.0188   -2.0242   -0.6590 H   0  0  0  0  0  0  0  0  0  0  0  0
    1.8328   -1.0406   -2.0297 H   0  0  0  0  0  0  0  0  0  0  0  0
    1.6537   -2.5189    0.3520 H   0  0  0  0  0  0  0  0  0  0  0  0
    2.1739    3.2874   -1.6774 H   0  0  0  0  0  0  0  0  0  0  0  0
  1  2  1  0
  2  3  1  0
  3  4  1  0
  4  5  1  0
  5  6  1  0
  6  7  1  0
  2  8  1  0
  8  9  3  0
  6  2  1  0
  1 10  1  0
  1 11  1  0
  1 12  1  0
  4 13  1  0
  4 14  1  0
  5 15  1  0
  5 16  1  0
  6 17  1  0
  7 18  1  0
  9 19  1  0
M  END
$$$$
