
     RDKit          3D

 19 20  0  0  0  0  0  0  0  0999 V2000
    1.5407    0.1769    0.0508 C   0  0  0  0  0  0  0  0  0  0  0  0
    0.1315   -0.0301    0.0121 O   0  0  0  0  0  0  0  0  0  0  0  0
   -0.5301    0.5356    1.0680 C   0  0  0  0  0  0  0  0  0  0  0  0
   -0.8921    2.0210    1.0930 C   0  0  0  0  0  0  0  0  0  0  0  0
   -1.9982    1.0200    1.1481 C   0  0  0  0  0  0  0  0  0  0  0  0
   -2.1371    0.5023    2.5935 C   0  0  0  0  0  0  0  0  0  0  0  0
   -3.1525   -0.6122    2.8321 C   0  0  0  0  0  0  0  0  0  0  0  0
   -0.6896   -0.0570    2.4391 C   0  0  0  0  0  0  0  0  0  0  0  0
   -0.0634   -0.8666    3.0656 O   0  0  0  0  0  0  0  0  0  0  0  0
    1.9799   -0.2727    0.9486 H   0  0  0  0  0  0  0  0  0  0  0  0
    1.9523   -0.3074   -0.8367 H   0  0  0  0  0  0  0  0  0  0  0  0
    1.7856    1.2477    0.0267 H   0  0  0  0  0  0  0  0  0  0  0  0
   -0.6732    2.6503    1.9518 H   0  0  0  0  0  0  0  0  0  0  0  0
   -0.7255    2.4900    0.1282 H   0  0  0  0  0  0  0  0  0  0  0  0
   -2.7483    0.9174    0.3749 H   0  0  0  0  0  0  0  0  0  0  0  0
   -2.2505    1.2977    3.3388 H   0  0  0  0  0  0  0  0  0  0  0  0
   -2.9872   -1.0697    3.8113 H   0  0  0  0  0  0  0  0  0  0  0  0
   -4.1754   -0.2245    2.7995 H   0  0  0  0  0  0  0  0  0  0  0  0
   -3.0611   -1.3988    2.0759 H   0  0  0  0  0  0  0  0  0  0  0  0
  1  2  1  0
  2  3  1  0
  3  4  1  0
  4  5  1  0
  5  6  1  0
  6  7  1  0
  6  8  1  0
  8  9  2  0
  5  3  1  0
  8  3  1  0
  1 10  1  0
  1 11  1  0
  1 12  1  0
  4 13  1  0
  4 14  1  0
  5 15  1  0
  6 16  1  0
  7 17  1  0
  7 18  1  0
  7 19  1  0
M  END
$$$$
