gdb 407	3.0801179	1.5115693	1.2927506	2.6261	74.59	-0.24192	0.07811	0.32003	1037.3286	0.158146	-422.519744	-422.512113	-422.511169	-422.551805	30.04
 OpenBabel02181911403D

 19 21  0  0  1  0  0  0  0  0999 V2000
    0.5535    0.8045   -0.7460 C   0  0  0  0  0  0  0  0  0  0  0  0
    0.0687   -0.1707    0.1794 O   0  0  0  0  0  0  0  0  0  0  0  0
    1.4705    0.1462    0.1890 C   0  0  1  0  0  0  0  0  0  0  0  0
    2.3751   -0.9773   -0.2664 C   0  0  0  0  0  0  0  0  0  0  0  0
    2.4900   -1.9749    0.7354 O   0  0  0  0  0  0  0  0  0  0  0  0
    2.8966   -1.5149    1.9960 C   0  0  2  0  0  0  0  0  0  0  0  0
    1.8200   -1.2412    3.0123 C   0  0  0  0  0  0  0  0  0  0  0  0
    2.6097   -0.0935    2.4193 C   0  0  2  0  0  0  0  0  0  0  0  0
    1.9925    0.8696    1.4167 C   0  0  0  0  0  0  0  0  0  0  0  0
    0.5351    0.5052   -1.7937 H   0  0  0  0  0  0  0  0  0  0  0  0
    0.2414    1.8311   -0.5551 H   0  0  0  0  0  0  0  0  0  0  0  0
    1.9549   -1.4787   -1.1416 H   0  0  0  0  0  0  0  0  0  0  0  0
    3.3637   -0.5679   -0.5338 H   0  0  0  0  0  0  0  0  0  0  0  0
    3.8246   -1.9780    2.3233 H   0  0  0  0  0  0  0  0  0  0  0  0
    0.8027   -1.3792    2.6620 H   0  0  0  0  0  0  0  0  0  0  0  0
    1.9918   -1.5054    4.0499 H   0  0  0  0  0  0  0  0  0  0  0  0
    3.3490    0.3578    3.0743 H   0  0  0  0  0  0  0  0  0  0  0  0
    1.1844    1.4566    1.8659 H   0  0  0  0  0  0  0  0  0  0  0  0
    2.7663    1.5761    1.0885 H   0  0  0  0  0  0  0  0  0  0  0  0
  1 11  1  0  0  0  0
  1  2  1  0  0  0  0
  1  3  1  0  0  0  0
  3  2  1  1  0  0  0
  3  9  1  0  0  0  0
  4  3  1  0  0  0  0
  4  5  1  0  0  0  0
  5  6  1  0  0  0  0
  6 14  1  1  0  0  0
  6  8  1  0  0  0  0
  6  7  1  0  0  0  0
  7 16  1  0  0  0  0
  8  7  1  0  0  0  0
  8 17  1  1  0  0  0
  9 18  1  0  0  0  0
  9  8  1  0  0  0  0
 10  1  1  0  0  0  0
 12  4  1  0  0  0  0
 13  4  1  0  0  0  0
 15  7  1  0  0  0  0
 19  9  1  0  0  0  0
M TOR 0 0 1 2 3
M TOR 1 0 1 2 8
M TOR 2 0 2 3 4
M TOR 3 0 2 3 11
M TOR 4 0 2 3 12
M TOR 5 0 2 8 7
M TOR 6 0 2 8 17
M TOR 7 0 2 8 18
M TOR 8 1 2 0 9
M TOR 9 1 2 0 10
M TOR 10 1 2 3 4
M TOR 11 1 2 3 11
M TOR 12 1 2 3 12
M TOR 13 1 2 8 7
M TOR 14 1 2 8 17
M TOR 15 1 2 8 18
M TOR 16 2 3 4 5
M TOR 17 2 8 7 5
M TOR 18 2 8 7 6
M TOR 19 2 8 7 16
M TOR 20 3 2 0 9
M TOR 21 3 2 0 10
M TOR 22 3 2 8 7
M TOR 23 3 2 8 17
M TOR 24 3 2 8 18
M TOR 25 3 4 5 6
M TOR 26 3 4 5 7
M TOR 27 3 4 5 13
M TOR 28 4 3 2 8
M TOR 29 4 5 6 7
M TOR 30 4 5 6 14
M TOR 31 4 5 6 15
M TOR 32 4 5 7 8
M TOR 33 4 5 7 16
M TOR 34 5 4 3 11
M TOR 35 5 4 3 12
M TOR 36 5 6 7 8
M TOR 37 5 6 7 16
M TOR 38 5 7 6 14
M TOR 39 5 7 6 15
M TOR 40 5 7 8 17
M TOR 41 5 7 8 18
M TOR 42 6 7 5 13
M TOR 43 6 7 8 17
M TOR 44 6 7 8 18
M TOR 45 8 2 0 9
M TOR 46 8 2 0 10
M TOR 47 8 2 3 11
M TOR 48 8 2 3 12
M TOR 49 8 7 5 13
M TOR 50 8 7 6 14
M TOR 51 8 7 6 15
M  END
$$$$
