
     RDKit          3D

 19 20  0  0  0  0  0  0  0  0999 V2000
    1.5030    0.7026    0.2511 O   0  0  0  0  0  0  0  0  0  0  0  0
    0.3516   -0.1172    0.3610 C   0  0  0  0  0  0  0  0  0  0  0  0
   -0.8711    0.6660    0.7993 C   0  0  0  0  0  0  0  0  0  0  0  0
   -1.8308    0.0088    1.7784 C   0  0  0  0  0  0  0  0  0  0  0  0
   -3.2635    0.5258    1.8674 C   0  0  0  0  0  0  0  0  0  0  0  0
   -3.0999    1.9673    2.3112 C   0  0  0  0  0  0  0  0  0  0  0  0
   -1.8215    2.2891    2.5215 C   0  0  0  0  0  0  0  0  0  0  0  0
   -0.9111    1.1436    2.2261 C   0  0  0  0  0  0  0  0  0  0  0  0
    0.2652    0.9791    2.9661 O   0  0  0  0  0  0  0  0  0  0  0  0
    1.6716    1.0381    1.1396 H   0  0  0  0  0  0  0  0  0  0  0  0
    0.1842   -0.5469   -0.6325 H   0  0  0  0  0  0  0  0  0  0  0  0
    0.5261   -0.9523    1.0550 H   0  0  0  0  0  0  0  0  0  0  0  0
   -1.2804    1.3417    0.0522 H   0  0  0  0  0  0  0  0  0  0  0  0
   -1.6120   -1.0155    2.0584 H   0  0  0  0  0  0  0  0  0  0  0  0
   -3.7864    0.4604    0.9041 H   0  0  0  0  0  0  0  0  0  0  0  0
   -3.8662   -0.0502    2.5824 H   0  0  0  0  0  0  0  0  0  0  0  0
   -3.9404    2.6468    2.3953 H   0  0  0  0  0  0  0  0  0  0  0  0
   -1.4434    3.2568    2.8309 H   0  0  0  0  0  0  0  0  0  0  0  0
    0.0311    0.8196    3.8870 H   0  0  0  0  0  0  0  0  0  0  0  0
  1  2  1  0
  2  3  1  0
  3  4  1  0
  4  5  1  0
  5  6  1  0
  6  7  2  0
  7  8  1  0
  8  9  1  0
  8  3  1  0
  8  4  1  0
  1 10  1  0
  2 11  1  0
  2 12  1  0
  3 13  1  0
  4 14  1  0
  5 15  1  0
  5 16  1  0
  6 17  1  0
  7 18  1  0
  9 19  1  0
M  END
$$$$
