gdb 2706	2.4767809	1.8225577	1.2676624	1.5913	74.85	-0.23748	0.07269	0.31017	1029.1967	0.15555	-422.513685	-422.504998	-422.504054	-422.546111	33.94
 OpenBabel02181911413D

 19 21  0  0  1  0  0  0  0  0999 V2000
   -1.5161   -1.5054   -0.5542 C   0  0  0  0  0  0  0  0  0  0  0  0
   -1.8793   -0.1713    0.0357 C   0  0  2  0  0  0  0  0  0  0  0  0
   -3.1940    0.0651    0.8333 C   0  0  0  0  0  0  0  0  0  0  0  0
   -3.0602    1.5268    0.4152 C   0  0  2  0  0  0  0  0  0  0  0  0
   -2.1664    1.1786   -0.7623 C   0  0  1  0  0  0  0  0  0  0  0  0
   -1.5655    1.8752    0.4307 C   0  0  1  0  0  0  0  0  0  0  0  0
   -1.0987    3.1735    0.4417 O   0  0  0  0  0  0  0  0  0  0  0  0
   -0.8091    0.6228    0.8660 C   0  0  2  0  0  0  0  0  0  0  0  0
    0.5032    0.5471    0.3577 O   0  0  0  0  0  0  0  0  0  0  0  0
   -1.4494   -2.2679    0.2311 H   0  0  0  0  0  0  0  0  0  0  0  0
   -2.2625   -1.8393   -1.2825 H   0  0  0  0  0  0  0  0  0  0  0  0
   -0.5416   -1.4567   -1.0495 H   0  0  0  0  0  0  0  0  0  0  0  0
   -4.0533   -0.4162    0.3552 H   0  0  0  0  0  0  0  0  0  0  0  0
   -3.1840   -0.1857    1.9017 H   0  0  0  0  0  0  0  0  0  0  0  0
   -3.7930    2.3236    0.4571 H   0  0  0  0  0  0  0  0  0  0  0  0
   -2.2277    1.4427   -1.8080 H   0  0  0  0  0  0  0  0  0  0  0  0
   -1.2163    3.5346    1.3280 H   0  0  0  0  0  0  0  0  0  0  0  0
   -0.7416    0.3759    1.9330 H   0  0  0  0  0  0  0  0  0  0  0  0
    0.5411    1.0902   -0.4384 H   0  0  0  0  0  0  0  0  0  0  0  0
  1 10  1  0  0  0  0
  2  1  1  6  0  0  0
  2  3  1  0  0  0  0
  2  8  1  0  0  0  0
  3 14  1  0  0  0  0
  4  6  1  0  0  0  0
  4 15  1  6  0  0  0
  4  3  1  0  0  0  0
  5 16  1  6  0  0  0
  5  2  1  0  0  0  0
  5  4  1  0  0  0  0
  5  6  1  0  0  0  0
  6  7  1  6  0  0  0
  6  8  1  0  0  0  0
  7 17  1  0  0  0  0
  8 18  1  1  0  0  0
  9  8  1  0  0  0  0
 11  1  1  0  0  0  0
 12  1  1  0  0  0  0
 13  3  1  0  0  0  0
 19  9  1  0  0  0  0
M TOR 0 0 1 2 3
M TOR 1 0 1 2 12
M TOR 2 0 1 2 13
M TOR 3 0 1 4 3
M TOR 4 0 1 4 5
M TOR 5 0 1 4 15
M TOR 6 0 1 7 5
M TOR 7 0 1 7 8
M TOR 8 0 1 7 17
M TOR 9 1 2 3 4
M TOR 10 1 2 3 5
M TOR 11 1 2 3 14
M TOR 12 1 4 3 5
M TOR 13 1 4 3 14
M TOR 14 1 4 5 6
M TOR 15 1 4 5 7
M TOR 16 1 7 5 3
M TOR 17 1 7 5 6
M TOR 18 1 7 8 18
M TOR 19 2 1 0 9
M TOR 20 2 1 0 10
M TOR 21 2 1 0 11
M TOR 22 2 1 4 5
M TOR 23 2 1 4 15
M TOR 24 2 1 7 5
M TOR 25 2 1 7 8
M TOR 26 2 1 7 17
M TOR 27 2 3 4 5
M TOR 28 2 3 4 15
M TOR 29 2 3 5 6
M TOR 30 2 3 5 7
M TOR 31 3 2 1 7
M TOR 32 3 4 1 7
M TOR 33 3 4 5 6
M TOR 34 3 4 5 7
M TOR 35 3 5 4 15
M TOR 36 3 5 6 16
M TOR 37 3 5 7 8
M TOR 38 3 5 7 17
M TOR 39 4 1 0 9
M TOR 40 4 1 0 10
M TOR 41 4 1 0 11
M TOR 42 4 1 2 12
M TOR 43 4 1 2 13
M TOR 44 4 1 7 8
M TOR 45 4 1 7 17
M TOR 46 4 3 2 12
M TOR 47 4 3 2 13
M TOR 48 4 5 3 14
M TOR 49 4 5 6 16
M TOR 50 4 5 7 8
M TOR 51 4 5 7 17
M TOR 52 5 3 2 12
M TOR 53 5 3 2 13
M TOR 54 5 7 8 18
M TOR 55 6 5 3 14
M TOR 56 6 5 4 15
M TOR 57 6 5 7 8
M TOR 58 6 5 7 17
M TOR 59 7 1 0 9
M TOR 60 7 1 0 10
M TOR 61 7 1 0 11
M TOR 62 7 1 2 12
M TOR 63 7 1 2 13
M TOR 64 7 1 4 15
M TOR 65 7 5 3 14
M TOR 66 7 5 4 15
M TOR 67 7 5 6 16
M  END
$$$$
