gdb 230	3.1205109	1.6904287	1.3733989	1.4255	73.78	-0.24029	0.06339	0.30368	984.0349	0.158634	-422.512608	-422.505336	-422.504392	-422.54451	29.022
 OpenBabel02181911403D

 19 21  0  0  1  0  0  0  0  0999 V2000
    1.0493   -3.0832   -0.3525 C   0  0  0  0  0  0  0  0  0  0  0  0
    1.3047   -1.7726   -1.0506 C   0  0  2  0  0  0  0  0  0  0  0  0
    2.2092   -0.8950   -0.4450 O   0  0  0  0  0  0  0  0  0  0  0  0
    1.6097    0.2842    0.0584 C   0  0  1  0  0  0  0  0  0  0  0  0
    0.8790    1.2285   -0.9419 C   0  0  0  0  0  0  0  0  0  0  0  0
   -0.4633    0.9972   -0.1858 C   0  0  0  0  0  0  0  0  0  0  0  0
    0.2606    0.0519    0.8184 C   0  0  1  0  0  0  0  0  0  0  0  0
   -0.1494   -1.3011    0.8841 O   0  0  0  0  0  0  0  0  0  0  0  0
    0.0066   -1.9962   -0.3190 C   0  0  2  0  0  0  0  0  0  0  0  0
    0.8602   -3.9633   -0.9571 H   0  0  0  0  0  0  0  0  0  0  0  0
    1.5966   -3.2482    0.5682 H   0  0  0  0  0  0  0  0  0  0  0  0
    1.3110   -1.7490   -2.1387 H   0  0  0  0  0  0  0  0  0  0  0  0
    2.3878    0.7684    0.6522 H   0  0  0  0  0  0  0  0  0  0  0  0
    1.2489    2.2563   -0.9389 H   0  0  0  0  0  0  0  0  0  0  0  0
    0.8890    0.8659   -1.9720 H   0  0  0  0  0  0  0  0  0  0  0  0
   -0.9033    1.8855    0.2731 H   0  0  0  0  0  0  0  0  0  0  0  0
   -1.2368    0.4994   -0.7746 H   0  0  0  0  0  0  0  0  0  0  0  0
    0.2565    0.4016    1.8529 H   0  0  0  0  0  0  0  0  0  0  0  0
   -0.9129   -2.1320   -0.8854 H   0  0  0  0  0  0  0  0  0  0  0  0
  1  9  1  0  0  0  0
  1 11  1  0  0  0  0
  2 12  1  6  0  0  0
  2  3  1  0  0  0  0
  2  1  1  0  0  0  0
  2  9  1  0  0  0  0
  3  4  1  0  0  0  0
  4 13  1  1  0  0  0
  4  7  1  0  0  0  0
  5 14  1  0  0  0  0
  5  6  1  0  0  0  0
  5  4  1  0  0  0  0
  6 16  1  0  0  0  0
  6  7  1  0  0  0  0
  7  8  1  0  0  0  0
  7 18  1  1  0  0  0
  9 19  1  6  0  0  0
  9  8  1  0  0  0  0
 10  1  1  0  0  0  0
 15  5  1  0  0  0  0
 17  6  1  0  0  0  0
M TOR 0 0 1 2 3
M TOR 1 0 1 8 7
M TOR 2 0 1 8 18
M TOR 3 0 8 1 2
M TOR 4 0 8 1 11
M TOR 5 0 8 7 6
M TOR 6 1 2 3 4
M TOR 7 1 2 3 6
M TOR 8 1 2 3 12
M TOR 9 1 8 0 9
M TOR 10 1 8 0 10
M TOR 11 1 8 7 6
M TOR 12 2 1 0 9
M TOR 13 2 1 0 10
M TOR 14 2 1 8 7
M TOR 15 2 1 8 18
M TOR 16 2 3 4 5
M TOR 17 2 3 4 13
M TOR 18 2 3 4 14
M TOR 19 2 3 6 5
M TOR 20 2 3 6 7
M TOR 21 2 3 6 17
M TOR 22 3 2 1 8
M TOR 23 3 2 1 11
M TOR 24 3 4 5 6
M TOR 25 3 4 5 15
M TOR 26 3 4 5 16
M TOR 27 3 6 5 15
M TOR 28 3 6 5 16
M TOR 29 3 6 7 8
M TOR 30 4 3 6 7
M TOR 31 4 3 6 17
M TOR 32 4 5 6 7
M TOR 33 4 5 6 17
M TOR 34 5 4 3 12
M TOR 35 5 6 3 12
M TOR 36 5 6 7 8
M TOR 37 6 3 4 13
M TOR 38 6 3 4 14
M TOR 39 6 5 4 13
M TOR 40 6 5 4 14
M TOR 41 6 7 8 18
M TOR 42 7 6 3 12
M TOR 43 7 6 5 15
M TOR 44 7 6 5 16
M TOR 45 7 8 0 9
M TOR 46 7 8 0 10
M TOR 47 7 8 1 11
M TOR 48 8 7 6 17
M  END
$$$$
