
     RDKit          3D

 19 19  0  0  0  0  0  0  0  0999 V2000
    1.4972    3.0101    2.6786 C   0  0  0  0  0  0  0  0  0  0  0  0
    0.9879    2.9710    1.2551 C   0  0  0  0  0  0  0  0  0  0  0  0
   -0.2785    3.6904    0.8683 C   0  0  0  0  0  0  0  0  0  0  0  0
   -0.2519    2.1792    0.9031 C   0  0  0  0  0  0  0  0  0  0  0  0
   -0.3309    1.3843   -0.3981 C   0  0  0  0  0  0  0  0  0  0  0  0
    0.2639    0.0001   -0.1935 C   0  0  0  0  0  0  0  0  0  0  0  0
   -0.3159   -1.0318   -0.4141 O   0  0  0  0  0  0  0  0  0  0  0  0
   -1.7697    1.3109   -0.8873 C   0  0  0  0  0  0  0  0  0  0  0  0
   -2.1692    1.8668   -1.8763 O   0  0  0  0  0  0  0  0  0  0  0  0
    2.1312    2.1450    2.9016 H   0  0  0  0  0  0  0  0  0  0  0  0
    2.0882    3.9143    2.8596 H   0  0  0  0  0  0  0  0  0  0  0  0
    0.6679    3.0087    3.3937 H   0  0  0  0  0  0  0  0  0  0  0  0
    1.7687    2.9691    0.4981 H   0  0  0  0  0  0  0  0  0  0  0  0
   -0.8335    4.2010    1.6482 H   0  0  0  0  0  0  0  0  0  0  0  0
   -0.3301    4.1704   -0.1030 H   0  0  0  0  0  0  0  0  0  0  0  0
   -0.7688    1.7122    1.7386 H   0  0  0  0  0  0  0  0  0  0  0  0
    0.2608    1.8987   -1.1669 H   0  0  0  0  0  0  0  0  0  0  0  0
    1.3039    0.0085    0.2036 H   0  0  0  0  0  0  0  0  0  0  0  0
   -2.4499    0.7249   -0.2334 H   0  0  0  0  0  0  0  0  0  0  0  0
  1  2  1  0
  2  3  1  0
  3  4  1  0
  4  5  1  0
  5  6  1  0
  6  7  2  0
  5  8  1  0
  8  9  2  0
  4  2  1  0
  1 10  1  0
  1 11  1  0
  1 12  1  0
  2 13  1  0
  3 14  1  0
  3 15  1  0
  4 16  1  0
  5 17  1  0
  6 18  1  0
  8 19  1  0
M  END
$$$$
