gdb 2348	3.0370725	1.4307379	1.1766994	2.4186	75.53	-0.23812	0.0564	0.29452	1095.0238	0.156329	-422.505116	-422.496893	-422.495949	-422.537879	31.943
 OpenBabel02181911413D

 19 21  0  0  1  0  0  0  0  0999 V2000
   -3.0263   -1.0432    0.5377 O   0  0  0  0  0  0  0  0  0  0  0  0
   -1.6566   -0.9455    0.3191 C   0  0  1  0  0  0  0  0  0  0  0  0
   -0.9744   -2.3144    0.1599 C   0  0  0  0  0  0  0  0  0  0  0  0
   -0.3290   -1.9197   -1.0729 O   0  0  0  0  0  0  0  0  0  0  0  0
   -0.9110   -0.6027   -1.0225 C   0  0  2  0  0  0  0  0  0  0  0  0
   -0.0617    0.4066   -0.2455 C   0  0  0  0  0  0  0  0  0  0  0  0
    0.4239    1.7347   -0.7533 C   0  0  0  0  0  0  0  0  0  0  0  0
    1.4065    0.6337   -0.4331 C   0  0  0  0  0  0  0  0  0  0  0  0
   -0.8248    0.1323    1.0651 C   0  0  0  0  0  0  0  0  0  0  0  0
   -3.3861   -0.1567    0.6462 H   0  0  0  0  0  0  0  0  0  0  0  0
   -0.2584   -2.6035    0.9387 H   0  0  0  0  0  0  0  0  0  0  0  0
   -1.6934   -3.1255   -0.0028 H   0  0  0  0  0  0  0  0  0  0  0  0
   -1.3635   -0.3030   -1.9718 H   0  0  0  0  0  0  0  0  0  0  0  0
    0.2444    1.9764   -1.7964 H   0  0  0  0  0  0  0  0  0  0  0  0
    0.3713    2.5872   -0.0828 H   0  0  0  0  0  0  0  0  0  0  0  0
    1.8929    0.1152   -1.2525 H   0  0  0  0  0  0  0  0  0  0  0  0
    2.0205    0.7423    0.4552 H   0  0  0  0  0  0  0  0  0  0  0  0
   -0.2445   -0.2141    1.9259 H   0  0  0  0  0  0  0  0  0  0  0  0
   -1.4447    0.9792    1.3848 H   0  0  0  0  0  0  0  0  0  0  0  0
  1 10  1  0  0  0  0
  2  1  1  1  0  0  0
  2  9  1  0  0  0  0
  3  2  1  0  0  0  0
  3 11  1  0  0  0  0
  4  5  1  0  0  0  0
  4  3  1  0  0  0  0
  5 13  1  6  0  0  0
  5  6  1  0  0  0  0
  5  2  1  0  0  0  0
  6  9  1  0  0  0  0
  7  8  1  0  0  0  0
  7  6  1  0  0  0  0
  7 15  1  0  0  0  0
  8  6  1  0  0  0  0
  8 17  1  0  0  0  0
  9 19  1  0  0  0  0
  9 18  1  0  0  0  0
 12  3  1  0  0  0  0
 14  7  1  0  0  0  0
 16  8  1  0  0  0  0
M TOR 0 0 1 2 3
M TOR 1 0 1 2 10
M TOR 2 0 1 2 11
M TOR 3 0 1 4 3
M TOR 4 0 1 4 5
M TOR 5 0 1 4 12
M TOR 6 0 1 8 5
M TOR 7 0 1 8 17
M TOR 8 0 1 8 18
M TOR 9 1 2 3 4
M TOR 10 1 4 5 6
M TOR 11 1 4 5 7
M TOR 12 1 4 5 8
M TOR 13 1 8 5 6
M TOR 14 1 8 5 7
M TOR 15 2 1 0 9
M TOR 16 2 1 4 5
M TOR 17 2 1 4 12
M TOR 18 2 1 8 5
M TOR 19 2 1 8 17
M TOR 20 2 1 8 18
M TOR 21 2 3 4 5
M TOR 22 2 3 4 12
M TOR 23 3 2 1 8
M TOR 24 3 4 1 8
M TOR 25 3 4 5 6
M TOR 26 3 4 5 7
M TOR 27 3 4 5 8
M TOR 28 4 1 0 9
M TOR 29 4 1 2 10
M TOR 30 4 1 2 11
M TOR 31 4 1 8 17
M TOR 32 4 1 8 18
M TOR 33 4 3 2 10
M TOR 34 4 3 2 11
M TOR 35 4 5 6 7
M TOR 36 4 5 6 13
M TOR 37 4 5 6 14
M TOR 38 4 5 7 15
M TOR 39 4 5 7 16
M TOR 40 4 5 8 17
M TOR 41 4 5 8 18
M TOR 42 5 6 7 15
M TOR 43 5 6 7 16
M TOR 44 5 7 6 13
M TOR 45 5 7 6 14
M TOR 46 6 5 4 12
M TOR 47 6 5 8 17
M TOR 48 6 5 8 18
M TOR 49 6 7 5 8
M TOR 50 7 5 4 12
M TOR 51 7 5 8 17
M TOR 52 7 5 8 18
M TOR 53 8 1 0 9
M TOR 54 8 1 2 10
M TOR 55 8 1 2 11
M TOR 56 8 1 4 12
M TOR 57 8 5 4 12
M TOR 58 8 5 6 13
M TOR 59 8 5 6 14
M TOR 60 8 5 7 15
M TOR 61 8 5 7 16
M  END
$$$$
