
     RDKit          3D

 19 21  0  0  0  0  0  0  0  0999 V2000
   -1.3618    3.2602   -1.5570 C   0  0  0  0  0  0  0  0  0  0  0  0
   -2.3319    2.1144   -1.6706 C   0  0  0  0  0  0  0  0  0  0  0  0
   -0.8609    1.8411   -1.4552 C   0  0  0  0  0  0  0  0  0  0  0  0
   -0.4036    1.3060   -0.1340 C   0  0  0  0  0  0  0  0  0  0  0  0
    1.0176    1.5690    0.1086 O   0  0  0  0  0  0  0  0  0  0  0  0
    1.3257    0.1692    0.1676 C   0  0  0  0  0  0  0  0  0  0  0  0
    1.1606   -0.4458    1.5674 C   0  0  0  0  0  0  0  0  0  0  0  0
   -0.2457   -0.7142    1.3200 O   0  0  0  0  0  0  0  0  0  0  0  0
   -0.1530   -0.2148   -0.0249 C   0  0  0  0  0  0  0  0  0  0  0  0
   -1.1177    3.8222   -2.4511 H   0  0  0  0  0  0  0  0  0  0  0  0
   -1.3784    3.8537   -0.6491 H   0  0  0  0  0  0  0  0  0  0  0  0
   -3.0072    1.9359   -0.8401 H   0  0  0  0  0  0  0  0  0  0  0  0
   -2.7547    1.8856   -2.6421 H   0  0  0  0  0  0  0  0  0  0  0  0
   -0.3046    1.4620   -2.3084 H   0  0  0  0  0  0  0  0  0  0  0  0
   -1.0251    1.6925    0.6840 H   0  0  0  0  0  0  0  0  0  0  0  0
    2.1834   -0.1098   -0.4468 H   0  0  0  0  0  0  0  0  0  0  0  0
    1.7151   -1.3778    1.7353 H   0  0  0  0  0  0  0  0  0  0  0  0
    1.3232    0.2452    2.4013 H   0  0  0  0  0  0  0  0  0  0  0  0
   -0.5916   -0.8831   -0.7685 H   0  0  0  0  0  0  0  0  0  0  0  0
  1  2  1  0
  2  3  1  0
  3  4  1  0
  4  5  1  0
  5  6  1  0
  6  7  1  0
  7  8  1  0
  8  9  1  0
  3  1  1  0
  9  4  1  0
  9  6  1  0
  1 10  1  0
  1 11  1  0
  2 12  1  0
  2 13  1  0
  3 14  1  0
  4 15  1  0
  6 16  1  0
  7 17  1  0
  7 18  1  0
  9 19  1  0
M  END
$$$$
