
     RDKit          3D

 19 21  0  0  0  0  0  0  0  0999 V2000
   -0.0316    0.6289   -0.1357 O   0  0  0  0  0  0  0  0  0  0  0  0
   -0.8281    0.0022    0.8508 C   0  0  0  0  0  0  0  0  0  0  0  0
   -1.0007    0.7866    2.1970 C   0  0  0  0  0  0  0  0  0  0  0  0
   -2.0870    1.9153    1.9358 C   0  0  0  0  0  0  0  0  0  0  0  0
   -2.9553    0.6614    1.6644 C   0  0  0  0  0  0  0  0  0  0  0  0
   -4.2202   -0.0239    1.1189 C   0  0  0  0  0  0  0  0  0  0  0  0
   -3.3526   -0.9174    0.3408 O   0  0  0  0  0  0  0  0  0  0  0  0
   -2.3084    0.0969    0.4182 C   0  0  0  0  0  0  0  0  0  0  0  0
   -2.1617   -0.0403    2.7965 C   0  0  0  0  0  0  0  0  0  0  0  0
    0.8759    0.6541    0.1833 H   0  0  0  0  0  0  0  0  0  0  0  0
   -0.4858   -1.0220    1.0516 H   0  0  0  0  0  0  0  0  0  0  0  0
   -0.0939    1.0094    2.7627 H   0  0  0  0  0  0  0  0  0  0  0  0
   -2.3081    2.4582    2.8576 H   0  0  0  0  0  0  0  0  0  0  0  0
   -1.9275    2.6079    1.1062 H   0  0  0  0  0  0  0  0  0  0  0  0
   -4.8477   -0.5756    1.8247 H   0  0  0  0  0  0  0  0  0  0  0  0
   -4.8424    0.5911    0.4560 H   0  0  0  0  0  0  0  0  0  0  0  0
   -2.3672    0.7444   -0.4670 H   0  0  0  0  0  0  0  0  0  0  0  0
   -2.4696    0.3027    3.7875 H   0  0  0  0  0  0  0  0  0  0  0  0
   -2.0889   -1.1307    2.7726 H   0  0  0  0  0  0  0  0  0  0  0  0
  1  2  1  0
  2  3  1  0
  3  4  1  0
  4  5  1  0
  5  6  1  0
  6  7  1  0
  7  8  1  0
  5  9  1  0
  8  2  1  0
  9  3  1  0
  8  5  1  0
  1 10  1  0
  2 11  1  0
  3 12  1  0
  4 13  1  0
  4 14  1  0
  6 15  1  0
  6 16  1  0
  8 17  1  0
  9 18  1  0
  9 19  1  0
M  END
$$$$
