gdb 1144	3.2900074	1.2196965	0.9259856	2.5484	77.27	-0.24328	-0.01348	0.2298	1257.4296	0.155958	-422.579965	-422.571023	-422.570079	-422.614501	32.612
 OpenBabel02181911403D

 19 19  0  0  1  0  0  0  0  0999 V2000
    0.1026    5.7236   -0.1716 C   0  0  0  0  0  0  0  0  0  0  0  0
   -0.5640    4.4019   -0.4780 C   0  0  0  0  0  0  0  0  0  0  0  0
   -1.4329    4.2795   -1.3107 O   0  0  0  0  0  0  0  0  0  0  0  0
   -0.0732    3.1718    0.2936 C   0  0  2  0  0  0  0  0  0  0  0  0
   -1.1934    2.1674    0.5828 C   0  0  0  0  0  0  0  0  0  0  0  0
   -0.6957    1.1151    1.5368 C   0  0  0  0  0  0  0  0  0  0  0  0
    0.4227    1.2789    2.2390 C   0  0  0  0  0  0  0  0  0  0  0  0
    1.2324    2.5434    2.1629 C   0  0  0  0  0  0  0  0  0  0  0  0
    0.5597    3.5947    1.4898 O   0  0  0  0  0  0  0  0  0  0  0  0
    1.1893    5.6372   -0.2751 H   0  0  0  0  0  0  0  0  0  0  0  0
   -0.2855    6.4911   -0.8419 H   0  0  0  0  0  0  0  0  0  0  0  0
   -0.0817    5.9965    0.8720 H   0  0  0  0  0  0  0  0  0  0  0  0
    0.6731    2.6841   -0.3627 H   0  0  0  0  0  0  0  0  0  0  0  0
   -2.0653    2.6899    0.9982 H   0  0  0  0  0  0  0  0  0  0  0  0
   -1.5309    1.7227   -0.3583 H   0  0  0  0  0  0  0  0  0  0  0  0
   -1.2785    0.2030    1.6324 H   0  0  0  0  0  0  0  0  0  0  0  0
    0.7968    0.5029    2.9012 H   0  0  0  0  0  0  0  0  0  0  0  0
    1.4502    2.9225    3.1684 H   0  0  0  0  0  0  0  0  0  0  0  0
    2.2075    2.3427    1.6813 H   0  0  0  0  0  0  0  0  0  0  0  0
  1 12  1  0  0  0  0
  2  1  1  0  0  0  0
  2  4  1  0  0  0  0
  3  2  2  0  0  0  0
  4 13  1  6  0  0  0
  4  5  1  0  0  0  0
  4  9  1  0  0  0  0
  5 14  1  0  0  0  0
  5  6  1  0  0  0  0
  6 16  1  0  0  0  0
  6  7  2  0  0  0  0
  7 17  1  0  0  0  0
  8  7  1  0  0  0  0
  8 18  1  0  0  0  0
  9  8  1  0  0  0  0
 10  1  1  0  0  0  0
 11  1  1  0  0  0  0
 15  5  1  0  0  0  0
 19  8  1  0  0  0  0
M TOR 0 0 1 3 4
M TOR 1 0 1 3 8
M TOR 2 0 1 3 12
M TOR 3 1 3 4 5
M TOR 4 1 3 4 13
M TOR 5 1 3 4 14
M TOR 6 1 3 8 7
M TOR 7 2 1 0 9
M TOR 8 2 1 0 10
M TOR 9 2 1 0 11
M TOR 10 2 1 3 4
M TOR 11 2 1 3 8
M TOR 12 2 1 3 12
M TOR 13 3 1 0 9
M TOR 14 3 1 0 10
M TOR 15 3 1 0 11
M TOR 16 3 4 5 6
M TOR 17 3 4 5 15
M TOR 18 3 8 7 6
M TOR 19 3 8 7 17
M TOR 20 3 8 7 18
M TOR 21 4 3 8 7
M TOR 22 4 5 6 7
M TOR 23 4 5 6 16
M TOR 24 5 4 3 8
M TOR 25 5 4 3 12
M TOR 26 5 6 7 8
M TOR 27 5 6 7 17
M TOR 28 5 6 7 18
M TOR 29 6 5 4 13
M TOR 30 6 5 4 14
M TOR 31 7 6 5 15
M TOR 32 7 8 3 12
M TOR 33 8 3 4 13
M TOR 34 8 3 4 14
M TOR 35 8 7 6 16
M  END
$$$$
