gdb 4006	4.2038716	1.0255581	1.0183362	2.0279	75.48	-0.243	0.06618	0.30918	1233.2612	0.156807	-422.493941	-422.485671	-422.484727	-422.526946	31.204
 OpenBabel02181911413D

 19 21  0  0  1  0  0  0  0  0999 V2000
    0.5821    0.6535    0.0951 O   0  0  0  0  0  0  0  0  0  0  0  0
   -0.5748    0.9568    0.8442 C   0  0  2  0  0  0  0  0  0  0  0  0
   -1.7869   -0.0035    0.5764 C   0  0  0  0  0  0  0  0  0  0  0  0
   -2.5383    1.1580   -0.0869 C   0  0  2  0  0  0  0  0  0  0  0  0
   -1.3449    2.0933    0.1728 C   0  0  1  0  0  0  0  0  0  0  0  0
   -2.6530    2.3051    0.8615 C   0  0  0  0  0  0  0  0  0  0  0  0
   -3.5627    3.5191    0.6836 C   0  0  0  0  0  0  0  0  0  0  0  0
   -3.8844    3.5091    2.0906 O   0  0  0  0  0  0  0  0  0  0  0  0
   -3.0323    2.3695    2.3424 C   0  0  0  0  0  0  0  0  0  0  0  0
    0.9960   -0.1227    0.4866 H   0  0  0  0  0  0  0  0  0  0  0  0
   -0.3224    1.1196    1.9033 H   0  0  0  0  0  0  0  0  0  0  0  0
   -1.4859   -0.7720   -0.1388 H   0  0  0  0  0  0  0  0  0  0  0  0
   -2.2692   -0.4759    1.4394 H   0  0  0  0  0  0  0  0  0  0  0  0
   -3.1752    1.0834   -0.9614 H   0  0  0  0  0  0  0  0  0  0  0  0
   -0.8895    2.8454   -0.4612 H   0  0  0  0  0  0  0  0  0  0  0  0
   -3.0674    4.4517    0.3823 H   0  0  0  0  0  0  0  0  0  0  0  0
   -4.4515    3.3670    0.0569 H   0  0  0  0  0  0  0  0  0  0  0  0
   -2.2198    2.6135    3.0396 H   0  0  0  0  0  0  0  0  0  0  0  0
   -3.5976    1.5138    2.7344 H   0  0  0  0  0  0  0  0  0  0  0  0
  1 10  1  0  0  0  0
  1  2  1  0  0  0  0
  2 11  1  1  0  0  0
  3  2  1  0  0  0  0
  3 13  1  0  0  0  0
  4 14  1  6  0  0  0
  4  5  1  0  0  0  0
  4  3  1  0  0  0  0
  4  6  1  0  0  0  0
  5 15  1  6  0  0  0
  5  2  1  0  0  0  0
  5  6  1  0  0  0  0
  6  9  1  0  0  0  0
  7  6  1  0  0  0  0
  7  8  1  0  0  0  0
  8  9  1  0  0  0  0
  9 19  1  0  0  0  0
  9 18  1  0  0  0  0
 12  3  1  0  0  0  0
 16  7  1  0  0  0  0
 17  7  1  0  0  0  0
M TOR 0 0 1 2 3
M TOR 1 0 1 2 11
M TOR 2 0 1 2 12
M TOR 3 0 1 4 3
M TOR 4 0 1 4 5
M TOR 5 0 1 4 14
M TOR 6 1 2 3 4
M TOR 7 1 2 3 5
M TOR 8 1 2 3 13
M TOR 9 1 4 3 5
M TOR 10 1 4 3 13
M TOR 11 1 4 5 6
M TOR 12 1 4 5 8
M TOR 13 2 1 0 9
M TOR 14 2 1 4 5
M TOR 15 2 1 4 14
M TOR 16 2 3 4 5
M TOR 17 2 3 4 14
M TOR 18 2 3 5 6
M TOR 19 2 3 5 8
M TOR 20 3 2 1 10
M TOR 21 3 4 1 10
M TOR 22 3 4 5 6
M TOR 23 3 4 5 8
M TOR 24 3 5 4 14
M TOR 25 3 5 6 7
M TOR 26 3 5 6 15
M TOR 27 3 5 6 16
M TOR 28 3 5 8 7
M TOR 29 3 5 8 17
M TOR 30 3 5 8 18
M TOR 31 4 1 0 9
M TOR 32 4 1 2 11
M TOR 33 4 1 2 12
M TOR 34 4 3 2 11
M TOR 35 4 3 2 12
M TOR 36 4 5 3 13
M TOR 37 4 5 6 7
M TOR 38 4 5 6 15
M TOR 39 4 5 6 16
M TOR 40 4 5 8 7
M TOR 41 4 5 8 17
M TOR 42 4 5 8 18
M TOR 43 5 3 2 11
M TOR 44 5 3 2 12
M TOR 45 5 4 1 10
M TOR 46 5 6 7 8
M TOR 47 6 5 3 13
M TOR 48 6 5 4 14
M TOR 49 6 5 8 17
M TOR 50 6 5 8 18
M TOR 51 6 7 8 17
M TOR 52 6 7 8 18
M TOR 53 8 5 3 13
M TOR 54 8 5 4 14
M TOR 55 8 5 6 15
M TOR 56 8 5 6 16
M TOR 57 8 7 6 15
M TOR 58 8 7 6 16
M  END
$$$$
