gdb 3571	2.1980707	1.7141349	1.1957966	3.1407	74.24	-0.23958	-0.02018	0.21939999999999998	1079.4156	0.157687	-422.578539	-422.570187	-422.569243	-422.612152	31.94
 OpenBabel02181911413D

 19 20  0  0  1  0  0  0  0  0999 V2000
   -0.8400   -1.8488    2.2953 O   0  0  0  0  0  0  0  0  0  0  0  0
   -1.7829   -1.4278    1.3138 C   0  0  2  0  0  0  0  0  0  0  0  0
   -1.1327   -1.3557   -0.0826 C   0  0  0  0  0  0  0  0  0  0  0  0
   -0.1699   -0.1854   -0.2027 C   0  0  0  0  0  0  0  0  0  0  0  0
    0.9601   -0.3181   -0.6116 O   0  0  0  0  0  0  0  0  0  0  0  0
   -0.6949    1.1873    0.2225 C   0  0  0  0  0  0  0  0  0  0  0  0
   -1.8799    1.1876    1.1824 C   0  0  1  0  0  0  0  0  0  0  0  0
   -3.2398    0.7014    0.7470 C   0  0  0  0  0  0  0  0  0  0  0  0
   -2.4312   -0.1187    1.7211 C   0  0  1  0  0  0  0  0  0  0  0  0
   -0.1900   -1.1468    2.4126 H   0  0  0  0  0  0  0  0  0  0  0  0
   -2.5338   -2.2257    1.3079 H   0  0  0  0  0  0  0  0  0  0  0  0
   -0.5913   -2.2804   -0.2906 H   0  0  0  0  0  0  0  0  0  0  0  0
   -1.9128   -1.2379   -0.8458 H   0  0  0  0  0  0  0  0  0  0  0  0
    0.1566    1.7211    0.6554 H   0  0  0  0  0  0  0  0  0  0  0  0
   -0.9458    1.7313   -0.6996 H   0  0  0  0  0  0  0  0  0  0  0  0
   -1.8846    2.0292    1.8680 H   0  0  0  0  0  0  0  0  0  0  0  0
   -4.1138    1.2195    1.1256 H   0  0  0  0  0  0  0  0  0  0  0  0
   -3.3544    0.3401   -0.2700 H   0  0  0  0  0  0  0  0  0  0  0  0
   -2.7717   -0.1248    2.7520 H   0  0  0  0  0  0  0  0  0  0  0  0
  1 10  1  0  0  0  0
  2 11  1  6  0  0  0
  2  9  1  0  0  0  0
  2  1  1  0  0  0  0
  3  2  1  0  0  0  0
  4  3  1  0  0  0  0
  4  6  1  0  0  0  0
  5  4  2  0  0  0  0
  6 14  1  0  0  0  0
  6  7  1  0  0  0  0
  7  9  1  0  0  0  0
  7 16  1  1  0  0  0
  8 17  1  0  0  0  0
  8  7  1  0  0  0  0
  8  9  1  0  0  0  0
  9 19  1  1  0  0  0
 12  3  1  0  0  0  0
 13  3  1  0  0  0  0
 15  6  1  0  0  0  0
 18  8  1  0  0  0  0
M TOR 0 0 1 2 3
M TOR 1 0 1 2 11
M TOR 2 0 1 2 12
M TOR 3 0 1 8 6
M TOR 4 0 1 8 7
M TOR 5 0 1 8 18
M TOR 6 1 2 3 4
M TOR 7 1 2 3 5
M TOR 8 1 8 6 5
M TOR 9 1 8 6 7
M TOR 10 1 8 6 15
M TOR 11 1 8 7 16
M TOR 12 1 8 7 17
M TOR 13 2 1 0 9
M TOR 14 2 1 8 6
M TOR 15 2 1 8 7
M TOR 16 2 1 8 18
M TOR 17 2 3 5 6
M TOR 18 2 3 5 13
M TOR 19 2 3 5 14
M TOR 20 3 2 1 8
M TOR 21 3 2 1 10
M TOR 22 3 5 6 7
M TOR 23 3 5 6 8
M TOR 24 3 5 6 15
M TOR 25 4 3 2 11
M TOR 26 4 3 2 12
M TOR 27 4 3 5 6
M TOR 28 4 3 5 13
M TOR 29 4 3 5 14
M TOR 30 5 3 2 11
M TOR 31 5 3 2 12
M TOR 32 5 6 7 8
M TOR 33 5 6 7 16
M TOR 34 5 6 7 17
M TOR 35 5 6 8 18
M TOR 36 6 7 8 18
M TOR 37 6 8 1 10
M TOR 38 6 8 7 16
M TOR 39 6 8 7 17
M TOR 40 7 6 5 13
M TOR 41 7 6 5 14
M TOR 42 7 8 1 10
M TOR 43 7 8 6 15
M TOR 44 8 1 0 9
M TOR 45 8 1 2 11
M TOR 46 8 1 2 12
M TOR 47 8 6 5 13
M TOR 48 8 6 5 14
M  END
$$$$
