
     RDKit          3D

 19 21  0  0  0  0  0  0  0  0999 V2000
   -0.8077   -0.3274    1.1202 C   0  0  0  0  0  0  0  0  0  0  0  0
    0.5700    0.2709    0.9289 C   0  0  0  0  0  0  0  0  0  0  0  0
    0.8597    1.2297   -0.1426 C   0  0  0  0  0  0  0  0  0  0  0  0
    1.2806   -0.1321   -0.2451 O   0  0  0  0  0  0  0  0  0  0  0  0
   -0.7394   -1.7033    1.7095 C   0  0  0  0  0  0  0  0  0  0  0  0
   -0.4377   -2.9799    0.9896 C   0  0  0  0  0  0  0  0  0  0  0  0
   -1.6970   -2.8702    1.8312 C   0  0  0  0  0  0  0  0  0  0  0  0
   -1.3002   -2.8723    3.3016 C   0  0  0  0  0  0  0  0  0  0  0  0
   -0.3325   -1.8090    3.0854 O   0  0  0  0  0  0  0  0  0  0  0  0
   -1.3959    0.3210    1.7821 H   0  0  0  0  0  0  0  0  0  0  0  0
   -1.3145   -0.3712    0.1504 H   0  0  0  0  0  0  0  0  0  0  0  0
    1.1857    0.3061    1.8281 H   0  0  0  0  0  0  0  0  0  0  0  0
    0.0643    1.5257   -0.8264 H   0  0  0  0  0  0  0  0  0  0  0  0
    1.6576    1.9605   -0.0187 H   0  0  0  0  0  0  0  0  0  0  0  0
   -0.6036   -2.9607   -0.0827 H   0  0  0  0  0  0  0  0  0  0  0  0
    0.3935   -3.5990    1.3167 H   0  0  0  0  0  0  0  0  0  0  0  0
   -2.6937   -3.0147    1.4364 H   0  0  0  0  0  0  0  0  0  0  0  0
   -2.0951   -2.5355    3.9769 H   0  0  0  0  0  0  0  0  0  0  0  0
   -0.8359   -3.7815    3.7026 H   0  0  0  0  0  0  0  0  0  0  0  0
  1  2  1  0
  2  3  1  0
  3  4  1  0
  1  5  1  0
  5  6  1  0
  6  7  1  0
  7  8  1  0
  8  9  1  0
  4  2  1  0
  7  5  1  0
  9  5  1  0
  1 10  1  0
  1 11  1  0
  2 12  1  0
  3 13  1  0
  3 14  1  0
  6 15  1  0
  6 16  1  0
  7 17  1  0
  8 18  1  0
  8 19  1  0
M  END
$$$$
