
     RDKit          3D

 19 21  0  0  0  0  0  0  0  0999 V2000
    1.5556    0.7097    1.1285 C   0  0  0  0  0  0  0  0  0  0  0  0
    0.0041    0.6497    1.2752 C   0  0  0  0  0  0  0  0  0  0  0  0
   -0.4283   -0.7106    0.6691 C   0  0  0  0  0  0  0  0  0  0  0  0
    0.4986   -0.6474   -0.5733 C   0  0  0  0  0  0  0  0  0  0  0  0
   -0.0989   -0.5682   -1.8523 O   0  0  0  0  0  0  0  0  0  0  0  0
    0.4957    0.5196   -2.5860 C   0  0  0  0  0  0  0  0  0  0  0  0
    1.5951    1.1635   -1.6922 C   0  0  0  0  0  0  0  0  0  0  0  0
    1.0911    0.7551   -0.3369 C   0  0  0  0  0  0  0  0  0  0  0  0
   -0.0886    1.5072    0.1008 O   0  0  0  0  0  0  0  0  0  0  0  0
    1.9513    1.6616    1.4835 H   0  0  0  0  0  0  0  0  0  0  0  0
    2.1657   -0.1331    1.4649 H   0  0  0  0  0  0  0  0  0  0  0  0
   -0.5187    1.0351    2.1507 H   0  0  0  0  0  0  0  0  0  0  0  0
   -0.2335   -1.5738    1.3105 H   0  0  0  0  0  0  0  0  0  0  0  0
   -1.4835   -0.6930    0.3910 H   0  0  0  0  0  0  0  0  0  0  0  0
    1.2605   -1.4403   -0.5600 H   0  0  0  0  0  0  0  0  0  0  0  0
    0.9039    0.1359   -3.5276 H   0  0  0  0  0  0  0  0  0  0  0  0
   -0.2880    1.2486   -2.8199 H   0  0  0  0  0  0  0  0  0  0  0  0
    2.5766    0.7193   -1.8846 H   0  0  0  0  0  0  0  0  0  0  0  0
    1.6642    2.2444   -1.8271 H   0  0  0  0  0  0  0  0  0  0  0  0
  1  2  1  0
  2  3  1  0
  3  4  1  0
  4  5  1  0
  5  6  1  0
  6  7  1  0
  7  8  1  0
  8  9  1  0
  8  1  1  0
  9  2  1  0
  8  4  1  0
  1 10  1  0
  1 11  1  0
  2 12  1  0
  3 13  1  0
  3 14  1  0
  4 15  1  0
  6 16  1  0
  6 17  1  0
  7 18  1  0
  7 19  1  0
M  END
$$$$
