
     RDKit          3D

 19 20  0  0  0  0  0  0  0  0999 V2000
   -1.4341   -0.0416   -2.2842 C   0  0  0  0  0  0  0  0  0  0  0  0
   -1.8858   -0.0054   -0.8235 C   0  0  0  0  0  0  0  0  0  0  0  0
   -3.4184   -0.0336   -0.7718 C   0  0  0  0  0  0  0  0  0  0  0  0
   -3.9480   -1.2459   -1.2937 O   0  0  0  0  0  0  0  0  0  0  0  0
   -1.1397    1.0034    0.1454 C   0  0  0  0  0  0  0  0  0  0  0  0
   -1.5011    0.0481    1.3375 C   0  0  0  0  0  0  0  0  0  0  0  0
   -1.1002   -0.9426    0.1922 C   0  0  0  0  0  0  0  0  0  0  0  0
    0.0573    0.0504   -0.0148 C   0  0  0  0  0  0  0  0  0  0  0  0
    1.2385    0.0693   -0.1643 O   0  0  0  0  0  0  0  0  0  0  0  0
   -1.9086   -0.8829   -2.7959 H   0  0  0  0  0  0  0  0  0  0  0  0
   -1.7408    0.8751   -2.8007 H   0  0  0  0  0  0  0  0  0  0  0  0
   -0.3502   -0.1369   -2.3874 H   0  0  0  0  0  0  0  0  0  0  0  0
   -3.8177    0.1668    0.2284 H   0  0  0  0  0  0  0  0  0  0  0  0
   -3.8011    0.7561   -1.4275 H   0  0  0  0  0  0  0  0  0  0  0  0
   -3.7000   -1.9560   -0.6929 H   0  0  0  0  0  0  0  0  0  0  0  0
   -1.1669    2.0914    0.1258 H   0  0  0  0  0  0  0  0  0  0  0  0
   -0.8429    0.0818    2.2073 H   0  0  0  0  0  0  0  0  0  0  0  0
   -2.5441    0.0344    1.6443 H   0  0  0  0  0  0  0  0  0  0  0  0
   -1.0738   -2.0311    0.2235 H   0  0  0  0  0  0  0  0  0  0  0  0
  1  2  1  0
  2  3  1  0
  3  4  1  0
  2  5  1  0
  5  6  1  0
  6  7  1  0
  7  8  1  0
  8  9  2  0
  7  2  1  0
  8  5  1  0
  1 10  1  0
  1 11  1  0
  1 12  1  0
  3 13  1  0
  3 14  1  0
  4 15  1  0
  5 16  1  0
  6 17  1  0
  6 18  1  0
  7 19  1  0
M  END
$$$$
