
     RDKit          3D

 19 20  0  0  0  0  0  0  0  0999 V2000
    0.1350   -1.0956   -0.1346 O   0  0  0  0  0  0  0  0  0  0  0  0
    0.3261    0.0716    0.0891 C   0  0  0  0  0  0  0  0  0  0  0  0
   -0.3433    0.8618    1.1952 C   0  0  0  0  0  0  0  0  0  0  0  0
   -1.0894    2.0776    0.6723 C   0  0  0  0  0  0  0  0  0  0  0  0
   -0.4038    3.2805   -0.0686 C   0  0  0  0  0  0  0  0  0  0  0  0
   -1.7565    3.9444    0.2827 C   0  0  0  0  0  0  0  0  0  0  0  0
   -1.7127    3.1605    1.6157 C   0  0  0  0  0  0  0  0  0  0  0  0
   -2.7046    3.2091   -0.5067 O   0  0  0  0  0  0  0  0  0  0  0  0
   -2.2843    1.8488   -0.2719 C   0  0  0  0  0  0  0  0  0  0  0  0
    1.0382    0.6634   -0.5318 H   0  0  0  0  0  0  0  0  0  0  0  0
   -1.0115    0.1899    1.7440 H   0  0  0  0  0  0  0  0  0  0  0  0
    0.4452    1.1968    1.8842 H   0  0  0  0  0  0  0  0  0  0  0  0
    0.4416    3.6898    0.4883 H   0  0  0  0  0  0  0  0  0  0  0  0
   -0.1625    3.1746   -1.1291 H   0  0  0  0  0  0  0  0  0  0  0  0
   -1.9569    5.0110    0.2020 H   0  0  0  0  0  0  0  0  0  0  0  0
   -0.9905    3.5556    2.3328 H   0  0  0  0  0  0  0  0  0  0  0  0
   -2.6672    2.9381    2.0991 H   0  0  0  0  0  0  0  0  0  0  0  0
   -3.0940    1.2728    0.1924 H   0  0  0  0  0  0  0  0  0  0  0  0
   -2.0070    1.3688   -1.2184 H   0  0  0  0  0  0  0  0  0  0  0  0
  1  2  2  0
  2  3  1  0
  3  4  1  0
  4  5  1  0
  5  6  1  0
  6  7  1  0
  6  8  1  0
  8  9  1  0
  7  4  1  0
  9  4  1  0
  2 10  1  0
  3 11  1  0
  3 12  1  0
  5 13  1  0
  5 14  1  0
  6 15  1  0
  7 16  1  0
  7 17  1  0
  9 18  1  0
  9 19  1  0
M  END
$$$$
