gdb 541	3.1376337	1.6639951	1.341682	2.2574	74.07	-0.24295	0.06565	0.3086	991.9592	0.159185	-422.528386	-422.521243	-422.520299	-422.559856	28.442
 OpenBabel02181911403D

 19 21  0  0  1  0  0  0  0  0999 V2000
    1.8124    2.2833    1.2816 C   0  0  0  0  0  0  0  0  0  0  0  0
    1.2889    1.5262    2.4028 O   0  0  0  0  0  0  0  0  0  0  0  0
    0.8596    0.4284    1.5600 C   0  0  1  0  0  0  0  0  0  0  0  0
   -0.6491    0.4632    1.2438 C   0  0  0  0  0  0  0  0  0  0  0  0
   -0.3758    1.4348    0.0507 C   0  0  2  0  0  0  0  0  0  0  0  0
   -0.5112    0.8860   -1.3797 C   0  0  0  0  0  0  0  0  0  0  0  0
    0.8538    0.2122   -1.6383 C   0  0  0  0  0  0  0  0  0  0  0  0
    1.8059    0.9484   -0.8649 O   0  0  0  0  0  0  0  0  0  0  0  0
    1.1613    1.3174    0.3056 C   0  0  1  0  0  0  0  0  0  0  0  0
    1.4667    3.3237    1.2787 H   0  0  0  0  0  0  0  0  0  0  0  0
    2.9098    2.2587    1.2537 H   0  0  0  0  0  0  0  0  0  0  0  0
    1.3454   -0.5153    1.8233 H   0  0  0  0  0  0  0  0  0  0  0  0
   -1.0443   -0.5088    0.9298 H   0  0  0  0  0  0  0  0  0  0  0  0
   -1.2722    0.8580    2.0488 H   0  0  0  0  0  0  0  0  0  0  0  0
   -0.8104    2.4303    0.1569 H   0  0  0  0  0  0  0  0  0  0  0  0
   -1.3446    0.1886   -1.5021 H   0  0  0  0  0  0  0  0  0  0  0  0
   -0.6566    1.7103   -2.0838 H   0  0  0  0  0  0  0  0  0  0  0  0
    0.8424   -0.8385   -1.3113 H   0  0  0  0  0  0  0  0  0  0  0  0
    1.1740    0.2431   -2.6820 H   0  0  0  0  0  0  0  0  0  0  0  0
  1  2  1  0  0  0  0
  3 12  1  1  0  0  0
  3  2  1  0  0  0  0
  4  3  1  0  0  0  0
  4 14  1  0  0  0  0
  5 15  1  1  0  0  0
  5  9  1  0  0  0  0
  5  4  1  0  0  0  0
  6  5  1  0  0  0  0
  7  6  1  0  0  0  0
  7 18  1  0  0  0  0
  7  8  1  0  0  0  0
  9  8  1  6  0  0  0
  9  1  1  0  0  0  0
  9  3  1  0  0  0  0
 10  1  1  0  0  0  0
 11  1  1  0  0  0  0
 13  4  1  0  0  0  0
 16  6  1  0  0  0  0
 17  6  1  0  0  0  0
 19  7  1  0  0  0  0
M TOR 0 0 1 2 3
M TOR 1 0 1 2 8
M TOR 2 0 1 2 11
M TOR 3 0 8 2 3
M TOR 4 0 8 2 11
M TOR 5 0 8 4 3
M TOR 6 0 8 4 5
M TOR 7 0 8 4 14
M TOR 8 0 8 7 6
M TOR 9 1 0 8 4
M TOR 10 1 0 8 7
M TOR 11 1 2 3 4
M TOR 12 1 2 3 12
M TOR 13 1 2 3 13
M TOR 14 1 2 8 4
M TOR 15 1 2 8 7
M TOR 16 2 1 0 9
M TOR 17 2 1 0 10
M TOR 18 2 3 4 5
M TOR 19 2 3 4 8
M TOR 20 2 3 4 14
M TOR 21 2 8 0 9
M TOR 22 2 8 0 10
M TOR 23 2 8 4 5
M TOR 24 2 8 4 14
M TOR 25 2 8 7 6
M TOR 26 3 2 8 7
M TOR 27 3 4 5 6
M TOR 28 3 4 5 15
M TOR 29 3 4 5 16
M TOR 30 3 4 8 7
M TOR 31 4 3 2 11
M TOR 32 4 5 6 7
M TOR 33 4 5 6 17
M TOR 34 4 5 6 18
M TOR 35 4 8 0 9
M TOR 36 4 8 0 10
M TOR 37 4 8 2 11
M TOR 38 4 8 7 6
M TOR 39 5 4 3 12
M TOR 40 5 4 3 13
M TOR 41 5 4 8 7
M TOR 42 5 6 7 8
M TOR 43 6 5 4 8
M TOR 44 6 5 4 14
M TOR 45 7 6 5 15
M TOR 46 7 6 5 16
M TOR 47 7 8 0 9
M TOR 48 7 8 0 10
M TOR 49 7 8 2 11
M TOR 50 7 8 4 14
M TOR 51 8 2 3 12
M TOR 52 8 2 3 13
M TOR 53 8 4 3 12
M TOR 54 8 4 3 13
M TOR 55 8 4 5 15
M TOR 56 8 4 5 16
M TOR 57 8 7 6 17
M TOR 58 8 7 6 18
M  END
$$$$
