
     RDKit          3D

 19 20  0  0  0  0  0  0  0  0999 V2000
    0.0253    0.3695    0.5762 C   0  0  0  0  0  0  0  0  0  0  0  0
    1.4720    0.3258    0.1252 C   0  0  0  0  0  0  0  0  0  0  0  0
    1.6699   -0.4057   -1.2234 C   0  0  0  0  0  0  0  0  0  0  0  0
    3.0410   -0.4441   -1.6005 O   0  0  0  0  0  0  0  0  0  0  0  0
    3.9254   -0.8303   -0.5561 C   0  0  0  0  0  0  0  0  0  0  0  0
    3.5932   -0.0686    0.7406 C   0  0  0  0  0  0  0  0  0  0  0  0
    2.2492   -0.4339    1.0732 O   0  0  0  0  0  0  0  0  0  0  0  0
    3.4763    1.4242    0.4665 C   0  0  0  0  0  0  0  0  0  0  0  0
    2.2231    1.6557    0.0929 C   0  0  0  0  0  0  0  0  0  0  0  0
   -0.0425    0.8177    1.5709 H   0  0  0  0  0  0  0  0  0  0  0  0
   -0.5796    0.9626   -0.1169 H   0  0  0  0  0  0  0  0  0  0  0  0
   -0.3942   -0.6399    0.6247 H   0  0  0  0  0  0  0  0  0  0  0  0
    1.2651   -1.4248   -1.1166 H   0  0  0  0  0  0  0  0  0  0  0  0
    1.1484    0.0979   -2.0440 H   0  0  0  0  0  0  0  0  0  0  0  0
    3.8442   -1.9093   -0.3508 H   0  0  0  0  0  0  0  0  0  0  0  0
    4.9355   -0.6128   -0.9178 H   0  0  0  0  0  0  0  0  0  0  0  0
    4.2571   -0.3555    1.5612 H   0  0  0  0  0  0  0  0  0  0  0  0
    4.3050    2.1195    0.4890 H   0  0  0  0  0  0  0  0  0  0  0  0
    1.7914    2.5844   -0.2568 H   0  0  0  0  0  0  0  0  0  0  0  0
  1  2  1  0
  2  3  1  0
  3  4  1  0
  4  5  1  0
  5  6  1  0
  6  7  1  0
  6  8  1  0
  8  9  2  0
  7  2  1  0
  9  2  1  0
  1 10  1  0
  1 11  1  0
  1 12  1  0
  3 13  1  0
  3 14  1  0
  5 15  1  0
  5 16  1  0
  6 17  1  0
  8 18  1  0
  9 19  1  0
M  END
$$$$
