gdb 4398	3.2999953	1.0228728	0.9706933	2.5298	77.38	-0.24019	0.05918	0.29936999999999997	1295.0307	0.155791	-422.530141	-422.520863	-422.519919	-422.564633	34.117
 OpenBabel02181911413D

 19 19  0  0  1  0  0  0  0  0999 V2000
    5.0385    1.5896    1.4184 O   0  0  0  0  0  0  0  0  0  0  0  0
    5.0252    0.4257    2.2382 C   0  0  1  0  0  0  0  0  0  0  0  0
    3.8671    0.4139    3.2398 C   0  0  0  0  0  0  0  0  0  0  0  0
    2.7213   -0.0299    2.5304 O   0  0  0  0  0  0  0  0  0  0  0  0
    3.1063   -0.7135    1.3326 C   0  0  1  0  0  0  0  0  0  0  0  0
    2.5328    0.0299    0.1084 C   0  0  0  0  0  0  0  0  0  0  0  0
    1.0773    0.0859    0.1009 C   0  0  0  0  0  0  0  0  0  0  0  0
   -0.1242    0.1136    0.0912 C   0  0  0  0  0  0  0  0  0  0  0  0
    4.6491   -0.7579    1.3445 C   0  0  0  0  0  0  0  0  0  0  0  0
    5.0800    2.3629    1.9900 H   0  0  0  0  0  0  0  0  0  0  0  0
    5.9958    0.2891    2.7346 H   0  0  0  0  0  0  0  0  0  0  0  0
    4.0970   -0.2653    4.0769 H   0  0  0  0  0  0  0  0  0  0  0  0
    3.6611    1.4066    3.6591 H   0  0  0  0  0  0  0  0  0  0  0  0
    2.6778   -1.7225    1.3636 H   0  0  0  0  0  0  0  0  0  0  0  0
    2.9602    1.0380    0.0970 H   0  0  0  0  0  0  0  0  0  0  0  0
    2.8830   -0.4775   -0.8003 H   0  0  0  0  0  0  0  0  0  0  0  0
   -1.1851    0.1479    0.0867 H   0  0  0  0  0  0  0  0  0  0  0  0
    5.0028   -1.6892    1.7954 H   0  0  0  0  0  0  0  0  0  0  0  0
    5.0931   -0.6649    0.3515 H   0  0  0  0  0  0  0  0  0  0  0  0
  1 10  1  0  0  0  0
  1  2  1  0  0  0  0
  2 11  1  1  0  0  0
  2  3  1  0  0  0  0
  3 13  1  0  0  0  0
  3 12  1  0  0  0  0
  4  3  1  0  0  0  0
  5  9  1  0  0  0  0
  5 14  1  1  0  0  0
  5  4  1  0  0  0  0
  6  5  1  0  0  0  0
  7  6  1  0  0  0  0
  8  7  3  0  0  0  0
  9 18  1  0  0  0  0
  9  2  1  0  0  0  0
 15  6  1  0  0  0  0
 16  6  1  0  0  0  0
 17  8  1  0  0  0  0
 19  9  1  0  0  0  0
M TOR 0 0 1 2 3
M TOR 1 0 1 2 11
M TOR 2 0 1 2 12
M TOR 3 0 1 8 4
M TOR 4 0 1 8 17
M TOR 5 0 1 8 18
M TOR 6 1 2 3 4
M TOR 7 1 8 4 3
M TOR 8 1 8 4 5
M TOR 9 1 8 4 13
M TOR 10 2 1 0 9
M TOR 11 2 1 8 4
M TOR 12 2 1 8 17
M TOR 13 2 1 8 18
M TOR 14 2 3 4 5
M TOR 15 2 3 4 8
M TOR 16 2 3 4 13
M TOR 17 3 2 1 8
M TOR 18 3 2 1 10
M TOR 19 3 4 5 6
M TOR 20 3 4 5 14
M TOR 21 3 4 5 15
M TOR 22 3 4 8 17
M TOR 23 3 4 8 18
M TOR 24 4 3 2 11
M TOR 25 4 3 2 12
M TOR 26 4 5 6 7
M TOR 27 4 8 1 10
M TOR 28 5 4 8 17
M TOR 29 5 4 8 18
M TOR 30 5 6 7 16
M TOR 31 6 5 4 8
M TOR 32 6 5 4 13
M TOR 33 7 6 5 14
M TOR 34 7 6 5 15
M TOR 35 8 1 0 9
M TOR 36 8 1 2 11
M TOR 37 8 1 2 12
M TOR 38 8 4 5 14
M TOR 39 8 4 5 15
M  END
$$$$
