
     RDKit          3D

 19 20  0  0  0  0  0  0  0  0999 V2000
   -0.6227    2.2050   -1.1065 C   0  0  0  0  0  0  0  0  0  0  0  0
   -0.9288    1.1763   -0.0283 C   0  0  0  0  0  0  0  0  0  0  0  0
   -2.2803    0.7254   -0.1324 O   0  0  0  0  0  0  0  0  0  0  0  0
   -2.3250   -0.6740    0.0016 C   0  0  0  0  0  0  0  0  0  0  0  0
   -1.7882   -1.2615    1.2619 C   0  0  0  0  0  0  0  0  0  0  0  0
   -0.9365   -1.2760   -0.0224 C   0  0  0  0  0  0  0  0  0  0  0  0
   -0.5116   -2.5691   -0.6683 C   0  0  0  0  0  0  0  0  0  0  0  0
   -0.0480   -0.0829   -0.1471 C   0  0  0  0  0  0  0  0  0  0  0  0
    1.1364   -0.0806   -0.3783 O   0  0  0  0  0  0  0  0  0  0  0  0
   -0.8152    1.7865   -2.0983 H   0  0  0  0  0  0  0  0  0  0  0  0
   -1.2441    3.0943   -0.9762 H   0  0  0  0  0  0  0  0  0  0  0  0
    0.4312    2.4885   -1.0448 H   0  0  0  0  0  0  0  0  0  0  0  0
   -0.7603    1.6225    0.9648 H   0  0  0  0  0  0  0  0  0  0  0  0
   -3.1686   -1.1144   -0.5175 H   0  0  0  0  0  0  0  0  0  0  0  0
   -1.5159   -0.6014    2.0783 H   0  0  0  0  0  0  0  0  0  0  0  0
   -2.1601   -2.2334    1.5684 H   0  0  0  0  0  0  0  0  0  0  0  0
    0.4226   -2.9271   -0.2246 H   0  0  0  0  0  0  0  0  0  0  0  0
   -1.2719   -3.3445   -0.5379 H   0  0  0  0  0  0  0  0  0  0  0  0
   -0.3382   -2.4369   -1.7409 H   0  0  0  0  0  0  0  0  0  0  0  0
  1  2  1  0
  2  3  1  0
  3  4  1  0
  4  5  1  0
  5  6  1  0
  6  7  1  0
  6  8  1  0
  8  9  2  0
  8  2  1  0
  6  4  1  0
  1 10  1  0
  1 11  1  0
  1 12  1  0
  2 13  1  0
  4 14  1  0
  5 15  1  0
  5 16  1  0
  7 17  1  0
  7 18  1  0
  7 19  1  0
M  END
$$$$
