
     RDKit          3D

 19 19  0  0  0  0  0  0  0  0999 V2000
    1.4017   -0.8851    0.0396 C   0  0  0  0  0  0  0  0  0  0  0  0
    0.6591    0.4612   -0.0320 C   0  0  0  0  0  0  0  0  0  0  0  0
    1.5547    1.6323   -0.2353 C   0  0  0  0  0  0  0  0  0  0  0  0
    1.7100    2.5433   -1.2387 C   0  0  0  0  0  0  0  0  0  0  0  0
    1.0429    2.6672   -2.4217 O   0  0  0  0  0  0  0  0  0  0  0  0
    2.7621    3.4466   -0.8610 C   0  0  0  0  0  0  0  0  0  0  0  0
    3.2682    4.6047   -1.6591 C   0  0  0  0  0  0  0  0  0  0  0  0
    3.1696    3.0057    0.3580 C   0  0  0  0  0  0  0  0  0  0  0  0
    2.4612    1.9177    0.7573 O   0  0  0  0  0  0  0  0  0  0  0  0
    2.1293   -0.8756    0.8556 H   0  0  0  0  0  0  0  0  0  0  0  0
    0.7023   -1.7085    0.2142 H   0  0  0  0  0  0  0  0  0  0  0  0
    1.9437   -1.0834   -0.8901 H   0  0  0  0  0  0  0  0  0  0  0  0
   -0.0702    0.4369   -0.8525 H   0  0  0  0  0  0  0  0  0  0  0  0
    0.0700    0.5977    0.8850 H   0  0  0  0  0  0  0  0  0  0  0  0
    0.3756    1.9762   -2.4819 H   0  0  0  0  0  0  0  0  0  0  0  0
    4.0719    5.1250   -1.1312 H   0  0  0  0  0  0  0  0  0  0  0  0
    3.6556    4.2811   -2.6316 H   0  0  0  0  0  0  0  0  0  0  0  0
    2.4712    5.3289   -1.8613 H   0  0  0  0  0  0  0  0  0  0  0  0
    3.9266    3.3523    1.0429 H   0  0  0  0  0  0  0  0  0  0  0  0
  1  2  1  0
  2  3  1  0
  3  4  2  0
  4  5  1  0
  4  6  1  0
  6  7  1  0
  6  8  2  0
  8  9  1  0
  9  3  1  0
  1 10  1  0
  1 11  1  0
  1 12  1  0
  2 13  1  0
  2 14  1  0
  5 15  1  0
  7 16  1  0
  7 17  1  0
  7 18  1  0
  8 19  1  0
M  END
$$$$
