
     RDKit          3D

 19 21  0  0  0  0  0  0  0  0999 V2000
    1.6844    0.5058    0.2646 O   0  0  0  0  0  0  0  0  0  0  0  0
    0.3047    0.4316   -0.0598 C   0  0  0  0  0  0  0  0  0  0  0  0
    0.0542    0.4351   -1.5491 C   0  0  0  0  0  0  0  0  0  0  0  0
   -1.2072   -0.1809   -2.1030 C   0  0  0  0  0  0  0  0  0  0  0  0
   -1.7225    0.3511   -3.4430 C   0  0  0  0  0  0  0  0  0  0  0  0
   -0.6360   -0.0348   -4.4411 C   0  0  0  0  0  0  0  0  0  0  0  0
   -0.4921   -1.4494   -4.6120 O   0  0  0  0  0  0  0  0  0  0  0  0
    0.4474   -0.7674   -3.7679 C   0  0  0  0  0  0  0  0  0  0  0  0
    0.1253   -0.8752   -2.3083 C   0  0  0  0  0  0  0  0  0  0  0  0
    2.1239   -0.2205   -0.1902 H   0  0  0  0  0  0  0  0  0  0  0  0
   -0.1675   -0.4571    0.3914 H   0  0  0  0  0  0  0  0  0  0  0  0
   -0.1533    1.3109    0.4059 H   0  0  0  0  0  0  0  0  0  0  0  0
    0.4390    1.3152   -2.0608 H   0  0  0  0  0  0  0  0  0  0  0  0
   -1.9221   -0.5895   -1.3978 H   0  0  0  0  0  0  0  0  0  0  0  0
   -2.6751   -0.1125   -3.7201 H   0  0  0  0  0  0  0  0  0  0  0  0
   -1.8750    1.4367   -3.4303 H   0  0  0  0  0  0  0  0  0  0  0  0
   -0.4724    0.5585   -5.3374 H   0  0  0  0  0  0  0  0  0  0  0  0
    1.4751   -0.7629   -4.1248 H   0  0  0  0  0  0  0  0  0  0  0  0
    0.3699   -1.7890   -1.7747 H   0  0  0  0  0  0  0  0  0  0  0  0
  1  2  1  0
  2  3  1  0
  3  4  1  0
  4  5  1  0
  5  6  1  0
  6  7  1  0
  7  8  1  0
  8  9  1  0
  9  3  1  0
  9  4  1  0
  8  6  1  0
  1 10  1  0
  2 11  1  0
  2 12  1  0
  3 13  1  0
  4 14  1  0
  5 15  1  0
  5 16  1  0
  6 17  1  0
  8 18  1  0
  9 19  1  0
M  END
$$$$
