gdb 1709	2.4622449	1.3721707	1.3023076	1.1563	75.6	-0.24627	-0.02727	0.219	1109.8207	0.154848	-422.542883	-422.533791	-422.532847	-422.576845	33.387
 OpenBabel02181911403D

 19 20  0  0  1  0  0  0  0  0999 V2000
   -1.0620    1.9140   -1.2669 C   0  0  0  0  0  0  0  0  0  0  0  0
   -1.0178    1.0251   -0.0313 C   0  0  1  0  0  0  0  0  0  0  0  0
   -2.0342   -0.0256   -0.0783 O   0  0  0  0  0  0  0  0  0  0  0  0
   -1.0776   -1.1044   -0.0761 C   0  0  0  0  0  0  0  0  0  0  0  0
    0.0598   -0.0796   -0.0546 C   0  0  0  0  0  0  0  0  0  0  0  0
    1.2520   -0.1095   -0.0632 O   0  0  0  0  0  0  0  0  0  0  0  0
   -1.0747    1.8138    1.2609 C   0  0  0  0  0  0  0  0  0  0  0  0
   -2.4093    2.2248    1.8310 C   0  0  0  0  0  0  0  0  0  0  0  0
   -1.5707    1.1898    2.5387 C   0  0  0  0  0  0  0  0  0  0  0  0
   -1.0224    1.3184   -2.1830 H   0  0  0  0  0  0  0  0  0  0  0  0
   -1.9865    2.4988   -1.2698 H   0  0  0  0  0  0  0  0  0  0  0  0
   -0.2131    2.6046   -1.2639 H   0  0  0  0  0  0  0  0  0  0  0  0
   -1.1470   -1.7419    0.8147 H   0  0  0  0  0  0  0  0  0  0  0  0
   -1.1349   -1.7297   -0.9758 H   0  0  0  0  0  0  0  0  0  0  0  0
   -0.2614    2.5281    1.3513 H   0  0  0  0  0  0  0  0  0  0  0  0
   -2.4985    3.2142    2.2650 H   0  0  0  0  0  0  0  0  0  0  0  0
   -3.2966    1.8678    1.3205 H   0  0  0  0  0  0  0  0  0  0  0  0
   -1.0747    1.4616    3.4634 H   0  0  0  0  0  0  0  0  0  0  0  0
   -1.9260    0.1668    2.4953 H   0  0  0  0  0  0  0  0  0  0  0  0
  1 12  1  0  0  0  0
  2  1  1  6  0  0  0
  2  7  1  0  0  0  0
  3  4  1  0  0  0  0
  3  2  1  0  0  0  0
  4  5  1  0  0  0  0
  4 13  1  0  0  0  0
  5  2  1  0  0  0  0
  6  5  2  0  0  0  0
  7 15  1  0  0  0  0
  7  8  1  0  0  0  0
  7  9  1  0  0  0  0
  8 16  1  0  0  0  0
  8  9  1  0  0  0  0
  9 18  1  0  0  0  0
 10  1  1  0  0  0  0
 11  1  1  0  0  0  0
 14  4  1  0  0  0  0
 17  8  1  0  0  0  0
 19  9  1  0  0  0  0
M TOR 0 0 1 2 3
M TOR 1 0 1 4 3
M TOR 2 0 1 4 5
M TOR 3 0 1 6 7
M TOR 4 0 1 6 8
M TOR 5 0 1 6 14
M TOR 6 1 2 3 4
M TOR 7 1 2 3 12
M TOR 8 1 2 3 13
M TOR 9 1 4 3 12
M TOR 10 1 4 3 13
M TOR 11 1 6 7 8
M TOR 12 1 6 7 15
M TOR 13 1 6 7 16
M TOR 14 1 6 8 17
M TOR 15 1 6 8 18
M TOR 16 2 1 0 9
M TOR 17 2 1 0 10
M TOR 18 2 1 0 11
M TOR 19 2 1 4 5
M TOR 20 2 1 6 7
M TOR 21 2 1 6 8
M TOR 22 2 1 6 14
M TOR 23 2 3 4 5
M TOR 24 3 2 1 6
M TOR 25 3 4 1 6
M TOR 26 4 1 0 9
M TOR 27 4 1 0 10
M TOR 28 4 1 0 11
M TOR 29 4 1 6 7
M TOR 30 4 1 6 8
M TOR 31 4 1 6 14
M TOR 32 5 4 1 6
M TOR 33 5 4 3 12
M TOR 34 5 4 3 13
M TOR 35 6 1 0 9
M TOR 36 6 1 0 10
M TOR 37 6 1 0 11
M TOR 38 6 7 8 17
M TOR 39 6 7 8 18
M TOR 40 6 8 7 15
M TOR 41 6 8 7 16
M TOR 42 7 8 6 14
M  END
$$$$
