gdb 769	2.2084813	1.8866086	1.2104365	2.39	74.74	-0.23565	-0.02156	0.21409	1055.1923	0.158095	-422.557786	-422.549869	-422.548925	-422.590354	30.629
 OpenBabel02181911403D

 19 20  0  0  1  0  0  0  0  0999 V2000
   -0.2546    0.2545   -3.3923 O   0  0  0  0  0  0  0  0  0  0  0  0
    0.8432    0.0576   -2.9295 C   0  0  0  0  0  0  0  0  0  0  0  0
    1.4644   -1.3515   -2.9975 C   0  0  0  0  0  0  0  0  0  0  0  0
    2.6431   -1.5210   -2.2499 O   0  0  0  0  0  0  0  0  0  0  0  0
    2.4583   -1.6173   -0.8446 C   0  0  0  0  0  0  0  0  0  0  0  0
    1.6831   -0.4336   -0.2340 C   0  0  0  0  0  0  0  0  0  0  0  0
    2.1098    0.8859   -0.8431 C   0  0  2  0  0  0  0  0  0  0  0  0
    1.0900    1.9560   -1.1635 C   0  0  0  0  0  0  0  0  0  0  0  0
    1.6822    1.1271   -2.2692 C   0  0  2  0  0  0  0  0  0  0  0  0
    0.6801   -2.0749   -2.7252 H   0  0  0  0  0  0  0  0  0  0  0  0
    1.7279   -1.5446   -4.0444 H   0  0  0  0  0  0  0  0  0  0  0  0
    1.9537   -2.5629   -0.5894 H   0  0  0  0  0  0  0  0  0  0  0  0
    3.4725   -1.6598   -0.4352 H   0  0  0  0  0  0  0  0  0  0  0  0
    0.6065   -0.5742   -0.3955 H   0  0  0  0  0  0  0  0  0  0  0  0
    1.8257   -0.4428    0.8529 H   0  0  0  0  0  0  0  0  0  0  0  0
    3.1078    1.2204   -0.5731 H   0  0  0  0  0  0  0  0  0  0  0  0
    0.0524    1.7729   -0.9029 H   0  0  0  0  0  0  0  0  0  0  0  0
    1.3922    2.9942   -1.0851 H   0  0  0  0  0  0  0  0  0  0  0  0
    2.3989    1.5907   -2.9422 H   0  0  0  0  0  0  0  0  0  0  0  0
  1  2  2  0  0  0  0
  2  9  1  0  0  0  0
  3  2  1  0  0  0  0
  3 10  1  0  0  0  0
  3  4  1  0  0  0  0
  4  5  1  0  0  0  0
  5 12  1  0  0  0  0
  5 13  1  0  0  0  0
  5  6  1  0  0  0  0
  6 15  1  0  0  0  0
  7 16  1  1  0  0  0
  7  6  1  0  0  0  0
  8 18  1  0  0  0  0
  8 17  1  0  0  0  0
  8  7  1  0  0  0  0
  9 19  1  6  0  0  0
  9  8  1  0  0  0  0
  9  7  1  0  0  0  0
 11  3  1  0  0  0  0
 14  6  1  0  0  0  0
M TOR 0 0 1 2 3
M TOR 1 0 1 2 9
M TOR 2 0 1 2 10
M TOR 3 0 1 8 6
M TOR 4 0 1 8 7
M TOR 5 0 1 8 18
M TOR 6 1 2 3 4
M TOR 7 1 8 6 5
M TOR 8 1 8 6 7
M TOR 9 1 8 6 15
M TOR 10 1 8 7 16
M TOR 11 1 8 7 17
M TOR 12 2 1 8 6
M TOR 13 2 1 8 7
M TOR 14 2 1 8 18
M TOR 15 2 3 4 5
M TOR 16 2 3 4 11
M TOR 17 2 3 4 12
M TOR 18 3 2 1 8
M TOR 19 3 4 5 6
M TOR 20 3 4 5 13
M TOR 21 3 4 5 14
M TOR 22 4 3 2 9
M TOR 23 4 3 2 10
M TOR 24 4 5 6 7
M TOR 25 4 5 6 8
M TOR 26 4 5 6 15
M TOR 27 5 6 7 8
M TOR 28 5 6 7 16
M TOR 29 5 6 7 17
M TOR 30 5 6 8 18
M TOR 31 6 5 4 11
M TOR 32 6 5 4 12
M TOR 33 6 7 8 18
M TOR 34 6 8 7 16
M TOR 35 6 8 7 17
M TOR 36 7 6 5 13
M TOR 37 7 6 5 14
M TOR 38 7 8 6 15
M TOR 39 8 1 2 9
M TOR 40 8 1 2 10
M TOR 41 8 6 5 13
M TOR 42 8 6 5 14
M  END
$$$$
