gdb 3516	2.1656222	1.6213062	1.2906409	2.4146	77.47	-0.23379	-0.01696	0.21683	1082.7059	0.157199	-422.570782	-422.56214	-422.561196	-422.604153	32.242
 OpenBabel02181911413D

 19 19  0  0  1  0  0  0  0  0999 V2000
   -1.7873   -1.3717    1.2716 C   0  0  0  0  0  0  0  0  0  0  0  0
   -0.8486   -1.2929    0.0442 C   0  0  1  0  0  0  0  0  0  0  0  0
   -1.5673   -1.5221   -1.2709 C   0  0  0  0  0  0  0  0  0  0  0  0
   -2.2640   -0.6502   -2.0004 C   0  0  0  0  0  0  0  0  0  0  0  0
   -2.5593    0.7909   -1.6947 C   0  0  0  0  0  0  0  0  0  0  0  0
   -2.1746    1.2299   -0.4090 O   0  0  0  0  0  0  0  0  0  0  0  0
   -0.7847    1.3318   -0.2172 C   0  0  0  0  0  0  0  0  0  0  0  0
   -0.0461    0.0103    0.0374 C   0  0  0  0  0  0  0  0  0  0  0  0
    1.1449    0.0325    0.2350 O   0  0  0  0  0  0  0  0  0  0  0  0
   -2.2999   -2.3383    1.2850 H   0  0  0  0  0  0  0  0  0  0  0  0
   -1.2136   -1.2799    2.1995 H   0  0  0  0  0  0  0  0  0  0  0  0
   -2.5387   -0.5818    1.2370 H   0  0  0  0  0  0  0  0  0  0  0  0
   -0.0892   -2.0737    0.1507 H   0  0  0  0  0  0  0  0  0  0  0  0
   -1.4759   -2.5337   -1.6593 H   0  0  0  0  0  0  0  0  0  0  0  0
   -2.6966   -0.9924   -2.9396 H   0  0  0  0  0  0  0  0  0  0  0  0
   -2.1025    1.4354   -2.4686 H   0  0  0  0  0  0  0  0  0  0  0  0
   -3.6418    0.9589   -1.7536 H   0  0  0  0  0  0  0  0  0  0  0  0
   -0.2916    1.8317   -1.0661 H   0  0  0  0  0  0  0  0  0  0  0  0
   -0.6280    1.9644    0.6630 H   0  0  0  0  0  0  0  0  0  0  0  0
  1 10  1  0  0  0  0
  1 11  1  0  0  0  0
  2 13  1  1  0  0  0
  2  1  1  0  0  0  0
  3  2  1  0  0  0  0
  4  5  1  0  0  0  0
  4  3  2  0  0  0  0
  5  6  1  0  0  0  0
  6  7  1  0  0  0  0
  7  8  1  0  0  0  0
  7 19  1  0  0  0  0
  8  2  1  0  0  0  0
  8  9  2  0  0  0  0
 12  1  1  0  0  0  0
 14  3  1  0  0  0  0
 15  4  1  0  0  0  0
 16  5  1  0  0  0  0
 17  5  1  0  0  0  0
 18  7  1  0  0  0  0
M TOR 0 0 1 2 3
M TOR 1 0 1 2 13
M TOR 2 0 1 7 6
M TOR 3 0 1 7 8
M TOR 4 1 2 3 4
M TOR 5 1 2 3 14
M TOR 6 1 7 6 5
M TOR 7 1 7 6 17
M TOR 8 1 7 6 18
M TOR 9 2 1 0 9
M TOR 10 2 1 0 10
M TOR 11 2 1 0 11
M TOR 12 2 1 7 6
M TOR 13 2 1 7 8
M TOR 14 2 3 4 5
M TOR 15 2 3 4 15
M TOR 16 2 3 4 16
M TOR 17 3 2 1 7
M TOR 18 3 2 1 12
M TOR 19 3 4 5 6
M TOR 20 4 3 2 13
M TOR 21 4 5 6 7
M TOR 22 4 5 6 17
M TOR 23 4 5 6 18
M TOR 24 5 4 3 14
M TOR 25 5 6 7 8
M TOR 26 6 5 4 15
M TOR 27 6 5 4 16
M TOR 28 6 7 1 12
M TOR 29 7 1 0 9
M TOR 30 7 1 0 10
M TOR 31 7 1 0 11
M TOR 32 7 1 2 13
M TOR 33 8 7 1 12
M TOR 34 8 7 6 17
M TOR 35 8 7 6 18
M  END
$$$$
