gdb 380	3.2323853	1.5800168	1.4870244	1.5973	73.71	-0.23249	0.08728	0.31977	975.1866	0.159167	-422.553771	-422.546689	-422.545745	-422.585045	28.87
 OpenBabel02181911403D

 19 21  0  0  1  0  0  0  0  0999 V2000
    0.7147    1.3676   -0.0612 C   0  0  0  0  0  0  0  0  0  0  0  0
    1.6253    0.1484    0.0514 C   0  0  0  0  0  0  0  0  0  0  0  0
    0.1404   -0.0017    0.0953 C   0  0  0  0  0  0  0  0  0  0  0  0
   -0.5357   -0.5865   -1.0149 O   0  0  0  0  0  0  0  0  0  0  0  0
   -1.6397   -1.2722   -0.4164 C   0  0  1  0  0  0  0  0  0  0  0  0
   -1.1244   -2.5784    0.2174 C   0  0  0  0  0  0  0  0  0  0  0  0
   -0.4156   -2.0030    1.4823 C   0  0  0  0  0  0  0  0  0  0  0  0
   -0.6756   -0.4920    1.2859 C   0  0  2  0  0  0  0  0  0  0  0  0
   -1.9935   -0.4801    0.7010 O   0  0  0  0  0  0  0  0  0  0  0  0
    0.6637    2.0570    0.7753 H   0  0  0  0  0  0  0  0  0  0  0  0
    0.6201    1.8268   -1.0389 H   0  0  0  0  0  0  0  0  0  0  0  0
    2.1295   -0.1821   -0.8497 H   0  0  0  0  0  0  0  0  0  0  0  0
    2.1939    0.0091    0.9659 H   0  0  0  0  0  0  0  0  0  0  0  0
   -2.4594   -1.3374   -1.1308 H   0  0  0  0  0  0  0  0  0  0  0  0
   -1.9543   -3.2402    0.4772 H   0  0  0  0  0  0  0  0  0  0  0  0
   -0.4503   -3.1076   -0.4581 H   0  0  0  0  0  0  0  0  0  0  0  0
   -0.8844   -2.3551    2.4036 H   0  0  0  0  0  0  0  0  0  0  0  0
    0.6498   -2.2381    1.5229 H   0  0  0  0  0  0  0  0  0  0  0  0
   -0.6458    0.1356    2.1750 H   0  0  0  0  0  0  0  0  0  0  0  0
  1  2  1  0  0  0  0
  1  3  1  0  0  0  0
  1 10  1  0  0  0  0
  2  3  1  0  0  0  0
  2 13  1  0  0  0  0
  3  8  1  0  0  0  0
  4  5  1  0  0  0  0
  4  3  1  0  0  0  0
  5 14  1  6  0  0  0
  5  6  1  0  0  0  0
  5  9  1  0  0  0  0
  6 15  1  0  0  0  0
  6  7  1  0  0  0  0
  7 18  1  0  0  0  0
  7 17  1  0  0  0  0
  8  7  1  0  0  0  0
  8 19  1  1  0  0  0
  9  8  1  0  0  0  0
 11  1  1  0  0  0  0
 12  2  1  0  0  0  0
 16  6  1  0  0  0  0
M TOR 0 0 1 2 3
M TOR 1 0 1 2 7
M TOR 2 0 2 1 11
M TOR 3 0 2 1 12
M TOR 4 0 2 3 4
M TOR 5 0 2 7 6
M TOR 6 0 2 7 8
M TOR 7 0 2 7 18
M TOR 8 1 2 0 9
M TOR 9 1 2 0 10
M TOR 10 1 2 3 4
M TOR 11 1 2 7 6
M TOR 12 1 2 7 8
M TOR 13 1 2 7 18
M TOR 14 2 3 4 5
M TOR 15 2 3 4 8
M TOR 16 2 3 4 13
M TOR 17 2 7 6 5
M TOR 18 2 7 6 16
M TOR 19 2 7 6 17
M TOR 20 2 7 8 4
M TOR 21 3 2 0 9
M TOR 22 3 2 0 10
M TOR 23 3 2 1 11
M TOR 24 3 2 1 12
M TOR 25 3 2 7 6
M TOR 26 3 2 7 8
M TOR 27 3 2 7 18
M TOR 28 3 4 5 6
M TOR 29 3 4 5 14
M TOR 30 3 4 5 15
M TOR 31 3 4 8 7
M TOR 32 4 3 2 7
M TOR 33 4 5 6 7
M TOR 34 4 5 6 16
M TOR 35 4 5 6 17
M TOR 36 4 8 7 6
M TOR 37 4 8 7 18
M TOR 38 5 4 8 7
M TOR 39 5 6 7 8
M TOR 40 5 6 7 18
M TOR 41 6 5 4 8
M TOR 42 6 5 4 13
M TOR 43 7 2 0 9
M TOR 44 7 2 0 10
M TOR 45 7 2 1 11
M TOR 46 7 2 1 12
M TOR 47 7 6 5 14
M TOR 48 7 6 5 15
M TOR 49 7 8 4 13
M TOR 50 8 4 5 14
M TOR 51 8 4 5 15
M TOR 52 8 7 6 16
M TOR 53 8 7 6 17
M  END
$$$$
