gdb 1814	2.8928833	1.3987186	1.1235562	3.6984	76.23	-0.24728	-0.04043	0.20685	1121.2735	0.156486	-422.52744	-422.519268	-422.518323	-422.560377	31.65
 OpenBabel02181911403D

 19 20  0  0  1  0  0  0  0  0999 V2000
    0.8564    3.1910   -0.7352 O   0  0  0  0  0  0  0  0  0  0  0  0
   -0.0193    3.1736    0.3181 C   0  0  2  0  0  0  0  0  0  0  0  0
   -1.1809    4.1835    0.5364 C   0  0  0  0  0  0  0  0  0  0  0  0
   -1.2540    3.1871    1.7280 C   0  0  2  0  0  0  0  0  0  0  0  0
    0.2900    3.3279    1.8491 C   0  0  0  0  0  0  0  0  0  0  0  0
   -1.0448    2.0450    0.6837 C   0  0  2  0  0  0  0  0  0  0  0  0
   -0.6027    0.6511    1.1203 C   0  0  0  0  0  0  0  0  0  0  0  0
    0.1741   -0.1249    0.0857 C   0  0  0  0  0  0  0  0  0  0  0  0
    0.7539    0.3545   -0.8621 O   0  0  0  0  0  0  0  0  0  0  0  0
    1.0138    2.2657   -0.9824 H   0  0  0  0  0  0  0  0  0  0  0  0
   -0.8921    5.2090    0.7772 H   0  0  0  0  0  0  0  0  0  0  0  0
   -2.0008    4.1497   -0.1864 H   0  0  0  0  0  0  0  0  0  0  0  0
   -1.9773    3.1951    2.5406 H   0  0  0  0  0  0  0  0  0  0  0  0
    0.6600    4.3057    2.1665 H   0  0  0  0  0  0  0  0  0  0  0  0
    0.8440    2.5284    2.3459 H   0  0  0  0  0  0  0  0  0  0  0  0
   -1.8586    1.9567   -0.0454 H   0  0  0  0  0  0  0  0  0  0  0  0
    0.0409    0.6711    2.0123 H   0  0  0  0  0  0  0  0  0  0  0  0
   -1.4670    0.0415    1.4175 H   0  0  0  0  0  0  0  0  0  0  0  0
    0.2144   -1.2228    0.2550 H   0  0  0  0  0  0  0  0  0  0  0  0
  2  1  1  6  0  0  0
  2  3  1  0  0  0  0
  2  6  1  0  0  0  0
  2  5  1  0  0  0  0
  3 11  1  0  0  0  0
  3  4  1  0  0  0  0
  4  5  1  0  0  0  0
  4 13  1  1  0  0  0
  5 14  1  0  0  0  0
  5 15  1  0  0  0  0
  6 16  1  6  0  0  0
  6  7  1  0  0  0  0
  6  4  1  0  0  0  0
  7 18  1  0  0  0  0
  7 17  1  0  0  0  0
  8 19  1  0  0  0  0
  8  7  1  0  0  0  0
  9  8  2  0  0  0  0
 10  1  1  0  0  0  0
 12  3  1  0  0  0  0
M TOR 0 0 1 2 3
M TOR 1 0 1 2 10
M TOR 2 0 1 2 11
M TOR 3 0 1 4 3
M TOR 4 0 1 4 13
M TOR 5 0 1 4 14
M TOR 6 0 1 5 3
M TOR 7 0 1 5 6
M TOR 8 0 1 5 15
M TOR 9 1 2 3 4
M TOR 10 1 2 3 5
M TOR 11 1 2 3 12
M TOR 12 1 4 3 5
M TOR 13 1 4 3 12
M TOR 14 1 5 3 12
M TOR 15 1 5 6 7
M TOR 16 1 5 6 16
M TOR 17 1 5 6 17
M TOR 18 2 1 0 9
M TOR 19 2 1 4 13
M TOR 20 2 1 4 14
M TOR 21 2 1 5 6
M TOR 22 2 1 5 15
M TOR 23 2 3 4 13
M TOR 24 2 3 4 14
M TOR 25 2 3 5 6
M TOR 26 2 3 5 15
M TOR 27 3 5 6 7
M TOR 28 3 5 6 16
M TOR 29 3 5 6 17
M TOR 30 4 1 0 9
M TOR 31 4 1 2 10
M TOR 32 4 1 2 11
M TOR 33 4 1 5 6
M TOR 34 4 1 5 15
M TOR 35 4 3 2 10
M TOR 36 4 3 2 11
M TOR 37 4 3 5 6
M TOR 38 4 3 5 15
M TOR 39 5 1 0 9
M TOR 40 5 1 2 10
M TOR 41 5 1 2 11
M TOR 42 5 1 4 13
M TOR 43 5 1 4 14
M TOR 44 5 3 2 10
M TOR 45 5 3 2 11
M TOR 46 5 3 4 13
M TOR 47 5 3 4 14
M TOR 48 5 6 7 8
M TOR 49 5 6 7 18
M TOR 50 6 5 3 12
M TOR 51 7 6 5 15
M TOR 52 8 7 6 16
M TOR 53 8 7 6 17
M  END
$$$$
