gdb 5951	3.4358133	1.0172259	0.9016422	2.4191	77.44	-0.24088	0.01313	0.25401	1348.7992	0.156107	-422.511203	-422.50231	-422.501366	-422.545584	32.019
 OpenBabel02181911423D

 19 20  0  0  1  0  0  0  0  0999 V2000
    1.5637    0.7404    0.0740 C   0  0  0  0  0  0  0  0  0  0  0  0
    0.1871    0.9940    0.2309 O   0  0  0  0  0  0  0  0  0  0  0  0
   -0.4702   -0.0034    0.9846 C   0  0  0  0  0  0  0  0  0  0  0  0
   -1.9203    0.3519    1.0964 C   0  0  1  0  0  0  0  0  0  0  0  0
   -2.5645    1.6330    1.7385 C   0  0  0  0  0  0  0  0  0  0  0  0
   -3.8091    0.8233    1.2369 C   0  0  1  0  0  0  0  0  0  0  0  0
   -2.9698    0.5439   -0.0568 C   0  0  0  0  0  0  0  0  0  0  0  0
   -3.0667   -0.3930    1.8070 C   0  0  0  0  0  0  0  0  0  0  0  0
   -3.2557   -1.3800    2.4487 O   0  0  0  0  0  0  0  0  0  0  0  0
    1.7466   -0.2094   -0.4530 H   0  0  0  0  0  0  0  0  0  0  0  0
    1.9815    1.5588   -0.5170 H   0  0  0  0  0  0  0  0  0  0  0  0
    2.0845    0.6989    1.0437 H   0  0  0  0  0  0  0  0  0  0  0  0
   -0.3625   -0.9907    0.5033 H   0  0  0  0  0  0  0  0  0  0  0  0
   -0.0264   -0.0876    1.9915 H   0  0  0  0  0  0  0  0  0  0  0  0
   -2.4491    1.7721    2.8153 H   0  0  0  0  0  0  0  0  0  0  0  0
   -2.3691    2.5516    1.1821 H   0  0  0  0  0  0  0  0  0  0  0  0
   -4.8581    1.0989    1.3065 H   0  0  0  0  0  0  0  0  0  0  0  0
   -3.2322   -0.3321   -0.6535 H   0  0  0  0  0  0  0  0  0  0  0  0
   -2.7887    1.4242   -0.6766 H   0  0  0  0  0  0  0  0  0  0  0  0
  1  2  1  0  0  0  0
  1 12  1  0  0  0  0
  2  3  1  0  0  0  0
  3 14  1  0  0  0  0
  4  3  1  6  0  0  0
  4  5  1  0  0  0  0
  4  8  1  0  0  0  0
  5 15  1  0  0  0  0
  6 17  1  1  0  0  0
  6  5  1  0  0  0  0
  6  8  1  0  0  0  0
  7  4  1  0  0  0  0
  7  6  1  0  0  0  0
  8  9  2  0  0  0  0
 10  1  1  0  0  0  0
 11  1  1  0  0  0  0
 13  3  1  0  0  0  0
 16  5  1  0  0  0  0
 18  7  1  0  0  0  0
 19  7  1  0  0  0  0
M TOR 0 0 1 2 3
M TOR 1 0 1 2 12
M TOR 2 0 1 2 13
M TOR 3 1 2 3 4
M TOR 4 1 2 3 6
M TOR 5 1 2 3 7
M TOR 6 2 1 0 9
M TOR 7 2 1 0 10
M TOR 8 2 1 0 11
M TOR 9 2 3 4 5
M TOR 10 2 3 4 14
M TOR 11 2 3 4 15
M TOR 12 2 3 6 5
M TOR 13 2 3 6 17
M TOR 14 2 3 6 18
M TOR 15 2 3 7 5
M TOR 16 2 3 7 8
M TOR 17 3 4 5 6
M TOR 18 3 4 5 7
M TOR 19 3 4 5 16
M TOR 20 3 6 5 7
M TOR 21 3 6 5 16
M TOR 22 3 7 5 16
M TOR 23 4 3 2 12
M TOR 24 4 3 2 13
M TOR 25 4 3 6 17
M TOR 26 4 3 6 18
M TOR 27 4 3 7 8
M TOR 28 4 5 6 17
M TOR 29 4 5 6 18
M TOR 30 4 5 7 8
M TOR 31 6 3 2 12
M TOR 32 6 3 2 13
M TOR 33 6 3 4 14
M TOR 34 6 3 4 15
M TOR 35 6 3 7 8
M TOR 36 6 5 4 14
M TOR 37 6 5 4 15
M TOR 38 6 5 7 8
M TOR 39 7 3 2 12
M TOR 40 7 3 2 13
M TOR 41 7 3 4 14
M TOR 42 7 3 4 15
M TOR 43 7 3 6 17
M TOR 44 7 3 6 18
M TOR 45 7 5 4 14
M TOR 46 7 5 4 15
M TOR 47 7 5 6 17
M TOR 48 7 5 6 18
M TOR 49 8 7 5 16
M  END
$$$$
