
     RDKit          3D

 19 21  0  0  0  0  0  0  0  0999 V2000
   -0.4041    0.3719   -1.3586 C   0  0  0  0  0  0  0  0  0  0  0  0
   -0.0826   -0.1190    0.0589 C   0  0  0  0  0  0  0  0  0  0  0  0
    0.8928    0.9584    0.5738 C   0  0  0  0  0  0  0  0  0  0  0  0
    0.2387    2.1607    1.2313 C   0  0  0  0  0  0  0  0  0  0  0  0
   -0.7161    2.8243    0.3871 O   0  0  0  0  0  0  0  0  0  0  0  0
    0.5944    3.3933    0.5156 C   0  0  0  0  0  0  0  0  0  0  0  0
    1.5125    3.0667   -0.6423 C   0  0  0  0  0  0  0  0  0  0  0  0
    1.5393    1.5158   -0.7355 C   0  0  0  0  0  0  0  0  0  0  0  0
    0.7874    0.9997   -1.8280 O   0  0  0  0  0  0  0  0  0  0  0  0
   -0.6455   -0.4387   -2.0531 H   0  0  0  0  0  0  0  0  0  0  0  0
   -1.2347    1.0867   -1.3409 H   0  0  0  0  0  0  0  0  0  0  0  0
   -0.9754   -0.2176    0.6819 H   0  0  0  0  0  0  0  0  0  0  0  0
    0.4175   -1.0917    0.0233 H   0  0  0  0  0  0  0  0  0  0  0  0
    1.6416    0.5413    1.2537 H   0  0  0  0  0  0  0  0  0  0  0  0
   -0.0176    2.1402    2.2883 H   0  0  0  0  0  0  0  0  0  0  0  0
    0.6260    4.3673    0.9984 H   0  0  0  0  0  0  0  0  0  0  0  0
    1.1696    3.4970   -1.5874 H   0  0  0  0  0  0  0  0  0  0  0  0
    2.5144    3.4615   -0.4376 H   0  0  0  0  0  0  0  0  0  0  0  0
    2.5687    1.1657   -0.8696 H   0  0  0  0  0  0  0  0  0  0  0  0
  1  2  1  0
  2  3  1  0
  3  4  1  0
  4  5  1  0
  5  6  1  0
  6  7  1  0
  7  8  1  0
  8  9  1  0
  9  1  1  0
  8  3  1  0
  6  4  1  0
  1 10  1  0
  1 11  1  0
  2 12  1  0
  2 13  1  0
  3 14  1  0
  4 15  1  0
  6 16  1  0
  7 17  1  0
  7 18  1  0
  8 19  1  0
M  END
$$$$
