gdb 4304	3.275401	1.0445993	0.8770638	3.6895	79.58	-0.23842	-0.04489	0.19352999999999998	1348.6201	0.155717	-422.592802	-422.583531	-422.582587	-422.627365	33.783
 OpenBabel02181911413D

 19 19  0  0  1  0  0  0  0  0999 V2000
    5.6776    0.2803    4.2214 C   0  0  0  0  0  0  0  0  0  0  0  0
    5.6791   -0.2081    2.7830 C   0  0  0  0  0  0  0  0  0  0  0  0
    6.7064   -0.5606    2.2372 O   0  0  0  0  0  0  0  0  0  0  0  0
    4.3717   -0.2370    2.0740 C   0  0  0  0  0  0  0  0  0  0  0  0
    4.2367   -0.6417    0.8036 C   0  0  0  0  0  0  0  0  0  0  0  0
    2.8197   -0.5504    0.3181 C   0  0  0  0  0  0  0  0  0  0  0  0
    2.0026   -0.3073    1.6069 C   0  0  1  0  0  0  0  0  0  0  0  0
    1.4615   -1.5688    1.9802 O   0  0  0  0  0  0  0  0  0  0  0  0
    3.0382    0.2058    2.6455 C   0  0  0  0  0  0  0  0  0  0  0  0
    5.0557   -0.3713    4.8463 H   0  0  0  0  0  0  0  0  0  0  0  0
    6.6982    0.2863    4.6050 H   0  0  0  0  0  0  0  0  0  0  0  0
    5.2495    1.2869    4.2901 H   0  0  0  0  0  0  0  0  0  0  0  0
    5.0668   -0.9760    0.1928 H   0  0  0  0  0  0  0  0  0  0  0  0
    2.7050    0.2739   -0.3988 H   0  0  0  0  0  0  0  0  0  0  0  0
    2.4699   -1.4584   -0.1840 H   0  0  0  0  0  0  0  0  0  0  0  0
    1.1950    0.4202    1.4495 H   0  0  0  0  0  0  0  0  0  0  0  0
    0.9726   -1.4524    2.8012 H   0  0  0  0  0  0  0  0  0  0  0  0
    2.9914    1.2990    2.7466 H   0  0  0  0  0  0  0  0  0  0  0  0
    2.8254   -0.2100    3.6375 H   0  0  0  0  0  0  0  0  0  0  0  0
  1 12  1  0  0  0  0
  1 11  1  0  0  0  0
  1 10  1  0  0  0  0
  2  1  1  0  0  0  0
  3  2  2  0  0  0  0
  4  9  1  0  0  0  0
  4  2  1  0  0  0  0
  5  4  2  0  0  0  0
  6  5  1  0  0  0  0
  6  7  1  0  0  0  0
  7 16  1  6  0  0  0
  7  8  1  0  0  0  0
  7  9  1  0  0  0  0
  8 17  1  0  0  0  0
  9 18  1  0  0  0  0
  9 19  1  0  0  0  0
 13  5  1  0  0  0  0
 14  6  1  0  0  0  0
 15  6  1  0  0  0  0
M TOR 0 0 1 3 4
M TOR 1 0 1 3 8
M TOR 2 1 3 4 5
M TOR 3 1 3 4 12
M TOR 4 1 3 8 6
M TOR 5 1 3 8 17
M TOR 6 1 3 8 18
M TOR 7 2 1 0 9
M TOR 8 2 1 0 10
M TOR 9 2 1 0 11
M TOR 10 2 1 3 4
M TOR 11 2 1 3 8
M TOR 12 3 1 0 9
M TOR 13 3 1 0 10
M TOR 14 3 1 0 11
M TOR 15 3 4 5 6
M TOR 16 3 4 5 13
M TOR 17 3 4 5 14
M TOR 18 3 8 6 5
M TOR 19 3 8 6 7
M TOR 20 3 8 6 15
M TOR 21 4 3 8 6
M TOR 22 4 3 8 17
M TOR 23 4 3 8 18
M TOR 24 4 5 6 7
M TOR 25 4 5 6 8
M TOR 26 4 5 6 15
M TOR 27 5 4 3 8
M TOR 28 5 6 7 16
M TOR 29 5 6 8 17
M TOR 30 5 6 8 18
M TOR 31 6 5 4 12
M TOR 32 7 6 5 13
M TOR 33 7 6 5 14
M TOR 34 7 6 8 17
M TOR 35 7 6 8 18
M TOR 36 8 3 4 12
M TOR 37 8 6 5 13
M TOR 38 8 6 5 14
M TOR 39 8 6 7 16
M  END
$$$$
