gdb 860	3.3320855	1.250997	1.0936805	3.1653	74.94	-0.24161	-0.02121	0.22039999999999998	1143.7893	0.15841	-422.559539	-422.55167	-422.550726	-422.592552	29.731
 OpenBabel02181911403D

 19 20  0  0  1  0  0  0  0  0999 V2000
    1.4218   -0.2405   -0.2300 O   0  0  0  0  0  0  0  0  0  0  0  0
    0.2329   -0.0493   -0.2237 C   0  0  0  0  0  0  0  0  0  0  0  0
   -0.5303    0.7282   -1.2731 C   0  0  2  0  0  0  0  0  0  0  0  0
   -1.1989    1.9710   -0.6144 C   0  0  0  0  0  0  0  0  0  0  0  0
   -2.5313    2.3870   -1.2882 C   0  0  0  0  0  0  0  0  0  0  0  0
   -3.1876    1.1514   -1.9139 C   0  0  1  0  0  0  0  0  0  0  0  0
   -2.3255    0.5881   -3.0604 C   0  0  0  0  0  0  0  0  0  0  0  0
   -1.6433   -0.1501   -1.8954 C   0  0  2  0  0  0  0  0  0  0  0  0
   -2.8563   -0.0204   -1.1032 O   0  0  0  0  0  0  0  0  0  0  0  0
   -0.4124   -0.4528    0.5918 H   0  0  0  0  0  0  0  0  0  0  0  0
    0.1834    1.0135   -2.0526 H   0  0  0  0  0  0  0  0  0  0  0  0
   -1.4211    1.7140    0.4261 H   0  0  0  0  0  0  0  0  0  0  0  0
   -0.4922    2.8039   -0.5841 H   0  0  0  0  0  0  0  0  0  0  0  0
   -3.1900    2.8370   -0.5389 H   0  0  0  0  0  0  0  0  0  0  0  0
   -2.3727    3.1423   -2.0666 H   0  0  0  0  0  0  0  0  0  0  0  0
   -4.2649    1.2536   -2.0637 H   0  0  0  0  0  0  0  0  0  0  0  0
   -2.8825   -0.0922   -3.7062 H   0  0  0  0  0  0  0  0  0  0  0  0
   -1.7316    1.2841   -3.6569 H   0  0  0  0  0  0  0  0  0  0  0  0
   -1.3472   -1.1944   -2.0274 H   0  0  0  0  0  0  0  0  0  0  0  0
  1  2  2  0  0  0  0
  2 10  1  0  0  0  0
  3 11  1  6  0  0  0
  3  4  1  0  0  0  0
  3  2  1  0  0  0  0
  4 13  1  0  0  0  0
  4 12  1  0  0  0  0
  5  4  1  0  0  0  0
  5 14  1  0  0  0  0
  6 16  1  6  0  0  0
  6  5  1  0  0  0  0
  6  9  1  0  0  0  0
  7  6  1  0  0  0  0
  7  8  1  0  0  0  0
  8 19  1  6  0  0  0
  8  3  1  0  0  0  0
  8  9  1  0  0  0  0
 15  5  1  0  0  0  0
 17  7  1  0  0  0  0
 18  7  1  0  0  0  0
M TOR 0 0 1 2 3
M TOR 1 0 1 2 7
M TOR 2 0 1 2 10
M TOR 3 1 2 3 4
M TOR 4 1 2 3 11
M TOR 5 1 2 3 12
M TOR 6 1 2 7 6
M TOR 7 1 2 7 8
M TOR 8 1 2 7 18
M TOR 9 2 3 4 5
M TOR 10 2 3 4 13
M TOR 11 2 3 4 14
M TOR 12 2 7 6 5
M TOR 13 2 7 6 16
M TOR 14 2 7 6 17
M TOR 15 2 7 8 5
M TOR 16 3 2 1 9
M TOR 17 3 2 7 6
M TOR 18 3 2 7 8
M TOR 19 3 2 7 18
M TOR 20 3 4 5 6
M TOR 21 3 4 5 8
M TOR 22 3 4 5 15
M TOR 23 4 3 2 7
M TOR 24 4 3 2 10
M TOR 25 4 5 6 7
M TOR 26 4 5 6 16
M TOR 27 4 5 6 17
M TOR 28 4 5 8 7
M TOR 29 5 4 3 11
M TOR 30 5 4 3 12
M TOR 31 5 6 7 8
M TOR 32 5 6 7 18
M TOR 33 5 8 7 18
M TOR 34 6 5 4 13
M TOR 35 6 5 4 14
M TOR 36 6 7 2 10
M TOR 37 7 2 1 9
M TOR 38 7 2 3 11
M TOR 39 7 2 3 12
M TOR 40 7 6 5 15
M TOR 41 7 8 5 15
M TOR 42 8 5 4 13
M TOR 43 8 5 4 14
M TOR 44 8 5 6 16
M TOR 45 8 5 6 17
M TOR 46 8 7 2 10
M TOR 47 8 7 6 16
M TOR 48 8 7 6 17
M  END
$$$$
