
     RDKit          3D

 19 20  0  0  0  0  0  0  0  0999 V2000
    1.0798    0.4150    1.0747 O   0  0  0  0  0  0  0  0  0  0  0  0
    0.0547   -0.1970    0.9381 C   0  0  0  0  0  0  0  0  0  0  0  0
   -1.1123    0.2873    0.5001 O   0  0  0  0  0  0  0  0  0  0  0  0
   -1.1373    1.6984    0.1307 C   0  0  0  0  0  0  0  0  0  0  0  0
   -1.4170    2.5762    1.3660 C   0  0  0  0  0  0  0  0  0  0  0  0
   -2.9580    2.6117    1.5003 C   0  0  0  0  0  0  0  0  0  0  0  0
   -3.4741    2.4348    0.0786 C   0  0  0  0  0  0  0  0  0  0  0  0
   -2.8349    3.2751   -0.9971 C   0  0  0  0  0  0  0  0  0  0  0  0
   -2.3475    1.8657   -0.7600 C   0  0  0  0  0  0  0  0  0  0  0  0
   -0.0702   -1.2697    1.1573 H   0  0  0  0  0  0  0  0  0  0  0  0
   -0.1807    1.9311   -0.3410 H   0  0  0  0  0  0  0  0  0  0  0  0
   -0.9105    2.1902    2.2519 H   0  0  0  0  0  0  0  0  0  0  0  0
   -1.0146    3.5777    1.1872 H   0  0  0  0  0  0  0  0  0  0  0  0
   -3.3051    1.7747    2.1162 H   0  0  0  0  0  0  0  0  0  0  0  0
   -3.3074    3.5338    1.9761 H   0  0  0  0  0  0  0  0  0  0  0  0
   -4.4961    2.1042   -0.0669 H   0  0  0  0  0  0  0  0  0  0  0  0
   -3.4066    3.4380   -1.9039 H   0  0  0  0  0  0  0  0  0  0  0  0
   -2.2062    4.1157   -0.7215 H   0  0  0  0  0  0  0  0  0  0  0  0
   -2.5141    1.1146   -1.5228 H   0  0  0  0  0  0  0  0  0  0  0  0
  1  2  2  0
  2  3  1  0
  3  4  1  0
  4  5  1  0
  5  6  1  0
  6  7  1  0
  7  8  1  0
  8  9  1  0
  9  4  1  0
  9  7  1  0
  2 10  1  0
  4 11  1  0
  5 12  1  0
  5 13  1  0
  6 14  1  0
  6 15  1  0
  7 16  1  0
  8 17  1  0
  8 18  1  0
  9 19  1  0
M  END
$$$$
