gdb 4990	2.5956873	1.2686743	0.9591302	2.7097	77.56	-0.2374	-0.00741	0.22999	1254.4932	0.15515	-422.549346	-422.540133	-422.539189	-422.583394	34.209
 OpenBabel02181911413D

 19 20  0  0  1  0  0  0  0  0999 V2000
    2.0456    1.7532   -1.9346 C   0  0  0  0  0  0  0  0  0  0  0  0
    2.2953    0.6492   -0.8968 C   0  0  0  0  0  0  0  0  0  0  0  0
    1.9785   -0.7204   -1.4302 C   0  0  1  0  0  0  0  0  0  0  0  0
    2.8038   -1.4655   -2.4993 C   0  0  0  0  0  0  0  0  0  0  0  0
    2.6661   -2.7445   -1.6302 C   0  0  0  0  0  0  0  0  0  0  0  0
    3.2036   -3.8165   -1.6707 O   0  0  0  0  0  0  0  0  0  0  0  0
    1.7895   -2.0630   -0.6387 C   0  0  2  0  0  0  0  0  0  0  0  0
    0.6378   -1.3437   -1.3741 C   0  0  1  0  0  0  0  0  0  0  0  0
   -0.2791   -0.6977   -0.5481 O   0  0  0  0  0  0  0  0  0  0  0  0
    2.2999    2.7353   -1.5251 H   0  0  0  0  0  0  0  0  0  0  0  0
    2.6507    1.5995   -2.8344 H   0  0  0  0  0  0  0  0  0  0  0  0
    0.9938    1.7742   -2.2355 H   0  0  0  0  0  0  0  0  0  0  0  0
    3.3436    0.6746   -0.5737 H   0  0  0  0  0  0  0  0  0  0  0  0
    1.6824    0.8326   -0.0096 H   0  0  0  0  0  0  0  0  0  0  0  0
    2.3969   -1.4986   -3.5150 H   0  0  0  0  0  0  0  0  0  0  0  0
    3.8499   -1.1469   -2.5414 H   0  0  0  0  0  0  0  0  0  0  0  0
    1.6943   -2.2514    0.4243 H   0  0  0  0  0  0  0  0  0  0  0  0
    0.2041   -1.8025   -2.2649 H   0  0  0  0  0  0  0  0  0  0  0  0
   -0.8855   -1.3565   -0.1938 H   0  0  0  0  0  0  0  0  0  0  0  0
  1 10  1  0  0  0  0
  1  2  1  0  0  0  0
  2 13  1  0  0  0  0
  2 14  1  0  0  0  0
  3  8  1  0  0  0  0
  3  2  1  1  0  0  0
  3  7  1  0  0  0  0
  4  5  1  0  0  0  0
  4  3  1  0  0  0  0
  5  7  1  0  0  0  0
  6  5  2  0  0  0  0
  7 17  1  1  0  0  0
  8 18  1  6  0  0  0
  8  7  1  0  0  0  0
  8  9  1  0  0  0  0
  9 19  1  0  0  0  0
 11  1  1  0  0  0  0
 12  1  1  0  0  0  0
 15  4  1  0  0  0  0
 16  4  1  0  0  0  0
M TOR 0 0 1 2 3
M TOR 1 0 1 2 6
M TOR 2 0 1 2 7
M TOR 3 1 2 3 4
M TOR 4 1 2 3 14
M TOR 5 1 2 3 15
M TOR 6 1 2 6 4
M TOR 7 1 2 6 7
M TOR 8 1 2 6 16
M TOR 9 1 2 7 8
M TOR 10 1 2 7 17
M TOR 11 2 1 0 9
M TOR 12 2 1 0 10
M TOR 13 2 1 0 11
M TOR 14 2 3 4 5
M TOR 15 2 3 4 6
M TOR 16 2 6 4 5
M TOR 17 2 6 7 8
M TOR 18 2 6 7 17
M TOR 19 2 7 6 4
M TOR 20 2 7 6 16
M TOR 21 2 7 8 18
M TOR 22 3 2 1 12
M TOR 23 3 2 1 13
M TOR 24 3 2 6 7
M TOR 25 3 2 6 16
M TOR 26 3 2 7 8
M TOR 27 3 2 7 17
M TOR 28 3 4 6 7
M TOR 29 3 4 6 16
M TOR 30 4 3 2 7
M TOR 31 4 6 7 8
M TOR 32 4 6 7 17
M TOR 33 5 4 3 14
M TOR 34 5 4 3 15
M TOR 35 5 4 6 7
M TOR 36 5 4 6 16
M TOR 37 6 2 1 12
M TOR 38 6 2 1 13
M TOR 39 6 2 3 14
M TOR 40 6 2 3 15
M TOR 41 6 4 3 14
M TOR 42 6 4 3 15
M TOR 43 6 7 8 18
M TOR 44 7 2 1 12
M TOR 45 7 2 1 13
M TOR 46 7 2 3 14
M TOR 47 7 2 3 15
M TOR 48 8 7 6 16
M  END
$$$$
