gdb 900	3.0933597	1.1143082	1.0493015	3.0602	75.15	-0.22994	-0.01844	0.2115	1227.3144	0.156461	-422.555738	-422.547174	-422.54623	-422.589787	31.508
 OpenBabel02181911403D

 19 20  0  0  1  0  0  0  0  0999 V2000
    1.5054   -0.2206   -0.0450 O   0  0  0  0  0  0  0  0  0  0  0  0
    0.3986    0.2416    0.0656 C   0  0  0  0  0  0  0  0  0  0  0  0
   -0.4205    0.7815   -1.0920 C   0  0  0  0  0  0  0  0  0  0  0  0
   -1.1420    2.0587   -0.7402 C   0  0  2  0  0  0  0  0  0  0  0  0
   -1.3983    3.1569   -1.7416 C   0  0  0  0  0  0  0  0  0  0  0  0
   -0.5095    3.4090   -0.5316 C   0  0  1  0  0  0  0  0  0  0  0  0
   -1.1694    3.9853    0.7099 C   0  0  0  0  0  0  0  0  0  0  0  0
   -2.4162    3.0884    0.8861 C   0  0  0  0  0  0  0  0  0  0  0  0
   -2.1219    1.8419    0.2516 O   0  0  0  0  0  0  0  0  0  0  0  0
   -0.1099    0.2994    1.0520 H   0  0  0  0  0  0  0  0  0  0  0  0
    0.2353    0.9157   -1.9555 H   0  0  0  0  0  0  0  0  0  0  0  0
   -1.1698    0.0206   -1.3550 H   0  0  0  0  0  0  0  0  0  0  0  0
   -0.9053    3.0767   -2.7046 H   0  0  0  0  0  0  0  0  0  0  0  0
   -2.3826    3.6119   -1.7830 H   0  0  0  0  0  0  0  0  0  0  0  0
    0.5510    3.5710   -0.6862 H   0  0  0  0  0  0  0  0  0  0  0  0
   -0.4901    3.8868    1.5631 H   0  0  0  0  0  0  0  0  0  0  0  0
   -1.4430    5.0408    0.6201 H   0  0  0  0  0  0  0  0  0  0  0  0
   -2.6635    2.8829    1.9309 H   0  0  0  0  0  0  0  0  0  0  0  0
   -3.2963    3.5472    0.4160 H   0  0  0  0  0  0  0  0  0  0  0  0
  1  2  2  0  0  0  0
  2 10  1  0  0  0  0
  3  2  1  0  0  0  0
  4  3  1  6  0  0  0
  4  6  1  0  0  0  0
  4  9  1  0  0  0  0
  5  4  1  0  0  0  0
  5  6  1  0  0  0  0
  6 15  1  6  0  0  0
  6  7  1  0  0  0  0
  7  8  1  0  0  0  0
  7 16  1  0  0  0  0
  8 18  1  0  0  0  0
  9  8  1  0  0  0  0
 11  3  1  0  0  0  0
 12  3  1  0  0  0  0
 13  5  1  0  0  0  0
 14  5  1  0  0  0  0
 17  7  1  0  0  0  0
 19  8  1  0  0  0  0
M TOR 0 0 1 2 3
M TOR 1 0 1 2 10
M TOR 2 0 1 2 11
M TOR 3 1 2 3 4
M TOR 4 1 2 3 5
M TOR 5 1 2 3 8
M TOR 6 2 3 4 5
M TOR 7 2 3 4 12
M TOR 8 2 3 4 13
M TOR 9 2 3 5 6
M TOR 10 2 3 5 14
M TOR 11 2 3 8 7
M TOR 12 3 2 1 9
M TOR 13 3 4 5 6
M TOR 14 3 4 5 14
M TOR 15 3 5 4 12
M TOR 16 3 5 4 13
M TOR 17 3 5 6 7
M TOR 18 3 5 6 15
M TOR 19 3 5 6 16
M TOR 20 3 8 7 6
M TOR 21 3 8 7 17
M TOR 22 3 8 7 18
M TOR 23 4 3 2 10
M TOR 24 4 3 2 11
M TOR 25 4 3 8 7
M TOR 26 4 5 3 8
M TOR 27 4 5 6 7
M TOR 28 4 5 6 15
M TOR 29 4 5 6 16
M TOR 30 5 3 2 10
M TOR 31 5 3 2 11
M TOR 32 5 3 8 7
M TOR 33 5 6 7 8
M TOR 34 5 6 7 17
M TOR 35 5 6 7 18
M TOR 36 6 5 3 8
M TOR 37 6 5 4 12
M TOR 38 6 5 4 13
M TOR 39 7 6 5 14
M TOR 40 8 3 2 10
M TOR 41 8 3 2 11
M TOR 42 8 3 4 12
M TOR 43 8 3 4 13
M TOR 44 8 3 5 14
M TOR 45 8 7 6 15
M TOR 46 8 7 6 16
M  END
$$$$
