gdb 331	2.4417155	1.999681	1.3832794	2.6274	74.63	-0.23533	0.08024	0.31557	977.2665	0.158622	-422.513942	-422.50651	-422.505566	-422.545494	29.525
 OpenBabel02181911403D

 19 21  0  0  1  0  0  0  0  0999 V2000
   -1.4953   -1.4277   -1.9978 C   0  0  0  0  0  0  0  0  0  0  0  0
   -0.3606   -0.5303   -1.6012 C   0  0  1  0  0  0  0  0  0  0  0  0
   -0.3436    0.6987   -2.2446 O   0  0  0  0  0  0  0  0  0  0  0  0
    0.0179    1.8432   -1.4885 C   0  0  0  0  0  0  0  0  0  0  0  0
   -0.4951    1.9135   -0.0399 C   0  0  0  0  0  0  0  0  0  0  0  0
   -1.9561    1.5492    0.1764 C   0  0  1  0  0  0  0  0  0  0  0  0
   -2.7739    1.2681   -0.9667 O   0  0  0  0  0  0  0  0  0  0  0  0
   -2.4187    0.1811   -0.1103 C   0  0  1  0  0  0  0  0  0  0  0  0
   -1.4507   -0.8507   -0.5976 C   0  0  1  0  0  0  0  0  0  0  0  0
   -2.2089   -0.9786   -2.6795 H   0  0  0  0  0  0  0  0  0  0  0  0
   -1.3169   -2.4880   -2.1360 H   0  0  0  0  0  0  0  0  0  0  0  0
    0.6201   -0.9773   -1.4269 H   0  0  0  0  0  0  0  0  0  0  0  0
    1.1139    1.9542   -1.4636 H   0  0  0  0  0  0  0  0  0  0  0  0
   -0.3856    2.6837   -2.0609 H   0  0  0  0  0  0  0  0  0  0  0  0
    0.1140    1.2670    0.6041 H   0  0  0  0  0  0  0  0  0  0  0  0
   -0.3140    2.9388    0.3031 H   0  0  0  0  0  0  0  0  0  0  0  0
   -2.4727    2.1161    0.9518 H   0  0  0  0  0  0  0  0  0  0  0  0
   -3.2583   -0.2143    0.4644 H   0  0  0  0  0  0  0  0  0  0  0  0
   -1.1644   -1.5431    0.1915 H   0  0  0  0  0  0  0  0  0  0  0  0
  1  2  1  0  0  0  0
  1  9  1  0  0  0  0
  2 12  1  1  0  0  0
  2  9  1  0  0  0  0
  3  2  1  0  0  0  0
  3  4  1  0  0  0  0
  4 13  1  0  0  0  0
  4  5  1  0  0  0  0
  5  6  1  0  0  0  0
  5 16  1  0  0  0  0
  5 15  1  0  0  0  0
  6 17  1  1  0  0  0
  7  8  1  0  0  0  0
  7  6  1  0  0  0  0
  8  6  1  0  0  0  0
  8 18  1  1  0  0  0
  9  8  1  0  0  0  0
  9 19  1  1  0  0  0
 10  1  1  0  0  0  0
 11  1  1  0  0  0  0
 14  4  1  0  0  0  0
M TOR 0 0 1 2 3
M TOR 1 0 1 8 7
M TOR 2 0 1 8 18
M TOR 3 0 8 1 2
M TOR 4 0 8 1 11
M TOR 5 0 8 7 5
M TOR 6 0 8 7 6
M TOR 7 0 8 7 17
M TOR 8 1 2 3 4
M TOR 9 1 2 3 12
M TOR 10 1 2 3 13
M TOR 11 1 8 0 9
M TOR 12 1 8 0 10
M TOR 13 1 8 7 5
M TOR 14 1 8 7 6
M TOR 15 1 8 7 17
M TOR 16 2 1 0 9
M TOR 17 2 1 0 10
M TOR 18 2 1 8 7
M TOR 19 2 1 8 18
M TOR 20 2 3 4 5
M TOR 21 2 3 4 14
M TOR 22 2 3 4 15
M TOR 23 3 2 1 8
M TOR 24 3 2 1 11
M TOR 25 3 4 5 6
M TOR 26 3 4 5 7
M TOR 27 3 4 5 16
M TOR 28 4 5 6 7
M TOR 29 4 5 7 8
M TOR 30 4 5 7 17
M TOR 31 5 4 3 12
M TOR 32 5 4 3 13
M TOR 33 5 6 7 8
M TOR 34 5 6 7 17
M TOR 35 5 7 8 18
M TOR 36 6 5 4 14
M TOR 37 6 5 4 15
M TOR 38 6 7 5 16
M TOR 39 6 7 8 18
M TOR 40 7 5 4 14
M TOR 41 7 5 4 15
M TOR 42 7 8 0 9
M TOR 43 7 8 0 10
M TOR 44 7 8 1 11
M TOR 45 8 7 5 16
M  END
$$$$
