gdb 5189	2.6704161	1.655388	1.2473895	2.6416	73.89	-0.24879	0.05853	0.30732000000000004	1036.6348	0.157472	-422.508175	-422.500043	-422.499099	-422.540919	31.831
 OpenBabel02181911423D

 19 21  0  0  1  0  0  0  0  0999 V2000
    1.1219    0.3987   -0.6128 O   0  0  0  0  0  0  0  0  0  0  0  0
   -0.0119    0.4907    0.2363 C   0  0  0  0  0  0  0  0  0  0  0  0
   -1.2933    0.5986   -0.5578 C   0  0  2  0  0  0  0  0  0  0  0  0
   -1.8624    1.9194   -1.1439 C   0  0  0  0  0  0  0  0  0  0  0  0
   -3.2223    1.2185   -1.1058 C   0  0  1  0  0  0  0  0  0  0  0  0
   -3.0005   -0.2541   -1.4780 C   0  0  2  0  0  0  0  0  0  0  0  0
   -2.7646    0.2356   -0.0601 C   0  0  1  0  0  0  0  0  0  0  0  0
   -1.5085   -0.4158   -1.7264 C   0  0  2  0  0  0  0  0  0  0  0  0
   -0.9859   -1.7080   -1.4639 O   0  0  0  0  0  0  0  0  0  0  0  0
    1.0409   -0.4486   -1.0676 H   0  0  0  0  0  0  0  0  0  0  0  0
   -0.0713   -0.3779    0.9115 H   0  0  0  0  0  0  0  0  0  0  0  0
    0.1369    1.3753    0.8652 H   0  0  0  0  0  0  0  0  0  0  0  0
   -1.8181    2.7387   -0.4200 H   0  0  0  0  0  0  0  0  0  0  0  0
   -1.4613    2.2571   -2.1062 H   0  0  0  0  0  0  0  0  0  0  0  0
   -4.2061    1.6606   -1.2017 H   0  0  0  0  0  0  0  0  0  0  0  0
   -3.8098   -0.8678   -1.8547 H   0  0  0  0  0  0  0  0  0  0  0  0
   -3.1897   -0.0466    0.8923 H   0  0  0  0  0  0  0  0  0  0  0  0
   -1.1025   -0.1321   -2.7026 H   0  0  0  0  0  0  0  0  0  0  0  0
   -1.4478   -2.0581   -0.6921 H   0  0  0  0  0  0  0  0  0  0  0  0
  1  2  1  0  0  0  0
  2 12  1  0  0  0  0
  2 11  1  0  0  0  0
  3  7  1  0  0  0  0
  3  2  1  1  0  0  0
  4  5  1  0  0  0  0
  4  3  1  0  0  0  0
  4 13  1  0  0  0  0
  5 15  1  6  0  0  0
  5  7  1  0  0  0  0
  6 16  1  6  0  0  0
  6  5  1  0  0  0  0
  6  7  1  0  0  0  0
  7 17  1  1  0  0  0
  8 18  1  6  0  0  0
  8  6  1  0  0  0  0
  8  9  1  0  0  0  0
  8  3  1  0  0  0  0
  9 19  1  0  0  0  0
 10  1  1  0  0  0  0
 14  4  1  0  0  0  0
M TOR 0 0 1 2 3
M TOR 1 0 1 2 6
M TOR 2 0 1 2 7
M TOR 3 1 2 3 4
M TOR 4 1 2 3 12
M TOR 5 1 2 3 13
M TOR 6 1 2 6 4
M TOR 7 1 2 6 5
M TOR 8 1 2 6 16
M TOR 9 1 2 7 5
M TOR 10 1 2 7 8
M TOR 11 1 2 7 17
M TOR 12 2 1 0 9
M TOR 13 2 3 4 5
M TOR 14 2 3 4 6
M TOR 15 2 3 4 14
M TOR 16 2 6 4 5
M TOR 17 2 6 4 14
M TOR 18 2 6 5 7
M TOR 19 2 6 5 15
M TOR 20 2 7 5 4
M TOR 21 2 7 5 15
M TOR 22 2 7 8 18
M TOR 23 3 2 1 10
M TOR 24 3 2 1 11
M TOR 25 3 2 6 5
M TOR 26 3 2 6 16
M TOR 27 3 2 7 5
M TOR 28 3 2 7 8
M TOR 29 3 2 7 17
M TOR 30 3 4 5 6
M TOR 31 3 4 5 7
M TOR 32 3 4 5 15
M TOR 33 3 4 6 16
M TOR 34 4 3 2 7
M TOR 35 4 5 6 16
M TOR 36 4 5 7 8
M TOR 37 4 5 7 17
M TOR 38 4 6 2 7
M TOR 39 4 6 5 7
M TOR 40 4 6 5 15
M TOR 41 5 4 3 12
M TOR 42 5 4 3 13
M TOR 43 5 6 4 14
M TOR 44 5 7 8 18
M TOR 45 6 2 1 10
M TOR 46 6 2 1 11
M TOR 47 6 2 3 12
M TOR 48 6 2 3 13
M TOR 49 6 2 7 8
M TOR 50 6 2 7 17
M TOR 51 6 4 3 12
M TOR 52 6 4 3 13
M TOR 53 6 5 7 8
M TOR 54 6 5 7 17
M TOR 55 7 2 1 10
M TOR 56 7 2 1 11
M TOR 57 7 2 3 12
M TOR 58 7 2 3 13
M TOR 59 7 2 6 16
M TOR 60 7 5 4 14
M TOR 61 7 5 6 16
M TOR 62 8 7 5 15
M  END
$$$$
