
     RDKit          3D

 19 21  0  0  0  0  0  0  0  0999 V2000
    1.4899    0.2918   -0.1963 C   0  0  0  0  0  0  0  0  0  0  0  0
    0.1442   -0.0895    0.0564 O   0  0  0  0  0  0  0  0  0  0  0  0
   -0.4268    0.5496    1.1281 C   0  0  0  0  0  0  0  0  0  0  0  0
   -0.7785    2.0275    1.1523 C   0  0  0  0  0  0  0  0  0  0  0  0
   -1.8484    0.9845    1.3514 C   0  0  0  0  0  0  0  0  0  0  0  0
   -1.8537    0.5151    2.7061 O   0  0  0  0  0  0  0  0  0  0  0  0
   -0.5237   -0.0098    2.5334 C   0  0  0  0  0  0  0  0  0  0  0  0
    0.4489   -0.1292    3.6558 C   0  0  0  0  0  0  0  0  0  0  0  0
   -0.1541   -1.3716    3.0048 C   0  0  0  0  0  0  0  0  0  0  0  0
    2.1567    0.0091    0.6295 H   0  0  0  0  0  0  0  0  0  0  0  0
    1.8021   -0.2361   -1.0998 H   0  0  0  0  0  0  0  0  0  0  0  0
    1.5744    1.3741   -0.3598 H   0  0  0  0  0  0  0  0  0  0  0  0
   -0.4859    2.6718    1.9765 H   0  0  0  0  0  0  0  0  0  0  0  0
   -0.7843    2.4881    0.1684 H   0  0  0  0  0  0  0  0  0  0  0  0
   -2.7554    0.8825    0.7694 H   0  0  0  0  0  0  0  0  0  0  0  0
    1.4927    0.1065    3.4749 H   0  0  0  0  0  0  0  0  0  0  0  0
    0.0907    0.1315    4.6459 H   0  0  0  0  0  0  0  0  0  0  0  0
    0.4701   -1.9786    2.3575 H   0  0  0  0  0  0  0  0  0  0  0  0
   -0.9002   -1.9197    3.5694 H   0  0  0  0  0  0  0  0  0  0  0  0
  1  2  1  0
  2  3  1  0
  3  4  1  0
  4  5  1  0
  5  6  1  0
  6  7  1  0
  7  8  1  0
  8  9  1  0
  5  3  1  0
  9  7  1  0
  7  3  1  0
  1 10  1  0
  1 11  1  0
  1 12  1  0
  4 13  1  0
  4 14  1  0
  5 15  1  0
  8 16  1  0
  8 17  1  0
  9 18  1  0
  9 19  1  0
M  END
$$$$
