gdb 1663	2.9428094	1.2468097	1.0521983	1.992	76.71	-0.23227	-0.0287	0.20357	1205.4998	0.153903	-422.534748	-422.525552	-422.524608	-422.569161	33.89
 OpenBabel02181911403D

 19 20  0  0  1  0  0  0  0  0999 V2000
   -0.1298   -0.0045    0.2727 C   0  0  0  0  0  0  0  0  0  0  0  0
    1.3820    0.1029    0.1684 C   0  0  1  0  0  0  0  0  0  0  0  0
    2.0303    0.0940   -1.2313 C   0  0  0  0  0  0  0  0  0  0  0  0
    2.5330    1.4776   -0.8417 C   0  0  0  0  0  0  0  0  0  0  0  0
    3.8828    2.0930   -0.9928 C   0  0  0  0  0  0  0  0  0  0  0  0
    2.6559    2.7303   -1.6381 C   0  0  0  0  0  0  0  0  0  0  0  0
    1.8536    1.4611    0.4241 O   0  0  0  0  0  0  0  0  0  0  0  0
    2.0624   -0.8022    1.1868 C   0  0  0  0  0  0  0  0  0  0  0  0
    2.6789   -1.8008    0.9226 O   0  0  0  0  0  0  0  0  0  0  0  0
   -0.4638    0.2013    1.2952 H   0  0  0  0  0  0  0  0  0  0  0  0
   -0.6005    0.7235   -0.3936 H   0  0  0  0  0  0  0  0  0  0  0  0
   -0.4633   -1.0096   -0.0062 H   0  0  0  0  0  0  0  0  0  0  0  0
    2.7861   -0.6803   -1.3681 H   0  0  0  0  0  0  0  0  0  0  0  0
    1.3186    0.0749   -2.0592 H   0  0  0  0  0  0  0  0  0  0  0  0
    4.2994    2.5891   -0.1228 H   0  0  0  0  0  0  0  0  0  0  0  0
    4.6106    1.5991   -1.6285 H   0  0  0  0  0  0  0  0  0  0  0  0
    2.2750    3.6407   -1.1876 H   0  0  0  0  0  0  0  0  0  0  0  0
    2.5432    2.6735   -2.7161 H   0  0  0  0  0  0  0  0  0  0  0  0
    1.9532   -0.4343    2.2321 H   0  0  0  0  0  0  0  0  0  0  0  0
  1 10  1  0  0  0  0
  2  1  1  0  0  0  0
  2  7  1  0  0  0  0
  2  8  1  1  0  0  0
  3  4  1  0  0  0  0
  3  2  1  0  0  0  0
  4  7  1  0  0  0  0
  5  4  1  0  0  0  0
  5 15  1  0  0  0  0
  6 17  1  0  0  0  0
  6  5  1  0  0  0  0
  6  4  1  0  0  0  0
  8 19  1  0  0  0  0
  9  8  2  0  0  0  0
 11  1  1  0  0  0  0
 12  1  1  0  0  0  0
 13  3  1  0  0  0  0
 14  3  1  0  0  0  0
 16  5  1  0  0  0  0
 18  6  1  0  0  0  0
M TOR 0 0 1 2 3
M TOR 1 0 1 2 12
M TOR 2 0 1 2 13
M TOR 3 0 1 6 3
M TOR 4 0 1 7 8
M TOR 5 0 1 7 18
M TOR 6 1 2 3 4
M TOR 7 1 2 3 5
M TOR 8 1 2 3 6
M TOR 9 1 6 3 4
M TOR 10 1 6 3 5
M TOR 11 2 1 0 9
M TOR 12 2 1 0 10
M TOR 13 2 1 0 11
M TOR 14 2 1 7 8
M TOR 15 2 1 7 18
M TOR 16 2 3 4 5
M TOR 17 2 3 4 14
M TOR 18 2 3 4 15
M TOR 19 2 3 5 16
M TOR 20 2 3 5 17
M TOR 21 3 2 1 7
M TOR 22 3 4 5 16
M TOR 23 3 4 5 17
M TOR 24 3 5 4 14
M TOR 25 3 5 4 15
M TOR 26 3 6 1 7
M TOR 27 4 3 2 12
M TOR 28 4 3 2 13
M TOR 29 4 5 3 6
M TOR 30 5 3 2 12
M TOR 31 5 3 2 13
M TOR 32 6 1 0 9
M TOR 33 6 1 0 10
M TOR 34 6 1 0 11
M TOR 35 6 1 2 12
M TOR 36 6 1 2 13
M TOR 37 6 1 7 8
M TOR 38 6 1 7 18
M TOR 39 6 3 2 12
M TOR 40 6 3 2 13
M TOR 41 6 3 4 14
M TOR 42 6 3 4 15
M TOR 43 6 3 5 16
M TOR 44 6 3 5 17
M TOR 45 7 1 0 9
M TOR 46 7 1 0 10
M TOR 47 7 1 0 11
M TOR 48 7 1 2 12
M TOR 49 7 1 2 13
M  END
$$$$
