gdb 2762	2.6318086	1.3808888	1.0443061	3.1453	77.04	-0.24229	-0.01087	0.23142000000000001	1193.4459	0.154693	-422.552835	-422.543186	-422.542242	-422.587221	34.952
 OpenBabel02181911413D

 19 20  0  0  1  0  0  0  0  0999 V2000
   -3.2558   -1.9381   -1.2297 C   0  0  0  0  0  0  0  0  0  0  0  0
   -2.1733   -0.8961   -1.0286 C   0  0  1  0  0  0  0  0  0  0  0  0
   -2.2804    0.0696    0.0952 C   0  0  2  0  0  0  0  0  0  0  0  0
   -1.2117    1.1589   -0.0953 C   0  0  1  0  0  0  0  0  0  0  0  0
   -1.1148    2.1293    0.9127 O   0  0  0  0  0  0  0  0  0  0  0  0
   -0.1941    0.0109    0.1476 C   0  0  0  0  0  0  0  0  0  0  0  0
    0.9033    0.0910    0.6434 O   0  0  0  0  0  0  0  0  0  0  0  0
   -1.1938   -1.0866    0.1280 C   0  0  2  0  0  0  0  0  0  0  0  0
   -1.0407   -2.3426    0.9388 C   0  0  0  0  0  0  0  0  0  0  0  0
   -3.7215   -2.2328   -0.2857 H   0  0  0  0  0  0  0  0  0  0  0  0
   -4.0433   -1.5376   -1.8758 H   0  0  0  0  0  0  0  0  0  0  0  0
   -2.8569   -2.8391   -1.7066 H   0  0  0  0  0  0  0  0  0  0  0  0
   -1.7653   -0.5165   -1.9657 H   0  0  0  0  0  0  0  0  0  0  0  0
   -3.1367    0.1549    0.7516 H   0  0  0  0  0  0  0  0  0  0  0  0
   -1.2363    1.6275   -1.0885 H   0  0  0  0  0  0  0  0  0  0  0  0
   -0.2256    2.0513    1.2841 H   0  0  0  0  0  0  0  0  0  0  0  0
   -0.4224   -3.0752    0.4083 H   0  0  0  0  0  0  0  0  0  0  0  0
   -0.5463   -2.1212    1.8891 H   0  0  0  0  0  0  0  0  0  0  0  0
   -2.0028   -2.8136    1.1527 H   0  0  0  0  0  0  0  0  0  0  0  0
  1  2  1  0  0  0  0
  1 10  1  0  0  0  0
  2 13  1  6  0  0  0
  2  3  1  0  0  0  0
  2  8  1  0  0  0  0
  3  8  1  0  0  0  0
  3 14  1  1  0  0  0
  4 15  1  6  0  0  0
  4  3  1  0  0  0  0
  4  6  1  0  0  0  0
  4  5  1  0  0  0  0
  5 16  1  0  0  0  0
  6  7  2  0  0  0  0
  8  6  1  0  0  0  0
  8  9  1  1  0  0  0
  9 19  1  0  0  0  0
  9 18  1  0  0  0  0
 11  1  1  0  0  0  0
 12  1  1  0  0  0  0
 17  9  1  0  0  0  0
M TOR 0 0 1 2 3
M TOR 1 0 1 2 7
M TOR 2 0 1 2 13
M TOR 3 0 1 7 5
M TOR 4 0 1 7 8
M TOR 5 1 2 3 4
M TOR 6 1 2 3 5
M TOR 7 1 2 3 14
M TOR 8 1 2 7 5
M TOR 9 1 2 7 8
M TOR 10 1 7 2 3
M TOR 11 1 7 2 13
M TOR 12 1 7 5 3
M TOR 13 1 7 5 6
M TOR 14 1 7 8 16
M TOR 15 1 7 8 17
M TOR 16 1 7 8 18
M TOR 17 2 1 0 9
M TOR 18 2 1 0 10
M TOR 19 2 1 0 11
M TOR 20 2 3 4 15
M TOR 21 2 3 5 6
M TOR 22 2 3 5 7
M TOR 23 2 7 1 12
M TOR 24 2 7 5 6
M TOR 25 2 7 8 16
M TOR 26 2 7 8 17
M TOR 27 2 7 8 18
M TOR 28 3 2 1 12
M TOR 29 3 2 7 8
M TOR 30 3 5 7 8
M TOR 31 4 3 2 7
M TOR 32 4 3 2 13
M TOR 33 4 3 5 6
M TOR 34 4 3 5 7
M TOR 35 5 3 2 13
M TOR 36 5 3 4 15
M TOR 37 5 7 1 12
M TOR 38 5 7 2 13
M TOR 39 5 7 8 16
M TOR 40 5 7 8 17
M TOR 41 5 7 8 18
M TOR 42 6 5 3 14
M TOR 43 6 5 7 8
M TOR 44 7 1 0 9
M TOR 45 7 1 0 10
M TOR 46 7 1 0 11
M TOR 47 7 2 3 14
M TOR 48 7 5 3 14
M TOR 49 8 7 1 12
M TOR 50 8 7 2 13
M  END
$$$$
