gdb 4387	2.251868	1.4122083	1.2673126	2.9631	76.07	-0.24534	0.04777	0.29311	1110.8468	0.156734	-422.545753	-422.536736	-422.535792	-422.579306	34.499
 OpenBabel02181911413D

 19 19  0  0  1  0  0  0  0  0999 V2000
   -2.5562   -0.4174    3.0006 O   0  0  0  0  0  0  0  0  0  0  0  0
   -1.3133   -0.7192    2.3497 C   0  0  2  0  0  0  0  0  0  0  0  0
   -0.1411    0.0732    2.9516 C   0  0  0  0  0  0  0  0  0  0  0  0
   -0.1958    1.4736    2.2812 C   0  0  0  0  0  0  0  0  0  0  0  0
   -1.2707    1.3882    1.1617 C   0  0  2  0  0  0  0  0  0  0  0  0
   -2.4987    1.9839    1.5279 O   0  0  0  0  0  0  0  0  0  0  0  0
   -1.4411   -0.1475    0.9193 C   0  0  1  0  0  0  0  0  0  0  0  0
   -0.4179   -0.6890    0.0370 C   0  0  0  0  0  0  0  0  0  0  0  0
    0.4447   -1.1157   -0.6842 C   0  0  0  0  0  0  0  0  0  0  0  0
   -2.4532   -0.5993    3.9402 H   0  0  0  0  0  0  0  0  0  0  0  0
   -1.1437   -1.8022    2.3531 H   0  0  0  0  0  0  0  0  0  0  0  0
   -0.2069    0.1117    4.0441 H   0  0  0  0  0  0  0  0  0  0  0  0
    0.7943   -0.4377    2.7066 H   0  0  0  0  0  0  0  0  0  0  0  0
   -0.4805    2.2670    2.9757 H   0  0  0  0  0  0  0  0  0  0  0  0
    0.7791    1.7394    1.8652 H   0  0  0  0  0  0  0  0  0  0  0  0
   -0.9508    1.8967    0.2501 H   0  0  0  0  0  0  0  0  0  0  0  0
   -2.8579    1.4441    2.2461 H   0  0  0  0  0  0  0  0  0  0  0  0
   -2.4368   -0.3479    0.5117 H   0  0  0  0  0  0  0  0  0  0  0  0
    1.1946   -1.4972   -1.3321 H   0  0  0  0  0  0  0  0  0  0  0  0
  1 10  1  0  0  0  0
  2 11  1  6  0  0  0
  2  3  1  0  0  0  0
  2  1  1  0  0  0  0
  3 12  1  0  0  0  0
  4  3  1  0  0  0  0
  4 14  1  0  0  0  0
  5 16  1  6  0  0  0
  5  6  1  0  0  0  0
  5  4  1  0  0  0  0
  6 17  1  0  0  0  0
  7 18  1  6  0  0  0
  7  5  1  0  0  0  0
  7  2  1  0  0  0  0
  8  7  1  0  0  0  0
  9  8  3  0  0  0  0
 13  3  1  0  0  0  0
 15  4  1  0  0  0  0
 19  9  1  0  0  0  0
M TOR 0 0 1 2 3
M TOR 1 0 1 2 11
M TOR 2 0 1 2 12
M TOR 3 0 1 6 4
M TOR 4 0 1 6 7
M TOR 5 0 1 6 17
M TOR 6 1 2 3 4
M TOR 7 1 2 3 13
M TOR 8 1 2 3 14
M TOR 9 1 6 4 3
M TOR 10 1 6 4 5
M TOR 11 1 6 4 15
M TOR 12 1 6 7 8
M TOR 13 2 1 0 9
M TOR 14 2 1 6 4
M TOR 15 2 1 6 7
M TOR 16 2 1 6 17
M TOR 17 2 3 4 5
M TOR 18 2 3 4 6
M TOR 19 2 3 4 15
M TOR 20 3 2 1 6
M TOR 21 3 2 1 10
M TOR 22 3 4 5 16
M TOR 23 3 4 6 7
M TOR 24 3 4 6 17
M TOR 25 4 3 2 11
M TOR 26 4 3 2 12
M TOR 27 4 6 1 10
M TOR 28 4 6 7 8
M TOR 29 5 4 3 13
M TOR 30 5 4 3 14
M TOR 31 5 4 6 7
M TOR 32 5 4 6 17
M TOR 33 6 1 0 9
M TOR 34 6 1 2 11
M TOR 35 6 1 2 12
M TOR 36 6 4 3 13
M TOR 37 6 4 3 14
M TOR 38 6 4 5 16
M TOR 39 6 7 8 18
M TOR 40 7 6 1 10
M TOR 41 7 6 4 15
M TOR 42 8 7 6 17
M  END
$$$$
