
     RDKit          3D

 19 19  0  0  0  0  0  0  0  0999 V2000
    1.4925    0.8146    0.0134 C   0  0  0  0  0  0  0  0  0  0  0  0
    0.0906    0.8984    0.1201 O   0  0  0  0  0  0  0  0  0  0  0  0
   -0.4624   -0.1437    0.8937 C   0  0  0  0  0  0  0  0  0  0  0  0
   -1.9759    0.0655    0.9561 C   0  0  0  0  0  0  0  0  0  0  0  0
   -2.4367    1.2793    1.7200 C   0  0  0  0  0  0  0  0  0  0  0  0
   -3.3178    0.9833    2.6773 C   0  0  0  0  0  0  0  0  0  0  0  0
   -3.6221   -0.4892    2.7498 C   0  0  0  0  0  0  0  0  0  0  0  0
   -2.6847   -1.0896    1.6910 C   0  0  0  0  0  0  0  0  0  0  0  0
   -2.5066   -2.2614    1.4822 O   0  0  0  0  0  0  0  0  0  0  0  0
    1.8097   -0.1253   -0.4648 H   0  0  0  0  0  0  0  0  0  0  0  0
    1.8243    1.6542   -0.6021 H   0  0  0  0  0  0  0  0  0  0  0  0
    1.9817    0.8797    0.9982 H   0  0  0  0  0  0  0  0  0  0  0  0
   -0.2503   -1.1278    0.4478 H   0  0  0  0  0  0  0  0  0  0  0  0
   -0.0340   -0.1396    1.9106 H   0  0  0  0  0  0  0  0  0  0  0  0
   -2.3337    0.0862   -0.0841 H   0  0  0  0  0  0  0  0  0  0  0  0
   -2.0699    2.2711    1.4862 H   0  0  0  0  0  0  0  0  0  0  0  0
   -3.7807    1.7054    3.3400 H   0  0  0  0  0  0  0  0  0  0  0  0
   -3.4273   -0.9439    3.7290 H   0  0  0  0  0  0  0  0  0  0  0  0
   -4.6647   -0.7340    2.5047 H   0  0  0  0  0  0  0  0  0  0  0  0
  1  2  1  0
  2  3  1  0
  3  4  1  0
  4  5  1  0
  5  6  2  0
  6  7  1  0
  7  8  1  0
  8  9  2  0
  8  4  1  0
  1 10  1  0
  1 11  1  0
  1 12  1  0
  3 13  1  0
  3 14  1  0
  4 15  1  0
  5 16  1  0
  6 17  1  0
  7 18  1  0
  7 19  1  0
M  END
$$$$
