
     RDKit          3D

 19 19  0  0  0  0  0  0  0  0999 V2000
   -0.2404    2.7255    0.1887 O   0  0  0  0  0  0  0  0  0  0  0  0
   -1.1125    1.9337   -0.6376 C   0  0  0  0  0  0  0  0  0  0  0  0
   -0.2117    0.8161   -1.1923 C   0  0  0  0  0  0  0  0  0  0  0  0
    0.4210   -0.0318   -0.1085 C   0  0  0  0  0  0  0  0  0  0  0  0
    0.3500   -1.2349   -0.0635 O   0  0  0  0  0  0  0  0  0  0  0  0
   -1.7831    2.7780   -1.7616 C   0  0  0  0  0  0  0  0  0  0  0  0
   -3.2359    3.0513   -1.2986 C   0  0  0  0  0  0  0  0  0  0  0  0
   -3.4276    2.0715   -0.1665 C   0  0  0  0  0  0  0  0  0  0  0  0
   -2.3004    1.4448    0.1666 C   0  0  0  0  0  0  0  0  0  0  0  0
   -0.7962    3.2890    0.7375 H   0  0  0  0  0  0  0  0  0  0  0  0
   -0.7704    0.1633   -1.8669 H   0  0  0  0  0  0  0  0  0  0  0  0
    0.6010    1.2958   -1.7558 H   0  0  0  0  0  0  0  0  0  0  0  0
    0.9718    0.5440    0.6637 H   0  0  0  0  0  0  0  0  0  0  0  0
   -1.2016    3.6858   -1.9374 H   0  0  0  0  0  0  0  0  0  0  0  0
   -1.7934    2.2082   -2.6952 H   0  0  0  0  0  0  0  0  0  0  0  0
   -3.3855    4.0832   -0.9539 H   0  0  0  0  0  0  0  0  0  0  0  0
   -3.9624    2.8971   -2.1042 H   0  0  0  0  0  0  0  0  0  0  0  0
   -4.3883    1.9219    0.3153 H   0  0  0  0  0  0  0  0  0  0  0  0
   -2.1914    0.7100    0.9569 H   0  0  0  0  0  0  0  0  0  0  0  0
  1  2  1  0
  2  3  1  0
  3  4  1  0
  4  5  2  0
  2  6  1  0
  6  7  1  0
  7  8  1  0
  8  9  2  0
  9  2  1  0
  1 10  1  0
  3 11  1  0
  3 12  1  0
  4 13  1  0
  6 14  1  0
  6 15  1  0
  7 16  1  0
  7 17  1  0
  8 18  1  0
  9 19  1  0
M  END
$$$$
