gdb 3503	2.2254954	1.8920798	1.217945	2.3809	76.18	-0.24614	0.00823	0.25437	1061.7705	0.15684	-422.561397	-422.552868	-422.551924	-422.594174	32.822
 OpenBabel02181911413D

 19 20  0  0  1  0  0  0  0  0999 V2000
    1.7983   -1.2294   -2.1947 C   0  0  0  0  0  0  0  0  0  0  0  0
    0.7942   -1.5060   -1.1009 C   0  0  1  0  0  0  0  0  0  0  0  0
   -0.2202   -2.4660   -1.4379 O   0  0  0  0  0  0  0  0  0  0  0  0
    0.7415   -2.8225   -0.4379 C   0  0  2  0  0  0  0  0  0  0  0  0
    0.2049   -3.0021    0.9630 C   0  0  0  0  0  0  0  0  0  0  0  0
   -0.4909   -1.7821    1.4967 C   0  0  0  0  0  0  0  0  0  0  0  0
   -0.4999   -0.5974    0.8897 C   0  0  0  0  0  0  0  0  0  0  0  0
    0.2486   -0.2771   -0.3752 C   0  0  1  0  0  0  0  0  0  0  0  0
    1.2925    0.6675   -0.1006 O   0  0  0  0  0  0  0  0  0  0  0  0
    2.0905   -2.1620   -2.6838 H   0  0  0  0  0  0  0  0  0  0  0  0
    1.3622   -0.5670   -2.9507 H   0  0  0  0  0  0  0  0  0  0  0  0
    2.6857   -0.7335   -1.7956 H   0  0  0  0  0  0  0  0  0  0  0  0
    1.4526   -3.5835   -0.7640 H   0  0  0  0  0  0  0  0  0  0  0  0
   -0.4834   -3.8591    0.9750 H   0  0  0  0  0  0  0  0  0  0  0  0
    1.0316   -3.2851    1.6312 H   0  0  0  0  0  0  0  0  0  0  0  0
   -1.0242   -1.9054    2.4364 H   0  0  0  0  0  0  0  0  0  0  0  0
   -1.0231    0.2426    1.3389 H   0  0  0  0  0  0  0  0  0  0  0  0
   -0.4124    0.2494   -1.0765 H   0  0  0  0  0  0  0  0  0  0  0  0
    1.7640    0.3456    0.6761 H   0  0  0  0  0  0  0  0  0  0  0  0
  1 12  1  0  0  0  0
  2  1  1  6  0  0  0
  2  4  1  0  0  0  0
  2  8  1  0  0  0  0
  3  2  1  0  0  0  0
  3  4  1  0  0  0  0
  4 13  1  6  0  0  0
  4  5  1  0  0  0  0
  5 14  1  0  0  0  0
  5  6  1  0  0  0  0
  5 15  1  0  0  0  0
  6 16  1  0  0  0  0
  7 17  1  0  0  0  0
  7  6  2  0  0  0  0
  8 18  1  6  0  0  0
  8  9  1  0  0  0  0
  8  7  1  0  0  0  0
  9 19  1  0  0  0  0
 10  1  1  0  0  0  0
 11  1  1  0  0  0  0
M TOR 0 0 1 2 3
M TOR 1 0 1 3 4
M TOR 2 0 1 3 12
M TOR 3 0 1 7 6
M TOR 4 0 1 7 8
M TOR 5 0 1 7 17
M TOR 6 1 2 3 4
M TOR 7 1 2 3 12
M TOR 8 1 3 4 5
M TOR 9 1 3 4 13
M TOR 10 1 3 4 14
M TOR 11 1 7 6 5
M TOR 12 1 7 6 16
M TOR 13 1 7 8 18
M TOR 14 2 1 0 9
M TOR 15 2 1 0 10
M TOR 16 2 1 0 11
M TOR 17 2 1 7 6
M TOR 18 2 1 7 8
M TOR 19 2 1 7 17
M TOR 20 2 3 1 7
M TOR 21 2 3 4 5
M TOR 22 2 3 4 13
M TOR 23 2 3 4 14
M TOR 24 3 1 0 9
M TOR 25 3 1 0 10
M TOR 26 3 1 0 11
M TOR 27 3 1 7 6
M TOR 28 3 1 7 8
M TOR 29 3 1 7 17
M TOR 30 3 4 5 6
M TOR 31 3 4 5 15
M TOR 32 4 3 1 7
M TOR 33 4 5 6 7
M TOR 34 4 5 6 16
M TOR 35 5 4 3 12
M TOR 36 5 6 7 8
M TOR 37 5 6 7 17
M TOR 38 6 5 4 13
M TOR 39 6 5 4 14
M TOR 40 6 7 8 18
M TOR 41 7 1 0 9
M TOR 42 7 1 0 10
M TOR 43 7 1 0 11
M TOR 44 7 1 3 12
M TOR 45 7 6 5 15
M TOR 46 8 7 6 16
M  END
$$$$
