gdb 1016	2.9427668	0.9135969	0.8813909	3.1674	81.38	-0.2447	0.03081	0.27551	1463.7895	0.153349	-422.513654	-422.502963	-422.502019	-422.550977	36.562
 OpenBabel02181911403D

 19 19  0  0  1  0  0  0  0  0999 V2000
    1.5218   -0.0142   -0.0858 C   0  0  0  0  0  0  0  0  0  0  0  0
    0.0665   -0.0244   -0.0670 C   0  0  0  0  0  0  0  0  0  0  0  0
   -1.1385   -0.0240   -0.0432 C   0  0  0  0  0  0  0  0  0  0  0  0
   -2.5922   -0.0473   -0.0439 C   0  0  1  0  0  0  0  0  0  0  0  0
   -3.1152   -0.1081   -1.3607 O   0  0  0  0  0  0  0  0  0  0  0  0
   -3.2760   -1.0264    0.9559 C   0  0  0  0  0  0  0  0  0  0  0  0
   -3.9718    0.0461    1.6101 O   0  0  0  0  0  0  0  0  0  0  0  0
   -3.3179    1.0522    0.8025 C   0  0  2  0  0  0  0  0  0  0  0  0
   -4.2902    1.9704    0.0956 C   0  0  0  0  0  0  0  0  0  0  0  0
    1.9229    0.4133    0.8396 H   0  0  0  0  0  0  0  0  0  0  0  0
    1.9272   -1.0268   -0.1867 H   0  0  0  0  0  0  0  0  0  0  0  0
    1.9038    0.5837   -0.9204 H   0  0  0  0  0  0  0  0  0  0  0  0
   -2.4986   -0.6177   -1.8959 H   0  0  0  0  0  0  0  0  0  0  0  0
   -3.9576   -1.7337    0.4694 H   0  0  0  0  0  0  0  0  0  0  0  0
   -2.5951   -1.5584    1.6306 H   0  0  0  0  0  0  0  0  0  0  0  0
   -2.6089    1.6288    1.4104 H   0  0  0  0  0  0  0  0  0  0  0  0
   -4.8853    2.5081    0.8405 H   0  0  0  0  0  0  0  0  0  0  0  0
   -3.7498    2.7043   -0.5105 H   0  0  0  0  0  0  0  0  0  0  0  0
   -4.9599    1.4060   -0.5551 H   0  0  0  0  0  0  0  0  0  0  0  0
  1  2  1  0  0  0  0
  1 10  1  0  0  0  0
  2  3  3  0  0  0  0
  4  3  1  1  0  0  0
  4  8  1  0  0  0  0
  4  6  1  0  0  0  0
  5  4  1  0  0  0  0
  6  7  1  0  0  0  0
  6 15  1  0  0  0  0
  8 16  1  1  0  0  0
  8  7  1  0  0  0  0
  9  8  1  0  0  0  0
  9 17  1  0  0  0  0
 11  1  1  0  0  0  0
 12  1  1  0  0  0  0
 13  5  1  0  0  0  0
 14  6  1  0  0  0  0
 18  9  1  0  0  0  0
 19  9  1  0  0  0  0
M TOR 0 0 1 2 3
M TOR 1 1 2 3 4
M TOR 2 1 2 3 5
M TOR 3 1 2 3 7
M TOR 4 2 1 0 9
M TOR 5 2 1 0 10
M TOR 6 2 1 0 11
M TOR 7 2 3 4 12
M TOR 8 2 3 5 6
M TOR 9 2 3 5 13
M TOR 10 2 3 5 14
M TOR 11 2 3 7 6
M TOR 12 2 3 7 8
M TOR 13 2 3 7 15
M TOR 14 3 5 6 7
M TOR 15 3 7 8 16
M TOR 16 3 7 8 17
M TOR 17 3 7 8 18
M TOR 18 4 3 5 6
M TOR 19 4 3 5 13
M TOR 20 4 3 5 14
M TOR 21 4 3 7 6
M TOR 22 4 3 7 8
M TOR 23 4 3 7 15
M TOR 24 5 3 4 12
M TOR 25 5 3 7 8
M TOR 26 5 3 7 15
M TOR 27 5 6 7 8
M TOR 28 5 6 7 15
M TOR 29 6 7 8 16
M TOR 30 6 7 8 17
M TOR 31 6 7 8 18
M TOR 32 7 3 4 12
M TOR 33 7 3 5 13
M TOR 34 7 3 5 14
M TOR 35 7 6 5 13
M TOR 36 7 6 5 14
M  END
$$$$
