gdb 2702	2.5561702	1.2139931	1.0362906	2.3385	78.12	-0.24597	-0.02198	0.22399	1236.8736	0.155668	-422.586278	-422.576942	-422.575998	-422.621206	33.689
 OpenBabel02181911413D

 19 19  0  0  1  0  0  0  0  0999 V2000
    1.2436    0.8797   -0.0772 C   0  0  0  0  0  0  0  0  0  0  0  0
   -0.0931    0.2119    0.0042 C   0  0  0  0  0  0  0  0  0  0  0  0
   -0.3744   -1.0378    0.3789 C   0  0  0  0  0  0  0  0  0  0  0  0
   -1.8436   -1.3674    0.3445 C   0  0  0  0  0  0  0  0  0  0  0  0
   -2.5056   -0.0292   -0.0489 C   0  0  1  0  0  0  0  0  0  0  0  0
   -3.3593    0.5714    1.0512 C   0  0  0  0  0  0  0  0  0  0  0  0
   -3.5623    0.0811    2.1319 O   0  0  0  0  0  0  0  0  0  0  0  0
   -1.3428    0.9539   -0.4258 C   0  0  2  0  0  0  0  0  0  0  0  0
   -1.3134    1.3174   -1.8039 O   0  0  0  0  0  0  0  0  0  0  0  0
    1.3074    1.7199    0.6261 H   0  0  0  0  0  0  0  0  0  0  0  0
    2.0581    0.1865    0.1485 H   0  0  0  0  0  0  0  0  0  0  0  0
    1.4062    1.2981   -1.0767 H   0  0  0  0  0  0  0  0  0  0  0  0
    0.3693   -1.7641    0.6925 H   0  0  0  0  0  0  0  0  0  0  0  0
   -2.0668   -2.1724   -0.3665 H   0  0  0  0  0  0  0  0  0  0  0  0
   -2.2154   -1.6965    1.3207 H   0  0  0  0  0  0  0  0  0  0  0  0
   -3.1587   -0.1074   -0.9264 H   0  0  0  0  0  0  0  0  0  0  0  0
   -3.8012    1.5586    0.7828 H   0  0  0  0  0  0  0  0  0  0  0  0
   -1.4491    1.9168    0.0903 H   0  0  0  0  0  0  0  0  0  0  0  0
   -1.0914    0.5231   -2.3039 H   0  0  0  0  0  0  0  0  0  0  0  0
  1  2  1  0  0  0  0
  1 11  1  0  0  0  0
  1 10  1  0  0  0  0
  2  3  2  0  0  0  0
  3 13  1  0  0  0  0
  4  3  1  0  0  0  0
  4 15  1  0  0  0  0
  5 16  1  6  0  0  0
  5  4  1  0  0  0  0
  5  6  1  0  0  0  0
  6  7  2  0  0  0  0
  8  5  1  0  0  0  0
  8  2  1  0  0  0  0
  8 18  1  1  0  0  0
  9  8  1  0  0  0  0
 12  1  1  0  0  0  0
 14  4  1  0  0  0  0
 17  6  1  0  0  0  0
 19  9  1  0  0  0  0
M TOR 0 0 1 2 3
M TOR 1 0 1 2 12
M TOR 2 0 1 7 4
M TOR 3 0 1 7 8
M TOR 4 0 1 7 17
M TOR 5 1 2 3 4
M TOR 6 1 2 3 13
M TOR 7 1 2 3 14
M TOR 8 1 7 4 3
M TOR 9 1 7 4 5
M TOR 10 1 7 4 15
M TOR 11 1 7 8 18
M TOR 12 2 1 0 9
M TOR 13 2 1 0 10
M TOR 14 2 1 0 11
M TOR 15 2 1 7 4
M TOR 16 2 1 7 8
M TOR 17 2 1 7 17
M TOR 18 2 3 4 5
M TOR 19 2 3 4 7
M TOR 20 2 3 4 15
M TOR 21 3 2 1 7
M TOR 22 3 4 5 6
M TOR 23 3 4 5 16
M TOR 24 3 4 7 8
M TOR 25 3 4 7 17
M TOR 26 4 3 2 12
M TOR 27 4 7 8 18
M TOR 28 5 4 3 13
M TOR 29 5 4 3 14
M TOR 30 5 4 7 8
M TOR 31 5 4 7 17
M TOR 32 6 5 4 7
M TOR 33 6 5 4 15
M TOR 34 7 1 0 9
M TOR 35 7 1 0 10
M TOR 36 7 1 0 11
M TOR 37 7 1 2 12
M TOR 38 7 4 3 13
M TOR 39 7 4 3 14
M TOR 40 7 4 5 16
M TOR 41 8 7 4 15
M  END
$$$$
