gdb 2413	2.533024	1.6906293	1.4252797	1.145	76.27	-0.24136	0.00793	0.24928999999999998	1010.0461	0.157532	-422.544523	-422.53652	-422.535576	-422.576699	30.993
 OpenBabel02181911413D

 19 20  0  0  1  0  0  0  0  0999 V2000
   -0.0354   -0.0636    0.1491 C   0  0  0  0  0  0  0  0  0  0  0  0
    1.4761   -0.1303    0.0604 C   0  0  2  0  0  0  0  0  0  0  0  0
    1.9505    0.2963   -1.2643 O   0  0  0  0  0  0  0  0  0  0  0  0
    2.8564   -0.8223   -1.3524 C   0  0  0  0  0  0  0  0  0  0  0  0
    2.1524   -1.5080   -0.1581 C   0  0  1  0  0  0  0  0  0  0  0  0
    2.8650   -2.0913    0.8956 O   0  0  0  0  0  0  0  0  0  0  0  0
    3.7351   -1.2310    1.6125 C   0  0  0  0  0  0  0  0  0  0  0  0
    3.2041    0.1580    1.8154 C   0  0  0  0  0  0  0  0  0  0  0  0
    2.1746    0.6536    1.1337 C   0  0  0  0  0  0  0  0  0  0  0  0
   -0.3814   -0.5010    1.0915 H   0  0  0  0  0  0  0  0  0  0  0  0
   -0.3773    0.9763    0.1099 H   0  0  0  0  0  0  0  0  0  0  0  0
   -0.4924   -0.6054   -0.6837 H   0  0  0  0  0  0  0  0  0  0  0  0
    2.7987   -1.3235   -2.3239 H   0  0  0  0  0  0  0  0  0  0  0  0
    3.8971   -0.5311   -1.1571 H   0  0  0  0  0  0  0  0  0  0  0  0
    1.4405   -2.2687   -0.4862 H   0  0  0  0  0  0  0  0  0  0  0  0
    3.9043   -1.7198    2.5793 H   0  0  0  0  0  0  0  0  0  0  0  0
    4.7206   -1.1772    1.1170 H   0  0  0  0  0  0  0  0  0  0  0  0
    3.7305    0.7626    2.5502 H   0  0  0  0  0  0  0  0  0  0  0  0
    1.8310    1.6716    1.3015 H   0  0  0  0  0  0  0  0  0  0  0  0
  1 10  1  0  0  0  0
  2  1  1  1  0  0  0
  2  9  1  0  0  0  0
  3  2  1  0  0  0  0
  4  3  1  0  0  0  0
  4 14  1  0  0  0  0
  4  5  1  0  0  0  0
  5 15  1  6  0  0  0
  5  2  1  0  0  0  0
  5  6  1  0  0  0  0
  6  7  1  0  0  0  0
  7  8  1  0  0  0  0
  7 16  1  0  0  0  0
  8 18  1  0  0  0  0
  9 19  1  0  0  0  0
  9  8  2  0  0  0  0
 11  1  1  0  0  0  0
 12  1  1  0  0  0  0
 13  4  1  0  0  0  0
 17  7  1  0  0  0  0
M TOR 0 0 1 2 3
M TOR 1 0 1 4 3
M TOR 2 0 1 4 5
M TOR 3 0 1 4 14
M TOR 4 0 1 8 7
M TOR 5 0 1 8 18
M TOR 6 1 2 3 4
M TOR 7 1 2 3 12
M TOR 8 1 2 3 13
M TOR 9 1 4 3 12
M TOR 10 1 4 3 13
M TOR 11 1 4 5 6
M TOR 12 1 8 7 6
M TOR 13 1 8 7 17
M TOR 14 2 1 0 9
M TOR 15 2 1 0 10
M TOR 16 2 1 0 11
M TOR 17 2 1 4 5
M TOR 18 2 1 4 14
M TOR 19 2 1 8 7
M TOR 20 2 1 8 18
M TOR 21 2 3 4 5
M TOR 22 2 3 4 14
M TOR 23 3 2 1 8
M TOR 24 3 4 1 8
M TOR 25 3 4 5 6
M TOR 26 4 1 0 9
M TOR 27 4 1 0 10
M TOR 28 4 1 0 11
M TOR 29 4 1 8 7
M TOR 30 4 1 8 18
M TOR 31 4 5 6 7
M TOR 32 4 5 6 15
M TOR 33 4 5 6 16
M TOR 34 5 4 1 8
M TOR 35 5 4 3 12
M TOR 36 5 4 3 13
M TOR 37 5 6 7 8
M TOR 38 5 6 7 17
M TOR 39 6 5 4 14
M TOR 40 6 7 8 18
M TOR 41 8 1 0 9
M TOR 42 8 1 0 10
M TOR 43 8 1 0 11
M TOR 44 8 1 4 14
M TOR 45 8 7 6 15
M TOR 46 8 7 6 16
M  END
$$$$
