
     RDKit          3D

 19 20  0  0  0  0  0  0  0  0999 V2000
   -0.6676   -0.2859   -1.1608 C   0  0  0  0  0  0  0  0  0  0  0  0
   -1.8158    0.2637   -0.5084 O   0  0  0  0  0  0  0  0  0  0  0  0
   -1.4958    1.2660    0.4295 C   0  0  0  0  0  0  0  0  0  0  0  0
   -0.7989    0.7238    1.5389 O   0  0  0  0  0  0  0  0  0  0  0  0
    0.1496   -0.2767    1.1781 C   0  0  0  0  0  0  0  0  0  0  0  0
    0.5946   -0.1586   -0.2827 C   0  0  0  0  0  0  0  0  0  0  0  0
    1.3724    1.1414   -0.5746 C   0  0  0  0  0  0  0  0  0  0  0  0
    0.5150    2.3784   -0.6084 C   0  0  0  0  0  0  0  0  0  0  0  0
   -0.7457    2.4390   -0.1867 C   0  0  0  0  0  0  0  0  0  0  0  0
   -0.9090   -1.3387   -1.3393 H   0  0  0  0  0  0  0  0  0  0  0  0
   -0.5177    0.1996   -2.1353 H   0  0  0  0  0  0  0  0  0  0  0  0
   -2.4556    1.6079    0.8249 H   0  0  0  0  0  0  0  0  0  0  0  0
    1.0013   -0.1740    1.8601 H   0  0  0  0  0  0  0  0  0  0  0  0
   -0.2914   -1.2721    1.3384 H   0  0  0  0  0  0  0  0  0  0  0  0
    1.2581   -1.0044   -0.4959 H   0  0  0  0  0  0  0  0  0  0  0  0
    2.1826    1.2643    0.1596 H   0  0  0  0  0  0  0  0  0  0  0  0
    1.8764    1.0432   -1.5461 H   0  0  0  0  0  0  0  0  0  0  0  0
    0.9786    3.2699   -1.0257 H   0  0  0  0  0  0  0  0  0  0  0  0
   -1.3038    3.3671   -0.2701 H   0  0  0  0  0  0  0  0  0  0  0  0
  1  2  1  0
  2  3  1  0
  3  4  1  0
  4  5  1  0
  5  6  1  0
  6  7  1  0
  7  8  1  0
  8  9  2  0
  6  1  1  0
  9  3  1  0
  1 10  1  0
  1 11  1  0
  3 12  1  0
  5 13  1  0
  5 14  1  0
  6 15  1  0
  7 16  1  0
  7 17  1  0
  8 18  1  0
  9 19  1  0
M  END
$$$$
