
     RDKit          3D

 19 21  0  0  0  0  0  0  0  0999 V2000
    0.2945    0.3128    0.1047 C   0  0  0  0  0  0  0  0  0  0  0  0
    1.1509   -0.8227   -0.4194 C   0  0  0  0  0  0  0  0  0  0  0  0
    2.5349   -0.4096   -0.5944 O   0  0  0  0  0  0  0  0  0  0  0  0
    3.0042   -1.3868    0.3464 C   0  0  0  0  0  0  0  0  0  0  0  0
    3.3748   -2.7104   -0.3042 C   0  0  0  0  0  0  0  0  0  0  0  0
    3.1284   -3.8338    0.6814 C   0  0  0  0  0  0  0  0  0  0  0  0
    1.9608   -3.2320   -0.0495 C   0  0  0  0  0  0  0  0  0  0  0  0
    1.1703   -3.9534   -0.9267 O   0  0  0  0  0  0  0  0  0  0  0  0
    1.5494   -1.9148    0.5985 C   0  0  0  0  0  0  0  0  0  0  0  0
    0.6771    0.6831    1.0611 H   0  0  0  0  0  0  0  0  0  0  0  0
    0.2916    1.1439   -0.6074 H   0  0  0  0  0  0  0  0  0  0  0  0
   -0.7391   -0.0223    0.2472 H   0  0  0  0  0  0  0  0  0  0  0  0
    0.7383   -1.2184   -1.3556 H   0  0  0  0  0  0  0  0  0  0  0  0
    3.6697   -0.9600    1.1023 H   0  0  0  0  0  0  0  0  0  0  0  0
    4.0052   -2.8281   -1.1765 H   0  0  0  0  0  0  0  0  0  0  0  0
    3.4210   -4.8132    0.3163 H   0  0  0  0  0  0  0  0  0  0  0  0
    3.2727   -3.6868    1.7501 H   0  0  0  0  0  0  0  0  0  0  0  0
    0.6700   -4.6043   -0.4222 H   0  0  0  0  0  0  0  0  0  0  0  0
    1.0287   -1.9227    1.5589 H   0  0  0  0  0  0  0  0  0  0  0  0
  1  2  1  0
  2  3  1  0
  3  4  1  0
  4  5  1  0
  5  6  1  0
  6  7  1  0
  7  8  1  0
  7  9  1  0
  9  2  1  0
  9  4  1  0
  7  5  1  0
  1 10  1  0
  1 11  1  0
  1 12  1  0
  2 13  1  0
  4 14  1  0
  5 15  1  0
  6 16  1  0
  6 17  1  0
  8 18  1  0
  9 19  1  0
M  END
$$$$
