gdb 4302	2.6318637	1.5470837	1.1906018	2.6131	76.5	-0.24097	0.00073	0.2417	1098.3987	0.157333	-422.555505	-422.547112	-422.546168	-422.588418	32.189
 OpenBabel02181911413D

 19 20  0  0  1  0  0  0  0  0999 V2000
    1.2866    0.6230   -0.2438 C   0  0  0  0  0  0  0  0  0  0  0  0
    0.0076   -0.1135    0.0416 C   0  0  0  0  0  0  0  0  0  0  0  0
   -0.0502   -1.3903    0.4307 C   0  0  0  0  0  0  0  0  0  0  0  0
   -1.3398   -2.1186    0.7196 C   0  0  0  0  0  0  0  0  0  0  0  0
   -2.4587   -1.1918    1.2337 C   0  0  1  0  0  0  0  0  0  0  0  0
   -2.2915   -0.9064    2.6093 O   0  0  0  0  0  0  0  0  0  0  0  0
   -2.5127    0.1147    0.4230 C   0  0  1  0  0  0  0  0  0  0  0  0
   -1.8609    1.2262    1.0540 O   0  0  0  0  0  0  0  0  0  0  0  0
   -1.2633    0.6457   -0.1355 C   0  0  1  0  0  0  0  0  0  0  0  0
    1.3954    1.4935    0.4150 H   0  0  0  0  0  0  0  0  0  0  0  0
    2.1586   -0.0213   -0.1043 H   0  0  0  0  0  0  0  0  0  0  0  0
    1.3058    1.0048   -1.2726 H   0  0  0  0  0  0  0  0  0  0  0  0
    0.8743   -1.9529    0.5426 H   0  0  0  0  0  0  0  0  0  0  0  0
   -1.6786   -2.6448   -0.1860 H   0  0  0  0  0  0  0  0  0  0  0  0
   -1.1774   -2.8899    1.4788 H   0  0  0  0  0  0  0  0  0  0  0  0
   -3.4193   -1.7099    1.1315 H   0  0  0  0  0  0  0  0  0  0  0  0
   -1.8285   -0.0579    2.6463 H   0  0  0  0  0  0  0  0  0  0  0  0
   -3.4598    0.3693   -0.0490 H   0  0  0  0  0  0  0  0  0  0  0  0
   -1.3106    1.3166   -0.9937 H   0  0  0  0  0  0  0  0  0  0  0  0
  1 11  1  0  0  0  0
  1  2  1  0  0  0  0
  1 10  1  0  0  0  0
  2  3  2  0  0  0  0
  3 13  1  0  0  0  0
  3  4  1  0  0  0  0
  4  5  1  0  0  0  0
  4 15  1  0  0  0  0
  5 16  1  6  0  0  0
  5  6  1  0  0  0  0
  6 17  1  0  0  0  0
  7 18  1  6  0  0  0
  7  8  1  0  0  0  0
  7  5  1  0  0  0  0
  9 19  1  6  0  0  0
  9  2  1  0  0  0  0
  9  7  1  0  0  0  0
  9  8  1  0  0  0  0
 12  1  1  0  0  0  0
 14  4  1  0  0  0  0
M TOR 0 0 1 2 3
M TOR 1 0 1 2 12
M TOR 2 0 1 8 6
M TOR 3 0 1 8 7
M TOR 4 0 1 8 18
M TOR 5 1 2 3 4
M TOR 6 1 2 3 13
M TOR 7 1 2 3 14
M TOR 8 1 8 6 4
M TOR 9 1 8 6 7
M TOR 10 1 8 6 17
M TOR 11 2 1 0 9
M TOR 12 2 1 0 10
M TOR 13 2 1 0 11
M TOR 14 2 1 8 6
M TOR 15 2 1 8 7
M TOR 16 2 1 8 18
M TOR 17 2 3 4 5
M TOR 18 2 3 4 6
M TOR 19 2 3 4 15
M TOR 20 3 2 1 8
M TOR 21 3 4 5 16
M TOR 22 3 4 6 7
M TOR 23 3 4 6 8
M TOR 24 3 4 6 17
M TOR 25 4 3 2 12
M TOR 26 4 6 7 8
M TOR 27 4 6 8 18
M TOR 28 5 4 3 13
M TOR 29 5 4 3 14
M TOR 30 5 4 6 7
M TOR 31 5 4 6 8
M TOR 32 5 4 6 17
M TOR 33 6 4 3 13
M TOR 34 6 4 3 14
M TOR 35 6 4 5 16
M TOR 36 6 7 8 18
M TOR 37 7 6 4 15
M TOR 38 7 8 6 17
M TOR 39 8 1 0 9
M TOR 40 8 1 0 10
M TOR 41 8 1 0 11
M TOR 42 8 1 2 12
M TOR 43 8 6 4 15
M  END
$$$$
