
     RDKit          3D

 19 21  0  0  0  0  0  0  0  0999 V2000
   -0.3921    1.4702   -0.0811 C   0  0  0  0  0  0  0  0  0  0  0  0
    0.1011    0.1321    0.4888 C   0  0  0  0  0  0  0  0  0  0  0  0
    0.8698    0.3635    1.8133 C   0  0  0  0  0  0  0  0  0  0  0  0
    2.0213    1.3631    1.5423 C   0  0  0  0  0  0  0  0  0  0  0  0
    2.9224    0.8435    0.4124 C   0  0  0  0  0  0  0  0  0  0  0  0
    1.8739    0.8632   -0.7074 C   0  0  0  0  0  0  0  0  0  0  0  0
    1.0265   -0.2787   -0.5288 O   0  0  0  0  0  0  0  0  0  0  0  0
    0.9830    2.1061   -0.3227 C   0  0  0  0  0  0  0  0  0  0  0  0
    1.4836    2.5520    0.9439 O   0  0  0  0  0  0  0  0  0  0  0  0
   -0.9449    1.2988   -1.0090 H   0  0  0  0  0  0  0  0  0  0  0  0
   -0.9898    2.0771    0.6014 H   0  0  0  0  0  0  0  0  0  0  0  0
   -0.6598   -0.6456    0.5792 H   0  0  0  0  0  0  0  0  0  0  0  0
    0.1960    0.7677    2.5761 H   0  0  0  0  0  0  0  0  0  0  0  0
    1.2720   -0.5858    2.1825 H   0  0  0  0  0  0  0  0  0  0  0  0
    2.5412    1.6572    2.4562 H   0  0  0  0  0  0  0  0  0  0  0  0
    3.7404    1.5472    0.2349 H   0  0  0  0  0  0  0  0  0  0  0  0
    3.3214   -0.1619    0.5577 H   0  0  0  0  0  0  0  0  0  0  0  0
    2.2604    0.8569   -1.7271 H   0  0  0  0  0  0  0  0  0  0  0  0
    1.0094    2.9409   -1.0238 H   0  0  0  0  0  0  0  0  0  0  0  0
  1  2  1  0
  2  3  1  0
  3  4  1  0
  4  5  1  0
  5  6  1  0
  6  7  1  0
  6  8  1  0
  8  9  1  0
  8  1  1  0
  7  2  1  0
  9  4  1  0
  1 10  1  0
  1 11  1  0
  2 12  1  0
  3 13  1  0
  3 14  1  0
  4 15  1  0
  5 16  1  0
  5 17  1  0
  6 18  1  0
  8 19  1  0
M  END
$$$$
