
     RDKit          3D

 19 21  0  0  0  0  0  0  0  0999 V2000
   -1.9540    0.3256    0.2554 O   0  0  0  0  0  0  0  0  0  0  0  0
   -1.0850   -0.4081   -0.5505 C   0  0  0  0  0  0  0  0  0  0  0  0
   -1.0345   -1.9490   -0.4044 C   0  0  0  0  0  0  0  0  0  0  0  0
   -1.0783   -2.1051   -1.9558 C   0  0  0  0  0  0  0  0  0  0  0  0
   -1.1328   -0.5656   -2.1387 C   0  0  0  0  0  0  0  0  0  0  0  0
    0.2682    0.1007   -2.2371 C   0  0  0  0  0  0  0  0  0  0  0  0
    0.2843    0.2476   -0.7087 C   0  0  0  0  0  0  0  0  0  0  0  0
    0.8598    1.2968    0.1295 C   0  0  0  0  0  0  0  0  0  0  0  0
    1.3885   -0.0394    0.1320 O   0  0  0  0  0  0  0  0  0  0  0  0
   -2.7525   -0.1928    0.3995 H   0  0  0  0  0  0  0  0  0  0  0  0
   -0.1580   -2.3381    0.1190 H   0  0  0  0  0  0  0  0  0  0  0  0
   -1.9301   -2.3432    0.0879 H   0  0  0  0  0  0  0  0  0  0  0  0
   -0.2075   -2.5893   -2.4050 H   0  0  0  0  0  0  0  0  0  0  0  0
   -1.9735   -2.6213   -2.3102 H   0  0  0  0  0  0  0  0  0  0  0  0
   -1.9255   -0.1493   -2.7595 H   0  0  0  0  0  0  0  0  0  0  0  0
    1.0605   -0.5328   -2.6459 H   0  0  0  0  0  0  0  0  0  0  0  0
    0.2763    1.0579   -2.7650 H   0  0  0  0  0  0  0  0  0  0  0  0
    1.5038    2.0515   -0.3211 H   0  0  0  0  0  0  0  0  0  0  0  0
    0.3425    1.5953    1.0388 H   0  0  0  0  0  0  0  0  0  0  0  0
  1  2  1  0
  2  3  1  0
  3  4  1  0
  4  5  1  0
  5  6  1  0
  6  7  1  0
  7  8  1  0
  8  9  1  0
  5  2  1  0
  9  7  1  0
  7  2  1  0
  1 10  1  0
  3 11  1  0
  3 12  1  0
  4 13  1  0
  4 14  1  0
  5 15  1  0
  6 16  1  0
  6 17  1  0
  8 18  1  0
  8 19  1  0
M  END
$$$$
