
     RDKit          3D

 19 21  0  0  0  0  0  0  0  0999 V2000
    0.2826    0.2549   -0.2960 C   0  0  0  0  0  0  0  0  0  0  0  0
    0.8865   -0.7042    0.7123 C   0  0  0  0  0  0  0  0  0  0  0  0
    2.3204   -0.5317    0.8453 O   0  0  0  0  0  0  0  0  0  0  0  0
    2.5924   -1.8633    0.3454 C   0  0  0  0  0  0  0  0  0  0  0  0
    3.2464   -2.7674    1.4085 C   0  0  0  0  0  0  0  0  0  0  0  0
    2.0921   -3.5466    2.0151 C   0  0  0  0  0  0  0  0  0  0  0  0
    1.4853   -4.4479    1.0751 O   0  0  0  0  0  0  0  0  0  0  0  0
    0.8256   -3.2075    1.3458 C   0  0  0  0  0  0  0  0  0  0  0  0
    1.0713   -2.1743    0.2730 C   0  0  0  0  0  0  0  0  0  0  0  0
    0.4436    1.2893    0.0228 H   0  0  0  0  0  0  0  0  0  0  0  0
    0.7388    0.1258   -1.2825 H   0  0  0  0  0  0  0  0  0  0  0  0
   -0.7965    0.0877   -0.3868 H   0  0  0  0  0  0  0  0  0  0  0  0
    0.3941   -0.5855    1.6882 H   0  0  0  0  0  0  0  0  0  0  0  0
    3.1511   -1.8234   -0.5948 H   0  0  0  0  0  0  0  0  0  0  0  0
    3.9823   -3.4523    0.9751 H   0  0  0  0  0  0  0  0  0  0  0  0
    3.7530   -2.1437    2.1512 H   0  0  0  0  0  0  0  0  0  0  0  0
    2.1348   -3.9101    3.0388 H   0  0  0  0  0  0  0  0  0  0  0  0
   -0.1437   -3.2841    1.8352 H   0  0  0  0  0  0  0  0  0  0  0  0
    0.6421   -2.4473   -0.6930 H   0  0  0  0  0  0  0  0  0  0  0  0
  1  2  1  0
  2  3  1  0
  3  4  1  0
  4  5  1  0
  5  6  1  0
  6  7  1  0
  7  8  1  0
  8  9  1  0
  9  2  1  0
  9  4  1  0
  8  6  1  0
  1 10  1  0
  1 11  1  0
  1 12  1  0
  2 13  1  0
  4 14  1  0
  5 15  1  0
  5 16  1  0
  6 17  1  0
  8 18  1  0
  9 19  1  0
M  END
$$$$
