gdb 244	3.6738948	1.4782188	1.2212361	1.777	73.35	-0.23317	0.08269	0.31586	1036.6413	0.15991	-422.546545	-422.539428	-422.538484	-422.578293	28.13
 OpenBabel02181911403D

 19 21  0  0  1  0  0  0  0  0999 V2000
   -0.3685   -0.0608   -0.1832 C   0  0  0  0  0  0  0  0  0  0  0  0
    1.1267   -0.1435   -0.0124 C   0  0  1  0  0  0  0  0  0  0  0  0
    1.9517    0.5128   -0.9388 O   0  0  0  0  0  0  0  0  0  0  0  0
    1.5707    1.8928   -1.0061 C   0  0  2  0  0  0  0  0  0  0  0  0
    2.8084    2.8110   -0.9281 C   0  0  0  0  0  0  0  0  0  0  0  0
    2.6386    3.6384    0.2181 O   0  0  0  0  0  0  0  0  0  0  0  0
    1.8392    2.9215    1.1439 C   0  0  0  0  0  0  0  0  0  0  0  0
    0.7743    2.2081    0.2904 C   0  0  2  0  0  0  0  0  0  0  0  0
    0.3469    0.8485    0.8031 C   0  0  1  0  0  0  0  0  0  0  0  0
   -0.7697    0.3656   -1.0968 H   0  0  0  0  0  0  0  0  0  0  0  0
   -0.9608   -0.8693    0.2319 H   0  0  0  0  0  0  0  0  0  0  0  0
    1.5946   -1.0335    0.3911 H   0  0  0  0  0  0  0  0  0  0  0  0
    0.9864    2.0611   -1.9167 H   0  0  0  0  0  0  0  0  0  0  0  0
    3.7023    2.1772   -0.8396 H   0  0  0  0  0  0  0  0  0  0  0  0
    2.9213    3.4679   -1.7950 H   0  0  0  0  0  0  0  0  0  0  0  0
    2.4395    2.1807    1.6985 H   0  0  0  0  0  0  0  0  0  0  0  0
    1.4282    3.6401    1.8575 H   0  0  0  0  0  0  0  0  0  0  0  0
   -0.0603    2.8846    0.0863 H   0  0  0  0  0  0  0  0  0  0  0  0
    0.1786    0.7171    1.8662 H   0  0  0  0  0  0  0  0  0  0  0  0
  1  2  1  0  0  0  0
  1 11  1  0  0  0  0
  1  9  1  0  0  0  0
  2 12  1  1  0  0  0
  2  9  1  0  0  0  0
  3  2  1  0  0  0  0
  4 13  1  6  0  0  0
  4  3  1  0  0  0  0
  4  5  1  0  0  0  0
  4  8  1  0  0  0  0
  5 14  1  0  0  0  0
  5  6  1  0  0  0  0
  6  7  1  0  0  0  0
  7 16  1  0  0  0  0
  7 17  1  0  0  0  0
  8 18  1  6  0  0  0
  8  9  1  0  0  0  0
  8  7  1  0  0  0  0
  9 19  1  1  0  0  0
 10  1  1  0  0  0  0
 15  5  1  0  0  0  0
M TOR 0 0 1 2 3
M TOR 1 0 1 8 7
M TOR 2 0 1 8 18
M TOR 3 0 8 1 2
M TOR 4 0 8 1 11
M TOR 5 0 8 7 3
M TOR 6 0 8 7 6
M TOR 7 0 8 7 17
M TOR 8 1 2 3 4
M TOR 9 1 2 3 7
M TOR 10 1 2 3 12
M TOR 11 1 8 0 9
M TOR 12 1 8 0 10
M TOR 13 1 8 7 3
M TOR 14 1 8 7 6
M TOR 15 1 8 7 17
M TOR 16 2 1 0 9
M TOR 17 2 1 0 10
M TOR 18 2 1 8 7
M TOR 19 2 1 8 18
M TOR 20 2 3 4 5
M TOR 21 2 3 4 13
M TOR 22 2 3 4 14
M TOR 23 2 3 7 6
M TOR 24 2 3 7 8
M TOR 25 2 3 7 17
M TOR 26 3 2 1 8
M TOR 27 3 2 1 11
M TOR 28 3 4 5 6
M TOR 29 3 7 6 5
M TOR 30 3 7 6 15
M TOR 31 3 7 6 16
M TOR 32 3 7 8 18
M TOR 33 4 3 7 6
M TOR 34 4 3 7 8
M TOR 35 4 3 7 17
M TOR 36 4 5 6 7
M TOR 37 4 5 6 15
M TOR 38 4 5 6 16
M TOR 39 5 4 3 7
M TOR 40 5 4 3 12
M TOR 41 5 6 7 8
M TOR 42 5 6 7 17
M TOR 43 6 5 4 13
M TOR 44 6 5 4 14
M TOR 45 6 7 3 12
M TOR 46 6 7 8 18
M TOR 47 7 3 4 13
M TOR 48 7 3 4 14
M TOR 49 7 8 0 9
M TOR 50 7 8 0 10
M TOR 51 7 8 1 11
M TOR 52 8 7 3 12
M TOR 53 8 7 6 15
M TOR 54 8 7 6 16
M  END
$$$$
