
     RDKit          3D

 19 21  0  0  0  0  0  0  0  0999 V2000
    1.3798    0.0555   -0.1554 C   0  0  0  0  0  0  0  0  0  0  0  0
   -0.0106   -0.0814    0.0818 O   0  0  0  0  0  0  0  0  0  0  0  0
   -0.4476    0.5910    1.2145 C   0  0  0  0  0  0  0  0  0  0  0  0
   -0.6231    2.0984    1.1773 C   0  0  0  0  0  0  0  0  0  0  0  0
   -1.8265    1.1759    1.2664 C   0  0  0  0  0  0  0  0  0  0  0  0
   -2.4083    0.9189    2.5200 O   0  0  0  0  0  0  0  0  0  0  0  0
   -1.5606    0.0904    3.2845 C   0  0  0  0  0  0  0  0  0  0  0  0
   -0.2898    0.6708    3.8466 C   0  0  0  0  0  0  0  0  0  0  0  0
   -0.2617   -0.1152    2.5499 C   0  0  0  0  0  0  0  0  0  0  0  0
    1.9771   -0.3711    0.6628 H   0  0  0  0  0  0  0  0  0  0  0  0
    1.5998   -0.4889   -1.0763 H   0  0  0  0  0  0  0  0  0  0  0  0
    1.6655    1.1091   -0.2805 H   0  0  0  0  0  0  0  0  0  0  0  0
   -0.3469    2.7176    2.0221 H   0  0  0  0  0  0  0  0  0  0  0  0
   -0.4745    2.5602    0.2061 H   0  0  0  0  0  0  0  0  0  0  0  0
   -2.5285    1.1291    0.4412 H   0  0  0  0  0  0  0  0  0  0  0  0
   -2.0994   -0.6855    3.8172 H   0  0  0  0  0  0  0  0  0  0  0  0
   -0.1468    1.7443    3.8307 H   0  0  0  0  0  0  0  0  0  0  0  0
    0.1231    0.1800    4.7222 H   0  0  0  0  0  0  0  0  0  0  0  0
    0.2369   -1.0757    2.5076 H   0  0  0  0  0  0  0  0  0  0  0  0
  1  2  1  0
  2  3  1  0
  3  4  1  0
  4  5  1  0
  5  6  1  0
  6  7  1  0
  7  8  1  0
  8  9  1  0
  5  3  1  0
  9  7  1  0
  9  3  1  0
  1 10  1  0
  1 11  1  0
  1 12  1  0
  4 13  1  0
  4 14  1  0
  5 15  1  0
  7 16  1  0
  8 17  1  0
  8 18  1  0
  9 19  1  0
M  END
$$$$
