gdb 281	2.7696291	1.678047	1.2336143	1.5021	73.58	-0.24508	0.07623	0.32131	1030.8995	0.158856	-422.512275	-422.504821	-422.503877	-422.543994	29.639
 OpenBabel02181911403D

 19 21  0  0  1  0  0  0  0  0999 V2000
   -1.9235   -1.5993    0.9600 C   0  0  0  0  0  0  0  0  0  0  0  0
   -1.3055   -0.3097    1.4623 C   0  0  1  0  0  0  0  0  0  0  0  0
    0.1935   -0.0453    1.4916 C   0  0  0  0  0  0  0  0  0  0  0  0
    0.9854   -0.5843    0.3104 C   0  0  2  0  0  0  0  0  0  0  0  0
    1.7526    0.3674   -0.4434 O   0  0  0  0  0  0  0  0  0  0  0  0
    0.6187   -0.2365   -1.0672 C   0  0  2  0  0  0  0  0  0  0  0  0
   -0.6098    0.6222   -1.3025 C   0  0  0  0  0  0  0  0  0  0  0  0
   -1.7812   -0.1468   -1.0853 O   0  0  0  0  0  0  0  0  0  0  0  0
   -2.2035   -0.3042    0.2416 C   0  0  1  0  0  0  0  0  0  0  0  0
   -1.2690   -2.2833    0.4299 H   0  0  0  0  0  0  0  0  0  0  0  0
   -2.7080   -2.0787    1.5355 H   0  0  0  0  0  0  0  0  0  0  0  0
   -1.7973    0.1123    2.3360 H   0  0  0  0  0  0  0  0  0  0  0  0
    0.3711    1.0346    1.5428 H   0  0  0  0  0  0  0  0  0  0  0  0
    0.6010   -0.4661    2.4186 H   0  0  0  0  0  0  0  0  0  0  0  0
    1.5046   -1.5287    0.4694 H   0  0  0  0  0  0  0  0  0  0  0  0
    0.8591   -0.9411   -1.8639 H   0  0  0  0  0  0  0  0  0  0  0  0
   -0.5739    1.5074   -0.6563 H   0  0  0  0  0  0  0  0  0  0  0  0
   -0.6570    0.9608   -2.3422 H   0  0  0  0  0  0  0  0  0  0  0  0
   -3.1865    0.1392    0.3898 H   0  0  0  0  0  0  0  0  0  0  0  0
  1  2  1  0  0  0  0
  1 11  1  0  0  0  0
  2  3  1  0  0  0  0
  2 12  1  1  0  0  0
  3 13  1  0  0  0  0
  3 14  1  0  0  0  0
  4 15  1  1  0  0  0
  4  3  1  0  0  0  0
  5  4  1  0  0  0  0
  6 16  1  6  0  0  0
  6  5  1  0  0  0  0
  6  4  1  0  0  0  0
  7  8  1  0  0  0  0
  7  6  1  0  0  0  0
  7 17  1  0  0  0  0
  8  9  1  0  0  0  0
  9 19  1  1  0  0  0
  9  1  1  0  0  0  0
  9  2  1  0  0  0  0
 10  1  1  0  0  0  0
 18  7  1  0  0  0  0
M TOR 0 0 1 2 3
M TOR 1 0 1 2 12
M TOR 2 0 1 2 13
M TOR 3 0 1 8 7
M TOR 4 0 1 8 18
M TOR 5 0 8 1 2
M TOR 6 0 8 1 11
M TOR 7 0 8 7 6
M TOR 8 1 2 3 4
M TOR 9 1 2 3 5
M TOR 10 1 2 3 14
M TOR 11 1 8 0 9
M TOR 12 1 8 0 10
M TOR 13 1 8 7 6
M TOR 14 2 1 0 9
M TOR 15 2 1 0 10
M TOR 16 2 1 8 7
M TOR 17 2 1 8 18
M TOR 18 2 3 4 5
M TOR 19 2 3 5 6
M TOR 20 2 3 5 15
M TOR 21 3 2 1 8
M TOR 22 3 2 1 11
M TOR 23 3 4 5 6
M TOR 24 3 4 5 15
M TOR 25 3 5 6 7
M TOR 26 3 5 6 16
M TOR 27 3 5 6 17
M TOR 28 4 3 2 12
M TOR 29 4 3 2 13
M TOR 30 4 5 3 14
M TOR 31 4 5 6 7
M TOR 32 4 5 6 16
M TOR 33 4 5 6 17
M TOR 34 5 3 2 12
M TOR 35 5 3 2 13
M TOR 36 5 6 7 8
M TOR 37 6 5 3 14
M TOR 38 6 7 8 18
M TOR 39 7 6 5 15
M TOR 40 7 8 0 9
M TOR 41 7 8 0 10
M TOR 42 7 8 1 11
M TOR 43 8 1 2 12
M TOR 44 8 1 2 13
M TOR 45 8 7 6 16
M TOR 46 8 7 6 17
M  END
$$$$
