
     RDKit          3D

 19 20  0  0  0  0  0  0  0  0999 V2000
    0.0779    0.6035    0.0752 C   0  0  0  0  0  0  0  0  0  0  0  0
    1.5218    0.1098    0.1439 C   0  0  0  0  0  0  0  0  0  0  0  0
    1.5045   -1.2109   -0.4095 O   0  0  0  0  0  0  0  0  0  0  0  0
    2.0096    0.0494    1.6125 C   0  0  0  0  0  0  0  0  0  0  0  0
    3.4977   -0.1795    1.7309 C   0  0  0  0  0  0  0  0  0  0  0  0
    4.0947   -1.0625    0.7724 O   0  0  0  0  0  0  0  0  0  0  0  0
    4.3745    0.3647    0.6784 C   0  0  0  0  0  0  0  0  0  0  0  0
    3.7474    1.0929   -0.4500 C   0  0  0  0  0  0  0  0  0  0  0  0
    2.4381    0.9907   -0.6890 C   0  0  0  0  0  0  0  0  0  0  0  0
   -0.5697   -0.0365    0.6808 H   0  0  0  0  0  0  0  0  0  0  0  0
   -0.0056    1.6333    0.4352 H   0  0  0  0  0  0  0  0  0  0  0  0
   -0.2763    0.5625   -0.9588 H   0  0  0  0  0  0  0  0  0  0  0  0
    2.4127   -1.5372   -0.3335 H   0  0  0  0  0  0  0  0  0  0  0  0
    1.7697    0.9857    2.1323 H   0  0  0  0  0  0  0  0  0  0  0  0
    1.4605   -0.7554    2.1135 H   0  0  0  0  0  0  0  0  0  0  0  0
    3.8951   -0.2895    2.7400 H   0  0  0  0  0  0  0  0  0  0  0  0
    5.4065    0.6072    0.9194 H   0  0  0  0  0  0  0  0  0  0  0  0
    4.3903    1.7011   -1.0789 H   0  0  0  0  0  0  0  0  0  0  0  0
    1.9915    1.5034   -1.5366 H   0  0  0  0  0  0  0  0  0  0  0  0
  1  2  1  0
  2  3  1  0
  2  4  1  0
  4  5  1  0
  5  6  1  0
  6  7  1  0
  7  8  1  0
  8  9  2  0
  9  2  1  0
  7  5  1  0
  1 10  1  0
  1 11  1  0
  1 12  1  0
  3 13  1  0
  4 14  1  0
  4 15  1  0
  5 16  1  0
  7 17  1  0
  8 18  1  0
  9 19  1  0
M  END
$$$$
