gdb 959	4.9657746	0.7468747	0.7075577	3.3071	77.55	-0.23955	-0.02006	0.21949000000000002	1590.8485	0.155237	-422.520898	-422.511893	-422.510949	-422.555978	32.176
 OpenBabel02181911403D

 19 20  0  0  1  0  0  0  0  0999 V2000
    1.1788   -0.5511    0.0896 O   0  0  0  0  0  0  0  0  0  0  0  0
    0.0691   -0.0988   -0.0251 C   0  0  0  0  0  0  0  0  0  0  0  0
   -0.3867    0.8163   -1.1359 C   0  0  0  0  0  0  0  0  0  0  0  0
   -0.9796    2.1321   -0.5881 C   0  0  0  0  0  0  0  0  0  0  0  0
   -1.5948    2.9480   -1.6805 C   0  0  2  0  0  0  0  0  0  0  0  0
   -0.9127    3.9334   -2.5802 C   0  0  0  0  0  0  0  0  0  0  0  0
   -2.1424    4.3547   -1.7935 C   0  0  1  0  0  0  0  0  0  0  0  0
   -3.3657    3.6895   -2.4089 C   0  0  0  0  0  0  0  0  0  0  0  0
   -2.7317    2.3809   -2.3538 O   0  0  0  0  0  0  0  0  0  0  0  0
   -0.7250   -0.3372    0.7227 H   0  0  0  0  0  0  0  0  0  0  0  0
    0.4523    1.0045   -1.8107 H   0  0  0  0  0  0  0  0  0  0  0  0
   -1.1745    0.2965   -1.6987 H   0  0  0  0  0  0  0  0  0  0  0  0
   -1.7431    1.9038    0.1663 H   0  0  0  0  0  0  0  0  0  0  0  0
   -0.1985    2.7207   -0.0945 H   0  0  0  0  0  0  0  0  0  0  0  0
    0.0207    4.3441   -2.2073 H   0  0  0  0  0  0  0  0  0  0  0  0
   -0.9645    3.8069   -3.6585 H   0  0  0  0  0  0  0  0  0  0  0  0
   -2.1441    5.1738   -1.0872 H   0  0  0  0  0  0  0  0  0  0  0  0
   -4.2533    3.7122   -1.7668 H   0  0  0  0  0  0  0  0  0  0  0  0
   -3.6409    3.9736   -3.4316 H   0  0  0  0  0  0  0  0  0  0  0  0
  2  1  2  0  0  0  0
  2 10  1  0  0  0  0
  3  4  1  0  0  0  0
  3  2  1  0  0  0  0
  4 14  1  0  0  0  0
  4 13  1  0  0  0  0
  5  4  1  1  0  0  0
  6 15  1  0  0  0  0
  6  7  1  0  0  0  0
  6  5  1  0  0  0  0
  7  5  1  0  0  0  0
  7 17  1  1  0  0  0
  8  9  1  0  0  0  0
  8  7  1  0  0  0  0
  8 18  1  0  0  0  0
  9  5  1  0  0  0  0
 11  3  1  0  0  0  0
 12  3  1  0  0  0  0
 16  6  1  0  0  0  0
 19  8  1  0  0  0  0
M TOR 0 0 1 2 3
M TOR 1 0 1 2 10
M TOR 2 0 1 2 11
M TOR 3 1 2 3 4
M TOR 4 1 2 3 12
M TOR 5 1 2 3 13
M TOR 6 2 3 4 5
M TOR 7 2 3 4 6
M TOR 8 2 3 4 8
M TOR 9 3 2 1 9
M TOR 10 3 4 5 6
M TOR 11 3 4 5 14
M TOR 12 3 4 5 15
M TOR 13 3 4 6 7
M TOR 14 3 4 6 16
M TOR 15 3 4 8 7
M TOR 16 4 3 2 10
M TOR 17 4 3 2 11
M TOR 18 4 5 6 7
M TOR 19 4 5 6 16
M TOR 20 4 6 5 14
M TOR 21 4 6 5 15
M TOR 22 4 6 7 8
M TOR 23 4 6 7 17
M TOR 24 4 6 7 18
M TOR 25 4 8 7 17
M TOR 26 4 8 7 18
M TOR 27 5 4 3 12
M TOR 28 5 4 3 13
M TOR 29 5 4 8 7
M TOR 30 5 6 4 8
M TOR 31 5 6 7 8
M TOR 32 5 6 7 17
M TOR 33 5 6 7 18
M TOR 34 6 4 3 12
M TOR 35 6 4 3 13
M TOR 36 7 6 5 14
M TOR 37 7 6 5 15
M TOR 38 8 4 3 12
M TOR 39 8 4 3 13
M TOR 40 8 4 5 14
M TOR 41 8 4 5 15
M TOR 42 8 4 6 16
M TOR 43 8 7 6 16
M  END
$$$$
