
     RDKit          3D

 19 20  0  0  0  0  0  0  0  0999 V2000
   -3.5932    1.0116   -0.1798 C   0  0  0  0  0  0  0  0  0  0  0  0
   -2.2707    0.3424    0.0613 C   0  0  0  0  0  0  0  0  0  0  0  0
   -2.0461   -0.7630    1.1234 C   0  0  0  0  0  0  0  0  0  0  0  0
   -0.9881   -1.1795    0.0696 C   0  0  0  0  0  0  0  0  0  0  0  0
   -0.4568   -2.5613   -0.1503 C   0  0  0  0  0  0  0  0  0  0  0  0
   -1.8791   -0.6378   -0.9703 O   0  0  0  0  0  0  0  0  0  0  0  0
   -0.0014    0.0033    0.1631 C   0  0  0  0  0  0  0  0  0  0  0  0
    1.1962   -0.0137    0.2210 O   0  0  0  0  0  0  0  0  0  0  0  0
   -0.9841    1.1931    0.1433 C   0  0  0  0  0  0  0  0  0  0  0  0
   -3.8339    1.6871    0.6475 H   0  0  0  0  0  0  0  0  0  0  0  0
   -3.5638    1.5999   -1.1025 H   0  0  0  0  0  0  0  0  0  0  0  0
   -4.3915    0.2695   -0.2680 H   0  0  0  0  0  0  0  0  0  0  0  0
   -1.7221   -0.4817    2.1296 H   0  0  0  0  0  0  0  0  0  0  0  0
   -2.8731   -1.4755    1.1533 H   0  0  0  0  0  0  0  0  0  0  0  0
    0.2115   -2.8357    0.6714 H   0  0  0  0  0  0  0  0  0  0  0  0
   -1.2669   -3.2925   -0.2097 H   0  0  0  0  0  0  0  0  0  0  0  0
    0.1223   -2.6000   -1.0776 H   0  0  0  0  0  0  0  0  0  0  0  0
   -0.8898    1.8176    1.0366 H   0  0  0  0  0  0  0  0  0  0  0  0
   -0.8450    1.8161   -0.7442 H   0  0  0  0  0  0  0  0  0  0  0  0
  1  2  1  0
  2  3  1  0
  3  4  1  0
  4  5  1  0
  4  6  1  0
  4  7  1  0
  7  8  2  0
  7  9  1  0
  6  2  1  0
  9  2  1  0
  1 10  1  0
  1 11  1  0
  1 12  1  0
  3 13  1  0
  3 14  1  0
  5 15  1  0
  5 16  1  0
  5 17  1  0
  9 18  1  0
  9 19  1  0
M  END
$$$$
