gdb 5065	2.7918343	1.2255335	1.0357179	4.1704	78.88	-0.24066	-0.01729	0.22337	1225.298	0.15509	-422.52628	-422.517089	-422.516144	-422.560592	33.144
 OpenBabel02181911413D

 19 20  0  0  1  0  0  0  0  0999 V2000
    1.5619   -0.0282   -0.0212 C   0  0  0  0  0  0  0  0  0  0  0  0
    0.1496    0.1286   -0.0597 O   0  0  0  0  0  0  0  0  0  0  0  0
   -0.3719    0.7105    1.0705 C   0  0  2  0  0  0  0  0  0  0  0  0
   -0.5528   -0.0537    2.3346 C   0  0  0  0  0  0  0  0  0  0  0  0
   -1.8006    0.4794    1.6338 C   0  0  1  0  0  0  0  0  0  0  0  0
   -1.9442    1.9796    1.8914 C   0  0  0  0  0  0  0  0  0  0  0  0
   -0.5257    2.2231    1.2756 C   0  0  0  0  0  0  0  0  0  0  0  0
   -2.8414   -0.4078    1.1073 C   0  0  0  0  0  0  0  0  0  0  0  0
   -3.9906   -0.0753    0.9274 O   0  0  0  0  0  0  0  0  0  0  0  0
    1.8720   -0.6542    0.8264 H   0  0  0  0  0  0  0  0  0  0  0  0
    1.8499   -0.5150   -0.9548 H   0  0  0  0  0  0  0  0  0  0  0  0
    2.0743    0.9407    0.0499 H   0  0  0  0  0  0  0  0  0  0  0  0
   -0.4082   -1.1255    2.2328 H   0  0  0  0  0  0  0  0  0  0  0  0
   -0.2877    0.3562    3.3065 H   0  0  0  0  0  0  0  0  0  0  0  0
   -2.7508    2.4224    1.3063 H   0  0  0  0  0  0  0  0  0  0  0  0
   -2.0671    2.2628    2.9406 H   0  0  0  0  0  0  0  0  0  0  0  0
   -0.5788    2.7504    0.3212 H   0  0  0  0  0  0  0  0  0  0  0  0
    0.2221    2.7052    1.9128 H   0  0  0  0  0  0  0  0  0  0  0  0
   -2.4905   -1.4350    0.8591 H   0  0  0  0  0  0  0  0  0  0  0  0
  1 12  1  0  0  0  0
  1 10  1  0  0  0  0
  2  1  1  0  0  0  0
  3  2  1  6  0  0  0
  3  7  1  0  0  0  0
  3  5  1  0  0  0  0
  3  4  1  0  0  0  0
  4 14  1  0  0  0  0
  5  8  1  6  0  0  0
  5  6  1  0  0  0  0
  5  4  1  0  0  0  0
  6 16  1  0  0  0  0
  7  6  1  0  0  0  0
  7 18  1  0  0  0  0
  9  8  2  0  0  0  0
 11  1  1  0  0  0  0
 13  4  1  0  0  0  0
 15  6  1  0  0  0  0
 17  7  1  0  0  0  0
 19  8  1  0  0  0  0
M TOR 0 0 1 2 3
M TOR 1 0 1 2 4
M TOR 2 0 1 2 6
M TOR 3 1 2 3 4
M TOR 4 1 2 3 12
M TOR 5 1 2 3 13
M TOR 6 1 2 4 5
M TOR 7 1 2 4 7
M TOR 8 1 2 6 5
M TOR 9 1 2 6 16
M TOR 10 1 2 6 17
M TOR 11 2 1 0 9
M TOR 12 2 1 0 10
M TOR 13 2 1 0 11
M TOR 14 2 3 4 5
M TOR 15 2 3 4 7
M TOR 16 2 4 3 12
M TOR 17 2 4 3 13
M TOR 18 2 4 5 6
M TOR 19 2 4 5 14
M TOR 20 2 4 5 15
M TOR 21 2 4 7 8
M TOR 22 2 4 7 18
M TOR 23 2 6 5 14
M TOR 24 2 6 5 15
M TOR 25 3 2 6 5
M TOR 26 3 2 6 16
M TOR 27 3 2 6 17
M TOR 28 3 4 2 6
M TOR 29 3 4 5 6
M TOR 30 3 4 5 14
M TOR 31 3 4 5 15
M TOR 32 3 4 7 8
M TOR 33 3 4 7 18
M TOR 34 4 2 6 16
M TOR 35 4 2 6 17
M TOR 36 4 5 6 16
M TOR 37 4 5 6 17
M TOR 38 5 4 3 12
M TOR 39 5 4 3 13
M TOR 40 5 4 7 8
M TOR 41 5 4 7 18
M TOR 42 6 2 3 12
M TOR 43 6 2 3 13
M TOR 44 6 2 4 7
M TOR 45 6 5 4 7
M TOR 46 7 4 3 12
M TOR 47 7 4 3 13
M TOR 48 7 4 5 14
M TOR 49 7 4 5 15
M  END
$$$$
