gdb 4409	2.9398522	1.6051323	1.236771	1.1371	75.17	-0.24102	0.0701	0.31112	1052.779	0.15649	-422.472956	-422.46498	-422.464036	-422.505519	30.625
 OpenBabel02181911413D

 19 21  0  0  1  0  0  0  0  0999 V2000
    1.8049   -1.2673   -0.7833 C   0  0  0  0  0  0  0  0  0  0  0  0
    1.3360   -0.0762    0.0395 C   0  0  1  0  0  0  0  0  0  0  0  0
    1.2672   -0.2401    1.5764 C   0  0  0  0  0  0  0  0  0  0  0  0
    2.2139    0.8385    1.7745 O   0  0  0  0  0  0  0  0  0  0  0  0
    2.3590    1.0198    0.3693 C   0  0  1  0  0  0  0  0  0  0  0  0
    3.7481    1.2011   -0.3006 C   0  0  2  0  0  0  0  0  0  0  0  0
    3.8364    2.6176    0.3142 C   0  0  0  0  0  0  0  0  0  0  0  0
    2.4199    2.4268   -0.2752 C   0  0  1  0  0  0  0  0  0  0  0  0
    3.0215    1.7701   -1.4617 O   0  0  0  0  0  0  0  0  0  0  0  0
    2.7150   -1.7067   -0.3603 H   0  0  0  0  0  0  0  0  0  0  0  0
    1.0391   -2.0496   -0.8125 H   0  0  0  0  0  0  0  0  0  0  0  0
    2.0215   -0.9599   -1.8099 H   0  0  0  0  0  0  0  0  0  0  0  0
    0.4156    0.3375   -0.3815 H   0  0  0  0  0  0  0  0  0  0  0  0
    0.3041   -0.0239    2.0512 H   0  0  0  0  0  0  0  0  0  0  0  0
    1.6556   -1.1912    1.9606 H   0  0  0  0  0  0  0  0  0  0  0  0
    4.5379    0.4783   -0.5055 H   0  0  0  0  0  0  0  0  0  0  0  0
    3.9295    2.6968    1.3988 H   0  0  0  0  0  0  0  0  0  0  0  0
    4.4715    3.3151   -0.2334 H   0  0  0  0  0  0  0  0  0  0  0  0
    1.6276    3.1555   -0.4499 H   0  0  0  0  0  0  0  0  0  0  0  0
  1 10  1  0  0  0  0
  1  2  1  0  0  0  0
  2 13  1  6  0  0  0
  2  5  1  0  0  0  0
  2  3  1  0  0  0  0
  3  4  1  0  0  0  0
  3 15  1  0  0  0  0
  3 14  1  0  0  0  0
  5  4  1  1  0  0  0
  6 16  1  6  0  0  0
  6  7  1  0  0  0  0
  6  5  1  0  0  0  0
  7 17  1  0  0  0  0
  8 19  1  6  0  0  0
  8  7  1  0  0  0  0
  8  5  1  0  0  0  0
  9  6  1  0  0  0  0
  9  8  1  0  0  0  0
 11  1  1  0  0  0  0
 12  1  1  0  0  0  0
 18  7  1  0  0  0  0
M TOR 0 0 1 2 3
M TOR 1 0 1 2 13
M TOR 2 0 1 2 14
M TOR 3 0 1 4 3
M TOR 4 0 1 4 5
M TOR 5 0 1 4 7
M TOR 6 1 2 3 4
M TOR 7 1 4 5 6
M TOR 8 1 4 5 8
M TOR 9 1 4 5 15
M TOR 10 1 4 7 6
M TOR 11 1 4 7 8
M TOR 12 1 4 7 18
M TOR 13 2 1 0 9
M TOR 14 2 1 0 10
M TOR 15 2 1 0 11
M TOR 16 2 1 4 5
M TOR 17 2 1 4 7
M TOR 18 2 3 4 5
M TOR 19 2 3 4 7
M TOR 20 3 2 1 12
M TOR 21 3 4 1 12
M TOR 22 3 4 5 6
M TOR 23 3 4 5 8
M TOR 24 3 4 5 15
M TOR 25 3 4 7 6
M TOR 26 3 4 7 8
M TOR 27 3 4 7 18
M TOR 28 4 1 0 9
M TOR 29 4 1 0 10
M TOR 30 4 1 0 11
M TOR 31 4 1 2 13
M TOR 32 4 1 2 14
M TOR 33 4 3 2 13
M TOR 34 4 3 2 14
M TOR 35 4 5 6 7
M TOR 36 4 5 6 16
M TOR 37 4 5 6 17
M TOR 38 4 5 8 7
M TOR 39 4 7 6 16
M TOR 40 4 7 6 17
M TOR 41 5 4 1 12
M TOR 42 5 4 7 18
M TOR 43 5 6 7 8
M TOR 44 5 6 7 18
M TOR 45 5 8 7 18
M TOR 46 7 4 1 12
M TOR 47 7 4 5 15
M TOR 48 7 6 5 15
M TOR 49 7 8 5 15
M TOR 50 8 5 6 16
M TOR 51 8 5 6 17
M TOR 52 8 7 6 16
M TOR 53 8 7 6 17
M  END
$$$$
