gdb 4675	2.9301278	1.2496577	1.0547342	2.5635	75.96	-0.23617	-0.01882	0.21735	1205.9714	0.155549	-422.500618	-422.491802	-422.490858	-422.535771	31.986
 OpenBabel02181911413D

 19 20  0  0  1  0  0  0  0  0999 V2000
    0.2133   -0.4257   -0.1807 C   0  0  0  0  0  0  0  0  0  0  0  0
    0.7251    0.9094    0.3941 C   0  0  0  0  0  0  0  0  0  0  0  0
    2.2234    1.0502    0.1974 C   0  0  0  0  0  0  0  0  0  0  0  0
    3.0113    0.8211    1.0892 O   0  0  0  0  0  0  0  0  0  0  0  0
    2.7847    1.4516   -1.1625 C   0  0  1  0  0  0  0  0  0  0  0  0
    1.9029    1.8650   -2.3741 C   0  0  2  0  0  0  0  0  0  0  0  0
    3.0928    2.6656   -2.9555 C   0  0  0  0  0  0  0  0  0  0  0  0
    2.9518    2.9767   -1.4484 C   0  0  1  0  0  0  0  0  0  0  0  0
    1.4857    3.0885   -1.6410 O   0  0  0  0  0  0  0  0  0  0  0  0
    0.6998   -1.2738    0.3103 H   0  0  0  0  0  0  0  0  0  0  0  0
   -0.8653   -0.5165   -0.0251 H   0  0  0  0  0  0  0  0  0  0  0  0
    0.4008   -0.5068   -1.2562 H   0  0  0  0  0  0  0  0  0  0  0  0
    0.2205    1.7494   -0.0894 H   0  0  0  0  0  0  0  0  0  0  0  0
    0.5346    0.9459    1.4701 H   0  0  0  0  0  0  0  0  0  0  0  0
    3.6690    0.8469   -1.3798 H   0  0  0  0  0  0  0  0  0  0  0  0
    1.1262    1.3048   -2.8944 H   0  0  0  0  0  0  0  0  0  0  0  0
    3.9749    2.1172   -3.2929 H   0  0  0  0  0  0  0  0  0  0  0  0
    2.8102    3.4840   -3.6180 H   0  0  0  0  0  0  0  0  0  0  0  0
    3.4424    3.7315   -0.8349 H   0  0  0  0  0  0  0  0  0  0  0  0
  1 11  1  0  0  0  0
  1 10  1  0  0  0  0
  1  2  1  0  0  0  0
  2 14  1  0  0  0  0
  3  2  1  0  0  0  0
  3  4  2  0  0  0  0
  5 15  1  6  0  0  0
  5  3  1  0  0  0  0
  6 16  1  6  0  0  0
  6  9  1  0  0  0  0
  6  5  1  0  0  0  0
  7  6  1  0  0  0  0
  7  8  1  0  0  0  0
  8  5  1  0  0  0  0
  8 19  1  1  0  0  0
  9  8  1  0  0  0  0
 12  1  1  0  0  0  0
 13  2  1  0  0  0  0
 17  7  1  0  0  0  0
 18  7  1  0  0  0  0
M TOR 0 0 1 2 3
M TOR 1 0 1 2 4
M TOR 2 1 2 4 5
M TOR 3 1 2 4 7
M TOR 4 1 2 4 14
M TOR 5 2 1 0 9
M TOR 6 2 1 0 10
M TOR 7 2 1 0 11
M TOR 8 2 4 5 6
M TOR 9 2 4 5 8
M TOR 10 2 4 5 15
M TOR 11 2 4 7 6
M TOR 12 2 4 7 8
M TOR 13 2 4 7 18
M TOR 14 3 2 1 12
M TOR 15 3 2 1 13
M TOR 16 3 2 4 5
M TOR 17 3 2 4 7
M TOR 18 3 2 4 14
M TOR 19 4 2 1 12
M TOR 20 4 2 1 13
M TOR 21 4 5 6 7
M TOR 22 4 5 6 16
M TOR 23 4 5 6 17
M TOR 24 4 5 8 7
M TOR 25 4 7 6 16
M TOR 26 4 7 6 17
M TOR 27 5 4 7 18
M TOR 28 5 6 7 8
M TOR 29 5 6 7 18
M TOR 30 5 8 7 18
M TOR 31 6 5 4 14
M TOR 32 6 7 4 14
M TOR 33 7 4 5 15
M TOR 34 7 6 5 15
M TOR 35 7 8 5 15
M TOR 36 8 5 4 14
M TOR 37 8 5 6 16
M TOR 38 8 5 6 17
M TOR 39 8 7 4 14
M TOR 40 8 7 6 16
M TOR 41 8 7 6 17
M  END
$$$$
