
     RDKit          3D

 19 18  0  0  0  0  0  0  0  0999 V2000
   -0.0179   -0.1535   -0.0078 C   0  0  0  0  0  0  0  0  0  0  0  0
    1.4876   -0.0103   -0.2948 C   0  0  0  0  0  0  0  0  0  0  0  0
    1.9798    1.3517   -0.1517 C   0  0  0  0  0  0  0  0  0  0  0  0
    2.3773    2.4856   -0.0300 C   0  0  0  0  0  0  0  0  0  0  0  0
    2.7958    3.8561    0.1299 C   0  0  0  0  0  0  0  0  0  0  0  0
    2.0318    4.7431    0.4495 O   0  0  0  0  0  0  0  0  0  0  0  0
    4.2682    4.1790   -0.1203 C   0  0  0  0  0  0  0  0  0  0  0  0
    4.9942    3.0340   -0.4707 O   0  0  0  0  0  0  0  0  0  0  0  0
    6.3569    3.3005   -0.7092 C   0  0  0  0  0  0  0  0  0  0  0  0
   -0.2498    0.1587    1.0136 H   0  0  0  0  0  0  0  0  0  0  0  0
   -0.6041    0.4658   -0.6914 H   0  0  0  0  0  0  0  0  0  0  0  0
   -0.3284   -1.1950   -0.1309 H   0  0  0  0  0  0  0  0  0  0  0  0
    2.0619   -0.6631    0.3755 H   0  0  0  0  0  0  0  0  0  0  0  0
    1.7115   -0.3592   -1.3113 H   0  0  0  0  0  0  0  0  0  0  0  0
    4.3046    4.9475   -0.9113 H   0  0  0  0  0  0  0  0  0  0  0  0
    4.6601    4.6508    0.7968 H   0  0  0  0  0  0  0  0  0  0  0  0
    6.8538    3.7133    0.1828 H   0  0  0  0  0  0  0  0  0  0  0  0
    6.8318    2.3528   -0.9728 H   0  0  0  0  0  0  0  0  0  0  0  0
    6.4941    4.0120   -1.5386 H   0  0  0  0  0  0  0  0  0  0  0  0
  1  2  1  0
  2  3  1  0
  3  4  3  0
  4  5  1  0
  5  6  2  0
  5  7  1  0
  7  8  1  0
  8  9  1  0
  1 10  1  0
  1 11  1  0
  1 12  1  0
  2 13  1  0
  2 14  1  0
  7 15  1  0
  7 16  1  0
  9 17  1  0
  9 18  1  0
  9 19  1  0
M  END
$$$$
