
     RDKit          3D

 19 20  0  0  0  0  0  0  0  0999 V2000
    1.3749    0.7530    0.3601 C   0  0  0  0  0  0  0  0  0  0  0  0
   -0.0180    0.2120    0.2711 C   0  0  0  0  0  0  0  0  0  0  0  0
   -1.1428    0.9159    0.0857 C   0  0  0  0  0  0  0  0  0  0  0  0
   -2.3433    0.0412    0.1977 C   0  0  0  0  0  0  0  0  0  0  0  0
   -2.4704   -0.5821    1.5011 O   0  0  0  0  0  0  0  0  0  0  0  0
   -1.8486   -1.3220    0.4517 C   0  0  0  0  0  0  0  0  0  0  0  0
   -0.3226   -1.2750    0.4461 C   0  0  0  0  0  0  0  0  0  0  0  0
    0.2570   -2.1484   -0.6797 C   0  0  0  0  0  0  0  0  0  0  0  0
   -0.1010   -3.5148   -0.5478 O   0  0  0  0  0  0  0  0  0  0  0  0
    1.8179    0.5394    1.3413 H   0  0  0  0  0  0  0  0  0  0  0  0
    2.0384    0.3000   -0.3866 H   0  0  0  0  0  0  0  0  0  0  0  0
    1.3905    1.8362    0.2130 H   0  0  0  0  0  0  0  0  0  0  0  0
   -1.1923    1.9881   -0.0644 H   0  0  0  0  0  0  0  0  0  0  0  0
   -3.2841    0.2668   -0.2943 H   0  0  0  0  0  0  0  0  0  0  0  0
   -2.3580   -2.2270    0.1352 H   0  0  0  0  0  0  0  0  0  0  0  0
    0.0793   -1.6365    1.4048 H   0  0  0  0  0  0  0  0  0  0  0  0
   -0.1536   -1.8260   -1.6426 H   0  0  0  0  0  0  0  0  0  0  0  0
    1.3488   -2.0238   -0.7313 H   0  0  0  0  0  0  0  0  0  0  0  0
    0.2813   -3.8441    0.2723 H   0  0  0  0  0  0  0  0  0  0  0  0
  1  2  1  0
  2  3  2  0
  3  4  1  0
  4  5  1  0
  5  6  1  0
  6  7  1  0
  7  8  1  0
  8  9  1  0
  7  2  1  0
  6  4  1  0
  1 10  1  0
  1 11  1  0
  1 12  1  0
  3 13  1  0
  4 14  1  0
  6 15  1  0
  7 16  1  0
  8 17  1  0
  8 18  1  0
  9 19  1  0
M  END
$$$$
