
     RDKit          3D

 19 21  0  0  0  0  0  0  0  0999 V2000
    1.0485    0.9019    0.4453 C   0  0  0  0  0  0  0  0  0  0  0  0
    0.8208   -0.4824   -0.1763 C   0  0  0  0  0  0  0  0  0  0  0  0
    1.8156   -0.8045   -1.2628 C   0  0  0  0  0  0  0  0  0  0  0  0
    1.8481    0.0078   -2.5623 C   0  0  0  0  0  0  0  0  0  0  0  0
    2.4123   -0.9653   -3.5881 C   0  0  0  0  0  0  0  0  0  0  0  0
    1.5769   -2.1086   -3.8209 O   0  0  0  0  0  0  0  0  0  0  0  0
    2.7186   -2.2577   -2.9629 C   0  0  0  0  0  0  0  0  0  0  0  0
    2.3591   -2.1499   -1.5082 C   0  0  0  0  0  0  0  0  0  0  0  0
    3.1420   -1.1618   -0.8189 O   0  0  0  0  0  0  0  0  0  0  0  0
    0.3275    1.0927    1.2452 H   0  0  0  0  0  0  0  0  0  0  0  0
    2.0546    0.9719    0.8694 H   0  0  0  0  0  0  0  0  0  0  0  0
    0.9392    1.6993   -0.2972 H   0  0  0  0  0  0  0  0  0  0  0  0
    0.8916   -1.2515    0.6001 H   0  0  0  0  0  0  0  0  0  0  0  0
   -0.1903   -0.5444   -0.5979 H   0  0  0  0  0  0  0  0  0  0  0  0
    0.8469    0.3460   -2.8503 H   0  0  0  0  0  0  0  0  0  0  0  0
    2.4894    0.8893   -2.4589 H   0  0  0  0  0  0  0  0  0  0  0  0
    2.9509   -0.6030   -4.4594 H   0  0  0  0  0  0  0  0  0  0  0  0
    3.4980   -2.9276   -3.3155 H   0  0  0  0  0  0  0  0  0  0  0  0
    2.0718   -3.0215   -0.9252 H   0  0  0  0  0  0  0  0  0  0  0  0
  1  2  1  0
  2  3  1  0
  3  4  1  0
  4  5  1  0
  5  6  1  0
  6  7  1  0
  7  8  1  0
  8  9  1  0
  8  3  1  0
  9  3  1  0
  7  5  1  0
  1 10  1  0
  1 11  1  0
  1 12  1  0
  2 13  1  0
  2 14  1  0
  4 15  1  0
  4 16  1  0
  5 17  1  0
  7 18  1  0
  8 19  1  0
M  END
$$$$
