gdb 2678	2.124288	1.3125162	0.8914527	0.7828	78.58	-0.25035	-0.03191	0.21844000000000002	1316.5078	0.153633	-422.581548	-422.571564	-422.57062	-422.617011	34.813
 OpenBabel02181911413D

 19 19  0  0  1  0  0  0  0  0999 V2000
   -1.1427    2.3787    1.1085 C   0  0  0  0  0  0  0  0  0  0  0  0
   -1.0241    1.1596    0.2078 C   0  0  2  0  0  0  0  0  0  0  0  0
   -2.1218    0.0332    0.2395 C   0  0  1  0  0  0  0  0  0  0  0  0
   -3.1030    0.0431   -0.8951 C   0  0  0  0  0  0  0  0  0  0  0  0
   -4.3013    0.0237   -0.7868 O   0  0  0  0  0  0  0  0  0  0  0  0
   -0.9924   -1.0590    0.1611 C   0  0  2  0  0  0  0  0  0  0  0  0
   -1.0756   -2.3179    1.0095 C   0  0  0  0  0  0  0  0  0  0  0  0
   -0.0183    0.0562    0.5716 C   0  0  0  0  0  0  0  0  0  0  0  0
    1.0320    0.0592    1.1447 O   0  0  0  0  0  0  0  0  0  0  0  0
   -1.3110    2.0832    2.1484 H   0  0  0  0  0  0  0  0  0  0  0  0
   -0.2205    2.9659    1.0738 H   0  0  0  0  0  0  0  0  0  0  0  0
   -1.9706    3.0228    0.7976 H   0  0  0  0  0  0  0  0  0  0  0  0
   -0.8518    1.4598   -0.8360 H   0  0  0  0  0  0  0  0  0  0  0  0
   -2.6514    0.0055    1.1947 H   0  0  0  0  0  0  0  0  0  0  0  0
   -2.6153    0.0711   -1.9015 H   0  0  0  0  0  0  0  0  0  0  0  0
   -0.8123   -1.3100   -0.8944 H   0  0  0  0  0  0  0  0  0  0  0  0
   -1.8850   -2.9717    0.6713 H   0  0  0  0  0  0  0  0  0  0  0  0
   -0.1371   -2.8765    0.9507 H   0  0  0  0  0  0  0  0  0  0  0  0
   -1.2518   -2.0714    2.0609 H   0  0  0  0  0  0  0  0  0  0  0  0
  1 10  1  0  0  0  0
  2 13  1  6  0  0  0
  2  3  1  0  0  0  0
  2  8  1  0  0  0  0
  2  1  1  0  0  0  0
  3 14  1  1  0  0  0
  4  5  2  0  0  0  0
  4  3  1  0  0  0  0
  6 16  1  6  0  0  0
  6  3  1  0  0  0  0
  6  8  1  0  0  0  0
  6  7  1  0  0  0  0
  7 19  1  0  0  0  0
  8  9  2  0  0  0  0
 11  1  1  0  0  0  0
 12  1  1  0  0  0  0
 15  4  1  0  0  0  0
 17  7  1  0  0  0  0
 18  7  1  0  0  0  0
M TOR 0 0 1 2 3
M TOR 1 0 1 2 5
M TOR 2 0 1 2 13
M TOR 3 0 1 7 5
M TOR 4 0 1 7 8
M TOR 5 1 2 3 4
M TOR 6 1 2 3 14
M TOR 7 1 2 5 6
M TOR 8 1 2 5 7
M TOR 9 1 2 5 15
M TOR 10 1 7 5 6
M TOR 11 1 7 5 15
M TOR 12 2 1 0 9
M TOR 13 2 1 0 10
M TOR 14 2 1 0 11
M TOR 15 2 1 7 8
M TOR 16 2 5 6 16
M TOR 17 2 5 6 17
M TOR 18 2 5 6 18
M TOR 19 2 5 7 8
M TOR 20 3 2 1 7
M TOR 21 3 2 1 12
M TOR 22 3 2 5 6
M TOR 23 3 2 5 7
M TOR 24 3 2 5 15
M TOR 25 4 3 2 5
M TOR 26 4 3 2 13
M TOR 27 5 2 1 12
M TOR 28 5 2 3 14
M TOR 29 5 7 1 12
M TOR 30 6 5 2 13
M TOR 31 6 5 7 8
M TOR 32 7 1 0 9
M TOR 33 7 1 0 10
M TOR 34 7 1 0 11
M TOR 35 7 1 2 13
M TOR 36 7 5 2 13
M TOR 37 7 5 6 16
M TOR 38 7 5 6 17
M TOR 39 7 5 6 18
M TOR 40 8 7 1 12
M TOR 41 8 7 5 15
M  END
$$$$
