gdb 448	4.2754091	0.9588178	0.8942874	2.2092	76.17	-0.25333	0.0895	0.34282999999999997	1336.4256	0.158048	-422.519906	-422.512007	-422.511063	-422.552887	29.698
 OpenBabel02181911403D

 19 21  0  0  1  0  0  0  0  0999 V2000
   -2.3203   -1.1155    0.0957 C   0  0  0  0  0  0  0  0  0  0  0  0
   -2.2564   -0.0933    1.0918 O   0  0  0  0  0  0  0  0  0  0  0  0
   -1.3853    0.0085   -0.0405 C   0  0  1  0  0  0  0  0  0  0  0  0
    0.0750   -0.1318    0.2175 C   0  0  2  0  0  0  0  0  0  0  0  0
    0.9242    1.1146    0.3162 C   0  0  1  0  0  0  0  0  0  0  0  0
    2.2344    0.9627    1.0677 C   0  0  0  0  0  0  0  0  0  0  0  0
    2.8167   -0.2448    0.5803 O   0  0  0  0  0  0  0  0  0  0  0  0
    2.4246   -0.4166   -0.7789 C   0  0  0  0  0  0  0  0  0  0  0  0
    1.0474    0.2130   -0.8880 C   0  0  1  0  0  0  0  0  0  0  0  0
   -1.9424   -2.0904    0.4021 H   0  0  0  0  0  0  0  0  0  0  0  0
   -3.2345   -1.1392   -0.4965 H   0  0  0  0  0  0  0  0  0  0  0  0
   -1.6574    0.8089   -0.7325 H   0  0  0  0  0  0  0  0  0  0  0  0
    0.3433   -0.9585    0.8707 H   0  0  0  0  0  0  0  0  0  0  0  0
    0.4544    2.0898    0.2593 H   0  0  0  0  0  0  0  0  0  0  0  0
    2.8856    1.8296    0.8692 H   0  0  0  0  0  0  0  0  0  0  0  0
    2.1249    0.8529    2.1515 H   0  0  0  0  0  0  0  0  0  0  0  0
    3.1231    0.0895   -1.4654 H   0  0  0  0  0  0  0  0  0  0  0  0
    2.4525   -1.4910   -0.9889 H   0  0  0  0  0  0  0  0  0  0  0  0
    0.6744    0.5035   -1.8636 H   0  0  0  0  0  0  0  0  0  0  0  0
  1 10  1  0  0  0  0
  1  2  1  0  0  0  0
  3 12  1  6  0  0  0
  3  1  1  0  0  0  0
  3  4  1  0  0  0  0
  3  2  1  0  0  0  0
  4  5  1  0  0  0  0
  4 13  1  1  0  0  0
  5 14  1  6  0  0  0
  5  6  1  0  0  0  0
  6 16  1  0  0  0  0
  7  6  1  0  0  0  0
  8  7  1  0  0  0  0
  9 19  1  6  0  0  0
  9  8  1  0  0  0  0
  9  4  1  0  0  0  0
  9  5  1  0  0  0  0
 11  1  1  0  0  0  0
 15  6  1  0  0  0  0
 17  8  1  0  0  0  0
 18  8  1  0  0  0  0
M TOR 0 0 1 2 3
M TOR 1 0 1 2 11
M TOR 2 0 2 3 4
M TOR 3 0 2 3 8
M TOR 4 0 2 3 12
M TOR 5 1 2 0 9
M TOR 6 1 2 0 10
M TOR 7 1 2 3 4
M TOR 8 1 2 3 8
M TOR 9 1 2 3 12
M TOR 10 2 3 4 5
M TOR 11 2 3 4 8
M TOR 12 2 3 4 13
M TOR 13 2 3 8 7
M TOR 14 2 3 8 18
M TOR 15 3 2 0 9
M TOR 16 3 2 0 10
M TOR 17 3 4 5 6
M TOR 18 3 4 5 14
M TOR 19 3 4 5 15
M TOR 20 3 4 8 7
M TOR 21 3 4 8 18
M TOR 22 3 8 4 5
M TOR 23 3 8 4 13
M TOR 24 3 8 7 6
M TOR 25 3 8 7 16
M TOR 26 3 8 7 17
M TOR 27 4 3 2 11
M TOR 28 4 5 6 7
M TOR 29 4 8 3 12
M TOR 30 4 8 7 6
M TOR 31 4 8 7 16
M TOR 32 4 8 7 17
M TOR 33 5 4 3 12
M TOR 34 5 4 8 7
M TOR 35 5 4 8 18
M TOR 36 5 6 7 8
M TOR 37 5 6 7 16
M TOR 38 5 6 7 17
M TOR 39 6 5 4 8
M TOR 40 6 5 4 13
M TOR 41 6 7 8 18
M TOR 42 7 6 5 14
M TOR 43 7 6 5 15
M TOR 44 7 8 3 12
M TOR 45 7 8 4 13
M TOR 46 8 3 2 11
M TOR 47 8 4 5 14
M TOR 48 8 4 5 15
M  END
$$$$
