gdb 2571	4.4025315	0.9222697	0.8452128	2.34	78.72	-0.23754	0.01209	0.24963	1399.3523	0.156479	-422.604329	-422.595352	-422.594408	-422.638943	32.319
 OpenBabel02181911413D

 19 19  0  0  1  0  0  0  0  0999 V2000
   -3.9631    3.5818    2.1783 C   0  0  0  0  0  0  0  0  0  0  0  0
   -3.0202    2.9159    1.2279 C   0  0  0  0  0  0  0  0  0  0  0  0
   -3.3042    2.3735    0.0421 C   0  0  0  0  0  0  0  0  0  0  0  0
   -2.0866    1.8232   -0.6563 C   0  0  0  0  0  0  0  0  0  0  0  0
   -0.9990    1.8616    0.4429 C   0  0  1  0  0  0  0  0  0  0  0  0
   -1.5373    2.8160    1.5240 C   0  0  0  0  0  0  0  0  0  0  0  0
   -0.8737    0.5558    1.0710 O   0  0  0  0  0  0  0  0  0  0  0  0
   -0.0689   -0.3233    0.4641 C   0  0  0  0  0  0  0  0  0  0  0  0
    0.5481   -0.1466   -0.5517 O   0  0  0  0  0  0  0  0  0  0  0  0
   -3.9646    3.0774    3.1531 H   0  0  0  0  0  0  0  0  0  0  0  0
   -3.6673    4.6217    2.3684 H   0  0  0  0  0  0  0  0  0  0  0  0
   -4.9871    3.5854    1.7955 H   0  0  0  0  0  0  0  0  0  0  0  0
   -4.2932    2.3463   -0.4026 H   0  0  0  0  0  0  0  0  0  0  0  0
   -2.2180    0.8088   -1.0459 H   0  0  0  0  0  0  0  0  0  0  0  0
   -1.7922    2.4450   -1.5126 H   0  0  0  0  0  0  0  0  0  0  0  0
   -0.0176    2.1337    0.0552 H   0  0  0  0  0  0  0  0  0  0  0  0
   -1.3186    2.4286    2.5253 H   0  0  0  0  0  0  0  0  0  0  0  0
   -1.0550    3.8008    1.4555 H   0  0  0  0  0  0  0  0  0  0  0  0
   -0.0555   -1.2531    1.0550 H   0  0  0  0  0  0  0  0  0  0  0  0
  1 11  1  0  0  0  0
  1 10  1  0  0  0  0
  2  6  1  0  0  0  0
  2  1  1  0  0  0  0
  3  2  2  0  0  0  0
  4  3  1  0  0  0  0
  4  5  1  0  0  0  0
  5 16  1  6  0  0  0
  5  7  1  0  0  0  0
  5  6  1  0  0  0  0
  6 17  1  0  0  0  0
  8 19  1  0  0  0  0
  8  7  1  0  0  0  0
  9  8  2  0  0  0  0
 12  1  1  0  0  0  0
 13  3  1  0  0  0  0
 14  4  1  0  0  0  0
 15  4  1  0  0  0  0
 18  6  1  0  0  0  0
M TOR 0 0 1 2 3
M TOR 1 0 1 2 12
M TOR 2 0 1 5 4
M TOR 3 0 1 5 16
M TOR 4 0 1 5 17
M TOR 5 1 2 3 4
M TOR 6 1 2 3 13
M TOR 7 1 2 3 14
M TOR 8 1 5 4 3
M TOR 9 1 5 4 6
M TOR 10 1 5 4 15
M TOR 11 2 1 0 9
M TOR 12 2 1 0 10
M TOR 13 2 1 0 11
M TOR 14 2 1 5 4
M TOR 15 2 1 5 16
M TOR 16 2 1 5 17
M TOR 17 2 3 4 5
M TOR 18 2 3 4 6
M TOR 19 2 3 4 15
M TOR 20 3 2 1 5
M TOR 21 3 4 5 16
M TOR 22 3 4 5 17
M TOR 23 3 4 6 7
M TOR 24 4 3 2 12
M TOR 25 4 6 7 8
M TOR 26 4 6 7 18
M TOR 27 5 1 0 9
M TOR 28 5 1 0 10
M TOR 29 5 1 0 11
M TOR 30 5 1 2 12
M TOR 31 5 4 3 13
M TOR 32 5 4 3 14
M TOR 33 5 4 6 7
M TOR 34 6 4 3 13
M TOR 35 6 4 3 14
M TOR 36 6 4 5 16
M TOR 37 6 4 5 17
M TOR 38 7 6 4 15
M  END
$$$$
