
     RDKit          3D

 19 20  0  0  0  0  0  0  0  0999 V2000
    1.0823    0.9812    1.0561 C   0  0  0  0  0  0  0  0  0  0  0  0
   -0.1472    0.3726    0.4639 C   0  0  0  0  0  0  0  0  0  0  0  0
   -1.1551    0.9588   -0.1770 C   0  0  0  0  0  0  0  0  0  0  0  0
   -2.1925   -0.0524   -0.5659 C   0  0  0  0  0  0  0  0  0  0  0  0
   -1.6731   -1.3059   -0.1187 O   0  0  0  0  0  0  0  0  0  0  0  0
   -0.4252   -1.1141    0.5442 C   0  0  0  0  0  0  0  0  0  0  0  0
    0.6313   -1.9665   -0.1348 C   0  0  0  0  0  0  0  0  0  0  0  0
    0.9715   -3.3037    0.3586 C   0  0  0  0  0  0  0  0  0  0  0  0
    1.8281   -2.1865    0.6161 O   0  0  0  0  0  0  0  0  0  0  0  0
    1.1255    0.8014    2.1374 H   0  0  0  0  0  0  0  0  0  0  0  0
    1.9897    0.5341    0.6361 H   0  0  0  0  0  0  0  0  0  0  0  0
    1.1134    2.0605    0.8870 H   0  0  0  0  0  0  0  0  0  0  0  0
   -1.2514    2.0169   -0.3889 H   0  0  0  0  0  0  0  0  0  0  0  0
   -3.1668    0.1388   -0.0881 H   0  0  0  0  0  0  0  0  0  0  0  0
   -2.3691   -0.0934   -1.6518 H   0  0  0  0  0  0  0  0  0  0  0  0
   -0.4987   -1.4470    1.5940 H   0  0  0  0  0  0  0  0  0  0  0  0
    0.7870   -1.7422   -1.1911 H   0  0  0  0  0  0  0  0  0  0  0  0
    0.4489   -3.7007    1.2277 H   0  0  0  0  0  0  0  0  0  0  0  0
    1.3706   -4.0481   -0.3280 H   0  0  0  0  0  0  0  0  0  0  0  0
  1  2  1  0
  2  3  2  0
  3  4  1  0
  4  5  1  0
  5  6  1  0
  6  7  1  0
  7  8  1  0
  8  9  1  0
  6  2  1  0
  9  7  1  0
  1 10  1  0
  1 11  1  0
  1 12  1  0
  3 13  1  0
  4 14  1  0
  4 15  1  0
  6 16  1  0
  7 17  1  0
  8 18  1  0
  8 19  1  0
M  END
$$$$
