gdb 2165	2.1276383	1.995347	1.7175268	2.4962	74.86	-0.23039	0.07486	0.30525	942.7348	0.157134	-422.532026	-422.524132	-422.523188	-422.563717	31.486
 OpenBabel02181911403D

 19 21  0  0  1  0  0  0  0  0999 V2000
   -0.1648    0.2733    0.0220 C   0  0  0  0  0  0  0  0  0  0  0  0
    1.3244    0.0648    0.0037 C   0  0  2  0  0  0  0  0  0  0  0  0
    1.9985    1.3162    0.0803 O   0  0  0  0  0  0  0  0  0  0  0  0
    3.3841    0.9499    0.0795 C   0  0  0  0  0  0  0  0  0  0  0  0
    3.2775   -0.5609   -0.0339 C   0  0  2  0  0  0  0  0  0  0  0  0
    2.0842   -0.8731   -0.9950 C   0  0  1  0  0  0  0  0  0  0  0  0
    1.7122   -2.1009   -0.1302 C   0  0  0  0  0  0  0  0  0  0  0  0
    2.0687   -0.9848    0.8815 C   0  0  2  0  0  0  0  0  0  0  0  0
    2.0086   -0.9933    2.2606 O   0  0  0  0  0  0  0  0  0  0  0  0
   -0.4608    0.7619    0.9548 H   0  0  0  0  0  0  0  0  0  0  0  0
   -0.4661    0.9176   -0.8090 H   0  0  0  0  0  0  0  0  0  0  0  0
   -0.7043   -0.6732   -0.0581 H   0  0  0  0  0  0  0  0  0  0  0  0
    3.8994    1.4228   -0.7658 H   0  0  0  0  0  0  0  0  0  0  0  0
    3.8621    1.2750    1.0126 H   0  0  0  0  0  0  0  0  0  0  0  0
    4.1802   -1.1717   -0.0714 H   0  0  0  0  0  0  0  0  0  0  0  0
    2.0959   -0.8018   -2.0802 H   0  0  0  0  0  0  0  0  0  0  0  0
    0.6753   -2.4433   -0.1593 H   0  0  0  0  0  0  0  0  0  0  0  0
    2.4051   -2.9453   -0.1811 H   0  0  0  0  0  0  0  0  0  0  0  0
    2.5880   -1.6873    2.5935 H   0  0  0  0  0  0  0  0  0  0  0  0
  1 10  1  0  0  0  0
  2  1  1  6  0  0  0
  2  3  1  0  0  0  0
  2  8  1  0  0  0  0
  4  3  1  0  0  0  0
  4 14  1  0  0  0  0
  5 15  1  6  0  0  0
  5  4  1  0  0  0  0
  5  8  1  0  0  0  0
  6 16  1  6  0  0  0
  6  7  1  0  0  0  0
  6  5  1  0  0  0  0
  6  2  1  0  0  0  0
  7  8  1  0  0  0  0
  8  9  1  1  0  0  0
  9 19  1  0  0  0  0
 11  1  1  0  0  0  0
 12  1  1  0  0  0  0
 13  4  1  0  0  0  0
 17  7  1  0  0  0  0
 18  7  1  0  0  0  0
M TOR 0 0 1 2 3
M TOR 1 0 1 5 4
M TOR 2 0 1 5 6
M TOR 3 0 1 5 15
M TOR 4 0 1 7 4
M TOR 5 0 1 7 6
M TOR 6 0 1 7 8
M TOR 7 1 2 3 4
M TOR 8 1 2 3 12
M TOR 9 1 2 3 13
M TOR 10 1 5 4 3
M TOR 11 1 5 4 7
M TOR 12 1 5 4 14
M TOR 13 1 5 6 7
M TOR 14 1 5 6 16
M TOR 15 1 5 6 17
M TOR 16 1 7 4 3
M TOR 17 1 7 4 14
M TOR 18 1 7 6 16
M TOR 19 1 7 6 17
M TOR 20 1 7 8 18
M TOR 21 2 1 0 9
M TOR 22 2 1 0 10
M TOR 23 2 1 0 11
M TOR 24 2 1 5 4
M TOR 25 2 1 5 6
M TOR 26 2 1 5 15
M TOR 27 2 1 7 4
M TOR 28 2 1 7 6
M TOR 29 2 1 7 8
M TOR 30 2 3 4 5
M TOR 31 2 3 4 7
M TOR 32 2 3 4 14
M TOR 33 3 2 1 5
M TOR 34 3 2 1 7
M TOR 35 3 4 5 6
M TOR 36 3 4 5 15
M TOR 37 3 4 7 6
M TOR 38 3 4 7 8
M TOR 39 4 5 6 7
M TOR 40 4 5 6 16
M TOR 41 4 5 6 17
M TOR 42 4 7 6 16
M TOR 43 4 7 6 17
M TOR 44 4 7 8 18
M TOR 45 5 1 0 9
M TOR 46 5 1 0 10
M TOR 47 5 1 0 11
M TOR 48 5 1 7 8
M TOR 49 5 4 3 12
M TOR 50 5 4 3 13
M TOR 51 5 4 7 8
M TOR 52 5 6 7 8
M TOR 53 6 5 4 14
M TOR 54 6 7 4 14
M TOR 55 6 7 8 18
M TOR 56 7 1 0 9
M TOR 57 7 1 0 10
M TOR 58 7 1 0 11
M TOR 59 7 1 5 15
M TOR 60 7 4 3 12
M TOR 61 7 4 3 13
M TOR 62 7 4 5 15
M TOR 63 7 6 5 15
M TOR 64 8 7 4 14
M TOR 65 8 7 6 16
M TOR 66 8 7 6 17
M  END
$$$$
