
     RDKit          3D

 19 20  0  0  0  0  0  0  0  0999 V2000
    2.4324   -0.8152    1.1592 C   0  0  0  0  0  0  0  0  0  0  0  0
    1.7456   -0.2028   -0.0486 C   0  0  0  0  0  0  0  0  0  0  0  0
    2.2451    1.1149   -0.2280 O   0  0  0  0  0  0  0  0  0  0  0  0
    1.6478    1.8091   -1.2796 C   0  0  0  0  0  0  0  0  0  0  0  0
    2.0967    1.5189   -2.7269 C   0  0  0  0  0  0  0  0  0  0  0  0
    3.5525    1.7862   -2.8470 C   0  0  0  0  0  0  0  0  0  0  0  0
    2.6030    2.9805   -2.8851 C   0  0  0  0  0  0  0  0  0  0  0  0
    2.1429    3.2761   -1.4930 C   0  0  0  0  0  0  0  0  0  0  0  0
    2.0197    4.2740   -0.8436 O   0  0  0  0  0  0  0  0  0  0  0  0
    2.0683   -1.8329    1.3285 H   0  0  0  0  0  0  0  0  0  0  0  0
    3.5146   -0.8546    1.0062 H   0  0  0  0  0  0  0  0  0  0  0  0
    2.2346   -0.2197    2.0547 H   0  0  0  0  0  0  0  0  0  0  0  0
    1.9337   -0.8071   -0.9502 H   0  0  0  0  0  0  0  0  0  0  0  0
    0.6535   -0.1680    0.0984 H   0  0  0  0  0  0  0  0  0  0  0  0
    0.5491    1.8130   -1.1878 H   0  0  0  0  0  0  0  0  0  0  0  0
    1.5310    0.9621   -3.4621 H   0  0  0  0  0  0  0  0  0  0  0  0
    4.1981    1.6359   -1.9882 H   0  0  0  0  0  0  0  0  0  0  0  0
    4.0118    1.5619   -3.8037 H   0  0  0  0  0  0  0  0  0  0  0  0
    2.5627    3.6429   -3.7403 H   0  0  0  0  0  0  0  0  0  0  0  0
  1  2  1  0
  2  3  1  0
  3  4  1  0
  4  5  1  0
  5  6  1  0
  6  7  1  0
  7  8  1  0
  8  9  2  0
  8  4  1  0
  7  5  1  0
  1 10  1  0
  1 11  1  0
  1 12  1  0
  2 13  1  0
  2 14  1  0
  4 15  1  0
  5 16  1  0
  6 17  1  0
  6 18  1  0
  7 19  1  0
M  END
$$$$
