
     RDKit          3D

 19 21  0  0  0  0  0  0  0  0999 V2000
    1.4954    0.9348   -0.8645 C   0  0  0  0  0  0  0  0  0  0  0  0
    0.8442    1.4860    0.4346 C   0  0  0  0  0  0  0  0  0  0  0  0
    1.7263    1.4182    1.5401 O   0  0  0  0  0  0  0  0  0  0  0  0
    2.5727    0.2719    1.4925 C   0  0  0  0  0  0  0  0  0  0  0  0
    1.8396   -0.9409    0.8981 C   0  0  0  0  0  0  0  0  0  0  0  0
    0.6898   -1.3853    1.8191 C   0  0  0  0  0  0  0  0  0  0  0  0
   -0.3696   -0.4507    1.5954 O   0  0  0  0  0  0  0  0  0  0  0  0
   -0.0972    0.2183    0.3910 C   0  0  0  0  0  0  0  0  0  0  0  0
    1.0605   -0.4685   -0.3675 C   0  0  0  0  0  0  0  0  0  0  0  0
    0.9269    1.2315   -1.7496 H   0  0  0  0  0  0  0  0  0  0  0  0
    2.5527    1.1447   -1.0365 H   0  0  0  0  0  0  0  0  0  0  0  0
    0.4012    2.4828    0.4438 H   0  0  0  0  0  0  0  0  0  0  0  0
    3.4717    0.4883    0.8975 H   0  0  0  0  0  0  0  0  0  0  0  0
    2.8965    0.0825    2.5206 H   0  0  0  0  0  0  0  0  0  0  0  0
    2.5493   -1.7493    0.7006 H   0  0  0  0  0  0  0  0  0  0  0  0
    0.3480   -2.4012    1.5711 H   0  0  0  0  0  0  0  0  0  0  0  0
    0.9617   -1.3635    2.8796 H   0  0  0  0  0  0  0  0  0  0  0  0
   -1.0217    0.3925   -0.1651 H   0  0  0  0  0  0  0  0  0  0  0  0
    0.8631   -1.2687   -1.0832 H   0  0  0  0  0  0  0  0  0  0  0  0
  1  2  1  0
  2  3  1  0
  3  4  1  0
  4  5  1  0
  5  6  1  0
  6  7  1  0
  7  8  1  0
  8  9  1  0
  9  1  1  0
  8  2  1  0
  9  5  1  0
  1 10  1  0
  1 11  1  0
  2 12  1  0
  4 13  1  0
  4 14  1  0
  5 15  1  0
  6 16  1  0
  6 17  1  0
  8 18  1  0
  9 19  1  0
M  END
$$$$
