
     RDKit          3D

 19 20  0  0  0  0  0  0  0  0999 V2000
   -2.1254    0.4208   -0.6073 C   0  0  0  0  0  0  0  0  0  0  0  0
   -1.4866   -0.8644   -1.1101 C   0  0  0  0  0  0  0  0  0  0  0  0
   -2.0479   -1.9342   -1.0050 O   0  0  0  0  0  0  0  0  0  0  0  0
   -0.1273   -0.7055   -1.7110 C   0  0  0  0  0  0  0  0  0  0  0  0
    1.1261   -1.3864   -1.1509 C   0  0  0  0  0  0  0  0  0  0  0  0
    0.8545   -2.6617   -0.6094 O   0  0  0  0  0  0  0  0  0  0  0  0
    0.4376   -3.1355   -1.9246 C   0  0  0  0  0  0  0  0  0  0  0  0
    0.6435   -1.7387   -2.5291 C   0  0  0  0  0  0  0  0  0  0  0  0
    1.1743   -1.4569   -3.9041 C   0  0  0  0  0  0  0  0  0  0  0  0
   -1.4645    0.9241    0.1073 H   0  0  0  0  0  0  0  0  0  0  0  0
   -2.2845    1.1164   -1.4398 H   0  0  0  0  0  0  0  0  0  0  0  0
   -3.0810    0.1954   -0.1329 H   0  0  0  0  0  0  0  0  0  0  0  0
    0.1059    0.3105   -2.0243 H   0  0  0  0  0  0  0  0  0  0  0  0
    1.9730   -0.8295   -0.7637 H   0  0  0  0  0  0  0  0  0  0  0  0
    1.1693   -3.8560   -2.3076 H   0  0  0  0  0  0  0  0  0  0  0  0
   -0.5683   -3.5520   -1.9142 H   0  0  0  0  0  0  0  0  0  0  0  0
    0.4076   -1.6321   -4.6678 H   0  0  0  0  0  0  0  0  0  0  0  0
    1.5004   -0.4163   -3.9979 H   0  0  0  0  0  0  0  0  0  0  0  0
    2.0313   -2.0990   -4.1356 H   0  0  0  0  0  0  0  0  0  0  0  0
  1  2  1  0
  2  3  2  0
  2  4  1  0
  4  5  1  0
  5  6  1  0
  6  7  1  0
  7  8  1  0
  8  9  1  0
  8  4  1  0
  8  5  1  0
  1 10  1  0
  1 11  1  0
  1 12  1  0
  4 13  1  0
  5 14  1  0
  7 15  1  0
  7 16  1  0
  9 17  1  0
  9 18  1  0
  9 19  1  0
M  END
$$$$
