gdb 5351	3.5788513	1.0703702	1.0176949	0.7611	77.58	-0.2268	0.00694	0.23374	1236.4168	0.157498	-422.52884	-422.520433	-422.519489	-422.561886	32.352
 OpenBabel02181911423D

 19 20  0  0  1  0  0  0  0  0999 V2000
    1.7630    0.5313    1.1764 O   0  0  0  0  0  0  0  0  0  0  0  0
    0.7795    0.1966    0.1983 C   0  0  0  0  0  0  0  0  0  0  0  0
   -0.5752    0.7039    0.5537 C   0  0  0  0  0  0  0  0  0  0  0  0
   -1.7528    0.0697    0.6661 C   0  0  0  0  0  0  0  0  0  0  0  0
   -2.7358    1.1878    1.0046 C   0  0  1  0  0  0  0  0  0  0  0  0
   -1.9103    2.0012    2.0576 C   0  0  0  0  0  0  0  0  0  0  0  0
   -0.9379    2.1620    0.8435 C   0  0  2  0  0  0  0  0  0  0  0  0
   -2.2539    2.2558   -0.0401 C   0  0  2  0  0  0  0  0  0  0  0  0
   -2.9910    3.4483    0.0371 O   0  0  0  0  0  0  0  0  0  0  0  0
    1.4458    0.1949    2.0213 H   0  0  0  0  0  0  0  0  0  0  0  0
    1.1386    0.6610   -0.7287 H   0  0  0  0  0  0  0  0  0  0  0  0
    0.7367   -0.8896    0.0223 H   0  0  0  0  0  0  0  0  0  0  0  0
   -1.9877   -0.9742    0.5074 H   0  0  0  0  0  0  0  0  0  0  0  0
   -3.7919    0.9540    1.1326 H   0  0  0  0  0  0  0  0  0  0  0  0
   -2.3928    2.9363    2.3456 H   0  0  0  0  0  0  0  0  0  0  0  0
   -1.5366    1.4565    2.9280 H   0  0  0  0  0  0  0  0  0  0  0  0
   -0.1496    2.9139    0.8095 H   0  0  0  0  0  0  0  0  0  0  0  0
   -2.1547    1.9019   -1.0750 H   0  0  0  0  0  0  0  0  0  0  0  0
   -2.5917    4.0887   -0.5600 H   0  0  0  0  0  0  0  0  0  0  0  0
  1 10  1  0  0  0  0
  2  3  1  0  0  0  0
  2  1  1  0  0  0  0
  3  4  2  0  0  0  0
  3  7  1  0  0  0  0
  4  5  1  0  0  0  0
  5 14  1  1  0  0  0
  5  6  1  0  0  0  0
  6 15  1  0  0  0  0
  6 16  1  0  0  0  0
  7 17  1  6  0  0  0
  7  6  1  0  0  0  0
  8 18  1  6  0  0  0
  8  9  1  0  0  0  0
  8  7  1  0  0  0  0
  8  5  1  0  0  0  0
 11  2  1  0  0  0  0
 12  2  1  0  0  0  0
 13  4  1  0  0  0  0
 19  9  1  0  0  0  0
M TOR 0 0 1 2 3
M TOR 1 0 1 2 6
M TOR 2 1 2 3 4
M TOR 3 1 2 3 12
M TOR 4 1 2 6 5
M TOR 5 1 2 6 7
M TOR 6 1 2 6 16
M TOR 7 2 1 0 9
M TOR 8 2 3 4 5
M TOR 9 2 3 4 7
M TOR 10 2 3 4 13
M TOR 11 2 6 5 4
M TOR 12 2 6 5 14
M TOR 13 2 6 5 15
M TOR 14 2 6 7 4
M TOR 15 2 6 7 8
M TOR 16 2 6 7 17
M TOR 17 3 2 1 10
M TOR 18 3 2 1 11
M TOR 19 3 2 6 5
M TOR 20 3 2 6 7
M TOR 21 3 2 6 16
M TOR 22 3 4 5 6
M TOR 23 3 4 5 14
M TOR 24 3 4 5 15
M TOR 25 3 4 7 6
M TOR 26 3 4 7 8
M TOR 27 3 4 7 17
M TOR 28 4 3 2 6
M TOR 29 4 5 6 7
M TOR 30 4 5 6 16
M TOR 31 4 7 6 16
M TOR 32 4 7 8 18
M TOR 33 5 4 3 12
M TOR 34 5 4 7 8
M TOR 35 5 4 7 17
M TOR 36 5 6 7 8
M TOR 37 5 6 7 17
M TOR 38 6 2 1 10
M TOR 39 6 2 1 11
M TOR 40 6 2 3 12
M TOR 41 6 5 4 13
M TOR 42 6 7 4 13
M TOR 43 6 7 8 18
M TOR 44 7 4 3 12
M TOR 45 7 4 5 14
M TOR 46 7 4 5 15
M TOR 47 7 6 5 14
M TOR 48 7 6 5 15
M TOR 49 8 7 4 13
M TOR 50 8 7 6 16
M  END
$$$$
