gdb 4468	2.7703329	1.6670955	1.2679574	1.7838	76.7	-0.23858	0.00434	0.24292	1035.9338	0.158058	-422.554575	-422.546574	-422.545629	-422.587144	30.253
 OpenBabel02181911413D

 19 20  0  0  1  0  0  0  0  0999 V2000
   -0.3289    1.4710    0.2711 C   0  0  0  0  0  0  0  0  0  0  0  0
    0.1170    0.0425   -0.0137 C   0  0  2  0  0  0  0  0  0  0  0  0
   -1.0014   -0.8506   -0.2184 O   0  0  0  0  0  0  0  0  0  0  0  0
   -1.3676   -1.5167    1.0051 C   0  0  0  0  0  0  0  0  0  0  0  0
   -0.2935   -1.1327    1.9652 C   0  0  2  0  0  3  0  0  0  0  0  0
   -0.1250   -0.8218    3.2428 C   0  0  0  0  0  3  0  0  0  0  0  0
    1.1952   -0.0958    3.3876 C   0  0  0  0  0  0  0  0  0  0  0  0
    1.6147    0.1917    2.0454 O   0  0  0  0  0  0  0  0  0  0  0  0
    0.8693   -0.6236    1.1606 C   0  0  2  0  0  0  0  0  0  0  0  0
    0.5406    2.1299    0.3515 H   0  0  0  0  0  0  0  0  0  0  0  0
   -0.9708    1.8271   -0.5390 H   0  0  0  0  0  0  0  0  0  0  0  0
   -0.8870    1.5329    1.2101 H   0  0  0  0  0  0  0  0  0  0  0  0
    0.6916    0.0080   -0.9444 H   0  0  0  0  0  0  0  0  0  0  0  0
   -2.3639   -1.1970    1.3362 H   0  0  0  0  0  0  0  0  0  0  0  0
   -1.4091   -2.5961    0.8065 H   0  0  0  0  0  0  0  0  0  0  0  0
   -0.8080   -0.9805    4.0677 H   0  0  0  0  0  0  0  0  0  0  0  0
    1.0936    0.8487    3.9384 H   0  0  0  0  0  0  0  0  0  0  0  0
    1.9624   -0.6962    3.9043 H   0  0  0  0  0  0  0  0  0  0  0  0
    1.5000   -1.4385    0.7678 H   0  0  0  0  0  0  0  0  0  0  0  0
  1 10  1  0  0  0  0
  1 12  1  0  0  0  0
  2 13  1  6  0  0  0
  2  1  1  0  0  0  0
  2  9  1  0  0  0  0
  3  2  1  0  0  0  0
  3  4  1  0  0  0  0
  4 14  1  0  0  0  0
  4  5  1  0  0  0  0
  5  6  1  1  0  0  0
  6  7  1  0  0  0  0
  6 16  1  0  0  0  0
  7 18  1  0  0  0  0
  7 17  1  0  0  0  0
  8  7  1  0  0  0  0
  9 19  1  6  0  0  0
  9  5  1  0  0  0  0
  9  8  1  0  0  0  0
 11  1  1  0  0  0  0
 15  4  1  0  0  0  0
M TOR 0 0 1 2 3
M TOR 1 0 1 8 4
M TOR 2 0 1 8 7
M TOR 3 0 1 8 18
M TOR 4 1 2 3 4
M TOR 5 1 2 3 13
M TOR 6 1 2 3 14
M TOR 7 1 8 4 3
M TOR 8 1 8 4 5
M TOR 9 1 8 7 6
M TOR 10 2 1 0 9
M TOR 11 2 1 0 10
M TOR 12 2 1 0 11
M TOR 13 2 1 8 4
M TOR 14 2 1 8 7
M TOR 15 2 1 8 18
M TOR 16 2 3 4 5
M TOR 17 2 3 4 8
M TOR 18 3 2 1 8
M TOR 19 3 2 1 12
M TOR 20 3 4 5 6
M TOR 21 3 4 5 15
M TOR 22 3 4 8 7
M TOR 23 3 4 8 18
M TOR 24 4 5 6 7
M TOR 25 4 5 6 16
M TOR 26 4 5 6 17
M TOR 27 4 8 1 12
M TOR 28 4 8 7 6
M TOR 29 5 4 3 13
M TOR 30 5 4 3 14
M TOR 31 5 4 8 7
M TOR 32 5 4 8 18
M TOR 33 5 6 7 8
M TOR 34 6 5 4 8
M TOR 35 6 7 8 18
M TOR 36 7 6 5 15
M TOR 37 7 8 1 12
M TOR 38 8 1 0 9
M TOR 39 8 1 0 10
M TOR 40 8 1 0 11
M TOR 41 8 4 3 13
M TOR 42 8 4 3 14
M TOR 43 8 4 5 15
M TOR 44 8 7 6 16
M TOR 45 8 7 6 17
M  END
$$$$
