
     RDKit          3D

 19 21  0  0  0  0  0  0  0  0999 V2000
    0.2871    0.3389    0.2299 O   0  0  0  0  0  0  0  0  0  0  0  0
   -0.6084    0.9212    1.1457 C   0  0  0  0  0  0  0  0  0  0  0  0
   -1.4969   -0.0748    1.9684 C   0  0  0  0  0  0  0  0  0  0  0  0
   -2.7486    0.7021    1.5454 C   0  0  0  0  0  0  0  0  0  0  0  0
   -2.6169    2.2004    1.6724 C   0  0  0  0  0  0  0  0  0  0  0  0
   -1.9812    2.9456    2.6687 O   0  0  0  0  0  0  0  0  0  0  0  0
   -0.7042    2.4941    3.1028 C   0  0  0  0  0  0  0  0  0  0  0  0
    0.1702    1.9350    1.9760 C   0  0  0  0  0  0  0  0  0  0  0  0
   -1.8991    1.5356    0.5485 C   0  0  0  0  0  0  0  0  0  0  0  0
   -0.2164   -0.2325   -0.3605 H   0  0  0  0  0  0  0  0  0  0  0  0
   -1.4673   -1.0535    1.4793 H   0  0  0  0  0  0  0  0  0  0  0  0
   -1.3001   -0.2187    3.0350 H   0  0  0  0  0  0  0  0  0  0  0  0
   -3.7234    0.2512    1.3932 H   0  0  0  0  0  0  0  0  0  0  0  0
   -3.5238    2.7281    1.3920 H   0  0  0  0  0  0  0  0  0  0  0  0
   -0.2261    3.3622    3.5659 H   0  0  0  0  0  0  0  0  0  0  0  0
   -0.8292    1.7346    3.8875 H   0  0  0  0  0  0  0  0  0  0  0  0
    0.5139    2.7383    1.3149 H   0  0  0  0  0  0  0  0  0  0  0  0
    1.0561    1.4597    2.4114 H   0  0  0  0  0  0  0  0  0  0  0  0
   -2.0433    1.7714   -0.5004 H   0  0  0  0  0  0  0  0  0  0  0  0
  1  2  1  0
  2  3  1  0
  3  4  1  0
  4  5  1  0
  5  6  1  0
  6  7  1  0
  7  8  1  0
  5  9  1  0
  8  2  1  0
  9  2  1  0
  9  4  1  0
  1 10  1  0
  3 11  1  0
  3 12  1  0
  4 13  1  0
  5 14  1  0
  7 15  1  0
  7 16  1  0
  8 17  1  0
  8 18  1  0
  9 19  1  0
M  END
$$$$
