
     RDKit          3D

 19 21  0  0  0  0  0  0  0  0999 V2000
    1.4984   -0.1037   -0.0809 C   0  0  0  0  0  0  0  0  0  0  0  0
    0.0876   -0.0347    0.0140 O   0  0  0  0  0  0  0  0  0  0  0  0
   -0.3668    0.6363    1.1367 C   0  0  0  0  0  0  0  0  0  0  0  0
   -1.8950    0.6133    1.4554 C   0  0  0  0  0  0  0  0  0  0  0  0
   -1.3741    1.0686    2.8633 C   0  0  0  0  0  0  0  0  0  0  0  0
   -0.1516    0.1436    2.6021 C   0  0  0  0  0  0  0  0  0  0  0  0
   -0.8244    2.4655    2.4915 C   0  0  0  0  0  0  0  0  0  0  0  0
    0.6064    2.5845    2.4390 O   0  0  0  0  0  0  0  0  0  0  0  0
   -0.0998    2.1656    1.2593 C   0  0  0  0  0  0  0  0  0  0  0  0
    1.9351   -0.6490    0.7673 H   0  0  0  0  0  0  0  0  0  0  0  0
    1.7305   -0.6376   -1.0048 H   0  0  0  0  0  0  0  0  0  0  0  0
    1.9542    0.8960   -0.1209 H   0  0  0  0  0  0  0  0  0  0  0  0
   -2.5396    1.3010    0.9003 H   0  0  0  0  0  0  0  0  0  0  0  0
   -2.3109   -0.3968    1.4475 H   0  0  0  0  0  0  0  0  0  0  0  0
   -1.9819    0.9761    3.7608 H   0  0  0  0  0  0  0  0  0  0  0  0
    0.7835    0.3762    3.1069 H   0  0  0  0  0  0  0  0  0  0  0  0
   -0.4174   -0.9098    2.7031 H   0  0  0  0  0  0  0  0  0  0  0  0
   -1.3751    3.3792    2.6877 H   0  0  0  0  0  0  0  0  0  0  0  0
   -0.0306    2.8052    0.3854 H   0  0  0  0  0  0  0  0  0  0  0  0
  1  2  1  0
  2  3  1  0
  3  4  1  0
  4  5  1  0
  5  6  1  0
  5  7  1  0
  7  8  1  0
  8  9  1  0
  6  3  1  0
  9  7  1  0
  9  3  1  0
  1 10  1  0
  1 11  1  0
  1 12  1  0
  4 13  1  0
  4 14  1  0
  5 15  1  0
  6 16  1  0
  6 17  1  0
  7 18  1  0
  9 19  1  0
M  END
$$$$
