
     RDKit          3D

 19 21  0  0  0  0  0  0  0  0999 V2000
   -0.7135   -1.2141   -1.9107 O   0  0  0  0  0  0  0  0  0  0  0  0
   -0.9602   -0.5460   -0.7182 C   0  0  0  0  0  0  0  0  0  0  0  0
   -1.8335    0.7051   -0.8704 C   0  0  0  0  0  0  0  0  0  0  0  0
   -2.6488    0.3316    0.2660 O   0  0  0  0  0  0  0  0  0  0  0  0
   -1.9638   -0.9252    0.4322 C   0  0  0  0  0  0  0  0  0  0  0  0
   -0.8197   -0.8398    1.4727 C   0  0  0  0  0  0  0  0  0  0  0  0
    0.1497   -0.4433    0.3411 C   0  0  0  0  0  0  0  0  0  0  0  0
    1.5515   -0.9539    0.1488 C   0  0  0  0  0  0  0  0  0  0  0  0
    1.2984    0.5188    0.3732 C   0  0  0  0  0  0  0  0  0  0  0  0
   -0.1480   -1.9705   -1.7190 H   0  0  0  0  0  0  0  0  0  0  0  0
   -1.3451    1.6773   -0.7377 H   0  0  0  0  0  0  0  0  0  0  0  0
   -2.4135    0.7023   -1.8014 H   0  0  0  0  0  0  0  0  0  0  0  0
   -2.6410   -1.7826    0.4441 H   0  0  0  0  0  0  0  0  0  0  0  0
   -0.9939   -0.0890    2.2470 H   0  0  0  0  0  0  0  0  0  0  0  0
   -0.5771   -1.7980    1.9434 H   0  0  0  0  0  0  0  0  0  0  0  0
    1.9982   -1.5332    0.9508 H   0  0  0  0  0  0  0  0  0  0  0  0
    1.8556   -1.2591   -0.8487 H   0  0  0  0  0  0  0  0  0  0  0  0
    1.5755    0.9463    1.3313 H   0  0  0  0  0  0  0  0  0  0  0  0
    1.4308    1.1881   -0.4713 H   0  0  0  0  0  0  0  0  0  0  0  0
  1  2  1  0
  2  3  1  0
  3  4  1  0
  4  5  1  0
  5  6  1  0
  6  7  1  0
  7  8  1  0
  8  9  1  0
  5  2  1  0
  9  7  1  0
  7  2  1  0
  1 10  1  0
  3 11  1  0
  3 12  1  0
  5 13  1  0
  6 14  1  0
  6 15  1  0
  8 16  1  0
  8 17  1  0
  9 18  1  0
  9 19  1  0
M  END
$$$$
