
     RDKit          3D

 19 20  0  0  0  0  0  0  0  0999 V2000
    1.3721    0.0392   -0.0373 C   0  0  0  0  0  0  0  0  0  0  0  0
   -0.0420    0.0666   -0.0070 O   0  0  0  0  0  0  0  0  0  0  0  0
   -0.5669    0.6456    1.1442 C   0  0  0  0  0  0  0  0  0  0  0  0
   -0.4571   -0.1312    2.4848 C   0  0  0  0  0  0  0  0  0  0  0  0
   -1.9876    0.0547    2.7070 C   0  0  0  0  0  0  0  0  0  0  0  0
   -2.1274    0.7392    1.3042 C   0  0  0  0  0  0  0  0  0  0  0  0
   -1.9884    2.2566    1.4101 C   0  0  0  0  0  0  0  0  0  0  0  0
   -2.7675    3.1542    1.5526 O   0  0  0  0  0  0  0  0  0  0  0  0
   -0.4530    2.2014    1.2651 C   0  0  0  0  0  0  0  0  0  0  0  0
    1.7877   -0.5385    0.8008 H   0  0  0  0  0  0  0  0  0  0  0  0
    1.6630   -0.4397   -0.9746 H   0  0  0  0  0  0  0  0  0  0  0  0
    1.8006    1.0517   -0.0073 H   0  0  0  0  0  0  0  0  0  0  0  0
   -0.1892   -1.1768    2.3155 H   0  0  0  0  0  0  0  0  0  0  0  0
    0.2078    0.2859    3.2453 H   0  0  0  0  0  0  0  0  0  0  0  0
   -2.5420   -0.8819    2.7780 H   0  0  0  0  0  0  0  0  0  0  0  0
   -2.2743    0.6860    3.5509 H   0  0  0  0  0  0  0  0  0  0  0  0
   -2.8471    0.3188    0.6026 H   0  0  0  0  0  0  0  0  0  0  0  0
   -0.1393    2.6530    0.3176 H   0  0  0  0  0  0  0  0  0  0  0  0
    0.1342    2.6341    2.0799 H   0  0  0  0  0  0  0  0  0  0  0  0
  1  2  1  0
  2  3  1  0
  3  4  1  0
  4  5  1  0
  5  6  1  0
  6  7  1  0
  7  8  2  0
  7  9  1  0
  6  3  1  0
  9  3  1  0
  1 10  1  0
  1 11  1  0
  1 12  1  0
  4 13  1  0
  4 14  1  0
  5 15  1  0
  5 16  1  0
  6 17  1  0
  9 18  1  0
  9 19  1  0
M  END
$$$$
