gdb 5888	5.2652429	0.5788742	0.5523973	2.0914	85.13	-0.26177	-0.02799	0.23378	2036.5476	0.154339	-422.5585	-422.547737	-422.546793	-422.597151	36.04
 OpenBabel02181911423D

 19 18  0  0  0  0  0  0  0  0999 V2000
    5.8280   -2.6456    0.5486 C   0  0  0  0  0  0  0  0  0  0  0  0
    5.1051   -2.0125    1.7283 C   0  0  0  0  0  0  0  0  0  0  0  0
    3.7430   -1.6682    1.3921 O   0  0  0  0  0  0  0  0  0  0  0  0
    3.5660   -0.4795    0.7815 C   0  0  0  0  0  0  0  0  0  0  0  0
    4.4539    0.2931    0.5083 O   0  0  0  0  0  0  0  0  0  0  0  0
    2.1703   -0.2487    0.5006 C   0  0  0  0  0  0  0  0  0  0  0  0
    1.0215    0.0042    0.2370 C   0  0  0  0  0  0  0  0  0  0  0  0
   -0.3613    0.3245   -0.0882 C   0  0  0  0  0  0  0  0  0  0  0  0
   -0.5209    1.6740   -0.8116 C   0  0  0  0  0  0  0  0  0  0  0  0
    6.8267   -2.9695    0.8584 H   0  0  0  0  0  0  0  0  0  0  0  0
    5.2814   -3.5187    0.1812 H   0  0  0  0  0  0  0  0  0  0  0  0
    5.9372   -1.9259   -0.2657 H   0  0  0  0  0  0  0  0  0  0  0  0
    5.0077   -2.7137    2.5602 H   0  0  0  0  0  0  0  0  0  0  0  0
    5.6228   -1.1132    2.0699 H   0  0  0  0  0  0  0  0  0  0  0  0
   -0.7748   -0.4831   -0.7057 H   0  0  0  0  0  0  0  0  0  0  0  0
   -0.9504    0.3238    0.8379 H   0  0  0  0  0  0  0  0  0  0  0  0
   -0.1435    2.4929   -0.1938 H   0  0  0  0  0  0  0  0  0  0  0  0
    0.0337    1.6779   -1.7533 H   0  0  0  0  0  0  0  0  0  0  0  0
   -1.5759    1.8623   -1.0299 H   0  0  0  0  0  0  0  0  0  0  0  0
  1 10  1  0  0  0  0
  1  2  1  0  0  0  0
  2 14  1  0  0  0  0
  2 13  1  0  0  0  0
  3  2  1  0  0  0  0
  4  3  1  0  0  0  0
  5  4  2  0  0  0  0
  6  4  1  0  0  0  0
  7  6  3  0  0  0  0
  8  7  1  0  0  0  0
  8 16  1  0  0  0  0
  9 17  1  0  0  0  0
  9  8  1  0  0  0  0
 11  1  1  0  0  0  0
 12  1  1  0  0  0  0
 15  8  1  0  0  0  0
 18  9  1  0  0  0  0
 19  9  1  0  0  0  0
M TOR 0 0 1 2 3
M TOR 1 1 2 3 4
M TOR 2 1 2 3 5
M TOR 3 2 1 0 9
M TOR 4 2 1 0 10
M TOR 5 2 1 0 11
M TOR 6 2 3 5 6
M TOR 7 3 2 1 12
M TOR 8 3 2 1 13
M TOR 9 3 5 6 7
M TOR 10 4 3 5 6
M TOR 11 5 6 7 8
M TOR 12 5 6 7 14
M TOR 13 5 6 7 15
M TOR 14 6 7 8 16
M TOR 15 6 7 8 17
M TOR 16 6 7 8 18
M  END
$$$$
