gdb 539	3.1387856	1.6655189	1.3453041	1.837	73.85	-0.23474	0.06532	0.30006	990.5864	0.158907	-422.527313	-422.520085	-422.51914	-422.558929	28.615
 OpenBabel02181911403D

 19 21  0  0  1  0  0  0  0  0999 V2000
   -1.3179   -0.0496    1.5969 C   0  0  0  0  0  0  0  0  0  0  0  0
   -1.2785    1.2098    0.8727 O   0  0  0  0  0  0  0  0  0  0  0  0
   -0.3370    0.6779   -0.0598 C   0  0  1  0  0  0  0  0  0  0  0  0
   -0.4280    1.0394   -1.5226 C   0  0  0  0  0  0  0  0  0  0  0  0
    0.9901    0.6879   -2.0030 C   0  0  0  0  0  0  0  0  0  0  0  0
    1.8724    0.9796   -0.9138 O   0  0  0  0  0  0  0  0  0  0  0  0
    1.1740    0.8113    0.3045 C   0  0  2  0  0  0  0  0  0  0  0  0
    1.1482   -0.6344    0.9025 C   0  0  0  0  0  0  0  0  0  0  0  0
   -0.3668   -0.7357    0.5919 C   0  0  1  0  0  0  0  0  0  0  0  0
   -0.9389    0.0523    2.6217 H   0  0  0  0  0  0  0  0  0  0  0  0
   -2.3371   -0.4502    1.6282 H   0  0  0  0  0  0  0  0  0  0  0  0
   -1.2085    0.5022   -2.0673 H   0  0  0  0  0  0  0  0  0  0  0  0
   -0.6177    2.1154   -1.6093 H   0  0  0  0  0  0  0  0  0  0  0  0
    1.0507   -0.3779   -2.2745 H   0  0  0  0  0  0  0  0  0  0  0  0
    1.3209    1.2740   -2.8641 H   0  0  0  0  0  0  0  0  0  0  0  0
    1.4563    1.6129    0.9918 H   0  0  0  0  0  0  0  0  0  0  0  0
    1.7605   -1.3240    0.3164 H   0  0  0  0  0  0  0  0  0  0  0  0
    1.4302   -0.7212    1.9555 H   0  0  0  0  0  0  0  0  0  0  0  0
   -0.7426   -1.6300    0.0947 H   0  0  0  0  0  0  0  0  0  0  0  0
  1 11  1  0  0  0  0
  1 10  1  0  0  0  0
  2  1  1  0  0  0  0
  3  7  1  0  0  0  0
  3  9  1  0  0  0  0
  3  2  1  1  0  0  0
  4  3  1  0  0  0  0
  5  4  1  0  0  0  0
  5  6  1  0  0  0  0
  6  7  1  0  0  0  0
  7  8  1  0  0  0  0
  7 16  1  1  0  0  0
  8 18  1  0  0  0  0
  9 19  1  6  0  0  0
  9  8  1  0  0  0  0
  9  1  1  0  0  0  0
 12  4  1  0  0  0  0
 13  4  1  0  0  0  0
 14  5  1  0  0  0  0
 15  5  1  0  0  0  0
 17  8  1  0  0  0  0
M TOR 0 0 1 2 3
M TOR 1 0 1 2 6
M TOR 2 0 1 2 8
M TOR 3 0 8 2 3
M TOR 4 0 8 2 6
M TOR 5 0 8 7 6
M TOR 6 0 8 7 16
M TOR 7 0 8 7 17
M TOR 8 1 0 8 7
M TOR 9 1 0 8 18
M TOR 10 1 2 3 4
M TOR 11 1 2 3 11
M TOR 12 1 2 3 12
M TOR 13 1 2 6 5
M TOR 14 1 2 6 7
M TOR 15 1 2 6 15
M TOR 16 1 2 8 7
M TOR 17 1 2 8 18
M TOR 18 2 1 0 9
M TOR 19 2 1 0 10
M TOR 20 2 3 4 5
M TOR 21 2 3 4 13
M TOR 22 2 3 4 14
M TOR 23 2 6 5 4
M TOR 24 2 6 7 8
M TOR 25 2 6 7 16
M TOR 26 2 6 7 17
M TOR 27 2 8 0 9
M TOR 28 2 8 0 10
M TOR 29 2 8 7 16
M TOR 30 2 8 7 17
M TOR 31 3 2 6 5
M TOR 32 3 2 6 7
M TOR 33 3 2 6 15
M TOR 34 3 2 8 7
M TOR 35 3 2 8 18
M TOR 36 3 4 5 6
M TOR 37 4 3 2 6
M TOR 38 4 3 2 8
M TOR 39 4 5 6 7
M TOR 40 4 5 6 15
M TOR 41 5 4 3 11
M TOR 42 5 4 3 12
M TOR 43 5 6 2 8
M TOR 44 5 6 7 8
M TOR 45 5 6 7 16
M TOR 46 5 6 7 17
M TOR 47 6 2 3 11
M TOR 48 6 2 3 12
M TOR 49 6 2 8 18
M TOR 50 6 5 4 13
M TOR 51 6 5 4 14
M TOR 52 6 7 8 18
M TOR 53 7 8 0 9
M TOR 54 7 8 0 10
M TOR 55 8 2 3 11
M TOR 56 8 2 3 12
M TOR 57 8 2 6 15
M TOR 58 8 7 6 15
M  END
$$$$
