gdb 2777	3.8552265	0.9215004	0.8089899	3.3052	78.33	-0.24882	-0.02095	0.22787000000000002	1416.424	0.155374	-422.53899	-422.529911	-422.528966	-422.572797	33.522
 OpenBabel02181911413D

 19 20  0  0  1  0  0  0  0  0999 V2000
    0.1364   -0.1044   -0.2160 C   0  0  0  0  0  0  0  0  0  0  0  0
    1.6293    0.0498    0.0481 C   0  0  2  0  0  0  0  0  0  0  0  0
    2.0774   -0.3766    1.4593 C   0  0  1  0  0  0  0  0  0  0  0  0
    3.5517   -0.0611    1.6400 C   0  0  2  0  0  0  0  0  0  0  0  0
    4.1688   -0.5358    2.8991 C   0  0  0  0  0  0  0  0  0  0  0  0
    5.3139   -0.8959    3.0125 O   0  0  0  0  0  0  0  0  0  0  0  0
    2.5060    1.0349    1.7905 C   0  0  1  0  0  0  0  0  0  0  0  0
    2.0973    1.5227    0.3889 C   0  0  2  0  0  0  0  0  0  0  0  0
    1.1163    2.5273    0.3505 O   0  0  0  0  0  0  0  0  0  0  0  0
   -0.4720    0.2733    0.6142 H   0  0  0  0  0  0  0  0  0  0  0  0
   -0.1603    0.4319   -1.1214 H   0  0  0  0  0  0  0  0  0  0  0  0
   -0.1197   -1.1610   -0.3428 H   0  0  0  0  0  0  0  0  0  0  0  0
    2.1947   -0.4237   -0.7625 H   0  0  0  0  0  0  0  0  0  0  0  0
    1.5856   -1.1145    2.0842 H   0  0  0  0  0  0  0  0  0  0  0  0
    4.2183   -0.0617    0.7808 H   0  0  0  0  0  0  0  0  0  0  0  0
    3.4729   -0.5392    3.7727 H   0  0  0  0  0  0  0  0  0  0  0  0
    2.4151    1.6062    2.7081 H   0  0  0  0  0  0  0  0  0  0  0  0
    2.9195    1.9017   -0.2251 H   0  0  0  0  0  0  0  0  0  0  0  0
    0.3813    2.2645    0.9147 H   0  0  0  0  0  0  0  0  0  0  0  0
  1  2  1  0  0  0  0
  1 10  1  0  0  0  0
  2 13  1  6  0  0  0
  2  8  1  0  0  0  0
  2  3  1  0  0  0  0
  3  4  1  0  0  0  0
  3  7  1  0  0  0  0
  3 14  1  1  0  0  0
  4 15  1  6  0  0  0
  4  7  1  0  0  0  0
  4  5  1  0  0  0  0
  5  6  2  0  0  0  0
  5 16  1  0  0  0  0
  7 17  1  1  0  0  0
  8 18  1  6  0  0  0
  8  7  1  0  0  0  0
  9  8  1  0  0  0  0
  9 19  1  0  0  0  0
 11  1  1  0  0  0  0
 12  1  1  0  0  0  0
M TOR 0 0 1 2 3
M TOR 1 0 1 2 6
M TOR 2 0 1 2 13
M TOR 3 0 1 7 6
M TOR 4 0 1 7 8
M TOR 5 0 1 7 17
M TOR 6 1 2 3 4
M TOR 7 1 2 3 6
M TOR 8 1 2 3 14
M TOR 9 1 2 6 7
M TOR 10 1 2 6 16
M TOR 11 1 7 6 3
M TOR 12 1 7 6 16
M TOR 13 1 7 8 18
M TOR 14 2 1 0 9
M TOR 15 2 1 0 10
M TOR 16 2 1 0 11
M TOR 17 2 1 7 8
M TOR 18 2 1 7 17
M TOR 19 2 3 4 5
M TOR 20 2 3 4 15
M TOR 21 2 3 6 7
M TOR 22 2 3 6 16
M TOR 23 2 6 3 4
M TOR 24 2 6 3 14
M TOR 25 2 6 7 8
M TOR 26 2 6 7 17
M TOR 27 3 2 1 7
M TOR 28 3 2 1 12
M TOR 29 3 6 2 13
M TOR 30 3 6 7 8
M TOR 31 3 6 7 17
M TOR 32 4 3 2 13
M TOR 33 4 3 6 7
M TOR 34 4 3 6 16
M TOR 35 5 4 3 6
M TOR 36 5 4 3 14
M TOR 37 6 2 1 12
M TOR 38 6 3 4 15
M TOR 39 6 7 1 12
M TOR 40 6 7 8 18
M TOR 41 7 1 0 9
M TOR 42 7 1 0 10
M TOR 43 7 1 0 11
M TOR 44 7 1 2 13
M TOR 45 7 6 2 13
M TOR 46 7 6 3 14
M TOR 47 8 7 1 12
M TOR 48 8 7 6 16
M  END
$$$$
