gdb 4042	2.3793513	1.7617866	1.493421	2.3543	73.48	-0.23037	0.06614	0.29651	978.0839	0.157771	-422.540555	-422.532509	-422.531565	-422.572714	31.761
 OpenBabel02181911413D

 19 21  0  0  1  0  0  0  0  0999 V2000
    0.5437    0.7734    0.5791 O   0  0  0  0  0  0  0  0  0  0  0  0
   -0.8199    1.1317    0.3988 C   0  0  1  0  0  0  0  0  0  0  0  0
   -1.6950   -0.0773   -0.0520 C   0  0  0  0  0  0  0  0  0  0  0  0
   -2.3346   -0.5563    1.2511 C   0  0  2  0  0  0  0  0  0  0  0  0
   -3.2747    0.4057    2.0175 C   0  0  2  0  0  0  0  0  0  0  0  0
   -2.9942    1.8417    1.5785 C   0  0  0  0  0  0  0  0  0  0  0  0
   -1.4628    1.5559    1.7259 C   0  0  1  0  0  0  0  0  0  0  0  0
   -1.8246    0.2173    2.4242 C   0  0  2  0  0  0  0  0  0  0  0  0
   -1.1622   -0.2305    3.5556 O   0  0  0  0  0  0  0  0  0  0  0  0
    0.5981    0.2141    1.3629 H   0  0  0  0  0  0  0  0  0  0  0  0
   -0.8143    1.9357   -0.3435 H   0  0  0  0  0  0  0  0  0  0  0  0
   -2.4398    0.2126   -0.8011 H   0  0  0  0  0  0  0  0  0  0  0  0
   -1.0528   -0.8378   -0.5046 H   0  0  0  0  0  0  0  0  0  0  0  0
   -2.5762   -1.6063    1.3893 H   0  0  0  0  0  0  0  0  0  0  0  0
   -4.1906    0.0303    2.4594 H   0  0  0  0  0  0  0  0  0  0  0  0
   -3.3412    2.1527    0.5867 H   0  0  0  0  0  0  0  0  0  0  0  0
   -3.3396    2.5683    2.3175 H   0  0  0  0  0  0  0  0  0  0  0  0
   -0.8809    2.2847    2.2887 H   0  0  0  0  0  0  0  0  0  0  0  0
   -1.3418   -1.1697    3.6677 H   0  0  0  0  0  0  0  0  0  0  0  0
  1 10  1  0  0  0  0
  2 11  1  6  0  0  0
  2  1  1  0  0  0  0
  2  7  1  0  0  0  0
  3  2  1  0  0  0  0
  3  4  1  0  0  0  0
  4 14  1  1  0  0  0
  4  5  1  0  0  0  0
  4  8  1  0  0  0  0
  5  8  1  0  0  0  0
  5 15  1  1  0  0  0
  6  7  1  0  0  0  0
  6  5  1  0  0  0  0
  6 17  1  0  0  0  0
  7 18  1  1  0  0  0
  7  8  1  0  0  0  0
  8  9  1  1  0  0  0
  9 19  1  0  0  0  0
 12  3  1  0  0  0  0
 13  3  1  0  0  0  0
 16  6  1  0  0  0  0
M TOR 0 0 1 2 3
M TOR 1 0 1 2 11
M TOR 2 0 1 2 12
M TOR 3 0 1 6 5
M TOR 4 0 1 6 7
M TOR 5 0 1 6 17
M TOR 6 1 2 3 4
M TOR 7 1 2 3 7
M TOR 8 1 2 3 13
M TOR 9 1 6 5 4
M TOR 10 1 6 5 15
M TOR 11 1 6 5 16
M TOR 12 1 6 7 3
M TOR 13 1 6 7 4
M TOR 14 1 6 7 8
M TOR 15 2 1 0 9
M TOR 16 2 1 6 5
M TOR 17 2 1 6 7
M TOR 18 2 1 6 17
M TOR 19 2 3 4 5
M TOR 20 2 3 4 7
M TOR 21 2 3 4 14
M TOR 22 2 3 7 6
M TOR 23 2 3 7 8
M TOR 24 3 2 1 6
M TOR 25 3 2 1 10
M TOR 26 3 4 5 6
M TOR 27 3 4 5 15
M TOR 28 3 4 5 16
M TOR 29 3 4 7 6
M TOR 30 3 4 7 8
M TOR 31 3 7 4 5
M TOR 32 3 7 4 14
M TOR 33 3 7 6 5
M TOR 34 3 7 6 17
M TOR 35 3 7 8 18
M TOR 36 4 3 2 11
M TOR 37 4 3 2 12
M TOR 38 4 5 6 7
M TOR 39 4 5 6 17
M TOR 40 4 7 3 13
M TOR 41 4 7 6 17
M TOR 42 4 7 8 18
M TOR 43 5 4 3 13
M TOR 44 5 4 7 8
M TOR 45 5 6 1 10
M TOR 46 5 6 7 8
M TOR 47 6 1 0 9
M TOR 48 6 1 2 11
M TOR 49 6 1 2 12
M TOR 50 6 5 4 14
M TOR 51 6 7 3 13
M TOR 52 6 7 4 14
M TOR 53 6 7 8 18
M TOR 54 7 3 2 11
M TOR 55 7 3 2 12
M TOR 56 7 4 5 15
M TOR 57 7 4 5 16
M TOR 58 7 6 1 10
M TOR 59 7 6 5 15
M TOR 60 7 6 5 16
M TOR 61 8 7 3 13
M TOR 62 8 7 4 14
M TOR 63 8 7 6 17
M  END
$$$$
