gdb 4573	3.2633957	1.0602435	0.8903087	1.0299	76.49	-0.25192	0.0531	0.30501999999999996	1315.0264	0.156549	-422.528127	-422.519008	-422.518064	-422.562488	33.648
 OpenBabel02181911413D

 19 19  0  0  1  0  0  0  0  0999 V2000
    5.2691   -0.9743    0.0885 O   0  0  0  0  0  0  0  0  0  0  0  0
    4.6695   -0.8296   -1.1902 C   0  0  1  0  0  0  0  0  0  0  0  0
    4.8372   -2.1046   -2.0142 C   0  0  0  0  0  0  0  0  0  0  0  0
    3.8949   -2.9910   -1.4192 O   0  0  0  0  0  0  0  0  0  0  0  0
    2.6984   -2.2326   -1.1950 C   0  0  0  0  0  0  0  0  0  0  0  0
    3.1225   -0.7386   -1.1240 C   0  0  1  0  0  0  0  0  0  0  0  0
    2.5929    0.0206    0.1047 C   0  0  0  0  0  0  0  0  0  0  0  0
    1.1357    0.0620    0.1524 C   0  0  0  0  0  0  0  0  0  0  0  0
   -0.0664    0.0781    0.1680 C   0  0  0  0  0  0  0  0  0  0  0  0
    5.0789   -1.8747    0.3810 H   0  0  0  0  0  0  0  0  0  0  0  0
    5.1210    0.0553   -1.6459 H   0  0  0  0  0  0  0  0  0  0  0  0
    4.6141   -1.9300   -3.0795 H   0  0  0  0  0  0  0  0  0  0  0  0
    5.8322   -2.5468   -1.9229 H   0  0  0  0  0  0  0  0  0  0  0  0
    1.9837   -2.4065   -2.0096 H   0  0  0  0  0  0  0  0  0  0  0  0
    2.2450   -2.5908   -0.2659 H   0  0  0  0  0  0  0  0  0  0  0  0
    2.7738   -0.2225   -2.0245 H   0  0  0  0  0  0  0  0  0  0  0  0
    2.9869   -0.4465    1.0137 H   0  0  0  0  0  0  0  0  0  0  0  0
    2.9908    1.0430    0.0988 H   0  0  0  0  0  0  0  0  0  0  0  0
   -1.1275    0.1016    0.1966 H   0  0  0  0  0  0  0  0  0  0  0  0
  1 10  1  0  0  0  0
  2 11  1  6  0  0  0
  2  6  1  0  0  0  0
  2  1  1  0  0  0  0
  3 13  1  0  0  0  0
  3  4  1  0  0  0  0
  3  2  1  0  0  0  0
  4  5  1  0  0  0  0
  5  6  1  0  0  0  0
  5 15  1  0  0  0  0
  6 16  1  6  0  0  0
  6  7  1  0  0  0  0
  7  8  1  0  0  0  0
  7 17  1  0  0  0  0
  8  9  3  0  0  0  0
  9 19  1  0  0  0  0
 12  3  1  0  0  0  0
 14  5  1  0  0  0  0
 18  7  1  0  0  0  0
M TOR 0 0 1 2 3
M TOR 1 0 1 2 11
M TOR 2 0 1 2 12
M TOR 3 0 1 5 4
M TOR 4 0 1 5 6
M TOR 5 0 1 5 15
M TOR 6 1 2 3 4
M TOR 7 1 5 4 3
M TOR 8 1 5 4 13
M TOR 9 1 5 4 14
M TOR 10 1 5 6 7
M TOR 11 1 5 6 16
M TOR 12 1 5 6 17
M TOR 13 2 1 0 9
M TOR 14 2 1 5 4
M TOR 15 2 1 5 6
M TOR 16 2 1 5 15
M TOR 17 2 3 4 5
M TOR 18 2 3 4 13
M TOR 19 2 3 4 14
M TOR 20 3 2 1 5
M TOR 21 3 2 1 10
M TOR 22 3 4 5 6
M TOR 23 3 4 5 15
M TOR 24 4 3 2 11
M TOR 25 4 3 2 12
M TOR 26 4 5 1 10
M TOR 27 4 5 6 7
M TOR 28 4 5 6 16
M TOR 29 4 5 6 17
M TOR 30 5 1 0 9
M TOR 31 5 1 2 11
M TOR 32 5 1 2 12
M TOR 33 5 6 7 8
M TOR 34 6 5 1 10
M TOR 35 6 5 4 13
M TOR 36 6 5 4 14
M TOR 37 6 7 8 18
M TOR 38 7 6 5 15
M TOR 39 8 7 6 16
M TOR 40 8 7 6 17
M  END
$$$$
