
     RDKit          3D

 19 20  0  0  0  0  0  0  0  0999 V2000
   -3.8952   -1.5352    1.7192 O   0  0  0  0  0  0  0  0  0  0  0  0
   -2.7984   -0.6851    1.4783 C   0  0  0  0  0  0  0  0  0  0  0  0
   -3.0642    0.8338    1.2819 C   0  0  0  0  0  0  0  0  0  0  0  0
   -2.2000    0.7985   -0.0091 C   0  0  0  0  0  0  0  0  0  0  0  0
   -0.7112    1.1484    0.1472 C   0  0  0  0  0  0  0  0  0  0  0  0
    0.0668   -0.1785    0.2210 C   0  0  0  0  0  0  0  0  0  0  0  0
    1.2213   -0.2886    0.5406 O   0  0  0  0  0  0  0  0  0  0  0  0
   -0.8693   -1.3273   -0.1799 C   0  0  0  0  0  0  0  0  0  0  0  0
   -2.2730   -0.7757    0.0240 C   0  0  0  0  0  0  0  0  0  0  0  0
   -4.1705   -1.4254    2.6350 H   0  0  0  0  0  0  0  0  0  0  0  0
   -1.9924   -0.8667    2.2063 H   0  0  0  0  0  0  0  0  0  0  0  0
   -4.1200    1.0034    1.0544 H   0  0  0  0  0  0  0  0  0  0  0  0
   -2.7537    1.5146    2.0801 H   0  0  0  0  0  0  0  0  0  0  0  0
   -2.6443    1.2893   -0.8756 H   0  0  0  0  0  0  0  0  0  0  0  0
   -0.3264    1.7088   -0.7127 H   0  0  0  0  0  0  0  0  0  0  0  0
   -0.4829    1.7510    1.0318 H   0  0  0  0  0  0  0  0  0  0  0  0
   -0.6770   -1.5545   -1.2375 H   0  0  0  0  0  0  0  0  0  0  0  0
   -0.6392   -2.2308    0.3910 H   0  0  0  0  0  0  0  0  0  0  0  0
   -3.0328   -1.2082   -0.6281 H   0  0  0  0  0  0  0  0  0  0  0  0
  1  2  1  0
  2  3  1  0
  3  4  1  0
  4  5  1  0
  5  6  1  0
  6  7  2  0
  6  8  1  0
  8  9  1  0
  9  2  1  0
  9  4  1  0
  1 10  1  0
  2 11  1  0
  3 12  1  0
  3 13  1  0
  4 14  1  0
  5 15  1  0
  5 16  1  0
  8 17  1  0
  8 18  1  0
  9 19  1  0
M  END
$$$$
