gdb 1312	4.4744552	0.5515241	0.5134261	2.9562	82.74	-0.2537	-0.03292	0.22077999999999998	2230.2144	0.152947	-422.542899	-422.531978	-422.531034	-422.581887	36.971
 OpenBabel02181911403D

 19 18  0  0  1  0  0  0  0  0999 V2000
    2.6384   -1.9603   -0.9239 C   0  0  0  0  0  0  0  0  0  0  0  0
    1.9674   -2.1715    0.4258 C   0  0  2  0  0  0  0  0  0  0  0  0
    1.2512   -3.3911    0.3524 O   0  0  0  0  0  0  0  0  0  0  0  0
    1.0228   -0.9982    0.7839 C   0  0  0  0  0  0  0  0  0  0  0  0
    0.3243   -1.2302    2.0435 C   0  0  0  0  0  0  0  0  0  0  0  0
   -0.2180   -1.4746    3.0923 C   0  0  0  0  0  0  0  0  0  0  0  0
   -0.9322   -1.7569    4.3297 C   0  0  0  0  0  0  0  0  0  0  0  0
   -2.3278   -2.3341    4.0784 C   0  0  0  0  0  0  0  0  0  0  0  0
   -2.8173   -3.2040    4.7450 O   0  0  0  0  0  0  0  0  0  0  0  0
    3.2903   -2.8068   -1.1537 H   0  0  0  0  0  0  0  0  0  0  0  0
    1.8860   -1.8852   -1.7155 H   0  0  0  0  0  0  0  0  0  0  0  0
    3.2405   -1.0468   -0.9226 H   0  0  0  0  0  0  0  0  0  0  0  0
    2.7399   -2.2286    1.2104 H   0  0  0  0  0  0  0  0  0  0  0  0
    0.7681   -3.4907    1.1816 H   0  0  0  0  0  0  0  0  0  0  0  0
    1.5994   -0.0663    0.8377 H   0  0  0  0  0  0  0  0  0  0  0  0
    0.2931   -0.8794   -0.0272 H   0  0  0  0  0  0  0  0  0  0  0  0
   -0.3884   -2.4492    4.9807 H   0  0  0  0  0  0  0  0  0  0  0  0
   -1.0743   -0.8270    4.9020 H   0  0  0  0  0  0  0  0  0  0  0  0
   -2.8669   -1.8684    3.2251 H   0  0  0  0  0  0  0  0  0  0  0  0
  1 12  1  0  0  0  0
  1  2  1  0  0  0  0
  2  4  1  0  0  0  0
  2 13  1  1  0  0  0
  3  2  1  0  0  0  0
  3 14  1  0  0  0  0
  4 15  1  0  0  0  0
  4  5  1  0  0  0  0
  5  6  3  0  0  0  0
  6  7  1  0  0  0  0
  7 18  1  0  0  0  0
  7 17  1  0  0  0  0
  8  7  1  0  0  0  0
  8  9  2  0  0  0  0
 10  1  1  0  0  0  0
 11  1  1  0  0  0  0
 16  4  1  0  0  0  0
 19  8  1  0  0  0  0
M TOR 0 0 1 2 13
M TOR 1 0 1 3 4
M TOR 2 0 1 3 14
M TOR 3 0 1 3 15
M TOR 4 1 3 4 5
M TOR 5 2 1 0 9
M TOR 6 2 1 0 10
M TOR 7 2 1 0 11
M TOR 8 2 1 3 4
M TOR 9 2 1 3 14
M TOR 10 2 1 3 15
M TOR 11 3 1 0 9
M TOR 12 3 1 0 10
M TOR 13 3 1 0 11
M TOR 14 3 1 2 13
M TOR 15 3 4 5 6
M TOR 16 4 3 1 12
M TOR 17 4 5 6 7
M TOR 18 4 5 6 16
M TOR 19 4 5 6 17
M TOR 20 5 4 3 14
M TOR 21 5 4 3 15
M TOR 22 5 6 7 8
M TOR 23 5 6 7 18
M TOR 24 8 7 6 16
M TOR 25 8 7 6 17
M  END
$$$$
