gdb 2117	2.6168763	1.8402828	1.3492867	2.127	74.69	-0.21094	0.08385	0.29479	1013.3289	0.156084	-422.525314	-422.517217	-422.516272	-422.557288	31.765
 OpenBabel02181911403D

 19 21  0  0  1  0  0  0  0  0999 V2000
    3.7536   -2.5225    0.0819 C   0  0  0  0  0  0  0  0  0  0  0  0
    3.1207   -1.1754    0.1772 C   0  0  2  0  0  0  0  0  0  0  0  0
    2.1694   -0.8044   -0.8256 O   0  0  0  0  0  0  0  0  0  0  0  0
    1.5508    0.1398    0.1195 C   0  0  2  0  0  0  0  0  0  0  0  0
    0.0490    0.0429    0.1401 C   0  0  0  0  0  0  0  0  0  0  0  0
    2.1869    1.4940   -0.1896 C   0  0  0  0  0  0  0  0  0  0  0  0
    3.5875    1.2907    0.0264 O   0  0  0  0  0  0  0  0  0  0  0  0
    3.7246    0.0948    0.7577 C   0  0  1  0  0  0  0  0  0  0  0  0
    2.4131   -0.4156    1.2814 C   0  0  2  0  0  0  0  0  0  0  0  0
    4.4393   -2.6830    0.9192 H   0  0  0  0  0  0  0  0  0  0  0  0
    2.9977   -3.3144    0.0947 H   0  0  0  0  0  0  0  0  0  0  0  0
    4.3254   -2.6089   -0.8485 H   0  0  0  0  0  0  0  0  0  0  0  0
   -0.3713    0.7140    0.8964 H   0  0  0  0  0  0  0  0  0  0  0  0
   -0.3643    0.3195   -0.8352 H   0  0  0  0  0  0  0  0  0  0  0  0
   -0.2642   -0.9793    0.3659 H   0  0  0  0  0  0  0  0  0  0  0  0
    2.0278    1.7828   -1.2332 H   0  0  0  0  0  0  0  0  0  0  0  0
    1.8060    2.2877    0.4719 H   0  0  0  0  0  0  0  0  0  0  0  0
    4.6374    0.0424    1.3397 H   0  0  0  0  0  0  0  0  0  0  0  0
    2.1168   -0.6435    2.2972 H   0  0  0  0  0  0  0  0  0  0  0  0
  1 11  1  0  0  0  0
  1 10  1  0  0  0  0
  2  1  1  1  0  0  0
  2  8  1  0  0  0  0
  2  9  1  0  0  0  0
  3  4  1  0  0  0  0
  3  2  1  0  0  0  0
  4  5  1  1  0  0  0
  4  9  1  0  0  0  0
  5 15  1  0  0  0  0
  5 13  1  0  0  0  0
  6  7  1  0  0  0  0
  6  4  1  0  0  0  0
  6 17  1  0  0  0  0
  7  8  1  0  0  0  0
  8  9  1  0  0  0  0
  8 18  1  1  0  0  0
  9 19  1  1  0  0  0
 12  1  1  0  0  0  0
 14  5  1  0  0  0  0
 16  6  1  0  0  0  0
M TOR 0 0 1 2 3
M TOR 1 0 1 7 6
M TOR 2 0 1 7 8
M TOR 3 0 1 7 17
M TOR 4 0 1 8 3
M TOR 5 0 1 8 18
M TOR 6 1 2 3 4
M TOR 7 1 2 3 5
M TOR 8 1 2 3 8
M TOR 9 1 7 6 5
M TOR 10 1 7 8 3
M TOR 11 1 7 8 18
M TOR 12 1 8 3 4
M TOR 13 1 8 3 5
M TOR 14 1 8 7 6
M TOR 15 1 8 7 17
M TOR 16 2 1 0 9
M TOR 17 2 1 0 10
M TOR 18 2 1 0 11
M TOR 19 2 1 7 6
M TOR 20 2 1 7 8
M TOR 21 2 1 7 17
M TOR 22 2 1 8 18
M TOR 23 2 3 4 12
M TOR 24 2 3 4 13
M TOR 25 2 3 4 14
M TOR 26 2 3 5 6
M TOR 27 2 3 5 15
M TOR 28 2 3 5 16
M TOR 29 2 3 8 7
M TOR 30 2 3 8 18
M TOR 31 3 2 1 7
M TOR 32 3 5 6 7
M TOR 33 3 8 7 6
M TOR 34 3 8 7 17
M TOR 35 4 3 5 6
M TOR 36 4 3 5 15
M TOR 37 4 3 5 16
M TOR 38 4 3 8 7
M TOR 39 4 3 8 18
M TOR 40 5 3 4 12
M TOR 41 5 3 4 13
M TOR 42 5 3 4 14
M TOR 43 5 3 8 7
M TOR 44 5 3 8 18
M TOR 45 5 6 7 8
M TOR 46 5 6 7 17
M TOR 47 6 5 3 8
M TOR 48 6 7 8 18
M TOR 49 7 1 0 9
M TOR 50 7 1 0 10
M TOR 51 7 1 0 11
M TOR 52 7 6 5 15
M TOR 53 7 6 5 16
M TOR 54 8 1 0 9
M TOR 55 8 1 0 10
M TOR 56 8 1 0 11
M TOR 57 8 3 4 12
M TOR 58 8 3 4 13
M TOR 59 8 3 4 14
M TOR 60 8 3 5 15
M TOR 61 8 3 5 16
M  END
$$$$
