gdb 3775	3.8584439	1.0402651	0.9711378	2.734	76.59	-0.22141	0.07312	0.29453	1271.35	0.155655	-422.488995	-422.480232	-422.479288	-422.522907	32.672
 OpenBabel02181911413D

 19 21  0  0  1  0  0  0  0  0999 V2000
    1.7762   -2.7539    5.3130 O   0  0  0  0  0  0  0  0  0  0  0  0
    1.1605   -1.5981    4.8271 C   0  0  1  0  0  0  0  0  0  0  0  0
    1.2782   -0.2637    5.5023 C   0  0  0  0  0  0  0  0  0  0  0  0
    1.9397   -0.4943    4.1475 C   0  0  2  0  0  0  0  0  0  0  0  0
    1.4038    0.1416    2.9252 C   0  0  2  0  0  0  0  0  0  0  0  0
    2.0267    0.1734    1.5647 C   0  0  0  0  0  0  0  0  0  0  0  0
    1.5970    1.4754    2.2189 C   0  0  1  0  0  0  0  0  0  0  0  0
    0.0781    1.5461    2.2161 C   0  0  0  0  0  0  0  0  0  0  0  0
   -0.0278    0.2214    2.8086 O   0  0  0  0  0  0  0  0  0  0  0  0
    2.5469   -2.4992    5.8298 H   0  0  0  0  0  0  0  0  0  0  0  0
    0.1984   -1.8472    4.3945 H   0  0  0  0  0  0  0  0  0  0  0  0
    0.3974    0.3679    5.5358 H   0  0  0  0  0  0  0  0  0  0  0  0
    1.9333   -0.1802    6.3649 H   0  0  0  0  0  0  0  0  0  0  0  0
    3.0201   -0.6101    4.1540 H   0  0  0  0  0  0  0  0  0  0  0  0
    3.1012    0.0186    1.5391 H   0  0  0  0  0  0  0  0  0  0  0  0
    1.4838   -0.2255    0.7112 H   0  0  0  0  0  0  0  0  0  0  0  0
    2.2760    2.2928    2.4200 H   0  0  0  0  0  0  0  0  0  0  0  0
   -0.3318    2.3029    2.8942 H   0  0  0  0  0  0  0  0  0  0  0  0
   -0.4307    1.6038    1.2462 H   0  0  0  0  0  0  0  0  0  0  0  0
  1 10  1  0  0  0  0
  2 11  1  6  0  0  0
  2  1  1  0  0  0  0
  2  3  1  0  0  0  0
  3 12  1  0  0  0  0
  3 13  1  0  0  0  0
  4 14  1  1  0  0  0
  4  2  1  0  0  0  0
  4  3  1  0  0  0  0
  5  9  1  6  0  0  0
  5  4  1  0  0  0  0
  6  7  1  0  0  0  0
  6  5  1  0  0  0  0
  7 17  1  1  0  0  0
  7  5  1  0  0  0  0
  8  7  1  0  0  0  0
  8  9  1  0  0  0  0
  8 18  1  0  0  0  0
 15  6  1  0  0  0  0
 16  6  1  0  0  0  0
 19  8  1  0  0  0  0
M TOR 0 0 1 2 3
M TOR 1 0 1 2 11
M TOR 2 0 1 2 12
M TOR 3 0 1 3 4
M TOR 4 0 1 3 13
M TOR 5 1 2 3 4
M TOR 6 1 2 3 13
M TOR 7 1 3 2 11
M TOR 8 1 3 2 12
M TOR 9 1 3 4 5
M TOR 10 1 3 4 6
M TOR 11 1 3 4 8
M TOR 12 2 1 0 9
M TOR 13 2 3 1 10
M TOR 14 2 3 4 5
M TOR 15 2 3 4 6
M TOR 16 2 3 4 8
M TOR 17 3 1 0 9
M TOR 18 3 4 5 6
M TOR 19 3 4 5 14
M TOR 20 3 4 5 15
M TOR 21 3 4 6 7
M TOR 22 3 4 6 16
M TOR 23 3 4 8 7
M TOR 24 4 3 1 10
M TOR 25 4 3 2 11
M TOR 26 4 3 2 12
M TOR 27 4 5 6 7
M TOR 28 4 5 6 16
M TOR 29 4 6 5 14
M TOR 30 4 6 5 15
M TOR 31 4 6 7 8
M TOR 32 4 6 7 17
M TOR 33 4 6 7 18
M TOR 34 4 8 7 17
M TOR 35 4 8 7 18
M TOR 36 5 4 3 13
M TOR 37 5 4 8 7
M TOR 38 5 6 4 8
M TOR 39 5 6 7 8
M TOR 40 5 6 7 17
M TOR 41 5 6 7 18
M TOR 42 6 4 3 13
M TOR 43 7 6 5 14
M TOR 44 7 6 5 15
M TOR 45 8 4 3 13
M TOR 46 8 4 5 14
M TOR 47 8 4 5 15
M TOR 48 8 4 6 16
M TOR 49 8 7 6 16
M  END
$$$$
