
     RDKit          3D

 19 21  0  0  0  0  0  0  0  0999 V2000
    1.3797    0.6653    0.1034 O   0  0  0  0  0  0  0  0  0  0  0  0
    0.1503   -0.0157    0.3045 C   0  0  0  0  0  0  0  0  0  0  0  0
   -1.0583    0.9049    0.1808 C   0  0  0  0  0  0  0  0  0  0  0  0
   -1.3052    1.8107    1.4118 C   0  0  0  0  0  0  0  0  0  0  0  0
   -2.5339    2.5102    1.2076 O   0  0  0  0  0  0  0  0  0  0  0  0
   -2.5934    1.1595    1.6968 C   0  0  0  0  0  0  0  0  0  0  0  0
   -2.4285    0.2400    0.5038 C   0  0  0  0  0  0  0  0  0  0  0  0
   -2.7615   -1.2260    0.4730 C   0  0  0  0  0  0  0  0  0  0  0  0
   -3.4978   -0.2535   -0.4202 C   0  0  0  0  0  0  0  0  0  0  0  0
    1.4734    1.3267    0.7958 H   0  0  0  0  0  0  0  0  0  0  0  0
    0.1128   -0.7860   -0.4727 H   0  0  0  0  0  0  0  0  0  0  0  0
    0.1295   -0.5356    1.2756 H   0  0  0  0  0  0  0  0  0  0  0  0
   -1.0120    1.4571   -0.7624 H   0  0  0  0  0  0  0  0  0  0  0  0
   -0.5824    2.2629    2.0833 H   0  0  0  0  0  0  0  0  0  0  0  0
   -3.1194    0.9901    2.6298 H   0  0  0  0  0  0  0  0  0  0  0  0
   -2.0571   -1.9114    0.0137 H   0  0  0  0  0  0  0  0  0  0  0  0
   -3.2902   -1.6432    1.3245 H   0  0  0  0  0  0  0  0  0  0  0  0
   -3.2762   -0.2759   -1.4823 H   0  0  0  0  0  0  0  0  0  0  0  0
   -4.5294   -0.0129   -0.1858 H   0  0  0  0  0  0  0  0  0  0  0  0
  1  2  1  0
  2  3  1  0
  3  4  1  0
  4  5  1  0
  5  6  1  0
  6  7  1  0
  7  8  1  0
  8  9  1  0
  7  3  1  0
  9  7  1  0
  6  4  1  0
  1 10  1  0
  2 11  1  0
  2 12  1  0
  3 13  1  0
  4 14  1  0
  6 15  1  0
  8 16  1  0
  8 17  1  0
  9 18  1  0
  9 19  1  0
M  END
$$$$
