
     RDKit          3D

 19 21  0  0  0  0  0  0  0  0999 V2000
   -1.0249    0.1744    3.6714 C   0  0  0  0  0  0  0  0  0  0  0  0
    0.3733   -0.1235    3.7495 O   0  0  0  0  0  0  0  0  0  0  0  0
   -0.0365    0.9870    2.9529 C   0  0  0  0  0  0  0  0  0  0  0  0
    0.1205    0.9170    1.4501 C   0  0  0  0  0  0  0  0  0  0  0  0
   -0.4637   -0.2760    0.8880 O   0  0  0  0  0  0  0  0  0  0  0  0
    0.6352   -0.8170    0.1210 C   0  0  0  0  0  0  0  0  0  0  0  0
    1.8298   -0.7248    1.0969 C   0  0  0  0  0  0  0  0  0  0  0  0
    1.5523    0.8010    0.8872 C   0  0  0  0  0  0  0  0  0  0  0  0
    1.2122    0.4291   -0.5924 C   0  0  0  0  0  0  0  0  0  0  0  0
   -1.6140   -0.5427    3.1063 H   0  0  0  0  0  0  0  0  0  0  0  0
   -1.4712    0.5533    4.5893 H   0  0  0  0  0  0  0  0  0  0  0  0
    0.2352    1.9581    3.3727 H   0  0  0  0  0  0  0  0  0  0  0  0
   -0.3906    1.8017    1.0398 H   0  0  0  0  0  0  0  0  0  0  0  0
    0.3109   -1.7265   -0.3815 H   0  0  0  0  0  0  0  0  0  0  0  0
    1.6958   -1.1443    2.0919 H   0  0  0  0  0  0  0  0  0  0  0  0
    2.7742   -1.0338    0.6454 H   0  0  0  0  0  0  0  0  0  0  0  0
    2.2636    1.5811    1.1558 H   0  0  0  0  0  0  0  0  0  0  0  0
    0.5120    1.0629   -1.1428 H   0  0  0  0  0  0  0  0  0  0  0  0
    2.1009    0.2155   -1.1885 H   0  0  0  0  0  0  0  0  0  0  0  0
  1  2  1  0
  2  3  1  0
  3  4  1  0
  4  5  1  0
  5  6  1  0
  6  7  1  0
  7  8  1  0
  8  9  1  0
  3  1  1  0
  8  4  1  0
  9  6  1  0
  1 10  1  0
  1 11  1  0
  3 12  1  0
  4 13  1  0
  6 14  1  0
  7 15  1  0
  7 16  1  0
  8 17  1  0
  9 18  1  0
  9 19  1  0
M  END
$$$$
