
     RDKit          3D

 19 21  0  0  0  0  0  0  0  0999 V2000
   -0.6170   -2.6016   -1.9148 C   0  0  0  0  0  0  0  0  0  0  0  0
   -1.8319   -2.0128   -1.4480 O   0  0  0  0  0  0  0  0  0  0  0  0
   -0.6597   -1.1912   -1.5120 C   0  0  0  0  0  0  0  0  0  0  0  0
   -0.1070   -0.7102   -0.1971 C   0  0  0  0  0  0  0  0  0  0  0  0
    1.3324   -0.0977   -0.3001 C   0  0  0  0  0  0  0  0  0  0  0  0
    0.9783    1.3262    0.1771 C   0  0  0  0  0  0  0  0  0  0  0  0
    0.1081    1.0911    1.4310 C   0  0  0  0  0  0  0  0  0  0  0  0
   -0.8156    0.5735    0.3099 C   0  0  0  0  0  0  0  0  0  0  0  0
   -0.2505    1.5974   -0.5714 O   0  0  0  0  0  0  0  0  0  0  0  0
   -0.1684   -3.3370   -1.2471 H   0  0  0  0  0  0  0  0  0  0  0  0
   -0.5993   -2.8660   -2.9713 H   0  0  0  0  0  0  0  0  0  0  0  0
   -0.6894   -0.4323   -2.2945 H   0  0  0  0  0  0  0  0  0  0  0  0
   -0.1719   -1.5204    0.5353 H   0  0  0  0  0  0  0  0  0  0  0  0
    2.0631   -0.6001    0.3386 H   0  0  0  0  0  0  0  0  0  0  0  0
    1.7108   -0.0920   -1.3254 H   0  0  0  0  0  0  0  0  0  0  0  0
    1.7291    2.1122    0.1012 H   0  0  0  0  0  0  0  0  0  0  0  0
    0.4547    0.3997    2.2038 H   0  0  0  0  0  0  0  0  0  0  0  0
   -0.2544    2.0261    1.8587 H   0  0  0  0  0  0  0  0  0  0  0  0
   -1.9037    0.5779    0.3637 H   0  0  0  0  0  0  0  0  0  0  0  0
  1  2  1  0
  2  3  1  0
  3  4  1  0
  4  5  1  0
  5  6  1  0
  6  7  1  0
  7  8  1  0
  8  9  1  0
  3  1  1  0
  8  4  1  0
  9  6  1  0
  1 10  1  0
  1 11  1  0
  3 12  1  0
  4 13  1  0
  5 14  1  0
  5 15  1  0
  6 16  1  0
  7 17  1  0
  7 18  1  0
  8 19  1  0
M  END
$$$$
