gdb 2149	2.2897083	2.0517043	1.668647	2.1978	73.89	-0.24092	0.06336	0.30428	917.2652	0.157987	-422.541633	-422.533989	-422.533045	-422.573045	31.324
 OpenBabel02181911403D

 19 21  0  0  1  0  0  0  0  0999 V2000
    1.7465    2.6177    1.7188 O   0  0  0  0  0  0  0  0  0  0  0  0
    0.6313    1.7952    1.9094 C   0  0  2  0  0  0  0  0  0  0  0  0
    0.4321    0.9126    3.1718 C   0  0  0  0  0  0  0  0  0  0  0  0
   -0.3345    0.0150    2.1872 C   0  0  1  0  0  0  0  0  0  0  0  0
   -1.3527    0.8992    1.3359 C   0  0  2  0  0  0  0  0  0  0  0  0
   -0.5605    0.5125    0.0518 C   0  0  0  0  0  0  0  0  0  0  0  0
    0.6159    0.4705    1.0315 C   0  0  1  0  0  0  0  0  0  0  0  0
    1.8591   -0.0754    0.7678 O   0  0  0  0  0  0  0  0  0  0  0  0
   -0.7942    2.3097    1.6355 C   0  0  0  0  0  0  0  0  0  0  0  0
    1.9472    3.0738    2.5420 H   0  0  0  0  0  0  0  0  0  0  0  0
    1.3629    0.4287    3.4792 H   0  0  0  0  0  0  0  0  0  0  0  0
   -0.0774    1.3518    4.0356 H   0  0  0  0  0  0  0  0  0  0  0  0
   -0.5944   -1.0235    2.3803 H   0  0  0  0  0  0  0  0  0  0  0  0
   -2.4271    0.7421    1.4037 H   0  0  0  0  0  0  0  0  0  0  0  0
   -0.8020   -0.4932   -0.3041 H   0  0  0  0  0  0  0  0  0  0  0  0
   -0.5588    1.2182   -0.7856 H   0  0  0  0  0  0  0  0  0  0  0  0
    2.4946    0.6518    0.8184 H   0  0  0  0  0  0  0  0  0  0  0  0
   -0.8531    2.9786    0.7728 H   0  0  0  0  0  0  0  0  0  0  0  0
   -1.2444    2.8037    2.5023 H   0  0  0  0  0  0  0  0  0  0  0  0
  1 10  1  0  0  0  0
  2  1  1  6  0  0  0
  2  3  1  0  0  0  0
  3 11  1  0  0  0  0
  3 12  1  0  0  0  0
  4 13  1  1  0  0  0
  4  3  1  0  0  0  0
  5 14  1  1  0  0  0
  5  9  1  0  0  0  0
  5  4  1  0  0  0  0
  6  7  1  0  0  0  0
  6  5  1  0  0  0  0
  7  8  1  6  0  0  0
  7  2  1  0  0  0  0
  7  4  1  0  0  0  0
  8 17  1  0  0  0  0
  9  2  1  0  0  0  0
  9 19  1  0  0  0  0
 15  6  1  0  0  0  0
 16  6  1  0  0  0  0
 18  9  1  0  0  0  0
M TOR 0 0 1 2 3
M TOR 1 0 1 2 10
M TOR 2 0 1 2 11
M TOR 3 0 1 6 3
M TOR 4 0 1 6 5
M TOR 5 0 1 6 7
M TOR 6 0 1 8 4
M TOR 7 0 1 8 17
M TOR 8 0 1 8 18
M TOR 9 1 2 3 4
M TOR 10 1 2 3 6
M TOR 11 1 2 3 12
M TOR 12 1 6 3 4
M TOR 13 1 6 3 12
M TOR 14 1 6 5 4
M TOR 15 1 6 5 14
M TOR 16 1 6 5 15
M TOR 17 1 6 7 16
M TOR 18 1 8 4 3
M TOR 19 1 8 4 5
M TOR 20 1 8 4 13
M TOR 21 2 1 0 9
M TOR 22 2 1 6 5
M TOR 23 2 1 6 7
M TOR 24 2 1 8 4
M TOR 25 2 1 8 17
M TOR 26 2 1 8 18
M TOR 27 2 3 4 5
M TOR 28 2 3 4 8
M TOR 29 2 3 4 13
M TOR 30 2 3 6 5
M TOR 31 2 3 6 7
M TOR 32 3 2 1 8
M TOR 33 3 4 5 6
M TOR 34 3 4 5 14
M TOR 35 3 4 5 15
M TOR 36 3 4 8 17
M TOR 37 3 4 8 18
M TOR 38 3 6 1 8
M TOR 39 3 6 5 14
M TOR 40 3 6 5 15
M TOR 41 3 6 7 16
M TOR 42 4 3 2 10
M TOR 43 4 3 2 11
M TOR 44 4 3 6 7
M TOR 45 4 5 6 7
M TOR 46 4 8 1 6
M TOR 47 5 4 3 12
M TOR 48 5 4 8 17
M TOR 49 5 4 8 18
M TOR 50 5 6 1 8
M TOR 51 5 6 3 12
M TOR 52 5 6 7 16
M TOR 53 6 1 0 9
M TOR 54 6 1 2 10
M TOR 55 6 1 2 11
M TOR 56 6 1 8 17
M TOR 57 6 1 8 18
M TOR 58 6 3 2 10
M TOR 59 6 3 2 11
M TOR 60 6 3 4 8
M TOR 61 6 3 4 13
M TOR 62 6 5 4 8
M TOR 63 6 5 4 13
M TOR 64 7 6 1 8
M TOR 65 7 6 3 12
M TOR 66 7 6 5 14
M TOR 67 7 6 5 15
M TOR 68 8 1 0 9
M TOR 69 8 1 2 10
M TOR 70 8 1 2 11
M TOR 71 8 4 3 12
M TOR 72 8 4 5 14
M TOR 73 8 4 5 15
M  END
$$$$
