gdb 4639	5.2750583	0.5349708	0.5118229	2.982	82.01	-0.24913	0.03477	0.2839	2159.1659	0.154121	-422.503009	-422.492474	-422.49153	-422.540656	35.953
 OpenBabel02181911413D

 19 19  0  0  1  0  0  0  0  0999 V2000
   -0.9127   -2.9598    2.4720 C   0  0  0  0  0  0  0  0  0  0  0  0
   -0.7513   -1.4781    2.2538 C   0  0  2  0  0  0  0  0  0  0  0  0
   -1.8529   -0.7898    1.6444 O   0  0  0  0  0  0  0  0  0  0  0  0
   -0.6270   -0.8796    0.9189 C   0  0  1  0  0  0  0  0  0  0  0  0
    0.1201    0.4228    0.6840 C   0  0  0  0  0  0  0  0  0  0  0  0
   -0.4253    1.1972   -0.4263 C   0  0  0  0  0  0  0  0  0  0  0  0
   -0.8797    1.8175   -1.3535 C   0  0  0  0  0  0  0  0  0  0  0  0
   -1.4960    2.5744   -2.4424 C   0  0  0  0  0  0  0  0  0  0  0  0
   -2.4779    3.5022   -2.0016 O   0  0  0  0  0  0  0  0  0  0  0  0
   -1.5742   -3.1535    3.3227 H   0  0  0  0  0  0  0  0  0  0  0  0
   -1.3439   -3.4372    1.5881 H   0  0  0  0  0  0  0  0  0  0  0  0
    0.0554   -3.4254    2.6861 H   0  0  0  0  0  0  0  0  0  0  0  0
   -0.3059   -0.9296    3.0867 H   0  0  0  0  0  0  0  0  0  0  0  0
   -0.6690   -1.5428    0.0534 H   0  0  0  0  0  0  0  0  0  0  0  0
    0.0905    1.0166    1.6053 H   0  0  0  0  0  0  0  0  0  0  0  0
    1.1771    0.1945    0.4893 H   0  0  0  0  0  0  0  0  0  0  0  0
   -0.7395    3.1688   -2.9671 H   0  0  0  0  0  0  0  0  0  0  0  0
   -1.9133    1.8712   -3.1814 H   0  0  0  0  0  0  0  0  0  0  0  0
   -3.0762    3.0279   -1.4146 H   0  0  0  0  0  0  0  0  0  0  0  0
  1 12  1  0  0  0  0
  1 10  1  0  0  0  0
  2  1  1  0  0  0  0
  2 13  1  1  0  0  0
  3  2  1  0  0  0  0
  4 14  1  6  0  0  0
  4  3  1  0  0  0  0
  4  2  1  0  0  0  0
  5  4  1  0  0  0  0
  5 15  1  0  0  0  0
  6  5  1  0  0  0  0
  7  6  3  0  0  0  0
  8  9  1  0  0  0  0
  8  7  1  0  0  0  0
  9 19  1  0  0  0  0
 11  1  1  0  0  0  0
 16  5  1  0  0  0  0
 17  8  1  0  0  0  0
 18  8  1  0  0  0  0
M TOR 0 0 1 2 3
M TOR 1 0 1 3 4
M TOR 2 0 1 3 13
M TOR 3 1 2 3 4
M TOR 4 1 2 3 13
M TOR 5 1 3 4 5
M TOR 6 1 3 4 14
M TOR 7 1 3 4 15
M TOR 8 2 1 0 9
M TOR 9 2 1 0 10
M TOR 10 2 1 0 11
M TOR 11 2 3 1 12
M TOR 12 2 3 4 5
M TOR 13 2 3 4 14
M TOR 14 2 3 4 15
M TOR 15 3 1 0 9
M TOR 16 3 1 0 10
M TOR 17 3 1 0 11
M TOR 18 3 4 5 6
M TOR 19 4 3 1 12
M TOR 20 4 5 6 7
M TOR 21 5 4 3 13
M TOR 22 5 6 7 8
M TOR 23 5 6 7 16
M TOR 24 5 6 7 17
M TOR 25 6 5 4 14
M TOR 26 6 5 4 15
M TOR 27 6 7 8 18
M  END
$$$$
