gdb 71	5.7206048	0.7380418	0.6618257	0.9037	79.33	-0.21246	0.02346	0.23592000000000002	1694.338	0.156222	-422.568543	-422.559247	-422.558303	-422.605038	32.333
 OpenBabel02181911403D

 19 19  0  0  0  0  0  0  0  0999 V2000
    6.1165    1.1643   -0.8400 C   0  0  0  0  0  0  0  0  0  0  0  0
    5.0423    2.1200   -0.3505 C   0  0  0  0  0  0  0  0  0  0  0  0
    3.8273    1.4059   -0.2329 O   0  0  0  0  0  0  0  0  0  0  0  0
    2.7595    2.2016    0.2163 C   0  0  0  0  0  0  0  0  0  0  0  0
    1.5430    1.3428    0.2989 C   0  0  0  0  0  0  0  0  0  0  0  0
    1.3092    0.0312    0.0359 C   0  0  0  0  0  0  0  0  0  0  0  0
   -0.0818   -0.1887    0.3156 C   0  0  0  0  0  0  0  0  0  0  0  0
   -0.5786    1.0050    0.7250 C   0  0  0  0  0  0  0  0  0  0  0  0
    0.4018    1.9535    0.7208 O   0  0  0  0  0  0  0  0  0  0  0  0
    6.2448    0.3384   -0.1348 H   0  0  0  0  0  0  0  0  0  0  0  0
    5.8429    0.7460   -1.8127 H   0  0  0  0  0  0  0  0  0  0  0  0
    7.0724    1.6865   -0.9422 H   0  0  0  0  0  0  0  0  0  0  0  0
    5.3225    2.5535    0.6244 H   0  0  0  0  0  0  0  0  0  0  0  0
    4.9204    2.9612   -1.0537 H   0  0  0  0  0  0  0  0  0  0  0  0
    2.9823    2.6438    1.2044 H   0  0  0  0  0  0  0  0  0  0  0  0
    2.5815    3.0504   -0.4689 H   0  0  0  0  0  0  0  0  0  0  0  0
    2.0382   -0.6815   -0.3120 H   0  0  0  0  0  0  0  0  0  0  0  0
   -0.6296   -1.1133    0.2220 H   0  0  0  0  0  0  0  0  0  0  0  0
   -1.5516    1.3430    1.0402 H   0  0  0  0  0  0  0  0  0  0  0  0
  1  2  1  0  0  0  0
  1 10  1  0  0  0  0
  2  3  1  0  0  0  0
  2 13  1  0  0  0  0
  3  4  1  0  0  0  0
  4  5  1  0  0  0  0
  4 15  1  0  0  0  0
  5  9  1  0  0  0  0
  6  5  2  0  0  0  0
  6  7  1  0  0  0  0
  7  8  2  0  0  0  0
  8 19  1  0  0  0  0
  9  8  1  0  0  0  0
 11  1  1  0  0  0  0
 12  1  1  0  0  0  0
 14  2  1  0  0  0  0
 16  4  1  0  0  0  0
 17  6  1  0  0  0  0
 18  7  1  0  0  0  0
M TOR 0 0 1 2 3
M TOR 1 1 2 3 4
M TOR 2 1 2 3 14
M TOR 3 1 2 3 15
M TOR 4 2 1 0 9
M TOR 5 2 1 0 10
M TOR 6 2 1 0 11
M TOR 7 2 3 4 5
M TOR 8 2 3 4 8
M TOR 9 3 2 1 12
M TOR 10 3 2 1 13
M TOR 11 3 4 5 6
M TOR 12 3 4 5 16
M TOR 13 3 4 8 7
M TOR 14 4 5 6 7
M TOR 15 4 5 6 17
M TOR 16 4 8 7 6
M TOR 17 4 8 7 18
M TOR 18 5 4 3 14
M TOR 19 5 4 3 15
M TOR 20 5 4 8 7
M TOR 21 5 6 7 8
M TOR 22 5 6 7 18
M TOR 23 6 5 4 8
M TOR 24 7 6 5 16
M TOR 25 8 4 3 14
M TOR 26 8 4 3 15
M TOR 27 8 4 5 16
M TOR 28 8 7 6 17
M  END
$$$$
