
     RDKit          3D

 19 19  0  0  0  0  0  0  0  0999 V2000
    1.5059   -0.1179    0.0585 C   0  0  0  0  0  0  0  0  0  0  0  0
    0.0519   -0.0517    0.0476 C   0  0  0  0  0  0  0  0  0  0  0  0
   -1.1524   -0.0196    0.0376 C   0  0  0  0  0  0  0  0  0  0  0  0
   -2.6122    0.0734    0.0394 C   0  0  0  0  0  0  0  0  0  0  0  0
   -3.0875    0.9987    1.0204 O   0  0  0  0  0  0  0  0  0  0  0  0
   -3.1680    0.4377   -1.3431 C   0  0  0  0  0  0  0  0  0  0  0  0
   -2.7210    1.7569   -1.9248 C   0  0  0  0  0  0  0  0  0  0  0  0
   -4.4511   -0.1595   -1.7323 C   0  0  0  0  0  0  0  0  0  0  0  0
   -3.2155   -0.6706   -2.2470 O   0  0  0  0  0  0  0  0  0  0  0  0
    1.8728   -0.6652    0.9335 H   0  0  0  0  0  0  0  0  0  0  0  0
    1.8807   -0.6281   -0.8354 H   0  0  0  0  0  0  0  0  0  0  0  0
    1.9504    0.8830    0.0799 H   0  0  0  0  0  0  0  0  0  0  0  0
   -3.0333   -0.9035    0.3063 H   0  0  0  0  0  0  0  0  0  0  0  0
   -2.4002    1.6597    1.1496 H   0  0  0  0  0  0  0  0  0  0  0  0
   -3.0194    2.5799   -1.2680 H   0  0  0  0  0  0  0  0  0  0  0  0
   -1.6323    1.7785   -2.0341 H   0  0  0  0  0  0  0  0  0  0  0  0
   -3.1715    1.9133   -2.9074 H   0  0  0  0  0  0  0  0  0  0  0  0
   -4.9782   -0.8155   -1.0408 H   0  0  0  0  0  0  0  0  0  0  0  0
   -5.0821    0.3523   -2.4575 H   0  0  0  0  0  0  0  0  0  0  0  0
  1  2  1  0
  2  3  3  0
  3  4  1  0
  4  5  1  0
  4  6  1  0
  6  7  1  0
  6  8  1  0
  8  9  1  0
  9  6  1  0
  1 10  1  0
  1 11  1  0
  1 12  1  0
  4 13  1  0
  5 14  1  0
  7 15  1  0
  7 16  1  0
  7 17  1  0
  8 18  1  0
  8 19  1  0
M  END
$$$$
