gdb 3915	3.4663246	1.1213626	0.9904734	4.065	75.53	-0.26609	0.01107	0.27716	1253.7766	0.156956	-422.575473	-422.566906	-422.565962	-422.608957	31.712
 OpenBabel02181911413D

 19 20  0  0  1  0  0  0  0  0999 V2000
   -1.8001    4.4245    0.2329 C   0  0  0  0  0  0  0  0  0  0  0  0
   -1.0006    3.1340    0.1819 C   0  0  1  0  0  0  0  0  0  0  0  0
   -1.3488    1.9896    1.1767 C   0  0  0  0  0  0  0  0  0  0  0  0
   -1.0949    0.9749    0.0334 C   0  0  2  0  0  0  0  0  0  0  0  0
   -1.7099   -0.4247   -0.0877 C   0  0  0  0  0  0  0  0  0  0  0  0
   -0.3713   -1.0252   -0.0692 O   0  0  0  0  0  0  0  0  0  0  0  0
    0.2252    0.2077    0.0402 C   0  0  0  0  0  0  0  0  0  0  0  0
    1.3875    0.4534    0.1080 O   0  0  0  0  0  0  0  0  0  0  0  0
   -1.2532    2.1340   -0.9828 C   0  0  0  0  0  0  0  0  0  0  0  0
   -1.6145    4.9698    1.1648 H   0  0  0  0  0  0  0  0  0  0  0  0
   -1.5363    5.0878   -0.5982 H   0  0  0  0  0  0  0  0  0  0  0  0
   -2.8761    4.2239    0.1717 H   0  0  0  0  0  0  0  0  0  0  0  0
    0.0713    3.3458    0.2436 H   0  0  0  0  0  0  0  0  0  0  0  0
   -0.7452    1.8878    2.0812 H   0  0  0  0  0  0  0  0  0  0  0  0
   -2.4089    2.0052    1.4522 H   0  0  0  0  0  0  0  0  0  0  0  0
   -2.2993   -0.7704    0.7651 H   0  0  0  0  0  0  0  0  0  0  0  0
   -2.2205   -0.6499   -1.0271 H   0  0  0  0  0  0  0  0  0  0  0  0
   -0.5717    2.1498   -1.8362 H   0  0  0  0  0  0  0  0  0  0  0  0
   -2.2850    2.1923   -1.3460 H   0  0  0  0  0  0  0  0  0  0  0  0
  1 10  1  0  0  0  0
  2  1  1  0  0  0  0
  2 13  1  1  0  0  0
  2  3  1  0  0  0  0
  3 15  1  0  0  0  0
  3 14  1  0  0  0  0
  4  7  1  1  0  0  0
  4  3  1  0  0  0  0
  5  6  1  0  0  0  0
  5  4  1  0  0  0  0
  5 16  1  0  0  0  0
  6  7  1  0  0  0  0
  7  8  2  0  0  0  0
  9  4  1  0  0  0  0
  9  2  1  0  0  0  0
 11  1  1  0  0  0  0
 12  1  1  0  0  0  0
 17  5  1  0  0  0  0
 18  9  1  0  0  0  0
 19  9  1  0  0  0  0
M TOR 0 0 1 2 3
M TOR 1 0 1 2 13
M TOR 2 0 1 2 14
M TOR 3 0 1 8 3
M TOR 4 0 1 8 17
M TOR 5 0 1 8 18
M TOR 6 1 2 3 4
M TOR 7 1 2 3 6
M TOR 8 1 2 3 8
M TOR 9 1 8 3 4
M TOR 10 1 8 3 6
M TOR 11 2 1 0 9
M TOR 12 2 1 0 10
M TOR 13 2 1 0 11
M TOR 14 2 1 8 17
M TOR 15 2 1 8 18
M TOR 16 2 3 4 5
M TOR 17 2 3 4 15
M TOR 18 2 3 4 16
M TOR 19 2 3 6 5
M TOR 20 2 3 6 7
M TOR 21 2 3 8 17
M TOR 22 2 3 8 18
M TOR 23 3 2 1 12
M TOR 24 3 4 5 6
M TOR 25 3 8 1 12
M TOR 26 4 3 2 13
M TOR 27 4 3 2 14
M TOR 28 4 3 6 7
M TOR 29 4 3 8 17
M TOR 30 4 3 8 18
M TOR 31 4 5 6 7
M TOR 32 5 4 3 8
M TOR 33 5 6 3 8
M TOR 34 6 3 2 13
M TOR 35 6 3 2 14
M TOR 36 6 3 4 15
M TOR 37 6 3 4 16
M TOR 38 6 3 8 17
M TOR 39 6 3 8 18
M TOR 40 6 5 4 15
M TOR 41 6 5 4 16
M TOR 42 7 6 3 8
M TOR 43 8 1 0 9
M TOR 44 8 1 0 10
M TOR 45 8 1 0 11
M TOR 46 8 1 2 13
M TOR 47 8 1 2 14
M TOR 48 8 3 2 13
M TOR 49 8 3 2 14
M TOR 50 8 3 4 15
M TOR 51 8 3 4 16
M  END
$$$$
