gdb 2865	2.0792982	1.7222485	1.6010444	2.4367	74.78	-0.23703	0.06246	0.29949	999.3528	0.156007	-422.511513	-422.502952	-422.502008	-422.543907	33.589
 OpenBabel02181911413D

 19 21  0  0  1  0  0  0  0  0999 V2000
   -0.5578   -0.9867    3.1891 C   0  0  0  0  0  0  0  0  0  0  0  0
   -1.2245    0.1412    2.4527 C   0  0  1  0  0  0  0  0  0  0  0  0
   -2.0937    1.2146    3.1662 C   0  0  0  0  0  0  0  0  0  0  0  0
   -2.8257    1.3881    1.8363 C   0  0  1  0  0  0  0  0  0  0  0  0
   -1.7562    1.2526    0.7169 C   0  0  1  0  0  0  0  0  0  0  0  0
   -0.4220    0.9794    1.4009 C   0  0  2  0  0  0  0  0  0  0  0  0
    0.4779    0.2248    0.6184 O   0  0  0  0  0  0  0  0  0  0  0  0
   -2.3863    0.0378    1.3378 C   0  0  1  0  0  0  0  0  0  0  0  0
   -3.0268   -1.0073    0.7224 O   0  0  0  0  0  0  0  0  0  0  0  0
    0.1163   -0.6008    3.9632 H   0  0  0  0  0  0  0  0  0  0  0  0
   -1.2884   -1.6382    3.6813 H   0  0  0  0  0  0  0  0  0  0  0  0
    0.0419   -1.5954    2.5053 H   0  0  0  0  0  0  0  0  0  0  0  0
   -2.7416    0.7817    3.9350 H   0  0  0  0  0  0  0  0  0  0  0  0
   -1.5600    2.0760    3.5848 H   0  0  0  0  0  0  0  0  0  0  0  0
   -3.7505    1.9122    1.6296 H   0  0  0  0  0  0  0  0  0  0  0  0
   -1.9325    1.6700   -0.2667 H   0  0  0  0  0  0  0  0  0  0  0  0
    0.1566    1.8235    1.7924 H   0  0  0  0  0  0  0  0  0  0  0  0
   -0.0395   -0.4177    0.1175 H   0  0  0  0  0  0  0  0  0  0  0  0
   -3.6947   -1.3583    1.3226 H   0  0  0  0  0  0  0  0  0  0  0  0
  1 11  1  0  0  0  0
  1 10  1  0  0  0  0
  2  3  1  0  0  0  0
  2  1  1  1  0  0  0
  3 14  1  0  0  0  0
  3 13  1  0  0  0  0
  4 15  1  6  0  0  0
  4  3  1  0  0  0  0
  5 16  1  6  0  0  0
  5  8  1  0  0  0  0
  5  6  1  0  0  0  0
  5  4  1  0  0  0  0
  6 17  1  1  0  0  0
  6  2  1  0  0  0  0
  7  6  1  0  0  0  0
  8  9  1  6  0  0  0
  8  4  1  0  0  0  0
  8  2  1  0  0  0  0
  9 19  1  0  0  0  0
 12  1  1  0  0  0  0
 18  7  1  0  0  0  0
M TOR 0 0 1 2 3
M TOR 1 0 1 2 12
M TOR 2 0 1 2 13
M TOR 3 0 1 5 4
M TOR 4 0 1 5 6
M TOR 5 0 1 5 16
M TOR 6 0 1 7 3
M TOR 7 0 1 7 4
M TOR 8 0 1 7 8
M TOR 9 1 2 3 4
M TOR 10 1 2 3 7
M TOR 11 1 2 3 14
M TOR 12 1 5 4 3
M TOR 13 1 5 4 7
M TOR 14 1 5 4 15
M TOR 15 1 5 6 17
M TOR 16 1 7 3 4
M TOR 17 1 7 3 14
M TOR 18 1 7 4 15
M TOR 19 1 7 8 18
M TOR 20 2 1 0 9
M TOR 21 2 1 0 10
M TOR 22 2 1 0 11
M TOR 23 2 1 5 4
M TOR 24 2 1 5 6
M TOR 25 2 1 5 16
M TOR 26 2 1 7 4
M TOR 27 2 1 7 8
M TOR 28 2 3 4 5
M TOR 29 2 3 4 7
M TOR 30 2 3 4 15
M TOR 31 2 3 7 8
M TOR 32 3 2 1 5
M TOR 33 3 4 5 6
M TOR 34 3 4 5 16
M TOR 35 3 4 7 8
M TOR 36 3 7 1 5
M TOR 37 3 7 4 5
M TOR 38 3 7 4 15
M TOR 39 3 7 8 18
M TOR 40 4 3 2 12
M TOR 41 4 3 2 13
M TOR 42 4 5 6 17
M TOR 43 4 7 3 14
M TOR 44 4 7 8 18
M TOR 45 5 1 0 9
M TOR 46 5 1 0 10
M TOR 47 5 1 0 11
M TOR 48 5 1 2 12
M TOR 49 5 1 2 13
M TOR 50 5 1 7 8
M TOR 51 5 4 3 14
M TOR 52 5 4 7 8
M TOR 53 6 5 1 7
M TOR 54 6 5 4 7
M TOR 55 6 5 4 15
M TOR 56 7 1 0 9
M TOR 57 7 1 0 10
M TOR 58 7 1 0 11
M TOR 59 7 1 2 12
M TOR 60 7 1 2 13
M TOR 61 7 1 5 16
M TOR 62 7 3 2 12
M TOR 63 7 3 2 13
M TOR 64 7 4 5 16
M TOR 65 8 7 3 14
M TOR 66 8 7 4 15
M  END
$$$$
