
     RDKit          3D

 19 21  0  0  0  0  0  0  0  0999 V2000
    0.4478    0.1261    0.0586 O   0  0  0  0  0  0  0  0  0  0  0  0
   -0.8069   -0.0756    0.6640 C   0  0  0  0  0  0  0  0  0  0  0  0
   -1.9450    0.7524    0.0356 C   0  0  0  0  0  0  0  0  0  0  0  0
   -2.4876    1.0191    1.4613 C   0  0  0  0  0  0  0  0  0  0  0  0
   -3.7525    0.2555    2.0063 C   0  0  0  0  0  0  0  0  0  0  0  0
   -4.3462    1.6186    2.3859 C   0  0  0  0  0  0  0  0  0  0  0  0
   -4.4204    2.3934    1.1836 O   0  0  0  0  0  0  0  0  0  0  0  0
   -3.1641    2.3281    1.8735 C   0  0  0  0  0  0  0  0  0  0  0  0
   -1.1027    0.6115    2.0289 C   0  0  0  0  0  0  0  0  0  0  0  0
    1.0931   -0.4349    0.5006 H   0  0  0  0  0  0  0  0  0  0  0  0
   -1.0645   -1.1439    0.7003 H   0  0  0  0  0  0  0  0  0  0  0  0
   -1.5360    1.6628   -0.4131 H   0  0  0  0  0  0  0  0  0  0  0  0
   -2.6049    0.2636   -0.6833 H   0  0  0  0  0  0  0  0  0  0  0  0
   -4.3380   -0.3163    1.2813 H   0  0  0  0  0  0  0  0  0  0  0  0
   -3.5189   -0.3727    2.8704 H   0  0  0  0  0  0  0  0  0  0  0  0
   -5.0358    1.8718    3.1827 H   0  0  0  0  0  0  0  0  0  0  0  0
   -2.7066    3.2678    2.1649 H   0  0  0  0  0  0  0  0  0  0  0  0
   -0.4503    1.4827    2.1507 H   0  0  0  0  0  0  0  0  0  0  0  0
   -1.0743    0.0069    2.9398 H   0  0  0  0  0  0  0  0  0  0  0  0
  1  2  1  0
  2  3  1  0
  3  4  1  0
  4  5  1  0
  5  6  1  0
  6  7  1  0
  7  8  1  0
  4  9  1  0
  9  2  1  0
  8  4  1  0
  8  6  1  0
  1 10  1  0
  2 11  1  0
  3 12  1  0
  3 13  1  0
  5 14  1  0
  5 15  1  0
  6 16  1  0
  8 17  1  0
  9 18  1  0
  9 19  1  0
M  END
$$$$
