gdb 5282	2.0246542	1.6835096	1.0771076	1.5944	77.84	-0.24062	-0.02755	0.21307	1164.039	0.155221	-422.52801	-422.518958	-422.518014	-422.561977	32.855
 OpenBabel02181911423D

 19 20  0  0  1  0  0  0  0  0999 V2000
    1.2453   -0.2787    1.0749 C   0  0  0  0  0  0  0  0  0  0  0  0
    0.8574    0.2278   -0.3209 C   0  0  0  0  0  0  0  0  0  0  0  0
    1.6014   -0.4790   -1.4074 C   0  0  2  0  0  0  0  0  0  0  0  0
    3.0226   -0.3415   -1.4524 O   0  0  0  0  0  0  0  0  0  0  0  0
    2.9822   -0.3472   -2.9091 C   0  0  0  0  0  0  0  0  0  0  0  0
    1.4858   -0.6102   -2.8883 C   0  0  1  0  0  0  0  0  0  0  0  0
    1.2353   -1.8511   -2.0244 C   0  0  2  0  0  0  0  0  0  0  0  0
   -0.1642   -2.3007   -1.9163 C   0  0  0  0  0  0  0  0  0  0  0  0
   -1.1355   -1.5988   -2.1058 O   0  0  0  0  0  0  0  0  0  0  0  0
    0.9852   -1.3352    1.1962 H   0  0  0  0  0  0  0  0  0  0  0  0
    2.3211   -0.1751    1.2423 H   0  0  0  0  0  0  0  0  0  0  0  0
    0.7226    0.2886    1.8500 H   0  0  0  0  0  0  0  0  0  0  0  0
   -0.2138    0.1023   -0.4997 H   0  0  0  0  0  0  0  0  0  0  0  0
    1.0760    1.2993   -0.4028 H   0  0  0  0  0  0  0  0  0  0  0  0
    3.2485    0.6406   -3.2998 H   0  0  0  0  0  0  0  0  0  0  0  0
    3.6362   -1.1118   -3.3427 H   0  0  0  0  0  0  0  0  0  0  0  0
    0.7229   -0.2535   -3.5662 H   0  0  0  0  0  0  0  0  0  0  0  0
    1.9955   -2.6258   -1.9716 H   0  0  0  0  0  0  0  0  0  0  0  0
   -0.2845   -3.3683   -1.6287 H   0  0  0  0  0  0  0  0  0  0  0  0
  1 10  1  0  0  0  0
  1 11  1  0  0  0  0
  1 12  1  0  0  0  0
  2  1  1  0  0  0  0
  3  2  1  1  0  0  0
  4  3  1  0  0  0  0
  5  6  1  0  0  0  0
  5  4  1  0  0  0  0
  6 17  1  6  0  0  0
  6  7  1  0  0  0  0
  6  3  1  0  0  0  0
  7 18  1  1  0  0  0
  7  8  1  0  0  0  0
  7  3  1  0  0  0  0
  8 19  1  0  0  0  0
  9  8  2  0  0  0  0
 13  2  1  0  0  0  0
 14  2  1  0  0  0  0
 15  5  1  0  0  0  0
 16  5  1  0  0  0  0
M TOR 0 0 1 2 3
M TOR 1 0 1 2 5
M TOR 2 0 1 2 6
M TOR 3 1 2 3 4
M TOR 4 1 2 5 4
M TOR 5 1 2 5 6
M TOR 6 1 2 5 16
M TOR 7 1 2 6 7
M TOR 8 1 2 6 17
M TOR 9 2 1 0 9
M TOR 10 2 1 0 10
M TOR 11 2 1 0 11
M TOR 12 2 3 4 5
M TOR 13 2 3 4 14
M TOR 14 2 3 4 15
M TOR 15 2 5 4 14
M TOR 16 2 5 4 15
M TOR 17 2 5 6 7
M TOR 18 2 5 6 17
M TOR 19 2 6 5 4
M TOR 20 2 6 5 16
M TOR 21 2 6 7 8
M TOR 22 2 6 7 18
M TOR 23 3 2 1 12
M TOR 24 3 2 1 13
M TOR 25 3 2 5 6
M TOR 26 3 2 5 16
M TOR 27 3 2 6 7
M TOR 28 3 2 6 17
M TOR 29 3 4 5 6
M TOR 30 3 4 5 16
M TOR 31 4 3 2 6
M TOR 32 4 5 6 7
M TOR 33 4 5 6 17
M TOR 34 5 2 1 12
M TOR 35 5 2 1 13
M TOR 36 5 6 7 8
M TOR 37 5 6 7 18
M TOR 38 6 2 1 12
M TOR 39 6 2 1 13
M TOR 40 6 5 4 14
M TOR 41 6 5 4 15
M TOR 42 7 6 5 16
M TOR 43 8 7 6 17
M  END
$$$$
