gdb 1070	2.729773	1.0421485	0.9531926	4.0875	78.69	-0.25249	-0.04271	0.20978	1326.4872	0.153597	-422.578436	-422.568505	-422.567561	-422.61384	35.434
 OpenBabel02181911403D

 19 19  0  0  1  0  0  0  0  0999 V2000
    5.6577    2.0549   -0.5666 C   0  0  0  0  0  0  0  0  0  0  0  0
    4.2474    2.6070   -0.6264 C   0  0  0  0  0  0  0  0  0  0  0  0
    4.0132    3.7635   -0.3476 O   0  0  0  0  0  0  0  0  0  0  0  0
    3.1300    1.6698   -1.0412 C   0  0  2  0  0  0  0  0  0  0  0  0
    3.4899    0.2596   -1.4749 C   0  0  0  0  0  0  0  0  0  0  0  0
    1.9475    2.3603   -1.6680 C   0  0  0  0  0  0  0  0  0  0  0  0
    1.8366    1.9369   -0.2268 C   0  0  1  0  0  0  0  0  0  0  0  0
    0.9327    0.8262    0.1537 C   0  0  0  0  0  0  0  0  0  0  0  0
    0.4019    0.7318    1.2328 O   0  0  0  0  0  0  0  0  0  0  0  0
    5.7105    1.1907    0.1042 H   0  0  0  0  0  0  0  0  0  0  0  0
    5.9836    1.7099   -1.5539 H   0  0  0  0  0  0  0  0  0  0  0  0
    6.3301    2.8372   -0.2145 H   0  0  0  0  0  0  0  0  0  0  0  0
    3.9266   -0.3253   -0.6593 H   0  0  0  0  0  0  0  0  0  0  0  0
    2.6135   -0.2834   -1.8346 H   0  0  0  0  0  0  0  0  0  0  0  0
    4.2116    0.2796   -2.2977 H   0  0  0  0  0  0  0  0  0  0  0  0
    2.0342    3.4247   -1.8487 H   0  0  0  0  0  0  0  0  0  0  0  0
    1.3825    1.7955   -2.4030 H   0  0  0  0  0  0  0  0  0  0  0  0
    1.9317    2.7167    0.5198 H   0  0  0  0  0  0  0  0  0  0  0  0
    0.7441    0.0699   -0.6420 H   0  0  0  0  0  0  0  0  0  0  0  0
  1 12  1  0  0  0  0
  1 10  1  0  0  0  0
  2  1  1  0  0  0  0
  2  3  2  0  0  0  0
  4  2  1  1  0  0  0
  4  7  1  0  0  0  0
  5  4  1  0  0  0  0
  5 13  1  0  0  0  0
  6  4  1  0  0  0  0
  6  7  1  0  0  0  0
  7  8  1  0  0  0  0
  7 18  1  1  0  0  0
  8  9  2  0  0  0  0
 11  1  1  0  0  0  0
 14  5  1  0  0  0  0
 15  5  1  0  0  0  0
 16  6  1  0  0  0  0
 17  6  1  0  0  0  0
 19  8  1  0  0  0  0
M TOR 0 0 1 3 4
M TOR 1 0 1 3 5
M TOR 2 0 1 3 6
M TOR 3 1 3 4 12
M TOR 4 1 3 4 13
M TOR 5 1 3 4 14
M TOR 6 1 3 5 6
M TOR 7 1 3 5 15
M TOR 8 1 3 5 16
M TOR 9 1 3 6 7
M TOR 10 1 3 6 17
M TOR 11 2 1 0 9
M TOR 12 2 1 0 10
M TOR 13 2 1 0 11
M TOR 14 2 1 3 4
M TOR 15 2 1 3 5
M TOR 16 2 1 3 6
M TOR 17 3 1 0 9
M TOR 18 3 1 0 10
M TOR 19 3 1 0 11
M TOR 20 3 5 6 7
M TOR 21 3 5 6 17
M TOR 22 3 6 5 15
M TOR 23 3 6 5 16
M TOR 24 3 6 7 8
M TOR 25 3 6 7 18
M TOR 26 4 3 5 6
M TOR 27 4 3 5 15
M TOR 28 4 3 5 16
M TOR 29 4 3 6 7
M TOR 30 4 3 6 17
M TOR 31 5 3 4 12
M TOR 32 5 3 4 13
M TOR 33 5 3 4 14
M TOR 34 5 6 7 8
M TOR 35 5 6 7 18
M TOR 36 6 3 4 12
M TOR 37 6 3 4 13
M TOR 38 6 3 4 14
M TOR 39 7 6 5 15
M TOR 40 7 6 5 16
M TOR 41 8 7 6 17
M  END
$$$$
