gdb 6042	2.7237138	0.9960937	0.8155867	1.7299	79.7	-0.23947	0.03513	0.2746	1464.9703	0.152612	-422.490981	-422.480644	-422.4797	-422.5266	37.26
 OpenBabel02181911423D

 19 19  0  0  1  0  0  0  0  0999 V2000
    0.3474   -0.8126    0.0893 C   0  0  0  0  0  0  0  0  0  0  0  0
    0.8150    0.5952    0.4124 C   0  0  0  0  0  0  0  0  0  0  0  0
    1.6260    1.0517   -0.6629 O   0  0  0  0  0  0  0  0  0  0  0  0
    2.1112    2.3327   -0.4785 C   0  0  1  0  0  0  0  0  0  0  0  0
    3.3481    2.5620    0.3595 C   0  0  0  0  0  0  0  0  0  0  0  0
    3.3946    2.7000   -1.1655 C   0  0  2  0  0  0  0  0  0  0  0  0
    3.3926    3.9996   -1.6950 O   0  0  0  0  0  0  0  0  0  0  0  0
    4.1192    1.7170   -1.9268 C   0  0  0  0  0  0  0  0  0  0  0  0
    4.7708    0.9457   -2.5797 C   0  0  0  0  0  0  0  0  0  0  0  0
   -0.2840   -1.1972    0.8957 H   0  0  0  0  0  0  0  0  0  0  0  0
   -0.2294   -0.8217   -0.8396 H   0  0  0  0  0  0  0  0  0  0  0  0
    1.2034   -1.4821   -0.0329 H   0  0  0  0  0  0  0  0  0  0  0  0
   -0.0450    1.2713    0.5449 H   0  0  0  0  0  0  0  0  0  0  0  0
    1.3904    0.6136    1.3508 H   0  0  0  0  0  0  0  0  0  0  0  0
    1.3609    3.1249   -0.4721 H   0  0  0  0  0  0  0  0  0  0  0  0
    3.4200    3.4820    0.9286 H   0  0  0  0  0  0  0  0  0  0  0  0
    3.8321    1.6909    0.7856 H   0  0  0  0  0  0  0  0  0  0  0  0
    4.3083    4.2995   -1.7290 H   0  0  0  0  0  0  0  0  0  0  0  0
    5.3238    0.2515   -3.1625 H   0  0  0  0  0  0  0  0  0  0  0  0
  1  2  1  0  0  0  0
  1 10  1  0  0  0  0
  2 13  1  0  0  0  0
  2 14  1  0  0  0  0
  3  4  1  0  0  0  0
  3  2  1  0  0  0  0
  4 15  1  1  0  0  0
  4  5  1  0  0  0  0
  5 17  1  0  0  0  0
  5 16  1  0  0  0  0
  6  8  1  6  0  0  0
  6  4  1  0  0  0  0
  6  5  1  0  0  0  0
  7  6  1  0  0  0  0
  9  8  3  0  0  0  0
 11  1  1  0  0  0  0
 12  1  1  0  0  0  0
 18  7  1  0  0  0  0
 19  9  1  0  0  0  0
M TOR 0 0 1 2 3
M TOR 1 1 2 3 4
M TOR 2 1 2 3 5
M TOR 3 1 2 3 14
M TOR 4 2 1 0 9
M TOR 5 2 1 0 10
M TOR 6 2 1 0 11
M TOR 7 2 3 4 5
M TOR 8 2 3 4 15
M TOR 9 2 3 4 16
M TOR 10 2 3 5 6
M TOR 11 2 3 5 7
M TOR 12 3 2 1 12
M TOR 13 3 2 1 13
M TOR 14 3 4 5 6
M TOR 15 3 4 5 7
M TOR 16 3 5 4 15
M TOR 17 3 5 4 16
M TOR 18 3 5 6 17
M TOR 19 3 5 7 8
M TOR 20 4 5 3 14
M TOR 21 4 5 6 17
M TOR 22 4 5 7 8
M TOR 23 5 7 8 18
M TOR 24 6 5 3 14
M TOR 25 6 5 4 15
M TOR 26 6 5 4 16
M TOR 27 6 5 7 8
M TOR 28 7 5 3 14
M TOR 29 7 5 4 15
M TOR 30 7 5 4 16
M TOR 31 7 5 6 17
M  END
$$$$
