gdb 4099	1.9514285	1.6971641	1.5698826	3.0392	75.09	-0.24357	-0.03112	0.21245	1025.9963	0.155564	-422.556499	-422.547606	-422.546662	-422.589843	33.452
 OpenBabel02181911413D

 19 20  0  0  1  0  0  0  0  0999 V2000
   -0.8239    2.0782    1.0703 C   0  0  0  0  0  0  0  0  0  0  0  0
   -1.1830    1.0550    0.0141 C   0  0  2  0  0  0  0  0  0  0  0  0
   -1.8394    1.5270   -1.3200 C   0  0  1  0  0  0  0  0  0  0  0  0
   -1.0246    1.8263   -2.4178 O   0  0  0  0  0  0  0  0  0  0  0  0
   -2.7573    0.2625   -1.3175 C   0  0  0  0  0  0  0  0  0  0  0  0
   -2.2619   -0.1030    0.1115 C   0  0  1  0  0  0  0  0  0  0  0  0
   -1.1403   -1.1752    0.1137 C   0  0  0  0  0  0  0  0  0  0  0  0
   -0.1624   -0.0608   -0.2782 C   0  0  0  0  0  0  0  0  0  0  0  0
    0.9382   -0.0397   -0.7599 O   0  0  0  0  0  0  0  0  0  0  0  0
   -0.5128    1.6077    2.0092 H   0  0  0  0  0  0  0  0  0  0  0  0
    0.0038    2.7046    0.7206 H   0  0  0  0  0  0  0  0  0  0  0  0
   -1.6756    2.7319    1.2859 H   0  0  0  0  0  0  0  0  0  0  0  0
   -2.4355    2.4264   -1.1307 H   0  0  0  0  0  0  0  0  0  0  0  0
   -0.2769    1.2164   -2.4244 H   0  0  0  0  0  0  0  0  0  0  0  0
   -3.8239    0.4754   -1.4102 H   0  0  0  0  0  0  0  0  0  0  0  0
   -2.4870   -0.4744   -2.0801 H   0  0  0  0  0  0  0  0  0  0  0  0
   -3.0038   -0.1440    0.9068 H   0  0  0  0  0  0  0  0  0  0  0  0
   -0.9150   -1.5295    1.1271 H   0  0  0  0  0  0  0  0  0  0  0  0
   -1.2186   -2.0397   -0.5518 H   0  0  0  0  0  0  0  0  0  0  0  0
  1 12  1  0  0  0  0
  1 10  1  0  0  0  0
  2  6  1  0  0  0  0
  2  1  1  1  0  0  0
  3  5  1  0  0  0  0
  3 13  1  1  0  0  0
  3  2  1  0  0  0  0
  4  3  1  0  0  0  0
  5  6  1  0  0  0  0
  6  7  1  0  0  0  0
  6 17  1  1  0  0  0
  7 18  1  0  0  0  0
  8  2  1  0  0  0  0
  8  7  1  0  0  0  0
  9  8  2  0  0  0  0
 11  1  1  0  0  0  0
 14  4  1  0  0  0  0
 15  5  1  0  0  0  0
 16  5  1  0  0  0  0
 19  7  1  0  0  0  0
M TOR 0 0 1 2 3
M TOR 1 0 1 2 4
M TOR 2 0 1 2 12
M TOR 3 0 1 5 4
M TOR 4 0 1 5 6
M TOR 5 0 1 5 16
M TOR 6 0 1 7 6
M TOR 7 0 1 7 8
M TOR 8 1 2 3 13
M TOR 9 1 2 4 5
M TOR 10 1 2 4 14
M TOR 11 1 2 4 15
M TOR 12 1 5 4 14
M TOR 13 1 5 4 15
M TOR 14 1 5 6 7
M TOR 15 1 5 6 17
M TOR 16 1 5 6 18
M TOR 17 1 7 6 17
M TOR 18 1 7 6 18
M TOR 19 2 1 0 9
M TOR 20 2 1 0 10
M TOR 21 2 1 0 11
M TOR 22 2 1 5 6
M TOR 23 2 1 5 16
M TOR 24 2 1 7 6
M TOR 25 2 1 7 8
M TOR 26 2 4 5 6
M TOR 27 2 4 5 16
M TOR 28 3 2 1 5
M TOR 29 3 2 1 7
M TOR 30 3 2 4 5
M TOR 31 3 2 4 14
M TOR 32 3 2 4 15
M TOR 33 4 2 1 7
M TOR 34 4 2 3 13
M TOR 35 4 5 1 7
M TOR 36 4 5 6 7
M TOR 37 4 5 6 17
M TOR 38 4 5 6 18
M TOR 39 5 1 0 9
M TOR 40 5 1 0 10
M TOR 41 5 1 0 11
M TOR 42 5 1 2 12
M TOR 43 5 1 7 8
M TOR 44 5 4 2 12
M TOR 45 5 6 7 8
M TOR 46 6 5 4 14
M TOR 47 6 5 4 15
M TOR 48 7 1 0 9
M TOR 49 7 1 0 10
M TOR 50 7 1 0 11
M TOR 51 7 1 2 12
M TOR 52 7 1 5 16
M TOR 53 7 6 5 16
M TOR 54 8 7 6 17
M TOR 55 8 7 6 18
M  END
$$$$
