gdb 1577	2.9695732	1.2931487	1.1443654	1.4653	76.3	-0.25861	0.03344	0.29205000000000003	1155.4915	0.154585	-422.529246	-422.519893	-422.518949	-422.563479	34.848
 OpenBabel02181911403D

 19 19  0  0  1  0  0  0  0  0999 V2000
    0.1688   -1.0446   -0.5956 C   0  0  0  0  0  0  0  0  0  0  0  0
    1.2376   -0.0510   -0.1374 C   0  0  0  0  0  0  0  0  0  0  0  0
    2.2110   -0.6692    0.8632 C   0  0  0  0  0  0  0  0  0  0  0  0
    1.9516    0.6274   -1.3315 C   0  0  0  0  0  0  0  0  0  0  0  0
    1.2054    1.8204   -1.5418 O   0  0  0  0  0  0  0  0  0  0  0  0
    0.8317    2.2352   -0.2479 C   0  0  1  0  0  0  0  0  0  0  0  0
    0.5528    1.0627    0.4892 O   0  0  0  0  0  0  0  0  0  0  0  0
    1.8882    3.0396    0.3999 C   0  0  0  0  0  0  0  0  0  0  0  0
    2.7370    3.7090    0.9250 C   0  0  0  0  0  0  0  0  0  0  0  0
   -0.4541   -1.3446    0.2516 H   0  0  0  0  0  0  0  0  0  0  0  0
   -0.4753   -0.5863   -1.3512 H   0  0  0  0  0  0  0  0  0  0  0  0
    0.6267   -1.9431   -1.0225 H   0  0  0  0  0  0  0  0  0  0  0  0
    1.6693   -1.0881    1.7160 H   0  0  0  0  0  0  0  0  0  0  0  0
    2.7859   -1.4759    0.3954 H   0  0  0  0  0  0  0  0  0  0  0  0
    2.9077    0.0866    1.2350 H   0  0  0  0  0  0  0  0  0  0  0  0
    2.9978    0.8605   -1.0903 H   0  0  0  0  0  0  0  0  0  0  0  0
    1.9136    0.0401   -2.2507 H   0  0  0  0  0  0  0  0  0  0  0  0
   -0.0861    2.8263   -0.3380 H   0  0  0  0  0  0  0  0  0  0  0  0
    3.4848    4.3031    1.3901 H   0  0  0  0  0  0  0  0  0  0  0  0
  1  2  1  0  0  0  0
  1 10  1  0  0  0  0
  2  7  1  0  0  0  0
  2  3  1  0  0  0  0
  3 15  1  0  0  0  0
  3 13  1  0  0  0  0
  4 16  1  0  0  0  0
  4  2  1  0  0  0  0
  5  4  1  0  0  0  0
  5  6  1  0  0  0  0
  6 18  1  6  0  0  0
  6  8  1  0  0  0  0
  6  7  1  0  0  0  0
  8  9  3  0  0  0  0
  9 19  1  0  0  0  0
 11  1  1  0  0  0  0
 12  1  1  0  0  0  0
 14  3  1  0  0  0  0
 17  4  1  0  0  0  0
M TOR 0 0 1 2 12
M TOR 1 0 1 2 13
M TOR 2 0 1 2 14
M TOR 3 0 1 3 4
M TOR 4 0 1 3 15
M TOR 5 0 1 3 16
M TOR 6 0 1 6 5
M TOR 7 1 3 4 5
M TOR 8 1 6 5 4
M TOR 9 1 6 5 7
M TOR 10 1 6 5 17
M TOR 11 2 1 0 9
M TOR 12 2 1 0 10
M TOR 13 2 1 0 11
M TOR 14 2 1 3 4
M TOR 15 2 1 3 15
M TOR 16 2 1 3 16
M TOR 17 2 1 6 5
M TOR 18 3 1 0 9
M TOR 19 3 1 0 10
M TOR 20 3 1 0 11
M TOR 21 3 1 2 12
M TOR 22 3 1 2 13
M TOR 23 3 1 2 14
M TOR 24 3 1 6 5
M TOR 25 3 4 5 6
M TOR 26 3 4 5 7
M TOR 27 3 4 5 17
M TOR 28 4 3 1 6
M TOR 29 4 5 7 8
M TOR 30 5 4 3 15
M TOR 31 5 4 3 16
M TOR 32 5 7 8 18
M TOR 33 6 1 0 9
M TOR 34 6 1 0 10
M TOR 35 6 1 0 11
M TOR 36 6 1 2 12
M TOR 37 6 1 2 13
M TOR 38 6 1 2 14
M TOR 39 6 1 3 15
M TOR 40 6 1 3 16
M TOR 41 6 5 7 8
M TOR 42 8 7 5 17
M  END
$$$$
