gdb 1142	3.1211329	1.3367585	1.1340267	2.8972	75.12	-0.23084	-0.01451	0.21633	1140.3387	0.15672	-422.565854	-422.557306	-422.556362	-422.59947	31.654
 OpenBabel02181911403D

 19 20  0  0  1  0  0  0  0  0999 V2000
   -1.0667   -0.7985   -2.5770 C   0  0  0  0  0  0  0  0  0  0  0  0
   -1.5377   -0.1077   -1.3103 C   0  0  0  0  0  0  0  0  0  0  0  0
   -2.2860    0.8400   -1.3237 O   0  0  0  0  0  0  0  0  0  0  0  0
   -1.0108   -0.6913    0.0121 C   0  0  1  0  0  0  0  0  0  0  0  0
   -0.9883    0.2667    1.0539 O   0  0  0  0  0  0  0  0  0  0  0  0
   -2.2422    0.2405    1.7462 C   0  0  0  0  0  0  0  0  0  0  0  0
   -2.7376   -1.1882    1.6238 C   0  0  2  0  0  0  0  0  0  0  0  0
   -1.7227   -2.2642    1.9133 C   0  0  0  0  0  0  0  0  0  0  0  0
   -1.9436   -1.8019    0.4954 C   0  0  2  0  0  0  0  0  0  0  0  0
   -1.1338   -1.8881   -2.4863 H   0  0  0  0  0  0  0  0  0  0  0  0
   -1.6516   -0.4550   -3.4309 H   0  0  0  0  0  0  0  0  0  0  0  0
   -0.0094   -0.5606   -2.7458 H   0  0  0  0  0  0  0  0  0  0  0  0
    0.0222   -1.0354   -0.1304 H   0  0  0  0  0  0  0  0  0  0  0  0
   -2.0418    0.5579    2.7752 H   0  0  0  0  0  0  0  0  0  0  0  0
   -2.9533    0.9359    1.2852 H   0  0  0  0  0  0  0  0  0  0  0  0
   -3.7946   -1.3894    1.7472 H   0  0  0  0  0  0  0  0  0  0  0  0
   -0.7990   -1.9769    2.4062 H   0  0  0  0  0  0  0  0  0  0  0  0
   -2.0934   -3.2488    2.1759 H   0  0  0  0  0  0  0  0  0  0  0  0
   -2.3969   -2.4689   -0.2282 H   0  0  0  0  0  0  0  0  0  0  0  0
  1 10  1  0  0  0  0
  1  2  1  0  0  0  0
  2  4  1  0  0  0  0
  3  2  2  0  0  0  0
  4 13  1  6  0  0  0
  4  9  1  0  0  0  0
  4  5  1  0  0  0  0
  5  6  1  0  0  0  0
  6 14  1  0  0  0  0
  7  6  1  0  0  0  0
  7 16  1  1  0  0  0
  7  8  1  0  0  0  0
  8 18  1  0  0  0  0
  8 17  1  0  0  0  0
  9 19  1  6  0  0  0
  9  7  1  0  0  0  0
  9  8  1  0  0  0  0
 11  1  1  0  0  0  0
 12  1  1  0  0  0  0
 15  6  1  0  0  0  0
M TOR 0 0 1 3 4
M TOR 1 0 1 3 8
M TOR 2 0 1 3 12
M TOR 3 1 3 4 5
M TOR 4 1 3 8 6
M TOR 5 1 3 8 7
M TOR 6 1 3 8 18
M TOR 7 2 1 0 9
M TOR 8 2 1 0 10
M TOR 9 2 1 0 11
M TOR 10 2 1 3 4
M TOR 11 2 1 3 8
M TOR 12 2 1 3 12
M TOR 13 3 1 0 9
M TOR 14 3 1 0 10
M TOR 15 3 1 0 11
M TOR 16 3 4 5 6
M TOR 17 3 4 5 13
M TOR 18 3 4 5 14
M TOR 19 3 8 6 5
M TOR 20 3 8 6 7
M TOR 21 3 8 6 15
M TOR 22 3 8 7 16
M TOR 23 3 8 7 17
M TOR 24 4 3 8 6
M TOR 25 4 3 8 7
M TOR 26 4 3 8 18
M TOR 27 4 5 6 7
M TOR 28 4 5 6 8
M TOR 29 4 5 6 15
M TOR 30 5 4 3 8
M TOR 31 5 4 3 12
M TOR 32 5 6 7 8
M TOR 33 5 6 7 16
M TOR 34 5 6 7 17
M TOR 35 5 6 8 18
M TOR 36 6 7 8 18
M TOR 37 6 8 3 12
M TOR 38 6 8 7 16
M TOR 39 6 8 7 17
M TOR 40 7 6 5 13
M TOR 41 7 6 5 14
M TOR 42 7 8 3 12
M TOR 43 7 8 6 15
M TOR 44 8 6 5 13
M TOR 45 8 6 5 14
M  END
$$$$
