
     RDKit          3D

 19 19  0  0  0  0  0  0  0  0999 V2000
    1.5755   -0.0771    0.1168 C   0  0  0  0  0  0  0  0  0  0  0  0
    0.1839    0.1253   -0.0067 O   0  0  0  0  0  0  0  0  0  0  0  0
   -0.3961    0.8205    1.0792 C   0  0  0  0  0  0  0  0  0  0  0  0
   -1.9326    0.6440    1.0234 C   0  0  0  0  0  0  0  0  0  0  0  0
   -2.4779    2.0331    1.2181 C   0  0  0  0  0  0  0  0  0  0  0  0
   -1.5256    2.9629    1.2131 C   0  0  0  0  0  0  0  0  0  0  0  0
   -0.1464    2.3581    1.0426 C   0  0  0  0  0  0  0  0  0  0  0  0
    0.8363    2.8753    2.0777 C   0  0  0  0  0  0  0  0  0  0  0  0
    1.4975    2.1885    2.8137 O   0  0  0  0  0  0  0  0  0  0  0  0
    1.8248   -0.6324    1.0327 H   0  0  0  0  0  0  0  0  0  0  0  0
    1.8918   -0.6585   -0.7528 H   0  0  0  0  0  0  0  0  0  0  0  0
    2.1379    0.8681    0.1321 H   0  0  0  0  0  0  0  0  0  0  0  0
    0.0076    0.4307    2.0229 H   0  0  0  0  0  0  0  0  0  0  0  0
   -2.2074    0.2381    0.0418 H   0  0  0  0  0  0  0  0  0  0  0  0
   -2.2979   -0.0676    1.7717 H   0  0  0  0  0  0  0  0  0  0  0  0
   -3.5388    2.2354    1.3158 H   0  0  0  0  0  0  0  0  0  0  0  0
   -1.6833    4.0320    1.3054 H   0  0  0  0  0  0  0  0  0  0  0  0
    0.2716    2.6460    0.0629 H   0  0  0  0  0  0  0  0  0  0  0  0
    0.9146    3.9868    2.1153 H   0  0  0  0  0  0  0  0  0  0  0  0
  1  2  1  0
  2  3  1  0
  3  4  1  0
  4  5  1  0
  5  6  2  0
  6  7  1  0
  7  8  1  0
  8  9  2  0
  7  3  1  0
  1 10  1  0
  1 11  1  0
  1 12  1  0
  3 13  1  0
  4 14  1  0
  4 15  1  0
  5 16  1  0
  6 17  1  0
  7 18  1  0
  8 19  1  0
M  END
$$$$
