
     RDKit          3D

 19 21  0  0  0  0  0  0  0  0999 V2000
    1.3852   -0.0012   -0.0580 C   0  0  0  0  0  0  0  0  0  0  0  0
    0.0101   -0.0200    0.2574 O   0  0  0  0  0  0  0  0  0  0  0  0
   -0.3707    0.6998    1.4184 C   0  0  0  0  0  0  0  0  0  0  0  0
    0.1042    0.0449    2.7043 C   0  0  0  0  0  0  0  0  0  0  0  0
   -0.2331    2.2222    1.2480 C   0  0  0  0  0  0  0  0  0  0  0  0
   -1.5172    2.7965    1.8763 C   0  0  0  0  0  0  0  0  0  0  0  0
   -2.2684    1.7152    2.4365 O   0  0  0  0  0  0  0  0  0  0  0  0
   -1.9000    0.9708    1.2454 C   0  0  0  0  0  0  0  0  0  0  0  0
   -1.5498    2.2974    0.4788 C   0  0  0  0  0  0  0  0  0  0  0  0
    2.0016   -0.4666    0.7238 H   0  0  0  0  0  0  0  0  0  0  0  0
    1.5042   -0.5764   -0.9797 H   0  0  0  0  0  0  0  0  0  0  0  0
    1.7561    1.0191   -0.2327 H   0  0  0  0  0  0  0  0  0  0  0  0
   -0.0964   -1.0311    2.6784 H   0  0  0  0  0  0  0  0  0  0  0  0
    1.1779    0.1898    2.8610 H   0  0  0  0  0  0  0  0  0  0  0  0
   -0.4260    0.4853    3.5512 H   0  0  0  0  0  0  0  0  0  0  0  0
    0.6597    2.8207    1.1176 H   0  0  0  0  0  0  0  0  0  0  0  0
   -1.6025    3.7823    2.3142 H   0  0  0  0  0  0  0  0  0  0  0  0
   -2.5903    0.1761    0.9717 H   0  0  0  0  0  0  0  0  0  0  0  0
   -1.8287    2.7238   -0.4732 H   0  0  0  0  0  0  0  0  0  0  0  0
  1  2  1  0
  2  3  1  0
  3  4  1  0
  3  5  1  0
  5  6  1  0
  6  7  1  0
  7  8  1  0
  8  9  1  0
  8  3  1  0
  9  5  1  0
  9  6  1  0
  1 10  1  0
  1 11  1  0
  1 12  1  0
  4 13  1  0
  4 14  1  0
  4 15  1  0
  5 16  1  0
  6 17  1  0
  8 18  1  0
  9 19  1  0
M  END
$$$$
