
     RDKit          3D

 19 19  0  0  0  0  0  0  0  0999 V2000
   -2.4297    1.8875    2.4713 O   0  0  0  0  0  0  0  0  0  0  0  0
   -1.5125    1.1994    2.1180 C   0  0  0  0  0  0  0  0  0  0  0  0
   -0.0417    1.4556    2.3750 C   0  0  0  0  0  0  0  0  0  0  0  0
    0.6836    1.4974    0.9995 C   0  0  0  0  0  0  0  0  0  0  0  0
   -0.0401    2.3847    0.0131 C   0  0  0  0  0  0  0  0  0  0  0  0
   -1.0354    2.0384   -0.8112 C   0  0  0  0  0  0  0  0  0  0  0  0
   -1.6562    0.6681   -0.9924 C   0  0  0  0  0  0  0  0  0  0  0  0
   -2.5183    0.2167    0.1993 C   0  0  0  0  0  0  0  0  0  0  0  0
   -1.6531    0.0876    1.3359 O   0  0  0  0  0  0  0  0  0  0  0  0
    0.0466    2.4007    2.9150 H   0  0  0  0  0  0  0  0  0  0  0  0
    0.3842    0.6595    2.9955 H   0  0  0  0  0  0  0  0  0  0  0  0
    1.7074    1.8550    1.1498 H   0  0  0  0  0  0  0  0  0  0  0  0
    0.7446    0.4746    0.6189 H   0  0  0  0  0  0  0  0  0  0  0  0
    0.2512    3.4334    0.0276 H   0  0  0  0  0  0  0  0  0  0  0  0
   -1.4762    2.8299   -1.4133 H   0  0  0  0  0  0  0  0  0  0  0  0
   -2.2788    0.6617   -1.8938 H   0  0  0  0  0  0  0  0  0  0  0  0
   -0.8793   -0.0922   -1.1394 H   0  0  0  0  0  0  0  0  0  0  0  0
   -3.3203    0.9243    0.4261 H   0  0  0  0  0  0  0  0  0  0  0  0
   -2.9499   -0.7706    0.0165 H   0  0  0  0  0  0  0  0  0  0  0  0
  1  2  2  0
  2  3  1  0
  3  4  1  0
  4  5  1  0
  5  6  2  0
  6  7  1  0
  7  8  1  0
  8  9  1  0
  9  2  1  0
  3 10  1  0
  3 11  1  0
  4 12  1  0
  4 13  1  0
  5 14  1  0
  6 15  1  0
  7 16  1  0
  7 17  1  0
  8 18  1  0
  8 19  1  0
M  END
$$$$
