gdb 249	3.0192951	1.7342756	1.2741981	1.59	74.77	-0.23223	0.09602	0.32825	1004.5169	0.159683	-422.524454	-422.517427	-422.516483	-422.555635	28.592
 OpenBabel02181911403D

 19 21  0  0  1  0  0  0  0  0999 V2000
    1.0320    1.2407    1.7926 C   0  0  0  0  0  0  0  0  0  0  0  0
   -0.1382    2.1885    1.9882 C   0  0  1  0  0  0  0  0  0  0  0  0
    0.3562    3.6280    1.7923 C   0  0  0  0  0  0  0  0  0  0  0  0
    0.7912    3.2751    0.3282 C   0  0  2  0  0  0  0  0  0  0  0  0
   -0.1472    3.8402   -0.7448 C   0  0  0  0  0  0  0  0  0  0  0  0
   -0.3230    2.8961   -1.7992 O   0  0  0  0  0  0  0  0  0  0  0  0
   -0.9125    1.7238   -1.3210 C   0  0  0  0  0  0  0  0  0  0  0  0
   -0.0724    1.0110   -0.4291 O   0  0  0  0  0  0  0  0  0  0  0  0
    0.3966    1.8207    0.5861 C   0  0  1  0  0  0  0  0  0  0  0  0
    2.0384    1.5232    2.0984 H   0  0  0  0  0  0  0  0  0  0  0  0
    0.7894    0.1938    1.9480 H   0  0  0  0  0  0  0  0  0  0  0  0
   -1.0301    1.8823    2.5200 H   0  0  0  0  0  0  0  0  0  0  0  0
   -0.4311    4.3852    1.8287 H   0  0  0  0  0  0  0  0  0  0  0  0
    1.1656    3.9362    2.4620 H   0  0  0  0  0  0  0  0  0  0  0  0
    1.8388    3.4444    0.0570 H   0  0  0  0  0  0  0  0  0  0  0  0
   -1.1307    4.0706   -0.3031 H   0  0  0  0  0  0  0  0  0  0  0  0
    0.2455    4.7516   -1.2018 H   0  0  0  0  0  0  0  0  0  0  0  0
   -1.8662    1.9592   -0.8135 H   0  0  0  0  0  0  0  0  0  0  0  0
   -1.0825    1.0669   -2.1754 H   0  0  0  0  0  0  0  0  0  0  0  0
  1 11  1  0  0  0  0
  1  2  1  0  0  0  0
  1 10  1  0  0  0  0
  2 12  1  1  0  0  0
  3 13  1  0  0  0  0
  3  2  1  0  0  0  0
  3 14  1  0  0  0  0
  4 15  1  6  0  0  0
  4  9  1  0  0  0  0
  4  3  1  0  0  0  0
  5 16  1  0  0  0  0
  5  4  1  0  0  0  0
  6  7  1  0  0  0  0
  6  5  1  0  0  0  0
  7 18  1  0  0  0  0
  7  8  1  0  0  0  0
  9  8  1  6  0  0  0
  9  1  1  0  0  0  0
  9  2  1  0  0  0  0
 17  5  1  0  0  0  0
 19  7  1  0  0  0  0
M TOR 0 0 1 2 3
M TOR 1 0 1 2 12
M TOR 2 0 1 2 13
M TOR 3 0 1 8 3
M TOR 4 0 1 8 7
M TOR 5 0 8 1 2
M TOR 6 0 8 1 11
M TOR 7 0 8 3 2
M TOR 8 0 8 3 4
M TOR 9 0 8 3 14
M TOR 10 0 8 7 6
M TOR 11 1 2 3 4
M TOR 12 1 2 3 8
M TOR 13 1 2 3 14
M TOR 14 1 8 0 9
M TOR 15 1 8 0 10
M TOR 16 1 8 3 4
M TOR 17 1 8 3 14
M TOR 18 1 8 7 6
M TOR 19 2 1 0 9
M TOR 20 2 1 0 10
M TOR 21 2 1 8 7
M TOR 22 2 3 4 5
M TOR 23 2 3 4 15
M TOR 24 2 3 4 16
M TOR 25 2 3 8 7
M TOR 26 3 2 1 11
M TOR 27 3 4 5 6
M TOR 28 3 8 0 9
M TOR 29 3 8 0 10
M TOR 30 3 8 1 11
M TOR 31 3 8 7 6
M TOR 32 4 3 2 12
M TOR 33 4 3 2 13
M TOR 34 4 3 8 7
M TOR 35 4 5 6 7
M TOR 36 4 5 6 17
M TOR 37 4 5 6 18
M TOR 38 5 4 3 8
M TOR 39 5 4 3 14
M TOR 40 5 6 7 8
M TOR 41 6 5 4 15
M TOR 42 6 5 4 16
M TOR 43 7 8 0 9
M TOR 44 7 8 0 10
M TOR 45 7 8 1 11
M TOR 46 7 8 3 14
M TOR 47 8 1 2 12
M TOR 48 8 1 2 13
M TOR 49 8 3 2 12
M TOR 50 8 3 2 13
M TOR 51 8 3 4 15
M TOR 52 8 3 4 16
M TOR 53 8 7 6 17
M TOR 54 8 7 6 18
M  END
$$$$
