gdb 2174	2.7852122	1.5925314	1.5519504	1.9914	74.41	-0.23071	0.07495	0.30566	981.0069	0.157944	-422.507781	-422.500255	-422.499311	-422.539363	29.897
 OpenBabel02181911403D

 19 21  0  0  1  0  0  0  0  0999 V2000
   -0.1371   -0.0908    0.2872 C   0  0  0  0  0  0  0  0  0  0  0  0
    1.2860   -0.5132    0.4624 C   0  0  2  0  0  0  0  0  0  0  0  0
    2.2438   -0.2927   -0.6479 O   0  0  0  0  0  0  0  0  0  0  0  0
    3.0488   -0.9363    0.4001 C   0  0  2  0  0  0  0  0  0  0  0  0
    1.8876   -1.9367    0.6668 C   0  0  1  0  0  0  0  0  0  0  0  0
    1.7646   -2.5418    2.0643 C   0  0  0  0  0  0  0  0  0  0  0  0
    2.5272   -1.6571    3.0549 C   0  0  0  0  0  0  0  0  0  0  0  0
    2.3293   -0.2717    2.7901 O   0  0  0  0  0  0  0  0  0  0  0  0
    2.3864    0.0341    1.4262 C   0  0  2  0  0  0  0  0  0  0  0  0
   -0.6982   -0.2777    1.2085 H   0  0  0  0  0  0  0  0  0  0  0  0
   -0.1939    0.9788    0.0632 H   0  0  0  0  0  0  0  0  0  0  0  0
   -0.6136   -0.6437   -0.5284 H   0  0  0  0  0  0  0  0  0  0  0  0
    4.0991   -1.1225    0.1745 H   0  0  0  0  0  0  0  0  0  0  0  0
    1.6864   -2.6222   -0.1599 H   0  0  0  0  0  0  0  0  0  0  0  0
    0.7058   -2.6191    2.3407 H   0  0  0  0  0  0  0  0  0  0  0  0
    2.1769   -3.5565    2.0926 H   0  0  0  0  0  0  0  0  0  0  0  0
    2.2129   -1.8236    4.0883 H   0  0  0  0  0  0  0  0  0  0  0  0
    3.6025   -1.8854    2.9883 H   0  0  0  0  0  0  0  0  0  0  0  0
    2.6259    1.0913    1.3010 H   0  0  0  0  0  0  0  0  0  0  0  0
  1 10  1  0  0  0  0
  2  1  1  1  0  0  0
  2  5  1  0  0  0  0
  2  9  1  0  0  0  0
  3  4  1  0  0  0  0
  3  2  1  0  0  0  0
  4 13  1  6  0  0  0
  4  5  1  0  0  0  0
  4  9  1  0  0  0  0
  5 14  1  6  0  0  0
  5  6  1  0  0  0  0
  6 16  1  0  0  0  0
  6 15  1  0  0  0  0
  6  7  1  0  0  0  0
  7 17  1  0  0  0  0
  8  7  1  0  0  0  0
  9 19  1  6  0  0  0
  9  8  1  0  0  0  0
 11  1  1  0  0  0  0
 12  1  1  0  0  0  0
 18  7  1  0  0  0  0
M TOR 0 0 1 2 3
M TOR 1 0 1 4 3
M TOR 2 0 1 4 5
M TOR 3 0 1 4 13
M TOR 4 0 1 8 3
M TOR 5 0 1 8 7
M TOR 6 0 1 8 18
M TOR 7 1 2 3 4
M TOR 8 1 2 3 8
M TOR 9 1 2 3 12
M TOR 10 1 4 3 8
M TOR 11 1 4 3 12
M TOR 12 1 4 5 6
M TOR 13 1 4 5 14
M TOR 14 1 4 5 15
M TOR 15 1 8 3 12
M TOR 16 1 8 7 6
M TOR 17 2 1 0 9
M TOR 18 2 1 0 10
M TOR 19 2 1 0 11
M TOR 20 2 1 4 5
M TOR 21 2 1 4 13
M TOR 22 2 1 8 7
M TOR 23 2 1 8 18
M TOR 24 2 3 4 5
M TOR 25 2 3 4 13
M TOR 26 2 3 8 7
M TOR 27 2 3 8 18
M TOR 28 3 4 5 6
M TOR 29 3 4 5 14
M TOR 30 3 4 5 15
M TOR 31 3 8 7 6
M TOR 32 4 1 0 9
M TOR 33 4 1 0 10
M TOR 34 4 1 0 11
M TOR 35 4 1 8 7
M TOR 36 4 1 8 18
M TOR 37 4 3 8 7
M TOR 38 4 3 8 18
M TOR 39 4 5 6 7
M TOR 40 4 5 6 16
M TOR 41 4 5 6 17
M TOR 42 5 4 1 8
M TOR 43 5 4 3 8
M TOR 44 5 4 3 12
M TOR 45 5 6 7 8
M TOR 46 6 5 4 13
M TOR 47 6 7 8 18
M TOR 48 7 6 5 14
M TOR 49 7 6 5 15
M TOR 50 7 8 3 12
M TOR 51 8 1 0 9
M TOR 52 8 1 0 10
M TOR 53 8 1 0 11
M TOR 54 8 1 4 13
M TOR 55 8 3 4 13
M TOR 56 8 7 6 16
M TOR 57 8 7 6 17
M  END
$$$$
