gdb 2698	2.8452083	1.1878411	0.9898482	2.1608	75.91	-0.24834	-0.02672	0.22162	1244.3164	0.15557	-422.544986	-422.535836	-422.534891	-422.579485	33.358
 OpenBabel02181911413D

 19 20  0  0  1  0  0  0  0  0999 V2000
   -1.1703   -2.3750   -0.5289 O   0  0  0  0  0  0  0  0  0  0  0  0
   -1.0822   -1.2137    0.2351 C   0  0  2  0  0  0  0  0  0  0  0  0
   -2.1522   -0.0496    0.1205 C   0  0  1  0  0  0  0  0  0  0  0  0
   -0.9837    0.9890    0.2496 C   0  0  0  0  0  0  0  0  0  0  0  0
   -0.0563   -0.1570   -0.1705 C   0  0  0  0  0  0  0  0  0  0  0  0
    0.9198   -0.2406   -0.8641 O   0  0  0  0  0  0  0  0  0  0  0  0
   -2.8663   -0.0033   -1.2050 C   0  0  0  0  0  0  0  0  0  0  0  0
   -4.1901   -0.6981   -1.3789 C   0  0  0  0  0  0  0  0  0  0  0  0
   -4.1291    0.8095   -1.3597 C   0  0  0  0  0  0  0  0  0  0  0  0
   -0.5476   -2.2824   -1.2607 H   0  0  0  0  0  0  0  0  0  0  0  0
   -0.9664   -1.4763    1.2959 H   0  0  0  0  0  0  0  0  0  0  0  0
   -2.8703   -0.0348    0.9435 H   0  0  0  0  0  0  0  0  0  0  0  0
   -1.0003    1.8607   -0.4070 H   0  0  0  0  0  0  0  0  0  0  0  0
   -0.8088    1.3115    1.2798 H   0  0  0  0  0  0  0  0  0  0  0  0
   -2.2074   -0.0197   -2.0706 H   0  0  0  0  0  0  0  0  0  0  0  0
   -4.3893   -1.1967   -2.3206 H   0  0  0  0  0  0  0  0  0  0  0  0
   -4.6130   -1.2006   -0.5154 H   0  0  0  0  0  0  0  0  0  0  0  0
   -4.2862    1.3449   -2.2894 H   0  0  0  0  0  0  0  0  0  0  0  0
   -4.5119    1.3227   -0.4833 H   0  0  0  0  0  0  0  0  0  0  0  0
  1  2  1  0  0  0  0
  2 11  1  1  0  0  0
  3  2  1  0  0  0  0
  3  4  1  0  0  0  0
  3 12  1  1  0  0  0
  4 14  1  0  0  0  0
  5  2  1  0  0  0  0
  5  4  1  0  0  0  0
  6  5  2  0  0  0  0
  7  3  1  0  0  0  0
  8  9  1  0  0  0  0
  8  7  1  0  0  0  0
  8 17  1  0  0  0  0
  9  7  1  0  0  0  0
  9 19  1  0  0  0  0
 10  1  1  0  0  0  0
 13  4  1  0  0  0  0
 15  7  1  0  0  0  0
 16  8  1  0  0  0  0
 18  9  1  0  0  0  0
M TOR 0 0 1 2 3
M TOR 1 0 1 2 6
M TOR 2 0 1 2 11
M TOR 3 0 1 4 3
M TOR 4 0 1 4 5
M TOR 5 1 2 3 4
M TOR 6 1 2 3 12
M TOR 7 1 2 3 13
M TOR 8 1 2 6 7
M TOR 9 1 2 6 8
M TOR 10 1 2 6 14
M TOR 11 1 4 3 12
M TOR 12 1 4 3 13
M TOR 13 2 1 0 9
M TOR 14 2 1 4 5
M TOR 15 2 3 4 5
M TOR 16 2 6 7 8
M TOR 17 2 6 7 15
M TOR 18 2 6 7 16
M TOR 19 2 6 8 17
M TOR 20 2 6 8 18
M TOR 21 3 2 1 10
M TOR 22 3 2 6 7
M TOR 23 3 2 6 8
M TOR 24 3 2 6 14
M TOR 25 3 4 1 10
M TOR 26 4 1 0 9
M TOR 27 4 1 2 6
M TOR 28 4 1 2 11
M TOR 29 4 3 2 6
M TOR 30 4 3 2 11
M TOR 31 5 4 1 10
M TOR 32 5 4 3 12
M TOR 33 5 4 3 13
M TOR 34 6 2 1 10
M TOR 35 6 2 3 12
M TOR 36 6 2 3 13
M TOR 37 6 7 8 17
M TOR 38 6 7 8 18
M TOR 39 6 8 7 15
M TOR 40 6 8 7 16
M TOR 41 7 6 2 11
M TOR 42 7 8 6 14
M TOR 43 8 6 2 11
M  END
$$$$
