gdb 3146	2.7213636	1.3706976	1.1093486	2.9505	76.08	-0.2445	-0.02714	0.21736	1160.9591	0.155891	-422.545999	-422.537212	-422.536268	-422.580013	32.854
 OpenBabel02181911413D

 19 20  0  0  1  0  0  0  0  0999 V2000
    4.1987    0.9106   -1.3889 C   0  0  0  0  0  0  0  0  0  0  0  0
    3.2454    1.7752   -0.5944 C   0  0  0  0  0  0  0  0  0  0  0  0
    3.4739    2.9553   -0.3959 O   0  0  0  0  0  0  0  0  0  0  0  0
    1.9956    1.1159   -0.0579 C   0  0  2  0  0  0  0  0  0  0  0  0
    0.6986    1.8464   -0.4717 C   0  0  1  0  0  0  0  0  0  0  0  0
   -0.4800    1.2391    0.2325 C   0  0  0  0  0  0  0  0  0  0  0  0
    0.3890    2.2171    0.9726 C   0  0  1  0  0  0  0  0  0  0  0  0
    1.6686    1.5198    1.4590 C   0  0  2  0  0  0  0  0  0  0  0  0
    2.6028    2.3281    2.1008 O   0  0  0  0  0  0  0  0  0  0  0  0
    4.5607    0.0884   -0.7601 H   0  0  0  0  0  0  0  0  0  0  0  0
    3.6790    0.4507   -2.2374 H   0  0  0  0  0  0  0  0  0  0  0  0
    5.0420    1.5039   -1.7437 H   0  0  0  0  0  0  0  0  0  0  0  0
    2.0051    0.0419   -0.2698 H   0  0  0  0  0  0  0  0  0  0  0  0
    0.5977    2.4432   -1.3699 H   0  0  0  0  0  0  0  0  0  0  0  0
   -1.4497    1.6167   -0.0754 H   0  0  0  0  0  0  0  0  0  0  0  0
   -0.4789    0.1846    0.5021 H   0  0  0  0  0  0  0  0  0  0  0  0
    0.0120    3.1448    1.3852 H   0  0  0  0  0  0  0  0  0  0  0  0
    1.5048    0.6547    2.1109 H   0  0  0  0  0  0  0  0  0  0  0  0
    2.8878    3.0000    1.4605 H   0  0  0  0  0  0  0  0  0  0  0  0
  1 10  1  0  0  0  0
  1  2  1  0  0  0  0
  2  3  2  0  0  0  0
  2  4  1  0  0  0  0
  4 13  1  6  0  0  0
  4  8  1  0  0  0  0
  5 14  1  6  0  0  0
  5  4  1  0  0  0  0
  5  6  1  0  0  0  0
  5  7  1  0  0  0  0
  6 16  1  0  0  0  0
  6  7  1  0  0  0  0
  7 17  1  1  0  0  0
  7  8  1  0  0  0  0
  8  9  1  0  0  0  0
  8 18  1  1  0  0  0
 11  1  1  0  0  0  0
 12  1  1  0  0  0  0
 15  6  1  0  0  0  0
 19  9  1  0  0  0  0
M TOR 0 0 1 3 4
M TOR 1 0 1 3 7
M TOR 2 0 1 3 12
M TOR 3 1 3 4 5
M TOR 4 1 3 4 6
M TOR 5 1 3 4 13
M TOR 6 1 3 7 6
M TOR 7 1 3 7 8
M TOR 8 1 3 7 17
M TOR 9 2 1 0 9
M TOR 10 2 1 0 10
M TOR 11 2 1 0 11
M TOR 12 2 1 3 4
M TOR 13 2 1 3 7
M TOR 14 2 1 3 12
M TOR 15 3 1 0 9
M TOR 16 3 1 0 10
M TOR 17 3 1 0 11
M TOR 18 3 4 5 6
M TOR 19 3 4 5 14
M TOR 20 3 4 5 15
M TOR 21 3 4 6 7
M TOR 22 3 4 6 16
M TOR 23 3 7 6 5
M TOR 24 3 7 6 16
M TOR 25 3 7 8 18
M TOR 26 4 3 7 8
M TOR 27 4 3 7 17
M TOR 28 4 5 6 7
M TOR 29 4 5 6 16
M TOR 30 4 6 5 14
M TOR 31 4 6 5 15
M TOR 32 4 6 7 8
M TOR 33 4 6 7 17
M TOR 34 5 4 3 7
M TOR 35 5 4 3 12
M TOR 36 5 6 4 13
M TOR 37 5 6 7 8
M TOR 38 5 6 7 17
M TOR 39 6 4 3 12
M TOR 40 6 7 3 12
M TOR 41 6 7 8 18
M TOR 42 7 3 4 13
M TOR 43 7 6 4 13
M TOR 44 7 6 5 14
M TOR 45 7 6 5 15
M TOR 46 8 7 3 12
M TOR 47 8 7 6 16
M  END
$$$$
