gdb 3551	2.0508087	1.9242811	1.2114849	1.819	74.29	-0.2402	-0.02351	0.21669	1071.3251	0.157493	-422.5743	-422.566155	-422.565211	-422.607159	30.776
 OpenBabel02181911413D

 19 20  0  0  1  0  0  0  0  0999 V2000
   -3.0311   -1.1670    1.2421 C   0  0  0  0  0  0  0  0  0  0  0  0
   -2.4093   -0.8783   -0.1296 C   0  0  2  0  0  0  0  0  0  0  0  0
   -0.9381   -1.3355   -0.2069 C   0  0  0  0  0  0  0  0  0  0  0  0
   -0.1214   -0.1403    0.2991 C   0  0  0  0  0  0  0  0  0  0  0  0
    0.9624   -0.1844    0.8212 O   0  0  0  0  0  0  0  0  0  0  0  0
   -0.9277    1.1299    0.0325 C   0  0  1  0  0  0  0  0  0  0  0  0
   -0.8274    1.6069   -1.4376 C   0  0  0  0  0  0  0  0  0  0  0  0
   -2.0626    0.9486   -1.7787 O   0  0  0  0  0  0  0  0  0  0  0  0
   -2.3308    0.6352   -0.3897 C   0  0  1  0  0  0  0  0  0  0  0  0
   -3.0523   -2.2424    1.4417 H   0  0  0  0  0  0  0  0  0  0  0  0
   -2.4588   -0.6958    2.0507 H   0  0  0  0  0  0  0  0  0  0  0  0
   -4.0578   -0.7914    1.2988 H   0  0  0  0  0  0  0  0  0  0  0  0
   -3.0164   -1.3417   -0.9136 H   0  0  0  0  0  0  0  0  0  0  0  0
   -0.7073   -2.2377    0.3632 H   0  0  0  0  0  0  0  0  0  0  0  0
   -0.6433   -1.5178   -1.2479 H   0  0  0  0  0  0  0  0  0  0  0  0
   -0.7976    1.8808    0.8099 H   0  0  0  0  0  0  0  0  0  0  0  0
   -0.8976    2.6960   -1.5491 H   0  0  0  0  0  0  0  0  0  0  0  0
    0.0213    1.2402   -2.0265 H   0  0  0  0  0  0  0  0  0  0  0  0
   -3.2038    1.1832   -0.0174 H   0  0  0  0  0  0  0  0  0  0  0  0
  1 12  1  0  0  0  0
  1 10  1  0  0  0  0
  1 11  1  0  0  0  0
  2 13  1  6  0  0  0
  2  1  1  0  0  0  0
  3  2  1  0  0  0  0
  3  4  1  0  0  0  0
  3 14  1  0  0  0  0
  4  5  2  0  0  0  0
  6  4  1  0  0  0  0
  6 16  1  1  0  0  0
  7  6  1  0  0  0  0
  8  7  1  0  0  0  0
  8  9  1  0  0  0  0
  9  2  1  0  0  0  0
  9 19  1  1  0  0  0
  9  6  1  0  0  0  0
 15  3  1  0  0  0  0
 17  7  1  0  0  0  0
 18  7  1  0  0  0  0
M TOR 0 0 1 2 3
M TOR 1 0 1 2 13
M TOR 2 0 1 2 14
M TOR 3 0 1 8 5
M TOR 4 0 1 8 7
M TOR 5 0 1 8 18
M TOR 6 1 2 3 4
M TOR 7 1 2 3 5
M TOR 8 1 8 5 3
M TOR 9 1 8 5 6
M TOR 10 1 8 5 15
M TOR 11 1 8 7 6
M TOR 12 2 1 0 9
M TOR 13 2 1 0 10
M TOR 14 2 1 0 11
M TOR 15 2 1 8 5
M TOR 16 2 1 8 7
M TOR 17 2 1 8 18
M TOR 18 2 3 5 6
M TOR 19 2 3 5 8
M TOR 20 2 3 5 15
M TOR 21 3 2 1 8
M TOR 22 3 2 1 12
M TOR 23 3 5 6 7
M TOR 24 3 5 6 16
M TOR 25 3 5 6 17
M TOR 26 3 5 8 7
M TOR 27 3 5 8 18
M TOR 28 4 3 2 13
M TOR 29 4 3 2 14
M TOR 30 4 3 5 6
M TOR 31 4 3 5 8
M TOR 32 4 3 5 15
M TOR 33 5 3 2 13
M TOR 34 5 3 2 14
M TOR 35 5 6 7 8
M TOR 36 5 8 1 12
M TOR 37 6 5 8 18
M TOR 38 6 7 8 18
M TOR 39 7 6 5 15
M TOR 40 7 8 1 12
M TOR 41 7 8 5 15
M TOR 42 8 1 0 9
M TOR 43 8 1 0 10
M TOR 44 8 1 0 11
M TOR 45 8 1 2 13
M TOR 46 8 1 2 14
M TOR 47 8 5 6 16
M TOR 48 8 5 6 17
M TOR 49 8 7 6 16
M TOR 50 8 7 6 17
M  END
$$$$
