
     RDKit          3D

 19 20  0  0  0  0  0  0  0  0999 V2000
    0.9470    0.2822   -0.5864 O   0  0  0  0  0  0  0  0  0  0  0  0
    0.1908   -0.1472    0.2452 C   0  0  0  0  0  0  0  0  0  0  0  0
   -0.4788    0.7177    1.3014 C   0  0  0  0  0  0  0  0  0  0  0  0
   -1.0962    1.9913    0.7195 C   0  0  0  0  0  0  0  0  0  0  0  0
   -1.6665    2.8488    1.8588 C   0  0  0  0  0  0  0  0  0  0  0  0
   -2.4158    2.0205    2.8913 C   0  0  0  0  0  0  0  0  0  0  0  0
   -3.5556    1.0929    2.5259 C   0  0  0  0  0  0  0  0  0  0  0  0
   -2.2172    0.5251    2.9220 C   0  0  0  0  0  0  0  0  0  0  0  0
   -1.4567   -0.1001    1.9210 O   0  0  0  0  0  0  0  0  0  0  0  0
   -0.0766   -1.2243    0.3127 H   0  0  0  0  0  0  0  0  0  0  0  0
    0.3059    1.0005    2.0282 H   0  0  0  0  0  0  0  0  0  0  0  0
   -0.3341    2.5371    0.1573 H   0  0  0  0  0  0  0  0  0  0  0  0
   -1.8791    1.7015    0.0091 H   0  0  0  0  0  0  0  0  0  0  0  0
   -0.8310    3.3479    2.3661 H   0  0  0  0  0  0  0  0  0  0  0  0
   -2.3075    3.6425    1.4585 H   0  0  0  0  0  0  0  0  0  0  0  0
   -2.5032    2.4966    3.8637 H   0  0  0  0  0  0  0  0  0  0  0  0
   -4.3888    1.0061    3.2148 H   0  0  0  0  0  0  0  0  0  0  0  0
   -3.8215    0.9903    1.4793 H   0  0  0  0  0  0  0  0  0  0  0  0
   -2.1212    0.0214    3.8806 H   0  0  0  0  0  0  0  0  0  0  0  0
  1  2  2  0
  2  3  1  0
  3  4  1  0
  4  5  1  0
  5  6  1  0
  6  7  1  0
  7  8  1  0
  8  9  1  0
  9  3  1  0
  8  6  1  0
  2 10  1  0
  3 11  1  0
  4 12  1  0
  4 13  1  0
  5 14  1  0
  5 15  1  0
  6 16  1  0
  7 17  1  0
  7 18  1  0
  8 19  1  0
M  END
$$$$
