gdb 710	3.2164804	1.3479319	1.0424267	4.495	75.31	-0.2559	0.01571	0.27161	1150.4911	0.159071	-422.579322	-422.571448	-422.570504	-422.612073	30.372
 OpenBabel02181911403D

 19 20  0  0  1  0  0  0  0  0999 V2000
   -2.6132   -1.2162    1.3855 O   0  0  0  0  0  0  0  0  0  0  0  0
   -1.5522   -1.1853    0.8206 C   0  0  0  0  0  0  0  0  0  0  0  0
   -0.4501   -2.1649    1.2602 C   0  0  0  0  0  0  0  0  0  0  0  0
    0.9886   -2.0886    0.7305 C   0  0  0  0  0  0  0  0  0  0  0  0
    1.0530   -2.2652   -0.7731 C   0  0  2  0  0  0  0  0  0  0  0  0
    1.9088   -1.3755   -1.6342 C   0  0  0  0  0  0  0  0  0  0  0  0
    0.4075   -1.1915   -1.6152 C   0  0  2  0  0  0  0  0  0  0  0  0
   -0.1819   -0.0165   -0.8837 C   0  0  0  0  0  0  0  0  0  0  0  0
   -1.4184   -0.3163   -0.2127 O   0  0  0  0  0  0  0  0  0  0  0  0
   -0.4598   -2.1149    2.3534 H   0  0  0  0  0  0  0  0  0  0  0  0
   -0.8674   -3.1505    1.0166 H   0  0  0  0  0  0  0  0  0  0  0  0
    1.4590   -1.1467    1.0305 H   0  0  0  0  0  0  0  0  0  0  0  0
    1.5715   -2.8748    1.2241 H   0  0  0  0  0  0  0  0  0  0  0  0
    0.9152   -3.2868   -1.1166 H   0  0  0  0  0  0  0  0  0  0  0  0
    2.5208   -0.6254   -1.1424 H   0  0  0  0  0  0  0  0  0  0  0  0
    2.3558   -1.7932   -2.5289 H   0  0  0  0  0  0  0  0  0  0  0  0
   -0.1446   -1.5048   -2.4957 H   0  0  0  0  0  0  0  0  0  0  0  0
    0.5309    0.4081   -0.1699 H   0  0  0  0  0  0  0  0  0  0  0  0
   -0.4556    0.7813   -1.5787 H   0  0  0  0  0  0  0  0  0  0  0  0
  2  3  1  0  0  0  0
  2  1  2  0  0  0  0
  3 10  1  0  0  0  0
  4 12  1  0  0  0  0
  4 13  1  0  0  0  0
  4  3  1  0  0  0  0
  5 14  1  6  0  0  0
  5  4  1  0  0  0  0
  6  7  1  0  0  0  0
  6 15  1  0  0  0  0
  6  5  1  0  0  0  0
  7 17  1  6  0  0  0
  7  8  1  0  0  0  0
  7  5  1  0  0  0  0
  8  9  1  0  0  0  0
  8 18  1  0  0  0  0
  9  2  1  0  0  0  0
 11  3  1  0  0  0  0
 16  6  1  0  0  0  0
 19  8  1  0  0  0  0
M TOR 0 0 1 2 3
M TOR 1 0 1 2 9
M TOR 2 0 1 2 10
M TOR 3 0 1 8 7
M TOR 4 1 2 3 4
M TOR 5 1 2 3 11
M TOR 6 1 2 3 12
M TOR 7 1 8 7 6
M TOR 8 1 8 7 17
M TOR 9 1 8 7 18
M TOR 10 2 1 8 7
M TOR 11 2 3 4 5
M TOR 12 2 3 4 6
M TOR 13 2 3 4 13
M TOR 14 3 2 1 8
M TOR 15 3 4 5 6
M TOR 16 3 4 5 14
M TOR 17 3 4 5 15
M TOR 18 3 4 6 7
M TOR 19 3 4 6 16
M TOR 20 4 3 2 9
M TOR 21 4 3 2 10
M TOR 22 4 5 6 7
M TOR 23 4 5 6 16
M TOR 24 4 6 5 14
M TOR 25 4 6 5 15
M TOR 26 4 6 7 8
M TOR 27 4 6 7 17
M TOR 28 4 6 7 18
M TOR 29 5 4 3 11
M TOR 30 5 4 3 12
M TOR 31 5 6 4 13
M TOR 32 5 6 7 8
M TOR 33 5 6 7 17
M TOR 34 5 6 7 18
M TOR 35 6 4 3 11
M TOR 36 6 4 3 12
M TOR 37 7 6 4 13
M TOR 38 7 6 5 14
M TOR 39 7 6 5 15
M TOR 40 8 1 2 9
M TOR 41 8 1 2 10
M TOR 42 8 7 6 16
M  END
$$$$
