gdb 5917	1.8982077	1.1831513	1.0135048	3.865	78.87	-0.25543	-0.05346	0.20196999999999998	1340.0627	0.152778	-422.521746	-422.510928	-422.509984	-422.558574	36.986
 OpenBabel02181911423D

 19 18  0  0  1  0  0  0  0  0999 V2000
    1.3534    0.0835   -0.0893 C   0  0  0  0  0  0  0  0  0  0  0  0
   -0.0493    0.0699    0.0317 O   0  0  0  0  0  0  0  0  0  0  0  0
   -0.5070    0.6196    1.2460 C   0  0  0  0  0  0  0  0  0  0  0  0
   -2.0338    0.6095    1.2226 C   0  0  1  0  0  0  0  0  0  0  0  0
   -2.6167    1.2086    2.5148 C   0  0  0  0  0  0  0  0  0  0  0  0
   -2.5779    1.3550    0.0055 C   0  0  0  0  0  0  0  0  0  0  0  0
   -3.4196    0.8866   -0.7272 O   0  0  0  0  0  0  0  0  0  0  0  0
   -2.0691    2.7051   -0.2083 C   0  0  0  0  0  0  0  0  0  0  0  0
   -1.6648    3.8255   -0.3845 C   0  0  0  0  0  0  0  0  0  0  0  0
    1.8365   -0.5097    0.7032 H   0  0  0  0  0  0  0  0  0  0  0  0
    1.6015   -0.3540   -1.0589 H   0  0  0  0  0  0  0  0  0  0  0  0
    1.7561    1.1076   -0.0458 H   0  0  0  0  0  0  0  0  0  0  0  0
   -0.1443    0.0324    2.1065 H   0  0  0  0  0  0  0  0  0  0  0  0
   -0.1337    1.6498    1.3706 H   0  0  0  0  0  0  0  0  0  0  0  0
   -2.3785   -0.4222    1.1035 H   0  0  0  0  0  0  0  0  0  0  0  0
   -2.2463    0.6632    3.3881 H   0  0  0  0  0  0  0  0  0  0  0  0
   -2.3356    2.2607    2.6261 H   0  0  0  0  0  0  0  0  0  0  0  0
   -3.7081    1.1458    2.5136 H   0  0  0  0  0  0  0  0  0  0  0  0
   -1.3181    4.8156   -0.5567 H   0  0  0  0  0  0  0  0  0  0  0  0
  1 12  1  0  0  0  0
  1  2  1  0  0  0  0
  1 10  1  0  0  0  0
  2  3  1  0  0  0  0
  3 14  1  0  0  0  0
  3 13  1  0  0  0  0
  4 15  1  6  0  0  0
  4  3  1  0  0  0  0
  4  5  1  0  0  0  0
  5 17  1  0  0  0  0
  5 16  1  0  0  0  0
  6  4  1  0  0  0  0
  7  6  2  0  0  0  0
  8  6  1  0  0  0  0
  9  8  3  0  0  0  0
 11  1  1  0  0  0  0
 18  5  1  0  0  0  0
 19  9  1  0  0  0  0
M TOR 0 0 1 2 3
M TOR 1 0 1 2 12
M TOR 2 0 1 2 13
M TOR 3 1 2 3 4
M TOR 4 1 2 3 5
M TOR 5 1 2 3 14
M TOR 6 2 1 0 9
M TOR 7 2 1 0 10
M TOR 8 2 1 0 11
M TOR 9 2 3 4 15
M TOR 10 2 3 4 16
M TOR 11 2 3 4 17
M TOR 12 2 3 5 6
M TOR 13 2 3 5 7
M TOR 14 3 5 7 8
M TOR 15 4 3 2 12
M TOR 16 4 3 2 13
M TOR 17 4 3 5 6
M TOR 18 4 3 5 7
M TOR 19 5 3 2 12
M TOR 20 5 3 2 13
M TOR 21 5 3 4 15
M TOR 22 5 3 4 16
M TOR 23 5 3 4 17
M TOR 24 5 7 8 18
M TOR 25 6 5 3 14
M TOR 26 6 5 7 8
M TOR 27 7 5 3 14
M  END
$$$$
