gdb 975	6.7543129	0.6711259	0.6518943	3.5685	77.36	-0.24287	-0.01852	0.22435	1694.3193	0.155318	-422.520237	-422.51135	-422.510406	-422.555087	31.849
 OpenBabel02181911403D

 19 20  0  0  1  0  0  0  0  0999 V2000
    0.3955   -1.0334   -0.1581 O   0  0  0  0  0  0  0  0  0  0  0  0
    0.4474    0.1413    0.1000 C   0  0  0  0  0  0  0  0  0  0  0  0
   -0.3043    0.8220    1.2181 C   0  0  0  0  0  0  0  0  0  0  0  0
   -1.1672    1.9872    0.7047 C   0  0  0  0  0  0  0  0  0  0  0  0
   -1.7604    2.7955    1.8469 C   0  0  1  0  0  0  0  0  0  0  0  0
   -0.7049    3.4113    2.6504 O   0  0  0  0  0  0  0  0  0  0  0  0
   -1.1419    4.7116    2.2442 C   0  0  2  0  0  0  0  0  0  0  0  0
   -2.5304    4.9833    2.7268 C   0  0  0  0  0  0  0  0  0  0  0  0
   -2.3163    4.1672    1.4675 C   0  0  2  0  0  0  0  0  0  0  0  0
    1.0834    0.8314   -0.5050 H   0  0  0  0  0  0  0  0  0  0  0  0
   -0.9027    0.0742    1.7466 H   0  0  0  0  0  0  0  0  0  0  0  0
    0.4346    1.2358    1.9182 H   0  0  0  0  0  0  0  0  0  0  0  0
   -0.5614    2.6549    0.0795 H   0  0  0  0  0  0  0  0  0  0  0  0
   -1.9846    1.6084    0.0776 H   0  0  0  0  0  0  0  0  0  0  0  0
   -2.4079    2.1665    2.4727 H   0  0  0  0  0  0  0  0  0  0  0  0
   -0.3866    5.4571    2.0250 H   0  0  0  0  0  0  0  0  0  0  0  0
   -2.8812    4.5113    3.6406 H   0  0  0  0  0  0  0  0  0  0  0  0
   -2.8989    5.9902    2.5554 H   0  0  0  0  0  0  0  0  0  0  0  0
   -2.7184    4.4381    0.5004 H   0  0  0  0  0  0  0  0  0  0  0  0
  1  2  2  0  0  0  0
  2  3  1  0  0  0  0
  3 11  1  0  0  0  0
  3 12  1  0  0  0  0
  4  3  1  0  0  0  0
  4  5  1  0  0  0  0
  5 15  1  1  0  0  0
  5  6  1  0  0  0  0
  7 16  1  6  0  0  0
  7  6  1  0  0  0  0
  7  8  1  0  0  0  0
  8 17  1  0  0  0  0
  9 19  1  6  0  0  0
  9  5  1  0  0  0  0
  9  7  1  0  0  0  0
  9  8  1  0  0  0  0
 10  2  1  0  0  0  0
 13  4  1  0  0  0  0
 14  4  1  0  0  0  0
 18  8  1  0  0  0  0
M TOR 0 0 1 2 3
M TOR 1 0 1 2 10
M TOR 2 0 1 2 11
M TOR 3 1 2 3 4
M TOR 4 1 2 3 12
M TOR 5 1 2 3 13
M TOR 6 2 3 4 5
M TOR 7 2 3 4 8
M TOR 8 2 3 4 14
M TOR 9 3 2 1 9
M TOR 10 3 4 5 6
M TOR 11 3 4 8 6
M TOR 12 3 4 8 7
M TOR 13 3 4 8 18
M TOR 14 4 3 2 10
M TOR 15 4 3 2 11
M TOR 16 4 5 6 7
M TOR 17 4 5 6 8
M TOR 18 4 5 6 15
M TOR 19 4 8 6 7
M TOR 20 4 8 6 15
M TOR 21 4 8 7 16
M TOR 22 4 8 7 17
M TOR 23 5 4 3 12
M TOR 24 5 4 3 13
M TOR 25 5 4 8 7
M TOR 26 5 4 8 18
M TOR 27 5 6 7 8
M TOR 28 5 6 7 16
M TOR 29 5 6 7 17
M TOR 30 5 6 8 18
M TOR 31 6 5 4 14
M TOR 32 6 7 8 18
M TOR 33 6 8 4 14
M TOR 34 6 8 7 16
M TOR 35 6 8 7 17
M TOR 36 7 8 4 14
M TOR 37 7 8 6 15
M TOR 38 8 4 3 12
M TOR 39 8 4 3 13
M  END
$$$$
