
     RDKit          3D

 19 21  0  0  0  0  0  0  0  0999 V2000
    0.8179    1.4756   -0.1626 C   0  0  0  0  0  0  0  0  0  0  0  0
    1.6022    0.1944   -0.0862 C   0  0  0  0  0  0  0  0  0  0  0  0
    2.6712   -0.1590    0.9112 C   0  0  0  0  0  0  0  0  0  0  0  0
    3.8796   -0.6567    0.1319 C   0  0  0  0  0  0  0  0  0  0  0  0
    3.5136   -0.5968   -1.2495 O   0  0  0  0  0  0  0  0  0  0  0  0
    2.1053   -0.5360   -1.3477 C   0  0  0  0  0  0  0  0  0  0  0  0
    1.5202   -1.8221   -1.3351 O   0  0  0  0  0  0  0  0  0  0  0  0
    1.3229   -2.2282    0.0221 C   0  0  0  0  0  0  0  0  0  0  0  0
    1.3742   -0.9561    0.8555 C   0  0  0  0  0  0  0  0  0  0  0  0
    0.5578    1.8334    0.8385 H   0  0  0  0  0  0  0  0  0  0  0  0
    1.3922    2.2657   -0.6591 H   0  0  0  0  0  0  0  0  0  0  0  0
   -0.1158    1.3391   -0.7197 H   0  0  0  0  0  0  0  0  0  0  0  0
    2.8397    0.4573    1.7876 H   0  0  0  0  0  0  0  0  0  0  0  0
    4.7488   -0.0079    0.2856 H   0  0  0  0  0  0  0  0  0  0  0  0
    4.1701   -1.6818    0.4020 H   0  0  0  0  0  0  0  0  0  0  0  0
    1.8635   -0.0756   -2.3069 H   0  0  0  0  0  0  0  0  0  0  0  0
    0.3443   -2.7150    0.0964 H   0  0  0  0  0  0  0  0  0  0  0  0
    2.0887   -2.9611    0.3126 H   0  0  0  0  0  0  0  0  0  0  0  0
    0.6948   -0.8611    1.6955 H   0  0  0  0  0  0  0  0  0  0  0  0
  1  2  1  0
  2  3  1  0
  3  4  1  0
  4  5  1  0
  5  6  1  0
  6  7  1  0
  7  8  1  0
  8  9  1  0
  6  2  1  0
  9  2  1  0
  9  3  1  0
  1 10  1  0
  1 11  1  0
  1 12  1  0
  3 13  1  0
  4 14  1  0
  4 15  1  0
  6 16  1  0
  8 17  1  0
  8 18  1  0
  9 19  1  0
M  END
$$$$
