
     RDKit          3D

 19 21  0  0  0  0  0  0  0  0999 V2000
    1.2304    0.5289   -0.8142 C   0  0  0  0  0  0  0  0  0  0  0  0
    1.7864    1.0959    0.5513 C   0  0  0  0  0  0  0  0  0  0  0  0
    0.3140    1.2605    1.0060 C   0  0  0  0  0  0  0  0  0  0  0  0
    0.4146   -0.1445    0.3055 C   0  0  0  0  0  0  0  0  0  0  0  0
   -0.5420   -1.1429    0.2923 O   0  0  0  0  0  0  0  0  0  0  0  0
   -0.6974   -1.5897    1.6496 C   0  0  0  0  0  0  0  0  0  0  0  0
    0.6392   -1.8604    2.3672 C   0  0  0  0  0  0  0  0  0  0  0  0
    1.5162   -0.7297    2.3960 O   0  0  0  0  0  0  0  0  0  0  0  0
    1.7336   -0.3728    1.0474 C   0  0  0  0  0  0  0  0  0  0  0  0
    0.7119    1.2533   -1.4447 H   0  0  0  0  0  0  0  0  0  0  0  0
    1.8996   -0.1132   -1.3930 H   0  0  0  0  0  0  0  0  0  0  0  0
    2.5966    1.8118    0.6638 H   0  0  0  0  0  0  0  0  0  0  0  0
    0.1421    1.2711    2.0807 H   0  0  0  0  0  0  0  0  0  0  0  0
   -0.2760    2.0155    0.4819 H   0  0  0  0  0  0  0  0  0  0  0  0
   -1.2724   -0.8427    2.2151 H   0  0  0  0  0  0  0  0  0  0  0  0
   -1.2784   -2.5151    1.6078 H   0  0  0  0  0  0  0  0  0  0  0  0
    0.4374   -2.1323    3.4073 H   0  0  0  0  0  0  0  0  0  0  0  0
    1.1462   -2.7083    1.8788 H   0  0  0  0  0  0  0  0  0  0  0  0
    2.4501   -1.0610    0.5767 H   0  0  0  0  0  0  0  0  0  0  0  0
  1  2  1  0
  2  3  1  0
  3  4  1  0
  4  5  1  0
  5  6  1  0
  6  7  1  0
  7  8  1  0
  8  9  1  0
  4  1  1  0
  9  4  1  0
  9  2  1  0
  1 10  1  0
  1 11  1  0
  2 12  1  0
  3 13  1  0
  3 14  1  0
  6 15  1  0
  6 16  1  0
  7 17  1  0
  7 18  1  0
  9 19  1  0
M  END
$$$$
