
     RDKit          3D

 19 21  0  0  0  0  0  0  0  0999 V2000
    0.6501    0.9759   -0.0112 C   0  0  0  0  0  0  0  0  0  0  0  0
    0.8523   -0.5168   -0.1478 C   0  0  0  0  0  0  0  0  0  0  0  0
    1.9961   -1.2170    0.5557 C   0  0  0  0  0  0  0  0  0  0  0  0
    1.8253   -2.5159    1.0502 O   0  0  0  0  0  0  0  0  0  0  0  0
    2.0145   -1.0767   -0.9317 C   0  0  0  0  0  0  0  0  0  0  0  0
    3.0929   -0.3685   -1.7936 C   0  0  0  0  0  0  0  0  0  0  0  0
    3.0209   -1.5828   -2.7410 C   0  0  0  0  0  0  0  0  0  0  0  0
    1.6708   -1.6936   -3.2008 O   0  0  0  0  0  0  0  0  0  0  0  0
    1.9969   -2.2356   -1.9090 C   0  0  0  0  0  0  0  0  0  0  0  0
    0.0576    1.2188    0.8780 H   0  0  0  0  0  0  0  0  0  0  0  0
    1.6077    1.4996    0.0750 H   0  0  0  0  0  0  0  0  0  0  0  0
    0.1296    1.3858   -0.8833 H   0  0  0  0  0  0  0  0  0  0  0  0
   -0.0589   -1.1076   -0.2169 H   0  0  0  0  0  0  0  0  0  0  0  0
    2.6872   -0.5936    1.1272 H   0  0  0  0  0  0  0  0  0  0  0  0
    1.2486   -2.4676    1.8200 H   0  0  0  0  0  0  0  0  0  0  0  0
    2.8204    0.5866   -2.2501 H   0  0  0  0  0  0  0  0  0  0  0  0
    4.0534   -0.2747   -1.2793 H   0  0  0  0  0  0  0  0  0  0  0  0
    3.7994   -2.0028   -3.3668 H   0  0  0  0  0  0  0  0  0  0  0  0
    1.7746   -3.2785   -1.7248 H   0  0  0  0  0  0  0  0  0  0  0  0
  1  2  1  0
  2  3  1  0
  3  4  1  0
  3  5  1  0
  5  6  1  0
  6  7  1  0
  7  8  1  0
  8  9  1  0
  5  2  1  0
  9  5  1  0
  9  7  1  0
  1 10  1  0
  1 11  1  0
  1 12  1  0
  2 13  1  0
  3 14  1  0
  4 15  1  0
  6 16  1  0
  6 17  1  0
  7 18  1  0
  9 19  1  0
M  END
$$$$
