
     RDKit          3D

 19 20  0  0  0  0  0  0  0  0999 V2000
    1.0254   -0.5222   -0.9424 C   0  0  0  0  0  0  0  0  0  0  0  0
    1.0290    0.0800    0.4473 C   0  0  0  0  0  0  0  0  0  0  0  0
    1.7217    1.3761    0.6991 C   0  0  0  0  0  0  0  0  0  0  0  0
    1.2977    2.2429    1.7001 O   0  0  0  0  0  0  0  0  0  0  0  0
    1.1197    1.4913    2.9064 C   0  0  0  0  0  0  0  0  0  0  0  0
    2.0668    0.2743    2.8195 C   0  0  0  0  0  0  0  0  0  0  0  0
    2.2952    0.0911    1.3267 C   0  0  0  0  0  0  0  0  0  0  0  0
    3.5801   -0.4669    0.8724 C   0  0  0  0  0  0  0  0  0  0  0  0
    4.4743   -0.8060    1.6145 O   0  0  0  0  0  0  0  0  0  0  0  0
    1.0393   -1.6166   -0.9097 H   0  0  0  0  0  0  0  0  0  0  0  0
    0.1234   -0.2119   -1.4798 H   0  0  0  0  0  0  0  0  0  0  0  0
    1.8850   -0.1966   -1.5353 H   0  0  0  0  0  0  0  0  0  0  0  0
    0.1166   -0.0980    1.0109 H   0  0  0  0  0  0  0  0  0  0  0  0
    2.2190    1.8934   -0.1147 H   0  0  0  0  0  0  0  0  0  0  0  0
    1.3402    2.1576    3.7439 H   0  0  0  0  0  0  0  0  0  0  0  0
    0.0723    1.1734    2.9957 H   0  0  0  0  0  0  0  0  0  0  0  0
    3.0328    0.4705    3.2912 H   0  0  0  0  0  0  0  0  0  0  0  0
    1.6341   -0.6068    3.3019 H   0  0  0  0  0  0  0  0  0  0  0  0
    3.7005   -0.5488   -0.2296 H   0  0  0  0  0  0  0  0  0  0  0  0
  1  2  1  0
  2  3  1  0
  3  4  1  0
  4  5  1  0
  5  6  1  0
  6  7  1  0
  7  8  1  0
  8  9  2  0
  7  2  1  0
  7  3  1  0
  1 10  1  0
  1 11  1  0
  1 12  1  0
  2 13  1  0
  3 14  1  0
  5 15  1  0
  5 16  1  0
  6 17  1  0
  6 18  1  0
  8 19  1  0
M  END
$$$$
