
     RDKit          3D

 19 20  0  0  0  0  0  0  0  0999 V2000
   -1.0634    1.9476   -1.3178 C   0  0  0  0  0  0  0  0  0  0  0  0
   -1.1270    1.0376   -0.0947 C   0  0  0  0  0  0  0  0  0  0  0  0
   -1.1261    1.8561    1.2076 C   0  0  0  0  0  0  0  0  0  0  0  0
   -2.2067   -0.1016   -0.0300 C   0  0  0  0  0  0  0  0  0  0  0  0
   -2.5343   -0.8265   -1.3418 C   0  0  0  0  0  0  0  0  0  0  0  0
   -1.3709   -1.6834   -1.2205 O   0  0  0  0  0  0  0  0  0  0  0  0
   -1.0852   -1.1827    0.1086 C   0  0  0  0  0  0  0  0  0  0  0  0
   -0.0321   -0.0582    0.0028 C   0  0  0  0  0  0  0  0  0  0  0  0
    1.1632   -0.0261   -0.0106 O   0  0  0  0  0  0  0  0  0  0  0  0
   -1.0236    1.3818   -2.2523 H   0  0  0  0  0  0  0  0  0  0  0  0
   -1.9306    2.6163   -1.3564 H   0  0  0  0  0  0  0  0  0  0  0  0
   -0.1614    2.5658   -1.2728 H   0  0  0  0  0  0  0  0  0  0  0  0
   -1.1765    1.2137    2.0935 H   0  0  0  0  0  0  0  0  0  0  0  0
   -0.2143    2.4558    1.2806 H   0  0  0  0  0  0  0  0  0  0  0  0
   -1.9894    2.5301    1.2315 H   0  0  0  0  0  0  0  0  0  0  0  0
   -3.0078    0.0380    0.6937 H   0  0  0  0  0  0  0  0  0  0  0  0
   -3.4571   -1.4185   -1.3000 H   0  0  0  0  0  0  0  0  0  0  0  0
   -2.5274   -0.2424   -2.2677 H   0  0  0  0  0  0  0  0  0  0  0  0
   -1.0033   -1.9701    0.8622 H   0  0  0  0  0  0  0  0  0  0  0  0
  1  2  1  0
  2  3  1  0
  2  4  1  0
  4  5  1  0
  5  6  1  0
  6  7  1  0
  7  8  1  0
  8  9  2  0
  8  2  1  0
  7  4  1  0
  1 10  1  0
  1 11  1  0
  1 12  1  0
  3 13  1  0
  3 14  1  0
  3 15  1  0
  4 16  1  0
  5 17  1  0
  5 18  1  0
  7 19  1  0
M  END
$$$$
