
     RDKit          3D

 19 20  0  0  0  0  0  0  0  0999 V2000
   -0.1820   -2.4030    0.4989 C   0  0  0  0  0  0  0  0  0  0  0  0
   -0.8104   -1.2316   -0.2149 C   0  0  0  0  0  0  0  0  0  0  0  0
   -1.8012   -1.4621   -1.3507 C   0  0  0  0  0  0  0  0  0  0  0  0
   -2.2616   -0.7730   -0.1034 C   0  0  0  0  0  0  0  0  0  0  0  0
   -2.3350    0.7577   -0.1954 C   0  0  0  0  0  0  0  0  0  0  0  0
   -0.8726    1.2391   -0.1401 C   0  0  0  0  0  0  0  0  0  0  0  0
   -0.5783    2.3190   -0.9862 O   0  0  0  0  0  0  0  0  0  0  0  0
   -0.0022    0.0107   -0.4270 C   0  0  0  0  0  0  0  0  0  0  0  0
    1.1601    0.0941   -0.7518 O   0  0  0  0  0  0  0  0  0  0  0  0
    0.0986   -2.1434    1.5253 H   0  0  0  0  0  0  0  0  0  0  0  0
   -0.8706   -3.2519    0.5418 H   0  0  0  0  0  0  0  0  0  0  0  0
    0.7246   -2.7231   -0.0240 H   0  0  0  0  0  0  0  0  0  0  0  0
   -1.7157   -0.8815   -2.2646 H   0  0  0  0  0  0  0  0  0  0  0  0
   -2.0833   -2.4983   -1.5068 H   0  0  0  0  0  0  0  0  0  0  0  0
   -2.9421   -1.2935    0.5607 H   0  0  0  0  0  0  0  0  0  0  0  0
   -2.7926    1.0859   -1.1337 H   0  0  0  0  0  0  0  0  0  0  0  0
   -2.9230    1.1788    0.6224 H   0  0  0  0  0  0  0  0  0  0  0  0
   -0.6367    1.4877    0.9135 H   0  0  0  0  0  0  0  0  0  0  0  0
    0.3615    2.2311   -1.2019 H   0  0  0  0  0  0  0  0  0  0  0  0
  1  2  1  0
  2  3  1  0
  3  4  1  0
  4  5  1  0
  5  6  1  0
  6  7  1  0
  6  8  1  0
  8  9  2  0
  4  2  1  0
  8  2  1  0
  1 10  1  0
  1 11  1  0
  1 12  1  0
  3 13  1  0
  3 14  1  0
  4 15  1  0
  5 16  1  0
  5 17  1  0
  6 18  1  0
  7 19  1  0
M  END
$$$$
