gdb 1913	2.4071795	1.5077759	1.2742973	2.8595	76.17	-0.22875	-0.01135	0.2174	1094.4228	0.154201	-422.552929	-422.543388	-422.542444	-422.586579	35.493
 OpenBabel02181911403D

 19 20  0  0  1  0  0  0  0  0999 V2000
   -0.9767    2.0531    1.2641 C   0  0  0  0  0  0  0  0  0  0  0  0
   -1.1375    1.0874    0.0927 C   0  0  0  0  0  0  0  0  0  0  0  0
   -1.1304    1.8375   -1.2470 C   0  0  0  0  0  0  0  0  0  0  0  0
   -2.2578    0.0216    0.1537 C   0  0  2  0  0  0  0  0  0  0  0  0
   -2.0643   -0.8967    1.3165 C   0  0  0  0  0  0  0  0  0  0  0  0
   -1.2320   -1.1326    0.0612 C   0  0  1  0  0  0  0  0  0  0  0  0
   -1.3164   -2.2957   -0.6695 O   0  0  0  0  0  0  0  0  0  0  0  0
   -0.1326   -0.1069   -0.0157 C   0  0  0  0  0  0  0  0  0  0  0  0
    1.0367   -0.1582   -0.2765 O   0  0  0  0  0  0  0  0  0  0  0  0
   -1.0214    1.5498    2.2338 H   0  0  0  0  0  0  0  0  0  0  0  0
   -0.0096    2.5620    1.1991 H   0  0  0  0  0  0  0  0  0  0  0  0
   -1.7604    2.8188    1.2485 H   0  0  0  0  0  0  0  0  0  0  0  0
   -1.2498    1.1522   -2.0922 H   0  0  0  0  0  0  0  0  0  0  0  0
   -1.9473    2.5666   -1.2809 H   0  0  0  0  0  0  0  0  0  0  0  0
   -0.1855    2.3722   -1.3782 H   0  0  0  0  0  0  0  0  0  0  0  0
   -3.1944    0.0857   -0.3857 H   0  0  0  0  0  0  0  0  0  0  0  0
   -1.6156   -0.5586    2.2454 H   0  0  0  0  0  0  0  0  0  0  0  0
   -2.8326   -1.6544    1.4389 H   0  0  0  0  0  0  0  0  0  0  0  0
   -0.9176   -3.0102   -0.1606 H   0  0  0  0  0  0  0  0  0  0  0  0
  1 10  1  0  0  0  0
  2  4  1  0  0  0  0
  2  1  1  0  0  0  0
  3  2  1  0  0  0  0
  4 16  1  6  0  0  0
  4  5  1  0  0  0  0
  5 18  1  0  0  0  0
  5 17  1  0  0  0  0
  6  7  1  6  0  0  0
  6  4  1  0  0  0  0
  6  5  1  0  0  0  0
  7 19  1  0  0  0  0
  8  6  1  0  0  0  0
  8  2  1  0  0  0  0
  9  8  2  0  0  0  0
 11  1  1  0  0  0  0
 12  1  1  0  0  0  0
 13  3  1  0  0  0  0
 14  3  1  0  0  0  0
 15  3  1  0  0  0  0
M TOR 0 0 1 2 12
M TOR 1 0 1 2 13
M TOR 2 0 1 2 14
M TOR 3 0 1 3 4
M TOR 4 0 1 3 5
M TOR 5 0 1 3 15
M TOR 6 0 1 7 5
M TOR 7 0 1 7 8
M TOR 8 1 3 4 5
M TOR 9 1 3 4 16
M TOR 10 1 3 4 17
M TOR 11 1 3 5 6
M TOR 12 1 3 5 7
M TOR 13 1 7 5 4
M TOR 14 1 7 5 6
M TOR 15 2 1 0 9
M TOR 16 2 1 0 10
M TOR 17 2 1 0 11
M TOR 18 2 1 3 4
M TOR 19 2 1 3 5
M TOR 20 2 1 3 15
M TOR 21 2 1 7 5
M TOR 22 2 1 7 8
M TOR 23 3 1 0 9
M TOR 24 3 1 0 10
M TOR 25 3 1 0 11
M TOR 26 3 1 2 12
M TOR 27 3 1 2 13
M TOR 28 3 1 2 14
M TOR 29 3 1 7 8
M TOR 30 3 4 5 6
M TOR 31 3 4 5 7
M TOR 32 3 5 4 16
M TOR 33 3 5 4 17
M TOR 34 3 5 6 18
M TOR 35 3 5 7 8
M TOR 36 4 3 1 7
M TOR 37 4 5 3 15
M TOR 38 4 5 6 18
M TOR 39 4 5 7 8
M TOR 40 6 5 3 15
M TOR 41 6 5 4 16
M TOR 42 6 5 4 17
M TOR 43 6 5 7 8
M TOR 44 7 1 0 9
M TOR 45 7 1 0 10
M TOR 46 7 1 0 11
M TOR 47 7 1 2 12
M TOR 48 7 1 2 13
M TOR 49 7 1 2 14
M TOR 50 7 1 3 15
M TOR 51 7 5 3 15
M TOR 52 7 5 4 16
M TOR 53 7 5 4 17
M TOR 54 7 5 6 18
M  END
$$$$
