
     RDKit          3D

 19 20  0  0  0  0  0  0  0  0999 V2000
   -0.1156    1.5116    0.1486 C   0  0  0  0  0  0  0  0  0  0  0  0
    0.0905    0.0032    0.0633 C   0  0  0  0  0  0  0  0  0  0  0  0
   -1.1973   -0.6436   -0.1003 O   0  0  0  0  0  0  0  0  0  0  0  0
   -1.2262   -1.7879    0.7269 C   0  0  0  0  0  0  0  0  0  0  0  0
   -2.0856   -1.8831    2.0394 C   0  0  0  0  0  0  0  0  0  0  0  0
   -0.7611   -2.3039    2.8065 C   0  0  0  0  0  0  0  0  0  0  0  0
   -0.4682   -1.7410    4.0563 O   0  0  0  0  0  0  0  0  0  0  0  0
   -0.0462   -1.6773    1.6404 C   0  0  0  0  0  0  0  0  0  0  0  0
    0.6707   -0.6035    1.3373 C   0  0  0  0  0  0  0  0  0  0  0  0
    0.8481    2.0304    0.1843 H   0  0  0  0  0  0  0  0  0  0  0  0
   -0.6638    1.8628   -0.7301 H   0  0  0  0  0  0  0  0  0  0  0  0
   -0.6891    1.7716    1.0432 H   0  0  0  0  0  0  0  0  0  0  0  0
    0.7052   -0.2229   -0.8241 H   0  0  0  0  0  0  0  0  0  0  0  0
   -1.3150   -2.6986    0.1196 H   0  0  0  0  0  0  0  0  0  0  0  0
   -2.4006   -0.8920    2.3700 H   0  0  0  0  0  0  0  0  0  0  0  0
   -2.9202   -2.5888    2.0542 H   0  0  0  0  0  0  0  0  0  0  0  0
   -0.6698   -3.3995    2.8249 H   0  0  0  0  0  0  0  0  0  0  0  0
   -0.8931   -2.2728    4.7363 H   0  0  0  0  0  0  0  0  0  0  0  0
    1.4186   -0.1029    1.9384 H   0  0  0  0  0  0  0  0  0  0  0  0
  1  2  1  0
  2  3  1  0
  3  4  1  0
  4  5  1  0
  5  6  1  0
  6  7  1  0
  6  8  1  0
  8  9  2  0
  9  2  1  0
  8  4  1  0
  1 10  1  0
  1 11  1  0
  1 12  1  0
  2 13  1  0
  4 14  1  0
  5 15  1  0
  5 16  1  0
  6 17  1  0
  7 18  1  0
  9 19  1  0
M  END
$$$$
