
     RDKit          3D

 19 20  0  0  0  0  0  0  0  0999 V2000
   -2.2783   -3.6855    2.4638 O   0  0  0  0  0  0  0  0  0  0  0  0
   -1.6513   -3.2966    1.2768 C   0  0  0  0  0  0  0  0  0  0  0  0
   -0.1471   -3.2586    1.2017 C   0  0  0  0  0  0  0  0  0  0  0  0
   -0.9466   -1.9722    1.3035 C   0  0  0  0  0  0  0  0  0  0  0  0
   -1.0288   -1.0163    0.1475 C   0  0  0  0  0  0  0  0  0  0  0  0
   -2.1014    0.1248    0.1396 C   0  0  0  0  0  0  0  0  0  0  0  0
   -1.0211    1.1594   -0.2957 C   0  0  0  0  0  0  0  0  0  0  0  0
    0.0413    0.0955    0.0300 C   0  0  0  0  0  0  0  0  0  0  0  0
    1.2196    0.1304    0.2329 O   0  0  0  0  0  0  0  0  0  0  0  0
   -2.1649   -4.6368    2.5614 H   0  0  0  0  0  0  0  0  0  0  0  0
   -2.1933   -3.5538    0.3655 H   0  0  0  0  0  0  0  0  0  0  0  0
    0.4008   -3.5653    2.0856 H   0  0  0  0  0  0  0  0  0  0  0  0
    0.3348   -3.4970    0.2594 H   0  0  0  0  0  0  0  0  0  0  0  0
   -0.9287   -1.5045    2.2842 H   0  0  0  0  0  0  0  0  0  0  0  0
   -1.0550   -1.5697   -0.8009 H   0  0  0  0  0  0  0  0  0  0  0  0
   -2.9432   -0.0132   -0.5395 H   0  0  0  0  0  0  0  0  0  0  0  0
   -2.4864    0.3245    1.1423 H   0  0  0  0  0  0  0  0  0  0  0  0
   -1.0430    1.3913   -1.3657 H   0  0  0  0  0  0  0  0  0  0  0  0
   -0.9459    2.0974    0.2597 H   0  0  0  0  0  0  0  0  0  0  0  0
  1  2  1  0
  2  3  1  0
  3  4  1  0
  4  5  1  0
  5  6  1  0
  6  7  1  0
  7  8  1  0
  8  9  2  0
  4  2  1  0
  8  5  1  0
  1 10  1  0
  2 11  1  0
  3 12  1  0
  3 13  1  0
  4 14  1  0
  5 15  1  0
  6 16  1  0
  6 17  1  0
  7 18  1  0
  7 19  1  0
M  END
$$$$
