gdb 5882	8.4115185	0.4246824	0.4209037	2.6576	84.03	-0.25767	0.0067	0.26437	2583.1186	0.154398	-422.551259	-422.540538	-422.539594	-422.590307	35.403
 OpenBabel02181911423D

 19 18  0  0  0  0  0  0  0  0999 V2000
    0.6471   -0.5999   -0.9020 C   0  0  0  0  0  0  0  0  0  0  0  0
    0.7330    0.3704    0.2776 C   0  0  0  0  0  0  0  0  0  0  0  0
    1.9059    1.3617    0.1349 C   0  0  0  0  0  0  0  0  0  0  0  0
    2.0130    2.2994    1.2459 C   0  0  0  0  0  0  0  0  0  0  0  0
    2.0780    3.0656    2.1720 C   0  0  0  0  0  0  0  0  0  0  0  0
    2.1894    3.9657    3.3031 C   0  0  0  0  0  0  0  0  0  0  0  0
    1.4363    5.1754    3.0213 O   0  0  0  0  0  0  0  0  0  0  0  0
    1.4589    6.0897    3.9978 C   0  0  0  0  0  0  0  0  0  0  0  0
    2.0327    5.9879    5.0480 O   0  0  0  0  0  0  0  0  0  0  0  0
   -0.1899   -1.2938   -0.7816 H   0  0  0  0  0  0  0  0  0  0  0  0
    0.5029   -0.0649   -1.8473 H   0  0  0  0  0  0  0  0  0  0  0  0
    1.5625   -1.1950   -0.9950 H   0  0  0  0  0  0  0  0  0  0  0  0
   -0.1997    0.9376    0.3696 H   0  0  0  0  0  0  0  0  0  0  0  0
    0.8507   -0.1842    1.2152 H   0  0  0  0  0  0  0  0  0  0  0  0
    2.8470    0.8030    0.0400 H   0  0  0  0  0  0  0  0  0  0  0  0
    1.7970    1.9240   -0.8023 H   0  0  0  0  0  0  0  0  0  0  0  0
    1.7961    3.5163    4.2212 H   0  0  0  0  0  0  0  0  0  0  0  0
    3.2306    4.2419    3.5018 H   0  0  0  0  0  0  0  0  0  0  0  0
    0.8614    6.9586    3.6815 H   0  0  0  0  0  0  0  0  0  0  0  0
  1 10  1  0  0  0  0
  1  2  1  0  0  0  0
  2 13  1  0  0  0  0
  2 14  1  0  0  0  0
  3  2  1  0  0  0  0
  3  4  1  0  0  0  0
  4  5  3  0  0  0  0
  5  6  1  0  0  0  0
  6 18  1  0  0  0  0
  6 17  1  0  0  0  0
  7  6  1  0  0  0  0
  7  8  1  0  0  0  0
  8  9  2  0  0  0  0
 11  1  1  0  0  0  0
 12  1  1  0  0  0  0
 15  3  1  0  0  0  0
 16  3  1  0  0  0  0
 19  8  1  0  0  0  0
M TOR 0 0 1 2 3
M TOR 1 0 1 2 14
M TOR 2 0 1 2 15
M TOR 3 1 2 3 4
M TOR 4 2 1 0 9
M TOR 5 2 1 0 10
M TOR 6 2 1 0 11
M TOR 7 2 3 4 5
M TOR 8 3 2 1 12
M TOR 9 3 2 1 13
M TOR 10 3 4 5 6
M TOR 11 3 4 5 16
M TOR 12 3 4 5 17
M TOR 13 4 3 2 14
M TOR 14 4 3 2 15
M TOR 15 4 5 6 7
M TOR 16 5 6 7 8
M TOR 17 5 6 7 18
M TOR 18 7 6 5 16
M TOR 19 7 6 5 17
M  END
$$$$
