gdb 1343	3.6173305	0.799553	0.6932975	1.4452	79.28	-0.25125	-0.03598	0.21526999999999996	1582.4504	0.153652	-422.566406	-422.556405	-422.555461	-422.60265	34.626
 OpenBabel02181911403D

 19 19  0  0  1  0  0  0  0  0999 V2000
   -2.2522    2.8590    2.2750 C   0  0  0  0  0  0  0  0  0  0  0  0
   -0.8032    2.7253    1.7771 C   0  0  2  0  0  0  0  0  0  0  0  0
   -0.5628    3.6831    0.6207 C   0  0  0  0  0  0  0  0  0  0  0  0
    0.2498    4.5696    0.6154 O   0  0  0  0  0  0  0  0  0  0  0  0
   -0.4979    1.3090    1.3112 C   0  0  1  0  0  0  0  0  0  0  0  0
    0.8955    0.7808    1.2827 C   0  0  0  0  0  0  0  0  0  0  0  0
   -0.0726    0.2672    2.3421 C   0  0  2  0  0  0  0  0  0  0  0  0
   -0.6035   -1.1070    2.2050 C   0  0  0  0  0  0  0  0  0  0  0  0
   -0.8864   -1.8341    3.1237 O   0  0  0  0  0  0  0  0  0  0  0  0
   -2.4450    2.1443    3.0800 H   0  0  0  0  0  0  0  0  0  0  0  0
   -2.4487    3.8661    2.6535 H   0  0  0  0  0  0  0  0  0  0  0  0
   -2.9663    2.6550    1.4690 H   0  0  0  0  0  0  0  0  0  0  0  0
   -0.1029    3.0071    2.5705 H   0  0  0  0  0  0  0  0  0  0  0  0
   -1.2204    3.4990   -0.2631 H   0  0  0  0  0  0  0  0  0  0  0  0
   -1.1643    0.9400    0.5332 H   0  0  0  0  0  0  0  0  0  0  0  0
    1.1758    0.0993    0.4864 H   0  0  0  0  0  0  0  0  0  0  0  0
    1.6990    1.4180    1.6348 H   0  0  0  0  0  0  0  0  0  0  0  0
    0.0701    0.6003    3.3644 H   0  0  0  0  0  0  0  0  0  0  0  0
   -0.7315   -1.4373    1.1452 H   0  0  0  0  0  0  0  0  0  0  0  0
  1 11  1  0  0  0  0
  1 10  1  0  0  0  0
  2  1  1  0  0  0  0
  2 13  1  1  0  0  0
  3  2  1  0  0  0  0
  4  3  2  0  0  0  0
  5 15  1  6  0  0  0
  5  2  1  0  0  0  0
  5  7  1  0  0  0  0
  6  5  1  0  0  0  0
  6 17  1  0  0  0  0
  6  7  1  0  0  0  0
  7 18  1  1  0  0  0
  8  7  1  0  0  0  0
  8  9  2  0  0  0  0
 12  1  1  0  0  0  0
 14  3  1  0  0  0  0
 16  6  1  0  0  0  0
 19  8  1  0  0  0  0
M TOR 0 0 1 2 3
M TOR 1 0 1 2 13
M TOR 2 0 1 4 5
M TOR 3 0 1 4 6
M TOR 4 0 1 4 14
M TOR 5 1 4 5 6
M TOR 6 1 4 5 15
M TOR 7 1 4 5 16
M TOR 8 1 4 6 7
M TOR 9 1 4 6 17
M TOR 10 2 1 0 9
M TOR 11 2 1 0 10
M TOR 12 2 1 0 11
M TOR 13 2 1 4 5
M TOR 14 2 1 4 6
M TOR 15 2 1 4 14
M TOR 16 3 2 1 4
M TOR 17 3 2 1 12
M TOR 18 4 1 0 9
M TOR 19 4 1 0 10
M TOR 20 4 1 0 11
M TOR 21 4 1 2 13
M TOR 22 4 5 6 7
M TOR 23 4 5 6 17
M TOR 24 4 6 5 15
M TOR 25 4 6 5 16
M TOR 26 4 6 7 8
M TOR 27 4 6 7 18
M TOR 28 5 4 1 12
M TOR 29 5 6 4 14
M TOR 30 5 6 7 8
M TOR 31 5 6 7 18
M TOR 32 6 4 1 12
M TOR 33 7 6 4 14
M TOR 34 7 6 5 15
M TOR 35 7 6 5 16
M TOR 36 8 7 6 17
M  END
$$$$
