
     RDKit          3D

 19 20  0  0  0  0  0  0  0  0999 V2000
   -0.5497    2.1381    1.2549 C   0  0  0  0  0  0  0  0  0  0  0  0
   -0.8780    1.2386    0.0612 C   0  0  0  0  0  0  0  0  0  0  0  0
   -0.7507    1.9958   -1.2650 C   0  0  0  0  0  0  0  0  0  0  0  0
   -2.2201    0.7293    0.1765 O   0  0  0  0  0  0  0  0  0  0  0  0
   -2.2286   -0.6756    0.1856 C   0  0  0  0  0  0  0  0  0  0  0  0
   -1.6664   -1.3414    1.3937 C   0  0  0  0  0  0  0  0  0  0  0  0
   -0.8208   -1.2138    0.1171 C   0  0  0  0  0  0  0  0  0  0  0  0
    0.0423   -0.0027    0.0177 C   0  0  0  0  0  0  0  0  0  0  0  0
    1.2359    0.0419   -0.1492 O   0  0  0  0  0  0  0  0  0  0  0  0
   -0.6824    1.6081    2.2019 H   0  0  0  0  0  0  0  0  0  0  0  0
    0.4887    2.4737    1.1887 H   0  0  0  0  0  0  0  0  0  0  0  0
   -1.2063    3.0128    1.2587 H   0  0  0  0  0  0  0  0  0  0  0  0
   -1.0217    1.3509   -2.1058 H   0  0  0  0  0  0  0  0  0  0  0  0
   -1.4194    2.8612   -1.2651 H   0  0  0  0  0  0  0  0  0  0  0  0
    0.2796    2.3339   -1.4039 H   0  0  0  0  0  0  0  0  0  0  0  0
   -3.0561   -1.1052   -0.3678 H   0  0  0  0  0  0  0  0  0  0  0  0
   -1.4175   -0.7320    2.2549 H   0  0  0  0  0  0  0  0  0  0  0  0
   -1.9911   -2.3499    1.6251 H   0  0  0  0  0  0  0  0  0  0  0  0
   -0.5172   -2.1112   -0.4056 H   0  0  0  0  0  0  0  0  0  0  0  0
  1  2  1  0
  2  3  1  0
  2  4  1  0
  4  5  1  0
  5  6  1  0
  6  7  1  0
  7  8  1  0
  8  9  2  0
  8  2  1  0
  7  5  1  0
  1 10  1  0
  1 11  1  0
  1 12  1  0
  3 13  1  0
  3 14  1  0
  3 15  1  0
  5 16  1  0
  6 17  1  0
  6 18  1  0
  7 19  1  0
M  END
$$$$
