
     RDKit          3D

 19 20  0  0  0  0  0  0  0  0999 V2000
    0.0191    1.5433   -0.0831 C   0  0  0  0  0  0  0  0  0  0  0  0
   -0.0141    0.0115    0.0090 C   0  0  0  0  0  0  0  0  0  0  0  0
   -1.3675   -0.4622   -0.0712 O   0  0  0  0  0  0  0  0  0  0  0  0
   -2.0695   -0.6421    1.1569 C   0  0  0  0  0  0  0  0  0  0  0  0
   -1.3336   -1.7588    1.8889 C   0  0  0  0  0  0  0  0  0  0  0  0
   -1.4269   -1.8683    3.3373 O   0  0  0  0  0  0  0  0  0  0  0  0
    0.0233   -1.7745    3.4716 C   0  0  0  0  0  0  0  0  0  0  0  0
    0.1001   -1.3463    2.0285 C   0  0  0  0  0  0  0  0  0  0  0  0
    0.7134   -0.4762    1.2441 C   0  0  0  0  0  0  0  0  0  0  0  0
    1.0513    1.9048   -0.1377 H   0  0  0  0  0  0  0  0  0  0  0  0
   -0.5125    1.8712   -0.9798 H   0  0  0  0  0  0  0  0  0  0  0  0
   -0.4540    2.0010    0.7912 H   0  0  0  0  0  0  0  0  0  0  0  0
    0.4588   -0.3971   -0.8941 H   0  0  0  0  0  0  0  0  0  0  0  0
   -2.0785    0.2627    1.7806 H   0  0  0  0  0  0  0  0  0  0  0  0
   -3.0960   -0.8905    0.8754 H   0  0  0  0  0  0  0  0  0  0  0  0
   -1.5246   -2.7289    1.4117 H   0  0  0  0  0  0  0  0  0  0  0  0
    0.3303   -1.0454    4.2299 H   0  0  0  0  0  0  0  0  0  0  0  0
    0.4640   -2.7526    3.7098 H   0  0  0  0  0  0  0  0  0  0  0  0
    1.6630   -0.0102    1.4914 H   0  0  0  0  0  0  0  0  0  0  0  0
  1  2  1  0
  2  3  1  0
  3  4  1  0
  4  5  1  0
  5  6  1  0
  6  7  1  0
  7  8  1  0
  8  9  2  0
  9  2  1  0
  8  5  1  0
  1 10  1  0
  1 11  1  0
  1 12  1  0
  2 13  1  0
  4 14  1  0
  4 15  1  0
  5 16  1  0
  7 17  1  0
  7 18  1  0
  9 19  1  0
M  END
$$$$
