gdb 821	4.5618327	0.7813715	0.7535189	1.9327	77.27	-0.25142	-0.02415	0.22726999999999997	1525.1062	0.155792	-422.528454	-422.519546	-422.518602	-422.563403	31.741
 OpenBabel02181911403D

 19 20  0  0  1  0  0  0  0  0999 V2000
    1.1736   -0.3519    0.0038 O   0  0  0  0  0  0  0  0  0  0  0  0
    0.4647    0.1514    0.8396 C   0  0  0  0  0  0  0  0  0  0  0  0
   -0.3380    1.4051    0.6380 C   0  0  2  0  0  0  0  0  0  0  0  0
   -1.8685    1.1862    0.3612 C   0  0  0  0  0  0  0  0  0  0  0  0
   -1.7784    2.2846   -0.7390 C   0  0  1  0  0  0  0  0  0  0  0  0
   -0.2297    2.1388   -0.7183 C   0  0  0  0  0  0  0  0  0  0  0  0
   -2.4911    2.0425   -2.0369 C   0  0  2  0  0  0  0  0  0  0  0  0
   -2.9635    3.1392   -2.8923 C   0  0  0  0  0  0  0  0  0  0  0  0
   -3.8783    2.3930   -2.0889 O   0  0  0  0  0  0  0  0  0  0  0  0
    0.3321   -0.3285    1.8372 H   0  0  0  0  0  0  0  0  0  0  0  0
   -0.1989    2.0644    1.5017 H   0  0  0  0  0  0  0  0  0  0  0  0
   -2.0628    0.1985   -0.0686 H   0  0  0  0  0  0  0  0  0  0  0  0
   -2.5601    1.3534    1.1882 H   0  0  0  0  0  0  0  0  0  0  0  0
   -2.0907    3.2525   -0.3355 H   0  0  0  0  0  0  0  0  0  0  0  0
    0.1374    1.4535   -1.4876 H   0  0  0  0  0  0  0  0  0  0  0  0
    0.3620    3.0553   -0.7519 H   0  0  0  0  0  0  0  0  0  0  0  0
   -2.2597    1.0903   -2.5203 H   0  0  0  0  0  0  0  0  0  0  0  0
   -2.8016    4.1705   -2.5802 H   0  0  0  0  0  0  0  0  0  0  0  0
   -3.0518    2.9893   -3.9674 H   0  0  0  0  0  0  0  0  0  0  0  0
  1  2  2  0  0  0  0
  2 10  1  0  0  0  0
  3  2  1  0  0  0  0
  3 11  1  1  0  0  0
  4  3  1  0  0  0  0
  4 13  1  0  0  0  0
  5  6  1  0  0  0  0
  5 14  1  1  0  0  0
  5  4  1  0  0  0  0
  6  3  1  0  0  0  0
  7 17  1  6  0  0  0
  7  5  1  0  0  0  0
  8 18  1  0  0  0  0
  8  9  1  0  0  0  0
  8  7  1  0  0  0  0
  9  7  1  0  0  0  0
 12  4  1  0  0  0  0
 15  6  1  0  0  0  0
 16  6  1  0  0  0  0
 19  8  1  0  0  0  0
M TOR 0 0 1 2 3
M TOR 1 0 1 2 5
M TOR 2 0 1 2 10
M TOR 3 1 2 3 4
M TOR 4 1 2 3 11
M TOR 5 1 2 3 12
M TOR 6 1 2 5 4
M TOR 7 1 2 5 14
M TOR 8 1 2 5 15
M TOR 9 2 3 4 5
M TOR 10 2 3 4 6
M TOR 11 2 3 4 13
M TOR 12 2 5 4 6
M TOR 13 2 5 4 13
M TOR 14 3 2 1 9
M TOR 15 3 2 5 14
M TOR 16 3 2 5 15
M TOR 17 3 4 5 14
M TOR 18 3 4 5 15
M TOR 19 3 4 6 7
M TOR 20 3 4 6 8
M TOR 21 3 4 6 16
M TOR 22 4 3 2 10
M TOR 23 4 5 2 10
M TOR 24 4 6 7 8
M TOR 25 4 6 7 17
M TOR 26 4 6 7 18
M TOR 27 5 2 1 9
M TOR 28 5 2 3 11
M TOR 29 5 2 3 12
M TOR 30 5 4 3 11
M TOR 31 5 4 3 12
M TOR 32 5 4 6 7
M TOR 33 5 4 6 8
M TOR 34 5 4 6 16
M TOR 35 6 4 3 11
M TOR 36 6 4 3 12
M TOR 37 6 4 5 14
M TOR 38 6 4 5 15
M TOR 39 6 8 7 17
M TOR 40 6 8 7 18
M TOR 41 7 6 4 13
M TOR 42 7 8 6 16
M TOR 43 8 6 4 13
M  END
$$$$
