gdb 6079	2.7104431	0.9222256	0.7665937	1.6841	78.92	-0.26018	0.0231	0.28328000000000003	1544.0052	0.152998	-422.484076	-422.473808	-422.472864	-422.520478	35.882
 OpenBabel02181911423D

 19 19  0  0  1  0  0  0  0  0999 V2000
    4.0128   -1.0470   -0.7439 C   0  0  0  0  0  0  0  0  0  0  0  0
    2.6698   -1.2181   -0.0557 C   0  0  0  0  0  0  0  0  0  0  0  0
    1.7130   -0.4263   -0.7349 O   0  0  0  0  0  0  0  0  0  0  0  0
    0.4274   -0.5025   -0.1710 C   0  0  0  0  0  0  0  0  0  0  0  0
   -0.4670    0.4957   -0.8835 C   0  0  1  0  0  0  0  0  0  0  0  0
   -1.1888    0.0714   -2.0990 C   0  0  0  0  0  0  0  0  0  0  0  0
   -1.8652    0.1576   -0.8478 O   0  0  0  0  0  0  0  0  0  0  0  0
   -0.1476    1.8893   -0.6902 C   0  0  0  0  0  0  0  0  0  0  0  0
    0.1315    3.0431   -0.5047 C   0  0  0  0  0  0  0  0  0  0  0  0
    4.7773   -1.6459   -0.2402 H   0  0  0  0  0  0  0  0  0  0  0  0
    3.9529   -1.3666   -1.7881 H   0  0  0  0  0  0  0  0  0  0  0  0
    4.3219    0.0017   -0.7238 H   0  0  0  0  0  0  0  0  0  0  0  0
    2.3605   -2.2770   -0.0646 H   0  0  0  0  0  0  0  0  0  0  0  0
    2.7317   -0.9098    1.0013 H   0  0  0  0  0  0  0  0  0  0  0  0
   -0.0110   -1.5066   -0.2859 H   0  0  0  0  0  0  0  0  0  0  0  0
    0.4532   -0.2693    0.9058 H   0  0  0  0  0  0  0  0  0  0  0  0
   -1.4694    0.8207   -2.8357 H   0  0  0  0  0  0  0  0  0  0  0  0
   -1.0256   -0.9353   -2.4811 H   0  0  0  0  0  0  0  0  0  0  0  0
    0.3741    4.0652   -0.3485 H   0  0  0  0  0  0  0  0  0  0  0  0
  1 12  1  0  0  0  0
  1 10  1  0  0  0  0
  1  2  1  0  0  0  0
  2 14  1  0  0  0  0
  3  4  1  0  0  0  0
  3  2  1  0  0  0  0
  4 16  1  0  0  0  0
  5  7  1  0  0  0  0
  5  8  1  1  0  0  0
  5  4  1  0  0  0  0
  6  5  1  0  0  0  0
  6  7  1  0  0  0  0
  8  9  3  0  0  0  0
  9 19  1  0  0  0  0
 11  1  1  0  0  0  0
 13  2  1  0  0  0  0
 15  4  1  0  0  0  0
 17  6  1  0  0  0  0
 18  6  1  0  0  0  0
M TOR 0 0 1 2 3
M TOR 1 1 2 3 4
M TOR 2 1 2 3 14
M TOR 3 1 2 3 15
M TOR 4 2 1 0 9
M TOR 5 2 1 0 10
M TOR 6 2 1 0 11
M TOR 7 2 3 4 5
M TOR 8 2 3 4 6
M TOR 9 2 3 4 7
M TOR 10 3 2 1 12
M TOR 11 3 2 1 13
M TOR 12 3 4 5 6
M TOR 13 3 4 5 16
M TOR 14 3 4 5 17
M TOR 15 3 4 7 8
M TOR 16 4 6 5 16
M TOR 17 4 6 5 17
M TOR 18 4 7 8 18
M TOR 19 5 4 3 14
M TOR 20 5 4 3 15
M TOR 21 5 4 7 8
M TOR 22 5 6 4 7
M TOR 23 6 4 3 14
M TOR 24 6 4 3 15
M TOR 25 6 4 7 8
M TOR 26 7 4 3 14
M TOR 27 7 4 3 15
M TOR 28 7 4 5 16
M TOR 29 7 4 5 17
M  END
$$$$
