gdb 2166	2.122903	1.9689569	1.6975733	1.5509	74.35	-0.24785	0.06975	0.3176	942.4445	0.157749	-422.541992	-422.534082	-422.533138	-422.573672	31.762
 OpenBabel02181911403D

 19 21  0  0  1  0  0  0  0  0999 V2000
    2.9209   -0.5353    2.3656 O   0  0  0  0  0  0  0  0  0  0  0  0
    1.6167   -0.7649    1.9565 C   0  0  2  0  0  0  0  0  0  0  0  0
    0.3416    0.0800    2.1956 C   0  0  0  0  0  0  0  0  0  0  0  0
   -0.0834   -1.0759    1.2521 C   0  0  2  0  0  0  0  0  0  0  0  0
    0.7776   -2.0783    2.0847 C   0  0  1  0  0  0  0  0  0  0  0  0
    1.3768   -3.1400    1.1573 C   0  0  0  0  0  0  0  0  0  0  0  0
    1.7157   -2.2570   -0.0717 C   0  0  0  0  0  0  0  0  0  0  0  0
    1.2369   -0.8964    0.4474 C   0  0  2  0  0  0  0  0  0  0  0  0
    1.3192    0.2035   -0.4067 O   0  0  0  0  0  0  0  0  0  0  0  0
    2.9405   -0.4830    3.3272 H   0  0  0  0  0  0  0  0  0  0  0  0
   -0.0806    0.0630    3.2049 H   0  0  0  0  0  0  0  0  0  0  0  0
    0.3334    1.0818    1.7643 H   0  0  0  0  0  0  0  0  0  0  0  0
   -1.0713   -1.2638    0.8367 H   0  0  0  0  0  0  0  0  0  0  0  0
    0.4110   -2.3737    3.0692 H   0  0  0  0  0  0  0  0  0  0  0  0
    2.2636   -3.6064    1.5969 H   0  0  0  0  0  0  0  0  0  0  0  0
    0.6651   -3.9370    0.9222 H   0  0  0  0  0  0  0  0  0  0  0  0
    2.7859   -2.2439   -0.3046 H   0  0  0  0  0  0  0  0  0  0  0  0
    1.1794   -2.5479   -0.9796 H   0  0  0  0  0  0  0  0  0  0  0  0
    2.2520    0.3877   -0.5624 H   0  0  0  0  0  0  0  0  0  0  0  0
  1 10  1  0  0  0  0
  2  5  1  0  0  0  0
  2  3  1  0  0  0  0
  2  1  1  1  0  0  0
  3 11  1  0  0  0  0
  4 13  1  6  0  0  0
  4  5  1  0  0  0  0
  4  3  1  0  0  0  0
  5 14  1  1  0  0  0
  6 15  1  0  0  0  0
  6  5  1  0  0  0  0
  7  8  1  0  0  0  0
  7  6  1  0  0  0  0
  8  9  1  6  0  0  0
  8  4  1  0  0  0  0
  8  2  1  0  0  0  0
 12  3  1  0  0  0  0
 16  6  1  0  0  0  0
 17  7  1  0  0  0  0
 18  7  1  0  0  0  0
 19  9  1  0  0  0  0
M TOR 0 0 1 2 3
M TOR 1 0 1 2 10
M TOR 2 0 1 2 11
M TOR 3 0 1 4 3
M TOR 4 0 1 4 5
M TOR 5 0 1 4 13
M TOR 6 0 1 7 3
M TOR 7 0 1 7 6
M TOR 8 0 1 7 8
M TOR 9 1 2 3 4
M TOR 10 1 2 3 7
M TOR 11 1 2 3 12
M TOR 12 1 4 3 7
M TOR 13 1 4 3 12
M TOR 14 1 4 5 6
M TOR 15 1 4 5 14
M TOR 16 1 4 5 15
M TOR 17 1 7 3 12
M TOR 18 1 7 6 5
M TOR 19 1 7 6 16
M TOR 20 1 7 6 17
M TOR 21 1 7 8 18
M TOR 22 2 1 0 9
M TOR 23 2 1 4 5
M TOR 24 2 1 4 13
M TOR 25 2 1 7 6
M TOR 26 2 1 7 8
M TOR 27 2 3 4 5
M TOR 28 2 3 4 13
M TOR 29 2 3 7 6
M TOR 30 2 3 7 8
M TOR 31 3 4 5 6
M TOR 32 3 4 5 14
M TOR 33 3 4 5 15
M TOR 34 3 7 6 5
M TOR 35 3 7 6 16
M TOR 36 3 7 6 17
M TOR 37 3 7 8 18
M TOR 38 4 1 0 9
M TOR 39 4 1 2 10
M TOR 40 4 1 2 11
M TOR 41 4 1 7 6
M TOR 42 4 1 7 8
M TOR 43 4 3 2 10
M TOR 44 4 3 2 11
M TOR 45 4 3 7 6
M TOR 46 4 3 7 8
M TOR 47 4 5 6 7
M TOR 48 4 5 6 16
M TOR 49 4 5 6 17
M TOR 50 5 4 1 7
M TOR 51 5 4 3 7
M TOR 52 5 4 3 12
M TOR 53 5 6 7 8
M TOR 54 6 5 4 13
M TOR 55 6 7 3 12
M TOR 56 6 7 8 18
M TOR 57 7 1 0 9
M TOR 58 7 1 2 10
M TOR 59 7 1 2 11
M TOR 60 7 1 4 13
M TOR 61 7 3 2 10
M TOR 62 7 3 2 11
M TOR 63 7 3 4 13
M TOR 64 7 6 5 14
M TOR 65 7 6 5 15
M TOR 66 8 7 3 12
M TOR 67 8 7 6 16
M TOR 68 8 7 6 17
M  END
$$$$
