gdb 5352	3.554402	1.0594978	0.9573354	1.764	77.19	-0.24162	-0.00501	0.23661000000000001	1292.2937	0.156083	-422.553256	-422.544404	-422.543459	-422.586814	33.247
 OpenBabel02181911423D

 19 20  0  0  1  0  0  0  0  0999 V2000
    4.1767    1.9598   -1.3729 C   0  0  0  0  0  0  0  0  0  0  0  0
    3.2068    0.8106   -1.3787 C   0  0  2  0  0  0  0  0  0  0  0  0
    1.9867    0.8106   -0.4543 C   0  0  0  0  0  0  0  0  0  0  0  0
    1.6755   -0.6640   -0.2596 C   0  0  0  0  0  0  0  0  0  0  0  0
    0.4588   -1.1190    0.4867 C   0  0  0  0  0  0  0  0  0  0  0  0
   -0.7438   -0.6268   -0.1010 O   0  0  0  0  0  0  0  0  0  0  0  0
    2.5685   -1.4390   -0.8885 C   0  0  0  0  0  0  0  0  0  0  0  0
    3.5533   -0.6026   -1.6328 C   0  0  1  0  0  0  0  0  0  0  0  0
    2.9326    0.2182   -2.6558 O   0  0  0  0  0  0  0  0  0  0  0  0
    4.5786    2.1276   -0.3682 H   0  0  0  0  0  0  0  0  0  0  0  0
    5.0068    1.7635   -2.0559 H   0  0  0  0  0  0  0  0  0  0  0  0
    3.6835    2.8837   -1.6953 H   0  0  0  0  0  0  0  0  0  0  0  0
    2.2094    1.3006    0.5033 H   0  0  0  0  0  0  0  0  0  0  0  0
    1.1406    1.3486   -0.8952 H   0  0  0  0  0  0  0  0  0  0  0  0
    0.4526   -2.2167    0.5629 H   0  0  0  0  0  0  0  0  0  0  0  0
    0.4590   -0.7183    1.5077 H   0  0  0  0  0  0  0  0  0  0  0  0
   -0.7526   -0.9233   -1.0178 H   0  0  0  0  0  0  0  0  0  0  0  0
    2.5641   -2.5228   -0.9016 H   0  0  0  0  0  0  0  0  0  0  0  0
    4.5561   -0.9470   -1.8686 H   0  0  0  0  0  0  0  0  0  0  0  0
  1 10  1  0  0  0  0
  2  1  1  1  0  0  0
  2  3  1  0  0  0  0
  3  4  1  0  0  0  0
  3 13  1  0  0  0  0
  4  5  1  0  0  0  0
  5 15  1  0  0  0  0
  5 16  1  0  0  0  0
  6  5  1  0  0  0  0
  7  4  2  0  0  0  0
  8 19  1  6  0  0  0
  8  2  1  0  0  0  0
  8  7  1  0  0  0  0
  9  8  1  0  0  0  0
  9  2  1  0  0  0  0
 11  1  1  0  0  0  0
 12  1  1  0  0  0  0
 14  3  1  0  0  0  0
 17  6  1  0  0  0  0
 18  7  1  0  0  0  0
M TOR 0 0 1 2 3
M TOR 1 0 1 2 12
M TOR 2 0 1 2 13
M TOR 3 0 1 7 6
M TOR 4 0 1 7 8
M TOR 5 0 1 7 18
M TOR 6 1 2 3 4
M TOR 7 1 2 3 6
M TOR 8 1 7 6 3
M TOR 9 1 7 6 17
M TOR 10 1 8 7 6
M TOR 11 1 8 7 18
M TOR 12 2 1 0 9
M TOR 13 2 1 0 10
M TOR 14 2 1 0 11
M TOR 15 2 1 7 6
M TOR 16 2 1 7 8
M TOR 17 2 1 7 18
M TOR 18 2 3 4 5
M TOR 19 2 3 4 14
M TOR 20 2 3 4 15
M TOR 21 2 3 6 7
M TOR 22 2 3 6 17
M TOR 23 3 2 1 7
M TOR 24 3 2 1 8
M TOR 25 3 4 5 16
M TOR 26 3 6 7 8
M TOR 27 3 6 7 18
M TOR 28 4 3 2 12
M TOR 29 4 3 2 13
M TOR 30 4 3 6 7
M TOR 31 4 3 6 17
M TOR 32 5 4 3 6
M TOR 33 6 3 2 12
M TOR 34 6 3 2 13
M TOR 35 6 3 4 14
M TOR 36 6 3 4 15
M TOR 37 7 1 0 9
M TOR 38 7 1 0 10
M TOR 39 7 1 0 11
M TOR 40 7 1 2 12
M TOR 41 7 1 2 13
M TOR 42 8 1 0 9
M TOR 43 8 1 0 10
M TOR 44 8 1 0 11
M TOR 45 8 1 2 12
M TOR 46 8 1 2 13
M TOR 47 8 7 6 17
M  END
$$$$
