
     RDKit          3D

 19 20  0  0  0  0  0  0  0  0999 V2000
    0.5510    0.0596    0.7502 O   0  0  0  0  0  0  0  0  0  0  0  0
   -0.8469   -0.0515    0.9229 C   0  0  0  0  0  0  0  0  0  0  0  0
   -1.5928    0.5663   -0.2755 C   0  0  0  0  0  0  0  0  0  0  0  0
   -2.8572    1.0898    0.3608 C   0  0  0  0  0  0  0  0  0  0  0  0
   -2.7689    1.1312    1.6915 C   0  0  0  0  0  0  0  0  0  0  0  0
   -1.4292    0.6689    2.1778 C   0  0  0  0  0  0  0  0  0  0  0  0
   -0.4580    1.6820    2.8426 C   0  0  0  0  0  0  0  0  0  0  0  0
   -0.0760    0.6998    3.8335 O   0  0  0  0  0  0  0  0  0  0  0  0
   -1.2298   -0.1034    3.5005 C   0  0  0  0  0  0  0  0  0  0  0  0
    0.9763   -0.2581    1.5555 H   0  0  0  0  0  0  0  0  0  0  0  0
   -1.1373   -1.1123    1.0030 H   0  0  0  0  0  0  0  0  0  0  0  0
   -0.9929    1.3774   -0.7096 H   0  0  0  0  0  0  0  0  0  0  0  0
   -1.7725   -0.1579   -1.0766 H   0  0  0  0  0  0  0  0  0  0  0  0
   -3.7146    1.4147   -0.2183 H   0  0  0  0  0  0  0  0  0  0  0  0
   -3.5377    1.4976    2.3637 H   0  0  0  0  0  0  0  0  0  0  0  0
    0.3896    2.0192    2.2408 H   0  0  0  0  0  0  0  0  0  0  0  0
   -0.9659    2.5423    3.2993 H   0  0  0  0  0  0  0  0  0  0  0  0
   -0.9877   -1.1713    3.4268 H   0  0  0  0  0  0  0  0  0  0  0  0
   -2.0429    0.0304    4.2289 H   0  0  0  0  0  0  0  0  0  0  0  0
  1  2  1  0
  2  3  1  0
  3  4  1  0
  4  5  2  0
  5  6  1  0
  6  7  1  0
  7  8  1  0
  8  9  1  0
  6  2  1  0
  9  6  1  0
  1 10  1  0
  2 11  1  0
  3 12  1  0
  3 13  1  0
  4 14  1  0
  5 15  1  0
  7 16  1  0
  7 17  1  0
  9 18  1  0
  9 19  1  0
M  END
$$$$
