gdb 3084	2.5643481	1.7380389	1.6651056	0.4937	72.64	-0.25424	0.06826	0.3225	930.7034	0.159653	-422.542353	-422.535237	-422.534293	-422.573353	29.395
 OpenBabel02181911413D

 19 21  0  0  1  0  0  0  0  0999 V2000
   -0.5530    0.6993    0.3325 O   0  0  0  0  0  0  0  0  0  0  0  0
   -1.9038    0.3270    0.4035 C   0  0  2  0  0  0  0  0  0  0  0  0
   -2.9507    1.1837    1.1869 C   0  0  1  0  0  0  0  0  0  0  0  0
   -3.7406   -0.1448    1.3622 C   0  0  0  0  0  0  0  0  0  0  0  0
   -2.3760   -0.8815    1.2775 C   0  0  2  0  0  0  0  0  0  0  0  0
   -1.6584   -0.7954    2.6205 C   0  0  2  0  0  0  0  0  0  0  0  0
   -2.4554   -0.5329    3.7797 O   0  0  0  0  0  0  0  0  0  0  0  0
   -1.6534    0.5350    3.2643 C   0  0  2  0  0  0  0  0  0  0  0  0
   -2.3644    1.6635    2.5268 C   0  0  0  0  0  0  0  0  0  0  0  0
   -0.1968    0.7298    1.2261 H   0  0  0  0  0  0  0  0  0  0  0  0
   -2.2289    0.1925   -0.6311 H   0  0  0  0  0  0  0  0  0  0  0  0
   -3.4313    2.0074    0.6543 H   0  0  0  0  0  0  0  0  0  0  0  0
   -4.3118   -0.2785    2.2792 H   0  0  0  0  0  0  0  0  0  0  0  0
   -4.3645   -0.3641    0.4929 H   0  0  0  0  0  0  0  0  0  0  0  0
   -2.3383   -1.8865    0.8531 H   0  0  0  0  0  0  0  0  0  0  0  0
   -0.8352   -1.4866    2.7930 H   0  0  0  0  0  0  0  0  0  0  0  0
   -0.8345    0.8197    3.9251 H   0  0  0  0  0  0  0  0  0  0  0  0
   -3.1473    2.0925    3.1632 H   0  0  0  0  0  0  0  0  0  0  0  0
   -1.6370    2.4635    2.3398 H   0  0  0  0  0  0  0  0  0  0  0  0
  1  2  1  0  0  0  0
  1 10  1  0  0  0  0
  2 11  1  6  0  0  0
  2  3  1  0  0  0  0
  2  5  1  0  0  0  0
  3 12  1  6  0  0  0
  3  4  1  0  0  0  0
  3  9  1  0  0  0  0
  4 13  1  0  0  0  0
  5 15  1  6  0  0  0
  5  4  1  0  0  0  0
  5  6  1  0  0  0  0
  6 16  1  1  0  0  0
  6  8  1  0  0  0  0
  6  7  1  0  0  0  0
  8  7  1  0  0  0  0
  8 17  1  1  0  0  0
  9 18  1  0  0  0  0
  9  8  1  0  0  0  0
 14  4  1  0  0  0  0
 19  9  1  0  0  0  0
M TOR 0 0 1 2 3
M TOR 1 0 1 2 8
M TOR 2 0 1 2 11
M TOR 3 0 1 4 3
M TOR 4 0 1 4 5
M TOR 5 0 1 4 14
M TOR 6 1 2 3 4
M TOR 7 1 2 3 12
M TOR 8 1 2 3 13
M TOR 9 1 2 8 7
M TOR 10 1 2 8 17
M TOR 11 1 2 8 18
M TOR 12 1 4 3 12
M TOR 13 1 4 3 13
M TOR 14 1 4 5 6
M TOR 15 1 4 5 7
M TOR 16 1 4 5 15
M TOR 17 2 1 0 9
M TOR 18 2 1 4 5
M TOR 19 2 1 4 14
M TOR 20 2 3 4 5
M TOR 21 2 3 4 14
M TOR 22 2 8 7 5
M TOR 23 2 8 7 6
M TOR 24 2 8 7 16
M TOR 25 3 2 1 10
M TOR 26 3 2 8 7
M TOR 27 3 2 8 17
M TOR 28 3 2 8 18
M TOR 29 3 4 1 10
M TOR 30 3 4 5 6
M TOR 31 3 4 5 7
M TOR 32 3 4 5 15
M TOR 33 4 1 0 9
M TOR 34 4 1 2 8
M TOR 35 4 1 2 11
M TOR 36 4 3 2 8
M TOR 37 4 3 2 11
M TOR 38 4 5 6 7
M TOR 39 4 5 7 8
M TOR 40 4 5 7 16
M TOR 41 5 4 1 10
M TOR 42 5 4 3 12
M TOR 43 5 4 3 13
M TOR 44 5 6 7 8
M TOR 45 5 6 7 16
M TOR 46 5 7 8 17
M TOR 47 5 7 8 18
M TOR 48 6 5 4 14
M TOR 49 6 7 5 15
M TOR 50 6 7 8 17
M TOR 51 6 7 8 18
M TOR 52 7 5 4 14
M TOR 53 7 8 2 11
M TOR 54 8 2 1 10
M TOR 55 8 2 3 12
M TOR 56 8 2 3 13
M TOR 57 8 7 5 15
M  END
$$$$
