
     RDKit          3D

 19 21  0  0  0  0  0  0  0  0999 V2000
   -0.0782    0.2502   -0.7815 C   0  0  0  0  0  0  0  0  0  0  0  0
    1.2245   -0.1678   -0.1782 C   0  0  0  0  0  0  0  0  0  0  0  0
    2.2827   -0.0815   -1.1363 O   0  0  0  0  0  0  0  0  0  0  0  0
    2.1035    1.3701   -1.2276 C   0  0  0  0  0  0  0  0  0  0  0  0
    1.9471    1.9221   -2.6590 C   0  0  0  0  0  0  0  0  0  0  0  0
    3.2150    2.7661   -2.8599 C   0  0  0  0  0  0  0  0  0  0  0  0
    3.5600    3.2182   -1.5555 O   0  0  0  0  0  0  0  0  0  0  0  0
    3.3513    2.1122   -0.6975 C   0  0  0  0  0  0  0  0  0  0  0  0
    0.9003    1.2986   -0.2856 C   0  0  0  0  0  0  0  0  0  0  0  0
   -0.2518    0.1030   -1.8435 H   0  0  0  0  0  0  0  0  0  0  0  0
   -0.9517    0.1198   -0.1494 H   0  0  0  0  0  0  0  0  0  0  0  0
    1.3542   -0.8377    0.6632 H   0  0  0  0  0  0  0  0  0  0  0  0
    1.8485    1.1088   -3.3804 H   0  0  0  0  0  0  0  0  0  0  0  0
    1.0517    2.5476   -2.7175 H   0  0  0  0  0  0  0  0  0  0  0  0
    4.0289    2.1560   -3.2841 H   0  0  0  0  0  0  0  0  0  0  0  0
    3.0732    3.6439   -3.4945 H   0  0  0  0  0  0  0  0  0  0  0  0
    4.1964    1.4064   -0.7309 H   0  0  0  0  0  0  0  0  0  0  0  0
    3.2425    2.4860    0.3238 H   0  0  0  0  0  0  0  0  0  0  0  0
    0.6546    2.0337    0.4694 H   0  0  0  0  0  0  0  0  0  0  0  0
  1  2  1  0
  2  3  1  0
  3  4  1  0
  4  5  1  0
  5  6  1  0
  6  7  1  0
  7  8  1  0
  4  9  1  0
  9  1  1  0
  9  2  1  0
  8  4  1  0
  1 10  1  0
  1 11  1  0
  2 12  1  0
  5 13  1  0
  5 14  1  0
  6 15  1  0
  6 16  1  0
  8 17  1  0
  8 18  1  0
  9 19  1  0
M  END
$$$$
