
     RDKit          3D

 19 19  0  0  0  0  0  0  0  0999 V2000
   -0.1366   -6.0906   -5.1652 O   0  0  0  0  0  0  0  0  0  0  0  0
    0.7049   -5.7361   -4.0742 C   0  0  0  0  0  0  0  0  0  0  0  0
    0.3537   -4.4635   -3.4486 C   0  0  0  0  0  0  0  0  0  0  0  0
    0.0136   -3.4248   -2.9374 C   0  0  0  0  0  0  0  0  0  0  0  0
   -0.3705   -2.1818   -2.3377 C   0  0  0  0  0  0  0  0  0  0  0  0
   -1.6567   -2.0830   -1.5282 C   0  0  0  0  0  0  0  0  0  0  0  0
   -0.3322   -2.0125   -0.8261 C   0  0  0  0  0  0  0  0  0  0  0  0
    0.1604   -0.7057   -0.2500 C   0  0  0  0  0  0  0  0  0  0  0  0
    1.5682   -0.5471   -0.3237 O   0  0  0  0  0  0  0  0  0  0  0  0
   -1.0465   -5.9775   -4.8714 H   0  0  0  0  0  0  0  0  0  0  0  0
    0.7142   -6.5267   -3.3059 H   0  0  0  0  0  0  0  0  0  0  0  0
    1.7191   -5.6889   -4.4868 H   0  0  0  0  0  0  0  0  0  0  0  0
   -0.1006   -1.2935   -2.9025 H   0  0  0  0  0  0  0  0  0  0  0  0
   -2.2336   -1.1697   -1.6306 H   0  0  0  0  0  0  0  0  0  0  0  0
   -2.2484   -2.9840   -1.4218 H   0  0  0  0  0  0  0  0  0  0  0  0
   -0.0419   -2.9005   -0.2697 H   0  0  0  0  0  0  0  0  0  0  0  0
   -0.2590    0.1300   -0.8213 H   0  0  0  0  0  0  0  0  0  0  0  0
   -0.2006   -0.6000    0.7860 H   0  0  0  0  0  0  0  0  0  0  0  0
    1.9749   -1.2730    0.1602 H   0  0  0  0  0  0  0  0  0  0  0  0
  1  2  1  0
  2  3  1  0
  3  4  3  0
  4  5  1  0
  5  6  1  0
  6  7  1  0
  7  8  1  0
  8  9  1  0
  7  5  1  0
  1 10  1  0
  2 11  1  0
  2 12  1  0
  5 13  1  0
  6 14  1  0
  6 15  1  0
  7 16  1  0
  8 17  1  0
  8 18  1  0
  9 19  1  0
M  END
$$$$
