
     RDKit          3D

 19 21  0  0  0  0  0  0  0  0999 V2000
    0.2765    2.4517   -0.0157 C   0  0  0  0  0  0  0  0  0  0  0  0
   -0.6205    1.4031   -0.3836 O   0  0  0  0  0  0  0  0  0  0  0  0
   -0.1066    0.1773    0.0337 C   0  0  0  0  0  0  0  0  0  0  0  0
    1.2520   -0.2620   -0.4604 C   0  0  0  0  0  0  0  0  0  0  0  0
    1.8985    0.5168   -1.4200 O   0  0  0  0  0  0  0  0  0  0  0  0
    3.1049    1.0823   -0.9037 C   0  0  0  0  0  0  0  0  0  0  0  0
    2.8225    2.0956    0.2318 C   0  0  0  0  0  0  0  0  0  0  0  0
    1.4267    1.8532    0.8527 C   0  0  0  0  0  0  0  0  0  0  0  0
    1.0941    0.3621    0.9158 C   0  0  0  0  0  0  0  0  0  0  0  0
    0.6764    2.9138   -0.9242 H   0  0  0  0  0  0  0  0  0  0  0  0
   -0.2959    3.2102    0.5328 H   0  0  0  0  0  0  0  0  0  0  0  0
   -0.8774   -0.5636    0.2151 H   0  0  0  0  0  0  0  0  0  0  0  0
    1.4526   -1.3317   -0.5302 H   0  0  0  0  0  0  0  0  0  0  0  0
    3.7599    0.2761   -0.5437 H   0  0  0  0  0  0  0  0  0  0  0  0
    3.5994    1.5578   -1.7539 H   0  0  0  0  0  0  0  0  0  0  0  0
    3.5964    2.0036    1.0014 H   0  0  0  0  0  0  0  0  0  0  0  0
    2.8782    3.1230   -0.1442 H   0  0  0  0  0  0  0  0  0  0  0  0
    1.3978    2.2852    1.8559 H   0  0  0  0  0  0  0  0  0  0  0  0
    1.2739   -0.1996    1.8243 H   0  0  0  0  0  0  0  0  0  0  0  0
  1  2  1  0
  2  3  1  0
  3  4  1  0
  4  5  1  0
  5  6  1  0
  6  7  1  0
  7  8  1  0
  8  9  1  0
  8  1  1  0
  9  3  1  0
  9  4  1  0
  1 10  1  0
  1 11  1  0
  3 12  1  0
  4 13  1  0
  6 14  1  0
  6 15  1  0
  7 16  1  0
  7 17  1  0
  8 18  1  0
  9 19  1  0
M  END
$$$$
