gdb 4522	3.2137633	1.3225243	1.0695551	0.659	77.75	-0.24469	0.00241	0.2471	1144.9321	0.158506	-422.543027	-422.535118	-422.534174	-422.575303	30.859
 OpenBabel02181911413D

 19 20  0  0  1  0  0  0  0  0999 V2000
    0.1234    1.4330   -0.0453 O   0  0  0  0  0  0  0  0  0  0  0  0
    0.0257    0.0047   -0.0427 C   0  0  2  0  0  0  0  0  0  0  0  0
   -1.4498   -0.4680   -0.1096 C   0  0  0  0  0  0  0  0  0  0  0  0
   -2.1353   -0.5889    1.2718 C   0  0  0  0  0  0  0  0  0  0  0  0
   -1.3351   -1.6440    2.0148 C   0  0  2  0  0  0  0  0  0  0  0  0
   -1.3263   -1.6806    3.4721 O   0  0  0  0  0  0  0  0  0  0  0  0
    0.1308   -1.6780    3.4943 C   0  0  0  0  0  0  0  0  0  0  0  0
    0.1248   -1.2981    2.0349 C   0  0  2  0  0  3  0  0  0  0  0  0
    0.7656   -0.5313    1.1664 C   0  0  0  0  0  3  0  0  0  0  0  0
   -0.1666    1.7424    0.8202 H   0  0  0  0  0  0  0  0  0  0  0  0
    0.5259   -0.2914   -0.9721 H   0  0  0  0  0  0  0  0  0  0  0  0
   -1.9861    0.2336   -0.7537 H   0  0  0  0  0  0  0  0  0  0  0  0
   -1.4870   -1.4478   -0.6037 H   0  0  0  0  0  0  0  0  0  0  0  0
   -2.0852    0.3577    1.8226 H   0  0  0  0  0  0  0  0  0  0  0  0
   -3.1905   -0.8551    1.1596 H   0  0  0  0  0  0  0  0  0  0  0  0
   -1.5667   -2.6463    1.6214 H   0  0  0  0  0  0  0  0  0  0  0  0
    0.5404   -0.9484    4.2020 H   0  0  0  0  0  0  0  0  0  0  0  0
    0.5303   -2.6744    3.7307 H   0  0  0  0  0  0  0  0  0  0  0  0
    1.7692   -0.1496    1.3339 H   0  0  0  0  0  0  0  0  0  0  0  0
  1  2  1  0  0  0  0
  1 10  1  0  0  0  0
  2 11  1  6  0  0  0
  2  9  1  0  0  0  0
  3  2  1  0  0  0  0
  3  4  1  0  0  0  0
  4 14  1  0  0  0  0
  4  5  1  0  0  0  0
  5 16  1  6  0  0  0
  5  8  1  0  0  0  0
  5  6  1  0  0  0  0
  6  7  1  0  0  0  0
  7 18  1  0  0  0  0
  7 17  1  0  0  0  0
  8  9  1  1  0  0  0
  8  7  1  0  0  0  0
  9 19  1  0  0  0  0
 12  3  1  0  0  0  0
 13  3  1  0  0  0  0
 15  4  1  0  0  0  0
M TOR 0 0 1 2 3
M TOR 1 0 1 2 11
M TOR 2 0 1 2 12
M TOR 3 0 1 8 7
M TOR 4 0 1 8 18
M TOR 5 1 2 3 4
M TOR 6 1 2 3 13
M TOR 7 1 2 3 14
M TOR 8 1 8 7 4
M TOR 9 1 8 7 6
M TOR 10 2 1 0 9
M TOR 11 2 1 8 7
M TOR 12 2 1 8 18
M TOR 13 2 3 4 5
M TOR 14 2 3 4 7
M TOR 15 2 3 4 15
M TOR 16 3 2 1 8
M TOR 17 3 2 1 10
M TOR 18 3 4 5 6
M TOR 19 3 4 7 6
M TOR 20 3 4 7 8
M TOR 21 4 3 2 11
M TOR 22 4 3 2 12
M TOR 23 4 5 6 7
M TOR 24 4 5 6 16
M TOR 25 4 5 6 17
M TOR 26 4 7 6 16
M TOR 27 4 7 6 17
M TOR 28 4 7 8 18
M TOR 29 5 4 3 13
M TOR 30 5 4 3 14
M TOR 31 5 4 7 8
M TOR 32 5 6 7 8
M TOR 33 6 5 4 15
M TOR 34 6 7 4 15
M TOR 35 6 7 8 18
M TOR 36 7 4 3 13
M TOR 37 7 4 3 14
M TOR 38 7 8 1 10
M TOR 39 8 1 0 9
M TOR 40 8 1 2 11
M TOR 41 8 1 2 12
M TOR 42 8 7 4 15
M TOR 43 8 7 6 16
M TOR 44 8 7 6 17
M  END
$$$$
