gdb 4173	2.6129615	1.5539211	1.4095813	1.9938	75.27	-0.23047	0.02148	0.25195	1031.9603	0.158004	-422.56687	-422.558829	-422.557885	-422.599107	31.363
 OpenBabel02181911413D

 19 20  0  0  1  0  0  0  0  0999 V2000
    1.4861    0.1694   -0.0615 C   0  0  0  0  0  0  0  0  0  0  0  0
    0.0227   -0.1125   -0.0480 C   0  0  0  0  0  0  0  0  0  0  0  0
   -1.0261    0.7104    0.0298 C   0  0  0  0  0  0  0  0  0  0  0  0
   -2.2474   -0.1887    0.1395 C   0  0  1  0  0  0  0  0  0  0  0  0
   -1.8537   -1.3397   -0.6170 O   0  0  0  0  0  0  0  0  0  0  0  0
   -0.5819   -1.5147    0.0248 C   0  0  2  0  0  0  0  0  0  0  0  0
   -1.0264   -1.7457    1.5057 C   0  0  0  0  0  0  0  0  0  0  0  0
   -2.2583   -0.7906    1.5823 C   0  0  1  0  0  0  0  0  0  0  0  0
   -2.1740    0.2500    2.5379 O   0  0  0  0  0  0  0  0  0  0  0  0
    1.9798   -0.2571    0.8219 H   0  0  0  0  0  0  0  0  0  0  0  0
    1.9725   -0.2794   -0.9367 H   0  0  0  0  0  0  0  0  0  0  0  0
    1.6882    1.2437   -0.0709 H   0  0  0  0  0  0  0  0  0  0  0  0
   -1.0284    1.7881    0.1126 H   0  0  0  0  0  0  0  0  0  0  0  0
   -3.2027    0.2015   -0.2084 H   0  0  0  0  0  0  0  0  0  0  0  0
   -0.0222   -2.3271   -0.4397 H   0  0  0  0  0  0  0  0  0  0  0  0
   -1.3126   -2.7884    1.6633 H   0  0  0  0  0  0  0  0  0  0  0  0
   -0.2590   -1.4726    2.2346 H   0  0  0  0  0  0  0  0  0  0  0  0
   -3.1812   -1.3684    1.7182 H   0  0  0  0  0  0  0  0  0  0  0  0
   -2.2605   -0.1382    3.4133 H   0  0  0  0  0  0  0  0  0  0  0  0
  1  2  1  0  0  0  0
  1 10  1  0  0  0  0
  2  6  1  0  0  0  0
  2  3  2  0  0  0  0
  3 13  1  0  0  0  0
  3  4  1  0  0  0  0
  4 14  1  6  0  0  0
  4  8  1  0  0  0  0
  5  6  1  0  0  0  0
  5  4  1  0  0  0  0
  6 15  1  6  0  0  0
  6  7  1  0  0  0  0
  7  8  1  0  0  0  0
  7 16  1  0  0  0  0
  7 17  1  0  0  0  0
  8 18  1  1  0  0  0
  8  9  1  0  0  0  0
  9 19  1  0  0  0  0
 11  1  1  0  0  0  0
 12  1  1  0  0  0  0
M TOR 0 0 1 2 3
M TOR 1 0 1 2 12
M TOR 2 0 1 5 4
M TOR 3 0 1 5 6
M TOR 4 0 1 5 14
M TOR 5 1 2 3 4
M TOR 6 1 2 3 7
M TOR 7 1 2 3 13
M TOR 8 1 5 4 3
M TOR 9 1 5 6 7
M TOR 10 1 5 6 15
M TOR 11 1 5 6 16
M TOR 12 2 1 0 9
M TOR 13 2 1 0 10
M TOR 14 2 1 0 11
M TOR 15 2 1 5 4
M TOR 16 2 1 5 6
M TOR 17 2 1 5 14
M TOR 18 2 3 4 5
M TOR 19 2 3 7 6
M TOR 20 2 3 7 8
M TOR 21 2 3 7 17
M TOR 22 3 2 1 5
M TOR 23 3 4 5 6
M TOR 24 3 4 5 14
M TOR 25 3 7 6 5
M TOR 26 3 7 6 15
M TOR 27 3 7 6 16
M TOR 28 3 7 8 18
M TOR 29 4 3 2 12
M TOR 30 4 3 7 6
M TOR 31 4 3 7 8
M TOR 32 4 3 7 17
M TOR 33 4 5 6 7
M TOR 34 4 5 6 15
M TOR 35 4 5 6 16
M TOR 36 5 1 0 9
M TOR 37 5 1 0 10
M TOR 38 5 1 0 11
M TOR 39 5 1 2 12
M TOR 40 5 4 3 7
M TOR 41 5 4 3 13
M TOR 42 5 6 7 8
M TOR 43 5 6 7 17
M TOR 44 6 7 3 13
M TOR 45 6 7 8 18
M TOR 46 7 3 2 12
M TOR 47 7 6 5 14
M TOR 48 8 7 3 13
M TOR 49 8 7 6 15
M TOR 50 8 7 6 16
M  END
$$$$
