gdb 1997	2.9320799	1.7173605	1.5949314	1.5116	73.16	-0.24436	0.07915	0.32350999999999996	927.1553	0.159418	-422.546758	-422.539783	-422.538839	-422.577503	29.448
 OpenBabel02181911403D

 19 21  0  0  1  0  0  0  0  0999 V2000
    0.4690    0.1063    1.1748 O   0  0  0  0  0  0  0  0  0  0  0  0
   -0.8921    0.4133    1.2179 C   0  0  2  0  0  0  0  0  0  0  0  0
   -1.3429    1.7507    1.7584 C   0  0  0  0  0  0  0  0  0  0  0  0
   -1.6013    0.4837    2.5469 C   0  0  1  0  0  0  0  0  0  0  0  0
   -2.9054   -0.2934    2.2690 C   0  0  2  0  0  0  0  0  0  0  0  0
   -2.3796   -1.4465    1.3941 C   0  0  0  0  0  0  0  0  0  0  0  0
   -1.8412   -0.4462    0.3355 C   0  0  1  0  0  0  0  0  0  0  0  0
   -3.1432    0.3116    0.0546 C   0  0  0  0  0  0  0  0  0  0  0  0
   -3.7459    0.4421    1.3588 O   0  0  0  0  0  0  0  0  0  0  0  0
    0.8614    0.5889    0.4390 H   0  0  0  0  0  0  0  0  0  0  0  0
   -0.5416    2.3760    2.1392 H   0  0  0  0  0  0  0  0  0  0  0  0
   -2.1831    2.2890    1.3382 H   0  0  0  0  0  0  0  0  0  0  0  0
   -1.0752    0.3202    3.4809 H   0  0  0  0  0  0  0  0  0  0  0  0
   -3.4977   -0.5413    3.1495 H   0  0  0  0  0  0  0  0  0  0  0  0
   -1.5848   -2.0223    1.8728 H   0  0  0  0  0  0  0  0  0  0  0  0
   -3.1656   -2.1140    1.0281 H   0  0  0  0  0  0  0  0  0  0  0  0
   -1.3537   -0.8604   -0.5472 H   0  0  0  0  0  0  0  0  0  0  0  0
   -2.9907    1.3043   -0.3826 H   0  0  0  0  0  0  0  0  0  0  0  0
   -3.8093   -0.2597   -0.6053 H   0  0  0  0  0  0  0  0  0  0  0  0
  2  1  1  6  0  0  0
  2  3  1  0  0  0  0
  2  4  1  0  0  0  0
  3 11  1  0  0  0  0
  3  4  1  0  0  0  0
  4 13  1  1  0  0  0
  5  4  1  0  0  0  0
  5 14  1  1  0  0  0
  6 15  1  0  0  0  0
  6  5  1  0  0  0  0
  7 17  1  6  0  0  0
  7  2  1  0  0  0  0
  7  6  1  0  0  0  0
  8  7  1  0  0  0  0
  8  9  1  0  0  0  0
  9  5  1  0  0  0  0
 10  1  1  0  0  0  0
 12  3  1  0  0  0  0
 16  6  1  0  0  0  0
 18  8  1  0  0  0  0
 19  8  1  0  0  0  0
M TOR 0 0 1 2 3
M TOR 1 0 1 2 10
M TOR 2 0 1 2 11
M TOR 3 0 1 3 4
M TOR 4 0 1 3 12
M TOR 5 0 1 6 5
M TOR 6 0 1 6 7
M TOR 7 0 1 6 16
M TOR 8 1 2 3 4
M TOR 9 1 2 3 12
M TOR 10 1 3 2 10
M TOR 11 1 3 2 11
M TOR 12 1 3 4 5
M TOR 13 1 3 4 8
M TOR 14 1 3 4 13
M TOR 15 1 6 5 4
M TOR 16 1 6 5 14
M TOR 17 1 6 5 15
M TOR 18 1 6 7 8
M TOR 19 1 6 7 17
M TOR 20 1 6 7 18
M TOR 21 2 1 0 9
M TOR 22 2 1 6 5
M TOR 23 2 1 6 7
M TOR 24 2 1 6 16
M TOR 25 2 3 1 6
M TOR 26 2 3 4 5
M TOR 27 2 3 4 8
M TOR 28 2 3 4 13
M TOR 29 3 1 0 9
M TOR 30 3 1 6 5
M TOR 31 3 1 6 7
M TOR 32 3 1 6 16
M TOR 33 3 4 5 6
M TOR 34 3 4 5 14
M TOR 35 3 4 5 15
M TOR 36 3 4 8 7
M TOR 37 4 3 1 6
M TOR 38 4 3 2 10
M TOR 39 4 3 2 11
M TOR 40 4 5 6 7
M TOR 41 4 5 6 16
M TOR 42 4 8 7 6
M TOR 43 4 8 7 17
M TOR 44 4 8 7 18
M TOR 45 5 4 3 12
M TOR 46 5 4 8 7
M TOR 47 5 6 7 8
M TOR 48 5 6 7 17
M TOR 49 5 6 7 18
M TOR 50 6 1 0 9
M TOR 51 6 1 2 10
M TOR 52 6 1 2 11
M TOR 53 6 1 3 12
M TOR 54 6 5 4 8
M TOR 55 6 5 4 13
M TOR 56 7 6 5 14
M TOR 57 7 6 5 15
M TOR 58 7 8 4 13
M TOR 59 8 4 3 12
M TOR 60 8 4 5 14
M TOR 61 8 4 5 15
M TOR 62 8 7 6 16
M  END
$$$$
