gdb 143	2.4567736	2.1559815	1.680561	0.7341	72.9	-0.22686	0.07415	0.30101	893.8888	0.1608	-422.544578	-422.537904	-422.536959	-422.575263	27.681
 OpenBabel02181911403D

 19 21  0  0  1  0  0  0  0  0999 V2000
   -0.0260    2.1585   -0.4636 C   0  0  0  0  0  0  0  0  0  0  0  0
    0.6287    2.1273    0.9080 C   0  0  1  0  0  0  0  0  0  0  0  0
    1.7001    1.0663    0.7808 C   0  0  1  0  0  0  0  0  0  0  0  0
    1.6383    0.4547   -0.4799 O   0  0  0  0  0  0  0  0  0  0  0  0
    0.9352    1.3398   -1.3669 C   0  0  2  0  0  0  0  0  0  0  0  0
    1.9501    2.1931   -2.1492 C   0  0  0  0  0  0  0  0  0  0  0  0
    3.0942    2.6763   -1.2548 C   0  0  0  0  0  0  0  0  0  0  0  0
    2.6319    3.3346   -0.0826 O   0  0  0  0  0  0  0  0  0  0  0  0
    2.0918    2.5251    0.9198 C   0  0  1  0  0  0  0  0  0  0  0  0
   -1.0067    1.6761   -0.4115 H   0  0  0  0  0  0  0  0  0  0  0  0
   -0.1669    3.1728   -0.8473 H   0  0  0  0  0  0  0  0  0  0  0  0
    0.0134    2.2570    1.7907 H   0  0  0  0  0  0  0  0  0  0  0  0
    1.9641    0.3573    1.5572 H   0  0  0  0  0  0  0  0  0  0  0  0
    0.3774    0.7070   -2.0632 H   0  0  0  0  0  0  0  0  0  0  0  0
    2.3823    1.5973   -2.9622 H   0  0  0  0  0  0  0  0  0  0  0  0
    1.4337    3.0434   -2.6089 H   0  0  0  0  0  0  0  0  0  0  0  0
    3.7349    1.8286   -0.9837 H   0  0  0  0  0  0  0  0  0  0  0  0
    3.7063    3.4118   -1.7851 H   0  0  0  0  0  0  0  0  0  0  0  0
    2.4975    2.7912    1.8937 H   0  0  0  0  0  0  0  0  0  0  0  0
  1 10  1  0  0  0  0
  1  2  1  0  0  0  0
  2  9  1  0  0  0  0
  2 12  1  1  0  0  0
  3  2  1  0  0  0  0
  3  9  1  0  0  0  0
  3 13  1  1  0  0  0
  4  3  1  0  0  0  0
  5 14  1  6  0  0  0
  5  4  1  0  0  0  0
  5  1  1  0  0  0  0
  6  5  1  0  0  0  0
  6  7  1  0  0  0  0
  7 17  1  0  0  0  0
  7  8  1  0  0  0  0
  8  9  1  0  0  0  0
  9 19  1  1  0  0  0
 11  1  1  0  0  0  0
 15  6  1  0  0  0  0
 16  6  1  0  0  0  0
 18  7  1  0  0  0  0
M TOR 0 0 1 2 3
M TOR 1 0 1 2 8
M TOR 2 0 1 2 12
M TOR 3 0 1 8 7
M TOR 4 0 1 8 18
M TOR 5 0 4 3 2
M TOR 6 0 4 5 6
M TOR 7 0 4 5 14
M TOR 8 0 4 5 15
M TOR 9 1 0 4 3
M TOR 10 1 0 4 5
M TOR 11 1 0 4 13
M TOR 12 1 2 3 4
M TOR 13 1 2 8 7
M TOR 14 1 2 8 18
M TOR 15 1 8 2 3
M TOR 16 1 8 2 12
M TOR 17 1 8 7 6
M TOR 18 2 1 0 4
M TOR 19 2 1 0 9
M TOR 20 2 1 0 10
M TOR 21 2 3 4 5
M TOR 22 2 3 4 13
M TOR 23 2 8 1 11
M TOR 24 2 8 7 6
M TOR 25 3 2 1 11
M TOR 26 3 2 8 7
M TOR 27 3 2 8 18
M TOR 28 3 4 0 9
M TOR 29 3 4 0 10
M TOR 30 3 4 5 6
M TOR 31 3 4 5 14
M TOR 32 3 4 5 15
M TOR 33 4 0 1 8
M TOR 34 4 0 1 11
M TOR 35 4 3 2 8
M TOR 36 4 3 2 12
M TOR 37 4 5 6 7
M TOR 38 4 5 6 16
M TOR 39 4 5 6 17
M TOR 40 5 4 0 9
M TOR 41 5 4 0 10
M TOR 42 5 6 7 8
M TOR 43 6 5 4 13
M TOR 44 6 7 8 18
M TOR 45 7 6 5 14
M TOR 46 7 6 5 15
M TOR 47 7 8 1 11
M TOR 48 7 8 2 12
M TOR 49 8 1 0 9
M TOR 50 8 1 0 10
M TOR 51 8 7 6 16
M TOR 52 8 7 6 17
M  END
$$$$
