gdb 3233	2.0376062	1.758073	1.533769	1.4543	75.01	-0.23104	0.0586	0.28964	1016.8576	0.155854	-422.505771	-422.497132	-422.496188	-422.538245	33.655
 OpenBabel02181911413D

 19 21  0  0  1  0  0  0  0  0999 V2000
    1.4186    1.0645    0.0741 C   0  0  0  0  0  0  0  0  0  0  0  0
    1.0819   -0.4192    0.0022 C   0  0  1  0  0  0  0  0  0  0  0  0
    1.8627   -1.2091   -1.0969 C   0  0  2  0  0  0  0  0  0  0  0  0
    1.3253   -2.6634   -0.9864 C   0  0  0  0  0  0  0  0  0  0  0  0
    2.0039   -2.6984    0.3795 C   0  0  2  0  0  0  0  0  0  0  0  0
    1.8606   -1.2715    1.0031 C   0  0  2  0  0  0  0  0  0  0  0  0
    2.0215   -1.0461    2.3547 O   0  0  0  0  0  0  0  0  0  0  0  0
    2.9519   -1.5818    0.0178 C   0  0  2  0  0  0  0  0  0  0  0  0
    4.3185   -1.5666    0.0652 O   0  0  0  0  0  0  0  0  0  0  0  0
    1.0550    1.5067    1.0071 H   0  0  0  0  0  0  0  0  0  0  0  0
    2.5027    1.2251    0.0362 H   0  0  0  0  0  0  0  0  0  0  0  0
    0.9692    1.6130   -0.7604 H   0  0  0  0  0  0  0  0  0  0  0  0
   -0.0069   -0.5650   -0.0227 H   0  0  0  0  0  0  0  0  0  0  0  0
    2.0583   -0.7426   -2.0607 H   0  0  0  0  0  0  0  0  0  0  0  0
    0.2383   -2.7938   -1.0410 H   0  0  0  0  0  0  0  0  0  0  0  0
    1.8115   -3.3400   -1.6948 H   0  0  0  0  0  0  0  0  0  0  0  0
    2.2130   -3.5369    1.0327 H   0  0  0  0  0  0  0  0  0  0  0  0
    1.2963   -1.4691    2.8277 H   0  0  0  0  0  0  0  0  0  0  0  0
    4.6082   -0.6850    0.3257 H   0  0  0  0  0  0  0  0  0  0  0  0
  1 10  1  0  0  0  0
  2 13  1  1  0  0  0
  2  1  1  0  0  0  0
  2  6  1  0  0  0  0
  3 14  1  6  0  0  0
  3  4  1  0  0  0  0
  3  2  1  0  0  0  0
  3  8  1  0  0  0  0
  4  5  1  0  0  0  0
  5  6  1  0  0  0  0
  5 17  1  1  0  0  0
  6  7  1  1  0  0  0
  7 18  1  0  0  0  0
  8  9  1  1  0  0  0
  8  5  1  0  0  0  0
  8  6  1  0  0  0  0
  9 19  1  0  0  0  0
 11  1  1  0  0  0  0
 12  1  1  0  0  0  0
 15  4  1  0  0  0  0
 16  4  1  0  0  0  0
M TOR 0 0 1 2 3
M TOR 1 0 1 2 7
M TOR 2 0 1 2 13
M TOR 3 0 1 5 4
M TOR 4 0 1 5 6
M TOR 5 0 1 5 7
M TOR 6 1 2 3 4
M TOR 7 1 2 3 14
M TOR 8 1 2 3 15
M TOR 9 1 2 7 4
M TOR 10 1 2 7 5
M TOR 11 1 2 7 8
M TOR 12 1 5 4 3
M TOR 13 1 5 4 7
M TOR 14 1 5 4 16
M TOR 15 1 5 6 17
M TOR 16 1 5 7 8
M TOR 17 2 1 0 9
M TOR 18 2 1 0 10
M TOR 19 2 1 0 11
M TOR 20 2 1 5 4
M TOR 21 2 1 5 6
M TOR 22 2 3 4 5
M TOR 23 2 3 4 7
M TOR 24 2 3 4 16
M TOR 25 2 7 4 5
M TOR 26 2 7 4 16
M TOR 27 2 7 5 6
M TOR 28 2 7 8 18
M TOR 29 3 2 1 5
M TOR 30 3 2 1 12
M TOR 31 3 2 7 5
M TOR 32 3 2 7 8
M TOR 33 3 4 5 6
M TOR 34 3 4 5 7
M TOR 35 3 4 7 8
M TOR 36 4 3 2 13
M TOR 37 4 5 1 12
M TOR 38 4 5 6 17
M TOR 39 4 5 7 8
M TOR 40 4 7 2 13
M TOR 41 4 7 5 6
M TOR 42 4 7 8 18
M TOR 43 5 1 0 9
M TOR 44 5 1 0 10
M TOR 45 5 1 0 11
M TOR 46 5 1 2 13
M TOR 47 5 4 3 14
M TOR 48 5 4 3 15
M TOR 49 5 7 2 13
M TOR 50 5 7 4 16
M TOR 51 5 7 8 18
M TOR 52 6 5 1 12
M TOR 53 6 5 4 16
M TOR 54 6 5 7 8
M TOR 55 7 2 1 12
M TOR 56 7 2 3 14
M TOR 57 7 2 3 15
M TOR 58 7 4 3 14
M TOR 59 7 4 3 15
M TOR 60 7 5 1 12
M TOR 61 7 5 6 17
M TOR 62 8 7 2 13
M TOR 63 8 7 4 16
M  END
$$$$
