
     RDKit          3D

 19 20  0  0  0  0  0  0  0  0999 V2000
   -0.1552    1.6561   -0.0172 C   0  0  0  0  0  0  0  0  0  0  0  0
    0.0117    0.1326   -0.0089 C   0  0  0  0  0  0  0  0  0  0  0  0
   -1.3374   -0.5874    0.1806 C   0  0  0  0  0  0  0  0  0  0  0  0
   -1.5545   -0.5436    1.5990 O   0  0  0  0  0  0  0  0  0  0  0  0
   -0.2907   -0.5811    2.2921 C   0  0  0  0  0  0  0  0  0  0  0  0
    0.7205   -0.4218    1.2054 C   0  0  0  0  0  0  0  0  0  0  0  0
    1.9091   -0.8947    0.8598 C   0  0  0  0  0  0  0  0  0  0  0  0
    2.0940   -0.6901   -0.6278 C   0  0  0  0  0  0  0  0  0  0  0  0
    0.8070   -0.2876   -1.1129 O   0  0  0  0  0  0  0  0  0  0  0  0
    0.8128    2.1546    0.0864 H   0  0  0  0  0  0  0  0  0  0  0  0
   -0.6067    1.9708   -0.9630 H   0  0  0  0  0  0  0  0  0  0  0  0
   -0.8061    1.9781    0.8012 H   0  0  0  0  0  0  0  0  0  0  0  0
   -2.1925   -0.0939   -0.2888 H   0  0  0  0  0  0  0  0  0  0  0  0
   -1.2618   -1.6192   -0.1914 H   0  0  0  0  0  0  0  0  0  0  0  0
   -0.2857    0.2315    3.0297 H   0  0  0  0  0  0  0  0  0  0  0  0
   -0.1757   -1.5299    2.8326 H   0  0  0  0  0  0  0  0  0  0  0  0
    2.6271   -1.4163    1.4803 H   0  0  0  0  0  0  0  0  0  0  0  0
    2.8542    0.0701   -0.8726 H   0  0  0  0  0  0  0  0  0  0  0  0
    2.3900   -1.6188   -1.1340 H   0  0  0  0  0  0  0  0  0  0  0  0
  1  2  1  0
  2  3  1  0
  3  4  1  0
  4  5  1  0
  5  6  1  0
  6  7  2  0
  7  8  1  0
  8  9  1  0
  6  2  1  0
  9  2  1  0
  1 10  1  0
  1 11  1  0
  1 12  1  0
  3 13  1  0
  3 14  1  0
  5 15  1  0
  5 16  1  0
  7 17  1  0
  8 18  1  0
  8 19  1  0
M  END
$$$$
