
     RDKit          3D

 19 21  0  0  0  0  0  0  0  0999 V2000
    1.1035    0.9453    1.0117 C   0  0  0  0  0  0  0  0  0  0  0  0
    2.2527    0.4562    0.0534 C   0  0  0  0  0  0  0  0  0  0  0  0
    1.8084   -0.9932    0.3841 C   0  0  0  0  0  0  0  0  0  0  0  0
    0.4827   -0.1926    0.1577 C   0  0  0  0  0  0  0  0  0  0  0  0
   -0.8554   -0.8062   -0.1468 C   0  0  0  0  0  0  0  0  0  0  0  0
   -0.6682   -1.5682   -1.3517 O   0  0  0  0  0  0  0  0  0  0  0  0
   -0.1069   -0.8328   -2.4115 C   0  0  0  0  0  0  0  0  0  0  0  0
    1.2179   -0.3819   -2.1746 O   0  0  0  0  0  0  0  0  0  0  0  0
    1.1707    0.4739   -1.0538 C   0  0  0  0  0  0  0  0  0  0  0  0
    1.2566    0.7396    2.0731 H   0  0  0  0  0  0  0  0  0  0  0  0
    0.7174    1.9562    0.8500 H   0  0  0  0  0  0  0  0  0  0  0  0
    3.2684    0.8491    0.0035 H   0  0  0  0  0  0  0  0  0  0  0  0
    2.0435   -1.7573   -0.3539 H   0  0  0  0  0  0  0  0  0  0  0  0
    1.9899   -1.3345    1.4066 H   0  0  0  0  0  0  0  0  0  0  0  0
   -1.2150   -1.5137    0.6053 H   0  0  0  0  0  0  0  0  0  0  0  0
   -1.6251   -0.0323   -0.3002 H   0  0  0  0  0  0  0  0  0  0  0  0
   -0.0598   -1.5091   -3.2663 H   0  0  0  0  0  0  0  0  0  0  0  0
   -0.7499    0.0371   -2.6444 H   0  0  0  0  0  0  0  0  0  0  0  0
    0.7973    1.4664   -1.3456 H   0  0  0  0  0  0  0  0  0  0  0  0
  1  2  1  0
  2  3  1  0
  3  4  1  0
  4  5  1  0
  5  6  1  0
  6  7  1  0
  7  8  1  0
  8  9  1  0
  4  1  1  0
  9  4  1  0
  9  2  1  0
  1 10  1  0
  1 11  1  0
  2 12  1  0
  3 13  1  0
  3 14  1  0
  5 15  1  0
  5 16  1  0
  7 17  1  0
  7 18  1  0
  9 19  1  0
M  END
$$$$
