
     RDKit          3D

 19 20  0  0  0  0  0  0  0  0999 V2000
    2.8888    1.6325   -0.4321 C   0  0  0  0  0  0  0  0  0  0  0  0
    1.8825    0.5462   -0.0231 C   0  0  0  0  0  0  0  0  0  0  0  0
    1.7068   -0.4848   -1.0901 C   0  0  0  0  0  0  0  0  0  0  0  0
    2.7834   -1.4317   -1.3391 O   0  0  0  0  0  0  0  0  0  0  0  0
    1.4779   -1.9634   -1.1036 C   0  0  0  0  0  0  0  0  0  0  0  0
    1.2733   -2.9262    0.0194 C   0  0  0  0  0  0  0  0  0  0  0  0
    0.7868   -1.9364   -2.4806 C   0  0  0  0  0  0  0  0  0  0  0  0
    0.9886   -0.3920   -2.4353 C   0  0  0  0  0  0  0  0  0  0  0  0
    0.5808    0.5173   -3.0964 O   0  0  0  0  0  0  0  0  0  0  0  0
    2.9964    2.3788    0.3600 H   0  0  0  0  0  0  0  0  0  0  0  0
    3.8717    1.1938   -0.6263 H   0  0  0  0  0  0  0  0  0  0  0  0
    2.5574    2.1425   -1.3411 H   0  0  0  0  0  0  0  0  0  0  0  0
    2.2100    0.0507    0.8980 H   0  0  0  0  0  0  0  0  0  0  0  0
    0.9059    1.0005    0.1835 H   0  0  0  0  0  0  0  0  0  0  0  0
    1.6588   -3.9162   -0.2481 H   0  0  0  0  0  0  0  0  0  0  0  0
    1.7984   -2.5891    0.9169 H   0  0  0  0  0  0  0  0  0  0  0  0
    0.2085   -3.0308    0.2497 H   0  0  0  0  0  0  0  0  0  0  0  0
    1.2972   -2.4887   -3.2723 H   0  0  0  0  0  0  0  0  0  0  0  0
   -0.2793   -2.1846   -2.4757 H   0  0  0  0  0  0  0  0  0  0  0  0
  1  2  1  0
  2  3  1  0
  3  4  1  0
  4  5  1  0
  5  6  1  0
  5  7  1  0
  7  8  1  0
  8  9  2  0
  5  3  1  0
  8  3  1  0
  1 10  1  0
  1 11  1  0
  1 12  1  0
  2 13  1  0
  2 14  1  0
  6 15  1  0
  6 16  1  0
  6 17  1  0
  7 18  1  0
  7 19  1  0
M  END
$$$$
