gdb 3411	2.3419611	1.5595347	1.0408688	2.0763	77.01	-0.23597	-0.01426	0.22171000000000002	1175.6515	0.157293	-422.566534	-422.558161	-422.557217	-422.59949	31.66
 OpenBabel02181911413D

 19 20  0  0  1  0  0  0  0  0999 V2000
   -2.2152   -3.0642    1.2388 C   0  0  0  0  0  0  0  0  0  0  0  0
   -2.0335   -1.6103    0.8709 C   0  0  2  0  0  0  0  0  0  0  0  0
   -2.2845   -1.1041   -0.5097 C   0  0  1  0  0  0  0  0  0  0  0  0
   -2.8624    0.1631   -0.6307 O   0  0  0  0  0  0  0  0  0  0  0  0
   -1.9517    1.2081   -0.9397 C   0  0  0  0  0  0  0  0  0  0  0  0
   -0.8778    1.3258    0.1509 C   0  0  0  0  0  0  0  0  0  0  0  0
   -0.0695    0.0358    0.2155 C   0  0  0  0  0  0  0  0  0  0  0  0
    1.1321    0.0262    0.3717 O   0  0  0  0  0  0  0  0  0  0  0  0
   -0.8466   -1.2134   -0.0223 C   0  0  1  0  0  0  0  0  0  0  0  0
   -1.5479   -3.3530    2.0574 H   0  0  0  0  0  0  0  0  0  0  0  0
   -3.2451   -3.2586    1.5566 H   0  0  0  0  0  0  0  0  0  0  0  0
   -1.9987   -3.7175    0.3875 H   0  0  0  0  0  0  0  0  0  0  0  0
   -2.2843   -0.8947    1.6487 H   0  0  0  0  0  0  0  0  0  0  0  0
   -2.6062   -1.8047   -1.2784 H   0  0  0  0  0  0  0  0  0  0  0  0
   -1.4820    1.0404   -1.9208 H   0  0  0  0  0  0  0  0  0  0  0  0
   -2.5517    2.1195   -1.0039 H   0  0  0  0  0  0  0  0  0  0  0  0
   -0.1891    2.1545   -0.0333 H   0  0  0  0  0  0  0  0  0  0  0  0
   -1.3756    1.5040    1.1122 H   0  0  0  0  0  0  0  0  0  0  0  0
   -0.2419   -2.0373   -0.3865 H   0  0  0  0  0  0  0  0  0  0  0  0
  1 11  1  0  0  0  0
  1 10  1  0  0  0  0
  2  1  1  0  0  0  0
  2 13  1  1  0  0  0
  3 14  1  6  0  0  0
  3  9  1  0  0  0  0
  3  2  1  0  0  0  0
  4  3  1  0  0  0  0
  5  4  1  0  0  0  0
  5  6  1  0  0  0  0
  6  7  1  0  0  0  0
  6 18  1  0  0  0  0
  7  8  2  0  0  0  0
  9 19  1  6  0  0  0
  9  7  1  0  0  0  0
  9  2  1  0  0  0  0
 12  1  1  0  0  0  0
 15  5  1  0  0  0  0
 16  5  1  0  0  0  0
 17  6  1  0  0  0  0
M TOR 0 0 1 2 3
M TOR 1 0 1 2 8
M TOR 2 0 1 2 13
M TOR 3 0 1 8 6
M TOR 4 0 1 8 18
M TOR 5 1 2 3 4
M TOR 6 1 2 8 6
M TOR 7 1 2 8 18
M TOR 8 1 8 2 3
M TOR 9 1 8 2 13
M TOR 10 1 8 6 5
M TOR 11 1 8 6 7
M TOR 12 2 1 0 9
M TOR 13 2 1 0 10
M TOR 14 2 1 0 11
M TOR 15 2 3 4 5
M TOR 16 2 3 4 14
M TOR 17 2 3 4 15
M TOR 18 2 8 1 12
M TOR 19 2 8 6 5
M TOR 20 2 8 6 7
M TOR 21 3 2 1 12
M TOR 22 3 2 8 6
M TOR 23 3 2 8 18
M TOR 24 3 4 5 6
M TOR 25 3 4 5 16
M TOR 26 3 4 5 17
M TOR 27 4 3 2 8
M TOR 28 4 3 2 13
M TOR 29 4 5 6 7
M TOR 30 4 5 6 8
M TOR 31 5 6 8 18
M TOR 32 6 5 4 14
M TOR 33 6 5 4 15
M TOR 34 6 8 1 12
M TOR 35 6 8 2 13
M TOR 36 7 6 5 16
M TOR 37 7 6 5 17
M TOR 38 7 6 8 18
M TOR 39 8 1 0 9
M TOR 40 8 1 0 10
M TOR 41 8 1 0 11
M TOR 42 8 6 5 16
M TOR 43 8 6 5 17
M  END
$$$$
