gdb 1406	2.4370993	1.4676512	1.1824365	2.6208	77.3	-0.23644	-0.00774	0.22870000000000001	1121.4716	0.154268	-422.553565	-422.544282	-422.543338	-422.586872	35.322
 OpenBabel02181911403D

 19 20  0  0  1  0  0  0  0  0999 V2000
   -1.3470   -0.3316   -2.6303 C   0  0  0  0  0  0  0  0  0  0  0  0
   -1.8703   -0.8992   -1.3201 C   0  0  0  0  0  0  0  0  0  0  0  0
   -2.9086   -1.9945   -1.5251 C   0  0  0  0  0  0  0  0  0  0  0  0
   -0.9236   -1.2078   -0.1316 C   0  0  1  0  0  0  0  0  0  0  0  0
    0.0807   -0.1243    0.0465 C   0  0  0  0  0  0  0  0  0  0  0  0
    1.2617   -0.1106    0.2624 O   0  0  0  0  0  0  0  0  0  0  0  0
   -0.9919    1.0016    0.0759 C   0  0  0  0  0  0  0  0  0  0  0  0
   -2.0518   -0.0946   -0.0896 C   0  0  1  0  0  0  0  0  0  0  0  0
   -3.2635   -0.0938    0.5593 O   0  0  0  0  0  0  0  0  0  0  0  0
   -0.9020   -1.1302   -3.2334 H   0  0  0  0  0  0  0  0  0  0  0  0
   -2.1665    0.1060   -3.2116 H   0  0  0  0  0  0  0  0  0  0  0  0
   -0.5848    0.4377   -2.4914 H   0  0  0  0  0  0  0  0  0  0  0  0
   -3.2700   -2.3974   -0.5775 H   0  0  0  0  0  0  0  0  0  0  0  0
   -3.7729   -1.5984   -2.0685 H   0  0  0  0  0  0  0  0  0  0  0  0
   -2.4851   -2.8126   -2.1168 H   0  0  0  0  0  0  0  0  0  0  0  0
   -0.8698   -2.2153    0.2640 H   0  0  0  0  0  0  0  0  0  0  0  0
   -1.0139    1.4421    1.0796 H   0  0  0  0  0  0  0  0  0  0  0  0
   -0.9439    1.8070   -0.6619 H   0  0  0  0  0  0  0  0  0  0  0  0
   -3.1202    0.1384    1.4840 H   0  0  0  0  0  0  0  0  0  0  0  0
  1 12  1  0  0  0  0
  1  2  1  0  0  0  0
  2  4  1  0  0  0  0
  2  8  1  0  0  0  0
  3  2  1  0  0  0  0
  3 13  1  0  0  0  0
  4  8  1  0  0  0  0
  4  5  1  0  0  0  0
  4 16  1  1  0  0  0
  5  7  1  0  0  0  0
  5  6  2  0  0  0  0
  7 17  1  0  0  0  0
  8  7  1  0  0  0  0
  8  9  1  1  0  0  0
  9 19  1  0  0  0  0
 10  1  1  0  0  0  0
 11  1  1  0  0  0  0
 14  3  1  0  0  0  0
 15  3  1  0  0  0  0
 18  7  1  0  0  0  0
M TOR 0 0 1 2 12
M TOR 1 0 1 2 13
M TOR 2 0 1 2 14
M TOR 3 0 1 3 4
M TOR 4 0 1 3 7
M TOR 5 0 1 3 15
M TOR 6 0 1 7 6
M TOR 7 0 1 7 8
M TOR 8 1 3 4 5
M TOR 9 1 3 4 6
M TOR 10 1 3 7 6
M TOR 11 1 3 7 8
M TOR 12 1 7 3 4
M TOR 13 1 7 3 15
M TOR 14 1 7 6 4
M TOR 15 1 7 6 16
M TOR 16 1 7 6 17
M TOR 17 1 7 8 18
M TOR 18 2 1 0 9
M TOR 19 2 1 0 10
M TOR 20 2 1 0 11
M TOR 21 2 1 3 4
M TOR 22 2 1 3 7
M TOR 23 2 1 3 15
M TOR 24 2 1 7 6
M TOR 25 2 1 7 8
M TOR 26 3 1 0 9
M TOR 27 3 1 0 10
M TOR 28 3 1 0 11
M TOR 29 3 1 2 12
M TOR 30 3 1 2 13
M TOR 31 3 1 2 14
M TOR 32 3 4 6 7
M TOR 33 3 4 6 16
M TOR 34 3 4 6 17
M TOR 35 3 7 6 16
M TOR 36 3 7 6 17
M TOR 37 3 7 8 18
M TOR 38 4 3 7 8
M TOR 39 4 6 7 8
M TOR 40 5 4 3 7
M TOR 41 5 4 3 15
M TOR 42 5 4 6 7
M TOR 43 5 4 6 16
M TOR 44 5 4 6 17
M TOR 45 6 4 3 15
M TOR 46 6 7 3 15
M TOR 47 6 7 8 18
M TOR 48 7 1 0 9
M TOR 49 7 1 0 10
M TOR 50 7 1 0 11
M TOR 51 7 1 2 12
M TOR 52 7 1 2 13
M TOR 53 7 1 2 14
M TOR 54 8 7 3 15
M TOR 55 8 7 6 16
M TOR 56 8 7 6 17
M  END
$$$$
