
     RDKit          3D

 19 20  0  0  0  0  0  0  0  0999 V2000
   -0.5516    1.2762   -0.7361 C   0  0  0  0  0  0  0  0  0  0  0  0
   -0.0070    0.2918    0.3281 C   0  0  0  0  0  0  0  0  0  0  0  0
    1.4819    0.0749   -0.0980 C   0  0  0  0  0  0  0  0  0  0  0  0
    1.6222    0.7630   -1.3539 O   0  0  0  0  0  0  0  0  0  0  0  0
    0.7398    1.8489   -1.3163 C   0  0  0  0  0  0  0  0  0  0  0  0
    1.1798    2.8713   -0.4323 O   0  0  0  0  0  0  0  0  0  0  0  0
    2.5742    2.8973   -0.1484 C   0  0  0  0  0  0  0  0  0  0  0  0
    2.9993    1.8333    0.8420 C   0  0  0  0  0  0  0  0  0  0  0  0
    2.4963    0.6008    0.8884 C   0  0  0  0  0  0  0  0  0  0  0  0
   -1.0999    0.7485   -1.5215 H   0  0  0  0  0  0  0  0  0  0  0  0
   -1.1927    2.0540   -0.3192 H   0  0  0  0  0  0  0  0  0  0  0  0
   -0.0582    0.7224    1.3293 H   0  0  0  0  0  0  0  0  0  0  0  0
   -0.5623   -0.6483    0.3357 H   0  0  0  0  0  0  0  0  0  0  0  0
    1.6884   -0.9804   -0.3026 H   0  0  0  0  0  0  0  0  0  0  0  0
    0.6722    2.2380   -2.3398 H   0  0  0  0  0  0  0  0  0  0  0  0
    3.1678    2.8260   -1.0715 H   0  0  0  0  0  0  0  0  0  0  0  0
    2.7583    3.8871    0.2810 H   0  0  0  0  0  0  0  0  0  0  0  0
    3.7529    2.1309    1.5673 H   0  0  0  0  0  0  0  0  0  0  0  0
    2.8236   -0.0925    1.6597 H   0  0  0  0  0  0  0  0  0  0  0  0
  1  2  1  0
  2  3  1  0
  3  4  1  0
  4  5  1  0
  5  6  1  0
  6  7  1  0
  7  8  1  0
  8  9  2  0
  5  1  1  0
  9  3  1  0
  1 10  1  0
  1 11  1  0
  2 12  1  0
  2 13  1  0
  3 14  1  0
  5 15  1  0
  7 16  1  0
  7 17  1  0
  8 18  1  0
  9 19  1  0
M  END
$$$$
