
     RDKit          3D

 19 20  0  0  0  0  0  0  0  0999 V2000
   -0.2907   -2.1439    1.2115 C   0  0  0  0  0  0  0  0  0  0  0  0
   -0.8315   -1.3432    0.0165 C   0  0  0  0  0  0  0  0  0  0  0  0
   -2.3291   -1.0530    0.1460 C   0  0  0  0  0  0  0  0  0  0  0  0
   -2.8048    0.0061   -0.8672 C   0  0  0  0  0  0  0  0  0  0  0  0
   -2.3490    0.9686    0.2487 C   0  0  0  0  0  0  0  0  0  0  0  0
   -0.8578    1.2758    0.1504 C   0  0  0  0  0  0  0  0  0  0  0  0
   -0.0637   -0.0117   -0.1193 C   0  0  0  0  0  0  0  0  0  0  0  0
    1.1064    0.0132   -0.4144 O   0  0  0  0  0  0  0  0  0  0  0  0
   -2.5145   -0.0957    1.2304 O   0  0  0  0  0  0  0  0  0  0  0  0
   -0.7414   -3.1411    1.2411 H   0  0  0  0  0  0  0  0  0  0  0  0
    0.7933   -2.2536    1.1343 H   0  0  0  0  0  0  0  0  0  0  0  0
   -0.5294   -1.6329    2.1486 H   0  0  0  0  0  0  0  0  0  0  0  0
   -0.6392   -1.9066   -0.9059 H   0  0  0  0  0  0  0  0  0  0  0  0
   -2.9263   -1.9579    0.2901 H   0  0  0  0  0  0  0  0  0  0  0  0
   -2.3062    0.0600   -1.8385 H   0  0  0  0  0  0  0  0  0  0  0  0
   -3.8879    0.0023   -0.9953 H   0  0  0  0  0  0  0  0  0  0  0  0
   -2.9606    1.8441    0.4798 H   0  0  0  0  0  0  0  0  0  0  0  0
   -0.6231    2.0034   -0.6343 H   0  0  0  0  0  0  0  0  0  0  0  0
   -0.5022    1.6974    1.0981 H   0  0  0  0  0  0  0  0  0  0  0  0
  1  2  1  0
  2  3  1  0
  3  4  1  0
  4  5  1  0
  5  6  1  0
  6  7  1  0
  7  8  2  0
  5  9  1  0
  7  2  1  0
  9  3  1  0
  1 10  1  0
  1 11  1  0
  1 12  1  0
  2 13  1  0
  3 14  1  0
  4 15  1  0
  4 16  1  0
  5 17  1  0
  6 18  1  0
  6 19  1  0
M  END
$$$$
