gdb 1533	2.741241	1.2906565	1.1720037	1.9732	77.5	-0.22786	-0.02553	0.20233	1159.22	0.154415	-422.555637	-422.546132	-422.545188	-422.590105	34.935
 OpenBabel02181911403D

 19 20  0  0  1  0  0  0  0  0999 V2000
   -1.0213    1.9698   -1.1974 C   0  0  0  0  0  0  0  0  0  0  0  0
   -1.1650    1.0879    0.0368 C   0  0  1  0  0  0  0  0  0  0  0  0
   -1.2865    1.8481    1.2266 O   0  0  0  0  0  0  0  0  0  0  0  0
   -2.2565   -0.0309   -0.0322 C   0  0  0  0  0  0  0  0  0  0  0  0
   -1.1497   -1.1019   -0.0109 C   0  0  0  0  0  0  0  0  0  0  0  0
   -0.9927   -2.3502   -0.8579 C   0  0  0  0  0  0  0  0  0  0  0  0
   -1.1222   -2.4737    0.6252 C   0  0  0  0  0  0  0  0  0  0  0  0
   -0.1036   -0.0457    0.1540 C   0  0  0  0  0  0  0  0  0  0  0  0
    1.0798   -0.0418    0.3625 O   0  0  0  0  0  0  0  0  0  0  0  0
   -0.9781    1.3726   -2.1141 H   0  0  0  0  0  0  0  0  0  0  0  0
   -1.8710    2.6561   -1.2649 H   0  0  0  0  0  0  0  0  0  0  0  0
   -0.0996    2.5590   -1.1379 H   0  0  0  0  0  0  0  0  0  0  0  0
   -0.4242    2.2428    1.4040 H   0  0  0  0  0  0  0  0  0  0  0  0
   -2.8913   -0.0245    0.8557 H   0  0  0  0  0  0  0  0  0  0  0  0
   -2.8775   -0.0079   -0.9304 H   0  0  0  0  0  0  0  0  0  0  0  0
   -1.8403   -2.6275   -1.4760 H   0  0  0  0  0  0  0  0  0  0  0  0
   -0.0202   -2.5165   -1.3091 H   0  0  0  0  0  0  0  0  0  0  0  0
   -2.0572   -2.8410    1.0345 H   0  0  0  0  0  0  0  0  0  0  0  0
   -0.2372   -2.7195    1.2026 H   0  0  0  0  0  0  0  0  0  0  0  0
  1 12  1  0  0  0  0
  1  2  1  0  0  0  0
  2  8  1  0  0  0  0
  2  3  1  1  0  0  0
  3 13  1  0  0  0  0
  4  5  1  0  0  0  0
  4  2  1  0  0  0  0
  4 14  1  0  0  0  0
  5  8  1  0  0  0  0
  5  7  1  0  0  0  0
  6  5  1  0  0  0  0
  6  7  1  0  0  0  0
  7 18  1  0  0  0  0
  7 19  1  0  0  0  0
  8  9  2  0  0  0  0
 10  1  1  0  0  0  0
 11  1  1  0  0  0  0
 15  4  1  0  0  0  0
 16  6  1  0  0  0  0
 17  6  1  0  0  0  0
M TOR 0 0 1 2 12
M TOR 1 0 1 3 4
M TOR 2 0 1 3 13
M TOR 3 0 1 3 14
M TOR 4 0 1 7 4
M TOR 5 0 1 7 8
M TOR 6 1 3 4 5
M TOR 7 1 3 4 6
M TOR 8 1 3 4 7
M TOR 9 1 7 4 5
M TOR 10 1 7 4 6
M TOR 11 2 1 0 9
M TOR 12 2 1 0 10
M TOR 13 2 1 0 11
M TOR 14 2 1 3 4
M TOR 15 2 1 3 13
M TOR 16 2 1 3 14
M TOR 17 2 1 7 4
M TOR 18 2 1 7 8
M TOR 19 3 1 0 9
M TOR 20 3 1 0 10
M TOR 21 3 1 0 11
M TOR 22 3 1 2 12
M TOR 23 3 1 7 8
M TOR 24 3 4 5 6
M TOR 25 3 4 5 15
M TOR 26 3 4 5 16
M TOR 27 3 4 6 17
M TOR 28 3 4 6 18
M TOR 29 3 4 7 8
M TOR 30 4 5 6 17
M TOR 31 4 5 6 18
M TOR 32 4 6 5 15
M TOR 33 4 6 5 16
M TOR 34 5 4 3 13
M TOR 35 5 4 3 14
M TOR 36 5 4 7 8
M TOR 37 5 6 4 7
M TOR 38 6 4 3 13
M TOR 39 6 4 3 14
M TOR 40 6 4 7 8
M TOR 41 7 1 0 9
M TOR 42 7 1 0 10
M TOR 43 7 1 0 11
M TOR 44 7 1 2 12
M TOR 45 7 1 3 13
M TOR 46 7 1 3 14
M TOR 47 7 4 3 13
M TOR 48 7 4 3 14
M TOR 49 7 4 5 15
M TOR 50 7 4 5 16
M TOR 51 7 4 6 17
M TOR 52 7 4 6 18
M  END
$$$$
