
     RDKit          3D

 19 20  0  0  0  0  0  0  0  0999 V2000
   -3.2317   -2.2743   -0.1274 C   0  0  0  0  0  0  0  0  0  0  0  0
   -2.2417   -1.2435   -0.6210 C   0  0  0  0  0  0  0  0  0  0  0  0
   -1.1545   -1.6226   -1.5702 C   0  0  0  0  0  0  0  0  0  0  0  0
   -0.8019   -1.3001   -0.1138 C   0  0  0  0  0  0  0  0  0  0  0  0
   -0.1318   -0.0264    0.2489 C   0  0  0  0  0  0  0  0  0  0  0  0
    0.8250    0.0288    0.9901 O   0  0  0  0  0  0  0  0  0  0  0  0
   -0.7685    1.2631   -0.2785 C   0  0  0  0  0  0  0  0  0  0  0  0
   -1.8053    1.0770   -1.2221 O   0  0  0  0  0  0  0  0  0  0  0  0
   -2.7947    0.1655   -0.7794 C   0  0  0  0  0  0  0  0  0  0  0  0
   -3.6517   -1.9887    0.8438 H   0  0  0  0  0  0  0  0  0  0  0  0
   -4.0639   -2.3882   -0.8319 H   0  0  0  0  0  0  0  0  0  0  0  0
   -2.7571   -3.2530   -0.0115 H   0  0  0  0  0  0  0  0  0  0  0  0
   -1.0505   -2.6645   -1.8518 H   0  0  0  0  0  0  0  0  0  0  0  0
   -0.8655   -0.9069   -2.3299 H   0  0  0  0  0  0  0  0  0  0  0  0
   -0.5005   -2.1383    0.5055 H   0  0  0  0  0  0  0  0  0  0  0  0
   -1.1287    1.8205    0.6033 H   0  0  0  0  0  0  0  0  0  0  0  0
    0.0008    1.8730   -0.7595 H   0  0  0  0  0  0  0  0  0  0  0  0
   -3.2391    0.5057    0.1723 H   0  0  0  0  0  0  0  0  0  0  0  0
   -3.5817    0.1823   -1.5411 H   0  0  0  0  0  0  0  0  0  0  0  0
  1  2  1  0
  2  3  1  0
  3  4  1  0
  4  5  1  0
  5  6  2  0
  5  7  1  0
  7  8  1  0
  8  9  1  0
  4  2  1  0
  9  2  1  0
  1 10  1  0
  1 11  1  0
  1 12  1  0
  3 13  1  0
  3 14  1  0
  4 15  1  0
  7 16  1  0
  7 17  1  0
  9 18  1  0
  9 19  1  0
M  END
$$$$
