gdb 4064	4.091908	1.2776257	1.1232107	2.0085	74.21	-0.23245	0.06646	0.29891	1095.3099	0.158826	-422.509497	-422.50223	-422.501286	-422.54088	29.53
 OpenBabel02181911413D

 19 21  0  0  1  0  0  0  0  0999 V2000
   -1.9183   -2.3275   -0.2392 O   0  0  0  0  0  0  0  0  0  0  0  0
   -0.7515   -1.5249   -0.1532 C   0  0  1  0  0  0  0  0  0  0  0  0
   -0.6687   -0.6739   -1.4198 C   0  0  0  0  0  0  0  0  0  0  0  0
    0.3629    0.4385   -1.2498 C   0  0  1  0  0  0  0  0  0  0  0  0
    0.1234    1.5331   -0.1761 C   0  0  2  0  0  0  0  0  0  0  0  0
    1.5760    1.8028   -0.1493 O   0  0  0  0  0  0  0  0  0  0  0  0
    1.4461    0.3339   -0.1298 C   0  0  1  0  0  0  0  0  0  0  0  0
    0.3173    0.4744    0.9410 C   0  0  2  0  0  0  0  0  0  0  0  0
   -0.7281   -0.6288    1.0935 C   0  0  0  0  0  0  0  0  0  0  0  0
   -1.9538   -2.8889    0.5419 H   0  0  0  0  0  0  0  0  0  0  0  0
    0.1467   -2.1655   -0.1218 H   0  0  0  0  0  0  0  0  0  0  0  0
   -0.4204   -1.3099   -2.2753 H   0  0  0  0  0  0  0  0  0  0  0  0
   -1.6576   -0.2445   -1.6246 H   0  0  0  0  0  0  0  0  0  0  0  0
    0.7521    0.8415   -2.1867 H   0  0  0  0  0  0  0  0  0  0  0  0
   -0.5514    2.3907   -0.2031 H   0  0  0  0  0  0  0  0  0  0  0  0
    2.3692   -0.2472   -0.1008 H   0  0  0  0  0  0  0  0  0  0  0  0
    0.6670    0.9049    1.8813 H   0  0  0  0  0  0  0  0  0  0  0  0
   -0.5216   -1.2324    1.9861 H   0  0  0  0  0  0  0  0  0  0  0  0
   -1.7233   -0.1872    1.2332 H   0  0  0  0  0  0  0  0  0  0  0  0
  1  2  1  0  0  0  0
  1 10  1  0  0  0  0
  2 11  1  1  0  0  0
  2  9  1  0  0  0  0
  3  4  1  0  0  0  0
  3  2  1  0  0  0  0
  4 14  1  6  0  0  0
  4  5  1  0  0  0  0
  4  7  1  0  0  0  0
  5 15  1  6  0  0  0
  5  6  1  0  0  0  0
  5  8  1  0  0  0  0
  6  7  1  0  0  0  0
  7 16  1  1  0  0  0
  7  8  1  0  0  0  0
  8  9  1  0  0  0  0
  8 17  1  1  0  0  0
  9 19  1  0  0  0  0
  9 18  1  0  0  0  0
 12  3  1  0  0  0  0
 13  3  1  0  0  0  0
M TOR 0 0 1 2 3
M TOR 1 0 1 2 11
M TOR 2 0 1 2 12
M TOR 3 0 1 8 7
M TOR 4 0 1 8 17
M TOR 5 0 1 8 18
M TOR 6 1 2 3 4
M TOR 7 1 2 3 6
M TOR 8 1 2 3 13
M TOR 9 1 8 7 4
M TOR 10 1 8 7 6
M TOR 11 1 8 7 16
M TOR 12 2 1 0 9
M TOR 13 2 1 8 7
M TOR 14 2 1 8 17
M TOR 15 2 1 8 18
M TOR 16 2 3 4 5
M TOR 17 2 3 4 7
M TOR 18 2 3 4 14
M TOR 19 2 3 6 5
M TOR 20 2 3 6 7
M TOR 21 2 3 6 15
M TOR 22 3 2 1 8
M TOR 23 3 2 1 10
M TOR 24 3 4 5 6
M TOR 25 3 4 7 6
M TOR 26 3 4 7 8
M TOR 27 3 4 7 16
M TOR 28 3 6 7 8
M TOR 29 3 6 7 16
M TOR 30 4 3 2 11
M TOR 31 4 3 2 12
M TOR 32 4 3 6 15
M TOR 33 4 5 6 7
M TOR 34 4 5 6 15
M TOR 35 4 7 6 15
M TOR 36 4 7 8 17
M TOR 37 4 7 8 18
M TOR 38 5 4 3 13
M TOR 39 5 4 7 8
M TOR 40 5 4 7 16
M TOR 41 5 6 3 13
M TOR 42 5 6 7 8
M TOR 43 5 6 7 16
M TOR 44 6 3 2 11
M TOR 45 6 3 2 12
M TOR 46 6 3 4 14
M TOR 47 6 5 4 14
M TOR 48 6 7 4 14
M TOR 49 6 7 8 17
M TOR 50 6 7 8 18
M TOR 51 7 4 3 13
M TOR 52 7 6 3 13
M TOR 53 7 8 1 10
M TOR 54 8 1 0 9
M TOR 55 8 1 2 11
M TOR 56 8 1 2 12
M TOR 57 8 7 4 14
M TOR 58 8 7 6 15
M  END
$$$$
