
     RDKit          3D

 19 21  0  0  0  0  0  0  0  0999 V2000
    1.3961    1.3927    0.0836 C   0  0  0  0  0  0  0  0  0  0  0  0
    1.0425   -0.1009    0.0681 C   0  0  0  0  0  0  0  0  0  0  0  0
    1.7437   -0.8676   -1.0163 C   0  0  0  0  0  0  0  0  0  0  0  0
    3.2341   -1.1778   -1.1864 C   0  0  0  0  0  0  0  0  0  0  0  0
    2.8040   -2.1011   -2.3536 C   0  0  0  0  0  0  0  0  0  0  0  0
    2.3070   -1.1739   -3.3563 O   0  0  0  0  0  0  0  0  0  0  0  0
    1.2051   -0.9353   -2.4869 C   0  0  0  0  0  0  0  0  0  0  0  0
    1.3483   -2.1797   -1.6947 C   0  0  0  0  0  0  0  0  0  0  0  0
    0.4494   -3.1697   -1.4060 O   0  0  0  0  0  0  0  0  0  0  0  0
    0.8653    1.9138    0.8861 H   0  0  0  0  0  0  0  0  0  0  0  0
    2.4693    1.5432    0.2396 H   0  0  0  0  0  0  0  0  0  0  0  0
    1.1300    1.8685   -0.8655 H   0  0  0  0  0  0  0  0  0  0  0  0
    1.2835   -0.5412    1.0457 H   0  0  0  0  0  0  0  0  0  0  0  0
   -0.0418   -0.2222   -0.0556 H   0  0  0  0  0  0  0  0  0  0  0  0
    3.9196   -0.3684   -1.4564 H   0  0  0  0  0  0  0  0  0  0  0  0
    3.6255   -1.7434   -0.3351 H   0  0  0  0  0  0  0  0  0  0  0  0
    3.4310   -2.8921   -2.7594 H   0  0  0  0  0  0  0  0  0  0  0  0
    0.3463   -0.3831   -2.8449 H   0  0  0  0  0  0  0  0  0  0  0  0
    0.6664   -3.5456   -0.5448 H   0  0  0  0  0  0  0  0  0  0  0  0
  1  2  1  0
  2  3  1  0
  3  4  1  0
  4  5  1  0
  5  6  1  0
  6  7  1  0
  7  8  1  0
  8  9  1  0
  7  3  1  0
  8  3  1  0
  8  5  1  0
  1 10  1  0
  1 11  1  0
  1 12  1  0
  2 13  1  0
  2 14  1  0
  4 15  1  0
  4 16  1  0
  5 17  1  0
  7 18  1  0
  9 19  1  0
M  END
$$$$
