gdb 5195	3.5983648	1.3639815	1.3170635	0.5662	73.85	-0.23977	0.06957	0.30934	1053.7648	0.157522	-422.516833	-422.509315	-422.508371	-422.548784	29.811
 OpenBabel02181911423D

 19 21  0  0  1  0  0  0  0  0999 V2000
    1.2325    1.1036    0.3025 C   0  0  0  0  0  0  0  0  0  0  0  0
    0.8084   -0.3276   -0.0511 C   0  0  0  0  0  0  0  0  0  0  0  0
    1.6418   -0.9476   -1.1376 C   0  0  1  0  0  0  0  0  0  0  0  0
    3.1691   -1.1560   -1.0143 C   0  0  0  0  0  0  0  0  0  0  0  0
    3.2126   -2.0899   -2.2344 C   0  0  1  0  0  0  0  0  0  0  0  0
    2.4097   -3.2171   -1.7676 O   0  0  0  0  0  0  0  0  0  0  0  0
    1.2995   -2.3291   -1.8876 C   0  0  2  0  0  0  0  0  0  0  0  0
    1.9345   -1.5092   -3.0069 C   0  0  1  0  0  0  0  0  0  0  0  0
    1.5766   -0.2561   -2.4365 O   0  0  0  0  0  0  0  0  0  0  0  0
    0.5641    1.5310    1.0555 H   0  0  0  0  0  0  0  0  0  0  0  0
    2.2503    1.1314    0.7039 H   0  0  0  0  0  0  0  0  0  0  0  0
    1.2021    1.7433   -0.5839 H   0  0  0  0  0  0  0  0  0  0  0  0
    0.8701   -0.9743    0.8332 H   0  0  0  0  0  0  0  0  0  0  0  0
   -0.2400   -0.3327   -0.3725 H   0  0  0  0  0  0  0  0  0  0  0  0
    3.7039   -0.2125   -1.1361 H   0  0  0  0  0  0  0  0  0  0  0  0
    3.4948   -1.6802   -0.1136 H   0  0  0  0  0  0  0  0  0  0  0  0
    4.1546   -2.3778   -2.6963 H   0  0  0  0  0  0  0  0  0  0  0  0
    0.3073   -2.7743   -1.8355 H   0  0  0  0  0  0  0  0  0  0  0  0
    1.8157   -1.6089   -4.0839 H   0  0  0  0  0  0  0  0  0  0  0  0
  1 11  1  0  0  0  0
  1 10  1  0  0  0  0
  2  1  1  0  0  0  0
  2 13  1  0  0  0  0
  3  4  1  0  0  0  0
  3  2  1  1  0  0  0
  4 16  1  0  0  0  0
  5 17  1  6  0  0  0
  5  6  1  0  0  0  0
  5  4  1  0  0  0  0
  7 18  1  6  0  0  0
  7  6  1  0  0  0  0
  7  3  1  0  0  0  0
  8 19  1  6  0  0  0
  8  9  1  0  0  0  0
  8  5  1  0  0  0  0
  8  7  1  0  0  0  0
  9  3  1  0  0  0  0
 12  1  1  0  0  0  0
 14  2  1  0  0  0  0
 15  4  1  0  0  0  0
M TOR 0 0 1 2 3
M TOR 1 0 1 2 6
M TOR 2 0 1 2 8
M TOR 3 1 2 3 4
M TOR 4 1 2 3 14
M TOR 5 1 2 3 15
M TOR 6 1 2 6 5
M TOR 7 1 2 6 7
M TOR 8 1 2 6 17
M TOR 9 1 2 8 7
M TOR 10 2 1 0 9
M TOR 11 2 1 0 10
M TOR 12 2 1 0 11
M TOR 13 2 3 4 5
M TOR 14 2 3 4 7
M TOR 15 2 3 4 16
M TOR 16 2 6 5 4
M TOR 17 2 6 7 4
M TOR 18 2 6 7 8
M TOR 19 2 6 7 18
M TOR 20 2 8 7 4
M TOR 21 2 8 7 18
M TOR 22 3 2 1 12
M TOR 23 3 2 1 13
M TOR 24 3 2 6 5
M TOR 25 3 2 6 7
M TOR 26 3 2 6 17
M TOR 27 3 2 8 7
M TOR 28 3 4 5 6
M TOR 29 3 4 7 6
M TOR 30 3 4 7 8
M TOR 31 3 4 7 18
M TOR 32 4 3 2 6
M TOR 33 4 3 2 8
M TOR 34 4 5 6 7
M TOR 35 4 5 6 17
M TOR 36 4 7 6 17
M TOR 37 5 4 3 14
M TOR 38 5 4 3 15
M TOR 39 5 4 7 8
M TOR 40 5 4 7 18
M TOR 41 5 6 2 8
M TOR 42 5 6 7 8
M TOR 43 5 6 7 18
M TOR 44 6 2 1 12
M TOR 45 6 2 1 13
M TOR 46 6 2 3 14
M TOR 47 6 2 3 15
M TOR 48 6 5 4 16
M TOR 49 6 7 4 16
M TOR 50 7 4 3 14
M TOR 51 7 4 3 15
M TOR 52 8 2 1 12
M TOR 53 8 2 1 13
M TOR 54 8 2 3 14
M TOR 55 8 2 3 15
M TOR 56 8 2 6 17
M TOR 57 8 7 4 16
M TOR 58 8 7 6 17
M  END
$$$$
