
     RDKit          3D

 19 20  0  0  0  0  0  0  0  0999 V2000
    1.6466    0.4519    0.0511 O   0  0  0  0  0  0  0  0  0  0  0  0
    0.2645    0.1892   -0.1084 C   0  0  0  0  0  0  0  0  0  0  0  0
   -0.0947    0.0812   -1.5847 C   0  0  0  0  0  0  0  0  0  0  0  0
    0.3202    1.2936   -2.2497 O   0  0  0  0  0  0  0  0  0  0  0  0
   -0.8482    1.7687   -2.9913 C   0  0  0  0  0  0  0  0  0  0  0  0
   -1.4841    0.4455   -3.4402 C   0  0  0  0  0  0  0  0  0  0  0  0
   -1.6063   -0.0394   -1.9679 C   0  0  0  0  0  0  0  0  0  0  0  0
   -2.3177    1.1545   -1.3516 C   0  0  0  0  0  0  0  0  0  0  0  0
   -1.8669    2.2521   -1.9703 C   0  0  0  0  0  0  0  0  0  0  0  0
    1.8324    1.2093   -0.5174 H   0  0  0  0  0  0  0  0  0  0  0  0
    0.0615   -0.7611    0.3988 H   0  0  0  0  0  0  0  0  0  0  0  0
   -0.3481    0.9694    0.3659 H   0  0  0  0  0  0  0  0  0  0  0  0
    0.4644   -0.7576   -2.0221 H   0  0  0  0  0  0  0  0  0  0  0  0
   -0.5001    2.4739   -3.7437 H   0  0  0  0  0  0  0  0  0  0  0  0
   -2.4531    0.5675   -3.9259 H   0  0  0  0  0  0  0  0  0  0  0  0
   -0.8152   -0.1606   -4.0574 H   0  0  0  0  0  0  0  0  0  0  0  0
   -2.0356   -1.0245   -1.7891 H   0  0  0  0  0  0  0  0  0  0  0  0
   -2.9829    1.1037   -0.4989 H   0  0  0  0  0  0  0  0  0  0  0  0
   -2.0746    3.2867   -1.7305 H   0  0  0  0  0  0  0  0  0  0  0  0
  1  2  1  0
  2  3  1  0
  3  4  1  0
  4  5  1  0
  5  6  1  0
  6  7  1  0
  7  8  1  0
  8  9  2  0
  7  3  1  0
  9  5  1  0
  1 10  1  0
  2 11  1  0
  2 12  1  0
  3 13  1  0
  5 14  1  0
  6 15  1  0
  6 16  1  0
  7 17  1  0
  8 18  1  0
  9 19  1  0
M  END
$$$$
