
     RDKit          3D

 19 21  0  0  0  0  0  0  0  0999 V2000
    1.1711    3.8977    0.6800 C   0  0  0  0  0  0  0  0  0  0  0  0
    0.4407    3.4315   -0.6319 C   0  0  0  0  0  0  0  0  0  0  0  0
    0.8527    1.9603   -0.5376 C   0  0  0  0  0  0  0  0  0  0  0  0
    0.5144    0.7671   -1.3913 C   0  0  0  0  0  0  0  0  0  0  0  0
    0.4147   -0.3325   -0.4807 O   0  0  0  0  0  0  0  0  0  0  0  0
    0.8862    0.0496    0.8241 C   0  0  0  0  0  0  0  0  0  0  0  0
    0.6233    1.5512    0.9365 C   0  0  0  0  0  0  0  0  0  0  0  0
    1.8051    2.5353    1.0651 C   0  0  0  0  0  0  0  0  0  0  0  0
    2.2924    2.0736   -0.2292 O   0  0  0  0  0  0  0  0  0  0  0  0
    1.9403    4.6487    0.4900 H   0  0  0  0  0  0  0  0  0  0  0  0
    0.4846    4.2840    1.4386 H   0  0  0  0  0  0  0  0  0  0  0  0
   -0.6426    3.5737   -0.5999 H   0  0  0  0  0  0  0  0  0  0  0  0
    0.8354    3.9160   -1.5273 H   0  0  0  0  0  0  0  0  0  0  0  0
   -0.4467    0.8856   -1.9070 H   0  0  0  0  0  0  0  0  0  0  0  0
    1.2964    0.5847   -2.1400 H   0  0  0  0  0  0  0  0  0  0  0  0
    0.3231   -0.5416    1.5510 H   0  0  0  0  0  0  0  0  0  0  0  0
    1.9536   -0.1808    0.9261 H   0  0  0  0  0  0  0  0  0  0  0  0
   -0.3274    1.8069    1.4111 H   0  0  0  0  0  0  0  0  0  0  0  0
    2.5474    2.5077    1.8635 H   0  0  0  0  0  0  0  0  0  0  0  0
  1  2  1  0
  2  3  1  0
  3  4  1  0
  4  5  1  0
  5  6  1  0
  6  7  1  0
  7  8  1  0
  8  9  1  0
  8  1  1  0
  7  3  1  0
  9  3  1  0
  1 10  1  0
  1 11  1  0
  2 12  1  0
  2 13  1  0
  4 14  1  0
  4 15  1  0
  6 16  1  0
  6 17  1  0
  7 18  1  0
  8 19  1  0
M  END
$$$$
