gdb 5858	2.1185456	1.3632606	0.8809116	2.6164	77.54	-0.2511	0.04488	0.29598	1306.8454	0.156391	-422.530412	-422.521043	-422.520099	-422.565841	33.881
 OpenBabel02181911423D

 19 19  0  0  1  0  0  0  0  0999 V2000
    0.9691    1.0610   -0.2969 O   0  0  0  0  0  0  0  0  0  0  0  0
   -0.0688    0.1937    0.1089 C   0  0  0  0  0  0  0  0  0  0  0  0
   -0.8294    0.7608    1.2999 C   0  0  2  0  0  0  0  0  0  0  0  0
    0.1143    0.9892    2.3526 O   0  0  0  0  0  0  0  0  0  0  0  0
   -0.4053    0.5482    3.6088 C   0  0  0  0  0  0  0  0  0  0  0  0
   -1.8914    0.2604    3.3815 C   0  0  0  0  0  0  0  0  0  0  0  0
   -1.9046   -0.1757    1.8982 C   0  0  1  0  0  0  0  0  0  0  0  0
   -3.1977   -0.0937    1.2410 C   0  0  0  0  0  0  0  0  0  0  0  0
   -4.2637   -0.0123    0.6915 C   0  0  0  0  0  0  0  0  0  0  0  0
    1.4761    1.2564    0.5002 H   0  0  0  0  0  0  0  0  0  0  0  0
   -0.7454    0.0762   -0.7440 H   0  0  0  0  0  0  0  0  0  0  0  0
    0.3190   -0.8036    0.3779 H   0  0  0  0  0  0  0  0  0  0  0  0
   -1.2862    1.7189    1.0135 H   0  0  0  0  0  0  0  0  0  0  0  0
    0.1321   -0.3556    3.9296 H   0  0  0  0  0  0  0  0  0  0  0  0
   -0.2333    1.3280    4.3584 H   0  0  0  0  0  0  0  0  0  0  0  0
   -2.2896   -0.5038    4.0522 H   0  0  0  0  0  0  0  0  0  0  0  0
   -2.4906    1.1677    3.5002 H   0  0  0  0  0  0  0  0  0  0  0  0
   -1.5331   -1.2082    1.8348 H   0  0  0  0  0  0  0  0  0  0  0  0
   -5.2057    0.0543    0.2059 H   0  0  0  0  0  0  0  0  0  0  0  0
  1  2  1  0  0  0  0
  1 10  1  0  0  0  0
  2 12  1  0  0  0  0
  2  3  1  0  0  0  0
  3 13  1  6  0  0  0
  3  7  1  0  0  0  0
  3  4  1  0  0  0  0
  4  5  1  0  0  0  0
  5 14  1  0  0  0  0
  5 15  1  0  0  0  0
  6 17  1  0  0  0  0
  6  5  1  0  0  0  0
  6 16  1  0  0  0  0
  7 18  1  6  0  0  0
  7  6  1  0  0  0  0
  8  7  1  0  0  0  0
  9  8  3  0  0  0  0
 11  2  1  0  0  0  0
 19  9  1  0  0  0  0
M TOR 0 0 1 2 3
M TOR 1 0 1 2 6
M TOR 2 0 1 2 12
M TOR 3 1 2 3 4
M TOR 4 1 2 6 5
M TOR 5 1 2 6 7
M TOR 6 1 2 6 17
M TOR 7 2 1 0 9
M TOR 8 2 3 4 5
M TOR 9 2 3 4 13
M TOR 10 2 3 4 14
M TOR 11 2 6 5 4
M TOR 12 2 6 5 15
M TOR 13 2 6 5 16
M TOR 14 2 6 7 8
M TOR 15 3 2 1 10
M TOR 16 3 2 1 11
M TOR 17 3 2 6 5
M TOR 18 3 2 6 7
M TOR 19 3 2 6 17
M TOR 20 3 4 5 6
M TOR 21 3 4 5 15
M TOR 22 3 4 5 16
M TOR 23 4 3 2 6
M TOR 24 4 3 2 12
M TOR 25 4 5 6 7
M TOR 26 4 5 6 17
M TOR 27 5 6 2 12
M TOR 28 5 6 7 8
M TOR 29 6 2 1 10
M TOR 30 6 2 1 11
M TOR 31 6 5 4 13
M TOR 32 6 5 4 14
M TOR 33 6 7 8 18
M TOR 34 7 6 2 12
M TOR 35 7 6 5 15
M TOR 36 7 6 5 16
M TOR 37 8 7 6 17
M  END
$$$$
