
     RDKit          3D

 19 19  0  0  0  0  0  0  0  0999 V2000
    2.6412   -3.0174    0.7673 C   0  0  0  0  0  0  0  0  0  0  0  0
    2.6171   -1.6098    0.2050 C   0  0  0  0  0  0  0  0  0  0  0  0
    1.2414   -0.9485    0.3286 C   0  0  0  0  0  0  0  0  0  0  0  0
    0.3110   -1.6234   -0.4954 O   0  0  0  0  0  0  0  0  0  0  0  0
    2.9889   -1.5938   -1.2109 O   0  0  0  0  0  0  0  0  0  0  0  0
    3.9733   -0.5652   -0.9945 C   0  0  0  0  0  0  0  0  0  0  0  0
    3.8415   -0.6943    0.5455 C   0  0  0  0  0  0  0  0  0  0  0  0
    3.6541    0.5021    1.3377 C   0  0  0  0  0  0  0  0  0  0  0  0
    3.5055    1.5004    1.9918 C   0  0  0  0  0  0  0  0  0  0  0  0
    2.5271   -2.9901    1.8565 H   0  0  0  0  0  0  0  0  0  0  0  0
    1.8137   -3.5965    0.3494 H   0  0  0  0  0  0  0  0  0  0  0  0
    3.5832   -3.5159    0.5241 H   0  0  0  0  0  0  0  0  0  0  0  0
    0.8723   -1.0092    1.3573 H   0  0  0  0  0  0  0  0  0  0  0  0
    1.3169    0.1163    0.0644 H   0  0  0  0  0  0  0  0  0  0  0  0
    0.7204   -1.6571   -1.3700 H   0  0  0  0  0  0  0  0  0  0  0  0
    4.9454   -0.8308   -1.4214 H   0  0  0  0  0  0  0  0  0  0  0  0
    3.6553    0.4081   -1.3854 H   0  0  0  0  0  0  0  0  0  0  0  0
    4.6554   -1.2948    0.9623 H   0  0  0  0  0  0  0  0  0  0  0  0
    3.3725    2.3806    2.5710 H   0  0  0  0  0  0  0  0  0  0  0  0
  1  2  1  0
  2  3  1  0
  3  4  1  0
  2  5  1  0
  5  6  1  0
  6  7  1  0
  7  8  1  0
  8  9  3  0
  7  2  1  0
  1 10  1  0
  1 11  1  0
  1 12  1  0
  3 13  1  0
  3 14  1  0
  4 15  1  0
  6 16  1  0
  6 17  1  0
  7 18  1  0
  9 19  1  0
M  END
$$$$
