gdb 3029	2.5614127	1.8103908	1.3522792	1.1527	75.13	-0.23589	0.00373	0.23962	1002.5376	0.157226	-422.556339	-422.548332	-422.547387	-422.588145	32.049
 OpenBabel02181911413D

 19 20  0  0  1  0  0  0  0  0999 V2000
    1.2044    1.0547   -3.0464 C   0  0  0  0  0  0  0  0  0  0  0  0
    0.1948    0.2921   -2.2245 C   0  0  2  0  0  0  0  0  0  0  0  0
   -0.6380   -0.7182   -3.0390 C   0  0  0  0  0  0  0  0  0  0  0  0
   -1.7195   -1.3180   -2.1685 C   0  0  0  0  0  0  0  0  0  0  0  0
   -1.8234   -0.9099   -0.9045 C   0  0  0  0  0  0  0  0  0  0  0  0
   -0.8307    0.1388   -0.4677 C   0  0  2  0  0  0  0  0  0  0  0  0
   -0.7367    1.1744   -1.5024 O   0  0  0  0  0  0  0  0  0  0  0  0
    0.6079   -0.3019   -0.8388 C   0  0  2  0  0  0  0  0  0  0  0  0
    1.6252    0.4094   -0.1838 O   0  0  0  0  0  0  0  0  0  0  0  0
    1.8519    1.6664   -2.4145 H   0  0  0  0  0  0  0  0  0  0  0  0
    1.8365    0.3635   -3.6135 H   0  0  0  0  0  0  0  0  0  0  0  0
    0.6887    1.7088   -3.7571 H   0  0  0  0  0  0  0  0  0  0  0  0
   -1.0786   -0.2162   -3.9118 H   0  0  0  0  0  0  0  0  0  0  0  0
    0.0193   -1.5033   -3.4375 H   0  0  0  0  0  0  0  0  0  0  0  0
   -2.3908   -2.0537   -2.6013 H   0  0  0  0  0  0  0  0  0  0  0  0
   -2.5599   -1.2981   -0.2097 H   0  0  0  0  0  0  0  0  0  0  0  0
   -1.0030    0.5603    0.5251 H   0  0  0  0  0  0  0  0  0  0  0  0
    0.8578   -1.3624   -0.7735 H   0  0  0  0  0  0  0  0  0  0  0  0
    1.3667    1.3396   -0.1909 H   0  0  0  0  0  0  0  0  0  0  0  0
  1 10  1  0  0  0  0
  2  1  1  6  0  0  0
  2  7  1  0  0  0  0
  2  8  1  0  0  0  0
  3  2  1  0  0  0  0
  3  4  1  0  0  0  0
  4  5  2  0  0  0  0
  5  6  1  0  0  0  0
  5 16  1  0  0  0  0
  6 17  1  1  0  0  0
  7  6  1  0  0  0  0
  8 18  1  6  0  0  0
  8  6  1  0  0  0  0
  8  9  1  0  0  0  0
 11  1  1  0  0  0  0
 12  1  1  0  0  0  0
 13  3  1  0  0  0  0
 14  3  1  0  0  0  0
 15  4  1  0  0  0  0
 19  9  1  0  0  0  0
M TOR 0 0 1 2 3
M TOR 1 0 1 2 12
M TOR 2 0 1 2 13
M TOR 3 0 1 6 5
M TOR 4 0 1 7 5
M TOR 5 0 1 7 8
M TOR 6 0 1 7 17
M TOR 7 1 2 3 4
M TOR 8 1 2 3 14
M TOR 9 1 6 5 4
M TOR 10 1 6 5 7
M TOR 11 1 6 5 16
M TOR 12 1 7 5 4
M TOR 13 1 7 5 16
M TOR 14 1 7 8 18
M TOR 15 2 1 0 9
M TOR 16 2 1 0 10
M TOR 17 2 1 0 11
M TOR 18 2 1 6 5
M TOR 19 2 1 7 5
M TOR 20 2 1 7 8
M TOR 21 2 1 7 17
M TOR 22 2 3 4 5
M TOR 23 2 3 4 15
M TOR 24 3 2 1 6
M TOR 25 3 2 1 7
M TOR 26 3 4 5 6
M TOR 27 3 4 5 7
M TOR 28 3 4 5 16
M TOR 29 4 3 2 12
M TOR 30 4 3 2 13
M TOR 31 4 5 7 8
M TOR 32 4 5 7 17
M TOR 33 5 4 3 14
M TOR 34 5 7 8 18
M TOR 35 6 1 0 9
M TOR 36 6 1 0 10
M TOR 37 6 1 0 11
M TOR 38 6 1 2 12
M TOR 39 6 1 2 13
M TOR 40 6 1 7 8
M TOR 41 6 1 7 17
M TOR 42 6 5 4 15
M TOR 43 6 5 7 8
M TOR 44 6 5 7 17
M TOR 45 7 1 0 9
M TOR 46 7 1 0 10
M TOR 47 7 1 0 11
M TOR 48 7 1 2 12
M TOR 49 7 1 2 13
M TOR 50 7 5 4 15
M TOR 51 8 7 5 16
M  END
$$$$
