
     RDKit          3D

 19 20  0  0  0  0  0  0  0  0999 V2000
   -0.6966   -0.1488    2.4510 C   0  0  0  0  0  0  0  0  0  0  0  0
   -1.3619   -0.5861    1.1527 C   0  0  0  0  0  0  0  0  0  0  0  0
   -2.3362   -1.5804    1.4308 O   0  0  0  0  0  0  0  0  0  0  0  0
   -1.8599    0.4642    0.0932 C   0  0  0  0  0  0  0  0  0  0  0  0
   -1.7042   -0.6747   -0.9579 C   0  0  0  0  0  0  0  0  0  0  0  0
   -0.4866   -1.0819   -0.0539 C   0  0  0  0  0  0  0  0  0  0  0  0
    0.4083    0.1280   -0.2742 C   0  0  0  0  0  0  0  0  0  0  0  0
    1.5929    0.1764   -0.4676 O   0  0  0  0  0  0  0  0  0  0  0  0
   -0.6001    1.3015   -0.1892 C   0  0  0  0  0  0  0  0  0  0  0  0
   -0.3213   -1.0298    2.9798 H   0  0  0  0  0  0  0  0  0  0  0  0
    0.1394    0.5374    2.2990 H   0  0  0  0  0  0  0  0  0  0  0  0
   -1.4237    0.3508    3.1037 H   0  0  0  0  0  0  0  0  0  0  0  0
   -2.9780   -1.1981    2.0394 H   0  0  0  0  0  0  0  0  0  0  0  0
   -2.8034    0.9936    0.2353 H   0  0  0  0  0  0  0  0  0  0  0  0
   -2.4998   -1.4133   -0.9157 H   0  0  0  0  0  0  0  0  0  0  0  0
   -1.4895   -0.3834   -1.9891 H   0  0  0  0  0  0  0  0  0  0  0  0
   -0.0218   -2.0652   -0.0662 H   0  0  0  0  0  0  0  0  0  0  0  0
   -0.3213    2.0148    0.5908 H   0  0  0  0  0  0  0  0  0  0  0  0
   -0.6517    1.8442   -1.1385 H   0  0  0  0  0  0  0  0  0  0  0  0
  1  2  1  0
  2  3  1  0
  2  4  1  0
  4  5  1  0
  5  6  1  0
  6  7  1  0
  7  8  2  0
  7  9  1  0
  6  2  1  0
  9  4  1  0
  1 10  1  0
  1 11  1  0
  1 12  1  0
  3 13  1  0
  4 14  1  0
  5 15  1  0
  5 16  1  0
  6 17  1  0
  9 18  1  0
  9 19  1  0
M  END
$$$$
