
     RDKit          3D

 19 20  0  0  0  0  0  0  0  0999 V2000
    3.0189   -3.0646   -0.0218 C   0  0  0  0  0  0  0  0  0  0  0  0
    2.3374   -2.7875   -1.3674 C   0  0  0  0  0  0  0  0  0  0  0  0
    1.3607   -1.6409   -1.2840 C   0  0  0  0  0  0  0  0  0  0  0  0
    1.9272   -0.3163   -1.1919 O   0  0  0  0  0  0  0  0  0  0  0  0
    1.1814   -0.6512   -2.3474 C   0  0  0  0  0  0  0  0  0  0  0  0
    1.7650   -0.6162   -3.7719 C   0  0  0  0  0  0  0  0  0  0  0  0
    0.4320    0.0198   -4.2198 C   0  0  0  0  0  0  0  0  0  0  0  0
   -0.0326    0.2992   -5.2848 O   0  0  0  0  0  0  0  0  0  0  0  0
   -0.0886    0.1083   -2.7706 C   0  0  0  0  0  0  0  0  0  0  0  0
    3.7287   -3.8927   -0.1035 H   0  0  0  0  0  0  0  0  0  0  0  0
    3.5629   -2.1797    0.3209 H   0  0  0  0  0  0  0  0  0  0  0  0
    2.2848   -3.3270    0.7477 H   0  0  0  0  0  0  0  0  0  0  0  0
    3.0913   -2.5593   -2.1287 H   0  0  0  0  0  0  0  0  0  0  0  0
    1.7977   -3.6811   -1.7076 H   0  0  0  0  0  0  0  0  0  0  0  0
    0.5207   -1.7956   -0.6019 H   0  0  0  0  0  0  0  0  0  0  0  0
    2.6178    0.0630   -3.8767 H   0  0  0  0  0  0  0  0  0  0  0  0
    2.0133   -1.5697   -4.2465 H   0  0  0  0  0  0  0  0  0  0  0  0
   -0.1216    1.1368   -2.3947 H   0  0  0  0  0  0  0  0  0  0  0  0
   -1.0552   -0.3675   -2.5831 H   0  0  0  0  0  0  0  0  0  0  0  0
  1  2  1  0
  2  3  1  0
  3  4  1  0
  4  5  1  0
  5  6  1  0
  6  7  1  0
  7  8  2  0
  7  9  1  0
  5  3  1  0
  9  5  1  0
  1 10  1  0
  1 11  1  0
  1 12  1  0
  2 13  1  0
  2 14  1  0
  3 15  1  0
  6 16  1  0
  6 17  1  0
  9 18  1  0
  9 19  1  0
M  END
$$$$
