
     RDKit          3D

 19 20  0  0  0  0  0  0  0  0999 V2000
   -4.1049   -0.8113   -1.3649 C   0  0  0  0  0  0  0  0  0  0  0  0
   -2.6624   -0.3061   -1.3151 C   0  0  0  0  0  0  0  0  0  0  0  0
   -1.6143   -1.4658   -1.2733 C   0  0  0  0  0  0  0  0  0  0  0  0
   -0.9161   -1.2046    0.0855 C   0  0  0  0  0  0  0  0  0  0  0  0
   -1.9711   -0.6691    0.8929 O   0  0  0  0  0  0  0  0  0  0  0  0
   -2.3386    0.4180    0.0186 C   0  0  0  0  0  0  0  0  0  0  0  0
   -1.0157    1.1979   -0.0893 C   0  0  0  0  0  0  0  0  0  0  0  0
   -0.0173    0.0253   -0.1124 C   0  0  0  0  0  0  0  0  0  0  0  0
    1.1721    0.0616   -0.2728 O   0  0  0  0  0  0  0  0  0  0  0  0
   -4.3226   -1.4245   -0.4843 H   0  0  0  0  0  0  0  0  0  0  0  0
   -4.8186    0.0193   -1.3874 H   0  0  0  0  0  0  0  0  0  0  0  0
   -4.2778   -1.4248   -2.2549 H   0  0  0  0  0  0  0  0  0  0  0  0
   -2.4778    0.3587   -2.1649 H   0  0  0  0  0  0  0  0  0  0  0  0
   -2.1090   -2.4402   -1.2533 H   0  0  0  0  0  0  0  0  0  0  0  0
   -0.9169   -1.4558   -2.1147 H   0  0  0  0  0  0  0  0  0  0  0  0
   -0.4396   -2.0558    0.5673 H   0  0  0  0  0  0  0  0  0  0  0  0
   -3.1707    0.9664    0.4603 H   0  0  0  0  0  0  0  0  0  0  0  0
   -0.9048    1.8338   -0.9709 H   0  0  0  0  0  0  0  0  0  0  0  0
   -0.8445    1.8086    0.8026 H   0  0  0  0  0  0  0  0  0  0  0  0
  1  2  1  0
  2  3  1  0
  3  4  1  0
  4  5  1  0
  5  6  1  0
  6  7  1  0
  7  8  1  0
  8  9  2  0
  6  2  1  0
  8  4  1  0
  1 10  1  0
  1 11  1  0
  1 12  1  0
  2 13  1  0
  3 14  1  0
  3 15  1  0
  4 16  1  0
  6 17  1  0
  7 18  1  0
  7 19  1  0
M  END
$$$$
