
     RDKit          3D

 19 21  0  0  0  0  0  0  0  0999 V2000
    0.7237    0.1816    0.3764 O   0  0  0  0  0  0  0  0  0  0  0  0
   -0.4086    0.5612    1.1420 C   0  0  0  0  0  0  0  0  0  0  0  0
   -1.6105   -0.3653    0.7906 C   0  0  0  0  0  0  0  0  0  0  0  0
   -1.1959   -1.2700    1.8816 O   0  0  0  0  0  0  0  0  0  0  0  0
   -0.5246   -0.1461    2.4859 C   0  0  0  0  0  0  0  0  0  0  0  0
   -1.2607    0.8569    3.4023 C   0  0  0  0  0  0  0  0  0  0  0  0
    0.0414    1.6565    3.1351 C   0  0  0  0  0  0  0  0  0  0  0  0
    0.7894    0.2510    3.1878 C   0  0  0  0  0  0  0  0  0  0  0  0
   -0.1751    2.0102    1.6223 C   0  0  0  0  0  0  0  0  0  0  0  0
    0.7512   -0.7837    0.3576 H   0  0  0  0  0  0  0  0  0  0  0  0
   -2.6123    0.0367    0.9709 H   0  0  0  0  0  0  0  0  0  0  0  0
   -1.5649   -0.8597   -0.1833 H   0  0  0  0  0  0  0  0  0  0  0  0
   -2.2059    1.2916    3.0665 H   0  0  0  0  0  0  0  0  0  0  0  0
   -1.3495    0.4923    4.4278 H   0  0  0  0  0  0  0  0  0  0  0  0
    0.3614    2.4549    3.8024 H   0  0  0  0  0  0  0  0  0  0  0  0
    1.7142    0.1288    2.6244 H   0  0  0  0  0  0  0  0  0  0  0  0
    0.8966   -0.0872    4.2201 H   0  0  0  0  0  0  0  0  0  0  0  0
   -1.0216    2.6906    1.4998 H   0  0  0  0  0  0  0  0  0  0  0  0
    0.6963    2.4361    1.1227 H   0  0  0  0  0  0  0  0  0  0  0  0
  1  2  1  0
  2  3  1  0
  3  4  1  0
  4  5  1  0
  5  6  1  0
  6  7  1  0
  7  8  1  0
  7  9  1  0
  5  2  1  0
  8  5  1  0
  9  2  1  0
  1 10  1  0
  3 11  1  0
  3 12  1  0
  6 13  1  0
  6 14  1  0
  7 15  1  0
  8 16  1  0
  8 17  1  0
  9 18  1  0
  9 19  1  0
M  END
$$$$
