gdb 3046	2.5737554	1.8669445	1.439453	1.0949	74.76	-0.24709	0.05237	0.29946	974.6621	0.157776	-422.473845	-422.466467	-422.465523	-422.505151	29.872
 OpenBabel02181911413D

 19 21  0  0  1  0  0  0  0  0999 V2000
    0.8518   -0.5982   -0.8842 C   0  0  0  0  0  0  0  0  0  0  0  0
    0.9929    0.1598    0.4277 C   0  0  1  0  0  0  0  0  0  0  0  0
    2.1002   -0.3092    1.3872 C   0  0  2  0  0  0  0  0  0  0  0  0
    1.8348    0.6531    2.6089 C   0  0  0  0  0  0  0  0  0  0  0  0
    1.9394    1.9476    1.7631 C   0  0  2  0  0  0  0  0  0  0  0  0
    0.9509    2.9074    1.2329 O   0  0  0  0  0  0  0  0  0  0  0  0
    1.5459    2.7214   -0.0998 C   0  0  0  0  0  0  0  0  0  0  0  0
    1.9921    1.3371    0.3980 C   0  0  2  0  0  0  0  0  0  0  0  0
    3.0924    0.3777    0.5037 O   0  0  0  0  0  0  0  0  0  0  0  0
    0.3334   -1.5500   -0.7270 H   0  0  0  0  0  0  0  0  0  0  0  0
    0.2637   -0.0219   -1.6067 H   0  0  0  0  0  0  0  0  0  0  0  0
    1.8307   -0.8056   -1.3223 H   0  0  0  0  0  0  0  0  0  0  0  0
    0.0196    0.3712    0.8788 H   0  0  0  0  0  0  0  0  0  0  0  0
    2.3587   -1.3516    1.5712 H   0  0  0  0  0  0  0  0  0  0  0  0
    0.8650    0.4415    3.0638 H   0  0  0  0  0  0  0  0  0  0  0  0
    2.6046    0.6185    3.3817 H   0  0  0  0  0  0  0  0  0  0  0  0
    2.8438    2.5099    2.0199 H   0  0  0  0  0  0  0  0  0  0  0  0
    0.7965    2.7690   -0.8943 H   0  0  0  0  0  0  0  0  0  0  0  0
    2.3531    3.4420   -0.2785 H   0  0  0  0  0  0  0  0  0  0  0  0
  1 10  1  0  0  0  0
  1  2  1  0  0  0  0
  2 13  1  1  0  0  0
  2  3  1  0  0  0  0
  3 14  1  1  0  0  0
  3  4  1  0  0  0  0
  4 15  1  0  0  0  0
  4 16  1  0  0  0  0
  5 17  1  1  0  0  0
  5  4  1  0  0  0  0
  6  5  1  0  0  0  0
  7  8  1  0  0  0  0
  7  6  1  0  0  0  0
  8  2  1  0  0  0  0
  8  9  1  6  0  0  0
  8  5  1  0  0  0  0
  9  3  1  0  0  0  0
 11  1  1  0  0  0  0
 12  1  1  0  0  0  0
 18  7  1  0  0  0  0
 19  7  1  0  0  0  0
M TOR 0 0 1 2 3
M TOR 1 0 1 2 8
M TOR 2 0 1 2 13
M TOR 3 0 1 7 4
M TOR 4 0 1 7 6
M TOR 5 0 1 7 8
M TOR 6 1 2 3 4
M TOR 7 1 2 3 14
M TOR 8 1 2 3 15
M TOR 9 1 2 8 7
M TOR 10 1 7 4 3
M TOR 11 1 7 4 5
M TOR 12 1 7 4 16
M TOR 13 1 7 6 5
M TOR 14 1 7 6 17
M TOR 15 1 7 6 18
M TOR 16 2 1 0 9
M TOR 17 2 1 0 10
M TOR 18 2 1 0 11
M TOR 19 2 1 7 4
M TOR 20 2 1 7 6
M TOR 21 2 3 4 5
M TOR 22 2 3 4 7
M TOR 23 2 3 4 16
M TOR 24 2 8 7 4
M TOR 25 2 8 7 6
M TOR 26 3 2 1 7
M TOR 27 3 2 1 12
M TOR 28 3 2 8 7
M TOR 29 3 4 5 6
M TOR 30 3 4 7 6
M TOR 31 3 4 7 8
M TOR 32 4 3 2 8
M TOR 33 4 3 2 13
M TOR 34 4 5 6 7
M TOR 35 4 5 6 17
M TOR 36 4 5 6 18
M TOR 37 4 7 1 12
M TOR 38 4 7 6 17
M TOR 39 4 7 6 18
M TOR 40 5 4 3 14
M TOR 41 5 4 3 15
M TOR 42 5 4 7 8
M TOR 43 5 6 7 8
M TOR 44 6 5 4 16
M TOR 45 6 7 1 12
M TOR 46 6 7 4 16
M TOR 47 7 1 0 9
M TOR 48 7 1 0 10
M TOR 49 7 1 0 11
M TOR 50 7 1 2 13
M TOR 51 7 4 3 14
M TOR 52 7 4 3 15
M TOR 53 7 8 2 13
M TOR 54 8 2 1 12
M TOR 55 8 2 3 14
M TOR 56 8 2 3 15
M TOR 57 8 7 1 12
M TOR 58 8 7 4 16
M TOR 59 8 7 6 17
M TOR 60 8 7 6 18
M  END
$$$$
