gdb 5819	3.038554	1.1717829	1.0802872	2.2234	78.13	-0.24225	-0.05737	0.18488	1191.8332	0.15738	-422.574835	-422.566117	-422.565172	-422.608473	32.171
 OpenBabel02181911423D

 19 19  0  0  1  0  0  0  0  0999 V2000
    1.4424   -0.1316   -0.2194 C   0  0  0  0  0  0  0  0  0  0  0  0
    0.0507   -0.0321    0.0085 O   0  0  0  0  0  0  0  0  0  0  0  0
   -0.3673    0.6645    1.1826 C   0  0  2  0  0  0  0  0  0  0  0  0
    0.0387    2.1508    1.2510 C   0  0  0  0  0  0  0  0  0  0  0  0
    1.3596    2.4263    1.9847 C   0  0  0  0  0  0  0  0  0  0  0  0
    1.4537    1.7091    3.3244 C   0  0  0  0  0  0  0  0  0  0  0  0
    2.0652    2.1681    4.2676 O   0  0  0  0  0  0  0  0  0  0  0  0
    0.8073    0.3772    3.3956 C   0  0  0  0  0  0  0  0  0  0  0  0
    0.0158   -0.0995    2.4279 C   0  0  0  0  0  0  0  0  0  0  0  0
    1.9865   -0.5072    0.6577 H   0  0  0  0  0  0  0  0  0  0  0  0
    1.5718   -0.8408   -1.0408 H   0  0  0  0  0  0  0  0  0  0  0  0
    1.8833    0.8287   -0.5224 H   0  0  0  0  0  0  0  0  0  0  0  0
   -1.4599    0.6241    1.0963 H   0  0  0  0  0  0  0  0  0  0  0  0
    0.0619    2.5544    0.2339 H   0  0  0  0  0  0  0  0  0  0  0  0
   -0.7638    2.6811    1.7769 H   0  0  0  0  0  0  0  0  0  0  0  0
    2.2164    2.0841    1.3905 H   0  0  0  0  0  0  0  0  0  0  0  0
    1.5076    3.4954    2.1572 H   0  0  0  0  0  0  0  0  0  0  0  0
    1.0220   -0.1954    4.2935 H   0  0  0  0  0  0  0  0  0  0  0  0
   -0.4005   -1.1018    2.5055 H   0  0  0  0  0  0  0  0  0  0  0  0
  1  2  1  0  0  0  0
  1 10  1  0  0  0  0
  2  3  1  0  0  0  0
  3 13  1  6  0  0  0
  3  4  1  0  0  0  0
  3  9  1  0  0  0  0
  4 15  1  0  0  0  0
  4  5  1  0  0  0  0
  5 17  1  0  0  0  0
  5  6  1  0  0  0  0
  6  8  1  0  0  0  0
  6  7  2  0  0  0  0
  8 18  1  0  0  0  0
  9 19  1  0  0  0  0
  9  8  2  0  0  0  0
 11  1  1  0  0  0  0
 12  1  1  0  0  0  0
 14  4  1  0  0  0  0
 16  5  1  0  0  0  0
M TOR 0 0 1 2 3
M TOR 1 0 1 2 8
M TOR 2 0 1 2 12
M TOR 3 1 2 3 4
M TOR 4 1 2 3 13
M TOR 5 1 2 3 14
M TOR 6 1 2 8 7
M TOR 7 1 2 8 18
M TOR 8 2 1 0 9
M TOR 9 2 1 0 10
M TOR 10 2 1 0 11
M TOR 11 2 3 4 5
M TOR 12 2 3 4 15
M TOR 13 2 3 4 16
M TOR 14 2 8 7 5
M TOR 15 2 8 7 17
M TOR 16 3 2 8 7
M TOR 17 3 2 8 18
M TOR 18 3 4 5 6
M TOR 19 3 4 5 7
M TOR 20 4 3 2 8
M TOR 21 4 3 2 12
M TOR 22 4 5 7 8
M TOR 23 4 5 7 17
M TOR 24 5 4 3 13
M TOR 25 5 4 3 14
M TOR 26 5 7 8 18
M TOR 27 6 5 4 15
M TOR 28 6 5 4 16
M TOR 29 6 5 7 8
M TOR 30 6 5 7 17
M TOR 31 7 5 4 15
M TOR 32 7 5 4 16
M TOR 33 7 8 2 12
M TOR 34 8 2 3 13
M TOR 35 8 2 3 14
M  END
$$$$
