
     RDKit          3D

 19 20  0  0  0  0  0  0  0  0999 V2000
   -0.2632    1.4491   -0.0280 O   0  0  0  0  0  0  0  0  0  0  0  0
   -0.0056    0.0558   -0.0174 C   0  0  0  0  0  0  0  0  0  0  0  0
    0.5271   -0.4512   -1.3858 C   0  0  0  0  0  0  0  0  0  0  0  0
   -0.7242   -0.5834   -2.3239 C   0  0  0  0  0  0  0  0  0  0  0  0
   -1.8690   -0.4730   -1.3590 C   0  0  0  0  0  0  0  0  0  0  0  0
   -3.1012    0.0148   -1.3223 C   0  0  0  0  0  0  0  0  0  0  0  0
   -3.5233    0.1724    0.1198 C   0  0  0  0  0  0  0  0  0  0  0  0
   -2.3698   -0.1663    0.9007 O   0  0  0  0  0  0  0  0  0  0  0  0
   -1.3684   -0.6675    0.0455 C   0  0  0  0  0  0  0  0  0  0  0  0
    0.5797    1.9032   -0.1210 H   0  0  0  0  0  0  0  0  0  0  0  0
    0.6629   -0.2166    0.8107 H   0  0  0  0  0  0  0  0  0  0  0  0
    1.2850    0.2279   -1.7878 H   0  0  0  0  0  0  0  0  0  0  0  0
    1.0103   -1.4254   -1.2543 H   0  0  0  0  0  0  0  0  0  0  0  0
   -0.7601    0.2039   -3.0812 H   0  0  0  0  0  0  0  0  0  0  0  0
   -0.7083   -1.5396   -2.8582 H   0  0  0  0  0  0  0  0  0  0  0  0
   -3.7120    0.3473   -2.1523 H   0  0  0  0  0  0  0  0  0  0  0  0
   -3.8230    1.2066    0.3430 H   0  0  0  0  0  0  0  0  0  0  0  0
   -4.3646   -0.4804    0.4045 H   0  0  0  0  0  0  0  0  0  0  0  0
   -1.1657   -1.7274    0.2833 H   0  0  0  0  0  0  0  0  0  0  0  0
  1  2  1  0
  2  3  1  0
  3  4  1  0
  4  5  1  0
  5  6  2  0
  6  7  1  0
  7  8  1  0
  8  9  1  0
  9  2  1  0
  9  5  1  0
  1 10  1  0
  2 11  1  0
  3 12  1  0
  3 13  1  0
  4 14  1  0
  4 15  1  0
  6 16  1  0
  7 17  1  0
  7 18  1  0
  9 19  1  0
M  END
$$$$
