gdb 5437	2.3578098	1.2283406	0.8668483	2.9892	77.54	-0.23695	-0.01037	0.22658	1349.0045	0.155755	-422.547408	-422.538179	-422.537235	-422.581586	33.677
 OpenBabel02181911423D

 19 20  0  0  1  0  0  0  0  0999 V2000
   -2.9169    2.0571    1.5284 C   0  0  0  0  0  0  0  0  0  0  0  0
   -1.8910    0.9966    1.1888 C   0  0  1  0  0  0  0  0  0  0  0  0
   -2.1684    0.0376    0.0907 C   0  0  1  0  0  0  0  0  0  0  0  0
   -1.1344    1.1823   -0.1305 C   0  0  2  0  0  0  0  0  0  0  0  0
   -0.0685    0.1451   -0.2593 C   0  0  0  0  0  0  0  0  0  0  0  0
    1.0672    0.1570   -0.6470 O   0  0  0  0  0  0  0  0  0  0  0  0
   -1.0595   -1.0255    0.0195 C   0  0  2  0  0  0  0  0  0  0  0  0
   -1.1399   -1.9827   -1.1694 C   0  0  0  0  0  0  0  0  0  0  0  0
   -2.2627   -2.8482   -1.0991 O   0  0  0  0  0  0  0  0  0  0  0  0
   -3.6489    1.6702    2.2450 H   0  0  0  0  0  0  0  0  0  0  0  0
   -2.4428    2.9375    1.9737 H   0  0  0  0  0  0  0  0  0  0  0  0
   -3.4613    2.3830    0.6364 H   0  0  0  0  0  0  0  0  0  0  0  0
   -1.3232    0.6351    2.0451 H   0  0  0  0  0  0  0  0  0  0  0  0
   -3.1347   -0.0580   -0.3868 H   0  0  0  0  0  0  0  0  0  0  0  0
   -1.2096    2.1123   -0.6813 H   0  0  0  0  0  0  0  0  0  0  0  0
   -0.8948   -1.5875    0.9481 H   0  0  0  0  0  0  0  0  0  0  0  0
   -1.2643   -1.4148   -2.0977 H   0  0  0  0  0  0  0  0  0  0  0  0
   -0.1955   -2.5385   -1.2519 H   0  0  0  0  0  0  0  0  0  0  0  0
   -2.1417   -3.4292   -0.3411 H   0  0  0  0  0  0  0  0  0  0  0  0
  1 11  1  0  0  0  0
  1 10  1  0  0  0  0
  2  1  1  0  0  0  0
  2 13  1  1  0  0  0
  3 14  1  6  0  0  0
  3  2  1  0  0  0  0
  4 15  1  6  0  0  0
  4  3  1  0  0  0  0
  4  2  1  0  0  0  0
  5  4  1  0  0  0  0
  5  7  1  0  0  0  0
  6  5  2  0  0  0  0
  7  3  1  0  0  0  0
  7 16  1  1  0  0  0
  8  9  1  0  0  0  0
  8  7  1  0  0  0  0
  9 19  1  0  0  0  0
 12  1  1  0  0  0  0
 17  8  1  0  0  0  0
 18  8  1  0  0  0  0
M TOR 0 0 1 2 3
M TOR 1 0 1 2 6
M TOR 2 0 1 2 13
M TOR 3 0 1 3 4
M TOR 4 0 1 3 14
M TOR 5 1 2 3 4
M TOR 6 1 2 3 14
M TOR 7 1 2 6 4
M TOR 8 1 2 6 7
M TOR 9 1 2 6 15
M TOR 10 1 3 2 6
M TOR 11 1 3 2 13
M TOR 12 1 3 4 5
M TOR 13 1 3 4 6
M TOR 14 2 1 0 9
M TOR 15 2 1 0 10
M TOR 16 2 1 0 11
M TOR 17 2 3 1 12
M TOR 18 2 3 4 5
M TOR 19 2 3 4 6
M TOR 20 2 6 4 5
M TOR 21 2 6 7 8
M TOR 22 2 6 7 16
M TOR 23 2 6 7 17
M TOR 24 3 1 0 9
M TOR 25 3 1 0 10
M TOR 26 3 1 0 11
M TOR 27 3 2 6 7
M TOR 28 3 2 6 15
M TOR 29 3 4 6 7
M TOR 30 3 4 6 15
M TOR 31 4 3 1 12
M TOR 32 4 3 2 13
M TOR 33 4 6 2 13
M TOR 34 4 6 7 8
M TOR 35 4 6 7 16
M TOR 36 4 6 7 17
M TOR 37 5 4 3 14
M TOR 38 5 4 6 7
M TOR 39 5 4 6 15
M TOR 40 6 2 1 12
M TOR 41 6 2 3 14
M TOR 42 6 4 3 14
M TOR 43 6 7 8 18
M TOR 44 7 6 2 13
M TOR 45 8 7 6 15
M  END
$$$$
