
     RDKit          3D

 19 20  0  0  0  0  0  0  0  0999 V2000
   -0.0103    0.1861    0.1623 C   0  0  0  0  0  0  0  0  0  0  0  0
    1.5056    0.0344    0.1889 C   0  0  0  0  0  0  0  0  0  0  0  0
    1.8374   -1.3546    0.3532 O   0  0  0  0  0  0  0  0  0  0  0  0
    2.7395   -1.5731    1.4530 C   0  0  0  0  0  0  0  0  0  0  0  0
    2.0085   -1.1044    2.7229 C   0  0  0  0  0  0  0  0  0  0  0  0
    1.6923    0.2822    2.5828 O   0  0  0  0  0  0  0  0  0  0  0  0
    2.1854    0.8158    1.3380 C   0  0  0  0  0  0  0  0  0  0  0  0
    3.6727    0.5791    1.2332 C   0  0  0  0  0  0  0  0  0  0  0  0
    3.9742   -0.7182    1.2949 C   0  0  0  0  0  0  0  0  0  0  0  0
   -0.4362   -0.0401    1.1427 H   0  0  0  0  0  0  0  0  0  0  0  0
   -0.2862    1.2106   -0.1103 H   0  0  0  0  0  0  0  0  0  0  0  0
   -0.4406   -0.4945   -0.5770 H   0  0  0  0  0  0  0  0  0  0  0  0
    1.9279    0.3793   -0.7668 H   0  0  0  0  0  0  0  0  0  0  0  0
    2.9402   -2.6450    1.4766 H   0  0  0  0  0  0  0  0  0  0  0  0
    1.0749   -1.6695    2.8366 H   0  0  0  0  0  0  0  0  0  0  0  0
    2.6283   -1.2534    3.6173 H   0  0  0  0  0  0  0  0  0  0  0  0
    1.9018    1.8690    1.3273 H   0  0  0  0  0  0  0  0  0  0  0  0
    4.3828    1.3891    1.1149 H   0  0  0  0  0  0  0  0  0  0  0  0
    4.9721   -1.1391    1.2586 H   0  0  0  0  0  0  0  0  0  0  0  0
  1  2  1  0
  2  3  1  0
  3  4  1  0
  4  5  1  0
  5  6  1  0
  6  7  1  0
  7  8  1  0
  8  9  2  0
  7  2  1  0
  9  4  1  0
  1 10  1  0
  1 11  1  0
  1 12  1  0
  2 13  1  0
  4 14  1  0
  5 15  1  0
  5 16  1  0
  7 17  1  0
  8 18  1  0
  9 19  1  0
M  END
$$$$
