gdb 3877	2.5744085	1.5520179	1.1606373	2.2081	75.7	-0.2548	0.05985	0.31465000000000004	1102.886	0.155931	-422.505707	-422.497189	-422.496245	-422.538815	32.727
 OpenBabel02181911413D

 19 21  0  0  1  0  0  0  0  0999 V2000
    0.3178    0.0159    1.0514 O   0  0  0  0  0  0  0  0  0  0  0  0
   -1.0532    0.2729    1.1323 C   0  0  2  0  0  0  0  0  0  0  0  0
   -2.0450   -0.4712    0.1697 C   0  0  0  0  0  0  0  0  0  0  0  0
   -2.6761    0.8921   -0.1690 C   0  0  0  0  0  0  0  0  0  0  0  0
   -3.4209    1.3306   -1.3924 C   0  0  0  0  0  0  0  0  0  0  0  0
   -4.1255    1.2842   -0.0594 C   0  0  0  0  0  0  0  0  0  0  0  0
   -1.5199    1.5950    0.4980 C   0  0  1  0  0  0  0  0  0  0  0  0
   -1.2021    2.9783    0.8322 C   0  0  0  0  0  0  0  0  0  0  0  0
   -0.5458    2.3165   -0.2675 O   0  0  0  0  0  0  0  0  0  0  0  0
    0.6625    0.6200    0.3786 H   0  0  0  0  0  0  0  0  0  0  0  0
   -1.3645    0.1745    2.1780 H   0  0  0  0  0  0  0  0  0  0  0  0
   -1.5111   -0.9150   -0.6754 H   0  0  0  0  0  0  0  0  0  0  0  0
   -2.6935   -1.2227    0.6261 H   0  0  0  0  0  0  0  0  0  0  0  0
   -3.1666    2.2990   -1.8109 H   0  0  0  0  0  0  0  0  0  0  0  0
   -3.6670    0.5743   -2.1303 H   0  0  0  0  0  0  0  0  0  0  0  0
   -4.3671    2.2224    0.4299 H   0  0  0  0  0  0  0  0  0  0  0  0
   -4.8475    0.4920    0.1112 H   0  0  0  0  0  0  0  0  0  0  0  0
   -1.8778    3.7820    0.5421 H   0  0  0  0  0  0  0  0  0  0  0  0
   -0.5680    3.1931    1.6915 H   0  0  0  0  0  0  0  0  0  0  0  0
  1  2  1  0  0  0  0
  2 11  1  1  0  0  0
  3 13  1  0  0  0  0
  3  2  1  0  0  0  0
  4  6  1  0  0  0  0
  4  3  1  0  0  0  0
  4  7  1  0  0  0  0
  5  4  1  0  0  0  0
  5  6  1  0  0  0  0
  6 17  1  0  0  0  0
  6 16  1  0  0  0  0
  7  9  1  6  0  0  0
  7  8  1  0  0  0  0
  7  2  1  0  0  0  0
  8 19  1  0  0  0  0
  9  8  1  0  0  0  0
 10  1  1  0  0  0  0
 12  3  1  0  0  0  0
 14  5  1  0  0  0  0
 15  5  1  0  0  0  0
 18  8  1  0  0  0  0
M TOR 0 0 1 2 3
M TOR 1 0 1 2 11
M TOR 2 0 1 2 12
M TOR 3 0 1 6 3
M TOR 4 0 1 6 7
M TOR 5 0 1 6 8
M TOR 6 1 2 3 4
M TOR 7 1 2 3 5
M TOR 8 1 2 3 6
M TOR 9 1 6 3 4
M TOR 10 1 6 3 5
M TOR 11 1 6 7 8
M TOR 12 1 6 7 17
M TOR 13 1 6 7 18
M TOR 14 2 1 0 9
M TOR 15 2 1 6 7
M TOR 16 2 1 6 8
M TOR 17 2 3 4 5
M TOR 18 2 3 4 13
M TOR 19 2 3 4 14
M TOR 20 2 3 5 15
M TOR 21 2 3 5 16
M TOR 22 2 3 6 7
M TOR 23 2 3 6 8
M TOR 24 3 2 1 10
M TOR 25 3 4 5 15
M TOR 26 3 4 5 16
M TOR 27 3 5 4 13
M TOR 28 3 5 4 14
M TOR 29 3 6 1 10
M TOR 30 3 6 7 8
M TOR 31 3 6 7 17
M TOR 32 3 6 7 18
M TOR 33 4 3 2 11
M TOR 34 4 3 2 12
M TOR 35 4 3 6 7
M TOR 36 4 3 6 8
M TOR 37 4 5 3 6
M TOR 38 5 3 2 11
M TOR 39 5 3 2 12
M TOR 40 5 3 6 7
M TOR 41 5 3 6 8
M TOR 42 6 1 0 9
M TOR 43 6 1 2 11
M TOR 44 6 1 2 12
M TOR 45 6 3 2 11
M TOR 46 6 3 2 12
M TOR 47 6 3 4 13
M TOR 48 6 3 4 14
M TOR 49 6 3 5 15
M TOR 50 6 3 5 16
M TOR 51 6 8 7 17
M TOR 52 6 8 7 18
M TOR 53 7 6 1 10
M TOR 54 8 6 1 10
M  END
$$$$
