
     RDKit          3D

 19 19  0  0  0  0  0  0  0  0999 V2000
   -2.5529    4.0447    1.5715 C   0  0  0  0  0  0  0  0  0  0  0  0
   -2.2034    3.3659    0.6431 C   0  0  0  0  0  0  0  0  0  0  0  0
   -1.7711    2.5357   -0.4839 C   0  0  0  0  0  0  0  0  0  0  0  0
   -1.0110    1.4002   -0.0877 O   0  0  0  0  0  0  0  0  0  0  0  0
    0.2899    1.7142    0.3759 C   0  0  0  0  0  0  0  0  0  0  0  0
    0.9576    0.3883    0.7927 C   0  0  0  0  0  0  0  0  0  0  0  0
    2.1023    0.2067   -0.2300 C   0  0  0  0  0  0  0  0  0  0  0  0
    1.7147    1.1917   -1.3389 C   0  0  0  0  0  0  0  0  0  0  0  0
    1.0867    2.2723   -0.6459 O   0  0  0  0  0  0  0  0  0  0  0  0
   -2.8677    4.6475    2.3873 H   0  0  0  0  0  0  0  0  0  0  0  0
   -2.6453    2.1386   -1.0096 H   0  0  0  0  0  0  0  0  0  0  0  0
   -1.1991    3.1442   -1.1962 H   0  0  0  0  0  0  0  0  0  0  0  0
    0.2254    2.4692    1.1675 H   0  0  0  0  0  0  0  0  0  0  0  0
    1.3221    0.4339    1.8206 H   0  0  0  0  0  0  0  0  0  0  0  0
    0.2159   -0.4103    0.7311 H   0  0  0  0  0  0  0  0  0  0  0  0
    3.0617    0.4966    0.2077 H   0  0  0  0  0  0  0  0  0  0  0  0
    2.1928   -0.8205   -0.5907 H   0  0  0  0  0  0  0  0  0  0  0  0
    2.5623    1.6015   -1.8928 H   0  0  0  0  0  0  0  0  0  0  0  0
    1.0152    0.7336   -2.0523 H   0  0  0  0  0  0  0  0  0  0  0  0
  1  2  3  0
  2  3  1  0
  3  4  1  0
  4  5  1  0
  5  6  1  0
  6  7  1  0
  7  8  1  0
  8  9  1  0
  9  5  1  0
  1 10  1  0
  3 11  1  0
  3 12  1  0
  5 13  1  0
  6 14  1  0
  6 15  1  0
  7 16  1  0
  7 17  1  0
  8 18  1  0
  8 19  1  0
M  END
$$$$
