gdb 2696	3.3171014	1.0097601	0.8184598	2.578	76.63	-0.24235	-0.02042	0.22193000000000002	1384.6878	0.154843	-422.541603	-422.5324	-422.531455	-422.57638	33.041
 OpenBabel02181911413D

 19 20  0  0  1  0  0  0  0  0999 V2000
   -0.9901    2.1213    1.1625 C   0  0  0  0  0  0  0  0  0  0  0  0
   -0.8527    1.0117    0.1305 C   0  0  2  0  0  0  0  0  0  0  0  0
   -1.9992   -0.0376   -0.0809 C   0  0  2  0  0  0  0  0  0  0  0  0
   -0.9426   -1.1894   -0.1044 C   0  0  0  0  0  0  0  0  0  0  0  0
    0.0724   -0.1773    0.4464 C   0  0  0  0  0  0  0  0  0  0  0  0
    1.1176   -0.2706    1.0215 O   0  0  0  0  0  0  0  0  0  0  0  0
   -2.8644    0.1346   -1.2949 C   0  0  2  0  0  0  0  0  0  0  0  0
   -4.2025    0.7380   -1.2341 C   0  0  0  0  0  0  0  0  0  0  0  0
   -4.0401   -0.6744   -1.3740 O   0  0  0  0  0  0  0  0  0  0  0  0
   -1.2942    1.7187    2.1341 H   0  0  0  0  0  0  0  0  0  0  0  0
   -0.0337    2.6342    1.3002 H   0  0  0  0  0  0  0  0  0  0  0  0
   -1.7336    2.8627    0.8535 H   0  0  0  0  0  0  0  0  0  0  0  0
   -0.5548    1.4279   -0.8430 H   0  0  0  0  0  0  0  0  0  0  0  0
   -2.6300   -0.1094    0.8100 H   0  0  0  0  0  0  0  0  0  0  0  0
   -1.1301   -2.0798    0.4992 H   0  0  0  0  0  0  0  0  0  0  0  0
   -0.6846   -1.5052   -1.1220 H   0  0  0  0  0  0  0  0  0  0  0  0
   -2.3191    0.2111   -2.2395 H   0  0  0  0  0  0  0  0  0  0  0  0
   -4.5981    1.0691   -0.2745 H   0  0  0  0  0  0  0  0  0  0  0  0
   -4.6065    1.2528   -2.1047 H   0  0  0  0  0  0  0  0  0  0  0  0
  1 11  1  0  0  0  0
  1 10  1  0  0  0  0
  2 13  1  6  0  0  0
  2  5  1  0  0  0  0
  2  1  1  0  0  0  0
  3  2  1  0  0  0  0
  3 14  1  1  0  0  0
  4  3  1  0  0  0  0
  4  5  1  0  0  0  0
  4 15  1  0  0  0  0
  5  6  2  0  0  0  0
  7 17  1  6  0  0  0
  7  8  1  0  0  0  0
  7  3  1  0  0  0  0
  8 18  1  0  0  0  0
  9  7  1  0  0  0  0
  9  8  1  0  0  0  0
 12  1  1  0  0  0  0
 16  4  1  0  0  0  0
 19  8  1  0  0  0  0
M TOR 0 0 1 2 3
M TOR 1 0 1 2 6
M TOR 2 0 1 2 13
M TOR 3 0 1 4 3
M TOR 4 0 1 4 5
M TOR 5 1 2 3 4
M TOR 6 1 2 3 14
M TOR 7 1 2 3 15
M TOR 8 1 2 6 7
M TOR 9 1 2 6 8
M TOR 10 1 2 6 16
M TOR 11 1 4 3 14
M TOR 12 1 4 3 15
M TOR 13 2 1 0 9
M TOR 14 2 1 0 10
M TOR 15 2 1 0 11
M TOR 16 2 1 4 5
M TOR 17 2 3 4 5
M TOR 18 2 6 7 8
M TOR 19 2 6 7 17
M TOR 20 2 6 7 18
M TOR 21 3 2 1 12
M TOR 22 3 2 6 7
M TOR 23 3 2 6 8
M TOR 24 3 2 6 16
M TOR 25 3 4 1 12
M TOR 26 4 1 0 9
M TOR 27 4 1 0 10
M TOR 28 4 1 0 11
M TOR 29 4 1 2 6
M TOR 30 4 1 2 13
M TOR 31 4 3 2 6
M TOR 32 4 3 2 13
M TOR 33 5 4 1 12
M TOR 34 5 4 3 14
M TOR 35 5 4 3 15
M TOR 36 6 2 1 12
M TOR 37 6 2 3 14
M TOR 38 6 2 3 15
M TOR 39 6 8 7 17
M TOR 40 6 8 7 18
M TOR 41 7 6 2 13
M TOR 42 7 8 6 16
M TOR 43 8 6 2 13
M  END
$$$$
