
     RDKit          3D

 19 21  0  0  0  0  0  0  0  0999 V2000
    2.0752    1.4122    0.0026 C   0  0  0  0  0  0  0  0  0  0  0  0
    1.5315   -0.0152    0.0682 C   0  0  0  0  0  0  0  0  0  0  0  0
    2.0200   -0.9105   -1.0940 C   0  0  0  0  0  0  0  0  0  0  0  0
    1.2179   -2.1110   -1.1789 O   0  0  0  0  0  0  0  0  0  0  0  0
    2.0267   -2.7188   -0.1447 C   0  0  0  0  0  0  0  0  0  0  0  0
    1.5446   -2.2594    1.2430 C   0  0  0  0  0  0  0  0  0  0  0  0
    2.1255   -0.8256    1.2538 C   0  0  0  0  0  0  0  0  0  0  0  0
    3.4805   -1.0565    0.8150 O   0  0  0  0  0  0  0  0  0  0  0  0
    3.1798   -1.6961   -0.4020 C   0  0  0  0  0  0  0  0  0  0  0  0
    1.7396    1.9999    0.8635 H   0  0  0  0  0  0  0  0  0  0  0  0
    3.1688    1.4124    0.0020 H   0  0  0  0  0  0  0  0  0  0  0  0
    1.7320    1.9217   -0.9038 H   0  0  0  0  0  0  0  0  0  0  0  0
    0.4379   -0.0148    0.0860 H   0  0  0  0  0  0  0  0  0  0  0  0
    2.1398   -0.4133   -2.0586 H   0  0  0  0  0  0  0  0  0  0  0  0
    2.1520   -3.7931   -0.2853 H   0  0  0  0  0  0  0  0  0  0  0  0
    0.4569   -2.3079    1.3262 H   0  0  0  0  0  0  0  0  0  0  0  0
    2.0005   -2.8519    2.0419 H   0  0  0  0  0  0  0  0  0  0  0  0
    2.1403   -0.3166    2.2178 H   0  0  0  0  0  0  0  0  0  0  0  0
    4.0741   -1.9811   -0.9493 H   0  0  0  0  0  0  0  0  0  0  0  0
  1  2  1  0
  2  3  1  0
  3  4  1  0
  4  5  1  0
  5  6  1  0
  6  7  1  0
  7  8  1  0
  8  9  1  0
  7  2  1  0
  9  3  1  0
  9  5  1  0
  1 10  1  0
  1 11  1  0
  1 12  1  0
  2 13  1  0
  3 14  1  0
  5 15  1  0
  6 16  1  0
  6 17  1  0
  7 18  1  0
  9 19  1  0
M  END
$$$$
