
     RDKit          3D

 19 20  0  0  0  0  0  0  0  0999 V2000
   -1.0349   -2.3355    0.6658 O   0  0  0  0  0  0  0  0  0  0  0  0
   -0.2839   -1.3984    0.8171 C   0  0  0  0  0  0  0  0  0  0  0  0
   -0.4824   -0.4635    2.0241 C   0  0  0  0  0  0  0  0  0  0  0  0
    0.6953    0.0718    2.5860 O   0  0  0  0  0  0  0  0  0  0  0  0
    1.3169    1.1222    1.8652 C   0  0  0  0  0  0  0  0  0  0  0  0
    1.8668    0.7089    0.4931 C   0  0  0  0  0  0  0  0  0  0  0  0
    0.7791    0.4432   -0.5823 C   0  0  0  0  0  0  0  0  0  0  0  0
    0.8017   -1.0697   -0.1857 C   0  0  0  0  0  0  0  0  0  0  0  0
    2.2153   -0.8055    0.4331 C   0  0  0  0  0  0  0  0  0  0  0  0
   -1.1785    0.3387    1.7198 H   0  0  0  0  0  0  0  0  0  0  0  0
   -0.9753   -1.0483    2.8041 H   0  0  0  0  0  0  0  0  0  0  0  0
    0.6224    1.9721    1.7520 H   0  0  0  0  0  0  0  0  0  0  0  0
    2.1404    1.4464    2.5094 H   0  0  0  0  0  0  0  0  0  0  0  0
    2.6539    1.4128    0.2078 H   0  0  0  0  0  0  0  0  0  0  0  0
   -0.1698    0.9821   -0.5020 H   0  0  0  0  0  0  0  0  0  0  0  0
    1.1697    0.5783   -1.5935 H   0  0  0  0  0  0  0  0  0  0  0  0
    0.7393   -1.8021   -0.9912 H   0  0  0  0  0  0  0  0  0  0  0  0
    2.4618   -1.3048    1.3708 H   0  0  0  0  0  0  0  0  0  0  0  0
    2.9913   -1.0149   -0.3067 H   0  0  0  0  0  0  0  0  0  0  0  0
  1  2  2  0
  2  3  1  0
  3  4  1  0
  4  5  1  0
  5  6  1  0
  6  7  1  0
  7  8  1  0
  8  9  1  0
  8  2  1  0
  9  6  1  0
  3 10  1  0
  3 11  1  0
  5 12  1  0
  5 13  1  0
  6 14  1  0
  7 15  1  0
  7 16  1  0
  8 17  1  0
  9 18  1  0
  9 19  1  0
M  END
$$$$
