
     RDKit          3D

 19 21  0  0  0  0  0  0  0  0999 V2000
    1.1295    0.7400   -0.6256 O   0  0  0  0  0  0  0  0  0  0  0  0
   -0.0089    0.3479    0.1316 C   0  0  0  0  0  0  0  0  0  0  0  0
   -1.2169    0.4969   -0.7401 C   0  0  0  0  0  0  0  0  0  0  0  0
   -1.5381   -0.2413   -2.0606 C   0  0  0  0  0  0  0  0  0  0  0  0
   -2.7260    0.6899   -1.8309 C   0  0  0  0  0  0  0  0  0  0  0  0
   -3.8088    0.7737   -2.6805 O   0  0  0  0  0  0  0  0  0  0  0  0
   -2.7123    0.4817   -0.2642 C   0  0  0  0  0  0  0  0  0  0  0  0
   -2.7147    2.0017    0.0053 C   0  0  0  0  0  0  0  0  0  0  0  0
   -1.8315    1.8513   -1.2511 C   0  0  0  0  0  0  0  0  0  0  0  0
    1.9125    0.5901   -0.0876 H   0  0  0  0  0  0  0  0  0  0  0  0
    0.0760   -0.6998    0.4636 H   0  0  0  0  0  0  0  0  0  0  0  0
   -0.1224    0.9687    1.0355 H   0  0  0  0  0  0  0  0  0  0  0  0
   -0.8925   -0.0164   -2.9140 H   0  0  0  0  0  0  0  0  0  0  0  0
   -1.7348   -1.3161   -1.9858 H   0  0  0  0  0  0  0  0  0  0  0  0
   -4.4100    1.4525   -2.3533 H   0  0  0  0  0  0  0  0  0  0  0  0
   -3.1972   -0.3264    0.2872 H   0  0  0  0  0  0  0  0  0  0  0  0
   -3.6687    2.5277   -0.1143 H   0  0  0  0  0  0  0  0  0  0  0  0
   -2.2200    2.3436    0.9195 H   0  0  0  0  0  0  0  0  0  0  0  0
   -1.2970    2.6093   -1.8244 H   0  0  0  0  0  0  0  0  0  0  0  0
  1  2  1  0
  2  3  1  0
  3  4  1  0
  4  5  1  0
  5  6  1  0
  5  7  1  0
  7  8  1  0
  8  9  1  0
  7  3  1  0
  9  3  1  0
  9  5  1  0
  1 10  1  0
  2 11  1  0
  2 12  1  0
  4 13  1  0
  4 14  1  0
  6 15  1  0
  7 16  1  0
  8 17  1  0
  8 18  1  0
  9 19  1  0
M  END
$$$$
