
     RDKit          3D

 19 21  0  0  0  0  0  0  0  0999 V2000
    1.0256    0.6517    0.5666 O   0  0  0  0  0  0  0  0  0  0  0  0
    0.0700   -0.0557   -0.2129 C   0  0  0  0  0  0  0  0  0  0  0  0
   -0.6728    0.9568   -1.0638 C   0  0  0  0  0  0  0  0  0  0  0  0
   -1.9218    0.3819   -1.7354 C   0  0  0  0  0  0  0  0  0  0  0  0
   -2.8585    1.5213   -2.0914 C   0  0  0  0  0  0  0  0  0  0  0  0
   -2.3315    2.8207   -2.2470 O   0  0  0  0  0  0  0  0  0  0  0  0
   -1.8165    3.2115   -0.9640 C   0  0  0  0  0  0  0  0  0  0  0  0
   -1.6074    1.8929   -0.2252 C   0  0  0  0  0  0  0  0  0  0  0  0
   -2.8282    1.0433   -0.6845 C   0  0  0  0  0  0  0  0  0  0  0  0
    1.4950    0.0181    1.1165 H   0  0  0  0  0  0  0  0  0  0  0  0
    0.5580   -0.7998   -0.8633 H   0  0  0  0  0  0  0  0  0  0  0  0
   -0.6460   -0.5975    0.4267 H   0  0  0  0  0  0  0  0  0  0  0  0
    0.0399    1.4731   -1.7177 H   0  0  0  0  0  0  0  0  0  0  0  0
   -2.0097   -0.5983   -2.1937 H   0  0  0  0  0  0  0  0  0  0  0  0
   -3.6960    1.3146   -2.7468 H   0  0  0  0  0  0  0  0  0  0  0  0
   -0.8883    3.7696   -1.1233 H   0  0  0  0  0  0  0  0  0  0  0  0
   -2.5393    3.8606   -0.4463 H   0  0  0  0  0  0  0  0  0  0  0  0
   -1.3737    1.9800    0.8343 H   0  0  0  0  0  0  0  0  0  0  0  0
   -3.6577    0.6682   -0.1001 H   0  0  0  0  0  0  0  0  0  0  0  0
  1  2  1  0
  2  3  1  0
  3  4  1  0
  4  5  1  0
  5  6  1  0
  6  7  1  0
  7  8  1  0
  8  9  1  0
  8  3  1  0
  9  4  1  0
  9  5  1  0
  1 10  1  0
  2 11  1  0
  2 12  1  0
  3 13  1  0
  4 14  1  0
  5 15  1  0
  7 16  1  0
  7 17  1  0
  8 18  1  0
  9 19  1  0
M  END
$$$$
