gdb 3474	2.3539864	1.9976936	1.3648621	2.3466	75.26	-0.24208	0.01155	0.25362999999999997	979.6769	0.158298	-422.566937	-422.559187	-422.558243	-422.598403	31.864
 OpenBabel02181911413D

 19 20  0  0  1  0  0  0  0  0999 V2000
    0.3245    0.2018    0.0397 O   0  0  0  0  0  0  0  0  0  0  0  0
   -0.8833    0.4513    0.7453 C   0  0  1  0  0  0  0  0  0  0  0  0
   -2.0492    0.2802   -0.1973 C   0  0  0  0  0  0  0  0  0  0  0  0
   -3.0051   -0.5958    0.1094 C   0  0  0  0  0  0  0  0  0  0  0  0
   -2.8560   -1.3889    1.3890 C   0  0  1  0  0  0  0  0  0  0  0  0
   -1.3889   -1.9275    1.4537 C   0  0  0  0  0  0  0  0  0  0  0  0
   -1.0264   -0.5035    1.9455 C   0  0  1  0  0  0  0  0  0  0  0  0
    0.1110   -0.2902    2.7489 O   0  0  0  0  0  0  0  0  0  0  0  0
   -2.4596   -0.4044    2.5363 C   0  0  0  0  0  0  0  0  0  0  0  0
    1.0176    0.1889    0.7114 H   0  0  0  0  0  0  0  0  0  0  0  0
   -0.8732    1.4810    1.1453 H   0  0  0  0  0  0  0  0  0  0  0  0
   -2.0577    0.8802   -1.1010 H   0  0  0  0  0  0  0  0  0  0  0  0
   -3.8714   -0.7531   -0.5254 H   0  0  0  0  0  0  0  0  0  0  0  0
   -3.6714   -2.0888    1.5678 H   0  0  0  0  0  0  0  0  0  0  0  0
   -1.2685   -2.6643    2.2558 H   0  0  0  0  0  0  0  0  0  0  0  0
   -0.9255   -2.2832    0.5325 H   0  0  0  0  0  0  0  0  0  0  0  0
    0.1526   -0.9876    3.4106 H   0  0  0  0  0  0  0  0  0  0  0  0
   -2.5112   -0.8781    3.5224 H   0  0  0  0  0  0  0  0  0  0  0  0
   -2.9484    0.5724    2.5644 H   0  0  0  0  0  0  0  0  0  0  0  0
  1 10  1  0  0  0  0
  1  2  1  0  0  0  0
  2 11  1  1  0  0  0
  2  7  1  0  0  0  0
  3  4  2  0  0  0  0
  3  2  1  0  0  0  0
  4  5  1  0  0  0  0
  5  6  1  0  0  0  0
  5 14  1  1  0  0  0
  5  9  1  0  0  0  0
  6  7  1  0  0  0  0
  6 15  1  0  0  0  0
  7  9  1  0  0  0  0
  7  8  1  1  0  0  0
  8 17  1  0  0  0  0
  9 19  1  0  0  0  0
  9 18  1  0  0  0  0
 12  3  1  0  0  0  0
 13  4  1  0  0  0  0
 16  6  1  0  0  0  0
M TOR 0 0 1 2 3
M TOR 1 0 1 2 11
M TOR 2 0 1 6 5
M TOR 3 0 1 6 7
M TOR 4 0 1 6 8
M TOR 5 1 2 3 4
M TOR 6 1 2 3 12
M TOR 7 1 6 5 4
M TOR 8 1 6 5 14
M TOR 9 1 6 5 15
M TOR 10 1 6 7 16
M TOR 11 1 6 8 4
M TOR 12 1 6 8 17
M TOR 13 1 6 8 18
M TOR 14 2 1 0 9
M TOR 15 2 1 6 5
M TOR 16 2 1 6 7
M TOR 17 2 1 6 8
M TOR 18 2 3 4 5
M TOR 19 2 3 4 8
M TOR 20 2 3 4 13
M TOR 21 3 2 1 6
M TOR 22 3 2 1 10
M TOR 23 3 4 5 6
M TOR 24 3 4 5 14
M TOR 25 3 4 5 15
M TOR 26 3 4 8 6
M TOR 27 3 4 8 17
M TOR 28 3 4 8 18
M TOR 29 4 3 2 11
M TOR 30 4 5 6 7
M TOR 31 4 5 6 8
M TOR 32 4 8 6 7
M TOR 33 5 4 3 12
M TOR 34 5 4 8 17
M TOR 35 5 4 8 18
M TOR 36 5 6 1 10
M TOR 37 5 6 7 16
M TOR 38 5 6 8 17
M TOR 39 5 6 8 18
M TOR 40 6 1 0 9
M TOR 41 6 1 2 11
M TOR 42 6 5 4 13
M TOR 43 6 8 4 13
M TOR 44 7 6 1 10
M TOR 45 7 6 5 14
M TOR 46 7 6 5 15
M TOR 47 7 6 8 17
M TOR 48 7 6 8 18
M TOR 49 8 4 3 12
M TOR 50 8 4 5 14
M TOR 51 8 4 5 15
M TOR 52 8 6 1 10
M TOR 53 8 6 5 14
M TOR 54 8 6 5 15
M TOR 55 8 6 7 16
M  END
$$$$
