gdb 3482	2.9099929	1.7007577	1.4362132	1.2704	75.37	-0.24266	0.01052	0.25317999999999996	985.7374	0.159279	-422.575302	-422.567871	-422.566927	-422.606861	29.462
 OpenBabel02181911413D

 19 20  0  0  1  0  0  0  0  0999 V2000
    0.9603    0.6190   -1.1012 C   0  0  0  0  0  0  0  0  0  0  0  0
    1.0135   -0.7675   -0.4396 C   0  0  1  0  0  0  0  0  0  0  0  0
    1.5789   -1.8156   -1.3730 C   0  0  0  0  0  0  0  0  0  0  0  0
    2.7064   -2.4676   -1.0929 C   0  0  0  0  0  0  0  0  0  0  0  0
    3.4265   -2.1554    0.1985 C   0  0  2  0  0  0  0  0  0  0  0  0
    2.7208   -2.8123    1.4004 C   0  0  0  0  0  0  0  0  0  0  0  0
    1.6142   -1.9349    1.6142 O   0  0  0  0  0  0  0  0  0  0  0  0
    1.8583   -0.7533    0.8499 C   0  0  1  0  0  0  0  0  0  0  0  0
    3.2318   -0.7727    0.5306 O   0  0  0  0  0  0  0  0  0  0  0  0
    0.4793    1.3515   -0.4442 H   0  0  0  0  0  0  0  0  0  0  0  0
    1.9710    0.9708   -1.3280 H   0  0  0  0  0  0  0  0  0  0  0  0
    0.3941    0.5859   -2.0372 H   0  0  0  0  0  0  0  0  0  0  0  0
   -0.0034   -1.0619   -0.1482 H   0  0  0  0  0  0  0  0  0  0  0  0
    1.0386   -2.0026   -2.2980 H   0  0  0  0  0  0  0  0  0  0  0  0
    3.1110   -3.2343   -1.7462 H   0  0  0  0  0  0  0  0  0  0  0  0
    4.4996   -2.3470    0.1526 H   0  0  0  0  0  0  0  0  0  0  0  0
    2.3508   -3.8204    1.1938 H   0  0  0  0  0  0  0  0  0  0  0  0
    3.3724   -2.8318    2.2839 H   0  0  0  0  0  0  0  0  0  0  0  0
    1.6583    0.1278    1.4685 H   0  0  0  0  0  0  0  0  0  0  0  0
  1 10  1  0  0  0  0
  1  2  1  0  0  0  0
  2 13  1  1  0  0  0
  2  8  1  0  0  0  0
  3  4  2  0  0  0  0
  3  2  1  0  0  0  0
  4  5  1  0  0  0  0
  5 16  1  6  0  0  0
  5  9  1  0  0  0  0
  5  6  1  0  0  0  0
  6  7  1  0  0  0  0
  6 18  1  0  0  0  0
  8 19  1  1  0  0  0
  8  7  1  0  0  0  0
  9  8  1  0  0  0  0
 11  1  1  0  0  0  0
 12  1  1  0  0  0  0
 14  3  1  0  0  0  0
 15  4  1  0  0  0  0
 17  6  1  0  0  0  0
M TOR 0 0 1 2 3
M TOR 1 0 1 2 13
M TOR 2 0 1 7 6
M TOR 3 0 1 7 8
M TOR 4 0 1 7 18
M TOR 5 1 2 3 4
M TOR 6 1 2 3 14
M TOR 7 1 7 6 5
M TOR 8 1 7 8 4
M TOR 9 2 1 0 9
M TOR 10 2 1 0 10
M TOR 11 2 1 0 11
M TOR 12 2 1 7 6
M TOR 13 2 1 7 8
M TOR 14 2 1 7 18
M TOR 15 2 3 4 5
M TOR 16 2 3 4 8
M TOR 17 2 3 4 15
M TOR 18 3 2 1 7
M TOR 19 3 2 1 12
M TOR 20 3 4 5 6
M TOR 21 3 4 5 16
M TOR 22 3 4 5 17
M TOR 23 3 4 8 7
M TOR 24 4 3 2 13
M TOR 25 4 5 6 7
M TOR 26 4 8 7 6
M TOR 27 4 8 7 18
M TOR 28 5 4 3 14
M TOR 29 5 4 8 7
M TOR 30 5 6 7 8
M TOR 31 5 6 7 18
M TOR 32 6 5 4 8
M TOR 33 6 5 4 15
M TOR 34 6 7 1 12
M TOR 35 7 1 0 9
M TOR 36 7 1 0 10
M TOR 37 7 1 0 11
M TOR 38 7 1 2 13
M TOR 39 7 6 5 16
M TOR 40 7 6 5 17
M TOR 41 7 8 4 15
M TOR 42 8 4 3 14
M TOR 43 8 4 5 16
M TOR 44 8 4 5 17
M TOR 45 8 7 1 12
M  END
$$$$
