
     RDKit          3D

 19 20  0  0  0  0  0  0  0  0999 V2000
    1.3625    0.7702    0.5060 C   0  0  0  0  0  0  0  0  0  0  0  0
   -0.0279    0.2405    0.3719 C   0  0  0  0  0  0  0  0  0  0  0  0
   -1.1736    0.9253    0.2867 C   0  0  0  0  0  0  0  0  0  0  0  0
   -2.3598    0.0153    0.2124 C   0  0  0  0  0  0  0  0  0  0  0  0
   -3.6464    0.4333   -0.4399 C   0  0  0  0  0  0  0  0  0  0  0  0
   -2.4896   -0.8200    1.4036 O   0  0  0  0  0  0  0  0  0  0  0  0
   -1.8148   -1.3493    0.2631 C   0  0  0  0  0  0  0  0  0  0  0  0
   -0.2895   -1.2589    0.3503 C   0  0  0  0  0  0  0  0  0  0  0  0
    0.3624   -1.8321   -0.7773 O   0  0  0  0  0  0  0  0  0  0  0  0
    1.8064    0.4777    1.4665 H   0  0  0  0  0  0  0  0  0  0  0  0
    2.0053    0.3558   -0.2782 H   0  0  0  0  0  0  0  0  0  0  0  0
    1.3856    1.8609    0.4403 H   0  0  0  0  0  0  0  0  0  0  0  0
   -1.2596    2.0063    0.2999 H   0  0  0  0  0  0  0  0  0  0  0  0
   -4.1000    1.2725    0.0990 H   0  0  0  0  0  0  0  0  0  0  0  0
   -3.4702    0.7528   -1.4723 H   0  0  0  0  0  0  0  0  0  0  0  0
   -4.3609   -0.3932   -0.4437 H   0  0  0  0  0  0  0  0  0  0  0  0
   -2.2773   -2.2061   -0.2246 H   0  0  0  0  0  0  0  0  0  0  0  0
    0.0689   -1.7188    1.2850 H   0  0  0  0  0  0  0  0  0  0  0  0
    0.3723   -2.7876   -0.6623 H   0  0  0  0  0  0  0  0  0  0  0  0
  1  2  1  0
  2  3  2  0
  3  4  1  0
  4  5  1  0
  4  6  1  0
  6  7  1  0
  7  8  1  0
  8  9  1  0
  8  2  1  0
  7  4  1  0
  1 10  1  0
  1 11  1  0
  1 12  1  0
  3 13  1  0
  5 14  1  0
  5 15  1  0
  5 16  1  0
  7 17  1  0
  8 18  1  0
  9 19  1  0
M  END
$$$$
