gdb 841	3.938702	1.0832061	0.9921263	3.2974	75.48	-0.25112	-0.02595	0.22517	1231.7241	0.157409	-422.561332	-422.553185	-422.55224	-422.594827	30.205
 OpenBabel02181911403D

 19 20  0  0  1  0  0  0  0  0999 V2000
    1.4532    0.0176    0.0790 O   0  0  0  0  0  0  0  0  0  0  0  0
    0.2866   -0.0797   -0.1950 C   0  0  0  0  0  0  0  0  0  0  0  0
   -0.4095    0.7248   -1.2745 C   0  0  2  0  0  0  0  0  0  0  0  0
   -1.0584    2.0089   -0.7002 C   0  0  0  0  0  0  0  0  0  0  0  0
   -2.2516    2.2289   -1.6350 C   0  0  1  0  0  0  0  0  0  0  0  0
   -1.9437    2.8064   -3.0497 C   0  0  0  0  0  0  0  0  0  0  0  0
   -2.2429    1.4179   -3.6864 C   0  0  0  0  0  0  0  0  0  0  0  0
   -2.4960    0.8244   -2.2715 C   0  0  1  0  0  0  0  0  0  0  0  0
   -1.4872   -0.0476   -1.7810 O   0  0  0  0  0  0  0  0  0  0  0  0
   -0.4051   -0.7581    0.3541 H   0  0  0  0  0  0  0  0  0  0  0  0
    0.3206    0.9731   -2.0578 H   0  0  0  0  0  0  0  0  0  0  0  0
   -1.4073    1.8231    0.3221 H   0  0  0  0  0  0  0  0  0  0  0  0
   -0.3547    2.8440   -0.6735 H   0  0  0  0  0  0  0  0  0  0  0  0
   -3.0998    2.6890   -1.1263 H   0  0  0  0  0  0  0  0  0  0  0  0
   -2.6174    3.6069   -3.3620 H   0  0  0  0  0  0  0  0  0  0  0  0
   -0.9170    3.1612   -3.1775 H   0  0  0  0  0  0  0  0  0  0  0  0
   -3.1233    1.3998   -4.3332 H   0  0  0  0  0  0  0  0  0  0  0  0
   -1.4143    0.9439   -4.2176 H   0  0  0  0  0  0  0  0  0  0  0  0
   -3.4572    0.3291   -2.1193 H   0  0  0  0  0  0  0  0  0  0  0  0
  2  1  2  0  0  0  0
  2 10  1  0  0  0  0
  3 11  1  6  0  0  0
  3  4  1  0  0  0  0
  3  2  1  0  0  0  0
  4 13  1  0  0  0  0
  4 12  1  0  0  0  0
  5 14  1  1  0  0  0
  5  4  1  0  0  0  0
  6  5  1  0  0  0  0
  7  6  1  0  0  0  0
  7  8  1  0  0  0  0
  8 19  1  1  0  0  0
  8  9  1  0  0  0  0
  8  5  1  0  0  0  0
  9  3  1  0  0  0  0
 15  6  1  0  0  0  0
 16  6  1  0  0  0  0
 17  7  1  0  0  0  0
 18  7  1  0  0  0  0
M TOR 0 0 1 2 3
M TOR 1 0 1 2 8
M TOR 2 0 1 2 10
M TOR 3 1 2 3 4
M TOR 4 1 2 3 11
M TOR 5 1 2 3 12
M TOR 6 1 2 8 7
M TOR 7 2 3 4 5
M TOR 8 2 3 4 7
M TOR 9 2 3 4 13
M TOR 10 2 8 7 4
M TOR 11 2 8 7 6
M TOR 12 2 8 7 18
M TOR 13 3 2 1 9
M TOR 14 3 2 8 7
M TOR 15 3 4 5 6
M TOR 16 3 4 5 14
M TOR 17 3 4 5 15
M TOR 18 3 4 7 6
M TOR 19 3 4 7 8
M TOR 20 3 4 7 18
M TOR 21 4 3 2 8
M TOR 22 4 3 2 10
M TOR 23 4 5 6 7
M TOR 24 4 5 6 16
M TOR 25 4 5 6 17
M TOR 26 4 7 6 16
M TOR 27 4 7 6 17
M TOR 28 5 4 3 11
M TOR 29 5 4 3 12
M TOR 30 5 4 7 8
M TOR 31 5 4 7 18
M TOR 32 5 6 7 8
M TOR 33 5 6 7 18
M TOR 34 6 5 4 13
M TOR 35 6 7 4 13
M TOR 36 7 4 3 11
M TOR 37 7 4 3 12
M TOR 38 7 4 5 14
M TOR 39 7 4 5 15
M TOR 40 7 6 5 14
M TOR 41 7 6 5 15
M TOR 42 7 8 2 10
M TOR 43 8 2 1 9
M TOR 44 8 2 3 11
M TOR 45 8 2 3 12
M TOR 46 8 7 4 13
M TOR 47 8 7 6 16
M TOR 48 8 7 6 17
M  END
$$$$
