gdb 6054	2.5092686	1.0210025	0.7900273	2.3906	78.86	-0.25302	0.0253	0.27832	1477.2263	0.154495	-422.480718	-422.470864	-422.46992	-422.516699	34.305
 OpenBabel02181911423D

 19 19  0  0  1  0  0  0  0  0999 V2000
    1.4165   -0.1055   -0.1078 C   0  0  0  0  0  0  0  0  0  0  0  0
    0.0158   -0.0380    0.0218 O   0  0  0  0  0  0  0  0  0  0  0  0
   -0.4016    0.7003    1.1465 C   0  0  0  0  0  0  0  0  0  0  0  0
   -1.9157    0.6811    1.1920 C   0  0  2  0  0  0  0  0  0  0  0  0
   -2.5506    1.1770    2.5061 C   0  0  0  0  0  0  0  0  0  0  0  0
   -3.0167   -0.1467    2.8407 O   0  0  0  0  0  0  0  0  0  0  0  0
   -2.5447   -0.6899    1.5777 C   0  0  1  0  0  0  0  0  0  0  0  0
   -3.6163   -1.1864    0.7309 C   0  0  0  0  0  0  0  0  0  0  0  0
   -4.5017   -1.5893    0.0247 C   0  0  0  0  0  0  0  0  0  0  0  0
    1.8846   -0.5935    0.7617 H   0  0  0  0  0  0  0  0  0  0  0  0
    1.6334   -0.6939   -1.0023 H   0  0  0  0  0  0  0  0  0  0  0  0
    1.8643    0.8943   -0.2218 H   0  0  0  0  0  0  0  0  0  0  0  0
    0.0108    0.2641    2.0740 H   0  0  0  0  0  0  0  0  0  0  0  0
   -0.0374    1.7414    1.0904 H   0  0  0  0  0  0  0  0  0  0  0  0
   -2.3268    1.1138    0.2793 H   0  0  0  0  0  0  0  0  0  0  0  0
   -1.8525    1.5667    3.2580 H   0  0  0  0  0  0  0  0  0  0  0  0
   -3.3791    1.8853    2.3881 H   0  0  0  0  0  0  0  0  0  0  0  0
   -1.8040   -1.4817    1.7455 H   0  0  0  0  0  0  0  0  0  0  0  0
   -5.2829   -1.9525   -0.5963 H   0  0  0  0  0  0  0  0  0  0  0  0
  1  2  1  0  0  0  0
  1 10  1  0  0  0  0
  2  3  1  0  0  0  0
  3  4  1  0  0  0  0
  3 13  1  0  0  0  0
  4 15  1  6  0  0  0
  4  7  1  0  0  0  0
  4  5  1  0  0  0  0
  5  6  1  0  0  0  0
  5 16  1  0  0  0  0
  7 18  1  1  0  0  0
  7  6  1  0  0  0  0
  8  7  1  0  0  0  0
  9  8  3  0  0  0  0
 11  1  1  0  0  0  0
 12  1  1  0  0  0  0
 14  3  1  0  0  0  0
 17  5  1  0  0  0  0
 19  9  1  0  0  0  0
M TOR 0 0 1 2 3
M TOR 1 0 1 2 12
M TOR 2 0 1 2 13
M TOR 3 1 2 3 4
M TOR 4 1 2 3 6
M TOR 5 1 2 3 14
M TOR 6 2 1 0 9
M TOR 7 2 1 0 10
M TOR 8 2 1 0 11
M TOR 9 2 3 4 5
M TOR 10 2 3 4 15
M TOR 11 2 3 4 16
M TOR 12 2 3 6 5
M TOR 13 2 3 6 7
M TOR 14 2 3 6 17
M TOR 15 3 4 5 6
M TOR 16 3 6 7 8
M TOR 17 4 3 2 12
M TOR 18 4 3 2 13
M TOR 19 4 3 6 7
M TOR 20 4 3 6 17
M TOR 21 4 5 6 7
M TOR 22 4 5 6 17
M TOR 23 5 4 3 14
M TOR 24 5 6 3 14
M TOR 25 5 6 7 8
M TOR 26 6 3 2 12
M TOR 27 6 3 2 13
M TOR 28 6 3 4 15
M TOR 29 6 3 4 16
M TOR 30 6 5 4 15
M TOR 31 6 5 4 16
M TOR 32 6 7 8 18
M TOR 33 7 6 3 14
M TOR 34 8 7 6 17
M  END
$$$$
