
     RDKit          3D

 19 20  0  0  0  0  0  0  0  0999 V2000
   -0.1316    0.0439    0.0817 C   0  0  0  0  0  0  0  0  0  0  0  0
    1.3936   -0.0170   -0.0473 C   0  0  0  0  0  0  0  0  0  0  0  0
    2.0604   -0.7654    1.1571 C   0  0  0  0  0  0  0  0  0  0  0  0
    2.5245    0.3233    2.1018 C   0  0  0  0  0  0  0  0  0  0  0  0
    1.5226    1.3085    2.3916 O   0  0  0  0  0  0  0  0  0  0  0  0
    2.5168    1.6109    1.4024 C   0  0  0  0  0  0  0  0  0  0  0  0
    2.0474    1.4067   -0.0228 C   0  0  0  0  0  0  0  0  0  0  0  0
    1.7943   -0.7157   -1.3376 C   0  0  0  0  0  0  0  0  0  0  0  0
    1.0377   -1.1656   -2.1562 O   0  0  0  0  0  0  0  0  0  0  0  0
   -0.4081    0.5467    1.0096 H   0  0  0  0  0  0  0  0  0  0  0  0
   -0.5682    0.5844   -0.7629 H   0  0  0  0  0  0  0  0  0  0  0  0
   -0.5590   -0.9628    0.0782 H   0  0  0  0  0  0  0  0  0  0  0  0
    1.3623   -1.4679    1.6214 H   0  0  0  0  0  0  0  0  0  0  0  0
    2.9380   -1.3424    0.8346 H   0  0  0  0  0  0  0  0  0  0  0  0
    3.2021    0.0933    2.9204 H   0  0  0  0  0  0  0  0  0  0  0  0
    3.1881    2.4290    1.6516 H   0  0  0  0  0  0  0  0  0  0  0  0
    1.3405    2.1721   -0.3557 H   0  0  0  0  0  0  0  0  0  0  0  0
    2.9211    1.4584   -0.6868 H   0  0  0  0  0  0  0  0  0  0  0  0
    2.9007   -0.7867   -1.4814 H   0  0  0  0  0  0  0  0  0  0  0  0
  1  2  1  0
  2  3  1  0
  3  4  1  0
  4  5  1  0
  5  6  1  0
  6  7  1  0
  2  8  1  0
  8  9  2  0
  7  2  1  0
  6  4  1  0
  1 10  1  0
  1 11  1  0
  1 12  1  0
  3 13  1  0
  3 14  1  0
  4 15  1  0
  6 16  1  0
  7 17  1  0
  7 18  1  0
  8 19  1  0
M  END
$$$$
