
     RDKit          3D

 19 21  0  0  0  0  0  0  0  0999 V2000
   -3.1976    0.2386    3.6080 C   0  0  0  0  0  0  0  0  0  0  0  0
   -2.4787    0.4262    2.2952 C   0  0  0  0  0  0  0  0  0  0  0  0
   -0.9722    0.2001    2.2054 C   0  0  0  0  0  0  0  0  0  0  0  0
   -0.6854   -0.1116    0.7008 C   0  0  0  0  0  0  0  0  0  0  0  0
    0.4172    0.5783    0.1558 O   0  0  0  0  0  0  0  0  0  0  0  0
   -1.9982    0.2871    0.0216 C   0  0  0  0  0  0  0  0  0  0  0  0
   -2.1318    1.7349    0.2602 O   0  0  0  0  0  0  0  0  0  0  0  0
   -3.0503    1.4405    1.3197 C   0  0  0  0  0  0  0  0  0  0  0  0
   -3.1437   -0.0212    0.9974 C   0  0  0  0  0  0  0  0  0  0  0  0
   -3.0744   -0.7834    3.9843 H   0  0  0  0  0  0  0  0  0  0  0  0
   -2.8120    0.9238    4.3712 H   0  0  0  0  0  0  0  0  0  0  0  0
   -4.2720    0.4269    3.5061 H   0  0  0  0  0  0  0  0  0  0  0  0
   -0.3955    1.0777    2.5152 H   0  0  0  0  0  0  0  0  0  0  0  0
   -0.6703   -0.6302    2.8517 H   0  0  0  0  0  0  0  0  0  0  0  0
   -0.4840   -1.1783    0.5533 H   0  0  0  0  0  0  0  0  0  0  0  0
    0.1558    1.5091    0.1445 H   0  0  0  0  0  0  0  0  0  0  0  0
   -2.0880    0.0488   -1.0388 H   0  0  0  0  0  0  0  0  0  0  0  0
   -3.7943    2.1894    1.5676 H   0  0  0  0  0  0  0  0  0  0  0  0
   -3.9820   -0.6942    0.8823 H   0  0  0  0  0  0  0  0  0  0  0  0
  1  2  1  0
  2  3  1  0
  3  4  1  0
  4  5  1  0
  4  6  1  0
  6  7  1  0
  7  8  1  0
  8  9  1  0
  8  2  1  0
  9  2  1  0
  9  6  1  0
  1 10  1  0
  1 11  1  0
  1 12  1  0
  3 13  1  0
  3 14  1  0
  4 15  1  0
  5 16  1  0
  6 17  1  0
  8 18  1  0
  9 19  1  0
M  END
$$$$
