gdb 4414	3.4201433	1.2704037	1.1153797	2.1709	75.16	-0.23489	0.06763	0.30252	1144.978	0.156386	-422.483246	-422.474996	-422.474052	-422.516232	30.911
 OpenBabel02181911413D

 19 21  0  0  1  0  0  0  0  0999 V2000
    0.0545    0.1127    0.0611 C   0  0  0  0  0  0  0  0  0  0  0  0
    1.5419   -0.0700   -0.1735 C   0  0  2  0  0  0  0  0  0  0  0  0
    1.8255   -1.1248   -1.1274 O   0  0  0  0  0  0  0  0  0  0  0  0
    2.7023   -1.8161   -0.2067 C   0  0  0  0  0  0  0  0  0  0  0  0
    2.3866   -0.7974    0.8786 C   0  0  1  0  0  0  0  0  0  0  0  0
    3.2388   -0.1531    1.9403 C   0  0  2  0  0  0  0  0  0  0  0  0
    4.0503   -1.2354    2.6458 C   0  0  0  0  0  0  0  0  0  0  0  0
    2.8589   -2.0410    2.8730 O   0  0  0  0  0  0  0  0  0  0  0  0
    2.0419   -1.0096    2.3108 C   0  0  2  0  0  0  0  0  0  0  0  0
   -0.1287    0.8986    0.8027 H   0  0  0  0  0  0  0  0  0  0  0  0
   -0.4349    0.4088   -0.8719 H   0  0  0  0  0  0  0  0  0  0  0  0
   -0.4021   -0.8174    0.4107 H   0  0  0  0  0  0  0  0  0  0  0  0
    1.9914    0.8772   -0.5082 H   0  0  0  0  0  0  0  0  0  0  0  0
    2.3759   -2.8439   -0.0118 H   0  0  0  0  0  0  0  0  0  0  0  0
    3.7414   -1.8265   -0.5623 H   0  0  0  0  0  0  0  0  0  0  0  0
    3.3974    0.9158    2.0044 H   0  0  0  0  0  0  0  0  0  0  0  0
    4.8102   -1.7685    2.0622 H   0  0  0  0  0  0  0  0  0  0  0  0
    4.4769   -0.9109    3.6010 H   0  0  0  0  0  0  0  0  0  0  0  0
    1.0892   -0.7974    2.7829 H   0  0  0  0  0  0  0  0  0  0  0  0
  1 12  1  0  0  0  0
  1 10  1  0  0  0  0
  2 13  1  6  0  0  0
  2  1  1  0  0  0  0
  2  5  1  0  0  0  0
  3  4  1  0  0  0  0
  3  2  1  0  0  0  0
  4 14  1  0  0  0  0
  5  4  1  6  0  0  0
  5  6  1  0  0  0  0
  5  9  1  0  0  0  0
  6 16  1  1  0  0  0
  6  9  1  0  0  0  0
  6  7  1  0  0  0  0
  7  8  1  0  0  0  0
  7 18  1  0  0  0  0
  9 19  1  1  0  0  0
  9  8  1  0  0  0  0
 11  1  1  0  0  0  0
 15  4  1  0  0  0  0
 17  7  1  0  0  0  0
M TOR 0 0 1 2 3
M TOR 1 0 1 4 3
M TOR 2 0 1 4 5
M TOR 3 0 1 4 8
M TOR 4 1 2 3 4
M TOR 5 1 2 3 13
M TOR 6 1 2 3 14
M TOR 7 1 4 3 13
M TOR 8 1 4 3 14
M TOR 9 1 4 5 6
M TOR 10 1 4 5 8
M TOR 11 1 4 5 15
M TOR 12 1 4 8 7
M TOR 13 1 4 8 18
M TOR 14 2 1 0 9
M TOR 15 2 1 0 10
M TOR 16 2 1 0 11
M TOR 17 2 1 4 5
M TOR 18 2 1 4 8
M TOR 19 2 3 4 5
M TOR 20 2 3 4 8
M TOR 21 3 2 1 12
M TOR 22 3 4 1 12
M TOR 23 3 4 5 6
M TOR 24 3 4 5 8
M TOR 25 3 4 5 15
M TOR 26 3 4 8 7
M TOR 27 3 4 8 18
M TOR 28 4 1 0 9
M TOR 29 4 1 0 10
M TOR 30 4 1 0 11
M TOR 31 4 5 6 7
M TOR 32 4 5 6 16
M TOR 33 4 5 6 17
M TOR 34 4 5 8 7
M TOR 35 4 5 8 18
M TOR 36 4 8 5 6
M TOR 37 4 8 5 15
M TOR 38 4 8 7 6
M TOR 39 5 4 1 12
M TOR 40 5 4 3 13
M TOR 41 5 4 3 14
M TOR 42 5 6 7 8
M TOR 43 6 5 8 18
M TOR 44 6 7 8 18
M TOR 45 7 6 5 15
M TOR 46 7 8 5 15
M TOR 47 8 4 1 12
M TOR 48 8 4 3 13
M TOR 49 8 4 3 14
M TOR 50 8 5 6 16
M TOR 51 8 5 6 17
M TOR 52 8 7 6 16
M TOR 53 8 7 6 17
M  END
$$$$
