
     RDKit          3D

 19 20  0  0  0  0  0  0  0  0999 V2000
    1.4194   -0.4969   -0.0585 O   0  0  0  0  0  0  0  0  0  0  0  0
    0.2783   -0.1192   -0.0043 C   0  0  0  0  0  0  0  0  0  0  0  0
   -0.3032    0.7229    1.1131 C   0  0  0  0  0  0  0  0  0  0  0  0
   -0.9562    1.9848    0.5753 C   0  0  0  0  0  0  0  0  0  0  0  0
   -0.1148    3.2090    0.2750 C   0  0  0  0  0  0  0  0  0  0  0  0
   -1.0674    3.2119    1.4300 C   0  0  0  0  0  0  0  0  0  0  0  0
   -2.2880    4.0954    1.6696 C   0  0  0  0  0  0  0  0  0  0  0  0
   -1.9712    4.1859    3.0757 O   0  0  0  0  0  0  0  0  0  0  0  0
   -0.7845    3.3773    2.9209 C   0  0  0  0  0  0  0  0  0  0  0  0
   -0.4482   -0.3720   -0.8124 H   0  0  0  0  0  0  0  0  0  0  0  0
   -1.0532    0.1125    1.6378 H   0  0  0  0  0  0  0  0  0  0  0  0
    0.4987    0.9524    1.8211 H   0  0  0  0  0  0  0  0  0  0  0  0
   -1.7926    1.8066   -0.0982 H   0  0  0  0  0  0  0  0  0  0  0  0
    0.9480    3.1563    0.4939 H   0  0  0  0  0  0  0  0  0  0  0  0
   -0.3615    3.8053   -0.5978 H   0  0  0  0  0  0  0  0  0  0  0  0
   -2.2687    5.0785    1.1802 H   0  0  0  0  0  0  0  0  0  0  0  0
   -3.2662    3.6269    1.4969 H   0  0  0  0  0  0  0  0  0  0  0  0
    0.1276    3.9330    3.1756 H   0  0  0  0  0  0  0  0  0  0  0  0
   -0.8285    2.4640    3.5292 H   0  0  0  0  0  0  0  0  0  0  0  0
  1  2  2  0
  2  3  1  0
  3  4  1  0
  4  5  1  0
  5  6  1  0
  6  7  1  0
  7  8  1  0
  8  9  1  0
  6  4  1  0
  9  6  1  0
  2 10  1  0
  3 11  1  0
  3 12  1  0
  4 13  1  0
  5 14  1  0
  5 15  1  0
  7 16  1  0
  7 17  1  0
  9 18  1  0
  9 19  1  0
M  END
$$$$
