
     RDKit          3D

 19 19  0  0  0  0  0  0  0  0999 V2000
    4.4712    1.4207   -0.0604 O   0  0  0  0  0  0  0  0  0  0  0  0
    3.0646    1.4117    0.1128 C   0  0  0  0  0  0  0  0  0  0  0  0
    2.5599   -0.0519    0.0136 C   0  0  0  0  0  0  0  0  0  0  0  0
    1.1110   -0.2025    0.0148 C   0  0  0  0  0  0  0  0  0  0  0  0
   -0.0857   -0.3208    0.0064 C   0  0  0  0  0  0  0  0  0  0  0  0
    2.7066    2.0855    1.4246 C   0  0  0  0  0  0  0  0  0  0  0  0
    3.3450    1.4727    2.5261 O   0  0  0  0  0  0  0  0  0  0  0  0
    1.3793    2.7527    1.6445 C   0  0  0  0  0  0  0  0  0  0  0  0
    2.6407    3.5804    1.4949 C   0  0  0  0  0  0  0  0  0  0  0  0
    4.8451    1.2422    0.8125 H   0  0  0  0  0  0  0  0  0  0  0  0
    2.6367    1.9853   -0.7163 H   0  0  0  0  0  0  0  0  0  0  0  0
    2.9816   -0.4759   -0.9041 H   0  0  0  0  0  0  0  0  0  0  0  0
    3.0005   -0.6251    0.8403 H   0  0  0  0  0  0  0  0  0  0  0  0
   -1.1418   -0.4308   -0.0016 H   0  0  0  0  0  0  0  0  0  0  0  0
    2.8050    0.7254    2.8069 H   0  0  0  0  0  0  0  0  0  0  0  0
    0.6570    2.7416    0.8371 H   0  0  0  0  0  0  0  0  0  0  0  0
    0.9511    2.6740    2.6379 H   0  0  0  0  0  0  0  0  0  0  0  0
    2.7912    4.1442    0.5812 H   0  0  0  0  0  0  0  0  0  0  0  0
    3.0453    4.0377    2.3900 H   0  0  0  0  0  0  0  0  0  0  0  0
  1  2  1  0
  2  3  1  0
  3  4  1  0
  4  5  3  0
  2  6  1  0
  6  7  1  0
  6  8  1  0
  8  9  1  0
  9  6  1  0
  1 10  1  0
  2 11  1  0
  3 12  1  0
  3 13  1  0
  5 14  1  0
  7 15  1  0
  8 16  1  0
  8 17  1  0
  9 18  1  0
  9 19  1  0
M  END
$$$$
