
     RDKit          3D

 19 21  0  0  0  0  0  0  0  0999 V2000
   -1.9661   -2.3633    0.5885 C   0  0  0  0  0  0  0  0  0  0  0  0
   -1.6691   -0.9242    0.3344 C   0  0  0  0  0  0  0  0  0  0  0  0
   -2.5624    0.0917   -0.3452 C   0  0  0  0  0  0  0  0  0  0  0  0
   -1.1502   -0.0970   -0.8309 C   0  0  0  0  0  0  0  0  0  0  0  0
   -0.8734   -0.3576   -2.1554 O   0  0  0  0  0  0  0  0  0  0  0  0
   -0.2011    0.4995    0.1784 C   0  0  0  0  0  0  0  0  0  0  0  0
    0.3576    1.8685    0.3466 C   0  0  0  0  0  0  0  0  0  0  0  0
    1.2759    0.6838    0.0584 C   0  0  0  0  0  0  0  0  0  0  0  0
   -0.7894   -0.2449    1.2571 O   0  0  0  0  0  0  0  0  0  0  0  0
   -2.5706   -2.4837    1.4948 H   0  0  0  0  0  0  0  0  0  0  0  0
   -2.5276   -2.7868   -0.2493 H   0  0  0  0  0  0  0  0  0  0  0  0
   -1.0426   -2.9364    0.7188 H   0  0  0  0  0  0  0  0  0  0  0  0
   -3.3051   -0.3413   -1.0091 H   0  0  0  0  0  0  0  0  0  0  0  0
   -2.8653    0.9990    0.1710 H   0  0  0  0  0  0  0  0  0  0  0  0
   -0.0826   -0.9086   -2.1924 H   0  0  0  0  0  0  0  0  0  0  0  0
    0.1894    2.5981   -0.4388 H   0  0  0  0  0  0  0  0  0  0  0  0
    0.3761    2.2734    1.3525 H   0  0  0  0  0  0  0  0  0  0  0  0
    1.7268    0.6146   -0.9270 H   0  0  0  0  0  0  0  0  0  0  0  0
    1.8910    0.3145    0.8716 H   0  0  0  0  0  0  0  0  0  0  0  0
  1  2  1  0
  2  3  1  0
  3  4  1  0
  4  5  1  0
  4  6  1  0
  6  7  1  0
  7  8  1  0
  6  9  1  0
  4  2  1  0
  8  6  1  0
  9  2  1  0
  1 10  1  0
  1 11  1  0
  1 12  1  0
  3 13  1  0
  3 14  1  0
  5 15  1  0
  7 16  1  0
  7 17  1  0
  8 18  1  0
  8 19  1  0
M  END
$$$$
