
     RDKit          3D

 19 20  0  0  0  0  0  0  0  0999 V2000
   -0.0546    1.4119    0.1354 O   0  0  0  0  0  0  0  0  0  0  0  0
    0.0188    0.0162    0.0502 C   0  0  0  0  0  0  0  0  0  0  0  0
    0.3509   -0.7013   -1.3215 C   0  0  0  0  0  0  0  0  0  0  0  0
   -0.6929   -1.8043   -0.9521 C   0  0  0  0  0  0  0  0  0  0  0  0
   -1.9451   -2.1735   -1.8002 C   0  0  0  0  0  0  0  0  0  0  0  0
   -2.0874   -1.3894   -2.9724 O   0  0  0  0  0  0  0  0  0  0  0  0
   -3.1150   -1.9056   -0.7947 C   0  0  0  0  0  0  0  0  0  0  0  0
   -2.5703   -0.7778    0.0808 C   0  0  0  0  0  0  0  0  0  0  0  0
   -1.2394   -0.8229    0.0517 C   0  0  0  0  0  0  0  0  0  0  0  0
   -0.7575    1.7030   -0.4560 H   0  0  0  0  0  0  0  0  0  0  0  0
    0.7350   -0.2949    0.8180 H   0  0  0  0  0  0  0  0  0  0  0  0
    0.0147   -0.1014   -2.1716 H   0  0  0  0  0  0  0  0  0  0  0  0
    1.3870   -1.0073   -1.4797 H   0  0  0  0  0  0  0  0  0  0  0  0
   -0.2205   -2.6944   -0.5237 H   0  0  0  0  0  0  0  0  0  0  0  0
   -1.9252   -3.2083   -2.1524 H   0  0  0  0  0  0  0  0  0  0  0  0
   -2.2720   -0.4849   -2.6943 H   0  0  0  0  0  0  0  0  0  0  0  0
   -4.0287   -1.6370   -1.3363 H   0  0  0  0  0  0  0  0  0  0  0  0
   -3.3473   -2.8054   -0.2089 H   0  0  0  0  0  0  0  0  0  0  0  0
   -3.1954   -0.0435    0.5754 H   0  0  0  0  0  0  0  0  0  0  0  0
  1  2  1  0
  2  3  1  0
  3  4  1  0
  4  5  1  0
  5  6  1  0
  5  7  1  0
  7  8  1  0
  8  9  2  0
  9  2  1  0
  9  4  1  0
  1 10  1  0
  2 11  1  0
  3 12  1  0
  3 13  1  0
  4 14  1  0
  5 15  1  0
  6 16  1  0
  7 17  1  0
  7 18  1  0
  8 19  1  0
M  END
$$$$
