gdb 4855	2.7419402	1.4718674	1.2395725	0.7965	75.36	-0.24708	-0.00549	0.24159	1087.4956	0.155844	-422.548466	-422.539752	-422.538808	-422.581514	33.324
 OpenBabel02181911413D

 19 20  0  0  1  0  0  0  0  0999 V2000
    1.2066   -0.1304    0.9537 C   0  0  0  0  0  0  0  0  0  0  0  0
    0.9315    0.0557   -0.5431 C   0  0  0  0  0  0  0  0  0  0  0  0
    1.8332   -0.7883   -1.4643 C   0  0  2  0  0  0  0  0  0  0  0  0
    3.2187   -0.5242   -1.2535 O   0  0  0  0  0  0  0  0  0  0  0  0
    1.5355   -0.5218   -2.9314 C   0  0  0  0  0  0  0  0  0  0  0  0
    1.1902   -1.6243   -3.5979 C   0  0  0  0  0  0  0  0  0  0  0  0
    1.1835   -2.8024   -2.6808 C   0  0  2  0  0  0  0  0  0  0  0  0
    0.2146   -2.6920   -1.6033 O   0  0  0  0  0  0  0  0  0  0  0  0
    1.5645   -2.3033   -1.3549 C   0  0  2  0  0  0  0  0  0  0  0  0
    1.0813   -1.1736    1.2615 H   0  0  0  0  0  0  0  0  0  0  0  0
    2.2175    0.1910    1.2325 H   0  0  0  0  0  0  0  0  0  0  0  0
    0.5136    0.4728    1.5471 H   0  0  0  0  0  0  0  0  0  0  0  0
   -0.1060   -0.2135   -0.7619 H   0  0  0  0  0  0  0  0  0  0  0  0
    1.0591    1.1108   -0.8118 H   0  0  0  0  0  0  0  0  0  0  0  0
    3.3909   -0.5773   -0.3069 H   0  0  0  0  0  0  0  0  0  0  0  0
    1.5733    0.4845   -3.3334 H   0  0  0  0  0  0  0  0  0  0  0  0
    0.9169   -1.6780   -4.6445 H   0  0  0  0  0  0  0  0  0  0  0  0
    1.3649   -3.8151   -3.0268 H   0  0  0  0  0  0  0  0  0  0  0  0
    2.1133   -2.8937   -0.6243 H   0  0  0  0  0  0  0  0  0  0  0  0
  1 11  1  0  0  0  0
  1 10  1  0  0  0  0
  1 12  1  0  0  0  0
  2  1  1  0  0  0  0
  3  9  1  0  0  0  0
  3  4  1  1  0  0  0
  3  2  1  0  0  0  0
  4 15  1  0  0  0  0
  5  3  1  0  0  0  0
  6  5  2  0  0  0  0
  6  7  1  0  0  0  0
  7 18  1  6  0  0  0
  7  8  1  0  0  0  0
  7  9  1  0  0  0  0
  8  9  1  0  0  0  0
  9 19  1  1  0  0  0
 13  2  1  0  0  0  0
 14  2  1  0  0  0  0
 16  5  1  0  0  0  0
 17  6  1  0  0  0  0
M TOR 0 0 1 2 3
M TOR 1 0 1 2 4
M TOR 2 0 1 2 8
M TOR 3 1 2 3 14
M TOR 4 1 2 4 5
M TOR 5 1 2 4 15
M TOR 6 1 2 8 6
M TOR 7 1 2 8 7
M TOR 8 1 2 8 18
M TOR 9 2 1 0 9
M TOR 10 2 1 0 10
M TOR 11 2 1 0 11
M TOR 12 2 4 5 6
M TOR 13 2 4 5 16
M TOR 14 2 8 6 5
M TOR 15 2 8 6 7
M TOR 16 2 8 6 17
M TOR 17 3 2 1 12
M TOR 18 3 2 1 13
M TOR 19 3 2 4 5
M TOR 20 3 2 4 15
M TOR 21 3 2 8 6
M TOR 22 3 2 8 7
M TOR 23 3 2 8 18
M TOR 24 4 2 1 12
M TOR 25 4 2 1 13
M TOR 26 4 2 3 14
M TOR 27 4 2 8 6
M TOR 28 4 2 8 7
M TOR 29 4 2 8 18
M TOR 30 4 5 6 7
M TOR 31 4 5 6 8
M TOR 32 4 5 6 17
M TOR 33 5 4 2 8
M TOR 34 5 6 7 8
M TOR 35 5 6 8 18
M TOR 36 6 5 4 15
M TOR 37 6 7 8 18
M TOR 38 7 6 5 16
M TOR 39 7 8 6 17
M TOR 40 8 2 1 12
M TOR 41 8 2 1 13
M TOR 42 8 2 3 14
M TOR 43 8 2 4 15
M TOR 44 8 6 5 16
M  END
$$$$
