
     RDKit          3D

 19 20  0  0  0  0  0  0  0  0999 V2000
   -1.0508   -2.3778    0.9770 C   0  0  0  0  0  0  0  0  0  0  0  0
   -1.0216   -1.0720    0.2573 C   0  0  0  0  0  0  0  0  0  0  0  0
   -1.7769   -0.9283   -0.9759 O   0  0  0  0  0  0  0  0  0  0  0  0
   -2.0082    0.0241    0.0566 C   0  0  0  0  0  0  0  0  0  0  0  0
   -0.9332    1.1253   -0.0984 C   0  0  0  0  0  0  0  0  0  0  0  0
   -0.8630    2.0826    1.0955 C   0  0  0  0  0  0  0  0  0  0  0  0
   -0.8916    1.8515   -1.4388 C   0  0  0  0  0  0  0  0  0  0  0  0
    0.0975   -0.0402    0.1113 C   0  0  0  0  0  0  0  0  0  0  0  0
    1.2824   -0.0654    0.2717 O   0  0  0  0  0  0  0  0  0  0  0  0
   -0.4210   -3.1121    0.4647 H   0  0  0  0  0  0  0  0  0  0  0  0
   -0.6699   -2.2619    1.9961 H   0  0  0  0  0  0  0  0  0  0  0  0
   -2.0707   -2.7687    1.0204 H   0  0  0  0  0  0  0  0  0  0  0  0
   -3.0100    0.1027    0.4652 H   0  0  0  0  0  0  0  0  0  0  0  0
   -0.9254    1.5504    2.0509 H   0  0  0  0  0  0  0  0  0  0  0  0
    0.0808    2.6351    1.0816 H   0  0  0  0  0  0  0  0  0  0  0  0
   -1.6843    2.8063    1.0561 H   0  0  0  0  0  0  0  0  0  0  0  0
   -1.0299    1.1499   -2.2643 H   0  0  0  0  0  0  0  0  0  0  0  0
   -1.6743    2.6166   -1.4943 H   0  0  0  0  0  0  0  0  0  0  0  0
    0.0743    2.3503   -1.5683 H   0  0  0  0  0  0  0  0  0  0  0  0
  1  2  1  0
  2  3  1  0
  3  4  1  0
  4  5  1  0
  5  6  1  0
  5  7  1  0
  5  8  1  0
  8  9  2  0
  4  2  1  0
  8  2  1  0
  1 10  1  0
  1 11  1  0
  1 12  1  0
  4 13  1  0
  6 14  1  0
  6 15  1  0
  6 16  1  0
  7 17  1  0
  7 18  1  0
  7 19  1  0
M  END
$$$$
