
     RDKit          3D

 19 20  0  0  0  0  0  0  0  0999 V2000
    0.0466   -0.3317    0.0446 C   0  0  0  0  0  0  0  0  0  0  0  0
    1.5616   -0.1531    0.0227 C   0  0  0  0  0  0  0  0  0  0  0  0
    2.2563   -0.9741    1.1098 C   0  0  0  0  0  0  0  0  0  0  0  0
    2.2592   -0.3288   -1.3862 C   0  0  0  0  0  0  0  0  0  0  0  0
    2.7037    1.1344   -1.3231 C   0  0  0  0  0  0  0  0  0  0  0  0
    1.5476    1.9411   -1.2039 O   0  0  0  0  0  0  0  0  0  0  0  0
    2.0394    1.3210    0.0012 C   0  0  0  0  0  0  0  0  0  0  0  0
    2.4300    2.2473    1.0801 C   0  0  0  0  0  0  0  0  0  0  0  0
    2.4394    1.9697    2.2554 O   0  0  0  0  0  0  0  0  0  0  0  0
   -0.3631   -0.0714    1.0264 H   0  0  0  0  0  0  0  0  0  0  0  0
   -0.4305    0.3013   -0.7078 H   0  0  0  0  0  0  0  0  0  0  0  0
   -0.2200   -1.3737   -0.1633 H   0  0  0  0  0  0  0  0  0  0  0  0
    2.0603   -2.0406    0.9543 H   0  0  0  0  0  0  0  0  0  0  0  0
    3.3411   -0.8254    1.0962 H   0  0  0  0  0  0  0  0  0  0  0  0
    1.8983   -0.6920    2.1024 H   0  0  0  0  0  0  0  0  0  0  0  0
    3.0898   -1.0372   -1.3549 H   0  0  0  0  0  0  0  0  0  0  0  0
    1.6070   -0.5615   -2.2314 H   0  0  0  0  0  0  0  0  0  0  0  0
    3.5993    1.6031   -1.7170 H   0  0  0  0  0  0  0  0  0  0  0  0
    2.7250    3.2514    0.7036 H   0  0  0  0  0  0  0  0  0  0  0  0
  1  2  1  0
  2  3  1  0
  2  4  1  0
  4  5  1  0
  5  6  1  0
  6  7  1  0
  7  8  1  0
  8  9  2  0
  7  2  1  0
  7  5  1  0
  1 10  1  0
  1 11  1  0
  1 12  1  0
  3 13  1  0
  3 14  1  0
  3 15  1  0
  4 16  1  0
  4 17  1  0
  5 18  1  0
  8 19  1  0
M  END
$$$$
