gdb 2972	1.920292	1.7177821	1.1235521	2.3289	77.5	-0.24196	-0.02468	0.21728	1146.2797	0.155532	-422.541795	-422.532718	-422.531774	-422.575329	33.702
 OpenBabel02181911413D

 19 20  0  0  1  0  0  0  0  0999 V2000
    0.8971   -0.4107   -0.7992 C   0  0  0  0  0  0  0  0  0  0  0  0
    0.9358    0.1913    0.6006 C   0  0  2  0  0  0  0  0  0  0  0  0
    1.6605    1.5744    0.6924 C   0  0  0  0  0  0  0  0  0  0  0  0
    2.6848    0.9964    1.6734 C   0  0  1  0  0  0  0  0  0  0  0  0
    2.0388    0.4078    2.8551 C   0  0  1  0  0  0  0  0  0  0  0  0
    0.8970    1.0104    3.3773 O   0  0  0  0  0  0  0  0  0  0  0  0
    1.9814   -0.4083    1.5630 C   0  0  1  0  0  0  0  0  0  0  0  0
    2.6491   -1.7124    1.5031 C   0  0  0  0  0  0  0  0  0  0  0  0
    3.5843   -2.0349    2.2064 O   0  0  0  0  0  0  0  0  0  0  0  0
    0.4790   -1.4229   -0.7969 H   0  0  0  0  0  0  0  0  0  0  0  0
    0.2726    0.2027   -1.4574 H   0  0  0  0  0  0  0  0  0  0  0  0
    1.8988   -0.4634   -1.2413 H   0  0  0  0  0  0  0  0  0  0  0  0
   -0.0727    0.2056    1.0261 H   0  0  0  0  0  0  0  0  0  0  0  0
    2.1153    1.8544   -0.2604 H   0  0  0  0  0  0  0  0  0  0  0  0
    1.0702    2.4117    1.0708 H   0  0  0  0  0  0  0  0  0  0  0  0
    3.7551    1.1642    1.6450 H   0  0  0  0  0  0  0  0  0  0  0  0
    2.7206   -0.0328    3.5809 H   0  0  0  0  0  0  0  0  0  0  0  0
    0.4004    0.3433    3.8630 H   0  0  0  0  0  0  0  0  0  0  0  0
    2.2389   -2.4208    0.7493 H   0  0  0  0  0  0  0  0  0  0  0  0
  1 10  1  0  0  0  0
  1  2  1  0  0  0  0
  2  3  1  0  0  0  0
  2 13  1  1  0  0  0
  2  7  1  0  0  0  0
  3 15  1  0  0  0  0
  3  4  1  0  0  0  0
  4 16  1  6  0  0  0
  4  5  1  0  0  0  0
  5  6  1  0  0  0  0
  5 17  1  1  0  0  0
  6 18  1  0  0  0  0
  7  8  1  6  0  0  0
  7  4  1  0  0  0  0
  7  5  1  0  0  0  0
  8  9  2  0  0  0  0
 11  1  1  0  0  0  0
 12  1  1  0  0  0  0
 14  3  1  0  0  0  0
 19  8  1  0  0  0  0
M TOR 0 0 1 2 3
M TOR 1 0 1 2 13
M TOR 2 0 1 2 14
M TOR 3 0 1 6 3
M TOR 4 0 1 6 4
M TOR 5 0 1 6 7
M TOR 6 1 2 3 4
M TOR 7 1 2 3 6
M TOR 8 1 2 3 15
M TOR 9 1 6 3 4
M TOR 10 1 6 3 15
M TOR 11 1 6 4 5
M TOR 12 1 6 4 16
M TOR 13 1 6 7 8
M TOR 14 1 6 7 18
M TOR 15 2 1 0 9
M TOR 16 2 1 0 10
M TOR 17 2 1 0 11
M TOR 18 2 1 6 4
M TOR 19 2 1 6 7
M TOR 20 2 3 4 5
M TOR 21 2 3 4 6
M TOR 22 2 3 4 16
M TOR 23 2 3 6 7
M TOR 24 3 2 1 12
M TOR 25 3 4 5 17
M TOR 26 3 4 6 7
M TOR 27 3 6 1 12
M TOR 28 3 6 4 5
M TOR 29 3 6 4 16
M TOR 30 3 6 7 8
M TOR 31 3 6 7 18
M TOR 32 4 3 2 13
M TOR 33 4 3 2 14
M TOR 34 4 6 1 12
M TOR 35 4 6 3 15
M TOR 36 4 6 7 8
M TOR 37 4 6 7 18
M TOR 38 5 4 3 15
M TOR 39 5 4 6 7
M TOR 40 6 1 0 9
M TOR 41 6 1 0 10
M TOR 42 6 1 0 11
M TOR 43 6 1 2 13
M TOR 44 6 1 2 14
M TOR 45 6 3 2 13
M TOR 46 6 3 2 14
M TOR 47 6 4 5 17
M TOR 48 7 6 1 12
M TOR 49 7 6 3 15
M TOR 50 7 6 4 16
M  END
$$$$
