
     RDKit          3D

 19 19  0  0  0  0  0  0  0  0999 V2000
   -0.1768    1.3473   -1.2639 O   0  0  0  0  0  0  0  0  0  0  0  0
    0.1384    0.2990   -0.3496 C   0  0  0  0  0  0  0  0  0  0  0  0
   -0.3736    0.5770    1.0308 C   0  0  0  0  0  0  0  0  0  0  0  0
    0.3404    0.6477    2.1547 C   0  0  0  0  0  0  0  0  0  0  0  0
   -0.4968    0.9953    3.3599 C   0  0  0  0  0  0  0  0  0  0  0  0
   -1.9613    0.8657    2.8354 C   0  0  0  0  0  0  0  0  0  0  0  0
   -1.8357    0.8854    1.2835 C   0  0  0  0  0  0  0  0  0  0  0  0
   -2.8489    1.9713    3.3521 C   0  0  0  0  0  0  0  0  0  0  0  0
   -3.8400    1.8230    4.0181 O   0  0  0  0  0  0  0  0  0  0  0  0
    0.2513    2.1469   -0.9398 H   0  0  0  0  0  0  0  0  0  0  0  0
   -0.3485   -0.5918   -0.7652 H   0  0  0  0  0  0  0  0  0  0  0  0
    1.2196    0.0981   -0.3203 H   0  0  0  0  0  0  0  0  0  0  0  0
    1.4142    0.5026    2.2169 H   0  0  0  0  0  0  0  0  0  0  0  0
   -0.3196    0.3411    4.2198 H   0  0  0  0  0  0  0  0  0  0  0  0
   -0.2752    2.0171    3.7045 H   0  0  0  0  0  0  0  0  0  0  0  0
   -2.3888   -0.0844    3.1639 H   0  0  0  0  0  0  0  0  0  0  0  0
   -2.5122    0.1640    0.8126 H   0  0  0  0  0  0  0  0  0  0  0  0
   -2.0971    1.8644    0.8585 H   0  0  0  0  0  0  0  0  0  0  0  0
   -2.5024    2.9930    3.0581 H   0  0  0  0  0  0  0  0  0  0  0  0
  1  2  1  0
  2  3  1  0
  3  4  2  0
  4  5  1  0
  5  6  1  0
  6  7  1  0
  6  8  1  0
  8  9  2  0
  7  3  1  0
  1 10  1  0
  2 11  1  0
  2 12  1  0
  4 13  1  0
  5 14  1  0
  5 15  1  0
  6 16  1  0
  7 17  1  0
  7 18  1  0
  8 19  1  0
M  END
$$$$
