
     RDKit          3D

 19 21  0  0  0  0  0  0  0  0999 V2000
   -0.7378    0.9333   -0.2345 O   0  0  0  0  0  0  0  0  0  0  0  0
   -1.9255    0.3804    0.3210 C   0  0  0  0  0  0  0  0  0  0  0  0
   -2.8959    0.1387   -0.8133 C   0  0  0  0  0  0  0  0  0  0  0  0
   -3.7612    1.4013   -0.9381 C   0  0  0  0  0  0  0  0  0  0  0  0
   -3.3055    2.3602    0.1533 C   0  0  0  0  0  0  0  0  0  0  0  0
   -2.7118    1.3858    1.1943 C   0  0  0  0  0  0  0  0  0  0  0  0
   -3.8502    0.6335    1.8896 C   0  0  0  0  0  0  0  0  0  0  0  0
   -4.7313    0.0183    0.9502 O   0  0  0  0  0  0  0  0  0  0  0  0
   -4.3438    0.1288   -0.3943 C   0  0  0  0  0  0  0  0  0  0  0  0
   -0.1108    1.0670    0.4838 H   0  0  0  0  0  0  0  0  0  0  0  0
   -1.6940   -0.5385    0.8816 H   0  0  0  0  0  0  0  0  0  0  0  0
   -2.5645   -0.4310   -1.6735 H   0  0  0  0  0  0  0  0  0  0  0  0
   -4.0795    1.7820   -1.9019 H   0  0  0  0  0  0  0  0  0  0  0  0
   -2.5365    3.0382   -0.2273 H   0  0  0  0  0  0  0  0  0  0  0  0
   -4.1228    2.9591    0.5695 H   0  0  0  0  0  0  0  0  0  0  0  0
   -2.0800    1.8717    1.9442 H   0  0  0  0  0  0  0  0  0  0  0  0
   -3.4475   -0.1473    2.5525 H   0  0  0  0  0  0  0  0  0  0  0  0
   -4.4409    1.3225    2.5075 H   0  0  0  0  0  0  0  0  0  0  0  0
   -5.0401   -0.4278   -1.0111 H   0  0  0  0  0  0  0  0  0  0  0  0
  1  2  1  0
  2  3  1  0
  3  4  1  0
  4  5  1  0
  5  6  1  0
  6  7  1  0
  7  8  1  0
  8  9  1  0
  6  2  1  0
  9  3  1  0
  9  4  1  0
  1 10  1  0
  2 11  1  0
  3 12  1  0
  4 13  1  0
  5 14  1  0
  5 15  1  0
  6 16  1  0
  7 17  1  0
  7 18  1  0
  9 19  1  0
M  END
$$$$
