
     RDKit          3D

 19 19  0  0  0  0  0  0  0  0999 V2000
   -0.8116    0.8640    0.7578 C   0  0  0  0  0  0  0  0  0  0  0  0
    0.2164    0.3001   -0.2300 C   0  0  0  0  0  0  0  0  0  0  0  0
    1.1596   -0.6580    0.2191 O   0  0  0  0  0  0  0  0  0  0  0  0
    1.9324   -0.3230    1.3644 C   0  0  0  0  0  0  0  0  0  0  0  0
    1.1188   -0.5029    2.5695 C   0  0  0  0  0  0  0  0  0  0  0  0
    0.1351   -0.6558    3.2479 C   0  0  0  0  0  0  0  0  0  0  0  0
   -1.2626   -0.7525    3.6408 C   0  0  0  0  0  0  0  0  0  0  0  0
   -2.1045    0.0644    2.6123 C   0  0  0  0  0  0  0  0  0  0  0  0
   -1.6786   -0.1318    1.2787 O   0  0  0  0  0  0  0  0  0  0  0  0
   -0.3061    1.4046    1.5643 H   0  0  0  0  0  0  0  0  0  0  0  0
   -1.3995    1.6054    0.1885 H   0  0  0  0  0  0  0  0  0  0  0  0
   -0.3121   -0.2023   -1.0461 H   0  0  0  0  0  0  0  0  0  0  0  0
    0.7374    1.1760   -0.6563 H   0  0  0  0  0  0  0  0  0  0  0  0
    2.7977   -0.9935    1.3463 H   0  0  0  0  0  0  0  0  0  0  0  0
    2.3179    0.7077    1.2990 H   0  0  0  0  0  0  0  0  0  0  0  0
   -1.5785   -1.8024    3.6238 H   0  0  0  0  0  0  0  0  0  0  0  0
   -1.4621   -0.3756    4.6508 H   0  0  0  0  0  0  0  0  0  0  0  0
   -3.1496   -0.2586    2.6747 H   0  0  0  0  0  0  0  0  0  0  0  0
   -2.0673    1.1289    2.8792 H   0  0  0  0  0  0  0  0  0  0  0  0
  1  2  1  0
  2  3  1  0
  3  4  1  0
  4  5  1  0
  5  6  3  0
  6  7  1  0
  7  8  1  0
  8  9  1  0
  9  1  1  0
  1 10  1  0
  1 11  1  0
  2 12  1  0
  2 13  1  0
  4 14  1  0
  4 15  1  0
  7 16  1  0
  7 17  1  0
  8 18  1  0
  8 19  1  0
M  END
$$$$
