gdb 2815	4.2184752	1.163912	1.0555	1.7856	74.38	-0.23532	0.07167	0.30699	1163.4482	0.158293	-422.528493	-422.520689	-422.519745	-422.56066	30.262
 OpenBabel02181911413D

 19 21  0  0  1  0  0  0  0  0999 V2000
    0.3318    0.0559    0.6223 O   0  0  0  0  0  0  0  0  0  0  0  0
   -0.8914    0.7316    0.5576 C   0  0  2  0  0  0  0  0  0  0  0  0
   -2.1576   -0.0573    0.3974 C   0  0  2  0  0  0  0  0  0  0  0  0
   -1.6087    0.8131   -0.7598 C   0  0  1  0  0  0  0  0  0  0  0  0
   -2.8171    1.7471   -0.6460 C   0  0  1  0  0  0  0  0  0  0  0  0
   -3.7448    1.6636   -1.7086 O   0  0  0  0  0  0  0  0  0  0  0  0
   -4.5167    0.4787   -1.5439 C   0  0  0  0  0  0  0  0  0  0  0  0
   -4.6908    0.3198   -0.0264 C   0  0  0  0  0  0  0  0  0  0  0  0
   -3.3732    0.8647    0.5399 C   0  0  1  0  0  0  0  0  0  0  0  0
    0.3289   -0.6518   -0.0308 H   0  0  0  0  0  0  0  0  0  0  0  0
   -0.8591    1.5893    1.2273 H   0  0  0  0  0  0  0  0  0  0  0  0
   -2.1609   -1.1366    0.5138 H   0  0  0  0  0  0  0  0  0  0  0  0
   -1.1218    0.5287   -1.6869 H   0  0  0  0  0  0  0  0  0  0  0  0
   -2.6023    2.8070   -0.4803 H   0  0  0  0  0  0  0  0  0  0  0  0
   -5.4571    0.6186   -2.0832 H   0  0  0  0  0  0  0  0  0  0  0  0
   -3.9981   -0.3904   -1.9751 H   0  0  0  0  0  0  0  0  0  0  0  0
   -5.5241    0.9380    0.3216 H   0  0  0  0  0  0  0  0  0  0  0  0
   -4.8895   -0.7139    0.2703 H   0  0  0  0  0  0  0  0  0  0  0  0
   -3.4975    1.3374    1.5185 H   0  0  0  0  0  0  0  0  0  0  0  0
  2  1  1  0  0  0  0
  2 11  1  1  0  0  0
  3 12  1  6  0  0  0
  3  9  1  0  0  0  0
  3  2  1  0  0  0  0
  4 13  1  6  0  0  0
  4  5  1  0  0  0  0
  4  3  1  0  0  0  0
  4  2  1  0  0  0  0
  5 14  1  1  0  0  0
  5  9  1  0  0  0  0
  6  7  1  0  0  0  0
  6  5  1  0  0  0  0
  7  8  1  0  0  0  0
  8 18  1  0  0  0  0
  8 17  1  0  0  0  0
  8  9  1  0  0  0  0
  9 19  1  1  0  0  0
 10  1  1  0  0  0  0
 15  7  1  0  0  0  0
 16  7  1  0  0  0  0
M TOR 0 0 1 2 3
M TOR 1 0 1 2 8
M TOR 2 0 1 2 11
M TOR 3 0 1 3 4
M TOR 4 0 1 3 12
M TOR 5 1 2 3 4
M TOR 6 1 2 3 12
M TOR 7 1 2 8 4
M TOR 8 1 2 8 7
M TOR 9 1 2 8 18
M TOR 10 1 3 2 8
M TOR 11 1 3 2 11
M TOR 12 1 3 4 5
M TOR 13 1 3 4 8
M TOR 14 1 3 4 13
M TOR 15 2 1 0 9
M TOR 16 2 3 1 10
M TOR 17 2 3 4 5
M TOR 18 2 3 4 8
M TOR 19 2 3 4 13
M TOR 20 2 8 4 5
M TOR 21 2 8 4 13
M TOR 22 2 8 7 6
M TOR 23 2 8 7 16
M TOR 24 2 8 7 17
M TOR 25 3 1 0 9
M TOR 26 3 2 8 7
M TOR 27 3 2 8 18
M TOR 28 3 4 5 6
M TOR 29 3 4 8 7
M TOR 30 3 4 8 18
M TOR 31 4 3 1 10
M TOR 32 4 3 2 11
M TOR 33 4 5 6 7
M TOR 34 4 5 6 14
M TOR 35 4 5 6 15
M TOR 36 4 8 2 11
M TOR 37 4 8 7 6
M TOR 38 4 8 7 16
M TOR 39 4 8 7 17
M TOR 40 5 4 3 12
M TOR 41 5 4 8 7
M TOR 42 5 4 8 18
M TOR 43 5 6 7 8
M TOR 44 5 6 7 16
M TOR 45 5 6 7 17
M TOR 46 6 5 4 8
M TOR 47 6 5 4 13
M TOR 48 6 7 8 18
M TOR 49 7 8 2 11
M TOR 50 7 8 4 13
M TOR 51 8 2 1 10
M TOR 52 8 2 3 12
M TOR 53 8 4 3 12
M TOR 54 8 7 6 14
M TOR 55 8 7 6 15
M  END
$$$$
