
     RDKit          3D

 19 19  0  0  0  0  0  0  0  0999 V2000
    1.3439   -0.6473   -0.9665 C   0  0  0  0  0  0  0  0  0  0  0  0
    1.1066    0.1635    0.3207 C   0  0  0  0  0  0  0  0  0  0  0  0
    1.7016    1.5387    0.2687 C   0  0  0  0  0  0  0  0  0  0  0  0
    2.7708    2.0290    0.9510 C   0  0  0  0  0  0  0  0  0  0  0  0
    3.0294    3.3164    0.6075 O   0  0  0  0  0  0  0  0  0  0  0  0
    2.0951    3.6914   -0.3237 C   0  0  0  0  0  0  0  0  0  0  0  0
    2.1567    5.0688   -0.8703 C   0  0  0  0  0  0  0  0  0  0  0  0
    1.2691    2.6352   -0.5600 C   0  0  0  0  0  0  0  0  0  0  0  0
    0.2416    2.6376   -1.4637 O   0  0  0  0  0  0  0  0  0  0  0  0
    0.8654   -1.6299   -0.9069 H   0  0  0  0  0  0  0  0  0  0  0  0
    0.9433   -0.1242   -1.8406 H   0  0  0  0  0  0  0  0  0  0  0  0
    2.4144   -0.7954   -1.1362 H   0  0  0  0  0  0  0  0  0  0  0  0
    0.0246    0.2297    0.5098 H   0  0  0  0  0  0  0  0  0  0  0  0
    1.5206   -0.3769    1.1787 H   0  0  0  0  0  0  0  0  0  0  0  0
    3.4249    1.5972    1.6914 H   0  0  0  0  0  0  0  0  0  0  0  0
    2.1075    5.8228   -0.0760 H   0  0  0  0  0  0  0  0  0  0  0  0
    3.0790    5.2477   -1.4363 H   0  0  0  0  0  0  0  0  0  0  0  0
    1.3099    5.2225   -1.5433 H   0  0  0  0  0  0  0  0  0  0  0  0
   -0.3906    1.9575   -1.2128 H   0  0  0  0  0  0  0  0  0  0  0  0
  1  2  1  0
  2  3  1  0
  3  4  2  0
  4  5  1  0
  5  6  1  0
  6  7  1  0
  6  8  2  0
  8  9  1  0
  8  3  1  0
  1 10  1  0
  1 11  1  0
  1 12  1  0
  2 13  1  0
  2 14  1  0
  4 15  1  0
  7 16  1  0
  7 17  1  0
  7 18  1  0
  9 19  1  0
M  END
$$$$
