gdb 1148	2.9639391	1.0179644	0.8958961	0.6227	78.23	-0.24604	-0.03977	0.20627	1375.4447	0.154364	-422.582217	-422.572308	-422.571364	-422.619007	34.406
 OpenBabel02181911403D

 19 19  0  0  0  0  0  0  0  0999 V2000
   -0.4754   -0.5458    1.1419 C   0  0  0  0  0  0  0  0  0  0  0  0
   -0.3270    0.7192    0.3244 C   0  0  0  0  0  0  0  0  0  0  0  0
   -1.2656    1.4024   -0.0121 O   0  0  0  0  0  0  0  0  0  0  0  0
    1.1031    1.0716   -0.1039 C   0  0  0  0  0  0  0  0  0  0  0  0
    1.3828    0.4495   -1.4799 C   0  0  0  0  0  0  0  0  0  0  0  0
    2.1065   -0.5173   -1.5919 O   0  0  0  0  0  0  0  0  0  0  0  0
    0.7061    1.0920   -2.6371 C   0  0  0  0  0  0  0  0  0  0  0  0
    1.5144    1.2157   -3.9265 C   0  0  0  0  0  0  0  0  0  0  0  0
    0.4104    0.2215   -3.8493 C   0  0  0  0  0  0  0  0  0  0  0  0
   -0.0201   -0.4014    2.1288 H   0  0  0  0  0  0  0  0  0  0  0  0
   -1.5295   -0.7985    1.2603 H   0  0  0  0  0  0  0  0  0  0  0  0
    0.0666   -1.3691    0.6633 H   0  0  0  0  0  0  0  0  0  0  0  0
    1.1738    2.1603   -0.1717 H   0  0  0  0  0  0  0  0  0  0  0  0
    1.8403    0.6770    0.5971 H   0  0  0  0  0  0  0  0  0  0  0  0
    0.0058    1.8830   -2.4001 H   0  0  0  0  0  0  0  0  0  0  0  0
    1.3732    2.1199   -4.5071 H   0  0  0  0  0  0  0  0  0  0  0  0
    2.5305    0.8410   -3.8813 H   0  0  0  0  0  0  0  0  0  0  0  0
   -0.5148    0.4203   -4.3773 H   0  0  0  0  0  0  0  0  0  0  0  0
    0.6849   -0.8226   -3.7530 H   0  0  0  0  0  0  0  0  0  0  0  0
  1 11  1  0  0  0  0
  1 10  1  0  0  0  0
  2  1  1  0  0  0  0
  3  2  2  0  0  0  0
  4  2  1  0  0  0  0
  4 14  1  0  0  0  0
  5  4  1  0  0  0  0
  6  5  2  0  0  0  0
  7 15  1  0  0  0  0
  7  5  1  0  0  0  0
  8 17  1  0  0  0  0
  8  9  1  0  0  0  0
  8  7  1  0  0  0  0
  9 19  1  0  0  0  0
  9  7  1  0  0  0  0
 12  1  1  0  0  0  0
 13  4  1  0  0  0  0
 16  8  1  0  0  0  0
 18  9  1  0  0  0  0
M TOR 0 0 1 3 4
M TOR 1 0 1 3 12
M TOR 2 0 1 3 13
M TOR 3 1 3 4 5
M TOR 4 1 3 4 6
M TOR 5 2 1 0 9
M TOR 6 2 1 0 10
M TOR 7 2 1 0 11
M TOR 8 2 1 3 4
M TOR 9 2 1 3 12
M TOR 10 2 1 3 13
M TOR 11 3 1 0 9
M TOR 12 3 1 0 10
M TOR 13 3 1 0 11
M TOR 14 3 4 6 7
M TOR 15 3 4 6 8
M TOR 16 3 4 6 14
M TOR 17 4 6 7 8
M TOR 18 4 6 7 15
M TOR 19 4 6 7 16
M TOR 20 4 6 8 17
M TOR 21 4 6 8 18
M TOR 22 5 4 3 12
M TOR 23 5 4 3 13
M TOR 24 5 4 6 7
M TOR 25 5 4 6 8
M TOR 26 5 4 6 14
M TOR 27 6 4 3 12
M TOR 28 6 4 3 13
M TOR 29 6 7 8 17
M TOR 30 6 7 8 18
M TOR 31 6 8 7 15
M TOR 32 6 8 7 16
M TOR 33 7 8 6 14
M  END
$$$$
