
     RDKit          3D

 19 20  0  0  0  0  0  0  0  0999 V2000
    2.2391   -0.9154   -1.4154 C   0  0  0  0  0  0  0  0  0  0  0  0
    1.4815   -0.3961   -0.2137 C   0  0  0  0  0  0  0  0  0  0  0  0
    1.8626    0.9304    0.3954 C   0  0  0  0  0  0  0  0  0  0  0  0
    0.8013    1.6390    1.2135 C   0  0  0  0  0  0  0  0  0  0  0  0
    0.2477    0.6441    2.0854 O   0  0  0  0  0  0  0  0  0  0  0  0
    1.2409   -0.3452    2.3405 C   0  0  0  0  0  0  0  0  0  0  0  0
    1.9877   -0.0464    3.6407 C   0  0  0  0  0  0  0  0  0  0  0  0
    3.0759   -0.4799    3.9155 O   0  0  0  0  0  0  0  0  0  0  0  0
    2.1577   -0.3588    1.1331 C   0  0  0  0  0  0  0  0  0  0  0  0
    2.1793   -2.0071   -1.4810 H   0  0  0  0  0  0  0  0  0  0  0  0
    1.8368   -0.5014   -2.3463 H   0  0  0  0  0  0  0  0  0  0  0  0
    3.2988   -0.6443   -1.3617 H   0  0  0  0  0  0  0  0  0  0  0  0
    0.4191   -0.6326   -0.2019 H   0  0  0  0  0  0  0  0  0  0  0  0
    2.6553    1.5188   -0.0525 H   0  0  0  0  0  0  0  0  0  0  0  0
    1.2509    2.4625    1.7901 H   0  0  0  0  0  0  0  0  0  0  0  0
   -0.0313    2.0434    0.6284 H   0  0  0  0  0  0  0  0  0  0  0  0
    0.7052   -1.2944    2.4943 H   0  0  0  0  0  0  0  0  0  0  0  0
    1.4143    0.6096    4.3350 H   0  0  0  0  0  0  0  0  0  0  0  0
    3.1630   -0.7385    1.2656 H   0  0  0  0  0  0  0  0  0  0  0  0
  1  2  1  0
  2  3  1  0
  3  4  1  0
  4  5  1  0
  5  6  1  0
  6  7  1  0
  7  8  2  0
  6  9  1  0
  9  2  1  0
  9  3  1  0
  1 10  1  0
  1 11  1  0
  1 12  1  0
  2 13  1  0
  3 14  1  0
  4 15  1  0
  4 16  1  0
  6 17  1  0
  7 18  1  0
  9 19  1  0
M  END
$$$$
