gdb 3601	2.7608883	1.403723	0.9834921	3.2538	79.65	-0.23154	-0.05498	0.17656	1216.6674	0.15589	-422.588807	-422.579841	-422.578897	-422.622446	33.272
 OpenBabel02181911413D

 19 19  0  0  1  0  0  0  0  0999 V2000
   -4.0155    0.1517    1.3232 C   0  0  0  0  0  0  0  0  0  0  0  0
   -2.8678    0.0211    0.3238 C   0  0  2  0  0  0  0  0  0  0  0  0
   -2.0496   -1.0447    0.7679 O   0  0  0  0  0  0  0  0  0  0  0  0
   -0.8484   -1.2236    0.0269 C   0  0  2  0  0  0  0  0  0  0  0  0
   -0.1218   -2.4349    0.5859 C   0  0  0  0  0  0  0  0  0  0  0  0
    0.0104    0.0491    0.0662 C   0  0  0  0  0  0  0  0  0  0  0  0
    1.2212    0.0158   -0.0206 O   0  0  0  0  0  0  0  0  0  0  0  0
   -0.7507    1.3119    0.1273 C   0  0  0  0  0  0  0  0  0  0  0  0
   -2.0866    1.3000    0.1824 C   0  0  0  0  0  0  0  0  0  0  0  0
   -3.6291    0.4220    2.3097 H   0  0  0  0  0  0  0  0  0  0  0  0
   -4.7251    0.9184    0.9989 H   0  0  0  0  0  0  0  0  0  0  0  0
   -4.5423   -0.8019    1.4058 H   0  0  0  0  0  0  0  0  0  0  0  0
   -3.2927   -0.2284   -0.6698 H   0  0  0  0  0  0  0  0  0  0  0  0
   -1.0950   -1.3977   -1.0387 H   0  0  0  0  0  0  0  0  0  0  0  0
    0.0681   -2.2979    1.6541 H   0  0  0  0  0  0  0  0  0  0  0  0
   -0.7257   -3.3351    0.4506 H   0  0  0  0  0  0  0  0  0  0  0  0
    0.8363   -2.5558    0.0779 H   0  0  0  0  0  0  0  0  0  0  0  0
   -0.1736    2.2288    0.0598 H   0  0  0  0  0  0  0  0  0  0  0  0
   -2.6598    2.2230    0.1277 H   0  0  0  0  0  0  0  0  0  0  0  0
  1 12  1  0  0  0  0
  1 10  1  0  0  0  0
  2 13  1  6  0  0  0
  2  3  1  0  0  0  0
  2  1  1  0  0  0  0
  4 14  1  6  0  0  0
  4  6  1  0  0  0  0
  4  5  1  0  0  0  0
  4  3  1  0  0  0  0
  5 15  1  0  0  0  0
  6  8  1  0  0  0  0
  7  6  2  0  0  0  0
  8  9  2  0  0  0  0
  9  2  1  0  0  0  0
 11  1  1  0  0  0  0
 16  5  1  0  0  0  0
 17  5  1  0  0  0  0
 18  8  1  0  0  0  0
 19  9  1  0  0  0  0
M TOR 0 0 1 2 3
M TOR 1 0 1 8 7
M TOR 2 0 1 8 18
M TOR 3 1 2 3 4
M TOR 4 1 2 3 5
M TOR 5 1 2 3 13
M TOR 6 1 8 7 5
M TOR 7 1 8 7 17
M TOR 8 2 1 0 9
M TOR 9 2 1 0 10
M TOR 10 2 1 0 11
M TOR 11 2 1 8 7
M TOR 12 2 1 8 18
M TOR 13 2 3 4 14
M TOR 14 2 3 4 15
M TOR 15 2 3 4 16
M TOR 16 2 3 5 6
M TOR 17 2 3 5 7
M TOR 18 3 2 1 8
M TOR 19 3 2 1 12
M TOR 20 3 5 7 8
M TOR 21 3 5 7 17
M TOR 22 4 3 5 6
M TOR 23 4 3 5 7
M TOR 24 5 3 4 14
M TOR 25 5 3 4 15
M TOR 26 5 3 4 16
M TOR 27 5 7 8 18
M TOR 28 6 5 3 13
M TOR 29 6 5 7 8
M TOR 30 6 5 7 17
M TOR 31 7 5 3 13
M TOR 32 7 8 1 12
M TOR 33 8 1 0 9
M TOR 34 8 1 0 10
M TOR 35 8 1 0 11
M  END
$$$$
