gdb 4391	3.241641	1.0848198	0.9569842	2.7265	79.77	-0.25286	-0.05562	0.19723999999999997	1267.7833	0.157423	-422.595094	-422.586431	-422.585487	-422.628507	32.445
 OpenBabel02181911413D

 19 19  0  0  1  0  0  0  0  0999 V2000
   -2.1802   -2.5159    1.7740 O   0  0  0  0  0  0  0  0  0  0  0  0
   -2.0556   -2.6143    0.3584 C   0  0  1  0  0  0  0  0  0  0  0  0
   -2.1910   -1.2444   -0.3222 C   0  0  0  0  0  0  0  0  0  0  0  0
   -1.0510   -0.3010    0.0893 C   0  0  0  0  0  0  0  0  0  0  0  0
    0.2915   -0.9892    0.0533 C   0  0  0  0  0  0  0  0  0  0  0  0
    1.5078   -0.1566    0.0887 C   0  0  0  0  0  0  0  0  0  0  0  0
    1.5078    1.0526    0.1419 O   0  0  0  0  0  0  0  0  0  0  0  0
    0.4267   -2.3240   -0.0080 C   0  0  0  0  0  0  0  0  0  0  0  0
   -0.7282   -3.2830   -0.0407 C   0  0  0  0  0  0  0  0  0  0  0  0
   -1.4195   -2.0295    2.1097 H   0  0  0  0  0  0  0  0  0  0  0  0
   -2.8861   -3.2595    0.0557 H   0  0  0  0  0  0  0  0  0  0  0  0
   -2.1751   -1.3902   -1.4096 H   0  0  0  0  0  0  0  0  0  0  0  0
   -3.1589   -0.8042   -0.0662 H   0  0  0  0  0  0  0  0  0  0  0  0
   -1.0167    0.5846   -0.5525 H   0  0  0  0  0  0  0  0  0  0  0  0
   -1.2275    0.0952    1.0989 H   0  0  0  0  0  0  0  0  0  0  0  0
    2.4609   -0.7327    0.0613 H   0  0  0  0  0  0  0  0  0  0  0  0
    1.4302   -2.7470   -0.0424 H   0  0  0  0  0  0  0  0  0  0  0  0
   -0.8069   -3.7131   -1.0500 H   0  0  0  0  0  0  0  0  0  0  0  0
   -0.5389   -4.1299    0.6297 H   0  0  0  0  0  0  0  0  0  0  0  0
  1 10  1  0  0  0  0
  2 11  1  6  0  0  0
  2  1  1  0  0  0  0
  3 13  1  0  0  0  0
  3  4  1  0  0  0  0
  3  2  1  0  0  0  0
  4 15  1  0  0  0  0
  5  6  1  0  0  0  0
  5  4  1  0  0  0  0
  6  7  2  0  0  0  0
  8  5  2  0  0  0  0
  9  8  1  0  0  0  0
  9  2  1  0  0  0  0
  9 19  1  0  0  0  0
 12  3  1  0  0  0  0
 14  4  1  0  0  0  0
 16  6  1  0  0  0  0
 17  8  1  0  0  0  0
 18  9  1  0  0  0  0
M TOR 0 0 1 2 3
M TOR 1 0 1 2 11
M TOR 2 0 1 2 12
M TOR 3 0 1 8 7
M TOR 4 0 1 8 17
M TOR 5 0 1 8 18
M TOR 6 1 2 3 4
M TOR 7 1 2 3 13
M TOR 8 1 2 3 14
M TOR 9 1 8 7 4
M TOR 10 1 8 7 16
M TOR 11 2 1 0 9
M TOR 12 2 1 8 7
M TOR 13 2 1 8 17
M TOR 14 2 1 8 18
M TOR 15 2 3 4 5
M TOR 16 2 3 4 7
M TOR 17 3 2 1 8
M TOR 18 3 2 1 10
M TOR 19 3 4 5 6
M TOR 20 3 4 5 15
M TOR 21 3 4 7 8
M TOR 22 3 4 7 16
M TOR 23 4 3 2 11
M TOR 24 4 3 2 12
M TOR 25 4 7 8 17
M TOR 26 4 7 8 18
M TOR 27 5 4 3 13
M TOR 28 5 4 3 14
M TOR 29 5 4 7 8
M TOR 30 5 4 7 16
M TOR 31 6 5 4 7
M TOR 32 7 4 3 13
M TOR 33 7 4 3 14
M TOR 34 7 4 5 15
M TOR 35 7 8 1 10
M TOR 36 8 1 0 9
M TOR 37 8 1 2 11
M TOR 38 8 1 2 12
M  END
$$$$
