
     RDKit          3D

 19 21  0  0  0  0  0  0  0  0999 V2000
    0.8528    1.5928   -2.5927 C   0  0  0  0  0  0  0  0  0  0  0  0
    0.3280    0.2355   -2.2302 C   0  0  0  0  0  0  0  0  0  0  0  0
   -0.0184   -0.8748   -3.2414 C   0  0  0  0  0  0  0  0  0  0  0  0
   -1.2536   -1.2100   -2.3826 C   0  0  0  0  0  0  0  0  0  0  0  0
   -2.5709   -1.6664   -2.8189 C   0  0  0  0  0  0  0  0  0  0  0  0
   -1.6972   -2.5253   -2.0709 O   0  0  0  0  0  0  0  0  0  0  0  0
   -0.8970   -0.1652   -1.3644 C   0  0  0  0  0  0  0  0  0  0  0  0
    0.5250   -0.3951   -0.8870 C   0  0  0  0  0  0  0  0  0  0  0  0
    0.9919    0.4820    0.0963 O   0  0  0  0  0  0  0  0  0  0  0  0
    0.9340    2.2237   -1.7051 H   0  0  0  0  0  0  0  0  0  0  0  0
    1.8505    1.5159   -3.0416 H   0  0  0  0  0  0  0  0  0  0  0  0
    0.2003    2.0907   -3.3184 H   0  0  0  0  0  0  0  0  0  0  0  0
   -0.2799   -0.4903   -4.2312 H   0  0  0  0  0  0  0  0  0  0  0  0
    0.7191   -1.6768   -3.3504 H   0  0  0  0  0  0  0  0  0  0  0  0
   -3.4646   -1.3358   -2.2896 H   0  0  0  0  0  0  0  0  0  0  0  0
   -2.7290   -1.9487   -3.8598 H   0  0  0  0  0  0  0  0  0  0  0  0
   -1.5756    0.4585   -0.7933 H   0  0  0  0  0  0  0  0  0  0  0  0
    0.9128   -1.4139   -0.8101 H   0  0  0  0  0  0  0  0  0  0  0  0
    0.5831    0.2346    0.9321 H   0  0  0  0  0  0  0  0  0  0  0  0
  1  2  1  0
  2  3  1  0
  3  4  1  0
  4  5  1  0
  5  6  1  0
  4  7  1  0
  7  8  1  0
  8  9  1  0
  7  2  1  0
  8  2  1  0
  6  4  1  0
  1 10  1  0
  1 11  1  0
  1 12  1  0
  3 13  1  0
  3 14  1  0
  5 15  1  0
  5 16  1  0
  7 17  1  0
  8 18  1  0
  9 19  1  0
M  END
$$$$
