gdb 5815	2.5130456	1.3516992	0.9383866	1.3584	76.81	-0.23777	-0.01317	0.22460000000000002	1245.1137	0.157016	-422.591183	-422.58227	-422.581326	-422.625085	32.801
 OpenBabel02181911423D

 19 19  0  0  1  0  0  0  0  0999 V2000
   -0.0644   -1.3602   -1.4528 O   0  0  0  0  0  0  0  0  0  0  0  0
    0.1803   -0.2339   -0.6201 C   0  0  0  0  0  0  0  0  0  0  0  0
   -0.5684    0.9486   -1.2209 C   0  0  1  0  0  0  0  0  0  0  0  0
   -2.0923    0.7089   -1.3266 C   0  0  0  0  0  0  0  0  0  0  0  0
   -2.8321    1.9454   -1.7585 C   0  0  0  0  0  0  0  0  0  0  0  0
   -2.3377    3.1760   -1.6375 C   0  0  0  0  0  0  0  0  0  0  0  0
   -0.9968    3.4745   -1.0172 C   0  0  0  0  0  0  0  0  0  0  0  0
   -0.2972    2.2386   -0.4632 C   0  0  0  0  0  0  0  0  0  0  0  0
    0.4239    2.2912    0.5076 O   0  0  0  0  0  0  0  0  0  0  0  0
    0.3859   -2.1182   -1.0699 H   0  0  0  0  0  0  0  0  0  0  0  0
   -0.1712   -0.4066    0.4081 H   0  0  0  0  0  0  0  0  0  0  0  0
    1.2515    0.0010   -0.5597 H   0  0  0  0  0  0  0  0  0  0  0  0
   -0.2035    1.1074   -2.2470 H   0  0  0  0  0  0  0  0  0  0  0  0
   -2.2685   -0.1154   -2.0235 H   0  0  0  0  0  0  0  0  0  0  0  0
   -2.4764    0.3612   -0.3554 H   0  0  0  0  0  0  0  0  0  0  0  0
   -3.8216    1.8044   -2.1860 H   0  0  0  0  0  0  0  0  0  0  0  0
   -2.9162    4.0328   -1.9735 H   0  0  0  0  0  0  0  0  0  0  0  0
   -0.3251    3.9320   -1.7609 H   0  0  0  0  0  0  0  0  0  0  0  0
   -1.0778    4.2069   -0.2060 H   0  0  0  0  0  0  0  0  0  0  0  0
  1 10  1  0  0  0  0
  1  2  1  0  0  0  0
  2 12  1  0  0  0  0
  2 11  1  0  0  0  0
  3 13  1  6  0  0  0
  3  2  1  0  0  0  0
  3  8  1  0  0  0  0
  4  3  1  0  0  0  0
  4 15  1  0  0  0  0
  5  6  2  0  0  0  0
  5  4  1  0  0  0  0
  6  7  1  0  0  0  0
  7  8  1  0  0  0  0
  7 19  1  0  0  0  0
  8  9  2  0  0  0  0
 14  4  1  0  0  0  0
 16  5  1  0  0  0  0
 17  6  1  0  0  0  0
 18  7  1  0  0  0  0
M TOR 0 0 1 2 3
M TOR 1 0 1 2 7
M TOR 2 0 1 2 12
M TOR 3 1 2 3 4
M TOR 4 1 2 3 13
M TOR 5 1 2 3 14
M TOR 6 1 2 7 6
M TOR 7 1 2 7 8
M TOR 8 2 1 0 9
M TOR 9 2 3 4 5
M TOR 10 2 3 4 15
M TOR 11 2 7 6 5
M TOR 12 2 7 6 17
M TOR 13 2 7 6 18
M TOR 14 3 2 1 10
M TOR 15 3 2 1 11
M TOR 16 3 2 7 6
M TOR 17 3 2 7 8
M TOR 18 3 4 5 6
M TOR 19 3 4 5 16
M TOR 20 4 3 2 7
M TOR 21 4 3 2 12
M TOR 22 4 5 6 7
M TOR 23 4 5 6 17
M TOR 24 4 5 6 18
M TOR 25 5 4 3 13
M TOR 26 5 4 3 14
M TOR 27 5 6 7 8
M TOR 28 6 5 4 15
M TOR 29 6 7 2 12
M TOR 30 7 2 1 10
M TOR 31 7 2 1 11
M TOR 32 7 2 3 13
M TOR 33 7 2 3 14
M TOR 34 7 6 5 16
M TOR 35 8 7 2 12
M TOR 36 8 7 6 17
M TOR 37 8 7 6 18
M  END
$$$$
