
     RDKit          3D

 19 20  0  0  0  0  0  0  0  0999 V2000
    1.3312    0.0037   -0.1010 C   0  0  0  0  0  0  0  0  0  0  0  0
   -0.0423   -0.1565    0.2045 O   0  0  0  0  0  0  0  0  0  0  0  0
   -0.4649    0.5758    1.3070 C   0  0  0  0  0  0  0  0  0  0  0  0
   -0.6432    2.0803    1.2038 C   0  0  0  0  0  0  0  0  0  0  0  0
   -1.8483    1.1769    1.3579 C   0  0  0  0  0  0  0  0  0  0  0  0
   -2.4106    0.9389    2.7621 C   0  0  0  0  0  0  0  0  0  0  0  0
   -3.5778    0.1252    2.7679 O   0  0  0  0  0  0  0  0  0  0  0  0
   -1.2477    0.3013    3.4997 C   0  0  0  0  0  0  0  0  0  0  0  0
   -0.2120    0.0627    2.6906 C   0  0  0  0  0  0  0  0  0  0  0  0
    1.9791   -0.3601    0.7093 H   0  0  0  0  0  0  0  0  0  0  0  0
    1.5279   -0.5872   -0.9984 H   0  0  0  0  0  0  0  0  0  0  0  0
    1.5812    1.0553   -0.2985 H   0  0  0  0  0  0  0  0  0  0  0  0
   -0.3295    2.7026    2.0361 H   0  0  0  0  0  0  0  0  0  0  0  0
   -0.5087    2.5205    0.2204 H   0  0  0  0  0  0  0  0  0  0  0  0
   -2.5248    1.0793    0.5176 H   0  0  0  0  0  0  0  0  0  0  0  0
   -2.7253    1.8789    3.2302 H   0  0  0  0  0  0  0  0  0  0  0  0
   -3.3091   -0.7522    2.4720 H   0  0  0  0  0  0  0  0  0  0  0  0
   -1.2967    0.0787    4.5593 H   0  0  0  0  0  0  0  0  0  0  0  0
    0.7233   -0.4045    2.9776 H   0  0  0  0  0  0  0  0  0  0  0  0
  1  2  1  0
  2  3  1  0
  3  4  1  0
  4  5  1  0
  5  6  1  0
  6  7  1  0
  6  8  1  0
  8  9  2  0
  5  3  1  0
  9  3  1  0
  1 10  1  0
  1 11  1  0
  1 12  1  0
  4 13  1  0
  4 14  1  0
  5 15  1  0
  6 16  1  0
  7 17  1  0
  8 18  1  0
  9 19  1  0
M  END
$$$$
