
     RDKit          3D

 19 21  0  0  0  0  0  0  0  0999 V2000
    2.1148   -0.8948   -1.4441 C   0  0  0  0  0  0  0  0  0  0  0  0
    2.0678   -0.7456    0.0772 C   0  0  0  0  0  0  0  0  0  0  0  0
    1.2544    0.4219    0.7061 C   0  0  0  0  0  0  0  0  0  0  0  0
    1.9705    1.6278    0.0613 C   0  0  0  0  0  0  0  0  0  0  0  0
    3.2709    1.3232    0.8246 C   0  0  0  0  0  0  0  0  0  0  0  0
    2.7818    1.5918    2.1495 O   0  0  0  0  0  0  0  0  0  0  0  0
    1.9289    0.4620    2.1873 C   0  0  0  0  0  0  0  0  0  0  0  0
    2.8770   -0.5911    2.1720 O   0  0  0  0  0  0  0  0  0  0  0  0
    3.3389   -0.3109    0.8416 C   0  0  0  0  0  0  0  0  0  0  0  0
    2.6195   -1.8308   -1.7053 H   0  0  0  0  0  0  0  0  0  0  0  0
    1.1046   -0.9393   -1.8656 H   0  0  0  0  0  0  0  0  0  0  0  0
    2.6520   -0.0913   -1.9530 H   0  0  0  0  0  0  0  0  0  0  0  0
    1.7590   -1.7030    0.5033 H   0  0  0  0  0  0  0  0  0  0  0  0
    0.1673    0.3735    0.6727 H   0  0  0  0  0  0  0  0  0  0  0  0
    2.0084    1.5787   -1.0259 H   0  0  0  0  0  0  0  0  0  0  0  0
    1.5899    2.6037    0.3642 H   0  0  0  0  0  0  0  0  0  0  0  0
    4.1856    1.8752    0.6214 H   0  0  0  0  0  0  0  0  0  0  0  0
    1.3034    0.4441    3.0762 H   0  0  0  0  0  0  0  0  0  0  0  0
    4.2970   -0.7881    0.6449 H   0  0  0  0  0  0  0  0  0  0  0  0
  1  2  1  0
  2  3  1  0
  3  4  1  0
  4  5  1  0
  5  6  1  0
  6  7  1  0
  7  8  1  0
  8  9  1  0
  9  2  1  0
  7  3  1  0
  9  5  1  0
  1 10  1  0
  1 11  1  0
  1 12  1  0
  2 13  1  0
  3 14  1  0
  4 15  1  0
  4 16  1  0
  5 17  1  0
  7 18  1  0
  9 19  1  0
M  END
$$$$
