gdb 4022	3.7822702	1.3122015	1.2119464	1.5419	73.71	-0.24707	0.07539	0.32246	1065.0948	0.15796	-422.545557	-422.537715	-422.536771	-422.577361	31.587
 OpenBabel02181911413D

 19 21  0  0  1  0  0  0  0  0999 V2000
    0.4782    0.4110    0.2424 O   0  0  0  0  0  0  0  0  0  0  0  0
   -0.7299   -0.1872    0.6907 C   0  0  1  0  0  0  0  0  0  0  0  0
   -0.9928    0.0716    2.2020 C   0  0  0  0  0  0  0  0  0  0  0  0
   -2.0044    1.2162    2.2060 C   0  0  1  0  0  0  0  0  0  0  0  0
   -2.2477    1.7383    0.7993 C   0  0  1  0  0  0  0  0  0  0  0  0
   -1.9541    0.4325    0.0038 C   0  0  2  0  0  0  0  0  0  0  0  0
   -3.2930   -0.1671    0.5546 C   0  0  0  0  0  0  0  0  0  0  0  0
   -3.3501    1.0085    1.5294 C   0  0  1  0  0  0  0  0  0  0  0  0
   -4.5131    1.5660    2.0293 O   0  0  0  0  0  0  0  0  0  0  0  0
    0.4001    1.3609    0.3905 H   0  0  0  0  0  0  0  0  0  0  0  0
   -0.6224   -1.2522    0.4641 H   0  0  0  0  0  0  0  0  0  0  0  0
   -1.3726   -0.8222    2.7092 H   0  0  0  0  0  0  0  0  0  0  0  0
   -0.0537    0.3473    2.6904 H   0  0  0  0  0  0  0  0  0  0  0  0
   -2.0234    1.9351    3.0178 H   0  0  0  0  0  0  0  0  0  0  0  0
   -2.1776    2.7687    0.4782 H   0  0  0  0  0  0  0  0  0  0  0  0
   -1.8614    0.4900   -1.0798 H   0  0  0  0  0  0  0  0  0  0  0  0
   -4.0934   -0.0906   -0.1851 H   0  0  0  0  0  0  0  0  0  0  0  0
   -3.2693   -1.1873    0.9571 H   0  0  0  0  0  0  0  0  0  0  0  0
   -4.7319    1.1236    2.8569 H   0  0  0  0  0  0  0  0  0  0  0  0
  1 10  1  0  0  0  0
  1  2  1  0  0  0  0
  2 11  1  6  0  0  0
  2  3  1  0  0  0  0
  3  4  1  0  0  0  0
  3 13  1  0  0  0  0
  3 12  1  0  0  0  0
  4 14  1  1  0  0  0
  5 15  1  6  0  0  0
  5  8  1  0  0  0  0
  5  4  1  0  0  0  0
  6 16  1  6  0  0  0
  6  7  1  0  0  0  0
  6  2  1  0  0  0  0
  6  5  1  0  0  0  0
  7 18  1  0  0  0  0
  7  8  1  0  0  0  0
  8  9  1  1  0  0  0
  8  4  1  0  0  0  0
  9 19  1  0  0  0  0
 17  7  1  0  0  0  0
M TOR 0 0 1 2 3
M TOR 1 0 1 2 11
M TOR 2 0 1 2 12
M TOR 3 0 1 5 4
M TOR 4 0 1 5 6
M TOR 5 0 1 5 15
M TOR 6 1 2 3 4
M TOR 7 1 2 3 7
M TOR 8 1 2 3 13
M TOR 9 1 5 4 3
M TOR 10 1 5 4 7
M TOR 11 1 5 4 14
M TOR 12 1 5 6 7
M TOR 13 1 5 6 16
M TOR 14 1 5 6 17
M TOR 15 2 1 0 9
M TOR 16 2 1 5 4
M TOR 17 2 1 5 6
M TOR 18 2 1 5 15
M TOR 19 2 3 4 5
M TOR 20 2 3 4 7
M TOR 21 2 3 4 14
M TOR 22 2 3 7 6
M TOR 23 2 3 7 8
M TOR 24 3 2 1 5
M TOR 25 3 2 1 10
M TOR 26 3 4 5 6
M TOR 27 3 4 5 15
M TOR 28 3 4 7 6
M TOR 29 3 4 7 8
M TOR 30 3 7 4 5
M TOR 31 3 7 4 14
M TOR 32 3 7 6 5
M TOR 33 3 7 6 16
M TOR 34 3 7 6 17
M TOR 35 3 7 8 18
M TOR 36 4 3 2 11
M TOR 37 4 3 2 12
M TOR 38 4 5 1 10
M TOR 39 4 5 6 7
M TOR 40 4 5 6 16
M TOR 41 4 5 6 17
M TOR 42 4 7 3 13
M TOR 43 4 7 6 16
M TOR 44 4 7 6 17
M TOR 45 4 7 8 18
M TOR 46 5 1 0 9
M TOR 47 5 1 2 11
M TOR 48 5 1 2 12
M TOR 49 5 4 3 13
M TOR 50 5 4 7 8
M TOR 51 5 6 7 8
M TOR 52 6 5 1 10
M TOR 53 6 5 4 14
M TOR 54 6 7 3 13
M TOR 55 6 7 4 14
M TOR 56 6 7 8 18
M TOR 57 7 3 2 11
M TOR 58 7 3 2 12
M TOR 59 7 4 5 15
M TOR 60 7 6 5 15
M TOR 61 8 7 3 13
M TOR 62 8 7 4 14
M TOR 63 8 7 6 16
M TOR 64 8 7 6 17
M  END
$$$$
