gdb 3617	3.7423743	0.9820287	0.8337083	2.3257	76.75	-0.24353	-0.02577	0.21776	1388.0429	0.155707	-422.545158	-422.535988	-422.535044	-422.579786	33.315
 OpenBabel02181911413D

 19 20  0  0  1  0  0  0  0  0999 V2000
   -1.1395   -2.5323    0.2757 O   0  0  0  0  0  0  0  0  0  0  0  0
   -1.1025   -1.2448   -0.2574 C   0  0  1  0  0  0  0  0  0  0  0  0
   -2.1680   -0.1611    0.1362 C   0  0  0  0  0  0  0  0  0  0  0  0
   -1.0382    0.9279    0.1884 C   0  0  1  0  0  0  0  0  0  0  0  0
   -1.0313    1.9783    1.2608 C   0  0  0  0  0  0  0  0  0  0  0  0
   -0.2171    3.2367    1.0917 C   0  0  0  0  0  0  0  0  0  0  0  0
   -1.7217    3.3038    1.0405 C   0  0  0  0  0  0  0  0  0  0  0  0
   -0.0826   -0.2698    0.3336 C   0  0  0  0  0  0  0  0  0  0  0  0
    0.8854   -0.4831    1.0117 O   0  0  0  0  0  0  0  0  0  0  0  0
   -0.4844   -2.5608    0.9850 H   0  0  0  0  0  0  0  0  0  0  0  0
   -1.0254   -1.2972   -1.3515 H   0  0  0  0  0  0  0  0  0  0  0  0
   -2.9825    0.0010   -0.5696 H   0  0  0  0  0  0  0  0  0  0  0  0
   -2.5700   -0.3634    1.1321 H   0  0  0  0  0  0  0  0  0  0  0  0
   -0.9199    1.3844   -0.8017 H   0  0  0  0  0  0  0  0  0  0  0  0
   -1.0768    1.5765    2.2694 H   0  0  0  0  0  0  0  0  0  0  0  0
    0.2905    3.6358    1.9623 H   0  0  0  0  0  0  0  0  0  0  0  0
    0.3304    3.3644    0.1638 H   0  0  0  0  0  0  0  0  0  0  0  0
   -2.2485    3.7512    1.8759 H   0  0  0  0  0  0  0  0  0  0  0  0
   -2.1911    3.4769    0.0775 H   0  0  0  0  0  0  0  0  0  0  0  0
  1 10  1  0  0  0  0
  2 11  1  6  0  0  0
  2  3  1  0  0  0  0
  2  1  1  0  0  0  0
  2  8  1  0  0  0  0
  3  4  1  0  0  0  0
  3 13  1  0  0  0  0
  4 14  1  6  0  0  0
  4  8  1  0  0  0  0
  4  5  1  0  0  0  0
  5 15  1  0  0  0  0
  6  5  1  0  0  0  0
  6 16  1  0  0  0  0
  7  6  1  0  0  0  0
  7  5  1  0  0  0  0
  7 18  1  0  0  0  0
  8  9  2  0  0  0  0
 12  3  1  0  0  0  0
 17  6  1  0  0  0  0
 19  7  1  0  0  0  0
M TOR 0 0 1 2 3
M TOR 1 0 1 2 11
M TOR 2 0 1 2 12
M TOR 3 0 1 7 3
M TOR 4 0 1 7 8
M TOR 5 1 2 3 4
M TOR 6 1 2 3 7
M TOR 7 1 2 3 13
M TOR 8 1 7 3 4
M TOR 9 1 7 3 13
M TOR 10 2 1 0 9
M TOR 11 2 1 7 8
M TOR 12 2 3 4 5
M TOR 13 2 3 4 6
M TOR 14 2 3 4 14
M TOR 15 2 3 7 8
M TOR 16 3 2 1 10
M TOR 17 3 4 5 6
M TOR 18 3 4 5 15
M TOR 19 3 4 5 16
M TOR 20 3 4 6 17
M TOR 21 3 4 6 18
M TOR 22 3 7 1 10
M TOR 23 4 3 2 11
M TOR 24 4 3 2 12
M TOR 25 4 3 7 8
M TOR 26 4 5 6 17
M TOR 27 4 5 6 18
M TOR 28 4 6 5 15
M TOR 29 4 6 5 16
M TOR 30 5 4 3 7
M TOR 31 5 4 3 13
M TOR 32 5 6 4 14
M TOR 33 6 4 3 7
M TOR 34 6 4 3 13
M TOR 35 7 1 0 9
M TOR 36 7 1 2 11
M TOR 37 7 1 2 12
M TOR 38 7 3 2 11
M TOR 39 7 3 2 12
M TOR 40 7 3 4 14
M TOR 41 8 7 1 10
M TOR 42 8 7 3 13
M  END
$$$$
