gdb 3139	2.330287	1.5540652	1.1858283	2.3527	76.07	-0.24733	-0.03808	0.20925	1110.0007	0.155343	-422.541827	-422.533023	-422.532078	-422.574988	33.526
 OpenBabel02181911413D

 19 20  0  0  1  0  0  0  0  0999 V2000
    1.0301   -0.4123   -0.9583 C   0  0  0  0  0  0  0  0  0  0  0  0
    0.8439    0.2577    0.3937 C   0  0  2  0  0  0  0  0  0  0  0  0
    1.4325    1.6758    0.5260 C   0  0  1  0  0  0  0  0  0  0  0  0
    1.2459    2.1813    1.9227 C   0  0  0  0  0  0  0  0  0  0  0  0
    2.3682    1.2140    1.6386 C   0  0  1  0  0  0  0  0  0  0  0  0
    1.8779   -0.2417    1.5049 C   0  0  2  0  0  0  0  0  0  0  0  0
    2.8749   -1.0838    1.0045 O   0  0  0  0  0  0  0  0  0  0  0  0
    1.2584   -0.8783    2.7262 C   0  0  0  0  0  0  0  0  0  0  0  0
    1.5561   -1.9952    3.0843 O   0  0  0  0  0  0  0  0  0  0  0  0
    0.7298   -1.4637   -0.9238 H   0  0  0  0  0  0  0  0  0  0  0  0
    0.4134    0.0925   -1.7098 H   0  0  0  0  0  0  0  0  0  0  0  0
    2.0735   -0.3756   -1.2777 H   0  0  0  0  0  0  0  0  0  0  0  0
   -0.2090    0.1966    0.6986 H   0  0  0  0  0  0  0  0  0  0  0  0
    1.6402    2.3339   -0.3092 H   0  0  0  0  0  0  0  0  0  0  0  0
    1.5730    3.1999    2.1063 H   0  0  0  0  0  0  0  0  0  0  0  0
    0.3717    1.8956    2.5020 H   0  0  0  0  0  0  0  0  0  0  0  0
    3.4082    1.4557    1.8199 H   0  0  0  0  0  0  0  0  0  0  0  0
    2.8115   -1.8979    1.5305 H   0  0  0  0  0  0  0  0  0  0  0  0
    0.5059   -0.2811    3.2757 H   0  0  0  0  0  0  0  0  0  0  0  0
  1 10  1  0  0  0  0
  1  2  1  0  0  0  0
  2  3  1  0  0  0  0
  2 13  1  1  0  0  0
  2  6  1  0  0  0  0
  3 14  1  6  0  0  0
  3  5  1  0  0  0  0
  3  4  1  0  0  0  0
  4 15  1  0  0  0  0
  4 16  1  0  0  0  0
  5 17  1  1  0  0  0
  5  4  1  0  0  0  0
  6  7  1  6  0  0  0
  6  5  1  0  0  0  0
  6  8  1  0  0  0  0
  7 18  1  0  0  0  0
  8  9  2  0  0  0  0
  8 19  1  0  0  0  0
 11  1  1  0  0  0  0
 12  1  1  0  0  0  0
M TOR 0 0 1 2 3
M TOR 1 0 1 2 4
M TOR 2 0 1 2 13
M TOR 3 0 1 5 4
M TOR 4 0 1 5 6
M TOR 5 0 1 5 7
M TOR 6 1 2 3 4
M TOR 7 1 2 3 14
M TOR 8 1 2 3 15
M TOR 9 1 2 4 5
M TOR 10 1 2 4 16
M TOR 11 1 5 4 3
M TOR 12 1 5 4 16
M TOR 13 1 5 6 17
M TOR 14 1 5 7 8
M TOR 15 1 5 7 18
M TOR 16 2 1 0 9
M TOR 17 2 1 0 10
M TOR 18 2 1 0 11
M TOR 19 2 1 5 6
M TOR 20 2 1 5 7
M TOR 21 2 3 4 5
M TOR 22 2 3 4 16
M TOR 23 2 4 3 14
M TOR 24 2 4 3 15
M TOR 25 2 4 5 6
M TOR 26 2 4 5 7
M TOR 27 3 2 1 5
M TOR 28 3 2 1 12
M TOR 29 3 4 2 13
M TOR 30 3 4 5 6
M TOR 31 3 4 5 7
M TOR 32 4 2 1 12
M TOR 33 4 5 1 12
M TOR 34 4 5 6 17
M TOR 35 4 5 7 8
M TOR 36 4 5 7 18
M TOR 37 5 1 0 9
M TOR 38 5 1 0 10
M TOR 39 5 1 0 11
M TOR 40 5 1 2 13
M TOR 41 5 4 2 13
M TOR 42 5 4 3 14
M TOR 43 5 4 3 15
M TOR 44 6 5 1 12
M TOR 45 6 5 4 16
M TOR 46 6 5 7 8
M TOR 47 6 5 7 18
M TOR 48 7 5 1 12
M TOR 49 7 5 4 16
M TOR 50 7 5 6 17
M  END
$$$$
