
     RDKit          3D

 19 20  0  0  0  0  0  0  0  0999 V2000
   -0.4795    2.2904    1.0020 C   0  0  0  0  0  0  0  0  0  0  0  0
   -0.8202    1.2173   -0.0141 C   0  0  0  0  0  0  0  0  0  0  0  0
   -0.9303    1.6226   -1.5099 C   0  0  0  0  0  0  0  0  0  0  0  0
   -2.2012    0.9599   -1.6440 O   0  0  0  0  0  0  0  0  0  0  0  0
   -2.2658    0.6933   -0.2209 C   0  0  0  0  0  0  0  0  0  0  0  0
   -2.2847   -0.8063    0.0839 C   0  0  0  0  0  0  0  0  0  0  0  0
   -0.8444   -1.2741   -0.1854 C   0  0  0  0  0  0  0  0  0  0  0  0
    0.0252   -0.0555    0.1406 C   0  0  0  0  0  0  0  0  0  0  0  0
    1.1805   -0.0746    0.4809 O   0  0  0  0  0  0  0  0  0  0  0  0
   -0.7029    1.9571    2.0208 H   0  0  0  0  0  0  0  0  0  0  0  0
    0.5900    2.5170    0.9605 H   0  0  0  0  0  0  0  0  0  0  0  0
   -1.0433    3.2087    0.8130 H   0  0  0  0  0  0  0  0  0  0  0  0
   -1.0125    2.7081   -1.6547 H   0  0  0  0  0  0  0  0  0  0  0  0
   -0.1757    1.2263   -2.1998 H   0  0  0  0  0  0  0  0  0  0  0  0
   -3.0796    1.2525    0.2542 H   0  0  0  0  0  0  0  0  0  0  0  0
   -2.5459   -0.9531    1.1389 H   0  0  0  0  0  0  0  0  0  0  0  0
   -3.0338   -1.3233   -0.5212 H   0  0  0  0  0  0  0  0  0  0  0  0
   -0.5233   -2.1466    0.3860 H   0  0  0  0  0  0  0  0  0  0  0  0
   -0.7043   -1.5069   -1.2484 H   0  0  0  0  0  0  0  0  0  0  0  0
  1  2  1  0
  2  3  1  0
  3  4  1  0
  4  5  1  0
  5  6  1  0
  6  7  1  0
  7  8  1  0
  8  9  2  0
  5  2  1  0
  8  2  1  0
  1 10  1  0
  1 11  1  0
  1 12  1  0
  3 13  1  0
  3 14  1  0
  5 15  1  0
  6 16  1  0
  6 17  1  0
  7 18  1  0
  7 19  1  0
M  END
$$$$
