
     RDKit          3D

 19 21  0  0  0  0  0  0  0  0999 V2000
   -0.7629   -0.2822   -1.3251 C   0  0  0  0  0  0  0  0  0  0  0  0
   -0.1409    0.0787    0.0067 C   0  0  0  0  0  0  0  0  0  0  0  0
    0.6939    1.2718    0.1814 C   0  0  0  0  0  0  0  0  0  0  0  0
    1.2847   -0.0260    0.0879 O   0  0  0  0  0  0  0  0  0  0  0  0
   -0.8374   -1.7667   -1.5172 C   0  0  0  0  0  0  0  0  0  0  0  0
    0.3112   -2.7677   -1.7440 C   0  0  0  0  0  0  0  0  0  0  0  0
   -0.7058   -3.6911   -2.5036 C   0  0  0  0  0  0  0  0  0  0  0  0
   -1.7911   -2.6433   -2.2212 C   0  0  0  0  0  0  0  0  0  0  0  0
   -1.8580   -2.4814   -0.7966 O   0  0  0  0  0  0  0  0  0  0  0  0
   -1.7759    0.1337   -1.3782 H   0  0  0  0  0  0  0  0  0  0  0  0
   -0.1678    0.1661   -2.1290 H   0  0  0  0  0  0  0  0  0  0  0  0
   -0.6625   -0.3155    0.8796 H   0  0  0  0  0  0  0  0  0  0  0  0
    0.8735    1.9294   -0.6688 H   0  0  0  0  0  0  0  0  0  0  0  0
    0.7625    1.7490    1.1578 H   0  0  0  0  0  0  0  0  0  0  0  0
    1.0972   -2.3805   -2.3962 H   0  0  0  0  0  0  0  0  0  0  0  0
    0.7604   -3.1648   -0.8318 H   0  0  0  0  0  0  0  0  0  0  0  0
   -0.4687   -3.7920   -3.5654 H   0  0  0  0  0  0  0  0  0  0  0  0
   -0.8963   -4.6780   -2.0758 H   0  0  0  0  0  0  0  0  0  0  0  0
   -2.6901   -2.4130   -2.7832 H   0  0  0  0  0  0  0  0  0  0  0  0
  1  2  1  0
  2  3  1  0
  3  4  1  0
  1  5  1  0
  5  6  1  0
  6  7  1  0
  7  8  1  0
  8  9  1  0
  4  2  1  0
  8  5  1  0
  9  5  1  0
  1 10  1  0
  1 11  1  0
  2 12  1  0
  3 13  1  0
  3 14  1  0
  6 15  1  0
  6 16  1  0
  7 17  1  0
  7 18  1  0
  8 19  1  0
M  END
$$$$
