gdb 520	2.9771516	1.8693718	1.5365234	1.7124	73.47	-0.23639	0.06756	0.30395	918.4797	0.160186	-422.53338	-422.526779	-422.525834	-422.563928	27.674
 OpenBabel02181911403D

 19 21  0  0  1  0  0  0  0  0999 V2000
    0.3977    0.9012   -1.2729 C   0  0  0  0  0  0  0  0  0  0  0  0
   -0.1645   -0.1897   -0.4766 O   0  0  0  0  0  0  0  0  0  0  0  0
    0.7918    0.1027    0.5888 C   0  0  2  0  0  0  0  0  0  0  0  0
    0.4127    0.3174    2.0697 C   0  0  0  0  0  0  0  0  0  0  0  0
    0.6749    1.8524    2.1703 C   0  0  1  0  0  0  0  0  0  0  0  0
    2.1466    2.1829    1.7573 C   0  0  0  0  0  0  0  0  0  0  0  0
    2.1843    2.1010    0.3001 O   0  0  0  0  0  0  0  0  0  0  0  0
    0.9315    1.5112    0.0222 C   0  0  1  0  0  0  0  0  0  0  0  0
   -0.0388    2.3259    0.8929 C   0  0  0  0  0  0  0  0  0  0  0  0
    1.1794    0.5380   -1.9520 H   0  0  0  0  0  0  0  0  0  0  0  0
   -0.3705    1.4435   -1.8312 H   0  0  0  0  0  0  0  0  0  0  0  0
    1.6839   -0.5221    0.4608 H   0  0  0  0  0  0  0  0  0  0  0  0
   -0.6372    0.0885    2.2747 H   0  0  0  0  0  0  0  0  0  0  0  0
    1.0327   -0.2791    2.7450 H   0  0  0  0  0  0  0  0  0  0  0  0
    0.3887    2.3073    3.1196 H   0  0  0  0  0  0  0  0  0  0  0  0
    2.4312    3.1990    2.0481 H   0  0  0  0  0  0  0  0  0  0  0  0
    2.8721    1.4791    2.1839 H   0  0  0  0  0  0  0  0  0  0  0  0
    0.0428    3.3963    0.6899 H   0  0  0  0  0  0  0  0  0  0  0  0
   -1.0785    2.0015    0.8274 H   0  0  0  0  0  0  0  0  0  0  0  0
  1  2  1  0  0  0  0
  1  8  1  0  0  0  0
  2  3  1  0  0  0  0
  3 12  1  6  0  0  0
  3  4  1  0  0  0  0
  4  5  1  0  0  0  0
  4 13  1  0  0  0  0
  4 14  1  0  0  0  0
  5 15  1  1  0  0  0
  6 16  1  0  0  0  0
  6  5  1  0  0  0  0
  6 17  1  0  0  0  0
  7  6  1  0  0  0  0
  8  7  1  6  0  0  0
  8  3  1  0  0  0  0
  8  9  1  0  0  0  0
  9  5  1  0  0  0  0
 10  1  1  0  0  0  0
 11  1  1  0  0  0  0
 18  9  1  0  0  0  0
 19  9  1  0  0  0  0
M TOR 0 0 1 2 3
M TOR 1 0 1 2 7
M TOR 2 0 1 2 11
M TOR 3 0 7 2 3
M TOR 4 0 7 2 11
M TOR 5 0 7 6 5
M TOR 6 0 7 8 4
M TOR 7 0 7 8 17
M TOR 8 0 7 8 18
M TOR 9 1 0 7 6
M TOR 10 1 0 7 8
M TOR 11 1 2 3 4
M TOR 12 1 2 3 12
M TOR 13 1 2 3 13
M TOR 14 1 2 7 6
M TOR 15 1 2 7 8
M TOR 16 2 1 0 9
M TOR 17 2 1 0 10
M TOR 18 2 3 4 5
M TOR 19 2 3 4 8
M TOR 20 2 3 4 14
M TOR 21 2 7 0 9
M TOR 22 2 7 0 10
M TOR 23 2 7 6 5
M TOR 24 2 7 8 4
M TOR 25 2 7 8 17
M TOR 26 2 7 8 18
M TOR 27 3 2 7 6
M TOR 28 3 2 7 8
M TOR 29 3 4 5 6
M TOR 30 3 4 5 15
M TOR 31 3 4 5 16
M TOR 32 3 4 8 7
M TOR 33 3 4 8 17
M TOR 34 3 4 8 18
M TOR 35 4 3 2 7
M TOR 36 4 3 2 11
M TOR 37 4 5 6 7
M TOR 38 4 8 7 6
M TOR 39 5 4 3 12
M TOR 40 5 4 3 13
M TOR 41 5 4 8 7
M TOR 42 5 4 8 17
M TOR 43 5 4 8 18
M TOR 44 5 6 7 8
M TOR 45 6 5 4 8
M TOR 46 6 5 4 14
M TOR 47 6 7 0 9
M TOR 48 6 7 0 10
M TOR 49 6 7 2 11
M TOR 50 6 7 8 17
M TOR 51 6 7 8 18
M TOR 52 7 2 3 12
M TOR 53 7 2 3 13
M TOR 54 7 6 5 15
M TOR 55 7 6 5 16
M TOR 56 7 8 4 14
M TOR 57 8 4 3 12
M TOR 58 8 4 3 13
M TOR 59 8 4 5 15
M TOR 60 8 4 5 16
M TOR 61 8 7 0 9
M TOR 62 8 7 0 10
M TOR 63 8 7 2 11
M  END
$$$$
