
     RDKit          3D

 19 20  0  0  0  0  0  0  0  0999 V2000
    1.3689   -0.0890    0.3256 O   0  0  0  0  0  0  0  0  0  0  0  0
    0.2224   -0.0789   -0.0387 C   0  0  0  0  0  0  0  0  0  0  0  0
   -0.3093    0.8067   -1.1460 C   0  0  0  0  0  0  0  0  0  0  0  0
   -1.0768    2.0629   -0.6559 C   0  0  0  0  0  0  0  0  0  0  0  0
   -2.2829    1.4327   -1.3874 C   0  0  0  0  0  0  0  0  0  0  0  0
   -3.6308    1.2345   -0.6641 C   0  0  0  0  0  0  0  0  0  0  0  0
   -4.2022    2.4080   -1.5087 C   0  0  0  0  0  0  0  0  0  0  0  0
   -3.0184    2.2141   -2.4973 C   0  0  0  0  0  0  0  0  0  0  0  0
   -1.5024    0.2737   -1.7463 O   0  0  0  0  0  0  0  0  0  0  0  0
   -0.5626   -0.7127    0.4350 H   0  0  0  0  0  0  0  0  0  0  0  0
    0.4855    0.9993   -1.8749 H   0  0  0  0  0  0  0  0  0  0  0  0
   -1.1856    2.1430    0.4283 H   0  0  0  0  0  0  0  0  0  0  0  0
   -0.7107    3.0100   -1.0537 H   0  0  0  0  0  0  0  0  0  0  0  0
   -4.0698    0.2756   -0.9548 H   0  0  0  0  0  0  0  0  0  0  0  0
   -3.6409    1.3152    0.4261 H   0  0  0  0  0  0  0  0  0  0  0  0
   -5.2105    2.2904   -1.9082 H   0  0  0  0  0  0  0  0  0  0  0  0
   -4.1463    3.3626   -0.9794 H   0  0  0  0  0  0  0  0  0  0  0  0
   -3.2804    1.5370   -3.3154 H   0  0  0  0  0  0  0  0  0  0  0  0
   -2.5267    3.0988   -2.9105 H   0  0  0  0  0  0  0  0  0  0  0  0
  1  2  2  0
  2  3  1  0
  3  4  1  0
  4  5  1  0
  5  6  1  0
  6  7  1  0
  7  8  1  0
  5  9  1  0
  9  3  1  0
  8  5  1  0
  2 10  1  0
  3 11  1  0
  4 12  1  0
  4 13  1  0
  6 14  1  0
  6 15  1  0
  7 16  1  0
  7 17  1  0
  8 18  1  0
  8 19  1  0
M  END
$$$$
