gdb 3178	2.9353764	1.3671239	1.102491	2.8359	74.56	-0.24939	-0.01688	0.23251	1127.7463	0.157337	-422.57072	-422.562317	-422.561372	-422.603871	31.802
 OpenBabel02181911413D

 19 20  0  0  1  0  0  0  0  0999 V2000
    1.8278   -1.9187   -1.4265 O   0  0  0  0  0  0  0  0  0  0  0  0
    0.5136   -1.4538   -1.7204 C   0  0  2  0  0  0  0  0  0  0  0  0
    0.3565   -1.1438   -3.1967 C   0  0  1  0  0  0  0  0  0  0  0  0
   -0.8632   -0.3792   -3.6491 C   0  0  0  0  0  0  0  0  0  0  0  0
    0.4209    0.3621   -3.3828 C   0  0  1  0  0  0  0  0  0  0  0  0
    0.5732    1.0080   -2.0132 C   0  0  0  0  0  0  0  0  0  0  0  0
    0.1949   -0.0982   -1.0050 C   0  0  2  0  0  0  0  0  0  0  0  0
    0.9095   -0.0203    0.3263 C   0  0  0  0  0  0  0  0  0  0  0  0
    1.7319    0.8108    0.6164 O   0  0  0  0  0  0  0  0  0  0  0  0
    2.4570   -1.3050   -1.8230 H   0  0  0  0  0  0  0  0  0  0  0  0
   -0.1454   -2.2549   -1.3720 H   0  0  0  0  0  0  0  0  0  0  0  0
    0.8271   -1.8352   -3.8871 H   0  0  0  0  0  0  0  0  0  0  0  0
   -1.1567   -0.5100   -4.6848 H   0  0  0  0  0  0  0  0  0  0  0  0
   -1.7018   -0.2566   -2.9706 H   0  0  0  0  0  0  0  0  0  0  0  0
    0.9448    0.8005   -4.2248 H   0  0  0  0  0  0  0  0  0  0  0  0
    1.6088    1.3198   -1.8411 H   0  0  0  0  0  0  0  0  0  0  0  0
   -0.0474    1.9006   -1.8877 H   0  0  0  0  0  0  0  0  0  0  0  0
   -0.8799   -0.0774   -0.7818 H   0  0  0  0  0  0  0  0  0  0  0  0
    0.6170   -0.8120    1.0505 H   0  0  0  0  0  0  0  0  0  0  0  0
  2  1  1  0  0  0  0
  2 11  1  1  0  0  0
  2  7  1  0  0  0  0
  3 12  1  6  0  0  0
  3  2  1  0  0  0  0
  4  5  1  0  0  0  0
  4  3  1  0  0  0  0
  4 14  1  0  0  0  0
  5 15  1  6  0  0  0
  5  3  1  0  0  0  0
  5  6  1  0  0  0  0
  6 17  1  0  0  0  0
  6 16  1  0  0  0  0
  6  7  1  0  0  0  0
  7 18  1  1  0  0  0
  7  8  1  0  0  0  0
  8  9  2  0  0  0  0
  8 19  1  0  0  0  0
 10  1  1  0  0  0  0
 13  4  1  0  0  0  0
M TOR 0 0 1 2 3
M TOR 1 0 1 2 4
M TOR 2 0 1 2 11
M TOR 3 0 1 6 5
M TOR 4 0 1 6 7
M TOR 5 0 1 6 17
M TOR 6 1 2 3 4
M TOR 7 1 2 3 12
M TOR 8 1 2 3 13
M TOR 9 1 2 4 5
M TOR 10 1 2 4 14
M TOR 11 1 6 5 4
M TOR 12 1 6 5 15
M TOR 13 1 6 5 16
M TOR 14 1 6 7 8
M TOR 15 1 6 7 18
M TOR 16 2 1 0 9
M TOR 17 2 1 6 5
M TOR 18 2 1 6 7
M TOR 19 2 1 6 17
M TOR 20 2 3 4 5
M TOR 21 2 3 4 14
M TOR 22 2 4 3 12
M TOR 23 2 4 3 13
M TOR 24 2 4 5 6
M TOR 25 2 4 5 15
M TOR 26 2 4 5 16
M TOR 27 3 2 1 6
M TOR 28 3 2 1 10
M TOR 29 3 4 2 11
M TOR 30 3 4 5 6
M TOR 31 3 4 5 15
M TOR 32 3 4 5 16
M TOR 33 4 2 1 6
M TOR 34 4 2 1 10
M TOR 35 4 5 6 7
M TOR 36 4 5 6 17
M TOR 37 5 4 2 11
M TOR 38 5 4 3 12
M TOR 39 5 4 3 13
M TOR 40 5 6 1 10
M TOR 41 5 6 7 8
M TOR 42 5 6 7 18
M TOR 43 6 1 0 9
M TOR 44 6 1 2 11
M TOR 45 6 5 4 14
M TOR 46 7 6 1 10
M TOR 47 7 6 5 15
M TOR 48 7 6 5 16
M TOR 49 8 7 6 17
M  END
$$$$
