gdb 940	3.3602024	0.9426661	0.8097243	1.1565	76.64	-0.23525	-0.02845	0.20679999999999998	1418.2959	0.154789	-422.523195	-422.514029	-422.513085	-422.55859	32.583
 OpenBabel02181911403D

 19 20  0  0  1  0  0  0  0  0999 V2000
    1.4730   -0.2932   -0.1073 O   0  0  0  0  0  0  0  0  0  0  0  0
    0.3032   -0.0246   -0.0145 C   0  0  0  0  0  0  0  0  0  0  0  0
   -0.3103    0.7936    1.1005 C   0  0  0  0  0  0  0  0  0  0  0  0
   -1.0576    2.0197    0.5681 C   0  0  1  0  0  0  0  0  0  0  0  0
   -2.4077    1.7876   -0.1561 C   0  0  0  0  0  0  0  0  0  0  0  0
   -3.1214    2.5742    0.8211 O   0  0  0  0  0  0  0  0  0  0  0  0
   -1.9209    2.8019    1.5615 C   0  0  0  0  0  0  0  0  0  0  0  0
   -1.9122    2.8149    3.0549 C   0  0  0  0  0  0  0  0  0  0  0  0
   -1.6651    4.0928    2.2605 C   0  0  0  0  0  0  0  0  0  0  0  0
   -0.4235   -0.3759   -0.7844 H   0  0  0  0  0  0  0  0  0  0  0  0
   -1.0192    0.1531    1.6440 H   0  0  0  0  0  0  0  0  0  0  0  0
    0.4878    1.0833    1.7907 H   0  0  0  0  0  0  0  0  0  0  0  0
   -0.3743    2.6610    0.0041 H   0  0  0  0  0  0  0  0  0  0  0  0
   -2.4927    2.2108   -1.1627 H   0  0  0  0  0  0  0  0  0  0  0  0
   -2.7579    0.7476   -0.1717 H   0  0  0  0  0  0  0  0  0  0  0  0
   -2.8723    2.7127    3.5492 H   0  0  0  0  0  0  0  0  0  0  0  0
   -1.0784    2.3623    3.5824 H   0  0  0  0  0  0  0  0  0  0  0  0
   -2.4616    4.8289    2.2380 H   0  0  0  0  0  0  0  0  0  0  0  0
   -0.6615    4.5061    2.2415 H   0  0  0  0  0  0  0  0  0  0  0  0
  1  2  2  0  0  0  0
  2  3  1  0  0  0  0
  3 11  1  0  0  0  0
  3 12  1  0  0  0  0
  4 13  1  6  0  0  0
  4  3  1  0  0  0  0
  4  7  1  0  0  0  0
  5  4  1  0  0  0  0
  5  6  1  0  0  0  0
  6  7  1  0  0  0  0
  7  9  1  0  0  0  0
  7  8  1  0  0  0  0
  8 16  1  0  0  0  0
  8 17  1  0  0  0  0
  9  8  1  0  0  0  0
 10  2  1  0  0  0  0
 14  5  1  0  0  0  0
 15  5  1  0  0  0  0
 18  9  1  0  0  0  0
 19  9  1  0  0  0  0
M TOR 0 0 1 2 3
M TOR 1 0 1 2 10
M TOR 2 0 1 2 11
M TOR 3 1 2 3 4
M TOR 4 1 2 3 6
M TOR 5 1 2 3 12
M TOR 6 2 3 4 5
M TOR 7 2 3 4 13
M TOR 8 2 3 4 14
M TOR 9 2 3 6 5
M TOR 10 2 3 6 7
M TOR 11 2 3 6 8
M TOR 12 3 2 1 9
M TOR 13 3 4 5 6
M TOR 14 3 6 7 8
M TOR 15 3 6 7 15
M TOR 16 3 6 7 16
M TOR 17 3 6 8 17
M TOR 18 3 6 8 18
M TOR 19 4 3 2 10
M TOR 20 4 3 2 11
M TOR 21 4 3 6 7
M TOR 22 4 3 6 8
M TOR 23 4 5 6 7
M TOR 24 4 5 6 8
M TOR 25 5 4 3 12
M TOR 26 5 6 3 12
M TOR 27 5 6 7 8
M TOR 28 5 6 7 15
M TOR 29 5 6 7 16
M TOR 30 5 6 8 17
M TOR 31 5 6 8 18
M TOR 32 6 3 2 10
M TOR 33 6 3 2 11
M TOR 34 6 3 4 13
M TOR 35 6 3 4 14
M TOR 36 6 5 4 13
M TOR 37 6 5 4 14
M TOR 38 6 7 8 17
M TOR 39 6 7 8 18
M TOR 40 6 8 7 15
M TOR 41 6 8 7 16
M TOR 42 7 6 3 12
M TOR 43 8 6 3 12
M  END
$$$$
