gdb 4883	2.3144725	1.3346281	1.1260079	2.3983	77.39	-0.25083	0.04935	0.30018	1178.7704	0.154655	-422.516375	-422.506769	-422.505825	-422.550532	36.067
 OpenBabel02181911413D

 19 19  0  0  1  0  0  0  0  0999 V2000
    1.3362    0.5312   -0.0654 O   0  0  0  0  0  0  0  0  0  0  0  0
    0.2770   -0.2480    0.4429 C   0  0  0  0  0  0  0  0  0  0  0  0
   -0.8220    0.6359    1.0322 C   0  0  2  0  0  0  0  0  0  0  0  0
   -0.2499    1.4755    2.0191 O   0  0  0  0  0  0  0  0  0  0  0  0
   -2.1247   -0.1270    1.3771 C   0  0  0  0  0  0  0  0  0  0  0  0
   -2.7254    0.3480    0.0274 C   0  0  0  0  0  0  0  0  0  0  0  0
   -1.5918    1.4288   -0.0822 C   0  0  1  0  0  0  0  0  0  0  0  0
   -2.0151    2.7668    0.2770 C   0  0  0  0  0  0  0  0  0  0  0  0
   -2.3958    3.8730    0.5547 C   0  0  0  0  0  0  0  0  0  0  0  0
    1.4819    1.2269    0.5895 H   0  0  0  0  0  0  0  0  0  0  0  0
   -0.1074   -0.8578   -0.3821 H   0  0  0  0  0  0  0  0  0  0  0  0
    0.6220   -0.9444    1.2302 H   0  0  0  0  0  0  0  0  0  0  0  0
   -0.0230    0.9279    2.7801 H   0  0  0  0  0  0  0  0  0  0  0  0
   -2.0411   -1.2038    1.5502 H   0  0  0  0  0  0  0  0  0  0  0  0
   -2.6258    0.3388    2.2290 H   0  0  0  0  0  0  0  0  0  0  0  0
   -2.6479   -0.4017   -0.7627 H   0  0  0  0  0  0  0  0  0  0  0  0
   -3.7429    0.7366    0.0522 H   0  0  0  0  0  0  0  0  0  0  0  0
   -1.0522    1.4522   -1.0331 H   0  0  0  0  0  0  0  0  0  0  0  0
   -2.7144    4.8537    0.8070 H   0  0  0  0  0  0  0  0  0  0  0  0
  1  2  1  0  0  0  0
  1 10  1  0  0  0  0
  2  3  1  0  0  0  0
  2 12  1  0  0  0  0
  3  5  1  0  0  0  0
  3  4  1  1  0  0  0
  4 13  1  0  0  0  0
  5 14  1  0  0  0  0
  5 15  1  0  0  0  0
  6 17  1  0  0  0  0
  6  5  1  0  0  0  0
  7 18  1  6  0  0  0
  7  6  1  0  0  0  0
  7  8  1  0  0  0  0
  7  3  1  0  0  0  0
  8  9  3  0  0  0  0
  9 19  1  0  0  0  0
 11  2  1  0  0  0  0
 16  6  1  0  0  0  0
M TOR 0 0 1 2 3
M TOR 1 0 1 2 4
M TOR 2 0 1 2 6
M TOR 3 1 2 3 12
M TOR 4 1 2 4 5
M TOR 5 1 2 4 13
M TOR 6 1 2 4 14
M TOR 7 1 2 6 5
M TOR 8 1 2 6 7
M TOR 9 1 2 6 17
M TOR 10 2 1 0 9
M TOR 11 2 4 5 6
M TOR 12 2 4 5 15
M TOR 13 2 4 5 16
M TOR 14 2 6 5 15
M TOR 15 2 6 5 16
M TOR 16 2 6 7 8
M TOR 17 3 2 1 10
M TOR 18 3 2 1 11
M TOR 19 3 2 4 5
M TOR 20 3 2 4 13
M TOR 21 3 2 4 14
M TOR 22 3 2 6 5
M TOR 23 3 2 6 7
M TOR 24 3 2 6 17
M TOR 25 4 2 1 10
M TOR 26 4 2 1 11
M TOR 27 4 2 3 12
M TOR 28 4 2 6 7
M TOR 29 4 2 6 17
M TOR 30 4 5 6 7
M TOR 31 4 5 6 17
M TOR 32 5 6 7 8
M TOR 33 6 2 1 10
M TOR 34 6 2 1 11
M TOR 35 6 2 3 12
M TOR 36 6 2 4 13
M TOR 37 6 2 4 14
M TOR 38 6 5 4 13
M TOR 39 6 5 4 14
M TOR 40 6 7 8 18
M TOR 41 7 6 5 15
M TOR 42 7 6 5 16
M TOR 43 8 7 6 17
M  END
$$$$
