
     RDKit          3D

 19 21  0  0  0  0  0  0  0  0999 V2000
    1.2849   -0.0724   -0.0759 C   0  0  0  0  0  0  0  0  0  0  0  0
   -0.1220    0.0413    0.0358 O   0  0  0  0  0  0  0  0  0  0  0  0
   -0.5638    0.7645    1.1218 C   0  0  0  0  0  0  0  0  0  0  0  0
   -0.1902    2.2088    1.4972 C   0  0  0  0  0  0  0  0  0  0  0  0
   -0.9702    1.8331    2.7795 C   0  0  0  0  0  0  0  0  0  0  0  0
   -2.3201    1.7240    2.2990 O   0  0  0  0  0  0  0  0  0  0  0  0
   -2.1077    0.5883    1.4501 C   0  0  0  0  0  0  0  0  0  0  0  0
   -1.7444   -0.5238    2.4599 C   0  0  0  0  0  0  0  0  0  0  0  0
   -0.4819    0.3287    2.6472 C   0  0  0  0  0  0  0  0  0  0  0  0
    1.7269   -0.5244    0.8230 H   0  0  0  0  0  0  0  0  0  0  0  0
    1.4833   -0.7187   -0.9334 H   0  0  0  0  0  0  0  0  0  0  0  0
    1.7591    0.9031   -0.2483 H   0  0  0  0  0  0  0  0  0  0  0  0
    0.8830    2.3091    1.6827 H   0  0  0  0  0  0  0  0  0  0  0  0
   -0.5712    3.0487    0.9111 H   0  0  0  0  0  0  0  0  0  0  0  0
   -0.9174    2.4074    3.7015 H   0  0  0  0  0  0  0  0  0  0  0  0
   -2.8764    0.5034    0.6843 H   0  0  0  0  0  0  0  0  0  0  0  0
   -2.4340   -0.6764    3.2932 H   0  0  0  0  0  0  0  0  0  0  0  0
   -1.5034   -1.4681    1.9665 H   0  0  0  0  0  0  0  0  0  0  0  0
    0.4224    0.0221    3.1695 H   0  0  0  0  0  0  0  0  0  0  0  0
  1  2  1  0
  2  3  1  0
  3  4  1  0
  4  5  1  0
  5  6  1  0
  6  7  1  0
  7  8  1  0
  8  9  1  0
  7  3  1  0
  9  3  1  0
  9  5  1  0
  1 10  1  0
  1 11  1  0
  1 12  1  0
  4 13  1  0
  4 14  1  0
  5 15  1  0
  7 16  1  0
  8 17  1  0
  8 18  1  0
  9 19  1  0
M  END
$$$$
