
     RDKit          3D

 19 21  0  0  0  0  0  0  0  0999 V2000
    0.2913    0.4779   -0.2514 C   0  0  0  0  0  0  0  0  0  0  0  0
    0.8500   -0.8051    0.3228 C   0  0  0  0  0  0  0  0  0  0  0  0
    2.1181   -0.5706    1.0288 O   0  0  0  0  0  0  0  0  0  0  0  0
    2.7568   -1.5724    0.2661 C   0  0  0  0  0  0  0  0  0  0  0  0
    4.2180   -1.6931   -0.1309 C   0  0  0  0  0  0  0  0  0  0  0  0
    3.9913   -3.2449   -0.2315 C   0  0  0  0  0  0  0  0  0  0  0  0
    2.6201   -3.1008    0.5017 C   0  0  0  0  0  0  0  0  0  0  0  0
    1.4470   -3.1925   -0.3433 O   0  0  0  0  0  0  0  0  0  0  0  0
    1.5476   -1.7905   -0.6561 C   0  0  0  0  0  0  0  0  0  0  0  0
    0.0943    1.1983    0.5481 H   0  0  0  0  0  0  0  0  0  0  0  0
    0.9985    0.9322   -0.9525 H   0  0  0  0  0  0  0  0  0  0  0  0
   -0.6479    0.2805   -0.7793 H   0  0  0  0  0  0  0  0  0  0  0  0
    0.1309   -1.3095    0.9780 H   0  0  0  0  0  0  0  0  0  0  0  0
    4.5491   -1.1575   -1.0243 H   0  0  0  0  0  0  0  0  0  0  0  0
    4.8833   -1.4378    0.6994 H   0  0  0  0  0  0  0  0  0  0  0  0
    3.8732   -3.6167   -1.2507 H   0  0  0  0  0  0  0  0  0  0  0  0
    4.7324   -3.8534    0.2892 H   0  0  0  0  0  0  0  0  0  0  0  0
    2.4972   -3.6026    1.4630 H   0  0  0  0  0  0  0  0  0  0  0  0
    1.4796   -1.5727   -1.7249 H   0  0  0  0  0  0  0  0  0  0  0  0
  1  2  1  0
  2  3  1  0
  3  4  1  0
  4  5  1  0
  5  6  1  0
  6  7  1  0
  7  8  1  0
  8  9  1  0
  9  2  1  0
  7  4  1  0
  9  4  1  0
  1 10  1  0
  1 11  1  0
  1 12  1  0
  2 13  1  0
  5 14  1  0
  5 15  1  0
  6 16  1  0
  6 17  1  0
  7 18  1  0
  9 19  1  0
M  END
$$$$
