gdb 2744	3.0189664	1.3575691	1.1191754	0.4243	76.52	-0.22335	0.0747	0.29805	1147.1466	0.155284	-422.501277	-422.492643	-422.491698	-422.534439	33.318
 OpenBabel02181911413D

 19 21  0  0  0  0  0  0  0  0999 V2000
    0.4168    0.3320    0.7375 O   0  0  0  0  0  0  0  0  0  0  0  0
   -0.8569    0.9143    0.6857 C   0  0  0  0  0  0  0  0  0  0  0  0
   -1.6493    0.8412   -0.6227 C   0  0  0  0  0  0  0  0  0  0  0  0
   -1.1499    0.4241   -1.9684 C   0  0  0  0  0  0  0  0  0  0  0  0
   -1.7849    1.7941   -1.7548 C   0  0  0  0  0  0  0  0  0  0  0  0
   -2.7759    0.2224    0.0100 O   0  0  0  0  0  0  0  0  0  0  0  0
   -2.0497    0.1312    1.2415 C   0  0  0  0  0  0  0  0  0  0  0  0
   -2.7140    0.1468    2.5707 C   0  0  0  0  0  0  0  0  0  0  0  0
   -2.0170   -1.1134    2.0687 C   0  0  0  0  0  0  0  0  0  0  0  0
    0.3416   -0.5611    0.3812 H   0  0  0  0  0  0  0  0  0  0  0  0
   -0.7484    1.9227    1.0930 H   0  0  0  0  0  0  0  0  0  0  0  0
   -0.0761    0.3698   -2.1185 H   0  0  0  0  0  0  0  0  0  0  0  0
   -1.7315   -0.3158   -2.5075 H   0  0  0  0  0  0  0  0  0  0  0  0
   -1.1479    2.6727   -1.7727 H   0  0  0  0  0  0  0  0  0  0  0  0
   -2.7822    1.9453   -2.1538 H   0  0  0  0  0  0  0  0  0  0  0  0
   -2.2534    0.7125    3.3744 H   0  0  0  0  0  0  0  0  0  0  0  0
   -3.7987    0.1430    2.5786 H   0  0  0  0  0  0  0  0  0  0  0  0
   -1.0731   -1.3980    2.5231 H   0  0  0  0  0  0  0  0  0  0  0  0
   -2.6464   -1.9379    1.7519 H   0  0  0  0  0  0  0  0  0  0  0  0
  2  1  1  0  0  0  0
  2 11  1  0  0  0  0
  2  7  1  0  0  0  0
  3  6  1  0  0  0  0
  3  2  1  0  0  0  0
  4  5  1  0  0  0  0
  4  3  1  0  0  0  0
  5  3  1  0  0  0  0
  6  7  1  0  0  0  0
  7  9  1  0  0  0  0
  7  8  1  0  0  0  0
  8 17  1  0  0  0  0
  8 16  1  0  0  0  0
  9 18  1  0  0  0  0
  9  8  1  0  0  0  0
 10  1  1  0  0  0  0
 12  4  1  0  0  0  0
 13  4  1  0  0  0  0
 14  5  1  0  0  0  0
 15  5  1  0  0  0  0
 19  9  1  0  0  0  0
M TOR 0 0 1 2 3
M TOR 1 0 1 2 4
M TOR 2 0 1 2 5
M TOR 3 0 1 6 5
M TOR 4 0 1 6 7
M TOR 5 0 1 6 8
M TOR 6 1 2 3 4
M TOR 7 1 2 3 11
M TOR 8 1 2 3 12
M TOR 9 1 2 4 13
M TOR 10 1 2 4 14
M TOR 11 1 2 5 6
M TOR 12 1 6 7 8
M TOR 13 1 6 7 15
M TOR 14 1 6 7 16
M TOR 15 1 6 8 17
M TOR 16 1 6 8 18
M TOR 17 2 1 0 9
M TOR 18 2 1 6 7
M TOR 19 2 1 6 8
M TOR 20 2 3 4 13
M TOR 21 2 3 4 14
M TOR 22 2 4 3 11
M TOR 23 2 4 3 12
M TOR 24 2 5 6 7
M TOR 25 2 5 6 8
M TOR 26 3 2 1 6
M TOR 27 3 2 1 10
M TOR 28 3 2 5 6
M TOR 29 3 4 2 5
M TOR 30 4 2 1 6
M TOR 31 4 2 1 10
M TOR 32 4 2 5 6
M TOR 33 5 2 1 10
M TOR 34 5 2 3 11
M TOR 35 5 2 3 12
M TOR 36 5 2 4 13
M TOR 37 5 2 4 14
M TOR 38 5 6 1 10
M TOR 39 5 6 7 8
M TOR 40 5 6 7 15
M TOR 41 5 6 7 16
M TOR 42 5 6 8 17
M TOR 43 5 6 8 18
M TOR 44 6 1 0 9
M TOR 45 6 7 8 17
M TOR 46 6 7 8 18
M TOR 47 6 8 7 15
M TOR 48 6 8 7 16
M TOR 49 7 6 1 10
M TOR 50 8 6 1 10
M  END
$$$$
