
     RDKit          3D

 19 20  0  0  0  0  0  0  0  0999 V2000
    1.8278   -1.9187   -1.4265 O   0  0  0  0  0  0  0  0  0  0  0  0
    0.5136   -1.4538   -1.7204 C   0  0  0  0  0  0  0  0  0  0  0  0
    0.3565   -1.1438   -3.1967 C   0  0  0  0  0  0  0  0  0  0  0  0
   -0.8632   -0.3792   -3.6491 C   0  0  0  0  0  0  0  0  0  0  0  0
    0.4209    0.3621   -3.3828 C   0  0  0  0  0  0  0  0  0  0  0  0
    0.5732    1.0080   -2.0132 C   0  0  0  0  0  0  0  0  0  0  0  0
    0.1949   -0.0982   -1.0050 C   0  0  0  0  0  0  0  0  0  0  0  0
    0.9095   -0.0203    0.3263 C   0  0  0  0  0  0  0  0  0  0  0  0
    1.7319    0.8108    0.6164 O   0  0  0  0  0  0  0  0  0  0  0  0
    2.4570   -1.3050   -1.8230 H   0  0  0  0  0  0  0  0  0  0  0  0
   -0.1454   -2.2549   -1.3720 H   0  0  0  0  0  0  0  0  0  0  0  0
    0.8271   -1.8352   -3.8871 H   0  0  0  0  0  0  0  0  0  0  0  0
   -1.1567   -0.5100   -4.6848 H   0  0  0  0  0  0  0  0  0  0  0  0
   -1.7018   -0.2566   -2.9706 H   0  0  0  0  0  0  0  0  0  0  0  0
    0.9448    0.8005   -4.2248 H   0  0  0  0  0  0  0  0  0  0  0  0
    1.6088    1.3198   -1.8411 H   0  0  0  0  0  0  0  0  0  0  0  0
   -0.0474    1.9006   -1.8877 H   0  0  0  0  0  0  0  0  0  0  0  0
   -0.8799   -0.0774   -0.7818 H   0  0  0  0  0  0  0  0  0  0  0  0
    0.6170   -0.8120    1.0505 H   0  0  0  0  0  0  0  0  0  0  0  0
  1  2  1  0
  2  3  1  0
  3  4  1  0
  4  5  1  0
  5  6  1  0
  6  7  1  0
  7  8  1  0
  8  9  2  0
  7  2  1  0
  5  3  1  0
  1 10  1  0
  2 11  1  0
  3 12  1  0
  4 13  1  0
  4 14  1  0
  5 15  1  0
  6 16  1  0
  6 17  1  0
  7 18  1  0
  8 19  1  0
M  END
$$$$
