
     RDKit          3D

 19 20  0  0  0  0  0  0  0  0999 V2000
   -0.4079    4.2500    0.9122 C   0  0  0  0  0  0  0  0  0  0  0  0
   -1.2993    4.8850   -0.1362 C   0  0  0  0  0  0  0  0  0  0  0  0
   -0.0539    4.1689   -0.5482 C   0  0  0  0  0  0  0  0  0  0  0  0
   -0.2365    2.9651   -1.2413 O   0  0  0  0  0  0  0  0  0  0  0  0
    0.7995    2.0238   -1.0629 C   0  0  0  0  0  0  0  0  0  0  0  0
    0.6982    1.3234    0.1676 O   0  0  0  0  0  0  0  0  0  0  0  0
    0.2771   -0.0182   -0.0644 C   0  0  0  0  0  0  0  0  0  0  0  0
    0.3404   -0.1916   -1.5547 C   0  0  0  0  0  0  0  0  0  0  0  0
    0.6657    0.9626   -2.1223 C   0  0  0  0  0  0  0  0  0  0  0  0
    0.1869    4.8930    1.5518 H   0  0  0  0  0  0  0  0  0  0  0  0
   -0.7504    3.3333    1.3742 H   0  0  0  0  0  0  0  0  0  0  0  0
   -2.2349    4.3858   -0.3607 H   0  0  0  0  0  0  0  0  0  0  0  0
   -1.3274    5.9654   -0.2212 H   0  0  0  0  0  0  0  0  0  0  0  0
    0.7901    4.7583   -0.9073 H   0  0  0  0  0  0  0  0  0  0  0  0
    1.7641    2.5543   -1.0605 H   0  0  0  0  0  0  0  0  0  0  0  0
    0.9541   -0.6959    0.4737 H   0  0  0  0  0  0  0  0  0  0  0  0
   -0.7378   -0.1874    0.3279 H   0  0  0  0  0  0  0  0  0  0  0  0
    0.1303   -1.1301   -2.0516 H   0  0  0  0  0  0  0  0  0  0  0  0
    0.7728    1.1801   -3.1759 H   0  0  0  0  0  0  0  0  0  0  0  0
  1  2  1  0
  2  3  1  0
  3  4  1  0
  4  5  1  0
  5  6  1  0
  6  7  1  0
  7  8  1  0
  8  9  2  0
  3  1  1  0
  9  5  1  0
  1 10  1  0
  1 11  1  0
  2 12  1  0
  2 13  1  0
  3 14  1  0
  5 15  1  0
  7 16  1  0
  7 17  1  0
  8 18  1  0
  9 19  1  0
M  END
$$$$
