
     RDKit          3D

 19 21  0  0  0  0  0  0  0  0999 V2000
    0.2099    0.4386   -0.0313 C   0  0  0  0  0  0  0  0  0  0  0  0
    1.3000    0.8803    0.7818 O   0  0  0  0  0  0  0  0  0  0  0  0
    1.5882    0.3983   -0.5325 C   0  0  0  0  0  0  0  0  0  0  0  0
    2.3768   -0.8669   -0.5945 C   0  0  0  0  0  0  0  0  0  0  0  0
    2.1273   -2.1264    0.2747 C   0  0  0  0  0  0  0  0  0  0  0  0
    3.5329   -2.4924   -0.2997 C   0  0  0  0  0  0  0  0  0  0  0  0
    3.8699   -0.9744   -0.1780 C   0  0  0  0  0  0  0  0  0  0  0  0
    3.2000   -2.5720   -1.7944 C   0  0  0  0  0  0  0  0  0  0  0  0
    2.3783   -1.3888   -1.9390 O   0  0  0  0  0  0  0  0  0  0  0  0
   -0.2702   -0.4828    0.2928 H   0  0  0  0  0  0  0  0  0  0  0  0
   -0.4635    1.2214   -0.3765 H   0  0  0  0  0  0  0  0  0  0  0  0
    1.9036    1.1649   -1.2413 H   0  0  0  0  0  0  0  0  0  0  0  0
    2.1423   -1.9174    1.3445 H   0  0  0  0  0  0  0  0  0  0  0  0
    1.2777   -2.7578    0.0024 H   0  0  0  0  0  0  0  0  0  0  0  0
    4.1594   -3.2743    0.1267 H   0  0  0  0  0  0  0  0  0  0  0  0
    4.0488   -0.6560    0.8494 H   0  0  0  0  0  0  0  0  0  0  0  0
    4.6085   -0.5481   -0.8616 H   0  0  0  0  0  0  0  0  0  0  0  0
    4.0799   -2.5003   -2.4444 H   0  0  0  0  0  0  0  0  0  0  0  0
    2.6235   -3.4629   -2.0693 H   0  0  0  0  0  0  0  0  0  0  0  0
  1  2  1  0
  2  3  1  0
  3  4  1  0
  4  5  1  0
  5  6  1  0
  6  7  1  0
  6  8  1  0
  8  9  1  0
  3  1  1  0
  7  4  1  0
  9  4  1  0
  1 10  1  0
  1 11  1  0
  3 12  1  0
  5 13  1  0
  5 14  1  0
  6 15  1  0
  7 16  1  0
  7 17  1  0
  8 18  1  0
  8 19  1  0
M  END
$$$$
