
     RDKit          3D

 19 21  0  0  0  0  0  0  0  0999 V2000
    0.6917    0.7948    0.7252 O   0  0  0  0  0  0  0  0  0  0  0  0
   -0.7008    0.7182    0.7623 C   0  0  0  0  0  0  0  0  0  0  0  0
   -1.5537    1.8778    1.3531 C   0  0  0  0  0  0  0  0  0  0  0  0
   -2.7216    0.8571    1.5438 C   0  0  0  0  0  0  0  0  0  0  0  0
   -3.5234    1.2392    2.7934 C   0  0  0  0  0  0  0  0  0  0  0  0
   -2.3634    1.6529    3.7350 C   0  0  0  0  0  0  0  0  0  0  0  0
   -1.1846    1.4048    2.7918 C   0  0  0  0  0  0  0  0  0  0  0  0
    0.1010    1.7394    3.2602 O   0  0  0  0  0  0  0  0  0  0  0  0
   -1.4391    0.0820    1.9747 C   0  0  0  0  0  0  0  0  0  0  0  0
    0.9758    1.1484    1.5794 H   0  0  0  0  0  0  0  0  0  0  0  0
   -1.0237    0.3573   -0.2186 H   0  0  0  0  0  0  0  0  0  0  0  0
   -1.6328    2.9121    1.0124 H   0  0  0  0  0  0  0  0  0  0  0  0
   -3.2597    0.5176    0.6586 H   0  0  0  0  0  0  0  0  0  0  0  0
   -4.2204    2.0602    2.6001 H   0  0  0  0  0  0  0  0  0  0  0  0
   -4.1051    0.3976    3.1815 H   0  0  0  0  0  0  0  0  0  0  0  0
   -2.4100    2.6991    4.0518 H   0  0  0  0  0  0  0  0  0  0  0  0
   -2.3024    1.0337    4.6377 H   0  0  0  0  0  0  0  0  0  0  0  0
    0.2585    1.2624    4.0826 H   0  0  0  0  0  0  0  0  0  0  0  0
   -1.3872   -0.9440    2.3469 H   0  0  0  0  0  0  0  0  0  0  0  0
  1  2  1  0
  2  3  1  0
  3  4  1  0
  4  5  1  0
  5  6  1  0
  6  7  1  0
  7  8  1  0
  7  9  1  0
  9  2  1  0
  7  3  1  0
  9  4  1  0
  1 10  1  0
  2 11  1  0
  3 12  1  0
  4 13  1  0
  5 14  1  0
  5 15  1  0
  6 16  1  0
  6 17  1  0
  8 18  1  0
  9 19  1  0
M  END
$$$$
