
     RDKit          3D

 19 20  0  0  0  0  0  0  0  0999 V2000
   -2.8184   -1.8935    1.2475 C   0  0  0  0  0  0  0  0  0  0  0  0
   -2.2863   -1.0887    0.0694 C   0  0  0  0  0  0  0  0  0  0  0  0
   -0.8366   -1.1800    0.0918 O   0  0  0  0  0  0  0  0  0  0  0  0
   -0.0644   -0.0599    0.0258 C   0  0  0  0  0  0  0  0  0  0  0  0
    1.1309   -0.1612    0.0197 O   0  0  0  0  0  0  0  0  0  0  0  0
   -0.8299    1.2453   -0.0248 C   0  0  0  0  0  0  0  0  0  0  0  0
   -1.9404    1.2038    1.0654 C   0  0  0  0  0  0  0  0  0  0  0  0
   -2.7498    0.3670    0.0381 C   0  0  0  0  0  0  0  0  0  0  0  0
   -1.9705    1.1131   -1.0764 C   0  0  0  0  0  0  0  0  0  0  0  0
   -2.3946   -2.9007    1.2361 H   0  0  0  0  0  0  0  0  0  0  0  0
   -2.5575   -1.4242    2.2005 H   0  0  0  0  0  0  0  0  0  0  0  0
   -3.9082   -1.9749    1.1874 H   0  0  0  0  0  0  0  0  0  0  0  0
   -2.5953   -1.5751   -0.8654 H   0  0  0  0  0  0  0  0  0  0  0  0
   -0.1304    2.0777   -0.0704 H   0  0  0  0  0  0  0  0  0  0  0  0
   -1.6958    0.7614    2.0338 H   0  0  0  0  0  0  0  0  0  0  0  0
   -2.3799    2.1922    1.2168 H   0  0  0  0  0  0  0  0  0  0  0  0
   -3.8409    0.4159    0.0491 H   0  0  0  0  0  0  0  0  0  0  0  0
   -1.7571    0.5782   -2.0060 H   0  0  0  0  0  0  0  0  0  0  0  0
   -2.4100    2.0866   -1.3048 H   0  0  0  0  0  0  0  0  0  0  0  0
  1  2  1  0
  2  3  1  0
  3  4  1  0
  4  5  2  0
  4  6  1  0
  6  7  1  0
  7  8  1  0
  8  9  1  0
  8  2  1  0
  9  6  1  0
  1 10  1  0
  1 11  1  0
  1 12  1  0
  2 13  1  0
  6 14  1  0
  7 15  1  0
  7 16  1  0
  8 17  1  0
  9 18  1  0
  9 19  1  0
M  END
$$$$
