gdb 506	3.2282626	1.7219077	1.4406996	1.8781	73.86	-0.24563	0.06784	0.31346999999999997	947.2884	0.159712	-422.501678	-422.494884	-422.49394	-422.532421	28.105
 OpenBabel02181911403D

 19 21  0  0  1  0  0  0  0  0999 V2000
    0.2981    0.9129   -1.1648 C   0  0  0  0  0  0  0  0  0  0  0  0
    0.4120   -0.3822   -0.4830 O   0  0  0  0  0  0  0  0  0  0  0  0
    1.0354    0.2848    0.6111 C   0  0  1  0  0  0  0  0  0  0  0  0
    0.0773    1.1021    1.5480 C   0  0  0  0  0  0  0  0  0  0  0  0
    0.9511    2.3118    1.1280 C   0  0  1  0  0  0  0  0  0  0  0  0
    2.2564    2.1765    1.9572 C   0  0  0  0  0  0  0  0  0  0  0  0
    2.5648    0.8208    2.3121 O   0  0  0  0  0  0  0  0  0  0  0  0
    2.2254   -0.2205    1.3840 C   0  0  0  0  0  0  0  0  0  0  0  0
    1.3018    1.5754   -0.1828 C   0  0  2  0  0  0  0  0  0  0  0  0
    0.6455    0.8384   -2.1987 H   0  0  0  0  0  0  0  0  0  0  0  0
   -0.7316    1.2875   -1.1533 H   0  0  0  0  0  0  0  0  0  0  0  0
   -0.9359    1.1331    1.1471 H   0  0  0  0  0  0  0  0  0  0  0  0
    0.0557    0.8417    2.6070 H   0  0  0  0  0  0  0  0  0  0  0  0
    0.5569    3.3320    1.1480 H   0  0  0  0  0  0  0  0  0  0  0  0
    3.0975    2.6318    1.4109 H   0  0  0  0  0  0  0  0  0  0  0  0
    2.1543    2.6967    2.9152 H   0  0  0  0  0  0  0  0  0  0  0  0
    3.0626   -0.4452    0.7065 H   0  0  0  0  0  0  0  0  0  0  0  0
    2.0166   -1.1095    1.9902 H   0  0  0  0  0  0  0  0  0  0  0  0
    2.2800    1.7741   -0.6266 H   0  0  0  0  0  0  0  0  0  0  0  0
  1 11  1  0  0  0  0
  1  2  1  0  0  0  0
  1  9  1  0  0  0  0
  3  2  1  6  0  0  0
  3  8  1  0  0  0  0
  3  4  1  0  0  0  0
  4 13  1  0  0  0  0
  5 14  1  6  0  0  0
  5  4  1  0  0  0  0
  5  6  1  0  0  0  0
  6  7  1  0  0  0  0
  6 16  1  0  0  0  0
  8 18  1  0  0  0  0
  8  7  1  0  0  0  0
  9 19  1  6  0  0  0
  9  3  1  0  0  0  0
  9  5  1  0  0  0  0
 10  1  1  0  0  0  0
 12  4  1  0  0  0  0
 15  6  1  0  0  0  0
 17  8  1  0  0  0  0
M TOR 0 0 1 2 3
M TOR 1 0 1 2 7
M TOR 2 0 1 2 8
M TOR 3 0 8 2 3
M TOR 4 0 8 2 7
M TOR 5 0 8 4 3
M TOR 6 0 8 4 5
M TOR 7 0 8 4 13
M TOR 8 1 0 8 4
M TOR 9 1 0 8 18
M TOR 10 1 2 3 4
M TOR 11 1 2 3 11
M TOR 12 1 2 3 12
M TOR 13 1 2 7 6
M TOR 14 1 2 7 16
M TOR 15 1 2 7 17
M TOR 16 1 2 8 4
M TOR 17 1 2 8 18
M TOR 18 2 1 0 9
M TOR 19 2 1 0 10
M TOR 20 2 3 4 5
M TOR 21 2 3 4 8
M TOR 22 2 3 4 13
M TOR 23 2 7 6 5
M TOR 24 2 8 0 9
M TOR 25 2 8 0 10
M TOR 26 2 8 4 5
M TOR 27 2 8 4 13
M TOR 28 3 2 7 6
M TOR 29 3 2 7 16
M TOR 30 3 2 7 17
M TOR 31 3 2 8 18
M TOR 32 3 4 5 6
M TOR 33 3 4 5 14
M TOR 34 3 4 5 15
M TOR 35 3 4 8 18
M TOR 36 4 3 2 7
M TOR 37 4 5 6 7
M TOR 38 4 8 0 9
M TOR 39 4 8 0 10
M TOR 40 4 8 2 7
M TOR 41 5 4 3 11
M TOR 42 5 4 3 12
M TOR 43 5 4 8 18
M TOR 44 5 6 7 16
M TOR 45 5 6 7 17
M TOR 46 6 5 4 8
M TOR 47 6 5 4 13
M TOR 48 6 7 2 8
M TOR 49 7 2 3 11
M TOR 50 7 2 3 12
M TOR 51 7 2 8 18
M TOR 52 7 6 5 14
M TOR 53 7 6 5 15
M TOR 54 8 2 3 11
M TOR 55 8 2 3 12
M TOR 56 8 2 7 16
M TOR 57 8 2 7 17
M TOR 58 8 4 3 11
M TOR 59 8 4 3 12
M TOR 60 8 4 5 14
M TOR 61 8 4 5 15
M  END
$$$$
