gdb 3033	2.7288395	1.5211807	1.210466	2.3055	75.76	-0.23987	0.07984	0.31971	1087.2668	0.155888	-422.467609	-422.459335	-422.458391	-422.500672	31.427
 OpenBabel02181911413D

 19 21  0  0  1  0  0  0  0  0999 V2000
   -0.1464    0.2101    0.1614 C   0  0  0  0  0  0  0  0  0  0  0  0
    1.3385   -0.0306   -0.0245 C   0  0  2  0  0  0  0  0  0  0  0  0
    2.2118   -0.4080    1.2028 C   0  0  1  0  0  0  0  0  0  0  0  0
    3.4741    0.0799    0.4574 C   0  0  0  0  0  0  0  0  0  0  0  0
    2.3428    1.1283    0.2930 C   0  0  2  0  0  0  0  0  0  0  0  0
    2.0351    0.9650    1.7381 O   0  0  0  0  0  0  0  0  0  0  0  0
    2.4117    2.5035   -0.2688 C   0  0  2  0  0  0  0  0  0  0  0  0
    2.3637    3.6834    0.6037 C   0  0  0  0  0  0  0  0  0  0  0  0
    1.2244    3.2925   -0.1668 O   0  0  0  0  0  0  0  0  0  0  0  0
   -0.3275    0.7767    1.0761 H   0  0  0  0  0  0  0  0  0  0  0  0
   -0.5566    0.7761   -0.6803 H   0  0  0  0  0  0  0  0  0  0  0  0
   -0.6870   -0.7410    0.2198 H   0  0  0  0  0  0  0  0  0  0  0  0
    1.5667   -0.5918   -0.9370 H   0  0  0  0  0  0  0  0  0  0  0  0
    2.1001   -1.2306    1.9091 H   0  0  0  0  0  0  0  0  0  0  0  0
    4.2973    0.3914    1.1009 H   0  0  0  0  0  0  0  0  0  0  0  0
    3.8006   -0.4712   -0.4282 H   0  0  0  0  0  0  0  0  0  0  0  0
    2.9236    2.5755   -1.2297 H   0  0  0  0  0  0  0  0  0  0  0  0
    2.2715    3.5327    1.6764 H   0  0  0  0  0  0  0  0  0  0  0  0
    2.8496    4.6050    0.2871 H   0  0  0  0  0  0  0  0  0  0  0  0
  1 12  1  0  0  0  0
  1 10  1  0  0  0  0
  2 13  1  6  0  0  0
  2  1  1  0  0  0  0
  2  5  1  0  0  0  0
  2  3  1  0  0  0  0
  3  6  1  0  0  0  0
  3 14  1  1  0  0  0
  4 15  1  0  0  0  0
  4  3  1  0  0  0  0
  5  4  1  0  0  0  0
  5  6  1  1  0  0  0
  7 17  1  6  0  0  0
  7  9  1  0  0  0  0
  7  5  1  0  0  0  0
  7  8  1  0  0  0  0
  8 18  1  0  0  0  0
  9  8  1  0  0  0  0
 11  1  1  0  0  0  0
 16  4  1  0  0  0  0
 19  8  1  0  0  0  0
M TOR 0 0 1 2 3
M TOR 1 0 1 2 5
M TOR 2 0 1 2 13
M TOR 3 0 1 4 3
M TOR 4 0 1 4 5
M TOR 5 0 1 4 6
M TOR 6 1 2 3 4
M TOR 7 1 2 3 14
M TOR 8 1 2 3 15
M TOR 9 1 2 5 4
M TOR 10 1 4 3 14
M TOR 11 1 4 3 15
M TOR 12 1 4 6 7
M TOR 13 1 4 6 8
M TOR 14 1 4 6 16
M TOR 15 2 1 0 9
M TOR 16 2 1 0 10
M TOR 17 2 1 0 11
M TOR 18 2 1 4 6
M TOR 19 2 3 4 5
M TOR 20 2 3 4 6
M TOR 21 2 5 4 6
M TOR 22 3 2 1 12
M TOR 23 3 4 1 12
M TOR 24 3 4 6 7
M TOR 25 3 4 6 8
M TOR 26 3 4 6 16
M TOR 27 4 1 0 9
M TOR 28 4 1 0 10
M TOR 29 4 1 0 11
M TOR 30 4 1 2 13
M TOR 31 4 3 2 13
M TOR 32 4 5 2 13
M TOR 33 4 6 7 8
M TOR 34 4 6 7 17
M TOR 35 4 6 7 18
M TOR 36 5 2 1 12
M TOR 37 5 2 3 14
M TOR 38 5 2 3 15
M TOR 39 5 4 1 12
M TOR 40 5 4 3 14
M TOR 41 5 4 3 15
M TOR 42 5 4 6 7
M TOR 43 5 4 6 8
M TOR 44 5 4 6 16
M TOR 45 6 4 1 12
M TOR 46 6 4 3 14
M TOR 47 6 4 3 15
M TOR 48 6 8 7 17
M TOR 49 6 8 7 18
M TOR 50 7 8 6 16
M  END
$$$$
