
     RDKit          3D

 19 21  0  0  0  0  0  0  0  0999 V2000
    1.4118   -0.0513    0.0250 C   0  0  0  0  0  0  0  0  0  0  0  0
   -0.0097   -0.0773    0.0682 O   0  0  0  0  0  0  0  0  0  0  0  0
   -0.5598    0.5550    1.1450 C   0  0  0  0  0  0  0  0  0  0  0  0
   -2.0595    0.5756    1.4577 C   0  0  0  0  0  0  0  0  0  0  0  0
   -1.4423    1.3953    2.6120 C   0  0  0  0  0  0  0  0  0  0  0  0
   -0.1583    0.5215    2.6709 C   0  0  0  0  0  0  0  0  0  0  0  0
    0.7575    1.6504    2.5870 O   0  0  0  0  0  0  0  0  0  0  0  0
   -0.3441    2.0320    1.6977 C   0  0  0  0  0  0  0  0  0  0  0  0
   -0.3089    3.3578    1.0091 C   0  0  0  0  0  0  0  0  0  0  0  0
    1.8464   -0.5350    0.9084 H   0  0  0  0  0  0  0  0  0  0  0  0
    1.7055   -0.6002   -0.8719 H   0  0  0  0  0  0  0  0  0  0  0  0
    1.7969    0.9736   -0.0303 H   0  0  0  0  0  0  0  0  0  0  0  0
   -2.6964    1.1193    0.7549 H   0  0  0  0  0  0  0  0  0  0  0  0
   -2.5112   -0.3829    1.7262 H   0  0  0  0  0  0  0  0  0  0  0  0
   -1.9240    1.8781    3.4587 H   0  0  0  0  0  0  0  0  0  0  0  0
    0.0872   -0.3086    3.3322 H   0  0  0  0  0  0  0  0  0  0  0  0
   -0.2673    4.1726    1.7388 H   0  0  0  0  0  0  0  0  0  0  0  0
    0.5652    3.4357    0.3555 H   0  0  0  0  0  0  0  0  0  0  0  0
   -1.2069    3.4874    0.3965 H   0  0  0  0  0  0  0  0  0  0  0  0
  1  2  1  0
  2  3  1  0
  3  4  1  0
  4  5  1  0
  5  6  1  0
  6  7  1  0
  7  8  1  0
  8  9  1  0
  6  3  1  0
  8  3  1  0
  8  5  1  0
  1 10  1  0
  1 11  1  0
  1 12  1  0
  4 13  1  0
  4 14  1  0
  5 15  1  0
  6 16  1  0
  9 17  1  0
  9 18  1  0
  9 19  1  0
M  END
$$$$
