
     RDKit          3D

 19 20  0  0  0  0  0  0  0  0999 V2000
   -3.1257    0.0591   -1.2213 C   0  0  0  0  0  0  0  0  0  0  0  0
   -2.1939    0.1724   -0.0397 C   0  0  0  0  0  0  0  0  0  0  0  0
   -2.6840    0.7302    1.3161 C   0  0  0  0  0  0  0  0  0  0  0  0
   -1.3449    1.5044    1.4831 C   0  0  0  0  0  0  0  0  0  0  0  0
   -0.9457    1.1797    0.0084 C   0  0  0  0  0  0  0  0  0  0  0  0
   -0.0802   -0.0371   -0.2200 C   0  0  0  0  0  0  0  0  0  0  0  0
    0.9090   -0.2367   -0.8767 O   0  0  0  0  0  0  0  0  0  0  0  0
   -1.1846   -1.0349    0.1552 C   0  0  0  0  0  0  0  0  0  0  0  0
   -1.2686   -2.1440   -0.6912 O   0  0  0  0  0  0  0  0  0  0  0  0
   -3.8913   -0.7026   -1.0366 H   0  0  0  0  0  0  0  0  0  0  0  0
   -3.6311    1.0107   -1.4150 H   0  0  0  0  0  0  0  0  0  0  0  0
   -2.5879   -0.2370   -2.1267 H   0  0  0  0  0  0  0  0  0  0  0  0
   -3.5353    1.4067    1.1981 H   0  0  0  0  0  0  0  0  0  0  0  0
   -2.9358   -0.0104    2.0814 H   0  0  0  0  0  0  0  0  0  0  0  0
   -1.4504    2.5725    1.6780 H   0  0  0  0  0  0  0  0  0  0  0  0
   -0.6633    1.0912    2.2307 H   0  0  0  0  0  0  0  0  0  0  0  0
   -0.7977    2.0234   -0.6663 H   0  0  0  0  0  0  0  0  0  0  0  0
   -1.1661   -1.3621    1.2035 H   0  0  0  0  0  0  0  0  0  0  0  0
   -0.4934   -2.1088   -1.2684 H   0  0  0  0  0  0  0  0  0  0  0  0
  1  2  1  0
  2  3  1  0
  3  4  1  0
  4  5  1  0
  5  6  1  0
  6  7  2  0
  6  8  1  0
  8  9  1  0
  5  2  1  0
  8  2  1  0
  1 10  1  0
  1 11  1  0
  1 12  1  0
  3 13  1  0
  3 14  1  0
  4 15  1  0
  4 16  1  0
  5 17  1  0
  8 18  1  0
  9 19  1  0
M  END
$$$$
