
     RDKit          3D

 19 21  0  0  0  0  0  0  0  0999 V2000
    0.2717   -0.0715    0.6100 O   0  0  0  0  0  0  0  0  0  0  0  0
   -0.9046    0.6694    0.8801 C   0  0  0  0  0  0  0  0  0  0  0  0
   -0.6255    2.1774    0.7350 C   0  0  0  0  0  0  0  0  0  0  0  0
    0.4392    2.3976    1.8476 C   0  0  0  0  0  0  0  0  0  0  0  0
   -0.0130    1.4105    2.9767 C   0  0  0  0  0  0  0  0  0  0  0  0
   -1.2880    0.7504    2.3821 C   0  0  0  0  0  0  0  0  0  0  0  0
   -2.3368    1.8606    2.3662 C   0  0  0  0  0  0  0  0  0  0  0  0
   -3.1023    1.9936    1.1577 O   0  0  0  0  0  0  0  0  0  0  0  0
   -1.9100    2.7804    1.3020 C   0  0  0  0  0  0  0  0  0  0  0  0
    0.0552   -1.0059    0.6819 H   0  0  0  0  0  0  0  0  0  0  0  0
   -1.7353    0.3371    0.2545 H   0  0  0  0  0  0  0  0  0  0  0  0
   -0.3296    2.5114   -0.2601 H   0  0  0  0  0  0  0  0  0  0  0  0
    1.4343    2.1437    1.4795 H   0  0  0  0  0  0  0  0  0  0  0  0
    0.4610    3.4383    2.1842 H   0  0  0  0  0  0  0  0  0  0  0  0
    0.7541    0.6574    3.1650 H   0  0  0  0  0  0  0  0  0  0  0  0
   -0.2227    1.9190    3.9223 H   0  0  0  0  0  0  0  0  0  0  0  0
   -1.5873   -0.1871    2.8560 H   0  0  0  0  0  0  0  0  0  0  0  0
   -2.8353    2.1808    3.2769 H   0  0  0  0  0  0  0  0  0  0  0  0
   -2.0558    3.8561    1.3397 H   0  0  0  0  0  0  0  0  0  0  0  0
  1  2  1  0
  2  3  1  0
  3  4  1  0
  4  5  1  0
  5  6  1  0
  6  7  1  0
  7  8  1  0
  8  9  1  0
  6  2  1  0
  9  7  1  0
  9  3  1  0
  1 10  1  0
  2 11  1  0
  3 12  1  0
  4 13  1  0
  4 14  1  0
  5 15  1  0
  5 16  1  0
  6 17  1  0
  7 18  1  0
  9 19  1  0
M  END
$$$$
