gdb 2502	2.7401434	1.9382031	1.3522614	1.726	74.66	-0.24013	0.07022	0.31035	966.2159	0.158836	-422.516867	-422.509554	-422.50861	-422.548119	29.625
 OpenBabel02181911413D

 19 21  0  0  1  0  0  0  0  0999 V2000
    0.0776    0.2664    0.5086 O   0  0  0  0  0  0  0  0  0  0  0  0
   -1.0207    1.0661    0.1316 C   0  0  2  0  0  0  0  0  0  0  0  0
   -1.2259    2.2087    1.1275 C   0  0  0  0  0  0  0  0  0  0  0  0
   -1.9109    3.3073    0.5612 O   0  0  0  0  0  0  0  0  0  0  0  0
   -2.9847    2.9037   -0.2715 C   0  0  0  0  0  0  0  0  0  0  0  0
   -2.6077    1.7070   -1.1299 C   0  0  2  0  0  0  0  0  0  0  0  0
   -2.2990    0.3541   -0.4182 C   0  0  1  0  0  0  0  0  0  0  0  0
   -1.4675   -0.0379   -1.6714 C   0  0  0  0  0  0  0  0  0  0  0  0
   -1.0844    1.4418   -1.3786 C   0  0  2  0  0  0  0  0  0  0  0  0
   -0.1205   -0.1359    1.3612 H   0  0  0  0  0  0  0  0  0  0  0  0
   -1.7548    1.8302    2.0234 H   0  0  0  0  0  0  0  0  0  0  0  0
   -0.2481    2.5811    1.4474 H   0  0  0  0  0  0  0  0  0  0  0  0
   -3.8823    2.6698    0.3290 H   0  0  0  0  0  0  0  0  0  0  0  0
   -3.2232    3.7723   -0.8941 H   0  0  0  0  0  0  0  0  0  0  0  0
   -3.2438    1.6150   -2.0148 H   0  0  0  0  0  0  0  0  0  0  0  0
   -3.0026   -0.2644    0.1447 H   0  0  0  0  0  0  0  0  0  0  0  0
   -0.6847   -0.7801   -1.5271 H   0  0  0  0  0  0  0  0  0  0  0  0
   -2.0384   -0.2108   -2.5878 H   0  0  0  0  0  0  0  0  0  0  0  0
   -0.3836    2.0747   -1.9238 H   0  0  0  0  0  0  0  0  0  0  0  0
  1 10  1  0  0  0  0
  2  1  1  1  0  0  0
  2  3  1  0  0  0  0
  3 12  1  0  0  0  0
  3 11  1  0  0  0  0
  4  3  1  0  0  0  0
  5 13  1  0  0  0  0
  5  4  1  0  0  0  0
  6 15  1  6  0  0  0
  6  7  1  0  0  0  0
  6  5  1  0  0  0  0
  7  2  1  0  0  0  0
  7 16  1  1  0  0  0
  8 17  1  0  0  0  0
  8  9  1  0  0  0  0
  8  7  1  0  0  0  0
  9 19  1  6  0  0  0
  9  6  1  0  0  0  0
  9  2  1  0  0  0  0
 14  5  1  0  0  0  0
 18  8  1  0  0  0  0
M TOR 0 0 1 2 3
M TOR 1 0 1 2 10
M TOR 2 0 1 2 11
M TOR 3 0 1 6 5
M TOR 4 0 1 6 7
M TOR 5 0 1 6 15
M TOR 6 0 1 8 5
M TOR 7 0 1 8 7
M TOR 8 0 1 8 18
M TOR 9 1 2 3 4
M TOR 10 1 6 5 4
M TOR 11 1 6 5 8
M TOR 12 1 6 5 14
M TOR 13 1 6 7 8
M TOR 14 1 6 7 16
M TOR 15 1 6 7 17
M TOR 16 1 8 5 4
M TOR 17 1 8 5 14
M TOR 18 1 8 7 16
M TOR 19 1 8 7 17
M TOR 20 2 1 0 9
M TOR 21 2 1 6 5
M TOR 22 2 1 6 7
M TOR 23 2 1 6 15
M TOR 24 2 1 8 5
M TOR 25 2 1 8 7
M TOR 26 2 1 8 18
M TOR 27 2 3 4 5
M TOR 28 2 3 4 12
M TOR 29 2 3 4 13
M TOR 30 3 2 1 6
M TOR 31 3 2 1 8
M TOR 32 3 4 5 6
M TOR 33 3 4 5 8
M TOR 34 3 4 5 14
M TOR 35 4 3 2 10
M TOR 36 4 3 2 11
M TOR 37 4 5 6 7
M TOR 38 4 5 6 15
M TOR 39 4 5 8 7
M TOR 40 4 5 8 18
M TOR 41 5 6 7 8
M TOR 42 5 6 7 16
M TOR 43 5 6 7 17
M TOR 44 5 8 7 16
M TOR 45 5 8 7 17
M TOR 46 6 1 0 9
M TOR 47 6 1 2 10
M TOR 48 6 1 2 11
M TOR 49 6 1 8 18
M TOR 50 6 5 4 12
M TOR 51 6 5 4 13
M TOR 52 6 5 8 18
M TOR 53 6 7 8 18
M TOR 54 7 6 5 14
M TOR 55 7 8 5 14
M TOR 56 8 1 0 9
M TOR 57 8 1 2 10
M TOR 58 8 1 2 11
M TOR 59 8 1 6 15
M TOR 60 8 5 4 12
M TOR 61 8 5 4 13
M TOR 62 8 5 6 15
M TOR 63 8 7 6 15
M  END
$$$$
