gdb 2477	2.6064491	1.8807409	1.4251586	1.4387	73.79	-0.2511	0.09235	0.34345	973.3493	0.157939	-422.536225	-422.528631	-422.527687	-422.567833	30.104
 OpenBabel02181911413D

 19 21  0  0  1  0  0  0  0  0999 V2000
   -0.1375   -0.3077   -0.0428 C   0  0  0  0  0  0  0  0  0  0  0  0
    1.3189    0.0958    0.0514 C   0  0  2  0  0  0  0  0  0  0  0  0
    1.6101    0.9592   -1.0444 O   0  0  0  0  0  0  0  0  0  0  0  0
    2.9516    0.7480   -1.4136 C   0  0  0  0  0  0  0  0  0  0  0  0
    3.2353   -0.6108   -1.1622 O   0  0  0  0  0  0  0  0  0  0  0  0
    2.5039   -0.9539   -0.0047 C   0  0  1  0  0  0  0  0  0  0  0  0
    3.0476   -0.3830    1.3112 C   0  0  2  0  0  0  0  0  0  0  0  0
    1.9978   -0.5110    2.3755 C   0  0  0  0  0  0  0  0  0  0  0  0
    1.8851    0.6147    1.3857 C   0  0  2  0  0  0  0  0  0  0  0  0
   -0.4253   -0.9582    0.7868 H   0  0  0  0  0  0  0  0  0  0  0  0
   -0.7754    0.5816   -0.0167 H   0  0  0  0  0  0  0  0  0  0  0  0
   -0.3258   -0.8329   -0.9835 H   0  0  0  0  0  0  0  0  0  0  0  0
    3.0653    0.9443   -2.4834 H   0  0  0  0  0  0  0  0  0  0  0  0
    3.6260    1.3998   -0.8333 H   0  0  0  0  0  0  0  0  0  0  0  0
    2.2923   -2.0255   -0.0435 H   0  0  0  0  0  0  0  0  0  0  0  0
    4.0973   -0.2407    1.5360 H   0  0  0  0  0  0  0  0  0  0  0  0
    1.2956   -1.3420    2.3619 H   0  0  0  0  0  0  0  0  0  0  0  0
    2.3090   -0.2204    3.3736 H   0  0  0  0  0  0  0  0  0  0  0  0
    1.8879    1.6558    1.6857 H   0  0  0  0  0  0  0  0  0  0  0  0
  1 11  1  0  0  0  0
  1 10  1  0  0  0  0
  2  1  1  1  0  0  0
  2  9  1  0  0  0  0
  3  2  1  0  0  0  0
  4  5  1  0  0  0  0
  4  3  1  0  0  0  0
  4 14  1  0  0  0  0
  5  6  1  0  0  0  0
  6 15  1  1  0  0  0
  6  2  1  0  0  0  0
  6  7  1  0  0  0  0
  7  9  1  0  0  0  0
  7 16  1  1  0  0  0
  7  8  1  0  0  0  0
  8 18  1  0  0  0  0
  9 19  1  1  0  0  0
  9  8  1  0  0  0  0
 12  1  1  0  0  0  0
 13  4  1  0  0  0  0
 17  8  1  0  0  0  0
M TOR 0 0 1 2 3
M TOR 1 0 1 5 4
M TOR 2 0 1 5 6
M TOR 3 0 1 5 14
M TOR 4 0 1 8 6
M TOR 5 0 1 8 7
M TOR 6 0 1 8 18
M TOR 7 1 2 3 4
M TOR 8 1 2 3 12
M TOR 9 1 2 3 13
M TOR 10 1 5 4 3
M TOR 11 1 5 6 7
M TOR 12 1 5 6 8
M TOR 13 1 5 6 15
M TOR 14 1 8 6 7
M TOR 15 1 8 6 15
M TOR 16 1 8 7 16
M TOR 17 1 8 7 17
M TOR 18 2 1 0 9
M TOR 19 2 1 0 10
M TOR 20 2 1 0 11
M TOR 21 2 1 5 4
M TOR 22 2 1 5 6
M TOR 23 2 1 5 14
M TOR 24 2 1 8 6
M TOR 25 2 1 8 7
M TOR 26 2 1 8 18
M TOR 27 2 3 4 5
M TOR 28 3 2 1 5
M TOR 29 3 2 1 8
M TOR 30 3 4 5 6
M TOR 31 3 4 5 14
M TOR 32 4 5 1 8
M TOR 33 4 5 6 7
M TOR 34 4 5 6 8
M TOR 35 4 5 6 15
M TOR 36 5 1 0 9
M TOR 37 5 1 0 10
M TOR 38 5 1 0 11
M TOR 39 5 1 8 7
M TOR 40 5 1 8 18
M TOR 41 5 4 3 12
M TOR 42 5 4 3 13
M TOR 43 5 6 7 8
M TOR 44 5 6 7 16
M TOR 45 5 6 7 17
M TOR 46 5 6 8 18
M TOR 47 6 7 8 18
M TOR 48 6 8 7 16
M TOR 49 6 8 7 17
M TOR 50 7 6 5 14
M TOR 51 7 8 6 15
M TOR 52 8 1 0 9
M TOR 53 8 1 0 10
M TOR 54 8 1 0 11
M TOR 55 8 1 5 14
M TOR 56 8 6 5 14
M  END
$$$$
