gdb 1584	2.1863719	1.5403845	1.3606469	0.6676	77.17	-0.25861	0.0205	0.27911	1081.2435	0.153019	-422.517619	-422.507788	-422.506843	-422.55148	37.111
 OpenBabel02181911403D

 19 19  0  0  1  0  0  0  0  0999 V2000
    2.9567   -0.0039   -1.1574 C   0  0  0  0  0  0  0  0  0  0  0  0
    2.6532   -0.2306    0.3134 C   0  0  1  0  0  0  0  0  0  0  0  0
    3.3995   -1.3381    0.7245 O   0  0  0  0  0  0  0  0  0  0  0  0
    2.7125    1.0580    1.1729 C   0  0  0  0  0  0  0  0  0  0  0  0
    1.2732    1.1635    1.1799 O   0  0  0  0  0  0  0  0  0  0  0  0
    1.1093   -0.1968    0.7012 C   0  0  1  0  0  0  0  0  0  0  0  0
    0.0377   -0.3012   -0.3744 C   0  0  0  0  0  0  0  0  0  0  0  0
    0.8357   -1.1136    1.8117 C   0  0  0  0  0  0  0  0  0  0  0  0
    0.6656   -1.8772    2.7268 C   0  0  0  0  0  0  0  0  0  0  0  0
    2.6384   -0.8611   -1.7569 H   0  0  0  0  0  0  0  0  0  0  0  0
    2.4664    0.8974   -1.5316 H   0  0  0  0  0  0  0  0  0  0  0  0
    4.0375    0.1135   -1.2807 H   0  0  0  0  0  0  0  0  0  0  0  0
    3.0492   -1.6373    1.5743 H   0  0  0  0  0  0  0  0  0  0  0  0
    3.1194    0.8838    2.1780 H   0  0  0  0  0  0  0  0  0  0  0  0
    3.1847    1.9423    0.7325 H   0  0  0  0  0  0  0  0  0  0  0  0
   -0.9412   -0.0714    0.0557 H   0  0  0  0  0  0  0  0  0  0  0  0
    0.2350    0.4052   -1.1824 H   0  0  0  0  0  0  0  0  0  0  0  0
    0.0031   -1.3159   -0.7816 H   0  0  0  0  0  0  0  0  0  0  0  0
    0.4788   -2.5401    3.5361 H   0  0  0  0  0  0  0  0  0  0  0  0
  1  2  1  0  0  0  0
  2  6  1  0  0  0  0
  2  3  1  1  0  0  0
  2  4  1  0  0  0  0
  3 13  1  0  0  0  0
  4  5  1  0  0  0  0
  4 14  1  0  0  0  0
  6  5  1  0  0  0  0
  6  8  1  1  0  0  0
  7 16  1  0  0  0  0
  7  6  1  0  0  0  0
  8  9  3  0  0  0  0
  9 19  1  0  0  0  0
 10  1  1  0  0  0  0
 11  1  1  0  0  0  0
 12  1  1  0  0  0  0
 15  4  1  0  0  0  0
 17  7  1  0  0  0  0
 18  7  1  0  0  0  0
M TOR 0 0 1 2 12
M TOR 1 0 1 3 4
M TOR 2 0 1 3 13
M TOR 3 0 1 3 14
M TOR 4 0 1 5 4
M TOR 5 0 1 5 6
M TOR 6 0 1 5 7
M TOR 7 1 3 4 5
M TOR 8 1 5 6 15
M TOR 9 1 5 6 16
M TOR 10 1 5 6 17
M TOR 11 1 5 7 8
M TOR 12 2 1 0 9
M TOR 13 2 1 0 10
M TOR 14 2 1 0 11
M TOR 15 2 1 3 4
M TOR 16 2 1 3 13
M TOR 17 2 1 3 14
M TOR 18 2 1 5 4
M TOR 19 2 1 5 6
M TOR 20 2 1 5 7
M TOR 21 3 1 0 9
M TOR 22 3 1 0 10
M TOR 23 3 1 0 11
M TOR 24 3 1 2 12
M TOR 25 3 1 5 6
M TOR 26 3 1 5 7
M TOR 27 3 4 5 6
M TOR 28 3 4 5 7
M TOR 29 4 5 6 15
M TOR 30 4 5 6 16
M TOR 31 4 5 6 17
M TOR 32 4 5 7 8
M TOR 33 5 1 0 9
M TOR 34 5 1 0 10
M TOR 35 5 1 0 11
M TOR 36 5 1 2 12
M TOR 37 5 1 3 13
M TOR 38 5 1 3 14
M TOR 39 5 4 3 13
M TOR 40 5 4 3 14
M TOR 41 5 7 8 18
M TOR 42 6 5 7 8
M TOR 43 7 5 6 15
M TOR 44 7 5 6 16
M TOR 45 7 5 6 17
M  END
$$$$
