gdb 2013	3.3749025	1.2930296	1.1118954	4.4569	75.47	-0.25541	0.01188	0.26729	1141.1485	0.157627	-422.589071	-422.580882	-422.579938	-422.621578	31.697
 OpenBabel02181911403D

 19 20  0  0  1  0  0  0  0  0999 V2000
   -3.1662   -0.1357   -2.8897 C   0  0  0  0  0  0  0  0  0  0  0  0
   -2.4569   -0.0372   -1.5550 C   0  0  1  0  0  0  0  0  0  0  0  0
   -3.0116   -0.8349   -0.3817 C   0  0  0  0  0  0  0  0  0  0  0  0
   -1.7199   -1.2386   -1.0408 C   0  0  2  0  0  0  0  0  0  0  0  0
   -0.4753   -1.1237   -0.3781 O   0  0  0  0  0  0  0  0  0  0  0  0
   -0.0061    0.0600    0.0964 C   0  0  0  0  0  0  0  0  0  0  0  0
    1.0858    0.0939    0.5939 O   0  0  0  0  0  0  0  0  0  0  0  0
   -0.9247    1.2660   -0.0066 C   0  0  0  0  0  0  0  0  0  0  0  0
   -1.7853    1.2958   -1.2761 C   0  0  0  0  0  0  0  0  0  0  0  0
   -3.5732   -1.1382   -3.0536 H   0  0  0  0  0  0  0  0  0  0  0  0
   -4.0008    0.5732   -2.9414 H   0  0  0  0  0  0  0  0  0  0  0  0
   -2.4840    0.0896   -3.7174 H   0  0  0  0  0  0  0  0  0  0  0  0
   -2.9627   -0.4134    0.6156 H   0  0  0  0  0  0  0  0  0  0  0  0
   -3.8808   -1.4606   -0.5542 H   0  0  0  0  0  0  0  0  0  0  0  0
   -1.7020   -2.1473   -1.6315 H   0  0  0  0  0  0  0  0  0  0  0  0
   -1.5612    1.2614    0.8864 H   0  0  0  0  0  0  0  0  0  0  0  0
   -0.2919    2.1516    0.0717 H   0  0  0  0  0  0  0  0  0  0  0  0
   -2.5308    2.0962   -1.2000 H   0  0  0  0  0  0  0  0  0  0  0  0
   -1.1498    1.5452   -2.1358 H   0  0  0  0  0  0  0  0  0  0  0  0
  2  1  1  6  0  0  0
  2  9  1  0  0  0  0
  2  4  1  0  0  0  0
  2  3  1  0  0  0  0
  3 13  1  0  0  0  0
  4 15  1  6  0  0  0
  4  3  1  0  0  0  0
  4  5  1  0  0  0  0
  5  6  1  0  0  0  0
  6  7  2  0  0  0  0
  8 17  1  0  0  0  0
  8  6  1  0  0  0  0
  8 16  1  0  0  0  0
  9 18  1  0  0  0  0
  9  8  1  0  0  0  0
 10  1  1  0  0  0  0
 11  1  1  0  0  0  0
 12  1  1  0  0  0  0
 14  3  1  0  0  0  0
 19  9  1  0  0  0  0
M TOR 0 0 1 2 3
M TOR 1 0 1 2 12
M TOR 2 0 1 2 13
M TOR 3 0 1 3 4
M TOR 4 0 1 3 14
M TOR 5 0 1 8 7
M TOR 6 0 1 8 17
M TOR 7 0 1 8 18
M TOR 8 1 2 3 4
M TOR 9 1 2 3 14
M TOR 10 1 3 2 12
M TOR 11 1 3 2 13
M TOR 12 1 3 4 5
M TOR 13 1 8 7 5
M TOR 14 1 8 7 15
M TOR 15 1 8 7 16
M TOR 16 2 1 0 9
M TOR 17 2 1 0 10
M TOR 18 2 1 0 11
M TOR 19 2 1 8 7
M TOR 20 2 1 8 17
M TOR 21 2 1 8 18
M TOR 22 2 3 1 8
M TOR 23 2 3 4 5
M TOR 24 3 1 0 9
M TOR 25 3 1 0 10
M TOR 26 3 1 0 11
M TOR 27 3 1 8 7
M TOR 28 3 1 8 17
M TOR 29 3 1 8 18
M TOR 30 3 4 5 6
M TOR 31 3 4 5 7
M TOR 32 4 3 1 8
M TOR 33 4 3 2 12
M TOR 34 4 3 2 13
M TOR 35 4 5 7 8
M TOR 36 4 5 7 15
M TOR 37 4 5 7 16
M TOR 38 5 4 3 14
M TOR 39 5 7 8 17
M TOR 40 5 7 8 18
M TOR 41 6 5 7 8
M TOR 42 6 5 7 15
M TOR 43 6 5 7 16
M TOR 44 8 1 0 9
M TOR 45 8 1 0 10
M TOR 46 8 1 0 11
M TOR 47 8 1 2 12
M TOR 48 8 1 2 13
M TOR 49 8 1 3 14
M  END
$$$$
