gdb 4997	3.4933405	1.2576633	1.1741341	2.3247	75.45	-0.23647	0.00026	0.23673000000000002	1132.2018	0.155685	-422.525373	-422.516805	-422.515861	-422.558231	33.268
 OpenBabel02181911413D

 19 20  0  0  1  0  0  0  0  0999 V2000
    3.1728   -5.0050   -1.2678 C   0  0  0  0  0  0  0  0  0  0  0  0
    2.7604   -3.5612   -1.2338 C   0  0  2  0  0  0  0  0  0  0  0  0
    3.2236   -2.5245   -0.1565 C   0  0  0  0  0  0  0  0  0  0  0  0
    1.8687   -1.9237   -0.6342 C   0  0  2  0  0  0  0  0  0  0  0  0
    0.9442   -1.0549    0.1740 C   0  0  0  0  0  0  0  0  0  0  0  0
   -0.3184   -0.9448   -0.4596 O   0  0  0  0  0  0  0  0  0  0  0  0
    1.3804   -3.3092   -0.7722 O   0  0  0  0  0  0  0  0  0  0  0  0
    2.1915   -1.5777   -2.1056 C   0  0  0  0  0  0  0  0  0  0  0  0
    2.8029   -2.6892   -2.5121 C   0  0  0  0  0  0  0  0  0  0  0  0
    3.0604   -5.4650   -0.2826 H   0  0  0  0  0  0  0  0  0  0  0  0
    2.5575   -5.5623   -1.9814 H   0  0  0  0  0  0  0  0  0  0  0  0
    4.2195   -5.0940   -1.5761 H   0  0  0  0  0  0  0  0  0  0  0  0
    3.1738   -2.9264    0.8595 H   0  0  0  0  0  0  0  0  0  0  0  0
    4.1397   -1.9577   -0.3328 H   0  0  0  0  0  0  0  0  0  0  0  0
    0.8548   -1.4643    1.1919 H   0  0  0  0  0  0  0  0  0  0  0  0
    1.3519   -0.0411    0.2539 H   0  0  0  0  0  0  0  0  0  0  0  0
   -0.5927   -1.8440   -0.6764 H   0  0  0  0  0  0  0  0  0  0  0  0
    1.9606   -0.6558   -2.6183 H   0  0  0  0  0  0  0  0  0  0  0  0
    3.2374   -2.9580   -3.4644 H   0  0  0  0  0  0  0  0  0  0  0  0
  1 10  1  0  0  0  0
  2  1  1  6  0  0  0
  2  7  1  0  0  0  0
  2  3  1  0  0  0  0
  3 13  1  0  0  0  0
  4  3  1  0  0  0  0
  4  5  1  1  0  0  0
  5 16  1  0  0  0  0
  5 15  1  0  0  0  0
  6  5  1  0  0  0  0
  7  4  1  0  0  0  0
  8  4  1  0  0  0  0
  9  8  2  0  0  0  0
  9  2  1  0  0  0  0
 11  1  1  0  0  0  0
 12  1  1  0  0  0  0
 14  3  1  0  0  0  0
 17  6  1  0  0  0  0
 18  8  1  0  0  0  0
 19  9  1  0  0  0  0
M TOR 0 0 1 2 3
M TOR 1 0 1 2 12
M TOR 2 0 1 2 13
M TOR 3 0 1 6 3
M TOR 4 0 1 8 7
M TOR 5 0 1 8 18
M TOR 6 1 2 3 4
M TOR 7 1 2 3 6
M TOR 8 1 2 3 7
M TOR 9 1 6 3 4
M TOR 10 1 6 3 7
M TOR 11 1 8 7 3
M TOR 12 1 8 7 17
M TOR 13 2 1 0 9
M TOR 14 2 1 0 10
M TOR 15 2 1 0 11
M TOR 16 2 1 8 7
M TOR 17 2 1 8 18
M TOR 18 2 3 4 5
M TOR 19 2 3 4 14
M TOR 20 2 3 4 15
M TOR 21 2 3 7 8
M TOR 22 2 3 7 17
M TOR 23 3 2 1 8
M TOR 24 3 4 5 16
M TOR 25 3 6 1 8
M TOR 26 3 7 8 18
M TOR 27 4 3 2 12
M TOR 28 4 3 2 13
M TOR 29 4 3 7 8
M TOR 30 4 3 7 17
M TOR 31 5 4 3 6
M TOR 32 5 4 3 7
M TOR 33 6 1 0 9
M TOR 34 6 1 0 10
M TOR 35 6 1 0 11
M TOR 36 6 1 2 12
M TOR 37 6 1 2 13
M TOR 38 6 1 8 7
M TOR 39 6 1 8 18
M TOR 40 6 3 2 12
M TOR 41 6 3 2 13
M TOR 42 6 3 4 14
M TOR 43 6 3 4 15
M TOR 44 6 3 7 8
M TOR 45 6 3 7 17
M TOR 46 7 3 2 12
M TOR 47 7 3 2 13
M TOR 48 7 3 4 14
M TOR 49 7 3 4 15
M TOR 50 8 1 0 9
M TOR 51 8 1 0 10
M TOR 52 8 1 0 11
M TOR 53 8 1 2 12
M TOR 54 8 1 2 13
M  END
$$$$
