gdb 4444	3.7599732	1.1336964	0.9962989	2.7657	76.76	-0.25581	-0.03446	0.22135	1230.8277	0.15641	-422.571864	-422.563288	-422.562344	-422.605027	32.028
 OpenBabel02181911413D

 19 20  0  0  1  0  0  0  0  0999 V2000
    1.6954    1.5847    0.0928 C   0  0  0  0  0  0  0  0  0  0  0  0
    1.6791    0.0567    0.0100 C   0  0  1  0  0  0  0  0  0  0  0  0
    2.4826   -0.5234   -1.1825 C   0  0  0  0  0  0  0  0  0  0  0  0
    2.9361   -1.9353   -0.7476 C   0  0  0  0  0  0  0  0  0  0  0  0
    3.0438   -1.8305    0.7594 C   0  0  1  0  0  0  0  0  0  0  0  0
    3.7194   -0.6444    1.2310 O   0  0  0  0  0  0  0  0  0  0  0  0
    2.2967   -0.6327    1.2173 C   0  0  1  0  0  0  0  0  0  0  0  0
    3.1896   -3.0178    1.6398 C   0  0  0  0  0  0  0  0  0  0  0  0
    3.0542   -4.1559    1.2644 O   0  0  0  0  0  0  0  0  0  0  0  0
    1.0990    1.9481    0.9362 H   0  0  0  0  0  0  0  0  0  0  0  0
    2.7196    1.9500    0.2189 H   0  0  0  0  0  0  0  0  0  0  0  0
    1.2865    2.0290   -0.8202 H   0  0  0  0  0  0  0  0  0  0  0  0
    0.6377   -0.2900   -0.0478 H   0  0  0  0  0  0  0  0  0  0  0  0
    1.8977   -0.5361   -2.1053 H   0  0  0  0  0  0  0  0  0  0  0  0
    3.3599    0.1044   -1.3600 H   0  0  0  0  0  0  0  0  0  0  0  0
    2.1897   -2.7017   -0.9819 H   0  0  0  0  0  0  0  0  0  0  0  0
    3.8756   -2.2446   -1.2139 H   0  0  0  0  0  0  0  0  0  0  0  0
    1.8233   -0.5753    2.1961 H   0  0  0  0  0  0  0  0  0  0  0  0
    3.4367   -2.7614    2.6935 H   0  0  0  0  0  0  0  0  0  0  0  0
  1 11  1  0  0  0  0
  1 10  1  0  0  0  0
  2 13  1  6  0  0  0
  2  1  1  0  0  0  0
  2  7  1  0  0  0  0
  3  4  1  0  0  0  0
  3  2  1  0  0  0  0
  4  5  1  0  0  0  0
  5  7  1  0  0  0  0
  5  6  1  0  0  0  0
  5  8  1  1  0  0  0
  7  6  1  0  0  0  0
  7 18  1  1  0  0  0
  8 19  1  0  0  0  0
  9  8  2  0  0  0  0
 12  1  1  0  0  0  0
 14  3  1  0  0  0  0
 15  3  1  0  0  0  0
 16  4  1  0  0  0  0
 17  4  1  0  0  0  0
M TOR 0 0 1 2 3
M TOR 1 0 1 2 13
M TOR 2 0 1 2 14
M TOR 3 0 1 6 4
M TOR 4 0 1 6 5
M TOR 5 0 1 6 17
M TOR 6 1 2 3 4
M TOR 7 1 2 3 15
M TOR 8 1 2 3 16
M TOR 9 1 6 4 3
M TOR 10 1 6 4 5
M TOR 11 1 6 4 7
M TOR 12 2 1 0 9
M TOR 13 2 1 0 10
M TOR 14 2 1 0 11
M TOR 15 2 1 6 4
M TOR 16 2 1 6 5
M TOR 17 2 1 6 17
M TOR 18 2 3 4 5
M TOR 19 2 3 4 6
M TOR 20 2 3 4 7
M TOR 21 3 2 1 6
M TOR 22 3 2 1 12
M TOR 23 3 4 5 6
M TOR 24 3 4 6 17
M TOR 25 3 4 7 8
M TOR 26 3 4 7 18
M TOR 27 4 3 2 13
M TOR 28 4 3 2 14
M TOR 29 4 5 6 17
M TOR 30 4 6 1 12
M TOR 31 5 4 3 15
M TOR 32 5 4 3 16
M TOR 33 5 4 7 8
M TOR 34 5 4 7 18
M TOR 35 5 6 1 12
M TOR 36 5 6 4 7
M TOR 37 6 1 0 9
M TOR 38 6 1 0 10
M TOR 39 6 1 0 11
M TOR 40 6 1 2 13
M TOR 41 6 1 2 14
M TOR 42 6 4 3 15
M TOR 43 6 4 3 16
M TOR 44 6 4 7 8
M TOR 45 6 4 7 18
M TOR 46 7 4 3 15
M TOR 47 7 4 3 16
M TOR 48 7 4 6 17
M  END
$$$$
