gdb 4503	2.5645447	1.5470727	1.3160093	3.3362	74.98	-0.22388	-0.01993	0.20395	1055.4918	0.158021	-422.556187	-422.548231	-422.547287	-422.588402	30.818
 OpenBabel02181911413D

 19 20  0  0  1  0  0  0  0  0999 V2000
   -2.8871   -2.2562   -1.4788 C   0  0  0  0  0  0  0  0  0  0  0  0
   -1.7163   -1.2724   -1.3993 C   0  0  1  0  0  0  0  0  0  0  0  0
   -2.1248    0.1149   -1.9489 C   0  0  0  0  0  0  0  0  0  0  0  0
   -1.3270    1.1927   -1.4597 O   0  0  0  0  0  0  0  0  0  0  0  0
   -0.9189    1.0410   -0.1003 C   0  0  1  0  0  0  0  0  0  0  0  0
   -1.8972    0.1431    0.7153 C   0  0  0  0  0  0  0  0  0  0  0  0
   -1.1923   -1.0868    0.0533 C   0  0  2  0  0  0  0  0  0  0  0  0
    0.0431   -0.1728   -0.0355 C   0  0  0  0  0  0  0  0  0  0  0  0
    1.2260   -0.3329    0.0239 O   0  0  0  0  0  0  0  0  0  0  0  0
   -3.7156   -1.9384   -0.8358 H   0  0  0  0  0  0  0  0  0  0  0  0
   -3.2692   -2.3319   -2.5027 H   0  0  0  0  0  0  0  0  0  0  0  0
   -2.5789   -3.2571   -1.1626 H   0  0  0  0  0  0  0  0  0  0  0  0
   -0.8889   -1.6678   -2.0009 H   0  0  0  0  0  0  0  0  0  0  0  0
   -2.0363    0.1465   -3.0384 H   0  0  0  0  0  0  0  0  0  0  0  0
   -3.1813    0.3000   -1.7049 H   0  0  0  0  0  0  0  0  0  0  0  0
   -0.6148    2.0221    0.2660 H   0  0  0  0  0  0  0  0  0  0  0  0
   -1.6893    0.2101    1.7855 H   0  0  0  0  0  0  0  0  0  0  0  0
   -2.9654    0.2804    0.5425 H   0  0  0  0  0  0  0  0  0  0  0  0
   -1.1114   -2.0332    0.5917 H   0  0  0  0  0  0  0  0  0  0  0  0
  1  2  1  0  0  0  0
  1 12  1  0  0  0  0
  1 10  1  0  0  0  0
  2 13  1  6  0  0  0
  2  7  1  0  0  0  0
  3 15  1  0  0  0  0
  3  4  1  0  0  0  0
  3  2  1  0  0  0  0
  4  5  1  0  0  0  0
  5  8  1  0  0  0  0
  5 16  1  1  0  0  0
  5  6  1  0  0  0  0
  6 17  1  0  0  0  0
  7 19  1  1  0  0  0
  7  6  1  0  0  0  0
  8  9  2  0  0  0  0
  8  7  1  0  0  0  0
 11  1  1  0  0  0  0
 14  3  1  0  0  0  0
 18  6  1  0  0  0  0
M TOR 0 0 1 2 3
M TOR 1 0 1 2 13
M TOR 2 0 1 2 14
M TOR 3 0 1 6 5
M TOR 4 0 1 6 7
M TOR 5 0 1 6 18
M TOR 6 1 2 3 4
M TOR 7 1 6 5 4
M TOR 8 1 6 5 16
M TOR 9 1 6 5 17
M TOR 10 1 6 7 4
M TOR 11 1 6 7 8
M TOR 12 2 1 0 9
M TOR 13 2 1 0 10
M TOR 14 2 1 0 11
M TOR 15 2 1 6 5
M TOR 16 2 1 6 7
M TOR 17 2 1 6 18
M TOR 18 2 3 4 5
M TOR 19 2 3 4 7
M TOR 20 2 3 4 15
M TOR 21 3 2 1 6
M TOR 22 3 2 1 12
M TOR 23 3 4 5 6
M TOR 24 3 4 5 16
M TOR 25 3 4 5 17
M TOR 26 3 4 7 6
M TOR 27 3 4 7 8
M TOR 28 4 3 2 13
M TOR 29 4 3 2 14
M TOR 30 4 5 6 7
M TOR 31 4 5 6 18
M TOR 32 4 7 6 18
M TOR 33 5 4 7 8
M TOR 34 5 6 1 12
M TOR 35 5 6 7 8
M TOR 36 6 1 0 9
M TOR 37 6 1 0 10
M TOR 38 6 1 0 11
M TOR 39 6 1 2 13
M TOR 40 6 1 2 14
M TOR 41 6 5 4 15
M TOR 42 6 7 4 15
M TOR 43 7 4 5 16
M TOR 44 7 4 5 17
M TOR 45 7 6 1 12
M TOR 46 7 6 5 16
M TOR 47 7 6 5 17
M TOR 48 8 7 4 15
M TOR 49 8 7 6 18
M  END
$$$$
