
     RDKit          3D

 19 19  0  0  0  0  0  0  0  0999 V2000
    2.8887   -1.1307    2.2472 O   0  0  0  0  0  0  0  0  0  0  0  0
    3.1608   -1.2427    0.8697 C   0  0  0  0  0  0  0  0  0  0  0  0
    2.5716   -0.0743    0.0445 C   0  0  0  0  0  0  0  0  0  0  0  0
    2.9234   -0.2176   -1.4536 C   0  0  0  0  0  0  0  0  0  0  0  0
    2.4946    0.9761   -2.2701 C   0  0  0  0  0  0  0  0  0  0  0  0
    3.2993    1.4880   -3.3851 C   0  0  0  0  0  0  0  0  0  0  0  0
    3.2910    2.1567   -2.1223 O   0  0  0  0  0  0  0  0  0  0  0  0
    1.1282   -0.0031    0.2670 C   0  0  0  0  0  0  0  0  0  0  0  0
   -0.0562    0.0009    0.4809 C   0  0  0  0  0  0  0  0  0  0  0  0
    1.9303   -1.0740    2.3439 H   0  0  0  0  0  0  0  0  0  0  0  0
    4.2507   -1.2348    0.7672 H   0  0  0  0  0  0  0  0  0  0  0  0
    2.7899   -2.1940    0.4545 H   0  0  0  0  0  0  0  0  0  0  0  0
    3.0268    0.8533    0.4143 H   0  0  0  0  0  0  0  0  0  0  0  0
    4.0083   -0.3402   -1.5453 H   0  0  0  0  0  0  0  0  0  0  0  0
    2.4508   -1.1225   -1.8551 H   0  0  0  0  0  0  0  0  0  0  0  0
    1.4214    1.1692   -2.2841 H   0  0  0  0  0  0  0  0  0  0  0  0
    4.2340    0.9918   -3.6446 H   0  0  0  0  0  0  0  0  0  0  0  0
    2.8175    2.0229   -4.2024 H   0  0  0  0  0  0  0  0  0  0  0  0
   -1.1033    0.0341    0.6569 H   0  0  0  0  0  0  0  0  0  0  0  0
  1  2  1  0
  2  3  1  0
  3  4  1  0
  4  5  1  0
  5  6  1  0
  6  7  1  0
  3  8  1  0
  8  9  3  0
  7  5  1  0
  1 10  1  0
  2 11  1  0
  2 12  1  0
  3 13  1  0
  4 14  1  0
  4 15  1  0
  5 16  1  0
  6 17  1  0
  6 18  1  0
  9 19  1  0
M  END
$$$$
