gdb 5982	3.8742673	1.0178974	0.9348828	1.5782	75.26	-0.23198	0.07498	0.30696	1296.4663	0.156207	-422.468266	-422.459932	-422.458988	-422.501714	31.447
 OpenBabel02181911423D

 19 21  0  0  1  0  0  0  0  0999 V2000
    1.3941    0.7571    0.0631 O   0  0  0  0  0  0  0  0  0  0  0  0
    0.3225   -0.0730    0.4800 C   0  0  0  0  0  0  0  0  0  0  0  0
   -0.8643    0.7327    1.0245 C   0  0  0  0  0  0  0  0  0  0  0  0
   -1.9928   -0.1407    1.4755 C   0  0  1  0  0  0  0  0  0  0  0  0
   -1.7495   -1.0947    2.5660 O   0  0  0  0  0  0  0  0  0  0  0  0
   -3.1456   -1.2957    2.2051 C   0  0  1  0  0  0  0  0  0  0  0  0
   -3.4425    0.2137    1.9539 C   0  0  2  0  0  0  0  0  0  0  0  0
   -4.0464   -0.0689    0.5616 C   0  0  0  0  0  0  0  0  0  0  0  0
   -2.9235   -1.1222    0.6737 C   0  0  1  0  0  0  0  0  0  0  0  0
    1.7725    1.1655    0.8481 H   0  0  0  0  0  0  0  0  0  0  0  0
    0.0137   -0.6304   -0.4106 H   0  0  0  0  0  0  0  0  0  0  0  0
    0.6420   -0.8095    1.2302 H   0  0  0  0  0  0  0  0  0  0  0  0
   -0.5343    1.3423    1.8767 H   0  0  0  0  0  0  0  0  0  0  0  0
   -1.2225    1.4240    0.2527 H   0  0  0  0  0  0  0  0  0  0  0  0
   -3.7249   -2.0422    2.7474 H   0  0  0  0  0  0  0  0  0  0  0  0
   -3.7136    0.9585    2.7025 H   0  0  0  0  0  0  0  0  0  0  0  0
   -5.0712   -0.4496    0.5437 H   0  0  0  0  0  0  0  0  0  0  0  0
   -3.9174    0.7079   -0.1971 H   0  0  0  0  0  0  0  0  0  0  0  0
   -2.6095   -1.8934   -0.0300 H   0  0  0  0  0  0  0  0  0  0  0  0
  1  2  1  0  0  0  0
  1 10  1  0  0  0  0
  2  3  1  0  0  0  0
  2 12  1  0  0  0  0
  3 13  1  0  0  0  0
  4  3  1  6  0  0  0
  4  7  1  0  0  0  0
  4  5  1  0  0  0  0
  6  5  1  0  0  0  0
  6 15  1  1  0  0  0
  7  6  1  0  0  0  0
  7 16  1  1  0  0  0
  8  9  1  0  0  0  0
  8  7  1  0  0  0  0
  9 19  1  6  0  0  0
  9  4  1  0  0  0  0
  9  6  1  0  0  0  0
 11  2  1  0  0  0  0
 14  3  1  0  0  0  0
 17  8  1  0  0  0  0
 18  8  1  0  0  0  0
M TOR 0 0 1 2 3
M TOR 1 0 1 2 12
M TOR 2 0 1 2 13
M TOR 3 1 2 3 4
M TOR 4 1 2 3 6
M TOR 5 1 2 3 8
M TOR 6 2 1 0 9
M TOR 7 2 3 4 5
M TOR 8 2 3 6 5
M TOR 9 2 3 6 7
M TOR 10 2 3 6 15
M TOR 11 2 3 8 5
M TOR 12 2 3 8 7
M TOR 13 2 3 8 18
M TOR 14 3 2 1 10
M TOR 15 3 2 1 11
M TOR 16 3 4 5 6
M TOR 17 3 4 5 8
M TOR 18 3 4 5 14
M TOR 19 3 6 5 8
M TOR 20 3 6 5 14
M TOR 21 3 6 7 8
M TOR 22 3 6 7 16
M TOR 23 3 6 7 17
M TOR 24 3 8 5 14
M TOR 25 3 8 7 16
M TOR 26 3 8 7 17
M TOR 27 4 3 2 12
M TOR 28 4 3 2 13
M TOR 29 4 3 6 7
M TOR 30 4 3 6 15
M TOR 31 4 3 8 7
M TOR 32 4 3 8 18
M TOR 33 4 5 6 7
M TOR 34 4 5 6 15
M TOR 35 4 5 8 7
M TOR 36 4 5 8 18
M TOR 37 5 6 7 8
M TOR 38 5 6 7 16
M TOR 39 5 6 7 17
M TOR 40 5 8 7 16
M TOR 41 5 8 7 17
M TOR 42 6 3 2 12
M TOR 43 6 3 2 13
M TOR 44 6 3 8 18
M TOR 45 6 5 8 18
M TOR 46 6 7 8 18
M TOR 47 7 6 5 14
M TOR 48 7 8 5 14
M TOR 49 8 3 2 12
M TOR 50 8 3 2 13
M TOR 51 8 3 6 15
M TOR 52 8 5 6 15
M TOR 53 8 7 6 15
M  END
$$$$
