
     RDKit          3D

 19 21  0  0  0  0  0  0  0  0999 V2000
   -0.1101    0.0806   -0.1083 C   0  0  0  0  0  0  0  0  0  0  0  0
    1.4060    0.0333    0.0182 C   0  0  0  0  0  0  0  0  0  0  0  0
    1.9337    1.3429    0.3478 O   0  0  0  0  0  0  0  0  0  0  0  0
    2.6464    1.1003    1.5386 C   0  0  0  0  0  0  0  0  0  0  0  0
    3.4079   -0.2551    1.4660 C   0  0  0  0  0  0  0  0  0  0  0  0
    3.1964   -0.4627    2.9825 C   0  0  0  0  0  0  0  0  0  0  0  0
    1.8573    0.1145    2.4622 C   0  0  0  0  0  0  0  0  0  0  0  0
    0.6698    0.3189    3.1416 O   0  0  0  0  0  0  0  0  0  0  0  0
    1.9577   -0.7805    1.1890 C   0  0  0  0  0  0  0  0  0  0  0  0
   -0.5645    0.3760    0.8402 H   0  0  0  0  0  0  0  0  0  0  0  0
   -0.4025    0.7991   -0.8797 H   0  0  0  0  0  0  0  0  0  0  0  0
   -0.4999   -0.9025   -0.3943 H   0  0  0  0  0  0  0  0  0  0  0  0
    1.8537   -0.2868   -0.9331 H   0  0  0  0  0  0  0  0  0  0  0  0
    3.1157    2.0091    1.9165 H   0  0  0  0  0  0  0  0  0  0  0  0
    4.2967   -0.4707    0.8787 H   0  0  0  0  0  0  0  0  0  0  0  0
    3.1730   -1.4973    3.3319 H   0  0  0  0  0  0  0  0  0  0  0  0
    3.7874    0.1693    3.6531 H   0  0  0  0  0  0  0  0  0  0  0  0
    0.7858    1.0548    3.7524 H   0  0  0  0  0  0  0  0  0  0  0  0
    1.7389   -1.8465    1.2532 H   0  0  0  0  0  0  0  0  0  0  0  0
  1  2  1  0
  2  3  1  0
  3  4  1  0
  4  5  1  0
  5  6  1  0
  6  7  1  0
  7  8  1  0
  7  9  1  0
  9  2  1  0
  7  4  1  0
  9  5  1  0
  1 10  1  0
  1 11  1  0
  1 12  1  0
  2 13  1  0
  4 14  1  0
  5 15  1  0
  6 16  1  0
  6 17  1  0
  8 18  1  0
  9 19  1  0
M  END
$$$$
