gdb 364	4.3968073	1.0314516	0.886674	2.7982	77.1	-0.23517	0.00984	0.24500999999999998	1305.8699	0.157667	-422.529299	-422.521001	-422.520057	-422.563597	29.75
 OpenBabel02181911403D

 19 20  0  0  1  0  0  0  0  0999 V2000
   -0.1309    4.1876   -2.3563 C   0  0  0  0  0  0  0  0  0  0  0  0
   -0.8279    4.9738   -1.3714 O   0  0  0  0  0  0  0  0  0  0  0  0
   -1.1676    3.7952   -0.6074 C   0  0  0  0  0  0  0  0  0  0  0  0
   -0.3298    2.8920   -1.5379 C   0  0  0  0  0  0  0  0  0  0  0  0
    0.9317    2.3056   -0.9086 C   0  0  1  0  0  0  0  0  0  0  0  0
    0.5663    1.3571    0.1003 O   0  0  0  0  0  0  0  0  0  0  0  0
    1.1794    0.0950   -0.1515 C   0  0  0  0  0  0  0  0  0  0  0  0
    1.9345    0.2774   -1.4378 C   0  0  0  0  0  0  0  0  0  0  0  0
    1.8039    1.5290   -1.8602 C   0  0  0  0  0  0  0  0  0  0  0  0
   -0.6340    4.2057   -3.3317 H   0  0  0  0  0  0  0  0  0  0  0  0
    0.9071    4.5219   -2.4894 H   0  0  0  0  0  0  0  0  0  0  0  0
   -0.8243    3.8604    0.4315 H   0  0  0  0  0  0  0  0  0  0  0  0
   -2.2471    3.6000   -0.6157 H   0  0  0  0  0  0  0  0  0  0  0  0
   -0.8881    2.1001   -2.0415 H   0  0  0  0  0  0  0  0  0  0  0  0
    1.4931    3.1307   -0.4351 H   0  0  0  0  0  0  0  0  0  0  0  0
    1.8421   -0.1761    0.6861 H   0  0  0  0  0  0  0  0  0  0  0  0
    0.4085   -0.6881   -0.2185 H   0  0  0  0  0  0  0  0  0  0  0  0
    2.4975   -0.5163   -1.9124 H   0  0  0  0  0  0  0  0  0  0  0  0
    2.2405    1.9654   -2.7495 H   0  0  0  0  0  0  0  0  0  0  0  0
  1  4  1  0  0  0  0
  1  2  1  0  0  0  0
  2  3  1  0  0  0  0
  3 12  1  0  0  0  0
  4  5  1  0  0  0  0
  4  3  1  0  0  0  0
  5 15  1  1  0  0  0
  5  6  1  0  0  0  0
  7  6  1  0  0  0  0
  7 16  1  0  0  0  0
  8  7  1  0  0  0  0
  9  8  2  0  0  0  0
  9  5  1  0  0  0  0
 10  1  1  0  0  0  0
 11  1  1  0  0  0  0
 13  3  1  0  0  0  0
 14  4  1  0  0  0  0
 17  7  1  0  0  0  0
 18  8  1  0  0  0  0
 19  9  1  0  0  0  0
M TOR 0 0 1 2 3
M TOR 1 0 1 2 11
M TOR 2 0 1 2 12
M TOR 3 0 3 2 11
M TOR 4 0 3 2 12
M TOR 5 0 3 4 5
M TOR 6 0 3 4 8
M TOR 7 0 3 4 14
M TOR 8 1 0 3 4
M TOR 9 1 0 3 13
M TOR 10 1 2 3 4
M TOR 11 1 2 3 13
M TOR 12 2 1 0 9
M TOR 13 2 1 0 10
M TOR 14 2 3 0 9
M TOR 15 2 3 0 10
M TOR 16 2 3 4 5
M TOR 17 2 3 4 8
M TOR 18 2 3 4 14
M TOR 19 3 4 5 6
M TOR 20 3 4 8 7
M TOR 21 3 4 8 18
M TOR 22 4 3 0 9
M TOR 23 4 3 0 10
M TOR 24 4 3 2 11
M TOR 25 4 3 2 12
M TOR 26 4 5 6 7
M TOR 27 4 5 6 15
M TOR 28 4 5 6 16
M TOR 29 4 8 7 6
M TOR 30 4 8 7 17
M TOR 31 5 4 3 13
M TOR 32 5 4 8 7
M TOR 33 5 4 8 18
M TOR 34 5 6 7 8
M TOR 35 5 6 7 17
M TOR 36 6 5 4 8
M TOR 37 6 5 4 14
M TOR 38 6 7 8 18
M TOR 39 7 8 4 14
M TOR 40 8 4 3 13
M TOR 41 8 7 6 15
M TOR 42 8 7 6 16
M  END
$$$$
