
     RDKit          3D

 19 20  0  0  0  0  0  0  0  0999 V2000
    4.5310    2.4721   -3.3547 C   0  0  0  0  0  0  0  0  0  0  0  0
    3.8655    1.8789   -4.5792 C   0  0  0  0  0  0  0  0  0  0  0  0
    3.7076    2.5195   -5.5954 O   0  0  0  0  0  0  0  0  0  0  0  0
    3.4242    0.4226   -4.5263 C   0  0  0  0  0  0  0  0  0  0  0  0
    2.8476   -0.2542   -3.2379 C   0  0  0  0  0  0  0  0  0  0  0  0
    3.8073   -1.4643   -3.4295 C   0  0  0  0  0  0  0  0  0  0  0  0
    5.1413   -1.3178   -2.6881 C   0  0  0  0  0  0  0  0  0  0  0  0
    5.6644   -0.4482   -3.7256 O   0  0  0  0  0  0  0  0  0  0  0  0
    4.5188   -0.6871   -4.5716 C   0  0  0  0  0  0  0  0  0  0  0  0
    5.3795    1.8440   -3.0652 H   0  0  0  0  0  0  0  0  0  0  0  0
    4.8598    3.4879   -3.5770 H   0  0  0  0  0  0  0  0  0  0  0  0
    3.8361    2.4941   -2.5075 H   0  0  0  0  0  0  0  0  0  0  0  0
    2.7532    0.2712   -5.3760 H   0  0  0  0  0  0  0  0  0  0  0  0
    3.0158    0.2916   -2.3062 H   0  0  0  0  0  0  0  0  0  0  0  0
    1.7841   -0.4888   -3.3086 H   0  0  0  0  0  0  0  0  0  0  0  0
    3.3684   -2.4547   -3.5334 H   0  0  0  0  0  0  0  0  0  0  0  0
    5.1158   -0.8285   -1.7068 H   0  0  0  0  0  0  0  0  0  0  0  0
    5.7326   -2.2395   -2.6169 H   0  0  0  0  0  0  0  0  0  0  0  0
    4.8080   -1.0764   -5.5508 H   0  0  0  0  0  0  0  0  0  0  0  0
  1  2  1  0
  2  3  2  0
  2  4  1  0
  4  5  1  0
  5  6  1  0
  6  7  1  0
  7  8  1  0
  8  9  1  0
  9  4  1  0
  9  6  1  0
  1 10  1  0
  1 11  1  0
  1 12  1  0
  4 13  1  0
  5 14  1  0
  5 15  1  0
  6 16  1  0
  7 17  1  0
  7 18  1  0
  9 19  1  0
M  END
$$$$
