
     RDKit          3D

 19 19  0  0  0  0  0  0  0  0999 V2000
   -0.5590    2.1989    1.1986 C   0  0  0  0  0  0  0  0  0  0  0  0
   -0.8776    1.2138    0.0728 C   0  0  0  0  0  0  0  0  0  0  0  0
   -2.3207    0.6592    0.0391 C   0  0  0  0  0  0  0  0  0  0  0  0
   -3.1974    1.2555   -1.0728 C   0  0  0  0  0  0  0  0  0  0  0  0
   -3.3210    2.6636   -0.9730 O   0  0  0  0  0  0  0  0  0  0  0  0
   -2.1370   -0.8353   -0.1004 C   0  0  0  0  0  0  0  0  0  0  0  0
   -0.8557   -1.2174   -0.0682 C   0  0  0  0  0  0  0  0  0  0  0  0
    0.0220   -0.0365    0.1142 C   0  0  0  0  0  0  0  0  0  0  0  0
    1.2208   -0.0346    0.2752 O   0  0  0  0  0  0  0  0  0  0  0  0
   -0.8049    1.7744    2.1784 H   0  0  0  0  0  0  0  0  0  0  0  0
    0.5085    2.4340    1.1949 H   0  0  0  0  0  0  0  0  0  0  0  0
   -1.1266    3.1247    1.0716 H   0  0  0  0  0  0  0  0  0  0  0  0
   -0.6699    1.7093   -0.8848 H   0  0  0  0  0  0  0  0  0  0  0  0
   -2.8257    0.8640    0.9971 H   0  0  0  0  0  0  0  0  0  0  0  0
   -2.7345    1.0664   -2.0477 H   0  0  0  0  0  0  0  0  0  0  0  0
   -4.1830    0.7631   -1.0777 H   0  0  0  0  0  0  0  0  0  0  0  0
   -3.8039    2.8642   -0.1646 H   0  0  0  0  0  0  0  0  0  0  0  0
   -2.9858   -1.5038   -0.2102 H   0  0  0  0  0  0  0  0  0  0  0  0
   -0.4715   -2.2275   -0.1316 H   0  0  0  0  0  0  0  0  0  0  0  0
  1  2  1  0
  2  3  1  0
  3  4  1  0
  4  5  1  0
  3  6  1  0
  6  7  2  0
  7  8  1  0
  8  9  2  0
  8  2  1  0
  1 10  1  0
  1 11  1  0
  1 12  1  0
  2 13  1  0
  3 14  1  0
  4 15  1  0
  4 16  1  0
  5 17  1  0
  6 18  1  0
  7 19  1  0
M  END
$$$$
