
     RDKit          3D

 19 20  0  0  0  0  0  0  0  0999 V2000
    4.2933   -1.9042   -0.5854 O   0  0  0  0  0  0  0  0  0  0  0  0
    3.2438   -0.9446   -0.6375 C   0  0  0  0  0  0  0  0  0  0  0  0
    3.7492    0.3599   -1.3231 C   0  0  0  0  0  0  0  0  0  0  0  0
    4.1968    1.2072   -0.1560 C   0  0  0  0  0  0  0  0  0  0  0  0
    3.7180    0.7471    1.0008 C   0  0  0  0  0  0  0  0  0  0  0  0
    2.8699   -0.4878    0.8043 C   0  0  0  0  0  0  0  0  0  0  0  0
    2.0824   -1.5785   -1.3727 C   0  0  0  0  0  0  0  0  0  0  0  0
    1.9777   -3.0206   -1.6187 C   0  0  0  0  0  0  0  0  0  0  0  0
    2.3448   -2.1162   -2.6662 O   0  0  0  0  0  0  0  0  0  0  0  0
    5.0580   -1.4695   -0.1927 H   0  0  0  0  0  0  0  0  0  0  0  0
    4.5360    0.1216   -2.0454 H   0  0  0  0  0  0  0  0  0  0  0  0
    2.9478    0.8591   -1.8848 H   0  0  0  0  0  0  0  0  0  0  0  0
    4.8044    2.0976   -0.2736 H   0  0  0  0  0  0  0  0  0  0  0  0
    3.8757    1.2024    1.9721 H   0  0  0  0  0  0  0  0  0  0  0  0
    3.0748   -1.2932    1.5170 H   0  0  0  0  0  0  0  0  0  0  0  0
    1.8015   -0.2447    0.8942 H   0  0  0  0  0  0  0  0  0  0  0  0
    1.1615   -0.9953   -1.3140 H   0  0  0  0  0  0  0  0  0  0  0  0
    2.7756   -3.6715   -1.2739 H   0  0  0  0  0  0  0  0  0  0  0  0
    0.9936   -3.4767   -1.7204 H   0  0  0  0  0  0  0  0  0  0  0  0
  1  2  1  0
  2  3  1  0
  3  4  1  0
  4  5  2  0
  5  6  1  0
  2  7  1  0
  7  8  1  0
  8  9  1  0
  6  2  1  0
  9  7  1  0
  1 10  1  0
  3 11  1  0
  3 12  1  0
  4 13  1  0
  5 14  1  0
  6 15  1  0
  6 16  1  0
  7 17  1  0
  8 18  1  0
  8 19  1  0
M  END
$$$$
