
     RDKit          3D

 19 19  0  0  0  0  0  0  0  0999 V2000
    3.4884    4.4902    1.2291 C   0  0  0  0  0  0  0  0  0  0  0  0
    3.5622    3.0598    1.7253 C   0  0  0  0  0  0  0  0  0  0  0  0
    4.8758    2.3133    1.4295 C   0  0  0  0  0  0  0  0  0  0  0  0
    4.4701    0.9700    1.1877 O   0  0  0  0  0  0  0  0  0  0  0  0
    3.0487    0.9349    1.1884 C   0  0  0  0  0  0  0  0  0  0  0  0
    2.5615    0.0664    0.0273 C   0  0  0  0  0  0  0  0  0  0  0  0
    1.1223   -0.1523    0.0425 C   0  0  0  0  0  0  0  0  0  0  0  0
   -0.0646   -0.3356    0.0722 C   0  0  0  0  0  0  0  0  0  0  0  0
    2.6084    2.2565    1.0332 O   0  0  0  0  0  0  0  0  0  0  0  0
    4.2352    5.1084    1.7372 H   0  0  0  0  0  0  0  0  0  0  0  0
    3.6739    4.5296    0.1517 H   0  0  0  0  0  0  0  0  0  0  0  0
    2.5010    4.9151    1.4270 H   0  0  0  0  0  0  0  0  0  0  0  0
    3.3530    3.0212    2.8069 H   0  0  0  0  0  0  0  0  0  0  0  0
    5.3711    2.7169    0.5361 H   0  0  0  0  0  0  0  0  0  0  0  0
    5.5792    2.3466    2.2687 H   0  0  0  0  0  0  0  0  0  0  0  0
    2.6982    0.5229    2.1515 H   0  0  0  0  0  0  0  0  0  0  0  0
    2.8744    0.5531   -0.9030 H   0  0  0  0  0  0  0  0  0  0  0  0
    3.0930   -0.8901    0.0886 H   0  0  0  0  0  0  0  0  0  0  0  0
   -1.1143   -0.4932    0.0901 H   0  0  0  0  0  0  0  0  0  0  0  0
  1  2  1  0
  2  3  1  0
  3  4  1  0
  4  5  1  0
  5  6  1  0
  6  7  1  0
  7  8  3  0
  5  9  1  0
  9  2  1  0
  1 10  1  0
  1 11  1  0
  1 12  1  0
  2 13  1  0
  3 14  1  0
  3 15  1  0
  5 16  1  0
  6 17  1  0
  6 18  1  0
  8 19  1  0
M  END
$$$$
