
     RDKit          3D

 19 20  0  0  0  0  0  0  0  0999 V2000
    1.4926   -0.1981   -0.2163 C   0  0  0  0  0  0  0  0  0  0  0  0
    0.1127   -0.0019    0.0104 O   0  0  0  0  0  0  0  0  0  0  0  0
   -0.1649    0.6759    1.1894 C   0  0  0  0  0  0  0  0  0  0  0  0
   -0.2158    2.2597    1.1285 C   0  0  0  0  0  0  0  0  0  0  0  0
   -1.4949    2.1209    0.4314 O   0  0  0  0  0  0  0  0  0  0  0  0
   -1.6822    1.0060    1.3544 C   0  0  0  0  0  0  0  0  0  0  0  0
   -1.6665    1.7011    2.7287 C   0  0  0  0  0  0  0  0  0  0  0  0
   -2.5587    1.4015    3.8814 C   0  0  0  0  0  0  0  0  0  0  0  0
   -0.6536    2.5630    2.5598 C   0  0  0  0  0  0  0  0  0  0  0  0
    1.9651   -0.7473    0.6128 H   0  0  0  0  0  0  0  0  0  0  0  0
    1.5889   -0.7856   -1.1318 H   0  0  0  0  0  0  0  0  0  0  0  0
    2.0264    0.7543   -0.3489 H   0  0  0  0  0  0  0  0  0  0  0  0
    0.3614    0.2352    2.0485 H   0  0  0  0  0  0  0  0  0  0  0  0
    0.5186    2.8814    0.6185 H   0  0  0  0  0  0  0  0  0  0  0  0
   -2.4760    0.3104    1.0841 H   0  0  0  0  0  0  0  0  0  0  0  0
   -2.4806    0.3499    4.1851 H   0  0  0  0  0  0  0  0  0  0  0  0
   -2.3139    2.0217    4.7482 H   0  0  0  0  0  0  0  0  0  0  0  0
   -3.6113    1.5746    3.6246 H   0  0  0  0  0  0  0  0  0  0  0  0
   -0.2122    3.2676    3.2500 H   0  0  0  0  0  0  0  0  0  0  0  0
  1  2  1  0
  2  3  1  0
  3  4  1  0
  4  5  1  0
  5  6  1  0
  6  7  1  0
  7  8  1  0
  7  9  2  0
  6  3  1  0
  9  4  1  0
  1 10  1  0
  1 11  1  0
  1 12  1  0
  3 13  1  0
  4 14  1  0
  6 15  1  0
  8 16  1  0
  8 17  1  0
  8 18  1  0
  9 19  1  0
M  END
$$$$
