
     RDKit          3D

 19 21  0  0  0  0  0  0  0  0999 V2000
   -0.3335    1.9101   -1.2685 C   0  0  0  0  0  0  0  0  0  0  0  0
    0.3043    1.5133    0.0352 C   0  0  0  0  0  0  0  0  0  0  0  0
    0.2874    0.5436   -1.1287 C   0  0  0  0  0  0  0  0  0  0  0  0
   -0.6423   -0.5695   -0.6583 C   0  0  0  0  0  0  0  0  0  0  0  0
   -1.5111    0.0754    0.2586 O   0  0  0  0  0  0  0  0  0  0  0  0
   -0.6164    0.8645    1.0648 C   0  0  0  0  0  0  0  0  0  0  0  0
    0.1401   -0.1265    1.9624 C   0  0  0  0  0  0  0  0  0  0  0  0
    0.8657   -1.1601    1.0771 C   0  0  0  0  0  0  0  0  0  0  0  0
    0.0674   -1.6098   -0.0213 O   0  0  0  0  0  0  0  0  0  0  0  0
   -1.4140    1.9865   -1.3197 H   0  0  0  0  0  0  0  0  0  0  0  0
    0.2079    2.6268   -1.8762 H   0  0  0  0  0  0  0  0  0  0  0  0
    1.2175    1.9920    0.3683 H   0  0  0  0  0  0  0  0  0  0  0  0
    1.1784    0.2771   -1.6832 H   0  0  0  0  0  0  0  0  0  0  0  0
   -1.2538   -1.0455   -1.4273 H   0  0  0  0  0  0  0  0  0  0  0  0
   -1.2260    1.5677    1.6386 H   0  0  0  0  0  0  0  0  0  0  0  0
    0.8666    0.3799    2.6082 H   0  0  0  0  0  0  0  0  0  0  0  0
   -0.5931   -0.6250    2.6038 H   0  0  0  0  0  0  0  0  0  0  0  0
    1.8084   -0.7361    0.7049 H   0  0  0  0  0  0  0  0  0  0  0  0
    1.1127   -2.0582    1.6495 H   0  0  0  0  0  0  0  0  0  0  0  0
  1  2  1  0
  2  3  1  0
  3  4  1  0
  4  5  1  0
  5  6  1  0
  6  7  1  0
  7  8  1  0
  8  9  1  0
  3  1  1  0
  9  4  1  0
  6  2  1  0
  1 10  1  0
  1 11  1  0
  2 12  1  0
  3 13  1  0
  4 14  1  0
  6 15  1  0
  7 16  1  0
  7 17  1  0
  8 18  1  0
  8 19  1  0
M  END
$$$$
