gdb 2250	2.3762007	1.6989929	1.4732878	1.3665	74.23	-0.233	0.0696	0.3026	992.4533	0.157731	-422.541232	-422.533194	-422.532249	-422.573096	32.059
 OpenBabel02181911413D

 19 21  0  0  1  0  0  0  0  0999 V2000
    2.0390    0.6494    3.4030 O   0  0  0  0  0  0  0  0  0  0  0  0
    1.1230    0.1536    2.4935 C   0  0  2  0  0  0  0  0  0  0  0  0
   -0.2826    0.7018    2.2667 C   0  0  0  0  0  0  0  0  0  0  0  0
   -0.2044    0.1665    0.7914 C   0  0  2  0  0  0  0  0  0  0  0  0
   -0.8399   -1.2262    0.6619 C   0  0  0  0  0  0  0  0  0  0  0  0
   -0.0443   -2.0896    1.6837 C   0  0  0  0  0  0  0  0  0  0  0  0
    1.2271   -1.2762    1.9286 C   0  0  1  0  0  0  0  0  0  0  0  0
    1.3180   -0.0917    1.0110 C   0  0  2  0  0  0  0  0  0  0  0  0
    2.3618    0.1108    0.1359 O   0  0  0  0  0  0  0  0  0  0  0  0
    1.9329    0.1771    4.2360 H   0  0  0  0  0  0  0  0  0  0  0  0
   -1.0995    0.3136    2.8868 H   0  0  0  0  0  0  0  0  0  0  0  0
   -0.2886    1.7946    2.3075 H   0  0  0  0  0  0  0  0  0  0  0  0
   -0.4894    0.8823    0.0195 H   0  0  0  0  0  0  0  0  0  0  0  0
   -1.9164   -1.2191    0.8599 H   0  0  0  0  0  0  0  0  0  0  0  0
   -0.6942   -1.6074   -0.3550 H   0  0  0  0  0  0  0  0  0  0  0  0
   -0.6132   -2.2498    2.6063 H   0  0  0  0  0  0  0  0  0  0  0  0
    0.1910   -3.0799    1.2824 H   0  0  0  0  0  0  0  0  0  0  0  0
    2.1634   -1.7629    2.1807 H   0  0  0  0  0  0  0  0  0  0  0  0
    2.5225    1.0585    0.0686 H   0  0  0  0  0  0  0  0  0  0  0  0
  1 10  1  0  0  0  0
  2  1  1  1  0  0  0
  3 12  1  0  0  0  0
  3  2  1  0  0  0  0
  3 11  1  0  0  0  0
  4 13  1  6  0  0  0
  4  8  1  0  0  0  0
  4  3  1  0  0  0  0
  5  4  1  0  0  0  0
  5 14  1  0  0  0  0
  5  6  1  0  0  0  0
  6  7  1  0  0  0  0
  6 16  1  0  0  0  0
  7 18  1  1  0  0  0
  7  2  1  0  0  0  0
  8  9  1  6  0  0  0
  8  7  1  0  0  0  0
  8  2  1  0  0  0  0
 15  5  1  0  0  0  0
 17  6  1  0  0  0  0
 19  9  1  0  0  0  0
M TOR 0 0 1 2 3
M TOR 1 0 1 2 10
M TOR 2 0 1 2 11
M TOR 3 0 1 6 5
M TOR 4 0 1 6 7
M TOR 5 0 1 6 17
M TOR 6 0 1 7 3
M TOR 7 0 1 7 8
M TOR 8 1 2 3 4
M TOR 9 1 2 3 7
M TOR 10 1 2 3 12
M TOR 11 1 6 5 4
M TOR 12 1 6 5 15
M TOR 13 1 6 5 16
M TOR 14 1 6 7 3
M TOR 15 1 6 7 8
M TOR 16 1 7 3 4
M TOR 17 1 7 3 12
M TOR 18 1 7 6 5
M TOR 19 1 7 6 17
M TOR 20 1 7 8 18
M TOR 21 2 1 0 9
M TOR 22 2 1 6 5
M TOR 23 2 1 6 7
M TOR 24 2 1 6 17
M TOR 25 2 1 7 8
M TOR 26 2 3 4 5
M TOR 27 2 3 4 13
M TOR 28 2 3 4 14
M TOR 29 2 3 7 6
M TOR 30 2 3 7 8
M TOR 31 3 2 1 6
M TOR 32 3 4 5 6
M TOR 33 3 4 5 15
M TOR 34 3 4 5 16
M TOR 35 3 7 6 5
M TOR 36 3 7 6 17
M TOR 37 3 7 8 18
M TOR 38 4 3 2 10
M TOR 39 4 3 2 11
M TOR 40 4 3 7 6
M TOR 41 4 3 7 8
M TOR 42 4 5 6 7
M TOR 43 4 5 6 17
M TOR 44 5 4 3 7
M TOR 45 5 4 3 12
M TOR 46 5 6 7 8
M TOR 47 6 1 0 9
M TOR 48 6 1 2 10
M TOR 49 6 1 2 11
M TOR 50 6 5 4 13
M TOR 51 6 5 4 14
M TOR 52 6 7 3 12
M TOR 53 6 7 8 18
M TOR 54 7 1 0 9
M TOR 55 7 1 2 10
M TOR 56 7 1 2 11
M TOR 57 7 3 2 10
M TOR 58 7 3 2 11
M TOR 59 7 3 4 13
M TOR 60 7 3 4 14
M TOR 61 7 6 5 15
M TOR 62 7 6 5 16
M TOR 63 8 7 3 12
M TOR 64 8 7 6 17
M  END
$$$$
