
     RDKit          3D

 19 21  0  0  0  0  0  0  0  0999 V2000
   -0.0396   -0.2300   -0.1465 C   0  0  0  0  0  0  0  0  0  0  0  0
    1.3018    0.4344   -0.0315 C   0  0  0  0  0  0  0  0  0  0  0  0
    1.9063    0.9992    1.2595 C   0  0  0  0  0  0  0  0  0  0  0  0
    3.3277    0.8065    0.6352 C   0  0  0  0  0  0  0  0  0  0  0  0
    4.3179    0.1759    1.3930 O   0  0  0  0  0  0  0  0  0  0  0  0
    3.7457    2.0873   -0.1031 C   0  0  0  0  0  0  0  0  0  0  0  0
    2.6831    2.3156   -1.0302 O   0  0  0  0  0  0  0  0  0  0  0  0
    2.0215    1.0744   -1.2047 C   0  0  0  0  0  0  0  0  0  0  0  0
    2.6902   -0.0472   -0.4912 C   0  0  0  0  0  0  0  0  0  0  0  0
   -0.1476   -1.0375    0.5869 H   0  0  0  0  0  0  0  0  0  0  0  0
   -0.8507    0.4876    0.0249 H   0  0  0  0  0  0  0  0  0  0  0  0
   -0.1853   -0.6637   -1.1417 H   0  0  0  0  0  0  0  0  0  0  0  0
    1.6144    2.0108    1.5653 H   0  0  0  0  0  0  0  0  0  0  0  0
    1.7713    0.3015    2.0911 H   0  0  0  0  0  0  0  0  0  0  0  0
    4.5391    0.7461    2.1375 H   0  0  0  0  0  0  0  0  0  0  0  0
    3.8266    2.9608    0.5548 H   0  0  0  0  0  0  0  0  0  0  0  0
    4.7034    1.9368   -0.6240 H   0  0  0  0  0  0  0  0  0  0  0  0
    1.5980    0.9524   -2.1949 H   0  0  0  0  0  0  0  0  0  0  0  0
    3.0538   -0.9827   -0.8957 H   0  0  0  0  0  0  0  0  0  0  0  0
  1  2  1  0
  2  3  1  0
  3  4  1  0
  4  5  1  0
  4  6  1  0
  6  7  1  0
  7  8  1  0
  8  9  1  0
  8  2  1  0
  9  2  1  0
  9  4  1  0
  1 10  1  0
  1 11  1  0
  1 12  1  0
  3 13  1  0
  3 14  1  0
  5 15  1  0
  6 16  1  0
  6 17  1  0
  8 18  1  0
  9 19  1  0
M  END
$$$$
