
     RDKit          3D

 19 19  0  0  0  0  0  0  0  0999 V2000
    6.1165    1.1643   -0.8400 C   0  0  0  0  0  0  0  0  0  0  0  0
    5.0423    2.1200   -0.3505 C   0  0  0  0  0  0  0  0  0  0  0  0
    3.8273    1.4059   -0.2329 O   0  0  0  0  0  0  0  0  0  0  0  0
    2.7595    2.2016    0.2163 C   0  0  0  0  0  0  0  0  0  0  0  0
    1.5430    1.3428    0.2989 C   0  0  0  0  0  0  0  0  0  0  0  0
    1.3092    0.0312    0.0359 C   0  0  0  0  0  0  0  0  0  0  0  0
   -0.0818   -0.1887    0.3156 C   0  0  0  0  0  0  0  0  0  0  0  0
   -0.5786    1.0050    0.7250 C   0  0  0  0  0  0  0  0  0  0  0  0
    0.4018    1.9535    0.7208 O   0  0  0  0  0  0  0  0  0  0  0  0
    6.2448    0.3384   -0.1348 H   0  0  0  0  0  0  0  0  0  0  0  0
    5.8429    0.7460   -1.8127 H   0  0  0  0  0  0  0  0  0  0  0  0
    7.0724    1.6865   -0.9422 H   0  0  0  0  0  0  0  0  0  0  0  0
    5.3225    2.5535    0.6244 H   0  0  0  0  0  0  0  0  0  0  0  0
    4.9204    2.9612   -1.0537 H   0  0  0  0  0  0  0  0  0  0  0  0
    2.9823    2.6438    1.2044 H   0  0  0  0  0  0  0  0  0  0  0  0
    2.5815    3.0504   -0.4689 H   0  0  0  0  0  0  0  0  0  0  0  0
    2.0382   -0.6815   -0.3120 H   0  0  0  0  0  0  0  0  0  0  0  0
   -0.6296   -1.1133    0.2220 H   0  0  0  0  0  0  0  0  0  0  0  0
   -1.5516    1.3430    1.0402 H   0  0  0  0  0  0  0  0  0  0  0  0
  1  2  1  0
  2  3  1  0
  3  4  1  0
  4  5  1  0
  5  6  2  0
  6  7  1  0
  7  8  2  0
  8  9  1  0
  9  5  1  0
  1 10  1  0
  1 11  1  0
  1 12  1  0
  2 13  1  0
  2 14  1  0
  4 15  1  0
  4 16  1  0
  6 17  1  0
  7 18  1  0
  8 19  1  0
M  END
$$$$
