gdb 1317	2.4352862	1.1652255	0.9433569	2.9055	78.03	-0.25324	0.01445	0.26769000000000004	1317.7183	0.153517	-422.505956	-422.496041	-422.495097	-422.540891	36.551
 OpenBabel02181911403D

 19 19  0  0  1  0  0  0  0  0999 V2000
    3.1043   -2.1663   -3.9511 C   0  0  0  0  0  0  0  0  0  0  0  0
    3.3464   -1.6624   -2.5336 C   0  0  2  0  0  0  0  0  0  0  0  0
    3.5119   -2.8053   -1.7082 O   0  0  0  0  0  0  0  0  0  0  0  0
    2.1840   -0.7865   -2.0294 C   0  0  0  0  0  0  0  0  0  0  0  0
    2.5151   -0.0748   -0.7255 C   0  0  1  0  0  0  0  0  0  0  0  0
    1.6226   -0.1914    0.4470 C   0  0  0  0  0  0  0  0  0  0  0  0
    2.8228   -0.9582    0.3887 O   0  0  0  0  0  0  0  0  0  0  0  0
    3.3820    1.0760   -0.8315 C   0  0  0  0  0  0  0  0  0  0  0  0
    4.0959    2.0345   -0.9576 C   0  0  0  0  0  0  0  0  0  0  0  0
    2.1649   -2.7263   -4.0041 H   0  0  0  0  0  0  0  0  0  0  0  0
    3.0602   -1.3351   -4.6615 H   0  0  0  0  0  0  0  0  0  0  0  0
    3.9149   -2.8369   -4.2482 H   0  0  0  0  0  0  0  0  0  0  0  0
    4.2647   -1.0503   -2.5278 H   0  0  0  0  0  0  0  0  0  0  0  0
    3.4622   -2.5129   -0.7898 H   0  0  0  0  0  0  0  0  0  0  0  0
    1.9264   -0.0313   -2.7794 H   0  0  0  0  0  0  0  0  0  0  0  0
    1.3101   -1.4304   -1.8827 H   0  0  0  0  0  0  0  0  0  0  0  0
    1.6183    0.5980    1.1955 H   0  0  0  0  0  0  0  0  0  0  0  0
    0.6963   -0.7547    0.3453 H   0  0  0  0  0  0  0  0  0  0  0  0
    4.7316    2.8798   -1.0572 H   0  0  0  0  0  0  0  0  0  0  0  0
  1  2  1  0  0  0  0
  2 13  1  1  0  0  0
  2  4  1  0  0  0  0
  2  3  1  0  0  0  0
  3 14  1  0  0  0  0
  4 16  1  0  0  0  0
  4  5  1  0  0  0  0
  5  8  1  6  0  0  0
  5  7  1  0  0  0  0
  5  6  1  0  0  0  0
  6 17  1  0  0  0  0
  7  6  1  0  0  0  0
  9  8  3  0  0  0  0
 10  1  1  0  0  0  0
 11  1  1  0  0  0  0
 12  1  1  0  0  0  0
 15  4  1  0  0  0  0
 18  6  1  0  0  0  0
 19  9  1  0  0  0  0
M TOR 0 0 1 2 13
M TOR 1 0 1 3 4
M TOR 2 0 1 3 14
M TOR 3 0 1 3 15
M TOR 4 1 3 4 5
M TOR 5 1 3 4 6
M TOR 6 1 3 4 7
M TOR 7 2 1 0 9
M TOR 8 2 1 0 10
M TOR 9 2 1 0 11
M TOR 10 2 1 3 4
M TOR 11 2 1 3 14
M TOR 12 2 1 3 15
M TOR 13 3 1 0 9
M TOR 14 3 1 0 10
M TOR 15 3 1 0 11
M TOR 16 3 1 2 13
M TOR 17 3 4 5 6
M TOR 18 3 4 5 16
M TOR 19 3 4 5 17
M TOR 20 3 4 7 8
M TOR 21 4 3 1 12
M TOR 22 4 6 5 16
M TOR 23 4 6 5 17
M TOR 24 4 7 8 18
M TOR 25 5 4 3 14
M TOR 26 5 4 3 15
M TOR 27 5 4 7 8
M TOR 28 5 6 4 7
M TOR 29 6 4 3 14
M TOR 30 6 4 3 15
M TOR 31 6 4 7 8
M TOR 32 7 4 3 14
M TOR 33 7 4 3 15
M TOR 34 7 4 5 16
M TOR 35 7 4 5 17
M  END
$$$$
