
     RDKit          3D

 19 20  0  0  0  0  0  0  0  0999 V2000
   -0.2731   -0.7014   -0.4613 C   0  0  0  0  0  0  0  0  0  0  0  0
    0.2762   -1.1418   -1.8049 C   0  0  0  0  0  0  0  0  0  0  0  0
   -0.3178   -0.7123   -2.9890 O   0  0  0  0  0  0  0  0  0  0  0  0
    0.0869    0.5414   -3.5548 C   0  0  0  0  0  0  0  0  0  0  0  0
    1.5355    0.5682   -3.9755 C   0  0  0  0  0  0  0  0  0  0  0  0
    2.5683    0.9096   -3.2057 C   0  0  0  0  0  0  0  0  0  0  0  0
    2.5368    1.3399   -1.7634 C   0  0  0  0  0  0  0  0  0  0  0  0
    1.3352    1.0627   -1.0650 O   0  0  0  0  0  0  0  0  0  0  0  0
    1.1158   -0.3000   -0.8609 C   0  0  0  0  0  0  0  0  0  0  0  0
   -1.0072    0.0967   -0.5013 H   0  0  0  0  0  0  0  0  0  0  0  0
   -0.4219   -1.4244    0.3330 H   0  0  0  0  0  0  0  0  0  0  0  0
    0.5846   -2.1820   -1.8868 H   0  0  0  0  0  0  0  0  0  0  0  0
   -0.5527    0.6446   -4.4357 H   0  0  0  0  0  0  0  0  0  0  0  0
   -0.1393    1.3635   -2.8710 H   0  0  0  0  0  0  0  0  0  0  0  0
    1.7415    0.2431   -4.9925 H   0  0  0  0  0  0  0  0  0  0  0  0
    3.5708    0.8814   -3.6310 H   0  0  0  0  0  0  0  0  0  0  0  0
    3.3907    0.8787   -1.2372 H   0  0  0  0  0  0  0  0  0  0  0  0
    2.6761    2.4260   -1.6866 H   0  0  0  0  0  0  0  0  0  0  0  0
    1.9590   -0.8067   -0.3866 H   0  0  0  0  0  0  0  0  0  0  0  0
  1  2  1  0
  2  3  1  0
  3  4  1  0
  4  5  1  0
  5  6  2  0
  6  7  1  0
  7  8  1  0
  8  9  1  0
  9  1  1  0
  9  2  1  0
  1 10  1  0
  1 11  1  0
  2 12  1  0
  4 13  1  0
  4 14  1  0
  5 15  1  0
  6 16  1  0
  7 17  1  0
  7 18  1  0
  9 19  1  0
M  END
$$$$
