
     RDKit          3D

 19 19  0  0  0  0  0  0  0  0999 V2000
    1.3357    0.6893   -0.1308 C   0  0  0  0  0  0  0  0  0  0  0  0
   -0.0071    0.8774    0.2440 O   0  0  0  0  0  0  0  0  0  0  0  0
   -0.5365   -0.2330    0.9391 C   0  0  0  0  0  0  0  0  0  0  0  0
   -1.9814    0.0465    1.2559 C   0  0  0  0  0  0  0  0  0  0  0  0
   -2.6303   -0.5581    2.4572 C   0  0  0  0  0  0  0  0  0  0  0  0
   -1.8547   -1.4155    3.2369 O   0  0  0  0  0  0  0  0  0  0  0  0
   -2.3178    0.9362    2.4568 C   0  0  0  0  0  0  0  0  0  0  0  0
   -3.3719    1.9006    2.3882 C   0  0  0  0  0  0  0  0  0  0  0  0
   -4.2726    2.6969    2.3340 C   0  0  0  0  0  0  0  0  0  0  0  0
    1.4571   -0.1738   -0.8053 H   0  0  0  0  0  0  0  0  0  0  0  0
    1.6597    1.5929   -0.6528 H   0  0  0  0  0  0  0  0  0  0  0  0
    1.9872    0.5307    0.7438 H   0  0  0  0  0  0  0  0  0  0  0  0
   -0.4595   -1.1442    0.3209 H   0  0  0  0  0  0  0  0  0  0  0  0
    0.0285   -0.4253    1.8631 H   0  0  0  0  0  0  0  0  0  0  0  0
   -2.6173    0.1804    0.3871 H   0  0  0  0  0  0  0  0  0  0  0  0
   -3.6816   -0.8289    2.3708 H   0  0  0  0  0  0  0  0  0  0  0  0
   -2.1456   -1.3335    4.1513 H   0  0  0  0  0  0  0  0  0  0  0  0
   -1.4560    1.2114    3.0590 H   0  0  0  0  0  0  0  0  0  0  0  0
   -5.0589    3.4080    2.2811 H   0  0  0  0  0  0  0  0  0  0  0  0
  1  2  1  0
  2  3  1  0
  3  4  1  0
  4  5  1  0
  5  6  1  0
  5  7  1  0
  7  8  1  0
  8  9  3  0
  7  4  1  0
  1 10  1  0
  1 11  1  0
  1 12  1  0
  3 13  1  0
  3 14  1  0
  4 15  1  0
  5 16  1  0
  6 17  1  0
  7 18  1  0
  9 19  1  0
M  END
$$$$
