
     RDKit          3D

 19 20  0  0  0  0  0  0  0  0999 V2000
    1.5862    0.4162   -0.8641 O   0  0  0  0  0  0  0  0  0  0  0  0
    0.3067    0.2178   -0.2523 C   0  0  0  0  0  0  0  0  0  0  0  0
   -0.5739   -0.3753   -1.3203 C   0  0  0  0  0  0  0  0  0  0  0  0
   -0.5900    0.4144   -2.4776 O   0  0  0  0  0  0  0  0  0  0  0  0
   -1.8843   -1.0523   -1.0702 C   0  0  0  0  0  0  0  0  0  0  0  0
   -2.2443   -1.5661    0.3264 C   0  0  0  0  0  0  0  0  0  0  0  0
   -1.1977   -2.6292    0.5972 C   0  0  0  0  0  0  0  0  0  0  0  0
   -0.3783   -2.8049   -0.4444 C   0  0  0  0  0  0  0  0  0  0  0  0
   -0.6941   -1.8834   -1.5670 C   0  0  0  0  0  0  0  0  0  0  0  0
    2.0845    1.0404   -0.3297 H   0  0  0  0  0  0  0  0  0  0  0  0
    0.3832   -0.4437    0.6173 H   0  0  0  0  0  0  0  0  0  0  0  0
   -0.1206    1.1789    0.0694 H   0  0  0  0  0  0  0  0  0  0  0  0
    0.3363    0.6370   -2.6407 H   0  0  0  0  0  0  0  0  0  0  0  0
   -2.6774   -0.7724   -1.7535 H   0  0  0  0  0  0  0  0  0  0  0  0
   -2.2339   -0.7726    1.0858 H   0  0  0  0  0  0  0  0  0  0  0  0
   -3.2591   -1.9860    0.3438 H   0  0  0  0  0  0  0  0  0  0  0  0
   -1.1343   -3.1553    1.5431 H   0  0  0  0  0  0  0  0  0  0  0  0
    0.4434   -3.5115   -0.4809 H   0  0  0  0  0  0  0  0  0  0  0  0
   -0.6079   -2.2020   -2.5995 H   0  0  0  0  0  0  0  0  0  0  0  0
  1  2  1  0
  2  3  1  0
  3  4  1  0
  3  5  1  0
  5  6  1  0
  6  7  1  0
  7  8  2  0
  8  9  1  0
  9  3  1  0
  9  5  1  0
  1 10  1  0
  2 11  1  0
  2 12  1  0
  4 13  1  0
  5 14  1  0
  6 15  1  0
  6 16  1  0
  7 17  1  0
  8 18  1  0
  9 19  1  0
M  END
$$$$
