gdb 4408	1.9099675	1.4768715	1.3360461	2.812	76.55	-0.24666	-0.04317	0.20349	1121.6607	0.154184	-422.56704	-422.557373	-422.556429	-422.602248	34.073
 OpenBabel02181911413D

 19 19  0  0  1  0  0  0  0  0999 V2000
    1.5243    1.0966   -0.8385 C   0  0  0  0  0  0  0  0  0  0  0  0
    1.9887    0.3811    0.4188 C   0  0  2  0  0  0  0  0  0  0  0  0
    3.4891    0.0601    0.6307 C   0  0  0  0  0  0  0  0  0  0  0  0
    3.0974   -1.3118    1.2314 C   0  0  0  0  0  0  0  0  0  0  0  0
    1.6861   -1.1865    0.6046 C   0  0  0  0  0  0  0  0  0  0  0  0
    1.5407   -1.8776   -0.7342 C   0  0  0  0  0  0  0  0  0  0  0  0
    2.4717   -2.2978   -1.3763 O   0  0  0  0  0  0  0  0  0  0  0  0
    0.4745   -1.4100    1.4741 C   0  0  0  0  0  0  0  0  0  0  0  0
   -0.6513   -1.5311    1.0585 O   0  0  0  0  0  0  0  0  0  0  0  0
    1.9212    0.6228   -1.7415 H   0  0  0  0  0  0  0  0  0  0  0  0
    0.4318    1.1140   -0.9097 H   0  0  0  0  0  0  0  0  0  0  0  0
    1.8748    2.1344   -0.8254 H   0  0  0  0  0  0  0  0  0  0  0  0
    1.5900    0.8938    1.3020 H   0  0  0  0  0  0  0  0  0  0  0  0
    4.0079   -0.0595   -0.3236 H   0  0  0  0  0  0  0  0  0  0  0  0
    4.0552    0.7504    1.2599 H   0  0  0  0  0  0  0  0  0  0  0  0
    3.6741   -2.1765    0.9024 H   0  0  0  0  0  0  0  0  0  0  0  0
    3.0486   -1.2974    2.3248 H   0  0  0  0  0  0  0  0  0  0  0  0
    0.4971   -1.9611   -1.0954 H   0  0  0  0  0  0  0  0  0  0  0  0
    0.6876   -1.4108    2.5686 H   0  0  0  0  0  0  0  0  0  0  0  0
  1 12  1  0  0  0  0
  1  2  1  0  0  0  0
  2  5  1  0  0  0  0
  2  3  1  0  0  0  0
  2 13  1  1  0  0  0
  3  4  1  0  0  0  0
  3 15  1  0  0  0  0
  4 17  1  0  0  0  0
  5  4  1  0  0  0  0
  5  8  1  0  0  0  0
  6  5  1  0  0  0  0
  7  6  2  0  0  0  0
  8 19  1  0  0  0  0
  9  8  2  0  0  0  0
 10  1  1  0  0  0  0
 11  1  1  0  0  0  0
 14  3  1  0  0  0  0
 16  4  1  0  0  0  0
 18  6  1  0  0  0  0
M TOR 0 0 1 2 3
M TOR 1 0 1 2 13
M TOR 2 0 1 2 14
M TOR 3 0 1 4 3
M TOR 4 0 1 4 5
M TOR 5 0 1 4 7
M TOR 6 1 2 3 4
M TOR 7 1 2 3 15
M TOR 8 1 2 3 16
M TOR 9 1 4 3 15
M TOR 10 1 4 3 16
M TOR 11 1 4 5 6
M TOR 12 1 4 5 17
M TOR 13 1 4 7 8
M TOR 14 1 4 7 18
M TOR 15 2 1 0 9
M TOR 16 2 1 0 10
M TOR 17 2 1 0 11
M TOR 18 2 1 4 5
M TOR 19 2 1 4 7
M TOR 20 2 3 4 5
M TOR 21 2 3 4 7
M TOR 22 3 2 1 12
M TOR 23 3 4 1 12
M TOR 24 3 4 5 6
M TOR 25 3 4 5 17
M TOR 26 3 4 7 8
M TOR 27 3 4 7 18
M TOR 28 4 1 0 9
M TOR 29 4 1 0 10
M TOR 30 4 1 0 11
M TOR 31 4 1 2 13
M TOR 32 4 1 2 14
M TOR 33 4 3 2 13
M TOR 34 4 3 2 14
M TOR 35 5 4 1 12
M TOR 36 5 4 3 15
M TOR 37 5 4 3 16
M TOR 38 5 4 7 8
M TOR 39 5 4 7 18
M TOR 40 6 5 4 7
M TOR 41 7 4 1 12
M TOR 42 7 4 3 15
M TOR 43 7 4 3 16
M TOR 44 7 4 5 17
M  END
$$$$
