gdb 5862	5.22958	0.5211666	0.4795687	2.5306	85.43	-0.26208	-0.02842	0.23365999999999998	2305.4519	0.154268	-422.554812	-422.543911	-422.542966	-422.593192	36.086
 OpenBabel02181911423D

 19 18  0  0  0  0  0  0  0  0999 V2000
    0.6406   -0.8844   -0.8955 C   0  0  0  0  0  0  0  0  0  0  0  0
    1.1697   -0.0097    0.2423 C   0  0  0  0  0  0  0  0  0  0  0  0
    1.2021    1.4843   -0.1399 C   0  0  0  0  0  0  0  0  0  0  0  0
    1.7007    2.3480    0.9199 C   0  0  0  0  0  0  0  0  0  0  0  0
    2.1163    3.0436    1.8126 C   0  0  0  0  0  0  0  0  0  0  0  0
    2.6013    3.9512    2.8218 C   0  0  0  0  0  0  0  0  0  0  0  0
    2.7012    5.1465    2.6849 O   0  0  0  0  0  0  0  0  0  0  0  0
    2.9326    3.2891    3.9495 O   0  0  0  0  0  0  0  0  0  0  0  0
    3.4267    4.1173    5.0097 C   0  0  0  0  0  0  0  0  0  0  0  0
    0.6254   -1.9389   -0.6053 H   0  0  0  0  0  0  0  0  0  0  0  0
   -0.3803   -0.6006   -1.1741 H   0  0  0  0  0  0  0  0  0  0  0  0
    1.2657   -0.7942   -1.7908 H   0  0  0  0  0  0  0  0  0  0  0  0
    0.5477   -0.1328    1.1356 H   0  0  0  0  0  0  0  0  0  0  0  0
    2.1805   -0.3247    0.5238 H   0  0  0  0  0  0  0  0  0  0  0  0
    1.8241    1.6244   -1.0345 H   0  0  0  0  0  0  0  0  0  0  0  0
    0.1939    1.8159   -0.4235 H   0  0  0  0  0  0  0  0  0  0  0  0
    3.6465    3.4390    5.8340 H   0  0  0  0  0  0  0  0  0  0  0  0
    4.3302    4.6472    4.6971 H   0  0  0  0  0  0  0  0  0  0  0  0
    2.6752    4.8529    5.3078 H   0  0  0  0  0  0  0  0  0  0  0  0
  1 10  1  0  0  0  0
  1  2  1  0  0  0  0
  2 14  1  0  0  0  0
  2 13  1  0  0  0  0
  3  2  1  0  0  0  0
  3  4  1  0  0  0  0
  4  5  3  0  0  0  0
  5  6  1  0  0  0  0
  6  8  1  0  0  0  0
  7  6  2  0  0  0  0
  8  9  1  0  0  0  0
  9 19  1  0  0  0  0
  9 17  1  0  0  0  0
 11  1  1  0  0  0  0
 12  1  1  0  0  0  0
 15  3  1  0  0  0  0
 16  3  1  0  0  0  0
 18  9  1  0  0  0  0
M TOR 0 0 1 2 3
M TOR 1 0 1 2 14
M TOR 2 0 1 2 15
M TOR 3 1 2 3 4
M TOR 4 2 1 0 9
M TOR 5 2 1 0 10
M TOR 6 2 1 0 11
M TOR 7 2 3 4 5
M TOR 8 3 2 1 12
M TOR 9 3 2 1 13
M TOR 10 3 4 5 6
M TOR 11 3 4 5 7
M TOR 12 4 3 2 14
M TOR 13 4 3 2 15
M TOR 14 4 5 7 8
M TOR 15 5 7 8 16
M TOR 16 5 7 8 17
M TOR 17 5 7 8 18
M TOR 18 6 5 7 8
M  END
$$$$
