
     RDKit          3D

 19 21  0  0  0  0  0  0  0  0999 V2000
    0.5104   -2.3931    0.1591 C   0  0  0  0  0  0  0  0  0  0  0  0
   -0.2382   -2.9081    1.3656 C   0  0  0  0  0  0  0  0  0  0  0  0
   -1.5141   -3.6249    1.2533 C   0  0  0  0  0  0  0  0  0  0  0  0
   -1.4785   -2.2591    1.6728 O   0  0  0  0  0  0  0  0  0  0  0  0
    1.2015   -1.0553    0.4227 C   0  0  0  0  0  0  0  0  0  0  0  0
    1.8292   -0.3863   -0.8558 C   0  0  0  0  0  0  0  0  0  0  0  0
    0.8426    0.7754   -0.6754 C   0  0  0  0  0  0  0  0  0  0  0  0
    1.0698    1.3254    0.6267 O   0  0  0  0  0  0  0  0  0  0  0  0
    0.2511    0.1560    0.5228 C   0  0  0  0  0  0  0  0  0  0  0  0
    1.2591   -3.1387   -0.1403 H   0  0  0  0  0  0  0  0  0  0  0  0
   -0.1926   -2.2908   -0.6773 H   0  0  0  0  0  0  0  0  0  0  0  0
    0.3760   -3.1080    2.2461 H   0  0  0  0  0  0  0  0  0  0  0  0
   -1.9439   -3.7997    0.2677 H   0  0  0  0  0  0  0  0  0  0  0  0
   -1.8062   -4.3414    2.0196 H   0  0  0  0  0  0  0  0  0  0  0  0
    1.8814   -1.1346    1.2774 H   0  0  0  0  0  0  0  0  0  0  0  0
    2.8860   -0.1128   -0.8092 H   0  0  0  0  0  0  0  0  0  0  0  0
    1.6427   -0.9753   -1.7585 H   0  0  0  0  0  0  0  0  0  0  0  0
    0.4142    1.4344   -1.4216 H   0  0  0  0  0  0  0  0  0  0  0  0
   -0.7484    0.1972    0.9365 H   0  0  0  0  0  0  0  0  0  0  0  0
  1  2  1  0
  2  3  1  0
  3  4  1  0
  1  5  1  0
  5  6  1  0
  6  7  1  0
  7  8  1  0
  8  9  1  0
  4  2  1  0
  9  5  1  0
  9  7  1  0
  1 10  1  0
  1 11  1  0
  2 12  1  0
  3 13  1  0
  3 14  1  0
  5 15  1  0
  6 16  1  0
  6 17  1  0
  7 18  1  0
  9 19  1  0
M  END
$$$$
