
     RDKit          3D

 19 21  0  0  0  0  0  0  0  0999 V2000
    1.6806    0.3803   -0.0279 O   0  0  0  0  0  0  0  0  0  0  0  0
    0.2676    0.5447    0.1314 C   0  0  0  0  0  0  0  0  0  0  0  0
   -0.2699    0.9848   -1.1773 C   0  0  0  0  0  0  0  0  0  0  0  0
   -1.5834    1.5213   -1.6872 C   0  0  0  0  0  0  0  0  0  0  0  0
   -1.6853    0.4401   -2.7667 C   0  0  0  0  0  0  0  0  0  0  0  0
   -0.1523    0.3134   -2.6214 C   0  0  0  0  0  0  0  0  0  0  0  0
    0.4259   -0.9069   -2.9137 O   0  0  0  0  0  0  0  0  0  0  0  0
    0.4024    1.6643   -3.1571 C   0  0  0  0  0  0  0  0  0  0  0  0
   -0.2695    2.2888   -1.9341 C   0  0  0  0  0  0  0  0  0  0  0  0
    2.0273   -0.0126    0.7792 H   0  0  0  0  0  0  0  0  0  0  0  0
   -0.1961   -0.4076    0.4350 H   0  0  0  0  0  0  0  0  0  0  0  0
    0.0358    1.2869    0.9122 H   0  0  0  0  0  0  0  0  0  0  0  0
   -2.3865    1.9627   -1.1106 H   0  0  0  0  0  0  0  0  0  0  0  0
   -2.1864   -0.4551   -2.3889 H   0  0  0  0  0  0  0  0  0  0  0  0
   -2.0814    0.7049   -3.7534 H   0  0  0  0  0  0  0  0  0  0  0  0
    1.3308   -0.8826   -2.5809 H   0  0  0  0  0  0  0  0  0  0  0  0
    1.4921    1.7075   -3.0656 H   0  0  0  0  0  0  0  0  0  0  0  0
    0.0957    1.9771   -4.1620 H   0  0  0  0  0  0  0  0  0  0  0  0
   -0.1201    3.2801   -1.5259 H   0  0  0  0  0  0  0  0  0  0  0  0
  1  2  1  0
  2  3  1  0
  3  4  1  0
  4  5  1  0
  5  6  1  0
  6  7  1  0
  6  8  1  0
  8  9  1  0
  6  3  1  0
  9  3  1  0
  9  4  1  0
  1 10  1  0
  2 11  1  0
  2 12  1  0
  4 13  1  0
  5 14  1  0
  5 15  1  0
  7 16  1  0
  8 17  1  0
  8 18  1  0
  9 19  1  0
M  END
$$$$
