gdb 5736	3.6797343	1.1226228	1.024077	0.9387	76.73	-0.22883	0.04998	0.27881	1206.0712	0.156197	-422.411889	-422.403885	-422.402941	-422.444296	31.51
 OpenBabel02181911423D

 19 21  0  0  1  0  0  0  0  0999 V2000
    1.6748    0.8040   -0.0414 O   0  0  0  0  0  0  0  0  0  0  0  0
    0.3280    0.4106   -0.2246 C   0  0  0  0  0  0  0  0  0  0  0  0
   -0.0083    0.2096   -1.6934 C   0  0  2  0  0  0  0  0  0  0  0  0
   -1.4607   -0.3711   -2.0405 C   0  0  0  0  0  0  0  0  0  0  0  0
   -0.6965   -1.1751   -3.0950 C   0  0  2  0  0  0  0  0  0  0  0  0
   -0.0522   -0.5270   -4.3583 C   0  0  0  0  0  0  0  0  0  0  0  0
    0.8692   -1.6063   -3.8013 C   0  0  2  0  0  0  0  0  0  0  0  0
   -0.3508   -2.5144   -3.6612 O   0  0  0  0  0  0  0  0  0  0  0  0
    0.6069   -1.1086   -2.3391 C   0  0  1  0  0  0  0  0  0  0  0  0
    2.2280    0.1308   -0.4535 H   0  0  0  0  0  0  0  0  0  0  0  0
    0.0928   -0.5070    0.3399 H   0  0  0  0  0  0  0  0  0  0  0  0
   -0.2853    1.2162    0.1948 H   0  0  0  0  0  0  0  0  0  0  0  0
    0.2029    1.1284   -2.2415 H   0  0  0  0  0  0  0  0  0  0  0  0
   -1.8308   -0.9863   -1.2152 H   0  0  0  0  0  0  0  0  0  0  0  0
   -2.2393    0.3205   -2.3718 H   0  0  0  0  0  0  0  0  0  0  0  0
   -0.5426   -0.7779   -5.2981 H   0  0  0  0  0  0  0  0  0  0  0  0
    0.2734    0.5134   -4.3088 H   0  0  0  0  0  0  0  0  0  0  0  0
    1.7430   -2.0928   -4.2418 H   0  0  0  0  0  0  0  0  0  0  0  0
    0.7088   -1.9022   -1.5943 H   0  0  0  0  0  0  0  0  0  0  0  0
  2  1  1  0  0  0  0
  2 12  1  0  0  0  0
  2 11  1  0  0  0  0
  3 13  1  6  0  0  0
  3  2  1  0  0  0  0
  4  3  1  0  0  0  0
  4 14  1  0  0  0  0
  5  8  1  6  0  0  0
  5  9  1  0  0  0  0
  5  4  1  0  0  0  0
  6 17  1  0  0  0  0
  6  7  1  0  0  0  0
  6  5  1  0  0  0  0
  7 18  1  6  0  0  0
  7  8  1  0  0  0  0
  7  9  1  0  0  0  0
  9  3  1  0  0  0  0
  9 19  1  1  0  0  0
 10  1  1  0  0  0  0
 15  4  1  0  0  0  0
 16  6  1  0  0  0  0
M TOR 0 0 1 2 3
M TOR 1 0 1 2 8
M TOR 2 0 1 2 12
M TOR 3 1 2 3 4
M TOR 4 1 2 3 13
M TOR 5 1 2 3 14
M TOR 6 1 2 8 4
M TOR 7 1 2 8 6
M TOR 8 1 2 8 18
M TOR 9 2 1 0 9
M TOR 10 2 3 4 5
M TOR 11 2 3 4 7
M TOR 12 2 3 4 8
M TOR 13 2 8 4 5
M TOR 14 2 8 4 7
M TOR 15 2 8 6 5
M TOR 16 2 8 6 7
M TOR 17 2 8 6 17
M TOR 18 3 2 1 10
M TOR 19 3 2 1 11
M TOR 20 3 2 8 6
M TOR 21 3 2 8 18
M TOR 22 3 4 5 6
M TOR 23 3 4 5 15
M TOR 24 3 4 5 16
M TOR 25 3 4 7 6
M TOR 26 3 4 8 6
M TOR 27 3 4 8 18
M TOR 28 4 3 2 12
M TOR 29 4 5 6 7
M TOR 30 4 5 6 8
M TOR 31 4 5 6 17
M TOR 32 4 7 6 8
M TOR 33 4 7 6 17
M TOR 34 4 8 2 12
M TOR 35 4 8 6 17
M TOR 36 5 4 3 13
M TOR 37 5 4 3 14
M TOR 38 5 4 8 18
M TOR 39 5 6 8 18
M TOR 40 6 8 2 12
M TOR 41 7 4 3 13
M TOR 42 7 4 3 14
M TOR 43 7 4 5 15
M TOR 44 7 4 5 16
M TOR 45 7 4 8 18
M TOR 46 7 6 5 15
M TOR 47 7 6 5 16
M TOR 48 7 6 8 18
M TOR 49 8 2 1 10
M TOR 50 8 2 1 11
M TOR 51 8 2 3 13
M TOR 52 8 2 3 14
M TOR 53 8 4 3 13
M TOR 54 8 4 3 14
M TOR 55 8 4 5 15
M TOR 56 8 4 5 16
M TOR 57 8 6 5 15
M TOR 58 8 6 5 16
M  END
$$$$
