gdb 318	2.8721474	1.7297184	1.293764	1.8554	73.47	-0.24869	0.08061	0.3293	1005.0898	0.159438	-422.552761	-422.54538	-422.544436	-422.584673	28.705
 OpenBabel02181911403D

 19 21  0  0  1  0  0  0  0  0999 V2000
    0.7137   -1.1666   -1.1920 C   0  0  0  0  0  0  0  0  0  0  0  0
    0.6437   -0.1244   -2.3476 C   0  0  0  0  0  0  0  0  0  0  0  0
    1.3315    1.1607   -1.8317 C   0  0  2  0  0  0  0  0  0  0  0  0
    2.8334    1.3654   -2.0545 C   0  0  0  0  0  0  0  0  0  0  0  0
    3.2750    2.1710   -0.9529 O   0  0  0  0  0  0  0  0  0  0  0  0
    2.4660    1.9092    0.1984 C   0  0  0  0  0  0  0  0  0  0  0  0
    1.3603    1.0164   -0.3202 C   0  0  1  0  0  0  0  0  0  0  0  0
    0.1299    0.7465    0.3271 O   0  0  0  0  0  0  0  0  0  0  0  0
    1.0253   -0.3594    0.0516 C   0  0  1  0  0  0  0  0  0  0  0  0
   -0.2083   -1.7490   -1.1024 H   0  0  0  0  0  0  0  0  0  0  0  0
    1.5307   -1.8818   -1.3447 H   0  0  0  0  0  0  0  0  0  0  0  0
    1.0978   -0.5036   -3.2678 H   0  0  0  0  0  0  0  0  0  0  0  0
   -0.3993    0.1010   -2.5800 H   0  0  0  0  0  0  0  0  0  0  0  0
    0.7934    2.0624   -2.1417 H   0  0  0  0  0  0  0  0  0  0  0  0
    3.3641    0.3988   -2.0668 H   0  0  0  0  0  0  0  0  0  0  0  0
    3.0822    1.9034   -2.9729 H   0  0  0  0  0  0  0  0  0  0  0  0
    3.0618    1.4328    0.9879 H   0  0  0  0  0  0  0  0  0  0  0  0
    2.0764    2.8585    0.5867 H   0  0  0  0  0  0  0  0  0  0  0  0
    1.4300   -0.8386    0.9398 H   0  0  0  0  0  0  0  0  0  0  0  0
  1 10  1  0  0  0  0
  1  9  1  0  0  0  0
  2  3  1  0  0  0  0
  2  1  1  0  0  0  0
  3 14  1  6  0  0  0
  3  7  1  0  0  0  0
  4  3  1  0  0  0  0
  4  5  1  0  0  0  0
  5  6  1  0  0  0  0
  6 18  1  0  0  0  0
  6 17  1  0  0  0  0
  7  9  1  0  0  0  0
  7  6  1  0  0  0  0
  7  8  1  1  0  0  0
  9  8  1  0  0  0  0
  9 19  1  1  0  0  0
 11  1  1  0  0  0  0
 12  2  1  0  0  0  0
 13  2  1  0  0  0  0
 15  4  1  0  0  0  0
 16  4  1  0  0  0  0
M TOR 0 0 1 2 3
M TOR 1 0 1 2 6
M TOR 2 0 1 2 13
M TOR 3 0 8 6 2
M TOR 4 0 8 6 5
M TOR 5 0 8 6 7
M TOR 6 1 0 8 6
M TOR 7 1 0 8 7
M TOR 8 1 0 8 18
M TOR 9 1 2 3 4
M TOR 10 1 2 3 14
M TOR 11 1 2 3 15
M TOR 12 1 2 6 5
M TOR 13 1 2 6 7
M TOR 14 1 2 6 8
M TOR 15 2 1 0 8
M TOR 16 2 1 0 9
M TOR 17 2 1 0 10
M TOR 18 2 3 4 5
M TOR 19 2 6 5 4
M TOR 20 2 6 5 16
M TOR 21 2 6 5 17
M TOR 22 2 6 7 8
M TOR 23 2 6 8 18
M TOR 24 3 2 1 11
M TOR 25 3 2 1 12
M TOR 26 3 2 6 5
M TOR 27 3 2 6 7
M TOR 28 3 2 6 8
M TOR 29 3 4 5 6
M TOR 30 3 4 5 16
M TOR 31 3 4 5 17
M TOR 32 4 3 2 6
M TOR 33 4 3 2 13
M TOR 34 4 5 6 7
M TOR 35 4 5 6 8
M TOR 36 5 4 3 14
M TOR 37 5 4 3 15
M TOR 38 5 6 2 13
M TOR 39 5 6 7 8
M TOR 40 5 6 8 18
M TOR 41 6 2 1 11
M TOR 42 6 2 1 12
M TOR 43 6 2 3 14
M TOR 44 6 2 3 15
M TOR 45 6 7 8 18
M TOR 46 6 8 0 9
M TOR 47 6 8 0 10
M TOR 48 7 6 2 13
M TOR 49 7 6 5 16
M TOR 50 7 6 5 17
M TOR 51 7 8 0 9
M TOR 52 7 8 0 10
M TOR 53 8 0 1 11
M TOR 54 8 0 1 12
M TOR 55 8 6 2 13
M TOR 56 8 6 5 16
M TOR 57 8 6 5 17
M  END
$$$$
