gdb 1304	2.9520569	0.9813256	0.9362952	1.5662	79.23	-0.24101	0.03148	0.27249	1351.6038	0.152956	-422.510394	-422.500016	-422.499071	-422.54561	38.217
 OpenBabel02181911403D

 19 19  0  0  1  0  0  0  0  0999 V2000
    0.7200   -1.3344   -2.2181 C   0  0  0  0  0  0  0  0  0  0  0  0
   -0.7935   -1.4619   -2.0465 C   0  0  1  0  0  0  0  0  0  0  0  0
   -1.1581   -2.7225   -1.4874 O   0  0  0  0  0  0  0  0  0  0  0  0
   -1.3643   -0.3210   -1.2209 C   0  0  2  0  0  0  0  0  0  0  0  0
   -2.8147    0.0635   -1.3434 C   0  0  0  0  0  0  0  0  0  0  0  0
   -1.7346    0.9912   -1.8807 C   0  0  2  0  0  0  0  0  0  0  0  0
   -1.5301    1.0271   -3.2708 O   0  0  0  0  0  0  0  0  0  0  0  0
   -1.4725    2.2310   -1.1954 C   0  0  0  0  0  0  0  0  0  0  0  0
   -1.2725    3.2828   -0.6465 C   0  0  0  0  0  0  0  0  0  0  0  0
    1.2238   -1.3115   -1.2431 H   0  0  0  0  0  0  0  0  0  0  0  0
    1.1087   -2.1854   -2.7840 H   0  0  0  0  0  0  0  0  0  0  0  0
    0.9698   -0.4112   -2.7489 H   0  0  0  0  0  0  0  0  0  0  0  0
   -1.2656   -1.4482   -3.0321 H   0  0  0  0  0  0  0  0  0  0  0  0
   -0.7099   -2.8069   -0.6385 H   0  0  0  0  0  0  0  0  0  0  0  0
   -0.9199   -0.2206   -0.2330 H   0  0  0  0  0  0  0  0  0  0  0  0
   -3.3977   -0.4589   -2.0947 H   0  0  0  0  0  0  0  0  0  0  0  0
   -3.3604    0.3675   -0.4579 H   0  0  0  0  0  0  0  0  0  0  0  0
   -2.1499    1.6652   -3.6416 H   0  0  0  0  0  0  0  0  0  0  0  0
   -1.0837    4.2068   -0.1586 H   0  0  0  0  0  0  0  0  0  0  0  0
  1  2  1  0  0  0  0
  1 10  1  0  0  0  0
  2 13  1  6  0  0  0
  2  3  1  0  0  0  0
  2  4  1  0  0  0  0
  3 14  1  0  0  0  0
  4 15  1  1  0  0  0
  5  4  1  0  0  0  0
  5 17  1  0  0  0  0
  6  5  1  0  0  0  0
  6  4  1  0  0  0  0
  6  8  1  1  0  0  0
  7  6  1  0  0  0  0
  8  9  3  0  0  0  0
  9 19  1  0  0  0  0
 11  1  1  0  0  0  0
 12  1  1  0  0  0  0
 16  5  1  0  0  0  0
 18  7  1  0  0  0  0
M TOR 0 0 1 2 13
M TOR 1 0 1 3 4
M TOR 2 0 1 3 5
M TOR 3 0 1 3 14
M TOR 4 1 3 4 5
M TOR 5 1 3 4 15
M TOR 6 1 3 4 16
M TOR 7 1 3 5 6
M TOR 8 1 3 5 7
M TOR 9 2 1 0 9
M TOR 10 2 1 0 10
M TOR 11 2 1 0 11
M TOR 12 2 1 3 4
M TOR 13 2 1 3 5
M TOR 14 2 1 3 14
M TOR 15 3 1 0 9
M TOR 16 3 1 0 10
M TOR 17 3 1 0 11
M TOR 18 3 1 2 13
M TOR 19 3 4 5 6
M TOR 20 3 4 5 7
M TOR 21 3 5 4 15
M TOR 22 3 5 4 16
M TOR 23 3 5 6 17
M TOR 24 3 5 7 8
M TOR 25 4 3 1 12
M TOR 26 4 5 3 14
M TOR 27 4 5 6 17
M TOR 28 4 5 7 8
M TOR 29 5 3 1 12
M TOR 30 5 7 8 18
M TOR 31 6 5 3 14
M TOR 32 6 5 4 15
M TOR 33 6 5 4 16
M TOR 34 6 5 7 8
M TOR 35 7 5 3 14
M TOR 36 7 5 4 15
M TOR 37 7 5 4 16
M TOR 38 7 5 6 17
M  END
$$$$
