gdb 5171	3.6469691	1.3835853	1.1490924	0.7917	75.75	-0.23058	0.07962	0.31020000000000003	1111.7679	0.15495	-422.461677	-422.453067	-422.452123	-422.494682	32.447
 OpenBabel02181911423D

 19 21  0  0  1  0  0  0  0  0999 V2000
    1.4224   -0.0140    0.0114 C   0  0  0  0  0  0  0  0  0  0  0  0
    0.0034   -0.0674    0.0900 O   0  0  0  0  0  0  0  0  0  0  0  0
   -0.5304    0.5945    1.1548 C   0  0  1  0  0  0  0  0  0  0  0  0
   -2.0304    0.6788    1.4522 C   0  0  0  0  0  0  0  0  0  0  0  0
   -1.3994    1.4890    2.6106 C   0  0  1  0  0  0  0  0  0  0  0  0
   -2.0482    2.1989    3.7614 C   0  0  0  0  0  0  0  0  0  0  0  0
   -0.1458    0.5545    2.6862 C   0  0  2  0  0  0  0  0  0  0  0  0
    0.8129    1.6511    2.6067 O   0  0  0  0  0  0  0  0  0  0  0  0
   -0.2571    2.0515    1.6998 C   0  0  1  0  0  0  0  0  0  0  0  0
    1.8895   -0.4640    0.8959 H   0  0  0  0  0  0  0  0  0  0  0  0
    1.7065   -0.5789   -0.8785 H   0  0  0  0  0  0  0  0  0  0  0  0
    1.7797    1.0188   -0.0804 H   0  0  0  0  0  0  0  0  0  0  0  0
   -2.6363    1.2413    0.7360 H   0  0  0  0  0  0  0  0  0  0  0  0
   -2.5248   -0.2582    1.7240 H   0  0  0  0  0  0  0  0  0  0  0  0
   -2.6221    1.5047    4.3844 H   0  0  0  0  0  0  0  0  0  0  0  0
   -1.2839    2.6702    4.3879 H   0  0  0  0  0  0  0  0  0  0  0  0
   -2.7339    2.9783    3.4123 H   0  0  0  0  0  0  0  0  0  0  0  0
    0.0615   -0.2798    3.3567 H   0  0  0  0  0  0  0  0  0  0  0  0
   -0.1833    3.0114    1.1881 H   0  0  0  0  0  0  0  0  0  0  0  0
  1  2  1  0  0  0  0
  1 10  1  0  0  0  0
  3  2  1  6  0  0  0
  3  4  1  0  0  0  0
  3  9  1  0  0  0  0
  3  7  1  0  0  0  0
  4 14  1  0  0  0  0
  4  5  1  0  0  0  0
  5  7  1  0  0  0  0
  5  6  1  1  0  0  0
  6 15  1  0  0  0  0
  6 16  1  0  0  0  0
  7 18  1  1  0  0  0
  8  7  1  0  0  0  0
  9 19  1  6  0  0  0
  9  8  1  0  0  0  0
  9  5  1  0  0  0  0
 11  1  1  0  0  0  0
 12  1  1  0  0  0  0
 13  4  1  0  0  0  0
 17  6  1  0  0  0  0
M TOR 0 0 1 2 3
M TOR 1 0 1 2 6
M TOR 2 0 1 2 8
M TOR 3 1 2 3 4
M TOR 4 1 2 3 12
M TOR 5 1 2 3 13
M TOR 6 1 2 6 4
M TOR 7 1 2 6 7
M TOR 8 1 2 6 17
M TOR 9 1 2 8 4
M TOR 10 1 2 8 7
M TOR 11 1 2 8 18
M TOR 12 2 1 0 9
M TOR 13 2 1 0 10
M TOR 14 2 1 0 11
M TOR 15 2 3 4 5
M TOR 16 2 3 4 6
M TOR 17 2 3 4 8
M TOR 18 2 6 4 5
M TOR 19 2 6 4 8
M TOR 20 2 6 7 8
M TOR 21 2 8 4 5
M TOR 22 3 2 6 7
M TOR 23 3 2 6 17
M TOR 24 3 2 8 7
M TOR 25 3 2 8 18
M TOR 26 3 4 5 14
M TOR 27 3 4 5 15
M TOR 28 3 4 5 16
M TOR 29 3 4 6 7
M TOR 30 3 4 6 17
M TOR 31 3 4 8 7
M TOR 32 3 4 8 18
M TOR 33 4 6 7 8
M TOR 34 5 4 3 12
M TOR 35 5 4 3 13
M TOR 36 5 4 6 7
M TOR 37 5 4 6 17
M TOR 38 5 4 8 7
M TOR 39 5 4 8 18
M TOR 40 6 2 3 12
M TOR 41 6 2 3 13
M TOR 42 6 2 8 18
M TOR 43 6 4 3 12
M TOR 44 6 4 3 13
M TOR 45 6 4 5 14
M TOR 46 6 4 5 15
M TOR 47 6 4 5 16
M TOR 48 6 4 8 18
M TOR 49 6 7 8 18
M TOR 50 8 2 3 12
M TOR 51 8 2 3 13
M TOR 52 8 2 6 17
M TOR 53 8 4 3 12
M TOR 54 8 4 3 13
M TOR 55 8 4 5 14
M TOR 56 8 4 5 15
M TOR 57 8 4 5 16
M TOR 58 8 4 6 17
M TOR 59 8 7 6 17
M  END
$$$$
