
     RDKit          3D

 19 20  0  0  0  0  0  0  0  0999 V2000
    1.4149    0.5681   -2.8101 C   0  0  0  0  0  0  0  0  0  0  0  0
    0.5844   -0.5451   -2.2241 C   0  0  0  0  0  0  0  0  0  0  0  0
   -0.7170   -0.9269   -2.9238 C   0  0  0  0  0  0  0  0  0  0  0  0
   -1.0593   -2.2264   -2.4587 O   0  0  0  0  0  0  0  0  0  0  0  0
    0.1501   -2.9164   -2.1492 C   0  0  0  0  0  0  0  0  0  0  0  0
    1.1139   -1.8374   -1.6987 C   0  0  0  0  0  0  0  0  0  0  0  0
    0.5314   -0.8333   -0.7079 C   0  0  0  0  0  0  0  0  0  0  0  0
    1.4627   -0.1486    0.2131 C   0  0  0  0  0  0  0  0  0  0  0  0
    2.6435    0.0312    0.0085 O   0  0  0  0  0  0  0  0  0  0  0  0
    2.3362    0.7144   -2.2452 H   0  0  0  0  0  0  0  0  0  0  0  0
    1.6783    0.3350   -3.8480 H   0  0  0  0  0  0  0  0  0  0  0  0
    0.8605    1.5134   -2.8133 H   0  0  0  0  0  0  0  0  0  0  0  0
   -1.5600   -0.2636   -2.7034 H   0  0  0  0  0  0  0  0  0  0  0  0
   -0.5478   -0.9219   -4.0139 H   0  0  0  0  0  0  0  0  0  0  0  0
   -0.0867   -3.6648   -1.3864 H   0  0  0  0  0  0  0  0  0  0  0  0
    0.5542   -3.4357   -3.0335 H   0  0  0  0  0  0  0  0  0  0  0  0
    2.1788   -2.0268   -1.6336 H   0  0  0  0  0  0  0  0  0  0  0  0
   -0.4516   -1.0492   -0.2998 H   0  0  0  0  0  0  0  0  0  0  0  0
    0.9964    0.2071    1.1584 H   0  0  0  0  0  0  0  0  0  0  0  0
  1  2  1  0
  2  3  1  0
  3  4  1  0
  4  5  1  0
  5  6  1  0
  6  7  1  0
  7  8  1  0
  8  9  2  0
  6  2  1  0
  7  2  1  0
  1 10  1  0
  1 11  1  0
  1 12  1  0
  3 13  1  0
  3 14  1  0
  5 15  1  0
  5 16  1  0
  6 17  1  0
  7 18  1  0
  8 19  1  0
M  END
$$$$
