gdb 1439	2.1307844	1.721173	1.4164185	2.0729	76.36	-0.24882	-0.03499	0.21383000000000002	1031.5286	0.155407	-422.524738	-422.515875	-422.514931	-422.558273	33.435
 OpenBabel02181911403D

 19 20  0  0  1  0  0  0  0  0999 V2000
   -0.0837   -0.0457    0.1266 C   0  0  0  0  0  0  0  0  0  0  0  0
    1.4312   -0.0344   -0.0444 C   0  0  2  0  0  0  0  0  0  0  0  0
    2.0274   -0.5378    1.1355 O   0  0  0  0  0  0  0  0  0  0  0  0
    2.1693    1.2119   -0.6264 C   0  0  2  0  0  0  0  0  0  0  0  0
    1.6152    0.8327   -2.0357 C   0  0  0  0  0  0  0  0  0  0  0  0
    2.0792   -0.5105   -1.3905 C   0  0  1  0  0  0  0  0  0  0  0  0
    3.3723    0.2750   -0.9543 C   0  0  0  0  0  0  0  0  0  0  0  0
    2.0294   -1.8966   -1.9211 C   0  0  0  0  0  0  0  0  0  0  0  0
    1.6253   -2.8316   -1.2668 O   0  0  0  0  0  0  0  0  0  0  0  0
   -0.3418    0.4952    1.0416 H   0  0  0  0  0  0  0  0  0  0  0  0
   -0.6319    0.4025   -0.7035 H   0  0  0  0  0  0  0  0  0  0  0  0
   -0.4338   -1.0780    0.2358 H   0  0  0  0  0  0  0  0  0  0  0  0
    1.7822   -1.4682    1.1972 H   0  0  0  0  0  0  0  0  0  0  0  0
    2.2149    2.2094   -0.1878 H   0  0  0  0  0  0  0  0  0  0  0  0
    0.5516    0.9614   -2.2324 H   0  0  0  0  0  0  0  0  0  0  0  0
    2.2136    1.1835   -2.8789 H   0  0  0  0  0  0  0  0  0  0  0  0
    3.9218   -0.1387   -0.1134 H   0  0  0  0  0  0  0  0  0  0  0  0
    4.0231    0.5995   -1.7689 H   0  0  0  0  0  0  0  0  0  0  0  0
    2.4033   -2.0452   -2.9596 H   0  0  0  0  0  0  0  0  0  0  0  0
  1 12  1  0  0  0  0
  1 10  1  0  0  0  0
  2  1  1  0  0  0  0
  2  3  1  1  0  0  0
  3 13  1  0  0  0  0
  4 14  1  1  0  0  0
  4  2  1  0  0  0  0
  5  6  1  0  0  0  0
  5  4  1  0  0  0  0
  6  8  1  6  0  0  0
  6  7  1  0  0  0  0
  6  2  1  0  0  0  0
  7  4  1  0  0  0  0
  7 17  1  0  0  0  0
  8  9  2  0  0  0  0
 11  1  1  0  0  0  0
 15  5  1  0  0  0  0
 16  5  1  0  0  0  0
 18  7  1  0  0  0  0
 19  8  1  0  0  0  0
M TOR 0 0 1 2 12
M TOR 1 0 1 3 4
M TOR 2 0 1 3 6
M TOR 3 0 1 3 13
M TOR 4 0 1 5 4
M TOR 5 0 1 5 6
M TOR 6 0 1 5 7
M TOR 7 1 3 4 5
M TOR 8 1 3 4 14
M TOR 9 1 3 4 15
M TOR 10 1 3 6 5
M TOR 11 1 3 6 16
M TOR 12 1 3 6 17
M TOR 13 1 5 4 14
M TOR 14 1 5 4 15
M TOR 15 1 5 6 16
M TOR 16 1 5 6 17
M TOR 17 1 5 7 8
M TOR 18 1 5 7 18
M TOR 19 2 1 0 9
M TOR 20 2 1 0 10
M TOR 21 2 1 0 11
M TOR 22 2 1 3 4
M TOR 23 2 1 3 6
M TOR 24 2 1 3 13
M TOR 25 2 1 5 4
M TOR 26 2 1 5 6
M TOR 27 2 1 5 7
M TOR 28 3 1 0 9
M TOR 29 3 1 0 10
M TOR 30 3 1 0 11
M TOR 31 3 1 2 12
M TOR 32 3 1 5 7
M TOR 33 3 4 5 6
M TOR 34 3 4 5 7
M TOR 35 3 6 5 7
M TOR 36 4 3 6 16
M TOR 37 4 3 6 17
M TOR 38 4 5 6 16
M TOR 39 4 5 6 17
M TOR 40 4 5 7 8
M TOR 41 4 5 7 18
M TOR 42 5 1 0 9
M TOR 43 5 1 0 10
M TOR 44 5 1 0 11
M TOR 45 5 1 2 12
M TOR 46 5 1 3 13
M TOR 47 5 4 3 13
M TOR 48 5 6 3 13
M TOR 49 6 3 4 14
M TOR 50 6 3 4 15
M TOR 51 6 5 4 14
M TOR 52 6 5 4 15
M TOR 53 6 5 7 8
M TOR 54 6 5 7 18
M TOR 55 7 5 4 14
M TOR 56 7 5 4 15
M TOR 57 7 5 6 16
M TOR 58 7 5 6 17
M  END
$$$$
