
     RDKit          3D

 19 19  0  0  0  0  0  0  0  0999 V2000
    1.3652   -0.2636    0.0047 C   0  0  0  0  0  0  0  0  0  0  0  0
   -0.0458   -0.1211   -0.0054 O   0  0  0  0  0  0  0  0  0  0  0  0
   -0.5338    0.5172    1.1308 C   0  0  0  0  0  0  0  0  0  0  0  0
   -1.9325    1.0649    1.0389 C   0  0  0  0  0  0  0  0  0  0  0  0
   -0.7733    2.0170    1.1403 C   0  0  0  0  0  0  0  0  0  0  0  0
   -0.6778    2.6812    2.3664 O   0  0  0  0  0  0  0  0  0  0  0  0
   -0.3867    2.8502   -0.0770 C   0  0  0  0  0  0  0  0  0  0  0  0
    0.9353    3.4502    0.0893 C   0  0  0  0  0  0  0  0  0  0  0  0
    2.0190    3.9328    0.2910 C   0  0  0  0  0  0  0  0  0  0  0  0
    1.6977   -0.8665    0.8628 H   0  0  0  0  0  0  0  0  0  0  0  0
    1.6406   -0.7801   -0.9176 H   0  0  0  0  0  0  0  0  0  0  0  0
    1.8723    0.7096    0.0425 H   0  0  0  0  0  0  0  0  0  0  0  0
   -0.2262    0.0773    2.0808 H   0  0  0  0  0  0  0  0  0  0  0  0
   -2.4274    0.9739    0.0779 H   0  0  0  0  0  0  0  0  0  0  0  0
   -2.5743    0.9715    1.9069 H   0  0  0  0  0  0  0  0  0  0  0  0
    0.2291    3.0051    2.4440 H   0  0  0  0  0  0  0  0  0  0  0  0
   -0.4009    2.2110   -0.9656 H   0  0  0  0  0  0  0  0  0  0  0  0
   -1.1301    3.6429   -0.2273 H   0  0  0  0  0  0  0  0  0  0  0  0
    2.9768    4.3694    0.4329 H   0  0  0  0  0  0  0  0  0  0  0  0
  1  2  1  0
  2  3  1  0
  3  4  1  0
  4  5  1  0
  5  6  1  0
  5  7  1  0
  7  8  1  0
  8  9  3  0
  5  3  1  0
  1 10  1  0
  1 11  1  0
  1 12  1  0
  3 13  1  0
  4 14  1  0
  4 15  1  0
  6 16  1  0
  7 17  1  0
  7 18  1  0
  9 19  1  0
M  END
$$$$
