
     RDKit          3D

 19 21  0  0  0  0  0  0  0  0999 V2000
   -0.5941   -2.1196    0.1291 C   0  0  0  0  0  0  0  0  0  0  0  0
   -1.4383   -2.8734   -0.8698 C   0  0  0  0  0  0  0  0  0  0  0  0
   -1.8650   -4.2587   -0.6460 C   0  0  0  0  0  0  0  0  0  0  0  0
   -0.7963   -3.9621   -1.5458 O   0  0  0  0  0  0  0  0  0  0  0  0
    0.3493   -1.1431   -0.5572 C   0  0  0  0  0  0  0  0  0  0  0  0
   -0.4039   -0.0874   -1.2385 O   0  0  0  0  0  0  0  0  0  0  0  0
    0.1356    0.8869   -0.3430 C   0  0  0  0  0  0  0  0  0  0  0  0
    1.6204    0.9859   -0.4905 C   0  0  0  0  0  0  0  0  0  0  0  0
    1.0191   -0.1183    0.3562 C   0  0  0  0  0  0  0  0  0  0  0  0
   -1.2427   -1.5649    0.8185 H   0  0  0  0  0  0  0  0  0  0  0  0
   -0.0049   -2.8331    0.7184 H   0  0  0  0  0  0  0  0  0  0  0  0
   -2.0462   -2.2462   -1.5214 H   0  0  0  0  0  0  0  0  0  0  0  0
   -1.5748   -4.7669    0.2734 H   0  0  0  0  0  0  0  0  0  0  0  0
   -2.7791   -4.6283   -1.1088 H   0  0  0  0  0  0  0  0  0  0  0  0
    1.0030   -1.6735   -1.2605 H   0  0  0  0  0  0  0  0  0  0  0  0
   -0.5215    1.6726    0.0115 H   0  0  0  0  0  0  0  0  0  0  0  0
    2.0786    0.7615   -1.4499 H   0  0  0  0  0  0  0  0  0  0  0  0
    2.0969    1.7803    0.0760 H   0  0  0  0  0  0  0  0  0  0  0  0
    1.2454   -0.2610    1.4045 H   0  0  0  0  0  0  0  0  0  0  0  0
  1  2  1  0
  2  3  1  0
  3  4  1  0
  1  5  1  0
  5  6  1  0
  6  7  1  0
  7  8  1  0
  8  9  1  0
  4  2  1  0
  9  5  1  0
  9  7  1  0
  1 10  1  0
  1 11  1  0
  2 12  1  0
  3 13  1  0
  3 14  1  0
  5 15  1  0
  7 16  1  0
  8 17  1  0
  8 18  1  0
  9 19  1  0
M  END
$$$$
