gdb 4744	2.7229106	1.1557848	0.9790131	2.26	77.41	-0.26178	-0.03839	0.22339	1280.2343	0.152277	-422.543873	-422.533274	-422.53233	-422.579545	37.854
 OpenBabel02181911413D

 19 18  0  0  1  0  0  0  0  0999 V2000
   -0.5016    2.8776    0.7871 C   0  0  0  0  0  0  0  0  0  0  0  0
   -1.0032    2.1228   -0.4459 C   0  0  0  0  0  0  0  0  0  0  0  0
    0.0062    1.0820   -0.9852 C   0  0  2  0  0  0  0  0  0  0  0  0
    1.2416    1.6938   -1.2490 O   0  0  0  0  0  0  0  0  0  0  0  0
   -0.5595    0.4421   -2.2889 C   0  0  0  0  0  0  0  0  0  0  0  0
    0.2730   -0.6329   -2.8115 C   0  0  0  0  0  0  0  0  0  0  0  0
    0.9653   -1.5294   -3.2124 C   0  0  0  0  0  0  0  0  0  0  0  0
    0.2013   -0.0181    0.0506 C   0  0  0  0  0  0  0  0  0  0  0  0
    1.2773   -0.2553    0.5398 O   0  0  0  0  0  0  0  0  0  0  0  0
   -0.3539    2.2093    1.6423 H   0  0  0  0  0  0  0  0  0  0  0  0
    0.4538    3.3605    0.5706 H   0  0  0  0  0  0  0  0  0  0  0  0
   -1.2197    3.6460    1.0865 H   0  0  0  0  0  0  0  0  0  0  0  0
   -1.9544    1.6195   -0.2307 H   0  0  0  0  0  0  0  0  0  0  0  0
   -1.2014    2.8305   -1.2592 H   0  0  0  0  0  0  0  0  0  0  0  0
    1.9017    1.1893   -0.7476 H   0  0  0  0  0  0  0  0  0  0  0  0
   -1.5768    0.0736   -2.1058 H   0  0  0  0  0  0  0  0  0  0  0  0
   -0.6421    1.2491   -3.0258 H   0  0  0  0  0  0  0  0  0  0  0  0
    1.5774   -2.3176   -3.5752 H   0  0  0  0  0  0  0  0  0  0  0  0
   -0.7080   -0.5884    0.3333 H   0  0  0  0  0  0  0  0  0  0  0  0
  1 12  1  0  0  0  0
  1 10  1  0  0  0  0
  2 13  1  0  0  0  0
  2  1  1  0  0  0  0
  3  4  1  6  0  0  0
  3  2  1  0  0  0  0
  3  8  1  0  0  0  0
  4 15  1  0  0  0  0
  5 16  1  0  0  0  0
  5  3  1  0  0  0  0
  6  5  1  0  0  0  0
  7  6  3  0  0  0  0
  8 19  1  0  0  0  0
  8  9  2  0  0  0  0
 11  1  1  0  0  0  0
 14  2  1  0  0  0  0
 17  5  1  0  0  0  0
 18  7  1  0  0  0  0
M TOR 0 0 1 2 3
M TOR 1 0 1 2 4
M TOR 2 0 1 2 7
M TOR 3 1 2 3 14
M TOR 4 1 2 4 5
M TOR 5 1 2 4 15
M TOR 6 1 2 4 16
M TOR 7 1 2 7 8
M TOR 8 1 2 7 18
M TOR 9 2 1 0 9
M TOR 10 2 1 0 10
M TOR 11 2 1 0 11
M TOR 12 2 4 5 6
M TOR 13 3 2 1 12
M TOR 14 3 2 1 13
M TOR 15 3 2 4 5
M TOR 16 3 2 4 15
M TOR 17 3 2 4 16
M TOR 18 3 2 7 8
M TOR 19 3 2 7 18
M TOR 20 4 2 1 12
M TOR 21 4 2 1 13
M TOR 22 4 2 3 14
M TOR 23 4 2 7 8
M TOR 24 4 2 7 18
M TOR 25 4 5 6 17
M TOR 26 5 4 2 7
M TOR 27 6 5 4 15
M TOR 28 6 5 4 16
M TOR 29 7 2 1 12
M TOR 30 7 2 1 13
M TOR 31 7 2 3 14
M TOR 32 7 2 4 15
M TOR 33 7 2 4 16
M  END
$$$$
