gdb 95	8.8673766	0.50321	0.4937681	2.3277	79.63	-0.26219	0.05264	0.31483	2167.7343	0.153832	-422.481984	-422.471879	-422.470935	-422.518591	34.786
 OpenBabel02181911403D

 19 19  0  0  1  0  0  0  0  0999 V2000
    0.0269   -0.1290    0.4123 C   0  0  0  0  0  0  0  0  0  0  0  0
    1.2203   -0.0669    0.2847 C   0  0  0  0  0  0  0  0  0  0  0  0
    2.6616    0.0210    0.0957 C   0  0  0  0  0  0  0  0  0  0  0  0
    3.0321    0.5344   -1.2998 C   0  0  0  0  0  0  0  0  0  0  0  0
    4.4387    0.5845   -1.3734 O   0  0  0  0  0  0  0  0  0  0  0  0
    4.9172    1.0510   -2.6157 C   0  0  0  0  0  0  0  0  0  0  0  0
    6.4199    1.0643   -2.5751 C   0  0  2  0  0  0  0  0  0  0  0  0
    7.2142    0.9641   -3.8042 C   0  0  0  0  0  0  0  0  0  0  0  0
    7.0886   -0.1489   -2.9207 O   0  0  0  0  0  0  0  0  0  0  0  0
   -1.0254   -0.1900    0.5395 H   0  0  0  0  0  0  0  0  0  0  0  0
    3.1045    0.6895    0.8434 H   0  0  0  0  0  0  0  0  0  0  0  0
    3.1268   -0.9610    0.2413 H   0  0  0  0  0  0  0  0  0  0  0  0
    2.6212   -0.1371   -2.0700 H   0  0  0  0  0  0  0  0  0  0  0  0
    2.5933    1.5317   -1.4648 H   0  0  0  0  0  0  0  0  0  0  0  0
    4.5803    0.4020   -3.4399 H   0  0  0  0  0  0  0  0  0  0  0  0
    4.5422    2.0707   -2.8144 H   0  0  0  0  0  0  0  0  0  0  0  0
    6.8468    1.5834   -1.7166 H   0  0  0  0  0  0  0  0  0  0  0  0
    6.7112    0.8575   -4.7650 H   0  0  0  0  0  0  0  0  0  0  0  0
    8.1990    1.4266   -3.8475 H   0  0  0  0  0  0  0  0  0  0  0  0
  1 10  1  0  0  0  0
  2  1  3  0  0  0  0
  3 12  1  0  0  0  0
  3  2  1  0  0  0  0
  3 11  1  0  0  0  0
  4  3  1  0  0  0  0
  5  4  1  0  0  0  0
  6  7  1  0  0  0  0
  6  5  1  0  0  0  0
  7 17  1  1  0  0  0
  8  9  1  0  0  0  0
  8  7  1  0  0  0  0
  9  7  1  0  0  0  0
 13  4  1  0  0  0  0
 14  4  1  0  0  0  0
 15  6  1  0  0  0  0
 16  6  1  0  0  0  0
 18  8  1  0  0  0  0
 19  8  1  0  0  0  0
M TOR 0 0 1 2 3
M TOR 1 0 1 2 10
M TOR 2 0 1 2 11
M TOR 3 1 2 3 4
M TOR 4 1 2 3 12
M TOR 5 1 2 3 13
M TOR 6 2 1 0 9
M TOR 7 2 3 4 5
M TOR 8 3 4 5 6
M TOR 9 3 4 5 14
M TOR 10 3 4 5 15
M TOR 11 4 3 2 10
M TOR 12 4 3 2 11
M TOR 13 4 5 6 7
M TOR 14 4 5 6 8
M TOR 15 4 5 6 16
M TOR 16 5 4 3 12
M TOR 17 5 4 3 13
M TOR 18 5 6 7 8
M TOR 19 5 6 7 17
M TOR 20 5 6 7 18
M TOR 21 6 8 7 17
M TOR 22 6 8 7 18
M TOR 23 7 6 5 14
M TOR 24 7 6 5 15
M TOR 25 7 8 6 16
M TOR 26 8 6 5 14
M TOR 27 8 6 5 15
M  END
$$$$
