
     RDKit          3D

 19 19  0  0  0  0  0  0  0  0999 V2000
    1.2654    0.9422   -0.7054 O   0  0  0  0  0  0  0  0  0  0  0  0
    0.4760    0.2422    0.2440 C   0  0  0  0  0  0  0  0  0  0  0  0
   -0.0575    1.1415    1.3462 C   0  0  0  0  0  0  0  0  0  0  0  0
   -0.8468    0.4798    2.5077 C   0  0  0  0  0  0  0  0  0  0  0  0
   -0.0979    1.4230    3.5118 C   0  0  0  0  0  0  0  0  0  0  0  0
    0.4804    0.8204    4.6540 O   0  0  0  0  0  0  0  0  0  0  0  0
    0.9515    1.6903    2.3957 C   0  0  0  0  0  0  0  0  0  0  0  0
   -0.8861    2.5982    3.8710 C   0  0  0  0  0  0  0  0  0  0  0  0
   -1.5553    3.5429    4.1970 C   0  0  0  0  0  0  0  0  0  0  0  0
    2.0299    1.3004   -0.2427 H   0  0  0  0  0  0  0  0  0  0  0  0
   -0.3551   -0.1918   -0.3235 H   0  0  0  0  0  0  0  0  0  0  0  0
    1.0366   -0.5960    0.6916 H   0  0  0  0  0  0  0  0  0  0  0  0
   -0.6283    1.9599    0.8982 H   0  0  0  0  0  0  0  0  0  0  0  0
   -1.9369    0.5235    2.4870 H   0  0  0  0  0  0  0  0  0  0  0  0
   -0.5192   -0.5492    2.6853 H   0  0  0  0  0  0  0  0  0  0  0  0
   -0.1731    0.8304    5.3618 H   0  0  0  0  0  0  0  0  0  0  0  0
    1.3197    2.7120    2.2941 H   0  0  0  0  0  0  0  0  0  0  0  0
    1.7935    1.0066    2.5475 H   0  0  0  0  0  0  0  0  0  0  0  0
   -2.1371    4.3855    4.4794 H   0  0  0  0  0  0  0  0  0  0  0  0
  1  2  1  0
  2  3  1  0
  3  4  1  0
  4  5  1  0
  5  6  1  0
  5  7  1  0
  5  8  1  0
  8  9  3  0
  7  3  1  0
  1 10  1  0
  2 11  1  0
  2 12  1  0
  3 13  1  0
  4 14  1  0
  4 15  1  0
  6 16  1  0
  7 17  1  0
  7 18  1  0
  9 19  1  0
M  END
$$$$
