gdb 4054	2.7150555	1.8349453	1.3356933	1.5415	73.76	-0.2373	0.0712	0.3085	992.36	0.157454	-422.515874	-422.508244	-422.5073	-422.547521	30.804
 OpenBabel02181911413D

 19 21  0  0  1  0  0  0  0  0999 V2000
    0.7642    0.8779   -0.0206 C   0  0  0  0  0  0  0  0  0  0  0  0
    0.7997   -0.6320    0.2170 C   0  0  1  0  0  0  0  0  0  0  0  0
    1.2763   -1.4804   -1.0071 C   0  0  0  0  0  0  0  0  0  0  0  0
    2.4832   -2.2069   -0.4118 C   0  0  2  0  0  0  0  0  0  0  0  0
    2.1762   -2.5875    1.0580 C   0  0  1  0  0  0  0  0  0  0  0  0
    3.5729   -2.3386    1.4667 O   0  0  0  0  0  0  0  0  0  0  0  0
    3.2459   -1.2437    0.5310 C   0  0  2  0  0  0  0  0  0  0  0  0
    1.8492   -1.0644    1.2300 C   0  0  1  0  0  0  0  0  0  0  0  0
    1.7640   -0.5057    2.4866 O   0  0  0  0  0  0  0  0  0  0  0  0
    0.5192    1.4106    0.9025 H   0  0  0  0  0  0  0  0  0  0  0  0
    1.7355    1.2456   -0.3716 H   0  0  0  0  0  0  0  0  0  0  0  0
    0.0166    1.1379   -0.7768 H   0  0  0  0  0  0  0  0  0  0  0  0
   -0.1891   -0.9613    0.5564 H   0  0  0  0  0  0  0  0  0  0  0  0
    0.5099   -2.1769   -1.3598 H   0  0  0  0  0  0  0  0  0  0  0  0
    1.5584   -0.8473   -1.8547 H   0  0  0  0  0  0  0  0  0  0  0  0
    3.0643   -2.9045   -1.0120 H   0  0  0  0  0  0  0  0  0  0  0  0
    1.6757   -3.4658    1.4682 H   0  0  0  0  0  0  0  0  0  0  0  0
    4.0291   -0.5172    0.3112 H   0  0  0  0  0  0  0  0  0  0  0  0
    2.5005   -0.8821    2.9903 H   0  0  0  0  0  0  0  0  0  0  0  0
  1  2  1  0  0  0  0
  1 10  1  0  0  0  0
  2 13  1  1  0  0  0
  2  8  1  0  0  0  0
  3  4  1  0  0  0  0
  3  2  1  0  0  0  0
  4 16  1  6  0  0  0
  4  7  1  0  0  0  0
  4  5  1  0  0  0  0
  5  8  1  0  0  0  0
  5  6  1  0  0  0  0
  5 17  1  1  0  0  0
  7 18  1  6  0  0  0
  7  8  1  0  0  0  0
  7  6  1  0  0  0  0
  8  9  1  1  0  0  0
  9 19  1  0  0  0  0
 11  1  1  0  0  0  0
 12  1  1  0  0  0  0
 14  3  1  0  0  0  0
 15  3  1  0  0  0  0
M TOR 0 0 1 2 3
M TOR 1 0 1 2 13
M TOR 2 0 1 2 14
M TOR 3 0 1 7 4
M TOR 4 0 1 7 6
M TOR 5 0 1 7 8
M TOR 6 1 2 3 4
M TOR 7 1 2 3 6
M TOR 8 1 2 3 15
M TOR 9 1 7 4 3
M TOR 10 1 7 4 5
M TOR 11 1 7 4 16
M TOR 12 1 7 6 3
M TOR 13 1 7 6 5
M TOR 14 1 7 6 17
M TOR 15 1 7 8 18
M TOR 16 2 1 0 9
M TOR 17 2 1 0 10
M TOR 18 2 1 0 11
M TOR 19 2 1 7 4
M TOR 20 2 1 7 6
M TOR 21 2 1 7 8
M TOR 22 2 3 4 5
M TOR 23 2 3 4 7
M TOR 24 2 3 4 16
M TOR 25 2 3 6 5
M TOR 26 2 3 6 7
M TOR 27 2 3 6 17
M TOR 28 3 2 1 7
M TOR 29 3 2 1 12
M TOR 30 3 4 5 6
M TOR 31 3 4 7 6
M TOR 32 3 4 7 8
M TOR 33 3 6 7 8
M TOR 34 4 3 2 13
M TOR 35 4 3 2 14
M TOR 36 4 3 6 17
M TOR 37 4 5 6 7
M TOR 38 4 5 6 17
M TOR 39 4 7 1 12
M TOR 40 4 7 6 17
M TOR 41 4 7 8 18
M TOR 42 5 4 3 15
M TOR 43 5 4 7 8
M TOR 44 5 6 3 15
M TOR 45 5 6 7 8
M TOR 46 6 3 2 13
M TOR 47 6 3 2 14
M TOR 48 6 3 4 16
M TOR 49 6 5 4 16
M TOR 50 6 7 1 12
M TOR 51 6 7 4 16
M TOR 52 6 7 8 18
M TOR 53 7 1 0 9
M TOR 54 7 1 0 10
M TOR 55 7 1 0 11
M TOR 56 7 1 2 13
M TOR 57 7 1 2 14
M TOR 58 7 4 3 15
M TOR 59 7 6 3 15
M TOR 60 8 7 1 12
M TOR 61 8 7 4 16
M TOR 62 8 7 6 17
M  END
$$$$
