
     RDKit          3D

 19 20  0  0  0  0  0  0  0  0999 V2000
   -0.1043    1.4424    0.1508 O   0  0  0  0  0  0  0  0  0  0  0  0
    0.0034    0.0347    0.0425 C   0  0  0  0  0  0  0  0  0  0  0  0
   -1.4115   -0.5840    0.0888 C   0  0  0  0  0  0  0  0  0  0  0  0
   -1.1415   -2.0045    0.6064 C   0  0  0  0  0  0  0  0  0  0  0  0
   -2.1967   -2.6807    1.2686 O   0  0  0  0  0  0  0  0  0  0  0  0
   -1.7227   -3.1261    2.5457 C   0  0  0  0  0  0  0  0  0  0  0  0
   -0.4306   -2.3749    2.7780 C   0  0  0  0  0  0  0  0  0  0  0  0
   -0.0937   -1.7481    1.6584 C   0  0  0  0  0  0  0  0  0  0  0  0
    0.8089   -0.6349    1.2188 C   0  0  0  0  0  0  0  0  0  0  0  0
    0.7593    1.8262   -0.0306 H   0  0  0  0  0  0  0  0  0  0  0  0
    0.4833   -0.2326   -0.9111 H   0  0  0  0  0  0  0  0  0  0  0  0
   -2.0070   -0.0403    0.8298 H   0  0  0  0  0  0  0  0  0  0  0  0
   -1.9212   -0.5348   -0.8759 H   0  0  0  0  0  0  0  0  0  0  0  0
   -0.7610   -2.6324   -0.2200 H   0  0  0  0  0  0  0  0  0  0  0  0
   -2.4810   -2.8962    3.3070 H   0  0  0  0  0  0  0  0  0  0  0  0
   -1.5879   -4.2212    2.5418 H   0  0  0  0  0  0  0  0  0  0  0  0
    0.0637   -2.3343    3.7405 H   0  0  0  0  0  0  0  0  0  0  0  0
    1.7909   -0.9830    0.8780 H   0  0  0  0  0  0  0  0  0  0  0  0
    0.9756    0.0969    2.0150 H   0  0  0  0  0  0  0  0  0  0  0  0
  1  2  1  0
  2  3  1  0
  3  4  1  0
  4  5  1  0
  5  6  1  0
  6  7  1  0
  7  8  2  0
  8  9  1  0
  9  2  1  0
  8  4  1  0
  1 10  1  0
  2 11  1  0
  3 12  1  0
  3 13  1  0
  4 14  1  0
  6 15  1  0
  6 16  1  0
  7 17  1  0
  9 18  1  0
  9 19  1  0
M  END
$$$$
