
     RDKit          3D

 19 20  0  0  0  0  0  0  0  0999 V2000
   -2.0072    0.4929    4.8209 O   0  0  0  0  0  0  0  0  0  0  0  0
   -1.4261   -0.4681    3.9473 C   0  0  0  0  0  0  0  0  0  0  0  0
    0.1061   -0.6352    4.1153 C   0  0  0  0  0  0  0  0  0  0  0  0
    0.6568   -0.8258    2.6830 C   0  0  0  0  0  0  0  0  0  0  0  0
   -0.4300   -0.2129    1.8207 C   0  0  0  0  0  0  0  0  0  0  0  0
   -1.5508   -0.0108    2.5180 C   0  0  0  0  0  0  0  0  0  0  0  0
   -0.2459    0.0880    0.3896 C   0  0  0  0  0  0  0  0  0  0  0  0
    0.6375   -0.7043   -0.4881 C   0  0  0  0  0  0  0  0  0  0  0  0
    1.0498    0.5711   -0.0136 O   0  0  0  0  0  0  0  0  0  0  0  0
   -2.0209    0.1169    5.7065 H   0  0  0  0  0  0  0  0  0  0  0  0
   -1.9428   -1.4357    4.0766 H   0  0  0  0  0  0  0  0  0  0  0  0
    0.4800    0.3030    4.5372 H   0  0  0  0  0  0  0  0  0  0  0  0
    0.3817   -1.4471    4.7941 H   0  0  0  0  0  0  0  0  0  0  0  0
    1.6288   -0.3511    2.5204 H   0  0  0  0  0  0  0  0  0  0  0  0
    0.7831   -1.8911    2.4446 H   0  0  0  0  0  0  0  0  0  0  0  0
   -2.4755    0.4010    2.1295 H   0  0  0  0  0  0  0  0  0  0  0  0
   -1.0758    0.6118   -0.0849 H   0  0  0  0  0  0  0  0  0  0  0  0
    1.1815   -1.5553   -0.0812 H   0  0  0  0  0  0  0  0  0  0  0  0
    0.4120   -0.7630   -1.5525 H   0  0  0  0  0  0  0  0  0  0  0  0
  1  2  1  0
  2  3  1  0
  3  4  1  0
  4  5  1  0
  5  6  2  0
  5  7  1  0
  7  8  1  0
  8  9  1  0
  6  2  1  0
  9  7  1  0
  1 10  1  0
  2 11  1  0
  3 12  1  0
  3 13  1  0
  4 14  1  0
  4 15  1  0
  6 16  1  0
  7 17  1  0
  8 18  1  0
  8 19  1  0
M  END
$$$$
