gdb 239	3.0907456	1.8707414	1.5985011	2.0579	73.61	-0.23286	0.08858	0.32144	906.1354	0.16084	-422.545764	-422.539324	-422.53838	-422.576174	27.115
 OpenBabel02181911403D

 19 21  0  0  1  0  0  0  0  0999 V2000
    0.6966    1.3277   -1.1420 C   0  0  0  0  0  0  0  0  0  0  0  0
    0.2171    1.4019    0.3270 C   0  0  2  0  0  0  0  0  0  0  0  0
    1.4330    1.5830    1.0590 O   0  0  0  0  0  0  0  0  0  0  0  0
    2.2878    0.5544    0.4887 C   0  0  1  0  0  0  0  0  0  0  0  0
    2.5921   -0.4992    1.5609 C   0  0  0  0  0  0  0  0  0  0  0  0
    1.4236   -1.4901    1.6694 C   0  0  0  0  0  0  0  0  0  0  0  0
    0.1615   -0.8617    1.4662 O   0  0  0  0  0  0  0  0  0  0  0  0
    0.0755   -0.1473    0.2645 C   0  0  2  0  0  0  0  0  0  0  0  0
    1.3581    0.0231   -0.6183 C   0  0  1  0  0  0  0  0  0  0  0  0
   -0.1001    1.1408   -1.8644 H   0  0  0  0  0  0  0  0  0  0  0  0
    1.3521    2.1328   -1.4782 H   0  0  0  0  0  0  0  0  0  0  0  0
   -0.5511    2.0767    0.6990 H   0  0  0  0  0  0  0  0  0  0  0  0
    3.2010    1.0255    0.1111 H   0  0  0  0  0  0  0  0  0  0  0  0
    3.5123   -1.0436    1.3176 H   0  0  0  0  0  0  0  0  0  0  0  0
    2.7554    0.0254    2.5068 H   0  0  0  0  0  0  0  0  0  0  0  0
    1.5532   -2.3020    0.9366 H   0  0  0  0  0  0  0  0  0  0  0  0
    1.3737   -1.9489    2.6598 H   0  0  0  0  0  0  0  0  0  0  0  0
   -0.7981   -0.4742   -0.3081 H   0  0  0  0  0  0  0  0  0  0  0  0
    1.7408   -0.7584   -1.2731 H   0  0  0  0  0  0  0  0  0  0  0  0
  1  9  1  0  0  0  0
  1  2  1  0  0  0  0
  2 12  1  1  0  0  0
  2  3  1  0  0  0  0
  4 13  1  6  0  0  0
  4  3  1  0  0  0  0
  4  5  1  0  0  0  0
  5  6  1  0  0  0  0
  5 15  1  0  0  0  0
  6 17  1  0  0  0  0
  7  6  1  0  0  0  0
  8 18  1  6  0  0  0
  8  2  1  0  0  0  0
  8  7  1  0  0  0  0
  9 19  1  6  0  0  0
  9  8  1  0  0  0  0
  9  4  1  0  0  0  0
 10  1  1  0  0  0  0
 11  1  1  0  0  0  0
 14  5  1  0  0  0  0
 16  6  1  0  0  0  0
M TOR 0 0 1 2 3
M TOR 1 0 1 7 6
M TOR 2 0 1 7 8
M TOR 3 0 1 7 17
M TOR 4 0 8 3 2
M TOR 5 0 8 3 4
M TOR 6 0 8 3 12
M TOR 7 0 8 7 6
M TOR 8 0 8 7 17
M TOR 9 1 0 8 3
M TOR 10 1 0 8 18
M TOR 11 1 2 3 4
M TOR 12 1 2 3 8
M TOR 13 1 2 3 12
M TOR 14 1 7 6 5
M TOR 15 1 7 8 3
M TOR 16 1 7 8 18
M TOR 17 2 1 0 8
M TOR 18 2 1 0 9
M TOR 19 2 1 0 10
M TOR 20 2 1 7 6
M TOR 21 2 1 7 8
M TOR 22 2 1 7 17
M TOR 23 2 3 4 5
M TOR 24 2 3 4 13
M TOR 25 2 3 4 14
M TOR 26 2 3 8 7
M TOR 27 2 3 8 18
M TOR 28 3 2 1 7
M TOR 29 3 2 1 11
M TOR 30 3 4 5 6
M TOR 31 3 4 5 15
M TOR 32 3 4 5 16
M TOR 33 3 8 0 9
M TOR 34 3 8 0 10
M TOR 35 3 8 7 6
M TOR 36 3 8 7 17
M TOR 37 4 3 8 7
M TOR 38 4 3 8 18
M TOR 39 4 5 6 7
M TOR 40 5 4 3 8
M TOR 41 5 4 3 12
M TOR 42 5 6 7 8
M TOR 43 5 6 7 17
M TOR 44 6 5 4 13
M TOR 45 6 5 4 14
M TOR 46 6 7 1 11
M TOR 47 6 7 8 18
M TOR 48 7 1 0 9
M TOR 49 7 1 0 10
M TOR 50 7 6 5 15
M TOR 51 7 6 5 16
M TOR 52 7 8 0 9
M TOR 53 7 8 0 10
M TOR 54 7 8 3 12
M TOR 55 8 0 1 11
M TOR 56 8 3 4 13
M TOR 57 8 3 4 14
M TOR 58 8 7 1 11
M  END
$$$$
