
     RDKit          3D

 19 21  0  0  0  0  0  0  0  0999 V2000
   -1.9868    0.3092   -2.9588 O   0  0  0  0  0  0  0  0  0  0  0  0
   -1.1008   -0.4219   -2.1687 C   0  0  0  0  0  0  0  0  0  0  0  0
   -1.1473   -1.9663   -2.1921 C   0  0  0  0  0  0  0  0  0  0  0  0
   -0.9320   -1.9949   -0.6479 C   0  0  0  0  0  0  0  0  0  0  0  0
   -1.0656   -0.4462   -0.5738 C   0  0  0  0  0  0  0  0  0  0  0  0
    0.2792    0.2653   -0.6458 C   0  0  0  0  0  0  0  0  0  0  0  0
    0.8403    1.2805    0.2451 C   0  0  0  0  0  0  0  0  0  0  0  0
    1.3800   -0.0487    0.1926 O   0  0  0  0  0  0  0  0  0  0  0  0
    0.3208    0.1989   -2.1791 C   0  0  0  0  0  0  0  0  0  0  0  0
   -2.8593   -0.0928   -2.8898 H   0  0  0  0  0  0  0  0  0  0  0  0
   -2.1431   -2.3295   -2.4707 H   0  0  0  0  0  0  0  0  0  0  0  0
   -0.4119   -2.4737   -2.8233 H   0  0  0  0  0  0  0  0  0  0  0  0
   -1.7041   -2.5374   -0.0996 H   0  0  0  0  0  0  0  0  0  0  0  0
    0.0427   -2.3624   -0.3203 H   0  0  0  0  0  0  0  0  0  0  0  0
   -1.8426   -0.0334    0.0710 H   0  0  0  0  0  0  0  0  0  0  0  0
    1.4831    2.0618   -0.1599 H   0  0  0  0  0  0  0  0  0  0  0  0
    0.3237    1.5375    1.1695 H   0  0  0  0  0  0  0  0  0  0  0  0
    0.3392    1.1728   -2.6734 H   0  0  0  0  0  0  0  0  0  0  0  0
    1.1104   -0.4336   -2.5936 H   0  0  0  0  0  0  0  0  0  0  0  0
  1  2  1  0
  2  3  1  0
  3  4  1  0
  4  5  1  0
  5  6  1  0
  6  7  1  0
  7  8  1  0
  6  9  1  0
  5  2  1  0
  8  6  1  0
  9  2  1  0
  1 10  1  0
  3 11  1  0
  3 12  1  0
  4 13  1  0
  4 14  1  0
  5 15  1  0
  7 16  1  0
  7 17  1  0
  9 18  1  0
  9 19  1  0
M  END
$$$$
