gdb 3823	2.4037877	1.5963887	1.1959585	1.8494	75.92	-0.24675	0.00866	0.25540999999999997	1083.9235	0.157309	-422.567062	-422.558859	-422.557914	-422.599369	32.557
 OpenBabel02181911413D

 19 20  0  0  1  0  0  0  0  0999 V2000
    0.1761   -0.1976    0.2669 O   0  0  0  0  0  0  0  0  0  0  0  0
   -0.9458    0.4327    0.8336 C   0  0  1  0  0  0  0  0  0  0  0  0
   -1.1885    0.3095    2.3626 C   0  0  0  0  0  0  0  0  0  0  0  0
   -1.5667    1.8065    2.3935 C   0  0  2  0  0  0  0  0  0  0  0  0
   -0.9976    2.4692    3.5051 O   0  0  0  0  0  0  0  0  0  0  0  0
   -3.0172    2.1565    2.1697 C   0  0  0  0  0  0  0  0  0  0  0  0
   -3.2378    2.6813    0.9624 C   0  0  0  0  0  0  0  0  0  0  0  0
   -1.9906    2.7463    0.1038 C   0  0  0  0  0  0  0  0  0  0  0  0
   -0.9615    1.9890    0.9541 C   0  0  2  0  0  0  0  0  0  0  0  0
    0.9510    0.0600    0.7775 H   0  0  0  0  0  0  0  0  0  0  0  0
   -1.8029    0.0765    0.2545 H   0  0  0  0  0  0  0  0  0  0  0  0
   -1.9206   -0.4211    2.7142 H   0  0  0  0  0  0  0  0  0  0  0  0
   -0.2468    0.1613    2.9022 H   0  0  0  0  0  0  0  0  0  0  0  0
   -1.2923    3.3866    3.4810 H   0  0  0  0  0  0  0  0  0  0  0  0
   -3.7623    2.0175    2.9464 H   0  0  0  0  0  0  0  0  0  0  0  0
   -4.2030    3.0260    0.6049 H   0  0  0  0  0  0  0  0  0  0  0  0
   -2.1413    2.2694   -0.8732 H   0  0  0  0  0  0  0  0  0  0  0  0
   -1.7061    3.7863   -0.1057 H   0  0  0  0  0  0  0  0  0  0  0  0
    0.0481    2.4068    0.9463 H   0  0  0  0  0  0  0  0  0  0  0  0
  1 10  1  0  0  0  0
  1  2  1  0  0  0  0
  2 11  1  6  0  0  0
  2  9  1  0  0  0  0
  2  3  1  0  0  0  0
  3  4  1  0  0  0  0
  3 12  1  0  0  0  0
  3 13  1  0  0  0  0
  4  5  1  1  0  0  0
  6  4  1  0  0  0  0
  6 15  1  0  0  0  0
  7  6  2  0  0  0  0
  8  9  1  0  0  0  0
  8  7  1  0  0  0  0
  9 19  1  6  0  0  0
  9  4  1  0  0  0  0
 14  5  1  0  0  0  0
 16  7  1  0  0  0  0
 17  8  1  0  0  0  0
 18  8  1  0  0  0  0
M TOR 0 0 1 2 3
M TOR 1 0 1 2 11
M TOR 2 0 1 2 12
M TOR 3 0 1 8 3
M TOR 4 0 1 8 7
M TOR 5 0 1 8 18
M TOR 6 1 2 3 4
M TOR 7 1 2 3 5
M TOR 8 1 2 3 8
M TOR 9 1 8 3 4
M TOR 10 1 8 3 5
M TOR 11 1 8 7 6
M TOR 12 1 8 7 16
M TOR 13 1 8 7 17
M TOR 14 2 1 0 9
M TOR 15 2 1 8 7
M TOR 16 2 1 8 18
M TOR 17 2 3 4 13
M TOR 18 2 3 5 6
M TOR 19 2 3 5 14
M TOR 20 2 3 8 7
M TOR 21 2 3 8 18
M TOR 22 3 2 1 10
M TOR 23 3 5 6 7
M TOR 24 3 5 6 15
M TOR 25 3 8 1 10
M TOR 26 3 8 7 6
M TOR 27 3 8 7 16
M TOR 28 3 8 7 17
M TOR 29 4 3 2 11
M TOR 30 4 3 2 12
M TOR 31 4 3 5 6
M TOR 32 4 3 5 14
M TOR 33 4 3 8 7
M TOR 34 4 3 8 18
M TOR 35 5 3 2 11
M TOR 36 5 3 2 12
M TOR 37 5 3 4 13
M TOR 38 5 3 8 7
M TOR 39 5 3 8 18
M TOR 40 5 6 7 8
M TOR 41 5 6 7 16
M TOR 42 5 6 7 17
M TOR 43 6 5 3 8
M TOR 44 6 7 8 18
M TOR 45 7 6 5 14
M TOR 46 7 8 1 10
M TOR 47 8 1 0 9
M TOR 48 8 1 2 11
M TOR 49 8 1 2 12
M TOR 50 8 3 2 11
M TOR 51 8 3 2 12
M TOR 52 8 3 4 13
M TOR 53 8 3 5 14
M TOR 54 8 7 6 15
M  END
$$$$
