
     RDKit          3D

 19 21  0  0  0  0  0  0  0  0999 V2000
    0.9679   -0.2608    1.1667 C   0  0  0  0  0  0  0  0  0  0  0  0
    0.7883    0.3269   -0.2401 C   0  0  0  0  0  0  0  0  0  0  0  0
    1.4024   -0.5294   -1.3023 C   0  0  0  0  0  0  0  0  0  0  0  0
    0.9399   -1.9157   -1.8152 C   0  0  0  0  0  0  0  0  0  0  0  0
    1.5993   -1.5522   -3.1661 C   0  0  0  0  0  0  0  0  0  0  0  0
    2.1648   -2.3611   -4.2409 C   0  0  0  0  0  0  0  0  0  0  0  0
    0.9066   -1.6747   -4.3921 O   0  0  0  0  0  0  0  0  0  0  0  0
    2.0299   -0.2076   -2.6011 C   0  0  0  0  0  0  0  0  0  0  0  0
    2.8339   -0.5160   -1.4485 O   0  0  0  0  0  0  0  0  0  0  0  0
    0.4949   -1.2448    1.2501 H   0  0  0  0  0  0  0  0  0  0  0  0
    2.0295   -0.3763    1.4043 H   0  0  0  0  0  0  0  0  0  0  0  0
    0.5181    0.3910    1.9210 H   0  0  0  0  0  0  0  0  0  0  0  0
   -0.2790    0.4525   -0.4609 H   0  0  0  0  0  0  0  0  0  0  0  0
    1.2463    1.3209   -0.2923 H   0  0  0  0  0  0  0  0  0  0  0  0
    1.3335   -2.7773   -1.2717 H   0  0  0  0  0  0  0  0  0  0  0  0
   -0.1448   -1.9997   -1.9265 H   0  0  0  0  0  0  0  0  0  0  0  0
    2.9837   -1.9714   -4.8436 H   0  0  0  0  0  0  0  0  0  0  0  0
    2.0952   -3.4466   -4.1933 H   0  0  0  0  0  0  0  0  0  0  0  0
    2.2009    0.7345   -3.1098 H   0  0  0  0  0  0  0  0  0  0  0  0
  1  2  1  0
  2  3  1  0
  3  4  1  0
  4  5  1  0
  5  6  1  0
  6  7  1  0
  5  8  1  0
  8  9  1  0
  8  3  1  0
  9  3  1  0
  7  5  1  0
  1 10  1  0
  1 11  1  0
  1 12  1  0
  2 13  1  0
  2 14  1  0
  4 15  1  0
  4 16  1  0
  6 17  1  0
  6 18  1  0
  8 19  1  0
M  END
$$$$
