
     RDKit          3D

 19 19  0  0  0  0  0  0  0  0999 V2000
   -0.0611   -2.5224    0.3543 C   0  0  0  0  0  0  0  0  0  0  0  0
   -0.8090   -1.2764   -0.1268 C   0  0  0  0  0  0  0  0  0  0  0  0
   -1.4619   -1.4935   -1.4780 C   0  0  0  0  0  0  0  0  0  0  0  0
   -2.3440   -0.6448   -1.9969 C   0  0  0  0  0  0  0  0  0  0  0  0
   -2.6905    0.6443   -1.2957 C   0  0  0  0  0  0  0  0  0  0  0  0
   -1.4824    1.5730   -1.1740 C   0  0  0  0  0  0  0  0  0  0  0  0
   -0.4086    1.1819   -0.3024 O   0  0  0  0  0  0  0  0  0  0  0  0
    0.1188   -0.0542   -0.1021 C   0  0  0  0  0  0  0  0  0  0  0  0
    1.2772   -0.1308    0.2060 O   0  0  0  0  0  0  0  0  0  0  0  0
    0.3583   -2.3707    1.3502 H   0  0  0  0  0  0  0  0  0  0  0  0
   -0.7432   -3.3778    0.3837 H   0  0  0  0  0  0  0  0  0  0  0  0
    0.7670   -2.7594   -0.3188 H   0  0  0  0  0  0  0  0  0  0  0  0
   -1.6068   -1.0402    0.5939 H   0  0  0  0  0  0  0  0  0  0  0  0
   -1.1857   -2.4015   -2.0073 H   0  0  0  0  0  0  0  0  0  0  0  0
   -2.8045   -0.8503   -2.9586 H   0  0  0  0  0  0  0  0  0  0  0  0
   -3.4558    1.1947   -1.8528 H   0  0  0  0  0  0  0  0  0  0  0  0
   -3.1099    0.4529   -0.2981 H   0  0  0  0  0  0  0  0  0  0  0  0
   -1.0522    1.7383   -2.1698 H   0  0  0  0  0  0  0  0  0  0  0  0
   -1.7956    2.5433   -0.7771 H   0  0  0  0  0  0  0  0  0  0  0  0
  1  2  1  0
  2  3  1  0
  3  4  2  0
  4  5  1  0
  5  6  1  0
  6  7  1  0
  7  8  1  0
  8  9  2  0
  8  2  1  0
  1 10  1  0
  1 11  1  0
  1 12  1  0
  2 13  1  0
  3 14  1  0
  4 15  1  0
  5 16  1  0
  5 17  1  0
  6 18  1  0
  6 19  1  0
M  END
$$$$
