
     RDKit          3D

 19 21  0  0  0  0  0  0  0  0999 V2000
    0.3442    0.2943    0.1872 C   0  0  0  0  0  0  0  0  0  0  0  0
    1.4963   -0.5994   -0.1959 C   0  0  0  0  0  0  0  0  0  0  0  0
    1.5770   -1.2590   -1.5506 C   0  0  0  0  0  0  0  0  0  0  0  0
    2.5562   -0.1734   -1.1756 C   0  0  0  0  0  0  0  0  0  0  0  0
    3.8637   -0.5790   -0.8662 O   0  0  0  0  0  0  0  0  0  0  0  0
    4.1901   -0.3504    0.4785 C   0  0  0  0  0  0  0  0  0  0  0  0
    4.4326   -1.5684    1.3305 C   0  0  0  0  0  0  0  0  0  0  0  0
    3.1417   -0.8018    1.4574 C   0  0  0  0  0  0  0  0  0  0  0  0
    2.0076   -1.3779    0.8673 O   0  0  0  0  0  0  0  0  0  0  0  0
    0.6392    1.0010    0.9706 H   0  0  0  0  0  0  0  0  0  0  0  0
   -0.0059    0.8705   -0.6747 H   0  0  0  0  0  0  0  0  0  0  0  0
   -0.4944   -0.3009    0.5631 H   0  0  0  0  0  0  0  0  0  0  0  0
    1.9701   -2.2686   -1.5741 H   0  0  0  0  0  0  0  0  0  0  0  0
    0.8120   -1.0334   -2.2859 H   0  0  0  0  0  0  0  0  0  0  0  0
    2.4880    0.8013   -1.6562 H   0  0  0  0  0  0  0  0  0  0  0  0
    4.7579    0.5599    0.6603 H   0  0  0  0  0  0  0  0  0  0  0  0
    4.3742   -2.5257    0.8258 H   0  0  0  0  0  0  0  0  0  0  0  0
    5.1552   -1.5011    2.1363 H   0  0  0  0  0  0  0  0  0  0  0  0
    2.9458   -0.2236    2.3580 H   0  0  0  0  0  0  0  0  0  0  0  0
  1  2  1  0
  2  3  1  0
  3  4  1  0
  4  5  1  0
  5  6  1  0
  6  7  1  0
  7  8  1  0
  8  9  1  0
  4  2  1  0
  8  6  1  0
  9  2  1  0
  1 10  1  0
  1 11  1  0
  1 12  1  0
  3 13  1  0
  3 14  1  0
  4 15  1  0
  6 16  1  0
  7 17  1  0
  7 18  1  0
  8 19  1  0
M  END
$$$$
