
     RDKit          3D

 19 18  0  0  0  0  0  0  0  0999 V2000
    3.1503   -2.4790   -0.8741 C   0  0  0  0  0  0  0  0  0  0  0  0
    1.7209   -1.9096   -0.9191 C   0  0  0  0  0  0  0  0  0  0  0  0
    1.3324   -1.2676    0.4334 C   0  0  0  0  0  0  0  0  0  0  0  0
    0.0457   -0.6918    0.4182 O   0  0  0  0  0  0  0  0  0  0  0  0
    0.7344   -2.9296   -1.2774 C   0  0  0  0  0  0  0  0  0  0  0  0
   -0.1114   -3.7556   -1.5163 C   0  0  0  0  0  0  0  0  0  0  0  0
   -1.0676   -4.7947   -1.8733 C   0  0  0  0  0  0  0  0  0  0  0  0
   -0.4994   -5.7729   -2.9059 C   0  0  0  0  0  0  0  0  0  0  0  0
   -0.7191   -6.9526   -2.8943 O   0  0  0  0  0  0  0  0  0  0  0  0
    3.2324   -3.2664   -0.1187 H   0  0  0  0  0  0  0  0  0  0  0  0
    3.4320   -2.9068   -1.8393 H   0  0  0  0  0  0  0  0  0  0  0  0
    3.8652   -1.6880   -0.6269 H   0  0  0  0  0  0  0  0  0  0  0  0
    1.6784   -1.1124   -1.6732 H   0  0  0  0  0  0  0  0  0  0  0  0
    1.4335   -2.0245    1.2279 H   0  0  0  0  0  0  0  0  0  0  0  0
    2.0325   -0.4554    0.6543 H   0  0  0  0  0  0  0  0  0  0  0  0
   -0.5718   -1.3897    0.1687 H   0  0  0  0  0  0  0  0  0  0  0  0
   -1.4046   -5.3728   -1.0068 H   0  0  0  0  0  0  0  0  0  0  0  0
   -1.9652   -4.3465   -2.3272 H   0  0  0  0  0  0  0  0  0  0  0  0
    0.1303   -5.2956   -3.6877 H   0  0  0  0  0  0  0  0  0  0  0  0
  1  2  1  0
  2  3  1  0
  3  4  1  0
  2  5  1  0
  5  6  3  0
  6  7  1  0
  7  8  1  0
  8  9  2  0
  1 10  1  0
  1 11  1  0
  1 12  1  0
  2 13  1  0
  3 14  1  0
  3 15  1  0
  4 16  1  0
  7 17  1  0
  7 18  1  0
  8 19  1  0
M  END
$$$$
