gdb 2370	2.7511462	1.4689363	1.1653971	2.454	75.29	-0.23266	0.05995	0.29261000000000004	1105.6946	0.156225	-422.480687	-422.472239	-422.471295	-422.513792	31.254
 OpenBabel02181911413D

 19 21  0  0  1  0  0  0  0  0999 V2000
   -2.4361    1.5374   -1.5252 C   0  0  0  0  0  0  0  0  0  0  0  0
   -1.4143    2.1767   -0.6317 C   0  0  1  0  0  0  0  0  0  0  0  0
   -1.0679    3.6670   -0.5952 C   0  0  0  0  0  0  0  0  0  0  0  0
   -0.8624    3.6363    0.8442 O   0  0  0  0  0  0  0  0  0  0  0  0
   -1.2573    2.2621    0.8789 C   0  0  2  0  0  0  0  0  0  0  0  0
   -0.3057    1.4379    0.0819 C   0  0  0  0  0  0  0  0  0  0  0  0
    1.2141    1.5238    0.0079 C   0  0  0  0  0  0  0  0  0  0  0  0
    1.3137    0.0860    0.1521 O   0  0  0  0  0  0  0  0  0  0  0  0
   -0.1197   -0.0751    0.1686 C   0  0  0  0  0  0  0  0  0  0  0  0
   -2.6832    0.5260   -1.1880 H   0  0  0  0  0  0  0  0  0  0  0  0
   -3.3651    2.1176   -1.5435 H   0  0  0  0  0  0  0  0  0  0  0  0
   -2.0708    1.4575   -2.5562 H   0  0  0  0  0  0  0  0  0  0  0  0
   -0.1763    4.0018   -1.1390 H   0  0  0  0  0  0  0  0  0  0  0  0
   -1.9174    4.3133   -0.8461 H   0  0  0  0  0  0  0  0  0  0  0  0
   -1.8557    1.9185    1.7169 H   0  0  0  0  0  0  0  0  0  0  0  0
    1.6323    1.8659   -0.9485 H   0  0  0  0  0  0  0  0  0  0  0  0
    1.7013    2.0606    0.8298 H   0  0  0  0  0  0  0  0  0  0  0  0
   -0.4756   -0.6530   -0.6956 H   0  0  0  0  0  0  0  0  0  0  0  0
   -0.4725   -0.5588    1.0891 H   0  0  0  0  0  0  0  0  0  0  0  0
  1 10  1  0  0  0  0
  2  1  1  6  0  0  0
  2  3  1  0  0  0  0
  2  6  1  0  0  0  0
  2  5  1  0  0  0  0
  3  4  1  0  0  0  0
  4  5  1  0  0  0  0
  5 15  1  1  0  0  0
  6  9  1  0  0  0  0
  6  5  1  0  0  0  0
  7  6  1  0  0  0  0
  7  8  1  0  0  0  0
  7 17  1  0  0  0  0
  8  9  1  0  0  0  0
  9 19  1  0  0  0  0
 11  1  1  0  0  0  0
 12  1  1  0  0  0  0
 13  3  1  0  0  0  0
 14  3  1  0  0  0  0
 16  7  1  0  0  0  0
 18  9  1  0  0  0  0
M TOR 0 0 1 2 3
M TOR 1 0 1 2 12
M TOR 2 0 1 2 13
M TOR 3 0 1 4 3
M TOR 4 0 1 4 5
M TOR 5 0 1 4 14
M TOR 6 0 1 5 6
M TOR 7 0 1 5 8
M TOR 8 1 2 3 4
M TOR 9 1 4 5 6
M TOR 10 1 4 5 8
M TOR 11 1 5 4 3
M TOR 12 1 5 4 14
M TOR 13 1 5 6 7
M TOR 14 1 5 6 15
M TOR 15 1 5 6 16
M TOR 16 1 5 8 7
M TOR 17 1 5 8 17
M TOR 18 1 5 8 18
M TOR 19 2 1 0 9
M TOR 20 2 1 0 10
M TOR 21 2 1 0 11
M TOR 22 2 1 4 5
M TOR 23 2 1 4 14
M TOR 24 2 1 5 6
M TOR 25 2 1 5 8
M TOR 26 2 3 4 5
M TOR 27 2 3 4 14
M TOR 28 3 2 1 5
M TOR 29 3 4 5 6
M TOR 30 3 4 5 8
M TOR 31 4 1 0 9
M TOR 32 4 1 0 10
M TOR 33 4 1 0 11
M TOR 34 4 1 2 12
M TOR 35 4 1 2 13
M TOR 36 4 3 2 12
M TOR 37 4 3 2 13
M TOR 38 4 5 6 7
M TOR 39 4 5 6 15
M TOR 40 4 5 6 16
M TOR 41 4 5 8 7
M TOR 42 4 5 8 17
M TOR 43 4 5 8 18
M TOR 44 5 1 0 9
M TOR 45 5 1 0 10
M TOR 46 5 1 0 11
M TOR 47 5 1 2 12
M TOR 48 5 1 2 13
M TOR 49 5 6 7 8
M TOR 50 6 5 4 14
M TOR 51 6 5 8 17
M TOR 52 6 5 8 18
M TOR 53 6 7 8 17
M TOR 54 6 7 8 18
M TOR 55 8 5 4 14
M TOR 56 8 5 6 15
M TOR 57 8 5 6 16
M TOR 58 8 7 6 15
M TOR 59 8 7 6 16
M  END
$$$$
