
     RDKit          3D

 19 20  0  0  0  0  0  0  0  0999 V2000
    0.7479   -0.8198   -0.3989 O   0  0  0  0  0  0  0  0  0  0  0  0
   -0.0610   -0.0085   -0.0164 C   0  0  0  0  0  0  0  0  0  0  0  0
   -1.0462    0.6723   -0.8826 C   0  0  0  0  0  0  0  0  0  0  0  0
   -1.4552    2.0802   -0.4787 C   0  0  0  0  0  0  0  0  0  0  0  0
   -2.4190    0.9631   -0.2531 C   0  0  0  0  0  0  0  0  0  0  0  0
   -3.6632    0.8210   -1.1279 C   0  0  0  0  0  0  0  0  0  0  0  0
   -3.3397    0.2066   -2.4961 C   0  0  0  0  0  0  0  0  0  0  0  0
   -2.1587    0.7605   -3.0505 O   0  0  0  0  0  0  0  0  0  0  0  0
   -1.0070    0.3118   -2.3584 C   0  0  0  0  0  0  0  0  0  0  0  0
   -0.1161    0.2877    1.0587 H   0  0  0  0  0  0  0  0  0  0  0  0
   -0.9611    2.5275    0.3776 H   0  0  0  0  0  0  0  0  0  0  0  0
   -1.6555    2.7570   -1.3024 H   0  0  0  0  0  0  0  0  0  0  0  0
   -2.5323    0.6396    0.7776 H   0  0  0  0  0  0  0  0  0  0  0  0
   -4.4036    0.1928   -0.6219 H   0  0  0  0  0  0  0  0  0  0  0  0
   -4.1246    1.8049   -1.2669 H   0  0  0  0  0  0  0  0  0  0  0  0
   -3.2272   -0.8861   -2.4041 H   0  0  0  0  0  0  0  0  0  0  0  0
   -4.1436    0.4033   -3.2107 H   0  0  0  0  0  0  0  0  0  0  0  0
   -0.8965   -0.7786   -2.4578 H   0  0  0  0  0  0  0  0  0  0  0  0
   -0.1484    0.7796   -2.8486 H   0  0  0  0  0  0  0  0  0  0  0  0
  1  2  2  0
  2  3  1  0
  3  4  1  0
  4  5  1  0
  5  6  1  0
  6  7  1  0
  7  8  1  0
  8  9  1  0
  5  3  1  0
  9  3  1  0
  2 10  1  0
  4 11  1  0
  4 12  1  0
  5 13  1  0
  6 14  1  0
  6 15  1  0
  7 16  1  0
  7 17  1  0
  9 18  1  0
  9 19  1  0
M  END
$$$$
