gdb 3723	3.4473199	1.2168823	1.1398464	2.396	75.52	-0.23701	0.07377	0.31078	1137.3048	0.156778	-422.498438	-422.490309	-422.489365	-422.53114	31.307
 OpenBabel02181911413D

 19 21  0  0  1  0  0  0  0  0999 V2000
    0.6828    0.1488    0.8034 O   0  0  0  0  0  0  0  0  0  0  0  0
   -0.6936    0.3908    0.8433 C   0  0  2  0  0  0  0  0  0  0  0  0
   -1.4659    0.0938    2.1071 C   0  0  0  0  0  0  0  0  0  0  0  0
   -1.5734   -0.8143    0.9057 C   0  0  1  0  0  0  0  0  0  0  0  0
   -2.7939   -1.1060    0.0112 C   0  0  0  0  0  0  0  0  0  0  0  0
   -2.3159   -2.5765   -0.0824 C   0  0  2  0  0  0  0  0  0  0  0  0
   -2.8694   -3.4107    0.9547 O   0  0  0  0  0  0  0  0  0  0  0  0
   -1.6945   -3.2439    1.7851 C   0  0  0  0  0  0  0  0  0  0  0  0
   -1.0650   -2.2550    0.7901 C   0  0  2  0  0  0  0  0  0  0  0  0
    1.1197    0.8143    1.3449 H   0  0  0  0  0  0  0  0  0  0  0  0
   -1.0322    1.2252    0.2264 H   0  0  0  0  0  0  0  0  0  0  0  0
   -0.8956   -0.2726    2.9556 H   0  0  0  0  0  0  0  0  0  0  0  0
   -2.3123    0.7244    2.3613 H   0  0  0  0  0  0  0  0  0  0  0  0
   -3.7784   -0.9982    0.4736 H   0  0  0  0  0  0  0  0  0  0  0  0
   -2.7790   -0.5680   -0.9425 H   0  0  0  0  0  0  0  0  0  0  0  0
   -2.3069   -3.0690   -1.0580 H   0  0  0  0  0  0  0  0  0  0  0  0
   -1.9377   -2.8531    2.7808 H   0  0  0  0  0  0  0  0  0  0  0  0
   -1.1495   -4.1909    1.8920 H   0  0  0  0  0  0  0  0  0  0  0  0
   -0.0282   -2.3956    0.4916 H   0  0  0  0  0  0  0  0  0  0  0  0
  1  2  1  0  0  0  0
  1 10  1  0  0  0  0
  2 11  1  6  0  0  0
  2  4  1  0  0  0  0
  2  3  1  0  0  0  0
  3 13  1  0  0  0  0
  3 12  1  0  0  0  0
  4  5  1  6  0  0  0
  4  3  1  0  0  0  0
  5 14  1  0  0  0  0
  6 16  1  6  0  0  0
  6  5  1  0  0  0  0
  6  9  1  0  0  0  0
  6  7  1  0  0  0  0
  7  8  1  0  0  0  0
  8 18  1  0  0  0  0
  8 17  1  0  0  0  0
  9 19  1  6  0  0  0
  9  4  1  0  0  0  0
  9  8  1  0  0  0  0
 15  5  1  0  0  0  0
M TOR 0 0 1 2 3
M TOR 1 0 1 2 11
M TOR 2 0 1 2 12
M TOR 3 0 1 3 4
M TOR 4 0 1 3 8
M TOR 5 1 2 3 4
M TOR 6 1 2 3 8
M TOR 7 1 3 2 11
M TOR 8 1 3 2 12
M TOR 9 1 3 4 5
M TOR 10 1 3 4 13
M TOR 11 1 3 4 14
M TOR 12 1 3 8 5
M TOR 13 1 3 8 7
M TOR 14 1 3 8 18
M TOR 15 2 1 0 9
M TOR 16 2 3 1 10
M TOR 17 2 3 4 5
M TOR 18 2 3 4 13
M TOR 19 2 3 4 14
M TOR 20 2 3 8 5
M TOR 21 2 3 8 7
M TOR 22 2 3 8 18
M TOR 23 3 1 0 9
M TOR 24 3 4 5 6
M TOR 25 3 4 5 8
M TOR 26 3 4 5 15
M TOR 27 3 8 5 6
M TOR 28 3 8 5 15
M TOR 29 3 8 7 6
M TOR 30 3 8 7 16
M TOR 31 3 8 7 17
M TOR 32 4 3 1 10
M TOR 33 4 3 2 11
M TOR 34 4 3 2 12
M TOR 35 4 3 8 7
M TOR 36 4 3 8 18
M TOR 37 4 5 6 7
M TOR 38 4 5 8 7
M TOR 39 4 5 8 18
M TOR 40 5 6 7 8
M TOR 41 5 6 7 16
M TOR 42 5 6 7 17
M TOR 43 5 8 7 16
M TOR 44 5 8 7 17
M TOR 45 6 5 4 13
M TOR 46 6 5 4 14
M TOR 47 6 5 8 18
M TOR 48 6 7 8 18
M TOR 49 7 6 5 15
M TOR 50 7 8 5 15
M TOR 51 8 3 1 10
M TOR 52 8 3 2 11
M TOR 53 8 3 2 12
M TOR 54 8 3 4 13
M TOR 55 8 3 4 14
M TOR 56 8 5 4 13
M TOR 57 8 5 4 14
M  END
$$$$
