gdb 4618	3.8739567	0.6940033	0.6388769	1.2314	82.97	-0.25322	0.01489	0.26811	1736.9467	0.153187	-422.50872	-422.498029	-422.497085	-422.546091	37.074
 OpenBabel02181911413D

 19 19  0  0  1  0  0  0  0  0999 V2000
    3.9670    0.1928    2.5719 C   0  0  0  0  0  0  0  0  0  0  0  0
    4.6950    0.0120    1.2597 C   0  0  0  0  0  0  0  0  0  0  0  0
    6.0962    0.5808    1.1980 C   0  0  0  0  0  0  0  0  0  0  0  0
    4.5431   -1.2744    0.6491 O   0  0  0  0  0  0  0  0  0  0  0  0
    3.9356   -0.1446   -0.0083 C   0  0  1  0  0  0  0  0  0  0  0  0
    2.5014   -0.0964   -0.0837 C   0  0  0  0  0  0  0  0  0  0  0  0
    1.3024   -0.0322   -0.1962 C   0  0  0  0  0  0  0  0  0  0  0  0
   -0.1563    0.0304   -0.2763 C   0  0  0  0  0  0  0  0  0  0  0  0
   -0.7500    0.8397    0.7290 O   0  0  0  0  0  0  0  0  0  0  0  0
    2.9647   -0.2353    2.5233 H   0  0  0  0  0  0  0  0  0  0  0  0
    4.5199   -0.3022    3.3775 H   0  0  0  0  0  0  0  0  0  0  0  0
    3.8840    1.2551    2.8241 H   0  0  0  0  0  0  0  0  0  0  0  0
    6.7237    0.1227    1.9703 H   0  0  0  0  0  0  0  0  0  0  0  0
    6.5548    0.3848    0.2259 H   0  0  0  0  0  0  0  0  0  0  0  0
    6.0859    1.6619    1.3715 H   0  0  0  0  0  0  0  0  0  0  0  0
    4.4454    0.1492   -0.9265 H   0  0  0  0  0  0  0  0  0  0  0  0
   -0.4588    0.4733   -1.2316 H   0  0  0  0  0  0  0  0  0  0  0  0
   -0.5614   -0.9941   -0.2602 H   0  0  0  0  0  0  0  0  0  0  0  0
   -0.4318    0.5221    1.5805 H   0  0  0  0  0  0  0  0  0  0  0  0
  1 12  1  0  0  0  0
  1 11  1  0  0  0  0
  2  1  1  0  0  0  0
  3  2  1  0  0  0  0
  3 15  1  0  0  0  0
  3 13  1  0  0  0  0
  4  2  1  0  0  0  0
  5 16  1  6  0  0  0
  5  4  1  0  0  0  0
  5  2  1  0  0  0  0
  6  5  1  0  0  0  0
  7  6  3  0  0  0  0
  8 18  1  0  0  0  0
  8  7  1  0  0  0  0
  8  9  1  0  0  0  0
  9 19  1  0  0  0  0
 10  1  1  0  0  0  0
 14  3  1  0  0  0  0
 17  8  1  0  0  0  0
M TOR 0 0 1 2 12
M TOR 1 0 1 2 13
M TOR 2 0 1 2 14
M TOR 3 0 1 3 4
M TOR 4 0 1 4 5
M TOR 5 0 1 4 15
M TOR 6 1 3 4 5
M TOR 7 1 3 4 15
M TOR 8 1 4 5 6
M TOR 9 2 1 0 9
M TOR 10 2 1 0 10
M TOR 11 2 1 0 11
M TOR 12 2 1 3 4
M TOR 13 2 1 4 5
M TOR 14 2 1 4 15
M TOR 15 3 1 0 9
M TOR 16 3 1 0 10
M TOR 17 3 1 0 11
M TOR 18 3 1 2 12
M TOR 19 3 1 2 13
M TOR 20 3 1 2 14
M TOR 21 3 4 5 6
M TOR 22 4 1 0 9
M TOR 23 4 1 0 10
M TOR 24 4 1 0 11
M TOR 25 4 1 2 12
M TOR 26 4 1 2 13
M TOR 27 4 1 2 14
M TOR 28 4 5 6 7
M TOR 29 5 6 7 8
M TOR 30 5 6 7 16
M TOR 31 5 6 7 17
M TOR 32 6 5 4 15
M TOR 33 6 7 8 18
M  END
$$$$
