gdb 3993	2.9045417	1.265401	0.9715985	2.0556	75.92	-0.23819	-0.02373	0.21446	1226.2731	0.15575	-422.5496	-422.540659	-422.539715	-422.583834	33.035
 OpenBabel02181911413D

 19 20  0  0  1  0  0  0  0  0999 V2000
   -1.0863    2.0020    1.1601 C   0  0  0  0  0  0  0  0  0  0  0  0
   -1.1366    1.0308   -0.0207 C   0  0  2  0  0  0  0  0  0  0  0  0
   -2.1611   -0.1421    0.0750 C   0  0  1  0  0  0  0  0  0  0  0  0
   -2.6480   -0.6874   -1.2980 C   0  0  2  0  0  0  0  0  0  0  0  0
   -3.9409   -1.2440   -1.3338 O   0  0  0  0  0  0  0  0  0  0  0  0
   -1.4645   -1.7032   -1.3170 C   0  0  0  0  0  0  0  0  0  0  0  0
   -0.9832   -1.1962    0.0805 C   0  0  1  0  0  0  0  0  0  0  0  0
   -0.0047   -0.0227    0.0067 C   0  0  0  0  0  0  0  0  0  0  0  0
    1.1889    0.0642    0.0546 O   0  0  0  0  0  0  0  0  0  0  0  0
   -1.0488    1.4657    2.1143 H   0  0  0  0  0  0  0  0  0  0  0  0
   -0.1944    2.6317    1.0956 H   0  0  0  0  0  0  0  0  0  0  0  0
   -1.9687    2.6491    1.1702 H   0  0  0  0  0  0  0  0  0  0  0  0
   -1.1882    1.5924   -0.9613 H   0  0  0  0  0  0  0  0  0  0  0  0
   -2.9101   -0.0704    0.8649 H   0  0  0  0  0  0  0  0  0  0  0  0
   -2.6353    0.0540   -2.1025 H   0  0  0  0  0  0  0  0  0  0  0  0
   -4.0049   -1.9090   -0.6394 H   0  0  0  0  0  0  0  0  0  0  0  0
   -1.8246   -2.7353   -1.2872 H   0  0  0  0  0  0  0  0  0  0  0  0
   -0.7464   -1.6176   -2.1365 H   0  0  0  0  0  0  0  0  0  0  0  0
   -0.7966   -1.9485    0.8480 H   0  0  0  0  0  0  0  0  0  0  0  0
  1 12  1  0  0  0  0
  1 10  1  0  0  0  0
  2 13  1  6  0  0  0
  2  8  1  0  0  0  0
  2  3  1  0  0  0  0
  2  1  1  0  0  0  0
  3  7  1  0  0  0  0
  3 14  1  1  0  0  0
  4 15  1  6  0  0  0
  4  3  1  0  0  0  0
  5  4  1  0  0  0  0
  5 16  1  0  0  0  0
  6  4  1  0  0  0  0
  6 17  1  0  0  0  0
  6  7  1  0  0  0  0
  7 19  1  1  0  0  0
  8  9  2  0  0  0  0
  8  7  1  0  0  0  0
 11  1  1  0  0  0  0
 18  6  1  0  0  0  0
M TOR 0 0 1 2 3
M TOR 1 0 1 2 6
M TOR 2 0 1 2 13
M TOR 3 0 1 7 6
M TOR 4 0 1 7 8
M TOR 5 1 2 3 4
M TOR 6 1 2 3 5
M TOR 7 1 2 3 14
M TOR 8 1 2 6 5
M TOR 9 1 2 6 7
M TOR 10 1 2 6 18
M TOR 11 1 7 6 5
M TOR 12 1 7 6 18
M TOR 13 2 1 0 9
M TOR 14 2 1 0 10
M TOR 15 2 1 0 11
M TOR 16 2 1 7 8
M TOR 17 2 3 4 15
M TOR 18 2 3 5 6
M TOR 19 2 3 5 16
M TOR 20 2 3 5 17
M TOR 21 2 6 5 16
M TOR 22 2 6 5 17
M TOR 23 2 6 7 8
M TOR 24 3 2 1 7
M TOR 25 3 2 1 12
M TOR 26 3 2 6 7
M TOR 27 3 2 6 18
M TOR 28 3 5 6 7
M TOR 29 3 5 6 18
M TOR 30 4 3 2 6
M TOR 31 4 3 2 13
M TOR 32 4 3 5 6
M TOR 33 4 3 5 16
M TOR 34 4 3 5 17
M TOR 35 5 3 2 13
M TOR 36 5 3 4 15
M TOR 37 5 6 2 13
M TOR 38 5 6 7 8
M TOR 39 6 2 1 12
M TOR 40 6 2 3 14
M TOR 41 6 5 3 14
M TOR 42 6 7 1 12
M TOR 43 7 1 0 9
M TOR 44 7 1 0 10
M TOR 45 7 1 0 11
M TOR 46 7 1 2 13
M TOR 47 7 6 2 13
M TOR 48 7 6 5 16
M TOR 49 7 6 5 17
M TOR 50 8 7 1 12
M TOR 51 8 7 6 18
M  END
$$$$
