
     RDKit          3D

 19 20  0  0  0  0  0  0  0  0999 V2000
    1.2670    0.1257    0.5504 O   0  0  0  0  0  0  0  0  0  0  0  0
    0.1171    0.0698    0.2274 C   0  0  0  0  0  0  0  0  0  0  0  0
   -0.8538   -1.0932   -0.0463 C   0  0  0  0  0  0  0  0  0  0  0  0
   -2.0204   -0.0529   -0.0179 C   0  0  0  0  0  0  0  0  0  0  0  0
   -0.9860    1.1180    0.0173 C   0  0  0  0  0  0  0  0  0  0  0  0
   -2.9701   -0.0761   -1.1926 C   0  0  0  0  0  0  0  0  0  0  0  0
   -4.1183   -1.1130   -1.1990 C   0  0  0  0  0  0  0  0  0  0  0  0
   -5.0368    0.1213   -1.2896 C   0  0  0  0  0  0  0  0  0  0  0  0
   -3.9149    1.0206   -1.1590 O   0  0  0  0  0  0  0  0  0  0  0  0
   -0.6866   -1.5327   -1.0371 H   0  0  0  0  0  0  0  0  0  0  0  0
   -0.8606   -1.8988    0.6917 H   0  0  0  0  0  0  0  0  0  0  0  0
   -2.5900   -0.1072    0.9139 H   0  0  0  0  0  0  0  0  0  0  0  0
   -0.8833    1.6350   -0.9437 H   0  0  0  0  0  0  0  0  0  0  0  0
   -1.0905    1.8713    0.8013 H   0  0  0  0  0  0  0  0  0  0  0  0
   -2.3932   -0.0572   -2.1313 H   0  0  0  0  0  0  0  0  0  0  0  0
   -4.1438   -1.8003   -2.0453 H   0  0  0  0  0  0  0  0  0  0  0  0
   -4.2092   -1.6814   -0.2709 H   0  0  0  0  0  0  0  0  0  0  0  0
   -5.5500    0.2480   -2.2513 H   0  0  0  0  0  0  0  0  0  0  0  0
   -5.7641    0.2542   -0.4807 H   0  0  0  0  0  0  0  0  0  0  0  0
  1  2  2  0
  2  3  1  0
  3  4  1  0
  4  5  1  0
  4  6  1  0
  6  7  1  0
  7  8  1  0
  8  9  1  0
  5  2  1  0
  9  6  1  0
  3 10  1  0
  3 11  1  0
  4 12  1  0
  5 13  1  0
  5 14  1  0
  6 15  1  0
  7 16  1  0
  7 17  1  0
  8 18  1  0
  8 19  1  0
M  END
$$$$
