
     RDKit          3D

 19 20  0  0  0  0  0  0  0  0999 V2000
    0.3791   -2.0283   -0.7809 C   0  0  0  0  0  0  0  0  0  0  0  0
    1.2229   -0.7683   -0.7320 C   0  0  0  0  0  0  0  0  0  0  0  0
    2.4261   -0.7982   -0.8699 O   0  0  0  0  0  0  0  0  0  0  0  0
    0.4744    0.5260   -0.4610 C   0  0  0  0  0  0  0  0  0  0  0  0
    1.2469    1.8250   -0.8672 C   0  0  0  0  0  0  0  0  0  0  0  0
    1.2869    2.2258    0.6082 C   0  0  0  0  0  0  0  0  0  0  0  0
   -0.0719    2.2637    1.0832 O   0  0  0  0  0  0  0  0  0  0  0  0
    0.5916    1.0000    1.0305 C   0  0  0  0  0  0  0  0  0  0  0  0
    0.6421    0.1640    2.2670 C   0  0  0  0  0  0  0  0  0  0  0  0
   -0.2700   -2.0961    0.0992 H   0  0  0  0  0  0  0  0  0  0  0  0
   -0.2817   -1.9931   -1.6554 H   0  0  0  0  0  0  0  0  0  0  0  0
    1.0198   -2.9086   -0.8438 H   0  0  0  0  0  0  0  0  0  0  0  0
   -0.5663    0.4535   -0.7870 H   0  0  0  0  0  0  0  0  0  0  0  0
    2.2326    1.5735   -1.2625 H   0  0  0  0  0  0  0  0  0  0  0  0
    0.7237    2.5157   -1.5317 H   0  0  0  0  0  0  0  0  0  0  0  0
    2.0049    2.8462    1.1322 H   0  0  0  0  0  0  0  0  0  0  0  0
   -0.3258   -0.3139    2.4578 H   0  0  0  0  0  0  0  0  0  0  0  0
    1.4005   -0.6199    2.1778 H   0  0  0  0  0  0  0  0  0  0  0  0
    0.8853    0.7891    3.1301 H   0  0  0  0  0  0  0  0  0  0  0  0
  1  2  1  0
  2  3  2  0
  2  4  1  0
  4  5  1  0
  5  6  1  0
  6  7  1  0
  7  8  1  0
  8  9  1  0
  8  4  1  0
  8  6  1  0
  1 10  1  0
  1 11  1  0
  1 12  1  0
  4 13  1  0
  5 14  1  0
  5 15  1  0
  6 16  1  0
  9 17  1  0
  9 18  1  0
  9 19  1  0
M  END
$$$$
