gdb 1942	2.323774	1.6621335	1.3194953	1.4445	75.3	-0.20192	0.06112	0.26304	1044.7349	0.154389	-422.484538	-422.475461	-422.474517	-422.517452	35.217
 OpenBabel02181911403D

 19 21  0  0  1  0  0  0  0  0999 V2000
   -0.0434   -0.3185   -0.1306 C   0  0  0  0  0  0  0  0  0  0  0  0
    1.4313   -0.1089    0.0591 C   0  0  2  0  0  0  0  0  0  0  0  0
    2.3035    0.6622   -0.8990 C   0  0  0  0  0  0  0  0  0  0  0  0
    2.6004   -0.7946   -0.6292 C   0  0  1  0  0  0  0  0  0  0  0  0
    3.2630   -1.0784    0.7546 C   0  0  1  0  0  0  0  0  0  0  0  0
    3.8416   -2.2993    1.0427 O   0  0  0  0  0  0  0  0  0  0  0  0
    3.5102    0.1723    1.5736 C   0  0  0  0  0  0  0  0  0  0  0  0
    2.1134   -0.3766    1.4483 C   0  0  1  0  0  0  0  0  0  0  0  0
    1.3899   -0.6576    2.5910 O   0  0  0  0  0  0  0  0  0  0  0  0
   -0.6265    0.4879    0.3293 H   0  0  0  0  0  0  0  0  0  0  0  0
   -0.2965   -0.3502   -1.1950 H   0  0  0  0  0  0  0  0  0  0  0  0
   -0.3822   -1.2618    0.3152 H   0  0  0  0  0  0  0  0  0  0  0  0
    1.8422    0.8539   -1.8651 H   0  0  0  0  0  0  0  0  0  0  0  0
    2.9683    1.4584   -0.5836 H   0  0  0  0  0  0  0  0  0  0  0  0
    2.5572   -1.5566   -1.3984 H   0  0  0  0  0  0  0  0  0  0  0  0
    4.7843   -2.2446    0.8478 H   0  0  0  0  0  0  0  0  0  0  0  0
    3.9275   -0.0704    2.5473 H   0  0  0  0  0  0  0  0  0  0  0  0
    3.8406    1.1250    1.1719 H   0  0  0  0  0  0  0  0  0  0  0  0
    0.9378   -1.4992    2.4651 H   0  0  0  0  0  0  0  0  0  0  0  0
  1 12  1  0  0  0  0
  1 10  1  0  0  0  0
  2  1  1  6  0  0  0
  2  8  1  0  0  0  0
  3  4  1  0  0  0  0
  3 14  1  0  0  0  0
  3  2  1  0  0  0  0
  4 15  1  6  0  0  0
  4  2  1  0  0  0  0
  4  5  1  0  0  0  0
  5  6  1  1  0  0  0
  5  8  1  0  0  0  0
  5  7  1  0  0  0  0
  7 17  1  0  0  0  0
  8  7  1  0  0  0  0
  8  9  1  1  0  0  0
 11  1  1  0  0  0  0
 13  3  1  0  0  0  0
 16  6  1  0  0  0  0
 18  7  1  0  0  0  0
 19  9  1  0  0  0  0
M TOR 0 0 1 2 3
M TOR 1 0 1 2 12
M TOR 2 0 1 2 13
M TOR 3 0 1 3 4
M TOR 4 0 1 3 14
M TOR 5 0 1 7 4
M TOR 6 0 1 7 6
M TOR 7 0 1 7 8
M TOR 8 1 2 3 4
M TOR 9 1 2 3 14
M TOR 10 1 3 2 12
M TOR 11 1 3 2 13
M TOR 12 1 3 4 5
M TOR 13 1 3 4 6
M TOR 14 1 3 4 7
M TOR 15 1 7 4 5
M TOR 16 1 7 4 6
M TOR 17 1 7 6 16
M TOR 18 1 7 6 17
M TOR 19 1 7 8 18
M TOR 20 2 1 0 9
M TOR 21 2 1 0 10
M TOR 22 2 1 0 11
M TOR 23 2 1 7 4
M TOR 24 2 1 7 6
M TOR 25 2 1 7 8
M TOR 26 2 3 1 7
M TOR 27 2 3 4 5
M TOR 28 2 3 4 6
M TOR 29 2 3 4 7
M TOR 30 3 1 0 9
M TOR 31 3 1 0 10
M TOR 32 3 1 0 11
M TOR 33 3 1 7 6
M TOR 34 3 1 7 8
M TOR 35 3 4 5 15
M TOR 36 3 4 6 7
M TOR 37 3 4 6 16
M TOR 38 3 4 6 17
M TOR 39 3 4 7 8
M TOR 40 4 3 2 12
M TOR 41 4 3 2 13
M TOR 42 4 6 7 8
M TOR 43 4 7 6 16
M TOR 44 4 7 6 17
M TOR 45 4 7 8 18
M TOR 46 5 4 3 14
M TOR 47 5 4 6 7
M TOR 48 5 4 6 16
M TOR 49 5 4 6 17
M TOR 50 5 4 7 8
M TOR 51 6 4 3 14
M TOR 52 6 4 5 15
M TOR 53 6 7 8 18
M TOR 54 7 1 0 9
M TOR 55 7 1 0 10
M TOR 56 7 1 0 11
M TOR 57 7 1 2 12
M TOR 58 7 1 2 13
M TOR 59 7 1 3 14
M TOR 60 7 4 3 14
M TOR 61 7 4 5 15
M TOR 62 8 7 6 16
M TOR 63 8 7 6 17
M  END
$$$$
