gdb 861	3.3341727	1.2533914	1.1021469	2.4357	75.25	-0.24568	-0.02805	0.21763000000000002	1134.5317	0.158433	-422.550349	-422.542616	-422.541671	-422.582994	29.691
 OpenBabel02181911403D

 19 20  0  0  1  0  0  0  0  0999 V2000
    1.3989   -0.0715   -0.8608 O   0  0  0  0  0  0  0  0  0  0  0  0
    0.5062    0.1441   -0.0828 C   0  0  0  0  0  0  0  0  0  0  0  0
    0.3598    1.4016    0.7465 C   0  0  1  0  0  0  0  0  0  0  0  0
   -0.9588    2.1267    0.3604 C   0  0  0  0  0  0  0  0  0  0  0  0
   -1.5236    2.8960    1.4143 O   0  0  0  0  0  0  0  0  0  0  0  0
   -1.2896    2.3624    2.7116 C   0  0  2  0  0  0  0  0  0  0  0  0
    0.2260    2.4092    3.0353 C   0  0  0  0  0  0  0  0  0  0  0  0
    0.3099    1.0649    2.2573 C   0  0  1  0  0  0  0  0  0  0  0  0
   -1.1652    0.8138    2.6999 C   0  0  0  0  0  0  0  0  0  0  0  0
   -0.3001   -0.6096    0.0856 H   0  0  0  0  0  0  0  0  0  0  0  0
    1.2313    2.0309    0.5417 H   0  0  0  0  0  0  0  0  0  0  0  0
   -0.7920    2.8120   -0.4744 H   0  0  0  0  0  0  0  0  0  0  0  0
   -1.6925    1.3779    0.0225 H   0  0  0  0  0  0  0  0  0  0  0  0
   -2.0045    2.8483    3.3775 H   0  0  0  0  0  0  0  0  0  0  0  0
    0.7852    3.2661    2.6520 H   0  0  0  0  0  0  0  0  0  0  0  0
    0.4246    2.2750    4.1019 H   0  0  0  0  0  0  0  0  0  0  0  0
    1.0782    0.3417    2.5400 H   0  0  0  0  0  0  0  0  0  0  0  0
   -1.8365    0.2381    2.0590 H   0  0  0  0  0  0  0  0  0  0  0  0
   -1.2107    0.4148    3.7157 H   0  0  0  0  0  0  0  0  0  0  0  0
  1  2  2  0  0  0  0
  2 10  1  0  0  0  0
  2  3  1  0  0  0  0
  3 11  1  6  0  0  0
  3  8  1  0  0  0  0
  4  3  1  0  0  0  0
  4  5  1  0  0  0  0
  5  6  1  0  0  0  0
  6  7  1  0  0  0  0
  6 14  1  1  0  0  0
  7 16  1  0  0  0  0
  8 17  1  1  0  0  0
  8  9  1  0  0  0  0
  8  7  1  0  0  0  0
  9  6  1  0  0  0  0
  9 19  1  0  0  0  0
 12  4  1  0  0  0  0
 13  4  1  0  0  0  0
 15  7  1  0  0  0  0
 18  9  1  0  0  0  0
M TOR 0 0 1 2 3
M TOR 1 0 1 2 7
M TOR 2 0 1 2 10
M TOR 3 1 2 3 4
M TOR 4 1 2 3 11
M TOR 5 1 2 3 12
M TOR 6 1 2 7 6
M TOR 7 1 2 7 8
M TOR 8 1 2 7 16
M TOR 9 2 3 4 5
M TOR 10 2 7 6 5
M TOR 11 2 7 6 14
M TOR 12 2 7 6 15
M TOR 13 2 7 8 5
M TOR 14 2 7 8 17
M TOR 15 2 7 8 18
M TOR 16 3 2 1 9
M TOR 17 3 2 7 6
M TOR 18 3 2 7 8
M TOR 19 3 2 7 16
M TOR 20 3 4 5 6
M TOR 21 3 4 5 8
M TOR 22 3 4 5 13
M TOR 23 4 3 2 7
M TOR 24 4 3 2 10
M TOR 25 4 5 6 7
M TOR 26 4 5 6 14
M TOR 27 4 5 6 15
M TOR 28 4 5 8 7
M TOR 29 4 5 8 17
M TOR 30 4 5 8 18
M TOR 31 5 4 3 11
M TOR 32 5 4 3 12
M TOR 33 5 6 7 8
M TOR 34 5 6 7 16
M TOR 35 5 8 7 16
M TOR 36 6 5 8 17
M TOR 37 6 5 8 18
M TOR 38 6 7 2 10
M TOR 39 6 7 8 17
M TOR 40 6 7 8 18
M TOR 41 7 2 1 9
M TOR 42 7 2 3 11
M TOR 43 7 2 3 12
M TOR 44 7 6 5 13
M TOR 45 7 8 5 13
M TOR 46 8 5 6 14
M TOR 47 8 5 6 15
M TOR 48 8 7 2 10
M TOR 49 8 7 6 14
M TOR 50 8 7 6 15
M  END
$$$$
