gdb 398	2.5204283	1.6256015	1.2824605	1.6185	74.86	-0.24686	0.06501	0.31187	1057.2087	0.156436	-422.501817	-422.493701	-422.492757	-422.534647	30.919
 OpenBabel02181911403D

 19 21  0  0  1  0  0  0  0  0999 V2000
   -0.4369   -1.0623   -2.4758 C   0  0  0  0  0  0  0  0  0  0  0  0
    0.6832   -1.7216   -1.8560 O   0  0  0  0  0  0  0  0  0  0  0  0
   -0.3013   -1.1469   -1.0251 C   0  0  2  0  0  0  0  0  0  0  0  0
   -1.0925   -1.9004    0.0351 C   0  0  0  0  0  0  0  0  0  0  0  0
   -0.8457   -0.8312    0.9753 O   0  0  0  0  0  0  0  0  0  0  0  0
   -0.0275   -0.0907    0.0476 C   0  0  0  0  0  0  0  0  0  0  0  0
   -0.3097    1.4070   -0.1878 C   0  0  0  0  0  0  0  0  0  0  0  0
    1.2261    1.6341   -0.2779 C   0  0  0  0  0  0  0  0  0  0  0  0
    1.4347    0.2536    0.4071 C   0  0  0  0  0  0  0  0  0  0  0  0
   -0.2012   -0.1332   -2.9927 H   0  0  0  0  0  0  0  0  0  0  0  0
   -1.1342   -1.7187   -2.9949 H   0  0  0  0  0  0  0  0  0  0  0  0
   -2.1621   -2.0465   -0.1559 H   0  0  0  0  0  0  0  0  0  0  0  0
   -0.6402   -2.8494    0.3476 H   0  0  0  0  0  0  0  0  0  0  0  0
   -0.9352    1.6787   -1.0422 H   0  0  0  0  0  0  0  0  0  0  0  0
   -0.7355    1.8486    0.7177 H   0  0  0  0  0  0  0  0  0  0  0  0
    1.5852    1.6375   -1.3102 H   0  0  0  0  0  0  0  0  0  0  0  0
    1.6287    2.5105    0.2327 H   0  0  0  0  0  0  0  0  0  0  0  0
    2.2080   -0.4083    0.0126 H   0  0  0  0  0  0  0  0  0  0  0  0
    1.5425    0.3419    1.4915 H   0  0  0  0  0  0  0  0  0  0  0  0
  1  2  1  0  0  0  0
  1  3  1  0  0  0  0
  3  2  1  1  0  0  0
  3  4  1  0  0  0  0
  3  6  1  0  0  0  0
  4 13  1  0  0  0  0
  4  5  1  0  0  0  0
  6  9  1  0  0  0  0
  6  5  1  0  0  0  0
  7  6  1  0  0  0  0
  7 15  1  0  0  0  0
  8  7  1  0  0  0  0
  8 17  1  0  0  0  0
  8  9  1  0  0  0  0
  9 19  1  0  0  0  0
 10  1  1  0  0  0  0
 11  1  1  0  0  0  0
 12  4  1  0  0  0  0
 14  7  1  0  0  0  0
 16  8  1  0  0  0  0
 18  9  1  0  0  0  0
M TOR 0 0 1 2 3
M TOR 1 0 1 2 5
M TOR 2 0 2 3 4
M TOR 3 0 2 3 11
M TOR 4 0 2 3 12
M TOR 5 0 2 5 4
M TOR 6 0 2 5 6
M TOR 7 0 2 5 8
M TOR 8 1 2 0 9
M TOR 9 1 2 0 10
M TOR 10 1 2 3 4
M TOR 11 1 2 3 11
M TOR 12 1 2 3 12
M TOR 13 1 2 5 4
M TOR 14 1 2 5 6
M TOR 15 1 2 5 8
M TOR 16 2 3 4 5
M TOR 17 2 5 6 7
M TOR 18 2 5 6 13
M TOR 19 2 5 6 14
M TOR 20 2 5 8 7
M TOR 21 2 5 8 17
M TOR 22 2 5 8 18
M TOR 23 3 2 0 9
M TOR 24 3 2 0 10
M TOR 25 3 2 5 6
M TOR 26 3 2 5 8
M TOR 27 3 4 5 6
M TOR 28 3 4 5 8
M TOR 29 4 5 6 7
M TOR 30 4 5 6 13
M TOR 31 4 5 6 14
M TOR 32 4 5 8 7
M TOR 33 4 5 8 17
M TOR 34 4 5 8 18
M TOR 35 5 2 0 9
M TOR 36 5 2 0 10
M TOR 37 5 2 3 11
M TOR 38 5 2 3 12
M TOR 39 5 4 3 11
M TOR 40 5 4 3 12
M TOR 41 5 6 7 8
M TOR 42 5 6 7 15
M TOR 43 5 6 7 16
M TOR 44 5 8 7 15
M TOR 45 5 8 7 16
M TOR 46 6 5 8 17
M TOR 47 6 5 8 18
M TOR 48 6 7 8 17
M TOR 49 6 7 8 18
M TOR 50 8 5 6 13
M TOR 51 8 5 6 14
M TOR 52 8 7 6 13
M TOR 53 8 7 6 14
M  END
$$$$
