
     RDKit          3D

 19 20  0  0  0  0  0  0  0  0999 V2000
   -0.2900   -0.4228   -0.5626 C   0  0  0  0  0  0  0  0  0  0  0  0
    0.1935    0.3636    0.6623 C   0  0  0  0  0  0  0  0  0  0  0  0
    1.1999    1.4613    0.2662 C   0  0  0  0  0  0  0  0  0  0  0  0
    2.6021    0.9699   -0.1449 C   0  0  0  0  0  0  0  0  0  0  0  0
    2.6489    0.5315   -1.5848 C   0  0  0  0  0  0  0  0  0  0  0  0
    1.6233    0.7348   -2.4069 C   0  0  0  0  0  0  0  0  0  0  0  0
    0.3610    1.4047   -1.9126 C   0  0  0  0  0  0  0  0  0  0  0  0
   -0.6552    0.4557   -1.6243 O   0  0  0  0  0  0  0  0  0  0  0  0
    0.6240    2.2286   -0.7988 O   0  0  0  0  0  0  0  0  0  0  0  0
    0.4805   -1.1304   -0.8988 H   0  0  0  0  0  0  0  0  0  0  0  0
   -1.1915   -0.9950   -0.3278 H   0  0  0  0  0  0  0  0  0  0  0  0
   -0.6662    0.8614    1.1231 H   0  0  0  0  0  0  0  0  0  0  0  0
    0.6250   -0.3159    1.4057 H   0  0  0  0  0  0  0  0  0  0  0  0
    1.3011    2.1606    1.1009 H   0  0  0  0  0  0  0  0  0  0  0  0
    3.3330    1.7760    0.0090 H   0  0  0  0  0  0  0  0  0  0  0  0
    2.9199    0.1515    0.5138 H   0  0  0  0  0  0  0  0  0  0  0  0
    3.5626    0.0585   -1.9367 H   0  0  0  0  0  0  0  0  0  0  0  0
    1.6360    0.4027   -3.4400 H   0  0  0  0  0  0  0  0  0  0  0  0
   -0.0701    2.0588   -2.6748 H   0  0  0  0  0  0  0  0  0  0  0  0
  1  2  1  0
  2  3  1  0
  3  4  1  0
  4  5  1  0
  5  6  2  0
  6  7  1  0
  7  8  1  0
  7  9  1  0
  8  1  1  0
  9  3  1  0
  1 10  1  0
  1 11  1  0
  2 12  1  0
  2 13  1  0
  3 14  1  0
  4 15  1  0
  4 16  1  0
  5 17  1  0
  6 18  1  0
  7 19  1  0
M  END
$$$$
