gdb 5071	2.8334859	1.2484298	1.1891756	2.5122	75.84	-0.23586	-0.01961	0.21625	1157.4225	0.156071	-422.566725	-422.558043	-422.557099	-422.600215	32.469
 OpenBabel02181911413D

 19 20  0  0  1  0  0  0  0  0999 V2000
    0.8288    1.2338    0.0980 C   0  0  0  0  0  0  0  0  0  0  0  0
    1.1715   -0.2586    0.0518 C   0  0  0  0  0  0  0  0  0  0  0  0
    1.9074   -0.6598   -1.1993 C   0  0  1  0  0  0  0  0  0  0  0  0
    1.8491   -2.0256   -1.7896 C   0  0  0  0  0  0  0  0  0  0  0  0
    1.2779   -0.8258   -2.5692 C   0  0  2  0  0  0  0  0  0  0  0  0
    2.2251   -0.1816   -3.5195 C   0  0  0  0  0  0  0  0  0  0  0  0
    2.0557    0.0783   -4.6835 O   0  0  0  0  0  0  0  0  0  0  0  0
    3.4789    0.1743   -2.7025 C   0  0  0  0  0  0  0  0  0  0  0  0
    3.1535    0.0051   -1.3321 O   0  0  0  0  0  0  0  0  0  0  0  0
    0.3312    1.4901    1.0375 H   0  0  0  0  0  0  0  0  0  0  0  0
    1.7362    1.8372    0.0149 H   0  0  0  0  0  0  0  0  0  0  0  0
    0.1611    1.5121   -0.7241 H   0  0  0  0  0  0  0  0  0  0  0  0
    1.7974   -0.5251    0.9126 H   0  0  0  0  0  0  0  0  0  0  0  0
    0.2625   -0.8657    0.1281 H   0  0  0  0  0  0  0  0  0  0  0  0
    2.7635   -2.4889   -2.1446 H   0  0  0  0  0  0  0  0  0  0  0  0
    1.1063   -2.7183   -1.4096 H   0  0  0  0  0  0  0  0  0  0  0  0
    0.2160   -0.7803   -2.7723 H   0  0  0  0  0  0  0  0  0  0  0  0
    4.3187   -0.4701   -2.9999 H   0  0  0  0  0  0  0  0  0  0  0  0
    3.7688    1.2134   -2.8904 H   0  0  0  0  0  0  0  0  0  0  0  0
  1 10  1  0  0  0  0
  2  1  1  0  0  0  0
  2 14  1  0  0  0  0
  2 13  1  0  0  0  0
  3  2  1  1  0  0  0
  4 16  1  0  0  0  0
  4  3  1  0  0  0  0
  5 17  1  6  0  0  0
  5  4  1  0  0  0  0
  5  3  1  0  0  0  0
  6  8  1  0  0  0  0
  6  5  1  0  0  0  0
  7  6  2  0  0  0  0
  8  9  1  0  0  0  0
  9  3  1  0  0  0  0
 11  1  1  0  0  0  0
 12  1  1  0  0  0  0
 15  4  1  0  0  0  0
 18  8  1  0  0  0  0
 19  8  1  0  0  0  0
M TOR 0 0 1 2 3
M TOR 1 0 1 2 4
M TOR 2 0 1 2 8
M TOR 3 1 2 3 4
M TOR 4 1 2 3 14
M TOR 5 1 2 3 15
M TOR 6 1 2 4 5
M TOR 7 1 2 4 16
M TOR 8 1 2 8 7
M TOR 9 2 1 0 9
M TOR 10 2 1 0 10
M TOR 11 2 1 0 11
M TOR 12 2 3 4 5
M TOR 13 2 3 4 16
M TOR 14 2 4 3 14
M TOR 15 2 4 3 15
M TOR 16 2 4 5 6
M TOR 17 2 4 5 7
M TOR 18 2 8 7 5
M TOR 19 2 8 7 17
M TOR 20 2 8 7 18
M TOR 21 3 2 1 12
M TOR 22 3 2 1 13
M TOR 23 3 2 8 7
M TOR 24 3 4 2 8
M TOR 25 3 4 5 6
M TOR 26 3 4 5 7
M TOR 27 4 2 1 12
M TOR 28 4 2 1 13
M TOR 29 4 2 8 7
M TOR 30 4 5 7 8
M TOR 31 4 5 7 17
M TOR 32 4 5 7 18
M TOR 33 5 4 2 8
M TOR 34 5 4 3 14
M TOR 35 5 4 3 15
M TOR 36 6 5 4 16
M TOR 37 6 5 7 8
M TOR 38 6 5 7 17
M TOR 39 6 5 7 18
M TOR 40 7 5 4 16
M TOR 41 8 2 1 12
M TOR 42 8 2 1 13
M TOR 43 8 2 3 14
M TOR 44 8 2 3 15
M TOR 45 8 2 4 16
M  END
$$$$
