
     RDKit          3D

 19 21  0  0  0  0  0  0  0  0999 V2000
    0.9962    1.2877    0.0432 C   0  0  0  0  0  0  0  0  0  0  0  0
    1.5731   -0.1169   -0.0885 C   0  0  0  0  0  0  0  0  0  0  0  0
    0.1049    0.0944    0.1091 C   0  0  0  0  0  0  0  0  0  0  0  0
   -0.4740   -0.2647    1.3683 O   0  0  0  0  0  0  0  0  0  0  0  0
   -1.7944   -0.7330    1.0467 C   0  0  0  0  0  0  0  0  0  0  0  0
   -2.6049    0.4727    0.5494 C   0  0  0  0  0  0  0  0  0  0  0  0
   -2.0346    0.7336   -0.7506 O   0  0  0  0  0  0  0  0  0  0  0  0
   -0.9795   -0.2301   -0.9043 C   0  0  0  0  0  0  0  0  0  0  0  0
   -1.5777   -1.4965   -0.2709 C   0  0  0  0  0  0  0  0  0  0  0  0
    1.1805    1.8127    0.9737 H   0  0  0  0  0  0  0  0  0  0  0  0
    0.9496    1.9205   -0.8369 H   0  0  0  0  0  0  0  0  0  0  0  0
    1.9330   -0.4456   -1.0583 H   0  0  0  0  0  0  0  0  0  0  0  0
    2.1253   -0.5077    0.7593 H   0  0  0  0  0  0  0  0  0  0  0  0
   -2.2004   -1.2647    1.9059 H   0  0  0  0  0  0  0  0  0  0  0  0
   -3.6768    0.2586    0.4482 H   0  0  0  0  0  0  0  0  0  0  0  0
   -2.4668    1.3394    1.2042 H   0  0  0  0  0  0  0  0  0  0  0  0
   -0.6682   -0.2514   -1.9476 H   0  0  0  0  0  0  0  0  0  0  0  0
   -2.4962   -1.8222   -0.7619 H   0  0  0  0  0  0  0  0  0  0  0  0
   -0.8728   -2.3224   -0.1655 H   0  0  0  0  0  0  0  0  0  0  0  0
  1  2  1  0
  2  3  1  0
  3  4  1  0
  4  5  1  0
  5  6  1  0
  6  7  1  0
  7  8  1  0
  8  9  1  0
  3  1  1  0
  8  3  1  0
  9  5  1  0
  1 10  1  0
  1 11  1  0
  2 12  1  0
  2 13  1  0
  5 14  1  0
  6 15  1  0
  6 16  1  0
  8 17  1  0
  9 18  1  0
  9 19  1  0
M  END
$$$$
