gdb 2334	2.708511	1.6842952	1.2885944	1.7576	77.9	-0.24004	0.0127	0.25274	1030.2917	0.158067	-422.544311	-422.536451	-422.535507	-422.576196	31.215
 OpenBabel02181911413D

 19 20  0  0  1  0  0  0  0  0999 V2000
    0.1801    1.3616   -0.0134 O   0  0  0  0  0  0  0  0  0  0  0  0
    0.0502   -0.0532   -0.0124 C   0  0  2  0  0  0  0  0  0  0  0  0
    0.1434   -0.5686   -1.4755 C   0  0  0  0  0  0  0  0  0  0  0  0
   -1.4266   -0.6445   -1.5184 C   0  0  0  0  0  0  0  0  0  0  0  0
   -1.3848   -0.5557   -0.0085 C   0  0  1  0  0  3  0  0  0  0  0  0
   -1.9781   -1.0667    1.0600 C   0  0  0  0  0  3  0  0  0  0  0  0
   -1.2480   -1.0166    2.3820 C   0  0  0  0  0  0  0  0  0  0  0  0
    0.0059   -0.3460    2.3275 O   0  0  0  0  0  0  0  0  0  0  0  0
    0.7860   -0.6653    1.1696 C   0  0  0  0  0  0  0  0  0  0  0  0
   -0.0901    1.6511    0.8673 H   0  0  0  0  0  0  0  0  0  0  0  0
    0.6260    0.1196   -2.1710 H   0  0  0  0  0  0  0  0  0  0  0  0
    0.6079   -1.5549   -1.5447 H   0  0  0  0  0  0  0  0  0  0  0  0
   -1.8557    0.2454   -1.9884 H   0  0  0  0  0  0  0  0  0  0  0  0
   -1.8834   -1.5334   -1.9606 H   0  0  0  0  0  0  0  0  0  0  0  0
   -2.9239   -1.6029    1.0298 H   0  0  0  0  0  0  0  0  0  0  0  0
   -1.8302   -0.4902    3.1477 H   0  0  0  0  0  0  0  0  0  0  0  0
   -1.1052   -2.0505    2.7468 H   0  0  0  0  0  0  0  0  0  0  0  0
    0.9021   -1.7536    1.0577 H   0  0  0  0  0  0  0  0  0  0  0  0
    1.7673   -0.2107    1.3317 H   0  0  0  0  0  0  0  0  0  0  0  0
  1 10  1  0  0  0  0
  2  1  1  1  0  0  0
  2  5  1  0  0  0  0
  2  9  1  0  0  0  0
  3  2  1  0  0  0  0
  4  3  1  0  0  0  0
  4  5  1  0  0  0  0
  5  6  1  1  0  0  0
  6  7  1  0  0  0  0
  7 17  1  0  0  0  0
  7 16  1  0  0  0  0
  8  7  1  0  0  0  0
  9 19  1  0  0  0  0
  9  8  1  0  0  0  0
 11  3  1  0  0  0  0
 12  3  1  0  0  0  0
 13  4  1  0  0  0  0
 14  4  1  0  0  0  0
 15  6  1  0  0  0  0
 18  9  1  0  0  0  0
M TOR 0 0 1 2 3
M TOR 1 0 1 2 10
M TOR 2 0 1 2 11
M TOR 3 0 1 4 3
M TOR 4 0 1 4 5
M TOR 5 0 1 8 7
M TOR 6 0 1 8 17
M TOR 7 0 1 8 18
M TOR 8 1 2 3 4
M TOR 9 1 2 3 12
M TOR 10 1 2 3 13
M TOR 11 1 4 3 12
M TOR 12 1 4 3 13
M TOR 13 1 4 5 6
M TOR 14 1 4 5 14
M TOR 15 1 8 7 6
M TOR 16 2 1 0 9
M TOR 17 2 1 4 5
M TOR 18 2 1 8 7
M TOR 19 2 1 8 17
M TOR 20 2 1 8 18
M TOR 21 2 3 4 5
M TOR 22 3 2 1 8
M TOR 23 3 4 1 8
M TOR 24 3 4 5 6
M TOR 25 3 4 5 14
M TOR 26 4 1 0 9
M TOR 27 4 1 2 10
M TOR 28 4 1 2 11
M TOR 29 4 1 8 7
M TOR 30 4 1 8 17
M TOR 31 4 1 8 18
M TOR 32 4 3 2 10
M TOR 33 4 3 2 11
M TOR 34 4 5 6 7
M TOR 35 4 5 6 15
M TOR 36 4 5 6 16
M TOR 37 5 4 1 8
M TOR 38 5 4 3 12
M TOR 39 5 4 3 13
M TOR 40 5 6 7 8
M TOR 41 6 7 8 17
M TOR 42 6 7 8 18
M TOR 43 7 6 5 14
M TOR 44 8 1 0 9
M TOR 45 8 1 2 10
M TOR 46 8 1 2 11
M TOR 47 8 7 6 15
M TOR 48 8 7 6 16
M  END
$$$$
