
     RDKit          3D

 19 20  0  0  0  0  0  0  0  0999 V2000
   -3.3123    1.5512   -0.5162 C   0  0  0  0  0  0  0  0  0  0  0  0
   -2.2277    0.7511    0.1648 C   0  0  0  0  0  0  0  0  0  0  0  0
   -2.5410   -0.0717    1.4093 C   0  0  0  0  0  0  0  0  0  0  0  0
   -2.1445   -0.7592    0.1309 C   0  0  0  0  0  0  0  0  0  0  0  0
   -3.0222   -1.7053   -0.6347 C   0  0  0  0  0  0  0  0  0  0  0  0
   -0.7714   -1.1413    0.0776 O   0  0  0  0  0  0  0  0  0  0  0  0
    0.0513   -0.0523    0.0654 C   0  0  0  0  0  0  0  0  0  0  0  0
    1.2425   -0.1525    0.0662 O   0  0  0  0  0  0  0  0  0  0  0  0
   -0.7916    1.2243    0.0538 C   0  0  0  0  0  0  0  0  0  0  0  0
   -3.4219    2.5361   -0.0485 H   0  0  0  0  0  0  0  0  0  0  0  0
   -3.0834    1.7101   -1.5762 H   0  0  0  0  0  0  0  0  0  0  0  0
   -4.2832    1.0512   -0.4543 H   0  0  0  0  0  0  0  0  0  0  0  0
   -1.8338   -0.0824    2.2333 H   0  0  0  0  0  0  0  0  0  0  0  0
   -3.5830   -0.1304    1.7067 H   0  0  0  0  0  0  0  0  0  0  0  0
   -2.9673   -2.7114   -0.2072 H   0  0  0  0  0  0  0  0  0  0  0  0
   -4.0644   -1.3791   -0.5980 H   0  0  0  0  0  0  0  0  0  0  0  0
   -2.7123   -1.7632   -1.6828 H   0  0  0  0  0  0  0  0  0  0  0  0
   -0.4611    1.8839    0.8615 H   0  0  0  0  0  0  0  0  0  0  0  0
   -0.6059    1.7517   -0.8887 H   0  0  0  0  0  0  0  0  0  0  0  0
  1  2  1  0
  2  3  1  0
  3  4  1  0
  4  5  1  0
  4  6  1  0
  6  7  1  0
  7  8  2  0
  7  9  1  0
  4  2  1  0
  9  2  1  0
  1 10  1  0
  1 11  1  0
  1 12  1  0
  3 13  1  0
  3 14  1  0
  5 15  1  0
  5 16  1  0
  5 17  1  0
  9 18  1  0
  9 19  1  0
M  END
$$$$
