gdb 4534	3.0793077	1.2627337	1.0094762	2.1521	79.25	-0.23118	0.00194	0.23312	1206.7373	0.156375	-422.535371	-422.526636	-422.525692	-422.569476	31.793
 OpenBabel02181911413D

 19 20  0  0  1  0  0  0  0  0999 V2000
    1.2903   -1.5426    2.8273 C   0  0  0  0  0  0  0  0  0  0  0  0
    0.0923   -1.9401    1.9635 C   0  0  1  0  0  0  0  0  0  0  0  0
   -0.8212   -2.7303    2.7362 O   0  0  0  0  0  0  0  0  0  0  0  0
   -2.1047   -2.1199    2.7839 C   0  0  0  0  0  0  0  0  0  0  0  0
   -1.9779   -0.8801    1.9519 C   0  0  0  0  0  0  0  0  0  0  0  0
   -0.7443   -0.7790    1.4592 C   0  0  0  0  0  0  0  0  0  0  0  0
   -0.2770    0.2688    0.5330 C   0  0  2  0  0  0  0  0  0  0  0  0
    0.7022    0.0209   -0.5435 C   0  0  0  0  0  0  0  0  0  0  0  0
    1.0849    0.7238    0.6337 O   0  0  0  0  0  0  0  0  0  0  0  0
    1.7732   -2.4413    3.2211 H   0  0  0  0  0  0  0  0  0  0  0  0
    2.0122   -0.9679    2.2429 H   0  0  0  0  0  0  0  0  0  0  0  0
    0.9601   -0.9277    3.6699 H   0  0  0  0  0  0  0  0  0  0  0  0
    0.4502   -2.5570    1.1224 H   0  0  0  0  0  0  0  0  0  0  0  0
   -2.8652   -2.8118    2.3869 H   0  0  0  0  0  0  0  0  0  0  0  0
   -2.3849   -1.9024    3.8273 H   0  0  0  0  0  0  0  0  0  0  0  0
   -2.7965   -0.1917    1.7789 H   0  0  0  0  0  0  0  0  0  0  0  0
   -0.9918    1.0754    0.3690 H   0  0  0  0  0  0  0  0  0  0  0  0
    1.1379   -0.9696   -0.6620 H   0  0  0  0  0  0  0  0  0  0  0  0
    0.6514    0.6177   -1.4534 H   0  0  0  0  0  0  0  0  0  0  0  0
  1 10  1  0  0  0  0
  1 12  1  0  0  0  0
  2 13  1  6  0  0  0
  2  3  1  0  0  0  0
  2  1  1  0  0  0  0
  3  4  1  0  0  0  0
  4 15  1  0  0  0  0
  5  4  1  0  0  0  0
  6  5  2  0  0  0  0
  6  2  1  0  0  0  0
  7 17  1  6  0  0  0
  7  9  1  0  0  0  0
  7  6  1  0  0  0  0
  8  7  1  0  0  0  0
  8  9  1  0  0  0  0
 11  1  1  0  0  0  0
 14  4  1  0  0  0  0
 16  5  1  0  0  0  0
 18  8  1  0  0  0  0
 19  8  1  0  0  0  0
M TOR 0 0 1 2 3
M TOR 1 0 1 5 4
M TOR 2 0 1 5 6
M TOR 3 1 2 3 4
M TOR 4 1 2 3 13
M TOR 5 1 2 3 14
M TOR 6 1 5 4 3
M TOR 7 1 5 4 15
M TOR 8 1 5 6 7
M TOR 9 1 5 6 8
M TOR 10 1 5 6 16
M TOR 11 2 1 0 9
M TOR 12 2 1 0 10
M TOR 13 2 1 0 11
M TOR 14 2 1 5 4
M TOR 15 2 1 5 6
M TOR 16 2 3 4 5
M TOR 17 2 3 4 15
M TOR 18 3 2 1 5
M TOR 19 3 2 1 12
M TOR 20 3 4 5 6
M TOR 21 4 5 1 12
M TOR 22 4 5 6 7
M TOR 23 4 5 6 8
M TOR 24 4 5 6 16
M TOR 25 5 1 0 9
M TOR 26 5 1 0 10
M TOR 27 5 1 0 11
M TOR 28 5 4 3 13
M TOR 29 5 4 3 14
M TOR 30 5 6 7 8
M TOR 31 5 6 7 17
M TOR 32 5 6 7 18
M TOR 33 6 5 1 12
M TOR 34 6 5 4 15
M TOR 35 6 8 7 17
M TOR 36 6 8 7 18
M TOR 37 7 8 6 16
M  END
$$$$
