gdb 3690	2.9050701	1.3706653	1.092666	2.6847	79.25	-0.21605	0.00773	0.22377999999999998	1158.9077	0.155669	-422.543085	-422.534406	-422.533462	-422.576334	33.32
 OpenBabel02181911413D

 19 20  0  0  1  0  0  0  0  0999 V2000
    0.5480   -0.2528   -0.5619 C   0  0  0  0  0  0  0  0  0  0  0  0
    0.9071    0.0977    0.8817 C   0  0  1  0  0  0  0  0  0  0  0  0
    2.1176   -0.5846    1.2722 O   0  0  0  0  0  0  0  0  0  0  0  0
    3.0986    0.3651    1.6580 C   0  0  1  0  0  0  0  0  0  0  0  0
    4.1127   -0.0854    2.6867 C   0  0  0  0  0  0  0  0  0  0  0  0
    4.5022    0.0028    1.2236 C   0  0  1  0  0  0  0  0  0  0  0  0
    4.6492   -1.1561    0.4690 O   0  0  0  0  0  0  0  0  0  0  0  0
    2.4648    1.6918    1.5552 C   0  0  0  0  0  0  0  0  0  0  0  0
    1.2159    1.5549    1.1178 C   0  0  0  0  0  0  0  0  0  0  0  0
    0.4270   -1.3346   -0.6699 H   0  0  0  0  0  0  0  0  0  0  0  0
   -0.3939    0.2265   -0.8488 H   0  0  0  0  0  0  0  0  0  0  0  0
    1.3334    0.0843   -1.2447 H   0  0  0  0  0  0  0  0  0  0  0  0
    0.0999   -0.2524    1.5441 H   0  0  0  0  0  0  0  0  0  0  0  0
    4.5058    0.6486    3.3832 H   0  0  0  0  0  0  0  0  0  0  0  0
    3.9675   -1.0821    3.0897 H   0  0  0  0  0  0  0  0  0  0  0  0
    5.1807    0.7947    0.9167 H   0  0  0  0  0  0  0  0  0  0  0  0
    3.7516   -1.4767    0.2983 H   0  0  0  0  0  0  0  0  0  0  0  0
    2.9783    2.6118    1.8011 H   0  0  0  0  0  0  0  0  0  0  0  0
    0.4989    2.3435    0.9304 H   0  0  0  0  0  0  0  0  0  0  0  0
  1  2  1  0  0  0  0
  2  9  1  0  0  0  0
  2  3  1  0  0  0  0
  2 13  1  1  0  0  0
  4  3  1  6  0  0  0
  4  5  1  0  0  0  0
  5 15  1  0  0  0  0
  5 14  1  0  0  0  0
  6 16  1  6  0  0  0
  6  4  1  0  0  0  0
  6  5  1  0  0  0  0
  7  6  1  0  0  0  0
  8  4  1  0  0  0  0
  8 18  1  0  0  0  0
  9  8  2  0  0  0  0
 10  1  1  0  0  0  0
 11  1  1  0  0  0  0
 12  1  1  0  0  0  0
 17  7  1  0  0  0  0
 19  9  1  0  0  0  0
M TOR 0 0 1 2 3
M TOR 1 0 1 8 7
M TOR 2 0 1 8 18
M TOR 3 1 2 3 4
M TOR 4 1 2 3 5
M TOR 5 1 2 3 7
M TOR 6 1 8 7 3
M TOR 7 1 8 7 17
M TOR 8 2 1 0 9
M TOR 9 2 1 0 10
M TOR 10 2 1 0 11
M TOR 11 2 1 8 7
M TOR 12 2 1 8 18
M TOR 13 2 3 4 5
M TOR 14 2 3 4 13
M TOR 15 2 3 4 14
M TOR 16 2 3 5 6
M TOR 17 2 3 5 15
M TOR 18 2 3 7 8
M TOR 19 2 3 7 17
M TOR 20 3 2 1 8
M TOR 21 3 2 1 12
M TOR 22 3 4 5 6
M TOR 23 3 4 5 15
M TOR 24 3 5 4 13
M TOR 25 3 5 4 14
M TOR 26 3 5 6 16
M TOR 27 3 7 8 18
M TOR 28 4 3 7 8
M TOR 29 4 3 7 17
M TOR 30 4 5 3 7
M TOR 31 4 5 6 16
M TOR 32 5 3 7 8
M TOR 33 5 3 7 17
M TOR 34 6 5 3 7
M TOR 35 6 5 4 13
M TOR 36 6 5 4 14
M TOR 37 7 3 4 13
M TOR 38 7 3 4 14
M TOR 39 7 3 5 15
M TOR 40 7 8 1 12
M TOR 41 8 1 0 9
M TOR 42 8 1 0 10
M TOR 43 8 1 0 11
M  END
$$$$
