
     RDKit          3D

 19 20  0  0  0  0  0  0  0  0999 V2000
   -2.8109   -0.1696   -1.5341 C   0  0  0  0  0  0  0  0  0  0  0  0
   -2.1704   -0.0353   -0.1557 C   0  0  0  0  0  0  0  0  0  0  0  0
   -1.0497   -1.0845    0.1331 C   0  0  0  0  0  0  0  0  0  0  0  0
   -0.0154    0.0180   -0.1661 C   0  0  0  0  0  0  0  0  0  0  0  0
    1.1483    0.0294   -0.4405 O   0  0  0  0  0  0  0  0  0  0  0  0
   -1.1095    1.1077   -0.0823 C   0  0  0  0  0  0  0  0  0  0  0  0
   -1.0527    2.0927    1.1137 C   0  0  0  0  0  0  0  0  0  0  0  0
   -1.0203    3.1758    0.0176 C   0  0  0  0  0  0  0  0  0  0  0  0
   -1.1386    2.1795   -1.0235 O   0  0  0  0  0  0  0  0  0  0  0  0
   -3.4478   -1.0584   -1.5800 H   0  0  0  0  0  0  0  0  0  0  0  0
   -3.4190    0.7081   -1.7686 H   0  0  0  0  0  0  0  0  0  0  0  0
   -2.0505   -0.2575   -2.3178 H   0  0  0  0  0  0  0  0  0  0  0  0
   -2.9373    0.0337    0.6206 H   0  0  0  0  0  0  0  0  0  0  0  0
   -1.0032   -1.4229    1.1730 H   0  0  0  0  0  0  0  0  0  0  0  0
   -1.0061   -1.9588   -0.5215 H   0  0  0  0  0  0  0  0  0  0  0  0
   -1.9460    2.0888    1.7410 H   0  0  0  0  0  0  0  0  0  0  0  0
   -0.1626    2.0247    1.7406 H   0  0  0  0  0  0  0  0  0  0  0  0
   -1.8599    3.8794    0.0040 H   0  0  0  0  0  0  0  0  0  0  0  0
   -0.0803    3.7322   -0.0630 H   0  0  0  0  0  0  0  0  0  0  0  0
  1  2  1  0
  2  3  1  0
  3  4  1  0
  4  5  2  0
  4  6  1  0
  6  7  1  0
  7  8  1  0
  8  9  1  0
  6  2  1  0
  9  6  1  0
  1 10  1  0
  1 11  1  0
  1 12  1  0
  2 13  1  0
  3 14  1  0
  3 15  1  0
  7 16  1  0
  7 17  1  0
  8 18  1  0
  8 19  1  0
M  END
$$$$
