gdb 1549	2.6448985	1.5277589	1.2419718	2.7735	75.53	-0.23654	-0.01868	0.21786	1075.8329	0.155149	-422.557382	-422.548654	-422.547709	-422.590687	33.458
 OpenBabel02181911403D

 19 20  0  0  1  0  0  0  0  0999 V2000
   -1.9175   -3.2065   -1.1732 C   0  0  0  0  0  0  0  0  0  0  0  0
   -1.5301   -1.7357   -1.2352 C   0  0  1  0  0  0  0  0  0  0  0  0
   -0.7175   -1.4616   -2.3627 O   0  0  0  0  0  0  0  0  0  0  0  0
   -2.7066   -0.7198   -1.1824 C   0  0  0  0  0  0  0  0  0  0  0  0
   -2.1207   -0.0725    0.0946 C   0  0  2  0  0  0  0  0  0  0  0  0
   -1.0608    1.0406   -0.1595 C   0  0  0  0  0  0  0  0  0  0  0  0
    0.0384   -0.0366   -0.0981 C   0  0  0  0  0  0  0  0  0  0  0  0
    1.2342   -0.0099   -0.1543 O   0  0  0  0  0  0  0  0  0  0  0  0
   -0.9763   -1.1571    0.1288 C   0  0  2  0  0  0  0  0  0  0  0  0
   -2.5745   -3.4102   -0.3219 H   0  0  0  0  0  0  0  0  0  0  0  0
   -2.4358   -3.4949   -2.0933 H   0  0  0  0  0  0  0  0  0  0  0  0
   -1.0267   -3.8373   -1.0672 H   0  0  0  0  0  0  0  0  0  0  0  0
    0.1200   -1.9284   -2.2573 H   0  0  0  0  0  0  0  0  0  0  0  0
   -2.7765   -0.0757   -2.0620 H   0  0  0  0  0  0  0  0  0  0  0  0
   -3.6724   -1.2050   -1.0215 H   0  0  0  0  0  0  0  0  0  0  0  0
   -2.7931    0.0900    0.9352 H   0  0  0  0  0  0  0  0  0  0  0  0
   -1.1317    1.5904   -1.1023 H   0  0  0  0  0  0  0  0  0  0  0  0
   -0.9642    1.7631    0.6578 H   0  0  0  0  0  0  0  0  0  0  0  0
   -0.7910   -1.8732    0.9307 H   0  0  0  0  0  0  0  0  0  0  0  0
  1 12  1  0  0  0  0
  1 10  1  0  0  0  0
  2  3  1  6  0  0  0
  2  4  1  0  0  0  0
  2  1  1  0  0  0  0
  2  9  1  0  0  0  0
  3 13  1  0  0  0  0
  4 15  1  0  0  0  0
  4  5  1  0  0  0  0
  5  9  1  0  0  0  0
  5 16  1  1  0  0  0
  6  7  1  0  0  0  0
  6  5  1  0  0  0  0
  6 18  1  0  0  0  0
  7  9  1  0  0  0  0
  8  7  2  0  0  0  0
  9 19  1  1  0  0  0
 11  1  1  0  0  0  0
 14  4  1  0  0  0  0
 17  6  1  0  0  0  0
M TOR 0 0 1 2 12
M TOR 1 0 1 3 4
M TOR 2 0 1 3 13
M TOR 3 0 1 3 14
M TOR 4 0 1 8 4
M TOR 5 0 1 8 6
M TOR 6 0 1 8 18
M TOR 7 1 3 4 5
M TOR 8 1 3 4 8
M TOR 9 1 3 4 15
M TOR 10 1 8 4 5
M TOR 11 1 8 4 15
M TOR 12 1 8 6 5
M TOR 13 1 8 6 7
M TOR 14 2 1 0 9
M TOR 15 2 1 0 10
M TOR 16 2 1 0 11
M TOR 17 2 1 3 4
M TOR 18 2 1 3 13
M TOR 19 2 1 3 14
M TOR 20 2 1 8 4
M TOR 21 2 1 8 6
M TOR 22 2 1 8 18
M TOR 23 3 1 0 9
M TOR 24 3 1 0 10
M TOR 25 3 1 0 11
M TOR 26 3 1 2 12
M TOR 27 3 1 8 6
M TOR 28 3 1 8 18
M TOR 29 3 4 5 6
M TOR 30 3 4 5 16
M TOR 31 3 4 5 17
M TOR 32 3 4 8 6
M TOR 33 3 4 8 18
M TOR 34 4 5 6 7
M TOR 35 4 5 6 8
M TOR 36 4 8 6 7
M TOR 37 5 4 3 13
M TOR 38 5 4 3 14
M TOR 39 5 4 8 18
M TOR 40 5 6 8 18
M TOR 41 6 5 4 15
M TOR 42 6 8 4 15
M TOR 43 7 6 5 16
M TOR 44 7 6 5 17
M TOR 45 7 6 8 18
M TOR 46 8 1 0 9
M TOR 47 8 1 0 10
M TOR 48 8 1 0 11
M TOR 49 8 1 2 12
M TOR 50 8 1 3 13
M TOR 51 8 1 3 14
M TOR 52 8 4 3 13
M TOR 53 8 4 3 14
M TOR 54 8 4 5 16
M TOR 55 8 4 5 17
M TOR 56 8 6 5 16
M TOR 57 8 6 5 17
M  END
$$$$
