gdb 5865	4.2113211	0.5454653	0.5076945	2.6401	84.24	-0.24581	-0.0287	0.21711	2173.7556	0.152687	-422.516465	-422.505286	-422.504342	-422.55578	36.609
 OpenBabel02181911423D

 19 18  0  0  1  0  0  0  0  0999 V2000
    5.6026   -1.2383    4.1288 C   0  0  0  0  0  0  0  0  0  0  0  0
    4.6693   -0.8059    3.1656 O   0  0  0  0  0  0  0  0  0  0  0  0
    3.7010   -1.7972    2.8842 C   0  0  0  0  0  0  0  0  0  0  0  0
    2.7582   -1.3100    1.8861 C   0  0  0  0  0  0  0  0  0  0  0  0
    1.9561   -0.9241    1.0751 C   0  0  0  0  0  0  0  0  0  0  0  0
    1.0247   -0.4654    0.0509 C   0  0  1  0  0  0  0  0  0  0  0  0
    1.1228    1.0634   -0.1724 C   0  0  0  0  0  0  0  0  0  0  0  0
    1.3273   -1.1750   -1.2728 C   0  0  0  0  0  0  0  0  0  0  0  0
    0.4974   -1.7061   -1.9590 O   0  0  0  0  0  0  0  0  0  0  0  0
    6.1568   -2.1289    3.7917 H   0  0  0  0  0  0  0  0  0  0  0  0
    6.3087   -0.4198    4.2838 H   0  0  0  0  0  0  0  0  0  0  0  0
    5.1189   -1.4791    5.0890 H   0  0  0  0  0  0  0  0  0  0  0  0
    4.1879   -2.7183    2.5179 H   0  0  0  0  0  0  0  0  0  0  0  0
    3.1569   -2.0772    3.8035 H   0  0  0  0  0  0  0  0  0  0  0  0
   -0.0042   -0.7271    0.3218 H   0  0  0  0  0  0  0  0  0  0  0  0
    0.9339    1.5909    0.7651 H   0  0  0  0  0  0  0  0  0  0  0  0
    2.1215    1.3413   -0.5217 H   0  0  0  0  0  0  0  0  0  0  0  0
    0.3868    1.3832   -0.9152 H   0  0  0  0  0  0  0  0  0  0  0  0
    2.4009   -1.1394   -1.5644 H   0  0  0  0  0  0  0  0  0  0  0  0
  1 11  1  0  0  0  0
  1 12  1  0  0  0  0
  2  1  1  0  0  0  0
  3  2  1  0  0  0  0
  3 14  1  0  0  0  0
  4  3  1  0  0  0  0
  5  4  3  0  0  0  0
  6 15  1  1  0  0  0
  6  5  1  0  0  0  0
  7  6  1  0  0  0  0
  7 16  1  0  0  0  0
  8  6  1  0  0  0  0
  9  8  2  0  0  0  0
 10  1  1  0  0  0  0
 13  3  1  0  0  0  0
 17  7  1  0  0  0  0
 18  7  1  0  0  0  0
 19  8  1  0  0  0  0
M TOR 0 0 1 2 3
M TOR 1 0 1 2 12
M TOR 2 0 1 2 13
M TOR 3 1 2 3 4
M TOR 4 2 1 0 9
M TOR 5 2 1 0 10
M TOR 6 2 1 0 11
M TOR 7 2 3 4 5
M TOR 8 3 4 5 6
M TOR 9 3 4 5 7
M TOR 10 3 4 5 14
M TOR 11 4 3 2 12
M TOR 12 4 3 2 13
M TOR 13 4 5 6 15
M TOR 14 4 5 6 16
M TOR 15 4 5 6 17
M TOR 16 4 5 7 8
M TOR 17 4 5 7 18
M TOR 18 6 5 7 8
M TOR 19 6 5 7 18
M TOR 20 7 5 6 15
M TOR 21 7 5 6 16
M TOR 22 7 5 6 17
M TOR 23 8 7 5 14
M  END
$$$$
