
     RDKit          3D

 19 20  0  0  0  0  0  0  0  0999 V2000
    1.5001   -0.1209   -0.0840 C   0  0  0  0  0  0  0  0  0  0  0  0
    0.1028   -0.1741    0.1305 O   0  0  0  0  0  0  0  0  0  0  0  0
   -0.3057    0.5639    1.2346 C   0  0  0  0  0  0  0  0  0  0  0  0
   -1.7153    1.0633    1.1920 C   0  0  0  0  0  0  0  0  0  0  0  0
   -2.4120    1.3019    2.5144 C   0  0  0  0  0  0  0  0  0  0  0  0
   -1.5237    2.3012    3.2782 C   0  0  0  0  0  0  0  0  0  0  0  0
   -1.6163    2.5637    4.4477 O   0  0  0  0  0  0  0  0  0  0  0  0
   -0.4958    2.9103    2.3059 C   0  0  0  0  0  0  0  0  0  0  0  0
   -0.5466    2.0471    1.0633 C   0  0  0  0  0  0  0  0  0  0  0  0
    2.0563   -0.5290    0.7732 H   0  0  0  0  0  0  0  0  0  0  0  0
    1.7127   -0.7298   -0.9656 H   0  0  0  0  0  0  0  0  0  0  0  0
    1.8456    0.9073   -0.2630 H   0  0  0  0  0  0  0  0  0  0  0  0
    0.1025    0.2146    2.1887 H   0  0  0  0  0  0  0  0  0  0  0  0
   -2.2938    0.7988    0.3154 H   0  0  0  0  0  0  0  0  0  0  0  0
   -3.3948    1.7679    2.3683 H   0  0  0  0  0  0  0  0  0  0  0  0
   -2.5706    0.4069    3.1239 H   0  0  0  0  0  0  0  0  0  0  0  0
   -0.8050    3.9414    2.0917 H   0  0  0  0  0  0  0  0  0  0  0  0
    0.4825    2.9670    2.7939 H   0  0  0  0  0  0  0  0  0  0  0  0
   -0.3130    2.4757    0.0960 H   0  0  0  0  0  0  0  0  0  0  0  0
  1  2  1  0
  2  3  1  0
  3  4  1  0
  4  5  1  0
  5  6  1  0
  6  7  2  0
  6  8  1  0
  8  9  1  0
  9  3  1  0
  9  4  1  0
  1 10  1  0
  1 11  1  0
  1 12  1  0
  3 13  1  0
  4 14  1  0
  5 15  1  0
  5 16  1  0
  8 17  1  0
  8 18  1  0
  9 19  1  0
M  END
$$$$
