gdb 2318	2.6202811	1.9632216	1.6627812	0.9856	74.27	-0.23345	0.05352	0.28697	911.6316	0.157661	-422.477138	-422.469825	-422.46888	-422.508291	29.942
 OpenBabel02181911413D

 19 21  0  0  1  0  0  0  0  0999 V2000
    0.0167   -0.3502    0.2642 C   0  0  0  0  0  0  0  0  0  0  0  0
    1.4427    0.0730    0.0134 C   0  0  1  0  0  0  0  0  0  0  0  0
    1.7176    1.3110    0.7933 O   0  0  0  0  0  0  0  0  0  0  0  0
    2.5205    0.5506    1.7604 C   0  0  0  0  0  0  0  0  0  0  0  0
    2.7215   -0.4724    0.6554 C   0  0  2  0  0  0  0  0  0  0  0  0
    3.5112    0.0970   -0.5731 C   0  0  0  0  0  0  0  0  0  0  0  0
    2.2106   -0.3414   -1.2788 C   0  0  1  0  0  0  0  0  0  0  0  0
    2.3258   -1.8782   -0.9372 C   0  0  0  0  0  0  0  0  0  0  0  0
    2.7511   -1.8725    0.4761 O   0  0  0  0  0  0  0  0  0  0  0  0
   -0.1654   -0.5482    1.3252 H   0  0  0  0  0  0  0  0  0  0  0  0
   -0.6490    0.4667   -0.0359 H   0  0  0  0  0  0  0  0  0  0  0  0
   -0.2658   -1.2402   -0.3029 H   0  0  0  0  0  0  0  0  0  0  0  0
    3.3905    1.1154    2.1067 H   0  0  0  0  0  0  0  0  0  0  0  0
    1.9112    0.2208    2.6101 H   0  0  0  0  0  0  0  0  0  0  0  0
    3.6628    1.1723   -0.5402 H   0  0  0  0  0  0  0  0  0  0  0  0
    4.4263   -0.4387   -0.8328 H   0  0  0  0  0  0  0  0  0  0  0  0
    1.9442   -0.1074   -2.3122 H   0  0  0  0  0  0  0  0  0  0  0  0
    1.3942   -2.4429   -1.0276 H   0  0  0  0  0  0  0  0  0  0  0  0
    3.0996   -2.3565   -1.5446 H   0  0  0  0  0  0  0  0  0  0  0  0
  1 10  1  0  0  0  0
  2  1  1  1  0  0  0
  2  5  1  0  0  0  0
  2  3  1  0  0  0  0
  3  4  1  0  0  0  0
  4 13  1  0  0  0  0
  4 14  1  0  0  0  0
  5  9  1  1  0  0  0
  5  4  1  0  0  0  0
  6 15  1  0  0  0  0
  6  5  1  0  0  0  0
  7 17  1  6  0  0  0
  7  8  1  0  0  0  0
  7  6  1  0  0  0  0
  7  2  1  0  0  0  0
  8  9  1  0  0  0  0
 11  1  1  0  0  0  0
 12  1  1  0  0  0  0
 16  6  1  0  0  0  0
 18  8  1  0  0  0  0
 19  8  1  0  0  0  0
M TOR 0 0 1 2 3
M TOR 1 0 1 4 3
M TOR 2 0 1 4 5
M TOR 3 0 1 4 8
M TOR 4 0 1 6 5
M TOR 5 0 1 6 7
M TOR 6 0 1 6 16
M TOR 7 1 2 3 4
M TOR 8 1 2 3 12
M TOR 9 1 2 3 13
M TOR 10 1 4 3 12
M TOR 11 1 4 3 13
M TOR 12 1 4 5 6
M TOR 13 1 4 5 14
M TOR 14 1 4 5 15
M TOR 15 1 4 8 7
M TOR 16 1 6 5 14
M TOR 17 1 6 5 15
M TOR 18 1 6 7 8
M TOR 19 1 6 7 17
M TOR 20 1 6 7 18
M TOR 21 2 1 0 9
M TOR 22 2 1 0 10
M TOR 23 2 1 0 11
M TOR 24 2 1 4 5
M TOR 25 2 1 4 8
M TOR 26 2 1 6 5
M TOR 27 2 1 6 7
M TOR 28 2 1 6 16
M TOR 29 2 3 4 5
M TOR 30 2 3 4 8
M TOR 31 3 2 1 6
M TOR 32 3 4 1 6
M TOR 33 3 4 5 6
M TOR 34 3 4 5 14
M TOR 35 3 4 5 15
M TOR 36 3 4 8 7
M TOR 37 4 1 0 9
M TOR 38 4 1 0 10
M TOR 39 4 1 0 11
M TOR 40 4 1 6 7
M TOR 41 4 1 6 16
M TOR 42 4 5 6 7
M TOR 43 4 5 6 16
M TOR 44 4 8 7 6
M TOR 45 4 8 7 17
M TOR 46 4 8 7 18
M TOR 47 5 4 3 12
M TOR 48 5 4 3 13
M TOR 49 5 4 8 7
M TOR 50 5 6 7 8
M TOR 51 5 6 7 17
M TOR 52 5 6 7 18
M TOR 53 6 1 0 9
M TOR 54 6 1 0 10
M TOR 55 6 1 0 11
M TOR 56 6 1 4 8
M TOR 57 6 5 4 8
M TOR 58 7 6 5 14
M TOR 59 7 6 5 15
M TOR 60 8 4 3 12
M TOR 61 8 4 3 13
M TOR 62 8 4 5 14
M TOR 63 8 4 5 15
M TOR 64 8 7 6 16
M  END
$$$$
