
     RDKit          3D

 19 21  0  0  0  0  0  0  0  0999 V2000
    0.0550   -2.5269   -2.2028 O   0  0  0  0  0  0  0  0  0  0  0  0
    0.4818   -1.1710   -2.2516 C   0  0  0  0  0  0  0  0  0  0  0  0
   -0.4902   -0.2530   -1.5040 C   0  0  0  0  0  0  0  0  0  0  0  0
   -0.4346   -0.4340   -0.0917 O   0  0  0  0  0  0  0  0  0  0  0  0
    0.8423   -0.5881    0.4701 C   0  0  0  0  0  0  0  0  0  0  0  0
    2.1233    0.1417    0.1479 C   0  0  0  0  0  0  0  0  0  0  0  0
    2.3508    0.4268   -1.3384 C   0  0  0  0  0  0  0  0  0  0  0  0
    1.8973   -1.0287   -1.6798 C   0  0  0  0  0  0  0  0  0  0  0  0
    1.9329   -1.3698   -0.1696 C   0  0  0  0  0  0  0  0  0  0  0  0
   -0.1088   -2.7341   -1.2753 H   0  0  0  0  0  0  0  0  0  0  0  0
    0.4693   -0.8933   -3.3120 H   0  0  0  0  0  0  0  0  0  0  0  0
   -0.3038    0.7986   -1.7619 H   0  0  0  0  0  0  0  0  0  0  0  0
   -1.5154   -0.4962   -1.7965 H   0  0  0  0  0  0  0  0  0  0  0  0
    0.7147   -0.7535    1.5357 H   0  0  0  0  0  0  0  0  0  0  0  0
    2.6992    0.5915    0.9496 H   0  0  0  0  0  0  0  0  0  0  0  0
    1.8203    1.2668   -1.7963 H   0  0  0  0  0  0  0  0  0  0  0  0
    3.4180    0.5466   -1.5428 H   0  0  0  0  0  0  0  0  0  0  0  0
    2.6094   -1.5896   -2.2853 H   0  0  0  0  0  0  0  0  0  0  0  0
    2.4064   -2.2392    0.2708 H   0  0  0  0  0  0  0  0  0  0  0  0
  1  2  1  0
  2  3  1  0
  3  4  1  0
  4  5  1  0
  5  6  1  0
  6  7  1  0
  7  8  1  0
  8  9  1  0
  8  2  1  0
  9  5  1  0
  9  6  1  0
  1 10  1  0
  2 11  1  0
  3 12  1  0
  3 13  1  0
  5 14  1  0
  6 15  1  0
  7 16  1  0
  7 17  1  0
  8 18  1  0
  9 19  1  0
M  END
$$$$
