gdb 5308	3.2864179	1.4408699	1.2577175	2.5445	74.15	-0.2325	0.0847	0.31720000000000004	1053.2419	0.15849	-422.528335	-422.520674	-422.51973	-422.560468	30.106
 OpenBabel02181911423D

 19 21  0  0  1  0  0  0  0  0999 V2000
    1.5624    0.5235    0.3792 O   0  0  0  0  0  0  0  0  0  0  0  0
    0.2205    0.1005    0.2090 C   0  0  0  0  0  0  0  0  0  0  0  0
   -0.5728    0.2352    1.4770 C   0  0  2  0  0  0  0  0  0  0  0  0
   -0.6185    1.5864    1.9211 O   0  0  0  0  0  0  0  0  0  0  0  0
   -1.8718    1.7673    2.5950 C   0  0  0  0  0  0  0  0  0  0  0  0
   -2.2864    0.3525    2.9901 C   0  0  2  0  0  0  0  0  0  0  0  0
   -1.1493   -0.3149    3.8322 C   0  0  0  0  0  0  0  0  0  0  0  0
   -0.5547   -0.8547    2.5323 C   0  0  1  0  0  0  0  0  0  0  0  0
   -1.8364   -0.4950    1.7634 C   0  0  2  0  0  0  0  0  0  0  0  0
    1.5195    1.4072    0.7620 H   0  0  0  0  0  0  0  0  0  0  0  0
   -0.2781    0.6736   -0.5886 H   0  0  0  0  0  0  0  0  0  0  0  0
    0.2550   -0.9486   -0.1019 H   0  0  0  0  0  0  0  0  0  0  0  0
   -1.7079    2.4275    3.4533 H   0  0  0  0  0  0  0  0  0  0  0  0
   -2.6044    2.2361    1.9202 H   0  0  0  0  0  0  0  0  0  0  0  0
   -3.3070    0.2550    3.3575 H   0  0  0  0  0  0  0  0  0  0  0  0
   -0.5263    0.3518    4.4383 H   0  0  0  0  0  0  0  0  0  0  0  0
   -1.5364   -1.1202    4.4610 H   0  0  0  0  0  0  0  0  0  0  0  0
    0.0773   -1.7294    2.4259 H   0  0  0  0  0  0  0  0  0  0  0  0
   -2.4463   -1.0521    1.0638 H   0  0  0  0  0  0  0  0  0  0  0  0
  1 10  1  0  0  0  0
  2  1  1  0  0  0  0
  3  2  1  6  0  0  0
  3  9  1  0  0  0  0
  3  4  1  0  0  0  0
  3  8  1  0  0  0  0
  4  5  1  0  0  0  0
  5  6  1  0  0  0  0
  5 13  1  0  0  0  0
  6 15  1  1  0  0  0
  6  7  1  0  0  0  0
  7 16  1  0  0  0  0
  7 17  1  0  0  0  0
  8 18  1  6  0  0  0
  8  7  1  0  0  0  0
  9 19  1  6  0  0  0
  9  8  1  0  0  0  0
  9  6  1  0  0  0  0
 11  2  1  0  0  0  0
 12  2  1  0  0  0  0
 14  5  1  0  0  0  0
M TOR 0 0 1 2 3
M TOR 1 0 1 2 7
M TOR 2 0 1 2 8
M TOR 3 1 2 3 4
M TOR 4 1 2 7 6
M TOR 5 1 2 7 8
M TOR 6 1 2 7 17
M TOR 7 1 2 8 5
M TOR 8 1 2 8 18
M TOR 9 2 1 0 9
M TOR 10 2 3 4 5
M TOR 11 2 3 4 12
M TOR 12 2 3 4 13
M TOR 13 2 7 6 5
M TOR 14 2 7 6 15
M TOR 15 2 7 6 16
M TOR 16 2 7 8 5
M TOR 17 2 7 8 18
M TOR 18 2 8 5 4
M TOR 19 2 8 5 6
M TOR 20 2 8 5 14
M TOR 21 2 8 7 6
M TOR 22 2 8 7 17
M TOR 23 3 2 1 10
M TOR 24 3 2 1 11
M TOR 25 3 2 7 6
M TOR 26 3 2 7 8
M TOR 27 3 2 7 17
M TOR 28 3 2 8 5
M TOR 29 3 2 8 18
M TOR 30 3 4 5 6
M TOR 31 3 4 5 8
M TOR 32 3 4 5 14
M TOR 33 4 3 2 7
M TOR 34 4 3 2 8
M TOR 35 4 5 6 7
M TOR 36 4 5 6 15
M TOR 37 4 5 6 16
M TOR 38 4 5 8 7
M TOR 39 4 5 8 18
M TOR 40 5 6 7 8
M TOR 41 5 6 7 17
M TOR 42 5 8 7 17
M TOR 43 6 5 4 12
M TOR 44 6 5 4 13
M TOR 45 6 5 8 18
M TOR 46 6 7 8 18
M TOR 47 7 2 1 10
M TOR 48 7 2 1 11
M TOR 49 7 6 5 14
M TOR 50 7 8 5 14
M TOR 51 8 2 1 10
M TOR 52 8 2 1 11
M TOR 53 8 5 4 12
M TOR 54 8 5 4 13
M TOR 55 8 5 6 15
M TOR 56 8 5 6 16
M TOR 57 8 7 6 15
M TOR 58 8 7 6 16
M  END
$$$$
