gdb 3273	3.1122501	1.8382551	1.5716014	2.3073	72.49	-0.25205	0.08653	0.33858	915.908	0.160634	-422.554651	-422.54809	-422.547146	-422.585303	27.481
 OpenBabel02181911413D

 19 21  0  0  1  0  0  0  0  0999 V2000
    2.1148   -0.8948   -1.4441 C   0  0  0  0  0  0  0  0  0  0  0  0
    2.0678   -0.7456    0.0772 C   0  0  2  0  0  0  0  0  0  0  0  0
    1.2544    0.4219    0.7061 C   0  0  2  0  0  0  0  0  0  0  0  0
    1.9705    1.6278    0.0613 C   0  0  0  0  0  0  0  0  0  0  0  0
    3.2709    1.3232    0.8246 C   0  0  1  0  0  0  0  0  0  0  0  0
    2.7818    1.5918    2.1495 O   0  0  0  0  0  0  0  0  0  0  0  0
    1.9289    0.4620    2.1873 C   0  0  2  0  0  0  0  0  0  0  0  0
    2.8770   -0.5911    2.1720 O   0  0  0  0  0  0  0  0  0  0  0  0
    3.3389   -0.3109    0.8416 C   0  0  1  0  0  0  0  0  0  0  0  0
    2.6195   -1.8308   -1.7053 H   0  0  0  0  0  0  0  0  0  0  0  0
    1.1046   -0.9393   -1.8656 H   0  0  0  0  0  0  0  0  0  0  0  0
    2.6520   -0.0913   -1.9530 H   0  0  0  0  0  0  0  0  0  0  0  0
    1.7590   -1.7030    0.5033 H   0  0  0  0  0  0  0  0  0  0  0  0
    0.1673    0.3735    0.6727 H   0  0  0  0  0  0  0  0  0  0  0  0
    2.0084    1.5787   -1.0259 H   0  0  0  0  0  0  0  0  0  0  0  0
    1.5899    2.6037    0.3642 H   0  0  0  0  0  0  0  0  0  0  0  0
    4.1856    1.8752    0.6214 H   0  0  0  0  0  0  0  0  0  0  0  0
    1.3034    0.4441    3.0762 H   0  0  0  0  0  0  0  0  0  0  0  0
    4.2970   -0.7881    0.6449 H   0  0  0  0  0  0  0  0  0  0  0  0
  1  2  1  0  0  0  0
  2 13  1  1  0  0  0
  2  3  1  0  0  0  0
  2  9  1  0  0  0  0
  3 14  1  6  0  0  0
  3  7  1  0  0  0  0
  4 16  1  0  0  0  0
  4  3  1  0  0  0  0
  4  5  1  0  0  0  0
  5 17  1  6  0  0  0
  5  9  1  0  0  0  0
  5  6  1  0  0  0  0
  6  7  1  0  0  0  0
  7 18  1  1  0  0  0
  8  7  1  0  0  0  0
  9 19  1  6  0  0  0
  9  8  1  0  0  0  0
 10  1  1  0  0  0  0
 11  1  1  0  0  0  0
 12  1  1  0  0  0  0
 15  4  1  0  0  0  0
M TOR 0 0 1 2 3
M TOR 1 0 1 2 6
M TOR 2 0 1 2 13
M TOR 3 0 1 8 4
M TOR 4 0 1 8 7
M TOR 5 0 1 8 18
M TOR 6 1 2 3 4
M TOR 7 1 2 3 14
M TOR 8 1 2 3 15
M TOR 9 1 2 6 5
M TOR 10 1 2 6 7
M TOR 11 1 2 6 17
M TOR 12 1 8 4 3
M TOR 13 1 8 4 5
M TOR 14 1 8 4 16
M TOR 15 1 8 7 6
M TOR 16 2 1 0 9
M TOR 17 2 1 0 10
M TOR 18 2 1 0 11
M TOR 19 2 1 8 4
M TOR 20 2 1 8 7
M TOR 21 2 1 8 18
M TOR 22 2 3 4 5
M TOR 23 2 3 4 8
M TOR 24 2 3 4 16
M TOR 25 2 6 5 4
M TOR 26 2 6 7 8
M TOR 27 3 2 1 8
M TOR 28 3 2 1 12
M TOR 29 3 2 6 5
M TOR 30 3 2 6 7
M TOR 31 3 2 6 17
M TOR 32 3 4 5 6
M TOR 33 3 4 8 7
M TOR 34 3 4 8 18
M TOR 35 4 3 2 6
M TOR 36 4 3 2 13
M TOR 37 4 5 6 7
M TOR 38 4 5 6 17
M TOR 39 4 8 1 12
M TOR 40 4 8 7 6
M TOR 41 5 4 3 14
M TOR 42 5 4 3 15
M TOR 43 5 4 8 7
M TOR 44 5 4 8 18
M TOR 45 5 6 2 13
M TOR 46 5 6 7 8
M TOR 47 6 2 1 8
M TOR 48 6 2 1 12
M TOR 49 6 2 3 14
M TOR 50 6 2 3 15
M TOR 51 6 5 4 8
M TOR 52 6 5 4 16
M TOR 53 6 7 8 18
M TOR 54 7 6 2 13
M TOR 55 7 8 1 12
M TOR 56 7 8 4 16
M TOR 57 8 1 0 9
M TOR 58 8 1 0 10
M TOR 59 8 1 0 11
M TOR 60 8 1 2 13
M TOR 61 8 4 3 14
M TOR 62 8 4 3 15
M TOR 63 8 7 6 17
M  END
$$$$
