
     RDKit          3D

 19 19  0  0  0  0  0  0  0  0999 V2000
    0.7920    2.7490    3.7570 C   0  0  0  0  0  0  0  0  0  0  0  0
   -0.2081    2.2510    2.7316 C   0  0  0  0  0  0  0  0  0  0  0  0
   -1.4723    2.9195    2.8775 O   0  0  0  0  0  0  0  0  0  0  0  0
    0.1408    2.3277    1.2243 C   0  0  0  0  0  0  0  0  0  0  0  0
   -0.6134    0.9677    1.0202 C   0  0  0  0  0  0  0  0  0  0  0  0
   -1.9706    1.1479    0.6633 O   0  0  0  0  0  0  0  0  0  0  0  0
   -0.4222    0.7186    2.5582 C   0  0  0  0  0  0  0  0  0  0  0  0
   -0.0114    0.0024    0.1152 C   0  0  0  0  0  0  0  0  0  0  0  0
    0.5328   -0.7907   -0.6051 C   0  0  0  0  0  0  0  0  0  0  0  0
    0.4572    2.5171    4.7759 H   0  0  0  0  0  0  0  0  0  0  0  0
    1.7688    2.2774    3.6139 H   0  0  0  0  0  0  0  0  0  0  0  0
    0.9126    3.8339    3.6781 H   0  0  0  0  0  0  0  0  0  0  0  0
   -1.8210    2.7036    3.7503 H   0  0  0  0  0  0  0  0  0  0  0  0
   -0.2583    3.1807    0.6720 H   0  0  0  0  0  0  0  0  0  0  0  0
    1.2135    2.2300    1.0486 H   0  0  0  0  0  0  0  0  0  0  0  0
   -2.3079    1.8289    1.2632 H   0  0  0  0  0  0  0  0  0  0  0  0
   -1.2757    0.2670    3.0710 H   0  0  0  0  0  0  0  0  0  0  0  0
    0.4847    0.1476    2.7693 H   0  0  0  0  0  0  0  0  0  0  0  0
    0.9982   -1.4937   -1.2507 H   0  0  0  0  0  0  0  0  0  0  0  0
  1  2  1  0
  2  3  1  0
  2  4  1  0
  4  5  1  0
  5  6  1  0
  5  7  1  0
  5  8  1  0
  8  9  3  0
  7  2  1  0
  1 10  1  0
  1 11  1  0
  1 12  1  0
  3 13  1  0
  4 14  1  0
  4 15  1  0
  6 16  1  0
  7 17  1  0
  7 18  1  0
  9 19  1  0
M  END
$$$$
