gdb 3676	2.4873328	1.4727394	1.1604339	0.8102	75.8	-0.24281	0.06137	0.30418	1135.294	0.15533	-422.508713	-422.499888	-422.498943	-422.541968	33.28
 OpenBabel02181911413D

 19 21  0  0  1  0  0  0  0  0999 V2000
    0.0980    0.3507   -0.0606 C   0  0  0  0  0  0  0  0  0  0  0  0
    1.0266   -0.8255    0.0947 C   0  0  1  0  0  0  0  0  0  0  0  0
    2.0822   -0.9556   -0.8773 O   0  0  0  0  0  0  0  0  0  0  0  0
    2.4294   -0.6915    0.4793 C   0  0  1  0  0  0  0  0  0  0  0  0
    3.1830    0.5160    0.9764 C   0  0  2  0  0  0  0  0  0  0  0  0
    4.6631    0.2907    0.7983 C   0  0  0  0  0  0  0  0  0  0  0  0
    3.9660   -0.4012    1.9307 C   0  0  2  0  0  0  0  0  0  0  0  0
    3.2354   -1.6412    1.4053 C   0  0  1  0  0  0  0  0  0  0  0  0
    2.4810   -2.2530    2.4296 O   0  0  0  0  0  0  0  0  0  0  0  0
   -0.4779    0.5073    0.8578 H   0  0  0  0  0  0  0  0  0  0  0  0
    0.6568    1.2624   -0.2854 H   0  0  0  0  0  0  0  0  0  0  0  0
   -0.6104    0.1746   -0.8768 H   0  0  0  0  0  0  0  0  0  0  0  0
    0.5331   -1.7708    0.3324 H   0  0  0  0  0  0  0  0  0  0  0  0
    2.7685    1.4999    1.1581 H   0  0  0  0  0  0  0  0  0  0  0  0
    5.0318   -0.2770   -0.0525 H   0  0  0  0  0  0  0  0  0  0  0  0
    5.2918    1.1295    1.0785 H   0  0  0  0  0  0  0  0  0  0  0  0
    4.2098   -0.2455    2.9728 H   0  0  0  0  0  0  0  0  0  0  0  0
    3.8693   -2.3716    0.8816 H   0  0  0  0  0  0  0  0  0  0  0  0
    2.0393   -3.0224    2.0569 H   0  0  0  0  0  0  0  0  0  0  0  0
  1  2  1  0  0  0  0
  1 10  1  0  0  0  0
  2 13  1  1  0  0  0
  2  4  1  0  0  0  0
  3  2  1  0  0  0  0
  4  3  1  6  0  0  0
  4  5  1  0  0  0  0
  4  8  1  0  0  0  0
  5 14  1  1  0  0  0
  5  7  1  0  0  0  0
  6  5  1  0  0  0  0
  6 16  1  0  0  0  0
  6  7  1  0  0  0  0
  7 17  1  1  0  0  0
  8 18  1  6  0  0  0
  8  7  1  0  0  0  0
  8  9  1  0  0  0  0
 11  1  1  0  0  0  0
 12  1  1  0  0  0  0
 15  6  1  0  0  0  0
 19  9  1  0  0  0  0
M TOR 0 0 1 2 3
M TOR 1 0 1 3 4
M TOR 2 0 1 3 7
M TOR 3 1 2 3 4
M TOR 4 1 2 3 7
M TOR 5 1 3 4 5
M TOR 6 1 3 4 6
M TOR 7 1 3 4 13
M TOR 8 1 3 7 6
M TOR 9 1 3 7 8
M TOR 10 1 3 7 17
M TOR 11 2 1 0 9
M TOR 12 2 1 0 10
M TOR 13 2 1 0 11
M TOR 14 2 3 1 12
M TOR 15 2 3 4 5
M TOR 16 2 3 4 6
M TOR 17 2 3 4 13
M TOR 18 2 3 7 6
M TOR 19 2 3 7 8
M TOR 20 2 3 7 17
M TOR 21 3 1 0 9
M TOR 22 3 1 0 10
M TOR 23 3 1 0 11
M TOR 24 3 4 5 6
M TOR 25 3 4 5 14
M TOR 26 3 4 5 15
M TOR 27 3 4 6 7
M TOR 28 3 4 6 16
M TOR 29 3 7 6 5
M TOR 30 3 7 6 16
M TOR 31 3 7 8 18
M TOR 32 4 3 1 12
M TOR 33 4 3 7 8
M TOR 34 4 3 7 17
M TOR 35 4 5 6 7
M TOR 36 4 5 6 16
M TOR 37 4 6 5 14
M TOR 38 4 6 5 15
M TOR 39 4 6 7 8
M TOR 40 4 6 7 17
M TOR 41 5 4 3 7
M TOR 42 5 6 4 13
M TOR 43 5 6 7 8
M TOR 44 5 6 7 17
M TOR 45 6 7 8 18
M TOR 46 7 3 1 12
M TOR 47 7 3 4 13
M TOR 48 7 6 4 13
M TOR 49 7 6 5 14
M TOR 50 7 6 5 15
M TOR 51 8 7 6 16
M  END
$$$$
