gdb 4395	3.7573274	1.0196295	0.907414	1.3195	78.23	-0.24441	-0.03592	0.20848999999999998	1293.4488	0.157137	-422.583154	-422.574253	-422.573309	-422.617451	32.644
 OpenBabel02181911413D

 19 19  0  0  1  0  0  0  0  0999 V2000
    2.1956    3.0777   -3.8046 O   0  0  0  0  0  0  0  0  0  0  0  0
    2.1269    1.7935   -3.1729 C   0  0  1  0  0  0  0  0  0  0  0  0
    3.2571    1.5840   -2.1549 C   0  0  0  0  0  0  0  0  0  0  0  0
    2.9412    2.2447   -0.8068 C   0  0  0  0  0  0  0  0  0  0  0  0
    1.6237    1.7230   -0.1945 C   0  0  2  0  0  0  0  0  0  0  0  0
    1.8074    0.3679    0.4836 C   0  0  0  0  0  0  0  0  0  0  0  0
    1.4246    0.1050    1.5935 O   0  0  0  0  0  0  0  0  0  0  0  0
    0.5407    1.5849   -1.2414 C   0  0  0  0  0  0  0  0  0  0  0  0
    0.7661    1.5917   -2.5567 C   0  0  0  0  0  0  0  0  0  0  0  0
    1.8132    3.7201   -3.1976 H   0  0  0  0  0  0  0  0  0  0  0  0
    2.2613    1.0843   -3.9978 H   0  0  0  0  0  0  0  0  0  0  0  0
    3.4160    0.5073   -2.0209 H   0  0  0  0  0  0  0  0  0  0  0  0
    4.1800    1.9937   -2.5756 H   0  0  0  0  0  0  0  0  0  0  0  0
    3.7688    2.1048   -0.1031 H   0  0  0  0  0  0  0  0  0  0  0  0
    2.8423    3.3279   -0.9498 H   0  0  0  0  0  0  0  0  0  0  0  0
    1.2756    2.3985    0.5946 H   0  0  0  0  0  0  0  0  0  0  0  0
    2.3195   -0.3969   -0.1432 H   0  0  0  0  0  0  0  0  0  0  0  0
   -0.4708    1.4557   -0.8640 H   0  0  0  0  0  0  0  0  0  0  0  0
   -0.0674    1.5128   -3.2502 H   0  0  0  0  0  0  0  0  0  0  0  0
  1 10  1  0  0  0  0
  1  2  1  0  0  0  0
  2 11  1  6  0  0  0
  2  9  1  0  0  0  0
  2  3  1  0  0  0  0
  3 12  1  0  0  0  0
  3  4  1  0  0  0  0
  4  5  1  0  0  0  0
  4 14  1  0  0  0  0
  5  6  1  0  0  0  0
  5 16  1  1  0  0  0
  6  7  2  0  0  0  0
  8 18  1  0  0  0  0
  8  5  1  0  0  0  0
  9  8  2  0  0  0  0
 13  3  1  0  0  0  0
 15  4  1  0  0  0  0
 17  6  1  0  0  0  0
 19  9  1  0  0  0  0
M TOR 0 0 1 2 3
M TOR 1 0 1 2 11
M TOR 2 0 1 2 12
M TOR 3 0 1 8 7
M TOR 4 0 1 8 18
M TOR 5 1 2 3 4
M TOR 6 1 2 3 13
M TOR 7 1 2 3 14
M TOR 8 1 8 7 4
M TOR 9 1 8 7 17
M TOR 10 2 1 0 9
M TOR 11 2 1 8 7
M TOR 12 2 1 8 18
M TOR 13 2 3 4 5
M TOR 14 2 3 4 7
M TOR 15 2 3 4 15
M TOR 16 3 2 1 8
M TOR 17 3 2 1 10
M TOR 18 3 4 5 6
M TOR 19 3 4 5 16
M TOR 20 3 4 7 8
M TOR 21 3 4 7 17
M TOR 22 4 3 2 11
M TOR 23 4 3 2 12
M TOR 24 4 7 8 18
M TOR 25 5 4 3 13
M TOR 26 5 4 3 14
M TOR 27 5 4 7 8
M TOR 28 5 4 7 17
M TOR 29 6 5 4 7
M TOR 30 6 5 4 15
M TOR 31 7 4 3 13
M TOR 32 7 4 3 14
M TOR 33 7 4 5 16
M TOR 34 7 8 1 10
M TOR 35 8 1 0 9
M TOR 36 8 1 2 11
M TOR 37 8 1 2 12
M TOR 38 8 7 4 15
M  END
$$$$
