gdb 2464	2.8458202	1.7701394	1.4184353	2.0469	73.29	-0.24016	0.06763	0.30779	966.0264	0.159064	-422.56129	-422.553845	-422.552901	-422.592922	29.765
 OpenBabel02181911413D

 19 21  0  0  1  0  0  0  0  0999 V2000
    0.4397    0.3312    0.7701 O   0  0  0  0  0  0  0  0  0  0  0  0
   -0.5082    1.2998    1.1003 C   0  0  1  0  0  0  0  0  0  0  0  0
   -1.6055    1.5966    0.0860 C   0  0  0  0  0  0  0  0  0  0  0  0
   -1.8583    2.9948    0.1464 O   0  0  0  0  0  0  0  0  0  0  0  0
   -1.1639    3.5856    1.2597 C   0  0  1  0  0  0  0  0  0  0  0  0
   -2.0966    3.6357    2.4810 C   0  0  0  0  0  0  0  0  0  0  0  0
   -2.0939    2.1833    3.0236 C   0  0  0  0  0  0  0  0  0  0  0  0
   -0.7491    1.6104    2.5673 C   0  0  2  0  0  0  0  0  0  0  0  0
   -0.0521    2.6105    1.6562 C   0  0  1  0  0  0  0  0  0  0  0  0
    0.0910   -0.5291    1.0266 H   0  0  0  0  0  0  0  0  0  0  0  0
   -1.2440    1.3267   -0.9142 H   0  0  0  0  0  0  0  0  0  0  0  0
   -2.5352    1.0393    0.2769 H   0  0  0  0  0  0  0  0  0  0  0  0
   -0.8119    4.5701    0.9419 H   0  0  0  0  0  0  0  0  0  0  0  0
   -1.6708    4.3131    3.2307 H   0  0  0  0  0  0  0  0  0  0  0  0
   -3.0896    4.0051    2.2124 H   0  0  0  0  0  0  0  0  0  0  0  0
   -2.1779    2.1555    4.1134 H   0  0  0  0  0  0  0  0  0  0  0  0
   -2.9400    1.6095    2.6290 H   0  0  0  0  0  0  0  0  0  0  0  0
   -0.1527    1.0259    3.2599 H   0  0  0  0  0  0  0  0  0  0  0  0
    0.9904    2.8890    1.7330 H   0  0  0  0  0  0  0  0  0  0  0  0
  1 10  1  0  0  0  0
  2  1  1  6  0  0  0
  2  9  1  0  0  0  0
  2  8  1  0  0  0  0
  3  4  1  0  0  0  0
  3 12  1  0  0  0  0
  3  2  1  0  0  0  0
  4  5  1  0  0  0  0
  5 13  1  6  0  0  0
  5  9  1  0  0  0  0
  5  6  1  0  0  0  0
  6  7  1  0  0  0  0
  6 14  1  0  0  0  0
  7 16  1  0  0  0  0
  8  7  1  0  0  0  0
  8 18  1  1  0  0  0
  9 19  1  1  0  0  0
  9  8  1  0  0  0  0
 11  3  1  0  0  0  0
 15  6  1  0  0  0  0
 17  7  1  0  0  0  0
M TOR 0 0 1 2 3
M TOR 1 0 1 2 10
M TOR 2 0 1 2 11
M TOR 3 0 1 7 6
M TOR 4 0 1 7 8
M TOR 5 0 1 7 17
M TOR 6 0 1 8 4
M TOR 7 0 1 8 18
M TOR 8 1 2 3 4
M TOR 9 1 7 6 5
M TOR 10 1 7 6 15
M TOR 11 1 7 6 16
M TOR 12 1 7 8 4
M TOR 13 1 7 8 18
M TOR 14 1 8 4 3
M TOR 15 1 8 4 5
M TOR 16 1 8 4 12
M TOR 17 1 8 7 6
M TOR 18 1 8 7 17
M TOR 19 2 1 0 9
M TOR 20 2 1 7 6
M TOR 21 2 1 7 8
M TOR 22 2 1 7 17
M TOR 23 2 1 8 4
M TOR 24 2 1 8 18
M TOR 25 2 3 4 5
M TOR 26 2 3 4 8
M TOR 27 2 3 4 12
M TOR 28 3 2 1 7
M TOR 29 3 2 1 8
M TOR 30 3 4 5 6
M TOR 31 3 4 5 13
M TOR 32 3 4 5 14
M TOR 33 3 4 8 7
M TOR 34 3 4 8 18
M TOR 35 4 3 2 10
M TOR 36 4 3 2 11
M TOR 37 4 5 6 7
M TOR 38 4 5 6 15
M TOR 39 4 5 6 16
M TOR 40 4 8 7 6
M TOR 41 4 8 7 17
M TOR 42 5 4 8 7
M TOR 43 5 4 8 18
M TOR 44 5 6 7 8
M TOR 45 5 6 7 17
M TOR 46 6 5 4 8
M TOR 47 6 5 4 12
M TOR 48 6 7 8 18
M TOR 49 7 1 0 9
M TOR 50 7 1 2 10
M TOR 51 7 1 2 11
M TOR 52 7 6 5 13
M TOR 53 7 6 5 14
M TOR 54 7 8 4 12
M TOR 55 8 1 0 9
M TOR 56 8 1 2 10
M TOR 57 8 1 2 11
M TOR 58 8 4 5 13
M TOR 59 8 4 5 14
M TOR 60 8 7 6 15
M TOR 61 8 7 6 16
M  END
$$$$
