gdb 3949	2.6333218	1.6545078	1.5238485	2.2957	73.86	-0.22696	0.06081	0.28776999999999997	977.579	0.156737	-422.47976	-422.471826	-422.470882	-422.511825	31.302
 OpenBabel02181911413D

 19 21  0  0  1  0  0  0  0  0999 V2000
    0.4447    0.1006    0.5980 O   0  0  0  0  0  0  0  0  0  0  0  0
   -0.7904    0.7204    0.3273 C   0  0  2  0  0  0  0  0  0  0  0  0
   -2.0775   -0.2049    0.2904 C   0  0  0  0  0  0  0  0  0  0  0  0
   -2.2640    0.2150   -1.1890 C   0  0  1  0  0  0  0  0  0  0  0  0
   -3.1098    1.4257   -1.6618 C   0  0  0  0  0  0  0  0  0  0  0  0
   -1.7904    2.2934   -1.6358 C   0  0  0  0  0  0  0  0  0  0  0  0
   -0.9921    1.0398   -1.1774 C   0  0  1  0  0  0  0  0  0  0  0  0
   -0.4975    0.0212   -2.2185 C   0  0  0  0  0  0  0  0  0  0  0  0
   -1.7795   -0.6968   -2.1930 O   0  0  0  0  0  0  0  0  0  0  0  0
    0.4241   -0.2325    1.5013 H   0  0  0  0  0  0  0  0  0  0  0  0
   -0.9361    1.6096    0.9585 H   0  0  0  0  0  0  0  0  0  0  0  0
   -1.8411   -1.2672    0.3877 H   0  0  0  0  0  0  0  0  0  0  0  0
   -2.8759    0.0613    0.9884 H   0  0  0  0  0  0  0  0  0  0  0  0
   -3.5466    1.2797   -2.6516 H   0  0  0  0  0  0  0  0  0  0  0  0
   -3.8951    1.7510   -0.9741 H   0  0  0  0  0  0  0  0  0  0  0  0
   -1.4866    2.7093   -2.6000 H   0  0  0  0  0  0  0  0  0  0  0  0
   -1.8011    3.1055   -0.9038 H   0  0  0  0  0  0  0  0  0  0  0  0
   -0.2825    0.4225   -3.2162 H   0  0  0  0  0  0  0  0  0  0  0  0
    0.3289   -0.6166   -1.8905 H   0  0  0  0  0  0  0  0  0  0  0  0
  1 10  1  0  0  0  0
  2  1  1  0  0  0  0
  2 11  1  1  0  0  0
  3  2  1  0  0  0  0
  3 12  1  0  0  0  0
  3 13  1  0  0  0  0
  4  9  1  6  0  0  0
  4  7  1  0  0  0  0
  4  3  1  0  0  0  0
  5  6  1  0  0  0  0
  5  4  1  0  0  0  0
  5 15  1  0  0  0  0
  6  7  1  0  0  0  0
  6 17  1  0  0  0  0
  7  8  1  6  0  0  0
  7  2  1  0  0  0  0
  8  9  1  0  0  0  0
  8 19  1  0  0  0  0
 14  5  1  0  0  0  0
 16  6  1  0  0  0  0
 18  8  1  0  0  0  0
M TOR 0 0 1 2 3
M TOR 1 0 1 2 11
M TOR 2 0 1 2 12
M TOR 3 0 1 6 3
M TOR 4 0 1 6 5
M TOR 5 0 1 6 7
M TOR 6 1 2 3 4
M TOR 7 1 2 3 6
M TOR 8 1 2 3 8
M TOR 9 1 6 3 4
M TOR 10 1 6 3 8
M TOR 11 1 6 5 4
M TOR 12 1 6 5 15
M TOR 13 1 6 5 16
M TOR 14 1 6 7 8
M TOR 15 1 6 7 17
M TOR 16 1 6 7 18
M TOR 17 2 1 0 9
M TOR 18 2 1 6 5
M TOR 19 2 1 6 7
M TOR 20 2 3 4 5
M TOR 21 2 3 4 13
M TOR 22 2 3 4 14
M TOR 23 2 3 6 5
M TOR 24 2 3 6 7
M TOR 25 2 3 8 7
M TOR 26 3 2 1 10
M TOR 27 3 4 5 6
M TOR 28 3 4 5 15
M TOR 29 3 4 5 16
M TOR 30 3 6 1 10
M TOR 31 3 6 5 15
M TOR 32 3 6 5 16
M TOR 33 3 6 7 8
M TOR 34 3 6 7 17
M TOR 35 3 6 7 18
M TOR 36 3 8 7 17
M TOR 37 3 8 7 18
M TOR 38 4 3 2 11
M TOR 39 4 3 2 12
M TOR 40 4 3 6 7
M TOR 41 4 3 8 7
M TOR 42 4 5 6 7
M TOR 43 5 4 3 8
M TOR 44 5 6 1 10
M TOR 45 5 6 3 8
M TOR 46 5 6 7 8
M TOR 47 5 6 7 17
M TOR 48 5 6 7 18
M TOR 49 6 1 0 9
M TOR 50 6 1 2 11
M TOR 51 6 1 2 12
M TOR 52 6 3 2 11
M TOR 53 6 3 2 12
M TOR 54 6 3 4 13
M TOR 55 6 3 4 14
M TOR 56 6 5 4 13
M TOR 57 6 5 4 14
M TOR 58 7 6 1 10
M TOR 59 7 6 5 15
M TOR 60 7 6 5 16
M TOR 61 8 3 2 11
M TOR 62 8 3 2 12
M TOR 63 8 3 4 13
M TOR 64 8 3 4 14
M  END
$$$$
