
     RDKit          3D

 19 21  0  0  0  0  0  0  0  0999 V2000
   -1.7617    1.3820    2.0313 O   0  0  0  0  0  0  0  0  0  0  0  0
   -1.3064    2.0318    0.8982 C   0  0  0  0  0  0  0  0  0  0  0  0
   -1.3825    3.5242    0.7263 C   0  0  0  0  0  0  0  0  0  0  0  0
   -2.1371    2.6225   -0.2280 C   0  0  0  0  0  0  0  0  0  0  0  0
   -1.1600    2.0464   -1.2608 C   0  0  0  0  0  0  0  0  0  0  0  0
   -0.3241    1.4160   -0.1065 C   0  0  0  0  0  0  0  0  0  0  0  0
    1.2033    1.5200    0.0636 C   0  0  0  0  0  0  0  0  0  0  0  0
    1.3245    0.0955    0.2500 O   0  0  0  0  0  0  0  0  0  0  0  0
   -0.0757   -0.1027   -0.0419 C   0  0  0  0  0  0  0  0  0  0  0  0
   -1.1885    1.6139    2.7705 H   0  0  0  0  0  0  0  0  0  0  0  0
   -2.0050    4.0186    1.4654 H   0  0  0  0  0  0  0  0  0  0  0  0
   -0.5295    4.1079    0.3847 H   0  0  0  0  0  0  0  0  0  0  0  0
   -3.2131    2.6796   -0.3303 H   0  0  0  0  0  0  0  0  0  0  0  0
   -1.6037    1.2823   -1.9049 H   0  0  0  0  0  0  0  0  0  0  0  0
   -0.6413    2.7791   -1.8889 H   0  0  0  0  0  0  0  0  0  0  0  0
    1.7466    1.8652   -0.8272 H   0  0  0  0  0  0  0  0  0  0  0  0
    1.5579    2.0859    0.9357 H   0  0  0  0  0  0  0  0  0  0  0  0
   -0.2258   -0.6350   -0.9913 H   0  0  0  0  0  0  0  0  0  0  0  0
   -0.5961   -0.6331    0.7632 H   0  0  0  0  0  0  0  0  0  0  0  0
  1  2  1  0
  2  3  1  0
  3  4  1  0
  4  5  1  0
  5  6  1  0
  6  7  1  0
  7  8  1  0
  8  9  1  0
  4  2  1  0
  9  6  1  0
  6  2  1  0
  1 10  1  0
  3 11  1  0
  3 12  1  0
  4 13  1  0
  5 14  1  0
  5 15  1  0
  7 16  1  0
  7 17  1  0
  9 18  1  0
  9 19  1  0
M  END
$$$$
