gdb 3313	3.4162186	1.1447395	0.9630089	2.1308	74.91	-0.2328	-0.0133	0.2195	1228.9338	0.157571	-422.574695	-422.566306	-422.565362	-422.608172	31.979
 OpenBabel02181911413D

 19 20  0  0  1  0  0  0  0  0999 V2000
   -4.4586    1.2684   -1.2871 O   0  0  0  0  0  0  0  0  0  0  0  0
   -3.2916    0.7057   -0.7606 C   0  0  1  0  0  0  0  0  0  0  0  0
   -2.4449   -0.0566   -1.7321 C   0  0  2  0  0  0  0  0  0  0  0  0
   -1.7390   -1.3430   -1.3460 C   0  0  0  0  0  0  0  0  0  0  0  0
   -1.0707   -1.2687    0.0407 C   0  0  0  0  0  0  0  0  0  0  0  0
   -0.1690   -0.0532    0.1801 C   0  0  0  0  0  0  0  0  0  0  0  0
    0.9638   -0.1353    0.5945 O   0  0  0  0  0  0  0  0  0  0  0  0
   -0.7648    1.3012   -0.2109 C   0  0  0  0  0  0  0  0  0  0  0  0
   -1.9488    1.2676   -1.1687 C   0  0  2  0  0  0  0  0  0  0  0  0
   -4.6186    2.1026   -0.8329 H   0  0  0  0  0  0  0  0  0  0  0  0
   -3.3901    0.3213    0.2563 H   0  0  0  0  0  0  0  0  0  0  0  0
   -2.8130   -0.0204   -2.7529 H   0  0  0  0  0  0  0  0  0  0  0  0
   -2.4411   -2.1849   -1.3686 H   0  0  0  0  0  0  0  0  0  0  0  0
   -0.9689   -1.5617   -2.0964 H   0  0  0  0  0  0  0  0  0  0  0  0
   -1.8432   -1.2044    0.8193 H   0  0  0  0  0  0  0  0  0  0  0  0
   -0.4752   -2.1607    0.2476 H   0  0  0  0  0  0  0  0  0  0  0  0
   -1.0370    1.8048    0.7290 H   0  0  0  0  0  0  0  0  0  0  0  0
    0.0575    1.8877   -0.6311 H   0  0  0  0  0  0  0  0  0  0  0  0
   -2.0138    2.1163   -1.8427 H   0  0  0  0  0  0  0  0  0  0  0  0
  1 10  1  0  0  0  0
  1  2  1  0  0  0  0
  2 11  1  1  0  0  0
  3 12  1  6  0  0  0
  3  4  1  0  0  0  0
  3  9  1  0  0  0  0
  3  2  1  0  0  0  0
  4  5  1  0  0  0  0
  5  6  1  0  0  0  0
  5 16  1  0  0  0  0
  5 15  1  0  0  0  0
  6  7  2  0  0  0  0
  8  6  1  0  0  0  0
  8 17  1  0  0  0  0
  9 19  1  6  0  0  0
  9  2  1  0  0  0  0
  9  8  1  0  0  0  0
 13  4  1  0  0  0  0
 14  4  1  0  0  0  0
 18  8  1  0  0  0  0
M TOR 0 0 1 2 3
M TOR 1 0 1 2 8
M TOR 2 0 1 2 11
M TOR 3 0 1 8 7
M TOR 4 0 1 8 18
M TOR 5 1 2 3 4
M TOR 6 1 2 3 12
M TOR 7 1 2 3 13
M TOR 8 1 2 8 7
M TOR 9 1 2 8 18
M TOR 10 1 8 2 3
M TOR 11 1 8 2 11
M TOR 12 1 8 7 5
M TOR 13 1 8 7 16
M TOR 14 1 8 7 17
M TOR 15 2 1 0 9
M TOR 16 2 3 4 5
M TOR 17 2 3 4 14
M TOR 18 2 3 4 15
M TOR 19 2 8 1 10
M TOR 20 2 8 7 5
M TOR 21 2 8 7 16
M TOR 22 2 8 7 17
M TOR 23 3 2 1 10
M TOR 24 3 2 8 7
M TOR 25 3 2 8 18
M TOR 26 3 4 5 6
M TOR 27 3 4 5 7
M TOR 28 4 3 2 8
M TOR 29 4 3 2 11
M TOR 30 4 5 7 8
M TOR 31 4 5 7 16
M TOR 32 4 5 7 17
M TOR 33 5 4 3 12
M TOR 34 5 4 3 13
M TOR 35 5 7 8 18
M TOR 36 6 5 4 14
M TOR 37 6 5 4 15
M TOR 38 6 5 7 8
M TOR 39 6 5 7 16
M TOR 40 6 5 7 17
M TOR 41 7 5 4 14
M TOR 42 7 5 4 15
M TOR 43 7 8 1 10
M TOR 44 7 8 2 11
M TOR 45 8 1 0 9
M TOR 46 8 2 3 12
M TOR 47 8 2 3 13
M  END
$$$$
