
     RDKit          3D

 19 21  0  0  0  0  0  0  0  0999 V2000
    1.3578    0.1077   -0.1769 C   0  0  0  0  0  0  0  0  0  0  0  0
   -0.0300    0.0631    0.0839 O   0  0  0  0  0  0  0  0  0  0  0  0
   -0.3856    0.6514    1.3058 C   0  0  0  0  0  0  0  0  0  0  0  0
   -0.2659   -0.2604    2.5630 C   0  0  0  0  0  0  0  0  0  0  0  0
   -0.8296    0.4831    3.6459 O   0  0  0  0  0  0  0  0  0  0  0  0
   -1.7212   -0.2302    2.7653 C   0  0  0  0  0  0  0  0  0  0  0  0
   -1.9160    0.6229    1.5299 C   0  0  0  0  0  0  0  0  0  0  0  0
   -2.9188    0.3970    0.4401 C   0  0  0  0  0  0  0  0  0  0  0  0
   -2.9410    1.6769    1.2443 C   0  0  0  0  0  0  0  0  0  0  0  0
    1.9398   -0.4482    0.5727 H   0  0  0  0  0  0  0  0  0  0  0  0
    1.5161   -0.3517   -1.1553 H   0  0  0  0  0  0  0  0  0  0  0  0
    1.7304    1.1429   -0.2024 H   0  0  0  0  0  0  0  0  0  0  0  0
    0.0982    1.6307    1.4343 H   0  0  0  0  0  0  0  0  0  0  0  0
    0.4682   -1.0254    2.7881 H   0  0  0  0  0  0  0  0  0  0  0  0
   -2.3923   -0.9520    3.2168 H   0  0  0  0  0  0  0  0  0  0  0  0
   -2.5490    0.4298   -0.5781 H   0  0  0  0  0  0  0  0  0  0  0  0
   -3.7038   -0.3323    0.6130 H   0  0  0  0  0  0  0  0  0  0  0  0
   -2.6053    2.5886    0.7606 H   0  0  0  0  0  0  0  0  0  0  0  0
   -3.7397    1.8219    1.9644 H   0  0  0  0  0  0  0  0  0  0  0  0
  1  2  1  0
  2  3  1  0
  3  4  1  0
  4  5  1  0
  5  6  1  0
  6  7  1  0
  7  8  1  0
  8  9  1  0
  7  3  1  0
  9  7  1  0
  6  4  1  0
  1 10  1  0
  1 11  1  0
  1 12  1  0
  3 13  1  0
  4 14  1  0
  6 15  1  0
  8 16  1  0
  8 17  1  0
  9 18  1  0
  9 19  1  0
M  END
$$$$
