
     RDKit          3D

 19 19  0  0  0  0  0  0  0  0999 V2000
    1.4755   -0.4060    0.0977 C   0  0  0  0  0  0  0  0  0  0  0  0
    0.0795   -0.1780    0.1818 O   0  0  0  0  0  0  0  0  0  0  0  0
   -0.3596    0.6183    1.2461 C   0  0  0  0  0  0  0  0  0  0  0  0
    0.0670    0.1156    2.6213 C   0  0  0  0  0  0  0  0  0  0  0  0
   -1.8633    0.9177    1.1184 C   0  0  0  0  0  0  0  0  0  0  0  0
   -1.6411    2.3387    1.2407 O   0  0  0  0  0  0  0  0  0  0  0  0
   -0.2069    2.1869    1.0968 C   0  0  0  0  0  0  0  0  0  0  0  0
    0.3004    2.6869   -0.1695 C   0  0  0  0  0  0  0  0  0  0  0  0
    0.7216    3.1185   -1.2098 C   0  0  0  0  0  0  0  0  0  0  0  0
    1.8395   -1.0571    0.9035 H   0  0  0  0  0  0  0  0  0  0  0  0
    1.6487   -0.9049   -0.8582 H   0  0  0  0  0  0  0  0  0  0  0  0
    2.0430    0.5330    0.1099 H   0  0  0  0  0  0  0  0  0  0  0  0
   -0.2278   -0.9310    2.7477 H   0  0  0  0  0  0  0  0  0  0  0  0
    1.1485    0.1924    2.7669 H   0  0  0  0  0  0  0  0  0  0  0  0
   -0.4176    0.7091    3.4015 H   0  0  0  0  0  0  0  0  0  0  0  0
   -2.2583    0.6433    0.1337 H   0  0  0  0  0  0  0  0  0  0  0  0
   -2.5174    0.5342    1.9085 H   0  0  0  0  0  0  0  0  0  0  0  0
    0.3158    2.6737    1.9295 H   0  0  0  0  0  0  0  0  0  0  0  0
    1.0882    3.4977   -2.1317 H   0  0  0  0  0  0  0  0  0  0  0  0
  1  2  1  0
  2  3  1  0
  3  4  1  0
  3  5  1  0
  5  6  1  0
  6  7  1  0
  7  8  1  0
  8  9  3  0
  7  3  1  0
  1 10  1  0
  1 11  1  0
  1 12  1  0
  4 13  1  0
  4 14  1  0
  4 15  1  0
  5 16  1  0
  5 17  1  0
  7 18  1  0
  9 19  1  0
M  END
$$$$
