
     RDKit          3D

 19 21  0  0  0  0  0  0  0  0999 V2000
    0.3153    0.8906    0.4713 O   0  0  0  0  0  0  0  0  0  0  0  0
   -0.6291    0.0050    1.0450 C   0  0  0  0  0  0  0  0  0  0  0  0
   -1.8376   -0.1700    0.0335 C   0  0  0  0  0  0  0  0  0  0  0  0
   -2.8936    0.3861    0.9720 C   0  0  0  0  0  0  0  0  0  0  0  0
   -4.1842    1.1999    1.0468 C   0  0  0  0  0  0  0  0  0  0  0  0
   -3.5592    2.0427    2.0676 O   0  0  0  0  0  0  0  0  0  0  0  0
   -2.2333    1.6137    1.6241 C   0  0  0  0  0  0  0  0  0  0  0  0
   -1.3588    0.5567    2.3269 C   0  0  0  0  0  0  0  0  0  0  0  0
   -2.5901   -0.3724    2.3196 C   0  0  0  0  0  0  0  0  0  0  0  0
    1.0258    1.0220    1.1079 H   0  0  0  0  0  0  0  0  0  0  0  0
   -0.1608   -0.9613    1.2796 H   0  0  0  0  0  0  0  0  0  0  0  0
   -1.6600    0.4430   -0.8530 H   0  0  0  0  0  0  0  0  0  0  0  0
   -1.9784   -1.2104   -0.2704 H   0  0  0  0  0  0  0  0  0  0  0  0
   -4.4166    1.7839    0.1463 H   0  0  0  0  0  0  0  0  0  0  0  0
   -5.0884    0.7076    1.4194 H   0  0  0  0  0  0  0  0  0  0  0  0
   -1.7372    2.4020    1.0537 H   0  0  0  0  0  0  0  0  0  0  0  0
   -0.7205    0.7201    3.1997 H   0  0  0  0  0  0  0  0  0  0  0  0
   -2.4100   -1.4491    2.2531 H   0  0  0  0  0  0  0  0  0  0  0  0
   -3.3113   -0.1473    3.1029 H   0  0  0  0  0  0  0  0  0  0  0  0
  1  2  1  0
  2  3  1  0
  3  4  1  0
  4  5  1  0
  5  6  1  0
  6  7  1  0
  7  8  1  0
  8  9  1  0
  8  2  1  0
  7  4  1  0
  9  4  1  0
  1 10  1  0
  2 11  1  0
  3 12  1  0
  3 13  1  0
  5 14  1  0
  5 15  1  0
  7 16  1  0
  8 17  1  0
  9 18  1  0
  9 19  1  0
M  END
$$$$
