gdb 4912	2.5462199	0.9795335	0.8260675	2.9784	81.98	-0.22976	0.05226	0.28202	1458.8127	0.154165	-422.513753	-422.5031	-422.502156	-422.551075	37.179
 OpenBabel02181911413D

 19 19  0  0  1  0  0  0  0  0999 V2000
    1.5368    0.0030    0.0867 C   0  0  0  0  0  0  0  0  0  0  0  0
    0.0815    0.0072    0.0501 C   0  0  0  0  0  0  0  0  0  0  0  0
   -1.1228    0.0066    0.0101 C   0  0  0  0  0  0  0  0  0  0  0  0
   -2.5600    0.0218   -0.0481 C   0  0  2  0  0  0  0  0  0  0  0  0
   -3.1813    0.5602   -1.3403 C   0  0  0  0  0  0  0  0  0  0  0  0
   -3.0712   -0.3527   -2.4113 O   0  0  0  0  0  0  0  0  0  0  0  0
   -3.3450    0.2422    1.2504 C   0  0  0  0  0  0  0  0  0  0  0  0
   -3.3058   -1.1173    0.6168 C   0  0  1  0  0  0  0  0  0  0  0  0
   -4.4170   -1.6022   -0.0872 O   0  0  0  0  0  0  0  0  0  0  0  0
    1.9262    0.7903    0.7423 H   0  0  0  0  0  0  0  0  0  0  0  0
    1.9246   -0.9545    0.4524 H   0  0  0  0  0  0  0  0  0  0  0  0
    1.9559    0.1674   -0.9122 H   0  0  0  0  0  0  0  0  0  0  0  0
   -4.2293    0.8285   -1.1496 H   0  0  0  0  0  0  0  0  0  0  0  0
   -2.6510    1.4669   -1.6454 H   0  0  0  0  0  0  0  0  0  0  0  0
   -3.5938   -1.1229   -2.1582 H   0  0  0  0  0  0  0  0  0  0  0  0
   -2.7848    0.4026    2.1638 H   0  0  0  0  0  0  0  0  0  0  0  0
   -4.2656    0.8100    1.1627 H   0  0  0  0  0  0  0  0  0  0  0  0
   -2.7005   -1.8843    1.0957 H   0  0  0  0  0  0  0  0  0  0  0  0
   -5.1192   -1.8024    0.5402 H   0  0  0  0  0  0  0  0  0  0  0  0
  1 11  1  0  0  0  0
  1 10  1  0  0  0  0
  2  1  1  0  0  0  0
  3  2  3  0  0  0  0
  4  3  1  1  0  0  0
  4  8  1  0  0  0  0
  4  7  1  0  0  0  0
  5 13  1  0  0  0  0
  5  4  1  0  0  0  0
  6 15  1  0  0  0  0
  6  5  1  0  0  0  0
  7 16  1  0  0  0  0
  8 18  1  1  0  0  0
  8  7  1  0  0  0  0
  9 19  1  0  0  0  0
  9  8  1  0  0  0  0
 12  1  1  0  0  0  0
 14  5  1  0  0  0  0
 17  7  1  0  0  0  0
M TOR 0 0 1 2 3
M TOR 1 1 2 3 4
M TOR 2 1 2 3 6
M TOR 3 1 2 3 7
M TOR 4 2 1 0 9
M TOR 5 2 1 0 10
M TOR 6 2 1 0 11
M TOR 7 2 3 4 5
M TOR 8 2 3 4 12
M TOR 9 2 3 4 13
M TOR 10 2 3 6 7
M TOR 11 2 3 6 15
M TOR 12 2 3 6 16
M TOR 13 2 3 7 8
M TOR 14 2 3 7 17
M TOR 15 3 4 5 14
M TOR 16 3 6 7 8
M TOR 17 3 6 7 17
M TOR 18 3 7 6 15
M TOR 19 3 7 6 16
M TOR 20 3 7 8 18
M TOR 21 4 3 6 7
M TOR 22 4 3 6 15
M TOR 23 4 3 6 16
M TOR 24 4 3 7 8
M TOR 25 4 3 7 17
M TOR 26 5 4 3 6
M TOR 27 5 4 3 7
M TOR 28 6 3 4 12
M TOR 29 6 3 4 13
M TOR 30 6 7 8 18
M TOR 31 7 3 4 12
M TOR 32 7 3 4 13
M TOR 33 8 7 6 15
M TOR 34 8 7 6 16
M  END
$$$$
