gdb 4773	3.0977422	0.926722	0.7522776	2.9998	79.71	-0.25646	0.01053	0.26699	1502.3683	0.153938	-422.50073	-422.490696	-422.489752	-422.535909	36.272
 OpenBabel02181911413D

 19 19  0  0  1  0  0  0  0  0999 V2000
   -0.7454   -1.2389    4.2960 C   0  0  0  0  0  0  0  0  0  0  0  0
   -0.8053    0.1376    3.6217 C   0  0  1  0  0  0  0  0  0  0  0  0
   -0.4245    1.2702    4.5948 C   0  0  0  0  0  0  0  0  0  0  0  0
   -0.7608    2.5507    4.1057 O   0  0  0  0  0  0  0  0  0  0  0  0
    0.1085    0.1637    2.4118 C   0  0  2  0  0  0  0  0  0  0  0  0
    0.1487    1.3748    1.6423 O   0  0  0  0  0  0  0  0  0  0  0  0
   -0.4004    0.1926    1.0235 C   0  0  1  0  0  0  0  0  0  0  0  0
    0.3364   -0.3697   -0.0747 C   0  0  0  0  0  0  0  0  0  0  0  0
    0.9297   -0.8519   -1.0019 C   0  0  0  0  0  0  0  0  0  0  0  0
   -1.4452   -1.2889    5.1351 H   0  0  0  0  0  0  0  0  0  0  0  0
   -1.0010   -2.0393    3.5948 H   0  0  0  0  0  0  0  0  0  0  0  0
    0.2583   -1.4453    4.6849 H   0  0  0  0  0  0  0  0  0  0  0  0
   -1.8312    0.3414    3.2912 H   0  0  0  0  0  0  0  0  0  0  0  0
   -0.9749    1.1403    5.5337 H   0  0  0  0  0  0  0  0  0  0  0  0
    0.6502    1.1939    4.8393 H   0  0  0  0  0  0  0  0  0  0  0  0
   -0.4378    2.6056    3.1979 H   0  0  0  0  0  0  0  0  0  0  0  0
    1.0961   -0.2762    2.5613 H   0  0  0  0  0  0  0  0  0  0  0  0
   -1.4808    0.2317    0.8899 H   0  0  0  0  0  0  0  0  0  0  0  0
    1.4589   -1.2749   -1.8200 H   0  0  0  0  0  0  0  0  0  0  0  0
  1 12  1  0  0  0  0
  1 10  1  0  0  0  0
  2 13  1  6  0  0  0
  2  1  1  0  0  0  0
  2  3  1  0  0  0  0
  3 15  1  0  0  0  0
  3 14  1  0  0  0  0
  4  3  1  0  0  0  0
  5 17  1  1  0  0  0
  5  2  1  0  0  0  0
  6  5  1  0  0  0  0
  7 18  1  6  0  0  0
  7  6  1  0  0  0  0
  7  5  1  0  0  0  0
  8  7  1  0  0  0  0
  9  8  3  0  0  0  0
 11  1  1  0  0  0  0
 16  4  1  0  0  0  0
 19  9  1  0  0  0  0
M TOR 0 0 1 2 3
M TOR 1 0 1 2 13
M TOR 2 0 1 2 14
M TOR 3 0 1 4 5
M TOR 4 0 1 4 6
M TOR 5 0 1 4 16
M TOR 6 1 2 3 15
M TOR 7 1 4 5 6
M TOR 8 1 4 6 7
M TOR 9 1 4 6 17
M TOR 10 2 1 0 9
M TOR 11 2 1 0 10
M TOR 12 2 1 0 11
M TOR 13 2 1 4 5
M TOR 14 2 1 4 6
M TOR 15 2 1 4 16
M TOR 16 3 2 1 4
M TOR 17 3 2 1 12
M TOR 18 4 1 0 9
M TOR 19 4 1 0 10
M TOR 20 4 1 0 11
M TOR 21 4 1 2 13
M TOR 22 4 1 2 14
M TOR 23 4 5 6 7
M TOR 24 4 5 6 17
M TOR 25 4 6 7 8
M TOR 26 5 4 1 12
M TOR 27 5 6 4 16
M TOR 28 5 6 7 8
M TOR 29 6 4 1 12
M TOR 30 6 7 8 18
M TOR 31 7 6 4 16
M TOR 32 8 7 6 17
M  END
$$$$
