gdb 6082	2.7589149	1.0198882	0.8181608	1.8064	78.76	-0.24853	0.03149	0.28002	1424.4399	0.153979	-422.492774	-422.482862	-422.481918	-422.528318	36.075
 OpenBabel02181911423D

 19 19  0  0  0  0  0  0  0  0999 V2000
   -0.9183    5.1070    0.2479 O   0  0  0  0  0  0  0  0  0  0  0  0
   -0.4430    4.3311   -0.8351 C   0  0  0  0  0  0  0  0  0  0  0  0
   -0.8043    2.8639   -0.6755 C   0  0  0  0  0  0  0  0  0  0  0  0
   -0.1885    2.4294    0.5367 O   0  0  0  0  0  0  0  0  0  0  0  0
   -0.5178    1.1257    0.9261 C   0  0  0  0  0  0  0  0  0  0  0  0
   -0.5256    0.9062    2.4172 C   0  0  0  0  0  0  0  0  0  0  0  0
   -1.8320    0.9319    1.6665 C   0  0  0  0  0  0  0  0  0  0  0  0
   -0.0405    0.0791    0.0565 C   0  0  0  0  0  0  0  0  0  0  0  0
    0.3579   -0.7794   -0.6858 C   0  0  0  0  0  0  0  0  0  0  0  0
   -0.5970    4.6690    1.0442 H   0  0  0  0  0  0  0  0  0  0  0  0
   -0.9093    4.7253   -1.7438 H   0  0  0  0  0  0  0  0  0  0  0  0
    0.6488    4.4220   -0.9482 H   0  0  0  0  0  0  0  0  0  0  0  0
   -1.8949    2.7458   -0.6048 H   0  0  0  0  0  0  0  0  0  0  0  0
   -0.4404    2.2717   -1.5264 H   0  0  0  0  0  0  0  0  0  0  0  0
   -0.1528   -0.0408    2.7878 H   0  0  0  0  0  0  0  0  0  0  0  0
   -0.2698    1.7731    3.0152 H   0  0  0  0  0  0  0  0  0  0  0  0
   -2.3694    0.0029    1.5189 H   0  0  0  0  0  0  0  0  0  0  0  0
   -2.4501    1.8170    1.7672 H   0  0  0  0  0  0  0  0  0  0  0  0
    0.7144   -1.5413   -1.3341 H   0  0  0  0  0  0  0  0  0  0  0  0
  1 10  1  0  0  0  0
  2  3  1  0  0  0  0
  2  1  1  0  0  0  0
  3 13  1  0  0  0  0
  3  4  1  0  0  0  0
  4  5  1  0  0  0  0
  5  7  1  0  0  0  0
  5  6  1  0  0  0  0
  6 15  1  0  0  0  0
  6 16  1  0  0  0  0
  7 18  1  0  0  0  0
  7  6  1  0  0  0  0
  8  5  1  0  0  0  0
  9  8  3  0  0  0  0
 11  2  1  0  0  0  0
 12  2  1  0  0  0  0
 14  3  1  0  0  0  0
 17  7  1  0  0  0  0
 19  9  1  0  0  0  0
M TOR 0 0 1 2 3
M TOR 1 0 1 2 12
M TOR 2 0 1 2 13
M TOR 3 1 2 3 4
M TOR 4 2 1 0 9
M TOR 5 2 3 4 5
M TOR 6 2 3 4 6
M TOR 7 2 3 4 7
M TOR 8 3 2 1 10
M TOR 9 3 2 1 11
M TOR 10 3 4 5 6
M TOR 11 3 4 5 14
M TOR 12 3 4 5 15
M TOR 13 3 4 6 16
M TOR 14 3 4 6 17
M TOR 15 3 4 7 8
M TOR 16 4 3 2 12
M TOR 17 4 3 2 13
M TOR 18 4 5 6 16
M TOR 19 4 5 6 17
M TOR 20 4 6 5 14
M TOR 21 4 6 5 15
M TOR 22 4 7 8 18
M TOR 23 5 4 7 8
M TOR 24 5 6 4 7
M TOR 25 6 4 7 8
M TOR 26 7 4 5 14
M TOR 27 7 4 5 15
M TOR 28 7 4 6 16
M TOR 29 7 4 6 17
M  END
$$$$
