
     RDKit          3D

 19 21  0  0  0  0  0  0  0  0999 V2000
    0.7173   -1.8933    2.2726 C   0  0  0  0  0  0  0  0  0  0  0  0
    0.7975   -0.4243    1.8046 C   0  0  0  0  0  0  0  0  0  0  0  0
    1.8378   -0.1764    0.7288 C   0  0  0  0  0  0  0  0  0  0  0  0
    1.4524    0.7127   -0.3295 O   0  0  0  0  0  0  0  0  0  0  0  0
    1.6112   -0.6716   -0.6406 C   0  0  0  0  0  0  0  0  0  0  0  0
    0.3482   -1.4290   -0.9564 C   0  0  0  0  0  0  0  0  0  0  0  0
    0.5157   -2.7853   -1.3697 O   0  0  0  0  0  0  0  0  0  0  0  0
   -0.0701   -2.5398   -0.0830 C   0  0  0  0  0  0  0  0  0  0  0  0
    0.7756   -2.9170    1.1185 C   0  0  0  0  0  0  0  0  0  0  0  0
    1.5344   -2.1173    2.9680 H   0  0  0  0  0  0  0  0  0  0  0  0
   -0.2082   -2.0178    2.8465 H   0  0  0  0  0  0  0  0  0  0  0  0
   -0.1674   -0.1183    1.3890 H   0  0  0  0  0  0  0  0  0  0  0  0
    0.9854    0.2296    2.6631 H   0  0  0  0  0  0  0  0  0  0  0  0
    2.8689   -0.0477    1.0603 H   0  0  0  0  0  0  0  0  0  0  0  0
    2.4643   -0.9036   -1.2788 H   0  0  0  0  0  0  0  0  0  0  0  0
   -0.4027   -0.8686   -1.5142 H   0  0  0  0  0  0  0  0  0  0  0  0
   -1.1340   -2.7739   -0.0301 H   0  0  0  0  0  0  0  0  0  0  0  0
    0.4831   -3.9071    1.4846 H   0  0  0  0  0  0  0  0  0  0  0  0
    1.8064   -3.0115    0.7634 H   0  0  0  0  0  0  0  0  0  0  0  0
  1  2  1  0
  2  3  1  0
  3  4  1  0
  4  5  1  0
  5  6  1  0
  6  7  1  0
  7  8  1  0
  8  9  1  0
  9  1  1  0
  5  3  1  0
  8  6  1  0
  1 10  1  0
  1 11  1  0
  2 12  1  0
  2 13  1  0
  3 14  1  0
  5 15  1  0
  6 16  1  0
  8 17  1  0
  9 18  1  0
  9 19  1  0
M  END
$$$$
