gdb 5106	3.8549798	1.2777114	1.1420036	1.2285	74.23	-0.24899	0.07683	0.32582	1116.1641	0.15692	-422.5183	-422.510314	-422.50937	-422.550617	30.998
 OpenBabel02181911423D

 19 21  0  0  1  0  0  0  0  0999 V2000
    1.3967   -0.1680    0.0385 C   0  0  0  0  0  0  0  0  0  0  0  0
    0.0070    0.1039    0.0675 O   0  0  0  0  0  0  0  0  0  0  0  0
   -0.4107    0.7756    1.2131 C   0  0  2  0  0  0  0  0  0  0  0  0
   -0.5589   -0.0070    2.4900 C   0  0  0  0  0  0  0  0  0  0  0  0
   -1.7926    0.4951    1.7553 C   0  0  1  0  0  0  0  0  0  0  0  0
   -2.3638    1.8155    2.2147 C   0  0  1  0  0  0  0  0  0  0  0  0
   -1.6334    2.4438    3.2804 O   0  0  0  0  0  0  0  0  0  0  0  0
   -1.3924    2.8887    1.9387 C   0  0  1  0  0  0  0  0  0  0  0  0
   -0.1590    2.2933    1.2757 C   0  0  0  0  0  0  0  0  0  0  0  0
    1.7120   -0.7585    0.9101 H   0  0  0  0  0  0  0  0  0  0  0  0
    1.5901   -0.7410   -0.8713 H   0  0  0  0  0  0  0  0  0  0  0  0
    1.9949    0.7540    0.0086 H   0  0  0  0  0  0  0  0  0  0  0  0
   -0.3683   -1.0722    2.4156 H   0  0  0  0  0  0  0  0  0  0  0  0
   -0.3124    0.4554    3.4379 H   0  0  0  0  0  0  0  0  0  0  0  0
   -2.4445   -0.2199    1.2693 H   0  0  0  0  0  0  0  0  0  0  0  0
   -3.4386    1.9699    2.2359 H   0  0  0  0  0  0  0  0  0  0  0  0
   -1.6713    3.9210    1.7413 H   0  0  0  0  0  0  0  0  0  0  0  0
   -0.0824    2.6683    0.2490 H   0  0  0  0  0  0  0  0  0  0  0  0
    0.7595    2.5666    1.8052 H   0  0  0  0  0  0  0  0  0  0  0  0
  1  2  1  0  0  0  0
  1 10  1  0  0  0  0
  3  2  1  6  0  0  0
  3  9  1  0  0  0  0
  3  5  1  0  0  0  0
  3  4  1  0  0  0  0
  4 14  1  0  0  0  0
  5 15  1  6  0  0  0
  5  6  1  0  0  0  0
  5  4  1  0  0  0  0
  6 16  1  6  0  0  0
  6  7  1  0  0  0  0
  8 17  1  6  0  0  0
  8  6  1  0  0  0  0
  8  7  1  0  0  0  0
  9 19  1  0  0  0  0
  9  8  1  0  0  0  0
 11  1  1  0  0  0  0
 12  1  1  0  0  0  0
 13  4  1  0  0  0  0
 18  9  1  0  0  0  0
M TOR 0 0 1 2 3
M TOR 1 0 1 2 4
M TOR 2 0 1 2 8
M TOR 3 1 2 3 4
M TOR 4 1 2 3 12
M TOR 5 1 2 3 13
M TOR 6 1 2 4 5
M TOR 7 1 2 4 14
M TOR 8 1 2 8 7
M TOR 9 1 2 8 17
M TOR 10 1 2 8 18
M TOR 11 2 1 0 9
M TOR 12 2 1 0 10
M TOR 13 2 1 0 11
M TOR 14 2 3 4 5
M TOR 15 2 3 4 14
M TOR 16 2 4 3 12
M TOR 17 2 4 3 13
M TOR 18 2 4 5 6
M TOR 19 2 4 5 7
M TOR 20 2 4 5 15
M TOR 21 2 8 7 5
M TOR 22 2 8 7 6
M TOR 23 2 8 7 16
M TOR 24 3 2 8 7
M TOR 25 3 2 8 17
M TOR 26 3 2 8 18
M TOR 27 3 4 2 8
M TOR 28 3 4 5 6
M TOR 29 3 4 5 7
M TOR 30 3 4 5 15
M TOR 31 4 2 8 7
M TOR 32 4 2 8 17
M TOR 33 4 2 8 18
M TOR 34 4 5 6 7
M TOR 35 4 5 7 8
M TOR 36 4 5 7 16
M TOR 37 5 4 2 8
M TOR 38 5 4 3 12
M TOR 39 5 4 3 13
M TOR 40 5 6 7 8
M TOR 41 5 6 7 16
M TOR 42 5 7 8 17
M TOR 43 5 7 8 18
M TOR 44 6 5 4 14
M TOR 45 6 7 5 15
M TOR 46 6 7 8 17
M TOR 47 6 7 8 18
M TOR 48 7 5 4 14
M TOR 49 8 2 3 12
M TOR 50 8 2 3 13
M TOR 51 8 2 4 14
M TOR 52 8 7 5 15
M  END
$$$$
