
     RDKit          3D

 19 20  0  0  0  0  0  0  0  0999 V2000
   -1.6979    3.0416    0.9010 O   0  0  0  0  0  0  0  0  0  0  0  0
   -1.1374    2.0568    0.5012 C   0  0  0  0  0  0  0  0  0  0  0  0
    0.3394    2.0649    0.1139 C   0  0  0  0  0  0  0  0  0  0  0  0
    0.6424    1.6192   -1.3041 C   0  0  0  0  0  0  0  0  0  0  0  0
    1.8208    0.7114   -1.5711 C   0  0  0  0  0  0  0  0  0  0  0  0
    0.4162    0.1722   -1.6572 C   0  0  0  0  0  0  0  0  0  0  0  0
   -0.1757   -0.7223   -0.5867 C   0  0  0  0  0  0  0  0  0  0  0  0
   -1.6094   -0.3188   -0.2457 C   0  0  0  0  0  0  0  0  0  0  0  0
   -1.8276    0.8853    0.5105 O   0  0  0  0  0  0  0  0  0  0  0  0
    0.6843    3.0870    0.2828 H   0  0  0  0  0  0  0  0  0  0  0  0
    0.8684    1.4268    0.8302 H   0  0  0  0  0  0  0  0  0  0  0  0
    0.4069    2.3551   -2.0668 H   0  0  0  0  0  0  0  0  0  0  0  0
    2.3772    0.8449   -2.4921 H   0  0  0  0  0  0  0  0  0  0  0  0
    2.4308    0.4159   -0.7228 H   0  0  0  0  0  0  0  0  0  0  0  0
    0.0363   -0.0230   -2.6566 H   0  0  0  0  0  0  0  0  0  0  0  0
   -0.2096   -1.7614   -0.9374 H   0  0  0  0  0  0  0  0  0  0  0  0
    0.4381   -0.7317    0.3198 H   0  0  0  0  0  0  0  0  0  0  0  0
   -2.1911   -0.2301   -1.1728 H   0  0  0  0  0  0  0  0  0  0  0  0
   -2.0812   -1.0937    0.3653 H   0  0  0  0  0  0  0  0  0  0  0  0
  1  2  2  0
  2  3  1  0
  3  4  1  0
  4  5  1  0
  5  6  1  0
  6  7  1  0
  7  8  1  0
  8  9  1  0
  9  2  1  0
  6  4  1  0
  3 10  1  0
  3 11  1  0
  4 12  1  0
  5 13  1  0
  5 14  1  0
  6 15  1  0
  7 16  1  0
  7 17  1  0
  8 18  1  0
  8 19  1  0
M  END
$$$$
