gdb 789	2.4961092	1.2103638	0.9618668	2.087	76.18	-0.25659	-0.03737	0.21921999999999997	1282.155	0.155037	-422.527969	-422.518855	-422.517911	-422.562553	33.049
 OpenBabel02181911403D

 19 20  0  0  1  0  0  0  0  0999 V2000
    0.6394    0.1314   -0.9580 O   0  0  0  0  0  0  0  0  0  0  0  0
    0.3232   -0.1472    0.1704 C   0  0  0  0  0  0  0  0  0  0  0  0
   -0.3782    0.7879    1.1095 C   0  0  2  0  0  0  0  0  0  0  0  0
   -0.9871    2.0513    0.5398 C   0  0  0  0  0  0  0  0  0  0  0  0
   -2.1133    1.7853   -0.4411 C   0  0  0  0  0  0  0  0  0  0  0  0
   -3.4883    1.4331    0.0679 C   0  0  0  0  0  0  0  0  0  0  0  0
   -3.2419    2.7752   -0.5758 C   0  0  0  0  0  0  0  0  0  0  0  0
    0.0714    0.7116    2.5197 C   0  0  0  0  0  0  0  0  0  0  0  0
   -1.1310    0.0821    2.1147 O   0  0  0  0  0  0  0  0  0  0  0  0
    0.5308   -1.1441    0.6196 H   0  0  0  0  0  0  0  0  0  0  0  0
   -1.3568    2.6596    1.3728 H   0  0  0  0  0  0  0  0  0  0  0  0
   -0.1903    2.6214    0.0474 H   0  0  0  0  0  0  0  0  0  0  0  0
   -1.7950    1.2943   -1.3548 H   0  0  0  0  0  0  0  0  0  0  0  0
   -4.0671    0.6972   -0.4789 H   0  0  0  0  0  0  0  0  0  0  0  0
   -3.6322    1.4006    1.1422 H   0  0  0  0  0  0  0  0  0  0  0  0
   -3.6488    2.9579   -1.5641 H   0  0  0  0  0  0  0  0  0  0  0  0
   -3.2287    3.6514    0.0649 H   0  0  0  0  0  0  0  0  0  0  0  0
    0.8814    0.0415    2.8068 H   0  0  0  0  0  0  0  0  0  0  0  0
   -0.0377    1.6039    3.1345 H   0  0  0  0  0  0  0  0  0  0  0  0
  1  2  2  0  0  0  0
  2 10  1  0  0  0  0
  3  2  1  6  0  0  0
  3  9  1  0  0  0  0
  3  8  1  0  0  0  0
  4  3  1  0  0  0  0
  4 11  1  0  0  0  0
  5  6  1  0  0  0  0
  5  4  1  0  0  0  0
  6 15  1  0  0  0  0
  7  5  1  0  0  0  0
  7 17  1  0  0  0  0
  7  6  1  0  0  0  0
  8 18  1  0  0  0  0
  8 19  1  0  0  0  0
  9  8  1  0  0  0  0
 12  4  1  0  0  0  0
 13  5  1  0  0  0  0
 14  6  1  0  0  0  0
 16  7  1  0  0  0  0
M TOR 0 0 1 2 3
M TOR 1 0 1 2 7
M TOR 2 0 1 2 8
M TOR 3 1 2 3 4
M TOR 4 1 2 3 10
M TOR 5 1 2 3 11
M TOR 6 1 2 7 8
M TOR 7 1 2 7 17
M TOR 8 1 2 7 18
M TOR 9 2 3 4 5
M TOR 10 2 3 4 6
M TOR 11 2 3 4 12
M TOR 12 2 8 7 17
M TOR 13 2 8 7 18
M TOR 14 3 2 1 9
M TOR 15 3 2 7 8
M TOR 16 3 2 7 17
M TOR 17 3 2 7 18
M TOR 18 3 4 5 6
M TOR 19 3 4 5 13
M TOR 20 3 4 5 14
M TOR 21 3 4 6 15
M TOR 22 3 4 6 16
M TOR 23 4 3 2 7
M TOR 24 4 3 2 8
M TOR 25 4 5 6 15
M TOR 26 4 5 6 16
M TOR 27 4 6 5 13
M TOR 28 4 6 5 14
M TOR 29 5 4 3 10
M TOR 30 5 4 3 11
M TOR 31 5 6 4 12
M TOR 32 6 4 3 10
M TOR 33 6 4 3 11
M TOR 34 7 2 1 9
M TOR 35 7 2 3 10
M TOR 36 7 2 3 11
M TOR 37 8 2 1 9
M TOR 38 8 2 3 10
M TOR 39 8 2 3 11
M  END
$$$$
