gdb 5977	3.9230477	1.0143937	0.9280181	0.6354	75.32	-0.24244	0.05441	0.29685	1330.975	0.154791	-422.450646	-422.442196	-422.441252	-422.484341	31.6
 OpenBabel02181911423D

 19 21  0  0  1  0  0  0  0  0999 V2000
    1.0610    0.1825   -1.8798 C   0  0  0  0  0  0  0  0  0  0  0  0
    0.8128    1.0202   -0.6236 C   0  0  0  0  0  0  0  0  0  0  0  0
    2.1150    1.4506    0.0680 C   0  0  0  0  0  0  0  0  0  0  0  0
    1.8808    2.2272    1.3220 C   0  0  1  0  0  0  0  0  0  0  0  0
    1.1550    1.6153    2.4383 O   0  0  0  0  0  0  0  0  0  0  0  0
    1.4538    2.9409    2.9508 C   0  0  1  0  0  0  0  0  0  0  0  0
    2.8459    3.0382    2.2572 C   0  0  2  0  0  0  0  0  0  0  0  0
    2.5730    4.3177    1.6194 O   0  0  0  0  0  0  0  0  0  0  0  0
    1.2772    3.6565    1.5787 C   0  0  1  0  0  0  0  0  0  0  0  0
    1.6133   -0.7332   -1.6417 H   0  0  0  0  0  0  0  0  0  0  0  0
    0.1187   -0.1106   -2.3525 H   0  0  0  0  0  0  0  0  0  0  0  0
    1.6467    0.7390   -2.6200 H   0  0  0  0  0  0  0  0  0  0  0  0
    0.2325    1.9144   -0.8831 H   0  0  0  0  0  0  0  0  0  0  0  0
    0.2039    0.4559    0.0912 H   0  0  0  0  0  0  0  0  0  0  0  0
    2.7198    0.5676    0.3117 H   0  0  0  0  0  0  0  0  0  0  0  0
    2.7196    2.0753   -0.6022 H   0  0  0  0  0  0  0  0  0  0  0  0
    1.1255    3.2096    3.9539 H   0  0  0  0  0  0  0  0  0  0  0  0
    3.8524    2.8252    2.6169 H   0  0  0  0  0  0  0  0  0  0  0  0
    0.4272    4.1771    1.1383 H   0  0  0  0  0  0  0  0  0  0  0  0
  1 10  1  0  0  0  0
  1  2  1  0  0  0  0
  2  3  1  0  0  0  0
  2 14  1  0  0  0  0
  3 15  1  0  0  0  0
  4  3  1  6  0  0  0
  4  9  1  0  0  0  0
  4  7  1  0  0  0  0
  4  5  1  0  0  0  0
  5  6  1  0  0  0  0
  6 17  1  1  0  0  0
  7 18  1  1  0  0  0
  7  6  1  0  0  0  0
  8  7  1  0  0  0  0
  9 19  1  6  0  0  0
  9  8  1  0  0  0  0
  9  6  1  0  0  0  0
 11  1  1  0  0  0  0
 12  1  1  0  0  0  0
 13  2  1  0  0  0  0
 16  3  1  0  0  0  0
M TOR 0 0 1 2 3
M TOR 1 0 1 2 14
M TOR 2 0 1 2 15
M TOR 3 1 2 3 4
M TOR 4 1 2 3 6
M TOR 5 1 2 3 8
M TOR 6 2 1 0 9
M TOR 7 2 1 0 10
M TOR 8 2 1 0 11
M TOR 9 2 3 4 5
M TOR 10 2 3 6 5
M TOR 11 2 3 6 7
M TOR 12 2 3 6 17
M TOR 13 2 3 8 5
M TOR 14 2 3 8 7
M TOR 15 2 3 8 18
M TOR 16 3 2 1 12
M TOR 17 3 2 1 13
M TOR 18 3 4 5 6
M TOR 19 3 4 5 8
M TOR 20 3 4 5 16
M TOR 21 3 6 5 8
M TOR 22 3 6 5 16
M TOR 23 3 6 7 8
M TOR 24 3 8 5 16
M TOR 25 4 3 2 14
M TOR 26 4 3 2 15
M TOR 27 4 3 6 7
M TOR 28 4 3 6 17
M TOR 29 4 3 8 7
M TOR 30 4 3 8 18
M TOR 31 4 5 6 7
M TOR 32 4 5 6 17
M TOR 33 4 5 8 7
M TOR 34 4 5 8 18
M TOR 35 5 6 7 8
M TOR 36 6 3 2 14
M TOR 37 6 3 2 15
M TOR 38 6 3 8 18
M TOR 39 6 5 8 18
M TOR 40 6 7 8 18
M TOR 41 7 6 5 16
M TOR 42 7 8 5 16
M TOR 43 8 3 2 14
M TOR 44 8 3 2 15
M TOR 45 8 3 6 17
M TOR 46 8 5 6 17
M TOR 47 8 7 6 17
M  END
$$$$
