gdb 2029	2.1898505	2.0320461	1.4043695	0.0445	73.9	-0.25485	0.08249	0.33734000000000003	1001.6568	0.155823	-422.548485	-422.540087	-422.539143	-422.580816	32.41
 OpenBabel02181911403D

 19 21  0  0  1  0  0  0  0  0999 V2000
    0.0677    0.8249   -0.5741 C   0  0  0  0  0  0  0  0  0  0  0  0
    1.1755    0.8742    0.4391 C   0  0  1  0  0  0  0  0  0  0  0  0
    1.0912    1.8854    1.4631 O   0  0  0  0  0  0  0  0  0  0  0  0
    1.0550    0.5025    1.8559 C   0  0  2  0  0  0  0  0  0  0  0  0
    2.3762   -0.0152    2.4071 C   0  0  0  0  0  0  0  0  0  0  0  0
    3.3114    0.0868    1.2102 C   0  0  1  0  0  0  0  0  0  0  0  0
    2.9460   -0.7680    0.1130 O   0  0  0  0  0  0  0  0  0  0  0  0
    2.6184    0.6337    0.0351 C   0  0  1  0  0  0  0  0  0  0  0  0
    3.2595    1.4317   -1.0640 C   0  0  0  0  0  0  0  0  0  0  0  0
   -0.9033    0.9439   -0.0875 H   0  0  0  0  0  0  0  0  0  0  0  0
    0.1763    1.6251   -1.3141 H   0  0  0  0  0  0  0  0  0  0  0  0
    0.0827   -0.1326   -1.1047 H   0  0  0  0  0  0  0  0  0  0  0  0
    0.1111    0.1721    2.2823 H   0  0  0  0  0  0  0  0  0  0  0  0
    2.7266    0.5992    3.2433 H   0  0  0  0  0  0  0  0  0  0  0  0
    2.2876   -1.0496    2.7558 H   0  0  0  0  0  0  0  0  0  0  0  0
    4.3813    0.2149    1.3543 H   0  0  0  0  0  0  0  0  0  0  0  0
    3.1738    2.5027   -0.8534 H   0  0  0  0  0  0  0  0  0  0  0  0
    4.3171    1.1739   -1.1590 H   0  0  0  0  0  0  0  0  0  0  0  0
    2.7749    1.2349   -2.0265 H   0  0  0  0  0  0  0  0  0  0  0  0
  1 10  1  0  0  0  0
  2  1  1  6  0  0  0
  2  3  1  0  0  0  0
  2  4  1  0  0  0  0
  3  4  1  0  0  0  0
  4 13  1  1  0  0  0
  4  5  1  0  0  0  0
  5 15  1  0  0  0  0
  5 14  1  0  0  0  0
  6 16  1  1  0  0  0
  6  5  1  0  0  0  0
  7  6  1  0  0  0  0
  8  9  1  6  0  0  0
  8  7  1  0  0  0  0
  8  2  1  0  0  0  0
  8  6  1  0  0  0  0
  9 17  1  0  0  0  0
 11  1  1  0  0  0  0
 12  1  1  0  0  0  0
 18  9  1  0  0  0  0
 19  9  1  0  0  0  0
M TOR 0 0 1 2 3
M TOR 1 0 1 3 4
M TOR 2 0 1 3 12
M TOR 3 0 1 7 5
M TOR 4 0 1 7 6
M TOR 5 0 1 7 8
M TOR 6 1 2 3 4
M TOR 7 1 2 3 12
M TOR 8 1 3 4 5
M TOR 9 1 3 4 13
M TOR 10 1 3 4 14
M TOR 11 1 7 5 4
M TOR 12 1 7 5 6
M TOR 13 1 7 5 15
M TOR 14 1 7 8 16
M TOR 15 1 7 8 17
M TOR 16 1 7 8 18
M TOR 17 2 1 0 9
M TOR 18 2 1 0 10
M TOR 19 2 1 0 11
M TOR 20 2 1 7 5
M TOR 21 2 1 7 6
M TOR 22 2 1 7 8
M TOR 23 2 3 1 7
M TOR 24 2 3 4 5
M TOR 25 2 3 4 13
M TOR 26 2 3 4 14
M TOR 27 3 1 0 9
M TOR 28 3 1 0 10
M TOR 29 3 1 0 11
M TOR 30 3 1 7 5
M TOR 31 3 1 7 6
M TOR 32 3 1 7 8
M TOR 33 3 4 5 6
M TOR 34 3 4 5 7
M TOR 35 3 4 5 15
M TOR 36 4 3 1 7
M TOR 37 4 5 6 7
M TOR 38 4 5 7 8
M TOR 39 5 4 3 12
M TOR 40 5 6 7 8
M TOR 41 5 7 8 16
M TOR 42 5 7 8 17
M TOR 43 5 7 8 18
M TOR 44 6 5 4 13
M TOR 45 6 5 4 14
M TOR 46 6 7 5 15
M TOR 47 6 7 8 16
M TOR 48 6 7 8 17
M TOR 49 6 7 8 18
M TOR 50 7 1 0 9
M TOR 51 7 1 0 10
M TOR 52 7 1 0 11
M TOR 53 7 1 3 12
M TOR 54 7 5 4 13
M TOR 55 7 5 4 14
M TOR 56 8 7 5 15
M  END
$$$$
