
     RDKit          3D

 19 21  0  0  0  0  0  0  0  0999 V2000
    0.3870    0.4563    0.1921 O   0  0  0  0  0  0  0  0  0  0  0  0
   -0.8936    0.8271    0.6115 C   0  0  0  0  0  0  0  0  0  0  0  0
   -1.5006    2.2469    0.3723 C   0  0  0  0  0  0  0  0  0  0  0  0
   -2.4789    1.7971    1.5057 C   0  0  0  0  0  0  0  0  0  0  0  0
   -1.2465    1.0559    2.1104 C   0  0  0  0  0  0  0  0  0  0  0  0
   -3.4506    0.7341    0.8508 C   0  0  0  0  0  0  0  0  0  0  0  0
   -2.9278   -0.7073    1.0706 C   0  0  0  0  0  0  0  0  0  0  0  0
   -1.9362   -0.1970   -0.0013 C   0  0  0  0  0  0  0  0  0  0  0  0
   -3.0450    0.5800   -0.5471 O   0  0  0  0  0  0  0  0  0  0  0  0
    1.0209    1.0657    0.5847 H   0  0  0  0  0  0  0  0  0  0  0  0
   -0.8247    3.0306    0.7265 H   0  0  0  0  0  0  0  0  0  0  0  0
   -1.9023    2.4904   -0.6069 H   0  0  0  0  0  0  0  0  0  0  0  0
   -2.9959    2.5466    2.1039 H   0  0  0  0  0  0  0  0  0  0  0  0
   -0.5554    1.7700    2.5702 H   0  0  0  0  0  0  0  0  0  0  0  0
   -1.3759    0.2127    2.7868 H   0  0  0  0  0  0  0  0  0  0  0  0
   -4.5095    0.9764    0.9557 H   0  0  0  0  0  0  0  0  0  0  0  0
   -2.5931   -1.0563    2.0454 H   0  0  0  0  0  0  0  0  0  0  0  0
   -3.6168   -1.4281    0.6288 H   0  0  0  0  0  0  0  0  0  0  0  0
   -1.4663   -0.8606   -0.7280 H   0  0  0  0  0  0  0  0  0  0  0  0
  1  2  1  0
  2  3  1  0
  3  4  1  0
  4  5  1  0
  4  6  1  0
  6  7  1  0
  7  8  1  0
  8  9  1  0
  5  2  1  0
  9  6  1  0
  8  2  1  0
  1 10  1  0
  3 11  1  0
  3 12  1  0
  4 13  1  0
  5 14  1  0
  5 15  1  0
  6 16  1  0
  7 17  1  0
  7 18  1  0
  8 19  1  0
M  END
$$$$
