
     RDKit          3D

 19 18  0  0  0  0  0  0  0  0999 V2000
   -0.1667   -0.0277    0.1156 C   0  0  0  0  0  0  0  0  0  0  0  0
    1.3727   -0.0358    0.0853 C   0  0  0  0  0  0  0  0  0  0  0  0
    1.9496    1.2950   -0.0771 C   0  0  0  0  0  0  0  0  0  0  0  0
    2.3963    2.4071   -0.1985 C   0  0  0  0  0  0  0  0  0  0  0  0
    2.9590    3.7382   -0.3880 C   0  0  0  0  0  0  0  0  0  0  0  0
    3.5180    3.9099   -1.8078 C   0  0  0  0  0  0  0  0  0  0  0  0
    4.1677    5.1901   -1.9544 O   0  0  0  0  0  0  0  0  0  0  0  0
    3.3774    6.2301   -2.2570 C   0  0  0  0  0  0  0  0  0  0  0  0
    2.1867    6.2002   -2.4067 O   0  0  0  0  0  0  0  0  0  0  0  0
   -0.5353    0.5825    0.9445 H   0  0  0  0  0  0  0  0  0  0  0  0
   -0.5712    0.3854   -0.8122 H   0  0  0  0  0  0  0  0  0  0  0  0
   -0.5512   -1.0447    0.2378 H   0  0  0  0  0  0  0  0  0  0  0  0
    1.7554   -0.4877    1.0095 H   0  0  0  0  0  0  0  0  0  0  0  0
    1.7194   -0.6836   -0.7303 H   0  0  0  0  0  0  0  0  0  0  0  0
    2.1938    4.5041   -0.2193 H   0  0  0  0  0  0  0  0  0  0  0  0
    3.7643    3.9227    0.3337 H   0  0  0  0  0  0  0  0  0  0  0  0
    4.2949    3.1716   -2.0109 H   0  0  0  0  0  0  0  0  0  0  0  0
    2.7195    3.8206   -2.5465 H   0  0  0  0  0  0  0  0  0  0  0  0
    4.0045    7.1301   -2.3519 H   0  0  0  0  0  0  0  0  0  0  0  0
  1  2  1  0
  2  3  1  0
  3  4  3  0
  4  5  1  0
  5  6  1  0
  6  7  1  0
  7  8  1  0
  8  9  2  0
  1 10  1  0
  1 11  1  0
  1 12  1  0
  2 13  1  0
  2 14  1  0
  5 15  1  0
  5 16  1  0
  6 17  1  0
  6 18  1  0
  8 19  1  0
M  END
$$$$
