gdb 2638	2.3823434	1.4516492	0.973414	3.4322	79.6	-0.2328	-0.04184	0.19096000000000002	1229.4211	0.155403	-422.604083	-422.594537	-422.593593	-422.638367	34.76
 OpenBabel02181911413D

 19 19  0  0  1  0  0  0  0  0999 V2000
   -2.5182   -2.1355    1.3692 C   0  0  0  0  0  0  0  0  0  0  0  0
   -1.7986   -1.2634    0.3435 C   0  0  2  0  0  0  0  0  0  0  0  0
   -0.2671   -1.1290    0.4822 C   0  0  1  0  0  0  0  0  0  0  0  0
    0.4974   -1.9389   -0.4016 O   0  0  0  0  0  0  0  0  0  0  0  0
    0.0191    0.3315    0.1784 C   0  0  0  0  0  0  0  0  0  0  0  0
    1.4230    0.7991   -0.0017 C   0  0  0  0  0  0  0  0  0  0  0  0
   -1.1110    1.0537    0.1347 C   0  0  0  0  0  0  0  0  0  0  0  0
   -2.2937    0.1960    0.3394 C   0  0  0  0  0  0  0  0  0  0  0  0
   -3.4437    0.5445    0.4857 O   0  0  0  0  0  0  0  0  0  0  0  0
   -2.2452   -3.1910    1.2672 H   0  0  0  0  0  0  0  0  0  0  0  0
   -2.2803   -1.8214    2.3914 H   0  0  0  0  0  0  0  0  0  0  0  0
   -3.5994   -2.0434    1.2388 H   0  0  0  0  0  0  0  0  0  0  0  0
   -1.9835   -1.6488   -0.6682 H   0  0  0  0  0  0  0  0  0  0  0  0
    0.0331   -1.3316    1.5254 H   0  0  0  0  0  0  0  0  0  0  0  0
    0.4005   -2.8557   -0.1267 H   0  0  0  0  0  0  0  0  0  0  0  0
    2.0172    0.5937    0.8977 H   0  0  0  0  0  0  0  0  0  0  0  0
    1.8979    0.2437   -0.8171 H   0  0  0  0  0  0  0  0  0  0  0  0
    1.4727    1.8687   -0.2168 H   0  0  0  0  0  0  0  0  0  0  0  0
   -1.1848    2.1247   -0.0107 H   0  0  0  0  0  0  0  0  0  0  0  0
  1 11  1  0  0  0  0
  2 13  1  6  0  0  0
  2  3  1  0  0  0  0
  2  1  1  0  0  0  0
  3 14  1  1  0  0  0
  4 15  1  0  0  0  0
  4  3  1  0  0  0  0
  5  3  1  0  0  0  0
  6  5  1  0  0  0  0
  6 16  1  0  0  0  0
  7  5  2  0  0  0  0
  7  8  1  0  0  0  0
  8  2  1  0  0  0  0
  8  9  2  0  0  0  0
 10  1  1  0  0  0  0
 12  1  1  0  0  0  0
 17  6  1  0  0  0  0
 18  6  1  0  0  0  0
 19  7  1  0  0  0  0
M TOR 0 0 1 2 3
M TOR 1 0 1 2 4
M TOR 2 0 1 2 13
M TOR 3 0 1 7 6
M TOR 4 0 1 7 8
M TOR 5 1 2 3 14
M TOR 6 1 2 4 5
M TOR 7 1 2 4 6
M TOR 8 1 7 6 4
M TOR 9 1 7 6 18
M TOR 10 2 1 0 9
M TOR 11 2 1 0 10
M TOR 12 2 1 0 11
M TOR 13 2 1 7 6
M TOR 14 2 1 7 8
M TOR 15 2 4 5 15
M TOR 16 2 4 5 16
M TOR 17 2 4 5 17
M TOR 18 2 4 6 7
M TOR 19 2 4 6 18
M TOR 20 3 2 1 7
M TOR 21 3 2 1 12
M TOR 22 3 2 4 5
M TOR 23 3 2 4 6
M TOR 24 4 2 1 7
M TOR 25 4 2 1 12
M TOR 26 4 2 3 14
M TOR 27 4 6 7 8
M TOR 28 5 4 2 13
M TOR 29 5 4 6 7
M TOR 30 5 4 6 18
M TOR 31 6 4 2 13
M TOR 32 6 4 5 15
M TOR 33 6 4 5 16
M TOR 34 6 4 5 17
M TOR 35 6 7 1 12
M TOR 36 7 1 0 9
M TOR 37 7 1 0 10
M TOR 38 7 1 0 11
M TOR 39 7 1 2 13
M TOR 40 8 7 1 12
M TOR 41 8 7 6 18
M  END
$$$$
