gdb 2303	2.1277463	1.8868493	1.6637275	2.41	74.1	-0.233	0.06545	0.29845	964.0888	0.15584	-422.506406	-422.498126	-422.497182	-422.538484	32.699
 OpenBabel02181911413D

 19 21  0  0  1  0  0  0  0  0999 V2000
    0.0204   -0.0475    0.1702 C   0  0  0  0  0  0  0  0  0  0  0  0
    1.5119   -0.0162   -0.0148 C   0  0  1  0  0  0  0  0  0  0  0  0
    2.1018   -1.3309   -0.2446 O   0  0  0  0  0  0  0  0  0  0  0  0
    2.6930   -0.9098   -1.5030 C   0  0  0  0  0  0  0  0  0  0  0  0
    2.2452    0.5379   -1.2653 C   0  0  1  0  0  0  0  0  0  0  0  0
    1.6233    1.1445   -2.3540 O   0  0  0  0  0  0  0  0  0  0  0  0
    3.0989    1.4432   -0.3409 C   0  0  2  0  0  0  0  0  0  0  0  0
    3.8093    0.6736    0.7394 C   0  0  0  0  0  0  0  0  0  0  0  0
    2.3422    0.9284    0.8972 C   0  0  2  0  0  0  0  0  0  0  0  0
   -0.2370   -0.5857    1.0893 H   0  0  0  0  0  0  0  0  0  0  0  0
   -0.3821    0.9680    0.2510 H   0  0  0  0  0  0  0  0  0  0  0  0
   -0.4644   -0.5494   -0.6712 H   0  0  0  0  0  0  0  0  0  0  0  0
    3.7676   -1.1160   -1.5515 H   0  0  0  0  0  0  0  0  0  0  0  0
    2.1869   -1.3686   -2.3607 H   0  0  0  0  0  0  0  0  0  0  0  0
    1.3770    2.0419   -2.1046 H   0  0  0  0  0  0  0  0  0  0  0  0
    3.3912    2.4546   -0.6041 H   0  0  0  0  0  0  0  0  0  0  0  0
    4.1620   -0.3381    0.5741 H   0  0  0  0  0  0  0  0  0  0  0  0
    4.4535    1.2750    1.3732 H   0  0  0  0  0  0  0  0  0  0  0  0
    1.9363    1.4839    1.7353 H   0  0  0  0  0  0  0  0  0  0  0  0
  1 11  1  0  0  0  0
  1 10  1  0  0  0  0
  2  1  1  1  0  0  0
  2  9  1  0  0  0  0
  3  2  1  0  0  0  0
  4  5  1  0  0  0  0
  4  3  1  0  0  0  0
  5  6  1  6  0  0  0
  5  7  1  0  0  0  0
  5  2  1  0  0  0  0
  6 15  1  0  0  0  0
  7 16  1  6  0  0  0
  7  8  1  0  0  0  0
  7  9  1  0  0  0  0
  8  9  1  0  0  0  0
  8 18  1  0  0  0  0
  9 19  1  1  0  0  0
 12  1  1  0  0  0  0
 13  4  1  0  0  0  0
 14  4  1  0  0  0  0
 17  8  1  0  0  0  0
M TOR 0 0 1 2 3
M TOR 1 0 1 4 3
M TOR 2 0 1 4 5
M TOR 3 0 1 4 6
M TOR 4 0 1 8 6
M TOR 5 0 1 8 7
M TOR 6 0 1 8 18
M TOR 7 1 2 3 4
M TOR 8 1 2 3 12
M TOR 9 1 2 3 13
M TOR 10 1 4 3 12
M TOR 11 1 4 3 13
M TOR 12 1 4 5 14
M TOR 13 1 4 6 7
M TOR 14 1 4 6 8
M TOR 15 1 4 6 15
M TOR 16 1 8 6 7
M TOR 17 1 8 6 15
M TOR 18 1 8 7 16
M TOR 19 1 8 7 17
M TOR 20 2 1 0 9
M TOR 21 2 1 0 10
M TOR 22 2 1 0 11
M TOR 23 2 1 4 5
M TOR 24 2 1 4 6
M TOR 25 2 1 8 6
M TOR 26 2 1 8 7
M TOR 27 2 1 8 18
M TOR 28 2 3 4 5
M TOR 29 2 3 4 6
M TOR 30 3 2 1 8
M TOR 31 3 4 1 8
M TOR 32 3 4 5 14
M TOR 33 3 4 6 7
M TOR 34 3 4 6 8
M TOR 35 3 4 6 15
M TOR 36 4 1 0 9
M TOR 37 4 1 0 10
M TOR 38 4 1 0 11
M TOR 39 4 1 8 7
M TOR 40 4 1 8 18
M TOR 41 4 6 7 8
M TOR 42 4 6 7 16
M TOR 43 4 6 7 17
M TOR 44 4 6 8 18
M TOR 45 5 4 1 8
M TOR 46 5 4 3 12
M TOR 47 5 4 3 13
M TOR 48 5 4 6 7
M TOR 49 5 4 6 8
M TOR 50 5 4 6 15
M TOR 51 6 4 3 12
M TOR 52 6 4 3 13
M TOR 53 6 4 5 14
M TOR 54 6 7 8 18
M TOR 55 6 8 7 16
M TOR 56 6 8 7 17
M TOR 57 7 8 6 15
M TOR 58 8 1 0 9
M TOR 59 8 1 0 10
M TOR 60 8 1 0 11
M  END
$$$$
