gdb 2346	2.9923669	1.4346399	1.1743632	1.9826	75.32	-0.24142	0.05169	0.29311	1103.5591	0.155896	-422.498902	-422.490622	-422.489677	-422.531769	31.545
 OpenBabel02181911413D

 19 21  0  0  1  0  0  0  0  0999 V2000
    0.2586   -0.6390   -0.5668 C   0  0  0  0  0  0  0  0  0  0  0  0
    1.5520   -0.2121    0.0875 C   0  0  1  0  0  0  0  0  0  0  0  0
    2.1626   -1.1156    1.1825 C   0  0  0  0  0  0  0  0  0  0  0  0
    3.4526   -1.1468    0.5266 O   0  0  0  0  0  0  0  0  0  0  0  0
    2.9761   -0.3225   -0.5547 C   0  0  2  0  0  0  0  0  0  0  0  0
    3.1916    1.1686   -0.2849 C   0  0  1  0  0  0  0  0  0  0  0  0
    4.4437    1.8775   -0.0362 C   0  0  0  0  0  0  0  0  0  0  0  0
    3.7006    2.0731   -1.2503 O   0  0  0  0  0  0  0  0  0  0  0  0
    1.7936    1.3108    0.3360 C   0  0  0  0  0  0  0  0  0  0  0  0
   -0.5890   -0.5045    0.1163 H   0  0  0  0  0  0  0  0  0  0  0  0
    0.0539   -0.0478   -1.4655 H   0  0  0  0  0  0  0  0  0  0  0  0
    0.2885   -1.6946   -0.8571 H   0  0  0  0  0  0  0  0  0  0  0  0
    2.2166   -0.6919    2.1935 H   0  0  0  0  0  0  0  0  0  0  0  0
    1.7253   -2.1208    1.2393 H   0  0  0  0  0  0  0  0  0  0  0  0
    3.2186   -0.7164   -1.5458 H   0  0  0  0  0  0  0  0  0  0  0  0
    4.4542    2.7286    0.6434 H   0  0  0  0  0  0  0  0  0  0  0  0
    5.3913    1.3524   -0.1451 H   0  0  0  0  0  0  0  0  0  0  0  0
    1.7438    1.6496    1.3747 H   0  0  0  0  0  0  0  0  0  0  0  0
    1.1461    1.9462   -0.2753 H   0  0  0  0  0  0  0  0  0  0  0  0
  1 10  1  0  0  0  0
  2  1  1  6  0  0  0
  2  9  1  0  0  0  0
  2  3  1  0  0  0  0
  3 14  1  0  0  0  0
  3 13  1  0  0  0  0
  4  3  1  0  0  0  0
  5 15  1  6  0  0  0
  5  6  1  0  0  0  0
  5  2  1  0  0  0  0
  5  4  1  0  0  0  0
  6  8  1  6  0  0  0
  6  7  1  0  0  0  0
  6  9  1  0  0  0  0
  7 16  1  0  0  0  0
  8  7  1  0  0  0  0
  9 18  1  0  0  0  0
 11  1  1  0  0  0  0
 12  1  1  0  0  0  0
 17  7  1  0  0  0  0
 19  9  1  0  0  0  0
M TOR 0 0 1 2 3
M TOR 1 0 1 2 12
M TOR 2 0 1 2 13
M TOR 3 0 1 4 3
M TOR 4 0 1 4 5
M TOR 5 0 1 4 14
M TOR 6 0 1 8 5
M TOR 7 0 1 8 17
M TOR 8 0 1 8 18
M TOR 9 1 2 3 4
M TOR 10 1 4 5 6
M TOR 11 1 4 5 7
M TOR 12 1 4 5 8
M TOR 13 1 8 5 6
M TOR 14 1 8 5 7
M TOR 15 2 1 0 9
M TOR 16 2 1 0 10
M TOR 17 2 1 0 11
M TOR 18 2 1 4 5
M TOR 19 2 1 4 14
M TOR 20 2 1 8 5
M TOR 21 2 1 8 17
M TOR 22 2 1 8 18
M TOR 23 2 3 4 5
M TOR 24 2 3 4 14
M TOR 25 3 2 1 8
M TOR 26 3 4 1 8
M TOR 27 3 4 5 6
M TOR 28 3 4 5 7
M TOR 29 3 4 5 8
M TOR 30 4 1 0 9
M TOR 31 4 1 0 10
M TOR 32 4 1 0 11
M TOR 33 4 1 2 12
M TOR 34 4 1 2 13
M TOR 35 4 1 8 17
M TOR 36 4 1 8 18
M TOR 37 4 3 2 12
M TOR 38 4 3 2 13
M TOR 39 4 5 6 7
M TOR 40 4 5 6 15
M TOR 41 4 5 6 16
M TOR 42 4 5 8 17
M TOR 43 4 5 8 18
M TOR 44 5 7 6 15
M TOR 45 5 7 6 16
M TOR 46 6 5 4 14
M TOR 47 6 5 8 17
M TOR 48 6 5 8 18
M TOR 49 6 7 5 8
M TOR 50 7 5 4 14
M TOR 51 7 5 8 17
M TOR 52 7 5 8 18
M TOR 53 8 1 0 9
M TOR 54 8 1 0 10
M TOR 55 8 1 0 11
M TOR 56 8 1 2 12
M TOR 57 8 1 2 13
M TOR 58 8 1 4 14
M TOR 59 8 5 4 14
M TOR 60 8 5 6 15
M TOR 61 8 5 6 16
M  END
$$$$
