gdb 1205	2.2387625	1.4397359	1.3096991	1.8594	77.12	-0.25183	0.02825	0.28008	1106.5106	0.152557	-422.515059	-422.504862	-422.503918	-422.549267	38.618
 OpenBabel02181911403D

 19 19  0  0  1  0  0  0  0  0999 V2000
   -1.7488   -0.0835    0.6562 C   0  0  0  0  0  0  0  0  0  0  0  0
   -0.2135   -0.1743    0.6456 C   0  0  2  0  0  0  0  0  0  0  0  0
    0.2422   -1.1349    1.5982 O   0  0  0  0  0  0  0  0  0  0  0  0
    0.3773    1.1485    0.9288 C   0  0  0  0  0  0  0  0  0  0  0  0
    0.8560    2.2291    1.1534 C   0  0  0  0  0  0  0  0  0  0  0  0
    0.2844   -0.6413   -0.7324 C   0  0  0  0  0  0  0  0  0  0  0  0
   -0.0815    0.2353   -1.7615 O   0  0  0  0  0  0  0  0  0  0  0  0
    0.2544   -2.0916   -1.0895 C   0  0  0  0  0  0  0  0  0  0  0  0
    1.5824   -1.3878   -0.8619 C   0  0  0  0  0  0  0  0  0  0  0  0
   -2.1049    0.3107    1.6130 H   0  0  0  0  0  0  0  0  0  0  0  0
   -2.0953    0.5719   -0.1449 H   0  0  0  0  0  0  0  0  0  0  0  0
   -2.1638   -1.0833    0.5046 H   0  0  0  0  0  0  0  0  0  0  0  0
    0.0030   -0.8149    2.4741 H   0  0  0  0  0  0  0  0  0  0  0  0
    1.2815    3.1795    1.3646 H   0  0  0  0  0  0  0  0  0  0  0  0
    0.4050    1.0575   -1.6213 H   0  0  0  0  0  0  0  0  0  0  0  0
   -0.0749   -2.7956   -0.3352 H   0  0  0  0  0  0  0  0  0  0  0  0
   -0.0265   -2.3272   -2.1094 H   0  0  0  0  0  0  0  0  0  0  0  0
    2.1307   -1.6259    0.0407 H   0  0  0  0  0  0  0  0  0  0  0  0
    2.1818   -1.1584   -1.7357 H   0  0  0  0  0  0  0  0  0  0  0  0
  1 10  1  0  0  0  0
  2  1  1  0  0  0  0
  2  4  1  1  0  0  0
  2  3  1  0  0  0  0
  3 13  1  0  0  0  0
  4  5  3  0  0  0  0
  5 14  1  0  0  0  0
  6  2  1  0  0  0  0
  7 15  1  0  0  0  0
  7  6  1  0  0  0  0
  8  9  1  0  0  0  0
  8  6  1  0  0  0  0
  8 16  1  0  0  0  0
  9  6  1  0  0  0  0
  9 18  1  0  0  0  0
 11  1  1  0  0  0  0
 12  1  1  0  0  0  0
 17  8  1  0  0  0  0
 19  9  1  0  0  0  0
M TOR 0 0 1 2 12
M TOR 1 0 1 3 4
M TOR 2 0 1 5 6
M TOR 3 0 1 5 7
M TOR 4 0 1 5 8
M TOR 5 1 3 4 13
M TOR 6 1 5 6 14
M TOR 7 1 5 7 8
M TOR 8 1 5 7 15
M TOR 9 1 5 7 16
M TOR 10 1 5 8 17
M TOR 11 1 5 8 18
M TOR 12 2 1 0 9
M TOR 13 2 1 0 10
M TOR 14 2 1 0 11
M TOR 15 2 1 3 4
M TOR 16 2 1 5 6
M TOR 17 2 1 5 7
M TOR 18 2 1 5 8
M TOR 19 3 1 0 9
M TOR 20 3 1 0 10
M TOR 21 3 1 0 11
M TOR 22 3 1 2 12
M TOR 23 3 1 5 6
M TOR 24 3 1 5 7
M TOR 25 3 1 5 8
M TOR 26 4 3 1 5
M TOR 27 5 1 0 9
M TOR 28 5 1 0 10
M TOR 29 5 1 0 11
M TOR 30 5 1 2 12
M TOR 31 5 7 8 17
M TOR 32 5 7 8 18
M TOR 33 5 8 7 15
M TOR 34 5 8 7 16
M TOR 35 6 5 7 8
M TOR 36 6 5 7 15
M TOR 37 6 5 7 16
M TOR 38 6 5 8 17
M TOR 39 6 5 8 18
M TOR 40 7 5 6 14
M TOR 41 8 5 6 14
M  END
$$$$
