
     RDKit          3D

 19 19  0  0  0  0  0  0  0  0999 V2000
    1.6761    0.0998   -0.0394 C   0  0  0  0  0  0  0  0  0  0  0  0
    0.2839    0.1042   -0.2972 O   0  0  0  0  0  0  0  0  0  0  0  0
   -0.4602    0.5721    0.7780 C   0  0  0  0  0  0  0  0  0  0  0  0
   -0.6641    2.0531    0.9616 C   0  0  0  0  0  0  0  0  0  0  0  0
   -0.7033    2.5332    2.2722 O   0  0  0  0  0  0  0  0  0  0  0  0
   -1.7987    1.1757    0.4626 C   0  0  0  0  0  0  0  0  0  0  0  0
   -2.9909    0.9233    1.3765 C   0  0  0  0  0  0  0  0  0  0  0  0
   -3.8087    2.1229    1.5532 C   0  0  0  0  0  0  0  0  0  0  0  0
   -4.4404    3.1371    1.6927 C   0  0  0  0  0  0  0  0  0  0  0  0
    1.9284   -0.5640    0.8010 H   0  0  0  0  0  0  0  0  0  0  0  0
    2.1680   -0.2686   -0.9424 H   0  0  0  0  0  0  0  0  0  0  0  0
    2.0490    1.1073    0.1921 H   0  0  0  0  0  0  0  0  0  0  0  0
   -0.3767   -0.0120    1.6975 H   0  0  0  0  0  0  0  0  0  0  0  0
   -0.1907    2.7050    0.2277 H   0  0  0  0  0  0  0  0  0  0  0  0
   -1.4677    3.1180    2.3458 H   0  0  0  0  0  0  0  0  0  0  0  0
   -2.0304    1.2721   -0.5933 H   0  0  0  0  0  0  0  0  0  0  0  0
   -3.6051    0.1089    0.9741 H   0  0  0  0  0  0  0  0  0  0  0  0
   -2.6383    0.5907    2.3587 H   0  0  0  0  0  0  0  0  0  0  0  0
   -5.0224    4.0171    1.8142 H   0  0  0  0  0  0  0  0  0  0  0  0
  1  2  1  0
  2  3  1  0
  3  4  1  0
  4  5  1  0
  4  6  1  0
  6  7  1  0
  7  8  1  0
  8  9  3  0
  6  3  1  0
  1 10  1  0
  1 11  1  0
  1 12  1  0
  3 13  1  0
  4 14  1  0
  5 15  1  0
  6 16  1  0
  7 17  1  0
  7 18  1  0
  9 19  1  0
M  END
$$$$
