
     RDKit          3D

 19 20  0  0  0  0  0  0  0  0999 V2000
   -0.4528    2.0018   -1.3541 C   0  0  0  0  0  0  0  0  0  0  0  0
   -0.7843    1.3035   -0.0263 C   0  0  0  0  0  0  0  0  0  0  0  0
   -2.1941    0.7616    0.0507 C   0  0  0  0  0  0  0  0  0  0  0  0
   -2.4630    0.0783    1.2827 O   0  0  0  0  0  0  0  0  0  0  0  0
   -2.2034   -0.7156    0.1100 C   0  0  0  0  0  0  0  0  0  0  0  0
   -3.3336   -1.5805   -0.3746 C   0  0  0  0  0  0  0  0  0  0  0  0
   -0.7739   -1.2186    0.1001 C   0  0  0  0  0  0  0  0  0  0  0  0
    0.0954    0.0484    0.1656 C   0  0  0  0  0  0  0  0  0  0  0  0
    1.2898    0.0647    0.3018 O   0  0  0  0  0  0  0  0  0  0  0  0
   -0.6625    1.3526   -2.2112 H   0  0  0  0  0  0  0  0  0  0  0  0
   -1.0432    2.9154   -1.4718 H   0  0  0  0  0  0  0  0  0  0  0  0
    0.6068    2.2669   -1.3807 H   0  0  0  0  0  0  0  0  0  0  0  0
   -0.5847    1.9888    0.8051 H   0  0  0  0  0  0  0  0  0  0  0  0
   -3.0273    1.3273   -0.3622 H   0  0  0  0  0  0  0  0  0  0  0  0
   -3.4223   -2.4830    0.2398 H   0  0  0  0  0  0  0  0  0  0  0  0
   -4.2809   -1.0380   -0.3206 H   0  0  0  0  0  0  0  0  0  0  0  0
   -3.1673   -1.8954   -1.4102 H   0  0  0  0  0  0  0  0  0  0  0  0
   -0.5471   -1.8786    0.9427 H   0  0  0  0  0  0  0  0  0  0  0  0
   -0.5357   -1.7683   -0.8192 H   0  0  0  0  0  0  0  0  0  0  0  0
  1  2  1  0
  2  3  1  0
  3  4  1  0
  4  5  1  0
  5  6  1  0
  5  7  1  0
  7  8  1  0
  8  9  2  0
  8  2  1  0
  5  3  1  0
  1 10  1  0
  1 11  1  0
  1 12  1  0
  2 13  1  0
  3 14  1  0
  6 15  1  0
  6 16  1  0
  6 17  1  0
  7 18  1  0
  7 19  1  0
M  END
$$$$
