
     RDKit          3D

 19 20  0  0  0  0  0  0  0  0999 V2000
    3.1906    2.9417    0.2834 C   0  0  0  0  0  0  0  0  0  0  0  0
    1.7747    2.5433   -0.1584 C   0  0  0  0  0  0  0  0  0  0  0  0
    1.6006    1.0444   -0.3217 C   0  0  0  0  0  0  0  0  0  0  0  0
    0.7236    0.5184    0.5423 C   0  0  0  0  0  0  0  0  0  0  0  0
    0.3081   -0.9117    0.6828 C   0  0  0  0  0  0  0  0  0  0  0  0
   -1.1043   -1.0692    0.6044 O   0  0  0  0  0  0  0  0  0  0  0  0
    0.1005    1.6177    1.3484 C   0  0  0  0  0  0  0  0  0  0  0  0
   -0.6204    2.5679    0.5280 O   0  0  0  0  0  0  0  0  0  0  0  0
    0.7220    2.8757    0.9004 C   0  0  0  0  0  0  0  0  0  0  0  0
    3.4519    2.4660    1.2342 H   0  0  0  0  0  0  0  0  0  0  0  0
    3.9336    2.6357   -0.4593 H   0  0  0  0  0  0  0  0  0  0  0  0
    3.2689    4.0268    0.4109 H   0  0  0  0  0  0  0  0  0  0  0  0
    1.5355    3.0612   -1.0970 H   0  0  0  0  0  0  0  0  0  0  0  0
    2.1370    0.4818   -1.0799 H   0  0  0  0  0  0  0  0  0  0  0  0
    0.8329   -1.5309   -0.0610 H   0  0  0  0  0  0  0  0  0  0  0  0
    0.5821   -1.2976    1.6729 H   0  0  0  0  0  0  0  0  0  0  0  0
   -1.4001   -0.6168   -0.1930 H   0  0  0  0  0  0  0  0  0  0  0  0
   -0.3192    1.4498    2.3353 H   0  0  0  0  0  0  0  0  0  0  0  0
    0.8445    3.7466    1.5407 H   0  0  0  0  0  0  0  0  0  0  0  0
  1  2  1  0
  2  3  1  0
  3  4  2  0
  4  5  1  0
  5  6  1  0
  4  7  1  0
  7  8  1  0
  8  9  1  0
  9  2  1  0
  9  7  1  0
  1 10  1  0
  1 11  1  0
  1 12  1  0
  2 13  1  0
  3 14  1  0
  5 15  1  0
  5 16  1  0
  6 17  1  0
  7 18  1  0
  9 19  1  0
M  END
$$$$
