gdb 4929	2.1457127	1.456391	1.0898377	2.156	77.08	-0.25279	0.02958	0.28237	1183.9346	0.154364	-422.507945	-422.498101	-422.497157	-422.542715	35.766
 OpenBabel02181911413D

 19 19  0  0  1  0  0  0  0  0999 V2000
    0.2514    0.1374   -0.3720 C   0  0  0  0  0  0  0  0  0  0  0  0
    1.0467   -0.5604    0.7120 C   0  0  2  0  0  0  0  0  0  0  0  0
    2.4749   -0.4647    0.5072 O   0  0  0  0  0  0  0  0  0  0  0  0
    2.6074   -1.8840    0.3113 C   0  0  0  0  0  0  0  0  0  0  0  0
    1.1237   -2.1251    0.7019 C   0  0  1  0  0  0  0  0  0  0  0  0
    0.9638   -2.7337    2.1076 C   0  0  0  0  0  0  0  0  0  0  0  0
    1.3592   -4.0866    2.1575 O   0  0  0  0  0  0  0  0  0  0  0  0
    0.3042   -2.8506   -0.2502 C   0  0  0  0  0  0  0  0  0  0  0  0
   -0.3761   -3.4986   -1.0029 C   0  0  0  0  0  0  0  0  0  0  0  0
   -0.8229    0.0194   -0.1963 H   0  0  0  0  0  0  0  0  0  0  0  0
    0.4875    1.2059   -0.3676 H   0  0  0  0  0  0  0  0  0  0  0  0
    0.4862   -0.2673   -1.3599 H   0  0  0  0  0  0  0  0  0  0  0  0
    0.7713   -0.1628    1.6990 H   0  0  0  0  0  0  0  0  0  0  0  0
    2.8562   -2.1369   -0.7254 H   0  0  0  0  0  0  0  0  0  0  0  0
    3.3389   -2.3406    0.9864 H   0  0  0  0  0  0  0  0  0  0  0  0
    1.6162   -2.1944    2.8016 H   0  0  0  0  0  0  0  0  0  0  0  0
   -0.0766   -2.5951    2.4417 H   0  0  0  0  0  0  0  0  0  0  0  0
    0.8162   -4.5660    1.5201 H   0  0  0  0  0  0  0  0  0  0  0  0
   -0.9737   -4.0487   -1.6877 H   0  0  0  0  0  0  0  0  0  0  0  0
  1 11  1  0  0  0  0
  1 10  1  0  0  0  0
  1  2  1  0  0  0  0
  2 13  1  1  0  0  0
  3  2  1  0  0  0  0
  4  3  1  0  0  0  0
  4  5  1  0  0  0  0
  4 15  1  0  0  0  0
  5  8  1  6  0  0  0
  5  2  1  0  0  0  0
  5  6  1  0  0  0  0
  6  7  1  0  0  0  0
  6 17  1  0  0  0  0
  6 16  1  0  0  0  0
  9  8  3  0  0  0  0
 12  1  1  0  0  0  0
 14  4  1  0  0  0  0
 18  7  1  0  0  0  0
 19  9  1  0  0  0  0
M TOR 0 0 1 2 3
M TOR 1 0 1 4 3
M TOR 2 0 1 4 5
M TOR 3 0 1 4 7
M TOR 4 1 2 3 4
M TOR 5 1 2 3 13
M TOR 6 1 2 3 14
M TOR 7 1 4 3 13
M TOR 8 1 4 3 14
M TOR 9 1 4 5 6
M TOR 10 1 4 5 15
M TOR 11 1 4 5 16
M TOR 12 1 4 7 8
M TOR 13 2 1 0 9
M TOR 14 2 1 0 10
M TOR 15 2 1 0 11
M TOR 16 2 1 4 5
M TOR 17 2 1 4 7
M TOR 18 2 3 4 5
M TOR 19 2 3 4 7
M TOR 20 3 2 1 12
M TOR 21 3 4 1 12
M TOR 22 3 4 5 6
M TOR 23 3 4 5 15
M TOR 24 3 4 5 16
M TOR 25 3 4 7 8
M TOR 26 4 1 0 9
M TOR 27 4 1 0 10
M TOR 28 4 1 0 11
M TOR 29 4 5 6 17
M TOR 30 4 7 8 18
M TOR 31 5 4 1 12
M TOR 32 5 4 3 13
M TOR 33 5 4 3 14
M TOR 34 5 4 7 8
M TOR 35 6 5 4 7
M TOR 36 7 4 1 12
M TOR 37 7 4 3 13
M TOR 38 7 4 3 14
M TOR 39 7 4 5 15
M TOR 40 7 4 5 16
M  END
$$$$
