gdb 2880	2.7803208	1.7551835	1.5750221	1.5289	73.15	-0.22335	0.07204	0.29539	932.9189	0.160168	-422.56312	-422.555989	-422.555045	-422.594357	28.917
 OpenBabel02181911413D

 19 21  0  0  1  0  0  0  0  0999 V2000
   -0.7378    0.9333   -0.2345 O   0  0  0  0  0  0  0  0  0  0  0  0
   -1.9255    0.3804    0.3210 C   0  0  2  0  0  0  0  0  0  0  0  0
   -2.8959    0.1387   -0.8133 C   0  0  2  0  0  0  0  0  0  0  0  0
   -3.7612    1.4013   -0.9381 C   0  0  2  0  0  0  0  0  0  0  0  0
   -3.3055    2.3602    0.1533 C   0  0  0  0  0  0  0  0  0  0  0  0
   -2.7118    1.3858    1.1943 C   0  0  1  0  0  0  0  0  0  0  0  0
   -3.8502    0.6335    1.8896 C   0  0  0  0  0  0  0  0  0  0  0  0
   -4.7313    0.0183    0.9502 O   0  0  0  0  0  0  0  0  0  0  0  0
   -4.3438    0.1288   -0.3943 C   0  0  2  0  0  0  0  0  0  0  0  0
   -0.1108    1.0670    0.4838 H   0  0  0  0  0  0  0  0  0  0  0  0
   -1.6940   -0.5385    0.8816 H   0  0  0  0  0  0  0  0  0  0  0  0
   -2.5645   -0.4310   -1.6735 H   0  0  0  0  0  0  0  0  0  0  0  0
   -4.0795    1.7820   -1.9019 H   0  0  0  0  0  0  0  0  0  0  0  0
   -2.5365    3.0382   -0.2273 H   0  0  0  0  0  0  0  0  0  0  0  0
   -4.1228    2.9591    0.5695 H   0  0  0  0  0  0  0  0  0  0  0  0
   -2.0800    1.8717    1.9442 H   0  0  0  0  0  0  0  0  0  0  0  0
   -3.4475   -0.1473    2.5525 H   0  0  0  0  0  0  0  0  0  0  0  0
   -4.4409    1.3225    2.5075 H   0  0  0  0  0  0  0  0  0  0  0  0
   -5.0401   -0.4278   -1.0111 H   0  0  0  0  0  0  0  0  0  0  0  0
  1  2  1  0  0  0  0
  1 10  1  0  0  0  0
  2 11  1  1  0  0  0
  2  6  1  0  0  0  0
  3 12  1  6  0  0  0
  3  9  1  0  0  0  0
  3  2  1  0  0  0  0
  4 13  1  6  0  0  0
  4  3  1  0  0  0  0
  4  9  1  0  0  0  0
  4  5  1  0  0  0  0
  5 15  1  0  0  0  0
  5  6  1  0  0  0  0
  6  7  1  0  0  0  0
  6 16  1  1  0  0  0
  7 18  1  0  0  0  0
  7 17  1  0  0  0  0
  8  7  1  0  0  0  0
  9 19  1  6  0  0  0
  9  8  1  0  0  0  0
 14  5  1  0  0  0  0
M TOR 0 0 1 2 3
M TOR 1 0 1 2 8
M TOR 2 0 1 2 11
M TOR 3 0 1 5 4
M TOR 4 0 1 5 6
M TOR 5 0 1 5 15
M TOR 6 1 2 3 4
M TOR 7 1 2 3 8
M TOR 8 1 2 3 12
M TOR 9 1 2 8 7
M TOR 10 1 2 8 18
M TOR 11 1 5 4 3
M TOR 12 1 5 4 13
M TOR 13 1 5 4 14
M TOR 14 1 5 6 7
M TOR 15 1 5 6 16
M TOR 16 1 5 6 17
M TOR 17 2 1 0 9
M TOR 18 2 1 5 4
M TOR 19 2 1 5 6
M TOR 20 2 1 5 15
M TOR 21 2 3 4 5
M TOR 22 2 3 4 13
M TOR 23 2 3 4 14
M TOR 24 2 3 8 7
M TOR 25 2 3 8 18
M TOR 26 2 8 3 4
M TOR 27 2 8 3 12
M TOR 28 2 8 7 6
M TOR 29 3 2 1 5
M TOR 30 3 2 1 10
M TOR 31 3 4 5 6
M TOR 32 3 4 5 15
M TOR 33 3 8 2 11
M TOR 34 3 8 7 6
M TOR 35 4 3 2 11
M TOR 36 4 3 8 7
M TOR 37 4 3 8 18
M TOR 38 4 5 1 10
M TOR 39 4 5 6 7
M TOR 40 4 5 6 16
M TOR 41 4 5 6 17
M TOR 42 5 1 0 9
M TOR 43 5 1 2 8
M TOR 44 5 1 2 11
M TOR 45 5 4 3 8
M TOR 46 5 4 3 12
M TOR 47 5 6 7 8
M TOR 48 6 5 1 10
M TOR 49 6 5 4 13
M TOR 50 6 5 4 14
M TOR 51 6 7 8 18
M TOR 52 7 6 5 15
M TOR 53 7 8 2 11
M TOR 54 7 8 3 12
M TOR 55 8 2 1 10
M TOR 56 8 3 4 13
M TOR 57 8 3 4 14
M TOR 58 8 7 6 16
M TOR 59 8 7 6 17
M  END
$$$$
