
     RDKit          3D

 19 18  0  0  0  0  0  0  0  0999 V2000
   -2.7687    4.6011    2.5680 C   0  0  0  0  0  0  0  0  0  0  0  0
   -2.1385    4.0278    1.2982 C   0  0  0  0  0  0  0  0  0  0  0  0
   -1.4851    2.8206    1.6697 O   0  0  0  0  0  0  0  0  0  0  0  0
   -1.0102    2.0538    0.5804 C   0  0  0  0  0  0  0  0  0  0  0  0
   -0.3884    0.7784    1.1476 C   0  0  0  0  0  0  0  0  0  0  0  0
    0.3509   -0.0099    0.0906 C   0  0  0  0  0  0  0  0  0  0  0  0
    0.1580   -1.1698   -0.1655 O   0  0  0  0  0  0  0  0  0  0  0  0
   -1.2155    4.9829    0.6679 C   0  0  0  0  0  0  0  0  0  0  0  0
   -0.4579    5.7648    0.1582 C   0  0  0  0  0  0  0  0  0  0  0  0
   -3.4571    3.8682    2.9955 H   0  0  0  0  0  0  0  0  0  0  0  0
   -1.9912    4.8269    3.3016 H   0  0  0  0  0  0  0  0  0  0  0  0
   -3.3153    5.5191    2.3398 H   0  0  0  0  0  0  0  0  0  0  0  0
   -2.9372    3.7956    0.5732 H   0  0  0  0  0  0  0  0  0  0  0  0
   -1.8381    1.8072   -0.1045 H   0  0  0  0  0  0  0  0  0  0  0  0
   -0.2648    2.6228    0.0040 H   0  0  0  0  0  0  0  0  0  0  0  0
    0.3408    1.0781    1.9132 H   0  0  0  0  0  0  0  0  0  0  0  0
   -1.1408    0.1406    1.6170 H   0  0  0  0  0  0  0  0  0  0  0  0
    1.1266    0.5749   -0.4585 H   0  0  0  0  0  0  0  0  0  0  0  0
    0.2083    6.4577   -0.2942 H   0  0  0  0  0  0  0  0  0  0  0  0
  1  2  1  0
  2  3  1  0
  3  4  1  0
  4  5  1  0
  5  6  1  0
  6  7  2  0
  2  8  1  0
  8  9  3  0
  1 10  1  0
  1 11  1  0
  1 12  1  0
  2 13  1  0
  4 14  1  0
  4 15  1  0
  5 16  1  0
  5 17  1  0
  6 18  1  0
  9 19  1  0
M  END
$$$$
