gdb 1869	2.7177595	1.4403207	1.2035052	2.481	76.03	-0.23284	0.06914	0.30197999999999997	1099.6734	0.155022	-422.508804	-422.499989	-422.499045	-422.54176	33.8
 OpenBabel02181911403D

 19 21  0  0  1  0  0  0  0  0999 V2000
   -0.2844   -0.4819    0.7730 C   0  0  0  0  0  0  0  0  0  0  0  0
    1.1522   -0.1342    0.5147 C   0  0  1  0  0  0  0  0  0  0  0  0
    1.6221    0.5742   -0.7501 C   0  0  0  0  0  0  0  0  0  0  0  0
    1.9227    1.2114    0.5605 C   0  0  1  0  0  0  0  0  0  0  0  0
    1.4736    2.4921    0.8100 O   0  0  0  0  0  0  0  0  0  0  0  0
    3.1374    0.5485    1.2224 C   0  0  0  0  0  0  0  0  0  0  0  0
    2.3642   -0.7850    1.1419 C   0  0  1  0  0  0  0  0  0  0  0  0
    2.4358   -1.9307    2.0469 C   0  0  0  0  0  0  0  0  0  0  0  0
    2.9363   -2.0111    0.7036 O   0  0  0  0  0  0  0  0  0  0  0  0
   -0.4763   -0.6281    1.8421 H   0  0  0  0  0  0  0  0  0  0  0  0
   -0.9440    0.3180    0.4213 H   0  0  0  0  0  0  0  0  0  0  0  0
   -0.5760   -1.4024    0.2537 H   0  0  0  0  0  0  0  0  0  0  0  0
    2.4077    0.1535   -1.3734 H   0  0  0  0  0  0  0  0  0  0  0  0
    0.8200    1.0595   -1.2977 H   0  0  0  0  0  0  0  0  0  0  0  0
    1.3873    2.6040    1.7636 H   0  0  0  0  0  0  0  0  0  0  0  0
    4.0883    0.6008    0.6826 H   0  0  0  0  0  0  0  0  0  0  0  0
    3.2923    0.8742    2.2567 H   0  0  0  0  0  0  0  0  0  0  0  0
    3.1920   -1.9546    2.8317 H   0  0  0  0  0  0  0  0  0  0  0  0
    1.5459   -2.5271    2.2469 H   0  0  0  0  0  0  0  0  0  0  0  0
  1 10  1  0  0  0  0
  2  4  1  0  0  0  0
  2  1  1  1  0  0  0
  2  7  1  0  0  0  0
  3  2  1  0  0  0  0
  3  4  1  0  0  0  0
  4  5  1  1  0  0  0
  4  6  1  0  0  0  0
  5 15  1  0  0  0  0
  6 17  1  0  0  0  0
  7  9  1  6  0  0  0
  7  6  1  0  0  0  0
  7  8  1  0  0  0  0
  8 19  1  0  0  0  0
  8 18  1  0  0  0  0
  9  8  1  0  0  0  0
 11  1  1  0  0  0  0
 12  1  1  0  0  0  0
 13  3  1  0  0  0  0
 14  3  1  0  0  0  0
 16  6  1  0  0  0  0
M TOR 0 0 1 2 3
M TOR 1 0 1 2 12
M TOR 2 0 1 2 13
M TOR 3 0 1 3 4
M TOR 4 0 1 3 5
M TOR 5 0 1 6 5
M TOR 6 0 1 6 7
M TOR 7 0 1 6 8
M TOR 8 1 2 3 4
M TOR 9 1 2 3 5
M TOR 10 1 3 2 12
M TOR 11 1 3 2 13
M TOR 12 1 3 4 14
M TOR 13 1 3 5 6
M TOR 14 1 3 5 15
M TOR 15 1 3 5 16
M TOR 16 1 6 5 15
M TOR 17 1 6 5 16
M TOR 18 1 6 7 8
M TOR 19 1 6 7 17
M TOR 20 1 6 7 18
M TOR 21 2 1 0 9
M TOR 22 2 1 0 10
M TOR 23 2 1 0 11
M TOR 24 2 1 6 5
M TOR 25 2 1 6 7
M TOR 26 2 1 6 8
M TOR 27 2 3 1 6
M TOR 28 2 3 4 14
M TOR 29 2 3 5 6
M TOR 30 2 3 5 15
M TOR 31 2 3 5 16
M TOR 32 3 1 0 9
M TOR 33 3 1 0 10
M TOR 34 3 1 0 11
M TOR 35 3 1 6 7
M TOR 36 3 1 6 8
M TOR 37 3 5 6 7
M TOR 38 3 5 6 8
M TOR 39 4 3 1 6
M TOR 40 4 3 2 12
M TOR 41 4 3 2 13
M TOR 42 4 3 5 6
M TOR 43 4 3 5 15
M TOR 44 4 3 5 16
M TOR 45 5 3 2 12
M TOR 46 5 3 2 13
M TOR 47 5 3 4 14
M TOR 48 5 6 7 8
M TOR 49 5 6 7 17
M TOR 50 5 6 7 18
M TOR 51 6 1 0 9
M TOR 52 6 1 0 10
M TOR 53 6 1 0 11
M TOR 54 6 1 2 12
M TOR 55 6 1 2 13
M TOR 56 6 8 7 17
M TOR 57 6 8 7 18
M TOR 58 7 6 5 15
M TOR 59 7 6 5 16
M TOR 60 8 6 5 15
M TOR 61 8 6 5 16
M  END
$$$$
