
     RDKit          3D

 19 20  0  0  0  0  0  0  0  0999 V2000
    0.1886    0.0817    0.8093 O   0  0  0  0  0  0  0  0  0  0  0  0
   -1.0141    0.3827    0.1554 C   0  0  0  0  0  0  0  0  0  0  0  0
   -2.2435    0.3334    1.0226 C   0  0  0  0  0  0  0  0  0  0  0  0
   -1.7215    1.6580    0.5270 C   0  0  0  0  0  0  0  0  0  0  0  0
   -2.4593    2.3059   -0.4643 O   0  0  0  0  0  0  0  0  0  0  0  0
   -1.6424    3.0764   -1.3311 C   0  0  0  0  0  0  0  0  0  0  0  0
   -0.6944    2.3040   -2.2136 C   0  0  0  0  0  0  0  0  0  0  0  0
   -0.4578    0.9910   -2.2309 C   0  0  0  0  0  0  0  0  0  0  0  0
   -1.0897   -0.0326   -1.3082 C   0  0  0  0  0  0  0  0  0  0  0  0
    0.8842    0.5950    0.3805 H   0  0  0  0  0  0  0  0  0  0  0  0
   -3.1625   -0.0393    0.5847 H   0  0  0  0  0  0  0  0  0  0  0  0
   -2.1008    0.1129    2.0740 H   0  0  0  0  0  0  0  0  0  0  0  0
   -1.2359    2.3156    1.2504 H   0  0  0  0  0  0  0  0  0  0  0  0
   -2.3365    3.6458   -1.9626 H   0  0  0  0  0  0  0  0  0  0  0  0
   -1.0714    3.8238   -0.7504 H   0  0  0  0  0  0  0  0  0  0  0  0
   -0.1690    2.9370   -2.9284 H   0  0  0  0  0  0  0  0  0  0  0  0
    0.2389    0.6129   -2.9756 H   0  0  0  0  0  0  0  0  0  0  0  0
   -2.1355   -0.1876   -1.5936 H   0  0  0  0  0  0  0  0  0  0  0  0
   -0.5901   -1.0006   -1.4143 H   0  0  0  0  0  0  0  0  0  0  0  0
  1  2  1  0
  2  3  1  0
  3  4  1  0
  4  5  1  0
  5  6  1  0
  6  7  1  0
  7  8  2  0
  8  9  1  0
  4  2  1  0
  9  2  1  0
  1 10  1  0
  3 11  1  0
  3 12  1  0
  4 13  1  0
  6 14  1  0
  6 15  1  0
  7 16  1  0
  8 17  1  0
  9 18  1  0
  9 19  1  0
M  END
$$$$
