gdb 1628	3.2101997	1.2974846	1.1473859	1.9506	74.87	-0.22929	0.06604	0.29533	1125.7087	0.155786	-422.491104	-422.482614	-422.48167	-422.524531	32.655
 OpenBabel02181911403D

 19 21  0  0  1  0  0  0  0  0999 V2000
    2.2486    0.6519   -1.7477 O   0  0  0  0  0  0  0  0  0  0  0  0
    3.0928   -0.2576   -1.0795 C   0  0  0  0  0  0  0  0  0  0  0  0
    2.7511   -1.7267   -1.2229 C   0  0  0  0  0  0  0  0  0  0  0  0
    3.8920   -1.1201   -2.0105 C   0  0  0  0  0  0  0  0  0  0  0  0
    3.6541    0.2545    0.2000 C   0  0  1  0  0  0  0  0  0  0  0  0
    5.0529    0.0140    0.7388 C   0  0  0  0  0  0  0  0  0  0  0  0
    4.5742    1.4153    0.5187 C   0  0  2  0  0  0  0  0  0  0  0  0
    3.7795    1.8583    1.6191 O   0  0  0  0  0  0  0  0  0  0  0  0
    2.8052    0.8177    1.3462 C   0  0  0  0  0  0  0  0  0  0  0  0
    1.4062    0.6754   -1.2817 H   0  0  0  0  0  0  0  0  0  0  0  0
    2.9929   -2.3923   -0.4015 H   0  0  0  0  0  0  0  0  0  0  0  0
    1.8436   -1.9700   -1.7641 H   0  0  0  0  0  0  0  0  0  0  0  0
    4.9054   -1.3959   -1.7455 H   0  0  0  0  0  0  0  0  0  0  0  0
    3.7262   -0.9404   -3.0660 H   0  0  0  0  0  0  0  0  0  0  0  0
    5.2015   -0.3475    1.7532 H   0  0  0  0  0  0  0  0  0  0  0  0
    5.7683   -0.3503    0.0089 H   0  0  0  0  0  0  0  0  0  0  0  0
    5.0554    2.1622   -0.1012 H   0  0  0  0  0  0  0  0  0  0  0  0
    2.6219    0.1728    2.2141 H   0  0  0  0  0  0  0  0  0  0  0  0
    1.8608    1.2642    1.0114 H   0  0  0  0  0  0  0  0  0  0  0  0
  1 10  1  0  0  0  0
  1  2  1  0  0  0  0
  3  2  1  0  0  0  0
  3 11  1  0  0  0  0
  4 13  1  0  0  0  0
  4  3  1  0  0  0  0
  4  2  1  0  0  0  0
  5  2  1  6  0  0  0
  5  7  1  0  0  0  0
  5  6  1  0  0  0  0
  5  9  1  0  0  0  0
  6 15  1  0  0  0  0
  7 17  1  6  0  0  0
  7  6  1  0  0  0  0
  7  8  1  0  0  0  0
  9  8  1  0  0  0  0
  9 18  1  0  0  0  0
 12  3  1  0  0  0  0
 14  4  1  0  0  0  0
 16  6  1  0  0  0  0
 19  9  1  0  0  0  0
M TOR 0 0 1 2 3
M TOR 1 0 1 2 10
M TOR 2 0 1 2 11
M TOR 3 0 1 3 12
M TOR 4 0 1 3 13
M TOR 5 0 1 4 5
M TOR 6 0 1 4 6
M TOR 7 0 1 4 8
M TOR 8 1 2 3 12
M TOR 9 1 2 3 13
M TOR 10 1 3 2 10
M TOR 11 1 3 2 11
M TOR 12 1 4 5 6
M TOR 13 1 4 5 14
M TOR 14 1 4 5 15
M TOR 15 1 4 6 7
M TOR 16 1 4 6 16
M TOR 17 1 4 8 7
M TOR 18 1 4 8 17
M TOR 19 1 4 8 18
M TOR 20 2 1 0 9
M TOR 21 2 1 4 5
M TOR 22 2 1 4 6
M TOR 23 2 1 4 8
M TOR 24 2 3 1 4
M TOR 25 3 1 0 9
M TOR 26 3 1 4 5
M TOR 27 3 1 4 6
M TOR 28 3 1 4 8
M TOR 29 4 1 0 9
M TOR 30 4 1 2 10
M TOR 31 4 1 2 11
M TOR 32 4 1 3 12
M TOR 33 4 1 3 13
M TOR 34 4 5 6 7
M TOR 35 4 5 6 16
M TOR 36 4 6 5 14
M TOR 37 4 6 5 15
M TOR 38 4 6 7 8
M TOR 39 5 4 8 7
M TOR 40 5 4 8 17
M TOR 41 5 4 8 18
M TOR 42 5 6 4 8
M TOR 43 5 6 7 8
M TOR 44 6 4 8 17
M TOR 45 6 4 8 18
M TOR 46 6 7 8 17
M TOR 47 6 7 8 18
M TOR 48 7 6 5 14
M TOR 49 7 6 5 15
M TOR 50 8 4 5 14
M TOR 51 8 4 5 15
M TOR 52 8 4 6 16
M TOR 53 8 7 6 16
M  END
$$$$
