gdb 5476	4.4989045	0.9525628	0.8939662	2.9564	75.37	-0.23113	0.06037	0.2915	1348.7689	0.155123	-422.480648	-422.471869	-422.470925	-422.513907	33.325
 OpenBabel02181911423D

 19 21  0  0  1  0  0  0  0  0999 V2000
    5.6648   -2.7205    2.4390 C   0  0  0  0  0  0  0  0  0  0  0  0
    4.5087   -2.8019    1.5003 C   0  0  1  0  0  0  0  0  0  0  0  0
    4.7530   -3.0980    0.1141 O   0  0  0  0  0  0  0  0  0  0  0  0
    3.8071   -3.9012    0.8409 C   0  0  2  0  0  0  0  0  0  0  0  0
    2.4459   -3.1434    0.9301 C   0  0  2  0  0  0  0  0  0  0  0  0
    2.5136   -1.7833    0.2700 C   0  0  1  0  0  0  0  0  0  0  0  0
    1.2346   -0.9768    0.2377 C   0  0  0  0  0  0  0  0  0  0  0  0
    0.4313   -1.2794   -0.8923 O   0  0  0  0  0  0  0  0  0  0  0  0
    3.1692   -1.9883    1.6095 C   0  0  2  0  0  0  0  0  0  0  0  0
    6.3758   -3.5261    2.2384 H   0  0  0  0  0  0  0  0  0  0  0  0
    6.1876   -1.7635    2.3287 H   0  0  0  0  0  0  0  0  0  0  0  0
    5.3253   -2.7994    3.4770 H   0  0  0  0  0  0  0  0  0  0  0  0
    3.9641   -4.9737    0.8479 H   0  0  0  0  0  0  0  0  0  0  0  0
    1.5183   -3.6123    1.2343 H   0  0  0  0  0  0  0  0  0  0  0  0
    3.1443   -1.6701   -0.6041 H   0  0  0  0  0  0  0  0  0  0  0  0
    0.6748   -1.1177    1.1777 H   0  0  0  0  0  0  0  0  0  0  0  0
    1.4670    0.0905    0.1568 H   0  0  0  0  0  0  0  0  0  0  0  0
    0.3079   -2.2343   -0.9076 H   0  0  0  0  0  0  0  0  0  0  0  0
    2.8712   -1.4523    2.5020 H   0  0  0  0  0  0  0  0  0  0  0  0
  1 12  1  0  0  0  0
  2  9  1  0  0  0  0
  2  1  1  1  0  0  0
  3  4  1  0  0  0  0
  3  2  1  0  0  0  0
  4 13  1  1  0  0  0
  4  5  1  0  0  0  0
  4  2  1  0  0  0  0
  5 14  1  1  0  0  0
  5  9  1  0  0  0  0
  6 15  1  6  0  0  0
  6  5  1  0  0  0  0
  6  9  1  0  0  0  0
  7  6  1  0  0  0  0
  7 16  1  0  0  0  0
  8  7  1  0  0  0  0
  9 19  1  1  0  0  0
 10  1  1  0  0  0  0
 11  1  1  0  0  0  0
 17  7  1  0  0  0  0
 18  8  1  0  0  0  0
M TOR 0 0 1 2 3
M TOR 1 0 1 3 4
M TOR 2 0 1 3 12
M TOR 3 0 1 8 4
M TOR 4 0 1 8 5
M TOR 5 0 1 8 18
M TOR 6 1 2 3 4
M TOR 7 1 2 3 12
M TOR 8 1 3 4 5
M TOR 9 1 3 4 8
M TOR 10 1 3 4 13
M TOR 11 1 8 4 5
M TOR 12 1 8 4 13
M TOR 13 1 8 5 6
M TOR 14 1 8 5 14
M TOR 15 2 1 0 9
M TOR 16 2 1 0 10
M TOR 17 2 1 0 11
M TOR 18 2 1 8 4
M TOR 19 2 1 8 5
M TOR 20 2 1 8 18
M TOR 21 2 3 1 8
M TOR 22 2 3 4 5
M TOR 23 2 3 4 8
M TOR 24 2 3 4 13
M TOR 25 3 1 0 9
M TOR 26 3 1 0 10
M TOR 27 3 1 0 11
M TOR 28 3 1 8 5
M TOR 29 3 1 8 18
M TOR 30 3 4 5 6
M TOR 31 3 4 5 8
M TOR 32 3 4 5 14
M TOR 33 3 4 8 18
M TOR 34 4 5 6 7
M TOR 35 4 5 6 15
M TOR 36 4 5 6 16
M TOR 37 4 5 8 18
M TOR 38 4 8 5 6
M TOR 39 4 8 5 14
M TOR 40 5 4 3 12
M TOR 41 5 6 7 17
M TOR 42 5 8 4 13
M TOR 43 6 5 4 13
M TOR 44 6 5 8 18
M TOR 45 7 6 5 8
M TOR 46 7 6 5 14
M TOR 47 8 1 0 9
M TOR 48 8 1 0 10
M TOR 49 8 1 0 11
M TOR 50 8 1 3 12
M TOR 51 8 4 3 12
M TOR 52 8 5 6 15
M TOR 53 8 5 6 16
M  END
$$$$
