gdb 1002	3.014952	0.8664086	0.7059828	3.2343	80.22	-0.24319	0.03153	0.27471999999999996	1606.0778	0.154739	-422.502976	-422.492584	-422.49164	-422.540883	34.971
 OpenBabel02181911403D

 19 19  0  0  1  0  0  0  0  0999 V2000
    1.5167   -0.0695    0.1212 C   0  0  0  0  0  0  0  0  0  0  0  0
    0.0621   -0.0735    0.0685 C   0  0  0  0  0  0  0  0  0  0  0  0
   -1.1419   -0.0979    0.0261 C   0  0  0  0  0  0  0  0  0  0  0  0
   -2.6061   -0.0648   -0.0072 C   0  0  1  0  0  0  0  0  0  0  0  0
   -3.1728    0.1293    1.2879 O   0  0  0  0  0  0  0  0  0  0  0  0
   -3.1170    0.9928   -0.9925 C   0  0  0  0  0  0  0  0  0  0  0  0
   -4.6241    0.9026   -1.3054 C   0  0  0  0  0  0  0  0  0  0  0  0
   -4.3600    0.4575   -2.6539 O   0  0  0  0  0  0  0  0  0  0  0  0
   -2.9409    0.6544   -2.4880 C   0  0  0  0  0  0  0  0  0  0  0  0
    1.8741   -0.2128    1.1468 H   0  0  0  0  0  0  0  0  0  0  0  0
    1.9353   -0.8762   -0.4903 H   0  0  0  0  0  0  0  0  0  0  0  0
    1.9293    0.8761   -0.2467 H   0  0  0  0  0  0  0  0  0  0  0  0
   -2.9850   -1.0434   -0.3308 H   0  0  0  0  0  0  0  0  0  0  0  0
   -2.7013    0.8617    1.7003 H   0  0  0  0  0  0  0  0  0  0  0  0
   -2.7546    1.9783   -0.6895 H   0  0  0  0  0  0  0  0  0  0  0  0
   -5.1880    0.1648   -0.7231 H   0  0  0  0  0  0  0  0  0  0  0  0
   -5.1628    1.8584   -1.2886 H   0  0  0  0  0  0  0  0  0  0  0  0
   -2.3651   -0.2526   -2.7108 H   0  0  0  0  0  0  0  0  0  0  0  0
   -2.5631    1.4754   -3.1104 H   0  0  0  0  0  0  0  0  0  0  0  0
  1 10  1  0  0  0  0
  2  1  1  0  0  0  0
  3  2  3  0  0  0  0
  4 13  1  6  0  0  0
  4  3  1  0  0  0  0
  4  5  1  0  0  0  0
  5 14  1  0  0  0  0
  6 15  1  0  0  0  0
  6  4  1  0  0  0  0
  7 17  1  0  0  0  0
  7  6  1  0  0  0  0
  7 16  1  0  0  0  0
  8  9  1  0  0  0  0
  8  7  1  0  0  0  0
  9  6  1  0  0  0  0
 11  1  1  0  0  0  0
 12  1  1  0  0  0  0
 18  9  1  0  0  0  0
 19  9  1  0  0  0  0
M TOR 0 0 1 2 3
M TOR 1 1 2 3 4
M TOR 2 1 2 3 5
M TOR 3 1 2 3 12
M TOR 4 2 1 0 9
M TOR 5 2 1 0 10
M TOR 6 2 1 0 11
M TOR 7 2 3 4 13
M TOR 8 2 3 5 6
M TOR 9 2 3 5 8
M TOR 10 2 3 5 14
M TOR 11 3 5 6 7
M TOR 12 3 5 6 15
M TOR 13 3 5 6 16
M TOR 14 3 5 8 7
M TOR 15 3 5 8 17
M TOR 16 3 5 8 18
M TOR 17 4 3 5 6
M TOR 18 4 3 5 8
M TOR 19 4 3 5 14
M TOR 20 5 3 4 13
M TOR 21 5 6 7 8
M TOR 22 6 5 3 12
M TOR 23 6 5 8 17
M TOR 24 6 5 8 18
M TOR 25 6 7 8 17
M TOR 26 6 7 8 18
M TOR 27 7 6 5 14
M TOR 28 7 8 5 14
M TOR 29 8 5 3 12
M TOR 30 8 5 6 15
M TOR 31 8 5 6 16
M TOR 32 8 7 6 15
M TOR 33 8 7 6 16
M  END
$$$$
