
     RDKit          3D

 19 20  0  0  0  0  0  0  0  0999 V2000
   -1.8813    2.4334    2.0105 O   0  0  0  0  0  0  0  0  0  0  0  0
   -1.7546    1.2568    1.2243 C   0  0  0  0  0  0  0  0  0  0  0  0
   -1.7771   -0.0090    2.0908 C   0  0  0  0  0  0  0  0  0  0  0  0
   -1.6214   -1.2867    1.2842 C   0  0  0  0  0  0  0  0  0  0  0  0
   -2.2926   -1.4334   -0.0449 C   0  0  0  0  0  0  0  0  0  0  0  0
   -0.7753   -1.2557    0.0234 C   0  0  0  0  0  0  0  0  0  0  0  0
   -0.1598    0.0255   -0.4351 C   0  0  0  0  0  0  0  0  0  0  0  0
    0.6389    0.0521   -1.3448 O   0  0  0  0  0  0  0  0  0  0  0  0
   -0.4999    1.3008    0.3441 C   0  0  0  0  0  0  0  0  0  0  0  0
   -1.1179    2.4802    2.5972 H   0  0  0  0  0  0  0  0  0  0  0  0
   -2.6457    1.2760    0.5876 H   0  0  0  0  0  0  0  0  0  0  0  0
   -0.9537    0.0570    2.8176 H   0  0  0  0  0  0  0  0  0  0  0  0
   -2.7079   -0.0292    2.6681 H   0  0  0  0  0  0  0  0  0  0  0  0
   -1.5353   -2.1903    1.8803 H   0  0  0  0  0  0  0  0  0  0  0  0
   -2.6400   -2.4141   -0.3485 H   0  0  0  0  0  0  0  0  0  0  0  0
   -2.8904   -0.6175   -0.4336 H   0  0  0  0  0  0  0  0  0  0  0  0
   -0.1862   -2.1262   -0.2419 H   0  0  0  0  0  0  0  0  0  0  0  0
    0.3718    1.4696    0.9965 H   0  0  0  0  0  0  0  0  0  0  0  0
   -0.5290    2.1443   -0.3502 H   0  0  0  0  0  0  0  0  0  0  0  0
  1  2  1  0
  2  3  1  0
  3  4  1  0
  4  5  1  0
  5  6  1  0
  6  7  1  0
  7  8  2  0
  7  9  1  0
  9  2  1  0
  6  4  1  0
  1 10  1  0
  2 11  1  0
  3 12  1  0
  3 13  1  0
  4 14  1  0
  5 15  1  0
  5 16  1  0
  6 17  1  0
  9 18  1  0
  9 19  1  0
M  END
$$$$
