
     RDKit          3D

 19 20  0  0  0  0  0  0  0  0999 V2000
   -0.9657    2.0194   -1.2506 C   0  0  0  0  0  0  0  0  0  0  0  0
   -0.9659    1.1228   -0.0260 C   0  0  0  0  0  0  0  0  0  0  0  0
   -2.0700    0.1786    0.0143 O   0  0  0  0  0  0  0  0  0  0  0  0
   -1.2245   -0.9833    0.0646 C   0  0  0  0  0  0  0  0  0  0  0  0
   -1.3377   -2.0070    1.2206 C   0  0  0  0  0  0  0  0  0  0  0  0
   -1.0001   -3.1216    0.1924 C   0  0  0  0  0  0  0  0  0  0  0  0
   -1.3921   -2.1411   -0.9471 C   0  0  0  0  0  0  0  0  0  0  0  0
   -0.0003   -0.0732   -0.0136 C   0  0  0  0  0  0  0  0  0  0  0  0
    1.1832   -0.2271   -0.0691 O   0  0  0  0  0  0  0  0  0  0  0  0
   -0.9813    1.4277   -2.1701 H   0  0  0  0  0  0  0  0  0  0  0  0
   -1.8446    2.6706   -1.2429 H   0  0  0  0  0  0  0  0  0  0  0  0
   -0.0688    2.6467   -1.2522 H   0  0  0  0  0  0  0  0  0  0  0  0
   -0.9231    1.7175    0.8973 H   0  0  0  0  0  0  0  0  0  0  0  0
   -0.6809   -1.8723    2.0829 H   0  0  0  0  0  0  0  0  0  0  0  0
   -2.3762   -2.0597    1.5593 H   0  0  0  0  0  0  0  0  0  0  0  0
    0.0680   -3.3488    0.1793 H   0  0  0  0  0  0  0  0  0  0  0  0
   -1.5615   -4.0542    0.2646 H   0  0  0  0  0  0  0  0  0  0  0  0
   -0.7777   -2.1142   -1.8499 H   0  0  0  0  0  0  0  0  0  0  0  0
   -2.4454   -2.2329   -1.2266 H   0  0  0  0  0  0  0  0  0  0  0  0
  1  2  1  0
  2  3  1  0
  3  4  1  0
  4  5  1  0
  5  6  1  0
  6  7  1  0
  4  8  1  0
  8  9  2  0
  8  2  1  0
  7  4  1  0
  1 10  1  0
  1 11  1  0
  1 12  1  0
  2 13  1  0
  5 14  1  0
  5 15  1  0
  6 16  1  0
  6 17  1  0
  7 18  1  0
  7 19  1  0
M  END
$$$$
