gdb 2247	2.4286307	1.7081118	1.4660873	2.2073	74.65	-0.22759	0.06948	0.29707	1003.357	0.15739	-422.532182	-422.524145	-422.523201	-422.564125	31.615
 OpenBabel02181911413D

 19 21  0  0  1  0  0  0  0  0999 V2000
    0.0114    0.0616   -0.2389 C   0  0  0  0  0  0  0  0  0  0  0  0
    1.4418   -0.1601    0.1562 C   0  0  2  0  0  0  0  0  0  0  0  0
    2.2595   -1.4350   -0.0780 C   0  0  0  0  0  0  0  0  0  0  0  0
    3.5646   -0.5780    0.0393 C   0  0  2  0  0  0  0  0  0  0  0  0
    4.1070   -0.6079    1.3506 O   0  0  0  0  0  0  0  0  0  0  0  0
    3.0939   -0.0820    2.2213 C   0  0  0  0  0  0  0  0  0  0  0  0
    2.1071    0.6294    1.3020 C   0  0  1  0  0  0  0  0  0  0  0  0
    2.6869    0.6994   -0.0675 C   0  0  2  0  0  0  0  0  0  0  0  0
    2.9199    1.8865   -0.7276 O   0  0  0  0  0  0  0  0  0  0  0  0
   -0.2591    1.1204   -0.1675 H   0  0  0  0  0  0  0  0  0  0  0  0
   -0.1675   -0.2604   -1.2717 H   0  0  0  0  0  0  0  0  0  0  0  0
   -0.6757   -0.5013    0.4039 H   0  0  0  0  0  0  0  0  0  0  0  0
    2.1722   -2.2561    0.6414 H   0  0  0  0  0  0  0  0  0  0  0  0
    2.1092   -1.8257   -1.0901 H   0  0  0  0  0  0  0  0  0  0  0  0
    4.3656   -0.7590   -0.6772 H   0  0  0  0  0  0  0  0  0  0  0  0
    2.6315   -0.8956    2.7975 H   0  0  0  0  0  0  0  0  0  0  0  0
    3.5660    0.6099    2.9283 H   0  0  0  0  0  0  0  0  0  0  0  0
    1.5511    1.4869    1.6632 H   0  0  0  0  0  0  0  0  0  0  0  0
    2.9021    1.7182   -1.6761 H   0  0  0  0  0  0  0  0  0  0  0  0
  1 10  1  0  0  0  0
  1 12  1  0  0  0  0
  2  1  1  6  0  0  0
  2  7  1  0  0  0  0
  3  4  1  0  0  0  0
  3  2  1  0  0  0  0
  3 13  1  0  0  0  0
  4 15  1  6  0  0  0
  4  5  1  0  0  0  0
  5  6  1  0  0  0  0
  6 16  1  0  0  0  0
  6 17  1  0  0  0  0
  7 18  1  1  0  0  0
  7  6  1  0  0  0  0
  8  9  1  6  0  0  0
  8  4  1  0  0  0  0
  8  2  1  0  0  0  0
  8  7  1  0  0  0  0
 11  1  1  0  0  0  0
 14  3  1  0  0  0  0
 19  9  1  0  0  0  0
M TOR 0 0 1 2 3
M TOR 1 0 1 2 12
M TOR 2 0 1 2 13
M TOR 3 0 1 6 5
M TOR 4 0 1 6 7
M TOR 5 0 1 6 17
M TOR 6 0 1 7 3
M TOR 7 0 1 7 8
M TOR 8 1 2 3 4
M TOR 9 1 2 3 7
M TOR 10 1 2 3 14
M TOR 11 1 6 5 4
M TOR 12 1 6 5 15
M TOR 13 1 6 5 16
M TOR 14 1 6 7 3
M TOR 15 1 6 7 8
M TOR 16 1 7 3 4
M TOR 17 1 7 3 14
M TOR 18 1 7 6 5
M TOR 19 1 7 6 17
M TOR 20 1 7 8 18
M TOR 21 2 1 0 9
M TOR 22 2 1 0 10
M TOR 23 2 1 0 11
M TOR 24 2 1 6 5
M TOR 25 2 1 6 7
M TOR 26 2 1 6 17
M TOR 27 2 1 7 8
M TOR 28 2 3 4 5
M TOR 29 2 3 7 6
M TOR 30 2 3 7 8
M TOR 31 3 2 1 6
M TOR 32 3 4 5 6
M TOR 33 3 4 5 15
M TOR 34 3 4 5 16
M TOR 35 3 7 6 5
M TOR 36 3 7 6 17
M TOR 37 3 7 8 18
M TOR 38 4 3 2 12
M TOR 39 4 3 2 13
M TOR 40 4 3 7 6
M TOR 41 4 3 7 8
M TOR 42 4 5 6 7
M TOR 43 4 5 6 17
M TOR 44 5 4 3 7
M TOR 45 5 4 3 14
M TOR 46 5 6 7 8
M TOR 47 6 1 0 9
M TOR 48 6 1 0 10
M TOR 49 6 1 0 11
M TOR 50 6 1 2 12
M TOR 51 6 1 2 13
M TOR 52 6 7 3 14
M TOR 53 6 7 8 18
M TOR 54 7 1 0 9
M TOR 55 7 1 0 10
M TOR 56 7 1 0 11
M TOR 57 7 1 2 12
M TOR 58 7 1 2 13
M TOR 59 7 3 2 12
M TOR 60 7 3 2 13
M TOR 61 7 6 5 15
M TOR 62 7 6 5 16
M TOR 63 8 7 3 14
M TOR 64 8 7 6 17
M  END
$$$$
