
     RDKit          3D

 19 20  0  0  0  0  0  0  0  0999 V2000
    0.7392   -1.1365   -0.6226 O   0  0  0  0  0  0  0  0  0  0  0  0
    0.6958   -0.0894   -0.0243 C   0  0  0  0  0  0  0  0  0  0  0  0
    0.4859    1.2446   -0.6902 C   0  0  0  0  0  0  0  0  0  0  0  0
   -0.8541    1.9766   -0.3674 C   0  0  0  0  0  0  0  0  0  0  0  0
   -0.6660    3.2861   -1.1694 C   0  0  0  0  0  0  0  0  0  0  0  0
    0.8452    3.6118   -0.9381 C   0  0  0  0  0  0  0  0  0  0  0  0
    1.3059    2.4102   -0.0908 C   0  0  0  0  0  0  0  0  0  0  0  0
    0.7699    2.5409    1.2327 O   0  0  0  0  0  0  0  0  0  0  0  0
   -0.6481    2.3111    1.1194 C   0  0  0  0  0  0  0  0  0  0  0  0
    0.8216   -0.0556    1.0793 H   0  0  0  0  0  0  0  0  0  0  0  0
    0.6249    1.1199   -1.7669 H   0  0  0  0  0  0  0  0  0  0  0  0
   -1.7702    1.4265   -0.5839 H   0  0  0  0  0  0  0  0  0  0  0  0
   -0.8850    3.1275   -2.2289 H   0  0  0  0  0  0  0  0  0  0  0  0
   -1.3298    4.0774   -0.8101 H   0  0  0  0  0  0  0  0  0  0  0  0
    1.4019    3.6781   -1.8774 H   0  0  0  0  0  0  0  0  0  0  0  0
    1.0030    4.5405   -0.3851 H   0  0  0  0  0  0  0  0  0  0  0  0
    2.3848    2.2766   -0.0036 H   0  0  0  0  0  0  0  0  0  0  0  0
   -0.9359    1.4933    1.7912 H   0  0  0  0  0  0  0  0  0  0  0  0
   -1.1988    3.2107    1.4202 H   0  0  0  0  0  0  0  0  0  0  0  0
  1  2  2  0
  2  3  1  0
  3  4  1  0
  4  5  1  0
  5  6  1  0
  6  7  1  0
  7  8  1  0
  8  9  1  0
  7  3  1  0
  9  4  1  0
  2 10  1  0
  3 11  1  0
  4 12  1  0
  5 13  1  0
  5 14  1  0
  6 15  1  0
  6 16  1  0
  7 17  1  0
  9 18  1  0
  9 19  1  0
M  END
$$$$
