gdb 2448	2.8332842	1.8466526	1.5828388	1.1865	73.74	-0.21673	0.08302	0.29975	934.3823	0.158955	-422.553295	-422.546039	-422.545095	-422.584515	29.273
 OpenBabel02181911413D

 19 21  0  0  1  0  0  0  0  0999 V2000
    0.0723   -0.1532    0.0513 C   0  0  0  0  0  0  0  0  0  0  0  0
    1.5600    0.0577    0.1071 C   0  0  2  0  0  0  0  0  0  0  0  0
    2.0655   -0.3680    1.3529 O   0  0  0  0  0  0  0  0  0  0  0  0
    3.4882   -0.4589    1.4378 C   0  0  0  0  0  0  0  0  0  0  0  0
    4.1387    0.2333    0.2447 C   0  0  2  0  0  0  0  0  0  0  0  0
    3.5322    1.6419    0.0639 C   0  0  0  0  0  0  0  0  0  0  0  0
    2.1840    1.2847   -0.5416 C   0  0  1  0  0  0  0  0  0  0  0  0
    2.4027   -0.1031   -1.1331 C   0  0  1  0  0  0  0  0  0  0  0  0
    3.7413   -0.4904   -0.9280 O   0  0  0  0  0  0  0  0  0  0  0  0
   -0.4250    0.4184    0.8419 H   0  0  0  0  0  0  0  0  0  0  0  0
   -0.3286    0.1740   -0.9123 H   0  0  0  0  0  0  0  0  0  0  0  0
   -0.1714   -1.2112    0.1885 H   0  0  0  0  0  0  0  0  0  0  0  0
    3.7981    0.0034    2.3841 H   0  0  0  0  0  0  0  0  0  0  0  0
    3.7906   -1.5148    1.4488 H   0  0  0  0  0  0  0  0  0  0  0  0
    5.2279    0.2041    0.3100 H   0  0  0  0  0  0  0  0  0  0  0  0
    3.4587    2.1725    1.0179 H   0  0  0  0  0  0  0  0  0  0  0  0
    4.1261    2.2453   -0.6292 H   0  0  0  0  0  0  0  0  0  0  0  0
    1.5724    2.0418   -1.0188 H   0  0  0  0  0  0  0  0  0  0  0  0
    2.0018   -0.4526   -2.0774 H   0  0  0  0  0  0  0  0  0  0  0  0
  1 12  1  0  0  0  0
  1 10  1  0  0  0  0
  2  1  1  6  0  0  0
  2  3  1  0  0  0  0
  3  4  1  0  0  0  0
  4 14  1  0  0  0  0
  4 13  1  0  0  0  0
  5 15  1  1  0  0  0
  5  4  1  0  0  0  0
  6  5  1  0  0  0  0
  6 16  1  0  0  0  0
  7 18  1  6  0  0  0
  7  6  1  0  0  0  0
  7  2  1  0  0  0  0
  8 19  1  6  0  0  0
  8  9  1  0  0  0  0
  8  7  1  0  0  0  0
  8  2  1  0  0  0  0
  9  5  1  0  0  0  0
 11  1  1  0  0  0  0
 17  6  1  0  0  0  0
M TOR 0 0 1 2 3
M TOR 1 0 1 6 5
M TOR 2 0 1 6 7
M TOR 3 0 1 6 17
M TOR 4 0 1 7 8
M TOR 5 0 1 7 18
M TOR 6 1 2 3 4
M TOR 7 1 2 3 12
M TOR 8 1 2 3 13
M TOR 9 1 6 5 4
M TOR 10 1 6 5 15
M TOR 11 1 6 5 16
M TOR 12 1 6 7 8
M TOR 13 1 6 7 18
M TOR 14 1 7 6 5
M TOR 15 1 7 6 17
M TOR 16 1 7 8 4
M TOR 17 2 1 0 9
M TOR 18 2 1 0 10
M TOR 19 2 1 0 11
M TOR 20 2 1 6 5
M TOR 21 2 1 6 7
M TOR 22 2 1 6 17
M TOR 23 2 1 7 8
M TOR 24 2 1 7 18
M TOR 25 2 3 4 5
M TOR 26 2 3 4 8
M TOR 27 2 3 4 14
M TOR 28 3 2 1 6
M TOR 29 3 2 1 7
M TOR 30 3 4 5 6
M TOR 31 3 4 5 15
M TOR 32 3 4 5 16
M TOR 33 3 4 8 7
M TOR 34 4 5 6 7
M TOR 35 4 5 6 17
M TOR 36 4 8 7 6
M TOR 37 4 8 7 18
M TOR 38 5 4 3 12
M TOR 39 5 4 3 13
M TOR 40 5 4 8 7
M TOR 41 5 6 7 8
M TOR 42 5 6 7 18
M TOR 43 6 1 0 9
M TOR 44 6 1 0 10
M TOR 45 6 1 0 11
M TOR 46 6 5 4 8
M TOR 47 6 5 4 14
M TOR 48 7 1 0 9
M TOR 49 7 1 0 10
M TOR 50 7 1 0 11
M TOR 51 7 6 5 15
M TOR 52 7 6 5 16
M TOR 53 7 8 4 14
M TOR 54 8 4 3 12
M TOR 55 8 4 3 13
M TOR 56 8 4 5 15
M TOR 57 8 4 5 16
M TOR 58 8 7 6 17
M  END
$$$$
