gdb 2944	2.6417444	1.579443	1.1396652	2.1602	76.6	-0.21707	0.01809	0.23516	1101.6659	0.156222	-422.554956	-422.546256	-422.545312	-422.587543	34.001
 OpenBabel02181911413D

 19 20  0  0  1  0  0  0  0  0999 V2000
    1.3546    1.1838   -0.1051 C   0  0  0  0  0  0  0  0  0  0  0  0
    1.0741   -0.3234    0.0086 C   0  0  1  0  0  0  0  0  0  0  0  0
    1.5268   -1.0974   -1.2146 C   0  0  0  0  0  0  0  0  0  0  0  0
    2.5050   -1.9692   -0.9484 C   0  0  0  0  0  0  0  0  0  0  0  0
    2.8201   -2.0138    0.5036 C   0  0  2  0  0  0  0  0  0  0  0  0
    1.6487   -2.4648    1.3815 C   0  0  1  0  0  0  0  0  0  0  0  0
    1.9094   -2.8244    2.7118 O   0  0  0  0  0  0  0  0  0  0  0  0
    1.8582   -0.9989    1.1395 C   0  0  2  0  0  0  0  0  0  0  0  0
    2.1908   -0.2048    2.2266 O   0  0  0  0  0  0  0  0  0  0  0  0
    1.0531    1.7037    0.8071 H   0  0  0  0  0  0  0  0  0  0  0  0
    2.4204    1.3704   -0.2663 H   0  0  0  0  0  0  0  0  0  0  0  0
    0.8023    1.6097   -0.9488 H   0  0  0  0  0  0  0  0  0  0  0  0
   -0.0036   -0.4596    0.1740 H   0  0  0  0  0  0  0  0  0  0  0  0
    1.0965   -0.9185   -2.1937 H   0  0  0  0  0  0  0  0  0  0  0  0
    2.9904   -2.6073   -1.6787 H   0  0  0  0  0  0  0  0  0  0  0  0
    3.8265   -2.1717    0.8783 H   0  0  0  0  0  0  0  0  0  0  0  0
    0.8244   -2.9991    0.9079 H   0  0  0  0  0  0  0  0  0  0  0  0
    2.4506   -3.6204    2.7189 H   0  0  0  0  0  0  0  0  0  0  0  0
    2.2468   -0.8005    2.9867 H   0  0  0  0  0  0  0  0  0  0  0  0
  1  2  1  0  0  0  0
  1 10  1  0  0  0  0
  2 13  1  1  0  0  0
  2  8  1  0  0  0  0
  3  4  2  0  0  0  0
  3  2  1  0  0  0  0
  4  5  1  0  0  0  0
  5 16  1  1  0  0  0
  5  8  1  0  0  0  0
  5  6  1  0  0  0  0
  6 17  1  6  0  0  0
  6  7  1  0  0  0  0
  7 18  1  0  0  0  0
  8  6  1  0  0  0  0
  8  9  1  1  0  0  0
  9 19  1  0  0  0  0
 11  1  1  0  0  0  0
 12  1  1  0  0  0  0
 14  3  1  0  0  0  0
 15  4  1  0  0  0  0
M TOR 0 0 1 2 3
M TOR 1 0 1 2 13
M TOR 2 0 1 7 4
M TOR 3 0 1 7 5
M TOR 4 0 1 7 8
M TOR 5 1 2 3 4
M TOR 6 1 2 3 14
M TOR 7 1 7 4 3
M TOR 8 1 7 4 5
M TOR 9 1 7 4 15
M TOR 10 1 7 5 6
M TOR 11 1 7 5 16
M TOR 12 1 7 8 18
M TOR 13 2 1 0 9
M TOR 14 2 1 0 10
M TOR 15 2 1 0 11
M TOR 16 2 1 7 4
M TOR 17 2 1 7 5
M TOR 18 2 1 7 8
M TOR 19 2 3 4 5
M TOR 20 2 3 4 7
M TOR 21 2 3 4 15
M TOR 22 3 2 1 7
M TOR 23 3 2 1 12
M TOR 24 3 4 5 6
M TOR 25 3 4 5 7
M TOR 26 3 4 5 16
M TOR 27 3 4 7 8
M TOR 28 4 3 2 13
M TOR 29 4 5 6 17
M TOR 30 4 5 7 8
M TOR 31 4 7 1 12
M TOR 32 4 7 5 6
M TOR 33 4 7 5 16
M TOR 34 4 7 8 18
M TOR 35 5 4 3 14
M TOR 36 5 7 1 12
M TOR 37 5 7 4 15
M TOR 38 5 7 8 18
M TOR 39 6 5 4 15
M TOR 40 6 5 7 8
M TOR 41 7 1 0 9
M TOR 42 7 1 0 10
M TOR 43 7 1 0 11
M TOR 44 7 1 2 13
M TOR 45 7 4 3 14
M TOR 46 7 5 6 17
M TOR 47 8 7 1 12
M TOR 48 8 7 4 15
M TOR 49 8 7 5 16
M  END
$$$$
