gdb 191	2.5263685	2.1603421	2.0728452	0.2938	72.22	-0.24231	0.0856	0.32791	831.6203	0.162407	-422.59399	-422.588109	-422.587165	-422.623751	25.934
 OpenBabel02181911403D

 19 21  0  0  1  0  0  0  0  0999 V2000
   -0.3921    1.4702   -0.0811 C   0  0  0  0  0  0  0  0  0  0  0  0
    0.1011    0.1321    0.4888 C   0  0  2  0  0  0  0  0  0  0  0  0
    0.8698    0.3635    1.8133 C   0  0  0  0  0  0  0  0  0  0  0  0
    2.0213    1.3631    1.5423 C   0  0  1  0  0  0  0  0  0  0  0  0
    2.9224    0.8435    0.4124 C   0  0  0  0  0  0  0  0  0  0  0  0
    1.8739    0.8632   -0.7074 C   0  0  1  0  0  0  0  0  0  0  0  0
    1.0265   -0.2787   -0.5288 O   0  0  0  0  0  0  0  0  0  0  0  0
    0.9830    2.1061   -0.3227 C   0  0  2  0  0  0  0  0  0  0  0  0
    1.4836    2.5520    0.9439 O   0  0  0  0  0  0  0  0  0  0  0  0
   -0.9449    1.2988   -1.0090 H   0  0  0  0  0  0  0  0  0  0  0  0
   -0.9898    2.0771    0.6014 H   0  0  0  0  0  0  0  0  0  0  0  0
   -0.6598   -0.6456    0.5792 H   0  0  0  0  0  0  0  0  0  0  0  0
    0.1960    0.7677    2.5761 H   0  0  0  0  0  0  0  0  0  0  0  0
    1.2720   -0.5858    2.1825 H   0  0  0  0  0  0  0  0  0  0  0  0
    2.5412    1.6572    2.4562 H   0  0  0  0  0  0  0  0  0  0  0  0
    3.7404    1.5472    0.2349 H   0  0  0  0  0  0  0  0  0  0  0  0
    3.3214   -0.1619    0.5577 H   0  0  0  0  0  0  0  0  0  0  0  0
    2.2604    0.8569   -1.7271 H   0  0  0  0  0  0  0  0  0  0  0  0
    1.0094    2.9409   -1.0238 H   0  0  0  0  0  0  0  0  0  0  0  0
  1  2  1  0  0  0  0
  1 11  1  0  0  0  0
  2 12  1  1  0  0  0
  2  3  1  0  0  0  0
  3 14  1  0  0  0  0
  3 13  1  0  0  0  0
  4  3  1  0  0  0  0
  4 15  1  1  0  0  0
  5 17  1  0  0  0  0
  5  4  1  0  0  0  0
  6 18  1  6  0  0  0
  6  7  1  0  0  0  0
  6  8  1  0  0  0  0
  6  5  1  0  0  0  0
  7  2  1  0  0  0  0
  8 19  1  6  0  0  0
  8  1  1  0  0  0  0
  8  9  1  0  0  0  0
  9  4  1  0  0  0  0
 10  1  1  0  0  0  0
 16  5  1  0  0  0  0
M TOR 0 0 1 2 3
M TOR 1 0 1 2 12
M TOR 2 0 1 2 13
M TOR 3 0 1 6 5
M TOR 4 0 7 5 4
M TOR 5 0 7 5 6
M TOR 6 0 7 5 17
M TOR 7 0 7 8 3
M TOR 8 1 0 7 5
M TOR 9 1 0 7 8
M TOR 10 1 0 7 18
M TOR 11 1 2 3 4
M TOR 12 1 2 3 8
M TOR 13 1 2 3 14
M TOR 14 1 6 5 4
M TOR 15 1 6 5 7
M TOR 16 1 6 5 17
M TOR 17 2 1 0 7
M TOR 18 2 1 0 9
M TOR 19 2 1 0 10
M TOR 20 2 1 6 5
M TOR 21 2 3 4 5
M TOR 22 2 3 4 15
M TOR 23 2 3 4 16
M TOR 24 2 3 8 7
M TOR 25 3 2 1 6
M TOR 26 3 2 1 11
M TOR 27 3 4 5 6
M TOR 28 3 4 5 7
M TOR 29 3 4 5 17
M TOR 30 3 8 7 5
M TOR 31 3 8 7 18
M TOR 32 4 3 2 12
M TOR 33 4 3 2 13
M TOR 34 4 3 8 7
M TOR 35 4 5 7 8
M TOR 36 4 5 7 18
M TOR 37 5 4 3 8
M TOR 38 5 4 3 14
M TOR 39 5 6 1 11
M TOR 40 5 7 0 9
M TOR 41 5 7 0 10
M TOR 42 6 1 0 7
M TOR 43 6 1 0 9
M TOR 44 6 1 0 10
M TOR 45 6 1 2 12
M TOR 46 6 1 2 13
M TOR 47 6 5 4 15
M TOR 48 6 5 4 16
M TOR 49 6 5 7 8
M TOR 50 6 5 7 18
M TOR 51 7 0 1 11
M TOR 52 7 5 4 15
M TOR 53 7 5 4 16
M TOR 54 7 8 3 14
M TOR 55 8 3 2 12
M TOR 56 8 3 2 13
M TOR 57 8 3 4 15
M TOR 58 8 3 4 16
M TOR 59 8 7 0 9
M TOR 60 8 7 0 10
M TOR 61 8 7 5 17
M  END
$$$$
