
     RDKit          3D

 19 20  0  0  0  0  0  0  0  0999 V2000
    1.4457    0.1103   -0.0369 C   0  0  0  0  0  0  0  0  0  0  0  0
    0.0348    0.0609    0.0878 O   0  0  0  0  0  0  0  0  0  0  0  0
   -0.4381    0.7022    1.2197 C   0  0  0  0  0  0  0  0  0  0  0  0
   -1.7667    0.2724    1.6857 C   0  0  0  0  0  0  0  0  0  0  0  0
   -0.5046   -0.1795    2.4872 C   0  0  0  0  0  0  0  0  0  0  0  0
   -0.9922    0.6245    3.6440 C   0  0  0  0  0  0  0  0  0  0  0  0
   -0.6869    0.6922    4.8028 O   0  0  0  0  0  0  0  0  0  0  0  0
   -2.2243    1.1648    2.8570 C   0  0  0  0  0  0  0  0  0  0  0  0
   -3.5450    0.7845    3.5218 C   0  0  0  0  0  0  0  0  0  0  0  0
    1.9438   -0.4012    0.7980 H   0  0  0  0  0  0  0  0  0  0  0  0
    1.6997   -0.3928   -0.9719 H   0  0  0  0  0  0  0  0  0  0  0  0
    1.8083    1.1475   -0.0779 H   0  0  0  0  0  0  0  0  0  0  0  0
   -0.1281    1.7467    1.3093 H   0  0  0  0  0  0  0  0  0  0  0  0
   -2.4069   -0.3614    1.0863 H   0  0  0  0  0  0  0  0  0  0  0  0
    0.0258   -1.1236    2.4968 H   0  0  0  0  0  0  0  0  0  0  0  0
   -2.1986    2.2397    2.6411 H   0  0  0  0  0  0  0  0  0  0  0  0
   -3.6452    1.3030    4.4791 H   0  0  0  0  0  0  0  0  0  0  0  0
   -4.3963    1.0556    2.8899 H   0  0  0  0  0  0  0  0  0  0  0  0
   -3.5936   -0.2919    3.7168 H   0  0  0  0  0  0  0  0  0  0  0  0
  1  2  1  0
  2  3  1  0
  3  4  1  0
  4  5  1  0
  5  6  1  0
  6  7  2  0
  6  8  1  0
  8  9  1  0
  5  3  1  0
  8  4  1  0
  1 10  1  0
  1 11  1  0
  1 12  1  0
  3 13  1  0
  4 14  1  0
  5 15  1  0
  8 16  1  0
  9 17  1  0
  9 18  1  0
  9 19  1  0
M  END
$$$$
