
     RDKit          3D

 19 19  0  0  0  0  0  0  0  0999 V2000
   -1.2062    0.5089   -1.3525 C   0  0  0  0  0  0  0  0  0  0  0  0
   -1.0460   -0.2281   -0.0205 C   0  0  0  0  0  0  0  0  0  0  0  0
   -1.2128    0.7760    0.9818 O   0  0  0  0  0  0  0  0  0  0  0  0
   -2.0480   -1.4125    0.1341 C   0  0  0  0  0  0  0  0  0  0  0  0
   -1.2390   -2.7019   -0.1479 C   0  0  0  0  0  0  0  0  0  0  0  0
    0.1879   -2.2610    0.0233 C   0  0  0  0  0  0  0  0  0  0  0  0
    0.3045   -0.9282    0.0891 C   0  0  0  0  0  0  0  0  0  0  0  0
    1.5754   -0.1940    0.2397 C   0  0  0  0  0  0  0  0  0  0  0  0
    2.6652   -0.7186    0.3208 O   0  0  0  0  0  0  0  0  0  0  0  0
   -1.1513   -0.1912   -2.1909 H   0  0  0  0  0  0  0  0  0  0  0  0
   -2.1745    1.0174   -1.3785 H   0  0  0  0  0  0  0  0  0  0  0  0
   -0.4231    1.2622   -1.4782 H   0  0  0  0  0  0  0  0  0  0  0  0
   -1.0855    0.3590    1.8412 H   0  0  0  0  0  0  0  0  0  0  0  0
   -2.4108   -1.4193    1.1675 H   0  0  0  0  0  0  0  0  0  0  0  0
   -2.9229   -1.3025   -0.5111 H   0  0  0  0  0  0  0  0  0  0  0  0
   -1.5048   -3.5346    0.5130 H   0  0  0  0  0  0  0  0  0  0  0  0
   -1.3987   -3.0695   -1.1713 H   0  0  0  0  0  0  0  0  0  0  0  0
    1.0304   -2.9429    0.0620 H   0  0  0  0  0  0  0  0  0  0  0  0
    1.4694    0.9103    0.2887 H   0  0  0  0  0  0  0  0  0  0  0  0
  1  2  1  0
  2  3  1  0
  2  4  1  0
  4  5  1  0
  5  6  1  0
  6  7  2  0
  7  8  1  0
  8  9  2  0
  7  2  1  0
  1 10  1  0
  1 11  1  0
  1 12  1  0
  3 13  1  0
  4 14  1  0
  4 15  1  0
  5 16  1  0
  5 17  1  0
  6 18  1  0
  8 19  1  0
M  END
$$$$
