gdb 5085	3.3793968	1.0413405	0.9195	0.8022	76.4	-0.25304	-0.03121	0.22182999999999997	1326.3161	0.154701	-422.532339	-422.523181	-422.522237	-422.567006	32.973
 OpenBabel02181911423D

 19 20  0  0  1  0  0  0  0  0999 V2000
    1.4087    0.8270    0.9339 C   0  0  0  0  0  0  0  0  0  0  0  0
    1.1543   -0.6572    0.6344 C   0  0  0  0  0  0  0  0  0  0  0  0
    1.3292   -0.9865   -0.8146 C   0  0  2  0  0  0  0  0  0  0  0  0
    0.4346   -0.5974   -2.0079 C   0  0  0  0  0  0  0  0  0  0  0  0
    0.9283   -1.8749   -2.7569 C   0  0  2  0  0  0  0  0  0  0  0  0
   -0.1233   -2.9258   -3.0062 C   0  0  0  0  0  0  0  0  0  0  0  0
   -1.2610   -2.8787   -2.6105 O   0  0  0  0  0  0  0  0  0  0  0  0
    1.8094   -2.1905   -1.5126 C   0  0  1  0  0  0  0  0  0  0  0  0
    2.6759   -1.0737   -1.3318 O   0  0  0  0  0  0  0  0  0  0  0  0
    1.2803    1.0357    1.9997 H   0  0  0  0  0  0  0  0  0  0  0  0
    2.4269    1.1092    0.6505 H   0  0  0  0  0  0  0  0  0  0  0  0
    0.7145    1.4687    0.3816 H   0  0  0  0  0  0  0  0  0  0  0  0
    1.8422   -1.2806    1.2163 H   0  0  0  0  0  0  0  0  0  0  0  0
    0.1362   -0.9320    0.9361 H   0  0  0  0  0  0  0  0  0  0  0  0
   -0.6325   -0.6702   -1.7881 H   0  0  0  0  0  0  0  0  0  0  0  0
    0.6667    0.3605   -2.4769 H   0  0  0  0  0  0  0  0  0  0  0  0
    1.5244   -1.7305   -3.6637 H   0  0  0  0  0  0  0  0  0  0  0  0
    0.2409   -3.8073   -3.5818 H   0  0  0  0  0  0  0  0  0  0  0  0
    2.1451   -3.1560   -1.1492 H   0  0  0  0  0  0  0  0  0  0  0  0
  1 10  1  0  0  0  0
  2  1  1  0  0  0  0
  2 14  1  0  0  0  0
  2 13  1  0  0  0  0
  3  2  1  1  0  0  0
  4 15  1  0  0  0  0
  4  3  1  0  0  0  0
  5 17  1  6  0  0  0
  5  4  1  0  0  0  0
  5  8  1  0  0  0  0
  6  5  1  0  0  0  0
  6  7  2  0  0  0  0
  8  9  1  0  0  0  0
  8 19  1  1  0  0  0
  8  3  1  0  0  0  0
  9  3  1  0  0  0  0
 11  1  1  0  0  0  0
 12  1  1  0  0  0  0
 16  4  1  0  0  0  0
 18  6  1  0  0  0  0
M TOR 0 0 1 2 3
M TOR 1 0 1 2 7
M TOR 2 0 1 2 8
M TOR 3 1 2 3 4
M TOR 4 1 2 3 14
M TOR 5 1 2 3 15
M TOR 6 1 2 7 4
M TOR 7 1 2 7 8
M TOR 8 1 2 7 18
M TOR 9 2 1 0 9
M TOR 10 2 1 0 10
M TOR 11 2 1 0 11
M TOR 12 2 3 4 5
M TOR 13 2 3 4 7
M TOR 14 2 3 4 16
M TOR 15 2 7 4 5
M TOR 16 2 7 4 16
M TOR 17 2 8 7 4
M TOR 18 2 8 7 18
M TOR 19 3 2 1 12
M TOR 20 3 2 1 13
M TOR 21 3 2 7 8
M TOR 22 3 2 7 18
M TOR 23 3 4 5 6
M TOR 24 3 4 5 17
M TOR 25 3 4 7 8
M TOR 26 3 4 7 18
M TOR 27 4 3 2 8
M TOR 28 5 4 3 14
M TOR 29 5 4 3 15
M TOR 30 5 4 7 8
M TOR 31 5 4 7 18
M TOR 32 6 5 4 7
M TOR 33 6 5 4 16
M TOR 34 7 2 1 12
M TOR 35 7 2 1 13
M TOR 36 7 2 3 14
M TOR 37 7 2 3 15
M TOR 38 7 4 3 14
M TOR 39 7 4 3 15
M TOR 40 7 4 5 17
M TOR 41 8 2 1 12
M TOR 42 8 2 1 13
M TOR 43 8 2 3 14
M TOR 44 8 2 3 15
M TOR 45 8 7 4 16
M  END
$$$$
