
     RDKit          3D

 19 20  0  0  0  0  0  0  0  0999 V2000
   -1.0516    2.0660    1.0232 C   0  0  0  0  0  0  0  0  0  0  0  0
   -1.0453    0.9358   -0.0030 C   0  0  0  0  0  0  0  0  0  0  0  0
   -2.1315   -0.1830    0.1390 C   0  0  0  0  0  0  0  0  0  0  0  0
   -2.6622   -0.7867   -1.1805 C   0  0  0  0  0  0  0  0  0  0  0  0
   -1.3989   -1.6896   -1.2784 C   0  0  0  0  0  0  0  0  0  0  0  0
   -1.5787   -3.0542   -1.5351 O   0  0  0  0  0  0  0  0  0  0  0  0
   -0.9944   -1.2738    0.1956 C   0  0  0  0  0  0  0  0  0  0  0  0
    0.0313   -0.1488    0.2392 C   0  0  0  0  0  0  0  0  0  0  0  0
    1.2023   -0.0916    0.4873 O   0  0  0  0  0  0  0  0  0  0  0  0
   -1.1287    1.6738    2.0428 H   0  0  0  0  0  0  0  0  0  0  0  0
   -0.1245    2.6425    0.9582 H   0  0  0  0  0  0  0  0  0  0  0  0
   -1.8939    2.7446    0.8563 H   0  0  0  0  0  0  0  0  0  0  0  0
   -0.9914    1.3519   -1.0168 H   0  0  0  0  0  0  0  0  0  0  0  0
   -2.8343   -0.0292    0.9578 H   0  0  0  0  0  0  0  0  0  0  0  0
   -3.5535   -1.4027   -1.0167 H   0  0  0  0  0  0  0  0  0  0  0  0
   -2.8662   -0.1055   -2.0119 H   0  0  0  0  0  0  0  0  0  0  0  0
   -0.6726   -1.3526   -2.0225 H   0  0  0  0  0  0  0  0  0  0  0  0
   -2.2373   -3.3954   -0.9201 H   0  0  0  0  0  0  0  0  0  0  0  0
   -0.9208   -2.0986    0.9061 H   0  0  0  0  0  0  0  0  0  0  0  0
  1  2  1  0
  2  3  1  0
  3  4  1  0
  4  5  1  0
  5  6  1  0
  5  7  1  0
  7  8  1  0
  8  9  2  0
  8  2  1  0
  7  3  1  0
  1 10  1  0
  1 11  1  0
  1 12  1  0
  2 13  1  0
  3 14  1  0
  4 15  1  0
  4 16  1  0
  5 17  1  0
  6 18  1  0
  7 19  1  0
M  END
$$$$
