gdb 2003	3.3093744	1.5182315	1.3450428	2.3912	73.92	-0.22891	0.07895	0.30786	1021.2748	0.157827	-422.527794	-422.52007	-422.519126	-422.559746	30.077
 OpenBabel02181911403D

 19 21  0  0  1  0  0  0  0  0999 V2000
   -0.0195    0.2479   -0.2319 C   0  0  0  0  0  0  0  0  0  0  0  0
    1.4530    0.0039   -0.1833 C   0  0  2  0  0  0  0  0  0  0  0  0
    2.1427    0.2336    1.0543 O   0  0  0  0  0  0  0  0  0  0  0  0
    2.6149    0.9172   -0.1179 C   0  0  1  0  0  0  0  0  0  0  0  0
    3.4857   -0.0754   -0.9269 C   0  0  1  0  0  0  0  0  0  0  0  0
    4.5760   -0.7025   -0.3091 O   0  0  0  0  0  0  0  0  0  0  0  0
    4.1037   -1.8138    0.4636 C   0  0  0  0  0  0  0  0  0  0  0  0
    2.7842   -2.2962   -0.1907 C   0  0  0  0  0  0  0  0  0  0  0  0
    2.2735   -1.0633   -0.9488 C   0  0  1  0  0  0  0  0  0  0  0  0
   -0.2720    1.1699    0.2984 H   0  0  0  0  0  0  0  0  0  0  0  0
   -0.3655    0.3301   -1.2674 H   0  0  0  0  0  0  0  0  0  0  0  0
   -0.5666   -0.5768    0.2394 H   0  0  0  0  0  0  0  0  0  0  0  0
    2.6697    1.9995   -0.0630 H   0  0  0  0  0  0  0  0  0  0  0  0
    3.8008    0.3320   -1.8916 H   0  0  0  0  0  0  0  0  0  0  0  0
    4.8902   -2.5751    0.4465 H   0  0  0  0  0  0  0  0  0  0  0  0
    3.9299   -1.5051    1.4986 H   0  0  0  0  0  0  0  0  0  0  0  0
    2.9788   -3.1104   -0.8946 H   0  0  0  0  0  0  0  0  0  0  0  0
    2.0790   -2.6609    0.5604 H   0  0  0  0  0  0  0  0  0  0  0  0
    1.8785   -1.2812   -1.9423 H   0  0  0  0  0  0  0  0  0  0  0  0
  1 12  1  0  0  0  0
  1 10  1  0  0  0  0
  2  1  1  6  0  0  0
  2  4  1  0  0  0  0
  2  3  1  0  0  0  0
  4 13  1  6  0  0  0
  4  3  1  0  0  0  0
  5 14  1  6  0  0  0
  5  6  1  0  0  0  0
  5  4  1  0  0  0  0
  6  7  1  0  0  0  0
  7 16  1  0  0  0  0
  8  7  1  0  0  0  0
  8 18  1  0  0  0  0
  9 19  1  6  0  0  0
  9  5  1  0  0  0  0
  9  8  1  0  0  0  0
  9  2  1  0  0  0  0
 11  1  1  0  0  0  0
 15  7  1  0  0  0  0
 17  8  1  0  0  0  0
M TOR 0 0 1 2 3
M TOR 1 0 1 3 4
M TOR 2 0 1 3 12
M TOR 3 0 1 8 4
M TOR 4 0 1 8 7
M TOR 5 0 1 8 18
M TOR 6 1 2 3 4
M TOR 7 1 2 3 12
M TOR 8 1 3 4 5
M TOR 9 1 3 4 8
M TOR 10 1 3 4 13
M TOR 11 1 8 4 5
M TOR 12 1 8 4 13
M TOR 13 1 8 7 6
M TOR 14 1 8 7 16
M TOR 15 1 8 7 17
M TOR 16 2 1 0 9
M TOR 17 2 1 0 10
M TOR 18 2 1 0 11
M TOR 19 2 1 8 4
M TOR 20 2 1 8 7
M TOR 21 2 1 8 18
M TOR 22 2 3 1 8
M TOR 23 2 3 4 5
M TOR 24 2 3 4 8
M TOR 25 2 3 4 13
M TOR 26 3 1 0 9
M TOR 27 3 1 0 10
M TOR 28 3 1 0 11
M TOR 29 3 1 8 7
M TOR 30 3 1 8 18
M TOR 31 3 4 5 6
M TOR 32 3 4 8 7
M TOR 33 3 4 8 18
M TOR 34 4 5 6 7
M TOR 35 4 5 6 14
M TOR 36 4 5 6 15
M TOR 37 4 8 7 6
M TOR 38 4 8 7 16
M TOR 39 4 8 7 17
M TOR 40 5 4 3 12
M TOR 41 5 4 8 7
M TOR 42 5 4 8 18
M TOR 43 5 6 7 8
M TOR 44 5 6 7 16
M TOR 45 5 6 7 17
M TOR 46 6 5 4 8
M TOR 47 6 5 4 13
M TOR 48 6 7 8 18
M TOR 49 7 8 4 13
M TOR 50 8 1 0 9
M TOR 51 8 1 0 10
M TOR 52 8 1 0 11
M TOR 53 8 1 3 12
M TOR 54 8 4 3 12
M TOR 55 8 7 6 14
M TOR 56 8 7 6 15
M  END
$$$$
