
     RDKit          3D

 19 21  0  0  0  0  0  0  0  0999 V2000
   -0.5835    0.8025   -0.1612 O   0  0  0  0  0  0  0  0  0  0  0  0
   -1.8668    0.3536    0.2289 C   0  0  0  0  0  0  0  0  0  0  0  0
   -2.9930    0.5100   -0.8502 C   0  0  0  0  0  0  0  0  0  0  0  0
   -3.0582   -1.0348   -1.0223 C   0  0  0  0  0  0  0  0  0  0  0  0
   -4.1482   -1.6807   -0.3296 O   0  0  0  0  0  0  0  0  0  0  0  0
   -3.3180   -1.8528    0.8362 C   0  0  0  0  0  0  0  0  0  0  0  0
   -2.5008   -3.1769    0.8815 C   0  0  0  0  0  0  0  0  0  0  0  0
   -1.2106   -2.3922    0.4647 C   0  0  0  0  0  0  0  0  0  0  0  0
   -2.0856   -1.1663    0.1862 C   0  0  0  0  0  0  0  0  0  0  0  0
   -0.3582    0.3877   -1.0011 H   0  0  0  0  0  0  0  0  0  0  0  0
   -2.0532    0.8315    1.1948 H   0  0  0  0  0  0  0  0  0  0  0  0
   -3.9315    0.9447   -0.4996 H   0  0  0  0  0  0  0  0  0  0  0  0
   -2.6523    1.0566   -1.7347 H   0  0  0  0  0  0  0  0  0  0  0  0
   -2.8991   -1.4443   -2.0244 H   0  0  0  0  0  0  0  0  0  0  0  0
   -3.8072   -1.5263    1.7586 H   0  0  0  0  0  0  0  0  0  0  0  0
   -2.4546   -3.6658    1.8571 H   0  0  0  0  0  0  0  0  0  0  0  0
   -2.8570   -3.8946    0.1399 H   0  0  0  0  0  0  0  0  0  0  0  0
   -0.5333   -2.2297    1.3083 H   0  0  0  0  0  0  0  0  0  0  0  0
   -0.6277   -2.7911   -0.3701 H   0  0  0  0  0  0  0  0  0  0  0  0
  1  2  1  0
  2  3  1  0
  3  4  1  0
  4  5  1  0
  5  6  1  0
  6  7  1  0
  7  8  1  0
  8  9  1  0
  9  2  1  0
  9  4  1  0
  9  6  1  0
  1 10  1  0
  2 11  1  0
  3 12  1  0
  3 13  1  0
  4 14  1  0
  6 15  1  0
  7 16  1  0
  7 17  1  0
  8 18  1  0
  8 19  1  0
M  END
$$$$
