
     RDKit          3D

 19 20  0  0  0  0  0  0  0  0999 V2000
   -0.7913    2.1126   -1.1725 C   0  0  0  0  0  0  0  0  0  0  0  0
   -0.9356    1.1283   -0.0219 C   0  0  0  0  0  0  0  0  0  0  0  0
   -2.2673    0.6201    0.0457 O   0  0  0  0  0  0  0  0  0  0  0  0
   -2.2573   -0.7781    0.2590 C   0  0  0  0  0  0  0  0  0  0  0  0
   -3.4714   -1.4509   -0.3118 C   0  0  0  0  0  0  0  0  0  0  0  0
   -1.5710   -1.2401    1.4985 C   0  0  0  0  0  0  0  0  0  0  0  0
   -0.8359   -1.2967    0.1452 C   0  0  0  0  0  0  0  0  0  0  0  0
   -0.0152   -0.1004   -0.1758 C   0  0  0  0  0  0  0  0  0  0  0  0
    1.1301   -0.0599   -0.5515 O   0  0  0  0  0  0  0  0  0  0  0  0
   -1.0779    1.6401   -2.1161 H   0  0  0  0  0  0  0  0  0  0  0  0
   -1.4251    2.9884   -1.0134 H   0  0  0  0  0  0  0  0  0  0  0  0
    0.2523    2.4301   -1.2439 H   0  0  0  0  0  0  0  0  0  0  0  0
   -0.6794    1.6300    0.9253 H   0  0  0  0  0  0  0  0  0  0  0  0
   -4.3776   -1.0517    0.1551 H   0  0  0  0  0  0  0  0  0  0  0  0
   -3.5379   -1.2767   -1.3896 H   0  0  0  0  0  0  0  0  0  0  0  0
   -3.4380   -2.5282   -0.1297 H   0  0  0  0  0  0  0  0  0  0  0  0
   -1.2502   -0.5114    2.2350 H   0  0  0  0  0  0  0  0  0  0  0  0
   -1.8491   -2.2054    1.9069 H   0  0  0  0  0  0  0  0  0  0  0  0
   -0.5577   -2.2559   -0.2716 H   0  0  0  0  0  0  0  0  0  0  0  0
  1  2  1  0
  2  3  1  0
  3  4  1  0
  4  5  1  0
  4  6  1  0
  6  7  1  0
  7  8  1  0
  8  9  2  0
  8  2  1  0
  7  4  1  0
  1 10  1  0
  1 11  1  0
  1 12  1  0
  2 13  1  0
  5 14  1  0
  5 15  1  0
  5 16  1  0
  6 17  1  0
  6 18  1  0
  7 19  1  0
M  END
$$$$
