
     RDKit          3D

 19 21  0  0  0  0  0  0  0  0999 V2000
    0.2250   -0.1167    0.2750 O   0  0  0  0  0  0  0  0  0  0  0  0
   -0.9094    0.4833    0.8498 C   0  0  0  0  0  0  0  0  0  0  0  0
   -2.2029    0.0699    0.1106 C   0  0  0  0  0  0  0  0  0  0  0  0
   -1.8959    0.6268   -1.2118 O   0  0  0  0  0  0  0  0  0  0  0  0
   -2.1227    1.9044   -0.5459 C   0  0  0  0  0  0  0  0  0  0  0  0
   -3.1916    1.2487    0.3615 C   0  0  0  0  0  0  0  0  0  0  0  0
   -3.1786    1.9239    1.7351 C   0  0  0  0  0  0  0  0  0  0  0  0
   -1.8053    2.6672    1.7487 C   0  0  0  0  0  0  0  0  0  0  0  0
   -1.0470    2.0197    0.5802 C   0  0  0  0  0  0  0  0  0  0  0  0
    0.0920   -0.0360   -0.6802 H   0  0  0  0  0  0  0  0  0  0  0  0
   -0.8969    0.2383    1.9150 H   0  0  0  0  0  0  0  0  0  0  0  0
   -2.4850   -0.9830    0.0925 H   0  0  0  0  0  0  0  0  0  0  0  0
   -2.2952    2.7385   -1.2253 H   0  0  0  0  0  0  0  0  0  0  0  0
   -4.1616    1.0843   -0.1067 H   0  0  0  0  0  0  0  0  0  0  0  0
   -4.0165    2.6180    1.8439 H   0  0  0  0  0  0  0  0  0  0  0  0
   -3.2641    1.1968    2.5490 H   0  0  0  0  0  0  0  0  0  0  0  0
   -1.9471    3.7399    1.5755 H   0  0  0  0  0  0  0  0  0  0  0  0
   -1.2717    2.5620    2.6977 H   0  0  0  0  0  0  0  0  0  0  0  0
   -0.1006    2.4895    0.3124 H   0  0  0  0  0  0  0  0  0  0  0  0
  1  2  1  0
  2  3  1  0
  3  4  1  0
  4  5  1  0
  5  6  1  0
  6  7  1  0
  7  8  1  0
  8  9  1  0
  9  2  1  0
  6  3  1  0
  9  5  1  0
  1 10  1  0
  2 11  1  0
  3 12  1  0
  5 13  1  0
  6 14  1  0
  7 15  1  0
  7 16  1  0
  8 17  1  0
  8 18  1  0
  9 19  1  0
M  END
$$$$
