
     RDKit          3D

 19 21  0  0  0  0  0  0  0  0999 V2000
    1.1182    1.1350    0.1226 C   0  0  0  0  0  0  0  0  0  0  0  0
    1.0436   -0.3866    0.1321 C   0  0  0  0  0  0  0  0  0  0  0  0
    1.8035   -1.0501   -1.0203 C   0  0  0  0  0  0  0  0  0  0  0  0
    2.0944   -2.5082   -0.6444 C   0  0  0  0  0  0  0  0  0  0  0  0
    1.2919   -3.1373    0.3318 O   0  0  0  0  0  0  0  0  0  0  0  0
    1.5199   -2.4320    1.5642 C   0  0  0  0  0  0  0  0  0  0  0  0
    2.0480   -1.0673    1.1271 C   0  0  0  0  0  0  0  0  0  0  0  0
    2.9531   -1.4279   -0.0967 C   0  0  0  0  0  0  0  0  0  0  0  0
    4.3093   -1.2343   -0.2478 O   0  0  0  0  0  0  0  0  0  0  0  0
    0.7084    1.5538    1.0484 H   0  0  0  0  0  0  0  0  0  0  0  0
    2.1546    1.4769    0.0252 H   0  0  0  0  0  0  0  0  0  0  0  0
    0.5491    1.5529   -0.7151 H   0  0  0  0  0  0  0  0  0  0  0  0
    0.0056   -0.7191    0.2528 H   0  0  0  0  0  0  0  0  0  0  0  0
    1.8281   -0.7214   -2.0542 H   0  0  0  0  0  0  0  0  0  0  0  0
    2.4456   -3.1721   -1.4257 H   0  0  0  0  0  0  0  0  0  0  0  0
    0.5701   -2.3859    2.1066 H   0  0  0  0  0  0  0  0  0  0  0  0
    2.2540   -2.9726    2.1838 H   0  0  0  0  0  0  0  0  0  0  0  0
    2.4613   -0.4403    1.9170 H   0  0  0  0  0  0  0  0  0  0  0  0
    4.7703   -2.0167    0.0750 H   0  0  0  0  0  0  0  0  0  0  0  0
  1  2  1  0
  2  3  1  0
  3  4  1  0
  4  5  1  0
  5  6  1  0
  6  7  1  0
  7  8  1  0
  8  9  1  0
  7  2  1  0
  8  3  1  0
  8  4  1  0
  1 10  1  0
  1 11  1  0
  1 12  1  0
  2 13  1  0
  3 14  1  0
  4 15  1  0
  6 16  1  0
  6 17  1  0
  7 18  1  0
  9 19  1  0
M  END
$$$$
