gdb 4002	3.0709687	1.226772	1.0423997	2.144	77.71	-0.24175	-0.02478	0.21697	1210.1138	0.154532	-422.531301	-422.522185	-422.521241	-422.56486	33.585
 OpenBabel02181911413D

 19 20  0  0  1  0  0  0  0  0999 V2000
   -0.0048    0.1449    0.0689 C   0  0  0  0  0  0  0  0  0  0  0  0
    1.5081    0.1175    0.1206 C   0  0  2  0  0  0  0  0  0  0  0  0
    2.0489   -0.8854   -0.8091 O   0  0  0  0  0  0  0  0  0  0  0  0
    2.5263   -1.6411    0.2864 C   0  0  2  0  0  0  0  0  0  0  0  0
    2.1116   -0.6374    1.3055 C   0  0  1  0  0  0  0  0  0  0  0  0
    3.6070   -0.8683    1.0746 C   0  0  2  0  0  0  0  0  0  0  0  0
    4.5197    0.1258    0.3916 C   0  0  0  0  0  0  0  0  0  0  0  0
    4.2129   -1.7390    2.1151 C   0  0  0  0  0  0  0  0  0  0  0  0
    3.5909   -2.4741    2.8492 O   0  0  0  0  0  0  0  0  0  0  0  0
   -0.3939    0.8627    0.7992 H   0  0  0  0  0  0  0  0  0  0  0  0
   -0.3419    0.4487   -0.9264 H   0  0  0  0  0  0  0  0  0  0  0  0
   -0.4194   -0.8420    0.2925 H   0  0  0  0  0  0  0  0  0  0  0  0
    1.9282    1.1068   -0.0939 H   0  0  0  0  0  0  0  0  0  0  0  0
    2.4910   -2.7228    0.2452 H   0  0  0  0  0  0  0  0  0  0  0  0
    1.6700   -0.7820    2.2821 H   0  0  0  0  0  0  0  0  0  0  0  0
    4.6147    1.0557    0.9624 H   0  0  0  0  0  0  0  0  0  0  0  0
    5.5232   -0.2976    0.2751 H   0  0  0  0  0  0  0  0  0  0  0  0
    4.1483    0.3674   -0.6067 H   0  0  0  0  0  0  0  0  0  0  0  0
    5.3242   -1.6930    2.1599 H   0  0  0  0  0  0  0  0  0  0  0  0
  1  2  1  0  0  0  0
  1 12  1  0  0  0  0
  1 10  1  0  0  0  0
  2 13  1  6  0  0  0
  2  5  1  0  0  0  0
  3  2  1  0  0  0  0
  3  4  1  0  0  0  0
  4 14  1  1  0  0  0
  4  6  1  0  0  0  0
  4  5  1  0  0  0  0
  5 15  1  1  0  0  0
  6  5  1  0  0  0  0
  6  8  1  1  0  0  0
  7 16  1  0  0  0  0
  7  6  1  0  0  0  0
  8 19  1  0  0  0  0
  8  9  2  0  0  0  0
 11  1  1  0  0  0  0
 17  7  1  0  0  0  0
 18  7  1  0  0  0  0
M TOR 0 0 1 2 3
M TOR 1 0 1 4 3
M TOR 2 0 1 4 5
M TOR 3 0 1 4 14
M TOR 4 1 2 3 4
M TOR 5 1 2 3 5
M TOR 6 1 2 3 13
M TOR 7 1 4 3 5
M TOR 8 1 4 3 13
M TOR 9 1 4 5 6
M TOR 10 1 4 5 7
M TOR 11 2 1 0 9
M TOR 12 2 1 0 10
M TOR 13 2 1 0 11
M TOR 14 2 1 4 5
M TOR 15 2 1 4 14
M TOR 16 2 3 4 5
M TOR 17 2 3 4 14
M TOR 18 2 3 5 6
M TOR 19 2 3 5 7
M TOR 20 3 2 1 12
M TOR 21 3 4 1 12
M TOR 22 3 4 5 6
M TOR 23 3 4 5 7
M TOR 24 3 5 4 14
M TOR 25 3 5 6 15
M TOR 26 3 5 6 16
M TOR 27 3 5 6 17
M TOR 28 3 5 7 8
M TOR 29 3 5 7 18
M TOR 30 4 1 0 9
M TOR 31 4 1 0 10
M TOR 32 4 1 0 11
M TOR 33 4 5 3 13
M TOR 34 4 5 6 15
M TOR 35 4 5 6 16
M TOR 36 4 5 6 17
M TOR 37 4 5 7 8
M TOR 38 4 5 7 18
M TOR 39 5 4 1 12
M TOR 40 6 5 3 13
M TOR 41 6 5 4 14
M TOR 42 6 5 7 8
M TOR 43 6 5 7 18
M TOR 44 7 5 3 13
M TOR 45 7 5 4 14
M TOR 46 7 5 6 15
M TOR 47 7 5 6 16
M TOR 48 7 5 6 17
M  END
$$$$
