gdb 1043	3.0839215	0.8508229	0.7804806	2.6017	80.5	-0.22851	0.04121	0.26971999999999996	1551.2248	0.153889	-422.514935	-422.5046	-422.503655	-422.551251	36.905
 OpenBabel02181911403D

 19 19  0  0  1  0  0  0  0  0999 V2000
    1.5070   -0.0150    0.1903 C   0  0  0  0  0  0  0  0  0  0  0  0
    0.0548   -0.0288    0.0778 C   0  0  0  0  0  0  0  0  0  0  0  0
   -1.1443   -0.0726   -0.0366 C   0  0  0  0  0  0  0  0  0  0  0  0
   -2.6036   -0.0455   -0.1301 C   0  0  0  0  0  0  0  0  0  0  0  0
   -3.1395    1.3739   -0.0167 C   0  0  2  0  0  0  0  0  0  0  0  0
   -2.6861    2.0727    1.1182 O   0  0  0  0  0  0  0  0  0  0  0  0
   -4.5492    1.7056   -0.4236 C   0  0  0  0  0  0  0  0  0  0  0  0
   -3.3737    2.2442   -1.2261 C   0  0  1  0  0  0  0  0  0  0  0  0
   -3.0308    3.5890   -1.1394 O   0  0  0  0  0  0  0  0  0  0  0  0
    1.8287   -0.0993    1.2341 H   0  0  0  0  0  0  0  0  0  0  0  0
    1.9510   -0.8505   -0.3617 H   0  0  0  0  0  0  0  0  0  0  0  0
    1.9295    0.9106   -0.2153 H   0  0  0  0  0  0  0  0  0  0  0  0
   -2.9358   -0.4823   -1.0794 H   0  0  0  0  0  0  0  0  0  0  0  0
   -3.0385   -0.6614    0.6688 H   0  0  0  0  0  0  0  0  0  0  0  0
   -1.7310    1.9202    1.1645 H   0  0  0  0  0  0  0  0  0  0  0  0
   -5.1654    0.9180   -0.8457 H   0  0  0  0  0  0  0  0  0  0  0  0
   -5.0756    2.4194    0.2010 H   0  0  0  0  0  0  0  0  0  0  0  0
   -3.1941    1.8409   -2.2185 H   0  0  0  0  0  0  0  0  0  0  0  0
   -2.7617    3.7282   -0.2196 H   0  0  0  0  0  0  0  0  0  0  0  0
  1 10  1  0  0  0  0
  2  1  1  0  0  0  0
  3  2  3  0  0  0  0
  4  3  1  0  0  0  0
  4  5  1  0  0  0  0
  4 14  1  0  0  0  0
  5  6  1  1  0  0  0
  6 15  1  0  0  0  0
  7  5  1  0  0  0  0
  7 17  1  0  0  0  0
  8 18  1  6  0  0  0
  8  9  1  0  0  0  0
  8  7  1  0  0  0  0
  8  5  1  0  0  0  0
  9 19  1  0  0  0  0
 11  1  1  0  0  0  0
 12  1  1  0  0  0  0
 13  4  1  0  0  0  0
 16  7  1  0  0  0  0
M TOR 0 0 1 2 3
M TOR 1 1 2 3 4
M TOR 2 1 2 3 12
M TOR 3 1 2 3 13
M TOR 4 2 1 0 9
M TOR 5 2 1 0 10
M TOR 6 2 1 0 11
M TOR 7 2 3 4 5
M TOR 8 2 3 4 6
M TOR 9 2 3 4 7
M TOR 10 3 4 5 14
M TOR 11 3 4 6 7
M TOR 12 3 4 6 15
M TOR 13 3 4 6 16
M TOR 14 3 4 7 8
M TOR 15 3 4 7 17
M TOR 16 4 6 7 8
M TOR 17 4 6 7 17
M TOR 18 4 7 6 15
M TOR 19 4 7 6 16
M TOR 20 4 7 8 18
M TOR 21 5 4 3 12
M TOR 22 5 4 3 13
M TOR 23 5 4 6 7
M TOR 24 5 4 6 15
M TOR 25 5 4 6 16
M TOR 26 5 4 7 8
M TOR 27 5 4 7 17
M TOR 28 6 4 3 12
M TOR 29 6 4 3 13
M TOR 30 6 4 5 14
M TOR 31 6 7 8 18
M TOR 32 7 4 3 12
M TOR 33 7 4 3 13
M TOR 34 7 4 5 14
M TOR 35 8 7 6 15
M TOR 36 8 7 6 16
M  END
$$$$
