
     RDKit          3D

 19 21  0  0  0  0  0  0  0  0999 V2000
    0.3002    0.0499    0.2835 O   0  0  0  0  0  0  0  0  0  0  0  0
   -0.7581    0.7318    0.8945 C   0  0  0  0  0  0  0  0  0  0  0  0
   -1.5362    0.0933    2.0104 C   0  0  0  0  0  0  0  0  0  0  0  0
   -2.9840    0.5258    2.2978 C   0  0  0  0  0  0  0  0  0  0  0  0
   -2.9261    1.9779    2.7751 C   0  0  0  0  0  0  0  0  0  0  0  0
   -2.4609    3.0735    1.8281 C   0  0  0  0  0  0  0  0  0  0  0  0
   -1.4792    2.4448    2.7653 C   0  0  0  0  0  0  0  0  0  0  0  0
   -0.9408    3.2822    3.7427 O   0  0  0  0  0  0  0  0  0  0  0  0
   -0.6174    1.2824    2.2913 C   0  0  0  0  0  0  0  0  0  0  0  0
    0.7623   -0.4655    0.9523 H   0  0  0  0  0  0  0  0  0  0  0  0
   -1.2776    1.3116    0.1397 H   0  0  0  0  0  0  0  0  0  0  0  0
   -1.2447   -0.9166    2.2871 H   0  0  0  0  0  0  0  0  0  0  0  0
   -3.6336    0.3922    1.4245 H   0  0  0  0  0  0  0  0  0  0  0  0
   -3.3967   -0.1014    3.0953 H   0  0  0  0  0  0  0  0  0  0  0  0
   -3.5906    2.2843    3.5758 H   0  0  0  0  0  0  0  0  0  0  0  0
   -2.4052    2.8952    0.7603 H   0  0  0  0  0  0  0  0  0  0  0  0
   -2.7683    4.0794    2.0926 H   0  0  0  0  0  0  0  0  0  0  0  0
   -0.7947    2.7556    4.5368 H   0  0  0  0  0  0  0  0  0  0  0  0
    0.3442    1.1720    2.7838 H   0  0  0  0  0  0  0  0  0  0  0  0
  1  2  1  0
  2  3  1  0
  3  4  1  0
  4  5  1  0
  5  6  1  0
  6  7  1  0
  7  8  1  0
  7  9  1  0
  9  2  1  0
  9  3  1  0
  7  5  1  0
  1 10  1  0
  2 11  1  0
  3 12  1  0
  4 13  1  0
  4 14  1  0
  5 15  1  0
  6 16  1  0
  6 17  1  0
  8 18  1  0
  9 19  1  0
M  END
$$$$
