
     RDKit          3D

 19 20  0  0  0  0  0  0  0  0999 V2000
    1.2009    0.0470    0.6746 O   0  0  0  0  0  0  0  0  0  0  0  0
    0.0545    0.0165    0.3339 C   0  0  0  0  0  0  0  0  0  0  0  0
   -0.9421   -1.1250    0.0628 C   0  0  0  0  0  0  0  0  0  0  0  0
   -2.0794   -0.0546    0.0216 C   0  0  0  0  0  0  0  0  0  0  0  0
   -3.0081   -0.0818   -1.1906 C   0  0  0  0  0  0  0  0  0  0  0  0
   -3.9666    1.0850   -1.2223 C   0  0  0  0  0  0  0  0  0  0  0  0
   -4.3894    1.7241   -2.4738 C   0  0  0  0  0  0  0  0  0  0  0  0
   -3.4247    2.3487   -1.6240 O   0  0  0  0  0  0  0  0  0  0  0  0
   -1.0131    1.0889    0.0791 C   0  0  0  0  0  0  0  0  0  0  0  0
   -0.7582   -1.6037   -0.9063 H   0  0  0  0  0  0  0  0  0  0  0  0
   -0.9959   -1.9049    0.8269 H   0  0  0  0  0  0  0  0  0  0  0  0
   -2.6706   -0.0813    0.9424 H   0  0  0  0  0  0  0  0  0  0  0  0
   -2.4126   -0.0748   -2.1124 H   0  0  0  0  0  0  0  0  0  0  0  0
   -3.5872   -1.0152   -1.1900 H   0  0  0  0  0  0  0  0  0  0  0  0
   -4.6442    1.1550   -0.3685 H   0  0  0  0  0  0  0  0  0  0  0  0
   -4.0040    1.3511   -3.4221 H   0  0  0  0  0  0  0  0  0  0  0  0
   -5.3552    2.2238   -2.5309 H   0  0  0  0  0  0  0  0  0  0  0  0
   -0.8769    1.6011   -0.8787 H   0  0  0  0  0  0  0  0  0  0  0  0
   -1.1191    1.8502    0.8561 H   0  0  0  0  0  0  0  0  0  0  0  0
  1  2  2  0
  2  3  1  0
  3  4  1  0
  4  5  1  0
  5  6  1  0
  6  7  1  0
  7  8  1  0
  4  9  1  0
  9  2  1  0
  8  6  1  0
  3 10  1  0
  3 11  1  0
  4 12  1  0
  5 13  1  0
  5 14  1  0
  6 15  1  0
  7 16  1  0
  7 17  1  0
  9 18  1  0
  9 19  1  0
M  END
$$$$
