
     RDKit          3D

 19 21  0  0  0  0  0  0  0  0999 V2000
    1.2632   -0.3435    1.0330 C   0  0  0  0  0  0  0  0  0  0  0  0
    1.0296    0.1970   -0.3842 C   0  0  0  0  0  0  0  0  0  0  0  0
    1.6880   -0.6488   -1.4526 C   0  0  0  0  0  0  0  0  0  0  0  0
    1.1150   -2.0442   -1.8152 C   0  0  0  0  0  0  0  0  0  0  0  0
    1.0115   -1.6878   -3.2188 O   0  0  0  0  0  0  0  0  0  0  0  0
    1.5513   -0.3841   -2.9735 C   0  0  0  0  0  0  0  0  0  0  0  0
    3.1009   -0.2547   -3.0733 C   0  0  0  0  0  0  0  0  0  0  0  0
    3.6709   -1.4687   -2.5800 O   0  0  0  0  0  0  0  0  0  0  0  0
    3.2310   -0.5088   -1.6228 C   0  0  0  0  0  0  0  0  0  0  0  0
    0.8590   -1.3555    1.1427 H   0  0  0  0  0  0  0  0  0  0  0  0
    2.3304   -0.3864    1.2750 H   0  0  0  0  0  0  0  0  0  0  0  0
    0.7779    0.2910    1.7804 H   0  0  0  0  0  0  0  0  0  0  0  0
   -0.0474    0.2544   -0.5852 H   0  0  0  0  0  0  0  0  0  0  0  0
    1.4092    1.2254   -0.4533 H   0  0  0  0  0  0  0  0  0  0  0  0
    1.7752   -2.9016   -1.6596 H   0  0  0  0  0  0  0  0  0  0  0  0
    0.1245   -2.2453   -1.3879 H   0  0  0  0  0  0  0  0  0  0  0  0
    0.9681    0.4361   -3.4020 H   0  0  0  0  0  0  0  0  0  0  0  0
    3.7041    0.3289   -3.7602 H   0  0  0  0  0  0  0  0  0  0  0  0
    3.9586   -0.1532   -0.9010 H   0  0  0  0  0  0  0  0  0  0  0  0
  1  2  1  0
  2  3  1  0
  3  4  1  0
  4  5  1  0
  5  6  1  0
  6  7  1  0
  7  8  1  0
  8  9  1  0
  6  3  1  0
  9  7  1  0
  9  3  1  0
  1 10  1  0
  1 11  1  0
  1 12  1  0
  2 13  1  0
  2 14  1  0
  4 15  1  0
  4 16  1  0
  6 17  1  0
  7 18  1  0
  9 19  1  0
M  END
$$$$
