gdb 1995	2.8175696	1.8343601	1.5388852	2.9469	72.76	-0.24648	0.08237	0.32885	942.3524	0.158795	-422.555184	-422.547922	-422.546978	-422.586468	29.306
 OpenBabel02181911403D

 19 21  0  0  1  0  0  0  0  0999 V2000
    0.3913    0.1330   -2.0834 C   0  0  0  0  0  0  0  0  0  0  0  0
    1.1571   -0.0468   -0.8054 C   0  0  2  0  0  0  0  0  0  0  0  0
    2.2210    0.8804   -0.5451 O   0  0  0  0  0  0  0  0  0  0  0  0
    2.5432   -0.5064   -0.6485 C   0  0  1  0  0  0  0  0  0  0  0  0
    2.5314   -1.2385    0.7019 C   0  0  2  0  0  0  0  0  0  0  0  0
    1.8047   -2.5870    0.4577 C   0  0  0  0  0  0  0  0  0  0  0  0
    0.3250   -2.1027    0.3221 C   0  0  0  0  0  0  0  0  0  0  0  0
    0.4983   -0.5676    0.4907 C   0  0  1  0  0  0  0  0  0  0  0  0
    1.5611   -0.4936    1.4420 O   0  0  0  0  0  0  0  0  0  0  0  0
   -0.1792   -0.7648   -2.3412 H   0  0  0  0  0  0  0  0  0  0  0  0
   -0.3188    0.9625   -1.9906 H   0  0  0  0  0  0  0  0  0  0  0  0
    1.0707    0.3622   -2.9078 H   0  0  0  0  0  0  0  0  0  0  0  0
    3.1891   -0.8121   -1.4665 H   0  0  0  0  0  0  0  0  0  0  0  0
    3.4689   -1.2795    1.2555 H   0  0  0  0  0  0  0  0  0  0  0  0
    2.1674   -3.1027   -0.4362 H   0  0  0  0  0  0  0  0  0  0  0  0
    1.9342   -3.2565    1.3103 H   0  0  0  0  0  0  0  0  0  0  0  0
   -0.1302   -2.3840   -0.6305 H   0  0  0  0  0  0  0  0  0  0  0  0
   -0.3004   -2.5009    1.1236 H   0  0  0  0  0  0  0  0  0  0  0  0
   -0.3685   -0.0182    0.8585 H   0  0  0  0  0  0  0  0  0  0  0  0
  1 11  1  0  0  0  0
  2  1  1  6  0  0  0
  2  4  1  0  0  0  0
  2  3  1  0  0  0  0
  2  8  1  0  0  0  0
  4 13  1  6  0  0  0
  4  3  1  0  0  0  0
  4  5  1  0  0  0  0
  5 14  1  1  0  0  0
  5  9  1  0  0  0  0
  6  5  1  0  0  0  0
  6 16  1  0  0  0  0
  7  6  1  0  0  0  0
  7  8  1  0  0  0  0
  7 18  1  0  0  0  0
  8 19  1  1  0  0  0
  8  9  1  0  0  0  0
 10  1  1  0  0  0  0
 12  1  1  0  0  0  0
 15  6  1  0  0  0  0
 17  7  1  0  0  0  0
M TOR 0 0 1 2 3
M TOR 1 0 1 3 4
M TOR 2 0 1 3 12
M TOR 3 0 1 7 6
M TOR 4 0 1 7 8
M TOR 5 0 1 7 18
M TOR 6 1 2 3 4
M TOR 7 1 2 3 12
M TOR 8 1 3 4 5
M TOR 9 1 3 4 8
M TOR 10 1 3 4 13
M TOR 11 1 7 6 5
M TOR 12 1 7 6 16
M TOR 13 1 7 6 17
M TOR 14 1 7 8 4
M TOR 15 2 1 0 9
M TOR 16 2 1 0 10
M TOR 17 2 1 0 11
M TOR 18 2 1 7 6
M TOR 19 2 1 7 8
M TOR 20 2 1 7 18
M TOR 21 2 3 1 7
M TOR 22 2 3 4 5
M TOR 23 2 3 4 8
M TOR 24 2 3 4 13
M TOR 25 3 1 0 9
M TOR 26 3 1 0 10
M TOR 27 3 1 0 11
M TOR 28 3 1 7 6
M TOR 29 3 1 7 8
M TOR 30 3 1 7 18
M TOR 31 3 4 5 6
M TOR 32 3 4 5 14
M TOR 33 3 4 5 15
M TOR 34 3 4 8 7
M TOR 35 4 3 1 7
M TOR 36 4 5 6 7
M TOR 37 4 5 6 16
M TOR 38 4 5 6 17
M TOR 39 4 8 7 6
M TOR 40 4 8 7 18
M TOR 41 5 4 3 12
M TOR 42 5 4 8 7
M TOR 43 5 6 7 8
M TOR 44 5 6 7 18
M TOR 45 6 5 4 8
M TOR 46 6 5 4 13
M TOR 47 7 1 0 9
M TOR 48 7 1 0 10
M TOR 49 7 1 0 11
M TOR 50 7 1 3 12
M TOR 51 7 6 5 14
M TOR 52 7 6 5 15
M TOR 53 7 8 4 13
M TOR 54 8 4 3 12
M TOR 55 8 4 5 14
M TOR 56 8 4 5 15
M TOR 57 8 7 6 16
M TOR 58 8 7 6 17
M  END
$$$$
