
     RDKit          3D

 19 19  0  0  0  0  0  0  0  0999 V2000
    0.9691    1.0610   -0.2969 O   0  0  0  0  0  0  0  0  0  0  0  0
   -0.0688    0.1937    0.1089 C   0  0  0  0  0  0  0  0  0  0  0  0
   -0.8294    0.7608    1.2999 C   0  0  0  0  0  0  0  0  0  0  0  0
    0.1143    0.9892    2.3526 O   0  0  0  0  0  0  0  0  0  0  0  0
   -0.4053    0.5482    3.6088 C   0  0  0  0  0  0  0  0  0  0  0  0
   -1.8914    0.2604    3.3815 C   0  0  0  0  0  0  0  0  0  0  0  0
   -1.9046   -0.1757    1.8982 C   0  0  0  0  0  0  0  0  0  0  0  0
   -3.1977   -0.0937    1.2410 C   0  0  0  0  0  0  0  0  0  0  0  0
   -4.2637   -0.0123    0.6915 C   0  0  0  0  0  0  0  0  0  0  0  0
    1.4761    1.2564    0.5002 H   0  0  0  0  0  0  0  0  0  0  0  0
   -0.7454    0.0762   -0.7440 H   0  0  0  0  0  0  0  0  0  0  0  0
    0.3190   -0.8036    0.3779 H   0  0  0  0  0  0  0  0  0  0  0  0
   -1.2862    1.7189    1.0135 H   0  0  0  0  0  0  0  0  0  0  0  0
    0.1321   -0.3556    3.9296 H   0  0  0  0  0  0  0  0  0  0  0  0
   -0.2333    1.3280    4.3584 H   0  0  0  0  0  0  0  0  0  0  0  0
   -2.2896   -0.5038    4.0522 H   0  0  0  0  0  0  0  0  0  0  0  0
   -2.4906    1.1677    3.5002 H   0  0  0  0  0  0  0  0  0  0  0  0
   -1.5331   -1.2082    1.8348 H   0  0  0  0  0  0  0  0  0  0  0  0
   -5.2057    0.0543    0.2059 H   0  0  0  0  0  0  0  0  0  0  0  0
  1  2  1  0
  2  3  1  0
  3  4  1  0
  4  5  1  0
  5  6  1  0
  6  7  1  0
  7  8  1  0
  8  9  3  0
  7  3  1  0
  1 10  1  0
  2 11  1  0
  2 12  1  0
  3 13  1  0
  5 14  1  0
  5 15  1  0
  6 16  1  0
  6 17  1  0
  7 18  1  0
  9 19  1  0
M  END
$$$$
