
     RDKit          3D

 19 19  0  0  0  0  0  0  0  0999 V2000
    0.9741    0.3811   -0.2918 O   0  0  0  0  0  0  0  0  0  0  0  0
    0.6305    0.0309    1.0452 C   0  0  0  0  0  0  0  0  0  0  0  0
   -0.8638   -0.1258    1.2412 C   0  0  0  0  0  0  0  0  0  0  0  0
   -1.4978    0.6111    2.1661 C   0  0  0  0  0  0  0  0  0  0  0  0
   -2.9696    0.5211    2.4640 C   0  0  0  0  0  0  0  0  0  0  0  0
   -3.4278   -0.8148    2.6340 O   0  0  0  0  0  0  0  0  0  0  0  0
   -3.7942   -1.4741    1.4478 C   0  0  0  0  0  0  0  0  0  0  0  0
   -2.7408   -1.6058    0.3861 C   0  0  0  0  0  0  0  0  0  0  0  0
   -1.5142   -1.0699    0.3258 C   0  0  0  0  0  0  0  0  0  0  0  0
    0.5123    1.2006   -0.4995 H   0  0  0  0  0  0  0  0  0  0  0  0
    1.1414   -0.9220    1.2266 H   0  0  0  0  0  0  0  0  0  0  0  0
    1.0265    0.7597    1.7674 H   0  0  0  0  0  0  0  0  0  0  0  0
   -0.9188    1.3065    2.7702 H   0  0  0  0  0  0  0  0  0  0  0  0
   -3.1904    1.0366    3.4040 H   0  0  0  0  0  0  0  0  0  0  0  0
   -3.5528    1.0225    1.6734 H   0  0  0  0  0  0  0  0  0  0  0  0
   -4.0992   -2.4805    1.7654 H   0  0  0  0  0  0  0  0  0  0  0  0
   -4.6951   -1.0137    0.9987 H   0  0  0  0  0  0  0  0  0  0  0  0
   -3.0442   -2.2612   -0.4299 H   0  0  0  0  0  0  0  0  0  0  0  0
   -0.8990   -1.3361   -0.5304 H   0  0  0  0  0  0  0  0  0  0  0  0
  1  2  1  0
  2  3  1  0
  3  4  2  0
  4  5  1  0
  5  6  1  0
  6  7  1  0
  7  8  1  0
  8  9  2  0
  9  3  1  0
  1 10  1  0
  2 11  1  0
  2 12  1  0
  4 13  1  0
  5 14  1  0
  5 15  1  0
  7 16  1  0
  7 17  1  0
  8 18  1  0
  9 19  1  0
M  END
$$$$
