
     RDKit          3D

 19 20  0  0  0  0  0  0  0  0999 V2000
    2.5847    0.5962   -4.2888 C   0  0  0  0  0  0  0  0  0  0  0  0
    1.3235    0.6665   -3.4447 C   0  0  0  0  0  0  0  0  0  0  0  0
    0.5258   -0.2429   -3.4041 O   0  0  0  0  0  0  0  0  0  0  0  0
    1.1335    1.9412   -2.6474 C   0  0  0  0  0  0  0  0  0  0  0  0
    1.9595    1.9222   -1.2989 C   0  0  0  0  0  0  0  0  0  0  0  0
    0.6498    2.0223   -0.5183 C   0  0  0  0  0  0  0  0  0  0  0  0
   -0.1454    3.2243   -0.9440 C   0  0  0  0  0  0  0  0  0  0  0  0
   -1.3038    3.5479   -0.2305 O   0  0  0  0  0  0  0  0  0  0  0  0
   -0.1582    2.0209   -1.8375 C   0  0  0  0  0  0  0  0  0  0  0  0
    3.4625    0.9197   -3.7195 H   0  0  0  0  0  0  0  0  0  0  0  0
    2.7300   -0.4191   -4.6594 H   0  0  0  0  0  0  0  0  0  0  0  0
    2.4895    1.2789   -5.1416 H   0  0  0  0  0  0  0  0  0  0  0  0
    1.3467    2.8057   -3.2893 H   0  0  0  0  0  0  0  0  0  0  0  0
    2.4715    0.9680   -1.1488 H   0  0  0  0  0  0  0  0  0  0  0  0
    2.6808    2.7344   -1.1600 H   0  0  0  0  0  0  0  0  0  0  0  0
    0.4350    1.5219    0.4191 H   0  0  0  0  0  0  0  0  0  0  0  0
    0.3549    4.1419   -1.2497 H   0  0  0  0  0  0  0  0  0  0  0  0
   -1.8040    2.7405   -0.0709 H   0  0  0  0  0  0  0  0  0  0  0  0
   -1.0689    1.4909   -2.0895 H   0  0  0  0  0  0  0  0  0  0  0  0
  1  2  1  0
  2  3  2  0
  2  4  1  0
  4  5  1  0
  5  6  1  0
  6  7  1  0
  7  8  1  0
  7  9  1  0
  9  4  1  0
  9  6  1  0
  1 10  1  0
  1 11  1  0
  1 12  1  0
  4 13  1  0
  5 14  1  0
  5 15  1  0
  6 16  1  0
  7 17  1  0
  8 18  1  0
  9 19  1  0
M  END
$$$$
