
     RDKit          3D

 19 21  0  0  0  0  0  0  0  0999 V2000
    0.6114    0.8915   -0.8479 C   0  0  0  0  0  0  0  0  0  0  0  0
    0.0384   -0.0931    0.0229 O   0  0  0  0  0  0  0  0  0  0  0  0
    1.4298    0.1554    0.1193 C   0  0  0  0  0  0  0  0  0  0  0  0
    2.4928   -0.9241   -0.1057 C   0  0  0  0  0  0  0  0  0  0  0  0
    3.2634   -0.3719    1.1343 C   0  0  0  0  0  0  0  0  0  0  0  0
    4.4296    0.3804    0.8557 O   0  0  0  0  0  0  0  0  0  0  0  0
    4.0476    1.7116    0.5199 C   0  0  0  0  0  0  0  0  0  0  0  0
    2.8006    2.0109    1.3674 C   0  0  0  0  0  0  0  0  0  0  0  0
    2.1051    0.6471    1.4116 C   0  0  0  0  0  0  0  0  0  0  0  0
    0.6476    0.6192   -1.9024 H   0  0  0  0  0  0  0  0  0  0  0  0
    0.3147    1.9202   -0.6453 H   0  0  0  0  0  0  0  0  0  0  0  0
    2.0987   -1.9334    0.0410 H   0  0  0  0  0  0  0  0  0  0  0  0
    3.0474   -0.8873   -1.0467 H   0  0  0  0  0  0  0  0  0  0  0  0
    3.5144   -1.1071    1.9005 H   0  0  0  0  0  0  0  0  0  0  0  0
    4.8973    2.3655    0.7323 H   0  0  0  0  0  0  0  0  0  0  0  0
    3.8146    1.7925   -0.5538 H   0  0  0  0  0  0  0  0  0  0  0  0
    3.0929    2.3138    2.3776 H   0  0  0  0  0  0  0  0  0  0  0  0
    2.1816    2.8039    0.9391 H   0  0  0  0  0  0  0  0  0  0  0  0
    1.5001    0.4814    2.3042 H   0  0  0  0  0  0  0  0  0  0  0  0
  1  2  1  0
  2  3  1  0
  3  4  1  0
  4  5  1  0
  5  6  1  0
  6  7  1  0
  7  8  1  0
  8  9  1  0
  3  1  1  0
  9  3  1  0
  9  5  1  0
  1 10  1  0
  1 11  1  0
  4 12  1  0
  4 13  1  0
  5 14  1  0
  7 15  1  0
  7 16  1  0
  8 17  1  0
  8 18  1  0
  9 19  1  0
M  END
$$$$
