
     RDKit          3D

 19 19  0  0  0  0  0  0  0  0999 V2000
    1.5416    0.0659   -0.0119 C   0  0  0  0  0  0  0  0  0  0  0  0
    0.0862    0.0560    0.0175 C   0  0  0  0  0  0  0  0  0  0  0  0
   -1.1181    0.0521    0.0443 C   0  0  0  0  0  0  0  0  0  0  0  0
   -2.5646    0.0272    0.0667 C   0  0  0  0  0  0  0  0  0  0  0  0
   -3.3282   -0.0415   -1.2863 C   0  0  0  0  0  0  0  0  0  0  0  0
   -4.0612   -1.2102   -0.8689 O   0  0  0  0  0  0  0  0  0  0  0  0
   -3.2849   -1.3237    0.3502 C   0  0  0  0  0  0  0  0  0  0  0  0
   -4.2086   -1.4076    1.5506 C   0  0  0  0  0  0  0  0  0  0  0  0
   -5.0742   -2.5184    1.4312 O   0  0  0  0  0  0  0  0  0  0  0  0
    1.9485    0.8399    0.6481 H   0  0  0  0  0  0  0  0  0  0  0  0
    1.9519   -0.8966    0.3132 H   0  0  0  0  0  0  0  0  0  0  0  0
    1.9173    0.2607   -1.0225 H   0  0  0  0  0  0  0  0  0  0  0  0
   -2.9552    0.8234    0.7094 H   0  0  0  0  0  0  0  0  0  0  0  0
   -3.9880    0.8026   -1.5134 H   0  0  0  0  0  0  0  0  0  0  0  0
   -2.6840   -0.2482   -2.1482 H   0  0  0  0  0  0  0  0  0  0  0  0
   -2.6220   -2.1962    0.3095 H   0  0  0  0  0  0  0  0  0  0  0  0
   -3.6271   -1.5444    2.4693 H   0  0  0  0  0  0  0  0  0  0  0  0
   -4.7719   -0.4637    1.6413 H   0  0  0  0  0  0  0  0  0  0  0  0
   -5.4948   -2.4357    0.5664 H   0  0  0  0  0  0  0  0  0  0  0  0
  1  2  1  0
  2  3  3  0
  3  4  1  0
  4  5  1  0
  5  6  1  0
  6  7  1  0
  7  8  1  0
  8  9  1  0
  7  4  1  0
  1 10  1  0
  1 11  1  0
  1 12  1  0
  4 13  1  0
  5 14  1  0
  5 15  1  0
  7 16  1  0
  8 17  1  0
  8 18  1  0
  9 19  1  0
M  END
$$$$
