gdb 5323	2.8634766	1.1479843	0.8940208	2.4973	79.85	-0.23638	-0.05002	0.18636	1305.2907	0.156609	-422.594765	-422.585525	-422.58458	-422.629595	33.594
 OpenBabel02181911423D

 19 19  0  0  1  0  0  0  0  0999 V2000
    1.8145   -2.1710   -1.7810 C   0  0  0  0  0  0  0  0  0  0  0  0
    2.0059   -0.9465   -0.8682 C   0  0  2  0  0  0  0  0  0  0  0  0
    3.4510   -0.8069   -0.3369 C   0  0  0  0  0  0  0  0  0  0  0  0
    3.3441   -0.8399    1.1944 C   0  0  0  0  0  0  0  0  0  0  0  0
    4.2651   -0.7888    1.9765 O   0  0  0  0  0  0  0  0  0  0  0  0
    1.9030   -0.9306    1.5148 C   0  0  0  0  0  0  0  0  0  0  0  0
    1.1590   -0.9766    0.3989 C   0  0  0  0  0  0  0  0  0  0  0  0
   -0.3451   -1.0073    0.3696 C   0  0  0  0  0  0  0  0  0  0  0  0
   -0.8797   -2.1837   -0.2302 O   0  0  0  0  0  0  0  0  0  0  0  0
    2.1062   -3.0892   -1.2582 H   0  0  0  0  0  0  0  0  0  0  0  0
    0.7749   -2.2788   -2.0936 H   0  0  0  0  0  0  0  0  0  0  0  0
    2.4459   -2.0779   -2.6702 H   0  0  0  0  0  0  0  0  0  0  0  0
    1.7201   -0.0556   -1.4447 H   0  0  0  0  0  0  0  0  0  0  0  0
    4.1058   -1.6156   -0.6758 H   0  0  0  0  0  0  0  0  0  0  0  0
    3.9273    0.1308   -0.6398 H   0  0  0  0  0  0  0  0  0  0  0  0
    1.5343   -0.9349    2.5340 H   0  0  0  0  0  0  0  0  0  0  0  0
   -0.7382   -0.8653    1.3863 H   0  0  0  0  0  0  0  0  0  0  0  0
   -0.7167   -0.1782   -0.2446 H   0  0  0  0  0  0  0  0  0  0  0  0
   -0.5779   -2.9373    0.2883 H   0  0  0  0  0  0  0  0  0  0  0  0
  1 10  1  0  0  0  0
  1  2  1  0  0  0  0
  2 13  1  6  0  0  0
  2  3  1  0  0  0  0
  2  7  1  0  0  0  0
  3  4  1  0  0  0  0
  4  6  1  0  0  0  0
  4  5  2  0  0  0  0
  6 16  1  0  0  0  0
  7  6  2  0  0  0  0
  8  7  1  0  0  0  0
  8 17  1  0  0  0  0
  9 19  1  0  0  0  0
  9  8  1  0  0  0  0
 11  1  1  0  0  0  0
 12  1  1  0  0  0  0
 14  3  1  0  0  0  0
 15  3  1  0  0  0  0
 18  8  1  0  0  0  0
M TOR 0 0 1 2 3
M TOR 1 0 1 2 13
M TOR 2 0 1 2 14
M TOR 3 0 1 6 5
M TOR 4 0 1 6 7
M TOR 5 1 2 3 4
M TOR 6 1 2 3 5
M TOR 7 1 6 5 3
M TOR 8 1 6 5 15
M TOR 9 1 6 7 8
M TOR 10 1 6 7 16
M TOR 11 1 6 7 17
M TOR 12 2 1 0 9
M TOR 13 2 1 0 10
M TOR 14 2 1 0 11
M TOR 15 2 1 6 5
M TOR 16 2 1 6 7
M TOR 17 2 3 5 6
M TOR 18 2 3 5 15
M TOR 19 3 2 1 6
M TOR 20 3 2 1 12
M TOR 21 3 5 6 7
M TOR 22 4 3 2 13
M TOR 23 4 3 2 14
M TOR 24 4 3 5 6
M TOR 25 4 3 5 15
M TOR 26 5 3 2 13
M TOR 27 5 3 2 14
M TOR 28 5 6 1 12
M TOR 29 5 6 7 8
M TOR 30 5 6 7 16
M TOR 31 5 6 7 17
M TOR 32 6 1 0 9
M TOR 33 6 1 0 10
M TOR 34 6 1 0 11
M TOR 35 6 1 2 13
M TOR 36 6 1 2 14
M TOR 37 6 7 8 18
M TOR 38 7 6 1 12
M TOR 39 7 6 5 15
M  END
$$$$
