
     RDKit          3D

 19 20  0  0  0  0  0  0  0  0999 V2000
    2.3949   -0.7197   -1.4258 C   0  0  0  0  0  0  0  0  0  0  0  0
    1.6343   -0.2535   -0.1925 C   0  0  0  0  0  0  0  0  0  0  0  0
    1.8488    1.2271    0.1715 C   0  0  0  0  0  0  0  0  0  0  0  0
    1.2024    1.5793    1.4574 C   0  0  0  0  0  0  0  0  0  0  0  0
    2.5031    0.8012    1.5239 C   0  0  0  0  0  0  0  0  0  0  0  0
    3.7137    1.3371    2.1293 C   0  0  0  0  0  0  0  0  0  0  0  0
    4.6163    0.6481    2.5681 O   0  0  0  0  0  0  0  0  0  0  0  0
    2.2728   -0.6812    1.1830 C   0  0  0  0  0  0  0  0  0  0  0  0
    3.4530   -1.4211    1.0238 O   0  0  0  0  0  0  0  0  0  0  0  0
    2.3169   -1.8035   -1.5454 H   0  0  0  0  0  0  0  0  0  0  0  0
    1.9854   -0.2451   -2.3241 H   0  0  0  0  0  0  0  0  0  0  0  0
    3.4563   -0.4736   -1.3514 H   0  0  0  0  0  0  0  0  0  0  0  0
    0.5740   -0.5175   -0.2802 H   0  0  0  0  0  0  0  0  0  0  0  0
    2.2223    1.9855   -0.5076 H   0  0  0  0  0  0  0  0  0  0  0  0
    1.2709    2.6189    1.7648 H   0  0  0  0  0  0  0  0  0  0  0  0
    0.2931    1.0760    1.7777 H   0  0  0  0  0  0  0  0  0  0  0  0
    3.7821    2.4475    2.1616 H   0  0  0  0  0  0  0  0  0  0  0  0
    1.5756   -1.1918    1.8655 H   0  0  0  0  0  0  0  0  0  0  0  0
    4.0843   -1.0857    1.6782 H   0  0  0  0  0  0  0  0  0  0  0  0
  1  2  1  0
  2  3  1  0
  3  4  1  0
  4  5  1  0
  5  6  1  0
  6  7  2  0
  5  8  1  0
  8  9  1  0
  8  2  1  0
  5  3  1  0
  1 10  1  0
  1 11  1  0
  1 12  1  0
  2 13  1  0
  3 14  1  0
  4 15  1  0
  4 16  1  0
  6 17  1  0
  8 18  1  0
  9 19  1  0
M  END
$$$$
