
     RDKit          3D

 19 20  0  0  0  0  0  0  0  0999 V2000
    0.3657    0.1669   -1.5480 O   0  0  0  0  0  0  0  0  0  0  0  0
   -0.2704    0.0208   -0.5299 C   0  0  0  0  0  0  0  0  0  0  0  0
   -0.7053    1.2345    0.2988 C   0  0  0  0  0  0  0  0  0  0  0  0
   -1.4249    0.9077    1.4701 O   0  0  0  0  0  0  0  0  0  0  0  0
   -2.5160    0.0404    1.1846 C   0  0  0  0  0  0  0  0  0  0  0  0
   -2.0245   -1.3611    0.8396 C   0  0  0  0  0  0  0  0  0  0  0  0
   -1.2766   -2.0912    1.9919 C   0  0  0  0  0  0  0  0  0  0  0  0
    0.0781   -1.7868    1.3036 C   0  0  0  0  0  0  0  0  0  0  0  0
   -0.6878   -1.3225    0.0141 C   0  0  0  0  0  0  0  0  0  0  0  0
    0.1832    1.7946    0.6058 H   0  0  0  0  0  0  0  0  0  0  0  0
   -1.2947    1.8905   -0.3643 H   0  0  0  0  0  0  0  0  0  0  0  0
   -3.1419    0.0254    2.0827 H   0  0  0  0  0  0  0  0  0  0  0  0
   -3.1187    0.4559    0.3592 H   0  0  0  0  0  0  0  0  0  0  0  0
   -2.8340   -1.9303    0.3740 H   0  0  0  0  0  0  0  0  0  0  0  0
   -1.4140   -1.6692    2.9906 H   0  0  0  0  0  0  0  0  0  0  0  0
   -1.5056   -3.1588    2.0327 H   0  0  0  0  0  0  0  0  0  0  0  0
    0.6243   -0.9732    1.7849 H   0  0  0  0  0  0  0  0  0  0  0  0
    0.7607   -2.6251    1.1536 H   0  0  0  0  0  0  0  0  0  0  0  0
   -0.6354   -2.0586   -0.7889 H   0  0  0  0  0  0  0  0  0  0  0  0
  1  2  2  0
  2  3  1  0
  3  4  1  0
  4  5  1  0
  5  6  1  0
  6  7  1  0
  7  8  1  0
  8  9  1  0
  9  2  1  0
  9  6  1  0
  3 10  1  0
  3 11  1  0
  5 12  1  0
  5 13  1  0
  6 14  1  0
  7 15  1  0
  7 16  1  0
  8 17  1  0
  8 18  1  0
  9 19  1  0
M  END
$$$$
