
     RDKit          3D

 19 21  0  0  0  0  0  0  0  0999 V2000
   -2.2850   -1.1830   -0.7132 C   0  0  0  0  0  0  0  0  0  0  0  0
   -2.1283   -0.3014    0.4915 C   0  0  0  0  0  0  0  0  0  0  0  0
   -0.8511    0.4301    0.7988 C   0  0  0  0  0  0  0  0  0  0  0  0
    0.2503    0.0002    0.0514 O   0  0  0  0  0  0  0  0  0  0  0  0
   -1.3862   -0.5291    1.8360 C   0  0  0  0  0  0  0  0  0  0  0  0
   -2.5094    0.1503    2.5909 C   0  0  0  0  0  0  0  0  0  0  0  0
   -3.5398   -0.7548    3.0301 O   0  0  0  0  0  0  0  0  0  0  0  0
   -4.3191   -0.5296    1.8351 C   0  0  0  0  0  0  0  0  0  0  0  0
   -3.2578    0.4112    1.2354 C   0  0  0  0  0  0  0  0  0  0  0  0
   -2.9818   -2.0065   -0.5249 H   0  0  0  0  0  0  0  0  0  0  0  0
   -2.6694   -0.6097   -1.5658 H   0  0  0  0  0  0  0  0  0  0  0  0
   -1.3210   -1.6058   -1.0032 H   0  0  0  0  0  0  0  0  0  0  0  0
   -0.8714    1.5076    0.9876 H   0  0  0  0  0  0  0  0  0  0  0  0
    1.0210    0.0023    0.6281 H   0  0  0  0  0  0  0  0  0  0  0  0
   -0.8076   -1.3843    2.1667 H   0  0  0  0  0  0  0  0  0  0  0  0
   -2.2718    0.9009    3.3512 H   0  0  0  0  0  0  0  0  0  0  0  0
   -4.5236   -1.4569    1.2864 H   0  0  0  0  0  0  0  0  0  0  0  0
   -5.2723   -0.0399    2.0714 H   0  0  0  0  0  0  0  0  0  0  0  0
   -3.5901    1.3866    0.8742 H   0  0  0  0  0  0  0  0  0  0  0  0
  1  2  1  0
  2  3  1  0
  3  4  1  0
  3  5  1  0
  5  6  1  0
  6  7  1  0
  7  8  1  0
  8  9  1  0
  5  2  1  0
  9  6  1  0
  9  2  1  0
  1 10  1  0
  1 11  1  0
  1 12  1  0
  3 13  1  0
  4 14  1  0
  5 15  1  0
  6 16  1  0
  8 17  1  0
  8 18  1  0
  9 19  1  0
M  END
$$$$
