gdb 1587	2.2386966	1.4592103	1.0858307	3.1848	79.	-0.24381	-0.06057	0.18324000000000001	1174.4441	0.155451	-422.59001	-422.580752	-422.579808	-422.623932	34.189
 OpenBabel02181911403D

 19 19  0  0  1  0  0  0  0  0999 V2000
   -1.2062    0.5089   -1.3525 C   0  0  0  0  0  0  0  0  0  0  0  0
   -1.0460   -0.2281   -0.0205 C   0  0  1  0  0  0  0  0  0  0  0  0
   -1.2128    0.7760    0.9818 O   0  0  0  0  0  0  0  0  0  0  0  0
   -2.0480   -1.4125    0.1341 C   0  0  0  0  0  0  0  0  0  0  0  0
   -1.2390   -2.7019   -0.1479 C   0  0  0  0  0  0  0  0  0  0  0  0
    0.1879   -2.2610    0.0233 C   0  0  0  0  0  0  0  0  0  0  0  0
    0.3045   -0.9282    0.0891 C   0  0  0  0  0  0  0  0  0  0  0  0
    1.5754   -0.1940    0.2397 C   0  0  0  0  0  0  0  0  0  0  0  0
    2.6652   -0.7186    0.3208 O   0  0  0  0  0  0  0  0  0  0  0  0
   -1.1513   -0.1912   -2.1909 H   0  0  0  0  0  0  0  0  0  0  0  0
   -2.1745    1.0174   -1.3785 H   0  0  0  0  0  0  0  0  0  0  0  0
   -0.4231    1.2622   -1.4782 H   0  0  0  0  0  0  0  0  0  0  0  0
   -1.0855    0.3590    1.8412 H   0  0  0  0  0  0  0  0  0  0  0  0
   -2.4108   -1.4193    1.1675 H   0  0  0  0  0  0  0  0  0  0  0  0
   -2.9229   -1.3025   -0.5111 H   0  0  0  0  0  0  0  0  0  0  0  0
   -1.5048   -3.5346    0.5130 H   0  0  0  0  0  0  0  0  0  0  0  0
   -1.3987   -3.0695   -1.1713 H   0  0  0  0  0  0  0  0  0  0  0  0
    1.0304   -2.9429    0.0620 H   0  0  0  0  0  0  0  0  0  0  0  0
    1.4694    0.9103    0.2887 H   0  0  0  0  0  0  0  0  0  0  0  0
  1  2  1  0  0  0  0
  2  7  1  0  0  0  0
  2  4  1  0  0  0  0
  2  3  1  1  0  0  0
  3 13  1  0  0  0  0
  4 14  1  0  0  0  0
  5  6  1  0  0  0  0
  5  4  1  0  0  0  0
  5 16  1  0  0  0  0
  6 18  1  0  0  0  0
  6  7  2  0  0  0  0
  7  8  1  0  0  0  0
  8 19  1  0  0  0  0
  8  9  2  0  0  0  0
 10  1  1  0  0  0  0
 11  1  1  0  0  0  0
 12  1  1  0  0  0  0
 15  4  1  0  0  0  0
 17  5  1  0  0  0  0
M TOR 0 0 1 2 12
M TOR 1 0 1 3 4
M TOR 2 0 1 3 13
M TOR 3 0 1 3 14
M TOR 4 0 1 6 5
M TOR 5 0 1 6 7
M TOR 6 1 3 4 5
M TOR 7 1 3 4 15
M TOR 8 1 3 4 16
M TOR 9 1 6 5 4
M TOR 10 1 6 5 17
M TOR 11 1 6 7 8
M TOR 12 1 6 7 18
M TOR 13 2 1 0 9
M TOR 14 2 1 0 10
M TOR 15 2 1 0 11
M TOR 16 2 1 3 4
M TOR 17 2 1 3 13
M TOR 18 2 1 3 14
M TOR 19 2 1 6 5
M TOR 20 2 1 6 7
M TOR 21 3 1 0 9
M TOR 22 3 1 0 10
M TOR 23 3 1 0 11
M TOR 24 3 1 2 12
M TOR 25 3 1 6 5
M TOR 26 3 1 6 7
M TOR 27 3 4 5 6
M TOR 28 3 4 5 17
M TOR 29 4 3 1 6
M TOR 30 4 5 6 7
M TOR 31 5 4 3 13
M TOR 32 5 4 3 14
M TOR 33 5 6 7 8
M TOR 34 5 6 7 18
M TOR 35 6 1 0 9
M TOR 36 6 1 0 10
M TOR 37 6 1 0 11
M TOR 38 6 1 2 12
M TOR 39 6 1 3 13
M TOR 40 6 1 3 14
M TOR 41 6 5 4 15
M TOR 42 6 5 4 16
M TOR 43 7 6 5 17
M  END
$$$$
