
     RDKit          3D

 19 19  0  0  0  0  0  0  0  0999 V2000
    0.2058   -1.5948    0.1216 O   0  0  0  0  0  0  0  0  0  0  0  0
    0.1806   -0.3936    0.0567 C   0  0  0  0  0  0  0  0  0  0  0  0
   -1.1136    0.4353    0.0253 C   0  0  0  0  0  0  0  0  0  0  0  0
   -1.0025    1.6388   -0.0385 O   0  0  0  0  0  0  0  0  0  0  0  0
   -2.4217   -0.3155    0.0402 C   0  0  0  0  0  0  0  0  0  0  0  0
   -2.7726   -0.8322   -1.3644 C   0  0  0  0  0  0  0  0  0  0  0  0
   -3.0947    0.1913   -2.4900 C   0  0  0  0  0  0  0  0  0  0  0  0
   -4.2202   -0.7628   -2.9742 C   0  0  0  0  0  0  0  0  0  0  0  0
   -4.1791   -1.4564   -1.5856 C   0  0  0  0  0  0  0  0  0  0  0  0
    1.0933    0.2385    0.0172 H   0  0  0  0  0  0  0  0  0  0  0  0
   -2.3421   -1.1669    0.7248 H   0  0  0  0  0  0  0  0  0  0  0  0
   -3.1999    0.3666    0.3945 H   0  0  0  0  0  0  0  0  0  0  0  0
   -1.9993   -1.5320   -1.6964 H   0  0  0  0  0  0  0  0  0  0  0  0
   -3.4991    1.1206   -2.0766 H   0  0  0  0  0  0  0  0  0  0  0  0
   -2.2980    0.4457   -3.1930 H   0  0  0  0  0  0  0  0  0  0  0  0
   -5.1651   -0.3129   -3.2862 H   0  0  0  0  0  0  0  0  0  0  0  0
   -3.8734   -1.4284   -3.7696 H   0  0  0  0  0  0  0  0  0  0  0  0
   -4.9164   -1.0271   -0.8994 H   0  0  0  0  0  0  0  0  0  0  0  0
   -4.2608   -2.5452   -1.5477 H   0  0  0  0  0  0  0  0  0  0  0  0
  1  2  2  0
  2  3  1  0
  3  4  2  0
  3  5  1  0
  5  6  1  0
  6  7  1  0
  7  8  1  0
  8  9  1  0
  9  6  1  0
  2 10  1  0
  5 11  1  0
  5 12  1  0
  6 13  1  0
  7 14  1  0
  7 15  1  0
  8 16  1  0
  8 17  1  0
  9 18  1  0
  9 19  1  0
M  END
$$$$
