gdb 3498	2.9295794	1.2984926	0.963376	2.7223	76.35	-0.24252	0.01766	0.26018	1217.7174	0.15741	-422.545016	-422.536661	-422.535717	-422.57831	31.601
 OpenBabel02181911413D

 19 20  0  0  1  0  0  0  0  0999 V2000
    2.9572    1.4179   -2.8053 O   0  0  0  0  0  0  0  0  0  0  0  0
    2.4221    1.0542   -1.5460 C   0  0  2  0  0  0  0  0  0  0  0  0
    2.6236    2.1276   -0.5075 C   0  0  0  0  0  0  0  0  0  0  0  0
    2.9879    1.6130    0.6653 C   0  0  0  0  0  0  0  0  0  0  0  0
    3.1309    0.1070    0.6101 C   0  0  0  0  0  0  0  0  0  0  0  0
    3.1416   -0.1691   -0.9127 C   0  0  1  0  0  0  0  0  0  0  0  0
    2.5486   -1.4765   -1.3659 C   0  0  2  0  0  0  0  0  0  0  0  0
    3.3518   -2.5543   -1.9556 C   0  0  0  0  0  0  0  0  0  0  0  0
    2.5793   -1.6863   -2.7912 O   0  0  0  0  0  0  0  0  0  0  0  0
    2.8761    0.6383   -3.3685 H   0  0  0  0  0  0  0  0  0  0  0  0
    1.3409    0.8455   -1.6512 H   0  0  0  0  0  0  0  0  0  0  0  0
    2.4293    3.1721   -0.7202 H   0  0  0  0  0  0  0  0  0  0  0  0
    3.1354    2.1765    1.5800 H   0  0  0  0  0  0  0  0  0  0  0  0
    4.0308   -0.2615    1.1150 H   0  0  0  0  0  0  0  0  0  0  0  0
    2.2788   -0.3843    1.1032 H   0  0  0  0  0  0  0  0  0  0  0  0
    4.1746   -0.1052   -1.2734 H   0  0  0  0  0  0  0  0  0  0  0  0
    1.5925   -1.7471   -0.9132 H   0  0  0  0  0  0  0  0  0  0  0  0
    4.4317   -2.4342   -2.0296 H   0  0  0  0  0  0  0  0  0  0  0  0
    3.0004   -3.5840   -1.9119 H   0  0  0  0  0  0  0  0  0  0  0  0
  1  2  1  0  0  0  0
  2 11  1  6  0  0  0
  2  6  1  0  0  0  0
  2  3  1  0  0  0  0
  3  4  2  0  0  0  0
  4 13  1  0  0  0  0
  5  4  1  0  0  0  0
  5 15  1  0  0  0  0
  5 14  1  0  0  0  0
  6 16  1  6  0  0  0
  6  5  1  0  0  0  0
  7 17  1  1  0  0  0
  7  6  1  0  0  0  0
  8 19  1  0  0  0  0
  8  7  1  0  0  0  0
  9  8  1  0  0  0  0
  9  7  1  0  0  0  0
 10  1  1  0  0  0  0
 12  3  1  0  0  0  0
 18  8  1  0  0  0  0
M TOR 0 0 1 2 3
M TOR 1 0 1 2 11
M TOR 2 0 1 5 4
M TOR 3 0 1 5 6
M TOR 4 0 1 5 15
M TOR 5 1 2 3 4
M TOR 6 1 2 3 12
M TOR 7 1 5 4 3
M TOR 8 1 5 4 13
M TOR 9 1 5 4 14
M TOR 10 1 5 6 7
M TOR 11 1 5 6 8
M TOR 12 1 5 6 16
M TOR 13 2 1 0 9
M TOR 14 2 1 5 4
M TOR 15 2 1 5 6
M TOR 16 2 1 5 15
M TOR 17 2 3 4 5
M TOR 18 2 3 4 13
M TOR 19 2 3 4 14
M TOR 20 3 2 1 5
M TOR 21 3 2 1 10
M TOR 22 3 4 5 6
M TOR 23 3 4 5 15
M TOR 24 4 3 2 11
M TOR 25 4 5 1 10
M TOR 26 4 5 6 7
M TOR 27 4 5 6 8
M TOR 28 4 5 6 16
M TOR 29 5 1 0 9
M TOR 30 5 1 2 11
M TOR 31 5 4 3 12
M TOR 32 5 6 7 8
M TOR 33 5 6 7 17
M TOR 34 5 6 7 18
M TOR 35 6 5 1 10
M TOR 36 6 5 4 13
M TOR 37 6 5 4 14
M TOR 38 6 8 7 17
M TOR 39 6 8 7 18
M TOR 40 7 6 5 15
M TOR 41 7 8 6 16
M TOR 42 8 6 5 15
M  END
$$$$
