gdb 637	2.2174817	1.7949028	1.1397378	2.2593	79.16	-0.23974	-0.02382	0.21592	1090.9001	0.158647	-422.534709	-422.526633	-422.525689	-422.567153	30.942
 OpenBabel02181911403D

 19 19  0  0  0  0  0  0  0  0999 V2000
    0.0021    1.4316   -0.0540 C   0  0  0  0  0  0  0  0  0  0  0  0
    1.2917    1.9772   -0.0496 O   0  0  0  0  0  0  0  0  0  0  0  0
    2.1275    1.5440    1.0211 C   0  0  0  0  0  0  0  0  0  0  0  0
    1.5724    1.8040    2.3977 C   0  0  0  0  0  0  0  0  0  0  0  0
    1.2139    0.8520    3.2674 C   0  0  0  0  0  0  0  0  0  0  0  0
    1.2163   -0.5975    3.0049 C   0  0  0  0  0  0  0  0  0  0  0  0
    0.4981   -1.2290    2.0694 C   0  0  0  0  0  0  0  0  0  0  0  0
   -0.5341   -0.5840    1.1716 C   0  0  0  0  0  0  0  0  0  0  0  0
   -0.0081    0.0262   -0.0118 O   0  0  0  0  0  0  0  0  0  0  0  0
   -0.5985    1.8279    0.7807 H   0  0  0  0  0  0  0  0  0  0  0  0
   -0.4301    1.7563   -1.0066 H   0  0  0  0  0  0  0  0  0  0  0  0
    2.3569    0.4803    0.9059 H   0  0  0  0  0  0  0  0  0  0  0  0
    3.0542    2.1127    0.8894 H   0  0  0  0  0  0  0  0  0  0  0  0
    1.5164    2.8461    2.7060 H   0  0  0  0  0  0  0  0  0  0  0  0
    0.9385    1.1506    4.2795 H   0  0  0  0  0  0  0  0  0  0  0  0
    1.8482   -1.1961    3.6616 H   0  0  0  0  0  0  0  0  0  0  0  0
    0.6144   -2.3056    1.9710 H   0  0  0  0  0  0  0  0  0  0  0  0
   -1.2411   -1.3508    0.8365 H   0  0  0  0  0  0  0  0  0  0  0  0
   -1.1011    0.1612    1.7437 H   0  0  0  0  0  0  0  0  0  0  0  0
  1  2  1  0  0  0  0
  1  9  1  0  0  0  0
  1 10  1  0  0  0  0
  2  3  1  0  0  0  0
  3  4  1  0  0  0  0
  4 14  1  0  0  0  0
  4  5  2  0  0  0  0
  5 15  1  0  0  0  0
  6  5  1  0  0  0  0
  6 16  1  0  0  0  0
  7  6  2  0  0  0  0
  8 19  1  0  0  0  0
  8  7  1  0  0  0  0
  9  8  1  0  0  0  0
 11  1  1  0  0  0  0
 12  3  1  0  0  0  0
 13  3  1  0  0  0  0
 17  7  1  0  0  0  0
 18  8  1  0  0  0  0
M TOR 0 0 1 2 3
M TOR 1 0 1 2 11
M TOR 2 0 1 2 12
M TOR 3 0 8 7 6
M TOR 4 0 8 7 17
M TOR 5 0 8 7 18
M TOR 6 1 0 8 7
M TOR 7 1 2 3 4
M TOR 8 1 2 3 13
M TOR 9 2 1 0 8
M TOR 10 2 1 0 9
M TOR 11 2 1 0 10
M TOR 12 2 3 4 5
M TOR 13 2 3 4 14
M TOR 14 3 4 5 6
M TOR 15 3 4 5 15
M TOR 16 4 3 2 11
M TOR 17 4 3 2 12
M TOR 18 4 5 6 7
M TOR 19 4 5 6 16
M TOR 20 5 4 3 13
M TOR 21 5 6 7 8
M TOR 22 5 6 7 17
M TOR 23 5 6 7 18
M TOR 24 6 5 4 14
M TOR 25 7 6 5 15
M TOR 26 7 8 0 9
M TOR 27 7 8 0 10
M TOR 28 8 7 6 16
M  END
$$$$
