
     RDKit          3D

 19 20  0  0  0  0  0  0  0  0999 V2000
    0.9906   -2.6042   -1.0450 C   0  0  0  0  0  0  0  0  0  0  0  0
    1.2750   -1.7463   -2.1560 O   0  0  0  0  0  0  0  0  0  0  0  0
    1.1043   -0.3637   -1.8945 C   0  0  0  0  0  0  0  0  0  0  0  0
    1.8399    0.0520   -0.6411 C   0  0  0  0  0  0  0  0  0  0  0  0
    1.4483    1.2617    0.0017 O   0  0  0  0  0  0  0  0  0  0  0  0
    1.1900    0.0222    0.6803 C   0  0  0  0  0  0  0  0  0  0  0  0
   -0.2775   -0.3108    0.9201 C   0  0  0  0  0  0  0  0  0  0  0  0
   -0.9038   -1.5417    0.3094 C   0  0  0  0  0  0  0  0  0  0  0  0
   -0.4131   -2.4820   -0.5015 C   0  0  0  0  0  0  0  0  0  0  0  0
    1.1445   -3.6119   -1.4387 H   0  0  0  0  0  0  0  0  0  0  0  0
    1.7297   -2.4506   -0.2486 H   0  0  0  0  0  0  0  0  0  0  0  0
    1.5136    0.1522   -2.7689 H   0  0  0  0  0  0  0  0  0  0  0  0
    0.0440   -0.0924   -1.8078 H   0  0  0  0  0  0  0  0  0  0  0  0
    2.9190   -0.1126   -0.6755 H   0  0  0  0  0  0  0  0  0  0  0  0
    1.8451   -0.1409    1.5365 H   0  0  0  0  0  0  0  0  0  0  0  0
   -0.4471   -0.3503    2.0047 H   0  0  0  0  0  0  0  0  0  0  0  0
   -0.8599    0.5562    0.5807 H   0  0  0  0  0  0  0  0  0  0  0  0
   -1.9569   -1.6314    0.5764 H   0  0  0  0  0  0  0  0  0  0  0  0
   -1.1092   -3.2457   -0.8405 H   0  0  0  0  0  0  0  0  0  0  0  0
  1  2  1  0
  2  3  1  0
  3  4  1  0
  4  5  1  0
  5  6  1  0
  6  7  1  0
  7  8  1  0
  8  9  2  0
  9  1  1  0
  6  4  1  0
  1 10  1  0
  1 11  1  0
  3 12  1  0
  3 13  1  0
  4 14  1  0
  6 15  1  0
  7 16  1  0
  7 17  1  0
  8 18  1  0
  9 19  1  0
M  END
$$$$
