gdb 1223	2.3470148	1.1407639	0.9977721	2.1449	77.83	-0.26676	0.00985	0.27661	1300.3917	0.153183	-422.555964	-422.545492	-422.544548	-422.592198	37.109
 OpenBabel02181911403D

 19 18  0  0  0  0  0  0  0  0999 V2000
   -1.8766    1.9485   -1.4846 C   0  0  0  0  0  0  0  0  0  0  0  0
   -1.7953    1.5260   -0.0011 C   0  0  0  0  0  0  0  0  0  0  0  0
   -2.5822    2.5226    0.8802 C   0  0  0  0  0  0  0  0  0  0  0  0
   -0.3284    1.5352    0.4777 C   0  0  0  0  0  0  0  0  0  0  0  0
    0.4607    0.6475   -0.3340 O   0  0  0  0  0  0  0  0  0  0  0  0
    1.1721   -0.3048    0.2927 C   0  0  0  0  0  0  0  0  0  0  0  0
    1.2687   -0.4706    1.4759 O   0  0  0  0  0  0  0  0  0  0  0  0
   -2.3506    0.1788    0.1642 C   0  0  0  0  0  0  0  0  0  0  0  0
   -2.8113   -0.9227    0.3023 C   0  0  0  0  0  0  0  0  0  0  0  0
   -1.2940    1.2718   -2.1122 H   0  0  0  0  0  0  0  0  0  0  0  0
   -2.9139    1.9350   -1.8286 H   0  0  0  0  0  0  0  0  0  0  0  0
   -1.4844    2.9637   -1.6083 H   0  0  0  0  0  0  0  0  0  0  0  0
   -2.5435    2.2345    1.9343 H   0  0  0  0  0  0  0  0  0  0  0  0
   -2.1675    3.5311    0.7781 H   0  0  0  0  0  0  0  0  0  0  0  0
   -3.6310    2.5511    0.5746 H   0  0  0  0  0  0  0  0  0  0  0  0
    0.0915    2.5393    0.3560 H   0  0  0  0  0  0  0  0  0  0  0  0
   -0.2490    1.2304    1.5221 H   0  0  0  0  0  0  0  0  0  0  0  0
    1.6716   -0.9169   -0.4734 H   0  0  0  0  0  0  0  0  0  0  0  0
   -3.2151   -1.8969    0.4286 H   0  0  0  0  0  0  0  0  0  0  0  0
  1  2  1  0  0  0  0
  2  8  1  0  0  0  0
  2  4  1  0  0  0  0
  2  3  1  0  0  0  0
  3 13  1  0  0  0  0
  4 17  1  0  0  0  0
  5  6  1  0  0  0  0
  5  4  1  0  0  0  0
  6  7  2  0  0  0  0
  8  9  3  0  0  0  0
  9 19  1  0  0  0  0
 10  1  1  0  0  0  0
 11  1  1  0  0  0  0
 12  1  1  0  0  0  0
 14  3  1  0  0  0  0
 15  3  1  0  0  0  0
 16  4  1  0  0  0  0
 18  6  1  0  0  0  0
M TOR 0 0 1 2 12
M TOR 1 0 1 2 13
M TOR 2 0 1 2 14
M TOR 3 0 1 3 4
M TOR 4 0 1 3 15
M TOR 5 0 1 3 16
M TOR 6 0 1 7 8
M TOR 7 1 3 4 5
M TOR 8 1 7 8 18
M TOR 9 2 1 0 9
M TOR 10 2 1 0 10
M TOR 11 2 1 0 11
M TOR 12 2 1 3 4
M TOR 13 2 1 3 15
M TOR 14 2 1 3 16
M TOR 15 2 1 7 8
M TOR 16 3 1 0 9
M TOR 17 3 1 0 10
M TOR 18 3 1 0 11
M TOR 19 3 1 2 12
M TOR 20 3 1 2 13
M TOR 21 3 1 2 14
M TOR 22 3 1 7 8
M TOR 23 3 4 5 6
M TOR 24 3 4 5 17
M TOR 25 4 3 1 7
M TOR 26 5 4 3 15
M TOR 27 5 4 3 16
M TOR 28 7 1 0 9
M TOR 29 7 1 0 10
M TOR 30 7 1 0 11
M TOR 31 7 1 2 12
M TOR 32 7 1 2 13
M TOR 33 7 1 2 14
M TOR 34 7 1 3 15
M TOR 35 7 1 3 16
M  END
$$$$
