gdb 1252	2.2995229	1.0600993	0.7623891	3.9525	78.36	-0.24665	-0.01766	0.22899	1472.8501	0.152143	-422.538815	-422.527979	-422.527035	-422.575433	37.85
 OpenBabel02181911403D

 19 18  0  0  1  0  0  0  0  0999 V2000
    2.7404    0.2942    2.5917 C   0  0  0  0  0  0  0  0  0  0  0  0
    3.1081   -0.5506    1.3743 C   0  0  2  0  0  0  0  0  0  0  0  0
    4.5134   -0.5374    1.1432 O   0  0  0  0  0  0  0  0  0  0  0  0
    2.4735   -0.0239    0.0656 C   0  0  1  0  0  0  0  0  0  0  0  0
    2.9093   -0.8742   -1.1512 C   0  0  0  0  0  0  0  0  0  0  0  0
    2.5083   -0.2529   -2.4697 C   0  0  0  0  0  0  0  0  0  0  0  0
    2.0633   -0.8584   -3.4091 O   0  0  0  0  0  0  0  0  0  0  0  0
    1.0169    0.0383    0.1580 C   0  0  0  0  0  0  0  0  0  0  0  0
   -0.1841    0.0629    0.2055 C   0  0  0  0  0  0  0  0  0  0  0  0
    3.2169   -0.1088    3.4924 H   0  0  0  0  0  0  0  0  0  0  0  0
    3.0825    1.3254    2.4567 H   0  0  0  0  0  0  0  0  0  0  0  0
    1.6601    0.2993    2.7552 H   0  0  0  0  0  0  0  0  0  0  0  0
    2.7563   -1.5835    1.5270 H   0  0  0  0  0  0  0  0  0  0  0  0
    4.9518   -0.8399    1.9442 H   0  0  0  0  0  0  0  0  0  0  0  0
    2.8626    0.9952   -0.0766 H   0  0  0  0  0  0  0  0  0  0  0  0
    4.0041   -0.9395   -1.1318 H   0  0  0  0  0  0  0  0  0  0  0  0
    2.5024   -1.8875   -1.0976 H   0  0  0  0  0  0  0  0  0  0  0  0
    2.6827    0.8482   -2.5286 H   0  0  0  0  0  0  0  0  0  0  0  0
   -1.2449    0.0954    0.2452 H   0  0  0  0  0  0  0  0  0  0  0  0
  1 12  1  0  0  0  0
  1 10  1  0  0  0  0
  2 13  1  1  0  0  0
  2  1  1  0  0  0  0
  3  2  1  0  0  0  0
  3 14  1  0  0  0  0
  4 15  1  6  0  0  0
  4  8  1  0  0  0  0
  4  2  1  0  0  0  0
  5 16  1  0  0  0  0
  5 17  1  0  0  0  0
  5  4  1  0  0  0  0
  6  5  1  0  0  0  0
  7  6  2  0  0  0  0
  8  9  3  0  0  0  0
  9 19  1  0  0  0  0
 11  1  1  0  0  0  0
 18  6  1  0  0  0  0
M TOR 0 0 1 2 13
M TOR 1 0 1 3 4
M TOR 2 0 1 3 7
M TOR 3 0 1 3 14
M TOR 4 1 3 4 5
M TOR 5 1 3 4 15
M TOR 6 1 3 4 16
M TOR 7 1 3 7 8
M TOR 8 2 1 0 9
M TOR 9 2 1 0 10
M TOR 10 2 1 0 11
M TOR 11 2 1 3 4
M TOR 12 2 1 3 7
M TOR 13 2 1 3 14
M TOR 14 3 1 0 9
M TOR 15 3 1 0 10
M TOR 16 3 1 0 11
M TOR 17 3 1 2 13
M TOR 18 3 4 5 6
M TOR 19 3 4 5 17
M TOR 20 3 7 8 18
M TOR 21 4 3 1 12
M TOR 22 4 3 7 8
M TOR 23 5 4 3 7
M TOR 24 5 4 3 14
M TOR 25 6 5 4 15
M TOR 26 6 5 4 16
M TOR 27 7 3 1 12
M TOR 28 7 3 4 15
M TOR 29 7 3 4 16
M TOR 30 8 7 3 14
M  END
$$$$
