
     RDKit          3D

 19 18  0  0  0  0  0  0  0  0999 V2000
   -5.2287   -2.7229   -0.6758 C   0  0  0  0  0  0  0  0  0  0  0  0
   -4.6334   -1.3456   -0.3867 C   0  0  0  0  0  0  0  0  0  0  0  0
   -4.9737   -0.4068   -1.4056 O   0  0  0  0  0  0  0  0  0  0  0  0
   -3.1074   -1.3794   -0.3249 C   0  0  0  0  0  0  0  0  0  0  0  0
   -2.5058    0.0088   -0.0288 C   0  0  0  0  0  0  0  0  0  0  0  0
   -1.0532    0.0073    0.0207 C   0  0  0  0  0  0  0  0  0  0  0  0
    0.1546   -0.0306    0.0511 C   0  0  0  0  0  0  0  0  0  0  0  0
    1.5915   -0.0246    0.1046 C   0  0  0  0  0  0  0  0  0  0  0  0
    2.2980   -0.9594   -0.1998 O   0  0  0  0  0  0  0  0  0  0  0  0
   -4.9619   -3.4405    0.1068 H   0  0  0  0  0  0  0  0  0  0  0  0
   -6.3226   -2.6717   -0.7196 H   0  0  0  0  0  0  0  0  0  0  0  0
   -4.8663   -3.1016   -1.6366 H   0  0  0  0  0  0  0  0  0  0  0  0
   -5.0141   -0.9908    0.5872 H   0  0  0  0  0  0  0  0  0  0  0  0
   -5.9328   -0.3623   -1.4666 H   0  0  0  0  0  0  0  0  0  0  0  0
   -2.7921   -2.0910    0.4449 H   0  0  0  0  0  0  0  0  0  0  0  0
   -2.7194   -1.7431   -1.2826 H   0  0  0  0  0  0  0  0  0  0  0  0
   -2.8447    0.7135   -0.7964 H   0  0  0  0  0  0  0  0  0  0  0  0
   -2.8959    0.3912    0.9245 H   0  0  0  0  0  0  0  0  0  0  0  0
    2.0267    0.9331    0.4582 H   0  0  0  0  0  0  0  0  0  0  0  0
  1  2  1  0
  2  3  1  0
  2  4  1  0
  4  5  1  0
  5  6  1  0
  6  7  3  0
  7  8  1  0
  8  9  2  0
  1 10  1  0
  1 11  1  0
  1 12  1  0
  2 13  1  0
  3 14  1  0
  4 15  1  0
  4 16  1  0
  5 17  1  0
  5 18  1  0
  8 19  1  0
M  END
$$$$
