
     RDKit          3D

 19 21  0  0  0  0  0  0  0  0999 V2000
    0.0695    0.3597   -0.0777 C   0  0  0  0  0  0  0  0  0  0  0  0
    0.9913   -0.8316   -0.0717 C   0  0  0  0  0  0  0  0  0  0  0  0
    2.1905   -0.7166    0.7250 O   0  0  0  0  0  0  0  0  0  0  0  0
    2.3244   -0.8171   -0.6819 C   0  0  0  0  0  0  0  0  0  0  0  0
    3.0711    0.2635   -1.4923 C   0  0  0  0  0  0  0  0  0  0  0  0
    3.8742   -0.8564   -2.1740 C   0  0  0  0  0  0  0  0  0  0  0  0
    2.9593   -1.8397   -2.8368 C   0  0  0  0  0  0  0  0  0  0  0  0
    3.5051   -2.8547   -3.6269 O   0  0  0  0  0  0  0  0  0  0  0  0
    3.1202   -1.9235   -1.3374 C   0  0  0  0  0  0  0  0  0  0  0  0
   -0.4748    0.4316    0.8699 H   0  0  0  0  0  0  0  0  0  0  0  0
    0.6290    1.2877   -0.2208 H   0  0  0  0  0  0  0  0  0  0  0  0
   -0.6684    0.2682   -0.8822 H   0  0  0  0  0  0  0  0  0  0  0  0
    0.4999   -1.8017    0.0286 H   0  0  0  0  0  0  0  0  0  0  0  0
    2.4798    0.9135   -2.1464 H   0  0  0  0  0  0  0  0  0  0  0  0
    3.6810    0.8790   -0.8266 H   0  0  0  0  0  0  0  0  0  0  0  0
    4.9261   -0.8076   -2.4315 H   0  0  0  0  0  0  0  0  0  0  0  0
    2.0179   -1.5143   -3.2746 H   0  0  0  0  0  0  0  0  0  0  0  0
    4.3404   -3.1357   -3.2379 H   0  0  0  0  0  0  0  0  0  0  0  0
    3.4785   -2.8237   -0.8512 H   0  0  0  0  0  0  0  0  0  0  0  0
  1  2  1  0
  2  3  1  0
  3  4  1  0
  4  5  1  0
  5  6  1  0
  6  7  1  0
  7  8  1  0
  7  9  1  0
  4  2  1  0
  9  4  1  0
  9  6  1  0
  1 10  1  0
  1 11  1  0
  1 12  1  0
  2 13  1  0
  5 14  1  0
  5 15  1  0
  6 16  1  0
  7 17  1  0
  8 18  1  0
  9 19  1  0
M  END
$$$$
