gdb 1336	3.0469043	0.9832541	0.8957004	1.9061	79.46	-0.23184	-0.03193	0.19990999999999998	1366.7125	0.155274	-422.565108	-422.555602	-422.554658	-422.600878	32.913
 OpenBabel02181911403D

 19 19  0  0  1  0  0  0  0  0999 V2000
   -2.9829    0.8976    1.5035 C   0  0  0  0  0  0  0  0  0  0  0  0
   -1.9809    1.5652    0.5370 C   0  0  1  0  0  0  0  0  0  0  0  0
   -2.5956    2.8571    0.0047 C   0  0  0  0  0  0  0  0  0  0  0  0
   -2.9218    3.0356   -1.1384 O   0  0  0  0  0  0  0  0  0  0  0  0
   -0.6518    1.8594    1.1813 C   0  0  0  0  0  0  0  0  0  0  0  0
    0.5589    1.5933    0.6953 C   0  0  0  0  0  0  0  0  0  0  0  0
    1.6192    2.0593    1.6482 C   0  0  0  0  0  0  0  0  0  0  0  0
    0.9095    2.6499    2.7351 O   0  0  0  0  0  0  0  0  0  0  0  0
   -0.4918    2.5347    2.5263 C   0  0  0  0  0  0  0  0  0  0  0  0
   -3.2533    1.5654    2.3284 H   0  0  0  0  0  0  0  0  0  0  0  0
   -3.9009    0.6263    0.9749 H   0  0  0  0  0  0  0  0  0  0  0  0
   -2.5503   -0.0101    1.9332 H   0  0  0  0  0  0  0  0  0  0  0  0
   -1.8249    0.9207   -0.3330 H   0  0  0  0  0  0  0  0  0  0  0  0
   -2.7423    3.6493    0.7756 H   0  0  0  0  0  0  0  0  0  0  0  0
    0.7794    1.1069   -0.2470 H   0  0  0  0  0  0  0  0  0  0  0  0
    2.2494    1.2324    2.0140 H   0  0  0  0  0  0  0  0  0  0  0  0
    2.2949    2.8036    1.1981 H   0  0  0  0  0  0  0  0  0  0  0  0
   -0.9462    1.9479    3.3408 H   0  0  0  0  0  0  0  0  0  0  0  0
   -0.9534    3.5348    2.5593 H   0  0  0  0  0  0  0  0  0  0  0  0
  1 12  1  0  0  0  0
  1 10  1  0  0  0  0
  2 13  1  6  0  0  0
  2  5  1  0  0  0  0
  2  1  1  0  0  0  0
  3  2  1  0  0  0  0
  3 14  1  0  0  0  0
  4  3  2  0  0  0  0
  5  9  1  0  0  0  0
  6  5  2  0  0  0  0
  6  7  1  0  0  0  0
  7 16  1  0  0  0  0
  7  8  1  0  0  0  0
  9 19  1  0  0  0  0
  9  8  1  0  0  0  0
  9 18  1  0  0  0  0
 11  1  1  0  0  0  0
 15  6  1  0  0  0  0
 17  7  1  0  0  0  0
M TOR 0 0 1 2 3
M TOR 1 0 1 2 13
M TOR 2 0 1 4 5
M TOR 3 0 1 4 8
M TOR 4 1 4 5 6
M TOR 5 1 4 5 14
M TOR 6 1 4 8 7
M TOR 7 1 4 8 17
M TOR 8 1 4 8 18
M TOR 9 2 1 0 9
M TOR 10 2 1 0 10
M TOR 11 2 1 0 11
M TOR 12 2 1 4 5
M TOR 13 2 1 4 8
M TOR 14 3 2 1 4
M TOR 15 3 2 1 12
M TOR 16 4 1 0 9
M TOR 17 4 1 0 10
M TOR 18 4 1 0 11
M TOR 19 4 1 2 13
M TOR 20 4 5 6 7
M TOR 21 4 5 6 15
M TOR 22 4 5 6 16
M TOR 23 4 8 7 6
M TOR 24 5 4 1 12
M TOR 25 5 4 8 7
M TOR 26 5 4 8 17
M TOR 27 5 4 8 18
M TOR 28 5 6 7 8
M TOR 29 6 5 4 8
M TOR 30 6 7 8 17
M TOR 31 6 7 8 18
M TOR 32 7 6 5 14
M TOR 33 8 4 1 12
M TOR 34 8 4 5 14
M TOR 35 8 7 6 15
M TOR 36 8 7 6 16
M  END
$$$$
