gdb 1377	3.2358996	0.8525614	0.7005019	2.3797	78.87	-0.2452	-0.0165	0.22870000000000001	1582.6591	0.151525	-422.526495	-422.515549	-422.514605	-422.564043	37.636
 OpenBabel02181911403D

 19 18  0  0  1  0  0  0  0  0999 V2000
    1.5453    0.1877   -3.1630 C   0  0  0  0  0  0  0  0  0  0  0  0
    0.6686    0.9834   -2.1950 C   0  0  1  0  0  0  0  0  0  0  0  0
    0.0512    0.1857   -1.1975 O   0  0  0  0  0  0  0  0  0  0  0  0
   -1.0203   -0.6147   -1.6661 C   0  0  0  0  0  0  0  0  0  0  0  0
   -1.7057   -1.2259   -0.5350 C   0  0  0  0  0  0  0  0  0  0  0  0
   -2.2866   -1.7435    0.3794 C   0  0  0  0  0  0  0  0  0  0  0  0
    1.4735    2.0925   -1.4893 C   0  0  0  0  0  0  0  0  0  0  0  0
    1.1434    2.3804   -0.0430 C   0  0  0  0  0  0  0  0  0  0  0  0
    2.3080    2.7112   -2.1079 O   0  0  0  0  0  0  0  0  0  0  0  0
    2.2531   -0.4323   -2.6047 H   0  0  0  0  0  0  0  0  0  0  0  0
    0.9483   -0.4597   -3.8105 H   0  0  0  0  0  0  0  0  0  0  0  0
    2.1084    0.8843   -3.7866 H   0  0  0  0  0  0  0  0  0  0  0  0
   -0.1133    1.5155   -2.7694 H   0  0  0  0  0  0  0  0  0  0  0  0
   -1.7313    0.0014   -2.2428 H   0  0  0  0  0  0  0  0  0  0  0  0
   -0.6597   -1.4028   -2.3445 H   0  0  0  0  0  0  0  0  0  0  0  0
   -2.7977   -2.1985    1.1917 H   0  0  0  0  0  0  0  0  0  0  0  0
    1.3494    1.4970    0.5688 H   0  0  0  0  0  0  0  0  0  0  0  0
    1.7345    3.2300    0.3000 H   0  0  0  0  0  0  0  0  0  0  0  0
    0.0742    2.5843    0.0733 H   0  0  0  0  0  0  0  0  0  0  0  0
  1 10  1  0  0  0  0
  1  2  1  0  0  0  0
  2 13  1  6  0  0  0
  2  7  1  0  0  0  0
  2  3  1  0  0  0  0
  4  3  1  0  0  0  0
  4  5  1  0  0  0  0
  5  6  3  0  0  0  0
  6 16  1  0  0  0  0
  7  8  1  0  0  0  0
  8 19  1  0  0  0  0
  8 18  1  0  0  0  0
  8 17  1  0  0  0  0
  9  7  2  0  0  0  0
 11  1  1  0  0  0  0
 12  1  1  0  0  0  0
 14  4  1  0  0  0  0
 15  4  1  0  0  0  0
M TOR 0 0 1 2 3
M TOR 1 0 1 6 7
M TOR 2 0 1 6 8
M TOR 3 1 2 3 4
M TOR 4 1 2 3 13
M TOR 5 1 2 3 14
M TOR 6 1 6 7 16
M TOR 7 1 6 7 17
M TOR 8 1 6 7 18
M TOR 9 2 1 0 9
M TOR 10 2 1 0 10
M TOR 11 2 1 0 11
M TOR 12 2 1 6 7
M TOR 13 2 1 6 8
M TOR 14 2 3 4 5
M TOR 15 3 2 1 6
M TOR 16 3 2 1 12
M TOR 17 3 4 5 15
M TOR 18 5 4 3 13
M TOR 19 5 4 3 14
M TOR 20 6 1 0 9
M TOR 21 6 1 0 10
M TOR 22 6 1 0 11
M TOR 23 7 6 1 12
M TOR 24 8 6 1 12
M TOR 25 8 6 7 16
M TOR 26 8 6 7 17
M TOR 27 8 6 7 18
M  END
$$$$
