
     RDKit          3D

 19 19  0  0  0  0  0  0  0  0999 V2000
    3.6354   -3.6640   -1.1064 C   0  0  0  0  0  0  0  0  0  0  0  0
    3.4978   -2.6790    0.0639 C   0  0  0  0  0  0  0  0  0  0  0  0
    3.0513   -3.3331    1.2498 O   0  0  0  0  0  0  0  0  0  0  0  0
    2.6449   -1.5397   -0.2899 C   0  0  0  0  0  0  0  0  0  0  0  0
    1.9175   -0.6237   -0.5828 C   0  0  0  0  0  0  0  0  0  0  0  0
    1.0448    0.4819   -0.9354 C   0  0  0  0  0  0  0  0  0  0  0  0
   -0.4027    0.4710   -0.3672 C   0  0  0  0  0  0  0  0  0  0  0  0
   -0.0156    1.8254    0.2553 C   0  0  0  0  0  0  0  0  0  0  0  0
    1.3402    1.7159   -0.2286 O   0  0  0  0  0  0  0  0  0  0  0  0
    2.6547   -4.0571   -1.3937 H   0  0  0  0  0  0  0  0  0  0  0  0
    4.0739   -3.1729   -1.9800 H   0  0  0  0  0  0  0  0  0  0  0  0
    4.2741   -4.4981   -0.8049 H   0  0  0  0  0  0  0  0  0  0  0  0
    4.4942   -2.2999    0.3222 H   0  0  0  0  0  0  0  0  0  0  0  0
    2.1241   -3.5615    1.1204 H   0  0  0  0  0  0  0  0  0  0  0  0
    1.0819    0.6491   -2.0207 H   0  0  0  0  0  0  0  0  0  0  0  0
   -1.1968    0.4862   -1.1142 H   0  0  0  0  0  0  0  0  0  0  0  0
   -0.5875   -0.3282    0.3503 H   0  0  0  0  0  0  0  0  0  0  0  0
   -0.5290    2.6983   -0.1670 H   0  0  0  0  0  0  0  0  0  0  0  0
   -0.0545    1.8845    1.3487 H   0  0  0  0  0  0  0  0  0  0  0  0
  1  2  1  0
  2  3  1  0
  2  4  1  0
  4  5  3  0
  5  6  1  0
  6  7  1  0
  7  8  1  0
  8  9  1  0
  9  6  1  0
  1 10  1  0
  1 11  1  0
  1 12  1  0
  2 13  1  0
  3 14  1  0
  6 15  1  0
  7 16  1  0
  7 17  1  0
  8 18  1  0
  8 19  1  0
M  END
$$$$
