
     RDKit          3D

 19 21  0  0  0  0  0  0  0  0999 V2000
    0.9731    1.3771    0.6232 C   0  0  0  0  0  0  0  0  0  0  0  0
    1.6934    0.2412   -0.0429 C   0  0  0  0  0  0  0  0  0  0  0  0
    3.1773    0.2535   -0.4177 C   0  0  0  0  0  0  0  0  0  0  0  0
    3.3189   -1.1597   -0.1010 O   0  0  0  0  0  0  0  0  0  0  0  0
    1.9572   -1.2034    0.3161 C   0  0  0  0  0  0  0  0  0  0  0  0
    1.0402   -0.8873   -0.8396 C   0  0  0  0  0  0  0  0  0  0  0  0
   -0.4169   -1.1271   -0.6424 C   0  0  0  0  0  0  0  0  0  0  0  0
   -1.2197   -1.8803   -1.6135 C   0  0  0  0  0  0  0  0  0  0  0  0
   -1.3180   -0.4574   -1.5369 O   0  0  0  0  0  0  0  0  0  0  0  0
    1.5490    1.7651    1.4707 H   0  0  0  0  0  0  0  0  0  0  0  0
    0.8125    2.2026   -0.0802 H   0  0  0  0  0  0  0  0  0  0  0  0
   -0.0094    1.0771    0.9959 H   0  0  0  0  0  0  0  0  0  0  0  0
    3.4427    0.4785   -1.4577 H   0  0  0  0  0  0  0  0  0  0  0  0
    3.7887    0.8594    0.2617 H   0  0  0  0  0  0  0  0  0  0  0  0
    1.6999   -1.8242    1.1681 H   0  0  0  0  0  0  0  0  0  0  0  0
    1.4077   -1.0970   -1.8429 H   0  0  0  0  0  0  0  0  0  0  0  0
   -0.7589   -1.1318    0.3941 H   0  0  0  0  0  0  0  0  0  0  0  0
   -0.7425   -2.2687   -2.5126 H   0  0  0  0  0  0  0  0  0  0  0  0
   -2.0987   -2.4319   -1.2818 H   0  0  0  0  0  0  0  0  0  0  0  0
  1  2  1  0
  2  3  1  0
  3  4  1  0
  4  5  1  0
  5  6  1  0
  6  7  1  0
  7  8  1  0
  8  9  1  0
  5  2  1  0
  9  7  1  0
  6  2  1  0
  1 10  1  0
  1 11  1  0
  1 12  1  0
  3 13  1  0
  3 14  1  0
  5 15  1  0
  6 16  1  0
  7 17  1  0
  8 18  1  0
  8 19  1  0
M  END
$$$$
