gdb 1084	3.825868	1.0774408	0.9802224	1.9948	76.87	-0.24194	-0.01677	0.22516999999999998	1245.8321	0.155136	-422.537948	-422.528813	-422.527869	-422.572587	33.728
 OpenBabel02181911403D

 19 20  0  0  1  0  0  0  0  0999 V2000
    2.8987    0.6954   -0.6808 C   0  0  0  0  0  0  0  0  0  0  0  0
    1.4170    0.8119   -0.3715 C   0  0  0  0  0  0  0  0  0  0  0  0
    1.0052    1.0215    0.7479 O   0  0  0  0  0  0  0  0  0  0  0  0
    0.4750    0.6497   -1.5262 C   0  0  2  0  0  0  0  0  0  0  0  0
    0.4984    1.3912   -2.9073 C   0  0  0  0  0  0  0  0  0  0  0  0
   -0.7073    0.4265   -2.9514 C   0  0  2  0  0  0  0  0  0  0  0  0
   -1.5396    0.3247   -4.0469 O   0  0  0  0  0  0  0  0  0  0  0  0
   -1.0599    0.8700   -1.4972 C   0  0  0  0  0  0  0  0  0  0  0  0
    0.2191   -0.6701   -2.3343 C   0  0  0  0  0  0  0  0  0  0  0  0
    3.4732    0.7509    0.2445 H   0  0  0  0  0  0  0  0  0  0  0  0
    3.1145   -0.2450   -1.1991 H   0  0  0  0  0  0  0  0  0  0  0  0
    3.2064    1.5053   -1.3520 H   0  0  0  0  0  0  0  0  0  0  0  0
    0.2711    2.4598   -2.8827 H   0  0  0  0  0  0  0  0  0  0  0  0
    1.3319    1.1633   -3.5763 H   0  0  0  0  0  0  0  0  0  0  0  0
   -2.2793   -0.2488   -3.8189 H   0  0  0  0  0  0  0  0  0  0  0  0
   -1.3988    1.8997   -1.3644 H   0  0  0  0  0  0  0  0  0  0  0  0
   -1.6350    0.1693   -0.8868 H   0  0  0  0  0  0  0  0  0  0  0  0
   -0.2630   -1.4808   -1.7810 H   0  0  0  0  0  0  0  0  0  0  0  0
    1.0379   -1.0303   -2.9621 H   0  0  0  0  0  0  0  0  0  0  0  0
  1  2  1  0  0  0  0
  1 10  1  0  0  0  0
  2  3  2  0  0  0  0
  4  8  1  0  0  0  0
  4  2  1  1  0  0  0
  5 13  1  0  0  0  0
  5  4  1  0  0  0  0
  6  7  1  6  0  0  0
  6  5  1  0  0  0  0
  6  9  1  0  0  0  0
  6  8  1  0  0  0  0
  7 15  1  0  0  0  0
  8 16  1  0  0  0  0
  8 17  1  0  0  0  0
  9 18  1  0  0  0  0
  9  4  1  0  0  0  0
 11  1  1  0  0  0  0
 12  1  1  0  0  0  0
 14  5  1  0  0  0  0
 19  9  1  0  0  0  0
M TOR 0 0 1 3 4
M TOR 1 0 1 3 7
M TOR 2 0 1 3 8
M TOR 3 1 3 4 5
M TOR 4 1 3 4 12
M TOR 5 1 3 4 13
M TOR 6 1 3 7 5
M TOR 7 1 3 7 15
M TOR 8 1 3 7 16
M TOR 9 1 3 8 5
M TOR 10 1 3 8 17
M TOR 11 1 3 8 18
M TOR 12 2 1 0 9
M TOR 13 2 1 0 10
M TOR 14 2 1 0 11
M TOR 15 2 1 3 4
M TOR 16 2 1 3 7
M TOR 17 2 1 3 8
M TOR 18 3 1 0 9
M TOR 19 3 1 0 10
M TOR 20 3 1 0 11
M TOR 21 3 4 5 6
M TOR 22 3 4 5 7
M TOR 23 3 4 5 8
M TOR 24 3 7 5 6
M TOR 25 3 7 5 8
M TOR 26 3 8 5 6
M TOR 27 4 3 7 15
M TOR 28 4 3 7 16
M TOR 29 4 3 8 17
M TOR 30 4 3 8 18
M TOR 31 4 5 6 14
M TOR 32 4 5 7 15
M TOR 33 4 5 7 16
M TOR 34 4 5 8 17
M TOR 35 4 5 8 18
M TOR 36 6 5 4 12
M TOR 37 6 5 4 13
M TOR 38 6 5 7 15
M TOR 39 6 5 7 16
M TOR 40 6 5 8 17
M TOR 41 6 5 8 18
M TOR 42 7 3 4 12
M TOR 43 7 3 4 13
M TOR 44 7 3 8 17
M TOR 45 7 3 8 18
M TOR 46 7 5 4 12
M TOR 47 7 5 4 13
M TOR 48 7 5 6 14
M TOR 49 7 5 8 17
M TOR 50 7 5 8 18
M TOR 51 8 3 4 12
M TOR 52 8 3 4 13
M TOR 53 8 3 7 15
M TOR 54 8 3 7 16
M TOR 55 8 5 4 12
M TOR 56 8 5 4 13
M TOR 57 8 5 6 14
M TOR 58 8 5 7 15
M TOR 59 8 5 7 16
M  END
$$$$
