
     RDKit          3D

 19 21  0  0  0  0  0  0  0  0999 V2000
    0.4292   -0.1125    0.2961 O   0  0  0  0  0  0  0  0  0  0  0  0
   -0.7985    0.4123    0.7545 C   0  0  0  0  0  0  0  0  0  0  0  0
   -2.0613    0.0873   -0.1691 C   0  0  0  0  0  0  0  0  0  0  0  0
   -2.5841    1.5199   -0.5265 C   0  0  0  0  0  0  0  0  0  0  0  0
   -1.2469    2.2346   -0.7989 C   0  0  0  0  0  0  0  0  0  0  0  0
   -0.9947    1.9191    0.7271 C   0  0  0  0  0  0  0  0  0  0  0  0
   -0.8780    3.1903    1.5681 C   0  0  0  0  0  0  0  0  0  0  0  0
   -2.2774    3.4915    1.2570 O   0  0  0  0  0  0  0  0  0  0  0  0
   -2.5136    2.0948    0.9076 C   0  0  0  0  0  0  0  0  0  0  0  0
    0.6253    0.2800   -0.5611 H   0  0  0  0  0  0  0  0  0  0  0  0
   -0.9249   -0.0030    1.7575 H   0  0  0  0  0  0  0  0  0  0  0  0
   -1.7458   -0.4628   -1.0602 H   0  0  0  0  0  0  0  0  0  0  0  0
   -2.8069   -0.5169    0.3562 H   0  0  0  0  0  0  0  0  0  0  0  0
   -3.4456    1.5721   -1.1951 H   0  0  0  0  0  0  0  0  0  0  0  0
   -0.5756    1.7880   -1.5394 H   0  0  0  0  0  0  0  0  0  0  0  0
   -1.3462    3.3028   -0.9815 H   0  0  0  0  0  0  0  0  0  0  0  0
   -0.7441    3.0222    2.6448 H   0  0  0  0  0  0  0  0  0  0  0  0
   -0.2031    3.9797    1.2238 H   0  0  0  0  0  0  0  0  0  0  0  0
   -3.0854    1.5913    1.6953 H   0  0  0  0  0  0  0  0  0  0  0  0
  1  2  1  0
  2  3  1  0
  3  4  1  0
  4  5  1  0
  5  6  1  0
  6  7  1  0
  7  8  1  0
  8  9  1  0
  6  2  1  0
  9  6  1  0
  9  4  1  0
  1 10  1  0
  2 11  1  0
  3 12  1  0
  3 13  1  0
  4 14  1  0
  5 15  1  0
  5 16  1  0
  7 17  1  0
  7 18  1  0
  9 19  1  0
M  END
$$$$
