
     RDKit          3D

 19 21  0  0  0  0  0  0  0  0999 V2000
   -0.1169   -0.1241   -0.1243 C   0  0  0  0  0  0  0  0  0  0  0  0
    1.3582   -0.0380    0.1448 C   0  0  0  0  0  0  0  0  0  0  0  0
    1.9082   -1.2525    0.6249 O   0  0  0  0  0  0  0  0  0  0  0  0
    3.2513   -0.8135    0.6892 C   0  0  0  0  0  0  0  0  0  0  0  0
    3.1718    0.3875    1.6526 C   0  0  0  0  0  0  0  0  0  0  0  0
    1.9768    1.1349    1.0161 C   0  0  0  0  0  0  0  0  0  0  0  0
    2.4166    1.8293   -0.2982 C   0  0  0  0  0  0  0  0  0  0  0  0
    2.3750    0.4380   -0.9628 C   0  0  0  0  0  0  0  0  0  0  0  0
    3.5356   -0.3308   -0.6225 O   0  0  0  0  0  0  0  0  0  0  0  0
   -0.6655   -0.3424    0.7971 H   0  0  0  0  0  0  0  0  0  0  0  0
   -0.4914    0.8211   -0.5283 H   0  0  0  0  0  0  0  0  0  0  0  0
   -0.3302   -0.9168   -0.8478 H   0  0  0  0  0  0  0  0  0  0  0  0
    3.9258   -1.6330    0.9333 H   0  0  0  0  0  0  0  0  0  0  0  0
    2.9468    0.0392    2.6644 H   0  0  0  0  0  0  0  0  0  0  0  0
    4.0917    0.9763    1.6716 H   0  0  0  0  0  0  0  0  0  0  0  0
    1.3447    1.6747    1.7214 H   0  0  0  0  0  0  0  0  0  0  0  0
    1.6440    2.4927   -0.6994 H   0  0  0  0  0  0  0  0  0  0  0  0
    3.3801    2.3442   -0.3056 H   0  0  0  0  0  0  0  0  0  0  0  0
    2.1729    0.3275   -2.0295 H   0  0  0  0  0  0  0  0  0  0  0  0
  1  2  1  0
  2  3  1  0
  3  4  1  0
  4  5  1  0
  5  6  1  0
  6  7  1  0
  7  8  1  0
  8  9  1  0
  6  2  1  0
  8  2  1  0
  9  4  1  0
  1 10  1  0
  1 11  1  0
  1 12  1  0
  4 13  1  0
  5 14  1  0
  5 15  1  0
  6 16  1  0
  7 17  1  0
  7 18  1  0
  8 19  1  0
M  END
$$$$
