gdb 1281	3.6196032	0.9532161	0.8609833	4.6715	80.26	-0.23074	-0.03832	0.19242	1383.5841	0.155935	-422.599964	-422.590596	-422.589652	-422.634805	33.919
 OpenBabel02181911403D

 19 19  0  0  1  0  0  0  0  0999 V2000
   -0.8144    0.8306    2.7974 C   0  0  0  0  0  0  0  0  0  0  0  0
   -1.2715    1.7205    1.6305 C   0  0  1  0  0  0  0  0  0  0  0  0
   -0.3099    2.7315    1.3428 O   0  0  0  0  0  0  0  0  0  0  0  0
   -1.4562    0.9159    0.3739 C   0  0  0  0  0  0  0  0  0  0  0  0
   -2.6017    0.3662   -0.0552 C   0  0  0  0  0  0  0  0  0  0  0  0
   -2.3892   -0.3974   -1.3025 C   0  0  0  0  0  0  0  0  0  0  0  0
   -3.2174   -1.0098   -1.9368 O   0  0  0  0  0  0  0  0  0  0  0  0
   -0.8969   -0.2656   -1.6539 C   0  0  0  0  0  0  0  0  0  0  0  0
   -0.2909    0.6136   -0.5454 C   0  0  0  0  0  0  0  0  0  0  0  0
   -1.5608    0.0624    3.0179 H   0  0  0  0  0  0  0  0  0  0  0  0
    0.1359    0.3425    2.5628 H   0  0  0  0  0  0  0  0  0  0  0  0
   -0.6760    1.4364    3.7005 H   0  0  0  0  0  0  0  0  0  0  0  0
   -2.2368    2.1773    1.8986 H   0  0  0  0  0  0  0  0  0  0  0  0
   -0.1178    3.1995    2.1614 H   0  0  0  0  0  0  0  0  0  0  0  0
   -3.5748    0.4507    0.4135 H   0  0  0  0  0  0  0  0  0  0  0  0
   -0.4501   -1.2631   -1.7015 H   0  0  0  0  0  0  0  0  0  0  0  0
   -0.7975    0.1712   -2.6518 H   0  0  0  0  0  0  0  0  0  0  0  0
    0.5178    0.1137    0.0007 H   0  0  0  0  0  0  0  0  0  0  0  0
    0.1376    1.5480   -0.9202 H   0  0  0  0  0  0  0  0  0  0  0  0
  1 10  1  0  0  0  0
  1 12  1  0  0  0  0
  2 13  1  1  0  0  0
  2  1  1  0  0  0  0
  3  2  1  0  0  0  0
  3 14  1  0  0  0  0
  4  2  1  0  0  0  0
  5  4  2  0  0  0  0
  5 15  1  0  0  0  0
  6  5  1  0  0  0  0
  7  6  2  0  0  0  0
  8  6  1  0  0  0  0
  8  9  1  0  0  0  0
  9 18  1  0  0  0  0
  9  4  1  0  0  0  0
 11  1  1  0  0  0  0
 16  8  1  0  0  0  0
 17  8  1  0  0  0  0
 19  9  1  0  0  0  0
M TOR 0 0 1 2 13
M TOR 1 0 1 3 4
M TOR 2 0 1 3 8
M TOR 3 1 3 4 5
M TOR 4 1 3 4 14
M TOR 5 1 3 8 7
M TOR 6 1 3 8 17
M TOR 7 1 3 8 18
M TOR 8 2 1 0 9
M TOR 9 2 1 0 10
M TOR 10 2 1 0 11
M TOR 11 2 1 3 4
M TOR 12 2 1 3 8
M TOR 13 3 1 0 9
M TOR 14 3 1 0 10
M TOR 15 3 1 0 11
M TOR 16 3 1 2 13
M TOR 17 3 4 5 6
M TOR 18 3 4 5 7
M TOR 19 3 8 7 5
M TOR 20 3 8 7 15
M TOR 21 3 8 7 16
M TOR 22 4 3 1 12
M TOR 23 4 3 8 7
M TOR 24 4 3 8 17
M TOR 25 4 3 8 18
M TOR 26 4 5 7 8
M TOR 27 4 5 7 15
M TOR 28 4 5 7 16
M TOR 29 5 4 3 8
M TOR 30 5 7 8 17
M TOR 31 5 7 8 18
M TOR 32 6 5 4 14
M TOR 33 6 5 7 8
M TOR 34 6 5 7 15
M TOR 35 6 5 7 16
M TOR 36 7 5 4 14
M TOR 37 8 3 1 12
M TOR 38 8 3 4 14
M  END
$$$$
