
     RDKit          3D

 19 20  0  0  0  0  0  0  0  0999 V2000
   -0.3333    3.7154   -2.1914 C   0  0  0  0  0  0  0  0  0  0  0  0
   -1.3890    3.2037   -1.1978 C   0  0  0  0  0  0  0  0  0  0  0  0
   -1.5469    4.1409    0.0093 C   0  0  0  0  0  0  0  0  0  0  0  0
   -1.0243    1.8213   -0.7420 C   0  0  0  0  0  0  0  0  0  0  0  0
   -0.9288    0.4754   -1.5147 C   0  0  0  0  0  0  0  0  0  0  0  0
   -0.8585    0.1037   -0.0176 C   0  0  0  0  0  0  0  0  0  0  0  0
   -1.9141    1.1159    0.2442 O   0  0  0  0  0  0  0  0  0  0  0  0
    0.1142    1.2938    0.1860 C   0  0  0  0  0  0  0  0  0  0  0  0
    1.0667    1.6467    0.8008 O   0  0  0  0  0  0  0  0  0  0  0  0
    0.6508    3.7810   -1.7156 H   0  0  0  0  0  0  0  0  0  0  0  0
   -0.2467    3.0596   -3.0636 H   0  0  0  0  0  0  0  0  0  0  0  0
   -0.6021    4.7140   -2.5475 H   0  0  0  0  0  0  0  0  0  0  0  0
   -2.3541    3.1332   -1.7179 H   0  0  0  0  0  0  0  0  0  0  0  0
   -2.2949    3.7567    0.7073 H   0  0  0  0  0  0  0  0  0  0  0  0
   -0.5996    4.2397    0.5491 H   0  0  0  0  0  0  0  0  0  0  0  0
   -1.8587    5.1370   -0.3187 H   0  0  0  0  0  0  0  0  0  0  0  0
   -1.8732    0.1854   -1.9791 H   0  0  0  0  0  0  0  0  0  0  0  0
   -0.0576    0.2886   -2.1480 H   0  0  0  0  0  0  0  0  0  0  0  0
   -0.9556   -0.8625    0.4716 H   0  0  0  0  0  0  0  0  0  0  0  0
  1  2  1  0
  2  3  1  0
  2  4  1  0
  4  5  1  0
  5  6  1  0
  6  7  1  0
  6  8  1  0
  8  9  2  0
  7  4  1  0
  8  4  1  0
  1 10  1  0
  1 11  1  0
  1 12  1  0
  2 13  1  0
  3 14  1  0
  3 15  1  0
  3 16  1  0
  5 17  1  0
  5 18  1  0
  6 19  1  0
M  END
$$$$
