gdb 4246	3.0846071	1.7610827	1.618868	2.2034	72.99	-0.24376	0.07927	0.32303	911.4495	0.160513	-422.556587	-422.54999	-422.549046	-422.587175	28.007
 OpenBabel02181911413D

 19 21  0  0  1  0  0  0  0  0999 V2000
    0.6345    0.1506    0.6889 O   0  0  0  0  0  0  0  0  0  0  0  0
   -0.7425    0.4629    0.8245 C   0  0  2  0  0  0  0  0  0  0  0  0
   -1.2098    0.5522    2.3096 C   0  0  0  0  0  0  0  0  0  0  0  0
   -1.9325   -0.7810    2.4804 C   0  0  2  0  0  0  0  0  0  0  0  0
   -0.9609   -1.8242    2.1464 O   0  0  0  0  0  0  0  0  0  0  0  0
   -1.3119   -2.0710    0.7667 C   0  0  1  0  0  0  0  0  0  0  0  0
   -2.8226   -2.3710    0.8475 C   0  0  0  0  0  0  0  0  0  0  0  0
   -2.8600   -0.8770    1.2440 C   0  0  2  0  0  0  0  0  0  0  0  0
   -1.6641   -0.6365    0.2566 C   0  0  1  0  0  0  0  0  0  0  0  0
    0.7845   -0.6213    1.2490 H   0  0  0  0  0  0  0  0  0  0  0  0
   -0.8778    1.4115    0.2985 H   0  0  0  0  0  0  0  0  0  0  0  0
   -0.3599    0.6758    2.9854 H   0  0  0  0  0  0  0  0  0  0  0  0
   -1.9013    1.3882    2.4686 H   0  0  0  0  0  0  0  0  0  0  0  0
   -2.3705   -0.9875    3.4585 H   0  0  0  0  0  0  0  0  0  0  0  0
   -0.5750   -2.7278    0.3076 H   0  0  0  0  0  0  0  0  0  0  0  0
   -3.2790   -2.5514   -0.1280 H   0  0  0  0  0  0  0  0  0  0  0  0
   -3.1392   -3.1231    1.5740 H   0  0  0  0  0  0  0  0  0  0  0  0
   -3.7664   -0.2727    1.2509 H   0  0  0  0  0  0  0  0  0  0  0  0
   -1.9101   -0.5812   -0.8030 H   0  0  0  0  0  0  0  0  0  0  0  0
  1  2  1  0  0  0  0
  1 10  1  0  0  0  0
  2 11  1  6  0  0  0
  2  3  1  0  0  0  0
  3 13  1  0  0  0  0
  3  4  1  0  0  0  0
  3 12  1  0  0  0  0
  4 14  1  1  0  0  0
  5  4  1  0  0  0  0
  6 15  1  6  0  0  0
  6  7  1  0  0  0  0
  6  5  1  0  0  0  0
  7  8  1  0  0  0  0
  7 17  1  0  0  0  0
  8 18  1  6  0  0  0
  8  4  1  0  0  0  0
  9 19  1  6  0  0  0
  9  6  1  0  0  0  0
  9  2  1  0  0  0  0
  9  8  1  0  0  0  0
 16  7  1  0  0  0  0
M TOR 0 0 1 2 3
M TOR 1 0 1 2 11
M TOR 2 0 1 2 12
M TOR 3 0 1 8 5
M TOR 4 0 1 8 7
M TOR 5 0 1 8 18
M TOR 6 1 2 3 4
M TOR 7 1 2 3 7
M TOR 8 1 2 3 13
M TOR 9 1 8 5 4
M TOR 10 1 8 5 6
M TOR 11 1 8 5 14
M TOR 12 1 8 7 3
M TOR 13 1 8 7 6
M TOR 14 1 8 7 17
M TOR 15 2 1 0 9
M TOR 16 2 1 8 5
M TOR 17 2 1 8 7
M TOR 18 2 1 8 18
M TOR 19 2 3 4 5
M TOR 20 2 3 7 6
M TOR 21 2 3 7 8
M TOR 22 2 3 7 17
M TOR 23 3 2 1 8
M TOR 24 3 2 1 10
M TOR 25 3 4 5 6
M TOR 26 3 4 5 8
M TOR 27 3 4 5 14
M TOR 28 3 7 6 5
M TOR 29 3 7 6 15
M TOR 30 3 7 6 16
M TOR 31 3 7 8 5
M TOR 32 3 7 8 18
M TOR 33 4 3 2 11
M TOR 34 4 3 2 12
M TOR 35 4 3 7 6
M TOR 36 4 3 7 8
M TOR 37 4 3 7 17
M TOR 38 4 5 6 7
M TOR 39 4 5 6 15
M TOR 40 4 5 6 16
M TOR 41 4 5 8 7
M TOR 42 4 5 8 18
M TOR 43 5 4 3 7
M TOR 44 5 4 3 13
M TOR 45 5 6 7 8
M TOR 46 5 6 7 17
M TOR 47 5 8 1 10
M TOR 48 5 8 7 17
M TOR 49 6 5 8 18
M TOR 50 6 7 3 13
M TOR 51 6 7 8 18
M TOR 52 7 3 2 11
M TOR 53 7 3 2 12
M TOR 54 7 6 5 14
M TOR 55 7 8 1 10
M TOR 56 7 8 5 14
M TOR 57 8 1 0 9
M TOR 58 8 1 2 11
M TOR 59 8 1 2 12
M TOR 60 8 5 6 15
M TOR 61 8 5 6 16
M TOR 62 8 7 3 13
M TOR 63 8 7 6 15
M TOR 64 8 7 6 16
M  END
$$$$
