gdb 3637	3.2661814	0.9545234	0.793854	1.5522	77.22	-0.24234	0.05332	0.29566	1428.4646	0.154222	-422.516367	-422.506426	-422.505482	-422.551487	36.414
 OpenBabel02181911413D

 19 19  0  0  1  0  0  0  0  0999 V2000
    5.1429   -3.2444   -1.6977 O   0  0  0  0  0  0  0  0  0  0  0  0
    4.3546   -2.1048   -1.9294 C   0  0  2  0  0  0  0  0  0  0  0  0
    4.6306   -0.7733   -1.1800 C   0  0  0  0  0  0  0  0  0  0  0  0
    3.0957   -0.5234   -1.1791 C   0  0  2  0  0  0  0  0  0  0  0  0
    2.4712    0.1431    0.0516 C   0  0  0  0  0  0  0  0  0  0  0  0
    1.0153    0.2142    0.0023 C   0  0  0  0  0  0  0  0  0  0  0  0
   -0.1839    0.2707   -0.0499 C   0  0  0  0  0  0  0  0  0  0  0  0
    2.8936   -2.0377   -1.4121 C   0  0  1  0  0  0  0  0  0  0  0  0
    1.8341   -2.3778   -2.2657 O   0  0  0  0  0  0  0  0  0  0  0  0
    5.1879   -3.3874   -0.7463 H   0  0  0  0  0  0  0  0  0  0  0  0
    4.3572   -1.9478   -3.0124 H   0  0  0  0  0  0  0  0  0  0  0  0
    5.0045   -0.9610   -0.1660 H   0  0  0  0  0  0  0  0  0  0  0  0
    5.2767   -0.0370   -1.6605 H   0  0  0  0  0  0  0  0  0  0  0  0
    2.7924    0.0083   -2.0856 H   0  0  0  0  0  0  0  0  0  0  0  0
    2.7806   -0.4030    0.9534 H   0  0  0  0  0  0  0  0  0  0  0  0
    2.8825    1.1559    0.1581 H   0  0  0  0  0  0  0  0  0  0  0  0
   -1.2434    0.3163   -0.0985 H   0  0  0  0  0  0  0  0  0  0  0  0
    2.8236   -2.5616   -0.4416 H   0  0  0  0  0  0  0  0  0  0  0  0
    1.8385   -3.3331   -2.3869 H   0  0  0  0  0  0  0  0  0  0  0  0
  1 10  1  0  0  0  0
  2 11  1  6  0  0  0
  2  1  1  0  0  0  0
  2  8  1  0  0  0  0
  2  3  1  0  0  0  0
  3  4  1  0  0  0  0
  3 12  1  0  0  0  0
  4 14  1  6  0  0  0
  4  5  1  0  0  0  0
  5 16  1  0  0  0  0
  5 15  1  0  0  0  0
  6  5  1  0  0  0  0
  7  6  3  0  0  0  0
  8  4  1  0  0  0  0
  8 18  1  1  0  0  0
  9  8  1  0  0  0  0
 13  3  1  0  0  0  0
 17  7  1  0  0  0  0
 19  9  1  0  0  0  0
M TOR 0 0 1 2 3
M TOR 1 0 1 2 11
M TOR 2 0 1 2 12
M TOR 3 0 1 7 3
M TOR 4 0 1 7 8
M TOR 5 0 1 7 17
M TOR 6 1 2 3 4
M TOR 7 1 2 3 7
M TOR 8 1 2 3 13
M TOR 9 1 7 3 4
M TOR 10 1 7 3 13
M TOR 11 1 7 8 18
M TOR 12 2 1 0 9
M TOR 13 2 1 7 8
M TOR 14 2 1 7 17
M TOR 15 2 3 4 5
M TOR 16 2 3 4 14
M TOR 17 2 3 4 15
M TOR 18 2 3 7 8
M TOR 19 2 3 7 17
M TOR 20 3 2 1 10
M TOR 21 3 4 5 6
M TOR 22 3 7 1 10
M TOR 23 3 7 8 18
M TOR 24 4 3 2 11
M TOR 25 4 3 2 12
M TOR 26 4 3 7 8
M TOR 27 4 3 7 17
M TOR 28 4 5 6 16
M TOR 29 5 4 3 7
M TOR 30 5 4 3 13
M TOR 31 6 5 4 14
M TOR 32 6 5 4 15
M TOR 33 7 1 0 9
M TOR 34 7 1 2 11
M TOR 35 7 1 2 12
M TOR 36 7 3 2 11
M TOR 37 7 3 2 12
M TOR 38 7 3 4 14
M TOR 39 7 3 4 15
M TOR 40 8 7 1 10
M TOR 41 8 7 3 13
M  END
$$$$
