
     RDKit          3D

 19 21  0  0  0  0  0  0  0  0999 V2000
   -0.3628    1.0773   -0.0839 C   0  0  0  0  0  0  0  0  0  0  0  0
    0.1496   -0.2561    0.1187 O   0  0  0  0  0  0  0  0  0  0  0  0
    1.5080    0.1953   -0.0272 C   0  0  0  0  0  0  0  0  0  0  0  0
    1.0604    1.6784   -0.1140 C   0  0  0  0  0  0  0  0  0  0  0  0
    1.4881    2.5262   -1.3300 C   0  0  0  0  0  0  0  0  0  0  0  0
    2.7008    3.3670   -0.8605 C   0  0  0  0  0  0  0  0  0  0  0  0
    2.4707    3.5182    0.6308 C   0  0  0  0  0  0  0  0  0  0  0  0
    1.1270    3.8976    0.9644 O   0  0  0  0  0  0  0  0  0  0  0  0
    1.4942    2.5144    1.0713 C   0  0  0  0  0  0  0  0  0  0  0  0
   -0.9149    1.1652   -1.0294 H   0  0  0  0  0  0  0  0  0  0  0  0
   -1.0107    1.4031    0.7386 H   0  0  0  0  0  0  0  0  0  0  0  0
    2.1290   -0.0788    0.8360 H   0  0  0  0  0  0  0  0  0  0  0  0
    1.9791   -0.1946   -0.9401 H   0  0  0  0  0  0  0  0  0  0  0  0
    1.7122    1.9106   -2.2050 H   0  0  0  0  0  0  0  0  0  0  0  0
    0.6648    3.1928   -1.6003 H   0  0  0  0  0  0  0  0  0  0  0  0
    3.6468    2.8352   -1.0203 H   0  0  0  0  0  0  0  0  0  0  0  0
    2.7727    4.3275   -1.3793 H   0  0  0  0  0  0  0  0  0  0  0  0
    3.2422    3.9175    1.2842 H   0  0  0  0  0  0  0  0  0  0  0  0
    1.4703    2.0988    2.0766 H   0  0  0  0  0  0  0  0  0  0  0  0
  1  2  1  0
  2  3  1  0
  3  4  1  0
  4  5  1  0
  5  6  1  0
  6  7  1  0
  7  8  1  0
  8  9  1  0
  4  1  1  0
  9  4  1  0
  9  7  1  0
  1 10  1  0
  1 11  1  0
  3 12  1  0
  3 13  1  0
  5 14  1  0
  5 15  1  0
  6 16  1  0
  6 17  1  0
  7 18  1  0
  9 19  1  0
M  END
$$$$
