
     RDKit          3D

 19 21  0  0  0  0  0  0  0  0999 V2000
    0.8240    0.9368    0.0258 C   0  0  0  0  0  0  0  0  0  0  0  0
    0.9131   -0.5749    0.1964 C   0  0  0  0  0  0  0  0  0  0  0  0
    1.5091   -1.3453   -1.0025 C   0  0  0  0  0  0  0  0  0  0  0  0
    2.8191   -0.7153   -1.1584 O   0  0  0  0  0  0  0  0  0  0  0  0
    3.1319   -1.4130    0.0508 C   0  0  0  0  0  0  0  0  0  0  0  0
    2.1711   -2.5773   -0.2590 C   0  0  0  0  0  0  0  0  0  0  0  0
    1.6989   -2.6154    1.2037 C   0  0  0  0  0  0  0  0  0  0  0  0
    2.0046   -1.0928    1.1654 C   0  0  0  0  0  0  0  0  0  0  0  0
    2.1913   -0.3100    2.2958 O   0  0  0  0  0  0  0  0  0  0  0  0
    0.5852    1.4119    0.9810 H   0  0  0  0  0  0  0  0  0  0  0  0
    1.7699    1.3431   -0.3363 H   0  0  0  0  0  0  0  0  0  0  0  0
    0.0388    1.1992   -0.6916 H   0  0  0  0  0  0  0  0  0  0  0  0
   -0.0632   -0.9817    0.4827 H   0  0  0  0  0  0  0  0  0  0  0  0
    0.9490   -1.4250   -1.9337 H   0  0  0  0  0  0  0  0  0  0  0  0
    4.1877   -1.4698    0.3172 H   0  0  0  0  0  0  0  0  0  0  0  0
    2.4494   -3.4512   -0.8428 H   0  0  0  0  0  0  0  0  0  0  0  0
    0.6794   -2.9254    1.4482 H   0  0  0  0  0  0  0  0  0  0  0  0
    2.4139   -3.1765    1.8161 H   0  0  0  0  0  0  0  0  0  0  0  0
    2.8799   -0.7080    2.8378 H   0  0  0  0  0  0  0  0  0  0  0  0
  1  2  1  0
  2  3  1  0
  3  4  1  0
  4  5  1  0
  5  6  1  0
  6  7  1  0
  7  8  1  0
  8  9  1  0
  8  2  1  0
  6  3  1  0
  8  5  1  0
  1 10  1  0
  1 11  1  0
  1 12  1  0
  2 13  1  0
  3 14  1  0
  5 15  1  0
  6 16  1  0
  7 17  1  0
  7 18  1  0
  9 19  1  0
M  END
$$$$
