
     RDKit          3D

 19 21  0  0  0  0  0  0  0  0999 V2000
   -0.1982    1.2080    0.7246 C   0  0  0  0  0  0  0  0  0  0  0  0
   -0.1150   -0.1898    0.3668 O   0  0  0  0  0  0  0  0  0  0  0  0
    1.1334    0.0055   -0.3269 C   0  0  0  0  0  0  0  0  0  0  0  0
    1.1496    1.4950    0.0566 C   0  0  0  0  0  0  0  0  0  0  0  0
    1.4599    2.6179   -0.9774 C   0  0  0  0  0  0  0  0  0  0  0  0
    2.9634    2.3552   -0.6431 C   0  0  0  0  0  0  0  0  0  0  0  0
    2.3569    2.1487    0.7652 C   0  0  0  0  0  0  0  0  0  0  0  0
    1.8591    3.4493    1.1187 O   0  0  0  0  0  0  0  0  0  0  0  0
    1.1998    3.8531   -0.1072 C   0  0  0  0  0  0  0  0  0  0  0  0
   -1.0706    1.6964    0.2684 H   0  0  0  0  0  0  0  0  0  0  0  0
   -0.2334    1.3598    1.8102 H   0  0  0  0  0  0  0  0  0  0  0  0
    1.9376   -0.6147    0.0909 H   0  0  0  0  0  0  0  0  0  0  0  0
    1.0451   -0.2068   -1.4012 H   0  0  0  0  0  0  0  0  0  0  0  0
    1.0612    2.6098   -1.9915 H   0  0  0  0  0  0  0  0  0  0  0  0
    3.3459    1.4380   -1.0941 H   0  0  0  0  0  0  0  0  0  0  0  0
    3.6728    3.1771   -0.7641 H   0  0  0  0  0  0  0  0  0  0  0  0
    2.8811    1.7087    1.6124 H   0  0  0  0  0  0  0  0  0  0  0  0
    0.1364    4.0400    0.0837 H   0  0  0  0  0  0  0  0  0  0  0  0
    1.6578    4.7688   -0.4981 H   0  0  0  0  0  0  0  0  0  0  0  0
  1  2  1  0
  2  3  1  0
  3  4  1  0
  4  5  1  0
  5  6  1  0
  6  7  1  0
  7  8  1  0
  8  9  1  0
  4  1  1  0
  7  4  1  0
  9  5  1  0
  1 10  1  0
  1 11  1  0
  3 12  1  0
  3 13  1  0
  5 14  1  0
  6 15  1  0
  6 16  1  0
  7 17  1  0
  9 18  1  0
  9 19  1  0
M  END
$$$$
