
     RDKit          3D

 19 21  0  0  0  0  0  0  0  0999 V2000
    2.7152   -1.3814    0.4867 C   0  0  0  0  0  0  0  0  0  0  0  0
    2.3992    0.0783    0.5476 C   0  0  0  0  0  0  0  0  0  0  0  0
    3.1237    0.8773    1.4888 O   0  0  0  0  0  0  0  0  0  0  0  0
    3.1229    1.2995    0.1226 C   0  0  0  0  0  0  0  0  0  0  0  0
    1.8100    2.0773   -0.1246 C   0  0  0  0  0  0  0  0  0  0  0  0
    1.1487    2.7069    1.1205 C   0  0  0  0  0  0  0  0  0  0  0  0
    0.4639    1.4683    1.4407 O   0  0  0  0  0  0  0  0  0  0  0  0
    1.0238    0.8051    0.2894 C   0  0  0  0  0  0  0  0  0  0  0  0
    0.0080    0.0861   -0.5578 C   0  0  0  0  0  0  0  0  0  0  0  0
    2.2777   -1.9059    1.3436 H   0  0  0  0  0  0  0  0  0  0  0  0
    2.3181   -1.8365   -0.4258 H   0  0  0  0  0  0  0  0  0  0  0  0
    3.7975   -1.5349    0.5121 H   0  0  0  0  0  0  0  0  0  0  0  0
    4.0875    1.4262   -0.3572 H   0  0  0  0  0  0  0  0  0  0  0  0
    1.6857    2.5486   -1.0982 H   0  0  0  0  0  0  0  0  0  0  0  0
    1.8250    3.0199    1.9204 H   0  0  0  0  0  0  0  0  0  0  0  0
    0.4313    3.5050    0.8965 H   0  0  0  0  0  0  0  0  0  0  0  0
   -0.4363   -0.7433    0.0040 H   0  0  0  0  0  0  0  0  0  0  0  0
   -0.7961    0.7655   -0.8535 H   0  0  0  0  0  0  0  0  0  0  0  0
    0.4694   -0.3238   -1.4624 H   0  0  0  0  0  0  0  0  0  0  0  0
  1  2  1  0
  2  3  1  0
  3  4  1  0
  4  5  1  0
  5  6  1  0
  6  7  1  0
  7  8  1  0
  8  9  1  0
  4  2  1  0
  8  5  1  0
  8  2  1  0
  1 10  1  0
  1 11  1  0
  1 12  1  0
  4 13  1  0
  5 14  1  0
  6 15  1  0
  6 16  1  0
  9 17  1  0
  9 18  1  0
  9 19  1  0
M  END
$$$$
