gdb 2248	2.3449007	1.7734496	1.4817119	0.8955	74.64	-0.2162	0.0699	0.2861	1002.2854	0.157158	-422.534267	-422.526169	-422.525225	-422.566309	31.793
 OpenBabel02181911413D

 19 21  0  0  1  0  0  0  0  0999 V2000
   -0.0654   -0.2182    0.0516 C   0  0  0  0  0  0  0  0  0  0  0  0
    1.4107   -0.0063    0.0241 C   0  0  2  0  0  0  0  0  0  0  0  0
    2.2203   -0.9601   -0.6785 O   0  0  0  0  0  0  0  0  0  0  0  0
    3.2771    0.0440   -0.8434 C   0  0  2  0  0  0  0  0  0  0  0  0
    4.3441   -0.2076    0.2153 C   0  0  0  0  0  0  0  0  0  0  0  0
    3.5411   -0.1027    1.5449 C   0  0  0  0  0  0  0  0  0  0  0  0
    2.2589    0.6279    1.1412 C   0  0  1  0  0  0  0  0  0  0  0  0
    2.3371    1.1382   -0.2722 C   0  0  2  0  0  0  0  0  0  0  0  0
    2.2045    2.4603   -0.6347 O   0  0  0  0  0  0  0  0  0  0  0  0
   -0.5621    0.6346    0.5234 H   0  0  0  0  0  0  0  0  0  0  0  0
   -0.4614   -0.3358   -0.9625 H   0  0  0  0  0  0  0  0  0  0  0  0
   -0.3209   -1.1185    0.6215 H   0  0  0  0  0  0  0  0  0  0  0  0
    3.6099    0.1094   -1.8821 H   0  0  0  0  0  0  0  0  0  0  0  0
    4.8296   -1.1787    0.0853 H   0  0  0  0  0  0  0  0  0  0  0  0
    5.1146    0.5701    0.1515 H   0  0  0  0  0  0  0  0  0  0  0  0
    3.3236   -1.0939    1.9531 H   0  0  0  0  0  0  0  0  0  0  0  0
    4.0903    0.4531    2.3100 H   0  0  0  0  0  0  0  0  0  0  0  0
    1.7047    1.2226    1.8598 H   0  0  0  0  0  0  0  0  0  0  0  0
    1.8391    2.4969   -1.5260 H   0  0  0  0  0  0  0  0  0  0  0  0
  1 10  1  0  0  0  0
  1 12  1  0  0  0  0
  2  1  1  6  0  0  0
  2  7  1  0  0  0  0
  3  2  1  0  0  0  0
  4 13  1  6  0  0  0
  4  3  1  0  0  0  0
  4  8  1  0  0  0  0
  4  5  1  0  0  0  0
  5  6  1  0  0  0  0
  6 16  1  0  0  0  0
  6 17  1  0  0  0  0
  7  6  1  0  0  0  0
  7 18  1  1  0  0  0
  8  9  1  6  0  0  0
  8  2  1  0  0  0  0
  8  7  1  0  0  0  0
 11  1  1  0  0  0  0
 14  5  1  0  0  0  0
 15  5  1  0  0  0  0
 19  9  1  0  0  0  0
M TOR 0 0 1 2 3
M TOR 1 0 1 6 5
M TOR 2 0 1 6 7
M TOR 3 0 1 6 17
M TOR 4 0 1 7 3
M TOR 5 0 1 7 8
M TOR 6 1 2 3 4
M TOR 7 1 2 3 7
M TOR 8 1 2 3 12
M TOR 9 1 6 5 4
M TOR 10 1 6 5 15
M TOR 11 1 6 5 16
M TOR 12 1 6 7 3
M TOR 13 1 6 7 8
M TOR 14 1 7 3 4
M TOR 15 1 7 3 12
M TOR 16 1 7 6 5
M TOR 17 1 7 6 17
M TOR 18 1 7 8 18
M TOR 19 2 1 0 9
M TOR 20 2 1 0 10
M TOR 21 2 1 0 11
M TOR 22 2 1 6 5
M TOR 23 2 1 6 7
M TOR 24 2 1 6 17
M TOR 25 2 1 7 8
M TOR 26 2 3 4 5
M TOR 27 2 3 4 13
M TOR 28 2 3 4 14
M TOR 29 2 3 7 6
M TOR 30 2 3 7 8
M TOR 31 3 2 1 6
M TOR 32 3 4 5 6
M TOR 33 3 4 5 15
M TOR 34 3 4 5 16
M TOR 35 3 7 6 5
M TOR 36 3 7 6 17
M TOR 37 3 7 8 18
M TOR 38 4 3 7 6
M TOR 39 4 3 7 8
M TOR 40 4 5 6 7
M TOR 41 4 5 6 17
M TOR 42 5 4 3 7
M TOR 43 5 4 3 12
M TOR 44 5 6 7 8
M TOR 45 6 1 0 9
M TOR 46 6 1 0 10
M TOR 47 6 1 0 11
M TOR 48 6 5 4 13
M TOR 49 6 5 4 14
M TOR 50 6 7 3 12
M TOR 51 6 7 8 18
M TOR 52 7 1 0 9
M TOR 53 7 1 0 10
M TOR 54 7 1 0 11
M TOR 55 7 3 4 13
M TOR 56 7 3 4 14
M TOR 57 7 6 5 15
M TOR 58 7 6 5 16
M TOR 59 8 7 3 12
M TOR 60 8 7 6 17
M  END
$$$$
