
     RDKit          3D

 19 20  0  0  0  0  0  0  0  0999 V2000
   -2.7522    1.5572   -1.7176 C   0  0  0  0  0  0  0  0  0  0  0  0
   -1.6417    0.6247   -1.2579 C   0  0  0  0  0  0  0  0  0  0  0  0
   -2.0069   -0.3536   -0.1094 C   0  0  0  0  0  0  0  0  0  0  0  0
   -1.8038    0.7434    0.8491 O   0  0  0  0  0  0  0  0  0  0  0  0
   -0.7624    1.1664   -0.0929 C   0  0  0  0  0  0  0  0  0  0  0  0
    0.2353    0.0169    0.1087 C   0  0  0  0  0  0  0  0  0  0  0  0
    1.4254    0.0389    0.2537 O   0  0  0  0  0  0  0  0  0  0  0  0
   -0.7333   -1.1965    0.1107 C   0  0  0  0  0  0  0  0  0  0  0  0
   -0.6937   -1.9975    1.4113 C   0  0  0  0  0  0  0  0  0  0  0  0
   -3.2669    1.9972   -0.8601 H   0  0  0  0  0  0  0  0  0  0  0  0
   -2.3509    2.3674   -2.3347 H   0  0  0  0  0  0  0  0  0  0  0  0
   -3.4877    1.0133   -2.3198 H   0  0  0  0  0  0  0  0  0  0  0  0
   -1.1035    0.1877   -2.1065 H   0  0  0  0  0  0  0  0  0  0  0  0
   -2.9820   -0.8356   -0.0269 H   0  0  0  0  0  0  0  0  0  0  0  0
   -0.4261    2.1965    0.0102 H   0  0  0  0  0  0  0  0  0  0  0  0
   -0.5067   -1.8432   -0.7453 H   0  0  0  0  0  0  0  0  0  0  0  0
   -1.3550   -2.8682    1.3591 H   0  0  0  0  0  0  0  0  0  0  0  0
    0.3230   -2.3500    1.6063 H   0  0  0  0  0  0  0  0  0  0  0  0
   -1.0065   -1.3719    2.2516 H   0  0  0  0  0  0  0  0  0  0  0  0
  1  2  1  0
  2  3  1  0
  3  4  1  0
  4  5  1  0
  5  6  1  0
  6  7  2  0
  6  8  1  0
  8  9  1  0
  5  2  1  0
  8  3  1  0
  1 10  1  0
  1 11  1  0
  1 12  1  0
  2 13  1  0
  3 14  1  0
  5 15  1  0
  8 16  1  0
  9 17  1  0
  9 18  1  0
  9 19  1  0
M  END
$$$$
