
     RDKit          3D

 19 21  0  0  0  0  0  0  0  0999 V2000
   -0.7586   -0.0167    0.4498 O   0  0  0  0  0  0  0  0  0  0  0  0
   -2.1492    0.0821    0.5438 C   0  0  0  0  0  0  0  0  0  0  0  0
   -3.0142    0.1758   -0.7372 C   0  0  0  0  0  0  0  0  0  0  0  0
   -3.4499   -0.9309   -1.6434 C   0  0  0  0  0  0  0  0  0  0  0  0
   -2.4421    0.0925   -2.1197 C   0  0  0  0  0  0  0  0  0  0  0  0
   -3.8099    1.3585   -0.1506 C   0  0  0  0  0  0  0  0  0  0  0  0
   -2.7078    1.4696    0.9067 C   0  0  0  0  0  0  0  0  0  0  0  0
   -2.4902    2.3045    2.0820 C   0  0  0  0  0  0  0  0  0  0  0  0
   -1.7732    2.5493    0.8551 O   0  0  0  0  0  0  0  0  0  0  0  0
   -0.4384    0.8847    0.3042 H   0  0  0  0  0  0  0  0  0  0  0  0
   -2.4996   -0.7109    1.2153 H   0  0  0  0  0  0  0  0  0  0  0  0
   -3.0967   -1.9347   -1.4276 H   0  0  0  0  0  0  0  0  0  0  0  0
   -4.4528   -0.8895   -2.0571 H   0  0  0  0  0  0  0  0  0  0  0  0
   -1.4045   -0.2144   -2.2009 H   0  0  0  0  0  0  0  0  0  0  0  0
   -2.7615    0.8234   -2.8557 H   0  0  0  0  0  0  0  0  0  0  0  0
   -3.9341    2.2411   -0.7828 H   0  0  0  0  0  0  0  0  0  0  0  0
   -4.7797    1.0732    0.2700 H   0  0  0  0  0  0  0  0  0  0  0  0
   -3.2144    3.0729    2.3481 H   0  0  0  0  0  0  0  0  0  0  0  0
   -1.8838    1.9286    2.9049 H   0  0  0  0  0  0  0  0  0  0  0  0
  1  2  1  0
  2  3  1  0
  3  4  1  0
  4  5  1  0
  3  6  1  0
  6  7  1  0
  7  8  1  0
  8  9  1  0
  7  2  1  0
  9  7  1  0
  5  3  1  0
  1 10  1  0
  2 11  1  0
  4 12  1  0
  4 13  1  0
  5 14  1  0
  5 15  1  0
  6 16  1  0
  6 17  1  0
  8 18  1  0
  8 19  1  0
M  END
$$$$
