gdb 464	4.3605946	1.0051644	0.901084	1.4606	75.42	-0.24435	0.06919	0.31354000000000004	1301.8541	0.157282	-422.491347	-422.48337	-422.482426	-422.524728	29.698
 OpenBabel02181911403D

 19 21  0  0  1  0  0  0  0  0999 V2000
    2.7710   -1.5688   -1.3601 C   0  0  0  0  0  0  0  0  0  0  0  0
    1.6280   -1.7801   -2.1914 O   0  0  0  0  0  0  0  0  0  0  0  0
    1.6982   -0.5689   -1.4337 C   0  0  1  0  0  0  0  0  0  0  0  0
    0.6835   -0.3943   -0.3397 C   0  0  1  0  0  0  0  0  0  0  0  0
    0.9056    0.8685    0.5606 C   0  0  0  0  0  0  0  0  0  0  0  0
   -0.4958    1.3826    0.1728 C   0  0  2  0  0  0  0  0  0  0  0  0
   -1.5357    0.8890    1.0427 O   0  0  0  0  0  0  0  0  0  0  0  0
   -1.8661   -0.1789    0.1218 C   0  0  0  0  0  0  0  0  0  0  0  0
   -0.6927    0.1836   -0.7986 C   0  0  2  0  0  0  0  0  0  0  0  0
    2.8392   -2.2165   -0.4867 H   0  0  0  0  0  0  0  0  0  0  0  0
    3.7094   -1.4006   -1.8869 H   0  0  0  0  0  0  0  0  0  0  0  0
    1.8804    0.3193   -2.0442 H   0  0  0  0  0  0  0  0  0  0  0  0
    0.5899   -1.3364    0.2087 H   0  0  0  0  0  0  0  0  0  0  0  0
    1.0475    0.6923    1.6286 H   0  0  0  0  0  0  0  0  0  0  0  0
    1.7142    1.5095    0.1937 H   0  0  0  0  0  0  0  0  0  0  0  0
   -0.6265    2.4406   -0.0707 H   0  0  0  0  0  0  0  0  0  0  0  0
   -1.8364   -1.1678    0.5970 H   0  0  0  0  0  0  0  0  0  0  0  0
   -2.8582   -0.0259   -0.3225 H   0  0  0  0  0  0  0  0  0  0  0  0
   -0.8743    0.2611   -1.8699 H   0  0  0  0  0  0  0  0  0  0  0  0
  1 10  1  0  0  0  0
  2  3  1  0  0  0  0
  2  1  1  0  0  0  0
  3 12  1  6  0  0  0
  3  1  1  0  0  0  0
  3  4  1  0  0  0  0
  4 13  1  1  0  0  0
  4  5  1  0  0  0  0
  5 14  1  0  0  0  0
  6 16  1  6  0  0  0
  6  5  1  0  0  0  0
  6  7  1  0  0  0  0
  8 17  1  0  0  0  0
  8  7  1  0  0  0  0
  9 19  1  6  0  0  0
  9  4  1  0  0  0  0
  9  8  1  0  0  0  0
  9  6  1  0  0  0  0
 11  1  1  0  0  0  0
 15  5  1  0  0  0  0
 18  8  1  0  0  0  0
M TOR 0 0 1 2 3
M TOR 1 0 1 2 11
M TOR 2 0 2 3 4
M TOR 3 0 2 3 8
M TOR 4 0 2 3 12
M TOR 5 1 2 0 9
M TOR 6 1 2 0 10
M TOR 7 1 2 3 4
M TOR 8 1 2 3 8
M TOR 9 1 2 3 12
M TOR 10 2 3 4 5
M TOR 11 2 3 4 13
M TOR 12 2 3 4 14
M TOR 13 2 3 8 5
M TOR 14 2 3 8 7
M TOR 15 2 3 8 18
M TOR 16 3 2 0 9
M TOR 17 3 2 0 10
M TOR 18 3 4 5 6
M TOR 19 3 4 5 8
M TOR 20 3 4 5 15
M TOR 21 3 8 5 6
M TOR 22 3 8 5 15
M TOR 23 3 8 7 6
M TOR 24 3 8 7 16
M TOR 25 3 8 7 17
M TOR 26 4 3 2 11
M TOR 27 4 3 8 7
M TOR 28 4 3 8 18
M TOR 29 4 5 6 7
M TOR 30 4 5 8 7
M TOR 31 4 5 8 18
M TOR 32 5 4 3 12
M TOR 33 5 6 7 8
M TOR 34 5 6 7 16
M TOR 35 5 6 7 17
M TOR 36 5 8 3 12
M TOR 37 5 8 7 16
M TOR 38 5 8 7 17
M TOR 39 6 5 4 13
M TOR 40 6 5 4 14
M TOR 41 6 5 8 18
M TOR 42 6 7 8 18
M TOR 43 7 6 5 15
M TOR 44 7 8 3 12
M TOR 45 7 8 5 15
M TOR 46 8 3 2 11
M TOR 47 8 3 4 13
M TOR 48 8 3 4 14
M TOR 49 8 5 4 13
M TOR 50 8 5 4 14
M  END
$$$$
