gdb 161	3.1750446	1.7748437	1.4502885	0.5411	73.89	-0.24139	0.0718	0.31318999999999997	944.4488	0.160032	-422.53189	-422.525155	-422.524211	-422.562864	27.873
 OpenBabel02181911403D

 19 21  0  0  1  0  0  0  0  0999 V2000
    1.7143   -0.6187   -0.6975 C   0  0  0  0  0  0  0  0  0  0  0  0
    2.7173    0.1024   -1.6155 C   0  0  2  0  0  0  0  0  0  0  0  0
    3.0013    1.0760   -0.4152 C   0  0  0  0  0  0  0  0  0  0  0  0
    1.4729    0.8709   -0.2669 C   0  0  2  0  0  0  0  0  0  0  0  0
    0.5842    1.2647    0.7212 O   0  0  0  0  0  0  0  0  0  0  0  0
   -0.6947    1.4927    0.0681 C   0  0  0  0  0  0  0  0  0  0  0  0
   -0.5084    1.2796   -1.4672 C   0  0  0  0  0  0  0  0  0  0  0  0
    1.0001    1.4983   -1.5756 C   0  0  2  0  0  0  0  0  0  0  0  0
    1.8438    0.8321   -2.5197 O   0  0  0  0  0  0  0  0  0  0  0  0
    0.9129   -1.1785   -1.1826 H   0  0  0  0  0  0  0  0  0  0  0  0
    2.1805   -1.2013    0.0988 H   0  0  0  0  0  0  0  0  0  0  0  0
    3.5057   -0.3943   -2.1752 H   0  0  0  0  0  0  0  0  0  0  0  0
    3.6061    0.5982    0.3569 H   0  0  0  0  0  0  0  0  0  0  0  0
    3.3654    2.0808   -0.6406 H   0  0  0  0  0  0  0  0  0  0  0  0
   -1.4363    0.8072    0.4903 H   0  0  0  0  0  0  0  0  0  0  0  0
   -1.0065    2.5171    0.2996 H   0  0  0  0  0  0  0  0  0  0  0  0
   -0.7833    0.2648   -1.7639 H   0  0  0  0  0  0  0  0  0  0  0  0
   -1.1105    1.9819   -2.0472 H   0  0  0  0  0  0  0  0  0  0  0  0
    1.2113    2.5759   -1.5984 H   0  0  0  0  0  0  0  0  0  0  0  0
  1  4  1  0  0  0  0
  1 11  1  0  0  0  0
  2 12  1  6  0  0  0
  2  1  1  0  0  0  0
  2  3  1  0  0  0  0
  3  4  1  0  0  0  0
  3 13  1  0  0  0  0
  4  5  1  1  0  0  0
  6 16  1  0  0  0  0
  6 15  1  0  0  0  0
  6  5  1  0  0  0  0
  7  6  1  0  0  0  0
  8 19  1  1  0  0  0
  8  7  1  0  0  0  0
  8  4  1  0  0  0  0
  9  2  1  0  0  0  0
  9  8  1  0  0  0  0
 10  1  1  0  0  0  0
 14  3  1  0  0  0  0
 17  7  1  0  0  0  0
 18  7  1  0  0  0  0
M TOR 0 0 1 2 3
M TOR 1 0 1 2 12
M TOR 2 0 1 2 13
M TOR 3 0 1 8 7
M TOR 4 0 3 2 12
M TOR 5 0 3 2 13
M TOR 6 0 3 4 5
M TOR 7 0 3 7 6
M TOR 8 0 3 7 8
M TOR 9 0 3 7 18
M TOR 10 1 0 3 4
M TOR 11 1 0 3 7
M TOR 12 1 2 3 4
M TOR 13 1 2 3 7
M TOR 14 1 8 7 3
M TOR 15 1 8 7 6
M TOR 16 1 8 7 18
M TOR 17 2 1 0 9
M TOR 18 2 1 0 10
M TOR 19 2 1 8 7
M TOR 20 2 3 0 9
M TOR 21 2 3 0 10
M TOR 22 2 3 4 5
M TOR 23 2 3 7 6
M TOR 24 2 3 7 8
M TOR 25 2 3 7 18
M TOR 26 3 0 1 8
M TOR 27 3 0 1 11
M TOR 28 3 2 1 8
M TOR 29 3 2 1 11
M TOR 30 3 4 5 6
M TOR 31 3 4 5 14
M TOR 32 3 4 5 15
M TOR 33 3 7 6 5
M TOR 34 3 7 6 16
M TOR 35 3 7 6 17
M TOR 36 4 3 0 9
M TOR 37 4 3 0 10
M TOR 38 4 3 2 12
M TOR 39 4 3 2 13
M TOR 40 4 3 7 6
M TOR 41 4 3 7 8
M TOR 42 4 3 7 18
M TOR 43 4 5 6 7
M TOR 44 4 5 6 16
M TOR 45 4 5 6 17
M TOR 46 5 4 3 7
M TOR 47 5 6 7 8
M TOR 48 5 6 7 18
M TOR 49 7 3 0 9
M TOR 50 7 3 0 10
M TOR 51 7 3 2 12
M TOR 52 7 3 2 13
M TOR 53 7 6 5 14
M TOR 54 7 6 5 15
M TOR 55 7 8 1 11
M TOR 56 8 1 0 9
M TOR 57 8 1 0 10
M TOR 58 8 1 2 12
M TOR 59 8 1 2 13
M TOR 60 8 7 6 16
M TOR 61 8 7 6 17
M  END
$$$$
