gdb 1591	2.2627663	1.5611762	1.1677914	1.0407	76.69	-0.24607	0.02762	0.27369	1120.3358	0.154902	-422.53331	-422.5238	-422.522856	-422.567719	35.328
 OpenBabel02181911403D

 19 19  0  0  1  0  0  0  0  0999 V2000
   -1.4906    1.7778    2.4227 C   0  0  0  0  0  0  0  0  0  0  0  0
   -1.0223    1.5045    0.9941 C   0  0  2  0  0  0  0  0  0  0  0  0
    0.1597    2.2236    0.6884 O   0  0  0  0  0  0  0  0  0  0  0  0
   -2.1008    1.8500   -0.0522 C   0  0  0  0  0  0  0  0  0  0  0  0
   -2.8486    0.5172   -0.2892 C   0  0  0  0  0  0  0  0  0  0  0  0
   -2.1867   -0.4836    0.4943 O   0  0  0  0  0  0  0  0  0  0  0  0
   -0.8610   -0.0237    0.7079 C   0  0  2  0  0  0  0  0  0  0  0  0
   -0.2011   -0.7923    1.7516 C   0  0  0  0  0  0  0  0  0  0  0  0
    0.3962   -1.3877    2.6080 C   0  0  0  0  0  0  0  0  0  0  0  0
   -2.4001    1.2133    2.6471 H   0  0  0  0  0  0  0  0  0  0  0  0
   -0.7282    1.4775    3.1487 H   0  0  0  0  0  0  0  0  0  0  0  0
   -1.6946    2.8449    2.5473 H   0  0  0  0  0  0  0  0  0  0  0  0
    0.8043    2.0355    1.3800 H   0  0  0  0  0  0  0  0  0  0  0  0
   -2.7624    2.6472    0.2931 H   0  0  0  0  0  0  0  0  0  0  0  0
   -1.6003    2.1965   -0.9592 H   0  0  0  0  0  0  0  0  0  0  0  0
   -3.8923    0.5429    0.0357 H   0  0  0  0  0  0  0  0  0  0  0  0
   -2.8297    0.2341   -1.3506 H   0  0  0  0  0  0  0  0  0  0  0  0
   -0.2645   -0.1031   -0.2178 H   0  0  0  0  0  0  0  0  0  0  0  0
    0.9103   -1.9323    3.3613 H   0  0  0  0  0  0  0  0  0  0  0  0
  1 12  1  0  0  0  0
  1 10  1  0  0  0  0
  1 11  1  0  0  0  0
  2  3  1  6  0  0  0
  2  1  1  0  0  0  0
  3 13  1  0  0  0  0
  4 14  1  0  0  0  0
  4  2  1  0  0  0  0
  5  4  1  0  0  0  0
  5 16  1  0  0  0  0
  5  6  1  0  0  0  0
  6  7  1  0  0  0  0
  7 18  1  6  0  0  0
  7  2  1  0  0  0  0
  7  8  1  0  0  0  0
  8  9  3  0  0  0  0
  9 19  1  0  0  0  0
 15  4  1  0  0  0  0
 17  5  1  0  0  0  0
M TOR 0 0 1 2 12
M TOR 1 0 1 3 4
M TOR 2 0 1 3 13
M TOR 3 0 1 3 14
M TOR 4 0 1 6 5
M TOR 5 0 1 6 7
M TOR 6 0 1 6 17
M TOR 7 1 3 4 5
M TOR 8 1 3 4 15
M TOR 9 1 3 4 16
M TOR 10 1 6 5 4
M TOR 11 1 6 7 8
M TOR 12 2 1 0 9
M TOR 13 2 1 0 10
M TOR 14 2 1 0 11
M TOR 15 2 1 3 4
M TOR 16 2 1 3 13
M TOR 17 2 1 3 14
M TOR 18 2 1 6 5
M TOR 19 2 1 6 7
M TOR 20 2 1 6 17
M TOR 21 3 1 0 9
M TOR 22 3 1 0 10
M TOR 23 3 1 0 11
M TOR 24 3 1 2 12
M TOR 25 3 1 6 5
M TOR 26 3 1 6 7
M TOR 27 3 1 6 17
M TOR 28 3 4 5 6
M TOR 29 4 3 1 6
M TOR 30 4 5 6 7
M TOR 31 4 5 6 17
M TOR 32 5 4 3 13
M TOR 33 5 4 3 14
M TOR 34 5 6 7 8
M TOR 35 6 1 0 9
M TOR 36 6 1 0 10
M TOR 37 6 1 0 11
M TOR 38 6 1 2 12
M TOR 39 6 1 3 13
M TOR 40 6 1 3 14
M TOR 41 6 5 4 15
M TOR 42 6 5 4 16
M TOR 43 6 7 8 18
M TOR 44 8 7 6 17
M  END
$$$$
