
     RDKit          3D

 19 19  0  0  0  0  0  0  0  0999 V2000
    1.3249    0.9198    0.6257 C   0  0  0  0  0  0  0  0  0  0  0  0
   -0.0294    0.3580    0.3536 C   0  0  0  0  0  0  0  0  0  0  0  0
   -1.2097    0.9473    0.1623 C   0  0  0  0  0  0  0  0  0  0  0  0
   -2.2844   -0.0837   -0.0781 C   0  0  0  0  0  0  0  0  0  0  0  0
   -2.9010    0.0244   -1.4775 C   0  0  0  0  0  0  0  0  0  0  0  0
   -3.3579   -0.0812    1.0162 C   0  0  0  0  0  0  0  0  0  0  0  0
   -1.5679   -1.3379    0.0001 O   0  0  0  0  0  0  0  0  0  0  0  0
   -0.2434   -1.1139    0.2521 C   0  0  0  0  0  0  0  0  0  0  0  0
    0.5606   -1.9985    0.3617 O   0  0  0  0  0  0  0  0  0  0  0  0
    1.7143    0.5387    1.5758 H   0  0  0  0  0  0  0  0  0  0  0  0
    2.0336    0.6026   -0.1467 H   0  0  0  0  0  0  0  0  0  0  0  0
    1.3094    2.0114    0.6635 H   0  0  0  0  0  0  0  0  0  0  0  0
   -1.4223    2.0098    0.1682 H   0  0  0  0  0  0  0  0  0  0  0  0
   -3.6060   -0.7952   -1.6411 H   0  0  0  0  0  0  0  0  0  0  0  0
   -3.4385    0.9714   -1.5858 H   0  0  0  0  0  0  0  0  0  0  0  0
   -2.1230   -0.0250   -2.2433 H   0  0  0  0  0  0  0  0  0  0  0  0
   -4.0622   -0.9015    0.8525 H   0  0  0  0  0  0  0  0  0  0  0  0
   -2.9007   -0.2036    2.0011 H   0  0  0  0  0  0  0  0  0  0  0  0
   -3.9138    0.8613    1.0035 H   0  0  0  0  0  0  0  0  0  0  0  0
  1  2  1  0
  2  3  2  0
  3  4  1  0
  4  5  1  0
  4  6  1  0
  4  7  1  0
  7  8  1  0
  8  9  2  0
  8  2  1  0
  1 10  1  0
  1 11  1  0
  1 12  1  0
  3 13  1  0
  5 14  1  0
  5 15  1  0
  5 16  1  0
  6 17  1  0
  6 18  1  0
  6 19  1  0
M  END
$$$$
