
     RDKit          3D

 19 20  0  0  0  0  0  0  0  0999 V2000
   -0.6342    2.1627   -1.1472 C   0  0  0  0  0  0  0  0  0  0  0  0
   -1.0221    1.1958   -0.0228 C   0  0  0  0  0  0  0  0  0  0  0  0
   -2.3728    0.4555   -0.2056 C   0  0  0  0  0  0  0  0  0  0  0  0
   -2.6884   -0.2489    1.1202 C   0  0  0  0  0  0  0  0  0  0  0  0
   -1.6706   -1.2678    1.2174 O   0  0  0  0  0  0  0  0  0  0  0  0
   -0.9357   -1.2445   -0.0230 C   0  0  0  0  0  0  0  0  0  0  0  0
   -1.9700   -0.7813   -1.0518 C   0  0  0  0  0  0  0  0  0  0  0  0
   -0.0386    0.0023    0.0727 C   0  0  0  0  0  0  0  0  0  0  0  0
    1.1562    0.0600    0.1851 O   0  0  0  0  0  0  0  0  0  0  0  0
   -0.7044    1.6915   -2.1329 H   0  0  0  0  0  0  0  0  0  0  0  0
   -1.2868    3.0410   -1.1468 H   0  0  0  0  0  0  0  0  0  0  0  0
    0.3979    2.4962   -1.0102 H   0  0  0  0  0  0  0  0  0  0  0  0
   -0.9965    1.7399    0.9289 H   0  0  0  0  0  0  0  0  0  0  0  0
   -3.1851    1.0703   -0.5952 H   0  0  0  0  0  0  0  0  0  0  0  0
   -2.6159    0.4160    1.9883 H   0  0  0  0  0  0  0  0  0  0  0  0
   -3.6798   -0.7198    1.1220 H   0  0  0  0  0  0  0  0  0  0  0  0
   -0.4191   -2.1930   -0.1553 H   0  0  0  0  0  0  0  0  0  0  0  0
   -1.5347   -0.5300   -2.0224 H   0  0  0  0  0  0  0  0  0  0  0  0
   -2.7804   -1.5008   -1.1904 H   0  0  0  0  0  0  0  0  0  0  0  0
  1  2  1  0
  2  3  1  0
  3  4  1  0
  4  5  1  0
  5  6  1  0
  6  7  1  0
  6  8  1  0
  8  9  2  0
  8  2  1  0
  7  3  1  0
  1 10  1  0
  1 11  1  0
  1 12  1  0
  2 13  1  0
  3 14  1  0
  4 15  1  0
  4 16  1  0
  6 17  1  0
  7 18  1  0
  7 19  1  0
M  END
$$$$
