
     RDKit          3D

 19 20  0  0  0  0  0  0  0  0999 V2000
   -1.2599   -3.4414   -1.2370 C   0  0  0  0  0  0  0  0  0  0  0  0
   -1.2102   -1.9200   -1.3129 C   0  0  0  0  0  0  0  0  0  0  0  0
   -2.5967   -1.2038   -1.2791 C   0  0  0  0  0  0  0  0  0  0  0  0
   -2.2902   -0.6816    0.1555 C   0  0  0  0  0  0  0  0  0  0  0  0
   -2.2472    0.7320    0.3356 O   0  0  0  0  0  0  0  0  0  0  0  0
   -0.9945    1.2316   -0.0882 C   0  0  0  0  0  0  0  0  0  0  0  0
   -0.0192    0.0469   -0.1283 C   0  0  0  0  0  0  0  0  0  0  0  0
    1.1701    0.1238   -0.2921 O   0  0  0  0  0  0  0  0  0  0  0  0
   -0.8473   -1.2184    0.0432 C   0  0  0  0  0  0  0  0  0  0  0  0
   -1.8903   -3.7791   -0.4064 H   0  0  0  0  0  0  0  0  0  0  0  0
   -1.6729   -3.8614   -2.1605 H   0  0  0  0  0  0  0  0  0  0  0  0
   -0.2599   -3.8631   -1.0922 H   0  0  0  0  0  0  0  0  0  0  0  0
   -0.5646   -1.6175   -2.1428 H   0  0  0  0  0  0  0  0  0  0  0  0
   -2.7068   -0.3926   -2.0029 H   0  0  0  0  0  0  0  0  0  0  0  0
   -3.4639   -1.8638   -1.3639 H   0  0  0  0  0  0  0  0  0  0  0  0
   -2.9297   -1.0866    0.9413 H   0  0  0  0  0  0  0  0  0  0  0  0
   -1.0429    1.6864   -1.0911 H   0  0  0  0  0  0  0  0  0  0  0  0
   -0.6476    2.0009    0.6094 H   0  0  0  0  0  0  0  0  0  0  0  0
   -0.4319   -1.8549    0.8270 H   0  0  0  0  0  0  0  0  0  0  0  0
  1  2  1  0
  2  3  1  0
  3  4  1  0
  4  5  1  0
  5  6  1  0
  6  7  1  0
  7  8  2  0
  7  9  1  0
  9  2  1  0
  9  4  1  0
  1 10  1  0
  1 11  1  0
  1 12  1  0
  2 13  1  0
  3 14  1  0
  3 15  1  0
  4 16  1  0
  6 17  1  0
  6 18  1  0
  9 19  1  0
M  END
$$$$
