
     RDKit          3D

 19 19  0  0  0  0  0  0  0  0999 V2000
   -0.6279   -1.4175   -2.3776 C   0  0  0  0  0  0  0  0  0  0  0  0
   -1.4310   -1.3877   -1.0919 C   0  0  0  0  0  0  0  0  0  0  0  0
   -2.6381   -1.3138   -1.0891 O   0  0  0  0  0  0  0  0  0  0  0  0
   -0.6241   -1.3997    0.2156 C   0  0  0  0  0  0  0  0  0  0  0  0
    0.4273   -2.5150    0.2535 C   0  0  0  0  0  0  0  0  0  0  0  0
   -1.4995   -1.1821    1.4856 C   0  0  0  0  0  0  0  0  0  0  0  0
   -1.0096    0.2933    1.6094 C   0  0  0  0  0  0  0  0  0  0  0  0
   -0.0346    0.0227    0.4629 C   0  0  0  0  0  0  0  0  0  0  0  0
    0.8757    0.6155   -0.0391 O   0  0  0  0  0  0  0  0  0  0  0  0
   -0.2355   -2.4252   -2.5526 H   0  0  0  0  0  0  0  0  0  0  0  0
   -1.2730   -1.1413   -3.2124 H   0  0  0  0  0  0  0  0  0  0  0  0
    0.2300   -0.7406   -2.3114 H   0  0  0  0  0  0  0  0  0  0  0  0
    0.9648   -2.4967    1.2063 H   0  0  0  0  0  0  0  0  0  0  0  0
   -0.0395   -3.5000    0.1495 H   0  0  0  0  0  0  0  0  0  0  0  0
    1.1642   -2.3927   -0.5439 H   0  0  0  0  0  0  0  0  0  0  0  0
   -2.5657   -1.2999    1.2983 H   0  0  0  0  0  0  0  0  0  0  0  0
   -1.1957   -1.8123    2.3231 H   0  0  0  0  0  0  0  0  0  0  0  0
   -1.7629    1.0405    1.3389 H   0  0  0  0  0  0  0  0  0  0  0  0
   -0.5419    0.6011    2.5483 H   0  0  0  0  0  0  0  0  0  0  0  0
  1  2  1  0
  2  3  2  0
  2  4  1  0
  4  5  1  0
  4  6  1  0
  6  7  1  0
  7  8  1  0
  8  9  2  0
  8  4  1  0
  1 10  1  0
  1 11  1  0
  1 12  1  0
  5 13  1  0
  5 14  1  0
  5 15  1  0
  6 16  1  0
  6 17  1  0
  7 18  1  0
  7 19  1  0
M  END
$$$$
