gdb 2224	2.7282105	1.9472516	1.8109062	2.1186	72.83	-0.25191	0.09446	0.34637	885.6057	0.160101	-422.566749	-422.560167	-422.559222	-422.59721	27.946
 OpenBabel02181911413D

 19 21  0  0  1  0  0  0  0  0999 V2000
    0.0500   -0.2071   -0.5279 C   0  0  0  0  0  0  0  0  0  0  0  0
    1.4389    0.2216   -0.1401 C   0  0  2  0  0  0  0  0  0  0  0  0
    2.0652    1.5240   -0.6825 C   0  0  0  0  0  0  0  0  0  0  0  0
    3.4367    1.2073   -0.0449 C   0  0  2  0  0  0  0  0  0  0  0  0
    3.8036   -0.0238   -0.9085 C   0  0  0  0  0  0  0  0  0  0  0  0
    2.6669   -0.8530   -0.2894 C   0  0  1  0  0  0  0  0  0  0  0  0
    3.1653   -0.9098    1.0565 O   0  0  0  0  0  0  0  0  0  0  0  0
    2.9505    0.4679    1.3145 C   0  0  2  0  0  0  0  0  0  0  0  0
    1.5405    0.5429    1.2648 O   0  0  0  0  0  0  0  0  0  0  0  0
   -0.2459   -1.1033    0.0251 H   0  0  0  0  0  0  0  0  0  0  0  0
   -0.6736    0.5843   -0.3095 H   0  0  0  0  0  0  0  0  0  0  0  0
    0.0020   -0.4282   -1.5986 H   0  0  0  0  0  0  0  0  0  0  0  0
    2.1205    1.6143   -1.7699 H   0  0  0  0  0  0  0  0  0  0  0  0
    1.5407    2.3861   -0.2677 H   0  0  0  0  0  0  0  0  0  0  0  0
    4.1649    2.0074    0.0707 H   0  0  0  0  0  0  0  0  0  0  0  0
    3.7290    0.1796   -1.9788 H   0  0  0  0  0  0  0  0  0  0  0  0
    4.7664   -0.4856   -0.6865 H   0  0  0  0  0  0  0  0  0  0  0  0
    2.4271   -1.8461   -0.6642 H   0  0  0  0  0  0  0  0  0  0  0  0
    3.3498    0.7745    2.2781 H   0  0  0  0  0  0  0  0  0  0  0  0
  1 11  1  0  0  0  0
  1 10  1  0  0  0  0
  2  1  1  6  0  0  0
  2  9  1  0  0  0  0
  3 14  1  0  0  0  0
  3  2  1  0  0  0  0
  3  4  1  0  0  0  0
  4 15  1  1  0  0  0
  4  8  1  0  0  0  0
  5 17  1  0  0  0  0
  5  6  1  0  0  0  0
  5  4  1  0  0  0  0
  6 18  1  6  0  0  0
  6  2  1  0  0  0  0
  6  7  1  0  0  0  0
  7  8  1  0  0  0  0
  8 19  1  1  0  0  0
  9  8  1  0  0  0  0
 12  1  1  0  0  0  0
 13  3  1  0  0  0  0
 16  5  1  0  0  0  0
M TOR 0 0 1 2 3
M TOR 1 0 1 2 12
M TOR 2 0 1 2 13
M TOR 3 0 1 5 4
M TOR 4 0 1 5 6
M TOR 5 0 1 5 17
M TOR 6 0 1 8 7
M TOR 7 1 2 3 4
M TOR 8 1 2 3 7
M TOR 9 1 2 3 14
M TOR 10 1 5 4 3
M TOR 11 1 5 4 15
M TOR 12 1 5 4 16
M TOR 13 1 5 6 7
M TOR 14 1 8 7 3
M TOR 15 1 8 7 6
M TOR 16 1 8 7 18
M TOR 17 2 1 0 9
M TOR 18 2 1 0 10
M TOR 19 2 1 0 11
M TOR 20 2 1 5 4
M TOR 21 2 1 5 6
M TOR 22 2 1 5 17
M TOR 23 2 1 8 7
M TOR 24 2 3 4 5
M TOR 25 2 3 4 15
M TOR 26 2 3 4 16
M TOR 27 2 3 7 6
M TOR 28 2 3 7 8
M TOR 29 2 3 7 18
M TOR 30 3 2 1 5
M TOR 31 3 2 1 8
M TOR 32 3 4 5 6
M TOR 33 3 4 5 17
M TOR 34 3 7 6 5
M TOR 35 4 3 2 12
M TOR 36 4 3 2 13
M TOR 37 4 3 7 6
M TOR 38 4 3 7 8
M TOR 39 4 3 7 18
M TOR 40 4 5 1 8
M TOR 41 4 5 6 7
M TOR 42 5 1 0 9
M TOR 43 5 1 0 10
M TOR 44 5 1 0 11
M TOR 45 5 1 2 12
M TOR 46 5 1 2 13
M TOR 47 5 1 8 7
M TOR 48 5 4 3 7
M TOR 49 5 4 3 14
M TOR 50 5 6 7 8
M TOR 51 5 6 7 18
M TOR 52 6 5 1 8
M TOR 53 6 5 4 15
M TOR 54 6 5 4 16
M TOR 55 6 7 3 14
M TOR 56 7 3 2 12
M TOR 57 7 3 2 13
M TOR 58 7 3 4 15
M TOR 59 7 3 4 16
M TOR 60 7 6 5 17
M TOR 61 8 1 0 9
M TOR 62 8 1 0 10
M TOR 63 8 1 0 11
M TOR 64 8 1 2 12
M TOR 65 8 1 2 13
M TOR 66 8 1 5 17
M TOR 67 8 7 3 14
M  END
$$$$
