
     RDKit          3D

 19 20  0  0  0  0  0  0  0  0999 V2000
    0.3786   -3.0559    3.3921 C   0  0  0  0  0  0  0  0  0  0  0  0
   -0.1110   -1.7215    2.8797 C   0  0  0  0  0  0  0  0  0  0  0  0
   -0.9963   -1.6287    1.6611 C   0  0  0  0  0  0  0  0  0  0  0  0
    0.4324   -1.1517    1.5907 C   0  0  0  0  0  0  0  0  0  0  0  0
    0.7473    0.3058    1.4929 C   0  0  0  0  0  0  0  0  0  0  0  0
    0.0192    1.2147    0.5739 C   0  0  0  0  0  0  0  0  0  0  0  0
   -0.2416    1.2346    1.9689 O   0  0  0  0  0  0  0  0  0  0  0  0
    2.1454    0.7311    1.8377 C   0  0  0  0  0  0  0  0  0  0  0  0
    3.0760   -0.0234    1.9514 O   0  0  0  0  0  0  0  0  0  0  0  0
   -0.3625   -3.5240    4.0494 H   0  0  0  0  0  0  0  0  0  0  0  0
    0.5721   -3.7474    2.5651 H   0  0  0  0  0  0  0  0  0  0  0  0
    1.3100   -2.9468    3.9579 H   0  0  0  0  0  0  0  0  0  0  0  0
   -0.3266   -0.9840    3.6484 H   0  0  0  0  0  0  0  0  0  0  0  0
   -1.2468   -2.5440    1.1351 H   0  0  0  0  0  0  0  0  0  0  0  0
   -1.7779   -0.8770    1.6687 H   0  0  0  0  0  0  0  0  0  0  0  0
    1.1445   -1.7741    1.0581 H   0  0  0  0  0  0  0  0  0  0  0  0
    0.5036    2.1057    0.1762 H   0  0  0  0  0  0  0  0  0  0  0  0
   -0.7595    0.7780   -0.0481 H   0  0  0  0  0  0  0  0  0  0  0  0
    2.2462    1.8308    1.9790 H   0  0  0  0  0  0  0  0  0  0  0  0
  1  2  1  0
  2  3  1  0
  3  4  1  0
  4  5  1  0
  5  6  1  0
  6  7  1  0
  5  8  1  0
  8  9  2  0
  4  2  1  0
  7  5  1  0
  1 10  1  0
  1 11  1  0
  1 12  1  0
  2 13  1  0
  3 14  1  0
  3 15  1  0
  4 16  1  0
  6 17  1  0
  6 18  1  0
  8 19  1  0
M  END
$$$$
