gdb 1339	2.749763	1.2676441	1.0236127	2.7845	76.13	-0.25182	-0.02648	0.22533999999999998	1204.3193	0.156015	-422.51206	-422.503363	-422.502419	-422.546362	31.926
 OpenBabel02181911403D

 19 20  0  0  1  0  0  0  0  0999 V2000
    0.5046   10.0740   -3.0248 O   0  0  0  0  0  0  0  0  0  0  0  0
    0.2169    8.8102   -2.4409 C   0  0  2  0  0  0  0  0  0  0  0  0
    1.5620    8.1188   -2.2576 C   0  0  0  0  0  0  0  0  0  0  0  0
    1.6894    7.0177   -1.7894 O   0  0  0  0  0  0  0  0  0  0  0  0
   -0.6998    7.9725   -3.3296 C   0  0  2  0  0  0  0  0  0  0  0  0
   -2.2465    8.2279   -3.3778 C   0  0  1  0  0  0  0  0  0  0  0  0
   -2.3587    6.8136   -4.0182 C   0  0  0  0  0  0  0  0  0  0  0  0
   -1.3678    6.6553   -2.8254 C   0  0  2  0  0  0  0  0  0  0  0  0
   -2.3669    7.5187   -1.9980 C   0  0  0  0  0  0  0  0  0  0  0  0
   -0.3312   10.5070   -3.2223 H   0  0  0  0  0  0  0  0  0  0  0  0
   -0.2086    8.9311   -1.4334 H   0  0  0  0  0  0  0  0  0  0  0  0
    2.4276    8.7282   -2.5995 H   0  0  0  0  0  0  0  0  0  0  0  0
   -0.2362    7.8906   -4.3197 H   0  0  0  0  0  0  0  0  0  0  0  0
   -2.7577    9.1366   -3.7041 H   0  0  0  0  0  0  0  0  0  0  0  0
   -3.3247    6.3126   -3.9170 H   0  0  0  0  0  0  0  0  0  0  0  0
   -1.9446    6.6925   -5.0228 H   0  0  0  0  0  0  0  0  0  0  0  0
   -0.8518    5.7516   -2.5063 H   0  0  0  0  0  0  0  0  0  0  0  0
   -3.3341    7.0571   -1.7829 H   0  0  0  0  0  0  0  0  0  0  0  0
   -1.9883    8.0366   -1.1156 H   0  0  0  0  0  0  0  0  0  0  0  0
  1  2  1  0  0  0  0
  2  3  1  0  0  0  0
  2 11  1  1  0  0  0
  3  4  2  0  0  0  0
  5 13  1  6  0  0  0
  5  8  1  0  0  0  0
  5  2  1  0  0  0  0
  6 14  1  6  0  0  0
  6  5  1  0  0  0  0
  6  9  1  0  0  0  0
  7 15  1  0  0  0  0
  7  6  1  0  0  0  0
  7  8  1  0  0  0  0
  8 17  1  1  0  0  0
  8  9  1  0  0  0  0
  9 18  1  0  0  0  0
  9 19  1  0  0  0  0
 10  1  1  0  0  0  0
 12  3  1  0  0  0  0
 16  7  1  0  0  0  0
M TOR 0 0 1 2 3
M TOR 1 0 1 2 11
M TOR 2 0 1 4 5
M TOR 3 0 1 4 7
M TOR 4 0 1 4 12
M TOR 5 1 4 5 6
M TOR 6 1 4 5 8
M TOR 7 1 4 5 13
M TOR 8 1 4 7 6
M TOR 9 1 4 7 8
M TOR 10 1 4 7 16
M TOR 11 2 1 0 9
M TOR 12 2 1 4 5
M TOR 13 2 1 4 7
M TOR 14 2 1 4 12
M TOR 15 3 2 1 4
M TOR 16 3 2 1 10
M TOR 17 4 1 0 9
M TOR 18 4 1 2 11
M TOR 19 4 5 6 7
M TOR 20 4 5 6 14
M TOR 21 4 5 6 15
M TOR 22 4 5 8 7
M TOR 23 4 5 8 17
M TOR 24 4 5 8 18
M TOR 25 4 7 6 14
M TOR 26 4 7 6 15
M TOR 27 4 7 8 17
M TOR 28 4 7 8 18
M TOR 29 5 4 1 10
M TOR 30 5 4 7 16
M TOR 31 5 6 7 8
M TOR 32 5 6 7 16
M TOR 33 5 8 7 16
M TOR 34 6 5 4 12
M TOR 35 6 5 8 17
M TOR 36 6 5 8 18
M TOR 37 6 7 4 12
M TOR 38 6 7 8 17
M TOR 39 6 7 8 18
M TOR 40 7 4 1 10
M TOR 41 7 4 5 13
M TOR 42 7 6 5 13
M TOR 43 7 8 5 13
M TOR 44 8 5 4 12
M TOR 45 8 5 6 14
M TOR 46 8 5 6 15
M TOR 47 8 7 4 12
M TOR 48 8 7 6 14
M TOR 49 8 7 6 15
M  END
$$$$
