gdb 1834	2.1505888	1.9417016	1.6088057	1.5088	75.16	-0.24139	-0.0029	0.23848999999999998	967.5392	0.155419	-422.5338	-422.525398	-422.524454	-422.565855	33.619
 OpenBabel02181911403D

 19 20  0  0  1  0  0  0  0  0999 V2000
    2.7971   -1.9598    0.0937 C   0  0  0  0  0  0  0  0  0  0  0  0
    2.3830   -0.5263    0.2508 C   0  0  1  0  0  0  0  0  0  0  0  0
    2.8999    0.1500    1.4646 O   0  0  0  0  0  0  0  0  0  0  0  0
    1.8644    1.1461    1.1586 C   0  0  1  0  0  0  0  0  0  0  0  0
    2.3088    1.6608   -0.2014 C   0  0  0  0  0  0  0  0  0  0  0  0
    2.6600    0.5263   -0.8174 C   0  0  0  0  0  0  0  0  0  0  0  0
    0.9326   -0.0812    0.7776 C   0  0  1  0  0  0  0  0  0  0  0  0
   -0.2720    0.0405   -0.1309 C   0  0  0  0  0  0  0  0  0  0  0  0
    0.5343   -0.8204    1.8950 O   0  0  0  0  0  0  0  0  0  0  0  0
    2.3661   -2.5726    0.8905 H   0  0  0  0  0  0  0  0  0  0  0  0
    2.4514   -2.3538   -0.8672 H   0  0  0  0  0  0  0  0  0  0  0  0
    3.8868   -2.0519    0.1306 H   0  0  0  0  0  0  0  0  0  0  0  0
    1.6397    1.8289    1.9773 H   0  0  0  0  0  0  0  0  0  0  0  0
    2.2777    2.6792   -0.5596 H   0  0  0  0  0  0  0  0  0  0  0  0
    3.0018    0.3473   -1.8268 H   0  0  0  0  0  0  0  0  0  0  0  0
   -1.0865    0.5361    0.4061 H   0  0  0  0  0  0  0  0  0  0  0  0
   -0.0499    0.6019   -1.0376 H   0  0  0  0  0  0  0  0  0  0  0  0
   -0.6221   -0.9590   -0.4065 H   0  0  0  0  0  0  0  0  0  0  0  0
    1.3163   -0.8603    2.4643 H   0  0  0  0  0  0  0  0  0  0  0  0
  1 12  1  0  0  0  0
  1 10  1  0  0  0  0
  2  1  1  6  0  0  0
  2  7  1  0  0  0  0
  2  3  1  0  0  0  0
  4  3  1  0  0  0  0
  4 13  1  1  0  0  0
  5  4  1  0  0  0  0
  6  5  2  0  0  0  0
  6  2  1  0  0  0  0
  7  4  1  0  0  0  0
  7  9  1  1  0  0  0
  8 16  1  0  0  0  0
  8  7  1  0  0  0  0
  9 19  1  0  0  0  0
 11  1  1  0  0  0  0
 14  5  1  0  0  0  0
 15  6  1  0  0  0  0
 17  8  1  0  0  0  0
 18  8  1  0  0  0  0
M TOR 0 0 1 2 3
M TOR 1 0 1 5 4
M TOR 2 0 1 5 14
M TOR 3 0 1 6 3
M TOR 4 0 1 6 7
M TOR 5 0 1 6 8
M TOR 6 1 2 3 4
M TOR 7 1 2 3 6
M TOR 8 1 2 3 12
M TOR 9 1 5 4 3
M TOR 10 1 5 4 13
M TOR 11 1 6 3 4
M TOR 12 1 6 3 12
M TOR 13 1 6 7 15
M TOR 14 1 6 7 16
M TOR 15 1 6 7 17
M TOR 16 1 6 8 18
M TOR 17 2 1 0 9
M TOR 18 2 1 0 10
M TOR 19 2 1 0 11
M TOR 20 2 1 5 4
M TOR 21 2 1 5 14
M TOR 22 2 1 6 7
M TOR 23 2 1 6 8
M TOR 24 2 3 4 5
M TOR 25 2 3 4 13
M TOR 26 2 3 6 7
M TOR 27 2 3 6 8
M TOR 28 3 2 1 5
M TOR 29 3 4 5 14
M TOR 30 3 6 1 5
M TOR 31 3 6 7 15
M TOR 32 3 6 7 16
M TOR 33 3 6 7 17
M TOR 34 3 6 8 18
M TOR 35 4 3 6 7
M TOR 36 4 3 6 8
M TOR 37 4 5 1 6
M TOR 38 5 1 0 9
M TOR 39 5 1 0 10
M TOR 40 5 1 0 11
M TOR 41 5 1 6 7
M TOR 42 5 1 6 8
M TOR 43 5 4 3 6
M TOR 44 5 4 3 12
M TOR 45 6 1 0 9
M TOR 46 6 1 0 10
M TOR 47 6 1 0 11
M TOR 48 6 1 5 14
M TOR 49 6 3 4 13
M TOR 50 7 6 3 12
M TOR 51 7 6 8 18
M TOR 52 8 6 3 12
M TOR 53 8 6 7 15
M TOR 54 8 6 7 16
M TOR 55 8 6 7 17
M  END
$$$$
