
     RDKit          3D

 19 20  0  0  0  0  0  0  0  0999 V2000
    0.3676    0.3351    0.4574 O   0  0  0  0  0  0  0  0  0  0  0  0
   -0.9371    0.3438    1.0077 C   0  0  0  0  0  0  0  0  0  0  0  0
   -2.0249   -0.1365   -0.0022 C   0  0  0  0  0  0  0  0  0  0  0  0
   -3.0303    1.0158   -0.2581 C   0  0  0  0  0  0  0  0  0  0  0  0
   -2.2148    2.2298   -0.7579 C   0  0  0  0  0  0  0  0  0  0  0  0
   -1.2065    2.5676    0.2010 O   0  0  0  0  0  0  0  0  0  0  0  0
   -1.3167    1.7852    1.4216 C   0  0  0  0  0  0  0  0  0  0  0  0
   -2.7214    1.8290    1.9546 C   0  0  0  0  0  0  0  0  0  0  0  0
   -3.6302    1.4216    1.0672 C   0  0  0  0  0  0  0  0  0  0  0  0
    0.4248    1.1385   -0.0780 H   0  0  0  0  0  0  0  0  0  0  0  0
   -0.9019   -0.3071    1.8857 H   0  0  0  0  0  0  0  0  0  0  0  0
   -1.5210   -0.4252   -0.9297 H   0  0  0  0  0  0  0  0  0  0  0  0
   -2.5548   -1.0150    0.3741 H   0  0  0  0  0  0  0  0  0  0  0  0
   -3.7814    0.7361   -1.0000 H   0  0  0  0  0  0  0  0  0  0  0  0
   -1.7173    1.9922   -1.7078 H   0  0  0  0  0  0  0  0  0  0  0  0
   -2.8656    3.0991   -0.9164 H   0  0  0  0  0  0  0  0  0  0  0  0
   -0.5705    2.2046    2.0975 H   0  0  0  0  0  0  0  0  0  0  0  0
   -2.9390    2.1773    2.9574 H   0  0  0  0  0  0  0  0  0  0  0  0
   -4.6999    1.4044    1.2442 H   0  0  0  0  0  0  0  0  0  0  0  0
  1  2  1  0
  2  3  1  0
  3  4  1  0
  4  5  1  0
  5  6  1  0
  6  7  1  0
  7  8  1  0
  8  9  2  0
  7  2  1  0
  9  4  1  0
  1 10  1  0
  2 11  1  0
  3 12  1  0
  3 13  1  0
  4 14  1  0
  5 15  1  0
  5 16  1  0
  7 17  1  0
  8 18  1  0
  9 19  1  0
M  END
$$$$
