gdb 1440	2.597008	1.8184918	1.469585	0.8714	76.	-0.24219	0.02274	0.26493	974.7287	0.154158	-422.388768	-422.380484	-422.37954	-422.420789	32.825
 OpenBabel02181911403D

 19 21  0  0  1  0  0  0  0  0999 V2000
   -0.0259    1.2153    0.6457 C   0  0  0  0  0  0  0  0  0  0  0  0
    1.3358    0.5821    0.3671 C   0  0  0  0  0  0  0  0  0  0  0  0
    2.0451    0.2376    1.6752 C   0  0  0  0  0  0  0  0  0  0  0  0
    1.4478   -0.4538   -0.7632 C   0  0  2  0  0  0  0  0  0  0  0  0
    2.9450   -0.2224   -0.8310 O   0  0  0  0  0  0  0  0  0  0  0  0
    2.2800    1.1349   -0.7789 C   0  0  2  0  0  0  0  0  0  0  0  0
    2.1185    2.5640   -1.3266 C   0  0  0  0  0  0  0  0  0  0  0  0
    0.8426    2.0857   -1.9138 O   0  0  0  0  0  0  0  0  0  0  0  0
    1.3816    0.7019   -1.8617 C   0  0  2  0  0  0  0  0  0  0  0  0
   -0.5866    0.5713    1.3327 H   0  0  0  0  0  0  0  0  0  0  0  0
    0.0975    2.1828    1.1456 H   0  0  0  0  0  0  0  0  0  0  0  0
   -0.6235    1.3762   -0.2495 H   0  0  0  0  0  0  0  0  0  0  0  0
    1.4519   -0.4823    2.2504 H   0  0  0  0  0  0  0  0  0  0  0  0
    3.0312   -0.1897    1.4959 H   0  0  0  0  0  0  0  0  0  0  0  0
    2.1535    1.1340    2.2960 H   0  0  0  0  0  0  0  0  0  0  0  0
    1.1571   -1.5083   -0.8046 H   0  0  0  0  0  0  0  0  0  0  0  0
    1.9567    3.3721   -0.6080 H   0  0  0  0  0  0  0  0  0  0  0  0
    2.8248    2.8603   -2.1092 H   0  0  0  0  0  0  0  0  0  0  0  0
    1.8002    0.4196   -2.8279 H   0  0  0  0  0  0  0  0  0  0  0  0
  1 11  1  0  0  0  0
  1 10  1  0  0  0  0
  2  1  1  0  0  0  0
  2  3  1  0  0  0  0
  3 13  1  0  0  0  0
  3 15  1  0  0  0  0
  4 16  1  6  0  0  0
  4  2  1  0  0  0  0
  5  4  1  0  0  0  0
  6  5  1  6  0  0  0
  6  2  1  0  0  0  0
  7  6  1  0  0  0  0
  7 17  1  0  0  0  0
  8  9  1  0  0  0  0
  8  7  1  0  0  0  0
  9 19  1  6  0  0  0
  9  6  1  0  0  0  0
  9  4  1  0  0  0  0
 12  1  1  0  0  0  0
 14  3  1  0  0  0  0
 18  7  1  0  0  0  0
M TOR 0 0 1 2 12
M TOR 1 0 1 2 13
M TOR 2 0 1 2 14
M TOR 3 0 1 3 4
M TOR 4 0 1 3 8
M TOR 5 0 1 3 15
M TOR 6 0 1 5 4
M TOR 7 0 1 5 6
M TOR 8 0 1 5 8
M TOR 9 1 3 4 5
M TOR 10 1 3 8 5
M TOR 11 1 3 8 7
M TOR 12 1 3 8 18
M TOR 13 1 5 6 7
M TOR 14 1 5 6 16
M TOR 15 1 5 6 17
M TOR 16 1 5 8 7
M TOR 17 1 5 8 18
M TOR 18 2 1 0 9
M TOR 19 2 1 0 10
M TOR 20 2 1 0 11
M TOR 21 2 1 3 4
M TOR 22 2 1 3 8
M TOR 23 2 1 3 15
M TOR 24 2 1 5 4
M TOR 25 2 1 5 6
M TOR 26 2 1 5 8
M TOR 27 3 1 0 9
M TOR 28 3 1 0 10
M TOR 29 3 1 0 11
M TOR 30 3 1 2 12
M TOR 31 3 1 2 13
M TOR 32 3 1 2 14
M TOR 33 3 1 5 6
M TOR 34 3 4 5 6
M TOR 35 3 4 5 8
M TOR 36 3 8 5 6
M TOR 37 3 8 7 6
M TOR 38 4 3 8 7
M TOR 39 4 3 8 18
M TOR 40 4 5 6 7
M TOR 41 4 5 6 16
M TOR 42 4 5 6 17
M TOR 43 4 5 8 7
M TOR 44 4 5 8 18
M TOR 45 5 1 0 9
M TOR 46 5 1 0 10
M TOR 47 5 1 0 11
M TOR 48 5 1 2 12
M TOR 49 5 1 2 13
M TOR 50 5 1 2 14
M TOR 51 5 1 3 15
M TOR 52 5 4 3 15
M TOR 53 5 6 7 8
M TOR 54 5 8 3 15
M TOR 55 6 5 8 18
M TOR 56 6 7 8 18
M TOR 57 7 8 3 15
M TOR 58 8 5 6 16
M TOR 59 8 5 6 17
M TOR 60 8 7 6 16
M TOR 61 8 7 6 17
M  END
$$$$
