
     RDKit          3D

 19 21  0  0  0  0  0  0  0  0999 V2000
    0.6159    0.2348    0.6135 O   0  0  0  0  0  0  0  0  0  0  0  0
   -0.5221    0.9713    0.9904 C   0  0  0  0  0  0  0  0  0  0  0  0
   -0.9917    1.8034   -0.2077 C   0  0  0  0  0  0  0  0  0  0  0  0
   -1.5742    3.0736    0.4196 C   0  0  0  0  0  0  0  0  0  0  0  0
   -0.7994    3.3071    1.5950 O   0  0  0  0  0  0  0  0  0  0  0  0
   -0.4677    2.0565    2.1524 C   0  0  0  0  0  0  0  0  0  0  0  0
   -1.6176    1.3144    2.8473 C   0  0  0  0  0  0  0  0  0  0  0  0
   -1.1808   -0.0869    3.1490 C   0  0  0  0  0  0  0  0  0  0  0  0
   -1.6339    0.2444    1.7495 C   0  0  0  0  0  0  0  0  0  0  0  0
    0.7794   -0.4293    1.2908 H   0  0  0  0  0  0  0  0  0  0  0  0
   -0.1081    2.0386   -0.8074 H   0  0  0  0  0  0  0  0  0  0  0  0
   -1.7072    1.2716   -0.8403 H   0  0  0  0  0  0  0  0  0  0  0  0
   -1.4849    3.9569   -0.2174 H   0  0  0  0  0  0  0  0  0  0  0  0
   -2.6360    2.9400    0.6749 H   0  0  0  0  0  0  0  0  0  0  0  0
    0.4568    2.1718    2.7255 H   0  0  0  0  0  0  0  0  0  0  0  0
   -2.4543    1.7902    3.3430 H   0  0  0  0  0  0  0  0  0  0  0  0
   -0.1348   -0.2958    3.3722 H   0  0  0  0  0  0  0  0  0  0  0  0
   -1.8726   -0.6890    3.7285 H   0  0  0  0  0  0  0  0  0  0  0  0
   -2.4783   -0.2605    1.2931 H   0  0  0  0  0  0  0  0  0  0  0  0
  1  2  1  0
  2  3  1  0
  3  4  1  0
  4  5  1  0
  5  6  1  0
  6  7  1  0
  7  8  1  0
  8  9  1  0
  6  2  1  0
  9  7  1  0
  9  2  1  0
  1 10  1  0
  3 11  1  0
  3 12  1  0
  4 13  1  0
  4 14  1  0
  6 15  1  0
  7 16  1  0
  8 17  1  0
  8 18  1  0
  9 19  1  0
M  END
$$$$
