gdb 334	2.4191509	1.9919799	1.3386576	1.1365	74.45	-0.22649	0.07142	0.29791	990.1398	0.158828	-422.51944	-422.512116	-422.511172	-422.550917	29.349
 OpenBabel02181911403D

 19 21  0  0  1  0  0  0  0  0999 V2000
   -0.8311   -1.1446   -0.7471 C   0  0  0  0  0  0  0  0  0  0  0  0
   -0.3781   -0.9358    0.6977 C   0  0  2  0  0  0  0  0  0  0  0  0
   -1.3087   -0.3930    1.7778 C   0  0  0  0  0  0  0  0  0  0  0  0
   -0.9399    1.0629    2.0835 C   0  0  0  0  0  0  0  0  0  0  0  0
   -1.1134    1.9045    0.9452 O   0  0  0  0  0  0  0  0  0  0  0  0
   -0.4211    1.5154   -0.2129 C   0  0  1  0  0  0  0  0  0  0  0  0
    1.1108    1.7379   -0.3548 C   0  0  0  0  0  0  0  0  0  0  0  0
    1.2838    0.3654   -0.7971 O   0  0  0  0  0  0  0  0  0  0  0  0
   -0.0407    0.0530   -0.3773 C   0  0  2  0  0  0  0  0  0  0  0  0
   -0.3193   -1.9228   -1.3034 H   0  0  0  0  0  0  0  0  0  0  0  0
   -1.8808   -1.0206   -1.0005 H   0  0  0  0  0  0  0  0  0  0  0  0
    0.4294   -1.5828    1.0262 H   0  0  0  0  0  0  0  0  0  0  0  0
   -2.3552   -0.4297    1.4535 H   0  0  0  0  0  0  0  0  0  0  0  0
   -1.2354   -0.9897    2.6927 H   0  0  0  0  0  0  0  0  0  0  0  0
   -1.5922    1.4889    2.8510 H   0  0  0  0  0  0  0  0  0  0  0  0
    0.0959    1.1143    2.4547 H   0  0  0  0  0  0  0  0  0  0  0  0
   -0.9758    1.9357   -1.0562 H   0  0  0  0  0  0  0  0  0  0  0  0
    1.4475    2.4539   -1.1097 H   0  0  0  0  0  0  0  0  0  0  0  0
    1.6210    1.9310    0.5972 H   0  0  0  0  0  0  0  0  0  0  0  0
  1  9  1  0  0  0  0
  1  2  1  0  0  0  0
  2 12  1  1  0  0  0
  2  3  1  0  0  0  0
  3  4  1  0  0  0  0
  3 14  1  0  0  0  0
  4 16  1  0  0  0  0
  4 15  1  0  0  0  0
  5  4  1  0  0  0  0
  6 17  1  6  0  0  0
  6  5  1  0  0  0  0
  7  6  1  0  0  0  0
  7 19  1  0  0  0  0
  8  7  1  0  0  0  0
  9  8  1  6  0  0  0
  9  6  1  0  0  0  0
  9  2  1  0  0  0  0
 10  1  1  0  0  0  0
 11  1  1  0  0  0  0
 13  3  1  0  0  0  0
 18  7  1  0  0  0  0
M TOR 0 0 1 2 3
M TOR 1 0 1 2 12
M TOR 2 0 1 2 13
M TOR 3 0 1 8 5
M TOR 4 0 1 8 7
M TOR 5 0 8 1 2
M TOR 6 0 8 1 11
M TOR 7 0 8 5 4
M TOR 8 0 8 5 6
M TOR 9 0 8 5 16
M TOR 10 0 8 7 6
M TOR 11 1 2 3 4
M TOR 12 1 2 3 14
M TOR 13 1 2 3 15
M TOR 14 1 8 0 9
M TOR 15 1 8 0 10
M TOR 16 1 8 5 4
M TOR 17 1 8 5 6
M TOR 18 1 8 5 16
M TOR 19 1 8 7 6
M TOR 20 2 1 0 9
M TOR 21 2 1 0 10
M TOR 22 2 1 8 5
M TOR 23 2 1 8 7
M TOR 24 2 3 4 5
M TOR 25 3 2 1 8
M TOR 26 3 2 1 11
M TOR 27 3 4 5 6
M TOR 28 3 4 5 8
M TOR 29 3 4 5 16
M TOR 30 4 3 2 12
M TOR 31 4 3 2 13
M TOR 32 4 5 6 7
M TOR 33 4 5 6 17
M TOR 34 4 5 6 18
M TOR 35 4 5 8 7
M TOR 36 5 4 3 14
M TOR 37 5 4 3 15
M TOR 38 5 6 7 8
M TOR 39 5 8 0 9
M TOR 40 5 8 0 10
M TOR 41 5 8 1 11
M TOR 42 7 6 5 16
M TOR 43 7 8 0 9
M TOR 44 7 8 0 10
M TOR 45 7 8 1 11
M TOR 46 7 8 5 16
M TOR 47 8 1 2 12
M TOR 48 8 1 2 13
M TOR 49 8 5 6 17
M TOR 50 8 5 6 18
M TOR 51 8 7 6 17
M TOR 52 8 7 6 18
M  END
$$$$
