
     RDKit          3D

 19 19  0  0  0  0  0  0  0  0999 V2000
   -1.0755    1.7459   -1.4292 C   0  0  0  0  0  0  0  0  0  0  0  0
   -0.8978    1.2513    0.0259 C   0  0  0  0  0  0  0  0  0  0  0  0
   -2.2221    1.1077    0.7344 C   0  0  0  0  0  0  0  0  0  0  0  0
   -2.7268   -0.0442    1.1770 C   0  0  0  0  0  0  0  0  0  0  0  0
   -2.0145   -1.3677    1.0534 C   0  0  0  0  0  0  0  0  0  0  0  0
   -1.5044   -1.7961    2.3156 O   0  0  0  0  0  0  0  0  0  0  0  0
   -0.9172   -1.3214   -0.0316 C   0  0  0  0  0  0  0  0  0  0  0  0
   -0.0946   -0.0496    0.0463 C   0  0  0  0  0  0  0  0  0  0  0  0
    1.1127   -0.0469    0.1151 O   0  0  0  0  0  0  0  0  0  0  0  0
   -1.6489    1.0293   -2.0253 H   0  0  0  0  0  0  0  0  0  0  0  0
   -1.6155    2.6977   -1.4424 H   0  0  0  0  0  0  0  0  0  0  0  0
   -0.1013    1.8953   -1.9025 H   0  0  0  0  0  0  0  0  0  0  0  0
   -0.2843    1.9952    0.5491 H   0  0  0  0  0  0  0  0  0  0  0  0
   -2.7804    2.0312    0.8787 H   0  0  0  0  0  0  0  0  0  0  0  0
   -3.6772   -0.0578    1.7036 H   0  0  0  0  0  0  0  0  0  0  0  0
   -2.7327   -2.1495    0.7826 H   0  0  0  0  0  0  0  0  0  0  0  0
   -0.9826   -1.0739    2.6835 H   0  0  0  0  0  0  0  0  0  0  0  0
   -0.2606   -2.1893    0.0525 H   0  0  0  0  0  0  0  0  0  0  0  0
   -1.4079   -1.3447   -1.0140 H   0  0  0  0  0  0  0  0  0  0  0  0
  1  2  1  0
  2  3  1  0
  3  4  2  0
  4  5  1  0
  5  6  1  0
  5  7  1  0
  7  8  1  0
  8  9  2  0
  8  2  1  0
  1 10  1  0
  1 11  1  0
  1 12  1  0
  2 13  1  0
  3 14  1  0
  4 15  1  0
  5 16  1  0
  6 17  1  0
  7 18  1  0
  7 19  1  0
M  END
$$$$
