
     RDKit          3D

 19 21  0  0  0  0  0  0  0  0999 V2000
    0.6220    0.4051    0.5823 O   0  0  0  0  0  0  0  0  0  0  0  0
   -0.7494    0.6095    0.7847 C   0  0  0  0  0  0  0  0  0  0  0  0
   -1.3198    0.6943    2.2346 C   0  0  0  0  0  0  0  0  0  0  0  0
   -2.5725   -0.0245    1.7004 C   0  0  0  0  0  0  0  0  0  0  0  0
   -3.3210    0.7174    0.5344 C   0  0  0  0  0  0  0  0  0  0  0  0
   -2.7015    2.0774    0.2326 C   0  0  0  0  0  0  0  0  0  0  0  0
   -1.1909    1.8387   -0.0137 C   0  0  0  0  0  0  0  0  0  0  0  0
   -2.7988   -0.2344   -0.4503 O   0  0  0  0  0  0  0  0  0  0  0  0
   -1.7819   -0.5705    0.5007 C   0  0  0  0  0  0  0  0  0  0  0  0
    0.8960   -0.3615    1.0963 H   0  0  0  0  0  0  0  0  0  0  0  0
   -0.7750    0.0348    2.9198 H   0  0  0  0  0  0  0  0  0  0  0  0
   -1.4067    1.6835    2.6933 H   0  0  0  0  0  0  0  0  0  0  0  0
   -3.1923   -0.6390    2.3517 H   0  0  0  0  0  0  0  0  0  0  0  0
   -4.4133    0.7118    0.5556 H   0  0  0  0  0  0  0  0  0  0  0  0
   -3.1736    2.5245   -0.6472 H   0  0  0  0  0  0  0  0  0  0  0  0
   -2.8729    2.7588    1.0738 H   0  0  0  0  0  0  0  0  0  0  0  0
   -1.0059    1.6469   -1.0734 H   0  0  0  0  0  0  0  0  0  0  0  0
   -0.5871    2.7016    0.2820 H   0  0  0  0  0  0  0  0  0  0  0  0
   -1.3720   -1.5778    0.3859 H   0  0  0  0  0  0  0  0  0  0  0  0
  1  2  1  0
  2  3  1  0
  3  4  1  0
  4  5  1  0
  5  6  1  0
  6  7  1  0
  5  8  1  0
  8  9  1  0
  7  2  1  0
  9  2  1  0
  9  4  1  0
  1 10  1  0
  3 11  1  0
  3 12  1  0
  4 13  1  0
  5 14  1  0
  6 15  1  0
  6 16  1  0
  7 17  1  0
  7 18  1  0
  9 19  1  0
M  END
$$$$
