
     RDKit          3D

 19 20  0  0  0  0  0  0  0  0999 V2000
    1.5032   -0.3089    0.0676 C   0  0  0  0  0  0  0  0  0  0  0  0
    0.1653    0.1284   -0.0668 O   0  0  0  0  0  0  0  0  0  0  0  0
   -0.3827    0.6433    1.1012 C   0  0  0  0  0  0  0  0  0  0  0  0
   -1.9209    0.9013    1.0076 C   0  0  0  0  0  0  0  0  0  0  0  0
   -1.6290    2.1151    0.2573 O   0  0  0  0  0  0  0  0  0  0  0  0
   -0.4972    2.2349    1.1851 C   0  0  0  0  0  0  0  0  0  0  0  0
    0.5768    3.1886    0.7520 C   0  0  0  0  0  0  0  0  0  0  0  0
   -1.2135    2.3524    2.5351 C   0  0  0  0  0  0  0  0  0  0  0  0
   -2.1856    1.4408    2.4166 C   0  0  0  0  0  0  0  0  0  0  0  0
    1.5985   -1.0829    0.8439 H   0  0  0  0  0  0  0  0  0  0  0  0
    1.7991   -0.7335   -0.8942 H   0  0  0  0  0  0  0  0  0  0  0  0
    2.1865    0.5158    0.3146 H   0  0  0  0  0  0  0  0  0  0  0  0
   -0.0095    0.1234    1.9936 H   0  0  0  0  0  0  0  0  0  0  0  0
   -2.6116    0.2143    0.5220 H   0  0  0  0  0  0  0  0  0  0  0  0
    1.3770    3.2389    1.4974 H   0  0  0  0  0  0  0  0  0  0  0  0
    1.0003    2.8694   -0.2039 H   0  0  0  0  0  0  0  0  0  0  0  0
    0.1629    4.1939    0.6242 H   0  0  0  0  0  0  0  0  0  0  0  0
   -0.9324    2.9821    3.3673 H   0  0  0  0  0  0  0  0  0  0  0  0
   -2.9339    1.1070    3.1202 H   0  0  0  0  0  0  0  0  0  0  0  0
  1  2  1  0
  2  3  1  0
  3  4  1  0
  4  5  1  0
  5  6  1  0
  6  7  1  0
  6  8  1  0
  8  9  2  0
  6  3  1  0
  9  4  1  0
  1 10  1  0
  1 11  1  0
  1 12  1  0
  3 13  1  0
  4 14  1  0
  7 15  1  0
  7 16  1  0
  7 17  1  0
  8 18  1  0
  9 19  1  0
M  END
$$$$
