
     RDKit          3D

 19 20  0  0  0  0  0  0  0  0999 V2000
    1.3573    0.7176   -0.4912 C   0  0  0  0  0  0  0  0  0  0  0  0
    0.0453    0.1329   -0.0795 C   0  0  0  0  0  0  0  0  0  0  0  0
   -0.2505   -1.1446    0.1787 C   0  0  0  0  0  0  0  0  0  0  0  0
   -1.6787   -1.3276    0.5424 C   0  0  0  0  0  0  0  0  0  0  0  0
   -2.4403   -2.5592    0.2738 C   0  0  0  0  0  0  0  0  0  0  0  0
   -2.0027   -2.2500    1.5968 O   0  0  0  0  0  0  0  0  0  0  0  0
   -2.2803    0.0772    0.6036 C   0  0  0  0  0  0  0  0  0  0  0  0
   -1.1934    1.0121    0.0148 C   0  0  0  0  0  0  0  0  0  0  0  0
   -1.5327    1.5717   -1.2559 O   0  0  0  0  0  0  0  0  0  0  0  0
    1.7190    1.4289    0.2624 H   0  0  0  0  0  0  0  0  0  0  0  0
    2.1231   -0.0492   -0.6324 H   0  0  0  0  0  0  0  0  0  0  0  0
    1.2458    1.2832   -1.4230 H   0  0  0  0  0  0  0  0  0  0  0  0
    0.4424   -1.9785    0.1446 H   0  0  0  0  0  0  0  0  0  0  0  0
   -3.5159   -2.4961    0.1073 H   0  0  0  0  0  0  0  0  0  0  0  0
   -1.9516   -3.4134   -0.1956 H   0  0  0  0  0  0  0  0  0  0  0  0
   -3.2165    0.1807    0.0494 H   0  0  0  0  0  0  0  0  0  0  0  0
   -2.4858    0.3207    1.6500 H   0  0  0  0  0  0  0  0  0  0  0  0
   -1.0242    1.8900    0.6477 H   0  0  0  0  0  0  0  0  0  0  0  0
   -1.6143    0.8401   -1.8787 H   0  0  0  0  0  0  0  0  0  0  0  0
  1  2  1  0
  2  3  2  0
  3  4  1  0
  4  5  1  0
  5  6  1  0
  4  7  1  0
  7  8  1  0
  8  9  1  0
  8  2  1  0
  6  4  1  0
  1 10  1  0
  1 11  1  0
  1 12  1  0
  3 13  1  0
  5 14  1  0
  5 15  1  0
  7 16  1  0
  7 17  1  0
  8 18  1  0
  9 19  1  0
M  END
$$$$
