
     RDKit          3D

 19 21  0  0  0  0  0  0  0  0999 V2000
    1.4199    1.3709   -0.1093 C   0  0  0  0  0  0  0  0  0  0  0  0
    1.1807   -0.1288   -0.0453 C   0  0  0  0  0  0  0  0  0  0  0  0
    2.0251   -1.0095   -1.0251 C   0  0  0  0  0  0  0  0  0  0  0  0
    3.1385   -0.9000   -0.1011 O   0  0  0  0  0  0  0  0  0  0  0  0
    2.1084   -0.9416    0.9185 C   0  0  0  0  0  0  0  0  0  0  0  0
    1.5205   -2.3809    0.7598 C   0  0  0  0  0  0  0  0  0  0  0  0
    0.5876   -2.9868    1.7620 C   0  0  0  0  0  0  0  0  0  0  0  0
    2.3930   -3.2439    0.0199 O   0  0  0  0  0  0  0  0  0  0  0  0
    1.4693   -2.4265   -0.7038 C   0  0  0  0  0  0  0  0  0  0  0  0
    1.0058    1.8701    0.7734 H   0  0  0  0  0  0  0  0  0  0  0  0
    2.4891    1.5904   -0.1601 H   0  0  0  0  0  0  0  0  0  0  0  0
    0.9355    1.8059   -0.9902 H   0  0  0  0  0  0  0  0  0  0  0  0
    0.1116   -0.3667    0.0069 H   0  0  0  0  0  0  0  0  0  0  0  0
    2.2585   -0.7309   -2.0526 H   0  0  0  0  0  0  0  0  0  0  0  0
    2.4259   -0.5902    1.9009 H   0  0  0  0  0  0  0  0  0  0  0  0
    1.1224   -3.2496    2.6816 H   0  0  0  0  0  0  0  0  0  0  0  0
   -0.2083   -2.2832    2.0297 H   0  0  0  0  0  0  0  0  0  0  0  0
    0.1295   -3.8962    1.3649 H   0  0  0  0  0  0  0  0  0  0  0  0
    0.7171   -2.9249   -1.3059 H   0  0  0  0  0  0  0  0  0  0  0  0
  1  2  1  0
  2  3  1  0
  3  4  1  0
  4  5  1  0
  5  6  1  0
  6  7  1  0
  6  8  1  0
  8  9  1  0
  5  2  1  0
  9  6  1  0
  9  3  1  0
  1 10  1  0
  1 11  1  0
  1 12  1  0
  2 13  1  0
  3 14  1  0
  5 15  1  0
  7 16  1  0
  7 17  1  0
  7 18  1  0
  9 19  1  0
M  END
$$$$
