gdb 5227	2.7023856	1.5555621	1.1554868	2.2889	75.04	-0.23267	0.07581	0.30848	1100.9067	0.156101	-422.4962	-422.487712	-422.486768	-422.529105	32.416
 OpenBabel02181911423D

 19 21  0  0  1  0  0  0  0  0999 V2000
   -2.9706   -1.4466   -0.2165 C   0  0  0  0  0  0  0  0  0  0  0  0
   -2.4896   -0.6525    0.9611 C   0  0  2  0  0  0  0  0  0  0  0  0
   -3.2834    0.3678    1.7880 C   0  0  0  0  0  0  0  0  0  0  0  0
   -2.1063    0.2887    2.7887 C   0  0  2  0  0  0  0  0  0  0  0  0
   -1.0062    0.9054    2.0556 O   0  0  0  0  0  0  0  0  0  0  0  0
   -1.0184   -0.2695    1.2252 C   0  0  2  0  0  0  0  0  0  0  0  0
    0.1815   -0.4717    0.3637 C   0  0  0  0  0  0  0  0  0  0  0  0
    1.3722   -0.5301    1.1294 O   0  0  0  0  0  0  0  0  0  0  0  0
   -1.7405   -1.1259    2.2154 C   0  0  2  0  0  0  0  0  0  0  0  0
   -3.8965   -1.9824    0.0217 H   0  0  0  0  0  0  0  0  0  0  0  0
   -3.1728   -0.7984   -1.0769 H   0  0  0  0  0  0  0  0  0  0  0  0
   -2.2322   -2.1922   -0.5292 H   0  0  0  0  0  0  0  0  0  0  0  0
   -3.4973    1.3541    1.3630 H   0  0  0  0  0  0  0  0  0  0  0  0
   -4.1937   -0.0841    2.1925 H   0  0  0  0  0  0  0  0  0  0  0  0
   -2.1723    0.6078    3.8263 H   0  0  0  0  0  0  0  0  0  0  0  0
    0.1007   -1.4163   -0.1833 H   0  0  0  0  0  0  0  0  0  0  0  0
    0.2269    0.3405   -0.3808 H   0  0  0  0  0  0  0  0  0  0  0  0
    1.3096    0.1846    1.7741 H   0  0  0  0  0  0  0  0  0  0  0  0
   -1.5427   -2.0996    2.6417 H   0  0  0  0  0  0  0  0  0  0  0  0
  1 10  1  0  0  0  0
  2  1  1  6  0  0  0
  2  6  1  0  0  0  0
  2  3  1  0  0  0  0
  2  9  1  0  0  0  0
  3 14  1  0  0  0  0
  3  4  1  0  0  0  0
  4 15  1  1  0  0  0
  5  4  1  0  0  0  0
  6  7  1  6  0  0  0
  6  5  1  0  0  0  0
  6  9  1  0  0  0  0
  7  8  1  0  0  0  0
  8 18  1  0  0  0  0
  9 19  1  1  0  0  0
  9  4  1  0  0  0  0
 11  1  1  0  0  0  0
 12  1  1  0  0  0  0
 13  3  1  0  0  0  0
 16  7  1  0  0  0  0
 17  7  1  0  0  0  0
M TOR 0 0 1 2 3
M TOR 1 0 1 2 12
M TOR 2 0 1 2 13
M TOR 3 0 1 5 4
M TOR 4 0 1 5 6
M TOR 5 0 1 5 8
M TOR 6 0 1 8 3
M TOR 7 0 1 8 18
M TOR 8 1 2 3 4
M TOR 9 1 2 3 8
M TOR 10 1 2 3 14
M TOR 11 1 5 4 3
M TOR 12 1 5 6 7
M TOR 13 1 5 6 15
M TOR 14 1 5 6 16
M TOR 15 1 5 8 3
M TOR 16 1 5 8 18
M TOR 17 1 8 3 4
M TOR 18 1 8 3 14
M TOR 19 1 8 5 4
M TOR 20 1 8 5 6
M TOR 21 2 1 0 9
M TOR 22 2 1 0 10
M TOR 23 2 1 0 11
M TOR 24 2 1 5 4
M TOR 25 2 1 5 6
M TOR 26 2 1 5 8
M TOR 27 2 1 8 18
M TOR 28 2 3 4 5
M TOR 29 2 3 8 5
M TOR 30 2 3 8 18
M TOR 31 3 2 1 5
M TOR 32 3 4 5 6
M TOR 33 3 4 5 8
M TOR 34 3 8 5 6
M TOR 35 4 3 2 12
M TOR 36 4 3 2 13
M TOR 37 4 3 8 18
M TOR 38 4 5 6 7
M TOR 39 4 5 6 15
M TOR 40 4 5 6 16
M TOR 41 4 5 8 18
M TOR 42 5 1 0 9
M TOR 43 5 1 0 10
M TOR 44 5 1 0 11
M TOR 45 5 1 2 12
M TOR 46 5 1 2 13
M TOR 47 5 4 3 14
M TOR 48 5 6 7 17
M TOR 49 5 8 3 14
M TOR 50 6 5 8 18
M TOR 51 7 6 5 8
M TOR 52 8 1 0 9
M TOR 53 8 1 0 10
M TOR 54 8 1 0 11
M TOR 55 8 1 2 12
M TOR 56 8 1 2 13
M TOR 57 8 3 2 12
M TOR 58 8 3 2 13
M TOR 59 8 5 6 15
M TOR 60 8 5 6 16
M  END
$$$$
