gdb 3948	2.6631439	1.7297515	1.5638214	1.1562	73.93	-0.23974	0.03861	0.27835	970.1472	0.156459	-422.471645	-422.463756	-422.462812	-422.50358	30.958
 OpenBabel02181911413D

 19 21  0  0  1  0  0  0  0  0999 V2000
    0.3586    0.6020   -0.0339 C   0  0  0  0  0  0  0  0  0  0  0  0
    0.9869   -0.7707   -0.0888 C   0  0  1  0  0  0  0  0  0  0  0  0
    1.9400   -0.9209   -1.2166 O   0  0  0  0  0  0  0  0  0  0  0  0
    2.9868   -1.2752   -0.2953 C   0  0  2  0  0  0  0  0  0  0  0  0
    3.2507   -2.7697    0.0403 C   0  0  0  0  0  0  0  0  0  0  0  0
    2.4221   -2.5648    1.3746 C   0  0  0  0  0  0  0  0  0  0  0  0
    2.1277   -1.1135    0.9075 C   0  0  2  0  0  0  0  0  0  0  0  0
    2.9101   -0.0250    1.4404 O   0  0  0  0  0  0  0  0  0  0  0  0
    3.8305   -0.1264    0.2937 C   0  0  0  0  0  0  0  0  0  0  0  0
   -0.3893    0.6421    0.7654 H   0  0  0  0  0  0  0  0  0  0  0  0
    1.1133    1.3671    0.1612 H   0  0  0  0  0  0  0  0  0  0  0  0
   -0.1386    0.8229   -0.9831 H   0  0  0  0  0  0  0  0  0  0  0  0
    0.2211   -1.5547   -0.1527 H   0  0  0  0  0  0  0  0  0  0  0  0
    2.7793   -3.4409   -0.6794 H   0  0  0  0  0  0  0  0  0  0  0  0
    4.2956   -3.0617    0.1677 H   0  0  0  0  0  0  0  0  0  0  0  0
    1.5561   -3.2177    1.5061 H   0  0  0  0  0  0  0  0  0  0  0  0
    3.0278   -2.5893    2.2819 H   0  0  0  0  0  0  0  0  0  0  0  0
    3.8428    0.7909   -0.3029 H   0  0  0  0  0  0  0  0  0  0  0  0
    4.8459   -0.3789    0.6204 H   0  0  0  0  0  0  0  0  0  0  0  0
  1 11  1  0  0  0  0
  1 10  1  0  0  0  0
  2 13  1  6  0  0  0
  2  1  1  0  0  0  0
  2  7  1  0  0  0  0
  3  2  1  0  0  0  0
  4  3  1  6  0  0  0
  4  5  1  0  0  0  0
  4  9  1  0  0  0  0
  4  7  1  0  0  0  0
  5 15  1  0  0  0  0
  5  6  1  0  0  0  0
  6 16  1  0  0  0  0
  6 17  1  0  0  0  0
  7  6  1  0  0  0  0
  7  8  1  1  0  0  0
  9 19  1  0  0  0  0
  9  8  1  0  0  0  0
 12  1  1  0  0  0  0
 14  5  1  0  0  0  0
 18  9  1  0  0  0  0
M TOR 0 0 1 2 3
M TOR 1 0 1 6 3
M TOR 2 0 1 6 5
M TOR 3 0 1 6 7
M TOR 4 1 2 3 4
M TOR 5 1 2 3 6
M TOR 6 1 2 3 8
M TOR 7 1 6 3 4
M TOR 8 1 6 3 8
M TOR 9 1 6 5 4
M TOR 10 1 6 5 15
M TOR 11 1 6 5 16
M TOR 12 1 6 7 8
M TOR 13 2 1 0 9
M TOR 14 2 1 0 10
M TOR 15 2 1 0 11
M TOR 16 2 1 6 5
M TOR 17 2 1 6 7
M TOR 18 2 3 4 5
M TOR 19 2 3 4 13
M TOR 20 2 3 4 14
M TOR 21 2 3 6 5
M TOR 22 2 3 6 7
M TOR 23 2 3 8 7
M TOR 24 2 3 8 17
M TOR 25 2 3 8 18
M TOR 26 3 2 1 12
M TOR 27 3 4 5 6
M TOR 28 3 4 5 15
M TOR 29 3 4 5 16
M TOR 30 3 6 1 12
M TOR 31 3 6 5 15
M TOR 32 3 6 5 16
M TOR 33 3 6 7 8
M TOR 34 4 3 6 7
M TOR 35 4 3 8 7
M TOR 36 4 3 8 17
M TOR 37 4 3 8 18
M TOR 38 4 5 6 7
M TOR 39 5 4 3 8
M TOR 40 5 6 1 12
M TOR 41 5 6 3 8
M TOR 42 5 6 7 8
M TOR 43 6 1 0 9
M TOR 44 6 1 0 10
M TOR 45 6 1 0 11
M TOR 46 6 3 4 13
M TOR 47 6 3 4 14
M TOR 48 6 3 8 17
M TOR 49 6 3 8 18
M TOR 50 6 5 4 13
M TOR 51 6 5 4 14
M TOR 52 6 7 8 17
M TOR 53 6 7 8 18
M TOR 54 7 6 1 12
M TOR 55 7 6 5 15
M TOR 56 7 6 5 16
M TOR 57 8 3 4 13
M TOR 58 8 3 4 14
M  END
$$$$
