
     RDKit          3D

 19 18  0  0  0  0  0  0  0  0999 V2000
    2.1451   -0.1460    1.3282 C   0  0  0  0  0  0  0  0  0  0  0  0
    1.3631   -0.0378    0.0042 C   0  0  0  0  0  0  0  0  0  0  0  0
   -0.0632   -0.6074    0.1438 C   0  0  0  0  0  0  0  0  0  0  0  0
    2.0790   -0.6953   -1.0890 C   0  0  0  0  0  0  0  0  0  0  0  0
    2.6616   -1.2562   -1.9811 C   0  0  0  0  0  0  0  0  0  0  0  0
    3.3924   -1.8961   -3.0580 C   0  0  0  0  0  0  0  0  0  0  0  0
    2.6794   -3.0935   -3.4668 O   0  0  0  0  0  0  0  0  0  0  0  0
    3.2571   -3.7769   -4.4618 C   0  0  0  0  0  0  0  0  0  0  0  0
    4.2800   -3.4847   -5.0187 O   0  0  0  0  0  0  0  0  0  0  0  0
    2.2495   -1.1929    1.6290 H   0  0  0  0  0  0  0  0  0  0  0  0
    3.1469    0.2805    1.2308 H   0  0  0  0  0  0  0  0  0  0  0  0
    1.6170    0.3893    2.1236 H   0  0  0  0  0  0  0  0  0  0  0  0
    1.2747    1.0280   -0.2490 H   0  0  0  0  0  0  0  0  0  0  0  0
   -0.6036   -0.0780    0.9347 H   0  0  0  0  0  0  0  0  0  0  0  0
   -0.6227   -0.5025   -0.7892 H   0  0  0  0  0  0  0  0  0  0  0  0
   -0.0297   -1.6702    0.4019 H   0  0  0  0  0  0  0  0  0  0  0  0
    3.4952   -1.2375   -3.9272 H   0  0  0  0  0  0  0  0  0  0  0  0
    4.4041   -2.1808   -2.7499 H   0  0  0  0  0  0  0  0  0  0  0  0
    2.6380   -4.6584   -4.6900 H   0  0  0  0  0  0  0  0  0  0  0  0
  1  2  1  0
  2  3  1  0
  2  4  1  0
  4  5  3  0
  5  6  1  0
  6  7  1  0
  7  8  1  0
  8  9  2  0
  1 10  1  0
  1 11  1  0
  1 12  1  0
  2 13  1  0
  3 14  1  0
  3 15  1  0
  3 16  1  0
  6 17  1  0
  6 18  1  0
  8 19  1  0
M  END
$$$$
