gdb 2543	2.8463247	1.540224	1.2959307	1.5629	75.99	-0.23597	0.01298	0.24895	1050.7555	0.157311	-422.565704	-422.557581	-422.556637	-422.59776	32.046
 OpenBabel02181911413D

 19 20  0  0  1  0  0  0  0  0999 V2000
    1.2145    0.9206    0.2737 C   0  0  0  0  0  0  0  0  0  0  0  0
   -0.0922    0.2478    0.0195 C   0  0  0  0  0  0  0  0  0  0  0  0
   -1.3293    0.7566   -0.0517 C   0  0  0  0  0  0  0  0  0  0  0  0
   -2.3045   -0.4094   -0.1463 C   0  0  2  0  0  0  0  0  0  0  0  0
   -3.6001   -0.1699   -0.6204 O   0  0  0  0  0  0  0  0  0  0  0  0
   -2.2026   -1.1511    1.2304 C   0  0  0  0  0  0  0  0  0  0  0  0
   -0.8708   -1.6683    1.2420 O   0  0  0  0  0  0  0  0  0  0  0  0
   -0.2827   -1.2673   -0.0360 C   0  0  1  0  0  0  0  0  0  0  0  0
   -1.4735   -1.4008   -0.9919 C   0  0  0  0  0  0  0  0  0  0  0  0
    1.6483    0.5789    1.2220 H   0  0  0  0  0  0  0  0  0  0  0  0
    1.9463    0.6843   -0.5090 H   0  0  0  0  0  0  0  0  0  0  0  0
    1.1066    2.0078    0.3221 H   0  0  0  0  0  0  0  0  0  0  0  0
   -1.6282    1.7921    0.0699 H   0  0  0  0  0  0  0  0  0  0  0  0
   -4.0216    0.4760   -0.0441 H   0  0  0  0  0  0  0  0  0  0  0  0
   -2.3596   -0.4794    2.0840 H   0  0  0  0  0  0  0  0  0  0  0  0
   -2.9313   -1.9704    1.2760 H   0  0  0  0  0  0  0  0  0  0  0  0
    0.6019   -1.8815   -0.1988 H   0  0  0  0  0  0  0  0  0  0  0  0
   -1.2827   -1.0265   -1.9980 H   0  0  0  0  0  0  0  0  0  0  0  0
   -1.8911   -2.4107   -1.0225 H   0  0  0  0  0  0  0  0  0  0  0  0
  1 12  1  0  0  0  0
  1 10  1  0  0  0  0
  2  1  1  0  0  0  0
  3  2  2  0  0  0  0
  3 13  1  0  0  0  0
  4  5  1  6  0  0  0
  4  3  1  0  0  0  0
  4  6  1  0  0  0  0
  5 14  1  0  0  0  0
  6  7  1  0  0  0  0
  6 16  1  0  0  0  0
  6 15  1  0  0  0  0
  8 17  1  6  0  0  0
  8  2  1  0  0  0  0
  8  7  1  0  0  0  0
  9  4  1  0  0  0  0
  9  8  1  0  0  0  0
 11  1  1  0  0  0  0
 18  9  1  0  0  0  0
 19  9  1  0  0  0  0
M TOR 0 0 1 2 3
M TOR 1 0 1 2 12
M TOR 2 0 1 7 6
M TOR 3 0 1 7 8
M TOR 4 0 1 7 16
M TOR 5 1 2 3 4
M TOR 6 1 2 3 5
M TOR 7 1 2 3 8
M TOR 8 1 7 6 5
M TOR 9 1 7 8 3
M TOR 10 1 7 8 17
M TOR 11 1 7 8 18
M TOR 12 2 1 0 9
M TOR 13 2 1 0 10
M TOR 14 2 1 0 11
M TOR 15 2 1 7 6
M TOR 16 2 1 7 8
M TOR 17 2 1 7 16
M TOR 18 2 3 4 13
M TOR 19 2 3 5 6
M TOR 20 2 3 5 14
M TOR 21 2 3 5 15
M TOR 22 2 3 8 7
M TOR 23 2 3 8 17
M TOR 24 2 3 8 18
M TOR 25 3 2 1 7
M TOR 26 3 5 6 7
M TOR 27 3 8 7 6
M TOR 28 3 8 7 16
M TOR 29 4 3 2 12
M TOR 30 4 3 5 6
M TOR 31 4 3 5 14
M TOR 32 4 3 5 15
M TOR 33 4 3 8 7
M TOR 34 4 3 8 17
M TOR 35 4 3 8 18
M TOR 36 5 3 2 12
M TOR 37 5 3 4 13
M TOR 38 5 3 8 7
M TOR 39 5 3 8 17
M TOR 40 5 3 8 18
M TOR 41 5 6 7 8
M TOR 42 5 6 7 16
M TOR 43 6 5 3 8
M TOR 44 6 7 8 17
M TOR 45 6 7 8 18
M TOR 46 7 1 0 9
M TOR 47 7 1 0 10
M TOR 48 7 1 0 11
M TOR 49 7 1 2 12
M TOR 50 7 6 5 14
M TOR 51 7 6 5 15
M TOR 52 8 3 2 12
M TOR 53 8 3 4 13
M TOR 54 8 3 5 14
M TOR 55 8 3 5 15
M  END
$$$$
