gdb 232	2.5778629	2.1263624	1.520078	1.8858	72.55	-0.24824	0.0634	0.31164	914.6425	0.160595	-422.528851	-422.522278	-422.521334	-422.559422	27.52
 OpenBabel02181911403D

 19 21  0  0  1  0  0  0  0  0999 V2000
   -2.2381   -1.3707   -2.8854 C   0  0  0  0  0  0  0  0  0  0  0  0
   -2.9812   -1.8497   -1.6121 C   0  0  2  0  0  0  0  0  0  0  0  0
   -2.6735   -0.9962   -0.3552 C   0  0  0  0  0  0  0  0  0  0  0  0
   -1.4453   -1.9129   -0.0301 C   0  0  2  0  0  0  0  0  0  0  0  0
   -0.1448   -1.3557    0.0061 O   0  0  0  0  0  0  0  0  0  0  0  0
    0.2568   -0.7865   -1.2123 C   0  0  0  0  0  0  0  0  0  0  0  0
    0.2490   -1.6945   -2.2825 O   0  0  0  0  0  0  0  0  0  0  0  0
   -1.0170   -2.2812   -2.5186 C   0  0  1  0  0  0  0  0  0  0  0  0
   -1.7675   -2.7952   -1.2633 C   0  0  2  0  0  0  0  0  0  0  0  0
   -2.7110   -1.6861   -3.8186 H   0  0  0  0  0  0  0  0  0  0  0  0
   -2.0446   -0.2962   -2.9515 H   0  0  0  0  0  0  0  0  0  0  0  0
   -4.0022   -2.2083   -1.7347 H   0  0  0  0  0  0  0  0  0  0  0  0
   -2.4605    0.0615   -0.5348 H   0  0  0  0  0  0  0  0  0  0  0  0
   -3.4404   -1.0586    0.4205 H   0  0  0  0  0  0  0  0  0  0  0  0
   -1.5554   -2.4342    0.9222 H   0  0  0  0  0  0  0  0  0  0  0  0
   -0.3708    0.0891   -1.4499 H   0  0  0  0  0  0  0  0  0  0  0  0
    1.2928   -0.4685   -1.0811 H   0  0  0  0  0  0  0  0  0  0  0  0
   -0.8345   -3.0542   -3.2669 H   0  0  0  0  0  0  0  0  0  0  0  0
   -1.8260   -3.8731   -1.1138 H   0  0  0  0  0  0  0  0  0  0  0  0
  1  8  1  0  0  0  0
  1  2  1  0  0  0  0
  2 12  1  6  0  0  0
  2  9  1  0  0  0  0
  2  3  1  0  0  0  0
  3  4  1  0  0  0  0
  3 14  1  0  0  0  0
  4  5  1  0  0  0  0
  4 15  1  1  0  0  0
  6 17  1  0  0  0  0
  6  5  1  0  0  0  0
  7  6  1  0  0  0  0
  8 18  1  6  0  0  0
  8  7  1  0  0  0  0
  8  9  1  0  0  0  0
  9 19  1  1  0  0  0
  9  4  1  0  0  0  0
 10  1  1  0  0  0  0
 11  1  1  0  0  0  0
 13  3  1  0  0  0  0
 16  6  1  0  0  0  0
M TOR 0 0 1 2 3
M TOR 1 0 1 2 12
M TOR 2 0 1 2 13
M TOR 3 0 1 8 3
M TOR 4 0 1 8 7
M TOR 5 0 1 8 18
M TOR 6 0 7 6 5
M TOR 7 0 7 8 3
M TOR 8 0 7 8 18
M TOR 9 1 0 7 6
M TOR 10 1 0 7 17
M TOR 11 1 2 3 4
M TOR 12 1 2 3 8
M TOR 13 1 2 3 14
M TOR 14 1 8 3 4
M TOR 15 1 8 3 14
M TOR 16 1 8 7 6
M TOR 17 1 8 7 17
M TOR 18 2 1 0 7
M TOR 19 2 1 0 9
M TOR 20 2 1 0 10
M TOR 21 2 1 8 7
M TOR 22 2 1 8 18
M TOR 23 2 3 4 5
M TOR 24 2 3 8 7
M TOR 25 2 3 8 18
M TOR 26 3 2 1 11
M TOR 27 3 4 5 6
M TOR 28 3 4 5 15
M TOR 29 3 4 5 16
M TOR 30 3 8 1 11
M TOR 31 3 8 7 6
M TOR 32 3 8 7 17
M TOR 33 4 3 2 12
M TOR 34 4 3 2 13
M TOR 35 4 3 8 7
M TOR 36 4 3 8 18
M TOR 37 4 5 6 7
M TOR 38 5 4 3 8
M TOR 39 5 4 3 14
M TOR 40 5 6 7 8
M TOR 41 5 6 7 17
M TOR 42 6 7 0 9
M TOR 43 6 7 0 10
M TOR 44 6 7 8 18
M TOR 45 7 0 1 11
M TOR 46 7 6 5 15
M TOR 47 7 6 5 16
M TOR 48 7 8 1 11
M TOR 49 7 8 3 14
M TOR 50 8 1 0 9
M TOR 51 8 1 0 10
M TOR 52 8 1 2 12
M TOR 53 8 1 2 13
M TOR 54 8 3 2 12
M TOR 55 8 3 2 13
M TOR 56 8 7 0 9
M TOR 57 8 7 0 10
M  END
$$$$
