gdb 4904	1.9153136	1.5859617	1.0831441	2.1744	78.28	-0.25736	0.02087	0.27823	1197.0756	0.152166	-422.509175	-422.498576	-422.497632	-422.54454	38.263
 OpenBabel02181911413D

 19 19  0  0  1  0  0  0  0  0999 V2000
   -0.0992    0.1084    0.1666 C   0  0  0  0  0  0  0  0  0  0  0  0
    1.4109   -0.0318    0.1503 C   0  0  0  0  0  0  0  0  0  0  0  0
    2.0109   -0.3623    1.5011 C   0  0  0  0  0  0  0  0  0  0  0  0
    2.1223    0.9673   -0.5929 O   0  0  0  0  0  0  0  0  0  0  0  0
    2.1569   -0.3829   -1.0981 C   0  0  2  0  0  0  0  0  0  0  0  0
    1.4484   -0.5902   -2.4355 C   0  0  0  0  0  0  0  0  0  0  0  0
    1.0423   -1.9303   -2.6309 O   0  0  0  0  0  0  0  0  0  0  0  0
    3.4278   -1.0665   -1.0075 C   0  0  0  0  0  0  0  0  0  0  0  0
    4.4801   -1.6475   -0.9875 C   0  0  0  0  0  0  0  0  0  0  0  0
   -0.3813    0.9026    0.8662 H   0  0  0  0  0  0  0  0  0  0  0  0
   -0.5126    0.3660   -0.8087 H   0  0  0  0  0  0  0  0  0  0  0  0
   -0.5675   -0.8175    0.5183 H   0  0  0  0  0  0  0  0  0  0  0  0
    1.6111   -1.3087    1.8805 H   0  0  0  0  0  0  0  0  0  0  0  0
    3.0964   -0.4415    1.4414 H   0  0  0  0  0  0  0  0  0  0  0  0
    1.7547    0.4229    2.2204 H   0  0  0  0  0  0  0  0  0  0  0  0
    0.6183    0.1219   -2.5162 H   0  0  0  0  0  0  0  0  0  0  0  0
    2.1513   -0.3668   -3.2433 H   0  0  0  0  0  0  0  0  0  0  0  0
    0.4073   -2.1523   -1.9422 H   0  0  0  0  0  0  0  0  0  0  0  0
    5.4105   -2.1593   -0.9628 H   0  0  0  0  0  0  0  0  0  0  0  0
  1 12  1  0  0  0  0
  1 10  1  0  0  0  0
  2  1  1  0  0  0  0
  2  3  1  0  0  0  0
  3 13  1  0  0  0  0
  3 15  1  0  0  0  0
  4  2  1  0  0  0  0
  5  8  1  1  0  0  0
  5  4  1  0  0  0  0
  5  2  1  0  0  0  0
  6  5  1  0  0  0  0
  7  6  1  0  0  0  0
  7 18  1  0  0  0  0
  8  9  3  0  0  0  0
  9 19  1  0  0  0  0
 11  1  1  0  0  0  0
 14  3  1  0  0  0  0
 16  6  1  0  0  0  0
 17  6  1  0  0  0  0
M TOR 0 0 1 2 12
M TOR 1 0 1 2 13
M TOR 2 0 1 2 14
M TOR 3 0 1 3 4
M TOR 4 0 1 4 5
M TOR 5 0 1 4 7
M TOR 6 1 3 4 5
M TOR 7 1 3 4 7
M TOR 8 1 4 5 6
M TOR 9 1 4 5 15
M TOR 10 1 4 5 16
M TOR 11 1 4 7 8
M TOR 12 2 1 0 9
M TOR 13 2 1 0 10
M TOR 14 2 1 0 11
M TOR 15 2 1 3 4
M TOR 16 2 1 4 5
M TOR 17 2 1 4 7
M TOR 18 3 1 0 9
M TOR 19 3 1 0 10
M TOR 20 3 1 0 11
M TOR 21 3 1 2 12
M TOR 22 3 1 2 13
M TOR 23 3 1 2 14
M TOR 24 3 4 5 6
M TOR 25 3 4 5 15
M TOR 26 3 4 5 16
M TOR 27 3 4 7 8
M TOR 28 4 1 0 9
M TOR 29 4 1 0 10
M TOR 30 4 1 0 11
M TOR 31 4 1 2 12
M TOR 32 4 1 2 13
M TOR 33 4 1 2 14
M TOR 34 4 5 6 17
M TOR 35 4 7 8 18
M TOR 36 5 4 7 8
M TOR 37 6 5 4 7
M TOR 38 7 4 5 15
M TOR 39 7 4 5 16
M  END
$$$$
