gdb 1855	2.667829	1.8997313	1.5824574	1.9434	74.57	-0.24866	0.00278	0.25144	939.5301	0.158501	-422.57517	-422.56778	-422.566835	-422.606307	30.271
 OpenBabel02181911403D

 19 20  0  0  1  0  0  0  0  0999 V2000
    0.0928   -0.3515    0.1082 C   0  0  0  0  0  0  0  0  0  0  0  0
    1.5392    0.0554   -0.0434 C   0  0  1  0  0  0  0  0  0  0  0  0
    2.3522   -0.6627    0.8725 O   0  0  0  0  0  0  0  0  0  0  0  0
    3.5934    0.0531    0.8351 C   0  0  1  0  0  0  0  0  0  0  0  0
    4.2637   -0.3685   -0.4875 C   0  0  0  0  0  0  0  0  0  0  0  0
    3.3144   -0.0134   -1.6535 C   0  0  0  0  0  0  0  0  0  0  0  0
    1.9381   -0.2821   -1.3719 O   0  0  0  0  0  0  0  0  0  0  0  0
    3.1375    1.5058    0.7757 C   0  0  0  0  0  0  0  0  0  0  0  0
    1.9103    1.5093    0.2665 C   0  0  0  0  0  0  0  0  0  0  0  0
   -0.2521   -0.1301    1.1206 H   0  0  0  0  0  0  0  0  0  0  0  0
   -0.5267    0.1884   -0.6119 H   0  0  0  0  0  0  0  0  0  0  0  0
   -0.0057   -1.4234   -0.0785 H   0  0  0  0  0  0  0  0  0  0  0  0
    4.1835   -0.2137    1.7152 H   0  0  0  0  0  0  0  0  0  0  0  0
    5.2291    0.1266   -0.6422 H   0  0  0  0  0  0  0  0  0  0  0  0
    4.4370   -1.4480   -0.4419 H   0  0  0  0  0  0  0  0  0  0  0  0
    3.4389    1.0473   -1.9087 H   0  0  0  0  0  0  0  0  0  0  0  0
    3.5543   -0.5997   -2.5445 H   0  0  0  0  0  0  0  0  0  0  0  0
    3.7612    2.3544    1.0253 H   0  0  0  0  0  0  0  0  0  0  0  0
    1.2942    2.3572   -0.0012 H   0  0  0  0  0  0  0  0  0  0  0  0
  1 10  1  0  0  0  0
  2  1  1  1  0  0  0
  2  9  1  0  0  0  0
  2  3  1  0  0  0  0
  4  3  1  0  0  0  0
  4 13  1  1  0  0  0
  5 15  1  0  0  0  0
  5  4  1  0  0  0  0
  6  7  1  0  0  0  0
  6  5  1  0  0  0  0
  7  2  1  0  0  0  0
  8  4  1  0  0  0  0
  8 18  1  0  0  0  0
  9  8  2  0  0  0  0
 11  1  1  0  0  0  0
 12  1  1  0  0  0  0
 14  5  1  0  0  0  0
 16  6  1  0  0  0  0
 17  6  1  0  0  0  0
 19  9  1  0  0  0  0
M TOR 0 0 1 2 3
M TOR 1 0 1 6 5
M TOR 2 0 1 8 7
M TOR 3 0 1 8 18
M TOR 4 1 2 3 4
M TOR 5 1 2 3 7
M TOR 6 1 2 3 12
M TOR 7 1 6 5 4
M TOR 8 1 6 5 15
M TOR 9 1 6 5 16
M TOR 10 1 8 7 3
M TOR 11 1 8 7 17
M TOR 12 2 1 0 9
M TOR 13 2 1 0 10
M TOR 14 2 1 0 11
M TOR 15 2 1 6 5
M TOR 16 2 1 8 7
M TOR 17 2 1 8 18
M TOR 18 2 3 4 5
M TOR 19 2 3 4 13
M TOR 20 2 3 4 14
M TOR 21 2 3 7 8
M TOR 22 2 3 7 17
M TOR 23 3 2 1 6
M TOR 24 3 2 1 8
M TOR 25 3 4 5 6
M TOR 26 3 4 5 15
M TOR 27 3 4 5 16
M TOR 28 3 7 8 18
M TOR 29 4 3 7 8
M TOR 30 4 3 7 17
M TOR 31 5 4 3 7
M TOR 32 5 4 3 12
M TOR 33 5 6 1 8
M TOR 34 6 1 0 9
M TOR 35 6 1 0 10
M TOR 36 6 1 0 11
M TOR 37 6 1 8 7
M TOR 38 6 1 8 18
M TOR 39 6 5 4 13
M TOR 40 6 5 4 14
M TOR 41 7 3 4 13
M TOR 42 7 3 4 14
M TOR 43 8 1 0 9
M TOR 44 8 1 0 10
M TOR 45 8 1 0 11
M TOR 46 8 7 3 12
M  END
$$$$
