gdb 3343	2.4735596	1.5084339	1.1050417	2.2944	76.54	-0.22314	0.0653	0.28844000000000003	1144.7742	0.156329	-422.490635	-422.482175	-422.481231	-422.523725	32.288
 OpenBabel02181911413D

 19 21  0  0  1  0  0  0  0  0999 V2000
    2.2198    0.3668    2.5003 O   0  0  0  0  0  0  0  0  0  0  0  0
    1.2133    1.2962    2.7692 C   0  0  1  0  0  0  0  0  0  0  0  0
    1.5788    2.7572    2.5354 C   0  0  2  0  0  0  0  0  0  0  0  0
    0.3486    3.6079    2.7914 C   0  0  0  0  0  0  0  0  0  0  0  0
   -0.4605    2.7735    1.9129 O   0  0  0  0  0  0  0  0  0  0  0  0
    0.6909    1.9969    1.5531 C   0  0  2  0  0  0  0  0  0  0  0  0
    0.8248    1.5406    0.1549 C   0  0  0  0  0  0  0  0  0  0  0  0
   -0.4257    1.2620   -0.6485 C   0  0  0  0  0  0  0  0  0  0  0  0
    0.4377    2.4504   -0.9847 C   0  0  0  0  0  0  0  0  0  0  0  0
    2.8997    0.4523    3.1772 H   0  0  0  0  0  0  0  0  0  0  0  0
    0.5162    1.0301    3.5679 H   0  0  0  0  0  0  0  0  0  0  0  0
    2.6050    3.0890    2.4452 H   0  0  0  0  0  0  0  0  0  0  0  0
   -0.0527    3.6342    3.8120 H   0  0  0  0  0  0  0  0  0  0  0  0
    0.4192    4.6277    2.3966 H   0  0  0  0  0  0  0  0  0  0  0  0
    1.6658    0.8731    0.0060 H   0  0  0  0  0  0  0  0  0  0  0  0
   -0.4191    0.4051   -1.3126 H   0  0  0  0  0  0  0  0  0  0  0  0
   -1.3781    1.4599   -0.1705 H   0  0  0  0  0  0  0  0  0  0  0  0
    1.0387    2.4212   -1.8867 H   0  0  0  0  0  0  0  0  0  0  0  0
    0.0496    3.4293   -0.7264 H   0  0  0  0  0  0  0  0  0  0  0  0
  1  2  1  0  0  0  0
  1 10  1  0  0  0  0
  2 11  1  1  0  0  0
  3 12  1  6  0  0  0
  3  2  1  0  0  0  0
  3  4  1  0  0  0  0
  4 13  1  0  0  0  0
  5  4  1  0  0  0  0
  6  7  1  6  0  0  0
  6  5  1  0  0  0  0
  6  3  1  0  0  0  0
  6  2  1  0  0  0  0
  8 17  1  0  0  0  0
  8  7  1  0  0  0  0
  9 19  1  0  0  0  0
  9  8  1  0  0  0  0
  9  7  1  0  0  0  0
 14  4  1  0  0  0  0
 15  7  1  0  0  0  0
 16  8  1  0  0  0  0
 18  9  1  0  0  0  0
M TOR 0 0 1 2 3
M TOR 1 0 1 2 5
M TOR 2 0 1 2 11
M TOR 3 0 1 5 4
M TOR 4 0 1 5 6
M TOR 5 1 2 3 4
M TOR 6 1 2 3 12
M TOR 7 1 2 3 13
M TOR 8 1 2 5 4
M TOR 9 1 2 5 6
M TOR 10 1 5 2 3
M TOR 11 1 5 2 11
M TOR 12 1 5 4 3
M TOR 13 1 5 6 7
M TOR 14 1 5 6 8
M TOR 15 1 5 6 14
M TOR 16 2 1 0 9
M TOR 17 2 3 4 5
M TOR 18 2 5 1 10
M TOR 19 2 5 6 7
M TOR 20 2 5 6 8
M TOR 21 2 5 6 14
M TOR 22 3 2 1 10
M TOR 23 3 2 5 6
M TOR 24 3 4 5 6
M TOR 25 4 3 2 11
M TOR 26 4 5 1 10
M TOR 27 4 5 2 11
M TOR 28 4 5 6 7
M TOR 29 4 5 6 8
M TOR 30 4 5 6 14
M TOR 31 5 1 0 9
M TOR 32 5 2 3 12
M TOR 33 5 2 3 13
M TOR 34 5 4 3 12
M TOR 35 5 4 3 13
M TOR 36 5 6 7 8
M TOR 37 5 6 7 15
M TOR 38 5 6 7 16
M TOR 39 5 6 8 17
M TOR 40 5 6 8 18
M TOR 41 6 5 1 10
M TOR 42 6 5 2 11
M TOR 43 6 7 8 17
M TOR 44 6 7 8 18
M TOR 45 6 8 7 15
M TOR 46 6 8 7 16
M TOR 47 7 8 6 14
M  END
$$$$
