
     RDKit          3D

 19 21  0  0  0  0  0  0  0  0999 V2000
    0.3552    0.1715    0.5385 O   0  0  0  0  0  0  0  0  0  0  0  0
   -0.8665    0.7379    0.9068 C   0  0  0  0  0  0  0  0  0  0  0  0
   -0.9716    2.2525    1.1018 C   0  0  0  0  0  0  0  0  0  0  0  0
   -2.2847    2.6514    0.3847 C   0  0  0  0  0  0  0  0  0  0  0  0
   -3.1453    1.3646    0.3412 C   0  0  0  0  0  0  0  0  0  0  0  0
   -3.8094    1.0576    1.6955 C   0  0  0  0  0  0  0  0  0  0  0  0
   -2.7725    0.5104    2.5214 O   0  0  0  0  0  0  0  0  0  0  0  0
   -1.8520   -0.1272    1.6696 C   0  0  0  0  0  0  0  0  0  0  0  0
   -2.1178    0.2208    0.2303 C   0  0  0  0  0  0  0  0  0  0  0  0
    0.9107    0.1250    1.3246 H   0  0  0  0  0  0  0  0  0  0  0  0
   -0.9998    2.5138    2.1646 H   0  0  0  0  0  0  0  0  0  0  0  0
   -0.0971    2.7333    0.6561 H   0  0  0  0  0  0  0  0  0  0  0  0
   -2.8035    3.4851    0.8689 H   0  0  0  0  0  0  0  0  0  0  0  0
   -2.0593    2.9589   -0.6417 H   0  0  0  0  0  0  0  0  0  0  0  0
   -3.8757    1.3767   -0.4707 H   0  0  0  0  0  0  0  0  0  0  0  0
   -4.2083    1.9422    2.2012 H   0  0  0  0  0  0  0  0  0  0  0  0
   -4.6211    0.3242    1.5757 H   0  0  0  0  0  0  0  0  0  0  0  0
   -1.5504   -1.1228    1.9810 H   0  0  0  0  0  0  0  0  0  0  0  0
   -2.1056   -0.5021   -0.5748 H   0  0  0  0  0  0  0  0  0  0  0  0
  1  2  1  0
  2  3  1  0
  3  4  1  0
  4  5  1  0
  5  6  1  0
  6  7  1  0
  7  8  1  0
  8  9  1  0
  8  2  1  0
  9  2  1  0
  9  5  1  0
  1 10  1  0
  3 11  1  0
  3 12  1  0
  4 13  1  0
  4 14  1  0
  5 15  1  0
  6 16  1  0
  6 17  1  0
  8 18  1  0
  9 19  1  0
M  END
$$$$
