
     RDKit          3D

 19 20  0  0  0  0  0  0  0  0999 V2000
   -0.9801   -2.4029    0.9721 C   0  0  0  0  0  0  0  0  0  0  0  0
   -0.9629   -1.1360    0.1300 C   0  0  0  0  0  0  0  0  0  0  0  0
   -2.0907   -0.0629    0.2704 C   0  0  0  0  0  0  0  0  0  0  0  0
   -1.0255    1.0825    0.2422 C   0  0  0  0  0  0  0  0  0  0  0  0
   -1.1336    2.2273    1.2097 C   0  0  0  0  0  0  0  0  0  0  0  0
   -1.8373    3.4712    0.8644 C   0  0  0  0  0  0  0  0  0  0  0  0
   -0.4118    3.4165    0.8891 O   0  0  0  0  0  0  0  0  0  0  0  0
    0.0225   -0.0204    0.5179 C   0  0  0  0  0  0  0  0  0  0  0  0
    1.1048   -0.0198    1.0281 O   0  0  0  0  0  0  0  0  0  0  0  0
   -1.7791   -3.0800    0.6544 H   0  0  0  0  0  0  0  0  0  0  0  0
   -0.0275   -2.9337    0.8850 H   0  0  0  0  0  0  0  0  0  0  0  0
   -1.1337   -2.1683    2.0304 H   0  0  0  0  0  0  0  0  0  0  0  0
   -0.8154   -1.3795   -0.9303 H   0  0  0  0  0  0  0  0  0  0  0  0
   -2.8506   -0.0371   -0.5112 H   0  0  0  0  0  0  0  0  0  0  0  0
   -2.5842   -0.1280    1.2450 H   0  0  0  0  0  0  0  0  0  0  0  0
   -0.8935    1.4769   -0.7716 H   0  0  0  0  0  0  0  0  0  0  0  0
   -1.0810    1.9501    2.2638 H   0  0  0  0  0  0  0  0  0  0  0  0
   -2.2854    3.5775   -0.1230 H   0  0  0  0  0  0  0  0  0  0  0  0
   -2.2990    4.0677    1.6500 H   0  0  0  0  0  0  0  0  0  0  0  0
  1  2  1  0
  2  3  1  0
  3  4  1  0
  4  5  1  0
  5  6  1  0
  6  7  1  0
  4  8  1  0
  8  9  2  0
  8  2  1  0
  7  5  1  0
  1 10  1  0
  1 11  1  0
  1 12  1  0
  2 13  1  0
  3 14  1  0
  3 15  1  0
  4 16  1  0
  5 17  1  0
  6 18  1  0
  6 19  1  0
M  END
$$$$
