
     RDKit          3D

 19 21  0  0  0  0  0  0  0  0999 V2000
    2.7831   -0.9326   -2.0292 C   0  0  0  0  0  0  0  0  0  0  0  0
    1.8056   -1.9362   -1.7451 O   0  0  0  0  0  0  0  0  0  0  0  0
    1.4237   -0.5639   -1.6200 C   0  0  0  0  0  0  0  0  0  0  0  0
    1.1245   -0.0970   -0.2210 C   0  0  0  0  0  0  0  0  0  0  0  0
    1.0649    1.3524   -0.1633 O   0  0  0  0  0  0  0  0  0  0  0  0
   -0.3314    1.3326    0.2079 C   0  0  0  0  0  0  0  0  0  0  0  0
   -0.5523    1.3874    1.7366 C   0  0  0  0  0  0  0  0  0  0  0  0
   -0.5297   -0.1744    1.7848 C   0  0  0  0  0  0  0  0  0  0  0  0
   -0.3404   -0.2227    0.2442 C   0  0  0  0  0  0  0  0  0  0  0  0
    3.5981   -0.8572   -1.3106 H   0  0  0  0  0  0  0  0  0  0  0  0
    3.0728   -0.8443   -3.0750 H   0  0  0  0  0  0  0  0  0  0  0  0
    0.7302   -0.2112   -2.3852 H   0  0  0  0  0  0  0  0  0  0  0  0
    1.8727   -0.5118    0.4682 H   0  0  0  0  0  0  0  0  0  0  0  0
   -0.9374    1.9715   -0.4397 H   0  0  0  0  0  0  0  0  0  0  0  0
    0.2424    1.9076    2.2757 H   0  0  0  0  0  0  0  0  0  0  0  0
   -1.5158    1.8167    2.0246 H   0  0  0  0  0  0  0  0  0  0  0  0
    0.2785   -0.6294    2.3639 H   0  0  0  0  0  0  0  0  0  0  0  0
   -1.4738   -0.6108    2.1176 H   0  0  0  0  0  0  0  0  0  0  0  0
   -0.9975   -0.8636   -0.3427 H   0  0  0  0  0  0  0  0  0  0  0  0
  1  2  1  0
  2  3  1  0
  3  4  1  0
  4  5  1  0
  5  6  1  0
  6  7  1  0
  7  8  1  0
  8  9  1  0
  3  1  1  0
  9  4  1  0
  9  6  1  0
  1 10  1  0
  1 11  1  0
  3 12  1  0
  4 13  1  0
  6 14  1  0
  7 15  1  0
  7 16  1  0
  8 17  1  0
  8 18  1  0
  9 19  1  0
M  END
$$$$
