gdb 552	3.8471162	1.4407775	1.2093438	1.5189	73.74	-0.24959	0.07176	0.32135	1048.859	0.159406	-422.528185	-422.521028	-422.520084	-422.560033	27.947
 OpenBabel02181911403D

 19 21  0  0  1  0  0  0  0  0999 V2000
   -1.6095    1.3773    1.0145 C   0  0  0  0  0  0  0  0  0  0  0  0
   -1.3736   -0.1610    1.1074 C   0  0  0  0  0  0  0  0  0  0  0  0
   -0.2506   -0.0633    0.0421 C   0  0  2  0  0  0  0  0  0  0  0  0
   -0.4894    1.4948   -0.0520 C   0  0  1  0  0  0  0  0  0  0  0  0
   -0.9947    1.3231   -1.5089 C   0  0  1  0  0  0  0  0  0  0  0  0
   -0.1065    1.7541   -2.5234 O   0  0  0  0  0  0  0  0  0  0  0  0
    0.8690    0.7452   -2.6630 C   0  0  0  0  0  0  0  0  0  0  0  0
    0.2367   -0.4852   -2.3883 O   0  0  0  0  0  0  0  0  0  0  0  0
   -0.7578   -0.2228   -1.4156 C   0  0  1  0  0  0  0  0  0  0  0  0
   -2.6035    1.6943    0.6827 H   0  0  0  0  0  0  0  0  0  0  0  0
   -1.3815    1.9062    1.9424 H   0  0  0  0  0  0  0  0  0  0  0  0
   -1.0148   -0.4847    2.0868 H   0  0  0  0  0  0  0  0  0  0  0  0
   -2.2215   -0.7971    0.8332 H   0  0  0  0  0  0  0  0  0  0  0  0
    0.7093   -0.5324    0.2610 H   0  0  0  0  0  0  0  0  0  0  0  0
    0.2825    2.2514    0.0930 H   0  0  0  0  0  0  0  0  0  0  0  0
   -1.9879    1.7175   -1.7373 H   0  0  0  0  0  0  0  0  0  0  0  0
    1.2336    0.7388   -3.6941 H   0  0  0  0  0  0  0  0  0  0  0  0
    1.7082    0.9158   -1.9661 H   0  0  0  0  0  0  0  0  0  0  0  0
   -1.5837   -0.9196   -1.5781 H   0  0  0  0  0  0  0  0  0  0  0  0
  1  2  1  0  0  0  0
  1 11  1  0  0  0  0
  2 12  1  0  0  0  0
  3 14  1  1  0  0  0
  3  2  1  0  0  0  0
  4  3  1  0  0  0  0
  4 15  1  1  0  0  0
  4  1  1  0  0  0  0
  5 16  1  6  0  0  0
  5  9  1  0  0  0  0
  5  4  1  0  0  0  0
  6  5  1  0  0  0  0
  7  6  1  0  0  0  0
  7  8  1  0  0  0  0
  7 18  1  0  0  0  0
  8  9  1  0  0  0  0
  9 19  1  6  0  0  0
  9  3  1  0  0  0  0
 10  1  1  0  0  0  0
 13  2  1  0  0  0  0
 17  7  1  0  0  0  0
M TOR 0 0 1 2 3
M TOR 1 0 1 2 8
M TOR 2 0 1 2 13
M TOR 3 0 3 2 8
M TOR 4 0 3 2 13
M TOR 5 0 3 4 5
M TOR 6 0 3 4 8
M TOR 7 0 3 4 15
M TOR 8 1 0 3 4
M TOR 9 1 0 3 14
M TOR 10 1 2 3 4
M TOR 11 1 2 3 14
M TOR 12 1 2 8 4
M TOR 13 1 2 8 7
M TOR 14 1 2 8 18
M TOR 15 2 1 0 9
M TOR 16 2 1 0 10
M TOR 17 2 3 0 9
M TOR 18 2 3 0 10
M TOR 19 2 3 4 5
M TOR 20 2 3 4 8
M TOR 21 2 3 4 15
M TOR 22 2 8 4 5
M TOR 23 2 8 4 15
M TOR 24 2 8 7 6
M TOR 25 3 0 1 11
M TOR 26 3 0 1 12
M TOR 27 3 2 1 11
M TOR 28 3 2 1 12
M TOR 29 3 2 8 7
M TOR 30 3 2 8 18
M TOR 31 3 4 5 6
M TOR 32 3 4 8 7
M TOR 33 3 4 8 18
M TOR 34 4 3 0 9
M TOR 35 4 3 0 10
M TOR 36 4 3 2 13
M TOR 37 4 5 6 7
M TOR 38 4 5 6 16
M TOR 39 4 5 6 17
M TOR 40 4 8 2 13
M TOR 41 4 8 7 6
M TOR 42 5 4 3 14
M TOR 43 5 4 8 7
M TOR 44 5 4 8 18
M TOR 45 5 6 7 8
M TOR 46 6 5 4 8
M TOR 47 6 5 4 15
M TOR 48 6 7 8 18
M TOR 49 7 8 2 13
M TOR 50 7 8 4 15
M TOR 51 8 2 1 11
M TOR 52 8 2 1 12
M TOR 53 8 2 3 14
M TOR 54 8 4 3 14
M TOR 55 8 7 6 16
M TOR 56 8 7 6 17
M  END
$$$$
