gdb 2251	2.8101497	1.8471026	1.6148687	2.3418	73.66	-0.22601	0.07108	0.29708999999999997	925.9624	0.158553	-422.523886	-422.516786	-422.515841	-422.554823	29.104
 OpenBabel02181911413D

 19 21  0  0  1  0  0  0  0  0999 V2000
   -0.1190    0.1033    0.0274 C   0  0  0  0  0  0  0  0  0  0  0  0
    1.3899    0.1298    0.0547 C   0  0  2  0  0  0  0  0  0  0  0  0
    2.1942    0.6751    1.2528 C   0  0  0  0  0  0  0  0  0  0  0  0
    3.3725   -0.2135    0.7673 C   0  0  2  0  0  0  0  0  0  0  0  0
    4.2023    0.4770   -0.1483 O   0  0  0  0  0  0  0  0  0  0  0  0
    3.4267    1.1465   -1.1433 C   0  0  0  0  0  0  0  0  0  0  0  0
    2.1220    0.3865   -1.3230 C   0  0  1  0  0  0  0  0  0  0  0  0
    2.4844   -1.0214   -1.4343 O   0  0  0  0  0  0  0  0  0  0  0  0
    2.3137   -1.1091   -0.0183 C   0  0  2  0  0  0  0  0  0  0  0  0
   -0.5223   -0.3147    0.9561 H   0  0  0  0  0  0  0  0  0  0  0  0
   -0.5312    1.1131   -0.0878 H   0  0  0  0  0  0  0  0  0  0  0  0
   -0.4860   -0.5053   -0.8059 H   0  0  0  0  0  0  0  0  0  0  0  0
    2.3853    1.7481    1.3435 H   0  0  0  0  0  0  0  0  0  0  0  0
    1.7698    0.3091    2.1935 H   0  0  0  0  0  0  0  0  0  0  0  0
    4.0263   -0.6840    1.5018 H   0  0  0  0  0  0  0  0  0  0  0  0
    3.2390    2.1954   -0.8647 H   0  0  0  0  0  0  0  0  0  0  0  0
    4.0123    1.1351   -2.0678 H   0  0  0  0  0  0  0  0  0  0  0  0
    1.5175    0.7363   -2.1648 H   0  0  0  0  0  0  0  0  0  0  0  0
    2.0934   -2.1124    0.3526 H   0  0  0  0  0  0  0  0  0  0  0  0
  1 10  1  0  0  0  0
  2  1  1  1  0  0  0
  2  3  1  0  0  0  0
  3 13  1  0  0  0  0
  3 14  1  0  0  0  0
  4  3  1  0  0  0  0
  4 15  1  1  0  0  0
  5  4  1  0  0  0  0
  6 16  1  0  0  0  0
  6  5  1  0  0  0  0
  7 18  1  6  0  0  0
  7  6  1  0  0  0  0
  7  2  1  0  0  0  0
  8  7  1  0  0  0  0
  8  9  1  0  0  0  0
  9  2  1  0  0  0  0
  9 19  1  1  0  0  0
  9  4  1  0  0  0  0
 11  1  1  0  0  0  0
 12  1  1  0  0  0  0
 17  6  1  0  0  0  0
M TOR 0 0 1 2 3
M TOR 1 0 1 2 12
M TOR 2 0 1 2 13
M TOR 3 0 1 6 5
M TOR 4 0 1 6 7
M TOR 5 0 1 6 17
M TOR 6 0 1 8 3
M TOR 7 0 1 8 7
M TOR 8 0 1 8 18
M TOR 9 1 2 3 4
M TOR 10 1 2 3 8
M TOR 11 1 2 3 14
M TOR 12 1 6 5 4
M TOR 13 1 6 5 15
M TOR 14 1 6 5 16
M TOR 15 1 6 7 8
M TOR 16 1 8 3 4
M TOR 17 1 8 3 14
M TOR 18 2 1 0 9
M TOR 19 2 1 0 10
M TOR 20 2 1 0 11
M TOR 21 2 1 6 5
M TOR 22 2 1 6 7
M TOR 23 2 1 6 17
M TOR 24 2 1 8 7
M TOR 25 2 1 8 18
M TOR 26 2 3 4 5
M TOR 27 2 3 8 7
M TOR 28 2 3 8 18
M TOR 29 3 2 1 6
M TOR 30 3 4 5 6
M TOR 31 3 4 5 15
M TOR 32 3 4 5 16
M TOR 33 3 8 1 6
M TOR 34 3 8 7 6
M TOR 35 4 3 2 12
M TOR 36 4 3 2 13
M TOR 37 4 3 8 7
M TOR 38 4 3 8 18
M TOR 39 4 5 6 7
M TOR 40 4 5 6 17
M TOR 41 5 4 3 8
M TOR 42 5 4 3 14
M TOR 43 5 6 1 8
M TOR 44 5 6 7 8
M TOR 45 6 1 0 9
M TOR 46 6 1 0 10
M TOR 47 6 1 0 11
M TOR 48 6 1 2 12
M TOR 49 6 1 2 13
M TOR 50 6 1 8 18
M TOR 51 6 7 8 18
M TOR 52 7 6 5 15
M TOR 53 7 6 5 16
M TOR 54 7 8 3 14
M TOR 55 8 1 0 9
M TOR 56 8 1 0 10
M TOR 57 8 1 0 11
M TOR 58 8 1 2 12
M TOR 59 8 1 2 13
M TOR 60 8 1 6 17
M TOR 61 8 3 2 12
M TOR 62 8 3 2 13
M TOR 63 8 7 6 17
M  END
$$$$
