
     RDKit          3D

 19 20  0  0  0  0  0  0  0  0999 V2000
   -0.6513   -2.0885   -1.1873 C   0  0  0  0  0  0  0  0  0  0  0  0
   -0.8708   -1.1353   -0.0156 C   0  0  0  0  0  0  0  0  0  0  0  0
    0.1263    0.0599   -0.0422 C   0  0  0  0  0  0  0  0  0  0  0  0
    1.3221    0.1058   -0.1415 O   0  0  0  0  0  0  0  0  0  0  0  0
   -0.9519    1.0903   -0.1911 C   0  0  0  0  0  0  0  0  0  0  0  0
   -0.8617    2.3738   -0.9645 C   0  0  0  0  0  0  0  0  0  0  0  0
   -1.9850    0.8747    0.9278 C   0  0  0  0  0  0  0  0  0  0  0  0
   -1.9783   -0.0765   -0.2128 C   0  0  0  0  0  0  0  0  0  0  0  0
   -3.0116   -0.1958   -1.1197 O   0  0  0  0  0  0  0  0  0  0  0  0
   -1.4604   -2.8223   -1.2505 H   0  0  0  0  0  0  0  0  0  0  0  0
   -0.6163   -1.5481   -2.1381 H   0  0  0  0  0  0  0  0  0  0  0  0
    0.2945   -2.6226   -1.0641 H   0  0  0  0  0  0  0  0  0  0  0  0
   -0.9222   -1.6885    0.9302 H   0  0  0  0  0  0  0  0  0  0  0  0
   -0.2799    2.2355   -1.8806 H   0  0  0  0  0  0  0  0  0  0  0  0
   -1.8594    2.7265   -1.2443 H   0  0  0  0  0  0  0  0  0  0  0  0
   -0.3768    3.1599   -0.3764 H   0  0  0  0  0  0  0  0  0  0  0  0
   -1.6826    0.5683    1.9262 H   0  0  0  0  0  0  0  0  0  0  0  0
   -2.7714    1.6239    0.9033 H   0  0  0  0  0  0  0  0  0  0  0  0
   -3.7835   -0.5487   -0.6635 H   0  0  0  0  0  0  0  0  0  0  0  0
  1  2  1  0
  2  3  1  0
  3  4  2  0
  3  5  1  0
  5  6  1  0
  5  7  1  0
  7  8  1  0
  8  9  1  0
  8  2  1  0
  8  5  1  0
  1 10  1  0
  1 11  1  0
  1 12  1  0
  2 13  1  0
  6 14  1  0
  6 15  1  0
  6 16  1  0
  7 17  1  0
  7 18  1  0
  9 19  1  0
M  END
$$$$
