
     RDKit          3D

 19 20  0  0  0  0  0  0  0  0999 V2000
    1.5489   -0.0611   -0.1646 O   0  0  0  0  0  0  0  0  0  0  0  0
    0.3582    0.1173   -0.1167 C   0  0  0  0  0  0  0  0  0  0  0  0
   -0.3802    0.7211    1.0550 C   0  0  0  0  0  0  0  0  0  0  0  0
   -1.1393    1.9926    0.6644 C   0  0  0  0  0  0  0  0  0  0  0  0
   -2.0281    2.6750    1.7573 C   0  0  0  0  0  0  0  0  0  0  0  0
   -3.2539    2.6284    0.8022 C   0  0  0  0  0  0  0  0  0  0  0  0
   -4.0739    1.3340    0.8970 C   0  0  0  0  0  0  0  0  0  0  0  0
   -3.1420    0.6278    0.0384 O   0  0  0  0  0  0  0  0  0  0  0  0
   -2.4004    1.8375   -0.2284 C   0  0  0  0  0  0  0  0  0  0  0  0
   -0.2954   -0.1613   -0.9756 H   0  0  0  0  0  0  0  0  0  0  0  0
   -1.1137   -0.0176    1.4038 H   0  0  0  0  0  0  0  0  0  0  0  0
    0.3360    0.9223    1.8572 H   0  0  0  0  0  0  0  0  0  0  0  0
   -0.4525    2.7203    0.2182 H   0  0  0  0  0  0  0  0  0  0  0  0
   -2.1534    2.0957    2.6772 H   0  0  0  0  0  0  0  0  0  0  0  0
   -1.7010    3.6807    2.0282 H   0  0  0  0  0  0  0  0  0  0  0  0
   -3.7771    3.5594    0.5917 H   0  0  0  0  0  0  0  0  0  0  0  0
   -4.1610    0.8725    1.8885 H   0  0  0  0  0  0  0  0  0  0  0  0
   -5.0683    1.3858    0.4357 H   0  0  0  0  0  0  0  0  0  0  0  0
   -2.3235    2.0464   -1.2991 H   0  0  0  0  0  0  0  0  0  0  0  0
  1  2  2  0
  2  3  1  0
  3  4  1  0
  4  5  1  0
  5  6  1  0
  6  7  1  0
  7  8  1  0
  8  9  1  0
  9  4  1  0
  9  6  1  0
  2 10  1  0
  3 11  1  0
  3 12  1  0
  4 13  1  0
  5 14  1  0
  5 15  1  0
  6 16  1  0
  7 17  1  0
  7 18  1  0
  9 19  1  0
M  END
$$$$
