gdb 3357	2.8936753	1.7280157	1.5815768	1.7034	72.64	-0.24696	0.08564	0.3326	931.7151	0.160581	-422.551942	-422.545157	-422.544213	-422.582544	28.764
 OpenBabel02181911413D

 19 21  0  0  1  0  0  0  0  0999 V2000
    0.5445    0.1988    0.6487 O   0  0  0  0  0  0  0  0  0  0  0  0
   -0.4365    1.0457    1.1970 C   0  0  2  0  0  0  0  0  0  0  0  0
   -1.0012    0.6107    2.5780 C   0  0  2  0  0  0  0  0  0  0  0  0
   -1.6395   -0.7320    2.1527 C   0  0  0  0  0  0  0  0  0  0  0  0
   -2.0868   -0.4948    0.7909 O   0  0  0  0  0  0  0  0  0  0  0  0
   -1.8138    0.9056    0.5233 C   0  0  1  0  0  0  0  0  0  0  0  0
   -2.7599    1.7311    1.3796 C   0  0  2  0  0  0  0  0  0  0  0  0
   -2.2262    2.9177    2.1468 C   0  0  0  0  0  0  0  0  0  0  0  0
   -2.1892    1.5527    2.7849 C   0  0  2  0  0  0  0  0  0  0  0  0
    0.0783   -0.5751    0.3074 H   0  0  0  0  0  0  0  0  0  0  0  0
   -0.0166    2.0499    1.1936 H   0  0  0  0  0  0  0  0  0  0  0  0
   -0.2771    0.5349    3.3897 H   0  0  0  0  0  0  0  0  0  0  0  0
   -0.9206   -1.5588    2.1489 H   0  0  0  0  0  0  0  0  0  0  0  0
   -2.4933   -1.0103    2.7798 H   0  0  0  0  0  0  0  0  0  0  0  0
   -1.8540    1.0473   -0.5572 H   0  0  0  0  0  0  0  0  0  0  0  0
   -3.8217    1.6565    1.1760 H   0  0  0  0  0  0  0  0  0  0  0  0
   -1.3258    3.4347    1.8380 H   0  0  0  0  0  0  0  0  0  0  0  0
   -2.9846    3.5855    2.5418 H   0  0  0  0  0  0  0  0  0  0  0  0
   -2.8406    1.3629    3.6314 H   0  0  0  0  0  0  0  0  0  0  0  0
  1  2  1  0  0  0  0
  2 11  1  1  0  0  0
  2  3  1  0  0  0  0
  3  9  1  0  0  0  0
  3 12  1  1  0  0  0
  4  3  1  0  0  0  0
  4 14  1  0  0  0  0
  5  4  1  0  0  0  0
  6 15  1  6  0  0  0
  6  5  1  0  0  0  0
  6  2  1  0  0  0  0
  6  7  1  0  0  0  0
  7 16  1  6  0  0  0
  7  8  1  0  0  0  0
  7  9  1  0  0  0  0
  8 18  1  0  0  0  0
  8  9  1  0  0  0  0
  9 19  1  1  0  0  0
 10  1  1  0  0  0  0
 13  4  1  0  0  0  0
 17  8  1  0  0  0  0
M TOR 0 0 1 2 3
M TOR 1 0 1 2 8
M TOR 2 0 1 2 11
M TOR 3 0 1 5 4
M TOR 4 0 1 5 6
M TOR 5 0 1 5 14
M TOR 6 1 2 3 4
M TOR 7 1 2 3 12
M TOR 8 1 2 3 13
M TOR 9 1 2 8 6
M TOR 10 1 2 8 7
M TOR 11 1 2 8 18
M TOR 12 1 5 4 3
M TOR 13 1 5 6 7
M TOR 14 1 5 6 8
M TOR 15 1 5 6 15
M TOR 16 2 1 0 9
M TOR 17 2 1 5 4
M TOR 18 2 1 5 6
M TOR 19 2 1 5 14
M TOR 20 2 3 4 5
M TOR 21 2 8 6 5
M TOR 22 2 8 6 7
M TOR 23 2 8 6 15
M TOR 24 2 8 7 16
M TOR 25 2 8 7 17
M TOR 26 3 2 1 5
M TOR 27 3 2 1 10
M TOR 28 3 2 8 6
M TOR 29 3 2 8 7
M TOR 30 3 2 8 18
M TOR 31 3 4 5 6
M TOR 32 3 4 5 14
M TOR 33 4 3 2 8
M TOR 34 4 3 2 11
M TOR 35 4 5 1 10
M TOR 36 4 5 6 7
M TOR 37 4 5 6 8
M TOR 38 4 5 6 15
M TOR 39 5 1 0 9
M TOR 40 5 1 2 8
M TOR 41 5 1 2 11
M TOR 42 5 4 3 12
M TOR 43 5 4 3 13
M TOR 44 5 6 7 8
M TOR 45 5 6 7 16
M TOR 46 5 6 7 17
M TOR 47 5 6 8 18
M TOR 48 6 5 1 10
M TOR 49 6 7 8 18
M TOR 50 6 8 2 11
M TOR 51 6 8 7 16
M TOR 52 6 8 7 17
M TOR 53 7 6 5 14
M TOR 54 7 8 2 11
M TOR 55 7 8 6 15
M TOR 56 8 2 1 10
M TOR 57 8 2 3 12
M TOR 58 8 2 3 13
M TOR 59 8 6 5 14
M  END
$$$$
