
     RDKit          3D

 19 20  0  0  0  0  0  0  0  0999 V2000
    1.4782   -0.4252   -0.3934 O   0  0  0  0  0  0  0  0  0  0  0  0
    0.4586    0.0207    0.0641 C   0  0  0  0  0  0  0  0  0  0  0  0
    0.3073    1.4378    0.5872 C   0  0  0  0  0  0  0  0  0  0  0  0
   -1.0570    2.0940    0.2212 C   0  0  0  0  0  0  0  0  0  0  0  0
   -1.8122    2.2875    1.5578 C   0  0  0  0  0  0  0  0  0  0  0  0
   -0.6915    2.4498    2.5977 C   0  0  0  0  0  0  0  0  0  0  0  0
    0.3345    1.4369    2.1272 C   0  0  0  0  0  0  0  0  0  0  0  0
    1.4695    0.9453    2.9058 C   0  0  0  0  0  0  0  0  0  0  0  0
    0.2900    0.1422    2.7586 O   0  0  0  0  0  0  0  0  0  0  0  0
   -0.4645   -0.5965    0.1333 H   0  0  0  0  0  0  0  0  0  0  0  0
    1.1518    2.0156    0.2021 H   0  0  0  0  0  0  0  0  0  0  0  0
   -0.8787    3.0578   -0.2641 H   0  0  0  0  0  0  0  0  0  0  0  0
   -1.6275    1.4851   -0.4877 H   0  0  0  0  0  0  0  0  0  0  0  0
   -2.5055    3.1317    1.5297 H   0  0  0  0  0  0  0  0  0  0  0  0
   -2.3954    1.3907    1.7942 H   0  0  0  0  0  0  0  0  0  0  0  0
   -0.2649    3.4597    2.5465 H   0  0  0  0  0  0  0  0  0  0  0  0
   -1.0023    2.2589    3.6273 H   0  0  0  0  0  0  0  0  0  0  0  0
    2.3518    0.5690    2.3896 H   0  0  0  0  0  0  0  0  0  0  0  0
    1.6431    1.3320    3.9091 H   0  0  0  0  0  0  0  0  0  0  0  0
  1  2  2  0
  2  3  1  0
  3  4  1  0
  4  5  1  0
  5  6  1  0
  6  7  1  0
  7  8  1  0
  8  9  1  0
  7  3  1  0
  9  7  1  0
  2 10  1  0
  3 11  1  0
  4 12  1  0
  4 13  1  0
  5 14  1  0
  5 15  1  0
  6 16  1  0
  6 17  1  0
  8 18  1  0
  8 19  1  0
M  END
$$$$
