
     RDKit          3D

 19 20  0  0  0  0  0  0  0  0999 V2000
   -0.1328    2.0481    0.9499 C   0  0  0  0  0  0  0  0  0  0  0  0
    1.2131    1.2481    0.9092 C   0  0  0  0  0  0  0  0  0  0  0  0
    0.6935    0.5956   -0.3575 C   0  0  0  0  0  0  0  0  0  0  0  0
    0.7402   -0.5974   -0.9305 C   0  0  0  0  0  0  0  0  0  0  0  0
   -0.1715   -0.9457   -2.0846 C   0  0  0  0  0  0  0  0  0  0  0  0
   -0.6646    0.2073   -2.7579 O   0  0  0  0  0  0  0  0  0  0  0  0
   -1.7920    0.8249   -2.2038 C   0  0  0  0  0  0  0  0  0  0  0  0
   -1.6510    1.1930   -0.8517 O   0  0  0  0  0  0  0  0  0  0  0  0
   -0.3600    1.6731   -0.5385 C   0  0  0  0  0  0  0  0  0  0  0  0
   -0.8773    1.5529    1.5763 H   0  0  0  0  0  0  0  0  0  0  0  0
   -0.0877    3.1099    1.1990 H   0  0  0  0  0  0  0  0  0  0  0  0
    2.0731    1.9035    0.7333 H   0  0  0  0  0  0  0  0  0  0  0  0
    1.4430    0.5973    1.7562 H   0  0  0  0  0  0  0  0  0  0  0  0
    1.4147   -1.3769   -0.5827 H   0  0  0  0  0  0  0  0  0  0  0  0
    0.3774   -1.5213   -2.8391 H   0  0  0  0  0  0  0  0  0  0  0  0
   -1.0073   -1.5800   -1.7440 H   0  0  0  0  0  0  0  0  0  0  0  0
   -1.9574    1.7053   -2.8420 H   0  0  0  0  0  0  0  0  0  0  0  0
   -2.6757    0.1696   -2.2286 H   0  0  0  0  0  0  0  0  0  0  0  0
   -0.0585    2.4801   -1.2228 H   0  0  0  0  0  0  0  0  0  0  0  0
  1  2  1  0
  2  3  1  0
  3  4  2  0
  4  5  1  0
  5  6  1  0
  6  7  1  0
  7  8  1  0
  8  9  1  0
  9  1  1  0
  9  3  1  0
  1 10  1  0
  1 11  1  0
  2 12  1  0
  2 13  1  0
  4 14  1  0
  5 15  1  0
  5 16  1  0
  7 17  1  0
  7 18  1  0
  9 19  1  0
M  END
$$$$
