
     RDKit          3D

 19 20  0  0  0  0  0  0  0  0999 V2000
   -0.0837   -0.0457    0.1266 C   0  0  0  0  0  0  0  0  0  0  0  0
    1.4312   -0.0344   -0.0444 C   0  0  0  0  0  0  0  0  0  0  0  0
    2.0274   -0.5378    1.1355 O   0  0  0  0  0  0  0  0  0  0  0  0
    2.1693    1.2119   -0.6264 C   0  0  0  0  0  0  0  0  0  0  0  0
    1.6152    0.8327   -2.0357 C   0  0  0  0  0  0  0  0  0  0  0  0
    2.0792   -0.5105   -1.3905 C   0  0  0  0  0  0  0  0  0  0  0  0
    3.3723    0.2750   -0.9543 C   0  0  0  0  0  0  0  0  0  0  0  0
    2.0294   -1.8966   -1.9211 C   0  0  0  0  0  0  0  0  0  0  0  0
    1.6253   -2.8316   -1.2668 O   0  0  0  0  0  0  0  0  0  0  0  0
   -0.3418    0.4952    1.0416 H   0  0  0  0  0  0  0  0  0  0  0  0
   -0.6319    0.4025   -0.7035 H   0  0  0  0  0  0  0  0  0  0  0  0
   -0.4338   -1.0780    0.2358 H   0  0  0  0  0  0  0  0  0  0  0  0
    1.7822   -1.4682    1.1972 H   0  0  0  0  0  0  0  0  0  0  0  0
    2.2149    2.2094   -0.1878 H   0  0  0  0  0  0  0  0  0  0  0  0
    0.5516    0.9614   -2.2324 H   0  0  0  0  0  0  0  0  0  0  0  0
    2.2136    1.1835   -2.8789 H   0  0  0  0  0  0  0  0  0  0  0  0
    3.9218   -0.1387   -0.1134 H   0  0  0  0  0  0  0  0  0  0  0  0
    4.0231    0.5995   -1.7689 H   0  0  0  0  0  0  0  0  0  0  0  0
    2.4033   -2.0452   -2.9596 H   0  0  0  0  0  0  0  0  0  0  0  0
  1  2  1  0
  2  3  1  0
  2  4  1  0
  4  5  1  0
  5  6  1  0
  6  7  1  0
  6  8  1  0
  8  9  2  0
  6  2  1  0
  7  4  1  0
  1 10  1  0
  1 11  1  0
  1 12  1  0
  3 13  1  0
  4 14  1  0
  5 15  1  0
  5 16  1  0
  7 17  1  0
  7 18  1  0
  8 19  1  0
M  END
$$$$
