
     RDKit          3D

 19 19  0  0  0  0  0  0  0  0999 V2000
    4.0380   -1.8341   -0.9171 O   0  0  0  0  0  0  0  0  0  0  0  0
    4.1220   -0.4699   -1.2733 C   0  0  0  0  0  0  0  0  0  0  0  0
    5.0493   -0.2861   -2.4922 C   0  0  0  0  0  0  0  0  0  0  0  0
    4.2452    0.6311   -3.4426 C   0  0  0  0  0  0  0  0  0  0  0  0
    3.1491    1.1414   -2.6833 O   0  0  0  0  0  0  0  0  0  0  0  0
    2.7850    0.1264   -1.7693 C   0  0  0  0  0  0  0  0  0  0  0  0
    1.9081    0.7528   -0.6795 C   0  0  0  0  0  0  0  0  0  0  0  0
    1.5620   -0.2082    0.3621 C   0  0  0  0  0  0  0  0  0  0  0  0
    1.3036   -1.0215    1.2106 C   0  0  0  0  0  0  0  0  0  0  0  0
    3.4129   -1.8976   -0.1841 H   0  0  0  0  0  0  0  0  0  0  0  0
    4.4854    0.1315   -0.4258 H   0  0  0  0  0  0  0  0  0  0  0  0
    6.0053    0.1572   -2.2073 H   0  0  0  0  0  0  0  0  0  0  0  0
    5.2487   -1.2634   -2.9374 H   0  0  0  0  0  0  0  0  0  0  0  0
    4.8130    1.4872   -3.8152 H   0  0  0  0  0  0  0  0  0  0  0  0
    3.8701    0.0657   -4.3084 H   0  0  0  0  0  0  0  0  0  0  0  0
    2.2287   -0.6827   -2.2732 H   0  0  0  0  0  0  0  0  0  0  0  0
    2.4517    1.6007   -0.2446 H   0  0  0  0  0  0  0  0  0  0  0  0
    0.9985    1.1611   -1.1343 H   0  0  0  0  0  0  0  0  0  0  0  0
    1.0467   -1.7181    1.9704 H   0  0  0  0  0  0  0  0  0  0  0  0
  1  2  1  0
  2  3  1  0
  3  4  1  0
  4  5  1  0
  5  6  1  0
  6  7  1  0
  7  8  1  0
  8  9  3  0
  6  2  1  0
  1 10  1  0
  2 11  1  0
  3 12  1  0
  3 13  1  0
  4 14  1  0
  4 15  1  0
  6 16  1  0
  7 17  1  0
  7 18  1  0
  9 19  1  0
M  END
$$$$
