gdb 2934	3.0063672	1.4284507	1.2424771	2.608	74.23	-0.22776	0.06138	0.28914	1069.5562	0.157019	-422.498231	-422.490214	-422.48927	-422.530112	32.229
 OpenBabel02181911413D

 19 21  0  0  1  0  0  0  0  0999 V2000
    0.3401    0.5256    0.3371 O   0  0  0  0  0  0  0  0  0  0  0  0
   -0.9475    0.1206    0.6926 C   0  0  1  0  0  0  0  0  0  0  0  0
   -1.3010    0.3187    2.1561 C   0  0  2  0  0  0  0  0  0  0  0  0
   -2.7341   -0.1499    2.4773 C   0  0  2  0  0  0  0  0  0  0  0  0
   -3.3363   -1.3834    1.7277 C   0  0  0  0  0  0  0  0  0  0  0  0
   -3.9132   -0.4341    0.6257 C   0  0  0  0  0  0  0  0  0  0  0  0
   -3.3061    0.7920    1.3745 C   0  0  2  0  0  0  0  0  0  0  0  0
   -1.8705    1.2412    1.0492 C   0  0  2  0  0  0  0  0  0  0  0  0
   -1.4967    2.5013    0.6016 O   0  0  0  0  0  0  0  0  0  0  0  0
    0.2804    1.4666    0.1237 H   0  0  0  0  0  0  0  0  0  0  0  0
   -1.2725   -0.7569    0.1381 H   0  0  0  0  0  0  0  0  0  0  0  0
   -0.4949    0.4641    2.8660 H   0  0  0  0  0  0  0  0  0  0  0  0
   -3.0216   -0.0204    3.5212 H   0  0  0  0  0  0  0  0  0  0  0  0
   -2.6170   -2.1342    1.3919 H   0  0  0  0  0  0  0  0  0  0  0  0
   -4.1119   -1.8935    2.3034 H   0  0  0  0  0  0  0  0  0  0  0  0
   -3.5489   -0.5943   -0.3921 H   0  0  0  0  0  0  0  0  0  0  0  0
   -5.0051   -0.4211    0.5976 H   0  0  0  0  0  0  0  0  0  0  0  0
   -3.9759    1.6147    1.6321 H   0  0  0  0  0  0  0  0  0  0  0  0
   -1.6249    3.1379    1.3127 H   0  0  0  0  0  0  0  0  0  0  0  0
  1  2  1  0  0  0  0
  2 11  1  6  0  0  0
  2  8  1  0  0  0  0
  2  3  1  0  0  0  0
  3  4  1  0  0  0  0
  3 12  1  1  0  0  0
  4 13  1  1  0  0  0
  5 15  1  0  0  0  0
  5  4  1  0  0  0  0
  6  7  1  0  0  0  0
  6  5  1  0  0  0  0
  7 18  1  1  0  0  0
  7  4  1  0  0  0  0
  8  9  1  6  0  0  0
  8  7  1  0  0  0  0
  8  3  1  0  0  0  0
  9 19  1  0  0  0  0
 10  1  1  0  0  0  0
 14  5  1  0  0  0  0
 16  6  1  0  0  0  0
 17  6  1  0  0  0  0
M TOR 0 0 1 2 3
M TOR 1 0 1 2 7
M TOR 2 0 1 2 11
M TOR 3 0 1 7 6
M TOR 4 0 1 7 8
M TOR 5 1 2 3 4
M TOR 6 1 2 3 6
M TOR 7 1 2 3 12
M TOR 8 1 2 7 6
M TOR 9 1 2 7 8
M TOR 10 1 7 2 3
M TOR 11 1 7 2 11
M TOR 12 1 7 6 3
M TOR 13 1 7 6 5
M TOR 14 1 7 6 17
M TOR 15 1 7 8 18
M TOR 16 2 1 0 9
M TOR 17 2 3 4 5
M TOR 18 2 3 4 13
M TOR 19 2 3 4 14
M TOR 20 2 3 6 5
M TOR 21 2 3 6 7
M TOR 22 2 3 6 17
M TOR 23 2 7 1 10
M TOR 24 2 7 6 5
M TOR 25 2 7 6 17
M TOR 26 2 7 8 18
M TOR 27 3 2 1 10
M TOR 28 3 2 7 8
M TOR 29 3 4 5 6
M TOR 30 3 4 5 15
M TOR 31 3 4 5 16
M TOR 32 3 6 5 15
M TOR 33 3 6 5 16
M TOR 34 3 6 7 8
M TOR 35 4 3 2 7
M TOR 36 4 3 2 11
M TOR 37 4 3 6 7
M TOR 38 4 3 6 17
M TOR 39 4 5 6 7
M TOR 40 4 5 6 17
M TOR 41 5 4 3 12
M TOR 42 5 6 3 12
M TOR 43 5 6 7 8
M TOR 44 6 3 2 11
M TOR 45 6 3 4 13
M TOR 46 6 3 4 14
M TOR 47 6 5 4 13
M TOR 48 6 5 4 14
M TOR 49 6 7 1 10
M TOR 50 6 7 2 11
M TOR 51 6 7 8 18
M TOR 52 7 1 0 9
M TOR 53 7 2 3 12
M TOR 54 7 6 3 12
M TOR 55 7 6 5 15
M TOR 56 7 6 5 16
M TOR 57 8 7 1 10
M TOR 58 8 7 2 11
M TOR 59 8 7 6 17
M  END
$$$$
