gdb 3442	2.2592667	1.5926738	1.0737591	0.67	77.68	-0.23912	0.01542	0.25454	1164.2255	0.156781	-422.557544	-422.548909	-422.547965	-422.590775	32.615
 OpenBabel02181911413D

 19 20  0  0  1  0  0  0  0  0999 V2000
    1.3753    0.8650    0.4538 C   0  0  0  0  0  0  0  0  0  0  0  0
    0.0658    0.1335    0.3402 C   0  0  0  0  0  0  0  0  0  0  0  0
   -0.0125   -1.1934    0.4454 C   0  0  0  0  0  0  0  0  0  0  0  0
   -1.2690   -2.0083    0.3445 C   0  0  2  0  0  0  0  0  0  0  0  0
   -1.1643   -2.8211   -0.8308 O   0  0  0  0  0  0  0  0  0  0  0  0
   -2.5295   -1.1661    0.2817 C   0  0  1  0  0  0  0  0  0  0  0  0
   -2.7865   -0.3319    1.4124 O   0  0  0  0  0  0  0  0  0  0  0  0
   -2.4655    0.2936    0.1619 C   0  0  1  0  0  0  0  0  0  0  0  0
   -1.1392    1.0087    0.0883 C   0  0  0  0  0  0  0  0  0  0  0  0
    1.3602    1.5698    1.2952 H   0  0  0  0  0  0  0  0  0  0  0  0
    2.2118    0.1771    0.5992 H   0  0  0  0  0  0  0  0  0  0  0  0
    1.5744    1.4605   -0.4467 H   0  0  0  0  0  0  0  0  0  0  0  0
    0.8938   -1.7730    0.6016 H   0  0  0  0  0  0  0  0  0  0  0  0
   -1.3392   -2.6555    1.2353 H   0  0  0  0  0  0  0  0  0  0  0  0
   -1.8165   -3.5263   -0.7597 H   0  0  0  0  0  0  0  0  0  0  0  0
   -3.4052   -1.6916   -0.1051 H   0  0  0  0  0  0  0  0  0  0  0  0
   -3.3069    0.8151   -0.2951 H   0  0  0  0  0  0  0  0  0  0  0  0
   -1.0453    1.4713   -0.9054 H   0  0  0  0  0  0  0  0  0  0  0  0
   -1.1432    1.8479    0.7988 H   0  0  0  0  0  0  0  0  0  0  0  0
  1 11  1  0  0  0  0
  1 10  1  0  0  0  0
  2  3  2  0  0  0  0
  2  1  1  0  0  0  0
  3 13  1  0  0  0  0
  4  3  1  0  0  0  0
  4 14  1  1  0  0  0
  5 15  1  0  0  0  0
  5  4  1  0  0  0  0
  6 16  1  6  0  0  0
  6  4  1  0  0  0  0
  6  7  1  0  0  0  0
  8 17  1  6  0  0  0
  8  6  1  0  0  0  0
  8  7  1  0  0  0  0
  9  8  1  0  0  0  0
  9  2  1  0  0  0  0
  9 19  1  0  0  0  0
 12  1  1  0  0  0  0
 18  9  1  0  0  0  0
M TOR 0 0 1 2 3
M TOR 1 0 1 2 12
M TOR 2 0 1 8 7
M TOR 3 0 1 8 17
M TOR 4 0 1 8 18
M TOR 5 1 2 3 4
M TOR 6 1 2 3 5
M TOR 7 1 2 3 13
M TOR 8 1 8 7 5
M TOR 9 1 8 7 6
M TOR 10 1 8 7 16
M TOR 11 2 1 0 9
M TOR 12 2 1 0 10
M TOR 13 2 1 0 11
M TOR 14 2 1 8 7
M TOR 15 2 1 8 17
M TOR 16 2 1 8 18
M TOR 17 2 3 4 14
M TOR 18 2 3 5 6
M TOR 19 2 3 5 7
M TOR 20 2 3 5 15
M TOR 21 3 2 1 8
M TOR 22 3 5 6 7
M TOR 23 3 5 7 8
M TOR 24 3 5 7 16
M TOR 25 4 3 2 12
M TOR 26 4 3 5 6
M TOR 27 4 3 5 7
M TOR 28 4 3 5 15
M TOR 29 5 3 2 12
M TOR 30 5 3 4 14
M TOR 31 5 6 7 8
M TOR 32 5 6 7 16
M TOR 33 5 7 8 17
M TOR 34 5 7 8 18
M TOR 35 6 5 3 13
M TOR 36 6 7 5 15
M TOR 37 6 7 8 17
M TOR 38 6 7 8 18
M TOR 39 7 5 3 13
M TOR 40 8 1 0 9
M TOR 41 8 1 0 10
M TOR 42 8 1 0 11
M TOR 43 8 1 2 12
M TOR 44 8 7 5 15
M  END
$$$$
