gdb 3807	2.6016069	1.4433977	1.15918	3.7368	75.75	-0.23362	-0.01261	0.22100999999999998	1117.6422	0.155516	-422.556709	-422.547804	-422.54686	-422.590187	33.5
 OpenBabel02181911413D

 19 20  0  0  1  0  0  0  0  0999 V2000
   -1.1646    2.1875    1.1297 C   0  0  0  0  0  0  0  0  0  0  0  0
   -1.1421    1.0538    0.1300 C   0  0  2  0  0  0  0  0  0  0  0  0
   -1.6070    1.3570   -1.3412 C   0  0  0  0  0  0  0  0  0  0  0  0
   -2.6962    0.2669   -1.2333 C   0  0  1  0  0  0  0  0  0  0  0  0
   -2.7042   -0.6161   -2.3326 O   0  0  0  0  0  0  0  0  0  0  0  0
   -2.0928   -0.2213    0.1090 C   0  0  1  0  0  0  0  0  0  0  0  0
   -0.8551   -1.1470   -0.0545 C   0  0  0  0  0  0  0  0  0  0  0  0
    0.0463    0.0885    0.1323 C   0  0  0  0  0  0  0  0  0  0  0  0
    1.2176    0.2356    0.3355 O   0  0  0  0  0  0  0  0  0  0  0  0
   -1.0011    1.8256    2.1500 H   0  0  0  0  0  0  0  0  0  0  0  0
   -0.3699    2.9068    0.9037 H   0  0  0  0  0  0  0  0  0  0  0  0
   -2.1200    2.7225    1.1065 H   0  0  0  0  0  0  0  0  0  0  0  0
   -1.9738    2.3743   -1.4933 H   0  0  0  0  0  0  0  0  0  0  0  0
   -0.8612    1.1382   -2.1090 H   0  0  0  0  0  0  0  0  0  0  0  0
   -3.6903    0.7078   -1.0764 H   0  0  0  0  0  0  0  0  0  0  0  0
   -3.4107   -1.2578   -2.2042 H   0  0  0  0  0  0  0  0  0  0  0  0
   -2.7706   -0.4627    0.9284 H   0  0  0  0  0  0  0  0  0  0  0  0
   -0.7179   -1.8980    0.7283 H   0  0  0  0  0  0  0  0  0  0  0  0
   -0.7780   -1.6349   -1.0304 H   0  0  0  0  0  0  0  0  0  0  0  0
  1 10  1  0  0  0  0
  2  8  1  0  0  0  0
  2  1  1  1  0  0  0
  3  4  1  0  0  0  0
  3  2  1  0  0  0  0
  4 15  1  1  0  0  0
  4  6  1  0  0  0  0
  5 16  1  0  0  0  0
  5  4  1  0  0  0  0
  6  2  1  0  0  0  0
  6 17  1  1  0  0  0
  7  6  1  0  0  0  0
  7  8  1  0  0  0  0
  7 18  1  0  0  0  0
  8  9  2  0  0  0  0
 11  1  1  0  0  0  0
 12  1  1  0  0  0  0
 13  3  1  0  0  0  0
 14  3  1  0  0  0  0
 19  7  1  0  0  0  0
M TOR 0 0 1 2 3
M TOR 1 0 1 2 12
M TOR 2 0 1 2 13
M TOR 3 0 1 5 3
M TOR 4 0 1 5 6
M TOR 5 0 1 5 16
M TOR 6 0 1 7 6
M TOR 7 0 1 7 8
M TOR 8 1 2 3 4
M TOR 9 1 2 3 5
M TOR 10 1 2 3 14
M TOR 11 1 5 3 4
M TOR 12 1 5 3 14
M TOR 13 1 5 6 7
M TOR 14 1 5 6 17
M TOR 15 1 5 6 18
M TOR 16 1 7 6 17
M TOR 17 1 7 6 18
M TOR 18 2 1 0 9
M TOR 19 2 1 0 10
M TOR 20 2 1 0 11
M TOR 21 2 1 5 6
M TOR 22 2 1 5 16
M TOR 23 2 1 7 6
M TOR 24 2 1 7 8
M TOR 25 2 3 4 15
M TOR 26 2 3 5 6
M TOR 27 2 3 5 16
M TOR 28 3 2 1 7
M TOR 29 3 5 1 7
M TOR 30 3 5 6 7
M TOR 31 3 5 6 17
M TOR 32 3 5 6 18
M TOR 33 4 3 2 12
M TOR 34 4 3 2 13
M TOR 35 4 3 5 6
M TOR 36 4 3 5 16
M TOR 37 5 1 0 9
M TOR 38 5 1 0 10
M TOR 39 5 1 0 11
M TOR 40 5 1 2 12
M TOR 41 5 1 2 13
M TOR 42 5 1 7 8
M TOR 43 5 3 2 12
M TOR 44 5 3 2 13
M TOR 45 5 3 4 15
M TOR 46 5 6 7 8
M TOR 47 6 5 3 14
M TOR 48 7 1 0 9
M TOR 49 7 1 0 10
M TOR 50 7 1 0 11
M TOR 51 7 1 2 12
M TOR 52 7 1 2 13
M TOR 53 7 1 5 16
M TOR 54 7 6 5 16
M TOR 55 8 7 6 17
M TOR 56 8 7 6 18
M  END
$$$$
