
     RDKit          3D

 19 18  0  0  0  0  0  0  0  0999 V2000
   -1.5800    2.5260   -1.8595 C   0  0  0  0  0  0  0  0  0  0  0  0
   -1.1056    1.8109   -0.6030 C   0  0  0  0  0  0  0  0  0  0  0  0
   -2.1887    1.5827    0.4551 C   0  0  0  0  0  0  0  0  0  0  0  0
   -2.7039    2.8930    1.0864 C   0  0  0  0  0  0  0  0  0  0  0  0
   -3.6738    2.6525    2.1476 C   0  0  0  0  0  0  0  0  0  0  0  0
   -4.4735    2.4299    3.0166 C   0  0  0  0  0  0  0  0  0  0  0  0
   -0.6171    0.5119   -1.0459 O   0  0  0  0  0  0  0  0  0  0  0  0
    0.3686   -0.0443   -0.3309 C   0  0  0  0  0  0  0  0  0  0  0  0
    0.8934    0.4165    0.6465 O   0  0  0  0  0  0  0  0  0  0  0  0
   -2.4185    1.9926   -2.3181 H   0  0  0  0  0  0  0  0  0  0  0  0
   -1.9026    3.5444   -1.6270 H   0  0  0  0  0  0  0  0  0  0  0  0
   -0.7698    2.5873   -2.5906 H   0  0  0  0  0  0  0  0  0  0  0  0
   -0.2613    2.3397   -0.1502 H   0  0  0  0  0  0  0  0  0  0  0  0
   -3.0247    1.0340    0.0077 H   0  0  0  0  0  0  0  0  0  0  0  0
   -1.7716    0.9548    1.2470 H   0  0  0  0  0  0  0  0  0  0  0  0
   -1.8553    3.4612    1.4901 H   0  0  0  0  0  0  0  0  0  0  0  0
   -3.1620    3.5297    0.3200 H   0  0  0  0  0  0  0  0  0  0  0  0
   -5.1783    2.2447    3.7887 H   0  0  0  0  0  0  0  0  0  0  0  0
    0.6330   -1.0096   -0.7909 H   0  0  0  0  0  0  0  0  0  0  0  0
  1  2  1  0
  2  3  1  0
  3  4  1  0
  4  5  1  0
  5  6  3  0
  2  7  1  0
  7  8  1  0
  8  9  2  0
  1 10  1  0
  1 11  1  0
  1 12  1  0
  2 13  1  0
  3 14  1  0
  3 15  1  0
  4 16  1  0
  4 17  1  0
  6 18  1  0
  8 19  1  0
M  END
$$$$
