gdb 771	2.4771185	1.547076	1.0676742	4.3424	77.48	-0.24585	-0.00841	0.23744	1141.6541	0.158811	-422.589323	-422.581221	-422.580277	-422.621949	31.066
 OpenBabel02181911403D

 19 19  0  0  0  0  0  0  0  0999 V2000
    1.9324   -1.5237   -0.4704 O   0  0  0  0  0  0  0  0  0  0  0  0
    1.2315   -0.9065    0.2835 C   0  0  0  0  0  0  0  0  0  0  0  0
    1.7553    0.2371    1.1512 C   0  0  0  0  0  0  0  0  0  0  0  0
    1.4765    1.5406    0.4395 C   0  0  0  0  0  0  0  0  0  0  0  0
    0.3556    2.2486    0.5682 C   0  0  0  0  0  0  0  0  0  0  0  0
   -0.7994    1.9057    1.4782 C   0  0  0  0  0  0  0  0  0  0  0  0
   -1.6297    0.6714    1.0588 C   0  0  0  0  0  0  0  0  0  0  0  0
   -1.0031   -0.7032    1.3135 C   0  0  0  0  0  0  0  0  0  0  0  0
   -0.0987   -1.1712    0.3035 O   0  0  0  0  0  0  0  0  0  0  0  0
    1.3026    0.2300    2.1464 H   0  0  0  0  0  0  0  0  0  0  0  0
    2.8281    0.0731    1.2594 H   0  0  0  0  0  0  0  0  0  0  0  0
    2.2357    1.8608   -0.2681 H   0  0  0  0  0  0  0  0  0  0  0  0
    0.2449    3.1466   -0.0347 H   0  0  0  0  0  0  0  0  0  0  0  0
   -0.4393    1.7488    2.5049 H   0  0  0  0  0  0  0  0  0  0  0  0
   -1.4748    2.7652    1.5291 H   0  0  0  0  0  0  0  0  0  0  0  0
   -2.5668    0.6868    1.6298 H   0  0  0  0  0  0  0  0  0  0  0  0
   -1.9065    0.7381    0.0009 H   0  0  0  0  0  0  0  0  0  0  0  0
   -0.5315   -0.7462    2.3023 H   0  0  0  0  0  0  0  0  0  0  0  0
   -1.7973   -1.4548    1.3049 H   0  0  0  0  0  0  0  0  0  0  0  0
  1  2  2  0  0  0  0
  2  9  1  0  0  0  0
  2  3  1  0  0  0  0
  3 11  1  0  0  0  0
  3 10  1  0  0  0  0
  4  5  2  0  0  0  0
  4  3  1  0  0  0  0
  5  6  1  0  0  0  0
  6 15  1  0  0  0  0
  6 14  1  0  0  0  0
  7  8  1  0  0  0  0
  7  6  1  0  0  0  0
  7 16  1  0  0  0  0
  8 18  1  0  0  0  0
  9  8  1  0  0  0  0
 12  4  1  0  0  0  0
 13  5  1  0  0  0  0
 17  7  1  0  0  0  0
 19  8  1  0  0  0  0
M TOR 0 0 1 2 3
M TOR 1 0 1 2 9
M TOR 2 0 1 2 10
M TOR 3 0 1 8 7
M TOR 4 1 2 3 4
M TOR 5 1 2 3 11
M TOR 6 1 8 7 6
M TOR 7 1 8 7 17
M TOR 8 1 8 7 18
M TOR 9 2 1 8 7
M TOR 10 2 3 4 5
M TOR 11 2 3 4 12
M TOR 12 3 2 1 8
M TOR 13 3 4 5 6
M TOR 14 3 4 5 13
M TOR 15 3 4 5 14
M TOR 16 4 3 2 9
M TOR 17 4 3 2 10
M TOR 18 4 5 6 7
M TOR 19 4 5 6 15
M TOR 20 4 5 6 16
M TOR 21 5 4 3 11
M TOR 22 5 6 7 8
M TOR 23 5 6 7 17
M TOR 24 5 6 7 18
M TOR 25 6 5 4 12
M TOR 26 7 6 5 13
M TOR 27 7 6 5 14
M TOR 28 8 1 2 9
M TOR 29 8 1 2 10
M TOR 30 8 7 6 15
M TOR 31 8 7 6 16
M  END
$$$$
