
     RDKit          3D

 19 20  0  0  0  0  0  0  0  0999 V2000
    1.0218   -0.4262    1.0327 C   0  0  0  0  0  0  0  0  0  0  0  0
    1.0438    0.1895   -0.3681 C   0  0  0  0  0  0  0  0  0  0  0  0
    1.7663   -0.6862   -1.4082 C   0  0  0  0  0  0  0  0  0  0  0  0
    3.2781   -0.7186   -1.2782 C   0  0  0  0  0  0  0  0  0  0  0  0
    4.0504   -1.5812   -2.2602 C   0  0  0  0  0  0  0  0  0  0  0  0
    3.8079   -0.1328   -2.5581 C   0  0  0  0  0  0  0  0  0  0  0  0
    2.7279    0.1611   -3.4225 O   0  0  0  0  0  0  0  0  0  0  0  0
    1.5331   -0.1349   -2.8259 C   0  0  0  0  0  0  0  0  0  0  0  0
    0.4872    0.0328   -3.3801 O   0  0  0  0  0  0  0  0  0  0  0  0
    0.5142   -1.3969    1.0276 H   0  0  0  0  0  0  0  0  0  0  0  0
    2.0315   -0.5827    1.4272 H   0  0  0  0  0  0  0  0  0  0  0  0
    0.4916    0.2244    1.7346 H   0  0  0  0  0  0  0  0  0  0  0  0
    0.0206    0.3479   -0.7238 H   0  0  0  0  0  0  0  0  0  0  0  0
    1.5200    1.1777   -0.3372 H   0  0  0  0  0  0  0  0  0  0  0  0
    1.3251   -1.6902   -1.3818 H   0  0  0  0  0  0  0  0  0  0  0  0
    3.7323   -0.4786   -0.3247 H   0  0  0  0  0  0  0  0  0  0  0  0
    5.0565   -1.8738   -1.9806 H   0  0  0  0  0  0  0  0  0  0  0  0
    3.5097   -2.3144   -2.8510 H   0  0  0  0  0  0  0  0  0  0  0  0
    4.6053    0.5953   -2.6302 H   0  0  0  0  0  0  0  0  0  0  0  0
  1  2  1  0
  2  3  1  0
  3  4  1  0
  4  5  1  0
  5  6  1  0
  6  7  1  0
  7  8  1  0
  8  9  2  0
  8  3  1  0
  6  4  1  0
  1 10  1  0
  1 11  1  0
  1 12  1  0
  2 13  1  0
  2 14  1  0
  3 15  1  0
  4 16  1  0
  5 17  1  0
  5 18  1  0
  6 19  1  0
M  END
$$$$
