gdb 4946	2.5468038	1.5793774	1.1821058	2.0212	74.73	-0.21309	0.0737	0.28679	1096.1385	0.155421	-422.460505	-422.45186	-422.450916	-422.493431	33.231
 OpenBabel02181911413D

 19 21  0  0  1  0  0  0  0  0999 V2000
    1.4786    0.1322   -0.0351 C   0  0  0  0  0  0  0  0  0  0  0  0
    0.0537    0.0435   -0.0610 O   0  0  0  0  0  0  0  0  0  0  0  0
   -0.5292    0.5642    1.0799 C   0  0  1  0  0  0  0  0  0  0  0  0
   -0.8706    2.0341    1.1301 C   0  0  1  0  0  0  0  0  0  0  0  0
   -0.7932    2.6753   -0.1097 O   0  0  0  0  0  0  0  0  0  0  0  0
   -1.9719    0.9915    1.2590 C   0  0  2  0  0  0  0  0  0  0  0  0
   -1.9994    0.2510    2.6247 C   0  0  2  0  0  0  0  0  0  0  0  0
   -0.9380    0.6885    3.6036 C   0  0  0  0  0  0  0  0  0  0  0  0
   -0.5553   -0.1882    2.4402 C   0  0  2  0  0  0  0  0  0  0  0  0
    1.8949   -0.4339    0.8079 H   0  0  0  0  0  0  0  0  0  0  0  0
    1.8387   -0.3018   -0.9699 H   0  0  0  0  0  0  0  0  0  0  0  0
    1.8096    1.1755    0.0389 H   0  0  0  0  0  0  0  0  0  0  0  0
   -0.5987    2.7166    1.9284 H   0  0  0  0  0  0  0  0  0  0  0  0
   -0.5873    1.9924   -0.7628 H   0  0  0  0  0  0  0  0  0  0  0  0
   -2.7888    0.9788    0.5490 H   0  0  0  0  0  0  0  0  0  0  0  0
   -2.8417   -0.3542    2.9346 H   0  0  0  0  0  0  0  0  0  0  0  0
   -0.6061    1.7161    3.6939 H   0  0  0  0  0  0  0  0  0  0  0  0
   -0.9758    0.1685    4.5569 H   0  0  0  0  0  0  0  0  0  0  0  0
   -0.1368   -1.1798    2.5578 H   0  0  0  0  0  0  0  0  0  0  0  0
  1 12  1  0  0  0  0
  1 10  1  0  0  0  0
  2  1  1  0  0  0  0
  3  2  1  6  0  0  0
  3  4  1  0  0  0  0
  3  6  1  0  0  0  0
  3  9  1  0  0  0  0
  4  6  1  0  0  0  0
  4 13  1  1  0  0  0
  5  4  1  0  0  0  0
  6 15  1  6  0  0  0
  6  7  1  0  0  0  0
  7 16  1  1  0  0  0
  7  8  1  0  0  0  0
  8 17  1  0  0  0  0
  8 18  1  0  0  0  0
  9 19  1  1  0  0  0
  9  7  1  0  0  0  0
  9  8  1  0  0  0  0
 11  1  1  0  0  0  0
 14  5  1  0  0  0  0
M TOR 0 0 1 2 3
M TOR 1 0 1 2 5
M TOR 2 0 1 2 8
M TOR 3 1 2 3 4
M TOR 4 1 2 3 5
M TOR 5 1 2 3 12
M TOR 6 1 2 5 6
M TOR 7 1 2 5 14
M TOR 8 1 2 8 6
M TOR 9 1 2 8 7
M TOR 10 1 2 8 18
M TOR 11 2 1 0 9
M TOR 12 2 1 0 10
M TOR 13 2 1 0 11
M TOR 14 2 3 4 13
M TOR 15 2 3 5 6
M TOR 16 2 3 5 14
M TOR 17 2 5 3 4
M TOR 18 2 5 3 12
M TOR 19 2 5 6 7
M TOR 20 2 5 6 8
M TOR 21 2 5 6 15
M TOR 22 2 8 6 7
M TOR 23 2 8 6 15
M TOR 24 2 8 7 16
M TOR 25 2 8 7 17
M TOR 26 3 2 8 6
M TOR 27 3 2 8 7
M TOR 28 3 2 8 18
M TOR 29 3 5 2 8
M TOR 30 3 5 6 7
M TOR 31 3 5 6 8
M TOR 32 3 5 6 15
M TOR 33 4 3 2 8
M TOR 34 4 3 5 6
M TOR 35 4 3 5 14
M TOR 36 5 2 8 7
M TOR 37 5 2 8 18
M TOR 38 5 3 4 13
M TOR 39 5 6 7 8
M TOR 40 5 6 7 16
M TOR 41 5 6 7 17
M TOR 42 5 6 8 18
M TOR 43 6 5 3 12
M TOR 44 6 7 8 18
M TOR 45 6 8 7 16
M TOR 46 6 8 7 17
M TOR 47 7 6 5 14
M TOR 48 7 8 6 15
M TOR 49 8 2 3 12
M TOR 50 8 2 5 14
M TOR 51 8 6 5 14
M  END
$$$$
