gdb 2380	3.0690756	1.1423901	1.0462869	2.0648	77.05	-0.254	0.00725	0.26125	1229.7488	0.155918	-422.550885	-422.541982	-422.541038	-422.585273	32.426
 OpenBabel02181911413D

 19 20  0  0  1  0  0  0  0  0999 V2000
   -3.3736    0.6305    0.0282 C   0  0  0  0  0  0  0  0  0  0  0  0
   -2.5340    1.8583   -0.1654 C   0  0  2  0  0  0  0  0  0  0  0  0
   -2.8229    3.2379    0.4476 C   0  0  0  0  0  0  0  0  0  0  0  0
   -2.2999    3.9239   -0.8592 C   0  0  0  0  0  0  0  0  0  0  0  0
   -1.9940    2.5434   -1.4420 C   0  0  1  0  0  0  0  0  0  0  0  0
   -1.0707    1.8168   -0.5149 C   0  0  2  0  0  0  0  0  0  0  0  0
   -0.6079    0.5899   -1.0641 O   0  0  0  0  0  0  0  0  0  0  0  0
    0.1453   -0.1758   -0.2554 C   0  0  0  0  0  0  0  0  0  0  0  0
    0.4542    0.0735    0.8757 O   0  0  0  0  0  0  0  0  0  0  0  0
   -3.3218    0.2817    1.0667 H   0  0  0  0  0  0  0  0  0  0  0  0
   -4.4251    0.8327   -0.2033 H   0  0  0  0  0  0  0  0  0  0  0  0
   -3.0377   -0.1859   -0.6164 H   0  0  0  0  0  0  0  0  0  0  0  0
   -3.8900    3.4098    0.6086 H   0  0  0  0  0  0  0  0  0  0  0  0
   -2.2896    3.4689    1.3759 H   0  0  0  0  0  0  0  0  0  0  0  0
   -3.0940    4.4458   -1.3967 H   0  0  0  0  0  0  0  0  0  0  0  0
   -1.4463    4.6018   -0.7545 H   0  0  0  0  0  0  0  0  0  0  0  0
   -2.0760    2.2374   -2.4785 H   0  0  0  0  0  0  0  0  0  0  0  0
   -0.3168    2.3195    0.0859 H   0  0  0  0  0  0  0  0  0  0  0  0
    0.4465   -1.0750   -0.8145 H   0  0  0  0  0  0  0  0  0  0  0  0
  1 10  1  0  0  0  0
  2  1  1  1  0  0  0
  2  3  1  0  0  0  0
  3 13  1  0  0  0  0
  3 14  1  0  0  0  0
  4 16  1  0  0  0  0
  4  3  1  0  0  0  0
  5 17  1  6  0  0  0
  5  4  1  0  0  0  0
  5  6  1  0  0  0  0
  5  2  1  0  0  0  0
  6  2  1  0  0  0  0
  6 18  1  1  0  0  0
  7  6  1  0  0  0  0
  7  8  1  0  0  0  0
  8  9  2  0  0  0  0
 11  1  1  0  0  0  0
 12  1  1  0  0  0  0
 15  4  1  0  0  0  0
 19  8  1  0  0  0  0
M TOR 0 0 1 2 3
M TOR 1 0 1 2 12
M TOR 2 0 1 2 13
M TOR 3 0 1 4 3
M TOR 4 0 1 4 5
M TOR 5 0 1 4 16
M TOR 6 0 1 5 6
M TOR 7 0 1 5 17
M TOR 8 1 2 3 4
M TOR 9 1 2 3 14
M TOR 10 1 2 3 15
M TOR 11 1 4 3 14
M TOR 12 1 4 3 15
M TOR 13 1 4 5 6
M TOR 14 1 4 5 17
M TOR 15 1 5 4 3
M TOR 16 1 5 4 16
M TOR 17 1 5 6 7
M TOR 18 2 1 0 9
M TOR 19 2 1 0 10
M TOR 20 2 1 0 11
M TOR 21 2 1 4 5
M TOR 22 2 1 4 16
M TOR 23 2 1 5 6
M TOR 24 2 1 5 17
M TOR 25 2 3 4 5
M TOR 26 2 3 4 16
M TOR 27 3 2 1 5
M TOR 28 3 4 5 6
M TOR 29 3 4 5 17
M TOR 30 4 1 0 9
M TOR 31 4 1 0 10
M TOR 32 4 1 0 11
M TOR 33 4 1 2 12
M TOR 34 4 1 2 13
M TOR 35 4 3 2 12
M TOR 36 4 3 2 13
M TOR 37 4 5 6 7
M TOR 38 5 1 0 9
M TOR 39 5 1 0 10
M TOR 40 5 1 0 11
M TOR 41 5 1 2 12
M TOR 42 5 1 2 13
M TOR 43 5 4 3 14
M TOR 44 5 4 3 15
M TOR 45 5 6 7 8
M TOR 46 5 6 7 18
M TOR 47 6 5 4 16
M TOR 48 7 6 5 17
M  END
$$$$
