
     RDKit          3D

 19 21  0  0  0  0  0  0  0  0999 V2000
    0.3174   -0.1099    0.7752 O   0  0  0  0  0  0  0  0  0  0  0  0
   -0.9876    0.3724    0.8694 C   0  0  0  0  0  0  0  0  0  0  0  0
   -1.9954    0.2285   -0.3476 C   0  0  0  0  0  0  0  0  0  0  0  0
   -2.5562    1.6370    0.0213 C   0  0  0  0  0  0  0  0  0  0  0  0
   -2.5963    2.9409   -0.8207 C   0  0  0  0  0  0  0  0  0  0  0  0
   -1.2867    3.5568   -0.2432 C   0  0  0  0  0  0  0  0  0  0  0  0
   -1.2867    3.3131    1.3044 C   0  0  0  0  0  0  0  0  0  0  0  0
   -1.2167    1.8860    0.7417 C   0  0  0  0  0  0  0  0  0  0  0  0
   -0.3959    2.4066   -0.3636 O   0  0  0  0  0  0  0  0  0  0  0  0
    0.7534    0.4097    0.0885 H   0  0  0  0  0  0  0  0  0  0  0  0
   -1.4267   -0.0402    1.7819 H   0  0  0  0  0  0  0  0  0  0  0  0
   -1.4572    0.2183   -1.2965 H   0  0  0  0  0  0  0  0  0  0  0  0
   -2.6899   -0.6125   -0.3085 H   0  0  0  0  0  0  0  0  0  0  0  0
   -3.4044    1.5514    0.7047 H   0  0  0  0  0  0  0  0  0  0  0  0
   -2.4951    2.7915   -1.8984 H   0  0  0  0  0  0  0  0  0  0  0  0
   -3.4914    3.5408   -0.6339 H   0  0  0  0  0  0  0  0  0  0  0  0
   -0.8901    4.4723   -0.6838 H   0  0  0  0  0  0  0  0  0  0  0  0
   -0.3595    3.6746    1.7504 H   0  0  0  0  0  0  0  0  0  0  0  0
   -2.1617    3.5906    1.8979 H   0  0  0  0  0  0  0  0  0  0  0  0
  1  2  1  0
  2  3  1  0
  3  4  1  0
  4  5  1  0
  5  6  1  0
  6  7  1  0
  7  8  1  0
  8  9  1  0
  8  2  1  0
  8  4  1  0
  9  6  1  0
  1 10  1  0
  2 11  1  0
  3 12  1  0
  3 13  1  0
  4 14  1  0
  5 15  1  0
  5 16  1  0
  6 17  1  0
  7 18  1  0
  7 19  1  0
M  END
$$$$
