
     RDKit          3D

 19 19  0  0  0  0  0  0  0  0999 V2000
    4.4450    0.4881   -2.6066 C   0  0  0  0  0  0  0  0  0  0  0  0
    4.2740    0.9630   -1.1717 C   0  0  0  0  0  0  0  0  0  0  0  0
    4.6809   -0.0191   -0.2407 O   0  0  0  0  0  0  0  0  0  0  0  0
    4.8901    2.3282   -0.8052 C   0  0  0  0  0  0  0  0  0  0  0  0
    3.5896    2.9045   -0.5470 O   0  0  0  0  0  0  0  0  0  0  0  0
    2.9185    1.6663   -0.8460 C   0  0  0  0  0  0  0  0  0  0  0  0
    2.1406    1.1223    0.3567 C   0  0  0  0  0  0  0  0  0  0  0  0
    1.6002   -0.2022    0.0719 C   0  0  0  0  0  0  0  0  0  0  0  0
    1.1968   -1.3000   -0.2115 C   0  0  0  0  0  0  0  0  0  0  0  0
    3.7953   -0.3727   -2.8035 H   0  0  0  0  0  0  0  0  0  0  0  0
    4.1826    1.2754   -3.3199 H   0  0  0  0  0  0  0  0  0  0  0  0
    5.4814    0.1851   -2.7843 H   0  0  0  0  0  0  0  0  0  0  0  0
    4.1101   -0.7895   -0.3530 H   0  0  0  0  0  0  0  0  0  0  0  0
    5.5185    2.2987    0.0913 H   0  0  0  0  0  0  0  0  0  0  0  0
    5.4160    2.8511   -1.6123 H   0  0  0  0  0  0  0  0  0  0  0  0
    2.2467    1.7738   -1.7075 H   0  0  0  0  0  0  0  0  0  0  0  0
    2.8151    1.0738    1.2171 H   0  0  0  0  0  0  0  0  0  0  0  0
    1.3349    1.8221    0.6070 H   0  0  0  0  0  0  0  0  0  0  0  0
    0.8111   -2.2634   -0.4376 H   0  0  0  0  0  0  0  0  0  0  0  0
  1  2  1  0
  2  3  1  0
  2  4  1  0
  4  5  1  0
  5  6  1  0
  6  7  1  0
  7  8  1  0
  8  9  3  0
  6  2  1  0
  1 10  1  0
  1 11  1  0
  1 12  1  0
  3 13  1  0
  4 14  1  0
  4 15  1  0
  6 16  1  0
  7 17  1  0
  7 18  1  0
  9 19  1  0
M  END
$$$$
