
     RDKit          3D

 19 19  0  0  0  0  0  0  0  0999 V2000
   -0.5286    5.2543    0.3948 C   0  0  0  0  0  0  0  0  0  0  0  0
   -0.1412    4.1697   -0.6109 C   0  0  0  0  0  0  0  0  0  0  0  0
   -0.2175    2.8760    0.0086 O   0  0  0  0  0  0  0  0  0  0  0  0
   -1.0865    2.0084   -0.7220 C   0  0  0  0  0  0  0  0  0  0  0  0
   -0.3153    0.7549   -1.1906 C   0  0  0  0  0  0  0  0  0  0  0  0
    0.2734   -0.0185   -0.0298 C   0  0  0  0  0  0  0  0  0  0  0  0
    0.0806   -1.1907    0.1735 O   0  0  0  0  0  0  0  0  0  0  0  0
   -1.6049    2.8547   -1.8540 C   0  0  0  0  0  0  0  0  0  0  0  0
   -1.0578    4.0624   -1.8007 C   0  0  0  0  0  0  0  0  0  0  0  0
    0.1187    5.1983    1.2743 H   0  0  0  0  0  0  0  0  0  0  0  0
   -0.4181    6.2487   -0.0505 H   0  0  0  0  0  0  0  0  0  0  0  0
   -1.5664    5.1268    0.7155 H   0  0  0  0  0  0  0  0  0  0  0  0
    0.9000    4.3427   -0.9297 H   0  0  0  0  0  0  0  0  0  0  0  0
   -1.9032    1.6826   -0.0577 H   0  0  0  0  0  0  0  0  0  0  0  0
   -0.9678    0.0876   -1.7619 H   0  0  0  0  0  0  0  0  0  0  0  0
    0.5075    1.0868   -1.8375 H   0  0  0  0  0  0  0  0  0  0  0  0
    0.9137    0.5881    0.6451 H   0  0  0  0  0  0  0  0  0  0  0  0
   -2.3120    2.4859   -2.5860 H   0  0  0  0  0  0  0  0  0  0  0  0
   -1.2284    4.8847   -2.4843 H   0  0  0  0  0  0  0  0  0  0  0  0
  1  2  1  0
  2  3  1  0
  3  4  1  0
  4  5  1  0
  5  6  1  0
  6  7  2  0
  4  8  1  0
  8  9  2  0
  9  2  1  0
  1 10  1  0
  1 11  1  0
  1 12  1  0
  2 13  1  0
  4 14  1  0
  5 15  1  0
  5 16  1  0
  6 17  1  0
  8 18  1  0
  9 19  1  0
M  END
$$$$
