gdb 3085	3.0316138	1.5484112	1.4041687	1.4636	73.01	-0.2505	0.07653	0.32703	996.0786	0.159553	-422.533945	-422.526804	-422.525859	-422.564996	29.562
 OpenBabel02181911413D

 19 21  0  0  1  0  0  0  0  0999 V2000
    0.1194    0.0723    0.4081 O   0  0  0  0  0  0  0  0  0  0  0  0
   -0.9927    0.8641    0.0703 C   0  0  2  0  0  0  0  0  0  0  0  0
   -1.2420    2.0354    1.0428 C   0  0  1  0  0  0  0  0  0  0  0  0
   -2.2025    3.1001    0.4942 C   0  0  0  0  0  0  0  0  0  0  0  0
   -3.5046    2.4670   -0.0011 C   0  0  1  0  0  0  0  0  0  0  0  0
   -3.5787    1.6291   -1.2539 C   0  0  0  0  0  0  0  0  0  0  0  0
   -3.5782    0.9572    0.1006 C   0  0  1  0  0  0  0  0  0  0  0  0
   -2.3189    0.3532    0.6854 C   0  0  2  0  0  0  0  0  0  0  0  0
   -1.9777    1.1091    1.9056 O   0  0  0  0  0  0  0  0  0  0  0  0
    0.0622   -0.0916    1.3580 H   0  0  0  0  0  0  0  0  0  0  0  0
   -0.9213    1.0563   -1.0002 H   0  0  0  0  0  0  0  0  0  0  0  0
   -0.3699    2.4653    1.5446 H   0  0  0  0  0  0  0  0  0  0  0  0
   -2.4347    3.7945    1.3084 H   0  0  0  0  0  0  0  0  0  0  0  0
   -1.7017    3.6838   -0.2890 H   0  0  0  0  0  0  0  0  0  0  0  0
   -4.4037    3.0196    0.2485 H   0  0  0  0  0  0  0  0  0  0  0  0
   -4.5163    1.6361   -1.7995 H   0  0  0  0  0  0  0  0  0  0  0  0
   -2.7077    1.5461   -1.8929 H   0  0  0  0  0  0  0  0  0  0  0  0
   -4.5061    0.5074    0.4384 H   0  0  0  0  0  0  0  0  0  0  0  0
   -2.3884   -0.7207    0.8772 H   0  0  0  0  0  0  0  0  0  0  0  0
  1 10  1  0  0  0  0
  2 11  1  6  0  0  0
  2  1  1  0  0  0  0
  2  8  1  0  0  0  0
  2  3  1  0  0  0  0
  3 12  1  1  0  0  0
  3  9  1  0  0  0  0
  4  3  1  0  0  0  0
  4 13  1  0  0  0  0
  5  7  1  0  0  0  0
  5 15  1  1  0  0  0
  5  4  1  0  0  0  0
  6  5  1  0  0  0  0
  6  7  1  0  0  0  0
  7 18  1  1  0  0  0
  7  8  1  0  0  0  0
  8 19  1  1  0  0  0
  8  9  1  0  0  0  0
 14  4  1  0  0  0  0
 16  6  1  0  0  0  0
 17  6  1  0  0  0  0
M TOR 0 0 1 2 3
M TOR 1 0 1 2 8
M TOR 2 0 1 2 11
M TOR 3 0 1 7 6
M TOR 4 0 1 7 8
M TOR 5 0 1 7 18
M TOR 6 1 2 3 4
M TOR 7 1 2 3 12
M TOR 8 1 2 3 13
M TOR 9 1 2 8 7
M TOR 10 1 7 6 4
M TOR 11 1 7 6 5
M TOR 12 1 7 6 17
M TOR 13 2 1 0 9
M TOR 14 2 1 7 6
M TOR 15 2 1 7 18
M TOR 16 2 3 4 5
M TOR 17 2 3 4 6
M TOR 18 2 3 4 14
M TOR 19 2 8 7 6
M TOR 20 2 8 7 18
M TOR 21 3 2 1 7
M TOR 22 3 2 1 10
M TOR 23 3 2 8 7
M TOR 24 3 4 5 6
M TOR 25 3 4 5 15
M TOR 26 3 4 5 16
M TOR 27 3 4 6 7
M TOR 28 3 4 6 17
M TOR 29 4 3 2 8
M TOR 30 4 3 2 11
M TOR 31 4 5 6 7
M TOR 32 4 5 6 17
M TOR 33 4 6 5 15
M TOR 34 4 6 5 16
M TOR 35 4 6 7 8
M TOR 36 4 6 7 18
M TOR 37 5 4 3 12
M TOR 38 5 4 3 13
M TOR 39 5 6 4 14
M TOR 40 5 6 7 8
M TOR 41 5 6 7 18
M TOR 42 6 4 3 12
M TOR 43 6 4 3 13
M TOR 44 6 7 1 10
M TOR 45 7 1 0 9
M TOR 46 7 1 2 11
M TOR 47 7 6 4 14
M TOR 48 7 6 5 15
M TOR 49 7 6 5 16
M TOR 50 7 8 2 11
M TOR 51 8 2 1 10
M TOR 52 8 2 3 12
M TOR 53 8 2 3 13
M TOR 54 8 7 1 10
M TOR 55 8 7 6 17
M  END
$$$$
