gdb 3600	2.5147182	1.4505334	1.0360966	3.4406	78.36	-0.23971	-0.05721	0.1825	1176.6375	0.15698	-422.597552	-422.588614	-422.58767	-422.631114	33.339
 OpenBabel02181911413D

 19 19  0  0  1  0  0  0  0  0999 V2000
   -0.0198    2.5057    0.3305 C   0  0  0  0  0  0  0  0  0  0  0  0
   -0.8569    1.2636    0.0293 C   0  0  2  0  0  0  0  0  0  0  0  0
   -2.0676    1.1044    0.9652 C   0  0  0  0  0  0  0  0  0  0  0  0
   -2.9206   -0.1091    0.6021 C   0  0  1  0  0  0  0  0  0  0  0  0
   -3.6347    0.2190   -0.5963 O   0  0  0  0  0  0  0  0  0  0  0  0
   -2.0705   -1.3427    0.3972 C   0  0  0  0  0  0  0  0  0  0  0  0
   -0.7602   -1.2911    0.1384 C   0  0  0  0  0  0  0  0  0  0  0  0
   -0.0143   -0.0111    0.0306 C   0  0  0  0  0  0  0  0  0  0  0  0
    1.1950   -0.0039   -0.0863 O   0  0  0  0  0  0  0  0  0  0  0  0
    0.3545    2.4868    1.3597 H   0  0  0  0  0  0  0  0  0  0  0  0
    0.8466    2.5572   -0.3317 H   0  0  0  0  0  0  0  0  0  0  0  0
   -0.6179    3.4129    0.2025 H   0  0  0  0  0  0  0  0  0  0  0  0
   -1.2564    1.3364   -0.9934 H   0  0  0  0  0  0  0  0  0  0  0  0
   -1.7239    0.9953    2.0010 H   0  0  0  0  0  0  0  0  0  0  0  0
   -2.6971    1.9989    0.9236 H   0  0  0  0  0  0  0  0  0  0  0  0
   -3.6389   -0.3025    1.4138 H   0  0  0  0  0  0  0  0  0  0  0  0
   -4.0679   -0.5772   -0.9212 H   0  0  0  0  0  0  0  0  0  0  0  0
   -2.5775   -2.3056    0.4484 H   0  0  0  0  0  0  0  0  0  0  0  0
   -0.1636   -2.1880   -0.0001 H   0  0  0  0  0  0  0  0  0  0  0  0
  1 10  1  0  0  0  0
  2 13  1  6  0  0  0
  2  8  1  0  0  0  0
  2  1  1  0  0  0  0
  2  3  1  0  0  0  0
  3 14  1  0  0  0  0
  4  3  1  0  0  0  0
  4 16  1  1  0  0  0
  5  4  1  0  0  0  0
  6 18  1  0  0  0  0
  6  4  1  0  0  0  0
  7  6  2  0  0  0  0
  8  7  1  0  0  0  0
  9  8  2  0  0  0  0
 11  1  1  0  0  0  0
 12  1  1  0  0  0  0
 15  3  1  0  0  0  0
 17  5  1  0  0  0  0
 19  7  1  0  0  0  0
M TOR 0 0 1 2 3
M TOR 1 0 1 2 13
M TOR 2 0 1 2 14
M TOR 3 0 1 7 6
M TOR 4 0 1 7 8
M TOR 5 1 2 3 4
M TOR 6 1 2 3 5
M TOR 7 1 2 3 15
M TOR 8 1 7 6 5
M TOR 9 1 7 6 18
M TOR 10 2 1 0 9
M TOR 11 2 1 0 10
M TOR 12 2 1 0 11
M TOR 13 2 1 7 6
M TOR 14 2 1 7 8
M TOR 15 2 3 4 16
M TOR 16 2 3 5 6
M TOR 17 2 3 5 17
M TOR 18 3 2 1 7
M TOR 19 3 2 1 12
M TOR 20 3 5 6 7
M TOR 21 3 5 6 18
M TOR 22 4 3 2 13
M TOR 23 4 3 2 14
M TOR 24 4 3 5 6
M TOR 25 4 3 5 17
M TOR 26 5 3 2 13
M TOR 27 5 3 2 14
M TOR 28 5 3 4 16
M TOR 29 5 6 7 8
M TOR 30 6 5 3 15
M TOR 31 6 7 1 12
M TOR 32 7 1 0 9
M TOR 33 7 1 0 10
M TOR 34 7 1 0 11
M TOR 35 7 1 2 13
M TOR 36 7 1 2 14
M TOR 37 7 6 5 17
M TOR 38 8 7 1 12
M TOR 39 8 7 6 18
M  END
$$$$
