gdb 2836	3.1914881	1.4128687	1.1847399	1.2758	75.37	-0.24497	0.06322	0.30818999999999996	1091.915	0.155877	-422.494839	-422.486363	-422.485419	-422.527211	33.138
 OpenBabel02181911413D

 19 21  0  0  1  0  0  0  0  0999 V2000
   -0.0031    0.2844    0.1962 C   0  0  0  0  0  0  0  0  0  0  0  0
    1.4906    0.0960   -0.0229 C   0  0  2  0  0  0  0  0  0  0  0  0
    2.3632   -0.5322    1.0915 C   0  0  1  0  0  0  0  0  0  0  0  0
    3.6527    0.1996    0.5714 C   0  0  2  0  0  0  0  0  0  0  0  0
    3.9924    0.7168    1.9815 C   0  0  1  0  0  0  0  0  0  0  0  0
    4.7367    1.9009    2.1505 O   0  0  0  0  0  0  0  0  0  0  0  0
    2.4577    0.7937    1.9074 C   0  0  2  0  0  0  0  0  0  0  0  0
    1.5707    1.1720    2.8955 O   0  0  0  0  0  0  0  0  0  0  0  0
    2.4772    1.2206    0.3719 C   0  0  2  0  0  0  0  0  0  0  0  0
   -0.2110    0.7119    1.1800 H   0  0  0  0  0  0  0  0  0  0  0  0
   -0.4261    0.9511   -0.5642 H   0  0  0  0  0  0  0  0  0  0  0  0
   -0.5316   -0.6727    0.1208 H   0  0  0  0  0  0  0  0  0  0  0  0
    1.6885   -0.3250   -1.0170 H   0  0  0  0  0  0  0  0  0  0  0  0
    2.3357   -1.5374    1.5154 H   0  0  0  0  0  0  0  0  0  0  0  0
    4.3133   -0.1674   -0.2110 H   0  0  0  0  0  0  0  0  0  0  0  0
    4.4063   -0.0121    2.6855 H   0  0  0  0  0  0  0  0  0  0  0  0
    4.4947    2.5101    1.4441 H   0  0  0  0  0  0  0  0  0  0  0  0
    1.9155    1.9722    3.3085 H   0  0  0  0  0  0  0  0  0  0  0  0
    2.5519    2.2312   -0.0372 H   0  0  0  0  0  0  0  0  0  0  0  0
  1 10  1  0  0  0  0
  2 13  1  6  0  0  0
  2  1  1  0  0  0  0
  2  9  1  0  0  0  0
  2  3  1  0  0  0  0
  3 14  1  1  0  0  0
  3  7  1  0  0  0  0
  4 15  1  6  0  0  0
  4  3  1  0  0  0  0
  4  5  1  0  0  0  0
  5  6  1  0  0  0  0
  5 16  1  1  0  0  0
  7  5  1  0  0  0  0
  7  8  1  1  0  0  0
  8 18  1  0  0  0  0
  9 19  1  6  0  0  0
  9  4  1  0  0  0  0
  9  7  1  0  0  0  0
 11  1  1  0  0  0  0
 12  1  1  0  0  0  0
 17  6  1  0  0  0  0
M TOR 0 0 1 2 3
M TOR 1 0 1 2 6
M TOR 2 0 1 2 13
M TOR 3 0 1 8 3
M TOR 4 0 1 8 6
M TOR 5 0 1 8 18
M TOR 6 1 2 3 4
M TOR 7 1 2 3 8
M TOR 8 1 2 3 14
M TOR 9 1 2 6 4
M TOR 10 1 2 6 7
M TOR 11 1 2 6 8
M TOR 12 1 8 3 4
M TOR 13 1 8 3 14
M TOR 14 1 8 6 4
M TOR 15 1 8 6 7
M TOR 16 2 1 0 9
M TOR 17 2 1 0 10
M TOR 18 2 1 0 11
M TOR 19 2 1 8 18
M TOR 20 2 3 4 5
M TOR 21 2 3 4 6
M TOR 22 2 3 4 15
M TOR 23 2 3 8 6
M TOR 24 2 3 8 18
M TOR 25 2 6 4 5
M TOR 26 2 6 4 15
M TOR 27 2 6 7 17
M TOR 28 2 6 8 18
M TOR 29 3 2 1 12
M TOR 30 3 2 6 7
M TOR 31 3 4 5 16
M TOR 32 3 4 6 7
M TOR 33 3 4 6 8
M TOR 34 3 8 1 12
M TOR 35 3 8 6 7
M TOR 36 4 3 2 13
M TOR 37 4 3 8 18
M TOR 38 4 6 2 13
M TOR 39 4 6 7 17
M TOR 40 4 6 8 18
M TOR 41 5 4 3 8
M TOR 42 5 4 3 14
M TOR 43 5 4 6 7
M TOR 44 5 4 6 8
M TOR 45 6 2 1 12
M TOR 46 6 2 3 14
M TOR 47 6 4 3 14
M TOR 48 6 4 5 16
M TOR 49 6 8 1 12
M TOR 50 6 8 3 14
M TOR 51 7 6 2 13
M TOR 52 7 6 4 15
M TOR 53 7 6 8 18
M TOR 54 8 1 0 9
M TOR 55 8 1 0 10
M TOR 56 8 1 0 11
M TOR 57 8 1 2 13
M TOR 58 8 3 2 13
M TOR 59 8 3 4 15
M TOR 60 8 6 2 13
M TOR 61 8 6 4 15
M TOR 62 8 6 7 17
M  END
$$$$
