gdb 2618	2.9579071	1.3288201	1.1275765	2.232	75.87	-0.24869	-0.02692	0.22177	1135.0984	0.155838	-422.55081	-422.542032	-422.541088	-422.584378	32.813
 OpenBabel02181911413D

 19 20  0  0  1  0  0  0  0  0999 V2000
   -1.5097   -2.3100    0.6238 O   0  0  0  0  0  0  0  0  0  0  0  0
   -1.1877   -1.2017   -0.1602 C   0  0  2  0  0  0  0  0  0  0  0  0
   -0.0553   -0.2992    0.3219 C   0  0  0  0  0  0  0  0  0  0  0  0
    0.8314   -0.5166    1.1021 O   0  0  0  0  0  0  0  0  0  0  0  0
   -0.7661    0.9585   -0.1816 C   0  0  0  0  0  0  0  0  0  0  0  0
   -2.0698    0.1069   -0.1471 C   0  0  0  0  0  0  0  0  0  0  0  0
   -3.0654    0.2152    1.0367 C   0  0  0  0  0  0  0  0  0  0  0  0
   -4.2145   -0.1022    0.0402 C   0  0  0  0  0  0  0  0  0  0  0  0
   -3.2521    0.2322   -1.1332 C   0  0  0  0  0  0  0  0  0  0  0  0
   -0.8913   -2.3176    1.3659 H   0  0  0  0  0  0  0  0  0  0  0  0
   -1.0368   -1.5112   -1.2052 H   0  0  0  0  0  0  0  0  0  0  0  0
   -0.7056    1.8403    0.4599 H   0  0  0  0  0  0  0  0  0  0  0  0
   -0.4680    1.2290   -1.2001 H   0  0  0  0  0  0  0  0  0  0  0  0
   -2.9176   -0.4852    1.8614 H   0  0  0  0  0  0  0  0  0  0  0  0
   -3.1220    1.2333    1.4327 H   0  0  0  0  0  0  0  0  0  0  0  0
   -4.4802   -1.1617    0.0596 H   0  0  0  0  0  0  0  0  0  0  0  0
   -5.1267    0.4919    0.1227 H   0  0  0  0  0  0  0  0  0  0  0  0
   -3.2461   -0.4380   -1.9980 H   0  0  0  0  0  0  0  0  0  0  0  0
   -3.3769    1.2597   -1.4895 H   0  0  0  0  0  0  0  0  0  0  0  0
  1 10  1  0  0  0  0
  2 11  1  6  0  0  0
  2  6  1  0  0  0  0
  2  3  1  0  0  0  0
  2  1  1  0  0  0  0
  3  4  2  0  0  0  0
  5  6  1  0  0  0  0
  5  3  1  0  0  0  0
  5 12  1  0  0  0  0
  6  7  1  0  0  0  0
  7 15  1  0  0  0  0
  7 14  1  0  0  0  0
  8 16  1  0  0  0  0
  8 17  1  0  0  0  0
  8  7  1  0  0  0  0
  9  6  1  0  0  0  0
  9  8  1  0  0  0  0
 13  5  1  0  0  0  0
 18  9  1  0  0  0  0
 19  9  1  0  0  0  0
M TOR 0 0 1 2 3
M TOR 1 0 1 2 4
M TOR 2 0 1 5 4
M TOR 3 0 1 5 6
M TOR 4 0 1 5 8
M TOR 5 1 2 4 5
M TOR 6 1 2 4 11
M TOR 7 1 2 4 12
M TOR 8 1 5 4 11
M TOR 9 1 5 4 12
M TOR 10 1 5 6 7
M TOR 11 1 5 6 13
M TOR 12 1 5 6 14
M TOR 13 1 5 8 7
M TOR 14 1 5 8 17
M TOR 15 1 5 8 18
M TOR 16 2 1 0 9
M TOR 17 2 1 5 6
M TOR 18 2 1 5 8
M TOR 19 2 4 5 6
M TOR 20 2 4 5 8
M TOR 21 3 2 1 5
M TOR 22 3 2 1 10
M TOR 23 3 2 4 5
M TOR 24 3 2 4 11
M TOR 25 3 2 4 12
M TOR 26 4 2 1 10
M TOR 27 4 5 1 10
M TOR 28 4 5 6 7
M TOR 29 4 5 6 13
M TOR 30 4 5 6 14
M TOR 31 4 5 8 7
M TOR 32 4 5 8 17
M TOR 33 4 5 8 18
M TOR 34 5 1 0 9
M TOR 35 5 6 7 8
M TOR 36 5 6 7 15
M TOR 37 5 6 7 16
M TOR 38 5 8 7 15
M TOR 39 5 8 7 16
M TOR 40 6 5 1 10
M TOR 41 6 5 4 11
M TOR 42 6 5 4 12
M TOR 43 6 5 8 17
M TOR 44 6 5 8 18
M TOR 45 6 7 8 17
M TOR 46 6 7 8 18
M TOR 47 8 5 1 10
M TOR 48 8 5 4 11
M TOR 49 8 5 4 12
M TOR 50 8 5 6 13
M TOR 51 8 5 6 14
M TOR 52 8 7 6 13
M TOR 53 8 7 6 14
M  END
$$$$
