gdb 2602	1.9732917	1.8523199	1.1486969	3.0965	76.75	-0.23253	-0.02115	0.21137999999999998	1136.5244	0.15335	-422.552375	-422.54256	-422.541616	-422.586665	35.373
 OpenBabel02181911413D

 19 20  0  0  1  0  0  0  0  0999 V2000
   -1.1024   -1.8969   -1.2873 C   0  0  0  0  0  0  0  0  0  0  0  0
   -0.8048   -1.0743   -0.0410 C   0  0  1  0  0  0  0  0  0  0  0  0
    0.1913    0.1242   -0.1363 C   0  0  0  0  0  0  0  0  0  0  0  0
    1.3664    0.2065   -0.3432 O   0  0  0  0  0  0  0  0  0  0  0  0
   -0.8826    1.1090    0.3218 C   0  0  1  0  0  0  0  0  0  0  0  0
   -0.7576    2.4336    0.9945 C   0  0  0  0  0  0  0  0  0  0  0  0
   -1.9530    0.9070   -0.6433 O   0  0  0  0  0  0  0  0  0  0  0  0
   -1.8430   -0.0305    0.4326 C   0  0  1  0  0  0  0  0  0  0  0  0
   -3.0109   -0.2291    1.3422 C   0  0  0  0  0  0  0  0  0  0  0  0
   -1.8223   -2.6948   -1.0776 H   0  0  0  0  0  0  0  0  0  0  0  0
   -1.5098   -1.2584   -2.0751 H   0  0  0  0  0  0  0  0  0  0  0  0
   -0.1857   -2.3623   -1.6618 H   0  0  0  0  0  0  0  0  0  0  0  0
   -0.4690   -1.7126    0.7874 H   0  0  0  0  0  0  0  0  0  0  0  0
   -0.0532    2.3733    1.8296 H   0  0  0  0  0  0  0  0  0  0  0  0
   -0.3832    3.1859    0.2929 H   0  0  0  0  0  0  0  0  0  0  0  0
   -1.7272    2.7706    1.3713 H   0  0  0  0  0  0  0  0  0  0  0  0
   -3.7802   -0.8392    0.8562 H   0  0  0  0  0  0  0  0  0  0  0  0
   -2.7031   -0.7432    2.2582 H   0  0  0  0  0  0  0  0  0  0  0  0
   -3.4610    0.7307    1.6091 H   0  0  0  0  0  0  0  0  0  0  0  0
  1 10  1  0  0  0  0
  1  2  1  0  0  0  0
  2  8  1  0  0  0  0
  2 13  1  1  0  0  0
  3  2  1  0  0  0  0
  3  5  1  0  0  0  0
  4  3  2  0  0  0  0
  5  8  1  0  0  0  0
  5  6  1  1  0  0  0
  6 16  1  0  0  0  0
  6 14  1  0  0  0  0
  7  5  1  0  0  0  0
  7  8  1  0  0  0  0
  8  9  1  1  0  0  0
  9 19  1  0  0  0  0
  9 18  1  0  0  0  0
 11  1  1  0  0  0  0
 12  1  1  0  0  0  0
 15  6  1  0  0  0  0
 17  9  1  0  0  0  0
M TOR 0 0 1 2 3
M TOR 1 0 1 2 4
M TOR 2 0 1 7 4
M TOR 3 0 1 7 6
M TOR 4 0 1 7 8
M TOR 5 1 2 4 5
M TOR 6 1 2 4 6
M TOR 7 1 2 4 7
M TOR 8 1 7 4 5
M TOR 9 1 7 4 6
M TOR 10 1 7 8 16
M TOR 11 1 7 8 17
M TOR 12 1 7 8 18
M TOR 13 2 1 0 9
M TOR 14 2 1 0 10
M TOR 15 2 1 0 11
M TOR 16 2 1 7 6
M TOR 17 2 1 7 8
M TOR 18 2 4 5 13
M TOR 19 2 4 5 14
M TOR 20 2 4 5 15
M TOR 21 2 4 6 7
M TOR 22 2 4 7 8
M TOR 23 3 2 1 7
M TOR 24 3 2 1 12
M TOR 25 3 2 4 5
M TOR 26 3 2 4 6
M TOR 27 3 2 4 7
M TOR 28 4 2 1 12
M TOR 29 4 6 7 8
M TOR 30 4 7 1 12
M TOR 31 4 7 8 16
M TOR 32 4 7 8 17
M TOR 33 4 7 8 18
M TOR 34 5 4 6 7
M TOR 35 5 4 7 8
M TOR 36 6 4 5 13
M TOR 37 6 4 5 14
M TOR 38 6 4 5 15
M TOR 39 6 7 1 12
M TOR 40 6 7 8 16
M TOR 41 6 7 8 17
M TOR 42 6 7 8 18
M TOR 43 7 1 0 9
M TOR 44 7 1 0 10
M TOR 45 7 1 0 11
M TOR 46 7 4 5 13
M TOR 47 7 4 5 14
M TOR 48 7 4 5 15
M TOR 49 8 7 1 12
M  END
$$$$
