gdb 5979	3.7854531	1.0847787	0.9738031	1.7386	76.37	-0.23169	0.07888	0.31057	1272.5869	0.155729	-422.448849	-422.440491	-422.439547	-422.482481	30.868
 OpenBabel02181911423D

 19 21  0  0  1  0  0  0  0  0999 V2000
    1.5166    0.5617    0.0739 C   0  0  0  0  0  0  0  0  0  0  0  0
    0.1744    0.9470    0.2503 O   0  0  0  0  0  0  0  0  0  0  0  0
   -0.5638    0.0217    1.0230 C   0  0  0  0  0  0  0  0  0  0  0  0
   -1.9708    0.5183    1.1417 C   0  0  1  0  0  0  0  0  0  0  0  0
   -2.5415    1.8027    1.7833 C   0  0  0  0  0  0  0  0  0  0  0  0
   -3.8046    1.0931    1.2468 C   0  0  1  0  0  0  0  0  0  0  0  0
   -3.0473    0.5329    0.0052 C   0  0  2  0  0  0  0  0  0  0  0  0
   -3.4595   -0.8528    0.2155 O   0  0  0  0  0  0  0  0  0  0  0  0
   -3.2244   -0.3226    1.5533 C   0  0  1  0  0  0  0  0  0  0  0  0
    1.5996   -0.4067   -0.4445 H   0  0  0  0  0  0  0  0  0  0  0  0
    2.0007    1.3303   -0.5336 H   0  0  0  0  0  0  0  0  0  0  0  0
    2.0491    0.4808    1.0352 H   0  0  0  0  0  0  0  0  0  0  0  0
   -0.5728   -0.9723    0.5443 H   0  0  0  0  0  0  0  0  0  0  0  0
   -0.1089   -0.0965    2.0222 H   0  0  0  0  0  0  0  0  0  0  0  0
   -2.4531    1.8856    2.8706 H   0  0  0  0  0  0  0  0  0  0  0  0
   -2.2667    2.7453    1.3042 H   0  0  0  0  0  0  0  0  0  0  0  0
   -4.8518    1.3902    1.2918 H   0  0  0  0  0  0  0  0  0  0  0  0
   -2.9791    0.9145   -1.0127 H   0  0  0  0  0  0  0  0  0  0  0  0
   -3.3785   -0.9752    2.4132 H   0  0  0  0  0  0  0  0  0  0  0  0
  1  2  1  0  0  0  0
  1 12  1  0  0  0  0
  2  3  1  0  0  0  0
  3 14  1  0  0  0  0
  4  3  1  6  0  0  0
  4  9  1  0  0  0  0
  4  5  1  0  0  0  0
  5 15  1  0  0  0  0
  6 17  1  1  0  0  0
  6  9  1  0  0  0  0
  6  5  1  0  0  0  0
  7 18  1  6  0  0  0
  7  8  1  0  0  0  0
  7  4  1  0  0  0  0
  7  6  1  0  0  0  0
  8  9  1  0  0  0  0
  9 19  1  1  0  0  0
 10  1  1  0  0  0  0
 11  1  1  0  0  0  0
 13  3  1  0  0  0  0
 16  5  1  0  0  0  0
M TOR 0 0 1 2 3
M TOR 1 0 1 2 12
M TOR 2 0 1 2 13
M TOR 3 1 2 3 4
M TOR 4 1 2 3 6
M TOR 5 1 2 3 8
M TOR 6 2 1 0 9
M TOR 7 2 1 0 10
M TOR 8 2 1 0 11
M TOR 9 2 3 4 5
M TOR 10 2 3 4 14
M TOR 11 2 3 4 15
M TOR 12 2 3 6 5
M TOR 13 2 3 6 7
M TOR 14 2 3 6 17
M TOR 15 2 3 8 5
M TOR 16 2 3 8 7
M TOR 17 2 3 8 18
M TOR 18 3 4 5 6
M TOR 19 3 4 5 8
M TOR 20 3 4 5 16
M TOR 21 3 6 5 8
M TOR 22 3 6 5 16
M TOR 23 3 6 7 8
M TOR 24 3 8 5 16
M TOR 25 4 3 2 12
M TOR 26 4 3 2 13
M TOR 27 4 3 6 7
M TOR 28 4 3 6 17
M TOR 29 4 3 8 7
M TOR 30 4 3 8 18
M TOR 31 4 5 6 7
M TOR 32 4 5 6 17
M TOR 33 4 5 8 7
M TOR 34 4 5 8 18
M TOR 35 5 6 7 8
M TOR 36 6 3 2 12
M TOR 37 6 3 2 13
M TOR 38 6 3 4 14
M TOR 39 6 3 4 15
M TOR 40 6 3 8 18
M TOR 41 6 5 4 14
M TOR 42 6 5 4 15
M TOR 43 6 5 8 18
M TOR 44 6 7 8 18
M TOR 45 7 6 5 16
M TOR 46 7 8 5 16
M TOR 47 8 3 2 12
M TOR 48 8 3 2 13
M TOR 49 8 3 4 14
M TOR 50 8 3 4 15
M TOR 51 8 3 6 17
M TOR 52 8 5 4 14
M TOR 53 8 5 4 15
M TOR 54 8 5 6 17
M TOR 55 8 7 6 17
M  END
$$$$
