
     RDKit          3D

 19 20  0  0  0  0  0  0  0  0999 V2000
   -1.5740    0.2350    2.4524 C   0  0  0  0  0  0  0  0  0  0  0  0
   -1.9892    0.5909    1.0354 C   0  0  0  0  0  0  0  0  0  0  0  0
   -0.9304    0.9863   -0.0588 C   0  0  0  0  0  0  0  0  0  0  0  0
   -2.0030    0.5412   -1.1096 C   0  0  0  0  0  0  0  0  0  0  0  0
   -2.2875   -0.5199   -0.0186 C   0  0  0  0  0  0  0  0  0  0  0  0
   -3.4581   -1.4580    0.0101 C   0  0  0  0  0  0  0  0  0  0  0  0
   -1.0243   -1.2779   -0.0237 O   0  0  0  0  0  0  0  0  0  0  0  0
   -0.0822   -0.2771   -0.0516 C   0  0  0  0  0  0  0  0  0  0  0  0
    1.0973   -0.4611   -0.0622 O   0  0  0  0  0  0  0  0  0  0  0  0
   -0.8017   -0.5385    2.4704 H   0  0  0  0  0  0  0  0  0  0  0  0
   -1.1849    1.1154    2.9740 H   0  0  0  0  0  0  0  0  0  0  0  0
   -2.4326   -0.1336    3.0237 H   0  0  0  0  0  0  0  0  0  0  0  0
   -2.8003    1.3258    1.0383 H   0  0  0  0  0  0  0  0  0  0  0  0
   -0.4020    1.9354   -0.0845 H   0  0  0  0  0  0  0  0  0  0  0  0
   -2.8067    1.2702   -1.2289 H   0  0  0  0  0  0  0  0  0  0  0  0
   -1.6547    0.1762   -2.0782 H   0  0  0  0  0  0  0  0  0  0  0  0
   -3.4336   -2.0799    0.9099 H   0  0  0  0  0  0  0  0  0  0  0  0
   -4.3939   -0.8916    0.0039 H   0  0  0  0  0  0  0  0  0  0  0  0
   -3.4455   -2.1190   -0.8615 H   0  0  0  0  0  0  0  0  0  0  0  0
  1  2  1  0
  2  3  1  0
  3  4  1  0
  4  5  1  0
  5  6  1  0
  5  7  1  0
  7  8  1  0
  8  9  2  0
  5  2  1  0
  8  3  1  0
  1 10  1  0
  1 11  1  0
  1 12  1  0
  2 13  1  0
  3 14  1  0
  4 15  1  0
  4 16  1  0
  6 17  1  0
  6 18  1  0
  6 19  1  0
M  END
$$$$
