gdb 5254	3.5128466	1.2727727	1.1933145	1.8923	74.4	-0.22946	0.07403	0.30349	1103.8252	0.158398	-422.525935	-422.518164	-422.51722	-422.558263	30.223
 OpenBabel02181911423D

 19 21  0  0  1  0  0  0  0  0999 V2000
    0.8476    0.6686   -0.4536 O   0  0  0  0  0  0  0  0  0  0  0  0
    0.0991   -0.2815    0.2942 C   0  0  0  0  0  0  0  0  0  0  0  0
   -0.4136    0.2843    1.5836 C   0  0  2  0  0  0  0  0  0  0  0  0
   -1.4616    1.3914    1.7254 C   0  0  0  0  0  0  0  0  0  0  0  0
   -1.7954    0.8471    3.1522 C   0  0  2  0  0  0  0  0  0  0  0  0
   -0.9272    1.5539    4.1910 C   0  0  0  0  0  0  0  0  0  0  0  0
    0.4182    1.3266    3.7412 O   0  0  0  0  0  0  0  0  0  0  0  0
    0.3741    0.2045    2.8885 C   0  0  1  0  0  0  0  0  0  0  0  0
   -0.9683   -0.4314    2.8276 C   0  0  2  0  0  0  0  0  0  0  0  0
    1.5322    1.0153    0.1288 H   0  0  0  0  0  0  0  0  0  0  0  0
   -0.7335   -0.5731   -0.3569 H   0  0  0  0  0  0  0  0  0  0  0  0
    0.6870   -1.1934    0.4950 H   0  0  0  0  0  0  0  0  0  0  0  0
   -1.1182    2.4289    1.6574 H   0  0  0  0  0  0  0  0  0  0  0  0
   -2.2898    1.2387    1.0282 H   0  0  0  0  0  0  0  0  0  0  0  0
   -2.8461    0.7450    3.4193 H   0  0  0  0  0  0  0  0  0  0  0  0
   -1.0954    2.6350    4.2326 H   0  0  0  0  0  0  0  0  0  0  0  0
   -1.0675    1.1319    5.1979 H   0  0  0  0  0  0  0  0  0  0  0  0
    1.2817   -0.3890    2.9066 H   0  0  0  0  0  0  0  0  0  0  0  0
   -1.2138   -1.4685    3.0151 H   0  0  0  0  0  0  0  0  0  0  0  0
  1 10  1  0  0  0  0
  1  2  1  0  0  0  0
  2 12  1  0  0  0  0
  3  2  1  6  0  0  0
  3  4  1  0  0  0  0
  3  9  1  0  0  0  0
  3  8  1  0  0  0  0
  4  5  1  0  0  0  0
  5 15  1  1  0  0  0
  5  6  1  0  0  0  0
  6 16  1  0  0  0  0
  6 17  1  0  0  0  0
  7  6  1  0  0  0  0
  8 18  1  1  0  0  0
  8  7  1  0  0  0  0
  9  8  1  0  0  0  0
  9 19  1  1  0  0  0
  9  5  1  0  0  0  0
 11  2  1  0  0  0  0
 13  4  1  0  0  0  0
 14  4  1  0  0  0  0
M TOR 0 0 1 2 3
M TOR 1 0 1 2 7
M TOR 2 0 1 2 8
M TOR 3 1 2 3 4
M TOR 4 1 2 3 12
M TOR 5 1 2 3 13
M TOR 6 1 2 7 6
M TOR 7 1 2 7 8
M TOR 8 1 2 7 17
M TOR 9 1 2 8 4
M TOR 10 1 2 8 18
M TOR 11 2 1 0 9
M TOR 12 2 3 4 5
M TOR 13 2 3 4 8
M TOR 14 2 3 4 14
M TOR 15 2 7 6 5
M TOR 16 2 7 8 4
M TOR 17 2 7 8 18
M TOR 18 2 8 4 5
M TOR 19 2 8 4 14
M TOR 20 2 8 7 6
M TOR 21 2 8 7 17
M TOR 22 3 2 1 10
M TOR 23 3 2 1 11
M TOR 24 3 2 7 6
M TOR 25 3 2 7 8
M TOR 26 3 2 7 17
M TOR 27 3 2 8 18
M TOR 28 3 4 5 6
M TOR 29 3 4 5 15
M TOR 30 3 4 5 16
M TOR 31 3 4 8 7
M TOR 32 3 4 8 18
M TOR 33 4 3 2 7
M TOR 34 4 5 6 7
M TOR 35 4 8 7 6
M TOR 36 4 8 7 17
M TOR 37 5 4 3 12
M TOR 38 5 4 3 13
M TOR 39 5 4 8 7
M TOR 40 5 4 8 18
M TOR 41 5 6 7 8
M TOR 42 5 6 7 17
M TOR 43 6 5 4 8
M TOR 44 6 5 4 14
M TOR 45 6 7 8 18
M TOR 46 7 2 1 10
M TOR 47 7 2 1 11
M TOR 48 7 2 3 12
M TOR 49 7 2 3 13
M TOR 50 7 6 5 15
M TOR 51 7 6 5 16
M TOR 52 7 8 4 14
M TOR 53 8 2 1 10
M TOR 54 8 2 1 11
M TOR 55 8 2 3 12
M TOR 56 8 2 3 13
M TOR 57 8 4 3 12
M TOR 58 8 4 3 13
M TOR 59 8 4 5 15
M TOR 60 8 4 5 16
M  END
$$$$
