
     RDKit          3D

 19 21  0  0  0  0  0  0  0  0999 V2000
    0.2981    0.9129   -1.1648 C   0  0  0  0  0  0  0  0  0  0  0  0
    0.4120   -0.3822   -0.4830 O   0  0  0  0  0  0  0  0  0  0  0  0
    1.0354    0.2848    0.6111 C   0  0  0  0  0  0  0  0  0  0  0  0
    0.0773    1.1021    1.5480 C   0  0  0  0  0  0  0  0  0  0  0  0
    0.9511    2.3118    1.1280 C   0  0  0  0  0  0  0  0  0  0  0  0
    2.2564    2.1765    1.9572 C   0  0  0  0  0  0  0  0  0  0  0  0
    2.5648    0.8208    2.3121 O   0  0  0  0  0  0  0  0  0  0  0  0
    2.2254   -0.2205    1.3840 C   0  0  0  0  0  0  0  0  0  0  0  0
    1.3018    1.5754   -0.1828 C   0  0  0  0  0  0  0  0  0  0  0  0
    0.6455    0.8384   -2.1987 H   0  0  0  0  0  0  0  0  0  0  0  0
   -0.7316    1.2875   -1.1533 H   0  0  0  0  0  0  0  0  0  0  0  0
   -0.9359    1.1331    1.1471 H   0  0  0  0  0  0  0  0  0  0  0  0
    0.0557    0.8417    2.6070 H   0  0  0  0  0  0  0  0  0  0  0  0
    0.5569    3.3320    1.1480 H   0  0  0  0  0  0  0  0  0  0  0  0
    3.0975    2.6318    1.4109 H   0  0  0  0  0  0  0  0  0  0  0  0
    2.1543    2.6967    2.9152 H   0  0  0  0  0  0  0  0  0  0  0  0
    3.0626   -0.4452    0.7065 H   0  0  0  0  0  0  0  0  0  0  0  0
    2.0166   -1.1095    1.9902 H   0  0  0  0  0  0  0  0  0  0  0  0
    2.2800    1.7741   -0.6266 H   0  0  0  0  0  0  0  0  0  0  0  0
  1  2  1  0
  2  3  1  0
  3  4  1  0
  4  5  1  0
  5  6  1  0
  6  7  1  0
  7  8  1  0
  5  9  1  0
  9  1  1  0
  8  3  1  0
  9  3  1  0
  1 10  1  0
  1 11  1  0
  4 12  1  0
  4 13  1  0
  5 14  1  0
  6 15  1  0
  6 16  1  0
  8 17  1  0
  8 18  1  0
  9 19  1  0
M  END
$$$$
