gdb 2002	3.4338994	1.4536803	1.2490214	2.7389	73.93	-0.23623	0.07672	0.31295	1053.1566	0.157969	-422.523196	-422.515475	-422.514531	-422.555186	29.986
 OpenBabel02181911403D

 19 21  0  0  1  0  0  0  0  0999 V2000
    0.2673    0.3814    0.3794 C   0  0  0  0  0  0  0  0  0  0  0  0
    1.2140   -0.1666   -0.6368 C   0  0  2  0  0  0  0  0  0  0  0  0
    2.2094   -1.1101   -0.2066 O   0  0  0  0  0  0  0  0  0  0  0  0
    2.6434    0.0644   -0.9087 C   0  0  1  0  0  0  0  0  0  0  0  0
    2.4641   -0.2153   -2.4169 C   0  0  1  0  0  0  0  0  0  0  0  0
    2.9691   -1.5447   -2.9977 C   0  0  0  0  0  0  0  0  0  0  0  0
    1.8051   -2.2303   -3.4580 O   0  0  0  0  0  0  0  0  0  0  0  0
    0.7232   -1.9277   -2.5777 C   0  0  0  0  0  0  0  0  0  0  0  0
    0.9444   -0.4740   -2.1353 C   0  0  1  0  0  0  0  0  0  0  0  0
    0.7982    0.6342    1.3010 H   0  0  0  0  0  0  0  0  0  0  0  0
   -0.2293    1.2805    0.0004 H   0  0  0  0  0  0  0  0  0  0  0  0
   -0.5092   -0.3528    0.6235 H   0  0  0  0  0  0  0  0  0  0  0  0
    3.3713    0.6953   -0.4101 H   0  0  0  0  0  0  0  0  0  0  0  0
    2.6624    0.6515   -3.0488 H   0  0  0  0  0  0  0  0  0  0  0  0
    3.6323   -1.4236   -3.8584 H   0  0  0  0  0  0  0  0  0  0  0  0
    3.4874   -2.1314   -2.2270 H   0  0  0  0  0  0  0  0  0  0  0  0
   -0.2014   -2.0800   -3.1410 H   0  0  0  0  0  0  0  0  0  0  0  0
    0.7277   -2.6019   -1.7100 H   0  0  0  0  0  0  0  0  0  0  0  0
    0.2730    0.2424   -2.6115 H   0  0  0  0  0  0  0  0  0  0  0  0
  1 12  1  0  0  0  0
  1 10  1  0  0  0  0
  2  3  1  0  0  0  0
  2  1  1  1  0  0  0
  4  2  1  0  0  0  0
  4 13  1  1  0  0  0
  4  3  1  0  0  0  0
  5 14  1  6  0  0  0
  5  9  1  0  0  0  0
  5  4  1  0  0  0  0
  6  5  1  0  0  0  0
  6 16  1  0  0  0  0
  7  6  1  0  0  0  0
  7  8  1  0  0  0  0
  8  9  1  0  0  0  0
  8 18  1  0  0  0  0
  9 19  1  6  0  0  0
  9  2  1  0  0  0  0
 11  1  1  0  0  0  0
 15  6  1  0  0  0  0
 17  8  1  0  0  0  0
M TOR 0 0 1 2 3
M TOR 1 0 1 3 4
M TOR 2 0 1 3 12
M TOR 3 0 1 8 4
M TOR 4 0 1 8 7
M TOR 5 0 1 8 18
M TOR 6 1 2 3 4
M TOR 7 1 2 3 12
M TOR 8 1 3 4 5
M TOR 9 1 3 4 8
M TOR 10 1 3 4 13
M TOR 11 1 8 4 5
M TOR 12 1 8 4 13
M TOR 13 1 8 7 6
M TOR 14 1 8 7 16
M TOR 15 1 8 7 17
M TOR 16 2 1 0 9
M TOR 17 2 1 0 10
M TOR 18 2 1 0 11
M TOR 19 2 1 8 4
M TOR 20 2 1 8 7
M TOR 21 2 1 8 18
M TOR 22 2 3 1 8
M TOR 23 2 3 4 5
M TOR 24 2 3 4 8
M TOR 25 2 3 4 13
M TOR 26 3 1 0 9
M TOR 27 3 1 0 10
M TOR 28 3 1 0 11
M TOR 29 3 1 8 7
M TOR 30 3 1 8 18
M TOR 31 3 4 5 6
M TOR 32 3 4 5 14
M TOR 33 3 4 5 15
M TOR 34 3 4 8 7
M TOR 35 3 4 8 18
M TOR 36 4 5 6 7
M TOR 37 4 8 7 6
M TOR 38 4 8 7 16
M TOR 39 4 8 7 17
M TOR 40 5 4 3 12
M TOR 41 5 4 8 7
M TOR 42 5 4 8 18
M TOR 43 5 6 7 8
M TOR 44 5 6 7 16
M TOR 45 5 6 7 17
M TOR 46 6 5 4 8
M TOR 47 6 5 4 13
M TOR 48 6 7 8 18
M TOR 49 7 6 5 14
M TOR 50 7 6 5 15
M TOR 51 7 8 4 13
M TOR 52 8 1 0 9
M TOR 53 8 1 0 10
M TOR 54 8 1 0 11
M TOR 55 8 1 3 12
M TOR 56 8 4 3 12
M TOR 57 8 4 5 14
M TOR 58 8 4 5 15
M  END
$$$$
