gdb 3355	2.4545338	1.9817402	1.6163257	1.1947	72.75	-0.24507	0.0784	0.32347000000000004	926.4422	0.159268	-422.539444	-422.532314	-422.531369	-422.570547	28.942
 OpenBabel02181911413D

 19 21  0  0  1  0  0  0  0  0999 V2000
    1.3919    1.3009    0.0144 C   0  0  0  0  0  0  0  0  0  0  0  0
    1.2803   -0.2229    0.0064 C   0  0  2  0  0  0  0  0  0  0  0  0
    1.9886   -1.0716    1.0998 C   0  0  1  0  0  0  0  0  0  0  0  0
    1.4753   -2.4673    0.6612 C   0  0  0  0  0  0  0  0  0  0  0  0
    1.4544   -2.3995   -0.7843 O   0  0  0  0  0  0  0  0  0  0  0  0
    1.9049   -1.0678   -1.1252 C   0  0  2  0  0  0  0  0  0  0  0  0
    3.4053   -1.1029   -0.8140 C   0  0  1  0  0  0  0  0  0  0  0  0
    3.9391    0.0172   -0.0956 O   0  0  0  0  0  0  0  0  0  0  0  0
    3.4547   -1.1018    0.6538 C   0  0  1  0  0  0  0  0  0  0  0  0
    0.8876    1.7024    0.9006 H   0  0  0  0  0  0  0  0  0  0  0  0
    2.4202    1.6530    0.0109 H   0  0  0  0  0  0  0  0  0  0  0  0
    0.8781    1.7144   -0.8610 H   0  0  0  0  0  0  0  0  0  0  0  0
    0.2139   -0.4746    0.0183 H   0  0  0  0  0  0  0  0  0  0  0  0
    1.7890   -0.8158    2.1407 H   0  0  0  0  0  0  0  0  0  0  0  0
    2.1305   -3.2875    0.9785 H   0  0  0  0  0  0  0  0  0  0  0  0
    0.4624   -2.6666    1.0308 H   0  0  0  0  0  0  0  0  0  0  0  0
    1.6024   -0.8557   -2.1505 H   0  0  0  0  0  0  0  0  0  0  0  0
    4.0974   -1.6504   -1.4455 H   0  0  0  0  0  0  0  0  0  0  0  0
    4.1998   -1.6464    1.2269 H   0  0  0  0  0  0  0  0  0  0  0  0
  1 10  1  0  0  0  0
  2  1  1  0  0  0  0
  2 13  1  1  0  0  0
  2  3  1  0  0  0  0
  3 14  1  1  0  0  0
  4 15  1  0  0  0  0
  4 16  1  0  0  0  0
  4  3  1  0  0  0  0
  5  4  1  0  0  0  0
  6 17  1  6  0  0  0
  6  7  1  0  0  0  0
  6  5  1  0  0  0  0
  6  2  1  0  0  0  0
  7 18  1  6  0  0  0
  7  8  1  0  0  0  0
  7  9  1  0  0  0  0
  8  9  1  0  0  0  0
  9  3  1  0  0  0  0
  9 19  1  1  0  0  0
 11  1  1  0  0  0  0
 12  1  1  0  0  0  0
M TOR 0 0 1 2 3
M TOR 1 0 1 2 8
M TOR 2 0 1 2 13
M TOR 3 0 1 5 4
M TOR 4 0 1 5 6
M TOR 5 0 1 5 16
M TOR 6 1 2 3 4
M TOR 7 1 2 3 14
M TOR 8 1 2 3 15
M TOR 9 1 2 8 6
M TOR 10 1 2 8 7
M TOR 11 1 2 8 18
M TOR 12 1 5 4 3
M TOR 13 1 5 6 7
M TOR 14 1 5 6 8
M TOR 15 1 5 6 17
M TOR 16 2 1 0 9
M TOR 17 2 1 0 10
M TOR 18 2 1 0 11
M TOR 19 2 1 5 4
M TOR 20 2 1 5 6
M TOR 21 2 1 5 16
M TOR 22 2 3 4 5
M TOR 23 2 8 6 5
M TOR 24 2 8 6 7
M TOR 25 2 8 6 17
M TOR 26 3 2 1 5
M TOR 27 3 2 1 12
M TOR 28 3 2 8 6
M TOR 29 3 2 8 7
M TOR 30 3 2 8 18
M TOR 31 3 4 5 6
M TOR 32 3 4 5 16
M TOR 33 4 3 2 8
M TOR 34 4 3 2 13
M TOR 35 4 5 1 12
M TOR 36 4 5 6 7
M TOR 37 4 5 6 8
M TOR 38 4 5 6 17
M TOR 39 5 1 0 9
M TOR 40 5 1 0 10
M TOR 41 5 1 0 11
M TOR 42 5 1 2 8
M TOR 43 5 1 2 13
M TOR 44 5 4 3 14
M TOR 45 5 4 3 15
M TOR 46 5 6 7 8
M TOR 47 5 6 8 18
M TOR 48 6 5 1 12
M TOR 49 6 7 8 18
M TOR 50 6 8 2 13
M TOR 51 7 6 5 16
M TOR 52 7 8 2 13
M TOR 53 7 8 6 17
M TOR 54 8 2 1 12
M TOR 55 8 2 3 14
M TOR 56 8 2 3 15
M TOR 57 8 6 5 16
M  END
$$$$
