gdb 2463	2.8062026	1.7828701	1.4157585	1.7335	73.12	-0.24154	0.07246	0.314	963.5447	0.159363	-422.562665	-422.555375	-422.554431	-422.594038	29.562
 OpenBabel02181911413D

 19 21  0  0  1  0  0  0  0  0999 V2000
    0.4550    0.5863    0.6014 O   0  0  0  0  0  0  0  0  0  0  0  0
   -0.8612    1.0147    0.4296 C   0  0  2  0  0  0  0  0  0  0  0  0
   -1.9238   -0.0089    0.0126 C   0  0  0  0  0  0  0  0  0  0  0  0
   -3.2025    0.4170    0.7725 C   0  0  0  0  0  0  0  0  0  0  0  0
   -2.9990    1.9117    1.1010 C   0  0  2  0  0  0  0  0  0  0  0  0
   -3.3279    2.7244   -0.0321 O   0  0  0  0  0  0  0  0  0  0  0  0
   -2.1829    2.8640   -0.8717 C   0  0  0  0  0  0  0  0  0  0  0  0
   -0.9824    2.4394   -0.0439 C   0  0  1  0  0  0  0  0  0  0  0  0
   -1.4909    2.0629    1.3294 C   0  0  2  0  0  0  0  0  0  0  0  0
    0.4682   -0.0573    1.3188 H   0  0  0  0  0  0  0  0  0  0  0  0
   -2.0718   -0.0239   -1.0727 H   0  0  0  0  0  0  0  0  0  0  0  0
   -1.5921   -1.0129    0.2961 H   0  0  0  0  0  0  0  0  0  0  0  0
   -4.1244    0.2591    0.2076 H   0  0  0  0  0  0  0  0  0  0  0  0
   -3.2816   -0.1446    1.7107 H   0  0  0  0  0  0  0  0  0  0  0  0
   -3.6213    2.2518    1.9320 H   0  0  0  0  0  0  0  0  0  0  0  0
   -2.3020    2.2594   -1.7832 H   0  0  0  0  0  0  0  0  0  0  0  0
   -2.1009    3.9141   -1.1760 H   0  0  0  0  0  0  0  0  0  0  0  0
   -0.0490    2.9808   -0.1431 H   0  0  0  0  0  0  0  0  0  0  0  0
   -1.0573    2.4304    2.2504 H   0  0  0  0  0  0  0  0  0  0  0  0
  1 10  1  0  0  0  0
  2  1  1  1  0  0  0
  2  9  1  0  0  0  0
  3 12  1  0  0  0  0
  3  2  1  0  0  0  0
  3  4  1  0  0  0  0
  4  5  1  0  0  0  0
  4 14  1  0  0  0  0
  5  9  1  0  0  0  0
  5 15  1  1  0  0  0
  6  5  1  0  0  0  0
  7  8  1  0  0  0  0
  7  6  1  0  0  0  0
  8 18  1  6  0  0  0
  8  2  1  0  0  0  0
  8  9  1  0  0  0  0
  9 19  1  1  0  0  0
 11  3  1  0  0  0  0
 13  4  1  0  0  0  0
 16  7  1  0  0  0  0
 17  7  1  0  0  0  0
M TOR 0 0 1 2 3
M TOR 1 0 1 2 10
M TOR 2 0 1 2 11
M TOR 3 0 1 7 6
M TOR 4 0 1 7 8
M TOR 5 0 1 7 17
M TOR 6 0 1 8 4
M TOR 7 0 1 8 18
M TOR 8 1 2 3 4
M TOR 9 1 2 3 12
M TOR 10 1 2 3 13
M TOR 11 1 7 6 5
M TOR 12 1 7 6 15
M TOR 13 1 7 6 16
M TOR 14 1 7 8 4
M TOR 15 1 7 8 18
M TOR 16 1 8 4 3
M TOR 17 1 8 4 5
M TOR 18 1 8 4 14
M TOR 19 1 8 7 6
M TOR 20 1 8 7 17
M TOR 21 2 1 0 9
M TOR 22 2 1 7 6
M TOR 23 2 1 7 8
M TOR 24 2 1 7 17
M TOR 25 2 1 8 4
M TOR 26 2 1 8 18
M TOR 27 2 3 4 5
M TOR 28 2 3 4 8
M TOR 29 2 3 4 14
M TOR 30 3 2 1 7
M TOR 31 3 2 1 8
M TOR 32 3 4 5 6
M TOR 33 3 4 8 7
M TOR 34 3 4 8 18
M TOR 35 4 3 2 10
M TOR 36 4 3 2 11
M TOR 37 4 5 6 7
M TOR 38 4 5 6 15
M TOR 39 4 5 6 16
M TOR 40 4 8 7 6
M TOR 41 4 8 7 17
M TOR 42 5 4 3 12
M TOR 43 5 4 3 13
M TOR 44 5 4 8 7
M TOR 45 5 4 8 18
M TOR 46 5 6 7 8
M TOR 47 5 6 7 17
M TOR 48 6 5 4 8
M TOR 49 6 5 4 14
M TOR 50 6 7 8 18
M TOR 51 7 1 0 9
M TOR 52 7 1 2 10
M TOR 53 7 1 2 11
M TOR 54 7 8 4 14
M TOR 55 8 1 0 9
M TOR 56 8 1 2 10
M TOR 57 8 1 2 11
M TOR 58 8 4 3 12
M TOR 59 8 4 3 13
M TOR 60 8 7 6 15
M TOR 61 8 7 6 16
M  END
$$$$
