gdb 5489	4.8949221	1.1208992	1.0703706	2.2043	75.48	-0.237	0.09377	0.33077	1180.7184	0.158038	-422.502016	-422.494434	-422.49349	-422.534226	29.189
 OpenBabel02181911423D

 19 21  0  0  1  0  0  0  0  0999 V2000
    1.3654    0.0085   -0.2434 C   0  0  0  0  0  0  0  0  0  0  0  0
   -0.0216    0.1574   -0.0343 O   0  0  0  0  0  0  0  0  0  0  0  0
   -0.3411    0.6326    1.2450 C   0  0  2  0  0  0  0  0  0  0  0  0
   -1.8152    0.9997    1.4447 C   0  0  1  0  0  0  0  0  0  0  0  0
   -1.3858    1.9412    2.6230 C   0  0  2  0  0  0  0  0  0  0  0  0
   -2.3089    3.1520    2.5618 C   0  0  0  0  0  0  0  0  0  0  0  0
   -2.3974    3.3546    1.1427 O   0  0  0  0  0  0  0  0  0  0  0  0
   -1.5810    2.3158    0.6375 C   0  0  1  0  0  0  0  0  0  0  0  0
   -0.2994    2.1588    1.5145 C   0  0  2  0  0  0  0  0  0  0  0  0
    1.8134   -0.6831    0.4873 H   0  0  0  0  0  0  0  0  0  0  0  0
    1.5011   -0.4030   -1.2463 H   0  0  0  0  0  0  0  0  0  0  0  0
    1.8983    0.9689   -0.1789 H   0  0  0  0  0  0  0  0  0  0  0  0
    0.1153    0.0022    2.0222 H   0  0  0  0  0  0  0  0  0  0  0  0
   -2.6829    0.3409    1.4105 H   0  0  0  0  0  0  0  0  0  0  0  0
   -1.1139    1.5257    3.5935 H   0  0  0  0  0  0  0  0  0  0  0  0
   -3.3051    2.9597    2.9794 H   0  0  0  0  0  0  0  0  0  0  0  0
   -1.8894    4.0428    3.0460 H   0  0  0  0  0  0  0  0  0  0  0  0
   -1.5480    2.3332   -0.4477 H   0  0  0  0  0  0  0  0  0  0  0  0
    0.5584    2.8298    1.5678 H   0  0  0  0  0  0  0  0  0  0  0  0
  1 12  1  0  0  0  0
  1  2  1  0  0  0  0
  1 10  1  0  0  0  0
  2  3  1  0  0  0  0
  3  4  1  0  0  0  0
  3  9  1  0  0  0  0
  3 13  1  1  0  0  0
  4 14  1  6  0  0  0
  4  5  1  0  0  0  0
  5 15  1  1  0  0  0
  6  5  1  0  0  0  0
  6 16  1  0  0  0  0
  6 17  1  0  0  0  0
  7  6  1  0  0  0  0
  8 18  1  6  0  0  0
  8  7  1  0  0  0  0
  8  4  1  0  0  0  0
  8  9  1  0  0  0  0
  9 19  1  1  0  0  0
  9  5  1  0  0  0  0
 11  1  1  0  0  0  0
M TOR 0 0 1 2 3
M TOR 1 0 1 2 8
M TOR 2 0 1 2 12
M TOR 3 1 2 3 4
M TOR 4 1 2 3 7
M TOR 5 1 2 3 13
M TOR 6 1 2 8 4
M TOR 7 1 2 8 7
M TOR 8 1 2 8 18
M TOR 9 2 1 0 9
M TOR 10 2 1 0 10
M TOR 11 2 1 0 11
M TOR 12 2 3 4 5
M TOR 13 2 3 4 8
M TOR 14 2 3 4 14
M TOR 15 2 3 7 6
M TOR 16 2 3 7 8
M TOR 17 2 3 7 17
M TOR 18 2 8 4 5
M TOR 19 2 8 4 14
M TOR 20 2 8 7 6
M TOR 21 2 8 7 17
M TOR 22 3 2 8 18
M TOR 23 3 4 5 6
M TOR 24 3 4 5 15
M TOR 25 3 4 5 16
M TOR 26 3 4 8 7
M TOR 27 3 4 8 18
M TOR 28 3 7 6 5
M TOR 29 3 7 8 18
M TOR 30 4 3 2 12
M TOR 31 4 3 7 6
M TOR 32 4 3 7 17
M TOR 33 4 5 6 7
M TOR 34 4 8 2 12
M TOR 35 4 8 7 6
M TOR 36 4 8 7 17
M TOR 37 5 4 3 7
M TOR 38 5 4 3 13
M TOR 39 5 4 8 7
M TOR 40 5 4 8 18
M TOR 41 5 6 7 8
M TOR 42 5 6 7 17
M TOR 43 6 5 4 8
M TOR 44 6 5 4 14
M TOR 45 6 7 3 13
M TOR 46 6 7 8 18
M TOR 47 7 3 2 12
M TOR 48 7 3 4 14
M TOR 49 7 6 5 15
M TOR 50 7 6 5 16
M TOR 51 7 8 2 12
M TOR 52 7 8 4 14
M TOR 53 8 2 3 13
M TOR 54 8 4 3 13
M TOR 55 8 4 5 15
M TOR 56 8 4 5 16
M TOR 57 8 7 3 13
M  END
$$$$
