gdb 3330	2.5453878	1.9472744	1.549368	1.0557	74.48	-0.23559	0.04793	0.28352	940.5989	0.157866	-422.467783	-422.460501	-422.459557	-422.498916	29.676
 OpenBabel02181911413D

 19 21  0  0  1  0  0  0  0  0999 V2000
   -0.1593   -0.0025    0.1593 C   0  0  0  0  0  0  0  0  0  0  0  0
    1.3524    0.0861    0.0098 C   0  0  2  0  0  0  0  0  0  0  0  0
    2.2498   -0.5266    1.1214 C   0  0  1  0  0  0  0  0  0  0  0  0
    3.6401   -0.2386    0.4400 C   0  0  0  0  0  0  0  0  0  0  0  0
    3.4613    1.1193   -0.1141 O   0  0  0  0  0  0  0  0  0  0  0  0
    2.1869    1.3602    0.4447 C   0  0  1  0  0  0  0  0  0  0  0  0
    1.3912    2.5450    0.9723 C   0  0  0  0  0  0  0  0  0  0  0  0
    1.0310    1.6953    2.1174 O   0  0  0  0  0  0  0  0  0  0  0  0
    2.1935    0.8336    1.8697 C   0  0  1  0  0  0  0  0  0  0  0  0
   -0.4987    0.2289    1.1682 H   0  0  0  0  0  0  0  0  0  0  0  0
   -0.6585    0.6820   -0.5363 H   0  0  0  0  0  0  0  0  0  0  0  0
   -0.4910   -1.0155   -0.0962 H   0  0  0  0  0  0  0  0  0  0  0  0
    1.6366   -0.2190   -1.0024 H   0  0  0  0  0  0  0  0  0  0  0  0
    2.1264   -1.5254    1.5462 H   0  0  0  0  0  0  0  0  0  0  0  0
    4.4846   -0.2282    1.1379 H   0  0  0  0  0  0  0  0  0  0  0  0
    3.8442   -0.9389   -0.3744 H   0  0  0  0  0  0  0  0  0  0  0  0
    1.9930    3.4040    1.2929 H   0  0  0  0  0  0  0  0  0  0  0  0
    0.5097    2.8759    0.4159 H   0  0  0  0  0  0  0  0  0  0  0  0
    2.9900    1.0628    2.5836 H   0  0  0  0  0  0  0  0  0  0  0  0
  1 10  1  0  0  0  0
  2 13  1  6  0  0  0
  2  1  1  0  0  0  0
  2  6  1  0  0  0  0
  2  3  1  0  0  0  0
  3 14  1  1  0  0  0
  3  9  1  0  0  0  0
  4  3  1  0  0  0  0
  4 15  1  0  0  0  0
  5  4  1  0  0  0  0
  6  5  1  6  0  0  0
  6  7  1  0  0  0  0
  6  9  1  0  0  0  0
  7 17  1  0  0  0  0
  7  8  1  0  0  0  0
  9  8  1  0  0  0  0
  9 19  1  1  0  0  0
 11  1  1  0  0  0  0
 12  1  1  0  0  0  0
 16  4  1  0  0  0  0
 18  7  1  0  0  0  0
M TOR 0 0 1 2 3
M TOR 1 0 1 2 8
M TOR 2 0 1 2 13
M TOR 3 0 1 5 4
M TOR 4 0 1 5 6
M TOR 5 0 1 5 8
M TOR 6 1 2 3 4
M TOR 7 1 2 3 14
M TOR 8 1 2 3 15
M TOR 9 1 2 8 5
M TOR 10 1 2 8 7
M TOR 11 1 2 8 18
M TOR 12 1 5 4 3
M TOR 13 1 5 6 7
M TOR 14 1 5 6 16
M TOR 15 1 5 6 17
M TOR 16 1 5 8 7
M TOR 17 1 5 8 18
M TOR 18 2 1 0 9
M TOR 19 2 1 0 10
M TOR 20 2 1 0 11
M TOR 21 2 1 5 4
M TOR 22 2 1 5 6
M TOR 23 2 3 4 5
M TOR 24 2 8 5 4
M TOR 25 2 8 5 6
M TOR 26 2 8 7 6
M TOR 27 3 2 1 5
M TOR 28 3 2 1 12
M TOR 29 3 2 8 5
M TOR 30 3 2 8 7
M TOR 31 3 2 8 18
M TOR 32 3 4 5 6
M TOR 33 3 4 5 8
M TOR 34 4 3 2 8
M TOR 35 4 3 2 13
M TOR 36 4 5 1 12
M TOR 37 4 5 6 7
M TOR 38 4 5 6 16
M TOR 39 4 5 6 17
M TOR 40 4 5 8 7
M TOR 41 4 5 8 18
M TOR 42 5 1 0 9
M TOR 43 5 1 0 10
M TOR 44 5 1 0 11
M TOR 45 5 1 2 13
M TOR 46 5 4 3 14
M TOR 47 5 4 3 15
M TOR 48 5 6 7 8
M TOR 49 5 8 2 13
M TOR 50 6 5 1 12
M TOR 51 6 5 8 18
M TOR 52 6 7 8 18
M TOR 53 7 8 2 13
M TOR 54 8 2 1 12
M TOR 55 8 2 3 14
M TOR 56 8 2 3 15
M TOR 57 8 5 1 12
M TOR 58 8 5 6 16
M TOR 59 8 5 6 17
M TOR 60 8 7 6 16
M TOR 61 8 7 6 17
M  END
$$$$
