gdb 4072	2.7295235	1.662728	1.3539868	2.8402	74.11	-0.24041	0.05682	0.29723	1022.2803	0.155455	-422.49196	-422.483739	-422.482794	-422.524172	31.918
 OpenBabel02181911413D

 19 21  0  0  1  0  0  0  0  0999 V2000
    0.4038    0.6217    0.0507 C   0  0  0  0  0  0  0  0  0  0  0  0
    0.9272   -0.7366   -0.3719 C   0  0  1  0  0  0  0  0  0  0  0  0
    2.2663   -0.6322   -0.9472 O   0  0  0  0  0  0  0  0  0  0  0  0
    2.8108   -1.5391    0.0144 C   0  0  2  0  0  0  0  0  0  0  0  0
    2.7845   -3.0490   -0.3748 C   0  0  2  0  0  0  0  0  0  0  0  0
    1.5901   -3.2825   -1.1240 O   0  0  0  0  0  0  0  0  0  0  0  0
    1.4779   -3.2139    0.2946 C   0  0  2  0  0  0  0  0  0  0  0  0
    1.4469   -1.7160    0.7277 C   0  0  2  0  0  0  0  0  0  0  0  0
    1.2232   -1.4645    2.2004 C   0  0  0  0  0  0  0  0  0  0  0  0
    1.0789    1.1143    0.7560 H   0  0  0  0  0  0  0  0  0  0  0  0
    0.3064    1.2667   -0.8281 H   0  0  0  0  0  0  0  0  0  0  0  0
   -0.5845    0.5288    0.5145 H   0  0  0  0  0  0  0  0  0  0  0  0
    0.2471   -1.2106   -1.0871 H   0  0  0  0  0  0  0  0  0  0  0  0
    3.7210   -1.1836    0.5063 H   0  0  0  0  0  0  0  0  0  0  0  0
    3.6066   -3.7391   -0.5305 H   0  0  0  0  0  0  0  0  0  0  0  0
    1.0384   -4.0649    0.8048 H   0  0  0  0  0  0  0  0  0  0  0  0
    1.8459   -2.1335    2.8054 H   0  0  0  0  0  0  0  0  0  0  0  0
    1.4705   -0.4376    2.4827 H   0  0  0  0  0  0  0  0  0  0  0  0
    0.1789   -1.6487    2.4794 H   0  0  0  0  0  0  0  0  0  0  0  0
  1 12  1  0  0  0  0
  1 10  1  0  0  0  0
  2 13  1  6  0  0  0
  2  1  1  0  0  0  0
  2  8  1  0  0  0  0
  3  2  1  0  0  0  0
  3  4  1  0  0  0  0
  4 14  1  1  0  0  0
  4  8  1  0  0  0  0
  5 15  1  1  0  0  0
  5  4  1  0  0  0  0
  5  7  1  0  0  0  0
  6  5  1  0  0  0  0
  6  7  1  0  0  0  0
  7  8  1  0  0  0  0
  7 16  1  1  0  0  0
  8  9  1  1  0  0  0
  9 19  1  0  0  0  0
  9 18  1  0  0  0  0
  9 17  1  0  0  0  0
 11  1  1  0  0  0  0
M TOR 0 0 1 2 3
M TOR 1 0 1 7 3
M TOR 2 0 1 7 6
M TOR 3 0 1 7 8
M TOR 4 1 2 3 4
M TOR 5 1 2 3 7
M TOR 6 1 2 3 13
M TOR 7 1 7 3 4
M TOR 8 1 7 3 13
M TOR 9 1 7 6 4
M TOR 10 1 7 6 5
M TOR 11 1 7 6 15
M TOR 12 1 7 8 16
M TOR 13 1 7 8 17
M TOR 14 1 7 8 18
M TOR 15 2 1 0 9
M TOR 16 2 1 0 10
M TOR 17 2 1 0 11
M TOR 18 2 1 7 6
M TOR 19 2 1 7 8
M TOR 20 2 3 4 5
M TOR 21 2 3 4 6
M TOR 22 2 3 4 14
M TOR 23 2 3 7 6
M TOR 24 2 3 7 8
M TOR 25 3 2 1 12
M TOR 26 3 4 5 6
M TOR 27 3 4 6 7
M TOR 28 3 4 6 15
M TOR 29 3 7 1 12
M TOR 30 3 7 6 5
M TOR 31 3 7 6 15
M TOR 32 3 7 8 16
M TOR 33 3 7 8 17
M TOR 34 3 7 8 18
M TOR 35 4 3 7 8
M TOR 36 4 5 6 7
M TOR 37 4 5 6 15
M TOR 38 4 6 7 8
M TOR 39 5 4 3 7
M TOR 40 5 4 3 13
M TOR 41 5 6 4 14
M TOR 42 5 6 7 8
M TOR 43 6 4 3 13
M TOR 44 6 7 1 12
M TOR 45 6 7 3 13
M TOR 46 6 7 8 16
M TOR 47 6 7 8 17
M TOR 48 6 7 8 18
M TOR 49 7 1 0 9
M TOR 50 7 1 0 10
M TOR 51 7 1 0 11
M TOR 52 7 3 4 14
M TOR 53 7 6 4 14
M TOR 54 8 7 1 12
M TOR 55 8 7 3 13
M TOR 56 8 7 6 15
M  END
$$$$
