
     RDKit          3D

 19 21  0  0  0  0  0  0  0  0999 V2000
    0.7704    1.1751    0.6522 O   0  0  0  0  0  0  0  0  0  0  0  0
   -0.5417    0.7349    0.7857 C   0  0  0  0  0  0  0  0  0  0  0  0
   -0.8853   -0.2897    1.8983 C   0  0  0  0  0  0  0  0  0  0  0  0
   -2.3413    0.2162    1.8059 C   0  0  0  0  0  0  0  0  0  0  0  0
   -1.6096    1.5776    1.5863 C   0  0  0  0  0  0  0  0  0  0  0  0
   -0.8899    1.6972    2.9138 C   0  0  0  0  0  0  0  0  0  0  0  0
   -0.0788    2.8579    3.3911 C   0  0  0  0  0  0  0  0  0  0  0  0
   -1.3530    2.4428    4.1204 C   0  0  0  0  0  0  0  0  0  0  0  0
   -0.3582    0.3689    3.0744 O   0  0  0  0  0  0  0  0  0  0  0  0
    1.1484    1.1844    1.5409 H   0  0  0  0  0  0  0  0  0  0  0  0
   -0.9092    0.4451   -0.2001 H   0  0  0  0  0  0  0  0  0  0  0  0
   -0.5810   -1.3348    1.9004 H   0  0  0  0  0  0  0  0  0  0  0  0
   -2.8675   -0.1417    0.9195 H   0  0  0  0  0  0  0  0  0  0  0  0
   -2.9561    0.1120    2.7006 H   0  0  0  0  0  0  0  0  0  0  0  0
   -2.0941    2.4661    1.1859 H   0  0  0  0  0  0  0  0  0  0  0  0
    0.8617    2.6382    3.8858 H   0  0  0  0  0  0  0  0  0  0  0  0
   -0.0836    3.7735    2.8093 H   0  0  0  0  0  0  0  0  0  0  0  0
   -1.2331    1.9504    5.0789 H   0  0  0  0  0  0  0  0  0  0  0  0
   -2.2304    3.0764    4.0387 H   0  0  0  0  0  0  0  0  0  0  0  0
  1  2  1  0
  2  3  1  0
  3  4  1  0
  4  5  1  0
  5  6  1  0
  6  7  1  0
  7  8  1  0
  6  9  1  0
  5  2  1  0
  8  6  1  0
  9  3  1  0
  1 10  1  0
  2 11  1  0
  3 12  1  0
  4 13  1  0
  4 14  1  0
  5 15  1  0
  7 16  1  0
  7 17  1  0
  8 18  1  0
  8 19  1  0
M  END
$$$$
