gdb 4340	2.2435255	1.5062196	0.9961213	3.2228	77.33	-0.23485	-0.0176	0.21725	1191.6813	0.157449	-422.587094	-422.578461	-422.577517	-422.620385	32.688
 OpenBabel02181911413D

 19 19  0  0  1  0  0  0  0  0999 V2000
   -1.9534    2.9813   -1.2812 O   0  0  0  0  0  0  0  0  0  0  0  0
   -1.5588    1.6181   -1.3352 C   0  0  2  0  0  0  0  0  0  0  0  0
   -2.7874    0.6869   -1.4174 C   0  0  0  0  0  0  0  0  0  0  0  0
   -2.4578   -0.7084   -1.8868 C   0  0  0  0  0  0  0  0  0  0  0  0
   -1.6654   -1.5618   -1.2377 C   0  0  0  0  0  0  0  0  0  0  0  0
   -0.9823   -1.2583    0.0790 C   0  0  0  0  0  0  0  0  0  0  0  0
   -0.0078   -0.0898   -0.0983 C   0  0  0  0  0  0  0  0  0  0  0  0
    1.1835   -0.2675   -0.1867 O   0  0  0  0  0  0  0  0  0  0  0  0
   -0.6150    1.3086   -0.1511 C   0  0  0  0  0  0  0  0  0  0  0  0
   -2.4578    3.1137   -0.4703 H   0  0  0  0  0  0  0  0  0  0  0  0
   -0.9935    1.5313   -2.2691 H   0  0  0  0  0  0  0  0  0  0  0  0
   -3.2737    0.6589   -0.4291 H   0  0  0  0  0  0  0  0  0  0  0  0
   -3.4987    1.1558   -2.1023 H   0  0  0  0  0  0  0  0  0  0  0  0
   -2.8813   -1.0152   -2.8394 H   0  0  0  0  0  0  0  0  0  0  0  0
   -1.4524   -2.5312   -1.6783 H   0  0  0  0  0  0  0  0  0  0  0  0
   -1.7265   -0.9977    0.8434 H   0  0  0  0  0  0  0  0  0  0  0  0
   -0.4122   -2.1197    0.4299 H   0  0  0  0  0  0  0  0  0  0  0  0
   -1.1897    1.4551    0.7769 H   0  0  0  0  0  0  0  0  0  0  0  0
    0.2053    2.0293   -0.1618 H   0  0  0  0  0  0  0  0  0  0  0  0
  1 10  1  0  0  0  0
  2 11  1  6  0  0  0
  2  1  1  0  0  0  0
  2  9  1  0  0  0  0
  3  2  1  0  0  0  0
  3 12  1  0  0  0  0
  4  3  1  0  0  0  0
  4  5  2  0  0  0  0
  5  6  1  0  0  0  0
  6 17  1  0  0  0  0
  6 16  1  0  0  0  0
  7  6  1  0  0  0  0
  8  7  2  0  0  0  0
  9  7  1  0  0  0  0
  9 18  1  0  0  0  0
 13  3  1  0  0  0  0
 14  4  1  0  0  0  0
 15  5  1  0  0  0  0
 19  9  1  0  0  0  0
M TOR 0 0 1 2 3
M TOR 1 0 1 2 11
M TOR 2 0 1 2 12
M TOR 3 0 1 8 6
M TOR 4 0 1 8 17
M TOR 5 0 1 8 18
M TOR 6 1 2 3 4
M TOR 7 1 2 3 13
M TOR 8 1 8 6 5
M TOR 9 1 8 6 7
M TOR 10 2 1 0 9
M TOR 11 2 1 8 6
M TOR 12 2 1 8 17
M TOR 13 2 1 8 18
M TOR 14 2 3 4 5
M TOR 15 2 3 4 14
M TOR 16 3 2 1 8
M TOR 17 3 2 1 10
M TOR 18 3 4 5 6
M TOR 19 3 4 5 15
M TOR 20 3 4 5 16
M TOR 21 4 3 2 11
M TOR 22 4 3 2 12
M TOR 23 4 5 6 7
M TOR 24 4 5 6 8
M TOR 25 5 4 3 13
M TOR 26 5 6 8 17
M TOR 27 5 6 8 18
M TOR 28 6 5 4 14
M TOR 29 6 8 1 10
M TOR 30 7 6 5 15
M TOR 31 7 6 5 16
M TOR 32 7 6 8 17
M TOR 33 7 6 8 18
M TOR 34 8 1 0 9
M TOR 35 8 1 2 11
M TOR 36 8 1 2 12
M TOR 37 8 6 5 15
M TOR 38 8 6 5 16
M  END
$$$$
