
     RDKit          3D

 19 20  0  0  0  0  0  0  0  0999 V2000
   -1.2990   -0.5866   -0.2295 C   0  0  0  0  0  0  0  0  0  0  0  0
   -0.3419   -1.1216   -1.2698 C   0  0  0  0  0  0  0  0  0  0  0  0
   -0.8255   -2.1539   -2.2825 C   0  0  0  0  0  0  0  0  0  0  0  0
   -0.4008   -0.7794   -2.7332 C   0  0  0  0  0  0  0  0  0  0  0  0
    0.8890   -0.6193   -3.2632 O   0  0  0  0  0  0  0  0  0  0  0  0
    1.8069   -1.2323   -2.3652 C   0  0  0  0  0  0  0  0  0  0  0  0
    1.1602   -1.1928   -0.9518 C   0  0  0  0  0  0  0  0  0  0  0  0
    1.6170    0.0488   -0.2131 C   0  0  0  0  0  0  0  0  0  0  0  0
    2.1004    0.0549    0.8896 O   0  0  0  0  0  0  0  0  0  0  0  0
   -1.3363   -1.2425    0.6476 H   0  0  0  0  0  0  0  0  0  0  0  0
   -1.0141    0.4124    0.1183 H   0  0  0  0  0  0  0  0  0  0  0  0
   -2.3130   -0.5194   -0.6348 H   0  0  0  0  0  0  0  0  0  0  0  0
   -0.2044   -3.0084   -2.5284 H   0  0  0  0  0  0  0  0  0  0  0  0
   -1.8894   -2.3678   -2.2784 H   0  0  0  0  0  0  0  0  0  0  0  0
   -1.1075   -0.0816   -3.1667 H   0  0  0  0  0  0  0  0  0  0  0  0
    2.0066   -2.2719   -2.6555 H   0  0  0  0  0  0  0  0  0  0  0  0
    2.7515   -0.6821   -2.4263 H   0  0  0  0  0  0  0  0  0  0  0  0
    1.4342   -2.0648   -0.3510 H   0  0  0  0  0  0  0  0  0  0  0  0
    1.4890    0.9935   -0.7920 H   0  0  0  0  0  0  0  0  0  0  0  0
  1  2  1  0
  2  3  1  0
  3  4  1  0
  4  5  1  0
  5  6  1  0
  6  7  1  0
  7  8  1  0
  8  9  2  0
  4  2  1  0
  7  2  1  0
  1 10  1  0
  1 11  1  0
  1 12  1  0
  3 13  1  0
  3 14  1  0
  4 15  1  0
  6 16  1  0
  6 17  1  0
  7 18  1  0
  8 19  1  0
M  END
$$$$
