gdb 5193	2.9934727	1.4799228	1.3056705	0.8291	73.43	-0.22886	0.06062	0.28948	1034.7151	0.158162	-422.524449	-422.516679	-422.515735	-422.556608	30.436
 OpenBabel02181911423D

 19 21  0  0  1  0  0  0  0  0999 V2000
    1.3342    0.8103   -0.3025 O   0  0  0  0  0  0  0  0  0  0  0  0
    0.2259    0.1028    0.2357 C   0  0  0  0  0  0  0  0  0  0  0  0
   -1.0477    0.9239    0.2867 C   0  0  1  0  0  0  0  0  0  0  0  0
   -2.3856    0.1457    0.5433 C   0  0  0  0  0  0  0  0  0  0  0  0
   -3.0271    0.9511   -0.5847 C   0  0  1  0  0  0  0  0  0  0  0  0
   -2.6327    2.4068   -0.4351 C   0  0  1  0  0  0  0  0  0  0  0  0
   -2.2308    2.8785    0.8367 O   0  0  0  0  0  0  0  0  0  0  0  0
   -1.0335    2.1735    1.1752 C   0  0  0  0  0  0  0  0  0  0  0  0
   -1.6546    1.4693   -1.0410 C   0  0  1  0  0  0  0  0  0  0  0  0
    1.6024    1.4814    0.3320 H   0  0  0  0  0  0  0  0  0  0  0  0
    0.0766   -0.7552   -0.4282 H   0  0  0  0  0  0  0  0  0  0  0  0
    0.4512   -0.3002    1.2369 H   0  0  0  0  0  0  0  0  0  0  0  0
   -2.2865   -0.9116    0.2808 H   0  0  0  0  0  0  0  0  0  0  0  0
   -2.8249    0.2313    1.5432 H   0  0  0  0  0  0  0  0  0  0  0  0
   -3.8748    0.6466   -1.1886 H   0  0  0  0  0  0  0  0  0  0  0  0
   -3.1555    3.1519   -1.0224 H   0  0  0  0  0  0  0  0  0  0  0  0
   -0.1547    2.8075    0.9722 H   0  0  0  0  0  0  0  0  0  0  0  0
   -1.0608    1.9385    2.2453 H   0  0  0  0  0  0  0  0  0  0  0  0
   -1.1771    1.5360   -2.0091 H   0  0  0  0  0  0  0  0  0  0  0  0
  1  2  1  0  0  0  0
  1 10  1  0  0  0  0
  2 12  1  0  0  0  0
  3  2  1  6  0  0  0
  3  4  1  0  0  0  0
  3  8  1  0  0  0  0
  4 14  1  0  0  0  0
  5 15  1  6  0  0  0
  5  6  1  0  0  0  0
  5  4  1  0  0  0  0
  6 16  1  6  0  0  0
  6  7  1  0  0  0  0
  7  8  1  0  0  0  0
  8 18  1  0  0  0  0
  9 19  1  6  0  0  0
  9  5  1  0  0  0  0
  9  6  1  0  0  0  0
  9  3  1  0  0  0  0
 11  2  1  0  0  0  0
 13  4  1  0  0  0  0
 17  8  1  0  0  0  0
M TOR 0 0 1 2 3
M TOR 1 0 1 2 7
M TOR 2 0 1 2 8
M TOR 3 1 2 3 4
M TOR 4 1 2 3 12
M TOR 5 1 2 3 13
M TOR 6 1 2 7 6
M TOR 7 1 2 7 16
M TOR 8 1 2 7 17
M TOR 9 1 2 8 4
M TOR 10 1 2 8 5
M TOR 11 1 2 8 18
M TOR 12 2 1 0 9
M TOR 13 2 3 4 5
M TOR 14 2 3 4 8
M TOR 15 2 3 4 14
M TOR 16 2 7 6 5
M TOR 17 2 8 4 5
M TOR 18 2 8 4 14
M TOR 19 2 8 5 6
M TOR 20 2 8 5 15
M TOR 21 3 2 1 10
M TOR 22 3 2 1 11
M TOR 23 3 2 7 6
M TOR 24 3 2 7 16
M TOR 25 3 2 7 17
M TOR 26 3 2 8 5
M TOR 27 3 2 8 18
M TOR 28 3 4 5 6
M TOR 29 3 4 5 8
M TOR 30 3 4 5 15
M TOR 31 3 4 8 18
M TOR 32 4 3 2 7
M TOR 33 4 5 6 7
M TOR 34 4 5 8 18
M TOR 35 4 8 2 7
M TOR 36 4 8 5 6
M TOR 37 4 8 5 15
M TOR 38 5 4 3 12
M TOR 39 5 4 3 13
M TOR 40 5 6 7 16
M TOR 41 5 6 7 17
M TOR 42 5 8 2 7
M TOR 43 5 8 4 14
M TOR 44 6 5 4 14
M TOR 45 6 5 8 18
M TOR 46 6 7 2 8
M TOR 47 7 2 1 10
M TOR 48 7 2 1 11
M TOR 49 7 2 3 12
M TOR 50 7 2 3 13
M TOR 51 7 2 8 18
M TOR 52 7 6 5 8
M TOR 53 7 6 5 15
M TOR 54 8 2 1 10
M TOR 55 8 2 1 11
M TOR 56 8 2 3 12
M TOR 57 8 2 3 13
M TOR 58 8 2 7 16
M TOR 59 8 2 7 17
M TOR 60 8 4 3 12
M TOR 61 8 4 3 13
M  END
$$$$
