gdb 948	4.0877945	0.9099008	0.7829975	3.3664	77.98	-0.24172	-0.01908	0.22264	1435.1023	0.156334	-422.571509	-422.562693	-422.561749	-422.605978	31.842
 OpenBabel02181911403D

 19 19  0  0  1  0  0  0  0  0999 V2000
    1.4008   -0.3291    0.0745 O   0  0  0  0  0  0  0  0  0  0  0  0
    0.2867    0.1236   -0.0025 C   0  0  0  0  0  0  0  0  0  0  0  0
   -0.4398    0.8008    1.1405 C   0  0  0  0  0  0  0  0  0  0  0  0
   -1.1668    2.0752    0.7087 C   0  0  2  0  0  0  0  0  0  0  0  0
   -1.7437    2.8670    1.8882 C   0  0  0  0  0  0  0  0  0  0  0  0
   -2.7123    3.9078    1.3905 C   0  0  0  0  0  0  0  0  0  0  0  0
   -3.2056    3.8672    0.1556 C   0  0  0  0  0  0  0  0  0  0  0  0
   -2.8676    2.7561   -0.7983 C   0  0  0  0  0  0  0  0  0  0  0  0
   -2.2088    1.6692   -0.1724 O   0  0  0  0  0  0  0  0  0  0  0  0
   -0.2968    0.0677   -0.9464 H   0  0  0  0  0  0  0  0  0  0  0  0
   -1.1970    0.1005    1.5202 H   0  0  0  0  0  0  0  0  0  0  0  0
    0.2750    1.0014    1.9434 H   0  0  0  0  0  0  0  0  0  0  0  0
   -0.4677    2.7321    0.1616 H   0  0  0  0  0  0  0  0  0  0  0  0
   -2.2392    2.1825    2.5914 H   0  0  0  0  0  0  0  0  0  0  0  0
   -0.9263    3.3417    2.4457 H   0  0  0  0  0  0  0  0  0  0  0  0
   -2.9914    4.7068    2.0717 H   0  0  0  0  0  0  0  0  0  0  0  0
   -3.8763    4.6384   -0.2132 H   0  0  0  0  0  0  0  0  0  0  0  0
   -3.7797    2.3391   -1.2414 H   0  0  0  0  0  0  0  0  0  0  0  0
   -2.2591    3.1466   -1.6348 H   0  0  0  0  0  0  0  0  0  0  0  0
  2  1  2  0  0  0  0
  2  3  1  0  0  0  0
  3 11  1  0  0  0  0
  3 12  1  0  0  0  0
  4 13  1  6  0  0  0
  4  3  1  0  0  0  0
  4  5  1  0  0  0  0
  5 15  1  0  0  0  0
  5 14  1  0  0  0  0
  6  5  1  0  0  0  0
  6 16  1  0  0  0  0
  7  6  2  0  0  0  0
  8  9  1  0  0  0  0
  8  7  1  0  0  0  0
  9  4  1  0  0  0  0
 10  2  1  0  0  0  0
 17  7  1  0  0  0  0
 18  8  1  0  0  0  0
 19  8  1  0  0  0  0
M TOR 0 0 1 2 3
M TOR 1 0 1 2 10
M TOR 2 0 1 2 11
M TOR 3 1 2 3 4
M TOR 4 1 2 3 8
M TOR 5 1 2 3 12
M TOR 6 2 3 4 5
M TOR 7 2 3 4 13
M TOR 8 2 3 4 14
M TOR 9 2 3 8 7
M TOR 10 3 2 1 9
M TOR 11 3 4 5 6
M TOR 12 3 4 5 15
M TOR 13 3 8 7 6
M TOR 14 3 8 7 17
M TOR 15 3 8 7 18
M TOR 16 4 3 2 10
M TOR 17 4 3 2 11
M TOR 18 4 3 8 7
M TOR 19 4 5 6 7
M TOR 20 4 5 6 16
M TOR 21 5 4 3 8
M TOR 22 5 4 3 12
M TOR 23 5 6 7 8
M TOR 24 5 6 7 17
M TOR 25 5 6 7 18
M TOR 26 6 5 4 13
M TOR 27 6 5 4 14
M TOR 28 7 6 5 15
M TOR 29 7 8 3 12
M TOR 30 8 3 2 10
M TOR 31 8 3 2 11
M TOR 32 8 3 4 13
M TOR 33 8 3 4 14
M TOR 34 8 7 6 16
M  END
$$$$
