gdb 4014	4.3660389	1.1276921	1.0414252	0.3021	75.47	-0.22348	0.0666	0.29008	1191.218	0.156349	-422.502767	-422.494601	-422.493657	-422.535564	31.727
 OpenBabel02181911413D

 19 21  0  0  1  0  0  0  0  0999 V2000
    0.3196   -0.1335    0.3487 O   0  0  0  0  0  0  0  0  0  0  0  0
   -0.9080    0.3157    0.8801 C   0  0  2  0  0  0  0  0  0  0  0  0
   -2.0872   -0.4792    0.2550 C   0  0  0  0  0  0  0  0  0  0  0  0
   -2.6711    0.8274   -0.3445 C   0  0  2  0  0  0  0  0  0  0  0  0
   -1.4758    1.6235    0.2538 C   0  0  1  0  0  0  0  0  0  0  0  0
   -2.3420    2.3324    1.1645 O   0  0  0  0  0  0  0  0  0  0  0  0
   -3.4936    1.6693    0.6210 C   0  0  0  0  0  0  0  0  0  0  0  0
   -4.6761    1.3259    1.4626 C   0  0  0  0  0  0  0  0  0  0  0  0
   -4.7693    2.4074    0.3903 C   0  0  0  0  0  0  0  0  0  0  0  0
    1.0208    0.4214    0.7065 H   0  0  0  0  0  0  0  0  0  0  0  0
   -0.8981    0.3588    1.9771 H   0  0  0  0  0  0  0  0  0  0  0  0
   -1.7097   -1.1625   -0.5086 H   0  0  0  0  0  0  0  0  0  0  0  0
   -2.7336   -1.0266    0.9444 H   0  0  0  0  0  0  0  0  0  0  0  0
   -2.9651    0.8347   -1.3931 H   0  0  0  0  0  0  0  0  0  0  0  0
   -0.7916    2.2771   -0.2941 H   0  0  0  0  0  0  0  0  0  0  0  0
   -5.1802    0.3795    1.2943 H   0  0  0  0  0  0  0  0  0  0  0  0
   -4.6570    1.6528    2.4967 H   0  0  0  0  0  0  0  0  0  0  0  0
   -5.3358    2.1972   -0.5113 H   0  0  0  0  0  0  0  0  0  0  0  0
   -4.8092    3.4384    0.7252 H   0  0  0  0  0  0  0  0  0  0  0  0
  1 10  1  0  0  0  0
  1  2  1  0  0  0  0
  2 11  1  1  0  0  0
  3  2  1  0  0  0  0
  3 13  1  0  0  0  0
  4 14  1  6  0  0  0
  4  5  1  0  0  0  0
  4  3  1  0  0  0  0
  4  7  1  0  0  0  0
  5 15  1  6  0  0  0
  5  2  1  0  0  0  0
  5  6  1  0  0  0  0
  7  6  1  0  0  0  0
  7  8  1  0  0  0  0
  8 17  1  0  0  0  0
  9  7  1  0  0  0  0
  9 19  1  0  0  0  0
  9  8  1  0  0  0  0
 12  3  1  0  0  0  0
 16  8  1  0  0  0  0
 18  9  1  0  0  0  0
M TOR 0 0 1 2 3
M TOR 1 0 1 2 11
M TOR 2 0 1 2 12
M TOR 3 0 1 4 3
M TOR 4 0 1 4 5
M TOR 5 0 1 4 14
M TOR 6 1 2 3 4
M TOR 7 1 2 3 6
M TOR 8 1 2 3 13
M TOR 9 1 4 3 6
M TOR 10 1 4 3 13
M TOR 11 1 4 5 6
M TOR 12 2 1 0 9
M TOR 13 2 1 4 5
M TOR 14 2 1 4 14
M TOR 15 2 3 4 5
M TOR 16 2 3 4 14
M TOR 17 2 3 6 5
M TOR 18 2 3 6 7
M TOR 19 2 3 6 8
M TOR 20 3 2 1 10
M TOR 21 3 4 1 10
M TOR 22 3 4 5 6
M TOR 23 3 6 7 8
M TOR 24 3 6 7 15
M TOR 25 3 6 7 16
M TOR 26 3 6 8 17
M TOR 27 3 6 8 18
M TOR 28 4 1 0 9
M TOR 29 4 1 2 11
M TOR 30 4 1 2 12
M TOR 31 4 3 2 11
M TOR 32 4 3 2 12
M TOR 33 4 3 6 7
M TOR 34 4 3 6 8
M TOR 35 4 5 6 7
M TOR 36 4 5 6 8
M TOR 37 5 4 1 10
M TOR 38 5 4 3 13
M TOR 39 5 6 3 13
M TOR 40 5 6 7 8
M TOR 41 5 6 7 15
M TOR 42 5 6 7 16
M TOR 43 5 6 8 17
M TOR 44 5 6 8 18
M TOR 45 6 3 2 11
M TOR 46 6 3 2 12
M TOR 47 6 3 4 14
M TOR 48 6 5 4 14
M TOR 49 6 7 8 17
M TOR 50 6 7 8 18
M TOR 51 6 8 7 15
M TOR 52 6 8 7 16
M TOR 53 7 6 3 13
M TOR 54 8 6 3 13
M  END
$$$$
