gdb 1352	2.2870798	1.0601723	0.9629746	2.5378	77.52	-0.25298	-0.02916	0.22382	1336.4421	0.152423	-422.537411	-422.52668	-422.525736	-422.573916	37.725
 OpenBabel02181911403D

 19 18  0  0  1  0  0  0  0  0999 V2000
    4.6963    0.4995   -1.4142 C   0  0  0  0  0  0  0  0  0  0  0  0
    3.1742    0.6227   -1.2747 C   0  0  1  0  0  0  0  0  0  0  0  0
    2.6959   -0.1724   -0.0338 C   0  0  0  0  0  0  0  0  0  0  0  0
    1.2680   -0.0593    0.2399 C   0  0  0  0  0  0  0  0  0  0  0  0
    0.0912    0.0646    0.4566 C   0  0  0  0  0  0  0  0  0  0  0  0
    2.7169    2.0912   -1.1908 C   0  0  1  0  0  0  0  0  0  0  0  0
    3.2596    2.7845   -0.0747 O   0  0  0  0  0  0  0  0  0  0  0  0
    3.0713    2.8952   -2.4339 C   0  0  0  0  0  0  0  0  0  0  0  0
    3.0645    2.4532   -3.5535 O   0  0  0  0  0  0  0  0  0  0  0  0
    5.1996    1.0132   -0.5893 H   0  0  0  0  0  0  0  0  0  0  0  0
    5.0046   -0.5506   -1.4031 H   0  0  0  0  0  0  0  0  0  0  0  0
    5.0398    0.9374   -2.3544 H   0  0  0  0  0  0  0  0  0  0  0  0
    2.6930    0.2048   -2.1657 H   0  0  0  0  0  0  0  0  0  0  0  0
    2.9609   -1.2278   -0.1686 H   0  0  0  0  0  0  0  0  0  0  0  0
    3.2611    0.1709    0.8426 H   0  0  0  0  0  0  0  0  0  0  0  0
   -0.9492    0.1504    0.6523 H   0  0  0  0  0  0  0  0  0  0  0  0
    1.6156    2.1020   -1.1465 H   0  0  0  0  0  0  0  0  0  0  0  0
    2.6760    2.6472    0.6768 H   0  0  0  0  0  0  0  0  0  0  0  0
    3.3174    3.9573   -2.2124 H   0  0  0  0  0  0  0  0  0  0  0  0
  1 11  1  0  0  0  0
  1  2  1  0  0  0  0
  1 10  1  0  0  0  0
  2 13  1  6  0  0  0
  2  6  1  0  0  0  0
  2  3  1  0  0  0  0
  3  4  1  0  0  0  0
  3 15  1  0  0  0  0
  4  5  3  0  0  0  0
  5 16  1  0  0  0  0
  6 17  1  1  0  0  0
  6  7  1  0  0  0  0
  7 18  1  0  0  0  0
  8 19  1  0  0  0  0
  8  6  1  0  0  0  0
  9  8  2  0  0  0  0
 12  1  1  0  0  0  0
 14  3  1  0  0  0  0
M TOR 0 0 1 2 3
M TOR 1 0 1 2 13
M TOR 2 0 1 2 14
M TOR 3 0 1 5 6
M TOR 4 0 1 5 7
M TOR 5 0 1 5 16
M TOR 6 1 2 3 4
M TOR 7 1 5 6 17
M TOR 8 1 5 7 8
M TOR 9 1 5 7 18
M TOR 10 2 1 0 9
M TOR 11 2 1 0 10
M TOR 12 2 1 0 11
M TOR 13 2 1 5 6
M TOR 14 2 1 5 7
M TOR 15 2 1 5 16
M TOR 16 2 3 4 15
M TOR 17 3 2 1 5
M TOR 18 3 2 1 12
M TOR 19 4 3 2 13
M TOR 20 4 3 2 14
M TOR 21 5 1 0 9
M TOR 22 5 1 0 10
M TOR 23 5 1 0 11
M TOR 24 5 1 2 13
M TOR 25 5 1 2 14
M TOR 26 6 5 1 12
M TOR 27 6 5 7 8
M TOR 28 6 5 7 18
M TOR 29 7 5 1 12
M TOR 30 7 5 6 17
M TOR 31 8 7 5 16
M  END
$$$$
