gdb 4621	5.0081139	0.5370021	0.5134725	1.2154	83.99	-0.25478	0.01686	0.27164	2171.8091	0.154276	-422.499592	-422.489064	-422.48812	-422.537149	35.886
 OpenBabel02181911413D

 19 19  0  0  1  0  0  0  0  0999 V2000
    7.0114    1.7427    1.4234 C   0  0  0  0  0  0  0  0  0  0  0  0
    6.0952    1.4366    0.2323 C   0  0  0  0  0  0  0  0  0  0  0  0
    4.7154    1.0150    0.6742 C   0  0  2  0  0  0  0  0  0  0  0  0
    4.5786   -0.3071    1.1936 O   0  0  0  0  0  0  0  0  0  0  0  0
    3.9261   -0.0004   -0.0548 C   0  0  1  0  0  0  0  0  0  0  0  0
    2.4895    0.0149   -0.0735 C   0  0  0  0  0  0  0  0  0  0  0  0
    1.2850    0.0142   -0.1246 C   0  0  0  0  0  0  0  0  0  0  0  0
   -0.1765    0.0472   -0.1321 C   0  0  0  0  0  0  0  0  0  0  0  0
   -0.7201    1.3349    0.1207 O   0  0  0  0  0  0  0  0  0  0  0  0
    7.1118    0.8637    2.0669 H   0  0  0  0  0  0  0  0  0  0  0  0
    8.0098    2.0346    1.0855 H   0  0  0  0  0  0  0  0  0  0  0  0
    6.6113    2.5610    2.0317 H   0  0  0  0  0  0  0  0  0  0  0  0
    6.0016    2.3212   -0.4104 H   0  0  0  0  0  0  0  0  0  0  0  0
    6.5299    0.6384   -0.3798 H   0  0  0  0  0  0  0  0  0  0  0  0
    4.1494    1.7629    1.2334 H   0  0  0  0  0  0  0  0  0  0  0  0
    4.3970   -0.4695   -0.9187 H   0  0  0  0  0  0  0  0  0  0  0  0
   -0.5514   -0.2460   -1.1190 H   0  0  0  0  0  0  0  0  0  0  0  0
   -0.5565   -0.6983    0.5847 H   0  0  0  0  0  0  0  0  0  0  0  0
   -0.3360    1.6533    0.9443 H   0  0  0  0  0  0  0  0  0  0  0  0
  1 12  1  0  0  0  0
  1 10  1  0  0  0  0
  2  3  1  0  0  0  0
  2  1  1  0  0  0  0
  3  4  1  0  0  0  0
  3 15  1  1  0  0  0
  5 16  1  6  0  0  0
  5  3  1  0  0  0  0
  5  4  1  0  0  0  0
  6  5  1  0  0  0  0
  7  6  3  0  0  0  0
  8  7  1  0  0  0  0
  8  9  1  0  0  0  0
  8 18  1  0  0  0  0
  9 19  1  0  0  0  0
 11  1  1  0  0  0  0
 13  2  1  0  0  0  0
 14  2  1  0  0  0  0
 17  8  1  0  0  0  0
M TOR 0 0 1 2 3
M TOR 1 0 1 2 4
M TOR 2 0 1 2 14
M TOR 3 1 2 3 4
M TOR 4 1 2 4 5
M TOR 5 1 2 4 15
M TOR 6 2 1 0 9
M TOR 7 2 1 0 10
M TOR 8 2 1 0 11
M TOR 9 2 3 4 5
M TOR 10 2 3 4 15
M TOR 11 2 4 5 6
M TOR 12 3 2 1 12
M TOR 13 3 2 1 13
M TOR 14 3 4 2 14
M TOR 15 3 4 5 6
M TOR 16 4 2 1 12
M TOR 17 4 2 1 13
M TOR 18 4 5 6 7
M TOR 19 5 4 2 14
M TOR 20 5 6 7 8
M TOR 21 5 6 7 16
M TOR 22 5 6 7 17
M TOR 23 6 5 4 15
M TOR 24 6 7 8 18
M  END
$$$$
