gdb 2332	2.473789	1.7625125	1.526595	0.4467	74.67	-0.22841	0.06365	0.29206	974.0514	0.157101	-422.510794	-422.502951	-422.502007	-422.54284	31.018
 OpenBabel02181911413D

 19 21  0  0  1  0  0  0  0  0999 V2000
    0.5387    0.4160    0.5713 O   0  0  0  0  0  0  0  0  0  0  0  0
   -0.4793    1.3650    0.5079 C   0  0  1  0  0  0  0  0  0  0  0  0
   -1.9195    0.8844    0.1776 C   0  0  0  0  0  0  0  0  0  0  0  0
   -2.4524    1.4612    1.3973 O   0  0  0  0  0  0  0  0  0  0  0  0
   -1.1996    2.0544    1.7105 C   0  0  1  0  0  0  0  0  0  0  0  0
   -0.6147    2.3064    3.0852 C   0  0  0  0  0  0  0  0  0  0  0  0
    0.1753    3.5002    2.4480 C   0  0  0  0  0  0  0  0  0  0  0  0
   -0.7022    3.4290    1.1529 C   0  0  1  0  0  0  0  0  0  0  0  0
   -0.0455    2.7328   -0.0707 C   0  0  0  0  0  0  0  0  0  0  0  0
    0.2052   -0.3680    1.0221 H   0  0  0  0  0  0  0  0  0  0  0  0
   -2.3831    1.3051   -0.7225 H   0  0  0  0  0  0  0  0  0  0  0  0
   -2.0362   -0.2077    0.1661 H   0  0  0  0  0  0  0  0  0  0  0  0
   -1.3746    2.6543    3.7916 H   0  0  0  0  0  0  0  0  0  0  0  0
   -0.0438    1.4965    3.5496 H   0  0  0  0  0  0  0  0  0  0  0  0
    0.1066    4.4410    2.9962 H   0  0  0  0  0  0  0  0  0  0  0  0
    1.2296    3.2772    2.2684 H   0  0  0  0  0  0  0  0  0  0  0  0
   -1.3670    4.2763    0.9846 H   0  0  0  0  0  0  0  0  0  0  0  0
   -0.4797    2.9760   -1.0445 H   0  0  0  0  0  0  0  0  0  0  0  0
    1.0404    2.8425   -0.1329 H   0  0  0  0  0  0  0  0  0  0  0  0
  1 10  1  0  0  0  0
  2  1  1  1  0  0  0
  2  5  1  0  0  0  0
  3  2  1  0  0  0  0
  3  4  1  0  0  0  0
  5  4  1  6  0  0  0
  5  6  1  0  0  0  0
  6 14  1  0  0  0  0
  6 13  1  0  0  0  0
  7 15  1  0  0  0  0
  7  6  1  0  0  0  0
  8 17  1  6  0  0  0
  8  5  1  0  0  0  0
  8  7  1  0  0  0  0
  9  2  1  0  0  0  0
  9  8  1  0  0  0  0
 11  3  1  0  0  0  0
 12  3  1  0  0  0  0
 16  7  1  0  0  0  0
 18  9  1  0  0  0  0
 19  9  1  0  0  0  0
M TOR 0 0 1 2 3
M TOR 1 0 1 2 10
M TOR 2 0 1 2 11
M TOR 3 0 1 4 3
M TOR 4 0 1 4 5
M TOR 5 0 1 4 7
M TOR 6 0 1 8 7
M TOR 7 0 1 8 17
M TOR 8 0 1 8 18
M TOR 9 1 2 3 4
M TOR 10 1 4 5 6
M TOR 11 1 4 5 12
M TOR 12 1 4 5 13
M TOR 13 1 4 7 6
M TOR 14 1 4 7 8
M TOR 15 1 4 7 16
M TOR 16 1 8 7 6
M TOR 17 1 8 7 16
M TOR 18 2 1 0 9
M TOR 19 2 1 4 5
M TOR 20 2 1 4 7
M TOR 21 2 1 8 7
M TOR 22 2 1 8 17
M TOR 23 2 1 8 18
M TOR 24 2 3 4 5
M TOR 25 2 3 4 7
M TOR 26 3 2 1 8
M TOR 27 3 4 1 8
M TOR 28 3 4 5 6
M TOR 29 3 4 5 12
M TOR 30 3 4 5 13
M TOR 31 3 4 7 6
M TOR 32 3 4 7 8
M TOR 33 3 4 7 16
M TOR 34 4 1 0 9
M TOR 35 4 1 2 10
M TOR 36 4 1 2 11
M TOR 37 4 1 8 17
M TOR 38 4 1 8 18
M TOR 39 4 3 2 10
M TOR 40 4 3 2 11
M TOR 41 4 5 6 7
M TOR 42 4 5 6 14
M TOR 43 4 5 6 15
M TOR 44 4 7 6 14
M TOR 45 4 7 6 15
M TOR 46 4 7 8 17
M TOR 47 4 7 8 18
M TOR 48 5 4 1 8
M TOR 49 5 4 7 8
M TOR 50 5 4 7 16
M TOR 51 5 6 7 8
M TOR 52 5 6 7 16
M TOR 53 6 7 8 17
M TOR 54 6 7 8 18
M TOR 55 7 4 5 12
M TOR 56 7 4 5 13
M TOR 57 7 6 5 12
M TOR 58 7 6 5 13
M TOR 59 8 1 0 9
M TOR 60 8 1 2 10
M TOR 61 8 1 2 11
M TOR 62 8 7 6 14
M TOR 63 8 7 6 15
M  END
$$$$
