gdb 1054	1.873485	1.2094981	0.8814951	2.0869	79.16	-0.23187	-0.00908	0.22279	1403.533	0.152394	-422.531077	-422.519873	-422.518929	-422.569973	36.952
 OpenBabel02181911403D

 19 18  0  0  0  0  0  0  0  0999 V2000
    0.4269    0.6469    1.3615 C   0  0  0  0  0  0  0  0  0  0  0  0
   -0.7849    0.4354    0.5838 C   0  0  0  0  0  0  0  0  0  0  0  0
   -1.7910    0.2561   -0.0545 C   0  0  0  0  0  0  0  0  0  0  0  0
   -3.0299    0.0246   -0.7982 C   0  0  0  0  0  0  0  0  0  0  0  0
   -4.1489    0.7734   -0.3405 O   0  0  0  0  0  0  0  0  0  0  0  0
   -4.5301    0.5002    0.9940 C   0  0  0  0  0  0  0  0  0  0  0  0
   -3.9334    1.4464    2.0458 C   0  0  0  0  0  0  0  0  0  0  0  0
   -3.5688    2.8406    1.5831 C   0  0  0  0  0  0  0  0  0  0  0  0
   -3.8385    1.0825    3.1946 O   0  0  0  0  0  0  0  0  0  0  0  0
    0.1824    0.9308    2.3907 H   0  0  0  0  0  0  0  0  0  0  0  0
    1.0316   -0.2654    1.4044 H   0  0  0  0  0  0  0  0  0  0  0  0
    1.0474    1.4406    0.9320 H   0  0  0  0  0  0  0  0  0  0  0  0
   -2.9045    0.3105   -1.8478 H   0  0  0  0  0  0  0  0  0  0  0  0
   -3.2688   -1.0511   -0.7789 H   0  0  0  0  0  0  0  0  0  0  0  0
   -5.6199    0.6343    1.0391 H   0  0  0  0  0  0  0  0  0  0  0  0
   -4.3112   -0.5328    1.2915 H   0  0  0  0  0  0  0  0  0  0  0  0
   -3.3017    3.4528    2.4454 H   0  0  0  0  0  0  0  0  0  0  0  0
   -2.7308    2.7898    0.8825 H   0  0  0  0  0  0  0  0  0  0  0  0
   -4.4044    3.2937    1.0386 H   0  0  0  0  0  0  0  0  0  0  0  0
  1 11  1  0  0  0  0
  1 10  1  0  0  0  0
  2  1  1  0  0  0  0
  3  2  3  0  0  0  0
  4 14  1  0  0  0  0
  4  5  1  0  0  0  0
  4  3  1  0  0  0  0
  5  6  1  0  0  0  0
  6 15  1  0  0  0  0
  6 16  1  0  0  0  0
  6  7  1  0  0  0  0
  7  9  2  0  0  0  0
  8  7  1  0  0  0  0
  8 17  1  0  0  0  0
 12  1  1  0  0  0  0
 13  4  1  0  0  0  0
 18  8  1  0  0  0  0
 19  8  1  0  0  0  0
M TOR 0 0 1 2 3
M TOR 1 1 2 3 4
M TOR 2 1 2 3 12
M TOR 3 1 2 3 13
M TOR 4 2 1 0 9
M TOR 5 2 1 0 10
M TOR 6 2 1 0 11
M TOR 7 2 3 4 5
M TOR 8 3 4 5 6
M TOR 9 3 4 5 14
M TOR 10 3 4 5 15
M TOR 11 4 5 6 7
M TOR 12 4 5 6 8
M TOR 13 5 4 3 12
M TOR 14 5 4 3 13
M TOR 15 5 6 7 16
M TOR 16 5 6 7 17
M TOR 17 5 6 7 18
M TOR 18 7 6 5 14
M TOR 19 7 6 5 15
M TOR 20 8 6 5 14
M TOR 21 8 6 5 15
M TOR 22 8 6 7 16
M TOR 23 8 6 7 17
M TOR 24 8 6 7 18
M  END
$$$$
