gdb 204	2.3614299	2.3096856	1.7994035	1.8485	72.51	-0.22898	0.06643	0.29541	867.4339	0.161195	-422.555346	-422.548944	-422.547999	-422.585798	26.861
 OpenBabel02181911403D

 19 21  0  0  1  0  0  0  0  0999 V2000
    1.4650    0.0918    0.0656 C   0  0  0  0  0  0  0  0  0  0  0  0
    1.3364    1.6389    0.0730 C   0  0  2  0  0  0  0  0  0  0  0  0
    1.3630    2.2657    1.4774 C   0  0  0  0  0  0  0  0  0  0  0  0
   -0.0702    2.0113    1.9965 C   0  0  2  0  0  0  0  0  0  0  0  0
   -0.3077    0.5719    2.4996 C   0  0  0  0  0  0  0  0  0  0  0  0
   -0.6120   -0.3387    1.4482 O   0  0  0  0  0  0  0  0  0  0  0  0
   -0.0824   -0.0304    0.1785 C   0  0  1  0  0  0  0  0  0  0  0  0
   -0.2075    1.4960   -0.1625 C   0  0  1  0  0  0  0  0  0  0  0  0
   -0.8879    2.2188    0.8422 O   0  0  0  0  0  0  0  0  0  0  0  0
    1.8289   -0.2973   -0.8893 H   0  0  0  0  0  0  0  0  0  0  0  0
    2.0486   -0.3646    0.8699 H   0  0  0  0  0  0  0  0  0  0  0  0
    1.9320    2.1908   -0.6546 H   0  0  0  0  0  0  0  0  0  0  0  0
    2.1319    1.8404    2.1289 H   0  0  0  0  0  0  0  0  0  0  0  0
    1.5310    3.3440    1.4084 H   0  0  0  0  0  0  0  0  0  0  0  0
   -0.3735    2.7280    2.7636 H   0  0  0  0  0  0  0  0  0  0  0  0
    0.5643    0.2254    3.0773 H   0  0  0  0  0  0  0  0  0  0  0  0
   -1.1771    0.5486    3.1642 H   0  0  0  0  0  0  0  0  0  0  0  0
   -0.5581   -0.7316   -0.5104 H   0  0  0  0  0  0  0  0  0  0  0  0
   -0.6284    1.7479   -1.1360 H   0  0  0  0  0  0  0  0  0  0  0  0
  1  2  1  0  0  0  0
  1  7  1  0  0  0  0
  1 11  1  0  0  0  0
  2 12  1  6  0  0  0
  2  3  1  0  0  0  0
  3  4  1  0  0  0  0
  3 13  1  0  0  0  0
  4  5  1  0  0  0  0
  4 15  1  1  0  0  0
  5 16  1  0  0  0  0
  5 17  1  0  0  0  0
  6  5  1  0  0  0  0
  7 18  1  6  0  0  0
  7  6  1  0  0  0  0
  8 19  1  6  0  0  0
  8  2  1  0  0  0  0
  8  7  1  0  0  0  0
  8  9  1  0  0  0  0
  9  4  1  0  0  0  0
 10  1  1  0  0  0  0
 14  3  1  0  0  0  0
M TOR 0 0 1 2 3
M TOR 1 0 1 2 12
M TOR 2 0 1 2 13
M TOR 3 0 1 7 6
M TOR 4 0 1 7 8
M TOR 5 0 1 7 18
M TOR 6 0 6 5 4
M TOR 7 0 6 7 8
M TOR 8 0 6 7 18
M TOR 9 1 0 6 5
M TOR 10 1 0 6 17
M TOR 11 1 2 3 4
M TOR 12 1 2 3 8
M TOR 13 1 2 3 14
M TOR 14 1 7 6 5
M TOR 15 1 7 6 17
M TOR 16 1 7 8 3
M TOR 17 2 1 0 6
M TOR 18 2 1 0 9
M TOR 19 2 1 0 10
M TOR 20 2 1 7 6
M TOR 21 2 1 7 8
M TOR 22 2 1 7 18
M TOR 23 2 3 4 5
M TOR 24 2 3 4 15
M TOR 25 2 3 4 16
M TOR 26 2 3 8 7
M TOR 27 3 2 1 7
M TOR 28 3 2 1 11
M TOR 29 3 4 5 6
M TOR 30 3 8 7 6
M TOR 31 3 8 7 18
M TOR 32 4 3 2 12
M TOR 33 4 3 2 13
M TOR 34 4 3 8 7
M TOR 35 4 5 6 7
M TOR 36 4 5 6 17
M TOR 37 5 4 3 8
M TOR 38 5 4 3 14
M TOR 39 5 6 0 9
M TOR 40 5 6 0 10
M TOR 41 5 6 7 8
M TOR 42 5 6 7 18
M TOR 43 6 0 1 11
M TOR 44 6 5 4 15
M TOR 45 6 5 4 16
M TOR 46 6 7 1 11
M TOR 47 7 1 0 9
M TOR 48 7 1 0 10
M TOR 49 7 1 2 12
M TOR 50 7 1 2 13
M TOR 51 7 6 0 9
M TOR 52 7 6 0 10
M TOR 53 7 8 3 14
M TOR 54 8 3 2 12
M TOR 55 8 3 2 13
M TOR 56 8 3 4 15
M TOR 57 8 3 4 16
M TOR 58 8 7 1 11
M TOR 59 8 7 6 17
M  END
$$$$
