gdb 2558	2.4284819	1.8622969	1.4487189	2.2606	75.01	-0.23399	0.00969	0.24368	992.435	0.156929	-422.566317	-422.558185	-422.557241	-422.59843	31.678
 OpenBabel02181911413D

 19 20  0  0  1  0  0  0  0  0999 V2000
    1.2597    0.9215    0.1499 C   0  0  0  0  0  0  0  0  0  0  0  0
   -0.0465    0.2192   -0.0066 C   0  0  0  0  0  0  0  0  0  0  0  0
   -0.3794   -1.0575    0.2048 C   0  0  0  0  0  0  0  0  0  0  0  0
   -1.8936   -1.0910    0.0619 C   0  0  1  0  0  0  0  0  0  0  0  0
   -2.4432   -0.4661    1.2521 O   0  0  0  0  0  0  0  0  0  0  0  0
   -2.1470    0.9181    1.0625 C   0  0  0  0  0  0  0  0  0  0  0  0
   -1.3823    0.9187   -0.3073 C   0  0  1  0  0  0  0  0  0  0  0  0
   -1.3936    2.1940   -1.1099 C   0  0  0  0  0  0  0  0  0  0  0  0
   -2.1331   -0.1379   -0.9466 O   0  0  0  0  0  0  0  0  0  0  0  0
    1.2080    1.6934    0.9289 H   0  0  0  0  0  0  0  0  0  0  0  0
    2.0545    0.2231    0.4245 H   0  0  0  0  0  0  0  0  0  0  0  0
    1.5573    1.4314   -0.7745 H   0  0  0  0  0  0  0  0  0  0  0  0
    0.2420   -1.8698    0.5566 H   0  0  0  0  0  0  0  0  0  0  0  0
   -2.4081   -2.0320   -0.1199 H   0  0  0  0  0  0  0  0  0  0  0  0
   -3.0799    1.4879    0.9820 H   0  0  0  0  0  0  0  0  0  0  0  0
   -1.5473    1.3071    1.8927 H   0  0  0  0  0  0  0  0  0  0  0  0
   -0.8642    2.9902   -0.5775 H   0  0  0  0  0  0  0  0  0  0  0  0
   -0.9078    2.0457   -2.0784 H   0  0  0  0  0  0  0  0  0  0  0  0
   -2.4214    2.5232   -1.2862 H   0  0  0  0  0  0  0  0  0  0  0  0
  1 11  1  0  0  0  0
  1 10  1  0  0  0  0
  2  1  1  0  0  0  0
  2  3  2  0  0  0  0
  3 13  1  0  0  0  0
  4 14  1  6  0  0  0
  4  3  1  0  0  0  0
  4  5  1  0  0  0  0
  6  5  1  0  0  0  0
  6 16  1  0  0  0  0
  7  8  1  6  0  0  0
  7  2  1  0  0  0  0
  7  6  1  0  0  0  0
  8 17  1  0  0  0  0
  9  7  1  0  0  0  0
  9  4  1  0  0  0  0
 12  1  1  0  0  0  0
 15  6  1  0  0  0  0
 18  8  1  0  0  0  0
 19  8  1  0  0  0  0
M TOR 0 0 1 2 3
M TOR 1 0 1 2 12
M TOR 2 0 1 6 5
M TOR 3 0 1 6 7
M TOR 4 0 1 6 8
M TOR 5 1 2 3 4
M TOR 6 1 2 3 8
M TOR 7 1 2 3 13
M TOR 8 1 6 5 4
M TOR 9 1 6 5 14
M TOR 10 1 6 5 15
M TOR 11 1 6 7 16
M TOR 12 1 6 7 17
M TOR 13 1 6 7 18
M TOR 14 1 6 8 3
M TOR 15 2 1 0 9
M TOR 16 2 1 0 10
M TOR 17 2 1 0 11
M TOR 18 2 1 6 5
M TOR 19 2 1 6 7
M TOR 20 2 1 6 8
M TOR 21 2 3 4 5
M TOR 22 2 3 8 6
M TOR 23 3 2 1 6
M TOR 24 3 4 5 6
M TOR 25 3 4 5 14
M TOR 26 3 4 5 15
M TOR 27 3 8 6 5
M TOR 28 3 8 6 7
M TOR 29 4 3 2 12
M TOR 30 4 3 8 6
M TOR 31 4 5 6 7
M TOR 32 4 5 6 8
M TOR 33 5 4 3 8
M TOR 34 5 4 3 13
M TOR 35 5 6 7 16
M TOR 36 5 6 7 17
M TOR 37 5 6 7 18
M TOR 38 6 1 0 9
M TOR 39 6 1 0 10
M TOR 40 6 1 0 11
M TOR 41 6 1 2 12
M TOR 42 6 8 3 13
M TOR 43 7 6 5 14
M TOR 44 7 6 5 15
M TOR 45 8 3 2 12
M TOR 46 8 6 5 14
M TOR 47 8 6 5 15
M TOR 48 8 6 7 16
M TOR 49 8 6 7 17
M TOR 50 8 6 7 18
M  END
$$$$
