
     RDKit          3D

 19 20  0  0  0  0  0  0  0  0999 V2000
   -0.1032    0.1902   -0.0525 C   0  0  0  0  0  0  0  0  0  0  0  0
    1.4075   -0.0503    0.0068 C   0  0  0  0  0  0  0  0  0  0  0  0
    1.6657   -0.9290    1.0799 O   0  0  0  0  0  0  0  0  0  0  0  0
    2.1680    1.3110    0.0995 C   0  0  0  0  0  0  0  0  0  0  0  0
    2.6044    1.5780   -1.3198 C   0  0  0  0  0  0  0  0  0  0  0  0
    2.4714    0.5073   -2.1060 C   0  0  0  0  0  0  0  0  0  0  0  0
    1.9364   -0.6339   -1.3275 C   0  0  0  0  0  0  0  0  0  0  0  0
    1.5219   -1.9408   -1.8389 C   0  0  0  0  0  0  0  0  0  0  0  0
    2.7932   -1.8010   -1.1871 O   0  0  0  0  0  0  0  0  0  0  0  0
   -0.4431    0.6121    0.8978 H   0  0  0  0  0  0  0  0  0  0  0  0
   -0.3591    0.8885   -0.8553 H   0  0  0  0  0  0  0  0  0  0  0  0
   -0.6386   -0.7483   -0.2179 H   0  0  0  0  0  0  0  0  0  0  0  0
    2.3620   -1.5280    0.7713 H   0  0  0  0  0  0  0  0  0  0  0  0
    1.5392    2.1084    0.5102 H   0  0  0  0  0  0  0  0  0  0  0  0
    3.0311    1.2115    0.7690 H   0  0  0  0  0  0  0  0  0  0  0  0
    2.9973    2.5368   -1.6405 H   0  0  0  0  0  0  0  0  0  0  0  0
    2.7496    0.4325   -3.1500 H   0  0  0  0  0  0  0  0  0  0  0  0
    0.7833   -2.5196   -1.2860 H   0  0  0  0  0  0  0  0  0  0  0  0
    1.5728   -2.1531   -2.9061 H   0  0  0  0  0  0  0  0  0  0  0  0
  1  2  1  0
  2  3  1  0
  2  4  1  0
  4  5  1  0
  5  6  2  0
  6  7  1  0
  7  8  1  0
  8  9  1  0
  7  2  1  0
  9  7  1  0
  1 10  1  0
  1 11  1  0
  1 12  1  0
  3 13  1  0
  4 14  1  0
  4 15  1  0
  5 16  1  0
  6 17  1  0
  8 18  1  0
  8 19  1  0
M  END
$$$$
