
     RDKit          3D

 19 20  0  0  0  0  0  0  0  0999 V2000
   -2.7248    0.7945   -0.9652 C   0  0  0  0  0  0  0  0  0  0  0  0
   -2.2351    0.1901    0.3268 C   0  0  0  0  0  0  0  0  0  0  0  0
   -2.8330    0.5890    1.6672 C   0  0  0  0  0  0  0  0  0  0  0  0
   -2.1576   -0.1472    2.5645 C   0  0  0  0  0  0  0  0  0  0  0  0
   -1.1922   -0.9484    1.7151 C   0  0  0  0  0  0  0  0  0  0  0  0
   -0.6885    0.2075    0.7438 C   0  0  0  0  0  0  0  0  0  0  0  0
    0.2563   -0.0925   -0.2292 O   0  0  0  0  0  0  0  0  0  0  0  0
   -2.1693   -1.3624    0.5542 C   0  0  0  0  0  0  0  0  0  0  0  0
   -1.5928   -2.0348   -0.5582 O   0  0  0  0  0  0  0  0  0  0  0  0
   -2.1297    0.4331   -1.8086 H   0  0  0  0  0  0  0  0  0  0  0  0
   -3.7732    0.5396   -1.1562 H   0  0  0  0  0  0  0  0  0  0  0  0
   -2.6424    1.8864   -0.9411 H   0  0  0  0  0  0  0  0  0  0  0  0
   -3.6070    1.3290    1.8197 H   0  0  0  0  0  0  0  0  0  0  0  0
   -2.2398   -0.1682    3.6421 H   0  0  0  0  0  0  0  0  0  0  0  0
   -0.5082   -1.6556    2.1851 H   0  0  0  0  0  0  0  0  0  0  0  0
   -0.3612    1.1191    1.2498 H   0  0  0  0  0  0  0  0  0  0  0  0
   -0.0498   -0.8945   -0.6777 H   0  0  0  0  0  0  0  0  0  0  0  0
   -3.1049   -1.8471    0.8599 H   0  0  0  0  0  0  0  0  0  0  0  0
   -1.4698   -2.9606   -0.3236 H   0  0  0  0  0  0  0  0  0  0  0  0
  1  2  1  0
  2  3  1  0
  3  4  2  0
  4  5  1  0
  5  6  1  0
  6  7  1  0
  5  8  1  0
  8  9  1  0
  6  2  1  0
  8  2  1  0
  1 10  1  0
  1 11  1  0
  1 12  1  0
  3 13  1  0
  4 14  1  0
  5 15  1  0
  6 16  1  0
  7 17  1  0
  8 18  1  0
  9 19  1  0
M  END
$$$$
