
     RDKit          3D

 19 20  0  0  0  0  0  0  0  0999 V2000
   -3.2558   -1.9381   -1.2297 C   0  0  0  0  0  0  0  0  0  0  0  0
   -2.1733   -0.8961   -1.0286 C   0  0  0  0  0  0  0  0  0  0  0  0
   -2.2804    0.0696    0.0952 C   0  0  0  0  0  0  0  0  0  0  0  0
   -1.2117    1.1589   -0.0953 C   0  0  0  0  0  0  0  0  0  0  0  0
   -1.1148    2.1293    0.9127 O   0  0  0  0  0  0  0  0  0  0  0  0
   -0.1941    0.0109    0.1476 C   0  0  0  0  0  0  0  0  0  0  0  0
    0.9033    0.0910    0.6434 O   0  0  0  0  0  0  0  0  0  0  0  0
   -1.1938   -1.0866    0.1280 C   0  0  0  0  0  0  0  0  0  0  0  0
   -1.0407   -2.3426    0.9388 C   0  0  0  0  0  0  0  0  0  0  0  0
   -3.7215   -2.2328   -0.2857 H   0  0  0  0  0  0  0  0  0  0  0  0
   -4.0433   -1.5376   -1.8758 H   0  0  0  0  0  0  0  0  0  0  0  0
   -2.8569   -2.8391   -1.7066 H   0  0  0  0  0  0  0  0  0  0  0  0
   -1.7653   -0.5165   -1.9657 H   0  0  0  0  0  0  0  0  0  0  0  0
   -3.1367    0.1549    0.7516 H   0  0  0  0  0  0  0  0  0  0  0  0
   -1.2363    1.6275   -1.0885 H   0  0  0  0  0  0  0  0  0  0  0  0
   -0.2256    2.0513    1.2841 H   0  0  0  0  0  0  0  0  0  0  0  0
   -0.4224   -3.0752    0.4083 H   0  0  0  0  0  0  0  0  0  0  0  0
   -0.5463   -2.1212    1.8891 H   0  0  0  0  0  0  0  0  0  0  0  0
   -2.0028   -2.8136    1.1527 H   0  0  0  0  0  0  0  0  0  0  0  0
  1  2  1  0
  2  3  1  0
  3  4  1  0
  4  5  1  0
  4  6  1  0
  6  7  2  0
  6  8  1  0
  8  9  1  0
  8  2  1  0
  8  3  1  0
  1 10  1  0
  1 11  1  0
  1 12  1  0
  2 13  1  0
  3 14  1  0
  4 15  1  0
  5 16  1  0
  9 17  1  0
  9 18  1  0
  9 19  1  0
M  END
$$$$
