gdb 6064	6.6616596	0.4239383	0.4187247	2.7842	84.23	-0.24845	-0.02952	0.21893	2587.4404	0.152613	-422.51877	-422.50769	-422.506746	-422.55806	36.124
 OpenBabel02181911423D

 19 18  0  0  0  0  0  0  0  0999 V2000
    0.6422   -0.3653   -1.0086 C   0  0  0  0  0  0  0  0  0  0  0  0
    1.2182    0.1132    0.3125 C   0  0  0  0  0  0  0  0  0  0  0  0
    1.4240    1.5113    0.2300 O   0  0  0  0  0  0  0  0  0  0  0  0
    1.9607    2.0482    1.4217 C   0  0  0  0  0  0  0  0  0  0  0  0
    2.1536    3.4858    1.2831 C   0  0  0  0  0  0  0  0  0  0  0  0
    2.3033    4.6763    1.1914 C   0  0  0  0  0  0  0  0  0  0  0  0
    2.5444    6.1055    1.0674 C   0  0  0  0  0  0  0  0  0  0  0  0
    4.0226    6.4323    0.8399 C   0  0  0  0  0  0  0  0  0  0  0  0
    4.5741    7.3852    1.3181 O   0  0  0  0  0  0  0  0  0  0  0  0
    0.4711   -1.4455   -0.9799 H   0  0  0  0  0  0  0  0  0  0  0  0
   -0.3092    0.1327   -1.2146 H   0  0  0  0  0  0  0  0  0  0  0  0
    1.3301   -0.1434   -1.8292 H   0  0  0  0  0  0  0  0  0  0  0  0
    0.5315   -0.1212    1.1440 H   0  0  0  0  0  0  0  0  0  0  0  0
    2.1713   -0.3989    0.5297 H   0  0  0  0  0  0  0  0  0  0  0  0
    1.2893    1.8457    2.2747 H   0  0  0  0  0  0  0  0  0  0  0  0
    2.9242    1.5658    1.6636 H   0  0  0  0  0  0  0  0  0  0  0  0
    1.9968    6.5012    0.1979 H   0  0  0  0  0  0  0  0  0  0  0  0
    2.1985    6.6670    1.9415 H   0  0  0  0  0  0  0  0  0  0  0  0
    4.5504    5.7146    0.1752 H   0  0  0  0  0  0  0  0  0  0  0  0
  1 10  1  0  0  0  0
  1  2  1  0  0  0  0
  2 14  1  0  0  0  0
  2 13  1  0  0  0  0
  3  2  1  0  0  0  0
  3  4  1  0  0  0  0
  4 16  1  0  0  0  0
  4 15  1  0  0  0  0
  5  4  1  0  0  0  0
  6  5  3  0  0  0  0
  7  6  1  0  0  0  0
  7 18  1  0  0  0  0
  8  7  1  0  0  0  0
  8  9  2  0  0  0  0
 11  1  1  0  0  0  0
 12  1  1  0  0  0  0
 17  7  1  0  0  0  0
 19  8  1  0  0  0  0
M TOR 0 0 1 2 3
M TOR 1 1 2 3 4
M TOR 2 1 2 3 14
M TOR 3 1 2 3 15
M TOR 4 2 1 0 9
M TOR 5 2 1 0 10
M TOR 6 2 1 0 11
M TOR 7 2 3 4 5
M TOR 8 3 2 1 12
M TOR 9 3 2 1 13
M TOR 10 3 4 5 6
M TOR 11 4 5 6 7
M TOR 12 4 5 6 16
M TOR 13 4 5 6 17
M TOR 14 5 4 3 14
M TOR 15 5 4 3 15
M TOR 16 5 6 7 8
M TOR 17 5 6 7 18
M TOR 18 8 7 6 16
M TOR 19 8 7 6 17
M  END
$$$$
