gdb 5316	1.9707956	1.6834556	0.9801107	4.8798	79.74	-0.26138	-0.03094	0.23044	1235.6223	0.156353	-422.619732	-422.610382	-422.609438	-422.65424	33.367
 OpenBabel02181911423D

 19 19  0  0  0  0  0  0  0  0999 V2000
    0.6444   -0.6878    0.6560 C   0  0  0  0  0  0  0  0  0  0  0  0
    0.9297    0.1974   -0.5707 C   0  0  0  0  0  0  0  0  0  0  0  0
    1.7908    1.3774   -0.2429 C   0  0  0  0  0  0  0  0  0  0  0  0
    3.0585    1.6697   -0.5650 C   0  0  0  0  0  0  0  0  0  0  0  0
    4.0481    0.9049   -1.3788 C   0  0  0  0  0  0  0  0  0  0  0  0
    3.4104    2.9995    0.0489 C   0  0  0  0  0  0  0  0  0  0  0  0
    2.2435    3.4313    0.7392 O   0  0  0  0  0  0  0  0  0  0  0  0
    1.2562    2.4901    0.5849 C   0  0  0  0  0  0  0  0  0  0  0  0
    0.1641    2.6187    1.0670 O   0  0  0  0  0  0  0  0  0  0  0  0
   -0.0127   -1.5193    0.3846 H   0  0  0  0  0  0  0  0  0  0  0  0
    1.5701   -1.1048    1.0652 H   0  0  0  0  0  0  0  0  0  0  0  0
    0.1541   -0.1039    1.4385 H   0  0  0  0  0  0  0  0  0  0  0  0
    1.3941   -0.3973   -1.3642 H   0  0  0  0  0  0  0  0  0  0  0  0
   -0.0243    0.5676   -0.9648 H   0  0  0  0  0  0  0  0  0  0  0  0
    4.9340    0.6527   -0.7829 H   0  0  0  0  0  0  0  0  0  0  0  0
    3.6255   -0.0241   -1.7667 H   0  0  0  0  0  0  0  0  0  0  0  0
    4.4017    1.5010   -2.2291 H   0  0  0  0  0  0  0  0  0  0  0  0
    4.2438    2.9256    0.7603 H   0  0  0  0  0  0  0  0  0  0  0  0
    3.6811    3.7503   -0.7055 H   0  0  0  0  0  0  0  0  0  0  0  0
  1 11  1  0  0  0  0
  1 12  1  0  0  0  0
  2  3  1  0  0  0  0
  2  1  1  0  0  0  0
  3  8  1  0  0  0  0
  4  3  2  0  0  0  0
  4  6  1  0  0  0  0
  5 15  1  0  0  0  0
  5  4  1  0  0  0  0
  6  7  1  0  0  0  0
  6 18  1  0  0  0  0
  8  7  1  0  0  0  0
  8  9  2  0  0  0  0
 10  1  1  0  0  0  0
 13  2  1  0  0  0  0
 14  2  1  0  0  0  0
 16  5  1  0  0  0  0
 17  5  1  0  0  0  0
 19  6  1  0  0  0  0
M TOR 0 0 1 2 3
M TOR 1 0 1 2 7
M TOR 2 1 2 3 4
M TOR 3 1 2 3 5
M TOR 4 1 2 7 6
M TOR 5 1 2 7 8
M TOR 6 2 1 0 9
M TOR 7 2 1 0 10
M TOR 8 2 1 0 11
M TOR 9 2 3 4 14
M TOR 10 2 3 4 15
M TOR 11 2 3 4 16
M TOR 12 2 3 5 6
M TOR 13 2 3 5 17
M TOR 14 2 3 5 18
M TOR 15 2 7 6 5
M TOR 16 3 2 1 12
M TOR 17 3 2 1 13
M TOR 18 3 2 7 6
M TOR 19 3 2 7 8
M TOR 20 3 5 6 7
M TOR 21 4 3 2 7
M TOR 22 4 3 5 6
M TOR 23 4 3 5 17
M TOR 24 4 3 5 18
M TOR 25 5 3 2 7
M TOR 26 5 3 4 14
M TOR 27 5 3 4 15
M TOR 28 5 3 4 16
M TOR 29 5 6 7 8
M TOR 30 7 2 1 12
M TOR 31 7 2 1 13
M TOR 32 7 6 5 17
M TOR 33 7 6 5 18
M  END
$$$$
