
     RDKit          3D

 19 20  0  0  0  0  0  0  0  0999 V2000
    1.5056   -0.0355   -0.1627 C   0  0  0  0  0  0  0  0  0  0  0  0
    0.1113   -0.1728    0.0237 O   0  0  0  0  0  0  0  0  0  0  0  0
   -0.3720    0.5155    1.1383 C   0  0  0  0  0  0  0  0  0  0  0  0
   -0.1718   -0.0885    2.5432 C   0  0  0  0  0  0  0  0  0  0  0  0
   -0.8135   -1.4282    2.6068 C   0  0  0  0  0  0  0  0  0  0  0  0
   -0.6410   -2.2768    3.8482 C   0  0  0  0  0  0  0  0  0  0  0  0
   -1.7134   -0.1955    2.7339 C   0  0  0  0  0  0  0  0  0  0  0  0
   -1.9117    0.4102    1.3832 C   0  0  0  0  0  0  0  0  0  0  0  0
   -2.8576    0.8233    0.7762 O   0  0  0  0  0  0  0  0  0  0  0  0
    2.0757   -0.4529    0.6803 H   0  0  0  0  0  0  0  0  0  0  0  0
    1.7653   -0.5838   -1.0709 H   0  0  0  0  0  0  0  0  0  0  0  0
    1.7914    1.0201   -0.2873 H   0  0  0  0  0  0  0  0  0  0  0  0
   -0.0851    1.5798    1.1088 H   0  0  0  0  0  0  0  0  0  0  0  0
    0.5335    0.2624    3.2859 H   0  0  0  0  0  0  0  0  0  0  0  0
   -0.8695   -1.9914    1.6790 H   0  0  0  0  0  0  0  0  0  0  0  0
   -1.4778   -2.9719    3.9691 H   0  0  0  0  0  0  0  0  0  0  0  0
    0.2791   -2.8673    3.7857 H   0  0  0  0  0  0  0  0  0  0  0  0
   -0.5834   -1.6599    4.7508 H   0  0  0  0  0  0  0  0  0  0  0  0
   -2.3185   -0.0390    3.6183 H   0  0  0  0  0  0  0  0  0  0  0  0
  1  2  1  0
  2  3  1  0
  3  4  1  0
  4  5  1  0
  5  6  1  0
  5  7  1  0
  7  8  1  0
  8  9  2  0
  8  3  1  0
  7  4  1  0
  1 10  1  0
  1 11  1  0
  1 12  1  0
  3 13  1  0
  4 14  1  0
  5 15  1  0
  6 16  1  0
  6 17  1  0
  6 18  1  0
  7 19  1  0
M  END
$$$$
