
     RDKit          3D

 19 20  0  0  0  0  0  0  0  0999 V2000
   -3.1950    1.4760    1.3153 C   0  0  0  0  0  0  0  0  0  0  0  0
   -1.8115    0.8331    1.2610 C   0  0  0  0  0  0  0  0  0  0  0  0
   -1.8299   -0.7463    1.2705 C   0  0  0  0  0  0  0  0  0  0  0  0
   -0.9999   -1.1435    0.0210 C   0  0  0  0  0  0  0  0  0  0  0  0
   -1.8017   -0.7261   -1.2192 C   0  0  0  0  0  0  0  0  0  0  0  0
   -1.8214    0.7257   -1.1686 O   0  0  0  0  0  0  0  0  0  0  0  0
   -1.0324    1.1252   -0.0402 C   0  0  0  0  0  0  0  0  0  0  0  0
    0.0185    0.0069    0.0185 C   0  0  0  0  0  0  0  0  0  0  0  0
    1.2135    0.0248    0.0783 O   0  0  0  0  0  0  0  0  0  0  0  0
   -3.7421    1.1426    2.2033 H   0  0  0  0  0  0  0  0  0  0  0  0
   -3.1243    2.5680    1.3540 H   0  0  0  0  0  0  0  0  0  0  0  0
   -3.7773    1.2087    0.4293 H   0  0  0  0  0  0  0  0  0  0  0  0
   -1.2108    1.1929    2.1053 H   0  0  0  0  0  0  0  0  0  0  0  0
   -1.3841   -1.1449    2.1852 H   0  0  0  0  0  0  0  0  0  0  0  0
   -2.8507   -1.1353    1.2002 H   0  0  0  0  0  0  0  0  0  0  0  0
   -0.5954   -2.1531    0.0014 H   0  0  0  0  0  0  0  0  0  0  0  0
   -1.3235   -1.0485   -2.1527 H   0  0  0  0  0  0  0  0  0  0  0  0
   -2.8328   -1.0987   -1.2047 H   0  0  0  0  0  0  0  0  0  0  0  0
   -0.6770    2.1435   -0.1877 H   0  0  0  0  0  0  0  0  0  0  0  0
  1  2  1  0
  2  3  1  0
  3  4  1  0
  4  5  1  0
  5  6  1  0
  6  7  1  0
  7  8  1  0
  8  9  2  0
  7  2  1  0
  8  4  1  0
  1 10  1  0
  1 11  1  0
  1 12  1  0
  2 13  1  0
  3 14  1  0
  3 15  1  0
  4 16  1  0
  5 17  1  0
  5 18  1  0
  7 19  1  0
M  END
$$$$
