
     RDKit          3D

 19 21  0  0  0  0  0  0  0  0999 V2000
    0.8730    1.0892   -0.1969 C   0  0  0  0  0  0  0  0  0  0  0  0
    1.5890   -0.2537   -0.1899 C   0  0  0  0  0  0  0  0  0  0  0  0
    0.1178   -0.2004    0.0003 C   0  0  0  0  0  0  0  0  0  0  0  0
   -0.7038   -0.6627   -1.0489 O   0  0  0  0  0  0  0  0  0  0  0  0
   -2.0091   -0.4212   -0.5811 C   0  0  0  0  0  0  0  0  0  0  0  0
   -2.0024   -0.6542    0.8163 O   0  0  0  0  0  0  0  0  0  0  0  0
   -0.6551   -0.5572    1.2450 C   0  0  0  0  0  0  0  0  0  0  0  0
   -0.3786   -0.0506    2.6221 C   0  0  0  0  0  0  0  0  0  0  0  0
   -0.2014   -1.5275    2.2929 C   0  0  0  0  0  0  0  0  0  0  0  0
    1.0080    1.7515    0.6511 H   0  0  0  0  0  0  0  0  0  0  0  0
    0.7545    1.5825   -1.1550 H   0  0  0  0  0  0  0  0  0  0  0  0
    1.9458   -0.6399   -1.1379 H   0  0  0  0  0  0  0  0  0  0  0  0
    2.2101   -0.5052    0.6637 H   0  0  0  0  0  0  0  0  0  0  0  0
   -2.3117    0.6208   -0.7843 H   0  0  0  0  0  0  0  0  0  0  0  0
   -2.6953   -1.1193   -1.0699 H   0  0  0  0  0  0  0  0  0  0  0  0
    0.5080    0.5528    2.7919 H   0  0  0  0  0  0  0  0  0  0  0  0
   -1.2372    0.2299    3.2214 H   0  0  0  0  0  0  0  0  0  0  0  0
    0.8046   -1.9288    2.2334 H   0  0  0  0  0  0  0  0  0  0  0  0
   -0.9483   -2.2151    2.6734 H   0  0  0  0  0  0  0  0  0  0  0  0
  1  2  1  0
  2  3  1  0
  3  4  1  0
  4  5  1  0
  5  6  1  0
  6  7  1  0
  7  8  1  0
  8  9  1  0
  3  1  1  0
  7  3  1  0
  9  7  1  0
  1 10  1  0
  1 11  1  0
  2 12  1  0
  2 13  1  0
  5 14  1  0
  5 15  1  0
  8 16  1  0
  8 17  1  0
  9 18  1  0
  9 19  1  0
M  END
$$$$
