gdb 356	3.9577216	1.1713843	1.1042552	3.2732	75.21	-0.24035	0.07365	0.314	1154.1689	0.157409	-422.465276	-422.457487	-422.456542	-422.49827	29.439
 OpenBabel02181911403D

 19 21  0  0  1  0  0  0  0  0999 V2000
   -0.1943    1.1335    0.6753 C   0  0  0  0  0  0  0  0  0  0  0  0
    0.1194   -0.2431    0.3874 O   0  0  0  0  0  0  0  0  0  0  0  0
    1.3381    0.1235   -0.2883 C   0  0  0  0  0  0  0  0  0  0  0  0
    1.1728    1.6064    0.1240 C   0  0  0  0  0  0  0  0  0  0  0  0
    1.1630    2.6286   -0.9630 C   0  0  1  0  0  0  0  0  0  0  0  0
    0.6694    4.1042   -0.9442 C   0  0  0  0  0  0  0  0  0  0  0  0
    0.9511    3.6803   -2.4021 C   0  0  1  0  0  0  0  0  0  0  0  0
    2.2846    3.0390   -1.9605 C   0  0  0  0  0  0  0  0  0  0  0  0
    0.2692    2.3924   -2.1359 O   0  0  0  0  0  0  0  0  0  0  0  0
   -1.0535    1.4892    0.0939 H   0  0  0  0  0  0  0  0  0  0  0  0
   -0.3775    1.3007    1.7427 H   0  0  0  0  0  0  0  0  0  0  0  0
    2.2092   -0.4042    0.1161 H   0  0  0  0  0  0  0  0  0  0  0  0
    1.2747   -0.0454   -1.3701 H   0  0  0  0  0  0  0  0  0  0  0  0
    1.8704    1.9191    0.9056 H   0  0  0  0  0  0  0  0  0  0  0  0
   -0.3842    4.2385   -0.6956 H   0  0  0  0  0  0  0  0  0  0  0  0
    1.3180    4.8568   -0.4884 H   0  0  0  0  0  0  0  0  0  0  0  0
    0.7027    4.1908   -3.3318 H   0  0  0  0  0  0  0  0  0  0  0  0
    2.6496    2.2379   -2.6044 H   0  0  0  0  0  0  0  0  0  0  0  0
    3.0801    3.6948   -1.5971 H   0  0  0  0  0  0  0  0  0  0  0  0
  1 11  1  0  0  0  0
  2  1  1  0  0  0  0
  3 12  1  0  0  0  0
  3  4  1  0  0  0  0
  3  2  1  0  0  0  0
  4  1  1  0  0  0  0
  4 14  1  0  0  0  0
  5  6  1  0  0  0  0
  5  4  1  1  0  0  0
  6 15  1  0  0  0  0
  6 16  1  0  0  0  0
  7 17  1  6  0  0  0
  7  9  1  0  0  0  0
  7  8  1  0  0  0  0
  7  6  1  0  0  0  0
  8 19  1  0  0  0  0
  8  5  1  0  0  0  0
  9  5  1  0  0  0  0
 10  1  1  0  0  0  0
 13  3  1  0  0  0  0
 18  8  1  0  0  0  0
M TOR 0 0 1 2 3
M TOR 1 0 1 2 11
M TOR 2 0 1 2 12
M TOR 3 0 3 2 11
M TOR 4 0 3 2 12
M TOR 5 0 3 4 5
M TOR 6 0 3 4 7
M TOR 7 0 3 4 8
M TOR 8 1 0 3 4
M TOR 9 1 0 3 13
M TOR 10 1 2 3 4
M TOR 11 1 2 3 13
M TOR 12 2 1 0 9
M TOR 13 2 1 0 10
M TOR 14 2 3 0 9
M TOR 15 2 3 0 10
M TOR 16 2 3 4 5
M TOR 17 2 3 4 7
M TOR 18 2 3 4 8
M TOR 19 3 4 5 6
M TOR 20 3 4 5 14
M TOR 21 3 4 5 15
M TOR 22 3 4 7 6
M TOR 23 3 4 7 17
M TOR 24 3 4 7 18
M TOR 25 3 4 8 6
M TOR 26 4 3 0 9
M TOR 27 4 3 0 10
M TOR 28 4 3 2 11
M TOR 29 4 3 2 12
M TOR 30 4 5 6 7
M TOR 31 4 5 6 8
M TOR 32 4 5 6 16
M TOR 33 4 7 6 8
M TOR 34 4 7 6 16
M TOR 35 4 8 6 16
M TOR 36 5 4 3 13
M TOR 37 5 4 7 17
M TOR 38 5 4 7 18
M TOR 39 5 6 7 17
M TOR 40 5 6 7 18
M TOR 41 7 4 3 13
M TOR 42 7 4 5 14
M TOR 43 7 4 5 15
M TOR 44 7 6 5 14
M TOR 45 7 6 5 15
M TOR 46 8 4 3 13
M TOR 47 8 4 5 14
M TOR 48 8 4 5 15
M TOR 49 8 4 7 17
M TOR 50 8 4 7 18
M TOR 51 8 6 5 14
M TOR 52 8 6 5 15
M TOR 53 8 6 7 17
M TOR 54 8 6 7 18
M  END
$$$$
