gdb 4898	2.289625	1.3271856	1.0363449	2.7153	77.87	-0.25361	0.02261	0.27622	1238.8232	0.154304	-422.510012	-422.500313	-422.499368	-422.544706	35.727
 OpenBabel02181911413D

 19 19  0  0  1  0  0  0  0  0999 V2000
    0.3203    0.5138   -0.0049 C   0  0  0  0  0  0  0  0  0  0  0  0
    1.0183   -0.7706   -0.3992 C   0  0  2  0  0  0  0  0  0  0  0  0
    1.3283   -1.8017    0.7070 C   0  0  0  0  0  0  0  0  0  0  0  0
    2.8124   -1.6133    0.2935 C   0  0  1  0  0  0  0  0  0  0  0  0
    3.4188   -2.7752   -0.5074 C   0  0  0  0  0  0  0  0  0  0  0  0
    4.4985   -2.3292   -1.2902 O   0  0  0  0  0  0  0  0  0  0  0  0
    2.4377   -0.5644   -0.6550 O   0  0  0  0  0  0  0  0  0  0  0  0
    3.7167   -1.1206    1.3222 C   0  0  0  0  0  0  0  0  0  0  0  0
    4.4441   -0.7334    2.1972 C   0  0  0  0  0  0  0  0  0  0  0  0
    0.7904    0.9524    0.8802 H   0  0  0  0  0  0  0  0  0  0  0  0
    0.3727    1.2426   -0.8198 H   0  0  0  0  0  0  0  0  0  0  0  0
   -0.7357    0.3217    0.2149 H   0  0  0  0  0  0  0  0  0  0  0  0
    0.5374   -1.2107   -1.2824 H   0  0  0  0  0  0  0  0  0  0  0  0
    1.1034   -1.4579    1.7167 H   0  0  0  0  0  0  0  0  0  0  0  0
    0.9330   -2.8087    0.5627 H   0  0  0  0  0  0  0  0  0  0  0  0
    3.7946   -3.5504    0.1679 H   0  0  0  0  0  0  0  0  0  0  0  0
    2.6195   -3.2152   -1.1267 H   0  0  0  0  0  0  0  0  0  0  0  0
    4.1772   -1.5462   -1.7565 H   0  0  0  0  0  0  0  0  0  0  0  0
    5.0984   -0.3870    2.9588 H   0  0  0  0  0  0  0  0  0  0  0  0
  1 12  1  0  0  0  0
  1 10  1  0  0  0  0
  2 13  1  6  0  0  0
  2  1  1  0  0  0  0
  2  3  1  0  0  0  0
  3 14  1  0  0  0  0
  4  3  1  0  0  0  0
  4  8  1  1  0  0  0
  5 16  1  0  0  0  0
  5  4  1  0  0  0  0
  6  5  1  0  0  0  0
  7  2  1  0  0  0  0
  7  4  1  0  0  0  0
  8  9  3  0  0  0  0
  9 19  1  0  0  0  0
 11  1  1  0  0  0  0
 15  3  1  0  0  0  0
 17  5  1  0  0  0  0
 18  6  1  0  0  0  0
M TOR 0 0 1 2 3
M TOR 1 0 1 2 13
M TOR 2 0 1 2 14
M TOR 3 0 1 6 3
M TOR 4 1 2 3 4
M TOR 5 1 2 3 6
M TOR 6 1 2 3 7
M TOR 7 1 6 3 4
M TOR 8 1 6 3 7
M TOR 9 2 1 0 9
M TOR 10 2 1 0 10
M TOR 11 2 1 0 11
M TOR 12 2 3 4 5
M TOR 13 2 3 4 15
M TOR 14 2 3 4 16
M TOR 15 2 3 7 8
M TOR 16 3 2 1 12
M TOR 17 3 4 5 17
M TOR 18 3 6 1 12
M TOR 19 3 7 8 18
M TOR 20 4 3 2 13
M TOR 21 4 3 2 14
M TOR 22 4 3 7 8
M TOR 23 5 4 3 6
M TOR 24 5 4 3 7
M TOR 25 6 1 0 9
M TOR 26 6 1 0 10
M TOR 27 6 1 0 11
M TOR 28 6 1 2 13
M TOR 29 6 1 2 14
M TOR 30 6 3 2 13
M TOR 31 6 3 2 14
M TOR 32 6 3 4 15
M TOR 33 6 3 4 16
M TOR 34 6 3 7 8
M TOR 35 7 3 2 13
M TOR 36 7 3 2 14
M TOR 37 7 3 4 15
M TOR 38 7 3 4 16
M  END
$$$$
