gdb 5867	4.6805668	0.5830344	0.5543537	1.8505	83.89	-0.25234	0.01981	0.27215	2047.7511	0.153273	-422.483763	-422.473243	-422.472299	-422.521084	35.83
 OpenBabel02181911423D

 19 19  0  0  1  0  0  0  0  0999 V2000
    4.8279   -0.6899   -5.1243 C   0  0  0  0  0  0  0  0  0  0  0  0
    4.2127   -0.2641   -3.9303 O   0  0  0  0  0  0  0  0  0  0  0  0
    3.1781   -1.1400   -3.5267 C   0  0  0  0  0  0  0  0  0  0  0  0
    2.5740   -0.6705   -2.2879 C   0  0  0  0  0  0  0  0  0  0  0  0
    2.0716   -0.3064   -1.2561 C   0  0  0  0  0  0  0  0  0  0  0  0
    1.4347    0.1447   -0.0410 C   0  0  2  0  0  0  0  0  0  0  0  0
   -0.0575    0.3906   -0.1244 C   0  0  0  0  0  0  0  0  0  0  0  0
    2.2519    0.8550    0.9659 C   0  0  0  0  0  0  0  0  0  0  0  0
    1.8794   -0.5029    1.1697 O   0  0  0  0  0  0  0  0  0  0  0  0
    5.2870   -1.6856   -5.0164 H   0  0  0  0  0  0  0  0  0  0  0  0
    4.1130   -0.7313   -5.9617 H   0  0  0  0  0  0  0  0  0  0  0  0
    5.6086    0.0360   -5.3614 H   0  0  0  0  0  0  0  0  0  0  0  0
    2.4063   -1.2125   -4.3133 H   0  0  0  0  0  0  0  0  0  0  0  0
    3.5721   -2.1613   -3.3811 H   0  0  0  0  0  0  0  0  0  0  0  0
   -0.4385    0.7190    0.8457 H   0  0  0  0  0  0  0  0  0  0  0  0
   -0.2791    1.1559   -0.8744 H   0  0  0  0  0  0  0  0  0  0  0  0
   -0.5786   -0.5274   -0.4114 H   0  0  0  0  0  0  0  0  0  0  0  0
    3.3079    1.0300    0.7695 H   0  0  0  0  0  0  0  0  0  0  0  0
    1.7657    1.5822    1.6160 H   0  0  0  0  0  0  0  0  0  0  0  0
  1 10  1  0  0  0  0
  1  2  1  0  0  0  0
  2  3  1  0  0  0  0
  3 14  1  0  0  0  0
  3  4  1  0  0  0  0
  4  5  3  0  0  0  0
  6  5  1  6  0  0  0
  6  8  1  0  0  0  0
  6  9  1  0  0  0  0
  7  6  1  0  0  0  0
  7 15  1  0  0  0  0
  8  9  1  0  0  0  0
  8 19  1  0  0  0  0
 11  1  1  0  0  0  0
 12  1  1  0  0  0  0
 13  3  1  0  0  0  0
 16  7  1  0  0  0  0
 17  7  1  0  0  0  0
 18  8  1  0  0  0  0
M TOR 0 0 1 2 3
M TOR 1 0 1 2 12
M TOR 2 0 1 2 13
M TOR 3 1 2 3 4
M TOR 4 2 1 0 9
M TOR 5 2 1 0 10
M TOR 6 2 1 0 11
M TOR 7 2 3 4 5
M TOR 8 3 4 5 6
M TOR 9 3 4 5 7
M TOR 10 3 4 5 8
M TOR 11 4 3 2 12
M TOR 12 4 3 2 13
M TOR 13 4 5 6 14
M TOR 14 4 5 6 15
M TOR 15 4 5 6 16
M TOR 16 4 5 7 8
M TOR 17 4 5 7 17
M TOR 18 4 5 7 18
M TOR 19 5 8 7 17
M TOR 20 5 8 7 18
M TOR 21 6 5 7 8
M TOR 22 6 5 7 17
M TOR 23 6 5 7 18
M TOR 24 7 5 6 14
M TOR 25 7 5 6 15
M TOR 26 7 5 6 16
M TOR 27 8 5 6 14
M TOR 28 8 5 6 15
M TOR 29 8 5 6 16
M  END
$$$$
