gdb 3568	2.2121886	1.7824685	1.2442989	3.6748	74.53	-0.24186	-0.01485	0.22701	1062.9327	0.157391	-422.575747	-422.567468	-422.566524	-422.608894	31.333
 OpenBabel02181911413D

 19 20  0  0  1  0  0  0  0  0999 V2000
   -1.0264   -1.9218    2.5089 C   0  0  0  0  0  0  0  0  0  0  0  0
   -1.7177   -1.3345    1.2689 C   0  0  2  0  0  0  0  0  0  0  0  0
   -0.7603   -1.2605    0.0512 C   0  0  0  0  0  0  0  0  0  0  0  0
    0.0556    0.0208   -0.0119 C   0  0  0  0  0  0  0  0  0  0  0  0
    1.2607    0.0375   -0.0713 O   0  0  0  0  0  0  0  0  0  0  0  0
   -0.7819    1.2968   -0.0577 C   0  0  0  0  0  0  0  0  0  0  0  0
   -1.8975    1.2766    0.9619 C   0  0  2  0  0  0  0  0  0  0  0  0
   -1.4895    0.9504    2.2926 O   0  0  0  0  0  0  0  0  0  0  0  0
   -2.3331    0.0201    1.5985 C   0  0  2  0  0  0  0  0  0  0  0  0
   -0.6516   -2.9282    2.3001 H   0  0  0  0  0  0  0  0  0  0  0  0
   -0.1859   -1.2934    2.8143 H   0  0  0  0  0  0  0  0  0  0  0  0
   -1.7212   -1.9855    3.3525 H   0  0  0  0  0  0  0  0  0  0  0  0
   -2.5457   -1.9987    0.9937 H   0  0  0  0  0  0  0  0  0  0  0  0
   -0.0765   -2.1122    0.0346 H   0  0  0  0  0  0  0  0  0  0  0  0
   -1.3609   -1.2914   -0.8684 H   0  0  0  0  0  0  0  0  0  0  0  0
   -0.1258    2.1578    0.0978 H   0  0  0  0  0  0  0  0  0  0  0  0
   -1.2133    1.3850   -1.0651 H   0  0  0  0  0  0  0  0  0  0  0  0
   -2.6081    2.1021    0.9022 H   0  0  0  0  0  0  0  0  0  0  0  0
   -3.3466   -0.0188    2.0004 H   0  0  0  0  0  0  0  0  0  0  0  0
  1 11  1  0  0  0  0
  1 12  1  0  0  0  0
  2 13  1  6  0  0  0
  2  9  1  0  0  0  0
  2  1  1  0  0  0  0
  3  2  1  0  0  0  0
  4  3  1  0  0  0  0
  5  4  2  0  0  0  0
  6  4  1  0  0  0  0
  6 16  1  0  0  0  0
  6  7  1  0  0  0  0
  7 18  1  6  0  0  0
  7  9  1  0  0  0  0
  7  8  1  0  0  0  0
  9 19  1  1  0  0  0
  9  8  1  0  0  0  0
 10  1  1  0  0  0  0
 14  3  1  0  0  0  0
 15  3  1  0  0  0  0
 17  6  1  0  0  0  0
M TOR 0 0 1 2 3
M TOR 1 0 1 2 13
M TOR 2 0 1 2 14
M TOR 3 0 1 8 6
M TOR 4 0 1 8 7
M TOR 5 0 1 8 18
M TOR 6 1 2 3 4
M TOR 7 1 2 3 5
M TOR 8 1 8 6 5
M TOR 9 1 8 6 7
M TOR 10 1 8 6 17
M TOR 11 2 1 0 9
M TOR 12 2 1 0 10
M TOR 13 2 1 0 11
M TOR 14 2 1 8 6
M TOR 15 2 1 8 7
M TOR 16 2 1 8 18
M TOR 17 2 3 5 6
M TOR 18 2 3 5 15
M TOR 19 2 3 5 16
M TOR 20 3 2 1 8
M TOR 21 3 2 1 12
M TOR 22 3 5 6 7
M TOR 23 3 5 6 8
M TOR 24 3 5 6 17
M TOR 25 4 3 2 13
M TOR 26 4 3 2 14
M TOR 27 4 3 5 6
M TOR 28 4 3 5 15
M TOR 29 4 3 5 16
M TOR 30 5 3 2 13
M TOR 31 5 3 2 14
M TOR 32 5 6 7 8
M TOR 33 5 6 8 18
M TOR 34 6 7 8 18
M TOR 35 6 8 1 12
M TOR 36 7 6 5 15
M TOR 37 7 6 5 16
M TOR 38 7 8 1 12
M TOR 39 7 8 6 17
M TOR 40 8 1 0 9
M TOR 41 8 1 0 10
M TOR 42 8 1 0 11
M TOR 43 8 1 2 13
M TOR 44 8 1 2 14
M TOR 45 8 6 5 15
M TOR 46 8 6 5 16
M  END
$$$$
