gdb 447	4.2685523	0.9621249	0.8899882	3.0161	75.76	-0.23011	0.08728	0.31739	1341.8757	0.157911	-422.514092	-422.506135	-422.505191	-422.547143	29.917
 OpenBabel02181911403D

 19 21  0  0  1  0  0  0  0  0999 V2000
    3.4610    2.5133    0.1378 C   0  0  0  0  0  0  0  0  0  0  0  0
    2.5673    2.8267    1.2077 O   0  0  0  0  0  0  0  0  0  0  0  0
    2.6697    1.4614    0.7900 C   0  0  1  0  0  0  0  0  0  0  0  0
    1.4654    0.8541    0.1580 C   0  0  1  0  0  0  0  0  0  0  0  0
    1.4710   -0.6477   -0.1106 C   0  0  2  0  0  0  0  0  0  0  0  0
    0.5003   -1.1715   -1.1575 C   0  0  0  0  0  0  0  0  0  0  0  0
   -0.8404   -0.5179   -0.7460 C   0  0  0  0  0  0  0  0  0  0  0  0
   -0.7489   -0.2246    0.6493 O   0  0  0  0  0  0  0  0  0  0  0  0
    0.6060   -0.0854    0.9778 C   0  0  2  0  0  0  0  0  0  0  0  0
    3.1596    2.8766   -0.8443 H   0  0  0  0  0  0  0  0  0  0  0  0
    4.5216    2.6185    0.3640 H   0  0  0  0  0  0  0  0  0  0  0  0
    3.1856    0.8199    1.5085 H   0  0  0  0  0  0  0  0  0  0  0  0
    0.9631    1.5008   -0.5561 H   0  0  0  0  0  0  0  0  0  0  0  0
    2.3700   -1.2145    0.1041 H   0  0  0  0  0  0  0  0  0  0  0  0
    0.7721   -0.9184   -2.1866 H   0  0  0  0  0  0  0  0  0  0  0  0
    0.4451   -2.2625   -1.0832 H   0  0  0  0  0  0  0  0  0  0  0  0
   -1.0112    0.4072   -1.3134 H   0  0  0  0  0  0  0  0  0  0  0  0
   -1.7071   -1.1674   -0.8961 H   0  0  0  0  0  0  0  0  0  0  0  0
    0.7887   -0.2154    2.0383 H   0  0  0  0  0  0  0  0  0  0  0  0
  1 11  1  0  0  0  0
  1  3  1  0  0  0  0
  1  2  1  0  0  0  0
  3  2  1  0  0  0  0
  3 12  1  1  0  0  0
  4 13  1  6  0  0  0
  4  3  1  0  0  0  0
  4  9  1  0  0  0  0
  5 14  1  1  0  0  0
  5  4  1  0  0  0  0
  5  9  1  0  0  0  0
  6 16  1  0  0  0  0
  6  7  1  0  0  0  0
  6  5  1  0  0  0  0
  7  8  1  0  0  0  0
  8  9  1  0  0  0  0
  9 19  1  1  0  0  0
 10  1  1  0  0  0  0
 15  6  1  0  0  0  0
 17  7  1  0  0  0  0
 18  7  1  0  0  0  0
M TOR 0 0 1 2 3
M TOR 1 0 1 2 11
M TOR 2 0 2 3 4
M TOR 3 0 2 3 8
M TOR 4 0 2 3 12
M TOR 5 1 2 0 9
M TOR 6 1 2 0 10
M TOR 7 1 2 3 4
M TOR 8 1 2 3 8
M TOR 9 1 2 3 12
M TOR 10 2 3 4 5
M TOR 11 2 3 4 8
M TOR 12 2 3 4 13
M TOR 13 2 3 8 7
M TOR 14 2 3 8 18
M TOR 15 3 2 0 9
M TOR 16 3 2 0 10
M TOR 17 3 4 5 6
M TOR 18 3 4 5 14
M TOR 19 3 4 5 15
M TOR 20 3 4 8 7
M TOR 21 3 4 8 18
M TOR 22 3 8 4 5
M TOR 23 3 8 4 13
M TOR 24 3 8 7 6
M TOR 25 4 3 2 11
M TOR 26 4 5 6 7
M TOR 27 4 5 6 16
M TOR 28 4 5 6 17
M TOR 29 4 8 3 12
M TOR 30 4 8 7 6
M TOR 31 5 4 3 12
M TOR 32 5 4 8 7
M TOR 33 5 4 8 18
M TOR 34 5 6 7 8
M TOR 35 6 5 4 8
M TOR 36 6 5 4 13
M TOR 37 6 7 8 18
M TOR 38 7 6 5 14
M TOR 39 7 6 5 15
M TOR 40 7 8 3 12
M TOR 41 7 8 4 13
M TOR 42 8 3 2 11
M TOR 43 8 4 5 14
M TOR 44 8 4 5 15
M TOR 45 8 7 6 16
M TOR 46 8 7 6 17
M  END
$$$$
