
     RDKit          3D

 19 21  0  0  0  0  0  0  0  0999 V2000
   -2.8371    1.6160   -1.7640 C   0  0  0  0  0  0  0  0  0  0  0  0
   -2.5530    1.2211   -0.3332 C   0  0  0  0  0  0  0  0  0  0  0  0
   -1.8165   -0.1188   -0.0316 C   0  0  0  0  0  0  0  0  0  0  0  0
   -0.7802    0.6269    0.8505 C   0  0  0  0  0  0  0  0  0  0  0  0
    0.5121    0.5154    0.2852 O   0  0  0  0  0  0  0  0  0  0  0  0
   -1.5057    1.9817    0.5568 C   0  0  0  0  0  0  0  0  0  0  0  0
   -2.6556    2.3708    1.5123 C   0  0  0  0  0  0  0  0  0  0  0  0
   -3.2556    1.1564    1.9935 O   0  0  0  0  0  0  0  0  0  0  0  0
   -3.6405    1.6350    0.7012 C   0  0  0  0  0  0  0  0  0  0  0  0
   -3.6123    0.9763   -2.2040 H   0  0  0  0  0  0  0  0  0  0  0  0
   -3.1872    2.6532   -1.8296 H   0  0  0  0  0  0  0  0  0  0  0  0
   -1.9379    1.5260   -2.3818 H   0  0  0  0  0  0  0  0  0  0  0  0
   -2.4023   -0.8863    0.4761 H   0  0  0  0  0  0  0  0  0  0  0  0
   -1.3351   -0.5438   -0.9158 H   0  0  0  0  0  0  0  0  0  0  0  0
   -0.7869    0.3360    1.9070 H   0  0  0  0  0  0  0  0  0  0  0  0
    1.1176    1.0352    0.8240 H   0  0  0  0  0  0  0  0  0  0  0  0
   -0.9051    2.7964    0.1501 H   0  0  0  0  0  0  0  0  0  0  0  0
   -2.7589    3.2449    2.1458 H   0  0  0  0  0  0  0  0  0  0  0  0
   -4.7007    1.7975    0.5335 H   0  0  0  0  0  0  0  0  0  0  0  0
  1  2  1  0
  2  3  1  0
  3  4  1  0
  4  5  1  0
  4  6  1  0
  6  7  1  0
  7  8  1  0
  8  9  1  0
  6  2  1  0
  9  7  1  0
  9  2  1  0
  1 10  1  0
  1 11  1  0
  1 12  1  0
  3 13  1  0
  3 14  1  0
  4 15  1  0
  5 16  1  0
  6 17  1  0
  7 18  1  0
  9 19  1  0
M  END
$$$$
