
     RDKit          3D

 19 19  0  0  0  0  0  0  0  0999 V2000
    0.6444   -0.6878    0.6560 C   0  0  0  0  0  0  0  0  0  0  0  0
    0.9297    0.1974   -0.5707 C   0  0  0  0  0  0  0  0  0  0  0  0
    1.7908    1.3774   -0.2429 C   0  0  0  0  0  0  0  0  0  0  0  0
    3.0585    1.6697   -0.5650 C   0  0  0  0  0  0  0  0  0  0  0  0
    4.0481    0.9049   -1.3788 C   0  0  0  0  0  0  0  0  0  0  0  0
    3.4104    2.9995    0.0489 C   0  0  0  0  0  0  0  0  0  0  0  0
    2.2435    3.4313    0.7392 O   0  0  0  0  0  0  0  0  0  0  0  0
    1.2562    2.4901    0.5849 C   0  0  0  0  0  0  0  0  0  0  0  0
    0.1641    2.6187    1.0670 O   0  0  0  0  0  0  0  0  0  0  0  0
   -0.0127   -1.5193    0.3846 H   0  0  0  0  0  0  0  0  0  0  0  0
    1.5701   -1.1048    1.0652 H   0  0  0  0  0  0  0  0  0  0  0  0
    0.1541   -0.1039    1.4385 H   0  0  0  0  0  0  0  0  0  0  0  0
    1.3941   -0.3973   -1.3642 H   0  0  0  0  0  0  0  0  0  0  0  0
   -0.0243    0.5676   -0.9648 H   0  0  0  0  0  0  0  0  0  0  0  0
    4.9340    0.6527   -0.7829 H   0  0  0  0  0  0  0  0  0  0  0  0
    3.6255   -0.0241   -1.7667 H   0  0  0  0  0  0  0  0  0  0  0  0
    4.4017    1.5010   -2.2291 H   0  0  0  0  0  0  0  0  0  0  0  0
    4.2438    2.9256    0.7603 H   0  0  0  0  0  0  0  0  0  0  0  0
    3.6811    3.7503   -0.7055 H   0  0  0  0  0  0  0  0  0  0  0  0
  1  2  1  0
  2  3  1  0
  3  4  2  0
  4  5  1  0
  4  6  1  0
  6  7  1  0
  7  8  1  0
  8  9  2  0
  8  3  1  0
  1 10  1  0
  1 11  1  0
  1 12  1  0
  2 13  1  0
  2 14  1  0
  5 15  1  0
  5 16  1  0
  5 17  1  0
  6 18  1  0
  6 19  1  0
M  END
$$$$
