gdb 4346	2.6886262	1.3042425	0.9436672	4.7659	76.31	-0.23164	-0.06889	0.16275	1251.7999	0.156488	-422.604523	-422.595655	-422.594711	-422.638428	32.734
 OpenBabel02181911413D

 19 19  0  0  1  0  0  0  0  0999 V2000
   -2.8275    2.5309    0.9815 C   0  0  0  0  0  0  0  0  0  0  0  0
   -1.9206    1.2985    1.0514 C   0  0  1  0  0  0  0  0  0  0  0  0
   -2.7290   -0.0056    1.1302 C   0  0  0  0  0  0  0  0  0  0  0  0
   -1.8245   -1.2435    1.2684 C   0  0  0  0  0  0  0  0  0  0  0  0
   -0.7672   -1.3187    0.1808 C   0  0  0  0  0  0  0  0  0  0  0  0
   -0.4600   -2.3293   -0.3991 O   0  0  0  0  0  0  0  0  0  0  0  0
   -0.0614    0.0259   -0.1517 C   0  0  0  0  0  0  0  0  0  0  0  0
    1.1199    0.0507   -0.3892 O   0  0  0  0  0  0  0  0  0  0  0  0
   -0.9578    1.2509   -0.1545 C   0  0  0  0  0  0  0  0  0  0  0  0
   -3.4840    2.5865    1.8557 H   0  0  0  0  0  0  0  0  0  0  0  0
   -2.2405    3.4538    0.9426 H   0  0  0  0  0  0  0  0  0  0  0  0
   -3.4614    2.5007    0.0877 H   0  0  0  0  0  0  0  0  0  0  0  0
   -1.3118    1.3733    1.9645 H   0  0  0  0  0  0  0  0  0  0  0  0
   -3.4206    0.0331    1.9786 H   0  0  0  0  0  0  0  0  0  0  0  0
   -3.3494   -0.1009    0.2286 H   0  0  0  0  0  0  0  0  0  0  0  0
   -1.2852   -1.1846    2.2263 H   0  0  0  0  0  0  0  0  0  0  0  0
   -2.3887   -2.1799    1.2719 H   0  0  0  0  0  0  0  0  0  0  0  0
   -0.3273    2.1423   -0.2204 H   0  0  0  0  0  0  0  0  0  0  0  0
   -1.5587    1.2062   -1.0769 H   0  0  0  0  0  0  0  0  0  0  0  0
  1  2  1  0  0  0  0
  1 10  1  0  0  0  0
  2  3  1  0  0  0  0
  2 13  1  1  0  0  0
  3  4  1  0  0  0  0
  3 14  1  0  0  0  0
  4 17  1  0  0  0  0
  4 16  1  0  0  0  0
  5  4  1  0  0  0  0
  6  5  2  0  0  0  0
  7  5  1  0  0  0  0
  8  7  2  0  0  0  0
  9  7  1  0  0  0  0
  9  2  1  0  0  0  0
 11  1  1  0  0  0  0
 12  1  1  0  0  0  0
 15  3  1  0  0  0  0
 18  9  1  0  0  0  0
 19  9  1  0  0  0  0
M TOR 0 0 1 2 3
M TOR 1 0 1 2 13
M TOR 2 0 1 2 14
M TOR 3 0 1 8 6
M TOR 4 0 1 8 17
M TOR 5 0 1 8 18
M TOR 6 1 2 3 4
M TOR 7 1 2 3 15
M TOR 8 1 2 3 16
M TOR 9 1 8 6 4
M TOR 10 1 8 6 7
M TOR 11 2 1 0 9
M TOR 12 2 1 0 10
M TOR 13 2 1 0 11
M TOR 14 2 1 8 6
M TOR 15 2 1 8 17
M TOR 16 2 1 8 18
M TOR 17 2 3 4 5
M TOR 18 2 3 4 6
M TOR 19 3 2 1 8
M TOR 20 3 2 1 12
M TOR 21 3 4 6 7
M TOR 22 3 4 6 8
M TOR 23 4 3 2 13
M TOR 24 4 3 2 14
M TOR 25 4 6 8 17
M TOR 26 4 6 8 18
M TOR 27 5 4 3 15
M TOR 28 5 4 3 16
M TOR 29 5 4 6 7
M TOR 30 5 4 6 8
M TOR 31 6 4 3 15
M TOR 32 6 4 3 16
M TOR 33 6 8 1 12
M TOR 34 7 6 8 17
M TOR 35 7 6 8 18
M TOR 36 8 1 0 9
M TOR 37 8 1 0 10
M TOR 38 8 1 0 11
M TOR 39 8 1 2 13
M TOR 40 8 1 2 14
M  END
$$$$
