gdb 3546	2.5434213	1.5261714	1.1321749	3.2708	75.34	-0.23836	-0.02637	0.21198999999999998	1126.8841	0.155721	-422.580963	-422.572177	-422.571233	-422.614134	33.114
 OpenBabel02181911413D

 19 20  0  0  1  0  0  0  0  0999 V2000
   -3.1708   -1.2263    1.1800 C   0  0  0  0  0  0  0  0  0  0  0  0
   -2.1896   -0.7538    0.1047 C   0  0  2  0  0  0  0  0  0  0  0  0
   -0.7389   -1.2564    0.3112 C   0  0  0  0  0  0  0  0  0  0  0  0
    0.1643   -0.1406   -0.2217 C   0  0  0  0  0  0  0  0  0  0  0  0
    1.2668   -0.2597   -0.6919 O   0  0  0  0  0  0  0  0  0  0  0  0
   -0.6283    1.1365   -0.1393 C   0  0  2  0  0  0  0  0  0  0  0  0
   -1.2852    1.2724    1.1393 O   0  0  0  0  0  0  0  0  0  0  0  0
   -2.0518    0.7738    0.0384 C   0  0  2  0  0  0  0  0  0  0  0  0
   -3.1904    1.6348   -0.4352 C   0  0  0  0  0  0  0  0  0  0  0  0
   -3.1908   -2.3190    1.2353 H   0  0  0  0  0  0  0  0  0  0  0  0
   -2.8736   -0.8413    2.1608 H   0  0  0  0  0  0  0  0  0  0  0  0
   -4.1910   -0.8868    0.9749 H   0  0  0  0  0  0  0  0  0  0  0  0
   -2.5423   -1.0919   -0.8786 H   0  0  0  0  0  0  0  0  0  0  0  0
   -0.5243   -1.3940    1.3771 H   0  0  0  0  0  0  0  0  0  0  0  0
   -0.5200   -2.1984   -0.1946 H   0  0  0  0  0  0  0  0  0  0  0  0
   -0.2760    2.0505   -0.6073 H   0  0  0  0  0  0  0  0  0  0  0  0
   -4.0643    1.5139    0.2134 H   0  0  0  0  0  0  0  0  0  0  0  0
   -2.9046    2.6892   -0.4250 H   0  0  0  0  0  0  0  0  0  0  0  0
   -3.4855    1.3593   -1.4528 H   0  0  0  0  0  0  0  0  0  0  0  0
  1 10  1  0  0  0  0
  1 11  1  0  0  0  0
  2 13  1  6  0  0  0
  2  3  1  0  0  0  0
  2  1  1  0  0  0  0
  3 14  1  0  0  0  0
  4  6  1  0  0  0  0
  4  3  1  0  0  0  0
  5  4  2  0  0  0  0
  6 16  1  6  0  0  0
  6  8  1  0  0  0  0
  6  7  1  0  0  0  0
  8  9  1  6  0  0  0
  8  2  1  0  0  0  0
  8  7  1  0  0  0  0
  9 18  1  0  0  0  0
  9 17  1  0  0  0  0
 12  1  1  0  0  0  0
 15  3  1  0  0  0  0
 19  9  1  0  0  0  0
M TOR 0 0 1 2 3
M TOR 1 0 1 2 13
M TOR 2 0 1 2 14
M TOR 3 0 1 7 5
M TOR 4 0 1 7 6
M TOR 5 0 1 7 8
M TOR 6 1 2 3 4
M TOR 7 1 2 3 5
M TOR 8 1 7 5 3
M TOR 9 1 7 5 6
M TOR 10 1 7 5 15
M TOR 11 1 7 8 16
M TOR 12 1 7 8 17
M TOR 13 1 7 8 18
M TOR 14 2 1 0 9
M TOR 15 2 1 0 10
M TOR 16 2 1 0 11
M TOR 17 2 1 7 5
M TOR 18 2 1 7 6
M TOR 19 2 1 7 8
M TOR 20 2 3 5 6
M TOR 21 2 3 5 7
M TOR 22 2 3 5 15
M TOR 23 3 2 1 7
M TOR 24 3 2 1 12
M TOR 25 3 5 6 7
M TOR 26 3 5 7 8
M TOR 27 4 3 2 13
M TOR 28 4 3 2 14
M TOR 29 4 3 5 6
M TOR 30 4 3 5 7
M TOR 31 4 3 5 15
M TOR 32 5 3 2 13
M TOR 33 5 3 2 14
M TOR 34 5 6 7 8
M TOR 35 5 7 1 12
M TOR 36 5 7 8 16
M TOR 37 5 7 8 17
M TOR 38 5 7 8 18
M TOR 39 6 7 1 12
M TOR 40 6 7 5 15
M TOR 41 6 7 8 16
M TOR 42 6 7 8 17
M TOR 43 6 7 8 18
M TOR 44 7 1 0 9
M TOR 45 7 1 0 10
M TOR 46 7 1 0 11
M TOR 47 7 1 2 13
M TOR 48 7 1 2 14
M TOR 49 8 7 1 12
M TOR 50 8 7 5 15
M  END
$$$$
