
     RDKit          3D

 19 21  0  0  0  0  0  0  0  0999 V2000
   -0.2359   -3.8990   -1.3169 C   0  0  0  0  0  0  0  0  0  0  0  0
   -0.9844   -3.5861   -0.1403 O   0  0  0  0  0  0  0  0  0  0  0  0
   -1.1002   -2.7149   -1.2654 C   0  0  0  0  0  0  0  0  0  0  0  0
   -0.5412   -1.3231   -1.1402 C   0  0  0  0  0  0  0  0  0  0  0  0
    0.5263   -1.0628   -0.0542 C   0  0  0  0  0  0  0  0  0  0  0  0
   -0.5121   -0.1026    0.5128 C   0  0  0  0  0  0  0  0  0  0  0  0
   -0.9075    0.1820    1.9198 C   0  0  0  0  0  0  0  0  0  0  0  0
   -0.3533    1.2893    1.0277 C   0  0  0  0  0  0  0  0  0  0  0  0
   -1.4789   -0.4251   -0.4918 O   0  0  0  0  0  0  0  0  0  0  0  0
    0.8437   -3.7828   -1.2251 H   0  0  0  0  0  0  0  0  0  0  0  0
   -0.5621   -4.7832   -1.8617 H   0  0  0  0  0  0  0  0  0  0  0  0
   -2.0696   -2.7582   -1.7640 H   0  0  0  0  0  0  0  0  0  0  0  0
   -0.2834   -0.9490   -2.1406 H   0  0  0  0  0  0  0  0  0  0  0  0
    0.7306   -1.9314    0.5736 H   0  0  0  0  0  0  0  0  0  0  0  0
    1.4565   -0.6120   -0.4028 H   0  0  0  0  0  0  0  0  0  0  0  0
   -1.9700    0.2033    2.1370 H   0  0  0  0  0  0  0  0  0  0  0  0
   -0.2866   -0.2038    2.7220 H   0  0  0  0  0  0  0  0  0  0  0  0
   -1.0551    2.0326    0.6648 H   0  0  0  0  0  0  0  0  0  0  0  0
    0.6474    1.6631    1.2208 H   0  0  0  0  0  0  0  0  0  0  0  0
  1  2  1  0
  2  3  1  0
  3  4  1  0
  4  5  1  0
  5  6  1  0
  6  7  1  0
  7  8  1  0
  6  9  1  0
  3  1  1  0
  9  4  1  0
  8  6  1  0
  1 10  1  0
  1 11  1  0
  3 12  1  0
  4 13  1  0
  5 14  1  0
  5 15  1  0
  7 16  1  0
  7 17  1  0
  8 18  1  0
  8 19  1  0
M  END
$$$$
