
     RDKit          3D

 19 20  0  0  0  0  0  0  0  0999 V2000
   -0.4568   -0.4242    0.4252 O   0  0  0  0  0  0  0  0  0  0  0  0
    0.1187    0.8241    0.0568 C   0  0  0  0  0  0  0  0  0  0  0  0
   -0.4519    1.2319   -1.2734 C   0  0  0  0  0  0  0  0  0  0  0  0
    0.3728    2.0884   -2.2030 C   0  0  0  0  0  0  0  0  0  0  0  0
    0.0882    0.6531   -2.5752 C   0  0  0  0  0  0  0  0  0  0  0  0
   -1.0628    0.3966   -3.5244 C   0  0  0  0  0  0  0  0  0  0  0  0
   -2.2813    1.0712   -2.8717 C   0  0  0  0  0  0  0  0  0  0  0  0
   -3.3157    1.3312   -3.4278 O   0  0  0  0  0  0  0  0  0  0  0  0
   -1.9593    1.3617   -1.4001 C   0  0  0  0  0  0  0  0  0  0  0  0
   -0.2428   -0.5953    1.3469 H   0  0  0  0  0  0  0  0  0  0  0  0
   -0.1017    1.5954    0.8124 H   0  0  0  0  0  0  0  0  0  0  0  0
    1.2151    0.7477   -0.0224 H   0  0  0  0  0  0  0  0  0  0  0  0
   -0.1238    2.8830   -2.7539 H   0  0  0  0  0  0  0  0  0  0  0  0
    1.3846    2.3332   -1.8966 H   0  0  0  0  0  0  0  0  0  0  0  0
    0.9099   -0.0534   -2.5453 H   0  0  0  0  0  0  0  0  0  0  0  0
   -0.9220    0.7773   -4.5407 H   0  0  0  0  0  0  0  0  0  0  0  0
   -1.2766   -0.6769   -3.6088 H   0  0  0  0  0  0  0  0  0  0  0  0
   -2.3679    2.3347   -1.1098 H   0  0  0  0  0  0  0  0  0  0  0  0
   -2.4493    0.5981   -0.7832 H   0  0  0  0  0  0  0  0  0  0  0  0
  1  2  1  0
  2  3  1  0
  3  4  1  0
  4  5  1  0
  5  6  1  0
  6  7  1  0
  7  8  2  0
  7  9  1  0
  5  3  1  0
  9  3  1  0
  1 10  1  0
  2 11  1  0
  2 12  1  0
  4 13  1  0
  4 14  1  0
  5 15  1  0
  6 16  1  0
  6 17  1  0
  9 18  1  0
  9 19  1  0
M  END
$$$$
