
     RDKit          3D

 19 20  0  0  0  0  0  0  0  0999 V2000
   -2.0499    0.5437    0.8052 C   0  0  0  0  0  0  0  0  0  0  0  0
   -2.9114   -0.0082   -0.1873 O   0  0  0  0  0  0  0  0  0  0  0  0
   -2.2775   -0.3902   -1.4177 C   0  0  0  0  0  0  0  0  0  0  0  0
   -2.0393    0.8564   -2.3050 C   0  0  0  0  0  0  0  0  0  0  0  0
   -1.5786    2.0691   -1.4833 C   0  0  0  0  0  0  0  0  0  0  0  0
   -0.4801    1.8460   -0.6073 O   0  0  0  0  0  0  0  0  0  0  0  0
   -0.6105    0.7582    0.3156 C   0  0  0  0  0  0  0  0  0  0  0  0
   -0.1391   -0.5476   -0.2930 C   0  0  0  0  0  0  0  0  0  0  0  0
   -0.9760   -1.1184   -1.1523 C   0  0  0  0  0  0  0  0  0  0  0  0
   -2.4821    1.4949    1.1415 H   0  0  0  0  0  0  0  0  0  0  0  0
   -2.0148   -0.1351    1.6682 H   0  0  0  0  0  0  0  0  0  0  0  0
   -2.9963   -1.0555   -1.9035 H   0  0  0  0  0  0  0  0  0  0  0  0
   -1.3112    0.6104   -3.0853 H   0  0  0  0  0  0  0  0  0  0  0  0
   -2.9736    1.1415   -2.8027 H   0  0  0  0  0  0  0  0  0  0  0  0
   -1.2510    2.8711   -2.1517 H   0  0  0  0  0  0  0  0  0  0  0  0
   -2.4410    2.4498   -0.9184 H   0  0  0  0  0  0  0  0  0  0  0  0
    0.0067    1.0405    1.1740 H   0  0  0  0  0  0  0  0  0  0  0  0
    0.8202   -0.9692   -0.0136 H   0  0  0  0  0  0  0  0  0  0  0  0
   -0.7671   -2.0496   -1.6693 H   0  0  0  0  0  0  0  0  0  0  0  0
  1  2  1  0
  2  3  1  0
  3  4  1  0
  4  5  1  0
  5  6  1  0
  6  7  1  0
  7  8  1  0
  8  9  2  0
  7  1  1  0
  9  3  1  0
  1 10  1  0
  1 11  1  0
  3 12  1  0
  4 13  1  0
  4 14  1  0
  5 15  1  0
  5 16  1  0
  7 17  1  0
  8 18  1  0
  9 19  1  0
M  END
$$$$
