gdb 929	4.5757925	0.9481068	0.9185184	3.8879	75.98	-0.24275	-0.01807	0.22468	1310.8957	0.157462	-422.546825	-422.538845	-422.5379	-422.580323	30.017
 OpenBabel02181911403D

 19 20  0  0  1  0  0  0  0  0999 V2000
    1.2134   -0.5928   -0.1476 O   0  0  0  0  0  0  0  0  0  0  0  0
    0.1062   -0.1176   -0.1631 C   0  0  0  0  0  0  0  0  0  0  0  0
   -0.4082    0.8153   -1.2409 C   0  0  0  0  0  0  0  0  0  0  0  0
   -0.9233    2.1339   -0.6565 C   0  0  2  0  0  0  0  0  0  0  0  0
   -1.9761    1.8996    0.3145 O   0  0  0  0  0  0  0  0  0  0  0  0
   -3.0365    2.7370   -0.1865 C   0  0  2  0  0  0  0  0  0  0  0  0
   -3.0662    2.4114   -1.6980 C   0  0  0  0  0  0  0  0  0  0  0  0
   -1.6593    3.0882   -1.6144 C   0  0  1  0  0  0  0  0  0  0  0  0
   -2.3065    4.0488   -0.5634 C   0  0  0  0  0  0  0  0  0  0  0  0
   -0.6305   -0.3398    0.6377 H   0  0  0  0  0  0  0  0  0  0  0  0
    0.4009    1.0033   -1.9533 H   0  0  0  0  0  0  0  0  0  0  0  0
   -1.2261    0.3023   -1.7626 H   0  0  0  0  0  0  0  0  0  0  0  0
   -0.0903    2.6484   -0.1583 H   0  0  0  0  0  0  0  0  0  0  0  0
   -3.8961    2.6739    0.4781 H   0  0  0  0  0  0  0  0  0  0  0  0
   -3.1418    1.3618   -1.9883 H   0  0  0  0  0  0  0  0  0  0  0  0
   -3.7812    3.0171   -2.2564 H   0  0  0  0  0  0  0  0  0  0  0  0
   -1.1146    3.4433   -2.4880 H   0  0  0  0  0  0  0  0  0  0  0  0
   -1.6613    4.4981    0.1953 H   0  0  0  0  0  0  0  0  0  0  0  0
   -2.9588    4.7960   -1.0176 H   0  0  0  0  0  0  0  0  0  0  0  0
  2  1  2  0  0  0  0
  2 10  1  0  0  0  0
  3  4  1  0  0  0  0
  3  2  1  0  0  0  0
  4 13  1  1  0  0  0
  4  5  1  0  0  0  0
  6  5  1  0  0  0  0
  6 14  1  1  0  0  0
  7  8  1  0  0  0  0
  7  6  1  0  0  0  0
  8 17  1  6  0  0  0
  8  4  1  0  0  0  0
  8  9  1  0  0  0  0
  9  6  1  0  0  0  0
  9 18  1  0  0  0  0
 11  3  1  0  0  0  0
 12  3  1  0  0  0  0
 15  7  1  0  0  0  0
 16  7  1  0  0  0  0
 19  9  1  0  0  0  0
M TOR 0 0 1 2 3
M TOR 1 0 1 2 10
M TOR 2 0 1 2 11
M TOR 3 1 2 3 4
M TOR 4 1 2 3 7
M TOR 5 1 2 3 12
M TOR 6 2 3 4 5
M TOR 7 2 3 7 6
M TOR 8 2 3 7 8
M TOR 9 2 3 7 16
M TOR 10 3 2 1 9
M TOR 11 3 4 5 6
M TOR 12 3 4 5 8
M TOR 13 3 4 5 13
M TOR 14 3 7 6 5
M TOR 15 3 7 6 14
M TOR 16 3 7 6 15
M TOR 17 3 7 8 5
M TOR 18 3 7 8 17
M TOR 19 3 7 8 18
M TOR 20 4 3 2 10
M TOR 21 4 3 2 11
M TOR 22 4 3 7 6
M TOR 23 4 3 7 8
M TOR 24 4 3 7 16
M TOR 25 4 5 6 7
M TOR 26 4 5 6 14
M TOR 27 4 5 6 15
M TOR 28 4 5 8 7
M TOR 29 4 5 8 17
M TOR 30 4 5 8 18
M TOR 31 5 4 3 7
M TOR 32 5 4 3 12
M TOR 33 5 6 7 8
M TOR 34 5 6 7 16
M TOR 35 5 8 7 16
M TOR 36 6 5 8 17
M TOR 37 6 5 8 18
M TOR 38 6 7 3 12
M TOR 39 6 7 8 17
M TOR 40 6 7 8 18
M TOR 41 7 3 2 10
M TOR 42 7 3 2 11
M TOR 43 7 6 5 13
M TOR 44 7 8 5 13
M TOR 45 8 5 6 14
M TOR 46 8 5 6 15
M TOR 47 8 7 3 12
M TOR 48 8 7 6 14
M TOR 49 8 7 6 15
M  END
$$$$
