gdb 2529	2.7022507	1.3291207	1.1116642	4.4886	78.98	-0.26227	-0.03265	0.22962	1192.5667	0.155124	-422.627178	-422.61778	-422.616835	-422.660982	34.624
 OpenBabel02181911413D

 19 19  0  0  0  0  0  0  0  0999 V2000
    1.3249    0.9198    0.6257 C   0  0  0  0  0  0  0  0  0  0  0  0
   -0.0294    0.3580    0.3536 C   0  0  0  0  0  0  0  0  0  0  0  0
   -1.2097    0.9473    0.1623 C   0  0  0  0  0  0  0  0  0  0  0  0
   -2.2844   -0.0837   -0.0781 C   0  0  0  0  0  0  0  0  0  0  0  0
   -2.9010    0.0244   -1.4775 C   0  0  0  0  0  0  0  0  0  0  0  0
   -3.3579   -0.0812    1.0162 C   0  0  0  0  0  0  0  0  0  0  0  0
   -1.5679   -1.3379    0.0001 O   0  0  0  0  0  0  0  0  0  0  0  0
   -0.2434   -1.1139    0.2521 C   0  0  0  0  0  0  0  0  0  0  0  0
    0.5606   -1.9985    0.3617 O   0  0  0  0  0  0  0  0  0  0  0  0
    1.7143    0.5387    1.5758 H   0  0  0  0  0  0  0  0  0  0  0  0
    2.0336    0.6026   -0.1467 H   0  0  0  0  0  0  0  0  0  0  0  0
    1.3094    2.0114    0.6635 H   0  0  0  0  0  0  0  0  0  0  0  0
   -1.4223    2.0098    0.1682 H   0  0  0  0  0  0  0  0  0  0  0  0
   -3.6060   -0.7952   -1.6411 H   0  0  0  0  0  0  0  0  0  0  0  0
   -3.4385    0.9714   -1.5858 H   0  0  0  0  0  0  0  0  0  0  0  0
   -2.1230   -0.0250   -2.2433 H   0  0  0  0  0  0  0  0  0  0  0  0
   -4.0622   -0.9015    0.8525 H   0  0  0  0  0  0  0  0  0  0  0  0
   -2.9007   -0.2036    2.0011 H   0  0  0  0  0  0  0  0  0  0  0  0
   -3.9138    0.8613    1.0035 H   0  0  0  0  0  0  0  0  0  0  0  0
  1 12  1  0  0  0  0
  1 10  1  0  0  0  0
  2  1  1  0  0  0  0
  3 13  1  0  0  0  0
  3  2  2  0  0  0  0
  4  7  1  0  0  0  0
  4  3  1  0  0  0  0
  4  6  1  0  0  0  0
  5  4  1  0  0  0  0
  6 18  1  0  0  0  0
  7  8  1  0  0  0  0
  8  2  1  0  0  0  0
  8  9  2  0  0  0  0
 11  1  1  0  0  0  0
 14  5  1  0  0  0  0
 15  5  1  0  0  0  0
 16  5  1  0  0  0  0
 17  6  1  0  0  0  0
 19  6  1  0  0  0  0
M TOR 0 0 1 2 3
M TOR 1 0 1 2 12
M TOR 2 0 1 7 6
M TOR 3 0 1 7 8
M TOR 4 1 2 3 4
M TOR 5 1 2 3 5
M TOR 6 1 2 3 6
M TOR 7 1 7 6 3
M TOR 8 2 1 0 9
M TOR 9 2 1 0 10
M TOR 10 2 1 0 11
M TOR 11 2 1 7 6
M TOR 12 2 1 7 8
M TOR 13 2 3 4 13
M TOR 14 2 3 4 14
M TOR 15 2 3 4 15
M TOR 16 2 3 5 16
M TOR 17 2 3 5 17
M TOR 18 2 3 5 18
M TOR 19 2 3 6 7
M TOR 20 3 2 1 7
M TOR 21 3 6 7 8
M TOR 22 4 3 2 12
M TOR 23 4 3 5 16
M TOR 24 4 3 5 17
M TOR 25 4 3 5 18
M TOR 26 4 3 6 7
M TOR 27 5 3 2 12
M TOR 28 5 3 4 13
M TOR 29 5 3 4 14
M TOR 30 5 3 4 15
M TOR 31 5 3 6 7
M TOR 32 6 3 2 12
M TOR 33 6 3 4 13
M TOR 34 6 3 4 14
M TOR 35 6 3 4 15
M TOR 36 6 3 5 16
M TOR 37 6 3 5 17
M TOR 38 6 3 5 18
M TOR 39 7 1 0 9
M TOR 40 7 1 0 10
M TOR 41 7 1 0 11
M TOR 42 7 1 2 12
M  END
$$$$
