gdb 5481	3.0989389	1.2281908	1.089912	0.9892	74.68	-0.22791	0.05408	0.28199	1189.3594	0.154907	-422.473296	-422.46458	-422.463636	-422.506422	33.399
 OpenBabel02181911423D

 19 21  0  0  1  0  0  0  0  0999 V2000
    1.2917   -0.2767    1.1525 C   0  0  0  0  0  0  0  0  0  0  0  0
    1.1093    0.2637   -0.2712 C   0  0  0  0  0  0  0  0  0  0  0  0
    1.9172   -0.5115   -1.2949 C   0  0  2  0  0  0  0  0  0  0  0  0
    1.4569   -0.4306   -2.7433 C   0  0  1  0  0  0  0  0  0  0  0  0
    2.4077   -1.2202   -3.6975 C   0  0  1  0  0  0  0  0  0  0  0  0
    3.4929   -1.7932   -2.9448 O   0  0  0  0  0  0  0  0  0  0  0  0
    2.2185   -2.4494   -2.9372 C   0  0  1  0  0  0  0  0  0  0  0  0
    1.2517   -1.6998   -1.9453 C   0  0  1  0  0  0  0  0  0  0  0  0
    0.0446   -2.2443   -1.5507 O   0  0  0  0  0  0  0  0  0  0  0  0
    0.9402   -1.3113    1.2335 H   0  0  0  0  0  0  0  0  0  0  0  0
    2.3456   -0.2629    1.4502 H   0  0  0  0  0  0  0  0  0  0  0  0
    0.7303    0.3209    1.8773 H   0  0  0  0  0  0  0  0  0  0  0  0
    0.0477    0.2354   -0.5399 H   0  0  0  0  0  0  0  0  0  0  0  0
    1.4139    1.3172   -0.3036 H   0  0  0  0  0  0  0  0  0  0  0  0
    2.9849   -0.5560   -1.1047 H   0  0  0  0  0  0  0  0  0  0  0  0
    0.7194    0.2864   -3.0790 H   0  0  0  0  0  0  0  0  0  0  0  0
    2.5732   -1.0434   -4.7532 H   0  0  0  0  0  0  0  0  0  0  0  0
    2.1685   -3.4911   -3.2333 H   0  0  0  0  0  0  0  0  0  0  0  0
    0.1893   -2.7447   -0.7389 H   0  0  0  0  0  0  0  0  0  0  0  0
  1 10  1  0  0  0  0
  1 11  1  0  0  0  0
  1 12  1  0  0  0  0
  2  1  1  0  0  0  0
  3 15  1  1  0  0  0
  3  2  1  0  0  0  0
  4 16  1  6  0  0  0
  4  8  1  0  0  0  0
  4  3  1  0  0  0  0
  5 17  1  6  0  0  0
  5  6  1  0  0  0  0
  5  7  1  0  0  0  0
  5  4  1  0  0  0  0
  6  7  1  0  0  0  0
  7 18  1  6  0  0  0
  7  8  1  0  0  0  0
  8  9  1  1  0  0  0
  8  3  1  0  0  0  0
  9 19  1  0  0  0  0
 13  2  1  0  0  0  0
 14  2  1  0  0  0  0
M TOR 0 0 1 2 3
M TOR 1 0 1 2 7
M TOR 2 0 1 2 14
M TOR 3 1 2 3 4
M TOR 4 1 2 3 7
M TOR 5 1 2 3 15
M TOR 6 1 2 7 6
M TOR 7 1 2 7 8
M TOR 8 2 1 0 9
M TOR 9 2 1 0 10
M TOR 10 2 1 0 11
M TOR 11 2 3 4 5
M TOR 12 2 3 4 6
M TOR 13 2 3 4 16
M TOR 14 2 3 7 6
M TOR 15 2 3 7 8
M TOR 16 2 7 3 4
M TOR 17 2 7 3 15
M TOR 18 2 7 6 4
M TOR 19 2 7 6 5
M TOR 20 2 7 6 17
M TOR 21 2 7 8 18
M TOR 22 3 2 1 12
M TOR 23 3 2 1 13
M TOR 24 3 4 5 6
M TOR 25 3 4 6 7
M TOR 26 3 4 6 17
M TOR 27 3 7 2 14
M TOR 28 3 7 6 5
M TOR 29 3 7 6 17
M TOR 30 3 7 8 18
M TOR 31 4 3 2 14
M TOR 32 4 3 7 8
M TOR 33 4 5 6 7
M TOR 34 4 5 6 17
M TOR 35 4 6 7 8
M TOR 36 5 4 3 7
M TOR 37 5 4 3 15
M TOR 38 5 6 4 16
M TOR 39 5 6 7 8
M TOR 40 6 4 3 15
M TOR 41 6 7 2 14
M TOR 42 6 7 3 15
M TOR 43 6 7 8 18
M TOR 44 7 2 1 12
M TOR 45 7 2 1 13
M TOR 46 7 3 4 16
M TOR 47 7 6 4 16
M TOR 48 8 7 2 14
M TOR 49 8 7 3 15
M TOR 50 8 7 6 17
M  END
$$$$
