gdb 1077	2.8125387	1.306644	1.1823168	2.914	77.53	-0.23854	-0.0208	0.21774	1146.3841	0.155251	-422.592523	-422.583173	-422.582229	-422.627113	34.328
 OpenBabel02181911403D

 19 19  0  0  1  0  0  0  0  0999 V2000
    1.9377    1.3653   -0.1211 C   0  0  0  0  0  0  0  0  0  0  0  0
    1.4765   -0.0243    0.2634 C   0  0  0  0  0  0  0  0  0  0  0  0
    1.5615   -0.4436    1.3938 O   0  0  0  0  0  0  0  0  0  0  0  0
    0.8472   -0.8861   -0.8547 C   0  0  1  0  0  0  0  0  0  0  0  0
    1.4518   -0.4537   -2.0788 O   0  0  0  0  0  0  0  0  0  0  0  0
    0.9878   -2.4093   -0.5854 C   0  0  0  0  0  0  0  0  0  0  0  0
   -0.4174   -3.0312   -0.7848 C   0  0  0  0  0  0  0  0  0  0  0  0
   -1.3242   -1.8324   -0.8805 C   0  0  0  0  0  0  0  0  0  0  0  0
   -0.6568   -0.6794   -0.8906 C   0  0  0  0  0  0  0  0  0  0  0  0
    2.2091    1.9184    0.7787 H   0  0  0  0  0  0  0  0  0  0  0  0
    2.7984    1.2895   -0.7924 H   0  0  0  0  0  0  0  0  0  0  0  0
    1.1625    1.8967   -0.6816 H   0  0  0  0  0  0  0  0  0  0  0  0
    0.9009   -0.7783   -2.7990 H   0  0  0  0  0  0  0  0  0  0  0  0
    1.7441   -2.8300   -1.2515 H   0  0  0  0  0  0  0  0  0  0  0  0
    1.3223   -2.5472    0.4440 H   0  0  0  0  0  0  0  0  0  0  0  0
   -0.4901   -3.6504   -1.6889 H   0  0  0  0  0  0  0  0  0  0  0  0
   -0.6965   -3.6854    0.0491 H   0  0  0  0  0  0  0  0  0  0  0  0
   -2.4039   -1.9213   -0.9455 H   0  0  0  0  0  0  0  0  0  0  0  0
   -1.0934    0.3101   -0.9683 H   0  0  0  0  0  0  0  0  0  0  0  0
  1  2  1  0  0  0  0
  1 10  1  0  0  0  0
  2  3  2  0  0  0  0
  4  5  1  6  0  0  0
  4  6  1  0  0  0  0
  4  2  1  0  0  0  0
  6 15  1  0  0  0  0
  7  6  1  0  0  0  0
  7 17  1  0  0  0  0
  8  7  1  0  0  0  0
  9  8  2  0  0  0  0
  9  4  1  0  0  0  0
 11  1  1  0  0  0  0
 12  1  1  0  0  0  0
 13  5  1  0  0  0  0
 14  6  1  0  0  0  0
 16  7  1  0  0  0  0
 18  8  1  0  0  0  0
 19  9  1  0  0  0  0
M TOR 0 0 1 3 4
M TOR 1 0 1 3 5
M TOR 2 0 1 3 8
M TOR 3 1 3 4 12
M TOR 4 1 3 5 6
M TOR 5 1 3 5 13
M TOR 6 1 3 5 14
M TOR 7 1 3 8 7
M TOR 8 1 3 8 18
M TOR 9 2 1 0 9
M TOR 10 2 1 0 10
M TOR 11 2 1 0 11
M TOR 12 2 1 3 4
M TOR 13 2 1 3 5
M TOR 14 2 1 3 8
M TOR 15 3 1 0 9
M TOR 16 3 1 0 10
M TOR 17 3 1 0 11
M TOR 18 3 5 6 7
M TOR 19 3 5 6 15
M TOR 20 3 5 6 16
M TOR 21 3 8 7 6
M TOR 22 3 8 7 17
M TOR 23 4 3 5 6
M TOR 24 4 3 5 13
M TOR 25 4 3 5 14
M TOR 26 4 3 8 7
M TOR 27 4 3 8 18
M TOR 28 5 3 4 12
M TOR 29 5 3 8 7
M TOR 30 5 3 8 18
M TOR 31 5 6 7 8
M TOR 32 5 6 7 17
M TOR 33 6 5 3 8
M TOR 34 6 7 8 18
M TOR 35 7 6 5 13
M TOR 36 7 6 5 14
M TOR 37 8 3 4 12
M TOR 38 8 3 5 13
M TOR 39 8 3 5 14
M TOR 40 8 7 6 15
M TOR 41 8 7 6 16
M  END
$$$$
