
     RDKit          3D

 19 21  0  0  0  0  0  0  0  0999 V2000
    0.6885    0.6825    0.8955 O   0  0  0  0  0  0  0  0  0  0  0  0
   -0.7241    0.5023    0.8566 C   0  0  0  0  0  0  0  0  0  0  0  0
   -1.3424    0.5067    2.2925 C   0  0  0  0  0  0  0  0  0  0  0  0
   -1.5212    2.0073    2.6774 C   0  0  0  0  0  0  0  0  0  0  0  0
   -1.8058    2.6433    1.3398 C   0  0  0  0  0  0  0  0  0  0  0  0
   -2.7821    2.0697    0.3642 C   0  0  0  0  0  0  0  0  0  0  0  0
   -1.3036    1.7552    0.2290 C   0  0  0  0  0  0  0  0  0  0  0  0
   -0.5575    3.0121   -0.2321 C   0  0  0  0  0  0  0  0  0  0  0  0
   -1.1609    3.8191    0.8304 O   0  0  0  0  0  0  0  0  0  0  0  0
    1.0723   -0.0890    1.3231 H   0  0  0  0  0  0  0  0  0  0  0  0
   -0.9725   -0.4267    0.3220 H   0  0  0  0  0  0  0  0  0  0  0  0
   -2.3108   -0.0056    2.2822 H   0  0  0  0  0  0  0  0  0  0  0  0
   -0.7077   -0.0387    2.9985 H   0  0  0  0  0  0  0  0  0  0  0  0
   -2.2896    2.1512    3.4430 H   0  0  0  0  0  0  0  0  0  0  0  0
   -0.5802    2.4180    3.0554 H   0  0  0  0  0  0  0  0  0  0  0  0
   -3.4258    1.2671    0.7063 H   0  0  0  0  0  0  0  0  0  0  0  0
   -3.2354    2.7345   -0.3639 H   0  0  0  0  0  0  0  0  0  0  0  0
    0.5238    2.9388   -0.0996 H   0  0  0  0  0  0  0  0  0  0  0  0
   -0.7972    3.4071   -1.2261 H   0  0  0  0  0  0  0  0  0  0  0  0
  1  2  1  0
  2  3  1  0
  3  4  1  0
  4  5  1  0
  5  6  1  0
  6  7  1  0
  7  8  1  0
  8  9  1  0
  7  2  1  0
  7  5  1  0
  9  5  1  0
  1 10  1  0
  2 11  1  0
  3 12  1  0
  3 13  1  0
  4 14  1  0
  4 15  1  0
  6 16  1  0
  6 17  1  0
  8 18  1  0
  8 19  1  0
M  END
$$$$
