
     RDKit          3D

 19 20  0  0  0  0  0  0  0  0999 V2000
    1.4244    1.0988    0.1541 C   0  0  0  0  0  0  0  0  0  0  0  0
    1.0754   -0.3810   -0.0462 C   0  0  0  0  0  0  0  0  0  0  0  0
    1.6842   -0.9706   -1.3029 C   0  0  0  0  0  0  0  0  0  0  0  0
    1.9229   -2.4349   -1.3992 C   0  0  0  0  0  0  0  0  0  0  0  0
    2.2934   -2.7662   -2.7670 O   0  0  0  0  0  0  0  0  0  0  0  0
    3.4563   -2.0136   -2.6332 C   0  0  0  0  0  0  0  0  0  0  0  0
    4.3464   -1.9147   -3.4138 O   0  0  0  0  0  0  0  0  0  0  0  0
    3.1293   -1.5409   -1.2359 C   0  0  0  0  0  0  0  0  0  0  0  0
    4.1429   -1.3057   -0.1546 C   0  0  0  0  0  0  0  0  0  0  0  0
    0.9318    1.4995    1.0448 H   0  0  0  0  0  0  0  0  0  0  0  0
    2.5026    1.2440    0.2702 H   0  0  0  0  0  0  0  0  0  0  0  0
    1.1008    1.6961   -0.7047 H   0  0  0  0  0  0  0  0  0  0  0  0
    1.3824   -0.9616    0.8317 H   0  0  0  0  0  0  0  0  0  0  0  0
   -0.0138   -0.4941   -0.1146 H   0  0  0  0  0  0  0  0  0  0  0  0
    1.3890   -0.4733   -2.2251 H   0  0  0  0  0  0  0  0  0  0  0  0
    1.5218   -3.2303   -0.7860 H   0  0  0  0  0  0  0  0  0  0  0  0
    4.8028   -2.1715   -0.0405 H   0  0  0  0  0  0  0  0  0  0  0  0
    4.7693   -0.4422   -0.4012 H   0  0  0  0  0  0  0  0  0  0  0  0
    3.6708   -1.1130    0.8115 H   0  0  0  0  0  0  0  0  0  0  0  0
  1  2  1  0
  2  3  1  0
  3  4  1  0
  4  5  1  0
  5  6  1  0
  6  7  2  0
  6  8  1  0
  8  9  1  0
  8  3  1  0
  8  4  1  0
  1 10  1  0
  1 11  1  0
  1 12  1  0
  2 13  1  0
  2 14  1  0
  3 15  1  0
  4 16  1  0
  9 17  1  0
  9 18  1  0
  9 19  1  0
M  END
$$$$
