gdb 4561	2.9050606	1.1234861	0.8581259	1.4939	77.49	-0.24835	0.0486	0.29695	1325.3495	0.156961	-422.533749	-422.524882	-422.523938	-422.567035	33.791
 OpenBabel02181911413D

 19 19  0  0  1  0  0  0  0  0999 V2000
    0.1467    4.4820   -0.2370 O   0  0  0  0  0  0  0  0  0  0  0  0
   -0.2623    3.1562   -0.5315 C   0  0  2  0  0  0  0  0  0  0  0  0
   -1.7891    3.0537   -0.6383 C   0  0  0  0  0  0  0  0  0  0  0  0
   -2.2036    1.7364   -0.9531 O   0  0  0  0  0  0  0  0  0  0  0  0
   -1.8236    0.7985    0.0321 C   0  0  0  0  0  0  0  0  0  0  0  0
   -0.2863    0.7256    0.1780 C   0  0  1  0  0  0  0  0  0  0  0  0
    0.2628    2.1388    0.4866 C   0  0  0  0  0  0  0  0  0  0  0  0
    0.0956   -0.2487    1.1921 C   0  0  0  0  0  0  0  0  0  0  0  0
    0.3826   -1.0430    2.0477 C   0  0  0  0  0  0  0  0  0  0  0  0
   -0.1538    4.6946    0.6539 H   0  0  0  0  0  0  0  0  0  0  0  0
    0.1644    2.9366   -1.5173 H   0  0  0  0  0  0  0  0  0  0  0  0
   -2.2415    3.3843    0.3156 H   0  0  0  0  0  0  0  0  0  0  0  0
   -2.1613    3.7041   -1.4335 H   0  0  0  0  0  0  0  0  0  0  0  0
   -2.2670    1.0544    1.0088 H   0  0  0  0  0  0  0  0  0  0  0  0
   -2.2247   -0.1675   -0.2832 H   0  0  0  0  0  0  0  0  0  0  0  0
    0.1131    0.4043   -0.7936 H   0  0  0  0  0  0  0  0  0  0  0  0
   -0.0709    2.4321    1.4925 H   0  0  0  0  0  0  0  0  0  0  0  0
    1.3563    2.1380    0.4975 H   0  0  0  0  0  0  0  0  0  0  0  0
    0.6462   -1.7511    2.7939 H   0  0  0  0  0  0  0  0  0  0  0  0
  1 10  1  0  0  0  0
  2 11  1  6  0  0  0
  2  1  1  0  0  0  0
  2  7  1  0  0  0  0
  3  2  1  0  0  0  0
  3 12  1  0  0  0  0
  4  3  1  0  0  0  0
  4  5  1  0  0  0  0
  5  6  1  0  0  0  0
  5 14  1  0  0  0  0
  6 16  1  6  0  0  0
  6  7  1  0  0  0  0
  6  8  1  0  0  0  0
  7 18  1  0  0  0  0
  7 17  1  0  0  0  0
  8  9  3  0  0  0  0
  9 19  1  0  0  0  0
 13  3  1  0  0  0  0
 15  5  1  0  0  0  0
M TOR 0 0 1 2 3
M TOR 1 0 1 2 11
M TOR 2 0 1 2 12
M TOR 3 0 1 6 5
M TOR 4 0 1 6 16
M TOR 5 0 1 6 17
M TOR 6 1 2 3 4
M TOR 7 1 6 5 4
M TOR 8 1 6 5 7
M TOR 9 1 6 5 15
M TOR 10 2 1 0 9
M TOR 11 2 1 6 5
M TOR 12 2 1 6 16
M TOR 13 2 1 6 17
M TOR 14 2 3 4 5
M TOR 15 2 3 4 13
M TOR 16 2 3 4 14
M TOR 17 3 2 1 6
M TOR 18 3 2 1 10
M TOR 19 3 4 5 6
M TOR 20 3 4 5 7
M TOR 21 3 4 5 15
M TOR 22 4 3 2 11
M TOR 23 4 3 2 12
M TOR 24 4 5 6 16
M TOR 25 4 5 6 17
M TOR 26 4 5 7 8
M TOR 27 5 6 1 10
M TOR 28 5 7 8 18
M TOR 29 6 1 0 9
M TOR 30 6 1 2 11
M TOR 31 6 1 2 12
M TOR 32 6 5 4 13
M TOR 33 6 5 4 14
M TOR 34 6 5 7 8
M TOR 35 7 5 4 13
M TOR 36 7 5 4 14
M TOR 37 7 5 6 16
M TOR 38 7 5 6 17
M TOR 39 8 7 5 15
M  END
$$$$
