gdb 615	2.2208796	2.0962474	1.8103627	2.1579	73.99	-0.23808	0.00468	0.24276	900.9766	0.160764	-422.561168	-422.55424	-422.553296	-422.591972	28.484
 OpenBabel02181911403D

 19 20  0  0  1  0  0  0  0  0999 V2000
   -0.5411    2.3936   -0.1297 C   0  0  0  0  0  0  0  0  0  0  0  0
    0.6086    1.9912    0.6231 O   0  0  0  0  0  0  0  0  0  0  0  0
    1.4433    1.0208    0.0306 C   0  0  1  0  0  0  0  0  0  0  0  0
    0.9783   -0.3057    0.2794 O   0  0  0  0  0  0  0  0  0  0  0  0
   -0.4341   -0.4529    0.3114 C   0  0  0  0  0  0  0  0  0  0  0  0
   -1.1898    0.0558   -0.9303 C   0  0  0  0  0  0  0  0  0  0  0  0
   -0.7919    1.4952   -1.3533 C   0  0  2  0  0  0  0  0  0  0  0  0
    0.4964    1.4877   -2.1485 C   0  0  0  0  0  0  0  0  0  0  0  0
    1.6070    1.2579   -1.4574 C   0  0  0  0  0  0  0  0  0  0  0  0
   -1.3962    2.3676    0.5571 H   0  0  0  0  0  0  0  0  0  0  0  0
   -0.3977    3.4310   -0.4594 H   0  0  0  0  0  0  0  0  0  0  0  0
    2.3970    1.0882    0.5604 H   0  0  0  0  0  0  0  0  0  0  0  0
   -0.6074   -1.5260    0.4359 H   0  0  0  0  0  0  0  0  0  0  0  0
   -0.8317    0.0488    1.2040 H   0  0  0  0  0  0  0  0  0  0  0  0
   -1.0295   -0.6202   -1.7763 H   0  0  0  0  0  0  0  0  0  0  0  0
   -2.2598    0.0230   -0.6897 H   0  0  0  0  0  0  0  0  0  0  0  0
   -1.6051    1.9354   -1.9387 H   0  0  0  0  0  0  0  0  0  0  0  0
    0.4850    1.6608   -3.2198 H   0  0  0  0  0  0  0  0  0  0  0  0
    2.5995    1.2192   -1.8918 H   0  0  0  0  0  0  0  0  0  0  0  0
  1 10  1  0  0  0  0
  1  2  1  0  0  0  0
  3  4  1  0  0  0  0
  3 12  1  1  0  0  0
  3  2  1  0  0  0  0
  4  5  1  0  0  0  0
  5 13  1  0  0  0  0
  5 14  1  0  0  0  0
  6 16  1  0  0  0  0
  6  5  1  0  0  0  0
  7 17  1  6  0  0  0
  7  6  1  0  0  0  0
  7  1  1  0  0  0  0
  8  9  2  0  0  0  0
  8  7  1  0  0  0  0
  9  3  1  0  0  0  0
 11  1  1  0  0  0  0
 15  6  1  0  0  0  0
 18  8  1  0  0  0  0
 19  9  1  0  0  0  0
M TOR 0 0 1 2 3
M TOR 1 0 1 2 8
M TOR 2 0 1 2 11
M TOR 3 0 6 5 4
M TOR 4 0 6 5 14
M TOR 5 0 6 5 15
M TOR 6 0 6 7 8
M TOR 7 0 6 7 17
M TOR 8 1 0 6 5
M TOR 9 1 0 6 7
M TOR 10 1 0 6 16
M TOR 11 1 2 3 4
M TOR 12 1 2 8 7
M TOR 13 1 2 8 18
M TOR 14 2 1 0 6
M TOR 15 2 1 0 9
M TOR 16 2 1 0 10
M TOR 17 2 3 4 5
M TOR 18 2 3 4 12
M TOR 19 2 3 4 13
M TOR 20 2 8 7 6
M TOR 21 2 8 7 17
M TOR 22 3 2 8 7
M TOR 23 3 2 8 18
M TOR 24 3 4 5 6
M TOR 25 3 4 5 14
M TOR 26 3 4 5 15
M TOR 27 4 3 2 8
M TOR 28 4 3 2 11
M TOR 29 4 5 6 7
M TOR 30 4 5 6 16
M TOR 31 5 6 0 9
M TOR 32 5 6 0 10
M TOR 33 5 6 7 8
M TOR 34 5 6 7 17
M TOR 35 6 5 4 12
M TOR 36 6 5 4 13
M TOR 37 6 7 8 18
M TOR 38 7 6 0 9
M TOR 39 7 6 0 10
M TOR 40 7 6 5 14
M TOR 41 7 6 5 15
M TOR 42 7 8 2 11
M TOR 43 8 7 6 16
M  END
$$$$
