
     RDKit          3D

 19 21  0  0  0  0  0  0  0  0999 V2000
   -0.1371    0.0343    0.1830 C   0  0  0  0  0  0  0  0  0  0  0  0
    1.3584   -0.0595   -0.0436 C   0  0  0  0  0  0  0  0  0  0  0  0
    2.2967   -0.2660    1.2112 C   0  0  0  0  0  0  0  0  0  0  0  0
    1.9919    1.1018    1.6362 O   0  0  0  0  0  0  0  0  0  0  0  0
    2.2596    1.1934    0.1629 C   0  0  0  0  0  0  0  0  0  0  0  0
    2.7898    2.5382   -0.2377 C   0  0  0  0  0  0  0  0  0  0  0  0
    4.1141    2.5049    0.6002 C   0  0  0  0  0  0  0  0  0  0  0  0
    4.4884    1.1241    0.8292 O   0  0  0  0  0  0  0  0  0  0  0  0
    3.4752    0.2909    0.3488 C   0  0  0  0  0  0  0  0  0  0  0  0
   -0.3501    0.6320    1.0711 H   0  0  0  0  0  0  0  0  0  0  0  0
   -0.6329    0.4952   -0.6778 H   0  0  0  0  0  0  0  0  0  0  0  0
   -0.5704   -0.9625    0.3168 H   0  0  0  0  0  0  0  0  0  0  0  0
    1.6134   -0.6603   -0.9236 H   0  0  0  0  0  0  0  0  0  0  0  0
    2.2594   -1.0545    1.9642 H   0  0  0  0  0  0  0  0  0  0  0  0
    2.9893    2.5732   -1.3130 H   0  0  0  0  0  0  0  0  0  0  0  0
    2.1567    3.3836    0.0389 H   0  0  0  0  0  0  0  0  0  0  0  0
    4.9414    3.0032    0.0844 H   0  0  0  0  0  0  0  0  0  0  0  0
    3.9560    2.9859    1.5696 H   0  0  0  0  0  0  0  0  0  0  0  0
    3.8193   -0.3412   -0.4775 H   0  0  0  0  0  0  0  0  0  0  0  0
  1  2  1  0
  2  3  1  0
  3  4  1  0
  4  5  1  0
  5  6  1  0
  6  7  1  0
  7  8  1  0
  8  9  1  0
  5  2  1  0
  9  5  1  0
  9  3  1  0
  1 10  1  0
  1 11  1  0
  1 12  1  0
  2 13  1  0
  3 14  1  0
  6 15  1  0
  6 16  1  0
  7 17  1  0
  7 18  1  0
  9 19  1  0
M  END
$$$$
