gdb 1235	4.7495979	0.5611377	0.5365666	2.4086	81.9	-0.25197	0.03559	0.28756000000000004	2110.0669	0.154161	-422.500981	-422.490579	-422.489635	-422.539144	35.856
 OpenBabel02181911403D

 19 19  0  0  1  0  0  0  0  0999 V2000
   -1.6523   -4.4508    3.1647 C   0  0  0  0  0  0  0  0  0  0  0  0
   -0.2060   -3.9395    3.0985 C   0  0  2  0  0  0  0  0  0  0  0  0
    0.4553   -4.0746    4.3559 O   0  0  0  0  0  0  0  0  0  0  0  0
   -0.1432   -2.5632    2.5947 C   0  0  0  0  0  0  0  0  0  0  0  0
   -0.1184   -1.4194    2.2172 C   0  0  0  0  0  0  0  0  0  0  0  0
   -0.0471   -0.0456    1.7293 C   0  0  0  0  0  0  0  0  0  0  0  0
    0.7291    0.0773    0.4283 C   0  0  2  0  0  0  0  0  0  0  0  0
    0.4364    1.1412   -0.5379 C   0  0  0  0  0  0  0  0  0  0  0  0
    0.0141   -0.2046   -0.7708 O   0  0  0  0  0  0  0  0  0  0  0  0
   -1.6590   -5.4749    3.5470 H   0  0  0  0  0  0  0  0  0  0  0  0
   -2.2504   -3.8213    3.8317 H   0  0  0  0  0  0  0  0  0  0  0  0
   -2.1170   -4.4336    2.1747 H   0  0  0  0  0  0  0  0  0  0  0  0
    0.3639   -4.5886    2.4225 H   0  0  0  0  0  0  0  0  0  0  0  0
    0.0796   -3.4139    4.9484 H   0  0  0  0  0  0  0  0  0  0  0  0
   -1.0549    0.3577    1.5721 H   0  0  0  0  0  0  0  0  0  0  0  0
    0.4342    0.5888    2.4864 H   0  0  0  0  0  0  0  0  0  0  0  0
    1.7374   -0.3364    0.4565 H   0  0  0  0  0  0  0  0  0  0  0  0
   -0.3631    1.8515   -0.3292 H   0  0  0  0  0  0  0  0  0  0  0  0
    1.2224    1.5089   -1.1957 H   0  0  0  0  0  0  0  0  0  0  0  0
  1 10  1  0  0  0  0
  1 11  1  0  0  0  0
  2 13  1  6  0  0  0
  2  1  1  0  0  0  0
  2  3  1  0  0  0  0
  3 14  1  0  0  0  0
  4  2  1  0  0  0  0
  5  4  3  0  0  0  0
  6  5  1  0  0  0  0
  6 16  1  0  0  0  0
  7 17  1  1  0  0  0
  7  6  1  0  0  0  0
  8 18  1  0  0  0  0
  8  7  1  0  0  0  0
  9  8  1  0  0  0  0
  9  7  1  0  0  0  0
 12  1  1  0  0  0  0
 15  6  1  0  0  0  0
 19  8  1  0  0  0  0
M TOR 0 0 1 2 13
M TOR 1 0 1 3 4
M TOR 2 1 3 4 5
M TOR 3 2 1 0 9
M TOR 4 2 1 0 10
M TOR 5 2 1 0 11
M TOR 6 2 1 3 4
M TOR 7 3 1 0 9
M TOR 8 3 1 0 10
M TOR 9 3 1 0 11
M TOR 10 3 1 2 13
M TOR 11 3 4 5 6
M TOR 12 3 4 5 14
M TOR 13 3 4 5 15
M TOR 14 4 3 1 12
M TOR 15 4 5 6 7
M TOR 16 4 5 6 8
M TOR 17 4 5 6 16
M TOR 18 5 6 7 8
M TOR 19 5 6 7 17
M TOR 20 5 6 7 18
M TOR 21 6 8 7 17
M TOR 22 6 8 7 18
M TOR 23 7 6 5 14
M TOR 24 7 6 5 15
M TOR 25 7 8 6 16
M TOR 26 8 6 5 14
M TOR 27 8 6 5 15
M  END
$$$$
