gdb 5448	5.4686931	0.9050452	0.8942858	0.1561	75.28	-0.25666	0.05858	0.31524	1330.2365	0.156884	-422.481572	-422.473308	-422.472364	-422.514454	31.704
 OpenBabel02181911423D

 19 21  0  0  1  0  0  0  0  0999 V2000
    1.3625    0.5432   -0.0141 O   0  0  0  0  0  0  0  0  0  0  0  0
    0.3624   -0.1938    0.6777 C   0  0  0  0  0  0  0  0  0  0  0  0
   -0.8485    0.6564    1.0215 C   0  0  2  0  0  0  0  0  0  0  0  0
   -0.7802    1.6319    2.2232 C   0  0  1  0  0  0  0  0  0  0  0  0
   -2.3325    1.5790    2.4322 C   0  0  2  0  0  0  0  0  0  0  0  0
   -2.1620    1.2895    3.9363 C   0  0  1  0  0  0  0  0  0  0  0  0
   -3.1696    0.6238    4.6509 O   0  0  0  0  0  0  0  0  0  0  0  0
   -1.0154    0.4937    3.2804 C   0  0  1  0  0  0  0  0  0  0  0  0
   -1.8954    0.1230    2.0240 C   0  0  2  0  0  0  0  0  0  0  0  0
    1.6554    1.2524    0.5670 H   0  0  0  0  0  0  0  0  0  0  0  0
    0.0704   -1.0014   -0.0033 H   0  0  0  0  0  0  0  0  0  0  0  0
    0.7715   -0.6672    1.5843 H   0  0  0  0  0  0  0  0  0  0  0  0
   -1.2670    1.0955    0.1074 H   0  0  0  0  0  0  0  0  0  0  0  0
   -0.1570    2.5165    2.3689 H   0  0  0  0  0  0  0  0  0  0  0  0
   -3.0685    2.1951    1.9132 H   0  0  0  0  0  0  0  0  0  0  0  0
   -1.8619    2.1394    4.5574 H   0  0  0  0  0  0  0  0  0  0  0  0
   -3.4617   -0.1336    4.1320 H   0  0  0  0  0  0  0  0  0  0  0  0
   -0.2552   -0.1296    3.7518 H   0  0  0  0  0  0  0  0  0  0  0  0
   -2.5454   -0.7478    1.9155 H   0  0  0  0  0  0  0  0  0  0  0  0
  1 10  1  0  0  0  0
  1  2  1  0  0  0  0
  2  3  1  0  0  0  0
  2 12  1  0  0  0  0
  3 13  1  6  0  0  0
  3  9  1  0  0  0  0
  3  4  1  0  0  0  0
  4 14  1  1  0  0  0
  4  5  1  0  0  0  0
  4  8  1  0  0  0  0
  5 15  1  6  0  0  0
  5  6  1  0  0  0  0
  6 16  1  1  0  0  0
  6  7  1  0  0  0  0
  8 18  1  1  0  0  0
  8  6  1  0  0  0  0
  9 19  1  6  0  0  0
  9  5  1  0  0  0  0
  9  8  1  0  0  0  0
 11  2  1  0  0  0  0
 17  7  1  0  0  0  0
M TOR 0 0 1 2 3
M TOR 1 0 1 2 8
M TOR 2 0 1 2 12
M TOR 3 1 2 3 4
M TOR 4 1 2 3 7
M TOR 5 1 2 3 13
M TOR 6 1 2 8 4
M TOR 7 1 2 8 7
M TOR 8 1 2 8 18
M TOR 9 2 1 0 9
M TOR 10 2 3 4 5
M TOR 11 2 3 4 8
M TOR 12 2 3 4 14
M TOR 13 2 3 7 5
M TOR 14 2 3 7 8
M TOR 15 2 3 7 17
M TOR 16 2 8 4 5
M TOR 17 2 8 4 14
M TOR 18 2 8 7 5
M TOR 19 2 8 7 17
M TOR 20 3 2 1 10
M TOR 21 3 2 1 11
M TOR 22 3 2 8 18
M TOR 23 3 4 5 6
M TOR 24 3 4 5 7
M TOR 25 3 4 5 15
M TOR 26 3 4 8 7
M TOR 27 3 4 8 18
M TOR 28 3 7 5 6
M TOR 29 3 7 5 15
M TOR 30 3 7 8 18
M TOR 31 4 3 2 12
M TOR 32 4 3 7 17
M TOR 33 4 5 6 16
M TOR 34 4 5 7 8
M TOR 35 4 5 7 17
M TOR 36 4 8 2 12
M TOR 37 4 8 7 17
M TOR 38 5 4 3 13
M TOR 39 5 4 8 18
M TOR 40 5 7 3 13
M TOR 41 5 7 8 18
M TOR 42 6 5 4 8
M TOR 43 6 5 4 14
M TOR 44 6 5 7 8
M TOR 45 6 5 7 17
M TOR 46 7 3 2 12
M TOR 47 7 3 4 14
M TOR 48 7 5 4 14
M TOR 49 7 5 6 16
M TOR 50 7 8 2 12
M TOR 51 7 8 4 14
M TOR 52 8 2 1 10
M TOR 53 8 2 1 11
M TOR 54 8 2 3 13
M TOR 55 8 4 3 13
M TOR 56 8 4 5 15
M TOR 57 8 7 3 13
M TOR 58 8 7 5 15
M  END
$$$$
