
     RDKit          3D

 19 19  0  0  0  0  0  0  0  0999 V2000
    1.3674   -0.2723    0.2461 O   0  0  0  0  0  0  0  0  0  0  0  0
    0.2187   -0.0627   -0.0485 C   0  0  0  0  0  0  0  0  0  0  0  0
   -0.2391    0.8033   -1.1977 C   0  0  0  0  0  0  0  0  0  0  0  0
   -1.1708    1.9350   -0.7182 C   0  0  0  0  0  0  0  0  0  0  0  0
   -1.7230    2.7750   -1.8544 C   0  0  0  0  0  0  0  0  0  0  0  0
   -1.9780    4.2666   -1.6377 C   0  0  0  0  0  0  0  0  0  0  0  0
   -0.8468    3.8406   -2.5076 C   0  0  0  0  0  0  0  0  0  0  0  0
   -2.6997    2.1157   -2.7548 C   0  0  0  0  0  0  0  0  0  0  0  0
   -3.0910    0.9792   -2.6372 O   0  0  0  0  0  0  0  0  0  0  0  0
   -0.6138   -0.5144    0.5416 H   0  0  0  0  0  0  0  0  0  0  0  0
    0.6420    1.1966   -1.7126 H   0  0  0  0  0  0  0  0  0  0  0  0
   -0.8014    0.1665   -1.8918 H   0  0  0  0  0  0  0  0  0  0  0  0
   -2.0103    1.5004   -0.1629 H   0  0  0  0  0  0  0  0  0  0  0  0
   -0.6283    2.5846   -0.0221 H   0  0  0  0  0  0  0  0  0  0  0  0
   -2.8543    4.7036   -2.1050 H   0  0  0  0  0  0  0  0  0  0  0  0
   -1.7625    4.6477   -0.6459 H   0  0  0  0  0  0  0  0  0  0  0  0
   -0.9346    3.9848   -3.5794 H   0  0  0  0  0  0  0  0  0  0  0  0
    0.1645    3.9239   -2.1254 H   0  0  0  0  0  0  0  0  0  0  0  0
   -3.0723    2.7686   -3.5793 H   0  0  0  0  0  0  0  0  0  0  0  0
  1  2  2  0
  2  3  1  0
  3  4  1  0
  4  5  1  0
  5  6  1  0
  6  7  1  0
  5  8  1  0
  8  9  2  0
  7  5  1  0
  2 10  1  0
  3 11  1  0
  3 12  1  0
  4 13  1  0
  4 14  1  0
  6 15  1  0
  6 16  1  0
  7 17  1  0
  7 18  1  0
  8 19  1  0
M  END
$$$$
