
     RDKit          3D

 19 21  0  0  0  0  0  0  0  0999 V2000
   -4.2198    3.1266   -0.0674 C   0  0  0  0  0  0  0  0  0  0  0  0
   -3.1516    2.1104    0.2227 C   0  0  0  0  0  0  0  0  0  0  0  0
   -3.5081    0.7113    0.7904 C   0  0  0  0  0  0  0  0  0  0  0  0
   -2.2760    0.1116    0.0647 C   0  0  0  0  0  0  0  0  0  0  0  0
   -0.9447    0.4710    0.7644 C   0  0  0  0  0  0  0  0  0  0  0  0
    0.0902   -0.2402    0.1117 O   0  0  0  0  0  0  0  0  0  0  0  0
   -1.0793    1.9196    0.2167 C   0  0  0  0  0  0  0  0  0  0  0  0
   -2.0394    2.6815    0.9726 O   0  0  0  0  0  0  0  0  0  0  0  0
   -2.1619    1.4369   -0.7830 C   0  0  0  0  0  0  0  0  0  0  0  0
   -4.6706    3.4785    0.8676 H   0  0  0  0  0  0  0  0  0  0  0  0
   -3.8001    3.9920   -0.5886 H   0  0  0  0  0  0  0  0  0  0  0  0
   -5.0117    2.6932   -0.6864 H   0  0  0  0  0  0  0  0  0  0  0  0
   -3.5677    0.6227    1.8791 H   0  0  0  0  0  0  0  0  0  0  0  0
   -4.4358    0.3382    0.3444 H   0  0  0  0  0  0  0  0  0  0  0  0
   -2.3396   -0.8932   -0.3498 H   0  0  0  0  0  0  0  0  0  0  0  0
   -0.9003    0.3642    1.8574 H   0  0  0  0  0  0  0  0  0  0  0  0
    0.9311    0.1404    0.3876 H   0  0  0  0  0  0  0  0  0  0  0  0
   -0.1690    2.4824   -0.0100 H   0  0  0  0  0  0  0  0  0  0  0  0
   -2.1588    1.5355   -1.8649 H   0  0  0  0  0  0  0  0  0  0  0  0
  1  2  1  0
  2  3  1  0
  3  4  1  0
  4  5  1  0
  5  6  1  0
  5  7  1  0
  7  8  1  0
  7  9  1  0
  8  2  1  0
  9  2  1  0
  9  4  1  0
  1 10  1  0
  1 11  1  0
  1 12  1  0
  3 13  1  0
  3 14  1  0
  4 15  1  0
  5 16  1  0
  6 17  1  0
  7 18  1  0
  9 19  1  0
M  END
$$$$
