
     RDKit          3D

 19 21  0  0  0  0  0  0  0  0999 V2000
    1.6298    0.8476   -0.0153 O   0  0  0  0  0  0  0  0  0  0  0  0
    0.2795    0.4655    0.2104 C   0  0  0  0  0  0  0  0  0  0  0  0
   -0.6541    0.9817   -0.8355 C   0  0  0  0  0  0  0  0  0  0  0  0
   -2.1540    1.2133   -0.7561 C   0  0  0  0  0  0  0  0  0  0  0  0
   -2.8789    0.4999   -1.9001 C   0  0  0  0  0  0  0  0  0  0  0  0
   -1.7300    0.0120   -2.8297 C   0  0  0  0  0  0  0  0  0  0  0  0
   -0.5463    0.8559   -2.3758 C   0  0  0  0  0  0  0  0  0  0  0  0
   -0.9118    2.2712   -2.5445 O   0  0  0  0  0  0  0  0  0  0  0  0
   -1.2149    2.3381   -1.1525 C   0  0  0  0  0  0  0  0  0  0  0  0
    1.6448    1.8064   -0.1065 H   0  0  0  0  0  0  0  0  0  0  0  0
    0.2867   -0.6313    0.2147 H   0  0  0  0  0  0  0  0  0  0  0  0
   -0.0727    0.7862    1.2045 H   0  0  0  0  0  0  0  0  0  0  0  0
   -2.6129    1.2913    0.2243 H   0  0  0  0  0  0  0  0  0  0  0  0
   -3.4833   -0.3314   -1.5269 H   0  0  0  0  0  0  0  0  0  0  0  0
   -3.5507    1.1830   -2.4276 H   0  0  0  0  0  0  0  0  0  0  0  0
   -1.5108   -1.0511   -2.6727 H   0  0  0  0  0  0  0  0  0  0  0  0
   -1.9503    0.1588   -3.8906 H   0  0  0  0  0  0  0  0  0  0  0  0
    0.4273    0.6398   -2.8176 H   0  0  0  0  0  0  0  0  0  0  0  0
   -1.1521    3.3035   -0.6614 H   0  0  0  0  0  0  0  0  0  0  0  0
  1  2  1  0
  2  3  1  0
  3  4  1  0
  4  5  1  0
  5  6  1  0
  6  7  1  0
  7  8  1  0
  8  9  1  0
  7  3  1  0
  9  3  1  0
  9  4  1  0
  1 10  1  0
  2 11  1  0
  2 12  1  0
  4 13  1  0
  5 14  1  0
  5 15  1  0
  6 16  1  0
  6 17  1  0
  7 18  1  0
  9 19  1  0
M  END
$$$$
