gdb 1573	2.4215341	1.5055578	1.1757215	4.4635	75.38	-0.22824	-0.08658	0.14166	1122.1156	0.155229	-422.604801	-422.595552	-422.594608	-422.638639	34.237
 OpenBabel02181911403D

 19 19  0  0  0  0  0  0  0  0999 V2000
   -0.6777    1.8397   -1.2751 C   0  0  0  0  0  0  0  0  0  0  0  0
   -0.8939    1.2546    0.1408 C   0  0  0  0  0  0  0  0  0  0  0  0
   -0.5535    2.3012    1.2041 C   0  0  0  0  0  0  0  0  0  0  0  0
   -2.3227    0.6598    0.2815 C   0  0  0  0  0  0  0  0  0  0  0  0
   -2.2703   -0.7621   -0.3190 C   0  0  0  0  0  0  0  0  0  0  0  0
   -0.8508   -1.2403   -0.0600 C   0  0  0  0  0  0  0  0  0  0  0  0
   -0.4246   -2.3628   -0.0738 O   0  0  0  0  0  0  0  0  0  0  0  0
    0.0067    0.0239    0.2605 C   0  0  0  0  0  0  0  0  0  0  0  0
    1.1732   -0.0039    0.5485 O   0  0  0  0  0  0  0  0  0  0  0  0
   -0.8977    1.1142   -2.0653 H   0  0  0  0  0  0  0  0  0  0  0  0
   -1.3348    2.7032   -1.4219 H   0  0  0  0  0  0  0  0  0  0  0  0
    0.3587    2.1660   -1.4002 H   0  0  0  0  0  0  0  0  0  0  0  0
   -0.7150    1.9088    2.2131 H   0  0  0  0  0  0  0  0  0  0  0  0
    0.4965    2.5956    1.1247 H   0  0  0  0  0  0  0  0  0  0  0  0
   -1.1761    3.1937    1.0830 H   0  0  0  0  0  0  0  0  0  0  0  0
   -2.5857    0.5982    1.3433 H   0  0  0  0  0  0  0  0  0  0  0  0
   -3.0743    1.2913   -0.1997 H   0  0  0  0  0  0  0  0  0  0  0  0
   -3.0047   -1.4563    0.0953 H   0  0  0  0  0  0  0  0  0  0  0  0
   -2.4261   -0.7446   -1.4054 H   0  0  0  0  0  0  0  0  0  0  0  0
  1  2  1  0  0  0  0
  2  8  1  0  0  0  0
  2  4  1  0  0  0  0
  2  3  1  0  0  0  0
  3 13  1  0  0  0  0
  4 16  1  0  0  0  0
  5  6  1  0  0  0  0
  5 18  1  0  0  0  0
  5  4  1  0  0  0  0
  6  8  1  0  0  0  0
  7  6  2  0  0  0  0
  8  9  2  0  0  0  0
 10  1  1  0  0  0  0
 11  1  1  0  0  0  0
 12  1  1  0  0  0  0
 14  3  1  0  0  0  0
 15  3  1  0  0  0  0
 17  4  1  0  0  0  0
 19  5  1  0  0  0  0
M TOR 0 0 1 2 12
M TOR 1 0 1 2 13
M TOR 2 0 1 2 14
M TOR 3 0 1 3 4
M TOR 4 0 1 3 15
M TOR 5 0 1 3 16
M TOR 6 0 1 7 5
M TOR 7 0 1 7 8
M TOR 8 1 3 4 5
M TOR 9 1 3 4 17
M TOR 10 1 3 4 18
M TOR 11 1 7 5 4
M TOR 12 1 7 5 6
M TOR 13 2 1 0 9
M TOR 14 2 1 0 10
M TOR 15 2 1 0 11
M TOR 16 2 1 3 4
M TOR 17 2 1 3 15
M TOR 18 2 1 3 16
M TOR 19 2 1 7 5
M TOR 20 2 1 7 8
M TOR 21 3 1 0 9
M TOR 22 3 1 0 10
M TOR 23 3 1 0 11
M TOR 24 3 1 2 12
M TOR 25 3 1 2 13
M TOR 26 3 1 2 14
M TOR 27 3 1 7 5
M TOR 28 3 1 7 8
M TOR 29 3 4 5 6
M TOR 30 3 4 5 7
M TOR 31 4 3 1 7
M TOR 32 4 5 7 8
M TOR 33 5 4 3 15
M TOR 34 5 4 3 16
M TOR 35 6 5 4 17
M TOR 36 6 5 4 18
M TOR 37 6 5 7 8
M TOR 38 7 1 0 9
M TOR 39 7 1 0 10
M TOR 40 7 1 0 11
M TOR 41 7 1 2 12
M TOR 42 7 1 2 13
M TOR 43 7 1 2 14
M TOR 44 7 1 3 15
M TOR 45 7 1 3 16
M TOR 46 7 5 4 17
M TOR 47 7 5 4 18
M  END
$$$$
