gdb 3762	4.1481594	0.8463138	0.8016417	1.6725	79.14	-0.24307	-0.01448	0.22859000000000002	1484.6332	0.155753	-422.546917	-422.537654	-422.53671	-422.581874	33.7
 OpenBabel02181911413D

 19 20  0  0  1  0  0  0  0  0999 V2000
    0.9792    2.3480    1.3309 O   0  0  0  0  0  0  0  0  0  0  0  0
    0.6113    1.1912    0.6443 C   0  0  2  0  0  0  0  0  0  0  0  0
    0.7044   -0.1366    1.3106 C   0  0  0  0  0  0  0  0  0  0  0  0
    1.7557    0.2650    0.2766 C   0  0  1  0  0  0  0  0  0  0  0  0
    1.7007   -0.3852   -1.0622 C   0  0  0  0  0  0  0  0  0  0  0  0
    0.6461   -0.7910   -1.5230 O   0  0  0  0  0  0  0  0  0  0  0  0
    2.9797   -0.5039   -1.8179 C   0  0  0  0  0  0  0  0  0  0  0  0
    2.9021   -0.3999   -3.3357 C   0  0  0  0  0  0  0  0  0  0  0  0
    3.1481   -1.7274   -2.7103 C   0  0  0  0  0  0  0  0  0  0  0  0
    0.2796    2.5528    1.9605 H   0  0  0  0  0  0  0  0  0  0  0  0
   -0.1496    1.3114   -0.1254 H   0  0  0  0  0  0  0  0  0  0  0  0
    1.0344   -0.1607    2.3429 H   0  0  0  0  0  0  0  0  0  0  0  0
    0.0111   -0.9098    0.9992 H   0  0  0  0  0  0  0  0  0  0  0  0
    2.7257    0.5623    0.6568 H   0  0  0  0  0  0  0  0  0  0  0  0
    3.8675   -0.1116   -1.3357 H   0  0  0  0  0  0  0  0  0  0  0  0
    1.9129   -0.2134   -3.7373 H   0  0  0  0  0  0  0  0  0  0  0  0
    3.7186    0.1072   -3.8365 H   0  0  0  0  0  0  0  0  0  0  0  0
    2.3236   -2.4306   -2.6924 H   0  0  0  0  0  0  0  0  0  0  0  0
    4.1392   -2.1625   -2.7674 H   0  0  0  0  0  0  0  0  0  0  0  0
  1 10  1  0  0  0  0
  2 11  1  6  0  0  0
  2  3  1  0  0  0  0
  2  1  1  0  0  0  0
  3 12  1  0  0  0  0
  4  2  1  0  0  0  0
  4 14  1  1  0  0  0
  4  3  1  0  0  0  0
  5  4  1  0  0  0  0
  6  5  2  0  0  0  0
  7 15  1  0  0  0  0
  7  5  1  0  0  0  0
  8  9  1  0  0  0  0
  8  7  1  0  0  0  0
  9 18  1  0  0  0  0
  9  7  1  0  0  0  0
 13  3  1  0  0  0  0
 16  8  1  0  0  0  0
 17  8  1  0  0  0  0
 19  9  1  0  0  0  0
M TOR 0 0 1 2 3
M TOR 1 0 1 2 11
M TOR 2 0 1 2 12
M TOR 3 0 1 3 4
M TOR 4 0 1 3 13
M TOR 5 1 2 3 4
M TOR 6 1 2 3 13
M TOR 7 1 3 2 11
M TOR 8 1 3 2 12
M TOR 9 1 3 4 5
M TOR 10 1 3 4 6
M TOR 11 2 1 0 9
M TOR 12 2 3 1 10
M TOR 13 2 3 4 5
M TOR 14 2 3 4 6
M TOR 15 3 1 0 9
M TOR 16 3 4 6 7
M TOR 17 3 4 6 8
M TOR 18 3 4 6 14
M TOR 19 4 3 1 10
M TOR 20 4 3 2 11
M TOR 21 4 3 2 12
M TOR 22 4 6 7 8
M TOR 23 4 6 7 15
M TOR 24 4 6 7 16
M TOR 25 4 6 8 17
M TOR 26 4 6 8 18
M TOR 27 5 4 3 13
M TOR 28 5 4 6 7
M TOR 29 5 4 6 8
M TOR 30 5 4 6 14
M TOR 31 6 4 3 13
M TOR 32 6 7 8 17
M TOR 33 6 7 8 18
M TOR 34 6 8 7 15
M TOR 35 6 8 7 16
M TOR 36 7 8 6 14
M  END
$$$$
