gdb 4524	2.8800999	1.5797963	1.1214514	3.1144	77.09	-0.24932	0.00209	0.25141	1104.8125	0.158344	-422.560149	-422.55215	-422.551206	-422.592801	30.117
 OpenBabel02181911413D

 19 20  0  0  1  0  0  0  0  0999 V2000
    0.2854    1.4399   -0.2969 C   0  0  0  0  0  0  0  0  0  0  0  0
   -0.0394   -0.0166    0.0149 C   0  0  2  0  0  0  0  0  0  0  0  0
   -1.4768   -0.2490    0.5757 C   0  0  0  0  0  0  0  0  0  0  0  0
   -1.4572   -1.4806    1.3114 O   0  0  0  0  0  0  0  0  0  0  0  0
   -0.1141   -1.8254    1.6177 C   0  0  2  0  0  0  0  0  0  0  0  0
    0.1779   -1.9718    2.9908 O   0  0  0  0  0  0  0  0  0  0  0  0
    1.3110   -1.1589    3.3168 C   0  0  0  0  0  0  0  0  0  0  0  0
    1.5098   -0.2545    2.1249 C   0  0  0  0  0  3  0  0  0  0  0  0
    0.6932   -0.6442    1.1539 C   0  0  2  0  0  3  0  0  0  0  0  0
    1.3101    1.5444   -0.6661 H   0  0  0  0  0  0  0  0  0  0  0  0
   -0.3863    1.8362   -1.0651 H   0  0  0  0  0  0  0  0  0  0  0  0
    0.1825    2.0624    0.5980 H   0  0  0  0  0  0  0  0  0  0  0  0
    0.0744   -0.6262   -0.8921 H   0  0  0  0  0  0  0  0  0  0  0  0
   -1.7506    0.5870    1.2360 H   0  0  0  0  0  0  0  0  0  0  0  0
   -2.2344   -0.3348   -0.2093 H   0  0  0  0  0  0  0  0  0  0  0  0
    0.0895   -2.7869    1.1211 H   0  0  0  0  0  0  0  0  0  0  0  0
    1.0997   -0.5807    4.2271 H   0  0  0  0  0  0  0  0  0  0  0  0
    2.1774   -1.8031    3.5327 H   0  0  0  0  0  0  0  0  0  0  0  0
    2.1419    0.6241    2.1487 H   0  0  0  0  0  0  0  0  0  0  0  0
  1  2  1  0  0  0  0
  1 12  1  0  0  0  0
  2 13  1  6  0  0  0
  2  3  1  0  0  0  0
  2  9  1  0  0  0  0
  3 14  1  0  0  0  0
  3  4  1  0  0  0  0
  4  5  1  0  0  0  0
  5 16  1  6  0  0  0
  5  6  1  0  0  0  0
  6  7  1  0  0  0  0
  7 18  1  0  0  0  0
  7 17  1  0  0  0  0
  8 19  1  0  0  0  0
  8  7  1  0  0  0  0
  9  5  1  0  0  0  0
  9  8  1  1  0  0  0
 10  1  1  0  0  0  0
 11  1  1  0  0  0  0
 15  3  1  0  0  0  0
M TOR 0 0 1 2 3
M TOR 1 0 1 2 13
M TOR 2 0 1 2 14
M TOR 3 0 1 8 4
M TOR 4 0 1 8 7
M TOR 5 1 2 3 4
M TOR 6 1 8 4 3
M TOR 7 1 8 4 5
M TOR 8 1 8 4 15
M TOR 9 1 8 7 6
M TOR 10 1 8 7 18
M TOR 11 2 1 0 9
M TOR 12 2 1 0 10
M TOR 13 2 1 0 11
M TOR 14 2 1 8 4
M TOR 15 2 1 8 7
M TOR 16 2 3 4 5
M TOR 17 2 3 4 8
M TOR 18 2 3 4 15
M TOR 19 3 2 1 8
M TOR 20 3 2 1 12
M TOR 21 3 4 5 6
M TOR 22 3 4 8 7
M TOR 23 4 3 2 13
M TOR 24 4 3 2 14
M TOR 25 4 5 6 7
M TOR 26 4 5 6 16
M TOR 27 4 5 6 17
M TOR 28 4 8 1 12
M TOR 29 4 8 7 6
M TOR 30 4 8 7 18
M TOR 31 5 4 8 7
M TOR 32 5 6 7 8
M TOR 33 5 6 7 18
M TOR 34 6 5 4 8
M TOR 35 6 5 4 15
M TOR 36 7 8 1 12
M TOR 37 7 8 4 15
M TOR 38 8 1 0 9
M TOR 39 8 1 0 10
M TOR 40 8 1 0 11
M TOR 41 8 1 2 13
M TOR 42 8 1 2 14
M TOR 43 8 7 6 16
M TOR 44 8 7 6 17
M  END
$$$$
