gdb 627	3.2855411	1.4972977	1.1030082	1.8738	77.52	-0.24608	0.01433	0.26041	1101.7221	0.160058	-422.569622	-422.56231	-422.561366	-422.60135	28.736
 OpenBabel02181911403D

 19 20  0  0  1  0  0  0  0  0999 V2000
    2.1777    0.8823    0.4438 C   0  0  0  0  0  0  0  0  0  0  0  0
    1.0548    1.2809   -0.5516 C   0  0  0  0  0  0  0  0  0  0  0  0
    0.4668    2.5828    0.0145 C   0  0  1  0  0  0  0  0  0  0  0  0
   -0.9577    2.6192   -0.1081 O   0  0  0  0  0  0  0  0  0  0  0  0
   -1.4924    3.6443    0.6891 C   0  0  0  0  0  0  0  0  0  0  0  0
   -1.2500    3.4646    2.0613 O   0  0  0  0  0  0  0  0  0  0  0  0
    0.1472    3.5085    2.3662 C   0  0  0  0  0  0  0  0  0  0  0  0
    0.8768    2.5588    1.4709 C   0  0  0  0  0  0  0  0  0  0  0  0
    1.8012    1.6316    1.7034 C   0  0  0  0  0  0  0  0  0  0  0  0
    2.2344   -0.2004    0.6004 H   0  0  0  0  0  0  0  0  0  0  0  0
    3.1680    1.1910    0.0818 H   0  0  0  0  0  0  0  0  0  0  0  0
    1.4050    1.3797   -1.5812 H   0  0  0  0  0  0  0  0  0  0  0  0
    0.2565    0.5334   -0.5369 H   0  0  0  0  0  0  0  0  0  0  0  0
    0.8750    3.4786   -0.4890 H   0  0  0  0  0  0  0  0  0  0  0  0
   -1.0882    4.6235    0.3633 H   0  0  0  0  0  0  0  0  0  0  0  0
   -2.5756    3.6213    0.5556 H   0  0  0  0  0  0  0  0  0  0  0  0
    0.5187    4.5389    2.2223 H   0  0  0  0  0  0  0  0  0  0  0  0
    0.2491    3.2552    3.4242 H   0  0  0  0  0  0  0  0  0  0  0  0
    2.2554    1.4254    2.6675 H   0  0  0  0  0  0  0  0  0  0  0  0
  1 10  1  0  0  0  0
  1  9  1  0  0  0  0
  2 13  1  0  0  0  0
  2  3  1  0  0  0  0
  2  1  1  0  0  0  0
  3 14  1  6  0  0  0
  3  8  1  0  0  0  0
  4  3  1  0  0  0  0
  4  5  1  0  0  0  0
  5  6  1  0  0  0  0
  6  7  1  0  0  0  0
  7 18  1  0  0  0  0
  8  9  2  0  0  0  0
  8  7  1  0  0  0  0
  9 19  1  0  0  0  0
 11  1  1  0  0  0  0
 12  2  1  0  0  0  0
 15  5  1  0  0  0  0
 16  5  1  0  0  0  0
 17  7  1  0  0  0  0
M TOR 0 0 1 2 3
M TOR 1 0 1 2 7
M TOR 2 0 1 2 13
M TOR 3 0 8 7 2
M TOR 4 0 8 7 6
M TOR 5 1 0 8 7
M TOR 6 1 0 8 18
M TOR 7 1 2 3 4
M TOR 8 1 2 7 6
M TOR 9 1 2 7 8
M TOR 10 2 1 0 8
M TOR 11 2 1 0 9
M TOR 12 2 1 0 10
M TOR 13 2 3 4 5
M TOR 14 2 3 4 14
M TOR 15 2 3 4 15
M TOR 16 2 7 6 5
M TOR 17 2 7 6 16
M TOR 18 2 7 6 17
M TOR 19 2 7 8 18
M TOR 20 3 2 1 11
M TOR 21 3 2 1 12
M TOR 22 3 2 7 6
M TOR 23 3 2 7 8
M TOR 24 3 4 5 6
M TOR 25 4 3 2 7
M TOR 26 4 3 2 13
M TOR 27 4 5 6 7
M TOR 28 4 5 6 16
M TOR 29 4 5 6 17
M TOR 30 5 6 7 8
M TOR 31 6 5 4 14
M TOR 32 6 5 4 15
M TOR 33 6 7 2 13
M TOR 34 6 7 8 18
M TOR 35 7 2 1 11
M TOR 36 7 2 1 12
M TOR 37 7 8 0 9
M TOR 38 7 8 0 10
M TOR 39 8 0 1 11
M TOR 40 8 0 1 12
M TOR 41 8 7 2 13
M TOR 42 8 7 6 16
M TOR 43 8 7 6 17
M  END
$$$$
