gdb 1893	2.9163063	1.3840586	1.1407964	2.0427	76.02	-0.21862	0.07564	0.29426	1124.4624	0.156128	-422.502329	-422.493742	-422.492798	-422.535961	32.436
 OpenBabel02181911403D

 19 21  0  0  1  0  0  0  0  0999 V2000
   -0.3980   -3.0826    0.0469 O   0  0  0  0  0  0  0  0  0  0  0  0
   -1.0009   -2.2280   -0.8536 C   0  0  2  0  0  0  0  0  0  0  0  0
   -0.3513   -1.6792   -2.0862 C   0  0  0  0  0  0  0  0  0  0  0  0
   -0.8932   -0.7048   -1.0511 C   0  0  1  0  0  0  0  0  0  0  0  0
   -2.4195   -0.6237   -1.1825 C   0  0  0  0  0  0  0  0  0  0  0  0
   -2.5191   -2.1711   -0.9526 C   0  0  0  0  0  0  0  0  0  0  0  0
   -0.0194    0.2525   -0.3323 C   0  0  2  0  0  0  0  0  0  0  0  0
    1.1249    0.9400   -0.9512 C   0  0  0  0  0  0  0  0  0  0  0  0
    1.3280   -0.1977   -0.1064 O   0  0  0  0  0  0  0  0  0  0  0  0
    0.5400   -2.8638    0.0900 H   0  0  0  0  0  0  0  0  0  0  0  0
    0.7326   -1.7557   -2.0846 H   0  0  0  0  0  0  0  0  0  0  0  0
   -0.8102   -1.7601   -3.0712 H   0  0  0  0  0  0  0  0  0  0  0  0
   -2.8896   -0.0550   -0.3760 H   0  0  0  0  0  0  0  0  0  0  0  0
   -2.7954   -0.2478   -2.1401 H   0  0  0  0  0  0  0  0  0  0  0  0
   -2.9955   -2.4118   -0.0002 H   0  0  0  0  0  0  0  0  0  0  0  0
   -2.9783   -2.7721   -1.7438 H   0  0  0  0  0  0  0  0  0  0  0  0
   -0.4733    0.7256    0.5407 H   0  0  0  0  0  0  0  0  0  0  0  0
    1.3305    0.7778   -2.0078 H   0  0  0  0  0  0  0  0  0  0  0  0
    1.4779    1.8857   -0.5425 H   0  0  0  0  0  0  0  0  0  0  0  0
  1 10  1  0  0  0  0
  2  1  1  1  0  0  0
  3 11  1  0  0  0  0
  3  2  1  0  0  0  0
  4  3  1  6  0  0  0
  4  2  1  0  0  0  0
  4  7  1  0  0  0  0
  5  4  1  0  0  0  0
  5  6  1  0  0  0  0
  5 13  1  0  0  0  0
  6  2  1  0  0  0  0
  6 15  1  0  0  0  0
  7  9  1  0  0  0  0
  7 17  1  1  0  0  0
  8 19  1  0  0  0  0
  8  7  1  0  0  0  0
  8  9  1  0  0  0  0
 12  3  1  0  0  0  0
 14  5  1  0  0  0  0
 16  6  1  0  0  0  0
 18  8  1  0  0  0  0
M TOR 0 0 1 2 3
M TOR 1 0 1 2 10
M TOR 2 0 1 2 11
M TOR 3 0 1 3 4
M TOR 4 0 1 3 6
M TOR 5 0 1 5 4
M TOR 6 0 1 5 14
M TOR 7 0 1 5 15
M TOR 8 1 2 3 4
M TOR 9 1 2 3 6
M TOR 10 1 3 2 10
M TOR 11 1 3 2 11
M TOR 12 1 3 4 5
M TOR 13 1 3 4 12
M TOR 14 1 3 4 13
M TOR 15 1 3 6 7
M TOR 16 1 3 6 8
M TOR 17 1 3 6 16
M TOR 18 1 5 4 12
M TOR 19 1 5 4 13
M TOR 20 2 1 0 9
M TOR 21 2 1 5 4
M TOR 22 2 1 5 14
M TOR 23 2 1 5 15
M TOR 24 2 3 1 5
M TOR 25 2 3 4 5
M TOR 26 2 3 4 12
M TOR 27 2 3 4 13
M TOR 28 2 3 6 7
M TOR 29 2 3 6 8
M TOR 30 2 3 6 16
M TOR 31 3 1 0 9
M TOR 32 3 1 5 14
M TOR 33 3 1 5 15
M TOR 34 3 4 5 14
M TOR 35 3 4 5 15
M TOR 36 3 6 7 8
M TOR 37 3 6 7 17
M TOR 38 3 6 7 18
M TOR 39 4 3 2 10
M TOR 40 4 3 2 11
M TOR 41 4 3 6 7
M TOR 42 4 3 6 8
M TOR 43 4 3 6 16
M TOR 44 5 1 0 9
M TOR 45 5 1 2 10
M TOR 46 5 1 2 11
M TOR 47 5 1 3 6
M TOR 48 5 4 3 6
M TOR 49 6 3 2 10
M TOR 50 6 3 2 11
M TOR 51 6 3 4 12
M TOR 52 6 3 4 13
M TOR 53 6 8 7 17
M TOR 54 6 8 7 18
M TOR 55 7 8 6 16
M  END
$$$$
