gdb 3297	3.6116133	1.5863244	1.4632394	1.984	73.02	-0.23729	0.07811	0.3154	952.5139	0.160641	-422.560997	-422.554317	-422.553373	-422.591652	28.057
 OpenBabel02181911413D

 19 21  0  0  1  0  0  0  0  0999 V2000
    0.4334   -0.0856    0.6748 O   0  0  0  0  0  0  0  0  0  0  0  0
   -0.3793    0.9497    1.1367 C   0  0  2  0  0  0  0  0  0  0  0  0
   -1.0148    0.8085    2.5400 C   0  0  2  0  0  0  0  0  0  0  0  0
   -1.6278   -0.4951    2.4262 O   0  0  0  0  0  0  0  0  0  0  0  0
   -2.4860   -0.2787    1.2588 C   0  0  1  0  0  0  0  0  0  0  0  0
   -3.8610    0.0991    1.8073 C   0  0  0  0  0  0  0  0  0  0  0  0
   -3.5535    1.4286    2.5594 C   0  0  0  0  0  0  0  0  0  0  0  0
   -2.1398    1.7805    2.0755 C   0  0  2  0  0  0  0  0  0  0  0  0
   -1.8760    1.0377    0.7207 C   0  0  1  0  0  0  0  0  0  0  0  0
    0.1005   -0.8858    1.1043 H   0  0  0  0  0  0  0  0  0  0  0  0
    0.1426    1.8969    0.9851 H   0  0  0  0  0  0  0  0  0  0  0  0
   -0.4716    0.8820    3.4816 H   0  0  0  0  0  0  0  0  0  0  0  0
   -2.4481   -1.1552    0.6100 H   0  0  0  0  0  0  0  0  0  0  0  0
   -4.5735    0.2534    0.9888 H   0  0  0  0  0  0  0  0  0  0  0  0
   -4.2572   -0.6838    2.4584 H   0  0  0  0  0  0  0  0  0  0  0  0
   -4.2663    2.2172    2.3030 H   0  0  0  0  0  0  0  0  0  0  0  0
   -3.5872    1.3012    3.6452 H   0  0  0  0  0  0  0  0  0  0  0  0
   -1.8554    2.8318    2.1129 H   0  0  0  0  0  0  0  0  0  0  0  0
   -2.2178    1.3985   -0.2482 H   0  0  0  0  0  0  0  0  0  0  0  0
  1 10  1  0  0  0  0
  1  2  1  0  0  0  0
  2 11  1  6  0  0  0
  2  3  1  0  0  0  0
  3 12  1  1  0  0  0
  4  3  1  0  0  0  0
  5 13  1  6  0  0  0
  5  6  1  0  0  0  0
  5  4  1  0  0  0  0
  6 15  1  0  0  0  0
  6  7  1  0  0  0  0
  7 17  1  0  0  0  0
  8 18  1  1  0  0  0
  8  3  1  0  0  0  0
  8  7  1  0  0  0  0
  9 19  1  6  0  0  0
  9  2  1  0  0  0  0
  9  5  1  0  0  0  0
  9  8  1  0  0  0  0
 14  6  1  0  0  0  0
 16  7  1  0  0  0  0
M TOR 0 0 1 2 3
M TOR 1 0 1 2 7
M TOR 2 0 1 2 11
M TOR 3 0 1 8 4
M TOR 4 0 1 8 7
M TOR 5 0 1 8 18
M TOR 6 1 2 3 4
M TOR 7 1 2 7 6
M TOR 8 1 2 7 8
M TOR 9 1 2 7 17
M TOR 10 1 8 4 3
M TOR 11 1 8 4 5
M TOR 12 1 8 4 12
M TOR 13 1 8 7 6
M TOR 14 1 8 7 17
M TOR 15 2 1 0 9
M TOR 16 2 1 8 4
M TOR 17 2 1 8 18
M TOR 18 2 3 4 5
M TOR 19 2 3 4 8
M TOR 20 2 3 4 12
M TOR 21 2 7 6 5
M TOR 22 2 7 6 15
M TOR 23 2 7 6 16
M TOR 24 2 7 8 4
M TOR 25 2 7 8 18
M TOR 26 3 2 1 8
M TOR 27 3 2 1 10
M TOR 28 3 2 7 6
M TOR 29 3 2 7 8
M TOR 30 3 2 7 17
M TOR 31 3 4 5 6
M TOR 32 3 4 5 13
M TOR 33 3 4 5 14
M TOR 34 3 4 8 7
M TOR 35 3 4 8 18
M TOR 36 4 3 2 7
M TOR 37 4 3 2 11
M TOR 38 4 5 6 7
M TOR 39 4 5 6 15
M TOR 40 4 5 6 16
M TOR 41 4 8 1 10
M TOR 42 4 8 7 6
M TOR 43 4 8 7 17
M TOR 44 5 4 8 7
M TOR 45 5 4 8 18
M TOR 46 5 6 7 8
M TOR 47 5 6 7 17
M TOR 48 6 5 4 8
M TOR 49 6 5 4 12
M TOR 50 6 7 2 11
M TOR 51 6 7 8 18
M TOR 52 7 2 1 10
M TOR 53 7 6 5 13
M TOR 54 7 6 5 14
M TOR 55 7 8 1 10
M TOR 56 7 8 4 12
M TOR 57 8 1 0 9
M TOR 58 8 1 2 11
M TOR 59 8 4 5 13
M TOR 60 8 4 5 14
M TOR 61 8 7 2 11
M TOR 62 8 7 6 15
M TOR 63 8 7 6 16
M  END
$$$$
