gdb 5537	2.5848587	1.2532231	0.9686791	1.1754	76.41	-0.24184	-0.03822	0.20362	1265.13	0.155039	-422.493061	-422.484207	-422.483263	-422.527181	32.238
 OpenBabel02181911423D

 19 20  0  0  1  0  0  0  0  0999 V2000
    2.1207   -0.9338    1.2930 C   0  0  0  0  0  0  0  0  0  0  0  0
    1.8575   -2.3068    0.6632 C   0  0  0  0  0  0  0  0  0  0  0  0
    2.0987   -2.3136   -0.8372 C   0  0  1  0  0  0  0  0  0  0  0  0
    1.4993   -3.4635   -1.6900 C   0  0  1  0  0  0  0  0  0  0  0  0
    0.1470   -2.9232   -1.4620 O   0  0  0  0  0  0  0  0  0  0  0  0
    1.0003   -1.7483   -1.7891 C   0  0  2  0  0  0  0  0  0  0  0  0
    1.5760   -2.5598   -2.9756 C   0  0  1  0  0  0  0  0  0  0  0  0
    2.8794   -2.2375   -3.6488 C   0  0  0  0  0  0  0  0  0  0  0  0
    3.6094   -1.3183   -3.3678 O   0  0  0  0  0  0  0  0  0  0  0  0
    1.9650   -0.9621    2.3756 H   0  0  0  0  0  0  0  0  0  0  0  0
    3.1484   -0.6007    1.1115 H   0  0  0  0  0  0  0  0  0  0  0  0
    1.4495   -0.1724    0.8816 H   0  0  0  0  0  0  0  0  0  0  0  0
    2.5187   -3.0513    1.1258 H   0  0  0  0  0  0  0  0  0  0  0  0
    0.8306   -2.6259    0.8615 H   0  0  0  0  0  0  0  0  0  0  0  0
    3.1163   -2.0134   -1.0953 H   0  0  0  0  0  0  0  0  0  0  0  0
    1.6315   -4.5440   -1.6172 H   0  0  0  0  0  0  0  0  0  0  0  0
    0.5221   -0.7694   -1.8086 H   0  0  0  0  0  0  0  0  0  0  0  0
    0.8216   -2.8632   -3.7070 H   0  0  0  0  0  0  0  0  0  0  0  0
    3.1415   -2.9377   -4.4754 H   0  0  0  0  0  0  0  0  0  0  0  0
  1 10  1  0  0  0  0
  2 14  1  0  0  0  0
  2 13  1  0  0  0  0
  2  1  1  0  0  0  0
  3 15  1  6  0  0  0
  3  2  1  0  0  0  0
  4 16  1  1  0  0  0
  4  5  1  0  0  0  0
  4  3  1  0  0  0  0
  6 17  1  6  0  0  0
  6  5  1  0  0  0  0
  6  3  1  0  0  0  0
  7 18  1  6  0  0  0
  7  6  1  0  0  0  0
  7  4  1  0  0  0  0
  8  9  2  0  0  0  0
  8  7  1  0  0  0  0
 11  1  1  0  0  0  0
 12  1  1  0  0  0  0
 19  8  1  0  0  0  0
M TOR 0 0 1 2 3
M TOR 1 0 1 2 5
M TOR 2 0 1 2 14
M TOR 3 1 2 3 4
M TOR 4 1 2 3 6
M TOR 5 1 2 3 15
M TOR 6 1 2 5 4
M TOR 7 1 2 5 6
M TOR 8 1 2 5 16
M TOR 9 2 1 0 9
M TOR 10 2 1 0 10
M TOR 11 2 1 0 11
M TOR 12 2 3 4 5
M TOR 13 2 3 6 5
M TOR 14 2 3 6 7
M TOR 15 2 3 6 17
M TOR 16 2 5 6 7
M TOR 17 2 5 6 17
M TOR 18 3 2 1 12
M TOR 19 3 2 1 13
M TOR 20 3 2 5 16
M TOR 21 3 4 5 6
M TOR 22 3 4 5 16
M TOR 23 3 6 5 16
M TOR 24 3 6 7 8
M TOR 25 3 6 7 18
M TOR 26 4 3 2 14
M TOR 27 4 3 6 7
M TOR 28 4 3 6 17
M TOR 29 4 5 2 14
M TOR 30 4 5 6 7
M TOR 31 4 5 6 17
M TOR 32 5 2 1 12
M TOR 33 5 2 1 13
M TOR 34 5 2 3 15
M TOR 35 5 4 3 15
M TOR 36 5 6 3 15
M TOR 37 5 6 7 8
M TOR 38 5 6 7 18
M TOR 39 6 3 2 14
M TOR 40 6 5 2 14
M TOR 41 7 6 3 15
M TOR 42 7 6 5 16
M TOR 43 8 7 6 17
M  END
$$$$
