gdb 5400	2.340624	1.3987623	0.9680024	2.4457	76.18	-0.24285	-0.02949	0.21336000000000002	1245.9511	0.154372	-422.540035	-422.53079	-422.529846	-422.574813	33.556
 OpenBabel02181911423D

 19 20  0  0  1  0  0  0  0  0999 V2000
    2.7785    1.5071   -0.0837 C   0  0  0  0  0  0  0  0  0  0  0  0
    2.0002    0.1946    0.0461 C   0  0  0  0  0  0  0  0  0  0  0  0
    1.9543   -0.5903   -1.2686 C   0  0  2  0  0  0  0  0  0  0  0  0
    1.0240   -0.0463   -2.3763 C   0  0  0  0  0  0  0  0  0  0  0  0
    0.9373    1.0079   -2.9367 O   0  0  0  0  0  0  0  0  0  0  0  0
    0.2187   -1.3619   -2.4525 C   0  0  0  0  0  0  0  0  0  0  0  0
    1.1022   -1.8786   -1.3063 C   0  0  1  0  0  0  0  0  0  0  0  0
    1.4473   -3.2424   -0.9152 C   0  0  0  0  0  0  0  0  0  0  0  0
    0.5497   -2.4431   -0.1285 O   0  0  0  0  0  0  0  0  0  0  0  0
    2.7632    2.0641    0.8579 H   0  0  0  0  0  0  0  0  0  0  0  0
    3.8261    1.3205   -0.3453 H   0  0  0  0  0  0  0  0  0  0  0  0
    2.3482    2.1399   -0.8648 H   0  0  0  0  0  0  0  0  0  0  0  0
    2.4467   -0.4456    0.8159 H   0  0  0  0  0  0  0  0  0  0  0  0
    0.9758    0.3950    0.3804 H   0  0  0  0  0  0  0  0  0  0  0  0
    2.9711   -0.7440   -1.6539 H   0  0  0  0  0  0  0  0  0  0  0  0
   -0.8422   -1.2598   -2.2045 H   0  0  0  0  0  0  0  0  0  0  0  0
    0.3096   -1.8860   -3.4088 H   0  0  0  0  0  0  0  0  0  0  0  0
    0.9894   -4.0873   -1.4280 H   0  0  0  0  0  0  0  0  0  0  0  0
    2.4133   -3.4466   -0.4546 H   0  0  0  0  0  0  0  0  0  0  0  0
  1  2  1  0  0  0  0
  1 10  1  0  0  0  0
  2 14  1  0  0  0  0
  2 13  1  0  0  0  0
  3 15  1  6  0  0  0
  3  2  1  0  0  0  0
  4  3  1  0  0  0  0
  5  4  2  0  0  0  0
  6  4  1  0  0  0  0
  6 16  1  0  0  0  0
  6  7  1  0  0  0  0
  7  3  1  0  0  0  0
  7  8  1  0  0  0  0
  7  9  1  1  0  0  0
  8 19  1  0  0  0  0
  8  9  1  0  0  0  0
 11  1  1  0  0  0  0
 12  1  1  0  0  0  0
 17  6  1  0  0  0  0
 18  8  1  0  0  0  0
M TOR 0 0 1 2 3
M TOR 1 0 1 2 6
M TOR 2 0 1 2 14
M TOR 3 1 2 3 4
M TOR 4 1 2 3 5
M TOR 5 1 2 6 5
M TOR 6 1 2 6 7
M TOR 7 1 2 6 8
M TOR 8 2 1 0 9
M TOR 9 2 1 0 10
M TOR 10 2 1 0 11
M TOR 11 2 3 5 6
M TOR 12 2 3 5 15
M TOR 13 2 3 5 16
M TOR 14 2 6 5 15
M TOR 15 2 6 5 16
M TOR 16 2 6 7 8
M TOR 17 2 6 7 17
M TOR 18 2 6 7 18
M TOR 19 3 2 1 12
M TOR 20 3 2 1 13
M TOR 21 3 2 6 7
M TOR 22 3 2 6 8
M TOR 23 3 5 6 7
M TOR 24 3 5 6 8
M TOR 25 4 3 2 6
M TOR 26 4 3 2 14
M TOR 27 4 3 5 6
M TOR 28 4 3 5 15
M TOR 29 4 3 5 16
M TOR 30 5 3 2 14
M TOR 31 5 6 2 14
M TOR 32 5 6 7 8
M TOR 33 5 6 7 17
M TOR 34 5 6 7 18
M TOR 35 6 2 1 12
M TOR 36 6 2 1 13
M TOR 37 6 8 7 17
M TOR 38 6 8 7 18
M TOR 39 7 6 2 14
M TOR 40 7 6 5 15
M TOR 41 7 6 5 16
M TOR 42 8 6 2 14
M TOR 43 8 6 5 15
M TOR 44 8 6 5 16
M  END
$$$$
