gdb 605	2.2001828	2.1985369	1.8897776	2.24	73.26	-0.21366	0.0708	0.28446	880.2544	0.160802	-422.53802	-422.531189	-422.530245	-422.56912	27.596
 OpenBabel02181911403D

 19 21  0  0  1  0  0  0  0  0999 V2000
   -1.3715    1.2680   -1.2969 C   0  0  0  0  0  0  0  0  0  0  0  0
   -1.6885    2.4205   -0.5261 O   0  0  0  0  0  0  0  0  0  0  0  0
   -0.6430    3.0798    0.1293 C   0  0  2  0  0  0  0  0  0  0  0  0
    0.8025    2.6395   -0.0120 C   0  0  2  0  0  0  0  0  0  0  0  0
    1.0834    1.4706   -0.9309 C   0  0  0  0  0  0  0  0  0  0  0  0
   -0.1180    0.5223   -0.8211 C   0  0  1  0  0  0  0  0  0  0  0  0
   -0.2190    0.0307    0.6287 C   0  0  0  0  0  0  0  0  0  0  0  0
   -0.4266    1.0673    1.5800 O   0  0  0  0  0  0  0  0  0  0  0  0
    0.0384    2.3492    1.2666 C   0  0  2  0  0  0  0  0  0  0  0  0
   -2.2555    0.6227   -1.2455 H   0  0  0  0  0  0  0  0  0  0  0  0
   -1.2272    1.5540   -2.3514 H   0  0  0  0  0  0  0  0  0  0  0  0
   -0.8656    4.1376    0.2281 H   0  0  0  0  0  0  0  0  0  0  0  0
    1.5588    3.4180    0.0349 H   0  0  0  0  0  0  0  0  0  0  0  0
    1.2123    1.8127   -1.9647 H   0  0  0  0  0  0  0  0  0  0  0  0
    2.0074    0.9592   -0.6360 H   0  0  0  0  0  0  0  0  0  0  0  0
    0.0202   -0.3533   -1.4664 H   0  0  0  0  0  0  0  0  0  0  0  0
   -1.0610   -0.6596    0.7514 H   0  0  0  0  0  0  0  0  0  0  0  0
    0.7034   -0.5201    0.8745 H   0  0  0  0  0  0  0  0  0  0  0  0
    0.2985    2.8889    2.1717 H   0  0  0  0  0  0  0  0  0  0  0  0
  1 10  1  0  0  0  0
  1  6  1  0  0  0  0
  1  2  1  0  0  0  0
  2  3  1  0  0  0  0
  3 12  1  1  0  0  0
  3  9  1  0  0  0  0
  4 13  1  1  0  0  0
  4  3  1  0  0  0  0
  4  9  1  0  0  0  0
  5  6  1  0  0  0  0
  5 15  1  0  0  0  0
  5  4  1  0  0  0  0
  6 16  1  6  0  0  0
  6  7  1  0  0  0  0
  7 17  1  0  0  0  0
  7 18  1  0  0  0  0
  7  8  1  0  0  0  0
  9  8  1  0  0  0  0
  9 19  1  1  0  0  0
 11  1  1  0  0  0  0
 14  5  1  0  0  0  0
M TOR 0 0 1 2 3
M TOR 1 0 1 2 8
M TOR 2 0 1 2 11
M TOR 3 0 5 4 3
M TOR 4 0 5 4 13
M TOR 5 0 5 4 14
M TOR 6 0 5 6 7
M TOR 7 0 5 6 16
M TOR 8 0 5 6 17
M TOR 9 1 0 5 4
M TOR 10 1 0 5 6
M TOR 11 1 0 5 15
M TOR 12 1 2 3 4
M TOR 13 1 2 3 8
M TOR 14 1 2 3 12
M TOR 15 1 2 8 7
M TOR 16 1 2 8 18
M TOR 17 2 1 0 5
M TOR 18 2 1 0 9
M TOR 19 2 1 0 10
M TOR 20 2 3 4 5
M TOR 21 2 3 4 13
M TOR 22 2 3 4 14
M TOR 23 2 3 8 7
M TOR 24 2 3 8 18
M TOR 25 2 8 3 4
M TOR 26 2 8 3 12
M TOR 27 2 8 7 6
M TOR 28 3 4 5 6
M TOR 29 3 4 5 15
M TOR 30 3 8 2 11
M TOR 31 3 8 7 6
M TOR 32 4 3 2 11
M TOR 33 4 3 8 7
M TOR 34 4 3 8 18
M TOR 35 4 5 0 9
M TOR 36 4 5 0 10
M TOR 37 4 5 6 7
M TOR 38 4 5 6 16
M TOR 39 4 5 6 17
M TOR 40 5 4 3 8
M TOR 41 5 4 3 12
M TOR 42 5 6 7 8
M TOR 43 6 5 0 9
M TOR 44 6 5 0 10
M TOR 45 6 5 4 13
M TOR 46 6 5 4 14
M TOR 47 6 7 8 18
M TOR 48 7 6 5 15
M TOR 49 7 8 2 11
M TOR 50 7 8 3 12
M TOR 51 8 3 4 13
M TOR 52 8 3 4 14
M TOR 53 8 7 6 16
M TOR 54 8 7 6 17
M  END
$$$$
