
     RDKit          3D

 19 20  0  0  0  0  0  0  0  0999 V2000
    0.9474   -0.4725   -1.0452 C   0  0  0  0  0  0  0  0  0  0  0  0
    0.9831    0.2576    0.2797 C   0  0  0  0  0  0  0  0  0  0  0  0
    1.7982    1.4577    0.2529 O   0  0  0  0  0  0  0  0  0  0  0  0
    2.4731    1.0885    1.4633 C   0  0  0  0  0  0  0  0  0  0  0  0
    3.8316    0.3972    1.2259 C   0  0  0  0  0  0  0  0  0  0  0  0
    3.1248   -0.9931    1.2159 C   0  0  0  0  0  0  0  0  0  0  0  0
    1.7588   -0.3196    1.4935 C   0  0  0  0  0  0  0  0  0  0  0  0
    0.9668   -0.7783    2.6705 C   0  0  0  0  0  0  0  0  0  0  0  0
    1.3152   -1.6338    3.4474 O   0  0  0  0  0  0  0  0  0  0  0  0
    0.3420   -1.3817   -0.9650 H   0  0  0  0  0  0  0  0  0  0  0  0
    0.4964    0.1716   -1.8066 H   0  0  0  0  0  0  0  0  0  0  0  0
    1.9498   -0.7447   -1.3848 H   0  0  0  0  0  0  0  0  0  0  0  0
   -0.0427    0.5221    0.5823 H   0  0  0  0  0  0  0  0  0  0  0  0
    2.3833    1.8461    2.2468 H   0  0  0  0  0  0  0  0  0  0  0  0
    4.3084    0.7094    0.2947 H   0  0  0  0  0  0  0  0  0  0  0  0
    4.5374    0.5238    2.0507 H   0  0  0  0  0  0  0  0  0  0  0  0
    3.1916   -1.5661    0.2895 H   0  0  0  0  0  0  0  0  0  0  0  0
    3.4114   -1.6400    2.0463 H   0  0  0  0  0  0  0  0  0  0  0  0
    0.0010   -0.2386    2.8122 H   0  0  0  0  0  0  0  0  0  0  0  0
  1  2  1  0
  2  3  1  0
  3  4  1  0
  4  5  1  0
  5  6  1  0
  6  7  1  0
  7  8  1  0
  8  9  2  0
  7  2  1  0
  7  4  1  0
  1 10  1  0
  1 11  1  0
  1 12  1  0
  2 13  1  0
  4 14  1  0
  5 15  1  0
  5 16  1  0
  6 17  1  0
  6 18  1  0
  8 19  1  0
M  END
$$$$
