
     RDKit          3D

 19 21  0  0  0  0  0  0  0  0999 V2000
    0.0179    0.0101    0.4975 C   0  0  0  0  0  0  0  0  0  0  0  0
    1.3919    0.0653   -0.1126 C   0  0  0  0  0  0  0  0  0  0  0  0
    2.1067    1.4095   -0.2875 C   0  0  0  0  0  0  0  0  0  0  0  0
    3.1122    1.2164   -1.4256 C   0  0  0  0  0  0  0  0  0  0  0  0
    4.2462    0.2151   -1.2874 C   0  0  0  0  0  0  0  0  0  0  0  0
    2.9669   -0.1795   -1.9784 C   0  0  0  0  0  0  0  0  0  0  0  0
    2.9069   -0.3986   -3.3537 O   0  0  0  0  0  0  0  0  0  0  0  0
    1.9251   -0.8732   -1.1164 C   0  0  0  0  0  0  0  0  0  0  0  0
    2.2870   -1.0014    0.2664 O   0  0  0  0  0  0  0  0  0  0  0  0
    0.0330    0.3925    1.5244 H   0  0  0  0  0  0  0  0  0  0  0  0
   -0.6889    0.6184   -0.0764 H   0  0  0  0  0  0  0  0  0  0  0  0
   -0.3463   -1.0198    0.5258 H   0  0  0  0  0  0  0  0  0  0  0  0
    1.3725    2.1735   -0.5671 H   0  0  0  0  0  0  0  0  0  0  0  0
    2.5717    1.7334    0.6504 H   0  0  0  0  0  0  0  0  0  0  0  0
    3.2782    2.0405   -2.1098 H   0  0  0  0  0  0  0  0  0  0  0  0
    5.1012    0.3891   -1.9326 H   0  0  0  0  0  0  0  0  0  0  0  0
    4.4632   -0.2181   -0.3188 H   0  0  0  0  0  0  0  0  0  0  0  0
    3.4066   -1.1988   -3.5498 H   0  0  0  0  0  0  0  0  0  0  0  0
    1.3552   -1.6957   -1.5429 H   0  0  0  0  0  0  0  0  0  0  0  0
  1  2  1  0
  2  3  1  0
  3  4  1  0
  4  5  1  0
  5  6  1  0
  6  7  1  0
  6  8  1  0
  8  9  1  0
  8  2  1  0
  9  2  1  0
  6  4  1  0
  1 10  1  0
  1 11  1  0
  1 12  1  0
  3 13  1  0
  3 14  1  0
  4 15  1  0
  5 16  1  0
  5 17  1  0
  7 18  1  0
  8 19  1  0
M  END
$$$$
