
     RDKit          3D

 19 19  0  0  0  0  0  0  0  0999 V2000
    1.4246    0.7866    0.1984 O   0  0  0  0  0  0  0  0  0  0  0  0
    0.0185    0.5981    0.2555 C   0  0  0  0  0  0  0  0  0  0  0  0
   -0.5773    0.2700   -1.1111 C   0  0  0  0  0  0  0  0  0  0  0  0
   -0.7334    1.4975   -2.0552 C   0  0  0  0  0  0  0  0  0  0  0  0
   -2.2387    1.5976   -1.6398 C   0  0  0  0  0  0  0  0  0  0  0  0
   -3.2330    1.9149   -2.6418 C   0  0  0  0  0  0  0  0  0  0  0  0
   -4.0458    2.1569   -3.4948 C   0  0  0  0  0  0  0  0  0  0  0  0
   -2.1344    0.1400   -1.1123 C   0  0  0  0  0  0  0  0  0  0  0  0
   -2.8064   -0.0635    0.1068 O   0  0  0  0  0  0  0  0  0  0  0  0
    1.5987    1.5336   -0.3831 H   0  0  0  0  0  0  0  0  0  0  0  0
   -0.1426   -0.2392    0.9411 H   0  0  0  0  0  0  0  0  0  0  0  0
   -0.4847    1.4703    0.7001 H   0  0  0  0  0  0  0  0  0  0  0  0
   -0.0318   -0.5793   -1.5316 H   0  0  0  0  0  0  0  0  0  0  0  0
   -0.1215    2.3797   -1.8465 H   0  0  0  0  0  0  0  0  0  0  0  0
   -0.6232    1.2392   -3.1098 H   0  0  0  0  0  0  0  0  0  0  0  0
   -2.3447    2.2597   -0.7741 H   0  0  0  0  0  0  0  0  0  0  0  0
   -4.7694    2.3773   -4.2398 H   0  0  0  0  0  0  0  0  0  0  0  0
   -2.4697   -0.5669   -1.8811 H   0  0  0  0  0  0  0  0  0  0  0  0
   -2.8744   -1.0091    0.2702 H   0  0  0  0  0  0  0  0  0  0  0  0
  1  2  1  0
  2  3  1  0
  3  4  1  0
  4  5  1  0
  5  6  1  0
  6  7  3  0
  5  8  1  0
  8  9  1  0
  8  3  1  0
  1 10  1  0
  2 11  1  0
  2 12  1  0
  3 13  1  0
  4 14  1  0
  4 15  1  0
  5 16  1  0
  7 17  1  0
  8 18  1  0
  9 19  1  0
M  END
$$$$
