gdb 590	2.8710271	2.0416686	1.7642532	2.2076	72.57	-0.24609	0.08222	0.32831	867.7023	0.161752	-422.595004	-422.588766	-422.587822	-422.625394	26.354
 OpenBabel02181911403D

 19 21  0  0  1  0  0  0  0  0999 V2000
   -0.6765    1.2763    0.9884 C   0  0  0  0  0  0  0  0  0  0  0  0
    0.5269    2.0780    1.5568 C   0  0  0  0  0  0  0  0  0  0  0  0
    1.7719    1.3356    1.0524 C   0  0  2  0  0  0  0  0  0  0  0  0
    2.1077    1.7642   -0.2940 O   0  0  0  0  0  0  0  0  0  0  0  0
    1.7201    0.6904   -1.1353 C   0  0  1  0  0  0  0  0  0  0  0  0
    2.1878   -0.5513   -0.3744 C   0  0  0  0  0  0  0  0  0  0  0  0
    1.3416   -0.1382    0.8342 C   0  0  2  0  0  0  0  0  0  0  0  0
   -0.0460    0.1246    0.1935 C   0  0  2  0  0  0  0  0  0  0  0  0
    0.3076    0.5651   -1.1444 O   0  0  0  0  0  0  0  0  0  0  0  0
   -1.2993    0.8750    1.7945 H   0  0  0  0  0  0  0  0  0  0  0  0
   -1.3224    1.8702    0.3384 H   0  0  0  0  0  0  0  0  0  0  0  0
    0.5498    3.1173    1.2227 H   0  0  0  0  0  0  0  0  0  0  0  0
    0.5152    2.0839    2.6517 H   0  0  0  0  0  0  0  0  0  0  0  0
    2.6522    1.4760    1.6873 H   0  0  0  0  0  0  0  0  0  0  0  0
    2.0691    0.8846   -2.1478 H   0  0  0  0  0  0  0  0  0  0  0  0
    1.8723   -1.4858   -0.8427 H   0  0  0  0  0  0  0  0  0  0  0  0
    3.2631   -0.5593   -0.1856 H   0  0  0  0  0  0  0  0  0  0  0  0
    1.3425   -0.7692    1.7220 H   0  0  0  0  0  0  0  0  0  0  0  0
   -0.6940   -0.7529    0.1064 H   0  0  0  0  0  0  0  0  0  0  0  0
  1  2  1  0  0  0  0
  1 10  1  0  0  0  0
  2 13  1  0  0  0  0
  3  2  1  0  0  0  0
  3 14  1  1  0  0  0
  4  3  1  0  0  0  0
  5 15  1  6  0  0  0
  5  6  1  0  0  0  0
  5  4  1  0  0  0  0
  6 17  1  0  0  0  0
  6  7  1  0  0  0  0
  7  3  1  0  0  0  0
  7 18  1  1  0  0  0
  8 19  1  6  0  0  0
  8  7  1  0  0  0  0
  8  1  1  0  0  0  0
  9  5  1  0  0  0  0
  9  8  1  0  0  0  0
 11  1  1  0  0  0  0
 12  2  1  0  0  0  0
 16  6  1  0  0  0  0
M TOR 0 0 1 2 3
M TOR 1 0 1 2 6
M TOR 2 0 1 2 13
M TOR 3 0 7 6 2
M TOR 4 0 7 6 5
M TOR 5 0 7 6 17
M TOR 6 0 7 8 4
M TOR 7 1 0 7 6
M TOR 8 1 0 7 8
M TOR 9 1 0 7 18
M TOR 10 1 2 3 4
M TOR 11 1 2 6 5
M TOR 12 1 2 6 7
M TOR 13 1 2 6 17
M TOR 14 2 1 0 7
M TOR 15 2 1 0 9
M TOR 16 2 1 0 10
M TOR 17 2 3 4 5
M TOR 18 2 3 4 8
M TOR 19 2 3 4 14
M TOR 20 2 6 5 4
M TOR 21 2 6 5 15
M TOR 22 2 6 5 16
M TOR 23 2 6 7 8
M TOR 24 2 6 7 18
M TOR 25 3 2 1 11
M TOR 26 3 2 1 12
M TOR 27 3 2 6 5
M TOR 28 3 2 6 7
M TOR 29 3 2 6 17
M TOR 30 3 4 5 6
M TOR 31 3 4 5 15
M TOR 32 3 4 5 16
M TOR 33 3 4 8 7
M TOR 34 4 3 2 6
M TOR 35 4 3 2 13
M TOR 36 4 5 6 7
M TOR 37 4 5 6 17
M TOR 38 4 8 7 6
M TOR 39 4 8 7 18
M TOR 40 5 4 8 7
M TOR 41 5 6 2 13
M TOR 42 5 6 7 8
M TOR 43 5 6 7 18
M TOR 44 6 2 1 11
M TOR 45 6 2 1 12
M TOR 46 6 5 4 8
M TOR 47 6 5 4 14
M TOR 48 6 7 0 9
M TOR 49 6 7 0 10
M TOR 50 7 0 1 11
M TOR 51 7 0 1 12
M TOR 52 7 6 2 13
M TOR 53 7 6 5 15
M TOR 54 7 6 5 16
M TOR 55 7 8 4 14
M TOR 56 8 4 5 15
M TOR 57 8 4 5 16
M TOR 58 8 7 0 9
M TOR 59 8 7 0 10
M TOR 60 8 7 6 17
M  END
$$$$
