gdb 5320	2.5479354	1.4863394	0.9991352	3.0969	79.06	-0.2245	0.01349	0.23799	1187.2997	0.157148	-422.521011	-422.512437	-422.511493	-422.554506	31.634
 OpenBabel02181911423D

 19 20  0  0  1  0  0  0  0  0999 V2000
   -0.0855    1.4460    0.0651 O   0  0  0  0  0  0  0  0  0  0  0  0
   -0.0349    0.0303    0.0328 C   0  0  0  0  0  0  0  0  0  0  0  0
   -1.4168   -0.5037   -0.1293 C   0  0  2  0  0  3  0  0  0  0  0  0
   -2.5570    0.1681   -0.2525 C   0  0  2  0  0  3  0  0  0  0  0  0
   -3.3447    1.3374    0.2739 C   0  0  0  0  0  0  0  0  0  0  0  0
   -4.3512    0.3859    0.7525 O   0  0  0  0  0  0  0  0  0  0  0  0
   -3.7718   -0.6796   -0.0806 C   0  0  2  0  0  0  0  0  0  0  0  0
   -3.2227   -1.9845    0.5182 C   0  0  0  0  0  0  0  0  0  0  0  0
   -1.7487   -1.9956   -0.0132 C   0  0  0  0  0  0  0  0  0  0  0  0
    0.8141    1.7783    0.1317 H   0  0  0  0  0  0  0  0  0  0  0  0
    0.6040   -0.3329   -0.7925 H   0  0  0  0  0  0  0  0  0  0  0  0
    0.4050   -0.3792    0.9605 H   0  0  0  0  0  0  0  0  0  0  0  0
   -2.8861    1.9191    1.0783 H   0  0  0  0  0  0  0  0  0  0  0  0
   -3.7740    2.0143   -0.4762 H   0  0  0  0  0  0  0  0  0  0  0  0
   -4.4173   -0.8427   -0.9550 H   0  0  0  0  0  0  0  0  0  0  0  0
   -3.2163   -1.8937    1.6090 H   0  0  0  0  0  0  0  0  0  0  0  0
   -3.7869   -2.8817    0.2485 H   0  0  0  0  0  0  0  0  0  0  0  0
   -1.6727   -2.5229   -0.9740 H   0  0  0  0  0  0  0  0  0  0  0  0
   -1.0654   -2.5083    0.6738 H   0  0  0  0  0  0  0  0  0  0  0  0
  1 10  1  0  0  0  0
  2  1  1  0  0  0  0
  2 12  1  0  0  0  0
  3  9  1  0  0  0  0
  3  2  1  1  0  0  0
  4  3  1  0  0  0  0
  4  7  1  0  0  0  0
  4  5  1  1  0  0  0
  5  6  1  0  0  0  0
  5 13  1  0  0  0  0
  7 15  1  6  0  0  0
  7  8  1  0  0  0  0
  7  6  1  0  0  0  0
  8 16  1  0  0  0  0
  9  8  1  0  0  0  0
  9 19  1  0  0  0  0
 11  2  1  0  0  0  0
 14  5  1  0  0  0  0
 17  8  1  0  0  0  0
 18  9  1  0  0  0  0
M TOR 0 0 1 2 3
M TOR 1 0 1 2 8
M TOR 2 1 2 3 4
M TOR 3 1 2 3 6
M TOR 4 1 2 8 7
M TOR 5 1 2 8 17
M TOR 6 1 2 8 18
M TOR 7 2 1 0 9
M TOR 8 2 3 4 5
M TOR 9 2 3 4 12
M TOR 10 2 3 4 13
M TOR 11 2 3 6 5
M TOR 12 2 3 6 7
M TOR 13 2 3 6 14
M TOR 14 2 8 7 6
M TOR 15 2 8 7 15
M TOR 16 2 8 7 16
M TOR 17 3 2 1 10
M TOR 18 3 2 1 11
M TOR 19 3 2 8 7
M TOR 20 3 2 8 17
M TOR 21 3 2 8 18
M TOR 22 3 4 5 6
M TOR 23 3 6 7 8
M TOR 24 3 6 7 15
M TOR 25 3 6 7 16
M TOR 26 4 3 2 8
M TOR 27 4 3 6 7
M TOR 28 4 3 6 14
M TOR 29 4 5 6 7
M TOR 30 4 5 6 14
M TOR 31 5 6 7 8
M TOR 32 5 6 7 15
M TOR 33 5 6 7 16
M TOR 34 6 3 2 8
M TOR 35 6 3 4 12
M TOR 36 6 3 4 13
M TOR 37 6 5 4 12
M TOR 38 6 5 4 13
M TOR 39 6 7 8 17
M TOR 40 6 7 8 18
M TOR 41 8 2 1 10
M TOR 42 8 2 1 11
M TOR 43 8 7 6 14
M  END
$$$$
