
     RDKit          3D

 19 20  0  0  0  0  0  0  0  0999 V2000
   -3.5467   -1.3460   -0.3325 C   0  0  0  0  0  0  0  0  0  0  0  0
   -2.2907   -0.7565    0.2396 C   0  0  0  0  0  0  0  0  0  0  0  0
   -1.5113   -1.3857    1.3471 C   0  0  0  0  0  0  0  0  0  0  0  0
   -0.8782   -1.2325   -0.0520 C   0  0  0  0  0  0  0  0  0  0  0  0
   -0.4577   -2.4320   -0.8616 C   0  0  0  0  0  0  0  0  0  0  0  0
   -0.0878    0.0267   -0.1906 C   0  0  0  0  0  0  0  0  0  0  0  0
    1.0454    0.1345   -0.5886 O   0  0  0  0  0  0  0  0  0  0  0  0
   -1.0175    1.1866    0.1900 C   0  0  0  0  0  0  0  0  0  0  0  0
   -2.3327    0.6614    0.2569 O   0  0  0  0  0  0  0  0  0  0  0  0
   -4.4114   -1.0373    0.2636 H   0  0  0  0  0  0  0  0  0  0  0  0
   -3.7013   -1.0032   -1.3599 H   0  0  0  0  0  0  0  0  0  0  0  0
   -3.5025   -2.4379   -0.3287 H   0  0  0  0  0  0  0  0  0  0  0  0
   -1.1549   -0.7680    2.1647 H   0  0  0  0  0  0  0  0  0  0  0  0
   -1.7513   -2.4073    1.6235 H   0  0  0  0  0  0  0  0  0  0  0  0
   -1.1029   -3.2933   -0.6677 H   0  0  0  0  0  0  0  0  0  0  0  0
   -0.4880   -2.2172   -1.9344 H   0  0  0  0  0  0  0  0  0  0  0  0
    0.5704   -2.7111   -0.6112 H   0  0  0  0  0  0  0  0  0  0  0  0
   -0.7053    1.6238    1.1497 H   0  0  0  0  0  0  0  0  0  0  0  0
   -0.9710    1.9743   -0.5690 H   0  0  0  0  0  0  0  0  0  0  0  0
  1  2  1  0
  2  3  1  0
  3  4  1  0
  4  5  1  0
  4  6  1  0
  6  7  2  0
  6  8  1  0
  8  9  1  0
  4  2  1  0
  9  2  1  0
  1 10  1  0
  1 11  1  0
  1 12  1  0
  3 13  1  0
  3 14  1  0
  5 15  1  0
  5 16  1  0
  5 17  1  0
  8 18  1  0
  8 19  1  0
M  END
$$$$
