
     RDKit          3D

 19 21  0  0  0  0  0  0  0  0999 V2000
    0.4108   -0.2855    0.2318 O   0  0  0  0  0  0  0  0  0  0  0  0
   -0.5831    0.5895    0.6762 C   0  0  0  0  0  0  0  0  0  0  0  0
   -2.0306    0.1654    0.6125 C   0  0  0  0  0  0  0  0  0  0  0  0
   -2.9034    0.8362    1.4897 O   0  0  0  0  0  0  0  0  0  0  0  0
   -3.2008    2.1158    0.9424 C   0  0  0  0  0  0  0  0  0  0  0  0
   -4.3393    2.1829   -0.1181 C   0  0  0  0  0  0  0  0  0  0  0  0
   -3.3337    2.7928   -1.1358 C   0  0  0  0  0  0  0  0  0  0  0  0
   -2.1603    2.4674   -0.1660 C   0  0  0  0  0  0  0  0  0  0  0  0
   -1.4790    1.1310   -0.4098 C   0  0  0  0  0  0  0  0  0  0  0  0
    0.5459   -0.9508    0.9154 H   0  0  0  0  0  0  0  0  0  0  0  0
   -0.3089    1.2583    1.4944 H   0  0  0  0  0  0  0  0  0  0  0  0
   -2.2998   -0.8605    0.3824 H   0  0  0  0  0  0  0  0  0  0  0  0
   -3.3061    2.8190    1.7714 H   0  0  0  0  0  0  0  0  0  0  0  0
   -4.6888    1.1845   -0.3901 H   0  0  0  0  0  0  0  0  0  0  0  0
   -5.2048    2.7963    0.1418 H   0  0  0  0  0  0  0  0  0  0  0  0
   -3.2869    2.3230   -2.1213 H   0  0  0  0  0  0  0  0  0  0  0  0
   -3.4690    3.8679   -1.2747 H   0  0  0  0  0  0  0  0  0  0  0  0
   -1.4528    3.2768    0.0335 H   0  0  0  0  0  0  0  0  0  0  0  0
   -1.2668    0.8026   -1.4213 H   0  0  0  0  0  0  0  0  0  0  0  0
  1  2  1  0
  2  3  1  0
  3  4  1  0
  4  5  1  0
  5  6  1  0
  6  7  1  0
  7  8  1  0
  8  9  1  0
  9  2  1  0
  9  3  1  0
  8  5  1  0
  1 10  1  0
  2 11  1  0
  3 12  1  0
  5 13  1  0
  6 14  1  0
  6 15  1  0
  7 16  1  0
  7 17  1  0
  8 18  1  0
  9 19  1  0
M  END
$$$$
