gdb 5176	4.0787032	1.1934926	1.1266173	0.8555	75.35	-0.21415	0.0823	0.29645	1162.5626	0.154885	-422.480894	-422.472264	-422.47132	-422.513962	32.65
 OpenBabel02181911423D

 19 21  0  0  1  0  0  0  0  0999 V2000
    1.6075   -0.0147    0.0949 C   0  0  0  0  0  0  0  0  0  0  0  0
    0.1914   -0.1013    0.1592 O   0  0  0  0  0  0  0  0  0  0  0  0
   -0.3611    0.7003    1.1235 C   0  0  2  0  0  0  0  0  0  0  0  0
   -0.5489    2.2199    1.1230 C   0  0  0  0  0  0  0  0  0  0  0  0
   -1.5089    1.9497    2.3193 C   0  0  2  0  0  0  0  0  0  0  0  0
   -2.5549    2.9148    2.7803 C   0  0  0  0  0  0  0  0  0  0  0  0
   -0.5982    1.4987    3.3789 O   0  0  0  0  0  0  0  0  0  0  0  0
   -0.4388    0.3051    2.6175 C   0  0  1  0  0  0  0  0  0  0  0  0
   -1.6888    0.4604    1.8130 C   0  0  2  0  0  0  0  0  0  0  0  0
    2.0689   -0.2891    1.0530 H   0  0  0  0  0  0  0  0  0  0  0  0
    1.9333   -0.7132   -0.6785 H   0  0  0  0  0  0  0  0  0  0  0  0
    1.9372    0.9978   -0.1752 H   0  0  0  0  0  0  0  0  0  0  0  0
    0.3025    2.8765    1.3284 H   0  0  0  0  0  0  0  0  0  0  0  0
   -1.0941    2.5482    0.2340 H   0  0  0  0  0  0  0  0  0  0  0  0
   -3.1517    2.4813    3.5876 H   0  0  0  0  0  0  0  0  0  0  0  0
   -2.0818    3.8291    3.1548 H   0  0  0  0  0  0  0  0  0  0  0  0
   -3.2204    3.1845    1.9550 H   0  0  0  0  0  0  0  0  0  0  0  0
    0.0381   -0.5611    3.0567 H   0  0  0  0  0  0  0  0  0  0  0  0
   -2.5375   -0.1742    1.5994 H   0  0  0  0  0  0  0  0  0  0  0  0
  1  2  1  0  0  0  0
  1 10  1  0  0  0  0
  3  2  1  6  0  0  0
  3  9  1  0  0  0  0
  3  8  1  0  0  0  0
  4  3  1  0  0  0  0
  4 13  1  0  0  0  0
  4  5  1  0  0  0  0
  5  6  1  1  0  0  0
  5  7  1  0  0  0  0
  6 16  1  0  0  0  0
  6 15  1  0  0  0  0
  8 18  1  1  0  0  0
  8  7  1  0  0  0  0
  9 19  1  6  0  0  0
  9  5  1  0  0  0  0
  9  8  1  0  0  0  0
 11  1  1  0  0  0  0
 12  1  1  0  0  0  0
 14  4  1  0  0  0  0
 17  6  1  0  0  0  0
M TOR 0 0 1 2 3
M TOR 1 0 1 2 7
M TOR 2 0 1 2 8
M TOR 3 1 2 3 4
M TOR 4 1 2 3 12
M TOR 5 1 2 3 13
M TOR 6 1 2 7 6
M TOR 7 1 2 7 8
M TOR 8 1 2 7 17
M TOR 9 1 2 8 4
M TOR 10 1 2 8 18
M TOR 11 2 1 0 9
M TOR 12 2 1 0 10
M TOR 13 2 1 0 11
M TOR 14 2 3 4 5
M TOR 15 2 3 4 6
M TOR 16 2 3 4 8
M TOR 17 2 7 6 4
M TOR 18 2 7 8 4
M TOR 19 2 7 8 18
M TOR 20 2 8 4 5
M TOR 21 2 8 4 6
M TOR 22 2 8 7 6
M TOR 23 2 8 7 17
M TOR 24 3 2 7 6
M TOR 25 3 2 7 8
M TOR 26 3 2 7 17
M TOR 27 3 2 8 18
M TOR 28 3 4 5 14
M TOR 29 3 4 5 15
M TOR 30 3 4 5 16
M TOR 31 3 4 6 7
M TOR 32 3 4 8 7
M TOR 33 3 4 8 18
M TOR 34 4 3 2 7
M TOR 35 4 6 7 8
M TOR 36 4 6 7 17
M TOR 37 4 8 7 17
M TOR 38 5 4 3 12
M TOR 39 5 4 3 13
M TOR 40 5 4 6 7
M TOR 41 5 4 8 7
M TOR 42 5 4 8 18
M TOR 43 6 4 3 12
M TOR 44 6 4 3 13
M TOR 45 6 4 5 14
M TOR 46 6 4 5 15
M TOR 47 6 4 5 16
M TOR 48 6 4 8 18
M TOR 49 6 7 8 18
M TOR 50 7 2 3 12
M TOR 51 7 2 3 13
M TOR 52 8 2 3 12
M TOR 53 8 2 3 13
M TOR 54 8 4 3 12
M TOR 55 8 4 3 13
M TOR 56 8 4 5 14
M TOR 57 8 4 5 15
M TOR 58 8 4 5 16
M  END
$$$$
