
     RDKit          3D

 19 20  0  0  0  0  0  0  0  0999 V2000
   -0.0140    0.1461   -0.1020 C   0  0  0  0  0  0  0  0  0  0  0  0
    1.4989    0.1275   -0.2712 C   0  0  0  0  0  0  0  0  0  0  0  0
    1.9543   -1.2370   -0.2842 O   0  0  0  0  0  0  0  0  0  0  0  0
    2.7834   -1.5011   -1.4077 C   0  0  0  0  0  0  0  0  0  0  0  0
    3.9335   -0.6649   -1.3665 O   0  0  0  0  0  0  0  0  0  0  0  0
    3.5698    0.7138   -1.4750 C   0  0  0  0  0  0  0  0  0  0  0  0
    2.0304    0.8313   -1.5517 C   0  0  0  0  0  0  0  0  0  0  0  0
    1.5931    0.0301   -2.7521 C   0  0  0  0  0  0  0  0  0  0  0  0
    2.0087   -1.2345   -2.6788 C   0  0  0  0  0  0  0  0  0  0  0  0
   -0.2922   -0.4318    0.7838 H   0  0  0  0  0  0  0  0  0  0  0  0
   -0.3786    1.1709    0.0268 H   0  0  0  0  0  0  0  0  0  0  0  0
   -0.5075   -0.3002   -0.9693 H   0  0  0  0  0  0  0  0  0  0  0  0
    1.9681    0.6197    0.5939 H   0  0  0  0  0  0  0  0  0  0  0  0
    3.1406   -2.5244   -1.2970 H   0  0  0  0  0  0  0  0  0  0  0  0
    3.9465    1.2399   -0.5878 H   0  0  0  0  0  0  0  0  0  0  0  0
    4.0441    1.1448   -2.3659 H   0  0  0  0  0  0  0  0  0  0  0  0
    1.7202    1.8777   -1.5752 H   0  0  0  0  0  0  0  0  0  0  0  0
    1.0180    0.4558   -3.5661 H   0  0  0  0  0  0  0  0  0  0  0  0
    1.8340   -2.0105   -3.4141 H   0  0  0  0  0  0  0  0  0  0  0  0
  1  2  1  0
  2  3  1  0
  3  4  1  0
  4  5  1  0
  5  6  1  0
  6  7  1  0
  7  8  1  0
  8  9  2  0
  7  2  1  0
  9  4  1  0
  1 10  1  0
  1 11  1  0
  1 12  1  0
  2 13  1  0
  4 14  1  0
  6 15  1  0
  6 16  1  0
  7 17  1  0
  8 18  1  0
  9 19  1  0
M  END
$$$$
