gdb 5103	3.3402746	1.1477709	1.0034877	0.8441	75.24	-0.21355	0.06992	0.28347	1234.2012	0.154747	-422.458878	-422.449961	-422.449017	-422.492261	33.738
 OpenBabel02181911423D

 19 21  0  0  1  0  0  0  0  0999 V2000
    1.4765    0.1509   -0.0580 C   0  0  0  0  0  0  0  0  0  0  0  0
    0.0656    0.0168    0.0289 O   0  0  0  0  0  0  0  0  0  0  0  0
   -0.4586    0.5589    1.1792 C   0  0  1  0  0  0  0  0  0  0  0  0
   -0.7028    2.0366    1.3439 C   0  0  0  0  0  0  0  0  0  0  0  0
   -1.8630    1.0526    1.4045 C   0  0  2  0  0  0  0  0  0  0  0  0
   -1.9378    0.2506    2.7304 C   0  0  2  0  0  0  0  0  0  0  0  0
   -0.8530    0.5579    3.7310 C   0  0  1  0  0  0  0  0  0  0  0  0
   -0.8983   -0.1033    4.9631 O   0  0  0  0  0  0  0  0  0  0  0  0
   -0.5061   -0.2540    2.5102 C   0  0  2  0  0  0  0  0  0  0  0  0
    1.9837   -0.3578    0.7736 H   0  0  0  0  0  0  0  0  0  0  0  0
    1.7831   -0.3123   -0.9983 H   0  0  0  0  0  0  0  0  0  0  0  0
    1.7779    1.2073   -0.0569 H   0  0  0  0  0  0  0  0  0  0  0  0
   -0.3746    2.6312    2.1890 H   0  0  0  0  0  0  0  0  0  0  0  0
   -0.6638    2.5662    0.3961 H   0  0  0  0  0  0  0  0  0  0  0  0
   -2.6875    1.1134    0.7061 H   0  0  0  0  0  0  0  0  0  0  0  0
   -2.8132   -0.3173    3.0238 H   0  0  0  0  0  0  0  0  0  0  0  0
   -0.4726    1.5593    3.8946 H   0  0  0  0  0  0  0  0  0  0  0  0
   -1.2502   -0.9894    4.8248 H   0  0  0  0  0  0  0  0  0  0  0  0
   -0.1277   -1.2669    2.5843 H   0  0  0  0  0  0  0  0  0  0  0  0
  1 12  1  0  0  0  0
  1  2  1  0  0  0  0
  1 10  1  0  0  0  0
  3  2  1  6  0  0  0
  3  4  1  0  0  0  0
  3  5  1  0  0  0  0
  3  9  1  0  0  0  0
  4  5  1  0  0  0  0
  4 13  1  0  0  0  0
  5 15  1  6  0  0  0
  5  6  1  0  0  0  0
  6 16  1  1  0  0  0
  6  7  1  0  0  0  0
  7 17  1  1  0  0  0
  7  8  1  0  0  0  0
  9 19  1  1  0  0  0
  9  6  1  0  0  0  0
  9  7  1  0  0  0  0
 11  1  1  0  0  0  0
 14  4  1  0  0  0  0
 18  8  1  0  0  0  0
M TOR 0 0 1 2 3
M TOR 1 0 1 2 4
M TOR 2 0 1 2 8
M TOR 3 1 2 3 4
M TOR 4 1 2 3 12
M TOR 5 1 2 3 13
M TOR 6 1 2 4 5
M TOR 7 1 2 4 14
M TOR 8 1 2 8 5
M TOR 9 1 2 8 6
M TOR 10 1 2 8 18
M TOR 11 2 1 0 9
M TOR 12 2 1 0 10
M TOR 13 2 1 0 11
M TOR 14 2 3 4 5
M TOR 15 2 3 4 14
M TOR 16 2 4 3 12
M TOR 17 2 4 3 13
M TOR 18 2 4 5 6
M TOR 19 2 4 5 8
M TOR 20 2 4 5 15
M TOR 21 2 8 5 6
M TOR 22 2 8 5 15
M TOR 23 2 8 6 7
M TOR 24 2 8 6 16
M TOR 25 3 2 8 5
M TOR 26 3 2 8 6
M TOR 27 3 2 8 18
M TOR 28 3 4 2 8
M TOR 29 3 4 5 6
M TOR 30 3 4 5 8
M TOR 31 3 4 5 15
M TOR 32 4 2 8 6
M TOR 33 4 2 8 18
M TOR 34 4 5 6 7
M TOR 35 4 5 6 8
M TOR 36 4 5 6 16
M TOR 37 4 5 8 18
M TOR 38 5 4 3 12
M TOR 39 5 4 3 13
M TOR 40 5 6 7 17
M TOR 41 5 6 8 18
M TOR 42 5 8 6 7
M TOR 43 5 8 6 16
M TOR 44 6 5 4 14
M TOR 45 6 8 5 15
M TOR 46 7 6 5 15
M TOR 47 7 6 8 18
M TOR 48 8 2 3 12
M TOR 49 8 2 3 13
M TOR 50 8 2 4 14
M TOR 51 8 5 4 14
M TOR 52 8 6 7 17
M  END
$$$$
