
     RDKit          3D

 19 21  0  0  0  0  0  0  0  0999 V2000
    0.7086    0.6504    0.6687 O   0  0  0  0  0  0  0  0  0  0  0  0
   -0.6785    0.4879    0.7953 C   0  0  0  0  0  0  0  0  0  0  0  0
   -1.3262    0.2486    2.2027 C   0  0  0  0  0  0  0  0  0  0  0  0
   -0.3768   -0.6368    3.0027 C   0  0  0  0  0  0  0  0  0  0  0  0
    0.1065   -1.6885    2.1490 O   0  0  0  0  0  0  0  0  0  0  0  0
   -0.8852   -2.0605    1.1902 C   0  0  0  0  0  0  0  0  0  0  0  0
   -2.2953   -2.1416    1.8318 C   0  0  0  0  0  0  0  0  0  0  0  0
   -2.4237   -0.6425    1.4989 C   0  0  0  0  0  0  0  0  0  0  0  0
   -1.3670   -0.8096    0.3530 C   0  0  0  0  0  0  0  0  0  0  0  0
    1.1076   -0.1652    0.9980 H   0  0  0  0  0  0  0  0  0  0  0  0
   -1.1410    1.3477    0.3008 H   0  0  0  0  0  0  0  0  0  0  0  0
   -1.6588    1.1134    2.7801 H   0  0  0  0  0  0  0  0  0  0  0  0
    0.5033   -0.0777    3.3343 H   0  0  0  0  0  0  0  0  0  0  0  0
   -0.8667   -1.0596    3.8900 H   0  0  0  0  0  0  0  0  0  0  0  0
   -0.4888   -2.9241    0.6553 H   0  0  0  0  0  0  0  0  0  0  0  0
   -2.9736   -2.7329    1.2097 H   0  0  0  0  0  0  0  0  0  0  0  0
   -2.3660   -2.4909    2.8659 H   0  0  0  0  0  0  0  0  0  0  0  0
   -3.3989   -0.1761    1.3602 H   0  0  0  0  0  0  0  0  0  0  0  0
   -1.6160   -1.0039   -0.6914 H   0  0  0  0  0  0  0  0  0  0  0  0
  1  2  1  0
  2  3  1  0
  3  4  1  0
  4  5  1  0
  5  6  1  0
  6  7  1  0
  7  8  1  0
  8  9  1  0
  9  2  1  0
  8  3  1  0
  9  6  1  0
  1 10  1  0
  2 11  1  0
  3 12  1  0
  4 13  1  0
  4 14  1  0
  6 15  1  0
  7 16  1  0
  7 17  1  0
  8 18  1  0
  9 19  1  0
M  END
$$$$
