
     RDKit          3D

 19 21  0  0  0  0  0  0  0  0999 V2000
    0.2495   -0.3579    0.3026 O   0  0  0  0  0  0  0  0  0  0  0  0
   -0.6958    0.5485    0.7703 C   0  0  0  0  0  0  0  0  0  0  0  0
   -0.4188    1.7833    1.6670 C   0  0  0  0  0  0  0  0  0  0  0  0
   -1.8861    2.0815    1.2026 C   0  0  0  0  0  0  0  0  0  0  0  0
   -2.1722    3.4409    0.5788 C   0  0  0  0  0  0  0  0  0  0  0  0
   -1.2818    2.9319   -0.6261 C   0  0  0  0  0  0  0  0  0  0  0  0
   -1.5264    1.4479   -0.1604 C   0  0  0  0  0  0  0  0  0  0  0  0
   -2.6662    1.1520    1.9420 O   0  0  0  0  0  0  0  0  0  0  0  0
   -1.9053   -0.0433    1.6004 C   0  0  0  0  0  0  0  0  0  0  0  0
    0.6572   -0.7966    1.0581 H   0  0  0  0  0  0  0  0  0  0  0  0
   -0.2868    1.6222    2.7393 H   0  0  0  0  0  0  0  0  0  0  0  0
    0.3403    2.4587    1.2770 H   0  0  0  0  0  0  0  0  0  0  0  0
   -3.2167    3.5446    0.2726 H   0  0  0  0  0  0  0  0  0  0  0  0
   -1.8600    4.3351    1.1239 H   0  0  0  0  0  0  0  0  0  0  0  0
   -1.6888    3.1390   -1.6161 H   0  0  0  0  0  0  0  0  0  0  0  0
   -0.2508    3.2850   -0.5962 H   0  0  0  0  0  0  0  0  0  0  0  0
   -2.3179    0.9631   -0.7352 H   0  0  0  0  0  0  0  0  0  0  0  0
   -1.5639   -0.5431    2.5148 H   0  0  0  0  0  0  0  0  0  0  0  0
   -2.5242   -0.7332    1.0157 H   0  0  0  0  0  0  0  0  0  0  0  0
  1  2  1  0
  2  3  1  0
  3  4  1  0
  4  5  1  0
  5  6  1  0
  6  7  1  0
  4  8  1  0
  8  9  1  0
  7  2  1  0
  9  2  1  0
  7  4  1  0
  1 10  1  0
  3 11  1  0
  3 12  1  0
  5 13  1  0
  5 14  1  0
  6 15  1  0
  6 16  1  0
  7 17  1  0
  9 18  1  0
  9 19  1  0
M  END
$$$$
