gdb 6028	3.5759184	0.9506534	0.8113276	3.2925	76.35	-0.24114	-0.01198	0.22916	1416.8435	0.15642	-422.543967	-422.534962	-422.534018	-422.57819	32.884
 OpenBabel02181911423D

 19 20  0  0  1  0  0  0  0  0999 V2000
   -0.6915   -0.8465   -0.5900 O   0  0  0  0  0  0  0  0  0  0  0  0
   -0.1506    0.4195   -0.2435 C   0  0  0  0  0  0  0  0  0  0  0  0
   -0.5648    0.8619    1.1645 C   0  0  0  0  0  0  0  0  0  0  0  0
   -0.0313    2.2507    1.5232 C   0  0  1  0  0  0  0  0  0  0  0  0
   -0.3010    2.7496    2.9576 C   0  0  2  0  0  0  0  0  0  0  0  0
    0.3717    4.0545    3.1646 C   0  0  0  0  0  0  0  0  0  0  0  0
    1.2210    2.7926    3.2786 C   0  0  2  0  0  0  0  0  0  0  0  0
    1.4755    2.2227    1.9213 C   0  0  0  0  0  0  0  0  0  0  0  0
    2.4294    1.6979    1.4135 O   0  0  0  0  0  0  0  0  0  0  0  0
   -0.2301   -1.5129   -0.0714 H   0  0  0  0  0  0  0  0  0  0  0  0
    0.9437    0.4354   -0.3307 H   0  0  0  0  0  0  0  0  0  0  0  0
   -0.5489    1.1246   -0.9823 H   0  0  0  0  0  0  0  0  0  0  0  0
   -1.6595    0.8575    1.2284 H   0  0  0  0  0  0  0  0  0  0  0  0
   -0.2017    0.1270    1.8965 H   0  0  0  0  0  0  0  0  0  0  0  0
   -0.3033    2.9747    0.7454 H   0  0  0  0  0  0  0  0  0  0  0  0
   -1.0778    2.3664    3.6063 H   0  0  0  0  0  0  0  0  0  0  0  0
    0.5161    4.7353    2.3299 H   0  0  0  0  0  0  0  0  0  0  0  0
    0.2040    4.5481    4.1164 H   0  0  0  0  0  0  0  0  0  0  0  0
    1.7613    2.5602    4.1879 H   0  0  0  0  0  0  0  0  0  0  0  0
  1  2  1  0  0  0  0
  1 10  1  0  0  0  0
  2  3  1  0  0  0  0
  3 13  1  0  0  0  0
  3  4  1  0  0  0  0
  3 14  1  0  0  0  0
  4 15  1  6  0  0  0
  4  8  1  0  0  0  0
  4  5  1  0  0  0  0
  5  6  1  0  0  0  0
  5  7  1  0  0  0  0
  5 16  1  1  0  0  0
  6  7  1  0  0  0  0
  6 18  1  0  0  0  0
  7 19  1  1  0  0  0
  8  7  1  0  0  0  0
  9  8  2  0  0  0  0
 11  2  1  0  0  0  0
 12  2  1  0  0  0  0
 17  6  1  0  0  0  0
M TOR 0 0 1 2 3
M TOR 1 0 1 2 12
M TOR 2 0 1 2 13
M TOR 3 1 2 3 4
M TOR 4 1 2 3 7
M TOR 5 1 2 3 14
M TOR 6 2 1 0 9
M TOR 7 2 3 4 5
M TOR 8 2 3 4 6
M TOR 9 2 3 4 15
M TOR 10 2 3 7 6
M TOR 11 2 3 7 8
M TOR 12 3 2 1 10
M TOR 13 3 2 1 11
M TOR 14 3 4 5 6
M TOR 15 3 4 5 16
M TOR 16 3 4 5 17
M TOR 17 3 4 6 7
M TOR 18 3 4 6 18
M TOR 19 3 7 6 5
M TOR 20 3 7 6 18
M TOR 21 4 3 2 12
M TOR 22 4 3 2 13
M TOR 23 4 3 7 8
M TOR 24 4 5 6 7
M TOR 25 4 5 6 18
M TOR 26 4 6 5 16
M TOR 27 4 6 5 17
M TOR 28 4 6 7 8
M TOR 29 5 4 3 7
M TOR 30 5 4 3 14
M TOR 31 5 6 4 15
M TOR 32 5 6 7 8
M TOR 33 6 4 3 14
M TOR 34 6 7 3 14
M TOR 35 7 3 2 12
M TOR 36 7 3 2 13
M TOR 37 7 3 4 15
M TOR 38 7 6 4 15
M TOR 39 7 6 5 16
M TOR 40 7 6 5 17
M TOR 41 8 7 3 14
M TOR 42 8 7 6 18
M  END
$$$$
