gdb 466	2.7463266	1.3324936	1.010531	0.8351	75.74	-0.24698	0.05739	0.30437000000000003	1206.304	0.156269	-422.489307	-422.480815	-422.479871	-422.523229	31.242
 OpenBabel02181911403D

 19 21  0  0  1  0  0  0  0  0999 V2000
    2.7664    3.3676   -2.7773 C   0  0  0  0  0  0  0  0  0  0  0  0
    3.1990    4.3826   -1.8687 O   0  0  0  0  0  0  0  0  0  0  0  0
    2.5522    3.2220   -1.3335 C   0  0  1  0  0  0  0  0  0  0  0  0
    1.2084    3.4738   -0.7054 C   0  0  1  0  0  0  0  0  0  0  0  0
    0.5145    2.2378   -0.4068 O   0  0  0  0  0  0  0  0  0  0  0  0
    0.4283    2.5549    1.0034 C   0  0  0  0  0  0  0  0  0  0  0  0
    1.1842    3.8583    0.7754 C   0  0  0  0  0  0  0  0  0  0  0  0
    0.9637    5.2021    1.3924 C   0  0  0  0  0  0  0  0  0  0  0  0
    2.2758    4.4769    1.5947 C   0  0  0  0  0  0  0  0  0  0  0  0
    1.9297    3.6405   -3.4191 H   0  0  0  0  0  0  0  0  0  0  0  0
    3.5625    2.8047   -3.2616 H   0  0  0  0  0  0  0  0  0  0  0  0
    3.2060    2.5524   -0.7741 H   0  0  0  0  0  0  0  0  0  0  0  0
    0.6150    4.1284   -1.3593 H   0  0  0  0  0  0  0  0  0  0  0  0
   -0.6134    2.6571    1.3345 H   0  0  0  0  0  0  0  0  0  0  0  0
    0.9304    1.8003    1.6226 H   0  0  0  0  0  0  0  0  0  0  0  0
    0.9557    6.0682    0.7383 H   0  0  0  0  0  0  0  0  0  0  0  0
    0.2788    5.2686    2.2321 H   0  0  0  0  0  0  0  0  0  0  0  0
    3.1498    4.8533    1.0736 H   0  0  0  0  0  0  0  0  0  0  0  0
    2.4818    4.0514    2.5719 H   0  0  0  0  0  0  0  0  0  0  0  0
  1  2  1  0  0  0  0
  1  3  1  0  0  0  0
  2  3  1  0  0  0  0
  3 12  1  1  0  0  0
  3  4  1  0  0  0  0
  4 13  1  6  0  0  0
  4  5  1  0  0  0  0
  4  7  1  0  0  0  0
  5  6  1  0  0  0  0
  6 14  1  0  0  0  0
  6 15  1  0  0  0  0
  7  6  1  0  0  0  0
  7  8  1  0  0  0  0
  7  9  1  0  0  0  0
  8  9  1  0  0  0  0
  8 17  1  0  0  0  0
  9 19  1  0  0  0  0
 10  1  1  0  0  0  0
 11  1  1  0  0  0  0
 16  8  1  0  0  0  0
 18  9  1  0  0  0  0
M TOR 0 0 1 2 3
M TOR 1 0 1 2 11
M TOR 2 0 2 3 4
M TOR 3 0 2 3 6
M TOR 4 0 2 3 12
M TOR 5 1 2 0 9
M TOR 6 1 2 0 10
M TOR 7 1 2 3 4
M TOR 8 1 2 3 6
M TOR 9 1 2 3 12
M TOR 10 2 3 4 5
M TOR 11 2 3 6 5
M TOR 12 2 3 6 7
M TOR 13 2 3 6 8
M TOR 14 3 2 0 9
M TOR 15 3 2 0 10
M TOR 16 3 4 5 6
M TOR 17 3 4 5 13
M TOR 18 3 4 5 14
M TOR 19 3 6 5 13
M TOR 20 3 6 5 14
M TOR 21 3 6 7 8
M TOR 22 3 6 7 15
M TOR 23 3 6 7 16
M TOR 24 3 6 8 17
M TOR 25 3 6 8 18
M TOR 26 4 3 2 11
M TOR 27 4 3 6 7
M TOR 28 4 3 6 8
M TOR 29 4 5 6 7
M TOR 30 4 5 6 8
M TOR 31 5 4 3 12
M TOR 32 5 6 3 12
M TOR 33 5 6 7 8
M TOR 34 5 6 7 15
M TOR 35 5 6 7 16
M TOR 36 5 6 8 17
M TOR 37 5 6 8 18
M TOR 38 6 3 2 11
M TOR 39 6 7 8 17
M TOR 40 6 7 8 18
M TOR 41 6 8 7 15
M TOR 42 6 8 7 16
M TOR 43 7 6 3 12
M TOR 44 7 6 5 13
M TOR 45 7 6 5 14
M TOR 46 8 6 3 12
M TOR 47 8 6 5 13
M TOR 48 8 6 5 14
M  END
$$$$
