gdb 369	2.9406008	1.4926713	1.4696988	2.8038	73.57	-0.24891	0.07001	0.31892	1003.7796	0.15865	-422.521265	-422.51388	-422.512936	-422.552856	29.353
 OpenBabel02181911403D

 19 21  0  0  1  0  0  0  0  0999 V2000
    0.4954    0.8328   -0.7841 C   0  0  0  0  0  0  0  0  0  0  0  0
   -0.0183   -0.1294    0.1604 O   0  0  0  0  0  0  0  0  0  0  0  0
    1.3584    0.1695    0.1844 C   0  0  1  0  0  0  0  0  0  0  0  0
    2.4494   -0.8911    0.1009 C   0  0  1  0  0  0  0  0  0  0  0  0
    3.6802   -0.3277   -0.6270 C   0  0  0  0  0  0  0  0  0  0  0  0
    4.2932    0.8077    0.2343 C   0  0  0  0  0  0  0  0  0  0  0  0
    3.2372    1.5763    1.0717 C   0  0  0  0  0  0  0  0  0  0  0  0
    2.1001    0.6104    1.4404 C   0  0  2  0  0  0  0  0  0  0  0  0
    2.6451   -0.7438    1.5436 O   0  0  0  0  0  0  0  0  0  0  0  0
    0.4903    0.5092   -1.8243 H   0  0  0  0  0  0  0  0  0  0  0  0
    0.1758    1.8610   -0.6183 H   0  0  0  0  0  0  0  0  0  0  0  0
    2.1660   -1.9074   -0.1832 H   0  0  0  0  0  0  0  0  0  0  0  0
    4.4271   -1.1115   -0.7877 H   0  0  0  0  0  0  0  0  0  0  0  0
    3.3772    0.0302   -1.6183 H   0  0  0  0  0  0  0  0  0  0  0  0
    4.9954    0.3479    0.9329 H   0  0  0  0  0  0  0  0  0  0  0  0
    4.8718    1.4968   -0.3872 H   0  0  0  0  0  0  0  0  0  0  0  0
    3.7072    1.9827    1.9728 H   0  0  0  0  0  0  0  0  0  0  0  0
    2.8196    2.4272    0.5201 H   0  0  0  0  0  0  0  0  0  0  0  0
    1.5139    0.8955    2.3174 H   0  0  0  0  0  0  0  0  0  0  0  0
  1 11  1  0  0  0  0
  1  2  1  0  0  0  0
  1  3  1  0  0  0  0
  3  2  1  1  0  0  0
  3  8  1  0  0  0  0
  4 12  1  6  0  0  0
  4  3  1  0  0  0  0
  4  9  1  0  0  0  0
  5  4  1  0  0  0  0
  5  6  1  0  0  0  0
  6 15  1  0  0  0  0
  6  7  1  0  0  0  0
  7  8  1  0  0  0  0
  7 17  1  0  0  0  0
  8  9  1  0  0  0  0
  8 19  1  1  0  0  0
 10  1  1  0  0  0  0
 13  5  1  0  0  0  0
 14  5  1  0  0  0  0
 16  6  1  0  0  0  0
 18  7  1  0  0  0  0
M TOR 0 0 1 2 3
M TOR 1 0 1 2 7
M TOR 2 0 2 3 4
M TOR 3 0 2 3 8
M TOR 4 0 2 3 11
M TOR 5 0 2 7 6
M TOR 6 0 2 7 8
M TOR 7 0 2 7 18
M TOR 8 1 2 0 9
M TOR 9 1 2 0 10
M TOR 10 1 2 3 4
M TOR 11 1 2 3 8
M TOR 12 1 2 3 11
M TOR 13 1 2 7 6
M TOR 14 1 2 7 8
M TOR 15 1 2 7 18
M TOR 16 2 3 4 5
M TOR 17 2 3 4 12
M TOR 18 2 3 4 13
M TOR 19 2 3 8 7
M TOR 20 2 7 6 5
M TOR 21 2 7 6 16
M TOR 22 2 7 6 17
M TOR 23 3 2 0 9
M TOR 24 3 2 0 10
M TOR 25 3 2 7 6
M TOR 26 3 2 7 18
M TOR 27 3 4 5 6
M TOR 28 3 4 5 14
M TOR 29 3 4 5 15
M TOR 30 3 8 7 6
M TOR 31 3 8 7 18
M TOR 32 4 3 2 7
M TOR 33 4 3 8 7
M TOR 34 4 5 6 7
M TOR 35 4 5 6 16
M TOR 36 4 5 6 17
M TOR 37 5 4 3 8
M TOR 38 5 4 3 11
M TOR 39 5 6 7 8
M TOR 40 5 6 7 18
M TOR 41 6 5 4 12
M TOR 42 6 5 4 13
M TOR 43 7 2 0 9
M TOR 44 7 2 0 10
M TOR 45 7 2 3 11
M TOR 46 7 6 5 14
M TOR 47 7 6 5 15
M TOR 48 7 8 3 11
M TOR 49 8 3 4 12
M TOR 50 8 3 4 13
M TOR 51 8 7 6 16
M TOR 52 8 7 6 17
M  END
$$$$
