
     RDKit          3D

 19 18  0  0  0  0  0  0  0  0999 V2000
   -1.6859    3.4310   -1.0846 C   0  0  0  0  0  0  0  0  0  0  0  0
   -0.9589    2.2288   -0.4778 C   0  0  0  0  0  0  0  0  0  0  0  0
   -0.7026    1.1136   -1.5014 C   0  0  0  0  0  0  0  0  0  0  0  0
   -1.9560    0.6510   -1.9707 O   0  0  0  0  0  0  0  0  0  0  0  0
   -1.8608   -0.1142   -3.1639 C   0  0  0  0  0  0  0  0  0  0  0  0
   -3.1862   -0.5557   -3.5726 C   0  0  0  0  0  0  0  0  0  0  0  0
   -4.2681   -0.9332   -3.9307 C   0  0  0  0  0  0  0  0  0  0  0  0
    0.0665   -0.0202   -0.8274 C   0  0  0  0  0  0  0  0  0  0  0  0
    1.2622   -0.0495   -0.7012 O   0  0  0  0  0  0  0  0  0  0  0  0
   -1.8721    4.1933   -0.3226 H   0  0  0  0  0  0  0  0  0  0  0  0
   -1.0904    3.8909   -1.8807 H   0  0  0  0  0  0  0  0  0  0  0  0
   -2.6452    3.1276   -1.5101 H   0  0  0  0  0  0  0  0  0  0  0  0
    0.0107    2.5271   -0.0650 H   0  0  0  0  0  0  0  0  0  0  0  0
   -1.5469    1.8110    0.3485 H   0  0  0  0  0  0  0  0  0  0  0  0
   -0.0890    1.5069   -2.3278 H   0  0  0  0  0  0  0  0  0  0  0  0
   -1.4022    0.4891   -3.9647 H   0  0  0  0  0  0  0  0  0  0  0  0
   -1.2087   -0.9916   -3.0188 H   0  0  0  0  0  0  0  0  0  0  0  0
   -5.2276   -1.2645   -4.2433 H   0  0  0  0  0  0  0  0  0  0  0  0
   -0.5967   -0.8187   -0.4191 H   0  0  0  0  0  0  0  0  0  0  0  0
  1  2  1  0
  2  3  1  0
  3  4  1  0
  4  5  1  0
  5  6  1  0
  6  7  3  0
  3  8  1  0
  8  9  2  0
  1 10  1  0
  1 11  1  0
  1 12  1  0
  2 13  1  0
  2 14  1  0
  3 15  1  0
  5 16  1  0
  5 17  1  0
  7 18  1  0
  8 19  1  0
M  END
$$$$
