gdb 656	5.0587488	0.8672583	0.788198	4.2894	76.32	-0.27188	0.01393	0.28581	1447.4097	0.1576	-422.573671	-422.565367	-422.564423	-422.60748	30.634
 OpenBabel02181911403D

 19 20  0  0  1  0  0  0  0  0999 V2000
    1.3194    0.2794   -0.2337 O   0  0  0  0  0  0  0  0  0  0  0  0
    0.1539    0.0658   -0.1444 C   0  0  0  0  0  0  0  0  0  0  0  0
   -0.7784   -1.1448   -0.0813 C   0  0  0  0  0  0  0  0  0  0  0  0
   -1.8876   -0.0793    0.0257 C   0  0  1  0  0  0  0  0  0  0  0  0
   -0.8617    0.9820   -0.0498 O   0  0  0  0  0  0  0  0  0  0  0  0
   -2.8942    0.0275   -1.0889 C   0  0  0  0  0  0  0  0  0  0  0  0
   -3.9203    1.1962   -1.0654 C   0  0  0  0  0  0  0  0  0  0  0  0
   -5.0089    0.1992   -1.5464 C   0  0  0  0  0  0  0  0  0  0  0  0
   -4.0928   -0.9673   -1.0857 C   0  0  0  0  0  0  0  0  0  0  0  0
   -0.7863   -1.7524   -0.9885 H   0  0  0  0  0  0  0  0  0  0  0  0
   -0.6253   -1.7855    0.7884 H   0  0  0  0  0  0  0  0  0  0  0  0
   -2.3723   -0.0301    1.0061 H   0  0  0  0  0  0  0  0  0  0  0  0
   -2.3698   -0.0022   -2.0507 H   0  0  0  0  0  0  0  0  0  0  0  0
   -4.1071    1.5390   -0.0426 H   0  0  0  0  0  0  0  0  0  0  0  0
   -3.7046    2.0665   -1.6876 H   0  0  0  0  0  0  0  0  0  0  0  0
   -5.9996    0.2718   -1.0929 H   0  0  0  0  0  0  0  0  0  0  0  0
   -5.1238    0.2168   -2.6337 H   0  0  0  0  0  0  0  0  0  0  0  0
   -4.3368   -1.2939   -0.0692 H   0  0  0  0  0  0  0  0  0  0  0  0
   -4.0203   -1.8506   -1.7242 H   0  0  0  0  0  0  0  0  0  0  0  0
  1  2  2  0  0  0  0
  2  3  1  0  0  0  0
  2  5  1  0  0  0  0
  3  4  1  0  0  0  0
  3 11  1  0  0  0  0
  4 12  1  1  0  0  0
  5  4  1  0  0  0  0
  6  9  1  0  0  0  0
  6  7  1  0  0  0  0
  6  4  1  0  0  0  0
  7 14  1  0  0  0  0
  8 16  1  0  0  0  0
  8  9  1  0  0  0  0
  8  7  1  0  0  0  0
  9 18  1  0  0  0  0
 10  3  1  0  0  0  0
 13  6  1  0  0  0  0
 15  7  1  0  0  0  0
 17  8  1  0  0  0  0
 19  9  1  0  0  0  0
M TOR 0 0 1 2 3
M TOR 1 0 1 2 9
M TOR 2 0 1 2 10
M TOR 3 0 1 4 3
M TOR 4 1 2 3 4
M TOR 5 1 2 3 5
M TOR 6 1 2 3 11
M TOR 7 1 4 3 5
M TOR 8 1 4 3 11
M TOR 9 2 3 5 6
M TOR 10 2 3 5 8
M TOR 11 2 3 5 12
M TOR 12 3 5 6 7
M TOR 13 3 5 6 13
M TOR 14 3 5 6 14
M TOR 15 3 5 8 7
M TOR 16 3 5 8 17
M TOR 17 3 5 8 18
M TOR 18 4 1 2 9
M TOR 19 4 1 2 10
M TOR 20 4 3 2 9
M TOR 21 4 3 2 10
M TOR 22 4 3 5 6
M TOR 23 4 3 5 8
M TOR 24 4 3 5 12
M TOR 25 5 3 2 9
M TOR 26 5 3 2 10
M TOR 27 5 6 7 8
M TOR 28 5 6 7 15
M TOR 29 5 6 7 16
M TOR 30 5 8 7 15
M TOR 31 5 8 7 16
M TOR 32 6 5 3 11
M TOR 33 6 5 8 17
M TOR 34 6 5 8 18
M TOR 35 6 7 8 17
M TOR 36 6 7 8 18
M TOR 37 7 6 5 12
M TOR 38 7 8 5 12
M TOR 39 8 5 3 11
M TOR 40 8 5 6 13
M TOR 41 8 5 6 14
M TOR 42 8 7 6 13
M TOR 43 8 7 6 14
M  END
$$$$
