gdb 3628	2.301316	1.5784716	1.2077492	1.9954	74.79	-0.23983	-0.02902	0.21081	1099.4697	0.156242	-422.562511	-422.554018	-422.553074	-422.595884	31.777
 OpenBabel02181911413D

 19 20  0  0  1  0  0  0  0  0999 V2000
    1.5063    0.9423    0.2028 C   0  0  0  0  0  0  0  0  0  0  0  0
    1.0701   -0.5178    0.0964 C   0  0  2  0  0  0  0  0  0  0  0  0
    1.5785   -1.3070    1.1926 O   0  0  0  0  0  0  0  0  0  0  0  0
    2.7727   -1.9732    0.7923 C   0  0  2  0  0  0  0  0  0  0  0  0
    4.0118   -1.2032    1.2489 C   0  0  0  0  0  0  0  0  0  0  0  0
    5.0818   -1.2444    0.6991 O   0  0  0  0  0  0  0  0  0  0  0  0
    2.6990   -2.1288   -0.7116 C   0  0  1  0  0  0  0  0  0  0  0  0
    1.4087   -2.6922   -1.2436 C   0  0  0  0  0  0  0  0  0  0  0  0
    1.5935   -1.1995   -1.1575 C   0  0  1  0  0  0  0  0  0  0  0  0
    1.2214    1.3527    1.1751 H   0  0  0  0  0  0  0  0  0  0  0  0
    2.5907    1.0430    0.0864 H   0  0  0  0  0  0  0  0  0  0  0  0
    1.0268    1.5421   -0.5783 H   0  0  0  0  0  0  0  0  0  0  0  0
   -0.0217   -0.5798    0.1798 H   0  0  0  0  0  0  0  0  0  0  0  0
    2.7906   -2.9352    1.3286 H   0  0  0  0  0  0  0  0  0  0  0  0
    3.8386   -0.5975    2.1670 H   0  0  0  0  0  0  0  0  0  0  0  0
    3.6290   -2.2350   -1.2540 H   0  0  0  0  0  0  0  0  0  0  0  0
    1.4322   -3.1420   -2.2298 H   0  0  0  0  0  0  0  0  0  0  0  0
    0.7261   -3.1658   -0.5440 H   0  0  0  0  0  0  0  0  0  0  0  0
    1.6788   -0.6134   -2.0648 H   0  0  0  0  0  0  0  0  0  0  0  0
  1 10  1  0  0  0  0
  2 13  1  1  0  0  0
  2  1  1  0  0  0  0
  2  3  1  0  0  0  0
  4  3  1  0  0  0  0
  4  5  1  0  0  0  0
  4 14  1  1  0  0  0
  5 15  1  0  0  0  0
  6  5  2  0  0  0  0
  7 16  1  6  0  0  0
  7  4  1  0  0  0  0
  8  9  1  0  0  0  0
  8  7  1  0  0  0  0
  8 18  1  0  0  0  0
  9 19  1  6  0  0  0
  9  7  1  0  0  0  0
  9  2  1  0  0  0  0
 11  1  1  0  0  0  0
 12  1  1  0  0  0  0
 17  8  1  0  0  0  0
M TOR 0 0 1 2 3
M TOR 1 0 1 8 6
M TOR 2 0 1 8 7
M TOR 3 0 1 8 18
M TOR 4 1 2 3 4
M TOR 5 1 2 3 6
M TOR 6 1 2 3 13
M TOR 7 1 8 6 3
M TOR 8 1 8 6 7
M TOR 9 1 8 6 15
M TOR 10 1 8 7 16
M TOR 11 1 8 7 17
M TOR 12 2 1 0 9
M TOR 13 2 1 0 10
M TOR 14 2 1 0 11
M TOR 15 2 1 8 6
M TOR 16 2 1 8 7
M TOR 17 2 1 8 18
M TOR 18 2 3 4 5
M TOR 19 2 3 4 14
M TOR 20 2 3 6 7
M TOR 21 2 3 6 8
M TOR 22 2 3 6 15
M TOR 23 3 2 1 8
M TOR 24 3 2 1 12
M TOR 25 3 6 7 8
M TOR 26 3 6 7 16
M TOR 27 3 6 7 17
M TOR 28 3 6 8 18
M TOR 29 4 3 6 7
M TOR 30 4 3 6 8
M TOR 31 4 3 6 15
M TOR 32 5 4 3 6
M TOR 33 5 4 3 13
M TOR 34 6 3 4 14
M TOR 35 6 7 8 18
M TOR 36 6 8 1 12
M TOR 37 6 8 7 16
M TOR 38 6 8 7 17
M TOR 39 7 6 3 13
M TOR 40 7 8 1 12
M TOR 41 7 8 6 15
M TOR 42 8 1 0 9
M TOR 43 8 1 0 10
M TOR 44 8 1 0 11
M TOR 45 8 6 3 13
M  END
$$$$
