gdb 4699	6.7050956	0.5172353	0.4859495	1.7418	82.06	-0.24447	0.01435	0.25882	2243.8233	0.153462	-422.56511	-422.553757	-422.552813	-422.605417	36.537
 OpenBabel02181911413D

 19 18  0  0  0  0  0  0  0  0999 V2000
   -6.6910   -0.5425    2.1387 C   0  0  0  0  0  0  0  0  0  0  0  0
   -5.2583   -0.5074    2.1560 O   0  0  0  0  0  0  0  0  0  0  0  0
   -4.6743   -0.2087    0.9782 C   0  0  0  0  0  0  0  0  0  0  0  0
   -5.2896    0.0183   -0.0339 O   0  0  0  0  0  0  0  0  0  0  0  0
   -3.1661   -0.2018    1.1127 C   0  0  0  0  0  0  0  0  0  0  0  0
   -2.4684    0.1520   -0.2109 C   0  0  0  0  0  0  0  0  0  0  0  0
   -1.0151    0.1561   -0.0868 C   0  0  0  0  0  0  0  0  0  0  0  0
    0.1823    0.1529    0.0404 C   0  0  0  0  0  0  0  0  0  0  0  0
    1.6320    0.1532    0.1780 C   0  0  0  0  0  0  0  0  0  0  0  0
   -6.9940   -0.7910    3.1559 H   0  0  0  0  0  0  0  0  0  0  0  0
   -7.0976    0.4283    1.8444 H   0  0  0  0  0  0  0  0  0  0  0  0
   -7.0503   -1.2994    1.4368 H   0  0  0  0  0  0  0  0  0  0  0  0
   -2.8896    0.5057    1.9016 H   0  0  0  0  0  0  0  0  0  0  0  0
   -2.8447   -1.1854    1.4718 H   0  0  0  0  0  0  0  0  0  0  0  0
   -2.7842   -0.5593   -0.9825 H   0  0  0  0  0  0  0  0  0  0  0  0
   -2.8253    1.1302   -0.5530 H   0  0  0  0  0  0  0  0  0  0  0  0
    1.9341   -0.0277    1.2156 H   0  0  0  0  0  0  0  0  0  0  0  0
    2.0920   -0.6260   -0.4400 H   0  0  0  0  0  0  0  0  0  0  0  0
    2.0617    1.1137   -0.1278 H   0  0  0  0  0  0  0  0  0  0  0  0
  1  2  1  0  0  0  0
  1 10  1  0  0  0  0
  3  5  1  0  0  0  0
  3  2  1  0  0  0  0
  4  3  2  0  0  0  0
  5 14  1  0  0  0  0
  5 13  1  0  0  0  0
  6  7  1  0  0  0  0
  6  5  1  0  0  0  0
  7  8  3  0  0  0  0
  8  9  1  0  0  0  0
  9 17  1  0  0  0  0
 11  1  1  0  0  0  0
 12  1  1  0  0  0  0
 15  6  1  0  0  0  0
 16  6  1  0  0  0  0
 18  9  1  0  0  0  0
 19  9  1  0  0  0  0
M TOR 0 0 1 2 3
M TOR 1 0 1 2 4
M TOR 2 1 2 4 5
M TOR 3 1 2 4 12
M TOR 4 1 2 4 13
M TOR 5 2 1 0 9
M TOR 6 2 1 0 10
M TOR 7 2 1 0 11
M TOR 8 2 4 5 6
M TOR 9 2 4 5 14
M TOR 10 2 4 5 15
M TOR 11 3 2 4 5
M TOR 12 3 2 4 12
M TOR 13 3 2 4 13
M TOR 14 4 5 6 7
M TOR 15 5 6 7 8
M TOR 16 6 5 4 12
M TOR 17 6 5 4 13
M TOR 18 6 7 8 16
M TOR 19 6 7 8 17
M TOR 20 6 7 8 18
M TOR 21 7 6 5 14
M TOR 22 7 6 5 15
M  END
$$$$
