
     RDKit          3D

 19 20  0  0  0  0  0  0  0  0999 V2000
    0.2736    3.3974    0.5200 O   0  0  0  0  0  0  0  0  0  0  0  0
   -0.1140    2.0392    0.6775 C   0  0  0  0  0  0  0  0  0  0  0  0
    0.0900    1.5411    2.0899 C   0  0  0  0  0  0  0  0  0  0  0  0
    1.5474    1.4337    2.6189 C   0  0  0  0  0  0  0  0  0  0  0  0
    1.2957   -0.0379    3.0591 C   0  0  0  0  0  0  0  0  0  0  0  0
   -0.1695    0.0374    2.5203 C   0  0  0  0  0  0  0  0  0  0  0  0
   -1.1528    0.5538    3.5710 C   0  0  0  0  0  0  0  0  0  0  0  0
   -1.8560    0.0206    4.3794 O   0  0  0  0  0  0  0  0  0  0  0  0
   -0.9286    2.0267    3.1688 C   0  0  0  0  0  0  0  0  0  0  0  0
   -0.2932    3.9326    1.0854 H   0  0  0  0  0  0  0  0  0  0  0  0
   -1.1605    1.8799    0.3674 H   0  0  0  0  0  0  0  0  0  0  0  0
    0.5181    1.4733   -0.0161 H   0  0  0  0  0  0  0  0  0  0  0  0
    2.2940    1.5307    1.8272 H   0  0  0  0  0  0  0  0  0  0  0  0
    1.8094    2.1349    3.4151 H   0  0  0  0  0  0  0  0  0  0  0  0
    1.9001   -0.7660    2.5149 H   0  0  0  0  0  0  0  0  0  0  0  0
    1.3863   -0.2536    4.1262 H   0  0  0  0  0  0  0  0  0  0  0  0
   -0.5100   -0.7609    1.8587 H   0  0  0  0  0  0  0  0  0  0  0  0
   -1.8468    2.4552    2.7474 H   0  0  0  0  0  0  0  0  0  0  0  0
   -0.5655    2.6943    3.9557 H   0  0  0  0  0  0  0  0  0  0  0  0
  1  2  1  0
  2  3  1  0
  3  4  1  0
  4  5  1  0
  5  6  1  0
  6  7  1  0
  7  8  2  0
  7  9  1  0
  6  3  1  0
  9  3  1  0
  1 10  1  0
  2 11  1  0
  2 12  1  0
  4 13  1  0
  4 14  1  0
  5 15  1  0
  5 16  1  0
  6 17  1  0
  9 18  1  0
  9 19  1  0
M  END
$$$$
