gdb 120	2.8222237	1.7283389	1.4528433	1.7368	73.89	-0.23195	0.06445	0.2964	967.1849	0.159008	-422.511365	-422.504113	-422.503169	-422.542717	29.214
 OpenBabel02181911403D

 19 21  0  0  1  0  0  0  0  0999 V2000
    1.4342   -0.1067    2.9454 C   0  0  0  0  0  0  0  0  0  0  0  0
    1.0842   -1.1500    1.8975 C   0  0  2  0  0  0  0  0  0  0  0  0
    2.1943   -1.1905    0.8473 C   0  0  0  0  0  0  0  0  0  0  0  0
    2.1351    0.2536    0.6595 O   0  0  0  0  0  0  0  0  0  0  0  0
    1.0327    0.3265    1.5738 C   0  0  2  0  0  0  0  0  0  0  0  0
   -0.2706    0.9762    1.2032 C   0  0  0  0  0  0  0  0  0  0  0  0
   -1.3432    0.1949    1.7275 O   0  0  0  0  0  0  0  0  0  0  0  0
   -1.3204   -1.1580    1.2862 C   0  0  0  0  0  0  0  0  0  0  0  0
   -0.1848   -1.9692    1.9478 C   0  0  0  0  0  0  0  0  0  0  0  0
    0.6826    0.0185    3.7183 H   0  0  0  0  0  0  0  0  0  0  0  0
    2.4639    0.0320    3.2626 H   0  0  0  0  0  0  0  0  0  0  0  0
    3.1895   -1.5282    1.1617 H   0  0  0  0  0  0  0  0  0  0  0  0
    1.9046   -1.7103   -0.0745 H   0  0  0  0  0  0  0  0  0  0  0  0
   -0.4021    1.9797    1.6189 H   0  0  0  0  0  0  0  0  0  0  0  0
   -0.3309    1.0396    0.1049 H   0  0  0  0  0  0  0  0  0  0  0  0
   -2.2998   -1.5723    1.5416 H   0  0  0  0  0  0  0  0  0  0  0  0
   -1.2126   -1.1877    0.1895 H   0  0  0  0  0  0  0  0  0  0  0  0
   -0.4567   -2.2070    2.9815 H   0  0  0  0  0  0  0  0  0  0  0  0
   -0.0625   -2.9234    1.4226 H   0  0  0  0  0  0  0  0  0  0  0  0
  1 11  1  0  0  0  0
  1 10  1  0  0  0  0
  2  3  1  6  0  0  0
  2  9  1  0  0  0  0
  2  1  1  0  0  0  0
  3 12  1  0  0  0  0
  4  3  1  0  0  0  0
  5  4  1  6  0  0  0
  5  2  1  0  0  0  0
  5  1  1  0  0  0  0
  6  5  1  0  0  0  0
  6 14  1  0  0  0  0
  6  7  1  0  0  0  0
  8 16  1  0  0  0  0
  8  7  1  0  0  0  0
  8  9  1  0  0  0  0
  9 18  1  0  0  0  0
 13  3  1  0  0  0  0
 15  6  1  0  0  0  0
 17  8  1  0  0  0  0
 19  9  1  0  0  0  0
M TOR 0 0 1 2 3
M TOR 1 0 1 2 11
M TOR 2 0 1 2 12
M TOR 3 0 1 4 3
M TOR 4 0 1 4 5
M TOR 5 0 1 8 7
M TOR 6 0 1 8 17
M TOR 7 0 1 8 18
M TOR 8 0 4 1 2
M TOR 9 0 4 1 8
M TOR 10 0 4 3 2
M TOR 11 0 4 5 6
M TOR 12 0 4 5 13
M TOR 13 0 4 5 14
M TOR 14 1 2 3 4
M TOR 15 1 4 0 9
M TOR 16 1 4 0 10
M TOR 17 1 4 5 6
M TOR 18 1 4 5 13
M TOR 19 1 4 5 14
M TOR 20 1 8 7 6
M TOR 21 1 8 7 15
M TOR 22 1 8 7 16
M TOR 23 2 1 0 9
M TOR 24 2 1 0 10
M TOR 25 2 1 4 5
M TOR 26 2 1 8 7
M TOR 27 2 1 8 17
M TOR 28 2 1 8 18
M TOR 29 2 3 4 5
M TOR 30 3 2 1 8
M TOR 31 3 4 0 9
M TOR 32 3 4 0 10
M TOR 33 3 4 1 8
M TOR 34 3 4 5 6
M TOR 35 3 4 5 13
M TOR 36 3 4 5 14
M TOR 37 4 1 2 11
M TOR 38 4 1 2 12
M TOR 39 4 1 8 7
M TOR 40 4 1 8 17
M TOR 41 4 1 8 18
M TOR 42 4 3 2 11
M TOR 43 4 3 2 12
M TOR 44 4 5 6 7
M TOR 45 5 4 0 9
M TOR 46 5 4 0 10
M TOR 47 5 4 1 8
M TOR 48 5 6 7 8
M TOR 49 5 6 7 15
M TOR 50 5 6 7 16
M TOR 51 6 7 8 17
M TOR 52 6 7 8 18
M TOR 53 7 6 5 13
M TOR 54 7 6 5 14
M TOR 55 8 1 0 9
M TOR 56 8 1 0 10
M TOR 57 8 1 2 11
M TOR 58 8 1 2 12
M  END
$$$$
