
     RDKit          3D

 19 20  0  0  0  0  0  0  0  0999 V2000
    0.7617    0.8655   -0.3498 C   0  0  0  0  0  0  0  0  0  0  0  0
    0.9396   -0.6046    0.0198 C   0  0  0  0  0  0  0  0  0  0  0  0
    1.4847   -1.5469   -1.1065 C   0  0  0  0  0  0  0  0  0  0  0  0
    1.9528   -2.6615   -0.3270 O   0  0  0  0  0  0  0  0  0  0  0  0
    2.9231   -1.9135    0.4322 C   0  0  0  0  0  0  0  0  0  0  0  0
    3.6839   -1.1724   -0.6557 C   0  0  0  0  0  0  0  0  0  0  0  0
    2.7934   -0.9516   -1.6218 C   0  0  0  0  0  0  0  0  0  0  0  0
    1.9710   -0.9108    1.1604 C   0  0  0  0  0  0  0  0  0  0  0  0
    1.3769   -1.5068    2.2983 O   0  0  0  0  0  0  0  0  0  0  0  0
    0.3667    1.4320    0.4993 H   0  0  0  0  0  0  0  0  0  0  0  0
    1.7114    1.3222   -0.6440 H   0  0  0  0  0  0  0  0  0  0  0  0
    0.0584    0.9847   -1.1820 H   0  0  0  0  0  0  0  0  0  0  0  0
   -0.0218   -1.0078    0.3545 H   0  0  0  0  0  0  0  0  0  0  0  0
    0.7535   -1.8754   -1.8449 H   0  0  0  0  0  0  0  0  0  0  0  0
    3.4824   -2.5645    1.1031 H   0  0  0  0  0  0  0  0  0  0  0  0
    4.7092   -0.8367   -0.5851 H   0  0  0  0  0  0  0  0  0  0  0  0
    2.9131   -0.3923   -2.5392 H   0  0  0  0  0  0  0  0  0  0  0  0
    2.4859   -0.0176    1.5214 H   0  0  0  0  0  0  0  0  0  0  0  0
    0.9831   -2.3338    1.9938 H   0  0  0  0  0  0  0  0  0  0  0  0
  1  2  1  0
  2  3  1  0
  3  4  1  0
  4  5  1  0
  5  6  1  0
  6  7  2  0
  5  8  1  0
  8  9  1  0
  8  2  1  0
  7  3  1  0
  1 10  1  0
  1 11  1  0
  1 12  1  0
  2 13  1  0
  3 14  1  0
  5 15  1  0
  6 16  1  0
  7 17  1  0
  8 18  1  0
  9 19  1  0
M  END
$$$$
