gdb 3415	2.0425068	1.68605	1.0961993	2.7079	77.	-0.23676	-0.01747	0.21928999999999998	1149.9604	0.156828	-422.557927	-422.549327	-422.548383	-422.591021	32.02
 OpenBabel02181911413D

 19 20  0  0  1  0  0  0  0  0999 V2000
    1.0254   -0.5222   -0.9424 C   0  0  0  0  0  0  0  0  0  0  0  0
    1.0290    0.0800    0.4473 C   0  0  2  0  0  0  0  0  0  0  0  0
    1.7217    1.3761    0.6991 C   0  0  1  0  0  0  0  0  0  0  0  0
    1.2977    2.2429    1.7001 O   0  0  0  0  0  0  0  0  0  0  0  0
    1.1197    1.4913    2.9064 C   0  0  0  0  0  0  0  0  0  0  0  0
    2.0668    0.2743    2.8195 C   0  0  0  0  0  0  0  0  0  0  0  0
    2.2952    0.0911    1.3267 C   0  0  1  0  0  0  0  0  0  0  0  0
    3.5801   -0.4669    0.8724 C   0  0  0  0  0  0  0  0  0  0  0  0
    4.4743   -0.8060    1.6145 O   0  0  0  0  0  0  0  0  0  0  0  0
    1.0393   -1.6166   -0.9097 H   0  0  0  0  0  0  0  0  0  0  0  0
    0.1234   -0.2119   -1.4798 H   0  0  0  0  0  0  0  0  0  0  0  0
    1.8850   -0.1966   -1.5353 H   0  0  0  0  0  0  0  0  0  0  0  0
    0.1166   -0.0980    1.0109 H   0  0  0  0  0  0  0  0  0  0  0  0
    2.2190    1.8934   -0.1147 H   0  0  0  0  0  0  0  0  0  0  0  0
    1.3402    2.1576    3.7439 H   0  0  0  0  0  0  0  0  0  0  0  0
    0.0723    1.1734    2.9957 H   0  0  0  0  0  0  0  0  0  0  0  0
    3.0328    0.4705    3.2912 H   0  0  0  0  0  0  0  0  0  0  0  0
    1.6341   -0.6068    3.3019 H   0  0  0  0  0  0  0  0  0  0  0  0
    3.7005   -0.5488   -0.2296 H   0  0  0  0  0  0  0  0  0  0  0  0
  1 10  1  0  0  0  0
  1  2  1  0  0  0  0
  2  3  1  0  0  0  0
  2 13  1  1  0  0  0
  2  7  1  0  0  0  0
  3 14  1  6  0  0  0
  3  7  1  0  0  0  0
  3  4  1  0  0  0  0
  4  5  1  0  0  0  0
  5 16  1  0  0  0  0
  5 15  1  0  0  0  0
  6  5  1  0  0  0  0
  6 17  1  0  0  0  0
  6 18  1  0  0  0  0
  7  8  1  6  0  0  0
  7  6  1  0  0  0  0
  8  9  2  0  0  0  0
 11  1  1  0  0  0  0
 12  1  1  0  0  0  0
 19  8  1  0  0  0  0
M TOR 0 0 1 2 3
M TOR 1 0 1 2 6
M TOR 2 0 1 2 13
M TOR 3 0 1 6 5
M TOR 4 0 1 6 7
M TOR 5 1 2 3 4
M TOR 6 1 2 6 5
M TOR 7 1 2 6 7
M TOR 8 1 6 2 3
M TOR 9 1 6 2 13
M TOR 10 1 6 5 4
M TOR 11 1 6 5 16
M TOR 12 1 6 5 17
M TOR 13 1 6 7 8
M TOR 14 1 6 7 18
M TOR 15 2 1 0 9
M TOR 16 2 1 0 10
M TOR 17 2 1 0 11
M TOR 18 2 3 4 5
M TOR 19 2 3 4 14
M TOR 20 2 3 4 15
M TOR 21 2 6 1 12
M TOR 22 2 6 5 4
M TOR 23 2 6 5 16
M TOR 24 2 6 5 17
M TOR 25 2 6 7 8
M TOR 26 2 6 7 18
M TOR 27 3 2 1 12
M TOR 28 3 2 6 5
M TOR 29 3 2 6 7
M TOR 30 3 4 5 6
M TOR 31 3 4 5 16
M TOR 32 3 4 5 17
M TOR 33 4 3 2 6
M TOR 34 4 3 2 13
M TOR 35 4 5 6 7
M TOR 36 5 6 1 12
M TOR 37 5 6 2 13
M TOR 38 5 6 7 8
M TOR 39 5 6 7 18
M TOR 40 6 1 0 9
M TOR 41 6 1 0 10
M TOR 42 6 1 0 11
M TOR 43 6 5 4 14
M TOR 44 6 5 4 15
M TOR 45 7 6 1 12
M TOR 46 7 6 2 13
M TOR 47 7 6 5 16
M TOR 48 7 6 5 17
M  END
$$$$
