
     RDKit          3D

 19 20  0  0  0  0  0  0  0  0999 V2000
   -2.1050   -2.7397   -1.6824 C   0  0  0  0  0  0  0  0  0  0  0  0
   -1.7071   -1.3434   -1.2569 C   0  0  0  0  0  0  0  0  0  0  0  0
   -2.3639   -0.7102   -0.0589 C   0  0  0  0  0  0  0  0  0  0  0  0
   -2.3455    0.8190    0.0046 C   0  0  0  0  0  0  0  0  0  0  0  0
   -0.8645    1.2295   -0.1930 C   0  0  0  0  0  0  0  0  0  0  0  0
   -0.0700   -0.0119    0.2038 C   0  0  0  0  0  0  0  0  0  0  0  0
    1.0427   -0.0620    0.6810 O   0  0  0  0  0  0  0  0  0  0  0  0
   -0.9306   -1.2145    0.0511 C   0  0  0  0  0  0  0  0  0  0  0  0
   -0.5217   -2.3429    0.7359 O   0  0  0  0  0  0  0  0  0  0  0  0
   -2.3312   -3.3673   -0.8174 H   0  0  0  0  0  0  0  0  0  0  0  0
   -2.9881   -2.7083   -2.3293 H   0  0  0  0  0  0  0  0  0  0  0  0
   -1.2958   -3.2251   -2.2370 H   0  0  0  0  0  0  0  0  0  0  0  0
   -1.4267   -0.6839   -2.0764 H   0  0  0  0  0  0  0  0  0  0  0  0
   -3.1650   -1.2548    0.4292 H   0  0  0  0  0  0  0  0  0  0  0  0
   -3.0062    1.2694   -0.7435 H   0  0  0  0  0  0  0  0  0  0  0  0
   -2.6929    1.1505    0.9885 H   0  0  0  0  0  0  0  0  0  0  0  0
   -0.6392    1.4810   -1.2362 H   0  0  0  0  0  0  0  0  0  0  0  0
   -0.5575    2.0838    0.4128 H   0  0  0  0  0  0  0  0  0  0  0  0
    0.3741   -2.1318    1.0430 H   0  0  0  0  0  0  0  0  0  0  0  0
  1  2  1  0
  2  3  1  0
  3  4  1  0
  4  5  1  0
  5  6  1  0
  6  7  2  0
  6  8  1  0
  8  9  1  0
  8  2  1  0
  8  3  1  0
  1 10  1  0
  1 11  1  0
  1 12  1  0
  2 13  1  0
  3 14  1  0
  4 15  1  0
  4 16  1  0
  5 17  1  0
  5 18  1  0
  9 19  1  0
M  END
$$$$
