
     RDKit          3D

 19 20  0  0  0  0  0  0  0  0999 V2000
   -2.0836    1.4175    1.9700 C   0  0  0  0  0  0  0  0  0  0  0  0
   -2.1881    1.9334    0.5450 C   0  0  0  0  0  0  0  0  0  0  0  0
   -1.7494    3.3880    0.1572 C   0  0  0  0  0  0  0  0  0  0  0  0
   -1.7286    2.9114   -1.3265 C   0  0  0  0  0  0  0  0  0  0  0  0
   -1.0288    1.8189   -0.4978 C   0  0  0  0  0  0  0  0  0  0  0  0
   -0.2578    2.9390    0.2470 C   0  0  0  0  0  0  0  0  0  0  0  0
   -0.5097    0.6527   -1.1114 O   0  0  0  0  0  0  0  0  0  0  0  0
    0.2259   -0.1862   -0.3651 C   0  0  0  0  0  0  0  0  0  0  0  0
    0.4820   -0.0748    0.8015 O   0  0  0  0  0  0  0  0  0  0  0  0
   -2.2026    0.3301    1.9924 H   0  0  0  0  0  0  0  0  0  0  0  0
   -1.1295    1.6459    2.4465 H   0  0  0  0  0  0  0  0  0  0  0  0
   -2.8838    1.8514    2.5802 H   0  0  0  0  0  0  0  0  0  0  0  0
   -3.1592    1.6606    0.1158 H   0  0  0  0  0  0  0  0  0  0  0  0
   -2.1738    4.3149    0.5349 H   0  0  0  0  0  0  0  0  0  0  0  0
   -2.6903    2.6486   -1.7739 H   0  0  0  0  0  0  0  0  0  0  0  0
   -1.0953    3.4786   -2.0120 H   0  0  0  0  0  0  0  0  0  0  0  0
    0.1500    2.7040    1.2271 H   0  0  0  0  0  0  0  0  0  0  0  0
    0.4496    3.5127   -0.3568 H   0  0  0  0  0  0  0  0  0  0  0  0
    0.5667   -1.0126   -1.0085 H   0  0  0  0  0  0  0  0  0  0  0  0
  1  2  1  0
  2  3  1  0
  3  4  1  0
  4  5  1  0
  5  6  1  0
  5  7  1  0
  7  8  1  0
  8  9  2  0
  5  2  1  0
  6  3  1  0
  1 10  1  0
  1 11  1  0
  1 12  1  0
  2 13  1  0
  3 14  1  0
  4 15  1  0
  4 16  1  0
  6 17  1  0
  6 18  1  0
  8 19  1  0
M  END
$$$$
