gdb 3250	2.6140143	1.9103308	1.3413775	1.9668	73.92	-0.23939	0.06015	0.29954	985.0218	0.157156	-422.517671	-422.509988	-422.509044	-422.549161	31.066
 OpenBabel02181911413D

 19 21  0  0  1  0  0  0  0  0999 V2000
    0.9346    0.8514    0.2391 C   0  0  0  0  0  0  0  0  0  0  0  0
    0.8564   -0.6219   -0.1541 C   0  0  2  0  0  0  0  0  0  0  0  0
    1.5386   -1.5391    0.8983 C   0  0  1  0  0  0  0  0  0  0  0  0
    1.2445   -2.9334    0.6761 O   0  0  0  0  0  0  0  0  0  0  0  0
    2.2730   -3.0198   -0.3376 C   0  0  1  0  0  0  0  0  0  0  0  0
    1.7772   -2.4755   -1.6969 C   0  0  0  0  0  0  0  0  0  0  0  0
    1.9617   -1.0362   -1.1755 C   0  0  1  0  0  0  0  0  0  0  0  0
    2.3770   -0.1414   -2.1551 O   0  0  0  0  0  0  0  0  0  0  0  0
    2.8274   -1.6161    0.0350 C   0  0  1  0  0  0  0  0  0  0  0  0
    0.2635    1.0652    1.0767 H   0  0  0  0  0  0  0  0  0  0  0  0
    1.9471    1.1350    0.5557 H   0  0  0  0  0  0  0  0  0  0  0  0
    0.6427    1.5030   -0.5915 H   0  0  0  0  0  0  0  0  0  0  0  0
   -0.1699   -0.8986   -0.4163 H   0  0  0  0  0  0  0  0  0  0  0  0
    1.4720   -1.2610    1.9528 H   0  0  0  0  0  0  0  0  0  0  0  0
    2.8095   -3.9687   -0.3002 H   0  0  0  0  0  0  0  0  0  0  0  0
    2.5204   -2.6660   -2.4779 H   0  0  0  0  0  0  0  0  0  0  0  0
    0.7867   -2.7884   -2.0374 H   0  0  0  0  0  0  0  0  0  0  0  0
    2.4745    0.7312   -1.7592 H   0  0  0  0  0  0  0  0  0  0  0  0
    3.8437   -1.3609    0.3222 H   0  0  0  0  0  0  0  0  0  0  0  0
  1 11  1  0  0  0  0
  1 10  1  0  0  0  0
  2 13  1  6  0  0  0
  2  1  1  0  0  0  0
  2  3  1  0  0  0  0
  3 14  1  1  0  0  0
  4  3  1  0  0  0  0
  5 15  1  1  0  0  0
  5  9  1  0  0  0  0
  5  4  1  0  0  0  0
  6  7  1  0  0  0  0
  6  5  1  0  0  0  0
  7  8  1  6  0  0  0
  7  2  1  0  0  0  0
  7  9  1  0  0  0  0
  8 18  1  0  0  0  0
  9 19  1  1  0  0  0
  9  3  1  0  0  0  0
 12  1  1  0  0  0  0
 16  6  1  0  0  0  0
 17  6  1  0  0  0  0
M TOR 0 0 1 2 3
M TOR 1 0 1 2 8
M TOR 2 0 1 2 13
M TOR 3 0 1 6 5
M TOR 4 0 1 6 7
M TOR 5 0 1 6 8
M TOR 6 1 2 3 4
M TOR 7 1 2 8 4
M TOR 8 1 2 8 6
M TOR 9 1 2 8 18
M TOR 10 1 6 5 4
M TOR 11 1 6 5 15
M TOR 12 1 6 5 16
M TOR 13 1 6 7 17
M TOR 14 1 6 8 4
M TOR 15 1 6 8 18
M TOR 16 2 1 0 9
M TOR 17 2 1 0 10
M TOR 18 2 1 0 11
M TOR 19 2 1 6 5
M TOR 20 2 1 6 7
M TOR 21 2 3 4 5
M TOR 22 2 3 4 8
M TOR 23 2 3 4 14
M TOR 24 2 8 4 5
M TOR 25 2 8 4 14
M TOR 26 2 8 6 5
M TOR 27 2 8 6 7
M TOR 28 3 2 1 6
M TOR 29 3 2 1 12
M TOR 30 3 2 8 6
M TOR 31 3 2 8 18
M TOR 32 3 4 5 6
M TOR 33 3 4 5 15
M TOR 34 3 4 5 16
M TOR 35 3 4 8 6
M TOR 36 3 4 8 18
M TOR 37 4 3 2 13
M TOR 38 4 5 6 7
M TOR 39 4 5 6 8
M TOR 40 4 8 2 13
M TOR 41 4 8 6 7
M TOR 42 5 4 8 18
M TOR 43 5 6 1 12
M TOR 44 5 6 7 17
M TOR 45 5 6 8 18
M TOR 46 6 1 0 9
M TOR 47 6 1 0 10
M TOR 48 6 1 0 11
M TOR 49 6 1 2 13
M TOR 50 6 5 4 14
M TOR 51 6 8 2 13
M TOR 52 6 8 4 14
M TOR 53 7 6 1 12
M TOR 54 7 6 5 15
M TOR 55 7 6 5 16
M TOR 56 7 6 8 18
M TOR 57 8 2 1 12
M TOR 58 8 4 5 15
M TOR 59 8 4 5 16
M TOR 60 8 6 1 12
M TOR 61 8 6 5 15
M TOR 62 8 6 5 16
M TOR 63 8 6 7 17
M  END
$$$$
