
     RDKit          3D

 19 18  0  0  0  0  0  0  0  0999 V2000
    1.3169   -0.0278   -0.1398 C   0  0  0  0  0  0  0  0  0  0  0  0
   -0.0812   -0.0341    0.0339 O   0  0  0  0  0  0  0  0  0  0  0  0
   -0.5068    0.8016    1.0887 C   0  0  0  0  0  0  0  0  0  0  0  0
   -2.0238    0.6910    1.1991 C   0  0  0  0  0  0  0  0  0  0  0  0
   -2.4747   -0.7648    1.5035 C   0  0  0  0  0  0  0  0  0  0  0  0
   -3.9165   -0.9594    1.4231 C   0  0  0  0  0  0  0  0  0  0  0  0
   -5.1075   -1.1019    1.3428 C   0  0  0  0  0  0  0  0  0  0  0  0
   -2.5788    1.6591    2.2248 C   0  0  0  0  0  0  0  0  0  0  0  0
   -1.9155    2.4705    2.8220 O   0  0  0  0  0  0  0  0  0  0  0  0
    1.8408   -0.3833    0.7612 H   0  0  0  0  0  0  0  0  0  0  0  0
    1.5458   -0.6986   -0.9711 H   0  0  0  0  0  0  0  0  0  0  0  0
    1.6923    0.9790   -0.3796 H   0  0  0  0  0  0  0  0  0  0  0  0
   -0.0333    0.5047    2.0394 H   0  0  0  0  0  0  0  0  0  0  0  0
   -0.2220    1.8478    0.9051 H   0  0  0  0  0  0  0  0  0  0  0  0
   -2.4691    0.9672    0.2322 H   0  0  0  0  0  0  0  0  0  0  0  0
   -1.9676   -1.4164    0.7852 H   0  0  0  0  0  0  0  0  0  0  0  0
   -2.1128   -1.0562    2.4985 H   0  0  0  0  0  0  0  0  0  0  0  0
   -6.1580   -1.2422    1.2763 H   0  0  0  0  0  0  0  0  0  0  0  0
   -3.6720    1.5676    2.3985 H   0  0  0  0  0  0  0  0  0  0  0  0
  1  2  1  0
  2  3  1  0
  3  4  1  0
  4  5  1  0
  5  6  1  0
  6  7  3  0
  4  8  1  0
  8  9  2  0
  1 10  1  0
  1 11  1  0
  1 12  1  0
  3 13  1  0
  3 14  1  0
  4 15  1  0
  5 16  1  0
  5 17  1  0
  7 18  1  0
  8 19  1  0
M  END
$$$$
