
     RDKit          3D

 19 21  0  0  0  0  0  0  0  0999 V2000
    1.5005   -0.8056   -1.0124 C   0  0  0  0  0  0  0  0  0  0  0  0
    1.3727   -0.0784    0.3082 C   0  0  0  0  0  0  0  0  0  0  0  0
    2.1766    1.1672    0.5115 C   0  0  0  0  0  0  0  0  0  0  0  0
    1.8112    1.8173    1.7358 O   0  0  0  0  0  0  0  0  0  0  0  0
    2.2745    0.6779    2.4945 C   0  0  0  0  0  0  0  0  0  0  0  0
    3.3471    0.9241    3.5706 C   0  0  0  0  0  0  0  0  0  0  0  0
    2.5457    0.2528    4.5649 O   0  0  0  0  0  0  0  0  0  0  0  0
    1.4214    0.1593    3.6634 C   0  0  0  0  0  0  0  0  0  0  0  0
    2.5874   -0.0983    1.2251 C   0  0  0  0  0  0  0  0  0  0  0  0
    1.3157   -1.8784   -0.8936 H   0  0  0  0  0  0  0  0  0  0  0  0
    0.7850   -0.4185   -1.7451 H   0  0  0  0  0  0  0  0  0  0  0  0
    2.5051   -0.6892   -1.4337 H   0  0  0  0  0  0  0  0  0  0  0  0
    0.3850   -0.1016    0.7659 H   0  0  0  0  0  0  0  0  0  0  0  0
    2.6406    1.7634   -0.2656 H   0  0  0  0  0  0  0  0  0  0  0  0
    4.3205    0.4409    3.4246 H   0  0  0  0  0  0  0  0  0  0  0  0
    3.4902    1.9894    3.7922 H   0  0  0  0  0  0  0  0  0  0  0  0
    1.0354   -0.8633    3.5798 H   0  0  0  0  0  0  0  0  0  0  0  0
    0.6075    0.8418    3.9397 H   0  0  0  0  0  0  0  0  0  0  0  0
    3.4313   -0.7595    1.0773 H   0  0  0  0  0  0  0  0  0  0  0  0
  1  2  1  0
  2  3  1  0
  3  4  1  0
  4  5  1  0
  5  6  1  0
  6  7  1  0
  7  8  1  0
  5  9  1  0
  9  2  1  0
  9  3  1  0
  8  5  1  0
  1 10  1  0
  1 11  1  0
  1 12  1  0
  2 13  1  0
  3 14  1  0
  6 15  1  0
  6 16  1  0
  8 17  1  0
  8 18  1  0
  9 19  1  0
M  END
$$$$
