
     RDKit          3D

 19 21  0  0  0  0  0  0  0  0999 V2000
    2.6137    0.8576    1.6600 C   0  0  0  0  0  0  0  0  0  0  0  0
    2.4647   -0.1718    0.6664 O   0  0  0  0  0  0  0  0  0  0  0  0
    1.4602    0.2403   -0.2254 C   0  0  0  0  0  0  0  0  0  0  0  0
   -0.0304   -0.1127    0.0990 C   0  0  0  0  0  0  0  0  0  0  0  0
   -0.2076   -0.3931    1.5902 C   0  0  0  0  0  0  0  0  0  0  0  0
    0.1612    0.9011    2.3576 C   0  0  0  0  0  0  0  0  0  0  0  0
    1.3013    1.6563    1.6398 C   0  0  0  0  0  0  0  0  0  0  0  0
    0.9732    1.6522    0.1141 C   0  0  0  0  0  0  0  0  0  0  0  0
   -0.3935    1.2792   -0.1668 O   0  0  0  0  0  0  0  0  0  0  0  0
    2.8116    0.3797    2.6246 H   0  0  0  0  0  0  0  0  0  0  0  0
    3.4779    1.4893    1.4065 H   0  0  0  0  0  0  0  0  0  0  0  0
    1.7520    0.0352   -1.2569 H   0  0  0  0  0  0  0  0  0  0  0  0
   -0.5621   -0.8022   -0.5609 H   0  0  0  0  0  0  0  0  0  0  0  0
   -1.2387   -0.6850    1.8114 H   0  0  0  0  0  0  0  0  0  0  0  0
    0.4425   -1.2279    1.8731 H   0  0  0  0  0  0  0  0  0  0  0  0
   -0.7151    1.5534    2.3796 H   0  0  0  0  0  0  0  0  0  0  0  0
    0.4337    0.6844    3.3951 H   0  0  0  0  0  0  0  0  0  0  0  0
    1.4328    2.6590    2.0540 H   0  0  0  0  0  0  0  0  0  0  0  0
    1.2930    2.5381   -0.4381 H   0  0  0  0  0  0  0  0  0  0  0  0
  1  2  1  0
  2  3  1  0
  3  4  1  0
  4  5  1  0
  5  6  1  0
  6  7  1  0
  7  8  1  0
  8  9  1  0
  7  1  1  0
  8  3  1  0
  9  4  1  0
  1 10  1  0
  1 11  1  0
  3 12  1  0
  4 13  1  0
  5 14  1  0
  5 15  1  0
  6 16  1  0
  6 17  1  0
  7 18  1  0
  8 19  1  0
M  END
$$$$
