
     RDKit          3D

 19 19  0  0  0  0  0  0  0  0999 V2000
    1.4499    0.8160   -0.4235 C   0  0  0  0  0  0  0  0  0  0  0  0
    0.0424    0.3581   -0.1680 C   0  0  0  0  0  0  0  0  0  0  0  0
   -1.0099    1.1789   -0.1452 C   0  0  0  0  0  0  0  0  0  0  0  0
   -2.4118    0.6963    0.1527 C   0  0  0  0  0  0  0  0  0  0  0  0
   -2.3407   -0.6894    0.8124 C   0  0  0  0  0  0  0  0  0  0  0  0
   -1.4799   -1.5505    0.0900 O   0  0  0  0  0  0  0  0  0  0  0  0
   -0.1352   -1.1165    0.1030 C   0  0  0  0  0  0  0  0  0  0  0  0
   -3.1945    0.6427   -1.1542 C   0  0  0  0  0  0  0  0  0  0  0  0
   -4.0113    1.4582   -1.4967 O   0  0  0  0  0  0  0  0  0  0  0  0
    2.1111    0.5517    0.4118 H   0  0  0  0  0  0  0  0  0  0  0  0
    1.8677    0.3347   -1.3168 H   0  0  0  0  0  0  0  0  0  0  0  0
    1.4985    1.8985   -0.5644 H   0  0  0  0  0  0  0  0  0  0  0  0
   -0.8884    2.2374   -0.3595 H   0  0  0  0  0  0  0  0  0  0  0  0
   -2.9258    1.4068    0.8097 H   0  0  0  0  0  0  0  0  0  0  0  0
   -2.0002   -0.5765    1.8541 H   0  0  0  0  0  0  0  0  0  0  0  0
   -3.3187   -1.1799    0.8269 H   0  0  0  0  0  0  0  0  0  0  0  0
    0.3422   -1.3675    1.0689 H   0  0  0  0  0  0  0  0  0  0  0  0
    0.3806   -1.7068   -0.6638 H   0  0  0  0  0  0  0  0  0  0  0  0
   -2.9257   -0.2236   -1.7979 H   0  0  0  0  0  0  0  0  0  0  0  0
  1  2  1  0
  2  3  2  0
  3  4  1  0
  4  5  1  0
  5  6  1  0
  6  7  1  0
  4  8  1  0
  8  9  2  0
  7  2  1  0
  1 10  1  0
  1 11  1  0
  1 12  1  0
  3 13  1  0
  4 14  1  0
  5 15  1  0
  5 16  1  0
  7 17  1  0
  7 18  1  0
  8 19  1  0
M  END
$$$$
