
     RDKit          3D

 19 21  0  0  0  0  0  0  0  0999 V2000
    0.7080   -0.3824   -0.7541 C   0  0  0  0  0  0  0  0  0  0  0  0
    0.8466    0.1378    0.6714 C   0  0  0  0  0  0  0  0  0  0  0  0
    1.6308    1.4482    0.7756 C   0  0  0  0  0  0  0  0  0  0  0  0
    1.3553    2.6395    0.1373 O   0  0  0  0  0  0  0  0  0  0  0  0
    2.3105    1.4785    2.1388 C   0  0  0  0  0  0  0  0  0  0  0  0
    1.9550    0.1787    2.8600 C   0  0  0  0  0  0  0  0  0  0  0  0
    2.0390   -0.4777    1.4559 C   0  0  0  0  0  0  0  0  0  0  0  0
    2.2561   -1.8304    1.2700 O   0  0  0  0  0  0  0  0  0  0  0  0
    2.9574    0.7463    0.9742 C   0  0  0  0  0  0  0  0  0  0  0  0
    0.3531   -1.4163   -0.7593 H   0  0  0  0  0  0  0  0  0  0  0  0
   -0.0082    0.2224   -1.3217 H   0  0  0  0  0  0  0  0  0  0  0  0
    1.6699   -0.3594   -1.2788 H   0  0  0  0  0  0  0  0  0  0  0  0
   -0.1196    0.0979    1.1917 H   0  0  0  0  0  0  0  0  0  0  0  0
    1.4438    2.4988   -0.8119 H   0  0  0  0  0  0  0  0  0  0  0  0
    2.6257    2.4213    2.5656 H   0  0  0  0  0  0  0  0  0  0  0  0
    2.7783   -0.1459    3.5070 H   0  0  0  0  0  0  0  0  0  0  0  0
    1.0043    0.0990    3.3999 H   0  0  0  0  0  0  0  0  0  0  0  0
    3.0064   -2.0972    1.8114 H   0  0  0  0  0  0  0  0  0  0  0  0
    3.9306    0.8413    0.5152 H   0  0  0  0  0  0  0  0  0  0  0  0
  1  2  1  0
  2  3  1  0
  3  4  1  0
  3  5  1  0
  5  6  1  0
  6  7  1  0
  7  8  1  0
  7  9  1  0
  7  2  1  0
  9  3  1  0
  9  5  1  0
  1 10  1  0
  1 11  1  0
  1 12  1  0
  2 13  1  0
  4 14  1  0
  5 15  1  0
  6 16  1  0
  6 17  1  0
  8 18  1  0
  9 19  1  0
M  END
$$$$
