
     RDKit          3D

 19 20  0  0  0  0  0  0  0  0999 V2000
    2.7979   -1.6476   -0.5165 C   0  0  0  0  0  0  0  0  0  0  0  0
    2.4388   -0.4293    0.2709 C   0  0  0  0  0  0  0  0  0  0  0  0
    3.1699    0.2341    1.4716 C   0  0  0  0  0  0  0  0  0  0  0  0
    2.0623    1.1840    0.9809 C   0  0  0  0  0  0  0  0  0  0  0  0
    2.4776    0.9091   -0.4039 O   0  0  0  0  0  0  0  0  0  0  0  0
    1.0539   -0.0239    0.8823 C   0  0  0  0  0  0  0  0  0  0  0  0
   -0.1297    0.1524   -0.0649 C   0  0  0  0  0  0  0  0  0  0  0  0
    0.5958   -0.6945    2.1521 C   0  0  0  0  0  0  0  0  0  0  0  0
    1.0477   -1.7179    2.6062 O   0  0  0  0  0  0  0  0  0  0  0  0
    2.7120   -2.5284    0.1263 H   0  0  0  0  0  0  0  0  0  0  0  0
    2.1253   -1.7708   -1.3709 H   0  0  0  0  0  0  0  0  0  0  0  0
    3.8242   -1.5775   -0.8886 H   0  0  0  0  0  0  0  0  0  0  0  0
    3.0861   -0.2328    2.4525 H   0  0  0  0  0  0  0  0  0  0  0  0
    4.1787    0.5773    1.2412 H   0  0  0  0  0  0  0  0  0  0  0  0
    1.8540    2.2210    1.2461 H   0  0  0  0  0  0  0  0  0  0  0  0
   -0.9402    0.7096    0.4184 H   0  0  0  0  0  0  0  0  0  0  0  0
    0.1917    0.6969   -0.9534 H   0  0  0  0  0  0  0  0  0  0  0  0
   -0.5358   -0.8175   -0.3723 H   0  0  0  0  0  0  0  0  0  0  0  0
   -0.2542   -0.1772    2.6568 H   0  0  0  0  0  0  0  0  0  0  0  0
  1  2  1  0
  2  3  1  0
  3  4  1  0
  4  5  1  0
  4  6  1  0
  6  7  1  0
  6  8  1  0
  8  9  2  0
  5  2  1  0
  6  2  1  0
  1 10  1  0
  1 11  1  0
  1 12  1  0
  3 13  1  0
  3 14  1  0
  4 15  1  0
  7 16  1  0
  7 17  1  0
  7 18  1  0
  8 19  1  0
M  END
$$$$
