
     RDKit          3D

 19 20  0  0  0  0  0  0  0  0999 V2000
    1.6523   -0.2628    0.6256 C   0  0  0  0  0  0  0  0  0  0  0  0
    0.3315   -0.0845    1.0797 O   0  0  0  0  0  0  0  0  0  0  0  0
   -0.3616    0.9229    0.3629 C   0  0  0  0  0  0  0  0  0  0  0  0
   -1.7633    0.9694    0.8508 C   0  0  0  0  0  0  0  0  0  0  0  0
   -2.5520    1.9644    1.2631 C   0  0  0  0  0  0  0  0  0  0  0  0
   -3.8627    1.2109    1.5606 C   0  0  0  0  0  0  0  0  0  0  0  0
   -3.3400   -0.0106    2.3771 C   0  0  0  0  0  0  0  0  0  0  0  0
   -2.7220   -0.2377    0.9672 C   0  0  0  0  0  0  0  0  0  0  0  0
   -3.9605    0.3134    0.4030 O   0  0  0  0  0  0  0  0  0  0  0  0
    2.2532    0.6526    0.7450 H   0  0  0  0  0  0  0  0  0  0  0  0
    2.0991   -1.0587    1.2261 H   0  0  0  0  0  0  0  0  0  0  0  0
    1.6841   -0.5560   -0.4360 H   0  0  0  0  0  0  0  0  0  0  0  0
    0.1280    1.9029    0.4873 H   0  0  0  0  0  0  0  0  0  0  0  0
   -0.3421    0.6881   -0.7177 H   0  0  0  0  0  0  0  0  0  0  0  0
   -2.3588    3.0219    1.3702 H   0  0  0  0  0  0  0  0  0  0  0  0
   -4.7741    1.7606    1.7913 H   0  0  0  0  0  0  0  0  0  0  0  0
   -2.6719    0.1647    3.2223 H   0  0  0  0  0  0  0  0  0  0  0  0
   -4.1291   -0.7292    2.6100 H   0  0  0  0  0  0  0  0  0  0  0  0
   -2.4251   -1.2078    0.5730 H   0  0  0  0  0  0  0  0  0  0  0  0
  1  2  1  0
  2  3  1  0
  3  4  1  0
  4  5  2  0
  5  6  1  0
  6  7  1  0
  7  8  1  0
  8  9  1  0
  8  4  1  0
  9  6  1  0
  1 10  1  0
  1 11  1  0
  1 12  1  0
  3 13  1  0
  3 14  1  0
  5 15  1  0
  6 16  1  0
  7 17  1  0
  7 18  1  0
  8 19  1  0
M  END
$$$$
