
     RDKit          3D

 19 19  0  0  0  0  0  0  0  0999 V2000
    1.2607   -0.4009    0.6915 C   0  0  0  0  0  0  0  0  0  0  0  0
   -0.0983   -0.1438    0.9565 O   0  0  0  0  0  0  0  0  0  0  0  0
   -0.5609    1.0466    0.3664 C   0  0  0  0  0  0  0  0  0  0  0  0
   -2.0258    1.2038    0.7257 C   0  0  0  0  0  0  0  0  0  0  0  0
   -2.5631    2.4349    0.2033 O   0  0  0  0  0  0  0  0  0  0  0  0
   -3.0391    2.8430    1.5003 C   0  0  0  0  0  0  0  0  0  0  0  0
   -2.3604    1.6245    2.1879 C   0  0  0  0  0  0  0  0  0  0  0  0
   -3.1906    0.7503    2.9860 C   0  0  0  0  0  0  0  0  0  0  0  0
   -3.9000    0.0299    3.6365 C   0  0  0  0  0  0  0  0  0  0  0  0
    1.9105    0.3994    1.0794 H   0  0  0  0  0  0  0  0  0  0  0  0
    1.5186   -1.3386    1.1892 H   0  0  0  0  0  0  0  0  0  0  0  0
    1.4524   -0.5050   -0.3879 H   0  0  0  0  0  0  0  0  0  0  0  0
    0.0056    1.9218    0.7284 H   0  0  0  0  0  0  0  0  0  0  0  0
   -0.4563    1.0213   -0.7317 H   0  0  0  0  0  0  0  0  0  0  0  0
   -2.5950    0.3294    0.3882 H   0  0  0  0  0  0  0  0  0  0  0  0
   -2.6619    3.8307    1.7868 H   0  0  0  0  0  0  0  0  0  0  0  0
   -4.1332    2.8356    1.5600 H   0  0  0  0  0  0  0  0  0  0  0  0
   -1.4575    1.9040    2.7383 H   0  0  0  0  0  0  0  0  0  0  0  0
   -4.5182   -0.6116    4.2143 H   0  0  0  0  0  0  0  0  0  0  0  0
  1  2  1  0
  2  3  1  0
  3  4  1  0
  4  5  1  0
  5  6  1  0
  6  7  1  0
  7  8  1  0
  8  9  3  0
  7  4  1  0
  1 10  1  0
  1 11  1  0
  1 12  1  0
  3 13  1  0
  3 14  1  0
  4 15  1  0
  6 16  1  0
  6 17  1  0
  7 18  1  0
  9 19  1  0
M  END
$$$$
