
     RDKit          3D

 19 20  0  0  0  0  0  0  0  0999 V2000
    1.3551   -0.3492    1.0158 C   0  0  0  0  0  0  0  0  0  0  0  0
    0.8722    0.1683   -0.3475 C   0  0  0  0  0  0  0  0  0  0  0  0
    1.7156   -0.3422   -1.4704 C   0  0  0  0  0  0  0  0  0  0  0  0
    1.5671   -1.7273   -1.8935 O   0  0  0  0  0  0  0  0  0  0  0  0
    1.4559   -0.7108   -2.8873 C   0  0  0  0  0  0  0  0  0  0  0  0
    2.8917   -0.4007   -3.3507 C   0  0  0  0  0  0  0  0  0  0  0  0
    3.7112   -1.5090   -3.9969 C   0  0  0  0  0  0  0  0  0  0  0  0
    3.1612   -0.0178   -1.8578 C   0  0  0  0  0  0  0  0  0  0  0  0
    4.0904    0.4692   -1.2839 O   0  0  0  0  0  0  0  0  0  0  0  0
    1.3097   -1.4414    1.0520 H   0  0  0  0  0  0  0  0  0  0  0  0
    2.3893   -0.0450    1.2000 H   0  0  0  0  0  0  0  0  0  0  0  0
    0.7318    0.0463    1.8225 H   0  0  0  0  0  0  0  0  0  0  0  0
   -0.1670   -0.1299   -0.5258 H   0  0  0  0  0  0  0  0  0  0  0  0
    0.9012    1.2646   -0.3629 H   0  0  0  0  0  0  0  0  0  0  0  0
    0.5245   -0.6365   -3.4365 H   0  0  0  0  0  0  0  0  0  0  0  0
    2.9366    0.5263   -3.9376 H   0  0  0  0  0  0  0  0  0  0  0  0
    3.5843   -2.4442   -3.4462 H   0  0  0  0  0  0  0  0  0  0  0  0
    3.4093   -1.6724   -5.0364 H   0  0  0  0  0  0  0  0  0  0  0  0
    4.7736   -1.2474   -3.9910 H   0  0  0  0  0  0  0  0  0  0  0  0
  1  2  1  0
  2  3  1  0
  3  4  1  0
  4  5  1  0
  5  6  1  0
  6  7  1  0
  6  8  1  0
  8  9  2  0
  5  3  1  0
  8  3  1  0
  1 10  1  0
  1 11  1  0
  1 12  1  0
  2 13  1  0
  2 14  1  0
  5 15  1  0
  6 16  1  0
  7 17  1  0
  7 18  1  0
  7 19  1  0
M  END
$$$$
