gdb 1689	3.1549829	1.1309087	0.9930868	3.239	75.27	-0.24659	-0.02118	0.22541	1231.594	0.154291	-422.529553	-422.520506	-422.519562	-422.563893	33.083
 OpenBabel02181911403D

 19 20  0  0  1  0  0  0  0  0999 V2000
   -2.1609    1.6053    0.1705 C   0  0  0  0  0  0  0  0  0  0  0  0
   -0.9860    1.9639   -0.7380 C   0  0  1  0  0  0  0  0  0  0  0  0
   -0.1649    0.7336   -1.1581 C   0  0  0  0  0  0  0  0  0  0  0  0
    0.4438    0.0006    0.0140 C   0  0  0  0  0  0  0  0  0  0  0  0
    0.3003   -1.1721    0.2501 O   0  0  0  0  0  0  0  0  0  0  0  0
   -1.4140    2.9128   -1.9291 C   0  0  0  0  0  0  0  0  0  0  0  0
   -0.5808    4.0265   -1.2882 C   0  0  2  0  0  0  0  0  0  0  0  0
    0.7696    3.5510   -1.1968 O   0  0  0  0  0  0  0  0  0  0  0  0
   -0.1582    3.1538   -0.1838 C   0  0  2  0  0  0  0  0  0  0  0  0
   -1.8247    1.1006    1.0831 H   0  0  0  0  0  0  0  0  0  0  0  0
   -2.7154    2.5013    0.4692 H   0  0  0  0  0  0  0  0  0  0  0  0
   -2.8565    0.9324   -0.3418 H   0  0  0  0  0  0  0  0  0  0  0  0
   -0.7755    0.0302   -1.7328 H   0  0  0  0  0  0  0  0  0  0  0  0
    0.6593    1.0835   -1.7933 H   0  0  0  0  0  0  0  0  0  0  0  0
    1.0707    0.6405    0.6794 H   0  0  0  0  0  0  0  0  0  0  0  0
   -1.0974    2.6175   -2.9325 H   0  0  0  0  0  0  0  0  0  0  0  0
   -2.4883    3.1128   -1.9277 H   0  0  0  0  0  0  0  0  0  0  0  0
   -0.7217    5.1003   -1.3255 H   0  0  0  0  0  0  0  0  0  0  0  0
    0.0977    3.3809    0.8458 H   0  0  0  0  0  0  0  0  0  0  0  0
  1 11  1  0  0  0  0
  1 10  1  0  0  0  0
  2  3  1  6  0  0  0
  2  9  1  0  0  0  0
  2  1  1  0  0  0  0
  3  4  1  0  0  0  0
  4  5  2  0  0  0  0
  4 15  1  0  0  0  0
  6 17  1  0  0  0  0
  6  7  1  0  0  0  0
  6  2  1  0  0  0  0
  7 18  1  1  0  0  0
  7  8  1  0  0  0  0
  7  9  1  0  0  0  0
  8  9  1  0  0  0  0
  9 19  1  1  0  0  0
 12  1  1  0  0  0  0
 13  3  1  0  0  0  0
 14  3  1  0  0  0  0
 16  6  1  0  0  0  0
M TOR 0 0 1 2 3
M TOR 1 0 1 2 12
M TOR 2 0 1 2 13
M TOR 3 0 1 5 6
M TOR 4 0 1 5 15
M TOR 5 0 1 5 16
M TOR 6 0 1 8 6
M TOR 7 0 1 8 7
M TOR 8 0 1 8 18
M TOR 9 1 2 3 4
M TOR 10 1 2 3 14
M TOR 11 1 5 6 7
M TOR 12 1 5 6 8
M TOR 13 1 5 6 17
M TOR 14 1 8 6 7
M TOR 15 1 8 6 17
M TOR 16 2 1 0 9
M TOR 17 2 1 0 10
M TOR 18 2 1 0 11
M TOR 19 2 1 5 6
M TOR 20 2 1 5 15
M TOR 21 2 1 5 16
M TOR 22 2 1 8 6
M TOR 23 2 1 8 7
M TOR 24 2 1 8 18
M TOR 25 3 2 1 5
M TOR 26 3 2 1 8
M TOR 27 4 3 2 12
M TOR 28 4 3 2 13
M TOR 29 5 1 0 9
M TOR 30 5 1 0 10
M TOR 31 5 1 0 11
M TOR 32 5 1 2 12
M TOR 33 5 1 2 13
M TOR 34 5 1 8 7
M TOR 35 5 1 8 18
M TOR 36 5 6 7 8
M TOR 37 5 6 8 18
M TOR 38 6 7 8 18
M TOR 39 7 6 5 15
M TOR 40 7 6 5 16
M TOR 41 7 8 6 17
M TOR 42 8 1 0 9
M TOR 43 8 1 0 10
M TOR 44 8 1 0 11
M TOR 45 8 1 2 12
M TOR 46 8 1 2 13
M TOR 47 8 1 5 15
M TOR 48 8 1 5 16
M TOR 49 8 6 5 15
M TOR 50 8 6 5 16
M  END
$$$$
