
     RDKit          3D

 19 19  0  0  0  0  0  0  0  0999 V2000
    1.6331    6.1526    1.5907 C   0  0  0  0  0  0  0  0  0  0  0  0
    1.0582    5.5018    0.3442 C   0  0  0  0  0  0  0  0  0  0  0  0
    1.0331    4.1027    0.5393 O   0  0  0  0  0  0  0  0  0  0  0  0
    0.5145    3.3941   -0.5624 C   0  0  0  0  0  0  0  0  0  0  0  0
    0.5324    1.9313   -0.2557 C   0  0  0  0  0  0  0  0  0  0  0  0
    0.9716    1.3436    0.8880 C   0  0  0  0  0  0  0  0  0  0  0  0
    0.8375   -0.0099    0.8158 O   0  0  0  0  0  0  0  0  0  0  0  0
    0.3016   -0.2873   -0.4000 C   0  0  0  0  0  0  0  0  0  0  0  0
    0.0919    0.8557   -1.1017 C   0  0  0  0  0  0  0  0  0  0  0  0
    2.6484    5.7916    1.7777 H   0  0  0  0  0  0  0  0  0  0  0  0
    1.6667    7.2397    1.4726 H   0  0  0  0  0  0  0  0  0  0  0  0
    1.0187    5.9165    2.4642 H   0  0  0  0  0  0  0  0  0  0  0  0
    0.0391    5.8759    0.1462 H   0  0  0  0  0  0  0  0  0  0  0  0
    1.6689    5.7510   -0.5403 H   0  0  0  0  0  0  0  0  0  0  0  0
   -0.5153    3.7273   -0.7856 H   0  0  0  0  0  0  0  0  0  0  0  0
    1.1087    3.6036   -1.4704 H   0  0  0  0  0  0  0  0  0  0  0  0
    1.3872    1.7360    1.7990 H   0  0  0  0  0  0  0  0  0  0  0  0
    0.1320   -1.3300   -0.6122 H   0  0  0  0  0  0  0  0  0  0  0  0
   -0.3229    0.9321   -2.0951 H   0  0  0  0  0  0  0  0  0  0  0  0
  1  2  1  0
  2  3  1  0
  3  4  1  0
  4  5  1  0
  5  6  2  0
  6  7  1  0
  7  8  1  0
  8  9  2  0
  9  5  1  0
  1 10  1  0
  1 11  1  0
  1 12  1  0
  2 13  1  0
  2 14  1  0
  4 15  1  0
  4 16  1  0
  6 17  1  0
  8 18  1  0
  9 19  1  0
M  END
$$$$
