
     RDKit          3D

 19 20  0  0  0  0  0  0  0  0999 V2000
   -3.2497    0.0084   -1.2949 C   0  0  0  0  0  0  0  0  0  0  0  0
   -1.7471    0.0567   -1.0628 C   0  0  0  0  0  0  0  0  0  0  0  0
   -1.1163    1.0939   -0.0560 C   0  0  0  0  0  0  0  0  0  0  0  0
   -1.8293    0.7075    1.2477 C   0  0  0  0  0  0  0  0  0  0  0  0
   -1.8098   -0.7409    1.1506 O   0  0  0  0  0  0  0  0  0  0  0  0
   -1.0994   -0.9868   -0.0849 C   0  0  0  0  0  0  0  0  0  0  0  0
   -0.9306   -2.4512   -0.3475 C   0  0  0  0  0  0  0  0  0  0  0  0
    0.0343    0.0629    0.0060 C   0  0  0  0  0  0  0  0  0  0  0  0
    1.2270    0.0797   -0.0346 O   0  0  0  0  0  0  0  0  0  0  0  0
   -3.7924   -0.1950   -0.3694 H   0  0  0  0  0  0  0  0  0  0  0  0
   -3.6151    0.9513   -1.7141 H   0  0  0  0  0  0  0  0  0  0  0  0
   -3.4966   -0.7871   -2.0052 H   0  0  0  0  0  0  0  0  0  0  0  0
   -1.1999    0.0821   -2.0108 H   0  0  0  0  0  0  0  0  0  0  0  0
   -0.9683    2.1465   -0.2849 H   0  0  0  0  0  0  0  0  0  0  0  0
   -1.2873    1.0338    2.1427 H   0  0  0  0  0  0  0  0  0  0  0  0
   -2.8639    1.0618    1.3114 H   0  0  0  0  0  0  0  0  0  0  0  0
   -0.3977   -2.9252    0.4815 H   0  0  0  0  0  0  0  0  0  0  0  0
   -1.9030   -2.9422   -0.4537 H   0  0  0  0  0  0  0  0  0  0  0  0
   -0.3547   -2.6086   -1.2635 H   0  0  0  0  0  0  0  0  0  0  0  0
  1  2  1  0
  2  3  1  0
  3  4  1  0
  4  5  1  0
  5  6  1  0
  6  7  1  0
  6  8  1  0
  8  9  2  0
  6  2  1  0
  8  3  1  0
  1 10  1  0
  1 11  1  0
  1 12  1  0
  2 13  1  0
  3 14  1  0
  4 15  1  0
  4 16  1  0
  7 17  1  0
  7 18  1  0
  7 19  1  0
M  END
$$$$
