
     RDKit          3D

 19 19  0  0  0  0  0  0  0  0999 V2000
    1.2105    0.7217    0.0555 O   0  0  0  0  0  0  0  0  0  0  0  0
   -0.0727    0.1749    0.2682 C   0  0  0  0  0  0  0  0  0  0  0  0
   -1.1934    1.2304    0.3374 C   0  0  0  0  0  0  0  0  0  0  0  0
   -1.1742    2.0328    1.6888 C   0  0  0  0  0  0  0  0  0  0  0  0
   -2.2540    1.0641    2.2467 C   0  0  0  0  0  0  0  0  0  0  0  0
   -3.3800    1.6184    2.8832 O   0  0  0  0  0  0  0  0  0  0  0  0
   -2.5465    0.5913    0.8098 C   0  0  0  0  0  0  0  0  0  0  0  0
   -1.2455    2.0238   -0.8774 C   0  0  0  0  0  0  0  0  0  0  0  0
   -1.3168    2.6832   -1.8806 C   0  0  0  0  0  0  0  0  0  0  0  0
    1.3904    1.3515    0.7613 H   0  0  0  0  0  0  0  0  0  0  0  0
   -0.2598   -0.4915   -0.5799 H   0  0  0  0  0  0  0  0  0  0  0  0
   -0.1045   -0.4375    1.1844 H   0  0  0  0  0  0  0  0  0  0  0  0
   -0.2187    2.1034    2.2198 H   0  0  0  0  0  0  0  0  0  0  0  0
   -1.5901    3.0336    1.5609 H   0  0  0  0  0  0  0  0  0  0  0  0
   -1.8079    0.2676    2.8578 H   0  0  0  0  0  0  0  0  0  0  0  0
   -3.1327    1.8708    3.7785 H   0  0  0  0  0  0  0  0  0  0  0  0
   -2.6744   -0.4800    0.6358 H   0  0  0  0  0  0  0  0  0  0  0  0
   -3.4024    1.1321    0.4031 H   0  0  0  0  0  0  0  0  0  0  0  0
   -1.3681    3.2636   -2.7682 H   0  0  0  0  0  0  0  0  0  0  0  0
  1  2  1  0
  2  3  1  0
  3  4  1  0
  4  5  1  0
  5  6  1  0
  5  7  1  0
  3  8  1  0
  8  9  3  0
  7  3  1  0
  1 10  1  0
  2 11  1  0
  2 12  1  0
  4 13  1  0
  4 14  1  0
  5 15  1  0
  6 16  1  0
  7 17  1  0
  7 18  1  0
  9 19  1  0
M  END
$$$$
