gdb 3903	2.0989468	1.6832038	1.13561	2.7411	75.98	-0.24433	-0.03796	0.20637	1131.9218	0.15553	-422.534225	-422.525488	-422.524543	-422.568073	32.091
 OpenBabel02181911413D

 19 20  0  0  1  0  0  0  0  0999 V2000
    2.6447   -0.6575   -1.3765 C   0  0  0  0  0  0  0  0  0  0  0  0
    1.8859   -0.0383   -0.2096 C   0  0  1  0  0  0  0  0  0  0  0  0
    2.3369   -0.5292    1.2048 C   0  0  0  0  0  0  0  0  0  0  0  0
    2.7397    0.9108    1.5894 C   0  0  2  0  0  0  0  0  0  0  0  0
    1.6909    1.6837    2.2019 O   0  0  0  0  0  0  0  0  0  0  0  0
    1.2781    2.2395    0.9292 C   0  0  0  0  0  0  0  0  0  0  0  0
    2.3174    1.4105    0.1579 C   0  0  2  0  0  0  0  0  0  0  0  0
    4.0911    1.1716    2.1837 C   0  0  0  0  0  0  0  0  0  0  0  0
    5.0548    0.4725    1.9896 O   0  0  0  0  0  0  0  0  0  0  0  0
    2.4079   -1.7222   -1.4754 H   0  0  0  0  0  0  0  0  0  0  0  0
    2.3915   -0.1656   -2.3222 H   0  0  0  0  0  0  0  0  0  0  0  0
    3.7270   -0.5698   -1.2292 H   0  0  0  0  0  0  0  0  0  0  0  0
    0.8073   -0.1198   -0.3794 H   0  0  0  0  0  0  0  0  0  0  0  0
    1.5675   -0.9546    1.8516 H   0  0  0  0  0  0  0  0  0  0  0  0
    3.2040   -1.1940    1.1715 H   0  0  0  0  0  0  0  0  0  0  0  0
    0.2253    2.0273    0.7046 H   0  0  0  0  0  0  0  0  0  0  0  0
    1.4390    3.3241    0.9021 H   0  0  0  0  0  0  0  0  0  0  0  0
    2.9885    1.9302   -0.5258 H   0  0  0  0  0  0  0  0  0  0  0  0
    4.1396    2.0929    2.8057 H   0  0  0  0  0  0  0  0  0  0  0  0
  1 12  1  0  0  0  0
  1  2  1  0  0  0  0
  2 13  1  6  0  0  0
  2  7  1  0  0  0  0
  2  3  1  0  0  0  0
  3  4  1  0  0  0  0
  3 14  1  0  0  0  0
  4  8  1  1  0  0  0
  4  5  1  0  0  0  0
  6  5  1  0  0  0  0
  7 18  1  6  0  0  0
  7  6  1  0  0  0  0
  7  4  1  0  0  0  0
  8 19  1  0  0  0  0
  9  8  2  0  0  0  0
 10  1  1  0  0  0  0
 11  1  1  0  0  0  0
 15  3  1  0  0  0  0
 16  6  1  0  0  0  0
 17  6  1  0  0  0  0
M TOR 0 0 1 2 3
M TOR 1 0 1 2 13
M TOR 2 0 1 2 14
M TOR 3 0 1 6 3
M TOR 4 0 1 6 5
M TOR 5 0 1 6 17
M TOR 6 1 2 3 4
M TOR 7 1 2 3 6
M TOR 8 1 2 3 7
M TOR 9 1 6 3 4
M TOR 10 1 6 3 7
M TOR 11 1 6 5 4
M TOR 12 1 6 5 15
M TOR 13 1 6 5 16
M TOR 14 2 1 0 9
M TOR 15 2 1 0 10
M TOR 16 2 1 0 11
M TOR 17 2 1 6 5
M TOR 18 2 1 6 17
M TOR 19 2 3 4 5
M TOR 20 2 3 6 5
M TOR 21 2 3 6 17
M TOR 22 2 3 7 8
M TOR 23 2 3 7 18
M TOR 24 3 2 1 12
M TOR 25 3 4 5 6
M TOR 26 3 4 5 15
M TOR 27 3 4 5 16
M TOR 28 3 6 1 12
M TOR 29 3 6 5 15
M TOR 30 3 6 5 16
M TOR 31 4 3 2 13
M TOR 32 4 3 2 14
M TOR 33 4 3 6 17
M TOR 34 4 3 7 8
M TOR 35 4 3 7 18
M TOR 36 4 5 6 17
M TOR 37 5 4 3 7
M TOR 38 5 6 1 12
M TOR 39 5 6 3 7
M TOR 40 6 1 0 9
M TOR 41 6 1 0 10
M TOR 42 6 1 0 11
M TOR 43 6 1 2 13
M TOR 44 6 1 2 14
M TOR 45 6 3 2 13
M TOR 46 6 3 2 14
M TOR 47 6 3 7 8
M TOR 48 6 3 7 18
M TOR 49 7 3 2 13
M TOR 50 7 3 2 14
M TOR 51 7 3 6 17
M  END
$$$$
