
     RDKit          3D

 19 20  0  0  0  0  0  0  0  0999 V2000
   -0.7711    2.7946    3.5068 O   0  0  0  0  0  0  0  0  0  0  0  0
   -1.6025    2.1555    2.5622 C   0  0  0  0  0  0  0  0  0  0  0  0
   -2.7043    3.0076    1.8698 C   0  0  0  0  0  0  0  0  0  0  0  0
   -2.1637    2.5284    0.4869 C   0  0  0  0  0  0  0  0  0  0  0  0
   -2.7980    1.2934   -0.0901 C   0  0  0  0  0  0  0  0  0  0  0  0
   -2.0382    0.2051    0.0420 C   0  0  0  0  0  0  0  0  0  0  0  0
   -0.7206    0.4932    0.7239 C   0  0  0  0  0  0  0  0  0  0  0  0
    0.3266    0.3125   -0.2284 O   0  0  0  0  0  0  0  0  0  0  0  0
   -0.8984    1.9480    1.1980 C   0  0  0  0  0  0  0  0  0  0  0  0
   -1.2772    2.9227    4.3157 H   0  0  0  0  0  0  0  0  0  0  0  0
   -1.9984    1.2106    2.9628 H   0  0  0  0  0  0  0  0  0  0  0  0
   -3.7473    2.7842    2.1097 H   0  0  0  0  0  0  0  0  0  0  0  0
   -2.5144    4.0723    2.0306 H   0  0  0  0  0  0  0  0  0  0  0  0
   -2.0383    3.3191   -0.2582 H   0  0  0  0  0  0  0  0  0  0  0  0
   -3.7746    1.3116   -0.5645 H   0  0  0  0  0  0  0  0  0  0  0  0
   -2.2867   -0.7879   -0.3149 H   0  0  0  0  0  0  0  0  0  0  0  0
   -0.5575   -0.1775    1.5844 H   0  0  0  0  0  0  0  0  0  0  0  0
    1.1632    0.3932    0.2415 H   0  0  0  0  0  0  0  0  0  0  0  0
    0.0150    2.5405    1.1247 H   0  0  0  0  0  0  0  0  0  0  0  0
  1  2  1  0
  2  3  1  0
  3  4  1  0
  4  5  1  0
  5  6  2  0
  6  7  1  0
  7  8  1  0
  7  9  1  0
  9  2  1  0
  9  4  1  0
  1 10  1  0
  2 11  1  0
  3 12  1  0
  3 13  1  0
  4 14  1  0
  5 15  1  0
  6 16  1  0
  7 17  1  0
  8 18  1  0
  9 19  1  0
M  END
$$$$
