
     RDKit          3D

 19 19  0  0  0  0  0  0  0  0999 V2000
    5.0385    1.5896    1.4184 O   0  0  0  0  0  0  0  0  0  0  0  0
    5.0252    0.4257    2.2382 C   0  0  0  0  0  0  0  0  0  0  0  0
    3.8671    0.4139    3.2398 C   0  0  0  0  0  0  0  0  0  0  0  0
    2.7213   -0.0299    2.5304 O   0  0  0  0  0  0  0  0  0  0  0  0
    3.1063   -0.7135    1.3326 C   0  0  0  0  0  0  0  0  0  0  0  0
    2.5328    0.0299    0.1084 C   0  0  0  0  0  0  0  0  0  0  0  0
    1.0773    0.0859    0.1009 C   0  0  0  0  0  0  0  0  0  0  0  0
   -0.1242    0.1136    0.0912 C   0  0  0  0  0  0  0  0  0  0  0  0
    4.6491   -0.7579    1.3445 C   0  0  0  0  0  0  0  0  0  0  0  0
    5.0800    2.3629    1.9900 H   0  0  0  0  0  0  0  0  0  0  0  0
    5.9958    0.2891    2.7346 H   0  0  0  0  0  0  0  0  0  0  0  0
    4.0970   -0.2653    4.0769 H   0  0  0  0  0  0  0  0  0  0  0  0
    3.6611    1.4066    3.6591 H   0  0  0  0  0  0  0  0  0  0  0  0
    2.6778   -1.7225    1.3636 H   0  0  0  0  0  0  0  0  0  0  0  0
    2.9602    1.0380    0.0970 H   0  0  0  0  0  0  0  0  0  0  0  0
    2.8830   -0.4775   -0.8003 H   0  0  0  0  0  0  0  0  0  0  0  0
   -1.1851    0.1479    0.0867 H   0  0  0  0  0  0  0  0  0  0  0  0
    5.0028   -1.6892    1.7954 H   0  0  0  0  0  0  0  0  0  0  0  0
    5.0931   -0.6649    0.3515 H   0  0  0  0  0  0  0  0  0  0  0  0
  1  2  1  0
  2  3  1  0
  3  4  1  0
  4  5  1  0
  5  6  1  0
  6  7  1  0
  7  8  3  0
  5  9  1  0
  9  2  1  0
  1 10  1  0
  2 11  1  0
  3 12  1  0
  3 13  1  0
  5 14  1  0
  6 15  1  0
  6 16  1  0
  8 17  1  0
  9 18  1  0
  9 19  1  0
M  END
$$$$
