gdb 3634	3.7667936	1.0364682	0.910316	1.4228	78.14	-0.23793	0.00982	0.24775	1323.8612	0.156132	-422.536895	-422.528245	-422.5273	-422.570945	31.78
 OpenBabel02181911413D

 19 20  0  0  1  0  0  0  0  0999 V2000
    1.7481    1.4061    1.5422 C   0  0  0  0  0  0  0  0  0  0  0  0
    3.0065    1.1394    0.7172 C   0  0  1  0  0  0  0  0  0  0  0  0
    3.1368   -0.2679    0.4651 O   0  0  0  0  0  0  0  0  0  0  0  0
    3.3010   -0.5227   -0.9295 C   0  0  2  0  0  0  0  0  0  0  0  0
    3.1750    0.8288   -1.5827 C   0  0  0  0  0  0  0  0  0  0  0  0
    3.0096    1.7623   -0.6543 C   0  0  0  0  0  0  0  0  0  0  0  0
    2.2531   -1.5203   -1.3867 C   0  0  2  0  0  0  0  0  0  0  0  0
    2.5416   -2.9551   -1.4627 C   0  0  0  0  0  0  0  0  0  0  0  0
    2.5110   -2.1483   -2.6435 O   0  0  0  0  0  0  0  0  0  0  0  0
    1.7829    0.8363    2.4749 H   0  0  0  0  0  0  0  0  0  0  0  0
    1.6700    2.4695    1.7919 H   0  0  0  0  0  0  0  0  0  0  0  0
    0.8543    1.1101    0.9851 H   0  0  0  0  0  0  0  0  0  0  0  0
    3.8835    1.4730    1.2974 H   0  0  0  0  0  0  0  0  0  0  0  0
    4.2921   -0.9681   -1.1195 H   0  0  0  0  0  0  0  0  0  0  0  0
    3.2206    0.9625   -2.6556 H   0  0  0  0  0  0  0  0  0  0  0  0
    2.8968    2.8275   -0.8139 H   0  0  0  0  0  0  0  0  0  0  0  0
    1.2219   -1.1984   -1.2355 H   0  0  0  0  0  0  0  0  0  0  0  0
    3.5261   -3.3184   -1.1707 H   0  0  0  0  0  0  0  0  0  0  0  0
    1.7305   -3.6750   -1.3681 H   0  0  0  0  0  0  0  0  0  0  0  0
  1 11  1  0  0  0  0
  1 10  1  0  0  0  0
  2 13  1  1  0  0  0
  2  1  1  0  0  0  0
  3  2  1  0  0  0  0
  4 14  1  6  0  0  0
  4  3  1  0  0  0  0
  5  4  1  0  0  0  0
  5  6  2  0  0  0  0
  6  2  1  0  0  0  0
  7 17  1  1  0  0  0
  7  4  1  0  0  0  0
  8  7  1  0  0  0  0
  8 19  1  0  0  0  0
  8 18  1  0  0  0  0
  9  8  1  0  0  0  0
  9  7  1  0  0  0  0
 12  1  1  0  0  0  0
 15  5  1  0  0  0  0
 16  6  1  0  0  0  0
M TOR 0 0 1 2 3
M TOR 1 0 1 5 4
M TOR 2 0 1 5 15
M TOR 3 1 2 3 4
M TOR 4 1 2 3 6
M TOR 5 1 2 3 13
M TOR 6 1 5 4 3
M TOR 7 1 5 4 14
M TOR 8 2 1 0 9
M TOR 9 2 1 0 10
M TOR 10 2 1 0 11
M TOR 11 2 1 5 4
M TOR 12 2 1 5 15
M TOR 13 2 3 4 5
M TOR 14 2 3 4 14
M TOR 15 2 3 6 7
M TOR 16 2 3 6 8
M TOR 17 2 3 6 16
M TOR 18 3 2 1 5
M TOR 19 3 2 1 12
M TOR 20 3 4 5 15
M TOR 21 3 6 7 8
M TOR 22 3 6 7 17
M TOR 23 3 6 7 18
M TOR 24 4 3 6 7
M TOR 25 4 3 6 8
M TOR 26 4 3 6 16
M TOR 27 4 5 1 12
M TOR 28 5 1 0 9
M TOR 29 5 1 0 10
M TOR 30 5 1 0 11
M TOR 31 5 4 3 6
M TOR 32 5 4 3 13
M TOR 33 6 3 4 14
M TOR 34 6 8 7 17
M TOR 35 6 8 7 18
M TOR 36 7 6 3 13
M TOR 37 7 8 6 16
M TOR 38 8 6 3 13
M  END
$$$$
