
     RDKit          3D

 19 19  0  0  0  0  0  0  0  0999 V2000
    0.1688   -1.0446   -0.5956 C   0  0  0  0  0  0  0  0  0  0  0  0
    1.2376   -0.0510   -0.1374 C   0  0  0  0  0  0  0  0  0  0  0  0
    2.2110   -0.6692    0.8632 C   0  0  0  0  0  0  0  0  0  0  0  0
    1.9516    0.6274   -1.3315 C   0  0  0  0  0  0  0  0  0  0  0  0
    1.2054    1.8204   -1.5418 O   0  0  0  0  0  0  0  0  0  0  0  0
    0.8317    2.2352   -0.2479 C   0  0  0  0  0  0  0  0  0  0  0  0
    0.5528    1.0627    0.4892 O   0  0  0  0  0  0  0  0  0  0  0  0
    1.8882    3.0396    0.3999 C   0  0  0  0  0  0  0  0  0  0  0  0
    2.7370    3.7090    0.9250 C   0  0  0  0  0  0  0  0  0  0  0  0
   -0.4541   -1.3446    0.2516 H   0  0  0  0  0  0  0  0  0  0  0  0
   -0.4753   -0.5863   -1.3512 H   0  0  0  0  0  0  0  0  0  0  0  0
    0.6267   -1.9431   -1.0225 H   0  0  0  0  0  0  0  0  0  0  0  0
    1.6693   -1.0881    1.7160 H   0  0  0  0  0  0  0  0  0  0  0  0
    2.7859   -1.4759    0.3954 H   0  0  0  0  0  0  0  0  0  0  0  0
    2.9077    0.0866    1.2350 H   0  0  0  0  0  0  0  0  0  0  0  0
    2.9978    0.8605   -1.0903 H   0  0  0  0  0  0  0  0  0  0  0  0
    1.9136    0.0401   -2.2507 H   0  0  0  0  0  0  0  0  0  0  0  0
   -0.0861    2.8263   -0.3380 H   0  0  0  0  0  0  0  0  0  0  0  0
    3.4848    4.3031    1.3901 H   0  0  0  0  0  0  0  0  0  0  0  0
  1  2  1  0
  2  3  1  0
  2  4  1  0
  4  5  1  0
  5  6  1  0
  6  7  1  0
  6  8  1  0
  8  9  3  0
  7  2  1  0
  1 10  1  0
  1 11  1  0
  1 12  1  0
  3 13  1  0
  3 14  1  0
  3 15  1  0
  4 16  1  0
  4 17  1  0
  6 18  1  0
  9 19  1  0
M  END
$$$$
