gdb 3151	2.7501892	1.2463438	1.0093263	2.1221	76.11	-0.26626	0.01135	0.27761	1231.1207	0.156386	-422.558056	-422.549334	-422.54839	-422.592097	31.961
 OpenBabel02181911413D

 19 20  0  0  1  0  0  0  0  0999 V2000
   -1.4109    3.9587    1.8908 C   0  0  0  0  0  0  0  0  0  0  0  0
   -1.8604    2.5149    1.7104 C   0  0  1  0  0  0  0  0  0  0  0  0
   -3.1919    2.3128    0.9625 C   0  0  2  0  0  0  0  0  0  0  0  0
   -3.4593    0.8500    0.7883 C   0  0  0  0  0  0  0  0  0  0  0  0
   -2.4815    1.5162   -0.1430 C   0  0  2  0  0  0  0  0  0  0  0  0
   -1.1517    1.7579    0.5511 C   0  0  2  0  0  0  0  0  0  0  0  0
   -0.4058    0.6024    0.9939 O   0  0  0  0  0  0  0  0  0  0  0  0
    0.2501   -0.0659    0.0380 C   0  0  0  0  0  0  0  0  0  0  0  0
    0.2704    0.2087   -1.1313 O   0  0  0  0  0  0  0  0  0  0  0  0
   -2.0467    4.4795    2.6144 H   0  0  0  0  0  0  0  0  0  0  0  0
   -0.3789    4.0065    2.2541 H   0  0  0  0  0  0  0  0  0  0  0  0
   -1.4624    4.5101    0.9453 H   0  0  0  0  0  0  0  0  0  0  0  0
   -1.8090    1.9780    2.6642 H   0  0  0  0  0  0  0  0  0  0  0  0
   -3.9603    3.0683    0.8539 H   0  0  0  0  0  0  0  0  0  0  0  0
   -3.1131    0.1365    1.5317 H   0  0  0  0  0  0  0  0  0  0  0  0
   -4.4097    0.5931    0.3320 H   0  0  0  0  0  0  0  0  0  0  0  0
   -2.6269    1.5330   -1.2148 H   0  0  0  0  0  0  0  0  0  0  0  0
   -0.4843    2.3977   -0.0297 H   0  0  0  0  0  0  0  0  0  0  0  0
    0.7784   -0.9173    0.4961 H   0  0  0  0  0  0  0  0  0  0  0  0
  1 11  1  0  0  0  0
  1 10  1  0  0  0  0
  2  1  1  0  0  0  0
  2 13  1  1  0  0  0
  3 14  1  6  0  0  0
  3  2  1  0  0  0  0
  4  3  1  0  0  0  0
  4 15  1  0  0  0  0
  5 17  1  6  0  0  0
  5  6  1  0  0  0  0
  5  4  1  0  0  0  0
  5  3  1  0  0  0  0
  6 18  1  6  0  0  0
  6  7  1  0  0  0  0
  6  2  1  0  0  0  0
  8 19  1  0  0  0  0
  8  7  1  0  0  0  0
  9  8  2  0  0  0  0
 12  1  1  0  0  0  0
 16  4  1  0  0  0  0
M TOR 0 0 1 2 3
M TOR 1 0 1 2 4
M TOR 2 0 1 2 13
M TOR 3 0 1 5 4
M TOR 4 0 1 5 6
M TOR 5 0 1 5 17
M TOR 6 1 2 3 4
M TOR 7 1 2 3 14
M TOR 8 1 2 3 15
M TOR 9 1 2 4 5
M TOR 10 1 2 4 16
M TOR 11 1 5 4 3
M TOR 12 1 5 4 16
M TOR 13 1 5 6 7
M TOR 14 2 1 0 9
M TOR 15 2 1 0 10
M TOR 16 2 1 0 11
M TOR 17 2 1 5 6
M TOR 18 2 1 5 17
M TOR 19 2 3 4 5
M TOR 20 2 3 4 16
M TOR 21 2 4 3 14
M TOR 22 2 4 3 15
M TOR 23 2 4 5 6
M TOR 24 2 4 5 17
M TOR 25 3 2 1 5
M TOR 26 3 2 1 12
M TOR 27 3 4 2 13
M TOR 28 3 4 5 6
M TOR 29 3 4 5 17
M TOR 30 4 2 1 12
M TOR 31 4 5 1 12
M TOR 32 4 5 6 7
M TOR 33 5 1 0 9
M TOR 34 5 1 0 10
M TOR 35 5 1 0 11
M TOR 36 5 1 2 13
M TOR 37 5 4 2 13
M TOR 38 5 4 3 14
M TOR 39 5 4 3 15
M TOR 40 5 6 7 8
M TOR 41 5 6 7 18
M TOR 42 6 5 1 12
M TOR 43 6 5 4 16
M TOR 44 7 6 5 17
M  END
$$$$
