gdb 3957	3.5573898	1.4116224	1.1885911	0.9596	75.23	-0.22994	0.05539	0.28533000000000003	1092.3025	0.156876	-422.502017	-422.494236	-422.493292	-422.534085	30.443
 OpenBabel02181911413D

 19 21  0  0  1  0  0  0  0  0999 V2000
    0.2913    0.4779   -0.2514 C   0  0  0  0  0  0  0  0  0  0  0  0
    0.8500   -0.8051    0.3228 C   0  0  2  0  0  0  0  0  0  0  0  0
    2.1181   -0.5706    1.0288 O   0  0  0  0  0  0  0  0  0  0  0  0
    2.7568   -1.5724    0.2661 C   0  0  1  0  0  0  0  0  0  0  0  0
    4.2180   -1.6931   -0.1309 C   0  0  0  0  0  0  0  0  0  0  0  0
    3.9913   -3.2449   -0.2315 C   0  0  0  0  0  0  0  0  0  0  0  0
    2.6201   -3.1008    0.5017 C   0  0  2  0  0  0  0  0  0  0  0  0
    1.4470   -3.1925   -0.3433 O   0  0  0  0  0  0  0  0  0  0  0  0
    1.5476   -1.7905   -0.6561 C   0  0  1  0  0  0  0  0  0  0  0  0
    0.0943    1.1983    0.5481 H   0  0  0  0  0  0  0  0  0  0  0  0
    0.9985    0.9322   -0.9525 H   0  0  0  0  0  0  0  0  0  0  0  0
   -0.6479    0.2805   -0.7793 H   0  0  0  0  0  0  0  0  0  0  0  0
    0.1309   -1.3095    0.9780 H   0  0  0  0  0  0  0  0  0  0  0  0
    4.5491   -1.1575   -1.0243 H   0  0  0  0  0  0  0  0  0  0  0  0
    4.8833   -1.4378    0.6994 H   0  0  0  0  0  0  0  0  0  0  0  0
    3.8732   -3.6167   -1.2507 H   0  0  0  0  0  0  0  0  0  0  0  0
    4.7324   -3.8534    0.2892 H   0  0  0  0  0  0  0  0  0  0  0  0
    2.4972   -3.6026    1.4630 H   0  0  0  0  0  0  0  0  0  0  0  0
    1.4796   -1.5727   -1.7249 H   0  0  0  0  0  0  0  0  0  0  0  0
  1  2  1  0  0  0  0
  1 10  1  0  0  0  0
  2 13  1  1  0  0  0
  2  3  1  0  0  0  0
  4  7  1  0  0  0  0
  4  3  1  1  0  0  0
  5  4  1  0  0  0  0
  5 15  1  0  0  0  0
  6  5  1  0  0  0  0
  6 17  1  0  0  0  0
  6  7  1  0  0  0  0
  7 18  1  1  0  0  0
  8  7  1  0  0  0  0
  9 19  1  6  0  0  0
  9  8  1  0  0  0  0
  9  4  1  0  0  0  0
  9  2  1  0  0  0  0
 11  1  1  0  0  0  0
 12  1  1  0  0  0  0
 14  5  1  0  0  0  0
 16  6  1  0  0  0  0
M TOR 0 0 1 2 3
M TOR 1 0 1 8 3
M TOR 2 0 1 8 7
M TOR 3 0 1 8 18
M TOR 4 1 2 3 4
M TOR 5 1 2 3 6
M TOR 6 1 2 3 8
M TOR 7 1 8 3 4
M TOR 8 1 8 3 6
M TOR 9 1 8 7 6
M TOR 10 2 1 0 9
M TOR 11 2 1 0 10
M TOR 12 2 1 0 11
M TOR 13 2 1 8 7
M TOR 14 2 1 8 18
M TOR 15 2 3 4 5
M TOR 16 2 3 4 13
M TOR 17 2 3 4 14
M TOR 18 2 3 6 5
M TOR 19 2 3 6 7
M TOR 20 2 3 6 17
M TOR 21 2 3 8 7
M TOR 22 2 3 8 18
M TOR 23 3 2 1 12
M TOR 24 3 4 5 6
M TOR 25 3 4 5 15
M TOR 26 3 4 5 16
M TOR 27 3 6 5 15
M TOR 28 3 6 5 16
M TOR 29 3 6 7 8
M TOR 30 3 8 1 12
M TOR 31 4 3 6 7
M TOR 32 4 3 6 17
M TOR 33 4 3 8 7
M TOR 34 4 3 8 18
M TOR 35 4 5 6 7
M TOR 36 4 5 6 17
M TOR 37 5 4 3 8
M TOR 38 5 6 3 8
M TOR 39 5 6 7 8
M TOR 40 6 3 4 13
M TOR 41 6 3 4 14
M TOR 42 6 3 8 18
M TOR 43 6 5 4 13
M TOR 44 6 5 4 14
M TOR 45 6 7 8 18
M TOR 46 7 6 5 15
M TOR 47 7 6 5 16
M TOR 48 7 8 1 12
M TOR 49 8 1 0 9
M TOR 50 8 1 0 10
M TOR 51 8 1 0 11
M TOR 52 8 3 4 13
M TOR 53 8 3 4 14
M TOR 54 8 3 6 17
M TOR 55 8 7 6 17
M  END
$$$$
