gdb 1739	2.1258007	2.0357623	1.5896252	0.9608	73.69	-0.21882	0.06347	0.28229	960.7468	0.156863	-422.534825	-422.526766	-422.525822	-422.566697	32.005
 OpenBabel02181911403D

 19 21  0  0  1  0  0  0  0  0999 V2000
    0.1606    0.5712   -0.2700 C   0  0  0  0  0  0  0  0  0  0  0  0
    1.5681    0.0574   -0.1116 C   0  0  2  0  0  0  0  0  0  0  0  0
    2.1398   -0.8547   -1.1975 C   0  0  0  0  0  0  0  0  0  0  0  0
    3.6194   -1.0569   -0.7644 C   0  0  0  0  0  0  0  0  0  0  0  0
    3.8685    0.0815    0.2261 C   0  0  2  0  0  0  0  0  0  0  0  0
    2.9221    0.1491    1.4332 C   0  0  2  0  0  0  0  0  0  0  0  0
    1.7588   -0.6362    1.1813 O   0  0  0  0  0  0  0  0  0  0  0  0
    2.7194    1.0462    0.2540 C   0  0  2  0  0  0  0  0  0  0  0  0
    2.8073    2.3963    0.0007 O   0  0  0  0  0  0  0  0  0  0  0  0
   -0.1181    1.2142    0.5706 H   0  0  0  0  0  0  0  0  0  0  0  0
    0.0630    1.1444   -1.1975 H   0  0  0  0  0  0  0  0  0  0  0  0
   -0.5484   -0.2619   -0.3039 H   0  0  0  0  0  0  0  0  0  0  0  0
    1.5850   -1.7949   -1.2676 H   0  0  0  0  0  0  0  0  0  0  0  0
    2.0764   -0.3493   -2.1688 H   0  0  0  0  0  0  0  0  0  0  0  0
    3.7629   -2.0323   -0.2910 H   0  0  0  0  0  0  0  0  0  0  0  0
    4.3045   -1.0005   -1.6148 H   0  0  0  0  0  0  0  0  0  0  0  0
    4.8655    0.4738    0.3955 H   0  0  0  0  0  0  0  0  0  0  0  0
    3.2376    0.2932    2.4600 H   0  0  0  0  0  0  0  0  0  0  0  0
    2.1374    2.8490    0.5256 H   0  0  0  0  0  0  0  0  0  0  0  0
  1 10  1  0  0  0  0
  2  1  1  6  0  0  0
  2  8  1  0  0  0  0
  2  7  1  0  0  0  0
  3  4  1  0  0  0  0
  3  2  1  0  0  0  0
  4 15  1  0  0  0  0
  4  5  1  0  0  0  0
  5  8  1  0  0  0  0
  5 17  1  1  0  0  0
  5  6  1  0  0  0  0
  6 18  1  1  0  0  0
  7  6  1  0  0  0  0
  8  9  1  6  0  0  0
  8  6  1  0  0  0  0
  9 19  1  0  0  0  0
 11  1  1  0  0  0  0
 12  1  1  0  0  0  0
 13  3  1  0  0  0  0
 14  3  1  0  0  0  0
 16  4  1  0  0  0  0
M TOR 0 0 1 2 3
M TOR 1 0 1 2 12
M TOR 2 0 1 2 13
M TOR 3 0 1 6 5
M TOR 4 0 1 7 4
M TOR 5 0 1 7 5
M TOR 6 0 1 7 8
M TOR 7 1 2 3 4
M TOR 8 1 2 3 14
M TOR 9 1 2 3 15
M TOR 10 1 6 5 4
M TOR 11 1 6 5 7
M TOR 12 1 6 5 17
M TOR 13 1 7 4 3
M TOR 14 1 7 4 5
M TOR 15 1 7 4 16
M TOR 16 1 7 5 17
M TOR 17 1 7 8 18
M TOR 18 2 1 0 9
M TOR 19 2 1 0 10
M TOR 20 2 1 0 11
M TOR 21 2 1 6 5
M TOR 22 2 1 7 4
M TOR 23 2 1 7 5
M TOR 24 2 1 7 8
M TOR 25 2 3 4 5
M TOR 26 2 3 4 7
M TOR 27 2 3 4 16
M TOR 28 3 2 1 6
M TOR 29 3 2 1 7
M TOR 30 3 4 5 6
M TOR 31 3 4 5 7
M TOR 32 3 4 5 17
M TOR 33 3 4 7 8
M TOR 34 4 3 2 12
M TOR 35 4 3 2 13
M TOR 36 4 5 7 8
M TOR 37 4 7 1 6
M TOR 38 4 7 5 6
M TOR 39 4 7 5 17
M TOR 40 4 7 8 18
M TOR 41 5 4 3 14
M TOR 42 5 4 3 15
M TOR 43 5 7 4 16
M TOR 44 5 7 8 18
M TOR 45 6 1 0 9
M TOR 46 6 1 0 10
M TOR 47 6 1 0 11
M TOR 48 6 1 2 12
M TOR 49 6 1 2 13
M TOR 50 6 1 7 8
M TOR 51 6 5 4 16
M TOR 52 6 5 7 8
M TOR 53 7 1 0 9
M TOR 54 7 1 0 10
M TOR 55 7 1 0 11
M TOR 56 7 1 2 12
M TOR 57 7 1 2 13
M TOR 58 7 4 3 14
M TOR 59 7 4 3 15
M TOR 60 8 7 4 16
M TOR 61 8 7 5 17
M  END
$$$$
