
     RDKit          3D

 19 21  0  0  0  0  0  0  0  0999 V2000
   -2.7858    2.7904   -0.1843 C   0  0  0  0  0  0  0  0  0  0  0  0
   -2.5700    1.5816    0.6745 C   0  0  0  0  0  0  0  0  0  0  0  0
   -2.1253    1.5085    2.1330 C   0  0  0  0  0  0  0  0  0  0  0  0
   -0.9346    0.5644    2.3015 C   0  0  0  0  0  0  0  0  0  0  0  0
   -0.7783   -0.0998    0.9036 C   0  0  0  0  0  0  0  0  0  0  0  0
    0.2630    0.4677    0.1219 O   0  0  0  0  0  0  0  0  0  0  0  0
   -2.1479    0.1448    0.2667 C   0  0  0  0  0  0  0  0  0  0  0  0
   -3.1592   -0.4411    1.1475 O   0  0  0  0  0  0  0  0  0  0  0  0
   -3.4195    0.8614    1.6762 C   0  0  0  0  0  0  0  0  0  0  0  0
   -3.2229    3.6072    0.3993 H   0  0  0  0  0  0  0  0  0  0  0  0
   -1.8469    3.1626   -0.6126 H   0  0  0  0  0  0  0  0  0  0  0  0
   -3.4650    2.5755   -1.0167 H   0  0  0  0  0  0  0  0  0  0  0  0
   -2.2171    2.4008    2.7435 H   0  0  0  0  0  0  0  0  0  0  0  0
   -0.0164    1.1013    2.5583 H   0  0  0  0  0  0  0  0  0  0  0  0
   -1.1135   -0.1820    3.0804 H   0  0  0  0  0  0  0  0  0  0  0  0
   -0.5517   -1.1667    0.9725 H   0  0  0  0  0  0  0  0  0  0  0  0
    0.1410    1.4237    0.1187 H   0  0  0  0  0  0  0  0  0  0  0  0
   -2.2604   -0.1807   -0.7689 H   0  0  0  0  0  0  0  0  0  0  0  0
   -4.4025    1.0563    2.0900 H   0  0  0  0  0  0  0  0  0  0  0  0
  1  2  1  0
  2  3  1  0
  3  4  1  0
  4  5  1  0
  5  6  1  0
  5  7  1  0
  7  8  1  0
  8  9  1  0
  7  2  1  0
  9  2  1  0
  9  3  1  0
  1 10  1  0
  1 11  1  0
  1 12  1  0
  3 13  1  0
  4 14  1  0
  4 15  1  0
  5 16  1  0
  6 17  1  0
  7 18  1  0
  9 19  1  0
M  END
$$$$
