gdb 5389	2.0876001	1.529293	1.0250484	2.615	78.22	-0.23273	-0.02207	0.21066	1206.0662	0.156651	-422.579103	-422.569895	-422.568951	-422.614403	32.78
 OpenBabel02181911423D

 19 19  0  0  1  0  0  0  0  0999 V2000
   -1.6139    1.5779   -0.8922 O   0  0  0  0  0  0  0  0  0  0  0  0
   -0.3650    1.1209   -0.3697 C   0  0  0  0  0  0  0  0  0  0  0  0
   -0.4225    0.8133    1.0953 C   0  0  0  0  0  0  0  0  0  0  0  0
    0.2689    1.4204    2.0629 C   0  0  0  0  0  0  0  0  0  0  0  0
   -0.0255    0.8742    3.4353 C   0  0  0  0  0  0  0  0  0  0  0  0
   -0.8625   -0.3991    3.1423 C   0  0  0  0  0  0  0  0  0  0  0  0
   -1.3475   -0.2579    1.6801 C   0  0  1  0  0  0  0  0  0  0  0  0
   -2.8066    0.1809    1.5660 C   0  0  0  0  0  0  0  0  0  0  0  0
   -3.4871    0.5187    2.5024 O   0  0  0  0  0  0  0  0  0  0  0  0
   -1.8357    2.3943   -0.4311 H   0  0  0  0  0  0  0  0  0  0  0  0
   -0.1366    0.2153   -0.9445 H   0  0  0  0  0  0  0  0  0  0  0  0
    0.4382    1.8456   -0.5663 H   0  0  0  0  0  0  0  0  0  0  0  0
    0.9711    2.2306    1.8903 H   0  0  0  0  0  0  0  0  0  0  0  0
    0.8866    0.6533    4.0012 H   0  0  0  0  0  0  0  0  0  0  0  0
   -0.5869    1.6057    4.0314 H   0  0  0  0  0  0  0  0  0  0  0  0
   -0.2324   -1.2878    3.2323 H   0  0  0  0  0  0  0  0  0  0  0  0
   -1.7058   -0.5085    3.8256 H   0  0  0  0  0  0  0  0  0  0  0  0
   -1.2617   -1.1916    1.1051 H   0  0  0  0  0  0  0  0  0  0  0  0
   -3.2051    0.1878    0.5317 H   0  0  0  0  0  0  0  0  0  0  0  0
  1 10  1  0  0  0  0
  1  2  1  0  0  0  0
  2  3  1  0  0  0  0
  3  7  1  0  0  0  0
  3  4  2  0  0  0  0
  4  5  1  0  0  0  0
  5 14  1  0  0  0  0
  5 15  1  0  0  0  0
  6 16  1  0  0  0  0
  6  5  1  0  0  0  0
  6 17  1  0  0  0  0
  7 18  1  6  0  0  0
  7  6  1  0  0  0  0
  8  7  1  0  0  0  0
  8  9  2  0  0  0  0
 11  2  1  0  0  0  0
 12  2  1  0  0  0  0
 13  4  1  0  0  0  0
 19  8  1  0  0  0  0
M TOR 0 0 1 2 3
M TOR 1 0 1 2 6
M TOR 2 1 2 3 4
M TOR 3 1 2 3 12
M TOR 4 1 2 6 5
M TOR 5 1 2 6 7
M TOR 6 1 2 6 17
M TOR 7 2 1 0 9
M TOR 8 2 3 4 5
M TOR 9 2 3 4 13
M TOR 10 2 3 4 14
M TOR 11 2 6 5 4
M TOR 12 2 6 5 15
M TOR 13 2 6 5 16
M TOR 14 2 6 7 8
M TOR 15 2 6 7 18
M TOR 16 3 2 1 10
M TOR 17 3 2 1 11
M TOR 18 3 2 6 5
M TOR 19 3 2 6 7
M TOR 20 3 2 6 17
M TOR 21 3 4 5 6
M TOR 22 3 4 5 15
M TOR 23 3 4 5 16
M TOR 24 4 3 2 6
M TOR 25 4 5 6 7
M TOR 26 4 5 6 17
M TOR 27 5 4 3 12
M TOR 28 5 6 7 8
M TOR 29 5 6 7 18
M TOR 30 6 2 1 10
M TOR 31 6 2 1 11
M TOR 32 6 2 3 12
M TOR 33 6 5 4 13
M TOR 34 6 5 4 14
M TOR 35 7 6 5 15
M TOR 36 7 6 5 16
M TOR 37 8 7 6 17
M  END
$$$$
