
     RDKit          3D

 19 20  0  0  0  0  0  0  0  0999 V2000
   -0.3496    1.3675    0.0649 O   0  0  0  0  0  0  0  0  0  0  0  0
   -0.0320   -0.0100   -0.0069 C   0  0  0  0  0  0  0  0  0  0  0  0
    0.4999   -0.4124   -1.4190 C   0  0  0  0  0  0  0  0  0  0  0  0
   -0.7792   -0.6196   -2.2137 C   0  0  0  0  0  0  0  0  0  0  0  0
   -1.7997   -0.8244   -1.3876 C   0  0  0  0  0  0  0  0  0  0  0  0
   -3.2897   -0.7432   -1.3957 C   0  0  0  0  0  0  0  0  0  0  0  0
   -3.4765    0.1306   -0.1263 C   0  0  0  0  0  0  0  0  0  0  0  0
   -2.4471   -0.2583    0.7912 O   0  0  0  0  0  0  0  0  0  0  0  0
   -1.3615   -0.8008    0.0574 C   0  0  0  0  0  0  0  0  0  0  0  0
    0.4665    1.8642   -0.0480 H   0  0  0  0  0  0  0  0  0  0  0  0
    0.6655   -0.2928    0.7943 H   0  0  0  0  0  0  0  0  0  0  0  0
    1.1409    0.3713   -1.8418 H   0  0  0  0  0  0  0  0  0  0  0  0
    1.1149   -1.3219   -1.3600 H   0  0  0  0  0  0  0  0  0  0  0  0
   -0.8277   -0.5407   -3.2935 H   0  0  0  0  0  0  0  0  0  0  0  0
   -3.7119   -0.2866   -2.2935 H   0  0  0  0  0  0  0  0  0  0  0  0
   -3.7575   -1.7248   -1.2493 H   0  0  0  0  0  0  0  0  0  0  0  0
   -3.3703    1.1931   -0.3836 H   0  0  0  0  0  0  0  0  0  0  0  0
   -4.4403   -0.0197    0.3685 H   0  0  0  0  0  0  0  0  0  0  0  0
   -1.1496   -1.8063    0.4547 H   0  0  0  0  0  0  0  0  0  0  0  0
  1  2  1  0
  2  3  1  0
  3  4  1  0
  4  5  2  0
  5  6  1  0
  6  7  1  0
  7  8  1  0
  8  9  1  0
  9  2  1  0
  9  5  1  0
  1 10  1  0
  2 11  1  0
  3 12  1  0
  3 13  1  0
  4 14  1  0
  6 15  1  0
  6 16  1  0
  7 17  1  0
  7 18  1  0
  9 19  1  0
M  END
$$$$
