
     RDKit          3D

 19 21  0  0  0  0  0  0  0  0999 V2000
    1.0203    1.0104   -0.0386 C   0  0  0  0  0  0  0  0  0  0  0  0
    1.0143   -0.5175   -0.1387 C   0  0  0  0  0  0  0  0  0  0  0  0
    1.7694   -1.0554   -1.3315 C   0  0  0  0  0  0  0  0  0  0  0  0
    1.8488   -2.5713   -1.4982 C   0  0  0  0  0  0  0  0  0  0  0  0
    2.4677   -2.7664   -2.7750 O   0  0  0  0  0  0  0  0  0  0  0  0
    2.3992   -1.5393   -3.4591 C   0  0  0  0  0  0  0  0  0  0  0  0
    3.0022   -0.3205   -2.7831 C   0  0  0  0  0  0  0  0  0  0  0  0
    3.1678   -0.5848   -1.3927 O   0  0  0  0  0  0  0  0  0  0  0  0
    1.5097   -0.5428   -2.7771 C   0  0  0  0  0  0  0  0  0  0  0  0
    0.5098    1.3404    0.8706 H   0  0  0  0  0  0  0  0  0  0  0  0
    2.0464    1.3848   -0.0154 H   0  0  0  0  0  0  0  0  0  0  0  0
    0.5120    1.4689   -0.8927 H   0  0  0  0  0  0  0  0  0  0  0  0
    1.4615   -0.9490    0.7660 H   0  0  0  0  0  0  0  0  0  0  0  0
   -0.0151   -0.8958   -0.1880 H   0  0  0  0  0  0  0  0  0  0  0  0
    2.4797   -3.0256   -0.7281 H   0  0  0  0  0  0  0  0  0  0  0  0
    0.8521   -3.0394   -1.4783 H   0  0  0  0  0  0  0  0  0  0  0  0
    2.4354   -1.6345   -4.5377 H   0  0  0  0  0  0  0  0  0  0  0  0
    3.6363    0.4276   -3.2453 H   0  0  0  0  0  0  0  0  0  0  0  0
    0.6569   -0.0023   -3.1645 H   0  0  0  0  0  0  0  0  0  0  0  0
  1  2  1  0
  2  3  1  0
  3  4  1  0
  4  5  1  0
  5  6  1  0
  6  7  1  0
  7  8  1  0
  7  9  1  0
  8  3  1  0
  9  3  1  0
  9  6  1  0
  1 10  1  0
  1 11  1  0
  1 12  1  0
  2 13  1  0
  2 14  1  0
  4 15  1  0
  4 16  1  0
  6 17  1  0
  7 18  1  0
  9 19  1  0
M  END
$$$$
