
     RDKit          3D

 19 21  0  0  0  0  0  0  0  0999 V2000
    2.2867   -1.4483    0.5718 C   0  0  0  0  0  0  0  0  0  0  0  0
    1.7585   -0.0906    0.1522 C   0  0  0  0  0  0  0  0  0  0  0  0
    2.7990    0.9382   -0.2797 C   0  0  0  0  0  0  0  0  0  0  0  0
    2.2392    2.3404   -0.6638 C   0  0  0  0  0  0  0  0  0  0  0  0
    0.7200    2.4489   -0.5836 C   0  0  0  0  0  0  0  0  0  0  0  0
    1.3322    1.6834   -1.6994 C   0  0  0  0  0  0  0  0  0  0  0  0
    1.0509    1.9660   -3.0188 O   0  0  0  0  0  0  0  0  0  0  0  0
    1.9111    0.2834   -1.3003 C   0  0  0  0  0  0  0  0  0  0  0  0
    2.2990   -0.5868   -2.3104 O   0  0  0  0  0  0  0  0  0  0  0  0
    2.5978   -1.4371    1.6215 H   0  0  0  0  0  0  0  0  0  0  0  0
    1.5174   -2.2208    0.4612 H   0  0  0  0  0  0  0  0  0  0  0  0
    3.1445   -1.7457   -0.0374 H   0  0  0  0  0  0  0  0  0  0  0  0
    0.8814    0.2277    0.7085 H   0  0  0  0  0  0  0  0  0  0  0  0
    3.8521    0.7605   -0.1011 H   0  0  0  0  0  0  0  0  0  0  0  0
    2.8599    3.2250   -0.7279 H   0  0  0  0  0  0  0  0  0  0  0  0
    0.1234    2.0045    0.2073 H   0  0  0  0  0  0  0  0  0  0  0  0
    0.3606    3.4251   -0.8986 H   0  0  0  0  0  0  0  0  0  0  0  0
    1.7313    1.5274   -3.5455 H   0  0  0  0  0  0  0  0  0  0  0  0
    1.5437   -1.1441   -2.5334 H   0  0  0  0  0  0  0  0  0  0  0  0
  1  2  1  0
  2  3  1  0
  3  4  1  0
  4  5  1  0
  5  6  1  0
  6  7  1  0
  6  8  1  0
  8  9  1  0
  8  2  1  0
  8  3  1  0
  6  4  1  0
  1 10  1  0
  1 11  1  0
  1 12  1  0
  2 13  1  0
  3 14  1  0
  4 15  1  0
  5 16  1  0
  5 17  1  0
  7 18  1  0
  9 19  1  0
M  END
$$$$
