gdb 952	4.2617144	0.9032408	0.7816045	3.7248	78.85	-0.24123	-0.01811	0.22311999999999999	1441.7447	0.156586	-422.570485	-422.561675	-422.560731	-422.605199	31.737
 OpenBabel02181911403D

 19 19  0  0  1  0  0  0  0  0999 V2000
    1.2552   -0.5327    0.1415 O   0  0  0  0  0  0  0  0  0  0  0  0
    0.1733   -0.0090    0.0535 C   0  0  0  0  0  0  0  0  0  0  0  0
   -0.4525    0.8320    1.1477 C   0  0  0  0  0  0  0  0  0  0  0  0
   -1.0188    2.1627    0.6251 C   0  0  1  0  0  0  0  0  0  0  0  0
   -2.0221    1.8284   -0.3224 O   0  0  0  0  0  0  0  0  0  0  0  0
   -2.8352    2.9323   -0.6922 C   0  0  0  0  0  0  0  0  0  0  0  0
   -3.6550    3.4288    0.4998 C   0  0  0  0  0  0  0  0  0  0  0  0
   -2.7612    3.5738    1.7029 C   0  0  0  0  0  0  0  0  0  0  0  0
   -1.5515    3.0209    1.7449 C   0  0  0  0  0  0  0  0  0  0  0  0
   -0.4497   -0.1174   -0.8589 H   0  0  0  0  0  0  0  0  0  0  0  0
   -1.2872    0.2643    1.5803 H   0  0  0  0  0  0  0  0  0  0  0  0
    0.2948    1.0020    1.9273 H   0  0  0  0  0  0  0  0  0  0  0  0
   -0.2034    2.7108    0.1145 H   0  0  0  0  0  0  0  0  0  0  0  0
   -2.2088    3.7509   -1.0814 H   0  0  0  0  0  0  0  0  0  0  0  0
   -3.4747    2.5796   -1.5057 H   0  0  0  0  0  0  0  0  0  0  0  0
   -4.1243    4.3895    0.2529 H   0  0  0  0  0  0  0  0  0  0  0  0
   -4.4760    2.7315    0.7149 H   0  0  0  0  0  0  0  0  0  0  0  0
   -3.1250    4.1608    2.5420 H   0  0  0  0  0  0  0  0  0  0  0  0
   -0.8936    3.1636    2.5981 H   0  0  0  0  0  0  0  0  0  0  0  0
  2  1  2  0  0  0  0
  2  3  1  0  0  0  0
  3 11  1  0  0  0  0
  3 12  1  0  0  0  0
  4 13  1  6  0  0  0
  4  3  1  0  0  0  0
  4  9  1  0  0  0  0
  5  4  1  0  0  0  0
  6  5  1  0  0  0  0
  6  7  1  0  0  0  0
  7 17  1  0  0  0  0
  7  8  1  0  0  0  0
  8  9  2  0  0  0  0
  8 18  1  0  0  0  0
  9 19  1  0  0  0  0
 10  2  1  0  0  0  0
 14  6  1  0  0  0  0
 15  6  1  0  0  0  0
 16  7  1  0  0  0  0
M TOR 0 0 1 2 3
M TOR 1 0 1 2 10
M TOR 2 0 1 2 11
M TOR 3 1 2 3 4
M TOR 4 1 2 3 8
M TOR 5 1 2 3 12
M TOR 6 2 3 4 5
M TOR 7 2 3 8 7
M TOR 8 2 3 8 18
M TOR 9 3 2 1 9
M TOR 10 3 4 5 6
M TOR 11 3 4 5 13
M TOR 12 3 4 5 14
M TOR 13 3 8 7 6
M TOR 14 3 8 7 17
M TOR 15 4 3 2 10
M TOR 16 4 3 2 11
M TOR 17 4 3 8 7
M TOR 18 4 3 8 18
M TOR 19 4 5 6 7
M TOR 20 4 5 6 15
M TOR 21 4 5 6 16
M TOR 22 5 4 3 8
M TOR 23 5 4 3 12
M TOR 24 5 6 7 8
M TOR 25 5 6 7 17
M TOR 26 6 7 8 18
M TOR 27 7 6 5 13
M TOR 28 7 6 5 14
M TOR 29 7 8 3 12
M TOR 30 8 3 2 10
M TOR 31 8 3 2 11
M TOR 32 8 7 6 15
M TOR 33 8 7 6 16
M  END
$$$$
