
     RDKit          3D

 19 21  0  0  0  0  0  0  0  0999 V2000
    1.4731   -0.1301   -0.1158 C   0  0  0  0  0  0  0  0  0  0  0  0
    0.0566   -0.1920    0.0041 O   0  0  0  0  0  0  0  0  0  0  0  0
   -0.4367    0.4870    1.0745 C   0  0  0  0  0  0  0  0  0  0  0  0
   -1.7927    1.0091    1.3560 C   0  0  0  0  0  0  0  0  0  0  0  0
   -1.9536    0.3624    2.6148 O   0  0  0  0  0  0  0  0  0  0  0  0
   -0.5047    0.2461    2.6566 C   0  0  0  0  0  0  0  0  0  0  0  0
   -0.0293    1.7064    2.8579 C   0  0  0  0  0  0  0  0  0  0  0  0
   -0.5576    1.9700    1.4470 C   0  0  0  0  0  0  0  0  0  0  0  0
   -0.4301    3.1984    0.5976 C   0  0  0  0  0  0  0  0  0  0  0  0
    1.9671   -0.5985    0.7461 H   0  0  0  0  0  0  0  0  0  0  0  0
    1.7378   -0.6804   -1.0206 H   0  0  0  0  0  0  0  0  0  0  0  0
    1.8211    0.9070   -0.2042 H   0  0  0  0  0  0  0  0  0  0  0  0
   -2.6557    1.1897    0.7287 H   0  0  0  0  0  0  0  0  0  0  0  0
   -0.1498   -0.5914    3.2532 H   0  0  0  0  0  0  0  0  0  0  0  0
   -0.4871    2.2360    3.6997 H   0  0  0  0  0  0  0  0  0  0  0  0
    1.0610    1.7856    2.9015 H   0  0  0  0  0  0  0  0  0  0  0  0
   -0.9868    4.0392    1.0277 H   0  0  0  0  0  0  0  0  0  0  0  0
    0.6149    3.5123    0.4932 H   0  0  0  0  0  0  0  0  0  0  0  0
   -0.8223    3.0220   -0.4101 H   0  0  0  0  0  0  0  0  0  0  0  0
  1  2  1  0
  2  3  1  0
  3  4  1  0
  4  5  1  0
  5  6  1  0
  6  7  1  0
  7  8  1  0
  8  9  1  0
  6  3  1  0
  8  3  1  0
  8  4  1  0
  1 10  1  0
  1 11  1  0
  1 12  1  0
  4 13  1  0
  6 14  1  0
  7 15  1  0
  7 16  1  0
  9 17  1  0
  9 18  1  0
  9 19  1  0
M  END
$$$$
