gdb 5694	3.2934369	1.2084341	1.0316117	2.1293	75.89	-0.25808	0.04993	0.30801	1200.3642	0.156871	-422.48062	-422.472397	-422.471453	-422.513826	31.335
 OpenBabel02181911423D

 19 21  0  0  1  0  0  0  0  0999 V2000
    1.6522   -0.2711    0.7810 O   0  0  0  0  0  0  0  0  0  0  0  0
    0.6659    0.5179    0.1332 C   0  0  0  0  0  0  0  0  0  0  0  0
   -0.2289    1.2168    1.1331 C   0  0  1  0  0  0  0  0  0  0  0  0
   -1.4698    1.7609    0.6004 O   0  0  0  0  0  0  0  0  0  0  0  0
   -1.5335    0.6904    1.5080 C   0  0  2  0  0  0  0  0  0  0  0  0
   -2.3690    0.6040    2.7939 C   0  0  2  0  0  0  0  0  0  0  0  0
   -1.9308   -0.8924    2.8421 C   0  0  0  0  0  0  0  0  0  0  0  0
   -2.2940   -0.6375    1.3454 C   0  0  1  0  0  0  0  0  0  0  0  0
   -3.5434    0.1433    1.8694 C   0  0  0  0  0  0  0  0  0  0  0  0
    1.1984   -0.9764    1.2539 H   0  0  0  0  0  0  0  0  0  0  0  0
    1.2142    1.2582   -0.4583 H   0  0  0  0  0  0  0  0  0  0  0  0
    0.0461   -0.0684   -0.5604 H   0  0  0  0  0  0  0  0  0  0  0  0
    0.2879    1.8828    1.8253 H   0  0  0  0  0  0  0  0  0  0  0  0
   -2.4071    1.3139    3.6194 H   0  0  0  0  0  0  0  0  0  0  0  0
   -0.8823   -1.0957    3.0784 H   0  0  0  0  0  0  0  0  0  0  0  0
   -2.6025   -1.5639    3.3811 H   0  0  0  0  0  0  0  0  0  0  0  0
   -2.2530   -1.3464    0.5186 H   0  0  0  0  0  0  0  0  0  0  0  0
   -3.9668    0.8957    1.2021 H   0  0  0  0  0  0  0  0  0  0  0  0
   -4.3171   -0.4629    2.3474 H   0  0  0  0  0  0  0  0  0  0  0  0
  1 10  1  0  0  0  0
  2  1  1  0  0  0  0
  2  3  1  0  0  0  0
  3  5  1  0  0  0  0
  3 13  1  1  0  0  0
  4  3  1  0  0  0  0
  5  4  1  6  0  0  0
  5  6  1  0  0  0  0
  6  7  1  0  0  0  0
  6 14  1  1  0  0  0
  7 15  1  0  0  0  0
  7 16  1  0  0  0  0
  8 17  1  6  0  0  0
  8  5  1  0  0  0  0
  8  9  1  0  0  0  0
  8  7  1  0  0  0  0
  9 19  1  0  0  0  0
  9  6  1  0  0  0  0
 11  2  1  0  0  0  0
 12  2  1  0  0  0  0
 18  9  1  0  0  0  0
M TOR 0 0 1 2 3
M TOR 1 0 1 2 4
M TOR 2 0 1 2 12
M TOR 3 1 2 3 4
M TOR 4 1 2 4 5
M TOR 5 1 2 4 7
M TOR 6 2 1 0 9
M TOR 7 2 3 4 5
M TOR 8 2 3 4 7
M TOR 9 2 4 5 6
M TOR 10 2 4 5 8
M TOR 11 2 4 5 13
M TOR 12 2 4 7 6
M TOR 13 2 4 7 8
M TOR 14 2 4 7 16
M TOR 15 3 2 1 10
M TOR 16 3 2 1 11
M TOR 17 3 4 2 12
M TOR 18 3 4 5 6
M TOR 19 3 4 5 8
M TOR 20 3 4 5 13
M TOR 21 3 4 7 6
M TOR 22 3 4 7 8
M TOR 23 3 4 7 16
M TOR 24 4 2 1 10
M TOR 25 4 2 1 11
M TOR 26 4 5 6 7
M TOR 27 4 5 6 14
M TOR 28 4 5 6 15
M TOR 29 4 5 8 7
M TOR 30 4 5 8 17
M TOR 31 4 5 8 18
M TOR 32 4 7 6 14
M TOR 33 4 7 6 15
M TOR 34 4 7 8 17
M TOR 35 4 7 8 18
M TOR 36 5 4 2 12
M TOR 37 5 4 7 16
M TOR 38 5 6 7 8
M TOR 39 5 6 7 16
M TOR 40 5 8 7 16
M TOR 41 6 5 8 17
M TOR 42 6 5 8 18
M TOR 43 6 7 8 17
M TOR 44 6 7 8 18
M TOR 45 7 4 2 12
M TOR 46 7 4 5 13
M TOR 47 7 6 5 13
M TOR 48 7 8 5 13
M TOR 49 8 5 6 14
M TOR 50 8 5 6 15
M TOR 51 8 7 6 14
M TOR 52 8 7 6 15
M  END
$$$$
