gdb 4305	3.5519172	1.0276104	0.9088629	2.0951	79.15	-0.23322	0.01295	0.24617	1319.5028	0.156959	-422.547267	-422.538685	-422.537741	-422.581032	31.982
 OpenBabel02181911413D

 19 20  0  0  1  0  0  0  0  0999 V2000
    1.4638   -1.0154    4.7594 O   0  0  0  0  0  0  0  0  0  0  0  0
    1.0514    0.2698    4.3049 C   0  0  2  0  0  0  0  0  0  0  0  0
   -0.4817    0.4668    4.4550 C   0  0  0  0  0  0  0  0  0  0  0  0
   -1.0162    0.1041    3.0941 C   0  0  0  0  0  0  0  0  0  0  0  0
   -0.0460   -0.0028    2.1820 C   0  0  0  0  0  0  0  0  0  0  0  0
    1.3101    0.2976    2.7842 C   0  0  0  0  0  0  0  0  0  0  0  0
   -0.2432   -0.3169    0.7559 C   0  0  2  0  0  0  0  0  0  0  0  0
    0.7340   -1.0813   -0.0428 C   0  0  0  0  0  0  0  0  0  0  0  0
    0.6362    0.3316   -0.1832 O   0  0  0  0  0  0  0  0  0  0  0  0
    1.2538   -1.0790    5.6966 H   0  0  0  0  0  0  0  0  0  0  0  0
    1.6147    1.0538    4.8293 H   0  0  0  0  0  0  0  0  0  0  0  0
   -0.8814   -0.1613    5.2616 H   0  0  0  0  0  0  0  0  0  0  0  0
   -0.7317    1.5052    4.7156 H   0  0  0  0  0  0  0  0  0  0  0  0
   -2.0738   -0.0277    2.8909 H   0  0  0  0  0  0  0  0  0  0  0  0
    2.0823   -0.4354    2.5315 H   0  0  0  0  0  0  0  0  0  0  0  0
    1.6723    1.2757    2.4473 H   0  0  0  0  0  0  0  0  0  0  0  0
   -1.2829   -0.3552    0.4295 H   0  0  0  0  0  0  0  0  0  0  0  0
    1.6476   -1.4462    0.4227 H   0  0  0  0  0  0  0  0  0  0  0  0
    0.3798   -1.6654   -0.8918 H   0  0  0  0  0  0  0  0  0  0  0  0
  1 10  1  0  0  0  0
  2  3  1  0  0  0  0
  2  1  1  0  0  0  0
  2 11  1  1  0  0  0
  3 13  1  0  0  0  0
  3 12  1  0  0  0  0
  4  3  1  0  0  0  0
  5  6  1  0  0  0  0
  5  4  2  0  0  0  0
  6  2  1  0  0  0  0
  7 17  1  6  0  0  0
  7  5  1  0  0  0  0
  8 18  1  0  0  0  0
  8  7  1  0  0  0  0
  9  8  1  0  0  0  0
  9  7  1  0  0  0  0
 14  4  1  0  0  0  0
 15  6  1  0  0  0  0
 16  6  1  0  0  0  0
 19  8  1  0  0  0  0
M TOR 0 0 1 2 3
M TOR 1 0 1 2 11
M TOR 2 0 1 2 12
M TOR 3 0 1 5 4
M TOR 4 0 1 5 14
M TOR 5 0 1 5 15
M TOR 6 1 2 3 4
M TOR 7 1 2 3 13
M TOR 8 1 5 4 3
M TOR 9 1 5 4 6
M TOR 10 2 1 0 9
M TOR 11 2 1 5 4
M TOR 12 2 1 5 14
M TOR 13 2 1 5 15
M TOR 14 2 3 4 5
M TOR 15 2 3 4 6
M TOR 16 3 2 1 5
M TOR 17 3 2 1 10
M TOR 18 3 4 5 14
M TOR 19 3 4 5 15
M TOR 20 3 4 6 7
M TOR 21 3 4 6 8
M TOR 22 3 4 6 16
M TOR 23 4 3 2 11
M TOR 24 4 3 2 12
M TOR 25 4 5 1 10
M TOR 26 4 6 7 8
M TOR 27 4 6 7 17
M TOR 28 4 6 7 18
M TOR 29 5 1 0 9
M TOR 30 5 1 2 11
M TOR 31 5 1 2 12
M TOR 32 5 4 3 13
M TOR 33 5 4 6 7
M TOR 34 5 4 6 8
M TOR 35 5 4 6 16
M TOR 36 6 4 3 13
M TOR 37 6 4 5 14
M TOR 38 6 4 5 15
M TOR 39 6 8 7 17
M TOR 40 6 8 7 18
M TOR 41 7 8 6 16
M  END
$$$$
