gdb 4419	3.401726	1.0954697	0.9763997	1.3683	75.71	-0.24526	-0.02677	0.21849000000000002	1248.9979	0.154815	-422.544762	-422.535906	-422.534962	-422.579284	32.643
 OpenBabel02181911413D

 19 20  0  0  1  0  0  0  0  0999 V2000
   -3.3609   -1.1903   -1.9633 C   0  0  0  0  0  0  0  0  0  0  0  0
   -3.2255   -0.0256   -1.0051 C   0  0  1  0  0  0  0  0  0  0  0  0
   -4.1965   -0.0800    0.0676 O   0  0  0  0  0  0  0  0  0  0  0  0
   -3.1727    0.0690    1.0680 C   0  0  0  0  0  0  0  0  0  0  0  0
   -2.0549    0.0080    0.0091 C   0  0  0  0  0  0  0  0  0  0  0  0
   -0.9748   -1.1117    0.0855 C   0  0  0  0  0  0  0  0  0  0  0  0
    0.0913   -0.0106    0.2092 C   0  0  0  0  0  0  0  0  0  0  0  0
    1.2612   -0.0124    0.4549 O   0  0  0  0  0  0  0  0  0  0  0  0
   -0.9458    1.0956   -0.0448 C   0  0  0  0  0  0  0  0  0  0  0  0
   -3.2561   -2.1457   -1.4407 H   0  0  0  0  0  0  0  0  0  0  0  0
   -4.3476   -1.1671   -2.4363 H   0  0  0  0  0  0  0  0  0  0  0  0
   -2.6058   -1.1348   -2.7555 H   0  0  0  0  0  0  0  0  0  0  0  0
   -3.3173    0.9246   -1.5538 H   0  0  0  0  0  0  0  0  0  0  0  0
   -3.2519    1.0269    1.6005 H   0  0  0  0  0  0  0  0  0  0  0  0
   -3.1917   -0.7475    1.8011 H   0  0  0  0  0  0  0  0  0  0  0  0
   -1.0358   -1.8073    0.9280 H   0  0  0  0  0  0  0  0  0  0  0  0
   -0.8614   -1.6972   -0.8332 H   0  0  0  0  0  0  0  0  0  0  0  0
   -0.9854    1.8895    0.7073 H   0  0  0  0  0  0  0  0  0  0  0  0
   -0.8273    1.5619   -1.0299 H   0  0  0  0  0  0  0  0  0  0  0  0
  1 10  1  0  0  0  0
  1  2  1  0  0  0  0
  2 13  1  6  0  0  0
  2  5  1  0  0  0  0
  2  3  1  0  0  0  0
  3  4  1  0  0  0  0
  4 14  1  0  0  0  0
  4 15  1  0  0  0  0
  5  6  1  0  0  0  0
  5  4  1  0  0  0  0
  6  7  1  0  0  0  0
  6 16  1  0  0  0  0
  7  8  2  0  0  0  0
  9  5  1  0  0  0  0
  9  7  1  0  0  0  0
  9 18  1  0  0  0  0
 11  1  1  0  0  0  0
 12  1  1  0  0  0  0
 17  6  1  0  0  0  0
 19  9  1  0  0  0  0
M TOR 0 0 1 2 3
M TOR 1 0 1 4 3
M TOR 2 0 1 4 5
M TOR 3 0 1 4 8
M TOR 4 1 2 3 4
M TOR 5 1 2 3 13
M TOR 6 1 2 3 14
M TOR 7 1 4 3 13
M TOR 8 1 4 3 14
M TOR 9 1 4 5 6
M TOR 10 1 4 5 15
M TOR 11 1 4 5 16
M TOR 12 1 4 8 6
M TOR 13 1 4 8 17
M TOR 14 1 4 8 18
M TOR 15 2 1 0 9
M TOR 16 2 1 0 10
M TOR 17 2 1 0 11
M TOR 18 2 1 4 5
M TOR 19 2 1 4 8
M TOR 20 2 3 4 5
M TOR 21 2 3 4 8
M TOR 22 3 2 1 12
M TOR 23 3 4 1 12
M TOR 24 3 4 5 6
M TOR 25 3 4 5 15
M TOR 26 3 4 5 16
M TOR 27 3 4 8 6
M TOR 28 3 4 8 17
M TOR 29 3 4 8 18
M TOR 30 4 1 0 9
M TOR 31 4 1 0 10
M TOR 32 4 1 0 11
M TOR 33 4 5 6 7
M TOR 34 4 5 6 8
M TOR 35 4 8 6 7
M TOR 36 5 4 1 12
M TOR 37 5 4 3 13
M TOR 38 5 4 3 14
M TOR 39 5 4 8 17
M TOR 40 5 4 8 18
M TOR 41 5 6 8 17
M TOR 42 5 6 8 18
M TOR 43 7 6 5 15
M TOR 44 7 6 5 16
M TOR 45 7 6 8 17
M TOR 46 7 6 8 18
M TOR 47 8 4 1 12
M TOR 48 8 4 3 13
M TOR 49 8 4 3 14
M TOR 50 8 4 5 15
M TOR 51 8 4 5 16
M TOR 52 8 6 5 15
M TOR 53 8 6 5 16
M  END
$$$$
