gdb 1906	2.1409828	1.6942681	1.3691518	2.4243	76.2	-0.22581	-0.01091	0.2149	1055.3728	0.154384	-422.560198	-422.550747	-422.549803	-422.593716	35.375
 OpenBabel02181911403D

 19 20  0  0  1  0  0  0  0  0999 V2000
   -3.3106    0.2426    0.9072 C   0  0  0  0  0  0  0  0  0  0  0  0
   -2.1035    0.0833    0.0280 C   0  0  1  0  0  0  0  0  0  0  0  0
   -1.8999    0.8405   -1.2337 C   0  0  0  0  0  0  0  0  0  0  0  0
   -0.8755    1.0455   -0.1181 C   0  0  2  0  0  0  0  0  0  0  0  0
    0.0286   -0.1366   -0.0944 C   0  0  0  0  0  0  0  0  0  0  0  0
    1.2163   -0.2980   -0.0084 O   0  0  0  0  0  0  0  0  0  0  0  0
   -1.1651   -1.1430    0.0124 C   0  0  1  0  0  0  0  0  0  0  0  0
   -1.0962   -1.9350    1.3143 C   0  0  0  0  0  0  0  0  0  0  0  0
   -1.3992   -1.9905   -1.0997 O   0  0  0  0  0  0  0  0  0  0  0  0
   -3.0930    0.0018    1.9524 H   0  0  0  0  0  0  0  0  0  0  0  0
   -3.6857    1.2701    0.8692 H   0  0  0  0  0  0  0  0  0  0  0  0
   -4.1210   -0.4160    0.5742 H   0  0  0  0  0  0  0  0  0  0  0  0
   -1.6172    0.3261   -2.1449 H   0  0  0  0  0  0  0  0  0  0  0  0
   -2.5536    1.6951   -1.3798 H   0  0  0  0  0  0  0  0  0  0  0  0
   -0.6935    2.0228    0.3124 H   0  0  0  0  0  0  0  0  0  0  0  0
   -0.2365   -2.6127    1.2877 H   0  0  0  0  0  0  0  0  0  0  0  0
   -0.9707   -1.2814    2.1828 H   0  0  0  0  0  0  0  0  0  0  0  0
   -2.0069   -2.5271    1.4442 H   0  0  0  0  0  0  0  0  0  0  0  0
   -0.6443   -2.5852   -1.1758 H   0  0  0  0  0  0  0  0  0  0  0  0
  1 10  1  0  0  0  0
  2  1  1  1  0  0  0
  3  4  1  0  0  0  0
  3  2  1  0  0  0  0
  4  5  1  0  0  0  0
  4  2  1  0  0  0  0
  4 15  1  1  0  0  0
  5  6  2  0  0  0  0
  5  7  1  0  0  0  0
  7  9  1  6  0  0  0
  7  2  1  0  0  0  0
  7  8  1  0  0  0  0
  8 18  1  0  0  0  0
  8 17  1  0  0  0  0
 11  1  1  0  0  0  0
 12  1  1  0  0  0  0
 13  3  1  0  0  0  0
 14  3  1  0  0  0  0
 16  8  1  0  0  0  0
 19  9  1  0  0  0  0
M TOR 0 0 1 2 3
M TOR 1 0 1 2 12
M TOR 2 0 1 2 13
M TOR 3 0 1 3 4
M TOR 4 0 1 3 14
M TOR 5 0 1 6 4
M TOR 6 0 1 6 7
M TOR 7 0 1 6 8
M TOR 8 1 2 3 4
M TOR 9 1 2 3 14
M TOR 10 1 3 2 12
M TOR 11 1 3 2 13
M TOR 12 1 3 4 5
M TOR 13 1 3 4 6
M TOR 14 1 6 4 5
M TOR 15 1 6 7 15
M TOR 16 1 6 7 16
M TOR 17 1 6 7 17
M TOR 18 1 6 8 18
M TOR 19 2 1 0 9
M TOR 20 2 1 0 10
M TOR 21 2 1 0 11
M TOR 22 2 1 6 4
M TOR 23 2 1 6 7
M TOR 24 2 1 6 8
M TOR 25 2 3 1 6
M TOR 26 2 3 4 5
M TOR 27 2 3 4 6
M TOR 28 3 1 0 9
M TOR 29 3 1 0 10
M TOR 30 3 1 0 11
M TOR 31 3 1 6 7
M TOR 32 3 1 6 8
M TOR 33 3 4 6 7
M TOR 34 3 4 6 8
M TOR 35 4 3 2 12
M TOR 36 4 3 2 13
M TOR 37 4 6 7 15
M TOR 38 4 6 7 16
M TOR 39 4 6 7 17
M TOR 40 4 6 8 18
M TOR 41 5 4 3 14
M TOR 42 5 4 6 7
M TOR 43 5 4 6 8
M TOR 44 6 1 0 9
M TOR 45 6 1 0 10
M TOR 46 6 1 0 11
M TOR 47 6 1 2 12
M TOR 48 6 1 2 13
M TOR 49 6 1 3 14
M TOR 50 6 4 3 14
M TOR 51 7 6 8 18
M TOR 52 8 6 7 15
M TOR 53 8 6 7 16
M TOR 54 8 6 7 17
M  END
$$$$
