
     RDKit          3D

 19 21  0  0  0  0  0  0  0  0999 V2000
    0.5603    0.1684    0.0524 O   0  0  0  0  0  0  0  0  0  0  0  0
   -0.6014    0.4258    0.7639 C   0  0  0  0  0  0  0  0  0  0  0  0
   -1.9622    0.1014    0.2295 C   0  0  0  0  0  0  0  0  0  0  0  0
   -2.8856    1.3130    0.3588 C   0  0  0  0  0  0  0  0  0  0  0  0
   -1.9615    2.4464    0.8755 C   0  0  0  0  0  0  0  0  0  0  0  0
   -0.8058    1.7191    1.5848 C   0  0  0  0  0  0  0  0  0  0  0  0
   -1.1825    1.3082    2.9032 O   0  0  0  0  0  0  0  0  0  0  0  0
   -1.7856    0.0121    2.8544 C   0  0  0  0  0  0  0  0  0  0  0  0
   -1.4363   -0.5795    1.5028 C   0  0  0  0  0  0  0  0  0  0  0  0
    1.2606   -0.0380    0.6818 H   0  0  0  0  0  0  0  0  0  0  0  0
   -2.0512   -0.5500   -0.6328 H   0  0  0  0  0  0  0  0  0  0  0  0
   -3.3360    1.5652   -0.6050 H   0  0  0  0  0  0  0  0  0  0  0  0
   -3.7134    1.1209    1.0507 H   0  0  0  0  0  0  0  0  0  0  0  0
   -1.5538    3.0035    0.0241 H   0  0  0  0  0  0  0  0  0  0  0  0
   -2.4598    3.1576    1.5390 H   0  0  0  0  0  0  0  0  0  0  0  0
    0.1001    2.3247    1.6705 H   0  0  0  0  0  0  0  0  0  0  0  0
   -1.3746   -0.5926    3.6720 H   0  0  0  0  0  0  0  0  0  0  0  0
   -2.8710    0.0955    3.0159 H   0  0  0  0  0  0  0  0  0  0  0  0
   -1.2152   -1.6381    1.4269 H   0  0  0  0  0  0  0  0  0  0  0  0
  1  2  1  0
  2  3  1  0
  3  4  1  0
  4  5  1  0
  5  6  1  0
  6  7  1  0
  7  8  1  0
  8  9  1  0
  6  2  1  0
  9  2  1  0
  9  3  1  0
  1 10  1  0
  3 11  1  0
  4 12  1  0
  4 13  1  0
  5 14  1  0
  5 15  1  0
  6 16  1  0
  8 17  1  0
  8 18  1  0
  9 19  1  0
M  END
$$$$
