gdb 1559	2.4014162	1.7040861	1.377805	1.91	75.19	-0.23941	-0.02096	0.21845	1030.5942	0.155321	-422.571534	-422.562735	-422.561791	-422.604714	33.347
 OpenBabel02181911403D

 19 20  0  0  1  0  0  0  0  0999 V2000
   -0.5497    2.1381    1.2549 C   0  0  0  0  0  0  0  0  0  0  0  0
   -0.8780    1.2386    0.0612 C   0  0  0  0  0  0  0  0  0  0  0  0
   -0.7507    1.9958   -1.2650 C   0  0  0  0  0  0  0  0  0  0  0  0
   -2.2201    0.7293    0.1765 O   0  0  0  0  0  0  0  0  0  0  0  0
   -2.2286   -0.6756    0.1856 C   0  0  2  0  0  0  0  0  0  0  0  0
   -1.6664   -1.3414    1.3937 C   0  0  0  0  0  0  0  0  0  0  0  0
   -0.8208   -1.2138    0.1171 C   0  0  2  0  0  0  0  0  0  0  0  0
    0.0423   -0.0027    0.0177 C   0  0  0  0  0  0  0  0  0  0  0  0
    1.2359    0.0419   -0.1492 O   0  0  0  0  0  0  0  0  0  0  0  0
   -0.6824    1.6081    2.2019 H   0  0  0  0  0  0  0  0  0  0  0  0
    0.4887    2.4737    1.1887 H   0  0  0  0  0  0  0  0  0  0  0  0
   -1.2063    3.0128    1.2587 H   0  0  0  0  0  0  0  0  0  0  0  0
   -1.0217    1.3509   -2.1058 H   0  0  0  0  0  0  0  0  0  0  0  0
   -1.4194    2.8612   -1.2651 H   0  0  0  0  0  0  0  0  0  0  0  0
    0.2796    2.3339   -1.4039 H   0  0  0  0  0  0  0  0  0  0  0  0
   -3.0561   -1.1052   -0.3678 H   0  0  0  0  0  0  0  0  0  0  0  0
   -1.4175   -0.7320    2.2549 H   0  0  0  0  0  0  0  0  0  0  0  0
   -1.9911   -2.3499    1.6251 H   0  0  0  0  0  0  0  0  0  0  0  0
   -0.5172   -2.1112   -0.4056 H   0  0  0  0  0  0  0  0  0  0  0  0
  1 12  1  0  0  0  0
  1 10  1  0  0  0  0
  2  4  1  0  0  0  0
  2  1  1  0  0  0  0
  3  2  1  0  0  0  0
  4  5  1  0  0  0  0
  5 16  1  6  0  0  0
  5  6  1  0  0  0  0
  6 18  1  0  0  0  0
  6 17  1  0  0  0  0
  7 19  1  6  0  0  0
  7  5  1  0  0  0  0
  7  6  1  0  0  0  0
  8  2  1  0  0  0  0
  8  7  1  0  0  0  0
  9  8  2  0  0  0  0
 11  1  1  0  0  0  0
 13  3  1  0  0  0  0
 14  3  1  0  0  0  0
 15  3  1  0  0  0  0
M TOR 0 0 1 2 12
M TOR 1 0 1 2 13
M TOR 2 0 1 2 14
M TOR 3 0 1 3 4
M TOR 4 0 1 7 6
M TOR 5 0 1 7 8
M TOR 6 1 3 4 5
M TOR 7 1 3 4 6
M TOR 8 1 3 4 15
M TOR 9 1 7 6 4
M TOR 10 1 7 6 5
M TOR 11 1 7 6 18
M TOR 12 2 1 0 9
M TOR 13 2 1 0 10
M TOR 14 2 1 0 11
M TOR 15 2 1 3 4
M TOR 16 2 1 7 6
M TOR 17 2 1 7 8
M TOR 18 3 1 0 9
M TOR 19 3 1 0 10
M TOR 20 3 1 0 11
M TOR 21 3 1 2 12
M TOR 22 3 1 2 13
M TOR 23 3 1 2 14
M TOR 24 3 1 7 6
M TOR 25 3 1 7 8
M TOR 26 3 4 5 6
M TOR 27 3 4 5 16
M TOR 28 3 4 5 17
M TOR 29 3 4 6 7
M TOR 30 3 4 6 18
M TOR 31 4 3 1 7
M TOR 32 4 5 6 7
M TOR 33 4 5 6 18
M TOR 34 4 6 5 16
M TOR 35 4 6 5 17
M TOR 36 4 6 7 8
M TOR 37 5 6 4 15
M TOR 38 5 6 7 8
M TOR 39 7 1 0 9
M TOR 40 7 1 0 10
M TOR 41 7 1 0 11
M TOR 42 7 1 2 12
M TOR 43 7 1 2 13
M TOR 44 7 1 2 14
M TOR 45 7 6 4 15
M TOR 46 7 6 5 16
M TOR 47 7 6 5 17
M TOR 48 8 7 6 18
M  END
$$$$
