gdb 5016	2.2268068	1.5172842	1.1579401	0.8917	76.09	-0.23883	-0.03686	0.20196999999999998	1142.3398	0.154781	-422.503798	-422.494843	-422.493898	-422.537933	32.695
 OpenBabel02181911413D

 19 20  0  0  1  0  0  0  0  0999 V2000
    1.3752   -0.3170    1.1283 C   0  0  0  0  0  0  0  0  0  0  0  0
    0.9966    0.1473   -0.2819 C   0  0  0  0  0  0  0  0  0  0  0  0
    1.6978   -0.6186   -1.3622 C   0  0  1  0  0  0  0  0  0  0  0  0
    1.7207   -0.3779   -2.8975 C   0  0  0  0  0  0  0  0  0  0  0  0
    2.7882   -1.4289   -2.5416 C   0  0  1  0  0  0  0  0  0  0  0  0
    3.1986   -0.6065   -1.3947 O   0  0  0  0  0  0  0  0  0  0  0  0
    1.7725   -2.1598   -1.5941 C   0  0  2  0  0  0  0  0  0  0  0  0
    0.6157   -2.9509   -2.1310 C   0  0  0  0  0  0  0  0  0  0  0  0
   -0.4672   -2.4992   -2.4176 O   0  0  0  0  0  0  0  0  0  0  0  0
    1.0750   -1.3560    1.2981 H   0  0  0  0  0  0  0  0  0  0  0  0
    2.4561   -0.2502    1.2794 H   0  0  0  0  0  0  0  0  0  0  0  0
    0.8828    0.3000    1.8850 H   0  0  0  0  0  0  0  0  0  0  0  0
   -0.0815    0.0406   -0.4510 H   0  0  0  0  0  0  0  0  0  0  0  0
    1.2367    1.2097   -0.4102 H   0  0  0  0  0  0  0  0  0  0  0  0
    0.8465   -0.6800   -3.4734 H   0  0  0  0  0  0  0  0  0  0  0  0
    2.1282    0.5891   -3.1945 H   0  0  0  0  0  0  0  0  0  0  0  0
    3.5742   -1.8737   -3.1516 H   0  0  0  0  0  0  0  0  0  0  0  0
    2.2962   -2.7101   -0.8071 H   0  0  0  0  0  0  0  0  0  0  0  0
    0.8242   -4.0391   -2.2506 H   0  0  0  0  0  0  0  0  0  0  0  0
  1 11  1  0  0  0  0
  1 10  1  0  0  0  0
  1 12  1  0  0  0  0
  2  1  1  0  0  0  0
  3  2  1  1  0  0  0
  4  5  1  0  0  0  0
  4  3  1  0  0  0  0
  5 17  1  6  0  0  0
  5  7  1  0  0  0  0
  5  6  1  0  0  0  0
  6  3  1  0  0  0  0
  7  3  1  0  0  0  0
  7 18  1  1  0  0  0
  8  7  1  0  0  0  0
  9  8  2  0  0  0  0
 13  2  1  0  0  0  0
 14  2  1  0  0  0  0
 15  4  1  0  0  0  0
 16  4  1  0  0  0  0
 19  8  1  0  0  0  0
M TOR 0 0 1 2 3
M TOR 1 0 1 2 5
M TOR 2 0 1 2 6
M TOR 3 1 2 3 4
M TOR 4 1 2 3 14
M TOR 5 1 2 3 15
M TOR 6 1 2 5 4
M TOR 7 1 2 6 4
M TOR 8 1 2 6 7
M TOR 9 1 2 6 17
M TOR 10 2 1 0 9
M TOR 11 2 1 0 10
M TOR 12 2 1 0 11
M TOR 13 2 3 4 5
M TOR 14 2 3 4 6
M TOR 15 2 3 4 16
M TOR 16 2 5 4 6
M TOR 17 2 5 4 16
M TOR 18 2 6 4 16
M TOR 19 2 6 7 8
M TOR 20 2 6 7 18
M TOR 21 3 2 1 12
M TOR 22 3 2 1 13
M TOR 23 3 2 6 7
M TOR 24 3 2 6 17
M TOR 25 3 4 6 7
M TOR 26 3 4 6 17
M TOR 27 4 6 7 8
M TOR 28 4 6 7 18
M TOR 29 5 2 1 12
M TOR 30 5 2 1 13
M TOR 31 5 2 3 14
M TOR 32 5 2 3 15
M TOR 33 5 2 6 7
M TOR 34 5 2 6 17
M TOR 35 5 4 3 14
M TOR 36 5 4 3 15
M TOR 37 5 4 6 7
M TOR 38 5 4 6 17
M TOR 39 6 2 1 12
M TOR 40 6 2 1 13
M TOR 41 6 2 3 14
M TOR 42 6 2 3 15
M TOR 43 6 4 3 14
M TOR 44 6 4 3 15
M TOR 45 7 6 4 16
M TOR 46 8 7 6 17
M  END
$$$$
