
     RDKit          3D

 19 19  0  0  0  0  0  0  0  0999 V2000
    1.3911   -0.1616   -0.1203 C   0  0  0  0  0  0  0  0  0  0  0  0
    0.0231    0.1658   -0.0377 O   0  0  0  0  0  0  0  0  0  0  0  0
   -0.3680    0.7197    1.2079 C   0  0  0  0  0  0  0  0  0  0  0  0
   -1.9166    0.6957    1.2361 C   0  0  0  0  0  0  0  0  0  0  0  0
   -2.3057    2.1084    0.9063 C   0  0  0  0  0  0  0  0  0  0  0  0
   -1.2572    2.9429    0.9534 C   0  0  0  0  0  0  0  0  0  0  0  0
    0.0154    2.2218    1.3300 C   0  0  0  0  0  0  0  0  0  0  0  0
   -1.3307    4.3803    0.6904 C   0  0  0  0  0  0  0  0  0  0  0  0
   -0.3828    5.1336    0.7471 O   0  0  0  0  0  0  0  0  0  0  0  0
    1.6830   -0.8773    0.6647 H   0  0  0  0  0  0  0  0  0  0  0  0
    1.5524   -0.6233   -1.0973 H   0  0  0  0  0  0  0  0  0  0  0  0
    2.0445    0.7196   -0.0399 H   0  0  0  0  0  0  0  0  0  0  0  0
    0.0670    0.1220    2.0218 H   0  0  0  0  0  0  0  0  0  0  0  0
   -2.2947   -0.0398    0.5189 H   0  0  0  0  0  0  0  0  0  0  0  0
   -2.3010    0.4067    2.2235 H   0  0  0  0  0  0  0  0  0  0  0  0
   -3.3233    2.4077    0.6767 H   0  0  0  0  0  0  0  0  0  0  0  0
    0.8523    2.4881    0.6784 H   0  0  0  0  0  0  0  0  0  0  0  0
    0.3213    2.4819    2.3507 H   0  0  0  0  0  0  0  0  0  0  0  0
   -2.3462    4.7514    0.4246 H   0  0  0  0  0  0  0  0  0  0  0  0
  1  2  1  0
  2  3  1  0
  3  4  1  0
  4  5  1  0
  5  6  2  0
  6  7  1  0
  6  8  1  0
  8  9  2  0
  7  3  1  0
  1 10  1  0
  1 11  1  0
  1 12  1  0
  3 13  1  0
  4 14  1  0
  4 15  1  0
  5 16  1  0
  7 17  1  0
  7 18  1  0
  8 19  1  0
M  END
$$$$
