gdb 2967	3.2426322	1.2216411	0.9867548	3.494	76.37	-0.24882	-0.02112	0.2277	1228.2706	0.157324	-422.583345	-422.574874	-422.57393	-422.616145	32.421
 OpenBabel02181911413D

 19 20  0  0  1  0  0  0  0  0999 V2000
   -1.9492   -2.6397   -1.9107 C   0  0  0  0  0  0  0  0  0  0  0  0
   -1.5979   -1.2886   -1.3275 C   0  0  1  0  0  0  0  0  0  0  0  0
   -2.3527   -0.7569   -0.1576 C   0  0  2  0  0  0  0  0  0  0  0  0
   -2.3717    0.7580    0.0634 C   0  0  0  0  0  0  0  0  0  0  0  0
   -0.8995    1.2001   -0.0400 C   0  0  1  0  0  0  0  0  0  0  0  0
   -0.5623    2.2832    0.7839 O   0  0  0  0  0  0  0  0  0  0  0  0
   -0.1202   -0.0636    0.3786 C   0  0  0  0  0  0  0  0  0  0  0  0
    0.9114    0.0030    1.0089 O   0  0  0  0  0  0  0  0  0  0  0  0
   -0.9152   -1.2642    0.0441 C   0  0  2  0  0  0  0  0  0  0  0  0
   -2.3092   -3.3233   -1.1352 H   0  0  0  0  0  0  0  0  0  0  0  0
   -2.7387   -2.5424   -2.6634 H   0  0  0  0  0  0  0  0  0  0  0  0
   -1.0814   -3.1035   -2.3906 H   0  0  0  0  0  0  0  0  0  0  0  0
   -1.2380   -0.5682   -2.0578 H   0  0  0  0  0  0  0  0  0  0  0  0
   -3.1791   -1.3461    0.2256 H   0  0  0  0  0  0  0  0  0  0  0  0
   -3.0265    1.2779   -0.6423 H   0  0  0  0  0  0  0  0  0  0  0  0
   -2.7176    0.9861    1.0767 H   0  0  0  0  0  0  0  0  0  0  0  0
   -0.6443    1.4272   -1.0898 H   0  0  0  0  0  0  0  0  0  0  0  0
    0.2817    2.0350    1.1939 H   0  0  0  0  0  0  0  0  0  0  0  0
   -0.6723   -2.2050    0.5221 H   0  0  0  0  0  0  0  0  0  0  0  0
  1  2  1  0  0  0  0
  1 10  1  0  0  0  0
  2 13  1  6  0  0  0
  2  3  1  0  0  0  0
  2  9  1  0  0  0  0
  3  9  1  0  0  0  0
  3  4  1  0  0  0  0
  3 14  1  1  0  0  0
  4 16  1  0  0  0  0
  5 17  1  6  0  0  0
  5  4  1  0  0  0  0
  5  7  1  0  0  0  0
  5  6  1  0  0  0  0
  6 18  1  0  0  0  0
  7  8  2  0  0  0  0
  9  7  1  0  0  0  0
  9 19  1  1  0  0  0
 11  1  1  0  0  0  0
 12  1  1  0  0  0  0
 15  4  1  0  0  0  0
M TOR 0 0 1 2 3
M TOR 1 0 1 2 8
M TOR 2 0 1 2 13
M TOR 3 0 1 8 6
M TOR 4 0 1 8 18
M TOR 5 1 2 3 4
M TOR 6 1 2 3 14
M TOR 7 1 2 3 15
M TOR 8 1 2 8 6
M TOR 9 1 2 8 18
M TOR 10 1 8 2 3
M TOR 11 1 8 2 13
M TOR 12 1 8 6 4
M TOR 13 1 8 6 7
M TOR 14 2 1 0 9
M TOR 15 2 1 0 10
M TOR 16 2 1 0 11
M TOR 17 2 3 4 5
M TOR 18 2 3 4 6
M TOR 19 2 3 4 16
M TOR 20 2 8 1 12
M TOR 21 2 8 6 4
M TOR 22 2 8 6 7
M TOR 23 3 2 1 12
M TOR 24 3 2 8 6
M TOR 25 3 2 8 18
M TOR 26 3 4 5 17
M TOR 27 3 4 6 7
M TOR 28 3 4 6 8
M TOR 29 4 3 2 8
M TOR 30 4 3 2 13
M TOR 31 4 6 8 18
M TOR 32 5 4 3 14
M TOR 33 5 4 3 15
M TOR 34 5 4 6 7
M TOR 35 5 4 6 8
M TOR 36 6 4 3 14
M TOR 37 6 4 3 15
M TOR 38 6 4 5 17
M TOR 39 6 8 1 12
M TOR 40 6 8 2 13
M TOR 41 7 6 4 16
M TOR 42 7 6 8 18
M TOR 43 8 1 0 9
M TOR 44 8 1 0 10
M TOR 45 8 1 0 11
M TOR 46 8 2 3 14
M TOR 47 8 2 3 15
M TOR 48 8 6 4 16
M  END
$$$$
