gdb 2425	2.5292403	1.9974852	1.6238741	1.762	73.17	-0.23505	0.08431	0.31936	923.0489	0.158639	-422.554171	-422.546839	-422.545895	-422.585504	29.418
 OpenBabel02181911413D

 19 21  0  0  1  0  0  0  0  0999 V2000
   -0.0568   -0.4297    0.0275 C   0  0  0  0  0  0  0  0  0  0  0  0
    1.3899    0.0305    0.0369 C   0  0  1  0  0  0  0  0  0  0  0  0
    2.1137   -0.0883   -1.3195 C   0  0  0  0  0  0  0  0  0  0  0  0
    3.5116   -0.0543   -1.0142 O   0  0  0  0  0  0  0  0  0  0  0  0
    3.6742   -0.5708    0.2857 C   0  0  1  0  0  0  0  0  0  0  0  0
    3.3080    0.3342    1.4432 C   0  0  1  0  0  0  0  0  0  0  0  0
    2.6876    1.6761    1.0835 C   0  0  0  0  0  0  0  0  0  0  0  0
    1.4278    1.3953    0.4743 O   0  0  0  0  0  0  0  0  0  0  0  0
    2.3527   -0.7364    0.9669 C   0  0  1  0  0  0  0  0  0  0  0  0
   -0.4907   -0.3275    1.0254 H   0  0  0  0  0  0  0  0  0  0  0  0
   -0.6471    0.1814   -0.6615 H   0  0  0  0  0  0  0  0  0  0  0  0
   -0.1328   -1.4748   -0.2861 H   0  0  0  0  0  0  0  0  0  0  0  0
    1.8586   -1.0348   -1.8204 H   0  0  0  0  0  0  0  0  0  0  0  0
    1.8826    0.7491   -1.9823 H   0  0  0  0  0  0  0  0  0  0  0  0
    4.4910   -1.2782    0.3807 H   0  0  0  0  0  0  0  0  0  0  0  0
    3.8475    0.2306    2.3778 H   0  0  0  0  0  0  0  0  0  0  0  0
    2.5088    2.2876    1.9748 H   0  0  0  0  0  0  0  0  0  0  0  0
    3.3265    2.2419    0.3926 H   0  0  0  0  0  0  0  0  0  0  0  0
    2.0371   -1.5967    1.5427 H   0  0  0  0  0  0  0  0  0  0  0  0
  1 10  1  0  0  0  0
  2  1  1  6  0  0  0
  2  8  1  0  0  0  0
  2  9  1  0  0  0  0
  3  4  1  0  0  0  0
  3  2  1  0  0  0  0
  4  5  1  0  0  0  0
  5 15  1  1  0  0  0
  5  9  1  0  0  0  0
  5  6  1  0  0  0  0
  6 16  1  1  0  0  0
  7  6  1  0  0  0  0
  7 17  1  0  0  0  0
  8  7  1  0  0  0  0
  9  6  1  0  0  0  0
  9 19  1  1  0  0  0
 11  1  1  0  0  0  0
 12  1  1  0  0  0  0
 13  3  1  0  0  0  0
 14  3  1  0  0  0  0
 18  7  1  0  0  0  0
M TOR 0 0 1 2 3
M TOR 1 0 1 2 12
M TOR 2 0 1 2 13
M TOR 3 0 1 7 6
M TOR 4 0 1 8 4
M TOR 5 0 1 8 5
M TOR 6 0 1 8 18
M TOR 7 1 2 3 4
M TOR 8 1 7 6 5
M TOR 9 1 7 6 16
M TOR 10 1 7 6 17
M TOR 11 1 8 4 3
M TOR 12 1 8 4 5
M TOR 13 1 8 4 14
M TOR 14 1 8 5 6
M TOR 15 1 8 5 15
M TOR 16 2 1 0 9
M TOR 17 2 1 0 10
M TOR 18 2 1 0 11
M TOR 19 2 1 7 6
M TOR 20 2 1 8 4
M TOR 21 2 1 8 5
M TOR 22 2 1 8 18
M TOR 23 2 3 4 5
M TOR 24 2 3 4 8
M TOR 25 2 3 4 14
M TOR 26 3 2 1 7
M TOR 27 3 2 1 8
M TOR 28 3 4 5 6
M TOR 29 3 4 5 8
M TOR 30 3 4 5 15
M TOR 31 3 4 8 18
M TOR 32 4 3 2 12
M TOR 33 4 3 2 13
M TOR 34 4 5 6 7
M TOR 35 4 5 6 16
M TOR 36 4 5 6 17
M TOR 37 4 5 8 18
M TOR 38 4 8 1 7
M TOR 39 4 8 5 6
M TOR 40 4 8 5 15
M TOR 41 5 8 1 7
M TOR 42 5 8 4 14
M TOR 43 6 5 4 14
M TOR 44 6 5 8 18
M TOR 45 6 7 1 8
M TOR 46 7 1 0 9
M TOR 47 7 1 0 10
M TOR 48 7 1 0 11
M TOR 49 7 1 2 12
M TOR 50 7 1 2 13
M TOR 51 7 1 8 18
M TOR 52 7 6 5 8
M TOR 53 7 6 5 15
M TOR 54 8 1 0 9
M TOR 55 8 1 0 10
M TOR 56 8 1 0 11
M TOR 57 8 1 2 12
M TOR 58 8 1 2 13
M TOR 59 8 5 6 16
M TOR 60 8 5 6 17
M  END
$$$$
