gdb 4635	2.7639656	0.7588296	0.6361161	3.3213	81.04	-0.25125	-0.02605	0.22519999999999998	1772.8143	0.153266	-422.53458	-422.523508	-422.522564	-422.573301	36.974
 OpenBabel02181911413D

 19 18  0  0  1  0  0  0  0  0999 V2000
   -2.4341   -4.5565   -0.7036 C   0  0  0  0  0  0  0  0  0  0  0  0
   -1.4185   -3.4507   -0.3711 C   0  0  1  0  0  0  0  0  0  0  0  0
   -1.8925   -2.0799   -0.9172 C   0  0  0  0  0  0  0  0  0  0  0  0
   -0.9424   -1.0097   -0.6376 C   0  0  0  0  0  0  0  0  0  0  0  0
   -0.1306   -0.1579   -0.3789 C   0  0  0  0  0  0  0  0  0  0  0  0
    0.8880    0.8279   -0.0165 C   0  0  0  0  0  0  0  0  0  0  0  0
    2.1732    0.2581    0.1829 O   0  0  0  0  0  0  0  0  0  0  0  0
   -1.2435   -3.3690    1.1347 C   0  0  0  0  0  0  0  0  0  0  0  0
   -0.2512   -3.6820    1.7374 O   0  0  0  0  0  0  0  0  0  0  0  0
   -2.0728   -5.5335   -0.3712 H   0  0  0  0  0  0  0  0  0  0  0  0
   -3.3990   -4.3684   -0.2186 H   0  0  0  0  0  0  0  0  0  0  0  0
   -2.6068   -4.6059   -1.7831 H   0  0  0  0  0  0  0  0  0  0  0  0
   -0.4414   -3.6943   -0.7983 H   0  0  0  0  0  0  0  0  0  0  0  0
   -2.0606   -2.1721   -1.9972 H   0  0  0  0  0  0  0  0  0  0  0  0
   -2.8696   -1.8364   -0.4769 H   0  0  0  0  0  0  0  0  0  0  0  0
    1.0076    1.5619   -0.8213 H   0  0  0  0  0  0  0  0  0  0  0  0
    0.5531    1.3858    0.8729 H   0  0  0  0  0  0  0  0  0  0  0  0
    2.0698   -0.4803    0.7929 H   0  0  0  0  0  0  0  0  0  0  0  0
   -2.1515   -3.0001    1.6717 H   0  0  0  0  0  0  0  0  0  0  0  0
  1 10  1  0  0  0  0
  1  2  1  0  0  0  0
  1 11  1  0  0  0  0
  2 13  1  6  0  0  0
  2  8  1  0  0  0  0
  3  4  1  0  0  0  0
  3 15  1  0  0  0  0
  3  2  1  0  0  0  0
  4  5  3  0  0  0  0
  5  6  1  0  0  0  0
  6  7  1  0  0  0  0
  6 17  1  0  0  0  0
  7 18  1  0  0  0  0
  8 19  1  0  0  0  0
  8  9  2  0  0  0  0
 12  1  1  0  0  0  0
 14  3  1  0  0  0  0
 16  6  1  0  0  0  0
M TOR 0 0 1 2 3
M TOR 1 0 1 2 13
M TOR 2 0 1 2 14
M TOR 3 0 1 7 8
M TOR 4 0 1 7 18
M TOR 5 1 2 3 4
M TOR 6 2 1 0 9
M TOR 7 2 1 0 10
M TOR 8 2 1 0 11
M TOR 9 2 1 7 8
M TOR 10 2 1 7 18
M TOR 11 2 3 4 5
M TOR 12 3 2 1 7
M TOR 13 3 2 1 12
M TOR 14 3 4 5 6
M TOR 15 3 4 5 15
M TOR 16 3 4 5 16
M TOR 17 4 3 2 13
M TOR 18 4 3 2 14
M TOR 19 4 5 6 17
M TOR 20 7 1 0 9
M TOR 21 7 1 0 10
M TOR 22 7 1 0 11
M TOR 23 7 1 2 13
M TOR 24 7 1 2 14
M TOR 25 8 7 1 12
M  END
$$$$
