gdb 4252	2.9539557	1.6265597	1.2097873	1.2818	74.9	-0.24407	0.06121	0.30528	1053.2526	0.157072	-422.495761	-422.487939	-422.486995	-422.527915	30.187
 OpenBabel02181911413D

 19 21  0  0  1  0  0  0  0  0999 V2000
    0.5066   -0.5245   -0.3030 C   0  0  0  0  0  0  0  0  0  0  0  0
    0.8231    0.8112    0.3485 C   0  0  2  0  0  0  0  0  0  0  0  0
    2.1060    1.3460   -0.1028 O   0  0  0  0  0  0  0  0  0  0  0  0
    2.7390    1.0987    1.1764 C   0  0  1  0  0  0  0  0  0  0  0  0
    2.8891    2.3644    2.0585 C   0  0  0  0  0  0  0  0  0  0  0  0
    1.5000    2.0475    2.6624 C   0  0  2  0  0  0  0  0  0  0  0  0
    1.5538    1.1923    3.8334 O   0  0  0  0  0  0  0  0  0  0  0  0
    1.1353    0.0254    3.0763 C   0  0  0  0  0  0  0  0  0  0  0  0
    1.3449    0.7837    1.7781 C   0  0  1  0  0  0  0  0  0  0  0  0
   -0.4506   -0.9127    0.0623 H   0  0  0  0  0  0  0  0  0  0  0  0
    0.4362   -0.4036   -1.3881 H   0  0  0  0  0  0  0  0  0  0  0  0
    1.2863   -1.2625   -0.0905 H   0  0  0  0  0  0  0  0  0  0  0  0
    0.0150    1.5300    0.1581 H   0  0  0  0  0  0  0  0  0  0  0  0
    3.5709    0.3924    1.0974 H   0  0  0  0  0  0  0  0  0  0  0  0
    3.6949    2.3305    2.7959 H   0  0  0  0  0  0  0  0  0  0  0  0
    2.9516    3.2881    1.4778 H   0  0  0  0  0  0  0  0  0  0  0  0
    0.7516    2.8397    2.7639 H   0  0  0  0  0  0  0  0  0  0  0  0
    1.7711   -0.8470    3.2671 H   0  0  0  0  0  0  0  0  0  0  0  0
    0.0902   -0.2368    3.2941 H   0  0  0  0  0  0  0  0  0  0  0  0
  1 12  1  0  0  0  0
  1 10  1  0  0  0  0
  1  2  1  0  0  0  0
  2 13  1  6  0  0  0
  2  9  1  0  0  0  0
  3  2  1  0  0  0  0
  3  4  1  0  0  0  0
  4 14  1  1  0  0  0
  4  9  1  0  0  0  0
  4  5  1  0  0  0  0
  5  6  1  0  0  0  0
  5 15  1  0  0  0  0
  6 17  1  6  0  0  0
  6  7  1  0  0  0  0
  8 18  1  0  0  0  0
  8 19  1  0  0  0  0
  8  7  1  0  0  0  0
  9  6  1  0  0  0  0
  9  8  1  1  0  0  0
 11  1  1  0  0  0  0
 16  5  1  0  0  0  0
M TOR 0 0 1 2 3
M TOR 1 0 1 8 3
M TOR 2 0 1 8 5
M TOR 3 0 1 8 7
M TOR 4 1 2 3 4
M TOR 5 1 2 3 8
M TOR 6 1 2 3 13
M TOR 7 1 8 3 4
M TOR 8 1 8 3 13
M TOR 9 1 8 5 4
M TOR 10 1 8 5 6
M TOR 11 1 8 5 16
M TOR 12 1 8 7 6
M TOR 13 1 8 7 17
M TOR 14 1 8 7 18
M TOR 15 2 1 0 9
M TOR 16 2 1 0 10
M TOR 17 2 1 0 11
M TOR 18 2 1 8 5
M TOR 19 2 1 8 7
M TOR 20 2 3 4 5
M TOR 21 2 3 4 14
M TOR 22 2 3 4 15
M TOR 23 2 3 8 5
M TOR 24 2 3 8 7
M TOR 25 3 2 1 12
M TOR 26 3 4 5 6
M TOR 27 3 4 5 8
M TOR 28 3 4 5 16
M TOR 29 3 8 1 12
M TOR 30 3 8 5 6
M TOR 31 3 8 5 16
M TOR 32 3 8 7 6
M TOR 33 3 8 7 17
M TOR 34 3 8 7 18
M TOR 35 4 3 8 7
M TOR 36 4 5 6 7
M TOR 37 4 5 8 7
M TOR 38 5 4 3 13
M TOR 39 5 6 7 8
M TOR 40 5 6 7 17
M TOR 41 5 6 7 18
M TOR 42 5 8 1 12
M TOR 43 5 8 3 13
M TOR 44 5 8 7 17
M TOR 45 5 8 7 18
M TOR 46 6 5 4 14
M TOR 47 6 5 4 15
M TOR 48 7 6 5 16
M TOR 49 7 8 1 12
M TOR 50 7 8 3 13
M TOR 51 7 8 5 16
M TOR 52 8 1 0 9
M TOR 53 8 1 0 10
M TOR 54 8 1 0 11
M TOR 55 8 3 4 14
M TOR 56 8 3 4 15
M TOR 57 8 5 4 14
M TOR 58 8 5 4 15
M  END
$$$$
