gdb 1227	2.9791527	0.6825122	0.5994302	2.5069	82.83	-0.25055	-0.0318	0.21875	1862.3855	0.152794	-422.539107	-422.527943	-422.526999	-422.578209	37.721
 OpenBabel02181911403D

 19 18  0  0  1  0  0  0  0  0999 V2000
   -0.0553    0.2054    0.5239 C   0  0  0  0  0  0  0  0  0  0  0  0
    1.1581   -0.2428   -0.2922 C   0  0  2  0  0  0  0  0  0  0  0  0
    1.5317   -1.5277    0.2012 O   0  0  0  0  0  0  0  0  0  0  0  0
    2.2692    0.7129   -0.2115 C   0  0  0  0  0  0  0  0  0  0  0  0
    3.2051    1.4722   -0.1724 C   0  0  0  0  0  0  0  0  0  0  0  0
    4.3357    2.3873   -0.0583 C   0  0  1  0  0  0  0  0  0  0  0  0
    3.8818    3.8669   -0.0244 C   0  0  0  0  0  0  0  0  0  0  0  0
    5.1090    2.0830    1.2297 C   0  0  0  0  0  0  0  0  0  0  0  0
    6.3005    1.9458    1.2835 O   0  0  0  0  0  0  0  0  0  0  0  0
    0.2193    0.3090    1.5764 H   0  0  0  0  0  0  0  0  0  0  0  0
   -0.4314    1.1638    0.1577 H   0  0  0  0  0  0  0  0  0  0  0  0
   -0.8450   -0.5455    0.4385 H   0  0  0  0  0  0  0  0  0  0  0  0
    0.8562   -0.3209   -1.3501 H   0  0  0  0  0  0  0  0  0  0  0  0
    2.3700   -1.7676   -0.2071 H   0  0  0  0  0  0  0  0  0  0  0  0
    5.0366    2.2423   -0.8878 H   0  0  0  0  0  0  0  0  0  0  0  0
    3.2471    4.0583    0.8459 H   0  0  0  0  0  0  0  0  0  0  0  0
    4.7522    4.5272    0.0216 H   0  0  0  0  0  0  0  0  0  0  0  0
    3.3059    4.1026   -0.9222 H   0  0  0  0  0  0  0  0  0  0  0  0
    4.4646    2.0195    2.1347 H   0  0  0  0  0  0  0  0  0  0  0  0
  1 10  1  0  0  0  0
  2 13  1  6  0  0  0
  2  4  1  0  0  0  0
  2  3  1  0  0  0  0
  2  1  1  0  0  0  0
  4  5  3  0  0  0  0
  5  6  1  0  0  0  0
  6 15  1  6  0  0  0
  6  7  1  0  0  0  0
  6  8  1  0  0  0  0
  7 17  1  0  0  0  0
  7 16  1  0  0  0  0
  8  9  2  0  0  0  0
  8 19  1  0  0  0  0
 11  1  1  0  0  0  0
 12  1  1  0  0  0  0
 14  3  1  0  0  0  0
 18  7  1  0  0  0  0
M TOR 0 0 1 2 13
M TOR 1 0 1 3 4
M TOR 2 1 3 4 5
M TOR 3 2 1 0 9
M TOR 4 2 1 0 10
M TOR 5 2 1 0 11
M TOR 6 2 1 3 4
M TOR 7 3 1 0 9
M TOR 8 3 1 0 10
M TOR 9 3 1 0 11
M TOR 10 3 1 2 13
M TOR 11 3 4 5 6
M TOR 12 3 4 5 7
M TOR 13 3 4 5 14
M TOR 14 4 3 1 12
M TOR 15 4 5 6 15
M TOR 16 4 5 6 16
M TOR 17 4 5 6 17
M TOR 18 4 5 7 8
M TOR 19 4 5 7 18
M TOR 20 6 5 7 8
M TOR 21 6 5 7 18
M TOR 22 7 5 6 15
M TOR 23 7 5 6 16
M TOR 24 7 5 6 17
M TOR 25 8 7 5 14
M  END
$$$$
