
     RDKit          3D

 19 21  0  0  0  0  0  0  0  0999 V2000
   -0.0779   -0.7195    0.0278 C   0  0  0  0  0  0  0  0  0  0  0  0
    1.3344   -0.2581   -0.1310 C   0  0  0  0  0  0  0  0  0  0  0  0
    1.7466   -0.3434   -1.4998 O   0  0  0  0  0  0  0  0  0  0  0  0
    0.7391    0.6467   -1.8706 C   0  0  0  0  0  0  0  0  0  0  0  0
    0.2025    0.6934   -0.4433 C   0  0  0  0  0  0  0  0  0  0  0  0
    1.4169    1.9166   -2.3426 C   0  0  0  0  0  0  0  0  0  0  0  0
    1.9862    1.9170   -3.7772 C   0  0  0  0  0  0  0  0  0  0  0  0
    0.9385    3.0184   -4.0381 C   0  0  0  0  0  0  0  0  0  0  0  0
    0.4436    2.9328   -2.6823 O   0  0  0  0  0  0  0  0  0  0  0  0
   -0.4775   -1.4648   -0.6547 H   0  0  0  0  0  0  0  0  0  0  0  0
   -0.4370   -0.7892    1.0501 H   0  0  0  0  0  0  0  0  0  0  0  0
    2.1032   -0.2772    0.6326 H   0  0  0  0  0  0  0  0  0  0  0  0
    0.0570    0.2679   -2.6430 H   0  0  0  0  0  0  0  0  0  0  0  0
   -0.1521    1.5794    0.0647 H   0  0  0  0  0  0  0  0  0  0  0  0
    2.1120    2.2673   -1.5686 H   0  0  0  0  0  0  0  0  0  0  0  0
    3.0287    2.2226   -3.8684 H   0  0  0  0  0  0  0  0  0  0  0  0
    1.8367    0.9856   -4.3264 H   0  0  0  0  0  0  0  0  0  0  0  0
    1.3430    4.0135   -4.2593 H   0  0  0  0  0  0  0  0  0  0  0  0
    0.1592    2.7829   -4.7726 H   0  0  0  0  0  0  0  0  0  0  0  0
  1  2  1  0
  2  3  1  0
  3  4  1  0
  4  5  1  0
  4  6  1  0
  6  7  1  0
  7  8  1  0
  8  9  1  0
  5  1  1  0
  9  6  1  0
  5  2  1  0
  1 10  1  0
  1 11  1  0
  2 12  1  0
  4 13  1  0
  5 14  1  0
  6 15  1  0
  7 16  1  0
  7 17  1  0
  8 18  1  0
  8 19  1  0
M  END
$$$$
