
     RDKit          3D

 19 20  0  0  0  0  0  0  0  0999 V2000
    0.2641   -1.1814   -2.8972 O   0  0  0  0  0  0  0  0  0  0  0  0
    0.1752    0.0234   -2.2122 C   0  0  0  0  0  0  0  0  0  0  0  0
    0.1922    1.3476   -3.0160 C   0  0  0  0  0  0  0  0  0  0  0  0
    0.5726    1.9508   -1.6301 C   0  0  0  0  0  0  0  0  0  0  0  0
   -0.7155    1.7071   -0.8118 C   0  0  0  0  0  0  0  0  0  0  0  0
   -1.0290    0.2479   -1.2667 C   0  0  0  0  0  0  0  0  0  0  0  0
    1.3770    0.6226   -1.4077 C   0  0  0  0  0  0  0  0  0  0  0  0
    1.7330    0.1350   -0.0358 C   0  0  0  0  0  0  0  0  0  0  0  0
    1.2633   -0.8481    0.4881 O   0  0  0  0  0  0  0  0  0  0  0  0
    0.2138   -1.8917   -2.2471 H   0  0  0  0  0  0  0  0  0  0  0  0
    1.0100    1.3871   -3.7382 H   0  0  0  0  0  0  0  0  0  0  0  0
   -0.7454    1.6756   -3.4729 H   0  0  0  0  0  0  0  0  0  0  0  0
    1.0583    2.9214   -1.5448 H   0  0  0  0  0  0  0  0  0  0  0  0
   -0.5503    1.7873    0.2666 H   0  0  0  0  0  0  0  0  0  0  0  0
   -1.5048    2.4140   -1.0812 H   0  0  0  0  0  0  0  0  0  0  0  0
   -1.0409   -0.4638   -0.4398 H   0  0  0  0  0  0  0  0  0  0  0  0
   -1.9695    0.1642   -1.8179 H   0  0  0  0  0  0  0  0  0  0  0  0
    2.2907    0.6410   -2.0147 H   0  0  0  0  0  0  0  0  0  0  0  0
    2.5039    0.7413    0.4957 H   0  0  0  0  0  0  0  0  0  0  0  0
  1  2  1  0
  2  3  1  0
  3  4  1  0
  4  5  1  0
  5  6  1  0
  4  7  1  0
  7  8  1  0
  8  9  2  0
  6  2  1  0
  7  2  1  0
  1 10  1  0
  3 11  1  0
  3 12  1  0
  4 13  1  0
  5 14  1  0
  5 15  1  0
  6 16  1  0
  6 17  1  0
  7 18  1  0
  8 19  1  0
M  END
$$$$
