
     RDKit          3D

 19 21  0  0  0  0  0  0  0  0999 V2000
    0.9837    2.5989    1.2053 C   0  0  0  0  0  0  0  0  0  0  0  0
    2.2036    1.7801    0.7923 C   0  0  0  0  0  0  0  0  0  0  0  0
    2.7435    0.9713    1.9694 C   0  0  0  0  0  0  0  0  0  0  0  0
    3.2017    2.5096   -0.1772 C   0  0  0  0  0  0  0  0  0  0  0  0
    2.1527    2.4834   -1.2285 O   0  0  0  0  0  0  0  0  0  0  0  0
    2.1172    1.1234   -0.6323 C   0  0  0  0  0  0  0  0  0  0  0  0
    3.6514    1.1432   -0.7178 C   0  0  0  0  0  0  0  0  0  0  0  0
    4.7814    0.2297   -0.6282 C   0  0  0  0  0  0  0  0  0  0  0  0
    4.4257    0.9103   -1.8537 O   0  0  0  0  0  0  0  0  0  0  0  0
    1.2438    3.2849    2.0192 H   0  0  0  0  0  0  0  0  0  0  0  0
    0.5945    3.1779    0.3683 H   0  0  0  0  0  0  0  0  0  0  0  0
    0.1916    1.9398    1.5780 H   0  0  0  0  0  0  0  0  0  0  0  0
    1.9682    0.2968    2.3496 H   0  0  0  0  0  0  0  0  0  0  0  0
    3.6185    0.3697    1.7205 H   0  0  0  0  0  0  0  0  0  0  0  0
    3.0182    1.6411    2.7918 H   0  0  0  0  0  0  0  0  0  0  0  0
    3.7604    3.4362   -0.0439 H   0  0  0  0  0  0  0  0  0  0  0  0
    1.3955    0.4132   -1.0363 H   0  0  0  0  0  0  0  0  0  0  0  0
    5.7145    0.5557   -0.1708 H   0  0  0  0  0  0  0  0  0  0  0  0
    4.6170   -0.8470   -0.6313 H   0  0  0  0  0  0  0  0  0  0  0  0
  1  2  1  0
  2  3  1  0
  2  4  1  0
  4  5  1  0
  5  6  1  0
  6  7  1  0
  7  8  1  0
  8  9  1  0
  6  2  1  0
  9  7  1  0
  7  4  1  0
  1 10  1  0
  1 11  1  0
  1 12  1  0
  3 13  1  0
  3 14  1  0
  3 15  1  0
  4 16  1  0
  6 17  1  0
  8 18  1  0
  8 19  1  0
M  END
$$$$
