
     RDKit          3D

 19 19  0  0  0  0  0  0  0  0999 V2000
   -0.1278   -0.0230   -0.0483 C   0  0  0  0  0  0  0  0  0  0  0  0
    1.4031   -0.0122    0.1426 C   0  0  0  0  0  0  0  0  0  0  0  0
    1.9420   -1.3427    0.7337 C   0  0  0  0  0  0  0  0  0  0  0  0
    1.9760   -2.4384   -0.3332 C   0  0  0  0  0  0  0  0  0  0  0  0
    2.6826   -1.9852   -1.4788 O   0  0  0  0  0  0  0  0  0  0  0  0
    2.0797   -0.8345   -2.0025 C   0  0  0  0  0  0  0  0  0  0  0  0
    2.0780    0.2488   -1.1058 O   0  0  0  0  0  0  0  0  0  0  0  0
    1.7605    1.0975    1.0313 C   0  0  0  0  0  0  0  0  0  0  0  0
    2.0287    1.9862    1.7934 C   0  0  0  0  0  0  0  0  0  0  0  0
   -0.6231   -0.0861    0.9241 H   0  0  0  0  0  0  0  0  0  0  0  0
   -0.4395    0.9013   -0.5395 H   0  0  0  0  0  0  0  0  0  0  0  0
   -0.4592   -0.8696   -0.6541 H   0  0  0  0  0  0  0  0  0  0  0  0
    2.9609   -1.1680    1.0891 H   0  0  0  0  0  0  0  0  0  0  0  0
    1.3313   -1.6476    1.5894 H   0  0  0  0  0  0  0  0  0  0  0  0
    2.5044   -3.3218    0.0345 H   0  0  0  0  0  0  0  0  0  0  0  0
    0.9582   -2.7513   -0.6189 H   0  0  0  0  0  0  0  0  0  0  0  0
    2.6786   -0.5156   -2.8579 H   0  0  0  0  0  0  0  0  0  0  0  0
    1.0520   -1.0708   -2.3334 H   0  0  0  0  0  0  0  0  0  0  0  0
    2.2747    2.7782    2.4569 H   0  0  0  0  0  0  0  0  0  0  0  0
  1  2  1  0
  2  3  1  0
  3  4  1  0
  4  5  1  0
  5  6  1  0
  6  7  1  0
  2  8  1  0
  8  9  3  0
  7  2  1  0
  1 10  1  0
  1 11  1  0
  1 12  1  0
  3 13  1  0
  3 14  1  0
  4 15  1  0
  4 16  1  0
  6 17  1  0
  6 18  1  0
  9 19  1  0
M  END
$$$$
