gdb 3265	2.5403712	1.9433746	1.4419487	2.0137	74.16	-0.23702	0.06951	0.30653	959.826	0.157754	-422.528976	-422.521401	-422.520457	-422.560358	30.742
 OpenBabel02181911413D

 19 21  0  0  1  0  0  0  0  0999 V2000
    0.8713    2.8844    2.4385 C   0  0  0  0  0  0  0  0  0  0  0  0
   -0.5280    2.3973    2.2292 C   0  0  1  0  0  0  0  0  0  0  0  0
   -1.5484    3.0525    3.0025 O   0  0  0  0  0  0  0  0  0  0  0  0
   -2.3902    1.9374    2.5960 C   0  0  1  0  0  0  0  0  0  0  0  0
   -2.6160    2.2735    1.1049 C   0  0  0  0  0  0  0  0  0  0  0  0
   -1.1264    2.1122    0.7518 C   0  0  2  0  0  0  0  0  0  0  0  0
   -0.9220    0.6054    1.0237 C   0  0  1  0  0  0  0  0  0  0  0  0
    0.4103    0.2194    0.7380 O   0  0  0  0  0  0  0  0  0  0  0  0
   -1.1346    0.9921    2.5008 C   0  0  1  0  0  0  0  0  0  0  0  0
    1.1437    2.8355    3.4974 H   0  0  0  0  0  0  0  0  0  0  0  0
    1.5658    2.2719    1.8600 H   0  0  0  0  0  0  0  0  0  0  0  0
    0.9628    3.9260    2.1110 H   0  0  0  0  0  0  0  0  0  0  0  0
   -3.2366    1.7579    3.2573 H   0  0  0  0  0  0  0  0  0  0  0  0
   -3.2613    1.5743    0.5648 H   0  0  0  0  0  0  0  0  0  0  0  0
   -3.0015    3.2889    0.9995 H   0  0  0  0  0  0  0  0  0  0  0  0
   -0.7274    2.5750   -0.1488 H   0  0  0  0  0  0  0  0  0  0  0  0
   -1.6412   -0.0786    0.5522 H   0  0  0  0  0  0  0  0  0  0  0  0
    0.5821   -0.6156    1.1853 H   0  0  0  0  0  0  0  0  0  0  0  0
   -0.8751    0.3642    3.3535 H   0  0  0  0  0  0  0  0  0  0  0  0
  1 10  1  0  0  0  0
  2  1  1  1  0  0  0
  2  9  1  0  0  0  0
  2  3  1  0  0  0  0
  4  3  1  0  0  0  0
  4 13  1  1  0  0  0
  5  4  1  0  0  0  0
  6 16  1  6  0  0  0
  6  7  1  0  0  0  0
  6  5  1  0  0  0  0
  6  2  1  0  0  0  0
  7 17  1  6  0  0  0
  7  9  1  0  0  0  0
  8  7  1  0  0  0  0
  8 18  1  0  0  0  0
  9  4  1  0  0  0  0
  9 19  1  1  0  0  0
 11  1  1  0  0  0  0
 12  1  1  0  0  0  0
 14  5  1  0  0  0  0
 15  5  1  0  0  0  0
M TOR 0 0 1 2 3
M TOR 1 0 1 5 4
M TOR 2 0 1 5 6
M TOR 3 0 1 5 15
M TOR 4 0 1 8 3
M TOR 5 0 1 8 6
M TOR 6 0 1 8 18
M TOR 7 1 2 3 4
M TOR 8 1 2 3 8
M TOR 9 1 2 3 12
M TOR 10 1 5 4 3
M TOR 11 1 5 4 13
M TOR 12 1 5 4 14
M TOR 13 1 5 6 7
M TOR 14 1 5 6 8
M TOR 15 1 5 6 16
M TOR 16 1 8 3 4
M TOR 17 1 8 3 12
M TOR 18 1 8 6 7
M TOR 19 1 8 6 16
M TOR 20 2 1 0 9
M TOR 21 2 1 0 10
M TOR 22 2 1 0 11
M TOR 23 2 1 5 4
M TOR 24 2 1 5 6
M TOR 25 2 1 5 15
M TOR 26 2 1 8 6
M TOR 27 2 1 8 18
M TOR 28 2 3 4 5
M TOR 29 2 3 4 13
M TOR 30 2 3 4 14
M TOR 31 2 3 8 6
M TOR 32 2 3 8 18
M TOR 33 3 2 1 5
M TOR 34 3 4 5 6
M TOR 35 3 4 5 15
M TOR 36 3 8 1 5
M TOR 37 3 8 6 5
M TOR 38 3 8 6 7
M TOR 39 3 8 6 16
M TOR 40 4 3 8 6
M TOR 41 4 3 8 18
M TOR 42 4 5 1 8
M TOR 43 4 5 6 7
M TOR 44 4 5 6 8
M TOR 45 4 5 6 16
M TOR 46 5 1 0 9
M TOR 47 5 1 0 10
M TOR 48 5 1 0 11
M TOR 49 5 1 8 18
M TOR 50 5 4 3 8
M TOR 51 5 4 3 12
M TOR 52 5 6 7 17
M TOR 53 5 6 8 18
M TOR 54 6 5 4 13
M TOR 55 6 5 4 14
M TOR 56 6 8 3 12
M TOR 57 7 6 5 15
M TOR 58 7 6 8 18
M TOR 59 8 1 0 9
M TOR 60 8 1 0 10
M TOR 61 8 1 0 11
M TOR 62 8 1 5 15
M TOR 63 8 3 4 13
M TOR 64 8 3 4 14
M TOR 65 8 6 5 15
M TOR 66 8 6 7 17
M  END
$$$$
