
     RDKit          3D

 19 20  0  0  0  0  0  0  0  0999 V2000
    1.5395   -0.3734   -0.2591 O   0  0  0  0  0  0  0  0  0  0  0  0
    0.3790   -0.0923   -0.1062 C   0  0  0  0  0  0  0  0  0  0  0  0
   -0.4379    0.7688   -1.0438 C   0  0  0  0  0  0  0  0  0  0  0  0
   -1.1802    1.9023   -0.2834 C   0  0  0  0  0  0  0  0  0  0  0  0
   -2.6405    1.7397   -0.7421 C   0  0  0  0  0  0  0  0  0  0  0  0
   -2.7841    0.3487   -0.9951 O   0  0  0  0  0  0  0  0  0  0  0  0
   -1.6022   -0.0462   -1.6434 C   0  0  0  0  0  0  0  0  0  0  0  0
   -1.6700   -0.3705   -3.1145 C   0  0  0  0  0  0  0  0  0  0  0  0
   -1.5213   -1.4727   -2.0804 C   0  0  0  0  0  0  0  0  0  0  0  0
   -0.2014   -0.4806    0.7637 H   0  0  0  0  0  0  0  0  0  0  0  0
    0.2264    1.1481   -1.8226 H   0  0  0  0  0  0  0  0  0  0  0  0
   -1.1100    1.7441    0.7983 H   0  0  0  0  0  0  0  0  0  0  0  0
   -0.7673    2.8886   -0.5033 H   0  0  0  0  0  0  0  0  0  0  0  0
   -3.3771    2.0226    0.0131 H   0  0  0  0  0  0  0  0  0  0  0  0
   -2.8291    2.3222   -1.6568 H   0  0  0  0  0  0  0  0  0  0  0  0
   -2.6398   -0.2643   -3.5876 H   0  0  0  0  0  0  0  0  0  0  0  0
   -0.8185   -0.1345   -3.7442 H   0  0  0  0  0  0  0  0  0  0  0  0
   -2.3876   -2.0926   -1.8794 H   0  0  0  0  0  0  0  0  0  0  0  0
   -0.5672   -1.9832   -2.0038 H   0  0  0  0  0  0  0  0  0  0  0  0
  1  2  2  0
  2  3  1  0
  3  4  1  0
  4  5  1  0
  5  6  1  0
  6  7  1  0
  7  8  1  0
  8  9  1  0
  7  3  1  0
  9  7  1  0
  2 10  1  0
  3 11  1  0
  4 12  1  0
  4 13  1  0
  5 14  1  0
  5 15  1  0
  8 16  1  0
  8 17  1  0
  9 18  1  0
  9 19  1  0
M  END
$$$$
