gdb 3076	3.3509285	1.4300498	1.3223797	1.1924	73.95	-0.23977	0.08301	0.32278	1041.5081	0.157414	-422.509195	-422.501494	-422.50055	-422.540686	31.397
 OpenBabel02181911413D

 19 21  0  0  1  0  0  0  0  0999 V2000
    0.0411   -0.1006   -0.0552 C   0  0  0  0  0  0  0  0  0  0  0  0
    1.5616   -0.0441    0.0063 C   0  0  1  0  0  0  0  0  0  0  0  0
    2.1585    1.3240    0.4263 C   0  0  1  0  0  0  0  0  0  0  0  0
    1.7840    0.9901    1.8219 O   0  0  0  0  0  0  0  0  0  0  0  0
    2.1793   -0.3662    1.3911 C   0  0  2  0  0  0  0  0  0  0  0  0
    3.7053   -0.1773    1.2488 C   0  0  1  0  0  0  0  0  0  0  0  0
    4.5046   -0.4252    2.3551 O   0  0  0  0  0  0  0  0  0  0  0  0
    4.3336   -0.1238   -0.1030 C   0  0  0  0  0  0  0  0  0  0  0  0
    3.6833    1.1310    0.4665 C   0  0  1  0  0  0  0  0  0  0  0  0
   -0.4030    0.3847    0.8161 H   0  0  0  0  0  0  0  0  0  0  0  0
   -0.3262    0.4005   -0.9574 H   0  0  0  0  0  0  0  0  0  0  0  0
   -0.3065   -1.1387   -0.0911 H   0  0  0  0  0  0  0  0  0  0  0  0
    1.9911   -0.5363   -0.8678 H   0  0  0  0  0  0  0  0  0  0  0  0
    1.7571    2.2798    0.0882 H   0  0  0  0  0  0  0  0  0  0  0  0
    1.8258   -1.1630    2.0468 H   0  0  0  0  0  0  0  0  0  0  0  0
    4.1686    0.1247    3.0738 H   0  0  0  0  0  0  0  0  0  0  0  0
    5.4190   -0.1000   -0.0787 H   0  0  0  0  0  0  0  0  0  0  0  0
    3.9300   -0.6540   -0.9574 H   0  0  0  0  0  0  0  0  0  0  0  0
    4.3139    1.9666    0.7448 H   0  0  0  0  0  0  0  0  0  0  0  0
  1  2  1  0  0  0  0
  1 10  1  0  0  0  0
  2 13  1  6  0  0  0
  2  3  1  0  0  0  0
  2  5  1  0  0  0  0
  3 14  1  6  0  0  0
  3  9  1  0  0  0  0
  3  4  1  0  0  0  0
  5  4  1  0  0  0  0
  5 15  1  1  0  0  0
  6  5  1  0  0  0  0
  6  7  1  1  0  0  0
  7 16  1  0  0  0  0
  8 17  1  0  0  0  0
  8  9  1  0  0  0  0
  8  6  1  0  0  0  0
  9 19  1  1  0  0  0
  9  6  1  0  0  0  0
 11  1  1  0  0  0  0
 12  1  1  0  0  0  0
 18  8  1  0  0  0  0
M TOR 0 0 1 2 3
M TOR 1 0 1 2 8
M TOR 2 0 1 2 13
M TOR 3 0 1 4 3
M TOR 4 0 1 4 5
M TOR 5 0 1 4 14
M TOR 6 1 2 3 4
M TOR 7 1 2 8 5
M TOR 8 1 2 8 7
M TOR 9 1 2 8 18
M TOR 10 1 4 5 6
M TOR 11 1 4 5 7
M TOR 12 1 4 5 8
M TOR 13 2 1 0 9
M TOR 14 2 1 0 10
M TOR 15 2 1 0 11
M TOR 16 2 1 4 5
M TOR 17 2 1 4 14
M TOR 18 2 3 4 5
M TOR 19 2 3 4 14
M TOR 20 2 8 5 4
M TOR 21 2 8 5 6
M TOR 22 2 8 5 7
M TOR 23 2 8 7 16
M TOR 24 2 8 7 17
M TOR 25 3 2 1 12
M TOR 26 3 2 8 5
M TOR 27 3 2 8 7
M TOR 28 3 2 8 18
M TOR 29 3 4 1 12
M TOR 30 3 4 5 6
M TOR 31 3 4 5 7
M TOR 32 3 4 5 8
M TOR 33 4 1 0 9
M TOR 34 4 1 0 10
M TOR 35 4 1 0 11
M TOR 36 4 1 2 8
M TOR 37 4 1 2 13
M TOR 38 4 3 2 8
M TOR 39 4 3 2 13
M TOR 40 4 5 6 15
M TOR 41 4 5 7 8
M TOR 42 4 5 7 16
M TOR 43 4 5 7 17
M TOR 44 4 5 8 18
M TOR 45 5 4 1 12
M TOR 46 5 7 8 18
M TOR 47 5 8 2 13
M TOR 48 5 8 7 16
M TOR 49 5 8 7 17
M TOR 50 6 5 4 14
M TOR 51 6 5 7 8
M TOR 52 6 5 7 16
M TOR 53 6 5 7 17
M TOR 54 6 5 8 18
M TOR 55 7 5 4 14
M TOR 56 7 5 6 15
M TOR 57 7 8 2 13
M TOR 58 8 2 1 12
M TOR 59 8 5 4 14
M TOR 60 8 5 6 15
M  END
$$$$
