
     RDKit          3D

 19 19  0  0  0  0  0  0  0  0999 V2000
   -1.2399   -1.0624   -2.5374 C   0  0  0  0  0  0  0  0  0  0  0  0
   -1.8227   -1.1688   -1.1221 C   0  0  0  0  0  0  0  0  0  0  0  0
   -2.5484   -2.4987   -0.9329 C   0  0  0  0  0  0  0  0  0  0  0  0
   -2.7475    0.0180   -0.7985 C   0  0  0  0  0  0  0  0  0  0  0  0
   -1.9678    1.2661   -0.5085 C   0  0  0  0  0  0  0  0  0  0  0  0
   -0.7075    1.1992   -0.0788 C   0  0  0  0  0  0  0  0  0  0  0  0
   -0.0490   -0.0978    0.1931 C   0  0  0  0  0  0  0  0  0  0  0  0
    1.0042   -0.1941    0.7707 O   0  0  0  0  0  0  0  0  0  0  0  0
   -0.7129   -1.2224   -0.1796 O   0  0  0  0  0  0  0  0  0  0  0  0
   -0.5098   -1.8599   -2.6968 H   0  0  0  0  0  0  0  0  0  0  0  0
   -2.0324   -1.1634   -3.2856 H   0  0  0  0  0  0  0  0  0  0  0  0
   -0.7414   -0.1024   -2.6937 H   0  0  0  0  0  0  0  0  0  0  0  0
   -2.8929   -2.6030    0.0995 H   0  0  0  0  0  0  0  0  0  0  0  0
   -3.4146   -2.5588   -1.5989 H   0  0  0  0  0  0  0  0  0  0  0  0
   -1.8788   -3.3330   -1.1570 H   0  0  0  0  0  0  0  0  0  0  0  0
   -3.4329    0.1778   -1.6383 H   0  0  0  0  0  0  0  0  0  0  0  0
   -3.3808   -0.2213    0.0676 H   0  0  0  0  0  0  0  0  0  0  0  0
   -2.4629    2.2258   -0.6316 H   0  0  0  0  0  0  0  0  0  0  0  0
   -0.1146    2.0726    0.1641 H   0  0  0  0  0  0  0  0  0  0  0  0
  1  2  1  0
  2  3  1  0
  2  4  1  0
  4  5  1  0
  5  6  2  0
  6  7  1  0
  7  8  2  0
  7  9  1  0
  9  2  1  0
  1 10  1  0
  1 11  1  0
  1 12  1  0
  3 13  1  0
  3 14  1  0
  3 15  1  0
  4 16  1  0
  4 17  1  0
  5 18  1  0
  6 19  1  0
M  END
$$$$
