gdb 5087	4.1623881	0.9166014	0.8492153	3.4722	77.54	-0.24394	-0.02189	0.22205	1392.3353	0.154975	-422.519339	-422.510205	-422.509261	-422.55386	32.914
 OpenBabel02181911423D

 19 20  0  0  1  0  0  0  0  0999 V2000
    1.5096   -0.1859    0.1437 C   0  0  0  0  0  0  0  0  0  0  0  0
    0.1079    0.0063    0.0282 O   0  0  0  0  0  0  0  0  0  0  0  0
   -0.4310    0.7504    1.0510 C   0  0  2  0  0  0  0  0  0  0  0  0
   -0.6934    0.1783    2.4158 C   0  0  0  0  0  0  0  0  0  0  0  0
   -1.8518    0.6868    1.5819 C   0  0  1  0  0  0  0  0  0  0  0  0
   -1.9127    2.2245    1.6758 C   0  0  1  0  0  0  0  0  0  0  0  0
   -0.4506    2.2831    1.0866 C   0  0  0  0  0  0  0  0  0  0  0  0
   -2.9177    2.8464    0.7446 C   0  0  0  0  0  0  0  0  0  0  0  0
   -3.7282    3.6796    1.0587 O   0  0  0  0  0  0  0  0  0  0  0  0
    1.7668   -0.7000    1.0798 H   0  0  0  0  0  0  0  0  0  0  0  0
    1.8163   -0.8028   -0.7035 H   0  0  0  0  0  0  0  0  0  0  0  0
    2.0549    0.7674    0.1054 H   0  0  0  0  0  0  0  0  0  0  0  0
   -0.6271   -0.9042    2.4585 H   0  0  0  0  0  0  0  0  0  0  0  0
   -0.3959    0.6927    3.3270 H   0  0  0  0  0  0  0  0  0  0  0  0
   -2.6726    0.0410    1.2957 H   0  0  0  0  0  0  0  0  0  0  0  0
   -2.0470    2.6368    2.6791 H   0  0  0  0  0  0  0  0  0  0  0  0
   -0.4399    2.7110    0.0799 H   0  0  0  0  0  0  0  0  0  0  0  0
    0.2977    2.7907    1.7017 H   0  0  0  0  0  0  0  0  0  0  0  0
   -2.8546    2.4702   -0.3045 H   0  0  0  0  0  0  0  0  0  0  0  0
  1 10  1  0  0  0  0
  2  1  1  0  0  0  0
  3  2  1  6  0  0  0
  3  7  1  0  0  0  0
  3  5  1  0  0  0  0
  3  4  1  0  0  0  0
  4 13  1  0  0  0  0
  4 14  1  0  0  0  0
  5 15  1  6  0  0  0
  5  6  1  0  0  0  0
  5  4  1  0  0  0  0
  6 16  1  1  0  0  0
  7  6  1  0  0  0  0
  7 18  1  0  0  0  0
  8  9  2  0  0  0  0
  8  6  1  0  0  0  0
 11  1  1  0  0  0  0
 12  1  1  0  0  0  0
 17  7  1  0  0  0  0
 19  8  1  0  0  0  0
M TOR 0 0 1 2 3
M TOR 1 0 1 2 4
M TOR 2 0 1 2 6
M TOR 3 1 2 3 4
M TOR 4 1 2 3 12
M TOR 5 1 2 3 13
M TOR 6 1 2 4 5
M TOR 7 1 2 4 14
M TOR 8 1 2 6 5
M TOR 9 1 2 6 16
M TOR 10 1 2 6 17
M TOR 11 2 1 0 9
M TOR 12 2 1 0 10
M TOR 13 2 1 0 11
M TOR 14 2 3 4 5
M TOR 15 2 3 4 14
M TOR 16 2 4 3 12
M TOR 17 2 4 3 13
M TOR 18 2 4 5 6
M TOR 19 2 4 5 7
M TOR 20 2 4 5 15
M TOR 21 2 6 5 7
M TOR 22 2 6 5 15
M TOR 23 3 2 6 5
M TOR 24 3 2 6 16
M TOR 25 3 2 6 17
M TOR 26 3 4 2 6
M TOR 27 3 4 5 6
M TOR 28 3 4 5 7
M TOR 29 3 4 5 15
M TOR 30 4 2 6 16
M TOR 31 4 2 6 17
M TOR 32 4 5 6 16
M TOR 33 4 5 6 17
M TOR 34 4 5 7 8
M TOR 35 4 5 7 18
M TOR 36 5 4 3 12
M TOR 37 5 4 3 13
M TOR 38 6 2 3 12
M TOR 39 6 2 3 13
M TOR 40 6 2 4 14
M TOR 41 6 5 4 14
M TOR 42 6 5 7 8
M TOR 43 6 5 7 18
M TOR 44 7 5 4 14
M TOR 45 7 5 6 16
M TOR 46 7 5 6 17
M TOR 47 8 7 5 15
M  END
$$$$
