
     RDKit          3D

 19 20  0  0  0  0  0  0  0  0999 V2000
   -0.1084   -2.5992   -0.1652 C   0  0  0  0  0  0  0  0  0  0  0  0
   -0.6539   -1.2279    0.0502 C   0  0  0  0  0  0  0  0  0  0  0  0
   -0.1273   -0.0180   -0.1870 C   0  0  0  0  0  0  0  0  0  0  0  0
    1.1876    0.3986   -0.7508 C   0  0  0  0  0  0  0  0  0  0  0  0
   -1.2843    0.9447    0.0867 C   0  0  0  0  0  0  0  0  0  0  0  0
   -2.1974    0.8308   -1.0363 O   0  0  0  0  0  0  0  0  0  0  0  0
   -2.8247   -0.4393   -0.8246 C   0  0  0  0  0  0  0  0  0  0  0  0
   -2.0961   -0.9394    0.4640 C   0  0  0  0  0  0  0  0  0  0  0  0
   -1.9793    0.3250    1.1422 O   0  0  0  0  0  0  0  0  0  0  0  0
   -0.1439   -3.1928    0.7571 H   0  0  0  0  0  0  0  0  0  0  0  0
   -0.6921   -3.1506   -0.9142 H   0  0  0  0  0  0  0  0  0  0  0  0
    0.9289   -2.5735   -0.5096 H   0  0  0  0  0  0  0  0  0  0  0  0
    1.7088    1.0956   -0.0825 H   0  0  0  0  0  0  0  0  0  0  0  0
    1.8471   -0.4557   -0.9258 H   0  0  0  0  0  0  0  0  0  0  0  0
    1.0517    0.9197   -1.7070 H   0  0  0  0  0  0  0  0  0  0  0  0
   -1.0812    1.9971    0.2792 H   0  0  0  0  0  0  0  0  0  0  0  0
   -3.8959   -0.2959   -0.6469 H   0  0  0  0  0  0  0  0  0  0  0  0
   -2.6760   -1.0958   -1.6884 H   0  0  0  0  0  0  0  0  0  0  0  0
   -2.6232   -1.6742    1.0707 H   0  0  0  0  0  0  0  0  0  0  0  0
  1  2  1  0
  2  3  2  0
  3  4  1  0
  3  5  1  0
  5  6  1  0
  6  7  1  0
  7  8  1  0
  8  9  1  0
  8  2  1  0
  9  5  1  0
  1 10  1  0
  1 11  1  0
  1 12  1  0
  4 13  1  0
  4 14  1  0
  4 15  1  0
  5 16  1  0
  7 17  1  0
  7 18  1  0
  8 19  1  0
M  END
$$$$
