gdb 311	2.6826226	1.8981478	1.3917303	0.813	74.08	-0.23674	0.08283	0.31957	970.6714	0.159361	-422.548197	-422.540859	-422.539914	-422.580119	28.768
 OpenBabel02181911403D

 19 21  0  0  1  0  0  0  0  0999 V2000
    0.6139    1.6866   -0.0523 C   0  0  0  0  0  0  0  0  0  0  0  0
    0.2642    0.2169    0.1658 C   0  0  2  0  0  0  0  0  0  0  0  0
    1.1569   -0.6511    1.0233 C   0  0  0  0  0  0  0  0  0  0  0  0
    2.4871   -0.5403    0.4947 O   0  0  0  0  0  0  0  0  0  0  0  0
    2.4743    0.0310   -0.8057 C   0  0  1  0  0  0  0  0  0  0  0  0
    2.5418   -0.9432   -2.0156 C   0  0  0  0  0  0  0  0  0  0  0  0
    1.2057   -0.7081   -2.7614 C   0  0  0  0  0  0  0  0  0  0  0  0
    0.7356    0.5815   -2.3398 O   0  0  0  0  0  0  0  0  0  0  0  0
    1.1082    0.6674   -1.0072 C   0  0  2  0  0  0  0  0  0  0  0  0
   -0.2058    2.3181   -0.3774 H   0  0  0  0  0  0  0  0  0  0  0  0
    1.3325    2.1713    0.6034 H   0  0  0  0  0  0  0  0  0  0  0  0
   -0.7677   -0.0765    0.0153 H   0  0  0  0  0  0  0  0  0  0  0  0
    1.2061   -0.3559    2.0785 H   0  0  0  0  0  0  0  0  0  0  0  0
    0.8105   -1.6949    0.9818 H   0  0  0  0  0  0  0  0  0  0  0  0
    3.3044    0.7444   -0.8370 H   0  0  0  0  0  0  0  0  0  0  0  0
    3.3948   -0.7003   -2.6535 H   0  0  0  0  0  0  0  0  0  0  0  0
    2.6570   -1.9747   -1.6760 H   0  0  0  0  0  0  0  0  0  0  0  0
    1.3011   -0.6842   -3.8488 H   0  0  0  0  0  0  0  0  0  0  0  0
    0.4657   -1.4750   -2.4914 H   0  0  0  0  0  0  0  0  0  0  0  0
  1  2  1  0  0  0  0
  1 11  1  0  0  0  0
  2 12  1  6  0  0  0
  2  3  1  0  0  0  0
  3 13  1  0  0  0  0
  4  3  1  0  0  0  0
  5 15  1  6  0  0  0
  5  4  1  0  0  0  0
  6 17  1  0  0  0  0
  6  5  1  0  0  0  0
  7 19  1  0  0  0  0
  7  8  1  0  0  0  0
  7  6  1  0  0  0  0
  9  8  1  6  0  0  0
  9  5  1  0  0  0  0
  9  1  1  0  0  0  0
  9  2  1  0  0  0  0
 10  1  1  0  0  0  0
 14  3  1  0  0  0  0
 16  6  1  0  0  0  0
 18  7  1  0  0  0  0
M TOR 0 0 1 2 3
M TOR 1 0 1 2 12
M TOR 2 0 1 2 13
M TOR 3 0 1 8 4
M TOR 4 0 1 8 7
M TOR 5 0 8 1 2
M TOR 6 0 8 1 11
M TOR 7 0 8 4 3
M TOR 8 0 8 4 5
M TOR 9 0 8 4 14
M TOR 10 0 8 7 6
M TOR 11 1 2 3 4
M TOR 12 1 8 0 9
M TOR 13 1 8 0 10
M TOR 14 1 8 4 3
M TOR 15 1 8 4 5
M TOR 16 1 8 4 14
M TOR 17 1 8 7 6
M TOR 18 2 1 0 9
M TOR 19 2 1 0 10
M TOR 20 2 1 8 4
M TOR 21 2 1 8 7
M TOR 22 2 3 4 5
M TOR 23 2 3 4 8
M TOR 24 2 3 4 14
M TOR 25 3 2 1 8
M TOR 26 3 2 1 11
M TOR 27 3 4 5 6
M TOR 28 3 4 5 15
M TOR 29 3 4 5 16
M TOR 30 3 4 8 7
M TOR 31 4 3 2 12
M TOR 32 4 3 2 13
M TOR 33 4 5 6 7
M TOR 34 4 5 6 17
M TOR 35 4 5 6 18
M TOR 36 4 8 0 9
M TOR 37 4 8 0 10
M TOR 38 4 8 1 11
M TOR 39 4 8 7 6
M TOR 40 5 4 8 7
M TOR 41 5 6 7 8
M TOR 42 6 5 4 8
M TOR 43 6 5 4 14
M TOR 44 7 6 5 15
M TOR 45 7 6 5 16
M TOR 46 7 8 0 9
M TOR 47 7 8 0 10
M TOR 48 7 8 1 11
M TOR 49 7 8 4 14
M TOR 50 8 1 2 12
M TOR 51 8 1 2 13
M TOR 52 8 4 5 15
M TOR 53 8 4 5 16
M TOR 54 8 7 6 17
M TOR 55 8 7 6 18
M  END
$$$$
