
     RDKit          3D

 19 20  0  0  0  0  0  0  0  0999 V2000
    1.7208   -0.9126   -1.0208 C   0  0  0  0  0  0  0  0  0  0  0  0
    1.4585    0.1326    0.0444 C   0  0  0  0  0  0  0  0  0  0  0  0
    1.8909   -0.3212    1.3605 O   0  0  0  0  0  0  0  0  0  0  0  0
    2.8396    0.7491    1.4871 C   0  0  0  0  0  0  0  0  0  0  0  0
    2.3001    2.0198    2.1862 C   0  0  0  0  0  0  0  0  0  0  0  0
    1.8607    2.6002    0.8073 C   0  0  0  0  0  0  0  0  0  0  0  0
    2.4154    1.3430    0.0923 C   0  0  0  0  0  0  0  0  0  0  0  0
    4.2287    0.2732    1.7925 C   0  0  0  0  0  0  0  0  0  0  0  0
    5.1089    0.9861    2.2069 O   0  0  0  0  0  0  0  0  0  0  0  0
    1.1697   -1.8303   -0.7940 H   0  0  0  0  0  0  0  0  0  0  0  0
    1.3960   -0.5481   -2.0015 H   0  0  0  0  0  0  0  0  0  0  0  0
    2.7863   -1.1579   -1.0753 H   0  0  0  0  0  0  0  0  0  0  0  0
    0.3943    0.4044    0.0614 H   0  0  0  0  0  0  0  0  0  0  0  0
    1.5088    1.8135    2.9089 H   0  0  0  0  0  0  0  0  0  0  0  0
    3.1015    2.5855    2.6653 H   0  0  0  0  0  0  0  0  0  0  0  0
    0.7880    2.7633    0.6725 H   0  0  0  0  0  0  0  0  0  0  0  0
    2.3848    3.5191    0.5381 H   0  0  0  0  0  0  0  0  0  0  0  0
    3.0985    1.4732   -0.7468 H   0  0  0  0  0  0  0  0  0  0  0  0
    4.3904   -0.8063    1.5755 H   0  0  0  0  0  0  0  0  0  0  0  0
  1  2  1  0
  2  3  1  0
  3  4  1  0
  4  5  1  0
  5  6  1  0
  6  7  1  0
  4  8  1  0
  8  9  2  0
  7  2  1  0
  7  4  1  0
  1 10  1  0
  1 11  1  0
  1 12  1  0
  2 13  1  0
  5 14  1  0
  5 15  1  0
  6 16  1  0
  6 17  1  0
  7 18  1  0
  8 19  1  0
M  END
$$$$
