
     RDKit          3D

 19 21  0  0  0  0  0  0  0  0999 V2000
    2.8809   -1.3934   -0.8633 C   0  0  0  0  0  0  0  0  0  0  0  0
    2.9046   -1.1768    0.6353 C   0  0  0  0  0  0  0  0  0  0  0  0
    3.5750    0.0631    1.1612 C   0  0  0  0  0  0  0  0  0  0  0  0
    2.0456   -0.0815    1.2063 C   0  0  0  0  0  0  0  0  0  0  0  0
    2.0780   -0.1643    2.7365 C   0  0  0  0  0  0  0  0  0  0  0  0
    1.6433    0.9910    3.4252 O   0  0  0  0  0  0  0  0  0  0  0  0
    2.6900    1.9325    3.3389 C   0  0  0  0  0  0  0  0  0  0  0  0
    3.8979    1.2043    3.3588 O   0  0  0  0  0  0  0  0  0  0  0  0
    3.6479   -0.0158    2.6902 C   0  0  0  0  0  0  0  0  0  0  0  0
    2.0434   -2.0351   -1.1565 H   0  0  0  0  0  0  0  0  0  0  0  0
    2.7752   -0.4429   -1.3966 H   0  0  0  0  0  0  0  0  0  0  0  0
    3.8052   -1.8684   -1.2085 H   0  0  0  0  0  0  0  0  0  0  0  0
    3.0085   -2.0950    1.2162 H   0  0  0  0  0  0  0  0  0  0  0  0
    4.1947    0.6950    0.5359 H   0  0  0  0  0  0  0  0  0  0  0  0
    1.2832    0.4198    0.6216 H   0  0  0  0  0  0  0  0  0  0  0  0
    1.6102   -1.0327    3.2070 H   0  0  0  0  0  0  0  0  0  0  0  0
    2.6067    2.5243    2.4121 H   0  0  0  0  0  0  0  0  0  0  0  0
    2.6536    2.5889    4.2125 H   0  0  0  0  0  0  0  0  0  0  0  0
    4.2968   -0.7784    3.1279 H   0  0  0  0  0  0  0  0  0  0  0  0
  1  2  1  0
  2  3  1  0
  3  4  1  0
  4  5  1  0
  5  6  1  0
  6  7  1  0
  7  8  1  0
  8  9  1  0
  4  2  1  0
  9  5  1  0
  9  3  1  0
  1 10  1  0
  1 11  1  0
  1 12  1  0
  2 13  1  0
  3 14  1  0
  4 15  1  0
  5 16  1  0
  7 17  1  0
  7 18  1  0
  9 19  1  0
M  END
$$$$
