gdb 2462	2.7835601	1.7986257	1.438119	0.5766	73.13	-0.2234	0.07632	0.29972	960.3302	0.159331	-422.558402	-422.551122	-422.550178	-422.589664	29.607
 OpenBabel02181911413D

 19 21  0  0  1  0  0  0  0  0999 V2000
    0.3552    0.1715    0.5385 O   0  0  0  0  0  0  0  0  0  0  0  0
   -0.8665    0.7379    0.9068 C   0  0  2  0  0  0  0  0  0  0  0  0
   -0.9716    2.2525    1.1018 C   0  0  0  0  0  0  0  0  0  0  0  0
   -2.2847    2.6514    0.3847 C   0  0  0  0  0  0  0  0  0  0  0  0
   -3.1453    1.3646    0.3412 C   0  0  2  0  0  0  0  0  0  0  0  0
   -3.8094    1.0576    1.6955 C   0  0  0  0  0  0  0  0  0  0  0  0
   -2.7725    0.5104    2.5214 O   0  0  0  0  0  0  0  0  0  0  0  0
   -1.8520   -0.1272    1.6696 C   0  0  1  0  0  0  0  0  0  0  0  0
   -2.1178    0.2208    0.2303 C   0  0  2  0  0  0  0  0  0  0  0  0
    0.9107    0.1250    1.3246 H   0  0  0  0  0  0  0  0  0  0  0  0
   -0.9998    2.5138    2.1646 H   0  0  0  0  0  0  0  0  0  0  0  0
   -0.0971    2.7333    0.6561 H   0  0  0  0  0  0  0  0  0  0  0  0
   -2.8035    3.4851    0.8689 H   0  0  0  0  0  0  0  0  0  0  0  0
   -2.0593    2.9589   -0.6417 H   0  0  0  0  0  0  0  0  0  0  0  0
   -3.8757    1.3767   -0.4707 H   0  0  0  0  0  0  0  0  0  0  0  0
   -4.2083    1.9422    2.2012 H   0  0  0  0  0  0  0  0  0  0  0  0
   -4.6211    0.3242    1.5757 H   0  0  0  0  0  0  0  0  0  0  0  0
   -1.5504   -1.1228    1.9810 H   0  0  0  0  0  0  0  0  0  0  0  0
   -2.1056   -0.5021   -0.5748 H   0  0  0  0  0  0  0  0  0  0  0  0
  1 10  1  0  0  0  0
  2  1  1  6  0  0  0
  2  3  1  0  0  0  0
  2  8  1  0  0  0  0
  3 11  1  0  0  0  0
  4 13  1  0  0  0  0
  4  3  1  0  0  0  0
  5 15  1  6  0  0  0
  5  4  1  0  0  0  0
  5  6  1  0  0  0  0
  6 16  1  0  0  0  0
  6  7  1  0  0  0  0
  8 18  1  1  0  0  0
  8  7  1  0  0  0  0
  9 19  1  6  0  0  0
  9  5  1  0  0  0  0
  9  2  1  0  0  0  0
  9  8  1  0  0  0  0
 12  3  1  0  0  0  0
 14  4  1  0  0  0  0
 17  6  1  0  0  0  0
M TOR 0 0 1 2 3
M TOR 1 0 1 2 10
M TOR 2 0 1 2 11
M TOR 3 0 1 7 6
M TOR 4 0 1 7 8
M TOR 5 0 1 7 17
M TOR 6 0 1 8 4
M TOR 7 0 1 8 18
M TOR 8 1 2 3 4
M TOR 9 1 2 3 12
M TOR 10 1 2 3 13
M TOR 11 1 7 6 5
M TOR 12 1 7 8 4
M TOR 13 1 7 8 18
M TOR 14 1 8 4 3
M TOR 15 1 8 4 5
M TOR 16 1 8 4 14
M TOR 17 1 8 7 6
M TOR 18 1 8 7 17
M TOR 19 2 1 0 9
M TOR 20 2 1 7 6
M TOR 21 2 1 7 8
M TOR 22 2 1 7 17
M TOR 23 2 1 8 4
M TOR 24 2 1 8 18
M TOR 25 2 3 4 5
M TOR 26 2 3 4 8
M TOR 27 2 3 4 14
M TOR 28 3 2 1 7
M TOR 29 3 2 1 8
M TOR 30 3 4 5 6
M TOR 31 3 4 5 15
M TOR 32 3 4 5 16
M TOR 33 3 4 8 7
M TOR 34 3 4 8 18
M TOR 35 4 3 2 10
M TOR 36 4 3 2 11
M TOR 37 4 5 6 7
M TOR 38 4 8 7 6
M TOR 39 4 8 7 17
M TOR 40 5 4 3 12
M TOR 41 5 4 3 13
M TOR 42 5 4 8 7
M TOR 43 5 4 8 18
M TOR 44 5 6 7 8
M TOR 45 5 6 7 17
M TOR 46 6 5 4 8
M TOR 47 6 5 4 14
M TOR 48 6 7 8 18
M TOR 49 7 1 0 9
M TOR 50 7 1 2 10
M TOR 51 7 1 2 11
M TOR 52 7 6 5 15
M TOR 53 7 6 5 16
M TOR 54 7 8 4 14
M TOR 55 8 1 0 9
M TOR 56 8 1 2 10
M TOR 57 8 1 2 11
M TOR 58 8 4 3 12
M TOR 59 8 4 3 13
M TOR 60 8 4 5 15
M TOR 61 8 4 5 16
M  END
$$$$
