gdb 2779	3.4428544	1.0001317	0.8824902	3.7859	77.53	-0.24246	-0.02009	0.22237	1348.4481	0.154699	-422.53782	-422.528484	-422.52754	-422.572029	34.142
 OpenBabel02181911413D

 19 20  0  0  1  0  0  0  0  0999 V2000
    2.3007    1.4781    0.4398 C   0  0  0  0  0  0  0  0  0  0  0  0
    1.5064    0.1911    0.3655 C   0  0  2  0  0  0  0  0  0  0  0  0
    2.0770   -1.0182    1.0818 C   0  0  1  0  0  0  0  0  0  0  0  0
    1.0545   -2.1703    1.0447 C   0  0  1  0  0  0  0  0  0  0  0  0
    1.1047   -2.1138   -0.5308 C   0  0  0  0  0  0  0  0  0  0  0  0
    2.0841   -0.9419   -0.4410 C   0  0  1  0  0  0  0  0  0  0  0  0
    3.1815   -0.7955   -1.2698 O   0  0  0  0  0  0  0  0  0  0  0  0
    1.5877   -3.4704    1.5818 C   0  0  0  0  0  0  0  0  0  0  0  0
    1.0274   -4.1673    2.3885 O   0  0  0  0  0  0  0  0  0  0  0  0
    2.0835    2.0192    1.3662 H   0  0  0  0  0  0  0  0  0  0  0  0
    3.3755    1.2819    0.4021 H   0  0  0  0  0  0  0  0  0  0  0  0
    2.0545    2.1426   -0.3964 H   0  0  0  0  0  0  0  0  0  0  0  0
    0.4238    0.3235    0.3767 H   0  0  0  0  0  0  0  0  0  0  0  0
    2.8910   -0.9190    1.7903 H   0  0  0  0  0  0  0  0  0  0  0  0
    0.0851   -1.9611    1.5046 H   0  0  0  0  0  0  0  0  0  0  0  0
    1.5816   -3.0044   -0.9506 H   0  0  0  0  0  0  0  0  0  0  0  0
    0.1514   -1.9431   -1.0406 H   0  0  0  0  0  0  0  0  0  0  0  0
    2.9426   -0.2112   -1.9982 H   0  0  0  0  0  0  0  0  0  0  0  0
    2.5803   -3.7600    1.1611 H   0  0  0  0  0  0  0  0  0  0  0  0
  1 10  1  0  0  0  0
  2 13  1  6  0  0  0
  2  1  1  0  0  0  0
  2  3  1  0  0  0  0
  3 14  1  1  0  0  0
  4  3  1  0  0  0  0
  4 15  1  1  0  0  0
  4  8  1  0  0  0  0
  5  6  1  0  0  0  0
  5  4  1  0  0  0  0
  6  7  1  6  0  0  0
  6  2  1  0  0  0  0
  6  3  1  0  0  0  0
  8  9  2  0  0  0  0
 11  1  1  0  0  0  0
 12  1  1  0  0  0  0
 16  5  1  0  0  0  0
 17  5  1  0  0  0  0
 18  7  1  0  0  0  0
 19  8  1  0  0  0  0
M TOR 0 0 1 2 3
M TOR 1 0 1 2 5
M TOR 2 0 1 2 13
M TOR 3 0 1 5 4
M TOR 4 0 1 5 6
M TOR 5 1 2 3 4
M TOR 6 1 2 3 7
M TOR 7 1 2 3 14
M TOR 8 1 2 5 4
M TOR 9 1 2 5 6
M TOR 10 1 5 2 3
M TOR 11 1 5 2 13
M TOR 12 1 5 4 3
M TOR 13 1 5 4 15
M TOR 14 1 5 4 16
M TOR 15 1 5 6 17
M TOR 16 2 1 0 9
M TOR 17 2 1 0 10
M TOR 18 2 1 0 11
M TOR 19 2 3 4 5
M TOR 20 2 3 4 15
M TOR 21 2 3 4 16
M TOR 22 2 3 7 8
M TOR 23 2 3 7 18
M TOR 24 2 5 1 12
M TOR 25 2 5 4 15
M TOR 26 2 5 4 16
M TOR 27 2 5 6 17
M TOR 28 3 2 1 12
M TOR 29 3 2 5 6
M TOR 30 3 4 5 6
M TOR 31 4 3 2 13
M TOR 32 4 3 7 8
M TOR 33 4 3 7 18
M TOR 34 4 5 1 12
M TOR 35 4 5 2 13
M TOR 36 4 5 6 17
M TOR 37 5 1 0 9
M TOR 38 5 1 0 10
M TOR 39 5 1 0 11
M TOR 40 5 2 3 7
M TOR 41 5 2 3 14
M TOR 42 5 4 3 7
M TOR 43 5 4 3 14
M TOR 44 6 5 1 12
M TOR 45 6 5 2 13
M TOR 46 6 5 4 15
M TOR 47 6 5 4 16
M TOR 48 7 3 2 13
M TOR 49 7 3 4 15
M TOR 50 7 3 4 16
M TOR 51 8 7 3 14
M  END
$$$$
