
     RDKit          3D

 19 19  0  0  0  0  0  0  0  0999 V2000
    1.4209   -0.1325   -0.0266 C   0  0  0  0  0  0  0  0  0  0  0  0
    0.0279    0.0659   -0.0146 O   0  0  0  0  0  0  0  0  0  0  0  0
   -0.4298    0.6558    1.1822 C   0  0  0  0  0  0  0  0  0  0  0  0
   -1.9445    0.8053    1.0792 C   0  0  0  0  0  0  0  0  0  0  0  0
   -2.5516    1.4258    2.3238 C   0  0  0  0  0  0  0  0  0  0  0  0
   -3.8419    0.9298    2.8473 C   0  0  0  0  0  0  0  0  0  0  0  0
   -2.6203    0.5482    3.4685 O   0  0  0  0  0  0  0  0  0  0  0  0
   -2.1639    2.7875    2.6190 C   0  0  0  0  0  0  0  0  0  0  0  0
   -1.8323    3.9231    2.8323 C   0  0  0  0  0  0  0  0  0  0  0  0
    1.7461   -0.8010    0.7864 H   0  0  0  0  0  0  0  0  0  0  0  0
    1.6784   -0.5909   -0.9846 H   0  0  0  0  0  0  0  0  0  0  0  0
    1.9706    0.8172    0.0723 H   0  0  0  0  0  0  0  0  0  0  0  0
   -0.1736    0.0273    2.0509 H   0  0  0  0  0  0  0  0  0  0  0  0
    0.0432    1.6393    1.3374 H   0  0  0  0  0  0  0  0  0  0  0  0
   -2.1869    1.4220    0.2069 H   0  0  0  0  0  0  0  0  0  0  0  0
   -2.3896   -0.1820    0.9243 H   0  0  0  0  0  0  0  0  0  0  0  0
   -4.4742    1.6004    3.4261 H   0  0  0  0  0  0  0  0  0  0  0  0
   -4.3615    0.1437    2.3005 H   0  0  0  0  0  0  0  0  0  0  0  0
   -1.5416    4.9250    3.0323 H   0  0  0  0  0  0  0  0  0  0  0  0
  1  2  1  0
  2  3  1  0
  3  4  1  0
  4  5  1  0
  5  6  1  0
  6  7  1  0
  5  8  1  0
  8  9  3  0
  7  5  1  0
  1 10  1  0
  1 11  1  0
  1 12  1  0
  3 13  1  0
  3 14  1  0
  4 15  1  0
  4 16  1  0
  6 17  1  0
  6 18  1  0
  9 19  1  0
M  END
$$$$
