
     RDKit          3D

 19 21  0  0  0  0  0  0  0  0999 V2000
   -2.4452    1.5396   -2.2272 C   0  0  0  0  0  0  0  0  0  0  0  0
   -2.3529    0.9989   -0.8389 C   0  0  0  0  0  0  0  0  0  0  0  0
   -2.2603   -0.4348   -0.6827 O   0  0  0  0  0  0  0  0  0  0  0  0
   -3.2948    0.2674    0.0351 C   0  0  0  0  0  0  0  0  0  0  0  0
   -2.6688    0.8707    1.3145 C   0  0  0  0  0  0  0  0  0  0  0  0
   -1.4995    0.0717    1.9523 C   0  0  0  0  0  0  0  0  0  0  0  0
   -0.4766    0.8362    1.0385 C   0  0  0  0  0  0  0  0  0  0  0  0
    0.3562    0.0906    0.1965 O   0  0  0  0  0  0  0  0  0  0  0  0
   -1.6609    1.6387    0.3953 C   0  0  0  0  0  0  0  0  0  0  0  0
   -3.1303    0.9362   -2.8289 H   0  0  0  0  0  0  0  0  0  0  0  0
   -2.8024    2.5743   -2.2157 H   0  0  0  0  0  0  0  0  0  0  0  0
   -1.4613    1.5292   -2.7096 H   0  0  0  0  0  0  0  0  0  0  0  0
   -4.3074   -0.0841   -0.1344 H   0  0  0  0  0  0  0  0  0  0  0  0
   -3.3640    1.4021    1.9631 H   0  0  0  0  0  0  0  0  0  0  0  0
   -1.3646    0.2650    3.0191 H   0  0  0  0  0  0  0  0  0  0  0  0
   -1.5239   -1.0076    1.7874 H   0  0  0  0  0  0  0  0  0  0  0  0
    0.1806    1.4899    1.6189 H   0  0  0  0  0  0  0  0  0  0  0  0
   -0.2282   -0.5138   -0.2799 H   0  0  0  0  0  0  0  0  0  0  0  0
   -1.6064    2.7276    0.3779 H   0  0  0  0  0  0  0  0  0  0  0  0
  1  2  1  0
  2  3  1  0
  3  4  1  0
  4  5  1  0
  5  6  1  0
  6  7  1  0
  7  8  1  0
  7  9  1  0
  4  2  1  0
  9  5  1  0
  9  2  1  0
  1 10  1  0
  1 11  1  0
  1 12  1  0
  4 13  1  0
  5 14  1  0
  6 15  1  0
  6 16  1  0
  7 17  1  0
  8 18  1  0
  9 19  1  0
M  END
$$$$
