
     RDKit          3D

 19 19  0  0  0  0  0  0  0  0999 V2000
    1.2613    0.7161    0.5982 O   0  0  0  0  0  0  0  0  0  0  0  0
    0.0041    0.2960    0.1159 C   0  0  0  0  0  0  0  0  0  0  0  0
   -0.5919    1.3104   -0.8571 C   0  0  0  0  0  0  0  0  0  0  0  0
   -2.0570    1.0280   -1.2439 C   0  0  0  0  0  0  0  0  0  0  0  0
   -2.8518    2.0148   -0.3722 C   0  0  0  0  0  0  0  0  0  0  0  0
   -1.8714    3.1978   -0.2619 C   0  0  0  0  0  0  0  0  0  0  0  0
   -0.5828    2.5866   -0.1803 O   0  0  0  0  0  0  0  0  0  0  0  0
   -1.9626    4.1145   -1.4050 C   0  0  0  0  0  0  0  0  0  0  0  0
   -2.0429    4.8593   -2.3451 C   0  0  0  0  0  0  0  0  0  0  0  0
    1.1398    1.6310    0.8805 H   0  0  0  0  0  0  0  0  0  0  0  0
    0.1562   -0.6621   -0.3938 H   0  0  0  0  0  0  0  0  0  0  0  0
   -0.7114    0.1275    0.9399 H   0  0  0  0  0  0  0  0  0  0  0  0
    0.0573    1.3888   -1.7372 H   0  0  0  0  0  0  0  0  0  0  0  0
   -2.2217    1.2384   -2.3033 H   0  0  0  0  0  0  0  0  0  0  0  0
   -2.3369   -0.0129   -1.0604 H   0  0  0  0  0  0  0  0  0  0  0  0
   -3.8131    2.2999   -0.8021 H   0  0  0  0  0  0  0  0  0  0  0  0
   -3.0243    1.6048    0.6273 H   0  0  0  0  0  0  0  0  0  0  0  0
   -2.0134    3.7653    0.6640 H   0  0  0  0  0  0  0  0  0  0  0  0
   -2.1069    5.5247   -3.1705 H   0  0  0  0  0  0  0  0  0  0  0  0
  1  2  1  0
  2  3  1  0
  3  4  1  0
  4  5  1  0
  5  6  1  0
  6  7  1  0
  6  8  1  0
  8  9  3  0
  7  3  1  0
  1 10  1  0
  2 11  1  0
  2 12  1  0
  3 13  1  0
  4 14  1  0
  4 15  1  0
  5 16  1  0
  5 17  1  0
  6 18  1  0
  9 19  1  0
M  END
$$$$
