
     RDKit          3D

 19 19  0  0  0  0  0  0  0  0999 V2000
   -1.8430    1.3019    2.4334 O   0  0  0  0  0  0  0  0  0  0  0  0
   -1.1111    1.4751    1.2383 C   0  0  0  0  0  0  0  0  0  0  0  0
   -1.9915    1.4184   -0.0103 C   0  0  0  0  0  0  0  0  0  0  0  0
   -2.7184    0.0687   -0.1887 C   0  0  0  0  0  0  0  0  0  0  0  0
   -3.4844    0.0001   -1.4260 C   0  0  0  0  0  0  0  0  0  0  0  0
   -4.1076   -0.0306   -2.4530 C   0  0  0  0  0  0  0  0  0  0  0  0
    0.2381    0.7083    1.1310 C   0  0  0  0  0  0  0  0  0  0  0  0
    0.9622    1.9437    0.9764 O   0  0  0  0  0  0  0  0  0  0  0  0
   -0.2061    2.7208    1.3116 C   0  0  0  0  0  0  0  0  0  0  0  0
   -2.2455    0.4273    2.4312 H   0  0  0  0  0  0  0  0  0  0  0  0
   -2.7343    2.2217    0.0432 H   0  0  0  0  0  0  0  0  0  0  0  0
   -1.3691    1.6099   -0.8905 H   0  0  0  0  0  0  0  0  0  0  0  0
   -1.9883   -0.7522   -0.1694 H   0  0  0  0  0  0  0  0  0  0  0  0
   -3.3984   -0.0988    0.6573 H   0  0  0  0  0  0  0  0  0  0  0  0
   -4.6614   -0.0692   -3.3581 H   0  0  0  0  0  0  0  0  0  0  0  0
    0.5030    0.1842    2.0589 H   0  0  0  0  0  0  0  0  0  0  0  0
    0.3805    0.0395    0.2736 H   0  0  0  0  0  0  0  0  0  0  0  0
   -0.1544    3.1398    2.3237 H   0  0  0  0  0  0  0  0  0  0  0  0
   -0.3947    3.5191    0.5851 H   0  0  0  0  0  0  0  0  0  0  0  0
  1  2  1  0
  2  3  1  0
  3  4  1  0
  4  5  1  0
  5  6  3  0
  2  7  1  0
  7  8  1  0
  8  9  1  0
  9  2  1  0
  1 10  1  0
  3 11  1  0
  3 12  1  0
  4 13  1  0
  4 14  1  0
  6 15  1  0
  7 16  1  0
  7 17  1  0
  9 18  1  0
  9 19  1  0
M  END
$$$$
