gdb 5748	3.8921983	1.3103801	1.1748719	2.5533	74.04	-0.22687	0.0732	0.30007	1101.3055	0.157793	-422.506565	-422.498888	-422.497944	-422.538854	29.646
 OpenBabel02181911423D

 19 21  0  0  1  0  0  0  0  0999 V2000
    1.3733   -0.2217   -0.2502 C   0  0  0  0  0  0  0  0  0  0  0  0
   -0.0011   -0.1018    0.0347 O   0  0  0  0  0  0  0  0  0  0  0  0
   -0.2823    0.6986    1.1534 C   0  0  2  0  0  0  0  0  0  0  0  0
    0.0919    0.0844    2.5398 C   0  0  0  0  0  0  0  0  0  0  0  0
   -1.0595    0.5166    3.4436 C   0  0  2  0  0  0  0  0  0  0  0  0
   -2.4447    0.0793    3.0094 C   0  0  2  0  0  0  0  0  0  0  0  0
   -2.4219   -0.3486    1.6476 O   0  0  0  0  0  0  0  0  0  0  0  0
   -1.7861    0.9216    1.2854 C   0  0  1  0  0  0  0  0  0  0  0  0
   -1.9936    1.4731    2.7082 C   0  0  2  0  0  0  0  0  0  0  0  0
    1.9223   -0.7344    0.5534 H   0  0  0  0  0  0  0  0  0  0  0  0
    1.4638   -0.8110   -1.1659 H   0  0  0  0  0  0  0  0  0  0  0  0
    1.8416    0.7625   -0.4137 H   0  0  0  0  0  0  0  0  0  0  0  0
    0.2037    1.6856    1.0436 H   0  0  0  0  0  0  0  0  0  0  0  0
    0.1526   -1.0042    2.4448 H   0  0  0  0  0  0  0  0  0  0  0  0
    1.0522    0.4512    2.9109 H   0  0  0  0  0  0  0  0  0  0  0  0
   -0.9039    0.6650    4.5064 H   0  0  0  0  0  0  0  0  0  0  0  0
   -3.2120   -0.3232    3.6603 H   0  0  0  0  0  0  0  0  0  0  0  0
   -2.2768    1.3871    0.4303 H   0  0  0  0  0  0  0  0  0  0  0  0
   -2.3329    2.4481    3.0272 H   0  0  0  0  0  0  0  0  0  0  0  0
  1  2  1  0  0  0  0
  1 10  1  0  0  0  0
  2  3  1  0  0  0  0
  3 13  1  6  0  0  0
  3  8  1  0  0  0  0
  3  4  1  0  0  0  0
  4 15  1  0  0  0  0
  4  5  1  0  0  0  0
  5 16  1  1  0  0  0
  6  5  1  0  0  0  0
  6 17  1  1  0  0  0
  7  6  1  0  0  0  0
  8 18  1  6  0  0  0
  8  7  1  0  0  0  0
  8  9  1  0  0  0  0
  9  6  1  0  0  0  0
  9 19  1  1  0  0  0
  9  5  1  0  0  0  0
 11  1  1  0  0  0  0
 12  1  1  0  0  0  0
 14  4  1  0  0  0  0
M TOR 0 0 1 2 3
M TOR 1 0 1 2 7
M TOR 2 0 1 2 12
M TOR 3 1 2 3 4
M TOR 4 1 2 3 13
M TOR 5 1 2 3 14
M TOR 6 1 2 7 6
M TOR 7 1 2 7 8
M TOR 8 1 2 7 17
M TOR 9 2 1 0 9
M TOR 10 2 1 0 10
M TOR 11 2 1 0 11
M TOR 12 2 3 4 5
M TOR 13 2 3 4 8
M TOR 14 2 3 4 15
M TOR 15 2 7 6 5
M TOR 16 2 7 8 4
M TOR 17 2 7 8 5
M TOR 18 2 7 8 18
M TOR 19 3 2 7 6
M TOR 20 3 2 7 8
M TOR 21 3 2 7 17
M TOR 22 3 4 5 6
M TOR 23 3 4 5 8
M TOR 24 3 4 5 16
M TOR 25 3 4 8 7
M TOR 26 3 4 8 18
M TOR 27 4 3 2 7
M TOR 28 4 3 2 12
M TOR 29 4 5 6 7
M TOR 30 4 5 8 7
M TOR 31 4 5 8 18
M TOR 32 4 8 5 6
M TOR 33 4 8 5 16
M TOR 34 4 8 7 6
M TOR 35 4 8 7 17
M TOR 36 5 4 3 13
M TOR 37 5 4 3 14
M TOR 38 5 6 7 8
M TOR 39 5 6 7 17
M TOR 40 5 8 4 15
M TOR 41 5 8 7 17
M TOR 42 6 5 4 15
M TOR 43 6 5 8 18
M TOR 44 6 7 2 12
M TOR 45 6 7 8 18
M TOR 46 7 2 3 13
M TOR 47 7 2 3 14
M TOR 48 7 6 5 16
M TOR 49 7 8 4 15
M TOR 50 7 8 5 16
M TOR 51 8 4 3 13
M TOR 52 8 4 3 14
M TOR 53 8 7 2 12
M  END
$$$$
