gdb 674	3.0683169	1.4270511	1.2351483	4.413	73.9	-0.26052	0.0184	0.27891999999999995	1070.3647	0.160273	-422.628991	-422.621573	-422.620629	-422.661435	28.733
 OpenBabel02181911403D

 19 20  0  0  1  0  0  0  0  0999 V2000
    1.3749   -0.2620   -0.3240 O   0  0  0  0  0  0  0  0  0  0  0  0
    0.1868   -0.2113   -0.1910 C   0  0  0  0  0  0  0  0  0  0  0  0
   -0.7729   -1.3400    0.1647 C   0  0  0  0  0  0  0  0  0  0  0  0
   -2.1768   -0.7688   -0.0642 C   0  0  2  0  0  0  0  0  0  0  0  0
   -2.8368   -1.1306   -1.4254 C   0  0  0  0  0  0  0  0  0  0  0  0
   -2.6190    0.0934   -2.3377 C   0  0  0  0  0  0  0  0  0  0  0  0
   -2.6858    1.2766   -1.3594 C   0  0  0  0  0  0  0  0  0  0  0  0
   -1.9290    0.7713   -0.1314 C   0  0  2  0  0  0  0  0  0  0  0  0
   -0.5126    0.9447   -0.3394 O   0  0  0  0  0  0  0  0  0  0  0  0
   -0.5406   -2.2236   -0.4337 H   0  0  0  0  0  0  0  0  0  0  0  0
   -0.5960   -1.6080    1.2117 H   0  0  0  0  0  0  0  0  0  0  0  0
   -2.8421   -1.0219    0.7628 H   0  0  0  0  0  0  0  0  0  0  0  0
   -2.4338   -2.0554   -1.8479 H   0  0  0  0  0  0  0  0  0  0  0  0
   -3.9100   -1.2905   -1.2764 H   0  0  0  0  0  0  0  0  0  0  0  0
   -1.6284    0.0553   -2.8041 H   0  0  0  0  0  0  0  0  0  0  0  0
   -3.3549    0.1591   -3.1428 H   0  0  0  0  0  0  0  0  0  0  0  0
   -2.2571    2.2047   -1.7443 H   0  0  0  0  0  0  0  0  0  0  0  0
   -3.7258    1.4774   -1.0746 H   0  0  0  0  0  0  0  0  0  0  0  0
   -2.1889    1.3033    0.7882 H   0  0  0  0  0  0  0  0  0  0  0  0
  1  2  2  0  0  0  0
  2  3  1  0  0  0  0
  3 11  1  0  0  0  0
  4  3  1  0  0  0  0
  4 12  1  1  0  0  0
  5 14  1  0  0  0  0
  5  4  1  0  0  0  0
  6  5  1  0  0  0  0
  6  7  1  0  0  0  0
  7 18  1  0  0  0  0
  7  8  1  0  0  0  0
  8  4  1  0  0  0  0
  8 19  1  1  0  0  0
  9  2  1  0  0  0  0
  9  8  1  0  0  0  0
 10  3  1  0  0  0  0
 13  5  1  0  0  0  0
 15  6  1  0  0  0  0
 16  6  1  0  0  0  0
 17  7  1  0  0  0  0
M TOR 0 0 1 2 3
M TOR 1 0 1 2 9
M TOR 2 0 1 2 10
M TOR 3 0 1 8 7
M TOR 4 1 2 3 4
M TOR 5 1 2 3 7
M TOR 6 1 2 3 11
M TOR 7 1 8 7 3
M TOR 8 1 8 7 6
M TOR 9 1 8 7 18
M TOR 10 2 1 8 7
M TOR 11 2 3 4 5
M TOR 12 2 3 4 12
M TOR 13 2 3 4 13
M TOR 14 2 3 7 6
M TOR 15 2 3 7 8
M TOR 16 2 3 7 18
M TOR 17 3 2 1 8
M TOR 18 3 4 5 6
M TOR 19 3 4 5 14
M TOR 20 3 4 5 15
M TOR 21 3 7 6 5
M TOR 22 3 7 6 16
M TOR 23 3 7 6 17
M TOR 24 4 3 2 9
M TOR 25 4 3 2 10
M TOR 26 4 3 7 6
M TOR 27 4 3 7 8
M TOR 28 4 3 7 18
M TOR 29 4 5 6 7
M TOR 30 4 5 6 16
M TOR 31 4 5 6 17
M TOR 32 5 4 3 7
M TOR 33 5 4 3 11
M TOR 34 5 6 7 8
M TOR 35 5 6 7 18
M TOR 36 6 5 4 12
M TOR 37 6 5 4 13
M TOR 38 6 7 3 11
M TOR 39 7 3 2 9
M TOR 40 7 3 2 10
M TOR 41 7 3 4 12
M TOR 42 7 3 4 13
M TOR 43 7 6 5 14
M TOR 44 7 6 5 15
M TOR 45 8 1 2 9
M TOR 46 8 1 2 10
M TOR 47 8 7 3 11
M TOR 48 8 7 6 16
M TOR 49 8 7 6 17
M  END
$$$$
