
     RDKit          3D

 19 20  0  0  0  0  0  0  0  0999 V2000
    1.7300   -0.8922   -2.2039 C   0  0  0  0  0  0  0  0  0  0  0  0
    0.7252   -0.9975   -1.0674 C   0  0  0  0  0  0  0  0  0  0  0  0
    0.2928   -2.0708   -0.7151 O   0  0  0  0  0  0  0  0  0  0  0  0
    0.2837    0.3122   -0.4064 C   0  0  0  0  0  0  0  0  0  0  0  0
    1.4087    0.8868    0.4619 C   0  0  0  0  0  0  0  0  0  0  0  0
   -1.1280    0.1935    0.2760 C   0  0  0  0  0  0  0  0  0  0  0  0
   -1.6695    1.1855   -0.7580 C   0  0  0  0  0  0  0  0  0  0  0  0
   -0.8970    2.3925   -0.6456 O   0  0  0  0  0  0  0  0  0  0  0  0
   -0.3596    1.3137   -1.4105 C   0  0  0  0  0  0  0  0  0  0  0  0
    2.1869   -1.8671   -2.3779 H   0  0  0  0  0  0  0  0  0  0  0  0
    1.1995   -0.5924   -3.1164 H   0  0  0  0  0  0  0  0  0  0  0  0
    2.5002   -0.1394   -2.0190 H   0  0  0  0  0  0  0  0  0  0  0  0
    1.6361    0.2125    1.2938 H   0  0  0  0  0  0  0  0  0  0  0  0
    2.3309    1.0500   -0.1044 H   0  0  0  0  0  0  0  0  0  0  0  0
    1.0855    1.8472    0.8703 H   0  0  0  0  0  0  0  0  0  0  0  0
   -1.5268   -0.8170    0.1799 H   0  0  0  0  0  0  0  0  0  0  0  0
   -1.1940    0.5263    1.3143 H   0  0  0  0  0  0  0  0  0  0  0  0
   -2.6697    1.2800   -1.1639 H   0  0  0  0  0  0  0  0  0  0  0  0
   -0.0840    1.5239   -2.4383 H   0  0  0  0  0  0  0  0  0  0  0  0
  1  2  1  0
  2  3  2  0
  2  4  1  0
  4  5  1  0
  4  6  1  0
  6  7  1  0
  7  8  1  0
  8  9  1  0
  9  4  1  0
  9  7  1  0
  1 10  1  0
  1 11  1  0
  1 12  1  0
  5 13  1  0
  5 14  1  0
  5 15  1  0
  6 16  1  0
  6 17  1  0
  7 18  1  0
  9 19  1  0
M  END
$$$$
