gdb 505	3.2783684	1.7161733	1.4601198	1.468	74.45	-0.23474	0.0869	0.32164000000000004	951.249	0.159253	-422.514478	-422.507566	-422.506622	-422.545317	28.416
 OpenBabel02181911403D

 19 21  0  0  1  0  0  0  0  0999 V2000
    0.0260    0.2442    1.3617 C   0  0  0  0  0  0  0  0  0  0  0  0
   -0.6874    0.9965    0.1823 C   0  0  0  0  0  0  0  0  0  0  0  0
    0.5901    0.7949   -0.6286 C   0  0  1  0  0  0  0  0  0  0  0  0
    0.9001    0.5361   -2.0784 C   0  0  0  0  0  0  0  0  0  0  0  0
    2.1364   -0.1953   -2.1168 O   0  0  0  0  0  0  0  0  0  0  0  0
    3.0928    0.1195   -1.1010 C   0  0  0  0  0  0  0  0  0  0  0  0
    2.4096    0.5352    0.2073 C   0  0  1  0  0  0  0  0  0  0  0  0
    1.6332    1.7169   -0.1471 O   0  0  0  0  0  0  0  0  0  0  0  0
    1.1212   -0.2687    0.3686 C   0  0  1  0  0  0  0  0  0  0  0  0
    0.4080    0.9107    2.1364 H   0  0  0  0  0  0  0  0  0  0  0  0
   -0.5632   -0.5449    1.8317 H   0  0  0  0  0  0  0  0  0  0  0  0
   -1.5277    0.4221   -0.2195 H   0  0  0  0  0  0  0  0  0  0  0  0
   -0.9960    2.0312    0.3458 H   0  0  0  0  0  0  0  0  0  0  0  0
    0.1586   -0.1053   -2.5664 H   0  0  0  0  0  0  0  0  0  0  0  0
    0.9815    1.4808   -2.6350 H   0  0  0  0  0  0  0  0  0  0  0  0
    3.7036   -0.7823   -0.9771 H   0  0  0  0  0  0  0  0  0  0  0  0
    3.7433    0.9479   -1.4197 H   0  0  0  0  0  0  0  0  0  0  0  0
    3.1119    0.7082    1.0302 H   0  0  0  0  0  0  0  0  0  0  0  0
    1.1248   -1.3346    0.1435 H   0  0  0  0  0  0  0  0  0  0  0  0
  1 11  1  0  0  0  0
  1 10  1  0  0  0  0
  2 13  1  0  0  0  0
  2  1  1  0  0  0  0
  3  8  1  1  0  0  0
  3  2  1  0  0  0  0
  3  9  1  0  0  0  0
  4  3  1  0  0  0  0
  5  4  1  0  0  0  0
  5  6  1  0  0  0  0
  6 16  1  0  0  0  0
  6  7  1  0  0  0  0
  7  9  1  0  0  0  0
  7 18  1  1  0  0  0
  8  7  1  0  0  0  0
  9 19  1  6  0  0  0
  9  1  1  0  0  0  0
 12  2  1  0  0  0  0
 14  4  1  0  0  0  0
 15  4  1  0  0  0  0
 17  6  1  0  0  0  0
M TOR 0 0 1 2 3
M TOR 1 0 1 2 7
M TOR 2 0 1 2 8
M TOR 3 0 8 2 3
M TOR 4 0 8 2 7
M TOR 5 0 8 6 5
M TOR 6 0 8 6 7
M TOR 7 0 8 6 17
M TOR 8 1 0 8 6
M TOR 9 1 0 8 18
M TOR 10 1 2 3 4
M TOR 11 1 2 3 13
M TOR 12 1 2 3 14
M TOR 13 1 2 7 6
M TOR 14 1 2 8 6
M TOR 15 1 2 8 18
M TOR 16 2 1 0 9
M TOR 17 2 1 0 10
M TOR 18 2 3 4 5
M TOR 19 2 7 6 5
M TOR 20 2 7 6 8
M TOR 21 2 7 6 17
M TOR 22 2 8 0 9
M TOR 23 2 8 0 10
M TOR 24 2 8 6 5
M TOR 25 2 8 6 17
M TOR 26 3 2 1 11
M TOR 27 3 2 1 12
M TOR 28 3 2 7 6
M TOR 29 3 2 8 6
M TOR 30 3 2 8 18
M TOR 31 3 4 5 6
M TOR 32 3 4 5 15
M TOR 33 3 4 5 16
M TOR 34 4 3 2 7
M TOR 35 4 3 2 8
M TOR 36 4 5 6 7
M TOR 37 4 5 6 8
M TOR 38 4 5 6 17
M TOR 39 5 4 3 13
M TOR 40 5 4 3 14
M TOR 41 5 6 8 18
M TOR 42 6 8 0 9
M TOR 43 6 8 0 10
M TOR 44 7 2 1 11
M TOR 45 7 2 1 12
M TOR 46 7 2 3 13
M TOR 47 7 2 3 14
M TOR 48 7 2 8 18
M TOR 49 7 6 5 15
M TOR 50 7 6 5 16
M TOR 51 7 6 8 18
M TOR 52 8 0 1 11
M TOR 53 8 0 1 12
M TOR 54 8 2 1 11
M TOR 55 8 2 1 12
M TOR 56 8 2 3 13
M TOR 57 8 2 3 14
M TOR 58 8 6 5 15
M TOR 59 8 6 5 16
M  END
$$$$
