
     RDKit          3D

 19 21  0  0  0  0  0  0  0  0999 V2000
   -0.4369   -1.0623   -2.4758 C   0  0  0  0  0  0  0  0  0  0  0  0
    0.6832   -1.7216   -1.8560 O   0  0  0  0  0  0  0  0  0  0  0  0
   -0.3013   -1.1469   -1.0251 C   0  0  0  0  0  0  0  0  0  0  0  0
   -1.0925   -1.9004    0.0351 C   0  0  0  0  0  0  0  0  0  0  0  0
   -0.8457   -0.8312    0.9753 O   0  0  0  0  0  0  0  0  0  0  0  0
   -0.0275   -0.0907    0.0476 C   0  0  0  0  0  0  0  0  0  0  0  0
   -0.3097    1.4070   -0.1878 C   0  0  0  0  0  0  0  0  0  0  0  0
    1.2261    1.6341   -0.2779 C   0  0  0  0  0  0  0  0  0  0  0  0
    1.4347    0.2536    0.4071 C   0  0  0  0  0  0  0  0  0  0  0  0
   -0.2012   -0.1332   -2.9927 H   0  0  0  0  0  0  0  0  0  0  0  0
   -1.1342   -1.7187   -2.9949 H   0  0  0  0  0  0  0  0  0  0  0  0
   -2.1621   -2.0465   -0.1559 H   0  0  0  0  0  0  0  0  0  0  0  0
   -0.6402   -2.8494    0.3476 H   0  0  0  0  0  0  0  0  0  0  0  0
   -0.9352    1.6787   -1.0422 H   0  0  0  0  0  0  0  0  0  0  0  0
   -0.7355    1.8486    0.7177 H   0  0  0  0  0  0  0  0  0  0  0  0
    1.5852    1.6375   -1.3102 H   0  0  0  0  0  0  0  0  0  0  0  0
    1.6287    2.5105    0.2327 H   0  0  0  0  0  0  0  0  0  0  0  0
    2.2080   -0.4083    0.0126 H   0  0  0  0  0  0  0  0  0  0  0  0
    1.5425    0.3419    1.4915 H   0  0  0  0  0  0  0  0  0  0  0  0
  1  2  1  0
  2  3  1  0
  3  4  1  0
  4  5  1  0
  5  6  1  0
  6  7  1  0
  7  8  1  0
  8  9  1  0
  3  1  1  0
  6  3  1  0
  9  6  1  0
  1 10  1  0
  1 11  1  0
  4 12  1  0
  4 13  1  0
  7 14  1  0
  7 15  1  0
  8 16  1  0
  8 17  1  0
  9 18  1  0
  9 19  1  0
M  END
$$$$
