
     RDKit          3D

 19 21  0  0  0  0  0  0  0  0999 V2000
    0.1636   -2.9375    0.0527 C   0  0  0  0  0  0  0  0  0  0  0  0
   -1.0065   -2.5237   -0.8323 C   0  0  0  0  0  0  0  0  0  0  0  0
   -1.1840   -1.1167   -0.7950 O   0  0  0  0  0  0  0  0  0  0  0  0
   -0.1025   -0.3350   -1.2607 C   0  0  0  0  0  0  0  0  0  0  0  0
    0.1089    0.7882   -0.2294 C   0  0  0  0  0  0  0  0  0  0  0  0
    1.3251    1.4687   -0.5305 O   0  0  0  0  0  0  0  0  0  0  0  0
    1.3985    0.2223    0.1827 C   0  0  0  0  0  0  0  0  0  0  0  0
    1.3441   -0.8724   -0.9041 C   0  0  0  0  0  0  0  0  0  0  0  0
    1.4589   -2.3516   -0.5233 C   0  0  0  0  0  0  0  0  0  0  0  0
   -0.0236   -2.5683    1.0679 H   0  0  0  0  0  0  0  0  0  0  0  0
    0.2335   -4.0296    0.1072 H   0  0  0  0  0  0  0  0  0  0  0  0
   -0.8466   -2.8730   -1.8669 H   0  0  0  0  0  0  0  0  0  0  0  0
   -1.9516   -2.9463   -0.4796 H   0  0  0  0  0  0  0  0  0  0  0  0
   -0.2633   -0.0360   -2.3050 H   0  0  0  0  0  0  0  0  0  0  0  0
   -0.6610    1.3168    0.3208 H   0  0  0  0  0  0  0  0  0  0  0  0
    1.9085    0.2271    1.1400 H   0  0  0  0  0  0  0  0  0  0  0  0
    2.0698   -0.6358   -1.6874 H   0  0  0  0  0  0  0  0  0  0  0  0
    1.7132   -2.9164   -1.4291 H   0  0  0  0  0  0  0  0  0  0  0  0
    2.2987   -2.4902    0.1679 H   0  0  0  0  0  0  0  0  0  0  0  0
  1  2  1  0
  2  3  1  0
  3  4  1  0
  4  5  1  0
  5  6  1  0
  6  7  1  0
  7  8  1  0
  8  9  1  0
  9  1  1  0
  8  4  1  0
  7  5  1  0
  1 10  1  0
  1 11  1  0
  2 12  1  0
  2 13  1  0
  4 14  1  0
  5 15  1  0
  7 16  1  0
  8 17  1  0
  9 18  1  0
  9 19  1  0
M  END
$$$$
