
     RDKit          3D

 19 20  0  0  0  0  0  0  0  0999 V2000
    1.3458    0.8329    0.1496 C   0  0  0  0  0  0  0  0  0  0  0  0
   -0.0561    0.3095    0.2328 C   0  0  0  0  0  0  0  0  0  0  0  0
   -1.1529    1.0271   -0.0296 C   0  0  0  0  0  0  0  0  0  0  0  0
   -2.4795    0.3176    0.0728 C   0  0  0  0  0  0  0  0  0  0  0  0
   -2.3731   -0.9973   -0.5793 O   0  0  0  0  0  0  0  0  0  0  0  0
   -1.7482   -1.4761    0.6539 C   0  0  0  0  0  0  0  0  0  0  0  0
   -0.2518   -1.1490    0.6182 C   0  0  0  0  0  0  0  0  0  0  0  0
   -2.5822   -0.4270    1.4321 C   0  0  0  0  0  0  0  0  0  0  0  0
   -3.8704   -0.8693    1.7698 O   0  0  0  0  0  0  0  0  0  0  0  0
    1.8682    0.7249    1.1090 H   0  0  0  0  0  0  0  0  0  0  0  0
    1.9327    0.2694   -0.5875 H   0  0  0  0  0  0  0  0  0  0  0  0
    1.3663    1.8885   -0.1339 H   0  0  0  0  0  0  0  0  0  0  0  0
   -1.1120    2.0777   -0.2991 H   0  0  0  0  0  0  0  0  0  0  0  0
   -3.3417    0.8873   -0.2802 H   0  0  0  0  0  0  0  0  0  0  0  0
   -1.9629   -2.5315    0.8467 H   0  0  0  0  0  0  0  0  0  0  0  0
    0.2009   -1.3519    1.5990 H   0  0  0  0  0  0  0  0  0  0  0  0
    0.2631   -1.8040   -0.0983 H   0  0  0  0  0  0  0  0  0  0  0  0
   -2.1548    0.0508    2.3154 H   0  0  0  0  0  0  0  0  0  0  0  0
   -4.2335   -1.2902    0.9802 H   0  0  0  0  0  0  0  0  0  0  0  0
  1  2  1  0
  2  3  2  0
  3  4  1  0
  4  5  1  0
  5  6  1  0
  6  7  1  0
  6  8  1  0
  8  9  1  0
  7  2  1  0
  8  4  1  0
  1 10  1  0
  1 11  1  0
  1 12  1  0
  3 13  1  0
  4 14  1  0
  6 15  1  0
  7 16  1  0
  7 17  1  0
  8 18  1  0
  9 19  1  0
M  END
$$$$
