gdb 4084	3.0469278	1.6794787	1.4433739	1.8036	72.9	-0.23089	0.07697	0.30786	957.2408	0.159849	-422.559731	-422.552618	-422.551674	-422.590979	28.909
 OpenBabel02181911413D

 19 21  0  0  1  0  0  0  0  0999 V2000
    0.2022    0.1602   -0.1549 O   0  0  0  0  0  0  0  0  0  0  0  0
   -0.8459    0.4790    0.7531 C   0  0  2  0  0  0  0  0  0  0  0  0
   -2.1677    0.1957    0.0137 C   0  0  0  0  0  0  0  0  0  0  0  0
   -2.5323    1.5165   -0.6608 C   0  0  1  0  0  0  0  0  0  0  0  0
   -3.0265    2.6301    0.2404 C   0  0  1  0  0  0  0  0  0  0  0  0
   -3.1641    2.3409    1.6118 O   0  0  0  0  0  0  0  0  0  0  0  0
   -1.8555    2.3458    2.1920 C   0  0  0  0  0  0  0  0  0  0  0  0
   -0.8823    1.9968    1.0512 C   0  0  2  0  0  0  0  0  0  0  0  0
   -1.5895    2.6067   -0.1753 C   0  0  1  0  0  0  0  0  0  0  0  0
    1.0366    0.4201    0.2487 H   0  0  0  0  0  0  0  0  0  0  0  0
   -0.7480   -0.1149    1.6748 H   0  0  0  0  0  0  0  0  0  0  0  0
   -2.0115   -0.6035   -0.7136 H   0  0  0  0  0  0  0  0  0  0  0  0
   -2.9448   -0.1217    0.7155 H   0  0  0  0  0  0  0  0  0  0  0  0
   -2.8787    1.5132   -1.6884 H   0  0  0  0  0  0  0  0  0  0  0  0
   -3.7427    3.3579   -0.1261 H   0  0  0  0  0  0  0  0  0  0  0  0
   -1.6287    3.3414    2.6018 H   0  0  0  0  0  0  0  0  0  0  0  0
   -1.8500    1.6231    3.0145 H   0  0  0  0  0  0  0  0  0  0  0  0
    0.1181    2.3982    1.2361 H   0  0  0  0  0  0  0  0  0  0  0  0
   -1.1209    3.3429   -0.8145 H   0  0  0  0  0  0  0  0  0  0  0  0
  1 10  1  0  0  0  0
  1  2  1  0  0  0  0
  2  8  1  0  0  0  0
  2 11  1  1  0  0  0
  3 13  1  0  0  0  0
  3  2  1  0  0  0  0
  4 14  1  6  0  0  0
  4  9  1  0  0  0  0
  4  3  1  0  0  0  0
  4  5  1  0  0  0  0
  5 15  1  6  0  0  0
  5  6  1  0  0  0  0
  6  7  1  0  0  0  0
  7 16  1  0  0  0  0
  7 17  1  0  0  0  0
  8 18  1  1  0  0  0
  8  7  1  0  0  0  0
  9 19  1  6  0  0  0
  9  5  1  0  0  0  0
  9  8  1  0  0  0  0
 12  3  1  0  0  0  0
M TOR 0 0 1 2 3
M TOR 1 0 1 2 11
M TOR 2 0 1 2 12
M TOR 3 0 1 7 6
M TOR 4 0 1 7 8
M TOR 5 0 1 7 17
M TOR 6 1 2 3 4
M TOR 7 1 2 3 8
M TOR 8 1 2 3 13
M TOR 9 1 7 6 5
M TOR 10 1 7 6 15
M TOR 11 1 7 6 16
M TOR 12 1 7 8 3
M TOR 13 1 7 8 4
M TOR 14 1 7 8 18
M TOR 15 2 1 0 9
M TOR 16 2 1 7 6
M TOR 17 2 1 7 8
M TOR 18 2 1 7 17
M TOR 19 2 3 4 5
M TOR 20 2 3 4 8
M TOR 21 2 3 4 14
M TOR 22 2 3 8 7
M TOR 23 2 3 8 18
M TOR 24 3 2 1 7
M TOR 25 3 2 1 10
M TOR 26 3 4 5 6
M TOR 27 3 4 8 7
M TOR 28 3 4 8 18
M TOR 29 3 8 4 5
M TOR 30 3 8 4 14
M TOR 31 3 8 7 6
M TOR 32 3 8 7 17
M TOR 33 4 3 2 11
M TOR 34 4 3 2 12
M TOR 35 4 5 6 7
M TOR 36 4 5 6 15
M TOR 37 4 5 6 16
M TOR 38 4 8 3 13
M TOR 39 4 8 7 6
M TOR 40 4 8 7 17
M TOR 41 5 4 3 13
M TOR 42 5 4 8 7
M TOR 43 5 4 8 18
M TOR 44 5 6 7 8
M TOR 45 5 6 7 17
M TOR 46 6 5 4 8
M TOR 47 6 5 4 14
M TOR 48 6 7 1 10
M TOR 49 6 7 8 18
M TOR 50 7 1 0 9
M TOR 51 7 1 2 11
M TOR 52 7 1 2 12
M TOR 53 7 8 3 13
M TOR 54 7 8 4 14
M TOR 55 8 3 2 11
M TOR 56 8 3 2 12
M TOR 57 8 7 1 10
M TOR 58 8 7 6 15
M TOR 59 8 7 6 16
M  END
$$$$
