
     RDKit          3D

 19 19  0  0  0  0  0  0  0  0999 V2000
    2.2371   -0.9679    0.6996 C   0  0  0  0  0  0  0  0  0  0  0  0
    1.3358    0.0003   -0.0888 C   0  0  0  0  0  0  0  0  0  0  0  0
    1.7998    1.4245   -0.0395 C   0  0  0  0  0  0  0  0  0  0  0  0
    1.1855    2.4783    0.4952 C   0  0  0  0  0  0  0  0  0  0  0  0
    2.0164    3.7210    0.3035 C   0  0  0  0  0  0  0  0  0  0  0  0
    3.1754    3.2853   -0.3952 O   0  0  0  0  0  0  0  0  0  0  0  0
    3.0943    1.8860   -0.6644 C   0  0  0  0  0  0  0  0  0  0  0  0
    2.4232    4.3105    1.6551 C   0  0  0  0  0  0  0  0  0  0  0  0
    1.7686    5.1125    2.2655 O   0  0  0  0  0  0  0  0  0  0  0  0
    2.2902   -0.6804    1.7539 H   0  0  0  0  0  0  0  0  0  0  0  0
    1.8437   -1.9871    0.6441 H   0  0  0  0  0  0  0  0  0  0  0  0
    3.2574   -0.9839    0.3042 H   0  0  0  0  0  0  0  0  0  0  0  0
    1.2940   -0.3285   -1.1364 H   0  0  0  0  0  0  0  0  0  0  0  0
    0.3125   -0.0570    0.2965 H   0  0  0  0  0  0  0  0  0  0  0  0
    0.2309    2.4904    1.0050 H   0  0  0  0  0  0  0  0  0  0  0  0
    1.4880    4.5030   -0.2625 H   0  0  0  0  0  0  0  0  0  0  0  0
    3.1073    1.7102   -1.7524 H   0  0  0  0  0  0  0  0  0  0  0  0
    3.9771    1.3815   -0.2459 H   0  0  0  0  0  0  0  0  0  0  0  0
    3.3846    3.8973    2.0366 H   0  0  0  0  0  0  0  0  0  0  0  0
  1  2  1  0
  2  3  1  0
  3  4  2  0
  4  5  1  0
  5  6  1  0
  6  7  1  0
  5  8  1  0
  8  9  2  0
  7  3  1  0
  1 10  1  0
  1 11  1  0
  1 12  1  0
  2 13  1  0
  2 14  1  0
  4 15  1  0
  5 16  1  0
  7 17  1  0
  7 18  1  0
  8 19  1  0
M  END
$$$$
