
     RDKit          3D

 19 20  0  0  0  0  0  0  0  0999 V2000
    2.4114    0.3182    0.4847 O   0  0  0  0  0  0  0  0  0  0  0  0
    2.0925    0.1448   -0.6579 C   0  0  0  0  0  0  0  0  0  0  0  0
    3.0066   -0.1352   -1.6511 O   0  0  0  0  0  0  0  0  0  0  0  0
    3.5363   -1.4711   -1.5419 C   0  0  0  0  0  0  0  0  0  0  0  0
    2.4909   -2.5421   -1.8766 C   0  0  0  0  0  0  0  0  0  0  0  0
    1.2195   -2.5020   -0.9953 C   0  0  0  0  0  0  0  0  0  0  0  0
    0.2574   -1.3810   -1.3732 C   0  0  0  0  0  0  0  0  0  0  0  0
   -0.3907   -0.4882   -0.3365 C   0  0  0  0  0  0  0  0  0  0  0  0
    0.7031    0.0608   -1.2016 C   0  0  0  0  0  0  0  0  0  0  0  0
    4.3694   -1.5110   -2.2472 H   0  0  0  0  0  0  0  0  0  0  0  0
    3.9320   -1.6154   -0.5286 H   0  0  0  0  0  0  0  0  0  0  0  0
    2.2088   -2.4534   -2.9327 H   0  0  0  0  0  0  0  0  0  0  0  0
    2.9828   -3.5160   -1.7610 H   0  0  0  0  0  0  0  0  0  0  0  0
    0.6947   -3.4605   -1.0744 H   0  0  0  0  0  0  0  0  0  0  0  0
    1.5124   -2.4043    0.0571 H   0  0  0  0  0  0  0  0  0  0  0  0
   -0.3230   -1.5776   -2.2705 H   0  0  0  0  0  0  0  0  0  0  0  0
   -1.4043   -0.1451   -0.5118 H   0  0  0  0  0  0  0  0  0  0  0  0
   -0.1463   -0.6617    0.7061 H   0  0  0  0  0  0  0  0  0  0  0  0
    0.4797    0.7483   -2.0099 H   0  0  0  0  0  0  0  0  0  0  0  0
  1  2  2  0
  2  3  1  0
  3  4  1  0
  4  5  1  0
  5  6  1  0
  6  7  1  0
  7  8  1  0
  8  9  1  0
  9  2  1  0
  9  7  1  0
  4 10  1  0
  4 11  1  0
  5 12  1  0
  5 13  1  0
  6 14  1  0
  6 15  1  0
  7 16  1  0
  8 17  1  0
  8 18  1  0
  9 19  1  0
M  END
$$$$
