gdb 3701	3.7437794	1.1234504	1.0156074	2.706	76.77	-0.22585	0.06173	0.28758	1230.5757	0.15527	-422.495146	-422.486629	-422.485685	-422.528271	33.061
 OpenBabel02181911413D

 19 21  0  0  1  0  0  0  0  0999 V2000
    0.6848    0.6875    0.6621 O   0  0  0  0  0  0  0  0  0  0  0  0
   -0.6958    0.5161    0.7035 C   0  0  1  0  0  0  0  0  0  0  0  0
   -1.3319   -0.1903    1.8987 C   0  0  0  0  0  0  0  0  0  0  0  0
   -1.4417    1.2923    1.7382 C   0  0  2  0  0  0  0  0  0  0  0  0
   -2.6049    2.2720    1.6522 C   0  0  0  0  0  0  0  0  0  0  0  0
   -1.6686    3.1883    2.4361 C   0  0  0  0  0  0  0  0  0  0  0  0
   -1.9351    4.1525    3.5373 C   0  0  0  0  0  0  0  0  0  0  0  0
   -1.3152    4.6210    2.2239 C   0  0  0  0  0  0  0  0  0  0  0  0
   -0.6550    2.1732    2.5604 O   0  0  0  0  0  0  0  0  0  0  0  0
    0.8772    1.4463    1.2322 H   0  0  0  0  0  0  0  0  0  0  0  0
   -1.1410    0.3642   -0.2774 H   0  0  0  0  0  0  0  0  0  0  0  0
   -2.2176   -0.7968    1.7349 H   0  0  0  0  0  0  0  0  0  0  0  0
   -0.6555   -0.5480    2.6684 H   0  0  0  0  0  0  0  0  0  0  0  0
   -2.8759    2.6049    0.6479 H   0  0  0  0  0  0  0  0  0  0  0  0
   -3.5020    1.9664    2.1965 H   0  0  0  0  0  0  0  0  0  0  0  0
   -2.9640    4.4204    3.7553 H   0  0  0  0  0  0  0  0  0  0  0  0
   -1.2843    4.1026    4.4036 H   0  0  0  0  0  0  0  0  0  0  0  0
   -1.9203    5.2090    1.5413 H   0  0  0  0  0  0  0  0  0  0  0  0
   -0.2616    4.8787    2.2365 H   0  0  0  0  0  0  0  0  0  0  0  0
  1  2  1  0  0  0  0
  1 10  1  0  0  0  0
  2 11  1  6  0  0  0
  2  4  1  0  0  0  0
  2  3  1  0  0  0  0
  3 13  1  0  0  0  0
  4  3  1  0  0  0  0
  4  9  1  1  0  0  0
  5  4  1  0  0  0  0
  5 15  1  0  0  0  0
  5  6  1  0  0  0  0
  6  9  1  0  0  0  0
  6  7  1  0  0  0  0
  7 16  1  0  0  0  0
  7 17  1  0  0  0  0
  8 19  1  0  0  0  0
  8  6  1  0  0  0  0
  8  7  1  0  0  0  0
 12  3  1  0  0  0  0
 14  5  1  0  0  0  0
 18  8  1  0  0  0  0
M TOR 0 0 1 2 3
M TOR 1 0 1 2 11
M TOR 2 0 1 2 12
M TOR 3 0 1 3 4
M TOR 4 0 1 3 8
M TOR 5 1 2 3 4
M TOR 6 1 2 3 8
M TOR 7 1 3 2 11
M TOR 8 1 3 2 12
M TOR 9 1 3 4 5
M TOR 10 1 3 4 13
M TOR 11 1 3 4 14
M TOR 12 1 3 8 5
M TOR 13 2 1 0 9
M TOR 14 2 3 1 10
M TOR 15 2 3 4 5
M TOR 16 2 3 4 13
M TOR 17 2 3 4 14
M TOR 18 2 3 8 5
M TOR 19 3 1 0 9
M TOR 20 3 4 5 6
M TOR 21 3 4 5 7
M TOR 22 3 4 5 8
M TOR 23 3 8 5 6
M TOR 24 3 8 5 7
M TOR 25 4 3 1 10
M TOR 26 4 3 2 11
M TOR 27 4 3 2 12
M TOR 28 4 5 6 7
M TOR 29 4 5 6 15
M TOR 30 4 5 6 16
M TOR 31 4 5 7 17
M TOR 32 4 5 7 18
M TOR 33 5 6 7 17
M TOR 34 5 6 7 18
M TOR 35 5 7 6 15
M TOR 36 5 7 6 16
M TOR 37 6 5 4 13
M TOR 38 6 5 4 14
M TOR 39 6 7 5 8
M TOR 40 7 5 4 13
M TOR 41 7 5 4 14
M TOR 42 8 3 1 10
M TOR 43 8 3 2 11
M TOR 44 8 3 2 12
M TOR 45 8 3 4 13
M TOR 46 8 3 4 14
M TOR 47 8 5 4 13
M TOR 48 8 5 4 14
M TOR 49 8 5 6 15
M TOR 50 8 5 6 16
M TOR 51 8 5 7 17
M TOR 52 8 5 7 18
M  END
$$$$
