gdb 5090	3.4888377	1.1141879	1.0730792	1.855	75.44	-0.22929	0.06256	0.29185	1216.8193	0.155119	-422.484316	-422.4755	-422.474556	-422.517629	33.536
 OpenBabel02181911423D

 19 21  0  0  1  0  0  0  0  0999 V2000
    5.5988   -1.2706    1.0704 C   0  0  0  0  0  0  0  0  0  0  0  0
    4.2849   -1.9467    0.8684 C   0  0  2  0  0  0  0  0  0  0  0  0
    4.2321   -3.1557    0.0915 O   0  0  0  0  0  0  0  0  0  0  0  0
    3.3645   -2.0646   -0.2599 C   0  0  1  0  0  0  0  0  0  0  0  0
    2.1255   -2.0447    0.6952 C   0  0  1  0  0  0  0  0  0  0  0  0
    0.8905   -1.2513    0.4047 C   0  0  0  0  0  0  0  0  0  0  0  0
    0.1022   -1.8278   -0.6298 O   0  0  0  0  0  0  0  0  0  0  0  0
    2.2101   -3.1689    1.7005 C   0  0  0  0  0  0  0  0  0  0  0  0
    3.0838   -1.9545    1.8781 C   0  0  1  0  0  0  0  0  0  0  0  0
    6.1877   -1.7866    1.8375 H   0  0  0  0  0  0  0  0  0  0  0  0
    6.1725   -1.2674    0.1400 H   0  0  0  0  0  0  0  0  0  0  0  0
    5.4541   -0.2360    1.3987 H   0  0  0  0  0  0  0  0  0  0  0  0
    3.4014   -1.6978   -1.2792 H   0  0  0  0  0  0  0  0  0  0  0  0
    0.3110   -1.1215    1.3333 H   0  0  0  0  0  0  0  0  0  0  0  0
    1.1489   -0.2487    0.0433 H   0  0  0  0  0  0  0  0  0  0  0  0
   -0.0600   -2.7453   -0.3852 H   0  0  0  0  0  0  0  0  0  0  0  0
    1.3726   -3.2242    2.3904 H   0  0  0  0  0  0  0  0  0  0  0  0
    2.6521   -4.1183    1.4269 H   0  0  0  0  0  0  0  0  0  0  0  0
    3.0181   -1.2970    2.7358 H   0  0  0  0  0  0  0  0  0  0  0  0
  1 12  1  0  0  0  0
  1 10  1  0  0  0  0
  2  1  1  1  0  0  0
  2  9  1  0  0  0  0
  3  2  1  0  0  0  0
  4 13  1  6  0  0  0
  4  3  1  0  0  0  0
  4  5  1  0  0  0  0
  4  2  1  0  0  0  0
  5  6  1  6  0  0  0
  5  8  1  0  0  0  0
  5  9  1  0  0  0  0
  6 14  1  0  0  0  0
  7 16  1  0  0  0  0
  7  6  1  0  0  0  0
  8  9  1  0  0  0  0
  8 17  1  0  0  0  0
  9 19  1  1  0  0  0
 11  1  1  0  0  0  0
 15  6  1  0  0  0  0
 18  8  1  0  0  0  0
M TOR 0 0 1 2 3
M TOR 1 0 1 3 4
M TOR 2 0 1 3 12
M TOR 3 0 1 8 4
M TOR 4 0 1 8 7
M TOR 5 0 1 8 18
M TOR 6 1 2 3 4
M TOR 7 1 2 3 12
M TOR 8 1 3 4 5
M TOR 9 1 3 4 7
M TOR 10 1 3 4 8
M TOR 11 1 8 4 5
M TOR 12 1 8 4 7
M TOR 13 1 8 7 16
M TOR 14 1 8 7 17
M TOR 15 2 1 0 9
M TOR 16 2 1 0 10
M TOR 17 2 1 0 11
M TOR 18 2 1 8 4
M TOR 19 2 1 8 7
M TOR 20 2 1 8 18
M TOR 21 2 3 1 8
M TOR 22 2 3 4 5
M TOR 23 2 3 4 7
M TOR 24 2 3 4 8
M TOR 25 3 1 0 9
M TOR 26 3 1 0 10
M TOR 27 3 1 0 11
M TOR 28 3 1 8 7
M TOR 29 3 1 8 18
M TOR 30 3 4 5 6
M TOR 31 3 4 5 13
M TOR 32 3 4 5 14
M TOR 33 3 4 7 8
M TOR 34 3 4 7 16
M TOR 35 3 4 7 17
M TOR 36 3 4 8 18
M TOR 37 4 5 6 15
M TOR 38 4 7 8 18
M TOR 39 4 8 7 16
M TOR 40 4 8 7 17
M TOR 41 5 4 3 12
M TOR 42 5 4 7 8
M TOR 43 5 4 7 16
M TOR 44 5 4 7 17
M TOR 45 5 4 8 18
M TOR 46 6 5 4 7
M TOR 47 6 5 4 8
M TOR 48 7 4 3 12
M TOR 49 7 4 5 13
M TOR 50 7 4 5 14
M TOR 51 8 1 0 9
M TOR 52 8 1 0 10
M TOR 53 8 1 0 11
M TOR 54 8 1 3 12
M TOR 55 8 4 3 12
M TOR 56 8 4 5 13
M TOR 57 8 4 5 14
M  END
$$$$
