gdb 2710	2.1818491	1.9816729	1.2525439	2.602	75.38	-0.24691	0.06276	0.30967	1040.0135	0.155355	-422.497738	-422.489005	-422.488061	-422.530298	33.778
 OpenBabel02181911413D

 19 21  0  0  1  0  0  0  0  0999 V2000
   -1.0388   -1.3861    2.4473 C   0  0  0  0  0  0  0  0  0  0  0  0
   -1.1176    0.0431    1.9943 C   0  0  1  0  0  0  0  0  0  0  0  0
   -0.6900    0.6391    0.6291 C   0  0  2  0  0  0  0  0  0  0  0  0
    0.6522    0.5650    0.2225 O   0  0  0  0  0  0  0  0  0  0  0  0
   -1.2017    1.8474    1.4128 C   0  0  1  0  0  0  0  0  0  0  0  0
   -1.2296    3.1364    0.9286 O   0  0  0  0  0  0  0  0  0  0  0  0
   -2.3588    1.0048    2.0737 C   0  0  2  0  0  0  0  0  0  0  0  0
   -1.9848    1.4770    3.4936 C   0  0  0  0  0  0  0  0  0  0  0  0
   -0.6231    1.3164    2.7882 C   0  0  1  0  0  0  0  0  0  0  0  0
   -1.3754   -1.5030    3.4831 H   0  0  0  0  0  0  0  0  0  0  0  0
   -1.6597   -2.0321    1.8170 H   0  0  0  0  0  0  0  0  0  0  0  0
   -0.0088   -1.7535    2.3836 H   0  0  0  0  0  0  0  0  0  0  0  0
   -1.2912    0.3329   -0.2337 H   0  0  0  0  0  0  0  0  0  0  0  0
    1.2001    0.9693    0.9041 H   0  0  0  0  0  0  0  0  0  0  0  0
   -1.5900    3.7200    1.6063 H   0  0  0  0  0  0  0  0  0  0  0  0
   -3.3413    0.8105    1.6406 H   0  0  0  0  0  0  0  0  0  0  0  0
   -2.2842    2.4923    3.7783 H   0  0  0  0  0  0  0  0  0  0  0  0
   -2.1985    0.7871    4.3155 H   0  0  0  0  0  0  0  0  0  0  0  0
    0.3767    1.4804    3.1963 H   0  0  0  0  0  0  0  0  0  0  0  0
  1 10  1  0  0  0  0
  2  7  1  0  0  0  0
  2  1  1  1  0  0  0
  2  9  1  0  0  0  0
  3 13  1  6  0  0  0
  3  5  1  0  0  0  0
  3  2  1  0  0  0  0
  4  3  1  0  0  0  0
  4 14  1  0  0  0  0
  5  6  1  6  0  0  0
  5  7  1  0  0  0  0
  5  9  1  0  0  0  0
  6 15  1  0  0  0  0
  7 16  1  6  0  0  0
  7  8  1  0  0  0  0
  8 17  1  0  0  0  0
  8 18  1  0  0  0  0
  9 19  1  1  0  0  0
  9  8  1  0  0  0  0
 11  1  1  0  0  0  0
 12  1  1  0  0  0  0
M TOR 0 0 1 2 3
M TOR 1 0 1 2 4
M TOR 2 0 1 2 12
M TOR 3 0 1 6 4
M TOR 4 0 1 6 7
M TOR 5 0 1 6 15
M TOR 6 0 1 8 4
M TOR 7 0 1 8 7
M TOR 8 0 1 8 18
M TOR 9 1 2 3 13
M TOR 10 1 2 4 5
M TOR 11 1 2 4 6
M TOR 12 1 2 4 8
M TOR 13 1 6 4 5
M TOR 14 1 6 4 8
M TOR 15 1 6 7 8
M TOR 16 1 6 7 16
M TOR 17 1 6 7 17
M TOR 18 1 8 4 5
M TOR 19 1 8 7 16
M TOR 20 1 8 7 17
M TOR 21 2 1 0 9
M TOR 22 2 1 0 10
M TOR 23 2 1 0 11
M TOR 24 2 1 6 7
M TOR 25 2 1 6 15
M TOR 26 2 1 8 7
M TOR 27 2 1 8 18
M TOR 28 2 4 5 14
M TOR 29 2 4 6 7
M TOR 30 2 4 6 15
M TOR 31 2 4 8 7
M TOR 32 2 4 8 18
M TOR 33 3 2 1 6
M TOR 34 3 2 1 8
M TOR 35 3 2 4 5
M TOR 36 3 2 4 6
M TOR 37 3 2 4 8
M TOR 38 4 2 3 13
M TOR 39 4 6 7 8
M TOR 40 4 6 7 16
M TOR 41 4 6 7 17
M TOR 42 4 8 7 16
M TOR 43 4 8 7 17
M TOR 44 5 4 2 12
M TOR 45 5 4 6 7
M TOR 46 5 4 6 15
M TOR 47 5 4 8 7
M TOR 48 5 4 8 18
M TOR 49 6 1 0 9
M TOR 50 6 1 0 10
M TOR 51 6 1 0 11
M TOR 52 6 1 2 12
M TOR 53 6 1 8 18
M TOR 54 6 4 2 12
M TOR 55 6 4 5 14
M TOR 56 6 4 8 18
M TOR 57 6 7 8 18
M TOR 58 8 1 0 9
M TOR 59 8 1 0 10
M TOR 60 8 1 0 11
M TOR 61 8 1 2 12
M TOR 62 8 1 6 15
M TOR 63 8 4 2 12
M TOR 64 8 4 5 14
M TOR 65 8 4 6 15
M TOR 66 8 7 6 15
M  END
$$$$
