
     RDKit          3D

 19 21  0  0  0  0  0  0  0  0999 V2000
    2.7235   -2.0479   -3.2825 C   0  0  0  0  0  0  0  0  0  0  0  0
    2.0190   -2.1027   -1.9301 C   0  0  0  0  0  0  0  0  0  0  0  0
    2.4617   -0.9821   -0.9215 C   0  0  0  0  0  0  0  0  0  0  0  0
    3.0045   -1.8955    0.1944 C   0  0  0  0  0  0  0  0  0  0  0  0
    3.7551   -2.9034   -0.5593 O   0  0  0  0  0  0  0  0  0  0  0  0
    2.4425   -3.3145   -1.0640 C   0  0  0  0  0  0  0  0  0  0  0  0
    1.9014   -2.9499    0.3192 C   0  0  0  0  0  0  0  0  0  0  0  0
    1.4059   -3.7393    1.4308 C   0  0  0  0  0  0  0  0  0  0  0  0
    0.5693   -2.7851    0.7278 O   0  0  0  0  0  0  0  0  0  0  0  0
    2.4018   -2.8681   -3.9338 H   0  0  0  0  0  0  0  0  0  0  0  0
    2.5077   -1.1074   -3.8000 H   0  0  0  0  0  0  0  0  0  0  0  0
    3.8071   -2.1212   -3.1492 H   0  0  0  0  0  0  0  0  0  0  0  0
    0.9325   -2.1010   -2.0647 H   0  0  0  0  0  0  0  0  0  0  0  0
    3.2471   -0.3417   -1.3304 H   0  0  0  0  0  0  0  0  0  0  0  0
    1.6324   -0.3569   -0.5811 H   0  0  0  0  0  0  0  0  0  0  0  0
    3.5460   -1.4675    1.0371 H   0  0  0  0  0  0  0  0  0  0  0  0
    2.4180   -4.3162   -1.4928 H   0  0  0  0  0  0  0  0  0  0  0  0
    1.1364   -4.7835    1.2828 H   0  0  0  0  0  0  0  0  0  0  0  0
    1.6588   -3.4633    2.4529 H   0  0  0  0  0  0  0  0  0  0  0  0
  1  2  1  0
  2  3  1  0
  3  4  1  0
  4  5  1  0
  5  6  1  0
  6  7  1  0
  7  8  1  0
  8  9  1  0
  6  2  1  0
  9  7  1  0
  7  4  1  0
  1 10  1  0
  1 11  1  0
  1 12  1  0
  2 13  1  0
  3 14  1  0
  3 15  1  0
  4 16  1  0
  6 17  1  0
  8 18  1  0
  8 19  1  0
M  END
$$$$
