gdb 920	3.7828199	0.9290568	0.8858666	2.2055	78.08	-0.26397	0.0086	0.27257	1378.5056	0.156151	-422.547058	-422.538213	-422.537269	-422.582687	31.912
 OpenBabel02181911403D

 19 20  0  0  1  0  0  0  0  0999 V2000
    0.9756    0.3577   -0.5271 O   0  0  0  0  0  0  0  0  0  0  0  0
    0.2422   -0.1302    0.2868 C   0  0  0  0  0  0  0  0  0  0  0  0
   -0.8548    0.4339    0.8171 O   0  0  0  0  0  0  0  0  0  0  0  0
   -1.1920    1.7390    0.3652 C   0  0  1  0  0  0  0  0  0  0  0  0
   -2.5217    1.9051   -0.3170 C   0  0  0  0  0  0  0  0  0  0  0  0
   -2.3142    2.4027    1.0905 C   0  0  0  0  0  0  0  0  0  0  0  0
   -2.2926    3.8392    1.6307 C   0  0  0  0  0  0  0  0  0  0  0  0
   -2.5999    3.2598    3.0440 C   0  0  0  0  0  0  0  0  0  0  0  0
   -2.9411    1.8857    2.3929 C   0  0  0  0  0  0  0  0  0  0  0  0
    0.3671   -1.1275    0.7362 H   0  0  0  0  0  0  0  0  0  0  0  0
   -0.3332    2.3055    0.0265 H   0  0  0  0  0  0  0  0  0  0  0  0
   -2.5897    2.6206   -1.1308 H   0  0  0  0  0  0  0  0  0  0  0  0
   -3.1228    1.0099   -0.4425 H   0  0  0  0  0  0  0  0  0  0  0  0
   -1.3611    4.3996    1.5126 H   0  0  0  0  0  0  0  0  0  0  0  0
   -3.1147    4.4440    1.2355 H   0  0  0  0  0  0  0  0  0  0  0  0
   -1.7093    3.2093    3.6749 H   0  0  0  0  0  0  0  0  0  0  0  0
   -3.3977    3.7462    3.6085 H   0  0  0  0  0  0  0  0  0  0  0  0
   -2.4788    0.9988    2.8311 H   0  0  0  0  0  0  0  0  0  0  0  0
   -4.0178    1.7136    2.3027 H   0  0  0  0  0  0  0  0  0  0  0  0
  1  2  2  0  0  0  0
  2 10  1  0  0  0  0
  2  3  1  0  0  0  0
  4 11  1  6  0  0  0
  4  3  1  0  0  0  0
  4  6  1  0  0  0  0
  5  4  1  0  0  0  0
  5  6  1  0  0  0  0
  6  7  1  0  0  0  0
  6  9  1  0  0  0  0
  7  8  1  0  0  0  0
  8 17  1  0  0  0  0
  8 16  1  0  0  0  0
  9 18  1  0  0  0  0
  9  8  1  0  0  0  0
 12  5  1  0  0  0  0
 13  5  1  0  0  0  0
 14  7  1  0  0  0  0
 15  7  1  0  0  0  0
 19  9  1  0  0  0  0
M TOR 0 0 1 2 3
M TOR 1 1 2 3 4
M TOR 2 1 2 3 5
M TOR 3 1 2 3 10
M TOR 4 2 3 4 5
M TOR 5 2 3 4 11
M TOR 6 2 3 4 12
M TOR 7 2 3 5 6
M TOR 8 2 3 5 8
M TOR 9 3 2 1 9
M TOR 10 3 4 5 6
M TOR 11 3 4 5 8
M TOR 12 3 5 4 11
M TOR 13 3 5 4 12
M TOR 14 3 5 6 7
M TOR 15 3 5 6 13
M TOR 16 3 5 6 14
M TOR 17 3 5 8 7
M TOR 18 3 5 8 17
M TOR 19 3 5 8 18
M TOR 20 4 5 3 10
M TOR 21 4 5 6 7
M TOR 22 4 5 6 13
M TOR 23 4 5 6 14
M TOR 24 4 5 8 7
M TOR 25 4 5 8 17
M TOR 26 4 5 8 18
M TOR 27 5 6 7 8
M TOR 28 5 6 7 15
M TOR 29 5 6 7 16
M TOR 30 5 8 7 15
M TOR 31 5 8 7 16
M TOR 32 6 5 3 10
M TOR 33 6 5 4 11
M TOR 34 6 5 4 12
M TOR 35 6 5 8 17
M TOR 36 6 5 8 18
M TOR 37 6 7 8 17
M TOR 38 6 7 8 18
M TOR 39 8 5 3 10
M TOR 40 8 5 4 11
M TOR 41 8 5 4 12
M TOR 42 8 5 6 13
M TOR 43 8 5 6 14
M TOR 44 8 7 6 13
M TOR 45 8 7 6 14
M  END
$$$$
