
     RDKit          3D

 19 21  0  0  0  0  0  0  0  0999 V2000
    4.5729    0.9622   -1.2042 C   0  0  0  0  0  0  0  0  0  0  0  0
    3.0994    0.7379   -1.2599 C   0  0  0  0  0  0  0  0  0  0  0  0
    1.9720    1.2408   -2.0900 C   0  0  0  0  0  0  0  0  0  0  0  0
    1.4449   -0.0467   -2.4301 O   0  0  0  0  0  0  0  0  0  0  0  0
    2.1707   -0.5407   -1.2722 C   0  0  0  0  0  0  0  0  0  0  0  0
    1.3995    0.0560   -0.0476 C   0  0  0  0  0  0  0  0  0  0  0  0
   -0.0923   -0.2027    0.0605 C   0  0  0  0  0  0  0  0  0  0  0  0
    2.0870   -0.2379    1.1620 O   0  0  0  0  0  0  0  0  0  0  0  0
    1.9106    1.3988   -0.5585 C   0  0  0  0  0  0  0  0  0  0  0  0
    4.9887    0.5884   -0.2626 H   0  0  0  0  0  0  0  0  0  0  0  0
    5.0890    0.4608   -2.0306 H   0  0  0  0  0  0  0  0  0  0  0  0
    4.8017    2.0316   -1.2669 H   0  0  0  0  0  0  0  0  0  0  0  0
    1.8800    2.0536   -2.7991 H   0  0  0  0  0  0  0  0  0  0  0  0
    2.4499   -1.5927   -1.3319 H   0  0  0  0  0  0  0  0  0  0  0  0
   -0.5413    0.4502    0.8154 H   0  0  0  0  0  0  0  0  0  0  0  0
   -0.5762   -0.0269   -0.9023 H   0  0  0  0  0  0  0  0  0  0  0  0
   -0.2878   -1.2428    0.3536 H   0  0  0  0  0  0  0  0  0  0  0  0
    1.8326   -1.1281    1.4293 H   0  0  0  0  0  0  0  0  0  0  0  0
    1.8701    2.3605   -0.0614 H   0  0  0  0  0  0  0  0  0  0  0  0
  1  2  1  0
  2  3  1  0
  3  4  1  0
  4  5  1  0
  5  6  1  0
  6  7  1  0
  6  8  1  0
  6  9  1  0
  5  2  1  0
  9  2  1  0
  9  3  1  0
  1 10  1  0
  1 11  1  0
  1 12  1  0
  3 13  1  0
  5 14  1  0
  7 15  1  0
  7 16  1  0
  7 17  1  0
  8 18  1  0
  9 19  1  0
M  END
$$$$
