gdb 2032	2.7203611	1.8106315	1.5152671	0.5207	73.5	-0.23413	0.07464	0.30877	945.463	0.158814	-422.539321	-422.53205	-422.531106	-422.570358	30.116
 OpenBabel02181911403D

 19 21  0  0  1  0  0  0  0  0999 V2000
    0.3465   -0.4171    0.4155 O   0  0  0  0  0  0  0  0  0  0  0  0
   -0.9902   -0.0138    0.5100 C   0  0  2  0  0  0  0  0  0  0  0  0
   -1.6240    0.2395    1.8502 C   0  0  0  0  0  0  0  0  0  0  0  0
   -1.9739   -1.0125    1.0542 C   0  0  1  0  0  0  0  0  0  0  0  0
   -3.3048   -1.1376    0.3045 C   0  0  0  0  0  0  0  0  0  0  0  0
   -3.3157   -0.1923   -0.9002 C   0  0  2  0  0  0  0  0  0  0  0  0
   -2.0258   -0.2931   -1.7468 C   0  0  0  0  0  0  0  0  0  0  0  0
   -1.5254    0.7300   -0.7076 C   0  0  1  0  0  0  0  0  0  0  0  0
   -2.8961    1.1350   -0.4497 O   0  0  0  0  0  0  0  0  0  0  0  0
    0.9005    0.3552    0.5771 H   0  0  0  0  0  0  0  0  0  0  0  0
   -0.9927    0.0948    2.7204 H   0  0  0  0  0  0  0  0  0  0  0  0
   -2.3672    1.0242    1.9250 H   0  0  0  0  0  0  0  0  0  0  0  0
   -1.5462   -1.9324    1.4376 H   0  0  0  0  0  0  0  0  0  0  0  0
   -3.4418   -2.1675   -0.0463 H   0  0  0  0  0  0  0  0  0  0  0  0
   -4.1530   -0.9071    0.9601 H   0  0  0  0  0  0  0  0  0  0  0  0
   -4.2806   -0.1626   -1.4129 H   0  0  0  0  0  0  0  0  0  0  0  0
   -1.5067   -1.2517   -1.8048 H   0  0  0  0  0  0  0  0  0  0  0  0
   -2.1551    0.1416   -2.7391 H   0  0  0  0  0  0  0  0  0  0  0  0
   -0.8902    1.5662   -1.0180 H   0  0  0  0  0  0  0  0  0  0  0  0
  1 10  1  0  0  0  0
  2  1  1  6  0  0  0
  2  4  1  0  0  0  0
  2  3  1  0  0  0  0
  3 12  1  0  0  0  0
  3 11  1  0  0  0  0
  4 13  1  1  0  0  0
  4  3  1  0  0  0  0
  5 15  1  0  0  0  0
  5  4  1  0  0  0  0
  6 16  1  6  0  0  0
  6  9  1  0  0  0  0
  6  5  1  0  0  0  0
  7  6  1  0  0  0  0
  7  8  1  0  0  0  0
  8 19  1  6  0  0  0
  8  9  1  0  0  0  0
  8  2  1  0  0  0  0
 14  5  1  0  0  0  0
 17  7  1  0  0  0  0
 18  7  1  0  0  0  0
M TOR 0 0 1 2 3
M TOR 1 0 1 2 10
M TOR 2 0 1 2 11
M TOR 3 0 1 3 4
M TOR 4 0 1 3 12
M TOR 5 0 1 7 6
M TOR 6 0 1 7 8
M TOR 7 0 1 7 18
M TOR 8 1 2 3 4
M TOR 9 1 2 3 12
M TOR 10 1 3 2 10
M TOR 11 1 3 2 11
M TOR 12 1 3 4 5
M TOR 13 1 3 4 13
M TOR 14 1 3 4 14
M TOR 15 1 7 6 5
M TOR 16 1 7 6 16
M TOR 17 1 7 6 17
M TOR 18 1 7 8 5
M TOR 19 2 1 0 9
M TOR 20 2 1 7 6
M TOR 21 2 1 7 8
M TOR 22 2 1 7 18
M TOR 23 2 3 1 7
M TOR 24 2 3 4 5
M TOR 25 2 3 4 13
M TOR 26 2 3 4 14
M TOR 27 3 1 0 9
M TOR 28 3 1 7 6
M TOR 29 3 1 7 8
M TOR 30 3 1 7 18
M TOR 31 3 4 5 6
M TOR 32 3 4 5 8
M TOR 33 3 4 5 15
M TOR 34 4 3 1 7
M TOR 35 4 3 2 10
M TOR 36 4 3 2 11
M TOR 37 4 5 6 7
M TOR 38 4 5 6 16
M TOR 39 4 5 6 17
M TOR 40 4 5 8 7
M TOR 41 5 4 3 12
M TOR 42 5 6 7 8
M TOR 43 5 6 7 18
M TOR 44 5 8 7 18
M TOR 45 6 5 4 13
M TOR 46 6 5 4 14
M TOR 47 7 1 0 9
M TOR 48 7 1 2 10
M TOR 49 7 1 2 11
M TOR 50 7 1 3 12
M TOR 51 7 6 5 15
M TOR 52 7 8 5 15
M TOR 53 8 5 4 13
M TOR 54 8 5 4 14
M TOR 55 8 5 6 16
M TOR 56 8 5 6 17
M TOR 57 8 7 6 16
M TOR 58 8 7 6 17
M  END
$$$$
