gdb 4936	2.0649638	1.5288643	1.1421434	3.2926	77.27	-0.24087	-0.0332	0.20767	1147.2596	0.156091	-422.579388	-422.570146	-422.569202	-422.61435	33.299
 OpenBabel02181911413D

 19 19  0  0  1  0  0  0  0  0999 V2000
    0.3998   -0.9865   -0.4700 O   0  0  0  0  0  0  0  0  0  0  0  0
    0.7160    0.3052    0.0196 C   0  0  0  0  0  0  0  0  0  0  0  0
   -0.2338    0.7570    1.1455 C   0  0  1  0  0  0  0  0  0  0  0  0
   -1.7460    0.6469    0.7558 C   0  0  0  0  0  0  0  0  0  0  0  0
   -2.4654   -0.0817    1.9233 C   0  0  0  0  0  0  0  0  0  0  0  0
   -1.3315   -0.5902    2.7751 C   0  0  0  0  0  0  0  0  0  0  0  0
   -0.1443   -0.1427    2.3689 C   0  0  0  0  0  0  0  0  0  0  0  0
    0.0969    2.1814    1.5719 C   0  0  0  0  0  0  0  0  0  0  0  0
    1.0316    2.8273    1.1725 O   0  0  0  0  0  0  0  0  0  0  0  0
    0.4088   -1.5924    0.2796 H   0  0  0  0  0  0  0  0  0  0  0  0
    1.7541    0.3624    0.3753 H   0  0  0  0  0  0  0  0  0  0  0  0
    0.6322    0.9852   -0.8327 H   0  0  0  0  0  0  0  0  0  0  0  0
   -2.1880    1.6253    0.5465 H   0  0  0  0  0  0  0  0  0  0  0  0
   -1.8071    0.0540   -0.1589 H   0  0  0  0  0  0  0  0  0  0  0  0
   -3.1081    0.5956    2.5009 H   0  0  0  0  0  0  0  0  0  0  0  0
   -3.1180   -0.8898    1.5730 H   0  0  0  0  0  0  0  0  0  0  0  0
   -1.4891   -1.2334    3.6347 H   0  0  0  0  0  0  0  0  0  0  0  0
    0.8073   -0.3504    2.8484 H   0  0  0  0  0  0  0  0  0  0  0  0
   -0.6168    2.6014    2.3188 H   0  0  0  0  0  0  0  0  0  0  0  0
  1  2  1  0  0  0  0
  1 10  1  0  0  0  0
  2 11  1  0  0  0  0
  2  3  1  0  0  0  0
  3  8  1  1  0  0  0
  3  7  1  0  0  0  0
  4  3  1  0  0  0  0
  4  5  1  0  0  0  0
  5 15  1  0  0  0  0
  5  6  1  0  0  0  0
  6 17  1  0  0  0  0
  7  6  2  0  0  0  0
  7 18  1  0  0  0  0
  8 19  1  0  0  0  0
  9  8  2  0  0  0  0
 12  2  1  0  0  0  0
 13  4  1  0  0  0  0
 14  4  1  0  0  0  0
 16  5  1  0  0  0  0
M TOR 0 0 1 2 3
M TOR 1 0 1 2 6
M TOR 2 0 1 2 7
M TOR 3 1 2 3 4
M TOR 4 1 2 3 12
M TOR 5 1 2 3 13
M TOR 6 1 2 6 5
M TOR 7 1 2 6 17
M TOR 8 1 2 7 8
M TOR 9 1 2 7 18
M TOR 10 2 1 0 9
M TOR 11 2 3 4 5
M TOR 12 2 3 4 14
M TOR 13 2 3 4 15
M TOR 14 2 6 5 4
M TOR 15 2 6 5 16
M TOR 16 3 2 1 10
M TOR 17 3 2 1 11
M TOR 18 3 2 6 5
M TOR 19 3 2 6 17
M TOR 20 3 2 7 8
M TOR 21 3 2 7 18
M TOR 22 3 4 5 6
M TOR 23 3 4 5 16
M TOR 24 4 3 2 6
M TOR 25 4 3 2 7
M TOR 26 4 5 6 17
M TOR 27 5 4 3 12
M TOR 28 5 4 3 13
M TOR 29 5 6 2 7
M TOR 30 6 2 1 10
M TOR 31 6 2 1 11
M TOR 32 6 2 3 12
M TOR 33 6 2 3 13
M TOR 34 6 2 7 8
M TOR 35 6 2 7 18
M TOR 36 6 5 4 14
M TOR 37 6 5 4 15
M TOR 38 7 2 1 10
M TOR 39 7 2 1 11
M TOR 40 7 2 3 12
M TOR 41 7 2 3 13
M TOR 42 7 2 6 17
M  END
$$$$
