gdb 2476	2.6051317	1.827358	1.4107993	1.9124	73.52	-0.23922	0.07961	0.31883	980.8078	0.157439	-422.532264	-422.524579	-422.523635	-422.563983	30.37
 OpenBabel02181911413D

 19 21  0  0  1  0  0  0  0  0999 V2000
   -0.1188    0.1137    0.2817 C   0  0  0  0  0  0  0  0  0  0  0  0
    1.3216   -0.0941   -0.1262 C   0  0  2  0  0  0  0  0  0  0  0  0
    1.6380    0.7637   -1.2108 O   0  0  0  0  0  0  0  0  0  0  0  0
    2.6677    0.1768   -1.9994 C   0  0  0  0  0  0  0  0  0  0  0  0
    2.4239   -1.3387   -1.9286 C   0  0  0  0  0  0  0  0  0  0  0  0
    1.8663   -1.5374   -0.5168 C   0  0  1  0  0  0  0  0  0  0  0  0
    2.8876   -1.3967    0.6205 C   0  0  2  0  0  0  0  0  0  0  0  0
    2.1483   -1.1961    1.8310 O   0  0  0  0  0  0  0  0  0  0  0  0
    2.3937   -0.0615    0.9922 C   0  0  2  0  0  0  0  0  0  0  0  0
   -0.3451   -0.4851    1.1668 H   0  0  0  0  0  0  0  0  0  0  0  0
   -0.2996    1.1686    0.5116 H   0  0  0  0  0  0  0  0  0  0  0  0
   -0.7943   -0.1769   -0.5285 H   0  0  0  0  0  0  0  0  0  0  0  0
    2.5880    0.5886   -3.0090 H   0  0  0  0  0  0  0  0  0  0  0  0
    3.6608    0.4349   -1.6029 H   0  0  0  0  0  0  0  0  0  0  0  0
    1.6723   -1.6356   -2.6663 H   0  0  0  0  0  0  0  0  0  0  0  0
    3.3310   -1.9190   -2.1226 H   0  0  0  0  0  0  0  0  0  0  0  0
    1.1858   -2.3853   -0.4202 H   0  0  0  0  0  0  0  0  0  0  0  0
    3.8768   -1.8328    0.7093 H   0  0  0  0  0  0  0  0  0  0  0  0
    2.8979    0.7942    1.4277 H   0  0  0  0  0  0  0  0  0  0  0  0
  1 11  1  0  0  0  0
  1 10  1  0  0  0  0
  2  1  1  1  0  0  0
  2  9  1  0  0  0  0
  3  2  1  0  0  0  0
  4  5  1  0  0  0  0
  4 14  1  0  0  0  0
  4  3  1  0  0  0  0
  5  6  1  0  0  0  0
  6 17  1  1  0  0  0
  6  2  1  0  0  0  0
  6  7  1  0  0  0  0
  7 18  1  6  0  0  0
  7  9  1  0  0  0  0
  7  8  1  0  0  0  0
  9 19  1  1  0  0  0
  9  8  1  0  0  0  0
 12  1  1  0  0  0  0
 13  4  1  0  0  0  0
 15  5  1  0  0  0  0
 16  5  1  0  0  0  0
M TOR 0 0 1 2 3
M TOR 1 0 1 5 4
M TOR 2 0 1 5 6
M TOR 3 0 1 5 16
M TOR 4 0 1 8 6
M TOR 5 0 1 8 7
M TOR 6 0 1 8 18
M TOR 7 1 2 3 4
M TOR 8 1 2 3 12
M TOR 9 1 2 3 13
M TOR 10 1 5 4 3
M TOR 11 1 5 4 14
M TOR 12 1 5 4 15
M TOR 13 1 5 6 7
M TOR 14 1 5 6 8
M TOR 15 1 5 6 17
M TOR 16 1 8 6 7
M TOR 17 1 8 6 17
M TOR 18 2 1 0 9
M TOR 19 2 1 0 10
M TOR 20 2 1 0 11
M TOR 21 2 1 5 4
M TOR 22 2 1 5 6
M TOR 23 2 1 5 16
M TOR 24 2 1 8 6
M TOR 25 2 1 8 7
M TOR 26 2 1 8 18
M TOR 27 2 3 4 5
M TOR 28 2 3 4 14
M TOR 29 2 3 4 15
M TOR 30 3 2 1 5
M TOR 31 3 2 1 8
M TOR 32 3 4 5 6
M TOR 33 3 4 5 16
M TOR 34 4 5 1 8
M TOR 35 4 5 6 7
M TOR 36 4 5 6 8
M TOR 37 4 5 6 17
M TOR 38 5 1 0 9
M TOR 39 5 1 0 10
M TOR 40 5 1 0 11
M TOR 41 5 1 8 7
M TOR 42 5 1 8 18
M TOR 43 5 4 3 12
M TOR 44 5 4 3 13
M TOR 45 5 6 7 8
M TOR 46 5 6 8 18
M TOR 47 6 5 4 14
M TOR 48 6 5 4 15
M TOR 49 6 7 8 18
M TOR 50 7 6 5 16
M TOR 51 7 8 6 17
M TOR 52 8 1 0 9
M TOR 53 8 1 0 10
M TOR 54 8 1 0 11
M TOR 55 8 1 5 16
M TOR 56 8 6 5 16
M  END
$$$$
