
     RDKit          3D

 19 21  0  0  0  0  0  0  0  0999 V2000
    3.0428    1.2567    0.3295 C   0  0  0  0  0  0  0  0  0  0  0  0
    1.9719    0.1843    0.1712 C   0  0  0  0  0  0  0  0  0  0  0  0
    2.1531   -0.7233   -1.0699 C   0  0  0  0  0  0  0  0  0  0  0  0
    2.9026   -0.3667   -2.1759 O   0  0  0  0  0  0  0  0  0  0  0  0
    1.1402   -1.8257   -1.0836 C   0  0  0  0  0  0  0  0  0  0  0  0
    2.3676   -1.9558   -0.1947 C   0  0  0  0  0  0  0  0  0  0  0  0
    2.1836   -1.0904    1.0255 C   0  0  0  0  0  0  0  0  0  0  0  0
    2.7937   -1.2161    2.3474 C   0  0  0  0  0  0  0  0  0  0  0  0
    1.3911   -1.4504    2.1486 O   0  0  0  0  0  0  0  0  0  0  0  0
    2.9480    1.7641    1.2945 H   0  0  0  0  0  0  0  0  0  0  0  0
    4.0469    0.8264    0.2633 H   0  0  0  0  0  0  0  0  0  0  0  0
    2.9557    2.0114   -0.4583 H   0  0  0  0  0  0  0  0  0  0  0  0
    0.9705    0.6197    0.2718 H   0  0  0  0  0  0  0  0  0  0  0  0
    2.3139    0.0352   -2.8242 H   0  0  0  0  0  0  0  0  0  0  0  0
    0.1526   -1.7004   -0.6466 H   0  0  0  0  0  0  0  0  0  0  0  0
    1.1747   -2.4557   -1.9670 H   0  0  0  0  0  0  0  0  0  0  0  0
    3.0650   -2.7765   -0.3070 H   0  0  0  0  0  0  0  0  0  0  0  0
    3.3844   -2.0998    2.5882 H   0  0  0  0  0  0  0  0  0  0  0  0
    3.0425   -0.3245    2.9216 H   0  0  0  0  0  0  0  0  0  0  0  0
  1  2  1  0
  2  3  1  0
  3  4  1  0
  3  5  1  0
  5  6  1  0
  6  7  1  0
  7  8  1  0
  8  9  1  0
  7  2  1  0
  9  7  1  0
  6  3  1  0
  1 10  1  0
  1 11  1  0
  1 12  1  0
  2 13  1  0
  4 14  1  0
  5 15  1  0
  5 16  1  0
  6 17  1  0
  8 18  1  0
  8 19  1  0
M  END
$$$$
