
     RDKit          3D

 19 20  0  0  0  0  0  0  0  0999 V2000
   -1.5220    0.3531    2.5613 C   0  0  0  0  0  0  0  0  0  0  0  0
   -2.3921    0.2568    1.3275 C   0  0  0  0  0  0  0  0  0  0  0  0
   -1.9884    0.8061   -0.0164 C   0  0  0  0  0  0  0  0  0  0  0  0
   -0.6250    1.1345   -0.2008 O   0  0  0  0  0  0  0  0  0  0  0  0
    0.1557    0.0101   -0.1983 C   0  0  0  0  0  0  0  0  0  0  0  0
    1.3430    0.0596   -0.3203 O   0  0  0  0  0  0  0  0  0  0  0  0
   -0.7301   -1.2237   -0.0017 C   0  0  0  0  0  0  0  0  0  0  0  0
   -2.1413   -0.6872    0.1527 C   0  0  0  0  0  0  0  0  0  0  0  0
   -3.2866   -1.4671   -0.4483 C   0  0  0  0  0  0  0  0  0  0  0  0
   -1.7311   -0.4718    3.2506 H   0  0  0  0  0  0  0  0  0  0  0  0
   -0.4546    0.3321    2.3304 H   0  0  0  0  0  0  0  0  0  0  0  0
   -1.7173    1.2901    3.0924 H   0  0  0  0  0  0  0  0  0  0  0  0
   -3.4530    0.3872    1.5313 H   0  0  0  0  0  0  0  0  0  0  0  0
   -2.6424    1.4283   -0.6158 H   0  0  0  0  0  0  0  0  0  0  0  0
   -0.6359   -1.8643   -0.8850 H   0  0  0  0  0  0  0  0  0  0  0  0
   -0.3534   -1.7977    0.8502 H   0  0  0  0  0  0  0  0  0  0  0  0
   -3.4510   -2.4089    0.0876 H   0  0  0  0  0  0  0  0  0  0  0  0
   -4.2198   -0.8968   -0.4041 H   0  0  0  0  0  0  0  0  0  0  0  0
   -3.0930   -1.7109   -1.4993 H   0  0  0  0  0  0  0  0  0  0  0  0
  1  2  1  0
  2  3  1  0
  3  4  1  0
  4  5  1  0
  5  6  2  0
  5  7  1  0
  7  8  1  0
  8  9  1  0
  8  2  1  0
  8  3  1  0
  1 10  1  0
  1 11  1  0
  1 12  1  0
  2 13  1  0
  3 14  1  0
  7 15  1  0
  7 16  1  0
  9 17  1  0
  9 18  1  0
  9 19  1  0
M  END
$$$$
