gdb 3670	3.1116072	1.4454591	1.2820136	1.0616	75.16	-0.23284	0.08372	0.31656	1063.7707	0.157216	-422.511911	-422.504096	-422.503152	-422.54401	30.498
 OpenBabel02181911413D

 19 21  0  0  1  0  0  0  0  0999 V2000
    0.0918    0.4427    0.0429 C   0  0  0  0  0  0  0  0  0  0  0  0
    0.9712   -0.7770   -0.0294 C   0  0  2  0  0  0  0  0  0  0  0  0
    2.1539   -0.7781    0.8182 O   0  0  0  0  0  0  0  0  0  0  0  0
    2.3179   -0.7560   -0.5818 C   0  0  1  0  0  0  0  0  0  0  0  0
    3.2133   -1.7577   -1.3453 C   0  0  2  0  0  0  0  0  0  0  0  0
    4.3521   -0.7080   -1.1080 C   0  0  0  0  0  0  0  0  0  0  0  0
    3.1747    0.2769   -1.3333 C   0  0  1  0  0  0  0  0  0  0  0  0
    2.8008    0.0503   -2.7020 O   0  0  0  0  0  0  0  0  0  0  0  0
    2.8050   -1.4001   -2.7801 C   0  0  0  0  0  0  0  0  0  0  0  0
   -0.4929    0.4425    0.9686 H   0  0  0  0  0  0  0  0  0  0  0  0
    0.6898    1.3566    0.0128 H   0  0  0  0  0  0  0  0  0  0  0  0
   -0.6080    0.4565   -0.7994 H   0  0  0  0  0  0  0  0  0  0  0  0
    0.4468   -1.7345   -0.0214 H   0  0  0  0  0  0  0  0  0  0  0  0
    3.2965   -2.8075   -1.0704 H   0  0  0  0  0  0  0  0  0  0  0  0
    4.7152   -0.7141   -0.0799 H   0  0  0  0  0  0  0  0  0  0  0  0
    5.1722   -0.6675   -1.8284 H   0  0  0  0  0  0  0  0  0  0  0  0
    3.2045    1.3425   -1.1172 H   0  0  0  0  0  0  0  0  0  0  0  0
    1.8064   -1.7619   -3.0514 H   0  0  0  0  0  0  0  0  0  0  0  0
    3.5240   -1.7313   -3.5386 H   0  0  0  0  0  0  0  0  0  0  0  0
  1 10  1  0  0  0  0
  2 13  1  6  0  0  0
  2  1  1  0  0  0  0
  2  3  1  0  0  0  0
  4  2  1  0  0  0  0
  4  3  1  1  0  0  0
  5  6  1  0  0  0  0
  5 14  1  1  0  0  0
  5  4  1  0  0  0  0
  6 15  1  0  0  0  0
  7 17  1  1  0  0  0
  7  6  1  0  0  0  0
  7  4  1  0  0  0  0
  8  7  1  0  0  0  0
  9  8  1  0  0  0  0
  9  5  1  0  0  0  0
 11  1  1  0  0  0  0
 12  1  1  0  0  0  0
 16  6  1  0  0  0  0
 18  9  1  0  0  0  0
 19  9  1  0  0  0  0
M TOR 0 0 1 2 3
M TOR 1 0 1 3 4
M TOR 2 0 1 3 6
M TOR 3 1 2 3 4
M TOR 4 1 2 3 6
M TOR 5 1 3 4 5
M TOR 6 1 3 4 8
M TOR 7 1 3 4 13
M TOR 8 1 3 6 5
M TOR 9 1 3 6 7
M TOR 10 1 3 6 16
M TOR 11 2 1 0 9
M TOR 12 2 1 0 10
M TOR 13 2 1 0 11
M TOR 14 2 3 1 12
M TOR 15 2 3 4 5
M TOR 16 2 3 4 8
M TOR 17 2 3 4 13
M TOR 18 2 3 6 5
M TOR 19 2 3 6 7
M TOR 20 2 3 6 16
M TOR 21 3 1 0 9
M TOR 22 3 1 0 10
M TOR 23 3 1 0 11
M TOR 24 3 4 5 6
M TOR 25 3 4 5 14
M TOR 26 3 4 5 15
M TOR 27 3 4 8 7
M TOR 28 3 4 8 17
M TOR 29 3 4 8 18
M TOR 30 3 6 5 14
M TOR 31 3 6 5 15
M TOR 32 3 6 7 8
M TOR 33 4 3 1 12
M TOR 34 4 3 6 7
M TOR 35 4 3 6 16
M TOR 36 4 5 6 7
M TOR 37 4 5 6 16
M TOR 38 4 8 7 6
M TOR 39 5 4 8 7
M TOR 40 5 4 8 17
M TOR 41 5 4 8 18
M TOR 42 5 6 7 8
M TOR 43 6 3 1 12
M TOR 44 6 3 4 8
M TOR 45 6 3 4 13
M TOR 46 6 5 4 8
M TOR 47 6 5 4 13
M TOR 48 6 7 8 17
M TOR 49 6 7 8 18
M TOR 50 7 6 5 14
M TOR 51 7 6 5 15
M TOR 52 7 8 4 13
M TOR 53 8 4 5 14
M TOR 54 8 4 5 15
M TOR 55 8 7 6 16
M  END
$$$$
