gdb 1127	3.4556776	1.2866786	1.1269852	3.8906	74.62	-0.24125	-0.01069	0.23056	1137.3977	0.156888	-422.557554	-422.549227	-422.548283	-422.591881	30.896
 OpenBabel02181911403D

 19 20  0  0  1  0  0  0  0  0999 V2000
   -1.1203   -1.2987   -0.8287 C   0  0  0  0  0  0  0  0  0  0  0  0
   -0.5088   -1.6786    0.5091 C   0  0  0  0  0  0  0  0  0  0  0  0
   -0.7070   -2.7587    1.0154 O   0  0  0  0  0  0  0  0  0  0  0  0
    0.4106   -0.6508    1.1595 C   0  0  1  0  0  0  0  0  0  0  0  0
   -0.2240    0.7528    1.4696 C   0  0  0  0  0  0  0  0  0  0  0  0
    0.0409    0.7429    2.9914 C   0  0  2  0  0  0  0  0  0  0  0  0
    1.5034    0.2667    3.1221 C   0  0  0  0  0  0  0  0  0  0  0  0
    0.8031   -1.0109    2.6102 C   0  0  1  0  0  0  0  0  0  0  0  0
   -0.3882   -0.6035    3.3554 O   0  0  0  0  0  0  0  0  0  0  0  0
   -1.6651   -2.1500   -1.2385 H   0  0  0  0  0  0  0  0  0  0  0  0
   -1.8046   -0.4515   -0.7128 H   0  0  0  0  0  0  0  0  0  0  0  0
   -0.3412   -0.9812   -1.5311 H   0  0  0  0  0  0  0  0  0  0  0  0
    1.2887   -0.5451    0.5096 H   0  0  0  0  0  0  0  0  0  0  0  0
    0.2634    1.5776    0.9437 H   0  0  0  0  0  0  0  0  0  0  0  0
   -1.2963    0.7910    1.2655 H   0  0  0  0  0  0  0  0  0  0  0  0
   -0.3958    1.5338    3.6010 H   0  0  0  0  0  0  0  0  0  0  0  0
    2.2813    0.7385    2.5149 H   0  0  0  0  0  0  0  0  0  0  0  0
    1.8084    0.1722    4.1644 H   0  0  0  0  0  0  0  0  0  0  0  0
    1.1349   -2.0254    2.8159 H   0  0  0  0  0  0  0  0  0  0  0  0
  1 11  1  0  0  0  0
  1  2  1  0  0  0  0
  2  3  2  0  0  0  0
  2  4  1  0  0  0  0
  4 13  1  6  0  0  0
  4  5  1  0  0  0  0
  4  8  1  0  0  0  0
  5  6  1  0  0  0  0
  6  7  1  0  0  0  0
  6  9  1  0  0  0  0
  6 16  1  1  0  0  0
  7 18  1  0  0  0  0
  8 19  1  1  0  0  0
  8  7  1  0  0  0  0
  8  9  1  0  0  0  0
 10  1  1  0  0  0  0
 12  1  1  0  0  0  0
 14  5  1  0  0  0  0
 15  5  1  0  0  0  0
 17  7  1  0  0  0  0
M TOR 0 0 1 3 4
M TOR 1 0 1 3 7
M TOR 2 0 1 3 12
M TOR 3 1 3 4 5
M TOR 4 1 3 4 13
M TOR 5 1 3 4 14
M TOR 6 1 3 7 6
M TOR 7 1 3 7 8
M TOR 8 1 3 7 18
M TOR 9 2 1 0 9
M TOR 10 2 1 0 10
M TOR 11 2 1 0 11
M TOR 12 2 1 3 4
M TOR 13 2 1 3 7
M TOR 14 2 1 3 12
M TOR 15 3 1 0 9
M TOR 16 3 1 0 10
M TOR 17 3 1 0 11
M TOR 18 3 4 5 6
M TOR 19 3 4 5 8
M TOR 20 3 4 5 15
M TOR 21 3 7 6 5
M TOR 22 3 7 6 16
M TOR 23 3 7 6 17
M TOR 24 3 7 8 5
M TOR 25 4 3 7 6
M TOR 26 4 3 7 8
M TOR 27 4 3 7 18
M TOR 28 4 5 6 7
M TOR 29 4 5 6 16
M TOR 30 4 5 6 17
M TOR 31 4 5 8 7
M TOR 32 5 4 3 7
M TOR 33 5 4 3 12
M TOR 34 5 6 7 8
M TOR 35 5 6 7 18
M TOR 36 5 8 7 18
M TOR 37 6 5 4 13
M TOR 38 6 5 4 14
M TOR 39 6 7 3 12
M TOR 40 7 3 4 13
M TOR 41 7 3 4 14
M TOR 42 7 6 5 15
M TOR 43 7 8 5 15
M TOR 44 8 5 4 13
M TOR 45 8 5 4 14
M TOR 46 8 5 6 16
M TOR 47 8 5 6 17
M TOR 48 8 7 3 12
M TOR 49 8 7 6 16
M TOR 50 8 7 6 17
M  END
$$$$
