gdb 2725	2.4463732	1.8474035	1.3475616	1.1883	75.88	-0.2428	0.00104	0.24384	1019.283	0.15523	-422.538735	-422.530156	-422.529212	-422.571037	33.889
 OpenBabel02181911413D

 19 20  0  0  1  0  0  0  0  0999 V2000
   -1.3795    2.2745   -0.9833 C   0  0  0  0  0  0  0  0  0  0  0  0
   -0.7053    1.0268   -1.4731 C   0  0  2  0  0  0  0  0  0  0  0  0
    0.3583    1.2385   -2.4790 O   0  0  0  0  0  0  0  0  0  0  0  0
    0.7470   -0.1471   -2.1374 C   0  0  2  0  0  0  0  0  0  0  0  0
    2.1202   -0.5545   -2.5839 C   0  0  0  0  0  0  0  0  0  0  0  0
   -0.5045   -0.9301   -2.5270 C   0  0  0  0  0  0  0  0  0  0  0  0
   -1.4839   -0.1386   -2.0786 C   0  0  0  0  0  0  0  0  0  0  0  0
    0.3869    0.2361   -0.6448 C   0  0  1  0  0  0  0  0  0  0  0  0
    1.3246    1.0258    0.0099 O   0  0  0  0  0  0  0  0  0  0  0  0
   -2.2058    2.0224   -0.3112 H   0  0  0  0  0  0  0  0  0  0  0  0
   -0.6742    2.9052   -0.4347 H   0  0  0  0  0  0  0  0  0  0  0  0
   -1.7809    2.8490   -1.8236 H   0  0  0  0  0  0  0  0  0  0  0  0
    2.2924   -1.6137   -2.3687 H   0  0  0  0  0  0  0  0  0  0  0  0
    2.2359   -0.3978   -3.6607 H   0  0  0  0  0  0  0  0  0  0  0  0
    2.8850    0.0280   -2.0624 H   0  0  0  0  0  0  0  0  0  0  0  0
   -0.5401   -1.9050   -2.9922 H   0  0  0  0  0  0  0  0  0  0  0  0
   -2.5559   -0.2759   -2.0693 H   0  0  0  0  0  0  0  0  0  0  0  0
    0.0602   -0.5529    0.0354 H   0  0  0  0  0  0  0  0  0  0  0  0
    1.5816    1.7057   -0.6298 H   0  0  0  0  0  0  0  0  0  0  0  0
  1 11  1  0  0  0  0
  1 10  1  0  0  0  0
  2  1  1  1  0  0  0
  2  8  1  0  0  0  0
  3  4  1  0  0  0  0
  3  2  1  0  0  0  0
  4  5  1  6  0  0  0
  4  8  1  0  0  0  0
  5 13  1  0  0  0  0
  5 15  1  0  0  0  0
  6  4  1  0  0  0  0
  6  7  2  0  0  0  0
  7 17  1  0  0  0  0
  7  2  1  0  0  0  0
  8  9  1  0  0  0  0
  8 18  1  1  0  0  0
 12  1  1  0  0  0  0
 14  5  1  0  0  0  0
 16  6  1  0  0  0  0
 19  9  1  0  0  0  0
M TOR 0 0 1 2 3
M TOR 1 0 1 6 5
M TOR 2 0 1 6 16
M TOR 3 0 1 7 3
M TOR 4 0 1 7 8
M TOR 5 0 1 7 17
M TOR 6 1 2 3 4
M TOR 7 1 2 3 5
M TOR 8 1 2 3 7
M TOR 9 1 6 5 3
M TOR 10 1 6 5 15
M TOR 11 1 7 3 4
M TOR 12 1 7 3 5
M TOR 13 1 7 8 18
M TOR 14 2 1 0 9
M TOR 15 2 1 0 10
M TOR 16 2 1 0 11
M TOR 17 2 1 6 5
M TOR 18 2 1 6 16
M TOR 19 2 1 7 8
M TOR 20 2 1 7 17
M TOR 21 2 3 4 12
M TOR 22 2 3 4 13
M TOR 23 2 3 4 14
M TOR 24 2 3 5 6
M TOR 25 2 3 5 15
M TOR 26 2 3 7 8
M TOR 27 2 3 7 17
M TOR 28 3 2 1 6
M TOR 29 3 5 6 16
M TOR 30 3 7 1 6
M TOR 31 3 7 8 18
M TOR 32 4 3 5 6
M TOR 33 4 3 5 15
M TOR 34 4 3 7 8
M TOR 35 4 3 7 17
M TOR 36 5 3 4 12
M TOR 37 5 3 4 13
M TOR 38 5 3 4 14
M TOR 39 5 3 7 8
M TOR 40 5 3 7 17
M TOR 41 5 6 1 7
M TOR 42 6 1 0 9
M TOR 43 6 1 0 10
M TOR 44 6 1 0 11
M TOR 45 6 1 7 8
M TOR 46 6 1 7 17
M TOR 47 6 5 3 7
M TOR 48 7 1 0 9
M TOR 49 7 1 0 10
M TOR 50 7 1 0 11
M TOR 51 7 1 6 16
M TOR 52 7 3 4 12
M TOR 53 7 3 4 13
M TOR 54 7 3 4 14
M TOR 55 7 3 5 15
M  END
$$$$
