
     RDKit          3D

 19 21  0  0  0  0  0  0  0  0999 V2000
    0.9687    0.6679    3.3944 C   0  0  0  0  0  0  0  0  0  0  0  0
    0.4221   -0.2664    2.3372 C   0  0  0  0  0  0  0  0  0  0  0  0
   -0.3896   -1.4276    2.7368 C   0  0  0  0  0  0  0  0  0  0  0  0
    0.9790   -1.5923    2.3490 O   0  0  0  0  0  0  0  0  0  0  0  0
    0.2381    0.3277    0.9688 C   0  0  0  0  0  0  0  0  0  0  0  0
    1.4729    0.4118    0.0811 C   0  0  0  0  0  0  0  0  0  0  0  0
    1.0872    1.0653   -1.2402 C   0  0  0  0  0  0  0  0  0  0  0  0
   -0.0228    0.1393   -1.4184 O   0  0  0  0  0  0  0  0  0  0  0  0
    0.3634   -0.5600   -0.2324 C   0  0  0  0  0  0  0  0  0  0  0  0
    1.0900    0.1457    4.3465 H   0  0  0  0  0  0  0  0  0  0  0  0
    1.9424    1.0650    3.0902 H   0  0  0  0  0  0  0  0  0  0  0  0
    0.2933    1.5172    3.5439 H   0  0  0  0  0  0  0  0  0  0  0  0
   -0.5960   -1.6033    3.7917 H   0  0  0  0  0  0  0  0  0  0  0  0
   -1.1224   -1.8366    2.0432 H   0  0  0  0  0  0  0  0  0  0  0  0
   -0.4870    1.1393    0.9187 H   0  0  0  0  0  0  0  0  0  0  0  0
    2.4735    0.2286    0.4478 H   0  0  0  0  0  0  0  0  0  0  0  0
    0.7583    2.1115   -1.2198 H   0  0  0  0  0  0  0  0  0  0  0  0
    1.8305    0.9262   -2.0334 H   0  0  0  0  0  0  0  0  0  0  0  0
    0.3185   -1.6414   -0.2235 H   0  0  0  0  0  0  0  0  0  0  0  0
  1  2  1  0
  2  3  1  0
  3  4  1  0
  2  5  1  0
  5  6  1  0
  6  7  1  0
  7  8  1  0
  8  9  1  0
  4  2  1  0
  9  5  1  0
  9  6  1  0
  1 10  1  0
  1 11  1  0
  1 12  1  0
  3 13  1  0
  3 14  1  0
  5 15  1  0
  6 16  1  0
  7 17  1  0
  7 18  1  0
  9 19  1  0
M  END
$$$$
