
     RDKit          3D

 19 21  0  0  0  0  0  0  0  0999 V2000
   -0.1533    1.3136    0.0008 C   0  0  0  0  0  0  0  0  0  0  0  0
    0.0839   -0.1066    0.1775 O   0  0  0  0  0  0  0  0  0  0  0  0
    1.3462   -0.0430   -0.5528 C   0  0  0  0  0  0  0  0  0  0  0  0
    2.5115   -0.8071    0.0734 C   0  0  0  0  0  0  0  0  0  0  0  0
    3.2515   -0.0050    1.1564 C   0  0  0  0  0  0  0  0  0  0  0  0
    3.6415    1.4000    0.6475 C   0  0  0  0  0  0  0  0  0  0  0  0
    2.3808    2.1860    0.3275 C   0  0  0  0  0  0  0  0  0  0  0  0
    2.0394    2.4377   -1.0627 O   0  0  0  0  0  0  0  0  0  0  0  0
    1.3153    1.4661   -0.3583 C   0  0  0  0  0  0  0  0  0  0  0  0
   -0.8475    1.5134   -0.8271 H   0  0  0  0  0  0  0  0  0  0  0  0
   -0.5172    1.7950    0.9143 H   0  0  0  0  0  0  0  0  0  0  0  0
    1.1843   -0.3533   -1.5948 H   0  0  0  0  0  0  0  0  0  0  0  0
    2.1324   -1.7543    0.4726 H   0  0  0  0  0  0  0  0  0  0  0  0
    3.2173   -1.0626   -0.7271 H   0  0  0  0  0  0  0  0  0  0  0  0
    2.6129    0.0997    2.0423 H   0  0  0  0  0  0  0  0  0  0  0  0
    4.1439   -0.5536    1.4745 H   0  0  0  0  0  0  0  0  0  0  0  0
    4.2414    1.9283    1.3945 H   0  0  0  0  0  0  0  0  0  0  0  0
    4.2522    1.3182   -0.2592 H   0  0  0  0  0  0  0  0  0  0  0  0
    2.1171    3.0123    0.9856 H   0  0  0  0  0  0  0  0  0  0  0  0
  1  2  1  0
  2  3  1  0
  3  4  1  0
  4  5  1  0
  5  6  1  0
  6  7  1  0
  7  8  1  0
  8  9  1  0
  9  1  1  0
  9  3  1  0
  9  7  1  0
  1 10  1  0
  1 11  1  0
  3 12  1  0
  4 13  1  0
  4 14  1  0
  5 15  1  0
  5 16  1  0
  6 17  1  0
  6 18  1  0
  7 19  1  0
M  END
$$$$
