gdb 240	3.1266353	1.8470224	1.5886498	2.4223	73.99	-0.23711	0.08393	0.32104	907.0791	0.160785	-422.541099	-422.534656	-422.533712	-422.571536	26.959
 OpenBabel02181911403D

 19 21  0  0  1  0  0  0  0  0999 V2000
    0.3907    1.6367   -0.7858 C   0  0  0  0  0  0  0  0  0  0  0  0
    0.1796    1.1484    0.6686 C   0  0  2  0  0  0  0  0  0  0  0  0
    1.4669    1.3969    1.2566 O   0  0  0  0  0  0  0  0  0  0  0  0
    2.3430    0.7497    0.3053 C   0  0  1  0  0  0  0  0  0  0  0  0
    2.9383   -0.5024    0.9570 C   0  0  0  0  0  0  0  0  0  0  0  0
    1.9593   -1.2335    1.6645 O   0  0  0  0  0  0  0  0  0  0  0  0
    0.7667   -1.4830    0.9426 C   0  0  0  0  0  0  0  0  0  0  0  0
    0.2778   -0.3071    0.1093 C   0  0  2  0  0  0  0  0  0  0  0  0
    1.3308    0.4000   -0.8041 C   0  0  1  0  0  0  0  0  0  0  0  0
   -0.4799    1.5099   -1.4323 H   0  0  0  0  0  0  0  0  0  0  0  0
    0.8317    2.6294   -0.9012 H   0  0  0  0  0  0  0  0  0  0  0  0
   -0.6068    1.5009    1.3340 H   0  0  0  0  0  0  0  0  0  0  0  0
    3.1306    1.4422   -0.0123 H   0  0  0  0  0  0  0  0  0  0  0  0
    3.4281   -1.1166    0.1797 H   0  0  0  0  0  0  0  0  0  0  0  0
    3.6945   -0.2286    1.6985 H   0  0  0  0  0  0  0  0  0  0  0  0
    0.9034   -2.3443    0.2635 H   0  0  0  0  0  0  0  0  0  0  0  0
    0.0221   -1.7740    1.6917 H   0  0  0  0  0  0  0  0  0  0  0  0
   -0.6232   -0.5824   -0.4449 H   0  0  0  0  0  0  0  0  0  0  0  0
    1.7216   -0.0491   -1.7168 H   0  0  0  0  0  0  0  0  0  0  0  0
  1  2  1  0  0  0  0
  2  3  1  0  0  0  0
  2 12  1  1  0  0  0
  4 13  1  6  0  0  0
  4  5  1  0  0  0  0
  4  3  1  0  0  0  0
  5  6  1  0  0  0  0
  5 15  1  0  0  0  0
  7  6  1  0  0  0  0
  7 17  1  0  0  0  0
  8 18  1  6  0  0  0
  8  2  1  0  0  0  0
  8  7  1  0  0  0  0
  9 19  1  6  0  0  0
  9  1  1  0  0  0  0
  9  8  1  0  0  0  0
  9  4  1  0  0  0  0
 10  1  1  0  0  0  0
 11  1  1  0  0  0  0
 14  5  1  0  0  0  0
 16  7  1  0  0  0  0
M TOR 0 0 1 2 3
M TOR 1 0 1 7 6
M TOR 2 0 1 7 8
M TOR 3 0 1 7 17
M TOR 4 0 8 3 2
M TOR 5 0 8 3 4
M TOR 6 0 8 3 12
M TOR 7 0 8 7 6
M TOR 8 0 8 7 17
M TOR 9 1 0 8 3
M TOR 10 1 0 8 18
M TOR 11 1 2 3 4
M TOR 12 1 2 3 8
M TOR 13 1 2 3 12
M TOR 14 1 7 6 5
M TOR 15 1 7 6 15
M TOR 16 1 7 6 16
M TOR 17 1 7 8 3
M TOR 18 1 7 8 18
M TOR 19 2 1 0 8
M TOR 20 2 1 0 9
M TOR 21 2 1 0 10
M TOR 22 2 1 7 6
M TOR 23 2 1 7 8
M TOR 24 2 1 7 17
M TOR 25 2 3 4 5
M TOR 26 2 3 4 13
M TOR 27 2 3 4 14
M TOR 28 2 3 8 7
M TOR 29 2 3 8 18
M TOR 30 3 2 1 7
M TOR 31 3 2 1 11
M TOR 32 3 4 5 6
M TOR 33 3 8 0 9
M TOR 34 3 8 0 10
M TOR 35 3 8 7 6
M TOR 36 3 8 7 17
M TOR 37 4 3 8 7
M TOR 38 4 3 8 18
M TOR 39 4 5 6 7
M TOR 40 4 5 6 15
M TOR 41 4 5 6 16
M TOR 42 5 4 3 8
M TOR 43 5 4 3 12
M TOR 44 5 6 7 8
M TOR 45 5 6 7 17
M TOR 46 6 5 4 13
M TOR 47 6 5 4 14
M TOR 48 6 7 1 11
M TOR 49 6 7 8 18
M TOR 50 7 1 0 9
M TOR 51 7 1 0 10
M TOR 52 7 8 0 9
M TOR 53 7 8 0 10
M TOR 54 7 8 3 12
M TOR 55 8 0 1 11
M TOR 56 8 3 4 13
M TOR 57 8 3 4 14
M TOR 58 8 7 1 11
M TOR 59 8 7 6 15
M TOR 60 8 7 6 16
M  END
$$$$
