
     RDKit          3D

 19 21  0  0  0  0  0  0  0  0999 V2000
   -3.5287    1.8989    2.5489 C   0  0  0  0  0  0  0  0  0  0  0  0
   -2.9028    1.2144    1.3695 C   0  0  0  0  0  0  0  0  0  0  0  0
   -2.6988   -0.3218    1.3496 C   0  0  0  0  0  0  0  0  0  0  0  0
   -1.8190   -0.2971    0.0877 C   0  0  0  0  0  0  0  0  0  0  0  0
   -0.5866    0.4847    0.5920 C   0  0  0  0  0  0  0  0  0  0  0  0
    0.3614    0.6217   -0.4503 O   0  0  0  0  0  0  0  0  0  0  0  0
   -1.5591    1.6784    0.6661 C   0  0  0  0  0  0  0  0  0  0  0  0
   -2.3728    1.0919   -0.5056 C   0  0  0  0  0  0  0  0  0  0  0  0
   -3.6286    1.3911    0.1066 O   0  0  0  0  0  0  0  0  0  0  0  0
   -4.5219    1.4821    2.7472 H   0  0  0  0  0  0  0  0  0  0  0  0
   -2.9135    1.7567    3.4431 H   0  0  0  0  0  0  0  0  0  0  0  0
   -3.6372    2.9718    2.3671 H   0  0  0  0  0  0  0  0  0  0  0  0
   -2.1787   -0.7245    2.2239 H   0  0  0  0  0  0  0  0  0  0  0  0
   -3.6579   -0.8286    1.2250 H   0  0  0  0  0  0  0  0  0  0  0  0
   -1.6994   -1.1989   -0.5088 H   0  0  0  0  0  0  0  0  0  0  0  0
   -0.1149    0.1260    1.5176 H   0  0  0  0  0  0  0  0  0  0  0  0
    0.9623    1.3365   -0.2164 H   0  0  0  0  0  0  0  0  0  0  0  0
   -1.2596    2.7232    0.7513 H   0  0  0  0  0  0  0  0  0  0  0  0
   -2.2881    1.3277   -1.5625 H   0  0  0  0  0  0  0  0  0  0  0  0
  1  2  1  0
  2  3  1  0
  3  4  1  0
  4  5  1  0
  5  6  1  0
  5  7  1  0
  7  8  1  0
  8  9  1  0
  7  2  1  0
  9  2  1  0
  8  4  1  0
  1 10  1  0
  1 11  1  0
  1 12  1  0
  3 13  1  0
  3 14  1  0
  4 15  1  0
  5 16  1  0
  6 17  1  0
  7 18  1  0
  8 19  1  0
M  END
$$$$
