gdb 4432	2.4974972	1.342788	1.2370007	4.1513	75.06	-0.26433	0.00645	0.27078	1132.1251	0.15717	-422.57427	-422.565718	-422.564774	-422.607685	31.632
 OpenBabel02181911413D

 19 20  0  0  1  0  0  0  0  0999 V2000
   -1.9728    2.2103   -2.0731 C   0  0  0  0  0  0  0  0  0  0  0  0
   -0.9724    2.2130   -0.9290 C   0  0  1  0  0  0  0  0  0  0  0  0
   -1.1703    3.1992    0.2561 C   0  0  0  0  0  0  0  0  0  0  0  0
   -0.7190    2.0746    1.2237 C   0  0  0  0  0  0  0  0  0  0  0  0
   -0.9566    1.0357    0.0971 C   0  0  1  0  0  0  0  0  0  0  0  0
   -2.0698   -0.0236    0.1891 C   0  0  0  0  0  0  0  0  0  0  0  0
   -1.0792   -1.0897    0.0044 O   0  0  0  0  0  0  0  0  0  0  0  0
   -0.0550   -0.1779   -0.0854 C   0  0  0  0  0  0  0  0  0  0  0  0
    1.1030   -0.3935   -0.2536 O   0  0  0  0  0  0  0  0  0  0  0  0
   -3.0033    2.1337   -1.7092 H   0  0  0  0  0  0  0  0  0  0  0  0
   -1.8963    3.1394   -2.6479 H   0  0  0  0  0  0  0  0  0  0  0  0
   -1.7947    1.3788   -2.7640 H   0  0  0  0  0  0  0  0  0  0  0  0
    0.0447    2.3115   -1.3241 H   0  0  0  0  0  0  0  0  0  0  0  0
   -0.5878    4.1229    0.2460 H   0  0  0  0  0  0  0  0  0  0  0  0
   -2.2260    3.4549    0.3923 H   0  0  0  0  0  0  0  0  0  0  0  0
    0.3435    2.1373    1.4732 H   0  0  0  0  0  0  0  0  0  0  0  0
   -1.2892    1.9334    2.1449 H   0  0  0  0  0  0  0  0  0  0  0  0
   -2.5627   -0.1205    1.1596 H   0  0  0  0  0  0  0  0  0  0  0  0
   -2.8042   -0.0424   -0.6185 H   0  0  0  0  0  0  0  0  0  0  0  0
  1 10  1  0  0  0  0
  1  2  1  0  0  0  0
  2 13  1  6  0  0  0
  2  5  1  0  0  0  0
  2  3  1  0  0  0  0
  3 15  1  0  0  0  0
  3  4  1  0  0  0  0
  4 16  1  0  0  0  0
  4 17  1  0  0  0  0
  5  8  1  6  0  0  0
  5  6  1  0  0  0  0
  5  4  1  0  0  0  0
  6 18  1  0  0  0  0
  7  6  1  0  0  0  0
  8  7  1  0  0  0  0
  9  8  2  0  0  0  0
 11  1  1  0  0  0  0
 12  1  1  0  0  0  0
 14  3  1  0  0  0  0
 19  6  1  0  0  0  0
M TOR 0 0 1 2 3
M TOR 1 0 1 2 13
M TOR 2 0 1 2 14
M TOR 3 0 1 4 3
M TOR 4 0 1 4 5
M TOR 5 0 1 4 7
M TOR 6 1 2 3 4
M TOR 7 1 2 3 15
M TOR 8 1 2 3 16
M TOR 9 1 4 3 15
M TOR 10 1 4 3 16
M TOR 11 1 4 5 6
M TOR 12 1 4 5 17
M TOR 13 1 4 5 18
M TOR 14 1 4 7 6
M TOR 15 1 4 7 8
M TOR 16 2 1 0 9
M TOR 17 2 1 0 10
M TOR 18 2 1 0 11
M TOR 19 2 1 4 5
M TOR 20 2 1 4 7
M TOR 21 2 3 4 5
M TOR 22 2 3 4 7
M TOR 23 3 2 1 12
M TOR 24 3 4 1 12
M TOR 25 3 4 5 6
M TOR 26 3 4 5 17
M TOR 27 3 4 5 18
M TOR 28 3 4 7 6
M TOR 29 3 4 7 8
M TOR 30 4 1 0 9
M TOR 31 4 1 0 10
M TOR 32 4 1 0 11
M TOR 33 4 1 2 13
M TOR 34 4 1 2 14
M TOR 35 4 3 2 13
M TOR 36 4 3 2 14
M TOR 37 4 5 6 7
M TOR 38 5 4 1 12
M TOR 39 5 4 3 15
M TOR 40 5 4 3 16
M TOR 41 5 4 7 8
M TOR 42 5 6 7 8
M TOR 43 7 4 1 12
M TOR 44 7 4 3 15
M TOR 45 7 4 3 16
M TOR 46 7 4 5 17
M TOR 47 7 4 5 18
M TOR 48 7 6 5 17
M TOR 49 7 6 5 18
M  END
$$$$
