gdb 5972	3.0389878	1.0518585	0.864358	2.705	76.52	-0.24176	-0.01003	0.23173	1354.7778	0.156035	-422.547838	-422.538695	-422.537751	-422.582377	33.297
 OpenBabel02181911423D

 19 20  0  0  1  0  0  0  0  0999 V2000
   -0.5014   -1.5554    1.9762 O   0  0  0  0  0  0  0  0  0  0  0  0
   -0.0619   -0.3866    1.3045 C   0  0  0  0  0  0  0  0  0  0  0  0
   -0.4383    0.8979    2.0584 C   0  0  0  0  0  0  0  0  0  0  0  0
    0.0051    2.1343    1.3263 C   0  0  1  0  0  0  0  0  0  0  0  0
   -0.7949    2.7697    0.1894 C   0  0  0  0  0  0  0  0  0  0  0  0
   -0.4624    3.6229    1.3596 C   0  0  2  0  0  0  0  0  0  0  0  0
    0.9808    4.1298    1.2191 C   0  0  0  0  0  0  0  0  0  0  0  0
    1.4154    2.6403    1.2599 C   0  0  0  0  0  0  0  0  0  0  0  0
    2.4764    2.1018    1.4211 O   0  0  0  0  0  0  0  0  0  0  0  0
    0.0288   -1.6530    2.7734 H   0  0  0  0  0  0  0  0  0  0  0  0
    1.0226   -0.4004    1.1263 H   0  0  0  0  0  0  0  0  0  0  0  0
   -0.5553   -0.3991    0.3266 H   0  0  0  0  0  0  0  0  0  0  0  0
   -1.5230    0.9133    2.2149 H   0  0  0  0  0  0  0  0  0  0  0  0
    0.0298    0.8748    3.0519 H   0  0  0  0  0  0  0  0  0  0  0  0
   -0.3355    2.9612   -0.7770 H   0  0  0  0  0  0  0  0  0  0  0  0
   -1.8148    2.4017    0.1292 H   0  0  0  0  0  0  0  0  0  0  0  0
   -1.2098    4.0397    2.0217 H   0  0  0  0  0  0  0  0  0  0  0  0
    1.2135    4.7091    0.3206 H   0  0  0  0  0  0  0  0  0  0  0  0
    1.3695    4.6554    2.0960 H   0  0  0  0  0  0  0  0  0  0  0  0
  1 10  1  0  0  0  0
  2  1  1  0  0  0  0
  2  3  1  0  0  0  0
  3 13  1  0  0  0  0
  3 14  1  0  0  0  0
  4  6  1  0  0  0  0
  4  3  1  1  0  0  0
  5  4  1  0  0  0  0
  5  6  1  0  0  0  0
  6 17  1  1  0  0  0
  7  8  1  0  0  0  0
  7  6  1  0  0  0  0
  7 19  1  0  0  0  0
  8  4  1  0  0  0  0
  8  9  2  0  0  0  0
 11  2  1  0  0  0  0
 12  2  1  0  0  0  0
 15  5  1  0  0  0  0
 16  5  1  0  0  0  0
 18  7  1  0  0  0  0
M TOR 0 0 1 2 3
M TOR 1 0 1 2 12
M TOR 2 0 1 2 13
M TOR 3 1 2 3 4
M TOR 4 1 2 3 5
M TOR 5 1 2 3 7
M TOR 6 2 1 0 9
M TOR 7 2 3 4 5
M TOR 8 2 3 4 14
M TOR 9 2 3 4 15
M TOR 10 2 3 5 6
M TOR 11 2 3 5 16
M TOR 12 2 3 7 6
M TOR 13 2 3 7 8
M TOR 14 3 2 1 10
M TOR 15 3 2 1 11
M TOR 16 3 4 5 6
M TOR 17 3 4 5 16
M TOR 18 3 5 4 14
M TOR 19 3 5 4 15
M TOR 20 3 5 6 7
M TOR 21 3 5 6 17
M TOR 22 3 5 6 18
M TOR 23 3 7 6 17
M TOR 24 3 7 6 18
M TOR 25 4 3 2 12
M TOR 26 4 3 2 13
M TOR 27 4 3 7 6
M TOR 28 4 3 7 8
M TOR 29 4 5 3 7
M TOR 30 4 5 6 7
M TOR 31 4 5 6 17
M TOR 32 4 5 6 18
M TOR 33 5 3 2 12
M TOR 34 5 3 2 13
M TOR 35 5 3 7 8
M TOR 36 5 6 7 8
M TOR 37 6 5 4 14
M TOR 38 6 5 4 15
M TOR 39 7 3 2 12
M TOR 40 7 3 2 13
M TOR 41 7 3 4 14
M TOR 42 7 3 4 15
M TOR 43 7 3 5 16
M TOR 44 7 6 5 16
M TOR 45 8 7 6 17
M TOR 46 8 7 6 18
M  END
$$$$
