gdb 5898	2.1305713	0.9368312	0.6839903	2.8175	79.52	-0.24649	-0.02332	0.22316999999999998	1637.205	0.152874	-422.521547	-422.510755	-422.509811	-422.558998	36.637
 OpenBabel02181911423D

 19 18  0  0  0  0  0  0  0  0999 V2000
    1.2156   -0.4501    0.6674 C   0  0  0  0  0  0  0  0  0  0  0  0
   -0.1272   -0.2538    1.0535 O   0  0  0  0  0  0  0  0  0  0  0  0
   -0.6258    1.0096    0.6910 C   0  0  0  0  0  0  0  0  0  0  0  0
   -2.0904    1.1756    1.1038 C   0  0  0  0  0  0  0  0  0  0  0  0
   -2.6235    2.2484    0.9445 O   0  0  0  0  0  0  0  0  0  0  0  0
   -2.8133   -0.0202    1.6981 C   0  0  0  0  0  0  0  0  0  0  0  0
   -2.4239   -0.2269    3.1869 C   0  0  0  0  0  0  0  0  0  0  0  0
   -3.1363   -1.3454    3.7890 C   0  0  0  0  0  0  0  0  0  0  0  0
   -3.7357   -2.2727    4.2639 C   0  0  0  0  0  0  0  0  0  0  0  0
    1.8850    0.2841    1.1411 H   0  0  0  0  0  0  0  0  0  0  0  0
    1.5030   -1.4535    0.9884 H   0  0  0  0  0  0  0  0  0  0  0  0
    1.3366   -0.3738   -0.4239 H   0  0  0  0  0  0  0  0  0  0  0  0
   -0.0471    1.8256    1.1533 H   0  0  0  0  0  0  0  0  0  0  0  0
   -0.5728    1.1639   -0.4007 H   0  0  0  0  0  0  0  0  0  0  0  0
   -3.8861    0.1664    1.6181 H   0  0  0  0  0  0  0  0  0  0  0  0
   -2.5552   -0.9256    1.1429 H   0  0  0  0  0  0  0  0  0  0  0  0
   -1.3441   -0.3965    3.2498 H   0  0  0  0  0  0  0  0  0  0  0  0
   -2.6407    0.6913    3.7466 H   0  0  0  0  0  0  0  0  0  0  0  0
   -4.2599   -3.0889    4.6953 H   0  0  0  0  0  0  0  0  0  0  0  0
  1 11  1  0  0  0  0
  1  2  1  0  0  0  0
  1 10  1  0  0  0  0
  3  2  1  0  0  0  0
  3  4  1  0  0  0  0
  3 13  1  0  0  0  0
  4  6  1  0  0  0  0
  5  4  2  0  0  0  0
  6  7  1  0  0  0  0
  7 17  1  0  0  0  0
  7 18  1  0  0  0  0
  7  8  1  0  0  0  0
  8  9  3  0  0  0  0
  9 19  1  0  0  0  0
 12  1  1  0  0  0  0
 14  3  1  0  0  0  0
 15  6  1  0  0  0  0
 16  6  1  0  0  0  0
M TOR 0 0 1 2 3
M TOR 1 0 1 2 12
M TOR 2 0 1 2 13
M TOR 3 1 2 3 4
M TOR 4 1 2 3 5
M TOR 5 2 1 0 9
M TOR 6 2 1 0 10
M TOR 7 2 1 0 11
M TOR 8 2 3 5 6
M TOR 9 2 3 5 14
M TOR 10 2 3 5 15
M TOR 11 3 5 6 7
M TOR 12 3 5 6 16
M TOR 13 3 5 6 17
M TOR 14 4 3 2 12
M TOR 15 4 3 2 13
M TOR 16 4 3 5 6
M TOR 17 4 3 5 14
M TOR 18 4 3 5 15
M TOR 19 5 3 2 12
M TOR 20 5 3 2 13
M TOR 21 5 6 7 8
M TOR 22 6 7 8 18
M TOR 23 7 6 5 14
M TOR 24 7 6 5 15
M TOR 25 8 7 6 16
M TOR 26 8 7 6 17
M  END
$$$$
