gdb 4854	2.7265778	1.4619236	1.2382448	3.0921	75.36	-0.24509	-0.00337	0.24172	1079.4177	0.15637	-422.545733	-422.537108	-422.536164	-422.578599	33.045
 OpenBabel02181911413D

 19 20  0  0  1  0  0  0  0  0999 V2000
    2.7384   -2.9287    0.2313 C   0  0  0  0  0  0  0  0  0  0  0  0
    2.5961   -1.4104    0.4286 C   0  0  1  0  0  0  0  0  0  0  0  0
    1.1112   -0.9867    0.4617 C   0  0  0  0  0  0  0  0  0  0  0  0
    0.3911   -1.3778   -0.6969 O   0  0  0  0  0  0  0  0  0  0  0  0
    3.3178   -0.9521    1.6893 C   0  0  0  0  0  0  0  0  0  0  0  0
    4.3643   -0.1628    1.4348 C   0  0  0  0  0  0  0  0  0  0  0  0
    4.4682    0.0903   -0.0328 C   0  0  2  0  0  0  0  0  0  0  0  0
    3.3036    0.7664   -0.5697 O   0  0  0  0  0  0  0  0  0  0  0  0
    3.3665   -0.6547   -0.6661 C   0  0  2  0  0  0  0  0  0  0  0  0
    2.2781   -3.4790    1.0597 H   0  0  0  0  0  0  0  0  0  0  0  0
    2.2607   -3.2453   -0.7025 H   0  0  0  0  0  0  0  0  0  0  0  0
    3.7916   -3.2204    0.1838 H   0  0  0  0  0  0  0  0  0  0  0  0
    0.6371   -1.3762    1.3760 H   0  0  0  0  0  0  0  0  0  0  0  0
    1.0668    0.1045    0.4959 H   0  0  0  0  0  0  0  0  0  0  0  0
    0.2025   -2.3183   -0.6312 H   0  0  0  0  0  0  0  0  0  0  0  0
    2.9721   -1.2387    2.6775 H   0  0  0  0  0  0  0  0  0  0  0  0
    5.0312    0.2717    2.1693 H   0  0  0  0  0  0  0  0  0  0  0  0
    5.4052    0.3347   -0.5234 H   0  0  0  0  0  0  0  0  0  0  0  0
    3.4085   -1.0557   -1.6754 H   0  0  0  0  0  0  0  0  0  0  0  0
  1 10  1  0  0  0  0
  2  1  1  6  0  0  0
  2  3  1  0  0  0  0
  2  5  1  0  0  0  0
  3 14  1  0  0  0  0
  3 13  1  0  0  0  0
  4 15  1  0  0  0  0
  4  3  1  0  0  0  0
  5 16  1  0  0  0  0
  6  5  2  0  0  0  0
  6 17  1  0  0  0  0
  7 18  1  6  0  0  0
  7  6  1  0  0  0  0
  8  7  1  0  0  0  0
  9 19  1  6  0  0  0
  9  8  1  0  0  0  0
  9  7  1  0  0  0  0
  9  2  1  0  0  0  0
 11  1  1  0  0  0  0
 12  1  1  0  0  0  0
M TOR 0 0 1 2 3
M TOR 1 0 1 2 12
M TOR 2 0 1 2 13
M TOR 3 0 1 4 5
M TOR 4 0 1 4 15
M TOR 5 0 1 8 6
M TOR 6 0 1 8 7
M TOR 7 0 1 8 18
M TOR 8 1 2 3 14
M TOR 9 1 4 5 6
M TOR 10 1 4 5 16
M TOR 11 1 8 6 5
M TOR 12 1 8 6 7
M TOR 13 1 8 6 17
M TOR 14 2 1 0 9
M TOR 15 2 1 0 10
M TOR 16 2 1 0 11
M TOR 17 2 1 4 5
M TOR 18 2 1 4 15
M TOR 19 2 1 8 6
M TOR 20 2 1 8 7
M TOR 21 2 1 8 18
M TOR 22 3 2 1 4
M TOR 23 3 2 1 8
M TOR 24 4 1 0 9
M TOR 25 4 1 0 10
M TOR 26 4 1 0 11
M TOR 27 4 1 2 12
M TOR 28 4 1 2 13
M TOR 29 4 1 8 6
M TOR 30 4 1 8 7
M TOR 31 4 1 8 18
M TOR 32 4 5 6 7
M TOR 33 4 5 6 8
M TOR 34 4 5 6 17
M TOR 35 5 4 1 8
M TOR 36 5 6 7 8
M TOR 37 5 6 8 18
M TOR 38 6 5 4 15
M TOR 39 6 7 8 18
M TOR 40 7 6 5 16
M TOR 41 7 8 6 17
M TOR 42 8 1 0 9
M TOR 43 8 1 0 10
M TOR 44 8 1 0 11
M TOR 45 8 1 2 12
M TOR 46 8 1 2 13
M TOR 47 8 1 4 15
M TOR 48 8 6 5 16
M  END
$$$$
