gdb 2995	3.4938672	1.1745413	0.9916742	3.666	76.73	-0.24523	-0.01968	0.22555	1225.8856	0.154757	-422.536878	-422.527616	-422.526672	-422.570838	33.953
 OpenBabel02181911413D

 19 20  0  0  1  0  0  0  0  0999 V2000
    2.5038   -0.6685   -1.2195 C   0  0  0  0  0  0  0  0  0  0  0  0
    1.6246   -0.2901   -0.0458 C   0  0  2  0  0  0  0  0  0  0  0  0
    1.6368    1.1568    0.4094 C   0  0  1  0  0  0  0  0  0  0  0  0
    0.5828    1.3699    1.5017 C   0  0  0  0  0  0  0  0  0  0  0  0
    1.2750    0.2860    2.3814 C   0  0  2  0  0  0  0  0  0  0  0  0
    1.9056    0.8122    3.6508 C   0  0  0  0  0  0  0  0  0  0  0  0
    1.8566    1.9544    4.0298 O   0  0  0  0  0  0  0  0  0  0  0  0
    2.3105    0.0793    1.2448 C   0  0  1  0  0  0  0  0  0  0  0  0
    3.6627   -0.1111    1.4696 O   0  0  0  0  0  0  0  0  0  0  0  0
    2.7526   -1.7361   -1.2047 H   0  0  0  0  0  0  0  0  0  0  0  0
    1.9968   -0.4622   -2.1676 H   0  0  0  0  0  0  0  0  0  0  0  0
    3.4426   -0.1082   -1.2071 H   0  0  0  0  0  0  0  0  0  0  0  0
    0.6782   -0.8305    0.0055 H   0  0  0  0  0  0  0  0  0  0  0  0
    2.0882    1.9313   -0.1988 H   0  0  0  0  0  0  0  0  0  0  0  0
    0.6426    2.3454    1.9868 H   0  0  0  0  0  0  0  0  0  0  0  0
   -0.4518    1.1622    1.2131 H   0  0  0  0  0  0  0  0  0  0  0  0
    0.6980   -0.6134    2.6373 H   0  0  0  0  0  0  0  0  0  0  0  0
    2.4524    0.0418    4.2384 H   0  0  0  0  0  0  0  0  0  0  0  0
    3.8560   -1.0542    1.4201 H   0  0  0  0  0  0  0  0  0  0  0  0
  1 12  1  0  0  0  0
  1 10  1  0  0  0  0
  1  2  1  0  0  0  0
  2 13  1  1  0  0  0
  2  3  1  0  0  0  0
  2  8  1  0  0  0  0
  3 14  1  6  0  0  0
  3  8  1  0  0  0  0
  3  4  1  0  0  0  0
  4 15  1  0  0  0  0
  4  5  1  0  0  0  0
  5 17  1  1  0  0  0
  5  6  1  0  0  0  0
  6  7  2  0  0  0  0
  6 18  1  0  0  0  0
  8  9  1  1  0  0  0
  8  5  1  0  0  0  0
 11  1  1  0  0  0  0
 16  4  1  0  0  0  0
 19  9  1  0  0  0  0
M TOR 0 0 1 2 3
M TOR 1 0 1 2 7
M TOR 2 0 1 2 13
M TOR 3 0 1 7 4
M TOR 4 0 1 7 8
M TOR 5 1 2 3 4
M TOR 6 1 2 3 14
M TOR 7 1 2 3 15
M TOR 8 1 2 7 4
M TOR 9 1 2 7 8
M TOR 10 1 7 2 3
M TOR 11 1 7 2 13
M TOR 12 1 7 4 3
M TOR 13 1 7 4 5
M TOR 14 1 7 4 16
M TOR 15 1 7 8 18
M TOR 16 2 1 0 9
M TOR 17 2 1 0 10
M TOR 18 2 1 0 11
M TOR 19 2 3 4 5
M TOR 20 2 3 4 7
M TOR 21 2 3 4 16
M TOR 22 2 7 1 12
M TOR 23 2 7 4 5
M TOR 24 2 7 4 16
M TOR 25 2 7 8 18
M TOR 26 3 2 1 12
M TOR 27 3 2 7 8
M TOR 28 3 4 5 6
M TOR 29 3 4 5 17
M TOR 30 3 4 7 8
M TOR 31 4 3 2 13
M TOR 32 4 7 1 12
M TOR 33 4 7 2 13
M TOR 34 4 7 8 18
M TOR 35 5 4 3 14
M TOR 36 5 4 3 15
M TOR 37 5 4 7 8
M TOR 38 6 5 4 7
M TOR 39 6 5 4 16
M TOR 40 7 1 0 9
M TOR 41 7 1 0 10
M TOR 42 7 1 0 11
M TOR 43 7 2 3 14
M TOR 44 7 2 3 15
M TOR 45 7 4 3 14
M TOR 46 7 4 3 15
M TOR 47 7 4 5 17
M TOR 48 8 7 1 12
M TOR 49 8 7 2 13
M TOR 50 8 7 4 16
M  END
$$$$
