gdb 3834	2.4514728	1.5616968	1.3452982	2.1818	74.84	-0.23365	-0.00851	0.22514	1053.8858	0.156942	-422.574353	-422.565889	-422.564945	-422.606989	32.629
 OpenBabel02181911413D

 19 20  0  0  1  0  0  0  0  0999 V2000
   -1.3073    1.4974    2.4854 C   0  0  0  0  0  0  0  0  0  0  0  0
   -1.8606    0.8893    1.1989 C   0  0  2  0  0  0  0  0  0  0  0  0
   -2.0745   -0.6683    1.2592 C   0  0  0  0  0  0  0  0  0  0  0  0
   -1.1825   -1.1109    0.0875 C   0  0  1  0  0  0  0  0  0  0  0  0
   -1.0890   -2.4685   -0.1348 O   0  0  0  0  0  0  0  0  0  0  0  0
   -1.5545   -0.0300   -1.0139 C   0  0  0  0  0  0  0  0  0  0  0  0
   -0.8937    0.9729   -0.0128 C   0  0  2  0  0  0  0  0  0  0  0  0
    0.0469   -0.2098    0.2625 C   0  0  0  0  0  0  0  0  0  0  0  0
    1.2269   -0.4162    0.3029 O   0  0  0  0  0  0  0  0  0  0  0  0
   -0.3637    1.0219    2.7758 H   0  0  0  0  0  0  0  0  0  0  0  0
   -1.1172    2.5695    2.3667 H   0  0  0  0  0  0  0  0  0  0  0  0
   -2.0133    1.3717    3.3128 H   0  0  0  0  0  0  0  0  0  0  0  0
   -2.8000    1.3881    0.9387 H   0  0  0  0  0  0  0  0  0  0  0  0
   -1.7354   -1.1023    2.2043 H   0  0  0  0  0  0  0  0  0  0  0  0
   -3.1148   -0.9655    1.1024 H   0  0  0  0  0  0  0  0  0  0  0  0
   -0.2030   -2.6528   -0.4706 H   0  0  0  0  0  0  0  0  0  0  0  0
   -0.9991   -0.1553   -1.9450 H   0  0  0  0  0  0  0  0  0  0  0  0
   -2.6216    0.1068   -1.2024 H   0  0  0  0  0  0  0  0  0  0  0  0
   -0.5254    1.9492   -0.3182 H   0  0  0  0  0  0  0  0  0  0  0  0
  1 10  1  0  0  0  0
  1 12  1  0  0  0  0
  2 13  1  6  0  0  0
  2  3  1  0  0  0  0
  2  1  1  0  0  0  0
  3 14  1  0  0  0  0
  4  5  1  6  0  0  0
  4  8  1  0  0  0  0
  4  3  1  0  0  0  0
  6  7  1  0  0  0  0
  6  4  1  0  0  0  0
  7 19  1  6  0  0  0
  7  8  1  0  0  0  0
  7  2  1  0  0  0  0
  8  9  2  0  0  0  0
 11  1  1  0  0  0  0
 15  3  1  0  0  0  0
 16  5  1  0  0  0  0
 17  6  1  0  0  0  0
 18  6  1  0  0  0  0
M TOR 0 0 1 2 3
M TOR 1 0 1 2 13
M TOR 2 0 1 2 14
M TOR 3 0 1 6 5
M TOR 4 0 1 6 7
M TOR 5 0 1 6 18
M TOR 6 1 2 3 4
M TOR 7 1 2 3 5
M TOR 8 1 2 3 7
M TOR 9 1 6 5 3
M TOR 10 1 6 5 16
M TOR 11 1 6 5 17
M TOR 12 1 6 7 3
M TOR 13 1 6 7 8
M TOR 14 2 1 0 9
M TOR 15 2 1 0 10
M TOR 16 2 1 0 11
M TOR 17 2 1 6 5
M TOR 18 2 1 6 7
M TOR 19 2 1 6 18
M TOR 20 2 3 4 15
M TOR 21 2 3 5 6
M TOR 22 2 3 5 16
M TOR 23 2 3 5 17
M TOR 24 2 3 7 6
M TOR 25 2 3 7 8
M TOR 26 3 2 1 6
M TOR 27 3 2 1 12
M TOR 28 3 5 6 7
M TOR 29 3 5 6 18
M TOR 30 3 7 6 18
M TOR 31 4 3 2 13
M TOR 32 4 3 2 14
M TOR 33 4 3 5 6
M TOR 34 4 3 5 16
M TOR 35 4 3 5 17
M TOR 36 4 3 7 6
M TOR 37 4 3 7 8
M TOR 38 5 3 2 13
M TOR 39 5 3 2 14
M TOR 40 5 3 4 15
M TOR 41 5 3 7 8
M TOR 42 5 6 1 12
M TOR 43 5 6 7 8
M TOR 44 6 1 0 9
M TOR 45 6 1 0 10
M TOR 46 6 1 0 11
M TOR 47 6 1 2 13
M TOR 48 6 1 2 14
M TOR 49 7 3 2 13
M TOR 50 7 3 2 14
M TOR 51 7 3 4 15
M TOR 52 7 3 5 16
M TOR 53 7 3 5 17
M TOR 54 7 6 1 12
M TOR 55 7 6 5 16
M TOR 56 7 6 5 17
M TOR 57 8 7 6 18
M  END
$$$$
