gdb 5493	2.6673249	1.5316534	1.2337587	2.4298	76.63	-0.23162	0.01476	0.24638	1079.2131	0.157471	-422.518518	-422.510469	-422.509525	-422.550894	31.5
 OpenBabel02181911423D

 19 20  0  0  1  0  0  0  0  0999 V2000
    1.1998   -0.0469   -0.2630 C   0  0  0  0  0  0  0  0  0  0  0  0
   -0.1895   -0.2777   -0.1084 O   0  0  0  0  0  0  0  0  0  0  0  0
   -0.7083    0.2151    1.1089 C   0  0  2  0  0  0  0  0  0  0  0  0
   -2.2481   -0.0108    1.2485 C   0  0  1  0  0  0  0  0  0  0  0  0
   -2.4687    0.6454    2.5991 C   0  0  0  0  0  0  0  0  0  0  0  0
   -1.7516    1.7795    2.5248 C   0  0  0  0  0  0  0  0  0  0  0  0
   -1.1466    1.7341    1.1371 C   0  0  2  0  0  0  0  0  0  0  0  0
   -2.4295    1.2644    0.3116 C   0  0  1  0  0  0  0  0  0  0  0  0
   -2.3201    1.1040   -1.0621 O   0  0  0  0  0  0  0  0  0  0  0  0
    1.7670   -0.5080    0.5580 H   0  0  0  0  0  0  0  0  0  0  0  0
    1.5012   -0.5058   -1.2069 H   0  0  0  0  0  0  0  0  0  0  0  0
    1.4362    1.0254   -0.2928 H   0  0  0  0  0  0  0  0  0  0  0  0
   -0.0845   -0.1187    1.9493 H   0  0  0  0  0  0  0  0  0  0  0  0
   -2.7092   -0.9721    1.0244 H   0  0  0  0  0  0  0  0  0  0  0  0
   -3.0903    0.2713    3.4000 H   0  0  0  0  0  0  0  0  0  0  0  0
   -1.6332    2.5690    3.2535 H   0  0  0  0  0  0  0  0  0  0  0  0
   -0.5001    2.5431    0.7981 H   0  0  0  0  0  0  0  0  0  0  0  0
   -3.3317    1.8495    0.5044 H   0  0  0  0  0  0  0  0  0  0  0  0
   -1.5437    0.5472   -1.2185 H   0  0  0  0  0  0  0  0  0  0  0  0
  1  2  1  0  0  0  0
  1 10  1  0  0  0  0
  2  3  1  0  0  0  0
  3  7  1  0  0  0  0
  3  4  1  0  0  0  0
  3 13  1  1  0  0  0
  4 14  1  6  0  0  0
  4  5  1  0  0  0  0
  5 15  1  0  0  0  0
  6  5  2  0  0  0  0
  6 16  1  0  0  0  0
  7 17  1  6  0  0  0
  7  6  1  0  0  0  0
  8 18  1  1  0  0  0
  8  7  1  0  0  0  0
  8  4  1  0  0  0  0
  9  8  1  0  0  0  0
 11  1  1  0  0  0  0
 12  1  1  0  0  0  0
 19  9  1  0  0  0  0
M TOR 0 0 1 2 3
M TOR 1 0 1 2 6
M TOR 2 0 1 2 12
M TOR 3 1 2 3 4
M TOR 4 1 2 3 7
M TOR 5 1 2 3 13
M TOR 6 1 2 6 5
M TOR 7 1 2 6 7
M TOR 8 1 2 6 16
M TOR 9 2 1 0 9
M TOR 10 2 1 0 10
M TOR 11 2 1 0 11
M TOR 12 2 3 4 5
M TOR 13 2 3 4 14
M TOR 14 2 3 7 6
M TOR 15 2 3 7 8
M TOR 16 2 3 7 17
M TOR 17 2 6 5 4
M TOR 18 2 6 5 15
M TOR 19 2 6 7 8
M TOR 20 2 6 7 17
M TOR 21 3 2 6 5
M TOR 22 3 2 6 16
M TOR 23 3 4 5 6
M TOR 24 3 4 5 15
M TOR 25 3 7 6 5
M TOR 26 3 7 6 16
M TOR 27 3 7 8 18
M TOR 28 4 3 2 6
M TOR 29 4 3 2 12
M TOR 30 4 3 7 6
M TOR 31 4 3 7 8
M TOR 32 4 3 7 17
M TOR 33 4 5 6 7
M TOR 34 4 5 6 16
M TOR 35 5 4 3 7
M TOR 36 5 4 3 13
M TOR 37 5 6 2 12
M TOR 38 5 6 7 8
M TOR 39 5 6 7 17
M TOR 40 6 2 3 13
M TOR 41 6 5 4 14
M TOR 42 6 7 3 13
M TOR 43 6 7 8 18
M TOR 44 7 3 2 12
M TOR 45 7 3 4 14
M TOR 46 7 6 2 12
M TOR 47 7 6 5 15
M TOR 48 8 7 3 13
M TOR 49 8 7 6 16
M  END
$$$$
