gdb 2902	2.248122	1.7908469	1.331264	3.2502	74.82	-0.22699	0.05598	0.28297	1045.2972	0.154734	-422.487242	-422.47853	-422.477586	-422.519814	33.931
 OpenBabel02181911413D

 19 21  0  0  1  0  0  0  0  0999 V2000
    0.0778   -1.8497    4.2041 C   0  0  0  0  0  0  0  0  0  0  0  0
   -0.4568   -1.2623    2.9409 C   0  0  1  0  0  0  0  0  0  0  0  0
   -0.3262   -2.0433    1.7244 O   0  0  0  0  0  0  0  0  0  0  0  0
   -1.6287   -1.5390    2.1162 C   0  0  2  0  0  0  0  0  0  0  0  0
   -1.7668   -0.0578    1.6939 C   0  0  2  0  0  0  0  0  0  0  0  0
   -0.5046    0.5139    1.0893 C   0  0  2  0  0  0  0  0  0  0  0  0
    0.3093   -0.0484    0.1193 O   0  0  0  0  0  0  0  0  0  0  0  0
   -0.5202    0.2648    2.5776 C   0  0  2  0  0  0  0  0  0  0  0  0
   -0.3431    1.3319    3.6208 C   0  0  0  0  0  0  0  0  0  0  0  0
   -0.1751   -2.9116    4.2613 H   0  0  0  0  0  0  0  0  0  0  0  0
    1.1686   -1.7530    4.2483 H   0  0  0  0  0  0  0  0  0  0  0  0
   -0.3403   -1.3412    5.0783 H   0  0  0  0  0  0  0  0  0  0  0  0
   -2.4229   -2.2699    2.2132 H   0  0  0  0  0  0  0  0  0  0  0  0
   -2.7227    0.4524    1.6694 H   0  0  0  0  0  0  0  0  0  0  0  0
   -0.6222    1.5763    0.8786 H   0  0  0  0  0  0  0  0  0  0  0  0
    0.3677   -0.9871    0.3460 H   0  0  0  0  0  0  0  0  0  0  0  0
   -0.9555    1.1438    4.5112 H   0  0  0  0  0  0  0  0  0  0  0  0
    0.7020    1.4044    3.9458 H   0  0  0  0  0  0  0  0  0  0  0  0
   -0.6329    2.3103    3.2248 H   0  0  0  0  0  0  0  0  0  0  0  0
  1 11  1  0  0  0  0
  1 10  1  0  0  0  0
  1 12  1  0  0  0  0
  2  1  1  1  0  0  0
  3  4  1  0  0  0  0
  3  2  1  0  0  0  0
  4 13  1  1  0  0  0
  4  2  1  0  0  0  0
  5 14  1  1  0  0  0
  5  4  1  0  0  0  0
  5  8  1  0  0  0  0
  6 15  1  6  0  0  0
  6  5  1  0  0  0  0
  6  8  1  0  0  0  0
  7 16  1  0  0  0  0
  7  6  1  0  0  0  0
  8  2  1  0  0  0  0
  8  9  1  1  0  0  0
  9 18  1  0  0  0  0
  9 17  1  0  0  0  0
 19  9  1  0  0  0  0
M TOR 0 0 1 2 3
M TOR 1 0 1 3 4
M TOR 2 0 1 3 12
M TOR 3 0 1 7 4
M TOR 4 0 1 7 5
M TOR 5 0 1 7 8
M TOR 6 1 2 3 4
M TOR 7 1 2 3 12
M TOR 8 1 3 4 5
M TOR 9 1 3 4 7
M TOR 10 1 3 4 13
M TOR 11 1 7 4 5
M TOR 12 1 7 4 13
M TOR 13 1 7 5 6
M TOR 14 1 7 5 14
M TOR 15 1 7 8 16
M TOR 16 1 7 8 17
M TOR 17 1 7 8 18
M TOR 18 2 1 0 9
M TOR 19 2 1 0 10
M TOR 20 2 1 0 11
M TOR 21 2 1 7 4
M TOR 22 2 1 7 5
M TOR 23 2 1 7 8
M TOR 24 2 3 1 7
M TOR 25 2 3 4 5
M TOR 26 2 3 4 7
M TOR 27 2 3 4 13
M TOR 28 3 1 0 9
M TOR 29 3 1 0 10
M TOR 30 3 1 0 11
M TOR 31 3 1 7 5
M TOR 32 3 1 7 8
M TOR 33 3 4 5 6
M TOR 34 3 4 5 7
M TOR 35 3 4 5 14
M TOR 36 3 4 7 8
M TOR 37 4 5 6 15
M TOR 38 4 5 7 8
M TOR 39 4 7 5 6
M TOR 40 4 7 5 14
M TOR 41 4 7 8 16
M TOR 42 4 7 8 17
M TOR 43 4 7 8 18
M TOR 44 5 4 3 12
M TOR 45 5 7 4 13
M TOR 46 5 7 8 16
M TOR 47 5 7 8 17
M TOR 48 5 7 8 18
M TOR 49 6 5 4 13
M TOR 50 6 5 7 8
M TOR 51 7 1 0 9
M TOR 52 7 1 0 10
M TOR 53 7 1 0 11
M TOR 54 7 1 3 12
M TOR 55 7 4 3 12
M TOR 56 7 5 6 15
M TOR 57 8 7 4 13
M TOR 58 8 7 5 14
M  END
$$$$
