gdb 5191	3.2870986	1.5164377	1.3066393	1.2161	73.77	-0.22965	0.08412	0.31377	1026.7017	0.157544	-422.510338	-422.502596	-422.501652	-422.54239	30.209
 OpenBabel02181911423D

 19 21  0  0  1  0  0  0  0  0999 V2000
    1.2683   -0.2196   -0.1667 C   0  0  0  0  0  0  0  0  0  0  0  0
   -0.0494    0.2286    0.0880 O   0  0  0  0  0  0  0  0  0  0  0  0
   -0.2487    0.7491    1.3637 C   0  0  1  0  0  0  0  0  0  0  0  0
   -0.1645   -0.2187    2.5972 C   0  0  0  0  0  0  0  0  0  0  0  0
   -1.4910    0.3683    3.0837 C   0  0  1  0  0  0  0  0  0  0  0  0
   -1.4521    1.8764    2.9339 C   0  0  1  0  0  0  0  0  0  0  0  0
   -0.1963    2.5269    2.8835 O   0  0  0  0  0  0  0  0  0  0  0  0
    0.4613    2.0739    1.6978 C   0  0  0  0  0  0  0  0  0  0  0  0
   -1.7265    1.0515    1.7305 C   0  0  1  0  0  0  0  0  0  0  0  0
    1.5925   -0.9718    0.5664 H   0  0  0  0  0  0  0  0  0  0  0  0
    1.2608   -0.6757   -1.1590 H   0  0  0  0  0  0  0  0  0  0  0  0
    1.9951    0.6048   -0.1643 H   0  0  0  0  0  0  0  0  0  0  0  0
   -0.2870   -1.2537    2.2681 H   0  0  0  0  0  0  0  0  0  0  0  0
    0.7056   -0.1344    3.2570 H   0  0  0  0  0  0  0  0  0  0  0  0
   -2.2098   -0.1243    3.7287 H   0  0  0  0  0  0  0  0  0  0  0  0
   -2.2222    2.4676    3.4140 H   0  0  0  0  0  0  0  0  0  0  0  0
    0.3376    2.7948    0.8748 H   0  0  0  0  0  0  0  0  0  0  0  0
    1.5267    1.9620    1.9228 H   0  0  0  0  0  0  0  0  0  0  0  0
   -2.5713    1.0907    1.0568 H   0  0  0  0  0  0  0  0  0  0  0  0
  1 12  1  0  0  0  0
  1  2  1  0  0  0  0
  1 10  1  0  0  0  0
  3  2  1  6  0  0  0
  3  8  1  0  0  0  0
  3  9  1  0  0  0  0
  3  4  1  0  0  0  0
  4  5  1  0  0  0  0
  4 14  1  0  0  0  0
  5 15  1  1  0  0  0
  6  5  1  0  0  0  0
  6 16  1  1  0  0  0
  7  6  1  0  0  0  0
  8 18  1  0  0  0  0
  8  7  1  0  0  0  0
  9 19  1  6  0  0  0
  9  6  1  0  0  0  0
  9  5  1  0  0  0  0
 11  1  1  0  0  0  0
 13  4  1  0  0  0  0
 17  8  1  0  0  0  0
M TOR 0 0 1 2 3
M TOR 1 0 1 2 7
M TOR 2 0 1 2 8
M TOR 3 1 2 3 4
M TOR 4 1 2 3 12
M TOR 5 1 2 3 13
M TOR 6 1 2 7 6
M TOR 7 1 2 7 16
M TOR 8 1 2 7 17
M TOR 9 1 2 8 4
M TOR 10 1 2 8 5
M TOR 11 1 2 8 18
M TOR 12 2 1 0 9
M TOR 13 2 1 0 10
M TOR 14 2 1 0 11
M TOR 15 2 3 4 5
M TOR 16 2 3 4 8
M TOR 17 2 3 4 14
M TOR 18 2 7 6 5
M TOR 19 2 8 4 5
M TOR 20 2 8 4 14
M TOR 21 2 8 5 6
M TOR 22 2 8 5 15
M TOR 23 3 2 7 6
M TOR 24 3 2 7 16
M TOR 25 3 2 7 17
M TOR 26 3 2 8 5
M TOR 27 3 2 8 18
M TOR 28 3 4 5 6
M TOR 29 3 4 5 8
M TOR 30 3 4 5 15
M TOR 31 3 4 8 18
M TOR 32 4 3 2 7
M TOR 33 4 5 6 7
M TOR 34 4 5 8 18
M TOR 35 4 8 2 7
M TOR 36 4 8 5 6
M TOR 37 4 8 5 15
M TOR 38 5 4 3 12
M TOR 39 5 4 3 13
M TOR 40 5 6 7 16
M TOR 41 5 6 7 17
M TOR 42 5 8 2 7
M TOR 43 5 8 4 14
M TOR 44 6 5 4 14
M TOR 45 6 5 8 18
M TOR 46 6 7 2 8
M TOR 47 7 2 3 12
M TOR 48 7 2 3 13
M TOR 49 7 2 8 18
M TOR 50 7 6 5 8
M TOR 51 7 6 5 15
M TOR 52 8 2 3 12
M TOR 53 8 2 3 13
M TOR 54 8 2 7 16
M TOR 55 8 2 7 17
M TOR 56 8 4 3 12
M TOR 57 8 4 3 13
M  END
$$$$
