gdb 1370	3.1230045	0.9298781	0.8221044	2.0967	77.77	-0.24756	0.03049	0.27805	1448.8421	0.154135	-422.48523	-422.475435	-422.474491	-422.521041	34.523
 OpenBabel02181911403D

 19 19  0  0  1  0  0  0  0  0999 V2000
    1.1128   -1.2222    7.6777 C   0  0  0  0  0  0  0  0  0  0  0  0
    2.1035   -2.0700    8.4762 C   0  0  1  0  0  0  0  0  0  0  0  0
    3.4021   -1.5487    8.2051 O   0  0  0  0  0  0  0  0  0  0  0  0
    4.4647   -2.3141    8.7138 C   0  0  0  0  0  0  0  0  0  0  0  0
    5.8398   -1.7410    8.3425 C   0  0  0  0  0  0  0  0  0  0  0  0
    6.2417   -2.9878    7.7361 O   0  0  0  0  0  0  0  0  0  0  0  0
    4.9218   -3.5474    7.8947 C   0  0  0  0  0  0  0  0  0  0  0  0
    1.7944   -2.0616    9.9132 C   0  0  0  0  0  0  0  0  0  0  0  0
    1.5348   -2.0490   11.0868 C   0  0  0  0  0  0  0  0  0  0  0  0
    1.1625   -0.1820    8.0081 H   0  0  0  0  0  0  0  0  0  0  0  0
    1.3672   -1.2688    6.6160 H   0  0  0  0  0  0  0  0  0  0  0  0
    0.0943   -1.5904    7.8215 H   0  0  0  0  0  0  0  0  0  0  0  0
    2.0489   -3.1122    8.1208 H   0  0  0  0  0  0  0  0  0  0  0  0
    4.3255   -2.5143    9.7819 H   0  0  0  0  0  0  0  0  0  0  0  0
    5.7726   -0.9227    7.6147 H   0  0  0  0  0  0  0  0  0  0  0  0
    6.4996   -1.4499    9.1669 H   0  0  0  0  0  0  0  0  0  0  0  0
    4.3960   -3.6514    6.9357 H   0  0  0  0  0  0  0  0  0  0  0  0
    4.9457   -4.5148    8.4093 H   0  0  0  0  0  0  0  0  0  0  0  0
    1.3045   -2.0400   12.1238 H   0  0  0  0  0  0  0  0  0  0  0  0
  1 12  1  0  0  0  0
  1 10  1  0  0  0  0
  1  2  1  0  0  0  0
  2 13  1  6  0  0  0
  2  8  1  0  0  0  0
  3  2  1  0  0  0  0
  3  4  1  0  0  0  0
  4 14  1  0  0  0  0
  5  4  1  0  0  0  0
  5 16  1  0  0  0  0
  6  7  1  0  0  0  0
  6  5  1  0  0  0  0
  7 18  1  0  0  0  0
  7  4  1  0  0  0  0
  8  9  3  0  0  0  0
  9 19  1  0  0  0  0
 11  1  1  0  0  0  0
 15  5  1  0  0  0  0
 17  7  1  0  0  0  0
M TOR 0 0 1 2 3
M TOR 1 0 1 7 8
M TOR 2 1 2 3 4
M TOR 3 1 2 3 6
M TOR 4 1 2 3 13
M TOR 5 1 7 8 18
M TOR 6 2 1 0 9
M TOR 7 2 1 0 10
M TOR 8 2 1 0 11
M TOR 9 2 1 7 8
M TOR 10 2 3 4 5
M TOR 11 2 3 4 14
M TOR 12 2 3 4 15
M TOR 13 2 3 6 5
M TOR 14 2 3 6 16
M TOR 15 2 3 6 17
M TOR 16 3 2 1 7
M TOR 17 3 2 1 12
M TOR 18 3 4 5 6
M TOR 19 4 3 6 16
M TOR 20 4 3 6 17
M TOR 21 4 5 6 16
M TOR 22 4 5 6 17
M TOR 23 5 4 3 13
M TOR 24 5 6 3 13
M TOR 25 6 3 4 14
M TOR 26 6 3 4 15
M TOR 27 6 5 4 14
M TOR 28 6 5 4 15
M TOR 29 7 1 0 9
M TOR 30 7 1 0 10
M TOR 31 7 1 0 11
M TOR 32 8 7 1 12
M  END
$$$$
