gdb 2212	2.8110751	1.7031367	1.5711272	1.8551	73.62	-0.23443	0.07631	0.31074	942.121	0.159604	-422.566334	-422.559131	-422.558186	-422.597465	29.528
 OpenBabel02181911413D

 19 21  0  0  1  0  0  0  0  0999 V2000
   -0.7902    0.6387    0.4705 O   0  0  0  0  0  0  0  0  0  0  0  0
   -2.0258    0.0483    0.2223 C   0  0  1  0  0  0  0  0  0  0  0  0
   -2.2903   -1.3907    0.6376 C   0  0  0  0  0  0  0  0  0  0  0  0
   -3.7893   -1.5286    0.3040 C   0  0  1  0  0  0  0  0  0  0  0  0
   -4.4045   -0.1934    0.7823 C   0  0  0  0  0  0  0  0  0  0  0  0
   -3.3485    0.8010    0.3260 C   0  0  2  0  0  0  0  0  0  0  0  0
   -2.7426    0.4583   -1.0269 C   0  0  2  0  0  0  0  0  0  0  0  0
   -3.4161   -0.6031   -1.8777 C   0  0  0  0  0  0  0  0  0  0  0  0
   -3.9636   -1.6729   -1.1028 O   0  0  0  0  0  0  0  0  0  0  0  0
   -0.6671    0.6825    1.4258 H   0  0  0  0  0  0  0  0  0  0  0  0
   -1.6884   -2.1255    0.0954 H   0  0  0  0  0  0  0  0  0  0  0  0
   -2.1099   -1.5201    1.7135 H   0  0  0  0  0  0  0  0  0  0  0  0
   -4.2567   -2.4106    0.7453 H   0  0  0  0  0  0  0  0  0  0  0  0
   -5.3924   -0.0419    0.3360 H   0  0  0  0  0  0  0  0  0  0  0  0
   -4.5173   -0.1785    1.8732 H   0  0  0  0  0  0  0  0  0  0  0  0
   -3.3718    1.8380    0.6400 H   0  0  0  0  0  0  0  0  0  0  0  0
   -2.2930    1.2796   -1.5753 H   0  0  0  0  0  0  0  0  0  0  0  0
   -4.2284   -0.1523   -2.4660 H   0  0  0  0  0  0  0  0  0  0  0  0
   -2.6974   -1.0293   -2.5919 H   0  0  0  0  0  0  0  0  0  0  0  0
  1 10  1  0  0  0  0
  2  6  1  0  0  0  0
  2  1  1  1  0  0  0
  2  3  1  0  0  0  0
  3 12  1  0  0  0  0
  4  3  1  0  0  0  0
  4 13  1  1  0  0  0
  4  5  1  0  0  0  0
  5 15  1  0  0  0  0
  6 16  1  1  0  0  0
  6  5  1  0  0  0  0
  7 17  1  6  0  0  0
  7  2  1  0  0  0  0
  7  6  1  0  0  0  0
  8  9  1  0  0  0  0
  8  7  1  0  0  0  0
  9  4  1  0  0  0  0
 11  3  1  0  0  0  0
 14  5  1  0  0  0  0
 18  8  1  0  0  0  0
 19  8  1  0  0  0  0
M TOR 0 0 1 2 3
M TOR 1 0 1 2 10
M TOR 2 0 1 2 11
M TOR 3 0 1 5 4
M TOR 4 0 1 5 6
M TOR 5 0 1 5 15
M TOR 6 0 1 6 7
M TOR 7 0 1 6 16
M TOR 8 1 2 3 4
M TOR 9 1 2 3 8
M TOR 10 1 2 3 12
M TOR 11 1 5 4 3
M TOR 12 1 5 4 13
M TOR 13 1 5 4 14
M TOR 14 1 5 6 7
M TOR 15 1 5 6 16
M TOR 16 1 6 5 4
M TOR 17 1 6 5 15
M TOR 18 1 6 7 8
M TOR 19 1 6 7 17
M TOR 20 1 6 7 18
M TOR 21 2 1 0 9
M TOR 22 2 1 5 4
M TOR 23 2 1 5 6
M TOR 24 2 1 5 15
M TOR 25 2 1 6 7
M TOR 26 2 1 6 16
M TOR 27 2 3 4 5
M TOR 28 2 3 4 13
M TOR 29 2 3 4 14
M TOR 30 2 3 8 7
M TOR 31 3 2 1 5
M TOR 32 3 2 1 6
M TOR 33 3 4 5 6
M TOR 34 3 4 5 15
M TOR 35 3 8 7 6
M TOR 36 3 8 7 17
M TOR 37 3 8 7 18
M TOR 38 4 3 2 10
M TOR 39 4 3 2 11
M TOR 40 4 3 8 7
M TOR 41 4 5 6 7
M TOR 42 4 5 6 16
M TOR 43 5 1 0 9
M TOR 44 5 1 2 10
M TOR 45 5 1 2 11
M TOR 46 5 4 3 8
M TOR 47 5 4 3 12
M TOR 48 5 6 7 8
M TOR 49 5 6 7 17
M TOR 50 5 6 7 18
M TOR 51 6 1 0 9
M TOR 52 6 1 2 10
M TOR 53 6 1 2 11
M TOR 54 6 5 4 13
M TOR 55 6 5 4 14
M TOR 56 7 6 5 15
M TOR 57 7 8 3 12
M TOR 58 8 3 2 10
M TOR 59 8 3 2 11
M TOR 60 8 3 4 13
M TOR 61 8 3 4 14
M TOR 62 8 7 6 16
M  END
$$$$
