gdb 3276	3.0609404	1.853747	1.5896219	2.1045	72.79	-0.24293	0.07176	0.31469	898.8994	0.161335	-422.559489	-422.553072	-422.552127	-422.589803	27.634
 OpenBabel02181911413D

 19 21  0  0  1  0  0  0  0  0999 V2000
    0.7779    0.4229    0.6792 O   0  0  0  0  0  0  0  0  0  0  0  0
   -0.6256    0.5686    0.7792 C   0  0  2  0  0  0  0  0  0  0  0  0
   -1.0628    2.0469    0.6540 C   0  0  2  0  0  0  0  0  0  0  0  0
   -0.2285    2.6273    1.8187 C   0  0  0  0  0  0  0  0  0  0  0  0
   -1.0519    1.8459    2.8558 C   0  0  1  0  0  0  0  0  0  0  0  0
   -2.3121    2.5139    2.6520 O   0  0  0  0  0  0  0  0  0  0  0  0
   -2.5318    2.0061    1.3271 C   0  0  2  0  0  0  0  0  0  0  0  0
   -2.7451    0.5261    1.7111 C   0  0  0  0  0  0  0  0  0  0  0  0
   -1.2808    0.3959    2.1812 C   0  0  1  0  0  0  0  0  0  0  0  0
    0.9847   -0.5068    0.8131 H   0  0  0  0  0  0  0  0  0  0  0  0
   -1.1114   -0.0826    0.0421 H   0  0  0  0  0  0  0  0  0  0  0  0
   -0.9864    2.5148   -0.3259 H   0  0  0  0  0  0  0  0  0  0  0  0
    0.8237    2.3637    1.7359 H   0  0  0  0  0  0  0  0  0  0  0  0
   -0.3474    3.6992    1.9794 H   0  0  0  0  0  0  0  0  0  0  0  0
   -0.7694    1.8714    3.9066 H   0  0  0  0  0  0  0  0  0  0  0  0
   -3.3288    2.5557    0.8294 H   0  0  0  0  0  0  0  0  0  0  0  0
   -3.5001    0.4548    2.4945 H   0  0  0  0  0  0  0  0  0  0  0  0
   -2.9913   -0.1625    0.8992 H   0  0  0  0  0  0  0  0  0  0  0  0
   -0.9958   -0.4730    2.7741 H   0  0  0  0  0  0  0  0  0  0  0  0
  1  2  1  0  0  0  0
  1 10  1  0  0  0  0
  2 11  1  6  0  0  0
  2  9  1  0  0  0  0
  3 12  1  6  0  0  0
  3  2  1  0  0  0  0
  3  7  1  0  0  0  0
  3  4  1  0  0  0  0
  4 14  1  0  0  0  0
  4  5  1  0  0  0  0
  5 15  1  1  0  0  0
  6  5  1  0  0  0  0
  7 16  1  6  0  0  0
  7  8  1  0  0  0  0
  7  6  1  0  0  0  0
  8  9  1  0  0  0  0
  8 17  1  0  0  0  0
  9 19  1  1  0  0  0
  9  5  1  0  0  0  0
 13  4  1  0  0  0  0
 18  8  1  0  0  0  0
M TOR 0 0 1 2 3
M TOR 1 0 1 2 6
M TOR 2 0 1 2 11
M TOR 3 0 1 8 4
M TOR 4 0 1 8 7
M TOR 5 0 1 8 18
M TOR 6 1 2 3 4
M TOR 7 1 2 3 12
M TOR 8 1 2 3 13
M TOR 9 1 2 6 5
M TOR 10 1 2 6 7
M TOR 11 1 2 6 15
M TOR 12 1 8 4 3
M TOR 13 1 8 4 5
M TOR 14 1 8 4 14
M TOR 15 1 8 7 6
M TOR 16 1 8 7 16
M TOR 17 1 8 7 17
M TOR 18 2 1 0 9
M TOR 19 2 1 8 4
M TOR 20 2 1 8 7
M TOR 21 2 1 8 18
M TOR 22 2 3 4 5
M TOR 23 2 3 4 8
M TOR 24 2 3 4 14
M TOR 25 2 6 5 4
M TOR 26 2 6 7 8
M TOR 27 2 6 7 16
M TOR 28 2 6 7 17
M TOR 29 3 2 1 8
M TOR 30 3 2 1 10
M TOR 31 3 2 6 5
M TOR 32 3 2 6 7
M TOR 33 3 2 6 15
M TOR 34 3 4 5 6
M TOR 35 3 4 8 7
M TOR 36 3 4 8 18
M TOR 37 4 3 2 6
M TOR 38 4 3 2 11
M TOR 39 4 5 6 7
M TOR 40 4 5 6 15
M TOR 41 4 8 1 10
M TOR 42 4 8 7 6
M TOR 43 4 8 7 16
M TOR 44 4 8 7 17
M TOR 45 5 4 3 12
M TOR 46 5 4 3 13
M TOR 47 5 4 8 7
M TOR 48 5 4 8 18
M TOR 49 5 6 2 11
M TOR 50 5 6 7 8
M TOR 51 5 6 7 16
M TOR 52 5 6 7 17
M TOR 53 6 2 1 8
M TOR 54 6 2 1 10
M TOR 55 6 2 3 12
M TOR 56 6 2 3 13
M TOR 57 6 5 4 8
M TOR 58 6 5 4 14
M TOR 59 6 7 8 18
M TOR 60 7 6 2 11
M TOR 61 7 8 1 10
M TOR 62 7 8 4 14
M TOR 63 8 1 0 9
M TOR 64 8 1 2 11
M TOR 65 8 4 3 12
M TOR 66 8 4 3 13
M TOR 67 8 7 6 15
M  END
$$$$
