gdb 6049	4.1515741	0.6319592	0.5695831	0.9686	77.98	-0.26236	0.04662	0.30898	1901.1202	0.153853	-422.501153	-422.490871	-422.489927	-422.537575	35.997
 OpenBabel02181911423D

 19 19  0  0  1  0  0  0  0  0999 V2000
    3.8282    5.7308    2.4905 O   0  0  0  0  0  0  0  0  0  0  0  0
    4.0972    4.3398    2.4187 C   0  0  0  0  0  0  0  0  0  0  0  0
    3.0228    3.7070    1.5392 C   0  0  0  0  0  0  0  0  0  0  0  0
    3.1859    2.2132    1.4288 C   0  0  2  0  0  0  0  0  0  0  0  0
    4.2717    1.7423    0.6070 O   0  0  0  0  0  0  0  0  0  0  0  0
    2.9354    1.4740    0.1877 C   0  0  1  0  0  0  0  0  0  0  0  0
    2.5262    0.0093    0.1874 C   0  0  0  0  0  0  0  0  0  0  0  0
    1.0816   -0.1588    0.0813 C   0  0  0  0  0  0  0  0  0  0  0  0
   -0.1117   -0.2655   -0.0105 C   0  0  0  0  0  0  0  0  0  0  0  0
    4.5337    6.1481    2.9930 H   0  0  0  0  0  0  0  0  0  0  0  0
    5.0868    4.1395    1.9817 H   0  0  0  0  0  0  0  0  0  0  0  0
    4.0790    3.8766    3.4195 H   0  0  0  0  0  0  0  0  0  0  0  0
    2.0374    3.9353    1.9632 H   0  0  0  0  0  0  0  0  0  0  0  0
    3.0648    4.1615    0.5441 H   0  0  0  0  0  0  0  0  0  0  0  0
    3.0839    1.6583    2.3642 H   0  0  0  0  0  0  0  0  0  0  0  0
    2.6116    2.0386   -0.6874 H   0  0  0  0  0  0  0  0  0  0  0  0
    3.0231   -0.4967   -0.6507 H   0  0  0  0  0  0  0  0  0  0  0  0
    2.9030   -0.4640    1.1017 H   0  0  0  0  0  0  0  0  0  0  0  0
   -1.1651   -0.3723   -0.0894 H   0  0  0  0  0  0  0  0  0  0  0  0
  1 10  1  0  0  0  0
  2  1  1  0  0  0  0
  2 12  1  0  0  0  0
  3 13  1  0  0  0  0
  3  2  1  0  0  0  0
  4  3  1  0  0  0  0
  4 15  1  1  0  0  0
  5  4  1  0  0  0  0
  6 16  1  6  0  0  0
  6  5  1  0  0  0  0
  6  4  1  0  0  0  0
  7  6  1  0  0  0  0
  7 18  1  0  0  0  0
  8  7  1  0  0  0  0
  9  8  3  0  0  0  0
 11  2  1  0  0  0  0
 14  3  1  0  0  0  0
 17  7  1  0  0  0  0
 19  9  1  0  0  0  0
M TOR 0 0 1 2 3
M TOR 1 0 1 2 12
M TOR 2 0 1 2 13
M TOR 3 1 2 3 4
M TOR 4 1 2 3 5
M TOR 5 1 2 3 14
M TOR 6 2 1 0 9
M TOR 7 2 3 4 5
M TOR 8 2 3 5 6
M TOR 9 2 3 5 15
M TOR 10 3 2 1 10
M TOR 11 3 2 1 11
M TOR 12 3 4 5 6
M TOR 13 3 4 5 15
M TOR 14 3 5 6 7
M TOR 15 3 5 6 16
M TOR 16 3 5 6 17
M TOR 17 4 3 2 12
M TOR 18 4 3 2 13
M TOR 19 4 5 3 14
M TOR 20 4 5 6 7
M TOR 21 4 5 6 16
M TOR 22 4 5 6 17
M TOR 23 5 3 2 12
M TOR 24 5 3 2 13
M TOR 25 5 6 7 8
M TOR 26 6 5 3 14
M TOR 27 6 7 8 18
M TOR 28 7 6 5 15
M TOR 29 8 7 6 16
M TOR 30 8 7 6 17
M  END
$$$$
