
     RDKit          3D

 19 20  0  0  0  0  0  0  0  0999 V2000
    0.1565    0.1483    0.3280 C   0  0  0  0  0  0  0  0  0  0  0  0
    1.0652   -0.3824   -0.7609 C   0  0  0  0  0  0  0  0  0  0  0  0
    2.4706   -0.1720   -0.4805 O   0  0  0  0  0  0  0  0  0  0  0  0
    2.6466    0.6551   -1.6436 C   0  0  0  0  0  0  0  0  0  0  0  0
    1.1738    0.4556   -2.0801 C   0  0  0  0  0  0  0  0  0  0  0  0
    0.4075    1.6507   -2.1139 O   0  0  0  0  0  0  0  0  0  0  0  0
   -0.3770    1.7134   -3.3041 C   0  0  0  0  0  0  0  0  0  0  0  0
   -0.0081    0.4784   -4.0746 C   0  0  0  0  0  0  0  0  0  0  0  0
    0.8748   -0.2278   -3.3777 C   0  0  0  0  0  0  0  0  0  0  0  0
    0.3783   -0.3595    1.2718 H   0  0  0  0  0  0  0  0  0  0  0  0
    0.2915    1.2236    0.4620 H   0  0  0  0  0  0  0  0  0  0  0  0
   -0.8925   -0.0388    0.0751 H   0  0  0  0  0  0  0  0  0  0  0  0
    0.8691   -1.4487   -0.9411 H   0  0  0  0  0  0  0  0  0  0  0  0
    2.8795    1.6964   -1.3909 H   0  0  0  0  0  0  0  0  0  0  0  0
    3.4116    0.2619   -2.3249 H   0  0  0  0  0  0  0  0  0  0  0  0
   -1.4476    1.7464   -3.0492 H   0  0  0  0  0  0  0  0  0  0  0  0
   -0.1441    2.6404   -3.8493 H   0  0  0  0  0  0  0  0  0  0  0  0
   -0.4232    0.2351   -5.0441 H   0  0  0  0  0  0  0  0  0  0  0  0
    1.3311   -1.1685   -3.6579 H   0  0  0  0  0  0  0  0  0  0  0  0
  1  2  1  0
  2  3  1  0
  3  4  1  0
  4  5  1  0
  5  6  1  0
  6  7  1  0
  7  8  1  0
  8  9  2  0
  5  2  1  0
  9  5  1  0
  1 10  1  0
  1 11  1  0
  1 12  1  0
  2 13  1  0
  4 14  1  0
  4 15  1  0
  7 16  1  0
  7 17  1  0
  8 18  1  0
  9 19  1  0
M  END
$$$$
