gdb 1752	2.3767757	1.7218454	1.6759441	1.3465	73.87	-0.23548	0.07728	0.31276	955.1896	0.158988	-422.530679	-422.523265	-422.522321	-422.561968	30.17
 OpenBabel02181911403D

 19 21  0  0  1  0  0  0  0  0999 V2000
    0.4313    0.6371    0.2431 O   0  0  0  0  0  0  0  0  0  0  0  0
   -0.8384    0.4608    0.7572 C   0  0  2  0  0  0  0  0  0  0  0  0
   -1.4443    0.7025    2.1440 C   0  0  2  0  0  0  0  0  0  0  0  0
   -2.2875   -0.5620    2.0243 C   0  0  0  0  0  0  0  0  0  0  0  0
   -1.7544   -0.7596    0.5560 C   0  0  1  0  0  0  0  0  0  0  0  0
   -2.7079   -0.6927   -0.4847 O   0  0  0  0  0  0  0  0  0  0  0  0
   -3.0289    0.6256   -0.9195 C   0  0  0  0  0  0  0  0  0  0  0  0
   -3.0737    1.6551    0.2188 C   0  0  0  0  0  0  0  0  0  0  0  0
   -1.7431    1.6295    0.9680 C   0  0  2  0  0  0  0  0  0  0  0  0
    0.9860   -0.0910    0.5448 H   0  0  0  0  0  0  0  0  0  0  0  0
   -0.9728    1.0842    3.0410 H   0  0  0  0  0  0  0  0  0  0  0  0
   -1.9554   -1.3643    2.6884 H   0  0  0  0  0  0  0  0  0  0  0  0
   -3.3724   -0.4578    2.1112 H   0  0  0  0  0  0  0  0  0  0  0  0
   -1.2210   -1.7066    0.4321 H   0  0  0  0  0  0  0  0  0  0  0  0
   -2.2846    0.9601   -1.6588 H   0  0  0  0  0  0  0  0  0  0  0  0
   -3.9946    0.5445   -1.4276 H   0  0  0  0  0  0  0  0  0  0  0  0
   -3.2458    2.6447   -0.2166 H   0  0  0  0  0  0  0  0  0  0  0  0
   -3.9193    1.4534    0.8857 H   0  0  0  0  0  0  0  0  0  0  0  0
   -1.2021    2.5684    1.0361 H   0  0  0  0  0  0  0  0  0  0  0  0
  1 10  1  0  0  0  0
  2  1  1  6  0  0  0
  2  9  1  0  0  0  0
  2  3  1  0  0  0  0
  3 11  1  1  0  0  0
  4 13  1  0  0  0  0
  4  3  1  0  0  0  0
  4 12  1  0  0  0  0
  5 14  1  6  0  0  0
  5  2  1  0  0  0  0
  5  4  1  0  0  0  0
  6  5  1  0  0  0  0
  7  6  1  0  0  0  0
  7  8  1  0  0  0  0
  8 18  1  0  0  0  0
  8  9  1  0  0  0  0
  9 19  1  1  0  0  0
  9  3  1  0  0  0  0
 15  7  1  0  0  0  0
 16  7  1  0  0  0  0
 17  8  1  0  0  0  0
M TOR 0 0 1 2 3
M TOR 1 0 1 2 8
M TOR 2 0 1 2 10
M TOR 3 0 1 4 3
M TOR 4 0 1 4 5
M TOR 5 0 1 4 13
M TOR 6 0 1 8 7
M TOR 7 0 1 8 18
M TOR 8 1 2 3 4
M TOR 9 1 2 3 11
M TOR 10 1 2 3 12
M TOR 11 1 2 8 7
M TOR 12 1 2 8 18
M TOR 13 1 4 3 11
M TOR 14 1 4 3 12
M TOR 15 1 4 5 6
M TOR 16 1 8 2 3
M TOR 17 1 8 2 10
M TOR 18 1 8 7 6
M TOR 19 1 8 7 16
M TOR 20 1 8 7 17
M TOR 21 2 1 0 9
M TOR 22 2 1 4 5
M TOR 23 2 1 4 13
M TOR 24 2 3 4 5
M TOR 25 2 3 4 13
M TOR 26 2 8 1 4
M TOR 27 2 8 7 6
M TOR 28 2 8 7 16
M TOR 29 2 8 7 17
M TOR 30 3 2 8 7
M TOR 31 3 2 8 18
M TOR 32 3 4 1 8
M TOR 33 3 4 5 6
M TOR 34 4 1 0 9
M TOR 35 4 1 2 10
M TOR 36 4 1 8 7
M TOR 37 4 1 8 18
M TOR 38 4 3 2 8
M TOR 39 4 3 2 10
M TOR 40 4 5 6 7
M TOR 41 4 5 6 14
M TOR 42 4 5 6 15
M TOR 43 5 4 1 8
M TOR 44 5 4 3 11
M TOR 45 5 4 3 12
M TOR 46 5 6 7 8
M TOR 47 5 6 7 16
M TOR 48 5 6 7 17
M TOR 49 6 5 4 13
M TOR 50 6 7 8 18
M TOR 51 7 8 2 10
M TOR 52 8 1 0 9
M TOR 53 8 1 4 13
M TOR 54 8 2 3 11
M TOR 55 8 2 3 12
M TOR 56 8 7 6 14
M TOR 57 8 7 6 15
M  END
$$$$
