gdb 4685	4.1739102	1.0037734	0.8974746	1.5053	76.46	-0.26018	0.01365	0.27383	1343.9561	0.156669	-422.555506	-422.546582	-422.545638	-422.591067	31.872
 OpenBabel02181911413D

 19 20  0  0  1  0  0  0  0  0999 V2000
    1.5297   -0.1122    0.2069 C   0  0  0  0  0  0  0  0  0  0  0  0
    0.1727   -0.3793    0.5803 O   0  0  0  0  0  0  0  0  0  0  0  0
   -0.4927    0.6622    1.1240 C   0  0  0  0  0  0  0  0  0  0  0  0
   -0.0018    1.7527    1.2807 O   0  0  0  0  0  0  0  0  0  0  0  0
   -1.8877    0.2394    1.5252 C   0  0  2  0  0  0  0  0  0  0  0  0
   -2.8038    1.4264    1.9593 C   0  0  0  0  0  0  0  0  0  0  0  0
   -2.8602    0.8580    3.3819 C   0  0  1  0  0  0  0  0  0  0  0  0
   -3.3804   -0.5514    3.3588 C   0  0  0  0  0  0  0  0  0  0  0  0
   -1.9500   -0.2990    2.9727 C   0  0  1  0  0  0  0  0  0  0  0  0
    2.1168    0.1962    1.0758 H   0  0  0  0  0  0  0  0  0  0  0  0
    1.9149   -1.0464   -0.2023 H   0  0  0  0  0  0  0  0  0  0  0  0
    1.5743    0.6812   -0.5436 H   0  0  0  0  0  0  0  0  0  0  0  0
   -2.2771   -0.4525    0.7729 H   0  0  0  0  0  0  0  0  0  0  0  0
   -2.2534    2.3658    1.8946 H   0  0  0  0  0  0  0  0  0  0  0  0
   -3.7598    1.5202    1.4346 H   0  0  0  0  0  0  0  0  0  0  0  0
   -2.8436    1.4463    4.2907 H   0  0  0  0  0  0  0  0  0  0  0  0
   -3.5172   -1.0162    4.3302 H   0  0  0  0  0  0  0  0  0  0  0  0
   -4.1071   -0.8612    2.6104 H   0  0  0  0  0  0  0  0  0  0  0  0
   -1.1193   -0.7506    3.5010 H   0  0  0  0  0  0  0  0  0  0  0  0
  1  2  1  0  0  0  0
  1 10  1  0  0  0  0
  2  3  1  0  0  0  0
  3  4  2  0  0  0  0
  3  5  1  0  0  0  0
  5 13  1  6  0  0  0
  5  6  1  0  0  0  0
  5  9  1  0  0  0  0
  6  7  1  0  0  0  0
  7 16  1  1  0  0  0
  8  7  1  0  0  0  0
  8 17  1  0  0  0  0
  9  8  1  0  0  0  0
  9  7  1  0  0  0  0
  9 19  1  1  0  0  0
 11  1  1  0  0  0  0
 12  1  1  0  0  0  0
 14  6  1  0  0  0  0
 15  6  1  0  0  0  0
 18  8  1  0  0  0  0
M TOR 0 0 1 2 3
M TOR 1 0 1 2 4
M TOR 2 1 2 4 5
M TOR 3 1 2 4 8
M TOR 4 1 2 4 12
M TOR 5 2 1 0 9
M TOR 6 2 1 0 10
M TOR 7 2 1 0 11
M TOR 8 2 4 5 6
M TOR 9 2 4 5 13
M TOR 10 2 4 5 14
M TOR 11 2 4 8 6
M TOR 12 2 4 8 7
M TOR 13 2 4 8 18
M TOR 14 3 2 4 5
M TOR 15 3 2 4 8
M TOR 16 3 2 4 12
M TOR 17 4 5 6 7
M TOR 18 4 5 6 8
M TOR 19 4 5 6 15
M TOR 20 4 8 6 7
M TOR 21 4 8 6 15
M TOR 22 4 8 7 16
M TOR 23 4 8 7 17
M TOR 24 5 4 8 7
M TOR 25 5 4 8 18
M TOR 26 5 6 7 8
M TOR 27 5 6 7 16
M TOR 28 5 6 7 17
M TOR 29 5 6 8 18
M TOR 30 6 5 4 12
M TOR 31 6 7 8 18
M TOR 32 6 8 4 12
M TOR 33 6 8 7 16
M TOR 34 6 8 7 17
M TOR 35 7 6 5 13
M TOR 36 7 6 5 14
M TOR 37 7 8 4 12
M TOR 38 7 8 6 15
M TOR 39 8 4 5 13
M TOR 40 8 4 5 14
M TOR 41 8 6 5 13
M TOR 42 8 6 5 14
M  END
$$$$
