
     RDKit          3D

 19 20  0  0  0  0  0  0  0  0999 V2000
    0.0031   -0.2206    0.0428 C   0  0  0  0  0  0  0  0  0  0  0  0
    1.5124   -0.0125    0.0656 C   0  0  0  0  0  0  0  0  0  0  0  0
    2.0303   -0.1415    1.3783 O   0  0  0  0  0  0  0  0  0  0  0  0
    1.9775    1.3335   -0.5785 C   0  0  0  0  0  0  0  0  0  0  0  0
    2.7457    0.5658   -1.6590 C   0  0  0  0  0  0  0  0  0  0  0  0
    3.7446   -0.3374   -1.0451 C   0  0  0  0  0  0  0  0  0  0  0  0
    2.2880   -0.7844   -1.0310 C   0  0  0  0  0  0  0  0  0  0  0  0
    1.9001   -2.0096   -1.7307 C   0  0  0  0  0  0  0  0  0  0  0  0
    1.0034   -2.7539   -1.4010 O   0  0  0  0  0  0  0  0  0  0  0  0
   -0.4689    0.4947    0.7234 H   0  0  0  0  0  0  0  0  0  0  0  0
   -0.4035   -0.0730   -0.9619 H   0  0  0  0  0  0  0  0  0  0  0  0
   -0.2553   -1.2379    0.3481 H   0  0  0  0  0  0  0  0  0  0  0  0
    1.7482   -0.9958    1.7245 H   0  0  0  0  0  0  0  0  0  0  0  0
    1.1412    1.9198   -0.9634 H   0  0  0  0  0  0  0  0  0  0  0  0
    2.5915    1.9594    0.0740 H   0  0  0  0  0  0  0  0  0  0  0  0
    2.7545    0.8045   -2.7153 H   0  0  0  0  0  0  0  0  0  0  0  0
    4.3833   -0.8888   -1.7284 H   0  0  0  0  0  0  0  0  0  0  0  0
    4.1948   -0.0962   -0.0871 H   0  0  0  0  0  0  0  0  0  0  0  0
    2.5213   -2.2281   -2.6324 H   0  0  0  0  0  0  0  0  0  0  0  0
  1  2  1  0
  2  3  1  0
  2  4  1  0
  4  5  1  0
  5  6  1  0
  6  7  1  0
  7  8  1  0
  8  9  2  0
  7  2  1  0
  7  5  1  0
  1 10  1  0
  1 11  1  0
  1 12  1  0
  3 13  1  0
  4 14  1  0
  4 15  1  0
  5 16  1  0
  6 17  1  0
  6 18  1  0
  8 19  1  0
M  END
$$$$
