
     RDKit          3D

 19 19  0  0  0  0  0  0  0  0999 V2000
    0.0306    0.0372    0.4166 C   0  0  0  0  0  0  0  0  0  0  0  0
    1.2061    0.0188    0.1695 C   0  0  0  0  0  0  0  0  0  0  0  0
    2.6347   -0.0077   -0.1092 C   0  0  0  0  0  0  0  0  0  0  0  0
    3.1325   -1.3776   -0.5683 C   0  0  0  0  0  0  0  0  0  0  0  0
    4.5377   -1.3120   -0.6195 O   0  0  0  0  0  0  0  0  0  0  0  0
    5.1058   -2.5421   -1.0544 C   0  0  0  0  0  0  0  0  0  0  0  0
    4.5347   -2.9436   -2.4161 C   0  0  0  0  0  0  0  0  0  0  0  0
    3.0074   -2.9102   -2.3302 C   0  0  0  0  0  0  0  0  0  0  0  0
    2.5707   -1.6547   -1.8239 O   0  0  0  0  0  0  0  0  0  0  0  0
   -1.0100    0.0566    0.6254 H   0  0  0  0  0  0  0  0  0  0  0  0
    2.8908    0.7133   -0.8935 H   0  0  0  0  0  0  0  0  0  0  0  0
    3.2049    0.2688    0.7840 H   0  0  0  0  0  0  0  0  0  0  0  0
    2.8319   -2.1677    0.1472 H   0  0  0  0  0  0  0  0  0  0  0  0
    6.1870   -2.3878   -1.0913 H   0  0  0  0  0  0  0  0  0  0  0  0
    4.8983   -3.3304   -0.3106 H   0  0  0  0  0  0  0  0  0  0  0  0
    4.8711   -2.2308   -3.1761 H   0  0  0  0  0  0  0  0  0  0  0  0
    4.8851   -3.9418   -2.7013 H   0  0  0  0  0  0  0  0  0  0  0  0
    2.5377   -3.0295   -3.3096 H   0  0  0  0  0  0  0  0  0  0  0  0
    2.6460   -3.7222   -1.6766 H   0  0  0  0  0  0  0  0  0  0  0  0
  1  2  3  0
  2  3  1  0
  3  4  1  0
  4  5  1  0
  5  6  1  0
  6  7  1  0
  7  8  1  0
  8  9  1  0
  9  4  1  0
  1 10  1  0
  3 11  1  0
  3 12  1  0
  4 13  1  0
  6 14  1  0
  6 15  1  0
  7 16  1  0
  7 17  1  0
  8 18  1  0
  8 19  1  0
M  END
$$$$
