gdb 2092	2.8599173	1.6762146	1.4270492	2.0345	74.26	-0.23895	0.07383	0.31278	972.0016	0.157998	-422.539305	-422.531792	-422.530848	-422.570438	31.366
 OpenBabel02181911403D

 19 21  0  0  1  0  0  0  0  0999 V2000
   -3.9406    2.1612    0.4991 O   0  0  0  0  0  0  0  0  0  0  0  0
   -2.5758    1.9387    0.3559 C   0  0  2  0  0  0  0  0  0  0  0  0
   -1.9721    0.5471   -0.0020 C   0  0  0  0  0  0  0  0  0  0  0  0
   -0.6921    1.1911    0.5481 C   0  0  1  0  0  0  0  0  0  0  0  0
    0.4821    0.5109    0.8385 O   0  0  0  0  0  0  0  0  0  0  0  0
   -0.4687    2.6159   -0.1147 C   0  0  2  0  0  0  0  0  0  0  0  0
   -0.5877    3.2421    1.3037 C   0  0  0  0  0  0  0  0  0  0  0  0
   -1.5260    2.0560    1.5583 C   0  0  1  0  0  0  0  0  0  0  0  0
   -1.8874    2.8457   -0.6760 C   0  0  0  0  0  0  0  0  0  0  0  0
   -4.2890    1.5289    1.1356 H   0  0  0  0  0  0  0  0  0  0  0  0
   -2.3258   -0.2405    0.6762 H   0  0  0  0  0  0  0  0  0  0  0  0
   -2.0288    0.2036   -1.0397 H   0  0  0  0  0  0  0  0  0  0  0  0
    0.2710   -0.2295    1.4172 H   0  0  0  0  0  0  0  0  0  0  0  0
    0.3890    2.8008   -0.7602 H   0  0  0  0  0  0  0  0  0  0  0  0
    0.3356    3.1433    1.8799 H   0  0  0  0  0  0  0  0  0  0  0  0
   -0.9704    4.2646    1.3779 H   0  0  0  0  0  0  0  0  0  0  0  0
   -1.8459    1.7013    2.5399 H   0  0  0  0  0  0  0  0  0  0  0  0
   -2.2051    3.8897   -0.6086 H   0  0  0  0  0  0  0  0  0  0  0  0
   -2.0367    2.4935   -1.7001 H   0  0  0  0  0  0  0  0  0  0  0  0
  1 10  1  0  0  0  0
  2  1  1  1  0  0  0
  2  8  1  0  0  0  0
  3  2  1  0  0  0  0
  3  4  1  0  0  0  0
  3 11  1  0  0  0  0
  4  5  1  1  0  0  0
  4  8  1  0  0  0  0
  5 13  1  0  0  0  0
  6 14  1  6  0  0  0
  6  4  1  0  0  0  0
  6  7  1  0  0  0  0
  7 16  1  0  0  0  0
  7  8  1  0  0  0  0
  7 15  1  0  0  0  0
  8 17  1  1  0  0  0
  9 18  1  0  0  0  0
  9  6  1  0  0  0  0
  9  2  1  0  0  0  0
 12  3  1  0  0  0  0
 19  9  1  0  0  0  0
M TOR 0 0 1 2 3
M TOR 1 0 1 2 10
M TOR 2 0 1 2 11
M TOR 3 0 1 7 3
M TOR 4 0 1 7 6
M TOR 5 0 1 7 16
M TOR 6 0 1 8 5
M TOR 7 0 1 8 17
M TOR 8 0 1 8 18
M TOR 9 1 2 3 4
M TOR 10 1 2 3 5
M TOR 11 1 2 3 7
M TOR 12 1 7 3 4
M TOR 13 1 7 3 5
M TOR 14 1 7 6 5
M TOR 15 1 7 6 14
M TOR 16 1 7 6 15
M TOR 17 1 8 5 3
M TOR 18 1 8 5 6
M TOR 19 1 8 5 13
M TOR 20 2 1 0 9
M TOR 21 2 1 7 6
M TOR 22 2 1 7 16
M TOR 23 2 1 8 5
M TOR 24 2 1 8 17
M TOR 25 2 1 8 18
M TOR 26 2 3 4 12
M TOR 27 2 3 5 6
M TOR 28 2 3 5 8
M TOR 29 2 3 5 13
M TOR 30 2 3 7 6
M TOR 31 2 3 7 16
M TOR 32 3 2 1 8
M TOR 33 3 5 6 7
M TOR 34 3 5 6 14
M TOR 35 3 5 6 15
M TOR 36 3 5 8 17
M TOR 37 3 5 8 18
M TOR 38 3 7 1 8
M TOR 39 3 7 6 14
M TOR 40 3 7 6 15
M TOR 41 4 3 2 10
M TOR 42 4 3 2 11
M TOR 43 4 3 5 6
M TOR 44 4 3 5 8
M TOR 45 4 3 5 13
M TOR 46 4 3 7 6
M TOR 47 4 3 7 16
M TOR 48 5 3 2 10
M TOR 49 5 3 2 11
M TOR 50 5 3 4 12
M TOR 51 5 3 7 16
M TOR 52 5 6 7 16
M TOR 53 5 8 1 7
M TOR 54 6 5 8 17
M TOR 55 6 5 8 18
M TOR 56 6 7 1 8
M TOR 57 7 1 0 9
M TOR 58 7 1 2 10
M TOR 59 7 1 2 11
M TOR 60 7 1 8 17
M TOR 61 7 1 8 18
M TOR 62 7 3 2 10
M TOR 63 7 3 2 11
M TOR 64 7 3 4 12
M TOR 65 7 3 5 8
M TOR 66 7 3 5 13
M TOR 67 7 6 5 8
M TOR 68 7 6 5 13
M TOR 69 8 1 0 9
M TOR 70 8 1 2 10
M TOR 71 8 1 2 11
M TOR 72 8 1 7 16
M TOR 73 8 5 6 14
M TOR 74 8 5 6 15
M  END
$$$$
