
     RDKit          3D

 19 20  0  0  0  0  0  0  0  0999 V2000
    1.4466   -0.0694   -0.0538 C   0  0  0  0  0  0  0  0  0  0  0  0
    0.0385    0.0429    0.0223 O   0  0  0  0  0  0  0  0  0  0  0  0
   -0.3978    0.7280    1.1500 C   0  0  0  0  0  0  0  0  0  0  0  0
   -0.4372    2.2425    1.1324 C   0  0  0  0  0  0  0  0  0  0  0  0
   -1.7041    1.4331    1.0255 C   0  0  0  0  0  0  0  0  0  0  0  0
   -2.6287    1.3280   -0.2001 C   0  0  0  0  0  0  0  0  0  0  0  0
   -3.8069    1.2116    0.7861 C   0  0  0  0  0  0  0  0  0  0  0  0
   -4.9850    1.0575    0.6555 O   0  0  0  0  0  0  0  0  0  0  0  0
   -2.8827    1.3692    2.0136 C   0  0  0  0  0  0  0  0  0  0  0  0
    1.8543   -0.6237    0.8047 H   0  0  0  0  0  0  0  0  0  0  0  0
    1.6761   -0.6175   -0.9703 H   0  0  0  0  0  0  0  0  0  0  0  0
    1.9303    0.9170   -0.0908 H   0  0  0  0  0  0  0  0  0  0  0  0
   -0.1616    0.2381    2.0976 H   0  0  0  0  0  0  0  0  0  0  0  0
   -0.2345    2.7789    2.0544 H   0  0  0  0  0  0  0  0  0  0  0  0
   -0.0871    2.7333    0.2295 H   0  0  0  0  0  0  0  0  0  0  0  0
   -2.6827    2.2145   -0.8406 H   0  0  0  0  0  0  0  0  0  0  0  0
   -2.4721    0.4494   -0.8327 H   0  0  0  0  0  0  0  0  0  0  0  0
   -3.0763    2.2872    2.5793 H   0  0  0  0  0  0  0  0  0  0  0  0
   -2.8985    0.5224    2.7075 H   0  0  0  0  0  0  0  0  0  0  0  0
  1  2  1  0
  2  3  1  0
  3  4  1  0
  4  5  1  0
  5  6  1  0
  6  7  1  0
  7  8  2  0
  7  9  1  0
  5  3  1  0
  9  5  1  0
  1 10  1  0
  1 11  1  0
  1 12  1  0
  3 13  1  0
  4 14  1  0
  4 15  1  0
  6 16  1  0
  6 17  1  0
  9 18  1  0
  9 19  1  0
M  END
$$$$
