gdb 1273	2.4332392	1.4943796	1.2116686	3.0949	76.04	-0.24552	-0.01348	0.23204	1112.2532	0.155721	-422.554772	-422.545797	-422.544853	-422.588505	33.661
 OpenBabel02181911403D

 19 20  0  0  1  0  0  0  0  0999 V2000
   -0.4561    3.4178   -1.5250 C   0  0  0  0  0  0  0  0  0  0  0  0
   -0.8918    2.0476   -2.0584 C   0  0  1  0  0  0  0  0  0  0  0  0
    0.1517    1.4194   -2.7908 O   0  0  0  0  0  0  0  0  0  0  0  0
   -1.3696    1.1505   -0.9405 C   0  0  1  0  0  0  0  0  0  0  0  0
   -2.7390    1.2360   -0.2865 C   0  0  0  0  0  0  0  0  0  0  0  0
   -2.3520   -0.0702   -0.8775 C   0  0  2  0  0  0  0  0  0  0  0  0
   -1.4326   -0.8227    0.0976 C   0  0  0  0  0  0  0  0  0  0  0  0
   -0.4336    0.3430   -0.1041 C   0  0  0  0  0  0  0  0  0  0  0  0
    0.7574    0.4322    0.0582 O   0  0  0  0  0  0  0  0  0  0  0  0
    0.3436    3.2976   -0.7866 H   0  0  0  0  0  0  0  0  0  0  0  0
   -0.0816    4.0333   -2.3471 H   0  0  0  0  0  0  0  0  0  0  0  0
   -1.2888    3.9404   -1.0435 H   0  0  0  0  0  0  0  0  0  0  0  0
   -1.7080    2.1829   -2.7796 H   0  0  0  0  0  0  0  0  0  0  0  0
    0.8695    1.2509   -2.1660 H   0  0  0  0  0  0  0  0  0  0  0  0
   -2.8344    1.3476    0.7908 H   0  0  0  0  0  0  0  0  0  0  0  0
   -3.4469    1.8321   -0.8557 H   0  0  0  0  0  0  0  0  0  0  0  0
   -2.8554   -0.5141   -1.7257 H   0  0  0  0  0  0  0  0  0  0  0  0
   -1.8288   -0.9936    1.1026 H   0  0  0  0  0  0  0  0  0  0  0  0
   -1.0084   -1.7531   -0.2885 H   0  0  0  0  0  0  0  0  0  0  0  0
  1 12  1  0  0  0  0
  1 10  1  0  0  0  0
  2 13  1  6  0  0  0
  2  1  1  0  0  0  0
  3 14  1  0  0  0  0
  3  2  1  0  0  0  0
  4  2  1  6  0  0  0
  4  6  1  0  0  0  0
  4  5  1  0  0  0  0
  4  8  1  0  0  0  0
  5 15  1  0  0  0  0
  6 17  1  6  0  0  0
  6  5  1  0  0  0  0
  6  7  1  0  0  0  0
  7 18  1  0  0  0  0
  8  9  2  0  0  0  0
  8  7  1  0  0  0  0
 11  1  1  0  0  0  0
 16  5  1  0  0  0  0
 19  7  1  0  0  0  0
M TOR 0 0 1 2 13
M TOR 1 0 1 3 4
M TOR 2 0 1 3 5
M TOR 3 0 1 3 7
M TOR 4 1 3 4 5
M TOR 5 1 3 4 14
M TOR 6 1 3 4 15
M TOR 7 1 3 5 6
M TOR 8 1 3 5 16
M TOR 9 1 3 7 6
M TOR 10 1 3 7 8
M TOR 11 2 1 0 9
M TOR 12 2 1 0 10
M TOR 13 2 1 0 11
M TOR 14 2 1 3 4
M TOR 15 2 1 3 5
M TOR 16 2 1 3 7
M TOR 17 3 1 0 9
M TOR 18 3 1 0 10
M TOR 19 3 1 0 11
M TOR 20 3 1 2 13
M TOR 21 3 4 5 6
M TOR 22 3 4 5 16
M TOR 23 3 5 4 14
M TOR 24 3 5 4 15
M TOR 25 3 5 6 7
M TOR 26 3 5 6 17
M TOR 27 3 5 6 18
M TOR 28 3 7 6 17
M TOR 29 3 7 6 18
M TOR 30 4 3 1 12
M TOR 31 4 3 7 6
M TOR 32 4 3 7 8
M TOR 33 4 5 3 7
M TOR 34 4 5 6 7
M TOR 35 4 5 6 17
M TOR 36 4 5 6 18
M TOR 37 5 3 1 12
M TOR 38 5 3 7 8
M TOR 39 5 6 7 8
M TOR 40 6 5 4 14
M TOR 41 6 5 4 15
M TOR 42 7 3 1 12
M TOR 43 7 3 4 14
M TOR 44 7 3 4 15
M TOR 45 7 3 5 16
M TOR 46 7 6 5 16
M TOR 47 8 7 6 17
M TOR 48 8 7 6 18
M  END
$$$$
