
     RDKit          3D

 19 21  0  0  0  0  0  0  0  0999 V2000
    0.0383    0.1810   -0.0623 C   0  0  0  0  0  0  0  0  0  0  0  0
    1.5044   -0.1177    0.1665 C   0  0  0  0  0  0  0  0  0  0  0  0
    2.1460    1.0759    0.6005 O   0  0  0  0  0  0  0  0  0  0  0  0
    3.5395    1.0092    0.3048 C   0  0  0  0  0  0  0  0  0  0  0  0
    3.7046   -0.0831   -0.7430 C   0  0  0  0  0  0  0  0  0  0  0  0
    3.3549   -1.5151   -0.3747 C   0  0  0  0  0  0  0  0  0  0  0  0
    2.8504   -1.8128    1.0307 C   0  0  0  0  0  0  0  0  0  0  0  0
    1.6092   -1.1240    1.1671 O   0  0  0  0  0  0  0  0  0  0  0  0
    2.3349   -0.6276   -1.0266 C   0  0  0  0  0  0  0  0  0  0  0  0
   -0.4113    0.5280    0.8707 H   0  0  0  0  0  0  0  0  0  0  0  0
   -0.0741    0.9620   -0.8175 H   0  0  0  0  0  0  0  0  0  0  0  0
   -0.4839   -0.7210   -0.3888 H   0  0  0  0  0  0  0  0  0  0  0  0
    3.8564    1.9829   -0.0855 H   0  0  0  0  0  0  0  0  0  0  0  0
    4.1141    0.8091    1.2204 H   0  0  0  0  0  0  0  0  0  0  0  0
    4.4257    0.0680   -1.5379 H   0  0  0  0  0  0  0  0  0  0  0  0
    3.8454   -2.3085   -0.9266 H   0  0  0  0  0  0  0  0  0  0  0  0
    2.6670   -2.8847    1.1663 H   0  0  0  0  0  0  0  0  0  0  0  0
    3.5535   -1.4892    1.8113 H   0  0  0  0  0  0  0  0  0  0  0  0
    1.9001   -0.7734   -2.0063 H   0  0  0  0  0  0  0  0  0  0  0  0
  1  2  1  0
  2  3  1  0
  3  4  1  0
  4  5  1  0
  5  6  1  0
  6  7  1  0
  7  8  1  0
  6  9  1  0
  8  2  1  0
  9  2  1  0
  9  5  1  0
  1 10  1  0
  1 11  1  0
  1 12  1  0
  4 13  1  0
  4 14  1  0
  5 15  1  0
  6 16  1  0
  7 17  1  0
  7 18  1  0
  9 19  1  0
M  END
$$$$
