gdb 4545	2.5032919	1.3352032	1.1333092	3.0898	77.96	-0.23828	-0.02848	0.2098	1160.9492	0.156436	-422.571797	-422.562997	-422.562053	-422.605485	32.399
 OpenBabel02181911413D

 19 19  0  0  1  0  0  0  0  0999 V2000
    1.0029    1.1238    0.2709 C   0  0  0  0  0  0  0  0  0  0  0  0
    0.9721   -0.3839    0.0086 C   0  0  2  0  0  0  0  0  0  0  0  0
    1.4577   -1.1494    1.1109 O   0  0  0  0  0  0  0  0  0  0  0  0
    2.8256   -0.9540    1.4192 C   0  0  0  0  0  0  0  0  0  0  0  0
    3.7115   -0.9066    0.2097 C   0  0  0  0  0  0  0  0  0  0  0  0
    3.2174   -0.8153   -1.0231 C   0  0  0  0  0  0  0  0  0  0  0  0
    1.7284   -0.7778   -1.2811 C   0  0  1  0  0  0  0  0  0  0  0  0
    1.2894   -2.1601   -1.7529 C   0  0  0  0  0  0  0  0  0  0  0  0
    1.0336   -2.4452   -2.8938 O   0  0  0  0  0  0  0  0  0  0  0  0
    0.5333    1.3416    1.2343 H   0  0  0  0  0  0  0  0  0  0  0  0
    2.0241    1.5152    0.2812 H   0  0  0  0  0  0  0  0  0  0  0  0
    0.4487    1.6535   -0.5099 H   0  0  0  0  0  0  0  0  0  0  0  0
   -0.0747   -0.6970   -0.0785 H   0  0  0  0  0  0  0  0  0  0  0  0
    2.9684   -0.0362    2.0172 H   0  0  0  0  0  0  0  0  0  0  0  0
    3.1066   -1.7915    2.0687 H   0  0  0  0  0  0  0  0  0  0  0  0
    4.7834   -0.9177    0.3880 H   0  0  0  0  0  0  0  0  0  0  0  0
    3.8702   -0.7915   -1.8903 H   0  0  0  0  0  0  0  0  0  0  0  0
    1.5007   -0.0760   -2.0902 H   0  0  0  0  0  0  0  0  0  0  0  0
    1.2409   -2.9112   -0.9341 H   0  0  0  0  0  0  0  0  0  0  0  0
  1 11  1  0  0  0  0
  1 10  1  0  0  0  0
  2 13  1  6  0  0  0
  2  1  1  0  0  0  0
  2  3  1  0  0  0  0
  3  4  1  0  0  0  0
  4 14  1  0  0  0  0
  4 15  1  0  0  0  0
  5 16  1  0  0  0  0
  5  4  1  0  0  0  0
  6  5  2  0  0  0  0
  7 18  1  6  0  0  0
  7  6  1  0  0  0  0
  7  2  1  0  0  0  0
  8  7  1  0  0  0  0
  8 19  1  0  0  0  0
  9  8  2  0  0  0  0
 12  1  1  0  0  0  0
 17  6  1  0  0  0  0
M TOR 0 0 1 2 3
M TOR 1 0 1 6 5
M TOR 2 0 1 6 7
M TOR 3 0 1 6 17
M TOR 4 1 2 3 4
M TOR 5 1 2 3 13
M TOR 6 1 2 3 14
M TOR 7 1 6 5 4
M TOR 8 1 6 5 16
M TOR 9 1 6 7 8
M TOR 10 1 6 7 18
M TOR 11 2 1 0 9
M TOR 12 2 1 0 10
M TOR 13 2 1 0 11
M TOR 14 2 1 6 5
M TOR 15 2 1 6 7
M TOR 16 2 1 6 17
M TOR 17 2 3 4 5
M TOR 18 2 3 4 15
M TOR 19 3 2 1 6
M TOR 20 3 2 1 12
M TOR 21 3 4 5 6
M TOR 22 3 4 5 16
M TOR 23 4 5 6 7
M TOR 24 4 5 6 17
M TOR 25 5 4 3 13
M TOR 26 5 4 3 14
M TOR 27 5 6 1 12
M TOR 28 5 6 7 8
M TOR 29 5 6 7 18
M TOR 30 6 1 0 9
M TOR 31 6 1 0 10
M TOR 32 6 1 0 11
M TOR 33 6 5 4 15
M TOR 34 7 6 1 12
M TOR 35 7 6 5 16
M TOR 36 8 7 6 17
M  END
$$$$
