gdb 4755	4.2664855	0.6212873	0.5775027	1.9373	83.86	-0.25344	0.01943	0.27287	1950.5569	0.153647	-422.479713	-422.469228	-422.468283	-422.517497	35.499
 OpenBabel02181911413D

 19 19  0  0  1  0  0  0  0  0999 V2000
   -5.3581   -1.5261    0.0486 C   0  0  0  0  0  0  0  0  0  0  0  0
   -4.0039   -1.1750   -0.1274 O   0  0  0  0  0  0  0  0  0  0  0  0
   -3.1361   -1.6809    0.8826 C   0  0  1  0  0  0  0  0  0  0  0  0
   -2.7977   -3.1657    0.6663 C   0  0  0  0  0  0  0  0  0  0  0  0
   -1.9224   -0.8645    0.8851 C   0  0  0  0  0  0  0  0  0  0  0  0
   -0.9017   -0.2255    0.8937 C   0  0  0  0  0  0  0  0  0  0  0  0
    0.3032    0.5566    0.9292 C   0  0  2  0  0  0  0  0  0  0  0  0
    0.9187    1.0864   -0.3043 C   0  0  0  0  0  0  0  0  0  0  0  0
    1.4940   -0.0247    0.3687 O   0  0  0  0  0  0  0  0  0  0  0  0
   -5.7360   -1.2071    1.0328 H   0  0  0  0  0  0  0  0  0  0  0  0
   -5.9226   -1.0066   -0.7294 H   0  0  0  0  0  0  0  0  0  0  0  0
   -5.5367   -2.6062   -0.0558 H   0  0  0  0  0  0  0  0  0  0  0  0
   -3.6282   -1.5699    1.8645 H   0  0  0  0  0  0  0  0  0  0  0  0
   -2.1152   -3.5155    1.4455 H   0  0  0  0  0  0  0  0  0  0  0  0
   -3.7027   -3.7780    0.7031 H   0  0  0  0  0  0  0  0  0  0  0  0
   -2.3180   -3.2983   -0.3063 H   0  0  0  0  0  0  0  0  0  0  0  0
    0.4805    1.1043    1.8542 H   0  0  0  0  0  0  0  0  0  0  0  0
    0.4488    0.8664   -1.2608 H   0  0  0  0  0  0  0  0  0  0  0  0
    1.4842    2.0162   -0.2553 H   0  0  0  0  0  0  0  0  0  0  0  0
  1 10  1  0  0  0  0
  2  1  1  0  0  0  0
  2  3  1  0  0  0  0
  3  5  1  0  0  0  0
  3 13  1  1  0  0  0
  4 15  1  0  0  0  0
  4  3  1  0  0  0  0
  4 14  1  0  0  0  0
  5  6  3  0  0  0  0
  6  7  1  0  0  0  0
  7 17  1  1  0  0  0
  8 19  1  0  0  0  0
  8  9  1  0  0  0  0
  8  7  1  0  0  0  0
  9  7  1  0  0  0  0
 11  1  1  0  0  0  0
 12  1  1  0  0  0  0
 16  4  1  0  0  0  0
 18  8  1  0  0  0  0
M TOR 0 0 1 2 3
M TOR 1 0 1 2 4
M TOR 2 0 1 2 12
M TOR 3 1 2 3 13
M TOR 4 1 2 3 14
M TOR 5 1 2 3 15
M TOR 6 1 2 4 5
M TOR 7 2 1 0 9
M TOR 8 2 1 0 10
M TOR 9 2 1 0 11
M TOR 10 2 4 5 6
M TOR 11 3 2 4 5
M TOR 12 4 2 3 13
M TOR 13 4 2 3 14
M TOR 14 4 2 3 15
M TOR 15 4 5 6 7
M TOR 16 4 5 6 8
M TOR 17 4 5 6 16
M TOR 18 5 4 2 12
M TOR 19 5 6 7 8
M TOR 20 5 6 7 17
M TOR 21 5 6 7 18
M TOR 22 6 8 7 17
M TOR 23 6 8 7 18
M TOR 24 7 8 6 16
M  END
$$$$
