gdb 5525	3.8770806	1.0267835	1.0006098	3.142	76.56	-0.22673	0.00647	0.2332	1276.8959	0.156402	-422.513369	-422.504739	-422.503795	-422.546665	32.477
 OpenBabel02181911423D

 19 20  0  0  1  0  0  0  0  0999 V2000
    1.6198    0.9973   -0.0095 C   0  0  0  0  0  0  0  0  0  0  0  0
    0.2467    0.4501    0.1565 C   0  0  0  0  0  0  0  0  0  0  0  0
   -0.9727    0.9750   -0.0060 C   0  0  0  0  0  0  0  0  0  0  0  0
   -1.8768   -0.2123    0.3548 C   0  0  1  0  0  0  0  0  0  0  0  0
   -1.2002   -1.3197   -0.3398 O   0  0  0  0  0  0  0  0  0  0  0  0
   -0.1186   -0.9895    0.5902 C   0  0  2  0  0  0  0  0  0  0  0  0
   -1.2133   -0.7236    1.6776 C   0  0  2  0  0  0  0  0  0  0  0  0
   -1.8547   -1.9463    2.3146 C   0  0  0  0  0  0  0  0  0  0  0  0
   -3.1044   -1.6360    2.9203 O   0  0  0  0  0  0  0  0  0  0  0  0
    2.1938    0.9305    0.9238 H   0  0  0  0  0  0  0  0  0  0  0  0
    2.1842    0.4333   -0.7630 H   0  0  0  0  0  0  0  0  0  0  0  0
    1.5979    2.0464   -0.3170 H   0  0  0  0  0  0  0  0  0  0  0  0
   -1.2779    1.9665   -0.3074 H   0  0  0  0  0  0  0  0  0  0  0  0
   -2.9536   -0.1681    0.2025 H   0  0  0  0  0  0  0  0  0  0  0  0
    0.6596   -1.7494    0.6752 H   0  0  0  0  0  0  0  0  0  0  0  0
   -0.9772    0.0424    2.4253 H   0  0  0  0  0  0  0  0  0  0  0  0
   -2.0662   -2.6922    1.5454 H   0  0  0  0  0  0  0  0  0  0  0  0
   -1.1603   -2.3977    3.0419 H   0  0  0  0  0  0  0  0  0  0  0  0
   -2.9373   -1.0256    3.6457 H   0  0  0  0  0  0  0  0  0  0  0  0
  1  2  1  0  0  0  0
  1 10  1  0  0  0  0
  2  6  1  0  0  0  0
  3  2  2  0  0  0  0
  3  4  1  0  0  0  0
  4 14  1  6  0  0  0
  4  7  1  0  0  0  0
  5  4  1  0  0  0  0
  5  6  1  0  0  0  0
  6 15  1  1  0  0  0
  6  7  1  0  0  0  0
  7  8  1  0  0  0  0
  7 16  1  1  0  0  0
  8  9  1  0  0  0  0
  8 18  1  0  0  0  0
  9 19  1  0  0  0  0
 11  1  1  0  0  0  0
 12  1  1  0  0  0  0
 13  3  1  0  0  0  0
 17  8  1  0  0  0  0
M TOR 0 0 1 2 3
M TOR 1 0 1 2 12
M TOR 2 0 1 5 4
M TOR 3 0 1 5 6
M TOR 4 0 1 5 14
M TOR 5 1 2 3 4
M TOR 6 1 2 3 6
M TOR 7 1 2 3 13
M TOR 8 1 5 4 3
M TOR 9 1 5 6 3
M TOR 10 1 5 6 7
M TOR 11 1 5 6 15
M TOR 12 2 1 0 9
M TOR 13 2 1 0 10
M TOR 14 2 1 0 11
M TOR 15 2 1 5 4
M TOR 16 2 1 5 6
M TOR 17 2 1 5 14
M TOR 18 2 3 4 5
M TOR 19 2 3 6 5
M TOR 20 2 3 6 7
M TOR 21 2 3 6 15
M TOR 22 3 2 1 5
M TOR 23 3 4 5 6
M TOR 24 3 4 5 14
M TOR 25 3 6 5 14
M TOR 26 3 6 7 8
M TOR 27 3 6 7 16
M TOR 28 3 6 7 17
M TOR 29 4 3 2 12
M TOR 30 4 3 6 7
M TOR 31 4 3 6 15
M TOR 32 4 5 6 7
M TOR 33 4 5 6 15
M TOR 34 5 1 0 9
M TOR 35 5 1 0 10
M TOR 36 5 1 0 11
M TOR 37 5 1 2 12
M TOR 38 5 4 3 13
M TOR 39 5 6 3 13
M TOR 40 5 6 7 8
M TOR 41 5 6 7 16
M TOR 42 5 6 7 17
M TOR 43 6 3 2 12
M TOR 44 6 7 8 18
M TOR 45 7 6 3 13
M TOR 46 7 6 5 14
M TOR 47 8 7 6 15
M  END
$$$$
