
     RDKit          3D

 19 21  0  0  0  0  0  0  0  0999 V2000
    0.2135    0.1059    0.1901 O   0  0  0  0  0  0  0  0  0  0  0  0
   -0.9794    0.8326    0.3313 C   0  0  0  0  0  0  0  0  0  0  0  0
   -0.8319    2.3552    0.5648 C   0  0  0  0  0  0  0  0  0  0  0  0
   -2.0218    2.5881   -0.4155 C   0  0  0  0  0  0  0  0  0  0  0  0
   -1.7873    1.1556   -0.9395 C   0  0  0  0  0  0  0  0  0  0  0  0
   -2.7193    0.1599   -1.6639 C   0  0  0  0  0  0  0  0  0  0  0  0
   -2.5693    0.9643   -2.9742 C   0  0  0  0  0  0  0  0  0  0  0  0
   -1.1779    0.8073   -2.3211 C   0  0  0  0  0  0  0  0  0  0  0  0
   -1.5029   -0.6212   -2.0424 O   0  0  0  0  0  0  0  0  0  0  0  0
   -0.0127   -0.6477   -0.3716 H   0  0  0  0  0  0  0  0  0  0  0  0
   -1.6347    0.3876    1.0985 H   0  0  0  0  0  0  0  0  0  0  0  0
   -0.9324    2.7249    1.5864 H   0  0  0  0  0  0  0  0  0  0  0  0
    0.1134    2.7055    0.1431 H   0  0  0  0  0  0  0  0  0  0  0  0
   -2.9778    2.6869    0.1071 H   0  0  0  0  0  0  0  0  0  0  0  0
   -1.9311    3.4097   -1.1294 H   0  0  0  0  0  0  0  0  0  0  0  0
   -3.5721   -0.4034   -1.2829 H   0  0  0  0  0  0  0  0  0  0  0  0
   -2.7175    0.3924   -3.8910 H   0  0  0  0  0  0  0  0  0  0  0  0
   -3.0087    1.9635   -3.0141 H   0  0  0  0  0  0  0  0  0  0  0  0
   -0.1879    1.0237   -2.7215 H   0  0  0  0  0  0  0  0  0  0  0  0
  1  2  1  0
  2  3  1  0
  3  4  1  0
  4  5  1  0
  5  6  1  0
  6  7  1  0
  7  8  1  0
  8  9  1  0
  5  2  1  0
  8  5  1  0
  9  6  1  0
  1 10  1  0
  2 11  1  0
  3 12  1  0
  3 13  1  0
  4 14  1  0
  4 15  1  0
  6 16  1  0
  7 17  1  0
  7 18  1  0
  8 19  1  0
M  END
$$$$
