
     RDKit          3D

 19 21  0  0  0  0  0  0  0  0999 V2000
    1.4251    0.5353   -0.0743 C   0  0  0  0  0  0  0  0  0  0  0  0
    0.0471    0.7454    0.1211 O   0  0  0  0  0  0  0  0  0  0  0  0
   -0.5150   -0.1302    1.0786 C   0  0  0  0  0  0  0  0  0  0  0  0
   -1.9707    0.1858    1.2072 C   0  0  0  0  0  0  0  0  0  0  0  0
   -2.9882   -0.4092    2.1808 C   0  0  0  0  0  0  0  0  0  0  0  0
   -3.9257    0.7217    1.6825 C   0  0  0  0  0  0  0  0  0  0  0  0
   -4.1933    0.3608    0.2986 O   0  0  0  0  0  0  0  0  0  0  0  0
   -2.8324    0.7054    0.0387 C   0  0  0  0  0  0  0  0  0  0  0  0
   -2.6560    1.5520    1.2533 C   0  0  0  0  0  0  0  0  0  0  0  0
    1.6352   -0.4823   -0.4398 H   0  0  0  0  0  0  0  0  0  0  0  0
    1.7631    1.2564   -0.8222 H   0  0  0  0  0  0  0  0  0  0  0  0
    1.9970    0.6904    0.8542 H   0  0  0  0  0  0  0  0  0  0  0  0
   -0.3774   -1.1818    0.7684 H   0  0  0  0  0  0  0  0  0  0  0  0
   -0.0022   -0.0134    2.0503 H   0  0  0  0  0  0  0  0  0  0  0  0
   -3.3399   -1.4350    2.0274 H   0  0  0  0  0  0  0  0  0  0  0  0
   -2.6841   -0.2557    3.2202 H   0  0  0  0  0  0  0  0  0  0  0  0
   -4.8074    1.0506    2.2281 H   0  0  0  0  0  0  0  0  0  0  0  0
   -2.4865    0.8101   -0.9794 H   0  0  0  0  0  0  0  0  0  0  0  0
   -2.2983    2.5576    1.4230 H   0  0  0  0  0  0  0  0  0  0  0  0
  1  2  1  0
  2  3  1  0
  3  4  1  0
  4  5  1  0
  5  6  1  0
  6  7  1  0
  7  8  1  0
  8  9  1  0
  8  4  1  0
  9  4  1  0
  9  6  1  0
  1 10  1  0
  1 11  1  0
  1 12  1  0
  3 13  1  0
  3 14  1  0
  5 15  1  0
  5 16  1  0
  6 17  1  0
  8 18  1  0
  9 19  1  0
M  END
$$$$
