gdb 5960	4.2180956	0.945825	0.8849636	3.1663	75.05	-0.24633	0.04535	0.29168	1384.4383	0.154594	-422.462718	-422.454056	-422.453112	-422.496567	32.336
 OpenBabel02181911423D

 19 21  0  0  1  0  0  0  0  0999 V2000
    1.4440   -0.9726   -0.8457 C   0  0  0  0  0  0  0  0  0  0  0  0
    1.1452    0.0275    0.2730 C   0  0  0  0  0  0  0  0  0  0  0  0
    1.7082    1.4287   -0.0167 C   0  0  0  0  0  0  0  0  0  0  0  0
    1.4085    2.4039    1.0744 C   0  0  1  0  0  0  0  0  0  0  0  0
    2.1196    2.3339    2.3128 O   0  0  0  0  0  0  0  0  0  0  0  0
    2.0920    3.5808    1.6158 C   0  0  2  0  0  0  0  0  0  0  0  0
    0.6989    4.2709    1.9053 C   0  0  2  0  0  0  0  0  0  0  0  0
   -0.0500    3.4189    2.7688 O   0  0  0  0  0  0  0  0  0  0  0  0
    0.0054    3.0963    1.3811 C   0  0  2  0  0  0  0  0  0  0  0  0
    1.0351   -1.9606   -0.6137 H   0  0  0  0  0  0  0  0  0  0  0  0
    1.0091   -0.6472   -1.7976 H   0  0  0  0  0  0  0  0  0  0  0  0
    2.5231   -1.0861   -0.9975 H   0  0  0  0  0  0  0  0  0  0  0  0
    0.0609    0.0977    0.4272 H   0  0  0  0  0  0  0  0  0  0  0  0
    1.5659   -0.3302    1.2196 H   0  0  0  0  0  0  0  0  0  0  0  0
    2.7952    1.3747   -0.1495 H   0  0  0  0  0  0  0  0  0  0  0  0
    1.2910    1.8091   -0.9592 H   0  0  0  0  0  0  0  0  0  0  0  0
    3.0322    4.0540    1.3594 H   0  0  0  0  0  0  0  0  0  0  0  0
    0.4568    5.3257    1.8743 H   0  0  0  0  0  0  0  0  0  0  0  0
   -0.9236    2.9940    0.8330 H   0  0  0  0  0  0  0  0  0  0  0  0
  1 10  1  0  0  0  0
  1  2  1  0  0  0  0
  2 13  1  0  0  0  0
  2 14  1  0  0  0  0
  3  2  1  0  0  0  0
  4  3  1  6  0  0  0
  4  9  1  0  0  0  0
  4  6  1  0  0  0  0
  4  5  1  0  0  0  0
  6 17  1  6  0  0  0
  6  7  1  0  0  0  0
  6  5  1  0  0  0  0
  7 18  1  6  0  0  0
  7  8  1  0  0  0  0
  9 19  1  6  0  0  0
  9  7  1  0  0  0  0
  9  8  1  0  0  0  0
 11  1  1  0  0  0  0
 12  1  1  0  0  0  0
 15  3  1  0  0  0  0
 16  3  1  0  0  0  0
M TOR 0 0 1 2 3
M TOR 1 0 1 2 14
M TOR 2 0 1 2 15
M TOR 3 1 2 3 4
M TOR 4 1 2 3 5
M TOR 5 1 2 3 8
M TOR 6 2 1 0 9
M TOR 7 2 1 0 10
M TOR 8 2 1 0 11
M TOR 9 2 3 4 5
M TOR 10 2 3 5 6
M TOR 11 2 3 5 16
M TOR 12 2 3 8 6
M TOR 13 2 3 8 7
M TOR 14 2 3 8 18
M TOR 15 3 2 1 12
M TOR 16 3 2 1 13
M TOR 17 3 4 5 6
M TOR 18 3 4 5 16
M TOR 19 3 5 6 7
M TOR 20 3 5 6 8
M TOR 21 3 5 6 17
M TOR 22 3 8 6 7
M TOR 23 3 8 6 17
M TOR 24 4 3 2 14
M TOR 25 4 3 2 15
M TOR 26 4 3 8 6
M TOR 27 4 3 8 7
M TOR 28 4 3 8 18
M TOR 29 4 5 3 8
M TOR 30 4 5 6 7
M TOR 31 4 5 6 8
M TOR 32 4 5 6 17
M TOR 33 5 3 2 14
M TOR 34 5 3 2 15
M TOR 35 5 3 8 7
M TOR 36 5 3 8 18
M TOR 37 5 6 7 8
M TOR 38 5 6 8 18
M TOR 39 6 7 8 18
M TOR 40 7 6 5 16
M TOR 41 7 8 6 17
M TOR 42 8 3 2 14
M TOR 43 8 3 2 15
M TOR 44 8 3 5 16
M TOR 45 8 6 5 16
M  END
$$$$
