gdb 5707	2.6031396	1.176351	1.0874472	1.5093	77.97	-0.24549	-0.02875	0.21674000000000002	1238.9423	0.154887	-422.535598	-422.526423	-422.525479	-422.569983	33.306
 OpenBabel02181911423D

 19 20  0  0  1  0  0  0  0  0999 V2000
    1.5259    1.8925   -0.4243 C   0  0  0  0  0  0  0  0  0  0  0  0
    1.3561    0.4001   -0.1206 C   0  0  0  0  0  0  0  0  0  0  0  0
    2.0355   -0.4852   -1.1457 C   0  0  1  0  0  0  0  0  0  0  0  0
    1.5615   -1.8980   -1.3861 C   0  0  0  0  0  0  0  0  0  0  0  0
    1.2957   -0.8335   -2.4132 C   0  0  1  0  0  0  0  0  0  0  0  0
   -0.0128   -0.3379   -2.7283 O   0  0  0  0  0  0  0  0  0  0  0  0
    0.3122   -0.1905   -4.1330 C   0  0  0  0  0  0  0  0  0  0  0  0
    1.7259   -0.7286   -3.8421 C   0  0  0  0  0  0  0  0  0  0  0  0
    2.7174   -0.9575   -4.4685 O   0  0  0  0  0  0  0  0  0  0  0  0
    1.0532    2.5066    0.3480 H   0  0  0  0  0  0  0  0  0  0  0  0
    2.5842    2.1716   -0.4714 H   0  0  0  0  0  0  0  0  0  0  0  0
    1.0668    2.1450   -1.3848 H   0  0  0  0  0  0  0  0  0  0  0  0
    1.7646    0.1693    0.8713 H   0  0  0  0  0  0  0  0  0  0  0  0
    0.2893    0.1535   -0.0857 H   0  0  0  0  0  0  0  0  0  0  0  0
    3.1004   -0.3078   -1.2839 H   0  0  0  0  0  0  0  0  0  0  0  0
    2.2815   -2.6698   -1.6375 H   0  0  0  0  0  0  0  0  0  0  0  0
    0.6923   -2.2345   -0.8294 H   0  0  0  0  0  0  0  0  0  0  0  0
   -0.3085   -0.8236   -4.7769 H   0  0  0  0  0  0  0  0  0  0  0  0
    0.2646    0.8504   -4.4718 H   0  0  0  0  0  0  0  0  0  0  0  0
  1  2  1  0  0  0  0
  1 10  1  0  0  0  0
  2 14  1  0  0  0  0
  2 13  1  0  0  0  0
  3 15  1  6  0  0  0
  3  2  1  0  0  0  0
  4  3  1  0  0  0  0
  4 17  1  0  0  0  0
  5  8  1  6  0  0  0
  5  4  1  0  0  0  0
  5  3  1  0  0  0  0
  6  5  1  0  0  0  0
  7  8  1  0  0  0  0
  7  6  1  0  0  0  0
  9  8  2  0  0  0  0
 11  1  1  0  0  0  0
 12  1  1  0  0  0  0
 16  4  1  0  0  0  0
 18  7  1  0  0  0  0
 19  7  1  0  0  0  0
M TOR 0 0 1 2 3
M TOR 1 0 1 2 4
M TOR 2 0 1 2 14
M TOR 3 1 2 3 4
M TOR 4 1 2 3 15
M TOR 5 1 2 3 16
M TOR 6 1 2 4 5
M TOR 7 1 2 4 7
M TOR 8 2 1 0 9
M TOR 9 2 1 0 10
M TOR 10 2 1 0 11
M TOR 11 2 3 4 5
M TOR 12 2 3 4 7
M TOR 13 2 4 3 15
M TOR 14 2 4 3 16
M TOR 15 2 4 5 6
M TOR 16 2 4 7 6
M TOR 17 2 4 7 8
M TOR 18 3 2 1 12
M TOR 19 3 2 1 13
M TOR 20 3 4 2 14
M TOR 21 3 4 5 6
M TOR 22 3 4 7 6
M TOR 23 3 4 7 8
M TOR 24 4 2 1 12
M TOR 25 4 2 1 13
M TOR 26 4 5 6 7
M TOR 27 4 5 6 17
M TOR 28 4 5 6 18
M TOR 29 4 7 6 17
M TOR 30 4 7 6 18
M TOR 31 5 4 2 14
M TOR 32 5 4 3 15
M TOR 33 5 4 3 16
M TOR 34 5 4 7 8
M TOR 35 5 6 7 8
M TOR 36 7 4 2 14
M TOR 37 7 4 3 15
M TOR 38 7 4 3 16
M TOR 39 8 7 6 17
M TOR 40 8 7 6 18
M  END
$$$$
