
     RDKit          3D

 19 19  0  0  0  0  0  0  0  0999 V2000
    1.4112    0.5708   -0.4217 O   0  0  0  0  0  0  0  0  0  0  0  0
    0.4409    0.0618    0.4714 C   0  0  0  0  0  0  0  0  0  0  0  0
   -0.3295    1.1863    1.1926 C   0  0  0  0  0  0  0  0  0  0  0  0
   -1.2744    1.9648    0.2160 C   0  0  0  0  0  0  0  0  0  0  0  0
   -2.4506    1.0541    0.6602 C   0  0  0  0  0  0  0  0  0  0  0  0
   -1.6366    0.6525    1.9032 C   0  0  0  0  0  0  0  0  0  0  0  0
   -1.7158   -0.7094    2.2373 O   0  0  0  0  0  0  0  0  0  0  0  0
    0.5868    1.9713    1.9991 C   0  0  0  0  0  0  0  0  0  0  0  0
    1.3661    2.6051    2.6642 C   0  0  0  0  0  0  0  0  0  0  0  0
    2.0004    1.1362    0.0919 H   0  0  0  0  0  0  0  0  0  0  0  0
   -0.2505   -0.5341   -0.1294 H   0  0  0  0  0  0  0  0  0  0  0  0
    0.8871   -0.6077    1.2206 H   0  0  0  0  0  0  0  0  0  0  0  0
   -1.4082    3.0038    0.5219 H   0  0  0  0  0  0  0  0  0  0  0  0
   -0.9728    1.9367   -0.8319 H   0  0  0  0  0  0  0  0  0  0  0  0
   -3.4219    1.5204    0.8329 H   0  0  0  0  0  0  0  0  0  0  0  0
   -2.5858    0.1950   -0.0013 H   0  0  0  0  0  0  0  0  0  0  0  0
   -1.8737    1.2935    2.7619 H   0  0  0  0  0  0  0  0  0  0  0  0
   -1.2740   -0.8468    3.0815 H   0  0  0  0  0  0  0  0  0  0  0  0
    2.0366    3.1770    3.2569 H   0  0  0  0  0  0  0  0  0  0  0  0
  1  2  1  0
  2  3  1  0
  3  4  1  0
  4  5  1  0
  5  6  1  0
  6  7  1  0
  3  8  1  0
  8  9  3  0
  6  3  1  0
  1 10  1  0
  2 11  1  0
  2 12  1  0
  4 13  1  0
  4 14  1  0
  5 15  1  0
  5 16  1  0
  6 17  1  0
  7 18  1  0
  9 19  1  0
M  END
$$$$
