
     RDKit          3D

 19 21  0  0  0  0  0  0  0  0999 V2000
    1.5933    0.6340    0.3296 O   0  0  0  0  0  0  0  0  0  0  0  0
    0.5695   -0.2673    0.7009 C   0  0  0  0  0  0  0  0  0  0  0  0
   -0.3548    0.3542    1.7408 C   0  0  0  0  0  0  0  0  0  0  0  0
   -0.8770    1.5987    1.2094 O   0  0  0  0  0  0  0  0  0  0  0  0
   -2.2767    1.3945    1.2736 C   0  0  0  0  0  0  0  0  0  0  0  0
   -2.6468   -0.0577    0.8542 C   0  0  0  0  0  0  0  0  0  0  0  0
   -3.8152   -0.0302    1.8648 C   0  0  0  0  0  0  0  0  0  0  0  0
   -2.6582    0.6799    2.6022 C   0  0  0  0  0  0  0  0  0  0  0  0
   -1.6571   -0.3830    2.0306 C   0  0  0  0  0  0  0  0  0  0  0  0
    1.1449    1.4597    0.1092 H   0  0  0  0  0  0  0  0  0  0  0  0
   -0.0232   -0.5863   -0.1717 H   0  0  0  0  0  0  0  0  0  0  0  0
    1.0589   -1.1557    1.1156 H   0  0  0  0  0  0  0  0  0  0  0  0
    0.2183    0.5789    2.6501 H   0  0  0  0  0  0  0  0  0  0  0  0
   -2.8170    2.2645    0.9021 H   0  0  0  0  0  0  0  0  0  0  0  0
   -2.6340   -0.4785   -0.1514 H   0  0  0  0  0  0  0  0  0  0  0  0
   -4.6831    0.5811    1.6008 H   0  0  0  0  0  0  0  0  0  0  0  0
   -4.1270   -0.9957    2.2701 H   0  0  0  0  0  0  0  0  0  0  0  0
   -2.6503    1.1068    3.6057 H   0  0  0  0  0  0  0  0  0  0  0  0
   -1.6210   -1.3857    2.4571 H   0  0  0  0  0  0  0  0  0  0  0  0
  1  2  1  0
  2  3  1  0
  3  4  1  0
  4  5  1  0
  5  6  1  0
  6  7  1  0
  7  8  1  0
  8  9  1  0
  9  3  1  0
  8  5  1  0
  9  6  1  0
  1 10  1  0
  2 11  1  0
  2 12  1  0
  3 13  1  0
  5 14  1  0
  6 15  1  0
  7 16  1  0
  7 17  1  0
  8 18  1  0
  9 19  1  0
M  END
$$$$
