
     RDKit          3D

 19 21  0  0  0  0  0  0  0  0999 V2000
    2.2604    1.5081   -0.8908 C   0  0  0  0  0  0  0  0  0  0  0  0
    1.6229    0.1741   -0.5522 C   0  0  0  0  0  0  0  0  0  0  0  0
    1.9303   -0.4942    0.8007 C   0  0  0  0  0  0  0  0  0  0  0  0
    3.3426   -0.7451    0.3330 O   0  0  0  0  0  0  0  0  0  0  0  0
    2.4385   -1.1415   -0.7715 C   0  0  0  0  0  0  0  0  0  0  0  0
    2.4894   -2.0023   -2.0021 C   0  0  0  0  0  0  0  0  0  0  0  0
    1.1638   -2.5746   -1.9924 O   0  0  0  0  0  0  0  0  0  0  0  0
    0.4804   -2.4169   -0.7072 C   0  0  0  0  0  0  0  0  0  0  0  0
    1.5638   -1.9005    0.2235 C   0  0  0  0  0  0  0  0  0  0  0  0
    1.7285    2.3272   -0.3947 H   0  0  0  0  0  0  0  0  0  0  0  0
    3.3048    1.5286   -0.5746 H   0  0  0  0  0  0  0  0  0  0  0  0
    2.2154    1.6966   -1.9689 H   0  0  0  0  0  0  0  0  0  0  0  0
    0.5767    0.1294   -0.8644 H   0  0  0  0  0  0  0  0  0  0  0  0
    1.8350   -0.1150    1.8191 H   0  0  0  0  0  0  0  0  0  0  0  0
    2.6141   -1.4616   -2.9452 H   0  0  0  0  0  0  0  0  0  0  0  0
    3.2600   -2.7813   -1.9240 H   0  0  0  0  0  0  0  0  0  0  0  0
   -0.3742   -1.7465   -0.8457 H   0  0  0  0  0  0  0  0  0  0  0  0
    0.1020   -3.3996   -0.4116 H   0  0  0  0  0  0  0  0  0  0  0  0
    2.1125   -2.6954    0.7314 H   0  0  0  0  0  0  0  0  0  0  0  0
  1  2  1  0
  2  3  1  0
  3  4  1  0
  4  5  1  0
  5  6  1  0
  6  7  1  0
  7  8  1  0
  8  9  1  0
  5  2  1  0
  9  5  1  0
  9  3  1  0
  1 10  1  0
  1 11  1  0
  1 12  1  0
  2 13  1  0
  3 14  1  0
  6 15  1  0
  6 16  1  0
  8 17  1  0
  8 18  1  0
  9 19  1  0
M  END
$$$$
