gdb 2474	2.5957779	1.8126498	1.3932109	2.0741	73.24	-0.23986	0.08034	0.3202	985.5079	0.157601	-422.528482	-422.520801	-422.519856	-422.560223	30.268
 OpenBabel02181911413D

 19 21  0  0  1  0  0  0  0  0999 V2000
    0.2435    0.2478   -1.8051 C   0  0  0  0  0  0  0  0  0  0  0  0
    1.2672    0.0957   -0.6915 C   0  0  1  0  0  0  0  0  0  0  0  0
    1.9239   -1.2928   -0.5980 C   0  0  0  0  0  0  0  0  0  0  0  0
    3.3407   -1.0109   -0.0759 C   0  0  0  0  0  0  0  0  0  0  0  0
    3.6922    0.2673   -0.6027 O   0  0  0  0  0  0  0  0  0  0  0  0
    2.5305    1.0629   -0.6455 C   0  0  2  0  0  0  0  0  0  0  0  0
    2.0379    1.5678    0.7248 C   0  0  1  0  0  0  0  0  0  0  0  0
    0.7214    2.0904    0.5141 O   0  0  0  0  0  0  0  0  0  0  0  0
    0.8690    0.6752    0.6830 C   0  0  1  0  0  0  0  0  0  0  0  0
   -0.5812   -0.4646   -1.6853 H   0  0  0  0  0  0  0  0  0  0  0  0
   -0.1752    1.2573   -1.8044 H   0  0  0  0  0  0  0  0  0  0  0  0
    0.7009    0.0639   -2.7834 H   0  0  0  0  0  0  0  0  0  0  0  0
    1.3710   -1.9839    0.0457 H   0  0  0  0  0  0  0  0  0  0  0  0
    1.9719   -1.7358   -1.5980 H   0  0  0  0  0  0  0  0  0  0  0  0
    3.3637   -0.9983    1.0236 H   0  0  0  0  0  0  0  0  0  0  0  0
    4.0877   -1.7289   -0.4234 H   0  0  0  0  0  0  0  0  0  0  0  0
    2.6518    1.8223   -1.4208 H   0  0  0  0  0  0  0  0  0  0  0  0
    2.6126    1.9537    1.5593 H   0  0  0  0  0  0  0  0  0  0  0  0
    0.3030    0.2101    1.4838 H   0  0  0  0  0  0  0  0  0  0  0  0
  1 11  1  0  0  0  0
  1 10  1  0  0  0  0
  2  1  1  6  0  0  0
  2  6  1  0  0  0  0
  2  3  1  0  0  0  0
  2  9  1  0  0  0  0
  3  4  1  0  0  0  0
  3 13  1  0  0  0  0
  4 15  1  0  0  0  0
  5  4  1  0  0  0  0
  6 17  1  6  0  0  0
  6  5  1  0  0  0  0
  6  7  1  0  0  0  0
  7 18  1  1  0  0  0
  8  9  1  0  0  0  0
  8  7  1  0  0  0  0
  9  7  1  0  0  0  0
  9 19  1  1  0  0  0
 12  1  1  0  0  0  0
 14  3  1  0  0  0  0
 16  4  1  0  0  0  0
M TOR 0 0 1 2 3
M TOR 1 0 1 2 12
M TOR 2 0 1 2 13
M TOR 3 0 1 5 4
M TOR 4 0 1 5 6
M TOR 5 0 1 5 16
M TOR 6 0 1 8 6
M TOR 7 0 1 8 7
M TOR 8 0 1 8 18
M TOR 9 1 2 3 4
M TOR 10 1 2 3 14
M TOR 11 1 2 3 15
M TOR 12 1 5 4 3
M TOR 13 1 5 6 7
M TOR 14 1 5 6 8
M TOR 15 1 5 6 17
M TOR 16 1 8 6 7
M TOR 17 1 8 6 17
M TOR 18 2 1 0 9
M TOR 19 2 1 0 10
M TOR 20 2 1 0 11
M TOR 21 2 1 5 4
M TOR 22 2 1 5 6
M TOR 23 2 1 5 16
M TOR 24 2 1 8 6
M TOR 25 2 1 8 7
M TOR 26 2 1 8 18
M TOR 27 2 3 4 5
M TOR 28 3 2 1 5
M TOR 29 3 2 1 8
M TOR 30 3 4 5 6
M TOR 31 3 4 5 16
M TOR 32 4 3 2 12
M TOR 33 4 3 2 13
M TOR 34 4 5 1 8
M TOR 35 4 5 6 7
M TOR 36 4 5 6 8
M TOR 37 4 5 6 17
M TOR 38 5 1 0 9
M TOR 39 5 1 0 10
M TOR 40 5 1 0 11
M TOR 41 5 1 2 12
M TOR 42 5 1 2 13
M TOR 43 5 1 8 7
M TOR 44 5 1 8 18
M TOR 45 5 4 3 14
M TOR 46 5 4 3 15
M TOR 47 5 6 7 8
M TOR 48 5 6 8 18
M TOR 49 6 7 8 18
M TOR 50 7 6 5 16
M TOR 51 7 8 6 17
M TOR 52 8 1 0 9
M TOR 53 8 1 0 10
M TOR 54 8 1 0 11
M TOR 55 8 1 2 12
M TOR 56 8 1 2 13
M TOR 57 8 1 5 16
M TOR 58 8 6 5 16
M  END
$$$$
