
     RDKit          3D

 19 20  0  0  0  0  0  0  0  0999 V2000
    0.1822    0.6159   -1.0580 O   0  0  0  0  0  0  0  0  0  0  0  0
    0.5405    0.0580    0.1897 C   0  0  0  0  0  0  0  0  0  0  0  0
   -0.2008    0.7133    1.3543 C   0  0  0  0  0  0  0  0  0  0  0  0
    0.2401    0.3541    2.8287 C   0  0  0  0  0  0  0  0  0  0  0  0
    0.4670    1.8395    3.1204 C   0  0  0  0  0  0  0  0  0  0  0  0
    1.4940    2.3888    2.1777 C   0  0  0  0  0  0  0  0  0  0  0  0
    0.0898    2.1996    1.6788 C   0  0  0  0  0  0  0  0  0  0  0  0
   -1.6934    0.5326    1.2278 C   0  0  0  0  0  0  0  0  0  0  0  0
   -2.2577    0.0444    0.2762 O   0  0  0  0  0  0  0  0  0  0  0  0
   -0.7479    0.3889   -1.1846 H   0  0  0  0  0  0  0  0  0  0  0  0
    0.3603   -1.0290    0.2181 H   0  0  0  0  0  0  0  0  0  0  0  0
    1.6186    0.2091    0.3031 H   0  0  0  0  0  0  0  0  0  0  0  0
   -0.5662   -0.0986    3.4114 H   0  0  0  0  0  0  0  0  0  0  0  0
    1.1218   -0.2910    2.9009 H   0  0  0  0  0  0  0  0  0  0  0  0
    0.1988    2.3413    4.0414 H   0  0  0  0  0  0  0  0  0  0  0  0
    1.7704    3.4254    2.3412 H   0  0  0  0  0  0  0  0  0  0  0  0
    2.3100    1.7660    1.8206 H   0  0  0  0  0  0  0  0  0  0  0  0
   -0.4929    3.0324    1.3054 H   0  0  0  0  0  0  0  0  0  0  0  0
   -2.2785    0.9039    2.0998 H   0  0  0  0  0  0  0  0  0  0  0  0
  1  2  1  0
  2  3  1  0
  3  4  1  0
  4  5  1  0
  5  6  1  0
  6  7  1  0
  3  8  1  0
  8  9  2  0
  7  3  1  0
  7  5  1  0
  1 10  1  0
  2 11  1  0
  2 12  1  0
  4 13  1  0
  4 14  1  0
  5 15  1  0
  6 16  1  0
  6 17  1  0
  7 18  1  0
  8 19  1  0
M  END
$$$$
