gdb 2736	2.3551952	1.661717	1.3531625	1.8413	76.48	-0.20673	0.01829	0.22502	1039.7864	0.155878	-422.555879	-422.546993	-422.546049	-422.588678	34.332
 OpenBabel02181911413D

 19 20  0  0  1  0  0  0  0  0999 V2000
   -1.9265   -1.2101   -0.8502 C   0  0  0  0  0  0  0  0  0  0  0  0
   -2.0682   -0.2260    0.2848 C   0  0  2  0  0  0  0  0  0  0  0  0
   -3.1184   -0.4875    1.3703 C   0  0  0  0  0  0  0  0  0  0  0  0
   -3.6308    0.8917    1.7395 C   0  0  0  0  0  0  0  0  0  0  0  0
   -3.0735    1.8531    0.9991 C   0  0  0  0  0  0  0  0  0  0  0  0
   -2.0538    1.2991    0.0745 C   0  0  2  0  0  0  0  0  0  0  0  0
   -1.8526    1.9198   -1.1513 O   0  0  0  0  0  0  0  0  0  0  0  0
   -0.8792    0.5952    0.7341 C   0  0  2  0  0  0  0  0  0  0  0  0
    0.2714    0.4695   -0.0676 O   0  0  0  0  0  0  0  0  0  0  0  0
   -1.5767   -2.1842   -0.4893 H   0  0  0  0  0  0  0  0  0  0  0  0
   -2.8911   -1.3617   -1.3462 H   0  0  0  0  0  0  0  0  0  0  0  0
   -1.2133   -0.8616   -1.5991 H   0  0  0  0  0  0  0  0  0  0  0  0
   -3.9284   -1.1287    0.9947 H   0  0  0  0  0  0  0  0  0  0  0  0
   -2.6913   -1.0109    2.2362 H   0  0  0  0  0  0  0  0  0  0  0  0
   -4.3535    1.0500    2.5314 H   0  0  0  0  0  0  0  0  0  0  0  0
   -3.2761    2.9158    1.0615 H   0  0  0  0  0  0  0  0  0  0  0  0
   -0.9514    1.6930   -1.4196 H   0  0  0  0  0  0  0  0  0  0  0  0
   -0.6898    0.7333    1.7993 H   0  0  0  0  0  0  0  0  0  0  0  0
    0.8590    1.2003    0.1534 H   0  0  0  0  0  0  0  0  0  0  0  0
  1 10  1  0  0  0  0
  2  1  1  6  0  0  0
  2  8  1  0  0  0  0
  2  3  1  0  0  0  0
  3  4  1  0  0  0  0
  3 14  1  0  0  0  0
  4 15  1  0  0  0  0
  5 16  1  0  0  0  0
  5  4  2  0  0  0  0
  6  7  1  6  0  0  0
  6  2  1  0  0  0  0
  6  8  1  0  0  0  0
  6  5  1  0  0  0  0
  8 18  1  1  0  0  0
  9 19  1  0  0  0  0
  9  8  1  0  0  0  0
 11  1  1  0  0  0  0
 12  1  1  0  0  0  0
 13  3  1  0  0  0  0
 17  7  1  0  0  0  0
M TOR 0 0 1 2 3
M TOR 1 0 1 2 12
M TOR 2 0 1 2 13
M TOR 3 0 1 5 4
M TOR 4 0 1 5 6
M TOR 5 0 1 5 7
M TOR 6 0 1 7 8
M TOR 7 0 1 7 17
M TOR 8 1 2 3 4
M TOR 9 1 2 3 14
M TOR 10 1 5 4 3
M TOR 11 1 5 4 15
M TOR 12 1 5 6 16
M TOR 13 1 5 7 8
M TOR 14 1 5 7 17
M TOR 15 1 7 5 4
M TOR 16 1 7 5 6
M TOR 17 1 7 8 18
M TOR 18 2 1 0 9
M TOR 19 2 1 0 10
M TOR 20 2 1 0 11
M TOR 21 2 1 5 4
M TOR 22 2 1 5 6
M TOR 23 2 1 5 7
M TOR 24 2 1 7 8
M TOR 25 2 1 7 17
M TOR 26 2 3 4 5
M TOR 27 2 3 4 15
M TOR 28 3 2 1 5
M TOR 29 3 2 1 7
M TOR 30 3 4 5 6
M TOR 31 3 4 5 7
M TOR 32 4 3 2 12
M TOR 33 4 3 2 13
M TOR 34 4 5 6 16
M TOR 35 4 5 7 8
M TOR 36 4 5 7 17
M TOR 37 5 1 0 9
M TOR 38 5 1 0 10
M TOR 39 5 1 0 11
M TOR 40 5 1 2 12
M TOR 41 5 1 2 13
M TOR 42 5 4 3 14
M TOR 43 5 7 8 18
M TOR 44 6 5 4 15
M TOR 45 6 5 7 8
M TOR 46 6 5 7 17
M TOR 47 7 1 0 9
M TOR 48 7 1 0 10
M TOR 49 7 1 0 11
M TOR 50 7 1 2 12
M TOR 51 7 1 2 13
M TOR 52 7 5 4 15
M TOR 53 7 5 6 16
M  END
$$$$
