gdb 3221	2.6380252	1.654345	1.3684431	1.9411	73.87	-0.24246	0.06475	0.30721	1002.9771	0.158021	-422.519708	-422.511938	-422.510994	-422.551524	30.966
 OpenBabel02181911413D

 19 21  0  0  1  0  0  0  0  0999 V2000
   -0.6177   -0.1122    0.5175 O   0  0  0  0  0  0  0  0  0  0  0  0
   -2.0228   -0.0123    0.3844 C   0  0  2  0  0  0  0  0  0  0  0  0
   -2.6601    1.0941    1.2642 C   0  0  1  0  0  0  0  0  0  0  0  0
   -4.1300    1.3999    0.8819 C   0  0  0  0  0  0  0  0  0  0  0  0
   -4.5965    0.1187    1.6118 C   0  0  1  0  0  0  0  0  0  0  0  0
   -4.3043   -1.1664    0.8148 C   0  0  1  0  0  0  0  0  0  0  0  0
   -4.6998   -1.1248   -0.5371 O   0  0  0  0  0  0  0  0  0  0  0  0
   -2.7970   -1.0920    1.1815 C   0  0  2  0  0  0  0  0  0  0  0  0
   -3.1693   -0.0121    2.2667 C   0  0  1  0  0  0  0  0  0  0  0  0
   -0.4097   -0.1599    1.4576 H   0  0  0  0  0  0  0  0  0  0  0  0
   -2.2174    0.0387   -0.6901 H   0  0  0  0  0  0  0  0  0  0  0  0
   -2.0050    1.9273    1.5253 H   0  0  0  0  0  0  0  0  0  0  0  0
   -4.4890    2.2901    1.4058 H   0  0  0  0  0  0  0  0  0  0  0  0
   -4.3726    1.4884   -0.1805 H   0  0  0  0  0  0  0  0  0  0  0  0
   -5.5387    0.1586    2.1581 H   0  0  0  0  0  0  0  0  0  0  0  0
   -4.7544   -2.0242    1.3371 H   0  0  0  0  0  0  0  0  0  0  0  0
   -4.4435   -1.9520   -0.9578 H   0  0  0  0  0  0  0  0  0  0  0  0
   -2.2647   -2.0276    1.3659 H   0  0  0  0  0  0  0  0  0  0  0  0
   -2.9655   -0.0722    3.3328 H   0  0  0  0  0  0  0  0  0  0  0  0
  1 10  1  0  0  0  0
  2 11  1  6  0  0  0
  2  1  1  0  0  0  0
  2  8  1  0  0  0  0
  2  3  1  0  0  0  0
  3 12  1  1  0  0  0
  3  9  1  0  0  0  0
  4  3  1  0  0  0  0
  4 13  1  0  0  0  0
  4  5  1  0  0  0  0
  5 15  1  1  0  0  0
  5  9  1  0  0  0  0
  6  8  1  0  0  0  0
  6 16  1  1  0  0  0
  6  5  1  0  0  0  0
  7  6  1  0  0  0  0
  8 18  1  1  0  0  0
  8  9  1  0  0  0  0
  9 19  1  1  0  0  0
 14  4  1  0  0  0  0
 17  7  1  0  0  0  0
M TOR 0 0 1 2 3
M TOR 1 0 1 2 8
M TOR 2 0 1 2 11
M TOR 3 0 1 7 5
M TOR 4 0 1 7 8
M TOR 5 0 1 7 17
M TOR 6 1 2 3 4
M TOR 7 1 2 3 12
M TOR 8 1 2 3 13
M TOR 9 1 2 8 4
M TOR 10 1 2 8 7
M TOR 11 1 2 8 18
M TOR 12 1 7 5 4
M TOR 13 1 7 5 6
M TOR 14 1 7 5 15
M TOR 15 1 7 8 4
M TOR 16 1 7 8 18
M TOR 17 2 1 0 9
M TOR 18 2 1 7 5
M TOR 19 2 1 7 17
M TOR 20 2 3 4 5
M TOR 21 2 3 4 8
M TOR 22 2 3 4 14
M TOR 23 2 8 4 5
M TOR 24 2 8 4 14
M TOR 25 2 8 7 5
M TOR 26 2 8 7 17
M TOR 27 3 2 1 7
M TOR 28 3 2 1 10
M TOR 29 3 2 8 7
M TOR 30 3 2 8 18
M TOR 31 3 4 5 6
M TOR 32 3 4 5 7
M TOR 33 3 4 5 15
M TOR 34 3 4 8 7
M TOR 35 3 4 8 18
M TOR 36 4 3 2 11
M TOR 37 4 5 6 16
M TOR 38 4 5 7 8
M TOR 39 4 5 7 17
M TOR 40 4 8 2 11
M TOR 41 4 8 7 17
M TOR 42 5 4 3 12
M TOR 43 5 4 3 13
M TOR 44 5 4 8 18
M TOR 45 5 7 1 10
M TOR 46 5 7 8 18
M TOR 47 6 5 4 8
M TOR 48 6 5 4 14
M TOR 49 6 5 7 8
M TOR 50 6 5 7 17
M TOR 51 7 1 0 9
M TOR 52 7 1 2 11
M TOR 53 7 5 4 14
M TOR 54 7 5 6 16
M TOR 55 7 8 2 11
M TOR 56 7 8 4 14
M TOR 57 8 2 1 10
M TOR 58 8 2 3 12
M TOR 59 8 2 3 13
M TOR 60 8 4 3 12
M TOR 61 8 4 3 13
M TOR 62 8 4 5 15
M TOR 63 8 7 1 10
M TOR 64 8 7 5 15
M  END
$$$$
