gdb 5968	3.0857219	1.0555265	0.870451	4.0843	75.57	-0.2719	0.00357	0.27547	1374.9085	0.15598	-422.557733	-422.548746	-422.547801	-422.59213	32.647
 OpenBabel02181911423D

 19 20  0  0  1  0  0  0  0  0999 V2000
    2.2154   -0.8590    0.7891 C   0  0  0  0  0  0  0  0  0  0  0  0
    1.4242   -0.0013   -0.2006 C   0  0  0  0  0  0  0  0  0  0  0  0
    1.9491    1.4413   -0.2868 C   0  0  0  0  0  0  0  0  0  0  0  0
    1.1468    2.2886   -1.2332 C   0  0  2  0  0  0  0  0  0  0  0  0
    1.3823    2.3865   -2.7547 C   0  0  0  0  0  0  0  0  0  0  0  0
    1.3590    3.6145   -1.9233 C   0  0  1  0  0  0  0  0  0  0  0  0
   -0.0265    4.0053   -1.7025 O   0  0  0  0  0  0  0  0  0  0  0  0
   -0.2402    2.8341   -0.9827 C   0  0  0  0  0  0  0  0  0  0  0  0
   -1.2124    2.5274   -0.3723 O   0  0  0  0  0  0  0  0  0  0  0  0
    2.1683   -0.4415    1.8009 H   0  0  0  0  0  0  0  0  0  0  0  0
    1.8215   -1.8787    0.8320 H   0  0  0  0  0  0  0  0  0  0  0  0
    3.2724   -0.9216    0.5060 H   0  0  0  0  0  0  0  0  0  0  0  0
    1.4587   -0.4552   -1.1988 H   0  0  0  0  0  0  0  0  0  0  0  0
    0.3675    0.0273    0.0888 H   0  0  0  0  0  0  0  0  0  0  0  0
    1.9295    1.8953    0.7122 H   0  0  0  0  0  0  0  0  0  0  0  0
    2.9994    1.4377   -0.6057 H   0  0  0  0  0  0  0  0  0  0  0  0
    2.3603    2.0263   -3.0626 H   0  0  0  0  0  0  0  0  0  0  0  0
    0.5776    2.2066   -3.4604 H   0  0  0  0  0  0  0  0  0  0  0  0
    2.1135    4.3789   -1.8048 H   0  0  0  0  0  0  0  0  0  0  0  0
  1 11  1  0  0  0  0
  1 10  1  0  0  0  0
  2 14  1  0  0  0  0
  2  1  1  0  0  0  0
  3  2  1  0  0  0  0
  3 15  1  0  0  0  0
  4  8  1  0  0  0  0
  4  3  1  1  0  0  0
  5  6  1  0  0  0  0
  5  4  1  0  0  0  0
  6 19  1  1  0  0  0
  6  7  1  0  0  0  0
  6  4  1  0  0  0  0
  7  8  1  0  0  0  0
  8  9  2  0  0  0  0
 12  1  1  0  0  0  0
 13  2  1  0  0  0  0
 16  3  1  0  0  0  0
 17  5  1  0  0  0  0
 18  5  1  0  0  0  0
M TOR 0 0 1 2 3
M TOR 1 0 1 2 14
M TOR 2 0 1 2 15
M TOR 3 1 2 3 4
M TOR 4 1 2 3 5
M TOR 5 1 2 3 7
M TOR 6 2 1 0 9
M TOR 7 2 1 0 10
M TOR 8 2 1 0 11
M TOR 9 2 3 4 5
M TOR 10 2 3 4 16
M TOR 11 2 3 4 17
M TOR 12 2 3 5 6
M TOR 13 2 3 5 18
M TOR 14 2 3 7 6
M TOR 15 2 3 7 8
M TOR 16 3 2 1 12
M TOR 17 3 2 1 13
M TOR 18 3 4 5 6
M TOR 19 3 4 5 18
M TOR 20 3 5 4 16
M TOR 21 3 5 4 17
M TOR 22 3 5 6 7
M TOR 23 4 3 2 14
M TOR 24 4 3 2 15
M TOR 25 4 3 7 6
M TOR 26 4 3 7 8
M TOR 27 4 5 3 7
M TOR 28 4 5 6 7
M TOR 29 5 3 2 14
M TOR 30 5 3 2 15
M TOR 31 5 3 7 8
M TOR 32 5 6 7 8
M TOR 33 6 5 4 16
M TOR 34 6 5 4 17
M TOR 35 7 3 2 14
M TOR 36 7 3 2 15
M TOR 37 7 3 4 16
M TOR 38 7 3 4 17
M TOR 39 7 3 5 18
M TOR 40 7 6 5 18
M  END
$$$$
