
     RDKit          3D

 19 20  0  0  0  0  0  0  0  0999 V2000
    1.0173   -0.4472   -0.7819 O   0  0  0  0  0  0  0  0  0  0  0  0
    0.2388   -0.0301    0.0355 C   0  0  0  0  0  0  0  0  0  0  0  0
    0.3055    1.3303    0.6956 C   0  0  0  0  0  0  0  0  0  0  0  0
   -0.9222    2.1723    0.2865 C   0  0  0  0  0  0  0  0  0  0  0  0
   -0.8252    3.5917    0.8626 C   0  0  0  0  0  0  0  0  0  0  0  0
   -0.5839    3.5836    2.3541 C   0  0  0  0  0  0  0  0  0  0  0  0
   -1.3918    2.6827    3.1172 O   0  0  0  0  0  0  0  0  0  0  0  0
    0.0122    2.4080    3.0098 C   0  0  0  0  0  0  0  0  0  0  0  0
    0.3919    1.1616    2.2304 C   0  0  0  0  0  0  0  0  0  0  0  0
   -0.6295   -0.6488    0.3699 H   0  0  0  0  0  0  0  0  0  0  0  0
    1.2118    1.8224    0.3254 H   0  0  0  0  0  0  0  0  0  0  0  0
   -0.9911    2.2225   -0.8048 H   0  0  0  0  0  0  0  0  0  0  0  0
   -1.8374    1.6930    0.6509 H   0  0  0  0  0  0  0  0  0  0  0  0
   -0.0031    4.1387    0.3825 H   0  0  0  0  0  0  0  0  0  0  0  0
   -1.7433    4.1501    0.6447 H   0  0  0  0  0  0  0  0  0  0  0  0
   -0.4460    4.5614    2.8179 H   0  0  0  0  0  0  0  0  0  0  0  0
    0.5544    2.5576    3.9437 H   0  0  0  0  0  0  0  0  0  0  0  0
    1.4078    0.8590    2.5053 H   0  0  0  0  0  0  0  0  0  0  0  0
   -0.2739    0.3512    2.5567 H   0  0  0  0  0  0  0  0  0  0  0  0
  1  2  2  0
  2  3  1  0
  3  4  1  0
  4  5  1  0
  5  6  1  0
  6  7  1  0
  7  8  1  0
  8  9  1  0
  9  3  1  0
  8  6  1  0
  2 10  1  0
  3 11  1  0
  4 12  1  0
  4 13  1  0
  5 14  1  0
  5 15  1  0
  6 16  1  0
  8 17  1  0
  9 18  1  0
  9 19  1  0
M  END
$$$$
