
     RDKit          3D

 19 20  0  0  0  0  0  0  0  0999 V2000
    0.3630   -0.1646    0.3225 O   0  0  0  0  0  0  0  0  0  0  0  0
   -0.9464    0.2125    0.7505 C   0  0  0  0  0  0  0  0  0  0  0  0
   -0.9106    0.8221    2.1340 C   0  0  0  0  0  0  0  0  0  0  0  0
   -1.3156    2.0720    2.3660 C   0  0  0  0  0  0  0  0  0  0  0  0
   -1.8830    2.9143    1.2349 C   0  0  0  0  0  0  0  0  0  0  0  0
   -1.1339    2.5942   -0.0629 C   0  0  0  0  0  0  0  0  0  0  0  0
   -1.6503    1.1562   -0.2512 C   0  0  0  0  0  0  0  0  0  0  0  0
   -3.1433    1.3398    0.1109 C   0  0  0  0  0  0  0  0  0  0  0  0
   -3.2293    2.5104    0.9348 O   0  0  0  0  0  0  0  0  0  0  0  0
    0.9493    0.5820    0.4848 H   0  0  0  0  0  0  0  0  0  0  0  0
   -1.4985   -0.7352    0.7800 H   0  0  0  0  0  0  0  0  0  0  0  0
   -0.5094    0.1970    2.9277 H   0  0  0  0  0  0  0  0  0  0  0  0
   -1.2910    2.4930    3.3670 H   0  0  0  0  0  0  0  0  0  0  0  0
   -1.9187    3.9739    1.4949 H   0  0  0  0  0  0  0  0  0  0  0  0
   -1.4673    3.2509   -0.8713 H   0  0  0  0  0  0  0  0  0  0  0  0
   -0.0476    2.6699    0.0261 H   0  0  0  0  0  0  0  0  0  0  0  0
   -1.5133    0.7631   -1.2603 H   0  0  0  0  0  0  0  0  0  0  0  0
   -3.7590    1.5055   -0.7807 H   0  0  0  0  0  0  0  0  0  0  0  0
   -3.5463    0.4709    0.6475 H   0  0  0  0  0  0  0  0  0  0  0  0
  1  2  1  0
  2  3  1  0
  3  4  2  0
  4  5  1  0
  5  6  1  0
  6  7  1  0
  7  8  1  0
  8  9  1  0
  7  2  1  0
  9  5  1  0
  1 10  1  0
  2 11  1  0
  3 12  1  0
  4 13  1  0
  5 14  1  0
  6 15  1  0
  6 16  1  0
  7 17  1  0
  8 18  1  0
  8 19  1  0
M  END
$$$$
