gdb 173	2.8997339	1.9363919	1.9153463	2.693	72.42	-0.23516	0.07394	0.30910000000000004	852.6036	0.161708	-422.532891	-422.526883	-422.525939	-422.562778	26.342
 OpenBabel02181911403D

 19 21  0  0  1  0  0  0  0  0999 V2000
   -0.0468    1.7210    0.9853 C   0  0  0  0  0  0  0  0  0  0  0  0
    0.0453    0.1771    1.0881 C   0  0  2  0  0  0  0  0  0  0  0  0
    1.4756    0.3154    0.8278 O   0  0  0  0  0  0  0  0  0  0  0  0
    1.1287    1.4686    0.0093 C   0  0  1  0  0  0  0  0  0  0  0  0
    0.6271    0.9087   -1.3804 C   0  0  2  0  0  0  0  0  0  0  0  0
   -0.8459    0.5037   -1.2429 C   0  0  0  0  0  0  0  0  0  0  0  0
   -0.5841   -0.5548   -0.1502 C   0  0  1  0  0  0  0  0  0  0  0  0
    0.5307   -1.3437   -0.8751 C   0  0  0  0  0  0  0  0  0  0  0  0
    1.2549   -0.3488   -1.6339 O   0  0  0  0  0  0  0  0  0  0  0  0
   -0.9598    2.2219    0.6653 H   0  0  0  0  0  0  0  0  0  0  0  0
    0.3241    2.1732    1.9058 H   0  0  0  0  0  0  0  0  0  0  0  0
   -0.1542   -0.3231    2.0384 H   0  0  0  0  0  0  0  0  0  0  0  0
    1.9506    2.1825   -0.0735 H   0  0  0  0  0  0  0  0  0  0  0  0
    0.8644    1.5815   -2.2072 H   0  0  0  0  0  0  0  0  0  0  0  0
   -1.5353    1.2980   -0.9648 H   0  0  0  0  0  0  0  0  0  0  0  0
   -1.2026    0.0491   -2.1716 H   0  0  0  0  0  0  0  0  0  0  0  0
   -1.4457   -1.1687    0.1193 H   0  0  0  0  0  0  0  0  0  0  0  0
    1.2198   -1.8471   -0.1937 H   0  0  0  0  0  0  0  0  0  0  0  0
    0.1019   -2.0777   -1.5695 H   0  0  0  0  0  0  0  0  0  0  0  0
  1  2  1  0  0  0  0
  1 11  1  0  0  0  0
  2 12  1  1  0  0  0
  3  2  1  0  0  0  0
  4 13  1  6  0  0  0
  4  3  1  0  0  0  0
  4  1  1  0  0  0  0
  5 14  1  6  0  0  0
  5  6  1  0  0  0  0
  5  4  1  0  0  0  0
  6 15  1  0  0  0  0
  6  7  1  0  0  0  0
  7 17  1  1  0  0  0
  7  2  1  0  0  0  0
  8 18  1  0  0  0  0
  8  7  1  0  0  0  0
  9  5  1  0  0  0  0
  9  8  1  0  0  0  0
 10  1  1  0  0  0  0
 16  6  1  0  0  0  0
 19  8  1  0  0  0  0
M TOR 0 0 1 2 3
M TOR 1 0 1 6 5
M TOR 2 0 1 6 7
M TOR 3 0 1 6 16
M TOR 4 0 3 4 5
M TOR 5 0 3 4 8
M TOR 6 0 3 4 13
M TOR 7 1 0 3 4
M TOR 8 1 0 3 12
M TOR 9 1 2 3 4
M TOR 10 1 2 3 12
M TOR 11 1 6 5 4
M TOR 12 1 6 5 14
M TOR 13 1 6 5 15
M TOR 14 1 6 7 8
M TOR 15 1 6 7 17
M TOR 16 1 6 7 18
M TOR 17 2 1 0 9
M TOR 18 2 1 0 10
M TOR 19 2 1 6 5
M TOR 20 2 1 6 7
M TOR 21 2 1 6 16
M TOR 22 2 3 0 9
M TOR 23 2 3 0 10
M TOR 24 2 3 4 5
M TOR 25 2 3 4 8
M TOR 26 2 3 4 13
M TOR 27 3 0 1 6
M TOR 28 3 0 1 11
M TOR 29 3 2 1 6
M TOR 30 3 2 1 11
M TOR 31 3 4 5 6
M TOR 32 3 4 5 14
M TOR 33 3 4 5 15
M TOR 34 3 4 8 7
M TOR 35 4 3 0 9
M TOR 36 4 3 0 10
M TOR 37 4 5 6 7
M TOR 38 4 5 6 16
M TOR 39 4 8 7 6
M TOR 40 4 8 7 17
M TOR 41 4 8 7 18
M TOR 42 5 4 3 12
M TOR 43 5 4 8 7
M TOR 44 5 6 1 11
M TOR 45 5 6 7 8
M TOR 46 5 6 7 17
M TOR 47 5 6 7 18
M TOR 48 6 1 0 9
M TOR 49 6 1 0 10
M TOR 50 6 5 4 8
M TOR 51 6 5 4 13
M TOR 52 7 6 1 11
M TOR 53 7 6 5 14
M TOR 54 7 6 5 15
M TOR 55 7 8 4 13
M TOR 56 8 4 3 12
M TOR 57 8 4 5 14
M TOR 58 8 4 5 15
M TOR 59 8 7 6 16
M  END
$$$$
