gdb 307	2.746336	1.7940203	1.3485286	2.4177	73.61	-0.24915	0.0779	0.32705	988.4051	0.159367	-422.529452	-422.522286	-422.521342	-422.560923	28.602
 OpenBabel02181911403D

 19 21  0  0  1  0  0  0  0  0999 V2000
    2.5956    0.3749   -1.4046 C   0  0  0  0  0  0  0  0  0  0  0  0
    1.3197    0.7050   -2.2282 C   0  0  0  0  0  0  0  0  0  0  0  0
    0.4451    0.0628   -1.1102 C   0  0  1  0  0  0  0  0  0  0  0  0
    0.0625   -1.3676   -1.3954 C   0  0  2  0  0  0  0  0  0  0  0  0
   -0.5108   -2.0972   -0.3033 O   0  0  0  0  0  0  0  0  0  0  0  0
    0.7893   -2.4725   -0.7502 C   0  0  2  0  0  0  0  0  0  0  0  0
    1.9414   -2.1875    0.1877 C   0  0  0  0  0  0  0  0  0  0  0  0
    1.9236   -0.8888    0.7424 O   0  0  0  0  0  0  0  0  0  0  0  0
    1.6795    0.1577   -0.1646 C   0  0  1  0  0  0  0  0  0  0  0  0
    3.0711   -0.5494   -1.7415 H   0  0  0  0  0  0  0  0  0  0  0  0
    3.3641    1.1457   -1.3204 H   0  0  0  0  0  0  0  0  0  0  0  0
    1.1426    1.7789   -2.3187 H   0  0  0  0  0  0  0  0  0  0  0  0
    1.2444    0.2590   -3.2232 H   0  0  0  0  0  0  0  0  0  0  0  0
   -0.4444    0.6221   -0.8066 H   0  0  0  0  0  0  0  0  0  0  0  0
   -0.4251   -1.5495   -2.3551 H   0  0  0  0  0  0  0  0  0  0  0  0
    0.8432   -3.4411   -1.2509 H   0  0  0  0  0  0  0  0  0  0  0  0
    1.9067   -2.8744    1.0401 H   0  0  0  0  0  0  0  0  0  0  0  0
    2.8822   -2.3846   -0.3532 H   0  0  0  0  0  0  0  0  0  0  0  0
    1.6383    1.0590    0.4516 H   0  0  0  0  0  0  0  0  0  0  0  0
  1 11  1  0  0  0  0
  1  9  1  0  0  0  0
  2  1  1  0  0  0  0
  2  3  1  0  0  0  0
  3 14  1  1  0  0  0
  3  9  1  0  0  0  0
  4 15  1  6  0  0  0
  4  3  1  0  0  0  0
  4  6  1  0  0  0  0
  4  5  1  0  0  0  0
  6 16  1  6  0  0  0
  6  5  1  0  0  0  0
  6  7  1  0  0  0  0
  7  8  1  0  0  0  0
  7 17  1  0  0  0  0
  9 19  1  1  0  0  0
  9  8  1  0  0  0  0
 10  1  1  0  0  0  0
 12  2  1  0  0  0  0
 13  2  1  0  0  0  0
 18  7  1  0  0  0  0
M TOR 0 0 1 2 3
M TOR 1 0 1 2 8
M TOR 2 0 1 2 13
M TOR 3 0 8 2 3
M TOR 4 0 8 2 13
M TOR 5 0 8 7 6
M TOR 6 1 0 8 7
M TOR 7 1 0 8 18
M TOR 8 1 2 3 4
M TOR 9 1 2 3 5
M TOR 10 1 2 3 14
M TOR 11 1 2 8 7
M TOR 12 1 2 8 18
M TOR 13 2 1 0 9
M TOR 14 2 1 0 10
M TOR 15 2 3 4 5
M TOR 16 2 3 5 6
M TOR 17 2 3 5 15
M TOR 18 2 8 0 9
M TOR 19 2 8 0 10
M TOR 20 2 8 7 6
M TOR 21 3 2 1 11
M TOR 22 3 2 1 12
M TOR 23 3 2 8 7
M TOR 24 3 2 8 18
M TOR 25 3 4 5 6
M TOR 26 3 4 5 15
M TOR 27 3 5 6 7
M TOR 28 3 5 6 16
M TOR 29 3 5 6 17
M TOR 30 4 3 2 8
M TOR 31 4 3 2 13
M TOR 32 4 5 3 14
M TOR 33 4 5 6 7
M TOR 34 4 5 6 16
M TOR 35 4 5 6 17
M TOR 36 5 3 2 8
M TOR 37 5 3 2 13
M TOR 38 5 6 7 8
M TOR 39 6 5 3 14
M TOR 40 6 7 8 18
M TOR 41 7 6 5 15
M TOR 42 7 8 0 9
M TOR 43 7 8 0 10
M TOR 44 7 8 2 13
M TOR 45 8 0 1 11
M TOR 46 8 0 1 12
M TOR 47 8 2 1 11
M TOR 48 8 2 1 12
M TOR 49 8 2 3 14
M TOR 50 8 7 6 16
M TOR 51 8 7 6 17
M  END
$$$$
