
     RDKit          3D

 19 21  0  0  0  0  0  0  0  0999 V2000
    1.2844    0.4891   -0.2360 O   0  0  0  0  0  0  0  0  0  0  0  0
   -0.0967    0.2296   -0.0285 C   0  0  0  0  0  0  0  0  0  0  0  0
   -0.7535    0.1768   -1.3858 C   0  0  0  0  0  0  0  0  0  0  0  0
   -0.7436    1.4476   -2.2705 C   0  0  0  0  0  0  0  0  0  0  0  0
   -1.6657    0.8873   -3.3449 C   0  0  0  0  0  0  0  0  0  0  0  0
   -1.3927   -0.6203   -3.4182 C   0  0  0  0  0  0  0  0  0  0  0  0
   -0.3148   -0.9211   -2.3857 C   0  0  0  0  0  0  0  0  0  0  0  0
   -2.5445   -0.0885   -2.5980 C   0  0  0  0  0  0  0  0  0  0  0  0
   -2.1631   -0.0858   -1.2338 O   0  0  0  0  0  0  0  0  0  0  0  0
    1.7143    0.5255    0.6228 H   0  0  0  0  0  0  0  0  0  0  0  0
   -0.2590   -0.7289    0.4873 H   0  0  0  0  0  0  0  0  0  0  0  0
   -0.5745    1.0183    0.5721 H   0  0  0  0  0  0  0  0  0  0  0  0
   -1.1731    2.3067   -1.7460 H   0  0  0  0  0  0  0  0  0  0  0  0
    0.2587    1.6983   -2.6237 H   0  0  0  0  0  0  0  0  0  0  0  0
   -2.0142    1.4591   -4.1941 H   0  0  0  0  0  0  0  0  0  0  0  0
   -1.5335   -1.1952   -4.3234 H   0  0  0  0  0  0  0  0  0  0  0  0
   -0.4078   -1.9214   -1.9517 H   0  0  0  0  0  0  0  0  0  0  0  0
    0.7057   -0.7710   -2.7438 H   0  0  0  0  0  0  0  0  0  0  0  0
   -3.5948   -0.2701   -2.7749 H   0  0  0  0  0  0  0  0  0  0  0  0
  1  2  1  0
  2  3  1  0
  3  4  1  0
  4  5  1  0
  5  6  1  0
  6  7  1  0
  6  8  1  0
  8  9  1  0
  7  3  1  0
  9  3  1  0
  8  5  1  0
  1 10  1  0
  2 11  1  0
  2 12  1  0
  4 13  1  0
  4 14  1  0
  5 15  1  0
  6 16  1  0
  7 17  1  0
  7 18  1  0
  8 19  1  0
M  END
$$$$
