gdb 1677	2.8876594	1.3164536	1.2430494	1.5312	75.26	-0.24621	-0.02545	0.22076	1097.9736	0.155774	-422.531952	-422.523372	-422.522428	-422.565489	31.799
 OpenBabel02181911403D

 19 20  0  0  1  0  0  0  0  0999 V2000
   -0.1592   -0.1007   -0.0309 C   0  0  0  0  0  0  0  0  0  0  0  0
    1.3601    0.0338    0.0816 C   0  0  2  0  0  0  0  0  0  0  0  0
    1.9552    1.4405   -0.3276 C   0  0  0  0  0  0  0  0  0  0  0  0
    2.7906    0.7383   -1.4157 C   0  0  2  0  0  0  0  0  0  0  0  0
    2.0937    0.6445   -2.6766 O   0  0  0  0  0  0  0  0  0  0  0  0
    1.7114   -0.7281   -2.4117 C   0  0  0  0  0  0  0  0  0  0  0  0
    2.2648   -0.6581   -0.9838 C   0  0  2  0  0  0  0  0  0  0  0  0
    1.7843   -0.2961    1.4958 C   0  0  0  0  0  0  0  0  0  0  0  0
    2.5930   -1.1288    1.8164 O   0  0  0  0  0  0  0  0  0  0  0  0
   -0.6569    0.4713    0.7607 H   0  0  0  0  0  0  0  0  0  0  0  0
   -0.5152    0.2888   -0.9882 H   0  0  0  0  0  0  0  0  0  0  0  0
   -0.4775   -1.1450    0.0576 H   0  0  0  0  0  0  0  0  0  0  0  0
    1.2314    2.1617   -0.7136 H   0  0  0  0  0  0  0  0  0  0  0  0
    2.5523    1.9146    0.4582 H   0  0  0  0  0  0  0  0  0  0  0  0
    3.8412    1.0149   -1.5357 H   0  0  0  0  0  0  0  0  0  0  0  0
    0.6371   -0.8977   -2.5458 H   0  0  0  0  0  0  0  0  0  0  0  0
    2.2619   -1.4228   -3.0594 H   0  0  0  0  0  0  0  0  0  0  0  0
    2.8832   -1.4715   -0.6116 H   0  0  0  0  0  0  0  0  0  0  0  0
    1.2785    0.3358    2.2646 H   0  0  0  0  0  0  0  0  0  0  0  0
  1 12  1  0  0  0  0
  1  2  1  0  0  0  0
  1 10  1  0  0  0  0
  2  8  1  1  0  0  0
  3  2  1  0  0  0  0
  3 14  1  0  0  0  0
  4 15  1  6  0  0  0
  4  7  1  0  0  0  0
  4  3  1  0  0  0  0
  5  6  1  0  0  0  0
  5  4  1  0  0  0  0
  6  7  1  0  0  0  0
  7 18  1  1  0  0  0
  7  2  1  0  0  0  0
  8  9  2  0  0  0  0
  8 19  1  0  0  0  0
 11  1  1  0  0  0  0
 13  3  1  0  0  0  0
 16  6  1  0  0  0  0
 17  6  1  0  0  0  0
M TOR 0 0 1 2 3
M TOR 1 0 1 2 12
M TOR 2 0 1 2 13
M TOR 3 0 1 6 3
M TOR 4 0 1 6 5
M TOR 5 0 1 6 17
M TOR 6 0 1 7 8
M TOR 7 0 1 7 18
M TOR 8 1 2 3 4
M TOR 9 1 2 3 6
M TOR 10 1 2 3 14
M TOR 11 1 6 3 4
M TOR 12 1 6 3 14
M TOR 13 1 6 5 4
M TOR 14 1 6 5 15
M TOR 15 1 6 5 16
M TOR 16 2 1 0 9
M TOR 17 2 1 0 10
M TOR 18 2 1 0 11
M TOR 19 2 1 6 5
M TOR 20 2 1 6 17
M TOR 21 2 1 7 8
M TOR 22 2 1 7 18
M TOR 23 2 3 4 5
M TOR 24 2 3 6 5
M TOR 25 2 3 6 17
M TOR 26 3 2 1 7
M TOR 27 3 4 5 6
M TOR 28 3 4 5 15
M TOR 29 3 4 5 16
M TOR 30 3 6 1 7
M TOR 31 3 6 5 15
M TOR 32 3 6 5 16
M TOR 33 4 3 2 12
M TOR 34 4 3 2 13
M TOR 35 4 3 6 17
M TOR 36 4 5 6 17
M TOR 37 5 4 3 14
M TOR 38 5 6 1 7
M TOR 39 5 6 3 14
M TOR 40 6 1 0 9
M TOR 41 6 1 0 10
M TOR 42 6 1 0 11
M TOR 43 6 1 2 12
M TOR 44 6 1 2 13
M TOR 45 6 1 7 8
M TOR 46 6 1 7 18
M TOR 47 6 3 2 12
M TOR 48 6 3 2 13
M TOR 49 7 1 0 9
M TOR 50 7 1 0 10
M TOR 51 7 1 0 11
M TOR 52 7 1 2 12
M TOR 53 7 1 2 13
M TOR 54 7 1 6 17
M  END
$$$$
