
     RDKit          3D

 19 19  0  0  0  0  0  0  0  0999 V2000
    3.3325   -0.8451    2.8089 O   0  0  0  0  0  0  0  0  0  0  0  0
    2.7330    0.4266    2.5993 C   0  0  0  0  0  0  0  0  0  0  0  0
    3.0704    0.8643    1.1812 C   0  0  0  0  0  0  0  0  0  0  0  0
    2.4831   -0.0937    0.1301 C   0  0  0  0  0  0  0  0  0  0  0  0
    1.0247   -0.0718    0.0989 C   0  0  0  0  0  0  0  0  0  0  0  0
   -0.1769   -0.0242    0.0927 C   0  0  0  0  0  0  0  0  0  0  0  0
    4.5657    1.2233    0.9999 C   0  0  0  0  0  0  0  0  0  0  0  0
    4.2627    2.6321    0.9308 O   0  0  0  0  0  0  0  0  0  0  0  0
    2.8441    2.3742    0.9386 C   0  0  0  0  0  0  0  0  0  0  0  0
    3.0665   -1.1693    3.6738 H   0  0  0  0  0  0  0  0  0  0  0  0
    1.6404    0.3823    2.7196 H   0  0  0  0  0  0  0  0  0  0  0  0
    3.1247    1.1723    3.3084 H   0  0  0  0  0  0  0  0  0  0  0  0
    2.8710    0.1748   -0.8600 H   0  0  0  0  0  0  0  0  0  0  0  0
    2.8353   -1.1085    0.3479 H   0  0  0  0  0  0  0  0  0  0  0  0
   -1.2382    0.0038    0.0731 H   0  0  0  0  0  0  0  0  0  0  0  0
    5.2226    0.9764    1.8407 H   0  0  0  0  0  0  0  0  0  0  0  0
    5.0198    0.8546    0.0702 H   0  0  0  0  0  0  0  0  0  0  0  0
    2.3273    2.9253    1.7342 H   0  0  0  0  0  0  0  0  0  0  0  0
    2.3717    2.6148   -0.0226 H   0  0  0  0  0  0  0  0  0  0  0  0
  1  2  1  0
  2  3  1  0
  3  4  1  0
  4  5  1  0
  5  6  3  0
  3  7  1  0
  7  8  1  0
  8  9  1  0
  9  3  1  0
  1 10  1  0
  2 11  1  0
  2 12  1  0
  4 13  1  0
  4 14  1  0
  6 15  1  0
  7 16  1  0
  7 17  1  0
  9 18  1  0
  9 19  1  0
M  END
$$$$
