gdb 222	2.6997054	1.9629623	1.8503454	1.4329	72.48	-0.23917	0.07989	0.31906	868.0483	0.161594	-422.562617	-422.55633	-422.555386	-422.592879	26.602
 OpenBabel02181911403D

 19 21  0  0  1  0  0  0  0  0999 V2000
    0.3365    3.1760   -1.1793 C   0  0  0  0  0  0  0  0  0  0  0  0
   -0.7068    2.6888   -0.3239 O   0  0  0  0  0  0  0  0  0  0  0  0
   -0.4191    1.4570    0.2767 C   0  0  1  0  0  0  0  0  0  0  0  0
    0.0955    0.2764   -0.5910 C   0  0  1  0  0  0  0  0  0  0  0  0
    0.9745    0.8369   -1.7149 C   0  0  0  0  0  0  0  0  0  0  0  0
    1.5143    2.1963   -1.2084 C   0  0  2  0  0  0  0  0  0  0  0  0
    2.0214    2.0371    0.2453 C   0  0  0  0  0  0  0  0  0  0  0  0
    0.9421    1.2469    0.9942 C   0  0  2  0  0  0  0  0  0  0  0  0
    0.9527   -0.1253    0.5129 O   0  0  0  0  0  0  0  0  0  0  0  0
   -0.0822    3.3169   -2.1853 H   0  0  0  0  0  0  0  0  0  0  0  0
    0.6534    4.1603   -0.8077 H   0  0  0  0  0  0  0  0  0  0  0  0
   -1.2747    1.1905    0.8968 H   0  0  0  0  0  0  0  0  0  0  0  0
   -0.5852   -0.5216   -0.8981 H   0  0  0  0  0  0  0  0  0  0  0  0
    1.7799    0.1247   -1.9206 H   0  0  0  0  0  0  0  0  0  0  0  0
    0.4001    0.9753   -2.6383 H   0  0  0  0  0  0  0  0  0  0  0  0
    2.2931    2.5922   -1.8667 H   0  0  0  0  0  0  0  0  0  0  0  0
    2.9629    1.4809    0.2946 H   0  0  0  0  0  0  0  0  0  0  0  0
    2.1839    3.0204    0.7019 H   0  0  0  0  0  0  0  0  0  0  0  0
    1.0072    1.3040    2.0836 H   0  0  0  0  0  0  0  0  0  0  0  0
  1 11  1  0  0  0  0
  1  2  1  0  0  0  0
  2  3  1  0  0  0  0
  3 12  1  1  0  0  0
  3  8  1  0  0  0  0
  4 13  1  6  0  0  0
  4  3  1  0  0  0  0
  4  9  1  0  0  0  0
  5  6  1  0  0  0  0
  5  4  1  0  0  0  0
  6 16  1  6  0  0  0
  6  1  1  0  0  0  0
  6  7  1  0  0  0  0
  7 17  1  0  0  0  0
  7 18  1  0  0  0  0
  7  8  1  0  0  0  0
  8 19  1  1  0  0  0
  9  8  1  0  0  0  0
 10  1  1  0  0  0  0
 14  5  1  0  0  0  0
 15  5  1  0  0  0  0
M TOR 0 0 1 2 3
M TOR 1 0 1 2 7
M TOR 2 0 1 2 11
M TOR 3 0 5 4 3
M TOR 4 0 5 4 13
M TOR 5 0 5 4 14
M TOR 6 0 5 6 7
M TOR 7 0 5 6 16
M TOR 8 0 5 6 17
M TOR 9 1 0 5 4
M TOR 10 1 0 5 6
M TOR 11 1 0 5 15
M TOR 12 1 2 3 4
M TOR 13 1 2 3 8
M TOR 14 1 2 3 12
M TOR 15 1 2 7 6
M TOR 16 1 2 7 8
M TOR 17 1 2 7 18
M TOR 18 2 1 0 5
M TOR 19 2 1 0 9
M TOR 20 2 1 0 10
M TOR 21 2 3 4 5
M TOR 22 2 3 4 13
M TOR 23 2 3 4 14
M TOR 24 2 3 8 7
M TOR 25 2 7 6 5
M TOR 26 2 7 6 16
M TOR 27 2 7 6 17
M TOR 28 3 2 7 6
M TOR 29 3 2 7 18
M TOR 30 3 4 5 6
M TOR 31 3 4 5 15
M TOR 32 3 8 7 6
M TOR 33 3 8 7 18
M TOR 34 4 3 2 7
M TOR 35 4 3 2 11
M TOR 36 4 3 8 7
M TOR 37 4 5 0 9
M TOR 38 4 5 0 10
M TOR 39 4 5 6 7
M TOR 40 4 5 6 16
M TOR 41 4 5 6 17
M TOR 42 5 4 3 8
M TOR 43 5 4 3 12
M TOR 44 5 6 7 8
M TOR 45 5 6 7 18
M TOR 46 6 5 0 9
M TOR 47 6 5 0 10
M TOR 48 6 5 4 13
M TOR 49 6 5 4 14
M TOR 50 6 7 2 11
M TOR 51 7 2 3 12
M TOR 52 7 6 5 15
M TOR 53 7 8 3 12
M TOR 54 8 3 2 11
M TOR 55 8 3 4 13
M TOR 56 8 3 4 14
M TOR 57 8 7 2 11
M TOR 58 8 7 6 16
M TOR 59 8 7 6 17
M  END
$$$$
