gdb 5649	2.0849642	1.3364783	0.9218005	2.8004	77.7	-0.24837	-0.04134	0.20703	1302.7249	0.154036	-422.576381	-422.566693	-422.565749	-422.612167	33.958
 OpenBabel02181911423D

 19 19  0  0  1  0  0  0  0  0999 V2000
    3.1130   -2.2031    0.9301 C   0  0  0  0  0  0  0  0  0  0  0  0
    1.8165   -1.5123    0.4979 C   0  0  0  0  0  0  0  0  0  0  0  0
    1.8650   -0.9840   -0.9319 C   0  0  2  0  0  0  0  0  0  0  0  0
    0.5513   -0.3612   -1.5036 C   0  0  0  0  0  0  0  0  0  0  0  0
    0.6575   -1.3004   -2.7064 C   0  0  0  0  0  0  0  0  0  0  0  0
    0.0736   -1.4220   -3.7400 O   0  0  0  0  0  0  0  0  0  0  0  0
    1.8848   -2.0361   -2.0779 C   0  0  1  0  0  0  0  0  0  0  0  0
    3.0987   -2.1223   -2.9662 C   0  0  0  0  0  0  0  0  0  0  0  0
    4.0987   -1.4676   -2.8121 O   0  0  0  0  0  0  0  0  0  0  0  0
    3.0418   -2.5683    1.9590 H   0  0  0  0  0  0  0  0  0  0  0  0
    3.3424   -3.0611    0.2887 H   0  0  0  0  0  0  0  0  0  0  0  0
    3.9636   -1.5164    0.8732 H   0  0  0  0  0  0  0  0  0  0  0  0
    0.9720   -2.2086    0.5993 H   0  0  0  0  0  0  0  0  0  0  0  0
    1.6016   -0.6758    1.1752 H   0  0  0  0  0  0  0  0  0  0  0  0
    2.7141   -0.3061   -1.0553 H   0  0  0  0  0  0  0  0  0  0  0  0
   -0.3417   -0.5722   -0.9038 H   0  0  0  0  0  0  0  0  0  0  0  0
    0.5578    0.7049   -1.7466 H   0  0  0  0  0  0  0  0  0  0  0  0
    1.5871   -3.0506   -1.7809 H   0  0  0  0  0  0  0  0  0  0  0  0
    2.9961   -2.8296   -3.8168 H   0  0  0  0  0  0  0  0  0  0  0  0
  1 10  1  0  0  0  0
  2 13  1  0  0  0  0
  2  1  1  0  0  0  0
  2 14  1  0  0  0  0
  3 15  1  6  0  0  0
  3  2  1  0  0  0  0
  4  3  1  0  0  0  0
  4 16  1  0  0  0  0
  5  7  1  0  0  0  0
  5  4  1  0  0  0  0
  6  5  2  0  0  0  0
  7 18  1  1  0  0  0
  7  3  1  0  0  0  0
  8  9  2  0  0  0  0
  8  7  1  0  0  0  0
 11  1  1  0  0  0  0
 12  1  1  0  0  0  0
 17  4  1  0  0  0  0
 19  8  1  0  0  0  0
M TOR 0 0 1 2 3
M TOR 1 0 1 2 6
M TOR 2 0 1 2 14
M TOR 3 1 2 3 4
M TOR 4 1 2 3 15
M TOR 5 1 2 3 16
M TOR 6 1 2 6 4
M TOR 7 1 2 6 7
M TOR 8 1 2 6 17
M TOR 9 2 1 0 9
M TOR 10 2 1 0 10
M TOR 11 2 1 0 11
M TOR 12 2 3 4 5
M TOR 13 2 3 4 6
M TOR 14 2 6 4 5
M TOR 15 2 6 7 8
M TOR 16 2 6 7 18
M TOR 17 3 2 1 12
M TOR 18 3 2 1 13
M TOR 19 3 2 6 7
M TOR 20 3 2 6 17
M TOR 21 3 4 6 7
M TOR 22 3 4 6 17
M TOR 23 4 3 2 14
M TOR 24 4 6 2 14
M TOR 25 4 6 7 8
M TOR 26 4 6 7 18
M TOR 27 5 4 3 15
M TOR 28 5 4 3 16
M TOR 29 5 4 6 7
M TOR 30 5 4 6 17
M TOR 31 6 2 1 12
M TOR 32 6 2 1 13
M TOR 33 6 2 3 15
M TOR 34 6 2 3 16
M TOR 35 6 4 3 15
M TOR 36 6 4 3 16
M TOR 37 7 6 2 14
M TOR 38 8 7 6 17
M  END
$$$$
