
     RDKit          3D

 19 20  0  0  0  0  0  0  0  0999 V2000
    2.3958   -0.8279   -0.9128 C   0  0  0  0  0  0  0  0  0  0  0  0
    2.2148   -0.5584    0.5534 C   0  0  0  0  0  0  0  0  0  0  0  0
    3.0833    0.4304    1.3992 C   0  0  0  0  0  0  0  0  0  0  0  0
    2.5643   -0.5674    2.4726 C   0  0  0  0  0  0  0  0  0  0  0  0
    2.6821   -1.6220    1.4642 O   0  0  0  0  0  0  0  0  0  0  0  0
    1.0521   -0.2818    2.4524 C   0  0  0  0  0  0  0  0  0  0  0  0
    0.7997   -0.2790    1.1404 C   0  0  0  0  0  0  0  0  0  0  0  0
   -0.4475   -0.0490    0.3598 C   0  0  0  0  0  0  0  0  0  0  0  0
   -0.3309    1.0688   -0.5243 O   0  0  0  0  0  0  0  0  0  0  0  0
    1.8674   -1.7438   -1.1976 H   0  0  0  0  0  0  0  0  0  0  0  0
    1.9812   -0.0012   -1.4958 H   0  0  0  0  0  0  0  0  0  0  0  0
    3.4532   -0.9537   -1.1594 H   0  0  0  0  0  0  0  0  0  0  0  0
    4.1518    0.3179    1.1982 H   0  0  0  0  0  0  0  0  0  0  0  0
    2.7840    1.4793    1.4623 H   0  0  0  0  0  0  0  0  0  0  0  0
    3.0731   -0.7757    3.4124 H   0  0  0  0  0  0  0  0  0  0  0  0
    0.3942   -0.1322    3.2969 H   0  0  0  0  0  0  0  0  0  0  0  0
   -0.6615   -0.9026   -0.2942 H   0  0  0  0  0  0  0  0  0  0  0  0
   -1.3047    0.0646    1.0399 H   0  0  0  0  0  0  0  0  0  0  0  0
   -0.1225    1.8374    0.0176 H   0  0  0  0  0  0  0  0  0  0  0  0
  1  2  1  0
  2  3  1  0
  3  4  1  0
  4  5  1  0
  4  6  1  0
  6  7  2  0
  7  8  1  0
  8  9  1  0
  5  2  1  0
  7  2  1  0
  1 10  1  0
  1 11  1  0
  1 12  1  0
  3 13  1  0
  3 14  1  0
  4 15  1  0
  6 16  1  0
  8 17  1  0
  8 18  1  0
  9 19  1  0
M  END
$$$$
