
     RDKit          3D

 19 21  0  0  0  0  0  0  0  0999 V2000
   -0.0606   -0.1551    0.1844 C   0  0  0  0  0  0  0  0  0  0  0  0
    1.4368    0.0452    0.0661 C   0  0  0  0  0  0  0  0  0  0  0  0
    2.1871   -0.6611    1.1326 O   0  0  0  0  0  0  0  0  0  0  0  0
    2.4618   -1.7885    0.2378 C   0  0  0  0  0  0  0  0  0  0  0  0
    3.7653   -2.0520   -0.5646 C   0  0  0  0  0  0  0  0  0  0  0  0
    3.7613   -0.5528   -0.9361 C   0  0  0  0  0  0  0  0  0  0  0  0
    2.2176   -0.8285   -0.9176 C   0  0  0  0  0  0  0  0  0  0  0  0
    1.9851   -1.5844   -2.0875 O   0  0  0  0  0  0  0  0  0  0  0  0
    3.0343   -2.5944   -1.8503 C   0  0  0  0  0  0  0  0  0  0  0  0
   -0.4163    0.2469    1.1374 H   0  0  0  0  0  0  0  0  0  0  0  0
   -0.5747    0.3710   -0.6268 H   0  0  0  0  0  0  0  0  0  0  0  0
   -0.3285   -1.2136    0.1310 H   0  0  0  0  0  0  0  0  0  0  0  0
    1.6999    1.1086    0.0644 H   0  0  0  0  0  0  0  0  0  0  0  0
    1.8148   -2.6381    0.4696 H   0  0  0  0  0  0  0  0  0  0  0  0
    4.6399   -2.6193   -0.2408 H   0  0  0  0  0  0  0  0  0  0  0  0
    4.0989    0.1002   -0.1349 H   0  0  0  0  0  0  0  0  0  0  0  0
    4.1808   -0.2678   -1.9028 H   0  0  0  0  0  0  0  0  0  0  0  0
    2.5612   -3.5725   -1.7088 H   0  0  0  0  0  0  0  0  0  0  0  0
    3.7026   -2.6305   -2.7150 H   0  0  0  0  0  0  0  0  0  0  0  0
  1  2  1  0
  2  3  1  0
  3  4  1  0
  4  5  1  0
  5  6  1  0
  6  7  1  0
  7  8  1  0
  8  9  1  0
  7  2  1  0
  7  4  1  0
  9  5  1  0
  1 10  1  0
  1 11  1  0
  1 12  1  0
  2 13  1  0
  4 14  1  0
  5 15  1  0
  6 16  1  0
  6 17  1  0
  9 18  1  0
  9 19  1  0
M  END
$$$$
