
     RDKit          3D

 19 21  0  0  0  0  0  0  0  0999 V2000
    0.3459   -0.4815    0.4310 C   0  0  0  0  0  0  0  0  0  0  0  0
    0.8387    0.6714   -0.4212 C   0  0  0  0  0  0  0  0  0  0  0  0
    2.1520    1.1336    0.0040 O   0  0  0  0  0  0  0  0  0  0  0  0
    2.7420    0.8072   -1.2641 C   0  0  0  0  0  0  0  0  0  0  0  0
    2.7384    2.0090   -2.2311 C   0  0  0  0  0  0  0  0  0  0  0  0
    3.2632    1.6709   -3.6360 C   0  0  0  0  0  0  0  0  0  0  0  0
    1.9707    1.1815   -4.0639 O   0  0  0  0  0  0  0  0  0  0  0  0
    1.3664    1.5172   -2.8013 C   0  0  0  0  0  0  0  0  0  0  0  0
    1.3664    0.3237   -1.8289 C   0  0  0  0  0  0  0  0  0  0  0  0
    0.2530   -0.1666    1.4749 H   0  0  0  0  0  0  0  0  0  0  0  0
   -0.6365   -0.8206    0.0839 H   0  0  0  0  0  0  0  0  0  0  0  0
    1.0422   -1.3246    0.3869 H   0  0  0  0  0  0  0  0  0  0  0  0
    0.1127    1.4969   -0.3986 H   0  0  0  0  0  0  0  0  0  0  0  0
    3.6567    0.2150   -1.1656 H   0  0  0  0  0  0  0  0  0  0  0  0
    2.9445    2.9907   -1.8081 H   0  0  0  0  0  0  0  0  0  0  0  0
    3.5760    2.5392   -4.2287 H   0  0  0  0  0  0  0  0  0  0  0  0
    4.0430    0.9003   -3.6973 H   0  0  0  0  0  0  0  0  0  0  0  0
    0.4538    2.1103   -2.9149 H   0  0  0  0  0  0  0  0  0  0  0  0
    1.1480   -0.6620   -2.2382 H   0  0  0  0  0  0  0  0  0  0  0  0
  1  2  1  0
  2  3  1  0
  3  4  1  0
  4  5  1  0
  5  6  1  0
  6  7  1  0
  7  8  1  0
  8  9  1  0
  9  2  1  0
  9  4  1  0
  8  5  1  0
  1 10  1  0
  1 11  1  0
  1 12  1  0
  2 13  1  0
  4 14  1  0
  5 15  1  0
  6 16  1  0
  6 17  1  0
  8 18  1  0
  9 19  1  0
M  END
$$$$
