gdb 2846	2.9321128	1.4891738	1.1750244	0.7725	74.96	-0.24075	0.07644	0.31718999999999997	1082.3498	0.155684	-422.514569	-422.506041	-422.505097	-422.546814	33.797
 OpenBabel02181911413D

 19 21  0  0  1  0  0  0  0  0999 V2000
   -0.4665   -1.3348    2.4822 C   0  0  0  0  0  0  0  0  0  0  0  0
   -1.2758   -0.1575    2.0118 C   0  0  2  0  0  0  0  0  0  0  0  0
   -2.1880    0.6538    2.9818 C   0  0  0  0  0  0  0  0  0  0  0  0
   -3.0045    0.9905    1.7383 C   0  0  1  0  0  0  0  0  0  0  0  0
   -4.2994    1.4627    1.6854 O   0  0  0  0  0  0  0  0  0  0  0  0
   -2.0144    1.2194    0.5829 C   0  0  2  0  0  0  0  0  0  0  0  0
   -2.4834   -0.1832    0.9692 C   0  0  1  0  0  0  0  0  0  0  0  0
   -0.6161    0.9529    1.1255 C   0  0  2  0  0  0  0  0  0  0  0  0
    0.2982    0.4682    0.1649 O   0  0  0  0  0  0  0  0  0  0  0  0
    0.2345   -1.0304    3.2683 H   0  0  0  0  0  0  0  0  0  0  0  0
   -1.1053   -2.1246    2.8908 H   0  0  0  0  0  0  0  0  0  0  0  0
    0.1228   -1.7544    1.6610 H   0  0  0  0  0  0  0  0  0  0  0  0
   -2.7488   -0.0011    3.6558 H   0  0  0  0  0  0  0  0  0  0  0  0
   -1.7201    1.4655    3.5534 H   0  0  0  0  0  0  0  0  0  0  0  0
   -4.2795    2.4200    1.7950 H   0  0  0  0  0  0  0  0  0  0  0  0
   -2.3064    1.7994   -0.2844 H   0  0  0  0  0  0  0  0  0  0  0  0
   -2.9921   -0.9605    0.4178 H   0  0  0  0  0  0  0  0  0  0  0  0
   -0.0877    1.7533    1.6562 H   0  0  0  0  0  0  0  0  0  0  0  0
   -0.1911   -0.1138   -0.4294 H   0  0  0  0  0  0  0  0  0  0  0  0
  1 11  1  0  0  0  0
  1 10  1  0  0  0  0
  2  1  1  1  0  0  0
  2  3  1  0  0  0  0
  3 14  1  0  0  0  0
  3 13  1  0  0  0  0
  4  5  1  1  0  0  0
  4  3  1  0  0  0  0
  5 15  1  0  0  0  0
  6 16  1  6  0  0  0
  6  7  1  0  0  0  0
  6  8  1  0  0  0  0
  6  4  1  0  0  0  0
  7 17  1  6  0  0  0
  7  4  1  0  0  0  0
  7  2  1  0  0  0  0
  8 18  1  1  0  0  0
  8  2  1  0  0  0  0
  9  8  1  0  0  0  0
 12  1  1  0  0  0  0
 19  9  1  0  0  0  0
M TOR 0 0 1 2 3
M TOR 1 0 1 2 12
M TOR 2 0 1 2 13
M TOR 3 0 1 6 3
M TOR 4 0 1 6 5
M TOR 5 0 1 6 16
M TOR 6 0 1 7 5
M TOR 7 0 1 7 8
M TOR 8 0 1 7 17
M TOR 9 1 2 3 4
M TOR 10 1 2 3 5
M TOR 11 1 2 3 6
M TOR 12 1 6 3 4
M TOR 13 1 6 3 5
M TOR 14 1 6 5 7
M TOR 15 1 6 5 15
M TOR 16 1 7 5 3
M TOR 17 1 7 5 15
M TOR 18 1 7 8 18
M TOR 19 2 1 0 9
M TOR 20 2 1 0 10
M TOR 21 2 1 0 11
M TOR 22 2 1 6 5
M TOR 23 2 1 6 16
M TOR 24 2 1 7 5
M TOR 25 2 1 7 8
M TOR 26 2 1 7 17
M TOR 27 2 3 4 14
M TOR 28 2 3 5 6
M TOR 29 2 3 5 7
M TOR 30 2 3 5 15
M TOR 31 2 3 6 16
M TOR 32 3 2 1 7
M TOR 33 3 5 6 16
M TOR 34 3 5 7 8
M TOR 35 3 5 7 17
M TOR 36 3 6 1 7
M TOR 37 3 6 5 7
M TOR 38 3 6 5 15
M TOR 39 4 3 2 12
M TOR 40 4 3 2 13
M TOR 41 4 3 5 6
M TOR 42 4 3 5 7
M TOR 43 4 3 5 15
M TOR 44 4 3 6 16
M TOR 45 5 3 2 12
M TOR 46 5 3 2 13
M TOR 47 5 3 4 14
M TOR 48 5 7 8 18
M TOR 49 6 1 0 9
M TOR 50 6 1 0 10
M TOR 51 6 1 0 11
M TOR 52 6 1 2 12
M TOR 53 6 1 2 13
M TOR 54 6 1 7 8
M TOR 55 6 1 7 17
M TOR 56 6 3 2 12
M TOR 57 6 3 2 13
M TOR 58 6 3 4 14
M TOR 59 6 5 7 8
M TOR 60 6 5 7 17
M TOR 61 7 1 0 9
M TOR 62 7 1 0 10
M TOR 63 7 1 0 11
M TOR 64 7 1 2 12
M TOR 65 7 1 2 13
M TOR 66 7 1 6 16
M TOR 67 7 5 6 16
M TOR 68 8 7 5 15
M  END
$$$$
