gdb 148	2.7907105	1.8654272	1.433513	1.0604	73.63	-0.22755	0.07577	0.30332000000000003	951.3266	0.159618	-422.507534	-422.50055	-422.499605	-422.538586	28.439
 OpenBabel02181911403D

 19 21  0  0  1  0  0  0  0  0999 V2000
    1.7965   -0.1345   -0.0691 C   0  0  0  0  0  0  0  0  0  0  0  0
    0.6422    0.6135    0.6117 C   0  0  0  0  0  0  0  0  0  0  0  0
    0.0473    1.7544   -0.2004 C   0  0  2  0  0  0  0  0  0  0  0  0
   -1.3795    1.6709   -0.6716 C   0  0  2  0  0  0  0  0  0  0  0  0
   -1.7283    0.2996   -0.8902 O   0  0  0  0  0  0  0  0  0  0  0  0
   -0.7313    0.2097   -1.9640 C   0  0  2  0  0  0  0  0  0  0  0  0
    0.3179   -0.9099   -1.8160 C   0  0  0  0  0  0  0  0  0  0  0  0
    1.5929   -0.4288   -1.4437 O   0  0  0  0  0  0  0  0  0  0  0  0
   -0.2697    1.6365   -1.6858 C   0  0  2  0  0  0  0  0  0  0  0  0
    2.7143    0.4630   -0.0510 H   0  0  0  0  0  0  0  0  0  0  0  0
    1.9955   -1.0629    0.4922 H   0  0  0  0  0  0  0  0  0  0  0  0
   -0.1605   -0.0977    0.8291 H   0  0  0  0  0  0  0  0  0  0  0  0
    1.0010    0.9847    1.5781 H   0  0  0  0  0  0  0  0  0  0  0  0
    0.3621    2.7609    0.0634 H   0  0  0  0  0  0  0  0  0  0  0  0
   -2.1798    2.3702   -0.4610 H   0  0  0  0  0  0  0  0  0  0  0  0
   -1.2729    0.1080   -2.9114 H   0  0  0  0  0  0  0  0  0  0  0  0
   -0.0660   -1.6732   -1.1222 H   0  0  0  0  0  0  0  0  0  0  0  0
    0.4698   -1.3918   -2.7872 H   0  0  0  0  0  0  0  0  0  0  0  0
    0.0565    2.3592   -2.4202 H   0  0  0  0  0  0  0  0  0  0  0  0
  1 10  1  0  0  0  0
  1 11  1  0  0  0  0
  1  2  1  0  0  0  0
  2 12  1  0  0  0  0
  2 13  1  0  0  0  0
  3 14  1  1  0  0  0
  3  2  1  0  0  0  0
  4 15  1  1  0  0  0
  4  3  1  0  0  0  0
  5  4  1  0  0  0  0
  6 16  1  6  0  0  0
  6  7  1  0  0  0  0
  6  9  1  0  0  0  0
  6  5  1  0  0  0  0
  7  8  1  0  0  0  0
  7 17  1  0  0  0  0
  8  1  1  0  0  0  0
  9 19  1  6  0  0  0
  9  4  1  0  0  0  0
  9  3  1  0  0  0  0
 18  7  1  0  0  0  0
M TOR 0 0 1 2 3
M TOR 1 0 1 2 8
M TOR 2 0 1 2 13
M TOR 3 0 7 6 5
M TOR 4 0 7 6 16
M TOR 5 0 7 6 17
M TOR 6 1 0 7 6
M TOR 7 1 2 3 4
M TOR 8 1 2 3 8
M TOR 9 1 2 3 14
M TOR 10 1 2 8 5
M TOR 11 1 2 8 18
M TOR 12 2 1 0 7
M TOR 13 2 1 0 9
M TOR 14 2 1 0 10
M TOR 15 2 3 4 5
M TOR 16 2 3 8 5
M TOR 17 2 3 8 18
M TOR 18 2 8 3 4
M TOR 19 2 8 3 14
M TOR 20 2 8 5 4
M TOR 21 2 8 5 6
M TOR 22 2 8 5 15
M TOR 23 3 2 1 11
M TOR 24 3 2 1 12
M TOR 25 3 4 5 6
M TOR 26 3 4 5 8
M TOR 27 3 4 5 15
M TOR 28 3 8 2 13
M TOR 29 3 8 5 6
M TOR 30 3 8 5 15
M TOR 31 4 3 2 13
M TOR 32 4 3 8 18
M TOR 33 4 5 6 7
M TOR 34 4 5 6 16
M TOR 35 4 5 6 17
M TOR 36 4 5 8 18
M TOR 37 5 4 3 14
M TOR 38 5 8 2 13
M TOR 39 5 8 3 14
M TOR 40 6 5 8 18
M TOR 41 6 7 0 9
M TOR 42 6 7 0 10
M TOR 43 7 0 1 11
M TOR 44 7 0 1 12
M TOR 45 7 6 5 8
M TOR 46 7 6 5 15
M TOR 47 8 2 1 11
M TOR 48 8 2 1 12
M TOR 49 8 5 6 16
M TOR 50 8 5 6 17
M  END
$$$$
