gdb 638	2.3357381	1.7216131	1.0810977	0.7407	78.67	-0.23958	0.03719	0.27676999999999996	1125.4267	0.158318	-422.514548	-422.506125	-422.505181	-422.547313	31.7
 OpenBabel02181911403D

 19 19  0  0  0  0  0  0  0  0999 V2000
    1.0255    0.9154   -0.0223 C   0  0  0  0  0  0  0  0  0  0  0  0
    2.5401    0.8958    0.2982 C   0  0  0  0  0  0  0  0  0  0  0  0
    3.1970    1.7193   -0.7066 C   0  0  0  0  0  0  0  0  0  0  0  0
    3.3441    2.5155   -1.5973 C   0  0  0  0  0  0  0  0  0  0  0  0
    3.0208    3.4963   -2.6233 C   0  0  0  0  0  0  0  0  0  0  0  0
    1.5643    3.9541   -2.3668 C   0  0  0  0  0  0  0  0  0  0  0  0
    0.6882    2.8332   -2.3610 O   0  0  0  0  0  0  0  0  0  0  0  0
   -0.1192    2.6620   -1.2250 C   0  0  0  0  0  0  0  0  0  0  0  0
    0.5456    2.2542   -0.0572 O   0  0  0  0  0  0  0  0  0  0  0  0
    0.8607    0.4208   -0.9859 H   0  0  0  0  0  0  0  0  0  0  0  0
    0.4764    0.3663    0.7549 H   0  0  0  0  0  0  0  0  0  0  0  0
    2.7063    1.2950    1.3060 H   0  0  0  0  0  0  0  0  0  0  0  0
    2.8904   -0.1435    0.3046 H   0  0  0  0  0  0  0  0  0  0  0  0
    3.6789    4.3736   -2.6080 H   0  0  0  0  0  0  0  0  0  0  0  0
    3.0958    3.0582   -3.6258 H   0  0  0  0  0  0  0  0  0  0  0  0
    1.5223    4.4820   -1.4077 H   0  0  0  0  0  0  0  0  0  0  0  0
    1.2478    4.6423   -3.1626 H   0  0  0  0  0  0  0  0  0  0  0  0
   -0.6120    3.6029   -0.9459 H   0  0  0  0  0  0  0  0  0  0  0  0
   -0.8697    1.9209   -1.5308 H   0  0  0  0  0  0  0  0  0  0  0  0
  1  2  1  0  0  0  0
  1 11  1  0  0  0  0
  2 13  1  0  0  0  0
  2 12  1  0  0  0  0
  3  2  1  0  0  0  0
  4  3  3  0  0  0  0
  5 14  1  0  0  0  0
  5  6  1  0  0  0  0
  5  4  1  0  0  0  0
  6  7  1  0  0  0  0
  6 16  1  0  0  0  0
  7  8  1  0  0  0  0
  8 18  1  0  0  0  0
  8  9  1  0  0  0  0
  9  1  1  0  0  0  0
 10  1  1  0  0  0  0
 15  5  1  0  0  0  0
 17  6  1  0  0  0  0
 19  8  1  0  0  0  0
M TOR 0 0 1 2 3
M TOR 1 0 8 7 6
M TOR 2 0 8 7 17
M TOR 3 0 8 7 18
M TOR 4 1 0 8 7
M TOR 5 1 2 3 4
M TOR 6 2 1 0 8
M TOR 7 2 1 0 9
M TOR 8 2 1 0 10
M TOR 9 2 3 4 5
M TOR 10 2 3 4 13
M TOR 11 2 3 4 14
M TOR 12 3 2 1 11
M TOR 13 3 2 1 12
M TOR 14 3 4 5 6
M TOR 15 3 4 5 15
M TOR 16 3 4 5 16
M TOR 17 4 5 6 7
M TOR 18 5 6 7 8
M TOR 19 5 6 7 17
M TOR 20 5 6 7 18
M TOR 21 6 5 4 13
M TOR 22 6 5 4 14
M TOR 23 7 6 5 15
M TOR 24 7 6 5 16
M TOR 25 7 8 0 9
M TOR 26 7 8 0 10
M TOR 27 8 0 1 11
M TOR 28 8 0 1 12
M  END
$$$$
