
     RDKit          3D

 19 21  0  0  0  0  0  0  0  0999 V2000
   -1.6962   -3.9974   -1.3822 C   0  0  0  0  0  0  0  0  0  0  0  0
   -0.6061   -2.9703   -1.5422 C   0  0  0  0  0  0  0  0  0  0  0  0
    0.7453   -3.4589   -1.5285 O   0  0  0  0  0  0  0  0  0  0  0  0
    0.3171   -2.6229   -0.4552 C   0  0  0  0  0  0  0  0  0  0  0  0
    0.9922   -1.2800   -0.3349 C   0  0  0  0  0  0  0  0  0  0  0  0
    0.8464   -0.4612   -1.5303 O   0  0  0  0  0  0  0  0  0  0  0  0
    0.0564    0.4826   -0.8000 C   0  0  0  0  0  0  0  0  0  0  0  0
    0.8520    1.1114    0.2985 C   0  0  0  0  0  0  0  0  0  0  0  0
    0.2286   -0.2544    0.5058 C   0  0  0  0  0  0  0  0  0  0  0  0
   -1.4482   -4.7124   -0.5929 H   0  0  0  0  0  0  0  0  0  0  0  0
   -2.6467   -3.5137   -1.1318 H   0  0  0  0  0  0  0  0  0  0  0  0
   -1.8392   -4.5534   -2.3146 H   0  0  0  0  0  0  0  0  0  0  0  0
   -0.7711   -2.2050   -2.2985 H   0  0  0  0  0  0  0  0  0  0  0  0
    0.2093   -3.1389    0.5035 H   0  0  0  0  0  0  0  0  0  0  0  0
    2.0521   -1.4235   -0.0851 H   0  0  0  0  0  0  0  0  0  0  0  0
   -0.8004    0.9218   -1.2973 H   0  0  0  0  0  0  0  0  0  0  0  0
    1.9277    1.2185    0.1880 H   0  0  0  0  0  0  0  0  0  0  0  0
    0.3581    1.9183    0.8314 H   0  0  0  0  0  0  0  0  0  0  0  0
   -0.4766   -0.4809    1.2942 H   0  0  0  0  0  0  0  0  0  0  0  0
  1  2  1  0
  2  3  1  0
  3  4  1  0
  4  5  1  0
  5  6  1  0
  6  7  1  0
  7  8  1  0
  8  9  1  0
  4  2  1  0
  9  5  1  0
  9  7  1  0
  1 10  1  0
  1 11  1  0
  1 12  1  0
  2 13  1  0
  4 14  1  0
  5 15  1  0
  7 16  1  0
  8 17  1  0
  8 18  1  0
  9 19  1  0
M  END
$$$$
