gdb 358	4.4258011	0.9339191	0.8785329	2.0645	78.45	-0.23195	0.00965	0.24159999999999998	1354.2517	0.157798	-422.526791	-422.518355	-422.517411	-422.561374	29.846
 OpenBabel02181911403D

 19 20  0  0  0  0  0  0  0  0999 V2000
   -0.2293   -0.9315    2.6596 C   0  0  0  0  0  0  0  0  0  0  0  0
    0.0860   -2.3230    2.4718 O   0  0  0  0  0  0  0  0  0  0  0  0
   -0.3429   -2.2836    1.0987 C   0  0  0  0  0  0  0  0  0  0  0  0
   -0.8864   -0.8348    1.2534 C   0  0  0  0  0  0  0  0  0  0  0  0
   -0.4353    0.2207    0.3058 C   0  0  0  0  0  0  0  0  0  0  0  0
   -1.1934    1.0741   -0.3807 C   0  0  0  0  0  0  0  0  0  0  0  0
   -0.3413    1.9752   -1.2234 C   0  0  0  0  0  0  0  0  0  0  0  0
    0.9997    1.5669   -0.9648 O   0  0  0  0  0  0  0  0  0  0  0  0
    1.0143    0.4921   -0.0330 C   0  0  0  0  0  0  0  0  0  0  0  0
   -0.8956   -0.7681    3.5141 H   0  0  0  0  0  0  0  0  0  0  0  0
    0.6725   -0.3189    2.7903 H   0  0  0  0  0  0  0  0  0  0  0  0
    0.4986   -2.3883    0.4012 H   0  0  0  0  0  0  0  0  0  0  0  0
   -1.0877   -3.0554    0.8738 H   0  0  0  0  0  0  0  0  0  0  0  0
   -1.9762   -0.8221    1.3218 H   0  0  0  0  0  0  0  0  0  0  0  0
   -2.2747    1.1335   -0.3551 H   0  0  0  0  0  0  0  0  0  0  0  0
   -0.5609    1.8801   -2.2991 H   0  0  0  0  0  0  0  0  0  0  0  0
   -0.4656    3.0389   -0.9638 H   0  0  0  0  0  0  0  0  0  0  0  0
    1.5118   -0.3827   -0.4814 H   0  0  0  0  0  0  0  0  0  0  0  0
    1.6068    0.7745    0.8519 H   0  0  0  0  0  0  0  0  0  0  0  0
  1 11  1  0  0  0  0
  1 10  1  0  0  0  0
  2  1  1  0  0  0  0
  3  4  1  0  0  0  0
  3  2  1  0  0  0  0
  4 14  1  0  0  0  0
  4  1  1  0  0  0  0
  5  4  1  0  0  0  0
  6 15  1  0  0  0  0
  6  5  2  0  0  0  0
  7  8  1  0  0  0  0
  7 17  1  0  0  0  0
  7  6  1  0  0  0  0
  8  9  1  0  0  0  0
  9  5  1  0  0  0  0
  9 19  1  0  0  0  0
 12  3  1  0  0  0  0
 13  3  1  0  0  0  0
 16  7  1  0  0  0  0
 18  9  1  0  0  0  0
M TOR 0 0 1 2 3
M TOR 1 0 1 2 11
M TOR 2 0 1 2 12
M TOR 3 0 3 2 11
M TOR 4 0 3 2 12
M TOR 5 0 3 4 5
M TOR 6 0 3 4 8
M TOR 7 1 0 3 4
M TOR 8 1 0 3 13
M TOR 9 1 2 3 4
M TOR 10 1 2 3 13
M TOR 11 2 1 0 9
M TOR 12 2 1 0 10
M TOR 13 2 3 0 9
M TOR 14 2 3 0 10
M TOR 15 2 3 4 5
M TOR 16 2 3 4 8
M TOR 17 3 4 5 6
M TOR 18 3 4 5 14
M TOR 19 3 4 8 7
M TOR 20 3 4 8 17
M TOR 21 3 4 8 18
M TOR 22 4 3 0 9
M TOR 23 4 3 0 10
M TOR 24 4 3 2 11
M TOR 25 4 3 2 12
M TOR 26 4 5 6 7
M TOR 27 4 5 6 15
M TOR 28 4 5 6 16
M TOR 29 4 8 7 6
M TOR 30 5 4 3 13
M TOR 31 5 4 8 7
M TOR 32 5 4 8 17
M TOR 33 5 4 8 18
M TOR 34 5 6 7 8
M TOR 35 6 5 4 8
M TOR 36 6 7 8 17
M TOR 37 6 7 8 18
M TOR 38 7 6 5 14
M TOR 39 8 4 3 13
M TOR 40 8 4 5 14
M TOR 41 8 7 6 15
M TOR 42 8 7 6 16
M  END
$$$$
