
     RDKit          3D

 19 18  0  0  0  0  0  0  0  0999 V2000
    2.7226    0.1219    4.1505 C   0  0  0  0  0  0  0  0  0  0  0  0
    3.2468    0.2138    2.7285 C   0  0  0  0  0  0  0  0  0  0  0  0
    2.8405   -0.9550    2.0291 O   0  0  0  0  0  0  0  0  0  0  0  0
    3.2770   -1.0105    0.6923 C   0  0  0  0  0  0  0  0  0  0  0  0
    3.0628   -2.4390    0.1889 C   0  0  0  0  0  0  0  0  0  0  0  0
    2.5183   -0.0360   -0.2248 C   0  0  0  0  0  0  0  0  0  0  0  0
    3.0398    0.4683   -1.1947 O   0  0  0  0  0  0  0  0  0  0  0  0
    1.1229    0.2053    0.1074 C   0  0  0  0  0  0  0  0  0  0  0  0
   -0.0359    0.4187    0.3544 C   0  0  0  0  0  0  0  0  0  0  0  0
    3.1118   -0.7722    4.6457 H   0  0  0  0  0  0  0  0  0  0  0  0
    3.0288    1.0005    4.7258 H   0  0  0  0  0  0  0  0  0  0  0  0
    1.6305    0.0674    4.1520 H   0  0  0  0  0  0  0  0  0  0  0  0
    2.8553    1.1159    2.2335 H   0  0  0  0  0  0  0  0  0  0  0  0
    4.3462    0.2873    2.7197 H   0  0  0  0  0  0  0  0  0  0  0  0
    4.3404   -0.7392    0.6078 H   0  0  0  0  0  0  0  0  0  0  0  0
    3.6209   -3.1336    0.8215 H   0  0  0  0  0  0  0  0  0  0  0  0
    2.0024   -2.7029    0.2372 H   0  0  0  0  0  0  0  0  0  0  0  0
    3.4082   -2.5358   -0.8433 H   0  0  0  0  0  0  0  0  0  0  0  0
   -1.0599    0.6077    0.5690 H   0  0  0  0  0  0  0  0  0  0  0  0
  1  2  1  0
  2  3  1  0
  3  4  1  0
  4  5  1  0
  4  6  1  0
  6  7  2  0
  6  8  1  0
  8  9  3  0
  1 10  1  0
  1 11  1  0
  1 12  1  0
  2 13  1  0
  2 14  1  0
  4 15  1  0
  5 16  1  0
  5 17  1  0
  5 18  1  0
  9 19  1  0
M  END
$$$$
