gdb 5532	2.7909079	1.3161807	1.0505437	3.4364	75.46	-0.24259	0.06365	0.30624	1198.2199	0.155431	-422.454118	-422.445706	-422.444762	-422.487401	31.819
 OpenBabel02181911423D

 19 21  0  0  1  0  0  0  0  0999 V2000
   -0.3312    0.4017   -0.1439 C   0  0  0  0  0  0  0  0  0  0  0  0
    0.2384    1.4256   -1.1337 C   0  0  0  0  0  0  0  0  0  0  0  0
    0.6759    0.7811   -2.4411 C   0  0  1  0  0  0  0  0  0  0  0  0
    1.5730    1.4911   -3.4983 C   0  0  2  0  0  0  0  0  0  0  0  0
    1.8703    0.1528   -4.0708 O   0  0  0  0  0  0  0  0  0  0  0  0
    1.9971   -0.0349   -2.6029 C   0  0  1  0  0  0  0  0  0  0  0  0
    2.7854    1.2846   -2.5753 C   0  0  2  0  0  0  0  0  0  0  0  0
    3.6141    2.0541   -1.6577 C   0  0  0  0  0  0  0  0  0  0  0  0
    4.1301    1.4780   -2.8814 O   0  0  0  0  0  0  0  0  0  0  0  0
   -0.6739    0.8879    0.7743 H   0  0  0  0  0  0  0  0  0  0  0  0
   -1.1826   -0.1349   -0.5761 H   0  0  0  0  0  0  0  0  0  0  0  0
    0.4215   -0.3437    0.1343 H   0  0  0  0  0  0  0  0  0  0  0  0
   -0.5270    2.1791   -1.3593 H   0  0  0  0  0  0  0  0  0  0  0  0
    1.0709    1.9641   -0.6699 H   0  0  0  0  0  0  0  0  0  0  0  0
   -0.1434    0.2573   -2.9413 H   0  0  0  0  0  0  0  0  0  0  0  0
    1.3396    2.2988   -4.1913 H   0  0  0  0  0  0  0  0  0  0  0  0
    2.2656   -1.0270   -2.2421 H   0  0  0  0  0  0  0  0  0  0  0  0
    3.5563    3.1414   -1.6474 H   0  0  0  0  0  0  0  0  0  0  0  0
    3.9854    1.5991   -0.7406 H   0  0  0  0  0  0  0  0  0  0  0  0
  1 12  1  0  0  0  0
  1 10  1  0  0  0  0
  2 14  1  0  0  0  0
  2  1  1  0  0  0  0
  3 15  1  6  0  0  0
  3  2  1  0  0  0  0
  4 16  1  6  0  0  0
  4  7  1  0  0  0  0
  4  3  1  0  0  0  0
  5  4  1  0  0  0  0
  5  6  1  0  0  0  0
  6  7  1  0  0  0  0
  6  3  1  0  0  0  0
  6 17  1  1  0  0  0
  7  9  1  6  0  0  0
  7  8  1  0  0  0  0
  8 18  1  0  0  0  0
  8 19  1  0  0  0  0
  9  8  1  0  0  0  0
 11  1  1  0  0  0  0
 13  2  1  0  0  0  0
M TOR 0 0 1 2 3
M TOR 1 0 1 2 5
M TOR 2 0 1 2 14
M TOR 3 1 2 3 4
M TOR 4 1 2 3 6
M TOR 5 1 2 3 15
M TOR 6 1 2 5 4
M TOR 7 1 2 5 6
M TOR 8 1 2 5 16
M TOR 9 2 1 0 9
M TOR 10 2 1 0 10
M TOR 11 2 1 0 11
M TOR 12 2 3 4 5
M TOR 13 2 3 6 5
M TOR 14 2 3 6 7
M TOR 15 2 3 6 8
M TOR 16 2 5 6 7
M TOR 17 2 5 6 8
M TOR 18 3 2 1 12
M TOR 19 3 2 1 13
M TOR 20 3 2 5 16
M TOR 21 3 4 5 6
M TOR 22 3 4 5 16
M TOR 23 3 6 5 16
M TOR 24 3 6 7 8
M TOR 25 3 6 7 17
M TOR 26 3 6 7 18
M TOR 27 4 3 2 14
M TOR 28 4 3 6 7
M TOR 29 4 3 6 8
M TOR 30 4 5 2 14
M TOR 31 4 5 6 7
M TOR 32 4 5 6 8
M TOR 33 5 2 1 12
M TOR 34 5 2 1 13
M TOR 35 5 2 3 15
M TOR 36 5 4 3 15
M TOR 37 5 6 3 15
M TOR 38 5 6 7 8
M TOR 39 5 6 7 17
M TOR 40 5 6 7 18
M TOR 41 6 3 2 14
M TOR 42 6 5 2 14
M TOR 43 6 8 7 17
M TOR 44 6 8 7 18
M TOR 45 7 6 3 15
M TOR 46 7 6 5 16
M TOR 47 8 6 3 15
M TOR 48 8 6 5 16
M  END
$$$$
