
     RDKit          3D

 19 21  0  0  0  0  0  0  0  0999 V2000
   -0.0174   -0.0231   -0.1583 C   0  0  0  0  0  0  0  0  0  0  0  0
    1.5041    0.0275    0.0063 C   0  0  0  0  0  0  0  0  0  0  0  0
    2.0663    1.4423    0.1075 C   0  0  0  0  0  0  0  0  0  0  0  0
    3.4953    1.4795   -0.0281 O   0  0  0  0  0  0  0  0  0  0  0  0
    2.9392    1.5881    1.2840 C   0  0  0  0  0  0  0  0  0  0  0  0
    2.9955    0.2855    2.0475 C   0  0  0  0  0  0  0  0  0  0  0  0
    1.9969    0.1745    3.2133 C   0  0  0  0  0  0  0  0  0  0  0  0
    1.0616   -0.5599    2.3987 O   0  0  0  0  0  0  0  0  0  0  0  0
    2.0059   -0.6557    1.3014 C   0  0  0  0  0  0  0  0  0  0  0  0
   -0.5185    0.4417    0.6934 H   0  0  0  0  0  0  0  0  0  0  0  0
   -0.3227    0.4939   -1.0735 H   0  0  0  0  0  0  0  0  0  0  0  0
   -0.3686   -1.0573   -0.2230 H   0  0  0  0  0  0  0  0  0  0  0  0
    1.9783   -0.4593   -0.8545 H   0  0  0  0  0  0  0  0  0  0  0  0
    1.5377    2.2814   -0.3403 H   0  0  0  0  0  0  0  0  0  0  0  0
    3.1045    2.5375    1.7905 H   0  0  0  0  0  0  0  0  0  0  0  0
    4.0144   -0.0591    2.2297 H   0  0  0  0  0  0  0  0  0  0  0  0
    2.3508   -0.4219    4.0638 H   0  0  0  0  0  0  0  0  0  0  0  0
    1.5711    1.1134    3.5893 H   0  0  0  0  0  0  0  0  0  0  0  0
    2.3145   -1.6955    1.1476 H   0  0  0  0  0  0  0  0  0  0  0  0
  1  2  1  0
  2  3  1  0
  3  4  1  0
  4  5  1  0
  5  6  1  0
  6  7  1  0
  7  8  1  0
  8  9  1  0
  9  2  1  0
  5  3  1  0
  9  6  1  0
  1 10  1  0
  1 11  1  0
  1 12  1  0
  2 13  1  0
  3 14  1  0
  5 15  1  0
  6 16  1  0
  7 17  1  0
  7 18  1  0
  9 19  1  0
M  END
$$$$
