gdb 3142	2.7795357	1.4523574	1.2376626	2.2086	74.17	-0.246	0.0724	0.3184	1078.7327	0.156206	-422.491777	-422.483488	-422.482544	-422.524907	30.984
 OpenBabel02181911413D

 19 21  0  0  1  0  0  0  0  0999 V2000
   -0.2192   -0.1935   -0.0251 C   0  0  0  0  0  0  0  0  0  0  0  0
    1.2940   -0.0655    0.0624 C   0  0  2  0  0  0  0  0  0  0  0  0
    1.9726   -0.5337    1.3631 C   0  0  2  0  0  0  0  0  0  0  0  0
    1.5141    0.3261    2.4149 O   0  0  0  0  0  0  0  0  0  0  0  0
    2.5847    0.7850    1.5765 C   0  0  2  0  0  0  0  0  0  0  0  0
    1.9360    1.3519    0.3128 C   0  0  0  0  0  0  0  0  0  0  0  0
    2.7946    2.0459   -0.7612 C   0  0  0  0  0  0  0  0  0  0  0  0
    2.0918    3.2898   -0.5824 O   0  0  0  0  0  0  0  0  0  0  0  0
    1.1708    2.6852    0.3536 C   0  0  0  0  0  0  0  0  0  0  0  0
   -0.6893    0.2187    0.8720 H   0  0  0  0  0  0  0  0  0  0  0  0
   -0.6150    0.3379   -0.8969 H   0  0  0  0  0  0  0  0  0  0  0  0
   -0.5171   -1.2438   -0.1142 H   0  0  0  0  0  0  0  0  0  0  0  0
    1.7794   -0.5259   -0.8063 H   0  0  0  0  0  0  0  0  0  0  0  0
    2.3071   -1.5251    1.6468 H   0  0  0  0  0  0  0  0  0  0  0  0
    3.5098    1.0778    2.0615 H   0  0  0  0  0  0  0  0  0  0  0  0
    3.8668    2.1394   -0.5428 H   0  0  0  0  0  0  0  0  0  0  0  0
    2.6741    1.6452   -1.7775 H   0  0  0  0  0  0  0  0  0  0  0  0
    1.1591    3.2003    1.3213 H   0  0  0  0  0  0  0  0  0  0  0  0
    0.1485    2.6518   -0.0448 H   0  0  0  0  0  0  0  0  0  0  0  0
  1  2  1  0  0  0  0
  1 10  1  0  0  0  0
  2 13  1  6  0  0  0
  2  6  1  0  0  0  0
  2  3  1  0  0  0  0
  3  5  1  0  0  0  0
  3 14  1  1  0  0  0
  3  4  1  0  0  0  0
  5 15  1  1  0  0  0
  5  4  1  0  0  0  0
  6  9  1  0  0  0  0
  6  5  1  0  0  0  0
  7  8  1  0  0  0  0
  7 16  1  0  0  0  0
  7  6  1  0  0  0  0
  8  9  1  0  0  0  0
  9 18  1  0  0  0  0
 11  1  1  0  0  0  0
 12  1  1  0  0  0  0
 17  7  1  0  0  0  0
 19  9  1  0  0  0  0
M TOR 0 0 1 2 3
M TOR 1 0 1 2 4
M TOR 2 0 1 2 13
M TOR 3 0 1 5 4
M TOR 4 0 1 5 6
M TOR 5 0 1 5 8
M TOR 6 1 2 3 4
M TOR 7 1 2 4 5
M TOR 8 1 2 4 14
M TOR 9 1 5 4 3
M TOR 10 1 5 4 14
M TOR 11 1 5 6 7
M TOR 12 1 5 6 15
M TOR 13 1 5 6 16
M TOR 14 1 5 8 7
M TOR 15 1 5 8 17
M TOR 16 1 5 8 18
M TOR 17 2 1 0 9
M TOR 18 2 1 0 10
M TOR 19 2 1 0 11
M TOR 20 2 1 5 6
M TOR 21 2 1 5 8
M TOR 22 2 3 4 5
M TOR 23 2 3 4 14
M TOR 24 2 4 5 6
M TOR 25 2 4 5 8
M TOR 26 3 2 1 5
M TOR 27 3 2 1 12
M TOR 28 3 4 2 13
M TOR 29 3 4 5 6
M TOR 30 3 4 5 8
M TOR 31 4 2 1 12
M TOR 32 4 5 1 12
M TOR 33 4 5 6 7
M TOR 34 4 5 6 15
M TOR 35 4 5 6 16
M TOR 36 4 5 8 7
M TOR 37 4 5 8 17
M TOR 38 4 5 8 18
M TOR 39 5 1 0 9
M TOR 40 5 1 0 10
M TOR 41 5 1 0 11
M TOR 42 5 1 2 13
M TOR 43 5 4 2 13
M TOR 44 5 6 7 8
M TOR 45 6 5 1 12
M TOR 46 6 5 4 14
M TOR 47 6 5 8 17
M TOR 48 6 5 8 18
M TOR 49 6 7 8 17
M TOR 50 6 7 8 18
M TOR 51 8 5 1 12
M TOR 52 8 5 4 14
M TOR 53 8 5 6 15
M TOR 54 8 5 6 16
M TOR 55 8 7 6 15
M TOR 56 8 7 6 16
M  END
$$$$
