
     RDKit          3D

 19 20  0  0  0  0  0  0  0  0999 V2000
    1.2859   -0.0843    0.0255 O   0  0  0  0  0  0  0  0  0  0  0  0
    0.0984   -0.0441    0.0498 C   0  0  0  0  0  0  0  0  0  0  0  0
   -0.7776   -1.0999    0.1234 O   0  0  0  0  0  0  0  0  0  0  0  0
   -1.9371   -0.2073    0.0579 C   0  0  0  0  0  0  0  0  0  0  0  0
   -1.0042    1.0195   -0.0039 C   0  0  0  0  0  0  0  0  0  0  0  0
   -1.0283    1.9105   -1.2463 C   0  0  0  0  0  0  0  0  0  0  0  0
   -2.2216    2.8427   -1.2803 C   0  0  0  0  0  0  0  0  0  0  0  0
   -2.1833    4.1536   -0.5332 C   0  0  0  0  0  0  0  0  0  0  0  0
   -2.1541    4.1402   -2.0425 C   0  0  0  0  0  0  0  0  0  0  0  0
   -2.5226   -0.4063   -0.8433 H   0  0  0  0  0  0  0  0  0  0  0  0
   -2.5572   -0.3133    0.9499 H   0  0  0  0  0  0  0  0  0  0  0  0
   -1.0260    1.6288    0.9043 H   0  0  0  0  0  0  0  0  0  0  0  0
   -0.1011    2.4957   -1.2671 H   0  0  0  0  0  0  0  0  0  0  0  0
   -1.0150    1.2807   -2.1458 H   0  0  0  0  0  0  0  0  0  0  0  0
   -3.1851    2.3380   -1.2959 H   0  0  0  0  0  0  0  0  0  0  0  0
   -3.0845    4.4961   -0.0372 H   0  0  0  0  0  0  0  0  0  0  0  0
   -1.2660    4.4140   -0.0144 H   0  0  0  0  0  0  0  0  0  0  0  0
   -3.0364    4.4709   -2.5787 H   0  0  0  0  0  0  0  0  0  0  0  0
   -1.2183    4.3904   -2.5317 H   0  0  0  0  0  0  0  0  0  0  0  0
  1  2  2  0
  2  3  1  0
  3  4  1  0
  4  5  1  0
  5  6  1  0
  6  7  1  0
  7  8  1  0
  8  9  1  0
  5  2  1  0
  9  7  1  0
  4 10  1  0
  4 11  1  0
  5 12  1  0
  6 13  1  0
  6 14  1  0
  7 15  1  0
  8 16  1  0
  8 17  1  0
  9 18  1  0
  9 19  1  0
M  END
$$$$
