
     RDKit          3D

 19 21  0  0  0  0  0  0  0  0999 V2000
    1.0917    1.3086   -0.2144 C   0  0  0  0  0  0  0  0  0  0  0  0
    1.3919   -0.1623   -0.0351 C   0  0  0  0  0  0  0  0  0  0  0  0
    1.6252   -1.0488   -1.0843 O   0  0  0  0  0  0  0  0  0  0  0  0
    0.8772   -2.2774   -0.9299 C   0  0  0  0  0  0  0  0  0  0  0  0
   -0.0328   -2.3145    0.1328 O   0  0  0  0  0  0  0  0  0  0  0  0
   -1.1313   -1.3853    0.1762 C   0  0  0  0  0  0  0  0  0  0  0  0
   -0.8155   -0.2961    1.2599 C   0  0  0  0  0  0  0  0  0  0  0  0
   -0.0091    0.3404    0.1206 C   0  0  0  0  0  0  0  0  0  0  0  0
   -0.9926   -0.2682   -0.8821 C   0  0  0  0  0  0  0  0  0  0  0  0
    1.5049    1.9812    0.5307 H   0  0  0  0  0  0  0  0  0  0  0  0
    1.0532    1.7190   -1.2185 H   0  0  0  0  0  0  0  0  0  0  0  0
    1.9163   -0.4094    0.8887 H   0  0  0  0  0  0  0  0  0  0  0  0
    0.3917   -2.4586   -1.8992 H   0  0  0  0  0  0  0  0  0  0  0  0
    1.5825   -3.0880   -0.7159 H   0  0  0  0  0  0  0  0  0  0  0  0
   -2.0604   -1.9568    0.2516 H   0  0  0  0  0  0  0  0  0  0  0  0
   -1.7202    0.2524    1.5424 H   0  0  0  0  0  0  0  0  0  0  0  0
   -0.2767   -0.6303    2.1488 H   0  0  0  0  0  0  0  0  0  0  0  0
   -1.9175    0.3125   -0.9499 H   0  0  0  0  0  0  0  0  0  0  0  0
   -0.6449   -0.5177   -1.8843 H   0  0  0  0  0  0  0  0  0  0  0  0
  1  2  1  0
  2  3  1  0
  3  4  1  0
  4  5  1  0
  5  6  1  0
  6  7  1  0
  7  8  1  0
  8  9  1  0
  8  1  1  0
  8  2  1  0
  9  6  1  0
  1 10  1  0
  1 11  1  0
  2 12  1  0
  4 13  1  0
  4 14  1  0
  6 15  1  0
  7 16  1  0
  7 17  1  0
  9 18  1  0
  9 19  1  0
M  END
$$$$
