
     RDKit          3D

 19 19  0  0  0  0  0  0  0  0999 V2000
    1.3354    0.9227    0.4399 C   0  0  0  0  0  0  0  0  0  0  0  0
    0.0502    0.1655    0.3611 C   0  0  0  0  0  0  0  0  0  0  0  0
   -0.1759   -1.1523    0.4706 C   0  0  0  0  0  0  0  0  0  0  0  0
   -1.6262   -1.5395    0.3362 C   0  0  0  0  0  0  0  0  0  0  0  0
   -2.3526   -0.2041    0.0802 C   0  0  0  0  0  0  0  0  0  0  0  0
   -3.0957   -0.1393   -1.2624 C   0  0  0  0  0  0  0  0  0  0  0  0
   -4.1315   -1.1019   -1.3679 O   0  0  0  0  0  0  0  0  0  0  0  0
   -1.2414    0.8585    0.1277 C   0  0  0  0  0  0  0  0  0  0  0  0
   -1.4005    2.0505   -0.0239 O   0  0  0  0  0  0  0  0  0  0  0  0
    1.2961    1.6644    1.2452 H   0  0  0  0  0  0  0  0  0  0  0  0
    2.1876    0.2612    0.6137 H   0  0  0  0  0  0  0  0  0  0  0  0
    1.5090    1.4846   -0.4843 H   0  0  0  0  0  0  0  0  0  0  0  0
    0.5977   -1.8953    0.6413 H   0  0  0  0  0  0  0  0  0  0  0  0
   -1.7833   -2.2516   -0.4828 H   0  0  0  0  0  0  0  0  0  0  0  0
   -1.9824   -2.0460    1.2416 H   0  0  0  0  0  0  0  0  0  0  0  0
   -3.0705    0.0243    0.8780 H   0  0  0  0  0  0  0  0  0  0  0  0
   -3.4635    0.8841   -1.4159 H   0  0  0  0  0  0  0  0  0  0  0  0
   -2.4002   -0.3652   -2.0788 H   0  0  0  0  0  0  0  0  0  0  0  0
   -4.8221   -0.8625   -0.7414 H   0  0  0  0  0  0  0  0  0  0  0  0
  1  2  1  0
  2  3  2  0
  3  4  1  0
  4  5  1  0
  5  6  1  0
  6  7  1  0
  5  8  1  0
  8  9  2  0
  8  2  1  0
  1 10  1  0
  1 11  1  0
  1 12  1  0
  3 13  1  0
  4 14  1  0
  4 15  1  0
  5 16  1  0
  6 17  1  0
  6 18  1  0
  7 19  1  0
M  END
$$$$
