gdb 5690	1.8960874	1.2845337	1.1858037	2.4259	78.01	-0.25744	0.03285	0.29029	1215.8116	0.154435	-422.510768	-422.500587	-422.499642	-422.546123	36.913
 OpenBabel02181911423D

 19 19  0  0  1  0  0  0  0  0999 V2000
    1.4445    0.7774    0.3883 O   0  0  0  0  0  0  0  0  0  0  0  0
    0.3689   -0.1165    0.6080 C   0  0  0  0  0  0  0  0  0  0  0  0
   -0.9282    0.6035    0.9012 C   0  0  1  0  0  0  0  0  0  0  0  0
   -1.9723   -0.0245    1.7778 C   0  0  0  0  0  0  0  0  0  0  0  0
   -1.1891    1.1731    2.2935 C   0  0  2  0  0  0  0  0  0  0  0  0
   -1.9059    2.5163    2.3960 C   0  0  0  0  0  0  0  0  0  0  0  0
   -1.0257    3.6154    2.2777 O   0  0  0  0  0  0  0  0  0  0  0  0
   -0.1900    0.9846    3.3122 C   0  0  0  0  0  0  0  0  0  0  0  0
    0.6604    0.9123    4.1631 C   0  0  0  0  0  0  0  0  0  0  0  0
    1.5536    1.2880    1.1986 H   0  0  0  0  0  0  0  0  0  0  0  0
    0.2679   -0.7007   -0.3130 H   0  0  0  0  0  0  0  0  0  0  0  0
    0.5911   -0.8238    1.4215 H   0  0  0  0  0  0  0  0  0  0  0  0
   -1.2768    1.2407    0.0930 H   0  0  0  0  0  0  0  0  0  0  0  0
   -3.0198    0.1357    1.5443 H   0  0  0  0  0  0  0  0  0  0  0  0
   -1.7537   -0.9894    2.2221 H   0  0  0  0  0  0  0  0  0  0  0  0
   -2.6215    2.6054    1.5724 H   0  0  0  0  0  0  0  0  0  0  0  0
   -2.4733    2.5542    3.3388 H   0  0  0  0  0  0  0  0  0  0  0  0
   -0.3918    3.5521    3.0014 H   0  0  0  0  0  0  0  0  0  0  0  0
    1.3955    0.8108    4.9233 H   0  0  0  0  0  0  0  0  0  0  0  0
  1  2  1  0  0  0  0
  1 10  1  0  0  0  0
  2  3  1  0  0  0  0
  2 12  1  0  0  0  0
  3 13  1  6  0  0  0
  3  4  1  0  0  0  0
  3  5  1  0  0  0  0
  4 15  1  0  0  0  0
  4  5  1  0  0  0  0
  5  6  1  0  0  0  0
  5  8  1  1  0  0  0
  6 17  1  0  0  0  0
  7  6  1  0  0  0  0
  7 18  1  0  0  0  0
  8  9  3  0  0  0  0
  9 19  1  0  0  0  0
 11  2  1  0  0  0  0
 14  4  1  0  0  0  0
 16  6  1  0  0  0  0
M TOR 0 0 1 2 3
M TOR 1 0 1 2 4
M TOR 2 0 1 2 12
M TOR 3 1 2 3 4
M TOR 4 1 2 3 13
M TOR 5 1 2 3 14
M TOR 6 1 2 4 5
M TOR 7 1 2 4 7
M TOR 8 2 1 0 9
M TOR 9 2 3 4 5
M TOR 10 2 3 4 7
M TOR 11 2 4 3 13
M TOR 12 2 4 3 14
M TOR 13 2 4 5 6
M TOR 14 2 4 5 15
M TOR 15 2 4 5 16
M TOR 16 2 4 7 8
M TOR 17 3 2 1 10
M TOR 18 3 2 1 11
M TOR 19 3 4 2 12
M TOR 20 3 4 5 6
M TOR 21 3 4 5 15
M TOR 22 3 4 5 16
M TOR 23 3 4 7 8
M TOR 24 4 2 1 10
M TOR 25 4 2 1 11
M TOR 26 4 5 6 17
M TOR 27 4 7 8 18
M TOR 28 5 4 2 12
M TOR 29 5 4 3 13
M TOR 30 5 4 3 14
M TOR 31 5 4 7 8
M TOR 32 6 5 4 7
M TOR 33 7 4 2 12
M TOR 34 7 4 3 13
M TOR 35 7 4 3 14
M TOR 36 7 4 5 15
M TOR 37 7 4 5 16
M  END
$$$$
