
     RDKit          3D

 19 18  0  0  0  0  0  0  0  0999 V2000
   -3.5024    0.4394   -3.5283 C   0  0  0  0  0  0  0  0  0  0  0  0
   -3.1144   -0.1084   -2.2617 O   0  0  0  0  0  0  0  0  0  0  0  0
   -3.1261    0.7577   -1.2330 C   0  0  0  0  0  0  0  0  0  0  0  0
   -3.4696    1.9075   -1.3223 O   0  0  0  0  0  0  0  0  0  0  0  0
   -2.6416    0.0742    0.0535 C   0  0  0  0  0  0  0  0  0  0  0  0
   -3.1260    0.8465    1.2918 C   0  0  0  0  0  0  0  0  0  0  0  0
   -1.1837   -0.0458    0.0090 C   0  0  0  0  0  0  0  0  0  0  0  0
    0.0177   -0.1179   -0.0159 C   0  0  0  0  0  0  0  0  0  0  0  0
    1.4700   -0.2144   -0.0475 C   0  0  0  0  0  0  0  0  0  0  0  0
   -3.4415   -0.3847   -4.2389 H   0  0  0  0  0  0  0  0  0  0  0  0
   -4.5212    0.8323   -3.4827 H   0  0  0  0  0  0  0  0  0  0  0  0
   -2.8273    1.2477   -3.8206 H   0  0  0  0  0  0  0  0  0  0  0  0
   -3.0728   -0.9348    0.0531 H   0  0  0  0  0  0  0  0  0  0  0  0
   -2.7604    0.3622    2.2000 H   0  0  0  0  0  0  0  0  0  0  0  0
   -2.7580    1.8734    1.2632 H   0  0  0  0  0  0  0  0  0  0  0  0
   -4.2186    0.8758    1.3202 H   0  0  0  0  0  0  0  0  0  0  0  0
    1.9106    0.1090    0.9020 H   0  0  0  0  0  0  0  0  0  0  0  0
    1.7973   -1.2436   -0.2320 H   0  0  0  0  0  0  0  0  0  0  0  0
    1.8921    0.4147   -0.8389 H   0  0  0  0  0  0  0  0  0  0  0  0
  1  2  1  0
  2  3  1  0
  3  4  2  0
  3  5  1  0
  5  6  1  0
  5  7  1  0
  7  8  3  0
  8  9  1  0
  1 10  1  0
  1 11  1  0
  1 12  1  0
  5 13  1  0
  6 14  1  0
  6 15  1  0
  6 16  1  0
  9 17  1  0
  9 18  1  0
  9 19  1  0
M  END
$$$$
