gdb 178	3.8165143	1.4311487	1.2155133	1.2292	75.05	-0.25045	0.0939	0.34435	1050.9345	0.159033	-422.506466	-422.49924	-422.498296	-422.538543	28.344
 OpenBabel02181911403D

 19 21  0  0  1  0  0  0  0  0999 V2000
    1.6162    0.3549   -0.6398 C   0  0  0  0  0  0  0  0  0  0  0  0
    0.4021   -0.3793   -1.2904 C   0  0  1  0  0  0  0  0  0  0  0  0
    0.2985   -1.1960    0.0331 C   0  0  0  0  0  0  0  0  0  0  0  0
    0.5358    0.2762    0.4827 C   0  0  2  0  0  0  0  0  0  0  0  0
   -0.5070    0.6751   -0.6062 C   0  0  2  0  0  0  0  0  0  0  0  0
   -2.0201    0.4452   -0.3764 C   0  0  0  0  0  0  0  0  0  0  0  0
   -2.6514    1.5740   -0.9624 O   0  0  0  0  0  0  0  0  0  0  0  0
   -1.6893    2.5950   -0.9011 C   0  0  0  0  0  0  0  0  0  0  0  0
   -0.4444    1.9880   -1.1427 O   0  0  0  0  0  0  0  0  0  0  0  0
    2.5094   -0.2546   -0.4812 H   0  0  0  0  0  0  0  0  0  0  0  0
    1.8573    1.3447   -1.0242 H   0  0  0  0  0  0  0  0  0  0  0  0
    0.3168   -0.7532   -2.3117 H   0  0  0  0  0  0  0  0  0  0  0  0
   -0.6610   -1.6589    0.2768 H   0  0  0  0  0  0  0  0  0  0  0  0
    1.1244   -1.8839    0.2249 H   0  0  0  0  0  0  0  0  0  0  0  0
    0.6055    0.6539    1.5043 H   0  0  0  0  0  0  0  0  0  0  0  0
   -2.4041   -0.4510   -0.8690 H   0  0  0  0  0  0  0  0  0  0  0  0
   -2.2484    0.3828    0.6987 H   0  0  0  0  0  0  0  0  0  0  0  0
   -1.8935    3.3312   -1.6834 H   0  0  0  0  0  0  0  0  0  0  0  0
   -1.6971    3.0824    0.0923 H   0  0  0  0  0  0  0  0  0  0  0  0
  1 10  1  0  0  0  0
  1  4  1  0  0  0  0
  2 12  1  6  0  0  0
  2  1  1  0  0  0  0
  2  5  1  0  0  0  0
  2  3  1  0  0  0  0
  3 14  1  0  0  0  0
  3 13  1  0  0  0  0
  3  4  1  0  0  0  0
  4 15  1  1  0  0  0
  5  9  1  6  0  0  0
  5  6  1  0  0  0  0
  5  4  1  0  0  0  0
  6 17  1  0  0  0  0
  7  8  1  0  0  0  0
  7  6  1  0  0  0  0
  8 19  1  0  0  0  0
  9  8  1  0  0  0  0
 11  1  1  0  0  0  0
 16  6  1  0  0  0  0
 18  8  1  0  0  0  0
M TOR 0 0 1 2 3
M TOR 1 0 1 2 12
M TOR 2 0 1 2 13
M TOR 3 0 1 4 3
M TOR 4 0 1 4 5
M TOR 5 0 1 4 8
M TOR 6 0 3 2 12
M TOR 7 0 3 2 13
M TOR 8 0 3 4 5
M TOR 9 0 3 4 8
M TOR 10 1 0 3 14
M TOR 11 1 2 3 4
M TOR 12 1 2 3 14
M TOR 13 1 4 3 14
M TOR 14 1 4 5 6
M TOR 15 1 4 5 15
M TOR 16 1 4 5 16
M TOR 17 1 4 8 7
M TOR 18 2 1 0 9
M TOR 19 2 1 0 10
M TOR 20 2 1 4 5
M TOR 21 2 1 4 8
M TOR 22 2 3 0 9
M TOR 23 2 3 0 10
M TOR 24 2 3 4 5
M TOR 25 2 3 4 8
M TOR 26 3 0 1 11
M TOR 27 3 2 1 11
M TOR 28 3 4 1 11
M TOR 29 3 4 5 6
M TOR 30 3 4 5 15
M TOR 31 3 4 5 16
M TOR 32 3 4 8 7
M TOR 33 4 1 0 9
M TOR 34 4 1 0 10
M TOR 35 4 1 2 12
M TOR 36 4 1 2 13
M TOR 37 4 3 0 9
M TOR 38 4 3 0 10
M TOR 39 4 3 2 12
M TOR 40 4 3 2 13
M TOR 41 4 5 6 7
M TOR 42 4 8 7 6
M TOR 43 4 8 7 17
M TOR 44 4 8 7 18
M TOR 45 5 4 1 11
M TOR 46 5 4 3 14
M TOR 47 5 4 8 7
M TOR 48 5 6 7 8
M TOR 49 5 6 7 17
M TOR 50 5 6 7 18
M TOR 51 6 5 4 8
M TOR 52 7 6 5 15
M TOR 53 7 6 5 16
M TOR 54 8 4 1 11
M TOR 55 8 4 3 14
M TOR 56 8 4 5 15
M TOR 57 8 4 5 16
M  END
$$$$
