
     RDKit          3D

 19 18  0  0  0  0  0  0  0  0999 V2000
    0.8229   -1.0762   -0.2358 O   0  0  0  0  0  0  0  0  0  0  0  0
    0.2337   -0.0412   -0.0750 C   0  0  0  0  0  0  0  0  0  0  0  0
   -0.3441    0.7838   -1.2123 C   0  0  0  0  0  0  0  0  0  0  0  0
   -0.9583    1.9192   -0.6629 O   0  0  0  0  0  0  0  0  0  0  0  0
   -1.5377    2.7746   -1.6270 C   0  0  0  0  0  0  0  0  0  0  0  0
   -2.1650    3.9588   -0.9048 C   0  0  0  0  0  0  0  0  0  0  0  0
   -2.8232    4.9469   -1.8873 C   0  0  0  0  0  0  0  0  0  0  0  0
   -3.4305    6.0892   -1.2158 C   0  0  0  0  0  0  0  0  0  0  0  0
   -3.9236    7.0218   -0.6403 C   0  0  0  0  0  0  0  0  0  0  0  0
    0.0603    0.4040    0.9294 H   0  0  0  0  0  0  0  0  0  0  0  0
    0.4712    1.0473   -1.9080 H   0  0  0  0  0  0  0  0  0  0  0  0
   -1.0561    0.1577   -1.7772 H   0  0  0  0  0  0  0  0  0  0  0  0
   -0.7698    3.1185   -2.3414 H   0  0  0  0  0  0  0  0  0  0  0  0
   -2.2990    2.2293   -2.2114 H   0  0  0  0  0  0  0  0  0  0  0  0
   -2.9114    3.5923   -0.1933 H   0  0  0  0  0  0  0  0  0  0  0  0
   -1.3950    4.4742   -0.3223 H   0  0  0  0  0  0  0  0  0  0  0  0
   -2.0749    5.3042   -2.6074 H   0  0  0  0  0  0  0  0  0  0  0  0
   -3.5870    4.4248   -2.4789 H   0  0  0  0  0  0  0  0  0  0  0  0
   -4.3622    7.8505   -0.1424 H   0  0  0  0  0  0  0  0  0  0  0  0
  1  2  2  0
  2  3  1  0
  3  4  1  0
  4  5  1  0
  5  6  1  0
  6  7  1  0
  7  8  1  0
  8  9  3  0
  2 10  1  0
  3 11  1  0
  3 12  1  0
  5 13  1  0
  5 14  1  0
  6 15  1  0
  6 16  1  0
  7 17  1  0
  7 18  1  0
  9 19  1  0
M  END
$$$$
