
     RDKit          3D

 19 21  0  0  0  0  0  0  0  0999 V2000
    1.1973   -0.3791    1.0309 C   0  0  0  0  0  0  0  0  0  0  0  0
    1.2349    0.2631   -0.3457 C   0  0  0  0  0  0  0  0  0  0  0  0
    2.1360   -0.3190   -1.4551 C   0  0  0  0  0  0  0  0  0  0  0  0
    1.9660    1.0725   -2.2083 C   0  0  0  0  0  0  0  0  0  0  0  0
    2.1091    1.5077   -0.7268 C   0  0  0  0  0  0  0  0  0  0  0  0
    2.2478    2.6399    0.1488 O   0  0  0  0  0  0  0  0  0  0  0  0
    3.3468    1.9277    0.8314 C   0  0  0  0  0  0  0  0  0  0  0  0
    3.5152    1.0612   -0.4607 C   0  0  0  0  0  0  0  0  0  0  0  0
    3.4513   -0.3260   -0.8060 O   0  0  0  0  0  0  0  0  0  0  0  0
    0.5026   -1.2261    1.0329 H   0  0  0  0  0  0  0  0  0  0  0  0
    2.1796   -0.7511    1.3285 H   0  0  0  0  0  0  0  0  0  0  0  0
    0.8445    0.3328    1.7846 H   0  0  0  0  0  0  0  0  0  0  0  0
    0.2200    0.4268   -0.7205 H   0  0  0  0  0  0  0  0  0  0  0  0
    1.9627   -1.2697   -1.9539 H   0  0  0  0  0  0  0  0  0  0  0  0
    2.7459    1.3895   -2.9020 H   0  0  0  0  0  0  0  0  0  0  0  0
    0.9751    1.1446   -2.6591 H   0  0  0  0  0  0  0  0  0  0  0  0
    4.1717    2.6065    1.0596 H   0  0  0  0  0  0  0  0  0  0  0  0
    2.9971    1.4258    1.7352 H   0  0  0  0  0  0  0  0  0  0  0  0
    4.2643    1.5510   -1.0913 H   0  0  0  0  0  0  0  0  0  0  0  0
  1  2  1  0
  2  3  1  0
  3  4  1  0
  4  5  1  0
  5  6  1  0
  6  7  1  0
  7  8  1  0
  8  9  1  0
  5  2  1  0
  8  5  1  0
  9  3  1  0
  1 10  1  0
  1 11  1  0
  1 12  1  0
  2 13  1  0
  3 14  1  0
  4 15  1  0
  4 16  1  0
  7 17  1  0
  7 18  1  0
  8 19  1  0
M  END
$$$$
