
     RDKit          3D

 19 20  0  0  0  0  0  0  0  0999 V2000
   -1.7708   -2.6497   -2.0097 C   0  0  0  0  0  0  0  0  0  0  0  0
   -1.4850   -1.2742   -1.4482 C   0  0  0  0  0  0  0  0  0  0  0  0
   -0.7262   -1.1939   -0.1062 C   0  0  0  0  0  0  0  0  0  0  0  0
    0.0540    0.0449    0.1522 C   0  0  0  0  0  0  0  0  0  0  0  0
    1.1734    0.1130    0.6002 O   0  0  0  0  0  0  0  0  0  0  0  0
   -0.8462    1.2522   -0.1722 C   0  0  0  0  0  0  0  0  0  0  0  0
   -2.2916    0.7278   -0.0480 C   0  0  0  0  0  0  0  0  0  0  0  0
   -2.2015   -0.7862   -0.2445 C   0  0  0  0  0  0  0  0  0  0  0  0
   -3.2439   -1.5704    0.2320 O   0  0  0  0  0  0  0  0  0  0  0  0
   -2.0676   -3.3441   -1.2214 H   0  0  0  0  0  0  0  0  0  0  0  0
   -2.5893   -2.6040   -2.7357 H   0  0  0  0  0  0  0  0  0  0  0  0
   -0.8892   -3.0521   -2.5182 H   0  0  0  0  0  0  0  0  0  0  0  0
   -1.2173   -0.5318   -2.1969 H   0  0  0  0  0  0  0  0  0  0  0  0
   -0.4094   -2.1276    0.3421 H   0  0  0  0  0  0  0  0  0  0  0  0
   -0.6130    2.0825    0.4965 H   0  0  0  0  0  0  0  0  0  0  0  0
   -0.6244    1.5916   -1.1911 H   0  0  0  0  0  0  0  0  0  0  0  0
   -2.6731    0.9221    0.9624 H   0  0  0  0  0  0  0  0  0  0  0  0
   -2.9902    1.1909   -0.7519 H   0  0  0  0  0  0  0  0  0  0  0  0
   -3.3013   -1.4505    1.1866 H   0  0  0  0  0  0  0  0  0  0  0  0
  1  2  1  0
  2  3  1  0
  3  4  1  0
  4  5  2  0
  4  6  1  0
  6  7  1  0
  7  8  1  0
  8  9  1  0
  8  2  1  0
  8  3  1  0
  1 10  1  0
  1 11  1  0
  1 12  1  0
  2 13  1  0
  3 14  1  0
  6 15  1  0
  6 16  1  0
  7 17  1  0
  7 18  1  0
  9 19  1  0
M  END
$$$$
