gdb 1324	2.0195473	1.4053198	1.0008699	1.233	76.7	-0.24621	-0.09356	0.15265	1250.9219	0.154262	-422.562956	-422.553117	-422.552173	-422.598343	34.59
 OpenBabel02181911403D

 19 19  0  0  1  0  0  0  0  0999 V2000
   -1.7195    2.3962   -1.4595 C   0  0  0  0  0  0  0  0  0  0  0  0
   -1.0439    2.0211   -0.1366 C   0  0  1  0  0  0  0  0  0  0  0  0
   -2.0659    1.7396    0.9653 C   0  0  0  0  0  0  0  0  0  0  0  0
   -1.7092    1.8829    2.4255 C   0  0  0  0  0  0  0  0  0  0  0  0
   -2.6336    2.8791    1.7747 C   0  0  0  0  0  0  0  0  0  0  0  0
   -0.1844    0.7795   -0.2873 C   0  0  0  0  0  0  0  0  0  0  0  0
   -0.4130   -0.1336   -1.0478 O   0  0  0  0  0  0  0  0  0  0  0  0
    1.0623    0.6520    0.6045 C   0  0  0  0  0  0  0  0  0  0  0  0
    1.4637    1.5176    1.3376 O   0  0  0  0  0  0  0  0  0  0  0  0
   -2.3196    1.5623   -1.8331 H   0  0  0  0  0  0  0  0  0  0  0  0
   -2.3727    3.2611   -1.3165 H   0  0  0  0  0  0  0  0  0  0  0  0
   -0.9806    2.6444   -2.2273 H   0  0  0  0  0  0  0  0  0  0  0  0
   -0.3922    2.8304    0.2115 H   0  0  0  0  0  0  0  0  0  0  0  0
   -2.7551    0.9372    0.7139 H   0  0  0  0  0  0  0  0  0  0  0  0
   -2.1302    1.1706    3.1263 H   0  0  0  0  0  0  0  0  0  0  0  0
   -0.7032    2.2076    2.6654 H   0  0  0  0  0  0  0  0  0  0  0  0
   -3.6880    2.8517    2.0260 H   0  0  0  0  0  0  0  0  0  0  0  0
   -2.2484    3.8752    1.5819 H   0  0  0  0  0  0  0  0  0  0  0  0
    1.5753   -0.3244    0.4741 H   0  0  0  0  0  0  0  0  0  0  0  0
  1 11  1  0  0  0  0
  1  2  1  0  0  0  0
  2 13  1  1  0  0  0
  2  3  1  0  0  0  0
  3  5  1  0  0  0  0
  3  4  1  0  0  0  0
  4 16  1  0  0  0  0
  4 15  1  0  0  0  0
  5 17  1  0  0  0  0
  5  4  1  0  0  0  0
  6  2  1  0  0  0  0
  6  8  1  0  0  0  0
  7  6  2  0  0  0  0
  8  9  2  0  0  0  0
 10  1  1  0  0  0  0
 12  1  1  0  0  0  0
 14  3  1  0  0  0  0
 18  5  1  0  0  0  0
 19  8  1  0  0  0  0
M TOR 0 0 1 2 3
M TOR 1 0 1 2 4
M TOR 2 0 1 2 13
M TOR 3 0 1 5 6
M TOR 4 0 1 5 7
M TOR 5 1 2 3 4
M TOR 6 1 2 3 14
M TOR 7 1 2 3 15
M TOR 8 1 2 4 16
M TOR 9 1 2 4 17
M TOR 10 1 5 7 8
M TOR 11 1 5 7 18
M TOR 12 2 1 0 9
M TOR 13 2 1 0 10
M TOR 14 2 1 0 11
M TOR 15 2 1 5 6
M TOR 16 2 1 5 7
M TOR 17 2 3 4 16
M TOR 18 2 3 4 17
M TOR 19 2 4 3 14
M TOR 20 2 4 3 15
M TOR 21 3 2 1 5
M TOR 22 3 2 1 12
M TOR 23 3 4 2 13
M TOR 24 4 2 1 5
M TOR 25 4 2 1 12
M TOR 26 5 1 0 9
M TOR 27 5 1 0 10
M TOR 28 5 1 0 11
M TOR 29 5 1 2 13
M TOR 30 6 5 1 12
M TOR 31 6 5 7 8
M TOR 32 6 5 7 18
M TOR 33 7 5 1 12
M  END
$$$$
