
     RDKit          3D

 19 20  0  0  0  0  0  0  0  0999 V2000
    0.2165   -1.0040    0.2515 O   0  0  0  0  0  0  0  0  0  0  0  0
    0.3745    0.1493   -0.0591 C   0  0  0  0  0  0  0  0  0  0  0  0
   -0.2805    0.8098   -1.2572 C   0  0  0  0  0  0  0  0  0  0  0  0
   -1.1366    1.9909   -0.8334 C   0  0  0  0  0  0  0  0  0  0  0  0
   -2.4594    1.7561   -0.0593 C   0  0  0  0  0  0  0  0  0  0  0  0
   -3.1694    2.7954   -0.9832 C   0  0  0  0  0  0  0  0  0  0  0  0
   -1.8516    3.0090   -1.7761 C   0  0  0  0  0  0  0  0  0  0  0  0
   -0.8936    4.0358   -1.1540 C   0  0  0  0  0  0  0  0  0  0  0  0
   -0.3477    3.0536   -0.2401 O   0  0  0  0  0  0  0  0  0  0  0  0
    1.0232    0.8256    0.5379 H   0  0  0  0  0  0  0  0  0  0  0  0
    0.5126    1.1753   -1.9231 H   0  0  0  0  0  0  0  0  0  0  0  0
   -0.8782    0.0626   -1.7871 H   0  0  0  0  0  0  0  0  0  0  0  0
   -2.8528    0.7409   -0.1572 H   0  0  0  0  0  0  0  0  0  0  0  0
   -2.3935    2.0098    1.0006 H   0  0  0  0  0  0  0  0  0  0  0  0
   -3.9708    2.3620   -1.5851 H   0  0  0  0  0  0  0  0  0  0  0  0
   -3.5592    3.6891   -0.4888 H   0  0  0  0  0  0  0  0  0  0  0  0
   -1.8815    2.9286   -2.8623 H   0  0  0  0  0  0  0  0  0  0  0  0
   -0.1203    4.4175   -1.8327 H   0  0  0  0  0  0  0  0  0  0  0  0
   -1.3549    4.8814   -0.6286 H   0  0  0  0  0  0  0  0  0  0  0  0
  1  2  2  0
  2  3  1  0
  3  4  1  0
  4  5  1  0
  5  6  1  0
  6  7  1  0
  7  8  1  0
  8  9  1  0
  7  4  1  0
  9  4  1  0
  2 10  1  0
  3 11  1  0
  3 12  1  0
  5 13  1  0
  5 14  1  0
  6 15  1  0
  6 16  1  0
  7 17  1  0
  8 18  1  0
  8 19  1  0
M  END
$$$$
