gdb 5339	4.0465387	1.0845588	1.0130681	1.822	77.32	-0.22427	0.00105	0.22532	1243.9058	0.155835	-422.519139	-422.510377	-422.509432	-422.552591	33.014
 OpenBabel02181911423D

 19 20  0  0  1  0  0  0  0  0999 V2000
    4.5814    0.3993   -2.3678 C   0  0  0  0  0  0  0  0  0  0  0  0
    3.2479    0.3849   -1.6758 C   0  0  2  0  0  0  0  0  0  0  0  0
    1.9312    1.0064   -2.2521 C   0  0  0  0  0  0  0  0  0  0  0  0
    1.6805    1.0406   -0.7210 C   0  0  2  0  0  0  0  0  0  0  0  0
    3.1070    1.3287   -0.5491 O   0  0  0  0  0  0  0  0  0  0  0  0
    1.6245   -0.4666   -0.3827 C   0  0  0  0  0  0  0  0  0  0  0  0
    0.6129   -1.1287    0.4799 C   0  0  0  0  0  0  0  0  0  0  0  0
   -0.6816   -0.7577    0.0093 O   0  0  0  0  0  0  0  0  0  0  0  0
    2.6955   -0.9135   -1.0407 C   0  0  0  0  0  0  0  0  0  0  0  0
    5.3747    0.0930   -1.6784 H   0  0  0  0  0  0  0  0  0  0  0  0
    4.5781   -0.2933   -3.2157 H   0  0  0  0  0  0  0  0  0  0  0  0
    4.8149    1.4009   -2.7381 H   0  0  0  0  0  0  0  0  0  0  0  0
    2.0929    2.0013   -2.6754 H   0  0  0  0  0  0  0  0  0  0  0  0
    1.2843    0.3885   -2.8778 H   0  0  0  0  0  0  0  0  0  0  0  0
    1.0060    1.7347   -0.2232 H   0  0  0  0  0  0  0  0  0  0  0  0
    0.7549   -2.2202    0.4606 H   0  0  0  0  0  0  0  0  0  0  0  0
    0.7504   -0.7999    1.5243 H   0  0  0  0  0  0  0  0  0  0  0  0
   -1.3269   -1.0411    0.6642 H   0  0  0  0  0  0  0  0  0  0  0  0
    3.1056   -1.9096   -1.1312 H   0  0  0  0  0  0  0  0  0  0  0  0
  1 10  1  0  0  0  0
  2  1  1  6  0  0  0
  2  9  1  0  0  0  0
  2  5  1  0  0  0  0
  3  2  1  0  0  0  0
  3  4  1  0  0  0  0
  4  5  1  0  0  0  0
  4  6  1  0  0  0  0
  4 15  1  1  0  0  0
  6  7  1  0  0  0  0
  7 17  1  0  0  0  0
  8  7  1  0  0  0  0
  8 18  1  0  0  0  0
  9  6  2  0  0  0  0
 11  1  1  0  0  0  0
 12  1  1  0  0  0  0
 13  3  1  0  0  0  0
 14  3  1  0  0  0  0
 16  7  1  0  0  0  0
 19  9  1  0  0  0  0
M TOR 0 0 1 2 3
M TOR 1 0 1 2 12
M TOR 2 0 1 2 13
M TOR 3 0 1 4 3
M TOR 4 0 1 8 5
M TOR 5 0 1 8 18
M TOR 6 1 2 3 4
M TOR 7 1 2 3 5
M TOR 8 1 2 3 14
M TOR 9 1 4 3 5
M TOR 10 1 4 3 14
M TOR 11 1 8 5 3
M TOR 12 1 8 5 6
M TOR 13 2 1 0 9
M TOR 14 2 1 0 10
M TOR 15 2 1 0 11
M TOR 16 2 1 8 5
M TOR 17 2 1 8 18
M TOR 18 2 3 5 6
M TOR 19 2 3 5 8
M TOR 20 3 2 1 8
M TOR 21 3 4 1 8
M TOR 22 3 5 6 7
M TOR 23 3 5 6 15
M TOR 24 3 5 6 16
M TOR 25 3 5 8 18
M TOR 26 4 1 0 9
M TOR 27 4 1 0 10
M TOR 28 4 1 0 11
M TOR 29 4 1 2 12
M TOR 30 4 1 2 13
M TOR 31 4 1 8 5
M TOR 32 4 1 8 18
M TOR 33 4 3 2 12
M TOR 34 4 3 2 13
M TOR 35 4 3 5 6
M TOR 36 4 3 5 8
M TOR 37 5 3 2 12
M TOR 38 5 3 2 13
M TOR 39 5 6 7 17
M TOR 40 6 5 3 14
M TOR 41 6 5 8 18
M TOR 42 7 6 5 8
M TOR 43 8 1 0 9
M TOR 44 8 1 0 10
M TOR 45 8 1 0 11
M TOR 46 8 1 2 12
M TOR 47 8 1 2 13
M TOR 48 8 5 3 14
M TOR 49 8 5 6 15
M TOR 50 8 5 6 16
M  END
$$$$
