
     RDKit          3D

 19 20  0  0  0  0  0  0  0  0999 V2000
    1.2751    0.8506   -0.0277 C   0  0  0  0  0  0  0  0  0  0  0  0
   -0.0128    0.0923    0.1062 C   0  0  0  0  0  0  0  0  0  0  0  0
   -0.0952   -1.2367    0.1972 C   0  0  0  0  0  0  0  0  0  0  0  0
   -1.4034   -1.9044    0.3926 C   0  0  0  0  0  0  0  0  0  0  0  0
   -2.3272   -2.2032   -0.7683 C   0  0  0  0  0  0  0  0  0  0  0  0
   -3.0638   -3.3833   -0.6677 O   0  0  0  0  0  0  0  0  0  0  0  0
   -2.6257   -1.0504    0.1591 C   0  0  0  0  0  0  0  0  0  0  0  0
   -2.4295    0.2353   -0.3508 O   0  0  0  0  0  0  0  0  0  0  0  0
   -1.2857    0.9132    0.1556 C   0  0  0  0  0  0  0  0  0  0  0  0
    1.3885    1.5866    0.7792 H   0  0  0  0  0  0  0  0  0  0  0  0
    2.1382    0.1805    0.0053 H   0  0  0  0  0  0  0  0  0  0  0  0
    1.3121    1.4140   -0.9692 H   0  0  0  0  0  0  0  0  0  0  0  0
    0.7983   -1.8546    0.1490 H   0  0  0  0  0  0  0  0  0  0  0  0
   -1.4714   -2.6259    1.2025 H   0  0  0  0  0  0  0  0  0  0  0  0
   -1.9731   -1.9288   -1.7619 H   0  0  0  0  0  0  0  0  0  0  0  0
   -3.9217   -3.2336   -1.0802 H   0  0  0  0  0  0  0  0  0  0  0  0
   -3.4716   -1.1506    0.8380 H   0  0  0  0  0  0  0  0  0  0  0  0
   -1.1828    1.8096   -0.4658 H   0  0  0  0  0  0  0  0  0  0  0  0
   -1.4660    1.2586    1.1885 H   0  0  0  0  0  0  0  0  0  0  0  0
  1  2  1  0
  2  3  2  0
  3  4  1  0
  4  5  1  0
  5  6  1  0
  5  7  1  0
  7  8  1  0
  8  9  1  0
  9  2  1  0
  7  4  1  0
  1 10  1  0
  1 11  1  0
  1 12  1  0
  3 13  1  0
  4 14  1  0
  5 15  1  0
  6 16  1  0
  7 17  1  0
  9 18  1  0
  9 19  1  0
M  END
$$$$
