
     RDKit          3D

 19 21  0  0  0  0  0  0  0  0999 V2000
   -0.7456    0.5968   -0.9228 C   0  0  0  0  0  0  0  0  0  0  0  0
   -1.1193   -0.2106    0.2992 C   0  0  0  0  0  0  0  0  0  0  0  0
   -0.8862   -1.5909    0.3981 O   0  0  0  0  0  0  0  0  0  0  0  0
    0.4616   -1.9757    0.2259 C   0  0  0  0  0  0  0  0  0  0  0  0
    1.3454   -1.2653    1.0458 O   0  0  0  0  0  0  0  0  0  0  0  0
    1.4075    0.0997    0.6573 C   0  0  0  0  0  0  0  0  0  0  0  0
    1.5553    1.0877    1.8404 C   0  0  0  0  0  0  0  0  0  0  0  0
    0.3178    1.8851    1.3185 C   0  0  0  0  0  0  0  0  0  0  0  0
    0.0419    0.7274    0.3570 C   0  0  0  0  0  0  0  0  0  0  0  0
   -0.2696    0.1064   -1.7668 H   0  0  0  0  0  0  0  0  0  0  0  0
   -1.4188    1.4032   -1.1971 H   0  0  0  0  0  0  0  0  0  0  0  0
   -2.0417    0.0426    0.8122 H   0  0  0  0  0  0  0  0  0  0  0  0
    0.5130   -3.0249    0.5220 H   0  0  0  0  0  0  0  0  0  0  0  0
    0.7555   -1.8741   -0.8348 H   0  0  0  0  0  0  0  0  0  0  0  0
    2.1577    0.2303   -0.1365 H   0  0  0  0  0  0  0  0  0  0  0  0
    1.3606    0.5741    2.7834 H   0  0  0  0  0  0  0  0  0  0  0  0
    2.5002    1.6289    1.9104 H   0  0  0  0  0  0  0  0  0  0  0  0
   -0.4600    2.1154    2.0512 H   0  0  0  0  0  0  0  0  0  0  0  0
    0.5927    2.8094    0.8015 H   0  0  0  0  0  0  0  0  0  0  0  0
  1  2  1  0
  2  3  1  0
  3  4  1  0
  4  5  1  0
  5  6  1  0
  6  7  1  0
  7  8  1  0
  8  9  1  0
  9  1  1  0
  9  2  1  0
  9  6  1  0
  1 10  1  0
  1 11  1  0
  2 12  1  0
  4 13  1  0
  4 14  1  0
  6 15  1  0
  7 16  1  0
  7 17  1  0
  8 18  1  0
  8 19  1  0
M  END
$$$$
