
     RDKit          3D

 19 19  0  0  0  0  0  0  0  0999 V2000
    0.3474   -0.8126    0.0893 C   0  0  0  0  0  0  0  0  0  0  0  0
    0.8150    0.5952    0.4124 C   0  0  0  0  0  0  0  0  0  0  0  0
    1.6260    1.0517   -0.6629 O   0  0  0  0  0  0  0  0  0  0  0  0
    2.1112    2.3327   -0.4785 C   0  0  0  0  0  0  0  0  0  0  0  0
    3.3481    2.5620    0.3595 C   0  0  0  0  0  0  0  0  0  0  0  0
    3.3946    2.7000   -1.1655 C   0  0  0  0  0  0  0  0  0  0  0  0
    3.3926    3.9996   -1.6950 O   0  0  0  0  0  0  0  0  0  0  0  0
    4.1192    1.7170   -1.9268 C   0  0  0  0  0  0  0  0  0  0  0  0
    4.7708    0.9457   -2.5797 C   0  0  0  0  0  0  0  0  0  0  0  0
   -0.2840   -1.1972    0.8957 H   0  0  0  0  0  0  0  0  0  0  0  0
   -0.2294   -0.8217   -0.8396 H   0  0  0  0  0  0  0  0  0  0  0  0
    1.2034   -1.4821   -0.0329 H   0  0  0  0  0  0  0  0  0  0  0  0
   -0.0450    1.2713    0.5449 H   0  0  0  0  0  0  0  0  0  0  0  0
    1.3904    0.6136    1.3508 H   0  0  0  0  0  0  0  0  0  0  0  0
    1.3609    3.1249   -0.4721 H   0  0  0  0  0  0  0  0  0  0  0  0
    3.4200    3.4820    0.9286 H   0  0  0  0  0  0  0  0  0  0  0  0
    3.8321    1.6909    0.7856 H   0  0  0  0  0  0  0  0  0  0  0  0
    4.3083    4.2995   -1.7290 H   0  0  0  0  0  0  0  0  0  0  0  0
    5.3238    0.2515   -3.1625 H   0  0  0  0  0  0  0  0  0  0  0  0
  1  2  1  0
  2  3  1  0
  3  4  1  0
  4  5  1  0
  5  6  1  0
  6  7  1  0
  6  8  1  0
  8  9  3  0
  6  4  1  0
  1 10  1  0
  1 11  1  0
  1 12  1  0
  2 13  1  0
  2 14  1  0
  4 15  1  0
  5 16  1  0
  5 17  1  0
  7 18  1  0
  9 19  1  0
M  END
$$$$
