
     RDKit          3D

 19 21  0  0  0  0  0  0  0  0999 V2000
    1.3222   -0.1395   -0.0339 C   0  0  0  0  0  0  0  0  0  0  0  0
   -0.0666   -0.0316    0.2181 O   0  0  0  0  0  0  0  0  0  0  0  0
   -0.3757    0.6837    1.3559 C   0  0  0  0  0  0  0  0  0  0  0  0
   -0.0368    0.1709    2.7907 C   0  0  0  0  0  0  0  0  0  0  0  0
   -1.2984    0.9183    3.2226 C   0  0  0  0  0  0  0  0  0  0  0  0
   -1.3804    2.2277    2.3746 C   0  0  0  0  0  0  0  0  0  0  0  0
   -0.1672    2.2282    1.4471 C   0  0  0  0  0  0  0  0  0  0  0  0
   -1.8813    0.9057    1.8481 C   0  0  0  0  0  0  0  0  0  0  0  0
   -3.0916    0.4294    1.4268 O   0  0  0  0  0  0  0  0  0  0  0  0
    1.8447   -0.6526    0.7859 H   0  0  0  0  0  0  0  0  0  0  0  0
    1.4369   -0.7255   -0.9483 H   0  0  0  0  0  0  0  0  0  0  0  0
    1.7872    0.8458   -0.1815 H   0  0  0  0  0  0  0  0  0  0  0  0
   -0.1732   -0.9116    2.8626 H   0  0  0  0  0  0  0  0  0  0  0  0
    0.9256    0.4627    3.2260 H   0  0  0  0  0  0  0  0  0  0  0  0
   -1.8312    0.8499    4.1616 H   0  0  0  0  0  0  0  0  0  0  0  0
   -1.9539    3.0710    2.7362 H   0  0  0  0  0  0  0  0  0  0  0  0
   -0.3875    2.7131    0.4915 H   0  0  0  0  0  0  0  0  0  0  0  0
    0.7906    2.5880    1.8394 H   0  0  0  0  0  0  0  0  0  0  0  0
   -3.3048    0.8404    0.5810 H   0  0  0  0  0  0  0  0  0  0  0  0
  1  2  1  0
  2  3  1  0
  3  4  1  0
  4  5  1  0
  5  6  1  0
  6  7  1  0
  6  8  1  0
  8  9  1  0
  7  3  1  0
  8  3  1  0
  8  5  1  0
  1 10  1  0
  1 11  1  0
  1 12  1  0
  4 13  1  0
  4 14  1  0
  5 15  1  0
  6 16  1  0
  7 17  1  0
  7 18  1  0
  9 19  1  0
M  END
$$$$
