gdb 2435	2.6334874	2.0012963	1.4982175	1.5955	73.54	-0.21958	0.07494	0.29452	934.8124	0.158884	-422.54163	-422.534457	-422.533512	-422.572716	29.036
 OpenBabel02181911413D

 19 21  0  0  1  0  0  0  0  0999 V2000
    0.0059   -0.2899   -0.2209 C   0  0  0  0  0  0  0  0  0  0  0  0
    1.4940   -0.0820   -0.0856 C   0  0  2  0  0  0  0  0  0  0  0  0
    2.3285   -1.1537    0.6108 C   0  0  0  0  0  0  0  0  0  0  0  0
    3.6558   -0.5998    0.5052 O   0  0  0  0  0  0  0  0  0  0  0  0
    3.4101    0.6172   -0.1793 C   0  0  2  0  0  0  0  0  0  0  0  0
    2.1371    1.2571    0.4603 C   0  0  1  0  0  0  0  0  0  0  0  0
    1.7222    2.2973   -0.5695 C   0  0  0  0  0  0  0  0  0  0  0  0
    1.9094    1.5501   -1.7947 O   0  0  0  0  0  0  0  0  0  0  0  0
    2.3953    0.3057   -1.3125 C   0  0  2  0  0  0  0  0  0  0  0  0
   -0.4917   -0.2767    0.7553 H   0  0  0  0  0  0  0  0  0  0  0  0
   -0.4429    0.4882   -0.8447 H   0  0  0  0  0  0  0  0  0  0  0  0
   -0.2124   -1.2555   -0.6910 H   0  0  0  0  0  0  0  0  0  0  0  0
    2.0622   -1.2970    1.6662 H   0  0  0  0  0  0  0  0  0  0  0  0
    2.2835   -2.1268    0.1047 H   0  0  0  0  0  0  0  0  0  0  0  0
    4.3356    1.1670   -0.3442 H   0  0  0  0  0  0  0  0  0  0  0  0
    2.1031    1.5205    1.5178 H   0  0  0  0  0  0  0  0  0  0  0  0
    0.6775    2.6191   -0.4825 H   0  0  0  0  0  0  0  0  0  0  0  0
    2.3628    3.1877   -0.5714 H   0  0  0  0  0  0  0  0  0  0  0  0
    2.6080   -0.3735   -2.1376 H   0  0  0  0  0  0  0  0  0  0  0  0
  1 10  1  0  0  0  0
  2  1  1  6  0  0  0
  2  6  1  0  0  0  0
  2  3  1  0  0  0  0
  3 13  1  0  0  0  0
  4  3  1  0  0  0  0
  5 15  1  6  0  0  0
  5  6  1  0  0  0  0
  5  4  1  0  0  0  0
  6 16  1  1  0  0  0
  7 17  1  0  0  0  0
  7  6  1  0  0  0  0
  8  9  1  0  0  0  0
  8  7  1  0  0  0  0
  9 19  1  6  0  0  0
  9  5  1  0  0  0  0
  9  2  1  0  0  0  0
 11  1  1  0  0  0  0
 12  1  1  0  0  0  0
 14  3  1  0  0  0  0
 18  7  1  0  0  0  0
M TOR 0 0 1 2 3
M TOR 1 0 1 2 12
M TOR 2 0 1 2 13
M TOR 3 0 1 5 4
M TOR 4 0 1 5 6
M TOR 5 0 1 5 15
M TOR 6 0 1 8 4
M TOR 7 0 1 8 7
M TOR 8 0 1 8 18
M TOR 9 1 2 3 4
M TOR 10 1 5 4 3
M TOR 11 1 5 4 8
M TOR 12 1 5 4 14
M TOR 13 1 5 6 7
M TOR 14 1 5 6 16
M TOR 15 1 5 6 17
M TOR 16 1 8 4 3
M TOR 17 1 8 4 14
M TOR 18 1 8 7 6
M TOR 19 2 1 0 9
M TOR 20 2 1 0 10
M TOR 21 2 1 0 11
M TOR 22 2 1 5 4
M TOR 23 2 1 5 6
M TOR 24 2 1 5 15
M TOR 25 2 1 8 4
M TOR 26 2 1 8 7
M TOR 27 2 1 8 18
M TOR 28 2 3 4 5
M TOR 29 2 3 4 8
M TOR 30 2 3 4 14
M TOR 31 3 2 1 5
M TOR 32 3 2 1 8
M TOR 33 3 4 5 6
M TOR 34 3 4 5 15
M TOR 35 3 4 8 7
M TOR 36 3 4 8 18
M TOR 37 4 3 2 12
M TOR 38 4 3 2 13
M TOR 39 4 5 6 7
M TOR 40 4 5 6 16
M TOR 41 4 5 6 17
M TOR 42 4 8 7 6
M TOR 43 5 1 0 9
M TOR 44 5 1 0 10
M TOR 45 5 1 0 11
M TOR 46 5 1 2 12
M TOR 47 5 1 2 13
M TOR 48 5 1 8 7
M TOR 49 5 1 8 18
M TOR 50 5 4 8 7
M TOR 51 5 4 8 18
M TOR 52 5 6 7 8
M TOR 53 6 5 1 8
M TOR 54 6 5 4 8
M TOR 55 6 5 4 14
M TOR 56 6 7 8 18
M TOR 57 7 6 5 15
M TOR 58 7 8 4 14
M TOR 59 8 1 0 9
M TOR 60 8 1 0 10
M TOR 61 8 1 0 11
M TOR 62 8 1 2 12
M TOR 63 8 1 2 13
M TOR 64 8 1 5 15
M TOR 65 8 4 5 15
M TOR 66 8 7 6 16
M TOR 67 8 7 6 17
M  END
$$$$
