
     RDKit          3D

 19 21  0  0  0  0  0  0  0  0999 V2000
    0.7010    0.6847   -0.0630 C   0  0  0  0  0  0  0  0  0  0  0  0
    0.9396   -0.8054    0.1466 C   0  0  0  0  0  0  0  0  0  0  0  0
    1.7201   -1.4958   -1.0287 C   0  0  0  0  0  0  0  0  0  0  0  0
    1.3962   -2.9880   -1.0788 C   0  0  0  0  0  0  0  0  0  0  0  0
    1.7517   -3.4735    0.2247 O   0  0  0  0  0  0  0  0  0  0  0  0
    2.6346   -2.5236    0.7832 C   0  0  0  0  0  0  0  0  0  0  0  0
    3.0200   -1.4438   -0.1764 C   0  0  0  0  0  0  0  0  0  0  0  0
    2.1534   -1.1049    1.0338 C   0  0  0  0  0  0  0  0  0  0  0  0
    2.5369   -0.3652    2.1384 O   0  0  0  0  0  0  0  0  0  0  0  0
    0.3712    1.1632    0.8643 H   0  0  0  0  0  0  0  0  0  0  0  0
    1.6193    1.1887   -0.3834 H   0  0  0  0  0  0  0  0  0  0  0  0
   -0.0667    0.8535   -0.8254 H   0  0  0  0  0  0  0  0  0  0  0  0
    0.0059   -1.3072    0.4332 H   0  0  0  0  0  0  0  0  0  0  0  0
    1.7011   -0.9806   -1.9890 H   0  0  0  0  0  0  0  0  0  0  0  0
    0.3336   -3.1952   -1.2430 H   0  0  0  0  0  0  0  0  0  0  0  0
    1.9828   -3.5076   -1.8514 H   0  0  0  0  0  0  0  0  0  0  0  0
    3.3554   -2.9424    1.4758 H   0  0  0  0  0  0  0  0  0  0  0  0
    4.0206   -1.1565   -0.4692 H   0  0  0  0  0  0  0  0  0  0  0  0
    2.1014   -0.7337    2.9155 H   0  0  0  0  0  0  0  0  0  0  0  0
  1  2  1  0
  2  3  1  0
  3  4  1  0
  4  5  1  0
  5  6  1  0
  6  7  1  0
  7  8  1  0
  8  9  1  0
  8  2  1  0
  7  3  1  0
  8  6  1  0
  1 10  1  0
  1 11  1  0
  1 12  1  0
  2 13  1  0
  3 14  1  0
  4 15  1  0
  4 16  1  0
  6 17  1  0
  7 18  1  0
  9 19  1  0
M  END
$$$$
