
     RDKit          3D

 19 20  0  0  0  0  0  0  0  0999 V2000
   -0.1524    0.0441   -0.1426 C   0  0  0  0  0  0  0  0  0  0  0  0
    1.3811    0.1098   -0.0311 C   0  0  0  0  0  0  0  0  0  0  0  0
    1.9397   -0.6985    1.1632 C   0  0  0  0  0  0  0  0  0  0  0  0
    3.1071   -0.0209    1.6259 O   0  0  0  0  0  0  0  0  0  0  0  0
    3.0097    1.3281    1.2601 C   0  0  0  0  0  0  0  0  0  0  0  0
    1.7591    2.0865    1.6209 C   0  0  0  0  0  0  0  0  0  0  0  0
    1.9391    1.5105    0.2242 C   0  0  0  0  0  0  0  0  0  0  0  0
    1.9537   -0.3888   -1.3578 C   0  0  0  0  0  0  0  0  0  0  0  0
    2.5069   -1.4421   -1.5300 O   0  0  0  0  0  0  0  0  0  0  0  0
   -0.6156    0.5209    0.7258 H   0  0  0  0  0  0  0  0  0  0  0  0
   -0.5083    0.5644   -1.0384 H   0  0  0  0  0  0  0  0  0  0  0  0
   -0.5001   -0.9927   -0.1967 H   0  0  0  0  0  0  0  0  0  0  0  0
    1.1888   -0.7632    1.9626 H   0  0  0  0  0  0  0  0  0  0  0  0
    2.2278   -1.7093    0.8663 H   0  0  0  0  0  0  0  0  0  0  0  0
    3.9764    1.8164    1.2346 H   0  0  0  0  0  0  0  0  0  0  0  0
    1.0452    1.6312    2.2990 H   0  0  0  0  0  0  0  0  0  0  0  0
    1.8391    3.1640    1.7164 H   0  0  0  0  0  0  0  0  0  0  0  0
    2.0489    2.1863   -0.6174 H   0  0  0  0  0  0  0  0  0  0  0  0
    1.7890    0.3156   -2.2075 H   0  0  0  0  0  0  0  0  0  0  0  0
  1  2  1  0
  2  3  1  0
  3  4  1  0
  4  5  1  0
  5  6  1  0
  6  7  1  0
  2  8  1  0
  8  9  2  0
  7  2  1  0
  7  5  1  0
  1 10  1  0
  1 11  1  0
  1 12  1  0
  3 13  1  0
  3 14  1  0
  5 15  1  0
  6 16  1  0
  6 17  1  0
  7 18  1  0
  8 19  1  0
M  END
$$$$
