gdb 4461	2.9260694	1.6658265	1.3296732	2.3853	74.79	-0.2467	0.06532	0.31202	1021.6854	0.157243	-422.514003	-422.506173	-422.505228	-422.545926	30.634
 OpenBabel02181911413D

 19 21  0  0  1  0  0  0  0  0999 V2000
    0.1074    0.1596    0.2548 C   0  0  0  0  0  0  0  0  0  0  0  0
    1.4695   -0.3462   -0.1949 C   0  0  1  0  0  0  0  0  0  0  0  0
    1.6363    0.0082   -1.5849 O   0  0  0  0  0  0  0  0  0  0  0  0
    3.0104    0.2629   -1.8983 C   0  0  0  0  0  0  0  0  0  0  0  0
    3.6288    0.6449   -0.5809 C   0  0  2  0  0  0  0  0  0  0  0  0
    4.8359    0.2031    0.2726 C   0  0  0  0  0  0  0  0  0  0  0  0
    3.8188   -0.2084    1.3994 C   0  0  0  0  0  0  0  0  0  0  0  0
    2.6807    0.2626    0.4698 C   0  0  2  0  0  0  0  0  0  0  0  0
    2.9007    1.6375    0.1462 O   0  0  0  0  0  0  0  0  0  0  0  0
   -0.0919   -0.1472    1.2863 H   0  0  0  0  0  0  0  0  0  0  0  0
    0.0813    1.2501    0.1957 H   0  0  0  0  0  0  0  0  0  0  0  0
   -0.6791   -0.2475   -0.3858 H   0  0  0  0  0  0  0  0  0  0  0  0
    1.5279   -1.4413   -0.0745 H   0  0  0  0  0  0  0  0  0  0  0  0
    3.5135   -0.6336   -2.2948 H   0  0  0  0  0  0  0  0  0  0  0  0
    3.0253    1.0407   -2.6681 H   0  0  0  0  0  0  0  0  0  0  0  0
    5.3657   -0.6545   -0.1476 H   0  0  0  0  0  0  0  0  0  0  0  0
    5.5516    0.9931    0.5077 H   0  0  0  0  0  0  0  0  0  0  0  0
    3.8058   -1.2859    1.5776 H   0  0  0  0  0  0  0  0  0  0  0  0
    3.8876    0.3170    2.3538 H   0  0  0  0  0  0  0  0  0  0  0  0
  1 10  1  0  0  0  0
  2 13  1  1  0  0  0
  2  1  1  0  0  0  0
  2  8  1  0  0  0  0
  3  2  1  0  0  0  0
  4  3  1  0  0  0  0
  4  5  1  0  0  0  0
  5  9  1  1  0  0  0
  5  6  1  0  0  0  0
  5  8  1  0  0  0  0
  6 17  1  0  0  0  0
  6  7  1  0  0  0  0
  7 18  1  0  0  0  0
  7 19  1  0  0  0  0
  8  9  1  1  0  0  0
  8  7  1  0  0  0  0
 11  1  1  0  0  0  0
 12  1  1  0  0  0  0
 14  4  1  0  0  0  0
 15  4  1  0  0  0  0
 16  6  1  0  0  0  0
M TOR 0 0 1 2 3
M TOR 1 0 1 7 4
M TOR 2 0 1 7 6
M TOR 3 0 1 7 8
M TOR 4 1 2 3 4
M TOR 5 1 2 3 13
M TOR 6 1 2 3 14
M TOR 7 1 7 4 3
M TOR 8 1 7 4 5
M TOR 9 1 7 4 8
M TOR 10 1 7 6 5
M TOR 11 1 7 6 17
M TOR 12 1 7 6 18
M TOR 13 2 1 0 9
M TOR 14 2 1 0 10
M TOR 15 2 1 0 11
M TOR 16 2 1 7 4
M TOR 17 2 1 7 6
M TOR 18 2 1 7 8
M TOR 19 2 3 4 5
M TOR 20 2 3 4 7
M TOR 21 2 3 4 8
M TOR 22 3 2 1 7
M TOR 23 3 2 1 12
M TOR 24 3 4 5 6
M TOR 25 3 4 5 15
M TOR 26 3 4 5 16
M TOR 27 3 4 7 6
M TOR 28 3 4 7 8
M TOR 29 4 5 6 7
M TOR 30 4 5 6 17
M TOR 31 4 5 6 18
M TOR 32 4 7 1 12
M TOR 33 4 7 6 17
M TOR 34 4 7 6 18
M TOR 35 4 8 7 6
M TOR 36 5 4 3 13
M TOR 37 5 4 3 14
M TOR 38 5 4 7 8
M TOR 39 5 6 7 8
M TOR 40 6 5 4 8
M TOR 41 6 7 1 12
M TOR 42 7 1 0 9
M TOR 43 7 1 0 10
M TOR 44 7 1 0 11
M TOR 45 7 4 3 13
M TOR 46 7 4 3 14
M TOR 47 7 4 5 15
M TOR 48 7 4 5 16
M TOR 49 7 6 5 15
M TOR 50 7 6 5 16
M TOR 51 8 4 3 13
M TOR 52 8 4 3 14
M TOR 53 8 4 5 15
M TOR 54 8 4 5 16
M TOR 55 8 7 1 12
M TOR 56 8 7 6 17
M TOR 57 8 7 6 18
M  END
$$$$
