gdb 667	2.5006701	1.7625794	1.5708385	4.2994	73.27	-0.25831	0.01579	0.2741	957.9358	0.161242	-422.629584	-422.622605	-422.62166	-422.660712	28.281
 OpenBabel02181911403D

 19 20  0  0  1  0  0  0  0  0999 V2000
    1.1800    0.0258    0.2448 O   0  0  0  0  0  0  0  0  0  0  0  0
   -0.0082   -0.0407    0.1279 C   0  0  0  0  0  0  0  0  0  0  0  0
   -0.8128    1.0667    0.1512 O   0  0  0  0  0  0  0  0  0  0  0  0
   -2.2002    0.6539    0.0266 C   0  0  1  0  0  0  0  0  0  0  0  0
   -2.1005   -0.6556   -0.7673 C   0  0  0  0  0  0  0  0  0  0  0  0
   -0.9038   -1.2720   -0.0327 C   0  0  2  0  0  0  0  0  0  0  0  0
   -1.3564   -1.7482    1.3700 C   0  0  0  0  0  0  0  0  0  0  0  0
   -1.8942   -0.5766    2.2208 C   0  0  0  0  0  0  0  0  0  0  0  0
   -2.7872    0.3964    1.4209 C   0  0  0  0  0  0  0  0  0  0  0  0
   -2.7215    1.4581   -0.4956 H   0  0  0  0  0  0  0  0  0  0  0  0
   -3.0105   -1.2580   -0.7119 H   0  0  0  0  0  0  0  0  0  0  0  0
   -1.8722   -0.4574   -1.8187 H   0  0  0  0  0  0  0  0  0  0  0  0
   -0.3792   -2.0606   -0.5724 H   0  0  0  0  0  0  0  0  0  0  0  0
   -2.1313   -2.5116    1.2307 H   0  0  0  0  0  0  0  0  0  0  0  0
   -0.5224   -2.2283    1.8909 H   0  0  0  0  0  0  0  0  0  0  0  0
   -2.4375   -0.9597    3.0898 H   0  0  0  0  0  0  0  0  0  0  0  0
   -1.0424   -0.0137    2.6173 H   0  0  0  0  0  0  0  0  0  0  0  0
   -3.7976   -0.0108    1.2915 H   0  0  0  0  0  0  0  0  0  0  0  0
   -2.8905    1.3396    1.9663 H   0  0  0  0  0  0  0  0  0  0  0  0
  2  3  1  0  0  0  0
  2  1  2  0  0  0  0
  4 10  1  6  0  0  0
  4  3  1  0  0  0  0
  4  9  1  0  0  0  0
  5 11  1  0  0  0  0
  5  6  1  0  0  0  0
  5  4  1  0  0  0  0
  6 13  1  6  0  0  0
  6  2  1  0  0  0  0
  6  7  1  0  0  0  0
  7 15  1  0  0  0  0
  7  8  1  0  0  0  0
  8 17  1  0  0  0  0
  8 16  1  0  0  0  0
  9 19  1  0  0  0  0
  9  8  1  0  0  0  0
 12  5  1  0  0  0  0
 14  7  1  0  0  0  0
 18  9  1  0  0  0  0
M TOR 0 0 1 2 3
M TOR 1 0 1 5 4
M TOR 2 0 1 5 6
M TOR 3 0 1 5 12
M TOR 4 1 2 3 4
M TOR 5 1 2 3 8
M TOR 6 1 2 3 9
M TOR 7 1 5 4 3
M TOR 8 1 5 4 10
M TOR 9 1 5 4 11
M TOR 10 1 5 6 7
M TOR 11 1 5 6 13
M TOR 12 1 5 6 14
M TOR 13 2 1 5 4
M TOR 14 2 1 5 6
M TOR 15 2 1 5 12
M TOR 16 2 3 4 5
M TOR 17 2 3 4 10
M TOR 18 2 3 4 11
M TOR 19 2 3 8 7
M TOR 20 2 3 8 17
M TOR 21 2 3 8 18
M TOR 22 3 2 1 5
M TOR 23 3 4 5 6
M TOR 24 3 4 5 12
M TOR 25 3 8 7 6
M TOR 26 3 8 7 15
M TOR 27 3 8 7 16
M TOR 28 4 3 8 7
M TOR 29 4 3 8 17
M TOR 30 4 3 8 18
M TOR 31 4 5 6 7
M TOR 32 4 5 6 13
M TOR 33 4 5 6 14
M TOR 34 5 4 3 8
M TOR 35 5 4 3 9
M TOR 36 5 6 7 8
M TOR 37 5 6 7 15
M TOR 38 5 6 7 16
M TOR 39 6 5 4 10
M TOR 40 6 5 4 11
M TOR 41 6 7 8 17
M TOR 42 6 7 8 18
M TOR 43 7 6 5 12
M TOR 44 7 8 3 9
M TOR 45 8 3 4 10
M TOR 46 8 3 4 11
M TOR 47 8 7 6 13
M TOR 48 8 7 6 14
M  END
$$$$
