gdb 2919	2.2526668	1.8187994	1.3945195	1.61	74.52	-0.22663	0.0758	0.30243	1014.423	0.15738	-422.530755	-422.52273	-422.521786	-422.562871	31.303
 OpenBabel02181911413D

 19 21  0  0  1  0  0  0  0  0999 V2000
   -2.8799    2.5995    1.8286 C   0  0  0  0  0  0  0  0  0  0  0  0
   -2.4623    1.1880    1.5528 C   0  0  2  0  0  0  0  0  0  0  0  0
   -3.3001    0.0147    1.1946 C   0  0  2  0  0  0  0  0  0  0  0  0
   -3.1219   -1.0972    2.0489 O   0  0  0  0  0  0  0  0  0  0  0  0
   -2.0486   -0.7570    2.9378 C   0  0  0  0  0  0  0  0  0  0  0  0
   -1.3101    0.3704    2.2216 C   0  0  1  0  0  0  0  0  0  0  0  0
   -0.8575   -0.0906    0.7946 C   0  0  2  0  0  0  0  0  0  0  0  0
    0.1902    0.6931    0.2563 O   0  0  0  0  0  0  0  0  0  0  0  0
   -2.1801    0.4174    0.2484 C   0  0  2  0  0  0  0  0  0  0  0  0
   -3.2175    2.7211    2.8650 H   0  0  0  0  0  0  0  0  0  0  0  0
   -2.0541    3.2993    1.6595 H   0  0  0  0  0  0  0  0  0  0  0  0
   -3.7068    2.8980    1.1757 H   0  0  0  0  0  0  0  0  0  0  0  0
   -4.3215    0.1300    0.8506 H   0  0  0  0  0  0  0  0  0  0  0  0
   -2.4466   -0.4321    3.9115 H   0  0  0  0  0  0  0  0  0  0  0  0
   -1.4355   -1.6522    3.0908 H   0  0  0  0  0  0  0  0  0  0  0  0
   -0.5582    0.8997    2.8073 H   0  0  0  0  0  0  0  0  0  0  0  0
   -0.6450   -1.1650    0.6826 H   0  0  0  0  0  0  0  0  0  0  0  0
    1.0113    0.4147    0.6751 H   0  0  0  0  0  0  0  0  0  0  0  0
   -2.3579    0.7099   -0.7810 H   0  0  0  0  0  0  0  0  0  0  0  0
  1 10  1  0  0  0  0
  2  1  1  1  0  0  0
  2  6  1  0  0  0  0
  3 13  1  6  0  0  0
  3  2  1  0  0  0  0
  3  4  1  0  0  0  0
  4  5  1  0  0  0  0
  5 15  1  0  0  0  0
  5 14  1  0  0  0  0
  6 16  1  1  0  0  0
  6  5  1  0  0  0  0
  7 17  1  6  0  0  0
  7  6  1  0  0  0  0
  8 18  1  0  0  0  0
  8  7  1  0  0  0  0
  9 19  1  6  0  0  0
  9  7  1  0  0  0  0
  9  3  1  0  0  0  0
  9  2  1  0  0  0  0
 11  1  1  0  0  0  0
 12  1  1  0  0  0  0
M TOR 0 0 1 2 3
M TOR 1 0 1 2 8
M TOR 2 0 1 2 12
M TOR 3 0 1 5 4
M TOR 4 0 1 5 6
M TOR 5 0 1 5 15
M TOR 6 0 1 8 6
M TOR 7 0 1 8 18
M TOR 8 1 2 3 4
M TOR 9 1 2 8 6
M TOR 10 1 2 8 18
M TOR 11 1 5 4 3
M TOR 12 1 5 4 13
M TOR 13 1 5 4 14
M TOR 14 1 5 6 7
M TOR 15 1 5 6 8
M TOR 16 1 5 6 16
M TOR 17 1 8 2 3
M TOR 18 1 8 2 12
M TOR 19 1 8 6 7
M TOR 20 1 8 6 16
M TOR 21 2 1 0 9
M TOR 22 2 1 0 10
M TOR 23 2 1 0 11
M TOR 24 2 1 5 4
M TOR 25 2 1 5 6
M TOR 26 2 1 5 15
M TOR 27 2 3 4 5
M TOR 28 2 3 4 13
M TOR 29 2 3 4 14
M TOR 30 2 8 1 5
M TOR 31 2 8 6 5
M TOR 32 2 8 6 7
M TOR 33 2 8 6 16
M TOR 34 3 2 1 5
M TOR 35 3 2 8 6
M TOR 36 3 2 8 18
M TOR 37 3 4 5 6
M TOR 38 3 4 5 15
M TOR 39 4 3 2 8
M TOR 40 4 3 2 12
M TOR 41 4 5 1 8
M TOR 42 4 5 6 7
M TOR 43 4 5 6 8
M TOR 44 4 5 6 16
M TOR 45 5 1 0 9
M TOR 46 5 1 0 10
M TOR 47 5 1 0 11
M TOR 48 5 1 2 12
M TOR 49 5 1 8 18
M TOR 50 5 6 7 17
M TOR 51 5 6 8 18
M TOR 52 6 5 4 13
M TOR 53 6 5 4 14
M TOR 54 6 8 2 12
M TOR 55 7 6 5 15
M TOR 56 7 6 8 18
M TOR 57 8 1 0 9
M TOR 58 8 1 0 10
M TOR 59 8 1 0 11
M TOR 60 8 1 5 15
M TOR 61 8 6 5 15
M TOR 62 8 6 7 17
M  END
$$$$
