gdb 2414	2.5339916	1.7807166	1.3014453	0.471	76.58	-0.23274	0.01264	0.24538000000000001	1017.0343	0.157337	-422.548795	-422.540718	-422.539773	-422.581048	31.633
 OpenBabel02181911413D

 19 20  0  0  1  0  0  0  0  0999 V2000
    0.4749    0.5257    0.9954 O   0  0  0  0  0  0  0  0  0  0  0  0
   -0.7602    1.0180    0.4920 C   0  0  1  0  0  0  0  0  0  0  0  0
   -1.8183   -0.1135    0.2597 C   0  0  0  0  0  0  0  0  0  0  0  0
   -2.4612    0.2547    1.6292 C   0  0  0  0  0  0  0  0  0  0  0  0
   -1.6947    1.5968    1.6025 C   0  0  2  0  0  0  0  0  0  0  0  0
   -2.5621    2.5994    1.1116 O   0  0  0  0  0  0  0  0  0  0  0  0
   -1.9013    3.6722    0.4649 C   0  0  0  0  0  0  0  0  0  0  0  0
   -0.9292    3.2165   -0.5916 C   0  0  0  0  0  0  0  0  0  0  0  0
   -0.4312    1.9838   -0.5990 C   0  0  0  0  0  0  0  0  0  0  0  0
    0.2894   -0.1824    1.6213 H   0  0  0  0  0  0  0  0  0  0  0  0
   -2.4790    0.1036   -0.5815 H   0  0  0  0  0  0  0  0  0  0  0  0
   -1.4069   -1.1193    0.1393 H   0  0  0  0  0  0  0  0  0  0  0  0
   -3.5470    0.3528    1.6646 H   0  0  0  0  0  0  0  0  0  0  0  0
   -2.1389   -0.3978    2.4456 H   0  0  0  0  0  0  0  0  0  0  0  0
   -1.1771    1.9258    2.5162 H   0  0  0  0  0  0  0  0  0  0  0  0
   -2.6938    4.2823    0.0174 H   0  0  0  0  0  0  0  0  0  0  0  0
   -1.3833    4.3141    1.2009 H   0  0  0  0  0  0  0  0  0  0  0  0
   -0.6517    3.9436   -1.3500 H   0  0  0  0  0  0  0  0  0  0  0  0
    0.2655    1.6481   -1.3622 H   0  0  0  0  0  0  0  0  0  0  0  0
  1 10  1  0  0  0  0
  2  1  1  1  0  0  0
  2  5  1  0  0  0  0
  3  2  1  0  0  0  0
  3  4  1  0  0  0  0
  4 13  1  0  0  0  0
  4 14  1  0  0  0  0
  5  4  1  0  0  0  0
  5 15  1  1  0  0  0
  6  5  1  0  0  0  0
  7  6  1  0  0  0  0
  7 17  1  0  0  0  0
  8  7  1  0  0  0  0
  9  8  2  0  0  0  0
  9  2  1  0  0  0  0
 11  3  1  0  0  0  0
 12  3  1  0  0  0  0
 16  7  1  0  0  0  0
 18  8  1  0  0  0  0
 19  9  1  0  0  0  0
M TOR 0 0 1 2 3
M TOR 1 0 1 2 10
M TOR 2 0 1 2 11
M TOR 3 0 1 4 3
M TOR 4 0 1 4 5
M TOR 5 0 1 4 14
M TOR 6 0 1 8 7
M TOR 7 0 1 8 18
M TOR 8 1 2 3 4
M TOR 9 1 2 3 12
M TOR 10 1 2 3 13
M TOR 11 1 4 3 12
M TOR 12 1 4 3 13
M TOR 13 1 4 5 6
M TOR 14 1 8 7 6
M TOR 15 1 8 7 17
M TOR 16 2 1 0 9
M TOR 17 2 1 4 5
M TOR 18 2 1 4 14
M TOR 19 2 1 8 7
M TOR 20 2 1 8 18
M TOR 21 2 3 4 5
M TOR 22 2 3 4 14
M TOR 23 3 2 1 8
M TOR 24 3 4 1 8
M TOR 25 3 4 5 6
M TOR 26 4 1 0 9
M TOR 27 4 1 2 10
M TOR 28 4 1 2 11
M TOR 29 4 1 8 7
M TOR 30 4 1 8 18
M TOR 31 4 3 2 10
M TOR 32 4 3 2 11
M TOR 33 4 5 6 7
M TOR 34 4 5 6 15
M TOR 35 4 5 6 16
M TOR 36 5 4 1 8
M TOR 37 5 4 3 12
M TOR 38 5 4 3 13
M TOR 39 5 6 7 8
M TOR 40 5 6 7 17
M TOR 41 6 5 4 14
M TOR 42 6 7 8 18
M TOR 43 8 1 0 9
M TOR 44 8 1 2 10
M TOR 45 8 1 2 11
M TOR 46 8 1 4 14
M TOR 47 8 7 6 15
M TOR 48 8 7 6 16
M  END
$$$$
