gdb 5851	3.1482297	1.2322868	0.9237031	2.0389	80.84	-0.22529	-0.03459	0.19069999999999998	1255.3163	0.157852	-422.553478	-422.54501	-422.544066	-422.586878	32.044
 OpenBabel02181911423D

 19 19  0  0  1  0  0  0  0  0999 V2000
    0.9610    1.0037    0.4839 O   0  0  0  0  0  0  0  0  0  0  0  0
    0.0274   -0.0051    0.1750 C   0  0  0  0  0  0  0  0  0  0  0  0
   -1.1562    0.5481   -0.6207 C   0  0  1  0  0  0  0  0  0  0  0  0
   -0.5756    1.1657   -1.7783 O   0  0  0  0  0  0  0  0  0  0  0  0
   -1.3049    2.2342   -2.3360 C   0  0  0  0  0  0  0  0  0  0  0  0
   -2.6807    1.9180   -2.8460 C   0  0  0  0  0  0  0  0  0  0  0  0
   -3.4055    0.7999   -2.6940 C   0  0  0  0  0  0  0  0  0  0  0  0
   -3.1000   -0.3936   -1.9106 C   0  0  0  0  0  0  0  0  0  0  0  0
   -2.1421   -0.5280   -0.9850 C   0  0  0  0  0  0  0  0  0  0  0  0
    1.1317    1.4534   -0.3531 H   0  0  0  0  0  0  0  0  0  0  0  0
    0.4861   -0.8244   -0.4033 H   0  0  0  0  0  0  0  0  0  0  0  0
   -0.3316   -0.4229    1.1213 H   0  0  0  0  0  0  0  0  0  0  0  0
   -1.6468    1.3286   -0.0167 H   0  0  0  0  0  0  0  0  0  0  0  0
   -1.3676    3.0829   -1.6303 H   0  0  0  0  0  0  0  0  0  0  0  0
   -0.6917    2.5847   -3.1772 H   0  0  0  0  0  0  0  0  0  0  0  0
   -3.1095    2.7246   -3.4391 H   0  0  0  0  0  0  0  0  0  0  0  0
   -4.3669    0.7714   -3.2023 H   0  0  0  0  0  0  0  0  0  0  0  0
   -3.7582   -1.2412   -2.0868 H   0  0  0  0  0  0  0  0  0  0  0  0
   -2.0428   -1.4767   -0.4622 H   0  0  0  0  0  0  0  0  0  0  0  0
  2  1  1  0  0  0  0
  2 12  1  0  0  0  0
  3 13  1  1  0  0  0
  3  2  1  0  0  0  0
  4  3  1  0  0  0  0
  5  4  1  0  0  0  0
  5 14  1  0  0  0  0
  6  7  2  0  0  0  0
  6  5  1  0  0  0  0
  7  8  1  0  0  0  0
  8  9  2  0  0  0  0
  9  3  1  0  0  0  0
  9 19  1  0  0  0  0
 10  1  1  0  0  0  0
 11  2  1  0  0  0  0
 15  5  1  0  0  0  0
 16  6  1  0  0  0  0
 17  7  1  0  0  0  0
 18  8  1  0  0  0  0
M TOR 0 0 1 2 3
M TOR 1 0 1 2 8
M TOR 2 0 1 2 12
M TOR 3 1 2 3 4
M TOR 4 1 2 8 7
M TOR 5 1 2 8 18
M TOR 6 2 1 0 9
M TOR 7 2 3 4 5
M TOR 8 2 3 4 13
M TOR 9 2 3 4 14
M TOR 10 2 8 7 6
M TOR 11 2 8 7 17
M TOR 12 3 2 1 10
M TOR 13 3 2 1 11
M TOR 14 3 2 8 7
M TOR 15 3 2 8 18
M TOR 16 3 4 5 6
M TOR 17 3 4 5 15
M TOR 18 4 3 2 8
M TOR 19 4 3 2 12
M TOR 20 4 5 6 7
M TOR 21 4 5 6 16
M TOR 22 5 6 7 8
M TOR 23 5 6 7 17
M TOR 24 6 5 4 13
M TOR 25 6 5 4 14
M TOR 26 6 7 8 18
M TOR 27 7 6 5 15
M TOR 28 7 8 2 12
M TOR 29 8 2 1 10
M TOR 30 8 2 1 11
M TOR 31 8 7 6 16
M  END
$$$$
