
     RDKit          3D

 19 20  0  0  0  0  0  0  0  0999 V2000
   -0.1867   -0.0388   -0.1122 C   0  0  0  0  0  0  0  0  0  0  0  0
    1.3232    0.0626    0.0260 C   0  0  0  0  0  0  0  0  0  0  0  0
    1.8371   -0.6168    1.2873 C   0  0  0  0  0  0  0  0  0  0  0  0
    1.7730    1.4683    0.0147 O   0  0  0  0  0  0  0  0  0  0  0  0
    2.6928    1.1935   -1.0344 C   0  0  0  0  0  0  0  0  0  0  0  0
    1.9968    0.7569   -2.2946 C   0  0  0  0  0  0  0  0  0  0  0  0
    2.1983   -0.2479   -1.2028 C   0  0  0  0  0  0  0  0  0  0  0  0
    4.0741    1.6959   -0.9591 C   0  0  0  0  0  0  0  0  0  0  0  0
    4.9074    1.5172   -1.8167 O   0  0  0  0  0  0  0  0  0  0  0  0
   -0.6723    0.4538    0.7362 H   0  0  0  0  0  0  0  0  0  0  0  0
   -0.5412    0.4371   -1.0290 H   0  0  0  0  0  0  0  0  0  0  0  0
   -0.4986   -1.0881   -0.1222 H   0  0  0  0  0  0  0  0  0  0  0  0
    1.6040   -1.6870    1.2696 H   0  0  0  0  0  0  0  0  0  0  0  0
    2.9205   -0.5001    1.3764 H   0  0  0  0  0  0  0  0  0  0  0  0
    1.3676   -0.1761    2.1716 H   0  0  0  0  0  0  0  0  0  0  0  0
    1.0180    1.1757   -2.5051 H   0  0  0  0  0  0  0  0  0  0  0  0
    2.6578    0.6382   -3.1464 H   0  0  0  0  0  0  0  0  0  0  0  0
    2.7996   -1.1394   -1.3264 H   0  0  0  0  0  0  0  0  0  0  0  0
    4.2942    2.2506   -0.0210 H   0  0  0  0  0  0  0  0  0  0  0  0
  1  2  1  0
  2  3  1  0
  2  4  1  0
  4  5  1  0
  5  6  1  0
  6  7  1  0
  5  8  1  0
  8  9  2  0
  7  2  1  0
  7  5  1  0
  1 10  1  0
  1 11  1  0
  1 12  1  0
  3 13  1  0
  3 14  1  0
  3 15  1  0
  6 16  1  0
  6 17  1  0
  7 18  1  0
  8 19  1  0
M  END
$$$$
