gdb 538	3.1195512	1.6781508	1.2835428	1.368	73.96	-0.23583	0.05173	0.28756000000000004	1012.7634	0.158861	-422.528517	-422.521272	-422.520328	-422.560163	28.68
 OpenBabel02181911403D

 19 21  0  0  1  0  0  0  0  0999 V2000
    0.4280    3.4727   -2.3098 C   0  0  0  0  0  0  0  0  0  0  0  0
   -0.4209    2.3370   -2.6313 O   0  0  0  0  0  0  0  0  0  0  0  0
    0.5216    1.4160   -2.0689 C   0  0  2  0  0  0  0  0  0  0  0  0
    0.7269    0.0688   -2.7468 C   0  0  0  0  0  0  0  0  0  0  0  0
    0.6149   -0.9623   -1.5928 C   0  0  0  0  0  0  0  0  0  0  0  0
    1.0408   -0.1955   -0.3179 C   0  0  0  0  0  0  0  0  0  0  0  0
    0.4602    1.2078   -0.5364 C   0  0  1  0  0  0  0  0  0  0  0  0
    1.3832    2.3111   -0.3073 O   0  0  0  0  0  0  0  0  0  0  0  0
    1.5115    2.5524   -1.7165 C   0  0  2  0  0  0  0  0  0  0  0  0
    0.7129    4.0169   -3.2182 H   0  0  0  0  0  0  0  0  0  0  0  0
   -0.0313    4.1567   -1.5886 H   0  0  0  0  0  0  0  0  0  0  0  0
   -0.0265   -0.0799   -3.5250 H   0  0  0  0  0  0  0  0  0  0  0  0
    1.7072    0.0193   -3.2323 H   0  0  0  0  0  0  0  0  0  0  0  0
   -0.4272   -1.2872   -1.4946 H   0  0  0  0  0  0  0  0  0  0  0  0
    1.2144   -1.8604   -1.7616 H   0  0  0  0  0  0  0  0  0  0  0  0
    0.6964   -0.6736    0.6026 H   0  0  0  0  0  0  0  0  0  0  0  0
    2.1317   -0.1137   -0.2630 H   0  0  0  0  0  0  0  0  0  0  0  0
   -0.5040    1.3750   -0.0460 H   0  0  0  0  0  0  0  0  0  0  0  0
    2.5467    2.6673   -2.0445 H   0  0  0  0  0  0  0  0  0  0  0  0
  1  9  1  0  0  0  0
  1 11  1  0  0  0  0
  2  1  1  0  0  0  0
  3  2  1  6  0  0  0
  3  9  1  0  0  0  0
  3  7  1  0  0  0  0
  4  3  1  0  0  0  0
  4  5  1  0  0  0  0
  5 14  1  0  0  0  0
  5  6  1  0  0  0  0
  6 17  1  0  0  0  0
  6 16  1  0  0  0  0
  7  6  1  0  0  0  0
  7  8  1  0  0  0  0
  7 18  1  1  0  0  0
  9 19  1  6  0  0  0
  9  8  1  0  0  0  0
 10  1  1  0  0  0  0
 12  4  1  0  0  0  0
 13  4  1  0  0  0  0
 15  5  1  0  0  0  0
M TOR 0 0 1 2 3
M TOR 1 0 1 2 6
M TOR 2 0 1 2 8
M TOR 3 0 8 2 3
M TOR 4 0 8 2 6
M TOR 5 0 8 7 6
M TOR 6 1 0 8 7
M TOR 7 1 0 8 18
M TOR 8 1 2 3 4
M TOR 9 1 2 3 11
M TOR 10 1 2 3 12
M TOR 11 1 2 6 5
M TOR 12 1 2 6 7
M TOR 13 1 2 6 17
M TOR 14 1 2 8 7
M TOR 15 1 2 8 18
M TOR 16 2 1 0 9
M TOR 17 2 1 0 10
M TOR 18 2 3 4 5
M TOR 19 2 3 4 13
M TOR 20 2 3 4 14
M TOR 21 2 6 5 4
M TOR 22 2 6 5 15
M TOR 23 2 6 5 16
M TOR 24 2 6 7 8
M TOR 25 2 8 0 9
M TOR 26 2 8 0 10
M TOR 27 3 2 6 5
M TOR 28 3 2 6 7
M TOR 29 3 2 6 17
M TOR 30 3 2 8 7
M TOR 31 3 2 8 18
M TOR 32 3 4 5 6
M TOR 33 3 4 5 15
M TOR 34 3 4 5 16
M TOR 35 4 3 2 6
M TOR 36 4 3 2 8
M TOR 37 4 5 6 7
M TOR 38 4 5 6 17
M TOR 39 5 4 3 11
M TOR 40 5 4 3 12
M TOR 41 5 6 2 8
M TOR 42 5 6 7 8
M TOR 43 6 2 3 11
M TOR 44 6 2 3 12
M TOR 45 6 2 8 18
M TOR 46 6 5 4 13
M TOR 47 6 5 4 14
M TOR 48 6 7 8 18
M TOR 49 7 6 5 15
M TOR 50 7 6 5 16
M TOR 51 7 8 0 9
M TOR 52 7 8 0 10
M TOR 53 8 2 3 11
M TOR 54 8 2 3 12
M TOR 55 8 2 6 17
M TOR 56 8 7 6 17
M  END
$$$$
