gdb 160	3.2128123	1.7317358	1.4316466	1.8691	73.93	-0.24576	0.07741	0.32317	947.4341	0.160219	-422.527778	-422.520983	-422.520038	-422.558982	27.67
 OpenBabel02181911403D

 19 21  0  0  1  0  0  0  0  0999 V2000
   -1.2270    2.4462    0.2013 C   0  0  0  0  0  0  0  0  0  0  0  0
   -1.4046    2.2125   -1.3375 C   0  0  2  0  0  0  0  0  0  0  0  0
   -1.2753    0.7067   -1.0396 C   0  0  0  0  0  0  0  0  0  0  0  0
   -0.2392    1.2633   -0.0047 C   0  0  2  0  0  0  0  0  0  0  0  0
    0.6507    0.3842    0.8320 C   0  0  0  0  0  0  0  0  0  0  0  0
    1.7110   -0.0047   -0.0700 O   0  0  0  0  0  0  0  0  0  0  0  0
    1.6951    0.7793   -1.2778 C   0  0  0  0  0  0  0  0  0  0  0  0
    0.7609    1.9435   -0.9496 C   0  0  1  0  0  0  0  0  0  0  0  0
   -0.1169    2.5261   -1.9203 O   0  0  0  0  0  0  0  0  0  0  0  0
   -0.8174    3.4053    0.5274 H   0  0  0  0  0  0  0  0  0  0  0  0
   -2.1270    2.1918    0.7635 H   0  0  0  0  0  0  0  0  0  0  0  0
   -2.1995    2.6608   -1.9305 H   0  0  0  0  0  0  0  0  0  0  0  0
   -2.1488    0.2773   -0.5449 H   0  0  0  0  0  0  0  0  0  0  0  0
   -0.9322    0.0657   -1.8531 H   0  0  0  0  0  0  0  0  0  0  0  0
    1.0753    0.9224    1.6920 H   0  0  0  0  0  0  0  0  0  0  0  0
    0.1629   -0.5242    1.2004 H   0  0  0  0  0  0  0  0  0  0  0  0
    2.7225    1.0859   -1.4962 H   0  0  0  0  0  0  0  0  0  0  0  0
    1.3216    0.1859   -2.1225 H   0  0  0  0  0  0  0  0  0  0  0  0
    1.3239    2.7413   -0.4479 H   0  0  0  0  0  0  0  0  0  0  0  0
  1 10  1  0  0  0  0
  1 11  1  0  0  0  0
  2 12  1  6  0  0  0
  2  3  1  0  0  0  0
  2  1  1  0  0  0  0
  3 13  1  0  0  0  0
  4  3  1  6  0  0  0
  4  1  1  0  0  0  0
  4  5  1  0  0  0  0
  5 16  1  0  0  0  0
  5 15  1  0  0  0  0
  6  5  1  0  0  0  0
  7  8  1  0  0  0  0
  7  6  1  0  0  0  0
  8 19  1  1  0  0  0
  8  4  1  0  0  0  0
  9  2  1  0  0  0  0
  9  8  1  0  0  0  0
 14  3  1  0  0  0  0
 17  7  1  0  0  0  0
 18  7  1  0  0  0  0
M TOR 0 0 1 2 3
M TOR 1 0 1 2 12
M TOR 2 0 1 2 13
M TOR 3 0 1 8 7
M TOR 4 0 3 2 12
M TOR 5 0 3 2 13
M TOR 6 0 3 4 5
M TOR 7 0 3 4 14
M TOR 8 0 3 4 15
M TOR 9 0 3 7 6
M TOR 10 0 3 7 8
M TOR 11 0 3 7 18
M TOR 12 1 0 3 4
M TOR 13 1 0 3 7
M TOR 14 1 2 3 4
M TOR 15 1 2 3 7
M TOR 16 1 8 7 3
M TOR 17 1 8 7 6
M TOR 18 1 8 7 18
M TOR 19 2 1 0 9
M TOR 20 2 1 0 10
M TOR 21 2 1 8 7
M TOR 22 2 3 0 9
M TOR 23 2 3 0 10
M TOR 24 2 3 4 5
M TOR 25 2 3 4 14
M TOR 26 2 3 4 15
M TOR 27 2 3 7 6
M TOR 28 2 3 7 8
M TOR 29 2 3 7 18
M TOR 30 3 0 1 8
M TOR 31 3 0 1 11
M TOR 32 3 2 1 8
M TOR 33 3 2 1 11
M TOR 34 3 4 5 6
M TOR 35 3 7 6 5
M TOR 36 3 7 6 16
M TOR 37 3 7 6 17
M TOR 38 4 3 0 9
M TOR 39 4 3 0 10
M TOR 40 4 3 2 12
M TOR 41 4 3 2 13
M TOR 42 4 3 7 6
M TOR 43 4 3 7 8
M TOR 44 4 3 7 18
M TOR 45 4 5 6 7
M TOR 46 4 5 6 16
M TOR 47 4 5 6 17
M TOR 48 5 4 3 7
M TOR 49 5 6 7 8
M TOR 50 5 6 7 18
M TOR 51 6 5 4 14
M TOR 52 6 5 4 15
M TOR 53 7 3 0 9
M TOR 54 7 3 0 10
M TOR 55 7 3 2 12
M TOR 56 7 3 2 13
M TOR 57 7 3 4 14
M TOR 58 7 3 4 15
M TOR 59 7 8 1 11
M TOR 60 8 1 0 9
M TOR 61 8 1 0 10
M TOR 62 8 1 2 12
M TOR 63 8 1 2 13
M TOR 64 8 7 6 16
M TOR 65 8 7 6 17
M  END
$$$$
