gdb 4867	2.7193645	1.2727264	1.0271644	0.875	78.66	-0.24245	0.03841	0.28086	1205.6479	0.153241	-422.511508	-422.501267	-422.500323	-422.545829	38.279
 OpenBabel02181911413D

 19 19  0  0  1  0  0  0  0  0999 V2000
    0.2241   -0.2182   -0.7071 C   0  0  0  0  0  0  0  0  0  0  0  0
    1.5532    0.0809   -0.0271 C   0  0  1  0  0  0  0  0  0  0  0  0
    2.6555    0.8040   -0.8161 C   0  0  0  0  0  0  0  0  0  0  0  0
    1.9606    1.5213    0.3077 C   0  0  2  0  0  0  0  0  0  0  0  0
    2.6558    1.7541    1.4962 O   0  0  0  0  0  0  0  0  0  0  0  0
    1.0307    2.7037    0.0449 C   0  0  0  0  0  0  0  0  0  0  0  0
    0.6380    2.8707   -1.3061 O   0  0  0  0  0  0  0  0  0  0  0  0
    1.9866   -0.8973    0.9334 C   0  0  0  0  0  0  0  0  0  0  0  0
    2.3410   -1.6685    1.7894 C   0  0  0  0  0  0  0  0  0  0  0  0
   -0.5705   -0.3469    0.0345 H   0  0  0  0  0  0  0  0  0  0  0  0
   -0.0540    0.5968   -1.3768 H   0  0  0  0  0  0  0  0  0  0  0  0
    0.2945   -1.1438   -1.2871 H   0  0  0  0  0  0  0  0  0  0  0  0
    3.6802    0.4959   -0.6444 H   0  0  0  0  0  0  0  0  0  0  0  0
    2.4070    1.0596   -1.8407 H   0  0  0  0  0  0  0  0  0  0  0  0
    2.7128    0.9201    1.9829 H   0  0  0  0  0  0  0  0  0  0  0  0
    0.1064    2.5876    0.6200 H   0  0  0  0  0  0  0  0  0  0  0  0
    1.5440    3.5951    0.4305 H   0  0  0  0  0  0  0  0  0  0  0  0
    1.4086    3.1655   -1.8013 H   0  0  0  0  0  0  0  0  0  0  0  0
    2.6557   -2.3811    2.5113 H   0  0  0  0  0  0  0  0  0  0  0  0
  1  2  1  0  0  0  0
  1 10  1  0  0  0  0
  2  4  1  0  0  0  0
  2  8  1  1  0  0  0
  3 13  1  0  0  0  0
  3  2  1  0  0  0  0
  3  4  1  0  0  0  0
  4  5  1  1  0  0  0
  5 15  1  0  0  0  0
  6  4  1  0  0  0  0
  6 17  1  0  0  0  0
  6 16  1  0  0  0  0
  7  6  1  0  0  0  0
  8  9  3  0  0  0  0
  9 19  1  0  0  0  0
 11  1  1  0  0  0  0
 12  1  1  0  0  0  0
 14  3  1  0  0  0  0
 18  7  1  0  0  0  0
M TOR 0 0 1 2 3
M TOR 1 0 1 2 12
M TOR 2 0 1 2 13
M TOR 3 0 1 3 4
M TOR 4 0 1 3 5
M TOR 5 0 1 7 8
M TOR 6 1 2 3 4
M TOR 7 1 2 3 5
M TOR 8 1 3 2 12
M TOR 9 1 3 2 13
M TOR 10 1 3 4 14
M TOR 11 1 3 5 6
M TOR 12 1 3 5 15
M TOR 13 1 3 5 16
M TOR 14 1 7 8 18
M TOR 15 2 1 0 9
M TOR 16 2 1 0 10
M TOR 17 2 1 0 11
M TOR 18 2 1 7 8
M TOR 19 2 3 1 7
M TOR 20 2 3 4 14
M TOR 21 2 3 5 6
M TOR 22 2 3 5 15
M TOR 23 2 3 5 16
M TOR 24 3 1 0 9
M TOR 25 3 1 0 10
M TOR 26 3 1 0 11
M TOR 27 3 1 7 8
M TOR 28 3 5 6 17
M TOR 29 4 3 1 7
M TOR 30 4 3 2 12
M TOR 31 4 3 2 13
M TOR 32 4 3 5 6
M TOR 33 4 3 5 15
M TOR 34 4 3 5 16
M TOR 35 5 3 1 7
M TOR 36 5 3 2 12
M TOR 37 5 3 2 13
M TOR 38 5 3 4 14
M TOR 39 7 1 0 9
M TOR 40 7 1 0 10
M TOR 41 7 1 0 11
M TOR 42 7 1 2 12
M TOR 43 7 1 2 13
M  END
$$$$
