gdb 379	3.2558455	1.5727426	1.4979665	2.3034	74.	-0.23222	0.08694	0.31916	968.2747	0.159245	-422.552477	-422.545486	-422.544542	-422.583606	28.733
 OpenBabel02181911403D

 19 21  0  0  1  0  0  0  0  0999 V2000
    0.6583    1.3315    0.1774 C   0  0  0  0  0  0  0  0  0  0  0  0
    1.5384    0.1595   -0.2444 C   0  0  0  0  0  0  0  0  0  0  0  0
    0.0894   -0.0463    0.0523 C   0  0  0  0  0  0  0  0  0  0  0  0
   -0.7938   -0.3055   -1.0445 O   0  0  0  0  0  0  0  0  0  0  0  0
   -1.7637   -1.2037   -0.5192 C   0  0  2  0  0  0  0  0  0  0  0  0
   -1.9811   -0.7029    0.9121 C   0  0  0  0  0  0  0  0  0  0  0  0
   -0.4726   -0.8785    1.1990 C   0  0  1  0  0  0  0  0  0  0  0  0
   -0.3067   -2.3562    0.7912 C   0  0  0  0  0  0  0  0  0  0  0  0
   -1.1917   -2.4879   -0.3441 O   0  0  0  0  0  0  0  0  0  0  0  0
    0.7994    1.7563    1.1661 H   0  0  0  0  0  0  0  0  0  0  0  0
    0.3816    2.0443   -0.5915 H   0  0  0  0  0  0  0  0  0  0  0  0
    1.8384    0.1119   -1.2851 H   0  0  0  0  0  0  0  0  0  0  0  0
    2.2762   -0.2120    0.4599 H   0  0  0  0  0  0  0  0  0  0  0  0
   -2.5956   -1.2748   -1.2170 H   0  0  0  0  0  0  0  0  0  0  0  0
   -2.3220    0.3323    0.9605 H   0  0  0  0  0  0  0  0  0  0  0  0
   -2.6282   -1.3554    1.5013 H   0  0  0  0  0  0  0  0  0  0  0  0
   -0.1003   -0.6205    2.1894 H   0  0  0  0  0  0  0  0  0  0  0  0
    0.7166   -2.5999    0.4879 H   0  0  0  0  0  0  0  0  0  0  0  0
   -0.6213   -3.0478    1.5829 H   0  0  0  0  0  0  0  0  0  0  0  0
  1 10  1  0  0  0  0
  2  3  1  0  0  0  0
  2  1  1  0  0  0  0
  2 13  1  0  0  0  0
  3  1  1  0  0  0  0
  3  7  1  0  0  0  0
  4  5  1  0  0  0  0
  4  3  1  0  0  0  0
  5 14  1  6  0  0  0
  5  9  1  0  0  0  0
  5  6  1  0  0  0  0
  6 15  1  0  0  0  0
  6  7  1  0  0  0  0
  6 16  1  0  0  0  0
  7 17  1  1  0  0  0
  8  7  1  0  0  0  0
  8 19  1  0  0  0  0
  9  8  1  0  0  0  0
 11  1  1  0  0  0  0
 12  2  1  0  0  0  0
 18  8  1  0  0  0  0
M TOR 0 0 1 2 3
M TOR 1 0 1 2 6
M TOR 2 0 2 1 11
M TOR 3 0 2 1 12
M TOR 4 0 2 3 4
M TOR 5 0 2 6 5
M TOR 6 0 2 6 7
M TOR 7 0 2 6 16
M TOR 8 1 2 0 9
M TOR 9 1 2 0 10
M TOR 10 1 2 3 4
M TOR 11 1 2 6 5
M TOR 12 1 2 6 7
M TOR 13 1 2 6 16
M TOR 14 2 3 4 5
M TOR 15 2 3 4 8
M TOR 16 2 3 4 13
M TOR 17 2 6 5 4
M TOR 18 2 6 5 14
M TOR 19 2 6 5 15
M TOR 20 2 6 7 8
M TOR 21 2 6 7 17
M TOR 22 2 6 7 18
M TOR 23 3 2 0 9
M TOR 24 3 2 0 10
M TOR 25 3 2 1 11
M TOR 26 3 2 1 12
M TOR 27 3 2 6 5
M TOR 28 3 2 6 7
M TOR 29 3 2 6 16
M TOR 30 3 4 5 6
M TOR 31 3 4 5 14
M TOR 32 3 4 5 15
M TOR 33 3 4 8 7
M TOR 34 4 3 2 6
M TOR 35 4 5 6 7
M TOR 36 4 5 6 16
M TOR 37 4 8 7 6
M TOR 38 4 8 7 17
M TOR 39 4 8 7 18
M TOR 40 5 4 8 7
M TOR 41 5 6 7 8
M TOR 42 5 6 7 17
M TOR 43 5 6 7 18
M TOR 44 6 2 0 9
M TOR 45 6 2 0 10
M TOR 46 6 2 1 11
M TOR 47 6 2 1 12
M TOR 48 6 5 4 8
M TOR 49 6 5 4 13
M TOR 50 7 6 5 14
M TOR 51 7 6 5 15
M TOR 52 7 8 4 13
M TOR 53 8 4 5 14
M TOR 54 8 4 5 15
M TOR 55 8 7 6 16
M  END
$$$$
