
     RDKit          3D

 19 20  0  0  0  0  0  0  0  0999 V2000
   -0.3375   -0.3105    0.1874 C   0  0  0  0  0  0  0  0  0  0  0  0
    1.1511   -0.0614    0.2666 C   0  0  0  0  0  0  0  0  0  0  0  0
    1.8987   -0.7456    1.3485 C   0  0  0  0  0  0  0  0  0  0  0  0
    3.0622   -0.5396    1.6157 O   0  0  0  0  0  0  0  0  0  0  0  0
    1.7994    1.2522   -0.1957 C   0  0  0  0  0  0  0  0  0  0  0  0
    0.9449    2.2149   -1.0154 C   0  0  0  0  0  0  0  0  0  0  0  0
    0.8977    1.5429   -2.4082 C   0  0  0  0  0  0  0  0  0  0  0  0
    1.2749    0.1659   -2.2237 O   0  0  0  0  0  0  0  0  0  0  0  0
    1.9924    0.0516   -1.0391 C   0  0  0  0  0  0  0  0  0  0  0  0
   -0.9115    0.4038    0.7877 H   0  0  0  0  0  0  0  0  0  0  0  0
   -0.6907   -0.2577   -0.8451 H   0  0  0  0  0  0  0  0  0  0  0  0
   -0.5706   -1.3143    0.5589 H   0  0  0  0  0  0  0  0  0  0  0  0
    1.3139   -1.5131    1.9040 H   0  0  0  0  0  0  0  0  0  0  0  0
    2.6011    1.6201    0.4330 H   0  0  0  0  0  0  0  0  0  0  0  0
   -0.0558    2.3486   -0.5941 H   0  0  0  0  0  0  0  0  0  0  0  0
    1.4130    3.2009   -1.0639 H   0  0  0  0  0  0  0  0  0  0  0  0
   -0.0949    1.5571   -2.8659 H   0  0  0  0  0  0  0  0  0  0  0  0
    1.6057    2.0164   -3.1016 H   0  0  0  0  0  0  0  0  0  0  0  0
    2.9180   -0.5100   -1.1015 H   0  0  0  0  0  0  0  0  0  0  0  0
  1  2  1  0
  2  3  1  0
  3  4  2  0
  2  5  1  0
  5  6  1  0
  6  7  1  0
  7  8  1  0
  8  9  1  0
  9  2  1  0
  9  5  1  0
  1 10  1  0
  1 11  1  0
  1 12  1  0
  3 13  1  0
  5 14  1  0
  6 15  1  0
  6 16  1  0
  7 17  1  0
  7 18  1  0
  9 19  1  0
M  END
$$$$
