
     RDKit          3D

 19 21  0  0  0  0  0  0  0  0999 V2000
    0.2011    1.2537   -0.3560 C   0  0  0  0  0  0  0  0  0  0  0  0
    1.4436    1.9165    0.2754 C   0  0  0  0  0  0  0  0  0  0  0  0
    2.0802    0.7541    0.9889 C   0  0  0  0  0  0  0  0  0  0  0  0
    3.0619    1.0013    1.9490 O   0  0  0  0  0  0  0  0  0  0  0  0
    3.5964   -0.2666    2.3339 C   0  0  0  0  0  0  0  0  0  0  0  0
    3.4322   -1.2146    1.1189 C   0  0  0  0  0  0  0  0  0  0  0  0
    2.2668   -0.6077    0.3476 C   0  0  0  0  0  0  0  0  0  0  0  0
    1.0120   -0.2947    1.1507 C   0  0  0  0  0  0  0  0  0  0  0  0
   -0.1298    0.1056    0.4395 O   0  0  0  0  0  0  0  0  0  0  0  0
   -0.6744    1.9078   -0.3794 H   0  0  0  0  0  0  0  0  0  0  0  0
    0.4160    0.9385   -1.3862 H   0  0  0  0  0  0  0  0  0  0  0  0
    2.0833    2.3844   -0.4782 H   0  0  0  0  0  0  0  0  0  0  0  0
    1.1697    2.6776    1.0139 H   0  0  0  0  0  0  0  0  0  0  0  0
    4.6360   -0.1158    2.6352 H   0  0  0  0  0  0  0  0  0  0  0  0
    3.0419   -0.6534    3.2003 H   0  0  0  0  0  0  0  0  0  0  0  0
    4.3269   -1.1989    0.4883 H   0  0  0  0  0  0  0  0  0  0  0  0
    3.2670   -2.2479    1.4390 H   0  0  0  0  0  0  0  0  0  0  0  0
    2.1969   -0.7761   -0.7218 H   0  0  0  0  0  0  0  0  0  0  0  0
    0.7694   -0.8207    2.0682 H   0  0  0  0  0  0  0  0  0  0  0  0
  1  2  1  0
  2  3  1  0
  3  4  1  0
  4  5  1  0
  5  6  1  0
  6  7  1  0
  7  8  1  0
  8  9  1  0
  9  1  1  0
  7  3  1  0
  8  3  1  0
  1 10  1  0
  1 11  1  0
  2 12  1  0
  2 13  1  0
  5 14  1  0
  5 15  1  0
  6 16  1  0
  6 17  1  0
  7 18  1  0
  8 19  1  0
M  END
$$$$
