gdb 4181	2.951502	1.6656744	1.412099	1.7458	74.6	-0.24122	0.00826	0.24947999999999998	995.2815	0.159157	-422.57739	-422.569984	-422.56904	-422.608986	29.518
 OpenBabel02181911413D

 19 20  0  0  1  0  0  0  0  0999 V2000
    0.2872   -0.3321   -0.2508 C   0  0  0  0  0  0  0  0  0  0  0  0
    1.0000    0.7646    0.5254 C   0  0  2  0  0  0  0  0  0  0  0  0
    2.2602    1.0412   -0.1115 O   0  0  0  0  0  0  0  0  0  0  0  0
    3.2185    1.0396    0.9372 C   0  0  2  0  0  0  0  0  0  0  0  0
    2.7892    0.0142    1.8094 O   0  0  0  0  0  0  0  0  0  0  0  0
    1.4103    0.3590    1.9756 C   0  0  1  0  0  0  0  0  0  0  0  0
    1.3085    1.5185    2.9771 C   0  0  0  0  0  0  0  0  0  0  0  0
    2.3169    2.5861    2.6206 C   0  0  0  0  0  0  0  0  0  0  0  0
    3.2194    2.3733    1.6650 C   0  0  0  0  0  0  0  0  0  0  0  0
   -0.7126   -0.5110    0.1589 H   0  0  0  0  0  0  0  0  0  0  0  0
    0.1815   -0.0459   -1.3009 H   0  0  0  0  0  0  0  0  0  0  0  0
    0.8610   -1.2625   -0.2038 H   0  0  0  0  0  0  0  0  0  0  0  0
    0.3942    1.6799    0.5392 H   0  0  0  0  0  0  0  0  0  0  0  0
    4.1917    0.7703    0.5214 H   0  0  0  0  0  0  0  0  0  0  0  0
    0.8805   -0.5299    2.3245 H   0  0  0  0  0  0  0  0  0  0  0  0
    0.2916    1.9319    2.9706 H   0  0  0  0  0  0  0  0  0  0  0  0
    1.4853    1.1537    3.9982 H   0  0  0  0  0  0  0  0  0  0  0  0
    2.2846    3.5235    3.1693 H   0  0  0  0  0  0  0  0  0  0  0  0
    3.9379    3.1274    1.3615 H   0  0  0  0  0  0  0  0  0  0  0  0
  1 12  1  0  0  0  0
  1 10  1  0  0  0  0
  1  2  1  0  0  0  0
  2 13  1  1  0  0  0
  2  6  1  0  0  0  0
  3  2  1  0  0  0  0
  3  4  1  0  0  0  0
  4 14  1  6  0  0  0
  4  9  1  0  0  0  0
  4  5  1  0  0  0  0
  5  6  1  0  0  0  0
  6 15  1  1  0  0  0
  6  7  1  0  0  0  0
  7 17  1  0  0  0  0
  8  7  1  0  0  0  0
  8 18  1  0  0  0  0
  9  8  2  0  0  0  0
 11  1  1  0  0  0  0
 16  7  1  0  0  0  0
 19  9  1  0  0  0  0
M TOR 0 0 1 2 3
M TOR 1 0 1 5 4
M TOR 2 0 1 5 6
M TOR 3 0 1 5 14
M TOR 4 1 2 3 4
M TOR 5 1 2 3 8
M TOR 6 1 2 3 13
M TOR 7 1 5 4 3
M TOR 8 1 5 6 7
M TOR 9 1 5 6 15
M TOR 10 1 5 6 16
M TOR 11 2 1 0 9
M TOR 12 2 1 0 10
M TOR 13 2 1 0 11
M TOR 14 2 1 5 4
M TOR 15 2 1 5 6
M TOR 16 2 1 5 14
M TOR 17 2 3 4 5
M TOR 18 2 3 8 7
M TOR 19 2 3 8 18
M TOR 20 3 2 1 5
M TOR 21 3 2 1 12
M TOR 22 3 4 5 6
M TOR 23 3 4 5 14
M TOR 24 3 8 7 6
M TOR 25 3 8 7 17
M TOR 26 4 3 8 7
M TOR 27 4 3 8 18
M TOR 28 4 5 1 12
M TOR 29 4 5 6 7
M TOR 30 4 5 6 15
M TOR 31 4 5 6 16
M TOR 32 5 1 0 9
M TOR 33 5 1 0 10
M TOR 34 5 1 0 11
M TOR 35 5 4 3 8
M TOR 36 5 4 3 13
M TOR 37 5 6 7 8
M TOR 38 5 6 7 17
M TOR 39 6 5 1 12
M TOR 40 6 7 8 18
M TOR 41 7 6 5 14
M TOR 42 7 8 3 13
M TOR 43 8 7 6 15
M TOR 44 8 7 6 16
M  END
$$$$
