gdb 2715	2.2748237	1.5946857	1.4000377	2.608	74.8	-0.21602	0.05729	0.27331	1053.8407	0.154234	-422.478012	-422.468961	-422.468017	-422.510983	34.529
 OpenBabel02181911413D

 19 21  0  0  1  0  0  0  0  0999 V2000
   -0.1100    0.1326    0.0478 C   0  0  0  0  0  0  0  0  0  0  0  0
    1.3942   -0.0123   -0.0533 C   0  0  2  0  0  0  0  0  0  0  0  0
    2.1941   -0.2227    1.2309 C   0  0  1  0  0  0  0  0  0  0  0  0
    1.6387   -0.6271    2.5649 C   0  0  0  0  0  0  0  0  0  0  0  0
    3.7160   -0.3931    0.8844 C   0  0  1  0  0  0  0  0  0  0  0  0
    3.9340   -0.3395   -0.5361 O   0  0  0  0  0  0  0  0  0  0  0  0
    3.7581    0.8869    0.1888 C   0  0  1  0  0  0  0  0  0  0  0  0
    2.2334    1.1134    0.4825 C   0  0  1  0  0  0  0  0  0  0  0  0
    1.6844    2.3490    0.7653 O   0  0  0  0  0  0  0  0  0  0  0  0
   -0.4089    0.7622    0.8891 H   0  0  0  0  0  0  0  0  0  0  0  0
   -0.5027    0.6007   -0.8603 H   0  0  0  0  0  0  0  0  0  0  0  0
   -0.5917   -0.8450    0.1562 H   0  0  0  0  0  0  0  0  0  0  0  0
    1.7418   -0.5218   -0.9457 H   0  0  0  0  0  0  0  0  0  0  0  0
    1.5936   -1.7193    2.6601 H   0  0  0  0  0  0  0  0  0  0  0  0
    2.2585   -0.2546    3.3901 H   0  0  0  0  0  0  0  0  0  0  0  0
    0.6264   -0.2427    2.7143 H   0  0  0  0  0  0  0  0  0  0  0  0
    4.4565   -0.9117    1.4835 H   0  0  0  0  0  0  0  0  0  0  0  0
    4.5274    1.6467    0.1007 H   0  0  0  0  0  0  0  0  0  0  0  0
    2.0619    2.6759    1.5895 H   0  0  0  0  0  0  0  0  0  0  0  0
  1 12  1  0  0  0  0
  1 10  1  0  0  0  0
  2 13  1  6  0  0  0
  2  1  1  0  0  0  0
  2  8  1  0  0  0  0
  2  3  1  0  0  0  0
  3  4  1  1  0  0  0
  4 14  1  0  0  0  0
  4 16  1  0  0  0  0
  4 15  1  0  0  0  0
  5  3  1  0  0  0  0
  5 17  1  1  0  0  0
  6  7  1  0  0  0  0
  6  5  1  0  0  0  0
  7 18  1  1  0  0  0
  7  8  1  0  0  0  0
  7  5  1  0  0  0  0
  8  9  1  1  0  0  0
  8  3  1  0  0  0  0
  9 19  1  0  0  0  0
 11  1  1  0  0  0  0
M TOR 0 0 1 2 3
M TOR 1 0 1 2 4
M TOR 2 0 1 2 7
M TOR 3 0 1 7 6
M TOR 4 0 1 7 8
M TOR 5 1 2 3 13
M TOR 6 1 2 3 14
M TOR 7 1 2 3 15
M TOR 8 1 2 4 5
M TOR 9 1 2 4 6
M TOR 10 1 2 4 16
M TOR 11 1 2 7 6
M TOR 12 1 2 7 8
M TOR 13 1 7 2 3
M TOR 14 1 7 2 4
M TOR 15 1 7 6 4
M TOR 16 1 7 6 5
M TOR 17 1 7 6 17
M TOR 18 1 7 8 18
M TOR 19 2 1 0 9
M TOR 20 2 1 0 10
M TOR 21 2 1 0 11
M TOR 22 2 4 5 6
M TOR 23 2 4 6 7
M TOR 24 2 4 6 17
M TOR 25 2 7 1 12
M TOR 26 2 7 6 5
M TOR 27 2 7 6 17
M TOR 28 2 7 8 18
M TOR 29 3 2 1 12
M TOR 30 3 2 4 5
M TOR 31 3 2 4 6
M TOR 32 3 2 4 16
M TOR 33 3 2 7 6
M TOR 34 3 2 7 8
M TOR 35 4 2 1 12
M TOR 36 4 2 3 13
M TOR 37 4 2 3 14
M TOR 38 4 2 3 15
M TOR 39 4 2 7 8
M TOR 40 4 5 6 7
M TOR 41 4 5 6 17
M TOR 42 4 6 7 8
M TOR 43 5 4 2 7
M TOR 44 5 6 4 16
M TOR 45 5 6 7 8
M TOR 46 6 7 1 12
M TOR 47 6 7 8 18
M TOR 48 7 1 0 9
M TOR 49 7 1 0 10
M TOR 50 7 1 0 11
M TOR 51 7 2 3 13
M TOR 52 7 2 3 14
M TOR 53 7 2 3 15
M TOR 54 7 2 4 16
M TOR 55 7 6 4 16
M TOR 56 8 7 1 12
M TOR 57 8 7 6 17
M  END
$$$$
