
     RDKit          3D

 19 21  0  0  0  0  0  0  0  0999 V2000
   -0.2246    4.4175   -0.1203 C   0  0  0  0  0  0  0  0  0  0  0  0
    0.8268    3.9532    0.7558 O   0  0  0  0  0  0  0  0  0  0  0  0
    1.1148    2.8440   -0.1274 C   0  0  0  0  0  0  0  0  0  0  0  0
   -0.2022    3.0968   -0.9137 C   0  0  0  0  0  0  0  0  0  0  0  0
   -1.2035    2.0237   -0.4235 C   0  0  0  0  0  0  0  0  0  0  0  0
   -0.3713    0.9321    0.2520 C   0  0  0  0  0  0  0  0  0  0  0  0
    0.1786   -0.0159   -0.6981 O   0  0  0  0  0  0  0  0  0  0  0  0
    1.5301    0.3113   -0.3149 C   0  0  0  0  0  0  0  0  0  0  0  0
    1.0477    1.4861    0.5553 C   0  0  0  0  0  0  0  0  0  0  0  0
   -1.1436    4.6570    0.4276 H   0  0  0  0  0  0  0  0  0  0  0  0
    0.0919    5.2984   -0.6949 H   0  0  0  0  0  0  0  0  0  0  0  0
    2.0567    3.0060   -0.6686 H   0  0  0  0  0  0  0  0  0  0  0  0
   -0.1442    3.1770   -1.9989 H   0  0  0  0  0  0  0  0  0  0  0  0
   -1.9080    2.4512    0.2988 H   0  0  0  0  0  0  0  0  0  0  0  0
   -1.7912    1.5919   -1.2381 H   0  0  0  0  0  0  0  0  0  0  0  0
   -0.9022    0.4138    1.0586 H   0  0  0  0  0  0  0  0  0  0  0  0
    2.0067   -0.5060    0.2416 H   0  0  0  0  0  0  0  0  0  0  0  0
    2.1563    0.5633   -1.1807 H   0  0  0  0  0  0  0  0  0  0  0  0
    1.3967    1.5283    1.5874 H   0  0  0  0  0  0  0  0  0  0  0  0
  1  2  1  0
  2  3  1  0
  3  4  1  0
  4  5  1  0
  5  6  1  0
  6  7  1  0
  7  8  1  0
  8  9  1  0
  4  1  1  0
  9  6  1  0
  9  3  1  0
  1 10  1  0
  1 11  1  0
  3 12  1  0
  4 13  1  0
  5 14  1  0
  5 15  1  0
  6 16  1  0
  8 17  1  0
  8 18  1  0
  9 19  1  0
M  END
$$$$
