gdb 2266	2.8745133	1.5792771	1.3360439	2.4529	74.57	-0.23905	-0.01567	0.22338000000000002	1021.2247	0.157817	-422.599904	-422.592149	-422.591205	-422.631731	30.799
 OpenBabel02181911413D

 19 20  0  0  1  0  0  0  0  0999 V2000
   -3.4699   -1.3784   -0.3947 C   0  0  0  0  0  0  0  0  0  0  0  0
   -2.2955   -0.4903   -0.0551 C   0  0  1  0  0  0  0  0  0  0  0  0
   -1.9559    0.6826   -1.0000 C   0  0  0  0  0  0  0  0  0  0  0  0
   -0.8762    1.2544   -0.0574 C   0  0  1  0  0  0  0  0  0  0  0  0
   -1.7019    1.3317    1.2497 C   0  0  0  0  0  0  0  0  0  0  0  0
   -2.5698    0.1907    1.1917 O   0  0  0  0  0  0  0  0  0  0  0  0
    0.0321    0.0329    0.1198 C   0  0  0  0  0  0  0  0  0  0  0  0
    1.2268    0.0185    0.2499 O   0  0  0  0  0  0  0  0  0  0  0  0
   -0.9213   -1.1779    0.1026 C   0  0  0  0  0  0  0  0  0  0  0  0
   -3.6307   -2.1198    0.3935 H   0  0  0  0  0  0  0  0  0  0  0  0
   -4.3820   -0.7830   -0.4936 H   0  0  0  0  0  0  0  0  0  0  0  0
   -3.2933   -1.9092   -1.3349 H   0  0  0  0  0  0  0  0  0  0  0  0
   -1.5664    0.3633   -1.9704 H   0  0  0  0  0  0  0  0  0  0  0  0
   -2.8051    1.3550   -1.1472 H   0  0  0  0  0  0  0  0  0  0  0  0
   -0.3539    2.1697   -0.3292 H   0  0  0  0  0  0  0  0  0  0  0  0
   -1.0816    1.2885    2.1525 H   0  0  0  0  0  0  0  0  0  0  0  0
   -2.2992    2.2522    1.2830 H   0  0  0  0  0  0  0  0  0  0  0  0
   -0.6786   -1.8317   -0.7430 H   0  0  0  0  0  0  0  0  0  0  0  0
   -0.8394   -1.7629    1.0222 H   0  0  0  0  0  0  0  0  0  0  0  0
  1 10  1  0  0  0  0
  2  1  1  6  0  0  0
  2  9  1  0  0  0  0
  2  6  1  0  0  0  0
  3  4  1  0  0  0  0
  3  2  1  0  0  0  0
  4 15  1  6  0  0  0
  4  7  1  0  0  0  0
  4  5  1  0  0  0  0
  5 17  1  0  0  0  0
  5 16  1  0  0  0  0
  6  5  1  0  0  0  0
  7  8  2  0  0  0  0
  9  7  1  0  0  0  0
  9 19  1  0  0  0  0
 11  1  1  0  0  0  0
 12  1  1  0  0  0  0
 13  3  1  0  0  0  0
 14  3  1  0  0  0  0
 18  9  1  0  0  0  0
M TOR 0 0 1 2 3
M TOR 1 0 1 2 12
M TOR 2 0 1 2 13
M TOR 3 0 1 5 4
M TOR 4 0 1 8 6
M TOR 5 0 1 8 17
M TOR 6 0 1 8 18
M TOR 7 1 2 3 4
M TOR 8 1 2 3 6
M TOR 9 1 2 3 14
M TOR 10 1 5 4 3
M TOR 11 1 5 4 15
M TOR 12 1 5 4 16
M TOR 13 1 8 6 3
M TOR 14 1 8 6 7
M TOR 15 2 1 0 9
M TOR 16 2 1 0 10
M TOR 17 2 1 0 11
M TOR 18 2 1 5 4
M TOR 19 2 1 8 6
M TOR 20 2 1 8 17
M TOR 21 2 1 8 18
M TOR 22 2 3 4 5
M TOR 23 2 3 4 15
M TOR 24 2 3 4 16
M TOR 25 2 3 6 7
M TOR 26 2 3 6 8
M TOR 27 3 2 1 5
M TOR 28 3 2 1 8
M TOR 29 3 6 8 17
M TOR 30 3 6 8 18
M TOR 31 4 3 2 12
M TOR 32 4 3 2 13
M TOR 33 4 3 6 7
M TOR 34 4 3 6 8
M TOR 35 4 5 1 8
M TOR 36 5 1 0 9
M TOR 37 5 1 0 10
M TOR 38 5 1 0 11
M TOR 39 5 1 2 12
M TOR 40 5 1 2 13
M TOR 41 5 1 8 6
M TOR 42 5 1 8 17
M TOR 43 5 1 8 18
M TOR 44 5 4 3 6
M TOR 45 5 4 3 14
M TOR 46 6 3 2 12
M TOR 47 6 3 2 13
M TOR 48 6 3 4 15
M TOR 49 6 3 4 16
M TOR 50 7 6 3 14
M TOR 51 7 6 8 17
M TOR 52 7 6 8 18
M TOR 53 8 1 0 9
M TOR 54 8 1 0 10
M TOR 55 8 1 0 11
M TOR 56 8 1 2 12
M TOR 57 8 1 2 13
M TOR 58 8 6 3 14
M  END
$$$$
