gdb 946	4.3467919	0.9417497	0.8632986	3.7359	75.69	-0.2425	-0.01873	0.22377	1352.4891	0.156945	-422.558158	-422.54972	-422.548776	-422.592095	30.95
 OpenBabel02181911403D

 19 20  0  0  1  0  0  0  0  0999 V2000
    0.4515   -1.0911   -0.1519 O   0  0  0  0  0  0  0  0  0  0  0  0
    0.4251    0.1135   -0.1301 C   0  0  0  0  0  0  0  0  0  0  0  0
   -0.2305    0.9728   -1.1899 C   0  0  0  0  0  0  0  0  0  0  0  0
   -1.1474    2.0531   -0.5845 C   0  0  1  0  0  0  0  0  0  0  0  0
   -0.4229    2.9322    0.2844 O   0  0  0  0  0  0  0  0  0  0  0  0
    0.0215    4.0703   -0.4585 C   0  0  0  0  0  0  0  0  0  0  0  0
   -0.9978    4.2602   -1.5640 C   0  0  2  0  0  0  0  0  0  0  0  0
   -2.4428    4.1958   -1.1431 C   0  0  0  0  0  0  0  0  0  0  0  0
   -1.7545    2.9539   -1.6475 C   0  0  2  0  0  0  0  0  0  0  0  0
    0.8953    0.6875    0.6969 H   0  0  0  0  0  0  0  0  0  0  0  0
    0.5649    1.4703   -1.7627 H   0  0  0  0  0  0  0  0  0  0  0  0
   -0.7844    0.3231   -1.8744 H   0  0  0  0  0  0  0  0  0  0  0  0
   -1.9086    1.5735    0.0432 H   0  0  0  0  0  0  0  0  0  0  0  0
    0.0840    4.9051    0.2476 H   0  0  0  0  0  0  0  0  0  0  0  0
    1.0240    3.9070   -0.8839 H   0  0  0  0  0  0  0  0  0  0  0  0
   -0.7132    4.8142   -2.4503 H   0  0  0  0  0  0  0  0  0  0  0  0
   -2.6728    4.2604   -0.0838 H   0  0  0  0  0  0  0  0  0  0  0  0
   -3.1741    4.6576   -1.7966 H   0  0  0  0  0  0  0  0  0  0  0  0
   -2.0467    2.5180   -2.5953 H   0  0  0  0  0  0  0  0  0  0  0  0
  1  2  2  0  0  0  0
  2 10  1  0  0  0  0
  3  4  1  0  0  0  0
  3  2  1  0  0  0  0
  4 13  1  1  0  0  0
  4  5  1  0  0  0  0
  6 14  1  0  0  0  0
  6  5  1  0  0  0  0
  7 16  1  6  0  0  0
  7  8  1  0  0  0  0
  7  6  1  0  0  0  0
  8 17  1  0  0  0  0
  9 19  1  6  0  0  0
  9  7  1  0  0  0  0
  9  8  1  0  0  0  0
  9  4  1  0  0  0  0
 11  3  1  0  0  0  0
 12  3  1  0  0  0  0
 15  6  1  0  0  0  0
 18  8  1  0  0  0  0
M TOR 0 0 1 2 3
M TOR 1 0 1 2 10
M TOR 2 0 1 2 11
M TOR 3 1 2 3 4
M TOR 4 1 2 3 8
M TOR 5 1 2 3 12
M TOR 6 2 3 4 5
M TOR 7 2 3 8 6
M TOR 8 2 3 8 7
M TOR 9 2 3 8 18
M TOR 10 3 2 1 9
M TOR 11 3 4 5 6
M TOR 12 3 4 5 13
M TOR 13 3 4 5 14
M TOR 14 3 8 6 5
M TOR 15 3 8 6 7
M TOR 16 3 8 6 15
M TOR 17 3 8 7 16
M TOR 18 3 8 7 17
M TOR 19 4 3 2 10
M TOR 20 4 3 2 11
M TOR 21 4 3 8 6
M TOR 22 4 3 8 7
M TOR 23 4 3 8 18
M TOR 24 4 5 6 7
M TOR 25 4 5 6 8
M TOR 26 4 5 6 15
M TOR 27 5 4 3 8
M TOR 28 5 4 3 12
M TOR 29 5 6 7 8
M TOR 30 5 6 7 16
M TOR 31 5 6 7 17
M TOR 32 5 6 8 18
M TOR 33 6 7 8 18
M TOR 34 6 8 3 12
M TOR 35 6 8 7 16
M TOR 36 6 8 7 17
M TOR 37 7 6 5 13
M TOR 38 7 6 5 14
M TOR 39 7 8 3 12
M TOR 40 7 8 6 15
M TOR 41 8 3 2 10
M TOR 42 8 3 2 11
M TOR 43 8 6 5 13
M TOR 44 8 6 5 14
M  END
$$$$
