
     RDKit          3D

 19 20  0  0  0  0  0  0  0  0999 V2000
   -0.4620    1.0983   -2.3821 C   0  0  0  0  0  0  0  0  0  0  0  0
   -0.9340    0.3037   -1.2079 C   0  0  0  0  0  0  0  0  0  0  0  0
   -1.3131   -0.9762   -1.1750 C   0  0  0  0  0  0  0  0  0  0  0  0
   -1.7258   -1.4193    0.2075 C   0  0  0  0  0  0  0  0  0  0  0  0
   -0.5326   -1.1478    1.1496 C   0  0  0  0  0  0  0  0  0  0  0  0
   -0.1868    0.2395    1.0786 O   0  0  0  0  0  0  0  0  0  0  0  0
   -1.0350    0.9312    0.1728 C   0  0  0  0  0  0  0  0  0  0  0  0
   -2.3796    0.8774    0.6284 O   0  0  0  0  0  0  0  0  0  0  0  0
   -2.8538   -0.4726    0.6729 C   0  0  0  0  0  0  0  0  0  0  0  0
   -0.4488    0.4940   -3.2935 H   0  0  0  0  0  0  0  0  0  0  0  0
   -1.1081    1.9675   -2.5581 H   0  0  0  0  0  0  0  0  0  0  0  0
    0.5503    1.4879   -2.2160 H   0  0  0  0  0  0  0  0  0  0  0  0
   -1.3301   -1.6404   -2.0327 H   0  0  0  0  0  0  0  0  0  0  0  0
   -2.0410   -2.4631    0.2634 H   0  0  0  0  0  0  0  0  0  0  0  0
   -0.8023   -1.3837    2.1877 H   0  0  0  0  0  0  0  0  0  0  0  0
    0.3399   -1.7506    0.8682 H   0  0  0  0  0  0  0  0  0  0  0  0
   -0.7376    1.9798    0.2098 H   0  0  0  0  0  0  0  0  0  0  0  0
   -3.1450   -0.7023    1.7066 H   0  0  0  0  0  0  0  0  0  0  0  0
   -3.7386   -0.5641    0.0307 H   0  0  0  0  0  0  0  0  0  0  0  0
  1  2  1  0
  2  3  2  0
  3  4  1  0
  4  5  1  0
  5  6  1  0
  6  7  1  0
  7  8  1  0
  8  9  1  0
  7  2  1  0
  9  4  1  0
  1 10  1  0
  1 11  1  0
  1 12  1  0
  3 13  1  0
  4 14  1  0
  5 15  1  0
  5 16  1  0
  7 17  1  0
  9 18  1  0
  9 19  1  0
M  END
$$$$
