
     RDKit          3D

 19 20  0  0  0  0  0  0  0  0999 V2000
   -3.6397   -1.3316   -0.0830 C   0  0  0  0  0  0  0  0  0  0  0  0
   -2.3669   -0.5223    0.0002 C   0  0  0  0  0  0  0  0  0  0  0  0
   -2.1668    0.5906    1.0778 C   0  0  0  0  0  0  0  0  0  0  0  0
   -1.0653    1.0881    0.0794 C   0  0  0  0  0  0  0  0  0  0  0  0
   -0.4959    2.3384    0.1100 O   0  0  0  0  0  0  0  0  0  0  0  0
   -2.0170    0.5744   -1.0555 C   0  0  0  0  0  0  0  0  0  0  0  0
   -0.0994   -0.0754    0.1561 C   0  0  0  0  0  0  0  0  0  0  0  0
    1.0993    0.0207    0.2396 O   0  0  0  0  0  0  0  0  0  0  0  0
   -1.0250   -1.2938    0.1004 C   0  0  0  0  0  0  0  0  0  0  0  0
   -3.7613   -1.9696    0.7996 H   0  0  0  0  0  0  0  0  0  0  0  0
   -4.5172   -0.6804   -0.1494 H   0  0  0  0  0  0  0  0  0  0  0  0
   -3.6376   -1.9827   -0.9645 H   0  0  0  0  0  0  0  0  0  0  0  0
   -3.0052    1.2899    1.1169 H   0  0  0  0  0  0  0  0  0  0  0  0
   -1.8638    0.2968    2.0873 H   0  0  0  0  0  0  0  0  0  0  0  0
    0.4615    2.1946    0.1783 H   0  0  0  0  0  0  0  0  0  0  0  0
   -2.8409    1.2722   -1.2219 H   0  0  0  0  0  0  0  0  0  0  0  0
   -1.5762    0.2657   -2.0081 H   0  0  0  0  0  0  0  0  0  0  0  0
   -0.8118   -1.9244   -0.7693 H   0  0  0  0  0  0  0  0  0  0  0  0
   -0.9361   -1.9109    1.0008 H   0  0  0  0  0  0  0  0  0  0  0  0
  1  2  1  0
  2  3  1  0
  3  4  1  0
  4  5  1  0
  4  6  1  0
  4  7  1  0
  7  8  2  0
  7  9  1  0
  6  2  1  0
  9  2  1  0
  1 10  1  0
  1 11  1  0
  1 12  1  0
  3 13  1  0
  3 14  1  0
  5 15  1  0
  6 16  1  0
  6 17  1  0
  9 18  1  0
  9 19  1  0
M  END
$$$$
