gdb 4285	3.240565	1.6174099	1.3889088	2.6764	73.25	-0.24945	0.07919	0.32864	992.735	0.159399	-422.565027	-422.55779	-422.556846	-422.596698	28.671
 OpenBabel02181911413D

 19 21  0  0  1  0  0  0  0  0999 V2000
    0.0312   -0.1129    0.2548 C   0  0  0  0  0  0  0  0  0  0  0  0
    1.4953    0.0442   -0.1330 C   0  0  2  0  0  0  0  0  0  0  0  0
    1.8127    1.4447   -0.1838 O   0  0  0  0  0  0  0  0  0  0  0  0
    2.6364    1.7088   -1.2998 C   0  0  1  0  0  0  0  0  0  0  0  0
    4.0047    1.5235   -0.9955 O   0  0  0  0  0  0  0  0  0  0  0  0
    4.3333    0.1429   -1.1649 C   0  0  0  0  0  0  0  0  0  0  0  0
    3.2400   -0.4512   -2.0446 C   0  0  1  0  0  0  0  0  0  0  0  0
    1.8121   -0.4961   -1.5262 C   0  0  2  0  0  0  0  0  0  0  0  0
    2.2806    0.6599   -2.3624 C   0  0  1  0  0  0  0  0  0  0  0  0
   -0.1659    0.4106    1.1940 H   0  0  0  0  0  0  0  0  0  0  0  0
   -0.6176    0.3102   -0.5183 H   0  0  0  0  0  0  0  0  0  0  0  0
   -0.2225   -1.1695    0.3886 H   0  0  0  0  0  0  0  0  0  0  0  0
    2.1272   -0.4310    0.6321 H   0  0  0  0  0  0  0  0  0  0  0  0
    2.5011    2.7563   -1.5706 H   0  0  0  0  0  0  0  0  0  0  0  0
    5.3125    0.0799   -1.6519 H   0  0  0  0  0  0  0  0  0  0  0  0
    4.4078   -0.3523   -0.1867 H   0  0  0  0  0  0  0  0  0  0  0  0
    3.5220   -1.1809   -2.7947 H   0  0  0  0  0  0  0  0  0  0  0  0
    1.1557   -1.2557   -1.9361 H   0  0  0  0  0  0  0  0  0  0  0  0
    1.9181    0.9263   -3.3458 H   0  0  0  0  0  0  0  0  0  0  0  0
  1 12  1  0  0  0  0
  1 10  1  0  0  0  0
  2  1  1  0  0  0  0
  2 13  1  1  0  0  0
  3  2  1  0  0  0  0
  4 14  1  6  0  0  0
  4  5  1  0  0  0  0
  4  3  1  0  0  0  0
  6  5  1  0  0  0  0
  6 16  1  0  0  0  0
  7 17  1  6  0  0  0
  7  8  1  0  0  0  0
  7  6  1  0  0  0  0
  8 18  1  6  0  0  0
  8  2  1  0  0  0  0
  9 19  1  6  0  0  0
  9  7  1  0  0  0  0
  9  8  1  0  0  0  0
  9  4  1  0  0  0  0
 11  1  1  0  0  0  0
 15  6  1  0  0  0  0
M TOR 0 0 1 2 3
M TOR 1 0 1 7 6
M TOR 2 0 1 7 8
M TOR 3 0 1 7 17
M TOR 4 1 2 3 4
M TOR 5 1 2 3 8
M TOR 6 1 2 3 13
M TOR 7 1 7 6 5
M TOR 8 1 7 6 8
M TOR 9 1 7 6 16
M TOR 10 1 7 8 3
M TOR 11 1 7 8 18
M TOR 12 2 1 0 9
M TOR 13 2 1 0 10
M TOR 14 2 1 0 11
M TOR 15 2 1 7 6
M TOR 16 2 1 7 8
M TOR 17 2 1 7 17
M TOR 18 2 3 4 5
M TOR 19 2 3 8 6
M TOR 20 2 3 8 7
M TOR 21 2 3 8 18
M TOR 22 3 2 1 7
M TOR 23 3 2 1 12
M TOR 24 3 4 5 6
M TOR 25 3 4 5 14
M TOR 26 3 4 5 15
M TOR 27 3 8 6 5
M TOR 28 3 8 6 7
M TOR 29 3 8 6 16
M TOR 30 3 8 7 17
M TOR 31 4 3 8 6
M TOR 32 4 3 8 7
M TOR 33 4 3 8 18
M TOR 34 4 5 6 7
M TOR 35 4 5 6 8
M TOR 36 4 5 6 16
M TOR 37 5 4 3 8
M TOR 38 5 4 3 13
M TOR 39 5 6 7 8
M TOR 40 5 6 7 17
M TOR 41 5 6 8 18
M TOR 42 6 7 1 12
M TOR 43 6 7 8 18
M TOR 44 6 8 3 13
M TOR 45 6 8 7 17
M TOR 46 7 1 0 9
M TOR 47 7 1 0 10
M TOR 48 7 1 0 11
M TOR 49 7 6 5 14
M TOR 50 7 6 5 15
M TOR 51 7 8 3 13
M TOR 52 7 8 6 16
M TOR 53 8 6 5 14
M TOR 54 8 6 5 15
M TOR 55 8 7 1 12
M  END
$$$$
