gdb 4499	2.5775054	1.5581798	1.145068	2.9795	75.92	-0.24218	-0.02209	0.22009	1100.3828	0.156794	-422.557991	-422.549531	-422.548586	-422.590946	31.887
 OpenBabel02181911413D

 19 20  0  0  1  0  0  0  0  0999 V2000
    0.8817    0.9726   -0.1526 C   0  0  0  0  0  0  0  0  0  0  0  0
    0.8385   -0.5229    0.1944 C   0  0  1  0  0  0  0  0  0  0  0  0
    1.2279   -1.3993   -1.0277 C   0  0  0  0  0  0  0  0  0  0  0  0
    2.6365   -1.6242   -0.9410 O   0  0  0  0  0  0  0  0  0  0  0  0
    2.9824   -1.6460    0.4058 C   0  0  2  0  0  0  0  0  0  0  0  0
    2.1736   -2.4319    1.3710 C   0  0  0  0  0  0  0  0  0  0  0  0
    1.8882   -0.9336    1.2300 C   0  0  2  0  0  0  0  0  0  0  0  0
    2.3078   -0.0752    2.3561 C   0  0  0  0  0  0  0  0  0  0  0  0
    3.0780   -0.4256    3.2237 O   0  0  0  0  0  0  0  0  0  0  0  0
    0.6044    1.6048    0.6950 H   0  0  0  0  0  0  0  0  0  0  0  0
    1.8818    1.2684   -0.4865 H   0  0  0  0  0  0  0  0  0  0  0  0
    0.1790    1.1892   -0.9632 H   0  0  0  0  0  0  0  0  0  0  0  0
   -0.1730   -0.7885    0.5218 H   0  0  0  0  0  0  0  0  0  0  0  0
    0.6886   -2.3553   -1.0175 H   0  0  0  0  0  0  0  0  0  0  0  0
    1.0317   -0.9098   -1.9850 H   0  0  0  0  0  0  0  0  0  0  0  0
    4.0348   -1.4564    0.5784 H   0  0  0  0  0  0  0  0  0  0  0  0
    1.4301   -3.1338    1.0113 H   0  0  0  0  0  0  0  0  0  0  0  0
    2.6603   -2.6940    2.3038 H   0  0  0  0  0  0  0  0  0  0  0  0
    1.8821    0.9497    2.3660 H   0  0  0  0  0  0  0  0  0  0  0  0
  1  2  1  0  0  0  0
  1 10  1  0  0  0  0
  2 13  1  1  0  0  0
  2  7  1  0  0  0  0
  3 14  1  0  0  0  0
  3  4  1  0  0  0  0
  3  2  1  0  0  0  0
  4  5  1  0  0  0  0
  5 16  1  1  0  0  0
  5  7  1  0  0  0  0
  5  6  1  0  0  0  0
  6 18  1  0  0  0  0
  7  6  1  0  0  0  0
  7  8  1  1  0  0  0
  8 19  1  0  0  0  0
  8  9  2  0  0  0  0
 11  1  1  0  0  0  0
 12  1  1  0  0  0  0
 15  3  1  0  0  0  0
 17  6  1  0  0  0  0
M TOR 0 0 1 2 3
M TOR 1 0 1 2 13
M TOR 2 0 1 2 14
M TOR 3 0 1 6 4
M TOR 4 0 1 6 5
M TOR 5 0 1 6 7
M TOR 6 1 2 3 4
M TOR 7 1 6 4 3
M TOR 8 1 6 4 5
M TOR 9 1 6 4 15
M TOR 10 1 6 5 16
M TOR 11 1 6 5 17
M TOR 12 1 6 7 8
M TOR 13 1 6 7 18
M TOR 14 2 1 0 9
M TOR 15 2 1 0 10
M TOR 16 2 1 0 11
M TOR 17 2 1 6 4
M TOR 18 2 1 6 5
M TOR 19 2 1 6 7
M TOR 20 2 3 4 5
M TOR 21 2 3 4 6
M TOR 22 2 3 4 15
M TOR 23 3 2 1 6
M TOR 24 3 2 1 12
M TOR 25 3 4 5 6
M TOR 26 3 4 5 16
M TOR 27 3 4 5 17
M TOR 28 3 4 6 7
M TOR 29 4 3 2 13
M TOR 30 4 3 2 14
M TOR 31 4 5 6 7
M TOR 32 4 6 1 12
M TOR 33 4 6 5 16
M TOR 34 4 6 5 17
M TOR 35 4 6 7 8
M TOR 36 4 6 7 18
M TOR 37 5 6 1 12
M TOR 38 5 6 4 15
M TOR 39 5 6 7 8
M TOR 40 5 6 7 18
M TOR 41 6 1 0 9
M TOR 42 6 1 0 10
M TOR 43 6 1 0 11
M TOR 44 6 1 2 13
M TOR 45 6 1 2 14
M TOR 46 7 6 1 12
M TOR 47 7 6 4 15
M TOR 48 7 6 5 16
M TOR 49 7 6 5 17
M  END
$$$$
