
     RDKit          3D

 19 21  0  0  0  0  0  0  0  0999 V2000
    0.2057   -0.1127    0.5397 O   0  0  0  0  0  0  0  0  0  0  0  0
   -0.9192    0.7383    0.6604 C   0  0  0  0  0  0  0  0  0  0  0  0
   -2.1900   -0.0267    1.1168 C   0  0  0  0  0  0  0  0  0  0  0  0
   -3.3997    0.9032    1.3907 C   0  0  0  0  0  0  0  0  0  0  0  0
   -3.6268    1.0591   -0.1314 C   0  0  0  0  0  0  0  0  0  0  0  0
   -4.9253    1.2007   -0.6169 O   0  0  0  0  0  0  0  0  0  0  0  0
   -2.6199    2.0094   -0.8033 C   0  0  0  0  0  0  0  0  0  0  0  0
   -1.5281    0.9128   -0.7459 C   0  0  0  0  0  0  0  0  0  0  0  0
   -2.6276   -0.1505   -0.3865 C   0  0  0  0  0  0  0  0  0  0  0  0
    0.4347   -0.4274    1.4206 H   0  0  0  0  0  0  0  0  0  0  0  0
   -0.6656    1.6559    1.2147 H   0  0  0  0  0  0  0  0  0  0  0  0
   -2.0326   -0.8702    1.7913 H   0  0  0  0  0  0  0  0  0  0  0  0
   -4.2215    0.3274    1.8338 H   0  0  0  0  0  0  0  0  0  0  0  0
   -3.2459    1.8084    1.9885 H   0  0  0  0  0  0  0  0  0  0  0  0
   -5.4979    0.5875   -0.1437 H   0  0  0  0  0  0  0  0  0  0  0  0
   -2.9348    2.1804   -1.8362 H   0  0  0  0  0  0  0  0  0  0  0  0
   -2.4207    2.9736   -0.3240 H   0  0  0  0  0  0  0  0  0  0  0  0
   -0.8265    0.8323   -1.5748 H   0  0  0  0  0  0  0  0  0  0  0  0
   -2.8457   -1.0668   -0.9287 H   0  0  0  0  0  0  0  0  0  0  0  0
  1  2  1  0
  2  3  1  0
  3  4  1  0
  4  5  1  0
  5  6  1  0
  5  7  1  0
  7  8  1  0
  8  9  1  0
  8  2  1  0
  9  3  1  0
  9  5  1  0
  1 10  1  0
  2 11  1  0
  3 12  1  0
  4 13  1  0
  4 14  1  0
  6 15  1  0
  7 16  1  0
  7 17  1  0
  8 18  1  0
  9 19  1  0
M  END
$$$$
