
     RDKit          3D

 19 20  0  0  0  0  0  0  0  0999 V2000
    1.2780    1.1131   -0.1696 C   0  0  0  0  0  0  0  0  0  0  0  0
    1.1388   -0.3713    0.1066 C   0  0  0  0  0  0  0  0  0  0  0  0
    1.9086   -1.3211   -0.7326 C   0  0  0  0  0  0  0  0  0  0  0  0
    2.5982   -0.9788   -1.8678 O   0  0  0  0  0  0  0  0  0  0  0  0
    1.5632   -2.7753   -0.4574 C   0  0  0  0  0  0  0  0  0  0  0  0
    1.8319   -2.5666    1.0670 C   0  0  0  0  0  0  0  0  0  0  0  0
    2.2685   -1.1243    0.8200 C   0  0  0  0  0  0  0  0  0  0  0  0
    3.4365   -0.5068    1.4352 C   0  0  0  0  0  0  0  0  0  0  0  0
    4.1424   -1.0595    2.2535 O   0  0  0  0  0  0  0  0  0  0  0  0
    1.0474    1.7027    0.7222 H   0  0  0  0  0  0  0  0  0  0  0  0
    2.2884    1.3902   -0.4866 H   0  0  0  0  0  0  0  0  0  0  0  0
    0.5809    1.4217   -0.9572 H   0  0  0  0  0  0  0  0  0  0  0  0
    0.1305   -0.6588    0.4118 H   0  0  0  0  0  0  0  0  0  0  0  0
    2.3586   -0.0861   -2.1386 H   0  0  0  0  0  0  0  0  0  0  0  0
    0.5580   -3.0878   -0.7609 H   0  0  0  0  0  0  0  0  0  0  0  0
    2.2943   -3.4463   -0.9129 H   0  0  0  0  0  0  0  0  0  0  0  0
    0.9606   -2.6810    1.7196 H   0  0  0  0  0  0  0  0  0  0  0  0
    2.6473   -3.1788    1.4524 H   0  0  0  0  0  0  0  0  0  0  0  0
    3.6746    0.5240    1.0915 H   0  0  0  0  0  0  0  0  0  0  0  0
  1  2  1  0
  2  3  1  0
  3  4  1  0
  3  5  1  0
  5  6  1  0
  6  7  1  0
  7  8  1  0
  8  9  2  0
  7  2  1  0
  7  3  1  0
  1 10  1  0
  1 11  1  0
  1 12  1  0
  2 13  1  0
  4 14  1  0
  5 15  1  0
  5 16  1  0
  6 17  1  0
  6 18  1  0
  8 19  1  0
M  END
$$$$
