gdb 2331	2.5588115	1.7164611	1.5235787	1.7681	74.38	-0.22296	0.06174	0.2847	974.9641	0.157149	-422.511856	-422.503962	-422.503018	-422.543981	31.021
 OpenBabel02181911413D

 19 21  0  0  1  0  0  0  0  0999 V2000
    0.0795    0.0052    0.5930 O   0  0  0  0  0  0  0  0  0  0  0  0
   -0.6008    1.2233    0.6069 C   0  0  1  0  0  0  0  0  0  0  0  0
   -2.0135    1.1050   -0.0461 C   0  0  0  0  0  0  0  0  0  0  0  0
   -2.7012    1.3339    1.3466 C   0  0  0  0  0  0  0  0  0  0  0  0
   -1.3534    1.8135    1.8475 C   0  0  1  0  0  0  0  0  0  0  0  0
   -0.8485    1.7829    3.1763 O   0  0  0  0  0  0  0  0  0  0  0  0
   -0.1501    3.0417    2.9637 C   0  0  0  0  0  0  0  0  0  0  0  0
   -0.7030    3.1875    1.5276 C   0  0  1  0  0  0  0  0  0  0  0  0
    0.1540    2.5633    0.3870 C   0  0  0  0  0  0  0  0  0  0  0  0
    0.6946    0.0052    1.3356 H   0  0  0  0  0  0  0  0  0  0  0  0
   -2.2322    1.8780   -0.7859 H   0  0  0  0  0  0  0  0  0  0  0  0
   -2.1831    0.1229   -0.4877 H   0  0  0  0  0  0  0  0  0  0  0  0
   -3.5461    2.0257    1.4016 H   0  0  0  0  0  0  0  0  0  0  0  0
   -2.9874    0.3833    1.8061 H   0  0  0  0  0  0  0  0  0  0  0  0
   -0.4920    3.8017    3.6749 H   0  0  0  0  0  0  0  0  0  0  0  0
    0.9378    2.9294    3.0522 H   0  0  0  0  0  0  0  0  0  0  0  0
   -1.2763    4.0893    1.3144 H   0  0  0  0  0  0  0  0  0  0  0  0
    0.0479    3.0185   -0.6019 H   0  0  0  0  0  0  0  0  0  0  0  0
    1.2217    2.5050    0.6263 H   0  0  0  0  0  0  0  0  0  0  0  0
  1 10  1  0  0  0  0
  2  1  1  1  0  0  0
  2  5  1  0  0  0  0
  3  2  1  0  0  0  0
  3  4  1  0  0  0  0
  4 13  1  0  0  0  0
  4 14  1  0  0  0  0
  4  5  1  0  0  0  0
  5  6  1  1  0  0  0
  7 16  1  0  0  0  0
  7  6  1  0  0  0  0
  7 15  1  0  0  0  0
  8 17  1  6  0  0  0
  8  5  1  0  0  0  0
  8  7  1  0  0  0  0
  9  2  1  0  0  0  0
  9 19  1  0  0  0  0
  9  8  1  0  0  0  0
 11  3  1  0  0  0  0
 12  3  1  0  0  0  0
 18  9  1  0  0  0  0
M TOR 0 0 1 2 3
M TOR 1 0 1 2 10
M TOR 2 0 1 2 11
M TOR 3 0 1 4 3
M TOR 4 0 1 4 5
M TOR 5 0 1 4 7
M TOR 6 0 1 8 7
M TOR 7 0 1 8 17
M TOR 8 0 1 8 18
M TOR 9 1 2 3 4
M TOR 10 1 2 3 12
M TOR 11 1 2 3 13
M TOR 12 1 4 3 12
M TOR 13 1 4 3 13
M TOR 14 1 4 5 6
M TOR 15 1 4 7 6
M TOR 16 1 4 7 8
M TOR 17 1 4 7 16
M TOR 18 1 8 7 6
M TOR 19 1 8 7 16
M TOR 20 2 1 0 9
M TOR 21 2 1 4 5
M TOR 22 2 1 4 7
M TOR 23 2 1 8 7
M TOR 24 2 1 8 17
M TOR 25 2 1 8 18
M TOR 26 2 3 4 5
M TOR 27 2 3 4 7
M TOR 28 3 2 1 8
M TOR 29 3 4 1 8
M TOR 30 3 4 5 6
M TOR 31 3 4 7 6
M TOR 32 3 4 7 8
M TOR 33 3 4 7 16
M TOR 34 4 1 0 9
M TOR 35 4 1 2 10
M TOR 36 4 1 2 11
M TOR 37 4 1 8 17
M TOR 38 4 1 8 18
M TOR 39 4 3 2 10
M TOR 40 4 3 2 11
M TOR 41 4 5 6 7
M TOR 42 4 5 6 14
M TOR 43 4 5 6 15
M TOR 44 4 7 6 14
M TOR 45 4 7 6 15
M TOR 46 4 7 8 17
M TOR 47 4 7 8 18
M TOR 48 5 4 1 8
M TOR 49 5 4 3 12
M TOR 50 5 4 3 13
M TOR 51 5 4 7 8
M TOR 52 5 4 7 16
M TOR 53 5 6 7 8
M TOR 54 5 6 7 16
M TOR 55 6 7 8 17
M TOR 56 6 7 8 18
M TOR 57 7 4 3 12
M TOR 58 7 4 3 13
M TOR 59 8 1 0 9
M TOR 60 8 1 2 10
M TOR 61 8 1 2 11
M TOR 62 8 7 6 14
M TOR 63 8 7 6 15
M  END
$$$$
