
     RDKit          3D

 19 21  0  0  0  0  0  0  0  0999 V2000
    1.6222    0.3830    0.0520 O   0  0  0  0  0  0  0  0  0  0  0  0
    0.2581    0.0874   -0.1692 C   0  0  0  0  0  0  0  0  0  0  0  0
   -0.0461    0.0222   -1.6506 C   0  0  0  0  0  0  0  0  0  0  0  0
    0.3000    1.3477   -2.2768 O   0  0  0  0  0  0  0  0  0  0  0  0
   -0.9264    1.1995   -3.0024 C   0  0  0  0  0  0  0  0  0  0  0  0
   -1.0159    0.1891   -4.1877 C   0  0  0  0  0  0  0  0  0  0  0  0
   -2.3459    0.1166   -3.4190 C   0  0  0  0  0  0  0  0  0  0  0  0
   -2.3358    1.7267   -3.3928 C   0  0  0  0  0  0  0  0  0  0  0  0
   -1.5492    0.1977   -2.0595 C   0  0  0  0  0  0  0  0  0  0  0  0
    1.8029    1.1964   -0.4346 H   0  0  0  0  0  0  0  0  0  0  0  0
    0.0570   -0.8871    0.2903 H   0  0  0  0  0  0  0  0  0  0  0  0
   -0.3996    0.8311    0.3064 H   0  0  0  0  0  0  0  0  0  0  0  0
    0.5371   -0.7640   -2.1351 H   0  0  0  0  0  0  0  0  0  0  0  0
   -1.0498    0.6135   -5.1928 H   0  0  0  0  0  0  0  0  0  0  0  0
   -0.3749   -0.6915   -4.1436 H   0  0  0  0  0  0  0  0  0  0  0  0
   -3.2174   -0.4919   -3.6629 H   0  0  0  0  0  0  0  0  0  0  0  0
   -2.4739    2.2193   -4.3599 H   0  0  0  0  0  0  0  0  0  0  0  0
   -2.9169    2.1992   -2.5985 H   0  0  0  0  0  0  0  0  0  0  0  0
   -2.1191    0.6269   -1.2324 H   0  0  0  0  0  0  0  0  0  0  0  0
  1  2  1  0
  2  3  1  0
  3  4  1  0
  4  5  1  0
  5  6  1  0
  6  7  1  0
  7  8  1  0
  7  9  1  0
  9  3  1  0
  8  5  1  0
  9  5  1  0
  1 10  1  0
  2 11  1  0
  2 12  1  0
  3 13  1  0
  6 14  1  0
  6 15  1  0
  7 16  1  0
  8 17  1  0
  8 18  1  0
  9 19  1  0
M  END
$$$$
