gdb 798	3.2586848	1.4012172	1.1779827	2.8937	74.68	-0.24816	-0.03532	0.21284	1083.8511	0.158112	-422.562667	-422.554797	-422.553852	-422.595101	30.235
 OpenBabel02181911403D

 19 20  0  0  1  0  0  0  0  0999 V2000
    0.5546   -1.0561    0.4809 O   0  0  0  0  0  0  0  0  0  0  0  0
    0.6425    0.0703    0.0649 C   0  0  0  0  0  0  0  0  0  0  0  0
    0.3166    1.3028    0.8701 C   0  0  1  0  0  0  0  0  0  0  0  0
   -0.9515    2.0854    0.4322 C   0  0  0  0  0  0  0  0  0  0  0  0
   -0.0384    3.2929    0.7103 C   0  0  1  0  0  0  0  0  0  0  0  0
   -0.0735    3.6846    2.1928 C   0  0  0  0  0  0  0  0  0  0  0  0
    0.5513    2.5410    3.0322 C   0  0  0  0  0  0  0  0  0  0  0  0
    0.3514    1.1432    2.3952 C   0  0  0  0  0  0  0  0  0  0  0  0
    1.1312    2.4468    0.4702 O   0  0  0  0  0  0  0  0  0  0  0  0
    0.9526    0.2970   -0.9798 H   0  0  0  0  0  0  0  0  0  0  0  0
   -1.1675    1.9644   -0.6317 H   0  0  0  0  0  0  0  0  0  0  0  0
   -1.8573    1.9547    1.0271 H   0  0  0  0  0  0  0  0  0  0  0  0
   -0.0736    4.1442    0.0262 H   0  0  0  0  0  0  0  0  0  0  0  0
    0.4861    4.6103    2.3601 H   0  0  0  0  0  0  0  0  0  0  0  0
   -1.1121    3.8865    2.4817 H   0  0  0  0  0  0  0  0  0  0  0  0
    1.6262    2.7259    3.0926 H   0  0  0  0  0  0  0  0  0  0  0  0
    0.1718    2.5570    4.0575 H   0  0  0  0  0  0  0  0  0  0  0  0
    1.1625    0.4716    2.6902 H   0  0  0  0  0  0  0  0  0  0  0  0
   -0.5792    0.6689    2.7234 H   0  0  0  0  0  0  0  0  0  0  0  0
  2  1  2  0  0  0  0
  3  2  1  6  0  0  0
  3  8  1  0  0  0  0
  4  5  1  0  0  0  0
  4  3  1  0  0  0  0
  4 12  1  0  0  0  0
  5 13  1  6  0  0  0
  5  6  1  0  0  0  0
  6 14  1  0  0  0  0
  6 15  1  0  0  0  0
  6  7  1  0  0  0  0
  7 16  1  0  0  0  0
  7 17  1  0  0  0  0
  8 18  1  0  0  0  0
  8 19  1  0  0  0  0
  8  7  1  0  0  0  0
  9  5  1  0  0  0  0
  9  3  1  0  0  0  0
 10  2  1  0  0  0  0
 11  4  1  0  0  0  0
M TOR 0 0 1 2 3
M TOR 1 0 1 2 7
M TOR 2 0 1 2 8
M TOR 3 1 2 3 4
M TOR 4 1 2 3 10
M TOR 5 1 2 3 11
M TOR 6 1 2 7 6
M TOR 7 1 2 7 17
M TOR 8 1 2 7 18
M TOR 9 1 2 8 4
M TOR 10 2 3 4 5
M TOR 11 2 3 4 8
M TOR 12 2 3 4 12
M TOR 13 2 7 6 5
M TOR 14 2 7 6 15
M TOR 15 2 7 6 16
M TOR 16 2 8 4 5
M TOR 17 2 8 4 12
M TOR 18 3 2 1 9
M TOR 19 3 2 7 6
M TOR 20 3 2 7 17
M TOR 21 3 2 7 18
M TOR 22 3 4 5 6
M TOR 23 3 4 5 13
M TOR 24 3 4 5 14
M TOR 25 4 3 2 7
M TOR 26 4 5 6 7
M TOR 27 4 5 6 15
M TOR 28 4 5 6 16
M TOR 29 4 8 2 7
M TOR 30 5 4 3 10
M TOR 31 5 4 3 11
M TOR 32 5 6 7 17
M TOR 33 5 6 7 18
M TOR 34 6 5 4 8
M TOR 35 6 5 4 12
M TOR 36 6 7 2 8
M TOR 37 7 2 1 9
M TOR 38 7 2 3 10
M TOR 39 7 2 3 11
M TOR 40 7 6 5 13
M TOR 41 7 6 5 14
M TOR 42 8 2 1 9
M TOR 43 8 2 3 10
M TOR 44 8 2 3 11
M TOR 45 8 2 7 17
M TOR 46 8 2 7 18
M TOR 47 8 4 3 10
M TOR 48 8 4 3 11
M TOR 49 8 4 5 13
M TOR 50 8 4 5 14
M  END
$$$$
