gdb 3327	2.1646647	2.0458025	1.6036321	1.6375	74.82	-0.2324	-0.00217	0.23023	949.1544	0.157809	-422.568523	-422.560733	-422.559789	-422.600018	31.575
 OpenBabel02181911413D

 19 20  0  0  1  0  0  0  0  0999 V2000
    1.5759   -2.5770   -1.6920 C   0  0  0  0  0  0  0  0  0  0  0  0
    0.4571   -1.7090   -1.1785 C   0  0  1  0  0  0  0  0  0  0  0  0
   -0.5898   -1.5997   -2.1903 O   0  0  0  0  0  0  0  0  0  0  0  0
   -1.4026   -0.4758   -1.8243 C   0  0  0  0  0  0  0  0  0  0  0  0
   -0.7460    0.0576   -0.5210 C   0  0  1  0  0  0  0  0  0  0  0  0
   -0.9527   -1.0347    0.5156 C   0  0  0  0  0  0  0  0  0  0  0  0
   -0.2393   -2.0989    0.1221 C   0  0  0  0  0  0  0  0  0  0  0  0
    0.7402   -0.2073   -0.9038 C   0  0  1  0  0  0  0  0  0  0  0  0
    1.7069    0.0879    0.0666 O   0  0  0  0  0  0  0  0  0  0  0  0
    2.4152   -2.5490   -0.9908 H   0  0  0  0  0  0  0  0  0  0  0  0
    1.2505   -3.6151   -1.8085 H   0  0  0  0  0  0  0  0  0  0  0  0
    1.9216   -2.2151   -2.6641 H   0  0  0  0  0  0  0  0  0  0  0  0
   -1.3713    0.2745   -2.6245 H   0  0  0  0  0  0  0  0  0  0  0  0
   -2.4417   -0.7935   -1.6777 H   0  0  0  0  0  0  0  0  0  0  0  0
   -1.0221    1.0744   -0.2451 H   0  0  0  0  0  0  0  0  0  0  0  0
   -1.6475   -0.9777    1.3447 H   0  0  0  0  0  0  0  0  0  0  0  0
   -0.2294   -3.0904    0.5582 H   0  0  0  0  0  0  0  0  0  0  0  0
    1.0480    0.3110   -1.8161 H   0  0  0  0  0  0  0  0  0  0  0  0
    1.4312   -0.3549    0.8797 H   0  0  0  0  0  0  0  0  0  0  0  0
  1 10  1  0  0  0  0
  2  1  1  6  0  0  0
  2  8  1  0  0  0  0
  2  7  1  0  0  0  0
  3  4  1  0  0  0  0
  3  2  1  0  0  0  0
  4 14  1  0  0  0  0
  4  5  1  0  0  0  0
  5 15  1  1  0  0  0
  5  6  1  0  0  0  0
  6 16  1  0  0  0  0
  7  6  2  0  0  0  0
  7 17  1  0  0  0  0
  8 18  1  6  0  0  0
  8  5  1  0  0  0  0
  8  9  1  0  0  0  0
  9 19  1  0  0  0  0
 11  1  1  0  0  0  0
 12  1  1  0  0  0  0
 13  4  1  0  0  0  0
M TOR 0 0 1 2 3
M TOR 1 0 1 6 5
M TOR 2 0 1 6 16
M TOR 3 0 1 7 4
M TOR 4 0 1 7 8
M TOR 5 0 1 7 17
M TOR 6 1 2 3 4
M TOR 7 1 2 3 12
M TOR 8 1 2 3 13
M TOR 9 1 6 5 4
M TOR 10 1 6 5 15
M TOR 11 1 7 4 3
M TOR 12 1 7 4 5
M TOR 13 1 7 4 14
M TOR 14 1 7 8 18
M TOR 15 2 1 0 9
M TOR 16 2 1 0 10
M TOR 17 2 1 0 11
M TOR 18 2 1 6 5
M TOR 19 2 1 6 16
M TOR 20 2 1 7 4
M TOR 21 2 1 7 8
M TOR 22 2 1 7 17
M TOR 23 2 3 4 5
M TOR 24 2 3 4 7
M TOR 25 2 3 4 14
M TOR 26 3 2 1 6
M TOR 27 3 2 1 7
M TOR 28 3 4 5 6
M TOR 29 3 4 5 15
M TOR 30 3 4 7 8
M TOR 31 3 4 7 17
M TOR 32 4 5 6 16
M TOR 33 4 7 1 6
M TOR 34 4 7 8 18
M TOR 35 5 4 3 12
M TOR 36 5 4 3 13
M TOR 37 5 4 7 8
M TOR 38 5 4 7 17
M TOR 39 5 6 1 7
M TOR 40 6 1 0 9
M TOR 41 6 1 0 10
M TOR 42 6 1 0 11
M TOR 43 6 1 7 8
M TOR 44 6 1 7 17
M TOR 45 6 5 4 7
M TOR 46 6 5 4 14
M TOR 47 7 1 0 9
M TOR 48 7 1 0 10
M TOR 49 7 1 0 11
M TOR 50 7 1 6 16
M TOR 51 7 4 3 12
M TOR 52 7 4 3 13
M TOR 53 7 4 5 15
M TOR 54 8 7 4 14
M  END
$$$$
