
     RDKit          3D

 19 20  0  0  0  0  0  0  0  0999 V2000
    1.6011   -0.7974   -0.6874 C   0  0  0  0  0  0  0  0  0  0  0  0
    0.8611    0.2789    0.1276 C   0  0  0  0  0  0  0  0  0  0  0  0
    1.5413    1.6146    0.0991 C   0  0  0  0  0  0  0  0  0  0  0  0
    1.0974    2.7610   -0.4276 C   0  0  0  0  0  0  0  0  0  0  0  0
    2.0542    3.9278   -0.2238 C   0  0  0  0  0  0  0  0  0  0  0  0
    1.4743    5.0026    0.4978 O   0  0  0  0  0  0  0  0  0  0  0  0
    3.2161    3.2721    0.5332 C   0  0  0  0  0  0  0  0  0  0  0  0
    2.8067    2.8233    1.8336 O   0  0  0  0  0  0  0  0  0  0  0  0
    2.8803    1.8640    0.7425 C   0  0  0  0  0  0  0  0  0  0  0  0
    2.6179   -0.9577   -0.3141 H   0  0  0  0  0  0  0  0  0  0  0  0
    1.0740   -1.7545   -0.6318 H   0  0  0  0  0  0  0  0  0  0  0  0
    1.6738   -0.5082   -1.7403 H   0  0  0  0  0  0  0  0  0  0  0  0
   -0.1606    0.3867   -0.2520 H   0  0  0  0  0  0  0  0  0  0  0  0
    0.7758   -0.0600    1.1692 H   0  0  0  0  0  0  0  0  0  0  0  0
    0.1229    2.9094   -0.8804 H   0  0  0  0  0  0  0  0  0  0  0  0
    2.3920    4.3563   -1.1744 H   0  0  0  0  0  0  0  0  0  0  0  0
    1.3234    4.6597    1.3888 H   0  0  0  0  0  0  0  0  0  0  0  0
    4.2281    3.6600    0.4657 H   0  0  0  0  0  0  0  0  0  0  0  0
    3.6202    1.0814    0.8785 H   0  0  0  0  0  0  0  0  0  0  0  0
  1  2  1  0
  2  3  1  0
  3  4  2  0
  4  5  1  0
  5  6  1  0
  5  7  1  0
  7  8  1  0
  8  9  1  0
  9  3  1  0
  9  7  1  0
  1 10  1  0
  1 11  1  0
  1 12  1  0
  2 13  1  0
  2 14  1  0
  4 15  1  0
  5 16  1  0
  6 17  1  0
  7 18  1  0
  9 19  1  0
M  END
$$$$
