gdb 5064	2.8933834	1.1746922	0.9811548	3.0317	78.39	-0.2551	-0.03762	0.21748	1269.7886	0.154651	-422.537895	-422.528665	-422.527721	-422.572187	33.451
 OpenBabel02181911413D

 19 20  0  0  1  0  0  0  0  0999 V2000
    2.0423    1.7085   -0.3683 C   0  0  0  0  0  0  0  0  0  0  0  0
    1.5402    0.3139    0.0365 C   0  0  0  0  0  0  0  0  0  0  0  0
    2.0432   -0.7517   -0.8897 C   0  0  1  0  0  0  0  0  0  0  0  0
    3.4779   -1.3018   -1.0252 C   0  0  0  0  0  0  0  0  0  0  0  0
    2.8786   -2.6792   -1.4707 C   0  0  0  0  0  0  0  0  0  0  0  0
    1.4815   -2.0764   -1.3289 C   0  0  2  0  0  0  0  0  0  0  0  0
    1.4195   -0.9002   -2.1581 O   0  0  0  0  0  0  0  0  0  0  0  0
    0.2142   -2.7154   -0.9410 C   0  0  0  0  0  0  0  0  0  0  0  0
    0.1273   -3.8672   -0.5866 O   0  0  0  0  0  0  0  0  0  0  0  0
    1.6658    2.4690    0.3213 H   0  0  0  0  0  0  0  0  0  0  0  0
    3.1359    1.7564   -0.3556 H   0  0  0  0  0  0  0  0  0  0  0  0
    1.7048    1.9640   -1.3768 H   0  0  0  0  0  0  0  0  0  0  0  0
    1.8685    0.0794    1.0561 H   0  0  0  0  0  0  0  0  0  0  0  0
    0.4456    0.2970    0.0374 H   0  0  0  0  0  0  0  0  0  0  0  0
    4.0979   -0.7766   -1.7549 H   0  0  0  0  0  0  0  0  0  0  0  0
    4.0053   -1.3599   -0.0704 H   0  0  0  0  0  0  0  0  0  0  0  0
    3.1282   -3.0250   -2.4755 H   0  0  0  0  0  0  0  0  0  0  0  0
    3.0583   -3.4782   -0.7501 H   0  0  0  0  0  0  0  0  0  0  0  0
   -0.6662   -2.0388   -0.9881 H   0  0  0  0  0  0  0  0  0  0  0  0
  1 11  1  0  0  0  0
  1  2  1  0  0  0  0
  1 10  1  0  0  0  0
  2 14  1  0  0  0  0
  2 13  1  0  0  0  0
  3  2  1  1  0  0  0
  4  3  1  0  0  0  0
  4 16  1  0  0  0  0
  5  6  1  0  0  0  0
  5  4  1  0  0  0  0
  5 18  1  0  0  0  0
  6  8  1  1  0  0  0
  6  3  1  0  0  0  0
  7  6  1  0  0  0  0
  7  3  1  0  0  0  0
  8  9  2  0  0  0  0
 12  1  1  0  0  0  0
 15  4  1  0  0  0  0
 17  5  1  0  0  0  0
 19  8  1  0  0  0  0
M TOR 0 0 1 2 3
M TOR 1 0 1 2 5
M TOR 2 0 1 2 6
M TOR 3 1 2 3 4
M TOR 4 1 2 3 14
M TOR 5 1 2 3 15
M TOR 6 1 2 5 4
M TOR 7 1 2 5 6
M TOR 8 1 2 5 7
M TOR 9 2 1 0 9
M TOR 10 2 1 0 10
M TOR 11 2 1 0 11
M TOR 12 2 3 4 5
M TOR 13 2 3 4 16
M TOR 14 2 3 4 17
M TOR 15 2 5 4 16
M TOR 16 2 5 4 17
M TOR 17 2 5 7 8
M TOR 18 2 5 7 18
M TOR 19 2 6 5 4
M TOR 20 2 6 5 7
M TOR 21 3 2 1 12
M TOR 22 3 2 1 13
M TOR 23 3 2 5 6
M TOR 24 3 2 5 7
M TOR 25 3 4 5 6
M TOR 26 3 4 5 7
M TOR 27 4 3 2 6
M TOR 28 4 5 7 8
M TOR 29 4 5 7 18
M TOR 30 5 2 1 12
M TOR 31 5 2 1 13
M TOR 32 5 2 3 14
M TOR 33 5 2 3 15
M TOR 34 5 4 3 14
M TOR 35 5 4 3 15
M TOR 36 6 2 1 12
M TOR 37 6 2 1 13
M TOR 38 6 2 3 14
M TOR 39 6 2 3 15
M TOR 40 6 5 4 16
M TOR 41 6 5 4 17
M TOR 42 6 5 7 8
M TOR 43 6 5 7 18
M TOR 44 7 5 4 16
M TOR 45 7 5 4 17
M  END
$$$$
