gdb 762	2.4604669	1.7386654	1.1610917	2.593	76.27	-0.2307	-0.019	0.2117	1084.1719	0.157473	-422.5674	-422.559278	-422.558333	-422.600168	31.314
 OpenBabel02181911403D

 19 20  0  0  0  0  0  0  0  0999 V2000
    0.9086    0.0488   -0.7470 O   0  0  0  0  0  0  0  0  0  0  0  0
   -0.1841    0.0579   -0.2223 C   0  0  0  0  0  0  0  0  0  0  0  0
   -0.8737    1.3615    0.1699 C   0  0  0  0  0  0  0  0  0  0  0  0
   -1.9900    1.1954    1.2106 C   0  0  0  0  0  0  0  0  0  0  0  0
   -2.8156   -0.0471    0.8907 C   0  0  0  0  0  0  0  0  0  0  0  0
   -1.9883   -1.2026    0.9329 O   0  0  0  0  0  0  0  0  0  0  0  0
   -0.9766   -1.2053   -0.0351 C   0  0  0  0  0  0  0  0  0  0  0  0
   -1.2143   -2.0291   -1.3052 C   0  0  0  0  0  0  0  0  0  0  0  0
   -0.2861   -2.5202   -0.2313 C   0  0  0  0  0  0  0  0  0  0  0  0
   -0.1058    2.0771    0.4750 H   0  0  0  0  0  0  0  0  0  0  0  0
   -1.3016    1.7502   -0.7658 H   0  0  0  0  0  0  0  0  0  0  0  0
   -1.5609    1.0732    2.2114 H   0  0  0  0  0  0  0  0  0  0  0  0
   -2.6281    2.0855    1.2352 H   0  0  0  0  0  0  0  0  0  0  0  0
   -3.5981   -0.2119    1.6360 H   0  0  0  0  0  0  0  0  0  0  0  0
   -3.2967    0.0458   -0.0969 H   0  0  0  0  0  0  0  0  0  0  0  0
   -2.1924   -2.4907   -1.3799 H   0  0  0  0  0  0  0  0  0  0  0  0
   -0.7851   -1.6639   -2.2310 H   0  0  0  0  0  0  0  0  0  0  0  0
   -0.6318   -3.3258    0.4055 H   0  0  0  0  0  0  0  0  0  0  0  0
    0.7798   -2.4753   -0.4189 H   0  0  0  0  0  0  0  0  0  0  0  0
  1  2  2  0  0  0  0
  2  7  1  0  0  0  0
  2  3  1  0  0  0  0
  3 10  1  0  0  0  0
  3  4  1  0  0  0  0
  4 13  1  0  0  0  0
  4 12  1  0  0  0  0
  5  6  1  0  0  0  0
  5  4  1  0  0  0  0
  5 14  1  0  0  0  0
  7  6  1  0  0  0  0
  8  9  1  0  0  0  0
  8  7  1  0  0  0  0
  9  7  1  0  0  0  0
  9 18  1  0  0  0  0
 11  3  1  0  0  0  0
 15  5  1  0  0  0  0
 16  8  1  0  0  0  0
 17  8  1  0  0  0  0
 19  9  1  0  0  0  0
M TOR 0 0 1 2 3
M TOR 1 0 1 2 9
M TOR 2 0 1 2 10
M TOR 3 0 1 6 5
M TOR 4 0 1 6 7
M TOR 5 0 1 6 8
M TOR 6 1 2 3 4
M TOR 7 1 2 3 11
M TOR 8 1 2 3 12
M TOR 9 1 6 5 4
M TOR 10 1 6 7 8
M TOR 11 1 6 7 15
M TOR 12 1 6 7 16
M TOR 13 1 6 8 17
M TOR 14 1 6 8 18
M TOR 15 2 1 6 5
M TOR 16 2 1 6 7
M TOR 17 2 1 6 8
M TOR 18 2 3 4 5
M TOR 19 2 3 4 13
M TOR 20 2 3 4 14
M TOR 21 3 2 1 6
M TOR 22 3 4 5 6
M TOR 23 4 3 2 9
M TOR 24 4 3 2 10
M TOR 25 4 5 6 7
M TOR 26 4 5 6 8
M TOR 27 5 4 3 11
M TOR 28 5 4 3 12
M TOR 29 5 6 7 8
M TOR 30 5 6 7 15
M TOR 31 5 6 7 16
M TOR 32 5 6 8 17
M TOR 33 5 6 8 18
M TOR 34 6 1 2 9
M TOR 35 6 1 2 10
M TOR 36 6 5 4 13
M TOR 37 6 5 4 14
M TOR 38 6 7 8 17
M TOR 39 6 7 8 18
M TOR 40 6 8 7 15
M TOR 41 6 8 7 16
M  END
$$$$
