gdb 2276	2.5061946	1.9196487	1.6423438	0.4374	72.3	-0.24932	0.06595	0.31527	916.6078	0.159193	-422.554902	-422.547872	-422.546928	-422.585633	29.697
 OpenBabel02181911413D

 19 21  0  0  1  0  0  0  0  0999 V2000
    0.3223    0.2204   -0.2685 O   0  0  0  0  0  0  0  0  0  0  0  0
   -0.9148    0.5125    0.3317 C   0  0  2  0  0  0  0  0  0  0  0  0
   -1.3491   -0.4002    1.5059 C   0  0  0  0  0  0  0  0  0  0  0  0
   -2.8921   -0.1800    1.5699 C   0  0  0  0  0  0  0  0  0  0  0  0
   -3.1521    0.8316    0.4227 C   0  0  2  0  0  0  0  0  0  0  0  0
   -2.1170    0.3662   -0.6327 C   0  0  0  0  0  0  0  0  0  0  0  0
   -2.5462    2.2020    0.8062 C   0  0  1  0  0  0  0  0  0  0  0  0
   -1.7569    2.2205    2.0074 O   0  0  0  0  0  0  0  0  0  0  0  0
   -1.0954    1.9977    0.7535 C   0  0  1  0  0  0  0  0  0  0  0  0
    0.9958    0.2121    0.4199 H   0  0  0  0  0  0  0  0  0  0  0  0
   -1.0887   -1.4331    1.2573 H   0  0  0  0  0  0  0  0  0  0  0  0
   -0.8550   -0.1300    2.4419 H   0  0  0  0  0  0  0  0  0  0  0  0
   -3.4347   -1.1087    1.3731 H   0  0  0  0  0  0  0  0  0  0  0  0
   -3.2149    0.2057    2.5376 H   0  0  0  0  0  0  0  0  0  0  0  0
   -4.1902    0.8876    0.0944 H   0  0  0  0  0  0  0  0  0  0  0  0
   -2.2631   -0.6597   -0.9860 H   0  0  0  0  0  0  0  0  0  0  0  0
   -2.0409    1.0379   -1.4928 H   0  0  0  0  0  0  0  0  0  0  0  0
   -3.0504    3.1336    0.5664 H   0  0  0  0  0  0  0  0  0  0  0  0
   -0.3580    2.7377    0.4537 H   0  0  0  0  0  0  0  0  0  0  0  0
  1 10  1  0  0  0  0
  2  1  1  6  0  0  0
  2  9  1  0  0  0  0
  2  3  1  0  0  0  0
  3  4  1  0  0  0  0
  3 12  1  0  0  0  0
  4 14  1  0  0  0  0
  5 15  1  6  0  0  0
  5  7  1  0  0  0  0
  5  4  1  0  0  0  0
  6  2  1  0  0  0  0
  6  5  1  0  0  0  0
  7 18  1  6  0  0  0
  7  8  1  0  0  0  0
  9 19  1  6  0  0  0
  9  7  1  0  0  0  0
  9  8  1  0  0  0  0
 11  3  1  0  0  0  0
 13  4  1  0  0  0  0
 16  6  1  0  0  0  0
 17  6  1  0  0  0  0
M TOR 0 0 1 2 3
M TOR 1 0 1 2 10
M TOR 2 0 1 2 11
M TOR 3 0 1 5 4
M TOR 4 0 1 5 15
M TOR 5 0 1 5 16
M TOR 6 0 1 8 6
M TOR 7 0 1 8 7
M TOR 8 0 1 8 18
M TOR 9 1 2 3 4
M TOR 10 1 2 3 12
M TOR 11 1 2 3 13
M TOR 12 1 5 4 3
M TOR 13 1 5 4 6
M TOR 14 1 5 4 14
M TOR 15 1 8 6 4
M TOR 16 1 8 6 7
M TOR 17 1 8 6 17
M TOR 18 2 1 0 9
M TOR 19 2 1 5 4
M TOR 20 2 1 5 15
M TOR 21 2 1 5 16
M TOR 22 2 1 8 6
M TOR 23 2 1 8 7
M TOR 24 2 1 8 18
M TOR 25 2 3 4 5
M TOR 26 2 3 4 6
M TOR 27 2 3 4 14
M TOR 28 3 2 1 5
M TOR 29 3 2 1 8
M TOR 30 3 4 5 15
M TOR 31 3 4 5 16
M TOR 32 3 4 6 7
M TOR 33 3 4 6 8
M TOR 34 3 4 6 17
M TOR 35 4 3 2 10
M TOR 36 4 3 2 11
M TOR 37 4 5 1 8
M TOR 38 4 6 7 8
M TOR 39 4 6 8 18
M TOR 40 5 1 0 9
M TOR 41 5 1 2 10
M TOR 42 5 1 2 11
M TOR 43 5 1 8 6
M TOR 44 5 1 8 7
M TOR 45 5 1 8 18
M TOR 46 5 4 3 12
M TOR 47 5 4 3 13
M TOR 48 5 4 6 7
M TOR 49 5 4 6 8
M TOR 50 5 4 6 17
M TOR 51 6 4 3 12
M TOR 52 6 4 3 13
M TOR 53 6 4 5 15
M TOR 54 6 4 5 16
M TOR 55 6 7 8 18
M TOR 56 7 6 4 14
M TOR 57 7 8 6 17
M TOR 58 8 1 0 9
M TOR 59 8 1 2 10
M TOR 60 8 1 2 11
M TOR 61 8 1 5 15
M TOR 62 8 1 5 16
M TOR 63 8 6 4 14
M  END
$$$$
