
     RDKit          3D

 19 20  0  0  0  0  0  0  0  0999 V2000
   -1.1798    5.0534    0.0118 C   0  0  0  0  0  0  0  0  0  0  0  0
   -0.0115    4.3996    0.7770 C   0  0  0  0  0  0  0  0  0  0  0  0
   -0.7548    3.0776    0.4937 C   0  0  0  0  0  0  0  0  0  0  0  0
   -1.7875    3.7678   -0.2483 O   0  0  0  0  0  0  0  0  0  0  0  0
   -0.0435    2.0455   -0.3816 C   0  0  0  0  0  0  0  0  0  0  0  0
    1.0165    1.4466    0.3673 O   0  0  0  0  0  0  0  0  0  0  0  0
    0.8593    0.0281    0.4032 C   0  0  0  0  0  0  0  0  0  0  0  0
   -0.4169   -0.2421   -0.3432 C   0  0  0  0  0  0  0  0  0  0  0  0
   -0.9241    0.8986   -0.7955 C   0  0  0  0  0  0  0  0  0  0  0  0
   -1.8354    5.6974    0.6109 H   0  0  0  0  0  0  0  0  0  0  0  0
   -0.9221    5.5778   -0.9160 H   0  0  0  0  0  0  0  0  0  0  0  0
    0.9661    4.4793    0.2981 H   0  0  0  0  0  0  0  0  0  0  0  0
    0.0813    4.6732    1.8282 H   0  0  0  0  0  0  0  0  0  0  0  0
   -1.1615    2.5749    1.3811 H   0  0  0  0  0  0  0  0  0  0  0  0
    0.3736    2.5727   -1.2567 H   0  0  0  0  0  0  0  0  0  0  0  0
    1.7306   -0.4578   -0.0648 H   0  0  0  0  0  0  0  0  0  0  0  0
    0.8217   -0.3152    1.4485 H   0  0  0  0  0  0  0  0  0  0  0  0
   -0.8253   -1.2361   -0.4753 H   0  0  0  0  0  0  0  0  0  0  0  0
   -1.8308    1.0405   -1.3676 H   0  0  0  0  0  0  0  0  0  0  0  0
  1  2  1  0
  2  3  1  0
  3  4  1  0
  3  5  1  0
  5  6  1  0
  6  7  1  0
  7  8  1  0
  8  9  2  0
  4  1  1  0
  9  5  1  0
  1 10  1  0
  1 11  1  0
  2 12  1  0
  2 13  1  0
  3 14  1  0
  5 15  1  0
  7 16  1  0
  7 17  1  0
  8 18  1  0
  9 19  1  0
M  END
$$$$
