
     RDKit          3D

 19 21  0  0  0  0  0  0  0  0999 V2000
    1.4274    0.8911    0.1235 O   0  0  0  0  0  0  0  0  0  0  0  0
    0.4702   -0.0662    0.5376 C   0  0  0  0  0  0  0  0  0  0  0  0
   -0.8323    0.5917    0.9033 C   0  0  0  0  0  0  0  0  0  0  0  0
   -2.1062   -0.1213    1.4131 C   0  0  0  0  0  0  0  0  0  0  0  0
   -2.7483    1.2374    1.0961 C   0  0  0  0  0  0  0  0  0  0  0  0
   -1.8041    2.3455    1.7303 C   0  0  0  0  0  0  0  0  0  0  0  0
   -1.5646    2.9227    0.3181 C   0  0  0  0  0  0  0  0  0  0  0  0
   -1.7346    1.4528   -0.0865 C   0  0  0  0  0  0  0  0  0  0  0  0
   -0.6141    1.5682    1.9506 O   0  0  0  0  0  0  0  0  0  0  0  0
    1.4226    1.5731    0.8060 H   0  0  0  0  0  0  0  0  0  0  0  0
    0.3206   -0.7568   -0.2984 H   0  0  0  0  0  0  0  0  0  0  0  0
    0.8293   -0.6556    1.3978 H   0  0  0  0  0  0  0  0  0  0  0  0
   -2.4653   -0.8905    0.7235 H   0  0  0  0  0  0  0  0  0  0  0  0
   -2.0853   -0.4947    2.4400 H   0  0  0  0  0  0  0  0  0  0  0  0
   -3.8178    1.4267    1.0288 H   0  0  0  0  0  0  0  0  0  0  0  0
   -2.0498    2.9421    2.6073 H   0  0  0  0  0  0  0  0  0  0  0  0
   -2.4042    3.5267   -0.0373 H   0  0  0  0  0  0  0  0  0  0  0  0
   -0.6149    3.4333    0.1416 H   0  0  0  0  0  0  0  0  0  0  0  0
   -1.8862    1.0898   -1.1010 H   0  0  0  0  0  0  0  0  0  0  0  0
  1  2  1  0
  2  3  1  0
  3  4  1  0
  4  5  1  0
  5  6  1  0
  6  7  1  0
  7  8  1  0
  6  9  1  0
  8  3  1  0
  9  3  1  0
  8  5  1  0
  1 10  1  0
  2 11  1  0
  2 12  1  0
  4 13  1  0
  4 14  1  0
  5 15  1  0
  6 16  1  0
  7 17  1  0
  7 18  1  0
  8 19  1  0
M  END
$$$$
