gdb 4356	2.3816185	1.6306044	1.2900244	4.735	75.05	-0.25547	0.01297	0.26843999999999996	1061.1121	0.158644	-422.591958	-422.583924	-422.58298	-422.624382	30.963
 OpenBabel02181911413D

 19 20  0  0  1  0  0  0  0  0999 V2000
   -3.6856   -0.6206    0.1659 C   0  0  0  0  0  0  0  0  0  0  0  0
   -2.8213   -0.2093   -1.0353 C   0  0  2  0  0  0  0  0  0  0  0  0
   -1.6918   -1.2114   -1.2930 C   0  0  0  0  0  0  0  0  0  0  0  0
   -0.6669   -1.1988   -0.2881 O   0  0  0  0  0  0  0  0  0  0  0  0
   -0.2142   -0.0328    0.2477 C   0  0  0  0  0  0  0  0  0  0  0  0
    0.6767   -0.0728    1.0540 O   0  0  0  0  0  0  0  0  0  0  0  0
   -0.8878    1.2366   -0.1516 C   0  0  1  0  0  0  0  0  0  0  0  0
   -1.0469    1.6376   -1.6121 C   0  0  0  0  0  0  0  0  0  0  0  0
   -2.2414    1.1790   -0.8350 C   0  0  1  0  0  0  0  0  0  0  0  0
   -4.1558   -1.5942   -0.0041 H   0  0  0  0  0  0  0  0  0  0  0  0
   -3.0859   -0.6906    1.0782 H   0  0  0  0  0  0  0  0  0  0  0  0
   -4.4807    0.1107    0.3422 H   0  0  0  0  0  0  0  0  0  0  0  0
   -3.4476   -0.2127   -1.9379 H   0  0  0  0  0  0  0  0  0  0  0  0
   -2.0789   -2.2336   -1.2870 H   0  0  0  0  0  0  0  0  0  0  0  0
   -1.2310   -1.0428   -2.2730 H   0  0  0  0  0  0  0  0  0  0  0  0
   -0.6753    2.0338    0.5493 H   0  0  0  0  0  0  0  0  0  0  0  0
   -0.9505    2.6970   -1.8195 H   0  0  0  0  0  0  0  0  0  0  0  0
   -0.6239    1.0019   -2.3803 H   0  0  0  0  0  0  0  0  0  0  0  0
   -2.9579    1.9406   -0.5417 H   0  0  0  0  0  0  0  0  0  0  0  0
  1 12  1  0  0  0  0
  1 11  1  0  0  0  0
  2 13  1  6  0  0  0
  2  9  1  0  0  0  0
  2  1  1  0  0  0  0
  3 14  1  0  0  0  0
  3  2  1  0  0  0  0
  3  4  1  0  0  0  0
  4  5  1  0  0  0  0
  5  6  2  0  0  0  0
  7  5  1  0  0  0  0
  7 16  1  1  0  0  0
  8  9  1  0  0  0  0
  8  7  1  0  0  0  0
  9 19  1  1  0  0  0
  9  7  1  0  0  0  0
 10  1  1  0  0  0  0
 15  3  1  0  0  0  0
 17  8  1  0  0  0  0
 18  8  1  0  0  0  0
M TOR 0 0 1 2 3
M TOR 1 0 1 2 13
M TOR 2 0 1 2 14
M TOR 3 0 1 8 6
M TOR 4 0 1 8 7
M TOR 5 0 1 8 18
M TOR 6 1 2 3 4
M TOR 7 1 8 6 4
M TOR 8 1 8 6 7
M TOR 9 1 8 6 15
M TOR 10 1 8 7 16
M TOR 11 1 8 7 17
M TOR 12 2 1 0 9
M TOR 13 2 1 0 10
M TOR 14 2 1 0 11
M TOR 15 2 1 8 6
M TOR 16 2 1 8 7
M TOR 17 2 1 8 18
M TOR 18 2 3 4 5
M TOR 19 2 3 4 6
M TOR 20 3 2 1 8
M TOR 21 3 2 1 12
M TOR 22 3 4 6 7
M TOR 23 3 4 6 8
M TOR 24 3 4 6 15
M TOR 25 4 3 2 13
M TOR 26 4 3 2 14
M TOR 27 4 6 7 8
M TOR 28 4 6 7 16
M TOR 29 4 6 7 17
M TOR 30 4 6 8 18
M TOR 31 5 4 6 7
M TOR 32 5 4 6 8
M TOR 33 5 4 6 15
M TOR 34 6 7 8 18
M TOR 35 6 8 1 12
M TOR 36 6 8 7 16
M TOR 37 6 8 7 17
M TOR 38 7 8 1 12
M TOR 39 7 8 6 15
M TOR 40 8 1 0 9
M TOR 41 8 1 0 10
M TOR 42 8 1 0 11
M TOR 43 8 1 2 13
M TOR 44 8 1 2 14
M  END
$$$$
