
     RDKit          3D

 19 20  0  0  0  0  0  0  0  0999 V2000
    1.3475   -0.1832    0.0798 C   0  0  0  0  0  0  0  0  0  0  0  0
   -0.0403    0.1028    0.0223 O   0  0  0  0  0  0  0  0  0  0  0  0
   -0.5483    0.7932    1.1103 C   0  0  0  0  0  0  0  0  0  0  0  0
   -1.9168    0.4230    1.5355 C   0  0  0  0  0  0  0  0  0  0  0  0
   -0.7429    0.1202    2.4778 C   0  0  0  0  0  0  0  0  0  0  0  0
   -0.4476    1.1465    3.5160 C   0  0  0  0  0  0  0  0  0  0  0  0
   -0.1933    0.9409    4.6776 O   0  0  0  0  0  0  0  0  0  0  0  0
   -0.4338    2.5262    2.8329 C   0  0  0  0  0  0  0  0  0  0  0  0
   -0.1263    2.2460    1.3466 C   0  0  0  0  0  0  0  0  0  0  0  0
    1.6099   -0.7131    1.0053 H   0  0  0  0  0  0  0  0  0  0  0  0
    1.5683   -0.8244   -0.7760 H   0  0  0  0  0  0  0  0  0  0  0  0
    1.9639    0.7224    0.0061 H   0  0  0  0  0  0  0  0  0  0  0  0
   -2.6365    1.1886    1.8059 H   0  0  0  0  0  0  0  0  0  0  0  0
   -2.3377   -0.4533    1.0564 H   0  0  0  0  0  0  0  0  0  0  0  0
   -0.5013   -0.9164    2.6741 H   0  0  0  0  0  0  0  0  0  0  0  0
   -1.4186    2.9907    2.9629 H   0  0  0  0  0  0  0  0  0  0  0  0
    0.2916    3.1772    3.3237 H   0  0  0  0  0  0  0  0  0  0  0  0
   -0.6358    2.9290    0.6599 H   0  0  0  0  0  0  0  0  0  0  0  0
    0.9488    2.3455    1.1671 H   0  0  0  0  0  0  0  0  0  0  0  0
  1  2  1  0
  2  3  1  0
  3  4  1  0
  4  5  1  0
  5  6  1  0
  6  7  2  0
  6  8  1  0
  8  9  1  0
  5  3  1  0
  9  3  1  0
  1 10  1  0
  1 11  1  0
  1 12  1  0
  4 13  1  0
  4 14  1  0
  5 15  1  0
  8 16  1  0
  8 17  1  0
  9 18  1  0
  9 19  1  0
M  END
$$$$
