gdb 5772	3.7391672	1.1177497	1.1015718	2.85	75.9	-0.23731	-0.00507	0.23224	1186.1973	0.157639	-422.551151	-422.542994	-422.54205	-422.583953	30.846
 OpenBabel02181911423D

 19 20  0  0  1  0  0  0  0  0999 V2000
    1.3729   -0.0877   -0.1307 C   0  0  0  0  0  0  0  0  0  0  0  0
   -0.0132   -0.1369    0.1253 O   0  0  0  0  0  0  0  0  0  0  0  0
   -0.4180    0.6721    1.2089 C   0  0  2  0  0  0  0  0  0  0  0  0
   -0.1044    0.0484    2.6219 C   0  0  0  0  0  0  0  0  0  0  0  0
   -1.5435   -0.1483    3.1522 C   0  0  2  0  0  0  0  0  0  0  0  0
   -2.2750   -0.6963    1.8821 C   0  0  0  0  0  0  0  0  0  0  0  0
   -1.9526    0.7108    1.2700 C   0  0  1  0  0  0  0  0  0  0  0  0
   -2.1708    1.1906    2.7223 C   0  0  0  0  0  0  0  0  0  0  0  0
   -2.7301    2.1022    3.2534 O   0  0  0  0  0  0  0  0  0  0  0  0
    1.9683   -0.4661    0.7137 H   0  0  0  0  0  0  0  0  0  0  0  0
    1.5626   -0.7188   -1.0019 H   0  0  0  0  0  0  0  0  0  0  0  0
    1.7062    0.9378   -0.3538 H   0  0  0  0  0  0  0  0  0  0  0  0
    0.0135    1.6775    1.0990 H   0  0  0  0  0  0  0  0  0  0  0  0
    0.4174   -0.9061    2.5100 H   0  0  0  0  0  0  0  0  0  0  0  0
    0.4964    0.7038    3.2576 H   0  0  0  0  0  0  0  0  0  0  0  0
   -1.6787   -0.5713    4.1454 H   0  0  0  0  0  0  0  0  0  0  0  0
   -1.8096   -1.5444    1.3791 H   0  0  0  0  0  0  0  0  0  0  0  0
   -3.3422   -0.8612    2.0358 H   0  0  0  0  0  0  0  0  0  0  0  0
   -2.4820    1.1328    0.4195 H   0  0  0  0  0  0  0  0  0  0  0  0
  1  2  1  0  0  0  0
  1 10  1  0  0  0  0
  2  3  1  0  0  0  0
  3 13  1  6  0  0  0
  3  7  1  0  0  0  0
  3  4  1  0  0  0  0
  4  5  1  0  0  0  0
  4 15  1  0  0  0  0
  5 16  1  1  0  0  0
  6 18  1  0  0  0  0
  6  5  1  0  0  0  0
  7 19  1  6  0  0  0
  7  6  1  0  0  0  0
  7  8  1  0  0  0  0
  8  5  1  0  0  0  0
  8  9  2  0  0  0  0
 11  1  1  0  0  0  0
 12  1  1  0  0  0  0
 14  4  1  0  0  0  0
 17  6  1  0  0  0  0
M TOR 0 0 1 2 3
M TOR 1 0 1 2 6
M TOR 2 0 1 2 12
M TOR 3 1 2 3 4
M TOR 4 1 2 3 13
M TOR 5 1 2 3 14
M TOR 6 1 2 6 5
M TOR 7 1 2 6 7
M TOR 8 1 2 6 18
M TOR 9 2 1 0 9
M TOR 10 2 1 0 10
M TOR 11 2 1 0 11
M TOR 12 2 3 4 5
M TOR 13 2 3 4 7
M TOR 14 2 3 4 15
M TOR 15 2 6 5 4
M TOR 16 2 6 5 16
M TOR 17 2 6 5 17
M TOR 18 2 6 7 4
M TOR 19 2 6 7 8
M TOR 20 3 2 6 5
M TOR 21 3 2 6 7
M TOR 22 3 2 6 18
M TOR 23 3 4 5 6
M TOR 24 3 4 5 16
M TOR 25 3 4 5 17
M TOR 26 3 4 7 6
M TOR 27 3 4 7 8
M TOR 28 4 3 2 6
M TOR 29 4 3 2 12
M TOR 30 4 5 6 7
M TOR 31 4 5 6 18
M TOR 32 4 7 6 18
M TOR 33 5 4 3 13
M TOR 34 5 4 3 14
M TOR 35 5 4 7 8
M TOR 36 5 6 2 12
M TOR 37 5 6 7 8
M TOR 38 6 2 3 13
M TOR 39 6 2 3 14
M TOR 40 6 5 4 15
M TOR 41 6 7 4 15
M TOR 42 7 4 3 13
M TOR 43 7 4 3 14
M TOR 44 7 4 5 16
M TOR 45 7 4 5 17
M TOR 46 7 6 2 12
M TOR 47 7 6 5 16
M TOR 48 7 6 5 17
M TOR 49 8 7 4 15
M TOR 50 8 7 6 18
M  END
$$$$
