gdb 2034	2.6697453	1.872137	1.3279071	0.7973	74.05	-0.23323	0.07328	0.30651	996.0179	0.157566	-422.526119	-422.51831	-422.517366	-422.558337	30.211
 OpenBabel02181911403D

 19 21  0  0  1  0  0  0  0  0999 V2000
    1.3084    1.7076    1.1307 C   0  0  0  0  0  0  0  0  0  0  0  0
    2.1641    0.7506    0.3377 C   0  0  1  0  0  0  0  0  0  0  0  0
    2.5166    1.0222   -1.1162 C   0  0  0  0  0  0  0  0  0  0  0  0
    3.5899    1.0091   -0.0573 C   0  0  2  0  0  0  0  0  0  0  0  0
    4.3744   -0.1628    0.0182 O   0  0  0  0  0  0  0  0  0  0  0  0
    3.5685   -1.2279    0.4936 C   0  0  1  0  0  0  0  0  0  0  0  0
    3.5548   -1.4389    2.0237 C   0  0  0  0  0  0  0  0  0  0  0  0
    2.1912   -0.9657    2.1202 O   0  0  0  0  0  0  0  0  0  0  0  0
    2.1197   -0.7262    0.6956 C   0  0  1  0  0  0  0  0  0  0  0  0
    1.4331    1.5304    2.2025 H   0  0  0  0  0  0  0  0  0  0  0  0
    1.5771    2.7465    0.9162 H   0  0  0  0  0  0  0  0  0  0  0  0
    0.2467    1.5830    0.8874 H   0  0  0  0  0  0  0  0  0  0  0  0
    2.5118    0.2001   -1.8258 H   0  0  0  0  0  0  0  0  0  0  0  0
    2.2051    1.9776   -1.5267 H   0  0  0  0  0  0  0  0  0  0  0  0
    4.1376    1.9051    0.2125 H   0  0  0  0  0  0  0  0  0  0  0  0
    3.7470   -2.1154   -0.1156 H   0  0  0  0  0  0  0  0  0  0  0  0
    3.6446   -2.4775    2.3630 H   0  0  0  0  0  0  0  0  0  0  0  0
    4.2634   -0.8062    2.5695 H   0  0  0  0  0  0  0  0  0  0  0  0
    1.2882   -1.2752    0.2388 H   0  0  0  0  0  0  0  0  0  0  0  0
  1 10  1  0  0  0  0
  2  9  1  0  0  0  0
  2  1  1  1  0  0  0
  3  4  1  0  0  0  0
  3  2  1  0  0  0  0
  4  5  1  0  0  0  0
  4 15  1  1  0  0  0
  4  2  1  0  0  0  0
  5  6  1  0  0  0  0
  6 16  1  6  0  0  0
  6  9  1  0  0  0  0
  6  7  1  0  0  0  0
  7  8  1  0  0  0  0
  7 17  1  0  0  0  0
  7 18  1  0  0  0  0
  9 19  1  6  0  0  0
  9  8  1  0  0  0  0
 11  1  1  0  0  0  0
 12  1  1  0  0  0  0
 13  3  1  0  0  0  0
 14  3  1  0  0  0  0
M TOR 0 0 1 2 3
M TOR 1 0 1 2 12
M TOR 2 0 1 2 13
M TOR 3 0 1 3 4
M TOR 4 0 1 3 14
M TOR 5 0 1 8 5
M TOR 6 0 1 8 7
M TOR 7 0 1 8 18
M TOR 8 1 2 3 4
M TOR 9 1 2 3 14
M TOR 10 1 3 2 12
M TOR 11 1 3 2 13
M TOR 12 1 3 4 5
M TOR 13 1 8 5 4
M TOR 14 1 8 5 6
M TOR 15 1 8 5 15
M TOR 16 1 8 7 6
M TOR 17 2 1 0 9
M TOR 18 2 1 0 10
M TOR 19 2 1 0 11
M TOR 20 2 1 8 5
M TOR 21 2 1 8 7
M TOR 22 2 1 8 18
M TOR 23 2 3 1 8
M TOR 24 2 3 4 5
M TOR 25 3 1 0 9
M TOR 26 3 1 0 10
M TOR 27 3 1 0 11
M TOR 28 3 1 8 5
M TOR 29 3 1 8 7
M TOR 30 3 1 8 18
M TOR 31 3 4 5 6
M TOR 32 3 4 5 8
M TOR 33 3 4 5 15
M TOR 34 4 3 1 8
M TOR 35 4 3 2 12
M TOR 36 4 3 2 13
M TOR 37 4 5 6 7
M TOR 38 4 5 6 16
M TOR 39 4 5 6 17
M TOR 40 4 5 8 7
M TOR 41 4 5 8 18
M TOR 42 5 4 3 14
M TOR 43 5 6 7 8
M TOR 44 6 5 8 18
M TOR 45 6 7 8 18
M TOR 46 7 6 5 15
M TOR 47 7 8 5 15
M TOR 48 8 1 0 9
M TOR 49 8 1 0 10
M TOR 50 8 1 0 11
M TOR 51 8 1 2 12
M TOR 52 8 1 2 13
M TOR 53 8 1 3 14
M TOR 54 8 5 6 16
M TOR 55 8 5 6 17
M TOR 56 8 7 6 16
M TOR 57 8 7 6 17
M  END
$$$$
