gdb 4100	2.1620265	1.5861021	1.434807	2.2117	75.65	-0.24403	-0.02668	0.21735	1052.585	0.155524	-422.555094	-422.546184	-422.54524	-422.588717	33.439
 OpenBabel02181911413D

 19 20  0  0  1  0  0  0  0  0999 V2000
   -0.6667   -1.5726   -2.6130 C   0  0  0  0  0  0  0  0  0  0  0  0
   -1.6271   -1.6120   -1.4313 C   0  0  2  0  0  0  0  0  0  0  0  0
   -2.7475   -0.5316   -1.3186 C   0  0  0  0  0  0  0  0  0  0  0  0
   -2.2118   -0.0822    0.0558 C   0  0  2  0  0  0  0  0  0  0  0  0
   -1.0867    0.9866   -0.0375 C   0  0  0  0  0  0  0  0  0  0  0  0
   -0.0591   -0.1438    0.1256 C   0  0  0  0  0  0  0  0  0  0  0  0
    1.0528   -0.1840    0.5822 O   0  0  0  0  0  0  0  0  0  0  0  0
   -1.0898   -1.2541   -0.0138 C   0  0  2  0  0  0  0  0  0  0  0  0
   -0.9116   -2.3552    0.8067 O   0  0  0  0  0  0  0  0  0  0  0  0
    0.1541   -2.2837   -2.4742 H   0  0  0  0  0  0  0  0  0  0  0  0
   -1.1836   -1.8341   -3.5426 H   0  0  0  0  0  0  0  0  0  0  0  0
   -0.2288   -0.5774   -2.7484 H   0  0  0  0  0  0  0  0  0  0  0  0
   -2.0570   -2.6138   -1.3392 H   0  0  0  0  0  0  0  0  0  0  0  0
   -2.7322    0.2456   -2.0888 H   0  0  0  0  0  0  0  0  0  0  0  0
   -3.7513   -0.9605   -1.2865 H   0  0  0  0  0  0  0  0  0  0  0  0
   -2.8988    0.0176    0.8942 H   0  0  0  0  0  0  0  0  0  0  0  0
   -1.0402    1.5388   -0.9803 H   0  0  0  0  0  0  0  0  0  0  0  0
   -1.0362    1.7026    0.7874 H   0  0  0  0  0  0  0  0  0  0  0  0
   -0.1993   -2.1477    1.4257 H   0  0  0  0  0  0  0  0  0  0  0  0
  1 10  1  0  0  0  0
  1  2  1  0  0  0  0
  2 13  1  1  0  0  0
  2  3  1  0  0  0  0
  2  8  1  0  0  0  0
  3 15  1  0  0  0  0
  3  4  1  0  0  0  0
  4 16  1  1  0  0  0
  5  4  1  0  0  0  0
  5  6  1  0  0  0  0
  5 18  1  0  0  0  0
  6  7  2  0  0  0  0
  8  4  1  0  0  0  0
  8  6  1  0  0  0  0
  8  9  1  1  0  0  0
  9 19  1  0  0  0  0
 11  1  1  0  0  0  0
 12  1  1  0  0  0  0
 14  3  1  0  0  0  0
 17  5  1  0  0  0  0
M TOR 0 0 1 2 3
M TOR 1 0 1 2 13
M TOR 2 0 1 2 14
M TOR 3 0 1 7 3
M TOR 4 0 1 7 5
M TOR 5 0 1 7 8
M TOR 6 1 2 3 4
M TOR 7 1 2 3 7
M TOR 8 1 2 3 15
M TOR 9 1 7 3 4
M TOR 10 1 7 3 15
M TOR 11 1 7 5 4
M TOR 12 1 7 5 6
M TOR 13 1 7 8 18
M TOR 14 2 1 0 9
M TOR 15 2 1 0 10
M TOR 16 2 1 0 11
M TOR 17 2 1 7 5
M TOR 18 2 1 7 8
M TOR 19 2 3 4 5
M TOR 20 2 3 4 16
M TOR 21 2 3 4 17
M TOR 22 2 3 7 5
M TOR 23 2 3 7 8
M TOR 24 3 2 1 12
M TOR 25 3 4 5 6
M TOR 26 3 4 5 7
M TOR 27 3 7 1 12
M TOR 28 3 7 5 6
M TOR 29 3 7 8 18
M TOR 30 4 3 2 13
M TOR 31 4 3 2 14
M TOR 32 4 3 7 8
M TOR 33 4 5 7 8
M TOR 34 5 4 3 15
M TOR 35 5 7 1 12
M TOR 36 5 7 3 15
M TOR 37 5 7 8 18
M TOR 38 6 5 4 16
M TOR 39 6 5 4 17
M TOR 40 6 5 7 8
M TOR 41 7 1 0 9
M TOR 42 7 1 0 10
M TOR 43 7 1 0 11
M TOR 44 7 1 2 13
M TOR 45 7 1 2 14
M TOR 46 7 3 2 13
M TOR 47 7 3 2 14
M TOR 48 7 3 4 16
M TOR 49 7 3 4 17
M TOR 50 7 5 4 16
M TOR 51 7 5 4 17
M TOR 52 8 7 1 12
M TOR 53 8 7 3 15
M  END
$$$$
