gdb 955	2.7400871	0.9062769	0.748478	3.8144	77.9	-0.24729	-0.02693	0.22036	1513.4592	0.154206	-422.566979	-422.557265	-422.556321	-422.602736	34.039
 OpenBabel02181911403D

 19 19  0  0  0  0  0  0  0  0999 V2000
    1.3674   -0.2723    0.2461 O   0  0  0  0  0  0  0  0  0  0  0  0
    0.2187   -0.0627   -0.0485 C   0  0  0  0  0  0  0  0  0  0  0  0
   -0.2391    0.8033   -1.1977 C   0  0  0  0  0  0  0  0  0  0  0  0
   -1.1708    1.9350   -0.7182 C   0  0  0  0  0  0  0  0  0  0  0  0
   -1.7230    2.7750   -1.8544 C   0  0  0  0  0  0  0  0  0  0  0  0
   -1.9780    4.2666   -1.6377 C   0  0  0  0  0  0  0  0  0  0  0  0
   -0.8468    3.8406   -2.5076 C   0  0  0  0  0  0  0  0  0  0  0  0
   -2.6997    2.1157   -2.7548 C   0  0  0  0  0  0  0  0  0  0  0  0
   -3.0910    0.9792   -2.6372 O   0  0  0  0  0  0  0  0  0  0  0  0
   -0.6138   -0.5144    0.5416 H   0  0  0  0  0  0  0  0  0  0  0  0
    0.6420    1.1966   -1.7126 H   0  0  0  0  0  0  0  0  0  0  0  0
   -0.8014    0.1665   -1.8918 H   0  0  0  0  0  0  0  0  0  0  0  0
   -2.0103    1.5004   -0.1629 H   0  0  0  0  0  0  0  0  0  0  0  0
   -0.6283    2.5846   -0.0221 H   0  0  0  0  0  0  0  0  0  0  0  0
   -2.8543    4.7036   -2.1050 H   0  0  0  0  0  0  0  0  0  0  0  0
   -1.7625    4.6477   -0.6459 H   0  0  0  0  0  0  0  0  0  0  0  0
   -0.9346    3.9848   -3.5794 H   0  0  0  0  0  0  0  0  0  0  0  0
    0.1645    3.9239   -2.1254 H   0  0  0  0  0  0  0  0  0  0  0  0
   -3.0723    2.7686   -3.5793 H   0  0  0  0  0  0  0  0  0  0  0  0
  2  1  2  0  0  0  0
  2 10  1  0  0  0  0
  3  4  1  0  0  0  0
  3  2  1  0  0  0  0
  4 13  1  0  0  0  0
  4 14  1  0  0  0  0
  5  6  1  0  0  0  0
  5  4  1  0  0  0  0
  6 16  1  0  0  0  0
  7 18  1  0  0  0  0
  7  5  1  0  0  0  0
  7  6  1  0  0  0  0
  8  9  2  0  0  0  0
  8  5  1  0  0  0  0
 11  3  1  0  0  0  0
 12  3  1  0  0  0  0
 15  6  1  0  0  0  0
 17  7  1  0  0  0  0
 19  8  1  0  0  0  0
M TOR 0 0 1 2 3
M TOR 1 0 1 2 10
M TOR 2 0 1 2 11
M TOR 3 1 2 3 4
M TOR 4 1 2 3 12
M TOR 5 1 2 3 13
M TOR 6 2 3 4 5
M TOR 7 2 3 4 6
M TOR 8 2 3 4 7
M TOR 9 3 2 1 9
M TOR 10 3 4 5 6
M TOR 11 3 4 5 14
M TOR 12 3 4 5 15
M TOR 13 3 4 6 16
M TOR 14 3 4 6 17
M TOR 15 3 4 7 8
M TOR 16 3 4 7 18
M TOR 17 4 3 2 10
M TOR 18 4 3 2 11
M TOR 19 4 5 6 16
M TOR 20 4 5 6 17
M TOR 21 4 6 5 14
M TOR 22 4 6 5 15
M TOR 23 5 4 3 12
M TOR 24 5 4 3 13
M TOR 25 5 4 7 8
M TOR 26 5 4 7 18
M TOR 27 5 6 4 7
M TOR 28 6 4 3 12
M TOR 29 6 4 3 13
M TOR 30 6 4 7 8
M TOR 31 6 4 7 18
M TOR 32 7 4 3 12
M TOR 33 7 4 3 13
M TOR 34 7 4 5 14
M TOR 35 7 4 5 15
M TOR 36 7 4 6 16
M TOR 37 7 4 6 17
M  END
$$$$
