gdb 3540	2.451361	1.6010494	1.2038727	2.0183	76.36	-0.23675	-0.02147	0.21528	1097.7816	0.155954	-422.571117	-422.562528	-422.561584	-422.604413	32.586
 OpenBabel02181911413D

 19 20  0  0  1  0  0  0  0  0999 V2000
   -3.0541   -0.9231    0.9627 C   0  0  0  0  0  0  0  0  0  0  0  0
   -2.3811   -0.8315   -0.4050 C   0  0  2  0  0  0  0  0  0  0  0  0
   -0.9309   -1.3425   -0.4105 C   0  0  0  0  0  0  0  0  0  0  0  0
   -0.1153   -0.0666   -0.1950 C   0  0  0  0  0  0  0  0  0  0  0  0
    1.0458    0.0250    0.1174 O   0  0  0  0  0  0  0  0  0  0  0  0
   -1.0604    1.0640   -0.4405 C   0  0  0  0  0  0  0  0  0  0  0  0
   -0.5884    2.3700   -1.0101 C   0  0  0  0  0  0  0  0  0  0  0  0
   -0.9852    2.2992    0.4395 C   0  0  0  0  0  0  0  0  0  0  0  0
   -2.2942    0.5423   -0.8481 O   0  0  0  0  0  0  0  0  0  0  0  0
   -2.4483   -0.4374    1.7350 H   0  0  0  0  0  0  0  0  0  0  0  0
   -4.0317   -0.4348    0.9354 H   0  0  0  0  0  0  0  0  0  0  0  0
   -3.1963   -1.9702    1.2504 H   0  0  0  0  0  0  0  0  0  0  0  0
   -2.9961   -1.3402   -1.1522 H   0  0  0  0  0  0  0  0  0  0  0  0
   -0.7071   -2.0915    0.3515 H   0  0  0  0  0  0  0  0  0  0  0  0
   -0.6548   -1.7588   -1.3861 H   0  0  0  0  0  0  0  0  0  0  0  0
    0.4665    2.4417   -1.2522 H   0  0  0  0  0  0  0  0  0  0  0  0
   -1.2685    2.8586   -1.6986 H   0  0  0  0  0  0  0  0  0  0  0  0
   -0.2034    2.3242    1.1909 H   0  0  0  0  0  0  0  0  0  0  0  0
   -1.9377    2.7318    0.7235 H   0  0  0  0  0  0  0  0  0  0  0  0
  1 12  1  0  0  0  0
  1 10  1  0  0  0  0
  2 13  1  6  0  0  0
  2  1  1  0  0  0  0
  3  2  1  0  0  0  0
  3  4  1  0  0  0  0
  3 14  1  0  0  0  0
  4  5  2  0  0  0  0
  6  4  1  0  0  0  0
  6  8  1  0  0  0  0
  7  6  1  0  0  0  0
  7  8  1  0  0  0  0
  8 19  1  0  0  0  0
  8 18  1  0  0  0  0
  9  6  1  0  0  0  0
  9  2  1  0  0  0  0
 11  1  1  0  0  0  0
 15  3  1  0  0  0  0
 16  7  1  0  0  0  0
 17  7  1  0  0  0  0
M TOR 0 0 1 2 3
M TOR 1 0 1 2 13
M TOR 2 0 1 2 14
M TOR 3 0 1 8 5
M TOR 4 1 2 3 4
M TOR 5 1 2 3 5
M TOR 6 1 8 5 3
M TOR 7 1 8 5 6
M TOR 8 1 8 5 7
M TOR 9 2 1 0 9
M TOR 10 2 1 0 10
M TOR 11 2 1 0 11
M TOR 12 2 1 8 5
M TOR 13 2 3 5 6
M TOR 14 2 3 5 7
M TOR 15 2 3 5 8
M TOR 16 3 2 1 8
M TOR 17 3 2 1 12
M TOR 18 3 5 6 7
M TOR 19 3 5 6 15
M TOR 20 3 5 6 16
M TOR 21 3 5 7 17
M TOR 22 3 5 7 18
M TOR 23 4 3 2 13
M TOR 24 4 3 2 14
M TOR 25 4 3 5 6
M TOR 26 4 3 5 7
M TOR 27 4 3 5 8
M TOR 28 5 3 2 13
M TOR 29 5 3 2 14
M TOR 30 5 6 7 17
M TOR 31 5 6 7 18
M TOR 32 5 7 6 15
M TOR 33 5 7 6 16
M TOR 34 5 8 1 12
M TOR 35 6 7 5 8
M TOR 36 8 1 0 9
M TOR 37 8 1 0 10
M TOR 38 8 1 0 11
M TOR 39 8 1 2 13
M TOR 40 8 1 2 14
M TOR 41 8 5 6 15
M TOR 42 8 5 6 16
M TOR 43 8 5 7 17
M TOR 44 8 5 7 18
M  END
$$$$
