gdb 1477	2.6597603	1.4106779	1.2331708	2.4008	76.4	-0.24129	-0.02225	0.21904	1108.3894	0.155511	-422.564509	-422.555629	-422.554684	-422.597825	33.089
 OpenBabel02181911403D

 19 20  0  0  1  0  0  0  0  0999 V2000
   -1.4420   -0.7990    2.5626 C   0  0  0  0  0  0  0  0  0  0  0  0
   -1.8409   -1.3843    1.2232 C   0  0  0  0  0  0  0  0  0  0  0  0
   -2.4320   -2.7811    1.3048 C   0  0  0  0  0  0  0  0  0  0  0  0
   -2.3456   -0.5132    0.1164 C   0  0  1  0  0  0  0  0  0  0  0  0
   -2.2058    0.8828    0.2646 O   0  0  0  0  0  0  0  0  0  0  0  0
   -0.8519    1.2690    0.0760 C   0  0  0  0  0  0  0  0  0  0  0  0
   -0.0235   -0.0131   -0.0889 C   0  0  0  0  0  0  0  0  0  0  0  0
    1.1629   -0.0521   -0.2958 O   0  0  0  0  0  0  0  0  0  0  0  0
   -0.9857   -1.1537   -0.0484 C   0  0  1  0  0  0  0  0  0  0  0  0
   -0.6085   -1.3576    3.0010 H   0  0  0  0  0  0  0  0  0  0  0  0
   -1.1534    0.2506    2.4953 H   0  0  0  0  0  0  0  0  0  0  0  0
   -2.2863   -0.8584    3.2586 H   0  0  0  0  0  0  0  0  0  0  0  0
   -3.3025   -2.7884    1.9703 H   0  0  0  0  0  0  0  0  0  0  0  0
   -2.7549   -3.1433    0.3240 H   0  0  0  0  0  0  0  0  0  0  0  0
   -1.7005   -3.4940    1.7006 H   0  0  0  0  0  0  0  0  0  0  0  0
   -3.2146   -0.7933   -0.4714 H   0  0  0  0  0  0  0  0  0  0  0  0
   -0.7502    1.8813   -0.8307 H   0  0  0  0  0  0  0  0  0  0  0  0
   -0.4951    1.8627    0.9259 H   0  0  0  0  0  0  0  0  0  0  0  0
   -0.7746   -2.0069   -0.6810 H   0  0  0  0  0  0  0  0  0  0  0  0
  1 10  1  0  0  0  0
  1 12  1  0  0  0  0
  2  3  1  0  0  0  0
  2  1  1  0  0  0  0
  3 15  1  0  0  0  0
  3 13  1  0  0  0  0
  4 16  1  6  0  0  0
  4  5  1  0  0  0  0
  4  2  1  0  0  0  0
  6  5  1  0  0  0  0
  6 18  1  0  0  0  0
  7  9  1  0  0  0  0
  7  6  1  0  0  0  0
  8  7  2  0  0  0  0
  9 19  1  6  0  0  0
  9  4  1  0  0  0  0
  9  2  1  0  0  0  0
 11  1  1  0  0  0  0
 14  3  1  0  0  0  0
 17  6  1  0  0  0  0
M TOR 0 0 1 2 12
M TOR 1 0 1 2 13
M TOR 2 0 1 2 14
M TOR 3 0 1 3 4
M TOR 4 0 1 3 8
M TOR 5 0 1 3 15
M TOR 6 0 1 8 6
M TOR 7 0 1 8 18
M TOR 8 1 3 4 5
M TOR 9 1 3 8 6
M TOR 10 1 3 8 18
M TOR 11 1 8 3 4
M TOR 12 1 8 3 15
M TOR 13 1 8 6 5
M TOR 14 1 8 6 7
M TOR 15 2 1 0 9
M TOR 16 2 1 0 10
M TOR 17 2 1 0 11
M TOR 18 2 1 3 4
M TOR 19 2 1 3 8
M TOR 20 2 1 3 15
M TOR 21 2 1 8 6
M TOR 22 2 1 8 18
M TOR 23 3 1 0 9
M TOR 24 3 1 0 10
M TOR 25 3 1 0 11
M TOR 26 3 1 2 12
M TOR 27 3 1 2 13
M TOR 28 3 1 2 14
M TOR 29 3 4 5 6
M TOR 30 3 4 5 16
M TOR 31 3 4 5 17
M TOR 32 3 8 6 5
M TOR 33 3 8 6 7
M TOR 34 4 3 8 6
M TOR 35 4 3 8 18
M TOR 36 4 5 6 7
M TOR 37 4 5 6 8
M TOR 38 5 4 3 8
M TOR 39 5 4 3 15
M TOR 40 5 6 8 18
M TOR 41 6 8 3 15
M TOR 42 7 6 5 16
M TOR 43 7 6 5 17
M TOR 44 7 6 8 18
M TOR 45 8 1 0 9
M TOR 46 8 1 0 10
M TOR 47 8 1 0 11
M TOR 48 8 1 2 12
M TOR 49 8 1 2 13
M TOR 50 8 1 2 14
M TOR 51 8 6 5 16
M TOR 52 8 6 5 17
M  END
$$$$
