gdb 842	3.7977516	1.0542989	0.9848425	3.2955	75.79	-0.25002	-0.02266	0.22736	1238.7939	0.157967	-422.565509	-422.557509	-422.556564	-422.598714	29.789
 OpenBabel02181911403D

 19 20  0  0  1  0  0  0  0  0999 V2000
    1.7246    0.1690    0.7544 O   0  0  0  0  0  0  0  0  0  0  0  0
    0.7241    0.2494    0.0913 C   0  0  0  0  0  0  0  0  0  0  0  0
    0.3276    1.4251   -0.7671 C   0  0  2  0  0  0  0  0  0  0  0  0
   -1.0516    2.0059   -0.3550 C   0  0  0  0  0  0  0  0  0  0  0  0
   -1.5830    2.7191   -1.6075 C   0  0  1  0  0  0  0  0  0  0  0  0
   -0.8749    4.0337   -1.9917 C   0  0  0  0  0  0  0  0  0  0  0  0
   -0.0891    3.3717   -3.0061 O   0  0  0  0  0  0  0  0  0  0  0  0
   -0.7913    2.1233   -2.8039 C   0  0  1  0  0  0  0  0  0  0  0  0
    0.1147    1.0282   -2.2488 C   0  0  0  0  0  0  0  0  0  0  0  0
   -0.0179   -0.5872    0.0679 H   0  0  0  0  0  0  0  0  0  0  0  0
    1.1098    2.1839   -0.6873 H   0  0  0  0  0  0  0  0  0  0  0  0
   -1.7288    1.1849   -0.0858 H   0  0  0  0  0  0  0  0  0  0  0  0
   -0.9802    2.6647    0.5154 H   0  0  0  0  0  0  0  0  0  0  0  0
   -2.6717    2.7353   -1.6647 H   0  0  0  0  0  0  0  0  0  0  0  0
   -1.5301    4.8006   -2.4238 H   0  0  0  0  0  0  0  0  0  0  0  0
   -0.2480    4.4959   -1.2185 H   0  0  0  0  0  0  0  0  0  0  0  0
   -1.3421    1.8253   -3.7027 H   0  0  0  0  0  0  0  0  0  0  0  0
   -0.4052    0.0624   -2.3124 H   0  0  0  0  0  0  0  0  0  0  0  0
    1.0507    0.9458   -2.8070 H   0  0  0  0  0  0  0  0  0  0  0  0
  2  1  2  0  0  0  0
  3 11  1  1  0  0  0
  3  4  1  0  0  0  0
  3  2  1  0  0  0  0
  4 12  1  0  0  0  0
  4 13  1  0  0  0  0
  5 14  1  6  0  0  0
  5  4  1  0  0  0  0
  6  5  1  0  0  0  0
  6 16  1  0  0  0  0
  7  8  1  0  0  0  0
  7  6  1  0  0  0  0
  8 17  1  6  0  0  0
  8  9  1  0  0  0  0
  8  5  1  0  0  0  0
  9  3  1  0  0  0  0
 10  2  1  0  0  0  0
 15  6  1  0  0  0  0
 18  9  1  0  0  0  0
 19  9  1  0  0  0  0
M TOR 0 0 1 2 3
M TOR 1 0 1 2 8
M TOR 2 0 1 2 10
M TOR 3 1 2 3 4
M TOR 4 1 2 3 11
M TOR 5 1 2 3 12
M TOR 6 1 2 8 7
M TOR 7 1 2 8 17
M TOR 8 1 2 8 18
M TOR 9 2 3 4 5
M TOR 10 2 3 4 7
M TOR 11 2 3 4 13
M TOR 12 2 8 7 4
M TOR 13 2 8 7 6
M TOR 14 2 8 7 16
M TOR 15 3 2 1 9
M TOR 16 3 2 8 7
M TOR 17 3 2 8 17
M TOR 18 3 2 8 18
M TOR 19 3 4 5 6
M TOR 20 3 4 5 14
M TOR 21 3 4 5 15
M TOR 22 3 4 7 6
M TOR 23 3 4 7 8
M TOR 24 3 4 7 16
M TOR 25 4 3 2 8
M TOR 26 4 3 2 10
M TOR 27 4 5 6 7
M TOR 28 4 7 8 17
M TOR 29 4 7 8 18
M TOR 30 5 4 3 11
M TOR 31 5 4 3 12
M TOR 32 5 4 7 8
M TOR 33 5 4 7 16
M TOR 34 5 6 7 8
M TOR 35 5 6 7 16
M TOR 36 6 5 4 13
M TOR 37 6 7 4 13
M TOR 38 6 7 8 17
M TOR 39 6 7 8 18
M TOR 40 7 4 3 11
M TOR 41 7 4 3 12
M TOR 42 7 4 5 14
M TOR 43 7 4 5 15
M TOR 44 7 6 5 14
M TOR 45 7 6 5 15
M TOR 46 7 8 2 10
M TOR 47 8 2 1 9
M TOR 48 8 2 3 11
M TOR 49 8 2 3 12
M TOR 50 8 7 4 13
M  END
$$$$
