gdb 5830	5.1103647	0.8173884	0.7296625	3.381	81.91	-0.25101	-0.05915	0.19186	1536.3146	0.156099	-422.569304	-422.560133	-422.559189	-422.603802	32.58
 OpenBabel02181911423D

 19 19  0  0  1  0  0  0  0  0999 V2000
    1.5164    0.1815   -0.1432 C   0  0  0  0  0  0  0  0  0  0  0  0
    0.1396   -0.0813    0.0153 O   0  0  0  0  0  0  0  0  0  0  0  0
   -0.4171    0.4908    1.1813 C   0  0  2  0  0  0  0  0  0  0  0  0
   -0.0560   -0.2363    2.5067 C   0  0  0  0  0  0  0  0  0  0  0  0
   -1.3488   -0.1988    3.3592 C   0  0  0  0  0  0  0  0  0  0  0  0
   -2.4290    0.0270    2.3247 C   0  0  0  0  0  0  0  0  0  0  0  0
   -3.8618   -0.1121    2.6038 C   0  0  0  0  0  0  0  0  0  0  0  0
   -4.3156   -0.4112    3.6864 O   0  0  0  0  0  0  0  0  0  0  0  0
   -1.9191    0.3899    1.1407 C   0  0  0  0  0  0  0  0  0  0  0  0
    2.1225   -0.2744    0.6532 H   0  0  0  0  0  0  0  0  0  0  0  0
    1.8183   -0.2483   -1.1011 H   0  0  0  0  0  0  0  0  0  0  0  0
    1.7228    1.2635   -0.1573 H   0  0  0  0  0  0  0  0  0  0  0  0
   -0.1241    1.5572    1.2289 H   0  0  0  0  0  0  0  0  0  0  0  0
    0.1915   -1.2708    2.2468 H   0  0  0  0  0  0  0  0  0  0  0  0
    0.8046    0.1993    3.0189 H   0  0  0  0  0  0  0  0  0  0  0  0
   -1.5166   -1.1089    3.9415 H   0  0  0  0  0  0  0  0  0  0  0  0
   -1.3366    0.6280    4.0802 H   0  0  0  0  0  0  0  0  0  0  0  0
   -4.5266    0.0753    1.7313 H   0  0  0  0  0  0  0  0  0  0  0  0
   -2.4872    0.6222    0.2464 H   0  0  0  0  0  0  0  0  0  0  0  0
  1  2  1  0  0  0  0
  1 10  1  0  0  0  0
  2  3  1  0  0  0  0
  3 13  1  1  0  0  0
  3  4  1  0  0  0  0
  4 15  1  0  0  0  0
  4  5  1  0  0  0  0
  5 16  1  0  0  0  0
  5 17  1  0  0  0  0
  6  7  1  0  0  0  0
  6  5  1  0  0  0  0
  7  8  2  0  0  0  0
  9  3  1  0  0  0  0
  9  6  2  0  0  0  0
 11  1  1  0  0  0  0
 12  1  1  0  0  0  0
 14  4  1  0  0  0  0
 18  7  1  0  0  0  0
 19  9  1  0  0  0  0
M TOR 0 0 1 2 3
M TOR 1 0 1 2 8
M TOR 2 0 1 2 12
M TOR 3 1 2 3 4
M TOR 4 1 2 3 13
M TOR 5 1 2 3 14
M TOR 6 1 2 8 5
M TOR 7 1 2 8 18
M TOR 8 2 1 0 9
M TOR 9 2 1 0 10
M TOR 10 2 1 0 11
M TOR 11 2 3 4 5
M TOR 12 2 3 4 15
M TOR 13 2 3 4 16
M TOR 14 2 8 5 4
M TOR 15 2 8 5 6
M TOR 16 3 2 8 5
M TOR 17 3 2 8 18
M TOR 18 3 4 5 6
M TOR 19 3 4 5 8
M TOR 20 4 3 2 8
M TOR 21 4 3 2 12
M TOR 22 4 5 6 7
M TOR 23 4 5 6 17
M TOR 24 4 5 8 18
M TOR 25 5 4 3 13
M TOR 26 5 4 3 14
M TOR 27 5 8 2 12
M TOR 28 6 5 4 15
M TOR 29 6 5 4 16
M TOR 30 6 5 8 18
M TOR 31 7 6 5 8
M TOR 32 8 2 3 13
M TOR 33 8 2 3 14
M TOR 34 8 5 4 15
M TOR 35 8 5 4 16
M TOR 36 8 5 6 17
M  END
$$$$
