
     RDKit          3D

 19 20  0  0  0  0  0  0  0  0999 V2000
   -3.2583   -2.2440   -0.0108 C   0  0  0  0  0  0  0  0  0  0  0  0
   -2.4073   -0.9882   -0.0052 C   0  0  0  0  0  0  0  0  0  0  0  0
   -2.6950    0.1395    1.0371 C   0  0  0  0  0  0  0  0  0  0  0  0
   -2.1568    1.1098   -0.0361 C   0  0  0  0  0  0  0  0  0  0  0  0
   -2.6212    0.0991   -1.1065 C   0  0  0  0  0  0  0  0  0  0  0  0
   -0.7186    1.1720    0.0122 O   0  0  0  0  0  0  0  0  0  0  0  0
   -0.0451   -0.0079    0.0575 C   0  0  0  0  0  0  0  0  0  0  0  0
    1.1533   -0.0134    0.0988 O   0  0  0  0  0  0  0  0  0  0  0  0
   -0.9013   -1.2770    0.0521 C   0  0  0  0  0  0  0  0  0  0  0  0
   -3.0868   -2.8424    0.8916 H   0  0  0  0  0  0  0  0  0  0  0  0
   -4.3242   -1.9968   -0.0524 H   0  0  0  0  0  0  0  0  0  0  0  0
   -3.0256   -2.8761   -0.8756 H   0  0  0  0  0  0  0  0  0  0  0  0
   -3.7672    0.2793    1.1975 H   0  0  0  0  0  0  0  0  0  0  0  0
   -2.1755    0.1137    1.9988 H   0  0  0  0  0  0  0  0  0  0  0  0
   -2.4922    2.1455   -0.0672 H   0  0  0  0  0  0  0  0  0  0  0  0
   -3.6797    0.2313   -1.3454 H   0  0  0  0  0  0  0  0  0  0  0  0
   -2.0369    0.0378   -2.0286 H   0  0  0  0  0  0  0  0  0  0  0  0
   -0.5762   -1.8805   -0.8034 H   0  0  0  0  0  0  0  0  0  0  0  0
   -0.6365   -1.8474    0.9501 H   0  0  0  0  0  0  0  0  0  0  0  0
  1  2  1  0
  2  3  1  0
  3  4  1  0
  4  5  1  0
  4  6  1  0
  6  7  1  0
  7  8  2  0
  7  9  1  0
  5  2  1  0
  9  2  1  0
  1 10  1  0
  1 11  1  0
  1 12  1  0
  3 13  1  0
  3 14  1  0
  4 15  1  0
  5 16  1  0
  5 17  1  0
  9 18  1  0
  9 19  1  0
M  END
$$$$
