gdb 3663	2.8950853	1.3503824	1.231088	0.8791	76.05	-0.24377	0.07547	0.31923999999999997	1115.6958	0.155692	-422.496102	-422.487588	-422.486644	-422.528792	32.869
 OpenBabel02181911413D

 19 21  0  0  1  0  0  0  0  0999 V2000
   -0.0285   -0.4432   -0.2853 C   0  0  0  0  0  0  0  0  0  0  0  0
    0.8409    0.3683    0.6384 C   0  0  1  0  0  0  0  0  0  0  0  0
    2.0329   -0.3011    1.1560 O   0  0  0  0  0  0  0  0  0  0  0  0
    2.1842    0.8043    0.2969 C   0  0  1  0  0  0  0  0  0  0  0  0
    3.0554    0.9187   -0.9627 C   0  0  1  0  0  0  0  0  0  0  0  0
    2.7414    2.4500   -0.9098 C   0  0  0  0  0  0  0  0  0  0  0  0
    3.0511    2.0510    0.5545 C   0  0  1  0  0  0  0  0  0  0  0  0
    3.0179    2.9214    1.6214 O   0  0  0  0  0  0  0  0  0  0  0  0
    4.2532    1.2043   -0.0020 C   0  0  0  0  0  0  0  0  0  0  0  0
   -0.5984   -1.1894    0.2781 H   0  0  0  0  0  0  0  0  0  0  0  0
   -0.7444    0.2052   -0.8021 H   0  0  0  0  0  0  0  0  0  0  0  0
    0.5755   -0.9628   -1.0332 H   0  0  0  0  0  0  0  0  0  0  0  0
    0.3080    0.9315    1.4066 H   0  0  0  0  0  0  0  0  0  0  0  0
    3.0575    0.2784   -1.8399 H   0  0  0  0  0  0  0  0  0  0  0  0
    3.4794    3.0960   -1.3898 H   0  0  0  0  0  0  0  0  0  0  0  0
    1.7174    2.7586   -1.1327 H   0  0  0  0  0  0  0  0  0  0  0  0
    3.1592    2.4105    2.4268 H   0  0  0  0  0  0  0  0  0  0  0  0
    5.0806    1.7771   -0.4278 H   0  0  0  0  0  0  0  0  0  0  0  0
    4.5975    0.3692    0.6112 H   0  0  0  0  0  0  0  0  0  0  0  0
  1 10  1  0  0  0  0
  1  2  1  0  0  0  0
  2  3  1  0  0  0  0
  2 13  1  1  0  0  0
  4  7  1  0  0  0  0
  4  2  1  0  0  0  0
  4  3  1  1  0  0  0
  5 14  1  6  0  0  0
  5  6  1  0  0  0  0
  5  9  1  0  0  0  0
  5  4  1  0  0  0  0
  6  7  1  0  0  0  0
  7  8  1  1  0  0  0
  8 17  1  0  0  0  0
  9  7  1  0  0  0  0
  9 19  1  0  0  0  0
 11  1  1  0  0  0  0
 12  1  1  0  0  0  0
 15  6  1  0  0  0  0
 16  6  1  0  0  0  0
 18  9  1  0  0  0  0
M TOR 0 0 1 2 3
M TOR 1 0 1 3 4
M TOR 2 0 1 3 6
M TOR 3 1 2 3 4
M TOR 4 1 2 3 6
M TOR 5 1 3 4 5
M TOR 6 1 3 4 8
M TOR 7 1 3 4 13
M TOR 8 1 3 6 5
M TOR 9 1 3 6 7
M TOR 10 1 3 6 8
M TOR 11 2 1 0 9
M TOR 12 2 1 0 10
M TOR 13 2 1 0 11
M TOR 14 2 3 1 12
M TOR 15 2 3 4 5
M TOR 16 2 3 4 8
M TOR 17 2 3 4 13
M TOR 18 2 3 6 5
M TOR 19 2 3 6 7
M TOR 20 2 3 6 8
M TOR 21 3 1 0 9
M TOR 22 3 1 0 10
M TOR 23 3 1 0 11
M TOR 24 3 4 5 6
M TOR 25 3 4 5 14
M TOR 26 3 4 5 15
M TOR 27 3 4 8 6
M TOR 28 3 4 8 17
M TOR 29 3 4 8 18
M TOR 30 3 6 5 14
M TOR 31 3 6 5 15
M TOR 32 3 6 7 16
M TOR 33 3 6 8 17
M TOR 34 3 6 8 18
M TOR 35 4 3 1 12
M TOR 36 4 3 6 7
M TOR 37 4 5 6 7
M TOR 38 4 5 6 8
M TOR 39 4 8 6 7
M TOR 40 5 4 8 17
M TOR 41 5 4 8 18
M TOR 42 5 6 7 16
M TOR 43 5 6 8 17
M TOR 44 5 6 8 18
M TOR 45 6 3 1 12
M TOR 46 6 3 4 13
M TOR 47 6 5 4 13
M TOR 48 6 8 4 13
M TOR 49 7 6 5 14
M TOR 50 7 6 5 15
M TOR 51 7 6 8 17
M TOR 52 7 6 8 18
M TOR 53 8 4 5 14
M TOR 54 8 4 5 15
M TOR 55 8 6 5 14
M TOR 56 8 6 5 15
M TOR 57 8 6 7 16
M  END
$$$$
