gdb 3733	2.9268831	1.3100308	1.1324534	1.6907	76.29	-0.23121	0.06953	0.30074	1162.0768	0.154958	-422.491805	-422.483007	-422.482063	-422.525345	32.684
 OpenBabel02181911413D

 19 21  0  0  1  0  0  0  0  0999 V2000
    2.5676    1.4943    0.3272 C   0  0  0  0  0  0  0  0  0  0  0  0
    1.6720    0.2777    0.2468 C   0  0  1  0  0  0  0  0  0  0  0  0
    1.9144   -0.7863   -0.8173 C   0  0  0  0  0  0  0  0  0  0  0  0
    2.2111   -1.0665    0.6198 C   0  0  1  0  0  0  0  0  0  0  0  0
    3.5422   -1.2609    1.1168 O   0  0  0  0  0  0  0  0  0  0  0  0
    3.1202   -2.3671    1.9534 C   0  0  0  0  0  0  0  0  0  0  0  0
    1.6752   -2.1600    1.5070 C   0  0  1  0  0  0  0  0  0  0  0  0
    0.3990   -2.3407    2.1915 C   0  0  0  0  0  0  0  0  0  0  0  0
    0.7973   -3.1826    1.0930 O   0  0  0  0  0  0  0  0  0  0  0  0
    2.5241    1.9499    1.3221 H   0  0  0  0  0  0  0  0  0  0  0  0
    3.6096    1.2241    0.1361 H   0  0  0  0  0  0  0  0  0  0  0  0
    2.2692    2.2520   -0.4049 H   0  0  0  0  0  0  0  0  0  0  0  0
    0.6304    0.4534    0.5091 H   0  0  0  0  0  0  0  0  0  0  0  0
    1.0664   -1.2922   -1.2672 H   0  0  0  0  0  0  0  0  0  0  0  0
    2.7704   -0.6492   -1.4707 H   0  0  0  0  0  0  0  0  0  0  0  0
    3.5581   -3.3195    1.6339 H   0  0  0  0  0  0  0  0  0  0  0  0
    3.3405   -2.1878    3.0115 H   0  0  0  0  0  0  0  0  0  0  0  0
    0.3689   -2.8275    3.1655 H   0  0  0  0  0  0  0  0  0  0  0  0
   -0.4300   -1.6658    1.9830 H   0  0  0  0  0  0  0  0  0  0  0  0
  1 10  1  0  0  0  0
  2  1  1  0  0  0  0
  2 13  1  1  0  0  0
  2  4  1  0  0  0  0
  3  2  1  0  0  0  0
  3  4  1  0  0  0  0
  4  5  1  1  0  0  0
  4  7  1  0  0  0  0
  5  6  1  0  0  0  0
  6 17  1  0  0  0  0
  7  9  1  6  0  0  0
  7  6  1  0  0  0  0
  7  8  1  0  0  0  0
  8 18  1  0  0  0  0
  9  8  1  0  0  0  0
 11  1  1  0  0  0  0
 12  1  1  0  0  0  0
 14  3  1  0  0  0  0
 15  3  1  0  0  0  0
 16  6  1  0  0  0  0
 19  8  1  0  0  0  0
M TOR 0 0 1 2 3
M TOR 1 0 1 2 13
M TOR 2 0 1 2 14
M TOR 3 0 1 3 4
M TOR 4 0 1 3 6
M TOR 5 1 2 3 4
M TOR 6 1 2 3 6
M TOR 7 1 3 2 13
M TOR 8 1 3 2 14
M TOR 9 1 3 4 5
M TOR 10 1 3 6 5
M TOR 11 1 3 6 7
M TOR 12 1 3 6 8
M TOR 13 2 1 0 9
M TOR 14 2 1 0 10
M TOR 15 2 1 0 11
M TOR 16 2 3 1 12
M TOR 17 2 3 4 5
M TOR 18 2 3 6 5
M TOR 19 2 3 6 7
M TOR 20 2 3 6 8
M TOR 21 3 1 0 9
M TOR 22 3 1 0 10
M TOR 23 3 1 0 11
M TOR 24 3 4 5 6
M TOR 25 3 4 5 15
M TOR 26 3 4 5 16
M TOR 27 3 6 5 15
M TOR 28 3 6 5 16
M TOR 29 3 6 7 8
M TOR 30 3 6 7 17
M TOR 31 3 6 7 18
M TOR 32 4 3 1 12
M TOR 33 4 3 2 13
M TOR 34 4 3 2 14
M TOR 35 4 3 6 7
M TOR 36 4 3 6 8
M TOR 37 4 5 6 7
M TOR 38 4 5 6 8
M TOR 39 5 6 7 8
M TOR 40 5 6 7 17
M TOR 41 5 6 7 18
M TOR 42 6 3 1 12
M TOR 43 6 3 2 13
M TOR 44 6 3 2 14
M TOR 45 6 8 7 17
M TOR 46 6 8 7 18
M TOR 47 7 6 5 15
M TOR 48 7 6 5 16
M TOR 49 8 6 5 15
M TOR 50 8 6 5 16
M  END
$$$$
