gdb 5816	3.0694645	1.1350911	0.8632435	4.4945	76.05	-0.22936	-0.08665	0.14271	1340.863	0.155954	-422.599643	-422.590489	-422.589545	-422.634122	33.109
 OpenBabel02181911423D

 19 19  0  0  1  0  0  0  0  0999 V2000
    1.1631    1.2779    0.1241 C   0  0  0  0  0  0  0  0  0  0  0  0
    0.9021   -0.2279    0.0366 C   0  0  0  0  0  0  0  0  0  0  0  0
    1.8641   -0.9675   -0.8957 C   0  0  1  0  0  0  0  0  0  0  0  0
    3.3478   -1.0479   -0.4589 C   0  0  0  0  0  0  0  0  0  0  0  0
    3.9450   -2.2388   -1.2397 C   0  0  0  0  0  0  0  0  0  0  0  0
    2.7960   -3.2250   -1.3793 C   0  0  0  0  0  0  0  0  0  0  0  0
    2.8421   -4.4003   -1.6205 O   0  0  0  0  0  0  0  0  0  0  0  0
    1.4797   -2.4230   -1.1337 C   0  0  0  0  0  0  0  0  0  0  0  0
    0.3797   -2.9067   -1.1233 O   0  0  0  0  0  0  0  0  0  0  0  0
    0.4400    1.7606    0.7881 H   0  0  0  0  0  0  0  0  0  0  0  0
    2.1636    1.4950    0.5126 H   0  0  0  0  0  0  0  0  0  0  0  0
    1.0789    1.7522   -0.8602 H   0  0  0  0  0  0  0  0  0  0  0  0
    0.9666   -0.6761    1.0364 H   0  0  0  0  0  0  0  0  0  0  0  0
   -0.1185   -0.4165   -0.3134 H   0  0  0  0  0  0  0  0  0  0  0  0
    1.8290   -0.4935   -1.8918 H   0  0  0  0  0  0  0  0  0  0  0  0
    3.8895   -0.1173   -0.6378 H   0  0  0  0  0  0  0  0  0  0  0  0
    3.3963   -1.2494    0.6182 H   0  0  0  0  0  0  0  0  0  0  0  0
    4.2425   -1.9299   -2.2514 H   0  0  0  0  0  0  0  0  0  0  0  0
    4.8178   -2.7022   -0.7749 H   0  0  0  0  0  0  0  0  0  0  0  0
  1 11  1  0  0  0  0
  1 10  1  0  0  0  0
  2  1  1  0  0  0  0
  2 13  1  0  0  0  0
  3 15  1  6  0  0  0
  3  4  1  0  0  0  0
  3  2  1  0  0  0  0
  4 17  1  0  0  0  0
  5 19  1  0  0  0  0
  5  4  1  0  0  0  0
  6  5  1  0  0  0  0
  6  8  1  0  0  0  0
  7  6  2  0  0  0  0
  8  9  2  0  0  0  0
  8  3  1  0  0  0  0
 12  1  1  0  0  0  0
 14  2  1  0  0  0  0
 16  4  1  0  0  0  0
 18  5  1  0  0  0  0
M TOR 0 0 1 2 3
M TOR 1 0 1 2 7
M TOR 2 0 1 2 14
M TOR 3 1 2 3 4
M TOR 4 1 2 3 15
M TOR 5 1 2 3 16
M TOR 6 1 2 7 5
M TOR 7 1 2 7 8
M TOR 8 2 1 0 9
M TOR 9 2 1 0 10
M TOR 10 2 1 0 11
M TOR 11 2 3 4 5
M TOR 12 2 3 4 17
M TOR 13 2 3 4 18
M TOR 14 2 7 5 4
M TOR 15 2 7 5 6
M TOR 16 3 2 1 12
M TOR 17 3 2 1 13
M TOR 18 3 2 7 5
M TOR 19 3 2 7 8
M TOR 20 3 4 5 6
M TOR 21 3 4 5 7
M TOR 22 4 3 2 7
M TOR 23 4 3 2 14
M TOR 24 4 5 7 8
M TOR 25 5 4 3 15
M TOR 26 5 4 3 16
M TOR 27 5 7 2 14
M TOR 28 6 5 4 17
M TOR 29 6 5 4 18
M TOR 30 6 5 7 8
M TOR 31 7 2 1 12
M TOR 32 7 2 1 13
M TOR 33 7 2 3 15
M TOR 34 7 2 3 16
M TOR 35 7 5 4 17
M TOR 36 7 5 4 18
M TOR 37 8 7 2 14
M  END
$$$$
