
     RDKit          3D

 19 21  0  0  0  0  0  0  0  0999 V2000
    1.4089    0.1644    0.0227 C   0  0  0  0  0  0  0  0  0  0  0  0
    0.0097   -0.0180    0.1757 O   0  0  0  0  0  0  0  0  0  0  0  0
   -0.5024    0.5870    1.2954 C   0  0  0  0  0  0  0  0  0  0  0  0
   -0.3875    0.1175    2.7470 C   0  0  0  0  0  0  0  0  0  0  0  0
   -1.5674    1.0949    3.0106 C   0  0  0  0  0  0  0  0  0  0  0  0
   -1.9171    1.0434    1.4629 C   0  0  0  0  0  0  0  0  0  0  0  0
   -0.8195    2.0985    1.3165 C   0  0  0  0  0  0  0  0  0  0  0  0
   -0.9605    2.5111    2.7791 C   0  0  0  0  0  0  0  0  0  0  0  0
   -1.8518    3.5808    3.0034 O   0  0  0  0  0  0  0  0  0  0  0  0
    1.9681   -0.2773    0.8589 H   0  0  0  0  0  0  0  0  0  0  0  0
    1.6961   -0.3404   -0.9019 H   0  0  0  0  0  0  0  0  0  0  0  0
    1.6681    1.2296   -0.0485 H   0  0  0  0  0  0  0  0  0  0  0  0
   -0.6906   -0.9291    2.8432 H   0  0  0  0  0  0  0  0  0  0  0  0
    0.5423    0.2909    3.3012 H   0  0  0  0  0  0  0  0  0  0  0  0
   -2.2632    0.9325    3.8308 H   0  0  0  0  0  0  0  0  0  0  0  0
   -2.8081    0.8305    0.8911 H   0  0  0  0  0  0  0  0  0  0  0  0
   -0.6052    2.7162    0.4527 H   0  0  0  0  0  0  0  0  0  0  0  0
   -0.0571    2.7578    3.3476 H   0  0  0  0  0  0  0  0  0  0  0  0
   -2.6128    3.4478    2.4251 H   0  0  0  0  0  0  0  0  0  0  0  0
  1  2  1  0
  2  3  1  0
  3  4  1  0
  4  5  1  0
  5  6  1  0
  6  7  1  0
  7  8  1  0
  8  9  1  0
  6  3  1  0
  7  3  1  0
  8  5  1  0
  1 10  1  0
  1 11  1  0
  1 12  1  0
  4 13  1  0
  4 14  1  0
  5 15  1  0
  6 16  1  0
  7 17  1  0
  8 18  1  0
  9 19  1  0
M  END
$$$$
