
     RDKit          3D

 19 20  0  0  0  0  0  0  0  0999 V2000
    0.3529   -0.0302    0.6030 O   0  0  0  0  0  0  0  0  0  0  0  0
   -0.7570    0.7283    0.1874 C   0  0  0  0  0  0  0  0  0  0  0  0
   -2.1457    0.0521    0.3135 C   0  0  0  0  0  0  0  0  0  0  0  0
   -3.0043    1.0187   -0.5271 C   0  0  0  0  0  0  0  0  0  0  0  0
   -2.1080    1.7002   -1.4274 O   0  0  0  0  0  0  0  0  0  0  0  0
   -0.8319    1.0700   -1.3139 C   0  0  0  0  0  0  0  0  0  0  0  0
   -0.7757   -0.2212   -2.1172 C   0  0  0  0  0  0  0  0  0  0  0  0
   -1.3599   -1.3270   -1.6458 C   0  0  0  0  0  0  0  0  0  0  0  0
   -2.0748   -1.3538   -0.3136 C   0  0  0  0  0  0  0  0  0  0  0  0
    0.4991   -0.7142   -0.0620 H   0  0  0  0  0  0  0  0  0  0  0  0
   -0.7301    1.6554    0.7673 H   0  0  0  0  0  0  0  0  0  0  0  0
   -2.4946   -0.0079    1.3468 H   0  0  0  0  0  0  0  0  0  0  0  0
   -3.7779    0.4926   -1.1010 H   0  0  0  0  0  0  0  0  0  0  0  0
   -3.4971    1.7765    0.0927 H   0  0  0  0  0  0  0  0  0  0  0  0
   -0.0798    1.7895   -1.6435 H   0  0  0  0  0  0  0  0  0  0  0  0
   -0.2816   -0.2170   -3.0840 H   0  0  0  0  0  0  0  0  0  0  0  0
   -1.3376   -2.2513   -2.2188 H   0  0  0  0  0  0  0  0  0  0  0  0
   -3.0858   -1.7613   -0.4436 H   0  0  0  0  0  0  0  0  0  0  0  0
   -1.5632   -2.0467    0.3687 H   0  0  0  0  0  0  0  0  0  0  0  0
  1  2  1  0
  2  3  1  0
  3  4  1  0
  4  5  1  0
  5  6  1  0
  6  7  1  0
  7  8  2  0
  8  9  1  0
  6  2  1  0
  9  3  1  0
  1 10  1  0
  2 11  1  0
  3 12  1  0
  4 13  1  0
  4 14  1  0
  6 15  1  0
  7 16  1  0
  8 17  1  0
  9 18  1  0
  9 19  1  0
M  END
$$$$
