gdb 4781	2.5020014	1.0035471	0.830675	1.9805	80.08	-0.27637	-0.03898	0.23739	1463.1856	0.153263	-422.556531	-422.546012	-422.545068	-422.592716	36.858
 OpenBabel02181911413D

 19 18  0  0  1  0  0  0  0  0999 V2000
    0.6361   -1.1004   -0.1130 C   0  0  0  0  0  0  0  0  0  0  0  0
    0.6449    0.3301   -0.6571 C   0  0  0  0  0  0  0  0  0  0  0  0
    1.6660    1.2390    0.0202 C   0  0  1  0  0  0  0  0  0  0  0  0
    1.7228    2.6423   -0.5723 C   0  0  0  0  0  0  0  0  0  0  0  0
    1.2680    1.3232    1.4213 O   0  0  0  0  0  0  0  0  0  0  0  0
    2.2347    1.5830    2.3141 C   0  0  0  0  0  0  0  0  0  0  0  0
    3.4005    1.7613    2.0567 O   0  0  0  0  0  0  0  0  0  0  0  0
    1.6930    1.6196    3.6574 C   0  0  0  0  0  0  0  0  0  0  0  0
    1.2982    1.6627    4.7913 C   0  0  0  0  0  0  0  0  0  0  0  0
    0.4025   -1.1107    0.9549 H   0  0  0  0  0  0  0  0  0  0  0  0
   -0.1113   -1.7099   -0.6291 H   0  0  0  0  0  0  0  0  0  0  0  0
    1.6109   -1.5819   -0.2490 H   0  0  0  0  0  0  0  0  0  0  0  0
    0.8728    0.3228   -1.7297 H   0  0  0  0  0  0  0  0  0  0  0  0
   -0.3491    0.7815   -0.5516 H   0  0  0  0  0  0  0  0  0  0  0  0
    2.6617    0.7855   -0.0064 H   0  0  0  0  0  0  0  0  0  0  0  0
    2.4631    3.2511   -0.0489 H   0  0  0  0  0  0  0  0  0  0  0  0
    2.0083    2.5893   -1.6274 H   0  0  0  0  0  0  0  0  0  0  0  0
    0.7461    3.1310   -0.5030 H   0  0  0  0  0  0  0  0  0  0  0  0
    0.9495    1.7012    5.7945 H   0  0  0  0  0  0  0  0  0  0  0  0
  1 10  1  0  0  0  0
  2 14  1  0  0  0  0
  2  1  1  0  0  0  0
  2  3  1  0  0  0  0
  3 15  1  6  0  0  0
  3  5  1  0  0  0  0
  4 18  1  0  0  0  0
  4 16  1  0  0  0  0
  4  3  1  0  0  0  0
  5  6  1  0  0  0  0
  6  8  1  0  0  0  0
  7  6  2  0  0  0  0
  8  9  3  0  0  0  0
  9 19  1  0  0  0  0
 11  1  1  0  0  0  0
 12  1  1  0  0  0  0
 13  2  1  0  0  0  0
 17  4  1  0  0  0  0
M TOR 0 0 1 2 3
M TOR 1 0 1 2 4
M TOR 2 0 1 2 14
M TOR 3 1 2 3 15
M TOR 4 1 2 3 16
M TOR 5 1 2 3 17
M TOR 6 1 2 4 5
M TOR 7 2 1 0 9
M TOR 8 2 1 0 10
M TOR 9 2 1 0 11
M TOR 10 2 4 5 6
M TOR 11 2 4 5 7
M TOR 12 3 2 1 12
M TOR 13 3 2 1 13
M TOR 14 3 2 4 5
M TOR 15 4 2 1 12
M TOR 16 4 2 1 13
M TOR 17 4 2 3 15
M TOR 18 4 2 3 16
M TOR 19 4 2 3 17
M TOR 20 4 5 7 8
M TOR 21 5 4 2 14
M TOR 22 5 7 8 18
M TOR 23 6 5 7 8
M  END
$$$$
