
     RDKit          3D

 19 20  0  0  0  0  0  0  0  0999 V2000
    0.0635    0.4073    0.2183 C   0  0  0  0  0  0  0  0  0  0  0  0
    1.5263    0.0407    0.0764 C   0  0  0  0  0  0  0  0  0  0  0  0
    2.0636   -0.7887    1.2392 C   0  0  0  0  0  0  0  0  0  0  0  0
    3.3119   -1.3867    1.0078 O   0  0  0  0  0  0  0  0  0  0  0  0
    4.4423   -0.5889    1.2659 C   0  0  0  0  0  0  0  0  0  0  0  0
    4.7082    0.5307    0.2999 C   0  0  0  0  0  0  0  0  0  0  0  0
    3.8643    1.1221   -0.5462 C   0  0  0  0  0  0  0  0  0  0  0  0
    2.4127    0.8832   -0.7509 C   0  0  0  0  0  0  0  0  0  0  0  0
    1.9288   -0.3996   -1.2170 O   0  0  0  0  0  0  0  0  0  0  0  0
   -0.1115    0.9862    1.1320 H   0  0  0  0  0  0  0  0  0  0  0  0
   -0.2690    0.9998   -0.6370 H   0  0  0  0  0  0  0  0  0  0  0  0
   -0.5551   -0.4956    0.2677 H   0  0  0  0  0  0  0  0  0  0  0  0
    2.0750   -0.1702    2.1526 H   0  0  0  0  0  0  0  0  0  0  0  0
    1.3636   -1.6153    1.4137 H   0  0  0  0  0  0  0  0  0  0  0  0
    4.3983   -0.1768    2.2923 H   0  0  0  0  0  0  0  0  0  0  0  0
    5.2958   -1.2775    1.2489 H   0  0  0  0  0  0  0  0  0  0  0  0
    5.7376    0.8866    0.3203 H   0  0  0  0  0  0  0  0  0  0  0  0
    4.2630    1.9225   -1.1654 H   0  0  0  0  0  0  0  0  0  0  0  0
    1.9255    1.7122   -1.2670 H   0  0  0  0  0  0  0  0  0  0  0  0
  1  2  1  0
  2  3  1  0
  3  4  1  0
  4  5  1  0
  5  6  1  0
  6  7  2  0
  7  8  1  0
  8  9  1  0
  8  2  1  0
  9  2  1  0
  1 10  1  0
  1 11  1  0
  1 12  1  0
  3 13  1  0
  3 14  1  0
  5 15  1  0
  5 16  1  0
  6 17  1  0
  7 18  1  0
  8 19  1  0
M  END
$$$$
