
     RDKit          3D

 19 19  0  0  0  0  0  0  0  0999 V2000
    1.5574    0.5637   -0.1775 C   0  0  0  0  0  0  0  0  0  0  0  0
    0.1370    0.2591   -0.0780 C   0  0  0  0  0  0  0  0  0  0  0  0
   -1.0396    0.0079   -0.0089 C   0  0  0  0  0  0  0  0  0  0  0  0
   -2.4539   -0.3029    0.1032 C   0  0  0  0  0  0  0  0  0  0  0  0
   -2.9219   -1.5931   -0.5944 C   0  0  0  0  0  0  0  0  0  0  0  0
   -4.1972   -1.8468   -0.0332 O   0  0  0  0  0  0  0  0  0  0  0  0
   -4.1458   -1.5100    1.3510 C   0  0  0  0  0  0  0  0  0  0  0  0
   -2.9474   -0.5574    1.5571 C   0  0  0  0  0  0  0  0  0  0  0  0
   -3.3765    0.6064    2.2329 O   0  0  0  0  0  0  0  0  0  0  0  0
    2.0224    0.6309    0.8123 H   0  0  0  0  0  0  0  0  0  0  0  0
    2.0908   -0.2104   -0.7403 H   0  0  0  0  0  0  0  0  0  0  0  0
    1.7254    1.5185   -0.6878 H   0  0  0  0  0  0  0  0  0  0  0  0
   -3.0595    0.5261   -0.2846 H   0  0  0  0  0  0  0  0  0  0  0  0
   -3.0372   -1.4857   -1.6753 H   0  0  0  0  0  0  0  0  0  0  0  0
   -2.2152   -2.4155   -0.3962 H   0  0  0  0  0  0  0  0  0  0  0  0
   -5.0785   -1.0095    1.6267 H   0  0  0  0  0  0  0  0  0  0  0  0
   -4.0380   -2.4176    1.9604 H   0  0  0  0  0  0  0  0  0  0  0  0
   -2.1491   -1.0581    2.1213 H   0  0  0  0  0  0  0  0  0  0  0  0
   -2.6038    1.1628    2.3778 H   0  0  0  0  0  0  0  0  0  0  0  0
  1  2  1  0
  2  3  3  0
  3  4  1  0
  4  5  1  0
  5  6  1  0
  6  7  1  0
  7  8  1  0
  8  9  1  0
  8  4  1  0
  1 10  1  0
  1 11  1  0
  1 12  1  0
  4 13  1  0
  5 14  1  0
  5 15  1  0
  7 16  1  0
  7 17  1  0
  8 18  1  0
  9 19  1  0
M  END
$$$$
