
     RDKit          3D

 19 19  0  0  0  0  0  0  0  0999 V2000
    1.3125    1.1315    0.2772 C   0  0  0  0  0  0  0  0  0  0  0  0
    1.0095   -0.3491    0.0417 C   0  0  0  0  0  0  0  0  0  0  0  0
    1.8319   -0.9529   -1.0900 C   0  0  0  0  0  0  0  0  0  0  0  0
    3.2033   -0.9330   -0.7054 O   0  0  0  0  0  0  0  0  0  0  0  0
    4.0835   -1.4323   -1.6832 C   0  0  0  0  0  0  0  0  0  0  0  0
    3.6764   -2.7813   -2.1978 C   0  0  0  0  0  0  0  0  0  0  0  0
    2.4310   -3.2402   -2.0347 C   0  0  0  0  0  0  0  0  0  0  0  0
    1.3839   -2.3784   -1.4517 C   0  0  0  0  0  0  0  0  0  0  0  0
    0.2304   -2.7400   -1.3359 O   0  0  0  0  0  0  0  0  0  0  0  0
    0.7254    1.5210    1.1141 H   0  0  0  0  0  0  0  0  0  0  0  0
    2.3713    1.2815    0.5042 H   0  0  0  0  0  0  0  0  0  0  0  0
    1.0695    1.7313   -0.6073 H   0  0  0  0  0  0  0  0  0  0  0  0
    1.2114   -0.9274    0.9509 H   0  0  0  0  0  0  0  0  0  0  0  0
   -0.0448   -0.5051   -0.2018 H   0  0  0  0  0  0  0  0  0  0  0  0
    1.6982   -0.3438   -2.0065 H   0  0  0  0  0  0  0  0  0  0  0  0
    4.1773   -0.7292   -2.5344 H   0  0  0  0  0  0  0  0  0  0  0  0
    5.0716   -1.4876   -1.2124 H   0  0  0  0  0  0  0  0  0  0  0  0
    4.4341   -3.3675   -2.7128 H   0  0  0  0  0  0  0  0  0  0  0  0
    2.1159   -4.2225   -2.3719 H   0  0  0  0  0  0  0  0  0  0  0  0
  1  2  1  0
  2  3  1  0
  3  4  1  0
  4  5  1  0
  5  6  1  0
  6  7  2  0
  7  8  1  0
  8  9  2  0
  8  3  1  0
  1 10  1  0
  1 11  1  0
  1 12  1  0
  2 13  1  0
  2 14  1  0
  3 15  1  0
  5 16  1  0
  5 17  1  0
  6 18  1  0
  7 19  1  0
M  END
$$$$
