
     RDKit          3D

 19 21  0  0  0  0  0  0  0  0999 V2000
   -0.2875   -0.0526    0.0072 C   0  0  0  0  0  0  0  0  0  0  0  0
    1.2340    0.0257    0.1286 C   0  0  0  0  0  0  0  0  0  0  0  0
    2.1255    1.1837    0.5177 C   0  0  0  0  0  0  0  0  0  0  0  0
    2.1195   -0.1019    1.3457 C   0  0  0  0  0  0  0  0  0  0  0  0
    1.7186    0.7340    2.5896 C   0  0  0  0  0  0  0  0  0  0  0  0
    2.3206    0.5408    3.8295 O   0  0  0  0  0  0  0  0  0  0  0  0
    0.4661    1.5691    2.5021 C   0  0  0  0  0  0  0  0  0  0  0  0
    0.1943    2.2825    3.6723 O   0  0  0  0  0  0  0  0  0  0  0  0
    1.7314    2.0085    1.7729 C   0  0  0  0  0  0  0  0  0  0  0  0
   -0.7508   -0.5272    0.8764 H   0  0  0  0  0  0  0  0  0  0  0  0
   -0.7425    0.9325   -0.1263 H   0  0  0  0  0  0  0  0  0  0  0  0
   -0.5563   -0.6523   -0.8676 H   0  0  0  0  0  0  0  0  0  0  0  0
    1.7205   -0.5040   -0.6908 H   0  0  0  0  0  0  0  0  0  0  0  0
    2.9050    1.5331   -0.1490 H   0  0  0  0  0  0  0  0  0  0  0  0
    2.9018   -0.8484    1.4225 H   0  0  0  0  0  0  0  0  0  0  0  0
    1.9351   -0.2518    4.2262 H   0  0  0  0  0  0  0  0  0  0  0  0
   -0.4487    1.2820    2.0021 H   0  0  0  0  0  0  0  0  0  0  0  0
    0.8823    2.0403    4.3082 H   0  0  0  0  0  0  0  0  0  0  0  0
    2.1692    2.9693    2.0108 H   0  0  0  0  0  0  0  0  0  0  0  0
  1  2  1  0
  2  3  1  0
  3  4  1  0
  4  5  1  0
  5  6  1  0
  5  7  1  0
  7  8  1  0
  7  9  1  0
  4  2  1  0
  9  5  1  0
  9  3  1  0
  1 10  1  0
  1 11  1  0
  1 12  1  0
  2 13  1  0
  3 14  1  0
  4 15  1  0
  6 16  1  0
  7 17  1  0
  8 18  1  0
  9 19  1  0
M  END
$$$$
