
     RDKit          3D

 19 19  0  0  0  0  0  0  0  0999 V2000
    1.4348   -0.3094   -0.1144 C   0  0  0  0  0  0  0  0  0  0  0  0
   -0.0144   -0.1784   -0.0424 C   0  0  0  0  0  0  0  0  0  0  0  0
   -1.2154   -0.0973    0.0163 C   0  0  0  0  0  0  0  0  0  0  0  0
   -2.6672    0.0378    0.1170 C   0  0  0  0  0  0  0  0  0  0  0  0
   -3.1277    1.4920   -0.0017 C   0  0  0  0  0  0  0  0  0  0  0  0
   -3.2174    2.0551   -1.4122 C   0  0  0  0  0  0  0  0  0  0  0  0
   -2.1448    1.6673   -2.2474 O   0  0  0  0  0  0  0  0  0  0  0  0
   -2.9470    2.3872    1.1492 C   0  0  0  0  0  0  0  0  0  0  0  0
   -4.2376    1.8583    0.8199 O   0  0  0  0  0  0  0  0  0  0  0  0
    1.7878   -1.1375    0.5100 H   0  0  0  0  0  0  0  0  0  0  0  0
    1.7680   -0.5027   -1.1399 H   0  0  0  0  0  0  0  0  0  0  0  0
    1.9367    0.6009    0.2319 H   0  0  0  0  0  0  0  0  0  0  0  0
   -3.1564   -0.5628   -0.6596 H   0  0  0  0  0  0  0  0  0  0  0  0
   -3.0169   -0.3429    1.0834 H   0  0  0  0  0  0  0  0  0  0  0  0
   -4.1258    1.6599   -1.8827 H   0  0  0  0  0  0  0  0  0  0  0  0
   -3.3307    3.1487   -1.3560 H   0  0  0  0  0  0  0  0  0  0  0  0
   -1.3241    1.7423   -1.7480 H   0  0  0  0  0  0  0  0  0  0  0  0
   -2.5055    2.0015    2.0671 H   0  0  0  0  0  0  0  0  0  0  0  0
   -2.8289    3.4579    0.9883 H   0  0  0  0  0  0  0  0  0  0  0  0
  1  2  1  0
  2  3  3  0
  3  4  1  0
  4  5  1  0
  5  6  1  0
  6  7  1  0
  5  8  1  0
  8  9  1  0
  9  5  1  0
  1 10  1  0
  1 11  1  0
  1 12  1  0
  4 13  1  0
  4 14  1  0
  6 15  1  0
  6 16  1  0
  7 17  1  0
  8 18  1  0
  8 19  1  0
M  END
$$$$
