
     RDKit          3D

 19 18  0  0  0  0  0  0  0  0999 V2000
    1.4628   -0.0545   -0.0723 C   0  0  0  0  0  0  0  0  0  0  0  0
    0.0647    0.1491   -0.0123 O   0  0  0  0  0  0  0  0  0  0  0  0
   -0.3899    0.7580    1.1839 C   0  0  0  0  0  0  0  0  0  0  0  0
    0.0896    2.1416    1.3248 C   0  0  0  0  0  0  0  0  0  0  0  0
    0.4897    3.2687    1.4493 C   0  0  0  0  0  0  0  0  0  0  0  0
   -1.9325    0.6665    1.1599 C   0  0  0  0  0  0  0  0  0  0  0  0
   -2.4358   -0.7698    1.2994 C   0  0  0  0  0  0  0  0  0  0  0  0
   -2.4705    1.3469   -0.0941 C   0  0  0  0  0  0  0  0  0  0  0  0
   -3.3855    0.9235   -0.7513 O   0  0  0  0  0  0  0  0  0  0  0  0
    1.8099   -0.6906    0.7561 H   0  0  0  0  0  0  0  0  0  0  0  0
    1.6672   -0.5592   -1.0187 H   0  0  0  0  0  0  0  0  0  0  0  0
    2.0133    0.8948   -0.0411 H   0  0  0  0  0  0  0  0  0  0  0  0
   -0.0251    0.1848    2.0534 H   0  0  0  0  0  0  0  0  0  0  0  0
    0.8409    4.2655    1.5583 H   0  0  0  0  0  0  0  0  0  0  0  0
   -2.2911    1.2762    2.0029 H   0  0  0  0  0  0  0  0  0  0  0  0
   -2.1691   -1.1825    2.2770 H   0  0  0  0  0  0  0  0  0  0  0  0
   -3.5210   -0.8008    1.1873 H   0  0  0  0  0  0  0  0  0  0  0  0
   -1.9985   -1.4004    0.5223 H   0  0  0  0  0  0  0  0  0  0  0  0
   -1.9666    2.3021   -0.3539 H   0  0  0  0  0  0  0  0  0  0  0  0
  1  2  1  0
  2  3  1  0
  3  4  1  0
  4  5  3  0
  3  6  1  0
  6  7  1  0
  6  8  1  0
  8  9  2  0
  1 10  1  0
  1 11  1  0
  1 12  1  0
  3 13  1  0
  5 14  1  0
  6 15  1  0
  7 16  1  0
  7 17  1  0
  7 18  1  0
  8 19  1  0
M  END
$$$$
