
     RDKit          3D

 19 21  0  0  0  0  0  0  0  0999 V2000
    3.7161    3.2841    1.1604 O   0  0  0  0  0  0  0  0  0  0  0  0
    2.7305    2.3964    0.7203 C   0  0  0  0  0  0  0  0  0  0  0  0
    2.3090    2.5345   -0.7070 C   0  0  0  0  0  0  0  0  0  0  0  0
    1.3484    2.9227    0.4026 C   0  0  0  0  0  0  0  0  0  0  0  0
    0.1561    2.0841    0.6752 C   0  0  0  0  0  0  0  0  0  0  0  0
   -0.6053    1.8248    2.0095 C   0  0  0  0  0  0  0  0  0  0  0  0
   -1.1025    0.8291    0.9402 C   0  0  0  0  0  0  0  0  0  0  0  0
   -1.1962    1.9749   -0.0897 C   0  0  0  0  0  0  0  0  0  0  0  0
    0.3041    0.6053    0.5274 O   0  0  0  0  0  0  0  0  0  0  0  0
    3.5759    3.4410    2.1001 H   0  0  0  0  0  0  0  0  0  0  0  0
    2.7861    1.3870    1.1244 H   0  0  0  0  0  0  0  0  0  0  0  0
    2.7612    3.3408   -1.2726 H   0  0  0  0  0  0  0  0  0  0  0  0
    2.0984    1.6271   -1.2608 H   0  0  0  0  0  0  0  0  0  0  0  0
    1.2025    3.9874    0.5602 H   0  0  0  0  0  0  0  0  0  0  0  0
   -0.0036    1.3880    2.8078 H   0  0  0  0  0  0  0  0  0  0  0  0
   -1.2984    2.5924    2.3636 H   0  0  0  0  0  0  0  0  0  0  0  0
   -1.7316   -0.0528    1.0552 H   0  0  0  0  0  0  0  0  0  0  0  0
   -1.1114    1.6711   -1.1336 H   0  0  0  0  0  0  0  0  0  0  0  0
   -1.9430    2.7564    0.0724 H   0  0  0  0  0  0  0  0  0  0  0  0
  1  2  1  0
  2  3  1  0
  3  4  1  0
  4  5  1  0
  5  6  1  0
  6  7  1  0
  7  8  1  0
  7  9  1  0
  4  2  1  0
  8  5  1  0
  9  5  1  0
  1 10  1  0
  2 11  1  0
  3 12  1  0
  3 13  1  0
  4 14  1  0
  6 15  1  0
  6 16  1  0
  7 17  1  0
  8 18  1  0
  8 19  1  0
M  END
$$$$
