
     RDKit          3D

 19 18  0  0  0  0  0  0  0  0999 V2000
   -1.6482   -4.7240   -1.7680 C   0  0  0  0  0  0  0  0  0  0  0  0
   -0.7799   -3.4880   -1.5245 C   0  0  0  0  0  0  0  0  0  0  0  0
   -1.5911   -2.2629   -1.0118 C   0  0  0  0  0  0  0  0  0  0  0  0
   -2.5262   -1.7793   -2.1245 C   0  0  0  0  0  0  0  0  0  0  0  0
   -3.7145   -1.9529   -2.1360 O   0  0  0  0  0  0  0  0  0  0  0  0
   -0.7156   -1.1662   -0.6151 C   0  0  0  0  0  0  0  0  0  0  0  0
   -0.0032   -0.2328   -0.3416 C   0  0  0  0  0  0  0  0  0  0  0  0
    0.8993    0.8570    0.0310 C   0  0  0  0  0  0  0  0  0  0  0  0
    2.2633    0.5921   -0.2640 O   0  0  0  0  0  0  0  0  0  0  0  0
   -2.1343   -5.0527   -0.8434 H   0  0  0  0  0  0  0  0  0  0  0  0
   -2.4362   -4.5300   -2.5017 H   0  0  0  0  0  0  0  0  0  0  0  0
   -1.0387   -5.5526   -2.1397 H   0  0  0  0  0  0  0  0  0  0  0  0
   -0.0052   -3.7063   -0.7827 H   0  0  0  0  0  0  0  0  0  0  0  0
   -0.2529   -3.1985   -2.4417 H   0  0  0  0  0  0  0  0  0  0  0  0
   -2.2246   -2.5772   -0.1739 H   0  0  0  0  0  0  0  0  0  0  0  0
   -1.9975   -1.2594   -2.9547 H   0  0  0  0  0  0  0  0  0  0  0  0
    0.6446    1.7626   -0.5306 H   0  0  0  0  0  0  0  0  0  0  0  0
    0.7569    1.0963    1.0970 H   0  0  0  0  0  0  0  0  0  0  0  0
    2.4904   -0.2470    0.1499 H   0  0  0  0  0  0  0  0  0  0  0  0
  1  2  1  0
  2  3  1  0
  3  4  1  0
  4  5  2  0
  3  6  1  0
  6  7  3  0
  7  8  1  0
  8  9  1  0
  1 10  1  0
  1 11  1  0
  1 12  1  0
  2 13  1  0
  2 14  1  0
  3 15  1  0
  4 16  1  0
  8 17  1  0
  8 18  1  0
  9 19  1  0
M  END
$$$$
