gdb 4450	2.7141744	1.5092005	1.1510788	1.9563	76.21	-0.24008	-0.02329	0.21678999999999998	1116.8184	0.156584	-422.568744	-422.560055	-422.559111	-422.602304	32.246
 OpenBabel02181911413D

 19 20  0  0  1  0  0  0  0  0999 V2000
   -0.6627    2.0666   -1.2518 C   0  0  0  0  0  0  0  0  0  0  0  0
   -0.7124    1.2672    0.0538 C   0  0  1  0  0  0  0  0  0  0  0  0
   -2.0176    0.7887    0.3630 O   0  0  0  0  0  0  0  0  0  0  0  0
   -2.1491   -0.5721   -0.0614 C   0  0  0  0  0  0  0  0  0  0  0  0
   -0.7526   -1.1562    0.0133 C   0  0  0  0  0  0  0  0  0  0  0  0
   -0.3557   -2.3353    0.8890 C   0  0  0  0  0  0  0  0  0  0  0  0
   -0.3112   -2.4631   -0.5990 C   0  0  0  0  0  0  0  0  0  0  0  0
    0.1712    0.0173   -0.0211 C   0  0  0  0  0  0  0  0  0  0  0  0
    1.3756   -0.0057   -0.0987 O   0  0  0  0  0  0  0  0  0  0  0  0
   -0.9844    1.4570   -2.1023 H   0  0  0  0  0  0  0  0  0  0  0  0
   -1.3208    2.9365   -1.1834 H   0  0  0  0  0  0  0  0  0  0  0  0
    0.3606    2.4049   -1.4386 H   0  0  0  0  0  0  0  0  0  0  0  0
   -0.3824    1.8985    0.8868 H   0  0  0  0  0  0  0  0  0  0  0  0
   -2.8676   -1.0572    0.6058 H   0  0  0  0  0  0  0  0  0  0  0  0
   -2.5476   -0.6202   -1.0871 H   0  0  0  0  0  0  0  0  0  0  0  0
    0.5860   -2.2458    1.4199 H   0  0  0  0  0  0  0  0  0  0  0  0
   -1.1535   -2.8303    1.4326 H   0  0  0  0  0  0  0  0  0  0  0  0
    0.6621   -2.4587   -1.0787 H   0  0  0  0  0  0  0  0  0  0  0  0
   -1.0727   -3.0591   -1.0913 H   0  0  0  0  0  0  0  0  0  0  0  0
  1 11  1  0  0  0  0
  1  2  1  0  0  0  0
  2  3  1  0  0  0  0
  2 13  1  1  0  0  0
  4  5  1  0  0  0  0
  4  3  1  0  0  0  0
  4 14  1  0  0  0  0
  5  6  1  0  0  0  0
  6 16  1  0  0  0  0
  6 17  1  0  0  0  0
  7  5  1  0  0  0  0
  7  6  1  0  0  0  0
  8  5  1  0  0  0  0
  8  2  1  0  0  0  0
  9  8  2  0  0  0  0
 10  1  1  0  0  0  0
 12  1  1  0  0  0  0
 15  4  1  0  0  0  0
 18  7  1  0  0  0  0
 19  7  1  0  0  0  0
M TOR 0 0 1 2 3
M TOR 1 0 1 7 4
M TOR 2 0 1 7 8
M TOR 3 1 2 3 4
M TOR 4 1 2 3 13
M TOR 5 1 2 3 14
M TOR 6 1 7 4 3
M TOR 7 1 7 4 5
M TOR 8 1 7 4 6
M TOR 9 2 1 0 9
M TOR 10 2 1 0 10
M TOR 11 2 1 0 11
M TOR 12 2 1 7 4
M TOR 13 2 1 7 8
M TOR 14 2 3 4 5
M TOR 15 2 3 4 6
M TOR 16 2 3 4 7
M TOR 17 3 2 1 7
M TOR 18 3 2 1 12
M TOR 19 3 4 5 6
M TOR 20 3 4 5 15
M TOR 21 3 4 5 16
M TOR 22 3 4 6 17
M TOR 23 3 4 6 18
M TOR 24 3 4 7 8
M TOR 25 4 5 6 17
M TOR 26 4 5 6 18
M TOR 27 4 6 5 15
M TOR 28 4 6 5 16
M TOR 29 4 7 1 12
M TOR 30 5 4 3 13
M TOR 31 5 4 3 14
M TOR 32 5 4 7 8
M TOR 33 5 6 4 7
M TOR 34 6 4 3 13
M TOR 35 6 4 3 14
M TOR 36 6 4 7 8
M TOR 37 7 1 0 9
M TOR 38 7 1 0 10
M TOR 39 7 1 0 11
M TOR 40 7 4 3 13
M TOR 41 7 4 3 14
M TOR 42 7 4 5 15
M TOR 43 7 4 5 16
M TOR 44 7 4 6 17
M TOR 45 7 4 6 18
M TOR 46 8 7 1 12
M  END
$$$$
