
     RDKit          3D

 19 20  0  0  0  0  0  0  0  0999 V2000
    2.2154   -0.8590    0.7891 C   0  0  0  0  0  0  0  0  0  0  0  0
    1.4242   -0.0013   -0.2006 C   0  0  0  0  0  0  0  0  0  0  0  0
    1.9491    1.4413   -0.2868 C   0  0  0  0  0  0  0  0  0  0  0  0
    1.1468    2.2886   -1.2332 C   0  0  0  0  0  0  0  0  0  0  0  0
    1.3823    2.3865   -2.7547 C   0  0  0  0  0  0  0  0  0  0  0  0
    1.3590    3.6145   -1.9233 C   0  0  0  0  0  0  0  0  0  0  0  0
   -0.0265    4.0053   -1.7025 O   0  0  0  0  0  0  0  0  0  0  0  0
   -0.2402    2.8341   -0.9827 C   0  0  0  0  0  0  0  0  0  0  0  0
   -1.2124    2.5274   -0.3723 O   0  0  0  0  0  0  0  0  0  0  0  0
    2.1683   -0.4415    1.8009 H   0  0  0  0  0  0  0  0  0  0  0  0
    1.8215   -1.8787    0.8320 H   0  0  0  0  0  0  0  0  0  0  0  0
    3.2724   -0.9216    0.5060 H   0  0  0  0  0  0  0  0  0  0  0  0
    1.4587   -0.4552   -1.1988 H   0  0  0  0  0  0  0  0  0  0  0  0
    0.3675    0.0273    0.0888 H   0  0  0  0  0  0  0  0  0  0  0  0
    1.9295    1.8953    0.7122 H   0  0  0  0  0  0  0  0  0  0  0  0
    2.9994    1.4377   -0.6057 H   0  0  0  0  0  0  0  0  0  0  0  0
    2.3603    2.0263   -3.0626 H   0  0  0  0  0  0  0  0  0  0  0  0
    0.5776    2.2066   -3.4604 H   0  0  0  0  0  0  0  0  0  0  0  0
    2.1135    4.3789   -1.8048 H   0  0  0  0  0  0  0  0  0  0  0  0
  1  2  1  0
  2  3  1  0
  3  4  1  0
  4  5  1  0
  5  6  1  0
  6  7  1  0
  7  8  1  0
  8  9  2  0
  6  4  1  0
  8  4  1  0
  1 10  1  0
  1 11  1  0
  1 12  1  0
  2 13  1  0
  2 14  1  0
  3 15  1  0
  3 16  1  0
  5 17  1  0
  5 18  1  0
  6 19  1  0
M  END
$$$$
