gdb 1169	3.2267418	0.9362345	0.8089773	1.8741	77.36	-0.23855	-0.02936	0.20919000000000001	1442.6444	0.154102	-422.58367	-422.573873	-422.572929	-422.62022	34.035
 OpenBabel02181911403D

 19 19  0  0  1  0  0  0  0  0999 V2000
   -2.1986    3.6962    1.8384 C   0  0  0  0  0  0  0  0  0  0  0  0
   -2.4785    2.2076    1.7462 C   0  0  0  0  0  0  0  0  0  0  0  0
   -3.6004    1.7575    1.7969 O   0  0  0  0  0  0  0  0  0  0  0  0
   -1.2724    1.2933    1.5545 C   0  0  0  0  0  0  0  0  0  0  0  0
   -1.0243    1.0415    0.0615 C   0  0  2  0  0  0  0  0  0  0  0  0
   -2.0478    0.1926   -0.7590 C   0  0  0  0  0  0  0  0  0  0  0  0
   -0.8913   -0.6961   -1.3101 C   0  0  0  0  0  0  0  0  0  0  0  0
    0.0399   -0.0204   -0.2914 C   0  0  0  0  0  0  0  0  0  0  0  0
    1.1222   -0.2697    0.1524 O   0  0  0  0  0  0  0  0  0  0  0  0
   -1.6762    3.9100    2.7788 H   0  0  0  0  0  0  0  0  0  0  0  0
   -1.5349    4.0236    1.0304 H   0  0  0  0  0  0  0  0  0  0  0  0
   -3.1326    4.2582    1.8077 H   0  0  0  0  0  0  0  0  0  0  0  0
   -0.3689    1.7253    1.9971 H   0  0  0  0  0  0  0  0  0  0  0  0
   -1.4851    0.3430    2.0533 H   0  0  0  0  0  0  0  0  0  0  0  0
   -0.7832    1.9813   -0.4523 H   0  0  0  0  0  0  0  0  0  0  0  0
   -2.7360   -0.3518   -0.1102 H   0  0  0  0  0  0  0  0  0  0  0  0
   -2.6286    0.7378   -1.5031 H   0  0  0  0  0  0  0  0  0  0  0  0
   -0.9846   -1.7812   -1.2192 H   0  0  0  0  0  0  0  0  0  0  0  0
   -0.6037   -0.4605   -2.3400 H   0  0  0  0  0  0  0  0  0  0  0  0
  1 10  1  0  0  0  0
  2  3  2  0  0  0  0
  2  1  1  0  0  0  0
  4  2  1  0  0  0  0
  4 13  1  0  0  0  0
  4 14  1  0  0  0  0
  5 15  1  6  0  0  0
  5  4  1  0  0  0  0
  6 16  1  0  0  0  0
  6  5  1  0  0  0  0
  7 18  1  0  0  0  0
  7  6  1  0  0  0  0
  7  8  1  0  0  0  0
  8  5  1  0  0  0  0
  8  9  2  0  0  0  0
 11  1  1  0  0  0  0
 12  1  1  0  0  0  0
 17  6  1  0  0  0  0
 19  7  1  0  0  0  0
M TOR 0 0 1 3 4
M TOR 1 0 1 3 12
M TOR 2 0 1 3 13
M TOR 3 1 3 4 5
M TOR 4 1 3 4 7
M TOR 5 1 3 4 14
M TOR 6 2 1 0 9
M TOR 7 2 1 0 10
M TOR 8 2 1 0 11
M TOR 9 2 1 3 4
M TOR 10 2 1 3 12
M TOR 11 2 1 3 13
M TOR 12 3 1 0 9
M TOR 13 3 1 0 10
M TOR 14 3 1 0 11
M TOR 15 3 4 5 6
M TOR 16 3 4 5 15
M TOR 17 3 4 5 16
M TOR 18 3 4 7 6
M TOR 19 3 4 7 8
M TOR 20 4 5 6 7
M TOR 21 4 5 6 17
M TOR 22 4 5 6 18
M TOR 23 4 7 6 17
M TOR 24 4 7 6 18
M TOR 25 5 4 3 12
M TOR 26 5 4 3 13
M TOR 27 5 4 7 8
M TOR 28 5 6 7 8
M TOR 29 6 5 4 14
M TOR 30 6 7 4 14
M TOR 31 7 4 3 12
M TOR 32 7 4 3 13
M TOR 33 7 4 5 15
M TOR 34 7 4 5 16
M TOR 35 7 6 5 15
M TOR 36 7 6 5 16
M TOR 37 8 7 4 14
M TOR 38 8 7 6 17
M TOR 39 8 7 6 18
M  END
$$$$
