
     RDKit          3D

 19 21  0  0  0  0  0  0  0  0999 V2000
   -2.0121   -2.9195    1.6285 C   0  0  0  0  0  0  0  0  0  0  0  0
   -3.0624   -1.9058    1.2641 C   0  0  0  0  0  0  0  0  0  0  0  0
   -1.6499   -1.4585    1.5429 C   0  0  0  0  0  0  0  0  0  0  0  0
   -0.7968   -0.9827    0.4078 C   0  0  0  0  0  0  0  0  0  0  0  0
   -1.0132    0.4041    0.1555 O   0  0  0  0  0  0  0  0  0  0  0  0
    0.2256    0.9707   -0.1809 C   0  0  0  0  0  0  0  0  0  0  0  0
    1.0408    0.3140   -1.2806 C   0  0  0  0  0  0  0  0  0  0  0  0
    1.2661   -0.0337    0.1800 C   0  0  0  0  0  0  0  0  0  0  0  0
    0.5876   -1.1414    0.7109 O   0  0  0  0  0  0  0  0  0  0  0  0
   -2.0444   -3.3734    2.6120 H   0  0  0  0  0  0  0  0  0  0  0  0
   -1.6459   -3.5779    0.8478 H   0  0  0  0  0  0  0  0  0  0  0  0
   -3.4085   -1.8769    0.2362 H   0  0  0  0  0  0  0  0  0  0  0  0
   -3.8230   -1.6570    1.9949 H   0  0  0  0  0  0  0  0  0  0  0  0
   -1.4615   -0.9295    2.4712 H   0  0  0  0  0  0  0  0  0  0  0  0
   -1.0306   -1.5540   -0.5083 H   0  0  0  0  0  0  0  0  0  0  0  0
    0.2687    2.0336    0.0195 H   0  0  0  0  0  0  0  0  0  0  0  0
    0.5714   -0.4087   -1.9386 H   0  0  0  0  0  0  0  0  0  0  0  0
    1.7994    0.9303   -1.7524 H   0  0  0  0  0  0  0  0  0  0  0  0
    2.1993    0.1697    0.6893 H   0  0  0  0  0  0  0  0  0  0  0  0
  1  2  1  0
  2  3  1  0
  3  4  1  0
  4  5  1  0
  5  6  1  0
  6  7  1  0
  7  8  1  0
  8  9  1  0
  3  1  1  0
  9  4  1  0
  8  6  1  0
  1 10  1  0
  1 11  1  0
  2 12  1  0
  2 13  1  0
  3 14  1  0
  4 15  1  0
  6 16  1  0
  7 17  1  0
  7 18  1  0
  8 19  1  0
M  END
$$$$
