gdb 1861	2.3720841	1.7133011	1.2155495	3.8083	75.73	-0.23411	-0.00861	0.2255	1067.4579	0.156006	-422.587314	-422.578386	-422.577442	-422.620441	33.854
 OpenBabel02181911403D

 19 20  0  0  1  0  0  0  0  0999 V2000
   -0.2272    2.5391   -0.3612 C   0  0  0  0  0  0  0  0  0  0  0  0
   -0.7439    1.2471    0.2155 C   0  0  1  0  0  0  0  0  0  0  0  0
   -1.5884    1.2589    1.5023 C   0  0  0  0  0  0  0  0  0  0  0  0
   -2.2034    0.8168    0.2145 C   0  0  1  0  0  0  0  0  0  0  0  0
   -3.1356    1.6315   -0.4237 O   0  0  0  0  0  0  0  0  0  0  0  0
   -2.2840   -0.6883   -0.0347 C   0  0  0  0  0  0  0  0  0  0  0  0
   -0.8601   -1.2197    0.2272 C   0  0  0  0  0  0  0  0  0  0  0  0
    0.0603   -0.0041    0.0339 C   0  0  0  0  0  0  0  0  0  0  0  0
    1.2244   -0.0488   -0.2815 O   0  0  0  0  0  0  0  0  0  0  0  0
    0.6524    2.8864    0.1888 H   0  0  0  0  0  0  0  0  0  0  0  0
    0.0697    2.4043   -1.4054 H   0  0  0  0  0  0  0  0  0  0  0  0
   -0.9979    3.3127   -0.3224 H   0  0  0  0  0  0  0  0  0  0  0  0
   -1.3860    0.5455    2.2951 H   0  0  0  0  0  0  0  0  0  0  0  0
   -1.8488    2.2556    1.8430 H   0  0  0  0  0  0  0  0  0  0  0  0
   -3.9382    1.6483    0.1086 H   0  0  0  0  0  0  0  0  0  0  0  0
   -3.0457   -1.1738    0.5855 H   0  0  0  0  0  0  0  0  0  0  0  0
   -2.5643   -0.8398   -1.0821 H   0  0  0  0  0  0  0  0  0  0  0  0
   -0.7434   -1.5921    1.2519 H   0  0  0  0  0  0  0  0  0  0  0  0
   -0.5550   -2.0274   -0.4402 H   0  0  0  0  0  0  0  0  0  0  0  0
  1 12  1  0  0  0  0
  1 10  1  0  0  0  0
  2  1  1  6  0  0  0
  2  3  1  0  0  0  0
  3 14  1  0  0  0  0
  3 13  1  0  0  0  0
  4  5  1  6  0  0  0
  4  2  1  0  0  0  0
  4  3  1  0  0  0  0
  5 15  1  0  0  0  0
  6  4  1  0  0  0  0
  6  7  1  0  0  0  0
  6 16  1  0  0  0  0
  7 18  1  0  0  0  0
  8  2  1  0  0  0  0
  8  7  1  0  0  0  0
  9  8  2  0  0  0  0
 11  1  1  0  0  0  0
 17  6  1  0  0  0  0
 19  7  1  0  0  0  0
M TOR 0 0 1 2 3
M TOR 1 0 1 2 12
M TOR 2 0 1 2 13
M TOR 3 0 1 3 4
M TOR 4 0 1 3 5
M TOR 5 0 1 7 6
M TOR 6 0 1 7 8
M TOR 7 1 2 3 4
M TOR 8 1 2 3 5
M TOR 9 1 3 2 12
M TOR 10 1 3 2 13
M TOR 11 1 3 4 14
M TOR 12 1 3 5 6
M TOR 13 1 3 5 15
M TOR 14 1 3 5 16
M TOR 15 1 7 6 5
M TOR 16 1 7 6 17
M TOR 17 1 7 6 18
M TOR 18 2 1 0 9
M TOR 19 2 1 0 10
M TOR 20 2 1 0 11
M TOR 21 2 1 7 6
M TOR 22 2 1 7 8
M TOR 23 2 3 1 7
M TOR 24 2 3 4 14
M TOR 25 2 3 5 6
M TOR 26 2 3 5 15
M TOR 27 2 3 5 16
M TOR 28 3 1 0 9
M TOR 29 3 1 0 10
M TOR 30 3 1 0 11
M TOR 31 3 1 7 6
M TOR 32 3 1 7 8
M TOR 33 3 5 6 7
M TOR 34 3 5 6 17
M TOR 35 3 5 6 18
M TOR 36 4 3 1 7
M TOR 37 4 3 2 12
M TOR 38 4 3 2 13
M TOR 39 4 3 5 6
M TOR 40 4 3 5 15
M TOR 41 4 3 5 16
M TOR 42 5 3 1 7
M TOR 43 5 3 2 12
M TOR 44 5 3 2 13
M TOR 45 5 3 4 14
M TOR 46 5 6 7 8
M TOR 47 7 1 0 9
M TOR 48 7 1 0 10
M TOR 49 7 1 0 11
M TOR 50 7 1 2 12
M TOR 51 7 1 2 13
M TOR 52 7 6 5 15
M TOR 53 7 6 5 16
M TOR 54 8 7 6 17
M TOR 55 8 7 6 18
M  END
$$$$
