
     RDKit          3D

 19 19  0  0  0  0  0  0  0  0999 V2000
    1.2375    0.4698   -0.6037 C   0  0  0  0  0  0  0  0  0  0  0  0
   -0.1495    0.0562   -0.2107 C   0  0  0  0  0  0  0  0  0  0  0  0
   -1.1978    0.8977   -0.2293 C   0  0  0  0  0  0  0  0  0  0  0  0
   -2.5818    0.5034    0.1072 C   0  0  0  0  0  0  0  0  0  0  0  0
   -3.4845    1.3169    0.1337 O   0  0  0  0  0  0  0  0  0  0  0  0
   -2.8185   -0.9786    0.3715 C   0  0  0  0  0  0  0  0  0  0  0  0
   -1.5889   -1.6597    0.9816 C   0  0  0  0  0  0  0  0  0  0  0  0
   -0.3246   -1.4086    0.1537 C   0  0  0  0  0  0  0  0  0  0  0  0
   -0.2684   -2.2059   -1.0353 O   0  0  0  0  0  0  0  0  0  0  0  0
    1.9224    0.3823    0.2495 H   0  0  0  0  0  0  0  0  0  0  0  0
    1.6197   -0.2025   -1.3803 H   0  0  0  0  0  0  0  0  0  0  0  0
    1.2727    1.4975   -0.9718 H   0  0  0  0  0  0  0  0  0  0  0  0
   -1.0743    1.9413   -0.5074 H   0  0  0  0  0  0  0  0  0  0  0  0
   -3.7064   -1.0808    0.9997 H   0  0  0  0  0  0  0  0  0  0  0  0
   -3.0694   -1.4440   -0.5929 H   0  0  0  0  0  0  0  0  0  0  0  0
   -1.4220   -1.2687    1.9926 H   0  0  0  0  0  0  0  0  0  0  0  0
   -1.7416   -2.7393    1.0711 H   0  0  0  0  0  0  0  0  0  0  0  0
    0.5475   -1.7379    0.7300 H   0  0  0  0  0  0  0  0  0  0  0  0
   -0.9282   -1.8658   -1.6497 H   0  0  0  0  0  0  0  0  0  0  0  0
  1  2  1  0
  2  3  2  0
  3  4  1  0
  4  5  2  0
  4  6  1  0
  6  7  1  0
  7  8  1  0
  8  9  1  0
  8  2  1  0
  1 10  1  0
  1 11  1  0
  1 12  1  0
  3 13  1  0
  6 14  1  0
  6 15  1  0
  7 16  1  0
  7 17  1  0
  8 18  1  0
  9 19  1  0
M  END
$$$$
