gdb 1152	3.3769474	1.1356267	1.068764	2.3614	76.3	-0.24029	-0.01246	0.22783	1206.5171	0.155001	-422.514552	-422.505759	-422.504815	-422.549047	32.457
 OpenBabel02181911403D

 19 20  0  0  1  0  0  0  0  0999 V2000
    2.3603    2.9554   -2.0131 C   0  0  0  0  0  0  0  0  0  0  0  0
    2.2830    1.9780   -0.8604 C   0  0  0  0  0  0  0  0  0  0  0  0
    3.1994    1.2540   -0.5491 O   0  0  0  0  0  0  0  0  0  0  0  0
    0.9762    1.9745   -0.0582 C   0  0  0  0  0  0  0  0  0  0  0  0
    0.9572    3.0865    0.9588 C   0  0  1  0  0  0  0  0  0  0  0  0
   -0.1646    3.5083    1.9467 C   0  0  0  0  0  0  0  0  0  0  0  0
    0.9426    4.5864    1.9426 C   0  0  1  0  0  0  0  0  0  0  0  0
    2.0203    3.4835    2.0200 C   0  0  0  0  0  0  0  0  0  0  0  0
    0.9861    4.4947    0.4624 O   0  0  0  0  0  0  0  0  0  0  0  0
    3.3459    2.9103   -2.4777 H   0  0  0  0  0  0  0  0  0  0  0  0
    1.5889    2.7247   -2.7571 H   0  0  0  0  0  0  0  0  0  0  0  0
    2.1539    3.9651   -1.6415 H   0  0  0  0  0  0  0  0  0  0  0  0
    0.1093    2.0901   -0.7184 H   0  0  0  0  0  0  0  0  0  0  0  0
    0.9034    1.0178    0.4665 H   0  0  0  0  0  0  0  0  0  0  0  0
   -1.1039    3.8051    1.4782 H   0  0  0  0  0  0  0  0  0  0  0  0
   -0.3027    2.9110    2.8514 H   0  0  0  0  0  0  0  0  0  0  0  0
    0.9379    5.5844    2.3786 H   0  0  0  0  0  0  0  0  0  0  0  0
    2.9981    3.7548    1.6214 H   0  0  0  0  0  0  0  0  0  0  0  0
    2.0817    2.8826    2.9304 H   0  0  0  0  0  0  0  0  0  0  0  0
  1 12  1  0  0  0  0
  1  2  1  0  0  0  0
  2  3  2  0  0  0  0
  2  4  1  0  0  0  0
  4 14  1  0  0  0  0
  5  4  1  6  0  0  0
  5  6  1  0  0  0  0
  5  8  1  0  0  0  0
  6 16  1  0  0  0  0
  7  6  1  0  0  0  0
  7  8  1  0  0  0  0
  7 17  1  1  0  0  0
  8 19  1  0  0  0  0
  9  5  1  0  0  0  0
  9  7  1  0  0  0  0
 10  1  1  0  0  0  0
 11  1  1  0  0  0  0
 13  4  1  0  0  0  0
 15  6  1  0  0  0  0
 18  8  1  0  0  0  0
M TOR 0 0 1 3 4
M TOR 1 0 1 3 12
M TOR 2 0 1 3 13
M TOR 3 1 3 4 5
M TOR 4 1 3 4 7
M TOR 5 1 3 4 8
M TOR 6 2 1 0 9
M TOR 7 2 1 0 10
M TOR 8 2 1 0 11
M TOR 9 2 1 3 4
M TOR 10 2 1 3 12
M TOR 11 2 1 3 13
M TOR 12 3 1 0 9
M TOR 13 3 1 0 10
M TOR 14 3 1 0 11
M TOR 15 3 4 5 6
M TOR 16 3 4 5 14
M TOR 17 3 4 5 15
M TOR 18 3 4 7 6
M TOR 19 3 4 7 17
M TOR 20 3 4 7 18
M TOR 21 3 4 8 6
M TOR 22 4 5 6 7
M TOR 23 4 5 6 8
M TOR 24 4 5 6 16
M TOR 25 4 7 6 8
M TOR 26 4 7 6 16
M TOR 27 4 8 6 16
M TOR 28 5 4 3 12
M TOR 29 5 4 3 13
M TOR 30 5 4 7 17
M TOR 31 5 4 7 18
M TOR 32 5 6 7 17
M TOR 33 5 6 7 18
M TOR 34 7 4 3 12
M TOR 35 7 4 3 13
M TOR 36 7 4 5 14
M TOR 37 7 4 5 15
M TOR 38 7 6 5 14
M TOR 39 7 6 5 15
M TOR 40 8 4 3 12
M TOR 41 8 4 3 13
M TOR 42 8 4 5 14
M TOR 43 8 4 5 15
M TOR 44 8 4 7 17
M TOR 45 8 4 7 18
M TOR 46 8 6 5 14
M TOR 47 8 6 5 15
M TOR 48 8 6 7 17
M TOR 49 8 6 7 18
M  END
$$$$
