
     RDKit          3D

 19 21  0  0  0  0  0  0  0  0999 V2000
   -0.3590   -0.5770    3.7799 C   0  0  0  0  0  0  0  0  0  0  0  0
   -1.1882   -0.8431    2.5627 C   0  0  0  0  0  0  0  0  0  0  0  0
   -1.1507   -2.2365    2.1044 O   0  0  0  0  0  0  0  0  0  0  0  0
   -2.4548   -2.0090    1.5722 C   0  0  0  0  0  0  0  0  0  0  0  0
   -2.4734   -0.6096    0.9287 C   0  0  0  0  0  0  0  0  0  0  0  0
   -2.7603   -0.8229    2.4122 C   0  0  0  0  0  0  0  0  0  0  0  0
   -1.0867   -0.0353    1.2232 C   0  0  0  0  0  0  0  0  0  0  0  0
    0.0683   -0.3181    0.2746 C   0  0  0  0  0  0  0  0  0  0  0  0
    1.3045    0.2010    0.7587 O   0  0  0  0  0  0  0  0  0  0  0  0
   -0.6898   -1.1965    4.6184 H   0  0  0  0  0  0  0  0  0  0  0  0
    0.6945   -0.8050    3.5856 H   0  0  0  0  0  0  0  0  0  0  0  0
   -0.4292    0.4759    4.0679 H   0  0  0  0  0  0  0  0  0  0  0  0
   -3.0486   -2.8534    1.2489 H   0  0  0  0  0  0  0  0  0  0  0  0
   -3.1719   -0.3348    0.1485 H   0  0  0  0  0  0  0  0  0  0  0  0
   -3.5809   -0.5395    3.0562 H   0  0  0  0  0  0  0  0  0  0  0  0
   -1.1517    1.0359    1.4408 H   0  0  0  0  0  0  0  0  0  0  0  0
    0.1318   -1.3966    0.0853 H   0  0  0  0  0  0  0  0  0  0  0  0
   -0.1166    0.1785   -0.6854 H   0  0  0  0  0  0  0  0  0  0  0  0
    1.6540   -0.4281    1.3958 H   0  0  0  0  0  0  0  0  0  0  0  0
  1  2  1  0
  2  3  1  0
  3  4  1  0
  4  5  1  0
  5  6  1  0
  5  7  1  0
  7  8  1  0
  8  9  1  0
  6  2  1  0
  7  2  1  0
  6  4  1  0
  1 10  1  0
  1 11  1  0
  1 12  1  0
  4 13  1  0
  5 14  1  0
  6 15  1  0
  7 16  1  0
  8 17  1  0
  8 18  1  0
  9 19  1  0
M  END
$$$$
