gdb 2187	3.0999852	1.6738996	1.6393231	2.1993	72.84	-0.23842	0.07176	0.31018	914.2817	0.159927	-422.574277	-422.567572	-422.566628	-422.60473	28.727
 OpenBabel02181911413D

 19 21  0  0  1  0  0  0  0  0999 V2000
    0.1538    0.0548    0.2958 O   0  0  0  0  0  0  0  0  0  0  0  0
   -0.7985    0.7422    1.0656 C   0  0  2  0  0  0  0  0  0  0  0  0
   -1.4606    1.8717    0.2474 C   0  0  0  0  0  0  0  0  0  0  0  0
   -2.5413    2.3666    1.2286 C   0  0  2  0  0  0  0  0  0  0  0  0
   -1.9254    3.1659    2.2672 O   0  0  0  0  0  0  0  0  0  0  0  0
   -1.5979    1.9468    2.9727 C   0  0  2  0  0  0  0  0  0  0  0  0
   -0.2942    1.3564    2.3988 C   0  0  0  0  0  0  0  0  0  0  0  0
   -2.7142    1.1622    2.2092 C   0  0  2  0  0  0  0  0  0  0  0  0
   -2.0465   -0.0409    1.5539 C   0  0  0  0  0  0  0  0  0  0  0  0
    0.5687   -0.6112    0.8547 H   0  0  0  0  0  0  0  0  0  0  0  0
   -0.7704    2.6732   -0.0255 H   0  0  0  0  0  0  0  0  0  0  0  0
   -1.8974    1.4552   -0.6667 H   0  0  0  0  0  0  0  0  0  0  0  0
   -3.3993    2.8671    0.7762 H   0  0  0  0  0  0  0  0  0  0  0  0
   -1.6258    2.0743    4.0566 H   0  0  0  0  0  0  0  0  0  0  0  0
    0.4698    2.1254    2.2639 H   0  0  0  0  0  0  0  0  0  0  0  0
    0.1078    0.5685    3.0496 H   0  0  0  0  0  0  0  0  0  0  0  0
   -3.6760    1.0512    2.7050 H   0  0  0  0  0  0  0  0  0  0  0  0
   -1.7986   -0.8393    2.2624 H   0  0  0  0  0  0  0  0  0  0  0  0
   -2.6199   -0.4681    0.7260 H   0  0  0  0  0  0  0  0  0  0  0  0
  1 10  1  0  0  0  0
  2  1  1  6  0  0  0
  2  9  1  0  0  0  0
  2  7  1  0  0  0  0
  3  2  1  0  0  0  0
  3  4  1  0  0  0  0
  4 13  1  6  0  0  0
  4  8  1  0  0  0  0
  4  5  1  0  0  0  0
  5  6  1  0  0  0  0
  6 14  1  1  0  0  0
  7  6  1  0  0  0  0
  7 16  1  0  0  0  0
  8 17  1  1  0  0  0
  8  6  1  0  0  0  0
  9  8  1  0  0  0  0
  9 18  1  0  0  0  0
 11  3  1  0  0  0  0
 12  3  1  0  0  0  0
 15  7  1  0  0  0  0
 19  9  1  0  0  0  0
M TOR 0 0 1 2 3
M TOR 1 0 1 2 10
M TOR 2 0 1 2 11
M TOR 3 0 1 6 5
M TOR 4 0 1 6 14
M TOR 5 0 1 6 15
M TOR 6 0 1 8 7
M TOR 7 0 1 8 17
M TOR 8 0 1 8 18
M TOR 9 1 2 3 4
M TOR 10 1 2 3 7
M TOR 11 1 2 3 12
M TOR 12 1 6 5 4
M TOR 13 1 6 5 7
M TOR 14 1 6 5 13
M TOR 15 1 8 7 3
M TOR 16 1 8 7 5
M TOR 17 1 8 7 16
M TOR 18 2 1 0 9
M TOR 19 2 1 6 5
M TOR 20 2 1 6 14
M TOR 21 2 1 6 15
M TOR 22 2 1 8 7
M TOR 23 2 1 8 17
M TOR 24 2 1 8 18
M TOR 25 2 3 4 5
M TOR 26 2 3 7 5
M TOR 27 2 3 7 8
M TOR 28 2 3 7 16
M TOR 29 3 2 1 6
M TOR 30 3 2 1 8
M TOR 31 3 4 5 6
M TOR 32 3 4 5 7
M TOR 33 3 4 5 13
M TOR 34 3 7 5 6
M TOR 35 3 7 5 13
M TOR 36 3 7 8 17
M TOR 37 3 7 8 18
M TOR 38 4 3 2 10
M TOR 39 4 3 2 11
M TOR 40 4 3 7 8
M TOR 41 4 3 7 16
M TOR 42 4 5 6 14
M TOR 43 4 5 6 15
M TOR 44 4 5 7 8
M TOR 45 4 5 7 16
M TOR 46 5 4 3 12
M TOR 47 5 6 1 8
M TOR 48 5 7 3 12
M TOR 49 5 7 8 17
M TOR 50 5 7 8 18
M TOR 51 6 1 0 9
M TOR 52 6 1 2 10
M TOR 53 6 1 2 11
M TOR 54 6 1 8 7
M TOR 55 6 1 8 17
M TOR 56 6 1 8 18
M TOR 57 6 5 7 8
M TOR 58 6 5 7 16
M TOR 59 7 3 2 10
M TOR 60 7 3 2 11
M TOR 61 7 5 6 14
M TOR 62 7 5 6 15
M TOR 63 8 1 0 9
M TOR 64 8 1 2 10
M TOR 65 8 1 2 11
M TOR 66 8 1 6 14
M TOR 67 8 1 6 15
M TOR 68 8 7 3 12
M TOR 69 8 7 5 13
M  END
$$$$
