gdb 5920	2.3553957	0.8122474	0.6278383	3.8385	83.51	-0.24036	-0.02156	0.2188	1799.4728	0.152486	-422.522764	-422.51142	-422.510476	-422.561681	36.813
 OpenBabel02181911423D

 19 18  0  0  1  0  0  0  0  0999 V2000
   -5.1106    0.0150   -2.7233 C   0  0  0  0  0  0  0  0  0  0  0  0
   -4.5194   -0.0220   -1.4445 O   0  0  0  0  0  0  0  0  0  0  0  0
   -3.1138   -0.0575   -1.4860 C   0  0  0  0  0  0  0  0  0  0  0  0
   -2.6117   -0.0654   -0.0344 C   0  0  2  0  0  0  0  0  0  0  0  0
   -3.1056    1.1973    0.6876 C   0  0  0  0  0  0  0  0  0  0  0  0
   -3.6952    1.1978    1.7312 O   0  0  0  0  0  0  0  0  0  0  0  0
   -1.1537   -0.0835    0.0173 C   0  0  0  0  0  0  0  0  0  0  0  0
    0.0496   -0.0460    0.0586 C   0  0  0  0  0  0  0  0  0  0  0  0
    1.5036   -0.0234    0.1198 C   0  0  0  0  0  0  0  0  0  0  0  0
   -4.8487   -0.8743   -3.3173 H   0  0  0  0  0  0  0  0  0  0  0  0
   -6.1931    0.0398   -2.5802 H   0  0  0  0  0  0  0  0  0  0  0  0
   -4.8038    0.9090   -3.2882 H   0  0  0  0  0  0  0  0  0  0  0  0
   -2.7465   -0.9522   -2.0122 H   0  0  0  0  0  0  0  0  0  0  0  0
   -2.7100    0.8230   -2.0143 H   0  0  0  0  0  0  0  0  0  0  0  0
   -3.0389   -0.9262    0.4912 H   0  0  0  0  0  0  0  0  0  0  0  0
   -2.8396    2.1397    0.1569 H   0  0  0  0  0  0  0  0  0  0  0  0
    1.8527    0.4262    1.0558 H   0  0  0  0  0  0  0  0  0  0  0  0
    1.9178   -1.0359    0.0631 H   0  0  0  0  0  0  0  0  0  0  0  0
    1.9282    0.5566   -0.7068 H   0  0  0  0  0  0  0  0  0  0  0  0
  1 11  1  0  0  0  0
  1  2  1  0  0  0  0
  3  2  1  0  0  0  0
  3  4  1  0  0  0  0
  4  7  1  0  0  0  0
  4 15  1  1  0  0  0
  4  5  1  0  0  0  0
  5  6  2  0  0  0  0
  7  8  3  0  0  0  0
  8  9  1  0  0  0  0
  9 17  1  0  0  0  0
 10  1  1  0  0  0  0
 12  1  1  0  0  0  0
 13  3  1  0  0  0  0
 14  3  1  0  0  0  0
 16  5  1  0  0  0  0
 18  9  1  0  0  0  0
 19  9  1  0  0  0  0
M TOR 0 0 1 2 3
M TOR 1 0 1 2 12
M TOR 2 0 1 2 13
M TOR 3 1 2 3 4
M TOR 4 1 2 3 6
M TOR 5 1 2 3 14
M TOR 6 2 1 0 9
M TOR 7 2 1 0 10
M TOR 8 2 1 0 11
M TOR 9 2 3 4 5
M TOR 10 2 3 4 15
M TOR 11 2 3 6 7
M TOR 12 3 6 7 8
M TOR 13 4 3 2 12
M TOR 14 4 3 2 13
M TOR 15 4 3 6 7
M TOR 16 5 4 3 6
M TOR 17 5 4 3 14
M TOR 18 6 3 2 12
M TOR 19 6 3 2 13
M TOR 20 6 3 4 15
M TOR 21 6 7 8 16
M TOR 22 6 7 8 17
M TOR 23 6 7 8 18
M TOR 24 7 6 3 14
M  END
$$$$
