gdb 6075	2.8085954	0.7768502	0.6369307	2.9008	79.7	-0.25515	-0.03782	0.21733	1762.2134	0.152135	-422.514721	-422.503795	-422.502851	-422.55229	36.865
 OpenBabel02181911423D

 19 18  0  0  1  0  0  0  0  0999 V2000
    0.7613   -0.7551   -0.6583 C   0  0  0  0  0  0  0  0  0  0  0  0
    0.8441    0.3213    0.4271 C   0  0  0  0  0  0  0  0  0  0  0  0
    1.8081    1.4384    0.0564 C   0  0  0  0  0  0  0  0  0  0  0  0
    1.8173    2.3902    1.1138 O   0  0  0  0  0  0  0  0  0  0  0  0
    2.6574    3.5020    0.8934 C   0  0  1  0  0  0  0  0  0  0  0  0
    2.3708    4.4673    2.0580 C   0  0  0  0  0  0  0  0  0  0  0  0
    2.3581    5.6607    1.9520 O   0  0  0  0  0  0  0  0  0  0  0  0
    4.0853    3.1655    0.9014 C   0  0  0  0  0  0  0  0  0  0  0  0
    5.2564    2.8984    0.9519 C   0  0  0  0  0  0  0  0  0  0  0  0
    0.0652   -1.5477   -0.3700 H   0  0  0  0  0  0  0  0  0  0  0  0
    0.4136   -0.3379   -1.6097 H   0  0  0  0  0  0  0  0  0  0  0  0
    1.7376   -1.2189   -0.8365 H   0  0  0  0  0  0  0  0  0  0  0  0
   -0.1450    0.7572    0.6075 H   0  0  0  0  0  0  0  0  0  0  0  0
    1.1707   -0.1192    1.3759 H   0  0  0  0  0  0  0  0  0  0  0  0
    2.8220    1.0421   -0.1014 H   0  0  0  0  0  0  0  0  0  0  0  0
    1.4949    1.9268   -0.8813 H   0  0  0  0  0  0  0  0  0  0  0  0
    2.4040    4.0217   -0.0436 H   0  0  0  0  0  0  0  0  0  0  0  0
    2.1749    3.9356    3.0125 H   0  0  0  0  0  0  0  0  0  0  0  0
    6.2925    2.6647    0.9825 H   0  0  0  0  0  0  0  0  0  0  0  0
  1 10  1  0  0  0  0
  1  2  1  0  0  0  0
  2 13  1  0  0  0  0
  2 14  1  0  0  0  0
  3  2  1  0  0  0  0
  3  4  1  0  0  0  0
  5 17  1  6  0  0  0
  5  8  1  0  0  0  0
  5  4  1  0  0  0  0
  5  6  1  0  0  0  0
  6 18  1  0  0  0  0
  7  6  2  0  0  0  0
  8  9  3  0  0  0  0
  9 19  1  0  0  0  0
 11  1  1  0  0  0  0
 12  1  1  0  0  0  0
 15  3  1  0  0  0  0
 16  3  1  0  0  0  0
M TOR 0 0 1 2 3
M TOR 1 0 1 2 14
M TOR 2 0 1 2 15
M TOR 3 1 2 3 4
M TOR 4 2 1 0 9
M TOR 5 2 1 0 10
M TOR 6 2 1 0 11
M TOR 7 2 3 4 5
M TOR 8 2 3 4 7
M TOR 9 2 3 4 16
M TOR 10 3 2 1 12
M TOR 11 3 2 1 13
M TOR 12 3 4 5 6
M TOR 13 3 4 5 17
M TOR 14 3 4 7 8
M TOR 15 4 3 2 14
M TOR 16 4 3 2 15
M TOR 17 4 7 8 18
M TOR 18 5 4 7 8
M TOR 19 6 5 4 7
M TOR 20 6 5 4 16
M TOR 21 7 4 5 17
M TOR 22 8 7 4 16
M  END
$$$$
