
     RDKit          3D

 19 21  0  0  0  0  0  0  0  0999 V2000
    0.0399    0.2422    0.0934 C   0  0  0  0  0  0  0  0  0  0  0  0
    1.5384    0.0519    0.0606 C   0  0  0  0  0  0  0  0  0  0  0  0
    2.1510   -0.5727    1.3051 C   0  0  0  0  0  0  0  0  0  0  0  0
    3.6515   -0.8635    1.1761 C   0  0  0  0  0  0  0  0  0  0  0  0
    4.4276    0.3026    0.6027 C   0  0  0  0  0  0  0  0  0  0  0  0
    4.0215    1.6229    0.9794 O   0  0  0  0  0  0  0  0  0  0  0  0
    3.7963    1.1908   -0.3779 C   0  0  0  0  0  0  0  0  0  0  0  0
    2.3732    0.9360   -0.7659 C   0  0  0  0  0  0  0  0  0  0  0  0
    2.0630   -0.4054   -1.1978 O   0  0  0  0  0  0  0  0  0  0  0  0
   -0.2524    0.8792    0.9348 H   0  0  0  0  0  0  0  0  0  0  0  0
   -0.3136    0.7014   -0.8330 H   0  0  0  0  0  0  0  0  0  0  0  0
   -0.4653   -0.7229    0.2111 H   0  0  0  0  0  0  0  0  0  0  0  0
    1.9791    0.1170    2.1388 H   0  0  0  0  0  0  0  0  0  0  0  0
    1.6162   -1.4993    1.5456 H   0  0  0  0  0  0  0  0  0  0  0  0
    4.0596   -1.1352    2.1563 H   0  0  0  0  0  0  0  0  0  0  0  0
    3.8125   -1.7214    0.5138 H   0  0  0  0  0  0  0  0  0  0  0  0
    5.5088    0.1707    0.5488 H   0  0  0  0  0  0  0  0  0  0  0  0
    4.4167    1.7027   -1.1124 H   0  0  0  0  0  0  0  0  0  0  0  0
    1.8874    1.7122   -1.3571 H   0  0  0  0  0  0  0  0  0  0  0  0
  1  2  1  0
  2  3  1  0
  3  4  1  0
  4  5  1  0
  5  6  1  0
  6  7  1  0
  7  8  1  0
  8  9  1  0
  8  2  1  0
  9  2  1  0
  7  5  1  0
  1 10  1  0
  1 11  1  0
  1 12  1  0
  3 13  1  0
  3 14  1  0
  4 15  1  0
  4 16  1  0
  5 17  1  0
  7 18  1  0
  8 19  1  0
M  END
$$$$
