
     RDKit          3D

 19 21  0  0  0  0  0  0  0  0999 V2000
   -0.0408    0.2216    0.3345 O   0  0  0  0  0  0  0  0  0  0  0  0
   -0.7053    1.0342    1.2664 C   0  0  0  0  0  0  0  0  0  0  0  0
   -1.1428    2.3032    0.5577 C   0  0  0  0  0  0  0  0  0  0  0  0
   -1.8748    3.1938    1.3781 O   0  0  0  0  0  0  0  0  0  0  0  0
   -2.8952    2.5700    2.1440 C   0  0  0  0  0  0  0  0  0  0  0  0
   -2.3072    1.4942    3.0513 C   0  0  0  0  0  0  0  0  0  0  0  0
   -0.9195    1.8889    3.6672 C   0  0  0  0  0  0  0  0  0  0  0  0
   -0.2366    0.9193    2.7019 C   0  0  0  0  0  0  0  0  0  0  0  0
   -1.6116    0.3695    2.2521 C   0  0  0  0  0  0  0  0  0  0  0  0
    0.1211   -0.6398    0.7334 H   0  0  0  0  0  0  0  0  0  0  0  0
   -0.2737    2.8610    0.1952 H   0  0  0  0  0  0  0  0  0  0  0  0
   -1.7382    1.9973   -0.3192 H   0  0  0  0  0  0  0  0  0  0  0  0
   -3.3520    3.3764    2.7268 H   0  0  0  0  0  0  0  0  0  0  0  0
   -3.6705    2.1374    1.4886 H   0  0  0  0  0  0  0  0  0  0  0  0
   -3.0418    1.1474    3.7807 H   0  0  0  0  0  0  0  0  0  0  0  0
   -0.6362    2.9425    3.6148 H   0  0  0  0  0  0  0  0  0  0  0  0
   -0.8341    1.5401    4.6996 H   0  0  0  0  0  0  0  0  0  0  0  0
    0.6775    0.3711    2.9072 H   0  0  0  0  0  0  0  0  0  0  0  0
   -1.9623   -0.6503    2.1338 H   0  0  0  0  0  0  0  0  0  0  0  0
  1  2  1  0
  2  3  1  0
  3  4  1  0
  4  5  1  0
  5  6  1  0
  6  7  1  0
  7  8  1  0
  8  9  1  0
  8  2  1  0
  9  2  1  0
  9  6  1  0
  1 10  1  0
  3 11  1  0
  3 12  1  0
  5 13  1  0
  5 14  1  0
  6 15  1  0
  7 16  1  0
  7 17  1  0
  8 18  1  0
  9 19  1  0
M  END
$$$$
