gdb 1163	4.2169338	0.8112855	0.7394037	4.2052	76.67	-0.24312	-0.02456	0.21856	1532.9185	0.153733	-422.583126	-422.573376	-422.572432	-422.619881	34.202
 OpenBabel02181911403D

 19 19  0  0  0  0  0  0  0  0999 V2000
   -5.2447    1.1533   -0.7835 C   0  0  0  0  0  0  0  0  0  0  0  0
   -3.8297    1.2300   -1.3238 C   0  0  0  0  0  0  0  0  0  0  0  0
   -3.3702    2.2499   -1.7858 O   0  0  0  0  0  0  0  0  0  0  0  0
   -2.9833   -0.0372   -1.2303 C   0  0  0  0  0  0  0  0  0  0  0  0
   -2.1128   -0.0211    0.0339 C   0  0  0  0  0  0  0  0  0  0  0  0
   -1.0059   -1.1217    0.1206 C   0  0  0  0  0  0  0  0  0  0  0  0
    0.0220   -0.0006    0.3610 C   0  0  0  0  0  0  0  0  0  0  0  0
    1.1774    0.0049    0.6695 O   0  0  0  0  0  0  0  0  0  0  0  0
   -1.0228    1.0969    0.1167 C   0  0  0  0  0  0  0  0  0  0  0  0
   -5.2523    0.7326    0.2287 H   0  0  0  0  0  0  0  0  0  0  0  0
   -5.7022    2.1431   -0.7808 H   0  0  0  0  0  0  0  0  0  0  0  0
   -5.8402    0.4767   -1.4082 H   0  0  0  0  0  0  0  0  0  0  0  0
   -3.6163   -0.9317   -1.2297 H   0  0  0  0  0  0  0  0  0  0  0  0
   -2.3370   -0.0699   -2.1138 H   0  0  0  0  0  0  0  0  0  0  0  0
   -2.7462   -0.0279    0.9257 H   0  0  0  0  0  0  0  0  0  0  0  0
   -1.0904   -1.8612    0.9213 H   0  0  0  0  0  0  0  0  0  0  0  0
   -0.8310   -1.6523   -0.8220 H   0  0  0  0  0  0  0  0  0  0  0  0
   -1.1186    1.8374    0.9151 H   0  0  0  0  0  0  0  0  0  0  0  0
   -0.8757    1.6346   -0.8253 H   0  0  0  0  0  0  0  0  0  0  0  0
  1 11  1  0  0  0  0
  1 10  1  0  0  0  0
  2  4  1  0  0  0  0
  2  1  1  0  0  0  0
  3  2  2  0  0  0  0
  4 13  1  0  0  0  0
  4  5  1  0  0  0  0
  5  9  1  0  0  0  0
  5  6  1  0  0  0  0
  5 15  1  0  0  0  0
  6  7  1  0  0  0  0
  6 16  1  0  0  0  0
  7  8  2  0  0  0  0
  9  7  1  0  0  0  0
  9 18  1  0  0  0  0
 12  1  1  0  0  0  0
 14  4  1  0  0  0  0
 17  6  1  0  0  0  0
 19  9  1  0  0  0  0
M TOR 0 0 1 3 4
M TOR 1 0 1 3 12
M TOR 2 0 1 3 13
M TOR 3 1 3 4 5
M TOR 4 1 3 4 8
M TOR 5 1 3 4 14
M TOR 6 2 1 0 9
M TOR 7 2 1 0 10
M TOR 8 2 1 0 11
M TOR 9 2 1 3 4
M TOR 10 2 1 3 12
M TOR 11 2 1 3 13
M TOR 12 3 1 0 9
M TOR 13 3 1 0 10
M TOR 14 3 1 0 11
M TOR 15 3 4 5 6
M TOR 16 3 4 5 15
M TOR 17 3 4 5 16
M TOR 18 3 4 8 6
M TOR 19 3 4 8 17
M TOR 20 3 4 8 18
M TOR 21 4 5 6 7
M TOR 22 4 5 6 8
M TOR 23 4 8 6 7
M TOR 24 5 4 3 12
M TOR 25 5 4 3 13
M TOR 26 5 4 8 17
M TOR 27 5 4 8 18
M TOR 28 5 6 8 17
M TOR 29 5 6 8 18
M TOR 30 6 5 4 14
M TOR 31 6 8 4 14
M TOR 32 7 6 5 15
M TOR 33 7 6 5 16
M TOR 34 7 6 8 17
M TOR 35 7 6 8 18
M TOR 36 8 4 3 12
M TOR 37 8 4 3 13
M TOR 38 8 4 5 15
M TOR 39 8 4 5 16
M TOR 40 8 6 5 15
M TOR 41 8 6 5 16
M  END
$$$$
