gdb 1686	4.0420523	0.8534172	0.8240407	0.5778	76.51	-0.25078	-0.03417	0.21661	1416.0232	0.153176	-422.577094	-422.567459	-422.566515	-422.612641	34.563
 OpenBabel02181911403D

 19 19  0  0  0  0  0  0  0  0999 V2000
   -2.1949    1.6256    0.2446 C   0  0  0  0  0  0  0  0  0  0  0  0
   -1.0121    2.0229   -0.6432 C   0  0  0  0  0  0  0  0  0  0  0  0
   -0.1995    0.7953   -1.0856 C   0  0  0  0  0  0  0  0  0  0  0  0
    0.4222    0.0463    0.0740 C   0  0  0  0  0  0  0  0  0  0  0  0
    0.2672   -1.1259    0.2997 O   0  0  0  0  0  0  0  0  0  0  0  0
   -1.4551    2.9623   -1.8187 C   0  0  0  0  0  0  0  0  0  0  0  0
   -0.8519    4.1426   -1.0432 C   0  0  0  0  0  0  0  0  0  0  0  0
   -0.9232    5.3308   -1.1538 O   0  0  0  0  0  0  0  0  0  0  0  0
   -0.1791    3.2064   -0.0282 C   0  0  0  0  0  0  0  0  0  0  0  0
   -1.8605    1.1339    1.1643 H   0  0  0  0  0  0  0  0  0  0  0  0
   -2.7823    2.5039    0.5326 H   0  0  0  0  0  0  0  0  0  0  0  0
   -2.8618    0.9329   -0.2795 H   0  0  0  0  0  0  0  0  0  0  0  0
   -0.8204    0.0952   -1.6535 H   0  0  0  0  0  0  0  0  0  0  0  0
    0.6226    1.1257   -1.7375 H   0  0  0  0  0  0  0  0  0  0  0  0
    1.0639    0.6735    0.7367 H   0  0  0  0  0  0  0  0  0  0  0  0
   -0.9159    2.7810   -2.7552 H   0  0  0  0  0  0  0  0  0  0  0  0
   -2.5241    3.0212   -2.0402 H   0  0  0  0  0  0  0  0  0  0  0  0
    0.8987    3.1344   -0.2127 H   0  0  0  0  0  0  0  0  0  0  0  0
   -0.3341    3.4433    1.0277 H   0  0  0  0  0  0  0  0  0  0  0  0
  1 11  1  0  0  0  0
  1 10  1  0  0  0  0
  2  9  1  0  0  0  0
  2  1  1  0  0  0  0
  3  2  1  0  0  0  0
  3  4  1  0  0  0  0
  4  5  2  0  0  0  0
  4 15  1  0  0  0  0
  6  7  1  0  0  0  0
  6  2  1  0  0  0  0
  7  9  1  0  0  0  0
  8  7  2  0  0  0  0
  9 19  1  0  0  0  0
 12  1  1  0  0  0  0
 13  3  1  0  0  0  0
 14  3  1  0  0  0  0
 16  6  1  0  0  0  0
 17  6  1  0  0  0  0
 18  9  1  0  0  0  0
M TOR 0 0 1 2 3
M TOR 1 0 1 2 12
M TOR 2 0 1 2 13
M TOR 3 0 1 5 6
M TOR 4 0 1 5 15
M TOR 5 0 1 5 16
M TOR 6 0 1 8 6
M TOR 7 0 1 8 17
M TOR 8 0 1 8 18
M TOR 9 1 2 3 4
M TOR 10 1 2 3 14
M TOR 11 1 5 6 7
M TOR 12 1 5 6 8
M TOR 13 1 8 6 7
M TOR 14 2 1 0 9
M TOR 15 2 1 0 10
M TOR 16 2 1 0 11
M TOR 17 2 1 5 6
M TOR 18 2 1 5 15
M TOR 19 2 1 5 16
M TOR 20 2 1 8 6
M TOR 21 2 1 8 17
M TOR 22 2 1 8 18
M TOR 23 3 2 1 5
M TOR 24 3 2 1 8
M TOR 25 4 3 2 12
M TOR 26 4 3 2 13
M TOR 27 5 1 0 9
M TOR 28 5 1 0 10
M TOR 29 5 1 0 11
M TOR 30 5 1 2 12
M TOR 31 5 1 2 13
M TOR 32 5 1 8 17
M TOR 33 5 1 8 18
M TOR 34 5 6 8 17
M TOR 35 5 6 8 18
M TOR 36 7 6 5 15
M TOR 37 7 6 5 16
M TOR 38 7 6 8 17
M TOR 39 7 6 8 18
M TOR 40 8 1 0 9
M TOR 41 8 1 0 10
M TOR 42 8 1 0 11
M TOR 43 8 1 2 12
M TOR 44 8 1 2 13
M TOR 45 8 1 5 15
M TOR 46 8 1 5 16
M TOR 47 8 6 5 15
M TOR 48 8 6 5 16
M  END
$$$$
