gdb 1795	3.1774349	1.6605856	1.4206653	3.1278	73.53	-0.24372	0.07657	0.32028999999999996	975.4838	0.157886	-422.536804	-422.529444	-422.5285	-422.568028	29.929
 OpenBabel02181911403D

 19 21  0  0  1  0  0  0  0  0999 V2000
    0.0510   -0.0585   -0.3117 C   0  0  0  0  0  0  0  0  0  0  0  0
    1.5456    0.0223   -0.1067 C   0  0  2  0  0  0  0  0  0  0  0  0
    2.4807   -0.9340   -0.8992 C   0  0  0  0  0  0  0  0  0  0  0  0
    3.1997   -1.0133    0.4640 C   0  0  2  0  0  0  0  0  0  0  0  0
    1.9785   -0.6321    1.1312 O   0  0  0  0  0  0  0  0  0  0  0  0
    4.1953    0.1449    0.5427 C   0  0  2  0  0  0  0  0  0  0  0  0
    3.9756    1.0962    1.5756 O   0  0  0  0  0  0  0  0  0  0  0  0
    3.5923    1.4513    0.2400 C   0  0  2  0  0  0  0  0  0  0  0  0
    2.1014    1.4589   -0.0841 C   0  0  0  0  0  0  0  0  0  0  0  0
   -0.4741    0.5110    0.4623 H   0  0  0  0  0  0  0  0  0  0  0  0
   -0.2275    0.3542   -1.2872 H   0  0  0  0  0  0  0  0  0  0  0  0
   -0.2863   -1.0973   -0.2619 H   0  0  0  0  0  0  0  0  0  0  0  0
    1.9730   -1.8640   -1.1605 H   0  0  0  0  0  0  0  0  0  0  0  0
    3.0325   -0.5419   -1.7573 H   0  0  0  0  0  0  0  0  0  0  0  0
    3.5951   -1.9652    0.8266 H   0  0  0  0  0  0  0  0  0  0  0  0
    5.2360   -0.0678    0.2997 H   0  0  0  0  0  0  0  0  0  0  0  0
    4.1966    2.2469   -0.1931 H   0  0  0  0  0  0  0  0  0  0  0  0
    1.5571    2.0531    0.6590 H   0  0  0  0  0  0  0  0  0  0  0  0
    1.9489    1.9334   -1.0612 H   0  0  0  0  0  0  0  0  0  0  0  0
  1 12  1  0  0  0  0
  1 10  1  0  0  0  0
  2  1  1  6  0  0  0
  2  9  1  0  0  0  0
  2  5  1  0  0  0  0
  3  2  1  0  0  0  0
  3  4  1  0  0  0  0
  4  6  1  0  0  0  0
  4 15  1  1  0  0  0
  4  5  1  0  0  0  0
  6 16  1  6  0  0  0
  6  7  1  0  0  0  0
  8 17  1  6  0  0  0
  8  6  1  0  0  0  0
  8  7  1  0  0  0  0
  9  8  1  0  0  0  0
  9 18  1  0  0  0  0
 11  1  1  0  0  0  0
 13  3  1  0  0  0  0
 14  3  1  0  0  0  0
 19  9  1  0  0  0  0
M TOR 0 0 1 2 3
M TOR 1 0 1 2 12
M TOR 2 0 1 2 13
M TOR 3 0 1 4 3
M TOR 4 0 1 8 7
M TOR 5 0 1 8 17
M TOR 6 0 1 8 18
M TOR 7 1 2 3 4
M TOR 8 1 2 3 5
M TOR 9 1 2 3 14
M TOR 10 1 4 3 5
M TOR 11 1 4 3 14
M TOR 12 1 8 7 5
M TOR 13 1 8 7 6
M TOR 14 1 8 7 16
M TOR 15 2 1 0 9
M TOR 16 2 1 0 10
M TOR 17 2 1 0 11
M TOR 18 2 1 8 7
M TOR 19 2 1 8 17
M TOR 20 2 1 8 18
M TOR 21 2 3 5 6
M TOR 22 2 3 5 7
M TOR 23 2 3 5 15
M TOR 24 3 2 1 8
M TOR 25 3 4 1 8
M TOR 26 3 5 6 7
M TOR 27 3 5 7 8
M TOR 28 3 5 7 16
M TOR 29 4 1 0 9
M TOR 30 4 1 0 10
M TOR 31 4 1 0 11
M TOR 32 4 1 2 12
M TOR 33 4 1 2 13
M TOR 34 4 1 8 7
M TOR 35 4 1 8 17
M TOR 36 4 1 8 18
M TOR 37 4 3 2 12
M TOR 38 4 3 2 13
M TOR 39 4 3 5 6
M TOR 40 4 3 5 7
M TOR 41 4 3 5 15
M TOR 42 5 3 2 12
M TOR 43 5 3 2 13
M TOR 44 5 6 7 8
M TOR 45 5 6 7 16
M TOR 46 5 7 8 17
M TOR 47 5 7 8 18
M TOR 48 6 5 3 14
M TOR 49 6 7 5 15
M TOR 50 6 7 8 17
M TOR 51 6 7 8 18
M TOR 52 7 5 3 14
M TOR 53 8 1 0 9
M TOR 54 8 1 0 10
M TOR 55 8 1 0 11
M TOR 56 8 1 2 12
M TOR 57 8 1 2 13
M TOR 58 8 7 5 15
M  END
$$$$
