gdb 588	2.5979519	1.9224189	1.4492256	1.733	74.73	-0.24875	0.00876	0.25751	958.7516	0.160601	-422.566712	-422.559619	-422.558675	-422.597999	28.425
 OpenBabel02181911403D

 19 20  0  0  1  0  0  0  0  0999 V2000
    1.0343    1.6688   -1.3305 C   0  0  0  0  0  0  0  0  0  0  0  0
    1.7332    0.4435   -1.1556 O   0  0  0  0  0  0  0  0  0  0  0  0
    1.0032   -0.2474   -0.1514 C   0  0  1  0  0  0  0  0  0  0  0  0
    0.6427    0.7421    0.7871 O   0  0  0  0  0  0  0  0  0  0  0  0
    0.2655    1.8835    0.0097 C   0  0  2  0  0  0  0  0  0  0  0  0
   -1.2704    1.9768   -0.1364 C   0  0  0  0  0  0  0  0  0  0  0  0
   -1.9766    0.6300    0.1216 C   0  0  0  0  0  0  0  0  0  0  0  0
   -1.4558   -0.5484   -0.6745 C   0  0  0  0  0  0  0  0  0  0  0  0
   -0.1871   -0.9498   -0.7606 C   0  0  0  0  0  0  0  0  0  0  0  0
    1.7714    2.4517   -1.5270 H   0  0  0  0  0  0  0  0  0  0  0  0
    0.3408    1.6129   -2.1795 H   0  0  0  0  0  0  0  0  0  0  0  0
    1.6910   -0.9487    0.3319 H   0  0  0  0  0  0  0  0  0  0  0  0
    0.6465    2.7614    0.5385 H   0  0  0  0  0  0  0  0  0  0  0  0
   -1.6675    2.7104    0.5737 H   0  0  0  0  0  0  0  0  0  0  0  0
   -1.5173    2.3489   -1.1381 H   0  0  0  0  0  0  0  0  0  0  0  0
   -1.8874    0.3991    1.1891 H   0  0  0  0  0  0  0  0  0  0  0  0
   -3.0450    0.7560   -0.0799 H   0  0  0  0  0  0  0  0  0  0  0  0
   -2.2054   -1.1350   -1.2017 H   0  0  0  0  0  0  0  0  0  0  0  0
    0.0638   -1.8231   -1.3581 H   0  0  0  0  0  0  0  0  0  0  0  0
  1  2  1  0  0  0  0
  1  5  1  0  0  0  0
  2  3  1  0  0  0  0
  3 12  1  1  0  0  0
  3  4  1  0  0  0  0
  5 13  1  1  0  0  0
  5  4  1  0  0  0  0
  6  5  1  0  0  0  0
  6  7  1  0  0  0  0
  6 14  1  0  0  0  0
  7 16  1  0  0  0  0
  8  7  1  0  0  0  0
  9  8  2  0  0  0  0
  9  3  1  0  0  0  0
 10  1  1  0  0  0  0
 11  1  1  0  0  0  0
 15  6  1  0  0  0  0
 17  7  1  0  0  0  0
 18  8  1  0  0  0  0
 19  9  1  0  0  0  0
M TOR 0 0 1 2 3
M TOR 1 0 1 2 8
M TOR 2 0 1 2 11
M TOR 3 0 4 3 2
M TOR 4 0 4 5 6
M TOR 5 0 4 5 13
M TOR 6 0 4 5 14
M TOR 7 1 0 4 3
M TOR 8 1 0 4 5
M TOR 9 1 0 4 12
M TOR 10 1 2 3 4
M TOR 11 1 2 8 7
M TOR 12 1 2 8 18
M TOR 13 2 1 0 4
M TOR 14 2 1 0 9
M TOR 15 2 1 0 10
M TOR 16 2 3 4 5
M TOR 17 2 3 4 12
M TOR 18 2 8 7 6
M TOR 19 2 8 7 17
M TOR 20 3 2 8 7
M TOR 21 3 2 8 18
M TOR 22 3 4 0 9
M TOR 23 3 4 0 10
M TOR 24 3 4 5 6
M TOR 25 3 4 5 13
M TOR 26 3 4 5 14
M TOR 27 4 3 2 8
M TOR 28 4 3 2 11
M TOR 29 4 5 6 7
M TOR 30 4 5 6 15
M TOR 31 4 5 6 16
M TOR 32 5 4 0 9
M TOR 33 5 4 0 10
M TOR 34 5 6 7 8
M TOR 35 5 6 7 17
M TOR 36 6 5 4 12
M TOR 37 6 7 8 18
M TOR 38 7 6 5 13
M TOR 39 7 6 5 14
M TOR 40 7 8 2 11
M TOR 41 8 7 6 15
M TOR 42 8 7 6 16
M  END
$$$$
