gdb 2845	2.8509555	1.5635899	1.2124019	0.8884	73.93	-0.24259	0.07159	0.31418	1052.5078	0.158001	-422.541241	-422.533413	-422.532469	-422.572964	31.611
 OpenBabel02181911413D

 19 21  0  0  1  0  0  0  0  0999 V2000
    0.4350   -0.0337    0.4593 O   0  0  0  0  0  0  0  0  0  0  0  0
   -0.8478    0.4843    0.7464 C   0  0  1  0  0  0  0  0  0  0  0  0
   -1.2318    0.3871    2.2204 C   0  0  1  0  0  0  0  0  0  0  0  0
   -0.9360    1.8790    2.4242 C   0  0  1  0  0  0  0  0  0  0  0  0
   -0.9019    2.0458    0.8766 C   0  0  2  0  0  0  0  0  0  0  0  0
   -2.2825    2.5973    0.4861 C   0  0  0  0  0  0  0  0  0  0  0  0
   -3.2552    1.9093    1.4811 C   0  0  0  0  0  0  0  0  0  0  0  0
   -2.3348    1.3795    2.5836 C   0  0  1  0  0  0  0  0  0  0  0  0
   -2.8256    1.2929    3.8863 O   0  0  0  0  0  0  0  0  0  0  0  0
    1.0330    0.2778    1.1490 H   0  0  0  0  0  0  0  0  0  0  0  0
   -1.5131    0.0323    0.0019 H   0  0  0  0  0  0  0  0  0  0  0  0
   -1.0173   -0.4458    2.8824 H   0  0  0  0  0  0  0  0  0  0  0  0
   -0.3735    2.3915    3.1930 H   0  0  0  0  0  0  0  0  0  0  0  0
   -0.0499    2.5510    0.4206 H   0  0  0  0  0  0  0  0  0  0  0  0
   -2.3057    3.6832    0.6246 H   0  0  0  0  0  0  0  0  0  0  0  0
   -2.5255    2.3927   -0.5612 H   0  0  0  0  0  0  0  0  0  0  0  0
   -3.9669    2.6157    1.9178 H   0  0  0  0  0  0  0  0  0  0  0  0
   -3.8365    1.1094    1.0085 H   0  0  0  0  0  0  0  0  0  0  0  0
   -3.4093    0.5282    3.9361 H   0  0  0  0  0  0  0  0  0  0  0  0
  1  2  1  0  0  0  0
  1 10  1  0  0  0  0
  2 11  1  6  0  0  0
  2  5  1  0  0  0  0
  2  3  1  0  0  0  0
  3  4  1  0  0  0  0
  3  8  1  0  0  0  0
  3 12  1  1  0  0  0
  4  8  1  0  0  0  0
  4 13  1  1  0  0  0
  5 14  1  6  0  0  0
  5  4  1  0  0  0  0
  6 15  1  0  0  0  0
  6  5  1  0  0  0  0
  6  7  1  0  0  0  0
  7 17  1  0  0  0  0
  7  8  1  0  0  0  0
  8  9  1  1  0  0  0
  9 19  1  0  0  0  0
 16  6  1  0  0  0  0
 18  7  1  0  0  0  0
M TOR 0 0 1 2 3
M TOR 1 0 1 2 7
M TOR 2 0 1 2 11
M TOR 3 0 1 4 3
M TOR 4 0 1 4 5
M TOR 5 0 1 4 13
M TOR 6 1 2 3 4
M TOR 7 1 2 3 7
M TOR 8 1 2 3 12
M TOR 9 1 2 7 6
M TOR 10 1 2 7 8
M TOR 11 1 4 3 7
M TOR 12 1 4 3 12
M TOR 13 1 4 5 6
M TOR 14 1 4 5 14
M TOR 15 1 4 5 15
M TOR 16 2 1 0 9
M TOR 17 2 1 4 5
M TOR 18 2 1 4 13
M TOR 19 2 3 4 5
M TOR 20 2 3 4 13
M TOR 21 2 3 7 6
M TOR 22 2 3 7 8
M TOR 23 2 7 3 4
M TOR 24 2 7 3 12
M TOR 25 2 7 6 5
M TOR 26 2 7 6 16
M TOR 27 2 7 6 17
M TOR 28 2 7 8 18
M TOR 29 3 2 1 10
M TOR 30 3 4 1 10
M TOR 31 3 4 5 6
M TOR 32 3 4 5 14
M TOR 33 3 4 5 15
M TOR 34 3 7 2 11
M TOR 35 3 7 6 5
M TOR 36 3 7 6 16
M TOR 37 3 7 6 17
M TOR 38 3 7 8 18
M TOR 39 4 1 0 9
M TOR 40 4 1 2 7
M TOR 41 4 1 2 11
M TOR 42 4 3 2 11
M TOR 43 4 3 7 6
M TOR 44 4 3 7 8
M TOR 45 4 5 6 7
M TOR 46 4 5 6 16
M TOR 47 4 5 6 17
M TOR 48 5 4 1 10
M TOR 49 5 4 3 7
M TOR 50 5 4 3 12
M TOR 51 5 6 7 8
M TOR 52 6 5 4 13
M TOR 53 6 7 2 11
M TOR 54 6 7 3 12
M TOR 55 6 7 8 18
M TOR 56 7 2 1 10
M TOR 57 7 3 4 13
M TOR 58 7 6 5 14
M TOR 59 7 6 5 15
M TOR 60 8 7 2 11
M TOR 61 8 7 3 12
M TOR 62 8 7 6 16
M TOR 63 8 7 6 17
M  END
$$$$
