gdb 1296	3.4448375	1.2101366	1.0940746	1.6368	74.95	-0.23386	0.00146	0.23532	1170.8259	0.156255	-422.513938	-422.505537	-422.504593	-422.546921	32.364
 OpenBabel02181911403D

 19 20  0  0  1  0  0  0  0  0999 V2000
    2.3412    1.3370    2.7805 C   0  0  0  0  0  0  0  0  0  0  0  0
    1.8344    1.3604    1.3371 C   0  0  1  0  0  0  0  0  0  0  0  0
    2.8164    1.9096    0.4544 O   0  0  0  0  0  0  0  0  0  0  0  0
    1.5546   -0.0368    0.8045 C   0  0  2  0  0  0  0  0  0  0  0  0
    0.7501   -0.1048   -0.5376 C   0  0  2  0  0  0  0  0  0  0  0  0
   -0.4652    0.1653    0.2433 O   0  0  0  0  0  0  0  0  0  0  0  0
    0.1979   -0.7007    1.2224 C   0  0  1  0  0  0  0  0  0  0  0  0
    0.2689   -2.0365    0.4598 C   0  0  0  0  0  0  0  0  0  0  0  0
    0.6466   -1.6246   -0.7524 C   0  0  0  0  0  0  0  0  0  0  0  0
    3.2649    0.7539    2.8535 H   0  0  0  0  0  0  0  0  0  0  0  0
    2.5508    2.3533    3.1338 H   0  0  0  0  0  0  0  0  0  0  0  0
    1.5976    0.9023    3.4566 H   0  0  0  0  0  0  0  0  0  0  0  0
    0.9053    1.9438    1.2821 H   0  0  0  0  0  0  0  0  0  0  0  0
    3.0139    2.8033    0.7515 H   0  0  0  0  0  0  0  0  0  0  0  0
    2.4494   -0.6620    0.8661 H   0  0  0  0  0  0  0  0  0  0  0  0
    0.9186    0.5719   -1.3726 H   0  0  0  0  0  0  0  0  0  0  0  0
   -0.2248   -0.6608    2.2261 H   0  0  0  0  0  0  0  0  0  0  0  0
    0.0660   -3.0236    0.8474 H   0  0  0  0  0  0  0  0  0  0  0  0
    0.8499   -2.1731   -1.6599 H   0  0  0  0  0  0  0  0  0  0  0  0
  1 10  1  0  0  0  0
  1 11  1  0  0  0  0
  1 12  1  0  0  0  0
  2 13  1  6  0  0  0
  2  1  1  0  0  0  0
  3 14  1  0  0  0  0
  3  2  1  0  0  0  0
  4 15  1  1  0  0  0
  4  7  1  0  0  0  0
  4  2  1  0  0  0  0
  5 16  1  6  0  0  0
  5  6  1  0  0  0  0
  5  4  1  0  0  0  0
  6  7  1  0  0  0  0
  7 17  1  1  0  0  0
  8 18  1  0  0  0  0
  8  7  1  0  0  0  0
  9  5  1  0  0  0  0
  9  8  2  0  0  0  0
 19  9  1  0  0  0  0
M TOR 0 0 1 2 13
M TOR 1 0 1 3 4
M TOR 2 0 1 3 6
M TOR 3 0 1 3 14
M TOR 4 1 3 4 5
M TOR 5 1 3 4 8
M TOR 6 1 3 4 15
M TOR 7 1 3 6 5
M TOR 8 1 3 6 7
M TOR 9 1 3 6 16
M TOR 10 2 1 0 9
M TOR 11 2 1 0 10
M TOR 12 2 1 0 11
M TOR 13 2 1 3 4
M TOR 14 2 1 3 6
M TOR 15 2 1 3 14
M TOR 16 3 1 0 9
M TOR 17 3 1 0 10
M TOR 18 3 1 0 11
M TOR 19 3 1 2 13
M TOR 20 3 4 5 6
M TOR 21 3 4 8 7
M TOR 22 3 4 8 18
M TOR 23 3 6 7 8
M TOR 24 3 6 7 17
M TOR 25 4 3 1 12
M TOR 26 4 3 6 7
M TOR 27 4 3 6 16
M TOR 28 4 5 6 7
M TOR 29 4 5 6 16
M TOR 30 4 8 7 6
M TOR 31 4 8 7 17
M TOR 32 5 4 3 14
M TOR 33 5 4 8 7
M TOR 34 5 4 8 18
M TOR 35 5 6 3 14
M TOR 36 5 6 7 8
M TOR 37 5 6 7 17
M TOR 38 6 3 1 12
M TOR 39 6 3 4 8
M TOR 40 6 3 4 15
M TOR 41 6 5 4 8
M TOR 42 6 5 4 15
M TOR 43 6 7 8 18
M TOR 44 7 6 3 14
M TOR 45 7 8 4 15
M TOR 46 8 4 3 14
M TOR 47 8 7 6 16
M  END
$$$$
