gdb 5398	1.9747957	1.6119399	1.053815	3.1534	76.2	-0.23784	-0.02588	0.21195999999999998	1203.1989	0.154292	-422.540644	-422.531247	-422.530303	-422.575026	34.028
 OpenBabel02181911423D

 19 20  0  0  1  0  0  0  0  0999 V2000
    1.5604    0.9799    0.5150 C   0  0  0  0  0  0  0  0  0  0  0  0
    0.9229   -0.3393    0.0661 C   0  0  0  0  0  0  0  0  0  0  0  0
    1.6190   -0.9819   -1.1298 C   0  0  1  0  0  0  0  0  0  0  0  0
    1.0965   -2.3539   -1.6615 C   0  0  0  0  0  0  0  0  0  0  0  0
    1.0662   -3.4566   -1.2018 O   0  0  0  0  0  0  0  0  0  0  0  0
    0.8180   -1.7549   -3.0335 C   0  0  1  0  0  0  0  0  0  0  0  0
   -0.0570   -0.6301   -2.7705 O   0  0  0  0  0  0  0  0  0  0  0  0
    1.3418   -0.4429   -2.5578 C   0  0  1  0  0  0  0  0  0  0  0  0
    2.0536    0.6319   -3.3134 C   0  0  0  0  0  0  0  0  0  0  0  0
    1.0419    1.3877    1.3880 H   0  0  0  0  0  0  0  0  0  0  0  0
    2.6128    0.8416    0.7868 H   0  0  0  0  0  0  0  0  0  0  0  0
    1.5184    1.7373   -0.2751 H   0  0  0  0  0  0  0  0  0  0  0  0
    0.9410   -1.0592    0.8930 H   0  0  0  0  0  0  0  0  0  0  0  0
   -0.1308   -0.1834   -0.1882 H   0  0  0  0  0  0  0  0  0  0  0  0
    2.6971   -1.0915   -0.9464 H   0  0  0  0  0  0  0  0  0  0  0  0
    0.7753   -2.2001   -4.0210 H   0  0  0  0  0  0  0  0  0  0  0  0
    1.8527    1.6147   -2.8740 H   0  0  0  0  0  0  0  0  0  0  0  0
    3.1354    0.4680   -3.2889 H   0  0  0  0  0  0  0  0  0  0  0  0
    1.7215    0.6509   -4.3547 H   0  0  0  0  0  0  0  0  0  0  0  0
  1 11  1  0  0  0  0
  1 10  1  0  0  0  0
  2  1  1  0  0  0  0
  2 13  1  0  0  0  0
  3 15  1  1  0  0  0
  3  2  1  0  0  0  0
  4  5  2  0  0  0  0
  4  3  1  0  0  0  0
  6 16  1  6  0  0  0
  6  7  1  0  0  0  0
  6  8  1  0  0  0  0
  6  4  1  0  0  0  0
  7  8  1  0  0  0  0
  8  9  1  6  0  0  0
  8  3  1  0  0  0  0
  9 18  1  0  0  0  0
  9 17  1  0  0  0  0
 12  1  1  0  0  0  0
 14  2  1  0  0  0  0
 19  9  1  0  0  0  0
M TOR 0 0 1 2 3
M TOR 1 0 1 2 7
M TOR 2 0 1 2 14
M TOR 3 1 2 3 4
M TOR 4 1 2 3 5
M TOR 5 1 2 7 5
M TOR 6 1 2 7 6
M TOR 7 1 2 7 8
M TOR 8 2 1 0 9
M TOR 9 2 1 0 10
M TOR 10 2 1 0 11
M TOR 11 2 3 5 6
M TOR 12 2 3 5 7
M TOR 13 2 3 5 15
M TOR 14 2 7 5 6
M TOR 15 2 7 5 15
M TOR 16 2 7 8 16
M TOR 17 2 7 8 17
M TOR 18 2 7 8 18
M TOR 19 3 2 1 12
M TOR 20 3 2 1 13
M TOR 21 3 2 7 6
M TOR 22 3 2 7 8
M TOR 23 3 5 6 7
M TOR 24 3 5 7 8
M TOR 25 4 3 2 7
M TOR 26 4 3 2 14
M TOR 27 4 3 5 6
M TOR 28 4 3 5 7
M TOR 29 4 3 5 15
M TOR 30 5 3 2 14
M TOR 31 5 6 7 8
M TOR 32 5 7 2 14
M TOR 33 5 7 8 16
M TOR 34 5 7 8 17
M TOR 35 5 7 8 18
M TOR 36 6 7 2 14
M TOR 37 6 7 5 15
M TOR 38 6 7 8 16
M TOR 39 6 7 8 17
M TOR 40 6 7 8 18
M TOR 41 7 2 1 12
M TOR 42 7 2 1 13
M TOR 43 8 7 2 14
M TOR 44 8 7 5 15
M  END
$$$$
