
     RDKit          3D

 19 21  0  0  0  0  0  0  0  0999 V2000
   -1.3401   -0.2842    0.2958 O   0  0  0  0  0  0  0  0  0  0  0  0
   -2.3592    0.6523    0.2398 C   0  0  0  0  0  0  0  0  0  0  0  0
   -3.7295    0.3953    0.7961 C   0  0  0  0  0  0  0  0  0  0  0  0
   -3.5648    0.6556   -0.6868 C   0  0  0  0  0  0  0  0  0  0  0  0
   -3.3969    2.1609   -0.9209 C   0  0  0  0  0  0  0  0  0  0  0  0
   -2.1281    2.1589    0.0067 C   0  0  0  0  0  0  0  0  0  0  0  0
   -0.8512    2.4612   -0.7278 C   0  0  0  0  0  0  0  0  0  0  0  0
    0.3244    3.0285   -0.0589 C   0  0  0  0  0  0  0  0  0  0  0  0
   -0.5157    3.8449   -0.8776 O   0  0  0  0  0  0  0  0  0  0  0  0
   -1.0949   -0.4132    1.2187 H   0  0  0  0  0  0  0  0  0  0  0  0
   -3.9107   -0.6444    1.0507 H   0  0  0  0  0  0  0  0  0  0  0  0
   -4.2324    1.1180    1.4361 H   0  0  0  0  0  0  0  0  0  0  0  0
   -3.8691   -0.0765   -1.4241 H   0  0  0  0  0  0  0  0  0  0  0  0
   -3.1466    2.4216   -1.9519 H   0  0  0  0  0  0  0  0  0  0  0  0
   -4.2291    2.7900   -0.5910 H   0  0  0  0  0  0  0  0  0  0  0  0
   -2.1897    2.7938    0.8982 H   0  0  0  0  0  0  0  0  0  0  0  0
   -0.6796    1.8631   -1.6244 H   0  0  0  0  0  0  0  0  0  0  0  0
    0.2838    3.2429    1.0088 H   0  0  0  0  0  0  0  0  0  0  0  0
    1.3207    2.8345   -0.4541 H   0  0  0  0  0  0  0  0  0  0  0  0
  1  2  1  0
  2  3  1  0
  3  4  1  0
  4  5  1  0
  5  6  1  0
  6  7  1  0
  7  8  1  0
  8  9  1  0
  4  2  1  0
  9  7  1  0
  6  2  1  0
  1 10  1  0
  3 11  1  0
  3 12  1  0
  4 13  1  0
  5 14  1  0
  5 15  1  0
  6 16  1  0
  7 17  1  0
  8 18  1  0
  8 19  1  0
M  END
$$$$
