gdb 6026	3.0039691	1.077476	0.8914162	3.9514	77.43	-0.23869	-0.01416	0.22453	1359.3605	0.155453	-422.533102	-422.52403	-422.523086	-422.567843	32.613
 OpenBabel02181911423D

 19 20  0  0  1  0  0  0  0  0999 V2000
    2.4324   -0.8152    1.1592 C   0  0  0  0  0  0  0  0  0  0  0  0
    1.7456   -0.2028   -0.0486 C   0  0  0  0  0  0  0  0  0  0  0  0
    2.2451    1.1149   -0.2280 O   0  0  0  0  0  0  0  0  0  0  0  0
    1.6478    1.8091   -1.2796 C   0  0  2  0  0  0  0  0  0  0  0  0
    2.0967    1.5189   -2.7269 C   0  0  2  0  0  0  0  0  0  0  0  0
    3.5525    1.7862   -2.8470 C   0  0  0  0  0  0  0  0  0  0  0  0
    2.6030    2.9805   -2.8851 C   0  0  2  0  0  0  0  0  0  0  0  0
    2.1429    3.2761   -1.4930 C   0  0  0  0  0  0  0  0  0  0  0  0
    2.0197    4.2740   -0.8436 O   0  0  0  0  0  0  0  0  0  0  0  0
    2.0683   -1.8329    1.3285 H   0  0  0  0  0  0  0  0  0  0  0  0
    3.5146   -0.8546    1.0062 H   0  0  0  0  0  0  0  0  0  0  0  0
    2.2346   -0.2197    2.0547 H   0  0  0  0  0  0  0  0  0  0  0  0
    1.9337   -0.8071   -0.9502 H   0  0  0  0  0  0  0  0  0  0  0  0
    0.6535   -0.1680    0.0984 H   0  0  0  0  0  0  0  0  0  0  0  0
    0.5491    1.8130   -1.1878 H   0  0  0  0  0  0  0  0  0  0  0  0
    1.5310    0.9621   -3.4621 H   0  0  0  0  0  0  0  0  0  0  0  0
    4.1981    1.6359   -1.9882 H   0  0  0  0  0  0  0  0  0  0  0  0
    4.0118    1.5619   -3.8037 H   0  0  0  0  0  0  0  0  0  0  0  0
    2.5627    3.6429   -3.7403 H   0  0  0  0  0  0  0  0  0  0  0  0
  1 10  1  0  0  0  0
  1 12  1  0  0  0  0
  2 14  1  0  0  0  0
  2  1  1  0  0  0  0
  3  2  1  0  0  0  0
  4 15  1  1  0  0  0
  4  3  1  0  0  0  0
  5 16  1  6  0  0  0
  5  4  1  0  0  0  0
  6  5  1  0  0  0  0
  6 17  1  0  0  0  0
  7 19  1  6  0  0  0
  7  6  1  0  0  0  0
  7  5  1  0  0  0  0
  7  8  1  0  0  0  0
  8  4  1  0  0  0  0
  8  9  2  0  0  0  0
 11  1  1  0  0  0  0
 13  2  1  0  0  0  0
 18  6  1  0  0  0  0
M TOR 0 0 1 2 3
M TOR 1 1 2 3 4
M TOR 2 1 2 3 7
M TOR 3 1 2 3 14
M TOR 4 2 1 0 9
M TOR 5 2 1 0 10
M TOR 6 2 1 0 11
M TOR 7 2 3 4 5
M TOR 8 2 3 4 6
M TOR 9 2 3 4 15
M TOR 10 2 3 7 6
M TOR 11 2 3 7 8
M TOR 12 3 2 1 12
M TOR 13 3 2 1 13
M TOR 14 3 4 5 6
M TOR 15 3 4 5 16
M TOR 16 3 4 5 17
M TOR 17 3 4 6 7
M TOR 18 3 4 6 18
M TOR 19 3 7 6 5
M TOR 20 3 7 6 18
M TOR 21 4 3 7 8
M TOR 22 4 5 6 7
M TOR 23 4 5 6 18
M TOR 24 4 6 5 16
M TOR 25 4 6 5 17
M TOR 26 4 6 7 8
M TOR 27 5 4 3 7
M TOR 28 5 4 3 14
M TOR 29 5 6 4 15
M TOR 30 5 6 7 8
M TOR 31 6 4 3 14
M TOR 32 6 7 3 14
M TOR 33 7 3 4 15
M TOR 34 7 6 4 15
M TOR 35 7 6 5 16
M TOR 36 7 6 5 17
M TOR 37 8 7 3 14
M TOR 38 8 7 6 18
M  END
$$$$
