gdb 1655	3.1218656	1.1492185	1.0431966	2.6471	78.71	-0.24022	-0.03034	0.20987999999999998	1221.2386	0.155261	-422.541401	-422.532419	-422.531475	-422.575398	33.383
 OpenBabel02181911403D

 19 20  0  0  1  0  0  0  0  0999 V2000
    1.8411    2.4616   -0.7837 O   0  0  0  0  0  0  0  0  0  0  0  0
    2.4030    1.1938   -0.8025 C   0  0  2  0  0  0  0  0  0  0  0  0
    3.7557    1.0079   -1.4843 C   0  0  0  0  0  0  0  0  0  0  0  0
    2.5223    0.4992   -2.1515 C   0  0  0  0  0  0  0  0  0  0  0  0
    2.2014   -0.9486   -2.5615 C   0  0  0  0  0  0  0  0  0  0  0  0
    1.8514   -0.4137   -3.9829 C   0  0  0  0  0  0  0  0  0  0  0  0
    1.9086    1.0481   -3.4445 C   0  0  0  0  0  0  0  0  0  0  0  0
    2.1091    0.3928    0.3961 C   0  0  0  0  0  0  0  0  0  0  0  0
    1.4106    0.8197    1.2918 O   0  0  0  0  0  0  0  0  0  0  0  0
    1.3478    2.4973    0.0517 H   0  0  0  0  0  0  0  0  0  0  0  0
    4.2014    1.9247   -1.8566 H   0  0  0  0  0  0  0  0  0  0  0  0
    4.4529    0.2955   -1.0512 H   0  0  0  0  0  0  0  0  0  0  0  0
    3.0284   -1.6611   -2.4986 H   0  0  0  0  0  0  0  0  0  0  0  0
    1.3384   -1.3708   -2.0390 H   0  0  0  0  0  0  0  0  0  0  0  0
    2.6362   -0.6232   -4.7130 H   0  0  0  0  0  0  0  0  0  0  0  0
    0.8958   -0.7386   -4.3985 H   0  0  0  0  0  0  0  0  0  0  0  0
    2.5170    1.7583   -4.0092 H   0  0  0  0  0  0  0  0  0  0  0  0
    0.9240    1.4925   -3.2778 H   0  0  0  0  0  0  0  0  0  0  0  0
    2.5581   -0.6199    0.4344 H   0  0  0  0  0  0  0  0  0  0  0  0
  1 10  1  0  0  0  0
  2  1  1  6  0  0  0
  2  8  1  0  0  0  0
  3 12  1  0  0  0  0
  3  2  1  0  0  0  0
  4  3  1  0  0  0  0
  4  2  1  0  0  0  0
  5 13  1  0  0  0  0
  5  4  1  0  0  0  0
  5 14  1  0  0  0  0
  6  7  1  0  0  0  0
  6  5  1  0  0  0  0
  7 18  1  0  0  0  0
  7  4  1  0  0  0  0
  8 19  1  0  0  0  0
  8  9  2  0  0  0  0
 11  3  1  0  0  0  0
 15  6  1  0  0  0  0
 16  6  1  0  0  0  0
 17  7  1  0  0  0  0
M TOR 0 0 1 2 3
M TOR 1 0 1 2 10
M TOR 2 0 1 2 11
M TOR 3 0 1 3 4
M TOR 4 0 1 3 6
M TOR 5 0 1 7 8
M TOR 6 0 1 7 18
M TOR 7 1 2 3 4
M TOR 8 1 2 3 6
M TOR 9 1 3 2 10
M TOR 10 1 3 2 11
M TOR 11 1 3 4 5
M TOR 12 1 3 4 12
M TOR 13 1 3 4 13
M TOR 14 1 3 6 5
M TOR 15 1 3 6 16
M TOR 16 1 3 6 17
M TOR 17 2 1 0 9
M TOR 18 2 1 7 8
M TOR 19 2 1 7 18
M TOR 20 2 3 1 7
M TOR 21 2 3 4 5
M TOR 22 2 3 4 12
M TOR 23 2 3 4 13
M TOR 24 2 3 6 5
M TOR 25 2 3 6 16
M TOR 26 2 3 6 17
M TOR 27 3 1 0 9
M TOR 28 3 1 7 8
M TOR 29 3 1 7 18
M TOR 30 3 4 5 6
M TOR 31 3 4 5 14
M TOR 32 3 4 5 15
M TOR 33 3 6 5 14
M TOR 34 3 6 5 15
M TOR 35 4 3 1 7
M TOR 36 4 3 2 10
M TOR 37 4 3 2 11
M TOR 38 4 3 6 16
M TOR 39 4 3 6 17
M TOR 40 4 5 6 16
M TOR 41 4 5 6 17
M TOR 42 6 3 1 7
M TOR 43 6 3 2 10
M TOR 44 6 3 2 11
M TOR 45 6 3 4 12
M TOR 46 6 3 4 13
M TOR 47 6 5 4 12
M TOR 48 6 5 4 13
M TOR 49 7 1 0 9
M TOR 50 7 1 2 10
M TOR 51 7 1 2 11
M  END
$$$$
