gdb 3500	2.9674789	1.0108858	0.7993758	2.6582	77.45	-0.24754	-0.02157	0.22597	1401.6492	0.156001	-422.579864	-422.570735	-422.569791	-422.614888	32.918
 OpenBabel02181911413D

 19 19  0  0  1  0  0  0  0  0999 V2000
   -1.0013    3.9931   -2.1375 O   0  0  0  0  0  0  0  0  0  0  0  0
   -1.7629    2.8439   -1.7974 C   0  0  2  0  0  0  0  0  0  0  0  0
   -3.1711    3.1172   -1.3237 C   0  0  0  0  0  0  0  0  0  0  0  0
   -3.4977    2.3667   -0.2729 C   0  0  0  0  0  0  0  0  0  0  0  0
   -2.3731    1.4485    0.1446 C   0  0  0  0  0  0  0  0  0  0  0  0
   -1.1549    2.0171   -0.6275 C   0  0  1  0  0  0  0  0  0  0  0  0
   -0.1117    0.9868   -1.0811 C   0  0  0  0  0  0  0  0  0  0  0  0
    0.6139    0.3611    0.0864 C   0  0  0  0  0  0  0  0  0  0  0  0
    0.6414   -0.8159    0.3388 O   0  0  0  0  0  0  0  0  0  0  0  0
   -1.0631    4.6090   -1.3983 H   0  0  0  0  0  0  0  0  0  0  0  0
   -1.7752    2.2530   -2.7237 H   0  0  0  0  0  0  0  0  0  0  0  0
   -3.8173    3.8203   -1.8372 H   0  0  0  0  0  0  0  0  0  0  0  0
   -4.4649    2.3614    0.2180 H   0  0  0  0  0  0  0  0  0  0  0  0
   -2.2188    1.4215    1.2293 H   0  0  0  0  0  0  0  0  0  0  0  0
   -2.5847    0.4130   -0.1576 H   0  0  0  0  0  0  0  0  0  0  0  0
   -0.6566    2.7503    0.0226 H   0  0  0  0  0  0  0  0  0  0  0  0
   -0.5679    0.1920   -1.6796 H   0  0  0  0  0  0  0  0  0  0  0  0
    0.6342    1.5066   -1.6998 H   0  0  0  0  0  0  0  0  0  0  0  0
    1.1412    1.0977    0.7398 H   0  0  0  0  0  0  0  0  0  0  0  0
  1  2  1  0  0  0  0
  1 10  1  0  0  0  0
  2 11  1  6  0  0  0
  2  3  1  0  0  0  0
  2  6  1  0  0  0  0
  3  4  2  0  0  0  0
  4  5  1  0  0  0  0
  4 13  1  0  0  0  0
  5 14  1  0  0  0  0
  6 16  1  1  0  0  0
  6  5  1  0  0  0  0
  7  6  1  0  0  0  0
  7  8  1  0  0  0  0
  8  9  2  0  0  0  0
  8 19  1  0  0  0  0
 12  3  1  0  0  0  0
 15  5  1  0  0  0  0
 17  7  1  0  0  0  0
 18  7  1  0  0  0  0
M TOR 0 0 1 2 3
M TOR 1 0 1 2 11
M TOR 2 0 1 5 4
M TOR 3 0 1 5 6
M TOR 4 0 1 5 15
M TOR 5 1 2 3 4
M TOR 6 1 2 3 12
M TOR 7 1 5 4 3
M TOR 8 1 5 4 13
M TOR 9 1 5 4 14
M TOR 10 1 5 6 7
M TOR 11 1 5 6 16
M TOR 12 1 5 6 17
M TOR 13 2 1 0 9
M TOR 14 2 1 5 4
M TOR 15 2 1 5 6
M TOR 16 2 1 5 15
M TOR 17 2 3 4 5
M TOR 18 2 3 4 13
M TOR 19 2 3 4 14
M TOR 20 3 2 1 5
M TOR 21 3 2 1 10
M TOR 22 3 4 5 6
M TOR 23 3 4 5 15
M TOR 24 4 3 2 11
M TOR 25 4 5 1 10
M TOR 26 4 5 6 7
M TOR 27 4 5 6 16
M TOR 28 4 5 6 17
M TOR 29 5 1 0 9
M TOR 30 5 1 2 11
M TOR 31 5 4 3 12
M TOR 32 5 6 7 8
M TOR 33 5 6 7 18
M TOR 34 6 5 1 10
M TOR 35 6 5 4 13
M TOR 36 6 5 4 14
M TOR 37 7 6 5 15
M TOR 38 8 7 6 16
M TOR 39 8 7 6 17
M  END
$$$$
