gdb 4751	3.9013493	0.6059241	0.562759	2.9327	84.61	-0.25944	-0.05151	0.20793	2010.065	0.152865	-422.54432	-422.533124	-422.53218	-422.582629	37.729
 OpenBabel02181911413D

 19 18  0  0  1  0  0  0  0  0999 V2000
    0.7013   -0.6252   -0.7620 C   0  0  0  0  0  0  0  0  0  0  0  0
    0.8434    0.4481    0.3180 C   0  0  0  0  0  0  0  0  0  0  0  0
    1.9456    1.4745   -0.0235 C   0  0  1  0  0  0  0  0  0  0  0  0
    1.7178    2.1176   -1.2727 O   0  0  0  0  0  0  0  0  0  0  0  0
    2.1051    2.4447    1.0624 C   0  0  0  0  0  0  0  0  0  0  0  0
    2.1761    3.2707    1.9415 C   0  0  0  0  0  0  0  0  0  0  0  0
    2.2719    4.2685    2.9916 C   0  0  0  0  0  0  0  0  0  0  0  0
    3.0726    3.8572    4.2099 C   0  0  0  0  0  0  0  0  0  0  0  0
    1.7409    5.3534    2.8838 O   0  0  0  0  0  0  0  0  0  0  0  0
   -0.1188   -1.3088   -0.5251 H   0  0  0  0  0  0  0  0  0  0  0  0
    0.5029   -0.1688   -1.7347 H   0  0  0  0  0  0  0  0  0  0  0  0
    1.6178   -1.2188   -0.8512 H   0  0  0  0  0  0  0  0  0  0  0  0
   -0.1015    0.9902    0.4494 H   0  0  0  0  0  0  0  0  0  0  0  0
    1.0801   -0.0047    1.2877 H   0  0  0  0  0  0  0  0  0  0  0  0
    2.8917    0.9345   -0.1594 H   0  0  0  0  0  0  0  0  0  0  0  0
    1.0002    2.7498   -1.1497 H   0  0  0  0  0  0  0  0  0  0  0  0
    2.6416    2.9551    4.6575 H   0  0  0  0  0  0  0  0  0  0  0  0
    4.0991    3.6099    3.9181 H   0  0  0  0  0  0  0  0  0  0  0  0
    3.0758    4.6710    4.9364 H   0  0  0  0  0  0  0  0  0  0  0  0
  1 10  1  0  0  0  0
  1  2  1  0  0  0  0
  2 13  1  0  0  0  0
  2 14  1  0  0  0  0
  3 15  1  6  0  0  0
  3  2  1  0  0  0  0
  3  5  1  0  0  0  0
  4 16  1  0  0  0  0
  4  3  1  0  0  0  0
  5  6  3  0  0  0  0
  6  7  1  0  0  0  0
  7  8  1  0  0  0  0
  8 17  1  0  0  0  0
  8 19  1  0  0  0  0
  9  7  2  0  0  0  0
 11  1  1  0  0  0  0
 12  1  1  0  0  0  0
 18  8  1  0  0  0  0
M TOR 0 0 1 2 3
M TOR 1 0 1 2 4
M TOR 2 0 1 2 14
M TOR 3 1 2 3 15
M TOR 4 1 2 4 5
M TOR 5 2 1 0 9
M TOR 6 2 1 0 10
M TOR 7 2 1 0 11
M TOR 8 2 4 5 6
M TOR 9 3 2 1 12
M TOR 10 3 2 1 13
M TOR 11 3 2 4 5
M TOR 12 4 2 1 12
M TOR 13 4 2 1 13
M TOR 14 4 2 3 15
M TOR 15 4 5 6 7
M TOR 16 4 5 6 8
M TOR 17 5 4 2 14
M TOR 18 5 6 7 16
M TOR 19 5 6 7 17
M TOR 20 5 6 7 18
M TOR 21 8 6 7 16
M TOR 22 8 6 7 17
M TOR 23 8 6 7 18
M  END
$$$$
