
     RDKit          3D

 19 19  0  0  0  0  0  0  0  0999 V2000
    1.8759    2.2735    0.3770 C   0  0  0  0  0  0  0  0  0  0  0  0
    2.0416    0.9304    1.0414 C   0  0  0  0  0  0  0  0  0  0  0  0
    2.4898    1.0433    2.3708 O   0  0  0  0  0  0  0  0  0  0  0  0
    2.6027   -0.2812    0.3528 C   0  0  0  0  0  0  0  0  0  0  0  0
    3.5223   -1.0570    1.0280 O   0  0  0  0  0  0  0  0  0  0  0  0
    1.1040   -0.2664    0.7469 C   0  0  0  0  0  0  0  0  0  0  0  0
    0.0626   -0.1763   -0.3588 C   0  0  0  0  0  0  0  0  0  0  0  0
    0.7083   -1.0097    1.9068 C   0  0  0  0  0  0  0  0  0  0  0  0
    0.3725   -1.5750    2.9172 C   0  0  0  0  0  0  0  0  0  0  0  0
    1.0639    2.8426    0.8418 H   0  0  0  0  0  0  0  0  0  0  0  0
    2.7999    2.8495    0.4894 H   0  0  0  0  0  0  0  0  0  0  0  0
    1.6648    2.1772   -0.6902 H   0  0  0  0  0  0  0  0  0  0  0  0
    1.8260    0.6453    2.9525 H   0  0  0  0  0  0  0  0  0  0  0  0
    2.7913   -0.2395   -0.7171 H   0  0  0  0  0  0  0  0  0  0  0  0
    3.6513   -0.6198    1.8840 H   0  0  0  0  0  0  0  0  0  0  0  0
   -0.2577   -1.1796   -0.6550 H   0  0  0  0  0  0  0  0  0  0  0  0
   -0.8221    0.3796   -0.0323 H   0  0  0  0  0  0  0  0  0  0  0  0
    0.4664    0.3191   -1.2452 H   0  0  0  0  0  0  0  0  0  0  0  0
    0.0769   -2.1205    3.7792 H   0  0  0  0  0  0  0  0  0  0  0  0
  1  2  1  0
  2  3  1  0
  2  4  1  0
  4  5  1  0
  4  6  1  0
  6  7  1  0
  6  8  1  0
  8  9  3  0
  6  2  1  0
  1 10  1  0
  1 11  1  0
  1 12  1  0
  3 13  1  0
  4 14  1  0
  5 15  1  0
  7 16  1  0
  7 17  1  0
  7 18  1  0
  9 19  1  0
M  END
$$$$
