gdb 1715	3.0463881	1.3418107	1.198413	2.4558	75.43	-0.26135	-0.03337	0.22798000000000002	1097.6868	0.157265	-422.577401	-422.569218	-422.568274	-422.609954	31.902
 OpenBabel02181911403D

 19 20  0  0  1  0  0  0  0  0999 V2000
    1.6386    2.3205   -1.4210 O   0  0  0  0  0  0  0  0  0  0  0  0
    2.4642    1.6634   -0.4876 C   0  0  1  0  0  0  0  0  0  0  0  0
    3.7757    1.1602   -1.1600 C   0  0  0  0  0  0  0  0  0  0  0  0
    4.7347    2.3713   -1.1064 C   0  0  0  0  0  0  0  0  0  0  0  0
    4.3419    3.1224    0.1565 C   0  0  2  0  0  0  0  0  0  0  0  0
    4.1505    2.3141    1.4125 C   0  0  0  0  0  0  0  0  0  0  0  0
    2.9537    2.6695    0.5569 C   0  0  2  0  0  0  0  0  0  0  0  0
    1.6929    0.5247    0.1464 C   0  0  0  0  0  0  0  0  0  0  0  0
    0.5520    0.2693   -0.1588 O   0  0  0  0  0  0  0  0  0  0  0  0
    0.7979    1.8351   -1.4082 H   0  0  0  0  0  0  0  0  0  0  0  0
    4.1921    0.3091   -0.6101 H   0  0  0  0  0  0  0  0  0  0  0  0
    3.5605    0.8243   -2.1756 H   0  0  0  0  0  0  0  0  0  0  0  0
    5.7849    2.0613   -1.1179 H   0  0  0  0  0  0  0  0  0  0  0  0
    4.5692    3.0164   -1.9753 H   0  0  0  0  0  0  0  0  0  0  0  0
    4.6269    4.1637    0.2525 H   0  0  0  0  0  0  0  0  0  0  0  0
    4.5087    1.2905    1.4495 H   0  0  0  0  0  0  0  0  0  0  0  0
    4.2350    2.8374    2.3585 H   0  0  0  0  0  0  0  0  0  0  0  0
    2.2100    3.3569    0.9417 H   0  0  0  0  0  0  0  0  0  0  0  0
    2.2337   -0.0604    0.9170 H   0  0  0  0  0  0  0  0  0  0  0  0
  1 10  1  0  0  0  0
  2  1  1  6  0  0  0
  2  8  1  0  0  0  0
  2  7  1  0  0  0  0
  3  4  1  0  0  0  0
  3 11  1  0  0  0  0
  3  2  1  0  0  0  0
  4  5  1  0  0  0  0
  5 15  1  1  0  0  0
  5  7  1  0  0  0  0
  5  6  1  0  0  0  0
  6 16  1  0  0  0  0
  6 17  1  0  0  0  0
  7 18  1  1  0  0  0
  7  6  1  0  0  0  0
  8 19  1  0  0  0  0
  9  8  2  0  0  0  0
 12  3  1  0  0  0  0
 13  4  1  0  0  0  0
 14  4  1  0  0  0  0
M TOR 0 0 1 2 3
M TOR 1 0 1 2 10
M TOR 2 0 1 2 11
M TOR 3 0 1 6 4
M TOR 4 0 1 6 5
M TOR 5 0 1 6 17
M TOR 6 0 1 7 8
M TOR 7 0 1 7 18
M TOR 8 1 2 3 4
M TOR 9 1 2 3 12
M TOR 10 1 2 3 13
M TOR 11 1 6 4 3
M TOR 12 1 6 4 5
M TOR 13 1 6 4 14
M TOR 14 1 6 5 15
M TOR 15 1 6 5 16
M TOR 16 2 1 0 9
M TOR 17 2 1 6 4
M TOR 18 2 1 6 5
M TOR 19 2 1 6 17
M TOR 20 2 1 7 8
M TOR 21 2 1 7 18
M TOR 22 2 3 4 5
M TOR 23 2 3 4 6
M TOR 24 2 3 4 14
M TOR 25 3 2 1 6
M TOR 26 3 2 1 7
M TOR 27 3 4 5 6
M TOR 28 3 4 5 15
M TOR 29 3 4 5 16
M TOR 30 3 4 6 17
M TOR 31 4 3 2 10
M TOR 32 4 3 2 11
M TOR 33 4 5 6 17
M TOR 34 4 6 1 7
M TOR 35 4 6 5 15
M TOR 36 4 6 5 16
M TOR 37 5 4 3 12
M TOR 38 5 4 3 13
M TOR 39 5 6 1 7
M TOR 40 5 6 4 14
M TOR 41 6 1 0 9
M TOR 42 6 1 2 10
M TOR 43 6 1 2 11
M TOR 44 6 1 7 8
M TOR 45 6 1 7 18
M TOR 46 6 4 3 12
M TOR 47 6 4 3 13
M TOR 48 7 1 0 9
M TOR 49 7 1 2 10
M TOR 50 7 1 2 11
M TOR 51 7 1 6 17
M  END
$$$$
