gdb 4245	3.018418	1.7096804	1.5712691	2.7545	72.68	-0.23647	0.06743	0.3039	926.2907	0.160344	-422.552708	-422.54591	-422.544965	-422.583502	28.355
 OpenBabel02181911413D

 19 21  0  0  1  0  0  0  0  0999 V2000
    0.6547   -0.0924    0.7523 O   0  0  0  0  0  0  0  0  0  0  0  0
   -0.6835    0.3803    0.8758 C   0  0  2  0  0  0  0  0  0  0  0  0
   -1.2067    0.4556    2.3467 C   0  0  0  0  0  0  0  0  0  0  0  0
   -2.0774   -0.8023    2.4795 C   0  0  2  0  0  0  0  0  0  0  0  0
   -1.2032   -2.0592    2.1820 C   0  0  0  0  0  0  0  0  0  0  0  0
   -1.5212   -2.1288    0.6773 C   0  0  1  0  0  0  0  0  0  0  0  0
   -2.9850   -2.1927    0.7130 O   0  0  0  0  0  0  0  0  0  0  0  0
   -2.8774   -0.8132    1.1284 C   0  0  2  0  0  0  0  0  0  0  0  0
   -1.6294   -0.6319    0.2357 C   0  0  1  0  0  0  0  0  0  0  0  0
    1.2398    0.5648    1.1418 H   0  0  0  0  0  0  0  0  0  0  0  0
   -0.7773    1.3576    0.3816 H   0  0  0  0  0  0  0  0  0  0  0  0
   -0.3830    0.4897    3.0672 H   0  0  0  0  0  0  0  0  0  0  0  0
   -1.8066    1.3634    2.4855 H   0  0  0  0  0  0  0  0  0  0  0  0
   -2.6747   -0.8564    3.3897 H   0  0  0  0  0  0  0  0  0  0  0  0
   -0.1457   -1.9129    2.4045 H   0  0  0  0  0  0  0  0  0  0  0  0
   -1.5677   -2.9601    2.6796 H   0  0  0  0  0  0  0  0  0  0  0  0
   -1.0565   -2.8969    0.0608 H   0  0  0  0  0  0  0  0  0  0  0  0
   -3.7994   -0.2372    1.0456 H   0  0  0  0  0  0  0  0  0  0  0  0
   -1.8240   -0.5231   -0.8299 H   0  0  0  0  0  0  0  0  0  0  0  0
  1  2  1  0  0  0  0
  1 10  1  0  0  0  0
  2 11  1  6  0  0  0
  2  3  1  0  0  0  0
  3  4  1  0  0  0  0
  3 13  1  0  0  0  0
  3 12  1  0  0  0  0
  4 14  1  1  0  0  0
  5 15  1  0  0  0  0
  5  4  1  0  0  0  0
  5 16  1  0  0  0  0
  6 17  1  6  0  0  0
  6  7  1  0  0  0  0
  6  5  1  0  0  0  0
  7  8  1  0  0  0  0
  8 18  1  6  0  0  0
  8  4  1  0  0  0  0
  9 19  1  6  0  0  0
  9  6  1  0  0  0  0
  9  2  1  0  0  0  0
  9  8  1  0  0  0  0
M TOR 0 0 1 2 3
M TOR 1 0 1 2 11
M TOR 2 0 1 2 12
M TOR 3 0 1 8 5
M TOR 4 0 1 8 7
M TOR 5 0 1 8 18
M TOR 6 1 2 3 4
M TOR 7 1 2 3 7
M TOR 8 1 2 3 13
M TOR 9 1 8 5 4
M TOR 10 1 8 5 6
M TOR 11 1 8 5 16
M TOR 12 1 8 7 3
M TOR 13 1 8 7 6
M TOR 14 1 8 7 17
M TOR 15 2 1 0 9
M TOR 16 2 1 8 5
M TOR 17 2 1 8 7
M TOR 18 2 1 8 18
M TOR 19 2 3 4 5
M TOR 20 2 3 4 14
M TOR 21 2 3 4 15
M TOR 22 2 3 7 6
M TOR 23 2 3 7 8
M TOR 24 2 3 7 17
M TOR 25 3 2 1 8
M TOR 26 3 2 1 10
M TOR 27 3 4 5 6
M TOR 28 3 4 5 8
M TOR 29 3 4 5 16
M TOR 30 3 7 6 5
M TOR 31 3 7 8 5
M TOR 32 3 7 8 18
M TOR 33 4 3 2 11
M TOR 34 4 3 2 12
M TOR 35 4 3 7 6
M TOR 36 4 3 7 8
M TOR 37 4 3 7 17
M TOR 38 4 5 6 7
M TOR 39 4 5 8 7
M TOR 40 4 5 8 18
M TOR 41 5 4 3 7
M TOR 42 5 4 3 13
M TOR 43 5 6 7 8
M TOR 44 5 6 7 17
M TOR 45 5 8 1 10
M TOR 46 5 8 7 17
M TOR 47 6 5 4 14
M TOR 48 6 5 4 15
M TOR 49 6 5 8 18
M TOR 50 6 7 3 13
M TOR 51 6 7 8 18
M TOR 52 7 3 2 11
M TOR 53 7 3 2 12
M TOR 54 7 3 4 14
M TOR 55 7 3 4 15
M TOR 56 7 6 5 16
M TOR 57 7 8 1 10
M TOR 58 7 8 5 16
M TOR 59 8 1 0 9
M TOR 60 8 1 2 11
M TOR 61 8 1 2 12
M TOR 62 8 5 4 14
M TOR 63 8 5 4 15
M TOR 64 8 7 3 13
M  END
$$$$
