
     RDKit          3D

 19 19  0  0  0  0  0  0  0  0999 V2000
    1.4277   -0.0653   -0.3220 C   0  0  0  0  0  0  0  0  0  0  0  0
    0.0233   -0.0956   -0.1407 O   0  0  0  0  0  0  0  0  0  0  0  0
   -0.4431    0.5519    1.0366 C   0  0  0  0  0  0  0  0  0  0  0  0
    0.0486   -0.0448    2.3779 C   0  0  0  0  0  0  0  0  0  0  0  0
   -1.1912   -0.0484    3.3082 C   0  0  0  0  0  0  0  0  0  0  0  0
   -2.3461    0.0806    2.3476 C   0  0  0  0  0  0  0  0  0  0  0  0
   -1.9481    0.3913    1.1157 C   0  0  0  0  0  0  0  0  0  0  0  0
   -0.1632    2.0569    0.9130 C   0  0  0  0  0  0  0  0  0  0  0  0
    0.2411    2.7639    1.7994 O   0  0  0  0  0  0  0  0  0  0  0  0
    1.9575   -0.6203    0.4640 H   0  0  0  0  0  0  0  0  0  0  0  0
    1.6298   -0.5406   -1.2844 H   0  0  0  0  0  0  0  0  0  0  0  0
    1.8265    0.9597   -0.3460 H   0  0  0  0  0  0  0  0  0  0  0  0
    0.3736   -1.0710    2.1849 H   0  0  0  0  0  0  0  0  0  0  0  0
    0.8839    0.5175    2.7976 H   0  0  0  0  0  0  0  0  0  0  0  0
   -1.2552   -0.9491    3.9287 H   0  0  0  0  0  0  0  0  0  0  0  0
   -1.1697    0.8050    3.9978 H   0  0  0  0  0  0  0  0  0  0  0  0
   -3.3797   -0.0467    2.6511 H   0  0  0  0  0  0  0  0  0  0  0  0
   -2.5760    0.5621    0.2498 H   0  0  0  0  0  0  0  0  0  0  0  0
   -0.3992    2.4583   -0.0994 H   0  0  0  0  0  0  0  0  0  0  0  0
  1  2  1  0
  2  3  1  0
  3  4  1  0
  4  5  1  0
  5  6  1  0
  6  7  2  0
  3  8  1  0
  8  9  2  0
  7  3  1  0
  1 10  1  0
  1 11  1  0
  1 12  1  0
  4 13  1  0
  4 14  1  0
  5 15  1  0
  5 16  1  0
  6 17  1  0
  7 18  1  0
  8 19  1  0
M  END
$$$$
