gdb 5641	3.2416667	1.0174933	0.8043807	4.7652	76.5	-0.23033	-0.08613	0.1442	1416.0649	0.155682	-422.599924	-422.590803	-422.589859	-422.634256	33.234
 OpenBabel02181911423D

 19 19  0  0  0  0  0  0  0  0999 V2000
    3.3588   -0.9453    0.7910 C   0  0  0  0  0  0  0  0  0  0  0  0
    3.0900   -0.3904   -0.6112 C   0  0  0  0  0  0  0  0  0  0  0  0
    1.6952   -0.7144   -1.1533 C   0  0  0  0  0  0  0  0  0  0  0  0
    1.3992   -0.0691   -2.5278 C   0  0  0  0  0  0  0  0  0  0  0  0
    0.2725   -0.8946   -3.1255 C   0  0  0  0  0  0  0  0  0  0  0  0
   -0.5074   -0.5908   -3.9862 O   0  0  0  0  0  0  0  0  0  0  0  0
    0.2851   -2.2729   -2.3896 C   0  0  0  0  0  0  0  0  0  0  0  0
   -0.4804   -3.1701   -2.6132 O   0  0  0  0  0  0  0  0  0  0  0  0
    1.4149   -2.2210   -1.3729 C   0  0  0  0  0  0  0  0  0  0  0  0
    3.3043   -2.0384    0.8114 H   0  0  0  0  0  0  0  0  0  0  0  0
    4.3547   -0.6584    1.1407 H   0  0  0  0  0  0  0  0  0  0  0  0
    2.6297   -0.5625    1.5138 H   0  0  0  0  0  0  0  0  0  0  0  0
    3.2173    0.6996   -0.6015 H   0  0  0  0  0  0  0  0  0  0  0  0
    3.8408   -0.7778   -1.3141 H   0  0  0  0  0  0  0  0  0  0  0  0
    0.9510   -0.3370   -0.4383 H   0  0  0  0  0  0  0  0  0  0  0  0
    1.1495    0.9935   -2.4888 H   0  0  0  0  0  0  0  0  0  0  0  0
    2.2736   -0.1740   -3.1880 H   0  0  0  0  0  0  0  0  0  0  0  0
    1.1665   -2.7828   -0.4706 H   0  0  0  0  0  0  0  0  0  0  0  0
    2.2929   -2.7051   -1.8273 H   0  0  0  0  0  0  0  0  0  0  0  0
  1 10  1  0  0  0  0
  1 11  1  0  0  0  0
  1 12  1  0  0  0  0
  2 13  1  0  0  0  0
  2  1  1  0  0  0  0
  3  2  1  0  0  0  0
  3 15  1  0  0  0  0
  4 16  1  0  0  0  0
  4  3  1  0  0  0  0
  5  4  1  0  0  0  0
  5  7  1  0  0  0  0
  6  5  2  0  0  0  0
  7  9  1  0  0  0  0
  8  7  2  0  0  0  0
  9  3  1  0  0  0  0
  9 18  1  0  0  0  0
 14  2  1  0  0  0  0
 17  4  1  0  0  0  0
 19  9  1  0  0  0  0
M TOR 0 0 1 2 3
M TOR 1 0 1 2 8
M TOR 2 0 1 2 14
M TOR 3 1 2 3 4
M TOR 4 1 2 3 15
M TOR 5 1 2 3 16
M TOR 6 1 2 8 6
M TOR 7 1 2 8 17
M TOR 8 1 2 8 18
M TOR 9 2 1 0 9
M TOR 10 2 1 0 10
M TOR 11 2 1 0 11
M TOR 12 2 3 4 5
M TOR 13 2 3 4 6
M TOR 14 2 8 6 4
M TOR 15 2 8 6 7
M TOR 16 3 2 1 12
M TOR 17 3 2 1 13
M TOR 18 3 2 8 6
M TOR 19 3 2 8 17
M TOR 20 3 2 8 18
M TOR 21 3 4 6 7
M TOR 22 3 4 6 8
M TOR 23 4 3 2 8
M TOR 24 4 3 2 14
M TOR 25 4 6 8 17
M TOR 26 4 6 8 18
M TOR 27 5 4 3 15
M TOR 28 5 4 3 16
M TOR 29 5 4 6 7
M TOR 30 5 4 6 8
M TOR 31 6 4 3 15
M TOR 32 6 4 3 16
M TOR 33 6 8 2 14
M TOR 34 7 6 8 17
M TOR 35 7 6 8 18
M TOR 36 8 2 1 12
M TOR 37 8 2 1 13
M TOR 38 8 2 3 15
M TOR 39 8 2 3 16
M  END
$$$$
