
     RDKit          3D

 19 19  0  0  0  0  0  0  0  0999 V2000
   -2.2021    1.7047    0.2119 C   0  0  0  0  0  0  0  0  0  0  0  0
   -0.9665    2.0170   -0.6444 C   0  0  0  0  0  0  0  0  0  0  0  0
   -0.2226    0.7353   -1.0702 C   0  0  0  0  0  0  0  0  0  0  0  0
    0.3492   -0.0043    0.1192 C   0  0  0  0  0  0  0  0  0  0  0  0
   -0.0472   -1.0677    0.5225 O   0  0  0  0  0  0  0  0  0  0  0  0
   -0.1024    3.2067   -0.0900 C   0  0  0  0  0  0  0  0  0  0  0  0
   -0.6952    4.1681   -1.1636 C   0  0  0  0  0  0  0  0  0  0  0  0
   -1.3313    2.9410   -1.8327 C   0  0  0  0  0  0  0  0  0  0  0  0
   -1.8403    2.7360   -2.8954 O   0  0  0  0  0  0  0  0  0  0  0  0
   -1.9199    1.1871    1.1341 H   0  0  0  0  0  0  0  0  0  0  0  0
   -2.7344    2.6202    0.4889 H   0  0  0  0  0  0  0  0  0  0  0  0
   -2.8967    1.0625   -0.3379 H   0  0  0  0  0  0  0  0  0  0  0  0
   -0.9037    0.0709   -1.6087 H   0  0  0  0  0  0  0  0  0  0  0  0
    0.6052    1.0039   -1.7401 H   0  0  0  0  0  0  0  0  0  0  0  0
    1.1842    0.5238    0.6361 H   0  0  0  0  0  0  0  0  0  0  0  0
   -0.2972    3.4768    0.9490 H   0  0  0  0  0  0  0  0  0  0  0  0
    0.9715    3.0516   -0.2159 H   0  0  0  0  0  0  0  0  0  0  0  0
   -1.4459    4.8642   -0.7765 H   0  0  0  0  0  0  0  0  0  0  0  0
    0.0029    4.7319   -1.7872 H   0  0  0  0  0  0  0  0  0  0  0  0
  1  2  1  0
  2  3  1  0
  3  4  1  0
  4  5  2  0
  2  6  1  0
  6  7  1  0
  7  8  1  0
  8  9  2  0
  8  2  1  0
  1 10  1  0
  1 11  1  0
  1 12  1  0
  3 13  1  0
  3 14  1  0
  4 15  1  0
  6 16  1  0
  6 17  1  0
  7 18  1  0
  7 19  1  0
M  END
$$$$
