gdb 2708	2.520949	1.8111256	1.2638818	0.6749	74.27	-0.21489	0.07155	0.28644000000000003	1035.1247	0.154759	-422.501	-422.492327	-422.491383	-422.533439	33.794
 OpenBabel02181911413D

 19 21  0  0  1  0  0  0  0  0999 V2000
    1.3122    1.1493   -0.1267 C   0  0  0  0  0  0  0  0  0  0  0  0
    1.0899   -0.3508    0.0082 C   0  0  1  0  0  0  0  0  0  0  0  0
    1.8905   -1.1785   -1.0048 C   0  0  2  0  0  0  0  0  0  0  0  0
    1.9734   -1.0017   -2.3691 O   0  0  0  0  0  0  0  0  0  0  0  0
    2.1748   -2.5099   -0.2867 C   0  0  2  0  0  0  0  0  0  0  0  0
    1.5353   -2.4646    0.9855 O   0  0  0  0  0  0  0  0  0  0  0  0
    1.9898   -1.0692    1.0659 C   0  0  2  0  0  0  0  0  0  0  0  0
    2.1946   -0.5763    2.4634 C   0  0  0  0  0  0  0  0  0  0  0  0
    3.0700   -1.3348   -0.0604 C   0  0  2  0  0  0  0  0  0  0  0  0
    0.8638    1.6960    0.7092 H   0  0  0  0  0  0  0  0  0  0  0  0
    2.3804    1.3906   -0.1617 H   0  0  0  0  0  0  0  0  0  0  0  0
    0.8631    1.5231   -1.0523 H   0  0  0  0  0  0  0  0  0  0  0  0
    0.0238   -0.5898    0.1113 H   0  0  0  0  0  0  0  0  0  0  0  0
    1.2333   -1.4617   -2.7815 H   0  0  0  0  0  0  0  0  0  0  0  0
    2.3341   -3.4597   -0.7813 H   0  0  0  0  0  0  0  0  0  0  0  0
    2.9278   -1.1955    2.9877 H   0  0  0  0  0  0  0  0  0  0  0  0
    2.5464    0.4594    2.4625 H   0  0  0  0  0  0  0  0  0  0  0  0
    1.2502   -0.6195    3.0171 H   0  0  0  0  0  0  0  0  0  0  0  0
    4.1343   -1.1706   -0.1534 H   0  0  0  0  0  0  0  0  0  0  0  0
  1  2  1  0  0  0  0
  1 10  1  0  0  0  0
  2 13  1  1  0  0  0
  2  7  1  0  0  0  0
  3  4  1  6  0  0  0
  3  5  1  0  0  0  0
  3  9  1  0  0  0  0
  3  2  1  0  0  0  0
  5 15  1  6  0  0  0
  5  9  1  0  0  0  0
  5  6  1  0  0  0  0
  6  7  1  0  0  0  0
  7  8  1  1  0  0  0
  8 16  1  0  0  0  0
  8 18  1  0  0  0  0
  9 19  1  6  0  0  0
  9  7  1  0  0  0  0
 11  1  1  0  0  0  0
 12  1  1  0  0  0  0
 14  4  1  0  0  0  0
 17  8  1  0  0  0  0
M TOR 0 0 1 2 3
M TOR 1 0 1 2 4
M TOR 2 0 1 2 8
M TOR 3 0 1 6 5
M TOR 4 0 1 6 7
M TOR 5 0 1 6 8
M TOR 6 1 2 3 13
M TOR 7 1 2 4 5
M TOR 8 1 2 4 8
M TOR 9 1 2 4 14
M TOR 10 1 2 8 6
M TOR 11 1 2 8 18
M TOR 12 1 6 5 4
M TOR 13 1 6 7 15
M TOR 14 1 6 7 16
M TOR 15 1 6 7 17
M TOR 16 1 6 8 4
M TOR 17 1 6 8 18
M TOR 18 2 1 0 9
M TOR 19 2 1 0 10
M TOR 20 2 1 0 11
M TOR 21 2 1 6 5
M TOR 22 2 1 6 7
M TOR 23 2 4 5 6
M TOR 24 2 4 8 6
M TOR 25 2 4 8 18
M TOR 26 2 8 4 5
M TOR 27 2 8 4 14
M TOR 28 2 8 6 5
M TOR 29 2 8 6 7
M TOR 30 3 2 1 6
M TOR 31 3 2 1 12
M TOR 32 3 2 4 5
M TOR 33 3 2 4 8
M TOR 34 3 2 4 14
M TOR 35 3 2 8 6
M TOR 36 3 2 8 18
M TOR 37 4 2 1 6
M TOR 38 4 2 1 12
M TOR 39 4 2 3 13
M TOR 40 4 5 6 7
M TOR 41 4 5 6 8
M TOR 42 4 8 6 7
M TOR 43 5 4 8 18
M TOR 44 5 6 1 12
M TOR 45 5 6 7 15
M TOR 46 5 6 7 16
M TOR 47 5 6 7 17
M TOR 48 5 6 8 18
M TOR 49 6 1 0 9
M TOR 50 6 1 0 10
M TOR 51 6 1 0 11
M TOR 52 6 5 4 14
M TOR 53 6 8 4 14
M TOR 54 7 6 1 12
M TOR 55 7 6 8 18
M TOR 56 8 2 1 12
M TOR 57 8 2 3 13
M TOR 58 8 6 1 12
M TOR 59 8 6 7 15
M TOR 60 8 6 7 16
M TOR 61 8 6 7 17
M  END
$$$$
