
     RDKit          3D

 19 19  0  0  0  0  0  0  0  0999 V2000
    0.9872   -1.2477    1.1162 O   0  0  0  0  0  0  0  0  0  0  0  0
    0.1061   -0.4886    1.9250 C   0  0  0  0  0  0  0  0  0  0  0  0
    0.8558    0.5235    2.7997 C   0  0  0  0  0  0  0  0  0  0  0  0
   -0.1165    1.4979    3.4767 C   0  0  0  0  0  0  0  0  0  0  0  0
   -1.0366    2.1120    2.4227 C   0  0  0  0  0  0  0  0  0  0  0  0
   -1.7244    1.1087    1.6906 O   0  0  0  0  0  0  0  0  0  0  0  0
   -0.8446    0.2585    0.9625 C   0  0  0  0  0  0  0  0  0  0  0  0
   -1.6519   -0.6564    0.1629 C   0  0  0  0  0  0  0  0  0  0  0  0
   -2.3145   -1.4133   -0.4923 C   0  0  0  0  0  0  0  0  0  0  0  0
    1.5690   -1.7486    1.6963 H   0  0  0  0  0  0  0  0  0  0  0  0
   -0.5168   -1.1403    2.5569 H   0  0  0  0  0  0  0  0  0  0  0  0
    1.4624   -0.0078    3.5437 H   0  0  0  0  0  0  0  0  0  0  0  0
    1.5522    1.0735    2.1532 H   0  0  0  0  0  0  0  0  0  0  0  0
   -0.7294    0.9696    4.2166 H   0  0  0  0  0  0  0  0  0  0  0  0
    0.4289    2.2864    4.0072 H   0  0  0  0  0  0  0  0  0  0  0  0
   -1.8134    2.7324    2.8779 H   0  0  0  0  0  0  0  0  0  0  0  0
   -0.4523    2.7479    1.7351 H   0  0  0  0  0  0  0  0  0  0  0  0
   -0.2123    0.8624    0.2871 H   0  0  0  0  0  0  0  0  0  0  0  0
   -2.8985   -2.0814   -1.0755 H   0  0  0  0  0  0  0  0  0  0  0  0
  1  2  1  0
  2  3  1  0
  3  4  1  0
  4  5  1  0
  5  6  1  0
  6  7  1  0
  7  8  1  0
  8  9  3  0
  7  2  1  0
  1 10  1  0
  2 11  1  0
  3 12  1  0
  3 13  1  0
  4 14  1  0
  4 15  1  0
  5 16  1  0
  5 17  1  0
  7 18  1  0
  9 19  1  0
M  END
$$$$
