gdb 3322	2.1754311	1.7334125	1.4361378	2.671	74.45	-0.22978	-0.0155	0.21428000000000003	1019.4998	0.15699	-422.572036	-422.563387	-422.562443	-422.604792	32.862
 OpenBabel02181911413D

 19 20  0  0  1  0  0  0  0  0999 V2000
   -0.8653   -2.4528   -0.4560 C   0  0  0  0  0  0  0  0  0  0  0  0
   -1.1166   -1.0244   -0.0488 C   0  0  2  0  0  0  0  0  0  0  0  0
   -1.8302   -0.7338    1.2963 C   0  0  0  0  0  0  0  0  0  0  0  0
   -1.8327    0.8386    1.2937 C   0  0  0  0  0  0  0  0  0  0  0  0
   -1.1247    1.1040   -0.0544 C   0  0  2  0  0  0  0  0  0  0  0  0
   -1.8113    0.0418   -0.9872 C   0  0  2  0  0  0  0  0  0  0  0  0
   -3.1986    0.0310   -1.1642 O   0  0  0  0  0  0  0  0  0  0  0  0
   -0.0110    0.0458    0.0165 C   0  0  0  0  0  0  0  0  0  0  0  0
    1.1848    0.0410   -0.0163 O   0  0  0  0  0  0  0  0  0  0  0  0
   -0.3077   -2.9904    0.3182 H   0  0  0  0  0  0  0  0  0  0  0  0
   -1.8085   -2.9848   -0.6217 H   0  0  0  0  0  0  0  0  0  0  0  0
   -0.2808   -2.5024   -1.3798 H   0  0  0  0  0  0  0  0  0  0  0  0
   -2.8375   -1.1639    1.3171 H   0  0  0  0  0  0  0  0  0  0  0  0
   -1.2835   -1.1525    2.1450 H   0  0  0  0  0  0  0  0  0  0  0  0
   -2.8409    1.2649    1.3176 H   0  0  0  0  0  0  0  0  0  0  0  0
   -1.2845    1.2617    2.1383 H   0  0  0  0  0  0  0  0  0  0  0  0
   -0.9451    2.1323   -0.3589 H   0  0  0  0  0  0  0  0  0  0  0  0
   -1.3765    0.0366   -1.9889 H   0  0  0  0  0  0  0  0  0  0  0  0
   -3.6309    0.0803   -0.3058 H   0  0  0  0  0  0  0  0  0  0  0  0
  1 10  1  0  0  0  0
  2  1  1  6  0  0  0
  2  8  1  0  0  0  0
  2  3  1  0  0  0  0
  3 13  1  0  0  0  0
  3 14  1  0  0  0  0
  4  3  1  0  0  0  0
  4 15  1  0  0  0  0
  4 16  1  0  0  0  0
  5 17  1  6  0  0  0
  5  8  1  0  0  0  0
  5  4  1  0  0  0  0
  6 18  1  6  0  0  0
  6  5  1  0  0  0  0
  6  2  1  0  0  0  0
  7  6  1  0  0  0  0
  7 19  1  0  0  0  0
  9  8  2  0  0  0  0
 11  1  1  0  0  0  0
 12  1  1  0  0  0  0
M TOR 0 0 1 2 3
M TOR 1 0 1 2 12
M TOR 2 0 1 2 13
M TOR 3 0 1 5 4
M TOR 4 0 1 5 6
M TOR 5 0 1 5 17
M TOR 6 0 1 7 4
M TOR 7 0 1 7 8
M TOR 8 1 2 3 4
M TOR 9 1 2 3 14
M TOR 10 1 2 3 15
M TOR 11 1 5 4 3
M TOR 12 1 5 4 7
M TOR 13 1 5 4 16
M TOR 14 1 5 6 18
M TOR 15 1 7 4 3
M TOR 16 1 7 4 16
M TOR 17 2 1 0 9
M TOR 18 2 1 0 10
M TOR 19 2 1 0 11
M TOR 20 2 1 5 4
M TOR 21 2 1 5 6
M TOR 22 2 1 5 17
M TOR 23 2 1 7 4
M TOR 24 2 1 7 8
M TOR 25 2 3 4 5
M TOR 26 2 3 4 7
M TOR 27 2 3 4 16
M TOR 28 3 2 1 5
M TOR 29 3 2 1 7
M TOR 30 3 4 5 6
M TOR 31 3 4 5 17
M TOR 32 3 4 7 8
M TOR 33 4 3 2 12
M TOR 34 4 3 2 13
M TOR 35 4 5 6 18
M TOR 36 5 1 0 9
M TOR 37 5 1 0 10
M TOR 38 5 1 0 11
M TOR 39 5 1 2 12
M TOR 40 5 1 2 13
M TOR 41 5 1 7 8
M TOR 42 5 4 3 14
M TOR 43 5 4 3 15
M TOR 44 5 4 7 8
M TOR 45 6 5 1 7
M TOR 46 6 5 4 7
M TOR 47 6 5 4 16
M TOR 48 7 1 0 9
M TOR 49 7 1 0 10
M TOR 50 7 1 0 11
M TOR 51 7 1 2 12
M TOR 52 7 1 2 13
M TOR 53 7 1 5 17
M TOR 54 7 4 3 14
M TOR 55 7 4 3 15
M TOR 56 7 4 5 17
M TOR 57 8 7 4 16
M  END
$$$$
