gdb 2820	2.606117	1.49952	1.2972997	1.5318	75.22	-0.22552	0.05704	0.28256	1072.1416	0.155843	-422.506404	-422.497805	-422.496861	-422.538862	33.624
 OpenBabel02181911413D

 19 21  0  0  1  0  0  0  0  0999 V2000
    1.2718    1.1812    0.1347 C   0  0  0  0  0  0  0  0  0  0  0  0
    1.0423   -0.3243    0.0991 C   0  0  1  0  0  0  0  0  0  0  0  0
    1.8319   -1.0568   -0.9845 C   0  0  2  0  0  0  0  0  0  0  0  0
    2.0999   -2.4937   -0.4575 C   0  0  2  0  0  0  0  0  0  0  0  0
    2.3496   -3.4845   -1.3829 O   0  0  0  0  0  0  0  0  0  0  0  0
    1.4448   -2.6097    0.9153 C   0  0  0  0  0  0  0  0  0  0  0  0
    1.8997   -1.1325    1.1205 C   0  0  1  0  0  0  0  0  0  0  0  0
    2.9815   -1.3537   -0.0376 C   0  0  2  0  0  0  0  0  0  0  0  0
    4.3445   -1.2488   -0.1152 O   0  0  0  0  0  0  0  0  0  0  0  0
    0.8450    1.6235    1.0417 H   0  0  0  0  0  0  0  0  0  0  0  0
    2.3424    1.4188    0.1193 H   0  0  0  0  0  0  0  0  0  0  0  0
    0.8114    1.6757   -0.7276 H   0  0  0  0  0  0  0  0  0  0  0  0
   -0.0324   -0.5437    0.1414 H   0  0  0  0  0  0  0  0  0  0  0  0
    1.8678   -0.8837   -2.0534 H   0  0  0  0  0  0  0  0  0  0  0  0
    3.0839   -4.0187   -1.0597 H   0  0  0  0  0  0  0  0  0  0  0  0
    0.3702   -2.8149    0.9782 H   0  0  0  0  0  0  0  0  0  0  0  0
    1.9939   -3.2998    1.5641 H   0  0  0  0  0  0  0  0  0  0  0  0
    2.0941   -0.7447    2.1191 H   0  0  0  0  0  0  0  0  0  0  0  0
    4.5792   -0.3262   -0.2653 H   0  0  0  0  0  0  0  0  0  0  0  0
  1 10  1  0  0  0  0
  2  1  1  0  0  0  0
  2 13  1  1  0  0  0
  2  7  1  0  0  0  0
  3 14  1  6  0  0  0
  3  4  1  0  0  0  0
  3  8  1  0  0  0  0
  3  2  1  0  0  0  0
  4  5  1  6  0  0  0
  4  8  1  0  0  0  0
  4  6  1  0  0  0  0
  5 15  1  0  0  0  0
  6 16  1  0  0  0  0
  6  7  1  0  0  0  0
  6 17  1  0  0  0  0
  7 18  1  1  0  0  0
  8  9  1  6  0  0  0
  8  7  1  0  0  0  0
 11  1  1  0  0  0  0
 12  1  1  0  0  0  0
 19  9  1  0  0  0  0
M TOR 0 0 1 2 3
M TOR 1 0 1 2 7
M TOR 2 0 1 2 13
M TOR 3 0 1 6 5
M TOR 4 0 1 6 7
M TOR 5 0 1 6 17
M TOR 6 1 2 3 4
M TOR 7 1 2 3 5
M TOR 8 1 2 3 7
M TOR 9 1 2 7 6
M TOR 10 1 2 7 8
M TOR 11 1 6 5 3
M TOR 12 1 6 5 15
M TOR 13 1 6 5 16
M TOR 14 1 6 7 3
M TOR 15 1 6 7 8
M TOR 16 2 1 0 9
M TOR 17 2 1 0 10
M TOR 18 2 1 0 11
M TOR 19 2 1 6 5
M TOR 20 2 1 6 17
M TOR 21 2 3 4 14
M TOR 22 2 3 5 6
M TOR 23 2 3 5 15
M TOR 24 2 3 5 16
M TOR 25 2 3 7 6
M TOR 26 2 3 7 8
M TOR 27 2 7 3 4
M TOR 28 2 7 3 5
M TOR 29 2 7 6 5
M TOR 30 2 7 6 17
M TOR 31 2 7 8 18
M TOR 32 3 2 1 6
M TOR 33 3 2 1 12
M TOR 34 3 5 6 7
M TOR 35 3 5 6 17
M TOR 36 3 7 2 13
M TOR 37 3 7 6 17
M TOR 38 3 7 8 18
M TOR 39 4 3 2 13
M TOR 40 4 3 5 6
M TOR 41 4 3 5 15
M TOR 42 4 3 5 16
M TOR 43 4 3 7 6
M TOR 44 4 3 7 8
M TOR 45 5 3 2 13
M TOR 46 5 3 4 14
M TOR 47 5 3 7 8
M TOR 48 5 6 1 12
M TOR 49 5 6 7 8
M TOR 50 6 1 0 9
M TOR 51 6 1 0 10
M TOR 52 6 1 0 11
M TOR 53 6 1 2 13
M TOR 54 6 7 2 13
M TOR 55 6 7 8 18
M TOR 56 7 2 1 12
M TOR 57 7 3 4 14
M TOR 58 7 3 5 15
M TOR 59 7 3 5 16
M TOR 60 7 6 1 12
M TOR 61 7 6 5 15
M TOR 62 7 6 5 16
M TOR 63 8 7 2 13
M TOR 64 8 7 6 17
M  END
$$$$
