gdb 2574	2.2347049	1.8014117	1.3484823	2.3909	76.7	-0.24276	0.01305	0.25581	1036.9369	0.156781	-422.560302	-422.551834	-422.550889	-422.59296	32.333
 OpenBabel02181911413D

 19 20  0  0  1  0  0  0  0  0999 V2000
    1.2071    0.9153   -0.2210 C   0  0  0  0  0  0  0  0  0  0  0  0
   -0.1112    0.2291   -0.0375 C   0  0  0  0  0  0  0  0  0  0  0  0
   -0.3361   -1.0627    0.2226 C   0  0  0  0  0  0  0  0  0  0  0  0
   -1.7998   -1.4160    0.3673 C   0  0  0  0  0  0  0  0  0  0  0  0
   -2.4909   -0.0536    0.2595 C   0  0  1  0  0  0  0  0  0  0  0  0
   -2.6623    0.5943    1.5432 O   0  0  0  0  0  0  0  0  0  0  0  0
   -1.8618    1.7269    1.1458 C   0  0  0  0  0  0  0  0  0  0  0  0
   -1.4111    0.9996   -0.1346 C   0  0  1  0  0  0  0  0  0  0  0  0
   -1.5399    1.7958   -1.2874 O   0  0  0  0  0  0  0  0  0  0  0  0
    1.3774    1.6606    0.5664 H   0  0  0  0  0  0  0  0  0  0  0  0
    2.0373    0.2050   -0.2000 H   0  0  0  0  0  0  0  0  0  0  0  0
    1.2397    1.4611   -1.1708 H   0  0  0  0  0  0  0  0  0  0  0  0
    0.4493   -1.8038    0.3383 H   0  0  0  0  0  0  0  0  0  0  0  0
   -2.1320   -2.1262   -0.4020 H   0  0  0  0  0  0  0  0  0  0  0  0
   -2.0276   -1.8698    1.3390 H   0  0  0  0  0  0  0  0  0  0  0  0
   -3.4196   -0.0483   -0.3214 H   0  0  0  0  0  0  0  0  0  0  0  0
   -2.4723    2.6128    0.9288 H   0  0  0  0  0  0  0  0  0  0  0  0
   -1.0959    1.9753    1.8889 H   0  0  0  0  0  0  0  0  0  0  0  0
   -1.2724    1.2668   -2.0473 H   0  0  0  0  0  0  0  0  0  0  0  0
  1 11  1  0  0  0  0
  1  2  1  0  0  0  0
  1 10  1  0  0  0  0
  2  3  2  0  0  0  0
  3 13  1  0  0  0  0
  3  4  1  0  0  0  0
  4 15  1  0  0  0  0
  5 16  1  6  0  0  0
  5  4  1  0  0  0  0
  5  6  1  0  0  0  0
  7  6  1  0  0  0  0
  7 18  1  0  0  0  0
  8  9  1  6  0  0  0
  8  2  1  0  0  0  0
  8  5  1  0  0  0  0
  8  7  1  0  0  0  0
 12  1  1  0  0  0  0
 14  4  1  0  0  0  0
 17  7  1  0  0  0  0
 19  9  1  0  0  0  0
M TOR 0 0 1 2 3
M TOR 1 0 1 2 12
M TOR 2 0 1 7 4
M TOR 3 0 1 7 6
M TOR 4 0 1 7 8
M TOR 5 1 2 3 4
M TOR 6 1 2 3 13
M TOR 7 1 2 3 14
M TOR 8 1 7 4 3
M TOR 9 1 7 4 5
M TOR 10 1 7 4 15
M TOR 11 1 7 6 5
M TOR 12 1 7 6 16
M TOR 13 1 7 6 17
M TOR 14 1 7 8 18
M TOR 15 2 1 0 9
M TOR 16 2 1 0 10
M TOR 17 2 1 0 11
M TOR 18 2 1 7 4
M TOR 19 2 1 7 6
M TOR 20 2 1 7 8
M TOR 21 2 3 4 5
M TOR 22 2 3 4 7
M TOR 23 2 3 4 15
M TOR 24 3 2 1 7
M TOR 25 3 4 5 6
M TOR 26 3 4 7 6
M TOR 27 3 4 7 8
M TOR 28 4 3 2 12
M TOR 29 4 5 6 7
M TOR 30 4 5 6 16
M TOR 31 4 5 6 17
M TOR 32 4 7 6 16
M TOR 33 4 7 6 17
M TOR 34 4 7 8 18
M TOR 35 5 4 3 13
M TOR 36 5 4 3 14
M TOR 37 5 4 7 8
M TOR 38 5 6 7 8
M TOR 39 6 5 4 15
M TOR 40 6 7 4 15
M TOR 41 6 7 8 18
M TOR 42 7 1 0 9
M TOR 43 7 1 0 10
M TOR 44 7 1 0 11
M TOR 45 7 1 2 12
M TOR 46 7 4 3 13
M TOR 47 7 4 3 14
M TOR 48 8 7 4 15
M TOR 49 8 7 6 16
M TOR 50 8 7 6 17
M  END
$$$$
