
     RDKit          3D

 19 21  0  0  0  0  0  0  0  0999 V2000
    1.3390    0.8885   -0.0120 O   0  0  0  0  0  0  0  0  0  0  0  0
    0.3190    0.0139    0.4552 C   0  0  0  0  0  0  0  0  0  0  0  0
   -0.8779    0.7797    1.0061 C   0  0  0  0  0  0  0  0  0  0  0  0
   -0.7058    1.3314    2.4457 C   0  0  0  0  0  0  0  0  0  0  0  0
   -0.9211   -0.0431    2.9319 O   0  0  0  0  0  0  0  0  0  0  0  0
   -1.8846   -0.0795    1.8127 C   0  0  0  0  0  0  0  0  0  0  0  0
   -2.9703    0.8921    2.3171 C   0  0  0  0  0  0  0  0  0  0  0  0
   -3.0700    2.2813    1.7393 C   0  0  0  0  0  0  0  0  0  0  0  0
   -2.0481    1.9976    2.8114 C   0  0  0  0  0  0  0  0  0  0  0  0
    1.7570    1.2885    0.7567 H   0  0  0  0  0  0  0  0  0  0  0  0
    0.0056   -0.5640   -0.4215 H   0  0  0  0  0  0  0  0  0  0  0  0
    0.6964   -0.6898    1.2064 H   0  0  0  0  0  0  0  0  0  0  0  0
   -1.2508    1.4511    0.2319 H   0  0  0  0  0  0  0  0  0  0  0  0
    0.2138    1.7880    2.8155 H   0  0  0  0  0  0  0  0  0  0  0  0
   -2.1786   -1.0884    1.5220 H   0  0  0  0  0  0  0  0  0  0  0  0
   -3.7742    0.4944    2.9242 H   0  0  0  0  0  0  0  0  0  0  0  0
   -2.7828    2.4976    0.7180 H   0  0  0  0  0  0  0  0  0  0  0  0
   -3.9327    2.8550    2.0663 H   0  0  0  0  0  0  0  0  0  0  0  0
   -2.1514    2.4404    3.7943 H   0  0  0  0  0  0  0  0  0  0  0  0
  1  2  1  0
  2  3  1  0
  3  4  1  0
  4  5  1  0
  5  6  1  0
  6  7  1  0
  7  8  1  0
  8  9  1  0
  6  3  1  0
  9  7  1  0
  9  4  1  0
  1 10  1  0
  2 11  1  0
  2 12  1  0
  3 13  1  0
  4 14  1  0
  6 15  1  0
  7 16  1  0
  8 17  1  0
  8 18  1  0
  9 19  1  0
M  END
$$$$
