
     RDKit          3D

 19 20  0  0  0  0  0  0  0  0999 V2000
    2.9292   -0.6943   -0.2870 C   0  0  0  0  0  0  0  0  0  0  0  0
    1.5751    0.0266   -0.3007 C   0  0  0  0  0  0  0  0  0  0  0  0
    0.6069   -0.3529   -1.4368 C   0  0  0  0  0  0  0  0  0  0  0  0
   -0.7107    0.4103   -1.3280 C   0  0  0  0  0  0  0  0  0  0  0  0
    0.4838   -1.8730   -1.7155 C   0  0  0  0  0  0  0  0  0  0  0  0
   -0.2702   -2.0131   -2.9119 O   0  0  0  0  0  0  0  0  0  0  0  0
    1.1530   -1.7920   -3.0392 C   0  0  0  0  0  0  0  0  0  0  0  0
    1.3334   -0.2917   -2.8295 C   0  0  0  0  0  0  0  0  0  0  0  0
    1.9355    0.5694   -3.3994 O   0  0  0  0  0  0  0  0  0  0  0  0
    3.5294   -0.3508    0.5604 H   0  0  0  0  0  0  0  0  0  0  0  0
    2.8176   -1.7791   -0.1904 H   0  0  0  0  0  0  0  0  0  0  0  0
    3.5024   -0.4936   -1.1973 H   0  0  0  0  0  0  0  0  0  0  0  0
    1.0570   -0.1504    0.6509 H   0  0  0  0  0  0  0  0  0  0  0  0
    1.7424    1.1082   -0.3621 H   0  0  0  0  0  0  0  0  0  0  0  0
   -1.1628    0.2709   -0.3395 H   0  0  0  0  0  0  0  0  0  0  0  0
   -0.5384    1.4821   -1.4696 H   0  0  0  0  0  0  0  0  0  0  0  0
   -1.4199    0.0732   -2.0866 H   0  0  0  0  0  0  0  0  0  0  0  0
    0.4896   -2.7028   -1.0185 H   0  0  0  0  0  0  0  0  0  0  0  0
    1.7254   -2.5161   -3.6070 H   0  0  0  0  0  0  0  0  0  0  0  0
  1  2  1  0
  2  3  1  0
  3  4  1  0
  3  5  1  0
  5  6  1  0
  6  7  1  0
  7  8  1  0
  8  9  2  0
  8  3  1  0
  7  5  1  0
  1 10  1  0
  1 11  1  0
  1 12  1  0
  2 13  1  0
  2 14  1  0
  4 15  1  0
  4 16  1  0
  4 17  1  0
  5 18  1  0
  7 19  1  0
M  END
$$$$
