gdb 3101	3.2661601	1.1680913	1.0050439	2.8778	76.43	-0.23676	-0.01417	0.22259	1243.3112	0.15453	-422.504312	-422.495254	-422.49431	-422.539082	33.118
 OpenBabel02181911413D

 19 20  0  0  1  0  0  0  0  0999 V2000
   -1.6925    0.8047    4.4065 C   0  0  0  0  0  0  0  0  0  0  0  0
   -0.5320    1.5489    3.7694 C   0  0  1  0  0  0  0  0  0  0  0  0
    0.5640    0.8732    2.8964 C   0  0  2  0  0  0  0  0  0  0  0  0
    0.9218    2.2180    2.3870 O   0  0  0  0  0  0  0  0  0  0  0  0
   -0.5610    2.1450    2.3299 C   0  0  1  0  0  0  0  0  0  0  0  0
   -0.4467    0.7229    1.7185 C   0  0  1  0  0  0  0  0  0  0  0  0
    0.1232    0.4645    0.3286 C   0  0  0  0  0  0  0  0  0  0  0  0
    0.5177    1.6364   -0.5415 C   0  0  0  0  0  0  0  0  0  0  0  0
    0.2295   -0.6835   -0.0430 O   0  0  0  0  0  0  0  0  0  0  0  0
   -1.3504    0.2587    5.2919 H   0  0  0  0  0  0  0  0  0  0  0  0
   -2.4596    1.5131    4.7369 H   0  0  0  0  0  0  0  0  0  0  0  0
   -2.1707    0.0853    3.7374 H   0  0  0  0  0  0  0  0  0  0  0  0
   -0.0761    2.2597    4.4637 H   0  0  0  0  0  0  0  0  0  0  0  0
    1.3787    0.2060    3.1788 H   0  0  0  0  0  0  0  0  0  0  0  0
   -1.0892    3.0220    1.9527 H   0  0  0  0  0  0  0  0  0  0  0  0
   -1.2707    0.0282    1.8891 H   0  0  0  0  0  0  0  0  0  0  0  0
    0.8940    1.2734   -1.4987 H   0  0  0  0  0  0  0  0  0  0  0  0
   -0.3492    2.2873   -0.7091 H   0  0  0  0  0  0  0  0  0  0  0  0
    1.2691    2.2382   -0.0240 H   0  0  0  0  0  0  0  0  0  0  0  0
  1 11  1  0  0  0  0
  1 10  1  0  0  0  0
  2  1  1  0  0  0  0
  2 13  1  1  0  0  0
  3 14  1  1  0  0  0
  3  2  1  0  0  0  0
  4  3  1  0  0  0  0
  5 15  1  6  0  0  0
  5  4  1  0  0  0  0
  5  2  1  0  0  0  0
  6 16  1  1  0  0  0
  6  5  1  0  0  0  0
  6  3  1  0  0  0  0
  7  6  1  0  0  0  0
  8 19  1  0  0  0  0
  8  7  1  0  0  0  0
  9  7  2  0  0  0  0
 12  1  1  0  0  0  0
 17  8  1  0  0  0  0
 18  8  1  0  0  0  0
M TOR 0 0 1 2 3
M TOR 1 0 1 2 5
M TOR 2 0 1 2 13
M TOR 3 0 1 4 3
M TOR 4 0 1 4 5
M TOR 5 0 1 4 14
M TOR 6 1 2 3 4
M TOR 7 1 2 5 4
M TOR 8 1 2 5 6
M TOR 9 1 2 5 15
M TOR 10 1 4 5 6
M TOR 11 1 4 5 15
M TOR 12 2 1 0 9
M TOR 13 2 1 0 10
M TOR 14 2 1 0 11
M TOR 15 2 1 4 14
M TOR 16 2 3 4 5
M TOR 17 2 3 4 14
M TOR 18 2 5 4 14
M TOR 19 2 5 6 7
M TOR 20 2 5 6 8
M TOR 21 3 2 1 12
M TOR 22 3 2 5 6
M TOR 23 3 2 5 15
M TOR 24 3 4 1 12
M TOR 25 3 4 5 6
M TOR 26 3 4 5 15
M TOR 27 4 1 0 9
M TOR 28 4 1 0 10
M TOR 29 4 1 0 11
M TOR 30 4 1 2 13
M TOR 31 4 3 2 13
M TOR 32 4 5 2 13
M TOR 33 4 5 6 7
M TOR 34 4 5 6 8
M TOR 35 5 2 1 12
M TOR 36 5 4 1 12
M TOR 37 5 6 7 16
M TOR 38 5 6 7 17
M TOR 39 5 6 7 18
M TOR 40 6 5 2 13
M TOR 41 6 5 4 14
M TOR 42 7 6 5 15
M TOR 43 8 6 5 15
M TOR 44 8 6 7 16
M TOR 45 8 6 7 17
M TOR 46 8 6 7 18
M  END
$$$$
