
     RDKit          3D

 19 21  0  0  0  0  0  0  0  0999 V2000
    0.0807    0.4543   -0.3149 C   0  0  0  0  0  0  0  0  0  0  0  0
    1.5421    0.1151   -0.1776 C   0  0  0  0  0  0  0  0  0  0  0  0
    2.2053   -0.6800   -1.3081 C   0  0  0  0  0  0  0  0  0  0  0  0
    3.7027   -0.7186   -0.9004 C   0  0  0  0  0  0  0  0  0  0  0  0
    3.8225    0.3691    0.1700 C   0  0  0  0  0  0  0  0  0  0  0  0
    5.0292    1.0391    0.3587 O   0  0  0  0  0  0  0  0  0  0  0  0
    2.8785    0.2653    1.3583 C   0  0  0  0  0  0  0  0  0  0  0  0
    1.8102   -0.6327    1.0759 O   0  0  0  0  0  0  0  0  0  0  0  0
    2.5641    1.2042    0.2332 C   0  0  0  0  0  0  0  0  0  0  0  0
   -0.2698    1.0150    0.5555 H   0  0  0  0  0  0  0  0  0  0  0  0
   -0.0912    1.0566   -1.2132 H   0  0  0  0  0  0  0  0  0  0  0  0
   -0.5139   -0.4615   -0.3957 H   0  0  0  0  0  0  0  0  0  0  0  0
    1.7611   -1.6749   -1.4033 H   0  0  0  0  0  0  0  0  0  0  0  0
    2.0684   -0.1539   -2.2598 H   0  0  0  0  0  0  0  0  0  0  0  0
    3.9904   -1.7019   -0.5142 H   0  0  0  0  0  0  0  0  0  0  0  0
    4.3663   -0.4798   -1.7361 H   0  0  0  0  0  0  0  0  0  0  0  0
    5.6233    0.4546    0.8424 H   0  0  0  0  0  0  0  0  0  0  0  0
    3.1693    0.4335    2.3898 H   0  0  0  0  0  0  0  0  0  0  0  0
    2.4909    2.2809    0.1673 H   0  0  0  0  0  0  0  0  0  0  0  0
  1  2  1  0
  2  3  1  0
  3  4  1  0
  4  5  1  0
  5  6  1  0
  5  7  1  0
  7  8  1  0
  7  9  1  0
  8  2  1  0
  9  2  1  0
  9  5  1  0
  1 10  1  0
  1 11  1  0
  1 12  1  0
  3 13  1  0
  3 14  1  0
  4 15  1  0
  4 16  1  0
  6 17  1  0
  7 18  1  0
  9 19  1  0
M  END
$$$$
