gdb 3168	2.6670732	1.7427765	1.3292809	3.0811	73.24	-0.23962	0.06155	0.30117	1013.1285	0.15831	-422.529711	-422.5222	-422.521256	-422.561513	29.4
 OpenBabel02181911413D

 19 21  0  0  1  0  0  0  0  0999 V2000
    2.3848    1.5071   -0.2035 C   0  0  0  0  0  0  0  0  0  0  0  0
    1.7429    0.1173   -0.2996 C   0  0  1  0  0  0  0  0  0  0  0  0
    2.3930   -0.7127   -1.4012 C   0  0  2  0  0  0  0  0  0  0  0  0
    1.8731   -2.0376   -1.5035 O   0  0  0  0  0  0  0  0  0  0  0  0
    3.1284   -1.8622   -0.8362 C   0  0  2  0  0  0  0  0  0  0  0  0
    2.9793   -1.8549    0.6764 C   0  0  2  0  0  0  0  0  0  0  0  0
    2.0867   -2.8623    1.1903 O   0  0  0  0  0  0  0  0  0  0  0  0
    1.0198   -1.8959    1.3406 C   0  0  0  0  0  0  0  0  0  0  0  0
    1.9613   -0.7226    0.9799 C   0  0  2  0  0  0  0  0  0  0  0  0
    1.9222    2.0954    0.5947 H   0  0  0  0  0  0  0  0  0  0  0  0
    3.4566    1.4345    0.0138 H   0  0  0  0  0  0  0  0  0  0  0  0
    2.2717    2.0638   -1.1395 H   0  0  0  0  0  0  0  0  0  0  0  0
    0.6722    0.2302   -0.5113 H   0  0  0  0  0  0  0  0  0  0  0  0
    2.6698   -0.2456   -2.3452 H   0  0  0  0  0  0  0  0  0  0  0  0
    3.9838   -2.3226   -1.3242 H   0  0  0  0  0  0  0  0  0  0  0  0
    3.9486   -1.8631    1.1872 H   0  0  0  0  0  0  0  0  0  0  0  0
    0.2076   -2.0731    0.6276 H   0  0  0  0  0  0  0  0  0  0  0  0
    0.6230   -1.8953    2.3625 H   0  0  0  0  0  0  0  0  0  0  0  0
    2.2059   -0.0957    1.8390 H   0  0  0  0  0  0  0  0  0  0  0  0
  1 11  1  0  0  0  0
  1 10  1  0  0  0  0
  2 13  1  6  0  0  0
  2  1  1  0  0  0  0
  2  9  1  0  0  0  0
  3 14  1  6  0  0  0
  3  5  1  0  0  0  0
  3  2  1  0  0  0  0
  4  3  1  0  0  0  0
  4  5  1  0  0  0  0
  5 15  1  6  0  0  0
  5  6  1  0  0  0  0
  6  9  1  0  0  0  0
  6 16  1  1  0  0  0
  6  7  1  0  0  0  0
  7  8  1  0  0  0  0
  8 18  1  0  0  0  0
  9  8  1  0  0  0  0
  9 19  1  1  0  0  0
 12  1  1  0  0  0  0
 17  8  1  0  0  0  0
M TOR 0 0 1 2 3
M TOR 1 0 1 2 4
M TOR 2 0 1 2 13
M TOR 3 0 1 8 5
M TOR 4 0 1 8 7
M TOR 5 0 1 8 18
M TOR 6 1 2 3 4
M TOR 7 1 2 4 5
M TOR 8 1 2 4 14
M TOR 9 1 8 5 4
M TOR 10 1 8 5 6
M TOR 11 1 8 5 15
M TOR 12 1 8 7 6
M TOR 13 1 8 7 16
M TOR 14 1 8 7 17
M TOR 15 2 1 0 9
M TOR 16 2 1 0 10
M TOR 17 2 1 0 11
M TOR 18 2 1 8 5
M TOR 19 2 1 8 7
M TOR 20 2 1 8 18
M TOR 21 2 3 4 5
M TOR 22 2 3 4 14
M TOR 23 2 4 5 6
M TOR 24 2 4 5 8
M TOR 25 2 4 5 15
M TOR 26 3 2 1 8
M TOR 27 3 2 1 12
M TOR 28 3 4 2 13
M TOR 29 3 4 5 6
M TOR 30 3 4 5 8
M TOR 31 3 4 5 15
M TOR 32 4 2 1 8
M TOR 33 4 2 1 12
M TOR 34 4 5 6 7
M TOR 35 4 5 8 7
M TOR 36 4 5 8 18
M TOR 37 5 4 2 13
M TOR 38 5 6 7 8
M TOR 39 5 6 7 16
M TOR 40 5 6 7 17
M TOR 41 5 8 1 12
M TOR 42 5 8 7 16
M TOR 43 5 8 7 17
M TOR 44 6 5 4 14
M TOR 45 6 5 8 18
M TOR 46 6 7 8 18
M TOR 47 7 6 5 15
M TOR 48 7 8 1 12
M TOR 49 7 8 5 15
M TOR 50 8 1 0 9
M TOR 51 8 1 0 10
M TOR 52 8 1 0 11
M TOR 53 8 1 2 13
M TOR 54 8 5 4 14
M  END
$$$$
