
     RDKit          3D

 19 20  0  0  0  0  0  0  0  0999 V2000
    0.1032    0.4096   -0.0081 C   0  0  0  0  0  0  0  0  0  0  0  0
    1.0299   -0.7787   -0.0241 C   0  0  0  0  0  0  0  0  0  0  0  0
    2.1868   -0.7178    0.8152 O   0  0  0  0  0  0  0  0  0  0  0  0
    2.3850   -0.7476   -0.6108 C   0  0  0  0  0  0  0  0  0  0  0  0
    3.0462    0.4569   -1.2853 C   0  0  0  0  0  0  0  0  0  0  0  0
    3.9474   -0.1328   -2.4073 C   0  0  0  0  0  0  0  0  0  0  0  0
    3.5095    0.1857   -3.7280 O   0  0  0  0  0  0  0  0  0  0  0  0
    3.9148   -1.6227   -2.1440 C   0  0  0  0  0  0  0  0  0  0  0  0
    3.0434   -1.9499   -1.1897 C   0  0  0  0  0  0  0  0  0  0  0  0
   -0.5029    0.4051    0.9039 H   0  0  0  0  0  0  0  0  0  0  0  0
    0.6599    1.3489   -0.0408 H   0  0  0  0  0  0  0  0  0  0  0  0
   -0.5802    0.3755   -0.8638 H   0  0  0  0  0  0  0  0  0  0  0  0
    0.5249   -1.7480    0.0013 H   0  0  0  0  0  0  0  0  0  0  0  0
    2.3347    1.1653   -1.7166 H   0  0  0  0  0  0  0  0  0  0  0  0
    3.6390    0.9950   -0.5405 H   0  0  0  0  0  0  0  0  0  0  0  0
    4.9628    0.2736   -2.3622 H   0  0  0  0  0  0  0  0  0  0  0  0
    2.6800   -0.2828   -3.8758 H   0  0  0  0  0  0  0  0  0  0  0  0
    4.5101   -2.3149   -2.7286 H   0  0  0  0  0  0  0  0  0  0  0  0
    2.8147   -2.9497   -0.8382 H   0  0  0  0  0  0  0  0  0  0  0  0
  1  2  1  0
  2  3  1  0
  3  4  1  0
  4  5  1  0
  5  6  1  0
  6  7  1  0
  6  8  1  0
  8  9  2  0
  4  2  1  0
  9  4  1  0
  1 10  1  0
  1 11  1  0
  1 12  1  0
  2 13  1  0
  5 14  1  0
  5 15  1  0
  6 16  1  0
  7 17  1  0
  8 18  1  0
  9 19  1  0
M  END
$$$$
