gdb 3910	3.8667569	1.1504854	1.0620003	2.6513	77.82	-0.23787	0.00596	0.24383	1199.3512	0.156475	-422.541195	-422.532804	-422.53186	-422.574581	31.343
 OpenBabel02181911413D

 19 20  0  0  1  0  0  0  0  0999 V2000
    0.3397   -0.0273   -0.5762 C   0  0  0  0  0  0  0  0  0  0  0  0
    0.7716   -0.0080    0.8898 C   0  0  1  0  0  0  0  0  0  0  0  0
    2.1096   -0.5140    1.0148 O   0  0  0  0  0  0  0  0  0  0  0  0
    2.9458    0.4143    1.6775 C   0  0  0  0  0  0  0  0  0  0  0  0
    3.7916   -0.1458    2.8558 C   0  0  0  0  0  0  0  0  0  0  0  0
    5.0101    0.3377    2.2584 O   0  0  0  0  0  0  0  0  0  0  0  0
    4.3344    0.6612    1.0281 C   0  0  0  0  0  0  0  0  0  0  0  0
    2.0710    1.5999    1.9462 C   0  0  0  0  0  0  0  0  0  0  0  0
    0.8399    1.3621    1.5104 C   0  0  0  0  0  0  0  0  0  0  0  0
    0.4165   -1.0420   -0.9763 H   0  0  0  0  0  0  0  0  0  0  0  0
   -0.6995    0.3036   -0.6752 H   0  0  0  0  0  0  0  0  0  0  0  0
    0.9761    0.6329   -1.1726 H   0  0  0  0  0  0  0  0  0  0  0  0
    0.0979   -0.6645    1.4645 H   0  0  0  0  0  0  0  0  0  0  0  0
    3.6185    0.2799    3.8509 H   0  0  0  0  0  0  0  0  0  0  0  0
    3.7527   -1.2415    2.9069 H   0  0  0  0  0  0  0  0  0  0  0  0
    4.5582    1.6779    0.6846 H   0  0  0  0  0  0  0  0  0  0  0  0
    4.5483   -0.0583    0.2272 H   0  0  0  0  0  0  0  0  0  0  0  0
    2.4372    2.4944    2.4339 H   0  0  0  0  0  0  0  0  0  0  0  0
   -0.0139    2.0253    1.5690 H   0  0  0  0  0  0  0  0  0  0  0  0
  1  2  1  0  0  0  0
  2  3  1  0  0  0  0
  2 13  1  1  0  0  0
  2  9  1  0  0  0  0
  3  4  1  0  0  0  0
  4  8  1  0  0  0  0
  4  5  1  0  0  0  0
  5 15  1  0  0  0  0
  5 14  1  0  0  0  0
  6  5  1  0  0  0  0
  7  4  1  0  0  0  0
  7  6  1  0  0  0  0
  8 18  1  0  0  0  0
  9 19  1  0  0  0  0
  9  8  2  0  0  0  0
 10  1  1  0  0  0  0
 11  1  1  0  0  0  0
 12  1  1  0  0  0  0
 16  7  1  0  0  0  0
 17  7  1  0  0  0  0
M TOR 0 0 1 2 3
M TOR 1 0 1 8 7
M TOR 2 0 1 8 18
M TOR 3 1 2 3 4
M TOR 4 1 2 3 6
M TOR 5 1 2 3 7
M TOR 6 1 8 7 3
M TOR 7 1 8 7 17
M TOR 8 2 1 0 9
M TOR 9 2 1 0 10
M TOR 10 2 1 0 11
M TOR 11 2 1 8 7
M TOR 12 2 1 8 18
M TOR 13 2 3 4 5
M TOR 14 2 3 4 13
M TOR 15 2 3 4 14
M TOR 16 2 3 6 5
M TOR 17 2 3 6 15
M TOR 18 2 3 6 16
M TOR 19 2 3 7 8
M TOR 20 2 3 7 17
M TOR 21 3 2 1 8
M TOR 22 3 2 1 12
M TOR 23 3 4 5 6
M TOR 24 3 7 8 18
M TOR 25 4 3 6 15
M TOR 26 4 3 6 16
M TOR 27 4 3 7 8
M TOR 28 4 3 7 17
M TOR 29 4 5 6 15
M TOR 30 4 5 6 16
M TOR 31 5 4 3 7
M TOR 32 5 6 3 7
M TOR 33 6 3 4 13
M TOR 34 6 3 4 14
M TOR 35 6 3 7 8
M TOR 36 6 3 7 17
M TOR 37 6 5 4 13
M TOR 38 6 5 4 14
M TOR 39 7 3 4 13
M TOR 40 7 3 4 14
M TOR 41 7 3 6 15
M TOR 42 7 3 6 16
M TOR 43 7 8 1 12
M TOR 44 8 1 0 9
M TOR 45 8 1 0 10
M TOR 46 8 1 0 11
M  END
$$$$
