
     RDKit          3D

 19 20  0  0  0  0  0  0  0  0999 V2000
    0.6073   -1.2078    0.2033 O   0  0  0  0  0  0  0  0  0  0  0  0
    0.3417   -0.0637   -0.0704 C   0  0  0  0  0  0  0  0  0  0  0  0
    0.0485    0.9988    0.9141 C   0  0  0  0  0  0  0  0  0  0  0  0
   -0.9541    2.0841    0.5355 C   0  0  0  0  0  0  0  0  0  0  0  0
    0.4930    2.4263    0.5990 C   0  0  0  0  0  0  0  0  0  0  0  0
    1.0623    3.2886    1.7083 C   0  0  0  0  0  0  0  0  0  0  0  0
    2.5406    3.0492    1.9099 C   0  0  0  0  0  0  0  0  0  0  0  0
    3.4704    4.1320    2.2495 C   0  0  0  0  0  0  0  0  0  0  0  0
    3.4060    3.6137    0.9195 O   0  0  0  0  0  0  0  0  0  0  0  0
    0.3002    0.2818   -1.1321 H   0  0  0  0  0  0  0  0  0  0  0  0
    0.0760    0.6772    1.9499 H   0  0  0  0  0  0  0  0  0  0  0  0
   -1.4282    2.0107   -0.4378 H   0  0  0  0  0  0  0  0  0  0  0  0
   -1.6085    2.4285    1.3290 H   0  0  0  0  0  0  0  0  0  0  0  0
    0.9974    2.5505   -0.3561 H   0  0  0  0  0  0  0  0  0  0  0  0
    0.9057    4.3465    1.4659 H   0  0  0  0  0  0  0  0  0  0  0  0
    0.5292    3.0889    2.6468 H   0  0  0  0  0  0  0  0  0  0  0  0
    2.8132    2.0336    2.2022 H   0  0  0  0  0  0  0  0  0  0  0  0
    3.0901    5.1454    2.3747 H   0  0  0  0  0  0  0  0  0  0  0  0
    4.3863    3.9103    2.7952 H   0  0  0  0  0  0  0  0  0  0  0  0
  1  2  2  0
  2  3  1  0
  3  4  1  0
  4  5  1  0
  5  6  1  0
  6  7  1  0
  7  8  1  0
  8  9  1  0
  5  3  1  0
  9  7  1  0
  2 10  1  0
  3 11  1  0
  4 12  1  0
  4 13  1  0
  5 14  1  0
  6 15  1  0
  6 16  1  0
  7 17  1  0
  8 18  1  0
  8 19  1  0
M  END
$$$$
