
     RDKit          3D

 19 20  0  0  0  0  0  0  0  0999 V2000
    0.4204    0.0275   -0.9809 O   0  0  0  0  0  0  0  0  0  0  0  0
    0.0951   -0.3191    0.1211 C   0  0  0  0  0  0  0  0  0  0  0  0
   -0.6414    0.3872    0.9910 O   0  0  0  0  0  0  0  0  0  0  0  0
   -1.0618    1.6906    0.5636 C   0  0  0  0  0  0  0  0  0  0  0  0
   -1.7623    2.5475    1.6372 C   0  0  0  0  0  0  0  0  0  0  0  0
   -2.4127    3.2742    0.4196 C   0  0  0  0  0  0  0  0  0  0  0  0
   -2.4033    1.8430   -0.1981 C   0  0  0  0  0  0  0  0  0  0  0  0
   -3.3921    1.0943    0.7170 C   0  0  0  0  0  0  0  0  0  0  0  0
   -2.9076    1.6274    2.1071 C   0  0  0  0  0  0  0  0  0  0  0  0
    0.3618   -1.2816    0.5857 H   0  0  0  0  0  0  0  0  0  0  0  0
   -0.2326    2.1897    0.0627 H   0  0  0  0  0  0  0  0  0  0  0  0
   -1.1946    3.0832    2.3976 H   0  0  0  0  0  0  0  0  0  0  0  0
   -3.3861    3.7434    0.5801 H   0  0  0  0  0  0  0  0  0  0  0  0
   -1.7357    3.9674   -0.0837 H   0  0  0  0  0  0  0  0  0  0  0  0
   -2.4650    1.6728   -1.2717 H   0  0  0  0  0  0  0  0  0  0  0  0
   -4.4286    1.3628    0.4968 H   0  0  0  0  0  0  0  0  0  0  0  0
   -3.2977    0.0093    0.6318 H   0  0  0  0  0  0  0  0  0  0  0  0
   -3.6808    2.1866    2.6404 H   0  0  0  0  0  0  0  0  0  0  0  0
   -2.5525    0.8268    2.7591 H   0  0  0  0  0  0  0  0  0  0  0  0
  1  2  2  0
  2  3  1  0
  3  4  1  0
  4  5  1  0
  5  6  1  0
  6  7  1  0
  7  8  1  0
  8  9  1  0
  7  4  1  0
  9  5  1  0
  2 10  1  0
  4 11  1  0
  5 12  1  0
  6 13  1  0
  6 14  1  0
  7 15  1  0
  8 16  1  0
  8 17  1  0
  9 18  1  0
  9 19  1  0
M  END
$$$$
