
     RDKit          3D

 19 21  0  0  0  0  0  0  0  0999 V2000
    1.3733   -0.2217   -0.2502 C   0  0  0  0  0  0  0  0  0  0  0  0
   -0.0011   -0.1018    0.0347 O   0  0  0  0  0  0  0  0  0  0  0  0
   -0.2823    0.6986    1.1534 C   0  0  0  0  0  0  0  0  0  0  0  0
    0.0919    0.0844    2.5398 C   0  0  0  0  0  0  0  0  0  0  0  0
   -1.0595    0.5166    3.4436 C   0  0  0  0  0  0  0  0  0  0  0  0
   -2.4447    0.0793    3.0094 C   0  0  0  0  0  0  0  0  0  0  0  0
   -2.4219   -0.3486    1.6476 O   0  0  0  0  0  0  0  0  0  0  0  0
   -1.7861    0.9216    1.2854 C   0  0  0  0  0  0  0  0  0  0  0  0
   -1.9936    1.4731    2.7082 C   0  0  0  0  0  0  0  0  0  0  0  0
    1.9223   -0.7344    0.5534 H   0  0  0  0  0  0  0  0  0  0  0  0
    1.4638   -0.8110   -1.1659 H   0  0  0  0  0  0  0  0  0  0  0  0
    1.8416    0.7625   -0.4137 H   0  0  0  0  0  0  0  0  0  0  0  0
    0.2037    1.6856    1.0436 H   0  0  0  0  0  0  0  0  0  0  0  0
    0.1526   -1.0042    2.4448 H   0  0  0  0  0  0  0  0  0  0  0  0
    1.0522    0.4512    2.9109 H   0  0  0  0  0  0  0  0  0  0  0  0
   -0.9039    0.6650    4.5064 H   0  0  0  0  0  0  0  0  0  0  0  0
   -3.2120   -0.3232    3.6603 H   0  0  0  0  0  0  0  0  0  0  0  0
   -2.2768    1.3871    0.4303 H   0  0  0  0  0  0  0  0  0  0  0  0
   -2.3329    2.4481    3.0272 H   0  0  0  0  0  0  0  0  0  0  0  0
  1  2  1  0
  2  3  1  0
  3  4  1  0
  4  5  1  0
  5  6  1  0
  6  7  1  0
  7  8  1  0
  8  9  1  0
  8  3  1  0
  9  5  1  0
  9  6  1  0
  1 10  1  0
  1 11  1  0
  1 12  1  0
  3 13  1  0
  4 14  1  0
  4 15  1  0
  5 16  1  0
  6 17  1  0
  8 18  1  0
  9 19  1  0
M  END
$$$$
