gdb 2808	3.9159418	1.1926371	1.1162794	0.1932	74.22	-0.24746	0.07058	0.31804	1149.0296	0.157366	-422.503415	-422.495564	-422.49462	-422.535184	31.4
 OpenBabel02181911413D

 19 21  0  0  1  0  0  0  0  0999 V2000
    0.0948    0.1859   -0.0501 C   0  0  0  0  0  0  0  0  0  0  0  0
    1.6091    0.0262   -0.0421 C   0  0  1  0  0  0  0  0  0  0  0  0
    2.1569   -1.0137    0.9730 C   0  0  1  0  0  0  0  0  0  0  0  0
    1.7178   -2.0636    0.0388 O   0  0  0  0  0  0  0  0  0  0  0  0
    2.1593   -1.0888   -0.9725 C   0  0  2  0  0  0  0  0  0  0  0  0
    3.6866   -1.1007   -0.7646 C   0  0  1  0  0  0  0  0  0  0  0  0
    4.3779    0.0277   -0.0387 C   0  0  2  0  0  0  0  0  0  0  0  0
    5.7735    0.0758   -0.0388 O   0  0  0  0  0  0  0  0  0  0  0  0
    3.6847   -1.0414    0.7704 C   0  0  1  0  0  0  0  0  0  0  0  0
   -0.2356    0.7777    0.8105 H   0  0  0  0  0  0  0  0  0  0  0  0
   -0.2334    0.7099   -0.9544 H   0  0  0  0  0  0  0  0  0  0  0  0
   -0.4000   -0.7864   -0.0133 H   0  0  0  0  0  0  0  0  0  0  0  0
    2.0876    1.0066   -0.0794 H   0  0  0  0  0  0  0  0  0  0  0  0
    1.7633   -1.1305    1.9829 H   0  0  0  0  0  0  0  0  0  0  0  0
    1.7682   -1.2833   -1.9714 H   0  0  0  0  0  0  0  0  0  0  0  0
    4.2865   -1.8156   -1.3181 H   0  0  0  0  0  0  0  0  0  0  0  0
    4.0040    1.0432   -0.0784 H   0  0  0  0  0  0  0  0  0  0  0  0
    6.1157   -0.8238   -0.0039 H   0  0  0  0  0  0  0  0  0  0  0  0
    4.2831   -1.7114    1.3788 H   0  0  0  0  0  0  0  0  0  0  0  0
  1  2  1  0  0  0  0
  1 12  1  0  0  0  0
  1 10  1  0  0  0  0
  2 13  1  6  0  0  0
  2  3  1  0  0  0  0
  3 14  1  1  0  0  0
  4  3  1  0  0  0  0
  5 15  1  6  0  0  0
  5  6  1  0  0  0  0
  5  2  1  0  0  0  0
  5  4  1  0  0  0  0
  6 16  1  6  0  0  0
  6  7  1  0  0  0  0
  6  9  1  0  0  0  0
  7 17  1  6  0  0  0
  7  9  1  0  0  0  0
  8  7  1  0  0  0  0
  8 18  1  0  0  0  0
  9  3  1  0  0  0  0
  9 19  1  1  0  0  0
 11  1  1  0  0  0  0
M TOR 0 0 1 2 3
M TOR 1 0 1 2 8
M TOR 2 0 1 2 13
M TOR 3 0 1 4 3
M TOR 4 0 1 4 5
M TOR 5 0 1 4 14
M TOR 6 1 2 3 4
M TOR 7 1 2 8 5
M TOR 8 1 2 8 6
M TOR 9 1 2 8 18
M TOR 10 1 4 5 6
M TOR 11 1 4 5 8
M TOR 12 1 4 5 15
M TOR 13 2 1 0 9
M TOR 14 2 1 0 10
M TOR 15 2 1 0 11
M TOR 16 2 1 4 5
M TOR 17 2 1 4 14
M TOR 18 2 3 4 5
M TOR 19 2 3 4 14
M TOR 20 2 8 5 4
M TOR 21 2 8 5 6
M TOR 22 2 8 5 15
M TOR 23 2 8 6 7
M TOR 24 2 8 6 16
M TOR 25 3 2 1 12
M TOR 26 3 2 8 5
M TOR 27 3 2 8 6
M TOR 28 3 2 8 18
M TOR 29 3 4 1 12
M TOR 30 3 4 5 6
M TOR 31 3 4 5 8
M TOR 32 3 4 5 15
M TOR 33 4 1 0 9
M TOR 34 4 1 0 10
M TOR 35 4 1 0 11
M TOR 36 4 1 2 8
M TOR 37 4 1 2 13
M TOR 38 4 3 2 8
M TOR 39 4 3 2 13
M TOR 40 4 5 6 7
M TOR 41 4 5 6 8
M TOR 42 4 5 6 16
M TOR 43 4 5 8 18
M TOR 44 5 4 1 12
M TOR 45 5 6 7 17
M TOR 46 5 6 8 18
M TOR 47 5 8 2 13
M TOR 48 5 8 6 7
M TOR 49 5 8 6 16
M TOR 50 6 5 4 14
M TOR 51 6 8 2 13
M TOR 52 6 8 5 15
M TOR 53 7 6 5 15
M TOR 54 7 6 8 18
M TOR 55 8 2 1 12
M TOR 56 8 5 4 14
M TOR 57 8 6 7 17
M  END
$$$$
