gdb 625	3.3664671	1.4468318	1.0769089	2.0582	77.51	-0.24157	0.01115	0.25272	1117.506	0.159671	-422.560412	-422.552915	-422.551971	-422.592415	29.006
 OpenBabel02181911403D

 19 20  0  0  1  0  0  0  0  0999 V2000
   -0.2426   -1.4869    0.6166 C   0  0  0  0  0  0  0  0  0  0  0  0
    1.1204   -1.5541    1.0252 O   0  0  0  0  0  0  0  0  0  0  0  0
    1.8757   -0.5696    0.3056 C   0  0  0  0  0  0  0  0  0  0  0  0
    0.8532    0.3491   -0.3112 C   0  0  0  0  0  0  0  0  0  0  0  0
    0.9287    1.1652   -1.3548 C   0  0  0  0  0  0  0  0  0  0  0  0
   -0.3068    1.8418   -1.8953 C   0  0  0  0  0  0  0  0  0  0  0  0
   -1.5272    1.5882   -0.9972 C   0  0  0  0  0  0  0  0  0  0  0  0
   -1.5701    0.2504   -0.5131 O   0  0  0  0  0  0  0  0  0  0  0  0
   -0.4710   -0.0003    0.3287 C   0  0  1  0  0  0  0  0  0  0  0  0
   -0.4324   -2.0672   -0.2996 H   0  0  0  0  0  0  0  0  0  0  0  0
   -0.8538   -1.8880    1.4283 H   0  0  0  0  0  0  0  0  0  0  0  0
    2.5390   -0.0695    1.0228 H   0  0  0  0  0  0  0  0  0  0  0  0
    2.5070   -1.0454   -0.4590 H   0  0  0  0  0  0  0  0  0  0  0  0
    1.8656    1.3227   -1.8847 H   0  0  0  0  0  0  0  0  0  0  0  0
   -0.1516    2.9243   -1.9935 H   0  0  0  0  0  0  0  0  0  0  0  0
   -0.4987    1.4711   -2.9118 H   0  0  0  0  0  0  0  0  0  0  0  0
   -1.5145    2.2876   -0.1454 H   0  0  0  0  0  0  0  0  0  0  0  0
   -2.4587    1.7455   -1.5468 H   0  0  0  0  0  0  0  0  0  0  0  0
   -0.5958    0.5377    1.2862 H   0  0  0  0  0  0  0  0  0  0  0  0
  1  2  1  0  0  0  0
  1 11  1  0  0  0  0
  3 12  1  0  0  0  0
  3  2  1  0  0  0  0
  4  3  1  0  0  0  0
  4  9  1  0  0  0  0
  5  4  2  0  0  0  0
  6  5  1  0  0  0  0
  6  7  1  0  0  0  0
  7  8  1  0  0  0  0
  7 17  1  0  0  0  0
  8  9  1  0  0  0  0
  9  1  1  0  0  0  0
  9 19  1  1  0  0  0
 10  1  1  0  0  0  0
 13  3  1  0  0  0  0
 14  5  1  0  0  0  0
 15  6  1  0  0  0  0
 16  6  1  0  0  0  0
 18  7  1  0  0  0  0
M TOR 0 0 1 2 3
M TOR 1 0 1 2 11
M TOR 2 0 1 2 12
M TOR 3 0 8 3 2
M TOR 4 0 8 3 4
M TOR 5 0 8 7 6
M TOR 6 1 0 8 3
M TOR 7 1 0 8 7
M TOR 8 1 0 8 18
M TOR 9 1 2 3 4
M TOR 10 1 2 3 8
M TOR 11 2 1 0 8
M TOR 12 2 1 0 9
M TOR 13 2 1 0 10
M TOR 14 2 3 4 5
M TOR 15 2 3 4 13
M TOR 16 2 3 8 7
M TOR 17 2 3 8 18
M TOR 18 3 4 5 6
M TOR 19 3 4 5 14
M TOR 20 3 4 5 15
M TOR 21 3 8 0 9
M TOR 22 3 8 0 10
M TOR 23 3 8 7 6
M TOR 24 4 3 2 11
M TOR 25 4 3 2 12
M TOR 26 4 3 8 7
M TOR 27 4 3 8 18
M TOR 28 4 5 6 7
M TOR 29 4 5 6 16
M TOR 30 4 5 6 17
M TOR 31 5 4 3 8
M TOR 32 5 6 7 8
M TOR 33 6 5 4 13
M TOR 34 6 7 8 18
M TOR 35 7 6 5 14
M TOR 36 7 6 5 15
M TOR 37 7 8 0 9
M TOR 38 7 8 0 10
M TOR 39 8 3 2 11
M TOR 40 8 3 2 12
M TOR 41 8 3 4 13
M TOR 42 8 7 6 16
M TOR 43 8 7 6 17
M  END
$$$$
