
     RDKit          3D

 19 20  0  0  0  0  0  0  0  0999 V2000
   -0.4224   -2.1815    1.2308 C   0  0  0  0  0  0  0  0  0  0  0  0
   -0.8632   -1.2728    0.0758 C   0  0  0  0  0  0  0  0  0  0  0  0
   -2.3716   -0.9928    0.0390 C   0  0  0  0  0  0  0  0  0  0  0  0
   -2.7058    0.1338    1.0625 C   0  0  0  0  0  0  0  0  0  0  0  0
   -2.2098    1.1002   -0.0352 C   0  0  0  0  0  0  0  0  0  0  0  0
   -2.6483    0.0517   -1.0807 C   0  0  0  0  0  0  0  0  0  0  0  0
   -0.7723    1.1982    0.0043 O   0  0  0  0  0  0  0  0  0  0  0  0
   -0.0630    0.0421    0.0992 C   0  0  0  0  0  0  0  0  0  0  0  0
    1.1333    0.0850    0.1869 O   0  0  0  0  0  0  0  0  0  0  0  0
   -0.8715   -3.1737    1.1259 H   0  0  0  0  0  0  0  0  0  0  0  0
    0.6645   -2.2836    1.2325 H   0  0  0  0  0  0  0  0  0  0  0  0
   -0.7268   -1.7733    2.2000 H   0  0  0  0  0  0  0  0  0  0  0  0
   -0.5727   -1.7609   -0.8646 H   0  0  0  0  0  0  0  0  0  0  0  0
   -2.9568   -1.9148    0.0587 H   0  0  0  0  0  0  0  0  0  0  0  0
   -3.7809    0.2345    1.2272 H   0  0  0  0  0  0  0  0  0  0  0  0
   -2.1811    0.1548    2.0209 H   0  0  0  0  0  0  0  0  0  0  0  0
   -2.5699    2.1271   -0.0853 H   0  0  0  0  0  0  0  0  0  0  0  0
   -3.7121    0.1414   -1.3126 H   0  0  0  0  0  0  0  0  0  0  0  0
   -2.0686   -0.0056   -2.0059 H   0  0  0  0  0  0  0  0  0  0  0  0
  1  2  1  0
  2  3  1  0
  3  4  1  0
  4  5  1  0
  5  6  1  0
  5  7  1  0
  7  8  1  0
  8  9  2  0
  8  2  1  0
  6  3  1  0
  1 10  1  0
  1 11  1  0
  1 12  1  0
  2 13  1  0
  3 14  1  0
  4 15  1  0
  4 16  1  0
  5 17  1  0
  6 18  1  0
  6 19  1  0
M  END
$$$$
