gdb 1482	2.3399318	1.888655	1.3511405	2.8473	74.86	-0.22546	-0.01818	0.20728	1009.6744	0.156393	-422.549039	-422.540663	-422.539719	-422.58136	32.415
 OpenBabel02181911403D

 19 20  0  0  1  0  0  0  0  0999 V2000
   -0.9311   -0.0310   -2.3719 C   0  0  0  0  0  0  0  0  0  0  0  0
   -1.6563   -0.0195   -1.0240 C   0  0  0  0  0  0  0  0  0  0  0  0
   -3.1697   -0.0856   -1.2116 C   0  0  0  0  0  0  0  0  0  0  0  0
   -1.0707    1.0653   -0.0214 C   0  0  1  0  0  0  0  0  0  0  0  0
   -1.8328    0.7311    1.2682 C   0  0  0  0  0  0  0  0  0  0  0  0
   -1.7993   -0.7258    1.2321 O   0  0  0  0  0  0  0  0  0  0  0  0
   -1.0446   -0.9991    0.0388 C   0  0  2  0  0  0  0  0  0  0  0  0
    0.0851    0.0484    0.1581 C   0  0  0  0  0  0  0  0  0  0  0  0
    1.2734    0.0804    0.2472 O   0  0  0  0  0  0  0  0  0  0  0  0
   -1.1771   -0.9390   -2.9324 H   0  0  0  0  0  0  0  0  0  0  0  0
   -1.2409    0.8269   -2.9784 H   0  0  0  0  0  0  0  0  0  0  0  0
    0.1572    0.0140   -2.2690 H   0  0  0  0  0  0  0  0  0  0  0  0
   -3.6935   -0.2811   -0.2750 H   0  0  0  0  0  0  0  0  0  0  0  0
   -3.5508    0.8476   -1.6403 H   0  0  0  0  0  0  0  0  0  0  0  0
   -3.4241   -0.8932   -1.9061 H   0  0  0  0  0  0  0  0  0  0  0  0
   -0.9175    2.1092   -0.2872 H   0  0  0  0  0  0  0  0  0  0  0  0
   -1.3273    1.0948    2.1700 H   0  0  0  0  0  0  0  0  0  0  0  0
   -2.8714    1.0771    1.2784 H   0  0  0  0  0  0  0  0  0  0  0  0
   -0.9171   -2.0700   -0.0998 H   0  0  0  0  0  0  0  0  0  0  0  0
  1 12  1  0  0  0  0
  1  2  1  0  0  0  0
  2  4  1  0  0  0  0
  2  7  1  0  0  0  0
  3  2  1  0  0  0  0
  3 13  1  0  0  0  0
  4 16  1  6  0  0  0
  4  8  1  0  0  0  0
  4  5  1  0  0  0  0
  5 18  1  0  0  0  0
  5 17  1  0  0  0  0
  6  5  1  0  0  0  0
  7 19  1  6  0  0  0
  7  8  1  0  0  0  0
  7  6  1  0  0  0  0
  8  9  2  0  0  0  0
 10  1  1  0  0  0  0
 11  1  1  0  0  0  0
 14  3  1  0  0  0  0
 15  3  1  0  0  0  0
M TOR 0 0 1 2 12
M TOR 1 0 1 2 13
M TOR 2 0 1 2 14
M TOR 3 0 1 3 4
M TOR 4 0 1 3 7
M TOR 5 0 1 3 15
M TOR 6 0 1 6 5
M TOR 7 0 1 6 7
M TOR 8 0 1 6 18
M TOR 9 1 3 4 5
M TOR 10 1 3 4 16
M TOR 11 1 3 4 17
M TOR 12 1 3 7 6
M TOR 13 1 3 7 8
M TOR 14 1 6 5 4
M TOR 15 1 6 7 8
M TOR 16 2 1 0 9
M TOR 17 2 1 0 10
M TOR 18 2 1 0 11
M TOR 19 2 1 3 4
M TOR 20 2 1 3 7
M TOR 21 2 1 3 15
M TOR 22 2 1 6 5
M TOR 23 2 1 6 7
M TOR 24 2 1 6 18
M TOR 25 3 1 0 9
M TOR 26 3 1 0 10
M TOR 27 3 1 0 11
M TOR 28 3 1 2 12
M TOR 29 3 1 2 13
M TOR 30 3 1 2 14
M TOR 31 3 1 6 5
M TOR 32 3 1 6 18
M TOR 33 3 4 5 6
M TOR 34 3 7 6 5
M TOR 35 3 7 6 18
M TOR 36 4 3 1 6
M TOR 37 4 3 7 6
M TOR 38 4 3 7 8
M TOR 39 4 5 6 7
M TOR 40 4 5 6 18
M TOR 41 5 4 3 7
M TOR 42 5 4 3 15
M TOR 43 5 6 7 8
M TOR 44 6 1 0 9
M TOR 45 6 1 0 10
M TOR 46 6 1 0 11
M TOR 47 6 1 2 12
M TOR 48 6 1 2 13
M TOR 49 6 1 2 14
M TOR 50 6 1 3 15
M TOR 51 6 5 4 16
M TOR 52 6 5 4 17
M TOR 53 6 7 3 15
M TOR 54 7 3 4 16
M TOR 55 7 3 4 17
M TOR 56 8 7 3 15
M TOR 57 8 7 6 18
M  END
$$$$
