gdb 3980	4.8116961	0.8834403	0.8433834	3.6994	78.4	-0.23795	-0.01769	0.22025999999999998	1406.7461	0.156531	-422.560525	-422.551965	-422.551021	-422.593892	31.804
 OpenBabel02181911413D

 19 20  0  0  1  0  0  0  0  0999 V2000
    2.1782   -0.5303   -1.4769 C   0  0  0  0  0  0  0  0  0  0  0  0
    1.8998   -0.0061   -0.0791 C   0  0  1  0  0  0  0  0  0  0  0  0
    2.6319   -0.7465    1.0698 C   0  0  0  0  0  0  0  0  0  0  0  0
    2.9795    0.3648    2.0455 C   0  0  1  0  0  0  0  0  0  0  0  0
    2.7806    1.6231    1.2877 C   0  0  1  0  0  0  0  0  0  0  0  0
    2.3321    1.3671   -0.0039 O   0  0  0  0  0  0  0  0  0  0  0  0
    1.8302    1.2981    2.4554 C   0  0  2  0  0  0  0  0  0  0  0  0
    1.9861    2.0869    3.6911 C   0  0  0  0  0  0  0  0  0  0  0  0
    1.0804    2.4429    4.4057 O   0  0  0  0  0  0  0  0  0  0  0  0
    1.8210   -1.5602   -1.5749 H   0  0  0  0  0  0  0  0  0  0  0  0
    1.6676    0.0823   -2.2247 H   0  0  0  0  0  0  0  0  0  0  0  0
    3.2517   -0.5101   -1.6881 H   0  0  0  0  0  0  0  0  0  0  0  0
    0.8168   -0.0328    0.1064 H   0  0  0  0  0  0  0  0  0  0  0  0
    2.0102   -1.5372    1.4983 H   0  0  0  0  0  0  0  0  0  0  0  0
    3.5579   -1.2055    0.7053 H   0  0  0  0  0  0  0  0  0  0  0  0
    3.8005    0.2309    2.7406 H   0  0  0  0  0  0  0  0  0  0  0  0
    3.4238    2.4931    1.3462 H   0  0  0  0  0  0  0  0  0  0  0  0
    0.8100    1.0145    2.2209 H   0  0  0  0  0  0  0  0  0  0  0  0
    3.0442    2.3537    3.9319 H   0  0  0  0  0  0  0  0  0  0  0  0
  1  2  1  0  0  0  0
  2  6  1  0  0  0  0
  2 13  1  1  0  0  0
  2  3  1  0  0  0  0
  3 14  1  0  0  0  0
  3  4  1  0  0  0  0
  4  7  1  0  0  0  0
  4 16  1  1  0  0  0
  5 17  1  1  0  0  0
  5  4  1  0  0  0  0
  5  7  1  0  0  0  0
  6  5  1  0  0  0  0
  7 18  1  6  0  0  0
  7  8  1  0  0  0  0
  8 19  1  0  0  0  0
  8  9  2  0  0  0  0
 10  1  1  0  0  0  0
 11  1  1  0  0  0  0
 12  1  1  0  0  0  0
 15  3  1  0  0  0  0
M TOR 0 0 1 2 3
M TOR 1 0 1 2 13
M TOR 2 0 1 2 14
M TOR 3 0 1 5 4
M TOR 4 1 2 3 4
M TOR 5 1 2 3 6
M TOR 6 1 2 3 15
M TOR 7 1 5 4 3
M TOR 8 1 5 4 6
M TOR 9 1 5 4 16
M TOR 10 2 1 0 9
M TOR 11 2 1 0 10
M TOR 12 2 1 0 11
M TOR 13 2 1 5 4
M TOR 14 2 3 4 5
M TOR 15 2 3 4 6
M TOR 16 2 3 4 16
M TOR 17 2 3 6 7
M TOR 18 2 3 6 17
M TOR 19 3 2 1 5
M TOR 20 3 2 1 12
M TOR 21 3 4 6 7
M TOR 22 3 4 6 17
M TOR 23 3 6 4 5
M TOR 24 3 6 4 16
M TOR 25 3 6 7 8
M TOR 26 3 6 7 18
M TOR 27 4 3 2 13
M TOR 28 4 3 2 14
M TOR 29 4 5 1 12
M TOR 30 4 6 3 15
M TOR 31 4 6 7 8
M TOR 32 4 6 7 18
M TOR 33 5 1 0 9
M TOR 34 5 1 0 10
M TOR 35 5 1 0 11
M TOR 36 5 1 2 13
M TOR 37 5 1 2 14
M TOR 38 5 4 3 15
M TOR 39 5 4 6 7
M TOR 40 5 4 6 17
M TOR 41 6 3 2 13
M TOR 42 6 3 2 14
M TOR 43 7 6 3 15
M TOR 44 7 6 4 16
M TOR 45 8 7 6 17
M  END
$$$$
