
     RDKit          3D

 19 21  0  0  0  0  0  0  0  0999 V2000
    0.0437   -0.4336   -0.3826 C   0  0  0  0  0  0  0  0  0  0  0  0
    1.4988   -0.2463   -0.0684 C   0  0  0  0  0  0  0  0  0  0  0  0
    2.6125    0.1251   -1.0904 C   0  0  0  0  0  0  0  0  0  0  0  0
    3.1850    0.7351    0.2113 C   0  0  0  0  0  0  0  0  0  0  0  0
    1.8199    0.9983    0.6430 O   0  0  0  0  0  0  0  0  0  0  0  0
    3.5585   -0.5157    1.0321 C   0  0  0  0  0  0  0  0  0  0  0  0
    3.1156   -0.5368    2.5101 C   0  0  0  0  0  0  0  0  0  0  0  0
    1.9094   -1.2735    2.1906 O   0  0  0  0  0  0  0  0  0  0  0  0
    2.2406   -1.2998    0.7951 C   0  0  0  0  0  0  0  0  0  0  0  0
   -0.5241   -0.5369    0.5474 H   0  0  0  0  0  0  0  0  0  0  0  0
   -0.3515    0.4193   -0.9407 H   0  0  0  0  0  0  0  0  0  0  0  0
   -0.1045   -1.3408   -0.9776 H   0  0  0  0  0  0  0  0  0  0  0  0
    3.1650   -0.6736   -1.5948 H   0  0  0  0  0  0  0  0  0  0  0  0
    2.2770    0.8866   -1.7955 H   0  0  0  0  0  0  0  0  0  0  0  0
    3.8336    1.6107    0.2358 H   0  0  0  0  0  0  0  0  0  0  0  0
    4.5188   -0.9652    0.7817 H   0  0  0  0  0  0  0  0  0  0  0  0
    3.7652   -1.1141    3.1782 H   0  0  0  0  0  0  0  0  0  0  0  0
    2.8916    0.4384    2.9536 H   0  0  0  0  0  0  0  0  0  0  0  0
    2.2338   -2.3101    0.3735 H   0  0  0  0  0  0  0  0  0  0  0  0
  1  2  1  0
  2  3  1  0
  3  4  1  0
  4  5  1  0
  4  6  1  0
  6  7  1  0
  7  8  1  0
  8  9  1  0
  5  2  1  0
  9  6  1  0
  9  2  1  0
  1 10  1  0
  1 11  1  0
  1 12  1  0
  3 13  1  0
  3 14  1  0
  4 15  1  0
  6 16  1  0
  7 17  1  0
  7 18  1  0
  9 19  1  0
M  END
$$$$
