
     RDKit          3D

 19 19  0  0  0  0  0  0  0  0999 V2000
    1.5051   -0.8207    0.6701 C   0  0  0  0  0  0  0  0  0  0  0  0
    0.8993    0.3074   -0.1813 C   0  0  0  0  0  0  0  0  0  0  0  0
    1.6915    1.5806   -0.1306 C   0  0  0  0  0  0  0  0  0  0  0  0
    1.3099    2.7695    0.4076 C   0  0  0  0  0  0  0  0  0  0  0  0
    2.2905    3.7063    0.2770 O   0  0  0  0  0  0  0  0  0  0  0  0
    3.3390    3.0999   -0.3576 C   0  0  0  0  0  0  0  0  0  0  0  0
    4.5414    3.9503   -0.5787 C   0  0  0  0  0  0  0  0  0  0  0  0
    5.2114    4.3032    0.6275 O   0  0  0  0  0  0  0  0  0  0  0  0
    3.0252    1.8052   -0.6253 C   0  0  0  0  0  0  0  0  0  0  0  0
    1.5567   -0.5296    1.7237 H   0  0  0  0  0  0  0  0  0  0  0  0
    0.9036   -1.7321    0.5954 H   0  0  0  0  0  0  0  0  0  0  0  0
    2.5217   -1.0609    0.3431 H   0  0  0  0  0  0  0  0  0  0  0  0
    0.8194   -0.0328   -1.2218 H   0  0  0  0  0  0  0  0  0  0  0  0
   -0.1249    0.5080    0.1531 H   0  0  0  0  0  0  0  0  0  0  0  0
    0.4067    3.0997    0.8951 H   0  0  0  0  0  0  0  0  0  0  0  0
    5.2628    3.3923   -1.1812 H   0  0  0  0  0  0  0  0  0  0  0  0
    4.2608    4.8525   -1.1450 H   0  0  0  0  0  0  0  0  0  0  0  0
    4.5618    4.7307    1.1956 H   0  0  0  0  0  0  0  0  0  0  0  0
    3.6646    1.0886   -1.1187 H   0  0  0  0  0  0  0  0  0  0  0  0
  1  2  1  0
  2  3  1  0
  3  4  2  0
  4  5  1  0
  5  6  1  0
  6  7  1  0
  7  8  1  0
  6  9  2  0
  9  3  1  0
  1 10  1  0
  1 11  1  0
  1 12  1  0
  2 13  1  0
  2 14  1  0
  4 15  1  0
  7 16  1  0
  7 17  1  0
  8 18  1  0
  9 19  1  0
M  END
$$$$
