
     RDKit          3D

 19 19  0  0  0  0  0  0  0  0999 V2000
    0.7541    0.4319   -0.8232 O   0  0  0  0  0  0  0  0  0  0  0  0
    0.3295    0.0033    0.2158 C   0  0  0  0  0  0  0  0  0  0  0  0
   -0.6250    0.5517    0.9762 O   0  0  0  0  0  0  0  0  0  0  0  0
   -1.2013    1.8018    0.5120 C   0  0  0  0  0  0  0  0  0  0  0  0
   -1.7337    2.5345    1.7367 C   0  0  0  0  0  0  0  0  0  0  0  0
   -2.3073    3.9011    1.3299 C   0  0  0  0  0  0  0  0  0  0  0  0
   -3.1553    3.8120    0.0874 C   0  0  0  0  0  0  0  0  0  0  0  0
   -3.1644    2.7539   -0.7221 C   0  0  0  0  0  0  0  0  0  0  0  0
   -2.3098    1.5300   -0.5063 C   0  0  0  0  0  0  0  0  0  0  0  0
    0.6778   -0.9213    0.7030 H   0  0  0  0  0  0  0  0  0  0  0  0
   -0.4030    2.3786    0.0358 H   0  0  0  0  0  0  0  0  0  0  0  0
   -2.5188    1.9236    2.1979 H   0  0  0  0  0  0  0  0  0  0  0  0
   -0.9367    2.6504    2.4774 H   0  0  0  0  0  0  0  0  0  0  0  0
   -2.8974    4.3142    2.1570 H   0  0  0  0  0  0  0  0  0  0  0  0
   -1.4921    4.6214    1.1666 H   0  0  0  0  0  0  0  0  0  0  0  0
   -3.7822    4.6702   -0.1418 H   0  0  0  0  0  0  0  0  0  0  0  0
   -3.8071    2.7479   -1.5987 H   0  0  0  0  0  0  0  0  0  0  0  0
   -2.9253    0.6926   -0.1473 H   0  0  0  0  0  0  0  0  0  0  0  0
   -1.8654    1.2021   -1.4518 H   0  0  0  0  0  0  0  0  0  0  0  0
  1  2  2  0
  2  3  1  0
  3  4  1  0
  4  5  1  0
  5  6  1  0
  6  7  1  0
  7  8  2  0
  8  9  1  0
  9  4  1  0
  2 10  1  0
  4 11  1  0
  5 12  1  0
  5 13  1  0
  6 14  1  0
  6 15  1  0
  7 16  1  0
  8 17  1  0
  9 18  1  0
  9 19  1  0
M  END
$$$$
