
     RDKit          3D

 19 21  0  0  0  0  0  0  0  0999 V2000
   -3.1307    1.5679    0.0815 C   0  0  0  0  0  0  0  0  0  0  0  0
   -2.3468    2.5079   -0.8206 C   0  0  0  0  0  0  0  0  0  0  0  0
   -1.0163    2.0108   -1.3556 C   0  0  0  0  0  0  0  0  0  0  0  0
   -0.2969    1.4652   -0.1027 C   0  0  0  0  0  0  0  0  0  0  0  0
    1.2429    1.4522   -0.0789 C   0  0  0  0  0  0  0  0  0  0  0  0
    1.2792    0.0122   -0.1379 O   0  0  0  0  0  0  0  0  0  0  0  0
   -0.1488   -0.0753    0.0301 C   0  0  0  0  0  0  0  0  0  0  0  0
   -0.8762    2.1241    1.0139 O   0  0  0  0  0  0  0  0  0  0  0  0
   -2.1652    2.5646    0.6682 C   0  0  0  0  0  0  0  0  0  0  0  0
   -4.1888    1.7744    0.2029 H   0  0  0  0  0  0  0  0  0  0  0  0
   -2.8788    0.5126    0.1037 H   0  0  0  0  0  0  0  0  0  0  0  0
   -2.8759    3.2793   -1.3669 H   0  0  0  0  0  0  0  0  0  0  0  0
   -1.1002    1.2484   -2.1355 H   0  0  0  0  0  0  0  0  0  0  0  0
   -0.4532    2.8529   -1.7743 H   0  0  0  0  0  0  0  0  0  0  0  0
    1.7518    1.9153   -0.9326 H   0  0  0  0  0  0  0  0  0  0  0  0
    1.6563    1.8458    0.8579 H   0  0  0  0  0  0  0  0  0  0  0  0
   -0.6175   -0.6956   -0.7440 H   0  0  0  0  0  0  0  0  0  0  0  0
   -0.4310   -0.4434    1.0246 H   0  0  0  0  0  0  0  0  0  0  0  0
   -2.5029    3.3744    1.3031 H   0  0  0  0  0  0  0  0  0  0  0  0
  1  2  1  0
  2  3  1  0
  3  4  1  0
  4  5  1  0
  5  6  1  0
  6  7  1  0
  4  8  1  0
  8  9  1  0
  9  1  1  0
  9  2  1  0
  7  4  1  0
  1 10  1  0
  1 11  1  0
  2 12  1  0
  3 13  1  0
  3 14  1  0
  5 15  1  0
  5 16  1  0
  7 17  1  0
  7 18  1  0
  9 19  1  0
M  END
$$$$
