gdb 2522	2.4756814	1.3934098	1.0989954	3.8187	79.3	-0.2323	-0.04102	0.19128	1168.2935	0.154882	-422.60797	-422.598507	-422.597563	-422.641941	35.24
 OpenBabel02181911413D

 19 19  0  0  1  0  0  0  0  0999 V2000
    1.3496    0.8024    0.2500 C   0  0  0  0  0  0  0  0  0  0  0  0
   -0.0222    0.2698    0.0037 C   0  0  0  0  0  0  0  0  0  0  0  0
   -1.1686    0.9615   -0.0679 C   0  0  0  0  0  0  0  0  0  0  0  0
   -2.3258    0.0662   -0.2607 C   0  0  0  0  0  0  0  0  0  0  0  0
   -3.4792    0.3826   -0.4409 O   0  0  0  0  0  0  0  0  0  0  0  0
   -1.7863   -1.3686   -0.1763 C   0  0  0  0  0  0  0  0  0  0  0  0
   -0.2463   -1.2298   -0.2027 C   0  0  1  0  0  0  0  0  0  0  0  0
    0.3537   -1.7055   -1.5356 C   0  0  0  0  0  0  0  0  0  0  0  0
    0.4002   -1.8899    0.8874 O   0  0  0  0  0  0  0  0  0  0  0  0
    1.7898    0.3024    1.1188 H   0  0  0  0  0  0  0  0  0  0  0  0
    2.0131    0.5952   -0.5982 H   0  0  0  0  0  0  0  0  0  0  0  0
    1.3387    1.8808    0.4219 H   0  0  0  0  0  0  0  0  0  0  0  0
   -1.2737    2.0373    0.0062 H   0  0  0  0  0  0  0  0  0  0  0  0
   -2.0924   -1.7978    0.7830 H   0  0  0  0  0  0  0  0  0  0  0  0
   -2.2020   -1.9898   -0.9739 H   0  0  0  0  0  0  0  0  0  0  0  0
    0.1707   -2.7787   -1.6669 H   0  0  0  0  0  0  0  0  0  0  0  0
   -0.1016   -1.1842   -2.3828 H   0  0  0  0  0  0  0  0  0  0  0  0
    1.4340   -1.5397   -1.5590 H   0  0  0  0  0  0  0  0  0  0  0  0
    0.3763   -2.8374    0.7170 H   0  0  0  0  0  0  0  0  0  0  0  0
  1 12  1  0  0  0  0
  1 10  1  0  0  0  0
  2  1  1  0  0  0  0
  3  2  2  0  0  0  0
  3 13  1  0  0  0  0
  4  6  1  0  0  0  0
  4  3  1  0  0  0  0
  5  4  2  0  0  0  0
  6 14  1  0  0  0  0
  7  6  1  0  0  0  0
  7  2  1  0  0  0  0
  7  9  1  1  0  0  0
  8  7  1  0  0  0  0
 11  1  1  0  0  0  0
 15  6  1  0  0  0  0
 16  8  1  0  0  0  0
 17  8  1  0  0  0  0
 18  8  1  0  0  0  0
 19  9  1  0  0  0  0
M TOR 0 0 1 2 3
M TOR 1 0 1 2 12
M TOR 2 0 1 6 5
M TOR 3 0 1 6 7
M TOR 4 0 1 6 8
M TOR 5 1 2 3 4
M TOR 6 1 2 3 5
M TOR 7 1 6 5 3
M TOR 8 1 6 5 13
M TOR 9 1 6 5 14
M TOR 10 1 6 7 15
M TOR 11 1 6 7 16
M TOR 12 1 6 7 17
M TOR 13 1 6 8 18
M TOR 14 2 1 0 9
M TOR 15 2 1 0 10
M TOR 16 2 1 0 11
M TOR 17 2 1 6 5
M TOR 18 2 1 6 7
M TOR 19 2 1 6 8
M TOR 20 2 3 5 6
M TOR 21 2 3 5 13
M TOR 22 2 3 5 14
M TOR 23 3 2 1 6
M TOR 24 3 5 6 7
M TOR 25 3 5 6 8
M TOR 26 4 3 2 12
M TOR 27 4 3 5 6
M TOR 28 4 3 5 13
M TOR 29 4 3 5 14
M TOR 30 5 3 2 12
M TOR 31 5 6 7 15
M TOR 32 5 6 7 16
M TOR 33 5 6 7 17
M TOR 34 5 6 8 18
M TOR 35 6 1 0 9
M TOR 36 6 1 0 10
M TOR 37 6 1 0 11
M TOR 38 6 1 2 12
M TOR 39 7 6 5 13
M TOR 40 7 6 5 14
M TOR 41 7 6 8 18
M TOR 42 8 6 5 13
M TOR 43 8 6 5 14
M TOR 44 8 6 7 15
M TOR 45 8 6 7 16
M TOR 46 8 6 7 17
M  END
$$$$
