gdb 4764	1.9043925	1.2671929	0.8735778	2.5196	77.54	-0.26141	-0.03348	0.22792999999999997	1372.9991	0.153058	-422.546248	-422.535757	-422.534813	-422.582373	37.291
 OpenBabel02181911413D

 19 18  0  0  1  0  0  0  0  0999 V2000
    4.4252   -3.8549    0.8347 C   0  0  0  0  0  0  0  0  0  0  0  0
    4.1887   -2.4657    0.2389 C   0  0  0  0  0  0  0  0  0  0  0  0
    3.0924   -2.4912   -0.8495 C   0  0  2  0  0  0  0  0  0  0  0  0
    3.4100   -3.4023   -1.8692 O   0  0  0  0  0  0  0  0  0  0  0  0
    2.8925   -1.1043   -1.4500 C   0  0  0  0  0  0  0  0  0  0  0  0
    3.1193   -0.9171   -2.6248 O   0  0  0  0  0  0  0  0  0  0  0  0
    2.4610    0.0662   -0.5558 C   0  0  0  0  0  0  0  0  0  0  0  0
    1.5404   -0.2655    0.5217 C   0  0  0  0  0  0  0  0  0  0  0  0
    0.7732   -0.5347    1.4064 C   0  0  0  0  0  0  0  0  0  0  0  0
    3.5258   -4.2244    1.3395 H   0  0  0  0  0  0  0  0  0  0  0  0
    4.6884   -4.5661    0.0486 H   0  0  0  0  0  0  0  0  0  0  0  0
    5.2364   -3.8306    1.5684 H   0  0  0  0  0  0  0  0  0  0  0  0
    3.8971   -1.7635    1.0280 H   0  0  0  0  0  0  0  0  0  0  0  0
    5.1150   -2.0907   -0.2145 H   0  0  0  0  0  0  0  0  0  0  0  0
    2.1435   -2.7842   -0.3727 H   0  0  0  0  0  0  0  0  0  0  0  0
    3.5130   -2.8670   -2.6720 H   0  0  0  0  0  0  0  0  0  0  0  0
    3.3839    0.4943   -0.1380 H   0  0  0  0  0  0  0  0  0  0  0  0
    2.0406    0.8297   -1.2179 H   0  0  0  0  0  0  0  0  0  0  0  0
    0.0933   -0.7724    2.1871 H   0  0  0  0  0  0  0  0  0  0  0  0
  1 10  1  0  0  0  0
  1 12  1  0  0  0  0
  2  1  1  0  0  0  0
  2 13  1  0  0  0  0
  3 15  1  1  0  0  0
  3  2  1  0  0  0  0
  4  3  1  0  0  0  0
  5  3  1  0  0  0  0
  5  7  1  0  0  0  0
  6  5  2  0  0  0  0
  7 17  1  0  0  0  0
  7  8  1  0  0  0  0
  8  9  3  0  0  0  0
  9 19  1  0  0  0  0
 11  1  1  0  0  0  0
 14  2  1  0  0  0  0
 16  4  1  0  0  0  0
 18  7  1  0  0  0  0
M TOR 0 0 1 2 3
M TOR 1 0 1 2 4
M TOR 2 0 1 2 14
M TOR 3 1 2 3 15
M TOR 4 1 2 4 5
M TOR 5 1 2 4 6
M TOR 6 2 1 0 9
M TOR 7 2 1 0 10
M TOR 8 2 1 0 11
M TOR 9 2 4 6 7
M TOR 10 2 4 6 16
M TOR 11 2 4 6 17
M TOR 12 3 2 1 12
M TOR 13 3 2 1 13
M TOR 14 3 2 4 5
M TOR 15 3 2 4 6
M TOR 16 4 2 1 12
M TOR 17 4 2 1 13
M TOR 18 4 2 3 15
M TOR 19 4 6 7 8
M TOR 20 5 4 2 14
M TOR 21 5 4 6 7
M TOR 22 5 4 6 16
M TOR 23 5 4 6 17
M TOR 24 6 4 2 14
M TOR 25 6 7 8 18
M TOR 26 8 7 6 16
M TOR 27 8 7 6 17
M  END
$$$$
