gdb 1009	2.0541587	1.0334582	0.7173695	1.6647	82.55	-0.24198	-0.03108	0.2109	1588.3678	0.152121	-422.541359	-422.529915	-422.528971	-422.580243	38.123
 OpenBabel02181911403D

 19 18  0  0  1  0  0  0  0  0999 V2000
    1.5407   -0.0290   -0.0343 C   0  0  0  0  0  0  0  0  0  0  0  0
    0.0858   -0.0494   -0.0038 C   0  0  0  0  0  0  0  0  0  0  0  0
   -1.1172   -0.0851    0.0425 C   0  0  0  0  0  0  0  0  0  0  0  0
   -2.5746   -0.0678    0.0375 C   0  0  2  0  0  0  0  0  0  0  0  0
   -3.0468    0.8682   -1.0782 C   0  0  0  0  0  0  0  0  0  0  0  0
   -3.9006    0.5962   -1.8792 O   0  0  0  0  0  0  0  0  0  0  0  0
   -3.1647    0.3932    1.4129 C   0  0  1  0  0  0  0  0  0  0  0  0
   -4.6896    0.2991    1.4380 C   0  0  0  0  0  0  0  0  0  0  0  0
   -2.5795   -0.3256    2.4815 O   0  0  0  0  0  0  0  0  0  0  0  0
    1.9601   -0.3109    0.9376 H   0  0  0  0  0  0  0  0  0  0  0  0
    1.9332   -0.7262   -0.7826 H   0  0  0  0  0  0  0  0  0  0  0  0
    1.9179    0.9694   -0.2812 H   0  0  0  0  0  0  0  0  0  0  0  0
   -2.9798   -1.0624   -0.1914 H   0  0  0  0  0  0  0  0  0  0  0  0
   -2.5261    1.8513   -1.0855 H   0  0  0  0  0  0  0  0  0  0  0  0
   -2.8535    1.4312    1.5785 H   0  0  0  0  0  0  0  0  0  0  0  0
   -5.0608    0.6305    2.4109 H   0  0  0  0  0  0  0  0  0  0  0  0
   -5.1509    0.9110    0.6579 H   0  0  0  0  0  0  0  0  0  0  0  0
   -5.0159   -0.7361    1.2793 H   0  0  0  0  0  0  0  0  0  0  0  0
   -2.8436   -1.2492    2.4005 H   0  0  0  0  0  0  0  0  0  0  0  0
  1  2  1  0  0  0  0
  1 10  1  0  0  0  0
  2  3  3  0  0  0  0
  4 13  1  6  0  0  0
  4  3  1  0  0  0  0
  4  7  1  0  0  0  0
  5  4  1  0  0  0  0
  6  5  2  0  0  0  0
  7  8  1  0  0  0  0
  7 15  1  1  0  0  0
  7  9  1  0  0  0  0
  8 16  1  0  0  0  0
 11  1  1  0  0  0  0
 12  1  1  0  0  0  0
 14  5  1  0  0  0  0
 17  8  1  0  0  0  0
 18  8  1  0  0  0  0
 19  9  1  0  0  0  0
M TOR 0 0 1 2 3
M TOR 1 1 2 3 4
M TOR 2 1 2 3 6
M TOR 3 1 2 3 12
M TOR 4 2 1 0 9
M TOR 5 2 1 0 10
M TOR 6 2 1 0 11
M TOR 7 2 3 4 5
M TOR 8 2 3 4 13
M TOR 9 2 3 6 7
M TOR 10 2 3 6 8
M TOR 11 2 3 6 14
M TOR 12 3 6 7 15
M TOR 13 3 6 7 16
M TOR 14 3 6 7 17
M TOR 15 3 6 8 18
M TOR 16 4 3 6 7
M TOR 17 4 3 6 8
M TOR 18 4 3 6 14
M TOR 19 5 4 3 6
M TOR 20 5 4 3 12
M TOR 21 6 3 4 13
M TOR 22 7 6 3 12
M TOR 23 7 6 8 18
M TOR 24 8 6 3 12
M TOR 25 8 6 7 15
M TOR 26 8 6 7 16
M TOR 27 8 6 7 17
M  END
$$$$
