gdb 629	3.2516863	1.4901768	1.1129363	2.1372	77.94	-0.22352	0.01545	0.23897	1094.5817	0.159801	-422.565465	-422.55808	-422.557135	-422.597264	28.887
 OpenBabel02181911403D

 19 20  0  0  1  0  0  0  0  0999 V2000
    0.6103    1.0003    1.1273 C   0  0  0  0  0  0  0  0  0  0  0  0
    0.9523    1.8684    0.0431 O   0  0  0  0  0  0  0  0  0  0  0  0
    0.3684    1.3858   -1.1591 C   0  0  2  0  0  0  0  0  0  0  0  0
   -0.4876    2.4531   -1.8641 C   0  0  0  0  0  0  0  0  0  0  0  0
   -1.2102    1.8532   -2.9289 O   0  0  0  0  0  0  0  0  0  0  0  0
   -2.1375    0.8782   -2.4847 C   0  0  0  0  0  0  0  0  0  0  0  0
   -1.4349   -0.3124   -1.7934 C   0  0  0  0  0  0  0  0  0  0  0  0
   -0.5202    0.2405   -0.7509 C   0  0  0  0  0  0  0  0  0  0  0  0
   -0.3899    0.0310    0.5551 C   0  0  0  0  0  0  0  0  0  0  0  0
    1.5139    0.4991    1.5122 H   0  0  0  0  0  0  0  0  0  0  0  0
    0.1979    1.5990    1.9528 H   0  0  0  0  0  0  0  0  0  0  0  0
    1.1543    1.0585   -1.8605 H   0  0  0  0  0  0  0  0  0  0  0  0
   -1.1682    2.9057   -1.1252 H   0  0  0  0  0  0  0  0  0  0  0  0
    0.1269    3.2422   -2.3049 H   0  0  0  0  0  0  0  0  0  0  0  0
   -2.8583    1.3315   -1.7846 H   0  0  0  0  0  0  0  0  0  0  0  0
   -2.6817    0.5465   -3.3731 H   0  0  0  0  0  0  0  0  0  0  0  0
   -2.1742   -1.0009   -1.3717 H   0  0  0  0  0  0  0  0  0  0  0  0
   -0.8605   -0.8591   -2.5528 H   0  0  0  0  0  0  0  0  0  0  0  0
   -0.9133   -0.7048    1.1532 H   0  0  0  0  0  0  0  0  0  0  0  0
  1 10  1  0  0  0  0
  1 11  1  0  0  0  0
  2  1  1  0  0  0  0
  3 12  1  6  0  0  0
  3  8  1  0  0  0  0
  3  2  1  0  0  0  0
  4  3  1  0  0  0  0
  4 13  1  0  0  0  0
  5  6  1  0  0  0  0
  5  4  1  0  0  0  0
  6  7  1  0  0  0  0
  6 15  1  0  0  0  0
  7 17  1  0  0  0  0
  7  8  1  0  0  0  0
  8  9  2  0  0  0  0
  9  1  1  0  0  0  0
  9 19  1  0  0  0  0
 14  4  1  0  0  0  0
 16  6  1  0  0  0  0
 18  7  1  0  0  0  0
M TOR 0 0 1 2 3
M TOR 1 0 1 2 7
M TOR 2 0 1 2 11
M TOR 3 0 8 7 2
M TOR 4 0 8 7 6
M TOR 5 1 0 8 7
M TOR 6 1 0 8 18
M TOR 7 1 2 3 4
M TOR 8 1 2 3 12
M TOR 9 1 2 3 13
M TOR 10 1 2 7 6
M TOR 11 1 2 7 8
M TOR 12 2 1 0 8
M TOR 13 2 1 0 9
M TOR 14 2 1 0 10
M TOR 15 2 3 4 5
M TOR 16 2 7 6 5
M TOR 17 2 7 6 16
M TOR 18 2 7 6 17
M TOR 19 2 7 8 18
M TOR 20 3 2 7 6
M TOR 21 3 2 7 8
M TOR 22 3 4 5 6
M TOR 23 3 4 5 14
M TOR 24 3 4 5 15
M TOR 25 4 3 2 7
M TOR 26 4 3 2 11
M TOR 27 4 5 6 7
M TOR 28 4 5 6 16
M TOR 29 4 5 6 17
M TOR 30 5 4 3 12
M TOR 31 5 4 3 13
M TOR 32 5 6 7 8
M TOR 33 6 7 2 11
M TOR 34 6 7 8 18
M TOR 35 7 2 3 12
M TOR 36 7 2 3 13
M TOR 37 7 6 5 14
M TOR 38 7 6 5 15
M TOR 39 7 8 0 9
M TOR 40 7 8 0 10
M TOR 41 8 7 2 11
M TOR 42 8 7 6 16
M TOR 43 8 7 6 17
M  END
$$$$
