
     RDKit          3D

 19 21  0  0  0  0  0  0  0  0999 V2000
    0.0782    0.0420    0.7623 C   0  0  0  0  0  0  0  0  0  0  0  0
    1.4505    0.0773    0.1513 C   0  0  0  0  0  0  0  0  0  0  0  0
    2.3115    1.3350    0.0554 C   0  0  0  0  0  0  0  0  0  0  0  0
    3.5384    0.6379   -0.5742 C   0  0  0  0  0  0  0  0  0  0  0  0
    2.9323   -0.0494   -1.8164 C   0  0  0  0  0  0  0  0  0  0  0  0
    1.8541   -0.7985   -1.0369 C   0  0  0  0  0  0  0  0  0  0  0  0
    0.9205   -1.6394   -1.6234 O   0  0  0  0  0  0  0  0  0  0  0  0
    2.4800   -1.0312    0.3243 C   0  0  0  0  0  0  0  0  0  0  0  0
    3.7774   -0.4637    0.3253 O   0  0  0  0  0  0  0  0  0  0  0  0
    0.1064    0.3327    1.8185 H   0  0  0  0  0  0  0  0  0  0  0  0
   -0.6050    0.7250    0.2448 H   0  0  0  0  0  0  0  0  0  0  0  0
   -0.3521   -0.9610    0.6938 H   0  0  0  0  0  0  0  0  0  0  0  0
    1.8852    2.1066   -0.5929 H   0  0  0  0  0  0  0  0  0  0  0  0
    2.5394    1.7678    1.0341 H   0  0  0  0  0  0  0  0  0  0  0  0
    4.4527    1.2139   -0.7004 H   0  0  0  0  0  0  0  0  0  0  0  0
    2.5297    0.6594   -2.5449 H   0  0  0  0  0  0  0  0  0  0  0  0
    3.6454   -0.7190   -2.3082 H   0  0  0  0  0  0  0  0  0  0  0  0
    1.3652   -2.4566   -1.8748 H   0  0  0  0  0  0  0  0  0  0  0  0
    2.3525   -1.9129    0.9377 H   0  0  0  0  0  0  0  0  0  0  0  0
  1  2  1  0
  2  3  1  0
  3  4  1  0
  4  5  1  0
  5  6  1  0
  6  7  1  0
  6  8  1  0
  8  9  1  0
  6  2  1  0
  8  2  1  0
  9  4  1  0
  1 10  1  0
  1 11  1  0
  1 12  1  0
  3 13  1  0
  3 14  1  0
  4 15  1  0
  5 16  1  0
  5 17  1  0
  7 18  1  0
  8 19  1  0
M  END
$$$$
