gdb 2138	2.8465971	1.915369	1.6093656	1.1838	72.72	-0.22097	0.0836	0.30457	920.6698	0.158805	-422.564017	-422.556724	-422.55578	-422.59535	29.484
 OpenBabel02181911403D

 19 21  0  0  1  0  0  0  0  0999 V2000
    0.1610    0.1599   -0.2924 C   0  0  0  0  0  0  0  0  0  0  0  0
    1.4493   -0.2345    0.3941 C   0  0  2  0  0  0  0  0  0  0  0  0
    1.2723   -1.0487    1.6829 C   0  0  0  0  0  0  0  0  0  0  0  0
    2.6618   -1.3911    2.2916 C   0  0  0  0  0  0  0  0  0  0  0  0
    3.7838   -0.8240    1.4377 C   0  0  2  0  0  0  0  0  0  0  0  0
    3.5496    0.4986    0.7304 C   0  0  2  0  0  0  0  0  0  0  0  0
    2.2121    0.9385    0.7041 O   0  0  0  0  0  0  0  0  0  0  0  0
    3.5853   -0.7705   -0.0663 C   0  0  2  0  0  0  0  0  0  0  0  0
    2.2665   -0.9916   -0.5077 O   0  0  0  0  0  0  0  0  0  0  0  0
   -0.4502    0.7698    0.3773 H   0  0  0  0  0  0  0  0  0  0  0  0
    0.3872    0.7350   -1.1925 H   0  0  0  0  0  0  0  0  0  0  0  0
   -0.4043   -0.7326   -0.5711 H   0  0  0  0  0  0  0  0  0  0  0  0
    0.6701   -0.4636    2.3838 H   0  0  0  0  0  0  0  0  0  0  0  0
    0.7130   -1.9581    1.4453 H   0  0  0  0  0  0  0  0  0  0  0  0
    2.7412   -0.9906    3.3075 H   0  0  0  0  0  0  0  0  0  0  0  0
    2.7832   -2.4758    2.3766 H   0  0  0  0  0  0  0  0  0  0  0  0
    4.7983   -1.0094    1.7785 H   0  0  0  0  0  0  0  0  0  0  0  0
    4.2684    1.3064    0.6935 H   0  0  0  0  0  0  0  0  0  0  0  0
    4.3350   -1.0588   -0.7911 H   0  0  0  0  0  0  0  0  0  0  0  0
  1 10  1  0  0  0  0
  2  1  1  6  0  0  0
  2  7  1  0  0  0  0
  2  3  1  0  0  0  0
  3  4  1  0  0  0  0
  3 13  1  0  0  0  0
  4 16  1  0  0  0  0
  4 15  1  0  0  0  0
  5 17  1  1  0  0  0
  5  4  1  0  0  0  0
  6 18  1  6  0  0  0
  6  5  1  0  0  0  0
  7  6  1  0  0  0  0
  8 19  1  6  0  0  0
  8  6  1  0  0  0  0
  8  5  1  0  0  0  0
  9  8  1  0  0  0  0
  9  2  1  0  0  0  0
 11  1  1  0  0  0  0
 12  1  1  0  0  0  0
 14  3  1  0  0  0  0
M TOR 0 0 1 2 3
M TOR 1 0 1 2 12
M TOR 2 0 1 2 13
M TOR 3 0 1 6 5
M TOR 4 0 1 8 7
M TOR 5 1 2 3 4
M TOR 6 1 2 3 14
M TOR 7 1 2 3 15
M TOR 8 1 6 5 4
M TOR 9 1 6 5 7
M TOR 10 1 6 5 17
M TOR 11 1 8 7 4
M TOR 12 1 8 7 5
M TOR 13 1 8 7 18
M TOR 14 2 1 0 9
M TOR 15 2 1 0 10
M TOR 16 2 1 0 11
M TOR 17 2 1 6 5
M TOR 18 2 1 8 7
M TOR 19 2 3 4 5
M TOR 20 2 3 4 7
M TOR 21 2 3 4 16
M TOR 22 3 2 1 6
M TOR 23 3 2 1 8
M TOR 24 3 4 5 6
M TOR 25 3 4 5 7
M TOR 26 3 4 5 17
M TOR 27 3 4 7 8
M TOR 28 3 4 7 18
M TOR 29 4 3 2 12
M TOR 30 4 3 2 13
M TOR 31 4 5 7 8
M TOR 32 4 5 7 18
M TOR 33 4 7 5 6
M TOR 34 4 7 5 17
M TOR 35 5 4 3 14
M TOR 36 5 4 3 15
M TOR 37 5 6 1 8
M TOR 38 5 7 4 16
M TOR 39 6 1 0 9
M TOR 40 6 1 0 10
M TOR 41 6 1 0 11
M TOR 42 6 1 2 12
M TOR 43 6 1 2 13
M TOR 44 6 1 8 7
M TOR 45 6 5 4 16
M TOR 46 6 5 7 8
M TOR 47 6 5 7 18
M TOR 48 7 4 3 14
M TOR 49 7 4 3 15
M TOR 50 8 1 0 9
M TOR 51 8 1 0 10
M TOR 52 8 1 0 11
M TOR 53 8 1 2 12
M TOR 54 8 1 2 13
M TOR 55 8 7 4 16
M TOR 56 8 7 5 17
M  END
$$$$
