
     RDKit          3D

 19 21  0  0  0  0  0  0  0  0999 V2000
    0.3820   -0.0389    0.6269 O   0  0  0  0  0  0  0  0  0  0  0  0
   -0.9976    0.2164    0.6130 C   0  0  0  0  0  0  0  0  0  0  0  0
   -1.5503    0.5657    1.9585 C   0  0  0  0  0  0  0  0  0  0  0  0
   -1.8903   -0.7777    1.3166 C   0  0  0  0  0  0  0  0  0  0  0  0
   -3.2627   -0.9956    0.7769 C   0  0  0  0  0  0  0  0  0  0  0  0
   -3.3670   -1.3828   -0.6107 O   0  0  0  0  0  0  0  0  0  0  0  0
   -3.8128   -0.0786   -0.2306 C   0  0  0  0  0  0  0  0  0  0  0  0
   -3.0052    1.1059   -0.7185 C   0  0  0  0  0  0  0  0  0  0  0  0
   -1.4897    0.8625   -0.6710 C   0  0  0  0  0  0  0  0  0  0  0  0
    0.5639   -0.6951   -0.0559 H   0  0  0  0  0  0  0  0  0  0  0  0
   -0.8453    0.5547    2.7813 H   0  0  0  0  0  0  0  0  0  0  0  0
   -2.3358    1.3090    2.0382 H   0  0  0  0  0  0  0  0  0  0  0  0
   -1.3956   -1.6462    1.7410 H   0  0  0  0  0  0  0  0  0  0  0  0
   -3.9598   -1.5257    1.4262 H   0  0  0  0  0  0  0  0  0  0  0  0
   -4.8957    0.0501   -0.2711 H   0  0  0  0  0  0  0  0  0  0  0  0
   -3.3017    1.3548   -1.7441 H   0  0  0  0  0  0  0  0  0  0  0  0
   -3.2777    1.9743   -0.1050 H   0  0  0  0  0  0  0  0  0  0  0  0
   -1.2163    0.1960   -1.4988 H   0  0  0  0  0  0  0  0  0  0  0  0
   -0.9512    1.8033   -0.8301 H   0  0  0  0  0  0  0  0  0  0  0  0
  1  2  1  0
  2  3  1  0
  3  4  1  0
  4  5  1  0
  5  6  1  0
  6  7  1  0
  7  8  1  0
  8  9  1  0
  4  2  1  0
  7  5  1  0
  9  2  1  0
  1 10  1  0
  3 11  1  0
  3 12  1  0
  4 13  1  0
  5 14  1  0
  7 15  1  0
  8 16  1  0
  8 17  1  0
  9 18  1  0
  9 19  1  0
M  END
$$$$
