gdb 4913	1.7878504	1.2196156	0.8592564	2.1373	81.6	-0.24425	0.02809	0.27233999999999997	1446.4854	0.152994	-422.511124	-422.500196	-422.499252	-422.549149	37.25
 OpenBabel02181911413D

 19 19  0  0  1  0  0  0  0  0999 V2000
    1.5867    0.0039   -0.0895 C   0  0  0  0  0  0  0  0  0  0  0  0
    0.1332   -0.0572   -0.0822 C   0  0  0  0  0  0  0  0  0  0  0  0
   -1.0704   -0.1043   -0.0729 C   0  0  0  0  0  0  0  0  0  0  0  0
   -2.5115   -0.1225   -0.1092 C   0  0  2  0  0  0  0  0  0  0  0  0
   -3.1539    0.5684   -1.3077 C   0  0  0  0  0  0  0  0  0  0  0  0
   -2.7488    0.0150   -2.5436 O   0  0  0  0  0  0  0  0  0  0  0  0
   -3.1960    0.1354    1.1353 O   0  0  0  0  0  0  0  0  0  0  0  0
   -3.2767   -1.1837    0.5960 C   0  0  2  0  0  0  0  0  0  0  0  0
   -2.6324   -2.2916    1.3847 C   0  0  0  0  0  0  0  0  0  0  0  0
    1.9631    0.5389    0.7893 H   0  0  0  0  0  0  0  0  0  0  0  0
    2.0295   -0.9982   -0.0844 H   0  0  0  0  0  0  0  0  0  0  0  0
    1.9537    0.5262   -0.9796 H   0  0  0  0  0  0  0  0  0  0  0  0
   -4.2451    0.5429   -1.1698 H   0  0  0  0  0  0  0  0  0  0  0  0
   -2.8435    1.6174   -1.3298 H   0  0  0  0  0  0  0  0  0  0  0  0
   -2.9991   -0.9147   -2.5489 H   0  0  0  0  0  0  0  0  0  0  0  0
   -4.2593   -1.4209    0.1785 H   0  0  0  0  0  0  0  0  0  0  0  0
   -3.2264   -2.5144    2.2771 H   0  0  0  0  0  0  0  0  0  0  0  0
   -2.5746   -3.2044    0.7820 H   0  0  0  0  0  0  0  0  0  0  0  0
   -1.6240   -2.0109    1.6945 H   0  0  0  0  0  0  0  0  0  0  0  0
  1 11  1  0  0  0  0
  1  2  1  0  0  0  0
  1 10  1  0  0  0  0
  2  3  3  0  0  0  0
  4  3  1  1  0  0  0
  4  8  1  0  0  0  0
  4  7  1  0  0  0  0
  5 13  1  0  0  0  0
  5  4  1  0  0  0  0
  6  5  1  0  0  0  0
  8 16  1  6  0  0  0
  8  7  1  0  0  0  0
  8  9  1  0  0  0  0
  9 19  1  0  0  0  0
  9 17  1  0  0  0  0
 12  1  1  0  0  0  0
 14  5  1  0  0  0  0
 15  6  1  0  0  0  0
 18  9  1  0  0  0  0
M TOR 0 0 1 2 3
M TOR 1 1 2 3 4
M TOR 2 1 2 3 6
M TOR 3 1 2 3 7
M TOR 4 2 1 0 9
M TOR 5 2 1 0 10
M TOR 6 2 1 0 11
M TOR 7 2 3 4 5
M TOR 8 2 3 4 12
M TOR 9 2 3 4 13
M TOR 10 2 3 6 7
M TOR 11 2 3 7 8
M TOR 12 2 3 7 15
M TOR 13 3 4 5 14
M TOR 14 3 6 7 8
M TOR 15 3 6 7 15
M TOR 16 3 7 8 16
M TOR 17 3 7 8 17
M TOR 18 3 7 8 18
M TOR 19 4 3 6 7
M TOR 20 4 3 7 8
M TOR 21 4 3 7 15
M TOR 22 5 4 3 6
M TOR 23 5 4 3 7
M TOR 24 6 3 4 12
M TOR 25 6 3 4 13
M TOR 26 6 7 8 16
M TOR 27 6 7 8 17
M TOR 28 6 7 8 18
M TOR 29 7 3 4 12
M TOR 30 7 3 4 13
M  END
$$$$
