
     RDKit          3D

 19 19  0  0  0  0  0  0  0  0999 V2000
    1.3177   -0.8966   -1.0830 C   0  0  0  0  0  0  0  0  0  0  0  0
    1.0375    0.0057    0.1223 C   0  0  0  0  0  0  0  0  0  0  0  0
    1.7390    1.3760    0.0447 C   0  0  0  0  0  0  0  0  0  0  0  0
    1.3236    2.1172   -1.1021 O   0  0  0  0  0  0  0  0  0  0  0  0
    1.4353    2.2214    1.2440 C   0  0  0  0  0  0  0  0  0  0  0  0
    2.2388    2.4627    2.3136 C   0  0  0  0  0  0  0  0  0  0  0  0
    1.6078    3.2456    3.2289 O   0  0  0  0  0  0  0  0  0  0  0  0
    0.3738    3.5171    2.7251 C   0  0  0  0  0  0  0  0  0  0  0  0
    0.2079    2.9197    1.5189 C   0  0  0  0  0  0  0  0  0  0  0  0
    0.8474   -1.8762   -0.9569 H   0  0  0  0  0  0  0  0  0  0  0  0
    0.9181   -0.4710   -2.0105 H   0  0  0  0  0  0  0  0  0  0  0  0
    2.3930   -1.0612   -1.2201 H   0  0  0  0  0  0  0  0  0  0  0  0
   -0.0410    0.1736    0.2238 H   0  0  0  0  0  0  0  0  0  0  0  0
    1.3688   -0.4900    1.0422 H   0  0  0  0  0  0  0  0  0  0  0  0
    2.8276    1.2002    0.0065 H   0  0  0  0  0  0  0  0  0  0  0  0
    1.5394    1.5974   -1.8825 H   0  0  0  0  0  0  0  0  0  0  0  0
    3.2432    2.1630    2.5646 H   0  0  0  0  0  0  0  0  0  0  0  0
   -0.2515    4.1459    3.3371 H   0  0  0  0  0  0  0  0  0  0  0  0
   -0.6588    2.9746    0.8801 H   0  0  0  0  0  0  0  0  0  0  0  0
  1  2  1  0
  2  3  1  0
  3  4  1  0
  3  5  1  0
  5  6  2  0
  6  7  1  0
  7  8  1  0
  8  9  2  0
  9  5  1  0
  1 10  1  0
  1 11  1  0
  1 12  1  0
  2 13  1  0
  2 14  1  0
  3 15  1  0
  4 16  1  0
  6 17  1  0
  8 18  1  0
  9 19  1  0
M  END
$$$$
