
     RDKit          3D

 19 19  0  0  0  0  0  0  0  0999 V2000
    1.5796    0.1629   -0.0013 C   0  0  0  0  0  0  0  0  0  0  0  0
    0.1257    0.0886    0.0095 C   0  0  0  0  0  0  0  0  0  0  0  0
   -1.0762    0.0279    0.0101 C   0  0  0  0  0  0  0  0  0  0  0  0
   -2.5304   -0.0560    0.0236 C   0  0  0  0  0  0  0  0  0  0  0  0
   -3.0458   -1.4353    0.4343 C   0  0  0  0  0  0  0  0  0  0  0  0
   -4.4496   -1.3906    0.5319 O   0  0  0  0  0  0  0  0  0  0  0  0
   -4.8775   -2.7262    0.3180 C   0  0  0  0  0  0  0  0  0  0  0  0
   -3.8752   -3.2435   -0.7273 C   0  0  0  0  0  0  0  0  0  0  0  0
   -2.7342   -2.4096   -0.5477 O   0  0  0  0  0  0  0  0  0  0  0  0
    1.9853    0.2230    1.0147 H   0  0  0  0  0  0  0  0  0  0  0  0
    2.0193   -0.7179   -0.4822 H   0  0  0  0  0  0  0  0  0  0  0  0
    1.9279    1.0462   -0.5483 H   0  0  0  0  0  0  0  0  0  0  0  0
   -2.9513    0.6729    0.7269 H   0  0  0  0  0  0  0  0  0  0  0  0
   -2.9485    0.1688   -0.9644 H   0  0  0  0  0  0  0  0  0  0  0  0
   -2.6044   -1.7417    1.3999 H   0  0  0  0  0  0  0  0  0  0  0  0
   -4.8189   -3.3090    1.2497 H   0  0  0  0  0  0  0  0  0  0  0  0
   -5.9130   -2.7104   -0.0280 H   0  0  0  0  0  0  0  0  0  0  0  0
   -3.6061   -4.2939   -0.5691 H   0  0  0  0  0  0  0  0  0  0  0  0
   -4.2527   -3.1274   -1.7507 H   0  0  0  0  0  0  0  0  0  0  0  0
  1  2  1  0
  2  3  3  0
  3  4  1  0
  4  5  1  0
  5  6  1  0
  6  7  1  0
  7  8  1  0
  8  9  1  0
  9  5  1  0
  1 10  1  0
  1 11  1  0
  1 12  1  0
  4 13  1  0
  4 14  1  0
  5 15  1  0
  7 16  1  0
  7 17  1  0
  8 18  1  0
  8 19  1  0
M  END
$$$$
