gdb 5069	2.9174822	1.2572913	1.0417819	3.2625	76.08	-0.23761	-0.02575	0.21186	1212.1089	0.154502	-422.540669	-422.53131	-422.530366	-422.574962	33.967
 OpenBabel02181911413D

 19 20  0  0  1  0  0  0  0  0999 V2000
    1.6465   -0.4595    1.0683 C   0  0  0  0  0  0  0  0  0  0  0  0
    0.9906    0.0759   -0.2128 C   0  0  0  0  0  0  0  0  0  0  0  0
    1.4943   -0.6000   -1.4510 C   0  0  2  0  0  0  0  0  0  0  0  0
    2.7827   -0.2455   -1.9567 O   0  0  0  0  0  0  0  0  0  0  0  0
    1.6438   -0.0671   -2.8347 C   0  0  1  0  0  0  0  0  0  0  0  0
    1.3669   -1.4571   -3.3909 C   0  0  0  0  0  0  0  0  0  0  0  0
    1.1764   -1.9051   -4.4822 O   0  0  0  0  0  0  0  0  0  0  0  0
    1.2410   -2.0468   -1.9495 C   0  0  1  0  0  0  0  0  0  0  0  0
    2.1873   -3.1630   -1.5271 C   0  0  0  0  0  0  0  0  0  0  0  0
    1.4352   -1.5239    1.2106 H   0  0  0  0  0  0  0  0  0  0  0  0
    2.7322   -0.3329    1.0294 H   0  0  0  0  0  0  0  0  0  0  0  0
    1.2720    0.0761    1.9451 H   0  0  0  0  0  0  0  0  0  0  0  0
   -0.0971   -0.0555   -0.1606 H   0  0  0  0  0  0  0  0  0  0  0  0
    1.1805    1.1508   -0.3064 H   0  0  0  0  0  0  0  0  0  0  0  0
    1.4817    0.9219   -3.2479 H   0  0  0  0  0  0  0  0  0  0  0  0
    0.1914   -2.3382   -1.8107 H   0  0  0  0  0  0  0  0  0  0  0  0
    1.9840   -3.4985   -0.5054 H   0  0  0  0  0  0  0  0  0  0  0  0
    2.0724   -4.0239   -2.1928 H   0  0  0  0  0  0  0  0  0  0  0  0
    3.2246   -2.8236   -1.5828 H   0  0  0  0  0  0  0  0  0  0  0  0
  1 10  1  0  0  0  0
  1 12  1  0  0  0  0
  2 13  1  0  0  0  0
  2  1  1  0  0  0  0
  3  2  1  1  0  0  0
  4  3  1  0  0  0  0
  5 15  1  6  0  0  0
  5  4  1  0  0  0  0
  5  3  1  0  0  0  0
  6  5  1  0  0  0  0
  6  8  1  0  0  0  0
  7  6  2  0  0  0  0
  8 16  1  1  0  0  0
  8  9  1  0  0  0  0
  8  3  1  0  0  0  0
  9 17  1  0  0  0  0
 11  1  1  0  0  0  0
 14  2  1  0  0  0  0
 18  9  1  0  0  0  0
 19  9  1  0  0  0  0
M TOR 0 0 1 2 3
M TOR 1 0 1 2 4
M TOR 2 0 1 2 7
M TOR 3 1 2 3 4
M TOR 4 1 2 4 5
M TOR 5 1 2 4 14
M TOR 6 1 2 7 5
M TOR 7 1 2 7 8
M TOR 8 1 2 7 15
M TOR 9 2 1 0 9
M TOR 10 2 1 0 10
M TOR 11 2 1 0 11
M TOR 12 2 3 4 5
M TOR 13 2 3 4 14
M TOR 14 2 4 5 6
M TOR 15 2 4 5 7
M TOR 16 2 7 5 6
M TOR 17 2 7 8 16
M TOR 18 2 7 8 17
M TOR 19 2 7 8 18
M TOR 20 3 2 1 12
M TOR 21 3 2 1 13
M TOR 22 3 2 7 5
M TOR 23 3 2 7 8
M TOR 24 3 2 7 15
M TOR 25 3 4 2 7
M TOR 26 3 4 5 6
M TOR 27 3 4 5 7
M TOR 28 4 2 1 12
M TOR 29 4 2 1 13
M TOR 30 4 2 7 8
M TOR 31 4 2 7 15
M TOR 32 4 5 7 8
M TOR 33 4 5 7 15
M TOR 34 5 7 8 16
M TOR 35 5 7 8 17
M TOR 36 5 7 8 18
M TOR 37 6 5 4 14
M TOR 38 6 5 7 8
M TOR 39 6 5 7 15
M TOR 40 7 2 1 12
M TOR 41 7 2 1 13
M TOR 42 7 2 4 14
M TOR 43 7 5 4 14
M  END
$$$$
