
     RDKit          3D

 19 20  0  0  0  0  0  0  0  0999 V2000
    2.3634   -3.6953   -4.5095 C   0  0  0  0  0  0  0  0  0  0  0  0
    3.1816   -2.4177   -4.5030 C   0  0  0  0  0  0  0  0  0  0  0  0
    4.3901   -2.4297   -4.5726 O   0  0  0  0  0  0  0  0  0  0  0  0
    2.3849   -1.1235   -4.4449 C   0  0  0  0  0  0  0  0  0  0  0  0
    3.2290    0.1552   -4.1364 C   0  0  0  0  0  0  0  0  0  0  0  0
    2.9296    0.6660   -5.5571 C   0  0  0  0  0  0  0  0  0  0  0  0
    3.7482    1.5771   -6.4095 C   0  0  0  0  0  0  0  0  0  0  0  0
    1.4925    0.7331   -5.6698 O   0  0  0  0  0  0  0  0  0  0  0  0
    2.1266   -0.5302   -5.8591 C   0  0  0  0  0  0  0  0  0  0  0  0
    1.8824   -3.8267   -3.5328 H   0  0  0  0  0  0  0  0  0  0  0  0
    1.5582   -3.6399   -5.2505 H   0  0  0  0  0  0  0  0  0  0  0  0
    3.0055   -4.5524   -4.7151 H   0  0  0  0  0  0  0  0  0  0  0  0
    1.4630   -1.2589   -3.8726 H   0  0  0  0  0  0  0  0  0  0  0  0
    2.8699    0.7924   -3.3255 H   0  0  0  0  0  0  0  0  0  0  0  0
    4.2784   -0.1074   -3.9907 H   0  0  0  0  0  0  0  0  0  0  0  0
    3.7493    2.5938   -6.0005 H   0  0  0  0  0  0  0  0  0  0  0  0
    4.7854    1.2308   -6.4555 H   0  0  0  0  0  0  0  0  0  0  0  0
    3.3434    1.6186   -7.4241 H   0  0  0  0  0  0  0  0  0  0  0  0
    1.9332   -1.0578   -6.7875 H   0  0  0  0  0  0  0  0  0  0  0  0
  1  2  1  0
  2  3  2  0
  2  4  1  0
  4  5  1  0
  5  6  1  0
  6  7  1  0
  6  8  1  0
  8  9  1  0
  9  4  1  0
  9  6  1  0
  1 10  1  0
  1 11  1  0
  1 12  1  0
  4 13  1  0
  5 14  1  0
  5 15  1  0
  7 16  1  0
  7 17  1  0
  7 18  1  0
  9 19  1  0
M  END
$$$$
