gdb 2173	2.623396	1.7726664	1.6146759	1.6379	74.32	-0.24271	0.08584	0.32855	948.0214	0.158684	-422.518677	-422.511297	-422.510353	-422.550105	29.397
 OpenBabel02181911403D

 19 21  0  0  1  0  0  0  0  0999 V2000
    2.7648    1.1562   -0.0837 C   0  0  0  0  0  0  0  0  0  0  0  0
    1.7122    0.0952    0.1175 C   0  0  2  0  0  0  0  0  0  0  0  0
    0.6312   -0.3286   -0.9155 C   0  0  0  0  0  0  0  0  0  0  0  0
    0.3447   -1.2395    0.2977 C   0  0  2  0  0  0  0  0  0  0  0  0
    0.5659    0.0101    1.1942 C   0  0  1  0  0  0  0  0  0  0  0  0
    0.9136   -0.2283    2.5401 O   0  0  0  0  0  0  0  0  0  0  0  0
    2.1743   -0.8447    2.6467 C   0  0  0  0  0  0  0  0  0  0  0  0
    2.3742   -1.8417    1.6736 O   0  0  0  0  0  0  0  0  0  0  0  0
    1.8808   -1.4424    0.4142 C   0  0  2  0  0  0  0  0  0  0  0  0
    3.4099    1.2700    0.7921 H   0  0  0  0  0  0  0  0  0  0  0  0
    3.4041    0.9098   -0.9388 H   0  0  0  0  0  0  0  0  0  0  0  0
    2.3010    2.1284   -0.2845 H   0  0  0  0  0  0  0  0  0  0  0  0
   -0.1263    0.4236   -1.1521 H   0  0  0  0  0  0  0  0  0  0  0  0
    0.9997   -0.8201   -1.8200 H   0  0  0  0  0  0  0  0  0  0  0  0
   -0.4287   -1.9982    0.4066 H   0  0  0  0  0  0  0  0  0  0  0  0
   -0.2018    0.7877    1.1810 H   0  0  0  0  0  0  0  0  0  0  0  0
    2.9651   -0.0819    2.5593 H   0  0  0  0  0  0  0  0  0  0  0  0
    2.2292   -1.3221    3.6280 H   0  0  0  0  0  0  0  0  0  0  0  0
    2.3719   -2.0552   -0.3458 H   0  0  0  0  0  0  0  0  0  0  0  0
  1 10  1  0  0  0  0
  2  1  1  6  0  0  0
  2  9  1  0  0  0  0
  2  5  1  0  0  0  0
  3  2  1  0  0  0  0
  3  4  1  0  0  0  0
  4 15  1  1  0  0  0
  4  9  1  0  0  0  0
  4  5  1  0  0  0  0
  5 16  1  6  0  0  0
  5  6  1  0  0  0  0
  6  7  1  0  0  0  0
  7 18  1  0  0  0  0
  8  7  1  0  0  0  0
  9 19  1  6  0  0  0
  9  8  1  0  0  0  0
 11  1  1  0  0  0  0
 12  1  1  0  0  0  0
 13  3  1  0  0  0  0
 14  3  1  0  0  0  0
 17  7  1  0  0  0  0
M TOR 0 0 1 2 3
M TOR 1 0 1 2 12
M TOR 2 0 1 2 13
M TOR 3 0 1 4 3
M TOR 4 0 1 4 5
M TOR 5 0 1 4 15
M TOR 6 0 1 8 3
M TOR 7 0 1 8 7
M TOR 8 0 1 8 18
M TOR 9 1 2 3 4
M TOR 10 1 2 3 8
M TOR 11 1 2 3 14
M TOR 12 1 4 3 8
M TOR 13 1 4 3 14
M TOR 14 1 4 5 6
M TOR 15 1 8 3 14
M TOR 16 1 8 7 6
M TOR 17 2 1 0 9
M TOR 18 2 1 0 10
M TOR 19 2 1 0 11
M TOR 20 2 1 4 5
M TOR 21 2 1 4 15
M TOR 22 2 1 8 7
M TOR 23 2 1 8 18
M TOR 24 2 3 4 5
M TOR 25 2 3 4 15
M TOR 26 2 3 8 7
M TOR 27 2 3 8 18
M TOR 28 3 4 5 6
M TOR 29 3 8 7 6
M TOR 30 4 1 0 9
M TOR 31 4 1 0 10
M TOR 32 4 1 0 11
M TOR 33 4 1 2 12
M TOR 34 4 1 2 13
M TOR 35 4 1 8 7
M TOR 36 4 1 8 18
M TOR 37 4 3 2 12
M TOR 38 4 3 2 13
M TOR 39 4 3 8 7
M TOR 40 4 3 8 18
M TOR 41 4 5 6 7
M TOR 42 4 5 6 16
M TOR 43 4 5 6 17
M TOR 44 5 4 1 8
M TOR 45 5 4 3 8
M TOR 46 5 4 3 14
M TOR 47 5 6 7 8
M TOR 48 6 5 4 15
M TOR 49 6 7 8 18
M TOR 50 7 8 3 14
M TOR 51 8 1 0 9
M TOR 52 8 1 0 10
M TOR 53 8 1 0 11
M TOR 54 8 1 2 12
M TOR 55 8 1 2 13
M TOR 56 8 1 4 15
M TOR 57 8 3 2 12
M TOR 58 8 3 2 13
M TOR 59 8 3 4 15
M TOR 60 8 7 6 16
M TOR 61 8 7 6 17
M  END
$$$$
