gdb 1221	3.3276833	0.9274709	0.8811521	2.5654	77.39	-0.2534	-0.02714	0.22626000000000002	1382.734	0.151284	-422.520699	-422.509892	-422.508948	-422.557476	38.011
 OpenBabel02181911403D

 19 18  0  0  0  0  0  0  0  0999 V2000
   -3.9862    0.6005   -1.0815 C   0  0  0  0  0  0  0  0  0  0  0  0
   -3.0211    1.3642   -0.1679 C   0  0  0  0  0  0  0  0  0  0  0  0
   -3.1200    0.8844    1.2915 C   0  0  0  0  0  0  0  0  0  0  0  0
   -1.6799    1.3636   -0.6698 O   0  0  0  0  0  0  0  0  0  0  0  0
   -0.9718    0.1354   -0.7000 C   0  0  0  0  0  0  0  0  0  0  0  0
   -0.1988   -0.1355    0.5150 C   0  0  0  0  0  0  0  0  0  0  0  0
    0.4601   -0.3587    1.4950 C   0  0  0  0  0  0  0  0  0  0  0  0
   -3.3766    2.8570   -0.1720 C   0  0  0  0  0  0  0  0  0  0  0  0
   -4.4999    3.2816   -0.1172 O   0  0  0  0  0  0  0  0  0  0  0  0
   -3.8773   -0.4827   -0.9745 H   0  0  0  0  0  0  0  0  0  0  0  0
   -5.0120    0.8698   -0.8197 H   0  0  0  0  0  0  0  0  0  0  0  0
   -3.8134    0.8715   -2.1267 H   0  0  0  0  0  0  0  0  0  0  0  0
   -2.8681   -0.1762    1.3742 H   0  0  0  0  0  0  0  0  0  0  0  0
   -2.4376    1.4452    1.9356 H   0  0  0  0  0  0  0  0  0  0  0  0
   -4.1432    1.0275    1.6492 H   0  0  0  0  0  0  0  0  0  0  0  0
   -1.6384   -0.7107   -0.9119 H   0  0  0  0  0  0  0  0  0  0  0  0
   -0.2823    0.2112   -1.5489 H   0  0  0  0  0  0  0  0  0  0  0  0
    1.0385   -0.5574    2.3634 H   0  0  0  0  0  0  0  0  0  0  0  0
   -2.4856    3.5200   -0.2038 H   0  0  0  0  0  0  0  0  0  0  0  0
  1 10  1  0  0  0  0
  1 11  1  0  0  0  0
  1  2  1  0  0  0  0
  2  3  1  0  0  0  0
  3 13  1  0  0  0  0
  3 15  1  0  0  0  0
  3 14  1  0  0  0  0
  4  2  1  0  0  0  0
  5  4  1  0  0  0  0
  5  6  1  0  0  0  0
  6  7  3  0  0  0  0
  7 18  1  0  0  0  0
  8  2  1  0  0  0  0
  8  9  2  0  0  0  0
 12  1  1  0  0  0  0
 16  5  1  0  0  0  0
 17  5  1  0  0  0  0
 19  8  1  0  0  0  0
M TOR 0 0 1 2 12
M TOR 1 0 1 2 13
M TOR 2 0 1 2 14
M TOR 3 0 1 3 4
M TOR 4 0 1 7 8
M TOR 5 0 1 7 18
M TOR 6 1 3 4 5
M TOR 7 1 3 4 15
M TOR 8 1 3 4 16
M TOR 9 2 1 0 9
M TOR 10 2 1 0 10
M TOR 11 2 1 0 11
M TOR 12 2 1 3 4
M TOR 13 2 1 7 8
M TOR 14 2 1 7 18
M TOR 15 3 1 0 9
M TOR 16 3 1 0 10
M TOR 17 3 1 0 11
M TOR 18 3 1 2 12
M TOR 19 3 1 2 13
M TOR 20 3 1 2 14
M TOR 21 3 1 7 8
M TOR 22 3 1 7 18
M TOR 23 3 4 5 6
M TOR 24 4 3 1 7
M TOR 25 4 5 6 17
M TOR 26 6 5 4 15
M TOR 27 6 5 4 16
M TOR 28 7 1 0 9
M TOR 29 7 1 0 10
M TOR 30 7 1 0 11
M TOR 31 7 1 2 12
M TOR 32 7 1 2 13
M TOR 33 7 1 2 14
M  END
$$$$
