
     RDKit          3D

 19 20  0  0  0  0  0  0  0  0999 V2000
    0.0106    2.5495   -0.0147 C   0  0  0  0  0  0  0  0  0  0  0  0
   -0.6429    1.1925    0.0109 C   0  0  0  0  0  0  0  0  0  0  0  0
   -1.7399    0.7668    1.0542 C   0  0  0  0  0  0  0  0  0  0  0  0
   -2.0288   -0.3506    0.0041 C   0  0  0  0  0  0  0  0  0  0  0  0
   -3.2588   -0.9926   -0.1046 O   0  0  0  0  0  0  0  0  0  0  0  0
   -1.6620    0.6892   -1.0772 C   0  0  0  0  0  0  0  0  0  0  0  0
   -0.7459   -1.2041    0.0838 C   0  0  0  0  0  0  0  0  0  0  0  0
    0.2621   -0.0341    0.0895 C   0  0  0  0  0  0  0  0  0  0  0  0
    1.4616   -0.0738    0.1438 O   0  0  0  0  0  0  0  0  0  0  0  0
    0.6187    2.7032    0.8823 H   0  0  0  0  0  0  0  0  0  0  0  0
    0.6773    2.6420   -0.8781 H   0  0  0  0  0  0  0  0  0  0  0  0
   -0.7334    3.3498   -0.0675 H   0  0  0  0  0  0  0  0  0  0  0  0
   -1.4164    0.4794    2.0594 H   0  0  0  0  0  0  0  0  0  0  0  0
   -2.5474    1.5009    1.1034 H   0  0  0  0  0  0  0  0  0  0  0  0
   -3.3144   -1.6698    0.5784 H   0  0  0  0  0  0  0  0  0  0  0  0
   -1.2718    0.3306   -2.0338 H   0  0  0  0  0  0  0  0  0  0  0  0
   -2.4626    1.4152   -1.2360 H   0  0  0  0  0  0  0  0  0  0  0  0
   -0.6657   -1.8042    0.9971 H   0  0  0  0  0  0  0  0  0  0  0  0
   -0.6037   -1.8601   -0.7804 H   0  0  0  0  0  0  0  0  0  0  0  0
  1  2  1  0
  2  3  1  0
  3  4  1  0
  4  5  1  0
  4  6  1  0
  4  7  1  0
  7  8  1  0
  8  9  2  0
  6  2  1  0
  8  2  1  0
  1 10  1  0
  1 11  1  0
  1 12  1  0
  3 13  1  0
  3 14  1  0
  5 15  1  0
  6 16  1  0
  6 17  1  0
  7 18  1  0
  7 19  1  0
M  END
$$$$
