
     RDKit          3D

 19 20  0  0  0  0  0  0  0  0999 V2000
    1.8300    0.5688    0.0106 O   0  0  0  0  0  0  0  0  0  0  0  0
    0.4339    0.8539    0.0946 C   0  0  0  0  0  0  0  0  0  0  0  0
   -0.3130    0.4481   -1.1496 C   0  0  0  0  0  0  0  0  0  0  0  0
   -1.3170   -0.4292   -1.0996 C   0  0  0  0  0  0  0  0  0  0  0  0
   -2.1148   -0.9053   -2.2817 C   0  0  0  0  0  0  0  0  0  0  0  0
   -1.8378   -0.1359   -3.5523 C   0  0  0  0  0  0  0  0  0  0  0  0
   -2.0812    1.2729   -3.5032 O   0  0  0  0  0  0  0  0  0  0  0  0
   -0.7268    0.8234   -3.6244 C   0  0  0  0  0  0  0  0  0  0  0  0
    0.1706    1.0730   -2.4363 C   0  0  0  0  0  0  0  0  0  0  0  0
    1.9166   -0.3841   -0.1009 H   0  0  0  0  0  0  0  0  0  0  0  0
   -0.0198    0.3820    0.9785 H   0  0  0  0  0  0  0  0  0  0  0  0
    0.3787    1.9406    0.2353 H   0  0  0  0  0  0  0  0  0  0  0  0
   -1.6015   -0.8472   -0.1355 H   0  0  0  0  0  0  0  0  0  0  0  0
   -1.9079   -1.9704   -2.4654 H   0  0  0  0  0  0  0  0  0  0  0  0
   -3.1891   -0.8537   -2.0555 H   0  0  0  0  0  0  0  0  0  0  0  0
   -2.1769   -0.6123   -4.4731 H   0  0  0  0  0  0  0  0  0  0  0  0
   -0.2806    1.0290   -4.5983 H   0  0  0  0  0  0  0  0  0  0  0  0
    1.1794    0.7050   -2.6652 H   0  0  0  0  0  0  0  0  0  0  0  0
    0.2886    2.1574   -2.2966 H   0  0  0  0  0  0  0  0  0  0  0  0
  1  2  1  0
  2  3  1  0
  3  4  2  0
  4  5  1  0
  5  6  1  0
  6  7  1  0
  7  8  1  0
  8  9  1  0
  9  3  1  0
  8  6  1  0
  1 10  1  0
  2 11  1  0
  2 12  1  0
  4 13  1  0
  5 14  1  0
  5 15  1  0
  6 16  1  0
  8 17  1  0
  9 18  1  0
  9 19  1  0
M  END
$$$$
