gdb 2802	2.98139	1.2979601	1.0211885	2.4509	76.2	-0.25522	0.07955	0.33477	1207.2344	0.155753	-422.504161	-422.495562	-422.494618	-422.53703	32.912
 OpenBabel02181911413D

 19 21  0  0  1  0  0  0  0  0999 V2000
    1.0941    1.3413    0.1834 C   0  0  0  0  0  0  0  0  0  0  0  0
    0.8672   -0.1558    0.1704 C   0  0  2  0  0  0  0  0  0  0  0  0
    1.8765   -1.0397    0.8412 C   0  0  2  0  0  0  0  0  0  0  0  0
    1.7823   -0.9920   -0.6946 C   0  0  1  0  0  0  0  0  0  0  0  0
    1.3290   -2.4280   -0.6943 C   0  0  1  0  0  0  0  0  0  0  0  0
    0.6951   -3.2955   -1.6849 C   0  0  0  0  0  0  0  0  0  0  0  0
    2.0980   -3.4250   -1.3628 O   0  0  0  0  0  0  0  0  0  0  0  0
    1.3452   -2.4922    0.8591 C   0  0  1  0  0  0  0  0  0  0  0  0
    2.2162   -3.4734    1.3473 O   0  0  0  0  0  0  0  0  0  0  0  0
    0.7141    1.7874    1.1084 H   0  0  0  0  0  0  0  0  0  0  0  0
    2.1607    1.5786    0.1127 H   0  0  0  0  0  0  0  0  0  0  0  0
    0.5869    1.8263   -0.6573 H   0  0  0  0  0  0  0  0  0  0  0  0
   -0.1817   -0.4485    0.2314 H   0  0  0  0  0  0  0  0  0  0  0  0
    2.6583   -0.6648    1.4895 H   0  0  0  0  0  0  0  0  0  0  0  0
    2.4535   -0.5540   -1.4240 H   0  0  0  0  0  0  0  0  0  0  0  0
    0.0700   -4.1251   -1.3582 H   0  0  0  0  0  0  0  0  0  0  0  0
    0.4922   -2.9248   -2.6884 H   0  0  0  0  0  0  0  0  0  0  0  0
    0.3716   -2.6023    1.3547 H   0  0  0  0  0  0  0  0  0  0  0  0
    2.6211   -3.8882    0.5718 H   0  0  0  0  0  0  0  0  0  0  0  0
  1 10  1  0  0  0  0
  2  1  1  0  0  0  0
  2 13  1  1  0  0  0
  2  3  1  0  0  0  0
  3  8  1  0  0  0  0
  3 14  1  1  0  0  0
  4 15  1  6  0  0  0
  4  5  1  0  0  0  0
  4  2  1  0  0  0  0
  4  3  1  0  0  0  0
  5  7  1  6  0  0  0
  5  8  1  0  0  0  0
  6  7  1  0  0  0  0
  6 16  1  0  0  0  0
  6  5  1  0  0  0  0
  8  9  1  0  0  0  0
  8 18  1  1  0  0  0
 11  1  1  0  0  0  0
 12  1  1  0  0  0  0
 17  6  1  0  0  0  0
 19  9  1  0  0  0  0
M TOR 0 0 1 2 3
M TOR 1 0 1 2 7
M TOR 2 0 1 2 13
M TOR 3 0 1 3 4
M TOR 4 0 1 3 14
M TOR 5 1 2 3 4
M TOR 6 1 2 3 14
M TOR 7 1 2 7 4
M TOR 8 1 2 7 8
M TOR 9 1 2 7 17
M TOR 10 1 3 2 7
M TOR 11 1 3 2 13
M TOR 12 1 3 4 5
M TOR 13 1 3 4 6
M TOR 14 1 3 4 7
M TOR 15 2 1 0 9
M TOR 16 2 1 0 10
M TOR 17 2 1 0 11
M TOR 18 2 3 1 12
M TOR 19 2 3 4 5
M TOR 20 2 3 4 6
M TOR 21 2 3 4 7
M TOR 22 2 7 4 5
M TOR 23 2 7 4 6
M TOR 24 2 7 8 18
M TOR 25 3 1 0 9
M TOR 26 3 1 0 10
M TOR 27 3 1 0 11
M TOR 28 3 2 7 8
M TOR 29 3 2 7 17
M TOR 30 3 4 5 6
M TOR 31 3 4 5 15
M TOR 32 3 4 5 16
M TOR 33 3 4 7 8
M TOR 34 3 4 7 17
M TOR 35 4 3 1 12
M TOR 36 4 3 2 13
M TOR 37 4 6 5 15
M TOR 38 4 6 5 16
M TOR 39 4 7 2 13
M TOR 40 4 7 8 18
M TOR 41 5 4 3 14
M TOR 42 5 4 7 8
M TOR 43 5 4 7 17
M TOR 44 5 6 4 7
M TOR 45 6 4 3 14
M TOR 46 6 4 7 8
M TOR 47 6 4 7 17
M TOR 48 7 2 1 12
M TOR 49 7 2 3 14
M TOR 50 7 4 3 14
M TOR 51 7 4 5 15
M TOR 52 7 4 5 16
M TOR 53 8 7 2 13
M  END
$$$$
