
     RDKit          3D

 19 20  0  0  0  0  0  0  0  0999 V2000
    1.1190    0.4807   -0.6596 O   0  0  0  0  0  0  0  0  0  0  0  0
   -0.0591    0.0336   -0.0192 C   0  0  0  0  0  0  0  0  0  0  0  0
   -1.1840   -0.2980   -1.0214 C   0  0  0  0  0  0  0  0  0  0  0  0
   -2.4554   -0.7644   -0.3553 C   0  0  0  0  0  0  0  0  0  0  0  0
   -3.5094   -0.0037   -0.6477 C   0  0  0  0  0  0  0  0  0  0  0  0
   -3.1695    1.1150   -1.5986 C   0  0  0  0  0  0  0  0  0  0  0  0
   -1.6635    0.9310   -1.8234 C   0  0  0  0  0  0  0  0  0  0  0  0
   -0.9694    1.4238   -3.0161 C   0  0  0  0  0  0  0  0  0  0  0  0
   -0.8530    2.1266   -1.7678 O   0  0  0  0  0  0  0  0  0  0  0  0
    0.8893    1.3445   -1.0274 H   0  0  0  0  0  0  0  0  0  0  0  0
    0.2042   -0.8731    0.5367 H   0  0  0  0  0  0  0  0  0  0  0  0
   -0.4292    0.7702    0.7099 H   0  0  0  0  0  0  0  0  0  0  0  0
   -0.7869   -1.0622   -1.7033 H   0  0  0  0  0  0  0  0  0  0  0  0
   -2.4723   -1.6265    0.3027 H   0  0  0  0  0  0  0  0  0  0  0  0
   -4.5138   -0.1559   -0.2691 H   0  0  0  0  0  0  0  0  0  0  0  0
   -3.7354    1.0455   -2.5367 H   0  0  0  0  0  0  0  0  0  0  0  0
   -3.3739    2.1092   -1.1828 H   0  0  0  0  0  0  0  0  0  0  0  0
   -0.0602    0.9258   -3.3496 H   0  0  0  0  0  0  0  0  0  0  0  0
   -1.5251    1.9537   -3.7885 H   0  0  0  0  0  0  0  0  0  0  0  0
  1  2  1  0
  2  3  1  0
  3  4  1  0
  4  5  2  0
  5  6  1  0
  6  7  1  0
  7  8  1  0
  8  9  1  0
  7  3  1  0
  9  7  1  0
  1 10  1  0
  2 11  1  0
  2 12  1  0
  3 13  1  0
  4 14  1  0
  5 15  1  0
  6 16  1  0
  6 17  1  0
  8 18  1  0
  8 19  1  0
M  END
$$$$
