gdb 3478	2.1741034	1.8178991	1.4179303	0.8391	75.13	-0.24857	-0.00388	0.24469000000000002	1012.3454	0.157138	-422.552526	-422.54417	-422.543226	-422.585319	32.038
 OpenBabel02181911413D

 19 20  0  0  1  0  0  0  0  0999 V2000
    0.1018    1.2349   -3.2502 C   0  0  0  0  0  0  0  0  0  0  0  0
    0.3371    0.0532   -2.3247 C   0  0  2  0  0  0  0  0  0  0  0  0
    1.4660   -0.9135   -2.7683 C   0  0  0  0  0  0  0  0  0  0  0  0
    0.5347   -1.9829   -3.0359 O   0  0  0  0  0  0  0  0  0  0  0  0
   -0.5602   -1.2018   -2.4890 C   0  0  1  0  0  0  0  0  0  0  0  0
   -0.9285   -1.5987   -1.0853 C   0  0  0  0  0  0  0  0  0  0  0  0
   -0.4663   -0.7255   -0.1899 C   0  0  0  0  0  0  0  0  0  0  0  0
    0.3005    0.4209   -0.8135 C   0  0  1  0  0  0  0  0  0  0  0  0
    1.5676    0.6576   -0.2121 O   0  0  0  0  0  0  0  0  0  0  0  0
   -0.8539    1.7237   -3.0294 H   0  0  0  0  0  0  0  0  0  0  0  0
    0.8941    1.9822   -3.1285 H   0  0  0  0  0  0  0  0  0  0  0  0
    0.0869    0.9251   -4.3002 H   0  0  0  0  0  0  0  0  0  0  0  0
    2.0095   -0.6134   -3.6716 H   0  0  0  0  0  0  0  0  0  0  0  0
    2.1996   -1.1864   -1.9982 H   0  0  0  0  0  0  0  0  0  0  0  0
   -1.4052   -1.1649   -3.1862 H   0  0  0  0  0  0  0  0  0  0  0  0
   -1.4875   -2.5007   -0.8614 H   0  0  0  0  0  0  0  0  0  0  0  0
   -0.5915   -0.7919    0.8862 H   0  0  0  0  0  0  0  0  0  0  0  0
   -0.2318    1.3714   -0.6789 H   0  0  0  0  0  0  0  0  0  0  0  0
    2.0102   -0.1924   -0.1136 H   0  0  0  0  0  0  0  0  0  0  0  0
  1 11  1  0  0  0  0
  1 10  1  0  0  0  0
  2  1  1  6  0  0  0
  2  8  1  0  0  0  0
  3  2  1  0  0  0  0
  3 14  1  0  0  0  0
  4  3  1  0  0  0  0
  4  5  1  0  0  0  0
  5 15  1  6  0  0  0
  5  2  1  0  0  0  0
  5  6  1  0  0  0  0
  6 16  1  0  0  0  0
  6  7  2  0  0  0  0
  7 17  1  0  0  0  0
  8 18  1  1  0  0  0
  8  9  1  0  0  0  0
  8  7  1  0  0  0  0
  9 19  1  0  0  0  0
 12  1  1  0  0  0  0
 13  3  1  0  0  0  0
M TOR 0 0 1 2 3
M TOR 1 0 1 2 12
M TOR 2 0 1 2 13
M TOR 3 0 1 4 3
M TOR 4 0 1 4 5
M TOR 5 0 1 4 14
M TOR 6 0 1 7 6
M TOR 7 0 1 7 8
M TOR 8 0 1 7 17
M TOR 9 1 2 3 4
M TOR 10 1 4 5 6
M TOR 11 1 4 5 15
M TOR 12 1 7 6 5
M TOR 13 1 7 6 16
M TOR 14 1 7 8 18
M TOR 15 2 1 0 9
M TOR 16 2 1 0 10
M TOR 17 2 1 0 11
M TOR 18 2 1 4 5
M TOR 19 2 1 4 14
M TOR 20 2 1 7 6
M TOR 21 2 1 7 8
M TOR 22 2 1 7 17
M TOR 23 2 3 4 5
M TOR 24 2 3 4 14
M TOR 25 3 2 1 7
M TOR 26 3 4 1 7
M TOR 27 3 4 5 6
M TOR 28 3 4 5 15
M TOR 29 4 1 0 9
M TOR 30 4 1 0 10
M TOR 31 4 1 0 11
M TOR 32 4 1 2 12
M TOR 33 4 1 2 13
M TOR 34 4 1 7 6
M TOR 35 4 1 7 8
M TOR 36 4 1 7 17
M TOR 37 4 3 2 12
M TOR 38 4 3 2 13
M TOR 39 4 5 6 7
M TOR 40 4 5 6 16
M TOR 41 5 4 1 7
M TOR 42 5 6 7 8
M TOR 43 5 6 7 17
M TOR 44 6 5 4 14
M TOR 45 6 7 8 18
M TOR 46 7 1 0 9
M TOR 47 7 1 0 10
M TOR 48 7 1 0 11
M TOR 49 7 1 2 12
M TOR 50 7 1 2 13
M TOR 51 7 1 4 14
M TOR 52 7 6 5 15
M TOR 53 8 7 6 16
M  END
$$$$
