
     RDKit          3D

 19 19  0  0  0  0  0  0  0  0999 V2000
    2.1106   -0.3490    2.2306 C   0  0  0  0  0  0  0  0  0  0  0  0
    1.6824   -0.0731    0.7763 C   0  0  0  0  0  0  0  0  0  0  0  0
    2.0043    1.3187    0.3205 C   0  0  0  0  0  0  0  0  0  0  0  0
    1.1407    2.3208    0.1101 C   0  0  0  0  0  0  0  0  0  0  0  0
    1.7942    3.6101   -0.3276 C   0  0  0  0  0  0  0  0  0  0  0  0
    3.2662    3.2793   -0.1006 C   0  0  0  0  0  0  0  0  0  0  0  0
    4.1758    4.0345    0.1305 O   0  0  0  0  0  0  0  0  0  0  0  0
    3.4130    1.7521   -0.0405 C   0  0  0  0  0  0  0  0  0  0  0  0
    4.4347    1.3637    0.8479 O   0  0  0  0  0  0  0  0  0  0  0  0
    1.8803   -1.3825    2.5073 H   0  0  0  0  0  0  0  0  0  0  0  0
    3.1816   -0.1803    2.3560 H   0  0  0  0  0  0  0  0  0  0  0  0
    1.5798    0.3146    2.9204 H   0  0  0  0  0  0  0  0  0  0  0  0
    2.1828   -0.7937    0.1157 H   0  0  0  0  0  0  0  0  0  0  0  0
    0.6045   -0.2437    0.6712 H   0  0  0  0  0  0  0  0  0  0  0  0
    0.0658    2.2313    0.2274 H   0  0  0  0  0  0  0  0  0  0  0  0
    1.6196    3.8441   -1.3880 H   0  0  0  0  0  0  0  0  0  0  0  0
    1.4972    4.4974    0.2420 H   0  0  0  0  0  0  0  0  0  0  0  0
    3.6489    1.3884   -1.0602 H   0  0  0  0  0  0  0  0  0  0  0  0
    5.0102    2.1378    0.9370 H   0  0  0  0  0  0  0  0  0  0  0  0
  1  2  1  0
  2  3  1  0
  3  4  2  0
  4  5  1  0
  5  6  1  0
  6  7  2  0
  6  8  1  0
  8  9  1  0
  8  3  1  0
  1 10  1  0
  1 11  1  0
  1 12  1  0
  2 13  1  0
  2 14  1  0
  4 15  1  0
  5 16  1  0
  5 17  1  0
  8 18  1  0
  9 19  1  0
M  END
$$$$
