
     RDKit          3D

 19 20  0  0  0  0  0  0  0  0999 V2000
    0.1801    1.3616   -0.0134 O   0  0  0  0  0  0  0  0  0  0  0  0
    0.0502   -0.0532   -0.0124 C   0  0  0  0  0  0  0  0  0  0  0  0
    0.1434   -0.5686   -1.4755 C   0  0  0  0  0  0  0  0  0  0  0  0
   -1.4266   -0.6445   -1.5184 C   0  0  0  0  0  0  0  0  0  0  0  0
   -1.3848   -0.5557   -0.0085 C   0  0  0  0  0  0  0  0  0  0  0  0
   -1.9781   -1.0667    1.0600 C   0  0  0  0  0  0  0  0  0  0  0  0
   -1.2480   -1.0166    2.3820 C   0  0  0  0  0  0  0  0  0  0  0  0
    0.0059   -0.3460    2.3275 O   0  0  0  0  0  0  0  0  0  0  0  0
    0.7860   -0.6653    1.1696 C   0  0  0  0  0  0  0  0  0  0  0  0
   -0.0901    1.6511    0.8673 H   0  0  0  0  0  0  0  0  0  0  0  0
    0.6260    0.1196   -2.1710 H   0  0  0  0  0  0  0  0  0  0  0  0
    0.6079   -1.5549   -1.5447 H   0  0  0  0  0  0  0  0  0  0  0  0
   -1.8557    0.2454   -1.9884 H   0  0  0  0  0  0  0  0  0  0  0  0
   -1.8834   -1.5334   -1.9606 H   0  0  0  0  0  0  0  0  0  0  0  0
   -2.9239   -1.6029    1.0298 H   0  0  0  0  0  0  0  0  0  0  0  0
   -1.8302   -0.4902    3.1477 H   0  0  0  0  0  0  0  0  0  0  0  0
   -1.1052   -2.0505    2.7468 H   0  0  0  0  0  0  0  0  0  0  0  0
    0.9021   -1.7536    1.0577 H   0  0  0  0  0  0  0  0  0  0  0  0
    1.7673   -0.2107    1.3317 H   0  0  0  0  0  0  0  0  0  0  0  0
  1  2  1  0
  2  3  1  0
  3  4  1  0
  4  5  1  0
  5  6  2  0
  6  7  1  0
  7  8  1  0
  8  9  1  0
  5  2  1  0
  9  2  1  0
  1 10  1  0
  3 11  1  0
  3 12  1  0
  4 13  1  0
  4 14  1  0
  6 15  1  0
  7 16  1  0
  7 17  1  0
  9 18  1  0
  9 19  1  0
M  END
$$$$
