gdb 5992	4.4902091	0.8659169	0.8403903	0.4666	76.82	-0.22746	0.00498	0.23244	1420.9877	0.15714	-422.510252	-422.501789	-422.500845	-422.544141	31.478
 OpenBabel02181911423D

 19 20  0  0  1  0  0  0  0  0999 V2000
    1.6688    0.8564   -0.0558 O   0  0  0  0  0  0  0  0  0  0  0  0
    0.3250    0.5155    0.2436 C   0  0  0  0  0  0  0  0  0  0  0  0
   -0.5352    0.9577   -0.9451 C   0  0  0  0  0  0  0  0  0  0  0  0
   -1.9890    0.7209   -0.7225 C   0  0  0  0  0  0  0  0  0  0  0  0
   -2.8657   -0.1270   -1.2702 C   0  0  0  0  0  0  0  0  0  0  0  0
   -4.1571    0.2209   -0.5103 C   0  0  2  0  0  0  0  0  0  0  0  0
   -4.1520    1.7781   -0.5788 C   0  0  0  0  0  0  0  0  0  0  0  0
   -2.9022    1.4550    0.2931 C   0  0  1  0  0  0  0  0  0  0  0  0
   -3.6658    0.3453    0.8698 O   0  0  0  0  0  0  0  0  0  0  0  0
    2.2239    0.5571    0.6700 H   0  0  0  0  0  0  0  0  0  0  0  0
    0.2039   -0.5675    0.3970 H   0  0  0  0  0  0  0  0  0  0  0  0
   -0.0208    1.0160    1.1620 H   0  0  0  0  0  0  0  0  0  0  0  0
   -0.3401    2.0253   -1.1140 H   0  0  0  0  0  0  0  0  0  0  0  0
   -0.1933    0.4266   -1.8395 H   0  0  0  0  0  0  0  0  0  0  0  0
   -2.7382   -0.8661   -2.0478 H   0  0  0  0  0  0  0  0  0  0  0  0
   -5.0484   -0.3946   -0.6227 H   0  0  0  0  0  0  0  0  0  0  0  0
   -4.0107    2.2618   -1.5476 H   0  0  0  0  0  0  0  0  0  0  0  0
   -4.9617    2.2315   -0.0019 H   0  0  0  0  0  0  0  0  0  0  0  0
   -2.4713    2.1417    1.0217 H   0  0  0  0  0  0  0  0  0  0  0  0
  1  2  1  0  0  0  0
  1 10  1  0  0  0  0
  2 11  1  0  0  0  0
  2 12  1  0  0  0  0
  3  4  1  0  0  0  0
  3  2  1  0  0  0  0
  4  8  1  0  0  0  0
  5  4  2  0  0  0  0
  5  6  1  0  0  0  0
  6 16  1  6  0  0  0
  6  9  1  0  0  0  0
  7  6  1  0  0  0  0
  7 18  1  0  0  0  0
  7  8  1  0  0  0  0
  8  9  1  0  0  0  0
  8 19  1  1  0  0  0
 13  3  1  0  0  0  0
 14  3  1  0  0  0  0
 15  5  1  0  0  0  0
 17  7  1  0  0  0  0
M TOR 0 0 1 2 3
M TOR 1 0 1 2 12
M TOR 2 0 1 2 13
M TOR 3 1 2 3 4
M TOR 4 1 2 3 7
M TOR 5 2 1 0 9
M TOR 6 2 3 4 5
M TOR 7 2 3 4 14
M TOR 8 2 3 7 6
M TOR 9 2 3 7 8
M TOR 10 2 3 7 18
M TOR 11 3 2 1 10
M TOR 12 3 2 1 11
M TOR 13 3 4 5 6
M TOR 14 3 4 5 8
M TOR 15 3 4 5 15
M TOR 16 3 7 6 5
M TOR 17 3 7 6 16
M TOR 18 3 7 6 17
M TOR 19 3 7 8 5
M TOR 20 4 3 2 12
M TOR 21 4 3 2 13
M TOR 22 4 3 7 6
M TOR 23 4 3 7 8
M TOR 24 4 3 7 18
M TOR 25 4 5 6 7
M TOR 26 4 5 6 16
M TOR 27 4 5 6 17
M TOR 28 4 5 8 7
M TOR 29 5 4 3 7
M TOR 30 5 6 7 8
M TOR 31 5 6 7 18
M TOR 32 5 8 7 18
M TOR 33 6 5 4 14
M TOR 34 7 3 2 12
M TOR 35 7 3 2 13
M TOR 36 7 3 4 14
M TOR 37 7 6 5 15
M TOR 38 7 8 5 15
M TOR 39 8 5 4 14
M TOR 40 8 5 6 16
M TOR 41 8 5 6 17
M TOR 42 8 7 6 16
M TOR 43 8 7 6 17
M  END
$$$$
