
     RDKit          3D

 19 21  0  0  0  0  0  0  0  0999 V2000
    0.0385   -1.6528    1.3253 C   0  0  0  0  0  0  0  0  0  0  0  0
    0.8720   -2.3670    0.2831 C   0  0  0  0  0  0  0  0  0  0  0  0
    0.1307   -3.6277   -0.1971 C   0  0  0  0  0  0  0  0  0  0  0  0
   -1.0789   -2.7360   -0.6610 C   0  0  0  0  0  0  0  0  0  0  0  0
   -0.3230   -1.5183   -0.1251 C   0  0  0  0  0  0  0  0  0  0  0  0
   -0.1792   -0.2927   -0.7637 O   0  0  0  0  0  0  0  0  0  0  0  0
    1.1118   -0.2026   -1.3526 C   0  0  0  0  0  0  0  0  0  0  0  0
    2.1494   -0.4788   -0.4520 O   0  0  0  0  0  0  0  0  0  0  0  0
    2.2344   -1.8748   -0.1201 C   0  0  0  0  0  0  0  0  0  0  0  0
   -0.5827   -2.2274    2.0083 H   0  0  0  0  0  0  0  0  0  0  0  0
    0.4863   -0.7591    1.7447 H   0  0  0  0  0  0  0  0  0  0  0  0
    0.6254   -4.1235   -1.0361 H   0  0  0  0  0  0  0  0  0  0  0  0
   -0.0802   -4.3746    0.5744 H   0  0  0  0  0  0  0  0  0  0  0  0
   -1.1751   -2.7189   -1.7489 H   0  0  0  0  0  0  0  0  0  0  0  0
   -2.0612   -2.9370   -0.2224 H   0  0  0  0  0  0  0  0  0  0  0  0
    1.1746   -0.8850   -2.2196 H   0  0  0  0  0  0  0  0  0  0  0  0
    1.2286    0.8337   -1.6734 H   0  0  0  0  0  0  0  0  0  0  0  0
    2.5924   -2.4401   -0.9964 H   0  0  0  0  0  0  0  0  0  0  0  0
    2.9944   -1.9426    0.6640 H   0  0  0  0  0  0  0  0  0  0  0  0
  1  2  1  0
  2  3  1  0
  3  4  1  0
  4  5  1  0
  5  6  1  0
  6  7  1  0
  7  8  1  0
  8  9  1  0
  5  1  1  0
  5  2  1  0
  9  2  1  0
  1 10  1  0
  1 11  1  0
  3 12  1  0
  3 13  1  0
  4 14  1  0
  4 15  1  0
  7 16  1  0
  7 17  1  0
  9 18  1  0
  9 19  1  0
M  END
$$$$
