gdb 3226	2.3700248	2.0467067	1.5310982	1.7009	72.93	-0.23193	0.0931	0.32503	944.7693	0.158892	-422.568319	-422.56085	-422.559906	-422.599672	30.279
 OpenBabel02181911413D

 19 21  0  0  1  0  0  0  0  0999 V2000
    1.8355   -2.3059   -0.6193 C   0  0  0  0  0  0  0  0  0  0  0  0
    0.8172   -1.3912   -1.2377 C   0  0  2  0  0  0  0  0  0  0  0  0
   -0.1768   -1.7861   -2.3341 C   0  0  1  0  0  0  0  0  0  0  0  0
   -1.4250   -0.9264   -2.1558 C   0  0  0  0  0  0  0  0  0  0  0  0
   -0.6741    0.3058   -1.6219 C   0  0  2  0  0  0  0  0  0  0  0  0
    0.3635    0.5213   -2.6014 O   0  0  0  0  0  0  0  0  0  0  0  0
    0.9220   -0.7875   -2.6197 C   0  0  1  0  0  0  0  0  0  0  0  0
    0.1408   -0.2695   -0.4386 C   0  0  2  0  0  0  0  0  0  0  0  0
    1.0505    0.6471    0.1258 O   0  0  0  0  0  0  0  0  0  0  0  0
    1.3756   -2.9846    0.1084 H   0  0  0  0  0  0  0  0  0  0  0  0
    2.3354   -2.9214   -1.3743 H   0  0  0  0  0  0  0  0  0  0  0  0
    2.5994   -1.7220   -0.0957 H   0  0  0  0  0  0  0  0  0  0  0  0
   -0.1909   -2.7743   -2.7752 H   0  0  0  0  0  0  0  0  0  0  0  0
   -1.9432   -0.7234   -3.0973 H   0  0  0  0  0  0  0  0  0  0  0  0
   -2.1379   -1.3262   -1.4291 H   0  0  0  0  0  0  0  0  0  0  0  0
   -1.2213    1.2304   -1.4520 H   0  0  0  0  0  0  0  0  0  0  0  0
    1.7409   -0.9202   -3.3127 H   0  0  0  0  0  0  0  0  0  0  0  0
   -0.4938   -0.6341    0.3741 H   0  0  0  0  0  0  0  0  0  0  0  0
    1.4752    1.0886   -0.6216 H   0  0  0  0  0  0  0  0  0  0  0  0
  1 12  1  0  0  0  0
  1 10  1  0  0  0  0
  2  1  1  1  0  0  0
  2  8  1  0  0  0  0
  3 13  1  6  0  0  0
  3  4  1  0  0  0  0
  3  2  1  0  0  0  0
  4  5  1  0  0  0  0
  4 15  1  0  0  0  0
  5 16  1  1  0  0  0
  5  8  1  0  0  0  0
  6  5  1  0  0  0  0
  7 17  1  6  0  0  0
  7  6  1  0  0  0  0
  7  3  1  0  0  0  0
  7  2  1  0  0  0  0
  8  9  1  0  0  0  0
  8 18  1  1  0  0  0
 11  1  1  0  0  0  0
 14  4  1  0  0  0  0
 19  9  1  0  0  0  0
M TOR 0 0 1 2 3
M TOR 1 0 1 2 6
M TOR 2 0 1 2 12
M TOR 3 0 1 6 5
M TOR 4 0 1 6 16
M TOR 5 0 1 7 4
M TOR 6 0 1 7 8
M TOR 7 0 1 7 17
M TOR 8 1 2 3 4
M TOR 9 1 2 3 13
M TOR 10 1 2 3 14
M TOR 11 1 2 6 5
M TOR 12 1 2 6 16
M TOR 13 1 6 2 3
M TOR 14 1 6 2 12
M TOR 15 1 6 5 4
M TOR 16 1 7 4 3
M TOR 17 1 7 4 5
M TOR 18 1 7 4 15
M TOR 19 1 7 8 18
M TOR 20 2 1 0 9
M TOR 21 2 1 0 10
M TOR 22 2 1 0 11
M TOR 23 2 1 7 4
M TOR 24 2 1 7 8
M TOR 25 2 1 7 17
M TOR 26 2 3 4 5
M TOR 27 2 3 4 7
M TOR 28 2 3 4 15
M TOR 29 2 6 1 7
M TOR 30 2 6 5 4
M TOR 31 3 2 1 7
M TOR 32 3 2 6 5
M TOR 33 3 2 6 16
M TOR 34 3 4 5 6
M TOR 35 3 4 7 8
M TOR 36 3 4 7 17
M TOR 37 4 3 2 6
M TOR 38 4 3 2 12
M TOR 39 4 5 6 16
M TOR 40 4 7 1 6
M TOR 41 4 7 8 18
M TOR 42 5 4 3 13
M TOR 43 5 4 3 14
M TOR 44 5 4 7 8
M TOR 45 5 4 7 17
M TOR 46 5 6 1 7
M TOR 47 5 6 2 12
M TOR 48 6 1 0 9
M TOR 49 6 1 0 10
M TOR 50 6 1 0 11
M TOR 51 6 1 7 8
M TOR 52 6 1 7 17
M TOR 53 6 2 3 13
M TOR 54 6 2 3 14
M TOR 55 6 5 4 7
M TOR 56 6 5 4 15
M TOR 57 7 1 0 9
M TOR 58 7 1 0 10
M TOR 59 7 1 0 11
M TOR 60 7 1 2 12
M TOR 61 7 1 6 16
M TOR 62 7 4 3 13
M TOR 63 7 4 3 14
M TOR 64 8 7 4 15
M  END
$$$$
