gdb 4541	2.0809024	1.7001047	1.0064094	4.9962	79.14	-0.25708	-0.03667	0.22040999999999997	1193.9827	0.157728	-422.600194	-422.591695	-422.590751	-422.63337	31.941
 OpenBabel02181911413D

 19 19  0  0  1  0  0  0  0  0999 V2000
   -1.7554    2.9693   -1.2944 C   0  0  0  0  0  0  0  0  0  0  0  0
   -1.4383    1.4806   -1.2383 C   0  0  2  0  0  0  0  0  0  0  0  0
   -2.6770    0.5964   -1.4187 C   0  0  0  0  0  0  0  0  0  0  0  0
   -2.3455   -0.7826   -1.9892 C   0  0  0  0  0  0  0  0  0  0  0  0
   -1.1941   -1.5039   -1.3596 C   0  0  0  0  0  0  0  0  0  0  0  0
   -0.3504   -1.1196   -0.3957 C   0  0  0  0  0  0  0  0  0  0  0  0
   -0.2890    0.1045    0.4486 C   0  0  0  0  0  0  0  0  0  0  0  0
    0.2768    0.0703    1.5140 O   0  0  0  0  0  0  0  0  0  0  0  0
   -0.8441    1.2749    0.0572 O   0  0  0  0  0  0  0  0  0  0  0  0
   -2.5179    3.2264   -0.5527 H   0  0  0  0  0  0  0  0  0  0  0  0
   -0.8595    3.5576   -1.0825 H   0  0  0  0  0  0  0  0  0  0  0  0
   -2.1280    3.2405   -2.2864 H   0  0  0  0  0  0  0  0  0  0  0  0
   -0.6911    1.2363   -2.0057 H   0  0  0  0  0  0  0  0  0  0  0  0
   -3.1689    0.5100   -0.4434 H   0  0  0  0  0  0  0  0  0  0  0  0
   -3.3878    1.0933   -2.0873 H   0  0  0  0  0  0  0  0  0  0  0  0
   -3.2302   -1.4324   -1.9428 H   0  0  0  0  0  0  0  0  0  0  0  0
   -2.1248   -0.6929   -3.0640 H   0  0  0  0  0  0  0  0  0  0  0  0
   -1.0301   -2.5022   -1.7643 H   0  0  0  0  0  0  0  0  0  0  0  0
    0.4017   -1.8282   -0.0633 H   0  0  0  0  0  0  0  0  0  0  0  0
  1  2  1  0  0  0  0
  1 11  1  0  0  0  0
  1 10  1  0  0  0  0
  2 13  1  6  0  0  0
  2  9  1  0  0  0  0
  3  2  1  0  0  0  0
  3 14  1  0  0  0  0
  4 16  1  0  0  0  0
  4  3  1  0  0  0  0
  4  5  1  0  0  0  0
  5  6  2  0  0  0  0
  6 19  1  0  0  0  0
  6  7  1  0  0  0  0
  7  8  2  0  0  0  0
  9  7  1  0  0  0  0
 12  1  1  0  0  0  0
 15  3  1  0  0  0  0
 17  4  1  0  0  0  0
 18  5  1  0  0  0  0
M TOR 0 0 1 2 3
M TOR 1 0 1 2 13
M TOR 2 0 1 2 14
M TOR 3 0 1 8 6
M TOR 4 1 2 3 4
M TOR 5 1 2 3 15
M TOR 6 1 2 3 16
M TOR 7 1 8 6 5
M TOR 8 1 8 6 7
M TOR 9 2 1 0 9
M TOR 10 2 1 0 10
M TOR 11 2 1 0 11
M TOR 12 2 1 8 6
M TOR 13 2 3 4 5
M TOR 14 2 3 4 17
M TOR 15 3 2 1 8
M TOR 16 3 2 1 12
M TOR 17 3 4 5 6
M TOR 18 3 4 5 18
M TOR 19 4 3 2 13
M TOR 20 4 3 2 14
M TOR 21 4 5 6 7
M TOR 22 4 5 6 8
M TOR 23 5 4 3 15
M TOR 24 5 4 3 16
M TOR 25 6 5 4 17
M TOR 26 6 8 1 12
M TOR 27 7 6 5 18
M TOR 28 8 1 0 9
M TOR 29 8 1 0 10
M TOR 30 8 1 0 11
M TOR 31 8 1 2 13
M TOR 32 8 1 2 14
M TOR 33 8 6 5 18
M  END
$$$$
