
     RDKit          3D

 19 20  0  0  0  0  0  0  0  0999 V2000
    0.0742   -1.1673    0.1940 O   0  0  0  0  0  0  0  0  0  0  0  0
    0.3077   -0.0092   -0.0359 C   0  0  0  0  0  0  0  0  0  0  0  0
   -0.3210    0.8002   -1.1461 C   0  0  0  0  0  0  0  0  0  0  0  0
   -1.0516    2.0481   -0.6024 C   0  0  0  0  0  0  0  0  0  0  0  0
   -1.6062    2.9132   -1.6973 C   0  0  0  0  0  0  0  0  0  0  0  0
   -2.9416    2.6768   -2.3835 C   0  0  0  0  0  0  0  0  0  0  0  0
   -2.6683    3.9900   -1.7175 C   0  0  0  0  0  0  0  0  0  0  0  0
   -1.9085    4.8423   -2.5771 O   0  0  0  0  0  0  0  0  0  0  0  0
   -0.8047    3.8985   -2.5516 C   0  0  0  0  0  0  0  0  0  0  0  0
    1.0295    0.5640    0.5941 H   0  0  0  0  0  0  0  0  0  0  0  0
    0.4864    1.1240   -1.8188 H   0  0  0  0  0  0  0  0  0  0  0  0
   -1.0007    0.1585   -1.7130 H   0  0  0  0  0  0  0  0  0  0  0  0
   -1.8661    1.7277    0.0582 H   0  0  0  0  0  0  0  0  0  0  0  0
   -0.3600    2.6339    0.0182 H   0  0  0  0  0  0  0  0  0  0  0  0
   -3.0206    2.6354   -3.4666 H   0  0  0  0  0  0  0  0  0  0  0  0
   -3.6084    2.0087   -1.8455 H   0  0  0  0  0  0  0  0  0  0  0  0
   -3.2711    4.4516   -0.9434 H   0  0  0  0  0  0  0  0  0  0  0  0
   -0.5005    3.5837   -3.5571 H   0  0  0  0  0  0  0  0  0  0  0  0
    0.0548    4.3296   -2.0229 H   0  0  0  0  0  0  0  0  0  0  0  0
  1  2  2  0
  2  3  1  0
  3  4  1  0
  4  5  1  0
  5  6  1  0
  6  7  1  0
  7  8  1  0
  8  9  1  0
  7  5  1  0
  9  5  1  0
  2 10  1  0
  3 11  1  0
  3 12  1  0
  4 13  1  0
  4 14  1  0
  6 15  1  0
  6 16  1  0
  7 17  1  0
  9 18  1  0
  9 19  1  0
M  END
$$$$
