
     RDKit          3D

 19 19  0  0  0  0  0  0  0  0999 V2000
   -3.0324    0.3643    2.4412 C   0  0  0  0  0  0  0  0  0  0  0  0
   -1.9588   -0.6645    2.0985 C   0  0  0  0  0  0  0  0  0  0  0  0
   -1.5000   -1.3585    3.2964 O   0  0  0  0  0  0  0  0  0  0  0  0
   -0.1369   -0.9385    3.0930 C   0  0  0  0  0  0  0  0  0  0  0  0
   -0.5179   -0.0958    1.8597 C   0  0  0  0  0  0  0  0  0  0  0  0
    0.1938   -0.3985    0.5491 C   0  0  0  0  0  0  0  0  0  0  0  0
    1.5201    0.1122    0.5423 O   0  0  0  0  0  0  0  0  0  0  0  0
   -2.4423   -1.6066    1.0899 C   0  0  0  0  0  0  0  0  0  0  0  0
   -2.8609   -2.3715    0.2620 C   0  0  0  0  0  0  0  0  0  0  0  0
   -2.6604    1.0467    3.2102 H   0  0  0  0  0  0  0  0  0  0  0  0
   -3.3081    0.9406    1.5526 H   0  0  0  0  0  0  0  0  0  0  0  0
   -3.9267   -0.1385    2.8191 H   0  0  0  0  0  0  0  0  0  0  0  0
    0.2569   -0.3962    3.9597 H   0  0  0  0  0  0  0  0  0  0  0  0
    0.5224   -1.7930    2.8797 H   0  0  0  0  0  0  0  0  0  0  0  0
   -0.4775    0.9802    2.0451 H   0  0  0  0  0  0  0  0  0  0  0  0
    0.1746   -1.4783    0.3454 H   0  0  0  0  0  0  0  0  0  0  0  0
   -0.3235    0.0946   -0.2803 H   0  0  0  0  0  0  0  0  0  0  0  0
    2.0460   -0.4187    1.1487 H   0  0  0  0  0  0  0  0  0  0  0  0
   -3.2258   -3.0538   -0.4659 H   0  0  0  0  0  0  0  0  0  0  0  0
  1  2  1  0
  2  3  1  0
  3  4  1  0
  4  5  1  0
  5  6  1  0
  6  7  1  0
  2  8  1  0
  8  9  3  0
  5  2  1  0
  1 10  1  0
  1 11  1  0
  1 12  1  0
  4 13  1  0
  4 14  1  0
  5 15  1  0
  6 16  1  0
  6 17  1  0
  7 18  1  0
  9 19  1  0
M  END
$$$$
