
     RDKit          3D

 19 20  0  0  0  0  0  0  0  0999 V2000
    2.6833    0.6616   -3.9309 O   0  0  0  0  0  0  0  0  0  0  0  0
    2.6301    0.5150   -2.5427 C   0  0  0  0  0  0  0  0  0  0  0  0
    2.4176   -0.8508   -1.9391 C   0  0  0  0  0  0  0  0  0  0  0  0
    1.2904    0.1668   -1.9668 C   0  0  0  0  0  0  0  0  0  0  0  0
    0.8010    0.8129   -0.7127 C   0  0  0  0  0  0  0  0  0  0  0  0
   -0.3755    1.7283   -0.7133 C   0  0  0  0  0  0  0  0  0  0  0  0
   -0.5190    0.3412   -0.0970 C   0  0  0  0  0  0  0  0  0  0  0  0
   -0.5954    0.2290    1.3732 C   0  0  0  0  0  0  0  0  0  0  0  0
   -1.2079   -0.6161    1.9777 O   0  0  0  0  0  0  0  0  0  0  0  0
    3.5353    0.3287   -4.2325 H   0  0  0  0  0  0  0  0  0  0  0  0
    3.2446    1.2193   -1.9800 H   0  0  0  0  0  0  0  0  0  0  0  0
    2.3423   -1.6889   -2.6230 H   0  0  0  0  0  0  0  0  0  0  0  0
    2.8889   -1.0754   -0.9876 H   0  0  0  0  0  0  0  0  0  0  0  0
    0.5253   -0.0179   -2.7159 H   0  0  0  0  0  0  0  0  0  0  0  0
    1.5804    1.0451    0.0102 H   0  0  0  0  0  0  0  0  0  0  0  0
   -0.3734    2.5782   -0.0385 H   0  0  0  0  0  0  0  0  0  0  0  0
   -0.9011    1.8960   -1.6467 H   0  0  0  0  0  0  0  0  0  0  0  0
   -1.0868   -0.4032   -0.6444 H   0  0  0  0  0  0  0  0  0  0  0  0
   -0.0138    1.0167    1.9134 H   0  0  0  0  0  0  0  0  0  0  0  0
  1  2  1  0
  2  3  1  0
  3  4  1  0
  4  5  1  0
  5  6  1  0
  6  7  1  0
  7  8  1  0
  8  9  2  0
  4  2  1  0
  7  5  1  0
  1 10  1  0
  2 11  1  0
  3 12  1  0
  3 13  1  0
  4 14  1  0
  5 15  1  0
  6 16  1  0
  6 17  1  0
  7 18  1  0
  8 19  1  0
M  END
$$$$
