
     RDKit          3D

 19 20  0  0  0  0  0  0  0  0999 V2000
    1.4472    0.7984   -0.0883 O   0  0  0  0  0  0  0  0  0  0  0  0
    0.0979    0.4265    0.1500 C   0  0  0  0  0  0  0  0  0  0  0  0
   -0.7907    1.2766   -0.7615 C   0  0  0  0  0  0  0  0  0  0  0  0
   -0.5728    0.9692   -2.2691 C   0  0  0  0  0  0  0  0  0  0  0  0
   -1.8627    0.2875   -2.7362 C   0  0  0  0  0  0  0  0  0  0  0  0
   -1.9271   -0.7851   -3.7425 C   0  0  0  0  0  0  0  0  0  0  0  0
   -2.3230    0.5460   -4.0735 O   0  0  0  0  0  0  0  0  0  0  0  0
   -2.8315    0.4235   -1.6176 C   0  0  0  0  0  0  0  0  0  0  0  0
   -2.2592    0.9763   -0.5487 C   0  0  0  0  0  0  0  0  0  0  0  0
    2.0153    0.2311    0.4406 H   0  0  0  0  0  0  0  0  0  0  0  0
   -0.0707   -0.6403   -0.0698 H   0  0  0  0  0  0  0  0  0  0  0  0
   -0.1821    0.5952    1.2023 H   0  0  0  0  0  0  0  0  0  0  0  0
   -0.5620    2.3249   -0.5320 H   0  0  0  0  0  0  0  0  0  0  0  0
   -0.4423    1.8903   -2.8435 H   0  0  0  0  0  0  0  0  0  0  0  0
    0.3187    0.3591   -2.4301 H   0  0  0  0  0  0  0  0  0  0  0  0
   -1.0048   -1.1318   -4.2091 H   0  0  0  0  0  0  0  0  0  0  0  0
   -2.7313   -1.5209   -3.7104 H   0  0  0  0  0  0  0  0  0  0  0  0
   -3.8640    0.1069   -1.7072 H   0  0  0  0  0  0  0  0  0  0  0  0
   -2.7568    1.1733    0.3951 H   0  0  0  0  0  0  0  0  0  0  0  0
  1  2  1  0
  2  3  1  0
  3  4  1  0
  4  5  1  0
  5  6  1  0
  6  7  1  0
  5  8  1  0
  8  9  2  0
  9  3  1  0
  7  5  1  0
  1 10  1  0
  2 11  1  0
  2 12  1  0
  3 13  1  0
  4 14  1  0
  4 15  1  0
  6 16  1  0
  6 17  1  0
  8 18  1  0
  9 19  1  0
M  END
$$$$
