gdb 734	2.7449342	1.312874	0.9784876	2.1829	74.92	-0.24119	-0.02497	0.21622	1220.426	0.157098	-422.565633	-422.557156	-422.556212	-422.599759	31.114
 OpenBabel02181911403D

 19 20  0  0  1  0  0  0  0  0999 V2000
    0.7934   -0.0491    1.1386 O   0  0  0  0  0  0  0  0  0  0  0  0
   -0.2186   -0.0473    0.4870 C   0  0  0  0  0  0  0  0  0  0  0  0
   -0.8954   -1.2667   -0.1417 C   0  0  0  0  0  0  0  0  0  0  0  0
   -1.8509   -0.6798   -1.1906 C   0  0  0  0  0  0  0  0  0  0  0  0
   -2.2951    0.6693   -0.5795 C   0  0  0  0  0  0  0  0  0  0  0  0
   -1.0407    1.2148    0.1342 C   0  0  2  0  0  0  0  0  0  0  0  0
   -0.2111    2.1494   -0.7245 C   0  0  2  0  0  0  0  0  0  0  0  0
    0.7145    3.1182   -0.1333 C   0  0  0  0  0  0  0  0  0  0  0  0
   -0.5480    3.5359   -0.6673 O   0  0  0  0  0  0  0  0  0  0  0  0
   -0.1558   -1.9771   -0.5176 H   0  0  0  0  0  0  0  0  0  0  0  0
   -1.4547   -1.7747    0.6561 H   0  0  0  0  0  0  0  0  0  0  0  0
   -1.3133   -0.5092   -2.1309 H   0  0  0  0  0  0  0  0  0  0  0  0
   -2.6951   -1.3343   -1.4191 H   0  0  0  0  0  0  0  0  0  0  0  0
   -2.6890    1.3655   -1.3242 H   0  0  0  0  0  0  0  0  0  0  0  0
   -3.0902    0.4969    0.1541 H   0  0  0  0  0  0  0  0  0  0  0  0
   -1.2761    1.7505    1.0586 H   0  0  0  0  0  0  0  0  0  0  0  0
    0.0031    1.7910   -1.7335 H   0  0  0  0  0  0  0  0  0  0  0  0
    0.8079    3.1704    0.9495 H   0  0  0  0  0  0  0  0  0  0  0  0
    1.5896    3.4439   -0.6929 H   0  0  0  0  0  0  0  0  0  0  0  0
  2  1  2  0  0  0  0
  3  2  1  0  0  0  0
  3 11  1  0  0  0  0
  4  5  1  0  0  0  0
  4  3  1  0  0  0  0
  5  6  1  0  0  0  0
  5 15  1  0  0  0  0
  6  2  1  0  0  0  0
  6 16  1  1  0  0  0
  7 17  1  6  0  0  0
  7  9  1  0  0  0  0
  7  8  1  0  0  0  0
  7  6  1  0  0  0  0
  8 18  1  0  0  0  0
  9  8  1  0  0  0  0
 10  3  1  0  0  0  0
 12  4  1  0  0  0  0
 13  4  1  0  0  0  0
 14  5  1  0  0  0  0
 19  8  1  0  0  0  0
M TOR 0 0 1 2 3
M TOR 1 0 1 2 9
M TOR 2 0 1 2 10
M TOR 3 0 1 5 4
M TOR 4 0 1 5 6
M TOR 5 0 1 5 15
M TOR 6 1 2 3 4
M TOR 7 1 2 3 11
M TOR 8 1 2 3 12
M TOR 9 1 5 4 3
M TOR 10 1 5 4 13
M TOR 11 1 5 4 14
M TOR 12 1 5 6 7
M TOR 13 1 5 6 8
M TOR 14 1 5 6 16
M TOR 15 2 1 5 4
M TOR 16 2 1 5 6
M TOR 17 2 1 5 15
M TOR 18 2 3 4 5
M TOR 19 2 3 4 13
M TOR 20 2 3 4 14
M TOR 21 3 2 1 5
M TOR 22 3 4 5 6
M TOR 23 3 4 5 15
M TOR 24 4 3 2 9
M TOR 25 4 3 2 10
M TOR 26 4 5 6 7
M TOR 27 4 5 6 8
M TOR 28 4 5 6 16
M TOR 29 5 1 2 9
M TOR 30 5 1 2 10
M TOR 31 5 4 3 11
M TOR 32 5 4 3 12
M TOR 33 5 6 7 8
M TOR 34 5 6 7 17
M TOR 35 5 6 7 18
M TOR 36 6 5 4 13
M TOR 37 6 5 4 14
M TOR 38 6 8 7 17
M TOR 39 6 8 7 18
M TOR 40 7 6 5 15
M TOR 41 7 8 6 16
M TOR 42 8 6 5 15
M  END
$$$$
