
     RDKit          3D

 19 21  0  0  0  0  0  0  0  0999 V2000
    1.2898    0.0570   -0.0562 C   0  0  0  0  0  0  0  0  0  0  0  0
   -0.0139   -0.1771    0.4408 O   0  0  0  0  0  0  0  0  0  0  0  0
   -0.3960    0.6274    1.5391 C   0  0  0  0  0  0  0  0  0  0  0  0
    0.4105    0.3307    2.7857 C   0  0  0  0  0  0  0  0  0  0  0  0
   -1.8842    0.8377    1.4168 C   0  0  0  0  0  0  0  0  0  0  0  0
   -2.5333    1.8078    2.4493 C   0  0  0  0  0  0  0  0  0  0  0  0
   -1.5588    2.3010    3.3811 O   0  0  0  0  0  0  0  0  0  0  0  0
   -1.6193    2.8815    2.0701 C   0  0  0  0  0  0  0  0  0  0  0  0
   -0.9159    1.9652    1.0253 C   0  0  0  0  0  0  0  0  0  0  0  0
    2.0702   -0.2608    0.6477 H   0  0  0  0  0  0  0  0  0  0  0  0
    1.3851   -0.5341   -0.9703 H   0  0  0  0  0  0  0  0  0  0  0  0
    1.4508    1.1172   -0.2989 H   0  0  0  0  0  0  0  0  0  0  0  0
    0.4298   -0.7541    2.9369 H   0  0  0  0  0  0  0  0  0  0  0  0
    1.4441    0.6744    2.6717 H   0  0  0  0  0  0  0  0  0  0  0  0
   -0.0123    0.8140    3.6602 H   0  0  0  0  0  0  0  0  0  0  0  0
   -2.4649    0.2157    0.7486 H   0  0  0  0  0  0  0  0  0  0  0  0
   -3.5702    1.8135    2.7635 H   0  0  0  0  0  0  0  0  0  0  0  0
   -1.7462    3.9559    2.0081 H   0  0  0  0  0  0  0  0  0  0  0  0
   -0.6817    2.2985    0.0226 H   0  0  0  0  0  0  0  0  0  0  0  0
  1  2  1  0
  2  3  1  0
  3  4  1  0
  3  5  1  0
  5  6  1  0
  6  7  1  0
  7  8  1  0
  8  9  1  0
  9  3  1  0
  9  5  1  0
  8  6  1  0
  1 10  1  0
  1 11  1  0
  1 12  1  0
  4 13  1  0
  4 14  1  0
  4 15  1  0
  5 16  1  0
  6 17  1  0
  8 18  1  0
  9 19  1  0
M  END
$$$$
