gdb 2840	3.0512613	1.4387358	1.1357417	1.4857	74.7	-0.23124	0.06231	0.29355	1110.9638	0.156199	-422.510993	-422.502648	-422.501703	-422.543181	33.097
 OpenBabel02181911413D

 19 21  0  0  1  0  0  0  0  0999 V2000
    1.1355    1.2675   -0.0112 C   0  0  0  0  0  0  0  0  0  0  0  0
    0.9319   -0.2414    0.0420 C   0  0  1  0  0  0  0  0  0  0  0  0
    1.7759   -1.0199   -0.9748 C   0  0  1  0  0  0  0  0  0  0  0  0
    2.9106   -1.2189    0.0253 C   0  0  1  0  0  0  0  0  0  0  0  0
    1.7888   -0.9702    1.1196 C   0  0  2  0  0  0  0  0  0  0  0  0
    1.3841   -2.4650    0.9769 C   0  0  2  0  0  0  0  0  0  0  0  0
    2.0614   -3.3609    1.8413 O   0  0  0  0  0  0  0  0  0  0  0  0
    2.0318   -2.3983   -0.4007 C   0  0  1  0  0  0  0  0  0  0  0  0
    2.3074   -3.4644   -1.2220 O   0  0  0  0  0  0  0  0  0  0  0  0
    0.6801    1.7552    0.8575 H   0  0  0  0  0  0  0  0  0  0  0  0
    2.2014    1.5201   -0.0223 H   0  0  0  0  0  0  0  0  0  0  0  0
    0.6800    1.6951   -0.9111 H   0  0  0  0  0  0  0  0  0  0  0  0
   -0.1409   -0.4763    0.0673 H   0  0  0  0  0  0  0  0  0  0  0  0
    1.8724   -0.8532   -2.0414 H   0  0  0  0  0  0  0  0  0  0  0  0
    3.9664   -1.0065   -0.0514 H   0  0  0  0  0  0  0  0  0  0  0  0
    1.9380   -0.5485    2.1128 H   0  0  0  0  0  0  0  0  0  0  0  0
    0.3221   -2.7199    1.0591 H   0  0  0  0  0  0  0  0  0  0  0  0
    2.9878   -3.0880    1.8644 H   0  0  0  0  0  0  0  0  0  0  0  0
    2.6495   -4.1688   -0.6573 H   0  0  0  0  0  0  0  0  0  0  0  0
  1  2  1  0  0  0  0
  1 10  1  0  0  0  0
  2 13  1  1  0  0  0
  2  5  1  0  0  0  0
  3 14  1  6  0  0  0
  3  8  1  0  0  0  0
  3  4  1  0  0  0  0
  3  2  1  0  0  0  0
  4 15  1  6  0  0  0
  4  5  1  0  0  0  0
  5 16  1  1  0  0  0
  6 17  1  6  0  0  0
  6  5  1  0  0  0  0
  6  7  1  0  0  0  0
  7 18  1  0  0  0  0
  8  9  1  6  0  0  0
  8  4  1  0  0  0  0
  8  6  1  0  0  0  0
  9 19  1  0  0  0  0
 11  1  1  0  0  0  0
 12  1  1  0  0  0  0
M TOR 0 0 1 2 3
M TOR 1 0 1 2 7
M TOR 2 0 1 2 13
M TOR 3 0 1 4 3
M TOR 4 0 1 4 5
M TOR 5 0 1 4 15
M TOR 6 1 2 3 4
M TOR 7 1 2 3 7
M TOR 8 1 2 3 14
M TOR 9 1 2 7 5
M TOR 10 1 2 7 8
M TOR 11 1 4 3 7
M TOR 12 1 4 3 14
M TOR 13 1 4 5 6
M TOR 14 1 4 5 7
M TOR 15 1 4 5 16
M TOR 16 2 1 0 9
M TOR 17 2 1 0 10
M TOR 18 2 1 0 11
M TOR 19 2 1 4 5
M TOR 20 2 1 4 15
M TOR 21 2 3 4 5
M TOR 22 2 3 4 15
M TOR 23 2 3 7 5
M TOR 24 2 3 7 8
M TOR 25 2 7 3 4
M TOR 26 2 7 3 14
M TOR 27 2 7 5 4
M TOR 28 2 7 5 6
M TOR 29 2 7 5 16
M TOR 30 2 7 8 18
M TOR 31 3 2 1 12
M TOR 32 3 4 1 12
M TOR 33 3 4 5 6
M TOR 34 3 4 5 7
M TOR 35 3 4 5 16
M TOR 36 3 7 2 13
M TOR 37 3 7 5 6
M TOR 38 3 7 5 16
M TOR 39 3 7 8 18
M TOR 40 4 1 0 9
M TOR 41 4 1 0 10
M TOR 42 4 1 0 11
M TOR 43 4 1 2 7
M TOR 44 4 1 2 13
M TOR 45 4 3 2 13
M TOR 46 4 3 7 8
M TOR 47 4 5 6 17
M TOR 48 4 5 7 8
M TOR 49 5 4 1 12
M TOR 50 5 4 3 14
M TOR 51 5 7 2 13
M TOR 52 5 7 3 14
M TOR 53 5 7 8 18
M TOR 54 6 5 4 15
M TOR 55 6 5 7 8
M TOR 56 7 2 1 12
M TOR 57 7 3 4 15
M TOR 58 7 5 4 15
M TOR 59 7 5 6 17
M TOR 60 8 7 2 13
M TOR 61 8 7 3 14
M TOR 62 8 7 5 16
M  END
$$$$
