
     RDKit          3D

 19 20  0  0  0  0  0  0  0  0999 V2000
   -0.3274   -0.1468   -0.1251 C   0  0  0  0  0  0  0  0  0  0  0  0
    1.1728   -0.0014   -0.1823 C   0  0  0  0  0  0  0  0  0  0  0  0
    1.6964    1.3236   -0.4121 O   0  0  0  0  0  0  0  0  0  0  0  0
    1.9081    0.7527    0.8724 C   0  0  0  0  0  0  0  0  0  0  0  0
    3.3063    0.5057    1.3268 C   0  0  0  0  0  0  0  0  0  0  0  0
    3.9186    1.4499    2.3367 C   0  0  0  0  0  0  0  0  0  0  0  0
    3.5365    0.0564    2.7521 C   0  0  0  0  0  0  0  0  0  0  0  0
    1.9083   -1.0611   -0.9462 C   0  0  0  0  0  0  0  0  0  0  0  0
    1.4291   -2.1267   -1.2418 O   0  0  0  0  0  0  0  0  0  0  0  0
   -0.5936   -1.1195    0.2964 H   0  0  0  0  0  0  0  0  0  0  0  0
   -0.7682    0.6453    0.4840 H   0  0  0  0  0  0  0  0  0  0  0  0
   -0.7551   -0.0938   -1.1307 H   0  0  0  0  0  0  0  0  0  0  0  0
    1.2640    1.1724    1.6511 H   0  0  0  0  0  0  0  0  0  0  0  0
    3.9779    0.1068    0.5758 H   0  0  0  0  0  0  0  0  0  0  0  0
    4.9698    1.6908    2.2285 H   0  0  0  0  0  0  0  0  0  0  0  0
    3.3073    2.2728    2.6922 H   0  0  0  0  0  0  0  0  0  0  0  0
    4.3207   -0.6695    2.9323 H   0  0  0  0  0  0  0  0  0  0  0  0
    2.6672   -0.0631    3.3905 H   0  0  0  0  0  0  0  0  0  0  0  0
    2.9384   -0.7739   -1.2458 H   0  0  0  0  0  0  0  0  0  0  0  0
  1  2  1  0
  2  3  1  0
  3  4  1  0
  4  5  1  0
  5  6  1  0
  6  7  1  0
  2  8  1  0
  8  9  2  0
  4  2  1  0
  7  5  1  0
  1 10  1  0
  1 11  1  0
  1 12  1  0
  4 13  1  0
  5 14  1  0
  6 15  1  0
  6 16  1  0
  7 17  1  0
  7 18  1  0
  8 19  1  0
M  END
$$$$
