gdb 37	3.1243016	1.0827855	0.85397	1.6081	81.1	-0.18762	0.02763	0.21525	1392.528	0.155271	-422.591712	-422.581739	-422.580795	-422.627097	35.162
 OpenBabel02181911403D

 19 19  0  0  0  0  0  0  0  0999 V2000
    1.3731   -0.7714    0.3052 C   0  0  0  0  0  0  0  0  0  0  0  0
    0.7633    0.4682   -0.3725 C   0  0  0  0  0  0  0  0  0  0  0  0
    1.4624    1.7373   -0.0254 C   0  0  0  0  0  0  0  0  0  0  0  0
    1.0738    2.8707    0.6220 C   0  0  0  0  0  0  0  0  0  0  0  0
    2.2225    3.7296    0.6429 C   0  0  0  0  0  0  0  0  0  0  0  0
    2.3339    4.9788    1.1822 O   0  0  0  0  0  0  0  0  0  0  0  0
    3.2339    3.0707    0.0128 C   0  0  0  0  0  0  0  0  0  0  0  0
    4.6441    3.4222   -0.2828 C   0  0  0  0  0  0  0  0  0  0  0  0
    2.7661    1.8440   -0.3985 O   0  0  0  0  0  0  0  0  0  0  0  0
    0.8430   -1.6794    0.0017 H   0  0  0  0  0  0  0  0  0  0  0  0
    2.4256   -0.8818    0.0308 H   0  0  0  0  0  0  0  0  0  0  0  0
    1.3163   -0.6884    1.3948 H   0  0  0  0  0  0  0  0  0  0  0  0
    0.7801    0.3270   -1.4615 H   0  0  0  0  0  0  0  0  0  0  0  0
   -0.2886    0.5745   -0.0881 H   0  0  0  0  0  0  0  0  0  0  0  0
    0.0948    3.0726    1.0312 H   0  0  0  0  0  0  0  0  0  0  0  0
    1.4818    5.2332    1.5461 H   0  0  0  0  0  0  0  0  0  0  0  0
    4.8481    4.4252    0.0995 H   0  0  0  0  0  0  0  0  0  0  0  0
    5.3495    2.7274    0.1892 H   0  0  0  0  0  0  0  0  0  0  0  0
    4.8515    3.4186   -1.3598 H   0  0  0  0  0  0  0  0  0  0  0  0
  1 12  1  0  0  0  0
  2 14  1  0  0  0  0
  2  3  1  0  0  0  0
  2  1  1  0  0  0  0
  3  4  2  0  0  0  0
  4  5  1  0  0  0  0
  4 15  1  0  0  0  0
  5  6  1  0  0  0  0
  6 16  1  0  0  0  0
  7  5  2  0  0  0  0
  8  7  1  0  0  0  0
  8 17  1  0  0  0  0
  8 18  1  0  0  0  0
  9  3  1  0  0  0  0
  9  7  1  0  0  0  0
 10  1  1  0  0  0  0
 11  1  1  0  0  0  0
 13  2  1  0  0  0  0
 19  8  1  0  0  0  0
M TOR 0 0 1 2 3
M TOR 1 0 1 2 8
M TOR 2 1 2 3 4
M TOR 3 1 2 3 14
M TOR 4 1 2 8 6
M TOR 5 2 1 0 9
M TOR 6 2 1 0 10
M TOR 7 2 1 0 11
M TOR 8 2 3 4 5
M TOR 9 2 3 4 6
M TOR 10 2 8 6 4
M TOR 11 2 8 6 7
M TOR 12 3 2 1 12
M TOR 13 3 2 1 13
M TOR 14 3 2 8 6
M TOR 15 3 4 5 15
M TOR 16 3 4 6 7
M TOR 17 3 4 6 8
M TOR 18 4 3 2 8
M TOR 19 4 6 7 16
M TOR 20 4 6 7 17
M TOR 21 4 6 7 18
M TOR 22 5 4 3 14
M TOR 23 5 4 6 7
M TOR 24 5 4 6 8
M TOR 25 6 4 3 14
M TOR 26 6 4 5 15
M TOR 27 8 2 1 12
M TOR 28 8 2 1 13
M TOR 29 8 2 3 14
M TOR 30 8 6 7 16
M TOR 31 8 6 7 17
M TOR 32 8 6 7 18
M  END
$$$$
