gdb 1688	2.7391602	1.478912	1.2557656	1.9384	75.11	-0.26063	0.0125	0.27313	1072.8989	0.156061	-422.561226	-422.552691	-422.551746	-422.594185	32.354
 OpenBabel02181911403D

 19 20  0  0  1  0  0  0  0  0999 V2000
   -2.1421    1.6558   -0.4980 C   0  0  0  0  0  0  0  0  0  0  0  0
   -1.0160    1.8530    0.5050 C   0  0  2  0  0  0  0  0  0  0  0  0
   -1.3654    2.8101    1.6850 C   0  0  0  0  0  0  0  0  0  0  0  0
   -0.3058    3.7899    1.1656 C   0  0  1  0  0  0  0  0  0  0  0  0
    1.0354    3.1210    1.1746 C   0  0  0  0  0  0  0  0  0  0  0  0
    0.0856    2.8088    0.0515 C   0  0  1  0  0  0  0  0  0  0  0  0
   -0.5750    0.5588    1.0143 O   0  0  0  0  0  0  0  0  0  0  0  0
    0.1531   -0.2176    0.2065 C   0  0  0  0  0  0  0  0  0  0  0  0
    0.4749    0.0194   -0.9272 O   0  0  0  0  0  0  0  0  0  0  0  0
   -2.9611    1.0906   -0.0424 H   0  0  0  0  0  0  0  0  0  0  0  0
   -2.5287    2.6281   -0.8167 H   0  0  0  0  0  0  0  0  0  0  0  0
   -1.7837    1.1202   -1.3793 H   0  0  0  0  0  0  0  0  0  0  0  0
   -2.3925    3.1755    1.6234 H   0  0  0  0  0  0  0  0  0  0  0  0
   -1.1887    2.4029    2.6845 H   0  0  0  0  0  0  0  0  0  0  0  0
   -0.4212    4.8643    1.1039 H   0  0  0  0  0  0  0  0  0  0  0  0
    1.8769    3.7438    0.8896 H   0  0  0  0  0  0  0  0  0  0  0  0
    1.2687    2.3705    1.9256 H   0  0  0  0  0  0  0  0  0  0  0  0
    0.3387    2.9942   -0.9839 H   0  0  0  0  0  0  0  0  0  0  0  0
    0.4250   -1.1351    0.7540 H   0  0  0  0  0  0  0  0  0  0  0  0
  1 10  1  0  0  0  0
  1  2  1  0  0  0  0
  2  7  1  1  0  0  0
  2  3  1  0  0  0  0
  3 14  1  0  0  0  0
  4 15  1  6  0  0  0
  4  5  1  0  0  0  0
  4  3  1  0  0  0  0
  5 17  1  0  0  0  0
  6 18  1  6  0  0  0
  6  2  1  0  0  0  0
  6  4  1  0  0  0  0
  6  5  1  0  0  0  0
  8 19  1  0  0  0  0
  8  7  1  0  0  0  0
  9  8  2  0  0  0  0
 11  1  1  0  0  0  0
 12  1  1  0  0  0  0
 13  3  1  0  0  0  0
 16  5  1  0  0  0  0
M TOR 0 0 1 2 3
M TOR 1 0 1 2 12
M TOR 2 0 1 2 13
M TOR 3 0 1 5 3
M TOR 4 0 1 5 4
M TOR 5 0 1 5 17
M TOR 6 0 1 6 7
M TOR 7 1 2 3 4
M TOR 8 1 2 3 5
M TOR 9 1 2 3 14
M TOR 10 1 5 3 4
M TOR 11 1 5 3 14
M TOR 12 1 5 4 15
M TOR 13 1 5 4 16
M TOR 14 1 6 7 8
M TOR 15 1 6 7 18
M TOR 16 2 1 0 9
M TOR 17 2 1 0 10
M TOR 18 2 1 0 11
M TOR 19 2 1 5 4
M TOR 20 2 1 5 17
M TOR 21 2 1 6 7
M TOR 22 2 3 4 5
M TOR 23 2 3 4 15
M TOR 24 2 3 4 16
M TOR 25 2 3 5 17
M TOR 26 3 2 1 6
M TOR 27 3 4 5 17
M TOR 28 3 5 1 6
M TOR 29 3 5 4 15
M TOR 30 3 5 4 16
M TOR 31 4 3 2 12
M TOR 32 4 3 2 13
M TOR 33 4 5 1 6
M TOR 34 4 5 3 14
M TOR 35 5 1 0 9
M TOR 36 5 1 0 10
M TOR 37 5 1 0 11
M TOR 38 5 1 2 12
M TOR 39 5 1 2 13
M TOR 40 5 1 6 7
M TOR 41 5 3 2 12
M TOR 42 5 3 2 13
M TOR 43 6 1 0 9
M TOR 44 6 1 0 10
M TOR 45 6 1 0 11
M TOR 46 6 1 2 12
M TOR 47 6 1 2 13
M TOR 48 6 1 5 17
M  END
$$$$
