gdb 5	2.5380186	1.4140995	0.9536975	1.0674	78.38	-0.21149	0.01679	0.22828	1237.6017	0.156107	-422.590889	-422.581568	-422.580624	-422.625196	34.327
 OpenBabel02181911403D

 19 19  0  0  1  0  0  0  0  0999 V2000
    0.1566   -2.9850   -2.4872 C   0  0  0  0  0  0  0  0  0  0  0  0
   -0.5227   -1.6736   -2.8871 C   0  0  2  0  0  0  0  0  0  0  0  0
    0.2538   -0.9824   -3.8740 O   0  0  0  0  0  0  0  0  0  0  0  0
   -0.8412   -0.7848   -1.7072 C   0  0  0  0  0  0  0  0  0  0  0  0
   -1.2562    0.5193   -1.7595 C   0  0  0  0  0  0  0  0  0  0  0  0
   -1.5412    1.4615   -2.8747 C   0  0  0  0  0  0  0  0  0  0  0  0
   -1.4494    0.9965   -0.4963 O   0  0  0  0  0  0  0  0  0  0  0  0
   -1.1616   -0.0106    0.3706 C   0  0  0  0  0  0  0  0  0  0  0  0
   -0.7836   -1.1212   -0.3079 C   0  0  0  0  0  0  0  0  0  0  0  0
    1.0867   -2.7939   -1.9398 H   0  0  0  0  0  0  0  0  0  0  0  0
   -0.4938   -3.5931   -1.8505 H   0  0  0  0  0  0  0  0  0  0  0  0
    0.3964   -3.5580   -3.3860 H   0  0  0  0  0  0  0  0  0  0  0  0
   -1.4506   -1.9186   -3.4195 H   0  0  0  0  0  0  0  0  0  0  0  0
    1.0127   -0.6015   -3.4175 H   0  0  0  0  0  0  0  0  0  0  0  0
   -2.6157    1.6612   -2.9684 H   0  0  0  0  0  0  0  0  0  0  0  0
   -1.0458    2.4249   -2.7116 H   0  0  0  0  0  0  0  0  0  0  0  0
   -1.1783    1.0340   -3.8098 H   0  0  0  0  0  0  0  0  0  0  0  0
   -1.2676    0.2251    1.4165 H   0  0  0  0  0  0  0  0  0  0  0  0
   -0.4965   -2.0664    0.1249 H   0  0  0  0  0  0  0  0  0  0  0  0
  1 10  1  0  0  0  0
  1 11  1  0  0  0  0
  2 13  1  6  0  0  0
  2  1  1  0  0  0  0
  2  4  1  0  0  0  0
  3 14  1  0  0  0  0
  3  2  1  0  0  0  0
  4  9  1  0  0  0  0
  5  4  2  0  0  0  0
  5  7  1  0  0  0  0
  6 16  1  0  0  0  0
  6  5  1  0  0  0  0
  7  8  1  0  0  0  0
  8 18  1  0  0  0  0
  9 19  1  0  0  0  0
  9  8  2  0  0  0  0
 12  1  1  0  0  0  0
 15  6  1  0  0  0  0
 17  6  1  0  0  0  0
M TOR 0 0 1 2 13
M TOR 1 0 1 3 4
M TOR 2 0 1 3 8
M TOR 3 1 3 4 5
M TOR 4 1 3 4 6
M TOR 5 1 3 8 7
M TOR 6 1 3 8 18
M TOR 7 2 1 0 9
M TOR 8 2 1 0 10
M TOR 9 2 1 0 11
M TOR 10 2 1 3 4
M TOR 11 2 1 3 8
M TOR 12 3 1 0 9
M TOR 13 3 1 0 10
M TOR 14 3 1 0 11
M TOR 15 3 1 2 13
M TOR 16 3 4 5 14
M TOR 17 3 4 5 15
M TOR 18 3 4 5 16
M TOR 19 3 4 6 7
M TOR 20 3 8 7 6
M TOR 21 3 8 7 17
M TOR 22 4 3 1 12
M TOR 23 4 3 8 7
M TOR 24 4 3 8 18
M TOR 25 4 6 7 8
M TOR 26 4 6 7 17
M TOR 27 5 4 3 8
M TOR 28 5 4 6 7
M TOR 29 6 4 3 8
M TOR 30 6 4 5 14
M TOR 31 6 4 5 15
M TOR 32 6 4 5 16
M TOR 33 6 7 8 18
M TOR 34 8 3 1 12
M  END
$$$$
