
     RDKit          3D

 19 21  0  0  0  0  0  0  0  0999 V2000
   -0.0787    0.0676    0.0491 C   0  0  0  0  0  0  0  0  0  0  0  0
    1.4297    0.1957    0.0080 C   0  0  0  0  0  0  0  0  0  0  0  0
    2.1663   -0.6662   -1.0072 C   0  0  0  0  0  0  0  0  0  0  0  0
    3.7020   -0.4003   -0.9874 C   0  0  0  0  0  0  0  0  0  0  0  0
    4.0093    0.6219   -0.0158 O   0  0  0  0  0  0  0  0  0  0  0  0
    3.7934   -0.7261    0.4335 C   0  0  0  0  0  0  0  0  0  0  0  0
    4.8128   -1.4043    1.2847 C   0  0  0  0  0  0  0  0  0  0  0  0
    2.2350   -0.9945    0.4688 C   0  0  0  0  0  0  0  0  0  0  0  0
    1.7053   -2.1075    1.0977 O   0  0  0  0  0  0  0  0  0  0  0  0
   -0.4716    0.3860    1.0215 H   0  0  0  0  0  0  0  0  0  0  0  0
   -0.5424    0.6985   -0.7160 H   0  0  0  0  0  0  0  0  0  0  0  0
   -0.3995   -0.9646   -0.1168 H   0  0  0  0  0  0  0  0  0  0  0  0
    1.8201    1.1887    0.2020 H   0  0  0  0  0  0  0  0  0  0  0  0
    1.6528   -1.2000   -1.7959 H   0  0  0  0  0  0  0  0  0  0  0  0
    4.4016   -0.5315   -1.8049 H   0  0  0  0  0  0  0  0  0  0  0  0
    4.7928   -1.0123    2.3084 H   0  0  0  0  0  0  0  0  0  0  0  0
    4.6088   -2.4780    1.3320 H   0  0  0  0  0  0  0  0  0  0  0  0
    5.8157   -1.2475    0.8792 H   0  0  0  0  0  0  0  0  0  0  0  0
    1.4286   -1.8514    1.9851 H   0  0  0  0  0  0  0  0  0  0  0  0
  1  2  1  0
  2  3  1  0
  3  4  1  0
  4  5  1  0
  5  6  1  0
  6  7  1  0
  6  8  1  0
  8  9  1  0
  8  2  1  0
  8  3  1  0
  6  4  1  0
  1 10  1  0
  1 11  1  0
  1 12  1  0
  2 13  1  0
  3 14  1  0
  4 15  1  0
  7 16  1  0
  7 17  1  0
  7 18  1  0
  9 19  1  0
M  END
$$$$
