gdb 3578	2.5206645	1.2842224	1.1033595	1.5571	77.79	-0.24765	0.04518	0.29283000000000003	1185.7863	0.153872	-422.524155	-422.514248	-422.513304	-422.55847	37.071
 OpenBabel02181911413D

 19 19  0  0  1  0  0  0  0  0999 V2000
   -0.9915    2.6297    1.0283 C   0  0  0  0  0  0  0  0  0  0  0  0
   -1.4039    1.3459    1.7194 C   0  0  2  0  0  0  0  0  0  0  0  0
   -2.8205    1.2312    1.8148 O   0  0  0  0  0  0  0  0  0  0  0  0
   -0.7830    0.9811    3.1137 C   0  0  1  0  0  0  0  0  0  0  0  0
   -1.5553    1.2982    4.2342 O   0  0  0  0  0  0  0  0  0  0  0  0
   -0.6835   -0.4989    2.6528 C   0  0  0  0  0  0  0  0  0  0  0  0
   -0.8290   -0.0098    1.1762 C   0  0  1  0  0  0  0  0  0  0  0  0
   -1.6141   -0.7863    0.2427 C   0  0  0  0  0  0  0  0  0  0  0  0
   -2.2591   -1.4406   -0.5329 C   0  0  0  0  0  0  0  0  0  0  0  0
   -1.3279    3.5020    1.6035 H   0  0  0  0  0  0  0  0  0  0  0  0
    0.0968    2.6966    0.9397 H   0  0  0  0  0  0  0  0  0  0  0  0
   -1.4249    2.6862    0.0243 H   0  0  0  0  0  0  0  0  0  0  0  0
   -3.1776    2.1168    1.9374 H   0  0  0  0  0  0  0  0  0  0  0  0
    0.2014    1.4368    3.2574 H   0  0  0  0  0  0  0  0  0  0  0  0
   -2.4619    1.0669    3.9891 H   0  0  0  0  0  0  0  0  0  0  0  0
    0.2175   -1.0597    2.9067 H   0  0  0  0  0  0  0  0  0  0  0  0
   -1.5637   -1.0645    2.9661 H   0  0  0  0  0  0  0  0  0  0  0  0
    0.1619    0.1865    0.7518 H   0  0  0  0  0  0  0  0  0  0  0  0
   -2.8361   -2.0162   -1.2132 H   0  0  0  0  0  0  0  0  0  0  0  0
  1 10  1  0  0  0  0
  1  2  1  0  0  0  0
  2  3  1  1  0  0  0
  2  4  1  0  0  0  0
  3 13  1  0  0  0  0
  4 14  1  1  0  0  0
  4  5  1  0  0  0  0
  6 16  1  0  0  0  0
  6 17  1  0  0  0  0
  6  4  1  0  0  0  0
  7 18  1  6  0  0  0
  7  2  1  0  0  0  0
  7  6  1  0  0  0  0
  8  7  1  0  0  0  0
  9  8  3  0  0  0  0
 11  1  1  0  0  0  0
 12  1  1  0  0  0  0
 15  5  1  0  0  0  0
 19  9  1  0  0  0  0
M TOR 0 0 1 2 12
M TOR 1 0 1 3 4
M TOR 2 0 1 3 5
M TOR 3 0 1 3 13
M TOR 4 0 1 6 5
M TOR 5 0 1 6 7
M TOR 6 0 1 6 17
M TOR 7 1 3 4 14
M TOR 8 1 3 5 6
M TOR 9 1 3 5 15
M TOR 10 1 3 5 16
M TOR 11 1 6 5 15
M TOR 12 1 6 5 16
M TOR 13 1 6 7 8
M TOR 14 2 1 0 9
M TOR 15 2 1 0 10
M TOR 16 2 1 0 11
M TOR 17 2 1 3 4
M TOR 18 2 1 3 5
M TOR 19 2 1 3 13
M TOR 20 2 1 6 5
M TOR 21 2 1 6 7
M TOR 22 2 1 6 17
M TOR 23 3 1 0 9
M TOR 24 3 1 0 10
M TOR 25 3 1 0 11
M TOR 26 3 1 2 12
M TOR 27 3 1 6 7
M TOR 28 3 1 6 17
M TOR 29 3 5 6 7
M TOR 30 3 5 6 17
M TOR 31 4 3 1 6
M TOR 32 4 3 5 6
M TOR 33 4 3 5 15
M TOR 34 4 3 5 16
M TOR 35 5 3 4 14
M TOR 36 5 6 7 8
M TOR 37 6 1 0 9
M TOR 38 6 1 0 10
M TOR 39 6 1 0 11
M TOR 40 6 1 2 12
M TOR 41 6 1 3 13
M TOR 42 6 5 3 13
M TOR 43 6 7 8 18
M TOR 44 7 6 5 15
M TOR 45 7 6 5 16
M TOR 46 8 7 6 17
M  END
$$$$
