gdb 3280	2.8118196	1.3628735	1.1409852	2.5321	73.99	-0.22729	0.07047	0.29776	1122.7777	0.156766	-422.529837	-422.521455	-422.520511	-422.562268	32.982
 OpenBabel02181911413D

 19 21  0  0  1  0  0  0  0  0999 V2000
    0.3002    0.0499    0.2835 O   0  0  0  0  0  0  0  0  0  0  0  0
   -0.7581    0.7318    0.8945 C   0  0  1  0  0  0  0  0  0  0  0  0
   -1.5362    0.0933    2.0104 C   0  0  2  0  0  0  0  0  0  0  0  0
   -2.9840    0.5258    2.2978 C   0  0  0  0  0  0  0  0  0  0  0  0
   -2.9261    1.9779    2.7751 C   0  0  2  0  0  0  0  0  0  0  0  0
   -2.4609    3.0735    1.8281 C   0  0  0  0  0  0  0  0  0  0  0  0
   -1.4792    2.4448    2.7653 C   0  0  1  0  0  0  0  0  0  0  0  0
   -0.9408    3.2822    3.7427 O   0  0  0  0  0  0  0  0  0  0  0  0
   -0.6174    1.2824    2.2913 C   0  0  2  0  0  0  0  0  0  0  0  0
    0.7623   -0.4655    0.9523 H   0  0  0  0  0  0  0  0  0  0  0  0
   -1.2776    1.3116    0.1397 H   0  0  0  0  0  0  0  0  0  0  0  0
   -1.2447   -0.9166    2.2871 H   0  0  0  0  0  0  0  0  0  0  0  0
   -3.6336    0.3922    1.4245 H   0  0  0  0  0  0  0  0  0  0  0  0
   -3.3967   -0.1014    3.0953 H   0  0  0  0  0  0  0  0  0  0  0  0
   -3.5906    2.2843    3.5758 H   0  0  0  0  0  0  0  0  0  0  0  0
   -2.4052    2.8952    0.7603 H   0  0  0  0  0  0  0  0  0  0  0  0
   -2.7683    4.0794    2.0926 H   0  0  0  0  0  0  0  0  0  0  0  0
   -0.7947    2.7556    4.5368 H   0  0  0  0  0  0  0  0  0  0  0  0
    0.3442    1.1720    2.7838 H   0  0  0  0  0  0  0  0  0  0  0  0
  1  2  1  0  0  0  0
  1 10  1  0  0  0  0
  2 11  1  6  0  0  0
  2  3  1  0  0  0  0
  2  9  1  0  0  0  0
  3 12  1  1  0  0  0
  3  9  1  0  0  0  0
  3  4  1  0  0  0  0
  4  5  1  0  0  0  0
  4 14  1  0  0  0  0
  5 15  1  1  0  0  0
  6 17  1  0  0  0  0
  6  7  1  0  0  0  0
  6  5  1  0  0  0  0
  7  5  1  0  0  0  0
  7  8  1  1  0  0  0
  8 18  1  0  0  0  0
  9  7  1  0  0  0  0
  9 19  1  1  0  0  0
 13  4  1  0  0  0  0
 16  6  1  0  0  0  0
M TOR 0 0 1 2 3
M TOR 1 0 1 2 8
M TOR 2 0 1 2 11
M TOR 3 0 1 8 6
M TOR 4 0 1 8 18
M TOR 5 1 2 3 4
M TOR 6 1 2 3 12
M TOR 7 1 2 3 13
M TOR 8 1 2 8 6
M TOR 9 1 2 8 18
M TOR 10 1 8 2 3
M TOR 11 1 8 2 11
M TOR 12 1 8 6 4
M TOR 13 1 8 6 5
M TOR 14 1 8 6 7
M TOR 15 2 1 0 9
M TOR 16 2 3 4 5
M TOR 17 2 3 4 6
M TOR 18 2 3 4 14
M TOR 19 2 8 1 10
M TOR 20 2 8 6 4
M TOR 21 2 8 6 5
M TOR 22 2 8 6 7
M TOR 23 3 2 1 10
M TOR 24 3 2 8 6
M TOR 25 3 2 8 18
M TOR 26 3 4 5 6
M TOR 27 3 4 5 15
M TOR 28 3 4 5 16
M TOR 29 3 4 6 7
M TOR 30 3 4 6 8
M TOR 31 4 3 2 8
M TOR 32 4 3 2 11
M TOR 33 4 5 6 7
M TOR 34 4 5 6 8
M TOR 35 4 6 5 15
M TOR 36 4 6 5 16
M TOR 37 4 6 7 17
M TOR 38 4 6 8 18
M TOR 39 5 4 3 12
M TOR 40 5 4 3 13
M TOR 41 5 6 4 14
M TOR 42 5 6 7 17
M TOR 43 5 6 8 18
M TOR 44 6 4 3 12
M TOR 45 6 4 3 13
M TOR 46 6 8 1 10
M TOR 47 6 8 2 11
M TOR 48 7 6 4 14
M TOR 49 7 6 5 15
M TOR 50 7 6 5 16
M TOR 51 7 6 8 18
M TOR 52 8 1 0 9
M TOR 53 8 2 3 12
M TOR 54 8 2 3 13
M TOR 55 8 6 4 14
M TOR 56 8 6 5 15
M TOR 57 8 6 5 16
M TOR 58 8 6 7 17
M  END
$$$$
