gdb 3891	2.4625635	1.7001313	1.2593218	3.0122	76.1	-0.24613	0.01443	0.26056	1047.5325	0.157966	-422.557144	-422.549118	-422.548174	-422.589373	31.624
 OpenBabel02181911413D

 19 20  0  0  1  0  0  0  0  0999 V2000
    0.3590    0.3331    0.6974 O   0  0  0  0  0  0  0  0  0  0  0  0
    0.1377    1.7300    0.5179 C   0  0  1  0  0  0  0  0  0  0  0  0
   -1.3654    2.0670    0.5140 C   0  0  0  0  0  0  0  0  0  0  0  0
   -1.8728    2.1002    1.9386 C   0  0  1  0  0  0  0  0  0  0  0  0
   -3.1579    1.5053    2.3146 C   0  0  0  0  0  0  0  0  0  0  0  0
   -1.9387    0.7969    2.5682 O   0  0  0  0  0  0  0  0  0  0  0  0
   -1.2145    3.1661    2.7902 C   0  0  0  0  0  0  0  0  0  0  0  0
    0.2780    3.1828    2.5628 C   0  0  0  0  0  0  0  0  0  0  0  0
    0.8773    2.5421    1.5594 C   0  0  0  0  0  0  0  0  0  0  0  0
   -0.1255    0.0752    1.4920 H   0  0  0  0  0  0  0  0  0  0  0  0
    0.5556    1.9502   -0.4713 H   0  0  0  0  0  0  0  0  0  0  0  0
   -1.5255    3.0477    0.0495 H   0  0  0  0  0  0  0  0  0  0  0  0
   -1.8982    1.3163   -0.0759 H   0  0  0  0  0  0  0  0  0  0  0  0
   -3.6776    1.8557    3.2058 H   0  0  0  0  0  0  0  0  0  0  0  0
   -3.7989    1.0749    1.5460 H   0  0  0  0  0  0  0  0  0  0  0  0
   -1.6458    4.1521    2.5609 H   0  0  0  0  0  0  0  0  0  0  0  0
   -1.4350    2.9700    3.8456 H   0  0  0  0  0  0  0  0  0  0  0  0
    0.8709    3.7455    3.2800 H   0  0  0  0  0  0  0  0  0  0  0  0
    1.9605    2.5551    1.4734 H   0  0  0  0  0  0  0  0  0  0  0  0
  1 10  1  0  0  0  0
  2 11  1  6  0  0  0
  2  1  1  0  0  0  0
  2  9  1  0  0  0  0
  3  2  1  0  0  0  0
  3  4  1  0  0  0  0
  4  5  1  0  0  0  0
  4  6  1  1  0  0  0
  4  7  1  0  0  0  0
  5  6  1  0  0  0  0
  5 14  1  0  0  0  0
  7 17  1  0  0  0  0
  8  7  1  0  0  0  0
  8 18  1  0  0  0  0
  9  8  2  0  0  0  0
 12  3  1  0  0  0  0
 13  3  1  0  0  0  0
 15  5  1  0  0  0  0
 16  7  1  0  0  0  0
 19  9  1  0  0  0  0
M TOR 0 0 1 2 3
M TOR 1 0 1 2 11
M TOR 2 0 1 2 12
M TOR 3 0 1 8 7
M TOR 4 0 1 8 18
M TOR 5 1 2 3 4
M TOR 6 1 2 3 5
M TOR 7 1 2 3 6
M TOR 8 1 8 7 6
M TOR 9 1 8 7 17
M TOR 10 2 1 0 9
M TOR 11 2 1 8 7
M TOR 12 2 1 8 18
M TOR 13 2 3 4 5
M TOR 14 2 3 4 13
M TOR 15 2 3 4 14
M TOR 16 2 3 6 7
M TOR 17 2 3 6 15
M TOR 18 2 3 6 16
M TOR 19 3 2 1 8
M TOR 20 3 2 1 10
M TOR 21 3 5 4 13
M TOR 22 3 5 4 14
M TOR 23 3 6 7 8
M TOR 24 3 6 7 17
M TOR 25 4 3 2 11
M TOR 26 4 3 2 12
M TOR 27 4 3 6 7
M TOR 28 4 3 6 15
M TOR 29 4 3 6 16
M TOR 30 4 5 3 6
M TOR 31 5 3 2 11
M TOR 32 5 3 2 12
M TOR 33 5 3 6 7
M TOR 34 5 3 6 15
M TOR 35 5 3 6 16
M TOR 36 6 3 2 11
M TOR 37 6 3 2 12
M TOR 38 6 3 4 13
M TOR 39 6 3 4 14
M TOR 40 6 7 8 18
M TOR 41 7 8 1 10
M TOR 42 8 1 0 9
M TOR 43 8 1 2 11
M TOR 44 8 1 2 12
M TOR 45 8 7 6 15
M TOR 46 8 7 6 16
M  END
$$$$
