gdb 3390	2.8619154	1.3686488	1.0788421	0.4685	75.	-0.21986	0.07301	0.29287	1152.9656	0.157027	-422.519069	-422.510908	-422.509964	-422.551575	31.768
 OpenBabel02181911413D

 19 21  0  0  1  0  0  0  0  0999 V2000
    0.4975   -0.1823    0.5479 O   0  0  0  0  0  0  0  0  0  0  0  0
   -0.6398    0.5842    0.8214 C   0  0  2  0  0  0  0  0  0  0  0  0
   -1.9756    0.0724    0.3342 C   0  0  1  0  0  0  0  0  0  0  0  0
   -3.1508    0.5361    0.9460 O   0  0  0  0  0  0  0  0  0  0  0  0
   -3.1455    1.9662    0.9191 C   0  0  0  0  0  0  0  0  0  0  0  0
   -2.1784    2.3869   -0.1934 C   0  0  0  0  0  0  0  0  0  0  0  0
   -2.6374    3.2145   -1.3662 C   0  0  0  0  0  0  0  0  0  0  0  0
   -1.7193    3.8129   -0.3239 C   0  0  0  0  0  0  0  0  0  0  0  0
   -1.2896    1.1926   -0.4036 C   0  0  1  0  0  0  0  0  0  0  0  0
    0.5017   -0.9322    1.1528 H   0  0  0  0  0  0  0  0  0  0  0  0
   -0.6049    1.1714    1.7400 H   0  0  0  0  0  0  0  0  0  0  0  0
   -2.0624   -0.9386   -0.0475 H   0  0  0  0  0  0  0  0  0  0  0  0
   -4.1729    2.3074    0.7544 H   0  0  0  0  0  0  0  0  0  0  0  0
   -2.8107    2.3551    1.8922 H   0  0  0  0  0  0  0  0  0  0  0  0
   -2.2245    2.9911   -2.3447 H   0  0  0  0  0  0  0  0  0  0  0  0
   -3.6718    3.5425   -1.3846 H   0  0  0  0  0  0  0  0  0  0  0  0
   -0.6843    3.9938   -0.5933 H   0  0  0  0  0  0  0  0  0  0  0  0
   -2.1349    4.5481    0.3590 H   0  0  0  0  0  0  0  0  0  0  0  0
   -0.8044    1.0359   -1.3597 H   0  0  0  0  0  0  0  0  0  0  0  0
  1  2  1  0  0  0  0
  1 10  1  0  0  0  0
  2 11  1  1  0  0  0
  3 12  1  6  0  0  0
  3  2  1  0  0  0  0
  3  4  1  0  0  0  0
  5  4  1  0  0  0  0
  5 14  1  0  0  0  0
  6  5  1  0  0  0  0
  7  8  1  0  0  0  0
  7  6  1  0  0  0  0
  8  6  1  0  0  0  0
  8 18  1  0  0  0  0
  9 19  1  6  0  0  0
  9  6  1  0  0  0  0
  9  3  1  0  0  0  0
  9  2  1  0  0  0  0
 13  5  1  0  0  0  0
 15  7  1  0  0  0  0
 16  7  1  0  0  0  0
 17  8  1  0  0  0  0
M TOR 0 0 1 2 3
M TOR 1 0 1 2 8
M TOR 2 0 1 2 11
M TOR 3 0 1 8 5
M TOR 4 0 1 8 18
M TOR 5 1 2 3 4
M TOR 6 1 2 8 5
M TOR 7 1 2 8 18
M TOR 8 1 8 2 3
M TOR 9 1 8 2 11
M TOR 10 1 8 5 4
M TOR 11 1 8 5 6
M TOR 12 1 8 5 7
M TOR 13 2 1 0 9
M TOR 14 2 3 4 5
M TOR 15 2 3 4 12
M TOR 16 2 3 4 13
M TOR 17 2 8 1 10
M TOR 18 2 8 5 4
M TOR 19 2 8 5 6
M TOR 20 2 8 5 7
M TOR 21 3 2 1 10
M TOR 22 3 2 8 5
M TOR 23 3 2 8 18
M TOR 24 3 4 5 6
M TOR 25 3 4 5 7
M TOR 26 3 4 5 8
M TOR 27 4 3 2 8
M TOR 28 4 3 2 11
M TOR 29 4 5 6 7
M TOR 30 4 5 6 14
M TOR 31 4 5 6 15
M TOR 32 4 5 7 16
M TOR 33 4 5 7 17
M TOR 34 4 5 8 18
M TOR 35 5 6 7 16
M TOR 36 5 6 7 17
M TOR 37 5 7 6 14
M TOR 38 5 7 6 15
M TOR 39 5 8 1 10
M TOR 40 5 8 2 11
M TOR 41 6 5 4 12
M TOR 42 6 5 4 13
M TOR 43 6 5 8 18
M TOR 44 6 7 5 8
M TOR 45 7 5 4 12
M TOR 46 7 5 4 13
M TOR 47 7 5 8 18
M TOR 48 8 1 0 9
M TOR 49 8 5 4 12
M TOR 50 8 5 4 13
M TOR 51 8 5 6 14
M TOR 52 8 5 6 15
M TOR 53 8 5 7 16
M TOR 54 8 5 7 17
M  END
$$$$
