
     RDKit          3D

 19 20  0  0  0  0  0  0  0  0999 V2000
    1.3644   -0.1554    0.0808 C   0  0  0  0  0  0  0  0  0  0  0  0
   -0.0368    0.0010    0.0947 O   0  0  0  0  0  0  0  0  0  0  0  0
   -0.5067    0.8623    1.1094 C   0  0  0  0  0  0  0  0  0  0  0  0
   -0.1466    2.3468    0.9539 C   0  0  0  0  0  0  0  0  0  0  0  0
   -0.6133    2.9496   -0.2532 O   0  0  0  0  0  0  0  0  0  0  0  0
   -1.4045    3.1029    0.9494 C   0  0  0  0  0  0  0  0  0  0  0  0
   -2.5154    2.1084    1.0488 C   0  0  0  0  0  0  0  0  0  0  0  0
   -2.0341    0.8625    1.0931 C   0  0  0  0  0  0  0  0  0  0  0  0
   -2.7847   -0.4271    1.0734 C   0  0  0  0  0  0  0  0  0  0  0  0
    1.7426   -0.5130    1.0522 H   0  0  0  0  0  0  0  0  0  0  0  0
    1.5971   -0.8999   -0.6841 H   0  0  0  0  0  0  0  0  0  0  0  0
    1.8829    0.7807   -0.1708 H   0  0  0  0  0  0  0  0  0  0  0  0
   -0.1327    0.5113    2.0908 H   0  0  0  0  0  0  0  0  0  0  0  0
    0.7856    2.7405    1.3499 H   0  0  0  0  0  0  0  0  0  0  0  0
   -1.4931    4.1203    1.3176 H   0  0  0  0  0  0  0  0  0  0  0  0
   -3.5647    2.3780    1.0308 H   0  0  0  0  0  0  0  0  0  0  0  0
   -2.5573   -1.0315    1.9610 H   0  0  0  0  0  0  0  0  0  0  0  0
   -3.8647   -0.2643    1.0339 H   0  0  0  0  0  0  0  0  0  0  0  0
   -2.4853   -1.0235    0.2048 H   0  0  0  0  0  0  0  0  0  0  0  0
  1  2  1  0
  2  3  1  0
  3  4  1  0
  4  5  1  0
  5  6  1  0
  6  7  1  0
  7  8  2  0
  8  9  1  0
  8  3  1  0
  6  4  1  0
  1 10  1  0
  1 11  1  0
  1 12  1  0
  3 13  1  0
  4 14  1  0
  6 15  1  0
  7 16  1  0
  9 17  1  0
  9 18  1  0
  9 19  1  0
M  END
$$$$
