gdb 5648	2.5381369	1.2517102	0.9485633	3.401	77.19	-0.23572	-0.01705	0.21867	1261.0576	0.155387	-422.549121	-422.539874	-422.53893	-422.583638	33.707
 OpenBabel02181911423D

 19 20  0  0  1  0  0  0  0  0999 V2000
   -0.5770   -1.4850   -2.2194 O   0  0  0  0  0  0  0  0  0  0  0  0
   -0.6131   -0.6223   -1.0933 C   0  0  0  0  0  0  0  0  0  0  0  0
   -0.3281    0.7858   -1.5824 C   0  0  1  0  0  0  0  0  0  0  0  0
   -1.4546    1.4130   -2.4712 C   0  0  0  0  0  0  0  0  0  0  0  0
   -1.6499    2.4937   -1.3910 C   0  0  0  0  0  0  0  0  0  0  0  0
   -2.3816    3.4358   -1.2593 O   0  0  0  0  0  0  0  0  0  0  0  0
   -0.5479    1.9127   -0.5516 C   0  0  0  0  0  0  0  0  0  0  0  0
    0.4601    2.7391    0.2175 C   0  0  0  0  0  0  0  0  0  0  0  0
   -0.5196    1.8928    0.9634 C   0  0  0  0  0  0  0  0  0  0  0  0
   -0.7874   -2.3762   -1.9256 H   0  0  0  0  0  0  0  0  0  0  0  0
   -1.5981   -0.6469   -0.5985 H   0  0  0  0  0  0  0  0  0  0  0  0
    0.1373   -0.9162   -0.3410 H   0  0  0  0  0  0  0  0  0  0  0  0
    0.6552    0.8096   -2.0600 H   0  0  0  0  0  0  0  0  0  0  0  0
   -1.1308    1.8083   -3.4376 H   0  0  0  0  0  0  0  0  0  0  0  0
   -2.3248    0.7713   -2.6365 H   0  0  0  0  0  0  0  0  0  0  0  0
    1.4948    2.4152    0.1751 H   0  0  0  0  0  0  0  0  0  0  0  0
    0.3113    3.8138    0.2060 H   0  0  0  0  0  0  0  0  0  0  0  0
   -0.1590    0.9899    1.4441 H   0  0  0  0  0  0  0  0  0  0  0  0
   -1.3482    2.3815    1.4650 H   0  0  0  0  0  0  0  0  0  0  0  0
  1 10  1  0  0  0  0
  1  2  1  0  0  0  0
  2 11  1  0  0  0  0
  2 12  1  0  0  0  0
  3 13  1  6  0  0  0
  3  2  1  0  0  0  0
  3  7  1  0  0  0  0
  4  3  1  0  0  0  0
  4  5  1  0  0  0  0
  5  6  2  0  0  0  0
  5  7  1  0  0  0  0
  7  8  1  0  0  0  0
  7  9  1  0  0  0  0
  8  9  1  0  0  0  0
  9 18  1  0  0  0  0
  9 19  1  0  0  0  0
 14  4  1  0  0  0  0
 15  4  1  0  0  0  0
 16  8  1  0  0  0  0
 17  8  1  0  0  0  0
M TOR 0 0 1 2 3
M TOR 1 0 1 2 6
M TOR 2 0 1 2 12
M TOR 3 1 2 3 4
M TOR 4 1 2 3 13
M TOR 5 1 2 3 14
M TOR 6 1 2 6 4
M TOR 7 1 2 6 7
M TOR 8 1 2 6 8
M TOR 9 2 1 0 9
M TOR 10 2 3 4 5
M TOR 11 2 3 4 6
M TOR 12 2 6 4 5
M TOR 13 2 6 7 8
M TOR 14 2 6 7 15
M TOR 15 2 6 7 16
M TOR 16 2 6 8 17
M TOR 17 2 6 8 18
M TOR 18 3 2 1 10
M TOR 19 3 2 1 11
M TOR 20 3 2 6 7
M TOR 21 3 2 6 8
M TOR 22 3 4 6 7
M TOR 23 3 4 6 8
M TOR 24 4 3 2 12
M TOR 25 4 6 2 12
M TOR 26 4 6 7 8
M TOR 27 4 6 7 15
M TOR 28 4 6 7 16
M TOR 29 4 6 8 17
M TOR 30 4 6 8 18
M TOR 31 5 4 3 13
M TOR 32 5 4 3 14
M TOR 33 5 4 6 7
M TOR 34 5 4 6 8
M TOR 35 6 2 1 10
M TOR 36 6 2 1 11
M TOR 37 6 2 3 13
M TOR 38 6 2 3 14
M TOR 39 6 4 3 13
M TOR 40 6 4 3 14
M TOR 41 6 7 8 17
M TOR 42 6 7 8 18
M TOR 43 6 8 7 15
M TOR 44 6 8 7 16
M TOR 45 7 6 2 12
M TOR 46 8 6 2 12
M  END
$$$$
