gdb 1255	2.2090928	1.292988	1.0464732	1.7961	76.31	-0.25611	0.04297	0.29908	1234.258	0.15373	-422.509562	-422.499676	-422.498732	-422.544543	36.458
 OpenBabel02181911403D

 19 19  0  0  1  0  0  0  0  0999 V2000
    3.1829   -2.2644    2.1921 C   0  0  0  0  0  0  0  0  0  0  0  0
    2.7626   -0.8336    2.5108 C   0  0  1  0  0  0  0  0  0  0  0  0
    3.3614   -0.4698    3.7411 O   0  0  0  0  0  0  0  0  0  0  0  0
    3.1644    0.1587    1.4154 C   0  0  2  0  0  0  0  0  0  0  0  0
    2.4463    0.0596    0.0723 C   0  0  0  0  0  0  0  0  0  0  0  0
    0.9902    0.0945    0.1715 C   0  0  0  0  0  0  0  0  0  0  0  0
   -0.2086    0.1206    0.2484 C   0  0  0  0  0  0  0  0  0  0  0  0
    4.4972    0.7706    1.4597 C   0  0  0  0  0  0  0  0  0  0  0  0
    3.3369    1.4977    1.9046 O   0  0  0  0  0  0  0  0  0  0  0  0
    2.9266   -2.9133    3.0333 H   0  0  0  0  0  0  0  0  0  0  0  0
    2.6693   -2.6410    1.3030 H   0  0  0  0  0  0  0  0  0  0  0  0
    4.2636   -2.3240    2.0307 H   0  0  0  0  0  0  0  0  0  0  0  0
    1.6652   -0.7930    2.5952 H   0  0  0  0  0  0  0  0  0  0  0  0
    3.2516    0.4879    3.8142 H   0  0  0  0  0  0  0  0  0  0  0  0
    2.7905    0.8889   -0.5557 H   0  0  0  0  0  0  0  0  0  0  0  0
    2.7572   -0.8646   -0.4316 H   0  0  0  0  0  0  0  0  0  0  0  0
   -1.2681    0.1494    0.3152 H   0  0  0  0  0  0  0  0  0  0  0  0
    5.1842    0.4804    2.2501 H   0  0  0  0  0  0  0  0  0  0  0  0
    4.9507    1.1475    0.5447 H   0  0  0  0  0  0  0  0  0  0  0  0
  1  2  1  0  0  0  0
  1 10  1  0  0  0  0
  2 13  1  1  0  0  0
  2  3  1  0  0  0  0
  3 14  1  0  0  0  0
  4  5  1  6  0  0  0
  4  8  1  0  0  0  0
  4  9  1  0  0  0  0
  4  2  1  0  0  0  0
  5  6  1  0  0  0  0
  6  7  3  0  0  0  0
  7 17  1  0  0  0  0
  8  9  1  0  0  0  0
  8 18  1  0  0  0  0
 11  1  1  0  0  0  0
 12  1  1  0  0  0  0
 15  5  1  0  0  0  0
 16  5  1  0  0  0  0
 19  8  1  0  0  0  0
M TOR 0 0 1 2 13
M TOR 1 0 1 3 4
M TOR 2 0 1 3 7
M TOR 3 0 1 3 8
M TOR 4 1 3 4 5
M TOR 5 1 3 4 14
M TOR 6 1 3 4 15
M TOR 7 1 3 7 8
M TOR 8 1 3 7 17
M TOR 9 1 3 7 18
M TOR 10 2 1 0 9
M TOR 11 2 1 0 10
M TOR 12 2 1 0 11
M TOR 13 2 1 3 4
M TOR 14 2 1 3 7
M TOR 15 2 1 3 8
M TOR 16 3 1 0 9
M TOR 17 3 1 0 10
M TOR 18 3 1 0 11
M TOR 19 3 1 2 13
M TOR 20 3 4 5 6
M TOR 21 3 8 7 17
M TOR 22 3 8 7 18
M TOR 23 4 3 1 12
M TOR 24 4 3 7 8
M TOR 25 4 3 7 17
M TOR 26 4 3 7 18
M TOR 27 4 5 6 16
M TOR 28 5 4 3 7
M TOR 29 5 4 3 8
M TOR 30 6 5 4 14
M TOR 31 6 5 4 15
M TOR 32 7 3 1 12
M TOR 33 7 3 4 14
M TOR 34 7 3 4 15
M TOR 35 8 3 1 12
M TOR 36 8 3 4 14
M TOR 37 8 3 4 15
M  END
$$$$
