gdb 1740	2.1046595	1.9935532	1.6029063	0.4454	73.71	-0.23211	0.06405	0.29616	955.6245	0.157725	-422.546905	-422.538938	-422.537994	-422.578638	32.04
 OpenBabel02181911403D

 19 21  0  0  1  0  0  0  0  0999 V2000
   -2.5177    0.8041    0.0457 O   0  0  0  0  0  0  0  0  0  0  0  0
   -1.9035    0.7828    1.2778 C   0  0  2  0  0  0  0  0  0  0  0  0
   -1.9087    1.6973    2.4893 C   0  0  2  0  0  0  0  0  0  0  0  0
   -0.3805    1.6506    2.5756 C   0  0  0  0  0  0  0  0  0  0  0  0
   -0.3876    0.4833    1.5479 C   0  0  2  0  0  0  0  0  0  0  0  0
    0.5152    0.6762    0.4922 O   0  0  0  0  0  0  0  0  0  0  0  0
   -0.3664   -0.8850    2.2437 C   0  0  0  0  0  0  0  0  0  0  0  0
   -1.6340   -0.8558    3.1402 C   0  0  0  0  0  0  0  0  0  0  0  0
   -2.4888    0.2666    2.5377 C   0  0  2  0  0  0  0  0  0  0  0  0
   -2.0374    1.4373   -0.5017 H   0  0  0  0  0  0  0  0  0  0  0  0
   -2.5409    2.5447    2.7268 H   0  0  0  0  0  0  0  0  0  0  0  0
    0.0768    2.5379    2.1309 H   0  0  0  0  0  0  0  0  0  0  0  0
    0.0848    1.4502    3.5472 H   0  0  0  0  0  0  0  0  0  0  0  0
    0.4595   -0.0928   -0.0866 H   0  0  0  0  0  0  0  0  0  0  0  0
   -0.4503   -1.6769    1.4868 H   0  0  0  0  0  0  0  0  0  0  0  0
    0.5586   -1.0537    2.8032 H   0  0  0  0  0  0  0  0  0  0  0  0
   -2.1659   -1.8112    3.1169 H   0  0  0  0  0  0  0  0  0  0  0  0
   -1.3837   -0.6558    4.1874 H   0  0  0  0  0  0  0  0  0  0  0  0
   -3.5690    0.2313    2.6280 H   0  0  0  0  0  0  0  0  0  0  0  0
  2  1  1  6  0  0  0
  2  5  1  0  0  0  0
  2  3  1  0  0  0  0
  2  9  1  0  0  0  0
  3  9  1  0  0  0  0
  3  4  1  0  0  0  0
  3 11  1  1  0  0  0
  4 13  1  0  0  0  0
  5  6  1  6  0  0  0
  5  7  1  0  0  0  0
  5  4  1  0  0  0  0
  7 16  1  0  0  0  0
  7  8  1  0  0  0  0
  8 18  1  0  0  0  0
  9 19  1  1  0  0  0
  9  8  1  0  0  0  0
 10  1  1  0  0  0  0
 12  4  1  0  0  0  0
 14  6  1  0  0  0  0
 15  7  1  0  0  0  0
 17  8  1  0  0  0  0
M TOR 0 0 1 2 3
M TOR 1 0 1 2 8
M TOR 2 0 1 2 10
M TOR 3 0 1 4 3
M TOR 4 0 1 4 5
M TOR 5 0 1 4 6
M TOR 6 0 1 8 7
M TOR 7 0 1 8 18
M TOR 8 1 2 3 4
M TOR 9 1 2 3 11
M TOR 10 1 2 3 12
M TOR 11 1 2 8 7
M TOR 12 1 2 8 18
M TOR 13 1 4 3 11
M TOR 14 1 4 3 12
M TOR 15 1 4 5 13
M TOR 16 1 4 6 7
M TOR 17 1 4 6 14
M TOR 18 1 4 6 15
M TOR 19 1 8 2 3
M TOR 20 1 8 2 10
M TOR 21 1 8 7 6
M TOR 22 1 8 7 16
M TOR 23 1 8 7 17
M TOR 24 2 1 0 9
M TOR 25 2 1 4 5
M TOR 26 2 1 4 6
M TOR 27 2 3 4 5
M TOR 28 2 3 4 6
M TOR 29 2 8 1 4
M TOR 30 2 8 7 6
M TOR 31 2 8 7 16
M TOR 32 2 8 7 17
M TOR 33 3 2 8 7
M TOR 34 3 2 8 18
M TOR 35 3 4 1 8
M TOR 36 3 4 5 13
M TOR 37 3 4 6 7
M TOR 38 3 4 6 14
M TOR 39 3 4 6 15
M TOR 40 4 1 0 9
M TOR 41 4 1 2 10
M TOR 42 4 1 8 7
M TOR 43 4 1 8 18
M TOR 44 4 3 2 8
M TOR 45 4 3 2 10
M TOR 46 4 6 7 8
M TOR 47 4 6 7 16
M TOR 48 4 6 7 17
M TOR 49 5 4 1 8
M TOR 50 5 4 3 11
M TOR 51 5 4 3 12
M TOR 52 5 4 6 7
M TOR 53 5 4 6 14
M TOR 54 5 4 6 15
M TOR 55 6 4 1 8
M TOR 56 6 4 3 11
M TOR 57 6 4 3 12
M TOR 58 6 4 5 13
M TOR 59 6 7 8 18
M TOR 60 7 8 2 10
M TOR 61 8 1 0 9
M TOR 62 8 2 3 11
M TOR 63 8 2 3 12
M TOR 64 8 7 6 14
M TOR 65 8 7 6 15
M  END
$$$$
