gdb 5769	2.2195207	1.4168016	1.0278621	2.7145	76.99	-0.24796	-0.03075	0.21721000000000001	1199.9583	0.155975	-422.53905	-422.53001	-422.529066	-422.573122	33.069
 OpenBabel02181911423D

 19 20  0  0  1  0  0  0  0  0999 V2000
   -0.5900   -1.3792   -0.1441 O   0  0  0  0  0  0  0  0  0  0  0  0
    0.1189   -0.1511   -0.0952 C   0  0  0  0  0  0  0  0  0  0  0  0
   -0.2597    0.7677   -1.2502 C   0  0  1  0  0  0  0  0  0  0  0  0
    0.5612    2.0800   -1.4822 C   0  0  0  0  0  0  0  0  0  0  0  0
    0.8723    1.6308   -2.9141 C   0  0  1  0  0  0  0  0  0  0  0  0
    1.5802    0.3286   -2.9391 C   0  0  0  0  0  0  0  0  0  0  0  0
    0.0889    0.2948   -2.6739 C   0  0  1  0  0  0  0  0  0  0  0  0
   -0.8404   -0.3069   -3.6415 C   0  0  0  0  0  0  0  0  0  0  0  0
   -0.5500   -0.6272   -4.7729 O   0  0  0  0  0  0  0  0  0  0  0  0
   -0.2779   -1.8658   -0.9141 H   0  0  0  0  0  0  0  0  0  0  0  0
   -0.1496    0.3174    0.8581 H   0  0  0  0  0  0  0  0  0  0  0  0
    1.2074   -0.3182   -0.0751 H   0  0  0  0  0  0  0  0  0  0  0  0
   -1.3303    0.9871   -1.1849 H   0  0  0  0  0  0  0  0  0  0  0  0
   -0.0537    2.9794   -1.4256 H   0  0  0  0  0  0  0  0  0  0  0  0
    1.4404    2.2179   -0.8434 H   0  0  0  0  0  0  0  0  0  0  0  0
    0.7820    2.2445   -3.8018 H   0  0  0  0  0  0  0  0  0  0  0  0
    1.8428   -0.0477   -3.9217 H   0  0  0  0  0  0  0  0  0  0  0  0
    2.2682    0.0631   -2.1407 H   0  0  0  0  0  0  0  0  0  0  0  0
   -1.8791   -0.4330   -3.2591 H   0  0  0  0  0  0  0  0  0  0  0  0
  1  2  1  0  0  0  0
  2 12  1  0  0  0  0
  2 11  1  0  0  0  0
  3 13  1  1  0  0  0
  3  2  1  0  0  0  0
  4 14  1  0  0  0  0
  4  3  1  0  0  0  0
  4 15  1  0  0  0  0
  5 16  1  6  0  0  0
  5  7  1  0  0  0  0
  5  4  1  0  0  0  0
  6  5  1  0  0  0  0
  6  7  1  0  0  0  0
  6 18  1  0  0  0  0
  7  8  1  6  0  0  0
  7  3  1  0  0  0  0
  8 19  1  0  0  0  0
  9  8  2  0  0  0  0
 10  1  1  0  0  0  0
 17  6  1  0  0  0  0
M TOR 0 0 1 2 3
M TOR 1 0 1 2 6
M TOR 2 0 1 2 12
M TOR 3 1 2 3 4
M TOR 4 1 2 3 13
M TOR 5 1 2 3 14
M TOR 6 1 2 6 4
M TOR 7 1 2 6 5
M TOR 8 1 2 6 7
M TOR 9 2 1 0 9
M TOR 10 2 3 4 5
M TOR 11 2 3 4 6
M TOR 12 2 3 4 15
M TOR 13 2 6 4 5
M TOR 14 2 6 4 15
M TOR 15 2 6 5 16
M TOR 16 2 6 5 17
M TOR 17 2 6 7 8
M TOR 18 2 6 7 18
M TOR 19 3 2 1 10
M TOR 20 3 2 1 11
M TOR 21 3 2 6 5
M TOR 22 3 2 6 7
M TOR 23 3 4 5 6
M TOR 24 3 4 5 16
M TOR 25 3 4 5 17
M TOR 26 3 4 6 7
M TOR 27 4 3 2 12
M TOR 28 4 5 6 7
M TOR 29 4 6 2 12
M TOR 30 4 6 5 16
M TOR 31 4 6 5 17
M TOR 32 4 6 7 8
M TOR 33 4 6 7 18
M TOR 34 5 4 3 13
M TOR 35 5 4 3 14
M TOR 36 5 6 2 12
M TOR 37 5 6 4 15
M TOR 38 5 6 7 8
M TOR 39 5 6 7 18
M TOR 40 6 2 1 10
M TOR 41 6 2 1 11
M TOR 42 6 2 3 13
M TOR 43 6 2 3 14
M TOR 44 6 4 3 13
M TOR 45 6 4 3 14
M TOR 46 7 6 2 12
M TOR 47 7 6 4 15
M TOR 48 7 6 5 16
M TOR 49 7 6 5 17
M  END
$$$$
