
     RDKit          3D

 19 21  0  0  0  0  0  0  0  0999 V2000
    1.4337    0.0648   -0.0869 C   0  0  0  0  0  0  0  0  0  0  0  0
    0.0260    0.0372    0.0356 O   0  0  0  0  0  0  0  0  0  0  0  0
   -0.4347    0.6253    1.2204 C   0  0  0  0  0  0  0  0  0  0  0  0
   -1.9461    0.8763    1.2658 C   0  0  0  0  0  0  0  0  0  0  0  0
   -1.8021    2.0698    2.2685 C   0  0  0  0  0  0  0  0  0  0  0  0
   -2.6522    3.0076    1.3862 C   0  0  0  0  0  0  0  0  0  0  0  0
   -1.8473    2.1656    0.3744 C   0  0  0  0  0  0  0  0  0  0  0  0
   -0.5759    2.1642    1.2804 C   0  0  0  0  0  0  0  0  0  0  0  0
    0.3911    3.1518    1.2159 O   0  0  0  0  0  0  0  0  0  0  0  0
    1.9212   -0.4707    0.7438 H   0  0  0  0  0  0  0  0  0  0  0  0
    1.6881   -0.4374   -1.0233 H   0  0  0  0  0  0  0  0  0  0  0  0
    1.8199    1.0927   -0.1135 H   0  0  0  0  0  0  0  0  0  0  0  0
    0.0139    0.1412    2.1053 H   0  0  0  0  0  0  0  0  0  0  0  0
   -2.7534    0.1485    1.2525 H   0  0  0  0  0  0  0  0  0  0  0  0
   -1.7551    1.9862    3.3556 H   0  0  0  0  0  0  0  0  0  0  0  0
   -3.7351    2.8519    1.4055 H   0  0  0  0  0  0  0  0  0  0  0  0
   -2.4133    4.0736    1.4338 H   0  0  0  0  0  0  0  0  0  0  0  0
   -1.8533    2.1888   -0.7136 H   0  0  0  0  0  0  0  0  0  0  0  0
    0.9333    3.1023    2.0109 H   0  0  0  0  0  0  0  0  0  0  0  0
  1  2  1  0
  2  3  1  0
  3  4  1  0
  4  5  1  0
  5  6  1  0
  6  7  1  0
  7  8  1  0
  8  9  1  0
  8  3  1  0
  7  4  1  0
  8  5  1  0
  1 10  1  0
  1 11  1  0
  1 12  1  0
  3 13  1  0
  4 14  1  0
  5 15  1  0
  6 16  1  0
  6 17  1  0
  7 18  1  0
  9 19  1  0
M  END
$$$$
