gdb 1137	2.4696834	1.4292713	1.1052157	3.2063	75.79	-0.23172	-0.02087	0.21085	1162.6406	0.154634	-422.534184	-422.524959	-422.524015	-422.569002	33.312
 OpenBabel02181911403D

 19 20  0  0  1  0  0  0  0  0999 V2000
    3.7442   -0.7758   -2.4788 C   0  0  0  0  0  0  0  0  0  0  0  0
    2.5879   -0.1319   -1.7375 C   0  0  0  0  0  0  0  0  0  0  0  0
    2.7602    0.6650   -0.8448 O   0  0  0  0  0  0  0  0  0  0  0  0
    1.1941   -0.5379   -2.1948 C   0  0  1  0  0  0  0  0  0  0  0  0
    0.0198   -0.0616   -1.3198 C   0  0  0  0  0  0  0  0  0  0  0  0
   -0.5043    0.7722   -2.3824 O   0  0  0  0  0  0  0  0  0  0  0  0
    0.5551    0.3884   -3.2491 C   0  0  0  0  0  0  0  0  0  0  0  0
    1.1685    1.3543   -4.2081 C   0  0  0  0  0  0  0  0  0  0  0  0
    0.3393    0.1771   -4.7099 C   0  0  0  0  0  0  0  0  0  0  0  0
    3.7817   -1.8452   -2.2374 H   0  0  0  0  0  0  0  0  0  0  0  0
    3.6061   -0.7043   -3.5634 H   0  0  0  0  0  0  0  0  0  0  0  0
    4.6848   -0.3067   -2.1885 H   0  0  0  0  0  0  0  0  0  0  0  0
    1.1717   -1.5927   -2.4802 H   0  0  0  0  0  0  0  0  0  0  0  0
   -0.6943   -0.8363   -1.0228 H   0  0  0  0  0  0  0  0  0  0  0  0
    0.3314    0.5293   -0.4544 H   0  0  0  0  0  0  0  0  0  0  0  0
    0.7162    2.3391   -4.2512 H   0  0  0  0  0  0  0  0  0  0  0  0
    2.2417    1.3447   -4.3679 H   0  0  0  0  0  0  0  0  0  0  0  0
   -0.6535    0.3897   -5.0920 H   0  0  0  0  0  0  0  0  0  0  0  0
    0.8496   -0.6455   -5.2017 H   0  0  0  0  0  0  0  0  0  0  0  0
  1 10  1  0  0  0  0
  1 12  1  0  0  0  0
  1  2  1  0  0  0  0
  2  3  2  0  0  0  0
  4 13  1  6  0  0  0
  4  2  1  0  0  0  0
  4  5  1  0  0  0  0
  5 14  1  0  0  0  0
  5 15  1  0  0  0  0
  6  5  1  0  0  0  0
  7  6  1  0  0  0  0
  7  4  1  0  0  0  0
  8  7  1  0  0  0  0
  9  8  1  0  0  0  0
  9  7  1  0  0  0  0
 11  1  1  0  0  0  0
 16  8  1  0  0  0  0
 17  8  1  0  0  0  0
 18  9  1  0  0  0  0
 19  9  1  0  0  0  0
M TOR 0 0 1 3 4
M TOR 1 0 1 3 6
M TOR 2 0 1 3 12
M TOR 3 1 3 4 5
M TOR 4 1 3 4 13
M TOR 5 1 3 4 14
M TOR 6 1 3 6 5
M TOR 7 1 3 6 7
M TOR 8 1 3 6 8
M TOR 9 2 1 0 9
M TOR 10 2 1 0 10
M TOR 11 2 1 0 11
M TOR 12 2 1 3 4
M TOR 13 2 1 3 6
M TOR 14 2 1 3 12
M TOR 15 3 1 0 9
M TOR 16 3 1 0 10
M TOR 17 3 1 0 11
M TOR 18 3 4 5 6
M TOR 19 3 6 7 8
M TOR 20 3 6 7 15
M TOR 21 3 6 7 16
M TOR 22 3 6 8 17
M TOR 23 3 6 8 18
M TOR 24 4 3 6 7
M TOR 25 4 3 6 8
M TOR 26 4 5 6 7
M TOR 27 4 5 6 8
M TOR 28 5 4 3 12
M TOR 29 5 6 3 12
M TOR 30 5 6 7 8
M TOR 31 5 6 7 15
M TOR 32 5 6 7 16
M TOR 33 5 6 8 17
M TOR 34 5 6 8 18
M TOR 35 6 3 4 13
M TOR 36 6 3 4 14
M TOR 37 6 5 4 13
M TOR 38 6 5 4 14
M TOR 39 6 7 8 17
M TOR 40 6 7 8 18
M TOR 41 6 8 7 15
M TOR 42 6 8 7 16
M TOR 43 7 6 3 12
M TOR 44 8 6 3 12
M  END
$$$$
