gdb 3846	2.8016229	1.6475041	1.4069791	1.6495	73.73	-0.24344	0.06902	0.31245999999999996	984.2701	0.1579	-422.545055	-422.537262	-422.536318	-422.576691	31.612
 OpenBabel02181911413D

 19 21  0  0  1  0  0  0  0  0999 V2000
    0.0661    0.0736   -0.0528 O   0  0  0  0  0  0  0  0  0  0  0  0
   -0.6002    0.8757    0.9195 C   0  0  2  0  0  0  0  0  0  0  0  0
   -1.1115    0.0819    2.1551 C   0  0  0  0  0  0  0  0  0  0  0  0
   -2.6086   -0.1119    1.8783 C   0  0  2  0  0  0  0  0  0  0  0  0
   -3.3939   -0.4934    2.9751 O   0  0  0  0  0  0  0  0  0  0  0  0
   -2.8290   -0.8719    0.5245 C   0  0  0  0  0  0  0  0  0  0  0  0
   -2.9586    0.4909   -0.1562 C   0  0  2  0  0  0  0  0  0  0  0  0
   -1.8709    1.4488    0.3060 C   0  0  1  0  0  0  0  0  0  0  0  0
   -3.0666    1.2006    1.1798 C   0  0  2  0  0  0  0  0  0  0  0  0
    0.9106   -0.1997    0.3193 H   0  0  0  0  0  0  0  0  0  0  0  0
    0.0623    1.6920    1.2400 H   0  0  0  0  0  0  0  0  0  0  0  0
   -0.5691   -0.8633    2.2761 H   0  0  0  0  0  0  0  0  0  0  0  0
   -0.9916    0.6710    3.0712 H   0  0  0  0  0  0  0  0  0  0  0  0
   -3.1099   -1.3699    3.2564 H   0  0  0  0  0  0  0  0  0  0  0  0
   -2.0376   -1.5443    0.1814 H   0  0  0  0  0  0  0  0  0  0  0  0
   -3.7915   -1.3900    0.5510 H   0  0  0  0  0  0  0  0  0  0  0  0
   -3.5012    0.6914   -1.0722 H   0  0  0  0  0  0  0  0  0  0  0  0
   -1.8076    2.3760   -0.2518 H   0  0  0  0  0  0  0  0  0  0  0  0
   -3.7662    1.9336    1.5574 H   0  0  0  0  0  0  0  0  0  0  0  0
  1 10  1  0  0  0  0
  1  2  1  0  0  0  0
  2 11  1  1  0  0  0
  2  3  1  0  0  0  0
  3 12  1  0  0  0  0
  3 13  1  0  0  0  0
  4  3  1  0  0  0  0
  4  5  1  1  0  0  0
  5 14  1  0  0  0  0
  6 16  1  0  0  0  0
  6  4  1  0  0  0  0
  7 17  1  6  0  0  0
  7  8  1  0  0  0  0
  7  6  1  0  0  0  0
  7  9  1  0  0  0  0
  8 18  1  6  0  0  0
  8  2  1  0  0  0  0
  8  9  1  0  0  0  0
  9 19  1  1  0  0  0
  9  4  1  0  0  0  0
 15  6  1  0  0  0  0
M TOR 0 0 1 2 3
M TOR 1 0 1 2 11
M TOR 2 0 1 2 12
M TOR 3 0 1 7 6
M TOR 4 0 1 7 8
M TOR 5 0 1 7 17
M TOR 6 1 2 3 4
M TOR 7 1 2 3 5
M TOR 8 1 2 3 8
M TOR 9 1 7 6 5
M TOR 10 1 7 6 8
M TOR 11 1 7 6 16
M TOR 12 1 7 8 3
M TOR 13 1 7 8 18
M TOR 14 2 1 0 9
M TOR 15 2 1 7 6
M TOR 16 2 1 7 8
M TOR 17 2 1 7 17
M TOR 18 2 3 4 13
M TOR 19 2 3 5 6
M TOR 20 2 3 5 14
M TOR 21 2 3 5 15
M TOR 22 2 3 8 6
M TOR 23 2 3 8 7
M TOR 24 2 3 8 18
M TOR 25 3 2 1 7
M TOR 26 3 2 1 10
M TOR 27 3 5 6 7
M TOR 28 3 5 6 8
M TOR 29 3 5 6 16
M TOR 30 3 8 6 7
M TOR 31 3 8 6 16
M TOR 32 3 8 7 17
M TOR 33 4 3 2 11
M TOR 34 4 3 2 12
M TOR 35 4 3 5 6
M TOR 36 4 3 5 14
M TOR 37 4 3 5 15
M TOR 38 4 3 8 6
M TOR 39 4 3 8 7
M TOR 40 4 3 8 18
M TOR 41 5 3 2 11
M TOR 42 5 3 2 12
M TOR 43 5 3 4 13
M TOR 44 5 3 8 7
M TOR 45 5 3 8 18
M TOR 46 5 6 7 8
M TOR 47 5 6 7 17
M TOR 48 5 6 8 18
M TOR 49 6 7 1 10
M TOR 50 6 7 8 18
M TOR 51 6 8 7 17
M TOR 52 7 1 0 9
M TOR 53 7 1 2 11
M TOR 54 7 1 2 12
M TOR 55 7 6 5 14
M TOR 56 7 6 5 15
M TOR 57 7 8 6 16
M TOR 58 8 3 2 11
M TOR 59 8 3 2 12
M TOR 60 8 3 4 13
M TOR 61 8 3 5 14
M TOR 62 8 3 5 15
M TOR 63 8 6 5 14
M TOR 64 8 6 5 15
M TOR 65 8 7 1 10
M  END
$$$$
