
     RDKit          3D

 19 19  0  0  0  0  0  0  0  0999 V2000
    1.4187    0.4675    1.2264 C   0  0  0  0  0  0  0  0  0  0  0  0
    1.5568    0.6663   -0.2870 C   0  0  0  0  0  0  0  0  0  0  0  0
    2.0160   -0.5852   -1.0383 C   0  0  0  0  0  0  0  0  0  0  0  0
    3.2828   -1.0313   -0.6313 O   0  0  0  0  0  0  0  0  0  0  0  0
    0.9207   -1.6670   -1.2312 C   0  0  0  0  0  0  0  0  0  0  0  0
    0.7239   -1.2719   -2.6045 O   0  0  0  0  0  0  0  0  0  0  0  0
    1.9044   -0.4283   -2.5906 C   0  0  0  0  0  0  0  0  0  0  0  0
    2.9989   -0.9457   -3.3929 C   0  0  0  0  0  0  0  0  0  0  0  0
    3.8924   -1.3590   -4.0818 C   0  0  0  0  0  0  0  0  0  0  0  0
    0.7222   -0.3432    1.4668 H   0  0  0  0  0  0  0  0  0  0  0  0
    2.3808    0.2400    1.7004 H   0  0  0  0  0  0  0  0  0  0  0  0
    1.0428    1.3771    1.7030 H   0  0  0  0  0  0  0  0  0  0  0  0
    0.5939    0.9830   -0.7044 H   0  0  0  0  0  0  0  0  0  0  0  0
    2.2743    1.4700   -0.4930 H   0  0  0  0  0  0  0  0  0  0  0  0
    3.2890   -1.0992    0.3289 H   0  0  0  0  0  0  0  0  0  0  0  0
    1.3153   -2.6871   -1.1487 H   0  0  0  0  0  0  0  0  0  0  0  0
   -0.0002   -1.5727   -0.6444 H   0  0  0  0  0  0  0  0  0  0  0  0
    1.6538    0.5892   -2.9169 H   0  0  0  0  0  0  0  0  0  0  0  0
    4.6862   -1.7299   -4.6819 H   0  0  0  0  0  0  0  0  0  0  0  0
  1  2  1  0
  2  3  1  0
  3  4  1  0
  3  5  1  0
  5  6  1  0
  6  7  1  0
  7  8  1  0
  8  9  3  0
  7  3  1  0
  1 10  1  0
  1 11  1  0
  1 12  1  0
  2 13  1  0
  2 14  1  0
  4 15  1  0
  5 16  1  0
  5 17  1  0
  7 18  1  0
  9 19  1  0
M  END
$$$$
