gdb 3542	2.5902285	1.5270814	1.1684373	4.3251	75.43	-0.26185	0.01593	0.27778	1114.8917	0.157624	-422.600181	-422.591797	-422.590853	-422.633374	31.69
 OpenBabel02181911413D

 19 20  0  0  1  0  0  0  0  0999 V2000
   -2.6724   -1.2410   -1.2033 C   0  0  0  0  0  0  0  0  0  0  0  0
   -2.1998   -0.7720    0.1667 C   0  0  2  0  0  0  0  0  0  0  0  0
   -2.2644    0.7617    0.3704 C   0  0  0  0  0  0  0  0  0  0  0  0
   -0.8342    1.1873    0.1069 C   0  0  0  0  0  0  0  0  0  0  0  0
   -0.4026    2.1984   -0.9424 C   0  0  0  0  0  0  0  0  0  0  0  0
   -0.2244    2.5055    0.5120 C   0  0  0  0  0  0  0  0  0  0  0  0
    0.0056   -0.0455    0.2359 C   0  0  0  0  0  0  0  0  0  0  0  0
    1.2027   -0.1280    0.2491 O   0  0  0  0  0  0  0  0  0  0  0  0
   -0.8068   -1.1299    0.3370 O   0  0  0  0  0  0  0  0  0  0  0  0
   -2.4713   -2.3076   -1.3330 H   0  0  0  0  0  0  0  0  0  0  0  0
   -3.7494   -1.0748   -1.3081 H   0  0  0  0  0  0  0  0  0  0  0  0
   -2.1593   -0.6937   -2.0008 H   0  0  0  0  0  0  0  0  0  0  0  0
   -2.7444   -1.3039    0.9514 H   0  0  0  0  0  0  0  0  0  0  0  0
   -2.9914    1.2243   -0.3017 H   0  0  0  0  0  0  0  0  0  0  0  0
   -2.5593    0.9984    1.3978 H   0  0  0  0  0  0  0  0  0  0  0  0
    0.4809    1.9541   -1.5212 H   0  0  0  0  0  0  0  0  0  0  0  0
   -1.1912    2.7058   -1.4878 H   0  0  0  0  0  0  0  0  0  0  0  0
    0.7804    2.4626    0.9174 H   0  0  0  0  0  0  0  0  0  0  0  0
   -0.8850    3.2327    0.9719 H   0  0  0  0  0  0  0  0  0  0  0  0
  1  2  1  0  0  0  0
  2  9  1  0  0  0  0
  2  3  1  0  0  0  0
  2 13  1  1  0  0  0
  3 15  1  0  0  0  0
  4  7  1  0  0  0  0
  4  3  1  0  0  0  0
  4  6  1  0  0  0  0
  5  4  1  0  0  0  0
  5  6  1  0  0  0  0
  6 18  1  0  0  0  0
  6 19  1  0  0  0  0
  7  8  2  0  0  0  0
  7  9  1  0  0  0  0
 10  1  1  0  0  0  0
 11  1  1  0  0  0  0
 12  1  1  0  0  0  0
 14  3  1  0  0  0  0
 16  5  1  0  0  0  0
 17  5  1  0  0  0  0
M TOR 0 0 1 2 3
M TOR 1 0 1 2 13
M TOR 2 0 1 2 14
M TOR 3 0 1 8 6
M TOR 4 1 2 3 4
M TOR 5 1 2 3 5
M TOR 6 1 2 3 6
M TOR 7 1 8 6 3
M TOR 8 1 8 6 7
M TOR 9 2 1 0 9
M TOR 10 2 1 0 10
M TOR 11 2 1 0 11
M TOR 12 2 1 8 6
M TOR 13 2 3 4 5
M TOR 14 2 3 4 15
M TOR 15 2 3 4 16
M TOR 16 2 3 5 17
M TOR 17 2 3 5 18
M TOR 18 2 3 6 7
M TOR 19 2 3 6 8
M TOR 20 3 2 1 8
M TOR 21 3 2 1 12
M TOR 22 3 4 5 17
M TOR 23 3 4 5 18
M TOR 24 3 5 4 15
M TOR 25 3 5 4 16
M TOR 26 4 3 2 13
M TOR 27 4 3 2 14
M TOR 28 4 3 6 7
M TOR 29 4 3 6 8
M TOR 30 4 5 3 6
M TOR 31 5 3 2 13
M TOR 32 5 3 2 14
M TOR 33 5 3 6 7
M TOR 34 5 3 6 8
M TOR 35 6 3 2 13
M TOR 36 6 3 2 14
M TOR 37 6 3 4 15
M TOR 38 6 3 4 16
M TOR 39 6 3 5 17
M TOR 40 6 3 5 18
M TOR 41 6 8 1 12
M TOR 42 8 1 0 9
M TOR 43 8 1 0 10
M TOR 44 8 1 0 11
M TOR 45 8 1 2 13
M TOR 46 8 1 2 14
M  END
$$$$
