
     RDKit          3D

 19 21  0  0  0  0  0  0  0  0999 V2000
    0.0228    1.4720   -0.0390 C   0  0  0  0  0  0  0  0  0  0  0  0
    1.3326    0.7279    0.0021 C   0  0  0  0  0  0  0  0  0  0  0  0
    2.1401    0.4580   -1.1042 O   0  0  0  0  0  0  0  0  0  0  0  0
    2.3809   -0.9629   -1.1397 C   0  0  0  0  0  0  0  0  0  0  0  0
    1.0790   -1.7814   -0.9044 C   0  0  0  0  0  0  0  0  0  0  0  0
   -0.0862   -0.8625   -1.2644 C   0  0  0  0  0  0  0  0  0  0  0  0
    0.0301   -0.0325    0.0118 C   0  0  0  0  0  0  0  0  0  0  0  0
   -0.0194   -1.1022    1.0722 C   0  0  0  0  0  0  0  0  0  0  0  0
    0.8563   -2.1006    0.4928 O   0  0  0  0  0  0  0  0  0  0  0  0
   -0.2233    2.0490    0.8467 H   0  0  0  0  0  0  0  0  0  0  0  0
   -0.3145    1.9158   -0.9697 H   0  0  0  0  0  0  0  0  0  0  0  0
    1.8784    0.7804    0.9458 H   0  0  0  0  0  0  0  0  0  0  0  0
    2.7882   -1.1679   -2.1345 H   0  0  0  0  0  0  0  0  0  0  0  0
    3.1267   -1.2441   -0.3829 H   0  0  0  0  0  0  0  0  0  0  0  0
    1.1327   -2.7340   -1.4376 H   0  0  0  0  0  0  0  0  0  0  0  0
    0.0752   -0.2945   -2.1796 H   0  0  0  0  0  0  0  0  0  0  0  0
   -1.0394   -1.3954   -1.3223 H   0  0  0  0  0  0  0  0  0  0  0  0
    0.3868   -0.7900    2.0396 H   0  0  0  0  0  0  0  0  0  0  0  0
   -1.0169   -1.5353    1.2294 H   0  0  0  0  0  0  0  0  0  0  0  0
  1  2  1  0
  2  3  1  0
  3  4  1  0
  4  5  1  0
  5  6  1  0
  6  7  1  0
  7  8  1  0
  8  9  1  0
  7  1  1  0
  7  2  1  0
  9  5  1  0
  1 10  1  0
  1 11  1  0
  2 12  1  0
  4 13  1  0
  4 14  1  0
  5 15  1  0
  6 16  1  0
  6 17  1  0
  8 18  1  0
  8 19  1  0
M  END
$$$$
