
     RDKit          3D

 19 21  0  0  0  0  0  0  0  0999 V2000
    1.4477    0.7555   -3.0956 C   0  0  0  0  0  0  0  0  0  0  0  0
    0.4726    0.2731   -2.0477 C   0  0  0  0  0  0  0  0  0  0  0  0
    0.1323   -1.1955   -1.9824 C   0  0  0  0  0  0  0  0  0  0  0  0
   -0.9324   -0.1965   -2.3762 C   0  0  0  0  0  0  0  0  0  0  0  0
   -1.8355    0.2802   -1.2572 C   0  0  0  0  0  0  0  0  0  0  0  0
   -1.5123   -0.2533    0.0415 O   0  0  0  0  0  0  0  0  0  0  0  0
   -1.0558    1.0681   -0.2963 C   0  0  0  0  0  0  0  0  0  0  0  0
    0.4091    1.0864   -0.7326 C   0  0  0  0  0  0  0  0  0  0  0  0
    1.2966    0.6569    0.2832 O   0  0  0  0  0  0  0  0  0  0  0  0
    1.3914    0.1451   -4.0024 H   0  0  0  0  0  0  0  0  0  0  0  0
    1.2507    1.7961   -3.3798 H   0  0  0  0  0  0  0  0  0  0  0  0
    2.4760    0.7016   -2.7199 H   0  0  0  0  0  0  0  0  0  0  0  0
    0.5429   -1.8179   -2.7710 H   0  0  0  0  0  0  0  0  0  0  0  0
    0.0216   -1.6919   -1.0265 H   0  0  0  0  0  0  0  0  0  0  0  0
   -1.3232   -0.1864   -3.3875 H   0  0  0  0  0  0  0  0  0  0  0  0
   -2.8955    0.4367   -1.4352 H   0  0  0  0  0  0  0  0  0  0  0  0
   -1.4561    1.8678    0.3221 H   0  0  0  0  0  0  0  0  0  0  0  0
    0.6999    2.1205   -0.9523 H   0  0  0  0  0  0  0  0  0  0  0  0
    0.9583   -0.1876    0.6036 H   0  0  0  0  0  0  0  0  0  0  0  0
  1  2  1  0
  2  3  1  0
  3  4  1  0
  4  5  1  0
  5  6  1  0
  6  7  1  0
  7  8  1  0
  8  9  1  0
  4  2  1  0
  7  5  1  0
  8  2  1  0
  1 10  1  0
  1 11  1  0
  1 12  1  0
  3 13  1  0
  3 14  1  0
  4 15  1  0
  5 16  1  0
  7 17  1  0
  8 18  1  0
  9 19  1  0
M  END
$$$$
