
     RDKit          3D

 19 21  0  0  0  0  0  0  0  0999 V2000
    0.0270    3.5621   -0.5012 C   0  0  0  0  0  0  0  0  0  0  0  0
    0.7345    2.6438   -1.5346 C   0  0  0  0  0  0  0  0  0  0  0  0
    1.9264    1.9918   -0.8039 C   0  0  0  0  0  0  0  0  0  0  0  0
    1.4022    1.4734    0.5680 C   0  0  0  0  0  0  0  0  0  0  0  0
   -0.0895    1.1824    0.3609 C   0  0  0  0  0  0  0  0  0  0  0  0
   -0.1561    0.4707   -0.8938 O   0  0  0  0  0  0  0  0  0  0  0  0
   -0.4024    1.5569   -1.7664 C   0  0  0  0  0  0  0  0  0  0  0  0
   -1.5715    2.1307   -1.2085 O   0  0  0  0  0  0  0  0  0  0  0  0
   -0.9363    2.4933    0.0295 C   0  0  0  0  0  0  0  0  0  0  0  0
    0.7169    3.9875    0.2304 H   0  0  0  0  0  0  0  0  0  0  0  0
   -0.5486    4.3698   -0.9567 H   0  0  0  0  0  0  0  0  0  0  0  0
    1.0258    3.1410   -2.4607 H   0  0  0  0  0  0  0  0  0  0  0  0
    2.3282    1.1611   -1.3894 H   0  0  0  0  0  0  0  0  0  0  0  0
    2.7337    2.7182   -0.6705 H   0  0  0  0  0  0  0  0  0  0  0  0
    1.9185    0.5551    0.8604 H   0  0  0  0  0  0  0  0  0  0  0  0
    1.5598    2.1984    1.3733 H   0  0  0  0  0  0  0  0  0  0  0  0
   -0.5397    0.5688    1.1428 H   0  0  0  0  0  0  0  0  0  0  0  0
   -0.5721    1.2001   -2.7809 H   0  0  0  0  0  0  0  0  0  0  0  0
   -1.6778    2.7806    0.7732 H   0  0  0  0  0  0  0  0  0  0  0  0
  1  2  1  0
  2  3  1  0
  3  4  1  0
  4  5  1  0
  5  6  1  0
  6  7  1  0
  7  8  1  0
  8  9  1  0
  9  1  1  0
  7  2  1  0
  9  5  1  0
  1 10  1  0
  1 11  1  0
  2 12  1  0
  3 13  1  0
  3 14  1  0
  4 15  1  0
  4 16  1  0
  5 17  1  0
  7 18  1  0
  9 19  1  0
M  END
$$$$
