
     RDKit          3D

 19 19  0  0  0  0  0  0  0  0999 V2000
   -0.3063    2.6981   -0.5156 O   0  0  0  0  0  0  0  0  0  0  0  0
   -0.6078    1.5337   -0.6511 C   0  0  0  0  0  0  0  0  0  0  0  0
   -1.8149    0.9380    0.0766 C   0  0  0  0  0  0  0  0  0  0  0  0
   -1.4752    0.3685    1.4660 C   0  0  0  0  0  0  0  0  0  0  0  0
   -0.4469   -0.7525    1.4113 C   0  0  0  0  0  0  0  0  0  0  0  0
    0.8011   -0.2200    0.9827 O   0  0  0  0  0  0  0  0  0  0  0  0
    1.4073   -0.8502   -0.1197 C   0  0  0  0  0  0  0  0  0  0  0  0
    0.9450   -0.3337   -1.4538 C   0  0  0  0  0  0  0  0  0  0  0  0
    0.1049    0.6766   -1.6661 C   0  0  0  0  0  0  0  0  0  0  0  0
   -2.5410    1.7485    0.1902 H   0  0  0  0  0  0  0  0  0  0  0  0
   -2.2653    0.1513   -0.5402 H   0  0  0  0  0  0  0  0  0  0  0  0
   -1.0850    1.1713    2.1011 H   0  0  0  0  0  0  0  0  0  0  0  0
   -2.3915   -0.0047    1.9381 H   0  0  0  0  0  0  0  0  0  0  0  0
   -0.3129   -1.1976    2.4069 H   0  0  0  0  0  0  0  0  0  0  0  0
   -0.7822   -1.5491    0.7323 H   0  0  0  0  0  0  0  0  0  0  0  0
    2.4873   -0.6699   -0.0277 H   0  0  0  0  0  0  0  0  0  0  0  0
    1.2754   -1.9444   -0.0752 H   0  0  0  0  0  0  0  0  0  0  0  0
    1.4055   -0.8248   -2.3103 H   0  0  0  0  0  0  0  0  0  0  0  0
   -0.0833    0.9929   -2.6906 H   0  0  0  0  0  0  0  0  0  0  0  0
  1  2  2  0
  2  3  1  0
  3  4  1  0
  4  5  1  0
  5  6  1  0
  6  7  1  0
  7  8  1  0
  8  9  2  0
  9  2  1  0
  3 10  1  0
  3 11  1  0
  4 12  1  0
  4 13  1  0
  5 14  1  0
  5 15  1  0
  7 16  1  0
  7 17  1  0
  8 18  1  0
  9 19  1  0
M  END
$$$$
