
     RDKit          3D

 19 21  0  0  0  0  0  0  0  0999 V2000
   -1.8299   -1.5130    1.7543 C   0  0  0  0  0  0  0  0  0  0  0  0
   -1.5838   -0.0278    1.8587 C   0  0  0  0  0  0  0  0  0  0  0  0
   -0.5476    0.6627    1.0090 C   0  0  0  0  0  0  0  0  0  0  0  0
    0.2251   -0.1809    0.2016 O   0  0  0  0  0  0  0  0  0  0  0  0
   -0.3389    0.5869    2.5052 C   0  0  0  0  0  0  0  0  0  0  0  0
   -0.7563    1.7435    3.4180 C   0  0  0  0  0  0  0  0  0  0  0  0
   -2.2573    1.9003    3.2167 C   0  0  0  0  0  0  0  0  0  0  0  0
   -2.6405    2.2347    1.8756 O   0  0  0  0  0  0  0  0  0  0  0  0
   -2.7354    0.8613    2.2885 C   0  0  0  0  0  0  0  0  0  0  0  0
   -2.1578   -1.9325    2.7122 H   0  0  0  0  0  0  0  0  0  0  0  0
   -2.6042   -1.7328    1.0099 H   0  0  0  0  0  0  0  0  0  0  0  0
   -0.9188   -2.0279    1.4447 H   0  0  0  0  0  0  0  0  0  0  0  0
   -0.8182    1.6176    0.5658 H   0  0  0  0  0  0  0  0  0  0  0  0
    1.1009    0.2109    0.1207 H   0  0  0  0  0  0  0  0  0  0  0  0
    0.4642   -0.0674    2.8298 H   0  0  0  0  0  0  0  0  0  0  0  0
   -0.5591    1.4844    4.4648 H   0  0  0  0  0  0  0  0  0  0  0  0
   -0.2243    2.6786    3.2085 H   0  0  0  0  0  0  0  0  0  0  0  0
   -2.8741    2.3454    3.9944 H   0  0  0  0  0  0  0  0  0  0  0  0
   -3.7436    0.4549    2.3100 H   0  0  0  0  0  0  0  0  0  0  0  0
  1  2  1  0
  2  3  1  0
  3  4  1  0
  3  5  1  0
  5  6  1  0
  6  7  1  0
  7  8  1  0
  8  9  1  0
  5  2  1  0
  9  7  1  0
  9  2  1  0
  1 10  1  0
  1 11  1  0
  1 12  1  0
  3 13  1  0
  4 14  1  0
  5 15  1  0
  6 16  1  0
  6 17  1  0
  7 18  1  0
  9 19  1  0
M  END
$$$$
