gdb 4247	3.6349465	1.3602039	1.1262691	1.027	74.17	-0.24702	0.08137	0.32838999999999996	1110.5693	0.157959	-422.540167	-422.53251	-422.531565	-422.57239	29.631
 OpenBabel02181911413D

 19 21  0  0  1  0  0  0  0  0999 V2000
    0.2826    0.2549   -0.2960 C   0  0  0  0  0  0  0  0  0  0  0  0
    0.8865   -0.7042    0.7123 C   0  0  2  0  0  0  0  0  0  0  0  0
    2.3204   -0.5317    0.8453 O   0  0  0  0  0  0  0  0  0  0  0  0
    2.5924   -1.8633    0.3454 C   0  0  1  0  0  0  0  0  0  0  0  0
    3.2464   -2.7674    1.4085 C   0  0  0  0  0  0  0  0  0  0  0  0
    2.0921   -3.5466    2.0151 C   0  0  2  0  0  0  0  0  0  0  0  0
    1.4853   -4.4479    1.0751 O   0  0  0  0  0  0  0  0  0  0  0  0
    0.8256   -3.2075    1.3458 C   0  0  2  0  0  0  0  0  0  0  0  0
    1.0713   -2.1743    0.2730 C   0  0  1  0  0  0  0  0  0  0  0  0
    0.4436    1.2893    0.0228 H   0  0  0  0  0  0  0  0  0  0  0  0
    0.7388    0.1258   -1.2825 H   0  0  0  0  0  0  0  0  0  0  0  0
   -0.7965    0.0877   -0.3868 H   0  0  0  0  0  0  0  0  0  0  0  0
    0.3941   -0.5855    1.6882 H   0  0  0  0  0  0  0  0  0  0  0  0
    3.1511   -1.8234   -0.5948 H   0  0  0  0  0  0  0  0  0  0  0  0
    3.9823   -3.4523    0.9751 H   0  0  0  0  0  0  0  0  0  0  0  0
    3.7530   -2.1437    2.1512 H   0  0  0  0  0  0  0  0  0  0  0  0
    2.1348   -3.9101    3.0388 H   0  0  0  0  0  0  0  0  0  0  0  0
   -0.1437   -3.2841    1.8352 H   0  0  0  0  0  0  0  0  0  0  0  0
    0.6421   -2.4473   -0.6930 H   0  0  0  0  0  0  0  0  0  0  0  0
  1 10  1  0  0  0  0
  1  2  1  0  0  0  0
  2  3  1  0  0  0  0
  2 13  1  1  0  0  0
  4 14  1  6  0  0  0
  4  3  1  0  0  0  0
  4  5  1  0  0  0  0
  5  6  1  0  0  0  0
  5 16  1  0  0  0  0
  6 17  1  1  0  0  0
  7  8  1  0  0  0  0
  7  6  1  0  0  0  0
  8 18  1  1  0  0  0
  8  6  1  0  0  0  0
  9 19  1  6  0  0  0
  9  4  1  0  0  0  0
  9  2  1  0  0  0  0
  9  8  1  0  0  0  0
 11  1  1  0  0  0  0
 12  1  1  0  0  0  0
 15  5  1  0  0  0  0
M TOR 0 0 1 2 3
M TOR 1 0 1 8 3
M TOR 2 0 1 8 7
M TOR 3 0 1 8 18
M TOR 4 1 2 3 4
M TOR 5 1 2 3 8
M TOR 6 1 2 3 13
M TOR 7 1 8 3 4
M TOR 8 1 8 3 13
M TOR 9 1 8 7 5
M TOR 10 1 8 7 6
M TOR 11 1 8 7 17
M TOR 12 2 1 0 9
M TOR 13 2 1 0 10
M TOR 14 2 1 0 11
M TOR 15 2 1 8 7
M TOR 16 2 1 8 18
M TOR 17 2 3 4 5
M TOR 18 2 3 4 14
M TOR 19 2 3 4 15
M TOR 20 2 3 8 7
M TOR 21 2 3 8 18
M TOR 22 3 2 1 12
M TOR 23 3 4 5 6
M TOR 24 3 4 5 7
M TOR 25 3 4 5 16
M TOR 26 3 8 1 12
M TOR 27 3 8 7 5
M TOR 28 3 8 7 6
M TOR 29 3 8 7 17
M TOR 30 4 3 8 7
M TOR 31 4 3 8 18
M TOR 32 4 5 6 7
M TOR 33 4 5 7 8
M TOR 34 4 5 7 17
M TOR 35 5 4 3 8
M TOR 36 5 4 3 13
M TOR 37 5 6 7 8
M TOR 38 5 6 7 17
M TOR 39 5 7 8 18
M TOR 40 6 5 4 14
M TOR 41 6 5 4 15
M TOR 42 6 7 5 16
M TOR 43 6 7 8 18
M TOR 44 7 5 4 14
M TOR 45 7 5 4 15
M TOR 46 7 8 1 12
M TOR 47 7 8 3 13
M TOR 48 8 1 0 9
M TOR 49 8 1 0 10
M TOR 50 8 1 0 11
M TOR 51 8 3 4 14
M TOR 52 8 3 4 15
M TOR 53 8 7 5 16
M  END
$$$$
