gdb 2047	2.8833101	1.5406744	1.3203705	1.554	75.17	-0.22744	0.06863	0.29607	1037.9267	0.156917	-422.510997	-422.502894	-422.50195	-422.543646	31.435
 OpenBabel02181911403D

 19 21  0  0  1  0  0  0  0  0999 V2000
    2.4981    0.0119    2.2191 O   0  0  0  0  0  0  0  0  0  0  0  0
    2.3083   -0.5627    0.9852 C   0  0  2  0  0  0  0  0  0  0  0  0
    2.5918   -2.0004    0.7293 C   0  0  0  0  0  0  0  0  0  0  0  0
    3.2718   -0.9677   -0.1487 C   0  0  1  0  0  0  0  0  0  0  0  0
    2.2655   -0.4494   -1.1854 C   0  0  0  0  0  0  0  0  0  0  0  0
    1.3377    0.0241   -0.0303 C   0  0  1  0  0  0  0  0  0  0  0  0
   -0.1972   -0.0960    0.0464 C   0  0  0  0  0  0  0  0  0  0  0  0
   -0.1744    1.4285    0.2509 C   0  0  0  0  0  0  0  0  0  0  0  0
    1.2669    1.4698    0.1161 O   0  0  0  0  0  0  0  0  0  0  0  0
    2.4388    0.9660    2.0671 H   0  0  0  0  0  0  0  0  0  0  0  0
    3.2360   -2.4507    1.4785 H   0  0  0  0  0  0  0  0  0  0  0  0
    1.8376   -2.6744    0.3245 H   0  0  0  0  0  0  0  0  0  0  0  0
    4.3499   -0.8979   -0.2146 H   0  0  0  0  0  0  0  0  0  0  0  0
    2.6174    0.4130   -1.7560 H   0  0  0  0  0  0  0  0  0  0  0  0
    1.8461   -1.1946   -1.8711 H   0  0  0  0  0  0  0  0  0  0  0  0
   -0.6747   -0.4317   -0.8758 H   0  0  0  0  0  0  0  0  0  0  0  0
   -0.5716   -0.6859    0.8850 H   0  0  0  0  0  0  0  0  0  0  0  0
   -0.6659    2.0282   -0.5231 H   0  0  0  0  0  0  0  0  0  0  0  0
   -0.4990    1.7808    1.2366 H   0  0  0  0  0  0  0  0  0  0  0  0
  2  1  1  1  0  0  0
  3  2  1  0  0  0  0
  3 11  1  0  0  0  0
  4 13  1  6  0  0  0
  4  3  1  0  0  0  0
  4  2  1  0  0  0  0
  5  4  1  0  0  0  0
  5  6  1  0  0  0  0
  6  7  1  0  0  0  0
  6  9  1  1  0  0  0
  6  2  1  0  0  0  0
  7  8  1  0  0  0  0
  7 17  1  0  0  0  0
  8 19  1  0  0  0  0
  9  8  1  0  0  0  0
 10  1  1  0  0  0  0
 12  3  1  0  0  0  0
 14  5  1  0  0  0  0
 15  5  1  0  0  0  0
 16  7  1  0  0  0  0
 18  8  1  0  0  0  0
M TOR 0 0 1 2 3
M TOR 1 0 1 2 10
M TOR 2 0 1 2 11
M TOR 3 0 1 3 4
M TOR 4 0 1 3 12
M TOR 5 0 1 5 4
M TOR 6 0 1 5 6
M TOR 7 0 1 5 8
M TOR 8 1 2 3 4
M TOR 9 1 2 3 12
M TOR 10 1 3 2 10
M TOR 11 1 3 2 11
M TOR 12 1 3 4 5
M TOR 13 1 3 4 13
M TOR 14 1 3 4 14
M TOR 15 1 5 4 13
M TOR 16 1 5 4 14
M TOR 17 1 5 6 7
M TOR 18 1 5 6 15
M TOR 19 1 5 6 16
M TOR 20 1 5 8 7
M TOR 21 2 1 0 9
M TOR 22 2 1 5 4
M TOR 23 2 1 5 6
M TOR 24 2 1 5 8
M TOR 25 2 3 1 5
M TOR 26 2 3 4 5
M TOR 27 2 3 4 13
M TOR 28 2 3 4 14
M TOR 29 3 1 0 9
M TOR 30 3 1 5 6
M TOR 31 3 1 5 8
M TOR 32 3 4 5 6
M TOR 33 3 4 5 8
M TOR 34 4 3 2 10
M TOR 35 4 3 2 11
M TOR 36 4 5 6 7
M TOR 37 4 5 6 15
M TOR 38 4 5 6 16
M TOR 39 4 5 8 7
M TOR 40 5 1 0 9
M TOR 41 5 1 2 10
M TOR 42 5 1 2 11
M TOR 43 5 1 3 12
M TOR 44 5 4 3 12
M TOR 45 5 6 7 8
M TOR 46 5 6 7 17
M TOR 47 5 6 7 18
M TOR 48 5 8 7 17
M TOR 49 5 8 7 18
M TOR 50 6 5 4 13
M TOR 51 6 5 4 14
M TOR 52 8 5 4 13
M TOR 53 8 5 4 14
M TOR 54 8 5 6 15
M TOR 55 8 5 6 16
M TOR 56 8 7 6 15
M TOR 57 8 7 6 16
M  END
$$$$
