
     RDKit          3D

 19 20  0  0  0  0  0  0  0  0999 V2000
   -1.6720    3.2019    2.7762 C   0  0  0  0  0  0  0  0  0  0  0  0
   -2.0557    2.5901    1.4563 C   0  0  0  0  0  0  0  0  0  0  0  0
   -3.1583    1.5121    1.1758 C   0  0  0  0  0  0  0  0  0  0  0  0
   -2.5192    1.8065   -0.2137 C   0  0  0  0  0  0  0  0  0  0  0  0
   -2.5704    3.3130    0.1689 C   0  0  0  0  0  0  0  0  0  0  0  0
   -1.1420    1.7988    0.4890 C   0  0  0  0  0  0  0  0  0  0  0  0
   -0.6421    0.5630    1.0219 O   0  0  0  0  0  0  0  0  0  0  0  0
    0.0471   -0.2109    0.1710 C   0  0  0  0  0  0  0  0  0  0  0  0
    0.2570    0.0207   -0.9875 O   0  0  0  0  0  0  0  0  0  0  0  0
   -1.3027    2.4370    3.4672 H   0  0  0  0  0  0  0  0  0  0  0  0
   -0.8830    3.9514    2.6492 H   0  0  0  0  0  0  0  0  0  0  0  0
   -2.5308    3.6938    3.2447 H   0  0  0  0  0  0  0  0  0  0  0  0
   -2.9941    0.5205    1.5985 H   0  0  0  0  0  0  0  0  0  0  0  0
   -4.1922    1.8413    1.3094 H   0  0  0  0  0  0  0  0  0  0  0  0
   -2.7639    1.3588   -1.1750 H   0  0  0  0  0  0  0  0  0  0  0  0
   -1.8709    3.9835   -0.3394 H   0  0  0  0  0  0  0  0  0  0  0  0
   -3.5678    3.7520    0.2396 H   0  0  0  0  0  0  0  0  0  0  0  0
   -0.3265    2.3321   -0.0034 H   0  0  0  0  0  0  0  0  0  0  0  0
    0.3983   -1.1037    0.7122 H   0  0  0  0  0  0  0  0  0  0  0  0
  1  2  1  0
  2  3  1  0
  3  4  1  0
  4  5  1  0
  4  6  1  0
  6  7  1  0
  7  8  1  0
  8  9  2  0
  5  2  1  0
  6  2  1  0
  1 10  1  0
  1 11  1  0
  1 12  1  0
  3 13  1  0
  3 14  1  0
  4 15  1  0
  5 16  1  0
  5 17  1  0
  6 18  1  0
  8 19  1  0
M  END
$$$$
