gdb 2953	3.0524548	1.2650933	1.0101799	4.2356	75.54	-0.26532	0.01135	0.27667	1225.899	0.156764	-422.59319	-422.58453	-422.583586	-422.626446	32.304
 OpenBabel02181911413D

 19 20  0  0  1  0  0  0  0  0999 V2000
   -4.0043    0.2044    1.6963 C   0  0  0  0  0  0  0  0  0  0  0  0
   -2.5518    0.1338    1.2823 C   0  0  2  0  0  0  0  0  0  0  0  0
   -2.1224    0.7098   -0.0350 C   0  0  1  0  0  0  0  0  0  0  0  0
   -0.7823    1.1523   -0.1326 O   0  0  0  0  0  0  0  0  0  0  0  0
    0.0857    0.0970   -0.0705 C   0  0  0  0  0  0  0  0  0  0  0  0
    1.2710    0.2444   -0.1220 O   0  0  0  0  0  0  0  0  0  0  0  0
   -0.6914   -1.2247    0.0683 C   0  0  2  0  0  0  0  0  0  0  0  0
   -0.3703   -2.1588   -1.1065 C   0  0  0  0  0  0  0  0  0  0  0  0
   -2.1411   -0.7864    0.1435 C   0  0  1  0  0  0  0  0  0  0  0  0
   -4.2614   -0.6138    2.3771 H   0  0  0  0  0  0  0  0  0  0  0  0
   -4.2243    1.1491    2.2041 H   0  0  0  0  0  0  0  0  0  0  0  0
   -4.6675    0.1311    0.8278 H   0  0  0  0  0  0  0  0  0  0  0  0
   -1.8306    0.2466    2.0897 H   0  0  0  0  0  0  0  0  0  0  0  0
   -2.7935    1.2715   -0.6730 H   0  0  0  0  0  0  0  0  0  0  0  0
   -0.3503   -1.6956    0.9975 H   0  0  0  0  0  0  0  0  0  0  0  0
   -0.8512   -3.1312   -0.9674 H   0  0  0  0  0  0  0  0  0  0  0  0
   -0.7216   -1.7366   -2.0535 H   0  0  0  0  0  0  0  0  0  0  0  0
    0.7094   -2.3096   -1.1797 H   0  0  0  0  0  0  0  0  0  0  0  0
   -2.9019   -1.3962   -0.3308 H   0  0  0  0  0  0  0  0  0  0  0  0
  1 11  1  0  0  0  0
  1 10  1  0  0  0  0
  2  1  1  0  0  0  0
  2 13  1  1  0  0  0
  3 14  1  6  0  0  0
  3  9  1  0  0  0  0
  3  2  1  0  0  0  0
  4  5  1  0  0  0  0
  4  3  1  0  0  0  0
  5  7  1  0  0  0  0
  6  5  2  0  0  0  0
  7  9  1  0  0  0  0
  7 15  1  1  0  0  0
  8 16  1  0  0  0  0
  8  7  1  0  0  0  0
  9 19  1  6  0  0  0
  9  2  1  0  0  0  0
 12  1  1  0  0  0  0
 17  8  1  0  0  0  0
 18  8  1  0  0  0  0
M TOR 0 0 1 2 3
M TOR 1 0 1 2 8
M TOR 2 0 1 2 13
M TOR 3 0 1 8 6
M TOR 4 0 1 8 18
M TOR 5 1 2 3 4
M TOR 6 1 2 8 6
M TOR 7 1 2 8 18
M TOR 8 1 8 2 3
M TOR 9 1 8 2 13
M TOR 10 1 8 6 4
M TOR 11 1 8 6 7
M TOR 12 1 8 6 14
M TOR 13 2 1 0 9
M TOR 14 2 1 0 10
M TOR 15 2 1 0 11
M TOR 16 2 3 4 5
M TOR 17 2 3 4 6
M TOR 18 2 8 1 12
M TOR 19 2 8 6 4
M TOR 20 2 8 6 7
M TOR 21 2 8 6 14
M TOR 22 3 2 1 12
M TOR 23 3 2 8 6
M TOR 24 3 2 8 18
M TOR 25 3 4 6 7
M TOR 26 3 4 6 8
M TOR 27 3 4 6 14
M TOR 28 4 3 2 8
M TOR 29 4 3 2 13
M TOR 30 4 6 7 15
M TOR 31 4 6 7 16
M TOR 32 4 6 7 17
M TOR 33 4 6 8 18
M TOR 34 5 4 6 7
M TOR 35 5 4 6 8
M TOR 36 5 4 6 14
M TOR 37 6 8 1 12
M TOR 38 6 8 2 13
M TOR 39 7 6 8 18
M TOR 40 8 1 0 9
M TOR 41 8 1 0 10
M TOR 42 8 1 0 11
M TOR 43 8 6 7 15
M TOR 44 8 6 7 16
M TOR 45 8 6 7 17
M  END
$$$$
