
     RDKit          3D

 19 18  0  0  0  0  0  0  0  0999 V2000
    3.8074    0.8740    0.3506 C   0  0  0  0  0  0  0  0  0  0  0  0
    2.3865    0.3985    0.1046 C   0  0  0  0  0  0  0  0  0  0  0  0
    1.8512   -0.4103    0.8248 O   0  0  0  0  0  0  0  0  0  0  0  0
    1.6566    0.9589   -1.1167 C   0  0  0  0  0  0  0  0  0  0  0  0
    1.7667    2.4864   -1.3205 C   0  0  0  0  0  0  0  0  0  0  0  0
    0.9930    2.9286   -2.5867 C   0  0  0  0  0  0  0  0  0  0  0  0
    1.1098    4.3095   -2.8363 O   0  0  0  0  0  0  0  0  0  0  0  0
    1.2766    3.2330   -0.1623 C   0  0  0  0  0  0  0  0  0  0  0  0
    0.8410    3.8669    0.7629 C   0  0  0  0  0  0  0  0  0  0  0  0
    4.2717    0.2499    1.1148 H   0  0  0  0  0  0  0  0  0  0  0  0
    4.4026    0.8490   -0.5687 H   0  0  0  0  0  0  0  0  0  0  0  0
    3.7924    1.9128    0.6993 H   0  0  0  0  0  0  0  0  0  0  0  0
    2.0787    0.4672   -2.0047 H   0  0  0  0  0  0  0  0  0  0  0  0
    0.6100    0.6544   -1.0355 H   0  0  0  0  0  0  0  0  0  0  0  0
    2.8175    2.7570   -1.4840 H   0  0  0  0  0  0  0  0  0  0  0  0
    1.4171    2.4186   -3.4577 H   0  0  0  0  0  0  0  0  0  0  0  0
   -0.0578    2.6142   -2.4898 H   0  0  0  0  0  0  0  0  0  0  0  0
    0.7652    4.7703   -2.0618 H   0  0  0  0  0  0  0  0  0  0  0  0
    0.4699    4.4103    1.5970 H   0  0  0  0  0  0  0  0  0  0  0  0
  1  2  1  0
  2  3  2  0
  2  4  1  0
  4  5  1  0
  5  6  1  0
  6  7  1  0
  5  8  1  0
  8  9  3  0
  1 10  1  0
  1 11  1  0
  1 12  1  0
  4 13  1  0
  4 14  1  0
  5 15  1  0
  6 16  1  0
  6 17  1  0
  7 18  1  0
  9 19  1  0
M  END
$$$$
