
     RDKit          3D

 19 20  0  0  0  0  0  0  0  0999 V2000
    0.6659    0.7618   -1.9806 C   0  0  0  0  0  0  0  0  0  0  0  0
    1.9551    0.3828   -1.3104 C   0  0  0  0  0  0  0  0  0  0  0  0
    3.1798   -0.2546   -2.0239 C   0  0  0  0  0  0  0  0  0  0  0  0
    3.6204   -0.4842   -0.5516 C   0  0  0  0  0  0  0  0  0  0  0  0
    2.0977   -0.7285   -0.2332 C   0  0  0  0  0  0  0  0  0  0  0  0
    3.7362    0.9766   -0.0688 C   0  0  0  0  0  0  0  0  0  0  0  0
    2.5382    1.5274   -0.6446 O   0  0  0  0  0  0  0  0  0  0  0  0
    4.6581   -1.4673   -0.1326 C   0  0  0  0  0  0  0  0  0  0  0  0
    5.3048   -2.1483   -0.8899 O   0  0  0  0  0  0  0  0  0  0  0  0
   -0.0470    1.1522   -1.2480 H   0  0  0  0  0  0  0  0  0  0  0  0
    0.8411    1.5376   -2.7322 H   0  0  0  0  0  0  0  0  0  0  0  0
    0.2204   -0.1062   -2.4741 H   0  0  0  0  0  0  0  0  0  0  0  0
    2.9544   -1.1886   -2.5395 H   0  0  0  0  0  0  0  0  0  0  0  0
    3.7909    0.4015   -2.6473 H   0  0  0  0  0  0  0  0  0  0  0  0
    1.7578   -1.7099   -0.5676 H   0  0  0  0  0  0  0  0  0  0  0  0
    1.7358   -0.5006    0.7721 H   0  0  0  0  0  0  0  0  0  0  0  0
    3.7222    1.0795    1.0230 H   0  0  0  0  0  0  0  0  0  0  0  0
    4.6210    1.4867   -0.4668 H   0  0  0  0  0  0  0  0  0  0  0  0
    4.7946   -1.5529    0.9715 H   0  0  0  0  0  0  0  0  0  0  0  0
  1  2  1  0
  2  3  1  0
  3  4  1  0
  4  5  1  0
  4  6  1  0
  6  7  1  0
  4  8  1  0
  8  9  2  0
  5  2  1  0
  7  2  1  0
  1 10  1  0
  1 11  1  0
  1 12  1  0
  3 13  1  0
  3 14  1  0
  5 15  1  0
  5 16  1  0
  6 17  1  0
  6 18  1  0
  8 19  1  0
M  END
$$$$
