gdb 1287	2.5725013	1.3043133	0.964457	3.092	78.82	-0.23813	-0.04251	0.19562000000000002	1255.9275	0.156237	-422.601277	-422.592011	-422.591067	-422.635669	33.759
 OpenBabel02181911403D

 19 19  0  0  1  0  0  0  0  0999 V2000
   -3.3707   -1.7474   -2.8151 C   0  0  0  0  0  0  0  0  0  0  0  0
   -2.0909   -0.9114   -2.8255 C   0  0  1  0  0  0  0  0  0  0  0  0
   -2.3200    0.1983   -3.6882 O   0  0  0  0  0  0  0  0  0  0  0  0
   -1.6988   -0.4774   -1.4391 C   0  0  0  0  0  0  0  0  0  0  0  0
   -1.7730    0.7475   -0.9003 C   0  0  0  0  0  0  0  0  0  0  0  0
   -1.2811    0.8144    0.5241 C   0  0  0  0  0  0  0  0  0  0  0  0
   -0.8467   -0.6302    0.8393 C   0  0  0  0  0  0  0  0  0  0  0  0
   -1.1339   -1.4248   -0.4425 C   0  0  0  0  0  0  0  0  0  0  0  0
   -0.9357   -2.6079   -0.6111 O   0  0  0  0  0  0  0  0  0  0  0  0
   -3.2326   -2.6306   -2.1873 H   0  0  0  0  0  0  0  0  0  0  0  0
   -4.2046   -1.1555   -2.4263 H   0  0  0  0  0  0  0  0  0  0  0  0
   -3.6123   -2.0656   -3.8325 H   0  0  0  0  0  0  0  0  0  0  0  0
   -1.2799   -1.5454   -3.2181 H   0  0  0  0  0  0  0  0  0  0  0  0
   -1.4858    0.6682   -3.7903 H   0  0  0  0  0  0  0  0  0  0  0  0
   -2.1521    1.6189   -1.4233 H   0  0  0  0  0  0  0  0  0  0  0  0
   -0.4580    1.5327    0.6224 H   0  0  0  0  0  0  0  0  0  0  0  0
   -2.0722    1.1725    1.1941 H   0  0  0  0  0  0  0  0  0  0  0  0
    0.2153   -0.7155    1.0879 H   0  0  0  0  0  0  0  0  0  0  0  0
   -1.4001   -1.0743    1.6718 H   0  0  0  0  0  0  0  0  0  0  0  0
  1 11  1  0  0  0  0
  1 10  1  0  0  0  0
  2 13  1  6  0  0  0
  2  1  1  0  0  0  0
  2  4  1  0  0  0  0
  3  2  1  0  0  0  0
  4  5  2  0  0  0  0
  4  8  1  0  0  0  0
  5  6  1  0  0  0  0
  6 16  1  0  0  0  0
  6  7  1  0  0  0  0
  6 17  1  0  0  0  0
  7 18  1  0  0  0  0
  7 19  1  0  0  0  0
  8  7  1  0  0  0  0
  9  8  2  0  0  0  0
 12  1  1  0  0  0  0
 14  3  1  0  0  0  0
 15  5  1  0  0  0  0
M TOR 0 0 1 2 13
M TOR 1 0 1 3 4
M TOR 2 0 1 3 7
M TOR 3 1 3 4 5
M TOR 4 1 3 4 14
M TOR 5 1 3 7 6
M TOR 6 1 3 7 8
M TOR 7 2 1 0 9
M TOR 8 2 1 0 10
M TOR 9 2 1 0 11
M TOR 10 2 1 3 4
M TOR 11 2 1 3 7
M TOR 12 3 1 0 9
M TOR 13 3 1 0 10
M TOR 14 3 1 0 11
M TOR 15 3 1 2 13
M TOR 16 3 4 5 6
M TOR 17 3 4 5 15
M TOR 18 3 4 5 16
M TOR 19 3 7 6 5
M TOR 20 3 7 6 17
M TOR 21 3 7 6 18
M TOR 22 4 3 1 12
M TOR 23 4 3 7 6
M TOR 24 4 3 7 8
M TOR 25 4 5 6 7
M TOR 26 4 5 6 17
M TOR 27 4 5 6 18
M TOR 28 5 4 3 7
M TOR 29 5 6 7 8
M TOR 30 6 5 4 14
M TOR 31 7 3 1 12
M TOR 32 7 3 4 14
M TOR 33 7 6 5 15
M TOR 34 7 6 5 16
M TOR 35 8 7 6 17
M TOR 36 8 7 6 18
M  END
$$$$
