gdb 5638	2.5909934	1.4192577	1.0410429	4.0556	77.98	-0.25459	0.00481	0.25939999999999996	1194.9448	0.157144	-422.597512	-422.588564	-422.58762	-422.632103	32.259
 OpenBabel02181911423D

 19 19  0  0  1  0  0  0  0  0999 V2000
    1.1627    0.9753    0.1693 C   0  0  0  0  0  0  0  0  0  0  0  0
    1.1922   -0.5400   -0.0393 C   0  0  0  0  0  0  0  0  0  0  0  0
    1.9164   -1.0041   -1.3386 C   0  0  2  0  0  0  0  0  0  0  0  0
    1.6239   -2.4499   -1.6183 C   0  0  0  0  0  0  0  0  0  0  0  0
    2.5313   -3.3993   -1.4332 C   0  0  0  0  0  0  0  0  0  0  0  0
    3.9211   -3.0892   -0.9853 C   0  0  0  0  0  0  0  0  0  0  0  0
    4.2831   -1.7053   -1.0345 O   0  0  0  0  0  0  0  0  0  0  0  0
    3.4069   -0.6962   -1.2546 C   0  0  0  0  0  0  0  0  0  0  0  0
    3.8401    0.4217   -1.3521 O   0  0  0  0  0  0  0  0  0  0  0  0
    0.6419    1.2204    1.1002 H   0  0  0  0  0  0  0  0  0  0  0  0
    2.1707    1.3922    0.2120 H   0  0  0  0  0  0  0  0  0  0  0  0
    0.6343    1.4729   -0.6512 H   0  0  0  0  0  0  0  0  0  0  0  0
    1.6614   -1.0373    0.8187 H   0  0  0  0  0  0  0  0  0  0  0  0
    0.1668   -0.9268   -0.0873 H   0  0  0  0  0  0  0  0  0  0  0  0
    1.5406   -0.3792   -2.1580 H   0  0  0  0  0  0  0  0  0  0  0  0
    0.6159   -2.6953   -1.9421 H   0  0  0  0  0  0  0  0  0  0  0  0
    2.3061   -4.4491   -1.5959 H   0  0  0  0  0  0  0  0  0  0  0  0
    4.0862   -3.4385    0.0443 H   0  0  0  0  0  0  0  0  0  0  0  0
    4.6546   -3.6112   -1.6126 H   0  0  0  0  0  0  0  0  0  0  0  0
  1 11  1  0  0  0  0
  1 10  1  0  0  0  0
  2  1  1  0  0  0  0
  2 13  1  0  0  0  0
  3 15  1  6  0  0  0
  3  8  1  0  0  0  0
  3  2  1  0  0  0  0
  4  5  2  0  0  0  0
  4  3  1  0  0  0  0
  5  6  1  0  0  0  0
  6 18  1  0  0  0  0
  7  6  1  0  0  0  0
  8  7  1  0  0  0  0
  9  8  2  0  0  0  0
 12  1  1  0  0  0  0
 14  2  1  0  0  0  0
 16  4  1  0  0  0  0
 17  5  1  0  0  0  0
 19  6  1  0  0  0  0
M TOR 0 0 1 2 3
M TOR 1 0 1 2 7
M TOR 2 0 1 2 14
M TOR 3 1 2 3 4
M TOR 4 1 2 3 15
M TOR 5 1 2 7 6
M TOR 6 1 2 7 8
M TOR 7 2 1 0 9
M TOR 8 2 1 0 10
M TOR 9 2 1 0 11
M TOR 10 2 3 4 5
M TOR 11 2 3 4 16
M TOR 12 2 7 6 5
M TOR 13 3 2 1 12
M TOR 14 3 2 1 13
M TOR 15 3 2 7 6
M TOR 16 3 2 7 8
M TOR 17 3 4 5 6
M TOR 18 3 4 5 17
M TOR 19 3 4 5 18
M TOR 20 4 3 2 7
M TOR 21 4 3 2 14
M TOR 22 4 5 6 7
M TOR 23 5 4 3 15
M TOR 24 5 6 7 8
M TOR 25 6 5 4 16
M TOR 26 6 7 2 14
M TOR 27 7 2 1 12
M TOR 28 7 2 1 13
M TOR 29 7 2 3 15
M TOR 30 7 6 5 17
M TOR 31 7 6 5 18
M TOR 32 8 7 2 14
M  END
$$$$
