gdb 4319	3.1180665	1.1577596	0.8928676	2.9946	78.28	-0.24324	-0.02893	0.21431	1305.0855	0.155547	-422.575777	-422.566766	-422.565822	-422.610242	32.707
 OpenBabel02181911413D

 19 19  0  0  1  0  0  0  0  0999 V2000
    1.0449    1.1929    0.0204 C   0  0  0  0  0  0  0  0  0  0  0  0
    1.0139   -0.3253    0.0908 C   0  0  2  0  0  0  0  0  0  0  0  0
    1.8328   -0.8996    1.2527 C   0  0  0  0  0  0  0  0  0  0  0  0
    2.0422   -2.3805    1.0763 C   0  0  0  0  0  0  0  0  0  0  0  0
    1.8237   -2.9853   -0.0875 C   0  0  0  0  0  0  0  0  0  0  0  0
    1.4086   -2.2072   -1.3100 C   0  0  1  0  0  0  0  0  0  0  0  0
    1.5220   -0.8104   -1.1531 O   0  0  0  0  0  0  0  0  0  0  0  0
    2.2737   -2.5851   -2.5133 C   0  0  0  0  0  0  0  0  0  0  0  0
    2.4092   -3.7124   -2.9067 O   0  0  0  0  0  0  0  0  0  0  0  0
    0.6614    1.6273    0.9485 H   0  0  0  0  0  0  0  0  0  0  0  0
    2.0705    1.5443   -0.1297 H   0  0  0  0  0  0  0  0  0  0  0  0
    0.4336    1.5518   -0.8116 H   0  0  0  0  0  0  0  0  0  0  0  0
   -0.0292   -0.6674    0.2003 H   0  0  0  0  0  0  0  0  0  0  0  0
    2.8007   -0.3824    1.3189 H   0  0  0  0  0  0  0  0  0  0  0  0
    1.3144   -0.6992    2.1990 H   0  0  0  0  0  0  0  0  0  0  0  0
    2.3715   -2.9547    1.9382 H   0  0  0  0  0  0  0  0  0  0  0  0
    1.9474   -4.0538   -0.2288 H   0  0  0  0  0  0  0  0  0  0  0  0
    0.3709   -2.4847   -1.5829 H   0  0  0  0  0  0  0  0  0  0  0  0
    2.7665   -1.7126   -2.9943 H   0  0  0  0  0  0  0  0  0  0  0  0
  1  2  1  0  0  0  0
  1 10  1  0  0  0  0
  2 13  1  1  0  0  0
  2  3  1  0  0  0  0
  3 14  1  0  0  0  0
  3 15  1  0  0  0  0
  4  3  1  0  0  0  0
  4 16  1  0  0  0  0
  5  4  2  0  0  0  0
  6 18  1  6  0  0  0
  6  7  1  0  0  0  0
  6  5  1  0  0  0  0
  7  2  1  0  0  0  0
  8  6  1  0  0  0  0
  9  8  2  0  0  0  0
 11  1  1  0  0  0  0
 12  1  1  0  0  0  0
 17  5  1  0  0  0  0
 19  8  1  0  0  0  0
M TOR 0 0 1 2 3
M TOR 1 0 1 2 13
M TOR 2 0 1 2 14
M TOR 3 0 1 6 5
M TOR 4 1 2 3 4
M TOR 5 1 2 3 15
M TOR 6 1 6 5 4
M TOR 7 1 6 5 7
M TOR 8 1 6 5 17
M TOR 9 2 1 0 9
M TOR 10 2 1 0 10
M TOR 11 2 1 0 11
M TOR 12 2 1 6 5
M TOR 13 2 3 4 5
M TOR 14 2 3 4 16
M TOR 15 3 2 1 6
M TOR 16 3 2 1 12
M TOR 17 3 4 5 6
M TOR 18 3 4 5 7
M TOR 19 3 4 5 17
M TOR 20 4 3 2 13
M TOR 21 4 3 2 14
M TOR 22 4 5 7 8
M TOR 23 4 5 7 18
M TOR 24 5 4 3 15
M TOR 25 5 6 1 12
M TOR 26 6 1 0 9
M TOR 27 6 1 0 10
M TOR 28 6 1 0 11
M TOR 29 6 1 2 13
M TOR 30 6 1 2 14
M TOR 31 6 5 4 16
M TOR 32 6 5 7 8
M TOR 33 6 5 7 18
M TOR 34 7 5 4 16
M TOR 35 8 7 5 17
M  END
$$$$
