gdb 4431	2.9726885	1.3547598	1.2119287	2.3095	76.12	-0.2366	0.03181	0.26841	1102.7972	0.156857	-422.551301	-422.542886	-422.541942	-422.584633	31.717
 OpenBabel02181911413D

 19 20  0  0  1  0  0  0  0  0999 V2000
    0.4418    0.4336    0.2131 O   0  0  0  0  0  0  0  0  0  0  0  0
   -0.7045   -0.1658    0.7625 C   0  0  1  0  0  0  0  0  0  0  0  0
   -1.2968    0.4066    2.0664 C   0  0  0  0  0  0  0  0  0  0  0  0
   -2.5878    0.5448    1.4450 O   0  0  0  0  0  0  0  0  0  0  0  0
   -2.0374    0.2834    0.1184 C   0  0  2  0  0  0  0  0  0  0  0  0
   -2.8890   -0.7386   -0.6633 C   0  0  0  0  0  0  0  0  0  0  0  0
   -3.5807    0.0887   -1.7170 C   0  0  0  0  0  0  0  0  0  0  0  0
   -3.1034    1.3310   -1.7640 C   0  0  0  0  0  0  0  0  0  0  0  0
   -2.0066    1.5605   -0.7558 C   0  0  0  0  0  0  0  0  0  0  0  0
    1.2211    0.0257    0.6022 H   0  0  0  0  0  0  0  0  0  0  0  0
   -0.6126   -1.2596    0.7868 H   0  0  0  0  0  0  0  0  0  0  0  0
   -1.3290   -0.2444    2.9476 H   0  0  0  0  0  0  0  0  0  0  0  0
   -0.8546    1.3753    2.3375 H   0  0  0  0  0  0  0  0  0  0  0  0
   -2.2560   -1.5168   -1.1132 H   0  0  0  0  0  0  0  0  0  0  0  0
   -3.5768   -1.2450    0.0232 H   0  0  0  0  0  0  0  0  0  0  0  0
   -4.3562   -0.3129   -2.3595 H   0  0  0  0  0  0  0  0  0  0  0  0
   -3.4313    2.1028   -2.4515 H   0  0  0  0  0  0  0  0  0  0  0  0
   -1.0288    1.6841   -1.2364 H   0  0  0  0  0  0  0  0  0  0  0  0
   -2.1691    2.4443   -0.1292 H   0  0  0  0  0  0  0  0  0  0  0  0
  1 10  1  0  0  0  0
  1  2  1  0  0  0  0
  2 11  1  1  0  0  0
  2  3  1  0  0  0  0
  3 13  1  0  0  0  0
  3 12  1  0  0  0  0
  4  3  1  0  0  0  0
  5  2  1  0  0  0  0
  5  4  1  1  0  0  0
  6 15  1  0  0  0  0
  6  5  1  0  0  0  0
  7  6  1  0  0  0  0
  8  7  2  0  0  0  0
  8  9  1  0  0  0  0
  9 19  1  0  0  0  0
  9  5  1  0  0  0  0
 14  6  1  0  0  0  0
 16  7  1  0  0  0  0
 17  8  1  0  0  0  0
 18  9  1  0  0  0  0
M TOR 0 0 1 2 3
M TOR 1 0 1 2 11
M TOR 2 0 1 2 12
M TOR 3 0 1 4 3
M TOR 4 0 1 4 5
M TOR 5 0 1 4 8
M TOR 6 1 2 3 4
M TOR 7 1 4 5 6
M TOR 8 1 4 5 13
M TOR 9 1 4 5 14
M TOR 10 1 4 8 7
M TOR 11 1 4 8 17
M TOR 12 1 4 8 18
M TOR 13 2 1 0 9
M TOR 14 2 1 4 5
M TOR 15 2 1 4 8
M TOR 16 2 3 4 5
M TOR 17 2 3 4 8
M TOR 18 3 2 1 10
M TOR 19 3 4 1 10
M TOR 20 3 4 5 6
M TOR 21 3 4 5 13
M TOR 22 3 4 5 14
M TOR 23 3 4 8 7
M TOR 24 3 4 8 17
M TOR 25 3 4 8 18
M TOR 26 4 1 0 9
M TOR 27 4 1 2 11
M TOR 28 4 1 2 12
M TOR 29 4 3 2 11
M TOR 30 4 3 2 12
M TOR 31 4 5 6 7
M TOR 32 4 5 6 15
M TOR 33 4 8 7 6
M TOR 34 4 8 7 16
M TOR 35 5 4 1 10
M TOR 36 5 4 8 7
M TOR 37 5 4 8 17
M TOR 38 5 4 8 18
M TOR 39 5 6 7 8
M TOR 40 5 6 7 16
M TOR 41 6 5 4 8
M TOR 42 6 7 8 17
M TOR 43 6 7 8 18
M TOR 44 7 6 5 13
M TOR 45 7 6 5 14
M TOR 46 8 4 1 10
M TOR 47 8 4 5 13
M TOR 48 8 4 5 14
M TOR 49 8 7 6 15
M  END
$$$$
