gdb 690	3.3539878	1.1103018	0.8795792	4.2137	76.49	-0.2365	-0.01936	0.21714	1321.0375	0.15626	-422.536901	-422.528139	-422.527195	-422.571842	31.199
 OpenBabel02181911403D

 19 20  0  0  1  0  0  0  0  0999 V2000
    1.2276   -0.1159   -0.0292 O   0  0  0  0  0  0  0  0  0  0  0  0
    0.0405   -0.0935    0.1071 C   0  0  0  0  0  0  0  0  0  0  0  0
   -1.0290   -1.1790    0.3168 C   0  0  0  0  0  0  0  0  0  0  0  0
   -2.0939   -0.1268   -0.1165 C   0  0  0  0  0  0  0  0  0  0  0  0
   -1.0309    1.0156   -0.0144 C   0  0  2  0  0  0  0  0  0  0  0  0
   -0.9210    2.0078   -1.1559 C   0  0  1  0  0  0  0  0  0  0  0  0
   -2.0488    3.0571   -1.3108 C   0  0  0  0  0  0  0  0  0  0  0  0
   -0.9053    4.0833   -1.1830 C   0  0  0  0  0  0  0  0  0  0  0  0
    0.0562    3.0429   -0.9092 O   0  0  0  0  0  0  0  0  0  0  0  0
   -0.9198   -2.0860   -0.2826 H   0  0  0  0  0  0  0  0  0  0  0  0
   -1.1073   -1.4668    1.3704 H   0  0  0  0  0  0  0  0  0  0  0  0
   -2.4322   -0.2816   -1.1445 H   0  0  0  0  0  0  0  0  0  0  0  0
   -2.9668   -0.0267    0.5288 H   0  0  0  0  0  0  0  0  0  0  0  0
   -1.1106    1.5633    0.9325 H   0  0  0  0  0  0  0  0  0  0  0  0
   -0.6914    1.4743   -2.0902 H   0  0  0  0  0  0  0  0  0  0  0  0
   -2.5934    3.0472   -2.2557 H   0  0  0  0  0  0  0  0  0  0  0  0
   -2.7617    3.0680   -0.4836 H   0  0  0  0  0  0  0  0  0  0  0  0
   -0.6666    4.6260   -2.1066 H   0  0  0  0  0  0  0  0  0  0  0  0
   -0.9775    4.8024   -0.3593 H   0  0  0  0  0  0  0  0  0  0  0  0
  1  2  2  0  0  0  0
  2  3  1  0  0  0  0
  3 11  1  0  0  0  0
  4  5  1  0  0  0  0
  4  3  1  0  0  0  0
  4 13  1  0  0  0  0
  5  2  1  0  0  0  0
  5 14  1  1  0  0  0
  6 15  1  6  0  0  0
  6  9  1  0  0  0  0
  6  5  1  0  0  0  0
  7  8  1  0  0  0  0
  7  6  1  0  0  0  0
  7 17  1  0  0  0  0
  8  9  1  0  0  0  0
  8 19  1  0  0  0  0
 10  3  1  0  0  0  0
 12  4  1  0  0  0  0
 16  7  1  0  0  0  0
 18  8  1  0  0  0  0
M TOR 0 0 1 2 3
M TOR 1 0 1 2 9
M TOR 2 0 1 2 10
M TOR 3 0 1 4 3
M TOR 4 0 1 4 5
M TOR 5 0 1 4 13
M TOR 6 1 2 3 4
M TOR 7 1 2 3 11
M TOR 8 1 2 3 12
M TOR 9 1 4 3 11
M TOR 10 1 4 3 12
M TOR 11 1 4 5 6
M TOR 12 1 4 5 8
M TOR 13 1 4 5 14
M TOR 14 2 1 4 5
M TOR 15 2 1 4 13
M TOR 16 2 3 4 5
M TOR 17 2 3 4 13
M TOR 18 3 4 5 6
M TOR 19 3 4 5 8
M TOR 20 3 4 5 14
M TOR 21 4 1 2 9
M TOR 22 4 1 2 10
M TOR 23 4 3 2 9
M TOR 24 4 3 2 10
M TOR 25 4 5 6 7
M TOR 26 4 5 6 15
M TOR 27 4 5 6 16
M TOR 28 4 5 8 7
M TOR 29 5 4 3 11
M TOR 30 5 4 3 12
M TOR 31 5 6 7 8
M TOR 32 5 6 7 17
M TOR 33 5 6 7 18
M TOR 34 5 8 7 17
M TOR 35 5 8 7 18
M TOR 36 6 5 4 13
M TOR 37 7 6 5 14
M TOR 38 7 8 5 14
M TOR 39 8 5 4 13
M TOR 40 8 5 6 15
M TOR 41 8 5 6 16
M TOR 42 8 7 6 15
M TOR 43 8 7 6 16
M  END
$$$$
