
     RDKit          3D

 19 21  0  0  0  0  0  0  0  0999 V2000
    1.3100   -0.1150    0.0048 C   0  0  0  0  0  0  0  0  0  0  0  0
   -0.0877    0.0416    0.0049 O   0  0  0  0  0  0  0  0  0  0  0  0
   -0.5473    0.8438    1.0730 C   0  0  0  0  0  0  0  0  0  0  0  0
   -2.0394    1.0124    0.9459 C   0  0  0  0  0  0  0  0  0  0  0  0
   -2.8053    1.2312    2.2273 C   0  0  0  0  0  0  0  0  0  0  0  0
   -4.3292    1.4526    1.9537 C   0  0  0  0  0  0  0  0  0  0  0  0
   -4.5760    1.4172    0.5410 O   0  0  0  0  0  0  0  0  0  0  0  0
   -4.4182    0.1787    1.2504 C   0  0  0  0  0  0  0  0  0  0  0  0
   -2.8991   -0.0987    1.4900 C   0  0  0  0  0  0  0  0  0  0  0  0
    1.6688   -0.6043    0.9252 H   0  0  0  0  0  0  0  0  0  0  0  0
    1.5693   -0.7427   -0.8513 H   0  0  0  0  0  0  0  0  0  0  0  0
    1.8319    0.8508   -0.0920 H   0  0  0  0  0  0  0  0  0  0  0  0
   -0.2880    0.3787    2.0407 H   0  0  0  0  0  0  0  0  0  0  0  0
   -0.0544    1.8311    1.0487 H   0  0  0  0  0  0  0  0  0  0  0  0
   -2.3652    1.5272    0.0502 H   0  0  0  0  0  0  0  0  0  0  0  0
   -2.3303    1.4433    3.1764 H   0  0  0  0  0  0  0  0  0  0  0  0
   -5.0340    1.9927    2.5740 H   0  0  0  0  0  0  0  0  0  0  0  0
   -5.2141   -0.5512    1.1676 H   0  0  0  0  0  0  0  0  0  0  0  0
   -2.4993   -1.0617    1.7779 H   0  0  0  0  0  0  0  0  0  0  0  0
  1  2  1  0
  2  3  1  0
  3  4  1  0
  4  5  1  0
  5  6  1  0
  6  7  1  0
  7  8  1  0
  8  9  1  0
  9  4  1  0
  9  5  1  0
  8  6  1  0
  1 10  1  0
  1 11  1  0
  1 12  1  0
  3 13  1  0
  3 14  1  0
  4 15  1  0
  5 16  1  0
  6 17  1  0
  8 18  1  0
  9 19  1  0
M  END
$$$$
