gdb 2807	4.0215457	1.1951281	1.1279851	2.0055	74.26	-0.25184	0.08152	0.33336	1148.1884	0.158088	-422.510239	-422.502681	-422.501737	-422.541748	30.724
 OpenBabel02181911413D

 19 21  0  0  1  0  0  0  0  0999 V2000
    0.1230    0.1624   -0.0464 C   0  0  0  0  0  0  0  0  0  0  0  0
    1.6336    0.1199    0.0605 C   0  0  1  0  0  0  0  0  0  0  0  0
    2.2501   -1.0289    0.8257 C   0  0  1  0  0  0  0  0  0  0  0  0
    2.3597   -0.9685   -0.6967 C   0  0  2  0  0  0  0  0  0  0  0  0
    3.8882   -0.9458   -0.8040 C   0  0  2  0  0  0  0  0  0  0  0  0
    4.2823   -1.9986    0.1673 O   0  0  0  0  0  0  0  0  0  0  0  0
    3.7473   -1.0233    1.1521 C   0  0  1  0  0  0  0  0  0  0  0  0
    4.3962    0.0701    0.2575 C   0  0  1  0  0  0  0  0  0  0  0  0
    5.7892    0.1425    0.3607 O   0  0  0  0  0  0  0  0  0  0  0  0
   -0.3191    0.6473    0.8302 H   0  0  0  0  0  0  0  0  0  0  0  0
   -0.1921    0.7202   -0.9346 H   0  0  0  0  0  0  0  0  0  0  0  0
   -0.2979   -0.8460   -0.1183 H   0  0  0  0  0  0  0  0  0  0  0  0
    2.0844    1.1033    0.1320 H   0  0  0  0  0  0  0  0  0  0  0  0
    1.6073   -1.7415    1.3299 H   0  0  0  0  0  0  0  0  0  0  0  0
    1.7997   -1.6355   -1.3422 H   0  0  0  0  0  0  0  0  0  0  0  0
    4.3590   -1.0577   -1.7805 H   0  0  0  0  0  0  0  0  0  0  0  0
    4.0742   -1.2145    2.1741 H   0  0  0  0  0  0  0  0  0  0  0  0
    4.0285    1.0947    0.2717 H   0  0  0  0  0  0  0  0  0  0  0  0
    6.0944   -0.7753    0.3463 H   0  0  0  0  0  0  0  0  0  0  0  0
  1  2  1  0  0  0  0
  1 10  1  0  0  0  0
  2 13  1  1  0  0  0
  2  3  1  0  0  0  0
  3  7  1  0  0  0  0
  3 14  1  1  0  0  0
  4 15  1  6  0  0  0
  4  2  1  0  0  0  0
  4  3  1  0  0  0  0
  5 16  1  6  0  0  0
  5  4  1  0  0  0  0
  5  6  1  0  0  0  0
  5  8  1  0  0  0  0
  6  7  1  0  0  0  0
  7 17  1  1  0  0  0
  8 18  1  1  0  0  0
  8  9  1  0  0  0  0
  8  7  1  0  0  0  0
 11  1  1  0  0  0  0
 12  1  1  0  0  0  0
 19  9  1  0  0  0  0
M TOR 0 0 1 2 3
M TOR 1 0 1 2 6
M TOR 2 0 1 2 13
M TOR 3 0 1 3 4
M TOR 4 0 1 3 14
M TOR 5 1 2 3 4
M TOR 6 1 2 3 14
M TOR 7 1 2 6 5
M TOR 8 1 2 6 7
M TOR 9 1 2 6 16
M TOR 10 1 3 2 6
M TOR 11 1 3 2 13
M TOR 12 1 3 4 5
M TOR 13 1 3 4 7
M TOR 14 1 3 4 15
M TOR 15 2 1 0 9
M TOR 16 2 1 0 10
M TOR 17 2 1 0 11
M TOR 18 2 3 1 12
M TOR 19 2 3 4 5
M TOR 20 2 3 4 7
M TOR 21 2 3 4 15
M TOR 22 2 6 5 4
M TOR 23 2 6 7 4
M TOR 24 2 6 7 8
M TOR 25 2 6 7 17
M TOR 26 3 1 0 9
M TOR 27 3 1 0 10
M TOR 28 3 1 0 11
M TOR 29 3 2 6 5
M TOR 30 3 2 6 7
M TOR 31 3 2 6 16
M TOR 32 3 4 5 6
M TOR 33 3 4 7 6
M TOR 34 3 4 7 8
M TOR 35 3 4 7 17
M TOR 36 4 3 1 12
M TOR 37 4 3 2 6
M TOR 38 4 3 2 13
M TOR 39 4 5 6 7
M TOR 40 4 5 6 16
M TOR 41 4 7 6 16
M TOR 42 4 7 8 18
M TOR 43 5 4 3 14
M TOR 44 5 4 7 8
M TOR 45 5 4 7 17
M TOR 46 5 6 2 13
M TOR 47 5 6 7 8
M TOR 48 5 6 7 17
M TOR 49 6 2 1 12
M TOR 50 6 2 3 14
M TOR 51 6 5 4 15
M TOR 52 6 7 4 15
M TOR 53 6 7 8 18
M TOR 54 7 4 3 14
M TOR 55 7 6 2 13
M TOR 56 8 7 4 15
M TOR 57 8 7 6 16
M  END
$$$$
