gdb 5574	3.4316319	1.4010793	1.2425939	1.982	73.47	-0.24594	0.06267	0.30861	1054.1147	0.158972	-422.516753	-422.509359	-422.508415	-422.548881	29.293
 OpenBabel02181911423D

 19 21  0  0  1  0  0  0  0  0999 V2000
    1.5805    0.8361    0.2021 O   0  0  0  0  0  0  0  0  0  0  0  0
    0.5357   -0.0497    0.5873 C   0  0  0  0  0  0  0  0  0  0  0  0
   -0.3664    0.5512    1.6617 C   0  0  1  0  0  0  0  0  0  0  0  0
   -1.4089   -0.4063    2.2879 C   0  0  2  0  0  0  0  0  0  0  0  0
   -2.1980    0.5570    3.2123 C   0  0  0  0  0  0  0  0  0  0  0  0
   -0.8872    0.6162    4.0135 C   0  0  1  0  0  0  0  0  0  0  0  0
   -0.5450   -0.8240    3.5801 C   0  0  2  0  0  0  0  0  0  0  0  0
    0.8355   -0.5180    3.3556 O   0  0  0  0  0  0  0  0  0  0  0  0
    0.3277    0.8115    3.0197 C   0  0  1  0  0  0  0  0  0  0  0  0
    2.2579    0.7949    0.8838 H   0  0  0  0  0  0  0  0  0  0  0  0
   -0.0543   -0.2333   -0.3175 H   0  0  0  0  0  0  0  0  0  0  0  0
    0.9340   -1.0121    0.9292 H   0  0  0  0  0  0  0  0  0  0  0  0
   -0.8379    1.4588    1.2706 H   0  0  0  0  0  0  0  0  0  0  0  0
   -1.9039   -1.1339    1.6464 H   0  0  0  0  0  0  0  0  0  0  0  0
   -2.6046    1.4686    2.7660 H   0  0  0  0  0  0  0  0  0  0  0  0
   -2.9771    0.0511    3.7902 H   0  0  0  0  0  0  0  0  0  0  0  0
   -0.7848    0.9867    5.0318 H   0  0  0  0  0  0  0  0  0  0  0  0
   -0.7485   -1.7490    4.1169 H   0  0  0  0  0  0  0  0  0  0  0  0
    1.0694    1.6031    3.1181 H   0  0  0  0  0  0  0  0  0  0  0  0
  1  2  1  0  0  0  0
  1 10  1  0  0  0  0
  2 12  1  0  0  0  0
  2  3  1  0  0  0  0
  3 13  1  6  0  0  0
  3  4  1  0  0  0  0
  3  9  1  0  0  0  0
  4 14  1  6  0  0  0
  4  5  1  0  0  0  0
  4  7  1  0  0  0  0
  5 16  1  0  0  0  0
  5  6  1  0  0  0  0
  6 17  1  1  0  0  0
  7  6  1  0  0  0  0
  7 18  1  1  0  0  0
  8  7  1  0  0  0  0
  9 19  1  1  0  0  0
  9  8  1  0  0  0  0
  9  6  1  0  0  0  0
 11  2  1  0  0  0  0
 15  5  1  0  0  0  0
M TOR 0 0 1 2 3
M TOR 1 0 1 2 8
M TOR 2 0 1 2 12
M TOR 3 1 2 3 4
M TOR 4 1 2 3 6
M TOR 5 1 2 3 13
M TOR 6 1 2 8 5
M TOR 7 1 2 8 7
M TOR 8 1 2 8 18
M TOR 9 2 1 0 9
M TOR 10 2 3 4 5
M TOR 11 2 3 4 14
M TOR 12 2 3 4 15
M TOR 13 2 3 6 5
M TOR 14 2 3 6 7
M TOR 15 2 3 6 17
M TOR 16 2 8 5 4
M TOR 17 2 8 5 6
M TOR 18 2 8 5 16
M TOR 19 2 8 7 6
M TOR 20 3 2 1 10
M TOR 21 3 2 1 11
M TOR 22 3 2 8 5
M TOR 23 3 2 8 7
M TOR 24 3 2 8 18
M TOR 25 3 4 5 6
M TOR 26 3 4 5 8
M TOR 27 3 4 5 16
M TOR 28 3 6 5 8
M TOR 29 3 6 5 16
M TOR 30 3 6 7 8
M TOR 31 4 3 2 8
M TOR 32 4 3 2 12
M TOR 33 4 3 6 7
M TOR 34 4 3 6 17
M TOR 35 4 5 6 7
M TOR 36 4 5 6 17
M TOR 37 4 5 8 7
M TOR 38 4 5 8 18
M TOR 39 5 4 3 13
M TOR 40 5 6 3 13
M TOR 41 5 6 7 8
M TOR 42 5 8 2 12
M TOR 43 6 3 2 8
M TOR 44 6 3 2 12
M TOR 45 6 3 4 14
M TOR 46 6 3 4 15
M TOR 47 6 5 4 14
M TOR 48 6 5 4 15
M TOR 49 6 5 8 18
M TOR 50 6 7 8 18
M TOR 51 7 6 3 13
M TOR 52 7 6 5 16
M TOR 53 7 8 2 12
M TOR 54 7 8 5 16
M TOR 55 8 2 1 10
M TOR 56 8 2 1 11
M TOR 57 8 2 3 13
M TOR 58 8 5 4 14
M TOR 59 8 5 4 15
M TOR 60 8 5 6 17
M TOR 61 8 7 6 17
M  END
$$$$
