
     RDKit          3D

 19 21  0  0  0  0  0  0  0  0999 V2000
   -0.4021   -0.1292   -2.9432 C   0  0  0  0  0  0  0  0  0  0  0  0
   -1.0254   -1.4365   -2.3945 C   0  0  0  0  0  0  0  0  0  0  0  0
   -2.3591   -1.9000   -2.9824 C   0  0  0  0  0  0  0  0  0  0  0  0
   -3.2659   -0.8170   -3.5994 C   0  0  0  0  0  0  0  0  0  0  0  0
   -3.4473    0.5024   -2.8703 C   0  0  0  0  0  0  0  0  0  0  0  0
   -3.6026    0.5359   -1.4506 O   0  0  0  0  0  0  0  0  0  0  0  0
   -2.4396    1.1470   -2.0127 C   0  0  0  0  0  0  0  0  0  0  0  0
   -1.0888    0.5009   -1.7083 C   0  0  0  0  0  0  0  0  0  0  0  0
   -1.2396   -0.7968   -1.1099 O   0  0  0  0  0  0  0  0  0  0  0  0
    0.6863   -0.1267   -2.8664 H   0  0  0  0  0  0  0  0  0  0  0  0
   -0.7029    0.2227   -3.9312 H   0  0  0  0  0  0  0  0  0  0  0  0
   -0.3460   -2.2894   -2.2897 H   0  0  0  0  0  0  0  0  0  0  0  0
   -2.1737   -2.6589   -3.7527 H   0  0  0  0  0  0  0  0  0  0  0  0
   -2.8863   -2.4037   -2.1649 H   0  0  0  0  0  0  0  0  0  0  0  0
   -2.8995   -0.5590   -4.6027 H   0  0  0  0  0  0  0  0  0  0  0  0
   -4.2595   -1.2541   -3.7596 H   0  0  0  0  0  0  0  0  0  0  0  0
   -4.1370    1.1708   -3.3931 H   0  0  0  0  0  0  0  0  0  0  0  0
   -2.4393    2.2380   -1.9669 H   0  0  0  0  0  0  0  0  0  0  0  0
   -0.4840    1.1644   -1.0814 H   0  0  0  0  0  0  0  0  0  0  0  0
  1  2  1  0
  2  3  1  0
  3  4  1  0
  4  5  1  0
  5  6  1  0
  6  7  1  0
  7  8  1  0
  8  9  1  0
  8  1  1  0
  9  2  1  0
  7  5  1  0
  1 10  1  0
  1 11  1  0
  2 12  1  0
  3 13  1  0
  3 14  1  0
  4 15  1  0
  4 16  1  0
  5 17  1  0
  7 18  1  0
  8 19  1  0
M  END
$$$$
