
     RDKit          3D

 19 20  0  0  0  0  0  0  0  0999 V2000
    1.2453   -0.2787    1.0749 C   0  0  0  0  0  0  0  0  0  0  0  0
    0.8574    0.2278   -0.3209 C   0  0  0  0  0  0  0  0  0  0  0  0
    1.6014   -0.4790   -1.4074 C   0  0  0  0  0  0  0  0  0  0  0  0
    3.0226   -0.3415   -1.4524 O   0  0  0  0  0  0  0  0  0  0  0  0
    2.9822   -0.3472   -2.9091 C   0  0  0  0  0  0  0  0  0  0  0  0
    1.4858   -0.6102   -2.8883 C   0  0  0  0  0  0  0  0  0  0  0  0
    1.2353   -1.8511   -2.0244 C   0  0  0  0  0  0  0  0  0  0  0  0
   -0.1642   -2.3007   -1.9163 C   0  0  0  0  0  0  0  0  0  0  0  0
   -1.1355   -1.5988   -2.1058 O   0  0  0  0  0  0  0  0  0  0  0  0
    0.9852   -1.3352    1.1962 H   0  0  0  0  0  0  0  0  0  0  0  0
    2.3211   -0.1751    1.2423 H   0  0  0  0  0  0  0  0  0  0  0  0
    0.7226    0.2886    1.8500 H   0  0  0  0  0  0  0  0  0  0  0  0
   -0.2138    0.1023   -0.4997 H   0  0  0  0  0  0  0  0  0  0  0  0
    1.0760    1.2993   -0.4028 H   0  0  0  0  0  0  0  0  0  0  0  0
    3.2485    0.6406   -3.2998 H   0  0  0  0  0  0  0  0  0  0  0  0
    3.6362   -1.1118   -3.3427 H   0  0  0  0  0  0  0  0  0  0  0  0
    0.7229   -0.2535   -3.5662 H   0  0  0  0  0  0  0  0  0  0  0  0
    1.9955   -2.6258   -1.9716 H   0  0  0  0  0  0  0  0  0  0  0  0
   -0.2845   -3.3683   -1.6287 H   0  0  0  0  0  0  0  0  0  0  0  0
  1  2  1  0
  2  3  1  0
  3  4  1  0
  4  5  1  0
  5  6  1  0
  6  7  1  0
  7  8  1  0
  8  9  2  0
  6  3  1  0
  7  3  1  0
  1 10  1  0
  1 11  1  0
  1 12  1  0
  2 13  1  0
  2 14  1  0
  5 15  1  0
  5 16  1  0
  6 17  1  0
  7 18  1  0
  8 19  1  0
M  END
$$$$
