
     RDKit          3D

 19 19  0  0  0  0  0  0  0  0999 V2000
   -0.7454   -1.2389    4.2960 C   0  0  0  0  0  0  0  0  0  0  0  0
   -0.8053    0.1376    3.6217 C   0  0  0  0  0  0  0  0  0  0  0  0
   -0.4245    1.2702    4.5948 C   0  0  0  0  0  0  0  0  0  0  0  0
   -0.7608    2.5507    4.1057 O   0  0  0  0  0  0  0  0  0  0  0  0
    0.1085    0.1637    2.4118 C   0  0  0  0  0  0  0  0  0  0  0  0
    0.1487    1.3748    1.6423 O   0  0  0  0  0  0  0  0  0  0  0  0
   -0.4004    0.1926    1.0235 C   0  0  0  0  0  0  0  0  0  0  0  0
    0.3364   -0.3697   -0.0747 C   0  0  0  0  0  0  0  0  0  0  0  0
    0.9297   -0.8519   -1.0019 C   0  0  0  0  0  0  0  0  0  0  0  0
   -1.4452   -1.2889    5.1351 H   0  0  0  0  0  0  0  0  0  0  0  0
   -1.0010   -2.0393    3.5948 H   0  0  0  0  0  0  0  0  0  0  0  0
    0.2583   -1.4453    4.6849 H   0  0  0  0  0  0  0  0  0  0  0  0
   -1.8312    0.3414    3.2912 H   0  0  0  0  0  0  0  0  0  0  0  0
   -0.9749    1.1403    5.5337 H   0  0  0  0  0  0  0  0  0  0  0  0
    0.6502    1.1939    4.8393 H   0  0  0  0  0  0  0  0  0  0  0  0
   -0.4378    2.6056    3.1979 H   0  0  0  0  0  0  0  0  0  0  0  0
    1.0961   -0.2762    2.5613 H   0  0  0  0  0  0  0  0  0  0  0  0
   -1.4808    0.2317    0.8899 H   0  0  0  0  0  0  0  0  0  0  0  0
    1.4589   -1.2749   -1.8200 H   0  0  0  0  0  0  0  0  0  0  0  0
  1  2  1  0
  2  3  1  0
  3  4  1  0
  2  5  1  0
  5  6  1  0
  6  7  1  0
  7  8  1  0
  8  9  3  0
  7  5  1  0
  1 10  1  0
  1 11  1  0
  1 12  1  0
  2 13  1  0
  3 14  1  0
  3 15  1  0
  4 16  1  0
  5 17  1  0
  7 18  1  0
  9 19  1  0
M  END
$$$$
