
     RDKit          3D

 19 21  0  0  0  0  0  0  0  0999 V2000
    1.4118   -0.0774   -0.2134 C   0  0  0  0  0  0  0  0  0  0  0  0
    0.0095    0.1256   -0.0720 O   0  0  0  0  0  0  0  0  0  0  0  0
   -0.3452    0.6467    1.1329 C   0  0  0  0  0  0  0  0  0  0  0  0
   -1.6921    0.6499    1.8204 C   0  0  0  0  0  0  0  0  0  0  0  0
   -1.6877    2.1693    1.9680 C   0  0  0  0  0  0  0  0  0  0  0  0
   -0.1449    2.0499    1.8818 C   0  0  0  0  0  0  0  0  0  0  0  0
    0.2176    1.3489    3.0982 O   0  0  0  0  0  0  0  0  0  0  0  0
   -0.3892    0.1754    2.5542 C   0  0  0  0  0  0  0  0  0  0  0  0
   -0.2180   -1.1338    3.2446 C   0  0  0  0  0  0  0  0  0  0  0  0
    1.7905   -0.7749    0.5442 H   0  0  0  0  0  0  0  0  0  0  0  0
    1.5713   -0.4973   -1.2084 H   0  0  0  0  0  0  0  0  0  0  0  0
    1.9609    0.8694   -0.1284 H   0  0  0  0  0  0  0  0  0  0  0  0
   -2.5216   -0.0267    1.6575 H   0  0  0  0  0  0  0  0  0  0  0  0
   -2.1085    2.6589    1.0859 H   0  0  0  0  0  0  0  0  0  0  0  0
   -2.0801    2.6186    2.8853 H   0  0  0  0  0  0  0  0  0  0  0  0
    0.5099    2.8868    1.6481 H   0  0  0  0  0  0  0  0  0  0  0  0
   -0.7066   -1.1286    4.2249 H   0  0  0  0  0  0  0  0  0  0  0  0
   -0.6640   -1.9344    2.6471 H   0  0  0  0  0  0  0  0  0  0  0  0
    0.8421   -1.3636    3.3928 H   0  0  0  0  0  0  0  0  0  0  0  0
  1  2  1  0
  2  3  1  0
  3  4  1  0
  4  5  1  0
  5  6  1  0
  6  7  1  0
  7  8  1  0
  8  9  1  0
  6  3  1  0
  8  3  1  0
  8  4  1  0
  1 10  1  0
  1 11  1  0
  1 12  1  0
  4 13  1  0
  5 14  1  0
  5 15  1  0
  6 16  1  0
  9 17  1  0
  9 18  1  0
  9 19  1  0
M  END
$$$$
