gdb 1749	2.5777716	1.7083918	1.585877	1.7337	73.93	-0.21339	0.07112	0.28451	971.3944	0.158324	-422.5153	-422.507716	-422.506771	-422.546917	29.929
 OpenBabel02181911403D

 19 21  0  0  1  0  0  0  0  0999 V2000
   -0.0338    1.7043    0.3212 C   0  0  0  0  0  0  0  0  0  0  0  0
    1.1490    0.7902    0.2066 C   0  0  2  0  0  0  0  0  0  0  0  0
    1.4389   -0.4983   -0.5646 C   0  0  2  0  0  0  0  0  0  0  0  0
    1.9596   -1.1755    0.5792 O   0  0  0  0  0  0  0  0  0  0  0  0
    1.8214    0.0432    1.3740 C   0  0  1  0  0  0  0  0  0  0  0  0
    3.1884    0.6026    1.7530 C   0  0  0  0  0  0  0  0  0  0  0  0
    4.1159    0.5182    0.5328 C   0  0  0  0  0  0  0  0  0  0  0  0
    3.5408    1.0478   -0.6608 O   0  0  0  0  0  0  0  0  0  0  0  0
    2.1882    0.7776   -0.8781 C   0  0  2  0  0  0  0  0  0  0  0  0
    0.2344    2.6403    0.8265 H   0  0  0  0  0  0  0  0  0  0  0  0
   -0.4246    1.9678   -0.6669 H   0  0  0  0  0  0  0  0  0  0  0  0
   -0.8475    1.2392    0.8899 H   0  0  0  0  0  0  0  0  0  0  0  0
    0.8658   -1.0861   -1.2747 H   0  0  0  0  0  0  0  0  0  0  0  0
    1.1675   -0.1380    2.2328 H   0  0  0  0  0  0  0  0  0  0  0  0
    3.0678    1.6389    2.0915 H   0  0  0  0  0  0  0  0  0  0  0  0
    3.6374    0.0343    2.5750 H   0  0  0  0  0  0  0  0  0  0  0  0
    5.0290    1.0971    0.6985 H   0  0  0  0  0  0  0  0  0  0  0  0
    4.3951   -0.5295    0.3725 H   0  0  0  0  0  0  0  0  0  0  0  0
    1.8765    1.2453   -1.8088 H   0  0  0  0  0  0  0  0  0  0  0  0
  1 10  1  0  0  0  0
  1 12  1  0  0  0  0
  2  1  1  1  0  0  0
  2  5  1  0  0  0  0
  3 13  1  6  0  0  0
  3  2  1  0  0  0  0
  3  4  1  0  0  0  0
  4  5  1  0  0  0  0
  5  6  1  0  0  0  0
  5 14  1  1  0  0  0
  6 15  1  0  0  0  0
  6 16  1  0  0  0  0
  7 17  1  0  0  0  0
  7  6  1  0  0  0  0
  8  7  1  0  0  0  0
  9 19  1  6  0  0  0
  9  8  1  0  0  0  0
  9  3  1  0  0  0  0
  9  2  1  0  0  0  0
 11  1  1  0  0  0  0
 18  7  1  0  0  0  0
M TOR 0 0 1 2 3
M TOR 1 0 1 2 8
M TOR 2 0 1 2 12
M TOR 3 0 1 4 3
M TOR 4 0 1 4 5
M TOR 5 0 1 4 13
M TOR 6 0 1 8 7
M TOR 7 0 1 8 18
M TOR 8 1 2 3 4
M TOR 9 1 2 8 7
M TOR 10 1 2 8 18
M TOR 11 1 4 5 6
M TOR 12 1 4 5 14
M TOR 13 1 4 5 15
M TOR 14 1 8 2 3
M TOR 15 1 8 2 12
M TOR 16 1 8 7 6
M TOR 17 2 1 0 9
M TOR 18 2 1 0 10
M TOR 19 2 1 0 11
M TOR 20 2 1 4 5
M TOR 21 2 1 4 13
M TOR 22 2 3 4 5
M TOR 23 2 3 4 13
M TOR 24 2 8 1 4
M TOR 25 2 8 7 6
M TOR 26 3 2 8 7
M TOR 27 3 2 8 18
M TOR 28 3 4 1 8
M TOR 29 3 4 5 6
M TOR 30 3 4 5 14
M TOR 31 3 4 5 15
M TOR 32 4 1 0 9
M TOR 33 4 1 0 10
M TOR 34 4 1 0 11
M TOR 35 4 1 2 12
M TOR 36 4 1 8 7
M TOR 37 4 1 8 18
M TOR 38 4 3 2 8
M TOR 39 4 3 2 12
M TOR 40 4 5 6 7
M TOR 41 4 5 6 16
M TOR 42 4 5 6 17
M TOR 43 5 4 1 8
M TOR 44 5 6 7 8
M TOR 45 6 5 4 13
M TOR 46 6 7 8 18
M TOR 47 7 6 5 14
M TOR 48 7 6 5 15
M TOR 49 7 8 2 12
M TOR 50 8 1 0 9
M TOR 51 8 1 0 10
M TOR 52 8 1 0 11
M TOR 53 8 1 4 13
M TOR 54 8 7 6 16
M TOR 55 8 7 6 17
M  END
$$$$
