
     RDKit          3D

 19 21  0  0  0  0  0  0  0  0999 V2000
    3.5066    1.3877   15.3322 O   0  0  0  0  0  0  0  0  0  0  0  0
    3.8558    2.7305   15.1642 C   0  0  0  0  0  0  0  0  0  0  0  0
    5.0777    3.0923   14.3609 C   0  0  0  0  0  0  0  0  0  0  0  0
    3.6912    3.2815   13.7760 C   0  0  0  0  0  0  0  0  0  0  0  0
    3.1334    4.6369   13.5771 C   0  0  0  0  0  0  0  0  0  0  0  0
    1.6893    5.0335   13.2080 C   0  0  0  0  0  0  0  0  0  0  0  0
    2.2622    6.3375   12.5487 C   0  0  0  0  0  0  0  0  0  0  0  0
    3.6637    5.8712   12.9601 C   0  0  0  0  0  0  0  0  0  0  0  0
    3.6468    5.7068   14.3875 O   0  0  0  0  0  0  0  0  0  0  0  0
    4.0981    1.0090   15.9911 H   0  0  0  0  0  0  0  0  0  0  0  0
    3.5921    3.3910   15.9894 H   0  0  0  0  0  0  0  0  0  0  0  0
    5.6253    3.9829   14.6465 H   0  0  0  0  0  0  0  0  0  0  0  0
    5.6681    2.2749   13.9626 H   0  0  0  0  0  0  0  0  0  0  0  0
    3.3804    2.5479   13.0382 H   0  0  0  0  0  0  0  0  0  0  0  0
    1.2314    4.3614   12.4781 H   0  0  0  0  0  0  0  0  0  0  0  0
    1.0163    5.1609   14.0589 H   0  0  0  0  0  0  0  0  0  0  0  0
    2.1155    6.3605   11.4663 H   0  0  0  0  0  0  0  0  0  0  0  0
    1.9461    7.2899   12.9806 H   0  0  0  0  0  0  0  0  0  0  0  0
    4.6245    6.0833   12.5044 H   0  0  0  0  0  0  0  0  0  0  0  0
  1  2  1  0
  2  3  1  0
  3  4  1  0
  4  5  1  0
  5  6  1  0
  6  7  1  0
  7  8  1  0
  8  9  1  0
  4  2  1  0
  8  5  1  0
  9  5  1  0
  1 10  1  0
  2 11  1  0
  3 12  1  0
  3 13  1  0
  4 14  1  0
  6 15  1  0
  6 16  1  0
  7 17  1  0
  7 18  1  0
  8 19  1  0
M  END
$$$$
