gdb 1386	3.4758714	0.7881295	0.6707981	2.139	78.87	-0.26514	0.03378	0.29891999999999996	1664.6676	0.153346	-422.484009	-422.473907	-422.472962	-422.52022	35.498
 OpenBabel02181911403D

 19 19  0  0  1  0  0  0  0  0999 V2000
   -0.3365   -3.5735    3.6248 C   0  0  0  0  0  0  0  0  0  0  0  0
   -1.1174   -2.5505    2.7990 C   0  0  2  0  0  0  0  0  0  0  0  0
   -0.1719   -1.6182    2.2951 O   0  0  0  0  0  0  0  0  0  0  0  0
   -0.6970   -0.7030    1.3515 C   0  0  0  0  0  0  0  0  0  0  0  0
    0.4207    0.1928    0.8975 C   0  0  2  0  0  0  0  0  0  0  0  0
    0.3839    0.8487   -0.4140 C   0  0  0  0  0  0  0  0  0  0  0  0
    1.2329   -0.2739   -0.1809 O   0  0  0  0  0  0  0  0  0  0  0  0
   -2.1695   -1.8976    3.5929 C   0  0  0  0  0  0  0  0  0  0  0  0
   -3.0252   -1.3631    4.2468 C   0  0  0  0  0  0  0  0  0  0  0  0
    0.1574   -3.0772    4.4635 H   0  0  0  0  0  0  0  0  0  0  0  0
   -1.0094   -4.3407    4.0153 H   0  0  0  0  0  0  0  0  0  0  0  0
    0.4223   -4.0443    2.9954 H   0  0  0  0  0  0  0  0  0  0  0  0
   -1.6011   -3.0668    1.9520 H   0  0  0  0  0  0  0  0  0  0  0  0
   -1.1173   -1.2342    0.4826 H   0  0  0  0  0  0  0  0  0  0  0  0
   -1.4984   -0.0991    1.8046 H   0  0  0  0  0  0  0  0  0  0  0  0
    0.9775    0.6693    1.7046 H   0  0  0  0  0  0  0  0  0  0  0  0
   -0.4559    0.6687   -1.0848 H   0  0  0  0  0  0  0  0  0  0  0  0
    0.8879    1.8041   -0.5521 H   0  0  0  0  0  0  0  0  0  0  0  0
   -3.7835   -0.8941    4.8242 H   0  0  0  0  0  0  0  0  0  0  0  0
  1 11  1  0  0  0  0
  1 10  1  0  0  0  0
  2 13  1  6  0  0  0
  2  8  1  0  0  0  0
  2  1  1  0  0  0  0
  3  2  1  0  0  0  0
  4 15  1  0  0  0  0
  4  3  1  0  0  0  0
  5  4  1  0  0  0  0
  5 16  1  1  0  0  0
  6  7  1  0  0  0  0
  6  5  1  0  0  0  0
  7  5  1  0  0  0  0
  8  9  3  0  0  0  0
  9 19  1  0  0  0  0
 12  1  1  0  0  0  0
 14  4  1  0  0  0  0
 17  6  1  0  0  0  0
 18  6  1  0  0  0  0
M TOR 0 0 1 2 3
M TOR 1 0 1 7 8
M TOR 2 1 2 3 4
M TOR 3 1 2 3 13
M TOR 4 1 2 3 14
M TOR 5 1 7 8 18
M TOR 6 2 1 0 9
M TOR 7 2 1 0 10
M TOR 8 2 1 0 11
M TOR 9 2 1 7 8
M TOR 10 2 3 4 5
M TOR 11 2 3 4 6
M TOR 12 2 3 4 15
M TOR 13 3 2 1 7
M TOR 14 3 2 1 12
M TOR 15 3 4 5 6
M TOR 16 3 4 5 16
M TOR 17 3 4 5 17
M TOR 18 4 6 5 16
M TOR 19 4 6 5 17
M TOR 20 5 4 3 13
M TOR 21 5 4 3 14
M TOR 22 5 6 4 15
M TOR 23 6 4 3 13
M TOR 24 6 4 3 14
M TOR 25 7 1 0 9
M TOR 26 7 1 0 10
M TOR 27 7 1 0 11
M TOR 28 8 7 1 12
M  END
$$$$
