gdb 3376	2.4715062	1.6821472	1.1738155	1.341	75.44	-0.24311	0.05838	0.30149	1078.7269	0.157009	-422.502146	-422.494001	-422.493056	-422.534906	31.336
 OpenBabel02181911413D

 19 21  0  0  1  0  0  0  0  0999 V2000
    0.4154   -0.0248    0.4523 O   0  0  0  0  0  0  0  0  0  0  0  0
   -0.8017    0.5548    0.8598 C   0  0  2  0  0  0  0  0  0  0  0  0
   -2.0934    0.0933    0.1097 C   0  0  1  0  0  0  0  0  0  0  0  0
   -3.3876    0.2266    0.9292 C   0  0  0  0  0  0  0  0  0  0  0  0
   -3.5369    1.6200    0.5689 O   0  0  0  0  0  0  0  0  0  0  0  0
   -2.3795    1.5698   -0.2955 C   0  0  1  0  0  0  0  0  0  0  0  0
   -1.0804    1.9960    0.3798 C   0  0  0  0  0  0  0  0  0  0  0  0
   -0.7707    3.2971    1.0511 C   0  0  0  0  0  0  0  0  0  0  0  0
   -0.0398    2.9145   -0.2101 C   0  0  0  0  0  0  0  0  0  0  0  0
    0.5535    0.2016   -0.4743 H   0  0  0  0  0  0  0  0  0  0  0  0
   -0.8476    0.4067    1.9436 H   0  0  0  0  0  0  0  0  0  0  0  0
   -1.9831   -0.7419   -0.5806 H   0  0  0  0  0  0  0  0  0  0  0  0
   -4.2298   -0.3710    0.5588 H   0  0  0  0  0  0  0  0  0  0  0  0
   -3.2957    0.0808    2.0134 H   0  0  0  0  0  0  0  0  0  0  0  0
   -2.5996    1.9423   -1.3006 H   0  0  0  0  0  0  0  0  0  0  0  0
   -1.5212    4.0788    0.9993 H   0  0  0  0  0  0  0  0  0  0  0  0
   -0.2215    3.2622    1.9865 H   0  0  0  0  0  0  0  0  0  0  0  0
   -0.2838    3.4373   -1.1296 H   0  0  0  0  0  0  0  0  0  0  0  0
    0.9983    2.6094   -0.1226 H   0  0  0  0  0  0  0  0  0  0  0  0
  1  2  1  0  0  0  0
  2 11  1  1  0  0  0
  3 12  1  6  0  0  0
  3  2  1  0  0  0  0
  3  4  1  0  0  0  0
  4 14  1  0  0  0  0
  5  4  1  0  0  0  0
  6 15  1  6  0  0  0
  6  3  1  0  0  0  0
  6  7  1  0  0  0  0
  6  5  1  0  0  0  0
  7  2  1  0  0  0  0
  7  8  1  0  0  0  0
  8 17  1  0  0  0  0
  9 19  1  0  0  0  0
  9  7  1  0  0  0  0
  9  8  1  0  0  0  0
 10  1  1  0  0  0  0
 13  4  1  0  0  0  0
 16  8  1  0  0  0  0
 18  9  1  0  0  0  0
M TOR 0 0 1 2 3
M TOR 1 0 1 2 5
M TOR 2 0 1 2 11
M TOR 3 0 1 6 5
M TOR 4 0 1 6 7
M TOR 5 0 1 6 8
M TOR 6 1 2 3 4
M TOR 7 1 2 3 12
M TOR 8 1 2 3 13
M TOR 9 1 2 5 4
M TOR 10 1 2 5 6
M TOR 11 1 2 5 14
M TOR 12 1 6 5 4
M TOR 13 1 6 5 14
M TOR 14 1 6 7 8
M TOR 15 1 6 7 15
M TOR 16 1 6 7 16
M TOR 17 1 6 8 17
M TOR 18 1 6 8 18
M TOR 19 2 1 0 9
M TOR 20 2 1 6 7
M TOR 21 2 1 6 8
M TOR 22 2 3 4 5
M TOR 23 2 5 6 7
M TOR 24 2 5 6 8
M TOR 25 3 2 1 6
M TOR 26 3 2 1 10
M TOR 27 3 2 5 6
M TOR 28 3 2 5 14
M TOR 29 3 4 5 6
M TOR 30 3 4 5 14
M TOR 31 4 3 2 11
M TOR 32 4 5 2 11
M TOR 33 4 5 6 7
M TOR 34 4 5 6 8
M TOR 35 5 2 1 10
M TOR 36 5 2 3 12
M TOR 37 5 2 3 13
M TOR 38 5 4 3 12
M TOR 39 5 4 3 13
M TOR 40 5 6 1 10
M TOR 41 5 6 7 8
M TOR 42 5 6 7 15
M TOR 43 5 6 7 16
M TOR 44 5 6 8 17
M TOR 45 5 6 8 18
M TOR 46 6 1 0 9
M TOR 47 6 1 2 11
M TOR 48 6 5 2 11
M TOR 49 6 7 8 17
M TOR 50 6 7 8 18
M TOR 51 6 8 7 15
M TOR 52 6 8 7 16
M TOR 53 7 6 1 10
M TOR 54 7 6 5 14
M TOR 55 8 6 1 10
M TOR 56 8 6 5 14
M  END
$$$$
