
     RDKit          3D

 19 21  0  0  0  0  0  0  0  0999 V2000
   -1.8681   -0.9146   -0.9323 C   0  0  0  0  0  0  0  0  0  0  0  0
   -2.0041   -0.0780    0.3187 C   0  0  0  0  0  0  0  0  0  0  0  0
   -0.7832    0.5587    0.9549 C   0  0  0  0  0  0  0  0  0  0  0  0
    0.4105    0.3999    0.2424 O   0  0  0  0  0  0  0  0  0  0  0  0
   -1.8570    1.4311    0.3407 C   0  0  0  0  0  0  0  0  0  0  0  0
   -2.8395    2.0075    1.1671 O   0  0  0  0  0  0  0  0  0  0  0  0
   -3.7219    1.0106    1.6303 C   0  0  0  0  0  0  0  0  0  0  0  0
   -3.2253    0.0463    2.6731 C   0  0  0  0  0  0  0  0  0  0  0  0
   -3.2110   -0.3420    1.2041 C   0  0  0  0  0  0  0  0  0  0  0  0
   -1.7057   -1.9690   -0.6822 H   0  0  0  0  0  0  0  0  0  0  0  0
   -2.7741   -0.8493   -1.5448 H   0  0  0  0  0  0  0  0  0  0  0  0
   -1.0177   -0.5826   -1.5299 H   0  0  0  0  0  0  0  0  0  0  0  0
   -0.6779    0.5419    2.0382 H   0  0  0  0  0  0  0  0  0  0  0  0
    0.9216    1.2107    0.3395 H   0  0  0  0  0  0  0  0  0  0  0  0
   -1.6156    2.0233   -0.5378 H   0  0  0  0  0  0  0  0  0  0  0  0
   -4.7614    1.3188    1.6008 H   0  0  0  0  0  0  0  0  0  0  0  0
   -2.3020    0.2641    3.1956 H   0  0  0  0  0  0  0  0  0  0  0  0
   -3.9770   -0.4388    3.2878 H   0  0  0  0  0  0  0  0  0  0  0  0
   -3.8826   -1.1257    0.8739 H   0  0  0  0  0  0  0  0  0  0  0  0
  1  2  1  0
  2  3  1  0
  3  4  1  0
  3  5  1  0
  5  6  1  0
  6  7  1  0
  7  8  1  0
  8  9  1  0
  5  2  1  0
  9  7  1  0
  9  2  1  0
  1 10  1  0
  1 11  1  0
  1 12  1  0
  3 13  1  0
  4 14  1  0
  5 15  1  0
  7 16  1  0
  8 17  1  0
  8 18  1  0
  9 19  1  0
M  END
$$$$
