gdb 3612	2.2309648	1.463772	0.9277458	0.2467	80.38	-0.2209	-0.03661	0.18429	1240.8535	0.157712	-422.566113	-422.557393	-422.556449	-422.599549	33.386
 OpenBabel02181911413D

 19 19  0  0  1  0  0  0  0  0999 V2000
    0.3629    1.1036    0.0608 O   0  0  0  0  0  0  0  0  0  0  0  0
   -0.7212    0.5307    0.7911 C   0  0  2  0  0  0  0  0  0  0  0  0
   -0.2085   -0.2957    1.9786 C   0  0  0  0  0  0  0  0  0  0  0  0
   -1.2614   -0.6558    3.0329 C   0  0  2  0  0  0  0  0  0  0  0  0
   -0.6327   -1.2652    4.1650 O   0  0  0  0  0  0  0  0  0  0  0  0
   -2.4044   -1.5195    2.5653 C   0  0  0  0  0  0  0  0  0  0  0  0
   -2.8420   -1.7674    1.3224 C   0  0  0  0  0  0  0  0  0  0  0  0
   -2.3871   -1.2418    0.0352 C   0  0  0  0  0  0  0  0  0  0  0  0
   -1.5032   -0.2690   -0.2145 C   0  0  0  0  0  0  0  0  0  0  0  0
    0.8728    1.6472    0.6694 H   0  0  0  0  0  0  0  0  0  0  0  0
   -1.3724    1.3368    1.1780 H   0  0  0  0  0  0  0  0  0  0  0  0
    0.2669   -1.2077    1.5986 H   0  0  0  0  0  0  0  0  0  0  0  0
    0.5675    0.2786    2.4984 H   0  0  0  0  0  0  0  0  0  0  0  0
   -1.6786    0.2747    3.4438 H   0  0  0  0  0  0  0  0  0  0  0  0
   -0.3193   -2.1325    3.8836 H   0  0  0  0  0  0  0  0  0  0  0  0
   -2.9203   -2.0030    3.3924 H   0  0  0  0  0  0  0  0  0  0  0  0
   -3.6830   -2.4533    1.2417 H   0  0  0  0  0  0  0  0  0  0  0  0
   -2.8697   -1.6969   -0.8263 H   0  0  0  0  0  0  0  0  0  0  0  0
   -1.3007    0.0124   -1.2438 H   0  0  0  0  0  0  0  0  0  0  0  0
  1 10  1  0  0  0  0
  1  2  1  0  0  0  0
  2 11  1  1  0  0  0
  2  3  1  0  0  0  0
  3 13  1  0  0  0  0
  3  4  1  0  0  0  0
  4 14  1  1  0  0  0
  4  5  1  0  0  0  0
  6  4  1  0  0  0  0
  6 16  1  0  0  0  0
  7  6  2  0  0  0  0
  8  7  1  0  0  0  0
  9  8  2  0  0  0  0
  9  2  1  0  0  0  0
 12  3  1  0  0  0  0
 15  5  1  0  0  0  0
 17  7  1  0  0  0  0
 18  8  1  0  0  0  0
 19  9  1  0  0  0  0
M TOR 0 0 1 2 3
M TOR 1 0 1 2 11
M TOR 2 0 1 2 12
M TOR 3 0 1 8 7
M TOR 4 0 1 8 18
M TOR 5 1 2 3 4
M TOR 6 1 2 3 5
M TOR 7 1 2 3 13
M TOR 8 1 8 7 6
M TOR 9 1 8 7 17
M TOR 10 2 1 0 9
M TOR 11 2 1 8 7
M TOR 12 2 1 8 18
M TOR 13 2 3 4 14
M TOR 14 2 3 5 6
M TOR 15 2 3 5 15
M TOR 16 3 2 1 8
M TOR 17 3 2 1 10
M TOR 18 3 5 6 7
M TOR 19 3 5 6 16
M TOR 20 4 3 2 11
M TOR 21 4 3 2 12
M TOR 22 4 3 5 6
M TOR 23 4 3 5 15
M TOR 24 5 3 2 11
M TOR 25 5 3 2 12
M TOR 26 5 3 4 14
M TOR 27 5 6 7 8
M TOR 28 5 6 7 17
M TOR 29 6 5 3 13
M TOR 30 6 7 8 18
M TOR 31 7 6 5 15
M TOR 32 7 8 1 10
M TOR 33 8 1 0 9
M TOR 34 8 1 2 11
M TOR 35 8 1 2 12
M TOR 36 8 7 6 16
M  END
$$$$
