
     RDKit          3D

 19 20  0  0  0  0  0  0  0  0999 V2000
   -0.5785   -0.9521    0.4693 O   0  0  0  0  0  0  0  0  0  0  0  0
   -0.0595   -0.0600   -0.1565 C   0  0  0  0  0  0  0  0  0  0  0  0
    0.3394    1.2759    0.4100 C   0  0  0  0  0  0  0  0  0  0  0  0
   -0.8451    2.2985    0.2376 C   0  0  0  0  0  0  0  0  0  0  0  0
   -1.2154    2.0427    1.7221 C   0  0  0  0  0  0  0  0  0  0  0  0
    0.1840    1.4215    1.9434 C   0  0  0  0  0  0  0  0  0  0  0  0
    1.2341    2.2234    2.7430 C   0  0  0  0  0  0  0  0  0  0  0  0
    1.3408    1.1856    3.7317 O   0  0  0  0  0  0  0  0  0  0  0  0
    0.4677    0.3161    2.9736 C   0  0  0  0  0  0  0  0  0  0  0  0
    0.1178   -0.1633   -1.2520 H   0  0  0  0  0  0  0  0  0  0  0  0
    1.2943    1.5846   -0.0297 H   0  0  0  0  0  0  0  0  0  0  0  0
   -0.4712    3.3085    0.0569 H   0  0  0  0  0  0  0  0  0  0  0  0
   -1.5980    2.0636   -0.5186 H   0  0  0  0  0  0  0  0  0  0  0  0
   -1.4760    2.9116    2.3315 H   0  0  0  0  0  0  0  0  0  0  0  0
   -2.0026    1.2905    1.8197 H   0  0  0  0  0  0  0  0  0  0  0  0
    2.1864    2.3928    2.2190 H   0  0  0  0  0  0  0  0  0  0  0  0
    0.8912    3.1743    3.1721 H   0  0  0  0  0  0  0  0  0  0  0  0
    0.9979   -0.5611    2.5875 H   0  0  0  0  0  0  0  0  0  0  0  0
   -0.3955   -0.0196    3.5599 H   0  0  0  0  0  0  0  0  0  0  0  0
  1  2  2  0
  2  3  1  0
  3  4  1  0
  4  5  1  0
  5  6  1  0
  6  7  1  0
  7  8  1  0
  8  9  1  0
  6  3  1  0
  9  6  1  0
  2 10  1  0
  3 11  1  0
  4 12  1  0
  4 13  1  0
  5 14  1  0
  5 15  1  0
  7 16  1  0
  7 17  1  0
  9 18  1  0
  9 19  1  0
M  END
$$$$
