gdb 22	2.8541059	1.2434947	0.9125814	1.529	79.54	-0.21108	0.01742	0.22849999999999998	1294.6487	0.155906	-422.588556	-422.578821	-422.577877	-422.623351	34.694
 OpenBabel02181911403D

 19 19  0  0  0  0  0  0  0  0999 V2000
    2.0927    0.7879    4.8790 C   0  0  0  0  0  0  0  0  0  0  0  0
    1.8298    0.5376    3.4271 C   0  0  0  0  0  0  0  0  0  0  0  0
    2.7458    0.4040    2.4318 C   0  0  0  0  0  0  0  0  0  0  0  0
    2.1396    0.1784    1.2367 O   0  0  0  0  0  0  0  0  0  0  0  0
    0.7922    0.1762    1.4690 C   0  0  0  0  0  0  0  0  0  0  0  0
   -0.0863   -0.0591    0.2822 C   0  0  0  0  0  0  0  0  0  0  0  0
   -1.0883   -1.0456    0.5111 O   0  0  0  0  0  0  0  0  0  0  0  0
    0.5412    0.3871    2.7943 C   0  0  0  0  0  0  0  0  0  0  0  0
   -0.7980    0.4630    3.4623 C   0  0  0  0  0  0  0  0  0  0  0  0
    1.6845   -0.0129    5.5071 H   0  0  0  0  0  0  0  0  0  0  0  0
    3.1652    0.8543    5.0813 H   0  0  0  0  0  0  0  0  0  0  0  0
    1.6312    1.7230    5.2175 H   0  0  0  0  0  0  0  0  0  0  0  0
    3.8234    0.4391    2.4140 H   0  0  0  0  0  0  0  0  0  0  0  0
   -0.6420    0.8462    0.0123 H   0  0  0  0  0  0  0  0  0  0  0  0
    0.5560   -0.3139   -0.5735 H   0  0  0  0  0  0  0  0  0  0  0  0
   -0.6452   -1.8253    0.8629 H   0  0  0  0  0  0  0  0  0  0  0  0
   -0.8379   -0.1809    4.3488 H   0  0  0  0  0  0  0  0  0  0  0  0
   -1.0234    1.4816    3.8018 H   0  0  0  0  0  0  0  0  0  0  0  0
   -1.5888    0.1448    2.7802 H   0  0  0  0  0  0  0  0  0  0  0  0
  1 11  1  0  0  0  0
  1 12  1  0  0  0  0
  1 10  1  0  0  0  0
  2  1  1  0  0  0  0
  3  2  2  0  0  0  0
  4  5  1  0  0  0  0
  4  3  1  0  0  0  0
  5  8  2  0  0  0  0
  6  7  1  0  0  0  0
  6  5  1  0  0  0  0
  7 16  1  0  0  0  0
  8  2  1  0  0  0  0
  8  9  1  0  0  0  0
  9 18  1  0  0  0  0
  9 17  1  0  0  0  0
 13  3  1  0  0  0  0
 14  6  1  0  0  0  0
 15  6  1  0  0  0  0
 19  9  1  0  0  0  0
M TOR 0 0 1 2 3
M TOR 1 0 1 2 12
M TOR 2 0 1 7 4
M TOR 3 0 1 7 8
M TOR 4 1 2 3 4
M TOR 5 1 7 4 3
M TOR 6 1 7 4 5
M TOR 7 1 7 8 16
M TOR 8 1 7 8 17
M TOR 9 1 7 8 18
M TOR 10 2 1 0 9
M TOR 11 2 1 0 10
M TOR 12 2 1 0 11
M TOR 13 2 1 7 4
M TOR 14 2 1 7 8
M TOR 15 2 3 4 5
M TOR 16 2 3 4 7
M TOR 17 3 2 1 7
M TOR 18 3 4 5 6
M TOR 19 3 4 5 13
M TOR 20 3 4 5 14
M TOR 21 3 4 7 8
M TOR 22 4 3 2 12
M TOR 23 4 5 6 15
M TOR 24 4 7 8 16
M TOR 25 4 7 8 17
M TOR 26 4 7 8 18
M TOR 27 5 4 7 8
M TOR 28 6 5 4 7
M TOR 29 7 1 0 9
M TOR 30 7 1 0 10
M TOR 31 7 1 0 11
M TOR 32 7 1 2 12
M TOR 33 7 4 5 13
M TOR 34 7 4 5 14
M  END
$$$$
