gdb 928	4.2732995	0.9426351	0.898792	3.1619	75.42	-0.24667	-0.02107	0.2256	1325.0798	0.157404	-422.547884	-422.539814	-422.53887	-422.581566	30.065
 OpenBabel02181911403D

 19 20  0  0  1  0  0  0  0  0999 V2000
    1.5540   -0.1798   -0.0555 O   0  0  0  0  0  0  0  0  0  0  0  0
    0.3797    0.0817    0.0071 C   0  0  0  0  0  0  0  0  0  0  0  0
   -0.4068    0.7779   -1.0791 C   0  0  0  0  0  0  0  0  0  0  0  0
   -1.1515    2.0279   -0.5829 C   0  0  1  0  0  0  0  0  0  0  0  0
   -1.8952    2.7977   -1.7297 C   0  0  0  0  0  0  0  0  0  0  0  0
   -3.3244    2.6688   -1.1676 C   0  0  2  0  0  0  0  0  0  0  0  0
   -3.1715    3.0565    0.3190 C   0  0  0  0  0  0  0  0  0  0  0  0
   -2.4133    1.7144    0.2667 C   0  0  1  0  0  0  0  0  0  0  0  0
   -3.3602    1.2635   -0.7512 O   0  0  0  0  0  0  0  0  0  0  0  0
   -0.2103   -0.1895    0.9141 H   0  0  0  0  0  0  0  0  0  0  0  0
    0.2842    1.0249   -1.8904 H   0  0  0  0  0  0  0  0  0  0  0  0
   -1.1574    0.0758   -1.4685 H   0  0  0  0  0  0  0  0  0  0  0  0
   -0.4628    2.6828   -0.0392 H   0  0  0  0  0  0  0  0  0  0  0  0
   -1.5674    3.8346   -1.8395 H   0  0  0  0  0  0  0  0  0  0  0  0
   -1.7981    2.2959   -2.6952 H   0  0  0  0  0  0  0  0  0  0  0  0
   -4.1679    2.9711   -1.7875 H   0  0  0  0  0  0  0  0  0  0  0  0
   -2.6306    3.9694    0.5822 H   0  0  0  0  0  0  0  0  0  0  0  0
   -4.1113    2.9720    0.8647 H   0  0  0  0  0  0  0  0  0  0  0  0
   -2.3270    1.0422    1.1205 H   0  0  0  0  0  0  0  0  0  0  0  0
  1  2  2  0  0  0  0
  2 10  1  0  0  0  0
  3  4  1  0  0  0  0
  3  2  1  0  0  0  0
  4 13  1  1  0  0  0
  4  8  1  0  0  0  0
  5  6  1  0  0  0  0
  5  4  1  0  0  0  0
  6 16  1  6  0  0  0
  6  9  1  0  0  0  0
  6  7  1  0  0  0  0
  7 17  1  0  0  0  0
  7 18  1  0  0  0  0
  8  7  1  0  0  0  0
  8 19  1  1  0  0  0
  9  8  1  0  0  0  0
 11  3  1  0  0  0  0
 12  3  1  0  0  0  0
 14  5  1  0  0  0  0
 15  5  1  0  0  0  0
M TOR 0 0 1 2 3
M TOR 1 0 1 2 10
M TOR 2 0 1 2 11
M TOR 3 1 2 3 4
M TOR 4 1 2 3 7
M TOR 5 1 2 3 12
M TOR 6 2 3 4 5
M TOR 7 2 3 4 13
M TOR 8 2 3 4 14
M TOR 9 2 3 7 6
M TOR 10 2 3 7 8
M TOR 11 2 3 7 18
M TOR 12 3 2 1 9
M TOR 13 3 4 5 6
M TOR 14 3 4 5 8
M TOR 15 3 4 5 15
M TOR 16 3 7 6 5
M TOR 17 3 7 6 16
M TOR 18 3 7 6 17
M TOR 19 3 7 8 5
M TOR 20 4 3 2 10
M TOR 21 4 3 2 11
M TOR 22 4 3 7 6
M TOR 23 4 3 7 8
M TOR 24 4 3 7 18
M TOR 25 4 5 6 7
M TOR 26 4 5 6 16
M TOR 27 4 5 6 17
M TOR 28 4 5 8 7
M TOR 29 5 4 3 7
M TOR 30 5 4 3 12
M TOR 31 5 6 7 8
M TOR 32 5 6 7 18
M TOR 33 5 8 7 18
M TOR 34 6 5 4 13
M TOR 35 6 5 4 14
M TOR 36 6 7 3 12
M TOR 37 7 3 2 10
M TOR 38 7 3 2 11
M TOR 39 7 3 4 13
M TOR 40 7 3 4 14
M TOR 41 7 6 5 15
M TOR 42 7 8 5 15
M TOR 43 8 5 4 13
M TOR 44 8 5 4 14
M TOR 45 8 5 6 16
M TOR 46 8 5 6 17
M TOR 47 8 7 3 12
M TOR 48 8 7 6 16
M TOR 49 8 7 6 17
M  END
$$$$
