gdb 2957	3.0704681	1.2277951	1.0595528	2.4643	75.52	-0.23922	-0.01957	0.21964999999999998	1189.6347	0.155708	-422.580921	-422.572079	-422.571135	-422.614157	33.63
 OpenBabel02181911413D

 19 20  0  0  1  0  0  0  0  0999 V2000
   -4.0534    0.0324   -1.7640 C   0  0  0  0  0  0  0  0  0  0  0  0
   -2.6103    0.0139   -1.3108 C   0  0  1  0  0  0  0  0  0  0  0  0
   -2.2030    0.7780   -0.0596 C   0  0  2  0  0  0  0  0  0  0  0  0
   -0.7727    1.2671    0.0225 C   0  0  0  0  0  0  0  0  0  0  0  0
    0.0958    0.0119   -0.1779 C   0  0  0  0  0  0  0  0  0  0  0  0
    1.2714    0.0120   -0.4300 O   0  0  0  0  0  0  0  0  0  0  0  0
   -0.7786   -1.2398   -0.0023 C   0  0  0  0  0  0  0  0  0  0  0  0
   -2.2129   -0.7485   -0.0783 C   0  0  2  0  0  0  0  0  0  0  0  0
   -3.2099   -1.4988    0.5438 O   0  0  0  0  0  0  0  0  0  0  0  0
   -4.7328   -0.0091   -0.9101 H   0  0  0  0  0  0  0  0  0  0  0  0
   -4.2695    0.9407   -2.3364 H   0  0  0  0  0  0  0  0  0  0  0  0
   -4.2751   -0.8291   -2.4024 H   0  0  0  0  0  0  0  0  0  0  0  0
   -1.8849    0.0123   -2.1243 H   0  0  0  0  0  0  0  0  0  0  0  0
   -2.9870    1.3088    0.4694 H   0  0  0  0  0  0  0  0  0  0  0  0
   -0.4978    2.0280   -0.7155 H   0  0  0  0  0  0  0  0  0  0  0  0
   -0.5404    1.6842    1.0114 H   0  0  0  0  0  0  0  0  0  0  0  0
   -0.5111   -2.0045   -0.7371 H   0  0  0  0  0  0  0  0  0  0  0  0
   -0.5715   -1.6627    0.9914 H   0  0  0  0  0  0  0  0  0  0  0  0
   -3.0732   -1.4541    1.4966 H   0  0  0  0  0  0  0  0  0  0  0  0
  1  2  1  0  0  0  0
  1 10  1  0  0  0  0
  2 13  1  6  0  0  0
  2  8  1  0  0  0  0
  2  3  1  0  0  0  0
  3  4  1  0  0  0  0
  3 14  1  1  0  0  0
  4 16  1  0  0  0  0
  5  7  1  0  0  0  0
  5  4  1  0  0  0  0
  6  5  2  0  0  0  0
  7 18  1  0  0  0  0
  8  3  1  0  0  0  0
  8  7  1  0  0  0  0
  8  9  1  1  0  0  0
  9 19  1  0  0  0  0
 11  1  1  0  0  0  0
 12  1  1  0  0  0  0
 15  4  1  0  0  0  0
 17  7  1  0  0  0  0
M TOR 0 0 1 2 3
M TOR 1 0 1 2 7
M TOR 2 0 1 2 13
M TOR 3 0 1 7 6
M TOR 4 0 1 7 8
M TOR 5 1 2 3 4
M TOR 6 1 2 3 14
M TOR 7 1 2 3 15
M TOR 8 1 2 7 6
M TOR 9 1 2 7 8
M TOR 10 1 7 2 3
M TOR 11 1 7 2 13
M TOR 12 1 7 6 4
M TOR 13 1 7 6 16
M TOR 14 1 7 6 17
M TOR 15 1 7 8 18
M TOR 16 2 1 0 9
M TOR 17 2 1 0 10
M TOR 18 2 1 0 11
M TOR 19 2 3 4 5
M TOR 20 2 3 4 6
M TOR 21 2 7 1 12
M TOR 22 2 7 6 4
M TOR 23 2 7 6 16
M TOR 24 2 7 6 17
M TOR 25 2 7 8 18
M TOR 26 3 2 1 12
M TOR 27 3 2 7 6
M TOR 28 3 2 7 8
M TOR 29 3 4 6 7
M TOR 30 3 4 6 16
M TOR 31 3 4 6 17
M TOR 32 4 3 2 7
M TOR 33 4 3 2 13
M TOR 34 4 6 7 8
M TOR 35 5 4 3 14
M TOR 36 5 4 3 15
M TOR 37 5 4 6 7
M TOR 38 5 4 6 16
M TOR 39 5 4 6 17
M TOR 40 6 4 3 14
M TOR 41 6 4 3 15
M TOR 42 6 7 1 12
M TOR 43 6 7 2 13
M TOR 44 6 7 8 18
M TOR 45 7 1 0 9
M TOR 46 7 1 0 10
M TOR 47 7 1 0 11
M TOR 48 7 2 3 14
M TOR 49 7 2 3 15
M TOR 50 8 7 1 12
M TOR 51 8 7 2 13
M TOR 52 8 7 6 16
M TOR 53 8 7 6 17
M  END
$$$$
