
     RDKit          3D

 19 19  0  0  0  0  0  0  0  0999 V2000
    0.1026    5.7236   -0.1716 C   0  0  0  0  0  0  0  0  0  0  0  0
   -0.5640    4.4019   -0.4780 C   0  0  0  0  0  0  0  0  0  0  0  0
   -1.4329    4.2795   -1.3107 O   0  0  0  0  0  0  0  0  0  0  0  0
   -0.0732    3.1718    0.2936 C   0  0  0  0  0  0  0  0  0  0  0  0
   -1.1934    2.1674    0.5828 C   0  0  0  0  0  0  0  0  0  0  0  0
   -0.6957    1.1151    1.5368 C   0  0  0  0  0  0  0  0  0  0  0  0
    0.4227    1.2789    2.2390 C   0  0  0  0  0  0  0  0  0  0  0  0
    1.2324    2.5434    2.1629 C   0  0  0  0  0  0  0  0  0  0  0  0
    0.5597    3.5947    1.4898 O   0  0  0  0  0  0  0  0  0  0  0  0
    1.1893    5.6372   -0.2751 H   0  0  0  0  0  0  0  0  0  0  0  0
   -0.2855    6.4911   -0.8419 H   0  0  0  0  0  0  0  0  0  0  0  0
   -0.0817    5.9965    0.8720 H   0  0  0  0  0  0  0  0  0  0  0  0
    0.6731    2.6841   -0.3627 H   0  0  0  0  0  0  0  0  0  0  0  0
   -2.0653    2.6899    0.9982 H   0  0  0  0  0  0  0  0  0  0  0  0
   -1.5309    1.7227   -0.3583 H   0  0  0  0  0  0  0  0  0  0  0  0
   -1.2785    0.2030    1.6324 H   0  0  0  0  0  0  0  0  0  0  0  0
    0.7968    0.5029    2.9012 H   0  0  0  0  0  0  0  0  0  0  0  0
    1.4502    2.9225    3.1684 H   0  0  0  0  0  0  0  0  0  0  0  0
    2.2075    2.3427    1.6813 H   0  0  0  0  0  0  0  0  0  0  0  0
  1  2  1  0
  2  3  2  0
  2  4  1  0
  4  5  1  0
  5  6  1  0
  6  7  2  0
  7  8  1  0
  8  9  1  0
  9  4  1  0
  1 10  1  0
  1 11  1  0
  1 12  1  0
  4 13  1  0
  5 14  1  0
  5 15  1  0
  6 16  1  0
  7 17  1  0
  8 18  1  0
  8 19  1  0
M  END
$$$$
