
     RDKit          3D

 19 20  0  0  0  0  0  0  0  0999 V2000
   -0.5496   -0.6290   -1.4415 C   0  0  0  0  0  0  0  0  0  0  0  0
    0.6263   -1.5957   -1.5921 C   0  0  0  0  0  0  0  0  0  0  0  0
    0.7360   -2.4220   -0.4231 O   0  0  0  0  0  0  0  0  0  0  0  0
    1.7752   -2.1723    0.5118 C   0  0  0  0  0  0  0  0  0  0  0  0
    1.8728   -0.7430    1.0102 C   0  0  0  0  0  0  0  0  0  0  0  0
    2.3194    0.2422    0.2336 C   0  0  0  0  0  0  0  0  0  0  0  0
    2.7220   -0.0136   -1.1749 C   0  0  0  0  0  0  0  0  0  0  0  0
    1.8888    0.5106   -2.2157 O   0  0  0  0  0  0  0  0  0  0  0  0
    1.9270   -0.9102   -2.0371 C   0  0  0  0  0  0  0  0  0  0  0  0
   -0.3613    0.1204   -0.6717 H   0  0  0  0  0  0  0  0  0  0  0  0
   -0.7437   -0.1095   -2.3841 H   0  0  0  0  0  0  0  0  0  0  0  0
   -1.4374   -1.2034   -1.1636 H   0  0  0  0  0  0  0  0  0  0  0  0
    0.3705   -2.3079   -2.3870 H   0  0  0  0  0  0  0  0  0  0  0  0
    1.5600   -2.8478    1.3441 H   0  0  0  0  0  0  0  0  0  0  0  0
    2.7474   -2.4760    0.0953 H   0  0  0  0  0  0  0  0  0  0  0  0
    1.5664   -0.5389    2.0328 H   0  0  0  0  0  0  0  0  0  0  0  0
    2.4070    1.2622    0.6003 H   0  0  0  0  0  0  0  0  0  0  0  0
    3.7871    0.0929   -1.3941 H   0  0  0  0  0  0  0  0  0  0  0  0
    2.4654   -1.4276   -2.8314 H   0  0  0  0  0  0  0  0  0  0  0  0
  1  2  1  0
  2  3  1  0
  3  4  1  0
  4  5  1  0
  5  6  2  0
  6  7  1  0
  7  8  1  0
  8  9  1  0
  9  2  1  0
  9  7  1  0
  1 10  1  0
  1 11  1  0
  1 12  1  0
  2 13  1  0
  4 14  1  0
  4 15  1  0
  5 16  1  0
  6 17  1  0
  7 18  1  0
  9 19  1  0
M  END
$$$$
