
     RDKit          3D

 19 19  0  0  0  0  0  0  0  0999 V2000
    3.3619    1.8983   -1.6379 C   0  0  0  0  0  0  0  0  0  0  0  0
    2.5249    0.6553   -1.9962 C   0  0  0  0  0  0  0  0  0  0  0  0
    3.3532   -0.5037   -2.0296 O   0  0  0  0  0  0  0  0  0  0  0  0
    1.8963    0.8102   -3.3100 C   0  0  0  0  0  0  0  0  0  0  0  0
    1.3423    0.9721   -4.3637 C   0  0  0  0  0  0  0  0  0  0  0  0
    1.4193    0.4427   -0.9386 C   0  0  0  0  0  0  0  0  0  0  0  0
    0.5641   -0.8352   -1.0346 C   0  0  0  0  0  0  0  0  0  0  0  0
    1.1219   -1.1451    0.3668 C   0  0  0  0  0  0  0  0  0  0  0  0
    2.0170   -0.0039    0.3072 O   0  0  0  0  0  0  0  0  0  0  0  0
    3.7511    1.7928   -0.6205 H   0  0  0  0  0  0  0  0  0  0  0  0
    4.1996    1.9872   -2.3325 H   0  0  0  0  0  0  0  0  0  0  0  0
    2.7590    2.8092   -1.6898 H   0  0  0  0  0  0  0  0  0  0  0  0
    3.5565   -0.6786   -1.0994 H   0  0  0  0  0  0  0  0  0  0  0  0
    0.8671    1.1069   -5.3040 H   0  0  0  0  0  0  0  0  0  0  0  0
    0.8517    1.3705   -0.7984 H   0  0  0  0  0  0  0  0  0  0  0  0
   -0.5132   -0.6906   -1.1115 H   0  0  0  0  0  0  0  0  0  0  0  0
    0.9080   -1.5167   -1.8124 H   0  0  0  0  0  0  0  0  0  0  0  0
    0.4036   -1.0384    1.1882 H   0  0  0  0  0  0  0  0  0  0  0  0
    1.6699   -2.0853    0.4880 H   0  0  0  0  0  0  0  0  0  0  0  0
  1  2  1  0
  2  3  1  0
  2  4  1  0
  4  5  3  0
  2  6  1  0
  6  7  1  0
  7  8  1  0
  8  9  1  0
  9  6  1  0
  1 10  1  0
  1 11  1  0
  1 12  1  0
  3 13  1  0
  5 14  1  0
  6 15  1  0
  7 16  1  0
  7 17  1  0
  8 18  1  0
  8 19  1  0
M  END
$$$$
