
     RDKit          3D

 19 20  0  0  0  0  0  0  0  0999 V2000
    1.1233   -0.7268    0.4572 O   0  0  0  0  0  0  0  0  0  0  0  0
    0.0067   -0.3609    0.2351 C   0  0  0  0  0  0  0  0  0  0  0  0
   -1.3311   -1.0852    0.0212 C   0  0  0  0  0  0  0  0  0  0  0  0
   -2.0363    0.3132    0.0569 C   0  0  0  0  0  0  0  0  0  0  0  0
   -0.6508    1.0233    0.0988 C   0  0  0  0  0  0  0  0  0  0  0  0
   -3.0182    0.6264   -1.0785 C   0  0  0  0  0  0  0  0  0  0  0  0
   -4.3628    0.1114   -0.5213 C   0  0  0  0  0  0  0  0  0  0  0  0
   -4.1950   -0.0379    0.8933 O   0  0  0  0  0  0  0  0  0  0  0  0
   -2.9471    0.5202    1.2679 C   0  0  0  0  0  0  0  0  0  0  0  0
   -1.3741   -1.5886   -0.9512 H   0  0  0  0  0  0  0  0  0  0  0  0
   -1.6127   -1.8069    0.7932 H   0  0  0  0  0  0  0  0  0  0  0  0
   -0.3706    1.5288   -0.8318 H   0  0  0  0  0  0  0  0  0  0  0  0
   -0.4710    1.7126    0.9301 H   0  0  0  0  0  0  0  0  0  0  0  0
   -3.0589    1.7082   -1.2456 H   0  0  0  0  0  0  0  0  0  0  0  0
   -2.7445    0.1549   -2.0259 H   0  0  0  0  0  0  0  0  0  0  0  0
   -5.1856    0.8067   -0.7310 H   0  0  0  0  0  0  0  0  0  0  0  0
   -4.6356   -0.8672   -0.9334 H   0  0  0  0  0  0  0  0  0  0  0  0
   -3.0397    1.5969    1.4935 H   0  0  0  0  0  0  0  0  0  0  0  0
   -2.6038    0.0113    2.1746 H   0  0  0  0  0  0  0  0  0  0  0  0
  1  2  2  0
  2  3  1  0
  3  4  1  0
  4  5  1  0
  4  6  1  0
  6  7  1  0
  7  8  1  0
  8  9  1  0
  5  2  1  0
  9  4  1  0
  3 10  1  0
  3 11  1  0
  5 12  1  0
  5 13  1  0
  6 14  1  0
  6 15  1  0
  7 16  1  0
  7 17  1  0
  9 18  1  0
  9 19  1  0
M  END
$$$$
