
     RDKit          3D

 19 21  0  0  0  0  0  0  0  0999 V2000
   -0.3273   -0.3216   -0.1370 C   0  0  0  0  0  0  0  0  0  0  0  0
    1.1633   -0.1771   -0.3416 C   0  0  0  0  0  0  0  0  0  0  0  0
    2.1327   -0.6124    0.7292 C   0  0  0  0  0  0  0  0  0  0  0  0
    3.3611   -1.1434    0.3041 O   0  0  0  0  0  0  0  0  0  0  0  0
    4.4468   -0.3339    0.6721 C   0  0  0  0  0  0  0  0  0  0  0  0
    5.2230    0.3082   -0.4478 C   0  0  0  0  0  0  0  0  0  0  0  0
    4.2642    1.1286    0.3747 C   0  0  0  0  0  0  0  0  0  0  0  0
    3.0369    1.4528   -0.2237 O   0  0  0  0  0  0  0  0  0  0  0  0
    1.9498    0.8523    0.4315 C   0  0  0  0  0  0  0  0  0  0  0  0
   -0.6054   -0.1440    0.9074 H   0  0  0  0  0  0  0  0  0  0  0  0
   -0.8814    0.3955   -0.7518 H   0  0  0  0  0  0  0  0  0  0  0  0
   -0.6661   -1.3289   -0.4012 H   0  0  0  0  0  0  0  0  0  0  0  0
    1.5312   -0.3363   -1.3510 H   0  0  0  0  0  0  0  0  0  0  0  0
    1.7518   -1.0347    1.6581 H   0  0  0  0  0  0  0  0  0  0  0  0
    4.9627   -0.6504    1.5763 H   0  0  0  0  0  0  0  0  0  0  0  0
    6.2873    0.4682   -0.3142 H   0  0  0  0  0  0  0  0  0  0  0  0
    4.9047    0.0638   -1.4546 H   0  0  0  0  0  0  0  0  0  0  0  0
    4.6467    1.8808    1.0617 H   0  0  0  0  0  0  0  0  0  0  0  0
    1.4357    1.4965    1.1435 H   0  0  0  0  0  0  0  0  0  0  0  0
  1  2  1  0
  2  3  1  0
  3  4  1  0
  4  5  1  0
  5  6  1  0
  6  7  1  0
  7  8  1  0
  8  9  1  0
  9  2  1  0
  9  3  1  0
  7  5  1  0
  1 10  1  0
  1 11  1  0
  1 12  1  0
  2 13  1  0
  3 14  1  0
  5 15  1  0
  6 16  1  0
  6 17  1  0
  7 18  1  0
  9 19  1  0
M  END
$$$$
