gdb 3621	2.2010574	1.4156455	1.0637824	3.2405	78.75	-0.2364	-0.02591	0.21049	1196.2253	0.155496	-422.586901	-422.577516	-422.576572	-422.621458	33.96
 OpenBabel02181911413D

 19 19  0  0  1  0  0  0  0  0999 V2000
    1.3908    0.7968   -0.3099 C   0  0  0  0  0  0  0  0  0  0  0  0
    0.0325    0.2464   -0.0159 C   0  0  0  0  0  0  0  0  0  0  0  0
   -1.1404    0.8852   -0.0345 C   0  0  0  0  0  0  0  0  0  0  0  0
   -2.3017   -0.0260    0.2634 C   0  0  1  0  0  0  0  0  0  0  0  0
   -2.9736   -0.2982   -0.9730 O   0  0  0  0  0  0  0  0  0  0  0  0
   -1.6039   -1.2757    0.8571 C   0  0  0  0  0  0  0  0  0  0  0  0
   -0.1597   -1.2323    0.3113 C   0  0  1  0  0  0  0  0  0  0  0  0
   -0.0007   -2.0164   -0.9866 C   0  0  0  0  0  0  0  0  0  0  0  0
    0.9958   -2.6118   -1.3070 O   0  0  0  0  0  0  0  0  0  0  0  0
    2.0397    0.7271    0.5722 H   0  0  0  0  0  0  0  0  0  0  0  0
    1.8835    0.2193   -1.1008 H   0  0  0  0  0  0  0  0  0  0  0  0
    1.3438    1.8438   -0.6197 H   0  0  0  0  0  0  0  0  0  0  0  0
   -1.2764    1.9304   -0.2880 H   0  0  0  0  0  0  0  0  0  0  0  0
   -3.0143    0.4163    0.9741 H   0  0  0  0  0  0  0  0  0  0  0  0
   -3.7939   -0.7591   -0.7671 H   0  0  0  0  0  0  0  0  0  0  0  0
   -1.5739   -1.2024    1.9485 H   0  0  0  0  0  0  0  0  0  0  0  0
   -2.1404   -2.1952    0.6007 H   0  0  0  0  0  0  0  0  0  0  0  0
    0.5908   -1.6023    1.0169 H   0  0  0  0  0  0  0  0  0  0  0  0
   -0.8912   -1.9574   -1.6511 H   0  0  0  0  0  0  0  0  0  0  0  0
  1  2  1  0  0  0  0
  1 10  1  0  0  0  0
  2  7  1  0  0  0  0
  3  2  2  0  0  0  0
  3  4  1  0  0  0  0
  4  6  1  0  0  0  0
  4 14  1  1  0  0  0
  5 15  1  0  0  0  0
  5  4  1  0  0  0  0
  6 16  1  0  0  0  0
  7  6  1  0  0  0  0
  7 18  1  1  0  0  0
  8  7  1  0  0  0  0
  9  8  2  0  0  0  0
 11  1  1  0  0  0  0
 12  1  1  0  0  0  0
 13  3  1  0  0  0  0
 17  6  1  0  0  0  0
 19  8  1  0  0  0  0
M TOR 0 0 1 2 3
M TOR 1 0 1 2 12
M TOR 2 0 1 6 5
M TOR 3 0 1 6 7
M TOR 4 0 1 6 17
M TOR 5 1 2 3 4
M TOR 6 1 2 3 5
M TOR 7 1 2 3 13
M TOR 8 1 6 5 3
M TOR 9 1 6 5 15
M TOR 10 1 6 5 16
M TOR 11 1 6 7 8
M TOR 12 1 6 7 18
M TOR 13 2 1 0 9
M TOR 14 2 1 0 10
M TOR 15 2 1 0 11
M TOR 16 2 1 6 5
M TOR 17 2 1 6 7
M TOR 18 2 1 6 17
M TOR 19 2 3 4 14
M TOR 20 2 3 5 6
M TOR 21 2 3 5 15
M TOR 22 2 3 5 16
M TOR 23 3 2 1 6
M TOR 24 3 5 6 7
M TOR 25 3 5 6 17
M TOR 26 4 3 2 12
M TOR 27 4 3 5 6
M TOR 28 4 3 5 15
M TOR 29 4 3 5 16
M TOR 30 5 3 2 12
M TOR 31 5 3 4 14
M TOR 32 5 6 7 8
M TOR 33 5 6 7 18
M TOR 34 6 1 0 9
M TOR 35 6 1 0 10
M TOR 36 6 1 0 11
M TOR 37 6 1 2 12
M TOR 38 6 5 3 13
M TOR 39 7 6 5 15
M TOR 40 7 6 5 16
M TOR 41 8 7 6 17
M  END
$$$$
