gdb 4521	3.4432985	1.3254851	1.0809033	1.8296	78.25	-0.24058	0.007	0.24758	1147.2785	0.157809	-422.526526	-422.518557	-422.517613	-422.558871	30.699
 OpenBabel02181911413D

 19 20  0  0  1  0  0  0  0  0999 V2000
    0.0191    1.5433   -0.0831 C   0  0  0  0  0  0  0  0  0  0  0  0
   -0.0141    0.0115    0.0090 C   0  0  2  0  0  0  0  0  0  0  0  0
   -1.3675   -0.4622   -0.0712 O   0  0  0  0  0  0  0  0  0  0  0  0
   -2.0695   -0.6421    1.1569 C   0  0  0  0  0  0  0  0  0  0  0  0
   -1.3336   -1.7588    1.8889 C   0  0  2  0  0  0  0  0  0  0  0  0
   -1.4269   -1.8683    3.3373 O   0  0  0  0  0  0  0  0  0  0  0  0
    0.0233   -1.7745    3.4716 C   0  0  0  0  0  0  0  0  0  0  0  0
    0.1001   -1.3463    2.0285 C   0  0  2  0  0  3  0  0  0  0  0  0
    0.7134   -0.4762    1.2441 C   0  0  0  0  0  3  0  0  0  0  0  0
    1.0513    1.9048   -0.1377 H   0  0  0  0  0  0  0  0  0  0  0  0
   -0.5125    1.8712   -0.9798 H   0  0  0  0  0  0  0  0  0  0  0  0
   -0.4540    2.0010    0.7912 H   0  0  0  0  0  0  0  0  0  0  0  0
    0.4588   -0.3971   -0.8941 H   0  0  0  0  0  0  0  0  0  0  0  0
   -2.0785    0.2627    1.7806 H   0  0  0  0  0  0  0  0  0  0  0  0
   -3.0960   -0.8905    0.8754 H   0  0  0  0  0  0  0  0  0  0  0  0
   -1.5246   -2.7289    1.4117 H   0  0  0  0  0  0  0  0  0  0  0  0
    0.3303   -1.0454    4.2299 H   0  0  0  0  0  0  0  0  0  0  0  0
    0.4640   -2.7526    3.7098 H   0  0  0  0  0  0  0  0  0  0  0  0
    1.6630   -0.0102    1.4914 H   0  0  0  0  0  0  0  0  0  0  0  0
  1  2  1  0  0  0  0
  1 12  1  0  0  0  0
  2 13  1  6  0  0  0
  2  9  1  0  0  0  0
  3  2  1  0  0  0  0
  3  4  1  0  0  0  0
  4 14  1  0  0  0  0
  4  5  1  0  0  0  0
  5 16  1  6  0  0  0
  5  8  1  0  0  0  0
  5  6  1  0  0  0  0
  6  7  1  0  0  0  0
  7 18  1  0  0  0  0
  7 17  1  0  0  0  0
  8  9  1  1  0  0  0
  8  7  1  0  0  0  0
  9 19  1  0  0  0  0
 10  1  1  0  0  0  0
 11  1  1  0  0  0  0
 15  4  1  0  0  0  0
M TOR 0 0 1 2 3
M TOR 1 0 1 8 7
M TOR 2 0 1 8 18
M TOR 3 1 2 3 4
M TOR 4 1 2 3 13
M TOR 5 1 2 3 14
M TOR 6 1 8 7 4
M TOR 7 1 8 7 6
M TOR 8 2 1 0 9
M TOR 9 2 1 0 10
M TOR 10 2 1 0 11
M TOR 11 2 1 8 7
M TOR 12 2 1 8 18
M TOR 13 2 3 4 5
M TOR 14 2 3 4 7
M TOR 15 2 3 4 15
M TOR 16 3 2 1 8
M TOR 17 3 2 1 12
M TOR 18 3 4 5 6
M TOR 19 3 4 7 6
M TOR 20 3 4 7 8
M TOR 21 4 5 6 7
M TOR 22 4 5 6 16
M TOR 23 4 5 6 17
M TOR 24 4 7 6 16
M TOR 25 4 7 6 17
M TOR 26 4 7 8 18
M TOR 27 5 4 3 13
M TOR 28 5 4 3 14
M TOR 29 5 4 7 8
M TOR 30 5 6 7 8
M TOR 31 6 5 4 15
M TOR 32 6 7 4 15
M TOR 33 6 7 8 18
M TOR 34 7 4 3 13
M TOR 35 7 4 3 14
M TOR 36 7 8 1 12
M TOR 37 8 1 0 9
M TOR 38 8 1 0 10
M TOR 39 8 1 0 11
M TOR 40 8 7 4 15
M TOR 41 8 7 6 16
M TOR 42 8 7 6 17
M  END
$$$$
