
     RDKit          3D

 19 20  0  0  0  0  0  0  0  0999 V2000
    2.3280    1.4301    0.0519 C   0  0  0  0  0  0  0  0  0  0  0  0
    1.8215    0.0339    0.3497 C   0  0  0  0  0  0  0  0  0  0  0  0
    2.1589   -0.8967   -0.7249 O   0  0  0  0  0  0  0  0  0  0  0  0
    2.9358   -1.7080    0.1588 C   0  0  0  0  0  0  0  0  0  0  0  0
    2.1076   -2.8723    0.8209 C   0  0  0  0  0  0  0  0  0  0  0  0
    1.8262   -1.9558    2.0431 C   0  0  0  0  0  0  0  0  0  0  0  0
    2.6175   -0.8030    1.3781 C   0  0  0  0  0  0  0  0  0  0  0  0
    2.9310   -4.1017    1.0881 C   0  0  0  0  0  0  0  0  0  0  0  0
    3.3809   -4.4193    2.1610 O   0  0  0  0  0  0  0  0  0  0  0  0
    2.0787    2.1096    0.8744 H   0  0  0  0  0  0  0  0  0  0  0  0
    3.4139    1.4308   -0.0847 H   0  0  0  0  0  0  0  0  0  0  0  0
    1.8672    1.8138   -0.8635 H   0  0  0  0  0  0  0  0  0  0  0  0
    0.7365    0.0464    0.5226 H   0  0  0  0  0  0  0  0  0  0  0  0
    3.9258   -1.9454   -0.2408 H   0  0  0  0  0  0  0  0  0  0  0  0
    1.2554   -3.1411    0.1894 H   0  0  0  0  0  0  0  0  0  0  0  0
    0.7757   -1.7481    2.2604 H   0  0  0  0  0  0  0  0  0  0  0  0
    2.3068   -2.3504    2.9404 H   0  0  0  0  0  0  0  0  0  0  0  0
    3.3679   -0.2773    1.9678 H   0  0  0  0  0  0  0  0  0  0  0  0
    3.1436   -4.7107    0.1793 H   0  0  0  0  0  0  0  0  0  0  0  0
  1  2  1  0
  2  3  1  0
  3  4  1  0
  4  5  1  0
  5  6  1  0
  6  7  1  0
  5  8  1  0
  8  9  2  0
  7  2  1  0
  7  4  1  0
  1 10  1  0
  1 11  1  0
  1 12  1  0
  2 13  1  0
  4 14  1  0
  5 15  1  0
  6 16  1  0
  6 17  1  0
  7 18  1  0
  8 19  1  0
M  END
$$$$
