
     RDKit          3D

 19 20  0  0  0  0  0  0  0  0999 V2000
    1.0754   -0.6799    1.1084 C   0  0  0  0  0  0  0  0  0  0  0  0
    0.9487    0.1008   -0.2022 C   0  0  0  0  0  0  0  0  0  0  0  0
    1.8064   -0.4647   -1.3372 C   0  0  0  0  0  0  0  0  0  0  0  0
    3.3409   -0.3153   -1.1697 C   0  0  0  0  0  0  0  0  0  0  0  0
    3.8725   -0.1263   -2.5808 C   0  0  0  0  0  0  0  0  0  0  0  0
    3.3879   -1.1077   -3.4915 O   0  0  0  0  0  0  0  0  0  0  0  0
    2.7683    0.1950   -3.5063 C   0  0  0  0  0  0  0  0  0  0  0  0
    1.5023    0.2099   -2.6895 C   0  0  0  0  0  0  0  0  0  0  0  0
    0.4612    0.7238   -3.0115 O   0  0  0  0  0  0  0  0  0  0  0  0
    0.7783   -1.7262    0.9751 H   0  0  0  0  0  0  0  0  0  0  0  0
    2.1030   -0.6740    1.4877 H   0  0  0  0  0  0  0  0  0  0  0  0
    0.4354   -0.2484    1.8839 H   0  0  0  0  0  0  0  0  0  0  0  0
   -0.0927    0.1093   -0.5399 H   0  0  0  0  0  0  0  0  0  0  0  0
    1.2207    1.1516   -0.0380 H   0  0  0  0  0  0  0  0  0  0  0  0
    1.5657   -1.5280   -1.4696 H   0  0  0  0  0  0  0  0  0  0  0  0
    3.5755    0.5746   -0.5727 H   0  0  0  0  0  0  0  0  0  0  0  0
    3.8060   -1.1740   -0.6774 H   0  0  0  0  0  0  0  0  0  0  0  0
    4.8857    0.2233   -2.7622 H   0  0  0  0  0  0  0  0  0  0  0  0
    2.8611    0.7726   -4.4200 H   0  0  0  0  0  0  0  0  0  0  0  0
  1  2  1  0
  2  3  1  0
  3  4  1  0
  4  5  1  0
  5  6  1  0
  6  7  1  0
  7  8  1  0
  8  9  2  0
  8  3  1  0
  7  5  1  0
  1 10  1  0
  1 11  1  0
  1 12  1  0
  2 13  1  0
  2 14  1  0
  3 15  1  0
  4 16  1  0
  4 17  1  0
  5 18  1  0
  7 19  1  0
M  END
$$$$
