gdb 1499	2.0906986	1.6879669	1.2923079	4.4439	75.67	-0.26462	0.01339	0.27801000000000003	1087.0834	0.155155	-422.584335	-422.57524	-422.574296	-422.617689	34.026
 OpenBabel02181911403D

 19 20  0  0  0  0  0  0  0  0999 V2000
   -2.8953   -0.2304    1.2819 C   0  0  0  0  0  0  0  0  0  0  0  0
   -2.0658   -0.0353    0.0255 C   0  0  0  0  0  0  0  0  0  0  0  0
   -2.8563   -0.2012   -1.2599 C   0  0  0  0  0  0  0  0  0  0  0  0
   -0.9119   -0.9794    0.0323 O   0  0  0  0  0  0  0  0  0  0  0  0
    0.0021    0.0452    0.0582 C   0  0  0  0  0  0  0  0  0  0  0  0
    1.1911   -0.0301    0.0756 O   0  0  0  0  0  0  0  0  0  0  0  0
   -1.0459    1.1128    0.0543 C   0  0  0  0  0  0  0  0  0  0  0  0
   -1.0129    2.4060    0.8206 C   0  0  0  0  0  0  0  0  0  0  0  0
   -0.9897    2.4232   -0.6808 C   0  0  0  0  0  0  0  0  0  0  0  0
   -3.3586   -1.2217    1.2837 H   0  0  0  0  0  0  0  0  0  0  0  0
   -2.2748   -0.1352    2.1762 H   0  0  0  0  0  0  0  0  0  0  0  0
   -3.6941    0.5170    1.3323 H   0  0  0  0  0  0  0  0  0  0  0  0
   -3.3189   -1.1920   -1.2987 H   0  0  0  0  0  0  0  0  0  0  0  0
   -3.6534    0.5474   -1.3176 H   0  0  0  0  0  0  0  0  0  0  0  0
   -2.2087   -0.0857   -2.1324 H   0  0  0  0  0  0  0  0  0  0  0  0
   -1.9253    2.7110    1.3220 H   0  0  0  0  0  0  0  0  0  0  0  0
   -0.0981    2.6352    1.3562 H   0  0  0  0  0  0  0  0  0  0  0  0
   -1.8865    2.7399   -1.2029 H   0  0  0  0  0  0  0  0  0  0  0  0
   -0.0590    2.6642   -1.1826 H   0  0  0  0  0  0  0  0  0  0  0  0
  1 10  1  0  0  0  0
  1 12  1  0  0  0  0
  1 11  1  0  0  0  0
  2  4  1  0  0  0  0
  2  7  1  0  0  0  0
  2  1  1  0  0  0  0
  3  2  1  0  0  0  0
  4  5  1  0  0  0  0
  5  6  2  0  0  0  0
  7  5  1  0  0  0  0
  7  8  1  0  0  0  0
  8 16  1  0  0  0  0
  8 17  1  0  0  0  0
  9  7  1  0  0  0  0
  9  8  1  0  0  0  0
 13  3  1  0  0  0  0
 14  3  1  0  0  0  0
 15  3  1  0  0  0  0
 18  9  1  0  0  0  0
 19  9  1  0  0  0  0
M TOR 0 0 1 2 12
M TOR 1 0 1 2 13
M TOR 2 0 1 2 14
M TOR 3 0 1 3 4
M TOR 4 0 1 6 4
M TOR 5 0 1 6 7
M TOR 6 0 1 6 8
M TOR 7 1 3 4 5
M TOR 8 1 3 4 6
M TOR 9 1 6 4 5
M TOR 10 1 6 7 8
M TOR 11 1 6 7 15
M TOR 12 1 6 7 16
M TOR 13 1 6 8 17
M TOR 14 1 6 8 18
M TOR 15 2 1 0 9
M TOR 16 2 1 0 10
M TOR 17 2 1 0 11
M TOR 18 2 1 3 4
M TOR 19 2 1 6 4
M TOR 20 2 1 6 7
M TOR 21 2 1 6 8
M TOR 22 3 1 0 9
M TOR 23 3 1 0 10
M TOR 24 3 1 0 11
M TOR 25 3 1 2 12
M TOR 26 3 1 2 13
M TOR 27 3 1 2 14
M TOR 28 3 1 6 7
M TOR 29 3 1 6 8
M TOR 30 3 4 6 7
M TOR 31 3 4 6 8
M TOR 32 4 6 7 8
M TOR 33 4 6 7 15
M TOR 34 4 6 7 16
M TOR 35 4 6 8 17
M TOR 36 4 6 8 18
M TOR 37 5 4 6 7
M TOR 38 5 4 6 8
M TOR 39 6 1 0 9
M TOR 40 6 1 0 10
M TOR 41 6 1 0 11
M TOR 42 6 1 2 12
M TOR 43 6 1 2 13
M TOR 44 6 1 2 14
M TOR 45 6 7 8 17
M TOR 46 6 7 8 18
M TOR 47 6 8 7 15
M TOR 48 6 8 7 16
M  END
$$$$
