gdb 1130	3.7392438	1.0831638	0.9758646	1.3451	74.88	-0.24664	-0.01363	0.23301	1250.3373	0.156568	-422.575601	-422.566953	-422.566009	-422.609822	31.666
 OpenBabel02181911403D

 19 20  0  0  1  0  0  0  0  0999 V2000
    3.1187   -0.5572   -3.9365 C   0  0  0  0  0  0  0  0  0  0  0  0
    2.2363   -1.0168   -2.7909 C   0  0  0  0  0  0  0  0  0  0  0  0
    1.8136   -2.1491   -2.7256 O   0  0  0  0  0  0  0  0  0  0  0  0
    1.8911    0.0360   -1.7425 C   0  0  1  0  0  0  0  0  0  0  0  0
    0.6526    0.8824   -2.1923 C   0  0  0  0  0  0  0  0  0  0  0  0
   -0.0034    1.2814   -0.8864 C   0  0  2  0  0  0  0  0  0  0  0  0
    0.9141    1.8017    0.0836 O   0  0  0  0  0  0  0  0  0  0  0  0
    0.5007    0.4280    0.1941 C   0  0  2  0  0  0  0  0  0  0  0  0
    1.5044   -0.5541   -0.3663 C   0  0  0  0  0  0  0  0  0  0  0  0
    4.1284   -0.3547   -3.5592 H   0  0  0  0  0  0  0  0  0  0  0  0
    3.1688   -1.3277   -4.7066 H   0  0  0  0  0  0  0  0  0  0  0  0
    2.7490    0.3812   -4.3638 H   0  0  0  0  0  0  0  0  0  0  0  0
    2.7357    0.7202   -1.6302 H   0  0  0  0  0  0  0  0  0  0  0  0
    0.9372    1.7413   -2.8071 H   0  0  0  0  0  0  0  0  0  0  0  0
   -0.0517    0.2719   -2.7708 H   0  0  0  0  0  0  0  0  0  0  0  0
   -0.9955    1.7263   -0.8812 H   0  0  0  0  0  0  0  0  0  0  0  0
   -0.0835    0.1900    1.0792 H   0  0  0  0  0  0  0  0  0  0  0  0
    2.3758   -0.6875    0.2818 H   0  0  0  0  0  0  0  0  0  0  0  0
    1.0350   -1.5339   -0.5046 H   0  0  0  0  0  0  0  0  0  0  0  0
  1 10  1  0  0  0  0
  1  2  1  0  0  0  0
  2  3  2  0  0  0  0
  2  4  1  0  0  0  0
  4 13  1  1  0  0  0
  4  9  1  0  0  0  0
  5  4  1  0  0  0  0
  5  6  1  0  0  0  0
  6 16  1  1  0  0  0
  6  7  1  0  0  0  0
  6  8  1  0  0  0  0
  7  8  1  0  0  0  0
  8 17  1  1  0  0  0
  9  8  1  0  0  0  0
  9 18  1  0  0  0  0
 11  1  1  0  0  0  0
 12  1  1  0  0  0  0
 14  5  1  0  0  0  0
 15  5  1  0  0  0  0
 19  9  1  0  0  0  0
M TOR 0 0 1 3 4
M TOR 1 0 1 3 8
M TOR 2 0 1 3 12
M TOR 3 1 3 4 5
M TOR 4 1 3 4 13
M TOR 5 1 3 4 14
M TOR 6 1 3 8 7
M TOR 7 1 3 8 17
M TOR 8 1 3 8 18
M TOR 9 2 1 0 9
M TOR 10 2 1 0 10
M TOR 11 2 1 0 11
M TOR 12 2 1 3 4
M TOR 13 2 1 3 8
M TOR 14 2 1 3 12
M TOR 15 3 1 0 9
M TOR 16 3 1 0 10
M TOR 17 3 1 0 11
M TOR 18 3 4 5 6
M TOR 19 3 4 5 7
M TOR 20 3 4 5 15
M TOR 21 3 8 7 5
M TOR 22 3 8 7 6
M TOR 23 3 8 7 16
M TOR 24 4 3 8 7
M TOR 25 4 3 8 17
M TOR 26 4 3 8 18
M TOR 27 4 5 6 7
M TOR 28 4 5 7 8
M TOR 29 4 5 7 16
M TOR 30 5 4 3 8
M TOR 31 5 4 3 12
M TOR 32 5 6 7 8
M TOR 33 5 6 7 16
M TOR 34 5 7 8 17
M TOR 35 5 7 8 18
M TOR 36 6 5 4 13
M TOR 37 6 5 4 14
M TOR 38 6 7 5 15
M TOR 39 6 7 8 17
M TOR 40 6 7 8 18
M TOR 41 7 5 4 13
M TOR 42 7 5 4 14
M TOR 43 7 8 3 12
M TOR 44 8 3 4 13
M TOR 45 8 3 4 14
M TOR 46 8 7 5 15
M  END
$$$$
