gdb 3841	2.7796556	1.3807508	1.093898	2.3741	75.86	-0.23307	-0.00916	0.22391	1150.4144	0.156603	-422.584123	-422.575521	-422.574577	-422.616987	33.184
 OpenBabel02181911413D

 19 20  0  0  1  0  0  0  0  0999 V2000
   -0.5315    2.2615    1.1175 C   0  0  0  0  0  0  0  0  0  0  0  0
   -0.8793    1.1883    0.0895 C   0  0  2  0  0  0  0  0  0  0  0  0
   -2.3051    0.5989    0.1821 C   0  0  0  0  0  0  0  0  0  0  0  0
   -2.1971   -0.8458   -0.2979 C   0  0  1  0  0  0  0  0  0  0  0  0
   -3.2078   -1.7357    0.0377 O   0  0  0  0  0  0  0  0  0  0  0  0
   -1.5094   -1.0909   -1.5828 C   0  0  0  0  0  0  0  0  0  0  0  0
   -0.7112   -1.2420   -0.2784 C   0  0  1  0  0  0  0  0  0  0  0  0
    0.0424   -0.0482    0.1878 C   0  0  0  0  0  0  0  0  0  0  0  0
    1.1586   -0.0387    0.6505 O   0  0  0  0  0  0  0  0  0  0  0  0
   -0.7022    1.8970    2.1359 H   0  0  0  0  0  0  0  0  0  0  0  0
    0.5244    2.5306    1.0378 H   0  0  0  0  0  0  0  0  0  0  0  0
   -1.1367    3.1612    0.9715 H   0  0  0  0  0  0  0  0  0  0  0  0
   -0.7309    1.6066   -0.9165 H   0  0  0  0  0  0  0  0  0  0  0  0
   -2.6282    0.5942    1.2324 H   0  0  0  0  0  0  0  0  0  0  0  0
   -3.0510    1.1667   -0.3834 H   0  0  0  0  0  0  0  0  0  0  0  0
   -3.2834   -1.7578    0.9986 H   0  0  0  0  0  0  0  0  0  0  0  0
   -1.7431   -2.0321   -2.0669 H   0  0  0  0  0  0  0  0  0  0  0  0
   -1.2830   -0.2727   -2.2583 H   0  0  0  0  0  0  0  0  0  0  0  0
   -0.3629   -2.2299   -0.0056 H   0  0  0  0  0  0  0  0  0  0  0  0
  1 10  1  0  0  0  0
  2 13  1  6  0  0  0
  2  3  1  0  0  0  0
  2  8  1  0  0  0  0
  2  1  1  0  0  0  0
  3 14  1  0  0  0  0
  4  7  1  0  0  0  0
  4  5  1  1  0  0  0
  4  3  1  0  0  0  0
  5 16  1  0  0  0  0
  6  4  1  0  0  0  0
  6  7  1  0  0  0  0
  7 19  1  1  0  0  0
  7  8  1  0  0  0  0
  8  9  2  0  0  0  0
 11  1  1  0  0  0  0
 12  1  1  0  0  0  0
 15  3  1  0  0  0  0
 17  6  1  0  0  0  0
 18  6  1  0  0  0  0
M TOR 0 0 1 2 3
M TOR 1 0 1 2 13
M TOR 2 0 1 2 14
M TOR 3 0 1 7 6
M TOR 4 0 1 7 8
M TOR 5 1 2 3 4
M TOR 6 1 2 3 5
M TOR 7 1 2 3 6
M TOR 8 1 7 6 3
M TOR 9 1 7 6 5
M TOR 10 1 7 6 18
M TOR 11 2 1 0 9
M TOR 12 2 1 0 10
M TOR 13 2 1 0 11
M TOR 14 2 1 7 6
M TOR 15 2 1 7 8
M TOR 16 2 3 4 15
M TOR 17 2 3 5 6
M TOR 18 2 3 5 16
M TOR 19 2 3 5 17
M TOR 20 2 3 6 7
M TOR 21 2 3 6 18
M TOR 22 3 2 1 7
M TOR 23 3 2 1 12
M TOR 24 3 5 6 7
M TOR 25 3 5 6 18
M TOR 26 3 6 5 16
M TOR 27 3 6 5 17
M TOR 28 3 6 7 8
M TOR 29 4 3 2 13
M TOR 30 4 3 2 14
M TOR 31 4 3 5 6
M TOR 32 4 3 5 16
M TOR 33 4 3 5 17
M TOR 34 4 3 6 7
M TOR 35 4 3 6 18
M TOR 36 5 3 2 13
M TOR 37 5 3 2 14
M TOR 38 5 3 4 15
M TOR 39 5 6 7 8
M TOR 40 6 3 2 13
M TOR 41 6 3 2 14
M TOR 42 6 3 4 15
M TOR 43 6 7 1 12
M TOR 44 7 1 0 9
M TOR 45 7 1 0 10
M TOR 46 7 1 0 11
M TOR 47 7 1 2 13
M TOR 48 7 1 2 14
M TOR 49 7 6 5 16
M TOR 50 7 6 5 17
M TOR 51 8 7 1 12
M TOR 52 8 7 6 18
M  END
$$$$
