
     RDKit          3D

 19 21  0  0  0  0  0  0  0  0999 V2000
    0.6508   -0.4031   -0.6358 C   0  0  0  0  0  0  0  0  0  0  0  0
    0.9278    0.1998    0.7376 C   0  0  0  0  0  0  0  0  0  0  0  0
    1.5175    1.6342    0.7320 C   0  0  0  0  0  0  0  0  0  0  0  0
    1.8276    1.8877    2.2267 C   0  0  0  0  0  0  0  0  0  0  0  0
    2.6963    0.6486    2.4017 C   0  0  0  0  0  0  0  0  0  0  0  0
    3.2991    0.4306    1.0215 C   0  0  0  0  0  0  0  0  0  0  0  0
    2.8273    1.4487    0.1604 O   0  0  0  0  0  0  0  0  0  0  0  0
    2.1354   -0.4179    1.4509 C   0  0  0  0  0  0  0  0  0  0  0  0
    2.2872   -1.7821    1.6403 O   0  0  0  0  0  0  0  0  0  0  0  0
    0.4860   -1.4818   -0.5548 H   0  0  0  0  0  0  0  0  0  0  0  0
   -0.2369    0.0437   -1.0951 H   0  0  0  0  0  0  0  0  0  0  0  0
    1.5026   -0.2399   -1.3014 H   0  0  0  0  0  0  0  0  0  0  0  0
    0.0288    0.1652    1.3656 H   0  0  0  0  0  0  0  0  0  0  0  0
    0.9812    2.4029    0.1786 H   0  0  0  0  0  0  0  0  0  0  0  0
    2.3755    2.8217    2.3800 H   0  0  0  0  0  0  0  0  0  0  0  0
    0.9264    1.8896    2.8466 H   0  0  0  0  0  0  0  0  0  0  0  0
    3.2320    0.3924    3.3058 H   0  0  0  0  0  0  0  0  0  0  0  0
    4.2963    0.0671    0.8205 H   0  0  0  0  0  0  0  0  0  0  0  0
    1.7133   -2.0516    2.3661 H   0  0  0  0  0  0  0  0  0  0  0  0
  1  2  1  0
  2  3  1  0
  3  4  1  0
  4  5  1  0
  5  6  1  0
  6  7  1  0
  6  8  1  0
  8  9  1  0
  8  2  1  0
  7  3  1  0
  8  5  1  0
  1 10  1  0
  1 11  1  0
  1 12  1  0
  2 13  1  0
  3 14  1  0
  4 15  1  0
  4 16  1  0
  5 17  1  0
  6 18  1  0
  9 19  1  0
M  END
$$$$
