gdb 4716	2.5455126	1.0344116	0.7893116	1.5688	78.7	-0.25268	0.03457	0.28725	1456.3511	0.153386	-422.487679	-422.477425	-422.476481	-422.52334	36.65
 OpenBabel02181911413D

 19 19  0  0  1  0  0  0  0  0999 V2000
    1.3523   -0.0528   -0.0659 C   0  0  0  0  0  0  0  0  0  0  0  0
   -0.0378    0.1807    0.0303 O   0  0  0  0  0  0  0  0  0  0  0  0
   -0.4344    0.8292    1.2310 C   0  0  1  0  0  0  0  0  0  0  0  0
    0.1184    2.1889    1.3356 C   0  0  0  0  0  0  0  0  0  0  0  0
    0.5626    3.3035    1.4107 C   0  0  0  0  0  0  0  0  0  0  0  0
   -1.9463    0.8392    1.2579 C   0  0  2  0  0  0  0  0  0  0  0  0
   -2.6955    0.8404    2.5738 C   0  0  0  0  0  0  0  0  0  0  0  0
   -2.6929   -0.3864    1.7161 C   0  0  1  0  0  0  0  0  0  0  0  0
   -3.9008   -0.7224    1.1036 O   0  0  0  0  0  0  0  0  0  0  0  0
    1.7133   -0.6844    0.7613 H   0  0  0  0  0  0  0  0  0  0  0  0
    1.5210   -0.5759   -1.0098 H   0  0  0  0  0  0  0  0  0  0  0  0
    1.9260    0.8834   -0.0648 H   0  0  0  0  0  0  0  0  0  0  0  0
   -0.0685    0.2463    2.0958 H   0  0  0  0  0  0  0  0  0  0  0  0
    0.9531    4.2886    1.4830 H   0  0  0  0  0  0  0  0  0  0  0  0
   -2.4024    1.3971    0.4467 H   0  0  0  0  0  0  0  0  0  0  0  0
   -2.1286    0.8270    3.4985 H   0  0  0  0  0  0  0  0  0  0  0  0
   -3.6182    1.4072    2.6119 H   0  0  0  0  0  0  0  0  0  0  0  0
   -2.0930   -1.2322    2.0548 H   0  0  0  0  0  0  0  0  0  0  0  0
   -3.6967   -1.0923    0.2379 H   0  0  0  0  0  0  0  0  0  0  0  0
  1 12  1  0  0  0  0
  1  2  1  0  0  0  0
  1 10  1  0  0  0  0
  2  3  1  0  0  0  0
  3  6  1  0  0  0  0
  3  4  1  0  0  0  0
  3 13  1  1  0  0  0
  4  5  3  0  0  0  0
  5 14  1  0  0  0  0
  6 15  1  6  0  0  0
  6  8  1  0  0  0  0
  6  7  1  0  0  0  0
  7 17  1  0  0  0  0
  7 16  1  0  0  0  0
  8 18  1  1  0  0  0
  8  7  1  0  0  0  0
  9  8  1  0  0  0  0
 11  1  1  0  0  0  0
 19  9  1  0  0  0  0
M TOR 0 0 1 2 3
M TOR 1 0 1 2 5
M TOR 2 0 1 2 12
M TOR 3 1 2 3 4
M TOR 4 1 2 5 6
M TOR 5 1 2 5 7
M TOR 6 1 2 5 14
M TOR 7 2 1 0 9
M TOR 8 2 1 0 10
M TOR 9 2 1 0 11
M TOR 10 2 3 4 13
M TOR 11 2 5 6 7
M TOR 12 2 5 6 15
M TOR 13 2 5 6 16
M TOR 14 2 5 7 8
M TOR 15 2 5 7 17
M TOR 16 3 2 5 6
M TOR 17 3 2 5 7
M TOR 18 3 2 5 14
M TOR 19 4 3 2 5
M TOR 20 4 3 2 12
M TOR 21 5 6 7 8
M TOR 22 5 6 7 17
M TOR 23 5 7 6 15
M TOR 24 5 7 6 16
M TOR 25 5 7 8 18
M TOR 26 6 5 2 12
M TOR 27 6 7 5 14
M TOR 28 6 7 8 18
M TOR 29 7 5 2 12
M TOR 30 8 7 5 14
M TOR 31 8 7 6 15
M TOR 32 8 7 6 16
M  END
$$$$
