gdb 2923	2.7681023	1.7080465	1.2308488	2.6156	74.57	-0.23514	0.07868	0.31382	1036.1386	0.157571	-422.522309	-422.514532	-422.513588	-422.553999	31.006
 OpenBabel02181911413D

 19 21  0  0  1  0  0  0  0  0999 V2000
   -3.4991    0.5308    0.6177 C   0  0  0  0  0  0  0  0  0  0  0  0
   -2.5493    0.9527    1.7170 C   0  0  2  0  0  0  0  0  0  0  0  0
   -3.1736    1.4025    3.0396 C   0  0  0  0  0  0  0  0  0  0  0  0
   -2.0175    1.7173    3.8206 O   0  0  0  0  0  0  0  0  0  0  0  0
   -0.9672    1.4332    2.9204 C   0  0  2  0  0  0  0  0  0  0  0  0
   -1.3284    1.9241    1.4835 C   0  0  1  0  0  0  0  0  0  0  0  0
   -0.5247    0.7485    0.9132 C   0  0  1  0  0  0  0  0  0  0  0  0
    0.8737    0.9141    0.9891 O   0  0  0  0  0  0  0  0  0  0  0  0
   -1.2683    0.1279    2.1212 C   0  0  2  0  0  0  0  0  0  0  0  0
   -4.1184   -0.3128    0.9435 H   0  0  0  0  0  0  0  0  0  0  0  0
   -4.1759    1.3515    0.3542 H   0  0  0  0  0  0  0  0  0  0  0  0
   -2.9796    0.2262   -0.2945 H   0  0  0  0  0  0  0  0  0  0  0  0
   -3.8125    2.2890    2.9283 H   0  0  0  0  0  0  0  0  0  0  0  0
   -3.7581    0.6093    3.5248 H   0  0  0  0  0  0  0  0  0  0  0  0
    0.0030    1.6262    3.3665 H   0  0  0  0  0  0  0  0  0  0  0  0
   -1.3664    2.9518    1.1197 H   0  0  0  0  0  0  0  0  0  0  0  0
   -0.8267    0.3886   -0.0766 H   0  0  0  0  0  0  0  0  0  0  0  0
    1.2888    0.0807    0.7468 H   0  0  0  0  0  0  0  0  0  0  0  0
   -1.2422   -0.9002    2.4877 H   0  0  0  0  0  0  0  0  0  0  0  0
  1 10  1  0  0  0  0
  2  1  1  6  0  0  0
  2  9  1  0  0  0  0
  2  3  1  0  0  0  0
  3 14  1  0  0  0  0
  3  4  1  0  0  0  0
  5 15  1  1  0  0  0
  5  4  1  0  0  0  0
  6 16  1  6  0  0  0
  6  2  1  0  0  0  0
  6  5  1  0  0  0  0
  7 17  1  6  0  0  0
  7  8  1  0  0  0  0
  7  6  1  0  0  0  0
  7  9  1  0  0  0  0
  9 19  1  1  0  0  0
  9  5  1  0  0  0  0
 11  1  1  0  0  0  0
 12  1  1  0  0  0  0
 13  3  1  0  0  0  0
 18  8  1  0  0  0  0
M TOR 0 0 1 2 3
M TOR 1 0 1 2 12
M TOR 2 0 1 2 13
M TOR 3 0 1 5 4
M TOR 4 0 1 5 6
M TOR 5 0 1 5 15
M TOR 6 0 1 8 4
M TOR 7 0 1 8 6
M TOR 8 0 1 8 18
M TOR 9 1 2 3 4
M TOR 10 1 5 4 3
M TOR 11 1 5 4 8
M TOR 12 1 5 4 14
M TOR 13 1 5 6 7
M TOR 14 1 5 6 8
M TOR 15 1 5 6 16
M TOR 16 1 8 4 3
M TOR 17 1 8 4 14
M TOR 18 1 8 6 7
M TOR 19 1 8 6 16
M TOR 20 2 1 0 9
M TOR 21 2 1 0 10
M TOR 22 2 1 0 11
M TOR 23 2 1 5 4
M TOR 24 2 1 5 6
M TOR 25 2 1 5 15
M TOR 26 2 1 8 4
M TOR 27 2 1 8 6
M TOR 28 2 1 8 18
M TOR 29 2 3 4 5
M TOR 30 2 3 4 8
M TOR 31 2 3 4 14
M TOR 32 3 2 1 5
M TOR 33 3 2 1 8
M TOR 34 3 4 5 6
M TOR 35 3 4 5 15
M TOR 36 3 4 8 6
M TOR 37 3 4 8 18
M TOR 38 4 3 2 12
M TOR 39 4 3 2 13
M TOR 40 4 5 6 7
M TOR 41 4 5 6 8
M TOR 42 4 5 6 16
M TOR 43 4 8 6 7
M TOR 44 4 8 6 16
M TOR 45 5 1 0 9
M TOR 46 5 1 0 10
M TOR 47 5 1 0 11
M TOR 48 5 1 2 12
M TOR 49 5 1 2 13
M TOR 50 5 1 8 18
M TOR 51 5 4 8 18
M TOR 52 5 6 7 17
M TOR 53 5 6 8 18
M TOR 54 6 5 4 14
M TOR 55 6 8 4 14
M TOR 56 7 6 5 15
M TOR 57 7 6 8 18
M TOR 58 8 1 0 9
M TOR 59 8 1 0 10
M TOR 60 8 1 0 11
M TOR 61 8 1 2 12
M TOR 62 8 1 2 13
M TOR 63 8 1 5 15
M TOR 64 8 4 5 15
M TOR 65 8 6 5 15
M TOR 66 8 6 7 17
M  END
$$$$
