
     RDKit          3D

 19 20  0  0  0  0  0  0  0  0999 V2000
   -3.0453   -1.3839    0.9994 O   0  0  0  0  0  0  0  0  0  0  0  0
   -2.2734   -0.7608   -0.0014 C   0  0  0  0  0  0  0  0  0  0  0  0
   -3.0052   -0.7683   -1.3612 C   0  0  0  0  0  0  0  0  0  0  0  0
   -2.6480    0.7304   -1.5547 C   0  0  0  0  0  0  0  0  0  0  0  0
   -2.2259    0.8208   -0.0580 C   0  0  0  0  0  0  0  0  0  0  0  0
   -0.7983    1.2716    0.2229 C   0  0  0  0  0  0  0  0  0  0  0  0
    0.0630    0.0576   -0.1501 C   0  0  0  0  0  0  0  0  0  0  0  0
    1.2192    0.0848   -0.4803 O   0  0  0  0  0  0  0  0  0  0  0  0
   -0.7997   -1.2083   -0.0312 C   0  0  0  0  0  0  0  0  0  0  0  0
   -2.5749   -1.3263    1.8381 H   0  0  0  0  0  0  0  0  0  0  0  0
   -2.6531   -1.4783   -2.1138 H   0  0  0  0  0  0  0  0  0  0  0  0
   -4.0743   -0.9225   -1.2000 H   0  0  0  0  0  0  0  0  0  0  0  0
   -1.8048    0.8862   -2.2349 H   0  0  0  0  0  0  0  0  0  0  0  0
   -3.4607    1.3875   -1.8689 H   0  0  0  0  0  0  0  0  0  0  0  0
   -2.9832    1.2895    0.5719 H   0  0  0  0  0  0  0  0  0  0  0  0
   -0.4712    2.1593   -0.3250 H   0  0  0  0  0  0  0  0  0  0  0  0
   -0.6405    1.4741    1.2919 H   0  0  0  0  0  0  0  0  0  0  0  0
   -0.5547   -1.9174   -0.8261 H   0  0  0  0  0  0  0  0  0  0  0  0
   -0.5342   -1.6999    0.9146 H   0  0  0  0  0  0  0  0  0  0  0  0
  1  2  1  0
  2  3  1  0
  3  4  1  0
  4  5  1  0
  5  6  1  0
  6  7  1  0
  7  8  2  0
  7  9  1  0
  5  2  1  0
  9  2  1  0
  1 10  1  0
  3 11  1  0
  3 12  1  0
  4 13  1  0
  4 14  1  0
  5 15  1  0
  6 16  1  0
  6 17  1  0
  9 18  1  0
  9 19  1  0
M  END
$$$$
