gdb 1408	2.4081914	1.4751164	1.1750346	2.8011	77.48	-0.23493	-0.00712	0.22781	1124.0283	0.154218	-422.55574	-422.546447	-422.545503	-422.58904	35.371
 OpenBabel02181911403D

 19 20  0  0  1  0  0  0  0  0999 V2000
   -1.4347   -0.4236   -2.5356 C   0  0  0  0  0  0  0  0  0  0  0  0
   -1.8990   -0.8526   -1.1601 C   0  0  1  0  0  0  0  0  0  0  0  0
   -2.9330   -1.8010   -1.2118 O   0  0  0  0  0  0  0  0  0  0  0  0
   -0.9338   -1.1167    0.0197 C   0  0  1  0  0  0  0  0  0  0  0  0
    0.1197   -0.0670    0.0881 C   0  0  0  0  0  0  0  0  0  0  0  0
    1.3054   -0.0877    0.2751 O   0  0  0  0  0  0  0  0  0  0  0  0
   -0.9167    1.0872    0.0469 C   0  0  0  0  0  0  0  0  0  0  0  0
   -2.0273    0.0202    0.0358 C   0  0  1  0  0  0  0  0  0  0  0  0
   -3.2689    0.1141    0.8751 C   0  0  0  0  0  0  0  0  0  0  0  0
   -1.0654   -1.2925   -3.0939 H   0  0  0  0  0  0  0  0  0  0  0  0
   -2.2699    0.0081   -3.0964 H   0  0  0  0  0  0  0  0  0  0  0  0
   -0.6224    0.3041   -2.4990 H   0  0  0  0  0  0  0  0  0  0  0  0
   -2.6159   -2.5578   -1.7169 H   0  0  0  0  0  0  0  0  0  0  0  0
   -0.9275   -2.0995    0.4762 H   0  0  0  0  0  0  0  0  0  0  0  0
   -0.8860    1.6360    0.9938 H   0  0  0  0  0  0  0  0  0  0  0  0
   -0.8720    1.8047   -0.7767 H   0  0  0  0  0  0  0  0  0  0  0  0
   -3.0186    0.3210    1.9210 H   0  0  0  0  0  0  0  0  0  0  0  0
   -3.9102    0.9302    0.5209 H   0  0  0  0  0  0  0  0  0  0  0  0
   -3.8445   -0.8112    0.8270 H   0  0  0  0  0  0  0  0  0  0  0  0
  1 12  1  0  0  0  0
  1  2  1  0  0  0  0
  2  3  1  6  0  0  0
  2  4  1  0  0  0  0
  2  8  1  0  0  0  0
  4  8  1  0  0  0  0
  4  5  1  0  0  0  0
  4 14  1  1  0  0  0
  5  6  2  0  0  0  0
  7  5  1  0  0  0  0
  7 15  1  0  0  0  0
  8  7  1  0  0  0  0
  8  9  1  1  0  0  0
  9 17  1  0  0  0  0
 10  1  1  0  0  0  0
 11  1  1  0  0  0  0
 13  3  1  0  0  0  0
 16  7  1  0  0  0  0
 18  9  1  0  0  0  0
 19  9  1  0  0  0  0
M TOR 0 0 1 2 12
M TOR 1 0 1 3 4
M TOR 2 0 1 3 7
M TOR 3 0 1 3 13
M TOR 4 0 1 7 6
M TOR 5 0 1 7 8
M TOR 6 1 3 4 5
M TOR 7 1 3 4 6
M TOR 8 1 3 7 6
M TOR 9 1 3 7 8
M TOR 10 1 7 3 4
M TOR 11 1 7 3 13
M TOR 12 1 7 6 4
M TOR 13 1 7 6 14
M TOR 14 1 7 6 15
M TOR 15 1 7 8 16
M TOR 16 1 7 8 17
M TOR 17 1 7 8 18
M TOR 18 2 1 0 9
M TOR 19 2 1 0 10
M TOR 20 2 1 0 11
M TOR 21 2 1 3 4
M TOR 22 2 1 3 7
M TOR 23 2 1 3 13
M TOR 24 2 1 7 6
M TOR 25 2 1 7 8
M TOR 26 3 1 0 9
M TOR 27 3 1 0 10
M TOR 28 3 1 0 11
M TOR 29 3 1 2 12
M TOR 30 3 4 6 7
M TOR 31 3 4 6 14
M TOR 32 3 4 6 15
M TOR 33 3 7 6 14
M TOR 34 3 7 6 15
M TOR 35 3 7 8 16
M TOR 36 3 7 8 17
M TOR 37 3 7 8 18
M TOR 38 4 3 7 8
M TOR 39 4 6 7 8
M TOR 40 5 4 3 7
M TOR 41 5 4 3 13
M TOR 42 5 4 6 7
M TOR 43 5 4 6 14
M TOR 44 5 4 6 15
M TOR 45 6 4 3 13
M TOR 46 6 7 3 13
M TOR 47 6 7 8 16
M TOR 48 6 7 8 17
M TOR 49 6 7 8 18
M TOR 50 7 1 0 9
M TOR 51 7 1 0 10
M TOR 52 7 1 0 11
M TOR 53 7 1 2 12
M TOR 54 8 7 3 13
M TOR 55 8 7 6 14
M TOR 56 8 7 6 15
M  END
$$$$
