gdb 250	2.9374983	1.7982767	1.2978705	0.4012	75.71	-0.2251	0.09233	0.31743	998.0919	0.158991	-422.519049	-422.511899	-422.510955	-422.550312	28.99
 OpenBabel02181911403D

 19 21  0  0  1  0  0  0  0  0999 V2000
    1.3435    1.4026    0.7175 C   0  0  0  0  0  0  0  0  0  0  0  0
    0.4260    1.0522   -0.4402 C   0  0  1  0  0  0  0  0  0  0  0  0
    1.2219    1.1557   -1.7492 C   0  0  0  0  0  0  0  0  0  0  0  0
    2.2157    0.0783   -1.2244 C   0  0  2  0  0  0  0  0  0  0  0  0
    2.0202   -1.1345   -1.9386 O   0  0  0  0  0  0  0  0  0  0  0  0
    2.1847   -2.2670   -1.0983 C   0  0  0  0  0  0  0  0  0  0  0  0
    1.1714   -2.2415    0.0404 C   0  0  0  0  0  0  0  0  0  0  0  0
    1.3653   -1.0910    0.8649 O   0  0  0  0  0  0  0  0  0  0  0  0
    1.4649    0.0558    0.1064 C   0  0  1  0  0  0  0  0  0  0  0  0
    2.1251    2.1531    0.6073 H   0  0  0  0  0  0  0  0  0  0  0  0
    0.8649    1.3913    1.6922 H   0  0  0  0  0  0  0  0  0  0  0  0
   -0.6514    1.0862   -0.3387 H   0  0  0  0  0  0  0  0  0  0  0  0
    0.6958    0.7783   -2.6270 H   0  0  0  0  0  0  0  0  0  0  0  0
    1.6504    2.1387   -1.9701 H   0  0  0  0  0  0  0  0  0  0  0  0
    3.2880    0.3269   -1.1914 H   0  0  0  0  0  0  0  0  0  0  0  0
    2.0324   -3.1494   -1.7273 H   0  0  0  0  0  0  0  0  0  0  0  0
    3.2057   -2.3043   -0.6842 H   0  0  0  0  0  0  0  0  0  0  0  0
    0.1538   -2.2365   -0.3774 H   0  0  0  0  0  0  0  0  0  0  0  0
    1.2875   -3.1122    0.6917 H   0  0  0  0  0  0  0  0  0  0  0  0
  1 11  1  0  0  0  0
  2 12  1  1  0  0  0
  2  9  1  0  0  0  0
  2  1  1  0  0  0  0
  3  4  1  0  0  0  0
  3  2  1  0  0  0  0
  4 15  1  1  0  0  0
  4  9  1  0  0  0  0
  5  4  1  0  0  0  0
  5  6  1  0  0  0  0
  6 17  1  0  0  0  0
  6  7  1  0  0  0  0
  7 19  1  0  0  0  0
  7  8  1  0  0  0  0
  9  1  1  0  0  0  0
  9  8  1  1  0  0  0
 10  1  1  0  0  0  0
 13  3  1  0  0  0  0
 14  3  1  0  0  0  0
 16  6  1  0  0  0  0
 18  7  1  0  0  0  0
M TOR 0 0 1 2 3
M TOR 1 0 1 2 12
M TOR 2 0 1 2 13
M TOR 3 0 1 8 3
M TOR 4 0 1 8 7
M TOR 5 0 8 1 2
M TOR 6 0 8 1 11
M TOR 7 0 8 3 2
M TOR 8 0 8 3 4
M TOR 9 0 8 3 14
M TOR 10 0 8 7 6
M TOR 11 1 2 3 4
M TOR 12 1 2 3 8
M TOR 13 1 2 3 14
M TOR 14 1 8 0 9
M TOR 15 1 8 0 10
M TOR 16 1 8 3 4
M TOR 17 1 8 3 14
M TOR 18 1 8 7 6
M TOR 19 2 1 0 9
M TOR 20 2 1 0 10
M TOR 21 2 1 8 7
M TOR 22 2 3 4 5
M TOR 23 2 3 8 7
M TOR 24 3 2 1 11
M TOR 25 3 4 5 6
M TOR 26 3 4 5 15
M TOR 27 3 4 5 16
M TOR 28 3 8 0 9
M TOR 29 3 8 0 10
M TOR 30 3 8 1 11
M TOR 31 3 8 7 6
M TOR 32 4 3 2 12
M TOR 33 4 3 2 13
M TOR 34 4 3 8 7
M TOR 35 4 5 6 7
M TOR 36 4 5 6 17
M TOR 37 4 5 6 18
M TOR 38 5 4 3 8
M TOR 39 5 4 3 14
M TOR 40 5 6 7 8
M TOR 41 7 6 5 15
M TOR 42 7 6 5 16
M TOR 43 7 8 0 9
M TOR 44 7 8 0 10
M TOR 45 7 8 1 11
M TOR 46 7 8 3 14
M TOR 47 8 1 2 12
M TOR 48 8 1 2 13
M TOR 49 8 3 2 12
M TOR 50 8 3 2 13
M TOR 51 8 7 6 17
M TOR 52 8 7 6 18
M  END
$$$$
