gdb 3258	3.047576	1.7268993	1.7090347	2.7037	73.26	-0.2347	0.06962	0.30432	903.2422	0.160422	-422.566366	-422.559629	-422.558685	-422.597035	28.205
 OpenBabel02181911413D

 19 21  0  0  1  0  0  0  0  0999 V2000
    0.4446   -0.1313    0.4640 O   0  0  0  0  0  0  0  0  0  0  0  0
   -0.5305    0.6799    1.0651 C   0  0  2  0  0  0  0  0  0  0  0  0
   -1.6241    0.0624    1.9814 C   0  0  2  0  0  0  0  0  0  0  0  0
   -2.1414   -1.2536    1.3455 C   0  0  0  0  0  0  0  0  0  0  0  0
   -3.0113   -0.7018    0.1990 C   0  0  1  0  0  0  0  0  0  0  0  0
   -3.8517    0.3730    0.9072 C   0  0  0  0  0  0  0  0  0  0  0  0
   -2.6244    1.1367    1.3937 C   0  0  2  0  0  0  0  0  0  0  0  0
   -1.6728    1.1478    0.1440 C   0  0  2  0  0  0  0  0  0  0  0  0
   -2.1699    0.0796   -0.6657 O   0  0  0  0  0  0  0  0  0  0  0  0
    1.1184   -0.3317    1.1213 H   0  0  0  0  0  0  0  0  0  0  0  0
   -0.0833    1.5594    1.5531 H   0  0  0  0  0  0  0  0  0  0  0  0
   -1.4423    0.0127    3.0563 H   0  0  0  0  0  0  0  0  0  0  0  0
   -1.3225   -1.8753    0.9774 H   0  0  0  0  0  0  0  0  0  0  0  0
   -2.7445   -1.8380    2.0478 H   0  0  0  0  0  0  0  0  0  0  0  0
   -3.5332   -1.4400   -0.4102 H   0  0  0  0  0  0  0  0  0  0  0  0
   -4.4734    0.9424    0.2114 H   0  0  0  0  0  0  0  0  0  0  0  0
   -4.4696   -0.0227    1.7180 H   0  0  0  0  0  0  0  0  0  0  0  0
   -2.7530    2.0685    1.9395 H   0  0  0  0  0  0  0  0  0  0  0  0
   -1.5316    2.0289   -0.4848 H   0  0  0  0  0  0  0  0  0  0  0  0
  1  2  1  0  0  0  0
  1 10  1  0  0  0  0
  2 11  1  1  0  0  0
  2  3  1  0  0  0  0
  3 12  1  1  0  0  0
  4  3  1  0  0  0  0
  4 14  1  0  0  0  0
  5 15  1  6  0  0  0
  5  6  1  0  0  0  0
  5  4  1  0  0  0  0
  6  7  1  0  0  0  0
  6 17  1  0  0  0  0
  7 18  1  1  0  0  0
  7  3  1  0  0  0  0
  8 19  1  6  0  0  0
  8  2  1  0  0  0  0
  8  7  1  0  0  0  0
  9  8  1  0  0  0  0
  9  5  1  0  0  0  0
 13  4  1  0  0  0  0
 16  6  1  0  0  0  0
M TOR 0 0 1 2 3
M TOR 1 0 1 2 6
M TOR 2 0 1 2 11
M TOR 3 0 1 7 6
M TOR 4 0 1 7 8
M TOR 5 0 1 7 18
M TOR 6 1 2 3 4
M TOR 7 1 2 3 12
M TOR 8 1 2 3 13
M TOR 9 1 2 6 5
M TOR 10 1 2 6 7
M TOR 11 1 2 6 17
M TOR 12 1 7 6 5
M TOR 13 1 7 6 17
M TOR 14 1 7 8 4
M TOR 15 2 1 0 9
M TOR 16 2 1 7 8
M TOR 17 2 1 7 18
M TOR 18 2 3 4 5
M TOR 19 2 3 4 8
M TOR 20 2 3 4 14
M TOR 21 2 6 5 4
M TOR 22 2 6 5 15
M TOR 23 2 6 5 16
M TOR 24 2 6 7 8
M TOR 25 2 6 7 18
M TOR 26 3 2 1 7
M TOR 27 3 2 1 10
M TOR 28 3 2 6 5
M TOR 29 3 2 6 7
M TOR 30 3 2 6 17
M TOR 31 3 4 5 6
M TOR 32 3 4 5 15
M TOR 33 3 4 5 16
M TOR 34 3 4 8 7
M TOR 35 4 3 2 6
M TOR 36 4 3 2 11
M TOR 37 4 5 6 7
M TOR 38 4 5 6 17
M TOR 39 4 8 7 6
M TOR 40 4 8 7 18
M TOR 41 5 4 3 12
M TOR 42 5 4 3 13
M TOR 43 5 4 8 7
M TOR 44 5 6 2 11
M TOR 45 5 6 7 8
M TOR 46 5 6 7 18
M TOR 47 6 2 1 10
M TOR 48 6 2 3 12
M TOR 49 6 2 3 13
M TOR 50 6 5 4 8
M TOR 51 6 5 4 14
M TOR 52 6 7 1 10
M TOR 53 7 1 0 9
M TOR 54 7 1 2 11
M TOR 55 7 6 2 11
M TOR 56 7 6 5 15
M TOR 57 7 6 5 16
M TOR 58 7 8 4 14
M TOR 59 8 4 3 12
M TOR 60 8 4 3 13
M TOR 61 8 4 5 15
M TOR 62 8 4 5 16
M TOR 63 8 7 1 10
M TOR 64 8 7 6 17
M  END
$$$$
