gdb 4969	2.2875331	1.7473596	1.2264179	2.551	74.87	-0.22999	0.07561	0.3056	1078.5693	0.155696	-422.470627	-422.462185	-422.461241	-422.503531	31.95
 OpenBabel02181911413D

 19 21  0  0  1  0  0  0  0  0999 V2000
    1.4323   -0.0256   -0.1722 C   0  0  0  0  0  0  0  0  0  0  0  0
    0.0425   -0.1953    0.0733 O   0  0  0  0  0  0  0  0  0  0  0  0
   -0.4391    0.4875    1.1448 C   0  0  1  0  0  0  0  0  0  0  0  0
   -1.8086    0.9531    1.4422 C   0  0  1  0  0  0  0  0  0  0  0  0
   -1.9133    0.3401    2.7241 O   0  0  0  0  0  0  0  0  0  0  0  0
   -0.4609    0.2926    2.7399 C   0  0  2  0  0  0  0  0  0  0  0  0
   -0.0506    1.7847    2.8962 C   0  0  1  0  0  0  0  0  0  0  0  0
    1.4450    2.0347    3.0323 C   0  0  0  0  0  0  0  0  0  0  0  0
   -0.6214    1.9676    1.4888 C   0  0  1  0  0  0  0  0  0  0  0  0
    2.0380   -0.4455    0.6421 H   0  0  0  0  0  0  0  0  0  0  0  0
    1.6556   -0.5641   -1.0952 H   0  0  0  0  0  0  0  0  0  0  0  0
    1.6872    1.0346   -0.2956 H   0  0  0  0  0  0  0  0  0  0  0  0
   -2.6912    1.0709    0.8284 H   0  0  0  0  0  0  0  0  0  0  0  0
   -0.0521   -0.5060    3.3569 H   0  0  0  0  0  0  0  0  0  0  0  0
   -0.6031    2.2834    3.7007 H   0  0  0  0  0  0  0  0  0  0  0  0
    1.8077    1.7048    4.0121 H   0  0  0  0  0  0  0  0  0  0  0  0
    2.0159    1.5017    2.2646 H   0  0  0  0  0  0  0  0  0  0  0  0
    1.6767    3.1003    2.9346 H   0  0  0  0  0  0  0  0  0  0  0  0
   -0.5913    2.8349    0.8406 H   0  0  0  0  0  0  0  0  0  0  0  0
  1  2  1  0  0  0  0
  1 10  1  0  0  0  0
  3  2  1  6  0  0  0
  3  4  1  0  0  0  0
  3  9  1  0  0  0  0
  3  6  1  0  0  0  0
  4 13  1  6  0  0  0
  4  9  1  0  0  0  0
  4  5  1  0  0  0  0
  5  6  1  0  0  0  0
  6  7  1  0  0  0  0
  6 14  1  1  0  0  0
  7  8  1  0  0  0  0
  7 15  1  1  0  0  0
  8 16  1  0  0  0  0
  9 19  1  6  0  0  0
  9  7  1  0  0  0  0
 11  1  1  0  0  0  0
 12  1  1  0  0  0  0
 17  8  1  0  0  0  0
 18  8  1  0  0  0  0
M TOR 0 0 1 2 3
M TOR 1 0 1 2 5
M TOR 2 0 1 2 8
M TOR 3 1 2 3 4
M TOR 4 1 2 3 8
M TOR 5 1 2 3 12
M TOR 6 1 2 5 4
M TOR 7 1 2 5 6
M TOR 8 1 2 5 13
M TOR 9 1 2 8 6
M TOR 10 1 2 8 18
M TOR 11 2 1 0 9
M TOR 12 2 1 0 10
M TOR 13 2 1 0 11
M TOR 14 2 3 4 5
M TOR 15 2 3 8 6
M TOR 16 2 3 8 18
M TOR 17 2 5 6 7
M TOR 18 2 5 6 8
M TOR 19 2 5 6 14
M TOR 20 2 8 3 4
M TOR 21 2 8 3 12
M TOR 22 2 8 6 7
M TOR 23 2 8 6 14
M TOR 24 3 2 5 6
M TOR 25 3 2 5 13
M TOR 26 3 4 5 6
M TOR 27 3 4 5 13
M TOR 28 3 8 2 5
M TOR 29 3 8 6 5
M TOR 30 3 8 6 7
M TOR 31 3 8 6 14
M TOR 32 4 3 8 6
M TOR 33 4 3 8 18
M TOR 34 4 5 2 8
M TOR 35 4 5 6 7
M TOR 36 4 5 6 8
M TOR 37 4 5 6 14
M TOR 38 5 2 3 12
M TOR 39 5 2 8 18
M TOR 40 5 4 3 8
M TOR 41 5 4 3 12
M TOR 42 5 6 7 15
M TOR 43 5 6 7 16
M TOR 44 5 6 7 17
M TOR 45 5 6 8 18
M TOR 46 6 8 3 12
M TOR 47 7 6 5 13
M TOR 48 7 6 8 18
M TOR 49 8 2 5 13
M TOR 50 8 6 5 13
M TOR 51 8 6 7 15
M TOR 52 8 6 7 16
M TOR 53 8 6 7 17
M  END
$$$$
