
     RDKit          3D

 19 20  0  0  0  0  0  0  0  0999 V2000
   -0.7861   -1.4005    0.0221 O   0  0  0  0  0  0  0  0  0  0  0  0
   -0.1690   -0.1232   -0.0336 C   0  0  0  0  0  0  0  0  0  0  0  0
   -0.5172    0.7508    1.1476 C   0  0  0  0  0  0  0  0  0  0  0  0
    0.3754    1.9146    1.5186 C   0  0  0  0  0  0  0  0  0  0  0  0
    0.3068    0.7092    2.4078 C   0  0  0  0  0  0  0  0  0  0  0  0
   -0.2345    0.6594    3.8498 C   0  0  0  0  0  0  0  0  0  0  0  0
    0.8958   -0.3386    4.1693 C   0  0  0  0  0  0  0  0  0  0  0  0
    1.2077   -0.9516    5.1466 O   0  0  0  0  0  0  0  0  0  0  0  0
    1.4647   -0.2575    2.7373 C   0  0  0  0  0  0  0  0  0  0  0  0
   -0.5352   -1.8125    0.8550 H   0  0  0  0  0  0  0  0  0  0  0  0
    0.9270   -0.2077   -0.1205 H   0  0  0  0  0  0  0  0  0  0  0  0
   -0.5289    0.3339   -0.9617 H   0  0  0  0  0  0  0  0  0  0  0  0
   -1.5862    0.8973    1.2858 H   0  0  0  0  0  0  0  0  0  0  0  0
    1.2801    2.0622    0.9353 H   0  0  0  0  0  0  0  0  0  0  0  0
   -0.0922    2.8341    1.8555 H   0  0  0  0  0  0  0  0  0  0  0  0
   -0.1632    1.5916    4.4207 H   0  0  0  0  0  0  0  0  0  0  0  0
   -1.2420    0.2504    3.9807 H   0  0  0  0  0  0  0  0  0  0  0  0
    2.4713    0.1722    2.6956 H   0  0  0  0  0  0  0  0  0  0  0  0
    1.4863   -1.2172    2.2089 H   0  0  0  0  0  0  0  0  0  0  0  0
  1  2  1  0
  2  3  1  0
  3  4  1  0
  4  5  1  0
  5  6  1  0
  6  7  1  0
  7  8  2  0
  7  9  1  0
  5  3  1  0
  9  5  1  0
  1 10  1  0
  2 11  1  0
  2 12  1  0
  3 13  1  0
  4 14  1  0
  4 15  1  0
  6 16  1  0
  6 17  1  0
  9 18  1  0
  9 19  1  0
M  END
$$$$
