
     RDKit          3D

 19 20  0  0  0  0  0  0  0  0999 V2000
    1.9286   -0.1875    1.1838 C   0  0  0  0  0  0  0  0  0  0  0  0
    1.4017    0.3442   -0.1533 C   0  0  0  0  0  0  0  0  0  0  0  0
    1.9744   -0.4123   -1.3343 C   0  0  0  0  0  0  0  0  0  0  0  0
    3.4395   -0.3329   -1.4400 O   0  0  0  0  0  0  0  0  0  0  0  0
    3.3537    0.0545   -2.7966 C   0  0  0  0  0  0  0  0  0  0  0  0
    2.6682    1.3505   -2.9819 C   0  0  0  0  0  0  0  0  0  0  0  0
    1.8082    0.1076   -2.7631 C   0  0  0  0  0  0  0  0  0  0  0  0
    0.8421   -0.3983   -3.7372 C   0  0  0  0  0  0  0  0  0  0  0  0
   -0.0348   -1.1898   -3.4737 O   0  0  0  0  0  0  0  0  0  0  0  0
    1.6636   -1.2412    1.3226 H   0  0  0  0  0  0  0  0  0  0  0  0
    3.0184   -0.1072    1.2263 H   0  0  0  0  0  0  0  0  0  0  0  0
    1.5107    0.3764    2.0225 H   0  0  0  0  0  0  0  0  0  0  0  0
    0.3096    0.2482   -0.2012 H   0  0  0  0  0  0  0  0  0  0  0  0
    1.6325    1.4111   -0.2485 H   0  0  0  0  0  0  0  0  0  0  0  0
    1.6898   -1.4698   -1.2910 H   0  0  0  0  0  0  0  0  0  0  0  0
    4.0187   -0.4173   -3.5113 H   0  0  0  0  0  0  0  0  0  0  0  0
    2.7214    2.1122   -2.2107 H   0  0  0  0  0  0  0  0  0  0  0  0
    2.6400    1.7243   -4.0018 H   0  0  0  0  0  0  0  0  0  0  0  0
    0.9721   -0.0019   -4.7706 H   0  0  0  0  0  0  0  0  0  0  0  0
  1  2  1  0
  2  3  1  0
  3  4  1  0
  4  5  1  0
  5  6  1  0
  6  7  1  0
  7  8  1  0
  8  9  2  0
  7  3  1  0
  7  5  1  0
  1 10  1  0
  1 11  1  0
  1 12  1  0
  2 13  1  0
  2 14  1  0
  3 15  1  0
  5 16  1  0
  6 17  1  0
  6 18  1  0
  8 19  1  0
M  END
$$$$
