gdb 2945	2.1707851	1.7842174	1.6015843	2.4591	76.01	-0.23014	0.01526	0.2454	978.62	0.156795	-422.541423	-422.533142	-422.532198	-422.5734	33.204
 OpenBabel02181911413D

 19 20  0  0  1  0  0  0  0  0999 V2000
   -2.7248    0.7945   -0.9652 C   0  0  0  0  0  0  0  0  0  0  0  0
   -2.2351    0.1901    0.3268 C   0  0  2  0  0  0  0  0  0  0  0  0
   -2.8330    0.5890    1.6672 C   0  0  0  0  0  0  0  0  0  0  0  0
   -2.1576   -0.1472    2.5645 C   0  0  0  0  0  0  0  0  0  0  0  0
   -1.1922   -0.9484    1.7151 C   0  0  2  0  0  0  0  0  0  0  0  0
   -0.6885    0.2075    0.7438 C   0  0  1  0  0  0  0  0  0  0  0  0
    0.2563   -0.0925   -0.2292 O   0  0  0  0  0  0  0  0  0  0  0  0
   -2.1693   -1.3624    0.5542 C   0  0  2  0  0  0  0  0  0  0  0  0
   -1.5928   -2.0348   -0.5582 O   0  0  0  0  0  0  0  0  0  0  0  0
   -2.1297    0.4331   -1.8086 H   0  0  0  0  0  0  0  0  0  0  0  0
   -3.7732    0.5396   -1.1562 H   0  0  0  0  0  0  0  0  0  0  0  0
   -2.6424    1.8864   -0.9411 H   0  0  0  0  0  0  0  0  0  0  0  0
   -3.6070    1.3290    1.8197 H   0  0  0  0  0  0  0  0  0  0  0  0
   -2.2398   -0.1682    3.6421 H   0  0  0  0  0  0  0  0  0  0  0  0
   -0.5082   -1.6556    2.1851 H   0  0  0  0  0  0  0  0  0  0  0  0
   -0.3612    1.1191    1.2498 H   0  0  0  0  0  0  0  0  0  0  0  0
   -0.0498   -0.8945   -0.6777 H   0  0  0  0  0  0  0  0  0  0  0  0
   -3.1049   -1.8471    0.8599 H   0  0  0  0  0  0  0  0  0  0  0  0
   -1.4698   -2.9606   -0.3236 H   0  0  0  0  0  0  0  0  0  0  0  0
  1 12  1  0  0  0  0
  2  1  1  6  0  0  0
  2  8  1  0  0  0  0
  2  6  1  0  0  0  0
  2  3  1  0  0  0  0
  3 13  1  0  0  0  0
  3  4  2  0  0  0  0
  4 14  1  0  0  0  0
  5 15  1  1  0  0  0
  5  4  1  0  0  0  0
  6 16  1  1  0  0  0
  6  5  1  0  0  0  0
  7  6  1  0  0  0  0
  8 18  1  1  0  0  0
  8  5  1  0  0  0  0
  9 19  1  0  0  0  0
  9  8  1  0  0  0  0
 10  1  1  0  0  0  0
 11  1  1  0  0  0  0
 17  7  1  0  0  0  0
M TOR 0 0 1 2 3
M TOR 1 0 1 2 12
M TOR 2 0 1 5 4
M TOR 3 0 1 5 6
M TOR 4 0 1 5 15
M TOR 5 0 1 7 4
M TOR 6 0 1 7 8
M TOR 7 0 1 7 17
M TOR 8 1 2 3 4
M TOR 9 1 2 3 13
M TOR 10 1 5 4 3
M TOR 11 1 5 4 7
M TOR 12 1 5 4 14
M TOR 13 1 5 6 16
M TOR 14 1 7 4 3
M TOR 15 1 7 4 14
M TOR 16 1 7 8 18
M TOR 17 2 1 0 9
M TOR 18 2 1 0 10
M TOR 19 2 1 0 11
M TOR 20 2 1 5 4
M TOR 21 2 1 5 6
M TOR 22 2 1 5 15
M TOR 23 2 1 7 4
M TOR 24 2 1 7 8
M TOR 25 2 1 7 17
M TOR 26 2 3 4 5
M TOR 27 2 3 4 7
M TOR 28 2 3 4 14
M TOR 29 3 2 1 5
M TOR 30 3 2 1 7
M TOR 31 3 4 5 6
M TOR 32 3 4 5 15
M TOR 33 3 4 7 8
M TOR 34 3 4 7 17
M TOR 35 4 3 2 12
M TOR 36 4 5 6 16
M TOR 37 4 7 8 18
M TOR 38 5 1 0 9
M TOR 39 5 1 0 10
M TOR 40 5 1 0 11
M TOR 41 5 1 2 12
M TOR 42 5 1 7 8
M TOR 43 5 1 7 17
M TOR 44 5 4 3 13
M TOR 45 5 4 7 8
M TOR 46 5 4 7 17
M TOR 47 6 5 1 7
M TOR 48 6 5 4 7
M TOR 49 6 5 4 14
M TOR 50 7 1 0 9
M TOR 51 7 1 0 10
M TOR 52 7 1 0 11
M TOR 53 7 1 2 12
M TOR 54 7 1 5 15
M TOR 55 7 4 3 13
M TOR 56 7 4 5 15
M TOR 57 8 7 4 14
M  END
$$$$
