
     RDKit          3D

 19 21  0  0  0  0  0  0  0  0999 V2000
    3.9882   -4.2926    2.0716 C   0  0  0  0  0  0  0  0  0  0  0  0
    3.4256   -3.2968    1.1170 C   0  0  0  0  0  0  0  0  0  0  0  0
    2.0042   -3.2295    0.9376 O   0  0  0  0  0  0  0  0  0  0  0  0
    2.2340   -1.9571    0.2408 C   0  0  0  0  0  0  0  0  0  0  0  0
    1.0469   -1.0456    0.3384 C   0  0  0  0  0  0  0  0  0  0  0  0
   -0.0953   -1.6539   -0.2389 O   0  0  0  0  0  0  0  0  0  0  0  0
    2.8928   -2.4160   -1.0883 C   0  0  0  0  0  0  0  0  0  0  0  0
    4.0679   -2.8318   -0.2050 C   0  0  0  0  0  0  0  0  0  0  0  0
    3.6645   -1.8419    0.8907 C   0  0  0  0  0  0  0  0  0  0  0  0
    3.7655   -5.3133    1.7427 H   0  0  0  0  0  0  0  0  0  0  0  0
    5.0752   -4.1844    2.1326 H   0  0  0  0  0  0  0  0  0  0  0  0
    3.5701   -4.1552    3.0737 H   0  0  0  0  0  0  0  0  0  0  0  0
    0.8771   -0.7796    1.3936 H   0  0  0  0  0  0  0  0  0  0  0  0
    1.2335   -0.1207   -0.2175 H   0  0  0  0  0  0  0  0  0  0  0  0
   -0.1815   -2.5205    0.1760 H   0  0  0  0  0  0  0  0  0  0  0  0
    2.3540   -3.1769   -1.6595 H   0  0  0  0  0  0  0  0  0  0  0  0
    3.1492   -1.5643   -1.7242 H   0  0  0  0  0  0  0  0  0  0  0  0
    5.0686   -3.1254   -0.4968 H   0  0  0  0  0  0  0  0  0  0  0  0
    4.1958   -1.0689    1.4290 H   0  0  0  0  0  0  0  0  0  0  0  0
  1  2  1  0
  2  3  1  0
  3  4  1  0
  4  5  1  0
  5  6  1  0
  4  7  1  0
  7  8  1  0
  8  9  1  0
  8  2  1  0
  9  2  1  0
  9  4  1  0
  1 10  1  0
  1 11  1  0
  1 12  1  0
  5 13  1  0
  5 14  1  0
  6 15  1  0
  7 16  1  0
  7 17  1  0
  8 18  1  0
  9 19  1  0
M  END
$$$$
