
     RDKit          3D

 19 19  0  0  0  0  0  0  0  0999 V2000
    1.0380    1.1432    0.2877 C   0  0  0  0  0  0  0  0  0  0  0  0
    0.8811   -0.3486   -0.0237 C   0  0  0  0  0  0  0  0  0  0  0  0
    1.7349   -0.8062   -1.1963 C   0  0  0  0  0  0  0  0  0  0  0  0
    1.2880   -2.0128   -1.8478 O   0  0  0  0  0  0  0  0  0  0  0  0
    1.1777   -0.7867   -2.5701 C   0  0  0  0  0  0  0  0  0  0  0  0
    2.0600   -0.6162   -3.7888 C   0  0  0  0  0  0  0  0  0  0  0  0
    2.3301    0.7539   -4.0353 O   0  0  0  0  0  0  0  0  0  0  0  0
    3.1658   -0.6831   -1.0183 C   0  0  0  0  0  0  0  0  0  0  0  0
    4.3471   -0.5393   -0.8407 C   0  0  0  0  0  0  0  0  0  0  0  0
    0.4069    1.4283    1.1341 H   0  0  0  0  0  0  0  0  0  0  0  0
    2.0740    1.3849    0.5425 H   0  0  0  0  0  0  0  0  0  0  0  0
    0.7499    1.7588   -0.5709 H   0  0  0  0  0  0  0  0  0  0  0  0
    1.1480   -0.9474    0.8547 H   0  0  0  0  0  0  0  0  0  0  0  0
   -0.1595   -0.5865   -0.2666 H   0  0  0  0  0  0  0  0  0  0  0  0
    0.1598   -0.4062   -2.6716 H   0  0  0  0  0  0  0  0  0  0  0  0
    2.9741   -1.2080   -3.6534 H   0  0  0  0  0  0  0  0  0  0  0  0
    1.5433   -0.9932   -4.6773 H   0  0  0  0  0  0  0  0  0  0  0  0
    2.9094    1.0579   -3.3277 H   0  0  0  0  0  0  0  0  0  0  0  0
    5.3927   -0.4342   -0.6844 H   0  0  0  0  0  0  0  0  0  0  0  0
  1  2  1  0
  2  3  1  0
  3  4  1  0
  4  5  1  0
  5  6  1  0
  6  7  1  0
  3  8  1  0
  8  9  3  0
  5  3  1  0
  1 10  1  0
  1 11  1  0
  1 12  1  0
  2 13  1  0
  2 14  1  0
  5 15  1  0
  6 16  1  0
  6 17  1  0
  7 18  1  0
  9 19  1  0
M  END
$$$$
