
     RDKit          3D

 19 20  0  0  0  0  0  0  0  0999 V2000
   -2.4189   -3.8941    0.6665 O   0  0  0  0  0  0  0  0  0  0  0  0
   -2.3158   -2.7647    0.2685 C   0  0  0  0  0  0  0  0  0  0  0  0
   -1.0043   -1.9996    0.2480 C   0  0  0  0  0  0  0  0  0  0  0  0
   -1.2573   -0.7150   -0.2742 O   0  0  0  0  0  0  0  0  0  0  0  0
   -0.1486    0.1046   -0.3557 C   0  0  0  0  0  0  0  0  0  0  0  0
    1.1540   -0.1035   -1.1957 C   0  0  0  0  0  0  0  0  0  0  0  0
    1.2770    1.2865   -0.5074 C   0  0  0  0  0  0  0  0  0  0  0  0
   -0.2089    1.5475   -0.8975 C   0  0  0  0  0  0  0  0  0  0  0  0
    0.7578    0.6313    0.8049 C   0  0  0  0  0  0  0  0  0  0  0  0
   -3.1792   -2.1819   -0.1210 H   0  0  0  0  0  0  0  0  0  0  0  0
   -0.6030   -1.9566    1.2726 H   0  0  0  0  0  0  0  0  0  0  0  0
   -0.2783   -2.5576   -0.3638 H   0  0  0  0  0  0  0  0  0  0  0  0
    1.8504   -0.8760   -0.8593 H   0  0  0  0  0  0  0  0  0  0  0  0
    1.0380   -0.1044   -2.2826 H   0  0  0  0  0  0  0  0  0  0  0  0
    2.1067    1.9821   -0.5985 H   0  0  0  0  0  0  0  0  0  0  0  0
   -0.7564    2.2732   -0.2910 H   0  0  0  0  0  0  0  0  0  0  0  0
   -0.4252    1.6591   -1.9629 H   0  0  0  0  0  0  0  0  0  0  0  0
    1.4254   -0.0880    1.2865 H   0  0  0  0  0  0  0  0  0  0  0  0
    0.2827    1.2961    1.5308 H   0  0  0  0  0  0  0  0  0  0  0  0
  1  2  2  0
  2  3  1  0
  3  4  1  0
  4  5  1  0
  5  6  1  0
  6  7  1  0
  7  8  1  0
  7  9  1  0
  8  5  1  0
  9  5  1  0
  2 10  1  0
  3 11  1  0
  3 12  1  0
  6 13  1  0
  6 14  1  0
  7 15  1  0
  8 16  1  0
  8 17  1  0
  9 18  1  0
  9 19  1  0
M  END
$$$$
