gdb 5523	3.2100724	1.2320137	1.0862441	2.4074	76.22	-0.23286	-0.00836	0.2245	1173.81	0.15745	-422.553045	-422.544921	-422.543977	-422.585847	30.879
 OpenBabel02181911423D

 19 20  0  0  1  0  0  0  0  0999 V2000
    1.3775    0.1124   -0.1555 C   0  0  0  0  0  0  0  0  0  0  0  0
   -0.0264    0.2477   -0.0622 O   0  0  0  0  0  0  0  0  0  0  0  0
   -0.4724    0.5931    1.2168 C   0  0  2  0  0  0  0  0  0  0  0  0
   -1.9969    0.8699    1.2362 C   0  0  2  0  0  0  0  0  0  0  0  0
   -1.6588    2.2811    0.6708 C   0  0  0  0  0  0  0  0  0  0  0  0
   -0.3858    2.1368    1.5746 C   0  0  1  0  0  0  0  0  0  0  0  0
   -1.0220    2.1036    2.9518 C   0  0  0  0  0  0  0  0  0  0  0  0
   -0.6716    2.6402    3.9685 O   0  0  0  0  0  0  0  0  0  0  0  0
   -2.2359    1.1707    2.7269 C   0  0  0  0  0  0  0  0  0  0  0  0
    1.7562   -0.6393    0.5532 H   0  0  0  0  0  0  0  0  0  0  0  0
    1.6010   -0.2149   -1.1732 H   0  0  0  0  0  0  0  0  0  0  0  0
    1.8970    1.0619    0.0357 H   0  0  0  0  0  0  0  0  0  0  0  0
   -0.0697   -0.1060    1.9659 H   0  0  0  0  0  0  0  0  0  0  0  0
   -2.6848    0.1940    0.7301 H   0  0  0  0  0  0  0  0  0  0  0  0
   -1.4023    2.2562   -0.3866 H   0  0  0  0  0  0  0  0  0  0  0  0
   -2.3465    3.1028    0.8872 H   0  0  0  0  0  0  0  0  0  0  0  0
    0.5158    2.7334    1.4553 H   0  0  0  0  0  0  0  0  0  0  0  0
   -2.1818    0.2959    3.3830 H   0  0  0  0  0  0  0  0  0  0  0  0
   -3.1805    1.6874    2.9217 H   0  0  0  0  0  0  0  0  0  0  0  0
  1  2  1  0  0  0  0
  1 12  1  0  0  0  0
  1 10  1  0  0  0  0
  2  3  1  0  0  0  0
  3  4  1  0  0  0  0
  3  6  1  0  0  0  0
  3 13  1  1  0  0  0
  4 14  1  6  0  0  0
  4  9  1  0  0  0  0
  5 16  1  0  0  0  0
  5  4  1  0  0  0  0
  5  6  1  0  0  0  0
  6 17  1  6  0  0  0
  6  7  1  0  0  0  0
  7  8  2  0  0  0  0
  9 19  1  0  0  0  0
  9  7  1  0  0  0  0
  9 18  1  0  0  0  0
 11  1  1  0  0  0  0
 15  5  1  0  0  0  0
M TOR 0 0 1 2 3
M TOR 1 0 1 2 5
M TOR 2 0 1 2 12
M TOR 3 1 2 3 4
M TOR 4 1 2 3 8
M TOR 5 1 2 3 13
M TOR 6 1 2 5 4
M TOR 7 1 2 5 6
M TOR 8 1 2 5 16
M TOR 9 2 1 0 9
M TOR 10 2 1 0 10
M TOR 11 2 1 0 11
M TOR 12 2 3 4 5
M TOR 13 2 3 4 14
M TOR 14 2 3 4 15
M TOR 15 2 3 8 6
M TOR 16 2 3 8 17
M TOR 17 2 3 8 18
M TOR 18 2 5 4 14
M TOR 19 2 5 4 15
M TOR 20 2 5 6 7
M TOR 21 2 5 6 8
M TOR 22 3 2 5 6
M TOR 23 3 2 5 16
M TOR 24 3 4 5 6
M TOR 25 3 4 5 16
M TOR 26 3 8 6 5
M TOR 27 3 8 6 7
M TOR 28 4 3 2 12
M TOR 29 4 3 8 6
M TOR 30 4 3 8 17
M TOR 31 4 3 8 18
M TOR 32 4 5 2 12
M TOR 33 4 5 6 7
M TOR 34 4 5 6 8
M TOR 35 5 2 3 8
M TOR 36 5 2 3 13
M TOR 37 5 4 3 8
M TOR 38 5 4 3 13
M TOR 39 5 6 8 17
M TOR 40 5 6 8 18
M TOR 41 6 5 2 12
M TOR 42 6 5 4 14
M TOR 43 6 5 4 15
M TOR 44 6 8 3 13
M TOR 45 7 6 5 16
M TOR 46 7 6 8 17
M TOR 47 7 6 8 18
M TOR 48 8 3 2 12
M TOR 49 8 3 4 14
M TOR 50 8 3 4 15
M TOR 51 8 6 5 16
M  END
$$$$
