
     RDKit          3D

 19 20  0  0  0  0  0  0  0  0999 V2000
   -1.1096    0.4585    1.4947 O   0  0  0  0  0  0  0  0  0  0  0  0
   -1.8811    0.0621    0.3834 C   0  0  0  0  0  0  0  0  0  0  0  0
   -2.3866    1.2950   -0.3981 C   0  0  0  0  0  0  0  0  0  0  0  0
   -3.8530    0.8099   -0.2798 C   0  0  0  0  0  0  0  0  0  0  0  0
   -4.3188   -0.2621   -1.2987 C   0  0  0  0  0  0  0  0  0  0  0  0
   -3.9420   -1.4024   -0.3066 C   0  0  0  0  0  0  0  0  0  0  0  0
   -3.3510   -0.3684    0.6769 C   0  0  0  0  0  0  0  0  0  0  0  0
   -4.8737    1.7829    0.2075 C   0  0  0  0  0  0  0  0  0  0  0  0
   -6.0435    1.7716   -0.0915 O   0  0  0  0  0  0  0  0  0  0  0  0
   -0.8521   -0.3311    1.9822 H   0  0  0  0  0  0  0  0  0  0  0  0
   -1.3432   -0.6760   -0.2299 H   0  0  0  0  0  0  0  0  0  0  0  0
   -2.2089    2.1952    0.1989 H   0  0  0  0  0  0  0  0  0  0  0  0
   -2.0010    1.4529   -1.4082 H   0  0  0  0  0  0  0  0  0  0  0  0
   -5.3857   -0.1861   -1.5132 H   0  0  0  0  0  0  0  0  0  0  0  0
   -3.7658   -0.2555   -2.2415 H   0  0  0  0  0  0  0  0  0  0  0  0
   -4.8175   -1.9189    0.0934 H   0  0  0  0  0  0  0  0  0  0  0  0
   -3.2358   -2.1554   -0.6704 H   0  0  0  0  0  0  0  0  0  0  0  0
   -3.6157   -0.4189    1.7342 H   0  0  0  0  0  0  0  0  0  0  0  0
   -4.4765    2.5383    0.9261 H   0  0  0  0  0  0  0  0  0  0  0  0
  1  2  1  0
  2  3  1  0
  3  4  1  0
  4  5  1  0
  5  6  1  0
  6  7  1  0
  4  8  1  0
  8  9  2  0
  7  2  1  0
  7  4  1  0
  1 10  1  0
  2 11  1  0
  3 12  1  0
  3 13  1  0
  5 14  1  0
  5 15  1  0
  6 16  1  0
  6 17  1  0
  7 18  1  0
  8 19  1  0
M  END
$$$$
