
     RDKit          3D

 19 19  0  0  0  0  0  0  0  0999 V2000
    1.4039    0.0985    0.0988 O   0  0  0  0  0  0  0  0  0  0  0  0
    0.2083    0.0761    0.2341 C   0  0  0  0  0  0  0  0  0  0  0  0
   -0.7277    1.2076   -0.1376 C   0  0  0  0  0  0  0  0  0  0  0  0
   -1.5803    1.6355    1.0452 C   0  0  0  0  0  0  0  0  0  0  0  0
   -2.1323    3.0378    1.1224 C   0  0  0  0  0  0  0  0  0  0  0  0
   -1.0338    2.6046    2.0652 C   0  0  0  0  0  0  0  0  0  0  0  0
   -1.3234    2.4174    3.5443 C   0  0  0  0  0  0  0  0  0  0  0  0
   -1.2669    3.7329    4.2948 C   0  0  0  0  0  0  0  0  0  0  0  0
   -2.1437    4.1611    4.9990 O   0  0  0  0  0  0  0  0  0  0  0  0
   -0.3018   -0.8156    0.6699 H   0  0  0  0  0  0  0  0  0  0  0  0
   -0.1297    2.0390   -0.5226 H   0  0  0  0  0  0  0  0  0  0  0  0
   -1.3795    0.8540   -0.9500 H   0  0  0  0  0  0  0  0  0  0  0  0
   -2.2250    0.8530    1.4389 H   0  0  0  0  0  0  0  0  0  0  0  0
   -1.8816    3.7294    0.3253 H   0  0  0  0  0  0  0  0  0  0  0  0
   -3.1290    3.1699    1.5302 H   0  0  0  0  0  0  0  0  0  0  0  0
   -0.0440    2.9994    1.8481 H   0  0  0  0  0  0  0  0  0  0  0  0
   -2.3088    1.9711    3.7082 H   0  0  0  0  0  0  0  0  0  0  0  0
   -0.5699    1.7486    3.9862 H   0  0  0  0  0  0  0  0  0  0  0  0
   -0.3223    4.3066    4.1425 H   0  0  0  0  0  0  0  0  0  0  0  0
  1  2  2  0
  2  3  1  0
  3  4  1  0
  4  5  1  0
  5  6  1  0
  6  7  1  0
  7  8  1  0
  8  9  2  0
  6  4  1  0
  2 10  1  0
  3 11  1  0
  3 12  1  0
  4 13  1  0
  5 14  1  0
  5 15  1  0
  6 16  1  0
  7 17  1  0
  7 18  1  0
  8 19  1  0
M  END
$$$$
