gdb 5636	2.5903381	1.4928618	1.2536284	2.3673	75.66	-0.24784	0.00961	0.25745	1082.4339	0.157431	-422.535208	-422.526859	-422.525915	-422.568322	31.208
 OpenBabel02181911423D

 19 20  0  0  1  0  0  0  0  0999 V2000
    1.4245   -0.1817   -0.1707 C   0  0  0  0  0  0  0  0  0  0  0  0
    0.0277   -0.0174   -0.0138 O   0  0  0  0  0  0  0  0  0  0  0  0
   -0.3850    0.6302    1.1907 C   0  0  1  0  0  0  0  0  0  0  0  0
    0.0250   -0.1304    2.4260 C   0  0  0  0  0  0  0  0  0  0  0  0
    0.8241    0.3446    3.3787 C   0  0  0  0  0  0  0  0  0  0  0  0
    1.4434    1.7159    3.3744 C   0  0  0  0  0  0  0  0  0  0  0  0
    0.9299    2.6123    2.2712 C   0  0  2  0  0  0  0  0  0  0  0  0
   -0.4772    2.8754    2.2721 O   0  0  0  0  0  0  0  0  0  0  0  0
    0.0583    2.0842    1.2105 C   0  0  2  0  0  0  0  0  0  0  0  0
    1.8679   -0.7683    0.6448 H   0  0  0  0  0  0  0  0  0  0  0  0
    1.5685   -0.7164   -1.1126 H   0  0  0  0  0  0  0  0  0  0  0  0
    1.9539    0.7803   -0.2304 H   0  0  0  0  0  0  0  0  0  0  0  0
   -1.4805    0.6226    1.1166 H   0  0  0  0  0  0  0  0  0  0  0  0
   -0.3729   -1.1391    2.5013 H   0  0  0  0  0  0  0  0  0  0  0  0
    1.0618   -0.2807    4.2362 H   0  0  0  0  0  0  0  0  0  0  0  0
    1.2773    2.2054    4.3440 H   0  0  0  0  0  0  0  0  0  0  0  0
    2.5352    1.6261    3.2768 H   0  0  0  0  0  0  0  0  0  0  0  0
    1.5410    3.4887    2.0531 H   0  0  0  0  0  0  0  0  0  0  0  0
    0.0500    2.5632    0.2308 H   0  0  0  0  0  0  0  0  0  0  0  0
  1  2  1  0  0  0  0
  1 10  1  0  0  0  0
  2  3  1  0  0  0  0
  3 13  1  6  0  0  0
  3  9  1  0  0  0  0
  3  4  1  0  0  0  0
  4 14  1  0  0  0  0
  4  5  2  0  0  0  0
  5 15  1  0  0  0  0
  6  5  1  0  0  0  0
  6 16  1  0  0  0  0
  7 18  1  6  0  0  0
  7  8  1  0  0  0  0
  7  6  1  0  0  0  0
  9 19  1  6  0  0  0
  9  7  1  0  0  0  0
  9  8  1  0  0  0  0
 11  1  1  0  0  0  0
 12  1  1  0  0  0  0
 17  6  1  0  0  0  0
M TOR 0 0 1 2 3
M TOR 1 0 1 2 8
M TOR 2 0 1 2 12
M TOR 3 1 2 3 4
M TOR 4 1 2 3 13
M TOR 5 1 2 8 6
M TOR 6 1 2 8 7
M TOR 7 1 2 8 18
M TOR 8 2 1 0 9
M TOR 9 2 1 0 10
M TOR 10 2 1 0 11
M TOR 11 2 3 4 5
M TOR 12 2 3 4 14
M TOR 13 2 8 6 5
M TOR 14 2 8 6 7
M TOR 15 2 8 6 17
M TOR 16 3 2 8 6
M TOR 17 3 2 8 7
M TOR 18 3 2 8 18
M TOR 19 3 4 5 6
M TOR 20 3 4 5 15
M TOR 21 3 4 5 16
M TOR 22 4 3 2 8
M TOR 23 4 3 2 12
M TOR 24 4 5 6 7
M TOR 25 4 5 6 8
M TOR 26 4 5 6 17
M TOR 27 5 4 3 13
M TOR 28 5 6 7 8
M TOR 29 5 6 8 18
M TOR 30 6 5 4 14
M TOR 31 6 7 8 18
M TOR 32 6 8 2 12
M TOR 33 7 6 5 15
M TOR 34 7 6 5 16
M TOR 35 7 8 2 12
M TOR 36 7 8 6 17
M TOR 37 8 2 3 13
M TOR 38 8 6 5 15
M TOR 39 8 6 5 16
M  END
$$$$
