gdb 4144	2.5007676	1.4438083	1.1096316	3.7057	76.91	-0.23607	-0.0106	0.22547	1149.2263	0.155358	-422.553691	-422.544502	-422.543558	-422.587795	33.914
 OpenBabel02181911413D

 19 20  0  0  1  0  0  0  0  0999 V2000
    1.0009   -2.8975   -3.4396 C   0  0  0  0  0  0  0  0  0  0  0  0
    1.4022   -1.8471   -2.4188 C   0  0  0  0  0  0  0  0  0  0  0  0
    1.6687   -0.7066   -2.7416 O   0  0  0  0  0  0  0  0  0  0  0  0
    1.4564   -2.2824   -1.0019 C   0  0  2  0  0  0  0  0  0  0  0  0
    1.2054   -1.2717    0.1045 C   0  0  0  0  0  0  0  0  0  0  0  0
    2.5423   -1.9077    0.0503 C   0  0  1  0  0  0  0  0  0  0  0  0
    2.4813   -3.3202    0.6367 C   0  0  0  0  0  0  0  0  0  0  0  0
    1.4104   -3.7014   -0.4485 C   0  0  1  0  0  0  0  0  0  0  0  0
    0.1209   -4.0939   -0.0300 O   0  0  0  0  0  0  0  0  0  0  0  0
    0.8278   -2.4199   -4.4044 H   0  0  0  0  0  0  0  0  0  0  0  0
    1.7986   -3.6420   -3.5489 H   0  0  0  0  0  0  0  0  0  0  0  0
    0.1046   -3.4337   -3.1105 H   0  0  0  0  0  0  0  0  0  0  0  0
    1.1487   -0.2553   -0.2676 H   0  0  0  0  0  0  0  0  0  0  0  0
    0.5019   -1.5342    0.8889 H   0  0  0  0  0  0  0  0  0  0  0  0
    3.4413   -1.3448   -0.1655 H   0  0  0  0  0  0  0  0  0  0  0  0
    3.4067   -3.8909    0.5357 H   0  0  0  0  0  0  0  0  0  0  0  0
    2.1309   -3.3782    1.6720 H   0  0  0  0  0  0  0  0  0  0  0  0
    1.8277   -4.4243   -1.1620 H   0  0  0  0  0  0  0  0  0  0  0  0
    0.1755   -4.9856    0.3292 H   0  0  0  0  0  0  0  0  0  0  0  0
  1 12  1  0  0  0  0
  1  2  1  0  0  0  0
  3  2  2  0  0  0  0
  4  2  1  6  0  0  0
  4  8  1  0  0  0  0
  4  6  1  0  0  0  0
  4  5  1  0  0  0  0
  5 14  1  0  0  0  0
  6 15  1  6  0  0  0
  6  5  1  0  0  0  0
  6  7  1  0  0  0  0
  7 17  1  0  0  0  0
  8 18  1  6  0  0  0
  8  9  1  0  0  0  0
  8  7  1  0  0  0  0
  9 19  1  0  0  0  0
 10  1  1  0  0  0  0
 11  1  1  0  0  0  0
 13  5  1  0  0  0  0
 16  7  1  0  0  0  0
M TOR 0 0 1 3 4
M TOR 1 0 1 3 5
M TOR 2 0 1 3 7
M TOR 3 1 3 4 5
M TOR 4 1 3 4 12
M TOR 5 1 3 4 13
M TOR 6 1 3 5 6
M TOR 7 1 3 5 14
M TOR 8 1 3 7 6
M TOR 9 1 3 7 8
M TOR 10 1 3 7 17
M TOR 11 2 1 0 9
M TOR 12 2 1 0 10
M TOR 13 2 1 0 11
M TOR 14 2 1 3 4
M TOR 15 2 1 3 5
M TOR 16 2 1 3 7
M TOR 17 3 1 0 9
M TOR 18 3 1 0 10
M TOR 19 3 1 0 11
M TOR 20 3 4 5 6
M TOR 21 3 4 5 14
M TOR 22 3 5 4 12
M TOR 23 3 5 4 13
M TOR 24 3 5 6 7
M TOR 25 3 5 6 15
M TOR 26 3 5 6 16
M TOR 27 3 7 6 15
M TOR 28 3 7 6 16
M TOR 29 3 7 8 18
M TOR 30 4 3 7 6
M TOR 31 4 3 7 8
M TOR 32 4 3 7 17
M TOR 33 4 5 3 7
M TOR 34 4 5 6 7
M TOR 35 4 5 6 15
M TOR 36 4 5 6 16
M TOR 37 5 3 7 8
M TOR 38 5 3 7 17
M TOR 39 5 6 7 8
M TOR 40 5 6 7 17
M TOR 41 6 5 4 12
M TOR 42 6 5 4 13
M TOR 43 6 7 8 18
M TOR 44 7 3 4 12
M TOR 45 7 3 4 13
M TOR 46 7 3 5 14
M TOR 47 7 6 5 14
M TOR 48 8 7 6 15
M TOR 49 8 7 6 16
M  END
$$$$
