
     RDKit          3D

 19 21  0  0  0  0  0  0  0  0999 V2000
   -0.0703    0.1858   -0.0670 C   0  0  0  0  0  0  0  0  0  0  0  0
    1.4177   -0.0186   -0.0607 C   0  0  0  0  0  0  0  0  0  0  0  0
    2.3149    0.3642    1.0789 C   0  0  0  0  0  0  0  0  0  0  0  0
    2.5750    0.9813   -0.2688 C   0  0  0  0  0  0  0  0  0  0  0  0
    3.2773    0.0136   -1.2415 C   0  0  0  0  0  0  0  0  0  0  0  0
    3.5552    0.6319   -2.4555 O   0  0  0  0  0  0  0  0  0  0  0  0
    4.2309   -1.0639   -0.6694 C   0  0  0  0  0  0  0  0  0  0  0  0
    3.1066   -1.9254   -0.3550 O   0  0  0  0  0  0  0  0  0  0  0  0
    2.1598   -1.0224   -0.9833 C   0  0  0  0  0  0  0  0  0  0  0  0
   -0.3411    1.1068    0.4597 H   0  0  0  0  0  0  0  0  0  0  0  0
   -0.4638    0.2592   -1.0873 H   0  0  0  0  0  0  0  0  0  0  0  0
   -0.5866   -0.6444    0.4304 H   0  0  0  0  0  0  0  0  0  0  0  0
    1.8654    1.0411    1.7995 H   0  0  0  0  0  0  0  0  0  0  0  0
    2.9901   -0.3637    1.5154 H   0  0  0  0  0  0  0  0  0  0  0  0
    2.5418    2.0509   -0.4386 H   0  0  0  0  0  0  0  0  0  0  0  0
    3.8274   -0.0425   -3.0877 H   0  0  0  0  0  0  0  0  0  0  0  0
    4.8806   -1.5171   -1.4327 H   0  0  0  0  0  0  0  0  0  0  0  0
    4.8313   -0.8133    0.2120 H   0  0  0  0  0  0  0  0  0  0  0  0
    1.5636   -1.4962   -1.7682 H   0  0  0  0  0  0  0  0  0  0  0  0
  1  2  1  0
  2  3  1  0
  3  4  1  0
  4  5  1  0
  5  6  1  0
  5  7  1  0
  7  8  1  0
  8  9  1  0
  4  2  1  0
  9  5  1  0
  9  2  1  0
  1 10  1  0
  1 11  1  0
  1 12  1  0
  3 13  1  0
  3 14  1  0
  4 15  1  0
  6 16  1  0
  7 17  1  0
  7 18  1  0
  9 19  1  0
M  END
$$$$
