gdb 546	2.8979109	1.5550479	1.1076841	1.8835	77.56	-0.23246	0.01147	0.24393	1100.2933	0.158629	-422.526225	-422.518388	-422.517443	-422.559017	29.726
 OpenBabel02181911403D

 19 20  0  0  1  0  0  0  0  0999 V2000
    1.1921    0.3001   -0.5137 C   0  0  0  0  0  0  0  0  0  0  0  0
    0.7956    1.6508   -0.1727 O   0  0  0  0  0  0  0  0  0  0  0  0
   -0.5141    1.2018    0.2824 C   0  0  2  0  0  0  0  0  0  0  0  0
   -0.8821    1.6227    1.7067 C   0  0  0  0  0  0  0  0  0  0  0  0
   -1.7461    0.5379    2.3920 C   0  0  0  0  0  0  0  0  0  0  0  0
   -2.5192   -0.2136    1.4598 O   0  0  0  0  0  0  0  0  0  0  0  0
   -1.9674   -1.4708    1.1182 C   0  0  0  0  0  0  0  0  0  0  0  0
   -0.6406   -1.3890    0.4054 C   0  0  0  0  0  0  0  0  0  0  0  0
   -0.0923   -0.2328    0.0731 C   0  0  0  0  0  0  0  0  0  0  0  0
    1.3115    0.1693   -1.5987 H   0  0  0  0  0  0  0  0  0  0  0  0
    2.1253    0.0005   -0.0188 H   0  0  0  0  0  0  0  0  0  0  0  0
   -1.2890    1.5309   -0.4221 H   0  0  0  0  0  0  0  0  0  0  0  0
    0.0402    1.7734    2.2772 H   0  0  0  0  0  0  0  0  0  0  0  0
   -1.4097    2.5815    1.6846 H   0  0  0  0  0  0  0  0  0  0  0  0
   -1.1089   -0.1406    2.9742 H   0  0  0  0  0  0  0  0  0  0  0  0
   -2.4523    1.0005    3.0897 H   0  0  0  0  0  0  0  0  0  0  0  0
   -1.8546   -2.0979    2.0215 H   0  0  0  0  0  0  0  0  0  0  0  0
   -2.7166   -1.9665    0.4873 H   0  0  0  0  0  0  0  0  0  0  0  0
   -0.1388   -2.3326    0.1990 H   0  0  0  0  0  0  0  0  0  0  0  0
  1  2  1  0  0  0  0
  1 11  1  0  0  0  0
  1  9  1  0  0  0  0
  2  3  1  0  0  0  0
  3 12  1  6  0  0  0
  3  4  1  0  0  0  0
  4 13  1  0  0  0  0
  4  5  1  0  0  0  0
  5 15  1  0  0  0  0
  5 16  1  0  0  0  0
  6  5  1  0  0  0  0
  7  6  1  0  0  0  0
  7 17  1  0  0  0  0
  8  7  1  0  0  0  0
  9  3  1  0  0  0  0
  9  8  2  0  0  0  0
 10  1  1  0  0  0  0
 14  4  1  0  0  0  0
 18  7  1  0  0  0  0
 19  8  1  0  0  0  0
M TOR 0 0 1 2 3
M TOR 1 0 1 2 8
M TOR 2 0 1 2 11
M TOR 3 0 8 2 3
M TOR 4 0 8 2 11
M TOR 5 0 8 7 6
M TOR 6 0 8 7 18
M TOR 7 1 0 8 7
M TOR 8 1 2 3 4
M TOR 9 1 2 3 12
M TOR 10 1 2 3 13
M TOR 11 1 2 8 7
M TOR 12 2 1 0 9
M TOR 13 2 1 0 10
M TOR 14 2 3 4 5
M TOR 15 2 3 4 14
M TOR 16 2 3 4 15
M TOR 17 2 8 0 9
M TOR 18 2 8 0 10
M TOR 19 2 8 7 6
M TOR 20 2 8 7 18
M TOR 21 3 2 8 7
M TOR 22 3 4 5 6
M TOR 23 4 3 2 8
M TOR 24 4 3 2 11
M TOR 25 4 5 6 7
M TOR 26 4 5 6 16
M TOR 27 4 5 6 17
M TOR 28 5 4 3 12
M TOR 29 5 4 3 13
M TOR 30 5 6 7 8
M TOR 31 5 6 7 18
M TOR 32 6 5 4 14
M TOR 33 6 5 4 15
M TOR 34 7 8 0 9
M TOR 35 7 8 0 10
M TOR 36 7 8 2 11
M TOR 37 8 2 3 12
M TOR 38 8 2 3 13
M TOR 39 8 7 6 16
M TOR 40 8 7 6 17
M  END
$$$$
