
     RDKit          3D

 19 20  0  0  0  0  0  0  0  0999 V2000
    0.3070   -3.0942    2.0292 O   0  0  0  0  0  0  0  0  0  0  0  0
    0.1386   -1.7087    2.0093 C   0  0  0  0  0  0  0  0  0  0  0  0
   -1.1984   -1.1098    2.3520 C   0  0  0  0  0  0  0  0  0  0  0  0
   -0.7383   -1.1633    0.9079 C   0  0  0  0  0  0  0  0  0  0  0  0
   -0.3415    0.0411    0.1535 C   0  0  0  0  0  0  0  0  0  0  0  0
   -0.4572    1.3304    0.4669 C   0  0  0  0  0  0  0  0  0  0  0  0
    0.1227    2.1849   -0.6227 C   0  0  0  0  0  0  0  0  0  0  0  0
    0.5805    1.2691   -1.6149 O   0  0  0  0  0  0  0  0  0  0  0  0
    0.3307   -0.0663   -1.1956 C   0  0  0  0  0  0  0  0  0  0  0  0
    0.3587   -3.3750    2.9492 H   0  0  0  0  0  0  0  0  0  0  0  0
    1.0253   -1.1254    2.2574 H   0  0  0  0  0  0  0  0  0  0  0  0
   -1.9885   -1.7965    2.6346 H   0  0  0  0  0  0  0  0  0  0  0  0
   -1.2209   -0.1508    2.8575 H   0  0  0  0  0  0  0  0  0  0  0  0
   -1.1945   -1.9509    0.3129 H   0  0  0  0  0  0  0  0  0  0  0  0
   -0.9085    1.7420    1.3608 H   0  0  0  0  0  0  0  0  0  0  0  0
   -0.6210    2.8700   -1.0612 H   0  0  0  0  0  0  0  0  0  0  0  0
    0.9629    2.8070   -0.2729 H   0  0  0  0  0  0  0  0  0  0  0  0
   -0.3078   -0.5806   -1.9326 H   0  0  0  0  0  0  0  0  0  0  0  0
    1.2758   -0.6305   -1.1413 H   0  0  0  0  0  0  0  0  0  0  0  0
  1  2  1  0
  2  3  1  0
  3  4  1  0
  4  5  1  0
  5  6  2  0
  6  7  1  0
  7  8  1  0
  8  9  1  0
  4  2  1  0
  9  5  1  0
  1 10  1  0
  2 11  1  0
  3 12  1  0
  3 13  1  0
  4 14  1  0
  6 15  1  0
  7 16  1  0
  7 17  1  0
  9 18  1  0
  9 19  1  0
M  END
$$$$
