gdb 1494	2.5259526	1.6219479	1.3315214	1.7362	76.49	-0.25097	0.01181	0.26278	1044.387	0.156279	-422.560317	-422.551699	-422.550754	-422.593152	33.087
 OpenBabel02181911403D

 19 20  0  0  1  0  0  0  0  0999 V2000
    0.1577    0.6683   -0.1039 C   0  0  0  0  0  0  0  0  0  0  0  0
    1.5962    0.1356   -0.0608 C   0  0  2  0  0  0  0  0  0  0  0  0
    1.6560   -1.0612    0.7364 O   0  0  0  0  0  0  0  0  0  0  0  0
    2.5369    1.1808    0.4910 C   0  0  0  0  0  0  0  0  0  0  0  0
    3.6976    1.5357   -0.0524 C   0  0  0  0  0  0  0  0  0  0  0  0
    4.2588    0.9542   -1.3194 C   0  0  0  0  0  0  0  0  0  0  0  0
    3.2883    0.0582   -2.0506 C   0  0  2  0  0  0  0  0  0  0  0  0
    2.0522    0.6571   -2.4653 O   0  0  0  0  0  0  0  0  0  0  0  0
    2.0130   -0.3380   -1.4435 C   0  0  2  0  0  0  0  0  0  0  0  0
   -0.1582    1.0018    0.8915 H   0  0  0  0  0  0  0  0  0  0  0  0
    0.0841    1.5155   -0.7910 H   0  0  0  0  0  0  0  0  0  0  0  0
   -0.5254   -0.1196   -0.4348 H   0  0  0  0  0  0  0  0  0  0  0  0
    1.4741   -0.8140    1.6491 H   0  0  0  0  0  0  0  0  0  0  0  0
    2.2087    1.6585    1.4135 H   0  0  0  0  0  0  0  0  0  0  0  0
    4.3053    2.2937    0.4363 H   0  0  0  0  0  0  0  0  0  0  0  0
    4.5878    1.7594   -1.9908 H   0  0  0  0  0  0  0  0  0  0  0  0
    5.1655    0.3762   -1.0889 H   0  0  0  0  0  0  0  0  0  0  0  0
    3.7283   -0.5993   -2.8006 H   0  0  0  0  0  0  0  0  0  0  0  0
    1.5529   -1.2831   -1.7324 H   0  0  0  0  0  0  0  0  0  0  0  0
  1  2  1  0  0  0  0
  1 10  1  0  0  0  0
  2  4  1  0  0  0  0
  2  3  1  1  0  0  0
  3 13  1  0  0  0  0
  4 14  1  0  0  0  0
  5 15  1  0  0  0  0
  5  4  2  0  0  0  0
  6 17  1  0  0  0  0
  6  5  1  0  0  0  0
  7 18  1  6  0  0  0
  7  9  1  0  0  0  0
  7  6  1  0  0  0  0
  8  7  1  0  0  0  0
  8  9  1  0  0  0  0
  9 19  1  6  0  0  0
  9  2  1  0  0  0  0
 11  1  1  0  0  0  0
 12  1  1  0  0  0  0
 16  6  1  0  0  0  0
M TOR 0 0 1 2 12
M TOR 1 0 1 3 4
M TOR 2 0 1 3 13
M TOR 3 0 1 8 6
M TOR 4 0 1 8 7
M TOR 5 0 1 8 18
M TOR 6 1 3 4 5
M TOR 7 1 3 4 14
M TOR 8 1 8 6 5
M TOR 9 1 8 6 7
M TOR 10 1 8 6 17
M TOR 11 2 1 0 9
M TOR 12 2 1 0 10
M TOR 13 2 1 0 11
M TOR 14 2 1 3 4
M TOR 15 2 1 3 13
M TOR 16 2 1 8 6
M TOR 17 2 1 8 7
M TOR 18 2 1 8 18
M TOR 19 3 1 0 9
M TOR 20 3 1 0 10
M TOR 21 3 1 0 11
M TOR 22 3 1 2 12
M TOR 23 3 1 8 6
M TOR 24 3 1 8 7
M TOR 25 3 1 8 18
M TOR 26 3 4 5 6
M TOR 27 3 4 5 15
M TOR 28 3 4 5 16
M TOR 29 4 3 1 8
M TOR 30 4 5 6 7
M TOR 31 4 5 6 8
M TOR 32 4 5 6 17
M TOR 33 5 4 3 13
M TOR 34 5 6 7 8
M TOR 35 5 6 8 18
M TOR 36 6 5 4 14
M TOR 37 6 7 8 18
M TOR 38 7 6 5 15
M TOR 39 7 6 5 16
M TOR 40 7 8 6 17
M TOR 41 8 1 0 9
M TOR 42 8 1 0 10
M TOR 43 8 1 0 11
M TOR 44 8 1 2 12
M TOR 45 8 1 3 13
M TOR 46 8 6 5 15
M TOR 47 8 6 5 16
M  END
$$$$
