
     RDKit          3D

 19 21  0  0  0  0  0  0  0  0999 V2000
    0.0791   -0.4553    0.6619 C   0  0  0  0  0  0  0  0  0  0  0  0
    1.0604   -0.0080   -0.4078 C   0  0  0  0  0  0  0  0  0  0  0  0
    1.3549    1.3631   -0.2022 O   0  0  0  0  0  0  0  0  0  0  0  0
    2.2241    1.9048   -1.1585 C   0  0  0  0  0  0  0  0  0  0  0  0
    2.6912    3.3262   -0.8312 C   0  0  0  0  0  0  0  0  0  0  0  0
    3.7822    2.8065    0.1615 C   0  0  0  0  0  0  0  0  0  0  0  0
    4.8699    3.5614   -0.4503 O   0  0  0  0  0  0  0  0  0  0  0  0
    4.0491    3.1109   -1.5685 C   0  0  0  0  0  0  0  0  0  0  0  0
    3.7458    1.7097   -0.9533 C   0  0  0  0  0  0  0  0  0  0  0  0
   -0.1736   -1.5116    0.5303 H   0  0  0  0  0  0  0  0  0  0  0  0
    0.5107   -0.3230    1.6581 H   0  0  0  0  0  0  0  0  0  0  0  0
   -0.8414    0.1328    0.6073 H   0  0  0  0  0  0  0  0  0  0  0  0
    1.9830   -0.6087   -0.3617 H   0  0  0  0  0  0  0  0  0  0  0  0
    0.6307   -0.1528   -1.4131 H   0  0  0  0  0  0  0  0  0  0  0  0
    1.8497    1.7296   -2.1783 H   0  0  0  0  0  0  0  0  0  0  0  0
    2.1197    4.2500   -0.7563 H   0  0  0  0  0  0  0  0  0  0  0  0
    3.7535    2.7089    1.2443 H   0  0  0  0  0  0  0  0  0  0  0  0
    4.3445    3.3811   -2.5811 H   0  0  0  0  0  0  0  0  0  0  0  0
    4.3728    0.8214   -1.0191 H   0  0  0  0  0  0  0  0  0  0  0  0
  1  2  1  0
  2  3  1  0
  3  4  1  0
  4  5  1  0
  5  6  1  0
  6  7  1  0
  7  8  1  0
  8  9  1  0
  9  4  1  0
  8  5  1  0
  9  6  1  0
  1 10  1  0
  1 11  1  0
  1 12  1  0
  2 13  1  0
  2 14  1  0
  4 15  1  0
  5 16  1  0
  6 17  1  0
  8 18  1  0
  9 19  1  0
M  END
$$$$
