
     RDKit          3D

 19 18  0  0  0  0  0  0  0  0999 V2000
    0.8633    2.9870    2.9746 C   0  0  0  0  0  0  0  0  0  0  0  0
   -0.0962    1.7691    2.9845 C   0  0  0  0  0  0  0  0  0  0  0  0
    0.5732    0.5590    3.4454 C   0  0  0  0  0  0  0  0  0  0  0  0
    1.1358   -0.4300    3.8342 C   0  0  0  0  0  0  0  0  0  0  0  0
   -0.7361    1.6493    1.5801 C   0  0  0  0  0  0  0  0  0  0  0  0
   -1.6770    2.3559    1.3025 O   0  0  0  0  0  0  0  0  0  0  0  0
   -0.1204    0.6871    0.5857 C   0  0  0  0  0  0  0  0  0  0  0  0
   -0.7074    0.8145   -0.8205 C   0  0  0  0  0  0  0  0  0  0  0  0
   -0.0595   -0.0411   -1.7485 O   0  0  0  0  0  0  0  0  0  0  0  0
    1.2722    3.1500    3.9742 H   0  0  0  0  0  0  0  0  0  0  0  0
    1.6992    2.8214    2.2889 H   0  0  0  0  0  0  0  0  0  0  0  0
    0.3175    3.8800    2.6611 H   0  0  0  0  0  0  0  0  0  0  0  0
   -0.9290    2.0039    3.6572 H   0  0  0  0  0  0  0  0  0  0  0  0
    1.6258   -1.3066    4.1798 H   0  0  0  0  0  0  0  0  0  0  0  0
    0.9670    0.8348    0.5622 H   0  0  0  0  0  0  0  0  0  0  0  0
   -0.2558   -0.3301    0.9793 H   0  0  0  0  0  0  0  0  0  0  0  0
   -1.7917    0.6433   -0.7907 H   0  0  0  0  0  0  0  0  0  0  0  0
   -0.5601    1.8322   -1.1924 H   0  0  0  0  0  0  0  0  0  0  0  0
   -0.2756   -0.9497   -1.5165 H   0  0  0  0  0  0  0  0  0  0  0  0
  1  2  1  0
  2  3  1  0
  3  4  3  0
  2  5  1  0
  5  6  2  0
  5  7  1  0
  7  8  1  0
  8  9  1  0
  1 10  1  0
  1 11  1  0
  1 12  1  0
  2 13  1  0
  4 14  1  0
  7 15  1  0
  7 16  1  0
  8 17  1  0
  8 18  1  0
  9 19  1  0
M  END
$$$$
