
     RDKit          3D

 19 19  0  0  0  0  0  0  0  0999 V2000
   -2.4452   -2.6655   -1.4602 C   0  0  0  0  0  0  0  0  0  0  0  0
   -1.4111   -1.5377   -1.4716 C   0  0  0  0  0  0  0  0  0  0  0  0
   -0.8592   -1.2555   -0.0610 C   0  0  0  0  0  0  0  0  0  0  0  0
    0.0101   -0.0068    0.0397 C   0  0  0  0  0  0  0  0  0  0  0  0
    1.2050   -0.0772    0.2457 O   0  0  0  0  0  0  0  0  0  0  0  0
   -0.6780    1.3075   -0.0275 C   0  0  0  0  0  0  0  0  0  0  0  0
   -1.8751    1.5269   -0.5807 C   0  0  0  0  0  0  0  0  0  0  0  0
   -2.6996    0.5192   -1.3470 C   0  0  0  0  0  0  0  0  0  0  0  0
   -1.9256   -0.3766   -2.1194 O   0  0  0  0  0  0  0  0  0  0  0  0
   -3.3118   -2.4043   -0.8433 H   0  0  0  0  0  0  0  0  0  0  0  0
   -2.7942   -2.8624   -2.4772 H   0  0  0  0  0  0  0  0  0  0  0  0
   -2.0119   -3.5856   -1.0555 H   0  0  0  0  0  0  0  0  0  0  0  0
   -0.5701   -1.8340   -2.1088 H   0  0  0  0  0  0  0  0  0  0  0  0
   -1.6966   -1.1531    0.6414 H   0  0  0  0  0  0  0  0  0  0  0  0
   -0.2543   -2.1068    0.2602 H   0  0  0  0  0  0  0  0  0  0  0  0
   -0.1134    2.1271    0.4076 H   0  0  0  0  0  0  0  0  0  0  0  0
   -2.2927    2.5311   -0.5411 H   0  0  0  0  0  0  0  0  0  0  0  0
   -3.3906   -0.0088   -0.6690 H   0  0  0  0  0  0  0  0  0  0  0  0
   -3.3305    1.0574   -2.0626 H   0  0  0  0  0  0  0  0  0  0  0  0
  1  2  1  0
  2  3  1  0
  3  4  1  0
  4  5  2  0
  4  6  1  0
  6  7  2  0
  7  8  1  0
  8  9  1  0
  9  2  1  0
  1 10  1  0
  1 11  1  0
  1 12  1  0
  2 13  1  0
  3 14  1  0
  3 15  1  0
  6 16  1  0
  7 17  1  0
  8 18  1  0
  8 19  1  0
M  END
$$$$
