
     RDKit          3D

 19 19  0  0  0  0  0  0  0  0999 V2000
    2.9661   -2.4100   -0.1847 O   0  0  0  0  0  0  0  0  0  0  0  0
    2.2001   -2.0919    0.9426 C   0  0  0  0  0  0  0  0  0  0  0  0
    1.1253   -1.0785    0.6535 C   0  0  0  0  0  0  0  0  0  0  0  0
    0.2952   -1.6380   -0.3552 O   0  0  0  0  0  0  0  0  0  0  0  0
   -0.6522   -0.7187   -0.8640 C   0  0  0  0  0  0  0  0  0  0  0  0
   -1.4298   -1.3427   -1.9261 C   0  0  0  0  0  0  0  0  0  0  0  0
   -2.0820   -1.8344   -2.8060 C   0  0  0  0  0  0  0  0  0  0  0  0
    1.9597   -3.1726    1.9693 C   0  0  0  0  0  0  0  0  0  0  0  0
    2.9464   -2.0508    2.2366 C   0  0  0  0  0  0  0  0  0  0  0  0
    2.3344   -2.6708   -0.8667 H   0  0  0  0  0  0  0  0  0  0  0  0
    0.5418   -0.8475    1.5585 H   0  0  0  0  0  0  0  0  0  0  0  0
    1.5795   -0.1426    0.2887 H   0  0  0  0  0  0  0  0  0  0  0  0
   -1.3268   -0.3779   -0.0604 H   0  0  0  0  0  0  0  0  0  0  0  0
   -0.1454    0.1809   -1.2528 H   0  0  0  0  0  0  0  0  0  0  0  0
   -2.6573   -2.2740   -3.5831 H   0  0  0  0  0  0  0  0  0  0  0  0
    1.0218   -3.1811    2.5142 H   0  0  0  0  0  0  0  0  0  0  0  0
    2.3704   -4.1497    1.7442 H   0  0  0  0  0  0  0  0  0  0  0  0
    2.6887   -1.2909    2.9667 H   0  0  0  0  0  0  0  0  0  0  0  0
    4.0019   -2.2904    2.1822 H   0  0  0  0  0  0  0  0  0  0  0  0
  1  2  1  0
  2  3  1  0
  3  4  1  0
  4  5  1  0
  5  6  1  0
  6  7  3  0
  2  8  1  0
  8  9  1  0
  9  2  1  0
  1 10  1  0
  3 11  1  0
  3 12  1  0
  5 13  1  0
  5 14  1  0
  7 15  1  0
  8 16  1  0
  8 17  1  0
  9 18  1  0
  9 19  1  0
M  END
$$$$
