gdb 3656	2.4205068	1.1696521	0.8952246	3.6863	77.64	-0.24471	-0.02958	0.21513000000000002	1332.4572	0.153725	-422.567164	-422.557178	-422.556234	-422.603273	34.822
 OpenBabel02181911413D

 19 19  0  0  1  0  0  0  0  0999 V2000
   -2.3661    4.2577    1.2357 C   0  0  0  0  0  0  0  0  0  0  0  0
   -1.2034    3.2882    1.2849 C   0  0  2  0  0  0  0  0  0  0  0  0
   -0.1932    3.2045    0.1938 C   0  0  0  0  0  0  0  0  0  0  0  0
   -1.1187    2.0067    0.4369 C   0  0  1  0  0  0  0  0  0  0  0  0
   -0.5345    0.7520    1.0815 C   0  0  0  0  0  0  0  0  0  0  0  0
    0.4190    0.0437    0.1371 C   0  0  0  0  0  0  0  0  0  0  0  0
    1.6117   -0.0071    0.3056 O   0  0  0  0  0  0  0  0  0  0  0  0
   -2.1616    1.7602   -0.5863 C   0  0  0  0  0  0  0  0  0  0  0  0
   -2.5644    0.6614   -0.8916 O   0  0  0  0  0  0  0  0  0  0  0  0
   -3.2381    3.8683    1.7710 H   0  0  0  0  0  0  0  0  0  0  0  0
   -2.0772    5.2013    1.7108 H   0  0  0  0  0  0  0  0  0  0  0  0
   -2.6741    4.4917    0.2137 H   0  0  0  0  0  0  0  0  0  0  0  0
   -0.8171    3.1273    2.2880 H   0  0  0  0  0  0  0  0  0  0  0  0
   -0.3673    3.7892   -0.7047 H   0  0  0  0  0  0  0  0  0  0  0  0
    0.8531    3.0525    0.4354 H   0  0  0  0  0  0  0  0  0  0  0  0
    0.0195    1.0063    1.9887 H   0  0  0  0  0  0  0  0  0  0  0  0
   -1.3559    0.0712    1.3328 H   0  0  0  0  0  0  0  0  0  0  0  0
   -0.0602   -0.4141   -0.7534 H   0  0  0  0  0  0  0  0  0  0  0  0
   -2.5615    2.6686   -1.0857 H   0  0  0  0  0  0  0  0  0  0  0  0
  1  2  1  0  0  0  0
  1 11  1  0  0  0  0
  1 10  1  0  0  0  0
  2 13  1  1  0  0  0
  3 15  1  0  0  0  0
  3  4  1  0  0  0  0
  3  2  1  0  0  0  0
  4  8  1  6  0  0  0
  4  5  1  0  0  0  0
  4  2  1  0  0  0  0
  5 17  1  0  0  0  0
  5 16  1  0  0  0  0
  6  7  2  0  0  0  0
  6  5  1  0  0  0  0
  9  8  2  0  0  0  0
 12  1  1  0  0  0  0
 14  3  1  0  0  0  0
 18  6  1  0  0  0  0
 19  8  1  0  0  0  0
M TOR 0 0 1 2 3
M TOR 1 0 1 2 13
M TOR 2 0 1 2 14
M TOR 3 0 1 3 4
M TOR 4 0 1 3 7
M TOR 5 1 2 3 4
M TOR 6 1 2 3 7
M TOR 7 1 3 2 13
M TOR 8 1 3 2 14
M TOR 9 1 3 4 5
M TOR 10 1 3 4 15
M TOR 11 1 3 4 16
M TOR 12 1 3 7 8
M TOR 13 1 3 7 18
M TOR 14 2 1 0 9
M TOR 15 2 1 0 10
M TOR 16 2 1 0 11
M TOR 17 2 3 1 12
M TOR 18 2 3 4 5
M TOR 19 2 3 4 15
M TOR 20 2 3 4 16
M TOR 21 2 3 7 8
M TOR 22 2 3 7 18
M TOR 23 3 1 0 9
M TOR 24 3 1 0 10
M TOR 25 3 1 0 11
M TOR 26 3 4 5 6
M TOR 27 3 4 5 17
M TOR 28 4 3 1 12
M TOR 29 4 3 2 13
M TOR 30 4 3 2 14
M TOR 31 4 3 7 8
M TOR 32 4 3 7 18
M TOR 33 5 4 3 7
M TOR 34 6 5 4 15
M TOR 35 6 5 4 16
M TOR 36 7 3 1 12
M TOR 37 7 3 2 13
M TOR 38 7 3 2 14
M TOR 39 7 3 4 15
M TOR 40 7 3 4 16
M  END
$$$$
