
     RDKit          3D

 19 20  0  0  0  0  0  0  0  0999 V2000
    0.9119    2.9381   -0.5853 C   0  0  0  0  0  0  0  0  0  0  0  0
   -0.4989    2.5659   -0.2125 C   0  0  0  0  0  0  0  0  0  0  0  0
   -1.3244    1.9839   -1.2184 O   0  0  0  0  0  0  0  0  0  0  0  0
   -1.0012    1.1811   -0.0726 C   0  0  0  0  0  0  0  0  0  0  0  0
   -2.1193    0.7703    0.8749 C   0  0  0  0  0  0  0  0  0  0  0  0
   -2.2069   -0.7670    0.7309 C   0  0  0  0  0  0  0  0  0  0  0  0
   -0.7525   -1.2024    0.4778 C   0  0  0  0  0  0  0  0  0  0  0  0
   -0.1550   -0.0596   -0.3419 C   0  0  0  0  0  0  0  0  0  0  0  0
    0.7853   -0.1320   -1.0918 O   0  0  0  0  0  0  0  0  0  0  0  0
    1.5019    3.1281    0.3179 H   0  0  0  0  0  0  0  0  0  0  0  0
    1.3820    2.1409   -1.1604 H   0  0  0  0  0  0  0  0  0  0  0  0
    0.9066    3.8581   -1.1794 H   0  0  0  0  0  0  0  0  0  0  0  0
   -1.0268    3.3030    0.3994 H   0  0  0  0  0  0  0  0  0  0  0  0
   -1.8483    1.0348    1.9045 H   0  0  0  0  0  0  0  0  0  0  0  0
   -3.0516    1.2847    0.6322 H   0  0  0  0  0  0  0  0  0  0  0  0
   -2.6525   -1.2480    1.6042 H   0  0  0  0  0  0  0  0  0  0  0  0
   -2.8242   -1.0242   -0.1368 H   0  0  0  0  0  0  0  0  0  0  0  0
   -0.1948   -1.2620    1.4233 H   0  0  0  0  0  0  0  0  0  0  0  0
   -0.6294   -2.1584   -0.0345 H   0  0  0  0  0  0  0  0  0  0  0  0
  1  2  1  0
  2  3  1  0
  3  4  1  0
  4  5  1  0
  5  6  1  0
  6  7  1  0
  7  8  1  0
  8  9  2  0
  4  2  1  0
  8  4  1  0
  1 10  1  0
  1 11  1  0
  1 12  1  0
  2 13  1  0
  5 14  1  0
  5 15  1  0
  6 16  1  0
  6 17  1  0
  7 18  1  0
  7 19  1  0
M  END
$$$$
