gdb 2691	3.1212	1.1514517	1.0139353	1.2896	77.95	-0.2488	0.04249	0.29129	1232.8523	0.153837	-422.522996	-422.513125	-422.512181	-422.557292	37.003
 OpenBabel02181911413D

 19 19  0  0  1  0  0  0  0  0999 V2000
   -3.4717    0.7703   -1.0782 C   0  0  0  0  0  0  0  0  0  0  0  0
   -2.9108    1.1253    0.2872 C   0  0  1  0  0  0  0  0  0  0  0  0
   -3.9634    1.6153    1.0778 O   0  0  0  0  0  0  0  0  0  0  0  0
   -2.0117    0.0179    0.9226 C   0  0  0  0  0  0  0  0  0  0  0  0
   -0.7475    0.8126    0.4607 C   0  0  2  0  0  0  0  0  0  0  0  0
    0.3855    0.9114    1.3544 C   0  0  0  0  0  0  0  0  0  0  0  0
    1.3274    0.9737    2.0988 C   0  0  0  0  0  0  0  0  0  0  0  0
   -1.6511    2.0670    0.2437 C   0  0  2  0  0  0  0  0  0  0  0  0
   -1.6056    2.9146    1.3759 O   0  0  0  0  0  0  0  0  0  0  0  0
   -4.2363   -0.0065   -0.9817 H   0  0  0  0  0  0  0  0  0  0  0  0
   -3.9327    1.6494   -1.5391 H   0  0  0  0  0  0  0  0  0  0  0  0
   -2.6876    0.3982   -1.7449 H   0  0  0  0  0  0  0  0  0  0  0  0
   -3.5416    2.0319    1.8416 H   0  0  0  0  0  0  0  0  0  0  0  0
   -2.1025    0.0125    2.0106 H   0  0  0  0  0  0  0  0  0  0  0  0
   -2.1195   -1.0020    0.5473 H   0  0  0  0  0  0  0  0  0  0  0  0
   -0.4129    0.4524   -0.5179 H   0  0  0  0  0  0  0  0  0  0  0  0
    2.1563    1.0379    2.7589 H   0  0  0  0  0  0  0  0  0  0  0  0
   -1.4786    2.6297   -0.6820 H   0  0  0  0  0  0  0  0  0  0  0  0
   -2.0918    3.7164    1.1587 H   0  0  0  0  0  0  0  0  0  0  0  0
  1 10  1  0  0  0  0
  1  2  1  0  0  0  0
  2  4  1  0  0  0  0
  2  3  1  1  0  0  0
  3 13  1  0  0  0  0
  4 14  1  0  0  0  0
  5 16  1  6  0  0  0
  5  4  1  0  0  0  0
  5  6  1  0  0  0  0
  6  7  3  0  0  0  0
  7 17  1  0  0  0  0
  8 18  1  6  0  0  0
  8  2  1  0  0  0  0
  8  5  1  0  0  0  0
  8  9  1  0  0  0  0
 11  1  1  0  0  0  0
 12  1  1  0  0  0  0
 15  4  1  0  0  0  0
 19  9  1  0  0  0  0
M TOR 0 0 1 2 12
M TOR 1 0 1 3 4
M TOR 2 0 1 3 13
M TOR 3 0 1 3 14
M TOR 4 0 1 7 4
M TOR 5 0 1 7 8
M TOR 6 0 1 7 17
M TOR 7 1 3 4 5
M TOR 8 1 3 4 7
M TOR 9 1 3 4 15
M TOR 10 1 7 4 5
M TOR 11 1 7 4 15
M TOR 12 1 7 8 18
M TOR 13 2 1 0 9
M TOR 14 2 1 0 10
M TOR 15 2 1 0 11
M TOR 16 2 1 3 4
M TOR 17 2 1 3 13
M TOR 18 2 1 3 14
M TOR 19 2 1 7 4
M TOR 20 2 1 7 8
M TOR 21 2 1 7 17
M TOR 22 3 1 0 9
M TOR 23 3 1 0 10
M TOR 24 3 1 0 11
M TOR 25 3 1 2 12
M TOR 26 3 1 7 8
M TOR 27 3 1 7 17
M TOR 28 3 4 5 6
M TOR 29 3 4 7 8
M TOR 30 3 4 7 17
M TOR 31 4 5 6 16
M TOR 32 4 7 8 18
M TOR 33 5 4 3 13
M TOR 34 5 4 3 14
M TOR 35 5 4 7 8
M TOR 36 5 4 7 17
M TOR 37 6 5 4 7
M TOR 38 6 5 4 15
M TOR 39 7 1 0 9
M TOR 40 7 1 0 10
M TOR 41 7 1 0 11
M TOR 42 7 1 2 12
M TOR 43 7 1 3 13
M TOR 44 7 1 3 14
M TOR 45 7 4 3 13
M TOR 46 7 4 3 14
M TOR 47 8 7 4 15
M  END
$$$$
