gdb 3444	2.7828605	1.3343273	0.9497941	4.3609	79.1	-0.25318	0.00799	0.26117	1254.5395	0.156235	-422.604491	-422.595178	-422.594234	-422.640229	33.245
 OpenBabel02181911413D

 19 19  0  0  1  0  0  0  0  0999 V2000
   -3.2826    0.7468   -1.3914 C   0  0  0  0  0  0  0  0  0  0  0  0
   -2.5280    0.5563   -0.0597 C   0  0  2  0  0  0  0  0  0  0  0  0
   -1.0952    0.9910   -0.1503 C   0  0  0  0  0  0  0  0  0  0  0  0
   -0.0727    0.2472    0.2582 C   0  0  0  0  0  0  0  0  0  0  0  0
    1.3667    0.6727    0.1771 C   0  0  0  0  0  0  0  0  0  0  0  0
   -0.3054   -1.1053    0.8597 C   0  0  0  0  0  0  0  0  0  0  0  0
   -1.6506   -1.5876    0.8543 O   0  0  0  0  0  0  0  0  0  0  0  0
   -2.7207   -0.8755    0.4356 C   0  0  0  0  0  0  0  0  0  0  0  0
   -3.8034   -1.3965    0.4723 O   0  0  0  0  0  0  0  0  0  0  0  0
   -2.8185    0.1587   -2.1892 H   0  0  0  0  0  0  0  0  0  0  0  0
   -4.3199    0.4276   -1.2822 H   0  0  0  0  0  0  0  0  0  0  0  0
   -3.2610    1.7994   -1.6892 H   0  0  0  0  0  0  0  0  0  0  0  0
   -3.0429    1.1784    0.6887 H   0  0  0  0  0  0  0  0  0  0  0  0
   -0.9149    1.9746   -0.5794 H   0  0  0  0  0  0  0  0  0  0  0  0
    1.8393    0.6752    1.1676 H   0  0  0  0  0  0  0  0  0  0  0  0
    1.9516   -0.0139   -0.4479 H   0  0  0  0  0  0  0  0  0  0  0  0
    1.4574    1.6768   -0.2437 H   0  0  0  0  0  0  0  0  0  0  0  0
    0.2926   -1.8621    0.3336 H   0  0  0  0  0  0  0  0  0  0  0  0
    0.0339   -1.1165    1.9057 H   0  0  0  0  0  0  0  0  0  0  0  0
  1 11  1  0  0  0  0
  1  2  1  0  0  0  0
  2  8  1  0  0  0  0
  2 13  1  1  0  0  0
  3  2  1  0  0  0  0
  3  4  2  0  0  0  0
  4  6  1  0  0  0  0
  5  4  1  0  0  0  0
  5 15  1  0  0  0  0
  6 19  1  0  0  0  0
  7  6  1  0  0  0  0
  8  9  2  0  0  0  0
  8  7  1  0  0  0  0
 10  1  1  0  0  0  0
 12  1  1  0  0  0  0
 14  3  1  0  0  0  0
 16  5  1  0  0  0  0
 17  5  1  0  0  0  0
 18  6  1  0  0  0  0
M TOR 0 0 1 2 3
M TOR 1 0 1 2 13
M TOR 2 0 1 7 6
M TOR 3 0 1 7 8
M TOR 4 1 2 3 4
M TOR 5 1 2 3 5
M TOR 6 1 7 6 5
M TOR 7 2 1 0 9
M TOR 8 2 1 0 10
M TOR 9 2 1 0 11
M TOR 10 2 1 7 6
M TOR 11 2 1 7 8
M TOR 12 2 3 4 14
M TOR 13 2 3 4 15
M TOR 14 2 3 4 16
M TOR 15 2 3 5 6
M TOR 16 2 3 5 17
M TOR 17 2 3 5 18
M TOR 18 3 2 1 7
M TOR 19 3 2 1 12
M TOR 20 3 5 6 7
M TOR 21 4 3 2 13
M TOR 22 4 3 5 6
M TOR 23 4 3 5 17
M TOR 24 4 3 5 18
M TOR 25 5 3 2 13
M TOR 26 5 3 4 14
M TOR 27 5 3 4 15
M TOR 28 5 3 4 16
M TOR 29 5 6 7 8
M TOR 30 6 7 1 12
M TOR 31 7 1 0 9
M TOR 32 7 1 0 10
M TOR 33 7 1 0 11
M TOR 34 7 1 2 13
M TOR 35 7 6 5 17
M TOR 36 7 6 5 18
M TOR 37 8 7 1 12
M  END
$$$$
