
     RDKit          3D

 19 21  0  0  0  0  0  0  0  0999 V2000
    0.0747    0.4093   -0.0206 C   0  0  0  0  0  0  0  0  0  0  0  0
    0.9929   -0.7823   -0.0822 C   0  0  0  0  0  0  0  0  0  0  0  0
    2.1329   -0.7783    0.7939 O   0  0  0  0  0  0  0  0  0  0  0  0
    2.3646   -0.7578   -0.6144 C   0  0  0  0  0  0  0  0  0  0  0  0
    3.0289    0.4829   -1.2267 C   0  0  0  0  0  0  0  0  0  0  0  0
    3.6294   -0.0300   -2.5179 C   0  0  0  0  0  0  0  0  0  0  0  0
    2.6932   -0.7556   -3.3281 O   0  0  0  0  0  0  0  0  0  0  0  0
    3.6189   -1.5000   -2.5224 C   0  0  0  0  0  0  0  0  0  0  0  0
    3.0182   -2.0040   -1.2297 C   0  0  0  0  0  0  0  0  0  0  0  0
   -0.5828    0.3356    0.8519 H   0  0  0  0  0  0  0  0  0  0  0  0
    0.6359    1.3427    0.0593 H   0  0  0  0  0  0  0  0  0  0  0  0
   -0.5565    0.4522   -0.9149 H   0  0  0  0  0  0  0  0  0  0  0  0
    0.4806   -1.7466   -0.1182 H   0  0  0  0  0  0  0  0  0  0  0  0
    2.3279    1.3052   -1.3917 H   0  0  0  0  0  0  0  0  0  0  0  0
    3.8204    0.8479   -0.5609 H   0  0  0  0  0  0  0  0  0  0  0  0
    4.3628    0.5579   -3.0634 H   0  0  0  0  0  0  0  0  0  0  0  0
    4.3447   -2.0935   -3.0719 H   0  0  0  0  0  0  0  0  0  0  0  0
    2.3057   -2.8205   -1.3783 H   0  0  0  0  0  0  0  0  0  0  0  0
    3.8119   -2.3688   -0.5659 H   0  0  0  0  0  0  0  0  0  0  0  0
  1  2  1  0
  2  3  1  0
  3  4  1  0
  4  5  1  0
  5  6  1  0
  6  7  1  0
  7  8  1  0
  8  9  1  0
  4  2  1  0
  9  4  1  0
  8  6  1  0
  1 10  1  0
  1 11  1  0
  1 12  1  0
  2 13  1  0
  5 14  1  0
  5 15  1  0
  6 16  1  0
  8 17  1  0
  9 18  1  0
  9 19  1  0
M  END
$$$$
