gdb 3818	2.9866488	1.5888639	1.2604514	1.2795	74.36	-0.25073	0.07216	0.32289	1025.3679	0.157944	-422.532538	-422.524799	-422.523854	-422.564268	31.235
 OpenBabel02181911413D

 19 21  0  0  1  0  0  0  0  0999 V2000
    0.5342    0.4202    0.6294 O   0  0  0  0  0  0  0  0  0  0  0  0
   -0.7744    0.9158    0.3935 C   0  0  1  0  0  0  0  0  0  0  0  0
   -1.8828   -0.1683    0.2829 C   0  0  0  0  0  0  0  0  0  0  0  0
   -2.8030    0.2852    1.4169 C   0  0  1  0  0  0  0  0  0  0  0  0
   -3.9974   -0.4052    1.6199 O   0  0  0  0  0  0  0  0  0  0  0  0
   -1.9246    0.7715    2.6333 C   0  0  2  0  0  0  0  0  0  0  0  0
   -3.0108    1.8240    2.9607 C   0  0  0  0  0  0  0  0  0  0  0  0
   -2.8911    1.8406    1.4153 C   0  0  1  0  0  0  0  0  0  0  0  0
   -1.3392    1.7399    1.5521 C   0  0  2  0  0  0  0  0  0  0  0  0
    0.5433    0.0201    1.5058 H   0  0  0  0  0  0  0  0  0  0  0  0
   -0.6889    1.5047   -0.5243 H   0  0  0  0  0  0  0  0  0  0  0  0
   -2.3978   -0.1698   -0.6826 H   0  0  0  0  0  0  0  0  0  0  0  0
   -1.4652   -1.1691    0.4443 H   0  0  0  0  0  0  0  0  0  0  0  0
   -3.7947   -1.3423    1.7088 H   0  0  0  0  0  0  0  0  0  0  0  0
   -1.3641    0.1471    3.3348 H   0  0  0  0  0  0  0  0  0  0  0  0
   -3.9482    1.4445    3.3695 H   0  0  0  0  0  0  0  0  0  0  0  0
   -2.6757    2.7228    3.4850 H   0  0  0  0  0  0  0  0  0  0  0  0
   -3.4434    2.4534    0.7004 H   0  0  0  0  0  0  0  0  0  0  0  0
   -0.7814    2.6173    1.8803 H   0  0  0  0  0  0  0  0  0  0  0  0
  1 10  1  0  0  0  0
  2 11  1  6  0  0  0
  2  1  1  0  0  0  0
  2  9  1  0  0  0  0
  3  2  1  0  0  0  0
  3 13  1  0  0  0  0
  3  4  1  0  0  0  0
  4  5  1  1  0  0  0
  4  6  1  0  0  0  0
  5 14  1  0  0  0  0
  6  7  1  0  0  0  0
  6 15  1  1  0  0  0
  7 16  1  0  0  0  0
  7 17  1  0  0  0  0
  8 18  1  6  0  0  0
  8  4  1  0  0  0  0
  8  9  1  0  0  0  0
  8  7  1  0  0  0  0
  9 19  1  1  0  0  0
  9  6  1  0  0  0  0
 12  3  1  0  0  0  0
M TOR 0 0 1 2 3
M TOR 1 0 1 2 11
M TOR 2 0 1 2 12
M TOR 3 0 1 8 5
M TOR 4 0 1 8 7
M TOR 5 0 1 8 18
M TOR 6 1 2 3 4
M TOR 7 1 2 3 5
M TOR 8 1 2 3 7
M TOR 9 1 8 5 3
M TOR 10 1 8 5 6
M TOR 11 1 8 5 14
M TOR 12 1 8 7 3
M TOR 13 1 8 7 6
M TOR 14 1 8 7 17
M TOR 15 2 1 0 9
M TOR 16 2 1 8 5
M TOR 17 2 1 8 7
M TOR 18 2 1 8 18
M TOR 19 2 3 4 13
M TOR 20 2 3 5 6
M TOR 21 2 3 5 8
M TOR 22 2 3 5 14
M TOR 23 2 3 7 6
M TOR 24 2 3 7 8
M TOR 25 2 3 7 17
M TOR 26 3 2 1 8
M TOR 27 3 2 1 10
M TOR 28 3 5 6 7
M TOR 29 3 5 6 15
M TOR 30 3 5 6 16
M TOR 31 3 5 8 7
M TOR 32 3 5 8 18
M TOR 33 3 7 6 15
M TOR 34 3 7 6 16
M TOR 35 3 7 8 18
M TOR 36 4 3 2 11
M TOR 37 4 3 2 12
M TOR 38 4 3 5 6
M TOR 39 4 3 5 8
M TOR 40 4 3 5 14
M TOR 41 4 3 7 6
M TOR 42 4 3 7 8
M TOR 43 4 3 7 17
M TOR 44 5 3 2 11
M TOR 45 5 3 2 12
M TOR 46 5 3 4 13
M TOR 47 5 3 7 17
M TOR 48 5 6 7 8
M TOR 49 5 6 7 17
M TOR 50 5 8 1 10
M TOR 51 5 8 7 17
M TOR 52 6 5 8 18
M TOR 53 6 7 8 18
M TOR 54 7 3 2 11
M TOR 55 7 3 2 12
M TOR 56 7 3 4 13
M TOR 57 7 3 5 14
M TOR 58 7 6 5 14
M TOR 59 7 8 1 10
M TOR 60 7 8 5 14
M TOR 61 8 1 0 9
M TOR 62 8 1 2 11
M TOR 63 8 1 2 12
M TOR 64 8 5 6 15
M TOR 65 8 5 6 16
M TOR 66 8 7 6 15
M TOR 67 8 7 6 16
M  END
$$$$
