
     RDKit          3D

 19 21  0  0  0  0  0  0  0  0999 V2000
    2.4556    2.1863   -0.9054 C   0  0  0  0  0  0  0  0  0  0  0  0
    1.1519    2.5509   -0.1844 C   0  0  0  0  0  0  0  0  0  0  0  0
    0.8385    2.2725    1.2014 O   0  0  0  0  0  0  0  0  0  0  0  0
    0.5367    1.2831    0.2210 C   0  0  0  0  0  0  0  0  0  0  0  0
    1.5985    0.1960    0.0637 C   0  0  0  0  0  0  0  0  0  0  0  0
    2.1560    0.7030   -1.2785 C   0  0  0  0  0  0  0  0  0  0  0  0
    0.9859    0.5008   -2.2892 C   0  0  0  0  0  0  0  0  0  0  0  0
   -0.2991    1.0346   -1.9322 O   0  0  0  0  0  0  0  0  0  0  0  0
   -0.7151    0.9575   -0.5520 C   0  0  0  0  0  0  0  0  0  0  0  0
    2.6010    2.8394   -1.7707 H   0  0  0  0  0  0  0  0  0  0  0  0
    3.3501    2.2547   -0.2774 H   0  0  0  0  0  0  0  0  0  0  0  0
    0.5414    3.3469   -0.6000 H   0  0  0  0  0  0  0  0  0  0  0  0
    2.3301    0.2420    0.8736 H   0  0  0  0  0  0  0  0  0  0  0  0
    1.1810   -0.8135    0.0135 H   0  0  0  0  0  0  0  0  0  0  0  0
    3.0279    0.1609   -1.6641 H   0  0  0  0  0  0  0  0  0  0  0  0
    1.2129    0.9659   -3.2543 H   0  0  0  0  0  0  0  0  0  0  0  0
    0.9000   -0.5851   -2.4564 H   0  0  0  0  0  0  0  0  0  0  0  0
   -1.5074    1.7009   -0.4329 H   0  0  0  0  0  0  0  0  0  0  0  0
   -1.1189   -0.0388   -0.3222 H   0  0  0  0  0  0  0  0  0  0  0  0
  1  2  1  0
  2  3  1  0
  3  4  1  0
  4  5  1  0
  5  6  1  0
  6  7  1  0
  7  8  1  0
  8  9  1  0
  6  1  1  0
  4  2  1  0
  9  4  1  0
  1 10  1  0
  1 11  1  0
  2 12  1  0
  5 13  1  0
  5 14  1  0
  6 15  1  0
  7 16  1  0
  7 17  1  0
  9 18  1  0
  9 19  1  0
M  END
$$$$
