
     RDKit          3D

 19 20  0  0  0  0  0  0  0  0999 V2000
    1.1512   -0.5210    0.2179 O   0  0  0  0  0  0  0  0  0  0  0  0
    0.0522   -0.0922   -0.0208 C   0  0  0  0  0  0  0  0  0  0  0  0
   -0.2798    0.8824   -1.1258 C   0  0  0  0  0  0  0  0  0  0  0  0
   -1.0006    2.1330   -0.5897 C   0  0  0  0  0  0  0  0  0  0  0  0
   -1.5399    2.9943   -1.6944 C   0  0  0  0  0  0  0  0  0  0  0  0
   -2.4666    4.2385   -1.6206 C   0  0  0  0  0  0  0  0  0  0  0  0
   -2.3536    3.7743   -3.0893 C   0  0  0  0  0  0  0  0  0  0  0  0
   -0.8258    3.6213   -2.9265 C   0  0  0  0  0  0  0  0  0  0  0  0
   -2.5195    2.3736   -2.6336 O   0  0  0  0  0  0  0  0  0  0  0  0
   -0.8283   -0.4030    0.5912 H   0  0  0  0  0  0  0  0  0  0  0  0
    0.6410    1.1410   -1.6554 H   0  0  0  0  0  0  0  0  0  0  0  0
   -0.9535    0.3782   -1.8321 H   0  0  0  0  0  0  0  0  0  0  0  0
   -1.8387    1.8357    0.0535 H   0  0  0  0  0  0  0  0  0  0  0  0
   -0.3202    2.7319    0.0272 H   0  0  0  0  0  0  0  0  0  0  0  0
   -3.4362    4.0635   -1.1523 H   0  0  0  0  0  0  0  0  0  0  0  0
   -2.0206    5.1972   -1.3438 H   0  0  0  0  0  0  0  0  0  0  0  0
   -2.9287    4.0858   -3.9603 H   0  0  0  0  0  0  0  0  0  0  0  0
   -0.3575    2.9098   -3.6076 H   0  0  0  0  0  0  0  0  0  0  0  0
   -0.2284    4.5232   -2.7699 H   0  0  0  0  0  0  0  0  0  0  0  0
  1  2  2  0
  2  3  1  0
  3  4  1  0
  4  5  1  0
  5  6  1  0
  6  7  1  0
  7  8  1  0
  7  9  1  0
  8  5  1  0
  9  5  1  0
  2 10  1  0
  3 11  1  0
  3 12  1  0
  4 13  1  0
  4 14  1  0
  6 15  1  0
  6 16  1  0
  7 17  1  0
  8 18  1  0
  8 19  1  0
M  END
$$$$
