
     RDKit          3D

 19 21  0  0  0  0  0  0  0  0999 V2000
   -0.1448   -0.0219   -0.0485 C   0  0  0  0  0  0  0  0  0  0  0  0
    1.3540   -0.0861   -0.0735 C   0  0  0  0  0  0  0  0  0  0  0  0
    2.1052   -1.2004    0.6897 C   0  0  0  0  0  0  0  0  0  0  0  0
    3.5420   -0.7956    0.2487 C   0  0  0  0  0  0  0  0  0  0  0  0
    3.8444   -1.5318   -1.0576 C   0  0  0  0  0  0  0  0  0  0  0  0
    2.7891   -1.1008   -1.9453 O   0  0  0  0  0  0  0  0  0  0  0  0
    2.2472    0.0608   -1.3681 C   0  0  0  0  0  0  0  0  0  0  0  0
    3.1757    0.6331   -0.2892 C   0  0  0  0  0  0  0  0  0  0  0  0
    2.0358    1.1019    0.4562 O   0  0  0  0  0  0  0  0  0  0  0  0
   -0.5149    0.0227    0.9814 H   0  0  0  0  0  0  0  0  0  0  0  0
   -0.5061    0.8617   -0.5822 H   0  0  0  0  0  0  0  0  0  0  0  0
   -0.5671   -0.9128   -0.5244 H   0  0  0  0  0  0  0  0  0  0  0  0
    1.9362   -1.0947    1.7636 H   0  0  0  0  0  0  0  0  0  0  0  0
    1.8339   -2.2117    0.3755 H   0  0  0  0  0  0  0  0  0  0  0  0
    4.3209   -0.8589    1.0075 H   0  0  0  0  0  0  0  0  0  0  0  0
    4.8211   -1.2580   -1.4838 H   0  0  0  0  0  0  0  0  0  0  0  0
    3.8012   -2.6211   -0.9620 H   0  0  0  0  0  0  0  0  0  0  0  0
    1.8518    0.7367   -2.1256 H   0  0  0  0  0  0  0  0  0  0  0  0
    3.9611    1.3709   -0.4459 H   0  0  0  0  0  0  0  0  0  0  0  0
  1  2  1  0
  2  3  1  0
  3  4  1  0
  4  5  1  0
  5  6  1  0
  6  7  1  0
  7  8  1  0
  8  9  1  0
  7  2  1  0
  9  2  1  0
  8  4  1  0
  1 10  1  0
  1 11  1  0
  1 12  1  0
  3 13  1  0
  3 14  1  0
  4 15  1  0
  5 16  1  0
  5 17  1  0
  7 18  1  0
  8 19  1  0
M  END
$$$$
