
     RDKit          3D

 19 21  0  0  0  0  0  0  0  0999 V2000
   -0.1042   -0.0176    0.0061 C   0  0  0  0  0  0  0  0  0  0  0  0
    1.3892    0.0835   -0.1078 C   0  0  0  0  0  0  0  0  0  0  0  0
    2.3402    0.6079    0.9970 C   0  0  0  0  0  0  0  0  0  0  0  0
    3.3428    0.6183   -0.1775 C   0  0  0  0  0  0  0  0  0  0  0  0
    2.1630    1.0024   -1.1261 C   0  0  0  0  0  0  0  0  0  0  0  0
    2.4705    0.3496   -2.4729 C   0  0  0  0  0  0  0  0  0  0  0  0
    3.4067   -0.6941   -2.1381 O   0  0  0  0  0  0  0  0  0  0  0  0
    3.3126   -0.8231   -0.7419 C   0  0  0  0  0  0  0  0  0  0  0  0
    1.9779   -1.2141   -0.3915 O   0  0  0  0  0  0  0  0  0  0  0  0
   -0.3781   -0.7282    0.7922 H   0  0  0  0  0  0  0  0  0  0  0  0
   -0.5392    0.9556    0.2512 H   0  0  0  0  0  0  0  0  0  0  0  0
   -0.5413   -0.3686   -0.9340 H   0  0  0  0  0  0  0  0  0  0  0  0
    2.0933    1.6158    1.3404 H   0  0  0  0  0  0  0  0  0  0  0  0
    2.5232   -0.0594    1.8426 H   0  0  0  0  0  0  0  0  0  0  0  0
    4.3024    1.1315   -0.1700 H   0  0  0  0  0  0  0  0  0  0  0  0
    1.8572    2.0476   -1.1381 H   0  0  0  0  0  0  0  0  0  0  0  0
    1.5802   -0.0834   -2.9458 H   0  0  0  0  0  0  0  0  0  0  0  0
    2.9455    1.0351   -3.1829 H   0  0  0  0  0  0  0  0  0  0  0  0
    4.0382   -1.5631   -0.4071 H   0  0  0  0  0  0  0  0  0  0  0  0
  1  2  1  0
  2  3  1  0
  3  4  1  0
  4  5  1  0
  5  6  1  0
  6  7  1  0
  7  8  1  0
  8  9  1  0
  5  2  1  0
  9  2  1  0
  8  4  1  0
  1 10  1  0
  1 11  1  0
  1 12  1  0
  3 13  1  0
  3 14  1  0
  4 15  1  0
  5 16  1  0
  6 17  1  0
  6 18  1  0
  8 19  1  0
M  END
$$$$
