gdb 1647	2.5838157	1.4560679	1.11297	0.9321	75.74	-0.24777	-0.0316	0.21616999999999997	1142.4074	0.155088	-422.538497	-422.529562	-422.528618	-422.572307	33.057
 OpenBabel02181911403D

 19 20  0  0  1  0  0  0  0  0999 V2000
    0.1851   -2.9298   -1.1872 C   0  0  0  0  0  0  0  0  0  0  0  0
   -0.9691   -1.9458   -1.1894 C   0  0  0  0  0  0  0  0  0  0  0  0
   -2.3123   -2.3796   -1.7215 C   0  0  0  0  0  0  0  0  0  0  0  0
   -1.4705   -1.3962   -2.5018 C   0  0  0  0  0  0  0  0  0  0  0  0
   -0.9580   -1.0312    0.0178 C   0  0  2  0  0  0  0  0  0  0  0  0
   -2.0192   -0.0422    0.0471 O   0  0  0  0  0  0  0  0  0  0  0  0
   -1.1173    1.0844    0.0718 C   0  0  0  0  0  0  0  0  0  0  0  0
    0.0692    0.1155    0.0162 C   0  0  0  0  0  0  0  0  0  0  0  0
    1.2573    0.2062   -0.0341 O   0  0  0  0  0  0  0  0  0  0  0  0
    0.1428   -3.5883   -0.3113 H   0  0  0  0  0  0  0  0  0  0  0  0
    0.1570   -3.5617   -2.0796 H   0  0  0  0  0  0  0  0  0  0  0  0
    1.1484   -2.4093   -1.1684 H   0  0  0  0  0  0  0  0  0  0  0  0
   -2.4014   -3.3957   -2.0913 H   0  0  0  0  0  0  0  0  0  0  0  0
   -3.1992   -1.9899   -1.2352 H   0  0  0  0  0  0  0  0  0  0  0  0
   -0.9818   -1.7339   -3.4091 H   0  0  0  0  0  0  0  0  0  0  0  0
   -1.8204   -0.3704   -2.5298 H   0  0  0  0  0  0  0  0  0  0  0  0
   -0.9419   -1.6231    0.9458 H   0  0  0  0  0  0  0  0  0  0  0  0
   -1.2316    1.7463   -0.7958 H   0  0  0  0  0  0  0  0  0  0  0  0
   -1.1948    1.6735    0.9943 H   0  0  0  0  0  0  0  0  0  0  0  0
  1 12  1  0  0  0  0
  1 10  1  0  0  0  0
  2  1  1  0  0  0  0
  2  5  1  0  0  0  0
  3 14  1  0  0  0  0
  3  2  1  0  0  0  0
  4  3  1  0  0  0  0
  4  2  1  0  0  0  0
  5  6  1  0  0  0  0
  5 17  1  1  0  0  0
  6  7  1  0  0  0  0
  7 19  1  0  0  0  0
  8  5  1  0  0  0  0
  8  7  1  0  0  0  0
  9  8  2  0  0  0  0
 11  1  1  0  0  0  0
 13  3  1  0  0  0  0
 15  4  1  0  0  0  0
 16  4  1  0  0  0  0
 18  7  1  0  0  0  0
M TOR 0 0 1 2 3
M TOR 1 0 1 2 12
M TOR 2 0 1 2 13
M TOR 3 0 1 3 14
M TOR 4 0 1 3 15
M TOR 5 0 1 4 5
M TOR 6 0 1 4 7
M TOR 7 0 1 4 16
M TOR 8 1 2 3 14
M TOR 9 1 2 3 15
M TOR 10 1 3 2 12
M TOR 11 1 3 2 13
M TOR 12 1 4 5 6
M TOR 13 1 4 7 6
M TOR 14 1 4 7 8
M TOR 15 2 1 0 9
M TOR 16 2 1 0 10
M TOR 17 2 1 0 11
M TOR 18 2 1 4 5
M TOR 19 2 1 4 7
M TOR 20 2 1 4 16
M TOR 21 2 3 1 4
M TOR 22 3 1 0 9
M TOR 23 3 1 0 10
M TOR 24 3 1 0 11
M TOR 25 3 1 4 5
M TOR 26 3 1 4 7
M TOR 27 3 1 4 16
M TOR 28 4 1 0 9
M TOR 29 4 1 0 10
M TOR 30 4 1 0 11
M TOR 31 4 1 2 12
M TOR 32 4 1 2 13
M TOR 33 4 1 3 14
M TOR 34 4 1 3 15
M TOR 35 4 5 6 7
M TOR 36 4 5 6 17
M TOR 37 4 5 6 18
M TOR 38 4 7 6 17
M TOR 39 4 7 6 18
M TOR 40 5 4 7 8
M TOR 41 5 6 7 8
M TOR 42 6 5 4 16
M TOR 43 6 7 4 16
M TOR 44 8 7 4 16
M TOR 45 8 7 6 17
M TOR 46 8 7 6 18
M  END
$$$$
