
     RDKit          3D

 19 20  0  0  0  0  0  0  0  0999 V2000
    0.9799   -1.4925   -4.1848 C   0  0  0  0  0  0  0  0  0  0  0  0
    1.4957   -1.6274   -2.7619 C   0  0  0  0  0  0  0  0  0  0  0  0
    1.9243   -2.6840   -2.3497 O   0  0  0  0  0  0  0  0  0  0  0  0
    1.4876   -0.3951   -1.8928 C   0  0  0  0  0  0  0  0  0  0  0  0
    0.3990    0.7106   -2.0519 C   0  0  0  0  0  0  0  0  0  0  0  0
    1.4991    1.8084   -2.1731 C   0  0  0  0  0  0  0  0  0  0  0  0
    2.5912    0.7308   -1.9964 C   0  0  0  0  0  0  0  0  0  0  0  0
    2.9823    0.5287   -0.6358 O   0  0  0  0  0  0  0  0  0  0  0  0
    2.0224   -0.5451   -0.4585 C   0  0  0  0  0  0  0  0  0  0  0  0
    1.2883   -2.3648   -4.7620 H   0  0  0  0  0  0  0  0  0  0  0  0
   -0.1151   -1.4422   -4.1817 H   0  0  0  0  0  0  0  0  0  0  0  0
    1.3420   -0.5769   -4.6639 H   0  0  0  0  0  0  0  0  0  0  0  0
   -0.2082    0.6072   -2.9527 H   0  0  0  0  0  0  0  0  0  0  0  0
   -0.2756    0.7936   -1.1961 H   0  0  0  0  0  0  0  0  0  0  0  0
    1.5188    2.2990   -3.1501 H   0  0  0  0  0  0  0  0  0  0  0  0
    1.5169    2.5718   -1.3929 H   0  0  0  0  0  0  0  0  0  0  0  0
    3.4402    0.7151   -2.6861 H   0  0  0  0  0  0  0  0  0  0  0  0
    2.5181   -1.5033   -0.2814 H   0  0  0  0  0  0  0  0  0  0  0  0
    1.3089   -0.3349    0.3474 H   0  0  0  0  0  0  0  0  0  0  0  0
  1  2  1  0
  2  3  2  0
  2  4  1  0
  4  5  1  0
  5  6  1  0
  6  7  1  0
  7  8  1  0
  8  9  1  0
  7  4  1  0
  9  4  1  0
  1 10  1  0
  1 11  1  0
  1 12  1  0
  5 13  1  0
  5 14  1  0
  6 15  1  0
  6 16  1  0
  7 17  1  0
  9 18  1  0
  9 19  1  0
M  END
$$$$
