
     RDKit          3D

 19 21  0  0  0  0  0  0  0  0999 V2000
    0.0639    0.3309    0.1478 C   0  0  0  0  0  0  0  0  0  0  0  0
    1.5533    0.0973    0.0803 C   0  0  0  0  0  0  0  0  0  0  0  0
    2.2104   -0.6007    1.2775 C   0  0  0  0  0  0  0  0  0  0  0  0
    3.6601   -0.1297    1.4398 C   0  0  0  0  0  0  0  0  0  0  0  0
    3.8082    1.4075    1.3200 C   0  0  0  0  0  0  0  0  0  0  0  0
    3.8793    1.0504   -0.1821 C   0  0  0  0  0  0  0  0  0  0  0  0
    4.3418   -0.2751    0.1619 O   0  0  0  0  0  0  0  0  0  0  0  0
    2.4480    0.9572   -0.7144 C   0  0  0  0  0  0  0  0  0  0  0  0
    2.0399   -0.3120   -1.2124 O   0  0  0  0  0  0  0  0  0  0  0  0
   -0.1977    0.9668    1.0005 H   0  0  0  0  0  0  0  0  0  0  0  0
   -0.2904    0.8088   -0.7690 H   0  0  0  0  0  0  0  0  0  0  0  0
   -0.4698   -0.6194    0.2646 H   0  0  0  0  0  0  0  0  0  0  0  0
    1.6443   -0.3778    2.1901 H   0  0  0  0  0  0  0  0  0  0  0  0
    2.1855   -1.6866    1.1325 H   0  0  0  0  0  0  0  0  0  0  0  0
    4.1843   -0.6458    2.2485 H   0  0  0  0  0  0  0  0  0  0  0  0
    2.9932    2.0476    1.6672 H   0  0  0  0  0  0  0  0  0  0  0  0
    4.7654    1.7542    1.7117 H   0  0  0  0  0  0  0  0  0  0  0  0
    4.5685    1.5753   -0.8480 H   0  0  0  0  0  0  0  0  0  0  0  0
    2.0567    1.8259   -1.2450 H   0  0  0  0  0  0  0  0  0  0  0  0
  1  2  1  0
  2  3  1  0
  3  4  1  0
  4  5  1  0
  5  6  1  0
  6  7  1  0
  6  8  1  0
  8  9  1  0
  8  2  1  0
  9  2  1  0
  7  4  1  0
  1 10  1  0
  1 11  1  0
  1 12  1  0
  3 13  1  0
  3 14  1  0
  4 15  1  0
  5 16  1  0
  5 17  1  0
  6 18  1  0
  8 19  1  0
M  END
$$$$
