
     RDKit          3D

 19 20  0  0  0  0  0  0  0  0999 V2000
    0.0397   -0.1296   -0.1714 C   0  0  0  0  0  0  0  0  0  0  0  0
    1.2998    0.3666    0.5052 C   0  0  0  0  0  0  0  0  0  0  0  0
    2.2138    1.3011   -0.3145 C   0  0  0  0  0  0  0  0  0  0  0  0
    3.1622    1.7209    0.8193 C   0  0  0  0  0  0  0  0  0  0  0  0
    3.9955    0.5840    1.1212 O   0  0  0  0  0  0  0  0  0  0  0  0
    3.2484   -0.5247    1.5795 C   0  0  0  0  0  0  0  0  0  0  0  0
    2.0979   -0.8070    0.8092 O   0  0  0  0  0  0  0  0  0  0  0  0
    2.1702    1.9883    1.9515 C   0  0  0  0  0  0  0  0  0  0  0  0
    1.1066    1.2033    1.7753 C   0  0  0  0  0  0  0  0  0  0  0  0
   -0.5266   -0.7815    0.5007 H   0  0  0  0  0  0  0  0  0  0  0  0
   -0.5951    0.7139   -0.4592 H   0  0  0  0  0  0  0  0  0  0  0  0
    0.2902   -0.7019   -1.0690 H   0  0  0  0  0  0  0  0  0  0  0  0
    2.7291    0.7753   -1.1207 H   0  0  0  0  0  0  0  0  0  0  0  0
    1.6586    2.1563   -0.7101 H   0  0  0  0  0  0  0  0  0  0  0  0
    3.8478    2.5383    0.5930 H   0  0  0  0  0  0  0  0  0  0  0  0
    3.9015   -1.3967    1.4988 H   0  0  0  0  0  0  0  0  0  0  0  0
    2.9630   -0.3703    2.6303 H   0  0  0  0  0  0  0  0  0  0  0  0
    2.3734    2.6315    2.7989 H   0  0  0  0  0  0  0  0  0  0  0  0
    0.2657    1.0792    2.4477 H   0  0  0  0  0  0  0  0  0  0  0  0
  1  2  1  0
  2  3  1  0
  3  4  1  0
  4  5  1  0
  5  6  1  0
  6  7  1  0
  4  8  1  0
  8  9  2  0
  7  2  1  0
  9  2  1  0
  1 10  1  0
  1 11  1  0
  1 12  1  0
  3 13  1  0
  3 14  1  0
  4 15  1  0
  6 16  1  0
  6 17  1  0
  8 18  1  0
  9 19  1  0
M  END
$$$$
