gdb 1926	2.6662311	1.3187512	1.188635	2.0722	75.05	-0.24112	-0.0301	0.21102	1138.8839	0.155989	-422.561224	-422.552568	-422.551624	-422.594764	32.095
 OpenBabel02181911403D

 19 20  0  0  1  0  0  0  0  0999 V2000
    2.6499    0.0417   -4.1408 C   0  0  0  0  0  0  0  0  0  0  0  0
    1.5563    0.5053   -3.2112 C   0  0  2  0  0  0  0  0  0  0  0  0
    1.0438    1.9248   -3.2418 C   0  0  0  0  0  0  0  0  0  0  0  0
    1.7905    1.4241   -2.0306 C   0  0  1  0  0  0  0  0  0  0  0  0
    0.9220    0.8895   -0.9106 C   0  0  1  0  0  0  0  0  0  0  0  0
   -0.0322    0.0260   -1.5223 O   0  0  0  0  0  0  0  0  0  0  0  0
    0.5481   -0.5187   -2.7118 C   0  0  0  0  0  0  0  0  0  0  0  0
    1.7256    0.1469    0.1567 C   0  0  0  0  0  0  0  0  0  0  0  0
    2.8131    0.4830    0.5472 O   0  0  0  0  0  0  0  0  0  0  0  0
    3.2082   -0.7979   -3.7109 H   0  0  0  0  0  0  0  0  0  0  0  0
    2.2419   -0.2871   -5.1038 H   0  0  0  0  0  0  0  0  0  0  0  0
    3.3616    0.8473   -4.3435 H   0  0  0  0  0  0  0  0  0  0  0  0
    1.5637    2.6236   -3.8884 H   0  0  0  0  0  0  0  0  0  0  0  0
   -0.0244    2.0980   -3.1506 H   0  0  0  0  0  0  0  0  0  0  0  0
    2.7720    1.8023   -1.7748 H   0  0  0  0  0  0  0  0  0  0  0  0
    0.3493    1.6709   -0.3881 H   0  0  0  0  0  0  0  0  0  0  0  0
    1.0596   -1.4722   -2.5011 H   0  0  0  0  0  0  0  0  0  0  0  0
   -0.2752   -0.7181   -3.4061 H   0  0  0  0  0  0  0  0  0  0  0  0
    1.1958   -0.7445    0.5640 H   0  0  0  0  0  0  0  0  0  0  0  0
  1 10  1  0  0  0  0
  2  1  1  6  0  0  0
  2  7  1  0  0  0  0
  2  4  1  0  0  0  0
  3  2  1  0  0  0  0
  3 14  1  0  0  0  0
  3  4  1  0  0  0  0
  4 15  1  1  0  0  0
  4  5  1  0  0  0  0
  5 16  1  1  0  0  0
  5  8  1  0  0  0  0
  6  5  1  0  0  0  0
  7 17  1  0  0  0  0
  7  6  1  0  0  0  0
  8  9  2  0  0  0  0
  8 19  1  0  0  0  0
 11  1  1  0  0  0  0
 12  1  1  0  0  0  0
 13  3  1  0  0  0  0
 18  7  1  0  0  0  0
M TOR 0 0 1 2 3
M TOR 1 0 1 2 12
M TOR 2 0 1 2 13
M TOR 3 0 1 3 4
M TOR 4 0 1 3 14
M TOR 5 0 1 6 5
M TOR 6 0 1 6 16
M TOR 7 0 1 6 17
M TOR 8 1 2 3 4
M TOR 9 1 2 3 14
M TOR 10 1 3 2 12
M TOR 11 1 3 2 13
M TOR 12 1 3 4 5
M TOR 13 1 3 4 7
M TOR 14 1 3 4 15
M TOR 15 1 6 5 4
M TOR 16 2 1 0 9
M TOR 17 2 1 0 10
M TOR 18 2 1 0 11
M TOR 19 2 1 6 5
M TOR 20 2 1 6 16
M TOR 21 2 1 6 17
M TOR 22 2 3 1 6
M TOR 23 2 3 4 5
M TOR 24 2 3 4 7
M TOR 25 2 3 4 15
M TOR 26 3 1 0 9
M TOR 27 3 1 0 10
M TOR 28 3 1 0 11
M TOR 29 3 1 6 5
M TOR 30 3 1 6 16
M TOR 31 3 1 6 17
M TOR 32 3 4 5 6
M TOR 33 3 4 7 8
M TOR 34 3 4 7 18
M TOR 35 4 3 1 6
M TOR 36 4 3 2 12
M TOR 37 4 3 2 13
M TOR 38 4 5 6 16
M TOR 39 4 5 6 17
M TOR 40 5 4 3 14
M TOR 41 5 4 7 8
M TOR 42 5 4 7 18
M TOR 43 6 1 0 9
M TOR 44 6 1 0 10
M TOR 45 6 1 0 11
M TOR 46 6 1 2 12
M TOR 47 6 1 2 13
M TOR 48 6 1 3 14
M TOR 49 6 5 4 7
M TOR 50 6 5 4 15
M TOR 51 7 4 3 14
M TOR 52 8 7 4 15
M  END
$$$$
