
     RDKit          3D

 19 21  0  0  0  0  0  0  0  0999 V2000
    1.4381    0.1526   -0.0171 C   0  0  0  0  0  0  0  0  0  0  0  0
    1.2331    1.6822    0.1147 C   0  0  0  0  0  0  0  0  0  0  0  0
    1.3013    2.1429    1.4619 O   0  0  0  0  0  0  0  0  0  0  0  0
    0.0275    1.9069    2.0777 C   0  0  0  0  0  0  0  0  0  0  0  0
   -0.9912    2.2190    0.9718 C   0  0  0  0  0  0  0  0  0  0  0  0
   -0.2898    1.4943   -0.1716 C   0  0  0  0  0  0  0  0  0  0  0  0
   -0.0982   -0.0356    0.1356 C   0  0  0  0  0  0  0  0  0  0  0  0
   -0.5655   -0.4002    1.4215 O   0  0  0  0  0  0  0  0  0  0  0  0
   -0.1259    0.4337    2.4925 C   0  0  0  0  0  0  0  0  0  0  0  0
    1.7673   -0.1271   -1.0225 H   0  0  0  0  0  0  0  0  0  0  0  0
    2.0882   -0.3255    0.7189 H   0  0  0  0  0  0  0  0  0  0  0  0
    1.8446    2.3429   -0.5032 H   0  0  0  0  0  0  0  0  0  0  0  0
   -0.0206    2.5535    2.9573 H   0  0  0  0  0  0  0  0  0  0  0  0
   -1.9842    1.8166    1.1866 H   0  0  0  0  0  0  0  0  0  0  0  0
   -1.0660    3.2944    0.7892 H   0  0  0  0  0  0  0  0  0  0  0  0
   -0.6373    1.7233   -1.1787 H   0  0  0  0  0  0  0  0  0  0  0  0
   -0.5718   -0.7408   -0.5499 H   0  0  0  0  0  0  0  0  0  0  0  0
   -0.8891    0.3379    3.2723 H   0  0  0  0  0  0  0  0  0  0  0  0
    0.8314    0.0797    2.9018 H   0  0  0  0  0  0  0  0  0  0  0  0
  1  2  1  0
  2  3  1  0
  3  4  1  0
  4  5  1  0
  5  6  1  0
  6  7  1  0
  7  8  1  0
  8  9  1  0
  7  1  1  0
  6  2  1  0
  9  4  1  0
  1 10  1  0
  1 11  1  0
  2 12  1  0
  4 13  1  0
  5 14  1  0
  5 15  1  0
  6 16  1  0
  7 17  1  0
  9 18  1  0
  9 19  1  0
M  END
$$$$
