gdb 3875	2.2571989	1.6776806	1.2271714	1.5797	75.47	-0.25298	0.05071	0.30368999999999996	1089.5223	0.155282	-422.501628	-422.492953	-422.492009	-422.534936	32.516
 OpenBabel02181911413D

 19 21  0  0  1  0  0  0  0  0999 V2000
    3.1342    1.1890   -0.4355 C   0  0  0  0  0  0  0  0  0  0  0  0
    1.9576    0.2383   -0.2354 C   0  0  1  0  0  0  0  0  0  0  0  0
    1.9908   -1.0620   -1.1146 C   0  0  0  0  0  0  0  0  0  0  0  0
    2.4163   -1.8515    0.1318 C   0  0  2  0  0  0  0  0  0  0  0  0
    3.4807   -2.8382    0.3185 C   0  0  0  0  0  0  0  0  0  0  0  0
    2.0926   -3.1935    0.4324 O   0  0  0  0  0  0  0  0  0  0  0  0
    2.0887   -0.6657    1.0073 C   0  0  2  0  0  0  0  0  0  0  0  0
    1.3570   -0.6546    2.2730 C   0  0  0  0  0  0  0  0  0  0  0  0
    2.7578   -0.3346    2.2087 O   0  0  0  0  0  0  0  0  0  0  0  0
    3.1661    1.9400    0.3593 H   0  0  0  0  0  0  0  0  0  0  0  0
    4.0871    0.6496   -0.4165 H   0  0  0  0  0  0  0  0  0  0  0  0
    3.0573    1.7070   -1.3967 H   0  0  0  0  0  0  0  0  0  0  0  0
    1.0125    0.7856   -0.2884 H   0  0  0  0  0  0  0  0  0  0  0  0
    1.0042   -1.3645   -1.4737 H   0  0  0  0  0  0  0  0  0  0  0  0
    2.6926   -1.0572   -1.9518 H   0  0  0  0  0  0  0  0  0  0  0  0
    3.9957   -3.2464   -0.5500 H   0  0  0  0  0  0  0  0  0  0  0  0
    4.0405   -2.8448    1.2519 H   0  0  0  0  0  0  0  0  0  0  0  0
    0.6992    0.1808    2.5092 H   0  0  0  0  0  0  0  0  0  0  0  0
    1.1189   -1.5997    2.7574 H   0  0  0  0  0  0  0  0  0  0  0  0
  1 11  1  0  0  0  0
  1  2  1  0  0  0  0
  1 10  1  0  0  0  0
  2 13  1  6  0  0  0
  2  7  1  0  0  0  0
  3  2  1  0  0  0  0
  3  4  1  0  0  0  0
  4  5  1  0  0  0  0
  4  6  1  1  0  0  0
  4  7  1  0  0  0  0
  5  6  1  0  0  0  0
  5 17  1  0  0  0  0
  7  9  1  1  0  0  0
  7  8  1  0  0  0  0
  8 18  1  0  0  0  0
  8 19  1  0  0  0  0
  9  8  1  0  0  0  0
 12  1  1  0  0  0  0
 14  3  1  0  0  0  0
 15  3  1  0  0  0  0
 16  5  1  0  0  0  0
M TOR 0 0 1 2 3
M TOR 1 0 1 2 13
M TOR 2 0 1 2 14
M TOR 3 0 1 6 3
M TOR 4 0 1 6 7
M TOR 5 0 1 6 8
M TOR 6 1 2 3 4
M TOR 7 1 2 3 5
M TOR 8 1 2 3 6
M TOR 9 1 6 3 4
M TOR 10 1 6 3 5
M TOR 11 1 6 7 8
M TOR 12 1 6 7 17
M TOR 13 1 6 7 18
M TOR 14 2 1 0 9
M TOR 15 2 1 0 10
M TOR 16 2 1 0 11
M TOR 17 2 1 6 7
M TOR 18 2 1 6 8
M TOR 19 2 3 4 5
M TOR 20 2 3 4 15
M TOR 21 2 3 4 16
M TOR 22 2 3 6 7
M TOR 23 2 3 6 8
M TOR 24 3 2 1 12
M TOR 25 3 5 4 15
M TOR 26 3 5 4 16
M TOR 27 3 6 1 12
M TOR 28 3 6 7 8
M TOR 29 3 6 7 17
M TOR 30 3 6 7 18
M TOR 31 4 3 2 13
M TOR 32 4 3 2 14
M TOR 33 4 3 6 7
M TOR 34 4 3 6 8
M TOR 35 4 5 3 6
M TOR 36 5 3 2 13
M TOR 37 5 3 2 14
M TOR 38 5 3 6 7
M TOR 39 5 3 6 8
M TOR 40 6 1 0 9
M TOR 41 6 1 0 10
M TOR 42 6 1 0 11
M TOR 43 6 1 2 13
M TOR 44 6 1 2 14
M TOR 45 6 3 2 13
M TOR 46 6 3 2 14
M TOR 47 6 3 4 15
M TOR 48 6 3 4 16
M TOR 49 6 8 7 17
M TOR 50 6 8 7 18
M TOR 51 7 6 1 12
M TOR 52 8 6 1 12
M  END
$$$$
