gdb 2938	3.0531046	1.1928623	0.9830058	2.5701	78.15	-0.22473	0.01375	0.23848000000000003	1241.7351	0.156273	-422.560278	-422.551373	-422.550429	-422.593375	34.022
 OpenBabel02181911413D

 19 20  0  0  1  0  0  0  0  0999 V2000
    1.3306    0.7589    0.5290 C   0  0  0  0  0  0  0  0  0  0  0  0
   -0.0573    0.2194    0.3856 C   0  0  0  0  0  0  0  0  0  0  0  0
   -1.1957    0.8996    0.1830 C   0  0  0  0  0  0  0  0  0  0  0  0
   -2.3941    0.0211    0.1749 C   0  0  2  0  0  0  0  0  0  0  0  0
   -2.6247   -0.7365    1.4799 C   0  0  1  0  0  0  0  0  0  0  0  0
   -3.8718   -1.3100    1.7260 O   0  0  0  0  0  0  0  0  0  0  0  0
   -1.8422   -1.3862    0.3852 C   0  0  2  0  0  0  0  0  0  0  0  0
   -0.3190   -1.2814    0.4171 C   0  0  1  0  0  0  0  0  0  0  0  0
    0.3128   -1.9587   -0.6686 O   0  0  0  0  0  0  0  0  0  0  0  0
    1.7241    0.5872    1.5393 H   0  0  0  0  0  0  0  0  0  0  0  0
    2.0126    0.2499   -0.1613 H   0  0  0  0  0  0  0  0  0  0  0  0
    1.3704    1.8336    0.3315 H   0  0  0  0  0  0  0  0  0  0  0  0
   -1.2597    1.9797    0.0965 H   0  0  0  0  0  0  0  0  0  0  0  0
   -3.2531    0.2228   -0.4552 H   0  0  0  0  0  0  0  0  0  0  0  0
   -2.0893   -0.3708    2.3581 H   0  0  0  0  0  0  0  0  0  0  0  0
   -4.4538   -0.6213    2.0644 H   0  0  0  0  0  0  0  0  0  0  0  0
   -2.2927   -2.2482   -0.0920 H   0  0  0  0  0  0  0  0  0  0  0  0
    0.1038   -1.7540    1.3119 H   0  0  0  0  0  0  0  0  0  0  0  0
    0.0144   -1.5264   -1.4773 H   0  0  0  0  0  0  0  0  0  0  0  0
  1 10  1  0  0  0  0
  2  8  1  0  0  0  0
  2  1  1  0  0  0  0
  3  2  2  0  0  0  0
  4 14  1  6  0  0  0
  4  3  1  0  0  0  0
  4  7  1  0  0  0  0
  4  5  1  0  0  0  0
  5  6  1  0  0  0  0
  5 15  1  1  0  0  0
  6 16  1  0  0  0  0
  7 17  1  6  0  0  0
  7  8  1  0  0  0  0
  7  5  1  0  0  0  0
  8 18  1  1  0  0  0
  9  8  1  0  0  0  0
 11  1  1  0  0  0  0
 12  1  1  0  0  0  0
 13  3  1  0  0  0  0
 19  9  1  0  0  0  0
M TOR 0 0 1 2 3
M TOR 1 0 1 2 12
M TOR 2 0 1 7 6
M TOR 3 0 1 7 8
M TOR 4 0 1 7 17
M TOR 5 1 2 3 4
M TOR 6 1 2 3 6
M TOR 7 1 2 3 13
M TOR 8 1 7 6 3
M TOR 9 1 7 6 4
M TOR 10 1 7 6 16
M TOR 11 1 7 8 18
M TOR 12 2 1 0 9
M TOR 13 2 1 0 10
M TOR 14 2 1 0 11
M TOR 15 2 1 7 6
M TOR 16 2 1 7 8
M TOR 17 2 1 7 17
M TOR 18 2 3 4 5
M TOR 19 2 3 4 6
M TOR 20 2 3 4 14
M TOR 21 2 3 6 7
M TOR 22 2 3 6 16
M TOR 23 3 2 1 7
M TOR 24 3 4 5 15
M TOR 25 3 4 6 7
M TOR 26 3 4 6 16
M TOR 27 3 6 4 5
M TOR 28 3 6 4 14
M TOR 29 3 6 7 8
M TOR 30 3 6 7 17
M TOR 31 4 3 2 12
M TOR 32 4 6 3 13
M TOR 33 4 6 7 8
M TOR 34 4 6 7 17
M TOR 35 5 4 3 13
M TOR 36 5 4 6 7
M TOR 37 5 4 6 16
M TOR 38 6 3 2 12
M TOR 39 6 4 5 15
M TOR 40 6 7 8 18
M TOR 41 7 1 0 9
M TOR 42 7 1 0 10
M TOR 43 7 1 0 11
M TOR 44 7 1 2 12
M TOR 45 7 6 3 13
M TOR 46 7 6 4 14
M TOR 47 8 7 6 16
M  END
$$$$
