gdb 1782	3.6010471	1.2211118	1.0977711	1.8113	76.62	-0.24778	-0.0303	0.21748	1152.3307	0.156242	-422.555792	-422.547425	-422.546481	-422.588698	31.871
 OpenBabel02181911403D

 19 20  0  0  1  0  0  0  0  0999 V2000
    0.6659    0.7618   -1.9806 C   0  0  0  0  0  0  0  0  0  0  0  0
    1.9551    0.3828   -1.3104 C   0  0  2  0  0  0  0  0  0  0  0  0
    3.1798   -0.2546   -2.0239 C   0  0  0  0  0  0  0  0  0  0  0  0
    3.6204   -0.4842   -0.5516 C   0  0  2  0  0  0  0  0  0  0  0  0
    2.0977   -0.7285   -0.2332 C   0  0  0  0  0  0  0  0  0  0  0  0
    3.7362    0.9766   -0.0688 C   0  0  0  0  0  0  0  0  0  0  0  0
    2.5382    1.5274   -0.6446 O   0  0  0  0  0  0  0  0  0  0  0  0
    4.6581   -1.4673   -0.1326 C   0  0  0  0  0  0  0  0  0  0  0  0
    5.3048   -2.1483   -0.8899 O   0  0  0  0  0  0  0  0  0  0  0  0
   -0.0470    1.1522   -1.2480 H   0  0  0  0  0  0  0  0  0  0  0  0
    0.8411    1.5376   -2.7322 H   0  0  0  0  0  0  0  0  0  0  0  0
    0.2204   -0.1062   -2.4741 H   0  0  0  0  0  0  0  0  0  0  0  0
    2.9544   -1.1886   -2.5395 H   0  0  0  0  0  0  0  0  0  0  0  0
    3.7909    0.4015   -2.6473 H   0  0  0  0  0  0  0  0  0  0  0  0
    1.7578   -1.7099   -0.5676 H   0  0  0  0  0  0  0  0  0  0  0  0
    1.7358   -0.5006    0.7721 H   0  0  0  0  0  0  0  0  0  0  0  0
    3.7222    1.0795    1.0230 H   0  0  0  0  0  0  0  0  0  0  0  0
    4.6210    1.4867   -0.4668 H   0  0  0  0  0  0  0  0  0  0  0  0
    4.7946   -1.5529    0.9715 H   0  0  0  0  0  0  0  0  0  0  0  0
  1 10  1  0  0  0  0
  2  1  1  6  0  0  0
  2  7  1  0  0  0  0
  2  5  1  0  0  0  0
  3  2  1  0  0  0  0
  3  4  1  0  0  0  0
  4  5  1  0  0  0  0
  4  8  1  1  0  0  0
  4  6  1  0  0  0  0
  5 16  1  0  0  0  0
  6 17  1  0  0  0  0
  7  6  1  0  0  0  0
  8 19  1  0  0  0  0
  9  8  2  0  0  0  0
 11  1  1  0  0  0  0
 12  1  1  0  0  0  0
 13  3  1  0  0  0  0
 14  3  1  0  0  0  0
 15  5  1  0  0  0  0
 18  6  1  0  0  0  0
M TOR 0 0 1 2 3
M TOR 1 0 1 2 12
M TOR 2 0 1 2 13
M TOR 3 0 1 4 3
M TOR 4 0 1 4 14
M TOR 5 0 1 4 15
M TOR 6 0 1 6 5
M TOR 7 1 2 3 4
M TOR 8 1 2 3 5
M TOR 9 1 2 3 7
M TOR 10 1 4 3 5
M TOR 11 1 4 3 7
M TOR 12 1 6 5 3
M TOR 13 1 6 5 16
M TOR 14 1 6 5 17
M TOR 15 2 1 0 9
M TOR 16 2 1 0 10
M TOR 17 2 1 0 11
M TOR 18 2 1 4 14
M TOR 19 2 1 4 15
M TOR 20 2 1 6 5
M TOR 21 2 3 4 14
M TOR 22 2 3 4 15
M TOR 23 2 3 5 6
M TOR 24 2 3 5 16
M TOR 25 2 3 5 17
M TOR 26 2 3 7 8
M TOR 27 2 3 7 18
M TOR 28 3 2 1 6
M TOR 29 3 4 1 6
M TOR 30 4 1 0 9
M TOR 31 4 1 0 10
M TOR 32 4 1 0 11
M TOR 33 4 1 2 12
M TOR 34 4 1 2 13
M TOR 35 4 1 6 5
M TOR 36 4 3 2 12
M TOR 37 4 3 2 13
M TOR 38 4 3 5 6
M TOR 39 4 3 5 16
M TOR 40 4 3 5 17
M TOR 41 4 3 7 8
M TOR 42 4 3 7 18
M TOR 43 5 3 2 12
M TOR 44 5 3 2 13
M TOR 45 5 3 4 14
M TOR 46 5 3 4 15
M TOR 47 5 3 7 8
M TOR 48 5 3 7 18
M TOR 49 6 1 0 9
M TOR 50 6 1 0 10
M TOR 51 6 1 0 11
M TOR 52 6 1 2 12
M TOR 53 6 1 2 13
M TOR 54 6 1 4 14
M TOR 55 6 1 4 15
M TOR 56 6 5 3 7
M TOR 57 7 3 2 12
M TOR 58 7 3 2 13
M TOR 59 7 3 4 14
M TOR 60 7 3 4 15
M TOR 61 7 3 5 16
M TOR 62 7 3 5 17
M  END
$$$$
