
     RDKit          3D

 19 20  0  0  0  0  0  0  0  0999 V2000
    1.5146    0.9362   -0.0202 O   0  0  0  0  0  0  0  0  0  0  0  0
    0.1958    0.4773    0.2327 C   0  0  0  0  0  0  0  0  0  0  0  0
   -0.7491    1.2535   -0.6788 C   0  0  0  0  0  0  0  0  0  0  0  0
   -2.1961    0.8010   -0.5528 C   0  0  0  0  0  0  0  0  0  0  0  0
   -3.2768    1.7355   -1.2028 C   0  0  0  0  0  0  0  0  0  0  0  0
   -3.1370    2.6166   -0.0392 O   0  0  0  0  0  0  0  0  0  0  0  0
   -3.0167    1.3440    0.6765 C   0  0  0  0  0  0  0  0  0  0  0  0
   -4.3952    0.7104    0.4248 C   0  0  0  0  0  0  0  0  0  0  0  0
   -4.5751    0.9811   -0.8701 C   0  0  0  0  0  0  0  0  0  0  0  0
    2.1143    0.4702    0.5695 H   0  0  0  0  0  0  0  0  0  0  0  0
    0.1051   -0.6036    0.0320 H   0  0  0  0  0  0  0  0  0  0  0  0
   -0.0849    0.6352    1.2869 H   0  0  0  0  0  0  0  0  0  0  0  0
   -0.6723    2.3211   -0.4562 H   0  0  0  0  0  0  0  0  0  0  0  0
   -0.4117    1.1114   -1.7134 H   0  0  0  0  0  0  0  0  0  0  0  0
   -2.3103   -0.2675   -0.7601 H   0  0  0  0  0  0  0  0  0  0  0  0
   -3.1505    2.2296   -2.1657 H   0  0  0  0  0  0  0  0  0  0  0  0
   -2.6237    1.4282    1.6893 H   0  0  0  0  0  0  0  0  0  0  0  0
   -5.0136    0.1817    1.1348 H   0  0  0  0  0  0  0  0  0  0  0  0
   -5.3849    0.7415   -1.5429 H   0  0  0  0  0  0  0  0  0  0  0  0
  1  2  1  0
  2  3  1  0
  3  4  1  0
  4  5  1  0
  5  6  1  0
  6  7  1  0
  7  8  1  0
  8  9  2  0
  7  4  1  0
  9  5  1  0
  1 10  1  0
  2 11  1  0
  2 12  1  0
  3 13  1  0
  3 14  1  0
  4 15  1  0
  5 16  1  0
  7 17  1  0
  8 18  1  0
  9 19  1  0
M  END
$$$$
