gdb 3333	2.6621344	1.8831933	1.5678226	2.4072	74.06	-0.24042	0.05933	0.29975	930.1551	0.159726	-422.498556	-422.491721	-422.490777	-422.529181	28.895
 OpenBabel02181911413D

 19 21  0  0  1  0  0  0  0  0999 V2000
    0.6502    0.2495    0.8894 O   0  0  0  0  0  0  0  0  0  0  0  0
   -0.7355    0.3435    0.7495 C   0  0  2  0  0  0  0  0  0  0  0  0
   -1.6013    0.5282    2.0215 C   0  0  1  0  0  0  0  0  0  0  0  0
   -3.0075    0.6566    1.3371 C   0  0  0  0  0  0  0  0  0  0  0  0
   -2.9502   -0.4894    0.2270 C   0  0  0  0  0  0  0  0  0  0  0  0
   -1.5867   -1.0078    0.6374 C   0  0  1  0  0  0  0  0  0  0  0  0
   -0.6957   -2.2391    0.7445 C   0  0  0  0  0  0  0  0  0  0  0  0
   -0.4000   -1.8597    2.1387 O   0  0  0  0  0  0  0  0  0  0  0  0
   -1.5991   -1.0077    2.1735 C   0  0  1  0  0  0  0  0  0  0  0  0
    0.8149   -0.4086    1.5813 H   0  0  0  0  0  0  0  0  0  0  0  0
   -0.9144    1.0575   -0.0595 H   0  0  0  0  0  0  0  0  0  0  0  0
   -1.3736    1.2528    2.8057 H   0  0  0  0  0  0  0  0  0  0  0  0
   -3.8265    0.4898    2.0418 H   0  0  0  0  0  0  0  0  0  0  0  0
   -3.1344    1.6508    0.9021 H   0  0  0  0  0  0  0  0  0  0  0  0
   -3.7547   -1.2183    0.3538 H   0  0  0  0  0  0  0  0  0  0  0  0
   -3.0046   -0.0877   -0.7883 H   0  0  0  0  0  0  0  0  0  0  0  0
   -1.2099   -3.2069    0.7111 H   0  0  0  0  0  0  0  0  0  0  0  0
    0.2137   -2.2628    0.1380 H   0  0  0  0  0  0  0  0  0  0  0  0
   -2.3805   -1.4829    2.7753 H   0  0  0  0  0  0  0  0  0  0  0  0
  1 10  1  0  0  0  0
  2 11  1  6  0  0  0
  2  1  1  0  0  0  0
  2  3  1  0  0  0  0
  3  9  1  0  0  0  0
  3 12  1  1  0  0  0
  4  3  1  0  0  0  0
  4 13  1  0  0  0  0
  5 15  1  0  0  0  0
  5  4  1  0  0  0  0
  6  5  1  6  0  0  0
  6  7  1  0  0  0  0
  6  2  1  0  0  0  0
  6  9  1  0  0  0  0
  7  8  1  0  0  0  0
  8  9  1  0  0  0  0
  9 19  1  1  0  0  0
 14  4  1  0  0  0  0
 16  5  1  0  0  0  0
 17  7  1  0  0  0  0
 18  7  1  0  0  0  0
M TOR 0 0 1 2 3
M TOR 1 0 1 2 8
M TOR 2 0 1 2 11
M TOR 3 0 1 5 4
M TOR 4 0 1 5 6
M TOR 5 0 1 5 8
M TOR 6 1 2 3 4
M TOR 7 1 2 3 12
M TOR 8 1 2 3 13
M TOR 9 1 2 8 5
M TOR 10 1 2 8 7
M TOR 11 1 2 8 18
M TOR 12 1 5 4 3
M TOR 13 1 5 4 14
M TOR 14 1 5 4 15
M TOR 15 1 5 6 7
M TOR 16 1 5 6 16
M TOR 17 1 5 6 17
M TOR 18 1 5 8 7
M TOR 19 1 5 8 18
M TOR 20 2 1 0 9
M TOR 21 2 1 5 4
M TOR 22 2 1 5 6
M TOR 23 2 3 4 5
M TOR 24 2 3 4 14
M TOR 25 2 3 4 15
M TOR 26 2 8 5 4
M TOR 27 2 8 5 6
M TOR 28 2 8 7 6
M TOR 29 3 2 1 5
M TOR 30 3 2 1 10
M TOR 31 3 2 8 5
M TOR 32 3 2 8 7
M TOR 33 3 2 8 18
M TOR 34 3 4 5 6
M TOR 35 3 4 5 8
M TOR 36 4 3 2 8
M TOR 37 4 3 2 11
M TOR 38 4 5 1 10
M TOR 39 4 5 6 7
M TOR 40 4 5 6 16
M TOR 41 4 5 6 17
M TOR 42 4 5 8 7
M TOR 43 4 5 8 18
M TOR 44 5 1 0 9
M TOR 45 5 1 2 11
M TOR 46 5 4 3 12
M TOR 47 5 4 3 13
M TOR 48 5 6 7 8
M TOR 49 5 8 2 11
M TOR 50 6 5 1 10
M TOR 51 6 5 4 14
M TOR 52 6 5 4 15
M TOR 53 6 5 8 18
M TOR 54 6 7 8 18
M TOR 55 7 8 2 11
M TOR 56 8 2 1 10
M TOR 57 8 2 3 12
M TOR 58 8 2 3 13
M TOR 59 8 5 1 10
M TOR 60 8 5 4 14
M TOR 61 8 5 4 15
M TOR 62 8 5 6 16
M TOR 63 8 5 6 17
M TOR 64 8 7 6 16
M TOR 65 8 7 6 17
M  END
$$$$
