gdb 5063	2.2976357	1.4171962	1.0461361	2.7934	77.81	-0.24364	-0.03442	0.20922	1206.4371	0.154953	-422.526937	-422.517787	-422.516843	-422.561168	33.189
 OpenBabel02181911413D

 19 20  0  0  1  0  0  0  0  0999 V2000
    1.8702   -0.2981    1.5609 C   0  0  0  0  0  0  0  0  0  0  0  0
    1.5794    0.4205    0.2349 C   0  0  0  0  0  0  0  0  0  0  0  0
    1.7546   -0.4708   -0.9616 C   0  0  1  0  0  0  0  0  0  0  0  0
    0.7121   -1.4327   -1.4524 C   0  0  0  0  0  0  0  0  0  0  0  0
    1.1721   -0.3412   -2.3852 C   0  0  2  0  0  0  0  0  0  0  0  0
    2.4092   -0.6853   -3.0044 O   0  0  0  0  0  0  0  0  0  0  0  0
    3.0636   -0.7467   -1.7077 C   0  0  0  0  0  0  0  0  0  0  0  0
    0.3259    0.7232   -2.9352 C   0  0  0  0  0  0  0  0  0  0  0  0
   -0.7161    1.0794   -2.4308 O   0  0  0  0  0  0  0  0  0  0  0  0
    1.2025   -1.1545    1.6973 H   0  0  0  0  0  0  0  0  0  0  0  0
    2.9001   -0.6692    1.5971 H   0  0  0  0  0  0  0  0  0  0  0  0
    1.7304    0.3793    2.4083 H   0  0  0  0  0  0  0  0  0  0  0  0
    0.5528    0.8043    0.2349 H   0  0  0  0  0  0  0  0  0  0  0  0
    2.2355    1.2945    0.1363 H   0  0  0  0  0  0  0  0  0  0  0  0
    0.9677   -2.4540   -1.7210 H   0  0  0  0  0  0  0  0  0  0  0  0
   -0.2813   -1.2792   -1.0434 H   0  0  0  0  0  0  0  0  0  0  0  0
    3.5520   -1.7129   -1.5371 H   0  0  0  0  0  0  0  0  0  0  0  0
    3.7950    0.0637   -1.6090 H   0  0  0  0  0  0  0  0  0  0  0  0
    0.7393    1.2030   -3.8486 H   0  0  0  0  0  0  0  0  0  0  0  0
  1 11  1  0  0  0  0
  1 10  1  0  0  0  0
  1 12  1  0  0  0  0
  2  1  1  0  0  0  0
  3  2  1  1  0  0  0
  4 16  1  0  0  0  0
  4  3  1  0  0  0  0
  5  8  1  6  0  0  0
  5  4  1  0  0  0  0
  5  3  1  0  0  0  0
  6  5  1  0  0  0  0
  6  7  1  0  0  0  0
  7 18  1  0  0  0  0
  7 17  1  0  0  0  0
  7  3  1  0  0  0  0
  8  9  2  0  0  0  0
 13  2  1  0  0  0  0
 14  2  1  0  0  0  0
 15  4  1  0  0  0  0
 19  8  1  0  0  0  0
M TOR 0 0 1 2 3
M TOR 1 0 1 2 4
M TOR 2 0 1 2 6
M TOR 3 1 2 3 4
M TOR 4 1 2 3 14
M TOR 5 1 2 3 15
M TOR 6 1 2 4 5
M TOR 7 1 2 4 7
M TOR 8 1 2 6 5
M TOR 9 1 2 6 16
M TOR 10 1 2 6 17
M TOR 11 2 1 0 9
M TOR 12 2 1 0 10
M TOR 13 2 1 0 11
M TOR 14 2 3 4 5
M TOR 15 2 3 4 7
M TOR 16 2 4 3 14
M TOR 17 2 4 3 15
M TOR 18 2 4 5 6
M TOR 19 2 4 7 8
M TOR 20 2 4 7 18
M TOR 21 3 2 1 12
M TOR 22 3 2 1 13
M TOR 23 3 2 6 5
M TOR 24 3 2 6 16
M TOR 25 3 2 6 17
M TOR 26 3 4 2 6
M TOR 27 3 4 5 6
M TOR 28 3 4 7 8
M TOR 29 3 4 7 18
M TOR 30 4 2 1 12
M TOR 31 4 2 1 13
M TOR 32 4 2 6 16
M TOR 33 4 2 6 17
M TOR 34 4 5 6 16
M TOR 35 4 5 6 17
M TOR 36 5 4 3 14
M TOR 37 5 4 3 15
M TOR 38 5 4 7 8
M TOR 39 5 4 7 18
M TOR 40 6 2 1 12
M TOR 41 6 2 1 13
M TOR 42 6 2 3 14
M TOR 43 6 2 3 15
M TOR 44 6 2 4 7
M TOR 45 6 5 4 7
M TOR 46 7 4 3 14
M TOR 47 7 4 3 15
M  END
$$$$
