gdb 2761	2.6652617	1.3959326	1.0407847	2.5831	77.7	-0.23844	-0.00588	0.23256000000000002	1197.94	0.154901	-422.553975	-422.544518	-422.543574	-422.587825	34.861
 OpenBabel02181911413D

 19 20  0  0  1  0  0  0  0  0999 V2000
   -3.1868    1.8999    1.3157 C   0  0  0  0  0  0  0  0  0  0  0  0
   -2.0478    0.9242    1.0889 C   0  0  1  0  0  0  0  0  0  0  0  0
   -2.2296   -0.1803    0.0963 C   0  0  2  0  0  0  0  0  0  0  0  0
   -1.0123   -1.1154    0.1186 C   0  0  1  0  0  0  0  0  0  0  0  0
   -1.0039   -2.2905   -0.8531 C   0  0  0  0  0  0  0  0  0  0  0  0
   -0.2058    0.1035   -0.4102 C   0  0  0  0  0  0  0  0  0  0  0  0
    0.7550    0.1686   -1.1390 O   0  0  0  0  0  0  0  0  0  0  0  0
   -1.2894    1.0899   -0.2020 C   0  0  2  0  0  0  0  0  0  0  0  0
   -1.4361    2.2217   -0.9539 O   0  0  0  0  0  0  0  0  0  0  0  0
   -3.8821    1.5021    2.0612 H   0  0  0  0  0  0  0  0  0  0  0  0
   -2.8088    2.8599    1.6791 H   0  0  0  0  0  0  0  0  0  0  0  0
   -3.7397    2.0907    0.3928 H   0  0  0  0  0  0  0  0  0  0  0  0
   -1.4787    0.6945    1.9906 H   0  0  0  0  0  0  0  0  0  0  0  0
   -3.1752   -0.3996   -0.3829 H   0  0  0  0  0  0  0  0  0  0  0  0
   -0.7386   -1.4442    1.1281 H   0  0  0  0  0  0  0  0  0  0  0  0
   -1.6791   -3.0832   -0.5168 H   0  0  0  0  0  0  0  0  0  0  0  0
   -1.3144   -1.9772   -1.8550 H   0  0  0  0  0  0  0  0  0  0  0  0
    0.0038   -2.7065   -0.9345 H   0  0  0  0  0  0  0  0  0  0  0  0
   -0.9211    2.0892   -1.7612 H   0  0  0  0  0  0  0  0  0  0  0  0
  1 11  1  0  0  0  0
  1 10  1  0  0  0  0
  2  1  1  0  0  0  0
  2 13  1  1  0  0  0
  3 14  1  6  0  0  0
  3  4  1  0  0  0  0
  3  2  1  0  0  0  0
  4 15  1  1  0  0  0
  5 16  1  0  0  0  0
  5  4  1  0  0  0  0
  6  8  1  0  0  0  0
  6  4  1  0  0  0  0
  7  6  2  0  0  0  0
  8  9  1  6  0  0  0
  8  3  1  0  0  0  0
  8  2  1  0  0  0  0
 12  1  1  0  0  0  0
 17  5  1  0  0  0  0
 18  5  1  0  0  0  0
 19  9  1  0  0  0  0
M TOR 0 0 1 2 3
M TOR 1 0 1 2 7
M TOR 2 0 1 2 13
M TOR 3 0 1 7 5
M TOR 4 0 1 7 8
M TOR 5 1 2 3 4
M TOR 6 1 2 3 5
M TOR 7 1 2 3 14
M TOR 8 1 2 7 5
M TOR 9 1 2 7 8
M TOR 10 1 7 2 3
M TOR 11 1 7 2 13
M TOR 12 1 7 5 3
M TOR 13 1 7 5 6
M TOR 14 1 7 8 18
M TOR 15 2 1 0 9
M TOR 16 2 1 0 10
M TOR 17 2 1 0 11
M TOR 18 2 3 4 15
M TOR 19 2 3 4 16
M TOR 20 2 3 4 17
M TOR 21 2 3 5 6
M TOR 22 2 3 5 7
M TOR 23 2 7 1 12
M TOR 24 2 7 5 6
M TOR 25 2 7 8 18
M TOR 26 3 2 1 12
M TOR 27 3 2 7 8
M TOR 28 3 5 7 8
M TOR 29 4 3 2 7
M TOR 30 4 3 2 13
M TOR 31 4 3 5 6
M TOR 32 4 3 5 7
M TOR 33 5 3 2 13
M TOR 34 5 3 4 15
M TOR 35 5 3 4 16
M TOR 36 5 3 4 17
M TOR 37 5 7 1 12
M TOR 38 5 7 2 13
M TOR 39 5 7 8 18
M TOR 40 6 5 3 14
M TOR 41 6 5 7 8
M TOR 42 7 1 0 9
M TOR 43 7 1 0 10
M TOR 44 7 1 0 11
M TOR 45 7 2 3 14
M TOR 46 7 5 3 14
M TOR 47 8 7 1 12
M TOR 48 8 7 2 13
M  END
$$$$
