
     RDKit          3D

 19 19  0  0  0  0  0  0  0  0999 V2000
    0.1142   -0.4799   -0.6130 C   0  0  0  0  0  0  0  0  0  0  0  0
    1.4236    0.1364   -0.1576 C   0  0  0  0  0  0  0  0  0  0  0  0
    1.1421    1.0616    0.8868 O   0  0  0  0  0  0  0  0  0  0  0  0
    2.2161    1.7000    1.4040 C   0  0  0  0  0  0  0  0  0  0  0  0
    3.5407    1.6072    1.0910 C   0  0  0  0  0  0  0  0  0  0  0  0
    4.2556    2.4555    1.8927 O   0  0  0  0  0  0  0  0  0  0  0  0
    3.3646    3.0760    2.7060 C   0  0  0  0  0  0  0  0  0  0  0  0
    2.0922    2.6643    2.4655 C   0  0  0  0  0  0  0  0  0  0  0  0
    0.8234    3.0913    3.1304 C   0  0  0  0  0  0  0  0  0  0  0  0
   -0.3742   -1.0020    0.2145 H   0  0  0  0  0  0  0  0  0  0  0  0
   -0.5665    0.2917   -0.9833 H   0  0  0  0  0  0  0  0  0  0  0  0
    0.2959   -1.1980   -1.4178 H   0  0  0  0  0  0  0  0  0  0  0  0
    2.1165   -0.6330    0.2142 H   0  0  0  0  0  0  0  0  0  0  0  0
    1.9240    0.6618   -0.9846 H   0  0  0  0  0  0  0  0  0  0  0  0
    4.1082    1.0338    0.3805 H   0  0  0  0  0  0  0  0  0  0  0  0
    3.7799    3.7846    3.4046 H   0  0  0  0  0  0  0  0  0  0  0  0
    1.0182    3.8380    3.9049 H   0  0  0  0  0  0  0  0  0  0  0  0
    0.1213    3.5251    2.4098 H   0  0  0  0  0  0  0  0  0  0  0  0
    0.3125    2.2425    3.5982 H   0  0  0  0  0  0  0  0  0  0  0  0
  1  2  1  0
  2  3  1  0
  3  4  1  0
  4  5  2  0
  5  6  1  0
  6  7  1  0
  7  8  2  0
  8  9  1  0
  8  4  1  0
  1 10  1  0
  1 11  1  0
  1 12  1  0
  2 13  1  0
  2 14  1  0
  5 15  1  0
  7 16  1  0
  9 17  1  0
  9 18  1  0
  9 19  1  0
M  END
$$$$
