
     RDKit          3D

 19 21  0  0  0  0  0  0  0  0999 V2000
    2.5501    1.2363   -1.8350 O   0  0  0  0  0  0  0  0  0  0  0  0
    3.6225    0.7255   -1.0783 C   0  0  0  0  0  0  0  0  0  0  0  0
    3.4438    0.7558    0.4463 C   0  0  0  0  0  0  0  0  0  0  0  0
    4.6241    0.0974    1.1060 C   0  0  0  0  0  0  0  0  0  0  0  0
    3.5540   -0.7714    0.5139 C   0  0  0  0  0  0  0  0  0  0  0  0
    3.7366   -0.8521   -1.0082 C   0  0  0  0  0  0  0  0  0  0  0  0
    2.6553   -1.5749   -1.7707 C   0  0  0  0  0  0  0  0  0  0  0  0
    1.2956   -1.8147   -1.2562 C   0  0  0  0  0  0  0  0  0  0  0  0
    2.2674   -2.8596   -1.2741 O   0  0  0  0  0  0  0  0  0  0  0  0
    1.7361    0.8393   -1.5066 H   0  0  0  0  0  0  0  0  0  0  0  0
    4.5116    1.2397   -1.4567 H   0  0  0  0  0  0  0  0  0  0  0  0
    2.7882    1.4396    0.9737 H   0  0  0  0  0  0  0  0  0  0  0  0
    5.6087    0.1488    0.6451 H   0  0  0  0  0  0  0  0  0  0  0  0
    4.6397    0.1493    2.1899 H   0  0  0  0  0  0  0  0  0  0  0  0
    3.0021   -1.4874    1.1101 H   0  0  0  0  0  0  0  0  0  0  0  0
    4.7058   -1.2572   -1.3257 H   0  0  0  0  0  0  0  0  0  0  0  0
    2.7673   -1.5406   -2.8548 H   0  0  0  0  0  0  0  0  0  0  0  0
    1.0132   -1.4606   -0.2657 H   0  0  0  0  0  0  0  0  0  0  0  0
    0.4706   -1.9317   -1.9580 H   0  0  0  0  0  0  0  0  0  0  0  0
  1  2  1  0
  2  3  1  0
  3  4  1  0
  4  5  1  0
  5  6  1  0
  6  7  1  0
  7  8  1  0
  8  9  1  0
  6  2  1  0
  9  7  1  0
  5  3  1  0
  1 10  1  0
  2 11  1  0
  3 12  1  0
  4 13  1  0
  4 14  1  0
  5 15  1  0
  6 16  1  0
  7 17  1  0
  8 18  1  0
  8 19  1  0
M  END
$$$$
