gdb 2095	2.2864109	1.6813064	1.499907	2.3351	75.44	-0.22696	0.04963	0.27659	1006.1938	0.154824	-422.499011	-422.490133	-422.489189	-422.53165	34.368
 OpenBabel02181911403D

 19 21  0  0  1  0  0  0  0  0999 V2000
    0.3410   -0.8652    1.2846 C   0  0  0  0  0  0  0  0  0  0  0  0
    1.5904   -0.4378    0.5667 C   0  0  2  0  0  0  0  0  0  0  0  0
    3.0412   -0.9552    0.7267 C   0  0  0  0  0  0  0  0  0  0  0  0
    3.1777    0.1260   -0.3657 C   0  0  2  0  0  0  0  0  0  0  0  0
    2.0940    1.0426    0.3148 C   0  0  2  0  0  0  0  0  0  0  0  0
    2.2745    2.0518    1.2368 O   0  0  0  0  0  0  0  0  0  0  0  0
    1.2804    1.2091   -0.9733 C   0  0  0  0  0  0  0  0  0  0  0  0
    1.7810   -0.2393   -0.9931 C   0  0  2  0  0  0  0  0  0  0  0  0
    1.4980   -1.1287   -2.0080 O   0  0  0  0  0  0  0  0  0  0  0  0
    0.4285   -0.7077    2.3657 H   0  0  0  0  0  0  0  0  0  0  0  0
   -0.5281   -0.2964    0.9362 H   0  0  0  0  0  0  0  0  0  0  0  0
    0.1297   -1.9279    1.1193 H   0  0  0  0  0  0  0  0  0  0  0  0
    3.5353   -0.7609    1.6862 H   0  0  0  0  0  0  0  0  0  0  0  0
    3.2345   -1.9928    0.4293 H   0  0  0  0  0  0  0  0  0  0  0  0
    4.0596    0.4659   -0.9100 H   0  0  0  0  0  0  0  0  0  0  0  0
    2.8464    1.7292    1.9426 H   0  0  0  0  0  0  0  0  0  0  0  0
    0.2023    1.3592   -0.8624 H   0  0  0  0  0  0  0  0  0  0  0  0
    1.6964    1.8802   -1.7306 H   0  0  0  0  0  0  0  0  0  0  0  0
    1.9451   -1.9627   -1.8239 H   0  0  0  0  0  0  0  0  0  0  0  0
  1 10  1  0  0  0  0
  2  3  1  0  0  0  0
  2  1  1  1  0  0  0
  3 13  1  0  0  0  0
  4 15  1  6  0  0  0
  4  5  1  0  0  0  0
  4  3  1  0  0  0  0
  5  2  1  0  0  0  0
  5  6  1  1  0  0  0
  6 16  1  0  0  0  0
  7 17  1  0  0  0  0
  7  5  1  0  0  0  0
  8  9  1  6  0  0  0
  8  7  1  0  0  0  0
  8  4  1  0  0  0  0
  8  2  1  0  0  0  0
  9 19  1  0  0  0  0
 11  1  1  0  0  0  0
 12  1  1  0  0  0  0
 14  3  1  0  0  0  0
 18  7  1  0  0  0  0
M TOR 0 0 1 2 3
M TOR 1 0 1 2 12
M TOR 2 0 1 2 13
M TOR 3 0 1 4 3
M TOR 4 0 1 4 5
M TOR 5 0 1 4 6
M TOR 6 0 1 7 3
M TOR 7 0 1 7 6
M TOR 8 0 1 7 8
M TOR 9 1 2 3 4
M TOR 10 1 2 3 7
M TOR 11 1 2 3 14
M TOR 12 1 4 3 7
M TOR 13 1 4 3 14
M TOR 14 1 4 5 15
M TOR 15 1 4 6 7
M TOR 16 1 4 6 16
M TOR 17 1 4 6 17
M TOR 18 1 7 3 14
M TOR 19 1 7 6 16
M TOR 20 1 7 6 17
M TOR 21 1 7 8 18
M TOR 22 2 1 0 9
M TOR 23 2 1 0 10
M TOR 24 2 1 0 11
M TOR 25 2 1 4 5
M TOR 26 2 1 4 6
M TOR 27 2 1 7 6
M TOR 28 2 1 7 8
M TOR 29 2 3 4 5
M TOR 30 2 3 4 6
M TOR 31 2 3 7 6
M TOR 32 2 3 7 8
M TOR 33 3 4 5 15
M TOR 34 3 4 6 7
M TOR 35 3 4 6 16
M TOR 36 3 4 6 17
M TOR 37 3 7 6 16
M TOR 38 3 7 6 17
M TOR 39 3 7 8 18
M TOR 40 4 1 0 9
M TOR 41 4 1 0 10
M TOR 42 4 1 0 11
M TOR 43 4 1 2 12
M TOR 44 4 1 2 13
M TOR 45 4 1 7 8
M TOR 46 4 3 2 12
M TOR 47 4 3 2 13
M TOR 48 4 3 7 8
M TOR 49 4 6 7 8
M TOR 50 5 4 1 7
M TOR 51 5 4 3 7
M TOR 52 5 4 3 14
M TOR 53 5 4 6 7
M TOR 54 5 4 6 16
M TOR 55 5 4 6 17
M TOR 56 6 4 3 14
M TOR 57 6 4 5 15
M TOR 58 6 7 3 14
M TOR 59 6 7 8 18
M TOR 60 7 1 0 9
M TOR 61 7 1 0 10
M TOR 62 7 1 0 11
M TOR 63 7 1 2 12
M TOR 64 7 1 2 13
M TOR 65 7 3 2 12
M TOR 66 7 3 2 13
M TOR 67 8 7 3 14
M TOR 68 8 7 6 16
M TOR 69 8 7 6 17
M  END
$$$$
