
     RDKit          3D

 19 18  0  0  0  0  0  0  0  0999 V2000
    1.6343    0.1169   -0.1780 C   0  0  0  0  0  0  0  0  0  0  0  0
    0.1816    0.0607   -0.1029 C   0  0  0  0  0  0  0  0  0  0  0  0
   -1.0209    0.0196   -0.0427 C   0  0  0  0  0  0  0  0  0  0  0  0
   -2.4867   -0.0350    0.0240 C   0  0  0  0  0  0  0  0  0  0  0  0
   -3.1458    0.7631   -1.1009 C   0  0  0  0  0  0  0  0  0  0  0  0
   -2.9791   -1.3700   -0.0807 O   0  0  0  0  0  0  0  0  0  0  0  0
   -2.5890   -2.2221    0.9680 C   0  0  0  0  0  0  0  0  0  0  0  0
   -3.1411   -3.6051    0.6776 C   0  0  0  0  0  0  0  0  0  0  0  0
   -3.1069   -4.5158    1.4618 O   0  0  0  0  0  0  0  0  0  0  0  0
    2.0918   -0.0144    0.8085 H   0  0  0  0  0  0  0  0  0  0  0  0
    2.0266   -0.6666   -0.8353 H   0  0  0  0  0  0  0  0  0  0  0  0
    1.9703    1.0809   -0.5754 H   0  0  0  0  0  0  0  0  0  0  0  0
   -2.8067    0.3822    0.9942 H   0  0  0  0  0  0  0  0  0  0  0  0
   -2.8481    0.3574   -2.0708 H   0  0  0  0  0  0  0  0  0  0  0  0
   -4.2329    0.6995   -1.0085 H   0  0  0  0  0  0  0  0  0  0  0  0
   -2.8413    1.8111   -1.0494 H   0  0  0  0  0  0  0  0  0  0  0  0
   -1.4922   -2.2928    1.0488 H   0  0  0  0  0  0  0  0  0  0  0  0
   -2.9663   -1.8803    1.9457 H   0  0  0  0  0  0  0  0  0  0  0  0
   -3.5766   -3.7058   -0.3411 H   0  0  0  0  0  0  0  0  0  0  0  0
  1  2  1  0
  2  3  3  0
  3  4  1  0
  4  5  1  0
  4  6  1  0
  6  7  1  0
  7  8  1  0
  8  9  2  0
  1 10  1  0
  1 11  1  0
  1 12  1  0
  4 13  1  0
  5 14  1  0
  5 15  1  0
  5 16  1  0
  7 17  1  0
  7 18  1  0
  8 19  1  0
M  END
$$$$
