gdb 3824	2.0517612	1.6250683	1.0874164	3.7857	76.12	-0.23616	-0.02111	0.21505000000000002	1156.5307	0.155191	-422.552531	-422.543679	-422.542735	-422.586172	33.6
 OpenBabel02181911413D

 19 20  0  0  1  0  0  0  0  0999 V2000
   -3.1438    0.0540    1.1728 C   0  0  0  0  0  0  0  0  0  0  0  0
   -2.1488   -0.1733    0.0550 C   0  0  2  0  0  0  0  0  0  0  0  0
   -2.6367   -0.8634   -1.2454 C   0  0  0  0  0  0  0  0  0  0  0  0
   -1.3562   -1.7430   -1.2803 C   0  0  2  0  0  0  0  0  0  0  0  0
   -1.5169   -3.1286   -1.4202 O   0  0  0  0  0  0  0  0  0  0  0  0
   -0.9510   -1.2072    0.1506 C   0  0  1  0  0  0  0  0  0  0  0  0
    0.0242   -0.0411    0.0677 C   0  0  0  0  0  0  0  0  0  0  0  0
    1.2079    0.0685    0.2135 O   0  0  0  0  0  0  0  0  0  0  0  0
   -1.1096    0.9724   -0.1880 C   0  0  0  0  0  0  0  0  0  0  0  0
   -3.6998   -0.8608    1.4057 H   0  0  0  0  0  0  0  0  0  0  0  0
   -2.6449    0.3842    2.0910 H   0  0  0  0  0  0  0  0  0  0  0  0
   -3.8745    0.8242    0.8978 H   0  0  0  0  0  0  0  0  0  0  0  0
   -3.5198   -1.4869   -1.0637 H   0  0  0  0  0  0  0  0  0  0  0  0
   -2.8407   -0.2304   -2.1139 H   0  0  0  0  0  0  0  0  0  0  0  0
   -0.6400   -1.4610   -2.0564 H   0  0  0  0  0  0  0  0  0  0  0  0
   -2.1645   -3.4276   -0.7725 H   0  0  0  0  0  0  0  0  0  0  0  0
   -0.8177   -1.9719    0.9182 H   0  0  0  0  0  0  0  0  0  0  0  0
   -1.1319    1.7739    0.5574 H   0  0  0  0  0  0  0  0  0  0  0  0
   -1.1094    1.4303   -1.1822 H   0  0  0  0  0  0  0  0  0  0  0  0
  1 10  1  0  0  0  0
  1 11  1  0  0  0  0
  2  6  1  0  0  0  0
  2  1  1  1  0  0  0
  3 13  1  0  0  0  0
  3  2  1  0  0  0  0
  4 15  1  6  0  0  0
  4  3  1  0  0  0  0
  4  6  1  0  0  0  0
  5  4  1  0  0  0  0
  5 16  1  0  0  0  0
  6 17  1  1  0  0  0
  7  6  1  0  0  0  0
  7  8  2  0  0  0  0
  9  2  1  0  0  0  0
  9  7  1  0  0  0  0
  9 18  1  0  0  0  0
 12  1  1  0  0  0  0
 14  3  1  0  0  0  0
 19  9  1  0  0  0  0
M TOR 0 0 1 2 3
M TOR 1 0 1 2 12
M TOR 2 0 1 2 13
M TOR 3 0 1 5 3
M TOR 4 0 1 5 6
M TOR 5 0 1 5 16
M TOR 6 0 1 8 6
M TOR 7 0 1 8 17
M TOR 8 0 1 8 18
M TOR 9 1 2 3 4
M TOR 10 1 2 3 5
M TOR 11 1 2 3 14
M TOR 12 1 5 3 4
M TOR 13 1 5 3 14
M TOR 14 1 5 6 7
M TOR 15 1 5 6 8
M TOR 16 1 8 6 7
M TOR 17 2 1 0 9
M TOR 18 2 1 0 10
M TOR 19 2 1 0 11
M TOR 20 2 1 5 6
M TOR 21 2 1 5 16
M TOR 22 2 1 8 6
M TOR 23 2 1 8 17
M TOR 24 2 1 8 18
M TOR 25 2 3 4 15
M TOR 26 2 3 5 6
M TOR 27 2 3 5 16
M TOR 28 3 2 1 8
M TOR 29 3 5 1 8
M TOR 30 3 5 6 7
M TOR 31 3 5 6 8
M TOR 32 4 3 2 12
M TOR 33 4 3 2 13
M TOR 34 4 3 5 6
M TOR 35 4 3 5 16
M TOR 36 5 1 0 9
M TOR 37 5 1 0 10
M TOR 38 5 1 0 11
M TOR 39 5 1 2 12
M TOR 40 5 1 2 13
M TOR 41 5 1 8 17
M TOR 42 5 1 8 18
M TOR 43 5 3 2 12
M TOR 44 5 3 2 13
M TOR 45 5 3 4 15
M TOR 46 5 6 8 17
M TOR 47 5 6 8 18
M TOR 48 6 5 3 14
M TOR 49 7 6 5 16
M TOR 50 7 6 8 17
M TOR 51 7 6 8 18
M TOR 52 8 1 0 9
M TOR 53 8 1 0 10
M TOR 54 8 1 0 11
M TOR 55 8 1 2 12
M TOR 56 8 1 2 13
M TOR 57 8 1 5 16
M TOR 58 8 6 5 16
M  END
$$$$
