gdb 4172	2.7460772	1.4208074	1.242594	3.0328	74.86	-0.2511	-0.0284	0.22269999999999998	1072.8439	0.157708	-422.560195	-422.552114	-422.55117	-422.592873	31.005
 OpenBabel02181911413D

 19 20  0  0  1  0  0  0  0  0999 V2000
    1.0461    2.0874   -3.9536 O   0  0  0  0  0  0  0  0  0  0  0  0
    1.2553    1.2813   -2.8118 C   0  0  2  0  0  0  0  0  0  0  0  0
    1.6282   -0.2141   -3.0913 C   0  0  0  0  0  0  0  0  0  0  0  0
    0.5052   -0.9088   -2.2932 C   0  0  2  0  0  0  0  0  0  0  0  0
   -0.7402   -0.0764   -2.7157 C   0  0  0  0  0  0  0  0  0  0  0  0
   -0.0067    1.0608   -1.9451 C   0  0  1  0  0  0  0  0  0  0  0  0
    0.4604   -0.0834   -0.9731 C   0  0  2  0  0  0  0  0  0  0  0  0
    1.6603    0.1106   -0.0900 C   0  0  0  0  0  0  0  0  0  0  0  0
    2.7311   -0.4280   -0.2292 O   0  0  0  0  0  0  0  0  0  0  0  0
    0.4022    1.6506   -4.5205 H   0  0  0  0  0  0  0  0  0  0  0  0
    2.0396    1.7981   -2.2523 H   0  0  0  0  0  0  0  0  0  0  0  0
    1.5664   -0.4312   -4.1626 H   0  0  0  0  0  0  0  0  0  0  0  0
    2.6242   -0.4791   -2.7375 H   0  0  0  0  0  0  0  0  0  0  0  0
    0.4922   -1.9978   -2.2793 H   0  0  0  0  0  0  0  0  0  0  0  0
   -0.9266    0.0559   -3.7870 H   0  0  0  0  0  0  0  0  0  0  0  0
   -1.6617   -0.3919   -2.2220 H   0  0  0  0  0  0  0  0  0  0  0  0
   -0.5198    1.9517   -1.5838 H   0  0  0  0  0  0  0  0  0  0  0  0
   -0.3813   -0.3725   -0.3309 H   0  0  0  0  0  0  0  0  0  0  0  0
    1.4877    0.8165    0.7572 H   0  0  0  0  0  0  0  0  0  0  0  0
  1  2  1  0  0  0  0
  2 11  1  1  0  0  0
  2  6  1  0  0  0  0
  3  2  1  0  0  0  0
  3 13  1  0  0  0  0
  3  4  1  0  0  0  0
  4 14  1  1  0  0  0
  4  7  1  0  0  0  0
  5  4  1  0  0  0  0
  5 16  1  0  0  0  0
  5  6  1  0  0  0  0
  6 17  1  1  0  0  0
  6  7  1  0  0  0  0
  7 18  1  1  0  0  0
  7  8  1  0  0  0  0
  8 19  1  0  0  0  0
  9  8  2  0  0  0  0
 10  1  1  0  0  0  0
 12  3  1  0  0  0  0
 15  5  1  0  0  0  0
M TOR 0 0 1 2 3
M TOR 1 0 1 2 11
M TOR 2 0 1 2 12
M TOR 3 0 1 5 4
M TOR 4 0 1 5 6
M TOR 5 0 1 5 16
M TOR 6 1 2 3 4
M TOR 7 1 2 3 6
M TOR 8 1 2 3 13
M TOR 9 1 5 4 3
M TOR 10 1 5 4 14
M TOR 11 1 5 4 15
M TOR 12 1 5 6 3
M TOR 13 1 5 6 7
M TOR 14 1 5 6 17
M TOR 15 2 1 0 9
M TOR 16 2 1 5 4
M TOR 17 2 1 5 6
M TOR 18 2 1 5 16
M TOR 19 2 3 4 5
M TOR 20 2 3 4 14
M TOR 21 2 3 4 15
M TOR 22 2 3 6 5
M TOR 23 2 3 6 7
M TOR 24 2 3 6 17
M TOR 25 3 2 1 5
M TOR 26 3 2 1 10
M TOR 27 3 4 5 6
M TOR 28 3 4 5 16
M TOR 29 3 6 5 16
M TOR 30 3 6 7 8
M TOR 31 3 6 7 18
M TOR 32 4 3 2 11
M TOR 33 4 3 2 12
M TOR 34 4 3 6 7
M TOR 35 4 3 6 17
M TOR 36 4 5 1 10
M TOR 37 4 5 6 7
M TOR 38 4 5 6 17
M TOR 39 5 1 0 9
M TOR 40 5 1 2 11
M TOR 41 5 1 2 12
M TOR 42 5 4 3 13
M TOR 43 5 6 3 13
M TOR 44 5 6 7 8
M TOR 45 5 6 7 18
M TOR 46 6 3 2 11
M TOR 47 6 3 2 12
M TOR 48 6 3 4 14
M TOR 49 6 3 4 15
M TOR 50 6 5 1 10
M TOR 51 6 5 4 14
M TOR 52 6 5 4 15
M TOR 53 7 6 3 13
M TOR 54 7 6 5 16
M TOR 55 8 7 6 17
M  END
$$$$
