
     RDKit          3D

 19 20  0  0  0  0  0  0  0  0999 V2000
   -0.8973   -1.4553   -2.5157 O   0  0  0  0  0  0  0  0  0  0  0  0
   -0.9922   -2.0519   -1.2476 C   0  0  0  0  0  0  0  0  0  0  0  0
   -1.8378   -3.2894   -1.2038 C   0  0  0  0  0  0  0  0  0  0  0  0
   -0.3325   -3.3963   -1.0590 C   0  0  0  0  0  0  0  0  0  0  0  0
   -1.0293   -1.0558   -0.1171 C   0  0  0  0  0  0  0  0  0  0  0  0
   -2.1464    0.0420   -0.0651 C   0  0  0  0  0  0  0  0  0  0  0  0
   -1.0751    1.1325    0.2446 C   0  0  0  0  0  0  0  0  0  0  0  0
   -0.0285    0.1139   -0.2197 C   0  0  0  0  0  0  0  0  0  0  0  0
    1.0598    0.2038   -0.7171 O   0  0  0  0  0  0  0  0  0  0  0  0
   -0.0137   -1.0698   -2.5779 H   0  0  0  0  0  0  0  0  0  0  0  0
   -2.4590   -3.4631   -0.3320 H   0  0  0  0  0  0  0  0  0  0  0  0
   -2.2711   -3.6054   -2.1454 H   0  0  0  0  0  0  0  0  0  0  0  0
    0.0827   -3.6473   -0.0889 H   0  0  0  0  0  0  0  0  0  0  0  0
    0.2195   -3.7850   -1.9069 H   0  0  0  0  0  0  0  0  0  0  0  0
   -0.9310   -1.5565    0.8525 H   0  0  0  0  0  0  0  0  0  0  0  0
   -2.5952    0.1827   -1.0498 H   0  0  0  0  0  0  0  0  0  0  0  0
   -2.9284   -0.1001    0.6808 H   0  0  0  0  0  0  0  0  0  0  0  0
   -1.1070    2.0780   -0.3009 H   0  0  0  0  0  0  0  0  0  0  0  0
   -0.9837    1.3431    1.3154 H   0  0  0  0  0  0  0  0  0  0  0  0
  1  2  1  0
  2  3  1  0
  3  4  1  0
  2  5  1  0
  5  6  1  0
  6  7  1  0
  7  8  1  0
  8  9  2  0
  4  2  1  0
  8  5  1  0
  1 10  1  0
  3 11  1  0
  3 12  1  0
  4 13  1  0
  4 14  1  0
  5 15  1  0
  6 16  1  0
  6 17  1  0
  7 18  1  0
  7 19  1  0
M  END
$$$$
