gdb 2644	1.7488317	1.5133237	1.1188107	3.5326	78.69	-0.24528	-0.0323	0.21298	1216.0368	0.153737	-422.571249	-422.561271	-422.560326	-422.605863	35.504
 OpenBabel02181911413D

 19 19  0  0  1  0  0  0  0  0999 V2000
    3.1626   -2.0032    1.6333 C   0  0  0  0  0  0  0  0  0  0  0  0
    2.0186   -1.4618    0.8046 C   0  0  2  0  0  0  0  0  0  0  0  0
    1.3755   -2.2178   -0.2853 C   0  0  1  0  0  0  0  0  0  0  0  0
   -0.1187   -2.2662   -0.5056 C   0  0  0  0  0  0  0  0  0  0  0  0
    2.2136   -0.9458   -0.6454 C   0  0  0  0  0  0  0  0  0  0  0  0
    3.4854   -1.2010   -1.3656 C   0  0  0  0  0  0  0  0  0  0  0  0
    3.9857   -0.4440   -2.1634 O   0  0  0  0  0  0  0  0  0  0  0  0
    1.5125    0.3219   -0.9958 C   0  0  0  0  0  0  0  0  0  0  0  0
    0.5452    0.7543   -0.4091 O   0  0  0  0  0  0  0  0  0  0  0  0
    2.7646   -2.5094    2.5192 H   0  0  0  0  0  0  0  0  0  0  0  0
    3.7681   -2.7308    1.0868 H   0  0  0  0  0  0  0  0  0  0  0  0
    3.8225   -1.2005    1.9767 H   0  0  0  0  0  0  0  0  0  0  0  0
    1.3516   -0.7823    1.3317 H   0  0  0  0  0  0  0  0  0  0  0  0
    1.9017   -3.1249   -0.5827 H   0  0  0  0  0  0  0  0  0  0  0  0
   -0.5513   -3.0631    0.1091 H   0  0  0  0  0  0  0  0  0  0  0  0
   -0.5913   -1.3222   -0.2318 H   0  0  0  0  0  0  0  0  0  0  0  0
   -0.3572   -2.4841   -1.5513 H   0  0  0  0  0  0  0  0  0  0  0  0
    3.9650   -2.1786   -1.1356 H   0  0  0  0  0  0  0  0  0  0  0  0
    1.9582    0.8597   -1.8528 H   0  0  0  0  0  0  0  0  0  0  0  0
  1 12  1  0  0  0  0
  1 10  1  0  0  0  0
  2 13  1  1  0  0  0
  2  1  1  0  0  0  0
  3 14  1  6  0  0  0
  3  2  1  0  0  0  0
  4  3  1  0  0  0  0
  4 16  1  0  0  0  0
  4 15  1  0  0  0  0
  5  3  1  0  0  0  0
  5  2  1  0  0  0  0
  6 18  1  0  0  0  0
  6  5  1  0  0  0  0
  7  6  2  0  0  0  0
  8  5  1  0  0  0  0
  8  9  2  0  0  0  0
 11  1  1  0  0  0  0
 17  4  1  0  0  0  0
 19  8  1  0  0  0  0
M TOR 0 0 1 2 3
M TOR 1 0 1 2 4
M TOR 2 0 1 2 13
M TOR 3 0 1 4 5
M TOR 4 0 1 4 7
M TOR 5 1 2 3 14
M TOR 6 1 2 3 15
M TOR 7 1 2 3 16
M TOR 8 1 2 4 5
M TOR 9 1 2 4 7
M TOR 10 1 4 2 3
M TOR 11 1 4 2 13
M TOR 12 1 4 5 6
M TOR 13 1 4 5 17
M TOR 14 1 4 7 8
M TOR 15 1 4 7 18
M TOR 16 2 1 0 9
M TOR 17 2 1 0 10
M TOR 18 2 1 0 11
M TOR 19 2 4 1 12
M TOR 20 2 4 5 6
M TOR 21 2 4 5 17
M TOR 22 2 4 7 8
M TOR 23 2 4 7 18
M TOR 24 3 2 1 12
M TOR 25 3 2 4 5
M TOR 26 3 2 4 7
M TOR 27 4 1 0 9
M TOR 28 4 1 0 10
M TOR 29 4 1 0 11
M TOR 30 4 2 3 14
M TOR 31 4 2 3 15
M TOR 32 4 2 3 16
M TOR 33 5 4 1 12
M TOR 34 5 4 2 13
M TOR 35 5 4 7 8
M TOR 36 5 4 7 18
M TOR 37 6 5 4 7
M TOR 38 7 4 1 12
M TOR 39 7 4 2 13
M TOR 40 7 4 5 17
M  END
$$$$
