
     RDKit          3D

 19 21  0  0  0  0  0  0  0  0999 V2000
    0.6734    1.3647   -0.0538 C   0  0  0  0  0  0  0  0  0  0  0  0
    0.0587    0.0681   -0.0745 O   0  0  0  0  0  0  0  0  0  0  0  0
    1.4811    0.1431    0.0359 C   0  0  0  0  0  0  0  0  0  0  0  0
    2.2243   -0.4320   -1.1737 C   0  0  0  0  0  0  0  0  0  0  0  0
    3.6001   -0.6985   -0.9124 O   0  0  0  0  0  0  0  0  0  0  0  0
    3.8904   -0.9907    0.4489 C   0  0  0  0  0  0  0  0  0  0  0  0
    2.7150   -1.7115    1.1653 C   0  0  0  0  0  0  0  0  0  0  0  0
    2.1139   -0.2844    1.3439 C   0  0  0  0  0  0  0  0  0  0  0  0
    3.5802    0.2439    1.3364 C   0  0  0  0  0  0  0  0  0  0  0  0
    0.6264    1.9173   -0.9916 H   0  0  0  0  0  0  0  0  0  0  0  0
    0.4801    1.9565    0.8409 H   0  0  0  0  0  0  0  0  0  0  0  0
    1.7074   -1.3594   -1.4599 H   0  0  0  0  0  0  0  0  0  0  0  0
    2.1863    0.2438   -2.0324 H   0  0  0  0  0  0  0  0  0  0  0  0
    4.8890   -1.4300    0.4597 H   0  0  0  0  0  0  0  0  0  0  0  0
    2.1466   -2.4637    0.6138 H   0  0  0  0  0  0  0  0  0  0  0  0
    3.0405   -2.1303    2.1202 H   0  0  0  0  0  0  0  0  0  0  0  0
    1.4607   -0.0729    2.1925 H   0  0  0  0  0  0  0  0  0  0  0  0
    3.7772    1.2262    0.8996 H   0  0  0  0  0  0  0  0  0  0  0  0
    4.0441    0.1705    2.3232 H   0  0  0  0  0  0  0  0  0  0  0  0
  1  2  1  0
  2  3  1  0
  3  4  1  0
  4  5  1  0
  5  6  1  0
  6  7  1  0
  7  8  1  0
  8  9  1  0
  3  1  1  0
  8  3  1  0
  9  6  1  0
  1 10  1  0
  1 11  1  0
  4 12  1  0
  4 13  1  0
  6 14  1  0
  7 15  1  0
  7 16  1  0
  8 17  1  0
  9 18  1  0
  9 19  1  0
M  END
$$$$
