
     RDKit          3D

 19 20  0  0  0  0  0  0  0  0999 V2000
   -1.0264   -1.9218    2.5089 C   0  0  0  0  0  0  0  0  0  0  0  0
   -1.7177   -1.3345    1.2689 C   0  0  0  0  0  0  0  0  0  0  0  0
   -0.7603   -1.2605    0.0512 C   0  0  0  0  0  0  0  0  0  0  0  0
    0.0556    0.0208   -0.0119 C   0  0  0  0  0  0  0  0  0  0  0  0
    1.2607    0.0375   -0.0713 O   0  0  0  0  0  0  0  0  0  0  0  0
   -0.7819    1.2968   -0.0577 C   0  0  0  0  0  0  0  0  0  0  0  0
   -1.8975    1.2766    0.9619 C   0  0  0  0  0  0  0  0  0  0  0  0
   -1.4895    0.9504    2.2926 O   0  0  0  0  0  0  0  0  0  0  0  0
   -2.3331    0.0201    1.5985 C   0  0  0  0  0  0  0  0  0  0  0  0
   -0.6516   -2.9282    2.3001 H   0  0  0  0  0  0  0  0  0  0  0  0
   -0.1859   -1.2934    2.8143 H   0  0  0  0  0  0  0  0  0  0  0  0
   -1.7212   -1.9855    3.3525 H   0  0  0  0  0  0  0  0  0  0  0  0
   -2.5457   -1.9987    0.9937 H   0  0  0  0  0  0  0  0  0  0  0  0
   -0.0765   -2.1122    0.0346 H   0  0  0  0  0  0  0  0  0  0  0  0
   -1.3609   -1.2914   -0.8684 H   0  0  0  0  0  0  0  0  0  0  0  0
   -0.1258    2.1578    0.0978 H   0  0  0  0  0  0  0  0  0  0  0  0
   -1.2133    1.3850   -1.0651 H   0  0  0  0  0  0  0  0  0  0  0  0
   -2.6081    2.1021    0.9022 H   0  0  0  0  0  0  0  0  0  0  0  0
   -3.3466   -0.0188    2.0004 H   0  0  0  0  0  0  0  0  0  0  0  0
  1  2  1  0
  2  3  1  0
  3  4  1  0
  4  5  2  0
  4  6  1  0
  6  7  1  0
  7  8  1  0
  8  9  1  0
  9  2  1  0
  9  7  1  0
  1 10  1  0
  1 11  1  0
  1 12  1  0
  2 13  1  0
  3 14  1  0
  3 15  1  0
  6 16  1  0
  6 17  1  0
  7 18  1  0
  9 19  1  0
M  END
$$$$
