
     RDKit          3D

 19 19  0  0  0  0  0  0  0  0999 V2000
   -0.8280    1.8956    2.7400 C   0  0  0  0  0  0  0  0  0  0  0  0
   -0.8055    3.1325    1.8597 C   0  0  0  0  0  0  0  0  0  0  0  0
   -1.0329    4.2354    2.2782 O   0  0  0  0  0  0  0  0  0  0  0  0
   -0.5279    2.9830    0.5403 O   0  0  0  0  0  0  0  0  0  0  0  0
   -0.1990    1.7120   -0.0555 C   0  0  0  0  0  0  0  0  0  0  0  0
    1.3248    1.4299   -0.0462 C   0  0  0  0  0  0  0  0  0  0  0  0
    1.6666    0.9160   -1.4686 C   0  0  0  0  0  0  0  0  0  0  0  0
    0.4613    1.3226   -2.2803 C   0  0  0  0  0  0  0  0  0  0  0  0
   -0.5417    1.7560   -1.5216 C   0  0  0  0  0  0  0  0  0  0  0  0
   -1.6460    1.2254    2.4563 H   0  0  0  0  0  0  0  0  0  0  0  0
    0.1038    1.3276    2.6736 H   0  0  0  0  0  0  0  0  0  0  0  0
   -0.9826    2.2245    3.7666 H   0  0  0  0  0  0  0  0  0  0  0  0
   -0.7705    0.9262    0.4515 H   0  0  0  0  0  0  0  0  0  0  0  0
    1.8297    2.3814    0.1421 H   0  0  0  0  0  0  0  0  0  0  0  0
    1.6237    0.7318    0.7394 H   0  0  0  0  0  0  0  0  0  0  0  0
    2.5999    1.3382   -1.8571 H   0  0  0  0  0  0  0  0  0  0  0  0
    1.7950   -0.1745   -1.4843 H   0  0  0  0  0  0  0  0  0  0  0  0
    0.4305    1.2324   -3.3605 H   0  0  0  0  0  0  0  0  0  0  0  0
   -1.5160    2.0830   -1.8637 H   0  0  0  0  0  0  0  0  0  0  0  0
  1  2  1  0
  2  3  2  0
  2  4  1  0
  4  5  1  0
  5  6  1  0
  6  7  1  0
  7  8  1  0
  8  9  2  0
  9  5  1  0
  1 10  1  0
  1 11  1  0
  1 12  1  0
  5 13  1  0
  6 14  1  0
  6 15  1  0
  7 16  1  0
  7 17  1  0
  8 18  1  0
  9 19  1  0
M  END
$$$$
