gdb 3484	2.8577968	1.6317653	1.3976073	1.1537	74.61	-0.2435	-0.00318	0.24032	986.1807	0.159946	-422.576339	-422.568912	-422.567968	-422.607872	29.779
 OpenBabel02181911413D

 19 20  0  0  1  0  0  0  0  0999 V2000
    0.3630   -0.1646    0.3225 O   0  0  0  0  0  0  0  0  0  0  0  0
   -0.9464    0.2125    0.7505 C   0  0  1  0  0  0  0  0  0  0  0  0
   -0.9106    0.8221    2.1340 C   0  0  0  0  0  0  0  0  0  0  0  0
   -1.3156    2.0720    2.3660 C   0  0  0  0  0  0  0  0  0  0  0  0
   -1.8830    2.9143    1.2349 C   0  0  1  0  0  0  0  0  0  0  0  0
   -1.1339    2.5942   -0.0629 C   0  0  0  0  0  0  0  0  0  0  0  0
   -1.6503    1.1562   -0.2512 C   0  0  2  0  0  0  0  0  0  0  0  0
   -3.1433    1.3398    0.1109 C   0  0  0  0  0  0  0  0  0  0  0  0
   -3.2293    2.5104    0.9348 O   0  0  0  0  0  0  0  0  0  0  0  0
    0.9493    0.5820    0.4848 H   0  0  0  0  0  0  0  0  0  0  0  0
   -1.4985   -0.7352    0.7800 H   0  0  0  0  0  0  0  0  0  0  0  0
   -0.5094    0.1970    2.9277 H   0  0  0  0  0  0  0  0  0  0  0  0
   -1.2910    2.4930    3.3670 H   0  0  0  0  0  0  0  0  0  0  0  0
   -1.9187    3.9739    1.4949 H   0  0  0  0  0  0  0  0  0  0  0  0
   -1.4673    3.2509   -0.8713 H   0  0  0  0  0  0  0  0  0  0  0  0
   -0.0476    2.6699    0.0261 H   0  0  0  0  0  0  0  0  0  0  0  0
   -1.5133    0.7631   -1.2603 H   0  0  0  0  0  0  0  0  0  0  0  0
   -3.7590    1.5055   -0.7807 H   0  0  0  0  0  0  0  0  0  0  0  0
   -3.5463    0.4709    0.6475 H   0  0  0  0  0  0  0  0  0  0  0  0
  1 10  1  0  0  0  0
  1  2  1  0  0  0  0
  2 11  1  1  0  0  0
  2  3  1  0  0  0  0
  3  4  2  0  0  0  0
  3 12  1  0  0  0  0
  4 13  1  0  0  0  0
  5 14  1  1  0  0  0
  5  4  1  0  0  0  0
  6 16  1  0  0  0  0
  6  5  1  0  0  0  0
  7 17  1  6  0  0  0
  7  6  1  0  0  0  0
  7  8  1  0  0  0  0
  7  2  1  0  0  0  0
  8 19  1  0  0  0  0
  8  9  1  0  0  0  0
  9  5  1  0  0  0  0
 15  6  1  0  0  0  0
 18  8  1  0  0  0  0
M TOR 0 0 1 2 3
M TOR 1 0 1 2 11
M TOR 2 0 1 6 5
M TOR 3 0 1 6 7
M TOR 4 0 1 6 16
M TOR 5 1 2 3 4
M TOR 6 1 2 3 12
M TOR 7 1 6 5 4
M TOR 8 1 6 5 14
M TOR 9 1 6 5 15
M TOR 10 1 6 7 8
M TOR 11 1 6 7 17
M TOR 12 1 6 7 18
M TOR 13 2 1 0 9
M TOR 14 2 1 6 5
M TOR 15 2 1 6 7
M TOR 16 2 1 6 16
M TOR 17 2 3 4 5
M TOR 18 2 3 4 8
M TOR 19 2 3 4 13
M TOR 20 3 2 1 6
M TOR 21 3 2 1 10
M TOR 22 3 4 5 6
M TOR 23 3 4 5 14
M TOR 24 3 4 5 15
M TOR 25 3 4 8 7
M TOR 26 4 3 2 11
M TOR 27 4 5 6 7
M TOR 28 4 5 6 16
M TOR 29 4 8 7 6
M TOR 30 4 8 7 17
M TOR 31 4 8 7 18
M TOR 32 5 4 3 12
M TOR 33 5 4 8 7
M TOR 34 5 6 1 10
M TOR 35 5 6 7 8
M TOR 36 5 6 7 17
M TOR 37 5 6 7 18
M TOR 38 6 1 0 9
M TOR 39 6 1 2 11
M TOR 40 6 5 4 8
M TOR 41 6 5 4 13
M TOR 42 7 6 1 10
M TOR 43 7 6 5 14
M TOR 44 7 6 5 15
M TOR 45 7 8 4 13
M TOR 46 8 4 3 12
M TOR 47 8 4 5 14
M TOR 48 8 4 5 15
M TOR 49 8 7 6 16
M  END
$$$$
