gdb 1466	3.320842	1.243154	1.168438	0.9506	75.96	-0.24592	0.07308	0.319	1131.4266	0.155216	-422.505427	-422.496863	-422.495919	-422.538016	33.44
 OpenBabel02181911403D

 19 21  0  0  1  0  0  0  0  0999 V2000
   -0.0418   -0.4474   -0.2043 C   0  0  0  0  0  0  0  0  0  0  0  0
    1.3357    0.1041    0.0863 C   0  0  2  0  0  0  0  0  0  0  0  0
    1.7879   -0.1818    1.3896 O   0  0  0  0  0  0  0  0  0  0  0  0
    1.8442    1.4450   -0.3372 C   0  0  2  0  0  0  0  0  0  0  0  0
    1.3303    1.8552   -1.7242 C   0  0  0  0  0  0  0  0  0  0  0  0
    1.9773    0.5705   -2.2836 C   0  0  2  0  0  0  0  0  0  0  0  0
    2.5997    0.3642   -3.5896 C   0  0  0  0  0  0  0  0  0  0  0  0
    1.3779   -0.3004   -3.2361 O   0  0  0  0  0  0  0  0  0  0  0  0
    2.4690    0.1502   -0.9237 C   0  0  2  0  0  0  0  0  0  0  0  0
   -0.7710   -0.0343    0.5001 H   0  0  0  0  0  0  0  0  0  0  0  0
   -0.3703   -0.2357   -1.2230 H   0  0  0  0  0  0  0  0  0  0  0  0
   -0.0403   -1.5383   -0.0885 H   0  0  0  0  0  0  0  0  0  0  0  0
    1.8540   -1.1398    1.4711 H   0  0  0  0  0  0  0  0  0  0  0  0
    2.2839    2.1111    0.3932 H   0  0  0  0  0  0  0  0  0  0  0  0
    0.2474    1.9488   -1.8451 H   0  0  0  0  0  0  0  0  0  0  0  0
    1.8089    2.7612   -2.1044 H   0  0  0  0  0  0  0  0  0  0  0  0
    2.5115    1.1319   -4.3582 H   0  0  0  0  0  0  0  0  0  0  0  0
    3.4719   -0.2830   -3.6802 H   0  0  0  0  0  0  0  0  0  0  0  0
    3.4228   -0.3115   -0.6972 H   0  0  0  0  0  0  0  0  0  0  0  0
  1 12  1  0  0  0  0
  1  2  1  0  0  0  0
  1 10  1  0  0  0  0
  2  3  1  1  0  0  0
  3 13  1  0  0  0  0
  4  2  1  0  0  0  0
  4 14  1  1  0  0  0
  5  4  1  0  0  0  0
  6  8  1  6  0  0  0
  6  5  1  0  0  0  0
  6  9  1  0  0  0  0
  7  8  1  0  0  0  0
  7  6  1  0  0  0  0
  9 19  1  1  0  0  0
  9  4  1  0  0  0  0
  9  2  1  0  0  0  0
 11  1  1  0  0  0  0
 15  5  1  0  0  0  0
 16  5  1  0  0  0  0
 17  7  1  0  0  0  0
 18  7  1  0  0  0  0
M TOR 0 0 1 2 12
M TOR 1 0 1 3 4
M TOR 2 0 1 3 8
M TOR 3 0 1 3 13
M TOR 4 0 1 8 5
M TOR 5 0 1 8 18
M TOR 6 1 3 4 5
M TOR 7 1 3 4 14
M TOR 8 1 3 4 15
M TOR 9 1 3 8 5
M TOR 10 1 3 8 18
M TOR 11 1 8 3 4
M TOR 12 1 8 3 13
M TOR 13 1 8 5 4
M TOR 14 1 8 5 6
M TOR 15 1 8 5 7
M TOR 16 2 1 0 9
M TOR 17 2 1 0 10
M TOR 18 2 1 0 11
M TOR 19 2 1 3 4
M TOR 20 2 1 3 8
M TOR 21 2 1 3 13
M TOR 22 2 1 8 5
M TOR 23 2 1 8 18
M TOR 24 3 1 0 9
M TOR 25 3 1 0 10
M TOR 26 3 1 0 11
M TOR 27 3 1 2 12
M TOR 28 3 4 5 6
M TOR 29 3 4 5 7
M TOR 30 3 4 5 8
M TOR 31 3 8 5 6
M TOR 32 3 8 5 7
M TOR 33 4 3 8 18
M TOR 34 4 5 6 7
M TOR 35 4 5 6 16
M TOR 36 4 5 6 17
M TOR 37 4 5 8 18
M TOR 38 5 4 3 13
M TOR 39 5 7 6 16
M TOR 40 5 7 6 17
M TOR 41 5 8 3 13
M TOR 42 6 5 4 14
M TOR 43 6 5 4 15
M TOR 44 6 5 8 18
M TOR 45 6 7 5 8
M TOR 46 7 5 4 14
M TOR 47 7 5 4 15
M TOR 48 7 5 8 18
M TOR 49 8 1 0 9
M TOR 50 8 1 0 10
M TOR 51 8 1 0 11
M TOR 52 8 1 2 12
M TOR 53 8 3 4 14
M TOR 54 8 3 4 15
M TOR 55 8 5 4 14
M TOR 56 8 5 4 15
M TOR 57 8 5 6 16
M TOR 58 8 5 6 17
M  END
$$$$
