gdb 2385	2.4321604	1.7640156	1.3373794	0.947	75.46	-0.24526	0.00676	0.25202	1017.2152	0.158188	-422.556192	-422.548267	-422.547323	-422.588528	31.054
 OpenBabel02181911413D

 19 20  0  0  1  0  0  0  0  0999 V2000
    0.2427    0.4011   -0.0524 O   0  0  0  0  0  0  0  0  0  0  0  0
   -0.5771    1.0122    0.9239 C   0  0  2  0  0  0  0  0  0  0  0  0
   -1.2528    0.0079    1.8901 C   0  0  0  0  0  0  0  0  0  0  0  0
   -2.5243    0.1587    1.2259 O   0  0  0  0  0  0  0  0  0  0  0  0
   -2.0292    1.3000    0.4514 C   0  0  1  0  0  0  0  0  0  0  0  0
   -2.6225    2.5939    0.9158 C   0  0  0  0  0  0  0  0  0  0  0  0
   -2.0050    3.4020    1.7779 C   0  0  0  0  0  0  0  0  0  0  0  0
   -0.6376    3.1312    2.3487 C   0  0  0  0  0  0  0  0  0  0  0  0
    0.2029    2.1971    1.4666 C   0  0  0  0  0  0  0  0  0  0  0  0
   -0.2315   -0.3549   -0.4160 H   0  0  0  0  0  0  0  0  0  0  0  0
   -0.8657   -1.0168    1.8314 H   0  0  0  0  0  0  0  0  0  0  0  0
   -1.2981    0.3139    2.9436 H   0  0  0  0  0  0  0  0  0  0  0  0
   -2.1970    1.1339   -0.6201 H   0  0  0  0  0  0  0  0  0  0  0  0
   -3.6214    2.8315    0.5588 H   0  0  0  0  0  0  0  0  0  0  0  0
   -2.5083    4.3036    2.1198 H   0  0  0  0  0  0  0  0  0  0  0  0
   -0.0991    4.0748    2.4930 H   0  0  0  0  0  0  0  0  0  0  0  0
   -0.7519    2.7093    3.3581 H   0  0  0  0  0  0  0  0  0  0  0  0
    0.5692    2.7539    0.5967 H   0  0  0  0  0  0  0  0  0  0  0  0
    1.0860    1.8388    2.0068 H   0  0  0  0  0  0  0  0  0  0  0  0
  2  1  1  6  0  0  0
  2  9  1  0  0  0  0
  2  3  1  0  0  0  0
  3 12  1  0  0  0  0
  4  3  1  0  0  0  0
  5 13  1  6  0  0  0
  5  6  1  0  0  0  0
  5  2  1  0  0  0  0
  5  4  1  0  0  0  0
  6  7  2  0  0  0  0
  7 15  1  0  0  0  0
  7  8  1  0  0  0  0
  8 16  1  0  0  0  0
  8 17  1  0  0  0  0
  9 19  1  0  0  0  0
  9  8  1  0  0  0  0
 10  1  1  0  0  0  0
 11  3  1  0  0  0  0
 14  6  1  0  0  0  0
 18  9  1  0  0  0  0
M TOR 0 0 1 2 3
M TOR 1 0 1 2 10
M TOR 2 0 1 2 11
M TOR 3 0 1 4 3
M TOR 4 0 1 4 5
M TOR 5 0 1 4 12
M TOR 6 0 1 8 7
M TOR 7 0 1 8 17
M TOR 8 0 1 8 18
M TOR 9 1 2 3 4
M TOR 10 1 4 5 6
M TOR 11 1 4 5 13
M TOR 12 1 8 7 6
M TOR 13 1 8 7 15
M TOR 14 1 8 7 16
M TOR 15 2 1 0 9
M TOR 16 2 1 4 5
M TOR 17 2 1 4 12
M TOR 18 2 1 8 7
M TOR 19 2 1 8 17
M TOR 20 2 1 8 18
M TOR 21 2 3 4 5
M TOR 22 2 3 4 12
M TOR 23 3 2 1 8
M TOR 24 3 4 1 8
M TOR 25 3 4 5 6
M TOR 26 3 4 5 13
M TOR 27 4 1 0 9
M TOR 28 4 1 2 10
M TOR 29 4 1 2 11
M TOR 30 4 1 8 7
M TOR 31 4 1 8 17
M TOR 32 4 1 8 18
M TOR 33 4 3 2 10
M TOR 34 4 3 2 11
M TOR 35 4 5 6 7
M TOR 36 4 5 6 14
M TOR 37 5 4 1 8
M TOR 38 5 6 7 8
M TOR 39 5 6 7 15
M TOR 40 5 6 7 16
M TOR 41 6 5 4 12
M TOR 42 6 7 8 17
M TOR 43 6 7 8 18
M TOR 44 7 6 5 13
M TOR 45 8 1 0 9
M TOR 46 8 1 2 10
M TOR 47 8 1 2 11
M TOR 48 8 1 4 12
M TOR 49 8 7 6 14
M  END
$$$$
