
     RDKit          3D

 19 20  0  0  0  0  0  0  0  0999 V2000
   -0.8545    1.9631    1.2396 C   0  0  0  0  0  0  0  0  0  0  0  0
   -1.0308    1.1003   -0.0033 C   0  0  0  0  0  0  0  0  0  0  0  0
   -1.2319    1.8803   -1.3175 C   0  0  0  0  0  0  0  0  0  0  0  0
   -2.0913    0.9281   -2.1624 C   0  0  0  0  0  0  0  0  0  0  0  0
   -2.9157    0.2243   -1.2355 O   0  0  0  0  0  0  0  0  0  0  0  0
   -2.1760    0.0220   -0.0493 C   0  0  0  0  0  0  0  0  0  0  0  0
   -1.1235   -1.1313   -0.0968 C   0  0  0  0  0  0  0  0  0  0  0  0
   -0.0191   -0.0645   -0.1228 C   0  0  0  0  0  0  0  0  0  0  0  0
    1.1761   -0.0980   -0.1911 O   0  0  0  0  0  0  0  0  0  0  0  0
   -0.8000    1.3553    2.1489 H   0  0  0  0  0  0  0  0  0  0  0  0
    0.0718    2.5426    1.1754 H   0  0  0  0  0  0  0  0  0  0  0  0
   -1.6909    2.6617    1.3486 H   0  0  0  0  0  0  0  0  0  0  0  0
   -1.7785    2.8057   -1.1070 H   0  0  0  0  0  0  0  0  0  0  0  0
   -0.2874    2.1421   -1.8012 H   0  0  0  0  0  0  0  0  0  0  0  0
   -2.7492    1.4380   -2.8704 H   0  0  0  0  0  0  0  0  0  0  0  0
   -1.4582    0.2291   -2.7315 H   0  0  0  0  0  0  0  0  0  0  0  0
   -2.8770   -0.0179    0.7860 H   0  0  0  0  0  0  0  0  0  0  0  0
   -1.0892   -1.7568    0.8010 H   0  0  0  0  0  0  0  0  0  0  0  0
   -1.1758   -1.7846   -0.9725 H   0  0  0  0  0  0  0  0  0  0  0  0
  1  2  1  0
  2  3  1  0
  3  4  1  0
  4  5  1  0
  5  6  1  0
  6  7  1  0
  7  8  1  0
  8  9  2  0
  6  2  1  0
  8  2  1  0
  1 10  1  0
  1 11  1  0
  1 12  1  0
  3 13  1  0
  3 14  1  0
  4 15  1  0
  4 16  1  0
  6 17  1  0
  7 18  1  0
  7 19  1  0
M  END
$$$$
