
     RDKit          3D

 19 20  0  0  0  0  0  0  0  0999 V2000
   -2.8871   -2.2562   -1.4788 C   0  0  0  0  0  0  0  0  0  0  0  0
   -1.7163   -1.2724   -1.3993 C   0  0  0  0  0  0  0  0  0  0  0  0
   -2.1248    0.1149   -1.9489 C   0  0  0  0  0  0  0  0  0  0  0  0
   -1.3270    1.1927   -1.4597 O   0  0  0  0  0  0  0  0  0  0  0  0
   -0.9189    1.0410   -0.1003 C   0  0  0  0  0  0  0  0  0  0  0  0
   -1.8972    0.1431    0.7153 C   0  0  0  0  0  0  0  0  0  0  0  0
   -1.1923   -1.0868    0.0533 C   0  0  0  0  0  0  0  0  0  0  0  0
    0.0431   -0.1728   -0.0355 C   0  0  0  0  0  0  0  0  0  0  0  0
    1.2260   -0.3329    0.0239 O   0  0  0  0  0  0  0  0  0  0  0  0
   -3.7156   -1.9384   -0.8358 H   0  0  0  0  0  0  0  0  0  0  0  0
   -3.2692   -2.3319   -2.5027 H   0  0  0  0  0  0  0  0  0  0  0  0
   -2.5789   -3.2571   -1.1626 H   0  0  0  0  0  0  0  0  0  0  0  0
   -0.8889   -1.6678   -2.0009 H   0  0  0  0  0  0  0  0  0  0  0  0
   -2.0363    0.1465   -3.0384 H   0  0  0  0  0  0  0  0  0  0  0  0
   -3.1813    0.3000   -1.7049 H   0  0  0  0  0  0  0  0  0  0  0  0
   -0.6148    2.0221    0.2660 H   0  0  0  0  0  0  0  0  0  0  0  0
   -1.6893    0.2101    1.7855 H   0  0  0  0  0  0  0  0  0  0  0  0
   -2.9654    0.2804    0.5425 H   0  0  0  0  0  0  0  0  0  0  0  0
   -1.1114   -2.0332    0.5917 H   0  0  0  0  0  0  0  0  0  0  0  0
  1  2  1  0
  2  3  1  0
  3  4  1  0
  4  5  1  0
  5  6  1  0
  6  7  1  0
  7  8  1  0
  8  9  2  0
  7  2  1  0
  8  5  1  0
  1 10  1  0
  1 11  1  0
  1 12  1  0
  2 13  1  0
  3 14  1  0
  3 15  1  0
  5 16  1  0
  6 17  1  0
  6 18  1  0
  7 19  1  0
M  END
$$$$
