gdb 4515	2.5531126	1.5938081	1.3137781	0.7395	75.	-0.2621	-0.00518	0.25692	1034.2812	0.158234	-422.541849	-422.53381	-422.532865	-422.574012	31.519
 OpenBabel02181911413D

 19 20  0  0  1  0  0  0  0  0999 V2000
   -0.7384   -2.6606   -1.0579 O   0  0  0  0  0  0  0  0  0  0  0  0
   -0.1287   -2.8129    0.2267 C   0  0  1  0  0  0  0  0  0  0  0  0
    1.3941   -2.5230    0.1644 C   0  0  0  0  0  0  0  0  0  0  0  0
    1.8071   -1.0599    0.4161 C   0  0  0  0  0  0  0  0  0  0  0  0
    0.9229   -0.0320   -0.2645 C   0  0  2  0  0  0  0  0  0  0  0  0
    0.5589    1.1043    0.5277 O   0  0  0  0  0  0  0  0  0  0  0  0
   -0.4671    0.1586    0.1991 C   0  0  2  0  0  0  0  0  0  0  0  0
   -1.0112   -0.6985    1.2912 C   0  0  0  0  0  0  0  0  0  0  0  0
   -0.8588   -2.0237    1.3058 C   0  0  0  0  0  0  0  0  0  0  0  0
   -0.7203   -1.7258   -1.2847 H   0  0  0  0  0  0  0  0  0  0  0  0
   -0.2509   -3.8790    0.4398 H   0  0  0  0  0  0  0  0  0  0  0  0
    1.9137   -3.1523    0.8964 H   0  0  0  0  0  0  0  0  0  0  0  0
    1.7219   -2.8605   -0.8250 H   0  0  0  0  0  0  0  0  0  0  0  0
    1.7623   -0.8463    1.4869 H   0  0  0  0  0  0  0  0  0  0  0  0
    2.8487   -0.9142    0.1090 H   0  0  0  0  0  0  0  0  0  0  0  0
    1.1556    0.2122   -1.3024 H   0  0  0  0  0  0  0  0  0  0  0  0
   -1.2038    0.5643   -0.4993 H   0  0  0  0  0  0  0  0  0  0  0  0
   -1.5733   -0.1963    2.0751 H   0  0  0  0  0  0  0  0  0  0  0  0
   -1.2925   -2.5964    2.1218 H   0  0  0  0  0  0  0  0  0  0  0  0
  1  2  1  0  0  0  0
  2 11  1  1  0  0  0
  2  9  1  0  0  0  0
  3  2  1  0  0  0  0
  3  4  1  0  0  0  0
  3 12  1  0  0  0  0
  4 14  1  0  0  0  0
  5 16  1  6  0  0  0
  5  7  1  0  0  0  0
  5  4  1  0  0  0  0
  5  6  1  0  0  0  0
  7 17  1  6  0  0  0
  7  6  1  0  0  0  0
  7  8  1  0  0  0  0
  8  9  2  0  0  0  0
  8 18  1  0  0  0  0
  9 19  1  0  0  0  0
 10  1  1  0  0  0  0
 13  3  1  0  0  0  0
 15  4  1  0  0  0  0
M TOR 0 0 1 2 3
M TOR 1 0 1 2 11
M TOR 2 0 1 2 12
M TOR 3 0 1 8 7
M TOR 4 0 1 8 18
M TOR 5 1 2 3 4
M TOR 6 1 2 3 13
M TOR 7 1 2 3 14
M TOR 8 1 8 7 6
M TOR 9 1 8 7 17
M TOR 10 2 1 0 9
M TOR 11 2 1 8 7
M TOR 12 2 1 8 18
M TOR 13 2 3 4 5
M TOR 14 2 3 4 6
M TOR 15 2 3 4 15
M TOR 16 3 2 1 8
M TOR 17 3 2 1 10
M TOR 18 3 4 5 6
M TOR 19 3 4 6 7
M TOR 20 3 4 6 16
M TOR 21 4 3 2 11
M TOR 22 4 3 2 12
M TOR 23 4 5 6 7
M TOR 24 4 5 6 16
M TOR 25 4 6 7 8
M TOR 26 4 6 7 17
M TOR 27 5 4 3 13
M TOR 28 5 4 3 14
M TOR 29 5 6 4 15
M TOR 30 5 6 7 8
M TOR 31 5 6 7 17
M TOR 32 6 4 3 13
M TOR 33 6 4 3 14
M TOR 34 6 7 8 18
M TOR 35 7 6 4 15
M TOR 36 7 8 1 10
M TOR 37 8 1 0 9
M TOR 38 8 1 2 11
M TOR 39 8 1 2 12
M TOR 40 8 7 6 16
M  END
$$$$
