
     RDKit          3D

 19 20  0  0  0  0  0  0  0  0999 V2000
    1.1786   -0.5331   -0.6769 O   0  0  0  0  0  0  0  0  0  0  0  0
    0.2952    0.0512   -0.1042 C   0  0  0  0  0  0  0  0  0  0  0  0
   -0.9048    0.6429   -0.7835 C   0  0  0  0  0  0  0  0  0  0  0  0
   -1.3632    1.9426   -0.2401 C   0  0  0  0  0  0  0  0  0  0  0  0
   -2.0347    0.7426    0.1058 O   0  0  0  0  0  0  0  0  0  0  0  0
   -1.1700    0.2239   -2.2035 C   0  0  0  0  0  0  0  0  0  0  0  0
   -2.4294    0.7608   -2.9364 C   0  0  0  0  0  0  0  0  0  0  0  0
   -2.6184   -0.6500   -3.5576 C   0  0  0  0  0  0  0  0  0  0  0  0
   -1.6916   -1.2231   -2.4529 C   0  0  0  0  0  0  0  0  0  0  0  0
    0.2943    0.2000    0.9990 H   0  0  0  0  0  0  0  0  0  0  0  0
   -0.8162    2.4257    0.5690 H   0  0  0  0  0  0  0  0  0  0  0  0
   -1.9003    2.6117   -0.9099 H   0  0  0  0  0  0  0  0  0  0  0  0
   -0.2613    0.4014   -2.7858 H   0  0  0  0  0  0  0  0  0  0  0  0
   -3.2250    0.9880   -2.2212 H   0  0  0  0  0  0  0  0  0  0  0  0
   -2.3012    1.6085   -3.6138 H   0  0  0  0  0  0  0  0  0  0  0  0
   -3.6365   -1.0404   -3.6167 H   0  0  0  0  0  0  0  0  0  0  0  0
   -2.1603   -0.7212   -4.5481 H   0  0  0  0  0  0  0  0  0  0  0  0
   -2.2655   -1.5851   -1.5948 H   0  0  0  0  0  0  0  0  0  0  0  0
   -0.9562   -1.9788   -2.7335 H   0  0  0  0  0  0  0  0  0  0  0  0
  1  2  2  0
  2  3  1  0
  3  4  1  0
  4  5  1  0
  3  6  1  0
  6  7  1  0
  7  8  1  0
  8  9  1  0
  5  3  1  0
  9  6  1  0
  2 10  1  0
  4 11  1  0
  4 12  1  0
  6 13  1  0
  7 14  1  0
  7 15  1  0
  8 16  1  0
  8 17  1  0
  9 18  1  0
  9 19  1  0
M  END
$$$$
