
     RDKit          3D

 19 20  0  0  0  0  0  0  0  0999 V2000
    0.1577    0.6683   -0.1039 C   0  0  0  0  0  0  0  0  0  0  0  0
    1.5962    0.1356   -0.0608 C   0  0  0  0  0  0  0  0  0  0  0  0
    1.6560   -1.0612    0.7364 O   0  0  0  0  0  0  0  0  0  0  0  0
    2.5369    1.1808    0.4910 C   0  0  0  0  0  0  0  0  0  0  0  0
    3.6976    1.5357   -0.0524 C   0  0  0  0  0  0  0  0  0  0  0  0
    4.2588    0.9542   -1.3194 C   0  0  0  0  0  0  0  0  0  0  0  0
    3.2883    0.0582   -2.0506 C   0  0  0  0  0  0  0  0  0  0  0  0
    2.0522    0.6571   -2.4653 O   0  0  0  0  0  0  0  0  0  0  0  0
    2.0130   -0.3380   -1.4435 C   0  0  0  0  0  0  0  0  0  0  0  0
   -0.1582    1.0018    0.8915 H   0  0  0  0  0  0  0  0  0  0  0  0
    0.0841    1.5155   -0.7910 H   0  0  0  0  0  0  0  0  0  0  0  0
   -0.5254   -0.1196   -0.4348 H   0  0  0  0  0  0  0  0  0  0  0  0
    1.4741   -0.8140    1.6491 H   0  0  0  0  0  0  0  0  0  0  0  0
    2.2087    1.6585    1.4135 H   0  0  0  0  0  0  0  0  0  0  0  0
    4.3053    2.2937    0.4363 H   0  0  0  0  0  0  0  0  0  0  0  0
    4.5878    1.7594   -1.9908 H   0  0  0  0  0  0  0  0  0  0  0  0
    5.1655    0.3762   -1.0889 H   0  0  0  0  0  0  0  0  0  0  0  0
    3.7283   -0.5993   -2.8006 H   0  0  0  0  0  0  0  0  0  0  0  0
    1.5529   -1.2831   -1.7324 H   0  0  0  0  0  0  0  0  0  0  0  0
  1  2  1  0
  2  3  1  0
  2  4  1  0
  4  5  2  0
  5  6  1  0
  6  7  1  0
  7  8  1  0
  8  9  1  0
  9  2  1  0
  9  7  1  0
  1 10  1  0
  1 11  1  0
  1 12  1  0
  3 13  1  0
  4 14  1  0
  5 15  1  0
  6 16  1  0
  6 17  1  0
  7 18  1  0
  9 19  1  0
M  END
$$$$
