gdb 6005	4.4380465	1.0321431	0.9903738	1.9504	75.22	-0.23036	0.07602	0.30638	1277.6341	0.156189	-422.477434	-422.469209	-422.468264	-422.511154	30.615
 OpenBabel02181911423D

 19 21  0  0  1  0  0  0  0  0999 V2000
    0.2239   -0.7611    0.0413 C   0  0  0  0  0  0  0  0  0  0  0  0
    0.9898    0.5103    0.3636 C   0  0  0  0  0  0  0  0  0  0  0  0
    1.6417    0.9520   -0.8141 O   0  0  0  0  0  0  0  0  0  0  0  0
    2.3280    2.1543   -0.6638 C   0  0  2  0  0  0  0  0  0  0  0  0
    3.1221    2.6334   -1.8622 C   0  0  2  0  0  0  0  0  0  0  0  0
    4.5117    2.0045   -1.6830 C   0  0  2  0  0  0  0  0  0  0  0  0
    4.4779    1.1484   -0.5427 O   0  0  0  0  0  0  0  0  0  0  0  0
    3.6951    2.1843    0.1027 C   0  0  1  0  0  0  0  0  0  0  0  0
    4.1798    3.2526   -0.9417 C   0  0  2  0  0  0  0  0  0  0  0  0
   -0.2884   -1.1354    0.9327 H   0  0  0  0  0  0  0  0  0  0  0  0
   -0.5219   -0.5731   -0.7363 H   0  0  0  0  0  0  0  0  0  0  0  0
    0.9069   -1.5353   -0.3190 H   0  0  0  0  0  0  0  0  0  0  0  0
    0.3054    1.2934    0.7327 H   0  0  0  0  0  0  0  0  0  0  0  0
    1.7267    0.3218    1.1603 H   0  0  0  0  0  0  0  0  0  0  0  0
    1.6737    2.9524   -0.2784 H   0  0  0  0  0  0  0  0  0  0  0  0
    2.7547    3.0023   -2.8105 H   0  0  0  0  0  0  0  0  0  0  0  0
    5.1999    1.7889   -2.4888 H   0  0  0  0  0  0  0  0  0  0  0  0
    3.7863    2.1959    1.1863 H   0  0  0  0  0  0  0  0  0  0  0  0
    4.6055    4.2432   -0.8797 H   0  0  0  0  0  0  0  0  0  0  0  0
  1  2  1  0  0  0  0
  1 10  1  0  0  0  0
  2 13  1  0  0  0  0
  2 14  1  0  0  0  0
  3  4  1  0  0  0  0
  3  2  1  0  0  0  0
  4 15  1  1  0  0  0
  4  8  1  0  0  0  0
  5 16  1  6  0  0  0
  5  6  1  0  0  0  0
  5  9  1  0  0  0  0
  5  4  1  0  0  0  0
  6 17  1  6  0  0  0
  6  9  1  0  0  0  0
  6  7  1  0  0  0  0
  7  8  1  0  0  0  0
  8 18  1  1  0  0  0
  9 19  1  1  0  0  0
  9  8  1  0  0  0  0
 11  1  1  0  0  0  0
 12  1  1  0  0  0  0
M TOR 0 0 1 2 3
M TOR 1 1 2 3 4
M TOR 2 1 2 3 7
M TOR 3 1 2 3 14
M TOR 4 2 1 0 9
M TOR 5 2 1 0 10
M TOR 6 2 1 0 11
M TOR 7 2 3 4 5
M TOR 8 2 3 4 8
M TOR 9 2 3 4 15
M TOR 10 2 3 7 6
M TOR 11 2 3 7 8
M TOR 12 2 3 7 17
M TOR 13 3 2 1 12
M TOR 14 3 2 1 13
M TOR 15 3 4 5 6
M TOR 16 3 4 5 8
M TOR 17 3 4 5 16
M TOR 18 3 4 8 7
M TOR 19 3 4 8 18
M TOR 20 3 7 6 5
M TOR 21 3 7 8 5
M TOR 22 3 7 8 18
M TOR 23 4 3 7 6
M TOR 24 4 3 7 17
M TOR 25 4 5 6 7
M TOR 26 4 5 8 7
M TOR 27 4 5 8 18
M TOR 28 4 8 5 6
M TOR 29 4 8 5 16
M TOR 30 4 8 7 6
M TOR 31 4 8 7 17
M TOR 32 5 4 3 7
M TOR 33 5 4 3 14
M TOR 34 5 6 7 8
M TOR 35 5 6 7 17
M TOR 36 5 8 4 15
M TOR 37 5 8 7 17
M TOR 38 6 5 4 15
M TOR 39 6 5 8 18
M TOR 40 6 7 3 14
M TOR 41 6 7 8 18
M TOR 42 7 3 4 15
M TOR 43 7 6 5 16
M TOR 44 7 8 4 15
M TOR 45 7 8 5 16
M TOR 46 8 4 3 14
M TOR 47 8 7 3 14
M  END
$$$$
