
     RDKit          3D

 19 19  0  0  0  0  0  0  0  0999 V2000
    1.5220    0.1043   -0.0892 C   0  0  0  0  0  0  0  0  0  0  0  0
    0.1508   -0.1798    0.0842 O   0  0  0  0  0  0  0  0  0  0  0  0
   -0.4565    0.5225    1.1514 C   0  0  0  0  0  0  0  0  0  0  0  0
   -1.9525    0.3461    1.0373 C   0  0  0  0  0  0  0  0  0  0  0  0
   -2.5275   -0.0181    2.1865 C   0  0  0  0  0  0  0  0  0  0  0  0
   -1.4995   -0.1698    3.2435 C   0  0  0  0  0  0  0  0  0  0  0  0
   -1.6852   -0.3755    4.4201 O   0  0  0  0  0  0  0  0  0  0  0  0
   -0.1203    0.0077    2.5748 C   0  0  0  0  0  0  0  0  0  0  0  0
    0.8184    0.8605    3.4289 C   0  0  0  0  0  0  0  0  0  0  0  0
    2.1320   -0.2524    0.7532 H   0  0  0  0  0  0  0  0  0  0  0  0
    1.8445   -0.4129   -0.9959 H   0  0  0  0  0  0  0  0  0  0  0  0
    1.6992    1.1842   -0.2121 H   0  0  0  0  0  0  0  0  0  0  0  0
   -0.2018    1.5949    1.0691 H   0  0  0  0  0  0  0  0  0  0  0  0
   -2.4535    0.5177    0.0912 H   0  0  0  0  0  0  0  0  0  0  0  0
   -3.5824   -0.1759    2.3722 H   0  0  0  0  0  0  0  0  0  0  0  0
    0.2946   -1.0017    2.4560 H   0  0  0  0  0  0  0  0  0  0  0  0
    0.8412    0.4704    4.4497 H   0  0  0  0  0  0  0  0  0  0  0  0
    1.8375    0.8649    3.0322 H   0  0  0  0  0  0  0  0  0  0  0  0
    0.4709    1.8982    3.4783 H   0  0  0  0  0  0  0  0  0  0  0  0
  1  2  1  0
  2  3  1  0
  3  4  1  0
  4  5  2  0
  5  6  1  0
  6  7  2  0
  6  8  1  0
  8  9  1  0
  8  3  1  0
  1 10  1  0
  1 11  1  0
  1 12  1  0
  3 13  1  0
  4 14  1  0
  5 15  1  0
  8 16  1  0
  9 17  1  0
  9 18  1  0
  9 19  1  0
M  END
$$$$
