gdb 5462	2.8372058	1.3878418	1.167674	1.0703	75.27	-0.2234	0.0788	0.30219999999999997	1138.5144	0.155579	-422.474507	-422.465914	-422.46497	-422.507814	31.885
 OpenBabel02181911423D

 19 21  0  0  1  0  0  0  0  0999 V2000
    1.5174    0.0844   -0.0830 C   0  0  0  0  0  0  0  0  0  0  0  0
    0.1158    0.0549    0.0846 O   0  0  0  0  0  0  0  0  0  0  0  0
   -0.3225    0.7680    1.2162 C   0  0  1  0  0  0  0  0  0  0  0  0
   -1.8309    0.6563    1.3519 C   0  0  2  0  0  0  0  0  0  0  0  0
   -2.0771    0.6606    2.8710 C   0  0  2  0  0  0  0  0  0  0  0  0
   -0.8190    0.8564    3.5262 O   0  0  0  0  0  0  0  0  0  0  0  0
   -0.2723   -0.0590    2.5401 C   0  0  1  0  0  0  0  0  0  0  0  0
   -1.7138   -0.6168    2.1996 C   0  0  2  0  0  0  0  0  0  0  0  0
   -2.3163   -1.9774    2.0961 C   0  0  0  0  0  0  0  0  0  0  0  0
    2.0503   -0.3869    0.7562 H   0  0  0  0  0  0  0  0  0  0  0  0
    1.7438   -0.4700   -0.9967 H   0  0  0  0  0  0  0  0  0  0  0  0
    1.8900    1.1146   -0.1898 H   0  0  0  0  0  0  0  0  0  0  0  0
    0.1423    1.7647    1.2616 H   0  0  0  0  0  0  0  0  0  0  0  0
   -2.5893    0.9194    0.6254 H   0  0  0  0  0  0  0  0  0  0  0  0
   -2.9832    1.0129    3.3472 H   0  0  0  0  0  0  0  0  0  0  0  0
    0.6091   -0.6035    2.8741 H   0  0  0  0  0  0  0  0  0  0  0  0
   -2.1968   -2.5422    3.0274 H   0  0  0  0  0  0  0  0  0  0  0  0
   -3.3885   -1.9069    1.8834 H   0  0  0  0  0  0  0  0  0  0  0  0
   -1.8550   -2.5517    1.2856 H   0  0  0  0  0  0  0  0  0  0  0  0
  1  2  1  0  0  0  0
  1 10  1  0  0  0  0
  2  3  1  0  0  0  0
  3 13  1  1  0  0  0
  3  4  1  0  0  0  0
  3  7  1  0  0  0  0
  4 14  1  6  0  0  0
  4  8  1  0  0  0  0
  4  5  1  0  0  0  0
  5 15  1  1  0  0  0
  5  6  1  0  0  0  0
  7 16  1  1  0  0  0
  7  6  1  0  0  0  0
  8  9  1  6  0  0  0
  8  7  1  0  0  0  0
  8  5  1  0  0  0  0
  9 17  1  0  0  0  0
 11  1  1  0  0  0  0
 12  1  1  0  0  0  0
 18  9  1  0  0  0  0
 19  9  1  0  0  0  0
M TOR 0 0 1 2 3
M TOR 1 0 1 2 6
M TOR 2 0 1 2 12
M TOR 3 1 2 3 4
M TOR 4 1 2 3 7
M TOR 5 1 2 3 13
M TOR 6 1 2 6 5
M TOR 7 1 2 6 7
M TOR 8 1 2 6 15
M TOR 9 2 1 0 9
M TOR 10 2 1 0 10
M TOR 11 2 1 0 11
M TOR 12 2 3 4 5
M TOR 13 2 3 4 7
M TOR 14 2 3 4 14
M TOR 15 2 3 7 6
M TOR 16 2 3 7 8
M TOR 17 2 6 5 4
M TOR 18 2 6 7 4
M TOR 19 2 6 7 8
M TOR 20 3 2 6 5
M TOR 21 3 2 6 15
M TOR 22 3 4 5 6
M TOR 23 3 4 7 6
M TOR 24 3 4 7 8
M TOR 25 3 7 4 5
M TOR 26 3 7 4 14
M TOR 27 3 7 6 5
M TOR 28 3 7 6 15
M TOR 29 3 7 8 16
M TOR 30 3 7 8 17
M TOR 31 3 7 8 18
M TOR 32 4 3 2 6
M TOR 33 4 3 2 12
M TOR 34 4 5 6 7
M TOR 35 4 5 6 15
M TOR 36 4 7 3 13
M TOR 37 4 7 6 15
M TOR 38 4 7 8 16
M TOR 39 4 7 8 17
M TOR 40 4 7 8 18
M TOR 41 5 4 3 13
M TOR 42 5 4 7 8
M TOR 43 5 6 2 12
M TOR 44 5 6 7 8
M TOR 45 6 2 3 13
M TOR 46 6 5 4 14
M TOR 47 6 7 3 13
M TOR 48 6 7 4 14
M TOR 49 6 7 8 16
M TOR 50 6 7 8 17
M TOR 51 6 7 8 18
M TOR 52 7 3 2 12
M TOR 53 7 6 2 12
M TOR 54 8 7 3 13
M TOR 55 8 7 4 14
M TOR 56 8 7 6 15
M  END
$$$$
