
     RDKit          3D

 19 21  0  0  0  0  0  0  0  0999 V2000
    0.2262   -0.1417    0.2401 O   0  0  0  0  0  0  0  0  0  0  0  0
   -0.9249    0.3939    0.8686 C   0  0  0  0  0  0  0  0  0  0  0  0
   -2.1219    0.2343   -0.1457 C   0  0  0  0  0  0  0  0  0  0  0  0
   -2.9975    1.3847   -0.0489 O   0  0  0  0  0  0  0  0  0  0  0  0
   -2.4187    2.1929    0.9193 C   0  0  0  0  0  0  0  0  0  0  0  0
   -2.5859    2.0416    2.4722 C   0  0  0  0  0  0  0  0  0  0  0  0
   -1.3080    2.8804    2.2319 C   0  0  0  0  0  0  0  0  0  0  0  0
   -2.1356    3.6995    1.1593 C   0  0  0  0  0  0  0  0  0  0  0  0
   -0.9286    1.9168    1.0470 C   0  0  0  0  0  0  0  0  0  0  0  0
    0.9492   -0.1170    0.8743 H   0  0  0  0  0  0  0  0  0  0  0  0
   -1.1443   -0.1540    1.7926 H   0  0  0  0  0  0  0  0  0  0  0  0
   -1.7113    0.1798   -1.1598 H   0  0  0  0  0  0  0  0  0  0  0  0
   -2.7044   -0.6707    0.0507 H   0  0  0  0  0  0  0  0  0  0  0  0
   -3.4318    2.5652    2.9235 H   0  0  0  0  0  0  0  0  0  0  0  0
   -2.4613    1.0486    2.9056 H   0  0  0  0  0  0  0  0  0  0  0  0
   -0.6526    3.3096    2.9869 H   0  0  0  0  0  0  0  0  0  0  0  0
   -2.9494    4.3140    1.5521 H   0  0  0  0  0  0  0  0  0  0  0  0
   -1.5581    4.2185    0.3907 H   0  0  0  0  0  0  0  0  0  0  0  0
   -0.3101    2.3715    0.2656 H   0  0  0  0  0  0  0  0  0  0  0  0
  1  2  1  0
  2  3  1  0
  3  4  1  0
  4  5  1  0
  5  6  1  0
  6  7  1  0
  7  8  1  0
  7  9  1  0
  9  2  1  0
  8  5  1  0
  9  5  1  0
  1 10  1  0
  2 11  1  0
  3 12  1  0
  3 13  1  0
  6 14  1  0
  6 15  1  0
  7 16  1  0
  8 17  1  0
  8 18  1  0
  9 19  1  0
M  END
$$$$
