
     RDKit          3D

 19 19  0  0  0  0  0  0  0  0999 V2000
   -0.1163   -0.0974    0.2499 C   0  0  0  0  0  0  0  0  0  0  0  0
    1.0846   -0.0805    0.2017 C   0  0  0  0  0  0  0  0  0  0  0  0
    2.5397   -0.0306    0.1397 C   0  0  0  0  0  0  0  0  0  0  0  0
    3.0756    1.3902   -0.1209 C   0  0  0  0  0  0  0  0  0  0  0  0
    4.5902    1.4112   -0.2102 C   0  0  0  0  0  0  0  0  0  0  0  0
    5.0480    2.7268   -0.4042 O   0  0  0  0  0  0  0  0  0  0  0  0
    6.3777    2.7311    0.0907 C   0  0  0  0  0  0  0  0  0  0  0  0
    6.3003    1.7757    1.2945 C   0  0  0  0  0  0  0  0  0  0  0  0
    5.1737    0.9525    1.0040 O   0  0  0  0  0  0  0  0  0  0  0  0
   -1.1765   -0.1252    0.2952 H   0  0  0  0  0  0  0  0  0  0  0  0
    2.9666   -0.4036    1.0774 H   0  0  0  0  0  0  0  0  0  0  0  0
    2.8938   -0.7082   -0.6490 H   0  0  0  0  0  0  0  0  0  0  0  0
    2.6659    1.7817   -1.0571 H   0  0  0  0  0  0  0  0  0  0  0  0
    2.7702    2.0633    0.6852 H   0  0  0  0  0  0  0  0  0  0  0  0
    4.9462    0.7648   -1.0368 H   0  0  0  0  0  0  0  0  0  0  0  0
    7.0797    2.3572   -0.6700 H   0  0  0  0  0  0  0  0  0  0  0  0
    6.6490    3.7555    0.3530 H   0  0  0  0  0  0  0  0  0  0  0  0
    7.2016    1.1619    1.4030 H   0  0  0  0  0  0  0  0  0  0  0  0
    6.1236    2.3120    2.2346 H   0  0  0  0  0  0  0  0  0  0  0  0
  1  2  3  0
  2  3  1  0
  3  4  1  0
  4  5  1  0
  5  6  1  0
  6  7  1  0
  7  8  1  0
  8  9  1  0
  9  5  1  0
  1 10  1  0
  3 11  1  0
  3 12  1  0
  4 13  1  0
  4 14  1  0
  5 15  1  0
  7 16  1  0
  7 17  1  0
  8 18  1  0
  8 19  1  0
M  END
$$$$
