gdb 2386	2.7687386	1.4603147	1.2470454	3.3153	74.47	-0.23933	-0.01861	0.22071999999999997	1077.6305	0.15651	-422.581239	-422.572949	-422.572005	-422.614295	31.551
 OpenBabel02181911413D

 19 20  0  0  1  0  0  0  0  0999 V2000
   -3.1757   -1.4418    0.9480 C   0  0  0  0  0  0  0  0  0  0  0  0
   -2.1800   -0.7456    0.0417 C   0  0  2  0  0  0  0  0  0  0  0  0
   -0.7336   -1.2194    0.1584 C   0  0  0  0  0  0  0  0  0  0  0  0
    0.1272   -0.0041   -0.2025 C   0  0  0  0  0  0  0  0  0  0  0  0
    1.2613   -0.0306   -0.5992 O   0  0  0  0  0  0  0  0  0  0  0  0
   -0.7027    1.2654    0.0504 C   0  0  0  0  0  0  0  0  0  0  0  0
   -2.1662    0.8249    0.0078 C   0  0  1  0  0  0  0  0  0  0  0  0
   -2.7669    0.6504   -1.3990 C   0  0  0  0  0  0  0  0  0  0  0  0
   -2.6118   -0.7824   -1.3495 O   0  0  0  0  0  0  0  0  0  0  0  0
   -2.8909   -1.3318    1.9999 H   0  0  0  0  0  0  0  0  0  0  0  0
   -4.1779   -1.0238    0.8142 H   0  0  0  0  0  0  0  0  0  0  0  0
   -3.2209   -2.5108    0.7154 H   0  0  0  0  0  0  0  0  0  0  0  0
   -0.4889   -1.5126    1.1882 H   0  0  0  0  0  0  0  0  0  0  0  0
   -0.5160   -2.0678   -0.4937 H   0  0  0  0  0  0  0  0  0  0  0  0
   -0.4285    1.6392    1.0456 H   0  0  0  0  0  0  0  0  0  0  0  0
   -0.4400    2.0465   -0.6678 H   0  0  0  0  0  0  0  0  0  0  0  0
   -2.8007    1.3349    0.7333 H   0  0  0  0  0  0  0  0  0  0  0  0
   -3.8200    0.9443   -1.4941 H   0  0  0  0  0  0  0  0  0  0  0  0
   -2.1992    1.0972   -2.2247 H   0  0  0  0  0  0  0  0  0  0  0  0
  1 10  1  0  0  0  0
  2  3  1  0  0  0  0
  2  1  1  1  0  0  0
  3 13  1  0  0  0  0
  4  6  1  0  0  0  0
  4  3  1  0  0  0  0
  5  4  2  0  0  0  0
  6 15  1  0  0  0  0
  7  2  1  0  0  0  0
  7  6  1  0  0  0  0
  7 17  1  1  0  0  0
  8  9  1  0  0  0  0
  8  7  1  0  0  0  0
  9  2  1  0  0  0  0
 11  1  1  0  0  0  0
 12  1  1  0  0  0  0
 14  3  1  0  0  0  0
 16  6  1  0  0  0  0
 18  8  1  0  0  0  0
 19  8  1  0  0  0  0
M TOR 0 0 1 2 3
M TOR 1 0 1 2 12
M TOR 2 0 1 2 13
M TOR 3 0 1 6 5
M TOR 4 0 1 6 7
M TOR 5 0 1 6 16
M TOR 6 0 1 8 7
M TOR 7 1 2 3 4
M TOR 8 1 2 3 5
M TOR 9 1 6 5 3
M TOR 10 1 6 5 14
M TOR 11 1 6 5 15
M TOR 12 1 6 7 8
M TOR 13 1 6 7 17
M TOR 14 1 6 7 18
M TOR 15 1 8 7 17
M TOR 16 1 8 7 18
M TOR 17 2 1 0 9
M TOR 18 2 1 0 10
M TOR 19 2 1 0 11
M TOR 20 2 1 6 5
M TOR 21 2 1 6 7
M TOR 22 2 1 6 16
M TOR 23 2 1 8 7
M TOR 24 2 3 5 6
M TOR 25 2 3 5 14
M TOR 26 2 3 5 15
M TOR 27 3 2 1 6
M TOR 28 3 2 1 8
M TOR 29 3 5 6 7
M TOR 30 3 5 6 16
M TOR 31 4 3 2 12
M TOR 32 4 3 2 13
M TOR 33 4 3 5 6
M TOR 34 4 3 5 14
M TOR 35 4 3 5 15
M TOR 36 5 3 2 12
M TOR 37 5 3 2 13
M TOR 38 5 6 1 8
M TOR 39 5 6 7 8
M TOR 40 5 6 7 17
M TOR 41 5 6 7 18
M TOR 42 6 1 0 9
M TOR 43 6 1 0 10
M TOR 44 6 1 0 11
M TOR 45 6 1 2 12
M TOR 46 6 1 2 13
M TOR 47 7 6 5 14
M TOR 48 7 6 5 15
M TOR 49 8 1 0 9
M TOR 50 8 1 0 10
M TOR 51 8 1 0 11
M TOR 52 8 1 2 12
M TOR 53 8 1 2 13
M TOR 54 8 1 6 16
M TOR 55 8 7 6 16
M  END
$$$$
