gdb 3386	2.7885081	1.509535	1.0781337	2.7865	74.54	-0.25238	-0.02854	0.22383999999999998	1121.4023	0.157824	-422.578105	-422.570123	-422.569179	-422.610723	30.99
 OpenBabel02181911413D

 19 20  0  0  1  0  0  0  0  0999 V2000
   -0.4568    2.2729    0.7727 O   0  0  0  0  0  0  0  0  0  0  0  0
   -0.7868    1.1399    0.0191 C   0  0  2  0  0  0  0  0  0  0  0  0
   -2.2561    0.7034    0.0971 C   0  0  1  0  0  0  0  0  0  0  0  0
   -3.0997    0.8683   -1.1929 C   0  0  0  0  0  0  0  0  0  0  0  0
   -2.6924   -0.5707   -1.6197 C   0  0  0  0  0  0  0  0  0  0  0  0
   -2.2119   -0.8486   -0.1636 C   0  0  1  0  0  0  0  0  0  0  0  0
   -0.7835   -1.3558    0.0960 C   0  0  0  0  0  0  0  0  0  0  0  0
   -0.0096   -0.0981    0.4854 C   0  0  0  0  0  0  0  0  0  0  0  0
    1.0056   -0.0209    1.1319 O   0  0  0  0  0  0  0  0  0  0  0  0
    0.3830    2.0574    1.2076 H   0  0  0  0  0  0  0  0  0  0  0  0
   -0.5101    1.2844   -1.0443 H   0  0  0  0  0  0  0  0  0  0  0  0
   -2.6873    1.0570    1.0360 H   0  0  0  0  0  0  0  0  0  0  0  0
   -4.1674    0.9422   -0.9709 H   0  0  0  0  0  0  0  0  0  0  0  0
   -2.8281    1.6901   -1.8608 H   0  0  0  0  0  0  0  0  0  0  0  0
   -3.4809   -1.2177   -2.0106 H   0  0  0  0  0  0  0  0  0  0  0  0
   -1.8633   -0.5775   -2.3346 H   0  0  0  0  0  0  0  0  0  0  0  0
   -2.9561   -1.4038    0.4094 H   0  0  0  0  0  0  0  0  0  0  0  0
   -0.7076   -2.0870    0.9054 H   0  0  0  0  0  0  0  0  0  0  0  0
   -0.3232   -1.8132   -0.7882 H   0  0  0  0  0  0  0  0  0  0  0  0
  1 10  1  0  0  0  0
  2 11  1  6  0  0  0
  2  3  1  0  0  0  0
  2  8  1  0  0  0  0
  2  1  1  0  0  0  0
  3 12  1  1  0  0  0
  4 13  1  0  0  0  0
  4  3  1  0  0  0  0
  5  4  1  0  0  0  0
  5  6  1  0  0  0  0
  6  7  1  0  0  0  0
  6  3  1  0  0  0  0
  6 17  1  1  0  0  0
  7  8  1  0  0  0  0
  7 18  1  0  0  0  0
  8  9  2  0  0  0  0
 14  4  1  0  0  0  0
 15  5  1  0  0  0  0
 16  5  1  0  0  0  0
 19  7  1  0  0  0  0
M TOR 0 0 1 2 3
M TOR 1 0 1 2 5
M TOR 2 0 1 2 11
M TOR 3 0 1 7 6
M TOR 4 0 1 7 8
M TOR 5 1 2 3 4
M TOR 6 1 2 3 12
M TOR 7 1 2 3 13
M TOR 8 1 2 5 4
M TOR 9 1 2 5 6
M TOR 10 1 2 5 16
M TOR 11 1 7 6 5
M TOR 12 1 7 6 17
M TOR 13 1 7 6 18
M TOR 14 2 1 0 9
M TOR 15 2 1 7 6
M TOR 16 2 1 7 8
M TOR 17 2 3 4 5
M TOR 18 2 3 4 14
M TOR 19 2 3 4 15
M TOR 20 2 5 4 14
M TOR 21 2 5 4 15
M TOR 22 2 5 6 7
M TOR 23 2 5 6 17
M TOR 24 2 5 6 18
M TOR 25 3 2 1 7
M TOR 26 3 2 1 10
M TOR 27 3 2 5 6
M TOR 28 3 2 5 16
M TOR 29 3 4 5 6
M TOR 30 3 4 5 16
M TOR 31 4 3 2 11
M TOR 32 4 5 2 11
M TOR 33 4 5 6 7
M TOR 34 4 5 6 17
M TOR 35 4 5 6 18
M TOR 36 5 2 1 7
M TOR 37 5 2 1 10
M TOR 38 5 2 3 12
M TOR 39 5 2 3 13
M TOR 40 5 4 3 12
M TOR 41 5 4 3 13
M TOR 42 5 6 7 8
M TOR 43 6 5 2 11
M TOR 44 6 5 4 14
M TOR 45 6 5 4 15
M TOR 46 6 7 1 10
M TOR 47 7 1 0 9
M TOR 48 7 1 2 11
M TOR 49 7 6 5 16
M TOR 50 8 7 1 10
M TOR 51 8 7 6 17
M TOR 52 8 7 6 18
M  END
$$$$
