
     RDKit          3D

 19 19  0  0  0  0  0  0  0  0999 V2000
    1.1285   -0.6500    0.0217 C   0  0  0  0  0  0  0  0  0  0  0  0
    1.0724    0.7758    0.1107 O   0  0  0  0  0  0  0  0  0  0  0  0
    0.3608    1.2722    1.1325 C   0  0  0  0  0  0  0  0  0  0  0  0
   -0.5125    2.3138    1.1710 C   0  0  0  0  0  0  0  0  0  0  0  0
   -0.9756    3.1411    0.0143 C   0  0  0  0  0  0  0  0  0  0  0  0
   -0.8848    2.4406    2.5647 C   0  0  0  0  0  0  0  0  0  0  0  0
   -1.8303    3.4446    3.1444 C   0  0  0  0  0  0  0  0  0  0  0  0
   -0.2156    1.4648    3.2278 C   0  0  0  0  0  0  0  0  0  0  0  0
    0.5638    0.7362    2.3644 O   0  0  0  0  0  0  0  0  0  0  0  0
    0.1212   -1.0751   -0.0631 H   0  0  0  0  0  0  0  0  0  0  0  0
    1.6997   -0.8746   -0.8802 H   0  0  0  0  0  0  0  0  0  0  0  0
    1.6310   -1.0806    0.8926 H   0  0  0  0  0  0  0  0  0  0  0  0
   -0.5596    2.7554   -0.9200 H   0  0  0  0  0  0  0  0  0  0  0  0
   -2.0685    3.1387   -0.0759 H   0  0  0  0  0  0  0  0  0  0  0  0
   -0.6655    4.1890    0.1090 H   0  0  0  0  0  0  0  0  0  0  0  0
   -1.9414    3.3056    4.2234 H   0  0  0  0  0  0  0  0  0  0  0  0
   -1.4832    4.4706    2.9739 H   0  0  0  0  0  0  0  0  0  0  0  0
   -2.8270    3.3677    2.6936 H   0  0  0  0  0  0  0  0  0  0  0  0
   -0.1869    1.1530    4.2585 H   0  0  0  0  0  0  0  0  0  0  0  0
  1  2  1  0
  2  3  1  0
  3  4  2  0
  4  5  1  0
  4  6  1  0
  6  7  1  0
  6  8  2  0
  8  9  1  0
  9  3  1  0
  1 10  1  0
  1 11  1  0
  1 12  1  0
  5 13  1  0
  5 14  1  0
  5 15  1  0
  7 16  1  0
  7 17  1  0
  7 18  1  0
  8 19  1  0
M  END
$$$$
