
     RDKit          3D

 19 21  0  0  0  0  0  0  0  0999 V2000
    1.0881   -0.5534   -0.8616 C   0  0  0  0  0  0  0  0  0  0  0  0
    0.8744   -0.1211    0.5826 C   0  0  0  0  0  0  0  0  0  0  0  0
    1.9615   -0.7514    1.6172 C   0  0  0  0  0  0  0  0  0  0  0  0
    2.5522   -1.9722    1.2906 O   0  0  0  0  0  0  0  0  0  0  0  0
    2.8202    0.5638    1.4239 C   0  0  0  0  0  0  0  0  0  0  0  0
    2.7644    2.0251    1.9883 C   0  0  0  0  0  0  0  0  0  0  0  0
    1.3279    1.8041    2.4549 C   0  0  0  0  0  0  0  0  0  0  0  0
    1.5150    1.2046    1.0279 C   0  0  0  0  0  0  0  0  0  0  0  0
    2.2152    2.4746    0.6420 O   0  0  0  0  0  0  0  0  0  0  0  0
    0.9125   -1.6288   -0.9653 H   0  0  0  0  0  0  0  0  0  0  0  0
    0.3961   -0.0311   -1.5280 H   0  0  0  0  0  0  0  0  0  0  0  0
    2.1022   -0.3339   -1.2121 H   0  0  0  0  0  0  0  0  0  0  0  0
   -0.1732   -0.2537    0.8711 H   0  0  0  0  0  0  0  0  0  0  0  0
    1.5265   -0.8826    2.6079 H   0  0  0  0  0  0  0  0  0  0  0  0
    3.0203   -1.8752    0.4546 H   0  0  0  0  0  0  0  0  0  0  0  0
    3.5254    0.4565    0.5952 H   0  0  0  0  0  0  0  0  0  0  0  0
    3.5536    2.6645    2.3908 H   0  0  0  0  0  0  0  0  0  0  0  0
    1.1506    1.1258    3.2922 H   0  0  0  0  0  0  0  0  0  0  0  0
    0.7102    2.7010    2.4955 H   0  0  0  0  0  0  0  0  0  0  0  0
  1  2  1  0
  2  3  1  0
  3  4  1  0
  3  5  1  0
  5  6  1  0
  6  7  1  0
  7  8  1  0
  8  9  1  0
  8  2  1  0
  8  5  1  0
  9  6  1  0
  1 10  1  0
  1 11  1  0
  1 12  1  0
  2 13  1  0
  3 14  1  0
  4 15  1  0
  5 16  1  0
  6 17  1  0
  7 18  1  0
  7 19  1  0
M  END
$$$$
