gdb 3679	2.6847266	1.4580016	1.0684879	2.9	78.32	-0.23867	0.00692	0.24559	1167.2434	0.155898	-422.550263	-422.541396	-422.540452	-422.583603	33.343
 OpenBabel02181911413D

 19 20  0  0  1  0  0  0  0  0999 V2000
    0.0836    0.0250   -0.3502 C   0  0  0  0  0  0  0  0  0  0  0  0
    1.0875    0.4531    0.6892 C   0  0  2  0  0  0  0  0  0  0  0  0
    2.3365    0.9756    0.2211 O   0  0  0  0  0  0  0  0  0  0  0  0
    2.3450   -0.2516    0.9708 C   0  0  2  0  0  0  0  0  0  0  0  0
    2.8788   -1.4687    0.3039 C   0  0  0  0  0  0  0  0  0  0  0  0
    3.9333   -1.9473    0.9677 C   0  0  0  0  0  0  0  0  0  0  0  0
    4.2656   -1.1237    2.1901 C   0  0  0  0  0  0  0  0  0  0  0  0
    2.9966   -0.2508    2.3652 C   0  0  1  0  0  0  0  0  0  0  0  0
    3.2042    1.0702    2.8096 O   0  0  0  0  0  0  0  0  0  0  0  0
   -0.6969   -0.5970    0.1017 H   0  0  0  0  0  0  0  0  0  0  0  0
   -0.4017    0.9014   -0.7925 H   0  0  0  0  0  0  0  0  0  0  0  0
    0.5587   -0.5394   -1.1560 H   0  0  0  0  0  0  0  0  0  0  0  0
    0.6730    1.0280    1.5211 H   0  0  0  0  0  0  0  0  0  0  0  0
    2.4796   -1.8614   -0.6224 H   0  0  0  0  0  0  0  0  0  0  0  0
    4.5143   -2.8136    0.6711 H   0  0  0  0  0  0  0  0  0  0  0  0
    4.4846   -1.7340    3.0735 H   0  0  0  0  0  0  0  0  0  0  0  0
    5.1393   -0.4832    2.0113 H   0  0  0  0  0  0  0  0  0  0  0  0
    2.3067   -0.7849    3.0386 H   0  0  0  0  0  0  0  0  0  0  0  0
    3.4570    1.0346    3.7370 H   0  0  0  0  0  0  0  0  0  0  0  0
  1 10  1  0  0  0  0
  1  2  1  0  0  0  0
  2  4  1  0  0  0  0
  2 13  1  1  0  0  0
  3  2  1  0  0  0  0
  4  3  1  6  0  0  0
  4  8  1  0  0  0  0
  5  6  2  0  0  0  0
  5  4  1  0  0  0  0
  6  7  1  0  0  0  0
  7  8  1  0  0  0  0
  7 16  1  0  0  0  0
  8  9  1  0  0  0  0
  8 18  1  1  0  0  0
  9 19  1  0  0  0  0
 11  1  1  0  0  0  0
 12  1  1  0  0  0  0
 14  5  1  0  0  0  0
 15  6  1  0  0  0  0
 17  7  1  0  0  0  0
M TOR 0 0 1 2 3
M TOR 1 0 1 3 4
M TOR 2 0 1 3 7
M TOR 3 1 2 3 4
M TOR 4 1 2 3 7
M TOR 5 1 3 4 5
M TOR 6 1 3 4 13
M TOR 7 1 3 7 6
M TOR 8 1 3 7 8
M TOR 9 1 3 7 17
M TOR 10 2 1 0 9
M TOR 11 2 1 0 10
M TOR 12 2 1 0 11
M TOR 13 2 3 1 12
M TOR 14 2 3 4 5
M TOR 15 2 3 4 13
M TOR 16 2 3 7 6
M TOR 17 2 3 7 8
M TOR 18 2 3 7 17
M TOR 19 3 1 0 9
M TOR 20 3 1 0 10
M TOR 21 3 1 0 11
M TOR 22 3 4 5 6
M TOR 23 3 4 5 14
M TOR 24 3 7 6 5
M TOR 25 3 7 6 15
M TOR 26 3 7 6 16
M TOR 27 3 7 8 18
M TOR 28 4 3 1 12
M TOR 29 4 3 7 6
M TOR 30 4 3 7 8
M TOR 31 4 3 7 17
M TOR 32 4 5 6 7
M TOR 33 4 5 6 15
M TOR 34 4 5 6 16
M TOR 35 5 4 3 7
M TOR 36 5 6 7 8
M TOR 37 5 6 7 17
M TOR 38 6 5 4 13
M TOR 39 6 7 8 18
M TOR 40 7 3 1 12
M TOR 41 7 3 4 13
M TOR 42 7 6 5 14
M TOR 43 8 7 6 15
M TOR 44 8 7 6 16
M  END
$$$$
