gdb 1064	2.1123421	1.2901638	0.9349425	1.8775	77.04	-0.24894	-0.04991	0.19902999999999998	1310.4076	0.153593	-422.568433	-422.558406	-422.557462	-422.604529	34.819
 OpenBabel02181911403D

 19 19  0  0  1  0  0  0  0  0999 V2000
   -0.5463    3.2498   -0.4556 C   0  0  0  0  0  0  0  0  0  0  0  0
   -1.1735    2.2065    0.4400 C   0  0  0  0  0  0  0  0  0  0  0  0
   -2.3614    2.1202    0.6340 O   0  0  0  0  0  0  0  0  0  0  0  0
   -0.1868    1.2067    1.0935 C   0  0  2  0  0  0  0  0  0  0  0  0
    0.1556    0.1631    0.0258 C   0  0  0  0  0  0  0  0  0  0  0  0
    0.9243    0.3473   -0.8821 O   0  0  0  0  0  0  0  0  0  0  0  0
   -0.7617    0.5667    2.3358 C   0  0  0  0  0  0  0  0  0  0  0  0
    0.1349   -0.1944    3.2826 C   0  0  0  0  0  0  0  0  0  0  0  0
   -0.4535    1.1309    3.6974 C   0  0  0  0  0  0  0  0  0  0  0  0
   -0.0066    3.9767    0.1637 H   0  0  0  0  0  0  0  0  0  0  0  0
    0.1916    2.7851   -1.1171 H   0  0  0  0  0  0  0  0  0  0  0  0
   -1.3159    3.7675   -1.0293 H   0  0  0  0  0  0  0  0  0  0  0  0
    0.7463    1.7422    1.3046 H   0  0  0  0  0  0  0  0  0  0  0  0
   -0.3860   -0.8007    0.1413 H   0  0  0  0  0  0  0  0  0  0  0  0
   -1.7672    0.1851    2.1945 H   0  0  0  0  0  0  0  0  0  0  0  0
   -0.2511   -1.0983    3.7401 H   0  0  0  0  0  0  0  0  0  0  0  0
    1.1978   -0.2285    3.0647 H   0  0  0  0  0  0  0  0  0  0  0  0
   -1.2459    1.1367    4.4368 H   0  0  0  0  0  0  0  0  0  0  0  0
    0.2140    1.9845    3.7574 H   0  0  0  0  0  0  0  0  0  0  0  0
  1 10  1  0  0  0  0
  1  2  1  0  0  0  0
  2  3  2  0  0  0  0
  2  4  1  0  0  0  0
  4 13  1  1  0  0  0
  4  7  1  0  0  0  0
  5 14  1  0  0  0  0
  5  4  1  0  0  0  0
  6  5  2  0  0  0  0
  7  8  1  0  0  0  0
  7  9  1  0  0  0  0
  8  9  1  0  0  0  0
  8 16  1  0  0  0  0
  9 19  1  0  0  0  0
  9 18  1  0  0  0  0
 11  1  1  0  0  0  0
 12  1  1  0  0  0  0
 15  7  1  0  0  0  0
 17  8  1  0  0  0  0
M TOR 0 0 1 3 4
M TOR 1 0 1 3 6
M TOR 2 0 1 3 12
M TOR 3 1 3 4 5
M TOR 4 1 3 4 13
M TOR 5 1 3 6 7
M TOR 6 1 3 6 8
M TOR 7 1 3 6 14
M TOR 8 2 1 0 9
M TOR 9 2 1 0 10
M TOR 10 2 1 0 11
M TOR 11 2 1 3 4
M TOR 12 2 1 3 6
M TOR 13 2 1 3 12
M TOR 14 3 1 0 9
M TOR 15 3 1 0 10
M TOR 16 3 1 0 11
M TOR 17 3 6 7 8
M TOR 18 3 6 7 15
M TOR 19 3 6 7 16
M TOR 20 3 6 8 17
M TOR 21 3 6 8 18
M TOR 22 4 3 6 7
M TOR 23 4 3 6 8
M TOR 24 4 3 6 14
M TOR 25 5 4 3 6
M TOR 26 5 4 3 12
M TOR 27 6 3 4 13
M TOR 28 6 7 8 17
M TOR 29 6 7 8 18
M TOR 30 6 8 7 15
M TOR 31 6 8 7 16
M TOR 32 7 6 3 12
M TOR 33 7 8 6 14
M TOR 34 8 6 3 12
M  END
$$$$
