
     RDKit          3D

 19 21  0  0  0  0  0  0  0  0999 V2000
    0.2322    0.2253    0.3540 O   0  0  0  0  0  0  0  0  0  0  0  0
   -0.8937    1.0552    0.3826 C   0  0  0  0  0  0  0  0  0  0  0  0
   -0.9671    2.0929    1.5129 C   0  0  0  0  0  0  0  0  0  0  0  0
   -2.4832    2.4225    1.5905 C   0  0  0  0  0  0  0  0  0  0  0  0
   -3.0067    1.7974    0.2928 C   0  0  0  0  0  0  0  0  0  0  0  0
   -2.3237    2.4894   -0.7926 O   0  0  0  0  0  0  0  0  0  0  0  0
   -1.2507    1.5753   -1.0500 C   0  0  0  0  0  0  0  0  0  0  0  0
   -1.9880    0.2405   -1.3003 C   0  0  0  0  0  0  0  0  0  0  0  0
   -2.3279    0.4111    0.1993 C   0  0  0  0  0  0  0  0  0  0  0  0
    0.2908   -0.2339    1.1990 H   0  0  0  0  0  0  0  0  0  0  0  0
   -0.5873    1.6620    2.4464 H   0  0  0  0  0  0  0  0  0  0  0  0
   -0.3560    2.9718    1.2901 H   0  0  0  0  0  0  0  0  0  0  0  0
   -2.9560    1.9578    2.4635 H   0  0  0  0  0  0  0  0  0  0  0  0
   -2.6893    3.4946    1.6239 H   0  0  0  0  0  0  0  0  0  0  0  0
   -4.0868    1.8450    0.1406 H   0  0  0  0  0  0  0  0  0  0  0  0
   -0.5185    2.0186   -1.7238 H   0  0  0  0  0  0  0  0  0  0  0  0
   -2.7983    0.2579   -2.0318 H   0  0  0  0  0  0  0  0  0  0  0  0
   -1.3078   -0.5942   -1.4685 H   0  0  0  0  0  0  0  0  0  0  0  0
   -2.7149   -0.3868    0.8341 H   0  0  0  0  0  0  0  0  0  0  0  0
  1  2  1  0
  2  3  1  0
  3  4  1  0
  4  5  1  0
  5  6  1  0
  6  7  1  0
  7  8  1  0
  8  9  1  0
  7  2  1  0
  9  2  1  0
  9  5  1  0
  1 10  1  0
  3 11  1  0
  3 12  1  0
  4 13  1  0
  4 14  1  0
  5 15  1  0
  7 16  1  0
  8 17  1  0
  8 18  1  0
  9 19  1  0
M  END
$$$$
