
     RDKit          3D

 19 21  0  0  0  0  0  0  0  0999 V2000
    1.1598   -1.2353    2.1391 C   0  0  0  0  0  0  0  0  0  0  0  0
    0.4163   -2.5159    2.4443 C   0  0  0  0  0  0  0  0  0  0  0  0
    1.1114   -3.7525    2.8199 C   0  0  0  0  0  0  0  0  0  0  0  0
    0.5789   -3.5820    1.5042 O   0  0  0  0  0  0  0  0  0  0  0  0
    0.4587   -0.3951    1.0884 C   0  0  0  0  0  0  0  0  0  0  0  0
    1.3379    0.4620    0.1949 C   0  0  0  0  0  0  0  0  0  0  0  0
    0.4623    1.2083   -0.8041 C   0  0  0  0  0  0  0  0  0  0  0  0
   -0.2044   -0.0211   -1.2025 O   0  0  0  0  0  0  0  0  0  0  0  0
    0.6566   -0.7765   -0.3472 C   0  0  0  0  0  0  0  0  0  0  0  0
    1.2766   -0.6553    3.0644 H   0  0  0  0  0  0  0  0  0  0  0  0
    2.1692   -1.4953    1.7979 H   0  0  0  0  0  0  0  0  0  0  0  0
   -0.6125   -2.3896    2.7876 H   0  0  0  0  0  0  0  0  0  0  0  0
    2.1989   -3.7554    2.8871 H   0  0  0  0  0  0  0  0  0  0  0  0
    0.6080   -4.4960    3.4362 H   0  0  0  0  0  0  0  0  0  0  0  0
   -0.5232   -0.0141    1.3683 H   0  0  0  0  0  0  0  0  0  0  0  0
    2.3787    0.6642    0.4116 H   0  0  0  0  0  0  0  0  0  0  0  0
   -0.2385    1.9558   -0.4124 H   0  0  0  0  0  0  0  0  0  0  0  0
    1.0202    1.6305   -1.6478 H   0  0  0  0  0  0  0  0  0  0  0  0
    1.0160   -1.7385   -0.6918 H   0  0  0  0  0  0  0  0  0  0  0  0
  1  2  1  0
  2  3  1  0
  3  4  1  0
  1  5  1  0
  5  6  1  0
  6  7  1  0
  7  8  1  0
  8  9  1  0
  4  2  1  0
  9  5  1  0
  9  6  1  0
  1 10  1  0
  1 11  1  0
  2 12  1  0
  3 13  1  0
  3 14  1  0
  5 15  1  0
  6 16  1  0
  7 17  1  0
  7 18  1  0
  9 19  1  0
M  END
$$$$
