
     RDKit          3D

 19 21  0  0  0  0  0  0  0  0999 V2000
    1.5317    0.8910   -0.1886 O   0  0  0  0  0  0  0  0  0  0  0  0
    0.2277    0.4554    0.1627 C   0  0  0  0  0  0  0  0  0  0  0  0
   -0.7622    1.2003   -0.7301 C   0  0  0  0  0  0  0  0  0  0  0  0
   -2.1862    0.8479   -0.4493 C   0  0  0  0  0  0  0  0  0  0  0  0
   -3.4869    1.0181   -1.2377 C   0  0  0  0  0  0  0  0  0  0  0  0
   -4.1751    1.7089   -0.0620 C   0  0  0  0  0  0  0  0  0  0  0  0
   -3.1459    0.9509    0.8130 C   0  0  0  0  0  0  0  0  0  0  0  0
   -3.5257   -0.4460    0.6664 O   0  0  0  0  0  0  0  0  0  0  0  0
   -3.0501   -0.3486   -0.6749 C   0  0  0  0  0  0  0  0  0  0  0  0
    2.1644    0.4281    0.3680 H   0  0  0  0  0  0  0  0  0  0  0  0
    0.1107   -0.6297    0.0172 H   0  0  0  0  0  0  0  0  0  0  0  0
    0.0056    0.6682    1.2208 H   0  0  0  0  0  0  0  0  0  0  0  0
   -0.5993    2.2787   -0.6075 H   0  0  0  0  0  0  0  0  0  0  0  0
   -0.5303    0.9720   -1.7778 H   0  0  0  0  0  0  0  0  0  0  0  0
   -3.6001    1.2004   -2.2992 H   0  0  0  0  0  0  0  0  0  0  0  0
   -3.9874    2.7858   -0.0666 H   0  0  0  0  0  0  0  0  0  0  0  0
   -5.2304    1.5013    0.1414 H   0  0  0  0  0  0  0  0  0  0  0  0
   -2.9070    1.2303    1.8376 H   0  0  0  0  0  0  0  0  0  0  0  0
   -2.9215   -1.2514   -1.2580 H   0  0  0  0  0  0  0  0  0  0  0  0
  1  2  1  0
  2  3  1  0
  3  4  1  0
  4  5  1  0
  5  6  1  0
  6  7  1  0
  7  8  1  0
  8  9  1  0
  7  4  1  0
  9  4  1  0
  9  5  1  0
  1 10  1  0
  2 11  1  0
  2 12  1  0
  3 13  1  0
  3 14  1  0
  5 15  1  0
  6 16  1  0
  6 17  1  0
  7 18  1  0
  9 19  1  0
M  END
$$$$
