gdb 4634	3.2428564	0.6270084	0.5516026	1.4939	81.39	-0.24153	-0.01618	0.22535	1992.3076	0.153172	-422.542072	-422.530919	-422.529975	-422.58144	37.158
 OpenBabel02181911413D

 19 18  0  0  0  0  0  0  0  0999 V2000
    5.7022    0.7094   -3.0253 C   0  0  0  0  0  0  0  0  0  0  0  0
    4.6024    0.5560   -1.9784 C   0  0  0  0  0  0  0  0  0  0  0  0
    4.6311   -0.7833   -1.2677 C   0  0  0  0  0  0  0  0  0  0  0  0
    5.3921   -1.6712   -1.5663 O   0  0  0  0  0  0  0  0  0  0  0  0
    3.6658   -0.9802   -0.0765 C   0  0  0  0  0  0  0  0  0  0  0  0
    2.3670   -0.3342   -0.1903 C   0  0  0  0  0  0  0  0  0  0  0  0
    1.2907    0.1952   -0.3082 C   0  0  0  0  0  0  0  0  0  0  0  0
   -0.0191    0.8423   -0.3894 C   0  0  0  0  0  0  0  0  0  0  0  0
   -0.1572    1.9575    0.4798 O   0  0  0  0  0  0  0  0  0  0  0  0
    6.6927    0.6292   -2.5695 H   0  0  0  0  0  0  0  0  0  0  0  0
    5.6299   -0.0749   -3.7827 H   0  0  0  0  0  0  0  0  0  0  0  0
    5.6280    1.6805   -3.5222 H   0  0  0  0  0  0  0  0  0  0  0  0
    4.6504    1.3461   -1.2164 H   0  0  0  0  0  0  0  0  0  0  0  0
    3.6045    0.6667   -2.4221 H   0  0  0  0  0  0  0  0  0  0  0  0
    3.5683   -2.0594    0.0785 H   0  0  0  0  0  0  0  0  0  0  0  0
    4.1940   -0.5892    0.8064 H   0  0  0  0  0  0  0  0  0  0  0  0
   -0.1845    1.2324   -1.3999 H   0  0  0  0  0  0  0  0  0  0  0  0
   -0.8054    0.0919   -0.2088 H   0  0  0  0  0  0  0  0  0  0  0  0
    0.0716    1.6611    1.3670 H   0  0  0  0  0  0  0  0  0  0  0  0
  1 10  1  0  0  0  0
  1  2  1  0  0  0  0
  2  3  1  0  0  0  0
  2 13  1  0  0  0  0
  3  5  1  0  0  0  0
  4  3  2  0  0  0  0
  5 15  1  0  0  0  0
  5 16  1  0  0  0  0
  6  5  1  0  0  0  0
  7  6  3  0  0  0  0
  8  7  1  0  0  0  0
  8 18  1  0  0  0  0
  8  9  1  0  0  0  0
  9 19  1  0  0  0  0
 11  1  1  0  0  0  0
 12  1  1  0  0  0  0
 14  2  1  0  0  0  0
 17  8  1  0  0  0  0
M TOR 0 0 1 2 3
M TOR 1 0 1 2 4
M TOR 2 1 2 4 5
M TOR 3 1 2 4 14
M TOR 4 1 2 4 15
M TOR 5 2 1 0 9
M TOR 6 2 1 0 10
M TOR 7 2 1 0 11
M TOR 8 2 4 5 6
M TOR 9 3 2 1 12
M TOR 10 3 2 1 13
M TOR 11 3 2 4 5
M TOR 12 3 2 4 14
M TOR 13 3 2 4 15
M TOR 14 4 2 1 12
M TOR 15 4 2 1 13
M TOR 16 4 5 6 7
M TOR 17 5 6 7 8
M TOR 18 5 6 7 16
M TOR 19 5 6 7 17
M TOR 20 6 5 4 14
M TOR 21 6 5 4 15
M TOR 22 6 7 8 18
M  END
$$$$
