
     RDKit          3D

 19 20  0  0  0  0  0  0  0  0999 V2000
    1.8457    1.4401   -0.1705 C   0  0  0  0  0  0  0  0  0  0  0  0
    1.3306   -0.0064   -0.1608 C   0  0  0  0  0  0  0  0  0  0  0  0
    1.8471   -0.8077   -1.3143 C   0  0  0  0  0  0  0  0  0  0  0  0
    3.2166   -1.2403   -1.2941 O   0  0  0  0  0  0  0  0  0  0  0  0
    2.1945   -2.2275   -1.4965 C   0  0  0  0  0  0  0  0  0  0  0  0
    1.8338   -2.1949   -2.9847 C   0  0  0  0  0  0  0  0  0  0  0  0
    1.4551   -0.6730   -2.8192 C   0  0  0  0  0  0  0  0  0  0  0  0
    2.2461    0.3308   -3.6134 C   0  0  0  0  0  0  0  0  0  0  0  0
    1.7578    1.1934   -4.3017 O   0  0  0  0  0  0  0  0  0  0  0  0
    1.4524    1.9967    0.6846 H   0  0  0  0  0  0  0  0  0  0  0  0
    2.9382    1.4613   -0.1183 H   0  0  0  0  0  0  0  0  0  0  0  0
    1.5400    1.9655   -1.0810 H   0  0  0  0  0  0  0  0  0  0  0  0
    1.6320   -0.5083    0.7655 H   0  0  0  0  0  0  0  0  0  0  0  0
    0.2341   -0.0149   -0.1897 H   0  0  0  0  0  0  0  0  0  0  0  0
    2.1718   -3.0587   -0.8011 H   0  0  0  0  0  0  0  0  0  0  0  0
    2.6576   -2.4261   -3.6649 H   0  0  0  0  0  0  0  0  0  0  0  0
    0.9626   -2.7984   -3.2467 H   0  0  0  0  0  0  0  0  0  0  0  0
    0.3879   -0.4913   -2.9620 H   0  0  0  0  0  0  0  0  0  0  0  0
    3.3475    0.2241   -3.5129 H   0  0  0  0  0  0  0  0  0  0  0  0
  1  2  1  0
  2  3  1  0
  3  4  1  0
  4  5  1  0
  5  6  1  0
  6  7  1  0
  7  8  1  0
  8  9  2  0
  5  3  1  0
  7  3  1  0
  1 10  1  0
  1 11  1  0
  1 12  1  0
  2 13  1  0
  2 14  1  0
  5 15  1  0
  6 16  1  0
  6 17  1  0
  7 18  1  0
  8 19  1  0
M  END
$$$$
