
     RDKit          3D

 19 19  0  0  0  0  0  0  0  0999 V2000
   -0.8288    3.6504   -1.7806 C   0  0  0  0  0  0  0  0  0  0  0  0
   -1.7663    2.4796   -1.4845 C   0  0  0  0  0  0  0  0  0  0  0  0
   -3.2575    2.8824   -1.3033 C   0  0  0  0  0  0  0  0  0  0  0  0
   -3.7382    1.9995   -0.1807 C   0  0  0  0  0  0  0  0  0  0  0  0
   -2.7419    1.3487    0.4152 C   0  0  0  0  0  0  0  0  0  0  0  0
   -1.4136    1.6830   -0.1992 C   0  0  0  0  0  0  0  0  0  0  0  0
   -0.7114    0.4408   -0.5057 O   0  0  0  0  0  0  0  0  0  0  0  0
    0.6252    0.4715   -0.4999 C   0  0  0  0  0  0  0  0  0  0  0  0
    1.3255    1.4280   -0.3006 O   0  0  0  0  0  0  0  0  0  0  0  0
   -0.8694    4.3942   -0.9764 H   0  0  0  0  0  0  0  0  0  0  0  0
    0.2075    3.3149   -1.8684 H   0  0  0  0  0  0  0  0  0  0  0  0
   -1.1119    4.1527   -2.7114 H   0  0  0  0  0  0  0  0  0  0  0  0
   -1.7093    1.7551   -2.3046 H   0  0  0  0  0  0  0  0  0  0  0  0
   -3.3459    3.9424   -1.0261 H   0  0  0  0  0  0  0  0  0  0  0  0
   -3.8426    2.7590   -2.2220 H   0  0  0  0  0  0  0  0  0  0  0  0
   -4.7803    1.9453    0.1152 H   0  0  0  0  0  0  0  0  0  0  0  0
   -2.8266    0.6803    1.2639 H   0  0  0  0  0  0  0  0  0  0  0  0
   -0.7633    2.2519    0.4732 H   0  0  0  0  0  0  0  0  0  0  0  0
    0.9987   -0.5438   -0.7088 H   0  0  0  0  0  0  0  0  0  0  0  0
  1  2  1  0
  2  3  1  0
  3  4  1  0
  4  5  2  0
  5  6  1  0
  6  7  1  0
  7  8  1  0
  8  9  2  0
  6  2  1  0
  1 10  1  0
  1 11  1  0
  1 12  1  0
  2 13  1  0
  3 14  1  0
  3 15  1  0
  4 16  1  0
  5 17  1  0
  6 18  1  0
  8 19  1  0
M  END
$$$$
