
     RDKit          3D

 19 21  0  0  0  0  0  0  0  0999 V2000
    1.9920   -0.4753    0.5873 C   0  0  0  0  0  0  0  0  0  0  0  0
    1.1896   -1.3525   -0.2054 O   0  0  0  0  0  0  0  0  0  0  0  0
    0.2435   -0.5727   -0.9321 C   0  0  0  0  0  0  0  0  0  0  0  0
   -0.0443    0.6160   -0.0468 C   0  0  0  0  0  0  0  0  0  0  0  0
   -0.8028    1.8707   -0.4075 C   0  0  0  0  0  0  0  0  0  0  0  0
   -1.0068    2.5465    0.8306 O   0  0  0  0  0  0  0  0  0  0  0  0
   -1.1173    1.5723    1.8700 C   0  0  0  0  0  0  0  0  0  0  0  0
   -0.2728    0.3892    1.4311 C   0  0  0  0  0  0  0  0  0  0  0  0
    1.1097    0.7131    0.9261 C   0  0  0  0  0  0  0  0  0  0  0  0
    2.3335   -1.0522    1.4533 H   0  0  0  0  0  0  0  0  0  0  0  0
    2.8784   -0.1340    0.0286 H   0  0  0  0  0  0  0  0  0  0  0  0
    0.6547   -0.2431   -1.9015 H   0  0  0  0  0  0  0  0  0  0  0  0
   -0.6230   -1.2137   -1.1284 H   0  0  0  0  0  0  0  0  0  0  0  0
   -0.2592    2.5570   -1.0662 H   0  0  0  0  0  0  0  0  0  0  0  0
   -1.7624    1.6180   -0.8901 H   0  0  0  0  0  0  0  0  0  0  0  0
   -0.7826    2.0544    2.7946 H   0  0  0  0  0  0  0  0  0  0  0  0
   -2.1633    1.2533    2.0061 H   0  0  0  0  0  0  0  0  0  0  0  0
   -0.4889   -0.5973    1.8276 H   0  0  0  0  0  0  0  0  0  0  0  0
    1.5679    1.6657    1.1706 H   0  0  0  0  0  0  0  0  0  0  0  0
  1  2  1  0
  2  3  1  0
  3  4  1  0
  4  5  1  0
  5  6  1  0
  6  7  1  0
  7  8  1  0
  8  9  1  0
  9  1  1  0
  8  4  1  0
  9  4  1  0
  1 10  1  0
  1 11  1  0
  3 12  1  0
  3 13  1  0
  5 14  1  0
  5 15  1  0
  7 16  1  0
  7 17  1  0
  8 18  1  0
  9 19  1  0
M  END
$$$$
