
     RDKit          3D

 19 20  0  0  0  0  0  0  0  0999 V2000
   -3.3042    1.5923    0.3266 C   0  0  0  0  0  0  0  0  0  0  0  0
   -2.2466    0.7518   -0.3478 C   0  0  0  0  0  0  0  0  0  0  0  0
   -1.5646    1.2374   -1.5877 C   0  0  0  0  0  0  0  0  0  0  0  0
   -0.7652    1.1171   -0.2917 C   0  0  0  0  0  0  0  0  0  0  0  0
    0.0112   -0.1496   -0.1778 C   0  0  0  0  0  0  0  0  0  0  0  0
    1.2027   -0.3225   -0.2894 O   0  0  0  0  0  0  0  0  0  0  0  0
   -0.9637   -1.2942    0.1263 C   0  0  0  0  0  0  0  0  0  0  0  0
   -0.5843   -2.4988   -0.4841 O   0  0  0  0  0  0  0  0  0  0  0  0
   -2.3628   -0.7847   -0.2648 C   0  0  0  0  0  0  0  0  0  0  0  0
   -3.3793    1.3547    1.3937 H   0  0  0  0  0  0  0  0  0  0  0  0
   -3.0822    2.6603    0.2353 H   0  0  0  0  0  0  0  0  0  0  0  0
   -4.2887    1.4182   -0.1225 H   0  0  0  0  0  0  0  0  0  0  0  0
   -1.3633    0.5394   -2.3947 H   0  0  0  0  0  0  0  0  0  0  0  0
   -1.7543    2.2541   -1.9155 H   0  0  0  0  0  0  0  0  0  0  0  0
   -0.3775    2.0259    0.1534 H   0  0  0  0  0  0  0  0  0  0  0  0
   -0.9300   -1.3838    1.2301 H   0  0  0  0  0  0  0  0  0  0  0  0
    0.3812   -2.4615   -0.5503 H   0  0  0  0  0  0  0  0  0  0  0  0
   -2.6573   -1.2213   -1.2239 H   0  0  0  0  0  0  0  0  0  0  0  0
   -3.1125   -1.0778    0.4738 H   0  0  0  0  0  0  0  0  0  0  0  0
  1  2  1  0
  2  3  1  0
  3  4  1  0
  4  5  1  0
  5  6  2  0
  5  7  1  0
  7  8  1  0
  7  9  1  0
  4  2  1  0
  9  2  1  0
  1 10  1  0
  1 11  1  0
  1 12  1  0
  3 13  1  0
  3 14  1  0
  4 15  1  0
  7 16  1  0
  8 17  1  0
  9 18  1  0
  9 19  1  0
M  END
$$$$
