gdb 696	3.8708471	0.9122685	0.7903469	1.1309	76.75	-0.25338	-0.03143	0.22194999999999998	1450.8031	0.15561	-422.531871	-422.522964	-422.52202	-422.566624	32.124
 OpenBabel02181911403D

 19 20  0  0  1  0  0  0  0  0999 V2000
    1.3129   -0.1277    0.0164 O   0  0  0  0  0  0  0  0  0  0  0  0
    0.1210   -0.0993   -0.0079 C   0  0  0  0  0  0  0  0  0  0  0  0
   -1.0176   -1.1263   -0.0365 C   0  0  0  0  0  0  0  0  0  0  0  0
   -1.9728   -0.0491    0.0278 O   0  0  0  0  0  0  0  0  0  0  0  0
   -0.9589    0.9930    0.0180 C   0  0  1  0  0  0  0  0  0  0  0  0
   -0.9939    1.9172    1.2299 C   0  0  0  0  0  0  0  0  0  0  0  0
   -2.1879    2.8486    1.2313 C   0  0  0  0  0  0  0  0  0  0  0  0
   -3.5355    2.3548    1.6929 C   0  0  0  0  0  0  0  0  0  0  0  0
   -2.7667    3.3432    2.5333 C   0  0  0  0  0  0  0  0  0  0  0  0
   -1.0893   -1.7117   -0.9625 H   0  0  0  0  0  0  0  0  0  0  0  0
   -1.0703   -1.8037    0.8252 H   0  0  0  0  0  0  0  0  0  0  0  0
   -1.0019    1.5739   -0.9154 H   0  0  0  0  0  0  0  0  0  0  0  0
   -0.9947    1.3048    2.1398 H   0  0  0  0  0  0  0  0  0  0  0  0
   -0.0579    2.4916    1.2332 H   0  0  0  0  0  0  0  0  0  0  0  0
   -2.1969    3.5573    0.4064 H   0  0  0  0  0  0  0  0  0  0  0  0
   -4.4180    2.7013    1.1670 H   0  0  0  0  0  0  0  0  0  0  0  0
   -3.5983    1.3281    2.0348 H   0  0  0  0  0  0  0  0  0  0  0  0
   -3.1210    4.3669    2.5815 H   0  0  0  0  0  0  0  0  0  0  0  0
   -2.3165    2.9878    3.4547 H   0  0  0  0  0  0  0  0  0  0  0  0
  2  1  2  0  0  0  0
  2  5  1  0  0  0  0
  3  2  1  0  0  0  0
  3  4  1  0  0  0  0
  3 11  1  0  0  0  0
  5 12  1  6  0  0  0
  5  4  1  0  0  0  0
  5  6  1  0  0  0  0
  6  7  1  0  0  0  0
  6 14  1  0  0  0  0
  6 13  1  0  0  0  0
  7  8  1  0  0  0  0
  7  9  1  0  0  0  0
  8 17  1  0  0  0  0
  8  9  1  0  0  0  0
  9 18  1  0  0  0  0
  9 19  1  0  0  0  0
 10  3  1  0  0  0  0
 15  7  1  0  0  0  0
 16  8  1  0  0  0  0
M TOR 0 0 1 2 3
M TOR 1 0 1 2 9
M TOR 2 0 1 2 10
M TOR 3 0 1 4 3
M TOR 4 0 1 4 5
M TOR 5 0 1 4 11
M TOR 6 1 2 3 4
M TOR 7 1 4 5 6
M TOR 8 1 4 5 12
M TOR 9 1 4 5 13
M TOR 10 2 1 4 5
M TOR 11 2 1 4 11
M TOR 12 2 3 4 5
M TOR 13 2 3 4 11
M TOR 14 3 4 5 6
M TOR 15 3 4 5 12
M TOR 16 3 4 5 13
M TOR 17 4 1 2 9
M TOR 18 4 1 2 10
M TOR 19 4 3 2 9
M TOR 20 4 3 2 10
M TOR 21 4 5 6 7
M TOR 22 4 5 6 8
M TOR 23 4 5 6 14
M TOR 24 5 6 7 8
M TOR 25 5 6 7 15
M TOR 26 5 6 7 16
M TOR 27 5 6 8 17
M TOR 28 5 6 8 18
M TOR 29 6 5 4 11
M TOR 30 6 7 8 17
M TOR 31 6 7 8 18
M TOR 32 6 8 7 15
M TOR 33 6 8 7 16
M TOR 34 7 6 5 12
M TOR 35 7 6 5 13
M TOR 36 7 8 6 14
M TOR 37 8 6 5 12
M TOR 38 8 6 5 13
M  END
$$$$
