gdb 5925	1.8177866	1.0544137	0.6960469	3.1684	79.65	-0.24796	-0.02576	0.2222	1605.8869	0.152176	-422.520117	-422.509301	-422.508357	-422.557433	36.819
 OpenBabel02181911423D

 19 18  0  0  1  0  0  0  0  0999 V2000
   -3.7858    2.4269   -1.7999 C   0  0  0  0  0  0  0  0  0  0  0  0
   -2.7673    2.9044   -0.7801 C   0  0  0  0  0  0  0  0  0  0  0  0
   -2.1433    1.7612   -0.2086 O   0  0  0  0  0  0  0  0  0  0  0  0
   -1.1435    2.0559    0.7517 C   0  0  2  0  0  0  0  0  0  0  0  0
   -0.4160    0.7326    1.0482 C   0  0  0  0  0  0  0  0  0  0  0  0
    0.3100    0.1844   -0.1647 C   0  0  0  0  0  0  0  0  0  0  0  0
    1.3876   -0.3512   -0.1163 O   0  0  0  0  0  0  0  0  0  0  0  0
   -1.6957    2.6442    1.9788 C   0  0  0  0  0  0  0  0  0  0  0  0
   -2.1476    3.1134    2.9889 C   0  0  0  0  0  0  0  0  0  0  0  0
   -4.5443    1.8019   -1.3206 H   0  0  0  0  0  0  0  0  0  0  0  0
   -4.2842    3.2828   -2.2645 H   0  0  0  0  0  0  0  0  0  0  0  0
   -3.3020    1.8391   -2.5851 H   0  0  0  0  0  0  0  0  0  0  0  0
   -2.0059    3.5435   -1.2565 H   0  0  0  0  0  0  0  0  0  0  0  0
   -3.2507    3.4995    0.0074 H   0  0  0  0  0  0  0  0  0  0  0  0
   -0.4236    2.7750    0.3220 H   0  0  0  0  0  0  0  0  0  0  0  0
    0.2926    0.8464    1.8712 H   0  0  0  0  0  0  0  0  0  0  0  0
   -1.1773    0.0014    1.3497 H   0  0  0  0  0  0  0  0  0  0  0  0
   -0.2376    0.3027   -1.1236 H   0  0  0  0  0  0  0  0  0  0  0  0
   -2.5457    3.5323    3.8803 H   0  0  0  0  0  0  0  0  0  0  0  0
  1 10  1  0  0  0  0
  1  2  1  0  0  0  0
  2  3  1  0  0  0  0
  2 14  1  0  0  0  0
  3  4  1  0  0  0  0
  4 15  1  6  0  0  0
  4  5  1  0  0  0  0
  4  8  1  0  0  0  0
  5 17  1  0  0  0  0
  5 16  1  0  0  0  0
  6  7  2  0  0  0  0
  6  5  1  0  0  0  0
  8  9  3  0  0  0  0
  9 19  1  0  0  0  0
 11  1  1  0  0  0  0
 12  1  1  0  0  0  0
 13  2  1  0  0  0  0
 18  6  1  0  0  0  0
M TOR 0 0 1 2 3
M TOR 1 1 2 3 4
M TOR 2 1 2 3 7
M TOR 3 1 2 3 14
M TOR 4 2 1 0 9
M TOR 5 2 1 0 10
M TOR 6 2 1 0 11
M TOR 7 2 3 4 5
M TOR 8 2 3 4 15
M TOR 9 2 3 4 16
M TOR 10 2 3 7 8
M TOR 11 3 2 1 12
M TOR 12 3 2 1 13
M TOR 13 3 4 5 6
M TOR 14 3 4 5 17
M TOR 15 3 7 8 18
M TOR 16 4 3 7 8
M TOR 17 5 4 3 7
M TOR 18 5 4 3 14
M TOR 19 6 5 4 15
M TOR 20 6 5 4 16
M TOR 21 7 3 4 15
M TOR 22 7 3 4 16
M TOR 23 8 7 3 14
M  END
$$$$
