gdb 5115	2.5437684	1.6490902	1.2101938	1.2052	75.07	-0.22634	0.06806	0.2944	1081.7273	0.154274	-422.466391	-422.457488	-422.456544	-422.499647	33.498
 OpenBabel02181911423D

 19 21  0  0  1  0  0  0  0  0999 V2000
    1.3878    0.1387   -0.1281 C   0  0  0  0  0  0  0  0  0  0  0  0
   -0.0197   -0.0250   -0.0196 O   0  0  0  0  0  0  0  0  0  0  0  0
   -0.5590    0.5744    1.0946 C   0  0  1  0  0  0  0  0  0  0  0  0
   -0.7298    2.0599    1.2624 C   0  0  0  0  0  0  0  0  0  0  0  0
   -1.9471    1.1519    1.2421 C   0  0  2  0  0  0  0  0  0  0  0  0
   -2.0949    0.3736    2.5852 C   0  0  2  0  0  0  0  0  0  0  0  0
   -1.0373    0.7557    3.4878 O   0  0  0  0  0  0  0  0  0  0  0  0
   -0.7617   -0.2074    2.4581 C   0  0  2  0  0  0  0  0  0  0  0  0
   -0.1712   -1.5315    2.8082 C   0  0  0  0  0  0  0  0  0  0  0  0
    1.9173   -0.3168    0.7197 H   0  0  0  0  0  0  0  0  0  0  0  0
    1.6948   -0.3615   -1.0493 H   0  0  0  0  0  0  0  0  0  0  0  0
    1.6621    1.2005   -0.1813 H   0  0  0  0  0  0  0  0  0  0  0  0
   -0.4349    2.5713    2.1699 H   0  0  0  0  0  0  0  0  0  0  0  0
   -0.5964    2.6166    0.3395 H   0  0  0  0  0  0  0  0  0  0  0  0
   -2.7280    1.2324    0.4985 H   0  0  0  0  0  0  0  0  0  0  0  0
   -3.0091   -0.0086    3.0240 H   0  0  0  0  0  0  0  0  0  0  0  0
   -0.7000   -1.9736    3.6569 H   0  0  0  0  0  0  0  0  0  0  0  0
   -0.2387   -2.2106    1.9531 H   0  0  0  0  0  0  0  0  0  0  0  0
    0.8862   -1.4320    3.0789 H   0  0  0  0  0  0  0  0  0  0  0  0
  1  2  1  0  0  0  0
  1 10  1  0  0  0  0
  3  2  1  6  0  0  0
  3  5  1  0  0  0  0
  3  4  1  0  0  0  0
  3  8  1  0  0  0  0
  4 13  1  0  0  0  0
  5 15  1  6  0  0  0
  5  4  1  0  0  0  0
  5  6  1  0  0  0  0
  6 16  1  1  0  0  0
  6  7  1  0  0  0  0
  8  6  1  0  0  0  0
  8  9  1  1  0  0  0
  8  7  1  0  0  0  0
  9 19  1  0  0  0  0
  9 17  1  0  0  0  0
 11  1  1  0  0  0  0
 12  1  1  0  0  0  0
 14  4  1  0  0  0  0
 18  9  1  0  0  0  0
M TOR 0 0 1 2 3
M TOR 1 0 1 2 4
M TOR 2 0 1 2 7
M TOR 3 1 2 3 4
M TOR 4 1 2 3 12
M TOR 5 1 2 3 13
M TOR 6 1 2 4 5
M TOR 7 1 2 4 14
M TOR 8 1 2 7 5
M TOR 9 1 2 7 6
M TOR 10 1 2 7 8
M TOR 11 2 1 0 9
M TOR 12 2 1 0 10
M TOR 13 2 1 0 11
M TOR 14 2 3 4 5
M TOR 15 2 3 4 14
M TOR 16 2 4 3 12
M TOR 17 2 4 3 13
M TOR 18 2 4 5 6
M TOR 19 2 4 5 7
M TOR 20 2 4 5 15
M TOR 21 2 7 5 6
M TOR 22 2 7 5 15
M TOR 23 2 7 8 16
M TOR 24 2 7 8 17
M TOR 25 2 7 8 18
M TOR 26 3 2 7 5
M TOR 27 3 2 7 6
M TOR 28 3 2 7 8
M TOR 29 3 4 2 7
M TOR 30 3 4 5 6
M TOR 31 3 4 5 7
M TOR 32 3 4 5 15
M TOR 33 4 2 7 6
M TOR 34 4 2 7 8
M TOR 35 4 5 6 7
M TOR 36 4 5 7 8
M TOR 37 5 4 3 12
M TOR 38 5 4 3 13
M TOR 39 5 6 7 8
M TOR 40 5 7 8 16
M TOR 41 5 7 8 17
M TOR 42 5 7 8 18
M TOR 43 6 5 4 14
M TOR 44 6 7 5 15
M TOR 45 6 7 8 16
M TOR 46 6 7 8 17
M TOR 47 6 7 8 18
M TOR 48 7 2 3 12
M TOR 49 7 2 3 13
M TOR 50 7 2 4 14
M TOR 51 7 5 4 14
M TOR 52 8 7 5 15
M  END
$$$$
