
     RDKit          3D

 19 18  0  0  0  0  0  0  0  0999 V2000
    5.8091    0.1675    3.6900 C   0  0  0  0  0  0  0  0  0  0  0  0
    5.1108   -0.8947    2.8376 C   0  0  0  0  0  0  0  0  0  0  0  0
    4.1322   -1.6236    3.5623 O   0  0  0  0  0  0  0  0  0  0  0  0
    4.4408   -0.2493    1.6158 C   0  0  0  0  0  0  0  0  0  0  0  0
    5.0954    0.4553    0.8803 O   0  0  0  0  0  0  0  0  0  0  0  0
    2.9724   -0.5379    1.3795 C   0  0  0  0  0  0  0  0  0  0  0  0
    2.4369    0.1545    0.1172 C   0  0  0  0  0  0  0  0  0  0  0  0
    1.0243   -0.1227   -0.1093 C   0  0  0  0  0  0  0  0  0  0  0  0
   -0.1413   -0.3651   -0.2759 C   0  0  0  0  0  0  0  0  0  0  0  0
    6.3816   -0.3021    4.4971 H   0  0  0  0  0  0  0  0  0  0  0  0
    6.4934    0.7499    3.0694 H   0  0  0  0  0  0  0  0  0  0  0  0
    5.0724    0.8425    4.1364 H   0  0  0  0  0  0  0  0  0  0  0  0
    5.8733   -1.5764    2.4241 H   0  0  0  0  0  0  0  0  0  0  0  0
    4.5525   -1.9945    4.3438 H   0  0  0  0  0  0  0  0  0  0  0  0
    2.8344   -1.6243    1.3302 H   0  0  0  0  0  0  0  0  0  0  0  0
    2.4120   -0.2350    2.2716 H   0  0  0  0  0  0  0  0  0  0  0  0
    2.6009    1.2349    0.1989 H   0  0  0  0  0  0  0  0  0  0  0  0
    3.0277   -0.1641   -0.7490 H   0  0  0  0  0  0  0  0  0  0  0  0
   -1.1704   -0.5703   -0.4361 H   0  0  0  0  0  0  0  0  0  0  0  0
  1  2  1  0
  2  3  1  0
  2  4  1  0
  4  5  2  0
  4  6  1  0
  6  7  1  0
  7  8  1  0
  8  9  3  0
  1 10  1  0
  1 11  1  0
  1 12  1  0
  2 13  1  0
  3 14  1  0
  6 15  1  0
  6 16  1  0
  7 17  1  0
  7 18  1  0
  9 19  1  0
M  END
$$$$
