
     RDKit          3D

 19 21  0  0  0  0  0  0  0  0999 V2000
    1.3122    1.1493   -0.1267 C   0  0  0  0  0  0  0  0  0  0  0  0
    1.0899   -0.3508    0.0082 C   0  0  0  0  0  0  0  0  0  0  0  0
    1.8905   -1.1785   -1.0048 C   0  0  0  0  0  0  0  0  0  0  0  0
    1.9734   -1.0017   -2.3691 O   0  0  0  0  0  0  0  0  0  0  0  0
    2.1748   -2.5099   -0.2867 C   0  0  0  0  0  0  0  0  0  0  0  0
    1.5353   -2.4646    0.9855 O   0  0  0  0  0  0  0  0  0  0  0  0
    1.9898   -1.0692    1.0659 C   0  0  0  0  0  0  0  0  0  0  0  0
    2.1946   -0.5763    2.4634 C   0  0  0  0  0  0  0  0  0  0  0  0
    3.0700   -1.3348   -0.0604 C   0  0  0  0  0  0  0  0  0  0  0  0
    0.8638    1.6960    0.7092 H   0  0  0  0  0  0  0  0  0  0  0  0
    2.3804    1.3906   -0.1617 H   0  0  0  0  0  0  0  0  0  0  0  0
    0.8631    1.5231   -1.0523 H   0  0  0  0  0  0  0  0  0  0  0  0
    0.0238   -0.5898    0.1113 H   0  0  0  0  0  0  0  0  0  0  0  0
    1.2333   -1.4617   -2.7815 H   0  0  0  0  0  0  0  0  0  0  0  0
    2.3341   -3.4597   -0.7813 H   0  0  0  0  0  0  0  0  0  0  0  0
    2.9278   -1.1955    2.9877 H   0  0  0  0  0  0  0  0  0  0  0  0
    2.5464    0.4594    2.4625 H   0  0  0  0  0  0  0  0  0  0  0  0
    1.2502   -0.6195    3.0171 H   0  0  0  0  0  0  0  0  0  0  0  0
    4.1343   -1.1706   -0.1534 H   0  0  0  0  0  0  0  0  0  0  0  0
  1  2  1  0
  2  3  1  0
  3  4  1  0
  3  5  1  0
  5  6  1  0
  6  7  1  0
  7  8  1  0
  7  9  1  0
  7  2  1  0
  9  3  1  0
  9  5  1  0
  1 10  1  0
  1 11  1  0
  1 12  1  0
  2 13  1  0
  4 14  1  0
  5 15  1  0
  8 16  1  0
  8 17  1  0
  8 18  1  0
  9 19  1  0
M  END
$$$$
