
     RDKit          3D

 19 21  0  0  0  0  0  0  0  0999 V2000
    1.9773   -0.4837    1.6727 C   0  0  0  0  0  0  0  0  0  0  0  0
    2.7592   -0.3265    0.3677 C   0  0  0  0  0  0  0  0  0  0  0  0
    1.9889   -0.6853   -0.7723 O   0  0  0  0  0  0  0  0  0  0  0  0
    1.1220    0.2698   -1.2869 C   0  0  0  0  0  0  0  0  0  0  0  0
   -0.3511    0.2516   -1.0401 C   0  0  0  0  0  0  0  0  0  0  0  0
   -0.6653   -0.1931    0.2759 O   0  0  0  0  0  0  0  0  0  0  0  0
    0.0078    0.9664    0.8497 C   0  0  0  0  0  0  0  0  0  0  0  0
    0.9848    0.6473    1.9702 C   0  0  0  0  0  0  0  0  0  0  0  0
    0.5032    1.4175   -0.5279 C   0  0  0  0  0  0  0  0  0  0  0  0
    1.4426   -1.4374    1.6198 H   0  0  0  0  0  0  0  0  0  0  0  0
    2.6883   -0.5561    2.5051 H   0  0  0  0  0  0  0  0  0  0  0  0
    3.1539    0.6952    0.2624 H   0  0  0  0  0  0  0  0  0  0  0  0
    3.6112   -1.0139    0.3623 H   0  0  0  0  0  0  0  0  0  0  0  0
    1.3695    0.5529   -2.3114 H   0  0  0  0  0  0  0  0  0  0  0  0
   -1.1240    0.1764   -1.7971 H   0  0  0  0  0  0  0  0  0  0  0  0
   -0.7574    1.6651    1.2123 H   0  0  0  0  0  0  0  0  0  0  0  0
    1.5259    1.5768    2.1968 H   0  0  0  0  0  0  0  0  0  0  0  0
    0.4147    0.3971    2.8735 H   0  0  0  0  0  0  0  0  0  0  0  0
    0.5794    2.4491   -0.8468 H   0  0  0  0  0  0  0  0  0  0  0  0
  1  2  1  0
  2  3  1  0
  3  4  1  0
  4  5  1  0
  5  6  1  0
  6  7  1  0
  7  8  1  0
  7  9  1  0
  8  1  1  0
  9  4  1  0
  9  5  1  0
  1 10  1  0
  1 11  1  0
  2 12  1  0
  2 13  1  0
  4 14  1  0
  5 15  1  0
  7 16  1  0
  8 17  1  0
  8 18  1  0
  9 19  1  0
M  END
$$$$
