gdb 1053	6.2126878	0.5139037	0.480295	1.8017	82.17	-0.25004	0.01636	0.26639999999999997	2233.0704	0.153212	-422.568812	-422.557445	-422.556501	-422.609167	36.624
 OpenBabel02181911403D

 19 18  0  0  0  0  0  0  0  0999 V2000
    1.4103   -6.9883   -0.2666 C   0  0  0  0  0  0  0  0  0  0  0  0
    0.6607   -5.7410   -0.2188 C   0  0  0  0  0  0  0  0  0  0  0  0
    0.0313   -4.7156   -0.1799 C   0  0  0  0  0  0  0  0  0  0  0  0
   -0.6976   -3.4539   -0.1308 C   0  0  0  0  0  0  0  0  0  0  0  0
    0.2502   -2.2564   -0.0451 C   0  0  0  0  0  0  0  0  0  0  0  0
   -0.5716   -1.0777   -0.0027 O   0  0  0  0  0  0  0  0  0  0  0  0
    0.0898    0.0982    0.0751 C   0  0  0  0  0  0  0  0  0  0  0  0
   -0.8816    1.2535    0.1126 C   0  0  0  0  0  0  0  0  0  0  0  0
    1.2905    0.1854    0.1085 O   0  0  0  0  0  0  0  0  0  0  0  0
    1.1579   -7.6378    0.5788 H   0  0  0  0  0  0  0  0  0  0  0  0
    1.2003   -7.5447   -1.1867 H   0  0  0  0  0  0  0  0  0  0  0  0
    2.4897   -6.8038   -0.2309 H   0  0  0  0  0  0  0  0  0  0  0  0
   -1.3308   -3.3416   -1.0196 H   0  0  0  0  0  0  0  0  0  0  0  0
   -1.3727   -3.4339    0.7337 H   0  0  0  0  0  0  0  0  0  0  0  0
    0.8735   -2.3036    0.8521 H   0  0  0  0  0  0  0  0  0  0  0  0
    0.9156   -2.2107   -0.9116 H   0  0  0  0  0  0  0  0  0  0  0  0
   -0.3287    2.1898    0.1760 H   0  0  0  0  0  0  0  0  0  0  0  0
   -1.5061    1.2481   -0.7853 H   0  0  0  0  0  0  0  0  0  0  0  0
   -1.5496    1.1546    0.9729 H   0  0  0  0  0  0  0  0  0  0  0  0
  1 12  1  0  0  0  0
  1  2  1  0  0  0  0
  1 10  1  0  0  0  0
  2  3  3  0  0  0  0
  3  4  1  0  0  0  0
  4  5  1  0  0  0  0
  4 14  1  0  0  0  0
  5  6  1  0  0  0  0
  5 15  1  0  0  0  0
  6  7  1  0  0  0  0
  7  9  2  0  0  0  0
  7  8  1  0  0  0  0
  8 17  1  0  0  0  0
  8 19  1  0  0  0  0
 11  1  1  0  0  0  0
 13  4  1  0  0  0  0
 16  5  1  0  0  0  0
 18  8  1  0  0  0  0
M TOR 0 0 1 2 3
M TOR 1 1 2 3 4
M TOR 2 1 2 3 12
M TOR 3 1 2 3 13
M TOR 4 2 1 0 9
M TOR 5 2 1 0 10
M TOR 6 2 1 0 11
M TOR 7 2 3 4 5
M TOR 8 2 3 4 14
M TOR 9 2 3 4 15
M TOR 10 3 4 5 6
M TOR 11 4 5 6 7
M TOR 12 4 5 6 8
M TOR 13 5 4 3 12
M TOR 14 5 4 3 13
M TOR 15 5 6 7 16
M TOR 16 5 6 7 17
M TOR 17 5 6 7 18
M TOR 18 6 5 4 14
M TOR 19 6 5 4 15
M TOR 20 8 6 7 16
M TOR 21 8 6 7 17
M TOR 22 8 6 7 18
M  END
$$$$
