gdb 5556	3.0584325	1.3271392	1.0748534	2.1673	73.57	-0.2573	0.06086	0.31816	1147.3769	0.15794	-422.528997	-422.521003	-422.520059	-422.561577	30.926
 OpenBabel02181911423D

 19 21  0  0  1  0  0  0  0  0999 V2000
    1.4994    0.6578    0.1267 O   0  0  0  0  0  0  0  0  0  0  0  0
    0.4628   -0.1737    0.6217 C   0  0  0  0  0  0  0  0  0  0  0  0
   -0.4025    0.5049    1.6962 C   0  0  1  0  0  0  0  0  0  0  0  0
   -1.5773   -0.4035    2.0897 C   0  0  2  0  0  0  0  0  0  0  0  0
   -2.5892    0.0517    3.1075 C   0  0  0  0  0  0  0  0  0  0  0  0
   -1.4296   -0.8085    3.5490 C   0  0  2  0  0  0  0  0  0  0  0  0
   -0.2174   -0.0749    4.0742 C   0  0  2  0  0  0  0  0  0  0  0  0
   -0.3288    1.3572    4.0478 O   0  0  0  0  0  0  0  0  0  0  0  0
    0.3870    0.7145    2.9870 C   0  0  2  0  0  0  0  0  0  0  0  0
    2.1938    0.7091    0.7895 H   0  0  0  0  0  0  0  0  0  0  0  0
   -0.1661   -0.4113   -0.2425 H   0  0  0  0  0  0  0  0  0  0  0  0
    0.8578   -1.1278    1.0056 H   0  0  0  0  0  0  0  0  0  0  0  0
   -0.7385    1.4677    1.2942 H   0  0  0  0  0  0  0  0  0  0  0  0
   -1.9065   -1.1281    1.3509 H   0  0  0  0  0  0  0  0  0  0  0  0
   -2.5867    1.0880    3.4217 H   0  0  0  0  0  0  0  0  0  0  0  0
   -3.5661   -0.4182    3.0687 H   0  0  0  0  0  0  0  0  0  0  0  0
   -1.6008   -1.8219    3.8913 H   0  0  0  0  0  0  0  0  0  0  0  0
    0.3487   -0.4790    4.9087 H   0  0  0  0  0  0  0  0  0  0  0  0
    1.4460    0.9672    2.9450 H   0  0  0  0  0  0  0  0  0  0  0  0
  1  2  1  0  0  0  0
  1 10  1  0  0  0  0
  2 12  1  0  0  0  0
  2  3  1  0  0  0  0
  3 13  1  6  0  0  0
  3  4  1  0  0  0  0
  3  9  1  0  0  0  0
  4 14  1  6  0  0  0
  4  5  1  0  0  0  0
  4  6  1  0  0  0  0
  5 15  1  0  0  0  0
  5  6  1  0  0  0  0
  6 17  1  1  0  0  0
  6  7  1  0  0  0  0
  7 18  1  1  0  0  0
  8  7  1  0  0  0  0
  9 19  1  6  0  0  0
  9  8  1  0  0  0  0
  9  7  1  0  0  0  0
 11  2  1  0  0  0  0
 16  5  1  0  0  0  0
M TOR 0 0 1 2 3
M TOR 1 0 1 2 8
M TOR 2 0 1 2 12
M TOR 3 1 2 3 4
M TOR 4 1 2 3 5
M TOR 5 1 2 3 13
M TOR 6 1 2 8 6
M TOR 7 1 2 8 7
M TOR 8 1 2 8 18
M TOR 9 2 1 0 9
M TOR 10 2 3 4 5
M TOR 11 2 3 4 14
M TOR 12 2 3 4 15
M TOR 13 2 3 5 6
M TOR 14 2 3 5 16
M TOR 15 2 8 6 5
M TOR 16 2 8 6 7
M TOR 17 2 8 6 17
M TOR 18 3 2 1 10
M TOR 19 3 2 1 11
M TOR 20 3 2 8 6
M TOR 21 3 2 8 7
M TOR 22 3 2 8 18
M TOR 23 3 4 5 6
M TOR 24 3 4 5 16
M TOR 25 3 5 4 14
M TOR 26 3 5 4 15
M TOR 27 3 5 6 7
M TOR 28 3 5 6 8
M TOR 29 3 5 6 17
M TOR 30 4 3 2 8
M TOR 31 4 3 2 12
M TOR 32 4 5 3 13
M TOR 33 4 5 6 7
M TOR 34 4 5 6 8
M TOR 35 4 5 6 17
M TOR 36 5 3 2 8
M TOR 37 5 3 2 12
M TOR 38 5 6 7 8
M TOR 39 5 6 8 18
M TOR 40 6 5 3 13
M TOR 41 6 5 4 14
M TOR 42 6 5 4 15
M TOR 43 6 7 8 18
M TOR 44 6 8 2 12
M TOR 45 7 6 5 16
M TOR 46 7 8 2 12
M TOR 47 7 8 6 17
M TOR 48 8 2 1 10
M TOR 49 8 2 1 11
M TOR 50 8 2 3 13
M TOR 51 8 6 5 16
M  END
$$$$
