
     RDKit          3D

 19 18  0  0  0  0  0  0  0  0999 V2000
    0.8127    0.5883   -2.8322 C   0  0  0  0  0  0  0  0  0  0  0  0
    1.7416    1.6013   -2.1529 C   0  0  0  0  0  0  0  0  0  0  0  0
    3.1719    1.0645   -2.0888 C   0  0  0  0  0  0  0  0  0  0  0  0
    4.0108    2.0796   -1.5585 O   0  0  0  0  0  0  0  0  0  0  0  0
    1.2512    1.9787   -0.7372 C   0  0  0  0  0  0  0  0  0  0  0  0
   -0.0573    2.7415   -0.7396 C   0  0  0  0  0  0  0  0  0  0  0  0
   -1.0801    2.3188   -0.2437 O   0  0  0  0  0  0  0  0  0  0  0  0
   -0.0269    4.0481   -1.3867 C   0  0  0  0  0  0  0  0  0  0  0  0
    0.0004    5.1296   -1.9150 C   0  0  0  0  0  0  0  0  0  0  0  0
    0.7765   -0.3518   -2.2695 H   0  0  0  0  0  0  0  0  0  0  0  0
   -0.2108    0.9680   -2.8989 H   0  0  0  0  0  0  0  0  0  0  0  0
    1.1513    0.3603   -3.8480 H   0  0  0  0  0  0  0  0  0  0  0  0
    1.7742    2.5185   -2.7542 H   0  0  0  0  0  0  0  0  0  0  0  0
    3.1979    0.1570   -1.4629 H   0  0  0  0  0  0  0  0  0  0  0  0
    3.4931    0.7748   -3.1018 H   0  0  0  0  0  0  0  0  0  0  0  0
    4.8900    1.7128   -1.4309 H   0  0  0  0  0  0  0  0  0  0  0  0
    1.1019    1.0806   -0.1289 H   0  0  0  0  0  0  0  0  0  0  0  0
    2.0208    2.6011   -0.2674 H   0  0  0  0  0  0  0  0  0  0  0  0
    0.0122    6.0863   -2.3783 H   0  0  0  0  0  0  0  0  0  0  0  0
  1  2  1  0
  2  3  1  0
  3  4  1  0
  2  5  1  0
  5  6  1  0
  6  7  2  0
  6  8  1  0
  8  9  3  0
  1 10  1  0
  1 11  1  0
  1 12  1  0
  2 13  1  0
  3 14  1  0
  3 15  1  0
  4 16  1  0
  5 17  1  0
  5 18  1  0
  9 19  1  0
M  END
$$$$
