gdb 5215	2.4578223	1.579223	1.4020193	0.7027	74.85	-0.2323	0.06937	0.30167	1044.8228	0.155453	-422.481847	-422.473382	-422.472438	-422.514671	32.65
 OpenBabel02181911423D

 19 21  0  0  1  0  0  0  0  0999 V2000
    1.2682    0.7504    0.5080 C   0  0  0  0  0  0  0  0  0  0  0  0
    0.7167   -0.5384   -0.1168 C   0  0  0  0  0  0  0  0  0  0  0  0
    1.5339   -0.9958   -1.2845 C   0  0  1  0  0  0  0  0  0  0  0  0
    2.9481   -1.3438   -1.0758 O   0  0  0  0  0  0  0  0  0  0  0  0
    2.7372   -1.5754   -2.4990 C   0  0  1  0  0  0  0  0  0  0  0  0
    1.2925   -2.1262   -2.3365 C   0  0  2  0  0  0  0  0  0  0  0  0
    0.7122   -1.1439   -3.3844 C   0  0  0  0  0  0  0  0  0  0  0  0
    1.8072   -0.3264   -2.6937 C   0  0  1  0  0  0  0  0  0  0  0  0
    2.1380    0.9738   -2.9890 O   0  0  0  0  0  0  0  0  0  0  0  0
    0.6726    1.0530    1.3738 H   0  0  0  0  0  0  0  0  0  0  0  0
    2.3010    0.6049    0.8371 H   0  0  0  0  0  0  0  0  0  0  0  0
    1.2544    1.5704   -0.2169 H   0  0  0  0  0  0  0  0  0  0  0  0
    0.6860   -1.3409    0.6304 H   0  0  0  0  0  0  0  0  0  0  0  0
   -0.3147   -0.3874   -0.4595 H   0  0  0  0  0  0  0  0  0  0  0  0
    3.5648   -1.9520   -3.0995 H   0  0  0  0  0  0  0  0  0  0  0  0
    1.0172   -3.1560   -2.1229 H   0  0  0  0  0  0  0  0  0  0  0  0
    0.8824   -1.3964   -4.4342 H   0  0  0  0  0  0  0  0  0  0  0  0
   -0.3181   -0.8130   -3.2289 H   0  0  0  0  0  0  0  0  0  0  0  0
    2.8791    1.2226   -2.4222 H   0  0  0  0  0  0  0  0  0  0  0  0
  1 11  1  0  0  0  0
  1 10  1  0  0  0  0
  2  1  1  0  0  0  0
  2 13  1  0  0  0  0
  3  4  1  0  0  0  0
  3  2  1  1  0  0  0
  5 15  1  6  0  0  0
  5  6  1  0  0  0  0
  5  4  1  0  0  0  0
  6 16  1  1  0  0  0
  6  3  1  0  0  0  0
  7 18  1  0  0  0  0
  7  8  1  0  0  0  0
  7  6  1  0  0  0  0
  8  9  1  6  0  0  0
  8  5  1  0  0  0  0
  8  3  1  0  0  0  0
  9 19  1  0  0  0  0
 12  1  1  0  0  0  0
 14  2  1  0  0  0  0
 17  7  1  0  0  0  0
M TOR 0 0 1 2 3
M TOR 1 0 1 2 5
M TOR 2 0 1 2 7
M TOR 3 1 2 3 4
M TOR 4 1 2 5 4
M TOR 5 1 2 5 6
M TOR 6 1 2 5 15
M TOR 7 1 2 7 4
M TOR 8 1 2 7 6
M TOR 9 1 2 7 8
M TOR 10 2 1 0 9
M TOR 11 2 1 0 10
M TOR 12 2 1 0 11
M TOR 13 2 3 4 5
M TOR 14 2 3 4 7
M TOR 15 2 3 4 14
M TOR 16 2 5 4 7
M TOR 17 2 5 4 14
M TOR 18 2 5 6 7
M TOR 19 2 5 6 16
M TOR 20 2 5 6 17
M TOR 21 2 7 4 14
M TOR 22 2 7 6 16
M TOR 23 2 7 6 17
M TOR 24 2 7 8 18
M TOR 25 3 2 1 12
M TOR 26 3 2 1 13
M TOR 27 3 2 5 6
M TOR 28 3 2 5 15
M TOR 29 3 2 7 6
M TOR 30 3 2 7 8
M TOR 31 3 4 5 6
M TOR 32 3 4 5 15
M TOR 33 3 4 7 6
M TOR 34 3 4 7 8
M TOR 35 4 5 6 7
M TOR 36 4 5 6 16
M TOR 37 4 5 6 17
M TOR 38 4 7 6 16
M TOR 39 4 7 6 17
M TOR 40 4 7 8 18
M TOR 41 5 2 1 12
M TOR 42 5 2 1 13
M TOR 43 5 2 7 8
M TOR 44 5 4 7 8
M TOR 45 5 6 7 8
M TOR 46 6 5 4 14
M TOR 47 6 7 4 14
M TOR 48 6 7 8 18
M TOR 49 7 2 1 12
M TOR 50 7 2 1 13
M TOR 51 7 2 5 15
M TOR 52 7 4 5 15
M TOR 53 7 6 5 15
M TOR 54 8 7 4 14
M TOR 55 8 7 6 16
M TOR 56 8 7 6 17
M  END
$$$$
