
     RDKit          3D

 19 21  0  0  0  0  0  0  0  0999 V2000
    2.2219    1.6612    0.0019 C   0  0  0  0  0  0  0  0  0  0  0  0
    1.5743    0.2916    0.1869 C   0  0  0  0  0  0  0  0  0  0  0  0
    2.2292   -0.5902    1.2486 C   0  0  0  0  0  0  0  0  0  0  0  0
    3.2911   -1.3672    0.4851 C   0  0  0  0  0  0  0  0  0  0  0  0
    3.2377   -0.9829   -0.8769 O   0  0  0  0  0  0  0  0  0  0  0  0
    1.8246   -0.7095   -0.9764 C   0  0  0  0  0  0  0  0  0  0  0  0
    1.1796   -2.0081   -0.4506 C   0  0  0  0  0  0  0  0  0  0  0  0
    1.9838   -2.0377    0.8480 C   0  0  0  0  0  0  0  0  0  0  0  0
    1.8478   -3.0170    1.8188 O   0  0  0  0  0  0  0  0  0  0  0  0
    2.1459    2.2589    0.9161 H   0  0  0  0  0  0  0  0  0  0  0  0
    3.2804    1.5544   -0.2498 H   0  0  0  0  0  0  0  0  0  0  0  0
    1.7339    2.2215   -0.8030 H   0  0  0  0  0  0  0  0  0  0  0  0
    0.4978    0.3969    0.3623 H   0  0  0  0  0  0  0  0  0  0  0  0
    2.3586   -0.3013    2.2830 H   0  0  0  0  0  0  0  0  0  0  0  0
    4.2679   -1.6386    0.8594 H   0  0  0  0  0  0  0  0  0  0  0  0
    1.5857   -0.3858   -1.9879 H   0  0  0  0  0  0  0  0  0  0  0  0
    0.1020   -1.9160   -0.2917 H   0  0  0  0  0  0  0  0  0  0  0  0
    1.3852   -2.8671   -1.0977 H   0  0  0  0  0  0  0  0  0  0  0  0
    2.2248   -3.8349    1.4748 H   0  0  0  0  0  0  0  0  0  0  0  0
  1  2  1  0
  2  3  1  0
  3  4  1  0
  4  5  1  0
  5  6  1  0
  6  7  1  0
  7  8  1  0
  8  9  1  0
  6  2  1  0
  8  3  1  0
  8  4  1  0
  1 10  1  0
  1 11  1  0
  1 12  1  0
  2 13  1  0
  3 14  1  0
  4 15  1  0
  6 16  1  0
  7 17  1  0
  7 18  1  0
  9 19  1  0
M  END
$$$$
