gdb 1843	2.2743441	1.7295039	1.4117246	1.8976	74.62	-0.24841	-0.02963	0.21878	1009.5752	0.157413	-422.567554	-422.559401	-422.558457	-422.600402	31.431
 OpenBabel02181911403D

 19 20  0  0  1  0  0  0  0  0999 V2000
    0.2641   -1.1814   -2.8972 O   0  0  0  0  0  0  0  0  0  0  0  0
    0.1752    0.0234   -2.2122 C   0  0  1  0  0  0  0  0  0  0  0  0
    0.1922    1.3476   -3.0160 C   0  0  0  0  0  0  0  0  0  0  0  0
    0.5726    1.9508   -1.6301 C   0  0  1  0  0  0  0  0  0  0  0  0
   -0.7155    1.7071   -0.8118 C   0  0  0  0  0  0  0  0  0  0  0  0
   -1.0290    0.2479   -1.2667 C   0  0  0  0  0  0  0  0  0  0  0  0
    1.3770    0.6226   -1.4077 C   0  0  1  0  0  0  0  0  0  0  0  0
    1.7330    0.1350   -0.0358 C   0  0  0  0  0  0  0  0  0  0  0  0
    1.2633   -0.8481    0.4881 O   0  0  0  0  0  0  0  0  0  0  0  0
    0.2138   -1.8917   -2.2471 H   0  0  0  0  0  0  0  0  0  0  0  0
    1.0100    1.3871   -3.7382 H   0  0  0  0  0  0  0  0  0  0  0  0
   -0.7454    1.6756   -3.4729 H   0  0  0  0  0  0  0  0  0  0  0  0
    1.0583    2.9214   -1.5448 H   0  0  0  0  0  0  0  0  0  0  0  0
   -0.5503    1.7873    0.2666 H   0  0  0  0  0  0  0  0  0  0  0  0
   -1.5048    2.4140   -1.0812 H   0  0  0  0  0  0  0  0  0  0  0  0
   -1.0409   -0.4638   -0.4398 H   0  0  0  0  0  0  0  0  0  0  0  0
   -1.9695    0.1642   -1.8179 H   0  0  0  0  0  0  0  0  0  0  0  0
    2.2907    0.6410   -2.0147 H   0  0  0  0  0  0  0  0  0  0  0  0
    2.5039    0.7413    0.4957 H   0  0  0  0  0  0  0  0  0  0  0  0
  1 10  1  0  0  0  0
  2  1  1  6  0  0  0
  2  7  1  0  0  0  0
  2  6  1  0  0  0  0
  3  2  1  0  0  0  0
  3  4  1  0  0  0  0
  4 13  1  1  0  0  0
  4  7  1  0  0  0  0
  4  5  1  0  0  0  0
  5 14  1  0  0  0  0
  6  5  1  0  0  0  0
  6 16  1  0  0  0  0
  7 18  1  6  0  0  0
  7  8  1  0  0  0  0
  8  9  2  0  0  0  0
  8 19  1  0  0  0  0
 11  3  1  0  0  0  0
 12  3  1  0  0  0  0
 15  5  1  0  0  0  0
 17  6  1  0  0  0  0
M TOR 0 0 1 2 3
M TOR 1 0 1 2 10
M TOR 2 0 1 2 11
M TOR 3 0 1 5 4
M TOR 4 0 1 5 15
M TOR 5 0 1 5 16
M TOR 6 0 1 6 3
M TOR 7 0 1 6 7
M TOR 8 0 1 6 17
M TOR 9 1 2 3 4
M TOR 10 1 2 3 6
M TOR 11 1 2 3 12
M TOR 12 1 5 4 3
M TOR 13 1 5 4 13
M TOR 14 1 5 4 14
M TOR 15 1 6 3 4
M TOR 16 1 6 3 12
M TOR 17 1 6 7 8
M TOR 18 1 6 7 18
M TOR 19 2 1 0 9
M TOR 20 2 1 5 4
M TOR 21 2 1 5 15
M TOR 22 2 1 5 16
M TOR 23 2 1 6 7
M TOR 24 2 1 6 17
M TOR 25 2 3 4 5
M TOR 26 2 3 4 13
M TOR 27 2 3 4 14
M TOR 28 2 3 6 7
M TOR 29 2 3 6 17
M TOR 30 3 2 1 5
M TOR 31 3 4 5 15
M TOR 32 3 4 5 16
M TOR 33 3 6 1 5
M TOR 34 3 6 7 8
M TOR 35 3 6 7 18
M TOR 36 4 3 2 10
M TOR 37 4 3 2 11
M TOR 38 4 3 6 7
M TOR 39 4 3 6 17
M TOR 40 4 5 1 6
M TOR 41 5 1 0 9
M TOR 42 5 1 2 10
M TOR 43 5 1 2 11
M TOR 44 5 1 6 7
M TOR 45 5 1 6 17
M TOR 46 5 4 3 6
M TOR 47 5 4 3 12
M TOR 48 6 1 0 9
M TOR 49 6 1 2 10
M TOR 50 6 1 2 11
M TOR 51 6 1 5 15
M TOR 52 6 1 5 16
M TOR 53 6 3 2 10
M TOR 54 6 3 2 11
M TOR 55 6 3 4 13
M TOR 56 6 3 4 14
M TOR 57 7 6 3 12
M TOR 58 8 7 6 17
M  END
$$$$
