gdb 2201	1.8479351	1.8153317	1.7296217	2.6653	75.52	-0.21653	0.06307	0.2796	1006.2558	0.155031	-422.502369	-422.493466	-422.492522	-422.535258	33.824
 OpenBabel02181911413D

 19 21  0  0  1  0  0  0  0  0999 V2000
   -1.0421    2.2706   -0.0669 C   0  0  0  0  0  0  0  0  0  0  0  0
    0.2088    1.8085    0.5964 C   0  0  2  0  0  0  0  0  0  0  0  0
    0.3477    1.9254    2.0185 O   0  0  0  0  0  0  0  0  0  0  0  0
    1.5324    1.0917    1.8859 C   0  0  2  0  0  0  0  0  0  0  0  0
    2.5639    2.0238    1.1944 C   0  0  0  0  0  0  0  0  0  0  0  0
    1.6228    1.9117   -0.0027 C   0  0  2  0  0  0  0  0  0  0  0  0
    1.7795    2.3808   -1.2895 O   0  0  0  0  0  0  0  0  0  0  0  0
    1.0508    0.5657    0.4787 C   0  0  2  0  0  0  0  0  0  0  0  0
    0.8734   -0.7777   -0.1483 C   0  0  0  0  0  0  0  0  0  0  0  0
   -1.9106    1.7006    0.2773 H   0  0  0  0  0  0  0  0  0  0  0  0
   -1.2172    3.3296    0.1516 H   0  0  0  0  0  0  0  0  0  0  0  0
   -0.9508    2.1614   -1.1507 H   0  0  0  0  0  0  0  0  0  0  0  0
    1.7677    0.5098    2.7746 H   0  0  0  0  0  0  0  0  0  0  0  0
    2.7318    2.9995    1.6611 H   0  0  0  0  0  0  0  0  0  0  0  0
    3.5140    1.5106    1.0133 H   0  0  0  0  0  0  0  0  0  0  0  0
    2.5291    1.9289   -1.6933 H   0  0  0  0  0  0  0  0  0  0  0  0
    0.1453   -1.3887    0.3971 H   0  0  0  0  0  0  0  0  0  0  0  0
    0.5127   -0.6718   -1.1774 H   0  0  0  0  0  0  0  0  0  0  0  0
    1.8156   -1.3377   -0.1862 H   0  0  0  0  0  0  0  0  0  0  0  0
  1 11  1  0  0  0  0
  1 10  1  0  0  0  0
  2  1  1  6  0  0  0
  2  3  1  0  0  0  0
  4  3  1  0  0  0  0
  4 13  1  1  0  0  0
  5 14  1  0  0  0  0
  5  4  1  0  0  0  0
  6  7  1  6  0  0  0
  6  8  1  0  0  0  0
  6  2  1  0  0  0  0
  6  5  1  0  0  0  0
  8  9  1  6  0  0  0
  8  2  1  0  0  0  0
  8  4  1  0  0  0  0
  9 17  1  0  0  0  0
 12  1  1  0  0  0  0
 15  5  1  0  0  0  0
 16  7  1  0  0  0  0
 18  9  1  0  0  0  0
 19  9  1  0  0  0  0
M TOR 0 0 1 2 3
M TOR 1 0 1 5 4
M TOR 2 0 1 5 6
M TOR 3 0 1 5 7
M TOR 4 0 1 7 3
M TOR 5 0 1 7 8
M TOR 6 1 2 3 4
M TOR 7 1 2 3 7
M TOR 8 1 2 3 12
M TOR 9 1 5 4 3
M TOR 10 1 5 4 13
M TOR 11 1 5 4 14
M TOR 12 1 5 6 15
M TOR 13 1 5 7 3
M TOR 14 1 5 7 8
M TOR 15 1 7 3 4
M TOR 16 1 7 3 12
M TOR 17 1 7 5 4
M TOR 18 1 7 5 6
M TOR 19 1 7 8 16
M TOR 20 1 7 8 17
M TOR 21 1 7 8 18
M TOR 22 2 1 0 9
M TOR 23 2 1 0 10
M TOR 24 2 1 0 11
M TOR 25 2 1 5 4
M TOR 26 2 1 5 6
M TOR 27 2 1 5 7
M TOR 28 2 1 7 8
M TOR 29 2 3 4 5
M TOR 30 2 3 4 13
M TOR 31 2 3 4 14
M TOR 32 2 3 7 5
M TOR 33 2 3 7 8
M TOR 34 3 2 1 5
M TOR 35 3 4 5 6
M TOR 36 3 4 5 7
M TOR 37 3 7 5 6
M TOR 38 3 7 8 16
M TOR 39 3 7 8 17
M TOR 40 3 7 8 18
M TOR 41 4 3 7 8
M TOR 42 4 5 6 15
M TOR 43 4 5 7 8
M TOR 44 5 1 0 9
M TOR 45 5 1 0 10
M TOR 46 5 1 0 11
M TOR 47 5 4 3 12
M TOR 48 5 7 3 12
M TOR 49 5 7 8 16
M TOR 50 5 7 8 17
M TOR 51 5 7 8 18
M TOR 52 6 5 4 13
M TOR 53 6 5 4 14
M TOR 54 6 5 7 8
M TOR 55 7 1 0 9
M TOR 56 7 1 0 10
M TOR 57 7 1 0 11
M TOR 58 7 3 4 13
M TOR 59 7 3 4 14
M TOR 60 7 5 4 13
M TOR 61 7 5 4 14
M TOR 62 7 5 6 15
M TOR 63 8 7 3 12
M  END
$$$$
