
     RDKit          3D

 19 21  0  0  0  0  0  0  0  0999 V2000
    1.6257    0.8650   -0.1104 O   0  0  0  0  0  0  0  0  0  0  0  0
    0.2825    0.4904    0.1729 C   0  0  0  0  0  0  0  0  0  0  0  0
   -0.6135    1.1929   -0.8287 C   0  0  0  0  0  0  0  0  0  0  0  0
   -2.0936    1.1700   -0.4514 C   0  0  0  0  0  0  0  0  0  0  0  0
   -1.9884    2.4950    0.2923 C   0  0  0  0  0  0  0  0  0  0  0  0
   -0.7082    2.7328   -0.6104 C   0  0  0  0  0  0  0  0  0  0  0  0
   -1.6425    3.2138   -1.7592 C   0  0  0  0  0  0  0  0  0  0  0  0
   -2.7301    2.4361   -1.0257 C   0  0  0  0  0  0  0  0  0  0  0  0
   -4.0879    2.4282   -1.2685 O   0  0  0  0  0  0  0  0  0  0  0  0
    2.2004    0.4224    0.5206 H   0  0  0  0  0  0  0  0  0  0  0  0
    0.1497   -0.6006    0.0902 H   0  0  0  0  0  0  0  0  0  0  0  0
   -0.0073    0.7812    1.1954 H   0  0  0  0  0  0  0  0  0  0  0  0
   -0.3415    0.8756   -1.8433 H   0  0  0  0  0  0  0  0  0  0  0  0
   -2.7246    0.3249   -0.2038 H   0  0  0  0  0  0  0  0  0  0  0  0
   -2.2784    2.7911    1.2896 H   0  0  0  0  0  0  0  0  0  0  0  0
    0.1749    3.3013   -0.3323 H   0  0  0  0  0  0  0  0  0  0  0  0
   -1.8214    4.2932   -1.7071 H   0  0  0  0  0  0  0  0  0  0  0  0
   -1.3782    2.9293   -2.7844 H   0  0  0  0  0  0  0  0  0  0  0  0
   -4.4217    3.3220   -1.1337 H   0  0  0  0  0  0  0  0  0  0  0  0
  1  2  1  0
  2  3  1  0
  3  4  1  0
  4  5  1  0
  5  6  1  0
  6  7  1  0
  7  8  1  0
  8  9  1  0
  6  3  1  0
  8  4  1  0
  8  5  1  0
  1 10  1  0
  2 11  1  0
  2 12  1  0
  3 13  1  0
  4 14  1  0
  5 15  1  0
  6 16  1  0
  7 17  1  0
  7 18  1  0
  9 19  1  0
M  END
$$$$
