
     RDKit          3D

 19 18  0  0  0  0  0  0  0  0999 V2000
    2.0860   -4.4839   -2.8785 C   0  0  0  0  0  0  0  0  0  0  0  0
    2.0965   -3.1680   -2.3718 O   0  0  0  0  0  0  0  0  0  0  0  0
    1.6288   -3.0570   -1.0310 C   0  0  0  0  0  0  0  0  0  0  0  0
    2.6968   -3.4817   -0.0093 C   0  0  0  0  0  0  0  0  0  0  0  0
    1.2125   -1.6708   -0.8137 C   0  0  0  0  0  0  0  0  0  0  0  0
    0.8604   -0.5379   -0.6107 C   0  0  0  0  0  0  0  0  0  0  0  0
    0.4869    0.8425   -0.3420 C   0  0  0  0  0  0  0  0  0  0  0  0
    1.5308    1.5744    0.5052 C   0  0  0  0  0  0  0  0  0  0  0  0
    1.2545    2.3670    1.3634 O   0  0  0  0  0  0  0  0  0  0  0  0
    2.7962   -5.1462   -2.3626 H   0  0  0  0  0  0  0  0  0  0  0  0
    1.0836   -4.9358   -2.8148 H   0  0  0  0  0  0  0  0  0  0  0  0
    2.3759   -4.4196   -3.9299 H   0  0  0  0  0  0  0  0  0  0  0  0
    0.7440   -3.7053   -0.9063 H   0  0  0  0  0  0  0  0  0  0  0  0
    2.3137   -3.3677    1.0084 H   0  0  0  0  0  0  0  0  0  0  0  0
    2.9771   -4.5286   -0.1538 H   0  0  0  0  0  0  0  0  0  0  0  0
    3.5869   -2.8580   -0.1225 H   0  0  0  0  0  0  0  0  0  0  0  0
    0.4033    1.3981   -1.2890 H   0  0  0  0  0  0  0  0  0  0  0  0
   -0.4822    0.9247    0.1608 H   0  0  0  0  0  0  0  0  0  0  0  0
    2.5826    1.3208    0.2504 H   0  0  0  0  0  0  0  0  0  0  0  0
  1  2  1  0
  2  3  1  0
  3  4  1  0
  3  5  1  0
  5  6  3  0
  6  7  1  0
  7  8  1  0
  8  9  2  0
  1 10  1  0
  1 11  1  0
  1 12  1  0
  3 13  1  0
  4 14  1  0
  4 15  1  0
  4 16  1  0
  7 17  1  0
  7 18  1  0
  8 19  1  0
M  END
$$$$
