
     RDKit          3D

 19 21  0  0  0  0  0  0  0  0999 V2000
    0.4210    0.6933    1.3331 C   0  0  0  0  0  0  0  0  0  0  0  0
    1.4751    0.0536    0.4650 C   0  0  0  0  0  0  0  0  0  0  0  0
    1.3737    0.1162   -1.0597 C   0  0  0  0  0  0  0  0  0  0  0  0
    2.4968    0.8103   -0.3407 C   0  0  0  0  0  0  0  0  0  0  0  0
    3.7562    0.1855   -0.2928 O   0  0  0  0  0  0  0  0  0  0  0  0
    3.5820   -1.1330    0.2115 C   0  0  0  0  0  0  0  0  0  0  0  0
    2.2400   -1.1487    0.9550 C   0  0  0  0  0  0  0  0  0  0  0  0
    2.0626   -1.7655    2.2740 C   0  0  0  0  0  0  0  0  0  0  0  0
    1.5971   -2.4170    1.0838 O   0  0  0  0  0  0  0  0  0  0  0  0
    0.8313    1.0162    2.2961 H   0  0  0  0  0  0  0  0  0  0  0  0
   -0.0070    1.5719    0.8413 H   0  0  0  0  0  0  0  0  0  0  0  0
   -0.4007   -0.0051    1.5297 H   0  0  0  0  0  0  0  0  0  0  0  0
    1.5859   -0.7741   -1.6415 H   0  0  0  0  0  0  0  0  0  0  0  0
    0.5818    0.7380   -1.4641 H   0  0  0  0  0  0  0  0  0  0  0  0
    2.5796    1.8911   -0.3384 H   0  0  0  0  0  0  0  0  0  0  0  0
    3.5482   -1.8704   -0.6030 H   0  0  0  0  0  0  0  0  0  0  0  0
    4.4358   -1.3723    0.8519 H   0  0  0  0  0  0  0  0  0  0  0  0
    2.9141   -2.2380    2.7635 H   0  0  0  0  0  0  0  0  0  0  0  0
    1.2822   -1.4152    2.9474 H   0  0  0  0  0  0  0  0  0  0  0  0
  1  2  1  0
  2  3  1  0
  3  4  1  0
  4  5  1  0
  5  6  1  0
  6  7  1  0
  7  8  1  0
  8  9  1  0
  4  2  1  0
  9  7  1  0
  7  2  1  0
  1 10  1  0
  1 11  1  0
  1 12  1  0
  3 13  1  0
  3 14  1  0
  4 15  1  0
  6 16  1  0
  6 17  1  0
  8 18  1  0
  8 19  1  0
M  END
$$$$
