
     RDKit          3D

 19 20  0  0  0  0  0  0  0  0999 V2000
   -1.2156   -1.0734   -0.5945 C   0  0  0  0  0  0  0  0  0  0  0  0
   -0.1617   -0.7701   -1.6223 C   0  0  0  0  0  0  0  0  0  0  0  0
   -0.2402   -1.4511   -3.0109 C   0  0  0  0  0  0  0  0  0  0  0  0
    0.8907   -0.6416   -3.7141 C   0  0  0  0  0  0  0  0  0  0  0  0
    1.2638    0.2430   -2.5089 C   0  0  0  0  0  0  0  0  0  0  0  0
   -0.0399    0.6457   -1.9966 O   0  0  0  0  0  0  0  0  0  0  0  0
    1.3813   -0.7711   -1.3357 C   0  0  0  0  0  0  0  0  0  0  0  0
    1.7694   -0.1395   -0.0312 C   0  0  0  0  0  0  0  0  0  0  0  0
    2.5456   -0.6350    0.7492 O   0  0  0  0  0  0  0  0  0  0  0  0
   -1.0650   -0.4965    0.3212 H   0  0  0  0  0  0  0  0  0  0  0  0
   -2.2067   -0.8333   -0.9929 H   0  0  0  0  0  0  0  0  0  0  0  0
   -1.1995   -2.1379   -0.3400 H   0  0  0  0  0  0  0  0  0  0  0  0
   -0.0486   -2.5262   -2.9647 H   0  0  0  0  0  0  0  0  0  0  0  0
   -1.2222   -1.2893   -3.4617 H   0  0  0  0  0  0  0  0  0  0  0  0
    1.7222   -1.2576   -4.0656 H   0  0  0  0  0  0  0  0  0  0  0  0
    0.5254   -0.0360   -4.5459 H   0  0  0  0  0  0  0  0  0  0  0  0
    1.9622    1.0687   -2.6449 H   0  0  0  0  0  0  0  0  0  0  0  0
    1.9377   -1.6984   -1.4916 H   0  0  0  0  0  0  0  0  0  0  0  0
    1.2882    0.8400    0.1723 H   0  0  0  0  0  0  0  0  0  0  0  0
  1  2  1  0
  2  3  1  0
  3  4  1  0
  4  5  1  0
  5  6  1  0
  5  7  1  0
  7  8  1  0
  8  9  2  0
  6  2  1  0
  7  2  1  0
  1 10  1  0
  1 11  1  0
  1 12  1  0
  3 13  1  0
  3 14  1  0
  4 15  1  0
  4 16  1  0
  5 17  1  0
  7 18  1  0
  8 19  1  0
M  END
$$$$
