
     RDKit          3D

 19 21  0  0  0  0  0  0  0  0999 V2000
    1.5287   -0.2963    0.0516 C   0  0  0  0  0  0  0  0  0  0  0  0
    0.1272   -0.0915   -0.0500 O   0  0  0  0  0  0  0  0  0  0  0  0
   -0.4069    0.6280    0.9883 C   0  0  0  0  0  0  0  0  0  0  0  0
   -1.8226    0.6166    1.5377 C   0  0  0  0  0  0  0  0  0  0  0  0
   -1.8933    2.1426    1.4829 C   0  0  0  0  0  0  0  0  0  0  0  0
   -0.3463    2.1733    1.2455 C   0  0  0  0  0  0  0  0  0  0  0  0
    0.3828    2.2619    2.5850 C   0  0  0  0  0  0  0  0  0  0  0  0
   -0.1171    1.1450    3.3393 O   0  0  0  0  0  0  0  0  0  0  0  0
   -0.6176    0.2168    2.4021 C   0  0  0  0  0  0  0  0  0  0  0  0
    1.7908   -0.8150    0.9836 H   0  0  0  0  0  0  0  0  0  0  0  0
    1.8215   -0.9129   -0.8008 H   0  0  0  0  0  0  0  0  0  0  0  0
    2.0814    0.6524    0.0092 H   0  0  0  0  0  0  0  0  0  0  0  0
   -2.6261   -0.0845    1.3431 H   0  0  0  0  0  0  0  0  0  0  0  0
   -2.4478    2.4919    0.6090 H   0  0  0  0  0  0  0  0  0  0  0  0
   -2.2548    2.6605    2.3773 H   0  0  0  0  0  0  0  0  0  0  0  0
    0.0304    2.8242    0.4576 H   0  0  0  0  0  0  0  0  0  0  0  0
    1.4747    2.1822    2.4603 H   0  0  0  0  0  0  0  0  0  0  0  0
    0.1596    3.1746    3.1472 H   0  0  0  0  0  0  0  0  0  0  0  0
   -0.5392   -0.8180    2.7127 H   0  0  0  0  0  0  0  0  0  0  0  0
  1  2  1  0
  2  3  1  0
  3  4  1  0
  4  5  1  0
  5  6  1  0
  6  7  1  0
  7  8  1  0
  8  9  1  0
  6  3  1  0
  9  3  1  0
  9  4  1  0
  1 10  1  0
  1 11  1  0
  1 12  1  0
  4 13  1  0
  5 14  1  0
  5 15  1  0
  6 16  1  0
  7 17  1  0
  7 18  1  0
  9 19  1  0
M  END
$$$$
