gdb 2751	1.979779	1.7239678	1.208492	4.6491	76.56	-0.23279	-0.00196	0.23083	1115.9552	0.154886	-422.553317	-422.543961	-422.543017	-422.58697	34.797
 OpenBabel02181911413D

 19 20  0  0  1  0  0  0  0  0999 V2000
   -0.6096   -1.9284   -1.3406 C   0  0  0  0  0  0  0  0  0  0  0  0
   -0.8148   -1.0460   -0.1123 C   0  0  1  0  0  0  0  0  0  0  0  0
    0.1825    0.1379   -0.0724 C   0  0  0  0  0  0  0  0  0  0  0  0
    1.3658    0.1909   -0.2610 O   0  0  0  0  0  0  0  0  0  0  0  0
   -0.8866    1.1843   -0.0302 C   0  0  2  0  0  0  0  0  0  0  0  0
   -1.8866    0.8543    1.0453 C   0  0  2  0  0  0  0  0  0  0  0  0
   -1.4189    0.3965    2.2823 O   0  0  0  0  0  0  0  0  0  0  0  0
   -1.9459    0.0121   -0.1811 C   0  0  2  0  0  0  0  0  0  0  0  0
   -3.1402   -0.0554   -1.0892 C   0  0  0  0  0  0  0  0  0  0  0  0
   -1.4138   -2.6639   -1.4429 H   0  0  0  0  0  0  0  0  0  0  0  0
   -0.5683   -1.3378   -2.2617 H   0  0  0  0  0  0  0  0  0  0  0  0
    0.3380   -2.4664   -1.2525 H   0  0  0  0  0  0  0  0  0  0  0  0
   -0.8358   -1.6500    0.7996 H   0  0  0  0  0  0  0  0  0  0  0  0
   -0.8318    2.1719   -0.4740 H   0  0  0  0  0  0  0  0  0  0  0  0
   -2.6804    1.6009    1.1174 H   0  0  0  0  0  0  0  0  0  0  0  0
   -2.1270   -0.1028    2.7039 H   0  0  0  0  0  0  0  0  0  0  0  0
   -3.8209   -0.8585   -0.7812 H   0  0  0  0  0  0  0  0  0  0  0  0
   -3.7039    0.8826   -1.0674 H   0  0  0  0  0  0  0  0  0  0  0  0
   -2.8518   -0.2484   -2.1271 H   0  0  0  0  0  0  0  0  0  0  0  0
  1 12  1  0  0  0  0
  1  2  1  0  0  0  0
  2  3  1  0  0  0  0
  2 13  1  1  0  0  0
  3  5  1  0  0  0  0
  4  3  2  0  0  0  0
  5 14  1  6  0  0  0
  5  6  1  0  0  0  0
  6 15  1  1  0  0  0
  6  7  1  0  0  0  0
  7 16  1  0  0  0  0
  8  9  1  6  0  0  0
  8  2  1  0  0  0  0
  8  5  1  0  0  0  0
  8  6  1  0  0  0  0
  9 18  1  0  0  0  0
  9 17  1  0  0  0  0
 10  1  1  0  0  0  0
 11  1  1  0  0  0  0
 19  9  1  0  0  0  0
M TOR 0 0 1 2 3
M TOR 1 0 1 2 4
M TOR 2 0 1 7 4
M TOR 3 0 1 7 5
M TOR 4 0 1 7 8
M TOR 5 1 2 4 5
M TOR 6 1 2 4 7
M TOR 7 1 2 4 13
M TOR 8 1 7 4 5
M TOR 9 1 7 4 13
M TOR 10 1 7 5 6
M TOR 11 1 7 5 14
M TOR 12 1 7 8 16
M TOR 13 1 7 8 17
M TOR 14 1 7 8 18
M TOR 15 2 1 0 9
M TOR 16 2 1 0 10
M TOR 17 2 1 0 11
M TOR 18 2 1 7 5
M TOR 19 2 1 7 8
M TOR 20 2 4 5 6
M TOR 21 2 4 5 7
M TOR 22 2 4 5 14
M TOR 23 2 4 7 8
M TOR 24 3 2 1 7
M TOR 25 3 2 1 12
M TOR 26 3 2 4 5
M TOR 27 3 2 4 7
M TOR 28 3 2 4 13
M TOR 29 4 2 1 12
M TOR 30 4 5 6 15
M TOR 31 4 5 7 8
M TOR 32 4 7 1 12
M TOR 33 4 7 5 6
M TOR 34 4 7 5 14
M TOR 35 4 7 8 16
M TOR 36 4 7 8 17
M TOR 37 4 7 8 18
M TOR 38 5 7 1 12
M TOR 39 5 7 4 13
M TOR 40 5 7 8 16
M TOR 41 5 7 8 17
M TOR 42 5 7 8 18
M TOR 43 6 5 4 13
M TOR 44 6 5 7 8
M TOR 45 7 1 0 9
M TOR 46 7 1 0 10
M TOR 47 7 1 0 11
M TOR 48 7 5 6 15
M TOR 49 8 7 1 12
M TOR 50 8 7 4 13
M TOR 51 8 7 5 14
M  END
$$$$
