gdb 5711	2.9424594	1.3061194	1.1171073	2.2749	79.63	-0.20271	0.01302	0.21573	1164.5685	0.155635	-422.518121	-422.509335	-422.508391	-422.551894	32.293
 OpenBabel02181911423D

 19 20  0  0  1  0  0  0  0  0999 V2000
    1.4175    0.0230   -0.0810 C   0  0  0  0  0  0  0  0  0  0  0  0
    0.0109   -0.0710    0.0617 O   0  0  0  0  0  0  0  0  0  0  0  0
   -0.4635    0.5753    1.1924 C   0  0  2  0  0  0  0  0  0  0  0  0
   -1.8511    1.1458    1.0895 C   0  0  0  0  0  0  0  0  0  0  0  0
   -0.6641    2.0840    1.1575 C   0  0  2  0  0  0  0  0  0  0  0  0
   -0.3009    2.7695   -0.0236 O   0  0  0  0  0  0  0  0  0  0  0  0
    0.2073    4.0620    0.3189 C   0  0  0  0  0  0  0  0  0  0  0  0
    0.1328    4.1290    1.8199 C   0  0  0  0  0  0  0  0  0  0  0  0
   -0.3691    2.9886    2.2864 C   0  0  0  0  0  0  0  0  0  0  0  0
    1.9402   -0.4133    0.7840 H   0  0  0  0  0  0  0  0  0  0  0  0
    1.6839   -0.5446   -0.9758 H   0  0  0  0  0  0  0  0  0  0  0  0
    1.7362    1.0648   -0.2034 H   0  0  0  0  0  0  0  0  0  0  0  0
   -0.1464    0.1341    2.1413 H   0  0  0  0  0  0  0  0  0  0  0  0
   -2.3091    1.0588    0.1104 H   0  0  0  0  0  0  0  0  0  0  0  0
   -2.5274    1.0708    1.9343 H   0  0  0  0  0  0  0  0  0  0  0  0
    1.2364    4.1667   -0.0595 H   0  0  0  0  0  0  0  0  0  0  0  0
   -0.3993    4.8386   -0.1725 H   0  0  0  0  0  0  0  0  0  0  0  0
    0.4499    4.9889    2.3949 H   0  0  0  0  0  0  0  0  0  0  0  0
   -0.5502    2.7237    3.3198 H   0  0  0  0  0  0  0  0  0  0  0  0
  1  2  1  0  0  0  0
  1 10  1  0  0  0  0
  2  3  1  0  0  0  0
  3 13  1  1  0  0  0
  4  5  1  0  0  0  0
  4  3  1  0  0  0  0
  4 15  1  0  0  0  0
  5  6  1  6  0  0  0
  5  3  1  0  0  0  0
  5  9  1  0  0  0  0
  6  7  1  0  0  0  0
  7  8  1  0  0  0  0
  8  9  2  0  0  0  0
  8 18  1  0  0  0  0
  9 19  1  0  0  0  0
 11  1  1  0  0  0  0
 12  1  1  0  0  0  0
 14  4  1  0  0  0  0
 16  7  1  0  0  0  0
 17  7  1  0  0  0  0
M TOR 0 0 1 2 3
M TOR 1 0 1 2 4
M TOR 2 0 1 2 12
M TOR 3 1 2 3 4
M TOR 4 1 2 3 13
M TOR 5 1 2 3 14
M TOR 6 1 2 4 5
M TOR 7 1 2 4 8
M TOR 8 2 1 0 9
M TOR 9 2 1 0 10
M TOR 10 2 1 0 11
M TOR 11 2 3 4 5
M TOR 12 2 3 4 8
M TOR 13 2 4 3 13
M TOR 14 2 4 3 14
M TOR 15 2 4 5 6
M TOR 16 2 4 8 7
M TOR 17 2 4 8 18
M TOR 18 3 4 2 12
M TOR 19 3 4 5 6
M TOR 20 3 4 8 7
M TOR 21 3 4 8 18
M TOR 22 4 5 6 7
M TOR 23 4 5 6 15
M TOR 24 4 5 6 16
M TOR 25 4 8 7 6
M TOR 26 4 8 7 17
M TOR 27 5 4 2 12
M TOR 28 5 4 3 13
M TOR 29 5 4 3 14
M TOR 30 5 4 8 7
M TOR 31 5 4 8 18
M TOR 32 5 6 7 8
M TOR 33 5 6 7 17
M TOR 34 6 5 4 8
M TOR 35 6 7 8 18
M TOR 36 8 4 2 12
M TOR 37 8 4 3 13
M TOR 38 8 4 3 14
M TOR 39 8 7 6 15
M TOR 40 8 7 6 16
M  END
$$$$
