gdb 4021	3.529996	1.4478062	1.3306688	1.8665	74.84	-0.2127	0.07657	0.28927	1045.8187	0.156588	-422.521625	-422.51371	-422.512766	-422.553536	31.114
 OpenBabel02181911413D

 19 21  0  0  1  0  0  0  0  0999 V2000
   -0.0121    0.1951    0.3860 C   0  0  0  0  0  0  0  0  0  0  0  0
    1.3847   -0.1005   -0.1311 C   0  0  2  0  0  0  0  0  0  0  0  0
    2.1124   -0.8608    0.8576 O   0  0  0  0  0  0  0  0  0  0  0  0
    3.4317   -0.3774    0.8770 C   0  0  1  0  0  0  0  0  0  0  0  0
    3.7164    0.5727   -0.2536 C   0  0  1  0  0  0  0  0  0  0  0  0
    2.2775    1.1219   -0.3417 C   0  0  2  0  0  0  0  0  0  0  0  0
    2.4111    1.7906    0.9520 O   0  0  0  0  0  0  0  0  0  0  0  0
    3.6517    1.1027    1.1654 C   0  0  1  0  0  0  0  0  0  0  0  0
    4.6437    1.7167    2.0936 C   0  0  0  0  0  0  0  0  0  0  0  0
    0.0482    0.8338    1.2696 H   0  0  0  0  0  0  0  0  0  0  0  0
   -0.6052    0.7004   -0.3835 H   0  0  0  0  0  0  0  0  0  0  0  0
   -0.5204   -0.7349    0.6535 H   0  0  0  0  0  0  0  0  0  0  0  0
    1.3349   -0.6823   -1.0672 H   0  0  0  0  0  0  0  0  0  0  0  0
    4.1633   -1.1047    1.2100 H   0  0  0  0  0  0  0  0  0  0  0  0
    4.4849    0.5271   -1.0134 H   0  0  0  0  0  0  0  0  0  0  0  0
    1.9912    1.8079   -1.1399 H   0  0  0  0  0  0  0  0  0  0  0  0
    4.2282    1.7853    3.1049 H   0  0  0  0  0  0  0  0  0  0  0  0
    5.5514    1.1076    2.1390 H   0  0  0  0  0  0  0  0  0  0  0  0
    4.9174    2.7246    1.7653 H   0  0  0  0  0  0  0  0  0  0  0  0
  1 12  1  0  0  0  0
  1 10  1  0  0  0  0
  2 13  1  6  0  0  0
  2  1  1  0  0  0  0
  2  3  1  0  0  0  0
  3  4  1  0  0  0  0
  4  8  1  0  0  0  0
  4 14  1  1  0  0  0
  5 15  1  6  0  0  0
  5  4  1  0  0  0  0
  5  8  1  0  0  0  0
  6 16  1  6  0  0  0
  6  5  1  0  0  0  0
  6  2  1  0  0  0  0
  6  7  1  0  0  0  0
  7  8  1  0  0  0  0
  8  9  1  1  0  0  0
  9 18  1  0  0  0  0
  9 17  1  0  0  0  0
 11  1  1  0  0  0  0
 19  9  1  0  0  0  0
M TOR 0 0 1 2 3
M TOR 1 0 1 5 4
M TOR 2 0 1 5 6
M TOR 3 0 1 5 15
M TOR 4 1 2 3 4
M TOR 5 1 2 3 7
M TOR 6 1 2 3 13
M TOR 7 1 5 4 3
M TOR 8 1 5 4 7
M TOR 9 1 5 4 14
M TOR 10 1 5 6 7
M TOR 11 2 1 0 9
M TOR 12 2 1 0 10
M TOR 13 2 1 0 11
M TOR 14 2 1 5 4
M TOR 15 2 1 5 6
M TOR 16 2 1 5 15
M TOR 17 2 3 4 5
M TOR 18 2 3 4 7
M TOR 19 2 3 4 14
M TOR 20 2 3 7 6
M TOR 21 2 3 7 8
M TOR 22 3 2 1 5
M TOR 23 3 2 1 12
M TOR 24 3 4 5 6
M TOR 25 3 4 5 15
M TOR 26 3 4 7 6
M TOR 27 3 4 7 8
M TOR 28 3 7 4 5
M TOR 29 3 7 4 14
M TOR 30 3 7 6 5
M TOR 31 3 7 8 16
M TOR 32 3 7 8 17
M TOR 33 3 7 8 18
M TOR 34 4 5 1 12
M TOR 35 4 5 6 7
M TOR 36 4 7 3 13
M TOR 37 4 7 8 16
M TOR 38 4 7 8 17
M TOR 39 4 7 8 18
M TOR 40 5 1 0 9
M TOR 41 5 1 0 10
M TOR 42 5 1 0 11
M TOR 43 5 4 3 13
M TOR 44 5 4 7 8
M TOR 45 5 6 7 8
M TOR 46 6 5 1 12
M TOR 47 6 5 4 14
M TOR 48 6 7 3 13
M TOR 49 6 7 4 14
M TOR 50 6 7 8 16
M TOR 51 6 7 8 17
M TOR 52 6 7 8 18
M TOR 53 7 4 5 15
M TOR 54 7 6 5 15
M TOR 55 8 7 3 13
M TOR 56 8 7 4 14
M  END
$$$$
