gdb 6035	3.6792612	0.8891651	0.7669503	4.6436	78.86	-0.26696	-0.04266	0.22429999999999997	1514.9201	0.15689	-422.610646	-422.601759	-422.600815	-422.644967	32.224
 OpenBabel02181911423D

 19 19  0  0  1  0  0  0  0  0999 V2000
    1.3409   -0.7866   -1.0782 C   0  0  0  0  0  0  0  0  0  0  0  0
    1.1572   -0.0123    0.2292 C   0  0  0  0  0  0  0  0  0  0  0  0
    1.6986    1.4192    0.1483 C   0  0  0  0  0  0  0  0  0  0  0  0
    1.5034    2.2120    1.4446 C   0  0  2  0  0  0  0  0  0  0  0  0
    0.1073    2.3412    1.7458 O   0  0  0  0  0  0  0  0  0  0  0  0
   -0.2386    3.6681    1.8536 C   0  0  0  0  0  0  0  0  0  0  0  0
   -1.3558    4.0262    2.0954 O   0  0  0  0  0  0  0  0  0  0  0  0
    0.9915    4.4643    1.6197 C   0  0  0  0  0  0  0  0  0  0  0  0
    2.0021    3.6294    1.3898 C   0  0  0  0  0  0  0  0  0  0  0  0
    0.9480   -1.8041   -0.9931 H   0  0  0  0  0  0  0  0  0  0  0  0
    0.8169   -0.2961   -1.9058 H   0  0  0  0  0  0  0  0  0  0  0  0
    2.3990   -0.8598   -1.3537 H   0  0  0  0  0  0  0  0  0  0  0  0
    0.0960    0.0266    0.4962 H   0  0  0  0  0  0  0  0  0  0  0  0
    1.6625   -0.5429    1.0471 H   0  0  0  0  0  0  0  0  0  0  0  0
    2.7726    1.4027   -0.0806 H   0  0  0  0  0  0  0  0  0  0  0  0
    1.2085    1.9652   -0.6672 H   0  0  0  0  0  0  0  0  0  0  0  0
    1.9708    1.6666    2.2781 H   0  0  0  0  0  0  0  0  0  0  0  0
    0.9893    5.5438    1.6471 H   0  0  0  0  0  0  0  0  0  0  0  0
    3.0355    3.8759    1.1814 H   0  0  0  0  0  0  0  0  0  0  0  0
  1 10  1  0  0  0  0
  1  2  1  0  0  0  0
  2 13  1  0  0  0  0
  2 14  1  0  0  0  0
  3  2  1  0  0  0  0
  3  4  1  0  0  0  0
  4  5  1  0  0  0  0
  4 17  1  1  0  0  0
  5  6  1  0  0  0  0
  6  7  2  0  0  0  0
  8 18  1  0  0  0  0
  8  6  1  0  0  0  0
  9  4  1  0  0  0  0
  9  8  2  0  0  0  0
 11  1  1  0  0  0  0
 12  1  1  0  0  0  0
 15  3  1  0  0  0  0
 16  3  1  0  0  0  0
 19  9  1  0  0  0  0
M TOR 0 0 1 2 3
M TOR 1 0 1 2 14
M TOR 2 0 1 2 15
M TOR 3 1 2 3 4
M TOR 4 1 2 3 8
M TOR 5 1 2 3 16
M TOR 6 2 1 0 9
M TOR 7 2 1 0 10
M TOR 8 2 1 0 11
M TOR 9 2 3 4 5
M TOR 10 2 3 8 7
M TOR 11 2 3 8 18
M TOR 12 3 2 1 12
M TOR 13 3 2 1 13
M TOR 14 3 4 5 6
M TOR 15 3 4 5 7
M TOR 16 3 8 7 5
M TOR 17 3 8 7 17
M TOR 18 4 3 2 14
M TOR 19 4 3 2 15
M TOR 20 4 3 8 7
M TOR 21 4 3 8 18
M TOR 22 4 5 7 8
M TOR 23 4 5 7 17
M TOR 24 5 4 3 8
M TOR 25 5 4 3 16
M TOR 26 5 7 8 18
M TOR 27 6 5 7 8
M TOR 28 6 5 7 17
M TOR 29 7 8 3 16
M TOR 30 8 3 2 14
M TOR 31 8 3 2 15
M  END
$$$$
