gdb 4753	2.9231589	0.7639867	0.6431401	2.6166	82.7	-0.25123	0.01719	0.26842	1754.2051	0.154695	-422.50027	-422.489969	-422.489024	-422.538025	35.558
 OpenBabel02181911413D

 19 19  0  0  1  0  0  0  0  0999 V2000
   -4.5417   -0.4076    1.1700 C   0  0  0  0  0  0  0  0  0  0  0  0
   -3.2959   -1.2700    0.8991 C   0  0  2  0  0  0  0  0  0  0  0  0
   -3.1421   -2.3821    1.9647 C   0  0  0  0  0  0  0  0  0  0  0  0
   -2.0308   -3.2163    1.7324 O   0  0  0  0  0  0  0  0  0  0  0  0
   -2.0733   -0.4693    0.8560 C   0  0  0  0  0  0  0  0  0  0  0  0
   -1.0367    0.1477    0.8640 C   0  0  0  0  0  0  0  0  0  0  0  0
    0.1838    0.9083    0.8821 C   0  0  2  0  0  0  0  0  0  0  0  0
    1.3061    0.6020   -0.0275 C   0  0  0  0  0  0  0  0  0  0  0  0
    1.3692    0.2372    1.3452 O   0  0  0  0  0  0  0  0  0  0  0  0
   -4.4639    0.0953    2.1386 H   0  0  0  0  0  0  0  0  0  0  0  0
   -4.6632    0.3584    0.4003 H   0  0  0  0  0  0  0  0  0  0  0  0
   -5.4400   -1.0330    1.1773 H   0  0  0  0  0  0  0  0  0  0  0  0
   -3.4127   -1.7717   -0.0708 H   0  0  0  0  0  0  0  0  0  0  0  0
   -3.1042   -1.9150    2.9619 H   0  0  0  0  0  0  0  0  0  0  0  0
   -4.0261   -3.0273    1.9307 H   0  0  0  0  0  0  0  0  0  0  0  0
   -1.2456   -2.6554    1.7408 H   0  0  0  0  0  0  0  0  0  0  0  0
    0.0936    1.9327    1.2421 H   0  0  0  0  0  0  0  0  0  0  0  0
    1.2031   -0.2228   -0.7298 H   0  0  0  0  0  0  0  0  0  0  0  0
    1.9735    1.4062   -0.3349 H   0  0  0  0  0  0  0  0  0  0  0  0
  1 12  1  0  0  0  0
  1 10  1  0  0  0  0
  2 13  1  6  0  0  0
  2  1  1  0  0  0  0
  2  3  1  0  0  0  0
  3 14  1  0  0  0  0
  4 16  1  0  0  0  0
  4  3  1  0  0  0  0
  5  6  3  0  0  0  0
  5  2  1  0  0  0  0
  6  7  1  0  0  0  0
  7 17  1  1  0  0  0
  7  9  1  0  0  0  0
  8  7  1  0  0  0  0
  8  9  1  0  0  0  0
 11  1  1  0  0  0  0
 15  3  1  0  0  0  0
 18  8  1  0  0  0  0
 19  8  1  0  0  0  0
M TOR 0 0 1 2 3
M TOR 1 0 1 2 13
M TOR 2 0 1 2 14
M TOR 3 0 1 4 5
M TOR 4 1 2 3 15
M TOR 5 1 4 5 6
M TOR 6 2 1 0 9
M TOR 7 2 1 0 10
M TOR 8 2 1 0 11
M TOR 9 2 1 4 5
M TOR 10 3 2 1 4
M TOR 11 3 2 1 12
M TOR 12 4 1 0 9
M TOR 13 4 1 0 10
M TOR 14 4 1 0 11
M TOR 15 4 1 2 13
M TOR 16 4 1 2 14
M TOR 17 4 5 6 7
M TOR 18 4 5 6 8
M TOR 19 4 5 6 16
M TOR 20 5 4 1 12
M TOR 21 5 6 7 8
M TOR 22 5 6 7 17
M TOR 23 5 6 7 18
M TOR 24 6 8 7 17
M TOR 25 6 8 7 18
M TOR 26 7 8 6 16
M  END
$$$$
