gdb 3808	2.8590883	1.3695931	1.1441688	4.2197	75.07	-0.26536	0.0132	0.27856	1143.1252	0.156233	-422.579282	-422.570531	-422.569587	-422.61257	32.559
 OpenBabel02181911413D

 19 20  0  0  1  0  0  0  0  0999 V2000
   -4.1687    0.6142    1.2593 C   0  0  0  0  0  0  0  0  0  0  0  0
   -2.6899    0.2453    1.2791 C   0  0  2  0  0  0  0  0  0  0  0  0
   -1.7044    1.4592    1.3226 C   0  0  0  0  0  0  0  0  0  0  0  0
   -1.1542    1.0808   -0.0948 C   0  0  2  0  0  0  0  0  0  0  0  0
   -1.0105    2.1443   -1.1577 C   0  0  0  0  0  0  0  0  0  0  0  0
   -2.1012   -0.1533   -0.0934 C   0  0  1  0  0  0  0  0  0  0  0  0
   -0.9474   -1.0440    0.0439 O   0  0  0  0  0  0  0  0  0  0  0  0
   -0.0648    0.0135    0.0147 C   0  0  0  0  0  0  0  0  0  0  0  0
    1.1227   -0.0317    0.0625 O   0  0  0  0  0  0  0  0  0  0  0  0
   -4.4722    1.0577    2.2129 H   0  0  0  0  0  0  0  0  0  0  0  0
   -4.3887    1.3439    0.4712 H   0  0  0  0  0  0  0  0  0  0  0  0
   -4.7936   -0.2675    1.0819 H   0  0  0  0  0  0  0  0  0  0  0  0
   -2.4961   -0.5180    2.0369 H   0  0  0  0  0  0  0  0  0  0  0  0
   -2.2235    2.4215    1.3106 H   0  0  0  0  0  0  0  0  0  0  0  0
   -0.9670    1.4734    2.1275 H   0  0  0  0  0  0  0  0  0  0  0  0
   -0.8091    1.7066   -2.1406 H   0  0  0  0  0  0  0  0  0  0  0  0
   -1.9171    2.7531   -1.2314 H   0  0  0  0  0  0  0  0  0  0  0  0
   -0.1759    2.8096   -0.9125 H   0  0  0  0  0  0  0  0  0  0  0  0
   -2.7481   -0.4679   -0.9129 H   0  0  0  0  0  0  0  0  0  0  0  0
  1  2  1  0  0  0  0
  1 10  1  0  0  0  0
  2  3  1  0  0  0  0
  2 13  1  1  0  0  0
  3 15  1  0  0  0  0
  4  5  1  6  0  0  0
  4  6  1  0  0  0  0
  4  8  1  0  0  0  0
  4  3  1  0  0  0  0
  5 18  1  0  0  0  0
  6 19  1  6  0  0  0
  6  7  1  0  0  0  0
  6  2  1  0  0  0  0
  8  7  1  0  0  0  0
  8  9  2  0  0  0  0
 11  1  1  0  0  0  0
 12  1  1  0  0  0  0
 14  3  1  0  0  0  0
 16  5  1  0  0  0  0
 17  5  1  0  0  0  0
M TOR 0 0 1 2 3
M TOR 1 0 1 2 13
M TOR 2 0 1 2 14
M TOR 3 0 1 5 3
M TOR 4 0 1 5 6
M TOR 5 0 1 5 18
M TOR 6 1 2 3 4
M TOR 7 1 2 3 5
M TOR 8 1 2 3 7
M TOR 9 1 5 3 4
M TOR 10 1 5 3 7
M TOR 11 1 5 6 7
M TOR 12 2 1 0 9
M TOR 13 2 1 0 10
M TOR 14 2 1 0 11
M TOR 15 2 1 5 6
M TOR 16 2 1 5 18
M TOR 17 2 3 4 15
M TOR 18 2 3 4 16
M TOR 19 2 3 4 17
M TOR 20 2 3 5 6
M TOR 21 2 3 5 18
M TOR 22 2 3 7 6
M TOR 23 2 3 7 8
M TOR 24 3 2 1 12
M TOR 25 3 5 1 12
M TOR 26 3 5 6 7
M TOR 27 4 3 2 13
M TOR 28 4 3 2 14
M TOR 29 4 3 5 6
M TOR 30 4 3 5 18
M TOR 31 4 3 7 6
M TOR 32 4 3 7 8
M TOR 33 5 1 0 9
M TOR 34 5 1 0 10
M TOR 35 5 1 0 11
M TOR 36 5 1 2 13
M TOR 37 5 1 2 14
M TOR 38 5 3 2 13
M TOR 39 5 3 2 14
M TOR 40 5 3 4 15
M TOR 41 5 3 4 16
M TOR 42 5 3 4 17
M TOR 43 5 3 7 8
M TOR 44 5 6 7 8
M TOR 45 6 5 1 12
M TOR 46 7 3 2 13
M TOR 47 7 3 2 14
M TOR 48 7 3 4 15
M TOR 49 7 3 4 16
M TOR 50 7 3 4 17
M TOR 51 7 3 5 18
M TOR 52 7 6 5 18
M  END
$$$$
