gdb 3636	3.4149477	1.090402	0.9438435	1.5748	77.06	-0.25021	0.04205	0.29225999999999996	1283.0133	0.154568	-422.512269	-422.50261	-422.501666	-422.547065	35.375
 OpenBabel02181911413D

 19 19  0  0  1  0  0  0  0  0999 V2000
    5.4067    1.1998   -2.6790 C   0  0  0  0  0  0  0  0  0  0  0  0
    4.5698    2.0414   -1.7400 C   0  0  1  0  0  0  0  0  0  0  0  0
    3.1741    2.1240   -2.1443 O   0  0  0  0  0  0  0  0  0  0  0  0
    2.7155    1.7015   -0.8478 C   0  0  1  0  0  0  0  0  0  0  0  0
    1.8010    0.4748   -0.9290 C   0  0  0  0  0  0  0  0  0  0  0  0
    1.5045   -0.0466    0.4003 C   0  0  0  0  0  0  0  0  0  0  0  0
    1.3180   -0.4483    1.5192 C   0  0  0  0  0  0  0  0  0  0  0  0
    4.1689    1.4565   -0.3636 C   0  0  1  0  0  0  0  0  0  0  0  0
    4.5575    0.1131   -0.2114 O   0  0  0  0  0  0  0  0  0  0  0  0
    5.0427    0.1717   -2.7143 H   0  0  0  0  0  0  0  0  0  0  0  0
    5.3683    1.6278   -3.6854 H   0  0  0  0  0  0  0  0  0  0  0  0
    6.4507    1.1861   -2.3497 H   0  0  0  0  0  0  0  0  0  0  0  0
    4.9907    3.0522   -1.6524 H   0  0  0  0  0  0  0  0  0  0  0  0
    2.2043    2.5153   -0.3163 H   0  0  0  0  0  0  0  0  0  0  0  0
    0.8776    0.7496   -1.4516 H   0  0  0  0  0  0  0  0  0  0  0  0
    2.3003   -0.2923   -1.5289 H   0  0  0  0  0  0  0  0  0  0  0  0
    1.1182   -0.8130    2.4965 H   0  0  0  0  0  0  0  0  0  0  0  0
    4.4709    2.0613    0.4999 H   0  0  0  0  0  0  0  0  0  0  0  0
    4.0667   -0.2523    0.5346 H   0  0  0  0  0  0  0  0  0  0  0  0
  1 12  1  0  0  0  0
  1  2  1  0  0  0  0
  2 13  1  1  0  0  0
  2  8  1  0  0  0  0
  3  2  1  0  0  0  0
  3  4  1  0  0  0  0
  4  8  1  0  0  0  0
  4 14  1  1  0  0  0
  5  4  1  0  0  0  0
  5  6  1  0  0  0  0
  6  7  3  0  0  0  0
  7 17  1  0  0  0  0
  8  9  1  0  0  0  0
  8 18  1  1  0  0  0
  9 19  1  0  0  0  0
 10  1  1  0  0  0  0
 11  1  1  0  0  0  0
 15  5  1  0  0  0  0
 16  5  1  0  0  0  0
M TOR 0 0 1 2 3
M TOR 1 0 1 7 3
M TOR 2 0 1 7 8
M TOR 3 0 1 7 17
M TOR 4 1 2 3 4
M TOR 5 1 2 3 7
M TOR 6 1 2 3 13
M TOR 7 1 7 3 4
M TOR 8 1 7 3 13
M TOR 9 1 7 8 18
M TOR 10 2 1 0 9
M TOR 11 2 1 0 10
M TOR 12 2 1 0 11
M TOR 13 2 1 7 8
M TOR 14 2 1 7 17
M TOR 15 2 3 4 5
M TOR 16 2 3 4 14
M TOR 17 2 3 4 15
M TOR 18 2 3 7 8
M TOR 19 2 3 7 17
M TOR 20 3 2 1 12
M TOR 21 3 4 5 6
M TOR 22 3 7 1 12
M TOR 23 3 7 8 18
M TOR 24 4 3 7 8
M TOR 25 4 3 7 17
M TOR 26 4 5 6 16
M TOR 27 5 4 3 7
M TOR 28 5 4 3 13
M TOR 29 6 5 4 14
M TOR 30 6 5 4 15
M TOR 31 7 1 0 9
M TOR 32 7 1 0 10
M TOR 33 7 1 0 11
M TOR 34 7 3 4 14
M TOR 35 7 3 4 15
M TOR 36 8 7 1 12
M TOR 37 8 7 3 13
M  END
$$$$
