gdb 939	3.4047131	0.9826077	0.8528546	3.1255	76.68	-0.24935	-0.02207	0.22727999999999998	1365.2102	0.154997	-422.531034	-422.521959	-422.521015	-422.566313	32.362
 OpenBabel02181911403D

 19 20  0  0  1  0  0  0  0  0999 V2000
    0.0391   -1.0338    0.4111 O   0  0  0  0  0  0  0  0  0  0  0  0
    0.3276    0.0805    0.0567 C   0  0  0  0  0  0  0  0  0  0  0  0
   -0.3683    0.8495   -1.0401 C   0  0  0  0  0  0  0  0  0  0  0  0
   -1.0887    2.0808   -0.4682 C   0  0  2  0  0  0  0  0  0  0  0  0
   -2.4499    1.7784    0.2386 C   0  0  0  0  0  0  0  0  0  0  0  0
   -3.2165    2.3142   -1.0104 C   0  0  0  0  0  0  0  0  0  0  0  0
   -1.8852    2.8631   -1.5264 C   0  0  1  0  0  0  0  0  0  0  0  0
   -1.5752    4.1629   -2.1227 C   0  0  0  0  0  0  0  0  0  0  0  0
   -1.5143    2.9490   -2.8886 O   0  0  0  0  0  0  0  0  0  0  0  0
    1.1498    0.6443    0.5593 H   0  0  0  0  0  0  0  0  0  0  0  0
    0.3810    1.1885   -1.7676 H   0  0  0  0  0  0  0  0  0  0  0  0
   -1.0680    0.1829   -1.5526 H   0  0  0  0  0  0  0  0  0  0  0  0
   -0.3850    2.6845    0.1152 H   0  0  0  0  0  0  0  0  0  0  0  0
   -2.6213    0.7319    0.4971 H   0  0  0  0  0  0  0  0  0  0  0  0
   -2.6076    2.3899    1.1292 H   0  0  0  0  0  0  0  0  0  0  0  0
   -3.6010    1.5161   -1.6513 H   0  0  0  0  0  0  0  0  0  0  0  0
   -4.0162    3.0371   -0.8345 H   0  0  0  0  0  0  0  0  0  0  0  0
   -2.3826    4.8423   -2.3934 H   0  0  0  0  0  0  0  0  0  0  0  0
   -0.6147    4.6375   -1.9241 H   0  0  0  0  0  0  0  0  0  0  0  0
  2  1  2  0  0  0  0
  2 10  1  0  0  0  0
  3  4  1  0  0  0  0
  3  2  1  0  0  0  0
  4 13  1  1  0  0  0
  4  5  1  0  0  0  0
  5 14  1  0  0  0  0
  5 15  1  0  0  0  0
  6 17  1  0  0  0  0
  6  5  1  0  0  0  0
  7  9  1  6  0  0  0
  7  6  1  0  0  0  0
  7  4  1  0  0  0  0
  8 19  1  0  0  0  0
  8  7  1  0  0  0  0
  9  8  1  0  0  0  0
 11  3  1  0  0  0  0
 12  3  1  0  0  0  0
 16  6  1  0  0  0  0
 18  8  1  0  0  0  0
M TOR 0 0 1 2 3
M TOR 1 0 1 2 10
M TOR 2 0 1 2 11
M TOR 3 1 2 3 4
M TOR 4 1 2 3 6
M TOR 5 1 2 3 12
M TOR 6 2 3 4 5
M TOR 7 2 3 4 13
M TOR 8 2 3 4 14
M TOR 9 2 3 6 5
M TOR 10 2 3 6 7
M TOR 11 2 3 6 8
M TOR 12 3 2 1 9
M TOR 13 3 4 5 6
M TOR 14 3 4 5 15
M TOR 15 3 4 5 16
M TOR 16 3 6 5 15
M TOR 17 3 6 5 16
M TOR 18 3 6 7 8
M TOR 19 3 6 7 17
M TOR 20 3 6 7 18
M TOR 21 4 3 2 10
M TOR 22 4 3 2 11
M TOR 23 4 3 6 7
M TOR 24 4 3 6 8
M TOR 25 4 5 6 7
M TOR 26 4 5 6 8
M TOR 27 5 4 3 12
M TOR 28 5 6 3 12
M TOR 29 5 6 7 8
M TOR 30 5 6 7 17
M TOR 31 5 6 7 18
M TOR 32 6 3 2 10
M TOR 33 6 3 2 11
M TOR 34 6 3 4 13
M TOR 35 6 3 4 14
M TOR 36 6 5 4 13
M TOR 37 6 5 4 14
M TOR 38 6 8 7 17
M TOR 39 6 8 7 18
M TOR 40 7 6 3 12
M TOR 41 7 6 5 15
M TOR 42 7 6 5 16
M TOR 43 8 6 3 12
M TOR 44 8 6 5 15
M TOR 45 8 6 5 16
M  END
$$$$
