gdb 1917	3.0375463	1.3443847	1.2777043	1.7103	76.28	-0.24435	-0.00351	0.24084	1101.4687	0.154517	-422.55833	-422.549234	-422.54829	-422.591329	34.786
 OpenBabel02181911403D

 19 20  0  0  1  0  0  0  0  0999 V2000
    4.4824    2.3695    0.6369 C   0  0  0  0  0  0  0  0  0  0  0  0
    3.2740    1.5029    0.8441 C   0  0  1  0  0  0  0  0  0  0  0  0
    2.0294    2.1966    1.1582 O   0  0  0  0  0  0  0  0  0  0  0  0
    2.1002    1.4225   -0.0369 C   0  0  2  0  0  0  0  0  0  0  0  0
    1.4773    0.0266    0.0765 C   0  0  1  0  0  0  0  0  0  0  0  0
    0.0015    0.0582    0.4801 C   0  0  0  0  0  0  0  0  0  0  0  0
    1.6473   -0.5659   -1.2146 O   0  0  0  0  0  0  0  0  0  0  0  0
    2.3657   -0.6285    1.1287 C   0  0  0  0  0  0  0  0  0  0  0  0
    3.3530    0.1718    1.5320 C   0  0  0  0  0  0  0  0  0  0  0  0
    4.9043    2.6845    1.5977 H   0  0  0  0  0  0  0  0  0  0  0  0
    5.2591    1.8244    0.0905 H   0  0  0  0  0  0  0  0  0  0  0  0
    4.2181    3.2659    0.0713 H   0  0  0  0  0  0  0  0  0  0  0  0
    2.0051    1.9574   -0.9788 H   0  0  0  0  0  0  0  0  0  0  0  0
   -0.1285    0.6307    1.4014 H   0  0  0  0  0  0  0  0  0  0  0  0
   -0.5939    0.5177   -0.3143 H   0  0  0  0  0  0  0  0  0  0  0  0
   -0.3769   -0.9571    0.6492 H   0  0  0  0  0  0  0  0  0  0  0  0
    1.2792   -1.4553   -1.1843 H   0  0  0  0  0  0  0  0  0  0  0  0
    2.1560   -1.6217    1.5138 H   0  0  0  0  0  0  0  0  0  0  0  0
    4.1077   -0.0661    2.2729 H   0  0  0  0  0  0  0  0  0  0  0  0
  1 10  1  0  0  0  0
  2  1  1  6  0  0  0
  2  3  1  0  0  0  0
  2  9  1  0  0  0  0
  4 13  1  6  0  0  0
  4  5  1  0  0  0  0
  4  2  1  0  0  0  0
  4  3  1  0  0  0  0
  5  7  1  6  0  0  0
  5  6  1  0  0  0  0
  5  8  1  0  0  0  0
  6 16  1  0  0  0  0
  6 14  1  0  0  0  0
  7 17  1  0  0  0  0
  8 18  1  0  0  0  0
  8  9  2  0  0  0  0
  9 19  1  0  0  0  0
 11  1  1  0  0  0  0
 12  1  1  0  0  0  0
 15  6  1  0  0  0  0
M TOR 0 0 1 2 3
M TOR 1 0 1 3 4
M TOR 2 0 1 3 12
M TOR 3 0 1 8 7
M TOR 4 0 1 8 18
M TOR 5 1 2 3 4
M TOR 6 1 2 3 12
M TOR 7 1 3 4 5
M TOR 8 1 3 4 6
M TOR 9 1 3 4 7
M TOR 10 1 8 7 4
M TOR 11 1 8 7 17
M TOR 12 2 1 0 9
M TOR 13 2 1 0 10
M TOR 14 2 1 0 11
M TOR 15 2 1 8 7
M TOR 16 2 1 8 18
M TOR 17 2 3 1 8
M TOR 18 2 3 4 5
M TOR 19 2 3 4 6
M TOR 20 2 3 4 7
M TOR 21 3 1 0 9
M TOR 22 3 1 0 10
M TOR 23 3 1 0 11
M TOR 24 3 1 8 7
M TOR 25 3 1 8 18
M TOR 26 3 4 5 13
M TOR 27 3 4 5 14
M TOR 28 3 4 5 15
M TOR 29 3 4 6 16
M TOR 30 3 4 7 8
M TOR 31 3 4 7 17
M TOR 32 4 3 1 8
M TOR 33 4 7 8 18
M TOR 34 5 4 3 12
M TOR 35 5 4 6 16
M TOR 36 5 4 7 8
M TOR 37 5 4 7 17
M TOR 38 6 4 3 12
M TOR 39 6 4 5 13
M TOR 40 6 4 5 14
M TOR 41 6 4 5 15
M TOR 42 6 4 7 8
M TOR 43 6 4 7 17
M TOR 44 7 4 3 12
M TOR 45 7 4 5 13
M TOR 46 7 4 5 14
M TOR 47 7 4 5 15
M TOR 48 7 4 6 16
M TOR 49 8 1 0 9
M TOR 50 8 1 0 10
M TOR 51 8 1 0 11
M TOR 52 8 1 3 12
M  END
$$$$
