gdb 5116	2.4668102	1.6647058	1.1938167	2.0153	74.69	-0.20998	0.05783	0.26781	1056.6619	0.155949	-422.480885	-422.472243	-422.471299	-422.513804	33.631
 OpenBabel02181911423D

 19 21  0  0  1  0  0  0  0  0999 V2000
    1.6546    0.5901   -0.0205 O   0  0  0  0  0  0  0  0  0  0  0  0
    0.4269    0.0466    0.4495 C   0  0  0  0  0  0  0  0  0  0  0  0
   -0.6023    1.1101    0.7106 C   0  0  1  0  0  0  0  0  0  0  0  0
   -1.7555    1.4799   -0.1777 C   0  0  0  0  0  0  0  0  0  0  0  0
   -2.0277    0.9491    1.2130 C   0  0  2  0  0  0  0  0  0  0  0  0
   -1.7492    1.9523    2.3678 C   0  0  2  0  0  0  0  0  0  0  0  0
   -1.2824    3.3135    1.8853 C   0  0  0  0  0  0  0  0  0  0  0  0
   -0.3411    2.1499    1.8476 C   0  0  2  0  0  0  0  0  0  0  0  0
    0.8810    2.1298    2.5187 O   0  0  0  0  0  0  0  0  0  0  0  0
    2.0099    1.0913    0.7224 H   0  0  0  0  0  0  0  0  0  0  0  0
    0.0690   -0.6430   -0.3224 H   0  0  0  0  0  0  0  0  0  0  0  0
    0.5938   -0.5415    1.3654 H   0  0  0  0  0  0  0  0  0  0  0  0
   -1.9747    2.5009   -0.4696 H   0  0  0  0  0  0  0  0  0  0  0  0
   -1.9535    0.7607   -0.9687 H   0  0  0  0  0  0  0  0  0  0  0  0
   -2.5639    0.0219    1.3715 H   0  0  0  0  0  0  0  0  0  0  0  0
   -2.1058    1.8066    3.3790 H   0  0  0  0  0  0  0  0  0  0  0  0
   -1.6773    3.8092    1.0045 H   0  0  0  0  0  0  0  0  0  0  0  0
   -1.0761    3.9917    2.7100 H   0  0  0  0  0  0  0  0  0  0  0  0
    1.3164    2.9758    2.3691 H   0  0  0  0  0  0  0  0  0  0  0  0
  1  2  1  0  0  0  0
  1 10  1  0  0  0  0
  2 12  1  0  0  0  0
  3  2  1  6  0  0  0
  3  5  1  0  0  0  0
  3  8  1  0  0  0  0
  4  3  1  0  0  0  0
  4  5  1  0  0  0  0
  5 15  1  1  0  0  0
  5  6  1  0  0  0  0
  6 16  1  1  0  0  0
  7  6  1  0  0  0  0
  7 18  1  0  0  0  0
  8  7  1  0  0  0  0
  8  6  1  0  0  0  0
  8  9  1  1  0  0  0
 11  2  1  0  0  0  0
 13  4  1  0  0  0  0
 14  4  1  0  0  0  0
 17  7  1  0  0  0  0
 19  9  1  0  0  0  0
M TOR 0 0 1 2 3
M TOR 1 0 1 2 4
M TOR 2 0 1 2 7
M TOR 3 1 2 3 4
M TOR 4 1 2 3 12
M TOR 5 1 2 3 13
M TOR 6 1 2 4 5
M TOR 7 1 2 4 14
M TOR 8 1 2 7 5
M TOR 9 1 2 7 6
M TOR 10 1 2 7 8
M TOR 11 2 1 0 9
M TOR 12 2 3 4 5
M TOR 13 2 3 4 14
M TOR 14 2 4 3 12
M TOR 15 2 4 3 13
M TOR 16 2 4 5 6
M TOR 17 2 4 5 7
M TOR 18 2 4 5 15
M TOR 19 2 7 5 6
M TOR 20 2 7 5 15
M TOR 21 2 7 6 16
M TOR 22 2 7 6 17
M TOR 23 2 7 8 18
M TOR 24 3 2 1 10
M TOR 25 3 2 1 11
M TOR 26 3 2 7 5
M TOR 27 3 2 7 6
M TOR 28 3 2 7 8
M TOR 29 3 4 2 7
M TOR 30 3 4 5 6
M TOR 31 3 4 5 7
M TOR 32 3 4 5 15
M TOR 33 4 2 1 10
M TOR 34 4 2 1 11
M TOR 35 4 2 7 6
M TOR 36 4 2 7 8
M TOR 37 4 5 6 7
M TOR 38 4 5 6 16
M TOR 39 4 5 6 17
M TOR 40 4 5 7 8
M TOR 41 5 4 3 12
M TOR 42 5 4 3 13
M TOR 43 5 6 7 8
M TOR 44 5 7 6 16
M TOR 45 5 7 6 17
M TOR 46 5 7 8 18
M TOR 47 6 5 4 14
M TOR 48 6 7 5 15
M TOR 49 6 7 8 18
M TOR 50 7 2 1 10
M TOR 51 7 2 1 11
M TOR 52 7 2 3 12
M TOR 53 7 2 3 13
M TOR 54 7 2 4 14
M TOR 55 7 5 4 14
M TOR 56 8 7 5 15
M TOR 57 8 7 6 16
M TOR 58 8 7 6 17
M  END
$$$$
