gdb 2071	2.3921477	1.910111	1.3246581	2.3081	75.17	-0.23305	0.08208	0.31513	1017.1137	0.156232	-422.52919	-422.521032	-422.520087	-422.561482	31.799
 OpenBabel02181911403D

 19 21  0  0  1  0  0  0  0  0999 V2000
   -1.2695    0.9904    2.2451 C   0  0  0  0  0  0  0  0  0  0  0  0
   -0.9149   -0.0834    1.2567 C   0  0  1  0  0  0  0  0  0  0  0  0
   -0.5652   -1.3755    1.8004 O   0  0  0  0  0  0  0  0  0  0  0  0
   -1.7179   -1.2757    0.9592 C   0  0  2  0  0  0  0  0  0  0  0  0
   -1.4326   -1.6630   -0.4746 C   0  0  0  0  0  0  0  0  0  0  0  0
   -0.2593   -0.9369   -0.8337 O   0  0  0  0  0  0  0  0  0  0  0  0
   -0.1404    0.1978   -0.0020 C   0  0  0  0  0  0  0  0  0  0  0  0
    1.1568    0.9320   -0.0757 C   0  0  0  0  0  0  0  0  0  0  0  0
   -0.1012    1.5586   -0.6530 C   0  0  0  0  0  0  0  0  0  0  0  0
   -1.8138    0.5537    3.0852 H   0  0  0  0  0  0  0  0  0  0  0  0
   -0.3683    1.4711    2.6418 H   0  0  0  0  0  0  0  0  0  0  0  0
   -1.8931    1.7633    1.7865 H   0  0  0  0  0  0  0  0  0  0  0  0
   -2.6806   -1.4885    1.4176 H   0  0  0  0  0  0  0  0  0  0  0  0
   -1.2184   -2.7283   -0.6071 H   0  0  0  0  0  0  0  0  0  0  0  0
   -2.2911   -1.3926   -1.1105 H   0  0  0  0  0  0  0  0  0  0  0  0
    1.5706    1.3449    0.8380 H   0  0  0  0  0  0  0  0  0  0  0  0
    1.8904    0.5431   -0.7724 H   0  0  0  0  0  0  0  0  0  0  0  0
   -0.5363    2.4122   -0.1446 H   0  0  0  0  0  0  0  0  0  0  0  0
   -0.1979    1.5701   -1.7327 H   0  0  0  0  0  0  0  0  0  0  0  0
  1 11  1  0  0  0  0
  1 10  1  0  0  0  0
  2  3  1  0  0  0  0
  2  1  1  1  0  0  0
  4  2  1  0  0  0  0
  4 13  1  1  0  0  0
  4  3  1  0  0  0  0
  5  4  1  0  0  0  0
  6  5  1  0  0  0  0
  6  7  1  0  0  0  0
  7  2  1  0  0  0  0
  8  7  1  0  0  0  0
  8 16  1  0  0  0  0
  9 18  1  0  0  0  0
  9  8  1  0  0  0  0
  9  7  1  0  0  0  0
 12  1  1  0  0  0  0
 14  5  1  0  0  0  0
 15  5  1  0  0  0  0
 17  8  1  0  0  0  0
 19  9  1  0  0  0  0
M TOR 0 0 1 2 3
M TOR 1 0 1 3 4
M TOR 2 0 1 3 12
M TOR 3 0 1 6 5
M TOR 4 0 1 6 7
M TOR 5 0 1 6 8
M TOR 6 1 2 3 4
M TOR 7 1 2 3 12
M TOR 8 1 3 4 5
M TOR 9 1 3 4 13
M TOR 10 1 3 4 14
M TOR 11 1 6 5 4
M TOR 12 1 6 7 8
M TOR 13 1 6 7 15
M TOR 14 1 6 7 16
M TOR 15 1 6 8 17
M TOR 16 1 6 8 18
M TOR 17 2 1 0 9
M TOR 18 2 1 0 10
M TOR 19 2 1 0 11
M TOR 20 2 1 6 5
M TOR 21 2 1 6 7
M TOR 22 2 1 6 8
M TOR 23 2 3 1 6
M TOR 24 2 3 4 5
M TOR 25 2 3 4 13
M TOR 26 2 3 4 14
M TOR 27 3 1 0 9
M TOR 28 3 1 0 10
M TOR 29 3 1 0 11
M TOR 30 3 1 6 5
M TOR 31 3 1 6 7
M TOR 32 3 1 6 8
M TOR 33 3 4 5 6
M TOR 34 4 3 1 6
M TOR 35 4 5 6 7
M TOR 36 4 5 6 8
M TOR 37 5 4 3 12
M TOR 38 5 6 7 8
M TOR 39 5 6 7 15
M TOR 40 5 6 7 16
M TOR 41 5 6 8 17
M TOR 42 5 6 8 18
M TOR 43 6 1 0 9
M TOR 44 6 1 0 10
M TOR 45 6 1 0 11
M TOR 46 6 1 3 12
M TOR 47 6 5 4 13
M TOR 48 6 5 4 14
M TOR 49 6 7 8 17
M TOR 50 6 7 8 18
M TOR 51 6 8 7 15
M TOR 52 6 8 7 16
M  END
$$$$
