gdb 5723	3.270843	0.9805741	0.897306	2.8943	77.83	-0.25813	-0.03794	0.22019000000000002	1374.586	0.154879	-422.531423	-422.522352	-422.521408	-422.565618	32.982
 OpenBabel02181911423D

 19 20  0  0  1  0  0  0  0  0999 V2000
    2.4667    1.1921    0.2329 C   0  0  0  0  0  0  0  0  0  0  0  0
    2.0044   -0.2498   -0.0021 C   0  0  0  0  0  0  0  0  0  0  0  0
    2.3444   -0.7745   -1.3947 C   0  0  1  0  0  0  0  0  0  0  0  0
    1.7796   -2.2048   -1.7164 C   0  0  0  0  0  0  0  0  0  0  0  0
    0.9267   -1.5859   -2.8233 C   0  0  2  0  0  0  0  0  0  0  0  0
    1.7967   -0.8923   -3.7344 O   0  0  0  0  0  0  0  0  0  0  0  0
    1.4640   -0.2203   -2.5352 C   0  0  2  0  0  0  0  0  0  0  0  0
   -0.4209   -1.9387   -3.3004 C   0  0  0  0  0  0  0  0  0  0  0  0
   -1.0960   -2.8150   -2.8169 O   0  0  0  0  0  0  0  0  0  0  0  0
    2.2064    1.5296    1.2404 H   0  0  0  0  0  0  0  0  0  0  0  0
    3.5526    1.2812    0.1205 H   0  0  0  0  0  0  0  0  0  0  0  0
    2.0043    1.8866   -0.4769 H   0  0  0  0  0  0  0  0  0  0  0  0
    2.4668   -0.9111    0.7408 H   0  0  0  0  0  0  0  0  0  0  0  0
    0.9204   -0.3246    0.1584 H   0  0  0  0  0  0  0  0  0  0  0  0
    3.4120   -0.6518   -1.6037 H   0  0  0  0  0  0  0  0  0  0  0  0
    2.4917   -2.9617   -2.0506 H   0  0  0  0  0  0  0  0  0  0  0  0
    1.1685   -2.6036   -0.9041 H   0  0  0  0  0  0  0  0  0  0  0  0
    0.9782    0.7463   -2.6229 H   0  0  0  0  0  0  0  0  0  0  0  0
   -0.7722   -1.3069   -4.1450 H   0  0  0  0  0  0  0  0  0  0  0  0
  1 10  1  0  0  0  0
  2 14  1  0  0  0  0
  2  1  1  0  0  0  0
  2 13  1  0  0  0  0
  3 15  1  6  0  0  0
  3  2  1  0  0  0  0
  4  3  1  0  0  0  0
  4 17  1  0  0  0  0
  5  8  1  6  0  0  0
  5  7  1  0  0  0  0
  5  4  1  0  0  0  0
  6  5  1  0  0  0  0
  6  7  1  0  0  0  0
  7 18  1  1  0  0  0
  7  3  1  0  0  0  0
  8  9  2  0  0  0  0
 11  1  1  0  0  0  0
 12  1  1  0  0  0  0
 16  4  1  0  0  0  0
 19  8  1  0  0  0  0
M TOR 0 0 1 2 3
M TOR 1 0 1 2 6
M TOR 2 0 1 2 14
M TOR 3 1 2 3 4
M TOR 4 1 2 3 15
M TOR 5 1 2 3 16
M TOR 6 1 2 6 4
M TOR 7 1 2 6 5
M TOR 8 1 2 6 17
M TOR 9 2 1 0 9
M TOR 10 2 1 0 10
M TOR 11 2 1 0 11
M TOR 12 2 3 4 5
M TOR 13 2 3 4 6
M TOR 14 2 3 4 7
M TOR 15 2 6 4 5
M TOR 16 2 6 4 7
M TOR 17 3 2 1 12
M TOR 18 3 2 1 13
M TOR 19 3 2 6 5
M TOR 20 3 2 6 17
M TOR 21 3 4 5 6
M TOR 22 3 4 6 17
M TOR 23 3 4 7 8
M TOR 24 3 4 7 18
M TOR 25 4 3 2 14
M TOR 26 4 5 6 17
M TOR 27 4 6 2 14
M TOR 28 5 4 3 15
M TOR 29 5 4 3 16
M TOR 30 5 4 7 8
M TOR 31 5 4 7 18
M TOR 32 5 6 2 14
M TOR 33 5 6 4 7
M TOR 34 6 2 1 12
M TOR 35 6 2 1 13
M TOR 36 6 2 3 15
M TOR 37 6 2 3 16
M TOR 38 6 4 3 15
M TOR 39 6 4 3 16
M TOR 40 6 4 7 8
M TOR 41 6 4 7 18
M TOR 42 7 4 3 15
M TOR 43 7 4 3 16
M TOR 44 7 4 6 17
M  END
$$$$
