
     RDKit          3D

 19 20  0  0  0  0  0  0  0  0999 V2000
    0.4061    0.2183    0.5036 O   0  0  0  0  0  0  0  0  0  0  0  0
   -0.6143    0.8027    1.3239 C   0  0  0  0  0  0  0  0  0  0  0  0
   -1.0764    2.1702    0.7987 C   0  0  0  0  0  0  0  0  0  0  0  0
   -2.0448    2.0184   -0.3795 C   0  0  0  0  0  0  0  0  0  0  0  0
   -3.2486    1.1864    0.0187 C   0  0  0  0  0  0  0  0  0  0  0  0
   -4.4521    1.1756   -0.8298 C   0  0  0  0  0  0  0  0  0  0  0  0
   -4.4449    1.9219    0.3820 O   0  0  0  0  0  0  0  0  0  0  0  0
   -2.9568    0.0277    0.8987 C   0  0  0  0  0  0  0  0  0  0  0  0
   -1.7726   -0.1503    1.4898 C   0  0  0  0  0  0  0  0  0  0  0  0
   -0.0286   -0.1852   -0.2549 H   0  0  0  0  0  0  0  0  0  0  0  0
   -0.1259    0.9459    2.2945 H   0  0  0  0  0  0  0  0  0  0  0  0
   -1.5760    2.7097    1.6123 H   0  0  0  0  0  0  0  0  0  0  0  0
   -0.1953    2.7492    0.5079 H   0  0  0  0  0  0  0  0  0  0  0  0
   -2.3870    2.9914   -0.7428 H   0  0  0  0  0  0  0  0  0  0  0  0
   -1.5313    1.5238   -1.2152 H   0  0  0  0  0  0  0  0  0  0  0  0
   -4.4570    1.7653   -1.7470 H   0  0  0  0  0  0  0  0  0  0  0  0
   -5.1021    0.3006   -0.8416 H   0  0  0  0  0  0  0  0  0  0  0  0
   -3.7694   -0.6764    1.0585 H   0  0  0  0  0  0  0  0  0  0  0  0
   -1.5945   -1.0315    2.1006 H   0  0  0  0  0  0  0  0  0  0  0  0
  1  2  1  0
  2  3  1  0
  3  4  1  0
  4  5  1  0
  5  6  1  0
  6  7  1  0
  5  8  1  0
  8  9  2  0
  9  2  1  0
  7  5  1  0
  1 10  1  0
  2 11  1  0
  3 12  1  0
  3 13  1  0
  4 14  1  0
  4 15  1  0
  6 16  1  0
  6 17  1  0
  8 18  1  0
  9 19  1  0
M  END
$$$$
