
     RDKit          3D

 19 21  0  0  0  0  0  0  0  0999 V2000
    1.5847    0.1778   -0.5782 O   0  0  0  0  0  0  0  0  0  0  0  0
    0.5460   -0.1996    0.3175 C   0  0  0  0  0  0  0  0  0  0  0  0
   -0.0589    1.0102    1.0116 C   0  0  0  0  0  0  0  0  0  0  0  0
   -1.0804    1.9488    0.2699 C   0  0  0  0  0  0  0  0  0  0  0  0
   -2.1749    0.8525    0.4850 C   0  0  0  0  0  0  0  0  0  0  0  0
   -1.3874    0.9026    1.8375 C   0  0  0  0  0  0  0  0  0  0  0  0
   -1.4570    2.4292    1.6792 C   0  0  0  0  0  0  0  0  0  0  0  0
   -1.1707    3.5874    2.5084 C   0  0  0  0  0  0  0  0  0  0  0  0
   -2.5116    3.2790    2.0382 O   0  0  0  0  0  0  0  0  0  0  0  0
    1.1899    0.7204   -1.2684 H   0  0  0  0  0  0  0  0  0  0  0  0
   -0.2095   -0.8134   -0.1906 H   0  0  0  0  0  0  0  0  0  0  0  0
    1.0261   -0.8397    1.0660 H   0  0  0  0  0  0  0  0  0  0  0  0
    0.7433    1.5551    1.5215 H   0  0  0  0  0  0  0  0  0  0  0  0
   -0.9099    2.5603   -0.6171 H   0  0  0  0  0  0  0  0  0  0  0  0
   -3.2060    1.2082    0.5187 H   0  0  0  0  0  0  0  0  0  0  0  0
   -2.0929   -0.0590   -0.1063 H   0  0  0  0  0  0  0  0  0  0  0  0
   -1.5646    0.3129    2.7370 H   0  0  0  0  0  0  0  0  0  0  0  0
   -1.0263    3.4748    3.5818 H   0  0  0  0  0  0  0  0  0  0  0  0
   -0.7287    4.4824    2.0732 H   0  0  0  0  0  0  0  0  0  0  0  0
  1  2  1  0
  2  3  1  0
  3  4  1  0
  4  5  1  0
  5  6  1  0
  6  7  1  0
  7  8  1  0
  8  9  1  0
  6  3  1  0
  9  7  1  0
  7  4  1  0
  1 10  1  0
  2 11  1  0
  2 12  1  0
  3 13  1  0
  4 14  1  0
  5 15  1  0
  5 16  1  0
  6 17  1  0
  8 18  1  0
  8 19  1  0
M  END
$$$$
