gdb 664	2.5170676	1.7515509	1.5473924	3.3575	73.89	-0.234	-0.01322	0.22078	958.7022	0.160013	-422.597443	-422.590303	-422.589359	-422.6288	28.745
 OpenBabel02181911403D

 19 20  0  0  1  0  0  0  0  0999 V2000
    1.1996   -0.0508    0.0991 O   0  0  0  0  0  0  0  0  0  0  0  0
   -0.0017   -0.0292    0.0618 C   0  0  0  0  0  0  0  0  0  0  0  0
   -0.8959    1.2209    0.0883 C   0  0  0  0  0  0  0  0  0  0  0  0
   -2.3285    0.6507    0.1360 C   0  0  1  0  0  0  0  0  0  0  0  0
   -2.1898   -0.6543   -0.6832 C   0  0  0  0  0  0  0  0  0  0  0  0
   -0.9352   -1.2495   -0.0210 C   0  0  2  0  0  0  0  0  0  0  0  0
   -1.2975   -1.6483    1.4264 C   0  0  0  0  0  0  0  0  0  0  0  0
   -1.6943   -0.5191    2.1913 O   0  0  0  0  0  0  0  0  0  0  0  0
   -2.7087    0.2632    1.5747 C   0  0  0  0  0  0  0  0  0  0  0  0
   -0.6272    1.8606    0.9332 H   0  0  0  0  0  0  0  0  0  0  0  0
   -0.7230    1.7946   -0.8298 H   0  0  0  0  0  0  0  0  0  0  0  0
   -3.0786    1.3362   -0.2672 H   0  0  0  0  0  0  0  0  0  0  0  0
   -3.0659   -1.3048   -0.5969 H   0  0  0  0  0  0  0  0  0  0  0  0
   -2.0262   -0.4458   -1.7460 H   0  0  0  0  0  0  0  0  0  0  0  0
   -0.4672   -2.0867   -0.5422 H   0  0  0  0  0  0  0  0  0  0  0  0
   -2.0974   -2.4075    1.4064 H   0  0  0  0  0  0  0  0  0  0  0  0
   -0.4309   -2.0697    1.9429 H   0  0  0  0  0  0  0  0  0  0  0  0
   -3.6683   -0.2810    1.5720 H   0  0  0  0  0  0  0  0  0  0  0  0
   -2.8227    1.1481    2.2083 H   0  0  0  0  0  0  0  0  0  0  0  0
  2  3  1  0  0  0  0
  2  1  2  0  0  0  0
  3  4  1  0  0  0  0
  3 10  1  0  0  0  0
  4 12  1  6  0  0  0
  4  9  1  0  0  0  0
  5 13  1  0  0  0  0
  5  6  1  0  0  0  0
  5  4  1  0  0  0  0
  6 15  1  6  0  0  0
  6  2  1  0  0  0  0
  6  7  1  0  0  0  0
  7 17  1  0  0  0  0
  7  8  1  0  0  0  0
  9  8  1  0  0  0  0
  9 19  1  0  0  0  0
 11  3  1  0  0  0  0
 14  5  1  0  0  0  0
 16  7  1  0  0  0  0
 18  9  1  0  0  0  0
M TOR 0 0 1 2 3
M TOR 1 0 1 2 9
M TOR 2 0 1 2 10
M TOR 3 0 1 5 4
M TOR 4 0 1 5 6
M TOR 5 0 1 5 14
M TOR 6 1 2 3 4
M TOR 7 1 2 3 8
M TOR 8 1 2 3 11
M TOR 9 1 5 4 3
M TOR 10 1 5 4 12
M TOR 11 1 5 4 13
M TOR 12 1 5 6 7
M TOR 13 1 5 6 15
M TOR 14 1 5 6 16
M TOR 15 2 1 5 4
M TOR 16 2 1 5 6
M TOR 17 2 1 5 14
M TOR 18 2 3 4 5
M TOR 19 2 3 4 12
M TOR 20 2 3 4 13
M TOR 21 2 3 8 7
M TOR 22 2 3 8 17
M TOR 23 2 3 8 18
M TOR 24 3 2 1 5
M TOR 25 3 4 5 6
M TOR 26 3 4 5 14
M TOR 27 3 8 7 6
M TOR 28 4 3 2 9
M TOR 29 4 3 2 10
M TOR 30 4 3 8 7
M TOR 31 4 3 8 17
M TOR 32 4 3 8 18
M TOR 33 4 5 6 7
M TOR 34 4 5 6 15
M TOR 35 4 5 6 16
M TOR 36 5 1 2 9
M TOR 37 5 1 2 10
M TOR 38 5 4 3 8
M TOR 39 5 4 3 11
M TOR 40 5 6 7 8
M TOR 41 6 5 4 12
M TOR 42 6 5 4 13
M TOR 43 6 7 8 17
M TOR 44 6 7 8 18
M TOR 45 7 6 5 14
M TOR 46 7 8 3 11
M TOR 47 8 3 2 9
M TOR 48 8 3 2 10
M TOR 49 8 3 4 12
M TOR 50 8 3 4 13
M TOR 51 8 7 6 15
M TOR 52 8 7 6 16
M  END
$$$$
