gdb 5507	3.7504975	0.8727153	0.7590814	3.068	76.97	-0.2401	-0.03422	0.20588	1515.1822	0.154661	-422.518188	-422.508993	-422.508049	-422.553075	32.81
 OpenBabel02181911423D

 19 20  0  0  1  0  0  0  0  0999 V2000
    1.1262   -0.3047    1.1318 C   0  0  0  0  0  0  0  0  0  0  0  0
    1.2685    0.2752   -0.2804 C   0  0  0  0  0  0  0  0  0  0  0  0
    1.8182   -0.7241   -1.2798 C   0  0  2  0  0  0  0  0  0  0  0  0
    1.4546   -0.5600   -2.7198 C   0  0  1  0  0  0  0  0  0  0  0  0
    2.1867   -1.4770   -3.5426 O   0  0  0  0  0  0  0  0  0  0  0  0
    1.5526   -2.6060   -2.8848 C   0  0  2  0  0  0  0  0  0  0  0  0
    0.6112   -3.3195   -3.8371 C   0  0  0  0  0  0  0  0  0  0  0  0
    0.2257   -4.4465   -3.6703 O   0  0  0  0  0  0  0  0  0  0  0  0
    0.8152   -1.6735   -1.9175 C   0  0  1  0  0  0  0  0  0  0  0  0
    0.4433   -1.1603    1.1420 H   0  0  0  0  0  0  0  0  0  0  0  0
    2.0932   -0.6485    1.5141 H   0  0  0  0  0  0  0  0  0  0  0  0
    0.7391    0.4450    1.8283 H   0  0  0  0  0  0  0  0  0  0  0  0
    0.2933    0.6394   -0.6293 H   0  0  0  0  0  0  0  0  0  0  0  0
    1.9291    1.1508   -0.2552 H   0  0  0  0  0  0  0  0  0  0  0  0
    2.8153   -1.1054   -1.0631 H   0  0  0  0  0  0  0  0  0  0  0  0
    1.0676    0.3411   -3.1818 H   0  0  0  0  0  0  0  0  0  0  0  0
    2.2689   -3.3163   -2.4571 H   0  0  0  0  0  0  0  0  0  0  0  0
    0.2901   -2.6936   -4.6993 H   0  0  0  0  0  0  0  0  0  0  0  0
   -0.1941   -1.8103   -1.5531 H   0  0  0  0  0  0  0  0  0  0  0  0
  1 10  1  0  0  0  0
  1 11  1  0  0  0  0
  1 12  1  0  0  0  0
  2 14  1  0  0  0  0
  2  1  1  0  0  0  0
  3 15  1  1  0  0  0
  3  2  1  0  0  0  0
  4 16  1  6  0  0  0
  4  9  1  0  0  0  0
  4  3  1  0  0  0  0
  5  6  1  0  0  0  0
  5  4  1  0  0  0  0
  6 17  1  1  0  0  0
  6  9  1  0  0  0  0
  7  8  2  0  0  0  0
  7  6  1  0  0  0  0
  9 19  1  1  0  0  0
  9  3  1  0  0  0  0
 13  2  1  0  0  0  0
 18  7  1  0  0  0  0
M TOR 0 0 1 2 3
M TOR 1 0 1 2 8
M TOR 2 0 1 2 14
M TOR 3 1 2 3 4
M TOR 4 1 2 3 8
M TOR 5 1 2 3 15
M TOR 6 1 2 8 5
M TOR 7 1 2 8 18
M TOR 8 2 1 0 9
M TOR 9 2 1 0 10
M TOR 10 2 1 0 11
M TOR 11 2 3 4 5
M TOR 12 2 3 8 5
M TOR 13 2 3 8 18
M TOR 14 2 8 3 4
M TOR 15 2 8 3 15
M TOR 16 2 8 5 4
M TOR 17 2 8 5 6
M TOR 18 2 8 5 16
M TOR 19 3 2 1 12
M TOR 20 3 2 1 13
M TOR 21 3 4 5 6
M TOR 22 3 4 5 8
M TOR 23 3 4 5 16
M TOR 24 3 8 2 14
M TOR 25 3 8 5 6
M TOR 26 3 8 5 16
M TOR 27 4 3 2 14
M TOR 28 4 3 8 18
M TOR 29 4 5 6 7
M TOR 30 4 5 6 17
M TOR 31 4 5 8 18
M TOR 32 5 4 3 15
M TOR 33 5 8 2 14
M TOR 34 5 8 3 15
M TOR 35 6 5 8 18
M TOR 36 7 6 5 8
M TOR 37 7 6 5 16
M TOR 38 8 2 1 12
M TOR 39 8 2 1 13
M TOR 40 8 5 6 17
M  END
$$$$
