gdb 787	2.4986919	1.3789436	1.0276656	2.1557	75.99	-0.25632	-0.03629	0.22003	1199.4791	0.155796	-422.53216	-422.523378	-422.522434	-422.566263	32.016
 OpenBabel02181911403D

 19 20  0  0  1  0  0  0  0  0999 V2000
    1.1786   -0.5331   -0.6769 O   0  0  0  0  0  0  0  0  0  0  0  0
    0.2952    0.0512   -0.1042 C   0  0  0  0  0  0  0  0  0  0  0  0
   -0.9048    0.6429   -0.7835 C   0  0  2  0  0  0  0  0  0  0  0  0
   -1.3632    1.9426   -0.2401 C   0  0  0  0  0  0  0  0  0  0  0  0
   -2.0347    0.7426    0.1058 O   0  0  0  0  0  0  0  0  0  0  0  0
   -1.1700    0.2239   -2.2035 C   0  0  0  0  0  0  0  0  0  0  0  0
   -2.4294    0.7608   -2.9364 C   0  0  0  0  0  0  0  0  0  0  0  0
   -2.6184   -0.6500   -3.5576 C   0  0  0  0  0  0  0  0  0  0  0  0
   -1.6916   -1.2231   -2.4529 C   0  0  0  0  0  0  0  0  0  0  0  0
    0.2943    0.2000    0.9990 H   0  0  0  0  0  0  0  0  0  0  0  0
   -0.8162    2.4257    0.5690 H   0  0  0  0  0  0  0  0  0  0  0  0
   -1.9003    2.6117   -0.9099 H   0  0  0  0  0  0  0  0  0  0  0  0
   -0.2613    0.4014   -2.7858 H   0  0  0  0  0  0  0  0  0  0  0  0
   -3.2250    0.9880   -2.2212 H   0  0  0  0  0  0  0  0  0  0  0  0
   -2.3012    1.6085   -3.6138 H   0  0  0  0  0  0  0  0  0  0  0  0
   -3.6365   -1.0404   -3.6167 H   0  0  0  0  0  0  0  0  0  0  0  0
   -2.1603   -0.7212   -4.5481 H   0  0  0  0  0  0  0  0  0  0  0  0
   -2.2655   -1.5851   -1.5948 H   0  0  0  0  0  0  0  0  0  0  0  0
   -0.9562   -1.9788   -2.7335 H   0  0  0  0  0  0  0  0  0  0  0  0
  1  2  2  0  0  0  0
  2 10  1  0  0  0  0
  3  4  1  0  0  0  0
  3  2  1  1  0  0  0
  3  5  1  0  0  0  0
  4  5  1  0  0  0  0
  4 11  1  0  0  0  0
  6  3  1  0  0  0  0
  7 14  1  0  0  0  0
  7  6  1  0  0  0  0
  8  7  1  0  0  0  0
  8  9  1  0  0  0  0
  9  6  1  0  0  0  0
  9 18  1  0  0  0  0
 12  4  1  0  0  0  0
 13  6  1  0  0  0  0
 15  7  1  0  0  0  0
 16  8  1  0  0  0  0
 17  8  1  0  0  0  0
 19  9  1  0  0  0  0
M TOR 0 0 1 2 3
M TOR 1 0 1 2 4
M TOR 2 0 1 2 5
M TOR 3 1 2 3 4
M TOR 4 1 2 3 10
M TOR 5 1 2 3 11
M TOR 6 1 2 5 6
M TOR 7 1 2 5 8
M TOR 8 1 2 5 12
M TOR 9 2 4 3 10
M TOR 10 2 4 3 11
M TOR 11 2 5 6 7
M TOR 12 2 5 6 13
M TOR 13 2 5 6 14
M TOR 14 2 5 8 7
M TOR 15 2 5 8 17
M TOR 16 2 5 8 18
M TOR 17 3 2 1 9
M TOR 18 3 2 5 6
M TOR 19 3 2 5 8
M TOR 20 3 2 5 12
M TOR 21 3 4 2 5
M TOR 22 4 2 1 9
M TOR 23 4 2 5 6
M TOR 24 4 2 5 8
M TOR 25 4 2 5 12
M TOR 26 5 2 1 9
M TOR 27 5 2 3 10
M TOR 28 5 2 3 11
M TOR 29 5 6 7 8
M TOR 30 5 6 7 15
M TOR 31 5 6 7 16
M TOR 32 5 8 7 15
M TOR 33 5 8 7 16
M TOR 34 6 5 8 17
M TOR 35 6 5 8 18
M TOR 36 6 7 8 17
M TOR 37 6 7 8 18
M TOR 38 7 6 5 12
M TOR 39 7 8 5 12
M TOR 40 8 5 6 13
M TOR 41 8 5 6 14
M TOR 42 8 7 6 13
M TOR 43 8 7 6 14
M  END
$$$$
