gdb 415	2.1804055	2.012334	1.2731805	1.3223	74.84	-0.23477	0.07452	0.30929	1032.7288	0.157062	-422.520721	-422.51278	-422.511836	-422.553582	30.949
 OpenBabel02181911403D

 19 21  0  0  1  0  0  0  0  0999 V2000
    0.9396    1.3182   -0.0796 C   0  0  0  0  0  0  0  0  0  0  0  0
    1.4308   -0.1143   -0.1847 C   0  0  0  0  0  0  0  0  0  0  0  0
   -0.0276    0.1887    0.0395 C   0  0  0  0  0  0  0  0  0  0  0  0
   -0.9300    0.0149   -1.0287 O   0  0  0  0  0  0  0  0  0  0  0  0
   -1.7942   -1.0603   -0.6658 C   0  0  0  0  0  0  0  0  0  0  0  0
   -2.0669   -0.8418    0.8281 C   0  0  0  0  0  0  0  0  0  0  0  0
   -0.7399   -0.2567    1.3064 C   0  0  2  0  0  0  0  0  0  0  0  0
   -0.5295    0.2907    2.6479 C   0  0  0  0  0  0  0  0  0  0  0  0
    0.0138   -0.9845    2.2802 O   0  0  0  0  0  0  0  0  0  0  0  0
    1.1875    1.8925    0.8066 H   0  0  0  0  0  0  0  0  0  0  0  0
    0.8860    1.8986   -0.9941 H   0  0  0  0  0  0  0  0  0  0  0  0
    1.7069   -0.4756   -1.1687 H   0  0  0  0  0  0  0  0  0  0  0  0
    1.9856   -0.5332    0.6467 H   0  0  0  0  0  0  0  0  0  0  0  0
   -2.6829   -1.0004   -1.2974 H   0  0  0  0  0  0  0  0  0  0  0  0
   -1.3015   -2.0295   -0.8377 H   0  0  0  0  0  0  0  0  0  0  0  0
   -2.8729   -0.1135    0.9618 H   0  0  0  0  0  0  0  0  0  0  0  0
   -2.3184   -1.7523    1.3757 H   0  0  0  0  0  0  0  0  0  0  0  0
    0.2021    1.0807    2.8111 H   0  0  0  0  0  0  0  0  0  0  0  0
   -1.3412    0.2620    3.3750 H   0  0  0  0  0  0  0  0  0  0  0  0
  1  3  1  0  0  0  0
  1 10  1  0  0  0  0
  2  1  1  0  0  0  0
  2  3  1  0  0  0  0
  2 13  1  0  0  0  0
  3  7  1  0  0  0  0
  4  5  1  0  0  0  0
  4  3  1  0  0  0  0
  5  6  1  0  0  0  0
  6 16  1  0  0  0  0
  6  7  1  0  0  0  0
  6 17  1  0  0  0  0
  7  9  1  1  0  0  0
  7  8  1  0  0  0  0
  8 18  1  0  0  0  0
  8 19  1  0  0  0  0
  9  8  1  0  0  0  0
 11  1  1  0  0  0  0
 12  2  1  0  0  0  0
 14  5  1  0  0  0  0
 15  5  1  0  0  0  0
M TOR 0 0 1 2 3
M TOR 1 0 1 2 6
M TOR 2 0 2 1 11
M TOR 3 0 2 1 12
M TOR 4 0 2 3 4
M TOR 5 0 2 6 5
M TOR 6 0 2 6 7
M TOR 7 0 2 6 8
M TOR 8 1 2 0 9
M TOR 9 1 2 0 10
M TOR 10 1 2 3 4
M TOR 11 1 2 6 5
M TOR 12 1 2 6 7
M TOR 13 1 2 6 8
M TOR 14 2 3 4 5
M TOR 15 2 3 4 13
M TOR 16 2 3 4 14
M TOR 17 2 6 5 4
M TOR 18 2 6 5 15
M TOR 19 2 6 5 16
M TOR 20 2 6 7 8
M TOR 21 2 6 7 17
M TOR 22 2 6 7 18
M TOR 23 3 2 0 9
M TOR 24 3 2 0 10
M TOR 25 3 2 1 11
M TOR 26 3 2 1 12
M TOR 27 3 2 6 5
M TOR 28 3 2 6 7
M TOR 29 3 2 6 8
M TOR 30 3 4 5 6
M TOR 31 3 4 5 15
M TOR 32 3 4 5 16
M TOR 33 4 3 2 6
M TOR 34 4 5 6 7
M TOR 35 4 5 6 8
M TOR 36 5 6 7 8
M TOR 37 5 6 7 17
M TOR 38 5 6 7 18
M TOR 39 6 2 0 9
M TOR 40 6 2 0 10
M TOR 41 6 2 1 11
M TOR 42 6 2 1 12
M TOR 43 6 5 4 13
M TOR 44 6 5 4 14
M TOR 45 6 8 7 17
M TOR 46 6 8 7 18
M TOR 47 7 6 5 15
M TOR 48 7 6 5 16
M TOR 49 8 6 5 15
M TOR 50 8 6 5 16
M  END
$$$$
