
     RDKit          3D

 19 20  0  0  0  0  0  0  0  0999 V2000
    1.1541    0.6445   -0.4043 C   0  0  0  0  0  0  0  0  0  0  0  0
   -0.1718    0.0550   -0.0402 C   0  0  0  0  0  0  0  0  0  0  0  0
   -1.3471    0.7004    0.0391 C   0  0  0  0  0  0  0  0  0  0  0  0
   -2.4846   -0.2198    0.3967 C   0  0  0  0  0  0  0  0  0  0  0  0
   -3.4250   -0.3950   -0.6786 O   0  0  0  0  0  0  0  0  0  0  0  0
   -1.7915   -1.5585    0.7015 C   0  0  0  0  0  0  0  0  0  0  0  0
   -2.5270   -2.7008    0.4298 O   0  0  0  0  0  0  0  0  0  0  0  0
   -0.7826   -1.6076    1.7928 C   0  0  0  0  0  0  0  0  0  0  0  0
   -0.3196   -1.3798    0.3468 C   0  0  0  0  0  0  0  0  0  0  0  0
    1.8697    0.5366    0.4201 H   0  0  0  0  0  0  0  0  0  0  0  0
    1.5910    0.1206   -1.2636 H   0  0  0  0  0  0  0  0  0  0  0  0
    1.0727    1.7054   -0.6551 H   0  0  0  0  0  0  0  0  0  0  0  0
   -1.4953    1.7602   -0.1356 H   0  0  0  0  0  0  0  0  0  0  0  0
   -3.0858    0.1295    1.2430 H   0  0  0  0  0  0  0  0  0  0  0  0
   -2.9227   -0.3106   -1.4977 H   0  0  0  0  0  0  0  0  0  0  0  0
   -3.1634   -2.4260   -0.2469 H   0  0  0  0  0  0  0  0  0  0  0  0
   -0.6933   -0.7855    2.4970 H   0  0  0  0  0  0  0  0  0  0  0  0
   -0.5998   -2.5944    2.2066 H   0  0  0  0  0  0  0  0  0  0  0  0
    0.2708   -2.1531   -0.1320 H   0  0  0  0  0  0  0  0  0  0  0  0
  1  2  1  0
  2  3  2  0
  3  4  1  0
  4  5  1  0
  4  6  1  0
  6  7  1  0
  6  8  1  0
  8  9  1  0
  9  2  1  0
  9  6  1  0
  1 10  1  0
  1 11  1  0
  1 12  1  0
  3 13  1  0
  4 14  1  0
  5 15  1  0
  7 16  1  0
  8 17  1  0
  8 18  1  0
  9 19  1  0
M  END
$$$$
