gdb 5231	2.587865	1.6883059	1.2743335	1.0334	75.08	-0.21102	0.07905	0.29007	1051.2145	0.155342	-422.479739	-422.471175	-422.470231	-422.512645	32.384
 OpenBabel02181911423D

 19 21  0  0  1  0  0  0  0  0999 V2000
    1.6387    0.1797   -0.0144 C   0  0  0  0  0  0  0  0  0  0  0  0
    0.2251    0.0485    0.0447 O   0  0  0  0  0  0  0  0  0  0  0  0
   -0.3402    0.7071    1.1074 C   0  0  2  0  0  0  0  0  0  0  0  0
   -0.4790    2.2160    1.3410 C   0  0  0  0  0  0  0  0  0  0  0  0
   -1.4948    1.7857    2.4319 C   0  0  2  0  0  0  0  0  0  0  0  0
   -0.6757    1.1371    3.4467 O   0  0  0  0  0  0  0  0  0  0  0  0
   -0.5126    0.0631    2.5107 C   0  0  2  0  0  0  0  0  0  0  0  0
    0.0591   -1.2374    2.9564 C   0  0  0  0  0  0  0  0  0  0  0  0
   -1.7150    0.4212    1.6851 C   0  0  2  0  0  0  0  0  0  0  0  0
    2.1178   -0.2081    0.8941 H   0  0  0  0  0  0  0  0  0  0  0  0
    1.9747   -0.4002   -0.8764 H   0  0  0  0  0  0  0  0  0  0  0  0
    1.9384    1.2277   -0.1495 H   0  0  0  0  0  0  0  0  0  0  0  0
    0.3807    2.8006    1.6826 H   0  0  0  0  0  0  0  0  0  0  0  0
   -0.9737    2.7000    0.4946 H   0  0  0  0  0  0  0  0  0  0  0  0
   -2.2472    2.4585    2.8361 H   0  0  0  0  0  0  0  0  0  0  0  0
    1.0522   -1.0927    3.3958 H   0  0  0  0  0  0  0  0  0  0  0  0
   -0.5780   -1.7164    3.7066 H   0  0  0  0  0  0  0  0  0  0  0  0
    0.1555   -1.9101    2.0993 H   0  0  0  0  0  0  0  0  0  0  0  0
   -2.5750   -0.1245    1.3222 H   0  0  0  0  0  0  0  0  0  0  0  0
  1  2  1  0  0  0  0
  1 10  1  0  0  0  0
  3  2  1  6  0  0  0
  3  4  1  0  0  0  0
  3  9  1  0  0  0  0
  3  7  1  0  0  0  0
  4 13  1  0  0  0  0
  4  5  1  0  0  0  0
  5 15  1  1  0  0  0
  5  6  1  0  0  0  0
  7  8  1  1  0  0  0
  7  6  1  0  0  0  0
  8 16  1  0  0  0  0
  8 17  1  0  0  0  0
  9 19  1  6  0  0  0
  9  5  1  0  0  0  0
  9  7  1  0  0  0  0
 11  1  1  0  0  0  0
 12  1  1  0  0  0  0
 14  4  1  0  0  0  0
 18  8  1  0  0  0  0
M TOR 0 0 1 2 3
M TOR 1 0 1 2 6
M TOR 2 0 1 2 8
M TOR 3 1 2 3 4
M TOR 4 1 2 3 12
M TOR 5 1 2 3 13
M TOR 6 1 2 6 5
M TOR 7 1 2 6 7
M TOR 8 1 2 6 8
M TOR 9 1 2 8 4
M TOR 10 1 2 8 18
M TOR 11 2 1 0 9
M TOR 12 2 1 0 10
M TOR 13 2 1 0 11
M TOR 14 2 3 4 5
M TOR 15 2 3 4 8
M TOR 16 2 3 4 14
M TOR 17 2 6 5 4
M TOR 18 2 6 7 15
M TOR 19 2 6 7 16
M TOR 20 2 6 7 17
M TOR 21 2 6 8 4
M TOR 22 2 6 8 18
M TOR 23 2 8 4 5
M TOR 24 2 8 4 14
M TOR 25 2 8 6 5
M TOR 26 2 8 6 7
M TOR 27 3 2 6 5
M TOR 28 3 2 6 7
M TOR 29 3 2 6 8
M TOR 30 3 2 8 18
M TOR 31 3 4 5 6
M TOR 32 3 4 8 6
M TOR 33 3 4 8 18
M TOR 34 4 3 2 6
M TOR 35 4 5 6 7
M TOR 36 4 5 6 8
M TOR 37 4 8 6 7
M TOR 38 5 4 3 12
M TOR 39 5 4 3 13
M TOR 40 5 4 8 18
M TOR 41 5 6 7 15
M TOR 42 5 6 7 16
M TOR 43 5 6 7 17
M TOR 44 5 6 8 18
M TOR 45 6 2 3 12
M TOR 46 6 2 3 13
M TOR 47 6 5 4 14
M TOR 48 6 8 4 14
M TOR 49 7 6 8 18
M TOR 50 8 2 3 12
M TOR 51 8 2 3 13
M TOR 52 8 4 3 12
M TOR 53 8 4 3 13
M TOR 54 8 6 7 15
M TOR 55 8 6 7 16
M TOR 56 8 6 7 17
M  END
$$$$
