
     RDKit          3D

 19 21  0  0  0  0  0  0  0  0999 V2000
    0.4851   -0.0210    0.3333 O   0  0  0  0  0  0  0  0  0  0  0  0
   -0.7796    0.4416    0.7289 C   0  0  0  0  0  0  0  0  0  0  0  0
   -1.2541    0.2233    2.1826 C   0  0  0  0  0  0  0  0  0  0  0  0
   -1.5770    1.6219    2.3181 O   0  0  0  0  0  0  0  0  0  0  0  0
   -0.9770    1.9390    1.0516 C   0  0  0  0  0  0  0  0  0  0  0  0
   -1.5869    3.0391    0.1567 C   0  0  0  0  0  0  0  0  0  0  0  0
   -1.0090    4.0651    1.1811 C   0  0  0  0  0  0  0  0  0  0  0  0
    0.1323    3.0251    0.9600 C   0  0  0  0  0  0  0  0  0  0  0  0
   -0.2030    3.0858   -0.5591 C   0  0  0  0  0  0  0  0  0  0  0  0
    1.1413    0.3432    0.9380 H   0  0  0  0  0  0  0  0  0  0  0  0
   -1.4842    0.0635   -0.0158 H   0  0  0  0  0  0  0  0  0  0  0  0
   -2.1271   -0.4187    2.3392 H   0  0  0  0  0  0  0  0  0  0  0  0
   -0.4484   -0.0870    2.8633 H   0  0  0  0  0  0  0  0  0  0  0  0
   -2.5753    3.0400   -0.3041 H   0  0  0  0  0  0  0  0  0  0  0  0
   -0.8169    5.0701    0.7959 H   0  0  0  0  0  0  0  0  0  0  0  0
   -1.4705    4.0862    2.1685 H   0  0  0  0  0  0  0  0  0  0  0  0
    1.1201    3.0201    1.4245 H   0  0  0  0  0  0  0  0  0  0  0  0
    0.0341    4.0293   -1.0557 H   0  0  0  0  0  0  0  0  0  0  0  0
    0.0845    2.2244   -1.1646 H   0  0  0  0  0  0  0  0  0  0  0  0
  1  2  1  0
  2  3  1  0
  3  4  1  0
  4  5  1  0
  5  6  1  0
  6  7  1  0
  7  8  1  0
  8  9  1  0
  5  2  1  0
  8  5  1  0
  9  6  1  0
  1 10  1  0
  2 11  1  0
  3 12  1  0
  3 13  1  0
  6 14  1  0
  7 15  1  0
  7 16  1  0
  8 17  1  0
  9 18  1  0
  9 19  1  0
M  END
$$$$
