
     RDKit          3D

 19 20  0  0  0  0  0  0  0  0999 V2000
   -0.7594    0.7003   -1.2429 O   0  0  0  0  0  0  0  0  0  0  0  0
    0.3310    1.2500   -0.5236 C   0  0  0  0  0  0  0  0  0  0  0  0
   -0.0974    1.9623    0.7535 C   0  0  0  0  0  0  0  0  0  0  0  0
    1.0919    2.4791    1.6195 C   0  0  0  0  0  0  0  0  0  0  0  0
    0.6776    1.5231    2.7812 C   0  0  0  0  0  0  0  0  0  0  0  0
   -0.5407    1.0218    1.9120 C   0  0  0  0  0  0  0  0  0  0  0  0
   -1.5394    1.6489    2.9230 C   0  0  0  0  0  0  0  0  0  0  0  0
   -0.3344    2.1631    3.7393 C   0  0  0  0  0  0  0  0  0  0  0  0
   -0.2292    2.7937    4.7505 O   0  0  0  0  0  0  0  0  0  0  0  0
   -1.1695    0.0268   -0.6909 H   0  0  0  0  0  0  0  0  0  0  0  0
    1.0845    0.4802   -0.2845 H   0  0  0  0  0  0  0  0  0  0  0  0
    0.8075    1.9659   -1.2027 H   0  0  0  0  0  0  0  0  0  0  0  0
   -0.8446    2.7189    0.4941 H   0  0  0  0  0  0  0  0  0  0  0  0
    2.0677    2.2228    1.1975 H   0  0  0  0  0  0  0  0  0  0  0  0
    1.0974    3.5435    1.8642 H   0  0  0  0  0  0  0  0  0  0  0  0
    1.4518    0.8929    3.2202 H   0  0  0  0  0  0  0  0  0  0  0  0
   -0.6952   -0.0327    1.6755 H   0  0  0  0  0  0  0  0  0  0  0  0
   -2.2368    2.4043    2.5487 H   0  0  0  0  0  0  0  0  0  0  0  0
   -2.1096    0.9095    3.4962 H   0  0  0  0  0  0  0  0  0  0  0  0
  1  2  1  0
  2  3  1  0
  3  4  1  0
  4  5  1  0
  5  6  1  0
  6  7  1  0
  7  8  1  0
  8  9  2  0
  6  3  1  0
  8  5  1  0
  1 10  1  0
  2 11  1  0
  2 12  1  0
  3 13  1  0
  4 14  1  0
  4 15  1  0
  5 16  1  0
  6 17  1  0
  7 18  1  0
  7 19  1  0
M  END
$$$$
