
     RDKit          3D

 19 20  0  0  0  0  0  0  0  0999 V2000
    1.3622   -0.6183   -1.0346 C   0  0  0  0  0  0  0  0  0  0  0  0
    1.2353    0.1341    0.3046 C   0  0  0  0  0  0  0  0  0  0  0  0
    1.8568   -0.6701    1.4245 C   0  0  0  0  0  0  0  0  0  0  0  0
    3.1070   -0.4870    1.8514 C   0  0  0  0  0  0  0  0  0  0  0  0
    3.9730    0.5533    1.2431 C   0  0  0  0  0  0  0  0  0  0  0  0
    3.8022    1.9191    1.7029 O   0  0  0  0  0  0  0  0  0  0  0  0
    3.3507    1.5720    0.3863 C   0  0  0  0  0  0  0  0  0  0  0  0
    1.8182    1.5659    0.2323 C   0  0  0  0  0  0  0  0  0  0  0  0
    1.2291    2.3985    1.2119 O   0  0  0  0  0  0  0  0  0  0  0  0
    0.9368   -1.6240   -0.9622 H   0  0  0  0  0  0  0  0  0  0  0  0
    0.8355   -0.0853   -1.8333 H   0  0  0  0  0  0  0  0  0  0  0  0
    2.4120   -0.7270   -1.3275 H   0  0  0  0  0  0  0  0  0  0  0  0
    0.1699    0.2657    0.5247 H   0  0  0  0  0  0  0  0  0  0  0  0
    1.2467   -1.4552    1.8654 H   0  0  0  0  0  0  0  0  0  0  0  0
    3.5281   -1.0970    2.6451 H   0  0  0  0  0  0  0  0  0  0  0  0
    5.0189    0.2941    1.0849 H   0  0  0  0  0  0  0  0  0  0  0  0
    3.9310    2.0281   -0.4132 H   0  0  0  0  0  0  0  0  0  0  0  0
    1.5617    1.9919   -0.7453 H   0  0  0  0  0  0  0  0  0  0  0  0
    1.8520    2.4145    1.9523 H   0  0  0  0  0  0  0  0  0  0  0  0
  1  2  1  0
  2  3  1  0
  3  4  2  0
  4  5  1  0
  5  6  1  0
  6  7  1  0
  7  8  1  0
  8  9  1  0
  8  2  1  0
  7  5  1  0
  1 10  1  0
  1 11  1  0
  1 12  1  0
  2 13  1  0
  3 14  1  0
  4 15  1  0
  5 16  1  0
  7 17  1  0
  8 18  1  0
  9 19  1  0
M  END
$$$$
