
     RDKit          3D

 19 21  0  0  0  0  0  0  0  0999 V2000
    1.6557    1.0290   -2.2427 C   0  0  0  0  0  0  0  0  0  0  0  0
    1.1241    0.2389   -1.0670 C   0  0  0  0  0  0  0  0  0  0  0  0
    2.0682   -0.6992   -0.3390 C   0  0  0  0  0  0  0  0  0  0  0  0
    3.2429    0.0632   -0.0411 O   0  0  0  0  0  0  0  0  0  0  0  0
    2.9223    1.4445   -0.0295 C   0  0  0  0  0  0  0  0  0  0  0  0
    2.4308    2.0384    1.3039 C   0  0  0  0  0  0  0  0  0  0  0  0
    1.5765    3.1178    0.9394 O   0  0  0  0  0  0  0  0  0  0  0  0
    0.9439    2.8359   -0.3169 C   0  0  0  0  0  0  0  0  0  0  0  0
    1.6715    1.6333   -0.8743 C   0  0  0  0  0  0  0  0  0  0  0  0
    2.6067    0.7384   -2.6813 H   0  0  0  0  0  0  0  0  0  0  0  0
    0.9248    1.3967   -2.9558 H   0  0  0  0  0  0  0  0  0  0  0  0
    0.0583    0.0473   -1.0094 H   0  0  0  0  0  0  0  0  0  0  0  0
    1.5912   -1.0677    0.5819 H   0  0  0  0  0  0  0  0  0  0  0  0
    2.3891   -1.5686   -0.9239 H   0  0  0  0  0  0  0  0  0  0  0  0
    3.8048    1.9795   -0.3972 H   0  0  0  0  0  0  0  0  0  0  0  0
    1.8920    1.2666    1.8771 H   0  0  0  0  0  0  0  0  0  0  0  0
    3.2284    2.4431    1.9319 H   0  0  0  0  0  0  0  0  0  0  0  0
   -0.1290    2.6453   -0.1713 H   0  0  0  0  0  0  0  0  0  0  0  0
    1.0466    3.7254   -0.9508 H   0  0  0  0  0  0  0  0  0  0  0  0
  1  2  1  0
  2  3  1  0
  3  4  1  0
  4  5  1  0
  5  6  1  0
  6  7  1  0
  7  8  1  0
  8  9  1  0
  9  1  1  0
  9  2  1  0
  9  5  1  0
  1 10  1  0
  1 11  1  0
  2 12  1  0
  3 13  1  0
  3 14  1  0
  5 15  1  0
  6 16  1  0
  6 17  1  0
  8 18  1  0
  8 19  1  0
M  END
$$$$
