
     RDKit          3D

 19 21  0  0  0  0  0  0  0  0999 V2000
    1.4079   -0.0846   -0.0866 C   0  0  0  0  0  0  0  0  0  0  0  0
    0.0277   -0.1009    0.2347 O   0  0  0  0  0  0  0  0  0  0  0  0
   -0.3365    0.7243    1.2865 C   0  0  0  0  0  0  0  0  0  0  0  0
    0.0447    0.3836    2.7321 C   0  0  0  0  0  0  0  0  0  0  0  0
   -0.0210    1.7494    3.4684 C   0  0  0  0  0  0  0  0  0  0  0  0
   -0.8365    2.6178    2.5127 C   0  0  0  0  0  0  0  0  0  0  0  0
   -2.1405    1.9635    2.3183 O   0  0  0  0  0  0  0  0  0  0  0  0
   -1.6603    1.4297    1.0869 C   0  0  0  0  0  0  0  0  0  0  0  0
   -0.3979    2.2391    1.0830 C   0  0  0  0  0  0  0  0  0  0  0  0
    2.0269   -0.4774    0.7314 H   0  0  0  0  0  0  0  0  0  0  0  0
    1.5348   -0.7268   -0.9609 H   0  0  0  0  0  0  0  0  0  0  0  0
    1.7544    0.9291   -0.3301 H   0  0  0  0  0  0  0  0  0  0  0  0
   -0.6550   -0.3396    3.1598 H   0  0  0  0  0  0  0  0  0  0  0  0
    1.0440   -0.0581    2.7781 H   0  0  0  0  0  0  0  0  0  0  0  0
   -0.4939    1.6807    4.4516 H   0  0  0  0  0  0  0  0  0  0  0  0
    0.9777    2.1822    3.5997 H   0  0  0  0  0  0  0  0  0  0  0  0
   -0.9544    3.6689    2.7816 H   0  0  0  0  0  0  0  0  0  0  0  0
   -2.3690    1.1688    0.3096 H   0  0  0  0  0  0  0  0  0  0  0  0
    0.0930    2.8322    0.3245 H   0  0  0  0  0  0  0  0  0  0  0  0
  1  2  1  0
  2  3  1  0
  3  4  1  0
  4  5  1  0
  5  6  1  0
  6  7  1  0
  7  8  1  0
  8  9  1  0
  8  3  1  0
  9  3  1  0
  9  6  1  0
  1 10  1  0
  1 11  1  0
  1 12  1  0
  4 13  1  0
  4 14  1  0
  5 15  1  0
  5 16  1  0
  6 17  1  0
  8 18  1  0
  9 19  1  0
M  END
$$$$
