
     RDKit          3D

 19 21  0  0  0  0  0  0  0  0999 V2000
    1.3383    0.6854   -0.0709 O   0  0  0  0  0  0  0  0  0  0  0  0
    0.2702   -0.1015    0.4419 C   0  0  0  0  0  0  0  0  0  0  0  0
   -0.8883    0.7275    0.9086 C   0  0  0  0  0  0  0  0  0  0  0  0
   -1.8428    1.5207    0.0077 C   0  0  0  0  0  0  0  0  0  0  0  0
   -2.9093    1.4231    1.1462 C   0  0  0  0  0  0  0  0  0  0  0  0
   -2.9018    2.5722    1.9792 O   0  0  0  0  0  0  0  0  0  0  0  0
   -1.5920    2.6548    2.5514 C   0  0  0  0  0  0  0  0  0  0  0  0
   -0.9675    1.2800    2.3332 C   0  0  0  0  0  0  0  0  0  0  0  0
   -2.0344    0.3486    1.8406 C   0  0  0  0  0  0  0  0  0  0  0  0
    1.5926    1.3071    0.6192 H   0  0  0  0  0  0  0  0  0  0  0  0
   -0.0369   -0.7477   -0.3885 H   0  0  0  0  0  0  0  0  0  0  0  0
    0.6103   -0.7605    1.2583 H   0  0  0  0  0  0  0  0  0  0  0  0
   -1.5604    2.5292   -0.3094 H   0  0  0  0  0  0  0  0  0  0  0  0
   -2.1291    0.9330   -0.8699 H   0  0  0  0  0  0  0  0  0  0  0  0
   -3.9388    1.2011    0.8703 H   0  0  0  0  0  0  0  0  0  0  0  0
   -1.0190    3.4620    2.0741 H   0  0  0  0  0  0  0  0  0  0  0  0
   -1.6893    2.8911    3.6175 H   0  0  0  0  0  0  0  0  0  0  0  0
   -0.2330    0.9114    3.0410 H   0  0  0  0  0  0  0  0  0  0  0  0
   -2.3192   -0.5949    2.2862 H   0  0  0  0  0  0  0  0  0  0  0  0
  1  2  1  0
  2  3  1  0
  3  4  1  0
  4  5  1  0
  5  6  1  0
  6  7  1  0
  7  8  1  0
  8  9  1  0
  8  3  1  0
  9  3  1  0
  9  5  1  0
  1 10  1  0
  2 11  1  0
  2 12  1  0
  4 13  1  0
  4 14  1  0
  5 15  1  0
  7 16  1  0
  7 17  1  0
  8 18  1  0
  9 19  1  0
M  END
$$$$
