gdb 350	2.2471061	1.9357899	1.2940379	2.2107	77.35	-0.24022	0.00134	0.24156	1023.5223	0.158756	-422.523148	-422.515472	-422.514528	-422.554979	30.139
 OpenBabel02181911403D

 19 20  0  0  1  0  0  0  0  0999 V2000
   -0.4812    1.4466   -0.0463 C   0  0  0  0  0  0  0  0  0  0  0  0
    0.6506    2.5000   -0.0754 C   0  0  0  0  0  0  0  0  0  0  0  0
    1.2002    2.8568    1.2827 C   0  0  0  0  0  0  0  0  0  0  0  0
    2.0919    2.1836    2.0159 C   0  0  0  0  0  0  0  0  0  0  0  0
    2.7512    0.8983    1.7042 C   0  0  2  0  0  0  0  0  0  0  0  0
    2.6958    0.3718    0.3750 O   0  0  0  0  0  0  0  0  0  0  0  0
    1.9757   -0.3293    1.3780 C   0  0  2  0  0  0  0  0  0  0  0  0
    0.4448   -0.3417    1.2819 C   0  0  0  0  0  0  0  0  0  0  0  0
   -0.0528    0.1028    0.0407 O   0  0  0  0  0  0  0  0  0  0  0  0
   -1.1864    1.6765    0.7686 H   0  0  0  0  0  0  0  0  0  0  0  0
   -1.0321    1.4982   -0.9908 H   0  0  0  0  0  0  0  0  0  0  0  0
    1.4340    2.1223   -0.7342 H   0  0  0  0  0  0  0  0  0  0  0  0
    0.2351    3.4050   -0.5335 H   0  0  0  0  0  0  0  0  0  0  0  0
    0.7978    3.7667    1.7241 H   0  0  0  0  0  0  0  0  0  0  0  0
    2.3685    2.5857    2.9887 H   0  0  0  0  0  0  0  0  0  0  0  0
    3.7165    0.7497    2.1906 H   0  0  0  0  0  0  0  0  0  0  0  0
    2.4244   -1.2857    1.6528 H   0  0  0  0  0  0  0  0  0  0  0  0
    0.1118   -1.3798    1.3969 H   0  0  0  0  0  0  0  0  0  0  0  0
    0.0119    0.2402    2.1087 H   0  0  0  0  0  0  0  0  0  0  0  0
  1  9  1  0  0  0  0
  1 10  1  0  0  0  0
  2  1  1  0  0  0  0
  2  3  1  0  0  0  0
  3 14  1  0  0  0  0
  3  4  2  0  0  0  0
  4 15  1  0  0  0  0
  5  4  1  0  0  0  0
  5 16  1  1  0  0  0
  6  7  1  0  0  0  0
  6  5  1  0  0  0  0
  7 17  1  1  0  0  0
  7  5  1  0  0  0  0
  8  7  1  0  0  0  0
  8 18  1  0  0  0  0
  8 19  1  0  0  0  0
  9  8  1  0  0  0  0
 11  1  1  0  0  0  0
 12  2  1  0  0  0  0
 13  2  1  0  0  0  0
M TOR 0 0 1 2 3
M TOR 1 0 1 2 13
M TOR 2 0 8 7 6
M TOR 3 0 8 7 17
M TOR 4 0 8 7 18
M TOR 5 1 0 8 7
M TOR 6 1 2 3 4
M TOR 7 1 2 3 14
M TOR 8 2 1 0 8
M TOR 9 2 1 0 9
M TOR 10 2 1 0 10
M TOR 11 2 3 4 5
M TOR 12 2 3 4 6
M TOR 13 2 3 4 15
M TOR 14 3 2 1 11
M TOR 15 3 2 1 12
M TOR 16 3 4 5 6
M TOR 17 3 4 6 7
M TOR 18 3 4 6 16
M TOR 19 4 3 2 13
M TOR 20 4 5 6 7
M TOR 21 4 5 6 16
M TOR 22 4 6 7 8
M TOR 23 4 6 7 17
M TOR 24 4 6 7 18
M TOR 25 5 4 3 14
M TOR 26 5 6 4 15
M TOR 27 5 6 7 8
M TOR 28 5 6 7 17
M TOR 29 5 6 7 18
M TOR 30 6 4 3 14
M TOR 31 7 6 4 15
M TOR 32 7 8 0 9
M TOR 33 7 8 0 10
M TOR 34 8 0 1 11
M TOR 35 8 0 1 12
M TOR 36 8 7 6 16
M  END
$$$$
