gdb 671	2.4973432	1.654392	1.6184731	2.3195	73.52	-0.23721	-0.01549	0.22172	962.2903	0.159869	-422.598014	-422.590588	-422.589643	-422.63012	29.026
 OpenBabel02181911403D

 19 20  0  0  1  0  0  0  0  0999 V2000
    1.2972    0.0653   -0.1968 O   0  0  0  0  0  0  0  0  0  0  0  0
    0.0974    0.0335   -0.0770 C   0  0  0  0  0  0  0  0  0  0  0  0
   -0.7166   -1.2474    0.1141 C   0  0  0  0  0  0  0  0  0  0  0  0
   -2.1940   -0.8583    0.2705 C   0  0  1  0  0  0  0  0  0  0  0  0
   -2.3808    0.0547    1.4915 C   0  0  0  0  0  0  0  0  0  0  0  0
   -1.5127    1.3302    1.2923 C   0  0  0  0  0  0  0  0  0  0  0  0
   -0.8129    1.2537   -0.0867 C   0  0  2  0  0  0  0  0  0  0  0  0
   -1.8944    1.0271   -1.1595 C   0  0  0  0  0  0  0  0  0  0  0  0
   -2.6260   -0.1774   -0.9103 O   0  0  0  0  0  0  0  0  0  0  0  0
   -0.5755   -1.8886   -0.7628 H   0  0  0  0  0  0  0  0  0  0  0  0
   -0.3371   -1.7976    0.9826 H   0  0  0  0  0  0  0  0  0  0  0  0
   -2.8302   -1.7440    0.3396 H   0  0  0  0  0  0  0  0  0  0  0  0
   -3.4399    0.3105    1.5802 H   0  0  0  0  0  0  0  0  0  0  0  0
   -2.0998   -0.4816    2.4038 H   0  0  0  0  0  0  0  0  0  0  0  0
   -2.1326    2.2318    1.3206 H   0  0  0  0  0  0  0  0  0  0  0  0
   -0.7665    1.4348    2.0852 H   0  0  0  0  0  0  0  0  0  0  0  0
   -0.2308    2.1518   -0.3027 H   0  0  0  0  0  0  0  0  0  0  0  0
   -2.5935    1.8756   -1.1588 H   0  0  0  0  0  0  0  0  0  0  0  0
   -1.4485    0.9642   -2.1608 H   0  0  0  0  0  0  0  0  0  0  0  0
  1  2  2  0  0  0  0
  2  3  1  0  0  0  0
  3  4  1  0  0  0  0
  3 11  1  0  0  0  0
  4 12  1  1  0  0  0
  4  5  1  0  0  0  0
  5 13  1  0  0  0  0
  5 14  1  0  0  0  0
  6 15  1  0  0  0  0
  6  5  1  0  0  0  0
  6 16  1  0  0  0  0
  7 17  1  6  0  0  0
  7  2  1  0  0  0  0
  7  6  1  0  0  0  0
  8 18  1  0  0  0  0
  8  9  1  0  0  0  0
  8  7  1  0  0  0  0
  9  4  1  0  0  0  0
 10  3  1  0  0  0  0
 19  8  1  0  0  0  0
M TOR 0 0 1 2 3
M TOR 1 0 1 2 9
M TOR 2 0 1 2 10
M TOR 3 0 1 6 5
M TOR 4 0 1 6 7
M TOR 5 0 1 6 16
M TOR 6 1 2 3 4
M TOR 7 1 2 3 8
M TOR 8 1 2 3 11
M TOR 9 1 6 5 4
M TOR 10 1 6 5 14
M TOR 11 1 6 5 15
M TOR 12 1 6 7 8
M TOR 13 1 6 7 17
M TOR 14 1 6 7 18
M TOR 15 2 1 6 5
M TOR 16 2 1 6 7
M TOR 17 2 1 6 16
M TOR 18 2 3 4 5
M TOR 19 2 3 4 12
M TOR 20 2 3 4 13
M TOR 21 2 3 8 7
M TOR 22 3 2 1 6
M TOR 23 3 4 5 6
M TOR 24 3 4 5 14
M TOR 25 3 4 5 15
M TOR 26 3 8 7 6
M TOR 27 3 8 7 17
M TOR 28 3 8 7 18
M TOR 29 4 3 2 9
M TOR 30 4 3 2 10
M TOR 31 4 3 8 7
M TOR 32 4 5 6 7
M TOR 33 4 5 6 16
M TOR 34 5 4 3 8
M TOR 35 5 4 3 11
M TOR 36 5 6 7 8
M TOR 37 5 6 7 17
M TOR 38 5 6 7 18
M TOR 39 6 1 2 9
M TOR 40 6 1 2 10
M TOR 41 6 5 4 12
M TOR 42 6 5 4 13
M TOR 43 7 6 5 14
M TOR 44 7 6 5 15
M TOR 45 7 8 3 11
M TOR 46 8 3 2 9
M TOR 47 8 3 2 10
M TOR 48 8 3 4 12
M TOR 49 8 3 4 13
M TOR 50 8 7 6 16
M  END
$$$$
