
     RDKit          3D

 19 21  0  0  0  0  0  0  0  0999 V2000
    1.2292    2.9372    0.9746 C   0  0  0  0  0  0  0  0  0  0  0  0
    1.3454    2.9577   -0.4617 O   0  0  0  0  0  0  0  0  0  0  0  0
    0.7476    1.7575   -0.9336 C   0  0  0  0  0  0  0  0  0  0  0  0
    1.6423    0.5043   -0.7509 C   0  0  0  0  0  0  0  0  0  0  0  0
    1.9964    0.5998    0.7567 C   0  0  0  0  0  0  0  0  0  0  0  0
    0.8253    1.4919    1.2714 C   0  0  0  0  0  0  0  0  0  0  0  0
   -0.2397    1.2813    0.1537 C   0  0  0  0  0  0  0  0  0  0  0  0
   -0.4655   -0.1869   -0.2090 C   0  0  0  0  0  0  0  0  0  0  0  0
    0.7217   -0.5703   -0.9339 O   0  0  0  0  0  0  0  0  0  0  0  0
    2.1926    3.2142    1.4161 H   0  0  0  0  0  0  0  0  0  0  0  0
    0.4729    3.6673    1.2977 H   0  0  0  0  0  0  0  0  0  0  0  0
    0.3696    1.9059   -1.9451 H   0  0  0  0  0  0  0  0  0  0  0  0
    2.4769    0.3680   -1.4378 H   0  0  0  0  0  0  0  0  0  0  0  0
    2.0039   -0.4017    1.1930 H   0  0  0  0  0  0  0  0  0  0  0  0
    2.9698    1.0623    0.9413 H   0  0  0  0  0  0  0  0  0  0  0  0
    0.5051    1.3071    2.2975 H   0  0  0  0  0  0  0  0  0  0  0  0
   -1.1490    1.8709    0.2773 H   0  0  0  0  0  0  0  0  0  0  0  0
   -0.5974   -0.8292    0.6728 H   0  0  0  0  0  0  0  0  0  0  0  0
   -1.3351   -0.3246   -0.8617 H   0  0  0  0  0  0  0  0  0  0  0  0
  1  2  1  0
  2  3  1  0
  3  4  1  0
  4  5  1  0
  5  6  1  0
  6  7  1  0
  7  8  1  0
  8  9  1  0
  6  1  1  0
  7  3  1  0
  9  4  1  0
  1 10  1  0
  1 11  1  0
  3 12  1  0
  4 13  1  0
  5 14  1  0
  5 15  1  0
  6 16  1  0
  7 17  1  0
  8 18  1  0
  8 19  1  0
M  END
$$$$
