gdb 5535	3.9861855	1.0315353	0.9509355	0.252	76.12	-0.2589	0.06927	0.32817	1271.5314	0.156983	-422.473759	-422.465558	-422.464614	-422.506611	31.533
 OpenBabel02181911423D

 19 21  0  0  1  0  0  0  0  0999 V2000
    1.5847    0.1778   -0.5782 O   0  0  0  0  0  0  0  0  0  0  0  0
    0.5460   -0.1996    0.3175 C   0  0  0  0  0  0  0  0  0  0  0  0
   -0.0589    1.0102    1.0116 C   0  0  1  0  0  0  0  0  0  0  0  0
   -1.0804    1.9488    0.2699 C   0  0  1  0  0  0  0  0  0  0  0  0
   -2.1749    0.8525    0.4850 C   0  0  0  0  0  0  0  0  0  0  0  0
   -1.3874    0.9026    1.8375 C   0  0  2  0  0  0  0  0  0  0  0  0
   -1.4570    2.4292    1.6792 C   0  0  1  0  0  0  0  0  0  0  0  0
   -1.1707    3.5874    2.5084 C   0  0  0  0  0  0  0  0  0  0  0  0
   -2.5116    3.2790    2.0382 O   0  0  0  0  0  0  0  0  0  0  0  0
    1.1899    0.7204   -1.2684 H   0  0  0  0  0  0  0  0  0  0  0  0
   -0.2095   -0.8134   -0.1906 H   0  0  0  0  0  0  0  0  0  0  0  0
    1.0261   -0.8397    1.0660 H   0  0  0  0  0  0  0  0  0  0  0  0
    0.7433    1.5551    1.5215 H   0  0  0  0  0  0  0  0  0  0  0  0
   -0.9099    2.5603   -0.6171 H   0  0  0  0  0  0  0  0  0  0  0  0
   -3.2060    1.2082    0.5187 H   0  0  0  0  0  0  0  0  0  0  0  0
   -2.0929   -0.0590   -0.1063 H   0  0  0  0  0  0  0  0  0  0  0  0
   -1.5646    0.3129    2.7370 H   0  0  0  0  0  0  0  0  0  0  0  0
   -1.0263    3.4748    3.5818 H   0  0  0  0  0  0  0  0  0  0  0  0
   -0.7287    4.4824    2.0732 H   0  0  0  0  0  0  0  0  0  0  0  0
  1  2  1  0  0  0  0
  2  3  1  0  0  0  0
  2 12  1  0  0  0  0
  3 13  1  1  0  0  0
  3  6  1  0  0  0  0
  4 14  1  6  0  0  0
  4  5  1  0  0  0  0
  4  3  1  0  0  0  0
  4  7  1  0  0  0  0
  5 15  1  0  0  0  0
  5  6  1  0  0  0  0
  6 17  1  1  0  0  0
  7  6  1  0  0  0  0
  7  9  1  6  0  0  0
  7  8  1  0  0  0  0
  8 18  1  0  0  0  0
  9  8  1  0  0  0  0
 10  1  1  0  0  0  0
 11  2  1  0  0  0  0
 16  5  1  0  0  0  0
 19  8  1  0  0  0  0
M TOR 0 0 1 2 3
M TOR 1 0 1 2 5
M TOR 2 0 1 2 12
M TOR 3 1 2 3 4
M TOR 4 1 2 3 6
M TOR 5 1 2 3 13
M TOR 6 1 2 5 4
M TOR 7 1 2 5 6
M TOR 8 1 2 5 16
M TOR 9 2 1 0 9
M TOR 10 2 3 4 5
M TOR 11 2 3 4 14
M TOR 12 2 3 4 15
M TOR 13 2 3 6 5
M TOR 14 2 3 6 7
M TOR 15 2 3 6 8
M TOR 16 2 5 4 14
M TOR 17 2 5 4 15
M TOR 18 2 5 6 7
M TOR 19 2 5 6 8
M TOR 20 3 2 1 10
M TOR 21 3 2 1 11
M TOR 22 3 2 5 16
M TOR 23 3 4 5 6
M TOR 24 3 4 5 16
M TOR 25 3 6 5 16
M TOR 26 3 6 7 8
M TOR 27 3 6 7 17
M TOR 28 3 6 7 18
M TOR 29 4 3 2 12
M TOR 30 4 3 6 7
M TOR 31 4 3 6 8
M TOR 32 4 5 2 12
M TOR 33 4 5 6 7
M TOR 34 4 5 6 8
M TOR 35 5 2 1 10
M TOR 36 5 2 1 11
M TOR 37 5 2 3 13
M TOR 38 5 4 3 13
M TOR 39 5 6 3 13
M TOR 40 5 6 7 8
M TOR 41 5 6 7 17
M TOR 42 5 6 7 18
M TOR 43 6 3 2 12
M TOR 44 6 3 4 14
M TOR 45 6 3 4 15
M TOR 46 6 5 2 12
M TOR 47 6 5 4 14
M TOR 48 6 5 4 15
M TOR 49 6 8 7 17
M TOR 50 6 8 7 18
M TOR 51 7 6 3 13
M TOR 52 7 6 5 16
M TOR 53 8 6 3 13
M TOR 54 8 6 5 16
M  END
$$$$
