
     RDKit          3D

 19 20  0  0  0  0  0  0  0  0999 V2000
    4.0675    1.9139   -1.8570 C   0  0  0  0  0  0  0  0  0  0  0  0
    3.5778    0.4866   -1.6910 C   0  0  0  0  0  0  0  0  0  0  0  0
    4.1161   -0.4438   -2.2486 O   0  0  0  0  0  0  0  0  0  0  0  0
    2.3644    0.2910   -0.7909 C   0  0  0  0  0  0  0  0  0  0  0  0
    2.0598   -1.1671   -0.5138 C   0  0  0  0  0  0  0  0  0  0  0  0
    0.6278   -1.5533   -0.0467 C   0  0  0  0  0  0  0  0  0  0  0  0
    0.8641   -2.9972   -0.5461 C   0  0  0  0  0  0  0  0  0  0  0  0
    1.3529   -1.9979   -1.6192 C   0  0  0  0  0  0  0  0  0  0  0  0
    0.1130   -1.2061   -1.3939 O   0  0  0  0  0  0  0  0  0  0  0  0
    3.2452    2.5739   -2.1539 H   0  0  0  0  0  0  0  0  0  0  0  0
    4.4475    2.2919   -0.9006 H   0  0  0  0  0  0  0  0  0  0  0  0
    4.8630    1.9508   -2.6022 H   0  0  0  0  0  0  0  0  0  0  0  0
    2.5204    0.8510    0.1410 H   0  0  0  0  0  0  0  0  0  0  0  0
    1.4980    0.7535   -1.2806 H   0  0  0  0  0  0  0  0  0  0  0  0
    2.8811   -1.6786   -0.0048 H   0  0  0  0  0  0  0  0  0  0  0  0
    0.0569   -1.1988    0.8129 H   0  0  0  0  0  0  0  0  0  0  0  0
    1.6092   -3.6091   -0.0317 H   0  0  0  0  0  0  0  0  0  0  0  0
   -0.0411   -3.5460   -0.8062 H   0  0  0  0  0  0  0  0  0  0  0  0
    1.6616   -2.1715   -2.6486 H   0  0  0  0  0  0  0  0  0  0  0  0
  1  2  1  0
  2  3  2  0
  2  4  1  0
  4  5  1  0
  5  6  1  0
  6  7  1  0
  7  8  1  0
  8  9  1  0
  8  5  1  0
  9  6  1  0
  1 10  1  0
  1 11  1  0
  1 12  1  0
  4 13  1  0
  4 14  1  0
  5 15  1  0
  6 16  1  0
  7 17  1  0
  7 18  1  0
  8 19  1  0
M  END
$$$$
