
     RDKit          3D

 19 20  0  0  0  0  0  0  0  0999 V2000
   -3.4209   -0.0536   -0.7297 C   0  0  0  0  0  0  0  0  0  0  0  0
   -1.8934   -0.0529   -0.8333 C   0  0  0  0  0  0  0  0  0  0  0  0
   -1.4952   -0.0969   -2.3108 C   0  0  0  0  0  0  0  0  0  0  0  0
   -1.0766    0.9574    0.0692 C   0  0  0  0  0  0  0  0  0  0  0  0
   -1.4006    0.0129    1.2868 C   0  0  0  0  0  0  0  0  0  0  0  0
   -0.6286    0.0501    2.4472 O   0  0  0  0  0  0  0  0  0  0  0  0
   -1.0716   -1.0023    0.1288 C   0  0  0  0  0  0  0  0  0  0  0  0
    0.0917   -0.0260   -0.1136 C   0  0  0  0  0  0  0  0  0  0  0  0
    1.2803   -0.0266   -0.2301 O   0  0  0  0  0  0  0  0  0  0  0  0
   -3.8158   -0.0242    0.2861 H   0  0  0  0  0  0  0  0  0  0  0  0
   -3.8279    0.8112   -1.2648 H   0  0  0  0  0  0  0  0  0  0  0  0
   -3.8236   -0.9507   -1.2121 H   0  0  0  0  0  0  0  0  0  0  0  0
   -1.8980   -0.9957   -2.7906 H   0  0  0  0  0  0  0  0  0  0  0  0
   -1.9029    0.7687   -2.8444 H   0  0  0  0  0  0  0  0  0  0  0  0
   -0.4111   -0.0983   -2.4555 H   0  0  0  0  0  0  0  0  0  0  0  0
   -1.0827    2.0455    0.0407 H   0  0  0  0  0  0  0  0  0  0  0  0
   -2.4362    0.0202    1.6124 H   0  0  0  0  0  0  0  0  0  0  0  0
    0.3096    0.0449    2.2201 H   0  0  0  0  0  0  0  0  0  0  0  0
   -1.0724   -2.0902    0.1666 H   0  0  0  0  0  0  0  0  0  0  0  0
  1  2  1  0
  2  3  1  0
  2  4  1  0
  4  5  1  0
  5  6  1  0
  5  7  1  0
  7  8  1  0
  8  9  2  0
  7  2  1  0
  8  4  1  0
  1 10  1  0
  1 11  1  0
  1 12  1  0
  3 13  1  0
  3 14  1  0
  3 15  1  0
  4 16  1  0
  5 17  1  0
  6 18  1  0
  7 19  1  0
M  END
$$$$
