gdb 2488	2.3352801	1.6746553	1.4405394	4.135	74.03	-0.26376	0.01529	0.27905	1022.0736	0.158348	-422.614564	-422.606522	-422.605578	-422.646868	30.829
 OpenBabel02181911413D

 19 20  0  0  1  0  0  0  0  0999 V2000
   -0.8921    1.9467    1.2509 C   0  0  0  0  0  0  0  0  0  0  0  0
   -1.0205    1.0868    0.0037 C   0  0  2  0  0  0  0  0  0  0  0  0
   -1.2262    1.8559   -1.3194 C   0  0  0  0  0  0  0  0  0  0  0  0
   -1.9252    0.8579   -2.2653 C   0  0  0  0  0  0  0  0  0  0  0  0
   -2.8378    0.0363   -1.3304 C   0  0  0  0  0  0  0  0  0  0  0  0
   -2.0325   -0.0943   -0.0468 C   0  0  1  0  0  0  0  0  0  0  0  0
   -0.9139   -1.0447   -0.1911 O   0  0  0  0  0  0  0  0  0  0  0  0
    0.0155   -0.0386   -0.1260 C   0  0  0  0  0  0  0  0  0  0  0  0
    1.2006   -0.1396   -0.1649 O   0  0  0  0  0  0  0  0  0  0  0  0
   -0.7997    1.3375    2.1553 H   0  0  0  0  0  0  0  0  0  0  0  0
   -0.0020    2.5801    1.1853 H   0  0  0  0  0  0  0  0  0  0  0  0
   -1.7642    2.5992    1.3646 H   0  0  0  0  0  0  0  0  0  0  0  0
   -1.8790    2.7155   -1.1230 H   0  0  0  0  0  0  0  0  0  0  0  0
   -0.2852    2.2439   -1.7189 H   0  0  0  0  0  0  0  0  0  0  0  0
   -2.4764    1.3528   -3.0681 H   0  0  0  0  0  0  0  0  0  0  0  0
   -1.1867    0.2010   -2.7359 H   0  0  0  0  0  0  0  0  0  0  0  0
   -3.7570    0.5920   -1.1070 H   0  0  0  0  0  0  0  0  0  0  0  0
   -3.1282   -0.9357   -1.7376 H   0  0  0  0  0  0  0  0  0  0  0  0
   -2.6011   -0.3329    0.8531 H   0  0  0  0  0  0  0  0  0  0  0  0
  1 12  1  0  0  0  0
  1 10  1  0  0  0  0
  2  1  1  1  0  0  0
  3 13  1  0  0  0  0
  3  2  1  0  0  0  0
  4  5  1  0  0  0  0
  4  3  1  0  0  0  0
  5 17  1  0  0  0  0
  5  6  1  0  0  0  0
  6  2  1  0  0  0  0
  6 19  1  1  0  0  0
  7  8  1  0  0  0  0
  7  6  1  0  0  0  0
  8  2  1  0  0  0  0
  9  8  2  0  0  0  0
 11  1  1  0  0  0  0
 14  3  1  0  0  0  0
 15  4  1  0  0  0  0
 16  4  1  0  0  0  0
 18  5  1  0  0  0  0
M TOR 0 0 1 2 3
M TOR 1 0 1 2 12
M TOR 2 0 1 2 13
M TOR 3 0 1 5 4
M TOR 4 0 1 5 6
M TOR 5 0 1 5 18
M TOR 6 0 1 7 6
M TOR 7 0 1 7 8
M TOR 8 1 2 3 4
M TOR 9 1 2 3 14
M TOR 10 1 2 3 15
M TOR 11 1 5 4 3
M TOR 12 1 5 4 16
M TOR 13 1 5 4 17
M TOR 14 1 5 6 7
M TOR 15 2 1 0 9
M TOR 16 2 1 0 10
M TOR 17 2 1 0 11
M TOR 18 2 1 5 4
M TOR 19 2 1 5 6
M TOR 20 2 1 5 18
M TOR 21 2 1 7 6
M TOR 22 2 1 7 8
M TOR 23 2 3 4 5
M TOR 24 2 3 4 16
M TOR 25 2 3 4 17
M TOR 26 3 2 1 5
M TOR 27 3 2 1 7
M TOR 28 3 4 5 6
M TOR 29 3 4 5 18
M TOR 30 4 3 2 12
M TOR 31 4 3 2 13
M TOR 32 4 5 1 7
M TOR 33 4 5 6 7
M TOR 34 5 1 0 9
M TOR 35 5 1 0 10
M TOR 36 5 1 0 11
M TOR 37 5 1 2 12
M TOR 38 5 1 2 13
M TOR 39 5 1 7 8
M TOR 40 5 4 3 14
M TOR 41 5 4 3 15
M TOR 42 5 6 7 8
M TOR 43 6 5 4 16
M TOR 44 6 5 4 17
M TOR 45 7 1 0 9
M TOR 46 7 1 0 10
M TOR 47 7 1 0 11
M TOR 48 7 1 2 12
M TOR 49 7 1 2 13
M TOR 50 7 1 5 18
M TOR 51 7 6 5 18
M  END
$$$$
