
     RDKit          3D

 19 19  0  0  0  0  0  0  0  0999 V2000
    1.4112   -0.9412    0.9578 C   0  0  0  0  0  0  0  0  0  0  0  0
    1.4748   -0.0513   -0.2998 C   0  0  0  0  0  0  0  0  0  0  0  0
    2.1299    1.2724   -0.0509 C   0  0  0  0  0  0  0  0  0  0  0  0
    3.3056    1.7517   -0.4945 C   0  0  0  0  0  0  0  0  0  0  0  0
    3.5244    3.1475    0.0298 C   0  0  0  0  0  0  0  0  0  0  0  0
    2.3854    3.4219    0.8456 O   0  0  0  0  0  0  0  0  0  0  0  0
    1.4813    2.3321    0.8037 C   0  0  0  0  0  0  0  0  0  0  0  0
    4.2781    1.0961   -1.3629 C   0  0  0  0  0  0  0  0  0  0  0  0
    5.3176    1.6170   -1.7118 O   0  0  0  0  0  0  0  0  0  0  0  0
    0.8466   -0.4627    1.7631 H   0  0  0  0  0  0  0  0  0  0  0  0
    0.9221   -1.8910    0.7246 H   0  0  0  0  0  0  0  0  0  0  0  0
    2.4156   -1.1575    1.3332 H   0  0  0  0  0  0  0  0  0  0  0  0
    1.9937   -0.5887   -1.0982 H   0  0  0  0  0  0  0  0  0  0  0  0
    0.4522    0.1275   -0.6589 H   0  0  0  0  0  0  0  0  0  0  0  0
    4.4422    3.2290    0.6278 H   0  0  0  0  0  0  0  0  0  0  0  0
    3.6005    3.8844   -0.7827 H   0  0  0  0  0  0  0  0  0  0  0  0
    1.2749    1.9756    1.8253 H   0  0  0  0  0  0  0  0  0  0  0  0
    0.5125    2.6439    0.3757 H   0  0  0  0  0  0  0  0  0  0  0  0
    4.0172    0.0698   -1.6985 H   0  0  0  0  0  0  0  0  0  0  0  0
  1  2  1  0
  2  3  1  0
  3  4  2  0
  4  5  1  0
  5  6  1  0
  6  7  1  0
  4  8  1  0
  8  9  2  0
  7  3  1  0
  1 10  1  0
  1 11  1  0
  1 12  1  0
  2 13  1  0
  2 14  1  0
  5 15  1  0
  5 16  1  0
  7 17  1  0
  7 18  1  0
  8 19  1  0
M  END
$$$$
