gdb 527	2.4496578	1.8733256	1.7923447	0.9152	73.16	-0.24531	0.05889	0.3042	915.5026	0.158546	-422.520722	-422.513481	-422.512537	-422.552041	29.147
 OpenBabel02181911403D

 19 21  0  0  1  0  0  0  0  0999 V2000
   -0.0921   -0.8740   -3.0571 C   0  0  0  0  0  0  0  0  0  0  0  0
    0.9799    0.2165   -3.4304 C   0  0  0  0  0  0  0  0  0  0  0  0
    0.3498    1.1501   -2.3679 C   0  0  1  0  0  0  0  0  0  0  0  0
   -0.9282    1.9371   -2.7472 C   0  0  0  0  0  0  0  0  0  0  0  0
   -1.7716    0.8523   -2.2542 O   0  0  0  0  0  0  0  0  0  0  0  0
   -0.6072    0.0598   -1.9215 C   0  0  1  0  0  0  0  0  0  0  0  0
   -0.3351   -0.1409   -0.4412 C   0  0  0  0  0  0  0  0  0  0  0  0
    0.4197    1.1754   -0.0925 C   0  0  0  0  0  0  0  0  0  0  0  0
    1.1234    1.5806   -1.2833 O   0  0  0  0  0  0  0  0  0  0  0  0
   -0.8495   -1.0502   -3.8225 H   0  0  0  0  0  0  0  0  0  0  0  0
    0.3159   -1.8334   -2.7318 H   0  0  0  0  0  0  0  0  0  0  0  0
    1.9976   -0.0651   -3.1545 H   0  0  0  0  0  0  0  0  0  0  0  0
    0.9747    0.5735   -4.4626 H   0  0  0  0  0  0  0  0  0  0  0  0
   -1.0815    2.8637   -2.1824 H   0  0  0  0  0  0  0  0  0  0  0  0
   -1.0865    2.1275   -3.8152 H   0  0  0  0  0  0  0  0  0  0  0  0
   -1.2448   -0.2652    0.1507 H   0  0  0  0  0  0  0  0  0  0  0  0
    0.3100   -1.0096   -0.2790 H   0  0  0  0  0  0  0  0  0  0  0  0
   -0.2954    1.9543    0.2068 H   0  0  0  0  0  0  0  0  0  0  0  0
    1.1589    1.0625    0.7042 H   0  0  0  0  0  0  0  0  0  0  0  0
  1 11  1  0  0  0  0
  1  6  1  0  0  0  0
  2 12  1  0  0  0  0
  2  1  1  0  0  0  0
  2  3  1  0  0  0  0
  3  6  1  0  0  0  0
  3  9  1  1  0  0  0
  4  3  1  0  0  0  0
  4  5  1  0  0  0  0
  4 14  1  0  0  0  0
  6  5  1  6  0  0  0
  6  7  1  0  0  0  0
  7 17  1  0  0  0  0
  7  8  1  0  0  0  0
  7 16  1  0  0  0  0
  8 18  1  0  0  0  0
  8 19  1  0  0  0  0
  9  8  1  0  0  0  0
 10  1  1  0  0  0  0
 13  2  1  0  0  0  0
 15  4  1  0  0  0  0
M TOR 0 0 1 2 3
M TOR 1 0 1 2 5
M TOR 2 0 1 2 8
M TOR 3 0 5 2 3
M TOR 4 0 5 2 8
M TOR 5 0 5 4 3
M TOR 6 0 5 6 7
M TOR 7 0 5 6 15
M TOR 8 0 5 6 16
M TOR 9 1 0 5 4
M TOR 10 1 0 5 6
M TOR 11 1 2 3 4
M TOR 12 1 2 3 13
M TOR 13 1 2 3 14
M TOR 14 1 2 5 4
M TOR 15 1 2 5 6
M TOR 16 1 2 8 7
M TOR 17 2 1 0 9
M TOR 18 2 1 0 10
M TOR 19 2 3 4 5
M TOR 20 2 5 0 9
M TOR 21 2 5 0 10
M TOR 22 2 5 6 7
M TOR 23 2 5 6 15
M TOR 24 2 5 6 16
M TOR 25 2 8 7 6
M TOR 26 2 8 7 17
M TOR 27 2 8 7 18
M TOR 28 3 2 1 11
M TOR 29 3 2 1 12
M TOR 30 3 2 5 6
M TOR 31 3 2 8 7
M TOR 32 3 4 5 6
M TOR 33 4 3 2 8
M TOR 34 4 5 0 9
M TOR 35 4 5 0 10
M TOR 36 4 5 2 8
M TOR 37 4 5 6 7
M TOR 38 4 5 6 15
M TOR 39 4 5 6 16
M TOR 40 5 0 1 11
M TOR 41 5 0 1 12
M TOR 42 5 2 1 11
M TOR 43 5 2 1 12
M TOR 44 5 2 3 13
M TOR 45 5 2 3 14
M TOR 46 5 2 8 7
M TOR 47 5 4 3 13
M TOR 48 5 4 3 14
M TOR 49 5 6 7 8
M TOR 50 5 6 7 17
M TOR 51 5 6 7 18
M TOR 52 6 5 0 9
M TOR 53 6 5 0 10
M TOR 54 6 5 2 8
M TOR 55 8 2 1 11
M TOR 56 8 2 1 12
M TOR 57 8 2 3 13
M TOR 58 8 2 3 14
M TOR 59 8 7 6 15
M TOR 60 8 7 6 16
M  END
$$$$
