
     RDKit          3D

 19 18  0  0  0  0  0  0  0  0999 V2000
    6.8583    0.3050    2.3600 C   0  0  0  0  0  0  0  0  0  0  0  0
    6.0599   -0.0012    1.1056 C   0  0  0  0  0  0  0  0  0  0  0  0
    6.5939   -0.2923    0.0598 O   0  0  0  0  0  0  0  0  0  0  0  0
    4.5439    0.0794    1.2353 C   0  0  0  0  0  0  0  0  0  0  0  0
    3.8137   -0.2565   -0.0748 C   0  0  0  0  0  0  0  0  0  0  0  0
    2.3641   -0.1644    0.0494 C   0  0  0  0  0  0  0  0  0  0  0  0
    1.1668   -0.0968    0.1698 C   0  0  0  0  0  0  0  0  0  0  0  0
   -0.2834    0.0388    0.2996 C   0  0  0  0  0  0  0  0  0  0  0  0
   -0.8456    1.0058   -0.5781 O   0  0  0  0  0  0  0  0  0  0  0  0
    6.5928   -0.3943    3.1609 H   0  0  0  0  0  0  0  0  0  0  0  0
    7.9252    0.2307    2.1473 H   0  0  0  0  0  0  0  0  0  0  0  0
    6.6236    1.3104    2.7271 H   0  0  0  0  0  0  0  0  0  0  0  0
    4.2233   -0.5943    2.0404 H   0  0  0  0  0  0  0  0  0  0  0  0
    4.2750    1.0862    1.5802 H   0  0  0  0  0  0  0  0  0  0  0  0
    4.1674    0.4156   -0.8648 H   0  0  0  0  0  0  0  0  0  0  0  0
    4.1037   -1.2616   -0.4011 H   0  0  0  0  0  0  0  0  0  0  0  0
   -0.7759   -0.9081    0.0508 H   0  0  0  0  0  0  0  0  0  0  0  0
   -0.5362    0.2591    1.3497 H   0  0  0  0  0  0  0  0  0  0  0  0
   -0.3304    1.8134   -0.4818 H   0  0  0  0  0  0  0  0  0  0  0  0
  1  2  1  0
  2  3  2  0
  2  4  1  0
  4  5  1  0
  5  6  1  0
  6  7  3  0
  7  8  1  0
  8  9  1  0
  1 10  1  0
  1 11  1  0
  1 12  1  0
  4 13  1  0
  4 14  1  0
  5 15  1  0
  5 16  1  0
  8 17  1  0
  8 18  1  0
  9 19  1  0
M  END
$$$$
