gdb 3535	2.4313675	1.0759656	0.7923491	4.1285	77.23	-0.2459	-0.02956	0.21634	1435.9437	0.154037	-422.575893	-422.566207	-422.565263	-422.611473	34.043
 OpenBabel02181911413D

 19 19  0  0  1  0  0  0  0  0999 V2000
   -1.5897    4.1742    1.9142 C   0  0  0  0  0  0  0  0  0  0  0  0
   -2.0259    2.7328    1.7032 C   0  0  1  0  0  0  0  0  0  0  0  0
   -3.3660    2.4698    0.9435 C   0  0  0  0  0  0  0  0  0  0  0  0
   -2.6307    1.3746    0.1630 C   0  0  0  0  0  0  0  0  0  0  0  0
   -2.9780    0.4005   -0.4429 O   0  0  0  0  0  0  0  0  0  0  0  0
   -1.2574    1.8859    0.6289 C   0  0  2  0  0  0  0  0  0  0  0  0
   -0.2013    0.8631    1.0568 C   0  0  0  0  0  0  0  0  0  0  0  0
    0.3382    0.0757   -0.1242 C   0  0  0  0  0  0  0  0  0  0  0  0
    1.5052    0.0157   -0.4167 O   0  0  0  0  0  0  0  0  0  0  0  0
   -2.2631    4.6950    2.6029 H   0  0  0  0  0  0  0  0  0  0  0  0
   -0.5793    4.2267    2.3335 H   0  0  0  0  0  0  0  0  0  0  0  0
   -1.5883    4.7260    0.9672 H   0  0  0  0  0  0  0  0  0  0  0  0
   -2.0295    2.1925    2.6558 H   0  0  0  0  0  0  0  0  0  0  0  0
   -4.2454    2.1597    1.5124 H   0  0  0  0  0  0  0  0  0  0  0  0
   -3.6460    3.3048    0.2908 H   0  0  0  0  0  0  0  0  0  0  0  0
   -0.8481    2.5586   -0.1378 H   0  0  0  0  0  0  0  0  0  0  0  0
    0.6388    1.3477    1.5638 H   0  0  0  0  0  0  0  0  0  0  0  0
   -0.6601    0.1474    1.7536 H   0  0  0  0  0  0  0  0  0  0  0  0
   -0.4396   -0.4490   -0.7183 H   0  0  0  0  0  0  0  0  0  0  0  0
  1 11  1  0  0  0  0
  1 10  1  0  0  0  0
  2  1  1  0  0  0  0
  2 13  1  1  0  0  0
  3 14  1  0  0  0  0
  3  2  1  0  0  0  0
  4  6  1  0  0  0  0
  4  3  1  0  0  0  0
  5  4  2  0  0  0  0
  6 16  1  6  0  0  0
  6  7  1  0  0  0  0
  6  2  1  0  0  0  0
  7 17  1  0  0  0  0
  7 18  1  0  0  0  0
  8  7  1  0  0  0  0
  9  8  2  0  0  0  0
 12  1  1  0  0  0  0
 15  3  1  0  0  0  0
 19  8  1  0  0  0  0
M TOR 0 0 1 2 3
M TOR 1 0 1 2 13
M TOR 2 0 1 2 14
M TOR 3 0 1 5 3
M TOR 4 0 1 5 6
M TOR 5 0 1 5 15
M TOR 6 1 2 3 4
M TOR 7 1 2 3 5
M TOR 8 1 5 3 4
M TOR 9 1 5 6 7
M TOR 10 1 5 6 16
M TOR 11 1 5 6 17
M TOR 12 2 1 0 9
M TOR 13 2 1 0 10
M TOR 14 2 1 0 11
M TOR 15 2 1 5 6
M TOR 16 2 1 5 15
M TOR 17 2 3 5 6
M TOR 18 2 3 5 15
M TOR 19 3 2 1 12
M TOR 20 3 5 1 12
M TOR 21 3 5 6 7
M TOR 22 3 5 6 16
M TOR 23 3 5 6 17
M TOR 24 4 3 2 13
M TOR 25 4 3 2 14
M TOR 26 4 3 5 6
M TOR 27 4 3 5 15
M TOR 28 5 1 0 9
M TOR 29 5 1 0 10
M TOR 30 5 1 0 11
M TOR 31 5 1 2 13
M TOR 32 5 1 2 14
M TOR 33 5 3 2 13
M TOR 34 5 3 2 14
M TOR 35 5 6 7 8
M TOR 36 5 6 7 18
M TOR 37 6 5 1 12
M TOR 38 7 6 5 15
M TOR 39 8 7 6 16
M TOR 40 8 7 6 17
M  END
$$$$
