
     RDKit          3D

 19 20  0  0  0  0  0  0  0  0999 V2000
    1.1779    0.9543    0.4448 O   0  0  0  0  0  0  0  0  0  0  0  0
    0.2361    0.2166    0.5559 C   0  0  0  0  0  0  0  0  0  0  0  0
   -1.0585    0.5533    0.5215 O   0  0  0  0  0  0  0  0  0  0  0  0
   -1.3847    1.9499    0.3104 C   0  0  0  0  0  0  0  0  0  0  0  0
   -1.7039    2.6441    1.6211 C   0  0  0  0  0  0  0  0  0  0  0  0
   -2.0705    4.1551    1.4166 C   0  0  0  0  0  0  0  0  0  0  0  0
   -0.8603    4.5490    2.2689 C   0  0  0  0  0  0  0  0  0  0  0  0
   -0.9466    3.9090    3.6258 C   0  0  0  0  0  0  0  0  0  0  0  0
   -0.4901    3.0760    2.4625 C   0  0  0  0  0  0  0  0  0  0  0  0
    0.3073   -0.8728    0.7012 H   0  0  0  0  0  0  0  0  0  0  0  0
   -0.5525    2.4343   -0.2062 H   0  0  0  0  0  0  0  0  0  0  0  0
   -2.2637    1.9354   -0.3401 H   0  0  0  0  0  0  0  0  0  0  0  0
   -2.4483    2.0498    2.1638 H   0  0  0  0  0  0  0  0  0  0  0  0
   -1.9721    4.4560    0.3693 H   0  0  0  0  0  0  0  0  0  0  0  0
   -3.0522    4.4781    1.7783 H   0  0  0  0  0  0  0  0  0  0  0  0
   -0.2109    5.3944    2.0782 H   0  0  0  0  0  0  0  0  0  0  0  0
   -0.1681    4.1949    4.3258 H   0  0  0  0  0  0  0  0  0  0  0  0
   -1.9150    3.7266    4.0885 H   0  0  0  0  0  0  0  0  0  0  0  0
    0.4849    2.6081    2.4261 H   0  0  0  0  0  0  0  0  0  0  0  0
  1  2  2  0
  2  3  1  0
  3  4  1  0
  4  5  1  0
  5  6  1  0
  6  7  1  0
  7  8  1  0
  8  9  1  0
  9  5  1  0
  9  7  1  0
  2 10  1  0
  4 11  1  0
  4 12  1  0
  5 13  1  0
  6 14  1  0
  6 15  1  0
  7 16  1  0
  8 17  1  0
  8 18  1  0
  9 19  1  0
M  END
$$$$
