gdb 5259	3.2248895	1.4776951	1.3265455	1.7937	74.31	-0.24404	0.00081	0.24485	1041.3371	0.157672	-422.558864	-422.551045	-422.550101	-422.591009	30.682
 OpenBabel02181911423D

 19 20  0  0  1  0  0  0  0  0999 V2000
    0.9397   -0.4769    0.9788 C   0  0  0  0  0  0  0  0  0  0  0  0
    0.9212    0.1508   -0.4190 C   0  0  0  0  0  0  0  0  0  0  0  0
    1.8057   -0.5687   -1.4110 C   0  0  2  0  0  0  0  0  0  0  0  0
    1.7411   -0.1074   -2.9095 C   0  0  0  0  0  0  0  0  0  0  0  0
    2.1839   -1.2712   -3.6116 O   0  0  0  0  0  0  0  0  0  0  0  0
    2.4097   -2.2370   -2.5541 C   0  0  2  0  0  0  0  0  0  0  0  0
    1.4016   -1.9442   -1.6199 O   0  0  0  0  0  0  0  0  0  0  0  0
    3.6816   -1.7943   -1.8351 C   0  0  0  0  0  0  0  0  0  0  0  0
    3.2991   -0.7320   -1.1261 C   0  0  0  0  0  0  0  0  0  0  0  0
    0.6190   -1.5206    0.9341 H   0  0  0  0  0  0  0  0  0  0  0  0
    1.9443   -0.4551    1.4130 H   0  0  0  0  0  0  0  0  0  0  0  0
    0.2693    0.0619    1.6545 H   0  0  0  0  0  0  0  0  0  0  0  0
   -0.1019    0.1581   -0.8125 H   0  0  0  0  0  0  0  0  0  0  0  0
    1.2446    1.1984   -0.3706 H   0  0  0  0  0  0  0  0  0  0  0  0
    0.7096    0.1254   -3.1971 H   0  0  0  0  0  0  0  0  0  0  0  0
    2.3895    0.7482   -3.1252 H   0  0  0  0  0  0  0  0  0  0  0  0
    2.3283   -3.2430   -2.9598 H   0  0  0  0  0  0  0  0  0  0  0  0
    4.6747   -2.1825   -2.0117 H   0  0  0  0  0  0  0  0  0  0  0  0
    3.9045   -0.0251   -0.5749 H   0  0  0  0  0  0  0  0  0  0  0  0
  1 11  1  0  0  0  0
  1 12  1  0  0  0  0
  2 14  1  0  0  0  0
  2  1  1  0  0  0  0
  3  9  1  0  0  0  0
  3  2  1  1  0  0  0
  4  3  1  0  0  0  0
  5  4  1  0  0  0  0
  5  6  1  0  0  0  0
  6 17  1  6  0  0  0
  6  8  1  0  0  0  0
  6  7  1  0  0  0  0
  7  3  1  0  0  0  0
  8  9  2  0  0  0  0
  9 19  1  0  0  0  0
 10  1  1  0  0  0  0
 13  2  1  0  0  0  0
 15  4  1  0  0  0  0
 16  4  1  0  0  0  0
 18  8  1  0  0  0  0
M TOR 0 0 1 2 3
M TOR 1 0 1 2 6
M TOR 2 0 1 2 8
M TOR 3 1 2 3 4
M TOR 4 1 2 3 14
M TOR 5 1 2 3 15
M TOR 6 1 2 6 5
M TOR 7 1 2 8 7
M TOR 8 1 2 8 18
M TOR 9 2 1 0 9
M TOR 10 2 1 0 10
M TOR 11 2 1 0 11
M TOR 12 2 3 4 5
M TOR 13 2 6 5 4
M TOR 14 2 6 5 7
M TOR 15 2 6 5 16
M TOR 16 2 8 7 5
M TOR 17 2 8 7 17
M TOR 18 3 2 1 12
M TOR 19 3 2 1 13
M TOR 20 3 2 6 5
M TOR 21 3 2 8 7
M TOR 22 3 2 8 18
M TOR 23 3 4 5 6
M TOR 24 3 4 5 7
M TOR 25 3 4 5 16
M TOR 26 4 3 2 6
M TOR 27 4 3 2 8
M TOR 28 4 5 7 8
M TOR 29 4 5 7 17
M TOR 30 5 4 3 14
M TOR 31 5 4 3 15
M TOR 32 5 6 2 8
M TOR 33 5 7 8 18
M TOR 34 6 2 1 12
M TOR 35 6 2 1 13
M TOR 36 6 2 3 14
M TOR 37 6 2 3 15
M TOR 38 6 2 8 7
M TOR 39 6 2 8 18
M TOR 40 6 5 7 8
M TOR 41 6 5 7 17
M TOR 42 8 2 1 12
M TOR 43 8 2 1 13
M TOR 44 8 2 3 14
M TOR 45 8 2 3 15
M TOR 46 8 7 5 16
M  END
$$$$
