gdb 746	2.5698369	1.7587355	1.2872496	4.4866	74.74	-0.25355	0.00878	0.26233	1019.6903	0.16008	-422.581357	-422.573972	-422.573028	-422.613129	29.152
 OpenBabel02181911403D

 19 20  0  0  1  0  0  0  0  0999 V2000
   -2.1269   -1.0966    0.7800 O   0  0  0  0  0  0  0  0  0  0  0  0
   -1.2339   -0.3116    0.9559 C   0  0  0  0  0  0  0  0  0  0  0  0
   -0.6151   -0.3022    2.1712 O   0  0  0  0  0  0  0  0  0  0  0  0
    0.7305    0.1585    2.3657 C   0  0  0  0  0  0  0  0  0  0  0  0
    0.9915    1.6444    2.1178 C   0  0  0  0  0  0  0  0  0  0  0  0
    0.5807    2.1507    0.7290 C   0  0  1  0  0  0  0  0  0  0  0  0
    0.6196    1.0467   -0.3658 C   0  0  0  0  0  0  0  0  0  0  0  0
   -0.8839    0.7521   -0.0697 C   0  0  2  0  0  0  0  0  0  0  0  0
   -0.9613    2.1865    0.5457 C   0  0  0  0  0  0  0  0  0  0  0  0
    0.9390   -0.0774    3.4121 H   0  0  0  0  0  0  0  0  0  0  0  0
    1.4042   -0.4567    1.7589 H   0  0  0  0  0  0  0  0  0  0  0  0
    0.4872    2.2431    2.8860 H   0  0  0  0  0  0  0  0  0  0  0  0
    2.0698    1.7888    2.2644 H   0  0  0  0  0  0  0  0  0  0  0  0
    1.1098    3.0798    0.5033 H   0  0  0  0  0  0  0  0  0  0  0  0
    0.7082    1.4820   -1.3642 H   0  0  0  0  0  0  0  0  0  0  0  0
    1.3479    0.2374   -0.2834 H   0  0  0  0  0  0  0  0  0  0  0  0
   -1.5164    0.5493   -0.9327 H   0  0  0  0  0  0  0  0  0  0  0  0
   -1.2683    2.9127   -0.2107 H   0  0  0  0  0  0  0  0  0  0  0  0
   -1.5755    2.3195    1.4397 H   0  0  0  0  0  0  0  0  0  0  0  0
  1  2  2  0  0  0  0
  2  3  1  0  0  0  0
  3  4  1  0  0  0  0
  4 10  1  0  0  0  0
  5 13  1  0  0  0  0
  5  4  1  0  0  0  0
  5 12  1  0  0  0  0
  6 14  1  6  0  0  0
  6  5  1  0  0  0  0
  7 16  1  0  0  0  0
  7  8  1  0  0  0  0
  7  6  1  0  0  0  0
  8 17  1  6  0  0  0
  8  9  1  0  0  0  0
  8  2  1  0  0  0  0
  9  6  1  0  0  0  0
  9 19  1  0  0  0  0
 11  4  1  0  0  0  0
 15  7  1  0  0  0  0
 18  9  1  0  0  0  0
M TOR 0 0 1 2 3
M TOR 1 0 1 7 6
M TOR 2 0 1 7 8
M TOR 3 0 1 7 16
M TOR 4 1 2 3 4
M TOR 5 1 2 3 9
M TOR 6 1 2 3 10
M TOR 7 1 7 6 5
M TOR 8 1 7 6 14
M TOR 9 1 7 6 15
M TOR 10 1 7 8 5
M TOR 11 1 7 8 17
M TOR 12 1 7 8 18
M TOR 13 2 1 7 6
M TOR 14 2 1 7 8
M TOR 15 2 1 7 16
M TOR 16 2 3 4 5
M TOR 17 2 3 4 11
M TOR 18 2 3 4 12
M TOR 19 3 2 1 7
M TOR 20 3 4 5 6
M TOR 21 3 4 5 8
M TOR 22 3 4 5 13
M TOR 23 4 5 6 7
M TOR 24 4 5 6 14
M TOR 25 4 5 6 15
M TOR 26 4 5 8 7
M TOR 27 4 5 8 17
M TOR 28 4 5 8 18
M TOR 29 5 4 3 9
M TOR 30 5 4 3 10
M TOR 31 5 6 7 8
M TOR 32 5 6 7 16
M TOR 33 5 8 7 16
M TOR 34 6 5 4 11
M TOR 35 6 5 4 12
M TOR 36 6 5 8 17
M TOR 37 6 5 8 18
M TOR 38 6 7 8 17
M TOR 39 6 7 8 18
M TOR 40 7 6 5 13
M TOR 41 7 8 5 13
M TOR 42 8 5 4 11
M TOR 43 8 5 4 12
M TOR 44 8 5 6 14
M TOR 45 8 5 6 15
M TOR 46 8 7 6 14
M TOR 47 8 7 6 15
M  END
$$$$
