gdb 1118	2.5895071	0.9262211	0.7812007	1.6246	77.79	-0.24869	-0.02638	0.22231	1500.2722	0.153744	-422.57582	-422.565787	-422.564843	-422.612538	34.554
 OpenBabel02181911403D

 19 19  0  0  1  0  0  0  0  0999 V2000
    0.1753    5.1721    0.8505 C   0  0  0  0  0  0  0  0  0  0  0  0
   -0.9115    4.1798    0.4884 C   0  0  0  0  0  0  0  0  0  0  0  0
   -1.9591    4.1151    1.0983 O   0  0  0  0  0  0  0  0  0  0  0  0
   -0.6257    3.2719   -0.6637 C   0  0  2  0  0  0  0  0  0  0  0  0
   -1.8048    2.8355   -1.5232 C   0  0  0  0  0  0  0  0  0  0  0  0
   -1.1858    1.8537   -0.5905 C   0  0  1  0  0  0  0  0  0  0  0  0
   -0.3526    0.6957   -1.1066 C   0  0  0  0  0  0  0  0  0  0  0  0
    0.6726    0.2490   -0.0840 C   0  0  0  0  0  0  0  0  0  0  0  0
    1.8546    0.1587   -0.2907 O   0  0  0  0  0  0  0  0  0  0  0  0
   -0.1361    5.7740    1.7045 H   0  0  0  0  0  0  0  0  0  0  0  0
    1.1061    4.6435    1.0867 H   0  0  0  0  0  0  0  0  0  0  0  0
    0.3907    5.8236   -0.0045 H   0  0  0  0  0  0  0  0  0  0  0  0
    0.3313    3.3969   -1.1592 H   0  0  0  0  0  0  0  0  0  0  0  0
   -2.7657    3.2528   -1.2442 H   0  0  0  0  0  0  0  0  0  0  0  0
   -1.6259    2.7284   -2.5874 H   0  0  0  0  0  0  0  0  0  0  0  0
   -1.7502    1.6620    0.3182 H   0  0  0  0  0  0  0  0  0  0  0  0
   -1.0133   -0.1588   -1.3154 H   0  0  0  0  0  0  0  0  0  0  0  0
    0.1692    0.9530   -2.0330 H   0  0  0  0  0  0  0  0  0  0  0  0
    0.2450    0.0074    0.9174 H   0  0  0  0  0  0  0  0  0  0  0  0
  1 11  1  0  0  0  0
  1 10  1  0  0  0  0
  2  1  1  0  0  0  0
  2  3  2  0  0  0  0
  4 13  1  6  0  0  0
  4  6  1  0  0  0  0
  4  2  1  0  0  0  0
  5 14  1  0  0  0  0
  5  4  1  0  0  0  0
  5  6  1  0  0  0  0
  6 16  1  1  0  0  0
  7  6  1  0  0  0  0
  7  8  1  0  0  0  0
  8 19  1  0  0  0  0
  9  8  2  0  0  0  0
 12  1  1  0  0  0  0
 15  5  1  0  0  0  0
 17  7  1  0  0  0  0
 18  7  1  0  0  0  0
M TOR 0 0 1 3 4
M TOR 1 0 1 3 5
M TOR 2 0 1 3 12
M TOR 3 1 3 4 5
M TOR 4 1 3 4 13
M TOR 5 1 3 4 14
M TOR 6 1 3 5 6
M TOR 7 1 3 5 15
M TOR 8 2 1 0 9
M TOR 9 2 1 0 10
M TOR 10 2 1 0 11
M TOR 11 2 1 3 4
M TOR 12 2 1 3 5
M TOR 13 2 1 3 12
M TOR 14 3 1 0 9
M TOR 15 3 1 0 10
M TOR 16 3 1 0 11
M TOR 17 3 4 5 6
M TOR 18 3 4 5 15
M TOR 19 3 5 4 13
M TOR 20 3 5 4 14
M TOR 21 3 5 6 7
M TOR 22 3 5 6 16
M TOR 23 3 5 6 17
M TOR 24 4 5 3 12
M TOR 25 4 5 6 7
M TOR 26 4 5 6 16
M TOR 27 4 5 6 17
M TOR 28 5 6 7 8
M TOR 29 5 6 7 18
M TOR 30 6 5 3 12
M TOR 31 6 5 4 13
M TOR 32 6 5 4 14
M TOR 33 7 6 5 15
M TOR 34 8 7 6 16
M TOR 35 8 7 6 17
M  END
$$$$
