
     RDKit          3D

 19 19  0  0  0  0  0  0  0  0999 V2000
    0.0017    2.5532   -0.0144 C   0  0  0  0  0  0  0  0  0  0  0  0
   -0.8669    1.2966   -0.0044 C   0  0  0  0  0  0  0  0  0  0  0  0
   -1.8584    1.2191   -1.1883 C   0  0  0  0  0  0  0  0  0  0  0  0
   -2.7400   -0.0332   -1.1267 C   0  0  0  0  0  0  0  0  0  0  0  0
   -1.8956   -1.3212   -1.1400 C   0  0  0  0  0  0  0  0  0  0  0  0
   -0.8280   -1.3053   -0.0604 C   0  0  0  0  0  0  0  0  0  0  0  0
   -0.5827   -2.2314    0.6708 O   0  0  0  0  0  0  0  0  0  0  0  0
   -0.0305    0.0223    0.0543 C   0  0  0  0  0  0  0  0  0  0  0  0
    1.1689    0.0019    0.1789 O   0  0  0  0  0  0  0  0  0  0  0  0
    0.6911    2.5593    0.8326 H   0  0  0  0  0  0  0  0  0  0  0  0
    0.6050    2.6004   -0.9262 H   0  0  0  0  0  0  0  0  0  0  0  0
   -0.6214    3.4511    0.0335 H   0  0  0  0  0  0  0  0  0  0  0  0
   -1.4738    1.2812    0.9171 H   0  0  0  0  0  0  0  0  0  0  0  0
   -2.4807    2.1204   -1.1880 H   0  0  0  0  0  0  0  0  0  0  0  0
   -1.2943    1.2309   -2.1309 H   0  0  0  0  0  0  0  0  0  0  0  0
   -3.3506   -0.0075   -0.2151 H   0  0  0  0  0  0  0  0  0  0  0  0
   -3.4384   -0.0470   -1.9694 H   0  0  0  0  0  0  0  0  0  0  0  0
   -2.4980   -2.2263   -1.0270 H   0  0  0  0  0  0  0  0  0  0  0  0
   -1.3703   -1.3908   -2.1048 H   0  0  0  0  0  0  0  0  0  0  0  0
  1  2  1  0
  2  3  1  0
  3  4  1  0
  4  5  1  0
  5  6  1  0
  6  7  2  0
  6  8  1  0
  8  9  2  0
  8  2  1  0
  1 10  1  0
  1 11  1  0
  1 12  1  0
  2 13  1  0
  3 14  1  0
  3 15  1  0
  4 16  1  0
  4 17  1  0
  5 18  1  0
  5 19  1  0
M  END
$$$$
