gdb 2941	2.7021929	1.3791456	1.1597438	2.5585	76.7	-0.22782	0.00868	0.2365	1128.5631	0.155823	-422.559093	-422.550302	-422.549358	-422.591765	34.373
 OpenBabel02181911413D

 19 20  0  0  1  0  0  0  0  0999 V2000
   -3.4281    2.2713   -1.8370 C   0  0  0  0  0  0  0  0  0  0  0  0
   -2.6646    2.1558   -0.5172 C   0  0  1  0  0  0  0  0  0  0  0  0
   -2.0625    3.4361   -0.3230 O   0  0  0  0  0  0  0  0  0  0  0  0
   -3.5773    1.7594    0.6409 C   0  0  0  0  0  0  0  0  0  0  0  0
   -3.2975    0.5496    1.1306 C   0  0  0  0  0  0  0  0  0  0  0  0
   -2.1074   -0.0503    0.4614 C   0  0  2  0  0  0  0  0  0  0  0  0
   -0.8190    0.7374    0.6731 C   0  0  1  0  0  0  0  0  0  0  0  0
    0.4078    0.1299    0.4128 O   0  0  0  0  0  0  0  0  0  0  0  0
   -1.6560    0.9965   -0.5437 C   0  0  2  0  0  0  0  0  0  0  0  0
   -3.9074    1.3219   -2.0892 H   0  0  0  0  0  0  0  0  0  0  0  0
   -4.1970    3.0456   -1.7630 H   0  0  0  0  0  0  0  0  0  0  0  0
   -2.7389    2.5488   -2.6406 H   0  0  0  0  0  0  0  0  0  0  0  0
   -1.4992    3.3785    0.4562 H   0  0  0  0  0  0  0  0  0  0  0  0
   -4.3511    2.4322    0.9934 H   0  0  0  0  0  0  0  0  0  0  0  0
   -3.8192    0.0633    1.9480 H   0  0  0  0  0  0  0  0  0  0  0  0
   -2.0321   -1.1133    0.2635 H   0  0  0  0  0  0  0  0  0  0  0  0
   -0.8209    1.4615    1.4913 H   0  0  0  0  0  0  0  0  0  0  0  0
    0.6395   -0.4128    1.1740 H   0  0  0  0  0  0  0  0  0  0  0  0
   -1.2130    0.7020   -1.4876 H   0  0  0  0  0  0  0  0  0  0  0  0
  1 11  1  0  0  0  0
  1  2  1  0  0  0  0
  2  3  1  1  0  0  0
  2  4  1  0  0  0  0
  3 13  1  0  0  0  0
  4 14  1  0  0  0  0
  4  5  2  0  0  0  0
  5 15  1  0  0  0  0
  6 16  1  6  0  0  0
  6  7  1  0  0  0  0
  6  5  1  0  0  0  0
  7 17  1  1  0  0  0
  8  7  1  0  0  0  0
  8 18  1  0  0  0  0
  9 19  1  6  0  0  0
  9  2  1  0  0  0  0
  9  6  1  0  0  0  0
  9  7  1  0  0  0  0
 10  1  1  0  0  0  0
 12  1  1  0  0  0  0
M TOR 0 0 1 2 12
M TOR 1 0 1 3 4
M TOR 2 0 1 3 13
M TOR 3 0 1 8 5
M TOR 4 0 1 8 6
M TOR 5 0 1 8 18
M TOR 6 1 3 4 5
M TOR 7 1 3 4 14
M TOR 8 1 8 5 4
M TOR 9 1 8 5 6
M TOR 10 1 8 5 15
M TOR 11 1 8 6 7
M TOR 12 1 8 6 16
M TOR 13 2 1 0 9
M TOR 14 2 1 0 10
M TOR 15 2 1 0 11
M TOR 16 2 1 3 4
M TOR 17 2 1 3 13
M TOR 18 2 1 8 5
M TOR 19 2 1 8 6
M TOR 20 2 1 8 18
M TOR 21 3 1 0 9
M TOR 22 3 1 0 10
M TOR 23 3 1 0 11
M TOR 24 3 1 2 12
M TOR 25 3 1 8 5
M TOR 26 3 1 8 6
M TOR 27 3 1 8 18
M TOR 28 3 4 5 6
M TOR 29 3 4 5 8
M TOR 30 3 4 5 15
M TOR 31 4 3 1 8
M TOR 32 4 5 6 7
M TOR 33 4 5 6 8
M TOR 34 4 5 6 16
M TOR 35 4 5 8 18
M TOR 36 5 4 3 13
M TOR 37 5 6 7 17
M TOR 38 5 6 8 18
M TOR 39 5 8 6 7
M TOR 40 5 8 6 16
M TOR 41 6 5 4 14
M TOR 42 6 8 5 15
M TOR 43 7 6 5 15
M TOR 44 7 6 8 18
M TOR 45 8 1 0 9
M TOR 46 8 1 0 10
M TOR 47 8 1 0 11
M TOR 48 8 1 2 12
M TOR 49 8 1 3 13
M TOR 50 8 5 4 14
M TOR 51 8 6 7 17
M  END
$$$$
