gdb 5267	2.3959258	1.7220031	1.2058703	2.2965	77.65	-0.22989	0.00113	0.23102	1070.0582	0.157489	-422.528535	-422.52033	-422.519386	-422.561242	31.503
 OpenBabel02181911423D

 19 20  0  0  1  0  0  0  0  0999 V2000
    0.0169    1.5490    0.0234 O   0  0  0  0  0  0  0  0  0  0  0  0
    0.1329    0.1391    0.0596 C   0  0  0  0  0  0  0  0  0  0  0  0
   -1.2471   -0.5107    0.0062 C   0  0  2  0  0  0  0  0  0  0  0  0
   -2.0170   -0.4794    1.3775 C   0  0  0  0  0  0  0  0  0  0  0  0
   -1.5924   -1.9859    1.5897 C   0  0  0  0  0  0  0  0  0  0  0  0
   -1.3744   -1.9973    0.0909 C   0  0  1  0  0  3  0  0  0  0  0  0
   -1.8705   -2.4856   -1.0393 C   0  0  0  0  0  3  0  0  0  0  0  0
   -2.0048   -1.3278   -2.0201 C   0  0  0  0  0  0  0  0  0  0  0  0
   -1.8729   -0.1327   -1.2205 O   0  0  0  0  0  0  0  0  0  0  0  0
   -0.5383    1.7432   -0.7419 H   0  0  0  0  0  0  0  0  0  0  0  0
    0.7401   -0.2395   -0.7780 H   0  0  0  0  0  0  0  0  0  0  0  0
    0.6508   -0.1140    0.9907 H   0  0  0  0  0  0  0  0  0  0  0  0
   -1.6719    0.2489    2.1143 H   0  0  0  0  0  0  0  0  0  0  0  0
   -3.0925   -0.3860    1.2214 H   0  0  0  0  0  0  0  0  0  0  0  0
   -0.6738   -2.0665    2.1782 H   0  0  0  0  0  0  0  0  0  0  0  0
   -2.3339   -2.6788    1.9902 H   0  0  0  0  0  0  0  0  0  0  0  0
   -2.2786   -3.4696   -1.2330 H   0  0  0  0  0  0  0  0  0  0  0  0
   -1.2513   -1.3307   -2.8233 H   0  0  0  0  0  0  0  0  0  0  0  0
   -2.9930   -1.3196   -2.4975 H   0  0  0  0  0  0  0  0  0  0  0  0
  1  2  1  0  0  0  0
  2 12  1  0  0  0  0
  3  2  1  1  0  0  0
  3  6  1  0  0  0  0
  3  4  1  0  0  0  0
  4  5  1  0  0  0  0
  4 13  1  0  0  0  0
  5 16  1  0  0  0  0
  5 15  1  0  0  0  0
  6  7  1  6  0  0  0
  6  5  1  0  0  0  0
  8  9  1  0  0  0  0
  8  7  1  0  0  0  0
  9  3  1  0  0  0  0
 10  1  1  0  0  0  0
 11  2  1  0  0  0  0
 14  4  1  0  0  0  0
 17  7  1  0  0  0  0
 18  8  1  0  0  0  0
 19  8  1  0  0  0  0
M TOR 0 0 1 2 3
M TOR 1 0 1 2 5
M TOR 2 0 1 2 8
M TOR 3 1 2 3 4
M TOR 4 1 2 3 12
M TOR 5 1 2 3 13
M TOR 6 1 2 5 4
M TOR 7 1 2 5 6
M TOR 8 1 2 8 7
M TOR 9 2 1 0 9
M TOR 10 2 3 4 5
M TOR 11 2 3 4 14
M TOR 12 2 3 4 15
M TOR 13 2 5 4 14
M TOR 14 2 5 4 15
M TOR 15 2 5 6 7
M TOR 16 2 5 6 16
M TOR 17 2 8 7 6
M TOR 18 2 8 7 17
M TOR 19 2 8 7 18
M TOR 20 3 2 1 10
M TOR 21 3 2 1 11
M TOR 22 3 2 5 6
M TOR 23 3 2 8 7
M TOR 24 3 4 5 6
M TOR 25 4 3 2 8
M TOR 26 4 5 2 8
M TOR 27 4 5 6 7
M TOR 28 4 5 6 16
M TOR 29 5 2 1 10
M TOR 30 5 2 1 11
M TOR 31 5 2 3 12
M TOR 32 5 2 3 13
M TOR 33 5 2 8 7
M TOR 34 5 4 3 12
M TOR 35 5 4 3 13
M TOR 36 5 6 7 8
M TOR 37 5 6 7 17
M TOR 38 5 6 7 18
M TOR 39 6 5 2 8
M TOR 40 6 5 4 14
M TOR 41 6 5 4 15
M TOR 42 8 2 1 10
M TOR 43 8 2 1 11
M TOR 44 8 2 3 12
M TOR 45 8 2 3 13
M TOR 46 8 7 6 16
M  END
$$$$
