gdb 5686	1.9925434	1.1893523	1.0864939	1.6035	77.75	-0.25928	0.01506	0.27434000000000003	1290.7121	0.153375	-422.504916	-422.494597	-422.493653	-422.540565	36.867
 OpenBabel02181911423D

 19 19  0  0  1  0  0  0  0  0999 V2000
    0.6339   -0.4213    0.8137 C   0  0  0  0  0  0  0  0  0  0  0  0
    0.8631    0.2329   -0.5540 C   0  0  0  0  0  0  0  0  0  0  0  0
    1.7529   -0.6059   -1.4365 C   0  0  1  0  0  0  0  0  0  0  0  0
    2.3096    0.0133   -2.6004 O   0  0  0  0  0  0  0  0  0  0  0  0
    3.2138   -0.4014   -1.5627 C   0  0  2  0  0  0  0  0  0  0  0  0
    4.1269   -1.5636   -1.9415 C   0  0  0  0  0  0  0  0  0  0  0  0
    4.7253   -2.1633   -0.8115 O   0  0  0  0  0  0  0  0  0  0  0  0
    3.8819    0.6441   -0.8215 C   0  0  0  0  0  0  0  0  0  0  0  0
    4.5154    1.4569   -0.1999 C   0  0  0  0  0  0  0  0  0  0  0  0
    0.1848   -1.4151    0.7109 H   0  0  0  0  0  0  0  0  0  0  0  0
    1.5765   -0.5359    1.3578 H   0  0  0  0  0  0  0  0  0  0  0  0
   -0.0386    0.1855    1.4263 H   0  0  0  0  0  0  0  0  0  0  0  0
   -0.0952    0.3755   -1.0686 H   0  0  0  0  0  0  0  0  0  0  0  0
    1.3115    1.2239   -0.4364 H   0  0  0  0  0  0  0  0  0  0  0  0
    1.4074   -1.6285   -1.6071 H   0  0  0  0  0  0  0  0  0  0  0  0
    3.5289   -2.3339   -2.4357 H   0  0  0  0  0  0  0  0  0  0  0  0
    4.8757   -1.2028   -2.6630 H   0  0  0  0  0  0  0  0  0  0  0  0
    5.2466   -1.4843   -0.3675 H   0  0  0  0  0  0  0  0  0  0  0  0
    5.0501    2.1967    0.3439 H   0  0  0  0  0  0  0  0  0  0  0  0
  1 11  1  0  0  0  0
  1 12  1  0  0  0  0
  2 14  1  0  0  0  0
  2  1  1  0  0  0  0
  3 15  1  6  0  0  0
  3  2  1  0  0  0  0
  4  5  1  0  0  0  0
  4  3  1  0  0  0  0
  5  3  1  0  0  0  0
  5  8  1  1  0  0  0
  6  5  1  0  0  0  0
  6  7  1  0  0  0  0
  7 18  1  0  0  0  0
  8  9  3  0  0  0  0
  9 19  1  0  0  0  0
 10  1  1  0  0  0  0
 13  2  1  0  0  0  0
 16  6  1  0  0  0  0
 17  6  1  0  0  0  0
M TOR 0 0 1 2 3
M TOR 1 0 1 2 4
M TOR 2 0 1 2 14
M TOR 3 1 2 3 4
M TOR 4 1 2 4 5
M TOR 5 1 2 4 7
M TOR 6 2 1 0 9
M TOR 7 2 1 0 10
M TOR 8 2 1 0 11
M TOR 9 2 3 4 5
M TOR 10 2 3 4 7
M TOR 11 2 4 5 6
M TOR 12 2 4 5 15
M TOR 13 2 4 5 16
M TOR 14 2 4 7 8
M TOR 15 3 2 1 12
M TOR 16 3 2 1 13
M TOR 17 3 4 2 14
M TOR 18 3 4 5 6
M TOR 19 3 4 5 15
M TOR 20 3 4 5 16
M TOR 21 3 4 7 8
M TOR 22 4 2 1 12
M TOR 23 4 2 1 13
M TOR 24 4 5 6 17
M TOR 25 4 7 8 18
M TOR 26 5 4 2 14
M TOR 27 5 4 7 8
M TOR 28 6 5 4 7
M TOR 29 7 4 2 14
M TOR 30 7 4 5 15
M TOR 31 7 4 5 16
M  END
$$$$
