gdb 4199	2.4318282	1.7371438	1.3777428	3.1502	74.12	-0.25244	0.07156	0.324	1015.8488	0.157183	-422.530854	-422.522903	-422.521959	-422.563013	30.97
 OpenBabel02181911413D

 19 21  0  0  1  0  0  0  0  0999 V2000
    3.0719    1.3078   -0.1930 C   0  0  0  0  0  0  0  0  0  0  0  0
    1.9971    0.2129   -0.1652 C   0  0  1  0  0  0  0  0  0  0  0  0
    2.2109   -0.8880   -1.2464 C   0  0  0  0  0  0  0  0  0  0  0  0
    2.8790   -2.0403   -0.5167 C   0  0  1  0  0  0  0  0  0  0  0  0
    4.0168   -1.6452    0.2581 O   0  0  0  0  0  0  0  0  0  0  0  0
    2.7632   -1.8426    0.9335 C   0  0  1  0  0  0  0  0  0  0  0  0
    2.0087   -0.5675    1.1635 C   0  0  2  0  0  0  0  0  0  0  0  0
    0.9346   -0.4917    2.1638 C   0  0  0  0  0  0  0  0  0  0  0  0
    2.1948    0.1463    2.3852 O   0  0  0  0  0  0  0  0  0  0  0  0
    2.9349    1.9970    0.6444 H   0  0  0  0  0  0  0  0  0  0  0  0
    4.0700    0.8708   -0.1177 H   0  0  0  0  0  0  0  0  0  0  0  0
    3.0100    1.8790   -1.1250 H   0  0  0  0  0  0  0  0  0  0  0  0
    1.0189    0.6841   -0.3020 H   0  0  0  0  0  0  0  0  0  0  0  0
    1.2541   -1.2359   -1.6531 H   0  0  0  0  0  0  0  0  0  0  0  0
    2.8123   -0.5286   -2.0874 H   0  0  0  0  0  0  0  0  0  0  0  0
    2.9428   -3.0269   -0.9692 H   0  0  0  0  0  0  0  0  0  0  0  0
    2.7406   -2.6463    1.6642 H   0  0  0  0  0  0  0  0  0  0  0  0
    0.0926    0.1774    1.9895 H   0  0  0  0  0  0  0  0  0  0  0  0
    0.7219   -1.3428    2.8108 H   0  0  0  0  0  0  0  0  0  0  0  0
  1  2  1  0  0  0  0
  1 11  1  0  0  0  0
  1 10  1  0  0  0  0
  2 13  1  6  0  0  0
  2  7  1  0  0  0  0
  3  4  1  0  0  0  0
  3  2  1  0  0  0  0
  4 16  1  6  0  0  0
  4  5  1  0  0  0  0
  4  6  1  0  0  0  0
  5  6  1  0  0  0  0
  6  7  1  0  0  0  0
  6 17  1  1  0  0  0
  7  8  1  0  0  0  0
  7  9  1  1  0  0  0
  8  9  1  0  0  0  0
  8 19  1  0  0  0  0
 12  1  1  0  0  0  0
 14  3  1  0  0  0  0
 15  3  1  0  0  0  0
 18  8  1  0  0  0  0
M TOR 0 0 1 2 3
M TOR 1 0 1 2 13
M TOR 2 0 1 2 14
M TOR 3 0 1 6 5
M TOR 4 0 1 6 7
M TOR 5 0 1 6 8
M TOR 6 1 2 3 4
M TOR 7 1 2 3 5
M TOR 8 1 2 3 15
M TOR 9 1 6 5 3
M TOR 10 1 6 5 4
M TOR 11 1 6 5 16
M TOR 12 1 6 7 8
M TOR 13 1 6 7 17
M TOR 14 1 6 7 18
M TOR 15 2 1 0 9
M TOR 16 2 1 0 10
M TOR 17 2 1 0 11
M TOR 18 2 1 6 5
M TOR 19 2 1 6 7
M TOR 20 2 1 6 8
M TOR 21 2 3 4 5
M TOR 22 2 3 5 6
M TOR 23 2 3 5 16
M TOR 24 3 2 1 6
M TOR 25 3 2 1 12
M TOR 26 3 4 5 6
M TOR 27 3 4 5 16
M TOR 28 3 5 6 7
M TOR 29 3 5 6 8
M TOR 30 4 3 2 13
M TOR 31 4 3 2 14
M TOR 32 4 5 3 15
M TOR 33 4 5 6 7
M TOR 34 4 5 6 8
M TOR 35 5 3 2 13
M TOR 36 5 3 2 14
M TOR 37 5 6 1 12
M TOR 38 5 6 7 8
M TOR 39 5 6 7 17
M TOR 40 5 6 7 18
M TOR 41 6 1 0 9
M TOR 42 6 1 0 10
M TOR 43 6 1 0 11
M TOR 44 6 1 2 13
M TOR 45 6 1 2 14
M TOR 46 6 5 3 15
M TOR 47 6 8 7 17
M TOR 48 6 8 7 18
M TOR 49 7 6 1 12
M TOR 50 7 6 5 16
M TOR 51 8 6 1 12
M TOR 52 8 6 5 16
M  END
$$$$
