gdb 3939	3.3274118	1.4331642	1.2899365	1.4005	73.67	-0.21904	0.06777	0.28681	1038.4785	0.158019	-422.516052	-422.508244	-422.5073	-422.547943	30.95
 OpenBabel02181911413D

 19 21  0  0  1  0  0  0  0  0999 V2000
    0.4113   -0.0770    0.2503 O   0  0  0  0  0  0  0  0  0  0  0  0
   -0.8143    0.4330    0.7101 C   0  0  2  0  0  0  0  0  0  0  0  0
   -2.1599    0.0400   -0.0160 C   0  0  0  0  0  0  0  0  0  0  0  0
   -2.4530    1.5365   -0.1345 C   0  0  2  0  0  0  0  0  0  0  0  0
   -1.4248    2.2683   -0.9348 C   0  0  0  0  0  0  0  0  0  0  0  0
   -1.1426    1.9270    0.5236 C   0  0  2  0  0  0  0  0  0  0  0  0
   -1.5188    2.9407    1.5814 C   0  0  0  0  0  0  0  0  0  0  0  0
   -2.9996    3.2920    1.2062 C   0  0  0  0  0  0  0  0  0  0  0  0
   -3.5325    2.1974    0.4376 O   0  0  0  0  0  0  0  0  0  0  0  0
    0.5779    0.2863   -0.6258 H   0  0  0  0  0  0  0  0  0  0  0  0
   -0.8647    0.1626    1.7681 H   0  0  0  0  0  0  0  0  0  0  0  0
   -2.0688   -0.5088   -0.9583 H   0  0  0  0  0  0  0  0  0  0  0  0
   -2.8530   -0.4869    0.6415 H   0  0  0  0  0  0  0  0  0  0  0  0
   -0.8896    1.7625   -1.7355 H   0  0  0  0  0  0  0  0  0  0  0  0
   -1.6175    3.3150   -1.1401 H   0  0  0  0  0  0  0  0  0  0  0  0
   -1.4724    2.4718    2.5698 H   0  0  0  0  0  0  0  0  0  0  0  0
   -0.9030    3.8447    1.6146 H   0  0  0  0  0  0  0  0  0  0  0  0
   -3.6471    3.4344    2.0759 H   0  0  0  0  0  0  0  0  0  0  0  0
   -3.0330    4.2124    0.6080 H   0  0  0  0  0  0  0  0  0  0  0  0
  1  2  1  0  0  0  0
  2 11  1  1  0  0  0
  3 13  1  0  0  0  0
  3  2  1  0  0  0  0
  4  3  1  0  0  0  0
  4  9  1  1  0  0  0
  4  6  1  0  0  0  0
  5  4  1  0  0  0  0
  6  5  1  6  0  0  0
  6  2  1  0  0  0  0
  6  7  1  0  0  0  0
  7 17  1  0  0  0  0
  7 16  1  0  0  0  0
  8  7  1  0  0  0  0
  8 18  1  0  0  0  0
  9  8  1  0  0  0  0
 10  1  1  0  0  0  0
 12  3  1  0  0  0  0
 14  5  1  0  0  0  0
 15  5  1  0  0  0  0
 19  8  1  0  0  0  0
M TOR 0 0 1 2 3
M TOR 1 0 1 2 11
M TOR 2 0 1 2 12
M TOR 3 0 1 5 3
M TOR 4 0 1 5 4
M TOR 5 0 1 5 6
M TOR 6 1 2 3 4
M TOR 7 1 2 3 5
M TOR 8 1 2 3 8
M TOR 9 1 5 3 4
M TOR 10 1 5 3 8
M TOR 11 1 5 4 13
M TOR 12 1 5 4 14
M TOR 13 1 5 6 7
M TOR 14 1 5 6 15
M TOR 15 1 5 6 16
M TOR 16 2 1 0 9
M TOR 17 2 1 5 4
M TOR 18 2 1 5 6
M TOR 19 2 3 4 5
M TOR 20 2 3 4 13
M TOR 21 2 3 4 14
M TOR 22 2 3 5 6
M TOR 23 2 3 8 7
M TOR 24 3 2 1 10
M TOR 25 3 4 5 6
M TOR 26 3 5 1 10
M TOR 27 3 5 4 13
M TOR 28 3 5 4 14
M TOR 29 3 5 6 7
M TOR 30 3 5 6 15
M TOR 31 3 5 6 16
M TOR 32 3 8 7 6
M TOR 33 3 8 7 17
M TOR 34 3 8 7 18
M TOR 35 4 3 2 11
M TOR 36 4 3 2 12
M TOR 37 4 3 8 7
M TOR 38 4 5 1 10
M TOR 39 4 5 3 8
M TOR 40 4 5 6 7
M TOR 41 4 5 6 15
M TOR 42 4 5 6 16
M TOR 43 5 1 0 9
M TOR 44 5 1 2 11
M TOR 45 5 1 2 12
M TOR 46 5 3 2 11
M TOR 47 5 3 2 12
M TOR 48 5 3 8 7
M TOR 49 5 6 7 8
M TOR 50 5 6 7 17
M TOR 51 5 6 7 18
M TOR 52 6 5 1 10
M TOR 53 6 5 3 8
M TOR 54 6 5 4 13
M TOR 55 6 5 4 14
M TOR 56 8 3 2 11
M TOR 57 8 3 2 12
M TOR 58 8 3 4 13
M TOR 59 8 3 4 14
M TOR 60 8 7 6 15
M TOR 61 8 7 6 16
M  END
$$$$
