gdb 6000	3.2507971	0.988175	0.7723084	2.4098	80.29	-0.23712	-0.03772	0.1994	1481.0663	0.156126	-422.580238	-422.570889	-422.569945	-422.615437	32.664
 OpenBabel02181911423D

 19 19  0  0  0  0  0  0  0  0999 V2000
    1.5909    0.4855   -0.1003 C   0  0  0  0  0  0  0  0  0  0  0  0
    0.2066    0.7387   -0.0528 O   0  0  0  0  0  0  0  0  0  0  0  0
   -0.4291    0.0917    1.0239 C   0  0  0  0  0  0  0  0  0  0  0  0
   -1.8881    0.4023    1.0134 C   0  0  0  0  0  0  0  0  0  0  0  0
   -2.5771    1.1655    0.1556 C   0  0  0  0  0  0  0  0  0  0  0  0
   -4.0499    1.2419    0.4737 C   0  0  0  0  0  0  0  0  0  0  0  0
   -4.2106    0.3661    1.7320 C   0  0  0  0  0  0  0  0  0  0  0  0
   -2.7995   -0.1530    2.0425 C   0  0  0  0  0  0  0  0  0  0  0  0
   -2.4848   -0.8795    2.9592 O   0  0  0  0  0  0  0  0  0  0  0  0
    1.8055   -0.5880   -0.2205 H   0  0  0  0  0  0  0  0  0  0  0  0
    1.9919    1.0252   -0.9613 H   0  0  0  0  0  0  0  0  0  0  0  0
    2.1014    0.8367    0.8102 H   0  0  0  0  0  0  0  0  0  0  0  0
   -0.2850   -1.0020    0.9727 H   0  0  0  0  0  0  0  0  0  0  0  0
    0.0069    0.4035    1.9895 H   0  0  0  0  0  0  0  0  0  0  0  0
   -2.1355    1.6834   -0.6876 H   0  0  0  0  0  0  0  0  0  0  0  0
   -4.3609    2.2804    0.6413 H   0  0  0  0  0  0  0  0  0  0  0  0
   -4.6518    0.8816   -0.3696 H   0  0  0  0  0  0  0  0  0  0  0  0
   -4.5909    0.9194    2.5956 H   0  0  0  0  0  0  0  0  0  0  0  0
   -4.8836   -0.4832    1.5820 H   0  0  0  0  0  0  0  0  0  0  0  0
  1  2  1  0  0  0  0
  1 12  1  0  0  0  0
  2  3  1  0  0  0  0
  3 14  1  0  0  0  0
  4  3  1  0  0  0  0
  4  8  1  0  0  0  0
  5  6  1  0  0  0  0
  5  4  2  0  0  0  0
  6 16  1  0  0  0  0
  6  7  1  0  0  0  0
  7  8  1  0  0  0  0
  7 18  1  0  0  0  0
  8  9  2  0  0  0  0
 10  1  1  0  0  0  0
 11  1  1  0  0  0  0
 13  3  1  0  0  0  0
 15  5  1  0  0  0  0
 17  6  1  0  0  0  0
 19  7  1  0  0  0  0
M TOR 0 0 1 2 3
M TOR 1 0 1 2 12
M TOR 2 0 1 2 13
M TOR 3 1 2 3 4
M TOR 4 1 2 3 7
M TOR 5 2 1 0 9
M TOR 6 2 1 0 10
M TOR 7 2 1 0 11
M TOR 8 2 3 4 5
M TOR 9 2 3 4 14
M TOR 10 2 3 7 6
M TOR 11 2 3 7 8
M TOR 12 3 4 5 6
M TOR 13 3 4 5 15
M TOR 14 3 4 5 16
M TOR 15 3 7 6 5
M TOR 16 3 7 6 17
M TOR 17 3 7 6 18
M TOR 18 4 3 2 12
M TOR 19 4 3 2 13
M TOR 20 4 3 7 6
M TOR 21 4 3 7 8
M TOR 22 4 5 6 7
M TOR 23 4 5 6 17
M TOR 24 4 5 6 18
M TOR 25 5 4 3 7
M TOR 26 5 6 7 8
M TOR 27 6 5 4 14
M TOR 28 7 3 2 12
M TOR 29 7 3 2 13
M TOR 30 7 3 4 14
M TOR 31 7 6 5 15
M TOR 32 7 6 5 16
M TOR 33 8 7 6 17
M TOR 34 8 7 6 18
M  END
$$$$
