gdb 4790	2.6335114	1.0132044	0.791736	3.1331	77.41	-0.25595	0.04659	0.30254000000000003	1435.7732	0.154659	-422.498178	-422.488357	-422.487413	-422.533386	35.453
 OpenBabel02181911413D

 19 19  0  0  1  0  0  0  0  0999 V2000
   -1.4671    2.8291   -1.8897 O   0  0  0  0  0  0  0  0  0  0  0  0
   -1.4604    2.7181   -0.4830 C   0  0  0  0  0  0  0  0  0  0  0  0
   -1.8456    1.3067   -0.0035 C   0  0  1  0  0  0  0  0  0  0  0  0
   -1.5282    1.0919    1.4964 C   0  0  0  0  0  0  0  0  0  0  0  0
   -0.1037    1.1334    1.8007 C   0  0  0  0  0  0  0  0  0  0  0  0
    1.0748    1.1622    2.0346 C   0  0  0  0  0  0  0  0  0  0  0  0
   -3.3220    1.0479   -0.2387 C   0  0  2  0  0  0  0  0  0  0  0  0
   -3.8209   -0.1157   -0.9824 C   0  0  0  0  0  0  0  0  0  0  0  0
   -3.7948    1.1811   -1.5899 O   0  0  0  0  0  0  0  0  0  0  0  0
   -2.2959    2.4456   -2.2028 H   0  0  0  0  0  0  0  0  0  0  0  0
   -0.4429    2.9477   -0.1522 H   0  0  0  0  0  0  0  0  0  0  0  0
   -2.1332    3.4566   -0.0099 H   0  0  0  0  0  0  0  0  0  0  0  0
   -1.2587    0.5956   -0.5955 H   0  0  0  0  0  0  0  0  0  0  0  0
   -2.0518    1.8544    2.0898 H   0  0  0  0  0  0  0  0  0  0  0  0
   -1.9393    0.1260    1.8174 H   0  0  0  0  0  0  0  0  0  0  0  0
    2.1146    1.1895    2.2484 H   0  0  0  0  0  0  0  0  0  0  0  0
   -3.9925    1.5069    0.4915 H   0  0  0  0  0  0  0  0  0  0  0  0
   -3.1095   -0.8334   -1.3875 H   0  0  0  0  0  0  0  0  0  0  0  0
   -4.8171   -0.5060   -0.7830 H   0  0  0  0  0  0  0  0  0  0  0  0
  1  2  1  0  0  0  0
  2 11  1  0  0  0  0
  2 12  1  0  0  0  0
  2  3  1  0  0  0  0
  3 13  1  6  0  0  0
  3  4  1  0  0  0  0
  4  5  1  0  0  0  0
  4 15  1  0  0  0  0
  4 14  1  0  0  0  0
  5  6  3  0  0  0  0
  6 16  1  0  0  0  0
  7  3  1  0  0  0  0
  7 17  1  1  0  0  0
  8 19  1  0  0  0  0
  8  7  1  0  0  0  0
  9  8  1  0  0  0  0
  9  7  1  0  0  0  0
 10  1  1  0  0  0  0
 18  8  1  0  0  0  0
M TOR 0 0 1 2 3
M TOR 1 0 1 2 6
M TOR 2 0 1 2 12
M TOR 3 1 2 3 4
M TOR 4 1 2 3 13
M TOR 5 1 2 3 14
M TOR 6 1 2 6 7
M TOR 7 1 2 6 8
M TOR 8 1 2 6 16
M TOR 9 2 1 0 9
M TOR 10 2 3 4 5
M TOR 11 2 6 7 8
M TOR 12 2 6 7 17
M TOR 13 2 6 7 18
M TOR 14 3 2 1 10
M TOR 15 3 2 1 11
M TOR 16 3 2 6 7
M TOR 17 3 2 6 8
M TOR 18 3 2 6 16
M TOR 19 3 4 5 15
M TOR 20 4 3 2 6
M TOR 21 4 3 2 12
M TOR 22 5 4 3 13
M TOR 23 5 4 3 14
M TOR 24 6 2 1 10
M TOR 25 6 2 1 11
M TOR 26 6 2 3 13
M TOR 27 6 2 3 14
M TOR 28 6 8 7 17
M TOR 29 6 8 7 18
M TOR 30 7 6 2 12
M TOR 31 7 8 6 16
M TOR 32 8 6 2 12
M  END
$$$$
