
     RDKit          3D

 19 21  0  0  0  0  0  0  0  0999 V2000
    0.8518   -0.5982   -0.8842 C   0  0  0  0  0  0  0  0  0  0  0  0
    0.9929    0.1598    0.4277 C   0  0  0  0  0  0  0  0  0  0  0  0
    2.1002   -0.3092    1.3872 C   0  0  0  0  0  0  0  0  0  0  0  0
    1.8348    0.6531    2.6089 C   0  0  0  0  0  0  0  0  0  0  0  0
    1.9394    1.9476    1.7631 C   0  0  0  0  0  0  0  0  0  0  0  0
    0.9509    2.9074    1.2329 O   0  0  0  0  0  0  0  0  0  0  0  0
    1.5459    2.7214   -0.0998 C   0  0  0  0  0  0  0  0  0  0  0  0
    1.9921    1.3371    0.3980 C   0  0  0  0  0  0  0  0  0  0  0  0
    3.0924    0.3777    0.5037 O   0  0  0  0  0  0  0  0  0  0  0  0
    0.3334   -1.5500   -0.7270 H   0  0  0  0  0  0  0  0  0  0  0  0
    0.2637   -0.0219   -1.6067 H   0  0  0  0  0  0  0  0  0  0  0  0
    1.8307   -0.8056   -1.3223 H   0  0  0  0  0  0  0  0  0  0  0  0
    0.0196    0.3712    0.8788 H   0  0  0  0  0  0  0  0  0  0  0  0
    2.3587   -1.3516    1.5712 H   0  0  0  0  0  0  0  0  0  0  0  0
    0.8650    0.4415    3.0638 H   0  0  0  0  0  0  0  0  0  0  0  0
    2.6046    0.6185    3.3817 H   0  0  0  0  0  0  0  0  0  0  0  0
    2.8438    2.5099    2.0199 H   0  0  0  0  0  0  0  0  0  0  0  0
    0.7965    2.7690   -0.8943 H   0  0  0  0  0  0  0  0  0  0  0  0
    2.3531    3.4420   -0.2785 H   0  0  0  0  0  0  0  0  0  0  0  0
  1  2  1  0
  2  3  1  0
  3  4  1  0
  4  5  1  0
  5  6  1  0
  6  7  1  0
  7  8  1  0
  8  9  1  0
  8  2  1  0
  9  3  1  0
  8  5  1  0
  1 10  1  0
  1 11  1  0
  1 12  1  0
  2 13  1  0
  3 14  1  0
  4 15  1  0
  4 16  1  0
  5 17  1  0
  7 18  1  0
  7 19  1  0
M  END
$$$$
