
     RDKit          3D

 19 20  0  0  0  0  0  0  0  0999 V2000
   -3.4732    0.0743   -2.5217 C   0  0  0  0  0  0  0  0  0  0  0  0
   -2.8457   -0.1022   -1.1330 C   0  0  0  0  0  0  0  0  0  0  0  0
   -1.8634   -1.2914   -1.1142 C   0  0  0  0  0  0  0  0  0  0  0  0
   -0.9093   -1.2826    0.0977 C   0  0  0  0  0  0  0  0  0  0  0  0
   -0.0522   -0.0325    0.0374 C   0  0  0  0  0  0  0  0  0  0  0  0
    1.1574   -0.0321    0.0288 O   0  0  0  0  0  0  0  0  0  0  0  0
   -0.8315    1.2466   -0.0825 C   0  0  0  0  0  0  0  0  0  0  0  0
   -2.0034    1.3236    0.7443 O   0  0  0  0  0  0  0  0  0  0  0  0
   -2.2009    1.1969   -0.6577 C   0  0  0  0  0  0  0  0  0  0  0  0
   -3.9513   -0.8527   -2.8524 H   0  0  0  0  0  0  0  0  0  0  0  0
   -4.2337    0.8617   -2.5202 H   0  0  0  0  0  0  0  0  0  0  0  0
   -2.7142    0.3403   -3.2662 H   0  0  0  0  0  0  0  0  0  0  0  0
   -3.6494   -0.3089   -0.4133 H   0  0  0  0  0  0  0  0  0  0  0  0
   -2.4258   -2.2307   -1.1389 H   0  0  0  0  0  0  0  0  0  0  0  0
   -1.2609   -1.2691   -2.0321 H   0  0  0  0  0  0  0  0  0  0  0  0
   -1.4872   -1.2757    1.0290 H   0  0  0  0  0  0  0  0  0  0  0  0
   -0.2506   -2.1535    0.0978 H   0  0  0  0  0  0  0  0  0  0  0  0
   -0.2352    2.1546   -0.1456 H   0  0  0  0  0  0  0  0  0  0  0  0
   -2.5653    2.1103   -1.1310 H   0  0  0  0  0  0  0  0  0  0  0  0
  1  2  1  0
  2  3  1  0
  3  4  1  0
  4  5  1  0
  5  6  2  0
  5  7  1  0
  7  8  1  0
  8  9  1  0
  9  2  1  0
  9  7  1  0
  1 10  1  0
  1 11  1  0
  1 12  1  0
  2 13  1  0
  3 14  1  0
  3 15  1  0
  4 16  1  0
  4 17  1  0
  7 18  1  0
  9 19  1  0
M  END
$$$$
