
     RDKit          3D

 19 21  0  0  0  0  0  0  0  0999 V2000
   -0.7698   -0.0099   -0.0077 O   0  0  0  0  0  0  0  0  0  0  0  0
   -2.1057    0.3127    0.1504 C   0  0  0  0  0  0  0  0  0  0  0  0
   -3.1903   -0.7235    0.2070 C   0  0  0  0  0  0  0  0  0  0  0  0
   -3.1963    0.2974   -0.9116 C   0  0  0  0  0  0  0  0  0  0  0  0
   -3.7510    1.6316   -0.3853 C   0  0  0  0  0  0  0  0  0  0  0  0
   -2.6034    1.6598    0.6868 C   0  0  0  0  0  0  0  0  0  0  0  0
   -3.6816    2.7696   -1.3647 C   0  0  0  0  0  0  0  0  0  0  0  0
   -4.5820    3.9264   -1.2868 C   0  0  0  0  0  0  0  0  0  0  0  0
   -4.7800    2.9096   -2.2709 O   0  0  0  0  0  0  0  0  0  0  0  0
   -0.4808   -0.5000    0.7698 H   0  0  0  0  0  0  0  0  0  0  0  0
   -2.8713   -1.7150   -0.0991 H   0  0  0  0  0  0  0  0  0  0  0  0
   -3.9579   -0.7085    0.9788 H   0  0  0  0  0  0  0  0  0  0  0  0
   -3.1531    0.0013   -1.9524 H   0  0  0  0  0  0  0  0  0  0  0  0
   -4.7668    1.5677    0.0199 H   0  0  0  0  0  0  0  0  0  0  0  0
   -1.8869    2.4610    0.4854 H   0  0  0  0  0  0  0  0  0  0  0  0
   -2.9006    1.7033    1.7398 H   0  0  0  0  0  0  0  0  0  0  0  0
   -2.7051    2.9178   -1.8314 H   0  0  0  0  0  0  0  0  0  0  0  0
   -5.3348    3.9672   -0.5001 H   0  0  0  0  0  0  0  0  0  0  0  0
   -4.2598    4.8939   -1.6696 H   0  0  0  0  0  0  0  0  0  0  0  0
  1  2  1  0
  2  3  1  0
  3  4  1  0
  4  5  1  0
  5  6  1  0
  5  7  1  0
  7  8  1  0
  8  9  1  0
  4  2  1  0
  9  7  1  0
  6  2  1  0
  1 10  1  0
  3 11  1  0
  3 12  1  0
  4 13  1  0
  5 14  1  0
  6 15  1  0
  6 16  1  0
  7 17  1  0
  8 18  1  0
  8 19  1  0
M  END
$$$$
