
     RDKit          3D

 19 21  0  0  0  0  0  0  0  0999 V2000
    0.8592    1.4637   -0.3575 C   0  0  0  0  0  0  0  0  0  0  0  0
    1.2284   -0.0029   -0.5204 C   0  0  0  0  0  0  0  0  0  0  0  0
    0.4507   -1.0591   -1.3111 C   0  0  0  0  0  0  0  0  0  0  0  0
   -0.7357   -1.3103   -0.3468 C   0  0  0  0  0  0  0  0  0  0  0  0
   -0.4297   -2.1151    0.9360 C   0  0  0  0  0  0  0  0  0  0  0  0
    0.5774   -1.5392    1.7672 O   0  0  0  0  0  0  0  0  0  0  0  0
    0.4937   -0.1123    1.9259 C   0  0  0  0  0  0  0  0  0  0  0  0
    0.2589    0.4420    0.5526 C   0  0  0  0  0  0  0  0  0  0  0  0
   -1.0247    0.0234    0.1014 O   0  0  0  0  0  0  0  0  0  0  0  0
    1.6499    2.1144    0.0031 H   0  0  0  0  0  0  0  0  0  0  0  0
    0.1601    1.9299   -1.0441 H   0  0  0  0  0  0  0  0  0  0  0  0
    2.2305   -0.2667   -0.2029 H   0  0  0  0  0  0  0  0  0  0  0  0
    0.0756   -0.7079   -2.2779 H   0  0  0  0  0  0  0  0  0  0  0  0
    1.0631   -1.9474   -1.4890 H   0  0  0  0  0  0  0  0  0  0  0  0
   -1.6267   -1.7230   -0.8317 H   0  0  0  0  0  0  0  0  0  0  0  0
   -1.3781   -2.1922    1.4911 H   0  0  0  0  0  0  0  0  0  0  0  0
   -0.0814   -3.1280    0.7074 H   0  0  0  0  0  0  0  0  0  0  0  0
   -0.3224    0.1555    2.6117 H   0  0  0  0  0  0  0  0  0  0  0  0
    1.4476    0.1977    2.3614 H   0  0  0  0  0  0  0  0  0  0  0  0
  1  2  1  0
  2  3  1  0
  3  4  1  0
  4  5  1  0
  5  6  1  0
  6  7  1  0
  7  8  1  0
  8  9  1  0
  8  1  1  0
  8  2  1  0
  9  4  1  0
  1 10  1  0
  1 11  1  0
  2 12  1  0
  3 13  1  0
  3 14  1  0
  4 15  1  0
  5 16  1  0
  5 17  1  0
  7 18  1  0
  7 19  1  0
M  END
$$$$
