
     RDKit          3D

 19 20  0  0  0  0  0  0  0  0999 V2000
    1.7318    0.7699   -0.1555 O   0  0  0  0  0  0  0  0  0  0  0  0
    0.7843    0.1204    0.6899 C   0  0  0  0  0  0  0  0  0  0  0  0
   -0.5459    0.7999    0.6773 C   0  0  0  0  0  0  0  0  0  0  0  0
   -1.7660    0.2770    0.4879 C   0  0  0  0  0  0  0  0  0  0  0  0
   -2.7563    1.4043    0.7329 C   0  0  0  0  0  0  0  0  0  0  0  0
   -1.9888    2.6035    0.1554 C   0  0  0  0  0  0  0  0  0  0  0  0
   -0.7465    2.2718    1.0240 C   0  0  0  0  0  0  0  0  0  0  0  0
   -1.4430    2.2686    2.4182 C   0  0  0  0  0  0  0  0  0  0  0  0
   -2.7327    1.6986    2.1621 O   0  0  0  0  0  0  0  0  0  0  0  0
    1.3662    0.7682   -1.0464 H   0  0  0  0  0  0  0  0  0  0  0  0
    0.6679   -0.9419    0.4275 H   0  0  0  0  0  0  0  0  0  0  0  0
    1.2285    0.1592    1.6923 H   0  0  0  0  0  0  0  0  0  0  0  0
   -2.0192   -0.7646    0.3317 H   0  0  0  0  0  0  0  0  0  0  0  0
   -3.7937    1.2477    0.4433 H   0  0  0  0  0  0  0  0  0  0  0  0
   -1.7925    2.5266   -0.9151 H   0  0  0  0  0  0  0  0  0  0  0  0
   -2.4592    3.5618    0.3929 H   0  0  0  0  0  0  0  0  0  0  0  0
    0.1308    2.9116    0.9455 H   0  0  0  0  0  0  0  0  0  0  0  0
   -0.9038    1.6675    3.1599 H   0  0  0  0  0  0  0  0  0  0  0  0
   -1.5640    3.2864    2.8099 H   0  0  0  0  0  0  0  0  0  0  0  0
  1  2  1  0
  2  3  1  0
  3  4  2  0
  4  5  1  0
  5  6  1  0
  6  7  1  0
  7  8  1  0
  8  9  1  0
  7  3  1  0
  9  5  1  0
  1 10  1  0
  2 11  1  0
  2 12  1  0
  4 13  1  0
  5 14  1  0
  6 15  1  0
  6 16  1  0
  7 17  1  0
  8 18  1  0
  8 19  1  0
M  END
$$$$
