
     RDKit          3D

 19 19  0  0  0  0  0  0  0  0999 V2000
    1.6511   -0.9106   -0.5540 C   0  0  0  0  0  0  0  0  0  0  0  0
    0.8717    0.1867    0.1914 C   0  0  0  0  0  0  0  0  0  0  0  0
    1.4676    1.5440    0.0408 C   0  0  0  0  0  0  0  0  0  0  0  0
    1.0342    2.7067   -0.5142 C   0  0  0  0  0  0  0  0  0  0  0  0
    2.0890    3.6723   -0.3456 C   0  0  0  0  0  0  0  0  0  0  0  0
    2.0932    5.0970   -0.8029 C   0  0  0  0  0  0  0  0  0  0  0  0
    1.8352    5.2298   -2.1975 O   0  0  0  0  0  0  0  0  0  0  0  0
    3.0872    3.0067    0.2936 C   0  0  0  0  0  0  0  0  0  0  0  0
    2.7294    1.7182    0.5424 O   0  0  0  0  0  0  0  0  0  0  0  0
    1.1882   -1.8892   -0.3961 H   0  0  0  0  0  0  0  0  0  0  0  0
    1.6737   -0.7116   -1.6298 H   0  0  0  0  0  0  0  0  0  0  0  0
    2.6839   -0.9599   -0.1987 H   0  0  0  0  0  0  0  0  0  0  0  0
   -0.1594    0.2321   -0.1732 H   0  0  0  0  0  0  0  0  0  0  0  0
    0.8160   -0.0714    1.2571 H   0  0  0  0  0  0  0  0  0  0  0  0
    0.0809    2.8718   -0.9921 H   0  0  0  0  0  0  0  0  0  0  0  0
    1.2940    5.6646   -0.3130 H   0  0  0  0  0  0  0  0  0  0  0  0
    3.0456    5.5730   -0.5214 H   0  0  0  0  0  0  0  0  0  0  0  0
    2.4496    4.6467   -2.6557 H   0  0  0  0  0  0  0  0  0  0  0  0
    4.0662    3.2990    0.6380 H   0  0  0  0  0  0  0  0  0  0  0  0
  1  2  1  0
  2  3  1  0
  3  4  2  0
  4  5  1  0
  5  6  1  0
  6  7  1  0
  5  8  2  0
  8  9  1  0
  9  3  1  0
  1 10  1  0
  1 11  1  0
  1 12  1  0
  2 13  1  0
  2 14  1  0
  4 15  1  0
  6 16  1  0
  6 17  1  0
  7 18  1  0
  8 19  1  0
M  END
$$$$
