
     RDKit          3D

 19 21  0  0  0  0  0  0  0  0999 V2000
   -1.1422    3.2467    1.5023 C   0  0  0  0  0  0  0  0  0  0  0  0
   -2.5532    2.9787    1.6208 O   0  0  0  0  0  0  0  0  0  0  0  0
   -2.3414    1.5581    1.5028 C   0  0  0  0  0  0  0  0  0  0  0  0
   -0.8122    1.7421    1.3465 C   0  0  0  0  0  0  0  0  0  0  0  0
   -0.2116    1.3155    0.0289 C   0  0  0  0  0  0  0  0  0  0  0  0
    1.3375    1.3135   -0.1376 C   0  0  0  0  0  0  0  0  0  0  0  0
    1.2048    0.3118   -1.3078 C   0  0  0  0  0  0  0  0  0  0  0  0
    0.3056   -0.1450   -0.1360 C   0  0  0  0  0  0  0  0  0  0  0  0
    1.4189    0.1625    0.7948 O   0  0  0  0  0  0  0  0  0  0  0  0
   -0.9148    3.8745    0.6295 H   0  0  0  0  0  0  0  0  0  0  0  0
   -0.7388    3.7322    2.3997 H   0  0  0  0  0  0  0  0  0  0  0  0
   -2.6667    1.0177    2.4005 H   0  0  0  0  0  0  0  0  0  0  0  0
   -2.8595    1.1363    0.6303 H   0  0  0  0  0  0  0  0  0  0  0  0
   -0.2256    1.3258    2.1654 H   0  0  0  0  0  0  0  0  0  0  0  0
   -0.7711    1.7104   -0.8270 H   0  0  0  0  0  0  0  0  0  0  0  0
    2.0522    2.1248    0.0052 H   0  0  0  0  0  0  0  0  0  0  0  0
    0.7253    0.6501   -2.2296 H   0  0  0  0  0  0  0  0  0  0  0  0
    2.0833   -0.3100   -1.4800 H   0  0  0  0  0  0  0  0  0  0  0  0
   -0.2215   -1.0888    0.0086 H   0  0  0  0  0  0  0  0  0  0  0  0
  1  2  1  0
  2  3  1  0
  3  4  1  0
  4  5  1  0
  5  6  1  0
  6  7  1  0
  7  8  1  0
  8  9  1  0
  4  1  1  0
  8  5  1  0
  9  6  1  0
  1 10  1  0
  1 11  1  0
  3 12  1  0
  3 13  1  0
  4 14  1  0
  5 15  1  0
  6 16  1  0
  7 17  1  0
  7 18  1  0
  8 19  1  0
M  END
$$$$
