gdb 1733	2.2260933	1.92312	1.5094599	0.6776	74.06	-0.23137	0.05749	0.28886	975.0819	0.155675	-422.513906	-422.505404	-422.50446	-422.546097	33.709
 OpenBabel02181911403D

 19 21  0  0  1  0  0  0  0  0999 V2000
   -0.1393   -0.0286    0.1568 C   0  0  0  0  0  0  0  0  0  0  0  0
    1.3699   -0.0108   -0.0277 C   0  0  2  0  0  0  0  0  0  0  0  0
    2.0190   -0.3731    1.1941 O   0  0  0  0  0  0  0  0  0  0  0  0
    2.1106    1.2519   -0.5692 C   0  0  2  0  0  0  0  0  0  0  0  0
    1.4631    1.5563   -1.9470 C   0  0  0  0  0  0  0  0  0  0  0  0
    2.0680    0.2264   -2.3970 C   0  0  1  0  0  0  0  0  0  0  0  0
    3.1255    0.2863   -1.3054 C   0  0  2  0  0  0  0  0  0  0  0  0
    2.0209   -0.7356   -1.2090 C   0  0  1  0  0  0  0  0  0  0  0  0
    2.0670   -2.0984   -1.4215 O   0  0  0  0  0  0  0  0  0  0  0  0
   -0.4368    0.6481    0.9641 H   0  0  0  0  0  0  0  0  0  0  0  0
   -0.6699    0.2533   -0.7550 H   0  0  0  0  0  0  0  0  0  0  0  0
   -0.4729   -1.0405    0.4205 H   0  0  0  0  0  0  0  0  0  0  0  0
    1.5713   -1.1533    1.5376 H   0  0  0  0  0  0  0  0  0  0  0  0
    2.3738    2.0350    0.1380 H   0  0  0  0  0  0  0  0  0  0  0  0
    0.3791    1.7063   -1.9918 H   0  0  0  0  0  0  0  0  0  0  0  0
    1.9621    2.3960   -2.4396 H   0  0  0  0  0  0  0  0  0  0  0  0
    2.1790   -0.1692   -3.3989 H   0  0  0  0  0  0  0  0  0  0  0  0
    4.2013    0.2065   -1.3304 H   0  0  0  0  0  0  0  0  0  0  0  0
    2.6159   -2.4776   -0.7252 H   0  0  0  0  0  0  0  0  0  0  0  0
  1 12  1  0  0  0  0
  1 10  1  0  0  0  0
  2  1  1  0  0  0  0
  2  3  1  1  0  0  0
  3 13  1  0  0  0  0
  4  2  1  0  0  0  0
  4 14  1  1  0  0  0
  5  4  1  0  0  0  0
  6 17  1  6  0  0  0
  6  5  1  0  0  0  0
  6  7  1  0  0  0  0
  6  8  1  0  0  0  0
  7 18  1  6  0  0  0
  7  8  1  0  0  0  0
  7  4  1  0  0  0  0
  8  9  1  6  0  0  0
  8  2  1  0  0  0  0
  9 19  1  0  0  0  0
 11  1  1  0  0  0  0
 15  5  1  0  0  0  0
 16  5  1  0  0  0  0
M TOR 0 0 1 2 12
M TOR 1 0 1 3 4
M TOR 2 0 1 3 6
M TOR 3 0 1 3 13
M TOR 4 0 1 7 5
M TOR 5 0 1 7 6
M TOR 6 0 1 7 8
M TOR 7 1 3 4 5
M TOR 8 1 3 4 14
M TOR 9 1 3 4 15
M TOR 10 1 3 6 5
M TOR 11 1 3 6 7
M TOR 12 1 3 6 17
M TOR 13 1 7 5 4
M TOR 14 1 7 5 6
M TOR 15 1 7 5 16
M TOR 16 1 7 6 17
M TOR 17 1 7 8 18
M TOR 18 2 1 0 9
M TOR 19 2 1 0 10
M TOR 20 2 1 0 11
M TOR 21 2 1 3 4
M TOR 22 2 1 3 6
M TOR 23 2 1 3 13
M TOR 24 2 1 7 5
M TOR 25 2 1 7 6
M TOR 26 2 1 7 8
M TOR 27 3 1 0 9
M TOR 28 3 1 0 10
M TOR 29 3 1 0 11
M TOR 30 3 1 2 12
M TOR 31 3 1 7 5
M TOR 32 3 1 7 8
M TOR 33 3 4 5 6
M TOR 34 3 4 5 7
M TOR 35 3 4 5 16
M TOR 36 3 6 5 7
M TOR 37 3 6 5 16
M TOR 38 3 6 7 8
M TOR 39 4 3 1 7
M TOR 40 4 3 6 7
M TOR 41 4 3 6 17
M TOR 42 4 5 6 7
M TOR 43 4 5 6 17
M TOR 44 4 5 7 8
M TOR 45 5 4 3 13
M TOR 46 5 6 3 13
M TOR 47 5 6 7 8
M TOR 48 5 7 6 17
M TOR 49 5 7 8 18
M TOR 50 6 3 4 14
M TOR 51 6 3 4 15
M TOR 52 6 5 4 14
M TOR 53 6 5 4 15
M TOR 54 6 7 5 16
M TOR 55 6 7 8 18
M TOR 56 7 1 0 9
M TOR 57 7 1 0 10
M TOR 58 7 1 0 11
M TOR 59 7 1 2 12
M TOR 60 7 1 3 13
M TOR 61 7 5 4 14
M TOR 62 7 5 4 15
M TOR 63 7 6 3 13
M TOR 64 8 7 5 16
M TOR 65 8 7 6 17
M  END
$$$$
