
     RDKit          3D

 19 19  0  0  0  0  0  0  0  0999 V2000
   -3.0675   -0.0389   -1.3351 C   0  0  0  0  0  0  0  0  0  0  0  0
   -2.1915    0.0337   -0.0879 C   0  0  0  0  0  0  0  0  0  0  0  0
   -1.1056   -1.0913   -0.0012 C   0  0  0  0  0  0  0  0  0  0  0  0
   -0.0214   -0.0199   -0.1345 C   0  0  0  0  0  0  0  0  0  0  0  0
    1.1651   -0.0309   -0.2908 O   0  0  0  0  0  0  0  0  0  0  0  0
   -1.0573    1.1253   -0.0344 C   0  0  0  0  0  0  0  0  0  0  0  0
   -0.9353    1.8475    1.3249 C   0  0  0  0  0  0  0  0  0  0  0  0
   -0.9357    2.1779   -1.1135 C   0  0  0  0  0  0  0  0  0  0  0  0
   -1.8486    2.6427   -1.7466 O   0  0  0  0  0  0  0  0  0  0  0  0
   -3.7023   -0.9303   -1.2867 H   0  0  0  0  0  0  0  0  0  0  0  0
   -3.7041    0.8418   -1.4324 H   0  0  0  0  0  0  0  0  0  0  0  0
   -2.4657   -0.1085   -2.2472 H   0  0  0  0  0  0  0  0  0  0  0  0
   -2.8239    0.0777    0.8026 H   0  0  0  0  0  0  0  0  0  0  0  0
   -1.0564   -1.6271    0.9516 H   0  0  0  0  0  0  0  0  0  0  0  0
   -1.1135   -1.8296   -0.8091 H   0  0  0  0  0  0  0  0  0  0  0  0
   -0.9204    1.1247    2.1463 H   0  0  0  0  0  0  0  0  0  0  0  0
   -0.0124    2.4335    1.3758 H   0  0  0  0  0  0  0  0  0  0  0  0
   -1.7866    2.5195    1.4706 H   0  0  0  0  0  0  0  0  0  0  0  0
    0.1106    2.5274   -1.2633 H   0  0  0  0  0  0  0  0  0  0  0  0
  1  2  1  0
  2  3  1  0
  3  4  1  0
  4  5  2  0
  4  6  1  0
  6  7  1  0
  6  8  1  0
  8  9  2  0
  6  2  1  0
  1 10  1  0
  1 11  1  0
  1 12  1  0
  2 13  1  0
  3 14  1  0
  3 15  1  0
  7 16  1  0
  7 17  1  0
  7 18  1  0
  8 19  1  0
M  END
$$$$
