
     RDKit          3D

 19 21  0  0  0  0  0  0  0  0999 V2000
    1.7591    0.6348   -0.0254 O   0  0  0  0  0  0  0  0  0  0  0  0
    0.3702    0.3771   -0.1794 C   0  0  0  0  0  0  0  0  0  0  0  0
    0.0224    0.5194   -1.6374 C   0  0  0  0  0  0  0  0  0  0  0  0
   -0.2499    1.9019   -2.1472 C   0  0  0  0  0  0  0  0  0  0  0  0
   -0.3942    1.9111   -3.5725 O   0  0  0  0  0  0  0  0  0  0  0  0
   -1.5497    1.0599   -3.4519 C   0  0  0  0  0  0  0  0  0  0  0  0
   -1.9203    0.0711   -4.5038 C   0  0  0  0  0  0  0  0  0  0  0  0
   -2.7772    1.3104   -4.2586 C   0  0  0  0  0  0  0  0  0  0  0  0
   -1.4038    0.9456   -1.9559 C   0  0  0  0  0  0  0  0  0  0  0  0
    2.0005    0.4378    0.8847 H   0  0  0  0  0  0  0  0  0  0  0  0
    0.1134   -0.6374    0.1642 H   0  0  0  0  0  0  0  0  0  0  0  0
   -0.2350    1.0823    0.4156 H   0  0  0  0  0  0  0  0  0  0  0  0
    0.5253   -0.1758   -2.3056 H   0  0  0  0  0  0  0  0  0  0  0  0
    0.0395    2.8234   -1.6568 H   0  0  0  0  0  0  0  0  0  0  0  0
   -1.3140    0.0595   -5.4029 H   0  0  0  0  0  0  0  0  0  0  0  0
   -2.3023   -0.8974   -4.1987 H   0  0  0  0  0  0  0  0  0  0  0  0
   -2.7288    2.1054   -4.9947 H   0  0  0  0  0  0  0  0  0  0  0  0
   -3.7442    1.1866   -3.7815 H   0  0  0  0  0  0  0  0  0  0  0  0
   -2.2111    0.9368   -1.2352 H   0  0  0  0  0  0  0  0  0  0  0  0
  1  2  1  0
  2  3  1  0
  3  4  1  0
  4  5  1  0
  5  6  1  0
  6  7  1  0
  7  8  1  0
  6  9  1  0
  9  3  1  0
  9  4  1  0
  8  6  1  0
  1 10  1  0
  2 11  1  0
  2 12  1  0
  3 13  1  0
  4 14  1  0
  7 15  1  0
  7 16  1  0
  8 17  1  0
  8 18  1  0
  9 19  1  0
M  END
$$$$
