
     RDKit          3D

 19 20  0  0  0  0  0  0  0  0999 V2000
    3.4172    0.5495    1.5097 O   0  0  0  0  0  0  0  0  0  0  0  0
    2.5146   -0.4114    1.0357 C   0  0  0  0  0  0  0  0  0  0  0  0
    1.1101   -0.4575    1.5869 C   0  0  0  0  0  0  0  0  0  0  0  0
    1.3858    0.1285    0.2114 C   0  0  0  0  0  0  0  0  0  0  0  0
    0.9101   -0.4770   -1.0768 C   0  0  0  0  0  0  0  0  0  0  0  0
   -0.1861    0.2592   -1.8531 C   0  0  0  0  0  0  0  0  0  0  0  0
    1.2059    0.2787   -2.3772 C   0  0  0  0  0  0  0  0  0  0  0  0
    0.8731   -1.9488   -1.2450 C   0  0  0  0  0  0  0  0  0  0  0  0
    1.2210   -2.7714   -0.4313 O   0  0  0  0  0  0  0  0  0  0  0  0
    3.7336    0.2535    2.3697 H   0  0  0  0  0  0  0  0  0  0  0  0
    2.9517   -1.3600    0.7363 H   0  0  0  0  0  0  0  0  0  0  0  0
    0.6331   -1.4268    1.6525 H   0  0  0  0  0  0  0  0  0  0  0  0
    0.8582    0.2493    2.3702 H   0  0  0  0  0  0  0  0  0  0  0  0
    1.3727    1.2152    0.1925 H   0  0  0  0  0  0  0  0  0  0  0  0
   -0.9280   -0.3365   -2.3747 H   0  0  0  0  0  0  0  0  0  0  0  0
   -0.5809    1.1491   -1.3767 H   0  0  0  0  0  0  0  0  0  0  0  0
    1.4344   -0.3038   -3.2636 H   0  0  0  0  0  0  0  0  0  0  0  0
    1.7971    1.1807   -2.2695 H   0  0  0  0  0  0  0  0  0  0  0  0
    0.4785   -2.2678   -2.2392 H   0  0  0  0  0  0  0  0  0  0  0  0
  1  2  1  0
  2  3  1  0
  3  4  1  0
  4  5  1  0
  5  6  1  0
  6  7  1  0
  5  8  1  0
  8  9  2  0
  4  2  1  0
  7  5  1  0
  1 10  1  0
  2 11  1  0
  3 12  1  0
  3 13  1  0
  4 14  1  0
  6 15  1  0
  6 16  1  0
  7 17  1  0
  7 18  1  0
  8 19  1  0
M  END
$$$$
