gdb 5647	2.6076296	1.3701826	1.0044731	3.3245	77.53	-0.23532	-0.01928	0.21604	1209.203	0.154866	-422.534376	-422.525123	-422.524179	-422.568842	33.399
 OpenBabel02181911423D

 19 20  0  0  1  0  0  0  0  0999 V2000
    1.4048    0.1064   -0.2976 C   0  0  0  0  0  0  0  0  0  0  0  0
    0.0699   -0.1696    0.0683 O   0  0  0  0  0  0  0  0  0  0  0  0
   -0.3952    0.5981    1.1476 C   0  0  1  0  0  0  0  0  0  0  0  0
   -1.9394    0.5144    1.3160 C   0  0  0  0  0  0  0  0  0  0  0  0
   -1.7166    0.1007    2.7829 C   0  0  0  0  0  0  0  0  0  0  0  0
   -2.4339   -0.0629    3.7309 O   0  0  0  0  0  0  0  0  0  0  0  0
   -0.2334    0.0185    2.5756 C   0  0  0  0  0  0  0  0  0  0  0  0
    0.8388    0.1845    3.6245 C   0  0  0  0  0  0  0  0  0  0  0  0
    0.6071   -1.1620    3.0193 C   0  0  0  0  0  0  0  0  0  0  0  0
    2.1186   -0.1219    0.5076 H   0  0  0  0  0  0  0  0  0  0  0  0
    1.6396   -0.5226   -1.1595 H   0  0  0  0  0  0  0  0  0  0  0  0
    1.5352    1.1621   -0.5814 H   0  0  0  0  0  0  0  0  0  0  0  0
   -0.0282    1.6315    1.0690 H   0  0  0  0  0  0  0  0  0  0  0  0
   -2.5183    1.4246    1.1456 H   0  0  0  0  0  0  0  0  0  0  0  0
   -2.3592   -0.2996    0.7171 H   0  0  0  0  0  0  0  0  0  0  0  0
    1.7286    0.7361    3.3385 H   0  0  0  0  0  0  0  0  0  0  0  0
    0.4953    0.3600    4.6390 H   0  0  0  0  0  0  0  0  0  0  0  0
    1.3219   -1.5482    2.3016 H   0  0  0  0  0  0  0  0  0  0  0  0
    0.1023   -1.9161    3.6137 H   0  0  0  0  0  0  0  0  0  0  0  0
  1  2  1  0  0  0  0
  1 10  1  0  0  0  0
  2  3  1  0  0  0  0
  3 13  1  6  0  0  0
  3  4  1  0  0  0  0
  3  7  1  0  0  0  0
  4  5  1  0  0  0  0
  5  6  2  0  0  0  0
  7  5  1  0  0  0  0
  7  9  1  0  0  0  0
  7  8  1  0  0  0  0
  8 17  1  0  0  0  0
  9 19  1  0  0  0  0
  9  8  1  0  0  0  0
 11  1  1  0  0  0  0
 12  1  1  0  0  0  0
 14  4  1  0  0  0  0
 15  4  1  0  0  0  0
 16  8  1  0  0  0  0
 18  9  1  0  0  0  0
M TOR 0 0 1 2 3
M TOR 1 0 1 2 6
M TOR 2 0 1 2 12
M TOR 3 1 2 3 4
M TOR 4 1 2 3 13
M TOR 5 1 2 3 14
M TOR 6 1 2 6 4
M TOR 7 1 2 6 7
M TOR 8 1 2 6 8
M TOR 9 2 1 0 9
M TOR 10 2 1 0 10
M TOR 11 2 1 0 11
M TOR 12 2 3 4 5
M TOR 13 2 3 4 6
M TOR 14 2 6 4 5
M TOR 15 2 6 7 8
M TOR 16 2 6 7 15
M TOR 17 2 6 7 16
M TOR 18 2 6 8 17
M TOR 19 2 6 8 18
M TOR 20 3 2 6 7
M TOR 21 3 2 6 8
M TOR 22 3 4 6 7
M TOR 23 3 4 6 8
M TOR 24 4 3 2 12
M TOR 25 4 6 2 12
M TOR 26 4 6 7 8
M TOR 27 4 6 7 15
M TOR 28 4 6 7 16
M TOR 29 4 6 8 17
M TOR 30 4 6 8 18
M TOR 31 5 4 3 13
M TOR 32 5 4 3 14
M TOR 33 5 4 6 7
M TOR 34 5 4 6 8
M TOR 35 6 2 3 13
M TOR 36 6 2 3 14
M TOR 37 6 4 3 13
M TOR 38 6 4 3 14
M TOR 39 6 7 8 17
M TOR 40 6 7 8 18
M TOR 41 6 8 7 15
M TOR 42 6 8 7 16
M TOR 43 7 6 2 12
M TOR 44 8 6 2 12
M  END
$$$$
