
     RDKit          3D

 19 21  0  0  0  0  0  0  0  0999 V2000
    0.8492    1.0599    0.0063 C   0  0  0  0  0  0  0  0  0  0  0  0
    1.0350   -0.4504    0.0002 C   0  0  0  0  0  0  0  0  0  0  0  0
    2.1050   -0.9687    1.0010 C   0  0  0  0  0  0  0  0  0  0  0  0
    1.9595   -2.4614    1.3180 C   0  0  0  0  0  0  0  0  0  0  0  0
    1.7593   -3.2433    0.0213 C   0  0  0  0  0  0  0  0  0  0  0  0
    2.8830   -3.3524   -0.8621 O   0  0  0  0  0  0  0  0  0  0  0  0
    1.8286   -2.4721   -1.2300 C   0  0  0  0  0  0  0  0  0  0  0  0
    2.0808   -0.9793   -1.0167 C   0  0  0  0  0  0  0  0  0  0  0  0
    3.1229   -0.8134   -0.0293 O   0  0  0  0  0  0  0  0  0  0  0  0
    0.3012    1.3849    0.8973 H   0  0  0  0  0  0  0  0  0  0  0  0
    1.8185    1.5673   -0.0015 H   0  0  0  0  0  0  0  0  0  0  0  0
    0.2837    1.3907   -0.8713 H   0  0  0  0  0  0  0  0  0  0  0  0
    0.0721   -0.9723    0.0086 H   0  0  0  0  0  0  0  0  0  0  0  0
    2.3178   -0.3618    1.8867 H   0  0  0  0  0  0  0  0  0  0  0  0
    2.8496   -2.8225    1.8451 H   0  0  0  0  0  0  0  0  0  0  0  0
    1.0969   -2.6227    1.9762 H   0  0  0  0  0  0  0  0  0  0  0  0
    1.1530   -4.1461    0.0752 H   0  0  0  0  0  0  0  0  0  0  0  0
    1.2462   -2.7628   -2.1039 H   0  0  0  0  0  0  0  0  0  0  0  0
    2.2816   -0.4226   -1.9366 H   0  0  0  0  0  0  0  0  0  0  0  0
  1  2  1  0
  2  3  1  0
  3  4  1  0
  4  5  1  0
  5  6  1  0
  6  7  1  0
  7  8  1  0
  8  9  1  0
  8  2  1  0
  9  3  1  0
  7  5  1  0
  1 10  1  0
  1 11  1  0
  1 12  1  0
  2 13  1  0
  3 14  1  0
  4 15  1  0
  4 16  1  0
  5 17  1  0
  7 18  1  0
  8 19  1  0
M  END
$$$$
