gdb 3713	3.65893	1.2763634	1.2197777	3.2144	74.7	-0.2399	0.08384	0.32374	1102.7735	0.157231	-422.520397	-422.512655	-422.511711	-422.552444	30.411
 OpenBabel02181911413D

 19 21  0  0  1  0  0  0  0  0999 V2000
    0.1367    0.4247    0.0559 C   0  0  0  0  0  0  0  0  0  0  0  0
    1.0188   -0.7943   -0.0255 C   0  0  2  0  0  0  0  0  0  0  0  0
    2.2126   -0.7909    0.7799 O   0  0  0  0  0  0  0  0  0  0  0  0
    2.3514   -0.7844   -0.6336 C   0  0  2  0  0  0  0  0  0  0  0  0
    3.0659    0.3751   -1.3559 C   0  0  0  0  0  0  0  0  0  0  0  0
    3.9434   -0.5143   -2.2666 C   0  0  2  0  0  0  0  0  0  0  0  0
    2.9586   -1.5720   -2.8175 C   0  0  0  0  0  0  0  0  0  0  0  0
    3.0357   -1.9627   -1.3231 C   0  0  1  0  0  0  0  0  0  0  0  0
    4.4329   -1.5226   -1.3254 O   0  0  0  0  0  0  0  0  0  0  0  0
   -0.4358    0.4207    0.9893 H   0  0  0  0  0  0  0  0  0  0  0  0
    0.7299    1.3415    0.0231 H   0  0  0  0  0  0  0  0  0  0  0  0
   -0.5779    0.4381   -0.7746 H   0  0  0  0  0  0  0  0  0  0  0  0
    0.4855   -1.7478   -0.0006 H   0  0  0  0  0  0  0  0  0  0  0  0
    2.3943    1.0393   -1.9072 H   0  0  0  0  0  0  0  0  0  0  0  0
    3.6686    0.9633   -0.6610 H   0  0  0  0  0  0  0  0  0  0  0  0
    4.7242   -0.0466   -2.8653 H   0  0  0  0  0  0  0  0  0  0  0  0
    2.0029   -1.2493   -3.2399 H   0  0  0  0  0  0  0  0  0  0  0  0
    3.4563   -2.3039   -3.4538 H   0  0  0  0  0  0  0  0  0  0  0  0
    2.8716   -2.9652   -0.9305 H   0  0  0  0  0  0  0  0  0  0  0  0
  1 10  1  0  0  0  0
  2 13  1  6  0  0  0
  2  1  1  0  0  0  0
  2  3  1  0  0  0  0
  4  2  1  0  0  0  0
  4  3  1  1  0  0  0
  5 15  1  0  0  0  0
  5  4  1  0  0  0  0
  6 16  1  6  0  0  0
  6  5  1  0  0  0  0
  6  9  1  0  0  0  0
  7  6  1  0  0  0  0
  7  8  1  0  0  0  0
  8 19  1  1  0  0  0
  8  4  1  0  0  0  0
  9  8  1  0  0  0  0
 11  1  1  0  0  0  0
 12  1  1  0  0  0  0
 14  5  1  0  0  0  0
 17  7  1  0  0  0  0
 18  7  1  0  0  0  0
M TOR 0 0 1 2 3
M TOR 1 0 1 3 4
M TOR 2 0 1 3 7
M TOR 3 1 2 3 4
M TOR 4 1 2 3 7
M TOR 5 1 3 4 5
M TOR 6 1 3 4 13
M TOR 7 1 3 4 14
M TOR 8 1 3 7 6
M TOR 9 1 3 7 8
M TOR 10 1 3 7 18
M TOR 11 2 1 0 9
M TOR 12 2 1 0 10
M TOR 13 2 1 0 11
M TOR 14 2 3 1 12
M TOR 15 2 3 4 5
M TOR 16 2 3 4 13
M TOR 17 2 3 4 14
M TOR 18 2 3 7 6
M TOR 19 2 3 7 8
M TOR 20 2 3 7 18
M TOR 21 3 1 0 9
M TOR 22 3 1 0 10
M TOR 23 3 1 0 11
M TOR 24 3 4 5 6
M TOR 25 3 4 5 8
M TOR 26 3 4 5 15
M TOR 27 3 7 6 5
M TOR 28 3 7 6 16
M TOR 29 3 7 6 17
M TOR 30 3 7 8 5
M TOR 31 4 3 1 12
M TOR 32 4 3 7 6
M TOR 33 4 3 7 8
M TOR 34 4 3 7 18
M TOR 35 4 5 6 7
M TOR 36 4 5 6 16
M TOR 37 4 5 6 17
M TOR 38 4 5 8 7
M TOR 39 5 4 3 7
M TOR 40 5 6 7 8
M TOR 41 5 6 7 18
M TOR 42 5 8 7 18
M TOR 43 6 5 4 13
M TOR 44 6 5 4 14
M TOR 45 7 3 1 12
M TOR 46 7 3 4 13
M TOR 47 7 3 4 14
M TOR 48 7 6 5 15
M TOR 49 7 8 5 15
M TOR 50 8 5 4 13
M TOR 51 8 5 4 14
M TOR 52 8 5 6 16
M TOR 53 8 5 6 17
M TOR 54 8 7 6 16
M TOR 55 8 7 6 17
M  END
$$$$
