
     RDKit          3D

 19 21  0  0  0  0  0  0  0  0999 V2000
    0.0190   -0.0413   -0.0431 C   0  0  0  0  0  0  0  0  0  0  0  0
    1.5394    0.0224   -0.0613 C   0  0  0  0  0  0  0  0  0  0  0  0
    2.2270   -0.4199    1.2603 C   0  0  0  0  0  0  0  0  0  0  0  0
    1.9202    0.9090    1.8155 O   0  0  0  0  0  0  0  0  0  0  0  0
    2.1493    1.3530    0.4353 C   0  0  0  0  0  0  0  0  0  0  0  0
    3.6799    1.1281    0.3443 C   0  0  0  0  0  0  0  0  0  0  0  0
    4.1897    0.5829   -0.8955 O   0  0  0  0  0  0  0  0  0  0  0  0
    4.3893   -0.7180   -0.2908 C   0  0  0  0  0  0  0  0  0  0  0  0
    3.7448   -0.2584    1.0323 C   0  0  0  0  0  0  0  0  0  0  0  0
   -0.3762    0.3655    0.8909 H   0  0  0  0  0  0  0  0  0  0  0  0
   -0.4035    0.5308   -0.8758 H   0  0  0  0  0  0  0  0  0  0  0  0
   -0.3283   -1.0752   -0.1437 H   0  0  0  0  0  0  0  0  0  0  0  0
    1.9431   -0.3703   -0.9962 H   0  0  0  0  0  0  0  0  0  0  0  0
    1.8632   -1.2481    1.8693 H   0  0  0  0  0  0  0  0  0  0  0  0
    1.7323    2.3338    0.2060 H   0  0  0  0  0  0  0  0  0  0  0  0
    4.2774    1.9664    0.7106 H   0  0  0  0  0  0  0  0  0  0  0  0
    3.8859   -1.5188   -0.8459 H   0  0  0  0  0  0  0  0  0  0  0  0
    5.4566   -0.9553   -0.2094 H   0  0  0  0  0  0  0  0  0  0  0  0
    4.3245   -0.3827    1.9455 H   0  0  0  0  0  0  0  0  0  0  0  0
  1  2  1  0
  2  3  1  0
  3  4  1  0
  4  5  1  0
  5  6  1  0
  6  7  1  0
  7  8  1  0
  8  9  1  0
  5  2  1  0
  9  6  1  0
  9  3  1  0
  1 10  1  0
  1 11  1  0
  1 12  1  0
  2 13  1  0
  3 14  1  0
  5 15  1  0
  6 16  1  0
  8 17  1  0
  8 18  1  0
  9 19  1  0
M  END
$$$$
