gdb 5327	3.1403758	1.0950518	0.8787286	5.4142	79.96	-0.25689	-0.0396	0.21729	1344.6142	0.157675	-422.607968	-422.599206	-422.598262	-422.64186	32.095
 OpenBabel02181911423D

 19 19  0  0  0  0  0  0  0  0999 V2000
    1.3196   -1.0249   -1.1043 C   0  0  0  0  0  0  0  0  0  0  0  0
    1.1533   -0.0304    0.0602 C   0  0  0  0  0  0  0  0  0  0  0  0
    1.7809    1.3104   -0.2095 C   0  0  0  0  0  0  0  0  0  0  0  0
    1.0645    2.4181   -0.4454 C   0  0  0  0  0  0  0  0  0  0  0  0
    1.6727    3.7572   -0.5915 C   0  0  0  0  0  0  0  0  0  0  0  0
    1.0406    4.7815   -0.5530 O   0  0  0  0  0  0  0  0  0  0  0  0
    3.0291    3.8138   -0.7173 O   0  0  0  0  0  0  0  0  0  0  0  0
    3.7238    2.6059   -1.0479 C   0  0  0  0  0  0  0  0  0  0  0  0
    3.2849    1.4286   -0.1877 C   0  0  0  0  0  0  0  0  0  0  0  0
    0.8609   -1.9855   -0.8528 H   0  0  0  0  0  0  0  0  0  0  0  0
    0.8400   -0.6453   -2.0113 H   0  0  0  0  0  0  0  0  0  0  0  0
    2.3733   -1.2118   -1.3338 H   0  0  0  0  0  0  0  0  0  0  0  0
    0.0881    0.1038    0.2737 H   0  0  0  0  0  0  0  0  0  0  0  0
    1.6076   -0.4602    0.9635 H   0  0  0  0  0  0  0  0  0  0  0  0
   -0.0199    2.4161   -0.4458 H   0  0  0  0  0  0  0  0  0  0  0  0
    3.5512    2.3758   -2.1079 H   0  0  0  0  0  0  0  0  0  0  0  0
    4.7837    2.8339   -0.9154 H   0  0  0  0  0  0  0  0  0  0  0  0
    3.7606    0.5142   -0.5588 H   0  0  0  0  0  0  0  0  0  0  0  0
    3.6258    1.5572    0.8494 H   0  0  0  0  0  0  0  0  0  0  0  0
  1 10  1  0  0  0  0
  1  2  1  0  0  0  0
  2 13  1  0  0  0  0
  2 14  1  0  0  0  0
  3  9  1  0  0  0  0
  3  2  1  0  0  0  0
  4  3  2  0  0  0  0
  5  6  2  0  0  0  0
  5  4  1  0  0  0  0
  7  5  1  0  0  0  0
  8 17  1  0  0  0  0
  8  7  1  0  0  0  0
  8  9  1  0  0  0  0
  9 19  1  0  0  0  0
 11  1  1  0  0  0  0
 12  1  1  0  0  0  0
 15  4  1  0  0  0  0
 16  8  1  0  0  0  0
 18  9  1  0  0  0  0
M TOR 0 0 1 2 3
M TOR 1 0 1 2 8
M TOR 2 1 2 3 4
M TOR 3 1 2 3 14
M TOR 4 1 2 8 7
M TOR 5 1 2 8 17
M TOR 6 1 2 8 18
M TOR 7 2 1 0 9
M TOR 8 2 1 0 10
M TOR 9 2 1 0 11
M TOR 10 2 3 4 5
M TOR 11 2 3 4 6
M TOR 12 2 8 7 6
M TOR 13 2 8 7 15
M TOR 14 2 8 7 16
M TOR 15 3 2 1 12
M TOR 16 3 2 1 13
M TOR 17 3 2 8 7
M TOR 18 3 2 8 17
M TOR 19 3 2 8 18
M TOR 20 3 4 6 7
M TOR 21 4 3 2 8
M TOR 22 4 6 7 8
M TOR 23 4 6 7 15
M TOR 24 4 6 7 16
M TOR 25 5 4 3 14
M TOR 26 5 4 6 7
M TOR 27 6 4 3 14
M TOR 28 6 7 8 17
M TOR 29 6 7 8 18
M TOR 30 8 2 1 12
M TOR 31 8 2 1 13
M TOR 32 8 2 3 14
M  END
$$$$
