gdb 4133	2.1745875	2.0831562	1.5950635	1.8164	74.08	-0.24109	0.00099	0.24208	955.1181	0.15686	-422.565784	-422.557827	-422.556883	-422.597583	31.635
 OpenBabel02181911413D

 19 20  0  0  1  0  0  0  0  0999 V2000
    0.4429   -0.5613   -0.3052 C   0  0  0  0  0  0  0  0  0  0  0  0
    0.9035    0.7164    0.3744 C   0  0  2  0  0  0  0  0  0  0  0  0
    2.2987    0.9588    0.1276 O   0  0  0  0  0  0  0  0  0  0  0  0
    2.8389    1.2316    1.4434 C   0  0  1  0  0  0  0  0  0  0  0  0
    1.7830    1.8741    2.1134 O   0  0  0  0  0  0  0  0  0  0  0  0
    0.8398    0.7846    1.9491 C   0  0  1  0  0  0  0  0  0  0  0  0
   -0.4971    1.0892    2.5732 C   0  0  0  0  0  0  0  0  0  0  0  0
    1.6557   -0.3983    2.4625 C   0  0  0  0  0  0  0  0  0  0  0  0
    2.9228   -0.1142    2.1599 C   0  0  0  0  0  0  0  0  0  0  0  0
    1.0053   -1.4253    0.0567 H   0  0  0  0  0  0  0  0  0  0  0  0
   -0.6252   -0.7306   -0.1291 H   0  0  0  0  0  0  0  0  0  0  0  0
    0.5963   -0.4846   -1.3854 H   0  0  0  0  0  0  0  0  0  0  0  0
    0.3329    1.5754   -0.0036 H   0  0  0  0  0  0  0  0  0  0  0  0
    3.7228    1.8597    1.3535 H   0  0  0  0  0  0  0  0  0  0  0  0
   -0.3925    1.2347    3.6517 H   0  0  0  0  0  0  0  0  0  0  0  0
   -0.9254    1.9979    2.1403 H   0  0  0  0  0  0  0  0  0  0  0  0
   -1.1954    0.2637    2.4040 H   0  0  0  0  0  0  0  0  0  0  0  0
    1.2397   -1.3105    2.8682 H   0  0  0  0  0  0  0  0  0  0  0  0
    3.8071   -0.7292    2.2515 H   0  0  0  0  0  0  0  0  0  0  0  0
  1 11  1  0  0  0  0
  1 10  1  0  0  0  0
  1  2  1  0  0  0  0
  2 13  1  6  0  0  0
  2  6  1  0  0  0  0
  3  2  1  0  0  0  0
  3  4  1  0  0  0  0
  4 14  1  6  0  0  0
  4  5  1  0  0  0  0
  4  9  1  0  0  0  0
  6  5  1  0  0  0  0
  6  8  1  0  0  0  0
  6  7  1  1  0  0  0
  7 15  1  0  0  0  0
  8 18  1  0  0  0  0
  9 19  1  0  0  0  0
  9  8  2  0  0  0  0
 12  1  1  0  0  0  0
 16  7  1  0  0  0  0
 17  7  1  0  0  0  0
M TOR 0 0 1 2 3
M TOR 1 0 1 5 4
M TOR 2 0 1 5 6
M TOR 3 0 1 5 7
M TOR 4 1 2 3 4
M TOR 5 1 2 3 8
M TOR 6 1 2 3 13
M TOR 7 1 5 4 3
M TOR 8 1 5 6 14
M TOR 9 1 5 6 15
M TOR 10 1 5 6 16
M TOR 11 1 5 7 8
M TOR 12 1 5 7 17
M TOR 13 2 1 0 9
M TOR 14 2 1 0 10
M TOR 15 2 1 0 11
M TOR 16 2 1 5 4
M TOR 17 2 1 5 6
M TOR 18 2 1 5 7
M TOR 19 2 3 4 5
M TOR 20 2 3 8 7
M TOR 21 2 3 8 18
M TOR 22 3 2 1 5
M TOR 23 3 2 1 12
M TOR 24 3 4 5 6
M TOR 25 3 4 5 7
M TOR 26 3 8 7 5
M TOR 27 3 8 7 17
M TOR 28 4 3 8 7
M TOR 29 4 3 8 18
M TOR 30 4 5 1 12
M TOR 31 4 5 6 14
M TOR 32 4 5 6 15
M TOR 33 4 5 6 16
M TOR 34 4 5 7 8
M TOR 35 4 5 7 17
M TOR 36 5 1 0 9
M TOR 37 5 1 0 10
M TOR 38 5 1 0 11
M TOR 39 5 4 3 8
M TOR 40 5 4 3 13
M TOR 41 5 7 8 18
M TOR 42 6 5 1 12
M TOR 43 6 5 7 8
M TOR 44 6 5 7 17
M TOR 45 7 5 1 12
M TOR 46 7 5 6 14
M TOR 47 7 5 6 15
M TOR 48 7 5 6 16
M TOR 49 7 8 3 13
M  END
$$$$
