gdb 247	3.3321349	1.5626387	1.2900203	2.1689	72.87	-0.24458	0.0786	0.32318	1008.978	0.160091	-422.560457	-422.553397	-422.552453	-422.592052	27.94
 OpenBabel02181911403D

 19 21  0  0  1  0  0  0  0  0999 V2000
   -0.4970    1.0903   -0.7858 C   0  0  0  0  0  0  0  0  0  0  0  0
   -0.0482   -0.1293    0.0246 C   0  0  0  0  0  0  0  0  0  0  0  0
    1.4052    0.2351    0.3737 C   0  0  2  0  0  0  0  0  0  0  0  0
    1.5491    1.1441    1.6298 C   0  0  0  0  0  0  0  0  0  0  0  0
    2.4027    2.3121    1.1859 C   0  0  1  0  0  0  0  0  0  0  0  0
    3.6380    1.9131    0.5735 O   0  0  0  0  0  0  0  0  0  0  0  0
    2.5485    2.3028   -0.2737 C   0  0  1  0  0  0  0  0  0  0  0  0
    1.8334    1.0980   -0.8531 C   0  0  2  0  0  0  0  0  0  0  0  0
    0.6434    1.4786   -1.5463 O   0  0  0  0  0  0  0  0  0  0  0  0
   -1.3125    0.8802   -1.4840 H   0  0  0  0  0  0  0  0  0  0  0  0
   -0.8220    1.9087   -0.1234 H   0  0  0  0  0  0  0  0  0  0  0  0
   -0.6690   -0.3096    0.9066 H   0  0  0  0  0  0  0  0  0  0  0  0
   -0.0785   -1.0255   -0.6030 H   0  0  0  0  0  0  0  0  0  0  0  0
    2.0343   -0.6495    0.4712 H   0  0  0  0  0  0  0  0  0  0  0  0
    0.5733    1.5179    1.9646 H   0  0  0  0  0  0  0  0  0  0  0  0
    1.9958    0.6085    2.4730 H   0  0  0  0  0  0  0  0  0  0  0  0
    2.4526    3.2241    1.7761 H   0  0  0  0  0  0  0  0  0  0  0  0
    2.6977    3.1949   -0.8762 H   0  0  0  0  0  0  0  0  0  0  0  0
    2.4749    0.5562   -1.5575 H   0  0  0  0  0  0  0  0  0  0  0  0
  1 11  1  0  0  0  0
  1  2  1  0  0  0  0
  2  3  1  0  0  0  0
  2 12  1  0  0  0  0
  3 14  1  1  0  0  0
  3  4  1  0  0  0  0
  4 15  1  0  0  0  0
  4 16  1  0  0  0  0
  5  4  1  0  0  0  0
  5 17  1  1  0  0  0
  6  5  1  0  0  0  0
  7 18  1  6  0  0  0
  7  6  1  0  0  0  0
  7  5  1  0  0  0  0
  8 19  1  6  0  0  0
  8  7  1  0  0  0  0
  8  3  1  0  0  0  0
  9  8  1  0  0  0  0
  9  1  1  0  0  0  0
 10  1  1  0  0  0  0
 13  2  1  0  0  0  0
M TOR 0 0 1 2 3
M TOR 1 0 1 2 7
M TOR 2 0 1 2 13
M TOR 3 0 8 7 2
M TOR 4 0 8 7 6
M TOR 5 0 8 7 18
M TOR 6 1 0 8 7
M TOR 7 1 2 3 4
M TOR 8 1 2 3 14
M TOR 9 1 2 3 15
M TOR 10 1 2 7 6
M TOR 11 1 2 7 8
M TOR 12 1 2 7 18
M TOR 13 2 1 0 8
M TOR 14 2 1 0 9
M TOR 15 2 1 0 10
M TOR 16 2 3 4 5
M TOR 17 2 3 4 6
M TOR 18 2 3 4 16
M TOR 19 2 7 6 4
M TOR 20 2 7 6 5
M TOR 21 2 7 6 17
M TOR 22 3 2 1 11
M TOR 23 3 2 1 12
M TOR 24 3 2 7 6
M TOR 25 3 2 7 8
M TOR 26 3 2 7 18
M TOR 27 3 4 5 6
M TOR 28 3 4 6 7
M TOR 29 3 4 6 17
M TOR 30 4 3 2 7
M TOR 31 4 3 2 13
M TOR 32 4 5 6 7
M TOR 33 4 5 6 17
M TOR 34 4 6 7 8
M TOR 35 4 6 7 18
M TOR 36 5 4 3 14
M TOR 37 5 4 3 15
M TOR 38 5 6 4 16
M TOR 39 5 6 7 8
M TOR 40 5 6 7 18
M TOR 41 6 4 3 14
M TOR 42 6 4 3 15
M TOR 43 6 7 2 13
M TOR 44 7 2 1 11
M TOR 45 7 2 1 12
M TOR 46 7 2 3 14
M TOR 47 7 2 3 15
M TOR 48 7 6 4 16
M TOR 49 7 8 0 9
M TOR 50 7 8 0 10
M TOR 51 8 0 1 11
M TOR 52 8 0 1 12
M TOR 53 8 7 2 13
M TOR 54 8 7 6 17
M  END
$$$$
