
     RDKit          3D

 19 19  0  0  0  0  0  0  0  0999 V2000
    1.4429   -0.1822    0.0116 C   0  0  0  0  0  0  0  0  0  0  0  0
    0.0623    0.0932    0.0054 O   0  0  0  0  0  0  0  0  0  0  0  0
   -0.4024    0.8475    1.1221 C   0  0  0  0  0  0  0  0  0  0  0  0
    0.0023    2.3260    1.0194 C   0  0  0  0  0  0  0  0  0  0  0  0
   -1.8920    0.6795    1.1692 C   0  0  0  0  0  0  0  0  0  0  0  0
   -2.6509    0.3355    2.2429 C   0  0  0  0  0  0  0  0  0  0  0  0
   -3.9707    0.3075    1.9169 O   0  0  0  0  0  0  0  0  0  0  0  0
   -4.0535    0.6345    0.5992 C   0  0  0  0  0  0  0  0  0  0  0  0
   -2.8207    0.8752    0.0879 C   0  0  0  0  0  0  0  0  0  0  0  0
    1.7533   -0.6810    0.9438 H   0  0  0  0  0  0  0  0  0  0  0  0
    1.6378   -0.8560   -0.8266 H   0  0  0  0  0  0  0  0  0  0  0  0
    2.0613    0.7182   -0.1176 H   0  0  0  0  0  0  0  0  0  0  0  0
    0.0291    0.4272    2.0461 H   0  0  0  0  0  0  0  0  0  0  0  0
   -0.3902    2.8830    1.8751 H   0  0  0  0  0  0  0  0  0  0  0  0
    1.0897    2.4448    1.0088 H   0  0  0  0  0  0  0  0  0  0  0  0
   -0.4051    2.7662    0.1045 H   0  0  0  0  0  0  0  0  0  0  0  0
   -2.4141    0.0915    3.2657 H   0  0  0  0  0  0  0  0  0  0  0  0
   -5.0473    0.6448    0.1830 H   0  0  0  0  0  0  0  0  0  0  0  0
   -2.5809    1.1375   -0.9301 H   0  0  0  0  0  0  0  0  0  0  0  0
  1  2  1  0
  2  3  1  0
  3  4  1  0
  3  5  1  0
  5  6  2  0
  6  7  1  0
  7  8  1  0
  8  9  2  0
  9  5  1  0
  1 10  1  0
  1 11  1  0
  1 12  1  0
  3 13  1  0
  4 14  1  0
  4 15  1  0
  4 16  1  0
  6 17  1  0
  8 18  1  0
  9 19  1  0
M  END
$$$$
