gdb 3987	4.1847342	1.0602985	0.9528866	2.1904	75.66	-0.2423	-0.03168	0.21061999999999997	1266.0379	0.155637	-422.53091	-422.522208	-422.521264	-422.565087	31.626
 OpenBabel02181911413D

 19 20  0  0  1  0  0  0  0  0999 V2000
    1.8418   -0.5501   -1.2002 C   0  0  0  0  0  0  0  0  0  0  0  0
    1.4140    0.0806    0.1155 C   0  0  2  0  0  0  0  0  0  0  0  0
    1.9828    1.4882    0.5017 C   0  0  0  0  0  0  0  0  0  0  0  0
    2.4695    0.9242    1.8648 C   0  0  2  0  0  0  0  0  0  0  0  0
    3.8771    0.3151    1.8201 C   0  0  2  0  0  0  0  0  0  0  0  0
    3.3827   -0.9414    1.3011 O   0  0  0  0  0  0  0  0  0  0  0  0
    2.0073   -0.4961    1.4264 C   0  0  2  0  0  0  0  0  0  0  0  0
    4.5595    0.0972    3.1580 C   0  0  0  0  0  0  0  0  0  0  0  0
    4.5642    0.9021    4.0527 O   0  0  0  0  0  0  0  0  0  0  0  0
    1.4181   -1.5536   -1.3161 H   0  0  0  0  0  0  0  0  0  0  0  0
    1.5073    0.0553   -2.0491 H   0  0  0  0  0  0  0  0  0  0  0  0
    2.9305   -0.6415   -1.2487 H   0  0  0  0  0  0  0  0  0  0  0  0
    0.3210    0.0865    0.1946 H   0  0  0  0  0  0  0  0  0  0  0  0
    2.7852    1.8583   -0.1440 H   0  0  0  0  0  0  0  0  0  0  0  0
    1.2246    2.2695    0.5844 H   0  0  0  0  0  0  0  0  0  0  0  0
    2.1811    1.4294    2.7840 H   0  0  0  0  0  0  0  0  0  0  0  0
    4.5955    0.7966    1.1378 H   0  0  0  0  0  0  0  0  0  0  0  0
    1.4115   -1.1966    2.0174 H   0  0  0  0  0  0  0  0  0  0  0  0
    5.0570   -0.8953    3.2432 H   0  0  0  0  0  0  0  0  0  0  0  0
  1  2  1  0  0  0  0
  2 13  1  1  0  0  0
  2  3  1  0  0  0  0
  2  7  1  0  0  0  0
  3 15  1  0  0  0  0
  3  4  1  0  0  0  0
  4 16  1  1  0  0  0
  5 17  1  6  0  0  0
  5  4  1  0  0  0  0
  5  8  1  0  0  0  0
  6  7  1  0  0  0  0
  6  5  1  0  0  0  0
  7  4  1  0  0  0  0
  7 18  1  1  0  0  0
  8 19  1  0  0  0  0
  8  9  2  0  0  0  0
 10  1  1  0  0  0  0
 11  1  1  0  0  0  0
 12  1  1  0  0  0  0
 14  3  1  0  0  0  0
M TOR 0 0 1 2 3
M TOR 1 0 1 2 13
M TOR 2 0 1 2 14
M TOR 3 0 1 6 3
M TOR 4 0 1 6 5
M TOR 5 0 1 6 17
M TOR 6 1 2 3 4
M TOR 7 1 2 3 6
M TOR 8 1 2 3 15
M TOR 9 1 6 3 4
M TOR 10 1 6 3 15
M TOR 11 1 6 5 4
M TOR 12 2 1 0 9
M TOR 13 2 1 0 10
M TOR 14 2 1 0 11
M TOR 15 2 1 6 5
M TOR 16 2 1 6 17
M TOR 17 2 3 4 5
M TOR 18 2 3 4 7
M TOR 19 2 3 4 16
M TOR 20 2 3 6 5
M TOR 21 2 3 6 17
M TOR 22 3 2 1 12
M TOR 23 3 4 5 6
M TOR 24 3 4 7 8
M TOR 25 3 4 7 18
M TOR 26 3 6 1 12
M TOR 27 4 3 2 13
M TOR 28 4 3 2 14
M TOR 29 4 3 6 17
M TOR 30 4 5 6 17
M TOR 31 5 4 3 15
M TOR 32 5 4 7 8
M TOR 33 5 4 7 18
M TOR 34 5 6 1 12
M TOR 35 5 6 3 15
M TOR 36 6 1 0 9
M TOR 37 6 1 0 10
M TOR 38 6 1 0 11
M TOR 39 6 1 2 13
M TOR 40 6 1 2 14
M TOR 41 6 3 2 13
M TOR 42 6 3 2 14
M TOR 43 6 3 4 7
M TOR 44 6 3 4 16
M TOR 45 6 5 4 7
M TOR 46 6 5 4 16
M TOR 47 7 4 3 15
M TOR 48 8 7 4 16
M  END
$$$$
