
     RDKit          3D

 19 21  0  0  0  0  0  0  0  0999 V2000
   -2.8706   -0.2931    3.9196 O   0  0  0  0  0  0  0  0  0  0  0  0
   -2.4755   -0.4273    2.5847 C   0  0  0  0  0  0  0  0  0  0  0  0
   -1.1728    0.1857    2.1470 C   0  0  0  0  0  0  0  0  0  0  0  0
   -2.5308    0.7685    1.6772 C   0  0  0  0  0  0  0  0  0  0  0  0
   -2.1974    0.3521    0.2581 C   0  0  0  0  0  0  0  0  0  0  0  0
   -2.3855    1.1747   -0.9830 C   0  0  0  0  0  0  0  0  0  0  0  0
   -3.1156   -0.1402   -0.8221 C   0  0  0  0  0  0  0  0  0  0  0  0
   -0.8291   -0.2252    0.7044 C   0  0  0  0  0  0  0  0  0  0  0  0
    0.3054    0.3914    0.1401 O   0  0  0  0  0  0  0  0  0  0  0  0
   -2.5711    0.5619    4.2468 H   0  0  0  0  0  0  0  0  0  0  0  0
   -2.7778   -1.4061    2.2189 H   0  0  0  0  0  0  0  0  0  0  0  0
   -0.4570    0.5662    2.8680 H   0  0  0  0  0  0  0  0  0  0  0  0
   -3.0373    1.6816    1.9741 H   0  0  0  0  0  0  0  0  0  0  0  0
   -2.9609    2.0920   -0.9077 H   0  0  0  0  0  0  0  0  0  0  0  0
   -1.5580    1.2155   -1.6841 H   0  0  0  0  0  0  0  0  0  0  0  0
   -4.1846   -0.1121   -0.6370 H   0  0  0  0  0  0  0  0  0  0  0  0
   -2.7870   -0.9789   -1.4275 H   0  0  0  0  0  0  0  0  0  0  0  0
   -0.6838   -1.2992    0.5452 H   0  0  0  0  0  0  0  0  0  0  0  0
    0.1738    1.3452    0.1940 H   0  0  0  0  0  0  0  0  0  0  0  0
  1  2  1  0
  2  3  1  0
  3  4  1  0
  4  5  1  0
  5  6  1  0
  6  7  1  0
  5  8  1  0
  8  9  1  0
  4  2  1  0
  7  5  1  0
  8  3  1  0
  1 10  1  0
  2 11  1  0
  3 12  1  0
  4 13  1  0
  6 14  1  0
  6 15  1  0
  7 16  1  0
  7 17  1  0
  8 18  1  0
  9 19  1  0
M  END
$$$$
