gdb 1109	3.8024332	0.9934789	0.9787117	1.2418	76.98	-0.24505	-0.01256	0.23249	1298.1575	0.156997	-422.571489	-422.562918	-422.561974	-422.60527	31.404
 OpenBabel02181911403D

 19 20  0  0  1  0  0  0  0  0999 V2000
    2.2430   -1.6297   -3.6116 C   0  0  0  0  0  0  0  0  0  0  0  0
    1.8470   -1.2582   -2.1955 C   0  0  0  0  0  0  0  0  0  0  0  0
    2.2301   -1.8906   -1.2320 O   0  0  0  0  0  0  0  0  0  0  0  0
    0.9572   -0.0698   -2.0487 C   0  0  2  0  0  0  0  0  0  0  0  0
    1.1508    0.7803   -0.7984 C   0  0  1  0  0  0  0  0  0  0  0  0
    0.6229    2.1991   -0.8893 C   0  0  0  0  0  0  0  0  0  0  0  0
   -0.6848    2.0840   -1.4461 O   0  0  0  0  0  0  0  0  0  0  0  0
   -1.2338    0.8289   -1.0504 C   0  0  0  0  0  0  0  0  0  0  0  0
   -0.0472   -0.1038   -0.9025 C   0  0  1  0  0  0  0  0  0  0  0  0
    2.7614   -0.7915   -4.0914 H   0  0  0  0  0  0  0  0  0  0  0  0
    2.8900   -2.5074   -3.6008 H   0  0  0  0  0  0  0  0  0  0  0  0
    1.3494   -1.8339   -4.2128 H   0  0  0  0  0  0  0  0  0  0  0  0
    0.6573    0.4436   -2.9570 H   0  0  0  0  0  0  0  0  0  0  0  0
    1.9804    0.5316   -0.1487 H   0  0  0  0  0  0  0  0  0  0  0  0
    0.5929    2.6486    0.1169 H   0  0  0  0  0  0  0  0  0  0  0  0
    1.1980    2.8605   -1.5455 H   0  0  0  0  0  0  0  0  0  0  0  0
   -1.7649    0.9084   -0.0877 H   0  0  0  0  0  0  0  0  0  0  0  0
   -1.9554    0.5335   -1.8190 H   0  0  0  0  0  0  0  0  0  0  0  0
   -0.1226   -1.0206   -0.3316 H   0  0  0  0  0  0  0  0  0  0  0  0
  1 11  1  0  0  0  0
  1  2  1  0  0  0  0
  2  4  1  0  0  0  0
  2  3  2  0  0  0  0
  4 13  1  6  0  0  0
  4  9  1  0  0  0  0
  4  5  1  0  0  0  0
  5 14  1  1  0  0  0
  6  5  1  0  0  0  0
  6 15  1  0  0  0  0
  7  8  1  0  0  0  0
  7  6  1  0  0  0  0
  8  9  1  0  0  0  0
  8 17  1  0  0  0  0
  9  5  1  0  0  0  0
  9 19  1  1  0  0  0
 10  1  1  0  0  0  0
 12  1  1  0  0  0  0
 16  6  1  0  0  0  0
 18  8  1  0  0  0  0
M TOR 0 0 1 3 4
M TOR 1 0 1 3 8
M TOR 2 0 1 3 12
M TOR 3 1 3 4 5
M TOR 4 1 3 4 8
M TOR 5 1 3 4 13
M TOR 6 1 3 8 7
M TOR 7 1 3 8 18
M TOR 8 2 1 0 9
M TOR 9 2 1 0 10
M TOR 10 2 1 0 11
M TOR 11 2 1 3 4
M TOR 12 2 1 3 8
M TOR 13 2 1 3 12
M TOR 14 3 1 0 9
M TOR 15 3 1 0 10
M TOR 16 3 1 0 11
M TOR 17 3 4 5 6
M TOR 18 3 4 5 14
M TOR 19 3 4 5 15
M TOR 20 3 4 8 7
M TOR 21 3 4 8 18
M TOR 22 3 8 4 5
M TOR 23 3 8 4 13
M TOR 24 3 8 7 6
M TOR 25 3 8 7 16
M TOR 26 3 8 7 17
M TOR 27 4 5 6 7
M TOR 28 4 8 3 12
M TOR 29 4 8 7 6
M TOR 30 4 8 7 16
M TOR 31 4 8 7 17
M TOR 32 5 4 3 12
M TOR 33 5 4 8 7
M TOR 34 5 4 8 18
M TOR 35 5 6 7 8
M TOR 36 5 6 7 16
M TOR 37 5 6 7 17
M TOR 38 6 5 4 8
M TOR 39 6 5 4 13
M TOR 40 6 7 8 18
M TOR 41 7 6 5 14
M TOR 42 7 6 5 15
M TOR 43 7 8 3 12
M TOR 44 7 8 4 13
M TOR 45 8 4 5 14
M TOR 46 8 4 5 15
M  END
$$$$
