gdb 1283	3.6772783	1.0253676	1.0220718	1.8138	76.81	-0.24238	-0.00412	0.23826	1261.5912	0.156466	-422.550675	-422.542041	-422.541097	-422.584137	32.696
 OpenBabel02181911403D

 19 20  0  0  1  0  0  0  0  0999 V2000
    3.7168    2.5817    0.2328 C   0  0  0  0  0  0  0  0  0  0  0  0
    4.2675    3.8853    0.8053 C   0  0  2  0  0  0  0  0  0  0  0  0
    5.5437    3.5677    1.3711 O   0  0  0  0  0  0  0  0  0  0  0  0
    3.3783    4.5070    1.8480 C   0  0  0  0  0  0  0  0  0  0  0  0
    2.9041    5.7598    1.8404 C   0  0  0  0  0  0  0  0  0  0  0  0
    2.2117    6.0703    3.1249 C   0  0  2  0  0  0  0  0  0  0  0  0
    3.0959    5.9835    4.2704 O   0  0  0  0  0  0  0  0  0  0  0  0
    2.2891    4.8501    3.9474 C   0  0  2  0  0  0  0  0  0  0  0  0
    3.0022    3.7787    3.1328 C   0  0  0  0  0  0  0  0  0  0  0  0
    3.5884    1.8359    1.0223 H   0  0  0  0  0  0  0  0  0  0  0  0
    2.7518    2.7520   -0.2525 H   0  0  0  0  0  0  0  0  0  0  0  0
    4.4164    2.1785   -0.5042 H   0  0  0  0  0  0  0  0  0  0  0  0
    4.3896    4.6072   -0.0179 H   0  0  0  0  0  0  0  0  0  0  0  0
    5.8871    4.3710    1.7773 H   0  0  0  0  0  0  0  0  0  0  0  0
    3.0423    6.4793    1.0418 H   0  0  0  0  0  0  0  0  0  0  0  0
    1.4264    6.8152    3.2064 H   0  0  0  0  0  0  0  0  0  0  0  0
    1.5436    4.5806    4.6907 H   0  0  0  0  0  0  0  0  0  0  0  0
    3.8855    3.3820    3.6442 H   0  0  0  0  0  0  0  0  0  0  0  0
    2.3360    2.9289    2.9376 H   0  0  0  0  0  0  0  0  0  0  0  0
  1  2  1  0  0  0  0
  1 10  1  0  0  0  0
  2 13  1  6  0  0  0
  2  3  1  0  0  0  0
  2  4  1  0  0  0  0
  3 14  1  0  0  0  0
  4  9  1  0  0  0  0
  5  4  2  0  0  0  0
  5  6  1  0  0  0  0
  6 16  1  1  0  0  0
  6  8  1  0  0  0  0
  6  7  1  0  0  0  0
  8  7  1  0  0  0  0
  8 17  1  1  0  0  0
  9 18  1  0  0  0  0
  9  8  1  0  0  0  0
 11  1  1  0  0  0  0
 12  1  1  0  0  0  0
 15  5  1  0  0  0  0
 19  9  1  0  0  0  0
M TOR 0 0 1 2 13
M TOR 1 0 1 3 4
M TOR 2 0 1 3 8
M TOR 3 1 3 4 5
M TOR 4 1 3 4 14
M TOR 5 1 3 8 7
M TOR 6 1 3 8 17
M TOR 7 1 3 8 18
M TOR 8 2 1 0 9
M TOR 9 2 1 0 10
M TOR 10 2 1 0 11
M TOR 11 2 1 3 4
M TOR 12 2 1 3 8
M TOR 13 3 1 0 9
M TOR 14 3 1 0 10
M TOR 15 3 1 0 11
M TOR 16 3 1 2 13
M TOR 17 3 4 5 6
M TOR 18 3 4 5 7
M TOR 19 3 4 5 15
M TOR 20 3 8 7 5
M TOR 21 3 8 7 6
M TOR 22 3 8 7 16
M TOR 23 4 3 1 12
M TOR 24 4 3 8 7
M TOR 25 4 3 8 17
M TOR 26 4 3 8 18
M TOR 27 4 5 6 7
M TOR 28 4 5 7 8
M TOR 29 4 5 7 16
M TOR 30 5 4 3 8
M TOR 31 5 6 7 8
M TOR 32 5 6 7 16
M TOR 33 5 7 8 17
M TOR 34 5 7 8 18
M TOR 35 6 5 4 14
M TOR 36 6 7 5 15
M TOR 37 6 7 8 17
M TOR 38 6 7 8 18
M TOR 39 7 5 4 14
M TOR 40 8 3 1 12
M TOR 41 8 3 4 14
M TOR 42 8 7 5 15
M  END
$$$$
