gdb 3471	2.796949	1.4296864	1.0722125	1.3999	78.18	-0.22878	0.00844	0.23722000000000001	1144.1564	0.156712	-422.556068	-422.547398	-422.546454	-422.589222	33.554
 OpenBabel02181911413D

 19 20  0  0  1  0  0  0  0  0999 V2000
   -0.5159    2.8948    1.7654 O   0  0  0  0  0  0  0  0  0  0  0  0
   -1.2951    1.9941    0.9877 C   0  0  1  0  0  0  0  0  0  0  0  0
   -2.5938    2.5455    0.4466 C   0  0  0  0  0  0  0  0  0  0  0  0
   -2.8045    2.1435   -0.8093 C   0  0  0  0  0  0  0  0  0  0  0  0
   -1.6932    1.2988   -1.3165 C   0  0  0  0  0  0  0  0  0  0  0  0
   -1.9514   -0.0544   -1.9500 C   0  0  0  0  0  0  0  0  0  0  0  0
   -1.4174    1.0786   -2.7831 C   0  0  0  0  0  0  0  0  0  0  0  0
   -0.5724    1.4971   -0.2939 C   0  0  2  0  0  0  0  0  0  0  0  0
    0.2039    0.3292   -0.1307 O   0  0  0  0  0  0  0  0  0  0  0  0
   -0.4339    3.7119    1.2604 H   0  0  0  0  0  0  0  0  0  0  0  0
   -1.4728    1.1392    1.6535 H   0  0  0  0  0  0  0  0  0  0  0  0
   -3.2651    3.1450    1.0506 H   0  0  0  0  0  0  0  0  0  0  0  0
   -3.6828    2.3643   -1.4074 H   0  0  0  0  0  0  0  0  0  0  0  0
   -1.2698   -0.8509   -1.6777 H   0  0  0  0  0  0  0  0  0  0  0  0
   -2.9837   -0.3573   -2.0887 H   0  0  0  0  0  0  0  0  0  0  0  0
   -0.3769    1.0323   -3.0886 H   0  0  0  0  0  0  0  0  0  0  0  0
   -2.0775    1.5512   -3.5035 H   0  0  0  0  0  0  0  0  0  0  0  0
    0.0653    2.3318   -0.6367 H   0  0  0  0  0  0  0  0  0  0  0  0
    0.8962    0.5300    0.5079 H   0  0  0  0  0  0  0  0  0  0  0  0
  2 11  1  1  0  0  0
  2  1  1  0  0  0  0
  3  2  1  0  0  0  0
  3 12  1  0  0  0  0
  4  3  2  0  0  0  0
  5  4  1  0  0  0  0
  5  8  1  0  0  0  0
  6 14  1  0  0  0  0
  6  5  1  0  0  0  0
  7  6  1  0  0  0  0
  7  5  1  0  0  0  0
  8 18  1  6  0  0  0
  8  9  1  0  0  0  0
  8  2  1  0  0  0  0
  9 19  1  0  0  0  0
 10  1  1  0  0  0  0
 13  4  1  0  0  0  0
 15  6  1  0  0  0  0
 16  7  1  0  0  0  0
 17  7  1  0  0  0  0
M TOR 0 0 1 2 3
M TOR 1 0 1 2 11
M TOR 2 0 1 7 4
M TOR 3 0 1 7 8
M TOR 4 0 1 7 17
M TOR 5 1 2 3 4
M TOR 6 1 2 3 12
M TOR 7 1 7 4 3
M TOR 8 1 7 4 5
M TOR 9 1 7 4 6
M TOR 10 1 7 8 18
M TOR 11 2 1 0 9
M TOR 12 2 1 7 4
M TOR 13 2 1 7 8
M TOR 14 2 1 7 17
M TOR 15 2 3 4 5
M TOR 16 2 3 4 6
M TOR 17 2 3 4 7
M TOR 18 3 2 1 7
M TOR 19 3 2 1 10
M TOR 20 3 4 5 6
M TOR 21 3 4 5 13
M TOR 22 3 4 5 14
M TOR 23 3 4 6 15
M TOR 24 3 4 6 16
M TOR 25 3 4 7 8
M TOR 26 3 4 7 17
M TOR 27 4 3 2 11
M TOR 28 4 5 6 15
M TOR 29 4 5 6 16
M TOR 30 4 6 5 13
M TOR 31 4 6 5 14
M TOR 32 4 7 1 10
M TOR 33 4 7 8 18
M TOR 34 5 4 3 12
M TOR 35 5 4 7 8
M TOR 36 5 4 7 17
M TOR 37 5 6 4 7
M TOR 38 6 4 3 12
M TOR 39 6 4 7 8
M TOR 40 6 4 7 17
M TOR 41 7 1 0 9
M TOR 42 7 1 2 11
M TOR 43 7 4 3 12
M TOR 44 7 4 5 13
M TOR 45 7 4 5 14
M TOR 46 7 4 6 15
M TOR 47 7 4 6 16
M TOR 48 8 7 1 10
M  END
$$$$
