gdb 5899	6.2460544	0.5375829	0.5016826	2.5732	78.59	-0.24693	-0.02061	0.22632000000000002	2108.9064	0.152829	-422.540741	-422.529767	-422.528823	-422.57896	37.262
 OpenBabel02181911423D

 19 18  0  0  0  0  0  0  0  0999 V2000
    3.8529   -1.1627   -3.5839 O   0  0  0  0  0  0  0  0  0  0  0  0
    3.3498   -0.9475   -2.2749 C   0  0  0  0  0  0  0  0  0  0  0  0
    1.8220   -0.8668   -2.2514 C   0  0  0  0  0  0  0  0  0  0  0  0
    1.2431   -0.7352   -0.8508 C   0  0  0  0  0  0  0  0  0  0  0  0
    1.9505   -0.7114    0.1325 O   0  0  0  0  0  0  0  0  0  0  0  0
   -0.2731   -0.6378   -0.7496 C   0  0  0  0  0  0  0  0  0  0  0  0
   -0.7674   -0.5246    0.7015 C   0  0  0  0  0  0  0  0  0  0  0  0
   -2.2188   -0.4257    0.7851 C   0  0  0  0  0  0  0  0  0  0  0  0
   -3.4174   -0.3453    0.8272 C   0  0  0  0  0  0  0  0  0  0  0  0
    3.6999   -0.3636   -4.0977 H   0  0  0  0  0  0  0  0  0  0  0  0
    3.6816   -1.7993   -1.6761 H   0  0  0  0  0  0  0  0  0  0  0  0
    3.7806   -0.0494   -1.8120 H   0  0  0  0  0  0  0  0  0  0  0  0
    1.4680   -0.0170   -2.8534 H   0  0  0  0  0  0  0  0  0  0  0  0
    1.3961   -1.7580   -2.7308 H   0  0  0  0  0  0  0  0  0  0  0  0
   -0.6099    0.2242   -1.3394 H   0  0  0  0  0  0  0  0  0  0  0  0
   -0.7158   -1.5131   -1.2413 H   0  0  0  0  0  0  0  0  0  0  0  0
   -0.4135   -1.3906    1.2717 H   0  0  0  0  0  0  0  0  0  0  0  0
   -0.3004    0.3462    1.1746 H   0  0  0  0  0  0  0  0  0  0  0  0
   -4.4752   -0.2738    0.8833 H   0  0  0  0  0  0  0  0  0  0  0  0
  1  2  1  0  0  0  0
  2  3  1  0  0  0  0
  2 12  1  0  0  0  0
  2 11  1  0  0  0  0
  3  4  1  0  0  0  0
  4  6  1  0  0  0  0
  4  5  2  0  0  0  0
  6  7  1  0  0  0  0
  7  8  1  0  0  0  0
  7 18  1  0  0  0  0
  7 17  1  0  0  0  0
  8  9  3  0  0  0  0
  9 19  1  0  0  0  0
 10  1  1  0  0  0  0
 13  3  1  0  0  0  0
 14  3  1  0  0  0  0
 15  6  1  0  0  0  0
 16  6  1  0  0  0  0
M TOR 0 0 1 2 3
M TOR 1 0 1 2 12
M TOR 2 0 1 2 13
M TOR 3 1 2 3 4
M TOR 4 1 2 3 5
M TOR 5 2 1 0 9
M TOR 6 2 3 5 6
M TOR 7 2 3 5 14
M TOR 8 2 3 5 15
M TOR 9 3 2 1 10
M TOR 10 3 2 1 11
M TOR 11 3 5 6 7
M TOR 12 3 5 6 16
M TOR 13 3 5 6 17
M TOR 14 4 3 2 12
M TOR 15 4 3 2 13
M TOR 16 4 3 5 6
M TOR 17 4 3 5 14
M TOR 18 4 3 5 15
M TOR 19 5 3 2 12
M TOR 20 5 3 2 13
M TOR 21 5 6 7 8
M TOR 22 6 7 8 18
M TOR 23 7 6 5 14
M TOR 24 7 6 5 15
M TOR 25 8 7 6 16
M TOR 26 8 7 6 17
M  END
$$$$
