gdb 2143	2.7244148	1.8098593	1.6477413	2.1818	72.9	-0.22628	0.07169	0.29797	917.6006	0.159044	-422.542665	-422.535647	-422.534703	-422.573401	29.5
 OpenBabel02181911403D

 19 21  0  0  1  0  0  0  0  0999 V2000
    0.6220    0.4051    0.5823 O   0  0  0  0  0  0  0  0  0  0  0  0
   -0.7494    0.6095    0.7847 C   0  0  1  0  0  0  0  0  0  0  0  0
   -1.3198    0.6943    2.2346 C   0  0  0  0  0  0  0  0  0  0  0  0
   -2.5725   -0.0245    1.7004 C   0  0  1  0  0  0  0  0  0  0  0  0
   -3.3210    0.7174    0.5344 C   0  0  1  0  0  0  0  0  0  0  0  0
   -2.7015    2.0774    0.2326 C   0  0  0  0  0  0  0  0  0  0  0  0
   -1.1909    1.8387   -0.0137 C   0  0  0  0  0  0  0  0  0  0  0  0
   -2.7988   -0.2344   -0.4503 O   0  0  0  0  0  0  0  0  0  0  0  0
   -1.7819   -0.5705    0.5007 C   0  0  1  0  0  0  0  0  0  0  0  0
    0.8960   -0.3615    1.0963 H   0  0  0  0  0  0  0  0  0  0  0  0
   -0.7750    0.0348    2.9198 H   0  0  0  0  0  0  0  0  0  0  0  0
   -1.4067    1.6835    2.6933 H   0  0  0  0  0  0  0  0  0  0  0  0
   -3.1923   -0.6390    2.3517 H   0  0  0  0  0  0  0  0  0  0  0  0
   -4.4133    0.7118    0.5556 H   0  0  0  0  0  0  0  0  0  0  0  0
   -3.1736    2.5245   -0.6472 H   0  0  0  0  0  0  0  0  0  0  0  0
   -2.8729    2.7588    1.0738 H   0  0  0  0  0  0  0  0  0  0  0  0
   -1.0059    1.6469   -1.0734 H   0  0  0  0  0  0  0  0  0  0  0  0
   -0.5871    2.7016    0.2820 H   0  0  0  0  0  0  0  0  0  0  0  0
   -1.3720   -1.5778    0.3859 H   0  0  0  0  0  0  0  0  0  0  0  0
  1 10  1  0  0  0  0
  2  1  1  6  0  0  0
  2  3  1  0  0  0  0
  3 12  1  0  0  0  0
  3 11  1  0  0  0  0
  4  3  1  0  0  0  0
  4 13  1  1  0  0  0
  5 14  1  1  0  0  0
  5  4  1  0  0  0  0
  6  5  1  0  0  0  0
  6 16  1  0  0  0  0
  7  6  1  0  0  0  0
  7 18  1  0  0  0  0
  7  2  1  0  0  0  0
  8  9  1  0  0  0  0
  8  5  1  0  0  0  0
  9 19  1  1  0  0  0
  9  2  1  0  0  0  0
  9  4  1  0  0  0  0
 15  6  1  0  0  0  0
 17  7  1  0  0  0  0
M TOR 0 0 1 2 3
M TOR 1 0 1 2 10
M TOR 2 0 1 2 11
M TOR 3 0 1 6 5
M TOR 4 0 1 6 16
M TOR 5 0 1 6 17
M TOR 6 0 1 8 3
M TOR 7 0 1 8 7
M TOR 8 0 1 8 18
M TOR 9 1 2 3 4
M TOR 10 1 2 3 8
M TOR 11 1 2 3 12
M TOR 12 1 6 5 4
M TOR 13 1 6 5 14
M TOR 14 1 6 5 15
M TOR 15 1 8 3 4
M TOR 16 1 8 3 12
M TOR 17 1 8 7 4
M TOR 18 2 1 0 9
M TOR 19 2 1 6 5
M TOR 20 2 1 6 16
M TOR 21 2 1 6 17
M TOR 22 2 1 8 7
M TOR 23 2 1 8 18
M TOR 24 2 3 4 5
M TOR 25 2 3 4 7
M TOR 26 2 3 4 13
M TOR 27 2 3 8 7
M TOR 28 2 3 8 18
M TOR 29 3 2 1 6
M TOR 30 3 4 5 6
M TOR 31 3 4 5 14
M TOR 32 3 4 5 15
M TOR 33 3 4 7 8
M TOR 34 3 8 1 6
M TOR 35 4 3 2 10
M TOR 36 4 3 2 11
M TOR 37 4 3 8 18
M TOR 38 4 5 6 16
M TOR 39 4 5 6 17
M TOR 40 4 7 8 18
M TOR 41 5 4 3 8
M TOR 42 5 4 3 12
M TOR 43 5 4 7 8
M TOR 44 5 6 1 8
M TOR 45 6 1 0 9
M TOR 46 6 1 2 10
M TOR 47 6 1 2 11
M TOR 48 6 1 8 7
M TOR 49 6 1 8 18
M TOR 50 6 5 4 7
M TOR 51 6 5 4 13
M TOR 52 7 4 3 12
M TOR 53 7 4 5 14
M TOR 54 7 4 5 15
M TOR 55 7 8 3 12
M TOR 56 8 1 0 9
M TOR 57 8 1 2 10
M TOR 58 8 1 2 11
M TOR 59 8 1 6 16
M TOR 60 8 1 6 17
M TOR 61 8 3 2 10
M TOR 62 8 3 2 11
M TOR 63 8 3 4 13
M TOR 64 8 7 4 13
M  END
$$$$
