
     RDKit          3D

 19 20  0  0  0  0  0  0  0  0999 V2000
   -1.1751   -0.7809    0.0298 C   0  0  0  0  0  0  0  0  0  0  0  0
   -0.4027   -1.0359   -1.2318 C   0  0  0  0  0  0  0  0  0  0  0  0
    0.7314   -1.9836   -1.5604 C   0  0  0  0  0  0  0  0  0  0  0  0
    0.1363   -2.3177   -2.9272 C   0  0  0  0  0  0  0  0  0  0  0  0
   -1.0440   -1.3366   -2.5906 C   0  0  0  0  0  0  0  0  0  0  0  0
   -1.2357   -0.1964   -3.3970 O   0  0  0  0  0  0  0  0  0  0  0  0
    1.0046   -0.4857   -1.5077 C   0  0  0  0  0  0  0  0  0  0  0  0
    1.8019    0.0014   -0.3607 C   0  0  0  0  0  0  0  0  0  0  0  0
    1.8687   -0.5325    0.7249 O   0  0  0  0  0  0  0  0  0  0  0  0
   -1.9190   -1.5702    0.1868 H   0  0  0  0  0  0  0  0  0  0  0  0
   -0.5161   -0.7569    0.8992 H   0  0  0  0  0  0  0  0  0  0  0  0
   -1.7103    0.1737   -0.0289 H   0  0  0  0  0  0  0  0  0  0  0  0
    1.2658   -2.6426   -0.8877 H   0  0  0  0  0  0  0  0  0  0  0  0
    0.7453   -2.0487   -3.7959 H   0  0  0  0  0  0  0  0  0  0  0  0
   -0.1946   -3.3545   -3.0249 H   0  0  0  0  0  0  0  0  0  0  0  0
   -1.9852   -1.8869   -2.4534 H   0  0  0  0  0  0  0  0  0  0  0  0
   -1.6310   -0.4756   -4.2290 H   0  0  0  0  0  0  0  0  0  0  0  0
    1.1604    0.0574   -2.4353 H   0  0  0  0  0  0  0  0  0  0  0  0
    2.3761    0.9319   -0.5663 H   0  0  0  0  0  0  0  0  0  0  0  0
  1  2  1  0
  2  3  1  0
  3  4  1  0
  4  5  1  0
  5  6  1  0
  3  7  1  0
  7  8  1  0
  8  9  2  0
  5  2  1  0
  7  2  1  0
  1 10  1  0
  1 11  1  0
  1 12  1  0
  3 13  1  0
  4 14  1  0
  4 15  1  0
  5 16  1  0
  6 17  1  0
  7 18  1  0
  8 19  1  0
M  END
$$$$
