
     RDKit          3D

 19 21  0  0  0  0  0  0  0  0999 V2000
    1.3342    0.8103   -0.3025 O   0  0  0  0  0  0  0  0  0  0  0  0
    0.2259    0.1028    0.2357 C   0  0  0  0  0  0  0  0  0  0  0  0
   -1.0477    0.9239    0.2867 C   0  0  0  0  0  0  0  0  0  0  0  0
   -2.3856    0.1457    0.5433 C   0  0  0  0  0  0  0  0  0  0  0  0
   -3.0271    0.9511   -0.5847 C   0  0  0  0  0  0  0  0  0  0  0  0
   -2.6327    2.4068   -0.4351 C   0  0  0  0  0  0  0  0  0  0  0  0
   -2.2308    2.8785    0.8367 O   0  0  0  0  0  0  0  0  0  0  0  0
   -1.0335    2.1735    1.1752 C   0  0  0  0  0  0  0  0  0  0  0  0
   -1.6546    1.4693   -1.0410 C   0  0  0  0  0  0  0  0  0  0  0  0
    1.6024    1.4814    0.3320 H   0  0  0  0  0  0  0  0  0  0  0  0
    0.0766   -0.7552   -0.4282 H   0  0  0  0  0  0  0  0  0  0  0  0
    0.4512   -0.3002    1.2369 H   0  0  0  0  0  0  0  0  0  0  0  0
   -2.2865   -0.9116    0.2808 H   0  0  0  0  0  0  0  0  0  0  0  0
   -2.8249    0.2313    1.5432 H   0  0  0  0  0  0  0  0  0  0  0  0
   -3.8748    0.6466   -1.1886 H   0  0  0  0  0  0  0  0  0  0  0  0
   -3.1555    3.1519   -1.0224 H   0  0  0  0  0  0  0  0  0  0  0  0
   -0.1547    2.8075    0.9722 H   0  0  0  0  0  0  0  0  0  0  0  0
   -1.0608    1.9385    2.2453 H   0  0  0  0  0  0  0  0  0  0  0  0
   -1.1771    1.5360   -2.0091 H   0  0  0  0  0  0  0  0  0  0  0  0
  1  2  1  0
  2  3  1  0
  3  4  1  0
  4  5  1  0
  5  6  1  0
  6  7  1  0
  7  8  1  0
  6  9  1  0
  8  3  1  0
  9  3  1  0
  9  5  1  0
  1 10  1  0
  2 11  1  0
  2 12  1  0
  4 13  1  0
  4 14  1  0
  5 15  1  0
  6 16  1  0
  8 17  1  0
  8 18  1  0
  9 19  1  0
M  END
$$$$
