
     RDKit          3D

 19 20  0  0  0  0  0  0  0  0999 V2000
   -0.0306   -0.2298   -0.1212 C   0  0  0  0  0  0  0  0  0  0  0  0
    1.4455    0.0769    0.1413 C   0  0  0  0  0  0  0  0  0  0  0  0
    1.7960   -0.5030    1.4037 O   0  0  0  0  0  0  0  0  0  0  0  0
    2.8903    0.2312    1.9635 C   0  0  0  0  0  0  0  0  0  0  0  0
    2.7484    1.6469    1.4372 C   0  0  0  0  0  0  0  0  0  0  0  0
    1.3686    2.2467    1.5164 C   0  0  0  0  0  0  0  0  0  0  0  0
    1.8117    1.5482    0.2573 C   0  0  0  0  0  0  0  0  0  0  0  0
    2.2699   -0.6014   -0.9609 C   0  0  0  0  0  0  0  0  0  0  0  0
    2.6151   -0.0778   -1.9875 O   0  0  0  0  0  0  0  0  0  0  0  0
   -0.6446    0.2127    0.6669 H   0  0  0  0  0  0  0  0  0  0  0  0
   -0.3359    0.1819   -1.0870 H   0  0  0  0  0  0  0  0  0  0  0  0
   -0.2062   -1.3099   -0.1292 H   0  0  0  0  0  0  0  0  0  0  0  0
    2.8118    0.1389    3.0518 H   0  0  0  0  0  0  0  0  0  0  0  0
    3.8558   -0.1959    1.6498 H   0  0  0  0  0  0  0  0  0  0  0  0
    3.6217    2.2875    1.4200 H   0  0  0  0  0  0  0  0  0  0  0  0
    0.6333    1.7621    2.1512 H   0  0  0  0  0  0  0  0  0  0  0  0
    1.2914    3.3275    1.4796 H   0  0  0  0  0  0  0  0  0  0  0  0
    1.9769    2.0970   -0.6602 H   0  0  0  0  0  0  0  0  0  0  0  0
    2.5117   -1.6637   -0.7252 H   0  0  0  0  0  0  0  0  0  0  0  0
  1  2  1  0
  2  3  1  0
  3  4  1  0
  4  5  1  0
  5  6  1  0
  6  7  1  0
  2  8  1  0
  8  9  2  0
  7  2  1  0
  7  5  1  0
  1 10  1  0
  1 11  1  0
  1 12  1  0
  4 13  1  0
  4 14  1  0
  5 15  1  0
  6 16  1  0
  6 17  1  0
  7 18  1  0
  8 19  1  0
M  END
$$$$
