
     RDKit          3D

 19 21  0  0  0  0  0  0  0  0999 V2000
   -3.0263   -1.0432    0.5377 O   0  0  0  0  0  0  0  0  0  0  0  0
   -1.6566   -0.9455    0.3191 C   0  0  0  0  0  0  0  0  0  0  0  0
   -0.9744   -2.3144    0.1599 C   0  0  0  0  0  0  0  0  0  0  0  0
   -0.3290   -1.9197   -1.0729 O   0  0  0  0  0  0  0  0  0  0  0  0
   -0.9110   -0.6027   -1.0225 C   0  0  0  0  0  0  0  0  0  0  0  0
   -0.0617    0.4066   -0.2455 C   0  0  0  0  0  0  0  0  0  0  0  0
    0.4239    1.7347   -0.7533 C   0  0  0  0  0  0  0  0  0  0  0  0
    1.4065    0.6337   -0.4331 C   0  0  0  0  0  0  0  0  0  0  0  0
   -0.8248    0.1323    1.0651 C   0  0  0  0  0  0  0  0  0  0  0  0
   -3.3861   -0.1567    0.6462 H   0  0  0  0  0  0  0  0  0  0  0  0
   -0.2584   -2.6035    0.9387 H   0  0  0  0  0  0  0  0  0  0  0  0
   -1.6934   -3.1255   -0.0028 H   0  0  0  0  0  0  0  0  0  0  0  0
   -1.3635   -0.3030   -1.9718 H   0  0  0  0  0  0  0  0  0  0  0  0
    0.2444    1.9764   -1.7964 H   0  0  0  0  0  0  0  0  0  0  0  0
    0.3713    2.5872   -0.0828 H   0  0  0  0  0  0  0  0  0  0  0  0
    1.8929    0.1152   -1.2525 H   0  0  0  0  0  0  0  0  0  0  0  0
    2.0205    0.7423    0.4552 H   0  0  0  0  0  0  0  0  0  0  0  0
   -0.2445   -0.2141    1.9259 H   0  0  0  0  0  0  0  0  0  0  0  0
   -1.4447    0.9792    1.3848 H   0  0  0  0  0  0  0  0  0  0  0  0
  1  2  1  0
  2  3  1  0
  3  4  1  0
  4  5  1  0
  5  6  1  0
  6  7  1  0
  7  8  1  0
  6  9  1  0
  5  2  1  0
  8  6  1  0
  9  2  1  0
  1 10  1  0
  3 11  1  0
  3 12  1  0
  5 13  1  0
  7 14  1  0
  7 15  1  0
  8 16  1  0
  8 17  1  0
  9 18  1  0
  9 19  1  0
M  END
$$$$
