
     RDKit          3D

 19 20  0  0  0  0  0  0  0  0999 V2000
    1.6367   -0.4974    1.1630 C   0  0  0  0  0  0  0  0  0  0  0  0
    0.9953    0.0795   -0.1020 C   0  0  0  0  0  0  0  0  0  0  0  0
    1.7368   -0.3284   -1.3619 C   0  0  0  0  0  0  0  0  0  0  0  0
    1.6661   -1.7804   -1.5760 O   0  0  0  0  0  0  0  0  0  0  0  0
    0.9095   -1.5707   -2.7562 C   0  0  0  0  0  0  0  0  0  0  0  0
    1.7366   -0.8216   -3.7967 C   0  0  0  0  0  0  0  0  0  0  0  0
    1.1402   -0.7175   -5.1440 C   0  0  0  0  0  0  0  0  0  0  0  0
    1.7658   -0.7228   -6.1762 O   0  0  0  0  0  0  0  0  0  0  0  0
    0.9958   -0.0836   -2.6778 C   0  0  0  0  0  0  0  0  0  0  0  0
    1.6708   -1.5889    1.1095 H   0  0  0  0  0  0  0  0  0  0  0  0
    2.6618   -0.1330    1.2904 H   0  0  0  0  0  0  0  0  0  0  0  0
    1.0684   -0.2154    2.0537 H   0  0  0  0  0  0  0  0  0  0  0  0
   -0.0468   -0.2512   -0.1844 H   0  0  0  0  0  0  0  0  0  0  0  0
    0.9801    1.1768   -0.0588 H   0  0  0  0  0  0  0  0  0  0  0  0
    2.7823    0.0036   -1.3294 H   0  0  0  0  0  0  0  0  0  0  0  0
    0.1160   -2.2677   -2.9988 H   0  0  0  0  0  0  0  0  0  0  0  0
    2.8183   -0.9135   -3.7646 H   0  0  0  0  0  0  0  0  0  0  0  0
    0.0263   -0.6365   -5.1488 H   0  0  0  0  0  0  0  0  0  0  0  0
    0.2658    0.6919   -2.8686 H   0  0  0  0  0  0  0  0  0  0  0  0
  1  2  1  0
  2  3  1  0
  3  4  1  0
  4  5  1  0
  5  6  1  0
  6  7  1  0
  7  8  2  0
  6  9  1  0
  9  3  1  0
  9  5  1  0
  1 10  1  0
  1 11  1  0
  1 12  1  0
  2 13  1  0
  2 14  1  0
  3 15  1  0
  5 16  1  0
  6 17  1  0
  7 18  1  0
  9 19  1  0
M  END
$$$$
