gdb 5782	2.7588335	1.3165025	0.9800915	2.032	75.42	-0.23676	-0.0104	0.22636	1213.4715	0.157739	-422.578161	-422.569649	-422.568705	-422.611559	31.935
 OpenBabel02181911423D

 19 20  0  0  1  0  0  0  0  0999 V2000
   -0.1652    0.3782   -1.0896 O   0  0  0  0  0  0  0  0  0  0  0  0
    0.3273   -0.2485    0.0865 C   0  0  0  0  0  0  0  0  0  0  0  0
   -0.0800    0.6115    1.2725 C   0  0  2  0  0  0  0  0  0  0  0  0
    0.5574    2.0172    1.3187 C   0  0  0  0  0  0  0  0  0  0  0  0
    0.7601    2.3333    2.8006 C   0  0  1  0  0  0  0  0  0  0  0  0
   -0.4148    2.1548    3.7011 C   0  0  0  0  0  0  0  0  0  0  0  0
    0.6236    1.0395    3.5942 C   0  0  1  0  0  0  0  0  0  0  0  0
    0.3131   -0.0406    2.6144 C   0  0  0  0  0  0  0  0  0  0  0  0
    0.4156   -1.2295    2.8032 O   0  0  0  0  0  0  0  0  0  0  0  0
    0.0810   -0.1659   -1.8434 H   0  0  0  0  0  0  0  0  0  0  0  0
   -0.0844   -1.2578    0.2201 H   0  0  0  0  0  0  0  0  0  0  0  0
    1.4251   -0.3420    0.0604 H   0  0  0  0  0  0  0  0  0  0  0  0
   -1.1753    0.6911    1.2510 H   0  0  0  0  0  0  0  0  0  0  0  0
    1.5309    1.9918    0.8155 H   0  0  0  0  0  0  0  0  0  0  0  0
   -0.0484    2.7709    0.8085 H   0  0  0  0  0  0  0  0  0  0  0  0
    1.5174    3.0579    3.0773 H   0  0  0  0  0  0  0  0  0  0  0  0
   -0.4181    2.6921    4.6427 H   0  0  0  0  0  0  0  0  0  0  0  0
   -1.4011    1.9956    3.2778 H   0  0  0  0  0  0  0  0  0  0  0  0
    1.2201    0.7905    4.4623 H   0  0  0  0  0  0  0  0  0  0  0  0
  1  2  1  0  0  0  0
  2 11  1  0  0  0  0
  2  3  1  0  0  0  0
  3 13  1  6  0  0  0
  3  4  1  0  0  0  0
  3  8  1  0  0  0  0
  4  5  1  0  0  0  0
  5 16  1  1  0  0  0
  5  7  1  0  0  0  0
  5  6  1  0  0  0  0
  6 17  1  0  0  0  0
  7  6  1  0  0  0  0
  7 19  1  1  0  0  0
  8  9  2  0  0  0  0
  8  7  1  0  0  0  0
 10  1  1  0  0  0  0
 12  2  1  0  0  0  0
 14  4  1  0  0  0  0
 15  4  1  0  0  0  0
 18  6  1  0  0  0  0
M TOR 0 0 1 2 3
M TOR 1 0 1 2 7
M TOR 2 0 1 2 12
M TOR 3 1 2 3 4
M TOR 4 1 2 3 13
M TOR 5 1 2 3 14
M TOR 6 1 2 7 6
M TOR 7 1 2 7 8
M TOR 8 2 1 0 9
M TOR 9 2 3 4 5
M TOR 10 2 3 4 6
M TOR 11 2 3 4 15
M TOR 12 2 7 6 4
M TOR 13 2 7 6 5
M TOR 14 2 7 6 18
M TOR 15 3 2 1 10
M TOR 16 3 2 1 11
M TOR 17 3 2 7 6
M TOR 18 3 2 7 8
M TOR 19 3 4 5 6
M TOR 20 3 4 5 16
M TOR 21 3 4 5 17
M TOR 22 3 4 6 7
M TOR 23 3 4 6 18
M TOR 24 4 3 2 7
M TOR 25 4 3 2 12
M TOR 26 4 5 6 7
M TOR 27 4 5 6 18
M TOR 28 4 6 5 16
M TOR 29 4 6 5 17
M TOR 30 4 6 7 8
M TOR 31 5 4 3 13
M TOR 32 5 4 3 14
M TOR 33 5 6 4 15
M TOR 34 5 6 7 8
M TOR 35 6 4 3 13
M TOR 36 6 4 3 14
M TOR 37 6 7 2 12
M TOR 38 7 2 1 10
M TOR 39 7 2 1 11
M TOR 40 7 2 3 13
M TOR 41 7 2 3 14
M TOR 42 7 6 4 15
M TOR 43 7 6 5 16
M TOR 44 7 6 5 17
M TOR 45 8 7 2 12
M TOR 46 8 7 6 18
M  END
$$$$
