gdb 1418	2.6628005	1.601036	1.4657213	1.7838	75.27	-0.25	0.06897	0.31897	1004.7808	0.155373	-422.500232	-422.491736	-422.490791	-422.53242	33.557
 OpenBabel02181911403D

 19 21  0  0  1  0  0  0  0  0999 V2000
   -0.0550   -0.1861    0.1615 C   0  0  0  0  0  0  0  0  0  0  0  0
    1.4472   -0.0705   -0.0366 C   0  0  1  0  0  0  0  0  0  0  0  0
    2.1574   -0.7169    1.0091 O   0  0  0  0  0  0  0  0  0  0  0  0
    2.0402   -0.2163   -1.4618 C   0  0  1  0  0  0  0  0  0  0  0  0
    1.6513    1.2563   -1.8526 C   0  0  2  0  0  0  0  0  0  0  0  0
    3.0806    1.5743   -2.3376 C   0  0  0  0  0  0  0  0  0  0  0  0
    3.2938    0.6561   -1.1179 C   0  0  1  0  0  0  0  0  0  0  0  0
    2.0686    1.3008   -0.3522 C   0  0  2  0  0  0  0  0  0  0  0  0
    2.0524    2.4469    0.4152 O   0  0  0  0  0  0  0  0  0  0  0  0
   -0.3430    0.2328    1.1307 H   0  0  0  0  0  0  0  0  0  0  0  0
   -0.6101    0.3391   -0.6202 H   0  0  0  0  0  0  0  0  0  0  0  0
   -0.3707   -1.2372    0.1408 H   0  0  0  0  0  0  0  0  0  0  0  0
    1.8015   -1.6050    1.1154 H   0  0  0  0  0  0  0  0  0  0  0  0
    2.0260   -1.0746   -2.1316 H   0  0  0  0  0  0  0  0  0  0  0  0
    0.6955    1.5822   -2.2633 H   0  0  0  0  0  0  0  0  0  0  0  0
    3.3681    1.1714   -3.3137 H   0  0  0  0  0  0  0  0  0  0  0  0
    3.4096    2.6122   -2.2355 H   0  0  0  0  0  0  0  0  0  0  0  0
    4.2176    0.2946   -0.6700 H   0  0  0  0  0  0  0  0  0  0  0  0
    2.4781    2.2417    1.2557 H   0  0  0  0  0  0  0  0  0  0  0  0
  1 10  1  0  0  0  0
  2  1  1  0  0  0  0
  2  3  1  1  0  0  0
  3 13  1  0  0  0  0
  4 14  1  6  0  0  0
  4  7  1  0  0  0  0
  4  2  1  0  0  0  0
  5 15  1  6  0  0  0
  5  4  1  0  0  0  0
  5  8  1  0  0  0  0
  6 17  1  0  0  0  0
  6  5  1  0  0  0  0
  6  7  1  0  0  0  0
  7 18  1  1  0  0  0
  7  8  1  0  0  0  0
  8  2  1  0  0  0  0
  8  9  1  1  0  0  0
  9 19  1  0  0  0  0
 11  1  1  0  0  0  0
 12  1  1  0  0  0  0
 16  6  1  0  0  0  0
M TOR 0 0 1 2 12
M TOR 1 0 1 3 4
M TOR 2 0 1 3 6
M TOR 3 0 1 3 13
M TOR 4 0 1 7 4
M TOR 5 0 1 7 6
M TOR 6 0 1 7 8
M TOR 7 1 3 4 5
M TOR 8 1 3 4 7
M TOR 9 1 3 4 14
M TOR 10 1 3 6 5
M TOR 11 1 3 6 7
M TOR 12 1 3 6 17
M TOR 13 1 7 4 5
M TOR 14 1 7 4 14
M TOR 15 1 7 6 5
M TOR 16 1 7 6 17
M TOR 17 1 7 8 18
M TOR 18 2 1 0 9
M TOR 19 2 1 0 10
M TOR 20 2 1 0 11
M TOR 21 2 1 3 4
M TOR 22 2 1 3 6
M TOR 23 2 1 3 13
M TOR 24 2 1 7 4
M TOR 25 2 1 7 6
M TOR 26 2 1 7 8
M TOR 27 3 1 0 9
M TOR 28 3 1 0 10
M TOR 29 3 1 0 11
M TOR 30 3 1 2 12
M TOR 31 3 1 7 8
M TOR 32 3 4 5 6
M TOR 33 3 4 5 15
M TOR 34 3 4 5 16
M TOR 35 3 4 7 6
M TOR 36 3 4 7 8
M TOR 37 3 6 5 15
M TOR 38 3 6 5 16
M TOR 39 3 6 7 8
M TOR 40 4 3 6 17
M TOR 41 4 5 6 7
M TOR 42 4 5 6 17
M TOR 43 4 7 6 17
M TOR 44 4 7 8 18
M TOR 45 5 4 3 13
M TOR 46 5 4 7 8
M TOR 47 5 6 3 13
M TOR 48 5 6 7 8
M TOR 49 6 3 4 14
M TOR 50 6 5 4 14
M TOR 51 6 7 4 14
M TOR 52 6 7 8 18
M TOR 53 7 1 0 9
M TOR 54 7 1 0 10
M TOR 55 7 1 0 11
M TOR 56 7 1 2 12
M TOR 57 7 1 3 13
M TOR 58 7 4 3 13
M TOR 59 7 4 5 15
M TOR 60 7 4 5 16
M TOR 61 7 6 3 13
M TOR 62 7 6 5 15
M TOR 63 7 6 5 16
M TOR 64 8 7 4 14
M TOR 65 8 7 6 17
M  END
$$$$
