
     RDKit          3D

 19 19  0  0  0  0  0  0  0  0999 V2000
   -3.7798    1.8552   -1.2189 C   0  0  0  0  0  0  0  0  0  0  0  0
   -3.3804    1.2738    0.1515 C   0  0  0  0  0  0  0  0  0  0  0  0
   -4.2124    0.0197    0.4837 C   0  0  0  0  0  0  0  0  0  0  0  0
   -1.9150    1.0018    0.2305 C   0  0  0  0  0  0  0  0  0  0  0  0
   -0.9142    1.4925    1.0165 C   0  0  0  0  0  0  0  0  0  0  0  0
   -1.0917    2.4334    1.9891 O   0  0  0  0  0  0  0  0  0  0  0  0
    0.3016    0.8415    0.6223 C   0  0  0  0  0  0  0  0  0  0  0  0
   -0.0507   -0.0039   -0.3814 C   0  0  0  0  0  0  0  0  0  0  0  0
   -1.3774    0.0762   -0.6331 O   0  0  0  0  0  0  0  0  0  0  0  0
   -3.5621    1.1409   -2.0193 H   0  0  0  0  0  0  0  0  0  0  0  0
   -4.8513    2.0788   -1.2465 H   0  0  0  0  0  0  0  0  0  0  0  0
   -3.2305    2.7770   -1.4313 H   0  0  0  0  0  0  0  0  0  0  0  0
   -3.5787    2.0320    0.9184 H   0  0  0  0  0  0  0  0  0  0  0  0
   -3.9703   -0.3614    1.4800 H   0  0  0  0  0  0  0  0  0  0  0  0
   -5.2831    0.2468    0.4528 H   0  0  0  0  0  0  0  0  0  0  0  0
   -4.0142   -0.7776   -0.2397 H   0  0  0  0  0  0  0  0  0  0  0  0
   -0.2428    2.6168    2.4003 H   0  0  0  0  0  0  0  0  0  0  0  0
    1.2900    0.9869    1.0315 H   0  0  0  0  0  0  0  0  0  0  0  0
    0.5057   -0.6978   -0.9899 H   0  0  0  0  0  0  0  0  0  0  0  0
  1  2  1  0
  2  3  1  0
  2  4  1  0
  4  5  2  0
  5  6  1  0
  5  7  1  0
  7  8  2  0
  8  9  1  0
  9  4  1  0
  1 10  1  0
  1 11  1  0
  1 12  1  0
  2 13  1  0
  3 14  1  0
  3 15  1  0
  3 16  1  0
  6 17  1  0
  7 18  1  0
  8 19  1  0
M  END
$$$$
