
     RDKit          3D

 19 21  0  0  0  0  0  0  0  0999 V2000
    0.0419   -0.2252    0.1380 C   0  0  0  0  0  0  0  0  0  0  0  0
    1.1939    0.6265   -0.3881 C   0  0  0  0  0  0  0  0  0  0  0  0
    2.3257    0.5970    0.5092 O   0  0  0  0  0  0  0  0  0  0  0  0
    2.5295    1.9101    1.0049 C   0  0  0  0  0  0  0  0  0  0  0  0
    1.3339    2.3893    1.8917 C   0  0  0  0  0  0  0  0  0  0  0  0
    0.7299    3.0340    0.6425 C   0  0  0  0  0  0  0  0  0  0  0  0
    0.9035    2.1108   -0.5808 C   0  0  0  0  0  0  0  0  0  0  0  0
    2.0587    2.9044   -0.1011 C   0  0  0  0  0  0  0  0  0  0  0  0
    2.7952    3.7491   -0.8999 O   0  0  0  0  0  0  0  0  0  0  0  0
   -0.3932    0.1987    1.0465 H   0  0  0  0  0  0  0  0  0  0  0  0
   -0.7480   -0.2940   -0.6182 H   0  0  0  0  0  0  0  0  0  0  0  0
    0.3910   -1.2378    0.3594 H   0  0  0  0  0  0  0  0  0  0  0  0
    1.5316    0.2015   -1.3445 H   0  0  0  0  0  0  0  0  0  0  0  0
    3.5372    1.9815    1.4145 H   0  0  0  0  0  0  0  0  0  0  0  0
    0.7851    1.5959    2.4059 H   0  0  0  0  0  0  0  0  0  0  0  0
    1.6408    3.1473    2.6200 H   0  0  0  0  0  0  0  0  0  0  0  0
    0.0007    3.8353    0.6122 H   0  0  0  0  0  0  0  0  0  0  0  0
    0.3993    2.4416   -1.4815 H   0  0  0  0  0  0  0  0  0  0  0  0
    3.1777    4.4393   -0.3471 H   0  0  0  0  0  0  0  0  0  0  0  0
  1  2  1  0
  2  3  1  0
  3  4  1  0
  4  5  1  0
  5  6  1  0
  6  7  1  0
  7  8  1  0
  8  9  1  0
  7  2  1  0
  8  4  1  0
  8  6  1  0
  1 10  1  0
  1 11  1  0
  1 12  1  0
  2 13  1  0
  4 14  1  0
  5 15  1  0
  5 16  1  0
  6 17  1  0
  7 18  1  0
  9 19  1  0
M  END
$$$$
