
     RDKit          3D

 19 21  0  0  0  0  0  0  0  0999 V2000
    0.3985   -0.0988    0.3549 O   0  0  0  0  0  0  0  0  0  0  0  0
   -0.7419    0.6577    0.6439 C   0  0  0  0  0  0  0  0  0  0  0  0
   -2.1032    0.0593    0.3955 C   0  0  0  0  0  0  0  0  0  0  0  0
   -3.2964    0.4146    1.2633 C   0  0  0  0  0  0  0  0  0  0  0  0
   -3.3304    1.7792    1.6432 O   0  0  0  0  0  0  0  0  0  0  0  0
   -3.1569    2.7150    0.6131 C   0  0  0  0  0  0  0  0  0  0  0  0
   -3.6908    2.5532   -0.7842 C   0  0  0  0  0  0  0  0  0  0  0  0
   -2.1889    2.4670   -0.5100 C   0  0  0  0  0  0  0  0  0  0  0  0
   -1.5452    1.1172   -0.5425 C   0  0  0  0  0  0  0  0  0  0  0  0
    0.5176   -0.7396    1.0637 H   0  0  0  0  0  0  0  0  0  0  0  0
   -0.6455    1.3568    1.4744 H   0  0  0  0  0  0  0  0  0  0  0  0
   -2.1028   -0.9607    0.0211 H   0  0  0  0  0  0  0  0  0  0  0  0
   -4.2271    0.1390    0.7418 H   0  0  0  0  0  0  0  0  0  0  0  0
   -3.2757   -0.1435    2.2059 H   0  0  0  0  0  0  0  0  0  0  0  0
   -3.1974    3.7077    1.0478 H   0  0  0  0  0  0  0  0  0  0  0  0
   -4.1885    1.6309   -1.0597 H   0  0  0  0  0  0  0  0  0  0  0  0
   -4.0860    3.4360   -1.2749 H   0  0  0  0  0  0  0  0  0  0  0  0
   -1.5686    3.2985   -0.8332 H   0  0  0  0  0  0  0  0  0  0  0  0
   -1.1843    0.7657   -1.5050 H   0  0  0  0  0  0  0  0  0  0  0  0
  1  2  1  0
  2  3  1  0
  3  4  1  0
  4  5  1  0
  5  6  1  0
  6  7  1  0
  7  8  1  0
  8  9  1  0
  9  2  1  0
  9  3  1  0
  8  6  1  0
  1 10  1  0
  2 11  1  0
  3 12  1  0
  4 13  1  0
  4 14  1  0
  6 15  1  0
  7 16  1  0
  7 17  1  0
  8 18  1  0
  9 19  1  0
M  END
$$$$
