
     RDKit          3D

 19 18  0  0  0  0  0  0  0  0999 V2000
    2.7140   -2.7032   -0.3709 C   0  0  0  0  0  0  0  0  0  0  0  0
    3.0234   -1.2587   -0.7634 C   0  0  0  0  0  0  0  0  0  0  0  0
    2.4689   -0.2276    0.2430 C   0  0  0  0  0  0  0  0  0  0  0  0
    1.0108   -0.2697    0.3473 C   0  0  0  0  0  0  0  0  0  0  0  0
   -0.1891   -0.3071    0.4034 C   0  0  0  0  0  0  0  0  0  0  0  0
    2.9006    1.1955   -0.1411 C   0  0  0  0  0  0  0  0  0  0  0  0
    3.2892    1.5322   -1.2287 O   0  0  0  0  0  0  0  0  0  0  0  0
    2.7884    2.0222    0.9120 O   0  0  0  0  0  0  0  0  0  0  0  0
    3.1230    3.3931    0.6549 C   0  0  0  0  0  0  0  0  0  0  0  0
    3.1506   -2.9555    0.6022 H   0  0  0  0  0  0  0  0  0  0  0  0
    1.6353   -2.8727   -0.3073 H   0  0  0  0  0  0  0  0  0  0  0  0
    3.1237   -3.3985   -1.1093 H   0  0  0  0  0  0  0  0  0  0  0  0
    4.1056   -1.1066   -0.8339 H   0  0  0  0  0  0  0  0  0  0  0  0
    2.6151   -1.0289   -1.7513 H   0  0  0  0  0  0  0  0  0  0  0  0
    2.8878   -0.4257    1.2386 H   0  0  0  0  0  0  0  0  0  0  0  0
   -1.2487   -0.3389    0.4651 H   0  0  0  0  0  0  0  0  0  0  0  0
    2.9743    3.9159    1.5994 H   0  0  0  0  0  0  0  0  0  0  0  0
    4.1617    3.4808    0.3268 H   0  0  0  0  0  0  0  0  0  0  0  0
    2.4728    3.8075   -0.1195 H   0  0  0  0  0  0  0  0  0  0  0  0
  1  2  1  0
  2  3  1  0
  3  4  1  0
  4  5  3  0
  3  6  1  0
  6  7  2  0
  6  8  1  0
  8  9  1  0
  1 10  1  0
  1 11  1  0
  1 12  1  0
  2 13  1  0
  2 14  1  0
  3 15  1  0
  5 16  1  0
  9 17  1  0
  9 18  1  0
  9 19  1  0
M  END
$$$$
