gdb 4961	2.6262488	1.5808677	1.262894	2.0948	74.23	-0.2537	0.06392	0.31762	1051.2723	0.157522	-422.512524	-422.504289	-422.503345	-422.545224	31.9
 OpenBabel02181911413D

 19 21  0  0  1  0  0  0  0  0999 V2000
    1.4582    0.6511   -0.5459 O   0  0  0  0  0  0  0  0  0  0  0  0
    0.1497    0.3832   -0.0525 C   0  0  0  0  0  0  0  0  0  0  0  0
   -0.8456    0.3400   -1.1710 C   0  0  2  0  0  0  0  0  0  0  0  0
   -1.5600    1.5808   -1.7316 C   0  0  1  0  0  0  0  0  0  0  0  0
   -1.9788    1.2855   -3.1710 C   0  0  0  0  0  0  0  0  0  0  0  0
   -2.2530   -0.1613   -2.6824 C   0  0  2  0  0  0  0  0  0  0  0  0
   -2.3584    0.4092   -1.2069 C   0  0  1  0  0  0  0  0  0  0  0  0
   -0.8557   -0.7087   -2.2730 C   0  0  1  0  0  0  0  0  0  0  0  0
    0.2197   -0.7769   -3.1884 O   0  0  0  0  0  0  0  0  0  0  0  0
    1.6183    0.0233   -1.2607 H   0  0  0  0  0  0  0  0  0  0  0  0
    0.1276   -0.5682    0.5045 H   0  0  0  0  0  0  0  0  0  0  0  0
   -0.0836    1.1814    0.6608 H   0  0  0  0  0  0  0  0  0  0  0  0
   -1.4136    2.5441   -1.2597 H   0  0  0  0  0  0  0  0  0  0  0  0
   -2.9085    1.8004   -3.4271 H   0  0  0  0  0  0  0  0  0  0  0  0
   -1.2605    1.4301   -3.9899 H   0  0  0  0  0  0  0  0  0  0  0  0
   -2.9755   -0.7985   -3.1873 H   0  0  0  0  0  0  0  0  0  0  0  0
   -3.0986    0.3158   -0.4266 H   0  0  0  0  0  0  0  0  0  0  0  0
   -0.9468   -1.7136   -1.8495 H   0  0  0  0  0  0  0  0  0  0  0  0
    0.3382    0.0984   -3.5733 H   0  0  0  0  0  0  0  0  0  0  0  0
  1  2  1  0  0  0  0
  2 11  1  0  0  0  0
  2 12  1  0  0  0  0
  3  2  1  1  0  0  0
  4 13  1  1  0  0  0
  4  7  1  0  0  0  0
  4  3  1  0  0  0  0
  5  6  1  0  0  0  0
  5  4  1  0  0  0  0
  6 16  1  6  0  0  0
  6  8  1  0  0  0  0
  6  7  1  0  0  0  0
  7  3  1  0  0  0  0
  7 17  1  1  0  0  0
  8 18  1  1  0  0  0
  8  3  1  0  0  0  0
  9  8  1  0  0  0  0
 10  1  1  0  0  0  0
 14  5  1  0  0  0  0
 15  5  1  0  0  0  0
 19  9  1  0  0  0  0
M TOR 0 0 1 2 3
M TOR 1 0 1 2 6
M TOR 2 0 1 2 7
M TOR 3 1 2 3 4
M TOR 4 1 2 3 6
M TOR 5 1 2 3 12
M TOR 6 1 2 6 5
M TOR 7 1 2 6 16
M TOR 8 1 2 7 5
M TOR 9 1 2 7 8
M TOR 10 1 2 7 17
M TOR 11 2 1 0 9
M TOR 12 2 3 4 5
M TOR 13 2 3 4 13
M TOR 14 2 3 4 14
M TOR 15 2 3 6 5
M TOR 16 2 3 6 16
M TOR 17 2 6 3 4
M TOR 18 2 6 3 12
M TOR 19 2 6 5 4
M TOR 20 2 6 5 7
M TOR 21 2 6 5 15
M TOR 22 2 7 5 4
M TOR 23 2 7 5 15
M TOR 24 2 7 8 18
M TOR 25 3 2 1 10
M TOR 26 3 2 1 11
M TOR 27 3 2 7 5
M TOR 28 3 2 7 8
M TOR 29 3 2 7 17
M TOR 30 3 4 5 6
M TOR 31 3 4 5 7
M TOR 32 3 4 5 15
M TOR 33 3 6 2 7
M TOR 34 3 6 5 7
M TOR 35 3 6 5 15
M TOR 36 4 3 2 7
M TOR 37 4 3 6 16
M TOR 38 4 5 6 16
M TOR 39 4 5 7 8
M TOR 40 4 5 7 17
M TOR 41 5 4 3 12
M TOR 42 5 6 3 12
M TOR 43 5 7 8 18
M TOR 44 6 2 1 10
M TOR 45 6 2 1 11
M TOR 46 6 2 7 8
M TOR 47 6 2 7 17
M TOR 48 6 3 4 13
M TOR 49 6 3 4 14
M TOR 50 6 5 4 13
M TOR 51 6 5 4 14
M TOR 52 6 5 7 8
M TOR 53 6 5 7 17
M TOR 54 7 2 1 10
M TOR 55 7 2 1 11
M TOR 56 7 2 3 12
M TOR 57 7 2 6 16
M TOR 58 7 5 4 13
M TOR 59 7 5 4 14
M TOR 60 7 5 6 16
M TOR 61 8 7 5 15
M  END
$$$$
