gdb 5629	3.2397796	1.2811979	1.0301622	1.7049	76.63	-0.24497	0.00196	0.24692999999999998	1187.531	0.157531	-422.531198	-422.522984	-422.52204	-422.564414	30.414
 OpenBabel02181911423D

 19 20  0  0  1  0  0  0  0  0999 V2000
    1.3859   -0.0592   -0.1799 C   0  0  0  0  0  0  0  0  0  0  0  0
    0.0290   -0.2542    0.1463 O   0  0  0  0  0  0  0  0  0  0  0  0
   -0.4310    0.5802    1.1999 C   0  0  1  0  0  0  0  0  0  0  0  0
   -1.9423    0.5816    1.1966 C   0  0  0  0  0  0  0  0  0  0  0  0
   -2.4694    0.0689    2.3081 C   0  0  0  0  0  0  0  0  0  0  0  0
   -1.4113   -0.3576    3.2855 C   0  0  2  0  0  0  0  0  0  0  0  0
   -1.1995    0.5873    4.3735 O   0  0  0  0  0  0  0  0  0  0  0  0
    0.0115    1.0754    3.7610 C   0  0  0  0  0  0  0  0  0  0  0  0
   -0.0799    0.0524    2.6082 C   0  0  2  0  0  0  0  0  0  0  0  0
    2.0588   -0.3003    0.6575 H   0  0  0  0  0  0  0  0  0  0  0  0
    1.6174   -0.7261   -1.0139 H   0  0  0  0  0  0  0  0  0  0  0  0
    1.5845    0.9795   -0.4884 H   0  0  0  0  0  0  0  0  0  0  0  0
   -0.0294    1.5975    1.0465 H   0  0  0  0  0  0  0  0  0  0  0  0
   -2.4980    0.9604    0.3462 H   0  0  0  0  0  0  0  0  0  0  0  0
   -3.5294   -0.0186    2.5186 H   0  0  0  0  0  0  0  0  0  0  0  0
   -1.5406   -1.3723    3.6771 H   0  0  0  0  0  0  0  0  0  0  0  0
   -0.0716    2.1282    3.4575 H   0  0  0  0  0  0  0  0  0  0  0  0
    0.8732    0.9656    4.4297 H   0  0  0  0  0  0  0  0  0  0  0  0
    0.7157   -0.6915    2.5824 H   0  0  0  0  0  0  0  0  0  0  0  0
  1  2  1  0  0  0  0
  1 10  1  0  0  0  0
  2  3  1  0  0  0  0
  3 13  1  6  0  0  0
  3  9  1  0  0  0  0
  4  3  1  0  0  0  0
  4  5  2  0  0  0  0
  5 15  1  0  0  0  0
  5  6  1  0  0  0  0
  6 16  1  1  0  0  0
  6  7  1  0  0  0  0
  8  7  1  0  0  0  0
  8 18  1  0  0  0  0
  9 19  1  1  0  0  0
  9  6  1  0  0  0  0
  9  8  1  0  0  0  0
 11  1  1  0  0  0  0
 12  1  1  0  0  0  0
 14  4  1  0  0  0  0
 17  8  1  0  0  0  0
M TOR 0 0 1 2 3
M TOR 1 0 1 2 8
M TOR 2 0 1 2 12
M TOR 3 1 2 3 4
M TOR 4 1 2 3 13
M TOR 5 1 2 8 5
M TOR 6 1 2 8 7
M TOR 7 1 2 8 18
M TOR 8 2 1 0 9
M TOR 9 2 1 0 10
M TOR 10 2 1 0 11
M TOR 11 2 3 4 5
M TOR 12 2 3 4 14
M TOR 13 2 8 5 4
M TOR 14 2 8 5 6
M TOR 15 2 8 5 15
M TOR 16 2 8 7 6
M TOR 17 2 8 7 16
M TOR 18 2 8 7 17
M TOR 19 3 2 8 5
M TOR 20 3 2 8 7
M TOR 21 3 2 8 18
M TOR 22 3 4 5 6
M TOR 23 3 4 5 8
M TOR 24 3 4 5 15
M TOR 25 4 3 2 8
M TOR 26 4 3 2 12
M TOR 27 4 5 6 7
M TOR 28 4 5 8 7
M TOR 29 4 5 8 18
M TOR 30 5 4 3 13
M TOR 31 5 6 7 8
M TOR 32 5 6 7 16
M TOR 33 5 6 7 17
M TOR 34 5 8 2 12
M TOR 35 5 8 7 16
M TOR 36 5 8 7 17
M TOR 37 6 5 4 14
M TOR 38 6 5 8 18
M TOR 39 6 7 8 18
M TOR 40 7 6 5 15
M TOR 41 7 8 2 12
M TOR 42 7 8 5 15
M TOR 43 8 2 3 13
M TOR 44 8 5 4 14
M  END
$$$$
