
     RDKit          3D

 19 21  0  0  0  0  0  0  0  0999 V2000
    0.4097    0.6558    0.1107 O   0  0  0  0  0  0  0  0  0  0  0  0
   -0.8201    0.9631    0.6619 C   0  0  0  0  0  0  0  0  0  0  0  0
   -1.2737    0.8764    2.1438 C   0  0  0  0  0  0  0  0  0  0  0  0
   -2.5212    1.2826    1.3142 C   0  0  0  0  0  0  0  0  0  0  0  0
   -3.8268    1.4515    1.7353 O   0  0  0  0  0  0  0  0  0  0  0  0
   -2.1307    0.2622    0.2098 C   0  0  0  0  0  0  0  0  0  0  0  0
   -2.5504    0.8115   -1.1536 C   0  0  0  0  0  0  0  0  0  0  0  0
   -2.1939    2.3155   -0.9608 C   0  0  0  0  0  0  0  0  0  0  0  0
   -1.6535    2.2769    0.4675 C   0  0  0  0  0  0  0  0  0  0  0  0
    1.0664    1.2611    0.4712 H   0  0  0  0  0  0  0  0  0  0  0  0
   -1.2867   -0.1184    2.5971 H   0  0  0  0  0  0  0  0  0  0  0  0
   -0.8692    1.6281    2.8306 H   0  0  0  0  0  0  0  0  0  0  0  0
   -3.8544    2.1838    2.3602 H   0  0  0  0  0  0  0  0  0  0  0  0
   -2.2503   -0.8023    0.4194 H   0  0  0  0  0  0  0  0  0  0  0  0
   -1.9891    0.3477   -1.9696 H   0  0  0  0  0  0  0  0  0  0  0  0
   -3.6153    0.6531   -1.3460 H   0  0  0  0  0  0  0  0  0  0  0  0
   -1.4421    2.6636   -1.6756 H   0  0  0  0  0  0  0  0  0  0  0  0
   -3.0670    2.9689   -1.0525 H   0  0  0  0  0  0  0  0  0  0  0  0
   -1.3006    3.2002    0.9355 H   0  0  0  0  0  0  0  0  0  0  0  0
  1  2  1  0
  2  3  1  0
  3  4  1  0
  4  5  1  0
  4  6  1  0
  6  7  1  0
  7  8  1  0
  8  9  1  0
  6  2  1  0
  9  2  1  0
  9  4  1  0
  1 10  1  0
  3 11  1  0
  3 12  1  0
  5 13  1  0
  6 14  1  0
  7 15  1  0
  7 16  1  0
  8 17  1  0
  8 18  1  0
  9 19  1  0
M  END
$$$$
