gdb 4554	3.0263343	1.3002702	0.9994855	3.4857	79.33	-0.24102	-0.05102	0.19	1208.2172	0.157126	-422.575699	-422.567117	-422.566173	-422.608956	32.228
 OpenBabel02181911413D

 19 19  0  0  1  0  0  0  0  0999 V2000
   -3.5870    1.4248   -2.3260 C   0  0  0  0  0  0  0  0  0  0  0  0
   -2.7372    0.6548   -1.3154 C   0  0  1  0  0  0  0  0  0  0  0  0
   -1.9695   -0.2852   -2.0561 O   0  0  0  0  0  0  0  0  0  0  0  0
   -1.5984   -1.4704   -1.3832 C   0  0  0  0  0  0  0  0  0  0  0  0
   -1.0115   -1.2529    0.0232 C   0  0  0  0  0  0  0  0  0  0  0  0
   -0.0646   -0.0626    0.1251 C   0  0  0  0  0  0  0  0  0  0  0  0
    1.1210   -0.2017    0.3469 O   0  0  0  0  0  0  0  0  0  0  0  0
   -0.6726    1.2913    0.0422 C   0  0  0  0  0  0  0  0  0  0  0  0
   -1.8453    1.5941   -0.5248 C   0  0  0  0  0  0  0  0  0  0  0  0
   -4.2140    2.1659   -1.8214 H   0  0  0  0  0  0  0  0  0  0  0  0
   -2.9423    1.9417   -3.0428 H   0  0  0  0  0  0  0  0  0  0  0  0
   -4.2301    0.7342   -2.8758 H   0  0  0  0  0  0  0  0  0  0  0  0
   -3.4155    0.1236   -0.6250 H   0  0  0  0  0  0  0  0  0  0  0  0
   -2.4561   -2.1581   -1.3059 H   0  0  0  0  0  0  0  0  0  0  0  0
   -0.8498   -1.9397   -2.0283 H   0  0  0  0  0  0  0  0  0  0  0  0
   -1.8278   -1.0928    0.7381 H   0  0  0  0  0  0  0  0  0  0  0  0
   -0.4671   -2.1497    0.3296 H   0  0  0  0  0  0  0  0  0  0  0  0
   -0.0637    2.0741    0.4862 H   0  0  0  0  0  0  0  0  0  0  0  0
   -2.1827    2.6282   -0.4882 H   0  0  0  0  0  0  0  0  0  0  0  0
  1 10  1  0  0  0  0
  1  2  1  0  0  0  0
  2 13  1  1  0  0  0
  2  9  1  0  0  0  0
  3  4  1  0  0  0  0
  3  2  1  0  0  0  0
  4 14  1  0  0  0  0
  4  5  1  0  0  0  0
  5  6  1  0  0  0  0
  5 17  1  0  0  0  0
  5 16  1  0  0  0  0
  6  7  2  0  0  0  0
  8  6  1  0  0  0  0
  8 18  1  0  0  0  0
  9 19  1  0  0  0  0
  9  8  2  0  0  0  0
 11  1  1  0  0  0  0
 12  1  1  0  0  0  0
 15  4  1  0  0  0  0
M TOR 0 0 1 2 3
M TOR 1 0 1 8 7
M TOR 2 0 1 8 18
M TOR 3 1 2 3 4
M TOR 4 1 2 3 13
M TOR 5 1 2 3 14
M TOR 6 1 8 7 5
M TOR 7 1 8 7 17
M TOR 8 2 1 0 9
M TOR 9 2 1 0 10
M TOR 10 2 1 0 11
M TOR 11 2 1 8 7
M TOR 12 2 1 8 18
M TOR 13 2 3 4 5
M TOR 14 2 3 4 15
M TOR 15 2 3 4 16
M TOR 16 3 2 1 8
M TOR 17 3 2 1 12
M TOR 18 3 4 5 6
M TOR 19 3 4 5 7
M TOR 20 4 5 7 8
M TOR 21 4 5 7 17
M TOR 22 5 4 3 13
M TOR 23 5 4 3 14
M TOR 24 5 7 8 18
M TOR 25 6 5 4 15
M TOR 26 6 5 4 16
M TOR 27 6 5 7 8
M TOR 28 6 5 7 17
M TOR 29 7 5 4 15
M TOR 30 7 5 4 16
M TOR 31 7 8 1 12
M TOR 32 8 1 0 9
M TOR 33 8 1 0 10
M TOR 34 8 1 0 11
M  END
$$$$
