gdb 4683	4.6251662	0.9004241	0.8554048	2.0782	75.42	-0.24359	-0.01627	0.22732	1407.6083	0.154953	-422.533945	-422.524782	-422.523837	-422.569133	32.684
 OpenBabel02181911413D

 19 20  0  0  1  0  0  0  0  0999 V2000
    0.2925   -0.3529   -0.7634 C   0  0  0  0  0  0  0  0  0  0  0  0
    0.9996    0.2878    0.4279 C   0  0  0  0  0  0  0  0  0  0  0  0
    1.6950    1.6000    0.0939 C   0  0  0  0  0  0  0  0  0  0  0  0
    1.7814    2.0160   -1.0418 O   0  0  0  0  0  0  0  0  0  0  0  0
    2.2619    2.3766    1.2624 C   0  0  2  0  0  0  0  0  0  0  0  0
    1.2340    3.4478    1.8237 C   0  0  0  0  0  0  0  0  0  0  0  0
    2.2368    4.5377    1.4246 C   0  0  1  0  0  0  0  0  0  0  0  0
    3.4709    4.2569    2.0935 O   0  0  0  0  0  0  0  0  0  0  0  0
    3.1804    3.5512    0.8835 C   0  0  1  0  0  0  0  0  0  0  0  0
   -0.1596   -1.3069   -0.4785 H   0  0  0  0  0  0  0  0  0  0  0  0
   -0.4949    0.3004   -1.1490 H   0  0  0  0  0  0  0  0  0  0  0  0
    0.9951   -0.5299   -1.5811 H   0  0  0  0  0  0  0  0  0  0  0  0
    0.3069    0.4690    1.2613 H   0  0  0  0  0  0  0  0  0  0  0  0
    1.7650   -0.3850    0.8415 H   0  0  0  0  0  0  0  0  0  0  0  0
    2.6727    1.7093    2.0253 H   0  0  0  0  0  0  0  0  0  0  0  0
    0.3142    3.4833    1.2343 H   0  0  0  0  0  0  0  0  0  0  0  0
    0.9943    3.3833    2.8872 H   0  0  0  0  0  0  0  0  0  0  0  0
    2.0447    5.5663    1.1446 H   0  0  0  0  0  0  0  0  0  0  0  0
    3.8883    3.6129    0.0675 H   0  0  0  0  0  0  0  0  0  0  0  0
  1 10  1  0  0  0  0
  1  2  1  0  0  0  0
  2 14  1  0  0  0  0
  2 13  1  0  0  0  0
  3  2  1  0  0  0  0
  3  5  1  0  0  0  0
  4  3  2  0  0  0  0
  5  6  1  0  0  0  0
  5 15  1  1  0  0  0
  6 17  1  0  0  0  0
  7 18  1  6  0  0  0
  7  6  1  0  0  0  0
  7  8  1  0  0  0  0
  9 19  1  6  0  0  0
  9  5  1  0  0  0  0
  9  7  1  0  0  0  0
  9  8  1  0  0  0  0
 11  1  1  0  0  0  0
 12  1  1  0  0  0  0
 16  6  1  0  0  0  0
M TOR 0 0 1 2 3
M TOR 1 0 1 2 4
M TOR 2 1 2 4 5
M TOR 3 1 2 4 8
M TOR 4 1 2 4 14
M TOR 5 2 1 0 9
M TOR 6 2 1 0 10
M TOR 7 2 1 0 11
M TOR 8 2 4 5 6
M TOR 9 2 4 5 15
M TOR 10 2 4 5 16
M TOR 11 2 4 8 6
M TOR 12 2 4 8 7
M TOR 13 2 4 8 18
M TOR 14 3 2 1 12
M TOR 15 3 2 1 13
M TOR 16 3 2 4 5
M TOR 17 3 2 4 8
M TOR 18 3 2 4 14
M TOR 19 4 2 1 12
M TOR 20 4 2 1 13
M TOR 21 4 5 6 7
M TOR 22 4 5 6 8
M TOR 23 4 5 6 17
M TOR 24 4 8 6 7
M TOR 25 4 8 6 17
M TOR 26 5 4 8 7
M TOR 27 5 4 8 18
M TOR 28 5 6 7 8
M TOR 29 5 6 8 18
M TOR 30 6 5 4 14
M TOR 31 6 7 8 18
M TOR 32 6 8 4 14
M TOR 33 7 6 5 15
M TOR 34 7 6 5 16
M TOR 35 7 8 4 14
M TOR 36 7 8 6 17
M TOR 37 8 4 5 15
M TOR 38 8 4 5 16
M TOR 39 8 6 5 15
M TOR 40 8 6 5 16
M  END
$$$$
