gdb 2831	3.179596	1.2483302	1.0340817	1.5623	76.57	-0.25057	0.06859	0.31916	1199.7871	0.1551	-422.504548	-422.495732	-422.494788	-422.537585	33.619
 OpenBabel02181911413D

 19 21  0  0  1  0  0  0  0  0999 V2000
    3.0587    1.0038    1.1198 C   0  0  0  0  0  0  0  0  0  0  0  0
    2.1518   -0.1190    0.6631 C   0  0  2  0  0  0  0  0  0  0  0  0
    2.5626   -1.5368    1.0399 C   0  0  2  0  0  0  0  0  0  0  0  0
    2.6601   -1.0459   -0.4071 C   0  0  2  0  0  0  0  0  0  0  0  0
    3.8277   -0.8240   -1.1146 O   0  0  0  0  0  0  0  0  0  0  0  0
    1.5615   -2.0265   -0.8553 C   0  0  0  0  0  0  0  0  0  0  0  0
    1.4852   -2.4996    0.6123 C   0  0  1  0  0  0  0  0  0  0  0  0
    1.1666   -3.8281    1.1282 C   0  0  0  0  0  0  0  0  0  0  0  0
    0.2758   -2.7185    1.3246 O   0  0  0  0  0  0  0  0  0  0  0  0
    2.8462    1.2814    2.1571 H   0  0  0  0  0  0  0  0  0  0  0  0
    4.1111    0.7156    1.0502 H   0  0  0  0  0  0  0  0  0  0  0  0
    2.9180    1.8987    0.5028 H   0  0  0  0  0  0  0  0  0  0  0  0
    1.0887    0.1191    0.6809 H   0  0  0  0  0  0  0  0  0  0  0  0
    3.3466   -1.7207    1.7649 H   0  0  0  0  0  0  0  0  0  0  0  0
    3.6822   -0.0870   -1.7187 H   0  0  0  0  0  0  0  0  0  0  0  0
    0.6480   -1.5931   -1.2749 H   0  0  0  0  0  0  0  0  0  0  0  0
    1.9458   -2.8004   -1.5249 H   0  0  0  0  0  0  0  0  0  0  0  0
    0.8094   -4.6019    0.4489 H   0  0  0  0  0  0  0  0  0  0  0  0
    1.6591   -4.1947    2.0286 H   0  0  0  0  0  0  0  0  0  0  0  0
  1 10  1  0  0  0  0
  2 13  1  6  0  0  0
  2  3  1  0  0  0  0
  2  1  1  0  0  0  0
  3 14  1  1  0  0  0
  4  5  1  6  0  0  0
  4  2  1  0  0  0  0
  4  3  1  0  0  0  0
  6  4  1  0  0  0  0
  6  7  1  0  0  0  0
  7  3  1  0  0  0  0
  7  8  1  0  0  0  0
  7  9  1  1  0  0  0
  8  9  1  0  0  0  0
  8 19  1  0  0  0  0
 11  1  1  0  0  0  0
 12  1  1  0  0  0  0
 15  5  1  0  0  0  0
 16  6  1  0  0  0  0
 17  6  1  0  0  0  0
 18  8  1  0  0  0  0
M TOR 0 0 1 2 3
M TOR 1 0 1 2 6
M TOR 2 0 1 2 13
M TOR 3 0 1 3 4
M TOR 4 0 1 3 5
M TOR 5 1 2 3 4
M TOR 6 1 2 3 5
M TOR 7 1 2 6 5
M TOR 8 1 2 6 7
M TOR 9 1 2 6 8
M TOR 10 1 3 2 6
M TOR 11 1 3 2 13
M TOR 12 1 3 4 14
M TOR 13 1 3 5 6
M TOR 14 1 3 5 15
M TOR 15 1 3 5 16
M TOR 16 2 1 0 9
M TOR 17 2 1 0 10
M TOR 18 2 1 0 11
M TOR 19 2 3 1 12
M TOR 20 2 3 4 14
M TOR 21 2 3 5 6
M TOR 22 2 3 5 15
M TOR 23 2 3 5 16
M TOR 24 2 6 5 15
M TOR 25 2 6 5 16
M TOR 26 2 6 7 8
M TOR 27 2 6 7 17
M TOR 28 2 6 7 18
M TOR 29 3 1 0 9
M TOR 30 3 1 0 10
M TOR 31 3 1 0 11
M TOR 32 3 2 6 7
M TOR 33 3 2 6 8
M TOR 34 3 5 6 7
M TOR 35 3 5 6 8
M TOR 36 4 3 1 12
M TOR 37 4 3 2 6
M TOR 38 4 3 2 13
M TOR 39 4 3 5 6
M TOR 40 4 3 5 15
M TOR 41 4 3 5 16
M TOR 42 5 3 1 12
M TOR 43 5 3 2 13
M TOR 44 5 3 4 14
M TOR 45 5 6 2 13
M TOR 46 5 6 7 8
M TOR 47 5 6 7 17
M TOR 48 5 6 7 18
M TOR 49 6 2 1 12
M TOR 50 6 8 7 17
M TOR 51 6 8 7 18
M TOR 52 7 6 2 13
M TOR 53 7 6 5 15
M TOR 54 7 6 5 16
M TOR 55 8 6 2 13
M TOR 56 8 6 5 15
M TOR 57 8 6 5 16
M  END
$$$$
