gdb 681	2.7783416	1.5069692	1.1709947	4.2344	73.89	-0.26673	0.01233	0.27906000000000003	1089.1871	0.159956	-422.605989	-422.598383	-422.597439	-422.638473	29.227
 OpenBabel02181911403D

 19 20  0  0  1  0  0  0  0  0999 V2000
    1.2365    0.2892    0.1716 O   0  0  0  0  0  0  0  0  0  0  0  0
    0.0563    0.1397    0.1533 C   0  0  0  0  0  0  0  0  0  0  0  0
   -0.6406   -1.0347    0.0400 O   0  0  0  0  0  0  0  0  0  0  0  0
   -1.9354   -0.3243   -0.0367 C   0  0  2  0  0  0  0  0  0  0  0  0
   -2.5885   -0.5145   -1.4129 C   0  0  0  0  0  0  0  0  0  0  0  0
   -2.9329    0.8079   -2.1179 C   0  0  0  0  0  0  0  0  0  0  0  0
   -1.7264    1.7547   -2.1428 C   0  0  0  0  0  0  0  0  0  0  0  0
   -1.3568    2.1951   -0.7198 C   0  0  0  0  0  0  0  0  0  0  0  0
   -1.1964    1.0138    0.2379 C   0  0  2  0  0  0  0  0  0  0  0  0
   -2.5733   -0.6673    0.7799 H   0  0  0  0  0  0  0  0  0  0  0  0
   -1.8762   -1.0713   -2.0313 H   0  0  0  0  0  0  0  0  0  0  0  0
   -3.4795   -1.1431   -1.3204 H   0  0  0  0  0  0  0  0  0  0  0  0
   -3.2755    0.5908   -3.1348 H   0  0  0  0  0  0  0  0  0  0  0  0
   -3.7703    1.3031   -1.6072 H   0  0  0  0  0  0  0  0  0  0  0  0
   -0.8740    1.2503   -2.6173 H   0  0  0  0  0  0  0  0  0  0  0  0
   -1.9449    2.6386   -2.7507 H   0  0  0  0  0  0  0  0  0  0  0  0
   -0.4317    2.7817   -0.7135 H   0  0  0  0  0  0  0  0  0  0  0  0
   -2.1475    2.8529   -0.3389 H   0  0  0  0  0  0  0  0  0  0  0  0
   -1.3253    1.3395    1.2746 H   0  0  0  0  0  0  0  0  0  0  0  0
  2  1  2  0  0  0  0
  2  9  1  0  0  0  0
  3  2  1  0  0  0  0
  4  3  1  0  0  0  0
  4  9  1  0  0  0  0
  4 10  1  1  0  0  0
  5 12  1  0  0  0  0
  5  4  1  0  0  0  0
  6 14  1  0  0  0  0
  6  5  1  0  0  0  0
  7  6  1  0  0  0  0
  7  8  1  0  0  0  0
  8 17  1  0  0  0  0
  8 18  1  0  0  0  0
  8  9  1  0  0  0  0
  9 19  1  1  0  0  0
 11  5  1  0  0  0  0
 13  6  1  0  0  0  0
 15  7  1  0  0  0  0
 16  7  1  0  0  0  0
M TOR 0 0 1 2 3
M TOR 1 0 1 8 3
M TOR 2 0 1 8 7
M TOR 3 0 1 8 18
M TOR 4 1 2 3 4
M TOR 5 1 2 3 8
M TOR 6 1 2 3 9
M TOR 7 1 8 3 4
M TOR 8 1 8 3 9
M TOR 9 1 8 7 6
M TOR 10 1 8 7 16
M TOR 11 1 8 7 17
M TOR 12 2 1 8 7
M TOR 13 2 1 8 18
M TOR 14 2 3 4 5
M TOR 15 2 3 4 10
M TOR 16 2 3 4 11
M TOR 17 2 3 8 7
M TOR 18 2 3 8 18
M TOR 19 3 4 5 6
M TOR 20 3 4 5 12
M TOR 21 3 4 5 13
M TOR 22 3 8 7 6
M TOR 23 3 8 7 16
M TOR 24 3 8 7 17
M TOR 25 4 3 8 7
M TOR 26 4 3 8 18
M TOR 27 4 5 6 7
M TOR 28 4 5 6 14
M TOR 29 4 5 6 15
M TOR 30 5 4 3 8
M TOR 31 5 4 3 9
M TOR 32 5 6 7 8
M TOR 33 5 6 7 16
M TOR 34 5 6 7 17
M TOR 35 6 5 4 10
M TOR 36 6 5 4 11
M TOR 37 6 7 8 18
M TOR 38 7 6 5 12
M TOR 39 7 6 5 13
M TOR 40 7 8 3 9
M TOR 41 8 3 4 10
M TOR 42 8 3 4 11
M TOR 43 8 7 6 14
M TOR 44 8 7 6 15
M  END
$$$$
