
     RDKit          3D

 19 19  0  0  0  0  0  0  0  0999 V2000
   -0.0653    0.0629   -0.2187 C   0  0  0  0  0  0  0  0  0  0  0  0
    1.4493   -0.0905   -0.0339 C   0  0  0  0  0  0  0  0  0  0  0  0
    1.7764   -0.9049    1.1200 C   0  0  0  0  0  0  0  0  0  0  0  0
    2.0788   -1.5772    2.0723 C   0  0  0  0  0  0  0  0  0  0  0  0
    2.2145    1.2940   -0.1415 C   0  0  0  0  0  0  0  0  0  0  0  0
    1.4964    2.4770    0.0901 O   0  0  0  0  0  0  0  0  0  0  0  0
    2.4872    1.0115   -1.6289 C   0  0  0  0  0  0  0  0  0  0  0  0
    2.1865   -0.4771   -1.3834 C   0  0  0  0  0  0  0  0  0  0  0  0
    1.4401   -1.0824   -2.4058 O   0  0  0  0  0  0  0  0  0  0  0  0
   -0.5088    0.5348    0.6616 H   0  0  0  0  0  0  0  0  0  0  0  0
   -0.2975    0.6774   -1.0899 H   0  0  0  0  0  0  0  0  0  0  0  0
   -0.5317   -0.9159   -0.3554 H   0  0  0  0  0  0  0  0  0  0  0  0
    2.3358   -2.1712    2.9142 H   0  0  0  0  0  0  0  0  0  0  0  0
    3.1327    1.2569    0.4574 H   0  0  0  0  0  0  0  0  0  0  0  0
    1.4253    2.6089    1.0411 H   0  0  0  0  0  0  0  0  0  0  0  0
    1.7045    1.4575   -2.2473 H   0  0  0  0  0  0  0  0  0  0  0  0
    3.4642    1.2794   -2.0331 H   0  0  0  0  0  0  0  0  0  0  0  0
    3.0964   -1.0469   -1.1580 H   0  0  0  0  0  0  0  0  0  0  0  0
    1.3520   -2.0198   -2.2045 H   0  0  0  0  0  0  0  0  0  0  0  0
  1  2  1  0
  2  3  1  0
  3  4  3  0
  2  5  1  0
  5  6  1  0
  5  7  1  0
  7  8  1  0
  8  9  1  0
  8  2  1  0
  1 10  1  0
  1 11  1  0
  1 12  1  0
  4 13  1  0
  5 14  1  0
  6 15  1  0
  7 16  1  0
  7 17  1  0
  8 18  1  0
  9 19  1  0
M  END
$$$$
