
     RDKit          3D

 19 21  0  0  0  0  0  0  0  0999 V2000
    1.4323   -0.0256   -0.1722 C   0  0  0  0  0  0  0  0  0  0  0  0
    0.0425   -0.1953    0.0733 O   0  0  0  0  0  0  0  0  0  0  0  0
   -0.4391    0.4875    1.1448 C   0  0  0  0  0  0  0  0  0  0  0  0
   -1.8086    0.9531    1.4422 C   0  0  0  0  0  0  0  0  0  0  0  0
   -1.9133    0.3401    2.7241 O   0  0  0  0  0  0  0  0  0  0  0  0
   -0.4609    0.2926    2.7399 C   0  0  0  0  0  0  0  0  0  0  0  0
   -0.0506    1.7847    2.8962 C   0  0  0  0  0  0  0  0  0  0  0  0
    1.4450    2.0347    3.0323 C   0  0  0  0  0  0  0  0  0  0  0  0
   -0.6214    1.9676    1.4888 C   0  0  0  0  0  0  0  0  0  0  0  0
    2.0380   -0.4455    0.6421 H   0  0  0  0  0  0  0  0  0  0  0  0
    1.6556   -0.5641   -1.0952 H   0  0  0  0  0  0  0  0  0  0  0  0
    1.6872    1.0346   -0.2956 H   0  0  0  0  0  0  0  0  0  0  0  0
   -2.6912    1.0709    0.8284 H   0  0  0  0  0  0  0  0  0  0  0  0
   -0.0521   -0.5060    3.3569 H   0  0  0  0  0  0  0  0  0  0  0  0
   -0.6031    2.2834    3.7007 H   0  0  0  0  0  0  0  0  0  0  0  0
    1.8077    1.7048    4.0121 H   0  0  0  0  0  0  0  0  0  0  0  0
    2.0159    1.5017    2.2646 H   0  0  0  0  0  0  0  0  0  0  0  0
    1.6767    3.1003    2.9346 H   0  0  0  0  0  0  0  0  0  0  0  0
   -0.5913    2.8349    0.8406 H   0  0  0  0  0  0  0  0  0  0  0  0
  1  2  1  0
  2  3  1  0
  3  4  1  0
  4  5  1  0
  5  6  1  0
  6  7  1  0
  7  8  1  0
  7  9  1  0
  6  3  1  0
  9  3  1  0
  9  4  1  0
  1 10  1  0
  1 11  1  0
  1 12  1  0
  4 13  1  0
  6 14  1  0
  7 15  1  0
  8 16  1  0
  8 17  1  0
  8 18  1  0
  9 19  1  0
M  END
$$$$
