gdb 2646	2.4765996	1.5336677	1.127368	2.5214	76.23	-0.23433	0.06133	0.29566000000000003	1118.7913	0.15635	-422.47605	-422.467597	-422.466653	-422.508849	32.556
 OpenBabel02181911413D

 19 21  0  0  1  0  0  0  0  0999 V2000
   -2.2119    1.6791   -0.4244 O   0  0  0  0  0  0  0  0  0  0  0  0
   -1.2766    0.9795    0.3500 C   0  0  2  0  0  0  0  0  0  0  0  0
   -1.4083   -0.5258    0.3501 C   0  0  1  0  0  0  0  0  0  0  0  0
   -0.2130   -1.2481    0.2333 O   0  0  0  0  0  0  0  0  0  0  0  0
   -1.7040    0.2585    1.5897 C   0  0  1  0  0  0  0  0  0  0  0  0
   -1.1396    0.2074    3.0227 C   0  0  2  0  0  0  0  0  0  0  0  0
   -2.3143   -0.7667    3.3529 C   0  0  0  0  0  0  0  0  0  0  0  0
   -2.9488    0.3693    2.4911 C   0  0  1  0  0  0  0  0  0  0  0  0
   -2.1221    1.3738    3.3543 C   0  0  0  0  0  0  0  0  0  0  0  0
   -2.4451    2.4837    0.0498 H   0  0  0  0  0  0  0  0  0  0  0  0
   -0.2515    1.3515    0.3084 H   0  0  0  0  0  0  0  0  0  0  0  0
   -2.2555   -0.9133   -0.2183 H   0  0  0  0  0  0  0  0  0  0  0  0
   -0.2825   -2.0266    0.7953 H   0  0  0  0  0  0  0  0  0  0  0  0
   -0.0946    0.1154    3.3185 H   0  0  0  0  0  0  0  0  0  0  0  0
   -2.2759   -1.7609    2.9003 H   0  0  0  0  0  0  0  0  0  0  0  0
   -2.6267   -0.8132    4.4001 H   0  0  0  0  0  0  0  0  0  0  0  0
   -3.9879    0.4608    2.1748 H   0  0  0  0  0  0  0  0  0  0  0  0
   -1.8977    2.3450    2.9056 H   0  0  0  0  0  0  0  0  0  0  0  0
   -2.4203    1.4739    4.4018 H   0  0  0  0  0  0  0  0  0  0  0  0
  1 10  1  0  0  0  0
  1  2  1  0  0  0  0
  2 11  1  6  0  0  0
  2  3  1  0  0  0  0
  2  5  1  0  0  0  0
  3 12  1  6  0  0  0
  3  5  1  0  0  0  0
  4  3  1  0  0  0  0
  4 13  1  0  0  0  0
  5  8  1  0  0  0  0
  5  6  1  0  0  0  0
  6 14  1  0  0  0  0
  6  7  1  0  0  0  0
  6  9  1  0  0  0  0
  7 16  1  0  0  0  0
  8  7  1  0  0  0  0
  8  9  1  0  0  0  0
  9 19  1  0  0  0  0
 15  7  1  0  0  0  0
 17  8  1  0  0  0  0
 18  9  1  0  0  0  0
M TOR 0 0 1 2 3
M TOR 1 0 1 2 4
M TOR 2 0 1 2 11
M TOR 3 0 1 4 5
M TOR 4 0 1 4 7
M TOR 5 1 2 3 12
M TOR 6 1 2 4 5
M TOR 7 1 2 4 7
M TOR 8 1 4 2 3
M TOR 9 1 4 2 11
M TOR 10 1 4 5 6
M TOR 11 1 4 5 8
M TOR 12 1 4 5 13
M TOR 13 1 4 7 6
M TOR 14 1 4 7 8
M TOR 15 1 4 7 16
M TOR 16 2 1 0 9
M TOR 17 2 4 1 10
M TOR 18 2 4 5 6
M TOR 19 2 4 5 8
M TOR 20 2 4 5 13
M TOR 21 2 4 7 6
M TOR 22 2 4 7 8
M TOR 23 2 4 7 16
M TOR 24 3 2 1 10
M TOR 25 3 2 4 5
M TOR 26 3 2 4 7
M TOR 27 4 1 0 9
M TOR 28 4 2 3 12
M TOR 29 4 5 6 7
M TOR 30 4 5 6 14
M TOR 31 4 5 6 15
M TOR 32 4 5 8 7
M TOR 33 4 5 8 17
M TOR 34 4 5 8 18
M TOR 35 4 7 6 14
M TOR 36 4 7 6 15
M TOR 37 4 7 8 17
M TOR 38 4 7 8 18
M TOR 39 5 4 1 10
M TOR 40 5 4 2 11
M TOR 41 5 4 7 16
M TOR 42 5 6 7 8
M TOR 43 5 6 7 16
M TOR 44 5 8 7 16
M TOR 45 6 5 8 17
M TOR 46 6 5 8 18
M TOR 47 6 7 8 17
M TOR 48 6 7 8 18
M TOR 49 7 4 1 10
M TOR 50 7 4 2 11
M TOR 51 7 4 5 13
M TOR 52 7 6 5 13
M TOR 53 7 8 5 13
M TOR 54 8 5 6 14
M TOR 55 8 5 6 15
M TOR 56 8 7 6 14
M TOR 57 8 7 6 15
M  END
$$$$
