
     RDKit          3D

 19 20  0  0  0  0  0  0  0  0999 V2000
    1.7246    0.1690    0.7544 O   0  0  0  0  0  0  0  0  0  0  0  0
    0.7241    0.2494    0.0913 C   0  0  0  0  0  0  0  0  0  0  0  0
    0.3276    1.4251   -0.7671 C   0  0  0  0  0  0  0  0  0  0  0  0
   -1.0516    2.0059   -0.3550 C   0  0  0  0  0  0  0  0  0  0  0  0
   -1.5830    2.7191   -1.6075 C   0  0  0  0  0  0  0  0  0  0  0  0
   -0.8749    4.0337   -1.9917 C   0  0  0  0  0  0  0  0  0  0  0  0
   -0.0891    3.3717   -3.0061 O   0  0  0  0  0  0  0  0  0  0  0  0
   -0.7913    2.1233   -2.8039 C   0  0  0  0  0  0  0  0  0  0  0  0
    0.1147    1.0282   -2.2488 C   0  0  0  0  0  0  0  0  0  0  0  0
   -0.0179   -0.5872    0.0679 H   0  0  0  0  0  0  0  0  0  0  0  0
    1.1098    2.1839   -0.6873 H   0  0  0  0  0  0  0  0  0  0  0  0
   -1.7288    1.1849   -0.0858 H   0  0  0  0  0  0  0  0  0  0  0  0
   -0.9802    2.6647    0.5154 H   0  0  0  0  0  0  0  0  0  0  0  0
   -2.6717    2.7353   -1.6647 H   0  0  0  0  0  0  0  0  0  0  0  0
   -1.5301    4.8006   -2.4238 H   0  0  0  0  0  0  0  0  0  0  0  0
   -0.2480    4.4959   -1.2185 H   0  0  0  0  0  0  0  0  0  0  0  0
   -1.3421    1.8253   -3.7027 H   0  0  0  0  0  0  0  0  0  0  0  0
   -0.4052    0.0624   -2.3124 H   0  0  0  0  0  0  0  0  0  0  0  0
    1.0507    0.9458   -2.8070 H   0  0  0  0  0  0  0  0  0  0  0  0
  1  2  2  0
  2  3  1  0
  3  4  1  0
  4  5  1  0
  5  6  1  0
  6  7  1  0
  7  8  1  0
  8  9  1  0
  9  3  1  0
  8  5  1  0
  2 10  1  0
  3 11  1  0
  4 12  1  0
  4 13  1  0
  5 14  1  0
  6 15  1  0
  6 16  1  0
  8 17  1  0
  9 18  1  0
  9 19  1  0
M  END
$$$$
