gdb 1985	2.348792	1.7078175	1.5312266	0.762	74.74	-0.2421	0.06175	0.30385	993.6998	0.156366	-422.51598	-422.507718	-422.506774	-422.548178	32.284
 OpenBabel02181911403D

 19 21  0  0  1  0  0  0  0  0999 V2000
   -0.0434    0.3066    0.0089 C   0  0  0  0  0  0  0  0  0  0  0  0
    1.4212   -0.0268    0.0492 C   0  0  2  0  0  0  0  0  0  0  0  0
    2.4175    0.5106   -0.9447 C   0  0  0  0  0  0  0  0  0  0  0  0
    2.2651   -0.9812   -0.8230 C   0  0  1  0  0  0  0  0  0  0  0  0
    3.0462   -1.4548    0.3846 C   0  0  2  0  0  0  0  0  0  0  0  0
    2.4476   -2.5967    1.0309 O   0  0  0  0  0  0  0  0  0  0  0  0
    1.6734   -1.7774    1.9255 C   0  0  0  0  0  0  0  0  0  0  0  0
    2.1884   -0.4703    1.2850 C   0  0  2  0  0  0  0  0  0  0  0  0
    2.6168    0.5642    2.1119 O   0  0  0  0  0  0  0  0  0  0  0  0
   -0.2444    1.2538    0.5224 H   0  0  0  0  0  0  0  0  0  0  0  0
   -0.3928    0.4097   -1.0234 H   0  0  0  0  0  0  0  0  0  0  0  0
   -0.6519   -0.4684    0.4881 H   0  0  0  0  0  0  0  0  0  0  0  0
    1.9810    0.9481   -1.8368 H   0  0  0  0  0  0  0  0  0  0  0  0
    3.3242    1.0052   -0.6067 H   0  0  0  0  0  0  0  0  0  0  0  0
    1.9308   -1.6123   -1.6374 H   0  0  0  0  0  0  0  0  0  0  0  0
    4.1368   -1.5229    0.3407 H   0  0  0  0  0  0  0  0  0  0  0  0
    0.5972   -1.9810    1.8706 H   0  0  0  0  0  0  0  0  0  0  0  0
    2.0014   -1.9023    2.9692 H   0  0  0  0  0  0  0  0  0  0  0  0
    3.0960    0.1882    2.8585 H   0  0  0  0  0  0  0  0  0  0  0  0
  1 12  1  0  0  0  0
  1 10  1  0  0  0  0
  2  1  1  6  0  0  0
  2  8  1  0  0  0  0
  3  4  1  0  0  0  0
  3 14  1  0  0  0  0
  3  2  1  0  0  0  0
  4 15  1  6  0  0  0
  4  2  1  0  0  0  0
  4  5  1  0  0  0  0
  5 16  1  6  0  0  0
  5  6  1  0  0  0  0
  5  8  1  0  0  0  0
  6  7  1  0  0  0  0
  7 18  1  0  0  0  0
  8  7  1  0  0  0  0
  8  9  1  1  0  0  0
  9 19  1  0  0  0  0
 11  1  1  0  0  0  0
 13  3  1  0  0  0  0
 17  7  1  0  0  0  0
M TOR 0 0 1 2 3
M TOR 1 0 1 2 12
M TOR 2 0 1 2 13
M TOR 3 0 1 3 4
M TOR 4 0 1 3 14
M TOR 5 0 1 7 4
M TOR 6 0 1 7 6
M TOR 7 0 1 7 8
M TOR 8 1 2 3 4
M TOR 9 1 2 3 14
M TOR 10 1 3 2 12
M TOR 11 1 3 2 13
M TOR 12 1 3 4 5
M TOR 13 1 3 4 7
M TOR 14 1 3 4 15
M TOR 15 1 7 4 5
M TOR 16 1 7 4 15
M TOR 17 1 7 6 5
M TOR 18 1 7 6 16
M TOR 19 1 7 6 17
M TOR 20 1 7 8 18
M TOR 21 2 1 0 9
M TOR 22 2 1 0 10
M TOR 23 2 1 0 11
M TOR 24 2 1 7 4
M TOR 25 2 1 7 6
M TOR 26 2 1 7 8
M TOR 27 2 3 1 7
M TOR 28 2 3 4 5
M TOR 29 2 3 4 7
M TOR 30 2 3 4 15
M TOR 31 3 1 0 9
M TOR 32 3 1 0 10
M TOR 33 3 1 0 11
M TOR 34 3 1 7 6
M TOR 35 3 1 7 8
M TOR 36 3 4 5 6
M TOR 37 3 4 7 6
M TOR 38 3 4 7 8
M TOR 39 4 3 2 12
M TOR 40 4 3 2 13
M TOR 41 4 5 6 7
M TOR 42 4 5 6 16
M TOR 43 4 5 6 17
M TOR 44 4 7 6 16
M TOR 45 4 7 6 17
M TOR 46 4 7 8 18
M TOR 47 5 4 3 14
M TOR 48 5 4 7 8
M TOR 49 5 6 7 8
M TOR 50 6 5 4 15
M TOR 51 6 7 4 15
M TOR 52 6 7 8 18
M TOR 53 7 1 0 9
M TOR 54 7 1 0 10
M TOR 55 7 1 0 11
M TOR 56 7 1 2 12
M TOR 57 7 1 2 13
M TOR 58 7 1 3 14
M TOR 59 7 4 3 14
M TOR 60 8 7 4 15
M TOR 61 8 7 6 16
M TOR 62 8 7 6 17
M  END
$$$$
