gdb 5427	1.9902102	1.2601891	0.8270802	1.5634	81.18	-0.23122	0.04931	0.28053	1412.6767	0.152995	-422.470854	-422.460478	-422.459534	-422.506452	36.393
 OpenBabel02181911423D

 19 19  0  0  1  0  0  0  0  0999 V2000
    1.3381    0.0562   -0.1820 C   0  0  0  0  0  0  0  0  0  0  0  0
   -0.0728    0.0376   -0.0515 O   0  0  0  0  0  0  0  0  0  0  0  0
   -0.5230    0.6328    1.1111 C   0  0  2  0  0  0  0  0  0  0  0  0
   -1.8899    1.2516    1.0812 C   0  0  2  0  0  0  0  0  0  0  0  0
   -2.5982    1.2969   -0.1055 O   0  0  0  0  0  0  0  0  0  0  0  0
   -3.2380    0.0672   -0.4149 C   0  0  0  0  0  0  0  0  0  0  0  0
   -0.6766    2.1640    1.1473 C   0  0  1  0  0  0  0  0  0  0  0  0
   -0.3683    2.9101    2.3272 C   0  0  0  0  0  0  0  0  0  0  0  0
   -0.1059    3.5175    3.3325 C   0  0  0  0  0  0  0  0  0  0  0  0
    1.8248   -0.4807    0.6452 H   0  0  0  0  0  0  0  0  0  0  0  0
    1.5779   -0.4433   -1.1229 H   0  0  0  0  0  0  0  0  0  0  0  0
    1.7247    1.0840   -0.2063 H   0  0  0  0  0  0  0  0  0  0  0  0
   -0.1945    0.1618    2.0391 H   0  0  0  0  0  0  0  0  0  0  0  0
   -2.4943    1.1576    1.9850 H   0  0  0  0  0  0  0  0  0  0  0  0
   -3.9579   -0.2177    0.3666 H   0  0  0  0  0  0  0  0  0  0  0  0
   -3.7777    0.2216   -1.3518 H   0  0  0  0  0  0  0  0  0  0  0  0
   -2.5070   -0.7394   -0.5419 H   0  0  0  0  0  0  0  0  0  0  0  0
   -0.4664    2.6385    0.1926 H   0  0  0  0  0  0  0  0  0  0  0  0
    0.1240    4.0627    4.2138 H   0  0  0  0  0  0  0  0  0  0  0  0
  1  2  1  0  0  0  0
  1 10  1  0  0  0  0
  2  3  1  0  0  0  0
  3  7  1  0  0  0  0
  3 13  1  1  0  0  0
  4  3  1  0  0  0  0
  4  7  1  0  0  0  0
  4 14  1  1  0  0  0
  5  4  1  0  0  0  0
  6  5  1  0  0  0  0
  6 15  1  0  0  0  0
  7 18  1  6  0  0  0
  7  8  1  0  0  0  0
  8  9  3  0  0  0  0
  9 19  1  0  0  0  0
 11  1  1  0  0  0  0
 12  1  1  0  0  0  0
 16  6  1  0  0  0  0
 17  6  1  0  0  0  0
M TOR 0 0 1 2 3
M TOR 1 0 1 2 6
M TOR 2 0 1 2 12
M TOR 3 1 2 3 4
M TOR 4 1 2 3 6
M TOR 5 1 2 3 13
M TOR 6 1 2 6 7
M TOR 7 1 2 6 17
M TOR 8 2 1 0 9
M TOR 9 2 1 0 10
M TOR 10 2 1 0 11
M TOR 11 2 3 4 5
M TOR 12 2 3 6 7
M TOR 13 2 3 6 17
M TOR 14 2 6 3 4
M TOR 15 2 6 3 13
M TOR 16 2 6 7 8
M TOR 17 3 4 5 14
M TOR 18 3 4 5 15
M TOR 19 3 4 5 16
M TOR 20 3 6 2 12
M TOR 21 3 6 7 8
M TOR 22 4 3 2 12
M TOR 23 4 3 6 7
M TOR 24 4 3 6 17
M TOR 25 5 4 3 6
M TOR 26 5 4 3 13
M TOR 27 6 7 8 18
M TOR 28 7 6 2 12
M TOR 29 7 6 3 13
M TOR 30 8 7 6 17
M  END
$$$$
