
     RDKit          3D

 19 21  0  0  0  0  0  0  0  0999 V2000
    5.2767   -2.7832   -1.0427 C   0  0  0  0  0  0  0  0  0  0  0  0
    4.0543   -2.0451   -0.6036 C   0  0  0  0  0  0  0  0  0  0  0  0
    2.8122   -2.7981   -0.3926 O   0  0  0  0  0  0  0  0  0  0  0  0
    2.4619   -1.4085   -0.0754 C   0  0  0  0  0  0  0  0  0  0  0  0
    1.0355   -1.1609    0.3042 C   0  0  0  0  0  0  0  0  0  0  0  0
    0.1623   -1.5718   -0.7321 O   0  0  0  0  0  0  0  0  0  0  0  0
    3.8209   -1.0892    0.6197 C   0  0  0  0  0  0  0  0  0  0  0  0
    4.0415    0.1706   -0.2456 C   0  0  0  0  0  0  0  0  0  0  0  0
    3.3361   -0.7985   -1.2181 C   0  0  0  0  0  0  0  0  0  0  0  0
    5.5502   -3.5458   -0.3071 H   0  0  0  0  0  0  0  0  0  0  0  0
    5.1019   -3.2763   -2.0039 H   0  0  0  0  0  0  0  0  0  0  0  0
    6.1181   -2.0924   -1.1557 H   0  0  0  0  0  0  0  0  0  0  0  0
    0.8191   -1.6846    1.2493 H   0  0  0  0  0  0  0  0  0  0  0  0
    0.8681   -0.0909    0.4682 H   0  0  0  0  0  0  0  0  0  0  0  0
    0.4575   -2.4501   -1.0011 H   0  0  0  0  0  0  0  0  0  0  0  0
    4.0841   -1.2868    1.6595 H   0  0  0  0  0  0  0  0  0  0  0  0
    3.4851    1.0664    0.0425 H   0  0  0  0  0  0  0  0  0  0  0  0
    5.0785    0.4280   -0.4773 H   0  0  0  0  0  0  0  0  0  0  0  0
    3.0403   -0.6639   -2.2583 H   0  0  0  0  0  0  0  0  0  0  0  0
  1  2  1  0
  2  3  1  0
  3  4  1  0
  4  5  1  0
  5  6  1  0
  4  7  1  0
  7  8  1  0
  8  9  1  0
  7  2  1  0
  9  2  1  0
  9  4  1  0
  1 10  1  0
  1 11  1  0
  1 12  1  0
  5 13  1  0
  5 14  1  0
  6 15  1  0
  7 16  1  0
  8 17  1  0
  8 18  1  0
  9 19  1  0
M  END
$$$$
