gdb 339	2.6303292	1.8995947	1.3185258	1.6404	74.59	-0.23431	0.07884	0.31315	993.8318	0.158878	-422.521935	-422.514622	-422.513678	-422.553523	29.241
 OpenBabel02181911403D

 19 21  0  0  1  0  0  0  0  0999 V2000
   -0.7456    0.5968   -0.9228 C   0  0  0  0  0  0  0  0  0  0  0  0
   -1.1193   -0.2106    0.2992 C   0  0  1  0  0  0  0  0  0  0  0  0
   -0.8862   -1.5909    0.3981 O   0  0  0  0  0  0  0  0  0  0  0  0
    0.4616   -1.9757    0.2259 C   0  0  0  0  0  0  0  0  0  0  0  0
    1.3454   -1.2653    1.0458 O   0  0  0  0  0  0  0  0  0  0  0  0
    1.4075    0.0997    0.6573 C   0  0  2  0  0  0  0  0  0  0  0  0
    1.5553    1.0877    1.8404 C   0  0  0  0  0  0  0  0  0  0  0  0
    0.3178    1.8851    1.3185 C   0  0  0  0  0  0  0  0  0  0  0  0
    0.0419    0.7274    0.3570 C   0  0  1  0  0  0  0  0  0  0  0  0
   -0.2696    0.1064   -1.7668 H   0  0  0  0  0  0  0  0  0  0  0  0
   -1.4188    1.4032   -1.1971 H   0  0  0  0  0  0  0  0  0  0  0  0
   -2.0417    0.0426    0.8122 H   0  0  0  0  0  0  0  0  0  0  0  0
    0.5130   -3.0249    0.5220 H   0  0  0  0  0  0  0  0  0  0  0  0
    0.7555   -1.8741   -0.8348 H   0  0  0  0  0  0  0  0  0  0  0  0
    2.1577    0.2303   -0.1365 H   0  0  0  0  0  0  0  0  0  0  0  0
    1.3606    0.5741    2.7834 H   0  0  0  0  0  0  0  0  0  0  0  0
    2.5002    1.6289    1.9104 H   0  0  0  0  0  0  0  0  0  0  0  0
   -0.4600    2.1154    2.0512 H   0  0  0  0  0  0  0  0  0  0  0  0
    0.5927    2.8094    0.8015 H   0  0  0  0  0  0  0  0  0  0  0  0
  1  2  1  0  0  0  0
  2  9  1  0  0  0  0
  2  3  1  0  0  0  0
  2 12  1  1  0  0  0
  4  3  1  0  0  0  0
  4 13  1  0  0  0  0
  4  5  1  0  0  0  0
  6 15  1  6  0  0  0
  6  5  1  0  0  0  0
  6  7  1  0  0  0  0
  7 17  1  0  0  0  0
  7 16  1  0  0  0  0
  8  7  1  0  0  0  0
  8 18  1  0  0  0  0
  9  1  1  6  0  0  0
  9  6  1  0  0  0  0
  9  8  1  0  0  0  0
 10  1  1  0  0  0  0
 11  1  1  0  0  0  0
 14  4  1  0  0  0  0
 19  8  1  0  0  0  0
M TOR 0 0 1 2 3
M TOR 1 0 1 8 5
M TOR 2 0 1 8 7
M TOR 3 0 8 1 2
M TOR 4 0 8 1 11
M TOR 5 0 8 5 4
M TOR 6 0 8 5 6
M TOR 7 0 8 5 14
M TOR 8 0 8 7 6
M TOR 9 0 8 7 17
M TOR 10 0 8 7 18
M TOR 11 1 2 3 4
M TOR 12 1 2 3 12
M TOR 13 1 2 3 13
M TOR 14 1 8 0 9
M TOR 15 1 8 0 10
M TOR 16 1 8 5 4
M TOR 17 1 8 5 6
M TOR 18 1 8 5 14
M TOR 19 1 8 7 6
M TOR 20 1 8 7 17
M TOR 21 1 8 7 18
M TOR 22 2 1 0 9
M TOR 23 2 1 0 10
M TOR 24 2 1 8 5
M TOR 25 2 1 8 7
M TOR 26 2 3 4 5
M TOR 27 3 2 1 8
M TOR 28 3 2 1 11
M TOR 29 3 4 5 6
M TOR 30 3 4 5 8
M TOR 31 3 4 5 14
M TOR 32 4 5 6 7
M TOR 33 4 5 6 15
M TOR 34 4 5 6 16
M TOR 35 4 5 8 7
M TOR 36 5 4 3 12
M TOR 37 5 4 3 13
M TOR 38 5 6 7 8
M TOR 39 5 6 7 17
M TOR 40 5 6 7 18
M TOR 41 5 8 0 9
M TOR 42 5 8 0 10
M TOR 43 5 8 1 11
M TOR 44 5 8 7 17
M TOR 45 5 8 7 18
M TOR 46 7 6 5 14
M TOR 47 7 8 0 9
M TOR 48 7 8 0 10
M TOR 49 7 8 1 11
M TOR 50 7 8 5 14
M TOR 51 8 5 6 15
M TOR 52 8 5 6 16
M TOR 53 8 7 6 15
M TOR 54 8 7 6 16
M  END
$$$$
