gdb 3566	2.5408585	1.4122307	1.1082631	2.1178	74.99	-0.24083	-0.02259	0.21824	1143.1693	0.156064	-422.57747	-422.568705	-422.567761	-422.611222	33.084
 OpenBabel02181911413D

 19 20  0  0  1  0  0  0  0  0999 V2000
   -3.0988   -1.4154   -0.0404 O   0  0  0  0  0  0  0  0  0  0  0  0
   -2.1954   -0.8384    0.8964 C   0  0  1  0  0  0  0  0  0  0  0  0
   -0.7331   -1.2223    0.6175 C   0  0  0  0  0  0  0  0  0  0  0  0
   -0.1811   -0.1051   -0.2744 C   0  0  0  0  0  0  0  0  0  0  0  0
    0.8216   -0.1548   -0.9368 O   0  0  0  0  0  0  0  0  0  0  0  0
   -1.1367    1.0974   -0.1862 C   0  0  0  0  0  0  0  0  0  0  0  0
   -2.1756    0.6946    0.8512 C   0  0  0  0  0  0  0  0  0  0  0  0
   -2.3288    1.4722    2.1378 C   0  0  0  0  0  0  0  0  0  0  0  0
   -3.4309    1.4754    1.1072 C   0  0  0  0  0  0  0  0  0  0  0  0
   -2.9011   -1.0692   -0.9173 H   0  0  0  0  0  0  0  0  0  0  0  0
   -2.5411   -1.2043    1.8665 H   0  0  0  0  0  0  0  0  0  0  0  0
   -0.1495   -1.2097    1.5475 H   0  0  0  0  0  0  0  0  0  0  0  0
   -0.6164   -2.2089    0.1647 H   0  0  0  0  0  0  0  0  0  0  0  0
   -0.5809    2.0073    0.0571 H   0  0  0  0  0  0  0  0  0  0  0  0
   -1.5702    1.2575   -1.1832 H   0  0  0  0  0  0  0  0  0  0  0  0
   -2.4892    0.9191    3.0578 H   0  0  0  0  0  0  0  0  0  0  0  0
   -1.7373    2.3742    2.2582 H   0  0  0  0  0  0  0  0  0  0  0  0
   -4.3344    0.9129    1.3168 H   0  0  0  0  0  0  0  0  0  0  0  0
   -3.5928    2.3838    0.5362 H   0  0  0  0  0  0  0  0  0  0  0  0
  1  2  1  0  0  0  0
  2 11  1  1  0  0  0
  3  2  1  0  0  0  0
  3 12  1  0  0  0  0
  4  6  1  0  0  0  0
  4  3  1  0  0  0  0
  5  4  2  0  0  0  0
  6 14  1  0  0  0  0
  6  7  1  0  0  0  0
  7  2  1  0  0  0  0
  7  9  1  0  0  0  0
  7  8  1  0  0  0  0
  8 17  1  0  0  0  0
  8 16  1  0  0  0  0
  9 18  1  0  0  0  0
  9  8  1  0  0  0  0
 10  1  1  0  0  0  0
 13  3  1  0  0  0  0
 15  6  1  0  0  0  0
 19  9  1  0  0  0  0
M TOR 0 0 1 2 3
M TOR 1 0 1 2 11
M TOR 2 0 1 2 12
M TOR 3 0 1 6 5
M TOR 4 0 1 6 7
M TOR 5 0 1 6 8
M TOR 6 1 2 3 4
M TOR 7 1 2 3 5
M TOR 8 1 6 5 3
M TOR 9 1 6 5 13
M TOR 10 1 6 5 14
M TOR 11 1 6 7 8
M TOR 12 1 6 7 15
M TOR 13 1 6 7 16
M TOR 14 1 6 8 17
M TOR 15 1 6 8 18
M TOR 16 2 1 0 9
M TOR 17 2 1 6 5
M TOR 18 2 1 6 7
M TOR 19 2 1 6 8
M TOR 20 2 3 5 6
M TOR 21 2 3 5 13
M TOR 22 2 3 5 14
M TOR 23 3 2 1 6
M TOR 24 3 2 1 10
M TOR 25 3 5 6 7
M TOR 26 3 5 6 8
M TOR 27 4 3 2 11
M TOR 28 4 3 2 12
M TOR 29 4 3 5 6
M TOR 30 4 3 5 13
M TOR 31 4 3 5 14
M TOR 32 5 3 2 11
M TOR 33 5 3 2 12
M TOR 34 5 6 1 10
M TOR 35 5 6 7 8
M TOR 36 5 6 7 15
M TOR 37 5 6 7 16
M TOR 38 5 6 8 17
M TOR 39 5 6 8 18
M TOR 40 6 1 0 9
M TOR 41 6 1 2 11
M TOR 42 6 1 2 12
M TOR 43 6 7 8 17
M TOR 44 6 7 8 18
M TOR 45 6 8 7 15
M TOR 46 6 8 7 16
M TOR 47 7 6 1 10
M TOR 48 7 6 5 13
M TOR 49 7 6 5 14
M TOR 50 8 6 1 10
M TOR 51 8 6 5 13
M TOR 52 8 6 5 14
M  END
$$$$
