
     RDKit          3D

 19 19  0  0  0  0  0  0  0  0999 V2000
    1.2076    0.4329   -1.3977 C   0  0  0  0  0  0  0  0  0  0  0  0
   -0.0177   -0.0705   -0.6853 C   0  0  0  0  0  0  0  0  0  0  0  0
   -0.1333   -1.3310   -0.2553 C   0  0  0  0  0  0  0  0  0  0  0  0
   -1.3482   -1.8937    0.4366 C   0  0  0  0  0  0  0  0  0  0  0  0
   -2.0692   -2.7779   -0.4223 O   0  0  0  0  0  0  0  0  0  0  0  0
   -2.2544   -0.7799    1.0056 C   0  0  0  0  0  0  0  0  0  0  0  0
   -2.4300    0.3419    0.0040 C   0  0  0  0  0  0  0  0  0  0  0  0
   -3.5060    0.7235   -0.3925 O   0  0  0  0  0  0  0  0  0  0  0  0
   -1.1226    0.9474   -0.4897 C   0  0  0  0  0  0  0  0  0  0  0  0
    1.6516    1.2816   -0.8616 H   0  0  0  0  0  0  0  0  0  0  0  0
    1.9678   -0.3459   -1.4953 H   0  0  0  0  0  0  0  0  0  0  0  0
    0.9573    0.7979   -2.4018 H   0  0  0  0  0  0  0  0  0  0  0  0
    0.6729   -2.0362   -0.4424 H   0  0  0  0  0  0  0  0  0  0  0  0
   -1.0335   -2.5363    1.2662 H   0  0  0  0  0  0  0  0  0  0  0  0
   -2.2395   -2.3109   -1.2482 H   0  0  0  0  0  0  0  0  0  0  0  0
   -3.2272   -1.1880    1.2852 H   0  0  0  0  0  0  0  0  0  0  0  0
   -1.7694   -0.3635    1.8989 H   0  0  0  0  0  0  0  0  0  0  0  0
   -1.3258    1.4970   -1.4153 H   0  0  0  0  0  0  0  0  0  0  0  0
   -0.7983    1.7039    0.2431 H   0  0  0  0  0  0  0  0  0  0  0  0
  1  2  1  0
  2  3  2  0
  3  4  1  0
  4  5  1  0
  4  6  1  0
  6  7  1  0
  7  8  2  0
  7  9  1  0
  9  2  1  0
  1 10  1  0
  1 11  1  0
  1 12  1  0
  3 13  1  0
  4 14  1  0
  5 15  1  0
  6 16  1  0
  6 17  1  0
  9 18  1  0
  9 19  1  0
M  END
$$$$
