
     RDKit          3D

 19 20  0  0  0  0  0  0  0  0999 V2000
   -1.4109    3.9587    1.8908 C   0  0  0  0  0  0  0  0  0  0  0  0
   -1.8604    2.5149    1.7104 C   0  0  0  0  0  0  0  0  0  0  0  0
   -3.1919    2.3128    0.9625 C   0  0  0  0  0  0  0  0  0  0  0  0
   -3.4593    0.8500    0.7883 C   0  0  0  0  0  0  0  0  0  0  0  0
   -2.4815    1.5162   -0.1430 C   0  0  0  0  0  0  0  0  0  0  0  0
   -1.1517    1.7579    0.5511 C   0  0  0  0  0  0  0  0  0  0  0  0
   -0.4058    0.6024    0.9939 O   0  0  0  0  0  0  0  0  0  0  0  0
    0.2501   -0.0659    0.0380 C   0  0  0  0  0  0  0  0  0  0  0  0
    0.2704    0.2087   -1.1313 O   0  0  0  0  0  0  0  0  0  0  0  0
   -2.0467    4.4795    2.6144 H   0  0  0  0  0  0  0  0  0  0  0  0
   -0.3789    4.0065    2.2541 H   0  0  0  0  0  0  0  0  0  0  0  0
   -1.4624    4.5101    0.9453 H   0  0  0  0  0  0  0  0  0  0  0  0
   -1.8090    1.9780    2.6642 H   0  0  0  0  0  0  0  0  0  0  0  0
   -3.9603    3.0683    0.8539 H   0  0  0  0  0  0  0  0  0  0  0  0
   -3.1131    0.1365    1.5317 H   0  0  0  0  0  0  0  0  0  0  0  0
   -4.4097    0.5931    0.3320 H   0  0  0  0  0  0  0  0  0  0  0  0
   -2.6269    1.5330   -1.2148 H   0  0  0  0  0  0  0  0  0  0  0  0
   -0.4843    2.3977   -0.0297 H   0  0  0  0  0  0  0  0  0  0  0  0
    0.7784   -0.9173    0.4961 H   0  0  0  0  0  0  0  0  0  0  0  0
  1  2  1  0
  2  3  1  0
  3  4  1  0
  4  5  1  0
  5  6  1  0
  6  7  1  0
  7  8  1  0
  8  9  2  0
  6  2  1  0
  5  3  1  0
  1 10  1  0
  1 11  1  0
  1 12  1  0
  2 13  1  0
  3 14  1  0
  4 15  1  0
  4 16  1  0
  5 17  1  0
  6 18  1  0
  8 19  1  0
M  END
$$$$
