
     RDKit          3D

 19 20  0  0  0  0  0  0  0  0999 V2000
   -3.0499   -0.1383    1.2383 C   0  0  0  0  0  0  0  0  0  0  0  0
   -2.1161   -0.0372    0.0406 C   0  0  0  0  0  0  0  0  0  0  0  0
   -0.9093   -1.0336    0.0379 C   0  0  0  0  0  0  0  0  0  0  0  0
    0.0475    0.1594   -0.1211 C   0  0  0  0  0  0  0  0  0  0  0  0
    1.2234    0.2619   -0.3101 O   0  0  0  0  0  0  0  0  0  0  0  0
   -1.1234    1.1862   -0.0128 C   0  0  0  0  0  0  0  0  0  0  0  0
   -1.3872    1.9467   -1.1663 O   0  0  0  0  0  0  0  0  0  0  0  0
   -1.9475    1.0502   -2.1266 C   0  0  0  0  0  0  0  0  0  0  0  0
   -2.8405    0.0932   -1.3169 C   0  0  0  0  0  0  0  0  0  0  0  0
   -3.6561   -1.0500    1.1937 H   0  0  0  0  0  0  0  0  0  0  0  0
   -2.4903   -0.1611    2.1800 H   0  0  0  0  0  0  0  0  0  0  0  0
   -3.7345    0.7159    1.2752 H   0  0  0  0  0  0  0  0  0  0  0  0
   -0.7659   -1.5672    0.9835 H   0  0  0  0  0  0  0  0  0  0  0  0
   -0.8673   -1.7652   -0.7755 H   0  0  0  0  0  0  0  0  0  0  0  0
   -1.0696    1.8548    0.8514 H   0  0  0  0  0  0  0  0  0  0  0  0
   -2.4906    1.6485   -2.8613 H   0  0  0  0  0  0  0  0  0  0  0  0
   -1.1493    0.5029   -2.6516 H   0  0  0  0  0  0  0  0  0  0  0  0
   -3.8246    0.5476   -1.1640 H   0  0  0  0  0  0  0  0  0  0  0  0
   -2.9874   -0.8678   -1.8175 H   0  0  0  0  0  0  0  0  0  0  0  0
  1  2  1  0
  2  3  1  0
  3  4  1  0
  4  5  2  0
  4  6  1  0
  6  7  1  0
  7  8  1  0
  8  9  1  0
  6  2  1  0
  9  2  1  0
  1 10  1  0
  1 11  1  0
  1 12  1  0
  3 13  1  0
  3 14  1  0
  6 15  1  0
  8 16  1  0
  8 17  1  0
  9 18  1  0
  9 19  1  0
M  END
$$$$
