
     RDKit          3D

 19 21  0  0  0  0  0  0  0  0999 V2000
    0.8944    1.1240    1.2749 C   0  0  0  0  0  0  0  0  0  0  0  0
   -0.0354    1.6942    0.1459 C   0  0  0  0  0  0  0  0  0  0  0  0
    0.1406    0.3628   -0.5941 C   0  0  0  0  0  0  0  0  0  0  0  0
    0.2613   -0.0980   -2.0396 C   0  0  0  0  0  0  0  0  0  0  0  0
    0.4241   -1.6373   -1.7665 C   0  0  0  0  0  0  0  0  0  0  0  0
    0.1472   -1.7120   -0.2388 C   0  0  0  0  0  0  0  0  0  0  0  0
    1.3140   -1.3427    0.5104 O   0  0  0  0  0  0  0  0  0  0  0  0
    1.3940    0.0580    0.2504 C   0  0  0  0  0  0  0  0  0  0  0  0
   -0.7473   -0.6394   -0.0349 O   0  0  0  0  0  0  0  0  0  0  0  0
    1.6462    1.8003    1.6854 H   0  0  0  0  0  0  0  0  0  0  0  0
    0.3275    0.6649    2.0845 H   0  0  0  0  0  0  0  0  0  0  0  0
   -1.0582    1.9663    0.4104 H   0  0  0  0  0  0  0  0  0  0  0  0
    0.4319    2.5232   -0.3917 H   0  0  0  0  0  0  0  0  0  0  0  0
   -0.6373    0.1178   -2.6232 H   0  0  0  0  0  0  0  0  0  0  0  0
    1.1245    0.3361   -2.5506 H   0  0  0  0  0  0  0  0  0  0  0  0
   -0.3129   -2.2263   -2.3172 H   0  0  0  0  0  0  0  0  0  0  0  0
    1.4195   -2.0151   -2.0080 H   0  0  0  0  0  0  0  0  0  0  0  0
   -0.2477   -2.6498    0.1499 H   0  0  0  0  0  0  0  0  0  0  0  0
    2.3569    0.3101   -0.2039 H   0  0  0  0  0  0  0  0  0  0  0  0
  1  2  1  0
  2  3  1  0
  3  4  1  0
  4  5  1  0
  5  6  1  0
  6  7  1  0
  7  8  1  0
  6  9  1  0
  8  1  1  0
  8  3  1  0
  9  3  1  0
  1 10  1  0
  1 11  1  0
  2 12  1  0
  2 13  1  0
  4 14  1  0
  4 15  1  0
  5 16  1  0
  5 17  1  0
  6 18  1  0
  8 19  1  0
M  END
$$$$
