gdb 5399	1.9316988	1.697589	1.111772	4.2771	77.31	-0.23663	-0.01258	0.22405	1167.0529	0.154881	-422.534535	-422.525214	-422.52427	-422.56881	33.684
 OpenBabel02181911423D

 19 20  0  0  1  0  0  0  0  0999 V2000
    1.4868   -0.1411    0.0179 C   0  0  0  0  0  0  0  0  0  0  0  0
    0.0831    0.0215   -0.0114 O   0  0  0  0  0  0  0  0  0  0  0  0
   -0.4264    0.7407    1.0722 C   0  0  2  0  0  0  0  0  0  0  0  0
   -1.9785    0.8853    1.1103 C   0  0  0  0  0  0  0  0  0  0  0  0
   -2.8580    0.0943    1.3007 O   0  0  0  0  0  0  0  0  0  0  0  0
   -1.9038    2.3734    1.0562 C   0  0  2  0  0  0  0  0  0  0  0  0
   -1.0458    2.7831   -0.1400 C   0  0  0  0  0  0  0  0  0  0  0  0
   -0.3425    2.2877    1.0713 C   0  0  2  0  0  0  0  0  0  0  0  0
    0.6075    3.1045    1.8996 C   0  0  0  0  0  0  0  0  0  0  0  0
    1.8144   -0.6316    0.9472 H   0  0  0  0  0  0  0  0  0  0  0  0
    1.7561   -0.7734   -0.8312 H   0  0  0  0  0  0  0  0  0  0  0  0
    2.0156    0.8187   -0.0745 H   0  0  0  0  0  0  0  0  0  0  0  0
   -0.0763    0.3216    2.0309 H   0  0  0  0  0  0  0  0  0  0  0  0
   -2.5662    3.0787    1.5431 H   0  0  0  0  0  0  0  0  0  0  0  0
   -1.0621    2.1878   -1.0470 H   0  0  0  0  0  0  0  0  0  0  0  0
   -1.0163    3.8558   -0.3051 H   0  0  0  0  0  0  0  0  0  0  0  0
    0.6592    2.7336    2.9291 H   0  0  0  0  0  0  0  0  0  0  0  0
    1.6215    3.0763    1.4844 H   0  0  0  0  0  0  0  0  0  0  0  0
    0.2974    4.1539    1.9350 H   0  0  0  0  0  0  0  0  0  0  0  0
  1 10  1  0  0  0  0
  2  1  1  0  0  0  0
  2  3  1  0  0  0  0
  3  4  1  0  0  0  0
  3 13  1  1  0  0  0
  4  5  2  0  0  0  0
  6  8  1  0  0  0  0
  6  4  1  0  0  0  0
  6 14  1  1  0  0  0
  7  6  1  0  0  0  0
  7  8  1  0  0  0  0
  8  3  1  0  0  0  0
  8  9  1  1  0  0  0
  9 19  1  0  0  0  0
  9 17  1  0  0  0  0
 11  1  1  0  0  0  0
 12  1  1  0  0  0  0
 15  7  1  0  0  0  0
 16  7  1  0  0  0  0
 18  9  1  0  0  0  0
M TOR 0 0 1 2 3
M TOR 1 0 1 2 7
M TOR 2 0 1 2 12
M TOR 3 1 2 3 4
M TOR 4 1 2 3 5
M TOR 5 1 2 7 5
M TOR 6 1 2 7 6
M TOR 7 1 2 7 8
M TOR 8 2 1 0 9
M TOR 9 2 1 0 10
M TOR 10 2 1 0 11
M TOR 11 2 3 5 6
M TOR 12 2 3 5 7
M TOR 13 2 3 5 13
M TOR 14 2 7 5 6
M TOR 15 2 7 5 13
M TOR 16 2 7 6 14
M TOR 17 2 7 6 15
M TOR 18 2 7 8 16
M TOR 19 2 7 8 17
M TOR 20 2 7 8 18
M TOR 21 3 2 7 6
M TOR 22 3 2 7 8
M TOR 23 3 5 6 7
M TOR 24 3 5 6 14
M TOR 25 3 5 6 15
M TOR 26 3 5 7 8
M TOR 27 4 3 2 7
M TOR 28 4 3 2 12
M TOR 29 4 3 5 6
M TOR 30 4 3 5 7
M TOR 31 4 3 5 13
M TOR 32 5 3 2 12
M TOR 33 5 6 7 8
M TOR 34 5 7 2 12
M TOR 35 5 7 6 14
M TOR 36 5 7 6 15
M TOR 37 5 7 8 16
M TOR 38 5 7 8 17
M TOR 39 5 7 8 18
M TOR 40 6 7 2 12
M TOR 41 6 7 5 13
M TOR 42 6 7 8 16
M TOR 43 6 7 8 17
M TOR 44 6 7 8 18
M TOR 45 8 7 2 12
M TOR 46 8 7 5 13
M TOR 47 8 7 6 14
M TOR 48 8 7 6 15
M  END
$$$$
