gdb 1570	2.3020928	1.6523256	1.2212268	2.7451	76.31	-0.24518	-0.03547	0.20971	1081.45	0.155433	-422.587142	-422.578337	-422.577393	-422.620319	33.564
 OpenBabel02181911403D

 19 19  0  0  1  0  0  0  0  0999 V2000
   -1.2387   -1.3195   -1.5192 C   0  0  0  0  0  0  0  0  0  0  0  0
    0.1833   -0.9161   -1.9152 C   0  0  2  0  0  0  0  0  0  0  0  0
    0.2825    0.4962   -2.0388 O   0  0  0  0  0  0  0  0  0  0  0  0
    0.6388   -1.4738   -3.2896 C   0  0  0  0  0  0  0  0  0  0  0  0
    2.1032   -1.7754   -3.1000 C   0  0  0  0  0  0  0  0  0  0  0  0
    2.4572   -1.7716   -1.8178 C   0  0  0  0  0  0  0  0  0  0  0  0
    1.2730   -1.4600   -0.9248 C   0  0  1  0  0  0  0  0  0  0  0  0
    1.5986   -0.5789    0.2583 C   0  0  0  0  0  0  0  0  0  0  0  0
    0.9424    0.3636    0.6370 O   0  0  0  0  0  0  0  0  0  0  0  0
   -1.4947   -0.9025   -0.5394 H   0  0  0  0  0  0  0  0  0  0  0  0
   -1.9518   -0.9295   -2.2512 H   0  0  0  0  0  0  0  0  0  0  0  0
   -1.3522   -2.4076   -1.4679 H   0  0  0  0  0  0  0  0  0  0  0  0
    0.1848    0.8605   -1.1483 H   0  0  0  0  0  0  0  0  0  0  0  0
    0.0841   -2.3825   -3.5597 H   0  0  0  0  0  0  0  0  0  0  0  0
    0.4424   -0.7296   -4.0675 H   0  0  0  0  0  0  0  0  0  0  0  0
    2.7684   -1.9993   -3.9265 H   0  0  0  0  0  0  0  0  0  0  0  0
    3.4464   -1.9836   -1.4271 H   0  0  0  0  0  0  0  0  0  0  0  0
    0.9235   -2.3998   -0.4580 H   0  0  0  0  0  0  0  0  0  0  0  0
    2.5138   -0.8801    0.8166 H   0  0  0  0  0  0  0  0  0  0  0  0
  1 12  1  0  0  0  0
  1 10  1  0  0  0  0
  2  3  1  6  0  0  0
  2  1  1  0  0  0  0
  2  7  1  0  0  0  0
  3 13  1  0  0  0  0
  4  5  1  0  0  0  0
  4  2  1  0  0  0  0
  5  6  2  0  0  0  0
  6 17  1  0  0  0  0
  6  7  1  0  0  0  0
  7 18  1  1  0  0  0
  7  8  1  0  0  0  0
  8  9  2  0  0  0  0
  8 19  1  0  0  0  0
 11  1  1  0  0  0  0
 14  4  1  0  0  0  0
 15  4  1  0  0  0  0
 16  5  1  0  0  0  0
M TOR 0 0 1 2 12
M TOR 1 0 1 3 4
M TOR 2 0 1 3 13
M TOR 3 0 1 3 14
M TOR 4 0 1 6 5
M TOR 5 0 1 6 7
M TOR 6 0 1 6 17
M TOR 7 1 3 4 5
M TOR 8 1 3 4 15
M TOR 9 1 6 5 4
M TOR 10 1 6 5 16
M TOR 11 1 6 7 8
M TOR 12 1 6 7 18
M TOR 13 2 1 0 9
M TOR 14 2 1 0 10
M TOR 15 2 1 0 11
M TOR 16 2 1 3 4
M TOR 17 2 1 3 13
M TOR 18 2 1 3 14
M TOR 19 2 1 6 5
M TOR 20 2 1 6 7
M TOR 21 2 1 6 17
M TOR 22 3 1 0 9
M TOR 23 3 1 0 10
M TOR 24 3 1 0 11
M TOR 25 3 1 2 12
M TOR 26 3 1 6 5
M TOR 27 3 1 6 7
M TOR 28 3 1 6 17
M TOR 29 3 4 5 6
M TOR 30 3 4 5 16
M TOR 31 4 3 1 6
M TOR 32 4 5 6 7
M TOR 33 4 5 6 17
M TOR 34 5 4 3 13
M TOR 35 5 4 3 14
M TOR 36 5 6 7 8
M TOR 37 5 6 7 18
M TOR 38 6 1 0 9
M TOR 39 6 1 0 10
M TOR 40 6 1 0 11
M TOR 41 6 1 2 12
M TOR 42 6 1 3 13
M TOR 43 6 1 3 14
M TOR 44 6 5 4 15
M TOR 45 7 6 5 16
M TOR 46 8 7 6 17
M  END
$$$$
