
     RDKit          3D

 19 20  0  0  0  0  0  0  0  0999 V2000
   -3.9800    3.5177   -0.9698 C   0  0  0  0  0  0  0  0  0  0  0  0
   -2.6910    3.4067   -0.1656 C   0  0  0  0  0  0  0  0  0  0  0  0
   -2.3431    1.9515    0.3217 C   0  0  0  0  0  0  0  0  0  0  0  0
   -1.0847    2.0004   -0.5636 C   0  0  0  0  0  0  0  0  0  0  0  0
   -0.3407    0.8686   -1.2092 C   0  0  0  0  0  0  0  0  0  0  0  0
    0.4644    0.0692   -0.1967 C   0  0  0  0  0  0  0  0  0  0  0  0
    0.4333   -1.1295   -0.0975 O   0  0  0  0  0  0  0  0  0  0  0  0
   -0.3118    3.1270   -0.1102 O   0  0  0  0  0  0  0  0  0  0  0  0
   -1.4027    3.3698   -1.0078 C   0  0  0  0  0  0  0  0  0  0  0  0
   -4.8531    3.3402   -0.3339 H   0  0  0  0  0  0  0  0  0  0  0  0
   -4.0855    4.5133   -1.4144 H   0  0  0  0  0  0  0  0  0  0  0  0
   -4.0057    2.7843   -1.7841 H   0  0  0  0  0  0  0  0  0  0  0  0
   -2.6554    4.1650    0.6220 H   0  0  0  0  0  0  0  0  0  0  0  0
   -2.1560    1.8124    1.3891 H   0  0  0  0  0  0  0  0  0  0  0  0
   -3.0798    1.2189   -0.0193 H   0  0  0  0  0  0  0  0  0  0  0  0
   -1.0175    0.1884   -1.7343 H   0  0  0  0  0  0  0  0  0  0  0  0
    0.3692    1.2908   -1.9332 H   0  0  0  0  0  0  0  0  0  0  0  0
    1.1096    0.6907    0.4626 H   0  0  0  0  0  0  0  0  0  0  0  0
   -1.1762    3.8878   -1.9345 H   0  0  0  0  0  0  0  0  0  0  0  0
  1  2  1  0
  2  3  1  0
  3  4  1  0
  4  5  1  0
  5  6  1  0
  6  7  2  0
  4  8  1  0
  8  9  1  0
  9  2  1  0
  9  4  1  0
  1 10  1  0
  1 11  1  0
  1 12  1  0
  2 13  1  0
  3 14  1  0
  3 15  1  0
  5 16  1  0
  5 17  1  0
  6 18  1  0
  9 19  1  0
M  END
$$$$
