gdb 5120	3.3083253	1.3863397	1.2694396	1.796	73.84	-0.25647	0.07317	0.32964	1058.5924	0.158548	-422.516563	-422.509048	-422.508104	-422.548597	29.985
 OpenBabel02181911423D

 19 21  0  0  1  0  0  0  0  0999 V2000
    1.1619    0.6898   -0.6026 O   0  0  0  0  0  0  0  0  0  0  0  0
    0.0381    0.1641    0.0885 C   0  0  0  0  0  0  0  0  0  0  0  0
   -1.2086    0.2468   -0.7388 C   0  0  1  0  0  0  0  0  0  0  0  0
   -1.3265   -0.7418   -1.7923 O   0  0  0  0  0  0  0  0  0  0  0  0
   -2.3335   -0.6885   -0.7662 C   0  0  2  0  0  0  0  0  0  0  0  0
   -3.5161    0.2692   -1.0387 C   0  0  1  0  0  0  0  0  0  0  0  0
   -3.1461    1.4187   -0.0345 C   0  0  0  0  0  0  0  0  0  0  0  0
   -1.9346    1.5855   -1.0204 C   0  0  2  0  0  0  0  0  0  0  0  0
   -2.9415    1.2035   -2.1397 C   0  0  0  0  0  0  0  0  0  0  0  0
    1.2551    0.1761   -1.4128 H   0  0  0  0  0  0  0  0  0  0  0  0
    0.2038   -0.8791    0.3952 H   0  0  0  0  0  0  0  0  0  0  0  0
   -0.0706    0.7713    0.9939 H   0  0  0  0  0  0  0  0  0  0  0  0
   -2.4324   -1.5743   -0.1467 H   0  0  0  0  0  0  0  0  0  0  0  0
   -4.5160   -0.1596   -1.0969 H   0  0  0  0  0  0  0  0  0  0  0  0
   -3.8454    2.2583   -0.0602 H   0  0  0  0  0  0  0  0  0  0  0  0
   -2.9289    1.1406    1.0019 H   0  0  0  0  0  0  0  0  0  0  0  0
   -1.3246    2.4866   -1.0583 H   0  0  0  0  0  0  0  0  0  0  0  0
   -3.6244    2.0244   -2.3650 H   0  0  0  0  0  0  0  0  0  0  0  0
   -2.5551    0.7515   -3.0509 H   0  0  0  0  0  0  0  0  0  0  0  0
  1  2  1  0  0  0  0
  2 11  1  0  0  0  0
  2 12  1  0  0  0  0
  3  2  1  1  0  0  0
  4  5  1  0  0  0  0
  4  3  1  0  0  0  0
  5  3  1  0  0  0  0
  5 13  1  1  0  0  0
  6 14  1  6  0  0  0
  6  5  1  0  0  0  0
  6  7  1  0  0  0  0
  7 16  1  0  0  0  0
  8 17  1  6  0  0  0
  8  3  1  0  0  0  0
  8  7  1  0  0  0  0
  9  6  1  0  0  0  0
  9  8  1  0  0  0  0
 10  1  1  0  0  0  0
 15  7  1  0  0  0  0
 18  9  1  0  0  0  0
 19  9  1  0  0  0  0
M TOR 0 0 1 2 3
M TOR 1 0 1 2 4
M TOR 2 0 1 2 7
M TOR 3 1 2 3 4
M TOR 4 1 2 4 5
M TOR 5 1 2 4 12
M TOR 6 1 2 7 6
M TOR 7 1 2 7 8
M TOR 8 1 2 7 16
M TOR 9 2 1 0 9
M TOR 10 2 3 4 5
M TOR 11 2 3 4 12
M TOR 12 2 4 5 6
M TOR 13 2 4 5 8
M TOR 14 2 4 5 13
M TOR 15 2 7 6 5
M TOR 16 2 7 6 14
M TOR 17 2 7 6 15
M TOR 18 2 7 8 5
M TOR 19 2 7 8 17
M TOR 20 2 7 8 18
M TOR 21 3 2 1 10
M TOR 22 3 2 1 11
M TOR 23 3 2 7 6
M TOR 24 3 2 7 8
M TOR 25 3 2 7 16
M TOR 26 3 4 2 7
M TOR 27 3 4 5 6
M TOR 28 3 4 5 8
M TOR 29 3 4 5 13
M TOR 30 4 2 1 10
M TOR 31 4 2 1 11
M TOR 32 4 2 7 6
M TOR 33 4 2 7 8
M TOR 34 4 2 7 16
M TOR 35 4 5 6 7
M TOR 36 4 5 6 14
M TOR 37 4 5 6 15
M TOR 38 4 5 8 7
M TOR 39 4 5 8 17
M TOR 40 4 5 8 18
M TOR 41 5 4 2 7
M TOR 42 5 6 7 8
M TOR 43 5 6 7 16
M TOR 44 5 8 7 16
M TOR 45 6 5 4 12
M TOR 46 6 5 8 17
M TOR 47 6 5 8 18
M TOR 48 6 7 8 17
M TOR 49 6 7 8 18
M TOR 50 7 2 1 10
M TOR 51 7 2 1 11
M TOR 52 7 2 4 12
M TOR 53 7 6 5 13
M TOR 54 7 8 5 13
M TOR 55 8 5 4 12
M TOR 56 8 5 6 14
M TOR 57 8 5 6 15
M TOR 58 8 7 6 14
M TOR 59 8 7 6 15
M  END
$$$$
