
     RDKit          3D

 19 21  0  0  0  0  0  0  0  0999 V2000
    1.4442   -0.2747   -0.0413 C   0  0  0  0  0  0  0  0  0  0  0  0
    0.0360   -0.0660   -0.0063 O   0  0  0  0  0  0  0  0  0  0  0  0
   -0.3815    0.6130    1.0945 C   0  0  0  0  0  0  0  0  0  0  0  0
   -1.7400    0.7016    1.7075 C   0  0  0  0  0  0  0  0  0  0  0  0
   -1.7562    2.2291    1.6490 C   0  0  0  0  0  0  0  0  0  0  0  0
   -0.2033    2.1266    1.5905 C   0  0  0  0  0  0  0  0  0  0  0  0
    0.5775    3.0505    0.9132 O   0  0  0  0  0  0  0  0  0  0  0  0
    0.1937    1.5727    2.9906 C   0  0  0  0  0  0  0  0  0  0  0  0
   -0.5031    0.2820    2.5641 C   0  0  0  0  0  0  0  0  0  0  0  0
    1.7752   -0.8730    0.8182 H   0  0  0  0  0  0  0  0  0  0  0  0
    1.6597   -0.8165   -0.9645 H   0  0  0  0  0  0  0  0  0  0  0  0
    1.9846    0.6796   -0.0440 H   0  0  0  0  0  0  0  0  0  0  0  0
   -2.5651    0.0146    1.5748 H   0  0  0  0  0  0  0  0  0  0  0  0
   -2.1605    2.5853    0.6977 H   0  0  0  0  0  0  0  0  0  0  0  0
   -2.1960    2.7882    2.4836 H   0  0  0  0  0  0  0  0  0  0  0  0
    0.4889    3.9075    1.3461 H   0  0  0  0  0  0  0  0  0  0  0  0
    1.2765    1.4419    3.0692 H   0  0  0  0  0  0  0  0  0  0  0  0
   -0.1860    2.1110    3.8675 H   0  0  0  0  0  0  0  0  0  0  0  0
   -0.4807   -0.6876    3.0433 H   0  0  0  0  0  0  0  0  0  0  0  0
  1  2  1  0
  2  3  1  0
  3  4  1  0
  4  5  1  0
  5  6  1  0
  6  7  1  0
  6  8  1  0
  8  9  1  0
  6  3  1  0
  9  3  1  0
  9  4  1  0
  1 10  1  0
  1 11  1  0
  1 12  1  0
  4 13  1  0
  5 14  1  0
  5 15  1  0
  7 16  1  0
  8 17  1  0
  8 18  1  0
  9 19  1  0
M  END
$$$$
