
     RDKit          3D

 19 20  0  0  0  0  0  0  0  0999 V2000
    1.5054   -0.2206   -0.0450 O   0  0  0  0  0  0  0  0  0  0  0  0
    0.3986    0.2416    0.0656 C   0  0  0  0  0  0  0  0  0  0  0  0
   -0.4205    0.7815   -1.0920 C   0  0  0  0  0  0  0  0  0  0  0  0
   -1.1420    2.0587   -0.7402 C   0  0  0  0  0  0  0  0  0  0  0  0
   -1.3983    3.1569   -1.7416 C   0  0  0  0  0  0  0  0  0  0  0  0
   -0.5095    3.4090   -0.5316 C   0  0  0  0  0  0  0  0  0  0  0  0
   -1.1694    3.9853    0.7099 C   0  0  0  0  0  0  0  0  0  0  0  0
   -2.4162    3.0884    0.8861 C   0  0  0  0  0  0  0  0  0  0  0  0
   -2.1219    1.8419    0.2516 O   0  0  0  0  0  0  0  0  0  0  0  0
   -0.1099    0.2994    1.0520 H   0  0  0  0  0  0  0  0  0  0  0  0
    0.2353    0.9157   -1.9555 H   0  0  0  0  0  0  0  0  0  0  0  0
   -1.1698    0.0206   -1.3550 H   0  0  0  0  0  0  0  0  0  0  0  0
   -0.9053    3.0767   -2.7046 H   0  0  0  0  0  0  0  0  0  0  0  0
   -2.3826    3.6119   -1.7830 H   0  0  0  0  0  0  0  0  0  0  0  0
    0.5510    3.5710   -0.6862 H   0  0  0  0  0  0  0  0  0  0  0  0
   -0.4901    3.8868    1.5631 H   0  0  0  0  0  0  0  0  0  0  0  0
   -1.4430    5.0408    0.6201 H   0  0  0  0  0  0  0  0  0  0  0  0
   -2.6635    2.8829    1.9309 H   0  0  0  0  0  0  0  0  0  0  0  0
   -3.2963    3.5472    0.4160 H   0  0  0  0  0  0  0  0  0  0  0  0
  1  2  2  0
  2  3  1  0
  3  4  1  0
  4  5  1  0
  5  6  1  0
  6  7  1  0
  7  8  1  0
  8  9  1  0
  6  4  1  0
  9  4  1  0
  2 10  1  0
  3 11  1  0
  3 12  1  0
  5 13  1  0
  5 14  1  0
  6 15  1  0
  7 16  1  0
  7 17  1  0
  8 18  1  0
  8 19  1  0
M  END
$$$$
