
     RDKit          3D

 19 20  0  0  0  0  0  0  0  0999 V2000
   -0.1013    1.1776   -1.1864 O   0  0  0  0  0  0  0  0  0  0  0  0
   -0.5982    0.4056   -0.4081 C   0  0  0  0  0  0  0  0  0  0  0  0
   -0.4487    0.4905    1.1102 C   0  0  0  0  0  0  0  0  0  0  0  0
   -0.4316    1.9355    1.6288 C   0  0  0  0  0  0  0  0  0  0  0  0
   -1.9068    2.1516    1.9250 C   0  0  0  0  0  0  0  0  0  0  0  0
   -2.4847    3.4372    2.4311 C   0  0  0  0  0  0  0  0  0  0  0  0
   -2.7705    2.9892    1.0141 C   0  0  0  0  0  0  0  0  0  0  0  0
   -2.3722    0.7913    2.4078 C   0  0  0  0  0  0  0  0  0  0  0  0
   -1.5669   -0.1661    1.7101 O   0  0  0  0  0  0  0  0  0  0  0  0
   -1.2196   -0.4562   -0.7382 H   0  0  0  0  0  0  0  0  0  0  0  0
    0.4667   -0.0597    1.3743 H   0  0  0  0  0  0  0  0  0  0  0  0
    0.1705    2.0098    2.5407 H   0  0  0  0  0  0  0  0  0  0  0  0
   -0.0225    2.6161    0.8795 H   0  0  0  0  0  0  0  0  0  0  0  0
   -3.2930    3.3863    3.1539 H   0  0  0  0  0  0  0  0  0  0  0  0
   -1.8134    4.2769    2.5776 H   0  0  0  0  0  0  0  0  0  0  0  0
   -3.7703    2.6340    0.7859 H   0  0  0  0  0  0  0  0  0  0  0  0
   -2.2883    3.5220    0.2016 H   0  0  0  0  0  0  0  0  0  0  0  0
   -2.2146    0.6755    3.4911 H   0  0  0  0  0  0  0  0  0  0  0  0
   -3.4269    0.5900    2.1909 H   0  0  0  0  0  0  0  0  0  0  0  0
  1  2  2  0
  2  3  1  0
  3  4  1  0
  4  5  1  0
  5  6  1  0
  6  7  1  0
  5  8  1  0
  8  9  1  0
  9  3  1  0
  7  5  1  0
  2 10  1  0
  3 11  1  0
  4 12  1  0
  4 13  1  0
  6 14  1  0
  6 15  1  0
  7 16  1  0
  7 17  1  0
  8 18  1  0
  8 19  1  0
M  END
$$$$
