
     RDKit          3D

 19 21  0  0  0  0  0  0  0  0999 V2000
   -0.1160    0.0442    0.2444 C   0  0  0  0  0  0  0  0  0  0  0  0
    1.3808    0.0067    0.0298 C   0  0  0  0  0  0  0  0  0  0  0  0
    2.0838   -0.6141    1.0841 O   0  0  0  0  0  0  0  0  0  0  0  0
    2.1691    1.1741   -0.4932 C   0  0  0  0  0  0  0  0  0  0  0  0
    1.4816    2.1541   -1.2376 O   0  0  0  0  0  0  0  0  0  0  0  0
    1.3197    1.7346   -2.5778 C   0  0  0  0  0  0  0  0  0  0  0  0
    0.2225    0.7572   -2.9065 C   0  0  0  0  0  0  0  0  0  0  0  0
    1.6391    0.2647   -2.6664 C   0  0  0  0  0  0  0  0  0  0  0  0
    2.1493   -0.1142   -1.2950 C   0  0  0  0  0  0  0  0  0  0  0  0
   -0.2917    0.1106    1.3222 H   0  0  0  0  0  0  0  0  0  0  0  0
   -0.5666    0.9227   -0.2194 H   0  0  0  0  0  0  0  0  0  0  0  0
   -0.6215   -0.8530   -0.1299 H   0  0  0  0  0  0  0  0  0  0  0  0
    1.9168   -1.5619    1.0314 H   0  0  0  0  0  0  0  0  0  0  0  0
    3.0201    1.5455    0.0699 H   0  0  0  0  0  0  0  0  0  0  0  0
    1.6334    2.4806   -3.3009 H   0  0  0  0  0  0  0  0  0  0  0  0
   -0.5594    0.5553   -2.1901 H   0  0  0  0  0  0  0  0  0  0  0  0
   -0.1106    0.7489   -3.9400 H   0  0  0  0  0  0  0  0  0  0  0  0
    2.1861   -0.1472   -3.5062 H   0  0  0  0  0  0  0  0  0  0  0  0
    2.9995   -0.7849   -1.2576 H   0  0  0  0  0  0  0  0  0  0  0  0
  1  2  1  0
  2  3  1  0
  2  4  1  0
  4  5  1  0
  5  6  1  0
  6  7  1  0
  7  8  1  0
  8  9  1  0
  9  2  1  0
  9  4  1  0
  8  6  1  0
  1 10  1  0
  1 11  1  0
  1 12  1  0
  3 13  1  0
  4 14  1  0
  6 15  1  0
  7 16  1  0
  7 17  1  0
  8 18  1  0
  9 19  1  0
M  END
$$$$
