gdb 3161	2.3071385	1.9704805	1.3350876	2.8624	73.84	-0.25071	0.0681	0.31881	1002.1111	0.157005	-422.539416	-422.531344	-422.530399	-422.571436	32.02
 OpenBabel02181911413D

 19 21  0  0  1  0  0  0  0  0999 V2000
    0.8620    0.9474    0.0334 C   0  0  0  0  0  0  0  0  0  0  0  0
    0.8882   -0.5760    0.1947 C   0  0  1  0  0  0  0  0  0  0  0  0
    1.2705   -1.2938   -1.1020 C   0  0  1  0  0  0  0  0  0  0  0  0
    2.5244   -0.8686   -1.6492 O   0  0  0  0  0  0  0  0  0  0  0  0
    2.4837   -2.1044   -0.9219 C   0  0  1  0  0  0  0  0  0  0  0  0
    2.9363   -1.9822    0.4992 C   0  0  2  0  0  0  0  0  0  0  0  0
    1.9695   -2.5417    1.5293 C   0  0  0  0  0  0  0  0  0  0  0  0
    1.9589   -1.0691    1.1929 C   0  0  2  0  0  0  0  0  0  0  0  0
    2.4620   -0.1692    2.1333 O   0  0  0  0  0  0  0  0  0  0  0  0
    0.6580    1.4425    0.9860 H   0  0  0  0  0  0  0  0  0  0  0  0
    1.8244    1.3063   -0.3378 H   0  0  0  0  0  0  0  0  0  0  0  0
    0.0843    1.2425   -0.6785 H   0  0  0  0  0  0  0  0  0  0  0  0
   -0.1082   -0.9218    0.5039 H   0  0  0  0  0  0  0  0  0  0  0  0
    0.5063   -1.5352   -1.8377 H   0  0  0  0  0  0  0  0  0  0  0  0
    2.6896   -2.9973   -1.5079 H   0  0  0  0  0  0  0  0  0  0  0  0
    3.9927   -1.9401    0.7378 H   0  0  0  0  0  0  0  0  0  0  0  0
    1.1536   -3.1766    1.1958 H   0  0  0  0  0  0  0  0  0  0  0  0
    2.3954   -2.8081    2.4904 H   0  0  0  0  0  0  0  0  0  0  0  0
    1.8223   -0.0944    2.8498 H   0  0  0  0  0  0  0  0  0  0  0  0
  1  2  1  0  0  0  0
  1 10  1  0  0  0  0
  2 13  1  1  0  0  0
  2  8  1  0  0  0  0
  3 14  1  6  0  0  0
  3  5  1  0  0  0  0
  3  2  1  0  0  0  0
  4  3  1  0  0  0  0
  4  5  1  0  0  0  0
  5 15  1  6  0  0  0
  5  6  1  0  0  0  0
  6 16  1  1  0  0  0
  6  8  1  0  0  0  0
  6  7  1  0  0  0  0
  7 18  1  0  0  0  0
  8  7  1  0  0  0  0
  8  9  1  1  0  0  0
  9 19  1  0  0  0  0
 11  1  1  0  0  0  0
 12  1  1  0  0  0  0
 17  7  1  0  0  0  0
M TOR 0 0 1 2 3
M TOR 1 0 1 2 4
M TOR 2 0 1 2 13
M TOR 3 0 1 7 5
M TOR 4 0 1 7 6
M TOR 5 0 1 7 8
M TOR 6 1 2 3 4
M TOR 7 1 2 4 5
M TOR 8 1 2 4 14
M TOR 9 1 7 5 4
M TOR 10 1 7 5 6
M TOR 11 1 7 5 15
M TOR 12 1 7 6 16
M TOR 13 1 7 6 17
M TOR 14 1 7 8 18
M TOR 15 2 1 0 9
M TOR 16 2 1 0 10
M TOR 17 2 1 0 11
M TOR 18 2 1 7 5
M TOR 19 2 1 7 6
M TOR 20 2 1 7 8
M TOR 21 2 3 4 5
M TOR 22 2 3 4 14
M TOR 23 2 4 5 6
M TOR 24 2 4 5 7
M TOR 25 2 4 5 15
M TOR 26 3 2 1 7
M TOR 27 3 2 1 12
M TOR 28 3 4 2 13
M TOR 29 3 4 5 6
M TOR 30 3 4 5 7
M TOR 31 3 4 5 15
M TOR 32 4 2 1 7
M TOR 33 4 2 1 12
M TOR 34 4 5 6 7
M TOR 35 4 5 6 16
M TOR 36 4 5 6 17
M TOR 37 4 5 7 8
M TOR 38 5 4 2 13
M TOR 39 5 6 7 8
M TOR 40 5 7 1 12
M TOR 41 5 7 6 16
M TOR 42 5 7 6 17
M TOR 43 5 7 8 18
M TOR 44 6 5 4 14
M TOR 45 6 7 1 12
M TOR 46 6 7 5 15
M TOR 47 6 7 8 18
M TOR 48 7 1 0 9
M TOR 49 7 1 0 10
M TOR 50 7 1 0 11
M TOR 51 7 1 2 13
M TOR 52 7 5 4 14
M TOR 53 8 7 1 12
M TOR 54 8 7 5 15
M TOR 55 8 7 6 16
M TOR 56 8 7 6 17
M  END
$$$$
