
     RDKit          3D

 19 20  0  0  0  0  0  0  0  0999 V2000
    1.4148   -0.1909    0.0857 C   0  0  0  0  0  0  0  0  0  0  0  0
    0.0408    0.1598    0.0117 O   0  0  0  0  0  0  0  0  0  0  0  0
   -0.4881    0.8326    1.0999 C   0  0  0  0  0  0  0  0  0  0  0  0
   -1.8538    0.3871    1.5139 C   0  0  0  0  0  0  0  0  0  0  0  0
   -0.6787    0.1836    2.4707 C   0  0  0  0  0  0  0  0  0  0  0  0
   -0.5016    1.2904    3.4483 C   0  0  0  0  0  0  0  0  0  0  0  0
   -0.2876    2.4658    2.8454 C   0  0  0  0  0  0  0  0  0  0  0  0
   -0.1517    2.3252    1.3455 C   0  0  0  0  0  0  0  0  0  0  0  0
    1.1392    2.7219    0.8877 O   0  0  0  0  0  0  0  0  0  0  0  0
    1.6624   -0.6326    1.0611 H   0  0  0  0  0  0  0  0  0  0  0  0
    1.5870   -0.9393   -0.6923 H   0  0  0  0  0  0  0  0  0  0  0  0
    2.0613    0.6730   -0.0952 H   0  0  0  0  0  0  0  0  0  0  0  0
   -2.6060    1.1211    1.7850 H   0  0  0  0  0  0  0  0  0  0  0  0
   -2.2195   -0.4915    0.9930 H   0  0  0  0  0  0  0  0  0  0  0  0
   -0.3619   -0.8280    2.6962 H   0  0  0  0  0  0  0  0  0  0  0  0
   -0.6013    1.1476    4.5190 H   0  0  0  0  0  0  0  0  0  0  0  0
   -0.1778    3.4256    3.3363 H   0  0  0  0  0  0  0  0  0  0  0  0
   -0.8501    2.9638    0.7933 H   0  0  0  0  0  0  0  0  0  0  0  0
    1.7759    2.4170    1.5437 H   0  0  0  0  0  0  0  0  0  0  0  0
  1  2  1  0
  2  3  1  0
  3  4  1  0
  4  5  1  0
  5  6  1  0
  6  7  2  0
  7  8  1  0
  8  9  1  0
  5  3  1  0
  8  3  1  0
  1 10  1  0
  1 11  1  0
  1 12  1  0
  4 13  1  0
  4 14  1  0
  5 15  1  0
  6 16  1  0
  7 17  1  0
  8 18  1  0
  9 19  1  0
M  END
$$$$
