gdb 3460	2.3740652	1.6897416	1.2761232	2.1999	76.27	-0.23672	0.00431	0.24103000000000002	1050.9026	0.155915	-422.559509	-422.550602	-422.549658	-422.592325	34.563
 OpenBabel02181911413D

 19 20  0  0  1  0  0  0  0  0999 V2000
   -0.9106   -0.8690    3.0123 C   0  0  0  0  0  0  0  0  0  0  0  0
   -1.4465    0.2687    2.1789 C   0  0  1  0  0  0  0  0  0  0  0  0
   -2.8864    0.7055    2.3685 C   0  0  0  0  0  0  0  0  0  0  0  0
   -1.7540    1.6326    2.7724 C   0  0  1  0  0  0  0  0  0  0  0  0
   -1.5060    1.9090    4.1168 O   0  0  0  0  0  0  0  0  0  0  0  0
   -1.3673    2.6270    1.7269 C   0  0  0  0  0  0  0  0  0  0  0  0
   -0.9337    2.0276    0.6154 C   0  0  0  0  0  0  0  0  0  0  0  0
   -0.8563    0.5227    0.7749 C   0  0  1  0  0  0  0  0  0  0  0  0
    0.4694    0.0318    0.6065 O   0  0  0  0  0  0  0  0  0  0  0  0
   -1.2268   -0.7573    4.0528 H   0  0  0  0  0  0  0  0  0  0  0  0
   -1.2675   -1.8362    2.6421 H   0  0  0  0  0  0  0  0  0  0  0  0
    0.1817   -0.8918    2.9871 H   0  0  0  0  0  0  0  0  0  0  0  0
   -3.4912    0.9757    1.5080 H   0  0  0  0  0  0  0  0  0  0  0  0
   -3.4236    0.2096    3.1728 H   0  0  0  0  0  0  0  0  0  0  0  0
   -2.2918    2.3191    4.4924 H   0  0  0  0  0  0  0  0  0  0  0  0
   -1.4860    3.6951    1.8745 H   0  0  0  0  0  0  0  0  0  0  0  0
   -0.6504    2.5161   -0.3095 H   0  0  0  0  0  0  0  0  0  0  0  0
   -1.4430   -0.0012    0.0105 H   0  0  0  0  0  0  0  0  0  0  0  0
    1.0498    0.6046    1.1208 H   0  0  0  0  0  0  0  0  0  0  0  0
  1 10  1  0  0  0  0
  2  3  1  0  0  0  0
  2  4  1  0  0  0  0
  2  1  1  1  0  0  0
  3  4  1  0  0  0  0
  3 14  1  0  0  0  0
  4  5  1  1  0  0  0
  5 15  1  0  0  0  0
  6 16  1  0  0  0  0
  6  4  1  0  0  0  0
  7  8  1  0  0  0  0
  7  6  2  0  0  0  0
  8 18  1  6  0  0  0
  8  2  1  0  0  0  0
  9  8  1  0  0  0  0
  9 19  1  0  0  0  0
 11  1  1  0  0  0  0
 12  1  1  0  0  0  0
 13  3  1  0  0  0  0
 17  7  1  0  0  0  0
M TOR 0 0 1 2 3
M TOR 1 0 1 2 12
M TOR 2 0 1 2 13
M TOR 3 0 1 3 4
M TOR 4 0 1 3 5
M TOR 5 0 1 7 6
M TOR 6 0 1 7 8
M TOR 7 0 1 7 17
M TOR 8 1 2 3 4
M TOR 9 1 2 3 5
M TOR 10 1 3 2 12
M TOR 11 1 3 2 13
M TOR 12 1 3 4 14
M TOR 13 1 3 5 6
M TOR 14 1 3 5 15
M TOR 15 1 7 6 5
M TOR 16 1 7 6 16
M TOR 17 1 7 8 18
M TOR 18 2 1 0 9
M TOR 19 2 1 0 10
M TOR 20 2 1 0 11
M TOR 21 2 1 7 6
M TOR 22 2 1 7 8
M TOR 23 2 1 7 17
M TOR 24 2 3 1 7
M TOR 25 2 3 4 14
M TOR 26 2 3 5 6
M TOR 27 2 3 5 15
M TOR 28 3 1 0 9
M TOR 29 3 1 0 10
M TOR 30 3 1 0 11
M TOR 31 3 1 7 6
M TOR 32 3 1 7 8
M TOR 33 3 1 7 17
M TOR 34 3 5 6 7
M TOR 35 3 5 6 16
M TOR 36 4 3 1 7
M TOR 37 4 3 2 12
M TOR 38 4 3 2 13
M TOR 39 4 3 5 6
M TOR 40 4 3 5 15
M TOR 41 5 3 1 7
M TOR 42 5 3 2 12
M TOR 43 5 3 2 13
M TOR 44 5 3 4 14
M TOR 45 5 6 7 8
M TOR 46 5 6 7 17
M TOR 47 6 7 8 18
M TOR 48 7 1 0 9
M TOR 49 7 1 0 10
M TOR 50 7 1 0 11
M TOR 51 7 1 2 12
M TOR 52 7 1 2 13
M TOR 53 7 6 5 15
M TOR 54 8 7 6 16
M  END
$$$$
