gdb 3924	3.5861754	1.4502035	1.2831468	0.4468	75.53	-0.24097	0.06192	0.30289	1044.7459	0.157744	-422.483707	-422.476439	-422.475495	-422.514958	29.746
 OpenBabel02181911413D

 19 21  0  0  1  0  0  0  0  0999 V2000
    0.1700   -0.4197   -0.1539 C   0  0  0  0  0  0  0  0  0  0  0  0
    1.1791    0.6168    0.2736 C   0  0  2  0  0  0  0  0  0  0  0  0
    2.5396    0.0399    0.4440 O   0  0  0  0  0  0  0  0  0  0  0  0
    2.7255    0.9206    1.5591 C   0  0  1  0  0  0  0  0  0  0  0  0
    3.2445    1.0207    3.0163 C   0  0  0  0  0  0  0  0  0  0  0  0
    2.5793    2.4510    2.7906 C   0  0  1  0  0  0  0  0  0  0  0  0
    3.1580    2.4056    1.3672 C   0  0  0  0  0  0  0  0  0  0  0  0
    1.1527    2.2506    2.5287 O   0  0  0  0  0  0  0  0  0  0  0  0
    1.2493    1.0343    1.7852 C   0  0  1  0  0  0  0  0  0  0  0  0
    0.1245   -1.2388    0.5698 H   0  0  0  0  0  0  0  0  0  0  0  0
   -0.8233    0.0349   -0.2350 H   0  0  0  0  0  0  0  0  0  0  0  0
    0.4364   -0.8379   -1.1292 H   0  0  0  0  0  0  0  0  0  0  0  0
    1.2233    1.4587   -0.4257 H   0  0  0  0  0  0  0  0  0  0  0  0
    2.8074    0.3496    3.7579 H   0  0  0  0  0  0  0  0  0  0  0  0
    4.3228    1.1209    3.1523 H   0  0  0  0  0  0  0  0  0  0  0  0
    2.7218    3.2702    3.4907 H   0  0  0  0  0  0  0  0  0  0  0  0
    2.6555    3.0207    0.6199 H   0  0  0  0  0  0  0  0  0  0  0  0
    4.2424    2.5185    1.3175 H   0  0  0  0  0  0  0  0  0  0  0  0
    0.8250    0.2113    2.3723 H   0  0  0  0  0  0  0  0  0  0  0  0
  1  2  1  0  0  0  0
  1 10  1  0  0  0  0
  2 13  1  6  0  0  0
  2  3  1  0  0  0  0
  2  9  1  0  0  0  0
  4  3  1  6  0  0  0
  4  9  1  0  0  0  0
  4  5  1  0  0  0  0
  5 15  1  0  0  0  0
  5 14  1  0  0  0  0
  6  5  1  0  0  0  0
  6 16  1  1  0  0  0
  7  4  1  0  0  0  0
  7  6  1  0  0  0  0
  8  6  1  0  0  0  0
  9 19  1  1  0  0  0
  9  8  1  0  0  0  0
 11  1  1  0  0  0  0
 12  1  1  0  0  0  0
 17  7  1  0  0  0  0
 18  7  1  0  0  0  0
M TOR 0 0 1 2 3
M TOR 1 0 1 8 3
M TOR 2 0 1 8 7
M TOR 3 0 1 8 18
M TOR 4 1 2 3 4
M TOR 5 1 2 3 6
M TOR 6 1 2 3 8
M TOR 7 1 8 3 4
M TOR 8 1 8 3 6
M TOR 9 1 8 7 5
M TOR 10 2 1 0 9
M TOR 11 2 1 0 10
M TOR 12 2 1 0 11
M TOR 13 2 1 8 7
M TOR 14 2 1 8 18
M TOR 15 2 3 4 5
M TOR 16 2 3 4 13
M TOR 17 2 3 4 14
M TOR 18 2 3 6 5
M TOR 19 2 3 6 16
M TOR 20 2 3 6 17
M TOR 21 2 3 8 7
M TOR 22 2 3 8 18
M TOR 23 3 2 1 12
M TOR 24 3 4 5 6
M TOR 25 3 4 5 7
M TOR 26 3 4 5 15
M TOR 27 3 6 5 7
M TOR 28 3 6 5 15
M TOR 29 3 8 1 12
M TOR 30 3 8 7 5
M TOR 31 4 3 6 16
M TOR 32 4 3 6 17
M TOR 33 4 3 8 7
M TOR 34 4 3 8 18
M TOR 35 4 5 6 16
M TOR 36 4 5 6 17
M TOR 37 4 5 7 8
M TOR 38 5 4 3 8
M TOR 39 5 6 3 8
M TOR 40 5 7 8 18
M TOR 41 6 3 4 13
M TOR 42 6 3 4 14
M TOR 43 6 3 8 7
M TOR 44 6 3 8 18
M TOR 45 6 5 4 13
M TOR 46 6 5 4 14
M TOR 47 6 5 7 8
M TOR 48 7 5 4 13
M TOR 49 7 5 4 14
M TOR 50 7 5 6 16
M TOR 51 7 5 6 17
M TOR 52 7 8 1 12
M TOR 53 8 1 0 9
M TOR 54 8 1 0 10
M TOR 55 8 1 0 11
M TOR 56 8 3 4 13
M TOR 57 8 3 4 14
M TOR 58 8 3 6 16
M TOR 59 8 3 6 17
M TOR 60 8 7 5 15
M  END
$$$$
