
     RDKit          3D

 19 20  0  0  0  0  0  0  0  0999 V2000
    0.8220    1.5406    3.5482 O   0  0  0  0  0  0  0  0  0  0  0  0
   -0.3356    0.7633    3.7535 C   0  0  0  0  0  0  0  0  0  0  0  0
   -0.3692   -0.6383    3.2068 C   0  0  0  0  0  0  0  0  0  0  0  0
   -1.1270    0.4869    2.5146 C   0  0  0  0  0  0  0  0  0  0  0  0
   -2.6070    0.4867    2.3886 C   0  0  0  0  0  0  0  0  0  0  0  0
   -2.9740    0.6013    1.1095 C   0  0  0  0  0  0  0  0  0  0  0  0
   -1.7780    0.6973    0.1885 C   0  0  0  0  0  0  0  0  0  0  0  0
   -0.6352    1.0452    1.1616 C   0  0  0  0  0  0  0  0  0  0  0  0
    0.6099    0.5584    0.7131 O   0  0  0  0  0  0  0  0  0  0  0  0
    1.5022    1.2213    4.1510 H   0  0  0  0  0  0  0  0  0  0  0  0
   -0.8619    0.9765    4.6839 H   0  0  0  0  0  0  0  0  0  0  0  0
    0.5162   -0.9936    2.6899 H   0  0  0  0  0  0  0  0  0  0  0  0
   -0.9364   -1.3928    3.7415 H   0  0  0  0  0  0  0  0  0  0  0  0
   -3.2757    0.3677    3.2342 H   0  0  0  0  0  0  0  0  0  0  0  0
   -3.9964    0.5926    0.7497 H   0  0  0  0  0  0  0  0  0  0  0  0
   -1.5702   -0.2654   -0.2990 H   0  0  0  0  0  0  0  0  0  0  0  0
   -1.8903    1.4419   -0.6057 H   0  0  0  0  0  0  0  0  0  0  0  0
   -0.5948    2.1398    1.2674 H   0  0  0  0  0  0  0  0  0  0  0  0
    1.2634    0.9220    1.3231 H   0  0  0  0  0  0  0  0  0  0  0  0
  1  2  1  0
  2  3  1  0
  3  4  1  0
  4  5  1  0
  5  6  2  0
  6  7  1  0
  7  8  1  0
  8  9  1  0
  4  2  1  0
  8  4  1  0
  1 10  1  0
  2 11  1  0
  3 12  1  0
  3 13  1  0
  5 14  1  0
  6 15  1  0
  7 16  1  0
  7 17  1  0
  8 18  1  0
  9 19  1  0
M  END
$$$$
