
     RDKit          3D

 19 20  0  0  0  0  0  0  0  0999 V2000
    1.4102   -0.1234   -0.3205 C   0  0  0  0  0  0  0  0  0  0  0  0
    0.0303   -0.0993    0.0009 O   0  0  0  0  0  0  0  0  0  0  0  0
   -0.3616    0.6412    1.1563 C   0  0  0  0  0  0  0  0  0  0  0  0
    0.0476   -0.0292    2.4936 C   0  0  0  0  0  0  0  0  0  0  0  0
    1.2270    0.5728    3.2250 C   0  0  0  0  0  0  0  0  0  0  0  0
    2.4262    0.8199    2.4987 O   0  0  0  0  0  0  0  0  0  0  0  0
    1.6313    1.9558    2.9256 C   0  0  0  0  0  0  0  0  0  0  0  0
    0.9071    2.6958    1.8630 C   0  0  0  0  0  0  0  0  0  0  0  0
    0.0204    2.1002    1.0644 C   0  0  0  0  0  0  0  0  0  0  0  0
    2.0186   -0.5821    0.4671 H   0  0  0  0  0  0  0  0  0  0  0  0
    1.4919   -0.7178   -1.2342 H   0  0  0  0  0  0  0  0  0  0  0  0
    1.8102    0.8810   -0.5083 H   0  0  0  0  0  0  0  0  0  0  0  0
   -1.4551    0.5854    1.0945 H   0  0  0  0  0  0  0  0  0  0  0  0
   -0.8057    0.0260    3.1813 H   0  0  0  0  0  0  0  0  0  0  0  0
    0.2193   -1.0943    2.3021 H   0  0  0  0  0  0  0  0  0  0  0  0
    1.3919    0.1886    4.2331 H   0  0  0  0  0  0  0  0  0  0  0  0
    2.1132    2.5496    3.6994 H   0  0  0  0  0  0  0  0  0  0  0  0
    1.1266    3.7542    1.7536 H   0  0  0  0  0  0  0  0  0  0  0  0
   -0.4716    2.6664    0.2778 H   0  0  0  0  0  0  0  0  0  0  0  0
  1  2  1  0
  2  3  1  0
  3  4  1  0
  4  5  1  0
  5  6  1  0
  6  7  1  0
  7  8  1  0
  8  9  2  0
  9  3  1  0
  7  5  1  0
  1 10  1  0
  1 11  1  0
  1 12  1  0
  3 13  1  0
  4 14  1  0
  4 15  1  0
  5 16  1  0
  7 17  1  0
  8 18  1  0
  9 19  1  0
M  END
$$$$
