gdb 99	4.1922718	0.9760545	0.8867899	3.0936	75.46	-0.22994	0.07647	0.30641	1331.3736	0.156303	-422.48212	-422.473754	-422.47281	-422.516095	30.968
 OpenBabel02181911403D

 19 21  0  0  1  0  0  0  0  0999 V2000
   -0.8356   -0.3100   -1.2403 C   0  0  0  0  0  0  0  0  0  0  0  0
   -0.1251    0.1011    0.0312 C   0  0  2  0  0  0  0  0  0  0  0  0
    0.8251    1.2177    0.0751 C   0  0  0  0  0  0  0  0  0  0  0  0
    1.2871   -0.1351    0.0600 O   0  0  0  0  0  0  0  0  0  0  0  0
   -0.9525   -1.8048   -1.3522 C   0  0  1  0  0  0  0  0  0  0  0  0
   -2.0863   -2.6321   -0.7671 C   0  0  0  0  0  0  0  0  0  0  0  0
   -1.7734   -2.7211   -2.2299 C   0  0  2  0  0  0  0  0  0  0  0  0
   -0.6858   -3.6169   -2.4607 O   0  0  0  0  0  0  0  0  0  0  0  0
    0.1982   -2.7525   -1.6917 C   0  0  0  0  0  0  0  0  0  0  0  0
   -1.8334    0.1467   -1.2577 H   0  0  0  0  0  0  0  0  0  0  0  0
   -0.2807    0.0906   -2.0979 H   0  0  0  0  0  0  0  0  0  0  0  0
   -0.6325   -0.1734    0.9577 H   0  0  0  0  0  0  0  0  0  0  0  0
    1.0226    1.7888   -0.8316 H   0  0  0  0  0  0  0  0  0  0  0  0
    0.9889    1.7574    1.0067 H   0  0  0  0  0  0  0  0  0  0  0  0
   -1.8876   -3.4878   -0.1270 H   0  0  0  0  0  0  0  0  0  0  0  0
   -2.9753   -2.0612   -0.5131 H   0  0  0  0  0  0  0  0  0  0  0  0
   -2.4708   -2.5431   -3.0412 H   0  0  0  0  0  0  0  0  0  0  0  0
    0.6902   -3.2794   -0.8667 H   0  0  0  0  0  0  0  0  0  0  0  0
    0.9533   -2.2988   -2.3431 H   0  0  0  0  0  0  0  0  0  0  0  0
  1  2  1  0  0  0  0
  2  4  1  0  0  0  0
  2  3  1  0  0  0  0
  2 12  1  1  0  0  0
  3 14  1  0  0  0  0
  4  3  1  0  0  0  0
  5  1  1  6  0  0  0
  5  6  1  0  0  0  0
  6 16  1  0  0  0  0
  6 15  1  0  0  0  0
  7 17  1  6  0  0  0
  7  5  1  0  0  0  0
  7  6  1  0  0  0  0
  8  7  1  0  0  0  0
  8  9  1  0  0  0  0
  9  5  1  0  0  0  0
  9 18  1  0  0  0  0
 10  1  1  0  0  0  0
 11  1  1  0  0  0  0
 13  3  1  0  0  0  0
 19  9  1  0  0  0  0
M TOR 0 0 1 2 3
M TOR 1 0 1 2 12
M TOR 2 0 1 2 13
M TOR 3 0 4 5 6
M TOR 4 0 4 5 14
M TOR 5 0 4 5 15
M TOR 6 0 4 6 7
M TOR 7 0 4 6 16
M TOR 8 0 4 8 7
M TOR 9 0 4 8 17
M TOR 10 0 4 8 18
M TOR 11 1 0 4 5
M TOR 12 1 0 4 6
M TOR 13 1 0 4 8
M TOR 14 1 3 2 12
M TOR 15 1 3 2 13
M TOR 16 2 1 0 4
M TOR 17 2 1 0 9
M TOR 18 2 1 0 10
M TOR 19 2 3 1 11
M TOR 20 3 1 0 4
M TOR 21 3 1 0 9
M TOR 22 3 1 0 10
M TOR 23 4 0 1 11
M TOR 24 4 5 6 7
M TOR 25 4 5 6 16
M TOR 26 4 6 5 14
M TOR 27 4 6 5 15
M TOR 28 4 6 7 8
M TOR 29 5 4 0 9
M TOR 30 5 4 0 10
M TOR 31 5 4 8 7
M TOR 32 5 4 8 17
M TOR 33 5 4 8 18
M TOR 34 5 6 4 8
M TOR 35 5 6 7 8
M TOR 36 6 4 0 9
M TOR 37 6 4 0 10
M TOR 38 6 4 8 17
M TOR 39 6 4 8 18
M TOR 40 6 7 8 17
M TOR 41 6 7 8 18
M TOR 42 7 6 5 14
M TOR 43 7 6 5 15
M TOR 44 8 4 0 9
M TOR 45 8 4 0 10
M TOR 46 8 4 5 14
M TOR 47 8 4 5 15
M TOR 48 8 4 6 16
M TOR 49 8 7 6 16
M  END
$$$$
