gdb 3009	2.6304746	1.7542508	1.462315	1.744	73.61	-0.25161	0.08475	0.33636	978.5961	0.157691	-422.518157	-422.510567	-422.509623	-422.549508	31.236
 OpenBabel02181911413D

 19 21  0  0  1  0  0  0  0  0999 V2000
    2.2158   -1.8992   -1.4701 C   0  0  0  0  0  0  0  0  0  0  0  0
    0.7800   -1.4847   -1.3361 C   0  0  2  0  0  0  0  0  0  0  0  0
    0.1028   -1.9772   -0.0939 O   0  0  0  0  0  0  0  0  0  0  0  0
   -0.8751   -0.9142   -0.4204 C   0  0  2  0  0  0  0  0  0  0  0  0
   -1.5162   -1.4504   -1.7053 C   0  0  1  0  0  0  0  0  0  0  0  0
   -1.1340   -0.8461   -3.0350 C   0  0  0  0  0  0  0  0  0  0  0  0
   -0.2437   -1.8923   -2.4093 C   0  0  1  0  0  0  0  0  0  0  0  0
    0.3433   -0.0629   -0.8536 C   0  0  1  0  0  0  0  0  0  0  0  0
    1.1081    0.4264    0.2125 O   0  0  0  0  0  0  0  0  0  0  0  0
    2.8175   -1.4736   -0.6630 H   0  0  0  0  0  0  0  0  0  0  0  0
    2.3057   -2.9898   -1.4397 H   0  0  0  0  0  0  0  0  0  0  0  0
    2.6216   -1.5486   -2.4244 H   0  0  0  0  0  0  0  0  0  0  0  0
   -1.5110   -0.6363    0.4200 H   0  0  0  0  0  0  0  0  0  0  0  0
   -2.3889   -2.0874   -1.6281 H   0  0  0  0  0  0  0  0  0  0  0  0
   -1.7221   -1.1873   -3.8819 H   0  0  0  0  0  0  0  0  0  0  0  0
   -0.8255    0.1877   -3.1262 H   0  0  0  0  0  0  0  0  0  0  0  0
   -0.1418   -2.8668   -2.8730 H   0  0  0  0  0  0  0  0  0  0  0  0
    0.2349    0.7575   -1.5616 H   0  0  0  0  0  0  0  0  0  0  0  0
    1.1643   -0.3061    0.8422 H   0  0  0  0  0  0  0  0  0  0  0  0
  1 11  1  0  0  0  0
  1 10  1  0  0  0  0
  2  1  1  6  0  0  0
  2  8  1  0  0  0  0
  2  3  1  0  0  0  0
  4  3  1  0  0  0  0
  4 13  1  1  0  0  0
  5 14  1  1  0  0  0
  5  4  1  0  0  0  0
  6  7  1  0  0  0  0
  6  5  1  0  0  0  0
  7 17  1  6  0  0  0
  7  5  1  0  0  0  0
  7  2  1  0  0  0  0
  8 18  1  6  0  0  0
  8  4  1  0  0  0  0
  8  9  1  0  0  0  0
  9 19  1  0  0  0  0
 12  1  1  0  0  0  0
 15  6  1  0  0  0  0
 16  6  1  0  0  0  0
M TOR 0 0 1 2 3
M TOR 1 0 1 6 4
M TOR 2 0 1 6 5
M TOR 3 0 1 6 16
M TOR 4 0 1 7 3
M TOR 5 0 1 7 8
M TOR 6 0 1 7 17
M TOR 7 1 2 3 4
M TOR 8 1 2 3 7
M TOR 9 1 2 3 12
M TOR 10 1 6 4 3
M TOR 11 1 6 4 5
M TOR 12 1 6 4 13
M TOR 13 1 6 5 14
M TOR 14 1 6 5 15
M TOR 15 1 7 3 4
M TOR 16 1 7 3 12
M TOR 17 1 7 8 18
M TOR 18 2 1 0 9
M TOR 19 2 1 0 10
M TOR 20 2 1 0 11
M TOR 21 2 1 6 4
M TOR 22 2 1 6 5
M TOR 23 2 1 6 16
M TOR 24 2 1 7 8
M TOR 25 2 1 7 17
M TOR 26 2 3 4 5
M TOR 27 2 3 4 6
M TOR 28 2 3 4 13
M TOR 29 2 3 7 8
M TOR 30 2 3 7 17
M TOR 31 3 2 1 6
M TOR 32 3 4 5 6
M TOR 33 3 4 5 14
M TOR 34 3 4 5 15
M TOR 35 3 4 6 16
M TOR 36 3 7 1 6
M TOR 37 3 7 8 18
M TOR 38 4 3 7 8
M TOR 39 4 3 7 17
M TOR 40 4 5 6 16
M TOR 41 4 6 1 7
M TOR 42 4 6 5 14
M TOR 43 4 6 5 15
M TOR 44 5 4 3 7
M TOR 45 5 4 3 12
M TOR 46 5 6 1 7
M TOR 47 5 6 4 13
M TOR 48 6 1 0 9
M TOR 49 6 1 0 10
M TOR 50 6 1 0 11
M TOR 51 6 1 7 8
M TOR 52 6 1 7 17
M TOR 53 6 4 3 7
M TOR 54 6 4 3 12
M TOR 55 7 1 0 9
M TOR 56 7 1 0 10
M TOR 57 7 1 0 11
M TOR 58 7 1 6 16
M TOR 59 7 3 4 13
M TOR 60 8 7 3 12
M  END
$$$$
