gdb 686	2.9571261	1.3408193	1.2018017	3.2981	76.08	-0.22613	-0.023	0.20313	1118.9275	0.157227	-422.570363	-422.562043	-422.561099	-422.604109	30.919
 OpenBabel02181911403D

 19 20  0  0  1  0  0  0  0  0999 V2000
    1.1900    0.0314   -0.4111 O   0  0  0  0  0  0  0  0  0  0  0  0
    0.0250   -0.0360   -0.1519 C   0  0  0  0  0  0  0  0  0  0  0  0
   -0.9554   -1.1874    0.1418 C   0  0  0  0  0  0  0  0  0  0  0  0
   -2.1185   -0.1902   -0.1326 C   0  0  0  0  0  0  0  0  0  0  0  0
   -1.1212    1.0137   -0.0978 C   0  0  1  0  0  0  0  0  0  0  0  0
   -1.1062    1.8844    1.1807 C   0  0  0  0  0  0  0  0  0  0  0  0
   -1.7289    3.2014    0.6908 C   0  0  0  0  0  0  0  0  0  0  0  0
   -1.2077    3.2564   -0.7445 C   0  0  0  0  0  0  0  0  0  0  0  0
   -1.2094    1.9000   -1.1925 O   0  0  0  0  0  0  0  0  0  0  0  0
   -0.8691   -2.0599   -0.5095 H   0  0  0  0  0  0  0  0  0  0  0  0
   -0.8869   -1.5228    1.1818 H   0  0  0  0  0  0  0  0  0  0  0  0
   -2.5347   -0.3050   -1.1352 H   0  0  0  0  0  0  0  0  0  0  0  0
   -2.9298   -0.1652    0.5972 H   0  0  0  0  0  0  0  0  0  0  0  0
   -1.6452    1.4229    2.0108 H   0  0  0  0  0  0  0  0  0  0  0  0
   -0.0721    2.0542    1.4994 H   0  0  0  0  0  0  0  0  0  0  0  0
   -2.8219    3.1385    0.6956 H   0  0  0  0  0  0  0  0  0  0  0  0
   -1.4310    4.0653    1.2896 H   0  0  0  0  0  0  0  0  0  0  0  0
   -1.8372    3.8363   -1.4255 H   0  0  0  0  0  0  0  0  0  0  0  0
   -0.1877    3.6663   -0.7810 H   0  0  0  0  0  0  0  0  0  0  0  0
  1  2  2  0  0  0  0
  2  5  1  0  0  0  0
  2  3  1  0  0  0  0
  3 11  1  0  0  0  0
  4  5  1  0  0  0  0
  4  3  1  0  0  0  0
  4 13  1  0  0  0  0
  5  9  1  6  0  0  0
  5  6  1  0  0  0  0
  6 15  1  0  0  0  0
  6 14  1  0  0  0  0
  7 16  1  0  0  0  0
  7  6  1  0  0  0  0
  7 17  1  0  0  0  0
  8  7  1  0  0  0  0
  9  8  1  0  0  0  0
 10  3  1  0  0  0  0
 12  4  1  0  0  0  0
 18  8  1  0  0  0  0
 19  8  1  0  0  0  0
M TOR 0 0 1 2 3
M TOR 1 0 1 2 9
M TOR 2 0 1 2 10
M TOR 3 0 1 4 3
M TOR 4 0 1 4 5
M TOR 5 0 1 4 8
M TOR 6 1 2 3 4
M TOR 7 1 2 3 11
M TOR 8 1 2 3 12
M TOR 9 1 4 3 11
M TOR 10 1 4 3 12
M TOR 11 1 4 5 6
M TOR 12 1 4 5 13
M TOR 13 1 4 5 14
M TOR 14 1 4 8 7
M TOR 15 2 1 4 5
M TOR 16 2 1 4 8
M TOR 17 2 3 4 5
M TOR 18 2 3 4 8
M TOR 19 3 4 5 6
M TOR 20 3 4 5 13
M TOR 21 3 4 5 14
M TOR 22 3 4 8 7
M TOR 23 4 1 2 9
M TOR 24 4 1 2 10
M TOR 25 4 3 2 9
M TOR 26 4 3 2 10
M TOR 27 4 5 6 7
M TOR 28 4 5 6 15
M TOR 29 4 5 6 16
M TOR 30 4 8 7 6
M TOR 31 4 8 7 17
M TOR 32 4 8 7 18
M TOR 33 5 4 3 11
M TOR 34 5 4 3 12
M TOR 35 5 4 8 7
M TOR 36 5 6 7 8
M TOR 37 5 6 7 17
M TOR 38 5 6 7 18
M TOR 39 6 5 4 8
M TOR 40 7 6 5 13
M TOR 41 7 6 5 14
M TOR 42 8 4 3 11
M TOR 43 8 4 3 12
M TOR 44 8 4 5 13
M TOR 45 8 4 5 14
M TOR 46 8 7 6 15
M TOR 47 8 7 6 16
M  END
$$$$
