
     RDKit          3D

 19 18  0  0  0  0  0  0  0  0999 V2000
   -4.5034   -0.7898    1.2361 C   0  0  0  0  0  0  0  0  0  0  0  0
   -3.1062   -0.6341    1.0906 O   0  0  0  0  0  0  0  0  0  0  0  0
   -2.6392    0.0743   -0.0637 C   0  0  0  0  0  0  0  0  0  0  0  0
   -3.1263    1.5395   -0.0735 C   0  0  0  0  0  0  0  0  0  0  0  0
   -3.0248   -0.6453   -1.3742 C   0  0  0  0  0  0  0  0  0  0  0  0
   -1.1762    0.0677    0.0618 C   0  0  0  0  0  0  0  0  0  0  0  0
    0.0298    0.0913    0.1166 C   0  0  0  0  0  0  0  0  0  0  0  0
    1.4646    0.0900    0.2307 C   0  0  0  0  0  0  0  0  0  0  0  0
    2.2179    0.5992   -0.5677 O   0  0  0  0  0  0  0  0  0  0  0  0
   -4.6464   -1.3451    2.1660 H   0  0  0  0  0  0  0  0  0  0  0  0
   -5.0316    0.1691    1.3226 H   0  0  0  0  0  0  0  0  0  0  0  0
   -4.9546   -1.3664    0.4175 H   0  0  0  0  0  0  0  0  0  0  0  0
   -2.8938    2.0190    0.8800 H   0  0  0  0  0  0  0  0  0  0  0  0
   -2.6340    2.0950   -0.8752 H   0  0  0  0  0  0  0  0  0  0  0  0
   -4.2055    1.5856   -0.2423 H   0  0  0  0  0  0  0  0  0  0  0  0
   -2.7214   -1.6938   -1.3304 H   0  0  0  0  0  0  0  0  0  0  0  0
   -4.1042   -0.5928   -1.5394 H   0  0  0  0  0  0  0  0  0  0  0  0
   -2.5284   -0.1715   -2.2243 H   0  0  0  0  0  0  0  0  0  0  0  0
    1.8435   -0.4294    1.1345 H   0  0  0  0  0  0  0  0  0  0  0  0
  1  2  1  0
  2  3  1  0
  3  4  1  0
  3  5  1  0
  3  6  1  0
  6  7  3  0
  7  8  1  0
  8  9  2  0
  1 10  1  0
  1 11  1  0
  1 12  1  0
  4 13  1  0
  4 14  1  0
  4 15  1  0
  5 16  1  0
  5 17  1  0
  5 18  1  0
  8 19  1  0
M  END
$$$$
