
     RDKit          3D

 19 19  0  0  0  0  0  0  0  0999 V2000
    0.5141   -1.0631    0.1870 O   0  0  0  0  0  0  0  0  0  0  0  0
    0.4547    0.1341    0.0838 C   0  0  0  0  0  0  0  0  0  0  0  0
   -0.1594    0.8767   -1.0809 C   0  0  0  0  0  0  0  0  0  0  0  0
   -1.2500    1.8691   -0.6103 C   0  0  0  0  0  0  0  0  0  0  0  0
   -1.8144    2.6962   -1.7241 C   0  0  0  0  0  0  0  0  0  0  0  0
   -3.0475    2.6810   -2.2239 C   0  0  0  0  0  0  0  0  0  0  0  0
   -3.1772    3.6905   -3.3262 C   0  0  0  0  0  0  0  0  0  0  0  0
   -1.8892    4.2940   -3.4325 O   0  0  0  0  0  0  0  0  0  0  0  0
   -1.0092    3.7390   -2.4642 C   0  0  0  0  0  0  0  0  0  0  0  0
    0.8645    0.7986    0.8821 H   0  0  0  0  0  0  0  0  0  0  0  0
    0.6482    1.4325   -1.5776 H   0  0  0  0  0  0  0  0  0  0  0  0
   -0.5620    0.1523   -1.7934 H   0  0  0  0  0  0  0  0  0  0  0  0
   -2.0570    1.3115   -0.1236 H   0  0  0  0  0  0  0  0  0  0  0  0
   -0.8165    2.5293    0.1548 H   0  0  0  0  0  0  0  0  0  0  0  0
   -3.8656    2.0500   -1.8981 H   0  0  0  0  0  0  0  0  0  0  0  0
   -3.4541    3.2341   -4.2898 H   0  0  0  0  0  0  0  0  0  0  0  0
   -3.9350    4.4596   -3.1056 H   0  0  0  0  0  0  0  0  0  0  0  0
   -0.1246    3.3170   -2.9680 H   0  0  0  0  0  0  0  0  0  0  0  0
   -0.6429    4.5286   -1.7860 H   0  0  0  0  0  0  0  0  0  0  0  0
  1  2  2  0
  2  3  1  0
  3  4  1  0
  4  5  1  0
  5  6  2  0
  6  7  1  0
  7  8  1  0
  8  9  1  0
  9  5  1  0
  2 10  1  0
  3 11  1  0
  3 12  1  0
  4 13  1  0
  4 14  1  0
  6 15  1  0
  7 16  1  0
  7 17  1  0
  9 18  1  0
  9 19  1  0
M  END
$$$$
