
     RDKit          3D

 19 21  0  0  0  0  0  0  0  0999 V2000
    1.1258   -0.2293    1.0432 C   0  0  0  0  0  0  0  0  0  0  0  0
    0.8771    0.2171   -0.4036 C   0  0  0  0  0  0  0  0  0  0  0  0
    1.8109   -0.4382   -1.3868 C   0  0  0  0  0  0  0  0  0  0  0  0
    1.5856   -1.8337   -1.6736 O   0  0  0  0  0  0  0  0  0  0  0  0
    1.4518   -0.8828   -2.7427 C   0  0  0  0  0  0  0  0  0  0  0  0
    2.6513   -0.8430   -3.6808 C   0  0  0  0  0  0  0  0  0  0  0  0
    3.7765   -0.3415   -2.7841 C   0  0  0  0  0  0  0  0  0  0  0  0
    3.5749    0.9933   -2.2949 O   0  0  0  0  0  0  0  0  0  0  0  0
    3.2855   -0.1096   -1.4214 C   0  0  0  0  0  0  0  0  0  0  0  0
    1.0199   -1.3144    1.1349 H   0  0  0  0  0  0  0  0  0  0  0  0
    2.1311    0.0420    1.3821 H   0  0  0  0  0  0  0  0  0  0  0  0
    0.4104    0.2417    1.7232 H   0  0  0  0  0  0  0  0  0  0  0  0
   -0.1528   -0.0207   -0.6907 H   0  0  0  0  0  0  0  0  0  0  0  0
    0.9933    1.3044   -0.4916 H   0  0  0  0  0  0  0  0  0  0  0  0
    0.4431   -0.7667   -3.1310 H   0  0  0  0  0  0  0  0  0  0  0  0
    2.8730   -1.8379   -4.0810 H   0  0  0  0  0  0  0  0  0  0  0  0
    2.4817   -0.1643   -4.5232 H   0  0  0  0  0  0  0  0  0  0  0  0
    4.8101   -0.6056   -2.9895 H   0  0  0  0  0  0  0  0  0  0  0  0
    3.9115   -0.1925   -0.5369 H   0  0  0  0  0  0  0  0  0  0  0  0
  1  2  1  0
  2  3  1  0
  3  4  1  0
  4  5  1  0
  5  6  1  0
  6  7  1  0
  7  8  1  0
  8  9  1  0
  5  3  1  0
  9  7  1  0
  9  3  1  0
  1 10  1  0
  1 11  1  0
  1 12  1  0
  2 13  1  0
  2 14  1  0
  5 15  1  0
  6 16  1  0
  6 17  1  0
  7 18  1  0
  9 19  1  0
M  END
$$$$
