gdb 775	2.0529214	1.8371059	1.1781841	3.7327	78.1	-0.2348	-0.01968	0.21512	1096.1152	0.157651	-422.566053	-422.557644	-422.556699	-422.59945	31.404
 OpenBabel02181911403D

 19 19  0  0  0  0  0  0  0  0999 V2000
   -0.3063    2.6981   -0.5156 O   0  0  0  0  0  0  0  0  0  0  0  0
   -0.6078    1.5337   -0.6511 C   0  0  0  0  0  0  0  0  0  0  0  0
   -1.8149    0.9380    0.0766 C   0  0  0  0  0  0  0  0  0  0  0  0
   -1.4752    0.3685    1.4660 C   0  0  0  0  0  0  0  0  0  0  0  0
   -0.4469   -0.7525    1.4113 C   0  0  0  0  0  0  0  0  0  0  0  0
    0.8011   -0.2200    0.9827 O   0  0  0  0  0  0  0  0  0  0  0  0
    1.4073   -0.8502   -0.1197 C   0  0  0  0  0  0  0  0  0  0  0  0
    0.9450   -0.3337   -1.4538 C   0  0  0  0  0  0  0  0  0  0  0  0
    0.1049    0.6766   -1.6661 C   0  0  0  0  0  0  0  0  0  0  0  0
   -2.5410    1.7485    0.1902 H   0  0  0  0  0  0  0  0  0  0  0  0
   -2.2653    0.1513   -0.5402 H   0  0  0  0  0  0  0  0  0  0  0  0
   -1.0850    1.1713    2.1011 H   0  0  0  0  0  0  0  0  0  0  0  0
   -2.3915   -0.0047    1.9381 H   0  0  0  0  0  0  0  0  0  0  0  0
   -0.3129   -1.1976    2.4069 H   0  0  0  0  0  0  0  0  0  0  0  0
   -0.7822   -1.5491    0.7323 H   0  0  0  0  0  0  0  0  0  0  0  0
    2.4873   -0.6699   -0.0277 H   0  0  0  0  0  0  0  0  0  0  0  0
    1.2754   -1.9444   -0.0752 H   0  0  0  0  0  0  0  0  0  0  0  0
    1.4055   -0.8248   -2.3103 H   0  0  0  0  0  0  0  0  0  0  0  0
   -0.0833    0.9929   -2.6906 H   0  0  0  0  0  0  0  0  0  0  0  0
  2  1  2  0  0  0  0
  2  3  1  0  0  0  0
  3 10  1  0  0  0  0
  3  4  1  0  0  0  0
  4 13  1  0  0  0  0
  4 12  1  0  0  0  0
  5  4  1  0  0  0  0
  5 14  1  0  0  0  0
  6  5  1  0  0  0  0
  7 17  1  0  0  0  0
  7 16  1  0  0  0  0
  7  6  1  0  0  0  0
  8  7  1  0  0  0  0
  9  8  2  0  0  0  0
  9  2  1  0  0  0  0
 11  3  1  0  0  0  0
 15  5  1  0  0  0  0
 18  8  1  0  0  0  0
 19  9  1  0  0  0  0
M TOR 0 0 1 2 3
M TOR 1 0 1 2 9
M TOR 2 0 1 2 10
M TOR 3 0 1 8 7
M TOR 4 0 1 8 18
M TOR 5 1 2 3 4
M TOR 6 1 2 3 11
M TOR 7 1 2 3 12
M TOR 8 1 8 7 6
M TOR 9 1 8 7 17
M TOR 10 2 1 8 7
M TOR 11 2 1 8 18
M TOR 12 2 3 4 5
M TOR 13 2 3 4 13
M TOR 14 2 3 4 14
M TOR 15 3 2 1 8
M TOR 16 3 4 5 6
M TOR 17 4 3 2 9
M TOR 18 4 3 2 10
M TOR 19 4 5 6 7
M TOR 20 4 5 6 15
M TOR 21 4 5 6 16
M TOR 22 5 4 3 11
M TOR 23 5 4 3 12
M TOR 24 5 6 7 8
M TOR 25 5 6 7 17
M TOR 26 6 5 4 13
M TOR 27 6 5 4 14
M TOR 28 6 7 8 18
M TOR 29 8 1 2 9
M TOR 30 8 1 2 10
M TOR 31 8 7 6 15
M TOR 32 8 7 6 16
M  END
$$$$
