
     RDKit          3D

 19 20  0  0  0  0  0  0  0  0999 V2000
    0.2337   -1.0936    0.2947 O   0  0  0  0  0  0  0  0  0  0  0  0
    0.3681    0.0746    0.0311 C   0  0  0  0  0  0  0  0  0  0  0  0
   -0.2128    0.7476   -1.1951 C   0  0  0  0  0  0  0  0  0  0  0  0
   -1.0391    1.9823   -0.8316 C   0  0  0  0  0  0  0  0  0  0  0  0
   -0.2261    2.9865   -0.1677 O   0  0  0  0  0  0  0  0  0  0  0  0
   -0.4152    3.9262   -1.2479 C   0  0  0  0  0  0  0  0  0  0  0  0
   -1.5856    4.9041   -0.9995 C   0  0  0  0  0  0  0  0  0  0  0  0
   -2.5576    3.9060   -1.7071 C   0  0  0  0  0  0  0  0  0  0  0  0
   -1.3704    2.9446   -1.9880 C   0  0  0  0  0  0  0  0  0  0  0  0
    0.9434    0.7552    0.6944 H   0  0  0  0  0  0  0  0  0  0  0  0
    0.6222    1.0660   -1.8349 H   0  0  0  0  0  0  0  0  0  0  0  0
   -0.8208    0.0220   -1.7448 H   0  0  0  0  0  0  0  0  0  0  0  0
   -1.8964    1.6923   -0.2085 H   0  0  0  0  0  0  0  0  0  0  0  0
    0.5331    4.3174   -1.6251 H   0  0  0  0  0  0  0  0  0  0  0  0
   -1.7714    5.1058    0.0574 H   0  0  0  0  0  0  0  0  0  0  0  0
   -1.4792    5.8543   -1.5296 H   0  0  0  0  0  0  0  0  0  0  0  0
   -3.3540    3.4858   -1.0867 H   0  0  0  0  0  0  0  0  0  0  0  0
   -3.0107    4.3112   -2.6141 H   0  0  0  0  0  0  0  0  0  0  0  0
   -1.2272    2.5740   -3.0027 H   0  0  0  0  0  0  0  0  0  0  0  0
  1  2  2  0
  2  3  1  0
  3  4  1  0
  4  5  1  0
  5  6  1  0
  6  7  1  0
  7  8  1  0
  8  9  1  0
  9  4  1  0
  9  6  1  0
  2 10  1  0
  3 11  1  0
  3 12  1  0
  4 13  1  0
  6 14  1  0
  7 15  1  0
  7 16  1  0
  8 17  1  0
  8 18  1  0
  9 19  1  0
M  END
$$$$
