
     RDKit          3D

 19 20  0  0  0  0  0  0  0  0999 V2000
   -3.0311   -1.1670    1.2421 C   0  0  0  0  0  0  0  0  0  0  0  0
   -2.4093   -0.8783   -0.1296 C   0  0  0  0  0  0  0  0  0  0  0  0
   -0.9381   -1.3355   -0.2069 C   0  0  0  0  0  0  0  0  0  0  0  0
   -0.1214   -0.1403    0.2991 C   0  0  0  0  0  0  0  0  0  0  0  0
    0.9624   -0.1844    0.8212 O   0  0  0  0  0  0  0  0  0  0  0  0
   -0.9277    1.1299    0.0325 C   0  0  0  0  0  0  0  0  0  0  0  0
   -0.8274    1.6069   -1.4376 C   0  0  0  0  0  0  0  0  0  0  0  0
   -2.0626    0.9486   -1.7787 O   0  0  0  0  0  0  0  0  0  0  0  0
   -2.3308    0.6352   -0.3897 C   0  0  0  0  0  0  0  0  0  0  0  0
   -3.0523   -2.2424    1.4417 H   0  0  0  0  0  0  0  0  0  0  0  0
   -2.4588   -0.6958    2.0507 H   0  0  0  0  0  0  0  0  0  0  0  0
   -4.0578   -0.7914    1.2988 H   0  0  0  0  0  0  0  0  0  0  0  0
   -3.0164   -1.3417   -0.9136 H   0  0  0  0  0  0  0  0  0  0  0  0
   -0.7073   -2.2377    0.3632 H   0  0  0  0  0  0  0  0  0  0  0  0
   -0.6433   -1.5178   -1.2479 H   0  0  0  0  0  0  0  0  0  0  0  0
   -0.7976    1.8808    0.8099 H   0  0  0  0  0  0  0  0  0  0  0  0
   -0.8976    2.6960   -1.5491 H   0  0  0  0  0  0  0  0  0  0  0  0
    0.0213    1.2402   -2.0265 H   0  0  0  0  0  0  0  0  0  0  0  0
   -3.2038    1.1832   -0.0174 H   0  0  0  0  0  0  0  0  0  0  0  0
  1  2  1  0
  2  3  1  0
  3  4  1  0
  4  5  2  0
  4  6  1  0
  6  7  1  0
  7  8  1  0
  8  9  1  0
  9  2  1  0
  9  6  1  0
  1 10  1  0
  1 11  1  0
  1 12  1  0
  2 13  1  0
  3 14  1  0
  3 15  1  0
  6 16  1  0
  7 17  1  0
  7 18  1  0
  9 19  1  0
M  END
$$$$
