gdb 34	2.3868836	1.3305139	0.9072643	1.4876	80.3	-0.19233	0.02357	0.2159	1322.7053	0.156212	-422.567034	-422.557618	-422.556673	-422.602242	33.419
 OpenBabel02181911403D

 19 19  0  0  0  0  0  0  0  0999 V2000
    1.8990   -1.0512   -0.7198 C   0  0  0  0  0  0  0  0  0  0  0  0
    0.8722   -0.1137   -0.0595 C   0  0  0  0  0  0  0  0  0  0  0  0
    1.3697    1.2717    0.1470 C   0  0  0  0  0  0  0  0  0  0  0  0
    1.6315    2.0118    1.2658 C   0  0  0  0  0  0  0  0  0  0  0  0
    1.4490    1.5458    2.5298 O   0  0  0  0  0  0  0  0  0  0  0  0
    1.7522    2.4476    3.5757 C   0  0  0  0  0  0  0  0  0  0  0  0
    2.1072    3.2946    0.8291 C   0  0  0  0  0  0  0  0  0  0  0  0
    2.1002    3.2360   -0.5290 C   0  0  0  0  0  0  0  0  0  0  0  0
    1.6613    2.0301   -0.9581 O   0  0  0  0  0  0  0  0  0  0  0  0
    2.7959   -1.1460   -0.1001 H   0  0  0  0  0  0  0  0  0  0  0  0
    1.4754   -2.0498   -0.8656 H   0  0  0  0  0  0  0  0  0  0  0  0
    2.2045   -0.6653   -1.6966 H   0  0  0  0  0  0  0  0  0  0  0  0
   -0.0411   -0.0930   -0.6695 H   0  0  0  0  0  0  0  0  0  0  0  0
    0.5844   -0.5023    0.9224 H   0  0  0  0  0  0  0  0  0  0  0  0
    1.5503    1.9190    4.5091 H   0  0  0  0  0  0  0  0  0  0  0  0
    2.8078    2.7502    3.5554 H   0  0  0  0  0  0  0  0  0  0  0  0
    1.1242    3.3474    3.5292 H   0  0  0  0  0  0  0  0  0  0  0  0
    2.4070    4.1347    1.4337 H   0  0  0  0  0  0  0  0  0  0  0  0
    2.3669    3.9428   -1.2973 H   0  0  0  0  0  0  0  0  0  0  0  0
  1 10  1  0  0  0  0
  1  2  1  0  0  0  0
  2  3  1  0  0  0  0
  2 14  1  0  0  0  0
  3  4  2  0  0  0  0
  4  5  1  0  0  0  0
  5  6  1  0  0  0  0
  6 15  1  0  0  0  0
  7  4  1  0  0  0  0
  7 18  1  0  0  0  0
  8  7  2  0  0  0  0
  9  8  1  0  0  0  0
  9  3  1  0  0  0  0
 11  1  1  0  0  0  0
 12  1  1  0  0  0  0
 13  2  1  0  0  0  0
 16  6  1  0  0  0  0
 17  6  1  0  0  0  0
 19  8  1  0  0  0  0
M TOR 0 0 1 2 3
M TOR 1 0 1 2 8
M TOR 2 1 2 3 4
M TOR 3 1 2 3 6
M TOR 4 1 2 8 7
M TOR 5 2 1 0 9
M TOR 6 2 1 0 10
M TOR 7 2 1 0 11
M TOR 8 2 3 4 5
M TOR 9 2 3 6 7
M TOR 10 2 3 6 17
M TOR 11 2 8 7 6
M TOR 12 2 8 7 18
M TOR 13 3 2 1 12
M TOR 14 3 2 1 13
M TOR 15 3 2 8 7
M TOR 16 3 4 5 14
M TOR 17 3 4 5 15
M TOR 18 3 4 5 16
M TOR 19 3 6 7 8
M TOR 20 3 6 7 18
M TOR 21 4 3 2 8
M TOR 22 4 3 6 7
M TOR 23 4 3 6 17
M TOR 24 5 4 3 6
M TOR 25 6 3 2 8
M TOR 26 8 2 1 12
M TOR 27 8 2 1 13
M TOR 28 8 7 6 17
M  END
$$$$
