gdb 2769	2.6700799	1.3185331	1.1389057	0.4102	77.04	-0.23927	0.00612	0.24539	1152.16	0.156133	-422.558655	-422.549713	-422.548769	-422.591635	34.269
 OpenBabel02181911413D

 19 20  0  0  1  0  0  0  0  0999 V2000
   -1.7404   -1.5441    1.9857 C   0  0  0  0  0  0  0  0  0  0  0  0
   -1.6172   -0.0458    1.8535 C   0  0  1  0  0  0  0  0  0  0  0  0
   -2.8157    0.8349    1.9836 C   0  0  0  0  0  0  0  0  0  0  0  0
   -2.5348    2.0076    2.5618 C   0  0  0  0  0  0  0  0  0  0  0  0
   -1.0910    2.0848    3.0157 C   0  0  1  0  0  0  0  0  0  0  0  0
   -0.9603    2.1991    4.4306 O   0  0  0  0  0  0  0  0  0  0  0  0
   -0.4895    0.7953    2.4537 C   0  0  2  0  0  0  0  0  0  0  0  0
   -0.5480    0.5693    0.9637 C   0  0  1  0  0  0  0  0  0  0  0  0
    0.3699   -0.3123    0.3884 O   0  0  0  0  0  0  0  0  0  0  0  0
   -2.0787   -1.8289    2.9879 H   0  0  0  0  0  0  0  0  0  0  0  0
   -2.4638   -1.9415    1.2642 H   0  0  0  0  0  0  0  0  0  0  0  0
   -0.7801   -2.0253    1.7904 H   0  0  0  0  0  0  0  0  0  0  0  0
   -3.7874    0.5400    1.6004 H   0  0  0  0  0  0  0  0  0  0  0  0
   -3.2303    2.8224    2.7259 H   0  0  0  0  0  0  0  0  0  0  0  0
   -0.5810    2.9730    2.6236 H   0  0  0  0  0  0  0  0  0  0  0  0
   -1.5149    1.5124    4.8182 H   0  0  0  0  0  0  0  0  0  0  0  0
    0.3255    0.3279    2.9960 H   0  0  0  0  0  0  0  0  0  0  0  0
   -0.8535    1.3980    0.3229 H   0  0  0  0  0  0  0  0  0  0  0  0
    1.2493    0.0698    0.4782 H   0  0  0  0  0  0  0  0  0  0  0  0
  1 10  1  0  0  0  0
  2  3  1  0  0  0  0
  2  1  1  1  0  0  0
  2  7  1  0  0  0  0
  3  4  2  0  0  0  0
  4 14  1  0  0  0  0
  4  5  1  0  0  0  0
  5 15  1  6  0  0  0
  5  6  1  0  0  0  0
  6 16  1  0  0  0  0
  7 17  1  1  0  0  0
  7  5  1  0  0  0  0
  8 18  1  6  0  0  0
  8  2  1  0  0  0  0
  8  7  1  0  0  0  0
  9 19  1  0  0  0  0
  9  8  1  0  0  0  0
 11  1  1  0  0  0  0
 12  1  1  0  0  0  0
 13  3  1  0  0  0  0
M TOR 0 0 1 2 3
M TOR 1 0 1 2 12
M TOR 2 0 1 6 4
M TOR 3 0 1 6 7
M TOR 4 0 1 6 16
M TOR 5 0 1 7 8
M TOR 6 0 1 7 17
M TOR 7 1 2 3 4
M TOR 8 1 2 3 13
M TOR 9 1 6 4 3
M TOR 10 1 6 4 5
M TOR 11 1 6 4 14
M TOR 12 1 6 7 8
M TOR 13 1 6 7 17
M TOR 14 1 7 6 4
M TOR 15 1 7 6 16
M TOR 16 1 7 8 18
M TOR 17 2 1 0 9
M TOR 18 2 1 0 10
M TOR 19 2 1 0 11
M TOR 20 2 1 6 4
M TOR 21 2 1 6 7
M TOR 22 2 1 6 16
M TOR 23 2 1 7 8
M TOR 24 2 1 7 17
M TOR 25 2 3 4 5
M TOR 26 2 3 4 6
M TOR 27 2 3 4 14
M TOR 28 3 2 1 6
M TOR 29 3 2 1 7
M TOR 30 3 4 5 15
M TOR 31 3 4 6 7
M TOR 32 3 4 6 16
M TOR 33 4 3 2 12
M TOR 34 4 6 7 8
M TOR 35 4 6 7 17
M TOR 36 5 4 3 13
M TOR 37 5 4 6 7
M TOR 38 5 4 6 16
M TOR 39 6 1 0 9
M TOR 40 6 1 0 10
M TOR 41 6 1 0 11
M TOR 42 6 1 2 12
M TOR 43 6 4 3 13
M TOR 44 6 4 5 15
M TOR 45 6 7 8 18
M TOR 46 7 1 0 9
M TOR 47 7 1 0 10
M TOR 48 7 1 0 11
M TOR 49 7 1 2 12
M TOR 50 7 6 4 14
M TOR 51 8 7 6 16
M  END
$$$$
