
     RDKit          3D

 19 20  0  0  0  0  0  0  0  0999 V2000
    1.1908   -0.0125    0.4276 O   0  0  0  0  0  0  0  0  0  0  0  0
    0.0417   -0.0529    0.0994 C   0  0  0  0  0  0  0  0  0  0  0  0
   -0.7615   -1.2395   -0.4238 C   0  0  0  0  0  0  0  0  0  0  0  0
   -2.2249   -0.7985   -0.2604 C   0  0  0  0  0  0  0  0  0  0  0  0
   -2.0773    0.7351   -0.3621 C   0  0  0  0  0  0  0  0  0  0  0  0
   -0.7688    1.0426    0.1465 O   0  0  0  0  0  0  0  0  0  0  0  0
   -2.8146   -1.2266    1.0690 C   0  0  0  0  0  0  0  0  0  0  0  0
   -4.3083   -1.3269    1.2435 C   0  0  0  0  0  0  0  0  0  0  0  0
   -3.4635   -2.5785    1.2147 C   0  0  0  0  0  0  0  0  0  0  0  0
   -0.4910   -1.3892   -1.4753 H   0  0  0  0  0  0  0  0  0  0  0  0
   -0.4994   -2.1485    0.1193 H   0  0  0  0  0  0  0  0  0  0  0  0
   -2.8580   -1.1742   -1.0700 H   0  0  0  0  0  0  0  0  0  0  0  0
   -2.1418    1.0882   -1.3983 H   0  0  0  0  0  0  0  0  0  0  0  0
   -2.8074    1.2771    0.2428 H   0  0  0  0  0  0  0  0  0  0  0  0
   -2.2586   -0.8706    1.9338 H   0  0  0  0  0  0  0  0  0  0  0  0
   -4.7414   -1.0176    2.1880 H   0  0  0  0  0  0  0  0  0  0  0  0
   -4.9357   -1.1231    0.3813 H   0  0  0  0  0  0  0  0  0  0  0  0
   -3.3186   -3.1255    2.1393 H   0  0  0  0  0  0  0  0  0  0  0  0
   -3.5261   -3.2086    0.3330 H   0  0  0  0  0  0  0  0  0  0  0  0
  1  2  2  0
  2  3  1  0
  3  4  1  0
  4  5  1  0
  5  6  1  0
  4  7  1  0
  7  8  1  0
  8  9  1  0
  6  2  1  0
  9  7  1  0
  3 10  1  0
  3 11  1  0
  4 12  1  0
  5 13  1  0
  5 14  1  0
  7 15  1  0
  8 16  1  0
  8 17  1  0
  9 18  1  0
  9 19  1  0
M  END
$$$$
