gdb 3486	2.6301519	1.8137905	1.5034549	2.7053	74.9	-0.23965	0.01009	0.24974	952.8181	0.160419	-422.581232	-422.574084	-422.573139	-422.612392	29.261
 OpenBabel02181911413D

 19 20  0  0  1  0  0  0  0  0999 V2000
    0.3264   -0.0752    0.5906 O   0  0  0  0  0  0  0  0  0  0  0  0
   -0.3914    0.9535    1.2572 C   0  0  2  0  0  0  0  0  0  0  0  0
   -1.4365    0.3739    2.1903 C   0  0  0  0  0  0  0  0  0  0  0  0
   -2.7281    0.6974    2.1073 C   0  0  0  0  0  0  0  0  0  0  0  0
   -3.2074    1.6893    1.0672 C   0  0  2  0  0  0  0  0  0  0  0  0
   -3.1684    1.0464   -0.3332 C   0  0  0  0  0  0  0  0  0  0  0  0
   -1.7827    1.0637   -0.7088 O   0  0  0  0  0  0  0  0  0  0  0  0
   -1.0534    1.8869    0.2256 C   0  0  1  0  0  0  0  0  0  0  0  0
   -2.1178    2.7666    0.8797 C   0  0  0  0  0  0  0  0  0  0  0  0
   -0.2742   -0.3849   -0.1019 H   0  0  0  0  0  0  0  0  0  0  0  0
    0.3606    1.5124    1.8307 H   0  0  0  0  0  0  0  0  0  0  0  0
   -1.0791   -0.3510    2.9165 H   0  0  0  0  0  0  0  0  0  0  0  0
   -3.4632    0.2406    2.7642 H   0  0  0  0  0  0  0  0  0  0  0  0
   -4.1929    2.0932    1.3072 H   0  0  0  0  0  0  0  0  0  0  0  0
   -3.5268    0.0125   -0.3451 H   0  0  0  0  0  0  0  0  0  0  0  0
   -3.7528    1.6310   -1.0578 H   0  0  0  0  0  0  0  0  0  0  0  0
   -0.2908    2.4269   -0.3417 H   0  0  0  0  0  0  0  0  0  0  0  0
   -1.7903    3.2090    1.8226 H   0  0  0  0  0  0  0  0  0  0  0  0
   -2.4426    3.5633    0.2031 H   0  0  0  0  0  0  0  0  0  0  0  0
  1  2  1  0  0  0  0
  2 11  1  1  0  0  0
  2  3  1  0  0  0  0
  3 12  1  0  0  0  0
  4  3  2  0  0  0  0
  4 13  1  0  0  0  0
  5 14  1  1  0  0  0
  5  4  1  0  0  0  0
  6  5  1  0  0  0  0
  7  6  1  0  0  0  0
  7  8  1  0  0  0  0
  8 17  1  6  0  0  0
  8  9  1  0  0  0  0
  8  2  1  0  0  0  0
  9  5  1  0  0  0  0
  9 18  1  0  0  0  0
 10  1  1  0  0  0  0
 15  6  1  0  0  0  0
 16  6  1  0  0  0  0
 19  9  1  0  0  0  0
M TOR 0 0 1 2 3
M TOR 1 0 1 2 11
M TOR 2 0 1 7 6
M TOR 3 0 1 7 8
M TOR 4 0 1 7 16
M TOR 5 1 2 3 4
M TOR 6 1 2 3 12
M TOR 7 1 7 6 5
M TOR 8 1 7 8 4
M TOR 9 1 7 8 17
M TOR 10 1 7 8 18
M TOR 11 2 1 0 9
M TOR 12 2 1 7 6
M TOR 13 2 1 7 8
M TOR 14 2 1 7 16
M TOR 15 2 3 4 5
M TOR 16 2 3 4 8
M TOR 17 2 3 4 13
M TOR 18 3 2 1 7
M TOR 19 3 2 1 10
M TOR 20 3 4 5 6
M TOR 21 3 4 5 14
M TOR 22 3 4 5 15
M TOR 23 3 4 8 7
M TOR 24 3 4 8 17
M TOR 25 3 4 8 18
M TOR 26 4 3 2 11
M TOR 27 4 5 6 7
M TOR 28 4 8 7 6
M TOR 29 4 8 7 16
M TOR 30 5 4 3 12
M TOR 31 5 4 8 7
M TOR 32 5 4 8 17
M TOR 33 5 4 8 18
M TOR 34 5 6 7 8
M TOR 35 5 6 7 16
M TOR 36 6 5 4 8
M TOR 37 6 5 4 13
M TOR 38 6 7 1 10
M TOR 39 6 7 8 17
M TOR 40 6 7 8 18
M TOR 41 7 1 0 9
M TOR 42 7 1 2 11
M TOR 43 7 6 5 14
M TOR 44 7 6 5 15
M TOR 45 7 8 4 13
M TOR 46 8 4 3 12
M TOR 47 8 4 5 14
M TOR 48 8 4 5 15
M TOR 49 8 7 1 10
M  END
$$$$
