gdb 4092	2.6576681	1.4379306	1.0704984	1.9945	76.45	-0.24192	0.01407	0.25599	1144.338	0.157564	-422.559814	-422.551505	-422.550561	-422.592561	32.122
 OpenBabel02181911413D

 19 20  0  0  1  0  0  0  0  0999 V2000
   -0.7711    2.7946    3.5068 O   0  0  0  0  0  0  0  0  0  0  0  0
   -1.6025    2.1555    2.5622 C   0  0  1  0  0  0  0  0  0  0  0  0
   -2.7043    3.0076    1.8698 C   0  0  0  0  0  0  0  0  0  0  0  0
   -2.1637    2.5284    0.4869 C   0  0  2  0  0  0  0  0  0  0  0  0
   -2.7980    1.2934   -0.0901 C   0  0  0  0  0  0  0  0  0  0  0  0
   -2.0382    0.2051    0.0420 C   0  0  0  0  0  0  0  0  0  0  0  0
   -0.7206    0.4932    0.7239 C   0  0  1  0  0  0  0  0  0  0  0  0
    0.3266    0.3125   -0.2284 O   0  0  0  0  0  0  0  0  0  0  0  0
   -0.8984    1.9480    1.1980 C   0  0  2  0  0  0  0  0  0  0  0  0
   -1.2772    2.9227    4.3157 H   0  0  0  0  0  0  0  0  0  0  0  0
   -1.9984    1.2106    2.9628 H   0  0  0  0  0  0  0  0  0  0  0  0
   -3.7473    2.7842    2.1097 H   0  0  0  0  0  0  0  0  0  0  0  0
   -2.5144    4.0723    2.0306 H   0  0  0  0  0  0  0  0  0  0  0  0
   -2.0383    3.3191   -0.2582 H   0  0  0  0  0  0  0  0  0  0  0  0
   -3.7746    1.3116   -0.5645 H   0  0  0  0  0  0  0  0  0  0  0  0
   -2.2867   -0.7879   -0.3149 H   0  0  0  0  0  0  0  0  0  0  0  0
   -0.5575   -0.1775    1.5844 H   0  0  0  0  0  0  0  0  0  0  0  0
    1.1632    0.3932    0.2415 H   0  0  0  0  0  0  0  0  0  0  0  0
    0.0150    2.5405    1.1247 H   0  0  0  0  0  0  0  0  0  0  0  0
  1 10  1  0  0  0  0
  2 11  1  1  0  0  0
  2  1  1  0  0  0  0
  3 13  1  0  0  0  0
  3 12  1  0  0  0  0
  3  2  1  0  0  0  0
  4 14  1  6  0  0  0
  4  9  1  0  0  0  0
  4  3  1  0  0  0  0
  5  6  2  0  0  0  0
  5  4  1  0  0  0  0
  6  7  1  0  0  0  0
  7  9  1  0  0  0  0
  7 17  1  1  0  0  0
  8 18  1  0  0  0  0
  8  7  1  0  0  0  0
  9 19  1  6  0  0  0
  9  2  1  0  0  0  0
 15  5  1  0  0  0  0
 16  6  1  0  0  0  0
M TOR 0 0 1 2 3
M TOR 1 0 1 2 11
M TOR 2 0 1 2 12
M TOR 3 0 1 8 3
M TOR 4 0 1 8 6
M TOR 5 0 1 8 18
M TOR 6 1 2 3 4
M TOR 7 1 2 3 8
M TOR 8 1 2 3 13
M TOR 9 1 8 3 4
M TOR 10 1 8 3 13
M TOR 11 1 8 6 5
M TOR 12 1 8 6 7
M TOR 13 1 8 6 16
M TOR 14 2 1 0 9
M TOR 15 2 1 8 6
M TOR 16 2 1 8 18
M TOR 17 2 3 4 5
M TOR 18 2 3 4 14
M TOR 19 2 3 8 6
M TOR 20 2 3 8 18
M TOR 21 3 2 1 10
M TOR 22 3 4 5 6
M TOR 23 3 4 5 15
M TOR 24 3 8 1 10
M TOR 25 3 8 6 5
M TOR 26 3 8 6 7
M TOR 27 3 8 6 16
M TOR 28 4 3 2 11
M TOR 29 4 3 2 12
M TOR 30 4 3 8 6
M TOR 31 4 3 8 18
M TOR 32 4 5 6 7
M TOR 33 4 5 6 8
M TOR 34 4 5 6 16
M TOR 35 5 4 3 8
M TOR 36 5 4 3 13
M TOR 37 5 6 7 17
M TOR 38 5 6 8 18
M TOR 39 6 5 4 14
M TOR 40 6 8 1 10
M TOR 41 6 8 3 13
M TOR 42 7 6 5 15
M TOR 43 7 6 8 18
M TOR 44 8 1 0 9
M TOR 45 8 1 2 11
M TOR 46 8 1 2 12
M TOR 47 8 3 2 11
M TOR 48 8 3 2 12
M TOR 49 8 3 4 14
M TOR 50 8 6 5 15
M TOR 51 8 6 7 17
M  END
$$$$
