gdb 3133	2.0862715	1.8193624	1.1084895	2.8683	75.36	-0.24628	-0.02429	0.22199	1120.5801	0.156896	-422.578685	-422.570158	-422.569214	-422.6118	32.592
 OpenBabel02181911413D

 19 20  0  0  1  0  0  0  0  0999 V2000
   -3.2833   -1.2969    1.0248 C   0  0  0  0  0  0  0  0  0  0  0  0
   -2.3111   -0.8154   -0.0521 C   0  0  1  0  0  0  0  0  0  0  0  0
   -2.1536    0.7181   -0.0923 C   0  0  2  0  0  0  0  0  0  0  0  0
   -1.6804    1.2912   -1.3902 C   0  0  0  0  0  0  0  0  0  0  0  0
   -0.6807    1.0694   -0.2644 C   0  0  2  0  0  0  0  0  0  0  0  0
    0.0617   -0.2260   -0.3341 C   0  0  0  0  0  0  0  0  0  0  0  0
    1.1988   -0.4332   -0.6881 O   0  0  0  0  0  0  0  0  0  0  0  0
   -0.8720   -1.3362    0.1486 C   0  0  2  0  0  0  0  0  0  0  0  0
   -0.5995   -2.5758   -0.4417 O   0  0  0  0  0  0  0  0  0  0  0  0
   -3.3267   -2.3899    1.0448 H   0  0  0  0  0  0  0  0  0  0  0  0
   -2.9719   -0.9529    2.0179 H   0  0  0  0  0  0  0  0  0  0  0  0
   -4.2950   -0.9207    0.8413 H   0  0  0  0  0  0  0  0  0  0  0  0
   -2.6576   -1.1779   -1.0269 H   0  0  0  0  0  0  0  0  0  0  0  0
   -2.7882    1.3180    0.5501 H   0  0  0  0  0  0  0  0  0  0  0  0
   -1.6430    0.6464   -2.2631 H   0  0  0  0  0  0  0  0  0  0  0  0
   -1.9027    2.3289   -1.6128 H   0  0  0  0  0  0  0  0  0  0  0  0
   -0.1983    1.9362    0.1704 H   0  0  0  0  0  0  0  0  0  0  0  0
   -0.6920   -1.3699    1.2436 H   0  0  0  0  0  0  0  0  0  0  0  0
    0.3295   -2.5343   -0.7140 H   0  0  0  0  0  0  0  0  0  0  0  0
  1 10  1  0  0  0  0
  1 11  1  0  0  0  0
  2 13  1  6  0  0  0
  2  8  1  0  0  0  0
  2  1  1  0  0  0  0
  3  2  1  0  0  0  0
  3 14  1  1  0  0  0
  4  5  1  0  0  0  0
  4  3  1  0  0  0  0
  5  3  1  0  0  0  0
  5 17  1  1  0  0  0
  6  5  1  0  0  0  0
  6  8  1  0  0  0  0
  7  6  2  0  0  0  0
  8 18  1  1  0  0  0
  9  8  1  0  0  0  0
 12  1  1  0  0  0  0
 15  4  1  0  0  0  0
 16  4  1  0  0  0  0
 19  9  1  0  0  0  0
M TOR 0 0 1 2 3
M TOR 1 0 1 2 4
M TOR 2 0 1 2 13
M TOR 3 0 1 7 5
M TOR 4 0 1 7 8
M TOR 5 0 1 7 17
M TOR 6 1 2 3 4
M TOR 7 1 2 3 14
M TOR 8 1 2 3 15
M TOR 9 1 2 4 5
M TOR 10 1 2 4 16
M TOR 11 1 7 5 4
M TOR 12 1 7 5 6
M TOR 13 1 7 8 18
M TOR 14 2 1 0 9
M TOR 15 2 1 0 10
M TOR 16 2 1 0 11
M TOR 17 2 1 7 5
M TOR 18 2 1 7 8
M TOR 19 2 1 7 17
M TOR 20 2 3 4 5
M TOR 21 2 3 4 16
M TOR 22 2 4 3 14
M TOR 23 2 4 3 15
M TOR 24 2 4 5 6
M TOR 25 2 4 5 7
M TOR 26 3 2 1 7
M TOR 27 3 2 1 12
M TOR 28 3 4 2 13
M TOR 29 3 4 5 6
M TOR 30 3 4 5 7
M TOR 31 4 2 1 7
M TOR 32 4 2 1 12
M TOR 33 4 5 7 8
M TOR 34 4 5 7 17
M TOR 35 5 4 2 13
M TOR 36 5 4 3 14
M TOR 37 5 4 3 15
M TOR 38 5 7 1 12
M TOR 39 5 7 8 18
M TOR 40 6 5 4 16
M TOR 41 6 5 7 8
M TOR 42 6 5 7 17
M TOR 43 7 1 0 9
M TOR 44 7 1 0 10
M TOR 45 7 1 0 11
M TOR 46 7 1 2 13
M TOR 47 7 5 4 16
M TOR 48 8 7 1 12
M  END
$$$$
