gdb 2878	2.8189193	1.8016146	1.6021313	2.1775	72.82	-0.23238	0.08511	0.31749	936.4648	0.159629	-422.56098	-422.553806	-422.552862	-422.592297	28.717
 OpenBabel02181911413D

 19 21  0  0  1  0  0  0  0  0999 V2000
    0.0390    0.1532   -0.0158 C   0  0  0  0  0  0  0  0  0  0  0  0
    1.5566   -0.0403    0.0155 C   0  0  1  0  0  0  0  0  0  0  0  0
    2.0028   -0.9388    1.1614 C   0  0  2  0  0  0  0  0  0  0  0  0
    3.3635   -1.5840    0.9397 C   0  0  2  0  0  0  0  0  0  0  0  0
    4.2345   -1.0514   -0.1846 C   0  0  0  0  0  0  0  0  0  0  0  0
    3.4695   -0.6948   -1.3418 O   0  0  0  0  0  0  0  0  0  0  0  0
    2.0847   -0.8771   -1.1739 C   0  0  1  0  0  0  0  0  0  0  0  0
    1.7939   -2.2263   -0.8319 O   0  0  0  0  0  0  0  0  0  0  0  0
    2.1093   -2.3122    0.5436 C   0  0  2  0  0  0  0  0  0  0  0  0
   -0.3105    0.6527    0.8936 H   0  0  0  0  0  0  0  0  0  0  0  0
   -0.2629    0.7674   -0.8707 H   0  0  0  0  0  0  0  0  0  0  0  0
   -0.4724   -0.8110   -0.0917 H   0  0  0  0  0  0  0  0  0  0  0  0
    2.0649    0.9290    0.0133 H   0  0  0  0  0  0  0  0  0  0  0  0
    1.6234   -0.7792    2.1638 H   0  0  0  0  0  0  0  0  0  0  0  0
    3.9008   -1.9320    1.8163 H   0  0  0  0  0  0  0  0  0  0  0  0
    4.7989   -0.1691    0.1488 H   0  0  0  0  0  0  0  0  0  0  0  0
    4.9638   -1.8141   -0.4876 H   0  0  0  0  0  0  0  0  0  0  0  0
    1.6261   -0.6621   -2.1398 H   0  0  0  0  0  0  0  0  0  0  0  0
    1.7815   -3.2373    0.9993 H   0  0  0  0  0  0  0  0  0  0  0  0
  1  2  1  0  0  0  0
  1 10  1  0  0  0  0
  2 13  1  1  0  0  0
  2  3  1  0  0  0  0
  3 14  1  1  0  0  0
  4  3  1  0  0  0  0
  4 15  1  1  0  0  0
  5 16  1  0  0  0  0
  5  4  1  0  0  0  0
  6  7  1  0  0  0  0
  6  5  1  0  0  0  0
  7 18  1  6  0  0  0
  7  8  1  0  0  0  0
  7  2  1  0  0  0  0
  8  9  1  0  0  0  0
  9  4  1  0  0  0  0
  9 19  1  1  0  0  0
  9  3  1  0  0  0  0
 11  1  1  0  0  0  0
 12  1  1  0  0  0  0
 17  5  1  0  0  0  0
M TOR 0 0 1 2 3
M TOR 1 0 1 2 8
M TOR 2 0 1 2 13
M TOR 3 0 1 6 5
M TOR 4 0 1 6 7
M TOR 5 0 1 6 17
M TOR 6 1 2 3 4
M TOR 7 1 2 3 8
M TOR 8 1 2 3 14
M TOR 9 1 2 8 7
M TOR 10 1 2 8 18
M TOR 11 1 6 5 4
M TOR 12 1 6 7 8
M TOR 13 2 1 0 9
M TOR 14 2 1 0 10
M TOR 15 2 1 0 11
M TOR 16 2 1 6 5
M TOR 17 2 1 6 7
M TOR 18 2 1 6 17
M TOR 19 2 3 4 5
M TOR 20 2 3 4 15
M TOR 21 2 3 4 16
M TOR 22 2 3 8 7
M TOR 23 2 3 8 18
M TOR 24 2 8 3 4
M TOR 25 2 8 3 14
M TOR 26 2 8 7 6
M TOR 27 3 2 1 6
M TOR 28 3 2 1 12
M TOR 29 3 4 5 6
M TOR 30 3 8 2 13
M TOR 31 3 8 7 6
M TOR 32 4 3 2 13
M TOR 33 4 3 8 7
M TOR 34 4 3 8 18
M TOR 35 4 5 6 7
M TOR 36 4 5 6 17
M TOR 37 5 4 3 8
M TOR 38 5 4 3 14
M TOR 39 5 6 1 12
M TOR 40 5 6 7 8
M TOR 41 6 1 0 9
M TOR 42 6 1 0 10
M TOR 43 6 1 0 11
M TOR 44 6 1 2 8
M TOR 45 6 1 2 13
M TOR 46 6 5 4 15
M TOR 47 6 5 4 16
M TOR 48 6 7 8 18
M TOR 49 7 6 1 12
M TOR 50 7 8 2 13
M TOR 51 7 8 3 14
M TOR 52 8 2 1 12
M TOR 53 8 3 4 15
M TOR 54 8 3 4 16
M TOR 55 8 7 6 17
M  END
$$$$
