
     RDKit          3D

 19 20  0  0  0  0  0  0  0  0999 V2000
    1.0533   -0.5795   -0.5236 O   0  0  0  0  0  0  0  0  0  0  0  0
    0.1652   -0.1183    0.1480 C   0  0  0  0  0  0  0  0  0  0  0  0
    0.1950    1.2272    0.8166 C   0  0  0  0  0  0  0  0  0  0  0  0
   -0.9153    2.2165    0.3244 C   0  0  0  0  0  0  0  0  0  0  0  0
    0.1899    3.2165   -0.1235 C   0  0  0  0  0  0  0  0  0  0  0  0
    1.2955    2.2442    0.3828 C   0  0  0  0  0  0  0  0  0  0  0  0
    1.9951    2.6450    1.5449 O   0  0  0  0  0  0  0  0  0  0  0  0
    1.1481    2.4225    2.6640 C   0  0  0  0  0  0  0  0  0  0  0  0
    0.3750    1.1294    2.3461 C   0  0  0  0  0  0  0  0  0  0  0  0
   -0.7799   -0.6888    0.3128 H   0  0  0  0  0  0  0  0  0  0  0  0
   -1.5320    1.8235   -0.4886 H   0  0  0  0  0  0  0  0  0  0  0  0
   -1.5817    2.5750    1.1134 H   0  0  0  0  0  0  0  0  0  0  0  0
    0.2216    3.4027   -1.1991 H   0  0  0  0  0  0  0  0  0  0  0  0
    0.1876    4.1769    0.3964 H   0  0  0  0  0  0  0  0  0  0  0  0
    2.0241    1.9097   -0.3559 H   0  0  0  0  0  0  0  0  0  0  0  0
    1.7779    2.3470    3.5540 H   0  0  0  0  0  0  0  0  0  0  0  0
    0.4521    3.2641    2.8089 H   0  0  0  0  0  0  0  0  0  0  0  0
    0.9893    0.2591    2.5989 H   0  0  0  0  0  0  0  0  0  0  0  0
   -0.5715    1.0544    2.8881 H   0  0  0  0  0  0  0  0  0  0  0  0
  1  2  2  0
  2  3  1  0
  3  4  1  0
  4  5  1  0
  5  6  1  0
  6  7  1  0
  7  8  1  0
  8  9  1  0
  6  3  1  0
  9  3  1  0
  2 10  1  0
  4 11  1  0
  4 12  1  0
  5 13  1  0
  5 14  1  0
  6 15  1  0
  8 16  1  0
  8 17  1  0
  9 18  1  0
  9 19  1  0
M  END
$$$$
