
     RDKit          3D

 19 19  0  0  0  0  0  0  0  0999 V2000
   -4.1143   -0.8759   -3.5927 O   0  0  0  0  0  0  0  0  0  0  0  0
   -3.3441    0.2407   -4.0186 C   0  0  0  0  0  0  0  0  0  0  0  0
   -2.2734    0.6009   -3.0895 C   0  0  0  0  0  0  0  0  0  0  0  0
   -1.4248    0.8942   -2.2850 C   0  0  0  0  0  0  0  0  0  0  0  0
   -0.3726    1.2353   -1.3423 C   0  0  0  0  0  0  0  0  0  0  0  0
   -0.1408    0.1880   -0.2133 C   0  0  0  0  0  0  0  0  0  0  0  0
    1.3948    0.2259    0.0043 C   0  0  0  0  0  0  0  0  0  0  0  0
    1.9120    1.2376   -0.8558 O   0  0  0  0  0  0  0  0  0  0  0  0
    1.0412    1.3262   -1.9633 C   0  0  0  0  0  0  0  0  0  0  0  0
   -4.4047   -0.6964   -2.6924 H   0  0  0  0  0  0  0  0  0  0  0  0
   -2.9223   -0.0442   -4.9890 H   0  0  0  0  0  0  0  0  0  0  0  0
   -3.9822    1.1210   -4.1982 H   0  0  0  0  0  0  0  0  0  0  0  0
   -0.5914    2.2061   -0.8823 H   0  0  0  0  0  0  0  0  0  0  0  0
   -0.6996    0.4447    0.6887 H   0  0  0  0  0  0  0  0  0  0  0  0
   -0.4702   -0.8005   -0.5402 H   0  0  0  0  0  0  0  0  0  0  0  0
    1.6823    0.4856    1.0268 H   0  0  0  0  0  0  0  0  0  0  0  0
    1.8435   -0.7480   -0.2403 H   0  0  0  0  0  0  0  0  0  0  0  0
    1.2317    2.2712   -2.4766 H   0  0  0  0  0  0  0  0  0  0  0  0
    1.1934    0.4972   -2.6734 H   0  0  0  0  0  0  0  0  0  0  0  0
  1  2  1  0
  2  3  1  0
  3  4  3  0
  4  5  1  0
  5  6  1  0
  6  7  1  0
  7  8  1  0
  8  9  1  0
  9  5  1  0
  1 10  1  0
  2 11  1  0
  2 12  1  0
  5 13  1  0
  6 14  1  0
  6 15  1  0
  7 16  1  0
  7 17  1  0
  9 18  1  0
  9 19  1  0
M  END
$$$$
