gdb 3593	2.1903274	1.7853994	1.1959707	2.8581	78.93	-0.22664	0.01184	0.23848	1092.6816	0.156424	-422.522648	-422.514017	-422.513073	-422.555681	32.35
 OpenBabel02181911413D

 19 20  0  0  1  0  0  0  0  0999 V2000
   -0.0176    1.4730    0.0967 C   0  0  0  0  0  0  0  0  0  0  0  0
    0.0044   -0.0060   -0.1064 C   0  0  2  0  0  3  0  0  0  0  0  0
   -1.0034   -0.8593   -0.2648 C   0  0  2  0  0  3  0  0  0  0  0  0
   -2.3813   -1.2477    0.2130 C   0  0  0  0  0  0  0  0  0  0  0  0
   -1.8420   -2.5522    0.5933 O   0  0  0  0  0  0  0  0  0  0  0  0
   -0.6119   -2.2915   -0.1480 C   0  0  2  0  0  0  0  0  0  0  0  0
    0.7832   -2.2258    0.5230 C   0  0  2  0  0  0  0  0  0  0  0  0
    0.6054   -2.2068    1.9245 O   0  0  0  0  0  0  0  0  0  0  0  0
    1.2891   -0.8411   -0.0145 C   0  0  0  0  0  0  0  0  0  0  0  0
    0.5242    1.9963   -0.7019 H   0  0  0  0  0  0  0  0  0  0  0  0
   -1.0393    1.8619    0.1162 H   0  0  0  0  0  0  0  0  0  0  0  0
    0.4752    1.7469    1.0384 H   0  0  0  0  0  0  0  0  0  0  0  0
   -2.7845   -0.6919    1.0669 H   0  0  0  0  0  0  0  0  0  0  0  0
   -3.1584   -1.3568   -0.5551 H   0  0  0  0  0  0  0  0  0  0  0  0
   -0.5848   -2.9051   -1.0596 H   0  0  0  0  0  0  0  0  0  0  0  0
    1.4432   -3.0520    0.2197 H   0  0  0  0  0  0  0  0  0  0  0  0
    1.4738   -2.1086    2.3273 H   0  0  0  0  0  0  0  0  0  0  0  0
    1.8028   -0.9519   -0.9797 H   0  0  0  0  0  0  0  0  0  0  0  0
    2.0153   -0.3958    0.6777 H   0  0  0  0  0  0  0  0  0  0  0  0
  1 11  1  0  0  0  0
  1 12  1  0  0  0  0
  2  9  1  0  0  0  0
  2  1  1  1  0  0  0
  3  6  1  0  0  0  0
  3  2  1  0  0  0  0
  3  4  1  1  0  0  0
  4  5  1  0  0  0  0
  4 13  1  0  0  0  0
  6 15  1  6  0  0  0
  6  7  1  0  0  0  0
  6  5  1  0  0  0  0
  7 16  1  6  0  0  0
  7  8  1  0  0  0  0
  8 17  1  0  0  0  0
  9  7  1  0  0  0  0
  9 19  1  0  0  0  0
 10  1  1  0  0  0  0
 14  4  1  0  0  0  0
 18  9  1  0  0  0  0
M TOR 0 0 1 2 3
M TOR 1 0 1 2 5
M TOR 2 0 1 8 6
M TOR 3 0 1 8 17
M TOR 4 0 1 8 18
M TOR 5 1 2 3 4
M TOR 6 1 2 3 12
M TOR 7 1 2 3 13
M TOR 8 1 2 5 4
M TOR 9 1 2 5 6
M TOR 10 1 2 5 14
M TOR 11 1 8 6 5
M TOR 12 1 8 6 7
M TOR 13 1 8 6 15
M TOR 14 2 1 0 9
M TOR 15 2 1 0 10
M TOR 16 2 1 0 11
M TOR 17 2 1 8 6
M TOR 18 2 1 8 17
M TOR 19 2 1 8 18
M TOR 20 2 3 4 5
M TOR 21 2 5 6 7
M TOR 22 2 5 6 8
M TOR 23 2 5 6 15
M TOR 24 3 2 1 8
M TOR 25 3 2 5 6
M TOR 26 3 2 5 14
M TOR 27 3 4 5 6
M TOR 28 3 4 5 14
M TOR 29 4 5 6 7
M TOR 30 4 5 6 8
M TOR 31 4 5 6 15
M TOR 32 5 2 1 8
M TOR 33 5 2 3 12
M TOR 34 5 2 3 13
M TOR 35 5 4 3 12
M TOR 36 5 4 3 13
M TOR 37 5 6 7 16
M TOR 38 5 6 8 17
M TOR 39 5 6 8 18
M TOR 40 7 6 5 14
M TOR 41 7 6 8 17
M TOR 42 7 6 8 18
M TOR 43 8 1 0 9
M TOR 44 8 1 0 10
M TOR 45 8 1 0 11
M TOR 46 8 6 5 14
M TOR 47 8 6 7 16
M  END
$$$$
