gdb 256	2.9911851	1.6860406	1.237281	1.3033	74.83	-0.23079	0.07408	0.30487	1023.3525	0.159048	-422.516802	-422.509595	-422.508651	-422.548177	28.989
 OpenBabel02181911403D

 19 21  0  0  1  0  0  0  0  0999 V2000
   -0.0149   -0.4758    0.2449 C   0  0  0  0  0  0  0  0  0  0  0  0
    1.4203   -0.3568   -0.1760 C   0  0  1  0  0  0  0  0  0  0  0  0
    1.5361   -0.3601   -1.6011 O   0  0  0  0  0  0  0  0  0  0  0  0
    0.7865    0.8904   -1.6709 C   0  0  2  0  0  0  0  0  0  0  0  0
    1.6695    2.0772   -2.0624 C   0  0  0  0  0  0  0  0  0  0  0  0
    1.2596    3.3212   -1.2635 C   0  0  0  0  0  0  0  0  0  0  0  0
    1.4067    3.1058    0.1311 O   0  0  0  0  0  0  0  0  0  0  0  0
    0.4886    2.1439    0.6282 C   0  0  0  0  0  0  0  0  0  0  0  0
    0.5362    0.8704   -0.1623 C   0  0  1  0  0  0  0  0  0  0  0  0
   -0.7195   -1.0085   -0.3889 H   0  0  0  0  0  0  0  0  0  0  0  0
   -0.1763   -0.5930    1.3134 H   0  0  0  0  0  0  0  0  0  0  0  0
    2.2796   -0.6649    0.4088 H   0  0  0  0  0  0  0  0  0  0  0  0
   -0.0904    0.7931   -2.3234 H   0  0  0  0  0  0  0  0  0  0  0  0
    2.7053    1.8301   -1.8114 H   0  0  0  0  0  0  0  0  0  0  0  0
    1.6207    2.2735   -3.1385 H   0  0  0  0  0  0  0  0  0  0  0  0
    1.9042    4.1690   -1.5110 H   0  0  0  0  0  0  0  0  0  0  0  0
    0.2201    3.6111   -1.4976 H   0  0  0  0  0  0  0  0  0  0  0  0
    0.7458    1.9772    1.6792 H   0  0  0  0  0  0  0  0  0  0  0  0
   -0.5350    2.5596    0.5986 H   0  0  0  0  0  0  0  0  0  0  0  0
  1 11  1  0  0  0  0
  2  9  1  0  0  0  0
  2  1  1  0  0  0  0
  2 12  1  1  0  0  0
  3  2  1  0  0  0  0
  4 13  1  6  0  0  0
  4  3  1  0  0  0  0
  4  9  1  0  0  0  0
  5 14  1  0  0  0  0
  5  4  1  0  0  0  0
  5  6  1  0  0  0  0
  6  7  1  0  0  0  0
  7  8  1  0  0  0  0
  8 18  1  0  0  0  0
  9  1  1  1  0  0  0
  9  8  1  0  0  0  0
 10  1  1  0  0  0  0
 15  5  1  0  0  0  0
 16  6  1  0  0  0  0
 17  6  1  0  0  0  0
 19  8  1  0  0  0  0
M TOR 0 0 1 2 3
M TOR 1 0 1 8 3
M TOR 2 0 1 8 7
M TOR 3 0 8 1 2
M TOR 4 0 8 1 11
M TOR 5 0 8 3 2
M TOR 6 0 8 3 4
M TOR 7 0 8 3 12
M TOR 8 0 8 7 6
M TOR 9 0 8 7 17
M TOR 10 0 8 7 18
M TOR 11 1 2 3 4
M TOR 12 1 2 3 8
M TOR 13 1 2 3 12
M TOR 14 1 8 0 9
M TOR 15 1 8 0 10
M TOR 16 1 8 3 4
M TOR 17 1 8 3 12
M TOR 18 1 8 7 6
M TOR 19 1 8 7 17
M TOR 20 1 8 7 18
M TOR 21 2 1 0 9
M TOR 22 2 1 0 10
M TOR 23 2 1 8 7
M TOR 24 2 3 4 5
M TOR 25 2 3 4 13
M TOR 26 2 3 4 14
M TOR 27 2 3 8 7
M TOR 28 3 2 1 11
M TOR 29 3 4 5 6
M TOR 30 3 4 5 15
M TOR 31 3 4 5 16
M TOR 32 3 8 0 9
M TOR 33 3 8 0 10
M TOR 34 3 8 1 11
M TOR 35 3 8 7 6
M TOR 36 3 8 7 17
M TOR 37 3 8 7 18
M TOR 38 4 3 8 7
M TOR 39 4 5 6 7
M TOR 40 5 4 3 8
M TOR 41 5 4 3 12
M TOR 42 5 6 7 8
M TOR 43 5 6 7 17
M TOR 44 5 6 7 18
M TOR 45 6 5 4 13
M TOR 46 6 5 4 14
M TOR 47 7 6 5 15
M TOR 48 7 6 5 16
M TOR 49 7 8 0 9
M TOR 50 7 8 0 10
M TOR 51 7 8 1 11
M TOR 52 7 8 3 12
M TOR 53 8 3 4 13
M TOR 54 8 3 4 14
M  END
$$$$
