
     RDKit          3D

 19 20  0  0  0  0  0  0  0  0999 V2000
    1.4585    0.9942   -0.1606 O   0  0  0  0  0  0  0  0  0  0  0  0
    0.1637    0.5539    0.2180 C   0  0  0  0  0  0  0  0  0  0  0  0
   -0.8060    0.9700   -0.8916 C   0  0  0  0  0  0  0  0  0  0  0  0
   -2.2280    0.6280   -0.5729 C   0  0  0  0  0  0  0  0  0  0  0  0
   -3.0074   -0.2908   -1.1565 C   0  0  0  0  0  0  0  0  0  0  0  0
   -4.3989   -0.3522   -0.5607 C   0  0  0  0  0  0  0  0  0  0  0  0
   -4.3281    0.6638    0.5737 C   0  0  0  0  0  0  0  0  0  0  0  0
   -3.3725    0.3508    1.5893 O   0  0  0  0  0  0  0  0  0  0  0  0
   -2.9911    1.2785    0.5447 C   0  0  0  0  0  0  0  0  0  0  0  0
    2.0785    0.7258    0.5235 H   0  0  0  0  0  0  0  0  0  0  0  0
    0.1268   -0.5390    0.3429 H   0  0  0  0  0  0  0  0  0  0  0  0
   -0.1489    1.0014    1.1747 H   0  0  0  0  0  0  0  0  0  0  0  0
   -0.6978    2.0535   -1.0363 H   0  0  0  0  0  0  0  0  0  0  0  0
   -0.4969    0.4929   -1.8272 H   0  0  0  0  0  0  0  0  0  0  0  0
   -2.6872   -0.9565   -1.9512 H   0  0  0  0  0  0  0  0  0  0  0  0
   -5.1714   -0.0757   -1.2903 H   0  0  0  0  0  0  0  0  0  0  0  0
   -4.6531   -1.3536   -0.1922 H   0  0  0  0  0  0  0  0  0  0  0  0
   -5.2189    1.1830    0.9168 H   0  0  0  0  0  0  0  0  0  0  0  0
   -2.7740    2.2881    0.8837 H   0  0  0  0  0  0  0  0  0  0  0  0
  1  2  1  0
  2  3  1  0
  3  4  1  0
  4  5  2  0
  5  6  1  0
  6  7  1  0
  7  8  1  0
  8  9  1  0
  9  4  1  0
  9  7  1  0
  1 10  1  0
  2 11  1  0
  2 12  1  0
  3 13  1  0
  3 14  1  0
  5 15  1  0
  6 16  1  0
  6 17  1  0
  7 18  1  0
  9 19  1  0
M  END
$$$$
