
     RDKit          3D

 19 18  0  0  0  0  0  0  0  0999 V2000
    3.9519    4.8463   -1.1932 C   0  0  0  0  0  0  0  0  0  0  0  0
    3.5282    3.7903   -0.1699 C   0  0  0  0  0  0  0  0  0  0  0  0
    2.9716    2.5250   -0.8217 C   0  0  0  0  0  0  0  0  0  0  0  0
    4.0014    1.9572   -1.6123 O   0  0  0  0  0  0  0  0  0  0  0  0
    2.4715    1.5199    0.2284 C   0  0  0  0  0  0  0  0  0  0  0  0
    1.8943    0.2553   -0.3799 C   0  0  0  0  0  0  0  0  0  0  0  0
    2.0276   -0.0448   -1.5522 O   0  0  0  0  0  0  0  0  0  0  0  0
    1.1610   -0.6044    0.5312 C   0  0  0  0  0  0  0  0  0  0  0  0
    0.5580   -1.2992    1.3075 C   0  0  0  0  0  0  0  0  0  0  0  0
    4.3765    5.7250   -0.6986 H   0  0  0  0  0  0  0  0  0  0  0  0
    4.7002    4.4373   -1.8758 H   0  0  0  0  0  0  0  0  0  0  0  0
    3.0971    5.1802   -1.7922 H   0  0  0  0  0  0  0  0  0  0  0  0
    4.3877    3.5052    0.4500 H   0  0  0  0  0  0  0  0  0  0  0  0
    2.7690    4.2012    0.5072 H   0  0  0  0  0  0  0  0  0  0  0  0
    2.1141    2.8043   -1.4580 H   0  0  0  0  0  0  0  0  0  0  0  0
    3.6018    1.2014   -2.0625 H   0  0  0  0  0  0  0  0  0  0  0  0
    3.3033    1.2171    0.8806 H   0  0  0  0  0  0  0  0  0  0  0  0
    1.7153    1.9663    0.8859 H   0  0  0  0  0  0  0  0  0  0  0  0
    0.0217   -1.9254    1.9789 H   0  0  0  0  0  0  0  0  0  0  0  0
  1  2  1  0
  2  3  1  0
  3  4  1  0
  3  5  1  0
  5  6  1  0
  6  7  2  0
  6  8  1  0
  8  9  3  0
  1 10  1  0
  1 11  1  0
  1 12  1  0
  2 13  1  0
  2 14  1  0
  3 15  1  0
  4 16  1  0
  5 17  1  0
  5 18  1  0
  9 19  1  0
M  END
$$$$
