
     RDKit          3D

 19 21  0  0  0  0  0  0  0  0999 V2000
   -1.0110   -0.5820   -0.7748 C   0  0  0  0  0  0  0  0  0  0  0  0
   -1.4832   -0.8594    0.5495 O   0  0  0  0  0  0  0  0  0  0  0  0
   -0.7795   -0.0654    1.4682 C   0  0  0  0  0  0  0  0  0  0  0  0
    0.3992   -0.7145    1.9667 O   0  0  0  0  0  0  0  0  0  0  0  0
    1.5169   -0.0541    1.3501 C   0  0  0  0  0  0  0  0  0  0  0  0
    1.4871   -0.3390   -0.1625 C   0  0  0  0  0  0  0  0  0  0  0  0
    0.1672    0.3784   -0.6007 C   0  0  0  0  0  0  0  0  0  0  0  0
   -0.2219    1.1513    0.6979 C   0  0  0  0  0  0  0  0  0  0  0  0
    1.1045    1.4236    1.4134 C   0  0  0  0  0  0  0  0  0  0  0  0
   -0.7279   -1.5205   -1.2644 H   0  0  0  0  0  0  0  0  0  0  0  0
   -1.8251   -0.1255   -1.3541 H   0  0  0  0  0  0  0  0  0  0  0  0
   -1.4476    0.1215    2.3119 H   0  0  0  0  0  0  0  0  0  0  0  0
    2.4232   -0.3571    1.8740 H   0  0  0  0  0  0  0  0  0  0  0  0
    2.3641    0.0907   -0.6569 H   0  0  0  0  0  0  0  0  0  0  0  0
    1.4700   -1.4118   -0.3705 H   0  0  0  0  0  0  0  0  0  0  0  0
    0.3073    1.0191   -1.4728 H   0  0  0  0  0  0  0  0  0  0  0  0
   -0.9278    1.9712    0.5696 H   0  0  0  0  0  0  0  0  0  0  0  0
    1.7714    2.0929    0.8627 H   0  0  0  0  0  0  0  0  0  0  0  0
    0.9845    1.7838    2.4381 H   0  0  0  0  0  0  0  0  0  0  0  0
  1  2  1  0
  2  3  1  0
  3  4  1  0
  4  5  1  0
  5  6  1  0
  6  7  1  0
  7  8  1  0
  8  9  1  0
  7  1  1  0
  8  3  1  0
  9  5  1  0
  1 10  1  0
  1 11  1  0
  3 12  1  0
  5 13  1  0
  6 14  1  0
  6 15  1  0
  7 16  1  0
  8 17  1  0
  9 18  1  0
  9 19  1  0
M  END
$$$$
