gdb 5111	2.4726648	1.6072955	1.173345	1.4707	74.77	-0.22842	0.06225	0.29067	1092.4101	0.155126	-422.48453	-422.475699	-422.474755	-422.517852	33.533
 OpenBabel02181911423D

 19 21  0  0  1  0  0  0  0  0999 V2000
    2.5671   -3.4600   -0.3309 C   0  0  0  0  0  0  0  0  0  0  0  0
    1.2699   -3.5821    0.3965 C   0  0  2  0  0  0  0  0  0  0  0  0
    1.0979   -4.6551    1.3399 O   0  0  0  0  0  0  0  0  0  0  0  0
    0.1227   -4.4816    0.2987 C   0  0  1  0  0  0  0  0  0  0  0  0
   -0.8649   -3.3449    0.7052 C   0  0  1  0  0  0  0  0  0  0  0  0
   -0.4900   -2.7448    2.0343 C   0  0  0  0  0  0  0  0  0  0  0  0
    0.3208   -2.3918    0.8081 C   0  0  1  0  0  0  0  0  0  0  0  0
    0.4745   -1.0032    0.2710 C   0  0  0  0  0  0  0  0  0  0  0  0
    1.6018   -0.3284    0.8200 O   0  0  0  0  0  0  0  0  0  0  0  0
    3.3229   -2.9866    0.3043 H   0  0  0  0  0  0  0  0  0  0  0  0
    2.9257   -4.4488   -0.6283 H   0  0  0  0  0  0  0  0  0  0  0  0
    2.4554   -2.8414   -1.2266 H   0  0  0  0  0  0  0  0  0  0  0  0
   -0.0830   -5.3320   -0.3410 H   0  0  0  0  0  0  0  0  0  0  0  0
   -1.8166   -3.1714    0.2202 H   0  0  0  0  0  0  0  0  0  0  0  0
   -1.1565   -1.9583    2.3770 H   0  0  0  0  0  0  0  0  0  0  0  0
   -0.0700   -3.3711    2.8108 H   0  0  0  0  0  0  0  0  0  0  0  0
    0.6498   -1.0177   -0.8109 H   0  0  0  0  0  0  0  0  0  0  0  0
   -0.4574   -0.4390    0.4390 H   0  0  0  0  0  0  0  0  0  0  0  0
    1.5183   -0.3708    1.7787 H   0  0  0  0  0  0  0  0  0  0  0  0
  1 10  1  0  0  0  0
  2  1  1  6  0  0  0
  2  7  1  0  0  0  0
  2  3  1  0  0  0  0
  4 13  1  6  0  0  0
  4  2  1  0  0  0  0
  4  5  1  0  0  0  0
  4  3  1  0  0  0  0
  5 14  1  6  0  0  0
  5  7  1  0  0  0  0
  5  6  1  0  0  0  0
  6 15  1  0  0  0  0
  6 16  1  0  0  0  0
  7  8  1  6  0  0  0
  7  6  1  0  0  0  0
  8 18  1  0  0  0  0
  8  9  1  0  0  0  0
  9 19  1  0  0  0  0
 11  1  1  0  0  0  0
 12  1  1  0  0  0  0
 17  8  1  0  0  0  0
M TOR 0 0 1 2 3
M TOR 1 0 1 3 4
M TOR 2 0 1 3 12
M TOR 3 0 1 6 4
M TOR 4 0 1 6 5
M TOR 5 0 1 6 7
M TOR 6 1 2 3 4
M TOR 7 1 2 3 12
M TOR 8 1 3 4 5
M TOR 9 1 3 4 6
M TOR 10 1 3 4 13
M TOR 11 1 6 4 5
M TOR 12 1 6 4 13
M TOR 13 1 6 5 14
M TOR 14 1 6 5 15
M TOR 15 1 6 7 8
M TOR 16 1 6 7 16
M TOR 17 1 6 7 17
M TOR 18 2 1 0 9
M TOR 19 2 1 0 10
M TOR 20 2 1 0 11
M TOR 21 2 1 6 4
M TOR 22 2 1 6 5
M TOR 23 2 1 6 7
M TOR 24 2 3 1 6
M TOR 25 2 3 4 5
M TOR 26 2 3 4 6
M TOR 27 2 3 4 13
M TOR 28 3 1 0 9
M TOR 29 3 1 0 10
M TOR 30 3 1 0 11
M TOR 31 3 1 6 5
M TOR 32 3 1 6 7
M TOR 33 3 4 5 6
M TOR 34 3 4 5 14
M TOR 35 3 4 5 15
M TOR 36 3 4 6 7
M TOR 37 4 5 6 7
M TOR 38 4 6 5 14
M TOR 39 4 6 5 15
M TOR 40 4 6 7 8
M TOR 41 4 6 7 16
M TOR 42 4 6 7 17
M TOR 43 5 4 3 12
M TOR 44 5 6 4 13
M TOR 45 5 6 7 8
M TOR 46 5 6 7 16
M TOR 47 5 6 7 17
M TOR 48 6 1 0 9
M TOR 49 6 1 0 10
M TOR 50 6 1 0 11
M TOR 51 6 1 3 12
M TOR 52 6 4 3 12
M TOR 53 6 7 8 18
M TOR 54 7 6 4 13
M TOR 55 7 6 5 14
M TOR 56 7 6 5 15
M  END
$$$$
