gdb 3929	2.9951874	1.3937571	1.2201663	2.0582	76.55	-0.24313	0.05849	0.30162	1097.4344	0.156069	-422.431099	-422.423167	-422.422223	-422.462967	31.946
 OpenBabel02181911413D

 19 21  0  0  1  0  0  0  0  0999 V2000
   -0.0052    0.1436   -0.0092 C   0  0  0  0  0  0  0  0  0  0  0  0
    1.4999    0.0376    0.0363 C   0  0  2  0  0  0  0  0  0  0  0  0
    2.0157   -0.8313   -1.0672 O   0  0  0  0  0  0  0  0  0  0  0  0
    2.8954   -1.3902   -0.0880 C   0  0  2  0  0  0  0  0  0  0  0  0
    4.1270   -0.5730    0.4206 C   0  0  0  0  0  0  0  0  0  0  0  0
    3.5390   -1.2728    1.6476 C   0  0  2  0  0  0  0  0  0  0  0  0
    3.4682   -2.6132    0.7171 C   0  0  1  0  0  0  0  0  0  0  0  0
    2.6988   -3.7069    1.0603 O   0  0  0  0  0  0  0  0  0  0  0  0
    2.0923   -0.9479    1.1160 C   0  0  1  0  0  0  0  0  0  0  0  0
   -0.3627    0.7718    0.8137 H   0  0  0  0  0  0  0  0  0  0  0  0
   -0.3260    0.5923   -0.9540 H   0  0  0  0  0  0  0  0  0  0  0  0
   -0.4680   -0.8440    0.0732 H   0  0  0  0  0  0  0  0  0  0  0  0
    1.9717    1.0213   -0.0328 H   0  0  0  0  0  0  0  0  0  0  0  0
    5.1127   -0.9000    0.0824 H   0  0  0  0  0  0  0  0  0  0  0  0
    4.0320    0.5108    0.3898 H   0  0  0  0  0  0  0  0  0  0  0  0
    3.9154   -1.2486    2.6707 H   0  0  0  0  0  0  0  0  0  0  0  0
    4.4476   -2.9985    0.4192 H   0  0  0  0  0  0  0  0  0  0  0  0
    1.7889   -3.4227    1.2057 H   0  0  0  0  0  0  0  0  0  0  0  0
    1.2984   -1.6130    1.4693 H   0  0  0  0  0  0  0  0  0  0  0  0
  1  2  1  0  0  0  0
  1 12  1  0  0  0  0
  1 10  1  0  0  0  0
  2 13  1  1  0  0  0
  2  9  1  0  0  0  0
  3  2  1  0  0  0  0
  4  3  1  6  0  0  0
  4  5  1  0  0  0  0
  4  7  1  0  0  0  0
  4  9  1  0  0  0  0
  5  6  1  0  0  0  0
  6 16  1  1  0  0  0
  7 17  1  6  0  0  0
  7  8  1  0  0  0  0
  7  6  1  0  0  0  0
  8 18  1  0  0  0  0
  9 19  1  1  0  0  0
  9  6  1  0  0  0  0
 11  1  1  0  0  0  0
 14  5  1  0  0  0  0
 15  5  1  0  0  0  0
M TOR 0 0 1 2 3
M TOR 1 0 1 8 3
M TOR 2 0 1 8 5
M TOR 3 0 1 8 18
M TOR 4 1 2 3 4
M TOR 5 1 2 3 6
M TOR 6 1 2 3 8
M TOR 7 1 8 3 4
M TOR 8 1 8 3 6
M TOR 9 1 8 5 4
M TOR 10 1 8 5 6
M TOR 11 1 8 5 15
M TOR 12 2 1 0 9
M TOR 13 2 1 0 10
M TOR 14 2 1 0 11
M TOR 15 2 1 8 5
M TOR 16 2 1 8 18
M TOR 17 2 3 4 5
M TOR 18 2 3 4 13
M TOR 19 2 3 4 14
M TOR 20 2 3 6 5
M TOR 21 2 3 6 7
M TOR 22 2 3 6 16
M TOR 23 2 3 8 5
M TOR 24 2 3 8 18
M TOR 25 3 2 1 12
M TOR 26 3 4 5 6
M TOR 27 3 4 5 8
M TOR 28 3 4 5 15
M TOR 29 3 6 5 8
M TOR 30 3 6 5 15
M TOR 31 3 6 7 17
M TOR 32 3 8 1 12
M TOR 33 3 8 5 15
M TOR 34 4 3 6 7
M TOR 35 4 3 6 16
M TOR 36 4 3 8 18
M TOR 37 4 5 6 7
M TOR 38 4 5 6 16
M TOR 39 4 5 8 18
M TOR 40 5 6 7 17
M TOR 41 5 8 1 12
M TOR 42 6 3 4 13
M TOR 43 6 3 4 14
M TOR 44 6 3 8 18
M TOR 45 6 5 4 13
M TOR 46 6 5 4 14
M TOR 47 6 5 8 18
M TOR 48 7 6 3 8
M TOR 49 7 6 5 8
M TOR 50 7 6 5 15
M TOR 51 8 1 0 9
M TOR 52 8 1 0 10
M TOR 53 8 1 0 11
M TOR 54 8 3 4 13
M TOR 55 8 3 4 14
M TOR 56 8 3 6 16
M TOR 57 8 5 4 13
M TOR 58 8 5 4 14
M TOR 59 8 5 6 16
M  END
$$$$
