gdb 1551	2.1702915	1.7121984	1.2919519	2.0403	76.88	-0.24429	-0.025	0.21929	1065.0377	0.154148	-422.537517	-422.528449	-422.527505	-422.570735	34.141
 OpenBabel02181911403D

 19 20  0  0  1  0  0  0  0  0999 V2000
   -0.3788    0.5465   -0.9609 C   0  0  0  0  0  0  0  0  0  0  0  0
    0.9952    0.1305   -0.4547 C   0  0  0  0  0  0  0  0  0  0  0  0
    0.9251   -0.5740    0.8891 C   0  0  0  0  0  0  0  0  0  0  0  0
    1.6388   -0.7139   -1.4882 O   0  0  0  0  0  0  0  0  0  0  0  0
    2.5858    0.2909   -1.7836 C   0  0  2  0  0  0  0  0  0  0  0  0
    3.4738    0.5795   -0.6420 C   0  0  0  0  0  0  0  0  0  0  0  0
    2.0761    1.2114   -0.6562 C   0  0  2  0  0  0  0  0  0  0  0  0
    1.9077    2.6652   -0.6316 C   0  0  0  0  0  0  0  0  0  0  0  0
    0.9243    3.2480   -0.2342 O   0  0  0  0  0  0  0  0  0  0  0  0
   -0.8349    1.2719   -0.2840 H   0  0  0  0  0  0  0  0  0  0  0  0
   -0.3048    1.0041   -1.9504 H   0  0  0  0  0  0  0  0  0  0  0  0
   -1.0203   -0.3369   -1.0350 H   0  0  0  0  0  0  0  0  0  0  0  0
    0.3069   -1.4736    0.8073 H   0  0  0  0  0  0  0  0  0  0  0  0
    1.9129   -0.8724    1.2464 H   0  0  0  0  0  0  0  0  0  0  0  0
    0.4709    0.0878    1.6330 H   0  0  0  0  0  0  0  0  0  0  0  0
    2.7988    0.5122   -2.8238 H   0  0  0  0  0  0  0  0  0  0  0  0
    3.7057   -0.1981    0.0780 H   0  0  0  0  0  0  0  0  0  0  0  0
    4.2713    1.2941   -0.8264 H   0  0  0  0  0  0  0  0  0  0  0  0
    2.7917    3.2277   -1.0136 H   0  0  0  0  0  0  0  0  0  0  0  0
  1  2  1  0  0  0  0
  1 10  1  0  0  0  0
  2  3  1  0  0  0  0
  3 14  1  0  0  0  0
  3 15  1  0  0  0  0
  4  2  1  0  0  0  0
  5 16  1  6  0  0  0
  5  4  1  0  0  0  0
  5  7  1  0  0  0  0
  5  6  1  0  0  0  0
  6 17  1  0  0  0  0
  7  6  1  0  0  0  0
  7  8  1  6  0  0  0
  7  2  1  0  0  0  0
  8  9  2  0  0  0  0
 11  1  1  0  0  0  0
 12  1  1  0  0  0  0
 13  3  1  0  0  0  0
 18  6  1  0  0  0  0
 19  8  1  0  0  0  0
M TOR 0 0 1 2 12
M TOR 1 0 1 2 13
M TOR 2 0 1 2 14
M TOR 3 0 1 3 4
M TOR 4 0 1 6 4
M TOR 5 0 1 6 5
M TOR 6 0 1 6 7
M TOR 7 1 3 4 5
M TOR 8 1 3 4 6
M TOR 9 1 3 4 15
M TOR 10 1 6 4 5
M TOR 11 1 6 4 15
M TOR 12 1 6 5 16
M TOR 13 1 6 5 17
M TOR 14 1 6 7 8
M TOR 15 1 6 7 18
M TOR 16 2 1 0 9
M TOR 17 2 1 0 10
M TOR 18 2 1 0 11
M TOR 19 2 1 3 4
M TOR 20 2 1 6 4
M TOR 21 2 1 6 5
M TOR 22 2 1 6 7
M TOR 23 3 1 0 9
M TOR 24 3 1 0 10
M TOR 25 3 1 0 11
M TOR 26 3 1 2 12
M TOR 27 3 1 2 13
M TOR 28 3 1 2 14
M TOR 29 3 1 6 5
M TOR 30 3 1 6 7
M TOR 31 3 4 5 6
M TOR 32 3 4 5 16
M TOR 33 3 4 5 17
M TOR 34 3 4 6 7
M TOR 35 4 5 6 7
M TOR 36 4 6 5 16
M TOR 37 4 6 5 17
M TOR 38 4 6 7 8
M TOR 39 4 6 7 18
M TOR 40 5 6 4 15
M TOR 41 5 6 7 8
M TOR 42 5 6 7 18
M TOR 43 6 1 0 9
M TOR 44 6 1 0 10
M TOR 45 6 1 0 11
M TOR 46 6 1 2 12
M TOR 47 6 1 2 13
M TOR 48 6 1 2 14
M TOR 49 7 6 4 15
M TOR 50 7 6 5 16
M TOR 51 7 6 5 17
M  END
$$$$
