gdb 3061	2.2407725	1.7127539	1.5685919	2.547	74.62	-0.23934	-0.01624	0.2231	989.5993	0.1577	-422.565069	-422.557012	-422.556067	-422.597566	30.872
 OpenBabel02181911413D

 19 20  0  0  1  0  0  0  0  0999 V2000
   -1.7190   -0.5831   -2.4722 C   0  0  0  0  0  0  0  0  0  0  0  0
   -1.9876   -1.1265   -1.0785 C   0  0  2  0  0  0  0  0  0  0  0  0
   -2.7093   -0.2579   -0.0083 C   0  0  1  0  0  0  0  0  0  0  0  0
   -1.9613   -1.0826    1.0680 C   0  0  0  0  0  0  0  0  0  0  0  0
   -0.8432   -1.2734   -0.0081 C   0  0  2  0  0  0  0  0  0  0  0  0
   -0.0230   -0.0075   -0.0191 C   0  0  0  0  0  0  0  0  0  0  0  0
    1.1801    0.0422   -0.0999 O   0  0  0  0  0  0  0  0  0  0  0  0
   -0.8654    1.2686    0.1234 C   0  0  0  0  0  0  0  0  0  0  0  0
   -2.2677    1.0907   -0.0500 O   0  0  0  0  0  0  0  0  0  0  0  0
   -1.0270   -1.2324   -3.0184 H   0  0  0  0  0  0  0  0  0  0  0  0
   -2.6498   -0.5285   -3.0466 H   0  0  0  0  0  0  0  0  0  0  0  0
   -1.2910    0.4223   -2.4486 H   0  0  0  0  0  0  0  0  0  0  0  0
   -2.4995   -2.0928   -1.1426 H   0  0  0  0  0  0  0  0  0  0  0  0
   -3.7996   -0.2134   -0.0001 H   0  0  0  0  0  0  0  0  0  0  0  0
   -1.7059   -0.5862    2.0070 H   0  0  0  0  0  0  0  0  0  0  0  0
   -2.4691   -2.0257    1.2790 H   0  0  0  0  0  0  0  0  0  0  0  0
   -0.2083   -2.1598   -0.0057 H   0  0  0  0  0  0  0  0  0  0  0  0
   -0.6592    1.6817    1.1226 H   0  0  0  0  0  0  0  0  0  0  0  0
   -0.5121    2.0049   -0.6058 H   0  0  0  0  0  0  0  0  0  0  0  0
  1 12  1  0  0  0  0
  1  2  1  0  0  0  0
  2 13  1  6  0  0  0
  2  3  1  0  0  0  0
  2  5  1  0  0  0  0
  3 14  1  1  0  0  0
  3  4  1  0  0  0  0
  4 16  1  0  0  0  0
  4 15  1  0  0  0  0
  5 17  1  1  0  0  0
  5  4  1  0  0  0  0
  6  5  1  0  0  0  0
  6  8  1  0  0  0  0
  7  6  2  0  0  0  0
  8 18  1  0  0  0  0
  9  3  1  0  0  0  0
  9  8  1  0  0  0  0
 10  1  1  0  0  0  0
 11  1  1  0  0  0  0
 19  8  1  0  0  0  0
M TOR 0 0 1 2 3
M TOR 1 0 1 2 8
M TOR 2 0 1 2 13
M TOR 3 0 1 4 3
M TOR 4 0 1 4 5
M TOR 5 0 1 4 16
M TOR 6 1 2 3 4
M TOR 7 1 2 3 14
M TOR 8 1 2 3 15
M TOR 9 1 2 8 7
M TOR 10 1 4 3 14
M TOR 11 1 4 3 15
M TOR 12 1 4 5 6
M TOR 13 1 4 5 7
M TOR 14 2 1 0 9
M TOR 15 2 1 0 10
M TOR 16 2 1 0 11
M TOR 17 2 1 4 5
M TOR 18 2 1 4 16
M TOR 19 2 3 4 5
M TOR 20 2 3 4 16
M TOR 21 2 8 7 5
M TOR 22 2 8 7 17
M TOR 23 2 8 7 18
M TOR 24 3 2 1 12
M TOR 25 3 2 8 7
M TOR 26 3 4 1 12
M TOR 27 3 4 5 6
M TOR 28 3 4 5 7
M TOR 29 4 1 0 9
M TOR 30 4 1 0 10
M TOR 31 4 1 0 11
M TOR 32 4 1 2 8
M TOR 33 4 1 2 13
M TOR 34 4 3 2 8
M TOR 35 4 3 2 13
M TOR 36 4 5 7 8
M TOR 37 4 5 7 17
M TOR 38 4 5 7 18
M TOR 39 5 4 1 12
M TOR 40 5 4 3 14
M TOR 41 5 4 3 15
M TOR 42 6 5 4 16
M TOR 43 6 5 7 8
M TOR 44 6 5 7 17
M TOR 45 6 5 7 18
M TOR 46 7 5 4 16
M TOR 47 7 8 2 13
M TOR 48 8 2 1 12
M TOR 49 8 2 3 14
M TOR 50 8 2 3 15
M  END
$$$$
