gdb 3738	2.9403974	1.3179624	1.1525379	2.8627	75.93	-0.22905	0.05627	0.28532	1138.5988	0.155586	-422.492572	-422.484008	-422.483063	-422.525664	32.846
 OpenBabel02181911413D

 19 21  0  0  1  0  0  0  0  0999 V2000
   -0.5607    0.9497    0.4896 O   0  0  0  0  0  0  0  0  0  0  0  0
   -1.7892    0.2966    0.5294 C   0  0  2  0  0  0  0  0  0  0  0  0
   -3.0035    1.0019    1.1283 C   0  0  0  0  0  0  0  0  0  0  0  0
   -2.3043   -0.0874    1.8793 C   0  0  2  0  0  0  0  0  0  0  0  0
   -1.4529    0.2235    2.9947 O   0  0  0  0  0  0  0  0  0  0  0  0
   -1.7312   -1.0693    3.6018 C   0  0  0  0  0  0  0  0  0  0  0  0
   -2.7241   -1.3998    2.4907 C   0  0  0  0  0  0  0  0  0  0  0  0
   -4.0987   -1.9791    2.6124 C   0  0  0  0  0  0  0  0  0  0  0  0
   -3.0260   -2.7077    1.8315 C   0  0  0  0  0  0  0  0  0  0  0  0
   -0.1918    0.8797    1.3823 H   0  0  0  0  0  0  0  0  0  0  0  0
   -1.9513   -0.3679   -0.3164 H   0  0  0  0  0  0  0  0  0  0  0  0
   -2.8560    2.0144    1.4905 H   0  0  0  0  0  0  0  0  0  0  0  0
   -3.9824    0.7953    0.7051 H   0  0  0  0  0  0  0  0  0  0  0  0
   -0.8330   -1.6971    3.6416 H   0  0  0  0  0  0  0  0  0  0  0  0
   -2.1467   -0.9531    4.6087 H   0  0  0  0  0  0  0  0  0  0  0  0
   -4.3990   -2.3837    3.5739 H   0  0  0  0  0  0  0  0  0  0  0  0
   -4.9013   -1.5016    2.0591 H   0  0  0  0  0  0  0  0  0  0  0  0
   -2.5976   -3.6071    2.2624 H   0  0  0  0  0  0  0  0  0  0  0  0
   -3.1026   -2.7273    0.7488 H   0  0  0  0  0  0  0  0  0  0  0  0
  1  2  1  0  0  0  0
  1 10  1  0  0  0  0
  2 11  1  6  0  0  0
  2  3  1  0  0  0  0
  2  4  1  0  0  0  0
  3 12  1  0  0  0  0
  3  4  1  0  0  0  0
  4  7  1  0  0  0  0
  4  5  1  1  0  0  0
  5  6  1  0  0  0  0
  6 14  1  0  0  0  0
  6 15  1  0  0  0  0
  7  8  1  0  0  0  0
  7  6  1  0  0  0  0
  8 16  1  0  0  0  0
  9 18  1  0  0  0  0
  9  7  1  0  0  0  0
  9  8  1  0  0  0  0
 13  3  1  0  0  0  0
 17  8  1  0  0  0  0
 19  9  1  0  0  0  0
M TOR 0 0 1 2 3
M TOR 1 0 1 2 11
M TOR 2 0 1 2 12
M TOR 3 0 1 3 4
M TOR 4 0 1 3 6
M TOR 5 1 2 3 4
M TOR 6 1 2 3 6
M TOR 7 1 3 2 11
M TOR 8 1 3 2 12
M TOR 9 1 3 4 5
M TOR 10 1 3 6 5
M TOR 11 1 3 6 7
M TOR 12 1 3 6 8
M TOR 13 2 1 0 9
M TOR 14 2 3 1 10
M TOR 15 2 3 4 5
M TOR 16 2 3 6 5
M TOR 17 2 3 6 7
M TOR 18 2 3 6 8
M TOR 19 3 1 0 9
M TOR 20 3 4 5 6
M TOR 21 3 4 5 13
M TOR 22 3 4 5 14
M TOR 23 3 6 5 13
M TOR 24 3 6 5 14
M TOR 25 3 6 7 8
M TOR 26 3 6 7 15
M TOR 27 3 6 7 16
M TOR 28 3 6 8 17
M TOR 29 3 6 8 18
M TOR 30 4 3 1 10
M TOR 31 4 3 2 11
M TOR 32 4 3 2 12
M TOR 33 4 3 6 7
M TOR 34 4 3 6 8
M TOR 35 4 5 6 7
M TOR 36 4 5 6 8
M TOR 37 5 6 7 8
M TOR 38 5 6 7 15
M TOR 39 5 6 7 16
M TOR 40 5 6 8 17
M TOR 41 5 6 8 18
M TOR 42 6 3 1 10
M TOR 43 6 3 2 11
M TOR 44 6 3 2 12
M TOR 45 6 7 8 17
M TOR 46 6 7 8 18
M TOR 47 6 8 7 15
M TOR 48 6 8 7 16
M TOR 49 7 6 5 13
M TOR 50 7 6 5 14
M TOR 51 8 6 5 13
M TOR 52 8 6 5 14
M  END
$$$$
