
     RDKit          3D

 19 19  0  0  0  0  0  0  0  0999 V2000
   -0.5536    3.0863   -1.3176 C   0  0  0  0  0  0  0  0  0  0  0  0
   -0.8586    2.5349    0.0550 C   0  0  0  0  0  0  0  0  0  0  0  0
   -0.6421    3.1449    1.0760 O   0  0  0  0  0  0  0  0  0  0  0  0
   -1.4393    1.1142    0.0881 C   0  0  0  0  0  0  0  0  0  0  0  0
   -2.0565    0.6927    1.4276 C   0  0  0  0  0  0  0  0  0  0  0  0
   -1.7587   -0.8166    1.5587 C   0  0  0  0  0  0  0  0  0  0  0  0
   -0.3685   -0.9758    0.9300 C   0  0  0  0  0  0  0  0  0  0  0  0
   -0.3264    0.0629   -0.1871 C   0  0  0  0  0  0  0  0  0  0  0  0
    0.4241    0.0713   -1.1281 O   0  0  0  0  0  0  0  0  0  0  0  0
    0.0598    2.3645   -1.8674 H   0  0  0  0  0  0  0  0  0  0  0  0
   -1.4856    3.2104   -1.8818 H   0  0  0  0  0  0  0  0  0  0  0  0
   -0.0458    4.0478   -1.2339 H   0  0  0  0  0  0  0  0  0  0  0  0
   -2.1444    1.0129   -0.7472 H   0  0  0  0  0  0  0  0  0  0  0  0
   -1.5597    1.2568    2.2229 H   0  0  0  0  0  0  0  0  0  0  0  0
   -3.1239    0.9175    1.4867 H   0  0  0  0  0  0  0  0  0  0  0  0
   -1.8012   -1.1616    2.5943 H   0  0  0  0  0  0  0  0  0  0  0  0
   -2.4920   -1.4007    0.9906 H   0  0  0  0  0  0  0  0  0  0  0  0
    0.4173   -0.7008    1.6477 H   0  0  0  0  0  0  0  0  0  0  0  0
   -0.1262   -1.9695    0.5479 H   0  0  0  0  0  0  0  0  0  0  0  0
  1  2  1  0
  2  3  2  0
  2  4  1  0
  4  5  1  0
  5  6  1  0
  6  7  1  0
  7  8  1  0
  8  9  2  0
  8  4  1  0
  1 10  1  0
  1 11  1  0
  1 12  1  0
  4 13  1  0
  5 14  1  0
  5 15  1  0
  6 16  1  0
  6 17  1  0
  7 18  1  0
  7 19  1  0
M  END
$$$$
