
     RDKit          3D

 19 20  0  0  0  0  0  0  0  0999 V2000
    1.2934    1.1637    0.1882 C   0  0  0  0  0  0  0  0  0  0  0  0
    0.9957   -0.3214   -0.0246 C   0  0  0  0  0  0  0  0  0  0  0  0
    1.8633   -0.9541   -1.1088 C   0  0  0  0  0  0  0  0  0  0  0  0
    3.2419   -0.9341   -0.7296 O   0  0  0  0  0  0  0  0  0  0  0  0
    3.8276   -2.1889   -0.9699 C   0  0  0  0  0  0  0  0  0  0  0  0
    3.8360   -2.6868   -2.3720 C   0  0  0  0  0  0  0  0  0  0  0  0
    2.7790   -3.1985   -1.3778 C   0  0  0  0  0  0  0  0  0  0  0  0
    1.5025   -2.4326   -1.3602 C   0  0  0  0  0  0  0  0  0  0  0  0
    0.3788   -2.8596   -1.4543 O   0  0  0  0  0  0  0  0  0  0  0  0
    0.6658    1.5775    0.9829 H   0  0  0  0  0  0  0  0  0  0  0  0
    2.3400    1.3139    0.4673 H   0  0  0  0  0  0  0  0  0  0  0  0
    1.1024    1.7402   -0.7238 H   0  0  0  0  0  0  0  0  0  0  0  0
    1.1508   -0.8765    0.9081 H   0  0  0  0  0  0  0  0  0  0  0  0
   -0.0481   -0.4783   -0.3181 H   0  0  0  0  0  0  0  0  0  0  0  0
    1.7314   -0.3979   -2.0513 H   0  0  0  0  0  0  0  0  0  0  0  0
    4.6329   -2.4134   -0.2807 H   0  0  0  0  0  0  0  0  0  0  0  0
    3.5251   -2.0210   -3.1697 H   0  0  0  0  0  0  0  0  0  0  0  0
    4.5908   -3.4128   -2.6522 H   0  0  0  0  0  0  0  0  0  0  0  0
    2.7709   -4.2423   -1.0941 H   0  0  0  0  0  0  0  0  0  0  0  0
  1  2  1  0
  2  3  1  0
  3  4  1  0
  4  5  1  0
  5  6  1  0
  6  7  1  0
  7  8  1  0
  8  9  2  0
  8  3  1  0
  7  5  1  0
  1 10  1  0
  1 11  1  0
  1 12  1  0
  2 13  1  0
  2 14  1  0
  3 15  1  0
  5 16  1  0
  6 17  1  0
  6 18  1  0
  7 19  1  0
M  END
$$$$
