gdb 1769	2.6028012	1.7649239	1.3290286	0.6959	73.84	-0.24445	0.06881	0.31326	1009.7161	0.156717	-422.5237	-422.515878	-422.514934	-422.555214	31.973
 OpenBabel02181911403D

 19 21  0  0  1  0  0  0  0  0999 V2000
    0.4231    0.7557   -1.8396 C   0  0  0  0  0  0  0  0  0  0  0  0
    1.6994    0.4716   -1.0829 C   0  0  2  0  0  0  0  0  0  0  0  0
    3.1225    0.5250   -1.7575 C   0  0  0  0  0  0  0  0  0  0  0  0
    3.5095   -0.3127   -0.5006 C   0  0  2  0  0  0  0  0  0  0  0  0
    4.7025   -1.0295   -0.5171 O   0  0  0  0  0  0  0  0  0  0  0  0
    2.1006   -0.9613   -0.6166 C   0  0  0  0  0  0  0  0  0  0  0  0
    3.2932    0.7615    0.5998 C   0  0  2  0  0  0  0  0  0  0  0  0
    2.1238    0.5860    1.4186 O   0  0  0  0  0  0  0  0  0  0  0  0
    2.0095    1.3145    0.1842 C   0  0  2  0  0  0  0  0  0  0  0  0
   -0.4560    0.5478   -1.2198 H   0  0  0  0  0  0  0  0  0  0  0  0
    0.3708    1.8065   -2.1484 H   0  0  0  0  0  0  0  0  0  0  0  0
    0.3503    0.1403   -2.7419 H   0  0  0  0  0  0  0  0  0  0  0  0
    3.1824   -0.0512   -2.6845 H   0  0  0  0  0  0  0  0  0  0  0  0
    3.5949    1.5044   -1.8817 H   0  0  0  0  0  0  0  0  0  0  0  0
    4.7637   -1.5360    0.3001 H   0  0  0  0  0  0  0  0  0  0  0  0
    2.0666   -1.6718   -1.4447 H   0  0  0  0  0  0  0  0  0  0  0  0
    1.6310   -1.3625    0.2802 H   0  0  0  0  0  0  0  0  0  0  0  0
    4.1231    1.3116    1.0317 H   0  0  0  0  0  0  0  0  0  0  0  0
    1.7137    2.3560    0.2665 H   0  0  0  0  0  0  0  0  0  0  0  0
  1 10  1  0  0  0  0
  2  1  1  6  0  0  0
  2  6  1  0  0  0  0
  2  9  1  0  0  0  0
  3  2  1  0  0  0  0
  3  4  1  0  0  0  0
  4  5  1  6  0  0  0
  4  7  1  0  0  0  0
  5 15  1  0  0  0  0
  6  4  1  0  0  0  0
  6 17  1  0  0  0  0
  7 18  1  1  0  0  0
  7  8  1  0  0  0  0
  9 19  1  1  0  0  0
  9  7  1  0  0  0  0
  9  8  1  0  0  0  0
 11  1  1  0  0  0  0
 12  1  1  0  0  0  0
 13  3  1  0  0  0  0
 14  3  1  0  0  0  0
 16  6  1  0  0  0  0
M TOR 0 0 1 2 3
M TOR 1 0 1 2 12
M TOR 2 0 1 2 13
M TOR 3 0 1 5 3
M TOR 4 0 1 5 15
M TOR 5 0 1 5 16
M TOR 6 0 1 8 6
M TOR 7 0 1 8 7
M TOR 8 0 1 8 18
M TOR 9 1 2 3 4
M TOR 10 1 2 3 5
M TOR 11 1 2 3 6
M TOR 12 1 5 3 4
M TOR 13 1 5 3 6
M TOR 14 1 8 6 3
M TOR 15 1 8 6 7
M TOR 16 1 8 6 17
M TOR 17 2 1 0 9
M TOR 18 2 1 0 10
M TOR 19 2 1 0 11
M TOR 20 2 1 5 15
M TOR 21 2 1 5 16
M TOR 22 2 1 8 6
M TOR 23 2 1 8 7
M TOR 24 2 1 8 18
M TOR 25 2 3 4 14
M TOR 26 2 3 5 15
M TOR 27 2 3 5 16
M TOR 28 2 3 6 7
M TOR 29 2 3 6 8
M TOR 30 2 3 6 17
M TOR 31 3 2 1 8
M TOR 32 3 5 1 8
M TOR 33 3 6 7 8
M TOR 34 3 6 8 18
M TOR 35 4 3 2 12
M TOR 36 4 3 2 13
M TOR 37 4 3 5 15
M TOR 38 4 3 5 16
M TOR 39 4 3 6 7
M TOR 40 4 3 6 8
M TOR 41 4 3 6 17
M TOR 42 5 1 0 9
M TOR 43 5 1 0 10
M TOR 44 5 1 0 11
M TOR 45 5 1 2 12
M TOR 46 5 1 2 13
M TOR 47 5 1 8 6
M TOR 48 5 1 8 7
M TOR 49 5 1 8 18
M TOR 50 5 3 2 12
M TOR 51 5 3 2 13
M TOR 52 5 3 4 14
M TOR 53 5 3 6 7
M TOR 54 5 3 6 8
M TOR 55 5 3 6 17
M TOR 56 6 3 2 12
M TOR 57 6 3 2 13
M TOR 58 6 3 4 14
M TOR 59 6 3 5 15
M TOR 60 6 3 5 16
M TOR 61 6 7 8 18
M TOR 62 7 8 6 17
M TOR 63 8 1 0 9
M TOR 64 8 1 0 10
M TOR 65 8 1 0 11
M TOR 66 8 1 2 12
M TOR 67 8 1 2 13
M TOR 68 8 1 5 15
M TOR 69 8 1 5 16
M  END
$$$$
