
     RDKit          3D

 19 19  0  0  0  0  0  0  0  0999 V2000
    1.0509   -0.8510    0.0088 O   0  0  0  0  0  0  0  0  0  0  0  0
    0.7713    0.5136    0.1155 C   0  0  0  0  0  0  0  0  0  0  0  0
   -0.2333    0.7785    1.2375 C   0  0  0  0  0  0  0  0  0  0  0  0
   -0.6480   -0.1725    1.8694 O   0  0  0  0  0  0  0  0  0  0  0  0
   -0.6873    2.1963    1.5378 C   0  0  0  0  0  0  0  0  0  0  0  0
   -1.3565    2.8724    0.2959 C   0  0  0  0  0  0  0  0  0  0  0  0
   -0.3234    3.8665   -0.1746 C   0  0  0  0  0  0  0  0  0  0  0  0
    0.6790    4.0043    0.6900 C   0  0  0  0  0  0  0  0  0  0  0  0
    0.5125    3.1293    1.9082 C   0  0  0  0  0  0  0  0  0  0  0  0
    0.5108   -1.2673    0.7008 H   0  0  0  0  0  0  0  0  0  0  0  0
    1.6865    1.0927    0.3143 H   0  0  0  0  0  0  0  0  0  0  0  0
    0.3635    0.9108   -0.8271 H   0  0  0  0  0  0  0  0  0  0  0  0
   -1.3902    2.1057    2.3671 H   0  0  0  0  0  0  0  0  0  0  0  0
   -1.6391    2.1472   -0.4762 H   0  0  0  0  0  0  0  0  0  0  0  0
   -2.2871    3.3768    0.5863 H   0  0  0  0  0  0  0  0  0  0  0  0
   -0.4333    4.4197   -1.1006 H   0  0  0  0  0  0  0  0  0  0  0  0
    1.5137    4.6874    0.5788 H   0  0  0  0  0  0  0  0  0  0  0  0
    1.4191    2.5677    2.1619 H   0  0  0  0  0  0  0  0  0  0  0  0
    0.2746    3.7291    2.7962 H   0  0  0  0  0  0  0  0  0  0  0  0
  1  2  1  0
  2  3  1  0
  3  4  2  0
  3  5  1  0
  5  6  1  0
  6  7  1  0
  7  8  2  0
  8  9  1  0
  9  5  1  0
  1 10  1  0
  2 11  1  0
  2 12  1  0
  5 13  1  0
  6 14  1  0
  6 15  1  0
  7 16  1  0
  8 17  1  0
  9 18  1  0
  9 19  1  0
M  END
$$$$
