gdb 2594	2.4565591	1.6705216	1.0992175	2.5511	78.36	-0.23865	-0.00018	0.23847	1128.3879	0.157344	-422.530668	-422.522359	-422.521414	-422.563799	31.259
 OpenBabel02181911413D

 19 20  0  0  1  0  0  0  0  0999 V2000
    1.2575   -0.3384    4.4833 C   0  0  0  0  0  0  0  0  0  0  0  0
    1.3792   -0.6342    3.0074 C   0  0  0  0  0  0  0  0  0  0  0  0
    0.5704   -1.5147    2.4116 C   0  0  0  0  0  0  0  0  0  0  0  0
    0.5733   -1.9571    0.9710 C   0  0  0  0  0  0  0  0  0  0  0  0
    1.8535   -2.1053    0.3860 O   0  0  0  0  0  0  0  0  0  0  0  0
    2.4224   -0.9216   -0.1029 C   0  0  0  0  0  0  0  0  0  0  0  0
    2.9351    0.0403    0.9463 C   0  0  2  0  0  0  0  0  0  0  0  0
    3.7109   -0.4894    2.0128 O   0  0  0  0  0  0  0  0  0  0  0  0
    2.4543    0.1532    2.3331 C   0  0  2  0  0  0  0  0  0  0  0  0
    0.4488   -0.9102    4.9442 H   0  0  0  0  0  0  0  0  0  0  0  0
    2.1899   -0.5805    5.0082 H   0  0  0  0  0  0  0  0  0  0  0  0
    1.0669    0.7279    4.6598 H   0  0  0  0  0  0  0  0  0  0  0  0
   -0.1862   -1.9995    3.0268 H   0  0  0  0  0  0  0  0  0  0  0  0
    0.1054   -2.9456    0.9097 H   0  0  0  0  0  0  0  0  0  0  0  0
   -0.0451   -1.2773    0.3570 H   0  0  0  0  0  0  0  0  0  0  0  0
    3.2702   -1.2298   -0.7263 H   0  0  0  0  0  0  0  0  0  0  0  0
    1.7151   -0.3756   -0.7531 H   0  0  0  0  0  0  0  0  0  0  0  0
    3.3483    0.9509    0.4989 H   0  0  0  0  0  0  0  0  0  0  0  0
    2.6094    1.1273    2.8038 H   0  0  0  0  0  0  0  0  0  0  0  0
  1 12  1  0  0  0  0
  1 10  1  0  0  0  0
  1 11  1  0  0  0  0
  2  1  1  0  0  0  0
  3  2  2  0  0  0  0
  3 13  1  0  0  0  0
  4  3  1  0  0  0  0
  5  4  1  0  0  0  0
  6  5  1  0  0  0  0
  6  7  1  0  0  0  0
  7 18  1  6  0  0  0
  7  8  1  0  0  0  0
  7  9  1  0  0  0  0
  8  9  1  0  0  0  0
  9 19  1  1  0  0  0
  9  2  1  0  0  0  0
 14  4  1  0  0  0  0
 15  4  1  0  0  0  0
 16  6  1  0  0  0  0
 17  6  1  0  0  0  0
M TOR 0 0 1 2 3
M TOR 1 0 1 2 12
M TOR 2 0 1 8 6
M TOR 3 0 1 8 7
M TOR 4 0 1 8 18
M TOR 5 1 2 3 4
M TOR 6 1 2 3 13
M TOR 7 1 2 3 14
M TOR 8 1 8 6 5
M TOR 9 1 8 6 7
M TOR 10 1 8 6 17
M TOR 11 2 1 0 9
M TOR 12 2 1 0 10
M TOR 13 2 1 0 11
M TOR 14 2 1 8 6
M TOR 15 2 1 8 7
M TOR 16 2 1 8 18
M TOR 17 2 3 4 5
M TOR 18 3 2 1 8
M TOR 19 3 4 5 6
M TOR 20 3 4 5 15
M TOR 21 3 4 5 16
M TOR 22 4 3 2 12
M TOR 23 4 5 6 7
M TOR 24 4 5 6 8
M TOR 25 4 5 6 17
M TOR 26 5 4 3 13
M TOR 27 5 4 3 14
M TOR 28 5 6 7 8
M TOR 29 5 6 8 18
M TOR 30 6 7 8 18
M TOR 31 7 6 5 15
M TOR 32 7 6 5 16
M TOR 33 7 8 6 17
M TOR 34 8 1 0 9
M TOR 35 8 1 0 10
M TOR 36 8 1 0 11
M TOR 37 8 1 2 12
M TOR 38 8 6 5 15
M TOR 39 8 6 5 16
M  END
$$$$
