gdb 2043	2.4334273	1.3962928	1.3171428	3.2175	75.55	-0.2379	-0.02293	0.21497	1095.6531	0.153976	-422.53931	-422.530044	-422.529099	-422.573032	34.251
 OpenBabel02181911403D

 19 20  0  0  1  0  0  0  0  0999 V2000
    2.3805   -1.3484   -1.0349 C   0  0  0  0  0  0  0  0  0  0  0  0
    2.3224   -0.4963    0.1904 C   0  0  1  0  0  0  0  0  0  0  0  0
    3.3624   -0.6406    1.1683 O   0  0  0  0  0  0  0  0  0  0  0  0
    3.0926    0.6713    0.6516 C   0  0  2  0  0  0  0  0  0  0  0  0
    1.9114    1.2246    1.4503 C   0  0  0  0  0  0  0  0  0  0  0  0
    1.0452   -0.0081    0.9600 C   0  0  1  0  0  0  0  0  0  0  0  0
   -0.1193    0.3846    0.0611 C   0  0  0  0  0  0  0  0  0  0  0  0
    0.6220   -0.9492    2.0655 C   0  0  0  0  0  0  0  0  0  0  0  0
   -0.5155   -1.3015    2.2630 O   0  0  0  0  0  0  0  0  0  0  0  0
    2.0853   -2.3787   -0.8068 H   0  0  0  0  0  0  0  0  0  0  0  0
    1.7092   -0.9692   -1.8107 H   0  0  0  0  0  0  0  0  0  0  0  0
    3.3997   -1.3664   -1.4301 H   0  0  0  0  0  0  0  0  0  0  0  0
    3.9239    1.1986    0.1975 H   0  0  0  0  0  0  0  0  0  0  0  0
    2.0856    1.3156    2.5256 H   0  0  0  0  0  0  0  0  0  0  0  0
    1.5085    2.1635    1.0641 H   0  0  0  0  0  0  0  0  0  0  0  0
   -0.8866    0.9071    0.6385 H   0  0  0  0  0  0  0  0  0  0  0  0
    0.2136    1.0428   -0.7480 H   0  0  0  0  0  0  0  0  0  0  0  0
   -0.5909   -0.4981   -0.3797 H   0  0  0  0  0  0  0  0  0  0  0  0
    1.4567   -1.3067    2.7028 H   0  0  0  0  0  0  0  0  0  0  0  0
  1 10  1  0  0  0  0
  2  1  1  6  0  0  0
  2  4  1  0  0  0  0
  2  6  1  0  0  0  0
  2  3  1  0  0  0  0
  4 13  1  6  0  0  0
  4  3  1  0  0  0  0
  4  5  1  0  0  0  0
  5 14  1  0  0  0  0
  6  5  1  0  0  0  0
  6  8  1  1  0  0  0
  7 16  1  0  0  0  0
  7  6  1  0  0  0  0
  8  9  2  0  0  0  0
  8 19  1  0  0  0  0
 11  1  1  0  0  0  0
 12  1  1  0  0  0  0
 15  5  1  0  0  0  0
 17  7  1  0  0  0  0
 18  7  1  0  0  0  0
M TOR 0 0 1 2 3
M TOR 1 0 1 3 4
M TOR 2 0 1 3 12
M TOR 3 0 1 5 4
M TOR 4 0 1 5 6
M TOR 5 0 1 5 7
M TOR 6 1 2 3 4
M TOR 7 1 2 3 12
M TOR 8 1 3 4 5
M TOR 9 1 3 4 13
M TOR 10 1 3 4 14
M TOR 11 1 5 4 13
M TOR 12 1 5 4 14
M TOR 13 1 5 6 15
M TOR 14 1 5 6 16
M TOR 15 1 5 6 17
M TOR 16 1 5 7 8
M TOR 17 1 5 7 18
M TOR 18 2 1 0 9
M TOR 19 2 1 0 10
M TOR 20 2 1 0 11
M TOR 21 2 1 5 4
M TOR 22 2 1 5 6
M TOR 23 2 1 5 7
M TOR 24 2 3 1 5
M TOR 25 2 3 4 5
M TOR 26 2 3 4 13
M TOR 27 2 3 4 14
M TOR 28 3 1 0 9
M TOR 29 3 1 0 10
M TOR 30 3 1 0 11
M TOR 31 3 1 5 6
M TOR 32 3 1 5 7
M TOR 33 3 4 5 6
M TOR 34 3 4 5 7
M TOR 35 4 5 6 15
M TOR 36 4 5 6 16
M TOR 37 4 5 6 17
M TOR 38 4 5 7 8
M TOR 39 4 5 7 18
M TOR 40 5 1 0 9
M TOR 41 5 1 0 10
M TOR 42 5 1 0 11
M TOR 43 5 1 3 12
M TOR 44 5 4 3 12
M TOR 45 6 5 4 13
M TOR 46 6 5 4 14
M TOR 47 6 5 7 8
M TOR 48 6 5 7 18
M TOR 49 7 5 4 13
M TOR 50 7 5 4 14
M TOR 51 7 5 6 15
M TOR 52 7 5 6 16
M TOR 53 7 5 6 17
M  END
$$$$
