gdb 819	3.571439	1.041281	0.9237178	4.197	78.21	-0.2414	-0.01562	0.22578	1296.7122	0.157864	-422.556118	-422.547962	-422.547018	-422.589085	30.689
 OpenBabel02181911403D

 19 20  0  0  1  0  0  0  0  0999 V2000
    0.8060   -1.0231   -0.4546 O   0  0  0  0  0  0  0  0  0  0  0  0
    0.4347    0.0550   -0.0588 C   0  0  0  0  0  0  0  0  0  0  0  0
    0.1566    1.2245   -0.9125 C   0  0  1  0  0  0  0  0  0  0  0  0
   -0.9520    2.1950   -0.4965 C   0  0  2  0  0  0  0  0  0  0  0  0
   -1.8520    2.8416   -1.5370 C   0  0  0  0  0  0  0  0  0  0  0  0
   -1.0471    3.6249   -2.5872 C   0  0  0  0  0  0  0  0  0  0  0  0
    0.0702    4.4092   -1.9049 C   0  0  0  0  0  0  0  0  0  0  0  0
    1.0139    3.5404   -1.2810 O   0  0  0  0  0  0  0  0  0  0  0  0
    0.4680    2.6313   -0.3799 C   0  0  2  0  0  0  0  0  0  0  0  0
    0.2745    0.2414    1.0317 H   0  0  0  0  0  0  0  0  0  0  0  0
    0.3317    1.0795   -1.9727 H   0  0  0  0  0  0  0  0  0  0  0  0
   -1.4437    1.9396    0.4389 H   0  0  0  0  0  0  0  0  0  0  0  0
   -2.4949    2.0925   -2.0115 H   0  0  0  0  0  0  0  0  0  0  0  0
   -2.5174    3.5394   -1.0131 H   0  0  0  0  0  0  0  0  0  0  0  0
   -0.6030    2.9498   -3.3276 H   0  0  0  0  0  0  0  0  0  0  0  0
   -1.7062    4.3093   -3.1317 H   0  0  0  0  0  0  0  0  0  0  0  0
    0.6502    4.9931   -2.6238 H   0  0  0  0  0  0  0  0  0  0  0  0
   -0.3541    5.1048   -1.1629 H   0  0  0  0  0  0  0  0  0  0  0  0
    0.9211    2.6958    0.6070 H   0  0  0  0  0  0  0  0  0  0  0  0
  1  2  2  0  0  0  0
  2 10  1  0  0  0  0
  3 11  1  6  0  0  0
  3  4  1  0  0  0  0
  3  9  1  0  0  0  0
  3  2  1  0  0  0  0
  4  9  1  0  0  0  0
  4 12  1  1  0  0  0
  5 14  1  0  0  0  0
  5  4  1  0  0  0  0
  6  7  1  0  0  0  0
  6  5  1  0  0  0  0
  7  8  1  0  0  0  0
  7 18  1  0  0  0  0
  8  9  1  0  0  0  0
  9 19  1  1  0  0  0
 13  5  1  0  0  0  0
 15  6  1  0  0  0  0
 16  6  1  0  0  0  0
 17  7  1  0  0  0  0
M TOR 0 0 1 2 3
M TOR 1 0 1 2 8
M TOR 2 0 1 2 10
M TOR 3 1 2 3 4
M TOR 4 1 2 3 8
M TOR 5 1 2 3 11
M TOR 6 1 2 8 7
M TOR 7 1 2 8 18
M TOR 8 2 3 4 5
M TOR 9 2 3 4 12
M TOR 10 2 3 4 13
M TOR 11 2 3 8 7
M TOR 12 2 3 8 18
M TOR 13 2 8 3 4
M TOR 14 2 8 3 11
M TOR 15 2 8 7 6
M TOR 16 3 2 1 9
M TOR 17 3 4 5 6
M TOR 18 3 4 5 14
M TOR 19 3 4 5 15
M TOR 20 3 8 2 10
M TOR 21 3 8 7 6
M TOR 22 4 3 2 10
M TOR 23 4 3 8 7
M TOR 24 4 3 8 18
M TOR 25 4 5 6 7
M TOR 26 4 5 6 16
M TOR 27 4 5 6 17
M TOR 28 5 4 3 8
M TOR 29 5 4 3 11
M TOR 30 5 6 7 8
M TOR 31 6 5 4 12
M TOR 32 6 5 4 13
M TOR 33 6 7 8 18
M TOR 34 7 6 5 14
M TOR 35 7 6 5 15
M TOR 36 7 8 2 10
M TOR 37 7 8 3 11
M TOR 38 8 2 1 9
M TOR 39 8 3 4 12
M TOR 40 8 3 4 13
M TOR 41 8 7 6 16
M TOR 42 8 7 6 17
M  END
$$$$
