
     RDKit          3D

 19 21  0  0  0  0  0  0  0  0999 V2000
    0.6919    0.0549    0.7531 O   0  0  0  0  0  0  0  0  0  0  0  0
   -0.6354    0.4276    0.4591 C   0  0  0  0  0  0  0  0  0  0  0  0
   -1.0865    1.8795    0.5395 C   0  0  0  0  0  0  0  0  0  0  0  0
   -1.4801    2.2807    1.9559 C   0  0  0  0  0  0  0  0  0  0  0  0
   -0.9395    1.4958    3.1554 C   0  0  0  0  0  0  0  0  0  0  0  0
   -1.3552    0.0278    2.8766 C   0  0  0  0  0  0  0  0  0  0  0  0
   -1.8098    0.0291    1.4100 C   0  0  0  0  0  0  0  0  0  0  0  0
   -2.4789   -1.1185    0.9748 O   0  0  0  0  0  0  0  0  0  0  0  0
   -2.4194    1.4470    1.1439 C   0  0  0  0  0  0  0  0  0  0  0  0
    1.0185    0.6282    1.4526 H   0  0  0  0  0  0  0  0  0  0  0  0
   -0.8586    0.0118   -0.5275 H   0  0  0  0  0  0  0  0  0  0  0  0
   -0.9050    2.6351   -0.2164 H   0  0  0  0  0  0  0  0  0  0  0  0
   -1.6885    3.3382    2.0789 H   0  0  0  0  0  0  0  0  0  0  0  0
    0.1447    1.6095    3.2750 H   0  0  0  0  0  0  0  0  0  0  0  0
   -1.3879    1.8668    4.0819 H   0  0  0  0  0  0  0  0  0  0  0  0
   -0.5446   -0.6889    3.0317 H   0  0  0  0  0  0  0  0  0  0  0  0
   -2.1937   -0.2674    3.5203 H   0  0  0  0  0  0  0  0  0  0  0  0
   -3.1533   -1.3430    1.6253 H   0  0  0  0  0  0  0  0  0  0  0  0
   -3.4279    1.6875    0.8372 H   0  0  0  0  0  0  0  0  0  0  0  0
  1  2  1  0
  2  3  1  0
  3  4  1  0
  4  5  1  0
  5  6  1  0
  6  7  1  0
  7  8  1  0
  7  9  1  0
  7  2  1  0
  9  3  1  0
  9  4  1  0
  1 10  1  0
  2 11  1  0
  3 12  1  0
  4 13  1  0
  5 14  1  0
  5 15  1  0
  6 16  1  0
  6 17  1  0
  8 18  1  0
  9 19  1  0
M  END
$$$$
