gdb 5971	3.2521726	1.0626134	0.8870762	2.6223	77.68	-0.23887	-0.00564	0.23323	1349.393	0.15554	-422.531512	-422.522339	-422.521395	-422.56623	32.771
 OpenBabel02181911423D

 19 20  0  0  1  0  0  0  0  0999 V2000
    1.4719   -0.3945    0.7510 C   0  0  0  0  0  0  0  0  0  0  0  0
    0.0979   -0.2506    1.0270 O   0  0  0  0  0  0  0  0  0  0  0  0
   -0.4891    0.8348    0.3411 C   0  0  0  0  0  0  0  0  0  0  0  0
   -1.9502    0.8914    0.6839 C   0  0  1  0  0  0  0  0  0  0  0  0
   -2.7950   -0.3586    0.8977 C   0  0  0  0  0  0  0  0  0  0  0  0
   -2.7165    0.6238    2.0116 C   0  0  2  0  0  0  0  0  0  0  0  0
   -3.6894    1.7810    1.7347 C   0  0  0  0  0  0  0  0  0  0  0  0
   -2.8473    2.0702    0.4626 C   0  0  0  0  0  0  0  0  0  0  0  0
   -2.7824    3.0123   -0.2782 O   0  0  0  0  0  0  0  0  0  0  0  0
    2.0430    0.4979    1.0508 H   0  0  0  0  0  0  0  0  0  0  0  0
    1.8310   -1.2533    1.3228 H   0  0  0  0  0  0  0  0  0  0  0  0
    1.6552   -0.5758   -0.3195 H   0  0  0  0  0  0  0  0  0  0  0  0
    0.0010    1.7824    0.6216 H   0  0  0  0  0  0  0  0  0  0  0  0
   -0.3614    0.7204   -0.7490 H   0  0  0  0  0  0  0  0  0  0  0  0
   -3.7251   -0.4968    0.3524 H   0  0  0  0  0  0  0  0  0  0  0  0
   -2.1867   -1.2499    1.0028 H   0  0  0  0  0  0  0  0  0  0  0  0
   -2.2632    0.3973    2.9668 H   0  0  0  0  0  0  0  0  0  0  0  0
   -4.7435    1.5175    1.6065 H   0  0  0  0  0  0  0  0  0  0  0  0
   -3.6112    2.6230    2.4283 H   0  0  0  0  0  0  0  0  0  0  0  0
  1  2  1  0  0  0  0
  1 10  1  0  0  0  0
  1 11  1  0  0  0  0
  3 13  1  0  0  0  0
  3  2  1  0  0  0  0
  4  3  1  6  0  0  0
  4  5  1  0  0  0  0
  4  6  1  0  0  0  0
  5 16  1  0  0  0  0
  5  6  1  0  0  0  0
  6 17  1  1  0  0  0
  7  6  1  0  0  0  0
  7 19  1  0  0  0  0
  8  4  1  0  0  0  0
  8  7  1  0  0  0  0
  9  8  2  0  0  0  0
 12  1  1  0  0  0  0
 14  3  1  0  0  0  0
 15  5  1  0  0  0  0
 18  7  1  0  0  0  0
M TOR 0 0 1 2 3
M TOR 1 0 1 2 12
M TOR 2 0 1 2 13
M TOR 3 1 2 3 4
M TOR 4 1 2 3 5
M TOR 5 1 2 3 7
M TOR 6 2 1 0 9
M TOR 7 2 1 0 10
M TOR 8 2 1 0 11
M TOR 9 2 3 4 5
M TOR 10 2 3 4 14
M TOR 11 2 3 4 15
M TOR 12 2 3 5 6
M TOR 13 2 3 5 16
M TOR 14 2 3 7 6
M TOR 15 2 3 7 8
M TOR 16 3 4 5 6
M TOR 17 3 4 5 16
M TOR 18 3 5 4 14
M TOR 19 3 5 4 15
M TOR 20 3 5 6 7
M TOR 21 3 5 6 17
M TOR 22 3 5 6 18
M TOR 23 3 7 6 17
M TOR 24 3 7 6 18
M TOR 25 4 3 2 12
M TOR 26 4 3 2 13
M TOR 27 4 3 7 6
M TOR 28 4 3 7 8
M TOR 29 4 5 3 7
M TOR 30 4 5 6 7
M TOR 31 4 5 6 17
M TOR 32 4 5 6 18
M TOR 33 5 3 2 12
M TOR 34 5 3 2 13
M TOR 35 5 3 7 8
M TOR 36 5 6 7 8
M TOR 37 6 5 4 14
M TOR 38 6 5 4 15
M TOR 39 7 3 2 12
M TOR 40 7 3 2 13
M TOR 41 7 3 4 14
M TOR 42 7 3 4 15
M TOR 43 7 3 5 16
M TOR 44 7 6 5 16
M TOR 45 8 7 6 17
M TOR 46 8 7 6 18
M  END
$$$$
