gdb 1279	3.4469116	1.2302522	1.159355	0.9403	74.06	-0.23001	0.06989	0.2999	1131.918	0.155924	-422.491454	-422.483032	-422.482088	-422.524579	32.207
 OpenBabel02181911403D

 19 21  0  0  1  0  0  0  0  0999 V2000
    2.9423    2.3228    4.8450 C   0  0  0  0  0  0  0  0  0  0  0  0
    1.5944    2.3009    5.5720 C   0  0  2  0  0  0  0  0  0  0  0  0
    1.7704    2.1794    6.9845 O   0  0  0  0  0  0  0  0  0  0  0  0
    0.6750    1.2437    5.0274 C   0  0  2  0  0  0  0  0  0  0  0  0
    0.8464   -0.2814    5.0460 C   0  0  0  0  0  0  0  0  0  0  0  0
   -0.6337   -0.3194    4.5880 C   0  0  2  0  0  0  0  0  0  0  0  0
   -0.5887    0.2338    3.2409 O   0  0  0  0  0  0  0  0  0  0  0  0
   -0.3107    1.4862    3.8621 C   0  0  1  0  0  0  0  0  0  0  0  0
   -0.8389    1.1150    5.2038 C   0  0  2  0  0  0  0  0  0  0  0  0
    3.5870    3.0952    5.2724 H   0  0  0  0  0  0  0  0  0  0  0  0
    3.4520    1.3568    4.9435 H   0  0  0  0  0  0  0  0  0  0  0  0
    2.8116    2.5214    3.7768 H   0  0  0  0  0  0  0  0  0  0  0  0
    1.1080    3.2773    5.4484 H   0  0  0  0  0  0  0  0  0  0  0  0
    2.2423    1.3553    7.1473 H   0  0  0  0  0  0  0  0  0  0  0  0
    1.5730   -0.7556    4.3780 H   0  0  0  0  0  0  0  0  0  0  0  0
    0.9561   -0.6560    6.0680 H   0  0  0  0  0  0  0  0  0  0  0  0
   -1.2673   -1.1987    4.6782 H   0  0  0  0  0  0  0  0  0  0  0  0
   -0.3636    2.3933    3.2738 H   0  0  0  0  0  0  0  0  0  0  0  0
   -1.5389    1.5623    5.8953 H   0  0  0  0  0  0  0  0  0  0  0  0
  1 11  1  0  0  0  0
  1 10  1  0  0  0  0
  1  2  1  0  0  0  0
  2 13  1  6  0  0  0
  2  3  1  0  0  0  0
  3 14  1  0  0  0  0
  4  5  1  0  0  0  0
  4  9  1  0  0  0  0
  4  2  1  1  0  0  0
  5 16  1  0  0  0  0
  6 17  1  1  0  0  0
  6  5  1  0  0  0  0
  6  9  1  0  0  0  0
  7  8  1  0  0  0  0
  7  6  1  0  0  0  0
  8 18  1  6  0  0  0
  8  4  1  0  0  0  0
  8  9  1  0  0  0  0
  9 19  1  1  0  0  0
 12  1  1  0  0  0  0
 15  5  1  0  0  0  0
M TOR 0 0 1 2 13
M TOR 1 0 1 3 4
M TOR 2 0 1 3 7
M TOR 3 0 1 3 8
M TOR 4 1 3 4 5
M TOR 5 1 3 4 14
M TOR 6 1 3 4 15
M TOR 7 1 3 7 6
M TOR 8 1 3 7 8
M TOR 9 1 3 7 17
M TOR 10 1 3 8 5
M TOR 11 1 3 8 18
M TOR 12 2 1 0 9
M TOR 13 2 1 0 10
M TOR 14 2 1 0 11
M TOR 15 2 1 3 4
M TOR 16 2 1 3 7
M TOR 17 2 1 3 8
M TOR 18 3 1 0 9
M TOR 19 3 1 0 10
M TOR 20 3 1 0 11
M TOR 21 3 1 2 13
M TOR 22 3 4 5 6
M TOR 23 3 4 5 8
M TOR 24 3 4 5 16
M TOR 25 3 7 6 5
M TOR 26 3 7 8 5
M TOR 27 3 7 8 18
M TOR 28 3 8 5 6
M TOR 29 3 8 5 16
M TOR 30 3 8 7 6
M TOR 31 3 8 7 17
M TOR 32 4 3 1 12
M TOR 33 4 3 7 6
M TOR 34 4 3 7 8
M TOR 35 4 3 7 17
M TOR 36 4 3 8 18
M TOR 37 4 5 6 7
M TOR 38 4 5 8 7
M TOR 39 4 5 8 18
M TOR 40 5 4 3 7
M TOR 41 5 6 7 8
M TOR 42 5 6 7 17
M TOR 43 5 8 7 17
M TOR 44 6 5 4 14
M TOR 45 6 5 4 15
M TOR 46 6 5 8 18
M TOR 47 6 7 8 18
M TOR 48 7 3 1 12
M TOR 49 7 3 4 14
M TOR 50 7 3 4 15
M TOR 51 7 6 5 16
M TOR 52 7 8 5 16
M TOR 53 8 3 1 12
M TOR 54 8 3 4 14
M TOR 55 8 3 4 15
M TOR 56 8 5 4 14
M TOR 57 8 5 4 15
M  END
$$$$
