
     RDKit          3D

 19 20  0  0  0  0  0  0  0  0999 V2000
    2.0477    1.7959   -1.8262 C   0  0  0  0  0  0  0  0  0  0  0  0
    1.1802    0.7098   -2.3962 C   0  0  0  0  0  0  0  0  0  0  0  0
    1.0253    0.4551   -3.8530 C   0  0  0  0  0  0  0  0  0  0  0  0
    1.5685   -0.6860   -3.0139 C   0  0  0  0  0  0  0  0  0  0  0  0
    0.4245   -1.3645   -2.2678 C   0  0  0  0  0  0  0  0  0  0  0  0
    0.0585    0.0146   -1.6212 C   0  0  0  0  0  0  0  0  0  0  0  0
   -1.2111    0.5697   -1.8876 O   0  0  0  0  0  0  0  0  0  0  0  0
    2.9218   -1.2176   -3.1745 C   0  0  0  0  0  0  0  0  0  0  0  0
    3.2742   -2.3191   -2.8173 O   0  0  0  0  0  0  0  0  0  0  0  0
    2.4305    1.5283   -0.8356 H   0  0  0  0  0  0  0  0  0  0  0  0
    2.9030    2.0134   -2.4726 H   0  0  0  0  0  0  0  0  0  0  0  0
    1.4691    2.7215   -1.7216 H   0  0  0  0  0  0  0  0  0  0  0  0
    0.0413    0.3399   -4.2979 H   0  0  0  0  0  0  0  0  0  0  0  0
    1.7527    0.9547   -4.4868 H   0  0  0  0  0  0  0  0  0  0  0  0
   -0.3552   -1.7985   -2.9009 H   0  0  0  0  0  0  0  0  0  0  0  0
    0.7674   -2.1088   -1.5474 H   0  0  0  0  0  0  0  0  0  0  0  0
    0.2733    0.0145   -0.5439 H   0  0  0  0  0  0  0  0  0  0  0  0
   -1.8689    0.0698   -1.3934 H   0  0  0  0  0  0  0  0  0  0  0  0
    3.6413   -0.5108   -3.6508 H   0  0  0  0  0  0  0  0  0  0  0  0
  1  2  1  0
  2  3  1  0
  3  4  1  0
  4  5  1  0
  5  6  1  0
  6  7  1  0
  4  8  1  0
  8  9  2  0
  4  2  1  0
  6  2  1  0
  1 10  1  0
  1 11  1  0
  1 12  1  0
  3 13  1  0
  3 14  1  0
  5 15  1  0
  5 16  1  0
  6 17  1  0
  7 18  1  0
  8 19  1  0
M  END
$$$$
