gdb 2850	3.1670674	1.3973139	1.2631747	0.6569	74.14	-0.23995	0.07139	0.31134	1060.7633	0.155957	-422.51323	-422.504911	-422.503967	-422.545271	33.305
 OpenBabel02181911413D

 19 21  0  0  1  0  0  0  0  0999 V2000
   -3.3591    0.8925    2.8448 C   0  0  0  0  0  0  0  0  0  0  0  0
   -2.3716    2.0296    2.6177 C   0  0  2  0  0  0  0  0  0  0  0  0
   -2.5750    3.0557    3.5849 O   0  0  0  0  0  0  0  0  0  0  0  0
   -2.2811    2.7206    1.2587 C   0  0  2  0  0  0  0  0  0  0  0  0
   -1.2944    1.9372    0.3860 C   0  0  1  0  0  0  0  0  0  0  0  0
   -0.8001    2.9429    1.4099 C   0  0  2  0  0  0  0  0  0  0  0  0
   -0.8490    1.7309    2.4337 C   0  0  2  0  0  0  0  0  0  0  0  0
   -0.7460    0.7740    1.2133 C   0  0  2  0  0  0  0  0  0  0  0  0
    0.5720    0.4062    0.8649 O   0  0  0  0  0  0  0  0  0  0  0  0
   -3.1578    0.3841    3.7967 H   0  0  0  0  0  0  0  0  0  0  0  0
   -4.3760    1.2946    2.8867 H   0  0  0  0  0  0  0  0  0  0  0  0
   -3.3199    0.1421    2.0519 H   0  0  0  0  0  0  0  0  0  0  0  0
   -2.4929    2.6531    4.4563 H   0  0  0  0  0  0  0  0  0  0  0  0
   -3.0104    3.3917    0.8216 H   0  0  0  0  0  0  0  0  0  0  0  0
   -1.3081    2.0283   -0.6935 H   0  0  0  0  0  0  0  0  0  0  0  0
   -0.2086    3.8420    1.3323 H   0  0  0  0  0  0  0  0  0  0  0  0
   -0.2088    1.5791    3.3022 H   0  0  0  0  0  0  0  0  0  0  0  0
   -1.3018   -0.1672    1.2534 H   0  0  0  0  0  0  0  0  0  0  0  0
    1.0716    1.2213    0.7328 H   0  0  0  0  0  0  0  0  0  0  0  0
  1 11  1  0  0  0  0
  1 10  1  0  0  0  0
  2  1  1  0  0  0  0
  2  3  1  1  0  0  0
  3 13  1  0  0  0  0
  4 14  1  6  0  0  0
  4  6  1  0  0  0  0
  4  2  1  0  0  0  0
  5 15  1  6  0  0  0
  5  8  1  0  0  0  0
  5  4  1  0  0  0  0
  5  6  1  0  0  0  0
  6 16  1  6  0  0  0
  6  7  1  0  0  0  0
  7  2  1  0  0  0  0
  7 17  1  1  0  0  0
  8 18  1  1  0  0  0
  8  7  1  0  0  0  0
  9  8  1  0  0  0  0
 12  1  1  0  0  0  0
 19  9  1  0  0  0  0
M TOR 0 0 1 2 12
M TOR 1 0 1 3 4
M TOR 2 0 1 3 5
M TOR 3 0 1 3 13
M TOR 4 0 1 6 5
M TOR 5 0 1 6 7
M TOR 6 0 1 6 16
M TOR 7 1 3 4 5
M TOR 8 1 3 4 7
M TOR 9 1 3 4 14
M TOR 10 1 3 5 6
M TOR 11 1 3 5 15
M TOR 12 1 6 5 4
M TOR 13 1 6 5 15
M TOR 14 1 6 7 4
M TOR 15 1 6 7 8
M TOR 16 1 6 7 17
M TOR 17 2 1 0 9
M TOR 18 2 1 0 10
M TOR 19 2 1 0 11
M TOR 20 2 1 3 4
M TOR 21 2 1 3 5
M TOR 22 2 1 3 13
M TOR 23 2 1 6 5
M TOR 24 2 1 6 7
M TOR 25 2 1 6 16
M TOR 26 3 1 0 9
M TOR 27 3 1 0 10
M TOR 28 3 1 0 11
M TOR 29 3 1 2 12
M TOR 30 3 1 6 7
M TOR 31 3 1 6 16
M TOR 32 3 4 5 6
M TOR 33 3 4 5 15
M TOR 34 3 4 7 6
M TOR 35 3 4 7 8
M TOR 36 3 4 7 17
M TOR 37 3 5 4 7
M TOR 38 3 5 4 14
M TOR 39 3 5 6 7
M TOR 40 3 5 6 16
M TOR 41 4 3 1 6
M TOR 42 4 5 3 13
M TOR 43 4 5 6 7
M TOR 44 4 5 6 16
M TOR 45 4 7 6 16
M TOR 46 4 7 8 18
M TOR 47 5 4 7 8
M TOR 48 5 4 7 17
M TOR 49 5 6 7 8
M TOR 50 5 6 7 17
M TOR 51 6 1 0 9
M TOR 52 6 1 0 10
M TOR 53 6 1 0 11
M TOR 54 6 1 2 12
M TOR 55 6 1 3 13
M TOR 56 6 5 3 13
M TOR 57 6 5 4 14
M TOR 58 6 7 4 14
M TOR 59 6 7 8 18
M TOR 60 7 4 3 13
M TOR 61 7 4 5 15
M TOR 62 7 6 5 15
M TOR 63 8 7 4 14
M TOR 64 8 7 6 16
M  END
$$$$
