gdb 2598	2.0720587	1.7099172	1.0518784	2.0774	75.84	-0.23837	-0.02785	0.21051999999999998	1169.182	0.15404	-422.543927	-422.534374	-422.53343	-422.578776	34.248
 OpenBabel02181911413D

 19 20  0  0  1  0  0  0  0  0999 V2000
   -0.9785    2.1103   -1.2346 C   0  0  0  0  0  0  0  0  0  0  0  0
   -1.0675    1.1153   -0.0829 C   0  0  2  0  0  0  0  0  0  0  0  0
    0.0406    0.0439    0.0265 C   0  0  0  0  0  0  0  0  0  0  0  0
    1.2364    0.0975    0.0067 O   0  0  0  0  0  0  0  0  0  0  0  0
   -0.9733   -1.1184    0.1105 C   0  0  1  0  0  0  0  0  0  0  0  0
   -1.0346   -1.8623    1.4456 C   0  0  0  0  0  0  0  0  0  0  0  0
   -2.0681   -0.0567   -0.1337 C   0  0  2  0  0  0  0  0  0  0  0  0
   -3.3267   -0.1808   -0.8662 C   0  0  0  0  0  0  0  0  0  0  0  0
   -3.3006   -0.0512    0.5643 O   0  0  0  0  0  0  0  0  0  0  0  0
   -0.9215    1.5961   -2.1992 H   0  0  0  0  0  0  0  0  0  0  0  0
   -1.8494    2.7727   -1.2522 H   0  0  0  0  0  0  0  0  0  0  0  0
   -0.0822    2.7286   -1.1305 H   0  0  0  0  0  0  0  0  0  0  0  0
   -1.1624    1.6437    0.8754 H   0  0  0  0  0  0  0  0  0  0  0  0
   -0.8486   -1.8278   -0.7160 H   0  0  0  0  0  0  0  0  0  0  0  0
   -1.8950   -2.5369    1.4674 H   0  0  0  0  0  0  0  0  0  0  0  0
   -0.1243   -2.4489    1.5951 H   0  0  0  0  0  0  0  0  0  0  0  0
   -1.1380   -1.1675    2.2842 H   0  0  0  0  0  0  0  0  0  0  0  0
   -3.7333    0.6756   -1.4023 H   0  0  0  0  0  0  0  0  0  0  0  0
   -3.6411   -1.1544   -1.2410 H   0  0  0  0  0  0  0  0  0  0  0  0
  1 12  1  0  0  0  0
  1  2  1  0  0  0  0
  2  3  1  0  0  0  0
  2 13  1  1  0  0  0
  3  5  1  0  0  0  0
  4  3  2  0  0  0  0
  5 14  1  6  0  0  0
  5  6  1  0  0  0  0
  6 15  1  0  0  0  0
  6 16  1  0  0  0  0
  6 17  1  0  0  0  0
  7  2  1  0  0  0  0
  7  5  1  0  0  0  0
  7  9  1  1  0  0  0
  8  7  1  0  0  0  0
  8  9  1  0  0  0  0
 10  1  1  0  0  0  0
 11  1  1  0  0  0  0
 18  8  1  0  0  0  0
 19  8  1  0  0  0  0
M TOR 0 0 1 2 3
M TOR 1 0 1 2 4
M TOR 2 0 1 6 4
M TOR 3 0 1 6 7
M TOR 4 0 1 6 8
M TOR 5 1 2 4 5
M TOR 6 1 2 4 6
M TOR 7 1 2 4 13
M TOR 8 1 6 4 5
M TOR 9 1 6 4 13
M TOR 10 1 6 7 8
M TOR 11 1 6 7 17
M TOR 12 1 6 7 18
M TOR 13 2 1 0 9
M TOR 14 2 1 0 10
M TOR 15 2 1 0 11
M TOR 16 2 1 6 7
M TOR 17 2 1 6 8
M TOR 18 2 4 5 14
M TOR 19 2 4 5 15
M TOR 20 2 4 5 16
M TOR 21 2 4 6 7
M TOR 22 2 4 6 8
M TOR 23 3 2 1 6
M TOR 24 3 2 1 12
M TOR 25 3 2 4 5
M TOR 26 3 2 4 6
M TOR 27 3 2 4 13
M TOR 28 4 2 1 12
M TOR 29 4 6 1 12
M TOR 30 4 6 7 8
M TOR 31 4 6 7 17
M TOR 32 4 6 7 18
M TOR 33 5 4 6 7
M TOR 34 5 4 6 8
M TOR 35 6 1 0 9
M TOR 36 6 1 0 10
M TOR 37 6 1 0 11
M TOR 38 6 4 5 14
M TOR 39 6 4 5 15
M TOR 40 6 4 5 16
M TOR 41 6 8 7 17
M TOR 42 6 8 7 18
M TOR 43 7 6 1 12
M TOR 44 7 6 4 13
M TOR 45 8 6 1 12
M TOR 46 8 6 4 13
M  END
$$$$
