
     RDKit          3D

 19 18  0  0  0  0  0  0  0  0999 V2000
    2.4088   -2.5206   -0.6895 C   0  0  0  0  0  0  0  0  0  0  0  0
    3.0406   -1.5089    0.2692 C   0  0  0  0  0  0  0  0  0  0  0  0
    2.6331   -0.0256    0.0023 C   0  0  0  0  0  0  0  0  0  0  0  0
    3.2233    0.5109   -1.3338 C   0  0  0  0  0  0  0  0  0  0  0  0
    4.6197    0.3476   -1.4087 O   0  0  0  0  0  0  0  0  0  0  0  0
    3.1951    0.7867    1.1782 C   0  0  0  0  0  0  0  0  0  0  0  0
    4.1358    1.5375    1.1020 O   0  0  0  0  0  0  0  0  0  0  0  0
    1.1834    0.1494    0.0202 C   0  0  0  0  0  0  0  0  0  0  0  0
   -0.0044    0.3371    0.0467 C   0  0  0  0  0  0  0  0  0  0  0  0
    2.7124   -3.5346   -0.4135 H   0  0  0  0  0  0  0  0  0  0  0  0
    1.3168   -2.4712   -0.6564 H   0  0  0  0  0  0  0  0  0  0  0  0
    2.7285   -2.3509   -1.7215 H   0  0  0  0  0  0  0  0  0  0  0  0
    2.7675   -1.7633    1.3003 H   0  0  0  0  0  0  0  0  0  0  0  0
    4.1310   -1.5522    0.1952 H   0  0  0  0  0  0  0  0  0  0  0  0
    2.7856   -0.0441   -2.1673 H   0  0  0  0  0  0  0  0  0  0  0  0
    2.9250    1.5627   -1.4437 H   0  0  0  0  0  0  0  0  0  0  0  0
    4.9875    0.9287   -0.7299 H   0  0  0  0  0  0  0  0  0  0  0  0
    2.6719    0.6171    2.1427 H   0  0  0  0  0  0  0  0  0  0  0  0
   -1.0553    0.4920    0.0600 H   0  0  0  0  0  0  0  0  0  0  0  0
  1  2  1  0
  2  3  1  0
  3  4  1  0
  4  5  1  0
  3  6  1  0
  6  7  2  0
  3  8  1  0
  8  9  3  0
  1 10  1  0
  1 11  1  0
  1 12  1  0
  2 13  1  0
  2 14  1  0
  4 15  1  0
  4 16  1  0
  5 17  1  0
  6 18  1  0
  9 19  1  0
M  END
$$$$
