
     RDKit          3D

 19 20  0  0  0  0  0  0  0  0999 V2000
    4.6188   -1.1054   -1.2133 O   0  0  0  0  0  0  0  0  0  0  0  0
    3.3295   -0.5767   -0.8913 C   0  0  0  0  0  0  0  0  0  0  0  0
    3.0839    0.8309   -1.5203 C   0  0  0  0  0  0  0  0  0  0  0  0
    3.2288    1.8596   -0.3704 C   0  0  0  0  0  0  0  0  0  0  0  0
    3.2009    1.0017    0.8709 C   0  0  0  0  0  0  0  0  0  0  0  0
    3.2204   -0.3017    0.5962 C   0  0  0  0  0  0  0  0  0  0  0  0
    2.3054   -1.5933   -1.3639 C   0  0  0  0  0  0  0  0  0  0  0  0
    2.6296   -2.9989   -1.6269 C   0  0  0  0  0  0  0  0  0  0  0  0
    2.4235   -2.0731   -2.7000 O   0  0  0  0  0  0  0  0  0  0  0  0
    5.2689   -0.5746   -0.7421 H   0  0  0  0  0  0  0  0  0  0  0  0
    3.7822    0.9903   -2.3439 H   0  0  0  0  0  0  0  0  0  0  0  0
    2.0747    0.8792   -1.9391 H   0  0  0  0  0  0  0  0  0  0  0  0
    4.1623    2.4354   -0.4274 H   0  0  0  0  0  0  0  0  0  0  0  0
    2.4214    2.6006   -0.3757 H   0  0  0  0  0  0  0  0  0  0  0  0
    3.1862    1.4259    1.8697 H   0  0  0  0  0  0  0  0  0  0  0  0
    3.2295   -1.1074    1.3221 H   0  0  0  0  0  0  0  0  0  0  0  0
    1.2852   -1.3415   -1.0677 H   0  0  0  0  0  0  0  0  0  0  0  0
    3.6553   -3.3333   -1.5017 H   0  0  0  0  0  0  0  0  0  0  0  0
    1.8569   -3.7583   -1.5124 H   0  0  0  0  0  0  0  0  0  0  0  0
  1  2  1  0
  2  3  1  0
  3  4  1  0
  4  5  1  0
  5  6  2  0
  2  7  1  0
  7  8  1  0
  8  9  1  0
  6  2  1  0
  9  7  1  0
  1 10  1  0
  3 11  1  0
  3 12  1  0
  4 13  1  0
  4 14  1  0
  5 15  1  0
  6 16  1  0
  7 17  1  0
  8 18  1  0
  8 19  1  0
M  END
$$$$
