
     RDKit          3D

 19 19  0  0  0  0  0  0  0  0999 V2000
    1.5420   -0.0007    0.0732 C   0  0  0  0  0  0  0  0  0  0  0  0
    0.0857   -0.0113    0.0642 C   0  0  0  0  0  0  0  0  0  0  0  0
   -1.1199   -0.0088    0.0312 C   0  0  0  0  0  0  0  0  0  0  0  0
   -2.5717   -0.0242    0.0429 C   0  0  0  0  0  0  0  0  0  0  0  0
   -3.0961   -0.9805    1.1288 C   0  0  0  0  0  0  0  0  0  0  0  0
   -2.6817   -0.5989    2.4225 O   0  0  0  0  0  0  0  0  0  0  0  0
   -3.3251   -0.2005   -1.3059 C   0  0  0  0  0  0  0  0  0  0  0  0
   -4.1497    0.9469   -1.0373 O   0  0  0  0  0  0  0  0  0  0  0  0
   -3.3101    1.3449    0.0651 C   0  0  0  0  0  0  0  0  0  0  0  0
    1.9296    0.7637    0.7555 H   0  0  0  0  0  0  0  0  0  0  0  0
    1.9467   -0.9674    0.3920 H   0  0  0  0  0  0  0  0  0  0  0  0
    1.9406    0.2132   -0.9245 H   0  0  0  0  0  0  0  0  0  0  0  0
   -4.1905   -0.9505    1.1302 H   0  0  0  0  0  0  0  0  0  0  0  0
   -2.7831   -2.0076    0.8831 H   0  0  0  0  0  0  0  0  0  0  0  0
   -1.7175   -0.5613    2.4079 H   0  0  0  0  0  0  0  0  0  0  0  0
   -2.6910   -0.0614   -2.1902 H   0  0  0  0  0  0  0  0  0  0  0  0
   -3.9114   -1.1209   -1.4158 H   0  0  0  0  0  0  0  0  0  0  0  0
   -2.6719    2.1989   -0.1916 H   0  0  0  0  0  0  0  0  0  0  0  0
   -3.8786    1.5639    0.9745 H   0  0  0  0  0  0  0  0  0  0  0  0
  1  2  1  0
  2  3  3  0
  3  4  1  0
  4  5  1  0
  5  6  1  0
  4  7  1  0
  7  8  1  0
  8  9  1  0
  9  4  1  0
  1 10  1  0
  1 11  1  0
  1 12  1  0
  5 13  1  0
  5 14  1  0
  6 15  1  0
  7 16  1  0
  7 17  1  0
  9 18  1  0
  9 19  1  0
M  END
$$$$
