
     RDKit          3D

 19 20  0  0  0  0  0  0  0  0999 V2000
   -0.1275   -0.4136   -0.0203 C   0  0  0  0  0  0  0  0  0  0  0  0
    1.3700   -0.2134   -0.0885 C   0  0  0  0  0  0  0  0  0  0  0  0
    2.0818   -1.0612    0.7779 O   0  0  0  0  0  0  0  0  0  0  0  0
    2.1499    0.0098   -1.3286 C   0  0  0  0  0  0  0  0  0  0  0  0
    1.4268    0.8798   -2.3589 C   0  0  0  0  0  0  0  0  0  0  0  0
    1.2698    2.0211   -1.3029 C   0  0  0  0  0  0  0  0  0  0  0  0
    2.0114    1.1716   -0.2685 C   0  0  0  0  0  0  0  0  0  0  0  0
    3.0533    1.6851    0.6224 C   0  0  0  0  0  0  0  0  0  0  0  0
    3.3300    2.8618    0.7249 O   0  0  0  0  0  0  0  0  0  0  0  0
   -0.5012   -0.1630    0.9799 H   0  0  0  0  0  0  0  0  0  0  0  0
   -0.6683    0.2054   -0.7375 H   0  0  0  0  0  0  0  0  0  0  0  0
   -0.3652   -1.4631   -0.2199 H   0  0  0  0  0  0  0  0  0  0  0  0
    1.7693   -0.9029    1.6759 H   0  0  0  0  0  0  0  0  0  0  0  0
    3.0364   -0.5875   -1.5061 H   0  0  0  0  0  0  0  0  0  0  0  0
    2.0805    1.1690   -3.1834 H   0  0  0  0  0  0  0  0  0  0  0  0
    0.5094    0.4573   -2.7797 H   0  0  0  0  0  0  0  0  0  0  0  0
    1.8411    2.9160   -1.5535 H   0  0  0  0  0  0  0  0  0  0  0  0
    0.2509    2.3228   -1.0445 H   0  0  0  0  0  0  0  0  0  0  0  0
    3.5954    0.9115    1.2047 H   0  0  0  0  0  0  0  0  0  0  0  0
  1  2  1  0
  2  3  1  0
  2  4  1  0
  4  5  1  0
  5  6  1  0
  6  7  1  0
  7  8  1  0
  8  9  2  0
  7  2  1  0
  7  4  1  0
  1 10  1  0
  1 11  1  0
  1 12  1  0
  3 13  1  0
  4 14  1  0
  5 15  1  0
  5 16  1  0
  6 17  1  0
  6 18  1  0
  8 19  1  0
M  END
$$$$
