
     RDKit          3D

 19 20  0  0  0  0  0  0  0  0999 V2000
   -3.2355   -1.5032    0.5807 O   0  0  0  0  0  0  0  0  0  0  0  0
   -2.2728   -0.7899   -0.1559 C   0  0  0  0  0  0  0  0  0  0  0  0
   -2.2738   -1.2655   -1.6311 C   0  0  0  0  0  0  0  0  0  0  0  0
   -0.7891   -1.7034   -1.5051 C   0  0  0  0  0  0  0  0  0  0  0  0
   -0.7604   -1.2058   -0.0198 C   0  0  0  0  0  0  0  0  0  0  0  0
    0.0176    0.0863    0.1586 C   0  0  0  0  0  0  0  0  0  0  0  0
    1.1518    0.1919    0.5516 O   0  0  0  0  0  0  0  0  0  0  0  0
   -0.9054    1.2514   -0.2290 C   0  0  0  0  0  0  0  0  0  0  0  0
   -2.3220    0.7362    0.0725 C   0  0  0  0  0  0  0  0  0  0  0  0
   -3.1720   -1.2377    1.5050 H   0  0  0  0  0  0  0  0  0  0  0  0
   -2.9739   -2.0878   -1.7862 H   0  0  0  0  0  0  0  0  0  0  0  0
   -2.4796   -0.4861   -2.3695 H   0  0  0  0  0  0  0  0  0  0  0  0
   -0.6287   -2.7787   -1.5947 H   0  0  0  0  0  0  0  0  0  0  0  0
   -0.0858   -1.1981   -2.1713 H   0  0  0  0  0  0  0  0  0  0  0  0
   -0.4945   -1.9580    0.7234 H   0  0  0  0  0  0  0  0  0  0  0  0
   -0.6240    2.1655    0.2969 H   0  0  0  0  0  0  0  0  0  0  0  0
   -0.7748    1.4417   -1.3029 H   0  0  0  0  0  0  0  0  0  0  0  0
   -2.5571    0.9191    1.1301 H   0  0  0  0  0  0  0  0  0  0  0  0
   -3.1058    1.2159   -0.5205 H   0  0  0  0  0  0  0  0  0  0  0  0
  1  2  1  0
  2  3  1  0
  3  4  1  0
  4  5  1  0
  5  6  1  0
  6  7  2  0
  6  8  1  0
  8  9  1  0
  5  2  1  0
  9  2  1  0
  1 10  1  0
  3 11  1  0
  3 12  1  0
  4 13  1  0
  4 14  1  0
  5 15  1  0
  8 16  1  0
  8 17  1  0
  9 18  1  0
  9 19  1  0
M  END
$$$$
