gdb 971	3.9267672	0.943751	0.8601409	1.68	76.14	-0.26003	0.00954	0.26957	1378.0849	0.157424	-422.548913	-422.540439	-422.539495	-422.582817	30.965
 OpenBabel02181911403D

 19 20  0  0  1  0  0  0  0  0999 V2000
    0.9863    0.9433   -0.2868 O   0  0  0  0  0  0  0  0  0  0  0  0
    0.0711    0.1731   -0.4039 C   0  0  0  0  0  0  0  0  0  0  0  0
   -1.2337    0.4659   -0.3905 O   0  0  0  0  0  0  0  0  0  0  0  0
   -1.5987    1.8614   -0.2131 C   0  0  0  0  0  0  0  0  0  0  0  0
   -1.8487    2.5381   -1.5326 C   0  0  2  0  0  0  0  0  0  0  0  0
   -0.6610    3.1275   -2.2505 C   0  0  1  0  0  0  0  0  0  0  0  0
   -1.0924    3.6646   -3.6206 C   0  0  0  0  0  0  0  0  0  0  0  0
   -2.1331    4.5947   -2.9097 C   0  0  0  0  0  0  0  0  0  0  0  0
   -1.6778    4.0356   -1.5563 C   0  0  1  0  0  0  0  0  0  0  0  0
    0.1826   -0.9149   -0.5329 H   0  0  0  0  0  0  0  0  0  0  0  0
   -2.5062    1.8263    0.3948 H   0  0  0  0  0  0  0  0  0  0  0  0
   -0.8046    2.3639    0.3441 H   0  0  0  0  0  0  0  0  0  0  0  0
   -2.6540    2.0936   -2.1177 H   0  0  0  0  0  0  0  0  0  0  0  0
    0.3461    2.8737   -1.9460 H   0  0  0  0  0  0  0  0  0  0  0  0
   -0.3080    4.2349   -4.1224 H   0  0  0  0  0  0  0  0  0  0  0  0
   -1.4870    2.9236   -4.3237 H   0  0  0  0  0  0  0  0  0  0  0  0
   -1.8921    5.6523   -3.0358 H   0  0  0  0  0  0  0  0  0  0  0  0
   -3.1885    4.4459   -3.1609 H   0  0  0  0  0  0  0  0  0  0  0  0
   -1.5726    4.6061   -0.6404 H   0  0  0  0  0  0  0  0  0  0  0  0
  2  3  1  0  0  0  0
  2  1  2  0  0  0  0
  3  4  1  0  0  0  0
  4 12  1  0  0  0  0
  4 11  1  0  0  0  0
  5 13  1  6  0  0  0
  5  4  1  0  0  0  0
  6 14  1  1  0  0  0
  6  9  1  0  0  0  0
  6  5  1  0  0  0  0
  7  8  1  0  0  0  0
  7  6  1  0  0  0  0
  8  9  1  0  0  0  0
  9  5  1  0  0  0  0
  9 19  1  1  0  0  0
 10  2  1  0  0  0  0
 15  7  1  0  0  0  0
 16  7  1  0  0  0  0
 17  8  1  0  0  0  0
 18  8  1  0  0  0  0
M TOR 0 0 1 2 3
M TOR 1 1 2 3 4
M TOR 2 1 2 3 10
M TOR 3 1 2 3 11
M TOR 4 2 3 4 5
M TOR 5 2 3 4 8
M TOR 6 2 3 4 12
M TOR 7 3 2 1 9
M TOR 8 3 4 5 6
M TOR 9 3 4 5 8
M TOR 10 3 4 5 13
M TOR 11 3 4 8 7
M TOR 12 3 4 8 18
M TOR 13 4 5 6 7
M TOR 14 4 5 6 14
M TOR 15 4 5 6 15
M TOR 16 4 5 8 7
M TOR 17 4 5 8 18
M TOR 18 4 8 5 6
M TOR 19 4 8 5 13
M TOR 20 4 8 7 6
M TOR 21 4 8 7 16
M TOR 22 4 8 7 17
M TOR 23 5 4 3 10
M TOR 24 5 4 3 11
M TOR 25 5 6 7 8
M TOR 26 5 6 7 16
M TOR 27 5 6 7 17
M TOR 28 5 8 4 12
M TOR 29 5 8 7 16
M TOR 30 5 8 7 17
M TOR 31 6 5 4 12
M TOR 32 6 5 8 18
M TOR 33 6 7 8 18
M TOR 34 7 6 5 13
M TOR 35 7 8 4 12
M TOR 36 7 8 5 13
M TOR 37 8 4 3 10
M TOR 38 8 4 3 11
M TOR 39 8 5 6 14
M TOR 40 8 5 6 15
M TOR 41 8 7 6 14
M TOR 42 8 7 6 15
M  END
$$$$
