
     RDKit          3D

 19 21  0  0  0  0  0  0  0  0999 V2000
    0.0938    0.0898   -0.3632 C   0  0  0  0  0  0  0  0  0  0  0  0
    1.5227   -0.0870    0.0312 C   0  0  0  0  0  0  0  0  0  0  0  0
    2.1018    0.0004    1.4090 C   0  0  0  0  0  0  0  0  0  0  0  0
    2.6905    0.8435    0.2921 C   0  0  0  0  0  0  0  0  0  0  0  0
    3.4718   -0.0720   -0.6441 C   0  0  0  0  0  0  0  0  0  0  0  0
    2.3291   -0.9687   -0.7734 O   0  0  0  0  0  0  0  0  0  0  0  0
    3.8231    0.5194   -1.9817 C   0  0  0  0  0  0  0  0  0  0  0  0
    4.9233   -0.0175   -2.7887 C   0  0  0  0  0  0  0  0  0  0  0  0
    5.0831    1.1931   -2.0457 O   0  0  0  0  0  0  0  0  0  0  0  0
   -0.3882    0.8391    0.2711 H   0  0  0  0  0  0  0  0  0  0  0  0
    0.0081    0.4061   -1.4075 H   0  0  0  0  0  0  0  0  0  0  0  0
   -0.4536   -0.8526   -0.2480 H   0  0  0  0  0  0  0  0  0  0  0  0
    1.5148    0.5590    2.1319 H   0  0  0  0  0  0  0  0  0  0  0  0
    2.6584   -0.8392    1.8174 H   0  0  0  0  0  0  0  0  0  0  0  0
    2.7572    1.9229    0.3243 H   0  0  0  0  0  0  0  0  0  0  0  0
    4.3476   -0.5773   -0.2176 H   0  0  0  0  0  0  0  0  0  0  0  0
    3.0046    1.0302   -2.4902 H   0  0  0  0  0  0  0  0  0  0  0  0
    5.4922   -0.8705   -2.4214 H   0  0  0  0  0  0  0  0  0  0  0  0
    4.9013    0.0975   -3.8712 H   0  0  0  0  0  0  0  0  0  0  0  0
  1  2  1  0
  2  3  1  0
  3  4  1  0
  4  5  1  0
  5  6  1  0
  5  7  1  0
  7  8  1  0
  8  9  1  0
  4  2  1  0
  9  7  1  0
  6  2  1  0
  1 10  1  0
  1 11  1  0
  1 12  1  0
  3 13  1  0
  3 14  1  0
  4 15  1  0
  5 16  1  0
  7 17  1  0
  8 18  1  0
  8 19  1  0
M  END
$$$$
