
     RDKit          3D

 19 21  0  0  0  0  0  0  0  0999 V2000
    0.0701    0.2054    0.2716 C   0  0  0  0  0  0  0  0  0  0  0  0
    1.4474   -0.2468   -0.1486 C   0  0  0  0  0  0  0  0  0  0  0  0
    1.9448   -1.1772    0.7977 O   0  0  0  0  0  0  0  0  0  0  0  0
    2.9338   -1.9744    0.1303 C   0  0  0  0  0  0  0  0  0  0  0  0
    3.1661   -1.2020   -1.1612 C   0  0  0  0  0  0  0  0  0  0  0  0
    3.7008    0.0775   -0.7341 O   0  0  0  0  0  0  0  0  0  0  0  0
    2.4886    0.8409   -0.6345 C   0  0  0  0  0  0  0  0  0  0  0  0
    1.9000    0.6873   -2.0560 C   0  0  0  0  0  0  0  0  0  0  0  0
    1.7362   -0.7791   -1.5917 C   0  0  0  0  0  0  0  0  0  0  0  0
    0.1151    0.6333    1.2779 H   0  0  0  0  0  0  0  0  0  0  0  0
   -0.3362    0.9638   -0.4016 H   0  0  0  0  0  0  0  0  0  0  0  0
   -0.6180   -0.6448    0.2986 H   0  0  0  0  0  0  0  0  0  0  0  0
    3.8411   -2.0186    0.7400 H   0  0  0  0  0  0  0  0  0  0  0  0
    2.5567   -2.9952   -0.0358 H   0  0  0  0  0  0  0  0  0  0  0  0
    3.8186   -1.6676   -1.9011 H   0  0  0  0  0  0  0  0  0  0  0  0
    2.6780    1.7911   -0.1369 H   0  0  0  0  0  0  0  0  0  0  0  0
    0.9456    1.1910   -2.2127 H   0  0  0  0  0  0  0  0  0  0  0  0
    2.5882    0.8958   -2.8766 H   0  0  0  0  0  0  0  0  0  0  0  0
    1.1146   -1.5200   -2.0933 H   0  0  0  0  0  0  0  0  0  0  0  0
  1  2  1  0
  2  3  1  0
  3  4  1  0
  4  5  1  0
  5  6  1  0
  6  7  1  0
  7  8  1  0
  8  9  1  0
  7  2  1  0
  9  2  1  0
  9  5  1  0
  1 10  1  0
  1 11  1  0
  1 12  1  0
  4 13  1  0
  4 14  1  0
  5 15  1  0
  7 16  1  0
  8 17  1  0
  8 18  1  0
  9 19  1  0
M  END
$$$$
