
     RDKit          3D

 19 21  0  0  0  0  0  0  0  0999 V2000
    0.0723   -0.1532    0.0513 C   0  0  0  0  0  0  0  0  0  0  0  0
    1.5600    0.0577    0.1071 C   0  0  0  0  0  0  0  0  0  0  0  0
    2.0655   -0.3680    1.3529 O   0  0  0  0  0  0  0  0  0  0  0  0
    3.4882   -0.4589    1.4378 C   0  0  0  0  0  0  0  0  0  0  0  0
    4.1387    0.2333    0.2447 C   0  0  0  0  0  0  0  0  0  0  0  0
    3.5322    1.6419    0.0639 C   0  0  0  0  0  0  0  0  0  0  0  0
    2.1840    1.2847   -0.5416 C   0  0  0  0  0  0  0  0  0  0  0  0
    2.4027   -0.1031   -1.1331 C   0  0  0  0  0  0  0  0  0  0  0  0
    3.7413   -0.4904   -0.9280 O   0  0  0  0  0  0  0  0  0  0  0  0
   -0.4250    0.4184    0.8419 H   0  0  0  0  0  0  0  0  0  0  0  0
   -0.3286    0.1740   -0.9123 H   0  0  0  0  0  0  0  0  0  0  0  0
   -0.1714   -1.2112    0.1885 H   0  0  0  0  0  0  0  0  0  0  0  0
    3.7981    0.0034    2.3841 H   0  0  0  0  0  0  0  0  0  0  0  0
    3.7906   -1.5148    1.4488 H   0  0  0  0  0  0  0  0  0  0  0  0
    5.2279    0.2041    0.3100 H   0  0  0  0  0  0  0  0  0  0  0  0
    3.4587    2.1725    1.0179 H   0  0  0  0  0  0  0  0  0  0  0  0
    4.1261    2.2453   -0.6292 H   0  0  0  0  0  0  0  0  0  0  0  0
    1.5724    2.0418   -1.0188 H   0  0  0  0  0  0  0  0  0  0  0  0
    2.0018   -0.4526   -2.0774 H   0  0  0  0  0  0  0  0  0  0  0  0
  1  2  1  0
  2  3  1  0
  3  4  1  0
  4  5  1  0
  5  6  1  0
  6  7  1  0
  7  8  1  0
  8  9  1  0
  7  2  1  0
  8  2  1  0
  9  5  1  0
  1 10  1  0
  1 11  1  0
  1 12  1  0
  4 13  1  0
  4 14  1  0
  5 15  1  0
  6 16  1  0
  6 17  1  0
  7 18  1  0
  8 19  1  0
M  END
$$$$
