gdb 1548	2.7495769	1.4872901	1.2315288	1.9666	75.62	-0.24511	-0.02845	0.21666	1084.1954	0.15462	-422.553127	-422.544357	-422.543413	-422.586288	33.267
 OpenBabel02181911403D

 19 20  0  0  1  0  0  0  0  0999 V2000
   -2.1401   -2.9738   -1.1537 C   0  0  0  0  0  0  0  0  0  0  0  0
   -1.4774   -1.6065   -1.2781 C   0  0  0  0  0  0  0  0  0  0  0  0
   -0.6312   -1.4949   -2.5363 C   0  0  0  0  0  0  0  0  0  0  0  0
   -2.4975   -0.5583   -1.2141 O   0  0  0  0  0  0  0  0  0  0  0  0
   -2.0691   -0.1316    0.0887 C   0  0  2  0  0  0  0  0  0  0  0  0
   -1.1184    1.0898    0.0331 C   0  0  0  0  0  0  0  0  0  0  0  0
    0.0627    0.0976   -0.0457 C   0  0  0  0  0  0  0  0  0  0  0  0
    1.2503    0.2249   -0.1137 O   0  0  0  0  0  0  0  0  0  0  0  0
   -0.8652   -1.1219    0.0765 C   0  0  2  0  0  0  0  0  0  0  0  0
   -2.7389   -3.0367   -0.2408 H   0  0  0  0  0  0  0  0  0  0  0  0
   -2.8015   -3.1444   -2.0090 H   0  0  0  0  0  0  0  0  0  0  0  0
   -1.3880   -3.7696   -1.1319 H   0  0  0  0  0  0  0  0  0  0  0  0
    0.1774   -2.2326   -2.5224 H   0  0  0  0  0  0  0  0  0  0  0  0
   -1.2516   -1.6826   -3.4187 H   0  0  0  0  0  0  0  0  0  0  0  0
   -0.1863   -0.5024   -2.6364 H   0  0  0  0  0  0  0  0  0  0  0  0
   -2.8721   -0.1303    0.8276 H   0  0  0  0  0  0  0  0  0  0  0  0
   -1.2570    1.7717   -0.8090 H   0  0  0  0  0  0  0  0  0  0  0  0
   -1.0836    1.6666    0.9647 H   0  0  0  0  0  0  0  0  0  0  0  0
   -0.6265   -1.8797    0.8221 H   0  0  0  0  0  0  0  0  0  0  0  0
  1 12  1  0  0  0  0
  1 10  1  0  0  0  0
  2  4  1  0  0  0  0
  2  1  1  0  0  0  0
  2  9  1  0  0  0  0
  3 13  1  0  0  0  0
  3  2  1  0  0  0  0
  4  5  1  0  0  0  0
  5 16  1  1  0  0  0
  6  5  1  0  0  0  0
  6 18  1  0  0  0  0
  7  6  1  0  0  0  0
  7  9  1  0  0  0  0
  8  7  2  0  0  0  0
  9  5  1  0  0  0  0
  9 19  1  1  0  0  0
 11  1  1  0  0  0  0
 14  3  1  0  0  0  0
 15  3  1  0  0  0  0
 17  6  1  0  0  0  0
M TOR 0 0 1 2 12
M TOR 1 0 1 2 13
M TOR 2 0 1 2 14
M TOR 3 0 1 3 4
M TOR 4 0 1 8 4
M TOR 5 0 1 8 6
M TOR 6 0 1 8 18
M TOR 7 1 3 4 5
M TOR 8 1 3 4 8
M TOR 9 1 3 4 15
M TOR 10 1 8 4 5
M TOR 11 1 8 4 15
M TOR 12 1 8 6 5
M TOR 13 1 8 6 7
M TOR 14 2 1 0 9
M TOR 15 2 1 0 10
M TOR 16 2 1 0 11
M TOR 17 2 1 3 4
M TOR 18 2 1 8 4
M TOR 19 2 1 8 6
M TOR 20 2 1 8 18
M TOR 21 3 1 0 9
M TOR 22 3 1 0 10
M TOR 23 3 1 0 11
M TOR 24 3 1 2 12
M TOR 25 3 1 2 13
M TOR 26 3 1 2 14
M TOR 27 3 1 8 6
M TOR 28 3 1 8 18
M TOR 29 3 4 5 6
M TOR 30 3 4 5 16
M TOR 31 3 4 5 17
M TOR 32 3 4 8 6
M TOR 33 3 4 8 18
M TOR 34 4 5 6 7
M TOR 35 4 5 6 8
M TOR 36 4 8 6 7
M TOR 37 5 4 8 18
M TOR 38 5 6 8 18
M TOR 39 6 5 4 15
M TOR 40 6 8 4 15
M TOR 41 7 6 5 16
M TOR 42 7 6 5 17
M TOR 43 7 6 8 18
M TOR 44 8 1 0 9
M TOR 45 8 1 0 10
M TOR 46 8 1 0 11
M TOR 47 8 1 2 12
M TOR 48 8 1 2 13
M TOR 49 8 1 2 14
M TOR 50 8 4 5 16
M TOR 51 8 4 5 17
M TOR 52 8 6 5 16
M TOR 53 8 6 5 17
M  END
$$$$
