gdb 3689	3.1507257	1.1626729	0.9876605	1.7814	78.32	-0.24684	-0.00343	0.24341000000000002	1247.2316	0.156082	-422.555146	-422.546305	-422.545361	-422.589046	33.26
 OpenBabel02181911413D

 19 20  0  0  1  0  0  0  0  0999 V2000
    0.1032    0.4096   -0.0081 C   0  0  0  0  0  0  0  0  0  0  0  0
    1.0299   -0.7787   -0.0241 C   0  0  2  0  0  0  0  0  0  0  0  0
    2.1868   -0.7178    0.8152 O   0  0  0  0  0  0  0  0  0  0  0  0
    2.3850   -0.7476   -0.6108 C   0  0  2  0  0  0  0  0  0  0  0  0
    3.0462    0.4569   -1.2853 C   0  0  0  0  0  0  0  0  0  0  0  0
    3.9474   -0.1328   -2.4073 C   0  0  2  0  0  0  0  0  0  0  0  0
    3.5095    0.1857   -3.7280 O   0  0  0  0  0  0  0  0  0  0  0  0
    3.9148   -1.6227   -2.1440 C   0  0  0  0  0  0  0  0  0  0  0  0
    3.0434   -1.9499   -1.1897 C   0  0  0  0  0  0  0  0  0  0  0  0
   -0.5029    0.4051    0.9039 H   0  0  0  0  0  0  0  0  0  0  0  0
    0.6599    1.3489   -0.0408 H   0  0  0  0  0  0  0  0  0  0  0  0
   -0.5802    0.3755   -0.8638 H   0  0  0  0  0  0  0  0  0  0  0  0
    0.5249   -1.7480    0.0013 H   0  0  0  0  0  0  0  0  0  0  0  0
    2.3347    1.1653   -1.7166 H   0  0  0  0  0  0  0  0  0  0  0  0
    3.6390    0.9950   -0.5405 H   0  0  0  0  0  0  0  0  0  0  0  0
    4.9628    0.2736   -2.3622 H   0  0  0  0  0  0  0  0  0  0  0  0
    2.6800   -0.2828   -3.8758 H   0  0  0  0  0  0  0  0  0  0  0  0
    4.5101   -2.3149   -2.7286 H   0  0  0  0  0  0  0  0  0  0  0  0
    2.8147   -2.9497   -0.8382 H   0  0  0  0  0  0  0  0  0  0  0  0
  1 10  1  0  0  0  0
  2  1  1  0  0  0  0
  2 13  1  6  0  0  0
  2  3  1  0  0  0  0
  4  9  1  6  0  0  0
  4  2  1  0  0  0  0
  4  3  1  0  0  0  0
  5  4  1  0  0  0  0
  5 15  1  0  0  0  0
  6 16  1  1  0  0  0
  6  8  1  0  0  0  0
  6  5  1  0  0  0  0
  7  6  1  0  0  0  0
  8  9  2  0  0  0  0
  9 19  1  0  0  0  0
 11  1  1  0  0  0  0
 12  1  1  0  0  0  0
 14  5  1  0  0  0  0
 17  7  1  0  0  0  0
 18  8  1  0  0  0  0
M TOR 0 0 1 2 3
M TOR 1 0 1 3 4
M TOR 2 0 1 3 8
M TOR 3 1 2 3 4
M TOR 4 1 2 3 8
M TOR 5 1 3 4 5
M TOR 6 1 3 4 13
M TOR 7 1 3 4 14
M TOR 8 1 3 8 7
M TOR 9 1 3 8 18
M TOR 10 2 1 0 9
M TOR 11 2 1 0 10
M TOR 12 2 1 0 11
M TOR 13 2 3 1 12
M TOR 14 2 3 4 5
M TOR 15 2 3 4 13
M TOR 16 2 3 4 14
M TOR 17 2 3 8 7
M TOR 18 2 3 8 18
M TOR 19 3 1 0 9
M TOR 20 3 1 0 10
M TOR 21 3 1 0 11
M TOR 22 3 4 5 6
M TOR 23 3 4 5 7
M TOR 24 3 4 5 15
M TOR 25 3 8 7 5
M TOR 26 3 8 7 17
M TOR 27 4 3 1 12
M TOR 28 4 3 8 7
M TOR 29 4 3 8 18
M TOR 30 4 5 6 16
M TOR 31 4 5 7 8
M TOR 32 4 5 7 17
M TOR 33 5 4 3 8
M TOR 34 5 7 8 18
M TOR 35 6 5 4 13
M TOR 36 6 5 4 14
M TOR 37 6 5 7 8
M TOR 38 6 5 7 17
M TOR 39 7 5 4 13
M TOR 40 7 5 4 14
M TOR 41 7 5 6 16
M TOR 42 8 3 1 12
M TOR 43 8 3 4 13
M TOR 44 8 3 4 14
M TOR 45 8 7 5 15
M  END
$$$$
