gdb 2035	2.6748003	1.8168168	1.2900682	1.5879	73.66	-0.24311	0.07359	0.3167	1013.5332	0.157781	-422.540263	-422.532439	-422.531495	-422.572599	30.037
 OpenBabel02181911403D

 19 21  0  0  1  0  0  0  0  0999 V2000
    0.2448    0.6366    0.3663 C   0  0  0  0  0  0  0  0  0  0  0  0
    1.5589    0.0340   -0.0388 C   0  0  1  0  0  0  0  0  0  0  0  0
    1.7403   -0.3280   -1.4181 O   0  0  0  0  0  0  0  0  0  0  0  0
    2.5979    0.6818   -0.8565 C   0  0  2  0  0  0  0  0  0  0  0  0
    3.9848    0.1542   -0.5340 C   0  0  0  0  0  0  0  0  0  0  0  0
    3.7536   -0.9315    0.5423 C   0  0  1  0  0  0  0  0  0  0  0  0
    3.8589   -0.4811    2.0183 C   0  0  0  0  0  0  0  0  0  0  0  0
    2.4268   -0.5370    2.2010 O   0  0  0  0  0  0  0  0  0  0  0  0
    2.2330   -0.9995    0.8452 C   0  0  1  0  0  0  0  0  0  0  0  0
    0.3206    1.0408    1.3798 H   0  0  0  0  0  0  0  0  0  0  0  0
   -0.0484    1.4355   -0.3191 H   0  0  0  0  0  0  0  0  0  0  0  0
   -0.5440   -0.1238    0.3627 H   0  0  0  0  0  0  0  0  0  0  0  0
    2.4673    1.6773   -1.2754 H   0  0  0  0  0  0  0  0  0  0  0  0
    4.4546   -0.2518   -1.4353 H   0  0  0  0  0  0  0  0  0  0  0  0
    4.6315    0.9582   -0.1642 H   0  0  0  0  0  0  0  0  0  0  0  0
    4.2515   -1.8742    0.3196 H   0  0  0  0  0  0  0  0  0  0  0  0
    4.3762   -1.1802    2.6864 H   0  0  0  0  0  0  0  0  0  0  0  0
    4.2561    0.5288    2.1831 H   0  0  0  0  0  0  0  0  0  0  0  0
    1.7309   -1.9735    0.8133 H   0  0  0  0  0  0  0  0  0  0  0  0
  1 10  1  0  0  0  0
  2  1  1  1  0  0  0
  2  9  1  0  0  0  0
  3  4  1  0  0  0  0
  3  2  1  0  0  0  0
  4 13  1  6  0  0  0
  4  5  1  0  0  0  0
  4  2  1  0  0  0  0
  5 15  1  0  0  0  0
  5  6  1  0  0  0  0
  6 16  1  6  0  0  0
  6  9  1  0  0  0  0
  6  7  1  0  0  0  0
  7 18  1  0  0  0  0
  7  8  1  0  0  0  0
  7 17  1  0  0  0  0
  9 19  1  6  0  0  0
  9  8  1  0  0  0  0
 11  1  1  0  0  0  0
 12  1  1  0  0  0  0
 14  5  1  0  0  0  0
M TOR 0 0 1 2 3
M TOR 1 0 1 3 4
M TOR 2 0 1 3 12
M TOR 3 0 1 8 5
M TOR 4 0 1 8 7
M TOR 5 0 1 8 18
M TOR 6 1 2 3 4
M TOR 7 1 2 3 12
M TOR 8 1 3 4 5
M TOR 9 1 3 4 13
M TOR 10 1 3 4 14
M TOR 11 1 8 5 4
M TOR 12 1 8 5 6
M TOR 13 1 8 5 15
M TOR 14 1 8 7 6
M TOR 15 2 1 0 9
M TOR 16 2 1 0 10
M TOR 17 2 1 0 11
M TOR 18 2 1 8 5
M TOR 19 2 1 8 7
M TOR 20 2 1 8 18
M TOR 21 2 3 1 8
M TOR 22 2 3 4 5
M TOR 23 2 3 4 13
M TOR 24 2 3 4 14
M TOR 25 3 1 0 9
M TOR 26 3 1 0 10
M TOR 27 3 1 0 11
M TOR 28 3 1 8 5
M TOR 29 3 1 8 7
M TOR 30 3 1 8 18
M TOR 31 3 4 5 6
M TOR 32 3 4 5 8
M TOR 33 3 4 5 15
M TOR 34 4 3 1 8
M TOR 35 4 5 6 7
M TOR 36 4 5 6 16
M TOR 37 4 5 6 17
M TOR 38 4 5 8 7
M TOR 39 4 5 8 18
M TOR 40 5 4 3 12
M TOR 41 5 6 7 8
M TOR 42 6 5 4 13
M TOR 43 6 5 4 14
M TOR 44 6 5 8 18
M TOR 45 6 7 8 18
M TOR 46 7 6 5 15
M TOR 47 7 8 5 15
M TOR 48 8 1 0 9
M TOR 49 8 1 0 10
M TOR 50 8 1 0 11
M TOR 51 8 1 3 12
M TOR 52 8 5 4 13
M TOR 53 8 5 4 14
M TOR 54 8 5 6 16
M TOR 55 8 5 6 17
M TOR 56 8 7 6 16
M TOR 57 8 7 6 17
M  END
$$$$
