
     RDKit          3D

 19 20  0  0  0  0  0  0  0  0999 V2000
    0.8012   -0.6469    0.4291 O   0  0  0  0  0  0  0  0  0  0  0  0
   -0.2438   -0.1440    0.1048 C   0  0  0  0  0  0  0  0  0  0  0  0
   -0.4670    0.6343   -1.1735 C   0  0  0  0  0  0  0  0  0  0  0  0
   -1.0382    2.0513   -0.8734 C   0  0  0  0  0  0  0  0  0  0  0  0
   -2.5670    1.8648   -0.8116 C   0  0  0  0  0  0  0  0  0  0  0  0
   -2.8547    0.7973   -1.8591 C   0  0  0  0  0  0  0  0  0  0  0  0
   -2.7509    1.3039   -3.2121 O   0  0  0  0  0  0  0  0  0  0  0  0
   -1.6287    0.4453   -3.5014 C   0  0  0  0  0  0  0  0  0  0  0  0
   -1.5577   -0.0418   -2.0400 C   0  0  0  0  0  0  0  0  0  0  0  0
   -1.1422   -0.2313    0.7618 H   0  0  0  0  0  0  0  0  0  0  0  0
    0.4951    0.6757   -1.6920 H   0  0  0  0  0  0  0  0  0  0  0  0
   -0.6207    2.4886    0.0381 H   0  0  0  0  0  0  0  0  0  0  0  0
   -0.7779    2.7187   -1.6998 H   0  0  0  0  0  0  0  0  0  0  0  0
   -2.8801    1.4972    0.1733 H   0  0  0  0  0  0  0  0  0  0  0  0
   -3.1192    2.7873   -1.0110 H   0  0  0  0  0  0  0  0  0  0  0  0
   -3.7983    0.2622   -1.7070 H   0  0  0  0  0  0  0  0  0  0  0  0
   -1.8889   -0.3333   -4.2295 H   0  0  0  0  0  0  0  0  0  0  0  0
   -0.7620    1.0061   -3.8728 H   0  0  0  0  0  0  0  0  0  0  0  0
   -1.6170   -1.1223   -1.9008 H   0  0  0  0  0  0  0  0  0  0  0  0
  1  2  2  0
  2  3  1  0
  3  4  1  0
  4  5  1  0
  5  6  1  0
  6  7  1  0
  7  8  1  0
  8  9  1  0
  9  3  1  0
  9  6  1  0
  2 10  1  0
  3 11  1  0
  4 12  1  0
  4 13  1  0
  5 14  1  0
  5 15  1  0
  6 16  1  0
  8 17  1  0
  8 18  1  0
  9 19  1  0
M  END
$$$$
