gdb 5950	3.0555016	1.1439023	0.9873864	2.2904	76.82	-0.2275	0.00921	0.23671	1280.3787	0.155845	-422.519184	-422.510298	-422.509354	-422.553601	32.401
 OpenBabel02181911423D

 19 20  0  0  1  0  0  0  0  0999 V2000
    2.4875   -0.7685    0.7945 C   0  0  0  0  0  0  0  0  0  0  0  0
    1.9433    0.0724   -0.3449 C   0  0  0  0  0  0  0  0  0  0  0  0
    2.0318    1.4495    0.0390 O   0  0  0  0  0  0  0  0  0  0  0  0
    1.5056    2.3161   -0.8698 C   0  0  1  0  0  0  0  0  0  0  0  0
    1.3366    3.8475   -0.6317 C   0  0  0  0  0  0  0  0  0  0  0  0
    0.8016    3.6451   -2.0924 C   0  0  1  0  0  0  0  0  0  0  0  0
    2.0306    2.7078   -2.3165 C   0  0  0  0  0  0  0  0  0  0  0  0
    0.1049    2.3964   -1.5235 C   0  0  0  0  0  0  0  0  0  0  0  0
   -0.9330    1.8106   -1.5740 O   0  0  0  0  0  0  0  0  0  0  0  0
    2.4456   -1.8300    0.5332 H   0  0  0  0  0  0  0  0  0  0  0  0
    3.5272   -0.5034    1.0064 H   0  0  0  0  0  0  0  0  0  0  0  0
    1.9000   -0.6109    1.7032 H   0  0  0  0  0  0  0  0  0  0  0  0
    2.5272   -0.0906   -1.2630 H   0  0  0  0  0  0  0  0  0  0  0  0
    0.8977   -0.1803   -0.5621 H   0  0  0  0  0  0  0  0  0  0  0  0
    0.6250    4.1626    0.1331 H   0  0  0  0  0  0  0  0  0  0  0  0
    2.2785    4.3971   -0.5718 H   0  0  0  0  0  0  0  0  0  0  0  0
    0.4170    4.4013   -2.7675 H   0  0  0  0  0  0  0  0  0  0  0  0
    1.9622    1.9661   -3.1139 H   0  0  0  0  0  0  0  0  0  0  0  0
    2.9949    3.2202   -2.3074 H   0  0  0  0  0  0  0  0  0  0  0  0
  1 11  1  0  0  0  0
  1 12  1  0  0  0  0
  2  3  1  0  0  0  0
  2  1  1  0  0  0  0
  4  5  1  0  0  0  0
  4  3  1  1  0  0  0
  5 16  1  0  0  0  0
  5 15  1  0  0  0  0
  6 17  1  6  0  0  0
  6  8  1  0  0  0  0
  6  5  1  0  0  0  0
  7 19  1  0  0  0  0
  7  6  1  0  0  0  0
  7  4  1  0  0  0  0
  8  4  1  0  0  0  0
  9  8  2  0  0  0  0
 10  1  1  0  0  0  0
 13  2  1  0  0  0  0
 14  2  1  0  0  0  0
 18  7  1  0  0  0  0
M TOR 0 0 1 2 3
M TOR 1 1 2 3 4
M TOR 2 1 2 3 6
M TOR 3 1 2 3 7
M TOR 4 2 1 0 9
M TOR 5 2 1 0 10
M TOR 6 2 1 0 11
M TOR 7 2 3 4 5
M TOR 8 2 3 4 14
M TOR 9 2 3 4 15
M TOR 10 2 3 6 5
M TOR 11 2 3 6 17
M TOR 12 2 3 6 18
M TOR 13 2 3 7 5
M TOR 14 2 3 7 8
M TOR 15 3 2 1 12
M TOR 16 3 2 1 13
M TOR 17 3 4 5 6
M TOR 18 3 4 5 7
M TOR 19 3 4 5 16
M TOR 20 3 6 5 7
M TOR 21 3 6 5 16
M TOR 22 3 7 5 16
M TOR 23 4 3 6 17
M TOR 24 4 3 6 18
M TOR 25 4 3 7 8
M TOR 26 4 5 6 17
M TOR 27 4 5 6 18
M TOR 28 4 5 7 8
M TOR 29 6 3 4 14
M TOR 30 6 3 4 15
M TOR 31 6 3 7 8
M TOR 32 6 5 4 14
M TOR 33 6 5 4 15
M TOR 34 6 5 7 8
M TOR 35 7 3 4 14
M TOR 36 7 3 4 15
M TOR 37 7 3 6 17
M TOR 38 7 3 6 18
M TOR 39 7 5 4 14
M TOR 40 7 5 4 15
M TOR 41 7 5 6 17
M TOR 42 7 5 6 18
M TOR 43 8 7 5 16
M  END
$$$$
