
     RDKit          3D

 19 20  0  0  0  0  0  0  0  0999 V2000
    1.9423    3.0673    1.4158 C   0  0  0  0  0  0  0  0  0  0  0  0
    1.2124    3.1158    0.0884 C   0  0  0  0  0  0  0  0  0  0  0  0
    0.1992    3.7679   -0.0684 O   0  0  0  0  0  0  0  0  0  0  0  0
    1.7920    2.3064   -1.0229 C   0  0  0  0  0  0  0  0  0  0  0  0
    1.5900    2.8200   -2.4476 C   0  0  0  0  0  0  0  0  0  0  0  0
    0.8232    1.6441   -1.9883 C   0  0  0  0  0  0  0  0  0  0  0  0
   -0.6828    1.4648   -1.8323 C   0  0  0  0  0  0  0  0  0  0  0  0
   -0.5798    0.1003   -2.3113 O   0  0  0  0  0  0  0  0  0  0  0  0
    0.8467    0.2033   -2.4870 C   0  0  0  0  0  0  0  0  0  0  0  0
    1.4271    3.6887    2.1489 H   0  0  0  0  0  0  0  0  0  0  0  0
    1.9980    2.0344    1.7789 H   0  0  0  0  0  0  0  0  0  0  0  0
    2.9745    3.4156    1.2934 H   0  0  0  0  0  0  0  0  0  0  0  0
    2.7120    1.7704   -0.8109 H   0  0  0  0  0  0  0  0  0  0  0  0
    1.0588    3.7628   -2.5290 H   0  0  0  0  0  0  0  0  0  0  0  0
    2.4074    2.6737   -3.1460 H   0  0  0  0  0  0  0  0  0  0  0  0
   -1.0772    1.5171   -0.8125 H   0  0  0  0  0  0  0  0  0  0  0  0
   -1.3024    2.0863   -2.4894 H   0  0  0  0  0  0  0  0  0  0  0  0
    1.3948   -0.5154   -1.8629 H   0  0  0  0  0  0  0  0  0  0  0  0
    1.1467    0.0697   -3.5353 H   0  0  0  0  0  0  0  0  0  0  0  0
  1  2  1  0
  2  3  2  0
  2  4  1  0
  4  5  1  0
  5  6  1  0
  6  7  1  0
  7  8  1  0
  8  9  1  0
  6  4  1  0
  9  6  1  0
  1 10  1  0
  1 11  1  0
  1 12  1  0
  4 13  1  0
  5 14  1  0
  5 15  1  0
  7 16  1  0
  7 17  1  0
  9 18  1  0
  9 19  1  0
M  END
$$$$
