gdb 1566	2.6733411	1.5941802	1.2950852	2.2494	76.75	-0.23823	0.00354	0.24176999999999998	1042.8137	0.15619	-422.528323	-422.5199	-422.518955	-422.56072	32.747
 OpenBabel02181911403D

 19 20  0  0  1  0  0  0  0  0999 V2000
   -0.0149    1.5357    0.0247 C   0  0  0  0  0  0  0  0  0  0  0  0
   -0.0001    0.0079   -0.0155 C   0  0  2  0  0  0  0  0  0  0  0  0
    0.5845   -0.4650   -1.2207 O   0  0  0  0  0  0  0  0  0  0  0  0
   -1.4439   -0.5901    0.2455 C   0  0  0  0  0  0  0  0  0  0  0  0
   -1.5066   -0.7082    1.7645 C   0  0  0  0  0  3  0  0  0  0  0  0
   -0.2634   -0.7902    2.2253 C   0  0  2  0  0  3  0  0  0  0  0  0
    0.7227   -0.2773    3.2430 C   0  0  0  0  0  0  0  0  0  0  0  0
    1.5431    0.2117    2.1341 O   0  0  0  0  0  0  0  0  0  0  0  0
    0.7753   -0.5992    1.1768 C   0  0  2  0  0  0  0  0  0  0  0  0
    1.0009    1.9272   -0.0660 H   0  0  0  0  0  0  0  0  0  0  0  0
   -0.6212    1.9271   -0.8013 H   0  0  0  0  0  0  0  0  0  0  0  0
   -0.4420    1.9037    0.9608 H   0  0  0  0  0  0  0  0  0  0  0  0
    0.1601   -0.0136   -1.9576 H   0  0  0  0  0  0  0  0  0  0  0  0
   -2.2332    0.0610   -0.1486 H   0  0  0  0  0  0  0  0  0  0  0  0
   -1.5311   -1.5535   -0.2718 H   0  0  0  0  0  0  0  0  0  0  0  0
   -2.4208   -0.6091    2.3379 H   0  0  0  0  0  0  0  0  0  0  0  0
    0.3876    0.5240    3.9102 H   0  0  0  0  0  0  0  0  0  0  0  0
    1.2638   -1.0370    3.8217 H   0  0  0  0  0  0  0  0  0  0  0  0
    1.3731   -1.4573    0.8460 H   0  0  0  0  0  0  0  0  0  0  0  0
  1 12  1  0  0  0  0
  2  3  1  6  0  0  0
  2  1  1  0  0  0  0
  2  4  1  0  0  0  0
  2  9  1  0  0  0  0
  4  5  1  0  0  0  0
  5 16  1  0  0  0  0
  6  5  1  6  0  0  0
  6  7  1  0  0  0  0
  7 18  1  0  0  0  0
  7 17  1  0  0  0  0
  8  7  1  0  0  0  0
  9 19  1  6  0  0  0
  9  8  1  0  0  0  0
  9  6  1  0  0  0  0
 10  1  1  0  0  0  0
 11  1  1  0  0  0  0
 13  3  1  0  0  0  0
 14  4  1  0  0  0  0
 15  4  1  0  0  0  0
M TOR 0 0 1 2 12
M TOR 1 0 1 3 4
M TOR 2 0 1 3 13
M TOR 3 0 1 3 14
M TOR 4 0 1 8 5
M TOR 5 0 1 8 7
M TOR 6 0 1 8 18
M TOR 7 1 3 4 5
M TOR 8 1 3 4 15
M TOR 9 1 8 5 4
M TOR 10 1 8 5 6
M TOR 11 1 8 7 6
M TOR 12 2 1 0 9
M TOR 13 2 1 0 10
M TOR 14 2 1 0 11
M TOR 15 2 1 3 4
M TOR 16 2 1 3 13
M TOR 17 2 1 3 14
M TOR 18 2 1 8 5
M TOR 19 2 1 8 7
M TOR 20 2 1 8 18
M TOR 21 3 1 0 9
M TOR 22 3 1 0 10
M TOR 23 3 1 0 11
M TOR 24 3 1 2 12
M TOR 25 3 1 8 5
M TOR 26 3 1 8 7
M TOR 27 3 1 8 18
M TOR 28 3 4 5 6
M TOR 29 3 4 5 8
M TOR 30 4 3 1 8
M TOR 31 4 5 6 7
M TOR 32 4 5 6 16
M TOR 33 4 5 6 17
M TOR 34 4 5 8 7
M TOR 35 4 5 8 18
M TOR 36 5 4 3 13
M TOR 37 5 4 3 14
M TOR 38 5 6 7 8
M TOR 39 6 5 4 15
M TOR 40 6 5 8 18
M TOR 41 6 7 8 18
M TOR 42 8 1 0 9
M TOR 43 8 1 0 10
M TOR 44 8 1 0 11
M TOR 45 8 1 2 12
M TOR 46 8 1 3 13
M TOR 47 8 1 3 14
M TOR 48 8 5 4 15
M TOR 49 8 5 6 16
M TOR 50 8 5 6 17
M TOR 51 8 7 6 16
M TOR 52 8 7 6 17
M  END
$$$$
