
     RDKit          3D

 19 19  0  0  0  0  0  0  0  0999 V2000
    1.5543    0.0485   -0.0643 C   0  0  0  0  0  0  0  0  0  0  0  0
    0.2147   -0.2993    0.2969 O   0  0  0  0  0  0  0  0  0  0  0  0
   -0.3508    0.4954    1.2347 C   0  0  0  0  0  0  0  0  0  0  0  0
    0.2223    1.4337    1.7408 O   0  0  0  0  0  0  0  0  0  0  0  0
   -1.7286    0.0923    1.5668 C   0  0  0  0  0  0  0  0  0  0  0  0
   -2.4330   -0.8995    1.0094 C   0  0  0  0  0  0  0  0  0  0  0  0
   -3.8291   -0.9828    1.5675 C   0  0  0  0  0  0  0  0  0  0  0  0
   -3.7693   -0.0621    2.8158 C   0  0  0  0  0  0  0  0  0  0  0  0
   -2.5351    0.8506    2.5990 C   0  0  0  0  0  0  0  0  0  0  0  0
    2.2163   -0.0029    0.8043 H   0  0  0  0  0  0  0  0  0  0  0  0
    1.8575   -0.6788   -0.8179 H   0  0  0  0  0  0  0  0  0  0  0  0
    1.5955    1.0617   -0.4729 H   0  0  0  0  0  0  0  0  0  0  0  0
   -2.0637   -1.5471    0.2236 H   0  0  0  0  0  0  0  0  0  0  0  0
   -4.5526   -0.6225    0.8215 H   0  0  0  0  0  0  0  0  0  0  0  0
   -4.1293   -2.0091    1.8069 H   0  0  0  0  0  0  0  0  0  0  0  0
   -4.6919    0.5029    2.9672 H   0  0  0  0  0  0  0  0  0  0  0  0
   -3.6168   -0.6755    3.7093 H   0  0  0  0  0  0  0  0  0  0  0  0
   -2.8132    1.8389    2.2104 H   0  0  0  0  0  0  0  0  0  0  0  0
   -1.9693    1.0345    3.5165 H   0  0  0  0  0  0  0  0  0  0  0  0
  1  2  1  0
  2  3  1  0
  3  4  2  0
  3  5  1  0
  5  6  2  0
  6  7  1  0
  7  8  1  0
  8  9  1  0
  9  5  1  0
  1 10  1  0
  1 11  1  0
  1 12  1  0
  6 13  1  0
  7 14  1  0
  7 15  1  0
  8 16  1  0
  8 17  1  0
  9 18  1  0
  9 19  1  0
M  END
$$$$
