gdb 2870	2.4243691	2.0059434	1.5524316	2.1122	72.45	-0.24614	0.06441	0.31055	926.7569	0.159392	-422.581236	-422.573909	-422.572964	-422.612268	30.642
 OpenBabel02181911413D

 19 21  0  0  1  0  0  0  0  0999 V2000
    0.4503    0.3244    0.0408 O   0  0  0  0  0  0  0  0  0  0  0  0
   -0.7907    0.5245    0.7021 C   0  0  2  0  0  0  0  0  0  0  0  0
   -2.0502    0.1865   -0.0717 C   0  0  1  0  0  0  0  0  0  0  0  0
   -3.1409    1.0757    0.5062 C   0  0  1  0  0  0  0  0  0  0  0  0
   -2.5033    1.9257    1.6048 C   0  0  0  0  0  0  0  0  0  0  0  0
   -1.1086    2.0251    0.9601 C   0  0  1  0  0  0  0  0  0  0  0  0
   -0.1468    2.7247    1.6891 O   0  0  0  0  0  0  0  0  0  0  0  0
   -1.4504    2.5334   -0.4684 C   0  0  0  0  0  0  0  0  0  0  0  0
   -2.4734    1.4564   -0.8026 C   0  0  1  0  0  0  0  0  0  0  0  0
    0.3195    0.4987   -0.8970 H   0  0  0  0  0  0  0  0  0  0  0  0
   -0.7065   -0.0169    1.6502 H   0  0  0  0  0  0  0  0  0  0  0  0
   -2.2563   -0.8041   -0.4563 H   0  0  0  0  0  0  0  0  0  0  0  0
   -4.1709    0.7469    0.5458 H   0  0  0  0  0  0  0  0  0  0  0  0
   -2.9801    2.9028    1.7298 H   0  0  0  0  0  0  0  0  0  0  0  0
   -2.4684    1.4258    2.5778 H   0  0  0  0  0  0  0  0  0  0  0  0
    0.7104    2.4228    1.3613 H   0  0  0  0  0  0  0  0  0  0  0  0
   -1.8706    3.5433   -0.4451 H   0  0  0  0  0  0  0  0  0  0  0  0
   -0.5777    2.5420   -1.1310 H   0  0  0  0  0  0  0  0  0  0  0  0
   -3.0059    1.4147   -1.7438 H   0  0  0  0  0  0  0  0  0  0  0  0
  1  2  1  0  0  0  0
  2  6  1  0  0  0  0
  2 11  1  1  0  0  0
  3 12  1  6  0  0  0
  3  4  1  0  0  0  0
  3  2  1  0  0  0  0
  4 13  1  1  0  0  0
  4  5  1  0  0  0  0
  5 14  1  0  0  0  0
  5 15  1  0  0  0  0
  6  5  1  0  0  0  0
  6  7  1  1  0  0  0
  8 17  1  0  0  0  0
  8  6  1  0  0  0  0
  9 19  1  6  0  0  0
  9  8  1  0  0  0  0
  9  3  1  0  0  0  0
  9  4  1  0  0  0  0
 10  1  1  0  0  0  0
 16  7  1  0  0  0  0
 18  8  1  0  0  0  0
M TOR 0 0 1 2 3
M TOR 1 0 1 2 8
M TOR 2 0 1 2 11
M TOR 3 0 1 5 4
M TOR 4 0 1 5 6
M TOR 5 0 1 5 7
M TOR 6 1 2 3 4
M TOR 7 1 2 3 8
M TOR 8 1 2 3 12
M TOR 9 1 2 8 7
M TOR 10 1 2 8 18
M TOR 11 1 5 4 3
M TOR 12 1 5 4 13
M TOR 13 1 5 4 14
M TOR 14 1 5 6 15
M TOR 15 1 5 7 8
M TOR 16 1 5 7 16
M TOR 17 1 5 7 17
M TOR 18 2 1 0 9
M TOR 19 2 1 5 4
M TOR 20 2 1 5 6
M TOR 21 2 1 5 7
M TOR 22 2 3 4 5
M TOR 23 2 3 4 13
M TOR 24 2 3 4 14
M TOR 25 2 3 8 7
M TOR 26 2 3 8 18
M TOR 27 2 8 3 4
M TOR 28 2 8 3 12
M TOR 29 2 8 7 5
M TOR 30 2 8 7 16
M TOR 31 2 8 7 17
M TOR 32 3 2 1 5
M TOR 33 3 2 1 10
M TOR 34 3 4 5 6
M TOR 35 3 4 5 7
M TOR 36 3 8 2 11
M TOR 37 3 8 7 5
M TOR 38 3 8 7 16
M TOR 39 3 8 7 17
M TOR 40 4 3 2 11
M TOR 41 4 3 8 7
M TOR 42 4 3 8 18
M TOR 43 4 5 1 10
M TOR 44 4 5 6 15
M TOR 45 4 5 7 8
M TOR 46 4 5 7 16
M TOR 47 4 5 7 17
M TOR 48 5 1 0 9
M TOR 49 5 1 2 8
M TOR 50 5 1 2 11
M TOR 51 5 4 3 8
M TOR 52 5 4 3 12
M TOR 53 5 7 8 18
M TOR 54 6 5 1 10
M TOR 55 6 5 4 13
M TOR 56 6 5 4 14
M TOR 57 6 5 7 8
M TOR 58 6 5 7 16
M TOR 59 6 5 7 17
M TOR 60 7 5 1 10
M TOR 61 7 5 4 13
M TOR 62 7 5 4 14
M TOR 63 7 5 6 15
M TOR 64 7 8 2 11
M TOR 65 7 8 3 12
M TOR 66 8 2 1 10
M TOR 67 8 3 4 13
M TOR 68 8 3 4 14
M  END
$$$$
