
     RDKit          3D

 19 20  0  0  0  0  0  0  0  0999 V2000
    1.4204    0.2830    0.6702 C   0  0  0  0  0  0  0  0  0  0  0  0
   -0.0129    0.0282    0.3028 C   0  0  0  0  0  0  0  0  0  0  0  0
   -0.9341    0.9886    0.1934 C   0  0  0  0  0  0  0  0  0  0  0  0
   -2.3492    0.6752   -0.1088 C   0  0  0  0  0  0  0  0  0  0  0  0
   -3.1667    1.5564   -0.9608 C   0  0  0  0  0  0  0  0  0  0  0  0
   -3.3347    1.5585    0.4579 O   0  0  0  0  0  0  0  0  0  0  0  0
   -2.6700   -0.8011    0.0339 C   0  0  0  0  0  0  0  0  0  0  0  0
   -1.6525   -1.5847   -0.5617 O   0  0  0  0  0  0  0  0  0  0  0  0
   -0.3965   -1.4145    0.0644 C   0  0  0  0  0  0  0  0  0  0  0  0
    1.7056   -0.2818    1.5672 H   0  0  0  0  0  0  0  0  0  0  0  0
    2.0998   -0.0380   -0.1297 H   0  0  0  0  0  0  0  0  0  0  0  0
    1.5997    1.3428    0.8672 H   0  0  0  0  0  0  0  0  0  0  0  0
   -0.6854    2.0350    0.3511 H   0  0  0  0  0  0  0  0  0  0  0  0
   -2.7281    2.4612   -1.3804 H   0  0  0  0  0  0  0  0  0  0  0  0
   -3.9916    1.1326   -1.5332 H   0  0  0  0  0  0  0  0  0  0  0  0
   -2.7749   -1.0375    1.1059 H   0  0  0  0  0  0  0  0  0  0  0  0
   -3.6062   -1.0601   -0.4663 H   0  0  0  0  0  0  0  0  0  0  0  0
   -0.3659   -1.9608    1.0265 H   0  0  0  0  0  0  0  0  0  0  0  0
    0.3368   -1.8959   -0.5937 H   0  0  0  0  0  0  0  0  0  0  0  0
  1  2  1  0
  2  3  2  0
  3  4  1  0
  4  5  1  0
  5  6  1  0
  4  7  1  0
  7  8  1  0
  8  9  1  0
  9  2  1  0
  6  4  1  0
  1 10  1  0
  1 11  1  0
  1 12  1  0
  3 13  1  0
  5 14  1  0
  5 15  1  0
  7 16  1  0
  7 17  1  0
  9 18  1  0
  9 19  1  0
M  END
$$$$
