
     RDKit          3D

 19 19  0  0  0  0  0  0  0  0999 V2000
    0.1427    0.5856    0.0361 C   0  0  0  0  0  0  0  0  0  0  0  0
    1.3543   -0.3309    0.0502 C   0  0  0  0  0  0  0  0  0  0  0  0
    2.6754    0.4244    0.1945 C   0  0  0  0  0  0  0  0  0  0  0  0
    3.7799   -0.4622    0.1030 O   0  0  0  0  0  0  0  0  0  0  0  0
    3.7733   -1.1692   -1.1206 C   0  0  0  0  0  0  0  0  0  0  0  0
    2.4575   -1.9530   -1.2718 C   0  0  0  0  0  0  0  0  0  0  0  0
    1.3523   -1.0572   -1.1801 O   0  0  0  0  0  0  0  0  0  0  0  0
    2.3980   -2.6590   -2.5449 C   0  0  0  0  0  0  0  0  0  0  0  0
    2.4030   -3.2430   -3.5944 C   0  0  0  0  0  0  0  0  0  0  0  0
    0.0636    1.1349    0.9792 H   0  0  0  0  0  0  0  0  0  0  0  0
    0.2156    1.3061   -0.7842 H   0  0  0  0  0  0  0  0  0  0  0  0
   -0.7700    0.0010   -0.1036 H   0  0  0  0  0  0  0  0  0  0  0  0
    1.2798   -1.0477    0.8861 H   0  0  0  0  0  0  0  0  0  0  0  0
    2.7388    1.1981   -0.5889 H   0  0  0  0  0  0  0  0  0  0  0  0
    2.7442    0.9081    1.1733 H   0  0  0  0  0  0  0  0  0  0  0  0
    3.8746   -0.4829   -1.9757 H   0  0  0  0  0  0  0  0  0  0  0  0
    4.6277   -1.8505   -1.1050 H   0  0  0  0  0  0  0  0  0  0  0  0
    2.4035   -2.6813   -0.4440 H   0  0  0  0  0  0  0  0  0  0  0  0
    2.3924   -3.7633   -4.5202 H   0  0  0  0  0  0  0  0  0  0  0  0
  1  2  1  0
  2  3  1  0
  3  4  1  0
  4  5  1  0
  5  6  1  0
  6  7  1  0
  6  8  1  0
  8  9  3  0
  7  2  1  0
  1 10  1  0
  1 11  1  0
  1 12  1  0
  2 13  1  0
  3 14  1  0
  3 15  1  0
  5 16  1  0
  5 17  1  0
  6 18  1  0
  9 19  1  0
M  END
$$$$
