gdb 5885	2.0494407	0.7759497	0.5868037	4.5578	83.51	-0.25145	-0.05088	0.20057	1893.8029	0.153939	-422.539948	-422.528878	-422.527934	-422.578921	36.811
 OpenBabel02181911423D

 19 18  0  0  0  0  0  0  0  0999 V2000
   -0.0951   -0.1376    0.0801 C   0  0  0  0  0  0  0  0  0  0  0  0
    1.4409   -0.1046   -0.0111 C   0  0  0  0  0  0  0  0  0  0  0  0
    1.9941    1.2416   -0.0644 C   0  0  0  0  0  0  0  0  0  0  0  0
    2.4526    2.3587   -0.1084 C   0  0  0  0  0  0  0  0  0  0  0  0
    3.0100    3.6969   -0.1599 C   0  0  0  0  0  0  0  0  0  0  0  0
    4.2077    3.8889   -0.1964 O   0  0  0  0  0  0  0  0  0  0  0  0
    1.9978    4.8309   -0.1906 C   0  0  0  0  0  0  0  0  0  0  0  0
    1.2421    4.8968   -1.5322 C   0  0  0  0  0  0  0  0  0  0  0  0
    0.3127    5.9632   -1.5725 O   0  0  0  0  0  0  0  0  0  0  0  0
   -0.4427    0.3779    0.9793 H   0  0  0  0  0  0  0  0  0  0  0  0
   -0.5471    0.3503   -0.7874 H   0  0  0  0  0  0  0  0  0  0  0  0
   -0.4493   -1.1715    0.1172 H   0  0  0  0  0  0  0  0  0  0  0  0
    1.8789   -0.6299    0.8475 H   0  0  0  0  0  0  0  0  0  0  0  0
    1.7756   -0.6564   -0.8989 H   0  0  0  0  0  0  0  0  0  0  0  0
    1.2693    4.6792    0.6169 H   0  0  0  0  0  0  0  0  0  0  0  0
    2.5293    5.7697   -0.0197 H   0  0  0  0  0  0  0  0  0  0  0  0
    1.9526    5.0885   -2.3424 H   0  0  0  0  0  0  0  0  0  0  0  0
    0.7610    3.9290   -1.7365 H   0  0  0  0  0  0  0  0  0  0  0  0
   -0.3792    5.7792   -0.9291 H   0  0  0  0  0  0  0  0  0  0  0  0
  1 12  1  0  0  0  0
  1 10  1  0  0  0  0
  2  1  1  0  0  0  0
  2 13  1  0  0  0  0
  3  2  1  0  0  0  0
  4  3  3  0  0  0  0
  5  4  1  0  0  0  0
  6  5  2  0  0  0  0
  7  5  1  0  0  0  0
  7 16  1  0  0  0  0
  7 15  1  0  0  0  0
  8  7  1  0  0  0  0
  9  8  1  0  0  0  0
  9 19  1  0  0  0  0
 11  1  1  0  0  0  0
 14  2  1  0  0  0  0
 17  8  1  0  0  0  0
 18  8  1  0  0  0  0
M TOR 0 0 1 2 3
M TOR 1 1 2 3 4
M TOR 2 2 1 0 9
M TOR 3 2 1 0 10
M TOR 4 2 1 0 11
M TOR 5 2 3 4 5
M TOR 6 2 3 4 6
M TOR 7 3 2 1 12
M TOR 8 3 2 1 13
M TOR 9 3 4 6 7
M TOR 10 3 4 6 14
M TOR 11 3 4 6 15
M TOR 12 4 6 7 8
M TOR 13 4 6 7 16
M TOR 14 4 6 7 17
M TOR 15 5 4 6 7
M TOR 16 5 4 6 14
M TOR 17 5 4 6 15
M TOR 18 6 7 8 18
M TOR 19 8 7 6 14
M TOR 20 8 7 6 15
M  END
$$$$
