
     RDKit          3D

 19 20  0  0  0  0  0  0  0  0999 V2000
   -1.9623   -1.4714   -0.8295 O   0  0  0  0  0  0  0  0  0  0  0  0
   -1.3490   -0.4239   -0.8561 C   0  0  0  0  0  0  0  0  0  0  0  0
   -0.8797    0.2496    0.4345 C   0  0  0  0  0  0  0  0  0  0  0  0
    0.6297    0.3303    0.5373 C   0  0  0  0  0  0  0  0  0  0  0  0
    1.3034    1.4476    1.2105 C   0  0  0  0  0  0  0  0  0  0  0  0
    1.2793    1.3594   -0.2158 O   0  0  0  0  0  0  0  0  0  0  0  0
   -1.0196    0.2725   -2.1307 C   0  0  0  0  0  0  0  0  0  0  0  0
   -0.7978   -0.5987   -3.3606 C   0  0  0  0  0  0  0  0  0  0  0  0
   -2.0541    0.1899   -3.2485 C   0  0  0  0  0  0  0  0  0  0  0  0
   -1.2873    1.2669    0.4760 H   0  0  0  0  0  0  0  0  0  0  0  0
   -1.2796   -0.3271    1.2736 H   0  0  0  0  0  0  0  0  0  0  0  0
    1.1479   -0.6291    0.5058 H   0  0  0  0  0  0  0  0  0  0  0  0
    0.7052    2.2504    1.6398 H   0  0  0  0  0  0  0  0  0  0  0  0
    2.2784    1.2966    1.6708 H   0  0  0  0  0  0  0  0  0  0  0  0
   -0.4355    1.1798   -2.0455 H   0  0  0  0  0  0  0  0  0  0  0  0
   -0.0326   -0.2757   -4.0567 H   0  0  0  0  0  0  0  0  0  0  0  0
   -0.8632   -1.6674   -3.1923 H   0  0  0  0  0  0  0  0  0  0  0  0
   -2.1812    1.0719   -3.8654 H   0  0  0  0  0  0  0  0  0  0  0  0
   -2.9622   -0.3496   -3.0049 H   0  0  0  0  0  0  0  0  0  0  0  0
  1  2  2  0
  2  3  1  0
  3  4  1  0
  4  5  1  0
  5  6  1  0
  2  7  1  0
  7  8  1  0
  8  9  1  0
  6  4  1  0
  9  7  1  0
  3 10  1  0
  3 11  1  0
  4 12  1  0
  5 13  1  0
  5 14  1  0
  7 15  1  0
  8 16  1  0
  8 17  1  0
  9 18  1  0
  9 19  1  0
M  END
$$$$
