gdb 5247	3.2242492	1.5743652	1.3693861	2.257	74.52	-0.238	0.09021	0.32821	1003.0213	0.157815	-422.50524	-422.497738	-422.496794	-422.537135	29.617
 OpenBabel02181911423D

 19 21  0  0  1  0  0  0  0  0999 V2000
    1.2849   -0.0724   -0.0759 C   0  0  0  0  0  0  0  0  0  0  0  0
   -0.1220    0.0413    0.0358 O   0  0  0  0  0  0  0  0  0  0  0  0
   -0.5638    0.7645    1.1218 C   0  0  1  0  0  0  0  0  0  0  0  0
   -0.1902    2.2088    1.4972 C   0  0  0  0  0  0  0  0  0  0  0  0
   -0.9702    1.8331    2.7795 C   0  0  1  0  0  0  0  0  0  0  0  0
   -2.3201    1.7240    2.2990 O   0  0  0  0  0  0  0  0  0  0  0  0
   -2.1077    0.5883    1.4501 C   0  0  2  0  0  0  0  0  0  0  0  0
   -1.7444   -0.5238    2.4599 C   0  0  0  0  0  0  0  0  0  0  0  0
   -0.4819    0.3287    2.6472 C   0  0  1  0  0  0  0  0  0  0  0  0
    1.7269   -0.5244    0.8230 H   0  0  0  0  0  0  0  0  0  0  0  0
    1.4833   -0.7187   -0.9334 H   0  0  0  0  0  0  0  0  0  0  0  0
    1.7591    0.9031   -0.2483 H   0  0  0  0  0  0  0  0  0  0  0  0
    0.8830    2.3091    1.6827 H   0  0  0  0  0  0  0  0  0  0  0  0
   -0.5712    3.0487    0.9111 H   0  0  0  0  0  0  0  0  0  0  0  0
   -0.9174    2.4074    3.7015 H   0  0  0  0  0  0  0  0  0  0  0  0
   -2.8764    0.5034    0.6843 H   0  0  0  0  0  0  0  0  0  0  0  0
   -2.4340   -0.6764    3.2932 H   0  0  0  0  0  0  0  0  0  0  0  0
   -1.5034   -1.4681    1.9665 H   0  0  0  0  0  0  0  0  0  0  0  0
    0.4224    0.0221    3.1695 H   0  0  0  0  0  0  0  0  0  0  0  0
  1  2  1  0  0  0  0
  1 10  1  0  0  0  0
  3  2  1  6  0  0  0
  3  7  1  0  0  0  0
  3  4  1  0  0  0  0
  3  9  1  0  0  0  0
  4 13  1  0  0  0  0
  4  5  1  0  0  0  0
  5 15  1  1  0  0  0
  6  5  1  0  0  0  0
  7 16  1  6  0  0  0
  7  6  1  0  0  0  0
  7  8  1  0  0  0  0
  8  9  1  0  0  0  0
  8 17  1  0  0  0  0
  9  5  1  0  0  0  0
  9 19  1  1  0  0  0
 11  1  1  0  0  0  0
 12  1  1  0  0  0  0
 14  4  1  0  0  0  0
 18  8  1  0  0  0  0
M TOR 0 0 1 2 3
M TOR 1 0 1 2 6
M TOR 2 0 1 2 8
M TOR 3 1 2 3 4
M TOR 4 1 2 3 12
M TOR 5 1 2 3 13
M TOR 6 1 2 6 5
M TOR 7 1 2 6 7
M TOR 8 1 2 6 15
M TOR 9 1 2 8 4
M TOR 10 1 2 8 7
M TOR 11 1 2 8 18
M TOR 12 2 1 0 9
M TOR 13 2 1 0 10
M TOR 14 2 1 0 11
M TOR 15 2 3 4 5
M TOR 16 2 3 4 8
M TOR 17 2 3 4 14
M TOR 18 2 6 5 4
M TOR 19 2 6 7 8
M TOR 20 2 6 7 16
M TOR 21 2 6 7 17
M TOR 22 2 8 4 5
M TOR 23 2 8 4 14
M TOR 24 2 8 7 16
M TOR 25 2 8 7 17
M TOR 26 3 2 6 5
M TOR 27 3 2 6 7
M TOR 28 3 2 6 15
M TOR 29 3 2 8 7
M TOR 30 3 2 8 18
M TOR 31 3 4 5 6
M TOR 32 3 4 8 7
M TOR 33 3 4 8 18
M TOR 34 4 3 2 6
M TOR 35 4 5 6 7
M TOR 36 4 5 6 15
M TOR 37 4 8 2 6
M TOR 38 4 8 7 6
M TOR 39 4 8 7 16
M TOR 40 4 8 7 17
M TOR 41 5 4 3 12
M TOR 42 5 4 3 13
M TOR 43 5 4 8 7
M TOR 44 5 4 8 18
M TOR 45 5 6 2 8
M TOR 46 5 6 7 8
M TOR 47 5 6 7 16
M TOR 48 5 6 7 17
M TOR 49 6 2 3 12
M TOR 50 6 2 3 13
M TOR 51 6 2 8 18
M TOR 52 6 5 4 8
M TOR 53 6 5 4 14
M TOR 54 6 7 8 18
M TOR 55 7 8 4 14
M TOR 56 8 2 3 12
M TOR 57 8 2 3 13
M TOR 58 8 2 6 15
M TOR 59 8 4 3 12
M TOR 60 8 4 3 13
M TOR 61 8 7 6 15
M  END
$$$$
