
     RDKit          3D

 19 21  0  0  0  0  0  0  0  0999 V2000
   -0.4066    1.0003    0.7353 C   0  0  0  0  0  0  0  0  0  0  0  0
   -1.5445    1.9714    0.3832 C   0  0  0  0  0  0  0  0  0  0  0  0
   -2.7530    1.2399   -0.2220 C   0  0  0  0  0  0  0  0  0  0  0  0
   -1.0558    3.0417   -0.5467 C   0  0  0  0  0  0  0  0  0  0  0  0
   -0.5505    2.6787   -1.8756 O   0  0  0  0  0  0  0  0  0  0  0  0
   -0.4053    4.1232   -1.8703 C   0  0  0  0  0  0  0  0  0  0  0  0
   -1.7011    4.3846   -1.0460 C   0  0  0  0  0  0  0  0  0  0  0  0
   -1.0416    5.2045   -0.0408 O   0  0  0  0  0  0  0  0  0  0  0  0
   -0.0255    4.2136   -0.3622 C   0  0  0  0  0  0  0  0  0  0  0  0
   -0.7612    0.2257    1.4218 H   0  0  0  0  0  0  0  0  0  0  0  0
   -0.0258    0.5114   -0.1664 H   0  0  0  0  0  0  0  0  0  0  0  0
    0.4281    1.5208    1.2148 H   0  0  0  0  0  0  0  0  0  0  0  0
   -1.8639    2.4922    1.2965 H   0  0  0  0  0  0  0  0  0  0  0  0
   -3.1154    0.4661    0.4614 H   0  0  0  0  0  0  0  0  0  0  0  0
   -3.5789    1.9301   -0.4199 H   0  0  0  0  0  0  0  0  0  0  0  0
   -2.4790    0.7620   -1.1673 H   0  0  0  0  0  0  0  0  0  0  0  0
    0.0039    4.6202   -2.7487 H   0  0  0  0  0  0  0  0  0  0  0  0
   -2.7168    4.6317   -1.3538 H   0  0  0  0  0  0  0  0  0  0  0  0
    0.9410    4.2585    0.1390 H   0  0  0  0  0  0  0  0  0  0  0  0
  1  2  1  0
  2  3  1  0
  2  4  1  0
  4  5  1  0
  5  6  1  0
  6  7  1  0
  7  8  1  0
  8  9  1  0
  7  4  1  0
  9  4  1  0
  9  6  1  0
  1 10  1  0
  1 11  1  0
  1 12  1  0
  2 13  1  0
  3 14  1  0
  3 15  1  0
  3 16  1  0
  6 17  1  0
  7 18  1  0
  9 19  1  0
M  END
$$$$
