gdb 2060	2.7815401	1.4802851	1.1554595	4.4646	75.23	-0.26047	0.01555	0.27602	1106.4812	0.157679	-422.593274	-422.585039	-422.584095	-422.625857	31.591
 OpenBabel02181911403D

 19 20  0  0  1  0  0  0  0  0999 V2000
   -2.5142   -2.4548   -1.6303 C   0  0  0  0  0  0  0  0  0  0  0  0
   -2.0841   -1.1912   -0.9171 C   0  0  2  0  0  0  0  0  0  0  0  0
   -3.1309   -0.3511   -0.2150 C   0  0  0  0  0  0  0  0  0  0  0  0
   -2.4606    0.1556   -1.4698 C   0  0  1  0  0  0  0  0  0  0  0  0
   -1.4124    1.2403   -1.3839 C   0  0  0  0  0  0  0  0  0  0  0  0
   -0.6600    1.2134   -0.1623 O   0  0  0  0  0  0  0  0  0  0  0  0
   -0.2291    0.0381    0.3653 C   0  0  0  0  0  0  0  0  0  0  0  0
    0.4826    0.0590    1.3314 O   0  0  0  0  0  0  0  0  0  0  0  0
   -0.6897   -1.2440   -0.3116 C   0  0  0  0  0  0  0  0  0  0  0  0
   -2.5502   -3.3056   -0.9399 H   0  0  0  0  0  0  0  0  0  0  0  0
   -3.5096   -2.3405   -2.0704 H   0  0  0  0  0  0  0  0  0  0  0  0
   -1.8184   -2.7122   -2.4378 H   0  0  0  0  0  0  0  0  0  0  0  0
   -4.1642   -0.6707   -0.2939 H   0  0  0  0  0  0  0  0  0  0  0  0
   -2.8829    0.1199    0.7302 H   0  0  0  0  0  0  0  0  0  0  0  0
   -3.0507    0.1904   -2.3815 H   0  0  0  0  0  0  0  0  0  0  0  0
   -0.7172    1.1664   -2.2319 H   0  0  0  0  0  0  0  0  0  0  0  0
   -1.8616    2.2373   -1.4093 H   0  0  0  0  0  0  0  0  0  0  0  0
    0.0381   -1.4704   -1.1048 H   0  0  0  0  0  0  0  0  0  0  0  0
   -0.5933   -2.0392    0.4329 H   0  0  0  0  0  0  0  0  0  0  0  0
  1 10  1  0  0  0  0
  2  1  1  6  0  0  0
  2  9  1  0  0  0  0
  2  3  1  0  0  0  0
  3 14  1  0  0  0  0
  4 15  1  6  0  0  0
  4  5  1  0  0  0  0
  4  2  1  0  0  0  0
  4  3  1  0  0  0  0
  5  6  1  0  0  0  0
  6  7  1  0  0  0  0
  7  8  2  0  0  0  0
  9  7  1  0  0  0  0
  9 19  1  0  0  0  0
 11  1  1  0  0  0  0
 12  1  1  0  0  0  0
 13  3  1  0  0  0  0
 16  5  1  0  0  0  0
 17  5  1  0  0  0  0
 18  9  1  0  0  0  0
M TOR 0 0 1 2 3
M TOR 1 0 1 2 12
M TOR 2 0 1 2 13
M TOR 3 0 1 3 4
M TOR 4 0 1 3 14
M TOR 5 0 1 8 6
M TOR 6 0 1 8 17
M TOR 7 0 1 8 18
M TOR 8 1 2 3 4
M TOR 9 1 2 3 14
M TOR 10 1 3 2 12
M TOR 11 1 3 2 13
M TOR 12 1 3 4 5
M TOR 13 1 3 4 15
M TOR 14 1 3 4 16
M TOR 15 1 8 6 5
M TOR 16 1 8 6 7
M TOR 17 2 1 0 9
M TOR 18 2 1 0 10
M TOR 19 2 1 0 11
M TOR 20 2 1 8 6
M TOR 21 2 1 8 17
M TOR 22 2 1 8 18
M TOR 23 2 3 1 8
M TOR 24 2 3 4 5
M TOR 25 2 3 4 15
M TOR 26 2 3 4 16
M TOR 27 3 1 0 9
M TOR 28 3 1 0 10
M TOR 29 3 1 0 11
M TOR 30 3 1 8 6
M TOR 31 3 1 8 17
M TOR 32 3 1 8 18
M TOR 33 3 4 5 6
M TOR 34 4 3 1 8
M TOR 35 4 3 2 12
M TOR 36 4 3 2 13
M TOR 37 4 5 6 7
M TOR 38 4 5 6 8
M TOR 39 5 4 3 14
M TOR 40 5 6 8 17
M TOR 41 5 6 8 18
M TOR 42 6 5 4 15
M TOR 43 6 5 4 16
M TOR 44 7 6 8 17
M TOR 45 7 6 8 18
M TOR 46 8 1 0 9
M TOR 47 8 1 0 10
M TOR 48 8 1 0 11
M TOR 49 8 1 2 12
M TOR 50 8 1 2 13
M TOR 51 8 1 3 14
M  END
$$$$
