gdb 5751	3.7840285	1.29612	1.1665215	2.6614	73.59	-0.23433	0.08417	0.3185	1094.2139	0.158947	-422.526154	-422.518707	-422.517762	-422.558019	29.644
 OpenBabel02181911423D

 19 21  0  0  1  0  0  0  0  0999 V2000
    1.4878    0.6493    0.2136 O   0  0  0  0  0  0  0  0  0  0  0  0
    0.3929   -0.1453    0.6302 C   0  0  0  0  0  0  0  0  0  0  0  0
   -0.8586    0.6996    0.8113 C   0  0  2  0  0  0  0  0  0  0  0  0
   -0.5565    1.7303    1.7781 O   0  0  0  0  0  0  0  0  0  0  0  0
   -1.7633    2.0188    2.4542 C   0  0  2  0  0  0  0  0  0  0  0  0
   -2.3942    0.9489    3.3241 C   0  0  2  0  0  0  0  0  0  0  0  0
   -1.8956   -0.4209    2.8700 C   0  0  0  0  0  0  0  0  0  0  0  0
   -2.1121    0.0334    1.3847 C   0  0  1  0  0  0  0  0  0  0  0  0
   -2.9190    1.2547    1.9131 C   0  0  2  0  0  0  0  0  0  0  0  0
    1.5406    1.3779    0.8431 H   0  0  0  0  0  0  0  0  0  0  0  0
    0.2233   -0.8896   -0.1556 H   0  0  0  0  0  0  0  0  0  0  0  0
    0.6221   -0.6839    1.5617 H   0  0  0  0  0  0  0  0  0  0  0  0
   -1.0959    1.1791   -0.1524 H   0  0  0  0  0  0  0  0  0  0  0  0
   -1.8558    3.0555    2.7545 H   0  0  0  0  0  0  0  0  0  0  0  0
   -2.8437    1.1859    4.2820 H   0  0  0  0  0  0  0  0  0  0  0  0
   -0.8871   -0.7193    3.1717 H   0  0  0  0  0  0  0  0  0  0  0  0
   -2.5982   -1.2119    3.1421 H   0  0  0  0  0  0  0  0  0  0  0  0
   -2.6016   -0.6724    0.7150 H   0  0  0  0  0  0  0  0  0  0  0  0
   -3.8605    1.6500    1.5561 H   0  0  0  0  0  0  0  0  0  0  0  0
  1  2  1  0  0  0  0
  1 10  1  0  0  0  0
  2  3  1  0  0  0  0
  2 12  1  0  0  0  0
  3 13  1  6  0  0  0
  3  8  1  0  0  0  0
  3  4  1  0  0  0  0
  4  5  1  0  0  0  0
  5 14  1  1  0  0  0
  5  6  1  0  0  0  0
  6 15  1  1  0  0  0
  7 17  1  0  0  0  0
  7 16  1  0  0  0  0
  7  6  1  0  0  0  0
  8 18  1  6  0  0  0
  8  9  1  0  0  0  0
  8  7  1  0  0  0  0
  9 19  1  6  0  0  0
  9  5  1  0  0  0  0
  9  6  1  0  0  0  0
 11  2  1  0  0  0  0
M TOR 0 0 1 2 3
M TOR 1 0 1 2 7
M TOR 2 0 1 2 12
M TOR 3 1 2 3 4
M TOR 4 1 2 7 6
M TOR 5 1 2 7 8
M TOR 6 1 2 7 17
M TOR 7 2 1 0 9
M TOR 8 2 3 4 5
M TOR 9 2 3 4 8
M TOR 10 2 3 4 13
M TOR 11 2 7 6 5
M TOR 12 2 7 6 15
M TOR 13 2 7 6 16
M TOR 14 2 7 8 4
M TOR 15 2 7 8 5
M TOR 16 2 7 8 18
M TOR 17 3 2 1 10
M TOR 18 3 2 1 11
M TOR 19 3 2 7 6
M TOR 20 3 2 7 8
M TOR 21 3 2 7 17
M TOR 22 3 4 5 6
M TOR 23 3 4 5 8
M TOR 24 3 4 5 14
M TOR 25 3 4 8 7
M TOR 26 3 4 8 18
M TOR 27 4 3 2 7
M TOR 28 4 3 2 12
M TOR 29 4 5 6 7
M TOR 30 4 5 6 15
M TOR 31 4 5 6 16
M TOR 32 4 5 8 7
M TOR 33 4 5 8 18
M TOR 34 4 8 5 6
M TOR 35 4 8 5 14
M TOR 36 4 8 7 6
M TOR 37 4 8 7 17
M TOR 38 5 6 7 8
M TOR 39 5 6 7 17
M TOR 40 5 8 4 13
M TOR 41 5 8 7 17
M TOR 42 6 5 4 13
M TOR 43 6 5 8 18
M TOR 44 6 7 2 12
M TOR 45 6 7 8 18
M TOR 46 7 2 1 10
M TOR 47 7 2 1 11
M TOR 48 7 6 5 14
M TOR 49 7 8 4 13
M TOR 50 7 8 5 14
M TOR 51 8 5 6 15
M TOR 52 8 5 6 16
M TOR 53 8 7 2 12
M TOR 54 8 7 6 15
M TOR 55 8 7 6 16
M  END
$$$$
