gdb 4631	4.9035083	0.6316245	0.5875148	1.3796	81.14	-0.2489	0.02861	0.27751000000000003	1869.5408	0.157252	-422.523503	-422.513819	-422.512874	-422.560738	33.177
 OpenBabel02181911413D

 19 19  0  0  1  0  0  0  0  0999 V2000
   -4.1143   -0.8759   -3.5927 O   0  0  0  0  0  0  0  0  0  0  0  0
   -3.3441    0.2407   -4.0186 C   0  0  0  0  0  0  0  0  0  0  0  0
   -2.2734    0.6009   -3.0895 C   0  0  0  0  0  0  0  0  0  0  0  0
   -1.4248    0.8942   -2.2850 C   0  0  0  0  0  0  0  0  0  0  0  0
   -0.3726    1.2353   -1.3423 C   0  0  1  0  0  0  0  0  0  0  0  0
   -0.1408    0.1880   -0.2133 C   0  0  0  0  0  0  0  0  0  0  0  0
    1.3948    0.2259    0.0043 C   0  0  0  0  0  0  0  0  0  0  0  0
    1.9120    1.2376   -0.8558 O   0  0  0  0  0  0  0  0  0  0  0  0
    1.0412    1.3262   -1.9633 C   0  0  0  0  0  0  0  0  0  0  0  0
   -4.4047   -0.6964   -2.6924 H   0  0  0  0  0  0  0  0  0  0  0  0
   -2.9223   -0.0442   -4.9890 H   0  0  0  0  0  0  0  0  0  0  0  0
   -3.9822    1.1210   -4.1982 H   0  0  0  0  0  0  0  0  0  0  0  0
   -0.5914    2.2061   -0.8823 H   0  0  0  0  0  0  0  0  0  0  0  0
   -0.6996    0.4447    0.6887 H   0  0  0  0  0  0  0  0  0  0  0  0
   -0.4702   -0.8005   -0.5402 H   0  0  0  0  0  0  0  0  0  0  0  0
    1.6823    0.4856    1.0268 H   0  0  0  0  0  0  0  0  0  0  0  0
    1.8435   -0.7480   -0.2403 H   0  0  0  0  0  0  0  0  0  0  0  0
    1.2317    2.2712   -2.4766 H   0  0  0  0  0  0  0  0  0  0  0  0
    1.1934    0.4972   -2.6734 H   0  0  0  0  0  0  0  0  0  0  0  0
  1 10  1  0  0  0  0
  2  1  1  0  0  0  0
  2  3  1  0  0  0  0
  3  4  3  0  0  0  0
  4  5  1  0  0  0  0
  5 13  1  1  0  0  0
  5  6  1  0  0  0  0
  6  7  1  0  0  0  0
  6 14  1  0  0  0  0
  7 16  1  0  0  0  0
  8  7  1  0  0  0  0
  9  5  1  0  0  0  0
  9  8  1  0  0  0  0
 11  2  1  0  0  0  0
 12  2  1  0  0  0  0
 15  6  1  0  0  0  0
 17  7  1  0  0  0  0
 18  9  1  0  0  0  0
 19  9  1  0  0  0  0
M TOR 0 0 1 2 3
M TOR 1 1 2 3 4
M TOR 2 2 1 0 9
M TOR 3 2 3 4 5
M TOR 4 2 3 4 8
M TOR 5 2 3 4 12
M TOR 6 3 2 1 10
M TOR 7 3 2 1 11
M TOR 8 3 4 5 6
M TOR 9 3 4 5 13
M TOR 10 3 4 5 14
M TOR 11 3 4 8 7
M TOR 12 3 4 8 17
M TOR 13 3 4 8 18
M TOR 14 4 5 6 7
M TOR 15 4 5 6 15
M TOR 16 4 5 6 16
M TOR 17 4 8 7 6
M TOR 18 5 4 8 7
M TOR 19 5 4 8 17
M TOR 20 5 4 8 18
M TOR 21 5 6 7 8
M TOR 22 6 5 4 8
M TOR 23 6 5 4 12
M TOR 24 6 7 8 17
M TOR 25 6 7 8 18
M TOR 26 7 6 5 13
M TOR 27 7 6 5 14
M TOR 28 7 8 4 12
M TOR 29 8 4 5 13
M TOR 30 8 4 5 14
M TOR 31 8 7 6 15
M TOR 32 8 7 6 16
M  END
$$$$
