
     RDKit          3D

 19 19  0  0  0  0  0  0  0  0999 V2000
    1.0667    0.2128   -0.5533 O   0  0  0  0  0  0  0  0  0  0  0  0
    0.8296    0.3008    0.8496 C   0  0  0  0  0  0  0  0  0  0  0  0
   -0.6201    0.5527    1.1710 C   0  0  0  0  0  0  0  0  0  0  0  0
   -1.0045    1.6365    1.8645 C   0  0  0  0  0  0  0  0  0  0  0  0
   -2.3555    1.9902    2.2849 C   0  0  0  0  0  0  0  0  0  0  0  0
   -3.5291    1.4809    1.8812 C   0  0  0  0  0  0  0  0  0  0  0  0
   -3.7996    0.4700    0.8045 C   0  0  0  0  0  0  0  0  0  0  0  0
   -2.7184    0.1195   -0.0221 O   0  0  0  0  0  0  0  0  0  0  0  0
   -1.6059   -0.4642    0.6435 C   0  0  0  0  0  0  0  0  0  0  0  0
    0.7196    1.0189   -0.9510 H   0  0  0  0  0  0  0  0  0  0  0  0
    1.1531   -0.6698    1.2478 H   0  0  0  0  0  0  0  0  0  0  0  0
    1.4583    1.0716    1.3198 H   0  0  0  0  0  0  0  0  0  0  0  0
   -0.2255    2.3183    2.2026 H   0  0  0  0  0  0  0  0  0  0  0  0
   -2.3985    2.7631    3.0495 H   0  0  0  0  0  0  0  0  0  0  0  0
   -4.4348    1.8514    2.3596 H   0  0  0  0  0  0  0  0  0  0  0  0
   -4.2594   -0.4271    1.2610 H   0  0  0  0  0  0  0  0  0  0  0  0
   -4.5570    0.8802    0.1226 H   0  0  0  0  0  0  0  0  0  0  0  0
   -1.9507   -1.1160    1.4629 H   0  0  0  0  0  0  0  0  0  0  0  0
   -1.1074   -1.0930   -0.0993 H   0  0  0  0  0  0  0  0  0  0  0  0
  1  2  1  0
  2  3  1  0
  3  4  2  0
  4  5  1  0
  5  6  2  0
  6  7  1  0
  7  8  1  0
  8  9  1  0
  9  3  1  0
  1 10  1  0
  2 11  1  0
  2 12  1  0
  4 13  1  0
  5 14  1  0
  6 15  1  0
  7 16  1  0
  7 17  1  0
  9 18  1  0
  9 19  1  0
M  END
$$$$
