
     RDKit          3D

 19 21  0  0  0  0  0  0  0  0999 V2000
   -1.1166   -3.5100    0.3341 O   0  0  0  0  0  0  0  0  0  0  0  0
   -1.7413   -2.3547    0.8400 C   0  0  0  0  0  0  0  0  0  0  0  0
   -1.6146   -1.0828   -0.0662 C   0  0  0  0  0  0  0  0  0  0  0  0
   -0.8079   -0.3892    1.0430 C   0  0  0  0  0  0  0  0  0  0  0  0
   -1.6334   -0.3270    2.2972 C   0  0  0  0  0  0  0  0  0  0  0  0
   -0.9648   -1.6273    1.9462 C   0  0  0  0  0  0  0  0  0  0  0  0
    0.3902    0.4507    0.8203 C   0  0  0  0  0  0  0  0  0  0  0  0
    0.5759    1.2570   -0.3945 C   0  0  0  0  0  0  0  0  0  0  0  0
    1.2824    0.0267   -0.2224 O   0  0  0  0  0  0  0  0  0  0  0  0
   -0.2086   -3.2781    0.1057 H   0  0  0  0  0  0  0  0  0  0  0  0
   -2.7595   -2.6616    1.0994 H   0  0  0  0  0  0  0  0  0  0  0  0
   -1.0069   -1.3110   -0.9454 H   0  0  0  0  0  0  0  0  0  0  0  0
   -2.5378   -0.5863   -0.3832 H   0  0  0  0  0  0  0  0  0  0  0  0
   -1.1884    0.2090    3.1306 H   0  0  0  0  0  0  0  0  0  0  0  0
   -2.7145   -0.2229    2.2313 H   0  0  0  0  0  0  0  0  0  0  0  0
   -0.2415   -2.0983    2.6027 H   0  0  0  0  0  0  0  0  0  0  0  0
    0.8995    0.7799    1.7280 H   0  0  0  0  0  0  0  0  0  0  0  0
   -0.1941    1.2479   -1.1647 H   0  0  0  0  0  0  0  0  0  0  0  0
    1.1865    2.1583   -0.3595 H   0  0  0  0  0  0  0  0  0  0  0  0
  1  2  1  0
  2  3  1  0
  3  4  1  0
  4  5  1  0
  5  6  1  0
  4  7  1  0
  7  8  1  0
  8  9  1  0
  6  2  1  0
  9  7  1  0
  6  4  1  0
  1 10  1  0
  2 11  1  0
  3 12  1  0
  3 13  1  0
  5 14  1  0
  5 15  1  0
  6 16  1  0
  7 17  1  0
  8 18  1  0
  8 19  1  0
M  END
$$$$
