
     RDKit          3D

 19 21  0  0  0  0  0  0  0  0999 V2000
    2.1615    1.3418    0.0696 C   0  0  0  0  0  0  0  0  0  0  0  0
    1.3051    0.0811    0.0282 C   0  0  0  0  0  0  0  0  0  0  0  0
   -0.1920    0.3918    0.1110 C   0  0  0  0  0  0  0  0  0  0  0  0
    1.6824   -0.7515    1.1623 O   0  0  0  0  0  0  0  0  0  0  0  0
    1.7654   -2.0784    0.7153 C   0  0  0  0  0  0  0  0  0  0  0  0
    2.7260   -2.3798   -0.4245 C   0  0  0  0  0  0  0  0  0  0  0  0
    3.0575   -1.1632   -1.0923 O   0  0  0  0  0  0  0  0  0  0  0  0
    1.6321   -0.8359   -1.1596 C   0  0  0  0  0  0  0  0  0  0  0  0
    1.2435   -2.2540   -0.6825 C   0  0  0  0  0  0  0  0  0  0  0  0
    2.0048    1.8686    1.0151 H   0  0  0  0  0  0  0  0  0  0  0  0
    3.2159    1.0777   -0.0192 H   0  0  0  0  0  0  0  0  0  0  0  0
    1.8918    2.0193   -0.7473 H   0  0  0  0  0  0  0  0  0  0  0  0
   -0.4077    0.9149    1.0467 H   0  0  0  0  0  0  0  0  0  0  0  0
   -0.5106    1.0288   -0.7207 H   0  0  0  0  0  0  0  0  0  0  0  0
   -0.7856   -0.5270    0.0921 H   0  0  0  0  0  0  0  0  0  0  0  0
    1.5922   -2.8205    1.4857 H   0  0  0  0  0  0  0  0  0  0  0  0
    3.4218   -3.2085   -0.4882 H   0  0  0  0  0  0  0  0  0  0  0  0
    1.3367   -0.4792   -2.1469 H   0  0  0  0  0  0  0  0  0  0  0  0
    0.4793   -2.9216   -1.0550 H   0  0  0  0  0  0  0  0  0  0  0  0
  1  2  1  0
  2  3  1  0
  2  4  1  0
  4  5  1  0
  5  6  1  0
  6  7  1  0
  7  8  1  0
  8  9  1  0
  8  2  1  0
  9  5  1  0
  9  6  1  0
  1 10  1  0
  1 11  1  0
  1 12  1  0
  3 13  1  0
  3 14  1  0
  3 15  1  0
  5 16  1  0
  6 17  1  0
  8 18  1  0
  9 19  1  0
M  END
$$$$
