gdb 2327	2.5154192	1.801166	1.5469823	0.8706	74.55	-0.22786	0.05603	0.28389000000000003	969.2074	0.156633	-422.505018	-422.497136	-422.496192	-422.536998	30.821
 OpenBabel02181911413D

 19 21  0  0  1  0  0  0  0  0999 V2000
   -0.1142   -0.0862    0.0744 C   0  0  0  0  0  0  0  0  0  0  0  0
    1.3819   -0.0055   -0.0338 C   0  0  2  0  0  0  0  0  0  0  0  0
    2.2473   -1.2637    0.3231 C   0  0  0  0  0  0  0  0  0  0  0  0
    2.9240   -0.4731    1.5005 C   0  0  0  0  0  0  0  0  0  0  0  0
    2.3490    0.7895    0.8878 C   0  0  2  0  0  0  0  0  0  0  0  0
    2.0283    2.0275    1.4992 O   0  0  0  0  0  0  0  0  0  0  0  0
    2.2979    2.7354    0.2501 C   0  0  0  0  0  0  0  0  0  0  0  0
    2.8010    1.4381   -0.4274 C   0  0  2  0  0  0  0  0  0  0  0  0
    1.8408    0.7136   -1.2177 O   0  0  0  0  0  0  0  0  0  0  0  0
   -0.4106   -0.5937    0.9978 H   0  0  0  0  0  0  0  0  0  0  0  0
   -0.5565    0.9140    0.0703 H   0  0  0  0  0  0  0  0  0  0  0  0
   -0.5273   -0.6484   -0.7708 H   0  0  0  0  0  0  0  0  0  0  0  0
    1.6823   -2.1485    0.6221 H   0  0  0  0  0  0  0  0  0  0  0  0
    2.9320   -1.5294   -0.4837 H   0  0  0  0  0  0  0  0  0  0  0  0
    2.4540   -0.7055    2.4610 H   0  0  0  0  0  0  0  0  0  0  0  0
    4.0089   -0.5391    1.6136 H   0  0  0  0  0  0  0  0  0  0  0  0
    1.3924    3.1586   -0.1961 H   0  0  0  0  0  0  0  0  0  0  0  0
    3.0497    3.5178    0.4006 H   0  0  0  0  0  0  0  0  0  0  0  0
    3.8065    1.4359   -0.8533 H   0  0  0  0  0  0  0  0  0  0  0  0
  1 10  1  0  0  0  0
  2  1  1  1  0  0  0
  2  3  1  0  0  0  0
  2  5  1  0  0  0  0
  3 13  1  0  0  0  0
  3  4  1  0  0  0  0
  4 16  1  0  0  0  0
  4 15  1  0  0  0  0
  5  6  1  1  0  0  0
  5  4  1  0  0  0  0
  7 18  1  0  0  0  0
  7  6  1  0  0  0  0
  8 19  1  6  0  0  0
  8  7  1  0  0  0  0
  8  5  1  0  0  0  0
  9  8  1  0  0  0  0
  9  2  1  0  0  0  0
 11  1  1  0  0  0  0
 12  1  1  0  0  0  0
 14  3  1  0  0  0  0
 17  7  1  0  0  0  0
M TOR 0 0 1 2 3
M TOR 1 0 1 2 12
M TOR 2 0 1 2 13
M TOR 3 0 1 4 3
M TOR 4 0 1 4 5
M TOR 5 0 1 4 7
M TOR 6 0 1 8 7
M TOR 7 1 2 3 4
M TOR 8 1 2 3 14
M TOR 9 1 2 3 15
M TOR 10 1 4 3 14
M TOR 11 1 4 3 15
M TOR 12 1 4 5 6
M TOR 13 1 4 7 6
M TOR 14 1 4 7 8
M TOR 15 1 4 7 18
M TOR 16 1 8 7 6
M TOR 17 1 8 7 18
M TOR 18 2 1 0 9
M TOR 19 2 1 0 10
M TOR 20 2 1 0 11
M TOR 21 2 1 4 5
M TOR 22 2 1 4 7
M TOR 23 2 1 8 7
M TOR 24 2 3 4 5
M TOR 25 2 3 4 7
M TOR 26 3 2 1 8
M TOR 27 3 4 1 8
M TOR 28 3 4 5 6
M TOR 29 3 4 7 6
M TOR 30 3 4 7 8
M TOR 31 3 4 7 18
M TOR 32 4 1 0 9
M TOR 33 4 1 0 10
M TOR 34 4 1 0 11
M TOR 35 4 1 2 12
M TOR 36 4 1 2 13
M TOR 37 4 3 2 12
M TOR 38 4 3 2 13
M TOR 39 4 5 6 7
M TOR 40 4 5 6 16
M TOR 41 4 5 6 17
M TOR 42 4 7 6 16
M TOR 43 4 7 6 17
M TOR 44 5 4 1 8
M TOR 45 5 4 3 14
M TOR 46 5 4 3 15
M TOR 47 5 4 7 8
M TOR 48 5 4 7 18
M TOR 49 5 6 7 8
M TOR 50 5 6 7 18
M TOR 51 7 4 3 14
M TOR 52 7 4 3 15
M TOR 53 8 1 0 9
M TOR 54 8 1 0 10
M TOR 55 8 1 0 11
M TOR 56 8 1 2 12
M TOR 57 8 1 2 13
M TOR 58 8 7 6 16
M TOR 59 8 7 6 17
M  END
$$$$
