gdb 1362	3.0547809	0.90943	0.7342743	3.0366	79.08	-0.2383	-0.00663	0.23167000000000001	1521.1072	0.15255	-422.53465	-422.523943	-422.522999	-422.571	37.661
 OpenBabel02181911403D

 19 18  0  0  1  0  0  0  0  0999 V2000
    0.2305   -2.7764   -4.1086 C   0  0  0  0  0  0  0  0  0  0  0  0
   -0.0309   -3.4712   -2.7565 C   0  0  1  0  0  0  0  0  0  0  0  0
    0.5199   -2.6253   -1.5980 C   0  0  0  0  0  0  0  0  0  0  0  0
    0.3951   -3.3126   -0.2321 C   0  0  2  0  0  0  0  0  0  0  0  0
   -1.0009   -3.4386    0.0296 O   0  0  0  0  0  0  0  0  0  0  0  0
    1.0775   -2.5629    0.8276 C   0  0  0  0  0  0  0  0  0  0  0  0
    1.6289   -1.9591    1.7085 C   0  0  0  0  0  0  0  0  0  0  0  0
   -1.5296   -3.7157   -2.6526 C   0  0  0  0  0  0  0  0  0  0  0  0
   -2.0626   -4.7681   -2.8912 O   0  0  0  0  0  0  0  0  0  0  0  0
   -0.1123   -3.3989   -4.9395 H   0  0  0  0  0  0  0  0  0  0  0  0
   -0.2924   -1.8149   -4.1658 H   0  0  0  0  0  0  0  0  0  0  0  0
    1.2996   -2.5832   -4.2405 H   0  0  0  0  0  0  0  0  0  0  0  0
    0.4500   -4.4564   -2.7645 H   0  0  0  0  0  0  0  0  0  0  0  0
    1.5758   -2.4025   -1.7815 H   0  0  0  0  0  0  0  0  0  0  0  0
   -0.0045   -1.6637   -1.5423 H   0  0  0  0  0  0  0  0  0  0  0  0
    0.8582   -4.3103   -0.3025 H   0  0  0  0  0  0  0  0  0  0  0  0
   -1.1185   -3.9566    0.8324 H   0  0  0  0  0  0  0  0  0  0  0  0
    2.1162   -1.4235    2.4858 H   0  0  0  0  0  0  0  0  0  0  0  0
   -2.1240   -2.8070   -2.4054 H   0  0  0  0  0  0  0  0  0  0  0  0
  1  2  1  0  0  0  0
  2 13  1  6  0  0  0
  2  8  1  0  0  0  0
  2  3  1  0  0  0  0
  3 15  1  0  0  0  0
  3  4  1  0  0  0  0
  4 16  1  6  0  0  0
  4  5  1  0  0  0  0
  4  6  1  0  0  0  0
  5 17  1  0  0  0  0
  6  7  3  0  0  0  0
  7 18  1  0  0  0  0
  8 19  1  0  0  0  0
  9  8  2  0  0  0  0
 10  1  1  0  0  0  0
 11  1  1  0  0  0  0
 12  1  1  0  0  0  0
 14  3  1  0  0  0  0
M TOR 0 0 1 2 3
M TOR 1 0 1 2 13
M TOR 2 0 1 2 14
M TOR 3 0 1 7 8
M TOR 4 0 1 7 18
M TOR 5 1 2 3 4
M TOR 6 1 2 3 5
M TOR 7 1 2 3 15
M TOR 8 2 1 0 9
M TOR 9 2 1 0 10
M TOR 10 2 1 0 11
M TOR 11 2 1 7 8
M TOR 12 2 1 7 18
M TOR 13 2 3 4 16
M TOR 14 2 3 5 6
M TOR 15 3 2 1 7
M TOR 16 3 2 1 12
M TOR 17 3 5 6 17
M TOR 18 4 3 2 13
M TOR 19 4 3 2 14
M TOR 20 4 3 5 6
M TOR 21 5 3 2 13
M TOR 22 5 3 2 14
M TOR 23 5 3 4 16
M TOR 24 6 5 3 15
M TOR 25 7 1 0 9
M TOR 26 7 1 0 10
M TOR 27 7 1 0 11
M TOR 28 7 1 2 13
M TOR 29 7 1 2 14
M TOR 30 8 7 1 12
M  END
$$$$
