gdb 252	2.9302132	1.7185579	1.2493264	1.6852	74.9	-0.24017	0.08441	0.32458	1020.7023	0.158778	-422.527946	-422.520711	-422.519767	-422.559314	29.161
 OpenBabel02181911403D

 19 21  0  0  1  0  0  0  0  0999 V2000
    1.7459    3.0231   -1.2854 C   0  0  0  0  0  0  0  0  0  0  0  0
    2.6282    2.0762   -0.4591 C   0  0  1  0  0  0  0  0  0  0  0  0
    2.0898    2.0566    0.8804 O   0  0  0  0  0  0  0  0  0  0  0  0
    1.4831    1.2222   -0.1015 C   0  0  2  0  0  0  0  0  0  0  0  0
    1.2380   -0.2370    0.0959 C   0  0  0  0  0  0  0  0  0  0  0  0
    0.6330   -0.8006   -1.2074 C   0  0  0  0  0  0  0  0  0  0  0  0
   -0.4485    0.1348   -1.7615 C   0  0  0  0  0  0  0  0  0  0  0  0
    0.0761    1.4183   -2.0822 O   0  0  0  0  0  0  0  0  0  0  0  0
    0.5318    2.1069   -0.9340 C   0  0  2  0  0  0  0  0  0  0  0  0
    1.7109    4.0562   -0.9339 H   0  0  0  0  0  0  0  0  0  0  0  0
    1.9447    2.9887   -2.3582 H   0  0  0  0  0  0  0  0  0  0  0  0
    3.6820    1.8434   -0.5618 H   0  0  0  0  0  0  0  0  0  0  0  0
    2.1537   -0.7632    0.3839 H   0  0  0  0  0  0  0  0  0  0  0  0
    0.5203   -0.3644    0.9182 H   0  0  0  0  0  0  0  0  0  0  0  0
    1.4164   -0.9068   -1.9664 H   0  0  0  0  0  0  0  0  0  0  0  0
    0.2071   -1.7947   -1.0331 H   0  0  0  0  0  0  0  0  0  0  0  0
   -0.8619   -0.2598   -2.6939 H   0  0  0  0  0  0  0  0  0  0  0  0
   -1.2775    0.2286   -1.0392 H   0  0  0  0  0  0  0  0  0  0  0  0
   -0.3029    2.5637   -0.3837 H   0  0  0  0  0  0  0  0  0  0  0  0
  1  9  1  0  0  0  0
  1 10  1  0  0  0  0
  1  2  1  0  0  0  0
  2 12  1  6  0  0  0
  2  4  1  0  0  0  0
  2  3  1  0  0  0  0
  4  5  1  0  0  0  0
  4  3  1  1  0  0  0
  5 13  1  0  0  0  0
  5 14  1  0  0  0  0
  6 16  1  0  0  0  0
  6  5  1  0  0  0  0
  7  6  1  0  0  0  0
  7 18  1  0  0  0  0
  8  7  1  0  0  0  0
  8  9  1  0  0  0  0
  9 19  1  1  0  0  0
  9  4  1  0  0  0  0
 11  1  1  0  0  0  0
 15  6  1  0  0  0  0
 17  7  1  0  0  0  0
M TOR 0 0 1 2 3
M TOR 1 0 1 3 4
M TOR 2 0 1 3 8
M TOR 3 0 8 3 2
M TOR 4 0 8 3 4
M TOR 5 0 8 7 6
M TOR 6 1 0 8 7
M TOR 7 1 0 8 18
M TOR 8 1 2 3 4
M TOR 9 1 2 3 8
M TOR 10 1 3 4 5
M TOR 11 1 3 4 12
M TOR 12 1 3 4 13
M TOR 13 1 3 8 7
M TOR 14 1 3 8 18
M TOR 15 2 1 0 8
M TOR 16 2 1 0 9
M TOR 17 2 1 0 10
M TOR 18 2 3 1 11
M TOR 19 2 3 4 5
M TOR 20 2 3 4 12
M TOR 21 2 3 4 13
M TOR 22 2 3 8 7
M TOR 23 2 3 8 18
M TOR 24 3 1 0 9
M TOR 25 3 1 0 10
M TOR 26 3 4 5 6
M TOR 27 3 4 5 14
M TOR 28 3 4 5 15
M TOR 29 3 8 0 9
M TOR 30 3 8 0 10
M TOR 31 3 8 7 6
M TOR 32 4 3 1 11
M TOR 33 4 3 8 7
M TOR 34 4 3 8 18
M TOR 35 4 5 6 7
M TOR 36 4 5 6 16
M TOR 37 4 5 6 17
M TOR 38 5 4 3 8
M TOR 39 5 6 7 8
M TOR 40 6 5 4 12
M TOR 41 6 5 4 13
M TOR 42 6 7 8 18
M TOR 43 7 6 5 14
M TOR 44 7 6 5 15
M TOR 45 7 8 0 9
M TOR 46 7 8 0 10
M TOR 47 8 0 1 11
M TOR 48 8 3 1 11
M TOR 49 8 3 4 12
M TOR 50 8 3 4 13
M TOR 51 8 7 6 16
M TOR 52 8 7 6 17
M  END
$$$$
