
     RDKit          3D

 19 20  0  0  0  0  0  0  0  0999 V2000
   -3.9151    0.0140   -2.0049 C   0  0  0  0  0  0  0  0  0  0  0  0
   -2.5091    0.0115   -1.4470 C   0  0  0  0  0  0  0  0  0  0  0  0
   -2.1935    0.7799   -0.1695 C   0  0  0  0  0  0  0  0  0  0  0  0
   -0.7719    1.2454    0.0345 C   0  0  0  0  0  0  0  0  0  0  0  0
    0.0594   -0.0420   -0.0188 C   0  0  0  0  0  0  0  0  0  0  0  0
    1.2487   -0.1549    0.0151 O   0  0  0  0  0  0  0  0  0  0  0  0
   -0.7723   -1.1203   -0.1272 O   0  0  0  0  0  0  0  0  0  0  0  0
   -2.1435   -0.7294   -0.1864 C   0  0  0  0  0  0  0  0  0  0  0  0
   -3.0278   -1.6766    0.5708 C   0  0  0  0  0  0  0  0  0  0  0  0
   -4.6685    0.0610   -1.2130 H   0  0  0  0  0  0  0  0  0  0  0  0
   -4.0699    0.8831   -2.6531 H   0  0  0  0  0  0  0  0  0  0  0  0
   -4.1100   -0.8854   -2.5984 H   0  0  0  0  0  0  0  0  0  0  0  0
   -1.7253    0.0142   -2.2024 H   0  0  0  0  0  0  0  0  0  0  0  0
   -3.0064    1.2954    0.3295 H   0  0  0  0  0  0  0  0  0  0  0  0
   -0.3997    1.9417   -0.7228 H   0  0  0  0  0  0  0  0  0  0  0  0
   -0.6182    1.7171    1.0106 H   0  0  0  0  0  0  0  0  0  0  0  0
   -2.7255   -1.7275    1.6215 H   0  0  0  0  0  0  0  0  0  0  0  0
   -4.0707   -1.3544    0.5292 H   0  0  0  0  0  0  0  0  0  0  0  0
   -2.9647   -2.6853    0.1504 H   0  0  0  0  0  0  0  0  0  0  0  0
  1  2  1  0
  2  3  1  0
  3  4  1  0
  4  5  1  0
  5  6  2  0
  5  7  1  0
  7  8  1  0
  8  9  1  0
  8  2  1  0
  8  3  1  0
  1 10  1  0
  1 11  1  0
  1 12  1  0
  2 13  1  0
  3 14  1  0
  4 15  1  0
  4 16  1  0
  9 17  1  0
  9 18  1  0
  9 19  1  0
M  END
$$$$
