
     RDKit          3D

 19 20  0  0  0  0  0  0  0  0999 V2000
   -0.0317    0.1258   -0.0561 C   0  0  0  0  0  0  0  0  0  0  0  0
    1.4524   -0.0906    0.0643 C   0  0  0  0  0  0  0  0  0  0  0  0
    2.2162   -0.9149   -1.0057 C   0  0  0  0  0  0  0  0  0  0  0  0
    2.9052   -1.7459    0.1169 C   0  0  0  0  0  0  0  0  0  0  0  0
    2.2001   -0.9122    1.2144 C   0  0  0  0  0  0  0  0  0  0  0  0
    2.8406    0.4471    1.5251 C   0  0  0  0  0  0  0  0  0  0  0  0
    2.1595    1.1065    0.4311 O   0  0  0  0  0  0  0  0  0  0  0  0
    1.4533   -1.6044    2.3021 C   0  0  0  0  0  0  0  0  0  0  0  0
    1.1463   -1.0969    3.3544 O   0  0  0  0  0  0  0  0  0  0  0  0
   -0.4430    0.5334    0.8715 H   0  0  0  0  0  0  0  0  0  0  0  0
   -0.2284    0.8436   -0.8611 H   0  0  0  0  0  0  0  0  0  0  0  0
   -0.5517   -0.8066   -0.2967 H   0  0  0  0  0  0  0  0  0  0  0  0
    1.5722   -1.5038   -1.6640 H   0  0  0  0  0  0  0  0  0  0  0  0
    2.8759   -0.2948   -1.6155 H   0  0  0  0  0  0  0  0  0  0  0  0
    2.5880   -2.7933    0.1273 H   0  0  0  0  0  0  0  0  0  0  0  0
    3.9973   -1.7203    0.1465 H   0  0  0  0  0  0  0  0  0  0  0  0
    2.5324    0.8536    2.4935 H   0  0  0  0  0  0  0  0  0  0  0  0
    3.9316    0.4969    1.4265 H   0  0  0  0  0  0  0  0  0  0  0  0
    1.1506   -2.6511    2.0651 H   0  0  0  0  0  0  0  0  0  0  0  0
  1  2  1  0
  2  3  1  0
  3  4  1  0
  4  5  1  0
  5  6  1  0
  6  7  1  0
  5  8  1  0
  8  9  2  0
  5  2  1  0
  7  2  1  0
  1 10  1  0
  1 11  1  0
  1 12  1  0
  3 13  1  0
  3 14  1  0
  4 15  1  0
  4 16  1  0
  6 17  1  0
  6 18  1  0
  8 19  1  0
M  END
$$$$
