
     RDKit          3D

 19 21  0  0  0  0  0  0  0  0999 V2000
   -0.0679   -0.3004    0.2656 C   0  0  0  0  0  0  0  0  0  0  0  0
    1.4188   -0.1783    0.1214 C   0  0  0  0  0  0  0  0  0  0  0  0
    2.3675   -0.9855   -0.7636 C   0  0  0  0  0  0  0  0  0  0  0  0
    3.4426    0.0854   -0.4303 C   0  0  0  0  0  0  0  0  0  0  0  0
    3.7229   -0.1142    1.0896 C   0  0  0  0  0  0  0  0  0  0  0  0
    2.2965    0.3796    1.3023 C   0  0  0  0  0  0  0  0  0  0  0  0
    1.7216    0.8383    2.4705 O   0  0  0  0  0  0  0  0  0  0  0  0
    2.2497    1.0739   -0.0323 C   0  0  0  0  0  0  0  0  0  0  0  0
    1.8628    2.3224   -0.4388 O   0  0  0  0  0  0  0  0  0  0  0  0
   -0.4577    0.4716    0.9358 H   0  0  0  0  0  0  0  0  0  0  0  0
   -0.5717   -0.1893   -0.7008 H   0  0  0  0  0  0  0  0  0  0  0  0
   -0.3526   -1.2779    0.6748 H   0  0  0  0  0  0  0  0  0  0  0  0
    2.5964   -2.0211   -0.4830 H   0  0  0  0  0  0  0  0  0  0  0  0
    2.0594   -0.9515   -1.8134 H   0  0  0  0  0  0  0  0  0  0  0  0
    4.2582    0.3019   -1.1163 H   0  0  0  0  0  0  0  0  0  0  0  0
    3.9916   -1.1269    1.4134 H   0  0  0  0  0  0  0  0  0  0  0  0
    4.4532    0.6041    1.4745 H   0  0  0  0  0  0  0  0  0  0  0  0
    1.3629    0.0871    2.9566 H   0  0  0  0  0  0  0  0  0  0  0  0
    2.3420    2.9795    0.0791 H   0  0  0  0  0  0  0  0  0  0  0  0
  1  2  1  0
  2  3  1  0
  3  4  1  0
  4  5  1  0
  5  6  1  0
  6  7  1  0
  6  8  1  0
  8  9  1  0
  6  2  1  0
  8  2  1  0
  8  4  1  0
  1 10  1  0
  1 11  1  0
  1 12  1  0
  3 13  1  0
  3 14  1  0
  4 15  1  0
  5 16  1  0
  5 17  1  0
  7 18  1  0
  9 19  1  0
M  END
$$$$
