
     RDKit          3D

 19 20  0  0  0  0  0  0  0  0999 V2000
    0.2196   -0.6754   -3.1502 O   0  0  0  0  0  0  0  0  0  0  0  0
   -0.0578   -0.3562   -1.8141 C   0  0  0  0  0  0  0  0  0  0  0  0
   -1.3806   -0.8783   -1.1678 C   0  0  0  0  0  0  0  0  0  0  0  0
   -2.1220    0.1524   -0.2881 C   0  0  0  0  0  0  0  0  0  0  0  0
   -1.1583   -0.1831    0.8918 C   0  0  0  0  0  0  0  0  0  0  0  0
   -0.5587   -1.3712    0.0759 C   0  0  0  0  0  0  0  0  0  0  0  0
    0.7554   -1.1056   -0.6891 C   0  0  0  0  0  0  0  0  0  0  0  0
    1.9176   -0.3832   -0.0746 C   0  0  0  0  0  0  0  0  0  0  0  0
    2.0129   -0.0677    1.0862 O   0  0  0  0  0  0  0  0  0  0  0  0
    0.0802   -1.6209   -3.2719 H   0  0  0  0  0  0  0  0  0  0  0  0
    0.0358    0.7328   -1.7512 H   0  0  0  0  0  0  0  0  0  0  0  0
   -1.9576   -1.5419   -1.8165 H   0  0  0  0  0  0  0  0  0  0  0  0
   -2.1291    1.1839   -0.6538 H   0  0  0  0  0  0  0  0  0  0  0  0
   -3.1537   -0.1430   -0.0798 H   0  0  0  0  0  0  0  0  0  0  0  0
   -0.4361    0.5935    1.1443 H   0  0  0  0  0  0  0  0  0  0  0  0
   -1.6583   -0.4867    1.8135 H   0  0  0  0  0  0  0  0  0  0  0  0
   -0.6792   -2.3603    0.5169 H   0  0  0  0  0  0  0  0  0  0  0  0
    1.1416   -2.0331   -1.1350 H   0  0  0  0  0  0  0  0  0  0  0  0
    2.7197   -0.1215   -0.8048 H   0  0  0  0  0  0  0  0  0  0  0  0
  1  2  1  0
  2  3  1  0
  3  4  1  0
  4  5  1  0
  5  6  1  0
  6  7  1  0
  7  8  1  0
  8  9  2  0
  7  2  1  0
  6  3  1  0
  1 10  1  0
  2 11  1  0
  3 12  1  0
  4 13  1  0
  4 14  1  0
  5 15  1  0
  5 16  1  0
  6 17  1  0
  7 18  1  0
  8 19  1  0
M  END
$$$$
