
     RDKit          3D

 19 20  0  0  0  0  0  0  0  0999 V2000
   -0.3134    0.3688   -1.2825 C   0  0  0  0  0  0  0  0  0  0  0  0
    0.0150   -0.0923    0.1459 C   0  0  0  0  0  0  0  0  0  0  0  0
    0.8930    1.0676    0.6698 C   0  0  0  0  0  0  0  0  0  0  0  0
    1.8589    0.7421    1.7739 C   0  0  0  0  0  0  0  0  0  0  0  0
    3.1610    0.6069    1.5339 C   0  0  0  0  0  0  0  0  0  0  0  0
    3.7198    0.7168    0.1412 C   0  0  0  0  0  0  0  0  0  0  0  0
    2.7240    0.6249   -0.8604 O   0  0  0  0  0  0  0  0  0  0  0  0
    1.6136    1.4803   -0.6213 C   0  0  0  0  0  0  0  0  0  0  0  0
    0.7048    1.3117   -1.6582 O   0  0  0  0  0  0  0  0  0  0  0  0
   -0.3208   -0.4569   -2.0014 H   0  0  0  0  0  0  0  0  0  0  0  0
   -1.2834    0.8787   -1.3373 H   0  0  0  0  0  0  0  0  0  0  0  0
   -0.8801   -0.2635    0.7479 H   0  0  0  0  0  0  0  0  0  0  0  0
    0.6028   -1.0130    0.1303 H   0  0  0  0  0  0  0  0  0  0  0  0
    0.2423    1.8964    0.9788 H   0  0  0  0  0  0  0  0  0  0  0  0
    1.4645    0.6412    2.7815 H   0  0  0  0  0  0  0  0  0  0  0  0
    3.8687    0.4140    2.3357 H   0  0  0  0  0  0  0  0  0  0  0  0
    4.2944    1.6567    0.0388 H   0  0  0  0  0  0  0  0  0  0  0  0
    4.4223   -0.1007   -0.0566 H   0  0  0  0  0  0  0  0  0  0  0  0
    1.9529    2.5275   -0.6220 H   0  0  0  0  0  0  0  0  0  0  0  0
  1  2  1  0
  2  3  1  0
  3  4  1  0
  4  5  2  0
  5  6  1  0
  6  7  1  0
  7  8  1  0
  8  9  1  0
  9  1  1  0
  8  3  1  0
  1 10  1  0
  1 11  1  0
  2 12  1  0
  2 13  1  0
  3 14  1  0
  4 15  1  0
  5 16  1  0
  6 17  1  0
  6 18  1  0
  8 19  1  0
M  END
$$$$
