gdb 3853	3.7021685	1.2162108	1.1610081	1.5953	75.5	-0.23028	0.07166	0.30194	1179.1138	0.156478	-422.474184	-422.466294	-422.46535	-422.506759	31.032
 OpenBabel02181911413D

 19 21  0  0  1  0  0  0  0  0999 V2000
   -0.2401   -0.0500   -0.1626 O   0  0  0  0  0  0  0  0  0  0  0  0
   -0.4940    0.8316    0.9170 C   0  0  1  0  0  0  0  0  0  0  0  0
   -1.8108    1.5925    0.6263 C   0  0  0  0  0  0  0  0  0  0  0  0
   -2.5368    0.5986    1.5623 C   0  0  1  0  0  0  0  0  0  0  0  0
   -1.1815    0.1404    2.1321 C   0  0  0  0  0  0  0  0  0  0  0  0
   -3.8249    0.8054    2.3888 C   0  0  1  0  0  0  0  0  0  0  0  0
   -4.6688    0.6988    1.0966 C   0  0  0  0  0  0  0  0  0  0  0  0
   -3.6052   -0.4238    1.1061 C   0  0  2  0  0  0  0  0  0  0  0  0
   -3.9186   -0.6698    2.5363 O   0  0  0  0  0  0  0  0  0  0  0  0
    0.4316   -0.6788    0.1213 H   0  0  0  0  0  0  0  0  0  0  0  0
    0.3866    1.4474    1.1412 H   0  0  0  0  0  0  0  0  0  0  0  0
   -1.7979    2.6118    1.0231 H   0  0  0  0  0  0  0  0  0  0  0  0
   -2.1029    1.6171   -0.4256 H   0  0  0  0  0  0  0  0  0  0  0  0
   -0.9392    0.6293    3.0811 H   0  0  0  0  0  0  0  0  0  0  0  0
   -1.0202   -0.9351    2.2365 H   0  0  0  0  0  0  0  0  0  0  0  0
   -3.9894    1.4108    3.2818 H   0  0  0  0  0  0  0  0  0  0  0  0
   -5.6949    0.3609    1.2457 H   0  0  0  0  0  0  0  0  0  0  0  0
   -4.5814    1.4922    0.3505 H   0  0  0  0  0  0  0  0  0  0  0  0
   -3.4978   -1.2922    0.4554 H   0  0  0  0  0  0  0  0  0  0  0  0
  1 10  1  0  0  0  0
  1  2  1  0  0  0  0
  2 11  1  1  0  0  0
  2  5  1  0  0  0  0
  3  2  1  0  0  0  0
  3 12  1  0  0  0  0
  4  3  1  6  0  0  0
  4  5  1  0  0  0  0
  4  6  1  0  0  0  0
  5 15  1  0  0  0  0
  5 14  1  0  0  0  0
  6  9  1  0  0  0  0
  6 16  1  1  0  0  0
  7  8  1  0  0  0  0
  7 17  1  0  0  0  0
  7  6  1  0  0  0  0
  8 19  1  6  0  0  0
  8  4  1  0  0  0  0
  8  9  1  0  0  0  0
 13  3  1  0  0  0  0
 18  7  1  0  0  0  0
M TOR 0 0 1 2 3
M TOR 1 0 1 2 11
M TOR 2 0 1 2 12
M TOR 3 0 1 4 3
M TOR 4 0 1 4 13
M TOR 5 0 1 4 14
M TOR 6 1 2 3 4
M TOR 7 1 2 3 5
M TOR 8 1 2 3 7
M TOR 9 1 4 3 5
M TOR 10 1 4 3 7
M TOR 11 2 1 0 9
M TOR 12 2 1 4 13
M TOR 13 2 1 4 14
M TOR 14 2 3 4 13
M TOR 15 2 3 4 14
M TOR 16 2 3 5 6
M TOR 17 2 3 5 8
M TOR 18 2 3 5 15
M TOR 19 2 3 7 6
M TOR 20 2 3 7 8
M TOR 21 2 3 7 18
M TOR 22 3 2 1 10
M TOR 23 3 4 1 10
M TOR 24 3 5 6 7
M TOR 25 3 5 6 16
M TOR 26 3 5 6 17
M TOR 27 3 5 8 7
M TOR 28 3 7 6 16
M TOR 29 3 7 6 17
M TOR 30 4 1 0 9
M TOR 31 4 1 2 11
M TOR 32 4 1 2 12
M TOR 33 4 3 2 11
M TOR 34 4 3 2 12
M TOR 35 4 3 5 6
M TOR 36 4 3 5 8
M TOR 37 4 3 5 15
M TOR 38 4 3 7 6
M TOR 39 4 3 7 8
M TOR 40 4 3 7 18
M TOR 41 5 3 2 11
M TOR 42 5 3 2 12
M TOR 43 5 3 4 13
M TOR 44 5 3 4 14
M TOR 45 5 3 7 18
M TOR 46 5 6 7 8
M TOR 47 5 6 7 18
M TOR 48 5 8 7 18
M TOR 49 7 3 2 11
M TOR 50 7 3 2 12
M TOR 51 7 3 4 13
M TOR 52 7 3 4 14
M TOR 53 7 3 5 15
M TOR 54 7 6 5 15
M TOR 55 7 8 5 15
M TOR 56 8 5 6 16
M TOR 57 8 5 6 17
M TOR 58 8 7 6 16
M TOR 59 8 7 6 17
M  END
$$$$
