
     RDKit          3D

 19 21  0  0  0  0  0  0  0  0999 V2000
    0.7430    0.7579   -0.1877 C   0  0  0  0  0  0  0  0  0  0  0  0
    0.9092   -0.7233    0.1665 C   0  0  0  0  0  0  0  0  0  0  0  0
    1.3436   -1.6300   -1.0255 C   0  0  0  0  0  0  0  0  0  0  0  0
    2.7889   -1.9950   -0.6931 C   0  0  0  0  0  0  0  0  0  0  0  0
    3.5590   -0.7421   -0.6217 O   0  0  0  0  0  0  0  0  0  0  0  0
    3.4404   -0.7794    0.7979 C   0  0  0  0  0  0  0  0  0  0  0  0
    2.8668   -2.1667    0.8393 C   0  0  0  0  0  0  0  0  0  0  0  0
    2.0002   -0.9706    1.2169 C   0  0  0  0  0  0  0  0  0  0  0  0
    1.7544   -0.6728    2.5528 O   0  0  0  0  0  0  0  0  0  0  0  0
    0.5536    1.3489    0.7142 H   0  0  0  0  0  0  0  0  0  0  0  0
    1.6507    1.1366   -0.6652 H   0  0  0  0  0  0  0  0  0  0  0  0
   -0.0966    0.9106   -0.8740 H   0  0  0  0  0  0  0  0  0  0  0  0
   -0.0368   -1.0917    0.5860 H   0  0  0  0  0  0  0  0  0  0  0  0
    0.7330   -2.5383   -1.0840 H   0  0  0  0  0  0  0  0  0  0  0  0
    1.2765   -1.1159   -1.9887 H   0  0  0  0  0  0  0  0  0  0  0  0
    3.2751   -2.7228   -1.3451 H   0  0  0  0  0  0  0  0  0  0  0  0
    4.1832   -0.2739    1.4038 H   0  0  0  0  0  0  0  0  0  0  0  0
    3.0953   -3.0386    1.4364 H   0  0  0  0  0  0  0  0  0  0  0  0
    1.0880   -1.2874    2.8817 H   0  0  0  0  0  0  0  0  0  0  0  0
  1  2  1  0
  2  3  1  0
  3  4  1  0
  4  5  1  0
  5  6  1  0
  6  7  1  0
  7  8  1  0
  8  9  1  0
  8  2  1  0
  7  4  1  0
  8  6  1  0
  1 10  1  0
  1 11  1  0
  1 12  1  0
  2 13  1  0
  3 14  1  0
  3 15  1  0
  4 16  1  0
  6 17  1  0
  7 18  1  0
  9 19  1  0
M  END
$$$$
