gdb 1914	2.4625499	1.525717	1.2558905	2.3502	76.52	-0.23232	-0.01205	0.22027	1099.8095	0.154285	-422.558189	-422.54861	-422.547666	-422.592054	35.428
 OpenBabel02181911403D

 19 20  0  0  1  0  0  0  0  0999 V2000
   -1.1226   -2.3817    1.0187 C   0  0  0  0  0  0  0  0  0  0  0  0
   -1.0943   -1.1679    0.1353 C   0  0  1  0  0  0  0  0  0  0  0  0
   -1.9133   -1.0389   -1.1419 C   0  0  0  0  0  0  0  0  0  0  0  0
   -2.1199   -0.0026   -0.0975 C   0  0  2  0  0  0  0  0  0  0  0  0
   -1.0055    1.0529   -0.1538 C   0  0  1  0  0  0  0  0  0  0  0  0
   -0.8451    1.9310   -1.3837 C   0  0  0  0  0  0  0  0  0  0  0  0
   -1.0526    1.8394    1.0299 O   0  0  0  0  0  0  0  0  0  0  0  0
   -0.0211   -0.1319    0.1282 C   0  0  0  0  0  0  0  0  0  0  0  0
    1.1134   -0.1129    0.5288 O   0  0  0  0  0  0  0  0  0  0  0  0
   -0.4520   -3.1587    0.6364 H   0  0  0  0  0  0  0  0  0  0  0  0
   -0.8005   -2.1343    2.0347 H   0  0  0  0  0  0  0  0  0  0  0  0
   -2.1296   -2.8073    1.0705 H   0  0  0  0  0  0  0  0  0  0  0  0
   -1.4407   -0.7997   -2.0897 H   0  0  0  0  0  0  0  0  0  0  0  0
   -2.6931   -1.7901   -1.2239 H   0  0  0  0  0  0  0  0  0  0  0  0
   -3.0508    0.1431    0.4346 H   0  0  0  0  0  0  0  0  0  0  0  0
   -0.8879    1.3587   -2.3144 H   0  0  0  0  0  0  0  0  0  0  0  0
   -1.6318    2.6914   -1.4022 H   0  0  0  0  0  0  0  0  0  0  0  0
    0.1230    2.4422   -1.3499 H   0  0  0  0  0  0  0  0  0  0  0  0
   -0.1407    2.0572    1.2592 H   0  0  0  0  0  0  0  0  0  0  0  0
  1 12  1  0  0  0  0
  1 11  1  0  0  0  0
  2  1  1  1  0  0  0
  3  4  1  0  0  0  0
  3  2  1  0  0  0  0
  4  2  1  0  0  0  0
  4 15  1  1  0  0  0
  5  4  1  0  0  0  0
  5  8  1  0  0  0  0
  5  7  1  1  0  0  0
  6 18  1  0  0  0  0
  6  5  1  0  0  0  0
  7 19  1  0  0  0  0
  8  2  1  0  0  0  0
  8  9  2  0  0  0  0
 10  1  1  0  0  0  0
 13  3  1  0  0  0  0
 14  3  1  0  0  0  0
 16  6  1  0  0  0  0
 17  6  1  0  0  0  0
M TOR 0 0 1 2 3
M TOR 1 0 1 2 12
M TOR 2 0 1 2 13
M TOR 3 0 1 3 4
M TOR 4 0 1 3 14
M TOR 5 0 1 7 4
M TOR 6 0 1 7 8
M TOR 7 1 2 3 4
M TOR 8 1 2 3 14
M TOR 9 1 3 2 12
M TOR 10 1 3 2 13
M TOR 11 1 3 4 5
M TOR 12 1 3 4 6
M TOR 13 1 3 4 7
M TOR 14 1 7 4 5
M TOR 15 1 7 4 6
M TOR 16 2 1 0 9
M TOR 17 2 1 0 10
M TOR 18 2 1 0 11
M TOR 19 2 1 7 4
M TOR 20 2 1 7 8
M TOR 21 2 3 1 7
M TOR 22 2 3 4 5
M TOR 23 2 3 4 6
M TOR 24 2 3 4 7
M TOR 25 3 1 0 9
M TOR 26 3 1 0 10
M TOR 27 3 1 0 11
M TOR 28 3 1 7 8
M TOR 29 3 4 5 15
M TOR 30 3 4 5 16
M TOR 31 3 4 5 17
M TOR 32 3 4 6 18
M TOR 33 3 4 7 8
M TOR 34 4 3 2 12
M TOR 35 4 3 2 13
M TOR 36 5 4 3 14
M TOR 37 5 4 6 18
M TOR 38 5 4 7 8
M TOR 39 6 4 3 14
M TOR 40 6 4 5 15
M TOR 41 6 4 5 16
M TOR 42 6 4 5 17
M TOR 43 6 4 7 8
M TOR 44 7 1 0 9
M TOR 45 7 1 0 10
M TOR 46 7 1 0 11
M TOR 47 7 1 2 12
M TOR 48 7 1 2 13
M TOR 49 7 1 3 14
M TOR 50 7 4 3 14
M TOR 51 7 4 5 15
M TOR 52 7 4 5 16
M TOR 53 7 4 5 17
M TOR 54 7 4 6 18
M  END
$$$$
