
     RDKit          3D

 19 20  0  0  0  0  0  0  0  0999 V2000
   -3.2718   -3.0360    1.0356 C   0  0  0  0  0  0  0  0  0  0  0  0
   -3.1206   -1.5699    1.3521 C   0  0  0  0  0  0  0  0  0  0  0  0
   -1.9872   -1.1789    2.1439 O   0  0  0  0  0  0  0  0  0  0  0  0
   -2.0747   -0.7119    0.7871 C   0  0  0  0  0  0  0  0  0  0  0  0
   -2.2356    0.7972    0.6061 C   0  0  0  0  0  0  0  0  0  0  0  0
   -0.8128    1.2862    0.2910 C   0  0  0  0  0  0  0  0  0  0  0  0
   -0.1373    0.1048   -0.4157 C   0  0  0  0  0  0  0  0  0  0  0  0
    0.8725    0.1527   -1.0664 O   0  0  0  0  0  0  0  0  0  0  0  0
   -0.9745   -1.1600   -0.1604 C   0  0  0  0  0  0  0  0  0  0  0  0
   -3.6201   -3.5816    1.9185 H   0  0  0  0  0  0  0  0  0  0  0  0
   -4.0120   -3.1797    0.2408 H   0  0  0  0  0  0  0  0  0  0  0  0
   -2.3252   -3.4758    0.7141 H   0  0  0  0  0  0  0  0  0  0  0  0
   -4.0467   -1.0747    1.6551 H   0  0  0  0  0  0  0  0  0  0  0  0
   -2.9024    0.9977   -0.2414 H   0  0  0  0  0  0  0  0  0  0  0  0
   -2.6739    1.2523    1.4963 H   0  0  0  0  0  0  0  0  0  0  0  0
   -0.7499    2.1931   -0.3137 H   0  0  0  0  0  0  0  0  0  0  0  0
   -0.2512    1.4706    1.2161 H   0  0  0  0  0  0  0  0  0  0  0  0
   -1.3731   -1.5067   -1.1220 H   0  0  0  0  0  0  0  0  0  0  0  0
   -0.3543   -1.9599    0.2490 H   0  0  0  0  0  0  0  0  0  0  0  0
  1  2  1  0
  2  3  1  0
  3  4  1  0
  4  5  1  0
  5  6  1  0
  6  7  1  0
  7  8  2  0
  7  9  1  0
  4  2  1  0
  9  4  1  0
  1 10  1  0
  1 11  1  0
  1 12  1  0
  2 13  1  0
  5 14  1  0
  5 15  1  0
  6 16  1  0
  6 17  1  0
  9 18  1  0
  9 19  1  0
M  END
$$$$
