gdb 1907	2.1621863	1.6792595	1.3551334	3.1842	75.62	-0.23507	-0.02473	0.21034	1063.5981	0.153555	-422.547183	-422.53766	-422.536716	-422.580828	35.194
 OpenBabel02181911403D

 19 20  0  0  1  0  0  0  0  0999 V2000
   -3.4567   -0.0067   -0.6214 C   0  0  0  0  0  0  0  0  0  0  0  0
   -2.0884    0.0590   -0.0246 C   0  0  2  0  0  0  0  0  0  0  0  0
   -1.9025    0.7878    1.1870 O   0  0  0  0  0  0  0  0  0  0  0  0
   -1.1183    1.1888    0.0361 C   0  0  1  0  0  0  0  0  0  0  0  0
    0.0306    0.1933   -0.0018 C   0  0  0  0  0  0  0  0  0  0  0  0
    1.2171    0.2782   -0.1238 O   0  0  0  0  0  0  0  0  0  0  0  0
   -0.9632   -1.0187   -0.0452 C   0  0  0  0  0  0  0  0  0  0  0  0
   -0.8146   -1.7315   -1.3933 C   0  0  0  0  0  0  0  0  0  0  0  0
   -0.9289   -1.9861    1.1336 C   0  0  0  0  0  0  0  0  0  0  0  0
   -3.9465    0.9683   -0.5579 H   0  0  0  0  0  0  0  0  0  0  0  0
   -3.4112   -0.3119   -1.6708 H   0  0  0  0  0  0  0  0  0  0  0  0
   -4.0764   -0.7339   -0.0852 H   0  0  0  0  0  0  0  0  0  0  0  0
   -1.1909    2.2226   -0.2825 H   0  0  0  0  0  0  0  0  0  0  0  0
   -1.6033   -2.4802   -1.5241 H   0  0  0  0  0  0  0  0  0  0  0  0
   -0.8650   -1.0325   -2.2352 H   0  0  0  0  0  0  0  0  0  0  0  0
    0.1520   -2.2411   -1.4429 H   0  0  0  0  0  0  0  0  0  0  0  0
   -1.6819   -2.7741    1.0181 H   0  0  0  0  0  0  0  0  0  0  0  0
    0.0515   -2.4693    1.1964 H   0  0  0  0  0  0  0  0  0  0  0  0
   -1.1136   -1.4606    2.0729 H   0  0  0  0  0  0  0  0  0  0  0  0
  1 10  1  0  0  0  0
  1 12  1  0  0  0  0
  2  1  1  6  0  0  0
  2  4  1  0  0  0  0
  2  3  1  0  0  0  0
  4 13  1  6  0  0  0
  4  3  1  0  0  0  0
  5  4  1  0  0  0  0
  6  5  2  0  0  0  0
  7  2  1  0  0  0  0
  7  5  1  0  0  0  0
  7  9  1  0  0  0  0
  8  7  1  0  0  0  0
  9 18  1  0  0  0  0
  9 19  1  0  0  0  0
 11  1  1  0  0  0  0
 14  8  1  0  0  0  0
 15  8  1  0  0  0  0
 16  8  1  0  0  0  0
 17  9  1  0  0  0  0
M TOR 0 0 1 2 3
M TOR 1 0 1 3 4
M TOR 2 0 1 3 12
M TOR 3 0 1 6 4
M TOR 4 0 1 6 7
M TOR 5 0 1 6 8
M TOR 6 1 2 3 4
M TOR 7 1 2 3 12
M TOR 8 1 3 4 5
M TOR 9 1 3 4 6
M TOR 10 1 6 4 5
M TOR 11 1 6 7 13
M TOR 12 1 6 7 14
M TOR 13 1 6 7 15
M TOR 14 1 6 8 16
M TOR 15 1 6 8 17
M TOR 16 1 6 8 18
M TOR 17 2 1 0 9
M TOR 18 2 1 0 10
M TOR 19 2 1 0 11
M TOR 20 2 1 6 4
M TOR 21 2 1 6 7
M TOR 22 2 1 6 8
M TOR 23 2 3 1 6
M TOR 24 2 3 4 5
M TOR 25 2 3 4 6
M TOR 26 3 1 0 9
M TOR 27 3 1 0 10
M TOR 28 3 1 0 11
M TOR 29 3 1 6 7
M TOR 30 3 1 6 8
M TOR 31 3 4 6 7
M TOR 32 3 4 6 8
M TOR 33 4 6 7 13
M TOR 34 4 6 7 14
M TOR 35 4 6 7 15
M TOR 36 4 6 8 16
M TOR 37 4 6 8 17
M TOR 38 4 6 8 18
M TOR 39 5 4 3 12
M TOR 40 5 4 6 7
M TOR 41 5 4 6 8
M TOR 42 6 1 0 9
M TOR 43 6 1 0 10
M TOR 44 6 1 0 11
M TOR 45 6 1 3 12
M TOR 46 6 4 3 12
M TOR 47 7 6 8 16
M TOR 48 7 6 8 17
M TOR 49 7 6 8 18
M TOR 50 8 6 7 13
M TOR 51 8 6 7 14
M TOR 52 8 6 7 15
M  END
$$$$
