
     RDKit          3D

 19 21  0  0  0  0  0  0  0  0999 V2000
    0.4413    0.4885    0.8214 O   0  0  0  0  0  0  0  0  0  0  0  0
   -0.8753    0.7143    0.4177 C   0  0  0  0  0  0  0  0  0  0  0  0
   -1.9855   -0.1522    0.9766 C   0  0  0  0  0  0  0  0  0  0  0  0
   -1.8518    1.3018    1.3884 C   0  0  0  0  0  0  0  0  0  0  0  0
   -2.7121    2.2105    0.7521 O   0  0  0  0  0  0  0  0  0  0  0  0
   -2.1954    2.4709   -0.5499 C   0  0  0  0  0  0  0  0  0  0  0  0
   -1.0831    3.5546   -0.6587 C   0  0  0  0  0  0  0  0  0  0  0  0
   -0.1371    2.5005   -1.3012 C   0  0  0  0  0  0  0  0  0  0  0  0
   -1.1477    1.3808   -0.9319 C   0  0  0  0  0  0  0  0  0  0  0  0
    0.7450   -0.3253    0.4037 H   0  0  0  0  0  0  0  0  0  0  0  0
   -2.8191   -0.4231    0.3365 H   0  0  0  0  0  0  0  0  0  0  0  0
   -1.6914   -0.8952    1.7111 H   0  0  0  0  0  0  0  0  0  0  0  0
   -1.5784    1.5597    2.4055 H   0  0  0  0  0  0  0  0  0  0  0  0
   -3.0412    2.6143   -1.2256 H   0  0  0  0  0  0  0  0  0  0  0  0
   -1.3235    4.4325   -1.2623 H   0  0  0  0  0  0  0  0  0  0  0  0
   -0.7574    3.8884    0.3291 H   0  0  0  0  0  0  0  0  0  0  0  0
   -0.0322    2.6231   -2.3814 H   0  0  0  0  0  0  0  0  0  0  0  0
    0.8544    2.3947   -0.8581 H   0  0  0  0  0  0  0  0  0  0  0  0
   -1.4045    0.6631   -1.7167 H   0  0  0  0  0  0  0  0  0  0  0  0
  1  2  1  0
  2  3  1  0
  3  4  1  0
  4  5  1  0
  5  6  1  0
  6  7  1  0
  7  8  1  0
  8  9  1  0
  4  2  1  0
  9  6  1  0
  9  2  1  0
  1 10  1  0
  3 11  1  0
  3 12  1  0
  4 13  1  0
  6 14  1  0
  7 15  1  0
  7 16  1  0
  8 17  1  0
  8 18  1  0
  9 19  1  0
M  END
$$$$
