gdb 5164	3.2534111	1.3539828	1.1122617	1.5685	77.54	-0.23583	0.00725	0.24308000000000002	1140.9717	0.156376	-422.520418	-422.511878	-422.510933	-422.553479	32.096
 OpenBabel02181911423D

 19 20  0  0  1  0  0  0  0  0999 V2000
    1.4234    0.1038   -0.1351 C   0  0  0  0  0  0  0  0  0  0  0  0
    0.0501   -0.0996    0.1396 O   0  0  0  0  0  0  0  0  0  0  0  0
   -0.4161    0.5773    1.2760 C   0  0  1  0  0  0  0  0  0  0  0  0
   -0.6342    2.0774    1.1440 C   0  0  0  0  0  0  0  0  0  0  0  0
   -1.8050    1.1201    1.1571 C   0  0  2  0  0  0  0  0  0  0  0  0
   -2.6235    1.1273    2.2903 O   0  0  0  0  0  0  0  0  0  0  0  0
   -2.4867   -0.0042    3.1394 C   0  0  0  0  0  0  0  0  0  0  0  0
   -1.0490   -0.3457    3.4439 C   0  0  0  0  0  0  0  0  0  0  0  0
   -0.0778   -0.0430    2.5864 C   0  0  0  0  0  0  0  0  0  0  0  0
    2.0719   -0.3141    0.6477 H   0  0  0  0  0  0  0  0  0  0  0  0
    1.6365   -0.4126   -1.0739 H   0  0  0  0  0  0  0  0  0  0  0  0
    1.6611    1.1708   -0.2494 H   0  0  0  0  0  0  0  0  0  0  0  0
   -0.4981    2.6938    2.0251 H   0  0  0  0  0  0  0  0  0  0  0  0
   -0.3725    2.5359    0.1963 H   0  0  0  0  0  0  0  0  0  0  0  0
   -2.3276    0.9395    0.2200 H   0  0  0  0  0  0  0  0  0  0  0  0
   -3.0241    0.2539    4.0575 H   0  0  0  0  0  0  0  0  0  0  0  0
   -2.9954   -0.8831    2.7056 H   0  0  0  0  0  0  0  0  0  0  0  0
   -0.8429   -0.8447    4.3865 H   0  0  0  0  0  0  0  0  0  0  0  0
    0.9624   -0.2690    2.8021 H   0  0  0  0  0  0  0  0  0  0  0  0
  1  2  1  0  0  0  0
  1 10  1  0  0  0  0
  3  2  1  6  0  0  0
  3  9  1  0  0  0  0
  4  5  1  0  0  0  0
  4  3  1  0  0  0  0
  4 13  1  0  0  0  0
  5 15  1  6  0  0  0
  5  3  1  0  0  0  0
  5  6  1  0  0  0  0
  6  7  1  0  0  0  0
  7  8  1  0  0  0  0
  7 16  1  0  0  0  0
  8 18  1  0  0  0  0
  9 19  1  0  0  0  0
  9  8  2  0  0  0  0
 11  1  1  0  0  0  0
 12  1  1  0  0  0  0
 14  4  1  0  0  0  0
 17  7  1  0  0  0  0
M TOR 0 0 1 2 3
M TOR 1 0 1 2 4
M TOR 2 0 1 2 8
M TOR 3 1 2 3 4
M TOR 4 1 2 3 12
M TOR 5 1 2 3 13
M TOR 6 1 2 4 5
M TOR 7 1 2 4 14
M TOR 8 1 2 8 7
M TOR 9 1 2 8 18
M TOR 10 2 1 0 9
M TOR 11 2 1 0 10
M TOR 12 2 1 0 11
M TOR 13 2 3 4 5
M TOR 14 2 3 4 14
M TOR 15 2 4 3 12
M TOR 16 2 4 3 13
M TOR 17 2 4 5 6
M TOR 18 2 8 7 6
M TOR 19 2 8 7 17
M TOR 20 3 2 8 7
M TOR 21 3 2 8 18
M TOR 22 3 4 2 8
M TOR 23 3 4 5 6
M TOR 24 4 2 8 7
M TOR 25 4 2 8 18
M TOR 26 4 5 6 7
M TOR 27 4 5 6 15
M TOR 28 4 5 6 16
M TOR 29 5 4 2 8
M TOR 30 5 4 3 12
M TOR 31 5 4 3 13
M TOR 32 5 6 7 8
M TOR 33 5 6 7 17
M TOR 34 6 5 4 14
M TOR 35 6 7 8 18
M TOR 36 8 2 3 12
M TOR 37 8 2 3 13
M TOR 38 8 2 4 14
M TOR 39 8 7 6 15
M TOR 40 8 7 6 16
M  END
$$$$
