
     RDKit          3D

 19 20  0  0  0  0  0  0  0  0999 V2000
   -1.5393   -3.5723    2.2257 O   0  0  0  0  0  0  0  0  0  0  0  0
   -1.4721   -2.1887    2.4241 C   0  0  0  0  0  0  0  0  0  0  0  0
   -0.2682   -1.5904    3.1094 C   0  0  0  0  0  0  0  0  0  0  0  0
   -0.4295   -0.3708    3.9987 C   0  0  0  0  0  0  0  0  0  0  0  0
   -1.0522    0.8089    3.2997 C   0  0  0  0  0  0  0  0  0  0  0  0
   -1.2296    0.9122    1.9823 C   0  0  0  0  0  0  0  0  0  0  0  0
   -0.7758   -0.1161    0.9777 C   0  0  0  0  0  0  0  0  0  0  0  0
    0.3453    0.3896    0.2382 O   0  0  0  0  0  0  0  0  0  0  0  0
   -0.4555   -1.4599    1.6032 C   0  0  0  0  0  0  0  0  0  0  0  0
   -1.7642   -3.9815    3.0680 H   0  0  0  0  0  0  0  0  0  0  0  0
   -2.4327   -1.6960    2.5851 H   0  0  0  0  0  0  0  0  0  0  0  0
    0.4752   -2.3143    3.4298 H   0  0  0  0  0  0  0  0  0  0  0  0
   -1.0244   -0.6223    4.8890 H   0  0  0  0  0  0  0  0  0  0  0  0
    0.5516   -0.0643    4.3914 H   0  0  0  0  0  0  0  0  0  0  0  0
   -1.3587    1.6324    3.9415 H   0  0  0  0  0  0  0  0  0  0  0  0
   -1.6623    1.8166    1.5628 H   0  0  0  0  0  0  0  0  0  0  0  0
   -1.5487   -0.2511    0.2106 H   0  0  0  0  0  0  0  0  0  0  0  0
    1.0157    0.6384    0.8847 H   0  0  0  0  0  0  0  0  0  0  0  0
    0.1649   -2.0944    0.9787 H   0  0  0  0  0  0  0  0  0  0  0  0
  1  2  1  0
  2  3  1  0
  3  4  1  0
  4  5  1  0
  5  6  2  0
  6  7  1  0
  7  8  1  0
  7  9  1  0
  9  2  1  0
  9  3  1  0
  1 10  1  0
  2 11  1  0
  3 12  1  0
  4 13  1  0
  4 14  1  0
  5 15  1  0
  6 16  1  0
  7 17  1  0
  8 18  1  0
  9 19  1  0
M  END
$$$$
