gdb 3127	2.6019239	1.3903641	1.1710977	2.3181	74.81	-0.23845	-0.02124	0.21721	1126.0976	0.155937	-422.58087	-422.572138	-422.571194	-422.614043	33.477
 OpenBabel02181911413D

 19 20  0  0  1  0  0  0  0  0999 V2000
   -0.4509    2.0529    1.2198 C   0  0  0  0  0  0  0  0  0  0  0  0
   -0.7675    1.3142   -0.0924 C   0  0  2  0  0  0  0  0  0  0  0  0
   -2.1905    0.7934   -0.1682 C   0  0  1  0  0  0  0  0  0  0  0  0
   -2.5636   -0.0427   -1.3802 C   0  0  0  0  0  0  0  0  0  0  0  0
   -2.1843   -0.7299   -0.1078 C   0  0  2  0  0  0  0  0  0  0  0  0
   -3.1966   -1.4568    0.5159 O   0  0  0  0  0  0  0  0  0  0  0  0
   -0.7483   -1.2023    0.0226 C   0  0  0  0  0  0  0  0  0  0  0  0
    0.1119    0.0498   -0.2018 C   0  0  0  0  0  0  0  0  0  0  0  0
    1.2969    0.0543   -0.4101 O   0  0  0  0  0  0  0  0  0  0  0  0
   -0.6799    1.4312    2.0925 H   0  0  0  0  0  0  0  0  0  0  0  0
    0.6085    2.3194    1.2589 H   0  0  0  0  0  0  0  0  0  0  0  0
   -1.0434    2.9695    1.2975 H   0  0  0  0  0  0  0  0  0  0  0  0
   -0.5130    1.9724   -0.9320 H   0  0  0  0  0  0  0  0  0  0  0  0
   -2.9849    1.3472    0.3202 H   0  0  0  0  0  0  0  0  0  0  0  0
   -3.6162   -0.0793   -1.6351 H   0  0  0  0  0  0  0  0  0  0  0  0
   -1.8878   -0.0769   -2.2308 H   0  0  0  0  0  0  0  0  0  0  0  0
   -3.0511   -1.4217    1.4683 H   0  0  0  0  0  0  0  0  0  0  0  0
   -0.5556   -1.5698    1.0407 H   0  0  0  0  0  0  0  0  0  0  0  0
   -0.4591   -2.0021   -0.6652 H   0  0  0  0  0  0  0  0  0  0  0  0
  1 11  1  0  0  0  0
  1 12  1  0  0  0  0
  1 10  1  0  0  0  0
  2 13  1  6  0  0  0
  2  1  1  0  0  0  0
  3  5  1  0  0  0  0
  3  2  1  0  0  0  0
  3 14  1  1  0  0  0
  4  3  1  0  0  0  0
  4  5  1  0  0  0  0
  5  7  1  0  0  0  0
  5  6  1  1  0  0  0
  6 17  1  0  0  0  0
  7 18  1  0  0  0  0
  8  2  1  0  0  0  0
  8  7  1  0  0  0  0
  9  8  2  0  0  0  0
 15  4  1  0  0  0  0
 16  4  1  0  0  0  0
 19  7  1  0  0  0  0
M TOR 0 0 1 2 3
M TOR 1 0 1 2 4
M TOR 2 0 1 2 13
M TOR 3 0 1 7 6
M TOR 4 0 1 7 8
M TOR 5 1 2 3 4
M TOR 6 1 2 3 14
M TOR 7 1 2 3 15
M TOR 8 1 2 4 5
M TOR 9 1 2 4 6
M TOR 10 1 7 6 4
M TOR 11 1 7 6 17
M TOR 12 1 7 6 18
M TOR 13 2 1 0 9
M TOR 14 2 1 0 10
M TOR 15 2 1 0 11
M TOR 16 2 1 7 6
M TOR 17 2 1 7 8
M TOR 18 2 3 4 5
M TOR 19 2 3 4 6
M TOR 20 2 4 3 14
M TOR 21 2 4 3 15
M TOR 22 2 4 5 16
M TOR 23 2 4 6 7
M TOR 24 2 4 6 17
M TOR 25 2 4 6 18
M TOR 26 3 2 1 7
M TOR 27 3 2 1 12
M TOR 28 3 4 2 13
M TOR 29 3 4 5 16
M TOR 30 3 4 6 7
M TOR 31 3 4 6 17
M TOR 32 3 4 6 18
M TOR 33 4 2 1 7
M TOR 34 4 2 1 12
M TOR 35 4 6 7 8
M TOR 36 5 4 2 13
M TOR 37 5 4 3 14
M TOR 38 5 4 3 15
M TOR 39 5 4 6 7
M TOR 40 5 4 6 17
M TOR 41 5 4 6 18
M TOR 42 6 4 2 13
M TOR 43 6 4 3 14
M TOR 44 6 4 3 15
M TOR 45 6 4 5 16
M TOR 46 6 7 1 12
M TOR 47 7 1 0 9
M TOR 48 7 1 0 10
M TOR 49 7 1 0 11
M TOR 50 7 1 2 13
M TOR 51 8 7 1 12
M TOR 52 8 7 6 17
M TOR 53 8 7 6 18
M  END
$$$$
