
     RDKit          3D

 19 21  0  0  0  0  0  0  0  0999 V2000
   -1.5790    2.1068    1.7929 C   0  0  0  0  0  0  0  0  0  0  0  0
   -1.9402    0.7307    1.4849 O   0  0  0  0  0  0  0  0  0  0  0  0
   -0.5620    0.3577    1.4961 C   0  0  0  0  0  0  0  0  0  0  0  0
   -0.0904    1.7813    1.7169 C   0  0  0  0  0  0  0  0  0  0  0  0
    0.2107    1.0664    0.4201 C   0  0  0  0  0  0  0  0  0  0  0  0
   -0.3654    1.3588   -0.9545 C   0  0  0  0  0  0  0  0  0  0  0  0
    0.4303    0.3636   -1.8044 C   0  0  0  0  0  0  0  0  0  0  0  0
    1.7344    0.3207   -1.2283 O   0  0  0  0  0  0  0  0  0  0  0  0
    1.6489    0.6124    0.1630 C   0  0  0  0  0  0  0  0  0  0  0  0
   -1.9873    2.8189    1.0665 H   0  0  0  0  0  0  0  0  0  0  0  0
   -1.9167    2.3694    2.8012 H   0  0  0  0  0  0  0  0  0  0  0  0
   -0.2915   -0.5926    1.9445 H   0  0  0  0  0  0  0  0  0  0  0  0
    0.6809    2.1799    2.3639 H   0  0  0  0  0  0  0  0  0  0  0  0
   -1.4440    1.1936   -0.9930 H   0  0  0  0  0  0  0  0  0  0  0  0
   -0.1518    2.3880   -1.2650 H   0  0  0  0  0  0  0  0  0  0  0  0
   -0.0391   -0.6323   -1.7736 H   0  0  0  0  0  0  0  0  0  0  0  0
    0.5382    0.6598   -2.8517 H   0  0  0  0  0  0  0  0  0  0  0  0
    1.9142   -0.2734    0.7602 H   0  0  0  0  0  0  0  0  0  0  0  0
    2.3789    1.4002    0.3933 H   0  0  0  0  0  0  0  0  0  0  0  0
  1  2  1  0
  2  3  1  0
  3  4  1  0
  4  5  1  0
  5  6  1  0
  6  7  1  0
  7  8  1  0
  8  9  1  0
  4  1  1  0
  9  5  1  0
  5  3  1  0
  1 10  1  0
  1 11  1  0
  3 12  1  0
  4 13  1  0
  6 14  1  0
  6 15  1  0
  7 16  1  0
  7 17  1  0
  9 18  1  0
  9 19  1  0
M  END
$$$$
