gdb 4804	2.0794184	1.2508655	0.8238351	1.9082	77.95	-0.25834	0.02855	0.28689000000000003	1395.1152	0.154179	-422.48983	-422.479968	-422.479024	-422.525304	35.743
 OpenBabel02181911413D

 19 19  0  0  1  0  0  0  0  0999 V2000
    3.2852    3.8771   -1.4101 O   0  0  0  0  0  0  0  0  0  0  0  0
    2.4025    3.3745   -2.3845 C   0  0  0  0  0  0  0  0  0  0  0  0
    1.9908    1.9305   -2.0522 C   0  0  1  0  0  0  0  0  0  0  0  0
    1.4000    2.0038   -0.7531 O   0  0  0  0  0  0  0  0  0  0  0  0
    1.3289    0.7855   -0.0678 C   0  0  0  0  0  0  0  0  0  0  0  0
    0.3426    0.7208    1.0524 C   0  0  0  0  0  0  0  0  0  0  0  0
    0.1074   -0.0818   -0.2119 C   0  0  0  0  0  0  0  0  0  0  0  0
    1.0909    1.3815   -3.0676 C   0  0  0  0  0  0  0  0  0  0  0  0
    0.3632    0.9790   -3.9357 C   0  0  0  0  0  0  0  0  0  0  0  0
    2.8515    3.7206   -0.5621 H   0  0  0  0  0  0  0  0  0  0  0  0
    1.4891    3.9818   -2.4735 H   0  0  0  0  0  0  0  0  0  0  0  0
    2.9210    3.3929   -3.3467 H   0  0  0  0  0  0  0  0  0  0  0  0
    2.9036    1.3176   -1.9974 H   0  0  0  0  0  0  0  0  0  0  0  0
    2.2960    0.2987    0.0599 H   0  0  0  0  0  0  0  0  0  0  0  0
    0.6288    0.2055    1.9621 H   0  0  0  0  0  0  0  0  0  0  0  0
   -0.2756    1.5987    1.2012 H   0  0  0  0  0  0  0  0  0  0  0  0
    0.2319   -1.1586   -0.1831 H   0  0  0  0  0  0  0  0  0  0  0  0
   -0.6629    0.2726   -0.8853 H   0  0  0  0  0  0  0  0  0  0  0  0
   -0.2776    0.6070   -4.6969 H   0  0  0  0  0  0  0  0  0  0  0  0
  1 10  1  0  0  0  0
  2  3  1  0  0  0  0
  2  1  1  0  0  0  0
  3 13  1  1  0  0  0
  3  4  1  0  0  0  0
  4  5  1  0  0  0  0
  5 14  1  0  0  0  0
  5  6  1  0  0  0  0
  6 16  1  0  0  0  0
  6 15  1  0  0  0  0
  7 17  1  0  0  0  0
  7  5  1  0  0  0  0
  7  6  1  0  0  0  0
  8  3  1  0  0  0  0
  9  8  3  0  0  0  0
 11  2  1  0  0  0  0
 12  2  1  0  0  0  0
 18  7  1  0  0  0  0
 19  9  1  0  0  0  0
M TOR 0 0 1 2 3
M TOR 1 0 1 2 7
M TOR 2 0 1 2 12
M TOR 3 1 2 3 4
M TOR 4 1 2 7 8
M TOR 5 2 1 0 9
M TOR 6 2 3 4 5
M TOR 7 2 3 4 6
M TOR 8 2 3 4 13
M TOR 9 2 7 8 18
M TOR 10 3 2 1 10
M TOR 11 3 2 1 11
M TOR 12 3 2 7 8
M TOR 13 3 4 5 6
M TOR 14 3 4 5 14
M TOR 15 3 4 5 15
M TOR 16 3 4 6 16
M TOR 17 3 4 6 17
M TOR 18 4 3 2 7
M TOR 19 4 3 2 12
M TOR 20 4 5 6 16
M TOR 21 4 5 6 17
M TOR 22 4 6 5 14
M TOR 23 4 6 5 15
M TOR 24 5 6 4 13
M TOR 25 7 2 1 10
M TOR 26 7 2 1 11
M TOR 27 8 7 2 12
M  END
$$$$
