
     RDKit          3D

 19 19  0  0  0  0  0  0  0  0999 V2000
   -3.2025    2.1718   -2.3040 O   0  0  0  0  0  0  0  0  0  0  0  0
   -1.9772    1.4991   -2.5203 C   0  0  0  0  0  0  0  0  0  0  0  0
   -1.0753    1.6000   -1.3096 C   0  0  0  0  0  0  0  0  0  0  0  0
    0.4195    1.4650   -1.4319 C   0  0  0  0  0  0  0  0  0  0  0  0
   -0.2131    2.8065   -1.1136 C   0  0  0  0  0  0  0  0  0  0  0  0
   -1.6963    1.1390   -0.1291 O   0  0  0  0  0  0  0  0  0  0  0  0
   -1.7427   -0.2817   -0.0049 C   0  0  0  0  0  0  0  0  0  0  0  0
   -2.3422   -0.6344    1.2741 C   0  0  0  0  0  0  0  0  0  0  0  0
   -2.8368   -0.9511    2.3214 C   0  0  0  0  0  0  0  0  0  0  0  0
   -3.4563    1.9778   -1.3934 H   0  0  0  0  0  0  0  0  0  0  0  0
   -2.1474    0.4403   -2.7808 H   0  0  0  0  0  0  0  0  0  0  0  0
   -1.4918    1.9653   -3.3840 H   0  0  0  0  0  0  0  0  0  0  0  0
    0.9442    0.9650   -0.6253 H   0  0  0  0  0  0  0  0  0  0  0  0
    0.8474    1.3057   -2.4161 H   0  0  0  0  0  0  0  0  0  0  0  0
   -0.1128    3.1698   -0.0979 H   0  0  0  0  0  0  0  0  0  0  0  0
   -0.2292    3.5743   -1.8788 H   0  0  0  0  0  0  0  0  0  0  0  0
   -2.3288   -0.7308   -0.8205 H   0  0  0  0  0  0  0  0  0  0  0  0
   -0.7277   -0.6999   -0.0737 H   0  0  0  0  0  0  0  0  0  0  0  0
   -3.2740   -1.2265    3.2492 H   0  0  0  0  0  0  0  0  0  0  0  0
  1  2  1  0
  2  3  1  0
  3  4  1  0
  4  5  1  0
  3  6  1  0
  6  7  1  0
  7  8  1  0
  8  9  3  0
  5  3  1  0
  1 10  1  0
  2 11  1  0
  2 12  1  0
  4 13  1  0
  4 14  1  0
  5 15  1  0
  5 16  1  0
  7 17  1  0
  7 18  1  0
  9 19  1  0
M  END
$$$$
