
     RDKit          3D

 19 19  0  0  0  0  0  0  0  0999 V2000
    1.4476    0.0241   -0.1064 C   0  0  0  0  0  0  0  0  0  0  0  0
    0.0428    0.0297   -0.0088 O   0  0  0  0  0  0  0  0  0  0  0  0
   -0.4211    0.6487    1.1719 C   0  0  0  0  0  0  0  0  0  0  0  0
   -1.9428    0.5919    1.1798 C   0  0  0  0  0  0  0  0  0  0  0  0
   -2.5438   -0.8253    1.2734 C   0  0  0  0  0  0  0  0  0  0  0  0
   -3.4712   -0.7584    2.4601 C   0  0  0  0  0  0  0  0  0  0  0  0
   -3.4606    0.4308    3.0742 C   0  0  0  0  0  0  0  0  0  0  0  0
   -2.5181    1.3475    2.3962 C   0  0  0  0  0  0  0  0  0  0  0  0
   -2.2249    2.4760    2.7208 O   0  0  0  0  0  0  0  0  0  0  0  0
    1.9130   -0.5275    0.7260 H   0  0  0  0  0  0  0  0  0  0  0  0
    1.7086   -0.4687   -1.0461 H   0  0  0  0  0  0  0  0  0  0  0  0
    1.8606    1.0448   -0.1127 H   0  0  0  0  0  0  0  0  0  0  0  0
   -0.0151    0.1331    2.0607 H   0  0  0  0  0  0  0  0  0  0  0  0
   -0.0963    1.6989    1.2263 H   0  0  0  0  0  0  0  0  0  0  0  0
   -2.2960    1.1020    0.2763 H   0  0  0  0  0  0  0  0  0  0  0  0
   -3.0805   -1.1195    0.3644 H   0  0  0  0  0  0  0  0  0  0  0  0
   -1.7700   -1.5890    1.4205 H   0  0  0  0  0  0  0  0  0  0  0  0
   -4.0700   -1.6107    2.7651 H   0  0  0  0  0  0  0  0  0  0  0  0
   -4.0269    0.7228    3.9492 H   0  0  0  0  0  0  0  0  0  0  0  0
  1  2  1  0
  2  3  1  0
  3  4  1  0
  4  5  1  0
  5  6  1  0
  6  7  2  0
  7  8  1  0
  8  9  2  0
  8  4  1  0
  1 10  1  0
  1 11  1  0
  1 12  1  0
  3 13  1  0
  3 14  1  0
  4 15  1  0
  5 16  1  0
  5 17  1  0
  6 18  1  0
  7 19  1  0
M  END
$$$$
