gdb 4267	2.065305	1.653969	1.2834964	2.5069	76.11	-0.24379	-0.02514	0.21865	1080.9896	0.156066	-422.542239	-422.53342	-422.532476	-422.57603	32.533
 OpenBabel02181911413D

 19 20  0  0  1  0  0  0  0  0999 V2000
    0.5785   -0.6995   -0.2224 O   0  0  0  0  0  0  0  0  0  0  0  0
   -0.6490   -0.6117    0.4643 C   0  0  1  0  0  0  0  0  0  0  0  0
   -0.6217   -0.3801    2.0070 C   0  0  0  0  0  0  0  0  0  0  0  0
   -1.5054    0.8855    1.8427 C   0  0  1  0  0  0  0  0  0  0  0  0
   -0.7279    2.2190    1.7810 C   0  0  0  0  0  0  0  0  0  0  0  0
   -0.4567    1.9944    0.2653 C   0  0  0  0  0  0  0  0  0  0  0  0
   -1.3670    0.7322    0.2546 C   0  0  1  0  0  0  0  0  0  0  0  0
   -2.5740    0.7510   -0.6222 C   0  0  0  0  0  0  0  0  0  0  0  0
   -3.1092   -0.2280   -1.0844 O   0  0  0  0  0  0  0  0  0  0  0  0
    0.9071   -1.6002   -0.1451 H   0  0  0  0  0  0  0  0  0  0  0  0
   -1.3247   -1.4286    0.1850 H   0  0  0  0  0  0  0  0  0  0  0  0
   -1.0584   -1.1838    2.6040 H   0  0  0  0  0  0  0  0  0  0  0  0
    0.3800   -0.1596    2.3867 H   0  0  0  0  0  0  0  0  0  0  0  0
   -2.4751    0.8724    2.3402 H   0  0  0  0  0  0  0  0  0  0  0  0
   -1.3627    3.0887    1.9695 H   0  0  0  0  0  0  0  0  0  0  0  0
    0.1467    2.2859    2.4344 H   0  0  0  0  0  0  0  0  0  0  0  0
   -0.8196    2.7985   -0.3808 H   0  0  0  0  0  0  0  0  0  0  0  0
    0.5750    1.7705   -0.0080 H   0  0  0  0  0  0  0  0  0  0  0  0
   -2.9947    1.7679   -0.8079 H   0  0  0  0  0  0  0  0  0  0  0  0
  1 10  1  0  0  0  0
  1  2  1  0  0  0  0
  2 11  1  6  0  0  0
  2  3  1  0  0  0  0
  3 13  1  0  0  0  0
  3 12  1  0  0  0  0
  4  3  1  0  0  0  0
  4 14  1  1  0  0  0
  5  4  1  0  0  0  0
  5 15  1  0  0  0  0
  5 16  1  0  0  0  0
  6  5  1  0  0  0  0
  7  8  1  6  0  0  0
  7  6  1  0  0  0  0
  7  2  1  0  0  0  0
  7  4  1  0  0  0  0
  9  8  2  0  0  0  0
 17  6  1  0  0  0  0
 18  6  1  0  0  0  0
 19  8  1  0  0  0  0
M TOR 0 0 1 2 3
M TOR 1 0 1 2 11
M TOR 2 0 1 2 12
M TOR 3 0 1 6 3
M TOR 4 0 1 6 5
M TOR 5 0 1 6 7
M TOR 6 1 2 3 4
M TOR 7 1 2 3 6
M TOR 8 1 2 3 13
M TOR 9 1 6 3 4
M TOR 10 1 6 3 13
M TOR 11 1 6 5 4
M TOR 12 1 6 5 16
M TOR 13 1 6 5 17
M TOR 14 1 6 7 8
M TOR 15 1 6 7 18
M TOR 16 2 1 0 9
M TOR 17 2 1 6 5
M TOR 18 2 1 6 7
M TOR 19 2 3 4 5
M TOR 20 2 3 4 14
M TOR 21 2 3 4 15
M TOR 22 2 3 6 5
M TOR 23 2 3 6 7
M TOR 24 3 2 1 10
M TOR 25 3 4 5 6
M TOR 26 3 4 5 16
M TOR 27 3 4 5 17
M TOR 28 3 6 1 10
M TOR 29 3 6 5 16
M TOR 30 3 6 5 17
M TOR 31 3 6 7 8
M TOR 32 3 6 7 18
M TOR 33 4 3 2 11
M TOR 34 4 3 2 12
M TOR 35 4 3 6 7
M TOR 36 4 5 6 7
M TOR 37 5 4 3 13
M TOR 38 5 6 1 10
M TOR 39 5 6 3 13
M TOR 40 5 6 7 8
M TOR 41 5 6 7 18
M TOR 42 6 1 0 9
M TOR 43 6 1 2 11
M TOR 44 6 1 2 12
M TOR 45 6 3 2 11
M TOR 46 6 3 2 12
M TOR 47 6 3 4 14
M TOR 48 6 3 4 15
M TOR 49 6 5 4 14
M TOR 50 6 5 4 15
M TOR 51 7 6 1 10
M TOR 52 7 6 3 13
M TOR 53 7 6 5 16
M TOR 54 7 6 5 17
M  END
$$$$
