gdb 1960	3.2998521	1.2867614	1.1729986	1.9707	74.98	-0.25207	0.07663	0.3287	1111.6804	0.157152	-422.538336	-422.530315	-422.529371	-422.570459	31.903
 OpenBabel02181911403D

 19 21  0  0  1  0  0  0  0  0999 V2000
   -3.1462   -0.7631   -1.4228 O   0  0  0  0  0  0  0  0  0  0  0  0
   -2.0208   -0.9888   -0.6296 C   0  0  1  0  0  0  0  0  0  0  0  0
   -0.9919   -1.9923   -1.0726 C   0  0  0  0  0  0  0  0  0  0  0  0
   -0.6784   -0.5016   -1.1104 C   0  0  2  0  0  0  0  0  0  0  0  0
    0.0430    0.0618    0.0787 C   0  0  2  0  0  0  0  0  0  0  0  0
    0.7815    1.3292    0.0231 C   0  0  0  0  0  0  0  0  0  0  0  0
    1.4719    0.0767    0.1053 O   0  0  0  0  0  0  0  0  0  0  0  0
   -0.6841   -0.4347    1.3308 C   0  0  0  0  0  0  0  0  0  0  0  0
   -2.1333   -0.6933    0.8642 C   0  0  0  0  0  0  0  0  0  0  0  0
   -3.7374   -1.5172   -1.3227 H   0  0  0  0  0  0  0  0  0  0  0  0
   -0.4899   -2.6293   -0.3514 H   0  0  0  0  0  0  0  0  0  0  0  0
   -1.1680   -2.4496   -2.0398 H   0  0  0  0  0  0  0  0  0  0  0  0
   -0.5713   -0.0266   -2.0778 H   0  0  0  0  0  0  0  0  0  0  0  0
    0.8844    1.8581   -0.9244 H   0  0  0  0  0  0  0  0  0  0  0  0
    0.8448    1.9585    0.9107 H   0  0  0  0  0  0  0  0  0  0  0  0
   -0.2077   -1.3625    1.6653 H   0  0  0  0  0  0  0  0  0  0  0  0
   -0.6212    0.2731    2.1604 H   0  0  0  0  0  0  0  0  0  0  0  0
   -2.6218   -1.4962    1.4280 H   0  0  0  0  0  0  0  0  0  0  0  0
   -2.7453    0.2085    0.9756 H   0  0  0  0  0  0  0  0  0  0  0  0
  1 10  1  0  0  0  0
  2  1  1  6  0  0  0
  2  9  1  0  0  0  0
  3  2  1  0  0  0  0
  3 11  1  0  0  0  0
  4 13  1  6  0  0  0
  4  3  1  0  0  0  0
  4  2  1  0  0  0  0
  4  5  1  0  0  0  0
  5  7  1  1  0  0  0
  5  8  1  0  0  0  0
  6  5  1  0  0  0  0
  6  7  1  0  0  0  0
  6 15  1  0  0  0  0
  8 16  1  0  0  0  0
  8 17  1  0  0  0  0
  9 19  1  0  0  0  0
  9  8  1  0  0  0  0
  9 18  1  0  0  0  0
 12  3  1  0  0  0  0
 14  6  1  0  0  0  0
M TOR 0 0 1 2 3
M TOR 1 0 1 2 10
M TOR 2 0 1 2 11
M TOR 3 0 1 3 4
M TOR 4 0 1 3 12
M TOR 5 0 1 8 7
M TOR 6 0 1 8 17
M TOR 7 0 1 8 18
M TOR 8 1 2 3 4
M TOR 9 1 2 3 12
M TOR 10 1 3 2 10
M TOR 11 1 3 2 11
M TOR 12 1 3 4 5
M TOR 13 1 3 4 6
M TOR 14 1 3 4 7
M TOR 15 1 8 7 4
M TOR 16 1 8 7 15
M TOR 17 1 8 7 16
M TOR 18 2 1 0 9
M TOR 19 2 1 8 7
M TOR 20 2 1 8 17
M TOR 21 2 1 8 18
M TOR 22 2 3 1 8
M TOR 23 2 3 4 5
M TOR 24 2 3 4 6
M TOR 25 2 3 4 7
M TOR 26 3 1 0 9
M TOR 27 3 1 8 7
M TOR 28 3 1 8 17
M TOR 29 3 1 8 18
M TOR 30 3 4 5 6
M TOR 31 3 4 5 13
M TOR 32 3 4 5 14
M TOR 33 3 4 7 8
M TOR 34 3 4 7 15
M TOR 35 3 4 7 16
M TOR 36 4 3 1 8
M TOR 37 4 3 2 10
M TOR 38 4 3 2 11
M TOR 39 4 6 5 13
M TOR 40 4 6 5 14
M TOR 41 4 7 8 17
M TOR 42 4 7 8 18
M TOR 43 5 4 3 12
M TOR 44 5 4 7 8
M TOR 45 5 4 7 15
M TOR 46 5 4 7 16
M TOR 47 5 6 4 7
M TOR 48 6 4 3 12
M TOR 49 6 4 7 8
M TOR 50 6 4 7 15
M TOR 51 6 4 7 16
M TOR 52 7 4 3 12
M TOR 53 7 4 5 13
M TOR 54 7 4 5 14
M TOR 55 8 1 0 9
M TOR 56 8 1 2 10
M TOR 57 8 1 2 11
M TOR 58 8 1 3 12
M  END
$$$$
