gdb 4728	1.964785	1.3525011	1.1816622	2.821	77.77	-0.2585	-0.03469	0.22381	1208.581	0.152065	-422.550082	-422.539327	-422.538383	-422.585801	38.487
 OpenBabel02181911413D

 19 18  0  0  1  0  0  0  0  0999 V2000
    2.7772    2.4159    0.9395 C   0  0  0  0  0  0  0  0  0  0  0  0
    3.0888    1.4125   -0.1718 C   0  0  0  0  0  0  0  0  0  0  0  0
    2.5267   -0.0016    0.1307 C   0  0  1  0  0  0  0  0  0  0  0  0
    3.0301   -0.4489    1.3660 O   0  0  0  0  0  0  0  0  0  0  0  0
    1.0533    0.0020    0.1370 C   0  0  0  0  0  0  0  0  0  0  0  0
   -0.1491   -0.0060    0.1237 C   0  0  0  0  0  0  0  0  0  0  0  0
    2.9871   -1.0033   -0.9727 C   0  0  0  0  0  0  0  0  0  0  0  0
    2.6299   -0.7284   -2.4112 C   0  0  0  0  0  0  0  0  0  0  0  0
    3.6334   -1.9666   -0.6276 O   0  0  0  0  0  0  0  0  0  0  0  0
    3.1831    2.0683    1.8919 H   0  0  0  0  0  0  0  0  0  0  0  0
    3.2175    3.3901    0.7081 H   0  0  0  0  0  0  0  0  0  0  0  0
    1.6975    2.5481    1.0554 H   0  0  0  0  0  0  0  0  0  0  0  0
    2.6830    1.7646   -1.1261 H   0  0  0  0  0  0  0  0  0  0  0  0
    4.1740    1.3081   -0.2897 H   0  0  0  0  0  0  0  0  0  0  0  0
    3.4412   -1.3091    1.1704 H   0  0  0  0  0  0  0  0  0  0  0  0
   -1.2114   -0.0136    0.1332 H   0  0  0  0  0  0  0  0  0  0  0  0
    2.7661   -1.6357   -3.0008 H   0  0  0  0  0  0  0  0  0  0  0  0
    1.6051   -0.3610   -2.4982 H   0  0  0  0  0  0  0  0  0  0  0  0
    3.2950    0.0485   -2.8054 H   0  0  0  0  0  0  0  0  0  0  0  0
  1 12  1  0  0  0  0
  1 10  1  0  0  0  0
  2  3  1  0  0  0  0
  2  1  1  0  0  0  0
  3  5  1  1  0  0  0
  3  4  1  0  0  0  0
  6 16  1  0  0  0  0
  6  5  3  0  0  0  0
  7  9  2  0  0  0  0
  7  3  1  0  0  0  0
  8  7  1  0  0  0  0
 11  1  1  0  0  0  0
 13  2  1  0  0  0  0
 14  2  1  0  0  0  0
 15  4  1  0  0  0  0
 17  8  1  0  0  0  0
 18  8  1  0  0  0  0
 19  8  1  0  0  0  0
M TOR 0 0 1 2 3
M TOR 1 0 1 2 4
M TOR 2 0 1 2 6
M TOR 3 1 2 3 14
M TOR 4 1 2 4 5
M TOR 5 1 2 6 7
M TOR 6 1 2 6 8
M TOR 7 2 1 0 9
M TOR 8 2 1 0 10
M TOR 9 2 1 0 11
M TOR 10 2 4 5 15
M TOR 11 2 6 7 16
M TOR 12 2 6 7 17
M TOR 13 2 6 7 18
M TOR 14 3 2 1 12
M TOR 15 3 2 1 13
M TOR 16 3 2 4 5
M TOR 17 3 2 6 7
M TOR 18 3 2 6 8
M TOR 19 4 2 1 12
M TOR 20 4 2 1 13
M TOR 21 4 2 3 14
M TOR 22 4 2 6 7
M TOR 23 4 2 6 8
M TOR 24 5 4 2 6
M TOR 25 6 2 1 12
M TOR 26 6 2 1 13
M TOR 27 6 2 3 14
M TOR 28 8 6 7 16
M TOR 29 8 6 7 17
M TOR 30 8 6 7 18
M  END
$$$$
