gdb 2453	2.469942	2.2505197	1.5848953	1.027	73.24	-0.24267	0.0843	0.32697	907.6879	0.159185	-422.550925	-422.54399	-422.543046	-422.581697	28.723
 OpenBabel02181911413D

 19 21  0  0  1  0  0  0  0  0999 V2000
    0.0698    0.1388    0.1866 C   0  0  0  0  0  0  0  0  0  0  0  0
    1.5020   -0.2118   -0.1224 C   0  0  2  0  0  0  0  0  0  0  0  0
    2.0056   -1.1805    0.7749 O   0  0  0  0  0  0  0  0  0  0  0  0
    3.0042   -1.9346    0.0591 C   0  0  0  0  0  0  0  0  0  0  0  0
    3.3534   -1.0357   -1.1256 C   0  0  2  0  0  0  0  0  0  0  0  0
    3.8424    0.3268   -0.5439 C   0  0  0  0  0  0  0  0  0  0  0  0
    2.4583    0.9935   -0.4932 C   0  0  1  0  0  0  0  0  0  0  0  0
    2.0231    0.8499   -1.8796 O   0  0  0  0  0  0  0  0  0  0  0  0
    1.9284   -0.5549   -1.5682 C   0  0  2  0  0  0  0  0  0  0  0  0
   -0.0113    0.5606    1.1934 H   0  0  0  0  0  0  0  0  0  0  0  0
   -0.2949    0.8755   -0.5333 H   0  0  0  0  0  0  0  0  0  0  0  0
   -0.5638   -0.7518    0.1414 H   0  0  0  0  0  0  0  0  0  0  0  0
    3.8517   -2.1209    0.7263 H   0  0  0  0  0  0  0  0  0  0  0  0
    2.5865   -2.9045   -0.2507 H   0  0  0  0  0  0  0  0  0  0  0  0
    3.9837   -1.4922   -1.8874 H   0  0  0  0  0  0  0  0  0  0  0  0
    4.3225    0.2227    0.4323 H   0  0  0  0  0  0  0  0  0  0  0  0
    4.5032    0.8735   -1.2194 H   0  0  0  0  0  0  0  0  0  0  0  0
    2.3511    2.0038   -0.0973 H   0  0  0  0  0  0  0  0  0  0  0  0
    1.3515   -1.1484   -2.2773 H   0  0  0  0  0  0  0  0  0  0  0  0
  1 10  1  0  0  0  0
  2  1  1  1  0  0  0
  2  3  1  0  0  0  0
  4 13  1  0  0  0  0
  4  3  1  0  0  0  0
  5 15  1  6  0  0  0
  5  6  1  0  0  0  0
  5  4  1  0  0  0  0
  6  7  1  0  0  0  0
  6 16  1  0  0  0  0
  7  2  1  0  0  0  0
  7 18  1  1  0  0  0
  8  9  1  0  0  0  0
  8  7  1  0  0  0  0
  9 19  1  6  0  0  0
  9  5  1  0  0  0  0
  9  2  1  0  0  0  0
 11  1  1  0  0  0  0
 12  1  1  0  0  0  0
 14  4  1  0  0  0  0
 17  6  1  0  0  0  0
M TOR 0 0 1 2 3
M TOR 1 0 1 6 5
M TOR 2 0 1 6 7
M TOR 3 0 1 6 17
M TOR 4 0 1 8 4
M TOR 5 0 1 8 7
M TOR 6 0 1 8 18
M TOR 7 1 2 3 4
M TOR 8 1 2 3 12
M TOR 9 1 2 3 13
M TOR 10 1 6 5 4
M TOR 11 1 6 5 15
M TOR 12 1 6 5 16
M TOR 13 1 6 7 8
M TOR 14 1 8 4 3
M TOR 15 1 8 4 5
M TOR 16 1 8 4 14
M TOR 17 2 1 0 9
M TOR 18 2 1 0 10
M TOR 19 2 1 0 11
M TOR 20 2 1 6 5
M TOR 21 2 1 6 7
M TOR 22 2 1 6 17
M TOR 23 2 1 8 4
M TOR 24 2 1 8 7
M TOR 25 2 1 8 18
M TOR 26 2 3 4 5
M TOR 27 2 3 4 8
M TOR 28 2 3 4 14
M TOR 29 3 2 1 6
M TOR 30 3 2 1 8
M TOR 31 3 4 5 6
M TOR 32 3 4 5 15
M TOR 33 3 4 5 16
M TOR 34 3 4 8 7
M TOR 35 3 4 8 18
M TOR 36 4 5 6 7
M TOR 37 4 5 6 17
M TOR 38 4 8 1 6
M TOR 39 4 8 7 6
M TOR 40 5 4 3 12
M TOR 41 5 4 3 13
M TOR 42 5 4 8 7
M TOR 43 5 4 8 18
M TOR 44 5 6 1 8
M TOR 45 5 6 7 8
M TOR 46 6 1 0 9
M TOR 47 6 1 0 10
M TOR 48 6 1 0 11
M TOR 49 6 1 8 18
M TOR 50 6 5 4 8
M TOR 51 6 5 4 14
M TOR 52 6 7 8 18
M TOR 53 7 6 5 15
M TOR 54 7 6 5 16
M TOR 55 7 8 4 14
M TOR 56 8 1 0 9
M TOR 57 8 1 0 10
M TOR 58 8 1 0 11
M TOR 59 8 1 6 17
M TOR 60 8 4 3 12
M TOR 61 8 4 3 13
M TOR 62 8 4 5 15
M TOR 63 8 4 5 16
M TOR 64 8 7 6 17
M  END
$$$$
