gdb 515	3.082654	1.7640703	1.5703814	2.1058	73.66	-0.24583	0.07262	0.31845	924.9625	0.160205	-422.51976	-422.513176	-422.512232	-422.550244	27.864
 OpenBabel02181911403D

 19 21  0  0  1  0  0  0  0  0999 V2000
    0.9299    1.6848    1.0112 C   0  0  0  0  0  0  0  0  0  0  0  0
   -0.3438    1.7447    0.0640 C   0  0  0  0  0  0  0  0  0  0  0  0
   -0.0376    0.2613   -0.2291 C   0  0  1  0  0  0  0  0  0  0  0  0
    0.9501    0.0239   -1.3952 C   0  0  0  0  0  0  0  0  0  0  0  0
    1.1428   -1.3970   -1.3546 O   0  0  0  0  0  0  0  0  0  0  0  0
    0.4041   -1.7688   -0.2008 C   0  0  1  0  0  0  0  0  0  0  0  0
    1.2413   -1.2570    1.0510 C   0  0  0  0  0  0  0  0  0  0  0  0
    0.6283    0.1536    1.1225 C   0  0  1  0  0  0  0  0  0  0  0  0
   -0.7880   -0.9669   -0.2880 O   0  0  0  0  0  0  0  0  0  0  0  0
    1.8467    1.9390    0.4767 H   0  0  0  0  0  0  0  0  0  0  0  0
    0.8837    2.2607    1.9360 H   0  0  0  0  0  0  0  0  0  0  0  0
   -1.2574    1.8856    0.6449 H   0  0  0  0  0  0  0  0  0  0  0  0
   -0.3323    2.4397   -0.7786 H   0  0  0  0  0  0  0  0  0  0  0  0
    0.5014    0.3072   -2.3546 H   0  0  0  0  0  0  0  0  0  0  0  0
    1.9048    0.5483   -1.2805 H   0  0  0  0  0  0  0  0  0  0  0  0
    0.1548   -2.8279   -0.2391 H   0  0  0  0  0  0  0  0  0  0  0  0
    1.0649   -1.8445    1.9548 H   0  0  0  0  0  0  0  0  0  0  0  0
    2.3003   -1.3154    0.7936 H   0  0  0  0  0  0  0  0  0  0  0  0
   -0.2019    0.0973    1.8348 H   0  0  0  0  0  0  0  0  0  0  0  0
  1  8  1  0  0  0  0
  1 11  1  0  0  0  0
  2 12  1  0  0  0  0
  2  1  1  0  0  0  0
  3  9  1  6  0  0  0
  3  2  1  0  0  0  0
  3  8  1  0  0  0  0
  4  5  1  0  0  0  0
  4 15  1  0  0  0  0
  4  3  1  0  0  0  0
  5  6  1  0  0  0  0
  6 16  1  1  0  0  0
  6  7  1  0  0  0  0
  7  8  1  0  0  0  0
  7 17  1  0  0  0  0
  8 19  1  1  0  0  0
  9  6  1  0  0  0  0
 10  1  1  0  0  0  0
 13  2  1  0  0  0  0
 14  4  1  0  0  0  0
 18  7  1  0  0  0  0
M TOR 0 0 1 2 3
M TOR 1 0 1 2 7
M TOR 2 0 1 2 8
M TOR 3 0 7 2 3
M TOR 4 0 7 2 8
M TOR 5 0 7 6 5
M TOR 6 0 7 6 16
M TOR 7 0 7 6 17
M TOR 8 1 0 7 6
M TOR 9 1 0 7 18
M TOR 10 1 2 3 4
M TOR 11 1 2 3 13
M TOR 12 1 2 3 14
M TOR 13 1 2 7 6
M TOR 14 1 2 7 18
M TOR 15 1 2 8 5
M TOR 16 2 1 0 9
M TOR 17 2 1 0 10
M TOR 18 2 3 4 5
M TOR 19 2 7 0 9
M TOR 20 2 7 0 10
M TOR 21 2 7 6 5
M TOR 22 2 7 6 16
M TOR 23 2 7 6 17
M TOR 24 2 8 5 4
M TOR 25 2 8 5 6
M TOR 26 2 8 5 15
M TOR 27 3 2 1 11
M TOR 28 3 2 1 12
M TOR 29 3 2 7 6
M TOR 30 3 2 7 18
M TOR 31 3 2 8 5
M TOR 32 3 4 5 6
M TOR 33 3 4 5 8
M TOR 34 3 4 5 15
M TOR 35 4 3 2 7
M TOR 36 4 3 2 8
M TOR 37 4 5 6 7
M TOR 38 4 5 6 16
M TOR 39 4 5 6 17
M TOR 40 5 4 3 13
M TOR 41 5 4 3 14
M TOR 42 5 6 7 18
M TOR 43 5 8 2 7
M TOR 44 6 7 0 9
M TOR 45 6 7 0 10
M TOR 46 6 7 2 8
M TOR 47 7 0 1 11
M TOR 48 7 0 1 12
M TOR 49 7 2 1 11
M TOR 50 7 2 1 12
M TOR 51 7 2 3 13
M TOR 52 7 2 3 14
M TOR 53 7 6 5 8
M TOR 54 7 6 5 15
M TOR 55 8 2 1 11
M TOR 56 8 2 1 12
M TOR 57 8 2 3 13
M TOR 58 8 2 3 14
M TOR 59 8 2 7 18
M TOR 60 8 5 6 16
M TOR 61 8 5 6 17
M  END
$$$$
