gdb 3283	3.0451785	1.4999799	1.1885928	1.3989	74.41	-0.24229	0.07582	0.31811	1079.8851	0.157034	-422.541745	-422.533551	-422.532607	-422.573944	32.022
 OpenBabel02181911413D

 19 21  0  0  1  0  0  0  0  0999 V2000
    0.9477   -0.5514   -0.8851 C   0  0  0  0  0  0  0  0  0  0  0  0
    0.9202    0.1735    0.4426 C   0  0  2  0  0  0  0  0  0  0  0  0
    1.8216    1.3830    0.6580 C   0  0  1  0  0  0  0  0  0  0  0  0
    1.3772    2.4423    1.6628 C   0  0  0  0  0  0  0  0  0  0  0  0
    1.4141    1.7184    3.0063 C   0  0  2  0  0  0  0  0  0  0  0  0
    2.7224    1.2797    3.3939 O   0  0  0  0  0  0  0  0  0  0  0  0
    1.8100    0.3159    2.8308 C   0  0  2  0  0  0  0  0  0  0  0  0
    2.0899    0.0679    1.3771 C   0  0  1  0  0  0  0  0  0  0  0  0
    3.1283   -0.7957    1.0405 O   0  0  0  0  0  0  0  0  0  0  0  0
    0.5713   -1.5744   -0.7818 H   0  0  0  0  0  0  0  0  0  0  0  0
    0.3244   -0.0357   -1.6233 H   0  0  0  0  0  0  0  0  0  0  0  0
    1.9660   -0.6149   -1.2752 H   0  0  0  0  0  0  0  0  0  0  0  0
   -0.0613    0.2225    0.9123 H   0  0  0  0  0  0  0  0  0  0  0  0
    2.4618    1.6647   -0.1705 H   0  0  0  0  0  0  0  0  0  0  0  0
    2.0500    3.3066    1.6755 H   0  0  0  0  0  0  0  0  0  0  0  0
    0.3665    2.8167    1.4581 H   0  0  0  0  0  0  0  0  0  0  0  0
    0.7779    2.0417    3.8264 H   0  0  0  0  0  0  0  0  0  0  0  0
    1.5077   -0.4881    3.4978 H   0  0  0  0  0  0  0  0  0  0  0  0
    3.9395   -0.4215    1.4042 H   0  0  0  0  0  0  0  0  0  0  0  0
  1 10  1  0  0  0  0
  1  2  1  0  0  0  0
  2  3  1  0  0  0  0
  2 13  1  1  0  0  0
  2  8  1  0  0  0  0
  3 14  1  6  0  0  0
  3  8  1  0  0  0  0
  3  4  1  0  0  0  0
  4 15  1  0  0  0  0
  4  5  1  0  0  0  0
  5  6  1  0  0  0  0
  5 17  1  1  0  0  0
  7  5  1  0  0  0  0
  7  6  1  0  0  0  0
  7 18  1  1  0  0  0
  8  9  1  6  0  0  0
  8  7  1  0  0  0  0
  9 19  1  0  0  0  0
 11  1  1  0  0  0  0
 12  1  1  0  0  0  0
 16  4  1  0  0  0  0
M TOR 0 0 1 2 3
M TOR 1 0 1 2 7
M TOR 2 0 1 2 13
M TOR 3 0 1 7 6
M TOR 4 0 1 7 8
M TOR 5 1 2 3 4
M TOR 6 1 2 3 14
M TOR 7 1 2 3 15
M TOR 8 1 2 7 6
M TOR 9 1 2 7 8
M TOR 10 1 7 2 3
M TOR 11 1 7 2 13
M TOR 12 1 7 6 4
M TOR 13 1 7 6 5
M TOR 14 1 7 6 17
M TOR 15 1 7 8 18
M TOR 16 2 1 0 9
M TOR 17 2 1 0 10
M TOR 18 2 1 0 11
M TOR 19 2 3 4 5
M TOR 20 2 3 4 6
M TOR 21 2 3 4 16
M TOR 22 2 7 1 12
M TOR 23 2 7 6 4
M TOR 24 2 7 6 5
M TOR 25 2 7 6 17
M TOR 26 2 7 8 18
M TOR 27 3 2 1 12
M TOR 28 3 2 7 6
M TOR 29 3 2 7 8
M TOR 30 3 4 5 6
M TOR 31 3 4 6 7
M TOR 32 3 4 6 17
M TOR 33 4 3 2 7
M TOR 34 4 3 2 13
M TOR 35 4 5 6 7
M TOR 36 4 5 6 17
M TOR 37 4 6 7 8
M TOR 38 5 4 3 14
M TOR 39 5 4 3 15
M TOR 40 5 6 4 16
M TOR 41 5 6 7 8
M TOR 42 6 4 3 14
M TOR 43 6 4 3 15
M TOR 44 6 7 1 12
M TOR 45 6 7 2 13
M TOR 46 6 7 8 18
M TOR 47 7 1 0 9
M TOR 48 7 1 0 10
M TOR 49 7 1 0 11
M TOR 50 7 2 3 14
M TOR 51 7 2 3 15
M TOR 52 7 6 4 16
M TOR 53 8 7 1 12
M TOR 54 8 7 2 13
M TOR 55 8 7 6 17
M  END
$$$$
