
     RDKit          3D

 19 21  0  0  0  0  0  0  0  0999 V2000
    0.3202   -0.1461    0.6253 O   0  0  0  0  0  0  0  0  0  0  0  0
   -0.8359    0.6089    0.3577 C   0  0  0  0  0  0  0  0  0  0  0  0
   -2.1599   -0.0365    0.7282 C   0  0  0  0  0  0  0  0  0  0  0  0
   -3.2794    0.8744    0.2701 C   0  0  0  0  0  0  0  0  0  0  0  0
   -3.8640    2.0530    0.9981 C   0  0  0  0  0  0  0  0  0  0  0  0
   -4.7041    0.8216    0.7249 C   0  0  0  0  0  0  0  0  0  0  0  0
   -2.7930    0.8160   -1.1977 C   0  0  0  0  0  0  0  0  0  0  0  0
   -1.6306   -0.0463   -0.7298 C   0  0  0  0  0  0  0  0  0  0  0  0
   -1.0931   -1.0380   -1.5116 O   0  0  0  0  0  0  0  0  0  0  0  0
    0.4065   -0.2579    1.5772 H   0  0  0  0  0  0  0  0  0  0  0  0
   -0.6940    1.6907    0.4258 H   0  0  0  0  0  0  0  0  0  0  0  0
   -2.2247   -0.8167    1.4797 H   0  0  0  0  0  0  0  0  0  0  0  0
   -3.5462    2.2373    2.0194 H   0  0  0  0  0  0  0  0  0  0  0  0
   -4.0819    2.9515    0.4297 H   0  0  0  0  0  0  0  0  0  0  0  0
   -4.9510    0.1764    1.5622 H   0  0  0  0  0  0  0  0  0  0  0  0
   -5.4837    0.8904   -0.0275 H   0  0  0  0  0  0  0  0  0  0  0  0
   -3.4786    0.2523   -1.8364 H   0  0  0  0  0  0  0  0  0  0  0  0
   -2.5344    1.7612   -1.6883 H   0  0  0  0  0  0  0  0  0  0  0  0
   -0.2448   -1.2688   -1.1065 H   0  0  0  0  0  0  0  0  0  0  0  0
  1  2  1  0
  2  3  1  0
  3  4  1  0
  4  5  1  0
  5  6  1  0
  4  7  1  0
  7  8  1  0
  8  9  1  0
  8  2  1  0
  8  3  1  0
  6  4  1  0
  1 10  1  0
  2 11  1  0
  3 12  1  0
  5 13  1  0
  5 14  1  0
  6 15  1  0
  6 16  1  0
  7 17  1  0
  7 18  1  0
  9 19  1  0
M  END
$$$$
