
     RDKit          3D

 19 19  0  0  0  0  0  0  0  0999 V2000
    1.2489    0.7622    0.1061 C   0  0  0  0  0  0  0  0  0  0  0  0
   -0.1224    0.1469    0.0920 C   0  0  0  0  0  0  0  0  0  0  0  0
   -0.3429   -1.1751    0.1857 C   0  0  0  0  0  0  0  0  0  0  0  0
   -1.7057   -1.8201    0.1841 C   0  0  0  0  0  0  0  0  0  0  0  0
   -2.0417   -2.2567    1.5074 O   0  0  0  0  0  0  0  0  0  0  0  0
   -2.7726   -0.9035   -0.4251 C   0  0  0  0  0  0  0  0  0  0  0  0
   -2.6677    0.5223    0.1240 C   0  0  0  0  0  0  0  0  0  0  0  0
   -1.2678    1.0993   -0.0317 C   0  0  0  0  0  0  0  0  0  0  0  0
   -1.0766    2.2864   -0.2056 O   0  0  0  0  0  0  0  0  0  0  0  0
    1.3469    1.4785    0.9284 H   0  0  0  0  0  0  0  0  0  0  0  0
    2.0254   -0.0001    0.2040 H   0  0  0  0  0  0  0  0  0  0  0  0
    1.4229    1.3316   -0.8124 H   0  0  0  0  0  0  0  0  0  0  0  0
    0.5007   -1.8500    0.3200 H   0  0  0  0  0  0  0  0  0  0  0  0
   -1.6626   -2.7481   -0.3969 H   0  0  0  0  0  0  0  0  0  0  0  0
   -1.8397   -1.5370    2.1146 H   0  0  0  0  0  0  0  0  0  0  0  0
   -2.6361   -0.8856   -1.5133 H   0  0  0  0  0  0  0  0  0  0  0  0
   -3.7604   -1.3292   -0.2266 H   0  0  0  0  0  0  0  0  0  0  0  0
   -3.3755    1.2078   -0.3478 H   0  0  0  0  0  0  0  0  0  0  0  0
   -2.9008    0.5265    1.1988 H   0  0  0  0  0  0  0  0  0  0  0  0
  1  2  1  0
  2  3  2  0
  3  4  1  0
  4  5  1  0
  4  6  1  0
  6  7  1  0
  7  8  1  0
  8  9  2  0
  8  2  1  0
  1 10  1  0
  1 11  1  0
  1 12  1  0
  3 13  1  0
  4 14  1  0
  5 15  1  0
  6 16  1  0
  6 17  1  0
  7 18  1  0
  7 19  1  0
M  END
$$$$
