
     RDKit          3D

 19 19  0  0  0  0  0  0  0  0999 V2000
    0.0362   -0.0567    0.3185 C   0  0  0  0  0  0  0  0  0  0  0  0
    1.2320   -0.0431    0.2047 C   0  0  0  0  0  0  0  0  0  0  0  0
    2.6877    0.0263    0.0924 C   0  0  0  0  0  0  0  0  0  0  0  0
    3.1867    1.4414    0.4567 C   0  0  0  0  0  0  0  0  0  0  0  0
    4.5854    1.5279    0.5783 O   0  0  0  0  0  0  0  0  0  0  0  0
    5.3309    1.2437   -0.5986 C   0  0  0  0  0  0  0  0  0  0  0  0
    5.5243   -0.2623   -0.8080 C   0  0  0  0  0  0  0  0  0  0  0  0
    4.2896   -0.9855   -1.3941 C   0  0  0  0  0  0  0  0  0  0  0  0
    3.0642   -0.2852   -1.2460 O   0  0  0  0  0  0  0  0  0  0  0  0
   -1.0213   -0.0854    0.4133 H   0  0  0  0  0  0  0  0  0  0  0  0
    3.1379   -0.6945    0.7925 H   0  0  0  0  0  0  0  0  0  0  0  0
    2.8062    2.1313   -0.3121 H   0  0  0  0  0  0  0  0  0  0  0  0
    2.7762    1.7369    1.4268 H   0  0  0  0  0  0  0  0  0  0  0  0
    4.8618    1.7106   -1.4766 H   0  0  0  0  0  0  0  0  0  0  0  0
    6.3064    1.7148   -0.4427 H   0  0  0  0  0  0  0  0  0  0  0  0
    6.3796   -0.4297   -1.4736 H   0  0  0  0  0  0  0  0  0  0  0  0
    5.7980   -0.6863    0.1641 H   0  0  0  0  0  0  0  0  0  0  0  0
    4.3969   -1.1000   -2.4766 H   0  0  0  0  0  0  0  0  0  0  0  0
    4.2051   -1.9956   -0.9648 H   0  0  0  0  0  0  0  0  0  0  0  0
  1  2  3  0
  2  3  1  0
  3  4  1  0
  4  5  1  0
  5  6  1  0
  6  7  1  0
  7  8  1  0
  8  9  1  0
  9  3  1  0
  1 10  1  0
  3 11  1  0
  4 12  1  0
  4 13  1  0
  6 14  1  0
  6 15  1  0
  7 16  1  0
  7 17  1  0
  8 18  1  0
  8 19  1  0
M  END
$$$$
