
     RDKit          3D

 19 20  0  0  0  0  0  0  0  0999 V2000
   -0.4234   -2.0320   -1.2832 C   0  0  0  0  0  0  0  0  0  0  0  0
   -0.9362   -1.2681   -0.0490 C   0  0  0  0  0  0  0  0  0  0  0  0
   -0.0636   -0.0256    0.1867 C   0  0  0  0  0  0  0  0  0  0  0  0
    1.0654    0.0013    0.5973 O   0  0  0  0  0  0  0  0  0  0  0  0
   -0.9128    1.1840   -0.2196 C   0  0  0  0  0  0  0  0  0  0  0  0
   -2.0780    0.6496   -0.8220 O   0  0  0  0  0  0  0  0  0  0  0  0
   -2.2997   -0.6265   -0.2419 C   0  0  0  0  0  0  0  0  0  0  0  0
   -3.5499   -1.3214   -0.6481 C   0  0  0  0  0  0  0  0  0  0  0  0
   -3.4216   -0.7523    0.7572 C   0  0  0  0  0  0  0  0  0  0  0  0
   -1.0191   -2.9332   -1.4535 H   0  0  0  0  0  0  0  0  0  0  0  0
   -0.4888   -1.4093   -2.1805 H   0  0  0  0  0  0  0  0  0  0  0  0
    0.6200   -2.3251   -1.1394 H   0  0  0  0  0  0  0  0  0  0  0  0
   -0.8908   -1.9112    0.8339 H   0  0  0  0  0  0  0  0  0  0  0  0
   -1.1433    1.7766    0.6808 H   0  0  0  0  0  0  0  0  0  0  0  0
   -0.3918    1.8281   -0.9331 H   0  0  0  0  0  0  0  0  0  0  0  0
   -4.1968   -0.7959   -1.3416 H   0  0  0  0  0  0  0  0  0  0  0  0
   -3.5242   -2.3980   -0.7771 H   0  0  0  0  0  0  0  0  0  0  0  0
   -3.9862    0.1465    0.9779 H   0  0  0  0  0  0  0  0  0  0  0  0
   -3.3109   -1.4431    1.5866 H   0  0  0  0  0  0  0  0  0  0  0  0
  1  2  1  0
  2  3  1  0
  3  4  2  0
  3  5  1  0
  5  6  1  0
  6  7  1  0
  7  8  1  0
  8  9  1  0
  7  2  1  0
  9  7  1  0
  1 10  1  0
  1 11  1  0
  1 12  1  0
  2 13  1  0
  5 14  1  0
  5 15  1  0
  8 16  1  0
  8 17  1  0
  9 18  1  0
  9 19  1  0
M  END
$$$$
