gdb 3184	2.4534903	1.7035536	1.0976796	2.1801	74.94	-0.22861	-0.01606	0.21255000000000002	1109.2429	0.157012	-422.562783	-422.554506	-422.553562	-422.595576	31.682
 OpenBabel02181911413D

 19 20  0  0  1  0  0  0  0  0999 V2000
   -0.1866   -2.3929   -0.7703 C   0  0  0  0  0  0  0  0  0  0  0  0
   -0.7587   -1.2250    0.0296 C   0  0  2  0  0  0  0  0  0  0  0  0
   -2.2709   -1.0422   -0.1373 C   0  0  1  0  0  0  0  0  0  0  0  0
   -3.1915   -1.0625    1.0659 C   0  0  0  0  0  0  0  0  0  0  0  0
   -2.8149    0.2418    0.4352 C   0  0  1  0  0  0  0  0  0  0  0  0
   -1.8674    1.0142    1.1206 O   0  0  0  0  0  0  0  0  0  0  0  0
   -0.7720    1.3404    0.2817 C   0  0  0  0  0  0  0  0  0  0  0  0
   -0.0945    0.1059   -0.3258 C   0  0  0  0  0  0  0  0  0  0  0  0
    0.8788    0.2141   -1.0322 O   0  0  0  0  0  0  0  0  0  0  0  0
   -0.6483   -3.3342   -0.4586 H   0  0  0  0  0  0  0  0  0  0  0  0
   -0.3686   -2.2570   -1.8409 H   0  0  0  0  0  0  0  0  0  0  0  0
    0.8941   -2.4665   -0.6308 H   0  0  0  0  0  0  0  0  0  0  0  0
   -0.5497   -1.3780    1.0979 H   0  0  0  0  0  0  0  0  0  0  0  0
   -2.6722   -1.3875   -1.0852 H   0  0  0  0  0  0  0  0  0  0  0  0
   -4.2067   -1.4182    0.9299 H   0  0  0  0  0  0  0  0  0  0  0  0
   -2.7527   -1.2830    2.0331 H   0  0  0  0  0  0  0  0  0  0  0  0
   -3.5628    0.8175   -0.1092 H   0  0  0  0  0  0  0  0  0  0  0  0
   -1.0678    2.0130   -0.5385 H   0  0  0  0  0  0  0  0  0  0  0  0
   -0.0420    1.8749    0.8973 H   0  0  0  0  0  0  0  0  0  0  0  0
  1 12  1  0  0  0  0
  1 10  1  0  0  0  0
  1  2  1  0  0  0  0
  2 13  1  1  0  0  0
  3 14  1  6  0  0  0
  3  2  1  0  0  0  0
  3  5  1  0  0  0  0
  3  4  1  0  0  0  0
  4 16  1  0  0  0  0
  5 17  1  6  0  0  0
  5  4  1  0  0  0  0
  5  6  1  0  0  0  0
  7 19  1  0  0  0  0
  7  6  1  0  0  0  0
  8  2  1  0  0  0  0
  8  7  1  0  0  0  0
  9  8  2  0  0  0  0
 11  1  1  0  0  0  0
 15  4  1  0  0  0  0
 18  7  1  0  0  0  0
M TOR 0 0 1 2 3
M TOR 1 0 1 2 4
M TOR 2 0 1 2 13
M TOR 3 0 1 7 6
M TOR 4 0 1 7 8
M TOR 5 1 2 3 4
M TOR 6 1 2 3 14
M TOR 7 1 2 3 15
M TOR 8 1 2 4 5
M TOR 9 1 2 4 16
M TOR 10 1 7 6 5
M TOR 11 1 7 6 17
M TOR 12 1 7 6 18
M TOR 13 2 1 0 9
M TOR 14 2 1 0 10
M TOR 15 2 1 0 11
M TOR 16 2 1 7 6
M TOR 17 2 1 7 8
M TOR 18 2 3 4 5
M TOR 19 2 3 4 16
M TOR 20 2 4 3 14
M TOR 21 2 4 3 15
M TOR 22 2 4 5 6
M TOR 23 3 2 1 7
M TOR 24 3 2 1 12
M TOR 25 3 4 2 13
M TOR 26 3 4 5 6
M TOR 27 4 2 1 7
M TOR 28 4 2 1 12
M TOR 29 4 5 6 7
M TOR 30 4 5 6 17
M TOR 31 4 5 6 18
M TOR 32 5 4 2 13
M TOR 33 5 4 3 14
M TOR 34 5 4 3 15
M TOR 35 5 6 7 8
M TOR 36 6 5 4 16
M TOR 37 6 7 1 12
M TOR 38 7 1 0 9
M TOR 39 7 1 0 10
M TOR 40 7 1 0 11
M TOR 41 7 1 2 13
M TOR 42 8 7 1 12
M TOR 43 8 7 6 17
M TOR 44 8 7 6 18
M  END
$$$$
