
     RDKit          3D

 19 21  0  0  0  0  0  0  0  0999 V2000
   -3.0276    1.9706   -1.5572 C   0  0  0  0  0  0  0  0  0  0  0  0
   -2.3462    1.3471   -0.3836 C   0  0  0  0  0  0  0  0  0  0  0  0
   -3.1389    0.5400    0.5131 O   0  0  0  0  0  0  0  0  0  0  0  0
   -1.9633   -0.0429   -0.0613 C   0  0  0  0  0  0  0  0  0  0  0  0
   -0.7745    0.4256    0.8132 C   0  0  0  0  0  0  0  0  0  0  0  0
    0.5077    0.0304    0.3915 O   0  0  0  0  0  0  0  0  0  0  0  0
   -1.1919    1.8806    0.4564 C   0  0  0  0  0  0  0  0  0  0  0  0
   -1.1168    3.1280    1.2775 C   0  0  0  0  0  0  0  0  0  0  0  0
   -0.2173    2.9583    0.0731 C   0  0  0  0  0  0  0  0  0  0  0  0
   -3.7089    1.2537   -2.0225 H   0  0  0  0  0  0  0  0  0  0  0  0
   -3.6145    2.8437   -1.2496 H   0  0  0  0  0  0  0  0  0  0  0  0
   -2.2987    2.3000   -2.3044 H   0  0  0  0  0  0  0  0  0  0  0  0
   -2.0671   -0.9669   -0.6212 H   0  0  0  0  0  0  0  0  0  0  0  0
   -0.8591    0.1451    1.8658 H   0  0  0  0  0  0  0  0  0  0  0  0
    0.6438    0.3710   -0.5000 H   0  0  0  0  0  0  0  0  0  0  0  0
   -1.9345    3.8384    1.2102 H   0  0  0  0  0  0  0  0  0  0  0  0
   -0.6656    3.0585    2.2619 H   0  0  0  0  0  0  0  0  0  0  0  0
   -0.4240    3.5568   -0.8087 H   0  0  0  0  0  0  0  0  0  0  0  0
    0.8361    2.7614    0.2469 H   0  0  0  0  0  0  0  0  0  0  0  0
  1  2  1  0
  2  3  1  0
  3  4  1  0
  4  5  1  0
  5  6  1  0
  5  7  1  0
  7  8  1  0
  8  9  1  0
  4  2  1  0
  9  7  1  0
  7  2  1  0
  1 10  1  0
  1 11  1  0
  1 12  1  0
  4 13  1  0
  5 14  1  0
  6 15  1  0
  8 16  1  0
  8 17  1  0
  9 18  1  0
  9 19  1  0
M  END
$$$$
