
     RDKit          3D

 19 20  0  0  0  0  0  0  0  0999 V2000
   -1.0851    1.9673    1.2574 C   0  0  0  0  0  0  0  0  0  0  0  0
   -1.1241    1.0681    0.0229 C   0  0  0  0  0  0  0  0  0  0  0  0
   -2.1055   -0.1543    0.0457 C   0  0  0  0  0  0  0  0  0  0  0  0
   -2.9159   -0.3234   -1.1001 O   0  0  0  0  0  0  0  0  0  0  0  0
   -2.1242   -0.9140   -2.1276 C   0  0  0  0  0  0  0  0  0  0  0  0
   -1.1489   -1.8666   -1.4143 C   0  0  0  0  0  0  0  0  0  0  0  0
   -0.9066   -1.1556   -0.0711 C   0  0  0  0  0  0  0  0  0  0  0  0
    0.0370    0.0622   -0.0949 C   0  0  0  0  0  0  0  0  0  0  0  0
    1.2285    0.1791   -0.1390 O   0  0  0  0  0  0  0  0  0  0  0  0
   -1.0135    1.3767    2.1772 H   0  0  0  0  0  0  0  0  0  0  0  0
   -0.2166    2.6312    1.2208 H   0  0  0  0  0  0  0  0  0  0  0  0
   -1.9887    2.5813    1.3207 H   0  0  0  0  0  0  0  0  0  0  0  0
   -1.2444    1.6707   -0.8852 H   0  0  0  0  0  0  0  0  0  0  0  0
   -2.7456   -0.2094    0.9283 H   0  0  0  0  0  0  0  0  0  0  0  0
   -2.8020   -1.4168   -2.8217 H   0  0  0  0  0  0  0  0  0  0  0  0
   -1.5736   -0.1428   -2.6889 H   0  0  0  0  0  0  0  0  0  0  0  0
   -1.6231   -2.8356   -1.2349 H   0  0  0  0  0  0  0  0  0  0  0  0
   -0.2295   -2.0336   -1.9807 H   0  0  0  0  0  0  0  0  0  0  0  0
   -0.7191   -1.8445    0.7550 H   0  0  0  0  0  0  0  0  0  0  0  0
  1  2  1  0
  2  3  1  0
  3  4  1  0
  4  5  1  0
  5  6  1  0
  6  7  1  0
  7  8  1  0
  8  9  2  0
  8  2  1  0
  7  3  1  0
  1 10  1  0
  1 11  1  0
  1 12  1  0
  2 13  1  0
  3 14  1  0
  5 15  1  0
  5 16  1  0
  6 17  1  0
  6 18  1  0
  7 19  1  0
M  END
$$$$
