
     RDKit          3D

 19 20  0  0  0  0  0  0  0  0999 V2000
    0.6328    0.7817   -0.9502 O   0  0  0  0  0  0  0  0  0  0  0  0
   -0.0647    0.1473   -0.2025 C   0  0  0  0  0  0  0  0  0  0  0  0
   -0.4648    0.6017    1.1989 C   0  0  0  0  0  0  0  0  0  0  0  0
   -0.6913    2.1194    1.3110 C   0  0  0  0  0  0  0  0  0  0  0  0
   -2.2173    2.2274    1.1444 C   0  0  0  0  0  0  0  0  0  0  0  0
   -2.6819    0.9418    1.7962 C   0  0  0  0  0  0  0  0  0  0  0  0
   -3.3572    0.8963    3.1412 C   0  0  0  0  0  0  0  0  0  0  0  0
   -4.0918    0.4678    1.8775 C   0  0  0  0  0  0  0  0  0  0  0  0
   -1.6973   -0.0432    1.5284 O   0  0  0  0  0  0  0  0  0  0  0  0
   -0.4830   -0.8460   -0.4777 H   0  0  0  0  0  0  0  0  0  0  0  0
    0.3218    0.2535    1.8856 H   0  0  0  0  0  0  0  0  0  0  0  0
   -0.3844    2.4770    2.2972 H   0  0  0  0  0  0  0  0  0  0  0  0
   -0.1187    2.6536    0.5510 H   0  0  0  0  0  0  0  0  0  0  0  0
   -2.6413    3.1184    1.6116 H   0  0  0  0  0  0  0  0  0  0  0  0
   -2.4875    2.2366    0.0817 H   0  0  0  0  0  0  0  0  0  0  0  0
   -3.0478    0.1099    3.8202 H   0  0  0  0  0  0  0  0  0  0  0  0
   -3.6435    1.8289    3.6167 H   0  0  0  0  0  0  0  0  0  0  0  0
   -4.2614   -0.5941    1.7390 H   0  0  0  0  0  0  0  0  0  0  0  0
   -4.8765    1.1075    1.4872 H   0  0  0  0  0  0  0  0  0  0  0  0
  1  2  2  0
  2  3  1  0
  3  4  1  0
  4  5  1  0
  5  6  1  0
  6  7  1  0
  7  8  1  0
  6  9  1  0
  9  3  1  0
  8  6  1  0
  2 10  1  0
  3 11  1  0
  4 12  1  0
  4 13  1  0
  5 14  1  0
  5 15  1  0
  7 16  1  0
  7 17  1  0
  8 18  1  0
  8 19  1  0
M  END
$$$$
