gdb 852	2.3598435	1.4815695	1.0848931	2.3914	75.21	-0.24418	-0.03365	0.21053	1156.3908	0.155756	-422.528792	-422.520065	-422.51912	-422.563112	31.452
 OpenBabel02181911403D

 19 20  0  0  1  0  0  0  0  0999 V2000
    1.0299   -0.6529   -0.0244 O   0  0  0  0  0  0  0  0  0  0  0  0
    0.0774    0.0718    0.1158 C   0  0  0  0  0  0  0  0  0  0  0  0
    0.0789    1.5353   -0.2696 C   0  0  2  0  0  0  0  0  0  0  0  0
   -1.2034    2.1527   -0.0737 O   0  0  0  0  0  0  0  0  0  0  0  0
   -1.3147    2.4792   -1.4767 C   0  0  0  0  0  0  0  0  0  0  0  0
    0.0596    1.8474   -1.7911 C   0  0  0  0  0  0  0  0  0  0  0  0
    0.1981    0.7927   -2.9163 C   0  0  0  0  0  0  0  0  0  0  0  0
    0.9103    1.8648   -3.7854 C   0  0  0  0  0  0  0  0  0  0  0  0
    1.1505    2.6910   -2.4922 C   0  0  0  0  0  0  0  0  0  0  0  0
   -0.8957   -0.2860    0.5222 H   0  0  0  0  0  0  0  0  0  0  0  0
    0.8829    2.0478    0.2781 H   0  0  0  0  0  0  0  0  0  0  0  0
   -2.1808    1.9884   -1.9393 H   0  0  0  0  0  0  0  0  0  0  0  0
   -1.3853    3.5623   -1.6375 H   0  0  0  0  0  0  0  0  0  0  0  0
    0.8757   -0.0128   -2.6213 H   0  0  0  0  0  0  0  0  0  0  0  0
   -0.7266    0.3505   -3.2980 H   0  0  0  0  0  0  0  0  0  0  0  0
    1.7898    1.5495   -4.3497 H   0  0  0  0  0  0  0  0  0  0  0  0
    0.2199    2.3660   -4.4692 H   0  0  0  0  0  0  0  0  0  0  0  0
    2.1379    2.4964   -2.0628 H   0  0  0  0  0  0  0  0  0  0  0  0
    0.9929    3.7726   -2.5313 H   0  0  0  0  0  0  0  0  0  0  0  0
  1  2  2  0  0  0  0
  2 10  1  0  0  0  0
  3  4  1  0  0  0  0
  3  2  1  0  0  0  0
  3 11  1  1  0  0  0
  5  4  1  0  0  0  0
  6  5  1  0  0  0  0
  6  3  1  0  0  0  0
  7 14  1  0  0  0  0
  7  6  1  0  0  0  0
  8  7  1  0  0  0  0
  8  9  1  0  0  0  0
  9 18  1  0  0  0  0
  9  6  1  0  0  0  0
 12  5  1  0  0  0  0
 13  5  1  0  0  0  0
 15  7  1  0  0  0  0
 16  8  1  0  0  0  0
 17  8  1  0  0  0  0
 19  9  1  0  0  0  0
M TOR 0 0 1 2 3
M TOR 1 0 1 2 5
M TOR 2 0 1 2 10
M TOR 3 1 2 3 4
M TOR 4 1 2 5 4
M TOR 5 1 2 5 6
M TOR 6 1 2 5 8
M TOR 7 2 3 4 5
M TOR 8 2 3 4 11
M TOR 9 2 3 4 12
M TOR 10 2 5 4 11
M TOR 11 2 5 4 12
M TOR 12 2 5 6 7
M TOR 13 2 5 6 13
M TOR 14 2 5 6 14
M TOR 15 2 5 8 7
M TOR 16 2 5 8 17
M TOR 17 2 5 8 18
M TOR 18 3 2 1 9
M TOR 19 3 2 5 6
M TOR 20 3 2 5 8
M TOR 21 3 4 5 6
M TOR 22 3 4 5 8
M TOR 23 4 3 2 10
M TOR 24 4 5 2 10
M TOR 25 4 5 6 7
M TOR 26 4 5 6 13
M TOR 27 4 5 6 14
M TOR 28 4 5 8 7
M TOR 29 4 5 8 17
M TOR 30 4 5 8 18
M TOR 31 5 2 1 9
M TOR 32 5 6 7 8
M TOR 33 5 6 7 15
M TOR 34 5 6 7 16
M TOR 35 5 8 7 15
M TOR 36 5 8 7 16
M TOR 37 6 5 2 10
M TOR 38 6 5 4 11
M TOR 39 6 5 4 12
M TOR 40 6 5 8 17
M TOR 41 6 5 8 18
M TOR 42 6 7 8 17
M TOR 43 6 7 8 18
M TOR 44 8 5 2 10
M TOR 45 8 5 4 11
M TOR 46 8 5 4 12
M TOR 47 8 5 6 13
M TOR 48 8 5 6 14
M TOR 49 8 7 6 13
M TOR 50 8 7 6 14
M  END
$$$$
