gdb 3208	3.1367841	1.3371703	1.1553199	2.2509	76.44	-0.22103	0.06122	0.28225	1139.8937	0.154613	-422.490672	-422.481748	-422.480804	-422.523715	34.034
 OpenBabel02181911413D

 19 21  0  0  1  0  0  0  0  0999 V2000
    1.7367   -0.6686   -1.1707 C   0  0  0  0  0  0  0  0  0  0  0  0
    1.4307   -0.0601    0.1816 C   0  0  2  0  0  0  0  0  0  0  0  0
    2.0710    1.2696    0.5038 C   0  0  1  0  0  0  0  0  0  0  0  0
    1.5565    1.8023    1.7314 O   0  0  0  0  0  0  0  0  0  0  0  0
    2.0974    0.6779    2.4509 C   0  0  0  0  0  0  0  0  0  0  0  0
    2.8382    0.8435    3.7303 C   0  0  0  0  0  0  0  0  0  0  0  0
    1.4850    0.1379    3.6976 C   0  0  0  0  0  0  0  0  0  0  0  0
    2.5792    0.0199    1.1779 C   0  0  1  0  0  0  0  0  0  0  0  0
    3.7794   -0.6493    1.0488 O   0  0  0  0  0  0  0  0  0  0  0  0
    1.6650   -1.7621   -1.1435 H   0  0  0  0  0  0  0  0  0  0  0  0
    1.0304   -0.3105   -1.9265 H   0  0  0  0  0  0  0  0  0  0  0  0
    2.7476   -0.4145   -1.5026 H   0  0  0  0  0  0  0  0  0  0  0  0
    0.4262   -0.2311    0.5655 H   0  0  0  0  0  0  0  0  0  0  0  0
    2.4974    1.9560   -0.2178 H   0  0  0  0  0  0  0  0  0  0  0  0
    3.7335    0.2475    3.8721 H   0  0  0  0  0  0  0  0  0  0  0  0
    2.8727    1.8392    4.1583 H   0  0  0  0  0  0  0  0  0  0  0  0
    1.4503   -0.9377    3.8411 H   0  0  0  0  0  0  0  0  0  0  0  0
    0.6362    0.6771    4.1039 H   0  0  0  0  0  0  0  0  0  0  0  0
    3.5985   -1.5947    1.0060 H   0  0  0  0  0  0  0  0  0  0  0  0
  1 10  1  0  0  0  0
  1  2  1  0  0  0  0
  2  3  1  0  0  0  0
  2 13  1  1  0  0  0
  2  8  1  0  0  0  0
  3 14  1  6  0  0  0
  3  8  1  0  0  0  0
  3  4  1  0  0  0  0
  4  5  1  0  0  0  0
  5  7  1  0  0  0  0
  5  6  1  0  0  0  0
  6 15  1  0  0  0  0
  6 16  1  0  0  0  0
  7  6  1  0  0  0  0
  7 17  1  0  0  0  0
  7 18  1  0  0  0  0
  8  9  1  6  0  0  0
  8  5  1  0  0  0  0
 11  1  1  0  0  0  0
 12  1  1  0  0  0  0
 19  9  1  0  0  0  0
M TOR 0 0 1 2 3
M TOR 1 0 1 2 7
M TOR 2 0 1 2 13
M TOR 3 0 1 7 4
M TOR 4 0 1 7 8
M TOR 5 1 2 3 4
M TOR 6 1 2 7 4
M TOR 7 1 2 7 8
M TOR 8 1 7 2 3
M TOR 9 1 7 2 13
M TOR 10 1 7 4 3
M TOR 11 1 7 4 5
M TOR 12 1 7 4 6
M TOR 13 1 7 8 18
M TOR 14 2 1 0 9
M TOR 15 2 1 0 10
M TOR 16 2 1 0 11
M TOR 17 2 3 4 5
M TOR 18 2 3 4 6
M TOR 19 2 3 4 7
M TOR 20 2 7 1 12
M TOR 21 2 7 4 5
M TOR 22 2 7 4 6
M TOR 23 2 7 8 18
M TOR 24 3 2 1 12
M TOR 25 3 2 7 8
M TOR 26 3 4 5 6
M TOR 27 3 4 5 14
M TOR 28 3 4 5 15
M TOR 29 3 4 6 16
M TOR 30 3 4 6 17
M TOR 31 3 4 7 8
M TOR 32 4 3 2 13
M TOR 33 4 5 6 16
M TOR 34 4 5 6 17
M TOR 35 4 6 5 14
M TOR 36 4 6 5 15
M TOR 37 4 7 1 12
M TOR 38 4 7 2 13
M TOR 39 4 7 8 18
M TOR 40 5 4 7 8
M TOR 41 5 6 4 7
M TOR 42 6 4 7 8
M TOR 43 7 1 0 9
M TOR 44 7 1 0 10
M TOR 45 7 1 0 11
M TOR 46 7 4 5 14
M TOR 47 7 4 5 15
M TOR 48 7 4 6 16
M TOR 49 7 4 6 17
M TOR 50 8 7 1 12
M TOR 51 8 7 2 13
M  END
$$$$
