gdb 3584	2.0552775	1.5065605	1.3312948	0.6335	77.12	-0.2576	0.01966	0.27726	1114.9554	0.153442	-422.516639	-422.506711	-422.505767	-422.550921	36.795
 OpenBabel02181911413D

 19 19  0  0  1  0  0  0  0  0999 V2000
    0.4647    0.2588   -0.5332 C   0  0  0  0  0  0  0  0  0  0  0  0
    0.9053   -0.7028    0.5539 C   0  0  2  0  0  0  0  0  0  0  0  0
    2.3374   -0.6584    0.8044 O   0  0  0  0  0  0  0  0  0  0  0  0
    2.5502   -1.9995    0.2906 C   0  0  2  0  0  0  0  0  0  0  0  0
    3.3027   -2.8740    1.2850 C   0  0  0  0  0  0  0  0  0  0  0  0
    3.1959   -1.9798   -1.0219 C   0  0  0  0  0  0  0  0  0  0  0  0
    3.6659   -1.9808   -2.1303 C   0  0  0  0  0  0  0  0  0  0  0  0
    0.9964   -2.2077    0.1791 C   0  0  2  0  0  0  0  0  0  0  0  0
    0.4493   -2.6687   -1.0158 O   0  0  0  0  0  0  0  0  0  0  0  0
    0.6501    1.2895   -0.2167 H   0  0  0  0  0  0  0  0  0  0  0  0
    1.0113    0.0875   -1.4646 H   0  0  0  0  0  0  0  0  0  0  0  0
   -0.6055    0.1424   -0.7311 H   0  0  0  0  0  0  0  0  0  0  0  0
    0.3568   -0.5048    1.4829 H   0  0  0  0  0  0  0  0  0  0  0  0
    2.7764   -2.8765    2.2433 H   0  0  0  0  0  0  0  0  0  0  0  0
    3.3765   -3.9001    0.9126 H   0  0  0  0  0  0  0  0  0  0  0  0
    4.3134   -2.4877    1.4424 H   0  0  0  0  0  0  0  0  0  0  0  0
    4.1169   -1.9718   -3.0925 H   0  0  0  0  0  0  0  0  0  0  0  0
    0.6245   -2.8614    0.9719 H   0  0  0  0  0  0  0  0  0  0  0  0
    1.0061   -2.3574   -1.7417 H   0  0  0  0  0  0  0  0  0  0  0  0
  1 10  1  0  0  0  0
  1  2  1  0  0  0  0
  2  3  1  0  0  0  0
  2 13  1  1  0  0  0
  4  6  1  6  0  0  0
  4  3  1  0  0  0  0
  4  5  1  0  0  0  0
  5 16  1  0  0  0  0
  5 14  1  0  0  0  0
  7  6  3  0  0  0  0
  8  4  1  0  0  0  0
  8  2  1  0  0  0  0
  8 18  1  1  0  0  0
  9  8  1  0  0  0  0
 11  1  1  0  0  0  0
 12  1  1  0  0  0  0
 15  5  1  0  0  0  0
 17  7  1  0  0  0  0
 19  9  1  0  0  0  0
M TOR 0 0 1 2 3
M TOR 1 0 1 7 3
M TOR 2 0 1 7 8
M TOR 3 0 1 7 17
M TOR 4 1 2 3 4
M TOR 5 1 2 3 5
M TOR 6 1 2 3 7
M TOR 7 1 7 3 4
M TOR 8 1 7 3 5
M TOR 9 1 7 8 18
M TOR 10 2 1 0 9
M TOR 11 2 1 0 10
M TOR 12 2 1 0 11
M TOR 13 2 1 7 8
M TOR 14 2 1 7 17
M TOR 15 2 3 4 13
M TOR 16 2 3 4 14
M TOR 17 2 3 4 15
M TOR 18 2 3 5 6
M TOR 19 2 3 7 8
M TOR 20 2 3 7 17
M TOR 21 3 2 1 12
M TOR 22 3 5 6 16
M TOR 23 3 7 1 12
M TOR 24 3 7 8 18
M TOR 25 4 3 5 6
M TOR 26 4 3 7 8
M TOR 27 4 3 7 17
M TOR 28 5 3 4 13
M TOR 29 5 3 4 14
M TOR 30 5 3 4 15
M TOR 31 5 3 7 8
M TOR 32 5 3 7 17
M TOR 33 6 5 3 7
M TOR 34 7 1 0 9
M TOR 35 7 1 0 10
M TOR 36 7 1 0 11
M TOR 37 7 3 4 13
M TOR 38 7 3 4 14
M TOR 39 7 3 4 15
M TOR 40 8 7 1 12
M  END
$$$$
