
     RDKit          3D

 19 19  0  0  0  0  0  0  0  0999 V2000
   -2.1718    3.9810    1.9208 C   0  0  0  0  0  0  0  0  0  0  0  0
   -2.1298    2.5334    1.4906 C   0  0  0  0  0  0  0  0  0  0  0  0
   -0.9872    1.9808    0.7133 C   0  0  0  0  0  0  0  0  0  0  0  0
   -0.4053    0.6076    0.9916 C   0  0  0  0  0  0  0  0  0  0  0  0
    0.2747    0.0172   -0.2250 C   0  0  0  0  0  0  0  0  0  0  0  0
    1.4059   -0.3939   -0.2508 O   0  0  0  0  0  0  0  0  0  0  0  0
   -2.3579    2.1684    0.0246 C   0  0  0  0  0  0  0  0  0  0  0  0
   -3.2179    1.0088   -0.2948 C   0  0  0  0  0  0  0  0  0  0  0  0
   -3.3653    0.0341    0.4104 O   0  0  0  0  0  0  0  0  0  0  0  0
   -1.6444    4.1191    2.8708 H   0  0  0  0  0  0  0  0  0  0  0  0
   -1.6955    4.6298    1.1786 H   0  0  0  0  0  0  0  0  0  0  0  0
   -3.2024    4.3245    2.0564 H   0  0  0  0  0  0  0  0  0  0  0  0
   -2.6016    1.8259    2.1685 H   0  0  0  0  0  0  0  0  0  0  0  0
   -0.2564    2.7149    0.3799 H   0  0  0  0  0  0  0  0  0  0  0  0
    0.3237    0.6571    1.8063 H   0  0  0  0  0  0  0  0  0  0  0  0
   -1.2152   -0.0725    1.2812 H   0  0  0  0  0  0  0  0  0  0  0  0
   -0.3663   -0.0146   -1.1370 H   0  0  0  0  0  0  0  0  0  0  0  0
   -2.4173    2.9873   -0.6854 H   0  0  0  0  0  0  0  0  0  0  0  0
   -3.7549    1.0846   -1.2655 H   0  0  0  0  0  0  0  0  0  0  0  0
  1  2  1  0
  2  3  1  0
  3  4  1  0
  4  5  1  0
  5  6  2  0
  3  7  1  0
  7  8  1  0
  8  9  2  0
  7  2  1  0
  1 10  1  0
  1 11  1  0
  1 12  1  0
  2 13  1  0
  3 14  1  0
  4 15  1  0
  4 16  1  0
  5 17  1  0
  7 18  1  0
  8 19  1  0
M  END
$$$$
