
     RDKit          3D

 19 21  0  0  0  0  0  0  0  0999 V2000
    0.1971    0.6876    0.1835 O   0  0  0  0  0  0  0  0  0  0  0  0
   -1.0781    0.3384    0.6441 C   0  0  0  0  0  0  0  0  0  0  0  0
   -1.3487    0.4247    2.1182 C   0  0  0  0  0  0  0  0  0  0  0  0
   -1.9847    1.4356    1.1263 C   0  0  0  0  0  0  0  0  0  0  0  0
   -3.3966    0.9284    1.5181 C   0  0  0  0  0  0  0  0  0  0  0  0
   -4.3171    1.9092    1.8937 O   0  0  0  0  0  0  0  0  0  0  0  0
   -4.0399   -0.2355    0.7200 C   0  0  0  0  0  0  0  0  0  0  0  0
   -3.3795   -1.2662    1.6970 C   0  0  0  0  0  0  0  0  0  0  0  0
   -2.7508   -0.0942    2.5106 C   0  0  0  0  0  0  0  0  0  0  0  0
    0.5341    1.4092    0.7255 H   0  0  0  0  0  0  0  0  0  0  0  0
   -1.4509   -0.4812    0.0387 H   0  0  0  0  0  0  0  0  0  0  0  0
   -0.5206    0.5592    2.8072 H   0  0  0  0  0  0  0  0  0  0  0  0
   -1.7460    2.4751    0.9178 H   0  0  0  0  0  0  0  0  0  0  0  0
   -3.8648    2.5487    2.4557 H   0  0  0  0  0  0  0  0  0  0  0  0
   -5.1281   -0.2033    0.8024 H   0  0  0  0  0  0  0  0  0  0  0  0
   -3.7708   -0.3087   -0.3362 H   0  0  0  0  0  0  0  0  0  0  0  0
   -4.1083   -1.8431    2.2697 H   0  0  0  0  0  0  0  0  0  0  0  0
   -2.6698   -1.9651    1.2488 H   0  0  0  0  0  0  0  0  0  0  0  0
   -2.9710   -0.0461    3.5779 H   0  0  0  0  0  0  0  0  0  0  0  0
  1  2  1  0
  2  3  1  0
  3  4  1  0
  4  5  1  0
  5  6  1  0
  5  7  1  0
  7  8  1  0
  8  9  1  0
  4  2  1  0
  9  5  1  0
  9  3  1  0
  1 10  1  0
  2 11  1  0
  3 12  1  0
  4 13  1  0
  6 14  1  0
  7 15  1  0
  7 16  1  0
  8 17  1  0
  8 18  1  0
  9 19  1  0
M  END
$$$$
