
     RDKit          3D

 19 19  0  0  0  0  0  0  0  0999 V2000
   -0.1617   -0.1094    0.1390 C   0  0  0  0  0  0  0  0  0  0  0  0
    1.0391   -0.0611    0.1154 C   0  0  0  0  0  0  0  0  0  0  0  0
    2.4966   -0.0079    0.1156 C   0  0  0  0  0  0  0  0  0  0  0  0
    3.1164   -0.2312    1.5089 C   0  0  0  0  0  0  0  0  0  0  0  0
    2.7059    0.8555    2.5121 C   0  0  0  0  0  0  0  0  0  0  0  0
    3.3835    0.6780    3.7477 O   0  0  0  0  0  0  0  0  0  0  0  0
    4.7729    0.6786    3.5670 C   0  0  0  0  0  0  0  0  0  0  0  0
    5.2143   -0.3617    2.7344 O   0  0  0  0  0  0  0  0  0  0  0  0
    4.6493   -0.2547    1.4370 C   0  0  0  0  0  0  0  0  0  0  0  0
   -1.2226   -0.1528    0.1481 H   0  0  0  0  0  0  0  0  0  0  0  0
    2.8873   -0.7647   -0.5776 H   0  0  0  0  0  0  0  0  0  0  0  0
    2.8258    0.9631   -0.2798 H   0  0  0  0  0  0  0  0  0  0  0  0
    2.7793   -1.1968    1.9015 H   0  0  0  0  0  0  0  0  0  0  0  0
    2.9387    1.8521    2.0950 H   0  0  0  0  0  0  0  0  0  0  0  0
    1.6359    0.8182    2.7260 H   0  0  0  0  0  0  0  0  0  0  0  0
    5.0958    1.6527    3.1484 H   0  0  0  0  0  0  0  0  0  0  0  0
    5.2261    0.5180    4.5469 H   0  0  0  0  0  0  0  0  0  0  0  0
    5.0128    0.6639    0.9414 H   0  0  0  0  0  0  0  0  0  0  0  0
    5.0132   -1.1132    0.8649 H   0  0  0  0  0  0  0  0  0  0  0  0
  1  2  3  0
  2  3  1  0
  3  4  1  0
  4  5  1  0
  5  6  1  0
  6  7  1  0
  7  8  1  0
  8  9  1  0
  9  4  1  0
  1 10  1  0
  3 11  1  0
  3 12  1  0
  4 13  1  0
  5 14  1  0
  5 15  1  0
  7 16  1  0
  7 17  1  0
  9 18  1  0
  9 19  1  0
M  END
$$$$
