gdb 3054	3.6185466	1.4124329	1.2460175	1.3839	74.85	-0.25043	0.06841	0.31884	1042.54	0.158611	-422.489889	-422.482426	-422.481482	-422.521581	29.876
 OpenBabel02181911413D

 19 21  0  0  1  0  0  0  0  0999 V2000
    0.5001    0.1753    0.9794 O   0  0  0  0  0  0  0  0  0  0  0  0
   -0.8184    0.6081    0.8555 C   0  0  2  0  0  0  0  0  0  0  0  0
   -1.7493    0.7970    2.1322 C   0  0  2  0  0  0  0  0  0  0  0  0
   -1.8897   -0.7422    2.1777 C   0  0  0  0  0  0  0  0  0  0  0  0
   -2.0228   -0.3727    0.6560 C   0  0  2  0  0  0  0  0  0  0  0  0
   -2.8765   -1.1600   -0.3083 C   0  0  0  0  0  0  0  0  0  0  0  0
   -4.2942   -0.8662    0.3146 C   0  0  0  0  0  0  0  0  0  0  0  0
   -4.1811    0.2237    1.2681 O   0  0  0  0  0  0  0  0  0  0  0  0
   -2.9081    0.7976    1.0916 C   0  0  1  0  0  0  0  0  0  0  0  0
    0.5363   -0.5687    1.5893 H   0  0  0  0  0  0  0  0  0  0  0  0
   -0.7895    1.4568    0.1670 H   0  0  0  0  0  0  0  0  0  0  0  0
   -1.5770    1.4824    2.9626 H   0  0  0  0  0  0  0  0  0  0  0  0
   -1.0174   -1.3305    2.4788 H   0  0  0  0  0  0  0  0  0  0  0  0
   -2.7862   -1.1259    2.6627 H   0  0  0  0  0  0  0  0  0  0  0  0
   -2.8078   -0.7621   -1.3255 H   0  0  0  0  0  0  0  0  0  0  0  0
   -2.6678   -2.2321   -0.3445 H   0  0  0  0  0  0  0  0  0  0  0  0
   -5.0198   -0.5929   -0.4605 H   0  0  0  0  0  0  0  0  0  0  0  0
   -4.6849   -1.7338    0.8562 H   0  0  0  0  0  0  0  0  0  0  0  0
   -2.9553    1.6793    0.4386 H   0  0  0  0  0  0  0  0  0  0  0  0
  1 10  1  0  0  0  0
  2 11  1  6  0  0  0
  2  1  1  0  0  0  0
  2  3  1  0  0  0  0
  3  4  1  0  0  0  0
  3 12  1  1  0  0  0
  4 13  1  0  0  0  0
  4 14  1  0  0  0  0
  5  6  1  6  0  0  0
  5  2  1  0  0  0  0
  5  9  1  0  0  0  0
  5  4  1  0  0  0  0
  6  7  1  0  0  0  0
  7 18  1  0  0  0  0
  7  8  1  0  0  0  0
  9 19  1  6  0  0  0
  9  8  1  0  0  0  0
  9  3  1  0  0  0  0
 15  6  1  0  0  0  0
 16  6  1  0  0  0  0
 17  7  1  0  0  0  0
M TOR 0 0 1 2 3
M TOR 1 0 1 2 8
M TOR 2 0 1 2 11
M TOR 3 0 1 4 3
M TOR 4 0 1 4 5
M TOR 5 0 1 4 8
M TOR 6 1 2 3 4
M TOR 7 1 2 3 12
M TOR 8 1 2 3 13
M TOR 9 1 2 8 4
M TOR 10 1 2 8 7
M TOR 11 1 2 8 18
M TOR 12 1 4 3 12
M TOR 13 1 4 3 13
M TOR 14 1 4 5 6
M TOR 15 1 4 5 14
M TOR 16 1 4 5 15
M TOR 17 1 4 8 7
M TOR 18 1 4 8 18
M TOR 19 2 1 0 9
M TOR 20 2 1 4 5
M TOR 21 2 3 4 5
M TOR 22 2 3 4 8
M TOR 23 2 8 4 5
M TOR 24 2 8 7 6
M TOR 25 3 2 1 10
M TOR 26 3 2 8 7
M TOR 27 3 2 8 18
M TOR 28 3 4 1 10
M TOR 29 3 4 5 6
M TOR 30 3 4 5 14
M TOR 31 3 4 5 15
M TOR 32 3 4 8 7
M TOR 33 3 4 8 18
M TOR 34 4 1 0 9
M TOR 35 4 1 2 11
M TOR 36 4 3 2 11
M TOR 37 4 5 6 7
M TOR 38 4 5 6 16
M TOR 39 4 5 6 17
M TOR 40 4 8 2 11
M TOR 41 4 8 7 6
M TOR 42 5 4 1 10
M TOR 43 5 4 3 12
M TOR 44 5 4 3 13
M TOR 45 5 4 8 7
M TOR 46 5 4 8 18
M TOR 47 5 6 7 8
M TOR 48 6 5 4 8
M TOR 49 6 7 8 18
M TOR 50 7 6 5 14
M TOR 51 7 6 5 15
M TOR 52 7 8 2 11
M TOR 53 8 2 1 10
M TOR 54 8 2 3 12
M TOR 55 8 2 3 13
M TOR 56 8 4 1 10
M TOR 57 8 4 3 12
M TOR 58 8 4 3 13
M TOR 59 8 4 5 14
M TOR 60 8 4 5 15
M TOR 61 8 7 6 16
M TOR 62 8 7 6 17
M  END
$$$$
