gdb 1327	2.047553	1.3551623	1.2129834	2.3427	77.38	-0.26211	-0.03971	0.22240000000000001	1174.2516	0.152219	-422.541734	-422.531238	-422.530294	-422.576817	38.198
 OpenBabel02181911403D

 19 18  0  0  1  0  0  0  0  0999 V2000
   -1.6611    2.8657   -1.7987 C   0  0  0  0  0  0  0  0  0  0  0  0
   -1.1653    2.0026   -0.6176 C   0  0  0  0  0  0  0  0  0  0  0  0
   -2.3746    1.5561    0.2359 C   0  0  0  0  0  0  0  0  0  0  0  0
   -0.2307    2.7756    0.2063 C   0  0  0  0  0  0  0  0  0  0  0  0
    0.5338    3.3952    0.8968 C   0  0  0  0  0  0  0  0  0  0  0  0
   -0.4166    0.7539   -1.2064 C   0  0  1  0  0  0  0  0  0  0  0  0
    0.5378    1.1227   -2.1569 O   0  0  0  0  0  0  0  0  0  0  0  0
    0.2457   -0.0813   -0.1221 C   0  0  0  0  0  0  0  0  0  0  0  0
    1.4275   -0.3244   -0.1564 O   0  0  0  0  0  0  0  0  0  0  0  0
   -2.3775    2.2989   -2.4032 H   0  0  0  0  0  0  0  0  0  0  0  0
   -2.1585    3.7640   -1.4234 H   0  0  0  0  0  0  0  0  0  0  0  0
   -0.8254    3.1598   -2.4336 H   0  0  0  0  0  0  0  0  0  0  0  0
   -2.0737    1.0072    1.1314 H   0  0  0  0  0  0  0  0  0  0  0  0
   -2.9389    2.4330    0.5634 H   0  0  0  0  0  0  0  0  0  0  0  0
   -3.0443    0.9227   -0.3556 H   0  0  0  0  0  0  0  0  0  0  0  0
    1.2132    3.9451    1.5002 H   0  0  0  0  0  0  0  0  0  0  0  0
   -1.1915    0.1194   -1.6742 H   0  0  0  0  0  0  0  0  0  0  0  0
    1.3872    0.8051   -1.8098 H   0  0  0  0  0  0  0  0  0  0  0  0
   -0.3998   -0.4670    0.6889 H   0  0  0  0  0  0  0  0  0  0  0  0
  1 11  1  0  0  0  0
  1  2  1  0  0  0  0
  2  4  1  0  0  0  0
  2  3  1  0  0  0  0
  3 14  1  0  0  0  0
  3 13  1  0  0  0  0
  4  5  3  0  0  0  0
  5 16  1  0  0  0  0
  6 17  1  6  0  0  0
  6  2  1  0  0  0  0
  6  8  1  0  0  0  0
  7 18  1  0  0  0  0
  7  6  1  0  0  0  0
  8 19  1  0  0  0  0
  9  8  2  0  0  0  0
 10  1  1  0  0  0  0
 12  1  1  0  0  0  0
 15  3  1  0  0  0  0
M TOR 0 0 1 2 12
M TOR 1 0 1 2 13
M TOR 2 0 1 2 14
M TOR 3 0 1 3 4
M TOR 4 0 1 5 6
M TOR 5 0 1 5 7
M TOR 6 0 1 5 16
M TOR 7 1 3 4 15
M TOR 8 1 5 6 17
M TOR 9 1 5 7 8
M TOR 10 1 5 7 18
M TOR 11 2 1 0 9
M TOR 12 2 1 0 10
M TOR 13 2 1 0 11
M TOR 14 2 1 3 4
M TOR 15 2 1 5 6
M TOR 16 2 1 5 7
M TOR 17 2 1 5 16
M TOR 18 3 1 0 9
M TOR 19 3 1 0 10
M TOR 20 3 1 0 11
M TOR 21 3 1 2 12
M TOR 22 3 1 2 13
M TOR 23 3 1 2 14
M TOR 24 3 1 5 6
M TOR 25 3 1 5 7
M TOR 26 3 1 5 16
M TOR 27 4 3 1 5
M TOR 28 5 1 0 9
M TOR 29 5 1 0 10
M TOR 30 5 1 0 11
M TOR 31 5 1 2 12
M TOR 32 5 1 2 13
M TOR 33 5 1 2 14
M TOR 34 6 5 7 8
M TOR 35 6 5 7 18
M TOR 36 7 5 6 17
M TOR 37 8 7 5 16
M  END
$$$$
