gdb 5060	2.5875905	1.5843635	1.196638	2.0254	76.58	-0.23062	0.01426	0.24488	1093.5585	0.155642	-422.537499	-422.528664	-422.52772	-422.570613	33.586
 OpenBabel02181911413D

 19 20  0  0  1  0  0  0  0  0999 V2000
    1.3664    0.0336   -0.2095 C   0  0  0  0  0  0  0  0  0  0  0  0
    0.0229   -0.1435    0.2073 O   0  0  0  0  0  0  0  0  0  0  0  0
   -0.3528    0.6162    1.3113 C   0  0  1  0  0  0  0  0  0  0  0  0
   -0.5458    2.1225    1.1585 C   0  0  0  0  0  0  0  0  0  0  0  0
   -1.7442    1.2048    1.2950 C   0  0  1  0  0  0  0  0  0  0  0  0
   -2.5713    1.0156    0.1921 O   0  0  0  0  0  0  0  0  0  0  0  0
   -2.3493    0.9943    2.6795 C   0  0  0  0  0  0  0  0  0  0  0  0
   -1.2205    0.3469    3.4584 C   0  0  0  0  0  0  0  0  0  0  0  0
   -0.1425    0.1159    2.7040 C   0  0  0  0  0  0  0  0  0  0  0  0
    2.0749   -0.3004    0.5607 H   0  0  0  0  0  0  0  0  0  0  0  0
    1.5053   -0.5761   -1.1052 H   0  0  0  0  0  0  0  0  0  0  0  0
    1.5787    1.0840   -0.4483 H   0  0  0  0  0  0  0  0  0  0  0  0
   -0.2462    2.7758    1.9719 H   0  0  0  0  0  0  0  0  0  0  0  0
   -0.4125    2.5234    0.1585 H   0  0  0  0  0  0  0  0  0  0  0  0
   -2.1176    0.3880   -0.3866 H   0  0  0  0  0  0  0  0  0  0  0  0
   -2.6836    1.9326    3.1384 H   0  0  0  0  0  0  0  0  0  0  0  0
   -3.2285    0.3415    2.6124 H   0  0  0  0  0  0  0  0  0  0  0  0
   -1.2978    0.1329    4.5184 H   0  0  0  0  0  0  0  0  0  0  0  0
    0.7824   -0.3395    3.0390 H   0  0  0  0  0  0  0  0  0  0  0  0
  1  2  1  0  0  0  0
  1 10  1  0  0  0  0
  3  2  1  6  0  0  0
  3  9  1  0  0  0  0
  4  5  1  0  0  0  0
  4  3  1  0  0  0  0
  4 13  1  0  0  0  0
  5  6  1  6  0  0  0
  5  3  1  0  0  0  0
  5  7  1  0  0  0  0
  7 16  1  0  0  0  0
  7  8  1  0  0  0  0
  8 18  1  0  0  0  0
  9 19  1  0  0  0  0
  9  8  2  0  0  0  0
 11  1  1  0  0  0  0
 12  1  1  0  0  0  0
 14  4  1  0  0  0  0
 15  6  1  0  0  0  0
 17  7  1  0  0  0  0
M TOR 0 0 1 2 3
M TOR 1 0 1 2 4
M TOR 2 0 1 2 8
M TOR 3 1 2 3 4
M TOR 4 1 2 3 12
M TOR 5 1 2 3 13
M TOR 6 1 2 4 5
M TOR 7 1 2 4 6
M TOR 8 1 2 8 7
M TOR 9 1 2 8 18
M TOR 10 2 1 0 9
M TOR 11 2 1 0 10
M TOR 12 2 1 0 11
M TOR 13 2 3 4 5
M TOR 14 2 3 4 6
M TOR 15 2 4 3 12
M TOR 16 2 4 3 13
M TOR 17 2 4 5 14
M TOR 18 2 4 6 7
M TOR 19 2 4 6 15
M TOR 20 2 4 6 16
M TOR 21 2 8 7 6
M TOR 22 2 8 7 17
M TOR 23 3 2 8 7
M TOR 24 3 2 8 18
M TOR 25 3 4 2 8
M TOR 26 3 4 5 14
M TOR 27 3 4 6 7
M TOR 28 3 4 6 15
M TOR 29 3 4 6 16
M TOR 30 4 2 8 7
M TOR 31 4 2 8 18
M TOR 32 4 6 7 8
M TOR 33 4 6 7 17
M TOR 34 5 4 2 8
M TOR 35 5 4 3 12
M TOR 36 5 4 3 13
M TOR 37 5 4 6 7
M TOR 38 5 4 6 15
M TOR 39 5 4 6 16
M TOR 40 6 4 2 8
M TOR 41 6 4 3 12
M TOR 42 6 4 3 13
M TOR 43 6 4 5 14
M TOR 44 6 7 8 18
M TOR 45 8 2 3 12
M TOR 46 8 2 3 13
M TOR 47 8 7 6 15
M TOR 48 8 7 6 16
M  END
$$$$
