gdb 3887	3.1272134	1.295362	1.0231365	4.0663	76.09	-0.2607	0.01434	0.27504	1203.5076	0.156922	-422.594355	-422.585912	-422.584968	-422.627418	32.075
 OpenBabel02181911413D

 19 20  0  0  1  0  0  0  0  0999 V2000
   -0.3298    2.3852    0.9290 C   0  0  0  0  0  0  0  0  0  0  0  0
   -0.8096    1.1938    0.1053 C   0  0  2  0  0  0  0  0  0  0  0  0
   -2.2227    0.6647    0.3938 C   0  0  0  0  0  0  0  0  0  0  0  0
   -2.0886   -0.8048    0.0368 C   0  0  0  0  0  0  0  0  0  0  0  0
   -3.1011   -1.8637    0.3035 C   0  0  0  0  0  0  0  0  0  0  0  0
   -2.7694   -1.4642   -1.1269 C   0  0  0  0  0  0  0  0  0  0  0  0
   -0.7261   -1.1647    0.2613 O   0  0  0  0  0  0  0  0  0  0  0  0
    0.0574   -0.0513    0.3110 C   0  0  0  0  0  0  0  0  0  0  0  0
    1.2395   -0.1073    0.4896 O   0  0  0  0  0  0  0  0  0  0  0  0
   -0.4468    2.1918    2.0003 H   0  0  0  0  0  0  0  0  0  0  0  0
    0.7294    2.5719    0.7359 H   0  0  0  0  0  0  0  0  0  0  0  0
   -0.8965    3.2874    0.6817 H   0  0  0  0  0  0  0  0  0  0  0  0
   -0.7241    1.4347   -0.9638 H   0  0  0  0  0  0  0  0  0  0  0  0
   -2.4539    0.7784    1.4601 H   0  0  0  0  0  0  0  0  0  0  0  0
   -3.0072    1.1637   -0.1786 H   0  0  0  0  0  0  0  0  0  0  0  0
   -2.7328   -2.8225    0.6499 H   0  0  0  0  0  0  0  0  0  0  0  0
   -4.0561   -1.5631    0.7217 H   0  0  0  0  0  0  0  0  0  0  0  0
   -2.1819   -2.1629   -1.7114 H   0  0  0  0  0  0  0  0  0  0  0  0
   -3.4991   -0.8923   -1.6904 H   0  0  0  0  0  0  0  0  0  0  0  0
  1 10  1  0  0  0  0
  2 13  1  6  0  0  0
  2  8  1  0  0  0  0
  2  3  1  0  0  0  0
  2  1  1  0  0  0  0
  3 14  1  0  0  0  0
  4  7  1  0  0  0  0
  4  5  1  0  0  0  0
  4  3  1  0  0  0  0
  5 16  1  0  0  0  0
  5 17  1  0  0  0  0
  6  4  1  0  0  0  0
  6  5  1  0  0  0  0
  7  8  1  0  0  0  0
  8  9  2  0  0  0  0
 11  1  1  0  0  0  0
 12  1  1  0  0  0  0
 15  3  1  0  0  0  0
 18  6  1  0  0  0  0
 19  6  1  0  0  0  0
M TOR 0 0 1 2 3
M TOR 1 0 1 2 13
M TOR 2 0 1 2 14
M TOR 3 0 1 7 6
M TOR 4 0 1 7 8
M TOR 5 1 2 3 4
M TOR 6 1 2 3 5
M TOR 7 1 2 3 6
M TOR 8 1 7 6 3
M TOR 9 2 1 0 9
M TOR 10 2 1 0 10
M TOR 11 2 1 0 11
M TOR 12 2 1 7 6
M TOR 13 2 1 7 8
M TOR 14 2 3 4 5
M TOR 15 2 3 4 15
M TOR 16 2 3 4 16
M TOR 17 2 3 5 17
M TOR 18 2 3 5 18
M TOR 19 2 3 6 7
M TOR 20 3 2 1 7
M TOR 21 3 2 1 12
M TOR 22 3 4 5 17
M TOR 23 3 4 5 18
M TOR 24 3 5 4 15
M TOR 25 3 5 4 16
M TOR 26 3 6 7 8
M TOR 27 4 3 2 13
M TOR 28 4 3 2 14
M TOR 29 4 3 6 7
M TOR 30 4 5 3 6
M TOR 31 5 3 2 13
M TOR 32 5 3 2 14
M TOR 33 5 3 6 7
M TOR 34 6 3 2 13
M TOR 35 6 3 2 14
M TOR 36 6 3 4 15
M TOR 37 6 3 4 16
M TOR 38 6 3 5 17
M TOR 39 6 3 5 18
M TOR 40 6 7 1 12
M TOR 41 7 1 0 9
M TOR 42 7 1 0 10
M TOR 43 7 1 0 11
M TOR 44 7 1 2 13
M TOR 45 7 1 2 14
M TOR 46 8 7 1 12
M  END
$$$$
