gdb 5834	2.7168198	1.0867236	1.0321109	2.1912	78.28	-0.25103	0.02216	0.27319	1290.7011	0.153808	-422.505562	-422.495568	-422.494624	-422.540751	36.108
 OpenBabel02181911423D

 19 19  0  0  1  0  0  0  0  0999 V2000
    1.5340    1.5433   -0.1531 C   0  0  0  0  0  0  0  0  0  0  0  0
    1.2479    0.0379   -0.1564 C   0  0  0  0  0  0  0  0  0  0  0  0
    2.0122   -0.6778   -1.2529 C   0  0  2  0  0  0  0  0  0  0  0  0
    1.6609   -0.2198   -2.5801 O   0  0  0  0  0  0  0  0  0  0  0  0
    1.3114   -1.5428   -3.0154 C   0  0  0  0  0  0  0  0  0  0  0  0
    1.5771   -2.1461   -1.6159 C   0  0  2  0  0  0  0  0  0  0  0  0
    0.3601   -2.5874   -1.0425 O   0  0  0  0  0  0  0  0  0  0  0  0
    2.6210   -3.1532   -1.5023 C   0  0  0  0  0  0  0  0  0  0  0  0
    3.4811   -3.9823   -1.3645 C   0  0  0  0  0  0  0  0  0  0  0  0
    0.9476    2.0516    0.6178 H   0  0  0  0  0  0  0  0  0  0  0  0
    2.5928    1.7482    0.0401 H   0  0  0  0  0  0  0  0  0  0  0  0
    1.2786    1.9808   -1.1221 H   0  0  0  0  0  0  0  0  0  0  0  0
    1.5310   -0.4049    0.8082 H   0  0  0  0  0  0  0  0  0  0  0  0
    0.1789   -0.1503   -0.2934 H   0  0  0  0  0  0  0  0  0  0  0  0
    3.0960   -0.5926   -1.0951 H   0  0  0  0  0  0  0  0  0  0  0  0
    0.2614   -1.6264   -3.3160 H   0  0  0  0  0  0  0  0  0  0  0  0
    1.9647   -1.9092   -3.8143 H   0  0  0  0  0  0  0  0  0  0  0  0
    0.5646   -3.0362   -0.2149 H   0  0  0  0  0  0  0  0  0  0  0  0
    4.2409   -4.7172   -1.2585 H   0  0  0  0  0  0  0  0  0  0  0  0
  1 11  1  0  0  0  0
  1 10  1  0  0  0  0
  2  1  1  0  0  0  0
  2 13  1  0  0  0  0
  3 15  1  1  0  0  0
  3  2  1  0  0  0  0
  4  3  1  0  0  0  0
  5  4  1  0  0  0  0
  5  6  1  0  0  0  0
  6  8  1  1  0  0  0
  6  3  1  0  0  0  0
  6  7  1  0  0  0  0
  7 18  1  0  0  0  0
  8  9  3  0  0  0  0
  9 19  1  0  0  0  0
 12  1  1  0  0  0  0
 14  2  1  0  0  0  0
 16  5  1  0  0  0  0
 17  5  1  0  0  0  0
M TOR 0 0 1 2 3
M TOR 1 0 1 2 5
M TOR 2 0 1 2 14
M TOR 3 1 2 3 4
M TOR 4 1 2 5 4
M TOR 5 1 2 5 6
M TOR 6 1 2 5 7
M TOR 7 2 1 0 9
M TOR 8 2 1 0 10
M TOR 9 2 1 0 11
M TOR 10 2 3 4 5
M TOR 11 2 3 4 15
M TOR 12 2 3 4 16
M TOR 13 2 5 4 15
M TOR 14 2 5 4 16
M TOR 15 2 5 6 17
M TOR 16 2 5 7 8
M TOR 17 3 2 1 12
M TOR 18 3 2 1 13
M TOR 19 3 2 5 6
M TOR 20 3 2 5 7
M TOR 21 3 4 5 6
M TOR 22 3 4 5 7
M TOR 23 4 3 2 14
M TOR 24 4 5 2 14
M TOR 25 4 5 6 17
M TOR 26 4 5 7 8
M TOR 27 5 2 1 12
M TOR 28 5 2 1 13
M TOR 29 5 7 8 18
M TOR 30 6 5 2 14
M TOR 31 6 5 4 15
M TOR 32 6 5 4 16
M TOR 33 6 5 7 8
M TOR 34 7 5 2 14
M TOR 35 7 5 4 15
M TOR 36 7 5 4 16
M TOR 37 7 5 6 17
M  END
$$$$
