
     RDKit          3D

 19 19  0  0  0  0  0  0  0  0999 V2000
   -4.1455   -0.7923    1.6256 C   0  0  0  0  0  0  0  0  0  0  0  0
   -3.2208    0.3630    1.2136 C   0  0  0  0  0  0  0  0  0  0  0  0
   -4.0408    1.5819    0.8331 C   0  0  0  0  0  0  0  0  0  0  0  0
   -3.8770    2.6915    1.2699 O   0  0  0  0  0  0  0  0  0  0  0  0
   -2.3275   -0.0174    0.0232 C   0  0  0  0  0  0  0  0  0  0  0  0
   -1.2327    1.0142   -0.4042 C   0  0  0  0  0  0  0  0  0  0  0  0
   -0.2062   -0.1268   -0.3468 C   0  0  0  0  0  0  0  0  0  0  0  0
    0.9251   -0.2455   -0.7138 O   0  0  0  0  0  0  0  0  0  0  0  0
   -1.2227   -1.0927    0.2873 C   0  0  0  0  0  0  0  0  0  0  0  0
   -4.7359   -0.5338    2.5096 H   0  0  0  0  0  0  0  0  0  0  0  0
   -4.8404   -1.0480    0.8176 H   0  0  0  0  0  0  0  0  0  0  0  0
   -3.5628   -1.6882    1.8588 H   0  0  0  0  0  0  0  0  0  0  0  0
   -2.5840    0.6594    2.0556 H   0  0  0  0  0  0  0  0  0  0  0  0
   -4.8321    1.3759    0.0718 H   0  0  0  0  0  0  0  0  0  0  0  0
   -2.9521   -0.3036   -0.8294 H   0  0  0  0  0  0  0  0  0  0  0  0
   -1.3424    1.5069   -1.3735 H   0  0  0  0  0  0  0  0  0  0  0  0
   -1.0424    1.7841    0.3518 H   0  0  0  0  0  0  0  0  0  0  0  0
   -1.3237   -2.0664   -0.1983 H   0  0  0  0  0  0  0  0  0  0  0  0
   -1.0171   -1.2554    1.3517 H   0  0  0  0  0  0  0  0  0  0  0  0
  1  2  1  0
  2  3  1  0
  3  4  2  0
  2  5  1  0
  5  6  1  0
  6  7  1  0
  7  8  2  0
  7  9  1  0
  9  5  1  0
  1 10  1  0
  1 11  1  0
  1 12  1  0
  2 13  1  0
  3 14  1  0
  5 15  1  0
  6 16  1  0
  6 17  1  0
  9 18  1  0
  9 19  1  0
M  END
$$$$
