gdb 3248	2.3954307	1.9684574	1.5197937	2.2001	73.79	-0.2421	0.06587	0.30797	953.1596	0.157586	-422.519854	-422.512258	-422.511314	-422.551378	30.577
 OpenBabel02181911413D

 19 21  0  0  1  0  0  0  0  0999 V2000
    1.5653   -0.7283   -3.1413 C   0  0  0  0  0  0  0  0  0  0  0  0
    0.6855    0.1690   -2.3046 C   0  0  2  0  0  0  0  0  0  0  0  0
    0.8928    1.7064   -2.3745 C   0  0  0  0  0  0  0  0  0  0  0  0
   -0.6243    1.9064   -2.1870 C   0  0  2  0  0  0  0  0  0  0  0  0
   -1.0220    1.7187   -0.7996 O   0  0  0  0  0  0  0  0  0  0  0  0
   -1.0700    0.2805   -0.9775 C   0  0  2  0  0  0  0  0  0  0  0  0
    0.3623   -0.2752   -0.8324 C   0  0  2  0  0  0  0  0  0  0  0  0
    1.1228    0.2233    0.2297 O   0  0  0  0  0  0  0  0  0  0  0  0
   -0.8713    0.4043   -2.5087 C   0  0  2  0  0  0  0  0  0  0  0  0
    2.5949   -0.7167   -2.7642 H   0  0  0  0  0  0  0  0  0  0  0  0
    1.2154   -1.7667   -3.1176 H   0  0  0  0  0  0  0  0  0  0  0  0
    1.5908   -0.4063   -4.1885 H   0  0  0  0  0  0  0  0  0  0  0  0
    1.5603    2.1710   -1.6425 H   0  0  0  0  0  0  0  0  0  0  0  0
    1.1980    2.0084   -3.3826 H   0  0  0  0  0  0  0  0  0  0  0  0
   -1.1252    2.7664   -2.6345 H   0  0  0  0  0  0  0  0  0  0  0  0
   -1.9036   -0.1734   -0.4387 H   0  0  0  0  0  0  0  0  0  0  0  0
    0.3607   -1.3702   -0.7737 H   0  0  0  0  0  0  0  0  0  0  0  0
    0.7917    1.1198    0.3824 H   0  0  0  0  0  0  0  0  0  0  0  0
   -1.5039   -0.0058   -3.2906 H   0  0  0  0  0  0  0  0  0  0  0  0
  1 11  1  0  0  0  0
  1 10  1  0  0  0  0
  2  1  1  6  0  0  0
  2  7  1  0  0  0  0
  3  2  1  0  0  0  0
  3  4  1  0  0  0  0
  3 13  1  0  0  0  0
  4 15  1  6  0  0  0
  4  5  1  0  0  0  0
  6  7  1  0  0  0  0
  6  5  1  0  0  0  0
  6 16  1  1  0  0  0
  7 17  1  1  0  0  0
  7  8  1  0  0  0  0
  8 18  1  0  0  0  0
  9 19  1  6  0  0  0
  9  2  1  0  0  0  0
  9  4  1  0  0  0  0
  9  6  1  0  0  0  0
 12  1  1  0  0  0  0
 14  3  1  0  0  0  0
M TOR 0 0 1 2 3
M TOR 1 0 1 2 12
M TOR 2 0 1 2 13
M TOR 3 0 1 6 5
M TOR 4 0 1 6 7
M TOR 5 0 1 6 16
M TOR 6 0 1 8 3
M TOR 7 0 1 8 5
M TOR 8 0 1 8 18
M TOR 9 1 2 3 4
M TOR 10 1 2 3 8
M TOR 11 1 2 3 14
M TOR 12 1 6 5 4
M TOR 13 1 6 5 8
M TOR 14 1 6 5 15
M TOR 15 1 6 7 17
M TOR 16 1 8 3 4
M TOR 17 1 8 3 14
M TOR 18 1 8 5 4
M TOR 19 1 8 5 15
M TOR 20 2 1 0 9
M TOR 21 2 1 0 10
M TOR 22 2 1 0 11
M TOR 23 2 1 6 5
M TOR 24 2 1 6 7
M TOR 25 2 1 6 16
M TOR 26 2 1 8 5
M TOR 27 2 1 8 18
M TOR 28 2 3 4 5
M TOR 29 2 3 8 5
M TOR 30 2 3 8 18
M TOR 31 3 2 1 6
M TOR 32 3 4 5 6
M TOR 33 3 4 5 8
M TOR 34 3 4 5 15
M TOR 35 3 8 1 6
M TOR 36 3 8 5 6
M TOR 37 3 8 5 15
M TOR 38 4 3 2 12
M TOR 39 4 3 2 13
M TOR 40 4 3 8 18
M TOR 41 4 5 6 7
M TOR 42 4 5 6 16
M TOR 43 4 5 8 18
M TOR 44 5 4 3 14
M TOR 45 5 6 7 17
M TOR 46 5 8 3 14
M TOR 47 6 1 0 9
M TOR 48 6 1 0 10
M TOR 49 6 1 0 11
M TOR 50 6 1 2 12
M TOR 51 6 1 2 13
M TOR 52 6 1 8 18
M TOR 53 6 5 8 18
M TOR 54 7 6 1 8
M TOR 55 7 6 5 8
M TOR 56 7 6 5 15
M TOR 57 8 1 0 9
M TOR 58 8 1 0 10
M TOR 59 8 1 0 11
M TOR 60 8 1 2 12
M TOR 61 8 1 2 13
M TOR 62 8 1 6 16
M TOR 63 8 3 2 12
M TOR 64 8 3 2 13
M TOR 65 8 5 6 16
M  END
$$$$
