gdb 1601	3.2364053	1.4325673	1.2648148	2.3416	76.2	-0.26103	-0.03569	0.22533999999999998	1047.2262	0.158341	-422.57061	-422.562963	-422.562019	-422.602398	30.684
 OpenBabel02181911403D

 19 20  0  0  1  0  0  0  0  0999 V2000
    0.9742    2.4471   -0.0193 O   0  0  0  0  0  0  0  0  0  0  0  0
    1.1784    1.1782   -0.5484 C   0  0  2  0  0  0  0  0  0  0  0  0
    1.7626    0.2878    0.5143 C   0  0  0  0  0  0  0  0  0  0  0  0
    1.9816    0.7090    1.6295 O   0  0  0  0  0  0  0  0  0  0  0  0
    1.8934    1.0810   -1.9531 C   0  0  1  0  0  0  0  0  0  0  0  0
    1.0757   -0.2175   -2.1935 C   0  0  0  0  0  0  0  0  0  0  0  0
   -0.0067    0.5300   -1.3676 C   0  0  2  0  0  0  0  0  0  0  0  0
   -0.3652    1.7000   -2.3066 C   0  0  0  0  0  0  0  0  0  0  0  0
    1.0765    2.1180   -2.7511 C   0  0  0  0  0  0  0  0  0  0  0  0
    1.2702    2.3949    0.9047 H   0  0  0  0  0  0  0  0  0  0  0  0
    1.9873   -0.7611    0.2535 H   0  0  0  0  0  0  0  0  0  0  0  0
    2.9799    1.1154   -2.0390 H   0  0  0  0  0  0  0  0  0  0  0  0
    0.8227   -0.4477   -3.2312 H   0  0  0  0  0  0  0  0  0  0  0  0
    1.4814   -1.1094   -1.7163 H   0  0  0  0  0  0  0  0  0  0  0  0
   -0.8248    0.0121   -0.8662 H   0  0  0  0  0  0  0  0  0  0  0  0
   -0.9884    1.3633   -3.1397 H   0  0  0  0  0  0  0  0  0  0  0  0
   -0.8850    2.5019   -1.7809 H   0  0  0  0  0  0  0  0  0  0  0  0
    1.2404    2.0091   -3.8268 H   0  0  0  0  0  0  0  0  0  0  0  0
    1.3189    3.1409   -2.4607 H   0  0  0  0  0  0  0  0  0  0  0  0
  1 10  1  0  0  0  0
  2  1  1  1  0  0  0
  2  3  1  0  0  0  0
  3  4  2  0  0  0  0
  5 12  1  6  0  0  0
  5  2  1  0  0  0  0
  6  5  1  0  0  0  0
  6 14  1  0  0  0  0
  6  7  1  0  0  0  0
  7 15  1  1  0  0  0
  7  2  1  0  0  0  0
  8 17  1  0  0  0  0
  8  7  1  0  0  0  0
  9 19  1  0  0  0  0
  9  8  1  0  0  0  0
  9  5  1  0  0  0  0
 11  3  1  0  0  0  0
 13  6  1  0  0  0  0
 16  8  1  0  0  0  0
 18  9  1  0  0  0  0
M TOR 0 0 1 2 3
M TOR 1 0 1 2 10
M TOR 2 0 1 4 5
M TOR 3 0 1 4 8
M TOR 4 0 1 4 11
M TOR 5 0 1 6 5
M TOR 6 0 1 6 7
M TOR 7 0 1 6 14
M TOR 8 1 4 5 6
M TOR 9 1 4 5 12
M TOR 10 1 4 5 13
M TOR 11 1 4 8 7
M TOR 12 1 4 8 17
M TOR 13 1 4 8 18
M TOR 14 1 6 5 12
M TOR 15 1 6 5 13
M TOR 16 1 6 7 8
M TOR 17 1 6 7 15
M TOR 18 1 6 7 16
M TOR 19 2 1 0 9
M TOR 20 2 1 4 5
M TOR 21 2 1 4 8
M TOR 22 2 1 4 11
M TOR 23 2 1 6 5
M TOR 24 2 1 6 7
M TOR 25 2 1 6 14
M TOR 26 3 2 1 4
M TOR 27 3 2 1 6
M TOR 28 4 1 0 9
M TOR 29 4 1 2 10
M TOR 30 4 1 6 7
M TOR 31 4 1 6 14
M TOR 32 4 5 6 7
M TOR 33 4 5 6 14
M TOR 34 4 8 7 6
M TOR 35 4 8 7 15
M TOR 36 4 8 7 16
M TOR 37 5 4 8 7
M TOR 38 5 4 8 17
M TOR 39 5 4 8 18
M TOR 40 5 6 7 8
M TOR 41 5 6 7 15
M TOR 42 5 6 7 16
M TOR 43 6 1 0 9
M TOR 44 6 1 2 10
M TOR 45 6 1 4 8
M TOR 46 6 1 4 11
M TOR 47 6 5 4 8
M TOR 48 6 5 4 11
M TOR 49 6 7 8 17
M TOR 50 6 7 8 18
M TOR 51 7 6 5 12
M TOR 52 7 6 5 13
M TOR 53 7 8 4 11
M TOR 54 8 4 5 12
M TOR 55 8 4 5 13
M TOR 56 8 7 6 14
M  END
$$$$
