gdb 4620	4.7879154	0.5540892	0.5155385	2.4173	83.84	-0.24852	0.0235	0.27202	2154.7032	0.154366	-422.501115	-422.490611	-422.489667	-422.539092	35.887
 OpenBabel02181911413D

 19 19  0  0  1  0  0  0  0  0999 V2000
   -2.9339    0.7124    6.8722 C   0  0  0  0  0  0  0  0  0  0  0  0
   -1.9348   -0.3239    6.3251 C   0  0  0  0  0  0  0  0  0  0  0  0
   -1.6305   -0.1371    4.9111 C   0  0  0  0  0  0  0  0  0  0  0  0
   -1.3986    0.0303    3.7404 C   0  0  0  0  0  0  0  0  0  0  0  0
   -1.1002    0.2493    2.3524 C   0  0  2  0  0  0  0  0  0  0  0  0
   -2.1207   -0.0712    1.3849 O   0  0  0  0  0  0  0  0  0  0  0  0
   -0.9420   -0.8666    1.3911 C   0  0  1  0  0  0  0  0  0  0  0  0
   -0.0348   -0.7440    0.1870 C   0  0  0  0  0  0  0  0  0  0  0  0
    1.2311   -1.3359    0.4201 O   0  0  0  0  0  0  0  0  0  0  0  0
   -3.1277    0.5292    7.9331 H   0  0  0  0  0  0  0  0  0  0  0  0
   -2.5410    1.7267    6.7628 H   0  0  0  0  0  0  0  0  0  0  0  0
   -3.8831    0.6582    6.3329 H   0  0  0  0  0  0  0  0  0  0  0  0
   -1.0023   -0.2771    6.9023 H   0  0  0  0  0  0  0  0  0  0  0  0
   -2.3320   -1.3355    6.4776 H   0  0  0  0  0  0  0  0  0  0  0  0
   -0.5741    1.1778    2.1259 H   0  0  0  0  0  0  0  0  0  0  0  0
   -1.0725   -1.8790    1.7747 H   0  0  0  0  0  0  0  0  0  0  0  0
   -0.4716   -1.2877   -0.6574 H   0  0  0  0  0  0  0  0  0  0  0  0
    0.0396    0.3142   -0.1068 H   0  0  0  0  0  0  0  0  0  0  0  0
    1.6486   -0.8627    1.1474 H   0  0  0  0  0  0  0  0  0  0  0  0
  1 10  1  0  0  0  0
  2 14  1  0  0  0  0
  2  1  1  0  0  0  0
  2 13  1  0  0  0  0
  3  2  1  0  0  0  0
  4  3  3  0  0  0  0
  5 15  1  6  0  0  0
  5  4  1  0  0  0  0
  6  7  1  0  0  0  0
  6  5  1  0  0  0  0
  7 16  1  1  0  0  0
  7  5  1  0  0  0  0
  8  9  1  0  0  0  0
  8  7  1  0  0  0  0
  9 19  1  0  0  0  0
 11  1  1  0  0  0  0
 12  1  1  0  0  0  0
 17  8  1  0  0  0  0
 18  8  1  0  0  0  0
M TOR 0 0 1 2 3
M TOR 1 1 2 3 4
M TOR 2 2 1 0 9
M TOR 3 2 1 0 10
M TOR 4 2 1 0 11
M TOR 5 2 3 4 5
M TOR 6 2 3 4 6
M TOR 7 2 3 4 14
M TOR 8 3 2 1 12
M TOR 9 3 2 1 13
M TOR 10 3 4 5 6
M TOR 11 3 4 6 7
M TOR 12 3 4 6 15
M TOR 13 4 5 6 7
M TOR 14 4 5 6 15
M TOR 15 4 6 7 8
M TOR 16 4 6 7 16
M TOR 17 4 6 7 17
M TOR 18 5 6 4 14
M TOR 19 5 6 7 8
M TOR 20 5 6 7 16
M TOR 21 5 6 7 17
M TOR 22 6 7 8 18
M TOR 23 7 6 4 14
M TOR 24 8 7 6 15
M  END
$$$$
