
     RDKit          3D

 19 19  0  0  0  0  0  0  0  0999 V2000
   -1.0430   -3.2446    1.2126 C   0  0  0  0  0  0  0  0  0  0  0  0
   -0.7254   -1.7505    1.3265 C   0  0  0  0  0  0  0  0  0  0  0  0
    0.6055   -1.5251    1.7508 O   0  0  0  0  0  0  0  0  0  0  0  0
   -0.9964   -0.9572    0.0172 C   0  0  0  0  0  0  0  0  0  0  0  0
   -2.3918   -0.9997   -0.5482 C   0  0  0  0  0  0  0  0  0  0  0  0
   -2.4234   -1.3771   -1.8282 C   0  0  0  0  0  0  0  0  0  0  0  0
   -1.0512   -1.6661   -2.3776 C   0  0  0  0  0  0  0  0  0  0  0  0
   -0.1498   -1.4820   -1.1519 C   0  0  0  0  0  0  0  0  0  0  0  0
    1.0286   -1.7486   -1.0927 O   0  0  0  0  0  0  0  0  0  0  0  0
   -0.8434   -3.7321    2.1701 H   0  0  0  0  0  0  0  0  0  0  0  0
   -2.0915   -3.4113    0.9456 H   0  0  0  0  0  0  0  0  0  0  0  0
   -0.4147   -3.7243    0.4544 H   0  0  0  0  0  0  0  0  0  0  0  0
   -1.3627   -1.3168    2.1076 H   0  0  0  0  0  0  0  0  0  0  0  0
    1.1743   -1.7134    0.9897 H   0  0  0  0  0  0  0  0  0  0  0  0
   -0.6779    0.0738    0.2305 H   0  0  0  0  0  0  0  0  0  0  0  0
   -3.2621   -0.7348    0.0420 H   0  0  0  0  0  0  0  0  0  0  0  0
   -3.3206   -1.4615   -2.4301 H   0  0  0  0  0  0  0  0  0  0  0  0
   -0.9302   -2.6739   -2.7932 H   0  0  0  0  0  0  0  0  0  0  0  0
   -0.7448   -0.9713   -3.1718 H   0  0  0  0  0  0  0  0  0  0  0  0
  1  2  1  0
  2  3  1  0
  2  4  1  0
  4  5  1  0
  5  6  2  0
  6  7  1  0
  7  8  1  0
  8  9  2  0
  8  4  1  0
  1 10  1  0
  1 11  1  0
  1 12  1  0
  2 13  1  0
  3 14  1  0
  4 15  1  0
  5 16  1  0
  6 17  1  0
  7 18  1  0
  7 19  1  0
M  END
$$$$
