
     RDKit          3D

 19 20  0  0  0  0  0  0  0  0999 V2000
    1.0617   -0.7401   -0.9234 C   0  0  0  0  0  0  0  0  0  0  0  0
    0.9349    0.2547    0.2359 C   0  0  0  0  0  0  0  0  0  0  0  0
    1.4017   -0.3447    1.5969 C   0  0  0  0  0  0  0  0  0  0  0  0
    2.7991    0.1916    1.8156 C   0  0  0  0  0  0  0  0  0  0  0  0
    3.6671    0.0326    0.6782 O   0  0  0  0  0  0  0  0  0  0  0  0
    3.0494    1.3033    0.8918 C   0  0  0  0  0  0  0  0  0  0  0  0
    1.8114    1.5202    0.0247 C   0  0  0  0  0  0  0  0  0  0  0  0
    1.1376    2.8233    0.4166 C   0  0  0  0  0  0  0  0  0  0  0  0
    0.0103    2.9307    0.8256 O   0  0  0  0  0  0  0  0  0  0  0  0
    0.4351   -1.6207   -0.7463 H   0  0  0  0  0  0  0  0  0  0  0  0
    0.7365   -0.2873   -1.8666 H   0  0  0  0  0  0  0  0  0  0  0  0
    2.0961   -1.0734   -1.0399 H   0  0  0  0  0  0  0  0  0  0  0  0
   -0.1067    0.5739    0.3204 H   0  0  0  0  0  0  0  0  0  0  0  0
    0.7625   -0.0029    2.4191 H   0  0  0  0  0  0  0  0  0  0  0  0
    1.3736   -1.4391    1.5930 H   0  0  0  0  0  0  0  0  0  0  0  0
    3.2895    0.1103    2.7824 H   0  0  0  0  0  0  0  0  0  0  0  0
    3.7283    2.1259    1.1072 H   0  0  0  0  0  0  0  0  0  0  0  0
    2.1163    1.6394   -1.0258 H   0  0  0  0  0  0  0  0  0  0  0  0
    1.7843    3.7236    0.2955 H   0  0  0  0  0  0  0  0  0  0  0  0
  1  2  1  0
  2  3  1  0
  3  4  1  0
  4  5  1  0
  5  6  1  0
  6  7  1  0
  7  8  1  0
  8  9  2  0
  7  2  1  0
  6  4  1  0
  1 10  1  0
  1 11  1  0
  1 12  1  0
  2 13  1  0
  3 14  1  0
  3 15  1  0
  4 16  1  0
  6 17  1  0
  7 18  1  0
  8 19  1  0
M  END
$$$$
