
     RDKit          3D

 19 21  0  0  0  0  0  0  0  0999 V2000
   -0.0047    1.4515    0.0133 C   0  0  0  0  0  0  0  0  0  0  0  0
    1.3393    0.7330   -0.0269 C   0  0  0  0  0  0  0  0  0  0  0  0
    2.1306    0.5075   -1.1561 O   0  0  0  0  0  0  0  0  0  0  0  0
    2.3759   -0.9122   -1.2428 C   0  0  0  0  0  0  0  0  0  0  0  0
    1.0907   -1.7598   -0.9776 C   0  0  0  0  0  0  0  0  0  0  0  0
    0.7775   -2.0470    0.5303 C   0  0  0  0  0  0  0  0  0  0  0  0
   -0.1065   -0.9899    0.9882 O   0  0  0  0  0  0  0  0  0  0  0  0
    0.0581   -0.0388   -0.0354 C   0  0  0  0  0  0  0  0  0  0  0  0
   -0.0863   -0.8315   -1.3220 C   0  0  0  0  0  0  0  0  0  0  0  0
   -0.2123    1.9546    0.9513 H   0  0  0  0  0  0  0  0  0  0  0  0
   -0.3987    1.9499   -0.8663 H   0  0  0  0  0  0  0  0  0  0  0  0
    1.8864    0.7576    0.9165 H   0  0  0  0  0  0  0  0  0  0  0  0
    2.7382   -1.0814   -2.2611 H   0  0  0  0  0  0  0  0  0  0  0  0
    3.1773   -1.1926   -0.5419 H   0  0  0  0  0  0  0  0  0  0  0  0
    1.1508   -2.6907   -1.5467 H   0  0  0  0  0  0  0  0  0  0  0  0
    0.2545   -2.9991    0.6621 H   0  0  0  0  0  0  0  0  0  0  0  0
    1.6890   -2.0594    1.1420 H   0  0  0  0  0  0  0  0  0  0  0  0
    0.0670   -0.2562   -2.2340 H   0  0  0  0  0  0  0  0  0  0  0  0
   -1.0505   -1.3445   -1.3569 H   0  0  0  0  0  0  0  0  0  0  0  0
  1  2  1  0
  2  3  1  0
  3  4  1  0
  4  5  1  0
  5  6  1  0
  6  7  1  0
  7  8  1  0
  8  9  1  0
  8  1  1  0
  8  2  1  0
  9  5  1  0
  1 10  1  0
  1 11  1  0
  2 12  1  0
  4 13  1  0
  4 14  1  0
  5 15  1  0
  6 16  1  0
  6 17  1  0
  9 18  1  0
  9 19  1  0
M  END
$$$$
