gdb 2835	3.1103741	1.4049688	1.1631183	0.5188	75.25	-0.25364	0.06138	0.31501999999999997	1091.2431	0.155745	-422.494341	-422.485712	-422.484768	-422.527019	33.261
 OpenBabel02181911413D

 19 21  0  0  1  0  0  0  0  0999 V2000
    0.9281    3.9172    1.2292 C   0  0  0  0  0  0  0  0  0  0  0  0
   -0.4052    3.2170    1.1734 C   0  0  2  0  0  0  0  0  0  0  0  0
   -1.7597    3.8155    1.6151 C   0  0  1  0  0  0  0  0  0  0  0  0
   -2.2518    4.9657    0.9748 O   0  0  0  0  0  0  0  0  0  0  0  0
   -2.1418    2.4167    1.1103 C   0  0  2  0  0  0  0  0  0  0  0  0
   -0.8349    1.7959    1.7181 C   0  0  1  0  0  0  0  0  0  0  0  0
   -0.5238    1.0893    0.3831 C   0  0  2  0  0  0  0  0  0  0  0  0
    0.7801    0.6891    0.0569 O   0  0  0  0  0  0  0  0  0  0  0  0
   -1.0822    2.4626   -0.0506 C   0  0  2  0  0  0  0  0  0  0  0  0
    1.2407    4.0815    2.2663 H   0  0  0  0  0  0  0  0  0  0  0  0
    1.7309    3.3721    0.7205 H   0  0  0  0  0  0  0  0  0  0  0  0
    0.8515    4.8992    0.7489 H   0  0  0  0  0  0  0  0  0  0  0  0
   -1.8793    3.9939    2.6891 H   0  0  0  0  0  0  0  0  0  0  0  0
   -2.2202    4.8185    0.0229 H   0  0  0  0  0  0  0  0  0  0  0  0
   -3.1147    1.9263    1.0663 H   0  0  0  0  0  0  0  0  0  0  0  0
   -0.7167    1.4384    2.7427 H   0  0  0  0  0  0  0  0  0  0  0  0
   -1.1649    0.2344    0.1450 H   0  0  0  0  0  0  0  0  0  0  0  0
    1.3934    1.3751    0.3366 H   0  0  0  0  0  0  0  0  0  0  0  0
   -1.2305    2.8494   -1.0614 H   0  0  0  0  0  0  0  0  0  0  0  0
  1 10  1  0  0  0  0
  2  1  1  1  0  0  0
  2  3  1  0  0  0  0
  2  6  1  0  0  0  0
  3 13  1  1  0  0  0
  4  3  1  0  0  0  0
  5 15  1  6  0  0  0
  5  3  1  0  0  0  0
  5  6  1  0  0  0  0
  6 16  1  1  0  0  0
  7 17  1  6  0  0  0
  7  6  1  0  0  0  0
  8 18  1  0  0  0  0
  8  7  1  0  0  0  0
  9 19  1  6  0  0  0
  9  7  1  0  0  0  0
  9  5  1  0  0  0  0
  9  2  1  0  0  0  0
 11  1  1  0  0  0  0
 12  1  1  0  0  0  0
 14  4  1  0  0  0  0
M TOR 0 0 1 2 3
M TOR 1 0 1 2 4
M TOR 2 0 1 2 12
M TOR 3 0 1 5 4
M TOR 4 0 1 5 6
M TOR 5 0 1 5 15
M TOR 6 0 1 8 4
M TOR 7 0 1 8 6
M TOR 8 0 1 8 18
M TOR 9 1 2 3 13
M TOR 10 1 2 4 5
M TOR 11 1 2 4 8
M TOR 12 1 2 4 14
M TOR 13 1 5 4 8
M TOR 14 1 5 4 14
M TOR 15 1 5 6 7
M TOR 16 1 5 6 8
M TOR 17 1 5 6 16
M TOR 18 1 8 4 14
M TOR 19 1 8 6 7
M TOR 20 1 8 6 16
M TOR 21 2 1 0 9
M TOR 22 2 1 0 10
M TOR 23 2 1 0 11
M TOR 24 2 1 5 6
M TOR 25 2 1 5 15
M TOR 26 2 1 8 6
M TOR 27 2 1 8 18
M TOR 28 2 4 5 6
M TOR 29 2 4 5 15
M TOR 30 2 4 8 6
M TOR 31 2 4 8 18
M TOR 32 3 2 1 5
M TOR 33 3 2 1 8
M TOR 34 3 2 4 5
M TOR 35 3 2 4 8
M TOR 36 3 2 4 14
M TOR 37 4 2 3 13
M TOR 38 4 5 6 7
M TOR 39 4 5 6 8
M TOR 40 4 5 6 16
M TOR 41 4 8 6 7
M TOR 42 4 8 6 16
M TOR 43 5 1 0 9
M TOR 44 5 1 0 10
M TOR 45 5 1 0 11
M TOR 46 5 1 2 12
M TOR 47 5 1 8 18
M TOR 48 5 4 2 12
M TOR 49 5 4 8 18
M TOR 50 5 6 7 17
M TOR 51 5 6 8 18
M TOR 52 6 5 4 14
M TOR 53 6 8 4 14
M TOR 54 7 6 5 15
M TOR 55 7 6 8 18
M TOR 56 8 1 0 9
M TOR 57 8 1 0 10
M TOR 58 8 1 0 11
M TOR 59 8 1 2 12
M TOR 60 8 1 5 15
M TOR 61 8 4 2 12
M TOR 62 8 4 5 15
M TOR 63 8 6 5 15
M TOR 64 8 6 7 17
M  END
$$$$
