gdb 1421	3.2984969	1.2842216	1.1910277	1.5563	75.77	-0.22392	0.05852	0.28244	1127.5866	0.153663	-422.47975	-422.470797	-422.469853	-422.512531	34.773
 OpenBabel02181911403D

 19 21  0  0  1  0  0  0  0  0999 V2000
   -0.2064   -0.1694    0.0677 C   0  0  0  0  0  0  0  0  0  0  0  0
    1.2868   -0.0061   -0.1088 C   0  0  2  0  0  0  0  0  0  0  0  0
    1.9989   -0.5912    0.9662 O   0  0  0  0  0  0  0  0  0  0  0  0
    2.0697    1.1987   -0.5510 C   0  0  2  0  0  0  0  0  0  0  0  0
    1.5380    1.9436   -1.8068 C   0  0  2  0  0  0  0  0  0  0  0  0
    0.3323    1.3306   -2.2972 O   0  0  0  0  0  0  0  0  0  0  0  0
    1.5995    0.7252   -2.6147 C   0  0  1  0  0  0  0  0  0  0  0  0
    1.9200    0.4453   -4.0444 C   0  0  0  0  0  0  0  0  0  0  0  0
    2.1119   -0.0960   -1.3858 C   0  0  2  0  0  0  0  0  0  0  0  0
   -0.5016    0.2581    1.0317 H   0  0  0  0  0  0  0  0  0  0  0  0
   -0.7707    0.3026   -0.7304 H   0  0  0  0  0  0  0  0  0  0  0  0
   -0.4563   -1.2390    0.0871 H   0  0  0  0  0  0  0  0  0  0  0  0
    1.7300   -1.5154    1.0150 H   0  0  0  0  0  0  0  0  0  0  0  0
    2.8569    1.5945    0.0773 H   0  0  0  0  0  0  0  0  0  0  0  0
    1.6969    2.9879   -2.0511 H   0  0  0  0  0  0  0  0  0  0  0  0
    1.4113   -0.4639   -4.3855 H   0  0  0  0  0  0  0  0  0  0  0  0
    1.5970    1.2777   -4.6751 H   0  0  0  0  0  0  0  0  0  0  0  0
    2.9967    0.2973   -4.1777 H   0  0  0  0  0  0  0  0  0  0  0  0
    2.9368   -0.7946   -1.4493 H   0  0  0  0  0  0  0  0  0  0  0  0
  1 12  1  0  0  0  0
  1 10  1  0  0  0  0
  2  1  1  0  0  0  0
  2  3  1  1  0  0  0
  3 13  1  0  0  0  0
  4  2  1  0  0  0  0
  4 14  1  1  0  0  0
  5 15  1  6  0  0  0
  5  4  1  0  0  0  0
  6  5  1  0  0  0  0
  7  8  1  6  0  0  0
  7  6  1  0  0  0  0
  7  5  1  0  0  0  0
  7  9  1  0  0  0  0
  9 19  1  6  0  0  0
  9  4  1  0  0  0  0
  9  2  1  0  0  0  0
 11  1  1  0  0  0  0
 16  8  1  0  0  0  0
 17  8  1  0  0  0  0
 18  8  1  0  0  0  0
M TOR 0 0 1 2 12
M TOR 1 0 1 3 4
M TOR 2 0 1 3 8
M TOR 3 0 1 3 13
M TOR 4 0 1 8 6
M TOR 5 0 1 8 18
M TOR 6 1 3 4 5
M TOR 7 1 3 4 6
M TOR 8 1 3 4 14
M TOR 9 1 3 8 6
M TOR 10 1 3 8 18
M TOR 11 1 8 3 4
M TOR 12 1 8 3 13
M TOR 13 1 8 6 4
M TOR 14 1 8 6 5
M TOR 15 1 8 6 7
M TOR 16 2 1 0 9
M TOR 17 2 1 0 10
M TOR 18 2 1 0 11
M TOR 19 2 1 3 4
M TOR 20 2 1 3 8
M TOR 21 2 1 3 13
M TOR 22 2 1 8 6
M TOR 23 2 1 8 18
M TOR 24 3 1 0 9
M TOR 25 3 1 0 10
M TOR 26 3 1 0 11
M TOR 27 3 1 2 12
M TOR 28 3 4 5 6
M TOR 29 3 4 6 7
M TOR 30 3 4 6 8
M TOR 31 3 8 6 5
M TOR 32 3 8 6 7
M TOR 33 4 3 8 18
M TOR 34 4 5 6 7
M TOR 35 4 5 6 8
M TOR 36 4 6 7 15
M TOR 37 4 6 7 16
M TOR 38 4 6 7 17
M TOR 39 4 6 8 18
M TOR 40 5 4 3 8
M TOR 41 5 4 3 13
M TOR 42 5 6 4 14
M TOR 43 5 6 7 15
M TOR 44 5 6 7 16
M TOR 45 5 6 7 17
M TOR 46 5 6 8 18
M TOR 47 6 4 3 13
M TOR 48 6 8 3 13
M TOR 49 7 6 4 14
M TOR 50 7 6 8 18
M TOR 51 8 1 0 9
M TOR 52 8 1 0 10
M TOR 53 8 1 0 11
M TOR 54 8 1 2 12
M TOR 55 8 3 4 14
M TOR 56 8 6 4 14
M TOR 57 8 6 7 15
M TOR 58 8 6 7 16
M TOR 59 8 6 7 17
M  END
$$$$
