
     RDKit          3D

 19 21  0  0  0  0  0  0  0  0999 V2000
    1.7367   -0.6686   -1.1707 C   0  0  0  0  0  0  0  0  0  0  0  0
    1.4307   -0.0601    0.1816 C   0  0  0  0  0  0  0  0  0  0  0  0
    2.0710    1.2696    0.5038 C   0  0  0  0  0  0  0  0  0  0  0  0
    1.5565    1.8023    1.7314 O   0  0  0  0  0  0  0  0  0  0  0  0
    2.0974    0.6779    2.4509 C   0  0  0  0  0  0  0  0  0  0  0  0
    2.8382    0.8435    3.7303 C   0  0  0  0  0  0  0  0  0  0  0  0
    1.4850    0.1379    3.6976 C   0  0  0  0  0  0  0  0  0  0  0  0
    2.5792    0.0199    1.1779 C   0  0  0  0  0  0  0  0  0  0  0  0
    3.7794   -0.6493    1.0488 O   0  0  0  0  0  0  0  0  0  0  0  0
    1.6650   -1.7621   -1.1435 H   0  0  0  0  0  0  0  0  0  0  0  0
    1.0304   -0.3105   -1.9265 H   0  0  0  0  0  0  0  0  0  0  0  0
    2.7476   -0.4145   -1.5026 H   0  0  0  0  0  0  0  0  0  0  0  0
    0.4262   -0.2311    0.5655 H   0  0  0  0  0  0  0  0  0  0  0  0
    2.4974    1.9560   -0.2178 H   0  0  0  0  0  0  0  0  0  0  0  0
    3.7335    0.2475    3.8721 H   0  0  0  0  0  0  0  0  0  0  0  0
    2.8727    1.8392    4.1583 H   0  0  0  0  0  0  0  0  0  0  0  0
    1.4503   -0.9377    3.8411 H   0  0  0  0  0  0  0  0  0  0  0  0
    0.6362    0.6771    4.1039 H   0  0  0  0  0  0  0  0  0  0  0  0
    3.5985   -1.5947    1.0060 H   0  0  0  0  0  0  0  0  0  0  0  0
  1  2  1  0
  2  3  1  0
  3  4  1  0
  4  5  1  0
  5  6  1  0
  6  7  1  0
  5  8  1  0
  8  9  1  0
  8  2  1  0
  8  3  1  0
  7  5  1  0
  1 10  1  0
  1 11  1  0
  1 12  1  0
  2 13  1  0
  3 14  1  0
  6 15  1  0
  6 16  1  0
  7 17  1  0
  7 18  1  0
  9 19  1  0
M  END
$$$$
