
     RDKit          3D

 19 18  0  0  0  0  0  0  0  0999 V2000
    0.2932   -1.7049   -1.1521 O   0  0  0  0  0  0  0  0  0  0  0  0
   -0.0587   -0.3331   -1.1716 C   0  0  0  0  0  0  0  0  0  0  0  0
   -1.0375    0.0425   -0.0560 C   0  0  0  0  0  0  0  0  0  0  0  0
   -1.4547    1.5229   -0.1366 C   0  0  0  0  0  0  0  0  0  0  0  0
   -2.4058    1.9630    0.9640 C   0  0  0  0  0  0  0  0  0  0  0  0
   -2.1188    2.8147    1.7667 O   0  0  0  0  0  0  0  0  0  0  0  0
   -3.7984    1.2844    1.0122 C   0  0  0  0  0  0  0  0  0  0  0  0
   -3.7870    0.1044    1.8666 C   0  0  0  0  0  0  0  0  0  0  0  0
   -3.7587   -0.8627    2.5796 C   0  0  0  0  0  0  0  0  0  0  0  0
    0.7661   -1.8777   -0.3317 H   0  0  0  0  0  0  0  0  0  0  0  0
    0.8327    0.3134   -1.1220 H   0  0  0  0  0  0  0  0  0  0  0  0
   -0.5239   -0.1614   -2.1491 H   0  0  0  0  0  0  0  0  0  0  0  0
   -1.9095   -0.6158   -0.1172 H   0  0  0  0  0  0  0  0  0  0  0  0
   -0.5697   -0.1491    0.9185 H   0  0  0  0  0  0  0  0  0  0  0  0
   -0.5781    2.1748   -0.0815 H   0  0  0  0  0  0  0  0  0  0  0  0
   -1.9474    1.7034   -1.1028 H   0  0  0  0  0  0  0  0  0  0  0  0
   -4.4980    2.0273    1.4089 H   0  0  0  0  0  0  0  0  0  0  0  0
   -4.1243    1.0121    0.0014 H   0  0  0  0  0  0  0  0  0  0  0  0
   -3.7459   -1.7168    3.2104 H   0  0  0  0  0  0  0  0  0  0  0  0
  1  2  1  0
  2  3  1  0
  3  4  1  0
  4  5  1  0
  5  6  2  0
  5  7  1  0
  7  8  1  0
  8  9  3  0
  1 10  1  0
  2 11  1  0
  2 12  1  0
  3 13  1  0
  3 14  1  0
  4 15  1  0
  4 16  1  0
  7 17  1  0
  7 18  1  0
  9 19  1  0
M  END
$$$$
