gdb 3521	2.1613199	1.6595657	1.0089455	4.9791	79.72	-0.25955	-0.02807	0.23148	1205.6031	0.155377	-422.627578	-422.617921	-422.616977	-422.662154	34.365
 OpenBabel02181911413D

 19 19  0  0  1  0  0  0  0  0999 V2000
   -1.3687   -1.7533   -1.3029 C   0  0  0  0  0  0  0  0  0  0  0  0
   -1.1015   -0.9331   -0.0423 C   0  0  2  0  0  0  0  0  0  0  0  0
   -2.1849   -0.0212    0.1717 O   0  0  0  0  0  0  0  0  0  0  0  0
   -1.7030    1.2599    0.2362 C   0  0  0  0  0  0  0  0  0  0  0  0
   -2.4133    2.2123    0.4086 O   0  0  0  0  0  0  0  0  0  0  0  0
   -0.2289    1.2144    0.0656 C   0  0  0  0  0  0  0  0  0  0  0  0
    0.5670    2.4764    0.0976 C   0  0  0  0  0  0  0  0  0  0  0  0
    0.1358   -0.0648   -0.0934 C   0  0  0  0  0  0  0  0  0  0  0  0
    1.4940   -0.6536   -0.2850 C   0  0  0  0  0  0  0  0  0  0  0  0
   -0.5836   -2.5012   -1.4493 H   0  0  0  0  0  0  0  0  0  0  0  0
   -2.3260   -2.2725   -1.2138 H   0  0  0  0  0  0  0  0  0  0  0  0
   -1.4044   -1.1022   -2.1810 H   0  0  0  0  0  0  0  0  0  0  0  0
   -1.0599   -1.6049    0.8276 H   0  0  0  0  0  0  0  0  0  0  0  0
    0.3895    3.0162    1.0338 H   0  0  0  0  0  0  0  0  0  0  0  0
    1.6391    2.2922   -0.0016 H   0  0  0  0  0  0  0  0  0  0  0  0
    0.2544    3.1483   -0.7091 H   0  0  0  0  0  0  0  0  0  0  0  0
    1.6987   -1.4219    0.4707 H   0  0  0  0  0  0  0  0  0  0  0  0
    1.5792   -1.1442   -1.2622 H   0  0  0  0  0  0  0  0  0  0  0  0
    2.2778    0.1039   -0.2198 H   0  0  0  0  0  0  0  0  0  0  0  0
  1 11  1  0  0  0  0
  1  2  1  0  0  0  0
  2  3  1  0  0  0  0
  2 13  1  1  0  0  0
  3  4  1  0  0  0  0
  4  5  2  0  0  0  0
  6  7  1  0  0  0  0
  6  4  1  0  0  0  0
  7 14  1  0  0  0  0
  8  2  1  0  0  0  0
  8  6  2  0  0  0  0
  9 19  1  0  0  0  0
  9  8  1  0  0  0  0
  9 17  1  0  0  0  0
 10  1  1  0  0  0  0
 12  1  1  0  0  0  0
 15  7  1  0  0  0  0
 16  7  1  0  0  0  0
 18  9  1  0  0  0  0
M TOR 0 0 1 2 3
M TOR 1 0 1 7 5
M TOR 2 0 1 7 8
M TOR 3 1 2 3 4
M TOR 4 1 2 3 5
M TOR 5 1 7 5 3
M TOR 6 1 7 5 6
M TOR 7 1 7 8 16
M TOR 8 1 7 8 17
M TOR 9 1 7 8 18
M TOR 10 2 1 0 9
M TOR 11 2 1 0 10
M TOR 12 2 1 0 11
M TOR 13 2 1 7 5
M TOR 14 2 1 7 8
M TOR 15 2 3 5 6
M TOR 16 2 3 5 7
M TOR 17 3 2 1 7
M TOR 18 3 2 1 12
M TOR 19 3 5 6 13
M TOR 20 3 5 6 14
M TOR 21 3 5 6 15
M TOR 22 3 5 7 8
M TOR 23 4 3 5 6
M TOR 24 4 3 5 7
M TOR 25 5 7 1 12
M TOR 26 5 7 8 16
M TOR 27 5 7 8 17
M TOR 28 5 7 8 18
M TOR 29 6 5 7 8
M TOR 30 7 1 0 9
M TOR 31 7 1 0 10
M TOR 32 7 1 0 11
M TOR 33 7 5 6 13
M TOR 34 7 5 6 14
M TOR 35 7 5 6 15
M TOR 36 8 7 1 12
M  END
$$$$
