
     RDKit          3D

 19 21  0  0  0  0  0  0  0  0999 V2000
    3.8302    0.1976   -1.1083 C   0  0  0  0  0  0  0  0  0  0  0  0
    3.7816    1.5676   -0.4255 C   0  0  0  0  0  0  0  0  0  0  0  0
    3.9340    1.8237    0.9934 O   0  0  0  0  0  0  0  0  0  0  0  0
    2.6323    1.5348    0.4916 C   0  0  0  0  0  0  0  0  0  0  0  0
    2.2229    0.0694    0.6421 C   0  0  0  0  0  0  0  0  0  0  0  0
    2.3728   -0.2952   -0.8361 C   0  0  0  0  0  0  0  0  0  0  0  0
    1.3485    0.4209   -1.5439 O   0  0  0  0  0  0  0  0  0  0  0  0
    1.1503    1.8282   -1.3313 C   0  0  0  0  0  0  0  0  0  0  0  0
    1.4571    2.3911    0.1035 C   0  0  0  0  0  0  0  0  0  0  0  0
    4.0501    0.3098   -2.1733 H   0  0  0  0  0  0  0  0  0  0  0  0
    4.5542   -0.5048   -0.6819 H   0  0  0  0  0  0  0  0  0  0  0  0
    3.9898    2.4493   -1.0261 H   0  0  0  0  0  0  0  0  0  0  0  0
    2.9242   -0.4694    1.2827 H   0  0  0  0  0  0  0  0  0  0  0  0
    1.2031   -0.0697    1.0058 H   0  0  0  0  0  0  0  0  0  0  0  0
    2.2039   -1.3428   -1.1017 H   0  0  0  0  0  0  0  0  0  0  0  0
    1.7868    2.3856   -2.0325 H   0  0  0  0  0  0  0  0  0  0  0  0
    0.1087    2.0091   -1.6136 H   0  0  0  0  0  0  0  0  0  0  0  0
    1.6949    3.4551    0.0167 H   0  0  0  0  0  0  0  0  0  0  0  0
    0.6079    2.2781    0.7845 H   0  0  0  0  0  0  0  0  0  0  0  0
  1  2  1  0
  2  3  1  0
  3  4  1  0
  4  5  1  0
  5  6  1  0
  6  7  1  0
  7  8  1  0
  8  9  1  0
  6  1  1  0
  4  2  1  0
  9  4  1  0
  1 10  1  0
  1 11  1  0
  2 12  1  0
  5 13  1  0
  5 14  1  0
  6 15  1  0
  8 16  1  0
  8 17  1  0
  9 18  1  0
  9 19  1  0
M  END
$$$$
