
     RDKit          3D

 19 21  0  0  0  0  0  0  0  0999 V2000
    0.1107   -0.0655   -0.1646 C   0  0  0  0  0  0  0  0  0  0  0  0
    1.6164    0.0054   -0.0062 C   0  0  0  0  0  0  0  0  0  0  0  0
    2.1715   -0.1165    1.3921 C   0  0  0  0  0  0  0  0  0  0  0  0
    2.1797    1.2272    0.6805 C   0  0  0  0  0  0  0  0  0  0  0  0
    3.7349    1.2760    0.7950 C   0  0  0  0  0  0  0  0  0  0  0  0
    4.4344    2.4482    0.9951 O   0  0  0  0  0  0  0  0  0  0  0  0
    4.4288    0.0975    0.1690 C   0  0  0  0  0  0  0  0  0  0  0  0
    3.7280   -0.0676    1.5044 C   0  0  0  0  0  0  0  0  0  0  0  0
    4.3825   -0.4622    2.6548 O   0  0  0  0  0  0  0  0  0  0  0  0
   -0.4001    0.3898    0.6906 H   0  0  0  0  0  0  0  0  0  0  0  0
   -0.2143    0.4622   -1.0676 H   0  0  0  0  0  0  0  0  0  0  0  0
   -0.2279   -1.1043   -0.2410 H   0  0  0  0  0  0  0  0  0  0  0  0
    2.1570   -0.4373   -0.8365 H   0  0  0  0  0  0  0  0  0  0  0  0
    1.5598   -0.4046    2.2388 H   0  0  0  0  0  0  0  0  0  0  0  0
    1.5663    2.0939    0.9000 H   0  0  0  0  0  0  0  0  0  0  0  0
    4.1376    2.8370    1.8261 H   0  0  0  0  0  0  0  0  0  0  0  0
    4.1298   -0.3775   -0.7601 H   0  0  0  0  0  0  0  0  0  0  0  0
    5.5047    0.1760    0.3029 H   0  0  0  0  0  0  0  0  0  0  0  0
    4.6508   -1.3829    2.5542 H   0  0  0  0  0  0  0  0  0  0  0  0
  1  2  1  0
  2  3  1  0
  3  4  1  0
  4  5  1  0
  5  6  1  0
  5  7  1  0
  7  8  1  0
  8  9  1  0
  4  2  1  0
  8  5  1  0
  8  3  1  0
  1 10  1  0
  1 11  1  0
  1 12  1  0
  2 13  1  0
  3 14  1  0
  4 15  1  0
  6 16  1  0
  7 17  1  0
  7 18  1  0
  9 19  1  0
M  END
$$$$
