
     RDKit          3D

 19 21  0  0  0  0  0  0  0  0999 V2000
   -0.0132    0.4007    0.0322 C   0  0  0  0  0  0  0  0  0  0  0  0
    1.4243   -0.0381    0.2073 C   0  0  0  0  0  0  0  0  0  0  0  0
    1.9425   -0.3433    1.6574 C   0  0  0  0  0  0  0  0  0  0  0  0
    3.1962    0.4789    1.3654 C   0  0  0  0  0  0  0  0  0  0  0  0
    3.7016    0.0868   -0.0292 C   0  0  0  0  0  0  0  0  0  0  0  0
    3.3401   -1.1736   -0.5519 O   0  0  0  0  0  0  0  0  0  0  0  0
    1.9181   -1.1405   -0.7370 C   0  0  0  0  0  0  0  0  0  0  0  0
    2.5702    1.0246    0.0741 C   0  0  0  0  0  0  0  0  0  0  0  0
    2.5130    2.2645   -0.5225 O   0  0  0  0  0  0  0  0  0  0  0  0
   -0.2629    1.2271    0.7069 H   0  0  0  0  0  0  0  0  0  0  0  0
   -0.2008    0.7375   -0.9931 H   0  0  0  0  0  0  0  0  0  0  0  0
   -0.7070   -0.4188    0.2500 H   0  0  0  0  0  0  0  0  0  0  0  0
    1.3108    0.1202    2.4203 H   0  0  0  0  0  0  0  0  0  0  0  0
    2.0889   -1.4007    1.9018 H   0  0  0  0  0  0  0  0  0  0  0  0
    3.8520    0.9542    2.0864 H   0  0  0  0  0  0  0  0  0  0  0  0
    4.6868    0.4267   -0.3244 H   0  0  0  0  0  0  0  0  0  0  0  0
    1.6723   -0.9020   -1.7844 H   0  0  0  0  0  0  0  0  0  0  0  0
    1.5197   -2.1322   -0.4970 H   0  0  0  0  0  0  0  0  0  0  0  0
    1.9601    2.8391    0.0191 H   0  0  0  0  0  0  0  0  0  0  0  0
  1  2  1  0
  2  3  1  0
  3  4  1  0
  4  5  1  0
  5  6  1  0
  6  7  1  0
  5  8  1  0
  8  9  1  0
  7  2  1  0
  8  2  1  0
  8  4  1  0
  1 10  1  0
  1 11  1  0
  1 12  1  0
  3 13  1  0
  3 14  1  0
  4 15  1  0
  5 16  1  0
  7 17  1  0
  7 18  1  0
  9 19  1  0
M  END
$$$$
