gdb 1702	2.4697724	1.3384588	1.1497018	1.2768	76.05	-0.2452	-0.09275	0.15245	1160.4855	0.154635	-422.566809	-422.557311	-422.556367	-422.60143	33.984
 OpenBabel02181911403D

 19 19  0  0  0  0  0  0  0  0999 V2000
   -2.0995    2.0029   -1.1017 C   0  0  0  0  0  0  0  0  0  0  0  0
   -0.9557    2.1998   -0.0953 C   0  0  0  0  0  0  0  0  0  0  0  0
   -1.4297    2.0848    1.3984 C   0  0  0  0  0  0  0  0  0  0  0  0
   -1.4211    3.6347    1.4849 C   0  0  0  0  0  0  0  0  0  0  0  0
   -0.6048    3.6929    0.1653 C   0  0  0  0  0  0  0  0  0  0  0  0
    0.2167    1.3169   -0.4464 C   0  0  0  0  0  0  0  0  0  0  0  0
    1.3092    1.7149   -0.7845 O   0  0  0  0  0  0  0  0  0  0  0  0
    0.0472   -0.2104   -0.3373 C   0  0  0  0  0  0  0  0  0  0  0  0
   -0.9518   -0.7656    0.0380 O   0  0  0  0  0  0  0  0  0  0  0  0
   -2.4541    0.9698   -1.1028 H   0  0  0  0  0  0  0  0  0  0  0  0
   -2.9408    2.6515   -0.8372 H   0  0  0  0  0  0  0  0  0  0  0  0
   -1.7807    2.2693   -2.1153 H   0  0  0  0  0  0  0  0  0  0  0  0
   -2.3777    1.5673    1.5564 H   0  0  0  0  0  0  0  0  0  0  0  0
   -0.6758    1.6265    2.0445 H   0  0  0  0  0  0  0  0  0  0  0  0
   -2.4212    4.0626    1.3811 H   0  0  0  0  0  0  0  0  0  0  0  0
   -0.9537    4.0709    2.3700 H   0  0  0  0  0  0  0  0  0  0  0  0
   -0.9338    4.4036   -0.5966 H   0  0  0  0  0  0  0  0  0  0  0  0
    0.4664    3.8288    0.3265 H   0  0  0  0  0  0  0  0  0  0  0  0
    0.9714   -0.7513   -0.6347 H   0  0  0  0  0  0  0  0  0  0  0  0
  1 11  1  0  0  0  0
  1  2  1  0  0  0  0
  2  5  1  0  0  0  0
  2  3  1  0  0  0  0
  3  4  1  0  0  0  0
  3 13  1  0  0  0  0
  3 14  1  0  0  0  0
  4 16  1  0  0  0  0
  5 18  1  0  0  0  0
  5  4  1  0  0  0  0
  6  8  1  0  0  0  0
  6  2  1  0  0  0  0
  7  6  2  0  0  0  0
  8  9  2  0  0  0  0
 10  1  1  0  0  0  0
 12  1  1  0  0  0  0
 15  4  1  0  0  0  0
 17  5  1  0  0  0  0
 19  8  1  0  0  0  0
M TOR 0 0 1 2 3
M TOR 1 0 1 2 12
M TOR 2 0 1 2 13
M TOR 3 0 1 4 3
M TOR 4 0 1 4 16
M TOR 5 0 1 4 17
M TOR 6 0 1 5 6
M TOR 7 0 1 5 7
M TOR 8 1 2 3 4
M TOR 9 1 2 3 14
M TOR 10 1 2 3 15
M TOR 11 1 4 3 14
M TOR 12 1 4 3 15
M TOR 13 1 5 7 8
M TOR 14 1 5 7 18
M TOR 15 2 1 0 9
M TOR 16 2 1 0 10
M TOR 17 2 1 0 11
M TOR 18 2 1 4 16
M TOR 19 2 1 4 17
M TOR 20 2 1 5 6
M TOR 21 2 1 5 7
M TOR 22 2 3 4 16
M TOR 23 2 3 4 17
M TOR 24 3 2 1 5
M TOR 25 3 4 1 5
M TOR 26 4 1 0 9
M TOR 27 4 1 0 10
M TOR 28 4 1 0 11
M TOR 29 4 1 2 12
M TOR 30 4 1 2 13
M TOR 31 4 1 5 6
M TOR 32 4 1 5 7
M TOR 33 4 3 2 12
M TOR 34 4 3 2 13
M TOR 35 5 1 0 9
M TOR 36 5 1 0 10
M TOR 37 5 1 0 11
M TOR 38 5 1 2 12
M TOR 39 5 1 2 13
M TOR 40 5 1 4 16
M TOR 41 5 1 4 17
M TOR 42 6 5 7 8
M TOR 43 6 5 7 18
M  END
$$$$
