
     RDKit          3D

 19 21  0  0  0  0  0  0  0  0999 V2000
    1.5348    0.2227   -1.5704 C   0  0  0  0  0  0  0  0  0  0  0  0
    1.1215    0.6231   -0.1693 C   0  0  0  0  0  0  0  0  0  0  0  0
    1.9761    1.6331    0.5607 C   0  0  0  0  0  0  0  0  0  0  0  0
    1.3018    2.0157    1.8879 C   0  0  0  0  0  0  0  0  0  0  0  0
    1.4011    0.5311    2.3011 C   0  0  0  0  0  0  0  0  0  0  0  0
    1.7129   -0.0354    3.6087 C   0  0  0  0  0  0  0  0  0  0  0  0
    0.4218   -0.2218    3.0018 O   0  0  0  0  0  0  0  0  0  0  0  0
    1.9977    0.1512    0.9696 C   0  0  0  0  0  0  0  0  0  0  0  0
    3.0067   -0.7814    0.8115 O   0  0  0  0  0  0  0  0  0  0  0  0
    1.1466   -0.7686   -1.8316 H   0  0  0  0  0  0  0  0  0  0  0  0
    1.1452    0.9322   -2.3074 H   0  0  0  0  0  0  0  0  0  0  0  0
    2.6231    0.1912   -1.6703 H   0  0  0  0  0  0  0  0  0  0  0  0
    0.0439    0.6602   -0.0093 H   0  0  0  0  0  0  0  0  0  0  0  0
    2.7486    2.1991    0.0564 H   0  0  0  0  0  0  0  0  0  0  0  0
    1.8978    2.6758    2.5227 H   0  0  0  0  0  0  0  0  0  0  0  0
    0.2857    2.4129    1.8038 H   0  0  0  0  0  0  0  0  0  0  0  0
    2.3318   -0.9290    3.6713 H   0  0  0  0  0  0  0  0  0  0  0  0
    1.7285    0.6086    4.4875 H   0  0  0  0  0  0  0  0  0  0  0  0
    2.6189   -1.5960    0.4731 H   0  0  0  0  0  0  0  0  0  0  0  0
  1  2  1  0
  2  3  1  0
  3  4  1  0
  4  5  1  0
  5  6  1  0
  6  7  1  0
  5  8  1  0
  8  9  1  0
  8  2  1  0
  8  3  1  0
  7  5  1  0
  1 10  1  0
  1 11  1  0
  1 12  1  0
  2 13  1  0
  3 14  1  0
  4 15  1  0
  4 16  1  0
  6 17  1  0
  6 18  1  0
  9 19  1  0
M  END
$$$$
