gdb 3629	2.4314688	1.4283916	1.1058517	4.1333	75.21	-0.23714	-0.01271	0.22443	1141.7054	0.157296	-422.57061	-422.562168	-422.561224	-422.603901	31.917
 OpenBabel02181911413D

 19 20  0  0  1  0  0  0  0  0999 V2000
    1.6248    0.8871   -2.9095 O   0  0  0  0  0  0  0  0  0  0  0  0
    1.2885    2.1452   -2.3233 C   0  0  1  0  0  0  0  0  0  0  0  0
    0.5018    1.8445   -1.0346 C   0  0  0  0  0  0  0  0  0  0  0  0
    1.5592    1.7193    0.1015 C   0  0  1  0  0  0  0  0  0  0  0  0
    2.0464    0.2881    0.2517 C   0  0  0  0  0  0  0  0  0  0  0  0
    2.0406   -0.3231    1.2905 O   0  0  0  0  0  0  0  0  0  0  0  0
    2.7101    2.6087   -0.3730 C   0  0  2  0  0  0  0  0  0  0  0  0
    2.3507    3.9936   -0.8534 C   0  0  0  0  0  0  0  0  0  0  0  0
    2.5339    2.8786   -1.8518 C   0  0  2  0  0  0  0  0  0  0  0  0
    2.2238    1.0491   -3.6456 H   0  0  0  0  0  0  0  0  0  0  0  0
    0.6890    2.7379   -3.0299 H   0  0  0  0  0  0  0  0  0  0  0  0
   -0.1878    2.6617   -0.8094 H   0  0  0  0  0  0  0  0  0  0  0  0
   -0.0984    0.9405   -1.1624 H   0  0  0  0  0  0  0  0  0  0  0  0
    1.1579    2.0283    1.0713 H   0  0  0  0  0  0  0  0  0  0  0  0
    2.4218   -0.1665   -0.6901 H   0  0  0  0  0  0  0  0  0  0  0  0
    3.6927    2.4564    0.0599 H   0  0  0  0  0  0  0  0  0  0  0  0
    1.3561    4.3835   -0.6633 H   0  0  0  0  0  0  0  0  0  0  0  0
    3.1313    4.7448   -0.8092 H   0  0  0  0  0  0  0  0  0  0  0  0
    3.3816    2.9247   -2.5287 H   0  0  0  0  0  0  0  0  0  0  0  0
  1  2  1  0  0  0  0
  2 11  1  6  0  0  0
  2  9  1  0  0  0  0
  2  3  1  0  0  0  0
  3 12  1  0  0  0  0
  3  4  1  0  0  0  0
  4  5  1  0  0  0  0
  4 14  1  1  0  0  0
  5  6  2  0  0  0  0
  7 16  1  1  0  0  0
  7  4  1  0  0  0  0
  8 18  1  0  0  0  0
  8 17  1  0  0  0  0
  8  7  1  0  0  0  0
  9 19  1  6  0  0  0
  9  8  1  0  0  0  0
  9  7  1  0  0  0  0
 10  1  1  0  0  0  0
 13  3  1  0  0  0  0
 15  5  1  0  0  0  0
M TOR 0 0 1 2 3
M TOR 1 0 1 2 11
M TOR 2 0 1 2 12
M TOR 3 0 1 8 6
M TOR 4 0 1 8 7
M TOR 5 0 1 8 18
M TOR 6 1 2 3 4
M TOR 7 1 2 3 6
M TOR 8 1 2 3 13
M TOR 9 1 8 6 3
M TOR 10 1 8 6 7
M TOR 11 1 8 6 15
M TOR 12 1 8 7 16
M TOR 13 1 8 7 17
M TOR 14 2 1 0 9
M TOR 15 2 1 8 6
M TOR 16 2 1 8 7
M TOR 17 2 1 8 18
M TOR 18 2 3 4 5
M TOR 19 2 3 4 14
M TOR 20 2 3 6 7
M TOR 21 2 3 6 8
M TOR 22 2 3 6 15
M TOR 23 3 2 1 8
M TOR 24 3 2 1 10
M TOR 25 3 6 7 8
M TOR 26 3 6 7 16
M TOR 27 3 6 7 17
M TOR 28 3 6 8 18
M TOR 29 4 3 2 11
M TOR 30 4 3 2 12
M TOR 31 4 3 6 7
M TOR 32 4 3 6 8
M TOR 33 4 3 6 15
M TOR 34 5 4 3 6
M TOR 35 5 4 3 13
M TOR 36 6 3 2 11
M TOR 37 6 3 2 12
M TOR 38 6 3 4 14
M TOR 39 6 7 8 18
M TOR 40 6 8 1 10
M TOR 41 6 8 7 16
M TOR 42 6 8 7 17
M TOR 43 7 6 3 13
M TOR 44 7 8 1 10
M TOR 45 7 8 6 15
M TOR 46 8 1 0 9
M TOR 47 8 1 2 11
M TOR 48 8 1 2 12
M TOR 49 8 6 3 13
M  END
$$$$
