gdb 914	4.3269014	0.8636584	0.7949554	2.0357	76.26	-0.24817	-0.022	0.22617	1440.7101	0.157013	-422.555191	-422.546682	-422.545737	-422.58957	30.785
 OpenBabel02181911403D

 19 20  0  0  1  0  0  0  0  0999 V2000
    0.2307   -1.2403   -0.0404 O   0  0  0  0  0  0  0  0  0  0  0  0
    0.4280   -0.0576    0.0628 C   0  0  0  0  0  0  0  0  0  0  0  0
   -0.1263    0.8214    1.1655 C   0  0  0  0  0  0  0  0  0  0  0  0
   -0.8526    2.0301    0.6027 C   0  0  2  0  0  0  0  0  0  0  0  0
   -1.9415    2.6877    1.4129 C   0  0  1  0  0  0  0  0  0  0  0  0
   -2.2510    4.1328    1.0635 C   0  0  0  0  0  0  0  0  0  0  0  0
   -2.3074    4.1785   -0.3599 O   0  0  0  0  0  0  0  0  0  0  0  0
   -2.7908    2.9217   -0.8293 C   0  0  0  0  0  0  0  0  0  0  0  0
   -2.2942    1.8949    0.1731 C   0  0  1  0  0  0  0  0  0  0  0  0
    1.0538    0.4861   -0.6840 H   0  0  0  0  0  0  0  0  0  0  0  0
   -0.7804    0.2114    1.7958 H   0  0  0  0  0  0  0  0  0  0  0  0
    0.7208    1.1557    1.7828 H   0  0  0  0  0  0  0  0  0  0  0  0
   -0.2370    2.6977    0.0025 H   0  0  0  0  0  0  0  0  0  0  0  0
   -2.1661    2.3230    2.4086 H   0  0  0  0  0  0  0  0  0  0  0  0
   -3.2128    4.4293    1.5131 H   0  0  0  0  0  0  0  0  0  0  0  0
   -1.4867    4.8512    1.3782 H   0  0  0  0  0  0  0  0  0  0  0  0
   -3.8921    2.9060   -0.8704 H   0  0  0  0  0  0  0  0  0  0  0  0
   -2.4056    2.7885   -1.8456 H   0  0  0  0  0  0  0  0  0  0  0  0
   -2.7840    0.9297    0.2316 H   0  0  0  0  0  0  0  0  0  0  0  0
  1  2  2  0  0  0  0
  2  3  1  0  0  0  0
  3 12  1  0  0  0  0
  3 11  1  0  0  0  0
  4 13  1  6  0  0  0
  4  3  1  0  0  0  0
  4  5  1  0  0  0  0
  5 14  1  1  0  0  0
  6 16  1  0  0  0  0
  6  5  1  0  0  0  0
  6 15  1  0  0  0  0
  7  6  1  0  0  0  0
  8  7  1  0  0  0  0
  8  9  1  0  0  0  0
  9 19  1  1  0  0  0
  9  4  1  0  0  0  0
  9  5  1  0  0  0  0
 10  2  1  0  0  0  0
 17  8  1  0  0  0  0
 18  8  1  0  0  0  0
M TOR 0 0 1 2 3
M TOR 1 0 1 2 10
M TOR 2 0 1 2 11
M TOR 3 1 2 3 4
M TOR 4 1 2 3 8
M TOR 5 1 2 3 12
M TOR 6 2 3 4 5
M TOR 7 2 3 4 8
M TOR 8 2 3 4 13
M TOR 9 2 3 8 7
M TOR 10 2 3 8 18
M TOR 11 3 2 1 9
M TOR 12 3 4 5 6
M TOR 13 3 4 5 14
M TOR 14 3 4 5 15
M TOR 15 3 4 8 7
M TOR 16 3 4 8 18
M TOR 17 3 8 4 5
M TOR 18 3 8 4 13
M TOR 19 3 8 7 6
M TOR 20 3 8 7 16
M TOR 21 3 8 7 17
M TOR 22 4 3 2 10
M TOR 23 4 3 2 11
M TOR 24 4 5 6 7
M TOR 25 4 8 3 12
M TOR 26 4 8 7 6
M TOR 27 4 8 7 16
M TOR 28 4 8 7 17
M TOR 29 5 4 3 12
M TOR 30 5 4 8 7
M TOR 31 5 4 8 18
M TOR 32 5 6 7 8
M TOR 33 5 6 7 16
M TOR 34 5 6 7 17
M TOR 35 6 5 4 8
M TOR 36 6 5 4 13
M TOR 37 6 7 8 18
M TOR 38 7 6 5 14
M TOR 39 7 6 5 15
M TOR 40 7 8 3 12
M TOR 41 7 8 4 13
M TOR 42 8 3 2 10
M TOR 43 8 3 2 11
M TOR 44 8 4 5 14
M TOR 45 8 4 5 15
M  END
$$$$
