
     RDKit          3D

 19 21  0  0  0  0  0  0  0  0999 V2000
    0.8310   -0.0663    0.8374 C   0  0  0  0  0  0  0  0  0  0  0  0
   -0.2499    0.4077   -0.1579 C   0  0  0  0  0  0  0  0  0  0  0  0
    0.6176    1.2776   -1.0930 C   0  0  0  0  0  0  0  0  0  0  0  0
    1.7175    0.2636   -1.4471 C   0  0  0  0  0  0  0  0  0  0  0  0
    1.1729   -0.6443   -2.4118 O   0  0  0  0  0  0  0  0  0  0  0  0
    0.4482   -1.5437   -1.5936 C   0  0  0  0  0  0  0  0  0  0  0  0
   -0.7609   -0.8220   -0.9575 C   0  0  0  0  0  0  0  0  0  0  0  0
    1.3744   -1.9133   -0.5891 O   0  0  0  0  0  0  0  0  0  0  0  0
    1.8610   -0.6399   -0.1492 C   0  0  0  0  0  0  0  0  0  0  0  0
    1.2329    0.7786    1.4078 H   0  0  0  0  0  0  0  0  0  0  0  0
    0.4992   -0.8359    1.5383 H   0  0  0  0  0  0  0  0  0  0  0  0
   -1.0770    0.9479    0.3096 H   0  0  0  0  0  0  0  0  0  0  0  0
    0.1086    1.6242   -1.9954 H   0  0  0  0  0  0  0  0  0  0  0  0
    1.0155    2.1472   -0.5582 H   0  0  0  0  0  0  0  0  0  0  0  0
    2.6465    0.6755   -1.8417 H   0  0  0  0  0  0  0  0  0  0  0  0
    0.1808   -2.4262   -2.1784 H   0  0  0  0  0  0  0  0  0  0  0  0
   -1.4518   -0.5111   -1.7486 H   0  0  0  0  0  0  0  0  0  0  0  0
   -1.2917   -1.5194   -0.3004 H   0  0  0  0  0  0  0  0  0  0  0  0
    2.8754   -0.7663    0.2293 H   0  0  0  0  0  0  0  0  0  0  0  0
  1  2  1  0
  2  3  1  0
  3  4  1  0
  4  5  1  0
  5  6  1  0
  6  7  1  0
  6  8  1  0
  8  9  1  0
  9  1  1  0
  7  2  1  0
  9  4  1  0
  1 10  1  0
  1 11  1  0
  2 12  1  0
  3 13  1  0
  3 14  1  0
  4 15  1  0
  6 16  1  0
  7 17  1  0
  7 18  1  0
  9 19  1  0
M  END
$$$$
