
     RDKit          3D

 19 19  0  0  0  0  0  0  0  0999 V2000
    1.6618    0.0549   -0.1451 C   0  0  0  0  0  0  0  0  0  0  0  0
    0.2449   -0.0027   -0.1539 O   0  0  0  0  0  0  0  0  0  0  0  0
   -0.3193    0.4943    1.0127 C   0  0  0  0  0  0  0  0  0  0  0  0
   -1.7931    0.8502    0.9124 C   0  0  0  0  0  0  0  0  0  0  0  0
   -2.6949    0.5547    1.9810 C   0  0  0  0  0  0  0  0  0  0  0  0
   -3.4286    0.3900    2.9226 C   0  0  0  0  0  0  0  0  0  0  0  0
   -0.7282    1.9418    1.1353 C   0  0  0  0  0  0  0  0  0  0  0  0
   -0.4511    2.9247    0.0256 C   0  0  0  0  0  0  0  0  0  0  0  0
   -0.6552    2.5030    2.4119 O   0  0  0  0  0  0  0  0  0  0  0  0
    2.0801   -0.5393    0.6802 H   0  0  0  0  0  0  0  0  0  0  0  0
    2.0030   -0.3646   -1.0940 H   0  0  0  0  0  0  0  0  0  0  0  0
    2.0272    1.0864   -0.0522 H   0  0  0  0  0  0  0  0  0  0  0  0
    0.0082    0.0177    1.9378 H   0  0  0  0  0  0  0  0  0  0  0  0
   -2.1967    0.7978   -0.0944 H   0  0  0  0  0  0  0  0  0  0  0  0
   -4.0862    0.1961    3.7337 H   0  0  0  0  0  0  0  0  0  0  0  0
   -0.3679    2.4114   -0.9350 H   0  0  0  0  0  0  0  0  0  0  0  0
   -1.2478    3.6726   -0.0375 H   0  0  0  0  0  0  0  0  0  0  0  0
    0.4880    3.4510    0.2244 H   0  0  0  0  0  0  0  0  0  0  0  0
   -1.4881    2.3285    2.8700 H   0  0  0  0  0  0  0  0  0  0  0  0
  1  2  1  0
  2  3  1  0
  3  4  1  0
  4  5  1  0
  5  6  3  0
  4  7  1  0
  7  8  1  0
  7  9  1  0
  7  3  1  0
  1 10  1  0
  1 11  1  0
  1 12  1  0
  3 13  1  0
  4 14  1  0
  6 15  1  0
  8 16  1  0
  8 17  1  0
  8 18  1  0
  9 19  1  0
M  END
$$$$
