
     RDKit          3D

 19 21  0  0  0  0  0  0  0  0999 V2000
   -0.0598   -0.0971   -0.0165 C   0  0  0  0  0  0  0  0  0  0  0  0
    1.4478    0.0626    0.0709 C   0  0  0  0  0  0  0  0  0  0  0  0
    2.1028   -0.5279   -1.0907 O   0  0  0  0  0  0  0  0  0  0  0  0
    3.0803   -1.3904   -0.4913 C   0  0  0  0  0  0  0  0  0  0  0  0
    2.2723   -2.1354    0.6041 C   0  0  0  0  0  0  0  0  0  0  0  0
    2.1860   -0.6904    1.1994 C   0  0  0  0  0  0  0  0  0  0  0  0
    3.6231   -0.5419    0.6642 C   0  0  0  0  0  0  0  0  0  0  0  0
    4.9124   -0.4896    1.3352 C   0  0  0  0  0  0  0  0  0  0  0  0
    4.3882    0.6313    0.5876 O   0  0  0  0  0  0  0  0  0  0  0  0
   -0.5464    0.4345    0.8083 H   0  0  0  0  0  0  0  0  0  0  0  0
   -0.4234    0.3287   -0.9564 H   0  0  0  0  0  0  0  0  0  0  0  0
   -0.3641   -1.1466    0.0186 H   0  0  0  0  0  0  0  0  0  0  0  0
    1.7037    1.1297    0.1039 H   0  0  0  0  0  0  0  0  0  0  0  0
    3.6860   -1.8703   -1.2572 H   0  0  0  0  0  0  0  0  0  0  0  0
    1.3501   -2.6167    0.2786 H   0  0  0  0  0  0  0  0  0  0  0  0
    2.8752   -2.8072    1.2168 H   0  0  0  0  0  0  0  0  0  0  0  0
    1.9052   -0.4771    2.2293 H   0  0  0  0  0  0  0  0  0  0  0  0
    4.9609   -0.3445    2.4136 H   0  0  0  0  0  0  0  0  0  0  0  0
    5.7828   -0.9715    0.8922 H   0  0  0  0  0  0  0  0  0  0  0  0
  1  2  1  0
  2  3  1  0
  3  4  1  0
  4  5  1  0
  5  6  1  0
  6  7  1  0
  7  8  1  0
  8  9  1  0
  6  2  1  0
  9  7  1  0
  7  4  1  0
  1 10  1  0
  1 11  1  0
  1 12  1  0
  2 13  1  0
  4 14  1  0
  5 15  1  0
  5 16  1  0
  6 17  1  0
  8 18  1  0
  8 19  1  0
M  END
$$$$
