
     RDKit          3D

 19 18  0  0  0  0  0  0  0  0999 V2000
   -2.8922    1.9598    1.3754 C   0  0  0  0  0  0  0  0  0  0  0  0
   -3.2690    0.6093    1.1619 O   0  0  0  0  0  0  0  0  0  0  0  0
   -2.6973   -0.0075    0.0097 C   0  0  0  0  0  0  0  0  0  0  0  0
   -3.1766   -1.4702    0.0571 C   0  0  0  0  0  0  0  0  0  0  0  0
   -3.3492    0.6275   -1.2405 C   0  0  0  0  0  0  0  0  0  0  0  0
   -2.8118    0.8456   -2.2891 O   0  0  0  0  0  0  0  0  0  0  0  0
   -1.2375    0.0734   -0.0296 C   0  0  0  0  0  0  0  0  0  0  0  0
   -0.0357    0.1354   -0.0609 C   0  0  0  0  0  0  0  0  0  0  0  0
    1.4170    0.2074   -0.1093 C   0  0  0  0  0  0  0  0  0  0  0  0
   -3.4315    2.2920    2.2648 H   0  0  0  0  0  0  0  0  0  0  0  0
   -1.8130    2.0550    1.5446 H   0  0  0  0  0  0  0  0  0  0  0  0
   -3.1700    2.6074    0.5307 H   0  0  0  0  0  0  0  0  0  0  0  0
   -2.8225   -1.9271    0.9835 H   0  0  0  0  0  0  0  0  0  0  0  0
   -4.2700   -1.5039    0.0461 H   0  0  0  0  0  0  0  0  0  0  0  0
   -2.7847   -2.0282   -0.7958 H   0  0  0  0  0  0  0  0  0  0  0  0
   -4.4288    0.8408   -1.0621 H   0  0  0  0  0  0  0  0  0  0  0  0
    1.8489    0.1814    0.8970 H   0  0  0  0  0  0  0  0  0  0  0  0
    1.8327   -0.6361   -0.6710 H   0  0  0  0  0  0  0  0  0  0  0  0
    1.7533    1.1294   -0.5955 H   0  0  0  0  0  0  0  0  0  0  0  0
  1  2  1  0
  2  3  1  0
  3  4  1  0
  3  5  1  0
  5  6  2  0
  3  7  1  0
  7  8  3  0
  8  9  1  0
  1 10  1  0
  1 11  1  0
  1 12  1  0
  4 13  1  0
  4 14  1  0
  4 15  1  0
  5 16  1  0
  9 17  1  0
  9 18  1  0
  9 19  1  0
M  END
$$$$
