
     RDKit          3D

 19 20  0  0  0  0  0  0  0  0999 V2000
   -4.2525   -1.7109   -1.9095 C   0  0  0  0  0  0  0  0  0  0  0  0
   -3.2973   -1.0794   -0.9226 C   0  0  0  0  0  0  0  0  0  0  0  0
   -1.7985   -1.2535   -1.0832 C   0  0  0  0  0  0  0  0  0  0  0  0
   -0.8723   -1.2844    0.1292 C   0  0  0  0  0  0  0  0  0  0  0  0
   -0.0330   -0.0131    0.1734 C   0  0  0  0  0  0  0  0  0  0  0  0
    1.1402    0.0171    0.4545 O   0  0  0  0  0  0  0  0  0  0  0  0
   -0.7981    1.2666   -0.1823 C   0  0  0  0  0  0  0  0  0  0  0  0
   -2.1907    1.0502   -0.3418 O   0  0  0  0  0  0  0  0  0  0  0  0
   -2.4512    0.0889   -1.3269 C   0  0  0  0  0  0  0  0  0  0  0  0
   -4.4391   -2.7615   -1.6630 H   0  0  0  0  0  0  0  0  0  0  0  0
   -5.2154   -1.1891   -1.9158 H   0  0  0  0  0  0  0  0  0  0  0  0
   -3.8508   -1.6776   -2.9277 H   0  0  0  0  0  0  0  0  0  0  0  0
   -3.6461   -1.0386    0.1064 H   0  0  0  0  0  0  0  0  0  0  0  0
   -1.4566   -1.8084   -1.9514 H   0  0  0  0  0  0  0  0  0  0  0  0
   -1.4542   -1.3259    1.0589 H   0  0  0  0  0  0  0  0  0  0  0  0
   -0.2018   -2.1459    0.1257 H   0  0  0  0  0  0  0  0  0  0  0  0
   -0.6737    1.9879    0.6307 H   0  0  0  0  0  0  0  0  0  0  0  0
   -0.3443    1.7048   -1.0854 H   0  0  0  0  0  0  0  0  0  0  0  0
   -2.5308    0.4846   -2.3400 H   0  0  0  0  0  0  0  0  0  0  0  0
  1  2  1  0
  2  3  1  0
  3  4  1  0
  4  5  1  0
  5  6  2  0
  5  7  1  0
  7  8  1  0
  8  9  1  0
  9  2  1  0
  9  3  1  0
  1 10  1  0
  1 11  1  0
  1 12  1  0
  2 13  1  0
  3 14  1  0
  4 15  1  0
  4 16  1  0
  7 17  1  0
  7 18  1  0
  9 19  1  0
M  END
$$$$
