
     RDKit          3D

 19 20  0  0  0  0  0  0  0  0999 V2000
    0.4731   -1.2703    0.4334 O   0  0  0  0  0  0  0  0  0  0  0  0
    0.2013   -0.1480    0.0868 C   0  0  0  0  0  0  0  0  0  0  0  0
    0.0099    1.0002    0.9985 C   0  0  0  0  0  0  0  0  0  0  0  0
   -0.9780    2.0878    0.6018 C   0  0  0  0  0  0  0  0  0  0  0  0
    0.4821    2.3747    0.5248 C   0  0  0  0  0  0  0  0  0  0  0  0
    1.1465    3.2814    1.5198 C   0  0  0  0  0  0  0  0  0  0  0  0
    2.6915    3.2818    1.5988 C   0  0  0  0  0  0  0  0  0  0  0  0
    2.5626    4.7868    1.2952 C   0  0  0  0  0  0  0  0  0  0  0  0
    1.1371    4.6660    1.0954 O   0  0  0  0  0  0  0  0  0  0  0  0
    0.0726    0.1084   -0.9931 H   0  0  0  0  0  0  0  0  0  0  0  0
    0.1127    0.7654    2.0526 H   0  0  0  0  0  0  0  0  0  0  0  0
   -1.5249    1.9563   -0.3259 H   0  0  0  0  0  0  0  0  0  0  0  0
   -1.5530    2.5328    1.4061 H   0  0  0  0  0  0  0  0  0  0  0  0
    0.9186    2.4088   -0.4707 H   0  0  0  0  0  0  0  0  0  0  0  0
    0.6575    3.1734    2.4997 H   0  0  0  0  0  0  0  0  0  0  0  0
    3.1269    3.0100    2.5609 H   0  0  0  0  0  0  0  0  0  0  0  0
    3.1715    2.6998    0.8095 H   0  0  0  0  0  0  0  0  0  0  0  0
    2.8004    5.4503    2.1363 H   0  0  0  0  0  0  0  0  0  0  0  0
    3.0717    5.1560    0.3980 H   0  0  0  0  0  0  0  0  0  0  0  0
  1  2  2  0
  2  3  1  0
  3  4  1  0
  4  5  1  0
  5  6  1  0
  6  7  1  0
  7  8  1  0
  8  9  1  0
  5  3  1  0
  9  6  1  0
  2 10  1  0
  3 11  1  0
  4 12  1  0
  4 13  1  0
  5 14  1  0
  6 15  1  0
  7 16  1  0
  7 17  1  0
  8 18  1  0
  8 19  1  0
M  END
$$$$
