
     RDKit          3D

 19 21  0  0  0  0  0  0  0  0999 V2000
   -0.1765   -0.0327    0.1594 C   0  0  0  0  0  0  0  0  0  0  0  0
    1.3279    0.0738   -0.0424 C   0  0  0  0  0  0  0  0  0  0  0  0
    2.0118   -0.8035    0.8560 O   0  0  0  0  0  0  0  0  0  0  0  0
    1.9498   -0.1499   -1.4145 C   0  0  0  0  0  0  0  0  0  0  0  0
    2.0150    1.2267   -2.1426 C   0  0  0  0  0  0  0  0  0  0  0  0
    1.3885    2.2691   -1.2169 C   0  0  0  0  0  0  0  0  0  0  0  0
    2.0317    1.4702   -0.0536 C   0  0  0  0  0  0  0  0  0  0  0  0
    3.0426    0.8440   -1.1251 C   0  0  0  0  0  0  0  0  0  0  0  0
    4.4042    0.7880   -1.2191 O   0  0  0  0  0  0  0  0  0  0  0  0
   -0.4628    0.3145    1.1608 H   0  0  0  0  0  0  0  0  0  0  0  0
   -0.7331    0.5587   -0.5710 H   0  0  0  0  0  0  0  0  0  0  0  0
   -0.4885   -1.0773    0.0630 H   0  0  0  0  0  0  0  0  0  0  0  0
    1.7411   -0.5680    1.7505 H   0  0  0  0  0  0  0  0  0  0  0  0
    2.0134   -1.0774   -1.9696 H   0  0  0  0  0  0  0  0  0  0  0  0
    2.1269    1.2545   -3.2190 H   0  0  0  0  0  0  0  0  0  0  0  0
    1.8651    3.2448   -1.3478 H   0  0  0  0  0  0  0  0  0  0  0  0
    0.3011    2.3966   -1.2093 H   0  0  0  0  0  0  0  0  0  0  0  0
    2.2902    1.9432    0.8933 H   0  0  0  0  0  0  0  0  0  0  0  0
    4.7083    0.1021   -0.6124 H   0  0  0  0  0  0  0  0  0  0  0  0
  1  2  1  0
  2  3  1  0
  2  4  1  0
  4  5  1  0
  5  6  1  0
  6  7  1  0
  7  8  1  0
  8  9  1  0
  7  2  1  0
  8  4  1  0
  8  5  1  0
  1 10  1  0
  1 11  1  0
  1 12  1  0
  3 13  1  0
  4 14  1  0
  5 15  1  0
  6 16  1  0
  6 17  1  0
  7 18  1  0
  9 19  1  0
M  END
$$$$
