gdb 492	3.8474706	1.2787896	1.1700624	2.5331	74.37	-0.24522	0.06434	0.30956	1104.0723	0.157496	-422.497988	-422.490264	-422.48932	-422.530647	29.396
 OpenBabel02181911403D

 19 21  0  0  1  0  0  0  0  0999 V2000
   -1.7047    3.9523   -0.2896 C   0  0  0  0  0  0  0  0  0  0  0  0
   -0.8255    3.4383   -1.4743 C   0  0  0  0  0  0  0  0  0  0  0  0
   -1.1741    1.9681   -1.1020 C   0  0  2  0  0  0  0  0  0  0  0  0
   -1.9921    2.4907    0.1119 C   0  0  1  0  0  0  0  0  0  0  0  0
   -1.0075    1.9612    1.0303 O   0  0  0  0  0  0  0  0  0  0  0  0
   -0.2672    1.3401   -0.0332 C   0  0  0  0  0  0  0  0  0  0  0  0
    1.2689    1.4218   -0.0213 C   0  0  0  0  0  0  0  0  0  0  0  0
    1.3822   -0.0120   -0.1334 O   0  0  0  0  0  0  0  0  0  0  0  0
   -0.0383   -0.1830    0.0486 C   0  0  0  0  0  0  0  0  0  0  0  0
   -1.2001    4.5335    0.4849 H   0  0  0  0  0  0  0  0  0  0  0  0
   -2.5953    4.4946   -0.6185 H   0  0  0  0  0  0  0  0  0  0  0  0
   -1.2008    3.7340   -2.4559 H   0  0  0  0  0  0  0  0  0  0  0  0
    0.2371    3.6908   -1.4298 H   0  0  0  0  0  0  0  0  0  0  0  0
   -1.5554    1.3134   -1.8847 H   0  0  0  0  0  0  0  0  0  0  0  0
   -3.0085    2.1939    0.3814 H   0  0  0  0  0  0  0  0  0  0  0  0
    1.7513    1.9425   -0.8573 H   0  0  0  0  0  0  0  0  0  0  0  0
    1.6680    1.8017    0.9282 H   0  0  0  0  0  0  0  0  0  0  0  0
   -0.4870   -0.8019   -0.7380 H   0  0  0  0  0  0  0  0  0  0  0  0
   -0.2895   -0.5952    1.0346 H   0  0  0  0  0  0  0  0  0  0  0  0
  1  4  1  0  0  0  0
  1 10  1  0  0  0  0
  2 13  1  0  0  0  0
  2  3  1  0  0  0  0
  2  1  1  0  0  0  0
  3 14  1  6  0  0  0
  3  6  1  0  0  0  0
  3  4  1  0  0  0  0
  4 15  1  1  0  0  0
  4  5  1  0  0  0  0
  6  7  1  0  0  0  0
  6  9  1  0  0  0  0
  6  5  1  0  0  0  0
  7 17  1  0  0  0  0
  8  7  1  0  0  0  0
  8  9  1  0  0  0  0
  9 19  1  0  0  0  0
 11  1  1  0  0  0  0
 12  2  1  0  0  0  0
 16  7  1  0  0  0  0
 18  9  1  0  0  0  0
M TOR 0 0 1 2 3
M TOR 1 0 1 2 5
M TOR 2 0 1 2 13
M TOR 3 0 3 2 5
M TOR 4 0 3 2 13
M TOR 5 0 3 4 5
M TOR 6 1 0 3 4
M TOR 7 1 0 3 14
M TOR 8 1 2 3 4
M TOR 9 1 2 3 14
M TOR 10 1 2 5 4
M TOR 11 1 2 5 6
M TOR 12 1 2 5 8
M TOR 13 2 1 0 9
M TOR 14 2 1 0 10
M TOR 15 2 3 0 9
M TOR 16 2 3 0 10
M TOR 17 2 3 4 5
M TOR 18 2 5 6 7
M TOR 19 2 5 6 15
M TOR 20 2 5 6 16
M TOR 21 2 5 8 7
M TOR 22 2 5 8 17
M TOR 23 2 5 8 18
M TOR 24 3 0 1 11
M TOR 25 3 0 1 12
M TOR 26 3 2 1 11
M TOR 27 3 2 1 12
M TOR 28 3 2 5 6
M TOR 29 3 2 5 8
M TOR 30 3 4 5 6
M TOR 31 3 4 5 8
M TOR 32 4 3 0 9
M TOR 33 4 3 0 10
M TOR 34 4 3 2 13
M TOR 35 4 5 2 13
M TOR 36 4 5 6 7
M TOR 37 4 5 6 15
M TOR 38 4 5 6 16
M TOR 39 4 5 8 7
M TOR 40 4 5 8 17
M TOR 41 4 5 8 18
M TOR 42 5 2 1 11
M TOR 43 5 2 1 12
M TOR 44 5 2 3 14
M TOR 45 5 4 3 14
M TOR 46 5 6 7 8
M TOR 47 6 5 2 13
M TOR 48 6 5 8 17
M TOR 49 6 5 8 18
M TOR 50 6 7 8 17
M TOR 51 6 7 8 18
M TOR 52 8 5 2 13
M TOR 53 8 5 6 15
M TOR 54 8 5 6 16
M TOR 55 8 7 6 15
M TOR 56 8 7 6 16
M  END
$$$$
