gdb 1071	2.7973994	1.3074575	1.2339074	1.5818	74.75	-0.24633	-0.02033	0.22599999999999998	1117.1482	0.15407	-422.537867	-422.528554	-422.52761	-422.57266	33.897
 OpenBabel02181911403D

 19 20  0  0  1  0  0  0  0  0999 V2000
    1.7300   -0.8922   -2.2039 C   0  0  0  0  0  0  0  0  0  0  0  0
    0.7252   -0.9975   -1.0674 C   0  0  0  0  0  0  0  0  0  0  0  0
    0.2928   -2.0708   -0.7151 O   0  0  0  0  0  0  0  0  0  0  0  0
    0.2837    0.3122   -0.4064 C   0  0  2  0  0  0  0  0  0  0  0  0
    1.4087    0.8868    0.4619 C   0  0  0  0  0  0  0  0  0  0  0  0
   -1.1280    0.1935    0.2760 C   0  0  0  0  0  0  0  0  0  0  0  0
   -1.6695    1.1855   -0.7580 C   0  0  1  0  0  0  0  0  0  0  0  0
   -0.8970    2.3925   -0.6456 O   0  0  0  0  0  0  0  0  0  0  0  0
   -0.3596    1.3137   -1.4105 C   0  0  1  0  0  0  0  0  0  0  0  0
    2.1869   -1.8671   -2.3779 H   0  0  0  0  0  0  0  0  0  0  0  0
    1.1995   -0.5924   -3.1164 H   0  0  0  0  0  0  0  0  0  0  0  0
    2.5002   -0.1394   -2.0190 H   0  0  0  0  0  0  0  0  0  0  0  0
    1.6361    0.2125    1.2938 H   0  0  0  0  0  0  0  0  0  0  0  0
    2.3309    1.0500   -0.1044 H   0  0  0  0  0  0  0  0  0  0  0  0
    1.0855    1.8472    0.8703 H   0  0  0  0  0  0  0  0  0  0  0  0
   -1.5268   -0.8170    0.1799 H   0  0  0  0  0  0  0  0  0  0  0  0
   -1.1940    0.5263    1.3143 H   0  0  0  0  0  0  0  0  0  0  0  0
   -2.6697    1.2800   -1.1639 H   0  0  0  0  0  0  0  0  0  0  0  0
   -0.0840    1.5239   -2.4383 H   0  0  0  0  0  0  0  0  0  0  0  0
  1 12  1  0  0  0  0
  1  2  1  0  0  0  0
  2  3  2  0  0  0  0
  4  2  1  6  0  0  0
  4  6  1  0  0  0  0
  4  5  1  0  0  0  0
  5 15  1  0  0  0  0
  5 13  1  0  0  0  0
  6 17  1  0  0  0  0
  7 18  1  6  0  0  0
  7  8  1  0  0  0  0
  7  6  1  0  0  0  0
  9 19  1  6  0  0  0
  9  7  1  0  0  0  0
  9  8  1  0  0  0  0
  9  4  1  0  0  0  0
 10  1  1  0  0  0  0
 11  1  1  0  0  0  0
 14  5  1  0  0  0  0
 16  6  1  0  0  0  0
M TOR 0 0 1 3 4
M TOR 1 0 1 3 5
M TOR 2 0 1 3 8
M TOR 3 1 3 4 12
M TOR 4 1 3 4 13
M TOR 5 1 3 4 14
M TOR 6 1 3 5 6
M TOR 7 1 3 5 15
M TOR 8 1 3 5 16
M TOR 9 1 3 8 6
M TOR 10 1 3 8 7
M TOR 11 1 3 8 18
M TOR 12 2 1 0 9
M TOR 13 2 1 0 10
M TOR 14 2 1 0 11
M TOR 15 2 1 3 4
M TOR 16 2 1 3 5
M TOR 17 2 1 3 8
M TOR 18 3 1 0 9
M TOR 19 3 1 0 10
M TOR 20 3 1 0 11
M TOR 21 3 5 6 7
M TOR 22 3 5 6 8
M TOR 23 3 5 6 17
M TOR 24 3 8 6 7
M TOR 25 3 8 6 17
M TOR 26 4 3 5 6
M TOR 27 4 3 5 15
M TOR 28 4 3 5 16
M TOR 29 4 3 8 6
M TOR 30 4 3 8 7
M TOR 31 4 3 8 18
M TOR 32 5 3 4 12
M TOR 33 5 3 4 13
M TOR 34 5 3 4 14
M TOR 35 5 3 8 7
M TOR 36 5 3 8 18
M TOR 37 5 6 7 8
M TOR 38 5 6 8 18
M TOR 39 6 7 8 18
M TOR 40 7 6 5 15
M TOR 41 7 6 5 16
M TOR 42 7 8 6 17
M TOR 43 8 3 4 12
M TOR 44 8 3 4 13
M TOR 45 8 3 4 14
M TOR 46 8 3 5 15
M TOR 47 8 3 5 16
M TOR 48 8 6 5 15
M TOR 49 8 6 5 16
M  END
$$$$
