
     RDKit          3D

 19 20  0  0  0  0  0  0  0  0999 V2000
    0.0484    0.1300   -0.0684 O   0  0  0  0  0  0  0  0  0  0  0  0
   -0.5232    0.9160    0.9592 C   0  0  0  0  0  0  0  0  0  0  0  0
   -1.9215    1.5226    0.6521 C   0  0  0  0  0  0  0  0  0  0  0  0
   -2.5817    0.4642    1.5953 C   0  0  0  0  0  0  0  0  0  0  0  0
   -1.1554    0.1307    2.1429 C   0  0  0  0  0  0  0  0  0  0  0  0
   -3.4885    0.9944    2.5562 O   0  0  0  0  0  0  0  0  0  0  0  0
   -4.7264    0.2899    2.5346 C   0  0  0  0  0  0  0  0  0  0  0  0
   -4.5574   -0.7565    1.4707 C   0  0  0  0  0  0  0  0  0  0  0  0
   -3.3434   -0.6530    0.9436 C   0  0  0  0  0  0  0  0  0  0  0  0
   -0.5955   -0.5274   -0.3512 H   0  0  0  0  0  0  0  0  0  0  0  0
    0.2542    1.6331    1.2292 H   0  0  0  0  0  0  0  0  0  0  0  0
   -2.0488    2.5240    1.0704 H   0  0  0  0  0  0  0  0  0  0  0  0
   -2.2261    1.5292   -0.3984 H   0  0  0  0  0  0  0  0  0  0  0  0
   -1.0026    0.6232    3.1063 H   0  0  0  0  0  0  0  0  0  0  0  0
   -0.8762   -0.9233    2.2285 H   0  0  0  0  0  0  0  0  0  0  0  0
   -4.9281   -0.1459    3.5256 H   0  0  0  0  0  0  0  0  0  0  0  0
   -5.5509    0.9857    2.3136 H   0  0  0  0  0  0  0  0  0  0  0  0
   -5.3292   -1.4670    1.2040 H   0  0  0  0  0  0  0  0  0  0  0  0
   -2.9290   -1.2697    0.1548 H   0  0  0  0  0  0  0  0  0  0  0  0
  1  2  1  0
  2  3  1  0
  3  4  1  0
  4  5  1  0
  4  6  1  0
  6  7  1  0
  7  8  1  0
  8  9  2  0
  5  2  1  0
  9  4  1  0
  1 10  1  0
  2 11  1  0
  3 12  1  0
  3 13  1  0
  5 14  1  0
  5 15  1  0
  7 16  1  0
  7 17  1  0
  8 18  1  0
  9 19  1  0
M  END
$$$$
