gdb 5980	3.5766115	1.1990974	1.02079	1.3931	76.08	-0.22985	0.06493	0.29478	1216.5909	0.155777	-422.450001	-422.441629	-422.440684	-422.483722	30.914
 OpenBabel02181911423D

 19 21  0  0  1  0  0  0  0  0999 V2000
    1.4594    0.6488    0.1013 C   0  0  0  0  0  0  0  0  0  0  0  0
    0.1201    1.0001    0.3608 O   0  0  0  0  0  0  0  0  0  0  0  0
   -0.5630    0.0329    1.1250 C   0  0  0  0  0  0  0  0  0  0  0  0
   -1.9675    0.5138    1.3365 C   0  0  1  0  0  0  0  0  0  0  0  0
   -2.8697   -0.3354    2.1102 O   0  0  0  0  0  0  0  0  0  0  0  0
   -3.6719    0.8285    1.7416 C   0  0  1  0  0  0  0  0  0  0  0  0
   -2.5141    1.8566    1.9271 C   0  0  2  0  0  0  0  0  0  0  0  0
   -2.7409    2.4635    0.5251 C   0  0  0  0  0  0  0  0  0  0  0  0
   -3.0619    0.9677    0.3132 C   0  0  1  0  0  0  0  0  0  0  0  0
    1.5308   -0.2918   -0.4668 H   0  0  0  0  0  0  0  0  0  0  0  0
    1.8985    1.4548   -0.4912 H   0  0  0  0  0  0  0  0  0  0  0  0
    2.0375    0.5334    1.0313 H   0  0  0  0  0  0  0  0  0  0  0  0
   -0.5827   -0.9431    0.6113 H   0  0  0  0  0  0  0  0  0  0  0  0
   -0.0770   -0.1213    2.1033 H   0  0  0  0  0  0  0  0  0  0  0  0
   -4.7098    0.8736    2.0691 H   0  0  0  0  0  0  0  0  0  0  0  0
   -2.2048    2.3275    2.8603 H   0  0  0  0  0  0  0  0  0  0  0  0
   -3.5823    3.1556    0.4295 H   0  0  0  0  0  0  0  0  0  0  0  0
   -1.8568    2.8460    0.0143 H   0  0  0  0  0  0  0  0  0  0  0  0
   -3.3736    0.4311   -0.5830 H   0  0  0  0  0  0  0  0  0  0  0  0
  1  2  1  0  0  0  0
  1 12  1  0  0  0  0
  2  3  1  0  0  0  0
  3 14  1  0  0  0  0
  4  3  1  6  0  0  0
  4  7  1  0  0  0  0
  4  5  1  0  0  0  0
  6  7  1  0  0  0  0
  6 15  1  1  0  0  0
  6  5  1  0  0  0  0
  7 16  1  1  0  0  0
  8  7  1  0  0  0  0
  9 19  1  6  0  0  0
  9  8  1  0  0  0  0
  9  4  1  0  0  0  0
  9  6  1  0  0  0  0
 10  1  1  0  0  0  0
 11  1  1  0  0  0  0
 13  3  1  0  0  0  0
 17  8  1  0  0  0  0
 18  8  1  0  0  0  0
M TOR 0 0 1 2 3
M TOR 1 0 1 2 12
M TOR 2 0 1 2 13
M TOR 3 1 2 3 4
M TOR 4 1 2 3 6
M TOR 5 1 2 3 8
M TOR 6 2 1 0 9
M TOR 7 2 1 0 10
M TOR 8 2 1 0 11
M TOR 9 2 3 4 5
M TOR 10 2 3 6 5
M TOR 11 2 3 6 7
M TOR 12 2 3 6 15
M TOR 13 2 3 8 5
M TOR 14 2 3 8 7
M TOR 15 2 3 8 18
M TOR 16 3 4 5 6
M TOR 17 3 4 5 8
M TOR 18 3 4 5 14
M TOR 19 3 6 5 8
M TOR 20 3 6 5 14
M TOR 21 3 6 7 8
M TOR 22 3 6 7 16
M TOR 23 3 6 7 17
M TOR 24 3 8 5 14
M TOR 25 3 8 7 16
M TOR 26 3 8 7 17
M TOR 27 4 3 2 12
M TOR 28 4 3 2 13
M TOR 29 4 3 6 7
M TOR 30 4 3 6 15
M TOR 31 4 3 8 7
M TOR 32 4 3 8 18
M TOR 33 4 5 6 7
M TOR 34 4 5 6 15
M TOR 35 4 5 8 7
M TOR 36 4 5 8 18
M TOR 37 5 6 7 8
M TOR 38 5 6 7 16
M TOR 39 5 6 7 17
M TOR 40 5 8 7 16
M TOR 41 5 8 7 17
M TOR 42 6 3 2 12
M TOR 43 6 3 2 13
M TOR 44 6 3 8 18
M TOR 45 6 5 8 18
M TOR 46 6 7 8 18
M TOR 47 7 6 5 14
M TOR 48 7 8 5 14
M TOR 49 8 3 2 12
M TOR 50 8 3 2 13
M TOR 51 8 3 6 15
M TOR 52 8 5 6 15
M TOR 53 8 7 6 15
M  END
$$$$
