
     RDKit          3D

 19 20  0  0  0  0  0  0  0  0999 V2000
    0.5723    0.9540   -0.0454 C   0  0  0  0  0  0  0  0  0  0  0  0
    0.7520   -0.5639   -0.1536 C   0  0  0  0  0  0  0  0  0  0  0  0
    1.7979   -0.9479   -1.1924 C   0  0  0  0  0  0  0  0  0  0  0  0
    1.4429   -0.4275   -2.5139 O   0  0  0  0  0  0  0  0  0  0  0  0
    1.5051   -1.5889   -3.3532 C   0  0  0  0  0  0  0  0  0  0  0  0
    0.7648   -2.6712   -2.5210 C   0  0  0  0  0  0  0  0  0  0  0  0
    1.9589   -2.4473   -1.5268 C   0  0  0  0  0  0  0  0  0  0  0  0
    2.7827   -2.2959   -2.8322 C   0  0  0  0  0  0  0  0  0  0  0  0
    3.8286   -2.6796   -3.2548 O   0  0  0  0  0  0  0  0  0  0  0  0
   -0.1881    1.2062    0.6992 H   0  0  0  0  0  0  0  0  0  0  0  0
    1.5070    1.4426    0.2509 H   0  0  0  0  0  0  0  0  0  0  0  0
    0.2656    1.3732   -1.0070 H   0  0  0  0  0  0  0  0  0  0  0  0
    1.0711   -0.9762    0.8124 H   0  0  0  0  0  0  0  0  0  0  0  0
   -0.2061   -1.0354   -0.3979 H   0  0  0  0  0  0  0  0  0  0  0  0
    2.7649   -0.5138   -0.9007 H   0  0  0  0  0  0  0  0  0  0  0  0
    1.2903   -1.3353   -4.3879 H   0  0  0  0  0  0  0  0  0  0  0  0
   -0.2331   -2.3975   -2.1774 H   0  0  0  0  0  0  0  0  0  0  0  0
    0.7715   -3.6620   -2.9788 H   0  0  0  0  0  0  0  0  0  0  0  0
    2.2253   -3.1334   -0.7267 H   0  0  0  0  0  0  0  0  0  0  0  0
  1  2  1  0
  2  3  1  0
  3  4  1  0
  4  5  1  0
  5  6  1  0
  6  7  1  0
  7  8  1  0
  8  9  2  0
  7  3  1  0
  8  5  1  0
  1 10  1  0
  1 11  1  0
  1 12  1  0
  2 13  1  0
  2 14  1  0
  3 15  1  0
  5 16  1  0
  6 17  1  0
  6 18  1  0
  7 19  1  0
M  END
$$$$
