
     RDKit          3D

 19 19  0  0  0  0  0  0  0  0999 V2000
   -2.2738   -3.3433   -0.5291 O   0  0  0  0  0  0  0  0  0  0  0  0
   -1.6153   -2.7282   -1.3251 C   0  0  0  0  0  0  0  0  0  0  0  0
   -0.1897   -2.2634   -1.0674 C   0  0  0  0  0  0  0  0  0  0  0  0
    0.0080   -0.8158   -1.5303 C   0  0  0  0  0  0  0  0  0  0  0  0
   -0.3200   -0.4847   -2.6479 O   0  0  0  0  0  0  0  0  0  0  0  0
    0.5583    0.1485   -0.5108 C   0  0  0  0  0  0  0  0  0  0  0  0
   -0.4569    0.6269    0.5907 C   0  0  0  0  0  0  0  0  0  0  0  0
    0.1141    2.0610    0.4214 C   0  0  0  0  0  0  0  0  0  0  0  0
    0.7581    1.6261   -0.9225 C   0  0  0  0  0  0  0  0  0  0  0  0
   -2.0051   -2.4434   -2.3238 H   0  0  0  0  0  0  0  0  0  0  0  0
    0.0676   -2.4266   -0.0191 H   0  0  0  0  0  0  0  0  0  0  0  0
    0.4675   -2.8825   -1.6937 H   0  0  0  0  0  0  0  0  0  0  0  0
    1.4457   -0.2874   -0.0392 H   0  0  0  0  0  0  0  0  0  0  0  0
   -1.4911    0.5529    0.2427 H   0  0  0  0  0  0  0  0  0  0  0  0
   -0.3835    0.1573    1.5733 H   0  0  0  0  0  0  0  0  0  0  0  0
   -0.6075    2.8800    0.3913 H   0  0  0  0  0  0  0  0  0  0  0  0
    0.8651    2.2882    1.1828 H   0  0  0  0  0  0  0  0  0  0  0  0
    0.1360    1.8637   -1.7882 H   0  0  0  0  0  0  0  0  0  0  0  0
    1.7805    1.9519   -1.1233 H   0  0  0  0  0  0  0  0  0  0  0  0
  1  2  2  0
  2  3  1  0
  3  4  1  0
  4  5  2  0
  4  6  1  0
  6  7  1  0
  7  8  1  0
  8  9  1  0
  9  6  1  0
  2 10  1  0
  3 11  1  0
  3 12  1  0
  6 13  1  0
  7 14  1  0
  7 15  1  0
  8 16  1  0
  8 17  1  0
  9 18  1  0
  9 19  1  0
M  END
$$$$
