
     RDKit          3D

 19 21  0  0  0  0  0  0  0  0999 V2000
    0.1918   -0.5961   -0.4144 C   0  0  0  0  0  0  0  0  0  0  0  0
    1.5352   -0.0398   -0.0275 C   0  0  0  0  0  0  0  0  0  0  0  0
    1.7095    1.3751   -0.2191 O   0  0  0  0  0  0  0  0  0  0  0  0
    2.5437    0.4790   -0.9721 C   0  0  0  0  0  0  0  0  0  0  0  0
    3.9457    0.3910   -0.3987 C   0  0  0  0  0  0  0  0  0  0  0  0
    3.7547   -0.2610    0.9824 C   0  0  0  0  0  0  0  0  0  0  0  0
    3.9882   -1.6915    0.9480 O   0  0  0  0  0  0  0  0  0  0  0  0
    2.6276   -1.9790    1.3247 C   0  0  0  0  0  0  0  0  0  0  0  0
    2.2385   -0.4897    1.2407 C   0  0  0  0  0  0  0  0  0  0  0  0
   -0.5588   -0.3493    0.3449 H   0  0  0  0  0  0  0  0  0  0  0  0
   -0.1377   -0.1721   -1.3659 H   0  0  0  0  0  0  0  0  0  0  0  0
    0.2251   -1.6859   -0.5115 H   0  0  0  0  0  0  0  0  0  0  0  0
    2.3790    0.4905   -2.0474 H   0  0  0  0  0  0  0  0  0  0  0  0
    4.6017   -0.2389   -1.0074 H   0  0  0  0  0  0  0  0  0  0  0  0
    4.3917    1.3885   -0.3310 H   0  0  0  0  0  0  0  0  0  0  0  0
    4.3386    0.2125    1.7781 H   0  0  0  0  0  0  0  0  0  0  0  0
    2.1400   -2.6621    0.6180 H   0  0  0  0  0  0  0  0  0  0  0  0
    2.5651   -2.4101    2.3321 H   0  0  0  0  0  0  0  0  0  0  0  0
    1.7936   -0.0513    2.1360 H   0  0  0  0  0  0  0  0  0  0  0  0
  1  2  1  0
  2  3  1  0
  3  4  1  0
  4  5  1  0
  5  6  1  0
  6  7  1  0
  7  8  1  0
  8  9  1  0
  4  2  1  0
  9  6  1  0
  9  2  1  0
  1 10  1  0
  1 11  1  0
  1 12  1  0
  4 13  1  0
  5 14  1  0
  5 15  1  0
  6 16  1  0
  8 17  1  0
  8 18  1  0
  9 19  1  0
M  END
$$$$
