gdb 3869	2.7638323	1.2934523	1.0495396	3.0149	78.36	-0.25449	-0.03686	0.21763	1205.2969	0.154016	-422.542124	-422.53276	-422.531816	-422.576023	34.223
 OpenBabel02181911413D

 19 20  0  0  1  0  0  0  0  0999 V2000
    2.4292   -1.1434   -1.1513 C   0  0  0  0  0  0  0  0  0  0  0  0
    1.8809   -0.0901   -0.1988 C   0  0  2  0  0  0  0  0  0  0  0  0
    2.7184    1.2211    0.0286 C   0  0  0  0  0  0  0  0  0  0  0  0
    2.7951    0.8751    1.5128 C   0  0  2  0  0  0  0  0  0  0  0  0
    3.3848   -0.4352    1.6313 O   0  0  0  0  0  0  0  0  0  0  0  0
    2.0009   -0.3856    1.3158 C   0  0  2  0  0  0  0  0  0  0  0  0
    1.0388   -1.1273    2.1877 C   0  0  0  0  0  0  0  0  0  0  0  0
    2.8338    1.7575    2.6893 C   0  0  0  0  0  0  0  0  0  0  0  0
    2.7223    2.9591    2.6289 O   0  0  0  0  0  0  0  0  0  0  0  0
    3.4458   -1.4252   -0.8629 H   0  0  0  0  0  0  0  0  0  0  0  0
    1.8089   -2.0463   -1.1495 H   0  0  0  0  0  0  0  0  0  0  0  0
    2.4578   -0.7623   -2.1773 H   0  0  0  0  0  0  0  0  0  0  0  0
    0.8459    0.1631   -0.4494 H   0  0  0  0  0  0  0  0  0  0  0  0
    3.6863    1.2717   -0.4754 H   0  0  0  0  0  0  0  0  0  0  0  0
    2.1549    2.1356   -0.1616 H   0  0  0  0  0  0  0  0  0  0  0  0
    1.3199   -1.0464    3.2402 H   0  0  0  0  0  0  0  0  0  0  0  0
    0.0229   -0.7414    2.0602 H   0  0  0  0  0  0  0  0  0  0  0  0
    1.0304   -2.1902    1.9200 H   0  0  0  0  0  0  0  0  0  0  0  0
    2.9600    1.2190    3.6534 H   0  0  0  0  0  0  0  0  0  0  0  0
  1 11  1  0  0  0  0
  1 10  1  0  0  0  0
  1  2  1  0  0  0  0
  2 13  1  6  0  0  0
  2  3  1  0  0  0  0
  2  6  1  0  0  0  0
  3  4  1  0  0  0  0
  4  5  1  0  0  0  0
  4  8  1  1  0  0  0
  6  4  1  0  0  0  0
  6  5  1  0  0  0  0
  6  7  1  1  0  0  0
  7 16  1  0  0  0  0
  8 19  1  0  0  0  0
  9  8  2  0  0  0  0
 12  1  1  0  0  0  0
 14  3  1  0  0  0  0
 15  3  1  0  0  0  0
 17  7  1  0  0  0  0
 18  7  1  0  0  0  0
M TOR 0 0 1 2 3
M TOR 1 0 1 2 13
M TOR 2 0 1 2 14
M TOR 3 0 1 5 3
M TOR 4 0 1 5 4
M TOR 5 0 1 5 6
M TOR 6 1 2 3 4
M TOR 7 1 2 3 5
M TOR 8 1 2 3 7
M TOR 9 1 5 3 4
M TOR 10 1 5 3 7
M TOR 11 1 5 6 15
M TOR 12 1 5 6 16
M TOR 13 1 5 6 17
M TOR 14 2 1 0 9
M TOR 15 2 1 0 10
M TOR 16 2 1 0 11
M TOR 17 2 1 5 4
M TOR 18 2 1 5 6
M TOR 19 2 3 4 5
M TOR 20 2 3 5 6
M TOR 21 2 3 7 8
M TOR 22 2 3 7 18
M TOR 23 3 2 1 12
M TOR 24 3 4 5 6
M TOR 25 3 5 1 12
M TOR 26 3 5 6 15
M TOR 27 3 5 6 16
M TOR 28 3 5 6 17
M TOR 29 4 3 2 13
M TOR 30 4 3 2 14
M TOR 31 4 3 7 8
M TOR 32 4 3 7 18
M TOR 33 4 5 1 12
M TOR 34 4 5 3 7
M TOR 35 4 5 6 15
M TOR 36 4 5 6 16
M TOR 37 4 5 6 17
M TOR 38 5 1 0 9
M TOR 39 5 1 0 10
M TOR 40 5 1 0 11
M TOR 41 5 1 2 13
M TOR 42 5 1 2 14
M TOR 43 5 3 2 13
M TOR 44 5 3 2 14
M TOR 45 5 3 7 8
M TOR 46 5 3 7 18
M TOR 47 6 5 1 12
M TOR 48 6 5 3 7
M TOR 49 7 3 2 13
M TOR 50 7 3 2 14
M  END
$$$$
