gdb 1398	5.249121	0.5374883	0.5038033	3.2323	79.76	-0.24945	-0.0212	0.22825	2081.2639	0.152798	-422.531128	-422.520331	-422.519387	-422.568475	37.04
 OpenBabel02181911403D

 19 18  0  0  1  0  0  0  0  0999 V2000
   -1.5235    4.8982    0.5005 O   0  0  0  0  0  0  0  0  0  0  0  0
   -2.3563    4.0654    1.3058 C   0  0  1  0  0  0  0  0  0  0  0  0
   -1.6085    2.8106    1.7996 C   0  0  0  0  0  0  0  0  0  0  0  0
   -1.0466    1.9774    0.6445 C   0  0  0  0  0  0  0  0  0  0  0  0
   -0.2411    0.7603    1.1285 C   0  0  0  0  0  0  0  0  0  0  0  0
    0.3896    0.0104   -0.0229 C   0  0  0  0  0  0  0  0  0  0  0  0
    0.2497   -1.1643   -0.2447 O   0  0  0  0  0  0  0  0  0  0  0  0
   -2.9384    4.8090    2.4259 C   0  0  0  0  0  0  0  0  0  0  0  0
   -3.3661    5.4275    3.3639 C   0  0  0  0  0  0  0  0  0  0  0  0
   -0.9480    5.3922    1.0952 H   0  0  0  0  0  0  0  0  0  0  0  0
   -3.1621    3.7474    0.6317 H   0  0  0  0  0  0  0  0  0  0  0  0
   -0.7972    3.1298    2.4673 H   0  0  0  0  0  0  0  0  0  0  0  0
   -2.2954    2.2111    2.4084 H   0  0  0  0  0  0  0  0  0  0  0  0
   -1.8716    1.6357    0.0060 H   0  0  0  0  0  0  0  0  0  0  0  0
   -0.4172    2.6200    0.0192 H   0  0  0  0  0  0  0  0  0  0  0  0
    0.5754    1.1066    1.7799 H   0  0  0  0  0  0  0  0  0  0  0  0
   -0.8580    0.0633    1.7036 H   0  0  0  0  0  0  0  0  0  0  0  0
    1.0190    0.6474   -0.6893 H   0  0  0  0  0  0  0  0  0  0  0  0
   -3.7645    5.9765    4.1815 H   0  0  0  0  0  0  0  0  0  0  0  0
  1 10  1  0  0  0  0
  1  2  1  0  0  0  0
  2 11  1  6  0  0  0
  2  3  1  0  0  0  0
  2  8  1  0  0  0  0
  3 13  1  0  0  0  0
  3 12  1  0  0  0  0
  4  5  1  0  0  0  0
  4  3  1  0  0  0  0
  5 17  1  0  0  0  0
  5 16  1  0  0  0  0
  6  5  1  0  0  0  0
  7  6  2  0  0  0  0
  8  9  3  0  0  0  0
  9 19  1  0  0  0  0
 14  4  1  0  0  0  0
 15  4  1  0  0  0  0
 18  6  1  0  0  0  0
M TOR 0 0 1 2 3
M TOR 1 0 1 2 11
M TOR 2 0 1 2 12
M TOR 3 0 1 7 8
M TOR 4 1 2 3 4
M TOR 5 1 2 3 13
M TOR 6 1 2 3 14
M TOR 7 1 7 8 18
M TOR 8 2 1 0 9
M TOR 9 2 1 7 8
M TOR 10 2 3 4 5
M TOR 11 2 3 4 15
M TOR 12 2 3 4 16
M TOR 13 3 2 1 7
M TOR 14 3 2 1 10
M TOR 15 3 4 5 6
M TOR 16 3 4 5 17
M TOR 17 4 3 2 11
M TOR 18 4 3 2 12
M TOR 19 5 4 3 13
M TOR 20 5 4 3 14
M TOR 21 6 5 4 15
M TOR 22 6 5 4 16
M TOR 23 7 1 0 9
M TOR 24 7 1 2 11
M TOR 25 7 1 2 12
M TOR 26 8 7 1 10
M  END
$$$$
