gdb 730	2.6867046	1.5104557	1.1667068	3.5941	74.61	-0.24325	-0.02734	0.21591	1097.4131	0.157854	-422.567368	-422.559203	-422.558259	-422.600714	30.368
 OpenBabel02181911403D

 19 20  0  0  0  0  0  0  0  0999 V2000
    0.9221    0.0999    0.8641 O   0  0  0  0  0  0  0  0  0  0  0  0
   -0.1263    0.1015    0.2701 C   0  0  0  0  0  0  0  0  0  0  0  0
   -0.8043    1.3138   -0.3731 C   0  0  0  0  0  0  0  0  0  0  0  0
   -2.2182    0.8260   -0.7269 C   0  0  0  0  0  0  0  0  0  0  0  0
   -2.0307   -0.6834   -1.0008 C   0  0  0  0  0  0  0  0  0  0  0  0
   -1.0036   -1.1319    0.0407 C   0  0  0  0  0  0  0  0  0  0  0  0
   -0.2773   -2.4842   -0.1081 C   0  0  0  0  0  0  0  0  0  0  0  0
   -0.8987   -3.0233    1.0751 O   0  0  0  0  0  0  0  0  0  0  0  0
   -1.5418   -1.7726    1.3586 C   0  0  0  0  0  0  0  0  0  0  0  0
   -0.7568    2.1872    0.2813 H   0  0  0  0  0  0  0  0  0  0  0  0
   -0.2330    1.5617   -1.2779 H   0  0  0  0  0  0  0  0  0  0  0  0
   -2.8890    0.9678    0.1284 H   0  0  0  0  0  0  0  0  0  0  0  0
   -2.6584    1.3561   -1.5744 H   0  0  0  0  0  0  0  0  0  0  0  0
   -2.9654   -1.2484   -0.9507 H   0  0  0  0  0  0  0  0  0  0  0  0
   -1.6171   -0.8292   -2.0074 H   0  0  0  0  0  0  0  0  0  0  0  0
   -0.5332   -3.0579   -1.0074 H   0  0  0  0  0  0  0  0  0  0  0  0
    0.8119   -2.4155   -0.0024 H   0  0  0  0  0  0  0  0  0  0  0  0
   -2.6342   -1.8653    1.4143 H   0  0  0  0  0  0  0  0  0  0  0  0
   -1.1628   -1.3168    2.2816 H   0  0  0  0  0  0  0  0  0  0  0  0
  2  1  2  0  0  0  0
  3  2  1  0  0  0  0
  3 10  1  0  0  0  0
  4  3  1  0  0  0  0
  4 12  1  0  0  0  0
  5 14  1  0  0  0  0
  5  4  1  0  0  0  0
  5  6  1  0  0  0  0
  6  2  1  0  0  0  0
  6  9  1  0  0  0  0
  7 17  1  0  0  0  0
  7  6  1  0  0  0  0
  7  8  1  0  0  0  0
  8  9  1  0  0  0  0
  9 18  1  0  0  0  0
  9 19  1  0  0  0  0
 11  3  1  0  0  0  0
 13  4  1  0  0  0  0
 15  5  1  0  0  0  0
 16  7  1  0  0  0  0
M TOR 0 0 1 2 3
M TOR 1 0 1 2 9
M TOR 2 0 1 2 10
M TOR 3 0 1 5 4
M TOR 4 0 1 5 6
M TOR 5 0 1 5 8
M TOR 6 1 2 3 4
M TOR 7 1 2 3 11
M TOR 8 1 2 3 12
M TOR 9 1 5 4 3
M TOR 10 1 5 4 13
M TOR 11 1 5 4 14
M TOR 12 1 5 6 7
M TOR 13 1 5 6 15
M TOR 14 1 5 6 16
M TOR 15 1 5 8 7
M TOR 16 1 5 8 17
M TOR 17 1 5 8 18
M TOR 18 2 1 5 4
M TOR 19 2 1 5 6
M TOR 20 2 1 5 8
M TOR 21 2 3 4 5
M TOR 22 2 3 4 13
M TOR 23 2 3 4 14
M TOR 24 3 2 1 5
M TOR 25 3 4 5 6
M TOR 26 3 4 5 8
M TOR 27 4 3 2 9
M TOR 28 4 3 2 10
M TOR 29 4 5 6 7
M TOR 30 4 5 6 15
M TOR 31 4 5 6 16
M TOR 32 4 5 8 7
M TOR 33 4 5 8 17
M TOR 34 4 5 8 18
M TOR 35 5 1 2 9
M TOR 36 5 1 2 10
M TOR 37 5 4 3 11
M TOR 38 5 4 3 12
M TOR 39 5 6 7 8
M TOR 40 6 5 4 13
M TOR 41 6 5 4 14
M TOR 42 6 5 8 17
M TOR 43 6 5 8 18
M TOR 44 6 7 8 17
M TOR 45 6 7 8 18
M TOR 46 8 5 4 13
M TOR 47 8 5 4 14
M TOR 48 8 5 6 15
M TOR 49 8 5 6 16
M TOR 50 8 7 6 15
M TOR 51 8 7 6 16
M  END
$$$$
