
     RDKit          3D

 19 21  0  0  0  0  0  0  0  0999 V2000
    2.8119    1.6037    0.0241 C   0  0  0  0  0  0  0  0  0  0  0  0
    1.7831    0.5008    0.1619 C   0  0  0  0  0  0  0  0  0  0  0  0
    1.5677   -0.4040   -1.0460 C   0  0  0  0  0  0  0  0  0  0  0  0
    0.4228   -1.3620   -0.7609 C   0  0  0  0  0  0  0  0  0  0  0  0
    1.0189   -1.7532    0.5083 O   0  0  0  0  0  0  0  0  0  0  0  0
    2.1783   -0.9460    0.2338 C   0  0  0  0  0  0  0  0  0  0  0  0
    3.4712   -1.5841    0.5870 C   0  0  0  0  0  0  0  0  0  0  0  0
    4.2157   -1.2205    1.8039 C   0  0  0  0  0  0  0  0  0  0  0  0
    4.6534   -0.7896    0.5143 O   0  0  0  0  0  0  0  0  0  0  0  0
    3.1695    1.9375    1.0035 H   0  0  0  0  0  0  0  0  0  0  0  0
    3.6831    1.2745   -0.5447 H   0  0  0  0  0  0  0  0  0  0  0  0
    2.3702    2.4687   -0.4828 H   0  0  0  0  0  0  0  0  0  0  0  0
    0.9000    0.7647    0.7434 H   0  0  0  0  0  0  0  0  0  0  0  0
    2.0218   -0.2004   -2.0068 H   0  0  0  0  0  0  0  0  0  0  0  0
   -0.5796   -0.9355   -0.6339 H   0  0  0  0  0  0  0  0  0  0  0  0
    0.3752   -2.2199   -1.4418 H   0  0  0  0  0  0  0  0  0  0  0  0
    3.5838   -2.6002    0.2065 H   0  0  0  0  0  0  0  0  0  0  0  0
    3.8251   -0.4362    2.4491 H   0  0  0  0  0  0  0  0  0  0  0  0
    4.8496   -1.9619    2.2872 H   0  0  0  0  0  0  0  0  0  0  0  0
  1  2  1  0
  2  3  1  0
  3  4  1  0
  4  5  1  0
  5  6  1  0
  6  7  1  0
  7  8  1  0
  8  9  1  0
  6  2  1  0
  9  7  1  0
  6  3  1  0
  1 10  1  0
  1 11  1  0
  1 12  1  0
  2 13  1  0
  3 14  1  0
  4 15  1  0
  4 16  1  0
  7 17  1  0
  8 18  1  0
  8 19  1  0
M  END
$$$$
