
     RDKit          3D

 19 21  0  0  0  0  0  0  0  0999 V2000
    0.3274    0.5415   -0.0136 C   0  0  0  0  0  0  0  0  0  0  0  0
    0.9414   -0.7685   -0.4639 C   0  0  0  0  0  0  0  0  0  0  0  0
    2.3931   -0.6589   -0.6062 O   0  0  0  0  0  0  0  0  0  0  0  0
    2.6126   -1.6694    0.3825 C   0  0  0  0  0  0  0  0  0  0  0  0
    1.1013   -1.8708    0.6172 C   0  0  0  0  0  0  0  0  0  0  0  0
    1.2593   -3.3257    0.1120 C   0  0  0  0  0  0  0  0  0  0  0  0
    1.7861   -3.2701   -1.2173 O   0  0  0  0  0  0  0  0  0  0  0  0
    2.7105   -3.1489   -0.1316 C   0  0  0  0  0  0  0  0  0  0  0  0
    3.8847   -4.0702   -0.0912 C   0  0  0  0  0  0  0  0  0  0  0  0
    0.7498    0.8697    0.9414 H   0  0  0  0  0  0  0  0  0  0  0  0
    0.5157    1.3226   -0.7566 H   0  0  0  0  0  0  0  0  0  0  0  0
   -0.7569    0.4329    0.1026 H   0  0  0  0  0  0  0  0  0  0  0  0
    0.4956   -1.1189   -1.3998 H   0  0  0  0  0  0  0  0  0  0  0  0
    3.3320   -1.3892    1.1574 H   0  0  0  0  0  0  0  0  0  0  0  0
    0.6279   -1.7267    1.5871 H   0  0  0  0  0  0  0  0  0  0  0  0
    0.6806   -4.2039    0.3779 H   0  0  0  0  0  0  0  0  0  0  0  0
    4.3496   -4.0661    0.9000 H   0  0  0  0  0  0  0  0  0  0  0  0
    3.5780   -5.0921   -0.3309 H   0  0  0  0  0  0  0  0  0  0  0  0
    4.6419   -3.7605   -0.8204 H   0  0  0  0  0  0  0  0  0  0  0  0
  1  2  1  0
  2  3  1  0
  3  4  1  0
  4  5  1  0
  5  6  1  0
  6  7  1  0
  7  8  1  0
  8  9  1  0
  5  2  1  0
  8  6  1  0
  8  4  1  0
  1 10  1  0
  1 11  1  0
  1 12  1  0
  2 13  1  0
  4 14  1  0
  5 15  1  0
  6 16  1  0
  9 17  1  0
  9 18  1  0
  9 19  1  0
M  END
$$$$
