
     RDKit          3D

 19 21  0  0  0  0  0  0  0  0999 V2000
    0.0335   -0.1114   -0.1254 C   0  0  0  0  0  0  0  0  0  0  0  0
    1.5269   -0.1192    0.0189 C   0  0  0  0  0  0  0  0  0  0  0  0
    2.1662   -1.1626   -0.7019 O   0  0  0  0  0  0  0  0  0  0  0  0
    3.4465   -0.6659   -1.1146 C   0  0  0  0  0  0  0  0  0  0  0  0
    3.7447    0.4585   -0.1252 C   0  0  0  0  0  0  0  0  0  0  0  0
    3.6391   -0.0793    1.3406 C   0  0  0  0  0  0  0  0  0  0  0  0
    2.1624    0.3097    1.3534 C   0  0  0  0  0  0  0  0  0  0  0  0
    2.3401    1.1162    0.0549 C   0  0  0  0  0  0  0  0  0  0  0  0
    1.8988    2.3471   -0.3769 O   0  0  0  0  0  0  0  0  0  0  0  0
   -0.4010    0.7209    0.4340 H   0  0  0  0  0  0  0  0  0  0  0  0
   -0.2489   -0.0030   -1.1767 H   0  0  0  0  0  0  0  0  0  0  0  0
   -0.3952   -1.0457    0.2501 H   0  0  0  0  0  0  0  0  0  0  0  0
    4.1631   -1.4927   -1.0711 H   0  0  0  0  0  0  0  0  0  0  0  0
    3.4000   -0.2893   -2.1486 H   0  0  0  0  0  0  0  0  0  0  0  0
    4.5975    1.0905   -0.3721 H   0  0  0  0  0  0  0  0  0  0  0  0
    3.8775   -1.1390    1.4784 H   0  0  0  0  0  0  0  0  0  0  0  0
    4.2278    0.5177    2.0420 H   0  0  0  0  0  0  0  0  0  0  0  0
    1.5470    0.5101    2.2242 H   0  0  0  0  0  0  0  0  0  0  0  0
    2.3375    3.0304    0.1424 H   0  0  0  0  0  0  0  0  0  0  0  0
  1  2  1  0
  2  3  1  0
  3  4  1  0
  4  5  1  0
  5  6  1  0
  6  7  1  0
  7  8  1  0
  8  9  1  0
  7  2  1  0
  8  2  1  0
  8  5  1  0
  1 10  1  0
  1 11  1  0
  1 12  1  0
  4 13  1  0
  4 14  1  0
  5 15  1  0
  6 16  1  0
  6 17  1  0
  7 18  1  0
  9 19  1  0
M  END
$$$$
