
     RDKit          3D

 19 20  0  0  0  0  0  0  0  0999 V2000
    1.3319    0.8494    0.2287 C   0  0  0  0  0  0  0  0  0  0  0  0
   -0.0500    0.2794    0.2678 C   0  0  0  0  0  0  0  0  0  0  0  0
   -1.2055    0.9407    0.1108 C   0  0  0  0  0  0  0  0  0  0  0  0
   -2.3911    0.0565    0.2643 C   0  0  0  0  0  0  0  0  0  0  0  0
   -2.5390   -0.5867    1.6465 C   0  0  0  0  0  0  0  0  0  0  0  0
   -3.7600   -1.1976    1.9685 O   0  0  0  0  0  0  0  0  0  0  0  0
   -1.8053   -1.3281    0.5666 C   0  0  0  0  0  0  0  0  0  0  0  0
   -2.3432   -2.5183    0.1015 O   0  0  0  0  0  0  0  0  0  0  0  0
   -0.2917   -1.2030    0.4945 C   0  0  0  0  0  0  0  0  0  0  0  0
    1.8558    0.7019    1.1818 H   0  0  0  0  0  0  0  0  0  0  0  0
    1.9418    0.3550   -0.5387 H   0  0  0  0  0  0  0  0  0  0  0  0
    1.3182    1.9216    0.0141 H   0  0  0  0  0  0  0  0  0  0  0  0
   -1.2819    2.0076   -0.0734 H   0  0  0  0  0  0  0  0  0  0  0  0
   -3.2896    0.1822   -0.3321 H   0  0  0  0  0  0  0  0  0  0  0  0
   -2.0043   -0.1429    2.4871 H   0  0  0  0  0  0  0  0  0  0  0  0
   -4.4433   -0.5211    2.0136 H   0  0  0  0  0  0  0  0  0  0  0  0
   -3.1809   -2.6355    0.5711 H   0  0  0  0  0  0  0  0  0  0  0  0
    0.1978   -1.5728    1.4045 H   0  0  0  0  0  0  0  0  0  0  0  0
    0.0969   -1.8082   -0.3364 H   0  0  0  0  0  0  0  0  0  0  0  0
  1  2  1  0
  2  3  2  0
  3  4  1  0
  4  5  1  0
  5  6  1  0
  5  7  1  0
  7  8  1  0
  7  9  1  0
  9  2  1  0
  7  4  1  0
  1 10  1  0
  1 11  1  0
  1 12  1  0
  3 13  1  0
  4 14  1  0
  5 15  1  0
  6 16  1  0
  8 17  1  0
  9 18  1  0
  9 19  1  0
M  END
$$$$
