gdb 3186	2.4495443	1.671247	1.0856533	3.1181	74.57	-0.24572	-0.02392	0.2218	1110.6366	0.158057	-422.579107	-422.571152	-422.570207	-422.611451	31.374
 OpenBabel02181911413D

 19 20  0  0  1  0  0  0  0  0999 V2000
   -0.1386   -2.4237    0.4032 O   0  0  0  0  0  0  0  0  0  0  0  0
   -0.8543   -1.2934   -0.0022 C   0  0  1  0  0  0  0  0  0  0  0  0
   -2.2120   -1.1783    0.6907 C   0  0  2  0  0  0  0  0  0  0  0  0
   -3.4914   -1.1533   -0.1023 C   0  0  0  0  0  0  0  0  0  0  0  0
   -2.9451    0.1294    0.4714 C   0  0  2  0  0  0  0  0  0  0  0  0
   -2.2115    1.1373   -0.4069 C   0  0  0  0  0  0  0  0  0  0  0  0
   -0.7598    1.3069    0.0761 C   0  0  0  0  0  0  0  0  0  0  0  0
   -0.0483   -0.0214    0.2848 C   0  0  0  0  0  0  0  0  0  0  0  0
    1.0925   -0.1116    0.6852 O   0  0  0  0  0  0  0  0  0  0  0  0
    0.7332   -2.0847    0.6673 H   0  0  0  0  0  0  0  0  0  0  0  0
   -1.0151   -1.3130   -1.0967 H   0  0  0  0  0  0  0  0  0  0  0  0
   -2.2217   -1.6289    1.6772 H   0  0  0  0  0  0  0  0  0  0  0  0
   -3.4240   -1.2998   -1.1769 H   0  0  0  0  0  0  0  0  0  0  0  0
   -4.3789   -1.5812    0.3504 H   0  0  0  0  0  0  0  0  0  0  0  0
   -3.4695    0.5493    1.3245 H   0  0  0  0  0  0  0  0  0  0  0  0
   -2.2119    0.7975   -1.4490 H   0  0  0  0  0  0  0  0  0  0  0  0
   -2.7227    2.1046   -0.4041 H   0  0  0  0  0  0  0  0  0  0  0  0
   -0.1613    1.9136   -0.6132 H   0  0  0  0  0  0  0  0  0  0  0  0
   -0.7302    1.8309    1.0398 H   0  0  0  0  0  0  0  0  0  0  0  0
  1 10  1  0  0  0  0
  2 11  1  6  0  0  0
  2  8  1  0  0  0  0
  2  1  1  0  0  0  0
  2  3  1  0  0  0  0
  3 12  1  1  0  0  0
  4 14  1  0  0  0  0
  4  5  1  0  0  0  0
  4  3  1  0  0  0  0
  5  3  1  0  0  0  0
  5 15  1  1  0  0  0
  6 17  1  0  0  0  0
  6  7  1  0  0  0  0
  6  5  1  0  0  0  0
  7  8  1  0  0  0  0
  7 19  1  0  0  0  0
  8  9  2  0  0  0  0
 13  4  1  0  0  0  0
 16  6  1  0  0  0  0
 18  7  1  0  0  0  0
M TOR 0 0 1 2 3
M TOR 1 0 1 2 4
M TOR 2 0 1 2 11
M TOR 3 0 1 7 6
M TOR 4 0 1 7 8
M TOR 5 1 2 3 4
M TOR 6 1 2 3 12
M TOR 7 1 2 3 13
M TOR 8 1 2 4 5
M TOR 9 1 2 4 14
M TOR 10 1 7 6 5
M TOR 11 1 7 6 17
M TOR 12 1 7 6 18
M TOR 13 2 1 0 9
M TOR 14 2 1 7 6
M TOR 15 2 1 7 8
M TOR 16 2 3 4 5
M TOR 17 2 3 4 14
M TOR 18 2 4 3 12
M TOR 19 2 4 3 13
M TOR 20 2 4 5 6
M TOR 21 2 4 5 15
M TOR 22 2 4 5 16
M TOR 23 3 2 1 7
M TOR 24 3 2 1 10
M TOR 25 3 4 2 11
M TOR 26 3 4 5 6
M TOR 27 3 4 5 15
M TOR 28 3 4 5 16
M TOR 29 4 2 1 7
M TOR 30 4 2 1 10
M TOR 31 4 5 6 7
M TOR 32 4 5 6 17
M TOR 33 4 5 6 18
M TOR 34 5 4 2 11
M TOR 35 5 4 3 12
M TOR 36 5 4 3 13
M TOR 37 5 6 7 8
M TOR 38 6 5 4 14
M TOR 39 6 7 1 10
M TOR 40 7 1 0 9
M TOR 41 7 1 2 11
M TOR 42 7 6 5 15
M TOR 43 7 6 5 16
M TOR 44 8 7 1 10
M TOR 45 8 7 6 17
M TOR 46 8 7 6 18
M  END
$$$$
