gdb 3694	4.423435	0.8316988	0.7815102	4.1313	78.11	-0.2421	-0.02073	0.22137	1466.4905	0.155067	-422.533856	-422.52473	-422.523786	-422.568395	33.483
 OpenBabel02181911413D

 19 20  0  0  1  0  0  0  0  0999 V2000
    2.4306    4.4501   -2.8496 O   0  0  0  0  0  0  0  0  0  0  0  0
    2.9560    4.4045   -1.5560 C   0  0  2  0  0  0  0  0  0  0  0  0
    4.2823    3.7204   -1.3080 C   0  0  0  0  0  0  0  0  0  0  0  0
    2.9914    3.0599   -0.9044 C   0  0  1  0  0  0  0  0  0  0  0  0
    2.4552    2.7231    0.4887 C   0  0  0  0  0  0  0  0  0  0  0  0
    1.4963    1.6775   -0.1778 C   0  0  1  0  0  0  0  0  0  0  0  0
    2.3321    1.8131   -1.4971 C   0  0  0  0  0  0  0  0  0  0  0  0
    1.4716    0.3152    0.4519 C   0  0  0  0  0  0  0  0  0  0  0  0
    0.4834   -0.2832    0.7920 O   0  0  0  0  0  0  0  0  0  0  0  0
    2.9575    5.0680   -3.3668 H   0  0  0  0  0  0  0  0  0  0  0  0
    2.7056    5.2601   -0.9263 H   0  0  0  0  0  0  0  0  0  0  0  0
    4.7944    3.3127   -2.1746 H   0  0  0  0  0  0  0  0  0  0  0  0
    4.9340    4.1164   -0.5348 H   0  0  0  0  0  0  0  0  0  0  0  0
    3.2071    2.2435    1.1260 H   0  0  0  0  0  0  0  0  0  0  0  0
    1.9740    3.5230    1.0569 H   0  0  0  0  0  0  0  0  0  0  0  0
    0.4756    2.0473   -0.2844 H   0  0  0  0  0  0  0  0  0  0  0  0
    3.0316    0.9805   -1.6320 H   0  0  0  0  0  0  0  0  0  0  0  0
    1.7618    1.9531   -2.4163 H   0  0  0  0  0  0  0  0  0  0  0  0
    2.4878   -0.1301    0.5917 H   0  0  0  0  0  0  0  0  0  0  0  0
  1  2  1  0  0  0  0
  2  3  1  0  0  0  0
  2 11  1  1  0  0  0
  2  4  1  0  0  0  0
  3  4  1  0  0  0  0
  3 13  1  0  0  0  0
  4  7  1  6  0  0  0
  4  5  1  0  0  0  0
  5 15  1  0  0  0  0
  5 14  1  0  0  0  0
  6 16  1  6  0  0  0
  6  8  1  0  0  0  0
  6  5  1  0  0  0  0
  7  6  1  0  0  0  0
  8 19  1  0  0  0  0
  8  9  2  0  0  0  0
 10  1  1  0  0  0  0
 12  3  1  0  0  0  0
 17  7  1  0  0  0  0
 18  7  1  0  0  0  0
M TOR 0 0 1 2 3
M TOR 1 0 1 2 11
M TOR 2 0 1 2 12
M TOR 3 0 1 3 4
M TOR 4 0 1 3 6
M TOR 5 1 2 3 4
M TOR 6 1 2 3 6
M TOR 7 1 3 2 11
M TOR 8 1 3 2 12
M TOR 9 1 3 4 5
M TOR 10 1 3 4 13
M TOR 11 1 3 4 14
M TOR 12 1 3 6 5
M TOR 13 1 3 6 16
M TOR 14 1 3 6 17
M TOR 15 2 1 0 9
M TOR 16 2 3 1 10
M TOR 17 2 3 4 5
M TOR 18 2 3 4 13
M TOR 19 2 3 4 14
M TOR 20 2 3 6 5
M TOR 21 2 3 6 16
M TOR 22 2 3 6 17
M TOR 23 3 1 0 9
M TOR 24 3 4 5 6
M TOR 25 3 4 5 7
M TOR 26 3 4 5 15
M TOR 27 3 6 5 7
M TOR 28 3 6 5 15
M TOR 29 4 3 1 10
M TOR 30 4 3 2 11
M TOR 31 4 3 2 12
M TOR 32 4 3 6 16
M TOR 33 4 3 6 17
M TOR 34 4 5 6 16
M TOR 35 4 5 6 17
M TOR 36 4 5 7 8
M TOR 37 4 5 7 18
M TOR 38 6 3 1 10
M TOR 39 6 3 2 11
M TOR 40 6 3 2 12
M TOR 41 6 3 4 13
M TOR 42 6 3 4 14
M TOR 43 6 5 4 13
M TOR 44 6 5 4 14
M TOR 45 6 5 7 8
M TOR 46 6 5 7 18
M TOR 47 7 5 4 13
M TOR 48 7 5 4 14
M TOR 49 7 5 6 16
M TOR 50 7 5 6 17
M TOR 51 8 7 5 15
M  END
$$$$
