gdb 4870	2.3132168	1.3324629	0.995069	2.7688	78.54	-0.23036	0.03432	0.26468	1249.6946	0.152537	-422.510562	-422.500244	-422.4993	-422.545218	38.433
 OpenBabel02181911413D

 19 19  0  0  1  0  0  0  0  0999 V2000
    2.2178   -1.0924    1.3091 C   0  0  0  0  0  0  0  0  0  0  0  0
    1.7577   -0.2758    0.0964 C   0  0  0  0  0  0  0  0  0  0  0  0
    2.0794   -0.9521   -1.2173 C   0  0  2  0  0  0  0  0  0  0  0  0
    1.3703   -2.1554   -1.4239 O   0  0  0  0  0  0  0  0  0  0  0  0
    3.4432   -0.8318   -1.8486 C   0  0  0  0  0  0  0  0  0  0  0  0
    2.2366   -0.1689   -2.5202 C   0  0  1  0  0  0  0  0  0  0  0  0
    1.7320   -0.7829   -3.6675 O   0  0  0  0  0  0  0  0  0  0  0  0
    2.1319    1.2650   -2.5280 C   0  0  0  0  0  0  0  0  0  0  0  0
    2.0576    2.4653   -2.5379 C   0  0  0  0  0  0  0  0  0  0  0  0
    1.7400   -2.0773    1.3197 H   0  0  0  0  0  0  0  0  0  0  0  0
    3.3032   -1.2414    1.3005 H   0  0  0  0  0  0  0  0  0  0  0  0
    1.9567   -0.5865    2.2428 H   0  0  0  0  0  0  0  0  0  0  0  0
    0.6738   -0.1172    0.1431 H   0  0  0  0  0  0  0  0  0  0  0  0
    2.2201    0.7157    0.1050 H   0  0  0  0  0  0  0  0  0  0  0  0
    1.9485   -2.8963   -1.2170 H   0  0  0  0  0  0  0  0  0  0  0  0
    4.1789   -0.2016   -1.3612 H   0  0  0  0  0  0  0  0  0  0  0  0
    3.8392   -1.6887   -2.3844 H   0  0  0  0  0  0  0  0  0  0  0  0
    1.2211   -1.5414   -3.3465 H   0  0  0  0  0  0  0  0  0  0  0  0
    1.9839    3.5244   -2.5545 H   0  0  0  0  0  0  0  0  0  0  0  0
  1 10  1  0  0  0  0
  1 12  1  0  0  0  0
  2 14  1  0  0  0  0
  2 13  1  0  0  0  0
  2  1  1  0  0  0  0
  3  4  1  6  0  0  0
  3  2  1  0  0  0  0
  4 15  1  0  0  0  0
  5 16  1  0  0  0  0
  5  3  1  0  0  0  0
  6  8  1  1  0  0  0
  6  5  1  0  0  0  0
  6  3  1  0  0  0  0
  7 18  1  0  0  0  0
  7  6  1  0  0  0  0
  9  8  3  0  0  0  0
 11  1  1  0  0  0  0
 17  5  1  0  0  0  0
 19  9  1  0  0  0  0
M TOR 0 0 1 2 3
M TOR 1 0 1 2 4
M TOR 2 0 1 2 5
M TOR 3 1 2 3 14
M TOR 4 1 2 4 5
M TOR 5 1 2 4 15
M TOR 6 1 2 4 16
M TOR 7 1 2 5 6
M TOR 8 1 2 5 7
M TOR 9 2 1 0 9
M TOR 10 2 1 0 10
M TOR 11 2 1 0 11
M TOR 12 2 4 5 6
M TOR 13 2 4 5 7
M TOR 14 2 5 4 15
M TOR 15 2 5 4 16
M TOR 16 2 5 6 17
M TOR 17 2 5 7 8
M TOR 18 3 2 1 12
M TOR 19 3 2 1 13
M TOR 20 3 2 4 5
M TOR 21 3 2 4 15
M TOR 22 3 2 4 16
M TOR 23 3 2 5 6
M TOR 24 3 2 5 7
M TOR 25 4 2 1 12
M TOR 26 4 2 1 13
M TOR 27 4 2 3 14
M TOR 28 4 5 6 17
M TOR 29 4 5 7 8
M TOR 30 5 2 1 12
M TOR 31 5 2 1 13
M TOR 32 5 2 3 14
M TOR 33 5 7 8 18
M TOR 34 6 5 4 15
M TOR 35 6 5 4 16
M TOR 36 6 5 7 8
M TOR 37 7 5 4 15
M TOR 38 7 5 4 16
M TOR 39 7 5 6 17
M  END
$$$$
