
     RDKit          3D

 19 21  0  0  0  0  0  0  0  0999 V2000
    2.7003    0.2481   -0.2586 C   0  0  0  0  0  0  0  0  0  0  0  0
    1.3923   -0.3306    0.2915 C   0  0  0  0  0  0  0  0  0  0  0  0
    1.1191   -1.7105   -0.2256 C   0  0  0  0  0  0  0  0  0  0  0  0
    2.1283   -2.8170   -0.4970 C   0  0  0  0  0  0  0  0  0  0  0  0
    3.2353   -2.4588   -1.3103 O   0  0  0  0  0  0  0  0  0  0  0  0
    2.8953   -1.9893   -2.5900 C   0  0  0  0  0  0  0  0  0  0  0  0
    2.8806   -0.5912   -2.6861 O   0  0  0  0  0  0  0  0  0  0  0  0
    2.1188    0.0841   -1.7060 C   0  0  0  0  0  0  0  0  0  0  0  0
    0.8388   -0.5403   -1.1358 C   0  0  0  0  0  0  0  0  0  0  0  0
    2.8482    1.2987    0.0018 H   0  0  0  0  0  0  0  0  0  0  0  0
    3.6117   -0.3097   -0.0437 H   0  0  0  0  0  0  0  0  0  0  0  0
    0.8563    0.0593    1.1485 H   0  0  0  0  0  0  0  0  0  0  0  0
    0.1975   -2.1228    0.1844 H   0  0  0  0  0  0  0  0  0  0  0  0
    2.5612   -3.1788    0.4419 H   0  0  0  0  0  0  0  0  0  0  0  0
    1.5920   -3.6629   -0.9577 H   0  0  0  0  0  0  0  0  0  0  0  0
    3.6748   -2.3176   -3.2833 H   0  0  0  0  0  0  0  0  0  0  0  0
    1.9242   -2.4138   -2.8943 H   0  0  0  0  0  0  0  0  0  0  0  0
    1.9068    1.0639   -2.1395 H   0  0  0  0  0  0  0  0  0  0  0  0
   -0.1577   -0.3525   -1.5187 H   0  0  0  0  0  0  0  0  0  0  0  0
  1  2  1  0
  2  3  1  0
  3  4  1  0
  4  5  1  0
  5  6  1  0
  6  7  1  0
  7  8  1  0
  8  9  1  0
  8  1  1  0
  9  2  1  0
  9  3  1  0
  1 10  1  0
  1 11  1  0
  2 12  1  0
  3 13  1  0
  4 14  1  0
  4 15  1  0
  6 16  1  0
  6 17  1  0
  8 18  1  0
  9 19  1  0
M  END
$$$$
