gdb 3425	2.5981788	1.5639732	1.138021	1.5149	75.	-0.2346	-0.0273	0.2073	1111.6557	0.157279	-422.572702	-422.564347	-422.563403	-422.606199	31.021
 OpenBabel02181911413D

 19 20  0  0  1  0  0  0  0  0999 V2000
   -1.0851    1.9673    1.2574 C   0  0  0  0  0  0  0  0  0  0  0  0
   -1.1241    1.0681    0.0229 C   0  0  2  0  0  0  0  0  0  0  0  0
   -2.1055   -0.1543    0.0457 C   0  0  1  0  0  0  0  0  0  0  0  0
   -2.9159   -0.3234   -1.1001 O   0  0  0  0  0  0  0  0  0  0  0  0
   -2.1242   -0.9140   -2.1276 C   0  0  0  0  0  0  0  0  0  0  0  0
   -1.1489   -1.8666   -1.4143 C   0  0  0  0  0  0  0  0  0  0  0  0
   -0.9066   -1.1556   -0.0711 C   0  0  1  0  0  0  0  0  0  0  0  0
    0.0370    0.0622   -0.0949 C   0  0  0  0  0  0  0  0  0  0  0  0
    1.2285    0.1791   -0.1390 O   0  0  0  0  0  0  0  0  0  0  0  0
   -1.0135    1.3767    2.1772 H   0  0  0  0  0  0  0  0  0  0  0  0
   -0.2166    2.6312    1.2208 H   0  0  0  0  0  0  0  0  0  0  0  0
   -1.9887    2.5813    1.3207 H   0  0  0  0  0  0  0  0  0  0  0  0
   -1.2444    1.6707   -0.8852 H   0  0  0  0  0  0  0  0  0  0  0  0
   -2.7456   -0.2094    0.9283 H   0  0  0  0  0  0  0  0  0  0  0  0
   -2.8020   -1.4168   -2.8217 H   0  0  0  0  0  0  0  0  0  0  0  0
   -1.5736   -0.1428   -2.6889 H   0  0  0  0  0  0  0  0  0  0  0  0
   -1.6231   -2.8356   -1.2349 H   0  0  0  0  0  0  0  0  0  0  0  0
   -0.2295   -2.0336   -1.9807 H   0  0  0  0  0  0  0  0  0  0  0  0
   -0.7191   -1.8445    0.7550 H   0  0  0  0  0  0  0  0  0  0  0  0
  1 12  1  0  0  0  0
  1 10  1  0  0  0  0
  2 13  1  6  0  0  0
  2  3  1  0  0  0  0
  2  1  1  0  0  0  0
  3 14  1  1  0  0  0
  4  3  1  0  0  0  0
  5  6  1  0  0  0  0
  5  4  1  0  0  0  0
  6 17  1  0  0  0  0
  6  7  1  0  0  0  0
  7  3  1  0  0  0  0
  7 19  1  1  0  0  0
  8  7  1  0  0  0  0
  8  2  1  0  0  0  0
  9  8  2  0  0  0  0
 11  1  1  0  0  0  0
 15  5  1  0  0  0  0
 16  5  1  0  0  0  0
 18  6  1  0  0  0  0
M TOR 0 0 1 2 3
M TOR 1 0 1 2 6
M TOR 2 0 1 2 13
M TOR 3 0 1 7 6
M TOR 4 0 1 7 8
M TOR 5 1 2 3 4
M TOR 6 1 2 6 5
M TOR 7 1 2 6 7
M TOR 8 1 2 6 18
M TOR 9 1 7 6 5
M TOR 10 1 7 6 18
M TOR 11 2 1 0 9
M TOR 12 2 1 0 10
M TOR 13 2 1 0 11
M TOR 14 2 1 7 8
M TOR 15 2 3 4 5
M TOR 16 2 3 4 14
M TOR 17 2 3 4 15
M TOR 18 2 6 5 4
M TOR 19 2 6 5 16
M TOR 20 2 6 5 17
M TOR 21 2 6 7 8
M TOR 22 3 2 1 7
M TOR 23 3 2 1 12
M TOR 24 3 2 6 5
M TOR 25 3 2 6 7
M TOR 26 3 2 6 18
M TOR 27 3 4 5 6
M TOR 28 3 4 5 16
M TOR 29 3 4 5 17
M TOR 30 4 3 2 6
M TOR 31 4 3 2 13
M TOR 32 4 5 6 7
M TOR 33 4 5 6 18
M TOR 34 5 6 2 13
M TOR 35 5 6 7 8
M TOR 36 6 2 1 12
M TOR 37 6 5 4 14
M TOR 38 6 5 4 15
M TOR 39 6 7 1 12
M TOR 40 7 1 0 9
M TOR 41 7 1 0 10
M TOR 42 7 1 0 11
M TOR 43 7 1 2 13
M TOR 44 7 6 2 13
M TOR 45 7 6 5 16
M TOR 46 7 6 5 17
M TOR 47 8 7 1 12
M TOR 48 8 7 6 18
M  END
$$$$
