gdb 896	3.792702	1.0757465	1.0325559	3.3574	75.67	-0.23881	-0.01945	0.21936	1217.0043	0.157008	-422.551064	-422.542959	-422.542015	-422.584617	30.543
 OpenBabel02181911403D

 19 20  0  0  1  0  0  0  0  0999 V2000
    1.2970   -0.5714   -0.0462 O   0  0  0  0  0  0  0  0  0  0  0  0
    0.1983   -0.0781   -0.0247 C   0  0  0  0  0  0  0  0  0  0  0  0
   -0.3923    0.7348   -1.1619 C   0  0  0  0  0  0  0  0  0  0  0  0
   -0.9670    2.0520   -0.6941 C   0  0  2  0  0  0  0  0  0  0  0  0
   -1.5466    3.1492   -1.6263 C   0  0  0  0  0  0  0  0  0  0  0  0
   -1.4785    3.9665   -0.2972 C   0  0  2  0  0  0  0  0  0  0  0  0
   -0.1609    3.1857   -0.0003 C   0  0  0  0  0  0  0  0  0  0  0  0
   -2.4632    3.1659    0.5618 C   0  0  0  0  0  0  0  0  0  0  0  0
   -2.0514    1.8185    0.2325 O   0  0  0  0  0  0  0  0  0  0  0  0
   -0.4731   -0.1937    0.8522 H   0  0  0  0  0  0  0  0  0  0  0  0
    0.3776    0.8894   -1.9220 H   0  0  0  0  0  0  0  0  0  0  0  0
   -1.2074    0.1444   -1.6043 H   0  0  0  0  0  0  0  0  0  0  0  0
   -0.8358    3.5003   -2.3760 H   0  0  0  0  0  0  0  0  0  0  0  0
   -2.5260    2.9547   -2.0710 H   0  0  0  0  0  0  0  0  0  0  0  0
   -1.5427    5.0529   -0.2682 H   0  0  0  0  0  0  0  0  0  0  0  0
    0.6849    3.5372   -0.5932 H   0  0  0  0  0  0  0  0  0  0  0  0
    0.1288    3.0293    1.0419 H   0  0  0  0  0  0  0  0  0  0  0  0
   -2.3499    3.3414    1.6379 H   0  0  0  0  0  0  0  0  0  0  0  0
   -3.5126    3.3150    0.2829 H   0  0  0  0  0  0  0  0  0  0  0  0
  1  2  2  0  0  0  0
  2 10  1  0  0  0  0
  3  2  1  0  0  0  0
  4  3  1  6  0  0  0
  4  7  1  0  0  0  0
  4  9  1  0  0  0  0
  5  4  1  0  0  0  0
  5  6  1  0  0  0  0
  6 15  1  6  0  0  0
  6  7  1  0  0  0  0
  6  8  1  0  0  0  0
  7 17  1  0  0  0  0
  8 18  1  0  0  0  0
  9  8  1  0  0  0  0
 11  3  1  0  0  0  0
 12  3  1  0  0  0  0
 13  5  1  0  0  0  0
 14  5  1  0  0  0  0
 16  7  1  0  0  0  0
 19  8  1  0  0  0  0
M TOR 0 0 1 2 3
M TOR 1 0 1 2 10
M TOR 2 0 1 2 11
M TOR 3 1 2 3 4
M TOR 4 1 2 3 6
M TOR 5 1 2 3 8
M TOR 6 2 3 4 5
M TOR 7 2 3 4 12
M TOR 8 2 3 4 13
M TOR 9 2 3 6 5
M TOR 10 2 3 6 15
M TOR 11 2 3 6 16
M TOR 12 2 3 8 7
M TOR 13 3 2 1 9
M TOR 14 3 4 5 6
M TOR 15 3 4 5 7
M TOR 16 3 4 5 14
M TOR 17 3 6 5 7
M TOR 18 3 6 5 14
M TOR 19 3 8 7 5
M TOR 20 3 8 7 17
M TOR 21 3 8 7 18
M TOR 22 4 3 2 10
M TOR 23 4 3 2 11
M TOR 24 4 3 6 15
M TOR 25 4 3 6 16
M TOR 26 4 3 8 7
M TOR 27 4 5 6 15
M TOR 28 4 5 6 16
M TOR 29 4 5 7 8
M TOR 30 4 5 7 17
M TOR 31 4 5 7 18
M TOR 32 5 4 3 8
M TOR 33 5 6 3 8
M TOR 34 6 3 2 10
M TOR 35 6 3 2 11
M TOR 36 6 3 4 12
M TOR 37 6 3 4 13
M TOR 38 6 3 8 7
M TOR 39 6 5 4 12
M TOR 40 6 5 4 13
M TOR 41 6 5 7 8
M TOR 42 6 5 7 17
M TOR 43 6 5 7 18
M TOR 44 7 5 4 12
M TOR 45 7 5 4 13
M TOR 46 7 5 6 15
M TOR 47 7 5 6 16
M TOR 48 8 3 2 10
M TOR 49 8 3 2 11
M TOR 50 8 3 4 12
M TOR 51 8 3 4 13
M TOR 52 8 3 6 15
M TOR 53 8 3 6 16
M TOR 54 8 7 5 14
M  END
$$$$
