
     RDKit          3D

 19 19  0  0  0  0  0  0  0  0999 V2000
    4.1998    1.8905    4.5024 C   0  0  0  0  0  0  0  0  0  0  0  0
    3.2022    2.0351    3.3472 C   0  0  0  0  0  0  0  0  0  0  0  0
    3.2782    0.8784    2.3813 C   0  0  0  0  0  0  0  0  0  0  0  0
    4.4016    0.8561    1.4850 O   0  0  0  0  0  0  0  0  0  0  0  0
    3.1006    1.0346    0.9338 C   0  0  0  0  0  0  0  0  0  0  0  0
    2.5855   -0.0971    0.0570 C   0  0  0  0  0  0  0  0  0  0  0  0
    3.1781   -0.0740   -1.2362 O   0  0  0  0  0  0  0  0  0  0  0  0
    1.1208   -0.0600   -0.0091 C   0  0  0  0  0  0  0  0  0  0  0  0
   -0.0757    0.0249   -0.0888 C   0  0  0  0  0  0  0  0  0  0  0  0
    4.0060    0.9818    5.0827 H   0  0  0  0  0  0  0  0  0  0  0  0
    5.2234    1.8330    4.1207 H   0  0  0  0  0  0  0  0  0  0  0  0
    4.1372    2.7426    5.1854 H   0  0  0  0  0  0  0  0  0  0  0  0
    2.1781    2.0968    3.7372 H   0  0  0  0  0  0  0  0  0  0  0  0
    3.3935    2.9650    2.8002 H   0  0  0  0  0  0  0  0  0  0  0  0
    3.0503   -0.1005    2.8107 H   0  0  0  0  0  0  0  0  0  0  0  0
    2.9030    2.0338    0.5393 H   0  0  0  0  0  0  0  0  0  0  0  0
    2.9163   -1.0412    0.5045 H   0  0  0  0  0  0  0  0  0  0  0  0
    2.7664    0.6405   -1.7349 H   0  0  0  0  0  0  0  0  0  0  0  0
   -1.1347    0.0765   -0.1547 H   0  0  0  0  0  0  0  0  0  0  0  0
  1  2  1  0
  2  3  1  0
  3  4  1  0
  4  5  1  0
  5  6  1  0
  6  7  1  0
  6  8  1  0
  8  9  3  0
  5  3  1  0
  1 10  1  0
  1 11  1  0
  1 12  1  0
  2 13  1  0
  2 14  1  0
  3 15  1  0
  5 16  1  0
  6 17  1  0
  7 18  1  0
  9 19  1  0
M  END
$$$$
