gdb 5168	3.1426649	1.377249	1.1460547	2.2478	75.64	-0.23516	0.07616	0.31132000000000004	1124.6912	0.155532	-422.480342	-422.471825	-422.470881	-422.513256	32.601
 OpenBabel02181911423D

 19 21  0  0  1  0  0  0  0  0999 V2000
    5.2767   -2.7832   -1.0427 C   0  0  0  0  0  0  0  0  0  0  0  0
    4.0543   -2.0451   -0.6036 C   0  0  1  0  0  0  0  0  0  0  0  0
    2.8122   -2.7981   -0.3926 O   0  0  0  0  0  0  0  0  0  0  0  0
    2.4619   -1.4085   -0.0754 C   0  0  1  0  0  0  0  0  0  0  0  0
    1.0355   -1.1609    0.3042 C   0  0  0  0  0  0  0  0  0  0  0  0
    0.1623   -1.5718   -0.7321 O   0  0  0  0  0  0  0  0  0  0  0  0
    3.8209   -1.0892    0.6197 C   0  0  2  0  0  0  0  0  0  0  0  0
    4.0415    0.1706   -0.2456 C   0  0  0  0  0  0  0  0  0  0  0  0
    3.3361   -0.7985   -1.2181 C   0  0  1  0  0  0  0  0  0  0  0  0
    5.5502   -3.5458   -0.3071 H   0  0  0  0  0  0  0  0  0  0  0  0
    5.1019   -3.2763   -2.0039 H   0  0  0  0  0  0  0  0  0  0  0  0
    6.1181   -2.0924   -1.1557 H   0  0  0  0  0  0  0  0  0  0  0  0
    0.8191   -1.6846    1.2493 H   0  0  0  0  0  0  0  0  0  0  0  0
    0.8681   -0.0909    0.4682 H   0  0  0  0  0  0  0  0  0  0  0  0
    0.4575   -2.4501   -1.0011 H   0  0  0  0  0  0  0  0  0  0  0  0
    4.0841   -1.2868    1.6595 H   0  0  0  0  0  0  0  0  0  0  0  0
    3.4851    1.0664    0.0425 H   0  0  0  0  0  0  0  0  0  0  0  0
    5.0785    0.4280   -0.4773 H   0  0  0  0  0  0  0  0  0  0  0  0
    3.0403   -0.6639   -2.2583 H   0  0  0  0  0  0  0  0  0  0  0  0
  1 10  1  0  0  0  0
  2  1  1  6  0  0  0
  2  3  1  0  0  0  0
  2  7  1  0  0  0  0
  3  4  1  0  0  0  0
  4  5  1  1  0  0  0
  4  7  1  0  0  0  0
  5 14  1  0  0  0  0
  5 13  1  0  0  0  0
  6  5  1  0  0  0  0
  7 16  1  1  0  0  0
  8 17  1  0  0  0  0
  8  7  1  0  0  0  0
  9 19  1  6  0  0  0
  9  2  1  0  0  0  0
  9  8  1  0  0  0  0
  9  4  1  0  0  0  0
 11  1  1  0  0  0  0
 12  1  1  0  0  0  0
 15  6  1  0  0  0  0
 18  8  1  0  0  0  0
M TOR 0 0 1 2 3
M TOR 1 0 1 6 3
M TOR 2 0 1 6 7
M TOR 3 0 1 6 15
M TOR 4 0 1 8 3
M TOR 5 0 1 8 7
M TOR 6 0 1 8 18
M TOR 7 1 2 3 4
M TOR 8 1 2 3 6
M TOR 9 1 2 3 8
M TOR 10 1 6 3 4
M TOR 11 1 6 3 8
M TOR 12 1 6 7 8
M TOR 13 1 6 7 16
M TOR 14 1 6 7 17
M TOR 15 1 8 3 4
M TOR 16 1 8 7 16
M TOR 17 1 8 7 17
M TOR 18 2 1 0 9
M TOR 19 2 1 0 10
M TOR 20 2 1 0 11
M TOR 21 2 1 6 7
M TOR 22 2 1 6 15
M TOR 23 2 1 8 7
M TOR 24 2 1 8 18
M TOR 25 2 3 4 5
M TOR 26 2 3 4 12
M TOR 27 2 3 4 13
M TOR 28 2 3 6 7
M TOR 29 2 3 6 15
M TOR 30 2 3 8 7
M TOR 31 2 3 8 18
M TOR 32 3 4 5 14
M TOR 33 3 6 7 8
M TOR 34 3 6 7 16
M TOR 35 3 6 7 17
M TOR 36 3 8 7 16
M TOR 37 3 8 7 17
M TOR 38 4 3 6 7
M TOR 39 4 3 6 15
M TOR 40 4 3 8 7
M TOR 41 4 3 8 18
M TOR 42 5 4 3 6
M TOR 43 5 4 3 8
M TOR 44 6 1 0 9
M TOR 45 6 1 0 10
M TOR 46 6 1 0 11
M TOR 47 6 1 8 18
M TOR 48 6 3 4 12
M TOR 49 6 3 4 13
M TOR 50 6 3 8 18
M TOR 51 6 7 8 18
M TOR 52 8 1 0 9
M TOR 53 8 1 0 10
M TOR 54 8 1 0 11
M TOR 55 8 1 6 15
M TOR 56 8 3 4 12
M TOR 57 8 3 4 13
M TOR 58 8 3 6 15
M TOR 59 8 7 6 15
M  END
$$$$
