
     RDKit          3D

 19 21  0  0  0  0  0  0  0  0999 V2000
    1.5703    1.0786   -0.3905 C   0  0  0  0  0  0  0  0  0  0  0  0
    0.8050    1.8130    0.7745 C   0  0  0  0  0  0  0  0  0  0  0  0
   -0.5091    1.0701    0.6294 C   0  0  0  0  0  0  0  0  0  0  0  0
   -0.7911    1.0898   -0.8695 C   0  0  0  0  0  0  0  0  0  0  0  0
    0.4782    0.3191   -1.2349 C   0  0  0  0  0  0  0  0  0  0  0  0
    0.3304   -1.0651   -0.8545 O   0  0  0  0  0  0  0  0  0  0  0  0
   -0.6766   -1.3372    0.1427 C   0  0  0  0  0  0  0  0  0  0  0  0
   -0.5431   -0.2740    1.2117 C   0  0  0  0  0  0  0  0  0  0  0  0
   -1.5306    0.7323    1.5455 O   0  0  0  0  0  0  0  0  0  0  0  0
    2.1091    1.7889   -1.0241 H   0  0  0  0  0  0  0  0  0  0  0  0
    2.2943    0.3568   -0.0062 H   0  0  0  0  0  0  0  0  0  0  0  0
    1.2777    1.6764    1.7484 H   0  0  0  0  0  0  0  0  0  0  0  0
    0.7130    2.8867    0.5812 H   0  0  0  0  0  0  0  0  0  0  0  0
   -1.7201    0.6068   -1.1681 H   0  0  0  0  0  0  0  0  0  0  0  0
   -0.7763    2.1078   -1.2707 H   0  0  0  0  0  0  0  0  0  0  0  0
    0.7314    0.3010   -2.2969 H   0  0  0  0  0  0  0  0  0  0  0  0
   -1.6853   -1.3543   -0.2885 H   0  0  0  0  0  0  0  0  0  0  0  0
   -0.4496   -2.3398    0.5120 H   0  0  0  0  0  0  0  0  0  0  0  0
    0.1267   -0.4954    2.0401 H   0  0  0  0  0  0  0  0  0  0  0  0
  1  2  1  0
  2  3  1  0
  3  4  1  0
  4  5  1  0
  5  6  1  0
  6  7  1  0
  7  8  1  0
  8  9  1  0
  5  1  1  0
  8  3  1  0
  9  3  1  0
  1 10  1  0
  1 11  1  0
  2 12  1  0
  2 13  1  0
  4 14  1  0
  4 15  1  0
  5 16  1  0
  7 17  1  0
  7 18  1  0
  8 19  1  0
M  END
$$$$
