
     RDKit          3D

 19 20  0  0  0  0  0  0  0  0999 V2000
   -0.7506    2.2681   -0.7067 O   0  0  0  0  0  0  0  0  0  0  0  0
   -0.9309    1.0887    0.0166 C   0  0  0  0  0  0  0  0  0  0  0  0
   -2.1766    0.1587   -0.2182 C   0  0  0  0  0  0  0  0  0  0  0  0
   -1.2577   -1.0915   -0.1164 C   0  0  0  0  0  0  0  0  0  0  0  0
   -1.1625   -1.9489    1.1843 C   0  0  0  0  0  0  0  0  0  0  0  0
   -0.8031   -3.1720    0.2998 C   0  0  0  0  0  0  0  0  0  0  0  0
   -1.3474   -2.4006   -0.9335 C   0  0  0  0  0  0  0  0  0  0  0  0
   -0.0997   -0.1307   -0.3902 C   0  0  0  0  0  0  0  0  0  0  0  0
    0.9230   -0.2122   -1.0168 O   0  0  0  0  0  0  0  0  0  0  0  0
   -0.1197    2.0752   -1.4117 H   0  0  0  0  0  0  0  0  0  0  0  0
   -0.8337    1.2981    1.0901 H   0  0  0  0  0  0  0  0  0  0  0  0
   -2.9835    0.2377    0.5124 H   0  0  0  0  0  0  0  0  0  0  0  0
   -2.5738    0.2915   -1.2282 H   0  0  0  0  0  0  0  0  0  0  0  0
   -0.4453   -1.6375    1.9482 H   0  0  0  0  0  0  0  0  0  0  0  0
   -2.1483   -2.0495    1.6486 H   0  0  0  0  0  0  0  0  0  0  0  0
    0.2772   -3.3218    0.2352 H   0  0  0  0  0  0  0  0  0  0  0  0
   -1.2762   -4.1238    0.5490 H   0  0  0  0  0  0  0  0  0  0  0  0
   -0.7560   -2.4321   -1.8516 H   0  0  0  0  0  0  0  0  0  0  0  0
   -2.3851   -2.6591   -1.1634 H   0  0  0  0  0  0  0  0  0  0  0  0
  1  2  1  0
  2  3  1  0
  3  4  1  0
  4  5  1  0
  5  6  1  0
  6  7  1  0
  4  8  1  0
  8  9  2  0
  8  2  1  0
  7  4  1  0
  1 10  1  0
  2 11  1  0
  3 12  1  0
  3 13  1  0
  5 14  1  0
  5 15  1  0
  6 16  1  0
  6 17  1  0
  7 18  1  0
  7 19  1  0
M  END
$$$$
