
     RDKit          3D

 19 19  0  0  0  0  0  0  0  0999 V2000
    1.5338    0.0423    0.1112 C   0  0  0  0  0  0  0  0  0  0  0  0
    0.0790    0.0172    0.0727 C   0  0  0  0  0  0  0  0  0  0  0  0
   -1.1248   -0.0154    0.0486 C   0  0  0  0  0  0  0  0  0  0  0  0
   -2.5886   -0.0413    0.0048 C   0  0  0  0  0  0  0  0  0  0  0  0
   -3.0812   -1.3530   -0.2810 O   0  0  0  0  0  0  0  0  0  0  0  0
   -3.6438   -1.3954   -1.5972 C   0  0  0  0  0  0  0  0  0  0  0  0
   -3.2246   -0.0923   -2.2858 C   0  0  0  0  0  0  0  0  0  0  0  0
   -3.1621    0.8773   -1.1072 C   0  0  0  0  0  0  0  0  0  0  0  0
   -4.4920    1.2803   -0.8226 O   0  0  0  0  0  0  0  0  0  0  0  0
    1.9008    0.3475    1.0973 H   0  0  0  0  0  0  0  0  0  0  0  0
    1.9500   -0.9478   -0.1049 H   0  0  0  0  0  0  0  0  0  0  0  0
    1.9420    0.7417   -0.6267 H   0  0  0  0  0  0  0  0  0  0  0  0
   -2.9906    0.2623    0.9816 H   0  0  0  0  0  0  0  0  0  0  0  0
   -3.2715   -2.2896   -2.1075 H   0  0  0  0  0  0  0  0  0  0  0  0
   -4.7363   -1.4650   -1.5213 H   0  0  0  0  0  0  0  0  0  0  0  0
   -2.2317   -0.1871   -2.7336 H   0  0  0  0  0  0  0  0  0  0  0  0
   -3.9313    0.2434   -3.0466 H   0  0  0  0  0  0  0  0  0  0  0  0
   -2.5100    1.7399   -1.2885 H   0  0  0  0  0  0  0  0  0  0  0  0
   -4.4821    1.8161   -0.0232 H   0  0  0  0  0  0  0  0  0  0  0  0
  1  2  1  0
  2  3  3  0
  3  4  1  0
  4  5  1  0
  5  6  1  0
  6  7  1  0
  7  8  1  0
  8  9  1  0
  8  4  1  0
  1 10  1  0
  1 11  1  0
  1 12  1  0
  4 13  1  0
  6 14  1  0
  6 15  1  0
  7 16  1  0
  7 17  1  0
  8 18  1  0
  9 19  1  0
M  END
$$$$
