
     RDKit          3D

 19 20  0  0  0  0  0  0  0  0999 V2000
    1.2109    0.2915    0.0908 O   0  0  0  0  0  0  0  0  0  0  0  0
    0.0393    0.0875    0.0654 C   0  0  0  0  0  0  0  0  0  0  0  0
   -0.9006   -1.1149    0.0167 C   0  0  0  0  0  0  0  0  0  0  0  0
   -2.0166   -0.0557    0.0369 C   0  0  0  0  0  0  0  0  0  0  0  0
   -2.9288    0.0738    1.2515 C   0  0  0  0  0  0  0  0  0  0  0  0
   -3.9022    1.1842    0.8290 C   0  0  0  0  0  0  0  0  0  0  0  0
   -4.1976    0.8688   -0.6563 C   0  0  0  0  0  0  0  0  0  0  0  0
   -2.9360    0.1234   -1.1796 C   0  0  0  0  0  0  0  0  0  0  0  0
   -0.9709    1.0093    0.0717 O   0  0  0  0  0  0  0  0  0  0  0  0
   -0.8164   -1.7097   -0.8950 H   0  0  0  0  0  0  0  0  0  0  0  0
   -0.8412   -1.7698    0.8882 H   0  0  0  0  0  0  0  0  0  0  0  0
   -3.4640   -0.8743    1.3929 H   0  0  0  0  0  0  0  0  0  0  0  0
   -2.3693    0.2871    2.1658 H   0  0  0  0  0  0  0  0  0  0  0  0
   -4.8045    1.2230    1.4440 H   0  0  0  0  0  0  0  0  0  0  0  0
   -3.3992    2.1527    0.9178 H   0  0  0  0  0  0  0  0  0  0  0  0
   -5.0764    0.2214   -0.7380 H   0  0  0  0  0  0  0  0  0  0  0  0
   -4.4147    1.7708   -1.2329 H   0  0  0  0  0  0  0  0  0  0  0  0
   -3.1972   -0.8560   -1.5919 H   0  0  0  0  0  0  0  0  0  0  0  0
   -2.4080    0.6738   -1.9619 H   0  0  0  0  0  0  0  0  0  0  0  0
  1  2  2  0
  2  3  1  0
  3  4  1  0
  4  5  1  0
  5  6  1  0
  6  7  1  0
  7  8  1  0
  4  9  1  0
  9  2  1  0
  8  4  1  0
  3 10  1  0
  3 11  1  0
  5 12  1  0
  5 13  1  0
  6 14  1  0
  6 15  1  0
  7 16  1  0
  7 17  1  0
  8 18  1  0
  8 19  1  0
M  END
$$$$
