
     RDKit          3D

 19 21  0  0  0  0  0  0  0  0999 V2000
    1.5501   -0.8595   -0.9493 C   0  0  0  0  0  0  0  0  0  0  0  0
    1.2685   -0.0769    0.3168 C   0  0  0  0  0  0  0  0  0  0  0  0
    2.0823    1.1633    0.5585 C   0  0  0  0  0  0  0  0  0  0  0  0
    2.3177   -0.1126    1.3928 C   0  0  0  0  0  0  0  0  0  0  0  0
    1.9061    0.6312    2.6818 C   0  0  0  0  0  0  0  0  0  0  0  0
    2.8813    0.5100    3.6649 O   0  0  0  0  0  0  0  0  0  0  0  0
    0.4076    0.7003    3.0637 C   0  0  0  0  0  0  0  0  0  0  0  0
    0.2007    1.8105    2.1543 O   0  0  0  0  0  0  0  0  0  0  0  0
    1.6163    1.8939    1.8353 C   0  0  0  0  0  0  0  0  0  0  0  0
    1.2443   -1.9055   -0.8411 H   0  0  0  0  0  0  0  0  0  0  0  0
    1.0059   -0.4364   -1.8001 H   0  0  0  0  0  0  0  0  0  0  0  0
    2.6171   -0.8485   -1.1960 H   0  0  0  0  0  0  0  0  0  0  0  0
    0.2205   -0.0464    0.5998 H   0  0  0  0  0  0  0  0  0  0  0  0
    2.7019    1.6011   -0.2156 H   0  0  0  0  0  0  0  0  0  0  0  0
    3.1496   -0.8062    1.3681 H   0  0  0  0  0  0  0  0  0  0  0  0
    2.6730    1.1217    4.3800 H   0  0  0  0  0  0  0  0  0  0  0  0
   -0.2312   -0.1598    2.8340 H   0  0  0  0  0  0  0  0  0  0  0  0
    0.2431    1.0028    4.1087 H   0  0  0  0  0  0  0  0  0  0  0  0
    2.0465    2.8790    2.0318 H   0  0  0  0  0  0  0  0  0  0  0  0
  1  2  1  0
  2  3  1  0
  3  4  1  0
  4  5  1  0
  5  6  1  0
  5  7  1  0
  7  8  1  0
  8  9  1  0
  4  2  1  0
  9  5  1  0
  9  3  1  0
  1 10  1  0
  1 11  1  0
  1 12  1  0
  2 13  1  0
  3 14  1  0
  4 15  1  0
  6 16  1  0
  7 17  1  0
  7 18  1  0
  9 19  1  0
M  END
$$$$
