
     RDKit          3D

 19 20  0  0  0  0  0  0  0  0999 V2000
   -0.0104    0.1906    0.1418 C   0  0  0  0  0  0  0  0  0  0  0  0
    1.4785   -0.1260   -0.0097 C   0  0  0  0  0  0  0  0  0  0  0  0
    1.9402   -1.1772    0.9930 C   0  0  0  0  0  0  0  0  0  0  0  0
    1.8571   -0.4000   -1.4851 C   0  0  0  0  0  0  0  0  0  0  0  0
    3.2795   -0.5017   -1.5730 O   0  0  0  0  0  0  0  0  0  0  0  0
    2.6943    0.8031   -1.5596 C   0  0  0  0  0  0  0  0  0  0  0  0
    2.4323    1.1686   -0.0842 C   0  0  0  0  0  0  0  0  0  0  0  0
    1.7506    2.4863    0.1523 C   0  0  0  0  0  0  0  0  0  0  0  0
    1.9447    3.1857    1.1155 O   0  0  0  0  0  0  0  0  0  0  0  0
   -0.2226    0.6446    1.1149 H   0  0  0  0  0  0  0  0  0  0  0  0
   -0.3753    0.8696   -0.6355 H   0  0  0  0  0  0  0  0  0  0  0  0
   -0.5942   -0.7336    0.0704 H   0  0  0  0  0  0  0  0  0  0  0  0
    1.8458   -0.8045    2.0185 H   0  0  0  0  0  0  0  0  0  0  0  0
    1.3311   -2.0849    0.9098 H   0  0  0  0  0  0  0  0  0  0  0  0
    2.9843   -1.4455    0.8163 H   0  0  0  0  0  0  0  0  0  0  0  0
    1.2730   -0.9133   -2.2418 H   0  0  0  0  0  0  0  0  0  0  0  0
    2.9290    1.4609   -2.3886 H   0  0  0  0  0  0  0  0  0  0  0  0
    3.3130    1.1051    0.5585 H   0  0  0  0  0  0  0  0  0  0  0  0
    1.0299    2.8008   -0.6369 H   0  0  0  0  0  0  0  0  0  0  0  0
  1  2  1  0
  2  3  1  0
  2  4  1  0
  4  5  1  0
  5  6  1  0
  6  7  1  0
  7  8  1  0
  8  9  2  0
  7  2  1  0
  6  4  1  0
  1 10  1  0
  1 11  1  0
  1 12  1  0
  3 13  1  0
  3 14  1  0
  3 15  1  0
  4 16  1  0
  6 17  1  0
  7 18  1  0
  8 19  1  0
M  END
$$$$
