gdb 2612	2.4652581	1.4996551	1.1752552	3.4616	77.52	-0.23757	-0.04888	0.18869	1116.5194	0.155342	-422.600683	-422.591393	-422.590449	-422.634709	34.841
 OpenBabel02181911413D

 19 19  0  0  1  0  0  0  0  0999 V2000
   -0.5650   -2.1633    1.2045 C   0  0  0  0  0  0  0  0  0  0  0  0
   -0.8602   -1.1587    0.0909 C   0  0  2  0  0  0  0  0  0  0  0  0
   -0.0127    0.1207    0.2235 C   0  0  0  0  0  0  0  0  0  0  0  0
    1.1748    0.1559    0.4465 O   0  0  0  0  0  0  0  0  0  0  0  0
   -0.9194    1.2764    0.0244 C   0  0  0  0  0  0  0  0  0  0  0  0
   -2.1805    0.8570   -0.0932 C   0  0  0  0  0  0  0  0  0  0  0  0
   -2.3339   -0.6510   -0.0122 C   0  0  1  0  0  0  0  0  0  0  0  0
   -3.0747   -1.2124   -1.2315 C   0  0  0  0  0  0  0  0  0  0  0  0
   -3.0976   -0.8875    1.1732 O   0  0  0  0  0  0  0  0  0  0  0  0
   -1.0483   -3.1283    1.0171 H   0  0  0  0  0  0  0  0  0  0  0  0
    0.5139   -2.3278    1.2620 H   0  0  0  0  0  0  0  0  0  0  0  0
   -0.9119   -1.7874    2.1697 H   0  0  0  0  0  0  0  0  0  0  0  0
   -0.5706   -1.6056   -0.8693 H   0  0  0  0  0  0  0  0  0  0  0  0
   -0.5642    2.2991    0.0142 H   0  0  0  0  0  0  0  0  0  0  0  0
   -3.0565    1.4861   -0.2122 H   0  0  0  0  0  0  0  0  0  0  0  0
   -3.1466   -2.3050   -1.1653 H   0  0  0  0  0  0  0  0  0  0  0  0
   -4.0887   -0.8046   -1.2821 H   0  0  0  0  0  0  0  0  0  0  0  0
   -2.5514   -0.9696   -2.1613 H   0  0  0  0  0  0  0  0  0  0  0  0
   -3.3162   -1.8254    1.2027 H   0  0  0  0  0  0  0  0  0  0  0  0
  1 11  1  0  0  0  0
  1 12  1  0  0  0  0
  2 13  1  6  0  0  0
  2  3  1  0  0  0  0
  2  1  1  0  0  0  0
  3  4  2  0  0  0  0
  5  3  1  0  0  0  0
  6  7  1  0  0  0  0
  6  5  2  0  0  0  0
  7  2  1  0  0  0  0
  7  9  1  1  0  0  0
  8 16  1  0  0  0  0
  8  7  1  0  0  0  0
  9 19  1  0  0  0  0
 10  1  1  0  0  0  0
 14  5  1  0  0  0  0
 15  6  1  0  0  0  0
 17  8  1  0  0  0  0
 18  8  1  0  0  0  0
M TOR 0 0 1 2 3
M TOR 1 0 1 2 4
M TOR 2 0 1 6 5
M TOR 3 0 1 6 7
M TOR 4 0 1 6 8
M TOR 5 1 2 4 5
M TOR 6 1 2 4 13
M TOR 7 1 6 5 4
M TOR 8 1 6 5 14
M TOR 9 1 6 7 15
M TOR 10 1 6 7 16
M TOR 11 1 6 7 17
M TOR 12 1 6 8 18
M TOR 13 2 1 0 9
M TOR 14 2 1 0 10
M TOR 15 2 1 0 11
M TOR 16 2 1 6 5
M TOR 17 2 1 6 7
M TOR 18 2 1 6 8
M TOR 19 2 4 5 6
M TOR 20 2 4 5 14
M TOR 21 3 2 1 6
M TOR 22 3 2 1 12
M TOR 23 3 2 4 5
M TOR 24 3 2 4 13
M TOR 25 4 2 1 6
M TOR 26 4 2 1 12
M TOR 27 4 5 6 7
M TOR 28 4 5 6 8
M TOR 29 5 6 1 12
M TOR 30 5 6 7 15
M TOR 31 5 6 7 16
M TOR 32 5 6 7 17
M TOR 33 5 6 8 18
M TOR 34 6 1 0 9
M TOR 35 6 1 0 10
M TOR 36 6 1 0 11
M TOR 37 6 5 4 13
M TOR 38 7 6 1 12
M TOR 39 7 6 5 14
M TOR 40 7 6 8 18
M TOR 41 8 6 1 12
M TOR 42 8 6 5 14
M TOR 43 8 6 7 15
M TOR 44 8 6 7 16
M TOR 45 8 6 7 17
M  END
$$$$
