
     RDKit          3D

 19 18  0  0  0  0  0  0  0  0999 V2000
    1.3766    0.3939    0.6770 O   0  0  0  0  0  0  0  0  0  0  0  0
    0.1681    0.1933   -0.0438 C   0  0  0  0  0  0  0  0  0  0  0  0
   -0.2916   -1.1953   -0.0410 C   0  0  0  0  0  0  0  0  0  0  0  0
   -0.6630   -2.3404    0.0153 C   0  0  0  0  0  0  0  0  0  0  0  0
   -1.0954   -3.7326    0.0335 C   0  0  0  0  0  0  0  0  0  0  0  0
   -0.5959   -4.5341   -1.1857 C   0  0  0  0  0  0  0  0  0  0  0  0
   -1.0639   -5.9980   -1.1498 C   0  0  0  0  0  0  0  0  0  0  0  0
   -0.4778   -6.8028   -2.2880 C   0  0  0  0  0  0  0  0  0  0  0  0
   -1.1170   -7.4276   -3.0937 O   0  0  0  0  0  0  0  0  0  0  0  0
    1.2533    0.0166    1.5542 H   0  0  0  0  0  0  0  0  0  0  0  0
   -0.6365    0.8439    0.3351 H   0  0  0  0  0  0  0  0  0  0  0  0
    0.3777    0.5186   -1.0690 H   0  0  0  0  0  0  0  0  0  0  0  0
   -0.7404   -4.2149    0.9543 H   0  0  0  0  0  0  0  0  0  0  0  0
   -2.1918   -3.7775    0.0752 H   0  0  0  0  0  0  0  0  0  0  0  0
   -0.9527   -4.0521   -2.1021 H   0  0  0  0  0  0  0  0  0  0  0  0
    0.4990   -4.4908   -1.2159 H   0  0  0  0  0  0  0  0  0  0  0  0
   -0.7246   -6.4614   -0.2111 H   0  0  0  0  0  0  0  0  0  0  0  0
   -2.1544   -6.0770   -1.1920 H   0  0  0  0  0  0  0  0  0  0  0  0
    0.6368   -6.7754   -2.3384 H   0  0  0  0  0  0  0  0  0  0  0  0
  1  2  1  0
  2  3  1  0
  3  4  3  0
  4  5  1  0
  5  6  1  0
  6  7  1  0
  7  8  1  0
  8  9  2  0
  1 10  1  0
  2 11  1  0
  2 12  1  0
  5 13  1  0
  5 14  1  0
  6 15  1  0
  6 16  1  0
  7 17  1  0
  7 18  1  0
  8 19  1  0
M  END
$$$$
