gdb 654	5.3193198	0.8410751	0.7593898	3.3789	76.62	-0.24293	-0.01982	0.22311	1469.9469	0.155937	-422.541049	-422.532329	-422.531385	-422.576043	31.367
 OpenBabel02181911403D

 19 20  0  0  1  0  0  0  0  0999 V2000
    1.2670    0.1257    0.5504 O   0  0  0  0  0  0  0  0  0  0  0  0
    0.1171    0.0698    0.2274 C   0  0  0  0  0  0  0  0  0  0  0  0
   -0.8538   -1.0932   -0.0463 C   0  0  0  0  0  0  0  0  0  0  0  0
   -2.0204   -0.0529   -0.0179 C   0  0  0  0  0  0  0  0  0  0  0  0
   -0.9860    1.1180    0.0173 C   0  0  0  0  0  0  0  0  0  0  0  0
   -2.9701   -0.0761   -1.1926 C   0  0  1  0  0  0  0  0  0  0  0  0
   -4.1183   -1.1130   -1.1990 C   0  0  0  0  0  0  0  0  0  0  0  0
   -5.0368    0.1213   -1.2896 C   0  0  0  0  0  0  0  0  0  0  0  0
   -3.9149    1.0206   -1.1590 O   0  0  0  0  0  0  0  0  0  0  0  0
   -0.6866   -1.5327   -1.0371 H   0  0  0  0  0  0  0  0  0  0  0  0
   -0.8606   -1.8988    0.6917 H   0  0  0  0  0  0  0  0  0  0  0  0
   -2.5900   -0.1072    0.9139 H   0  0  0  0  0  0  0  0  0  0  0  0
   -0.8833    1.6350   -0.9437 H   0  0  0  0  0  0  0  0  0  0  0  0
   -1.0905    1.8713    0.8013 H   0  0  0  0  0  0  0  0  0  0  0  0
   -2.3932   -0.0572   -2.1313 H   0  0  0  0  0  0  0  0  0  0  0  0
   -4.1438   -1.8003   -2.0453 H   0  0  0  0  0  0  0  0  0  0  0  0
   -4.2092   -1.6814   -0.2709 H   0  0  0  0  0  0  0  0  0  0  0  0
   -5.5500    0.2480   -2.2513 H   0  0  0  0  0  0  0  0  0  0  0  0
   -5.7641    0.2542   -0.4807 H   0  0  0  0  0  0  0  0  0  0  0  0
  2  1  2  0  0  0  0
  3  4  1  0  0  0  0
  3  2  1  0  0  0  0
  3 11  1  0  0  0  0
  4  5  1  0  0  0  0
  4 12  1  0  0  0  0
  5  2  1  0  0  0  0
  5 14  1  0  0  0  0
  6 15  1  6  0  0  0
  6  9  1  0  0  0  0
  6  4  1  0  0  0  0
  7  6  1  0  0  0  0
  7 17  1  0  0  0  0
  8  7  1  0  0  0  0
  8  9  1  0  0  0  0
  8 19  1  0  0  0  0
 10  3  1  0  0  0  0
 13  5  1  0  0  0  0
 16  7  1  0  0  0  0
 18  8  1  0  0  0  0
M TOR 0 0 1 2 3
M TOR 1 0 1 2 9
M TOR 2 0 1 2 10
M TOR 3 0 1 4 3
M TOR 4 0 1 4 12
M TOR 5 0 1 4 13
M TOR 6 1 2 3 4
M TOR 7 1 2 3 5
M TOR 8 1 2 3 11
M TOR 9 1 4 3 5
M TOR 10 1 4 3 11
M TOR 11 2 1 4 12
M TOR 12 2 1 4 13
M TOR 13 2 3 4 12
M TOR 14 2 3 4 13
M TOR 15 2 3 5 6
M TOR 16 2 3 5 8
M TOR 17 2 3 5 14
M TOR 18 3 5 6 7
M TOR 19 3 5 6 15
M TOR 20 3 5 6 16
M TOR 21 3 5 8 7
M TOR 22 4 1 2 9
M TOR 23 4 1 2 10
M TOR 24 4 3 2 9
M TOR 25 4 3 2 10
M TOR 26 4 3 5 6
M TOR 27 4 3 5 8
M TOR 28 4 3 5 14
M TOR 29 5 3 2 9
M TOR 30 5 3 2 10
M TOR 31 5 3 4 12
M TOR 32 5 3 4 13
M TOR 33 5 6 7 8
M TOR 34 5 6 7 17
M TOR 35 5 6 7 18
M TOR 36 5 8 7 17
M TOR 37 5 8 7 18
M TOR 38 6 5 3 11
M TOR 39 7 6 5 14
M TOR 40 7 8 5 14
M TOR 41 8 5 3 11
M TOR 42 8 5 6 15
M TOR 43 8 5 6 16
M TOR 44 8 7 6 15
M TOR 45 8 7 6 16
M  END
$$$$
