
     RDKit          3D

 19 20  0  0  0  0  0  0  0  0999 V2000
    0.1812    4.3213    1.0980 C   0  0  0  0  0  0  0  0  0  0  0  0
    0.7217    2.9299    0.9146 C   0  0  0  0  0  0  0  0  0  0  0  0
    1.3293    2.4929   -0.4220 C   0  0  0  0  0  0  0  0  0  0  0  0
    1.1243    0.9936   -0.4323 C   0  0  0  0  0  0  0  0  0  0  0  0
    0.4697    0.5588    0.6510 C   0  0  0  0  0  0  0  0  0  0  0  0
    0.0757   -0.8506    0.9750 C   0  0  0  0  0  0  0  0  0  0  0  0
    0.2412   -1.7532   -0.1021 O   0  0  0  0  0  0  0  0  0  0  0  0
    0.1933    1.7137    1.5635 C   0  0  0  0  0  0  0  0  0  0  0  0
    1.3980    2.3581    2.0431 O   0  0  0  0  0  0  0  0  0  0  0  0
   -0.2555    4.4348    2.0933 H   0  0  0  0  0  0  0  0  0  0  0  0
    0.9803    5.0636    0.9919 H   0  0  0  0  0  0  0  0  0  0  0  0
   -0.5852    4.5450    0.3485 H   0  0  0  0  0  0  0  0  0  0  0  0
    0.8275    2.9834   -1.2669 H   0  0  0  0  0  0  0  0  0  0  0  0
    2.3898    2.7668   -0.4819 H   0  0  0  0  0  0  0  0  0  0  0  0
    1.5126    0.3513   -1.2140 H   0  0  0  0  0  0  0  0  0  0  0  0
    0.7016   -1.2384    1.7895 H   0  0  0  0  0  0  0  0  0  0  0  0
   -0.9604   -0.8623    1.3579 H   0  0  0  0  0  0  0  0  0  0  0  0
   -0.2794   -1.4163   -0.8392 H   0  0  0  0  0  0  0  0  0  0  0  0
   -0.6372    1.7136    2.2656 H   0  0  0  0  0  0  0  0  0  0  0  0
  1  2  1  0
  2  3  1  0
  3  4  1  0
  4  5  2  0
  5  6  1  0
  6  7  1  0
  5  8  1  0
  8  9  1  0
  8  2  1  0
  9  2  1  0
  1 10  1  0
  1 11  1  0
  1 12  1  0
  3 13  1  0
  3 14  1  0
  4 15  1  0
  6 16  1  0
  6 17  1  0
  7 18  1  0
  8 19  1  0
M  END
$$$$
