
     RDKit          3D

 19 18  0  0  0  0  0  0  0  0999 V2000
    3.8523    2.4303   -4.3322 C   0  0  0  0  0  0  0  0  0  0  0  0
    3.6968    1.1389   -3.5252 C   0  0  0  0  0  0  0  0  0  0  0  0
    3.0059    1.3681   -2.1778 C   0  0  0  0  0  0  0  0  0  0  0  0
    2.8151    0.0792   -1.3773 C   0  0  0  0  0  0  0  0  0  0  0  0
    1.9284   -0.7606   -2.0878 O   0  0  0  0  0  0  0  0  0  0  0  0
    2.3336    0.3871    0.0509 C   0  0  0  0  0  0  0  0  0  0  0  0
    2.8132    1.2707    0.7247 O   0  0  0  0  0  0  0  0  0  0  0  0
    1.2889   -0.4859    0.5713 C   0  0  0  0  0  0  0  0  0  0  0  0
    0.4516   -1.2250    1.0230 C   0  0  0  0  0  0  0  0  0  0  0  0
    4.4443    3.1728   -3.7856 H   0  0  0  0  0  0  0  0  0  0  0  0
    4.3519    2.2433   -5.2878 H   0  0  0  0  0  0  0  0  0  0  0  0
    2.8775    2.8808   -4.5494 H   0  0  0  0  0  0  0  0  0  0  0  0
    3.1229    0.4047   -4.1002 H   0  0  0  0  0  0  0  0  0  0  0  0
    4.6850    0.6918   -3.3515 H   0  0  0  0  0  0  0  0  0  0  0  0
    3.5815    2.0633   -1.5589 H   0  0  0  0  0  0  0  0  0  0  0  0
    2.0174    1.8180   -2.3356 H   0  0  0  0  0  0  0  0  0  0  0  0
    3.8013   -0.4054   -1.2483 H   0  0  0  0  0  0  0  0  0  0  0  0
    1.7444   -1.5426   -1.5557 H   0  0  0  0  0  0  0  0  0  0  0  0
   -0.2945   -1.8607    1.4355 H   0  0  0  0  0  0  0  0  0  0  0  0
  1  2  1  0
  2  3  1  0
  3  4  1  0
  4  5  1  0
  4  6  1  0
  6  7  2  0
  6  8  1  0
  8  9  3  0
  1 10  1  0
  1 11  1  0
  1 12  1  0
  2 13  1  0
  2 14  1  0
  3 15  1  0
  3 16  1  0
  4 17  1  0
  5 18  1  0
  9 19  1  0
M  END
$$$$
