
     RDKit          3D

 19 20  0  0  0  0  0  0  0  0999 V2000
    1.5178    0.7495   -0.0516 O   0  0  0  0  0  0  0  0  0  0  0  0
    0.1420    0.4293    0.0951 C   0  0  0  0  0  0  0  0  0  0  0  0
   -0.6238    1.2161   -0.9457 C   0  0  0  0  0  0  0  0  0  0  0  0
   -0.5779    0.7698   -2.4275 C   0  0  0  0  0  0  0  0  0  0  0  0
   -2.0726    1.1606   -2.3542 C   0  0  0  0  0  0  0  0  0  0  0  0
   -2.0465    0.8913   -0.9137 O   0  0  0  0  0  0  0  0  0  0  0  0
   -2.2101    2.6558   -2.5541 C   0  0  0  0  0  0  0  0  0  0  0  0
   -1.4262    3.4165   -1.7905 C   0  0  0  0  0  0  0  0  0  0  0  0
   -0.4795    2.7450   -0.8184 C   0  0  0  0  0  0  0  0  0  0  0  0
    2.0140    0.2555    0.6068 H   0  0  0  0  0  0  0  0  0  0  0  0
   -0.0499   -0.6427   -0.0585 H   0  0  0  0  0  0  0  0  0  0  0  0
   -0.2378    0.6995    1.0940 H   0  0  0  0  0  0  0  0  0  0  0  0
    0.0634    1.3079   -3.1263 H   0  0  0  0  0  0  0  0  0  0  0  0
   -0.4306   -0.3092   -2.5086 H   0  0  0  0  0  0  0  0  0  0  0  0
   -2.8223    0.5589   -2.8710 H   0  0  0  0  0  0  0  0  0  0  0  0
   -2.9070    3.0575   -3.2816 H   0  0  0  0  0  0  0  0  0  0  0  0
   -1.4481    4.5017   -1.8307 H   0  0  0  0  0  0  0  0  0  0  0  0
    0.5599    3.0397   -1.0034 H   0  0  0  0  0  0  0  0  0  0  0  0
   -0.7098    3.0500    0.2120 H   0  0  0  0  0  0  0  0  0  0  0  0
  1  2  1  0
  2  3  1  0
  3  4  1  0
  4  5  1  0
  5  6  1  0
  5  7  1  0
  7  8  2  0
  8  9  1  0
  6  3  1  0
  9  3  1  0
  1 10  1  0
  2 11  1  0
  2 12  1  0
  4 13  1  0
  4 14  1  0
  5 15  1  0
  7 16  1  0
  8 17  1  0
  9 18  1  0
  9 19  1  0
M  END
$$$$
