gdb 372	2.6358574	1.7725008	1.579904	1.0856	73.68	-0.23834	0.08491	0.32325	947.0563	0.159442	-422.545149	-422.537975	-422.537031	-422.576466	28.735
 OpenBabel02181911403D

 19 21  0  0  1  0  0  0  0  0999 V2000
    0.4386    1.2244   -0.0200 C   0  0  0  0  0  0  0  0  0  0  0  0
    0.0546   -0.1672   -0.0309 O   0  0  0  0  0  0  0  0  0  0  0  0
    1.4307    0.1598    0.0318 C   0  0  1  0  0  0  0  0  0  0  0  0
    2.4210   -0.3016   -1.0327 C   0  0  2  0  0  0  0  0  0  0  0  0
    2.5614   -1.7984   -0.6548 C   0  0  0  0  0  0  0  0  0  0  0  0
    2.4869   -1.7731    0.9122 C   0  0  0  0  0  0  0  0  0  0  0  0
    2.3036   -0.2716    1.2023 C   0  0  1  0  0  0  0  0  0  0  0  0
    3.5363    0.4053    0.9207 O   0  0  0  0  0  0  0  0  0  0  0  0
    3.6670    0.4381   -0.5201 C   0  0  0  0  0  0  0  0  0  0  0  0
    0.2592    1.7582   -0.9522 H   0  0  0  0  0  0  0  0  0  0  0  0
    0.1759    1.7697    0.8851 H   0  0  0  0  0  0  0  0  0  0  0  0
    2.1623   -0.0976   -2.0715 H   0  0  0  0  0  0  0  0  0  0  0  0
    1.7373   -2.3769   -1.0790 H   0  0  0  0  0  0  0  0  0  0  0  0
    3.4975   -2.2240   -1.0262 H   0  0  0  0  0  0  0  0  0  0  0  0
    1.6376   -2.3529    1.2843 H   0  0  0  0  0  0  0  0  0  0  0  0
    3.3960   -2.1452    1.3892 H   0  0  0  0  0  0  0  0  0  0  0  0
    1.9755   -0.0062    2.2071 H   0  0  0  0  0  0  0  0  0  0  0  0
    3.7013    1.4829   -0.8553 H   0  0  0  0  0  0  0  0  0  0  0  0
    4.6028   -0.0522   -0.8152 H   0  0  0  0  0  0  0  0  0  0  0  0
  1  3  1  0  0  0  0
  1 11  1  0  0  0  0
  2  1  1  0  0  0  0
  3  2  1  6  0  0  0
  3  7  1  0  0  0  0
  4 12  1  6  0  0  0
  4  5  1  0  0  0  0
  4  9  1  0  0  0  0
  4  3  1  0  0  0  0
  5  6  1  0  0  0  0
  6  7  1  0  0  0  0
  6 15  1  0  0  0  0
  6 16  1  0  0  0  0
  7 17  1  1  0  0  0
  8  7  1  0  0  0  0
  9  8  1  0  0  0  0
 10  1  1  0  0  0  0
 13  5  1  0  0  0  0
 14  5  1  0  0  0  0
 18  9  1  0  0  0  0
 19  9  1  0  0  0  0
M TOR 0 0 1 2 3
M TOR 1 0 1 2 6
M TOR 2 0 2 3 4
M TOR 3 0 2 3 8
M TOR 4 0 2 3 11
M TOR 5 0 2 6 5
M TOR 6 0 2 6 7
M TOR 7 0 2 6 16
M TOR 8 1 2 0 9
M TOR 9 1 2 0 10
M TOR 10 1 2 3 4
M TOR 11 1 2 3 8
M TOR 12 1 2 3 11
M TOR 13 1 2 6 5
M TOR 14 1 2 6 7
M TOR 15 1 2 6 16
M TOR 16 2 3 4 5
M TOR 17 2 3 4 12
M TOR 18 2 3 4 13
M TOR 19 2 3 8 7
M TOR 20 2 3 8 17
M TOR 21 2 3 8 18
M TOR 22 2 6 5 4
M TOR 23 2 6 5 14
M TOR 24 2 6 5 15
M TOR 25 2 6 7 8
M TOR 26 3 2 0 9
M TOR 27 3 2 0 10
M TOR 28 3 2 6 5
M TOR 29 3 2 6 7
M TOR 30 3 2 6 16
M TOR 31 3 4 5 6
M TOR 32 3 4 5 14
M TOR 33 3 4 5 15
M TOR 34 3 8 7 6
M TOR 35 4 3 2 6
M TOR 36 4 3 8 7
M TOR 37 4 3 8 17
M TOR 38 4 3 8 18
M TOR 39 4 5 6 7
M TOR 40 4 5 6 16
M TOR 41 5 4 3 8
M TOR 42 5 4 3 11
M TOR 43 5 6 7 8
M TOR 44 6 2 0 9
M TOR 45 6 2 0 10
M TOR 46 6 2 3 8
M TOR 47 6 2 3 11
M TOR 48 6 5 4 12
M TOR 49 6 5 4 13
M TOR 50 6 7 8 17
M TOR 51 6 7 8 18
M TOR 52 7 6 5 14
M TOR 53 7 6 5 15
M TOR 54 7 8 3 11
M TOR 55 8 3 4 12
M TOR 56 8 3 4 13
M TOR 57 8 7 6 16
M  END
$$$$
