
     RDKit          3D

 19 19  0  0  0  0  0  0  0  0999 V2000
   -0.9790    2.4124    0.3106 C   0  0  0  0  0  0  0  0  0  0  0  0
   -1.2789    1.4503    1.4461 C   0  0  0  0  0  0  0  0  0  0  0  0
   -2.5797    1.7536    1.9185 O   0  0  0  0  0  0  0  0  0  0  0  0
   -0.2929    1.4756    2.6212 C   0  0  0  0  0  0  0  0  0  0  0  0
   -0.6327    0.3091    3.3603 O   0  0  0  0  0  0  0  0  0  0  0  0
   -0.8176   -0.7456    2.4136 C   0  0  0  0  0  0  0  0  0  0  0  0
   -1.1541   -0.0652    1.0463 C   0  0  0  0  0  0  0  0  0  0  0  0
   -2.3157   -0.6130    0.3716 C   0  0  0  0  0  0  0  0  0  0  0  0
   -3.2669   -1.0870   -0.1901 C   0  0  0  0  0  0  0  0  0  0  0  0
    0.0297    2.2575   -0.0829 H   0  0  0  0  0  0  0  0  0  0  0  0
   -1.6975    2.2678   -0.5008 H   0  0  0  0  0  0  0  0  0  0  0  0
   -1.0667    3.4446    0.6609 H   0  0  0  0  0  0  0  0  0  0  0  0
   -2.7094    1.2548    2.7345 H   0  0  0  0  0  0  0  0  0  0  0  0
    0.7533    1.4438    2.2750 H   0  0  0  0  0  0  0  0  0  0  0  0
   -0.4347    2.3448    3.2672 H   0  0  0  0  0  0  0  0  0  0  0  0
    0.0965   -1.3483    2.3299 H   0  0  0  0  0  0  0  0  0  0  0  0
   -1.6258   -1.3869    2.7720 H   0  0  0  0  0  0  0  0  0  0  0  0
   -0.2853   -0.1602    0.3845 H   0  0  0  0  0  0  0  0  0  0  0  0
   -4.1144   -1.4926   -0.6848 H   0  0  0  0  0  0  0  0  0  0  0  0
  1  2  1  0
  2  3  1  0
  2  4  1  0
  4  5  1  0
  5  6  1  0
  6  7  1  0
  7  8  1  0
  8  9  3  0
  7  2  1  0
  1 10  1  0
  1 11  1  0
  1 12  1  0
  3 13  1  0
  4 14  1  0
  4 15  1  0
  6 16  1  0
  6 17  1  0
  7 18  1  0
  9 19  1  0
M  END
$$$$
