gdb 5626	3.3092382	1.3641449	1.1738666	0.9429	75.92	-0.22702	-0.00034	0.22668	1108.6035	0.157757	-422.525859	-422.517845	-422.516901	-422.5587	30.451
 OpenBabel02181911423D

 19 20  0  0  1  0  0  0  0  0999 V2000
    1.4458   -0.2204    0.0407 C   0  0  0  0  0  0  0  0  0  0  0  0
    0.0958    0.1852   -0.0327 O   0  0  0  0  0  0  0  0  0  0  0  0
   -0.3802    0.8548    1.1268 C   0  0  2  0  0  0  0  0  0  0  0  0
   -1.8893    0.7217    1.1611 C   0  0  0  0  0  0  0  0  0  0  0  0
   -2.6303    1.8253    1.2411 C   0  0  0  0  0  0  0  0  0  0  0  0
   -1.8665    3.1320    1.2869 C   0  0  2  0  0  0  0  0  0  0  0  0
   -0.8486    3.1596    0.1169 C   0  0  0  0  0  0  0  0  0  0  0  0
   -0.0134    2.3566    1.1318 C   0  0  1  0  0  0  0  0  0  0  0  0
   -0.7478    2.9799    2.2221 O   0  0  0  0  0  0  0  0  0  0  0  0
    1.6239   -0.8798    0.9042 H   0  0  0  0  0  0  0  0  0  0  0  0
    1.6641   -0.7738   -0.8759 H   0  0  0  0  0  0  0  0  0  0  0  0
    2.1416    0.6284    0.1081 H   0  0  0  0  0  0  0  0  0  0  0  0
    0.0522    0.3860    2.0271 H   0  0  0  0  0  0  0  0  0  0  0  0
   -2.3050   -0.2793    1.1075 H   0  0  0  0  0  0  0  0  0  0  0  0
   -3.7149    1.8140    1.2563 H   0  0  0  0  0  0  0  0  0  0  0  0
   -2.4749    4.0106    1.5078 H   0  0  0  0  0  0  0  0  0  0  0  0
   -1.1278    2.6867   -0.8245 H   0  0  0  0  0  0  0  0  0  0  0  0
   -0.4298    4.1543   -0.0439 H   0  0  0  0  0  0  0  0  0  0  0  0
    1.0635    2.5324    1.1969 H   0  0  0  0  0  0  0  0  0  0  0  0
  1 12  1  0  0  0  0
  1 10  1  0  0  0  0
  2  1  1  0  0  0  0
  2  3  1  0  0  0  0
  3  8  1  0  0  0  0
  3  4  1  0  0  0  0
  3 13  1  1  0  0  0
  4  5  2  0  0  0  0
  5 15  1  0  0  0  0
  5  6  1  0  0  0  0
  6 16  1  1  0  0  0
  6  9  1  0  0  0  0
  7  8  1  0  0  0  0
  7  6  1  0  0  0  0
  8 19  1  6  0  0  0
  8  9  1  0  0  0  0
 11  1  1  0  0  0  0
 14  4  1  0  0  0  0
 17  7  1  0  0  0  0
 18  7  1  0  0  0  0
M TOR 0 0 1 2 3
M TOR 1 0 1 2 7
M TOR 2 0 1 2 12
M TOR 3 1 2 3 4
M TOR 4 1 2 3 13
M TOR 5 1 2 7 6
M TOR 6 1 2 7 8
M TOR 7 1 2 7 18
M TOR 8 2 1 0 9
M TOR 9 2 1 0 10
M TOR 10 2 1 0 11
M TOR 11 2 3 4 5
M TOR 12 2 3 4 14
M TOR 13 2 7 6 5
M TOR 14 2 7 6 16
M TOR 15 2 7 6 17
M TOR 16 2 7 8 5
M TOR 17 3 2 7 6
M TOR 18 3 2 7 8
M TOR 19 3 2 7 18
M TOR 20 3 4 5 6
M TOR 21 3 4 5 8
M TOR 22 3 4 5 15
M TOR 23 4 3 2 7
M TOR 24 4 3 2 12
M TOR 25 4 5 6 7
M TOR 26 4 5 6 16
M TOR 27 4 5 6 17
M TOR 28 4 5 8 7
M TOR 29 5 4 3 13
M TOR 30 5 6 7 8
M TOR 31 5 6 7 18
M TOR 32 5 8 7 18
M TOR 33 6 5 4 14
M TOR 34 6 7 2 12
M TOR 35 7 2 3 13
M TOR 36 7 6 5 15
M TOR 37 7 8 5 15
M TOR 38 8 5 4 14
M TOR 39 8 5 6 16
M TOR 40 8 5 6 17
M TOR 41 8 7 2 12
M TOR 42 8 7 6 16
M TOR 43 8 7 6 17
M  END
$$$$
