gdb 1692	3.2280982	1.2272726	1.1459397	1.9142	76.16	-0.24677	0.00934	0.25611	1143.523	0.156413	-422.602585	-422.593934	-422.59299	-422.635797	32.516
 OpenBabel02181911403D

 19 19  0  0  1  0  0  0  0  0999 V2000
   -0.0803    2.6518   -0.4424 C   0  0  0  0  0  0  0  0  0  0  0  0
   -1.1395    1.7347    0.1674 C   0  0  2  0  0  0  0  0  0  0  0  0
   -2.4554    1.7778   -0.6547 C   0  0  0  0  0  0  0  0  0  0  0  0
   -3.3477    2.6813    0.1568 C   0  0  0  0  0  0  0  0  0  0  0  0
   -2.8563    2.9018    1.3747 C   0  0  0  0  0  0  0  0  0  0  0  0
   -1.5483    2.1859    1.5993 C   0  0  0  0  0  0  0  0  0  0  0  0
   -0.6806    0.3474    0.1178 O   0  0  0  0  0  0  0  0  0  0  0  0
    0.3596   -0.0299    0.8653 C   0  0  0  0  0  0  0  0  0  0  0  0
    0.9932    0.6474    1.6302 O   0  0  0  0  0  0  0  0  0  0  0  0
    0.8241    2.6688    0.1671 H   0  0  0  0  0  0  0  0  0  0  0  0
    0.1729    2.3213   -1.4544 H   0  0  0  0  0  0  0  0  0  0  0  0
   -0.4823    3.6679   -0.5043 H   0  0  0  0  0  0  0  0  0  0  0  0
   -2.2851    2.1357   -1.6765 H   0  0  0  0  0  0  0  0  0  0  0  0
   -2.8756    0.7678   -0.7406 H   0  0  0  0  0  0  0  0  0  0  0  0
   -4.2865    3.0669   -0.2240 H   0  0  0  0  0  0  0  0  0  0  0  0
   -3.3321    3.4958    2.1470 H   0  0  0  0  0  0  0  0  0  0  0  0
   -0.7776    2.8057    2.0657 H   0  0  0  0  0  0  0  0  0  0  0  0
   -1.6839    1.3179    2.2563 H   0  0  0  0  0  0  0  0  0  0  0  0
    0.5530   -1.0980    0.6724 H   0  0  0  0  0  0  0  0  0  0  0  0
  1 10  1  0  0  0  0
  1  2  1  0  0  0  0
  2  7  1  1  0  0  0
  2  6  1  0  0  0  0
  3  4  1  0  0  0  0
  3  2  1  0  0  0  0
  4  5  2  0  0  0  0
  5  6  1  0  0  0  0
  5 16  1  0  0  0  0
  6 17  1  0  0  0  0
  6 18  1  0  0  0  0
  7  8  1  0  0  0  0
  8  9  2  0  0  0  0
 11  1  1  0  0  0  0
 12  1  1  0  0  0  0
 13  3  1  0  0  0  0
 14  3  1  0  0  0  0
 15  4  1  0  0  0  0
 19  8  1  0  0  0  0
M TOR 0 0 1 2 3
M TOR 1 0 1 2 12
M TOR 2 0 1 2 13
M TOR 3 0 1 5 4
M TOR 4 0 1 5 16
M TOR 5 0 1 5 17
M TOR 6 0 1 6 7
M TOR 7 1 2 3 4
M TOR 8 1 2 3 14
M TOR 9 1 5 4 3
M TOR 10 1 5 4 15
M TOR 11 1 6 7 8
M TOR 12 1 6 7 18
M TOR 13 2 1 0 9
M TOR 14 2 1 0 10
M TOR 15 2 1 0 11
M TOR 16 2 1 5 4
M TOR 17 2 1 5 16
M TOR 18 2 1 5 17
M TOR 19 2 1 6 7
M TOR 20 2 3 4 5
M TOR 21 2 3 4 15
M TOR 22 3 2 1 5
M TOR 23 3 2 1 6
M TOR 24 3 4 5 16
M TOR 25 3 4 5 17
M TOR 26 4 3 2 12
M TOR 27 4 3 2 13
M TOR 28 4 5 1 6
M TOR 29 5 1 0 9
M TOR 30 5 1 0 10
M TOR 31 5 1 0 11
M TOR 32 5 1 2 12
M TOR 33 5 1 2 13
M TOR 34 5 1 6 7
M TOR 35 5 4 3 14
M TOR 36 6 1 0 9
M TOR 37 6 1 0 10
M TOR 38 6 1 0 11
M TOR 39 6 1 2 12
M TOR 40 6 1 2 13
M TOR 41 6 1 5 16
M TOR 42 6 1 5 17
M  END
$$$$
