
     RDKit          3D

 19 21  0  0  0  0  0  0  0  0999 V2000
    0.8675   -0.6651   -0.8555 C   0  0  0  0  0  0  0  0  0  0  0  0
    0.9832    0.1990    0.3910 C   0  0  0  0  0  0  0  0  0  0  0  0
    1.8718   -0.3208    1.5550 C   0  0  0  0  0  0  0  0  0  0  0  0
    1.4974   -1.2506    2.6618 C   0  0  0  0  0  0  0  0  0  0  0  0
    3.2142   -0.3734    1.0411 O   0  0  0  0  0  0  0  0  0  0  0  0
    2.7147    0.8909    1.5176 C   0  0  0  0  0  0  0  0  0  0  0  0
    1.8948    1.4560    0.3719 C   0  0  0  0  0  0  0  0  0  0  0  0
    2.2613    2.3920   -0.6864 C   0  0  0  0  0  0  0  0  0  0  0  0
    1.3671    2.7681    0.3791 O   0  0  0  0  0  0  0  0  0  0  0  0
    0.2640   -1.5589   -0.6631 H   0  0  0  0  0  0  0  0  0  0  0  0
    0.3882   -0.1154   -1.6723 H   0  0  0  0  0  0  0  0  0  0  0  0
    1.8585   -0.9838   -1.1891 H   0  0  0  0  0  0  0  0  0  0  0  0
   -0.0012    0.4999    0.7675 H   0  0  0  0  0  0  0  0  0  0  0  0
    1.3194   -2.2616    2.2781 H   0  0  0  0  0  0  0  0  0  0  0  0
    2.3009   -1.3052    3.4009 H   0  0  0  0  0  0  0  0  0  0  0  0
    0.5823   -0.9132    3.1587 H   0  0  0  0  0  0  0  0  0  0  0  0
    3.2751    1.4064    2.2895 H   0  0  0  0  0  0  0  0  0  0  0  0
    3.2364    2.8766   -0.6712 H   0  0  0  0  0  0  0  0  0  0  0  0
    1.7979    2.3074   -1.6681 H   0  0  0  0  0  0  0  0  0  0  0  0
  1  2  1  0
  2  3  1  0
  3  4  1  0
  3  5  1  0
  5  6  1  0
  6  7  1  0
  7  8  1  0
  8  9  1  0
  7  2  1  0
  9  7  1  0
  6  3  1  0
  1 10  1  0
  1 11  1  0
  1 12  1  0
  2 13  1  0
  4 14  1  0
  4 15  1  0
  4 16  1  0
  6 17  1  0
  8 18  1  0
  8 19  1  0
M  END
$$$$
