gdb 2703	2.8030576	1.1957024	0.8874026	1.7615	76.72	-0.24573	-0.03022	0.21551	1285.5789	0.155472	-422.606791	-422.597567	-422.596623	-422.64156	33.069
 OpenBabel02181911413D

 19 19  0  0  1  0  0  0  0  0999 V2000
   -0.1303    2.4925    0.4052 C   0  0  0  0  0  0  0  0  0  0  0  0
   -0.9479    1.2565    0.0401 C   0  0  2  0  0  0  0  0  0  0  0  0
   -2.0128    0.7920    1.0582 C   0  0  2  0  0  0  0  0  0  0  0  0
   -2.2483   -0.6994    0.6894 C   0  0  0  0  0  0  0  0  0  0  0  0
   -0.8590   -1.2249    0.3010 C   0  0  0  0  0  0  0  0  0  0  0  0
   -0.0905    0.0019   -0.1979 C   0  0  0  0  0  0  0  0  0  0  0  0
    1.0112    0.0017   -0.6809 O   0  0  0  0  0  0  0  0  0  0  0  0
   -3.2808    1.6045    0.9687 C   0  0  0  0  0  0  0  0  0  0  0  0
   -3.7833    2.2235    1.8692 O   0  0  0  0  0  0  0  0  0  0  0  0
    0.3400    2.3721    1.3865 H   0  0  0  0  0  0  0  0  0  0  0  0
    0.6638    2.6408   -0.3307 H   0  0  0  0  0  0  0  0  0  0  0  0
   -0.7539    3.3902    0.4377 H   0  0  0  0  0  0  0  0  0  0  0  0
   -1.4577    1.4324   -0.9233 H   0  0  0  0  0  0  0  0  0  0  0  0
   -1.6241    0.8781    2.0787 H   0  0  0  0  0  0  0  0  0  0  0  0
   -2.7097   -1.2529    1.5096 H   0  0  0  0  0  0  0  0  0  0  0  0
   -2.9304   -0.7595   -0.1681 H   0  0  0  0  0  0  0  0  0  0  0  0
   -0.3194   -1.6148    1.1730 H   0  0  0  0  0  0  0  0  0  0  0  0
   -0.8607   -2.0180   -0.4506 H   0  0  0  0  0  0  0  0  0  0  0  0
   -3.7431    1.5903   -0.0495 H   0  0  0  0  0  0  0  0  0  0  0  0
  1 12  1  0  0  0  0
  1 10  1  0  0  0  0
  2 13  1  6  0  0  0
  2  1  1  0  0  0  0
  2  3  1  0  0  0  0
  3 14  1  1  0  0  0
  4  3  1  0  0  0  0
  4 15  1  0  0  0  0
  5  4  1  0  0  0  0
  5 17  1  0  0  0  0
  6  2  1  0  0  0  0
  6  5  1  0  0  0  0
  7  6  2  0  0  0  0
  8  3  1  0  0  0  0
  8  9  2  0  0  0  0
 11  1  1  0  0  0  0
 16  4  1  0  0  0  0
 18  5  1  0  0  0  0
 19  8  1  0  0  0  0
M TOR 0 0 1 2 3
M TOR 1 0 1 2 7
M TOR 2 0 1 2 13
M TOR 3 0 1 5 4
M TOR 4 0 1 5 6
M TOR 5 1 2 3 4
M TOR 6 1 2 3 14
M TOR 7 1 2 3 15
M TOR 8 1 2 7 8
M TOR 9 1 2 7 18
M TOR 10 1 5 4 3
M TOR 11 1 5 4 16
M TOR 12 1 5 4 17
M TOR 13 2 1 0 9
M TOR 14 2 1 0 10
M TOR 15 2 1 0 11
M TOR 16 2 1 5 4
M TOR 17 2 1 5 6
M TOR 18 2 3 4 5
M TOR 19 2 3 4 16
M TOR 20 2 3 4 17
M TOR 21 3 2 1 5
M TOR 22 3 2 1 12
M TOR 23 3 2 7 8
M TOR 24 3 2 7 18
M TOR 25 3 4 5 6
M TOR 26 4 3 2 7
M TOR 27 4 3 2 13
M TOR 28 4 5 1 12
M TOR 29 5 1 0 9
M TOR 30 5 1 0 10
M TOR 31 5 1 0 11
M TOR 32 5 1 2 7
M TOR 33 5 1 2 13
M TOR 34 5 4 3 14
M TOR 35 5 4 3 15
M TOR 36 6 5 1 12
M TOR 37 6 5 4 16
M TOR 38 6 5 4 17
M TOR 39 7 2 1 12
M TOR 40 7 2 3 14
M TOR 41 7 2 3 15
M TOR 42 8 7 2 13
M  END
$$$$
