gdb 4168	2.4336558	1.8666177	1.4283102	2.9415	74.39	-0.24936	0.08117	0.33053	977.9662	0.158688	-422.530915	-422.523501	-422.522557	-422.562325	30.185
 OpenBabel02181911413D

 19 21  0  0  1  0  0  0  0  0999 V2000
   -0.7626    0.7687    0.7936 O   0  0  0  0  0  0  0  0  0  0  0  0
   -2.1253    0.5183    0.5303 C   0  0  2  0  0  0  0  0  0  0  0  0
   -2.4407    0.0213   -0.9308 C   0  0  0  0  0  0  0  0  0  0  0  0
   -3.3844    1.1530   -1.3913 C   0  0  1  0  0  0  0  0  0  0  0  0
   -4.3129    1.3104   -0.1451 C   0  0  0  0  0  0  0  0  0  0  0  0
   -3.0034    1.7920    0.5514 C   0  0  2  0  0  0  0  0  0  0  0  0
   -2.6547    2.3746   -0.8242 C   0  0  2  0  0  0  0  0  0  0  0  0
   -2.5110    3.7463   -1.2854 C   0  0  0  0  0  0  0  0  0  0  0  0
   -1.3770    2.8487   -1.2288 O   0  0  0  0  0  0  0  0  0  0  0  0
   -0.4807    1.4856    0.2109 H   0  0  0  0  0  0  0  0  0  0  0  0
   -2.4433   -0.2065    1.2845 H   0  0  0  0  0  0  0  0  0  0  0  0
   -1.5206   -0.0325   -1.5182 H   0  0  0  0  0  0  0  0  0  0  0  0
   -2.9256   -0.9584   -0.9536 H   0  0  0  0  0  0  0  0  0  0  0  0
   -3.7709    1.1251   -2.4094 H   0  0  0  0  0  0  0  0  0  0  0  0
   -5.0547    2.1040   -0.2537 H   0  0  0  0  0  0  0  0  0  0  0  0
   -4.7787    0.4017    0.2439 H   0  0  0  0  0  0  0  0  0  0  0  0
   -2.9969    2.3849    1.4648 H   0  0  0  0  0  0  0  0  0  0  0  0
   -2.8200    4.0205   -2.2927 H   0  0  0  0  0  0  0  0  0  0  0  0
   -2.4882    4.5652   -0.5680 H   0  0  0  0  0  0  0  0  0  0  0  0
  2  6  1  0  0  0  0
  2  1  1  0  0  0  0
  2 11  1  1  0  0  0
  3  2  1  0  0  0  0
  4 14  1  6  0  0  0
  4  3  1  0  0  0  0
  4  7  1  0  0  0  0
  4  5  1  0  0  0  0
  5 16  1  0  0  0  0
  5  6  1  0  0  0  0
  6 17  1  1  0  0  0
  7  9  1  6  0  0  0
  7  6  1  0  0  0  0
  8  9  1  0  0  0  0
  8  7  1  0  0  0  0
  8 19  1  0  0  0  0
 10  1  1  0  0  0  0
 12  3  1  0  0  0  0
 13  3  1  0  0  0  0
 15  5  1  0  0  0  0
 18  8  1  0  0  0  0
M TOR 0 0 1 2 3
M TOR 1 0 1 2 11
M TOR 2 0 1 2 12
M TOR 3 0 1 5 4
M TOR 4 0 1 5 6
M TOR 5 0 1 5 16
M TOR 6 1 2 3 4
M TOR 7 1 2 3 6
M TOR 8 1 2 3 13
M TOR 9 1 5 4 3
M TOR 10 1 5 4 14
M TOR 11 1 5 4 15
M TOR 12 1 5 6 3
M TOR 13 1 5 6 7
M TOR 14 1 5 6 8
M TOR 15 2 1 0 9
M TOR 16 2 1 5 4
M TOR 17 2 1 5 6
M TOR 18 2 1 5 16
M TOR 19 2 3 4 5
M TOR 20 2 3 4 14
M TOR 21 2 3 4 15
M TOR 22 2 3 6 5
M TOR 23 2 3 6 7
M TOR 24 2 3 6 8
M TOR 25 3 2 1 5
M TOR 26 3 2 1 10
M TOR 27 3 4 5 6
M TOR 28 3 4 5 16
M TOR 29 3 6 5 16
M TOR 30 3 6 7 8
M TOR 31 3 6 7 17
M TOR 32 3 6 7 18
M TOR 33 4 3 2 11
M TOR 34 4 3 2 12
M TOR 35 4 3 6 7
M TOR 36 4 3 6 8
M TOR 37 4 5 1 10
M TOR 38 4 5 6 7
M TOR 39 4 5 6 8
M TOR 40 5 1 0 9
M TOR 41 5 1 2 11
M TOR 42 5 1 2 12
M TOR 43 5 4 3 13
M TOR 44 5 6 3 13
M TOR 45 5 6 7 8
M TOR 46 5 6 7 17
M TOR 47 5 6 7 18
M TOR 48 6 3 2 11
M TOR 49 6 3 2 12
M TOR 50 6 3 4 14
M TOR 51 6 3 4 15
M TOR 52 6 5 1 10
M TOR 53 6 5 4 14
M TOR 54 6 5 4 15
M TOR 55 6 8 7 17
M TOR 56 6 8 7 18
M TOR 57 7 6 3 13
M TOR 58 7 6 5 16
M TOR 59 8 6 3 13
M TOR 60 8 6 5 16
M  END
$$$$
