gdb 5721	1.9486145	1.4572505	0.946598	1.0543	76.88	-0.2505	0.02016	0.27066	1267.1745	0.154063	-422.486274	-422.47626	-422.475316	-422.521687	35.866
 OpenBabel02181911423D

 19 19  0  0  1  0  0  0  0  0999 V2000
    1.3402    1.7176    2.4701 O   0  0  0  0  0  0  0  0  0  0  0  0
    0.6947    2.9429    2.1504 C   0  0  0  0  0  0  0  0  0  0  0  0
   -0.4060    2.7680    1.1323 C   0  0  2  0  0  0  0  0  0  0  0  0
   -1.7604    3.4416    1.2567 C   0  0  0  0  0  0  0  0  0  0  0  0
   -1.6311    1.9741    1.5023 C   0  0  1  0  0  0  0  0  0  0  0  0
   -2.2098    1.1166    0.5604 O   0  0  0  0  0  0  0  0  0  0  0  0
   -1.6816   -0.1975    0.5984 C   0  0  0  0  0  0  0  0  0  0  0  0
   -0.3039   -0.3241    0.1040 C   0  0  0  0  0  0  0  0  0  0  0  0
    0.8147   -0.4626   -0.3175 C   0  0  0  0  0  0  0  0  0  0  0  0
    1.3252    1.1612    1.6826 H   0  0  0  0  0  0  0  0  0  0  0  0
    0.2834    3.3307    3.0908 H   0  0  0  0  0  0  0  0  0  0  0  0
    1.4227    3.6877    1.7906 H   0  0  0  0  0  0  0  0  0  0  0  0
   -0.0715    2.6172    0.1100 H   0  0  0  0  0  0  0  0  0  0  0  0
   -1.9513    4.0843    2.1094 H   0  0  0  0  0  0  0  0  0  0  0  0
   -2.2470    3.7462    0.3371 H   0  0  0  0  0  0  0  0  0  0  0  0
   -1.7023    1.6148    2.5296 H   0  0  0  0  0  0  0  0  0  0  0  0
   -1.7345   -0.6049    1.6201 H   0  0  0  0  0  0  0  0  0  0  0  0
   -2.3434   -0.8030   -0.0297 H   0  0  0  0  0  0  0  0  0  0  0  0
    1.7950   -0.5960   -0.7055 H   0  0  0  0  0  0  0  0  0  0  0  0
  2  1  1  0  0  0  0
  2 11  1  0  0  0  0
  3 13  1  6  0  0  0
  3  4  1  0  0  0  0
  3  5  1  0  0  0  0
  3  2  1  0  0  0  0
  4  5  1  0  0  0  0
  4 14  1  0  0  0  0
  5 16  1  1  0  0  0
  6  7  1  0  0  0  0
  6  5  1  0  0  0  0
  7 17  1  0  0  0  0
  8  7  1  0  0  0  0
  9  8  3  0  0  0  0
 10  1  1  0  0  0  0
 12  2  1  0  0  0  0
 15  4  1  0  0  0  0
 18  7  1  0  0  0  0
 19  9  1  0  0  0  0
M TOR 0 0 1 2 3
M TOR 1 0 1 2 4
M TOR 2 0 1 2 12
M TOR 3 1 2 3 4
M TOR 4 1 2 3 13
M TOR 5 1 2 3 14
M TOR 6 1 2 4 5
M TOR 7 1 2 4 15
M TOR 8 2 1 0 9
M TOR 9 2 3 4 5
M TOR 10 2 3 4 15
M TOR 11 2 4 3 13
M TOR 12 2 4 3 14
M TOR 13 2 4 5 6
M TOR 14 3 2 1 10
M TOR 15 3 2 1 11
M TOR 16 3 4 2 12
M TOR 17 3 4 5 6
M TOR 18 4 2 1 10
M TOR 19 4 2 1 11
M TOR 20 4 5 6 7
M TOR 21 4 5 6 16
M TOR 22 4 5 6 17
M TOR 23 5 4 2 12
M TOR 24 5 4 3 13
M TOR 25 5 4 3 14
M TOR 26 5 6 7 8
M TOR 27 6 5 4 15
M TOR 28 6 7 8 18
M TOR 29 8 7 6 16
M TOR 30 8 7 6 17
M  END
$$$$
