gdb 4789	2.3782618	1.0994397	0.8154354	2.1707	77.65	-0.25528	0.05466	0.30994	1416.8096	0.153234	-422.483393	-422.473136	-422.472192	-422.519561	35.712
 OpenBabel02181911413D

 19 19  0  0  1  0  0  0  0  0999 V2000
    1.3631   -0.3550   -0.1508 C   0  0  0  0  0  0  0  0  0  0  0  0
    0.0110    0.0479   -0.0961 O   0  0  0  0  0  0  0  0  0  0  0  0
   -0.3500    0.7535    1.0738 C   0  0  2  0  0  0  0  0  0  0  0  0
   -1.8840    0.7038    1.1807 C   0  0  0  0  0  0  0  0  0  0  0  0
   -2.3965   -0.6399    1.4117 C   0  0  0  0  0  0  0  0  0  0  0  0
   -2.8116   -1.7479    1.6206 C   0  0  0  0  0  0  0  0  0  0  0  0
    0.1264    2.1950    1.0097 C   0  0  2  0  0  0  0  0  0  0  0  0
    1.2992    2.6725    1.7536 C   0  0  0  0  0  0  0  0  0  0  0  0
   -0.0240    2.9496    2.2133 O   0  0  0  0  0  0  0  0  0  0  0  0
    1.6354   -0.9693    0.7207 H   0  0  0  0  0  0  0  0  0  0  0  0
    1.4785   -0.9566   -1.0553 H   0  0  0  0  0  0  0  0  0  0  0  0
    2.0546    0.4977   -0.2053 H   0  0  0  0  0  0  0  0  0  0  0  0
    0.0839    0.2760    1.9666 H   0  0  0  0  0  0  0  0  0  0  0  0
   -2.1885    1.3700    1.9960 H   0  0  0  0  0  0  0  0  0  0  0  0
   -2.3054    1.1127    0.2537 H   0  0  0  0  0  0  0  0  0  0  0  0
   -3.1847   -2.7260    1.7967 H   0  0  0  0  0  0  0  0  0  0  0  0
   -0.1629    2.7242    0.0997 H   0  0  0  0  0  0  0  0  0  0  0  0
    1.8674    1.9734    2.3660 H   0  0  0  0  0  0  0  0  0  0  0  0
    1.8576    3.5335    1.3893 H   0  0  0  0  0  0  0  0  0  0  0  0
  1  2  1  0  0  0  0
  1 10  1  0  0  0  0
  2  3  1  0  0  0  0
  3  4  1  0  0  0  0
  3 13  1  1  0  0  0
  4  5  1  0  0  0  0
  4 14  1  0  0  0  0
  5  6  3  0  0  0  0
  6 16  1  0  0  0  0
  7 17  1  6  0  0  0
  7  3  1  0  0  0  0
  7  8  1  0  0  0  0
  7  9  1  0  0  0  0
  8  9  1  0  0  0  0
  8 18  1  0  0  0  0
 11  1  1  0  0  0  0
 12  1  1  0  0  0  0
 15  4  1  0  0  0  0
 19  8  1  0  0  0  0
M TOR 0 0 1 2 3
M TOR 1 0 1 2 6
M TOR 2 0 1 2 12
M TOR 3 1 2 3 4
M TOR 4 1 2 3 13
M TOR 5 1 2 3 14
M TOR 6 1 2 6 7
M TOR 7 1 2 6 8
M TOR 8 1 2 6 16
M TOR 9 2 1 0 9
M TOR 10 2 1 0 10
M TOR 11 2 1 0 11
M TOR 12 2 3 4 5
M TOR 13 2 6 7 8
M TOR 14 2 6 7 17
M TOR 15 2 6 7 18
M TOR 16 3 2 6 7
M TOR 17 3 2 6 8
M TOR 18 3 2 6 16
M TOR 19 3 4 5 15
M TOR 20 4 3 2 6
M TOR 21 4 3 2 12
M TOR 22 5 4 3 13
M TOR 23 5 4 3 14
M TOR 24 6 2 3 13
M TOR 25 6 2 3 14
M TOR 26 6 8 7 17
M TOR 27 6 8 7 18
M TOR 28 7 6 2 12
M TOR 29 7 8 6 16
M TOR 30 8 6 2 12
M  END
$$$$
