
     RDKit          3D

 19 20  0  0  0  0  0  0  0  0999 V2000
   -0.2227    1.4701    0.1870 C   0  0  0  0  0  0  0  0  0  0  0  0
    0.0931   -0.0124    0.0045 C   0  0  0  0  0  0  0  0  0  0  0  0
   -1.1485   -0.7408   -0.1818 O   0  0  0  0  0  0  0  0  0  0  0  0
   -1.1803   -1.8094    0.7234 C   0  0  0  0  0  0  0  0  0  0  0  0
   -2.0124   -1.8126    2.0767 C   0  0  0  0  0  0  0  0  0  0  0  0
   -2.4114   -0.5054    2.3964 O   0  0  0  0  0  0  0  0  0  0  0  0
   -0.6811   -2.2744    2.8080 C   0  0  0  0  0  0  0  0  0  0  0  0
    0.0185   -1.6878    1.6016 C   0  0  0  0  0  0  0  0  0  0  0  0
    0.7295   -0.6256    1.2462 C   0  0  0  0  0  0  0  0  0  0  0  0
    0.6979    2.0550    0.2863 H   0  0  0  0  0  0  0  0  0  0  0  0
   -0.7766    1.8421   -0.6797 H   0  0  0  0  0  0  0  0  0  0  0  0
   -0.8379    1.6065    1.0802 H   0  0  0  0  0  0  0  0  0  0  0  0
    0.6995   -0.1482   -0.9051 H   0  0  0  0  0  0  0  0  0  0  0  0
   -1.3297   -2.7630    0.1988 H   0  0  0  0  0  0  0  0  0  0  0  0
   -2.8484   -2.5235    2.1245 H   0  0  0  0  0  0  0  0  0  0  0  0
   -2.7165   -0.5001    3.3090 H   0  0  0  0  0  0  0  0  0  0  0  0
   -0.4710   -1.8252    3.7813 H   0  0  0  0  0  0  0  0  0  0  0  0
   -0.6257   -3.3646    2.8849 H   0  0  0  0  0  0  0  0  0  0  0  0
    1.5040   -0.1163    1.8064 H   0  0  0  0  0  0  0  0  0  0  0  0
  1  2  1  0
  2  3  1  0
  3  4  1  0
  4  5  1  0
  5  6  1  0
  5  7  1  0
  7  8  1  0
  8  9  2  0
  9  2  1  0
  8  4  1  0
  1 10  1  0
  1 11  1  0
  1 12  1  0
  2 13  1  0
  4 14  1  0
  5 15  1  0
  6 16  1  0
  7 17  1  0
  7 18  1  0
  9 19  1  0
M  END
$$$$
