
     RDKit          3D

 19 20  0  0  0  0  0  0  0  0999 V2000
    0.8817    0.9726   -0.1526 C   0  0  0  0  0  0  0  0  0  0  0  0
    0.8385   -0.5229    0.1944 C   0  0  0  0  0  0  0  0  0  0  0  0
    1.2279   -1.3993   -1.0277 C   0  0  0  0  0  0  0  0  0  0  0  0
    2.6365   -1.6242   -0.9410 O   0  0  0  0  0  0  0  0  0  0  0  0
    2.9824   -1.6460    0.4058 C   0  0  0  0  0  0  0  0  0  0  0  0
    2.1736   -2.4319    1.3710 C   0  0  0  0  0  0  0  0  0  0  0  0
    1.8882   -0.9336    1.2300 C   0  0  0  0  0  0  0  0  0  0  0  0
    2.3078   -0.0752    2.3561 C   0  0  0  0  0  0  0  0  0  0  0  0
    3.0780   -0.4256    3.2237 O   0  0  0  0  0  0  0  0  0  0  0  0
    0.6044    1.6048    0.6950 H   0  0  0  0  0  0  0  0  0  0  0  0
    1.8818    1.2684   -0.4865 H   0  0  0  0  0  0  0  0  0  0  0  0
    0.1790    1.1892   -0.9632 H   0  0  0  0  0  0  0  0  0  0  0  0
   -0.1730   -0.7885    0.5218 H   0  0  0  0  0  0  0  0  0  0  0  0
    0.6886   -2.3553   -1.0175 H   0  0  0  0  0  0  0  0  0  0  0  0
    1.0317   -0.9098   -1.9850 H   0  0  0  0  0  0  0  0  0  0  0  0
    4.0348   -1.4564    0.5784 H   0  0  0  0  0  0  0  0  0  0  0  0
    1.4301   -3.1338    1.0113 H   0  0  0  0  0  0  0  0  0  0  0  0
    2.6603   -2.6940    2.3038 H   0  0  0  0  0  0  0  0  0  0  0  0
    1.8821    0.9497    2.3660 H   0  0  0  0  0  0  0  0  0  0  0  0
  1  2  1  0
  2  3  1  0
  3  4  1  0
  4  5  1  0
  5  6  1  0
  6  7  1  0
  7  8  1  0
  8  9  2  0
  7  2  1  0
  7  5  1  0
  1 10  1  0
  1 11  1  0
  1 12  1  0
  2 13  1  0
  3 14  1  0
  3 15  1  0
  5 16  1  0
  6 17  1  0
  6 18  1  0
  8 19  1  0
M  END
$$$$
