
     RDKit          3D

 19 19  0  0  0  0  0  0  0  0999 V2000
   -0.6913   -1.3902   -1.8715 O   0  0  0  0  0  0  0  0  0  0  0  0
   -0.2351   -0.2460   -1.1693 C   0  0  0  0  0  0  0  0  0  0  0  0
   -0.4688    0.9804   -2.0503 C   0  0  0  0  0  0  0  0  0  0  0  0
    0.0178    2.2702   -1.3272 C   0  0  0  0  0  0  0  0  0  0  0  0
   -1.2546    2.9129   -0.8477 C   0  0  0  0  0  0  0  0  0  0  0  0
   -2.3434    2.3374   -1.3782 C   0  0  0  0  0  0  0  0  0  0  0  0
   -1.9848    1.2064   -2.3135 C   0  0  0  0  0  0  0  0  0  0  0  0
   -3.7147    2.7718   -1.1042 C   0  0  0  0  0  0  0  0  0  0  0  0
   -4.7025    2.2684   -1.5931 O   0  0  0  0  0  0  0  0  0  0  0  0
   -0.6556   -2.1461   -1.2787 H   0  0  0  0  0  0  0  0  0  0  0  0
   -0.7741   -0.1189   -0.2155 H   0  0  0  0  0  0  0  0  0  0  0  0
    0.8385   -0.3266   -0.9332 H   0  0  0  0  0  0  0  0  0  0  0  0
    0.0731    0.8187   -2.9859 H   0  0  0  0  0  0  0  0  0  0  0  0
    0.7152    2.0573   -0.5065 H   0  0  0  0  0  0  0  0  0  0  0  0
    0.5548    2.9465   -2.0064 H   0  0  0  0  0  0  0  0  0  0  0  0
   -1.2730    3.7604   -0.1693 H   0  0  0  0  0  0  0  0  0  0  0  0
   -2.5710    0.3017   -2.1332 H   0  0  0  0  0  0  0  0  0  0  0  0
   -2.1837    1.4948   -3.3525 H   0  0  0  0  0  0  0  0  0  0  0  0
   -3.7962    3.6238   -0.3914 H   0  0  0  0  0  0  0  0  0  0  0  0
  1  2  1  0
  2  3  1  0
  3  4  1  0
  4  5  1  0
  5  6  2  0
  6  7  1  0
  6  8  1  0
  8  9  2  0
  7  3  1  0
  1 10  1  0
  2 11  1  0
  2 12  1  0
  3 13  1  0
  4 14  1  0
  4 15  1  0
  5 16  1  0
  7 17  1  0
  7 18  1  0
  8 19  1  0
M  END
$$$$
