gdb 5333	2.7081594	1.2008362	0.9790406	0.4977	77.59	-0.24213	-0.00043	0.2417	1251.9164	0.157486	-422.555374	-422.546714	-422.54577	-422.588793	32.946
 OpenBabel02181911423D

 19 20  0  0  1  0  0  0  0  0999 V2000
    1.0205    0.1817   -0.4074 O   0  0  0  0  0  0  0  0  0  0  0  0
    0.6062    0.2277    0.9568 C   0  0  0  0  0  0  0  0  0  0  0  0
   -0.8535    0.5442    1.0888 C   0  0  0  0  0  0  0  0  0  0  0  0
   -1.4053    1.5386    1.7984 C   0  0  0  0  0  0  0  0  0  0  0  0
   -2.9112    1.5922    1.6439 C   0  0  1  0  0  0  0  0  0  0  0  0
   -3.3561    2.7951    1.0208 O   0  0  0  0  0  0  0  0  0  0  0  0
   -3.2233    0.3416    0.8146 C   0  0  2  0  0  0  0  0  0  0  0  0
   -2.8407   -0.9976    1.3805 C   0  0  0  0  0  0  0  0  0  0  0  0
   -1.9001   -0.2891    0.4210 C   0  0  2  0  0  0  0  0  0  0  0  0
    0.8550    1.0521   -0.7847 H   0  0  0  0  0  0  0  0  0  0  0  0
    0.8159   -0.7741    1.3500 H   0  0  0  0  0  0  0  0  0  0  0  0
    1.2060    0.9436    1.5376 H   0  0  0  0  0  0  0  0  0  0  0  0
   -0.8650    2.2463    2.4183 H   0  0  0  0  0  0  0  0  0  0  0  0
   -3.4306    1.5790    2.6091 H   0  0  0  0  0  0  0  0  0  0  0  0
   -2.8260    2.9092    0.2239 H   0  0  0  0  0  0  0  0  0  0  0  0
   -4.0598    0.4023    0.1282 H   0  0  0  0  0  0  0  0  0  0  0  0
   -2.5432   -1.0629    2.4227 H   0  0  0  0  0  0  0  0  0  0  0  0
   -3.3810   -1.8627    1.0090 H   0  0  0  0  0  0  0  0  0  0  0  0
   -1.7031   -0.7238   -0.5514 H   0  0  0  0  0  0  0  0  0  0  0  0
  1  2  1  0  0  0  0
  2  3  1  0  0  0  0
  2 11  1  0  0  0  0
  2 12  1  0  0  0  0
  3  4  2  0  0  0  0
  4 13  1  0  0  0  0
  5  4  1  0  0  0  0
  5 14  1  1  0  0  0
  6  5  1  0  0  0  0
  7 16  1  6  0  0  0
  7  8  1  0  0  0  0
  7  5  1  0  0  0  0
  8 17  1  0  0  0  0
  9 19  1  6  0  0  0
  9  7  1  0  0  0  0
  9  3  1  0  0  0  0
  9  8  1  0  0  0  0
 10  1  1  0  0  0  0
 15  6  1  0  0  0  0
 18  8  1  0  0  0  0
M TOR 0 0 1 2 3
M TOR 1 0 1 2 8
M TOR 2 1 2 3 4
M TOR 3 1 2 3 12
M TOR 4 1 2 8 6
M TOR 5 1 2 8 7
M TOR 6 1 2 8 18
M TOR 7 2 1 0 9
M TOR 8 2 3 4 5
M TOR 9 2 3 4 6
M TOR 10 2 3 4 13
M TOR 11 2 8 6 4
M TOR 12 2 8 6 7
M TOR 13 2 8 6 15
M TOR 14 2 8 7 16
M TOR 15 2 8 7 17
M TOR 16 3 2 1 10
M TOR 17 3 2 1 11
M TOR 18 3 2 8 6
M TOR 19 3 2 8 7
M TOR 20 3 2 8 18
M TOR 21 3 4 5 14
M TOR 22 3 4 6 7
M TOR 23 3 4 6 8
M TOR 24 3 4 6 15
M TOR 25 4 3 2 8
M TOR 26 4 6 7 8
M TOR 27 4 6 7 16
M TOR 28 4 6 7 17
M TOR 29 4 6 8 18
M TOR 30 5 4 3 12
M TOR 31 5 4 6 7
M TOR 32 5 4 6 8
M TOR 33 5 4 6 15
M TOR 34 6 4 3 12
M TOR 35 6 4 5 14
M TOR 36 6 7 8 18
M TOR 37 6 8 7 16
M TOR 38 6 8 7 17
M TOR 39 7 6 4 13
M TOR 40 7 8 6 15
M TOR 41 8 2 1 10
M TOR 42 8 2 1 11
M TOR 43 8 2 3 12
M TOR 44 8 6 4 13
M  END
$$$$
