
     RDKit          3D

 19 21  0  0  0  0  0  0  0  0999 V2000
   -0.1433    0.1066   -0.1041 C   0  0  0  0  0  0  0  0  0  0  0  0
    1.3627   -0.0119    0.0752 C   0  0  0  0  0  0  0  0  0  0  0  0
    1.7367    0.9780    1.0091 O   0  0  0  0  0  0  0  0  0  0  0  0
    2.2506    0.0125   -1.2058 C   0  0  0  0  0  0  0  0  0  0  0  0
    1.7243   -1.1821   -2.0404 C   0  0  0  0  0  0  0  0  0  0  0  0
    2.2960   -2.0352   -0.8938 C   0  0  0  0  0  0  0  0  0  0  0  0
    3.3894   -0.9753   -0.6592 C   0  0  0  0  0  0  0  0  0  0  0  0
    3.2950   -1.0797    0.7754 O   0  0  0  0  0  0  0  0  0  0  0  0
    1.8932   -1.4149    0.4997 C   0  0  0  0  0  0  0  0  0  0  0  0
   -0.6108    0.1228    0.8843 H   0  0  0  0  0  0  0  0  0  0  0  0
   -0.3970    1.0438   -0.6088 H   0  0  0  0  0  0  0  0  0  0  0  0
   -0.5728   -0.7207   -0.6721 H   0  0  0  0  0  0  0  0  0  0  0  0
    2.6186    0.7150    1.3124 H   0  0  0  0  0  0  0  0  0  0  0  0
    2.4627    0.9892   -1.6362 H   0  0  0  0  0  0  0  0  0  0  0  0
    0.6635   -1.2211   -2.2909 H   0  0  0  0  0  0  0  0  0  0  0  0
    2.3120   -1.3433   -2.9493 H   0  0  0  0  0  0  0  0  0  0  0  0
    2.4888   -3.1054   -0.9434 H   0  0  0  0  0  0  0  0  0  0  0  0
    4.3983   -0.9587   -1.0675 H   0  0  0  0  0  0  0  0  0  0  0  0
    1.4088   -1.9616    1.3077 H   0  0  0  0  0  0  0  0  0  0  0  0
  1  2  1  0
  2  3  1  0
  2  4  1  0
  4  5  1  0
  5  6  1  0
  6  7  1  0
  7  8  1  0
  8  9  1  0
  9  2  1  0
  7  4  1  0
  9  6  1  0
  1 10  1  0
  1 11  1  0
  1 12  1  0
  3 13  1  0
  4 14  1  0
  5 15  1  0
  5 16  1  0
  6 17  1  0
  7 18  1  0
  9 19  1  0
M  END
$$$$
