gdb 4805	1.4635378	1.1341339	0.6657009	3.6903	81.43	-0.24349	-0.01475	0.22874	1674.6515	0.152745	-422.539829	-422.528489	-422.527545	-422.578659	37.29
 OpenBabel02181911413D

 19 18  0  0  1  0  0  0  0  0999 V2000
    1.5088    0.1228    0.0845 C   0  0  0  0  0  0  0  0  0  0  0  0
    0.0544    0.0581    0.0721 C   0  0  0  0  0  0  0  0  0  0  0  0
   -1.1486    0.0057    0.0511 C   0  0  0  0  0  0  0  0  0  0  0  0
   -2.6093   -0.0311    0.0450 C   0  0  1  0  0  0  0  0  0  0  0  0
   -3.1386   -0.7853    1.2757 C   0  0  0  0  0  0  0  0  0  0  0  0
   -4.5457   -0.8935    1.1367 O   0  0  0  0  0  0  0  0  0  0  0  0
   -3.2186    1.3872   -0.0428 C   0  0  0  0  0  0  0  0  0  0  0  0
   -2.9179    2.0677   -1.3576 C   0  0  0  0  0  0  0  0  0  0  0  0
   -2.5824    3.2168   -1.4799 O   0  0  0  0  0  0  0  0  0  0  0  0
    1.9132   -0.2137    1.0454 H   0  0  0  0  0  0  0  0  0  0  0  0
    1.9423   -0.5098   -0.6978 H   0  0  0  0  0  0  0  0  0  0  0  0
    1.8598    1.1467   -0.0831 H   0  0  0  0  0  0  0  0  0  0  0  0
   -2.9505   -0.5975   -0.8339 H   0  0  0  0  0  0  0  0  0  0  0  0
   -2.6597   -1.7739    1.3201 H   0  0  0  0  0  0  0  0  0  0  0  0
   -2.8595   -0.2350    2.1867 H   0  0  0  0  0  0  0  0  0  0  0  0
   -4.9036   -1.2781    1.9416 H   0  0  0  0  0  0  0  0  0  0  0  0
   -4.3084    1.2822    0.0390 H   0  0  0  0  0  0  0  0  0  0  0  0
   -2.8696    2.0235    0.7751 H   0  0  0  0  0  0  0  0  0  0  0  0
   -3.0530    1.4128   -2.2516 H   0  0  0  0  0  0  0  0  0  0  0  0
  1 10  1  0  0  0  0
  2  1  1  0  0  0  0
  3  2  3  0  0  0  0
  4 13  1  6  0  0  0
  4  3  1  0  0  0  0
  4  5  1  0  0  0  0
  5 14  1  0  0  0  0
  5 15  1  0  0  0  0
  6  5  1  0  0  0  0
  6 16  1  0  0  0  0
  7 17  1  0  0  0  0
  7  4  1  0  0  0  0
  7 18  1  0  0  0  0
  8  7  1  0  0  0  0
  9  8  2  0  0  0  0
 11  1  1  0  0  0  0
 12  1  1  0  0  0  0
 19  8  1  0  0  0  0
M TOR 0 0 1 2 3
M TOR 1 1 2 3 4
M TOR 2 1 2 3 6
M TOR 3 1 2 3 12
M TOR 4 2 1 0 9
M TOR 5 2 1 0 10
M TOR 6 2 1 0 11
M TOR 7 2 3 4 5
M TOR 8 2 3 4 13
M TOR 9 2 3 4 14
M TOR 10 2 3 6 7
M TOR 11 2 3 6 16
M TOR 12 2 3 6 17
M TOR 13 3 4 5 15
M TOR 14 3 6 7 8
M TOR 15 3 6 7 18
M TOR 16 4 3 6 7
M TOR 17 4 3 6 16
M TOR 18 4 3 6 17
M TOR 19 5 4 3 6
M TOR 20 5 4 3 12
M TOR 21 6 3 4 13
M TOR 22 6 3 4 14
M TOR 23 7 6 3 12
M TOR 24 8 7 6 16
M TOR 25 8 7 6 17
M  END
$$$$
