gdb 5918	2.2410041	0.7725446	0.5968773	3.0826	82.56	-0.24597	-0.03043	0.21554	1850.9852	0.152867	-422.536424	-422.52498	-422.524036	-422.576641	37.344
 OpenBabel02181911423D

 19 18  0  0  1  0  0  0  0  0999 V2000
    1.5157    0.0297   -0.0331 C   0  0  0  0  0  0  0  0  0  0  0  0
    0.0600    0.0193   -0.0243 C   0  0  0  0  0  0  0  0  0  0  0  0
   -1.1446    0.0123   -0.0375 C   0  0  0  0  0  0  0  0  0  0  0  0
   -2.6029    0.0120    0.0078 C   0  0  1  0  0  0  0  0  0  0  0  0
   -3.1820   -1.4289   -0.0027 C   0  0  0  0  0  0  0  0  0  0  0  0
   -4.7023   -1.4657   -0.1838 C   0  0  0  0  0  0  0  0  0  0  0  0
   -5.1985   -2.7918   -0.2528 O   0  0  0  0  0  0  0  0  0  0  0  0
   -3.0540    0.7359    1.2802 C   0  0  0  0  0  0  0  0  0  0  0  0
   -3.8769    1.6105    1.3131 O   0  0  0  0  0  0  0  0  0  0  0  0
    1.9173    0.0566    0.9857 H   0  0  0  0  0  0  0  0  0  0  0  0
    1.9164   -0.8639   -0.5240 H   0  0  0  0  0  0  0  0  0  0  0  0
    1.9030    0.9049   -0.5657 H   0  0  0  0  0  0  0  0  0  0  0  0
   -3.0154    0.5731   -0.8397 H   0  0  0  0  0  0  0  0  0  0  0  0
   -2.7100   -1.9918   -0.8130 H   0  0  0  0  0  0  0  0  0  0  0  0
   -2.9025   -1.9322    0.9332 H   0  0  0  0  0  0  0  0  0  0  0  0
   -5.2027   -0.8878    0.6076 H   0  0  0  0  0  0  0  0  0  0  0  0
   -4.9724   -0.9972   -1.1366 H   0  0  0  0  0  0  0  0  0  0  0  0
   -5.0866   -3.1966    0.6131 H   0  0  0  0  0  0  0  0  0  0  0  0
   -2.5521    0.3646    2.2024 H   0  0  0  0  0  0  0  0  0  0  0  0
  1  2  1  0  0  0  0
  1 10  1  0  0  0  0
  3  2  3  0  0  0  0
  3  4  1  0  0  0  0
  4 13  1  6  0  0  0
  4  8  1  0  0  0  0
  5  4  1  0  0  0  0
  5 15  1  0  0  0  0
  6  5  1  0  0  0  0
  6 16  1  0  0  0  0
  7  6  1  0  0  0  0
  7 18  1  0  0  0  0
  8  9  2  0  0  0  0
  8 19  1  0  0  0  0
 11  1  1  0  0  0  0
 12  1  1  0  0  0  0
 14  5  1  0  0  0  0
 17  6  1  0  0  0  0
M TOR 0 0 1 2 3
M TOR 1 1 2 3 4
M TOR 2 1 2 3 7
M TOR 3 1 2 3 12
M TOR 4 2 1 0 9
M TOR 5 2 1 0 10
M TOR 6 2 1 0 11
M TOR 7 2 3 4 5
M TOR 8 2 3 4 13
M TOR 9 2 3 4 14
M TOR 10 2 3 7 8
M TOR 11 2 3 7 18
M TOR 12 3 4 5 6
M TOR 13 3 4 5 15
M TOR 14 3 4 5 16
M TOR 15 4 3 7 8
M TOR 16 4 3 7 18
M TOR 17 4 5 6 17
M TOR 18 5 4 3 7
M TOR 19 5 4 3 12
M TOR 20 6 5 4 13
M TOR 21 6 5 4 14
M TOR 22 7 3 4 13
M TOR 23 7 3 4 14
M TOR 24 8 7 3 12
M  END
$$$$
