
     RDKit          3D

 19 21  0  0  0  0  0  0  0  0999 V2000
    1.3398    0.2076    0.2952 C   0  0  0  0  0  0  0  0  0  0  0  0
    1.3807    1.3157    1.2010 O   0  0  0  0  0  0  0  0  0  0  0  0
    0.5836    2.3796    0.6970 C   0  0  0  0  0  0  0  0  0  0  0  0
   -0.8591    2.3830    1.2785 C   0  0  0  0  0  0  0  0  0  0  0  0
   -1.6472    1.7911    0.0953 C   0  0  0  0  0  0  0  0  0  0  0  0
   -1.2170    0.3300   -0.1699 C   0  0  0  0  0  0  0  0  0  0  0  0
    0.2358    0.5195   -0.7080 C   0  0  0  0  0  0  0  0  0  0  0  0
    0.2808    2.0712   -0.8001 C   0  0  0  0  0  0  0  0  0  0  0  0
   -1.0576    2.4879   -1.0176 O   0  0  0  0  0  0  0  0  0  0  0  0
    2.3133    0.1079   -0.2076 H   0  0  0  0  0  0  0  0  0  0  0  0
    1.1623   -0.7111    0.8663 H   0  0  0  0  0  0  0  0  0  0  0  0
    1.1167    3.3158    0.8743 H   0  0  0  0  0  0  0  0  0  0  0  0
   -0.9109    1.8013    2.2012 H   0  0  0  0  0  0  0  0  0  0  0  0
   -1.2036    3.4014    1.4767 H   0  0  0  0  0  0  0  0  0  0  0  0
   -2.7228    1.9656    0.1073 H   0  0  0  0  0  0  0  0  0  0  0  0
   -1.2603   -0.2962    0.7253 H   0  0  0  0  0  0  0  0  0  0  0  0
   -1.8593   -0.1160   -0.9326 H   0  0  0  0  0  0  0  0  0  0  0  0
    0.3904    0.0199   -1.6650 H   0  0  0  0  0  0  0  0  0  0  0  0
    0.9443    2.5101   -1.5432 H   0  0  0  0  0  0  0  0  0  0  0  0
  1  2  1  0
  2  3  1  0
  3  4  1  0
  4  5  1  0
  5  6  1  0
  6  7  1  0
  7  8  1  0
  8  9  1  0
  7  1  1  0
  8  3  1  0
  9  5  1  0
  1 10  1  0
  1 11  1  0
  3 12  1  0
  4 13  1  0
  4 14  1  0
  5 15  1  0
  6 16  1  0
  6 17  1  0
  7 18  1  0
  8 19  1  0
M  END
$$$$
