
     RDKit          3D

 19 20  0  0  0  0  0  0  0  0999 V2000
   -4.0037    0.0032   -1.7823 C   0  0  0  0  0  0  0  0  0  0  0  0
   -2.5686   -0.0072   -1.3044 C   0  0  0  0  0  0  0  0  0  0  0  0
   -2.1962   -0.7319   -0.0368 C   0  0  0  0  0  0  0  0  0  0  0  0
   -0.7650   -1.2247    0.0630 C   0  0  0  0  0  0  0  0  0  0  0  0
    0.0981    0.0151   -0.2260 C   0  0  0  0  0  0  0  0  0  0  0  0
    1.2466    0.0125   -0.5779 O   0  0  0  0  0  0  0  0  0  0  0  0
   -0.7618    1.2861    0.0298 C   0  0  0  0  0  0  0  0  0  0  0  0
   -0.4656    1.8136    1.3205 O   0  0  0  0  0  0  0  0  0  0  0  0
   -2.1869    0.7980   -0.0846 C   0  0  0  0  0  0  0  0  0  0  0  0
   -4.6995    0.0308   -0.9371 H   0  0  0  0  0  0  0  0  0  0  0  0
   -4.2078    0.8777   -2.4091 H   0  0  0  0  0  0  0  0  0  0  0  0
   -4.2303   -0.8923   -2.3707 H   0  0  0  0  0  0  0  0  0  0  0  0
   -1.8319   -0.0440   -2.1068 H   0  0  0  0  0  0  0  0  0  0  0  0
   -2.9765   -1.2595    0.5005 H   0  0  0  0  0  0  0  0  0  0  0  0
   -0.5327   -1.5806    1.0760 H   0  0  0  0  0  0  0  0  0  0  0  0
   -0.5039   -2.0327   -0.6265 H   0  0  0  0  0  0  0  0  0  0  0  0
   -0.4885    2.0718   -0.6794 H   0  0  0  0  0  0  0  0  0  0  0  0
   -0.8230    1.2050    1.9772 H   0  0  0  0  0  0  0  0  0  0  0  0
   -2.9564    1.3830    0.4082 H   0  0  0  0  0  0  0  0  0  0  0  0
  1  2  1  0
  2  3  1  0
  3  4  1  0
  4  5  1  0
  5  6  2  0
  5  7  1  0
  7  8  1  0
  7  9  1  0
  9  2  1  0
  9  3  1  0
  1 10  1  0
  1 11  1  0
  1 12  1  0
  2 13  1  0
  3 14  1  0
  4 15  1  0
  4 16  1  0
  7 17  1  0
  8 18  1  0
  9 19  1  0
M  END
$$$$
