
     RDKit          3D

 19 20  0  0  0  0  0  0  0  0999 V2000
    1.2001   -0.6646    0.0244 O   0  0  0  0  0  0  0  0  0  0  0  0
    0.2399    0.0594    0.0213 C   0  0  0  0  0  0  0  0  0  0  0  0
    0.2197    1.4227   -0.6578 C   0  0  0  0  0  0  0  0  0  0  0  0
   -0.9958    2.0488   -0.2977 O   0  0  0  0  0  0  0  0  0  0  0  0
   -1.1021    3.3491   -0.8640 C   0  0  0  0  0  0  0  0  0  0  0  0
   -1.3047    3.2922   -2.3820 C   0  0  0  0  0  0  0  0  0  0  0  0
   -0.3935    2.2560   -3.0406 C   0  0  0  0  0  0  0  0  0  0  0  0
   -0.7839    0.7973   -2.9924 C   0  0  0  0  0  0  0  0  0  0  0  0
    0.3751    1.2877   -2.1652 C   0  0  0  0  0  0  0  0  0  0  0  0
   -0.7208   -0.2146    0.5107 H   0  0  0  0  0  0  0  0  0  0  0  0
    1.0743    2.0011   -0.2633 H   0  0  0  0  0  0  0  0  0  0  0  0
   -1.9487    3.8320   -0.3686 H   0  0  0  0  0  0  0  0  0  0  0  0
   -0.1941    3.9247   -0.6217 H   0  0  0  0  0  0  0  0  0  0  0  0
   -2.3529    3.0618   -2.6036 H   0  0  0  0  0  0  0  0  0  0  0  0
   -1.1072    4.2859   -2.7984 H   0  0  0  0  0  0  0  0  0  0  0  0
    0.1102    2.5850   -3.9436 H   0  0  0  0  0  0  0  0  0  0  0  0
   -1.7073    0.5568   -2.4750 H   0  0  0  0  0  0  0  0  0  0  0  0
   -0.5693    0.1703   -3.8503 H   0  0  0  0  0  0  0  0  0  0  0  0
    1.3727    0.9946   -2.4736 H   0  0  0  0  0  0  0  0  0  0  0  0
  1  2  2  0
  2  3  1  0
  3  4  1  0
  4  5  1  0
  5  6  1  0
  6  7  1  0
  7  8  1  0
  8  9  1  0
  9  3  1  0
  9  7  1  0
  2 10  1  0
  3 11  1  0
  5 12  1  0
  5 13  1  0
  6 14  1  0
  6 15  1  0
  7 16  1  0
  8 17  1  0
  8 18  1  0
  9 19  1  0
M  END
$$$$
