gdb 1540	3.3630569	1.1977548	1.1231624	1.9861	75.34	-0.24179	-0.02314	0.21865	1148.1507	0.15509	-422.554878	-422.546127	-422.545183	-422.588521	33.555
 OpenBabel02181911403D

 19 20  0  0  1  0  0  0  0  0999 V2000
   -2.6540    0.6605   -2.5587 C   0  0  0  0  0  0  0  0  0  0  0  0
   -2.6536   -0.2813   -1.3691 C   0  0  1  0  0  0  0  0  0  0  0  0
   -3.9926   -0.7346   -1.2355 O   0  0  0  0  0  0  0  0  0  0  0  0
   -1.6150   -1.4528   -1.3756 C   0  0  0  0  0  0  0  0  0  0  0  0
   -1.1124   -1.0349    0.0446 C   0  0  2  0  0  0  0  0  0  0  0  0
   -2.0729    0.2173   -0.0046 C   0  0  1  0  0  0  0  0  0  0  0  0
   -0.8433    1.1690   -0.0435 C   0  0  0  0  0  0  0  0  0  0  0  0
    0.0757   -0.0695   -0.0151 C   0  0  0  0  0  0  0  0  0  0  0  0
    1.2628   -0.2183   -0.0060 O   0  0  0  0  0  0  0  0  0  0  0  0
   -3.0451    0.1376   -3.4369 H   0  0  0  0  0  0  0  0  0  0  0  0
   -3.2968    1.5245   -2.3639 H   0  0  0  0  0  0  0  0  0  0  0  0
   -1.6480    1.0155   -2.7946 H   0  0  0  0  0  0  0  0  0  0  0  0
   -4.0475   -1.3006   -0.4579 H   0  0  0  0  0  0  0  0  0  0  0  0
   -2.0985   -2.4322   -1.4027 H   0  0  0  0  0  0  0  0  0  0  0  0
   -0.8573   -1.4232   -2.1630 H   0  0  0  0  0  0  0  0  0  0  0  0
   -1.0996   -1.8008    0.8208 H   0  0  0  0  0  0  0  0  0  0  0  0
   -2.8208    0.4326    0.7592 H   0  0  0  0  0  0  0  0  0  0  0  0
   -0.7334    1.8519   -0.8895 H   0  0  0  0  0  0  0  0  0  0  0  0
   -0.7285    1.7525    0.8767 H   0  0  0  0  0  0  0  0  0  0  0  0
  1 11  1  0  0  0  0
  1  2  1  0  0  0  0
  2  3  1  1  0  0  0
  2  6  1  0  0  0  0
  3 13  1  0  0  0  0
  4  2  1  0  0  0  0
  4  5  1  0  0  0  0
  5 16  1  1  0  0  0
  6  5  1  0  0  0  0
  6 17  1  1  0  0  0
  7  8  1  0  0  0  0
  7  6  1  0  0  0  0
  7 19  1  0  0  0  0
  8  9  2  0  0  0  0
  8  5  1  0  0  0  0
 10  1  1  0  0  0  0
 12  1  1  0  0  0  0
 14  4  1  0  0  0  0
 15  4  1  0  0  0  0
 18  7  1  0  0  0  0
M TOR 0 0 1 2 12
M TOR 1 0 1 3 4
M TOR 2 0 1 3 13
M TOR 3 0 1 3 14
M TOR 4 0 1 5 4
M TOR 5 0 1 5 6
M TOR 6 0 1 5 16
M TOR 7 1 3 4 5
M TOR 8 1 3 4 7
M TOR 9 1 3 4 15
M TOR 10 1 5 4 7
M TOR 11 1 5 4 15
M TOR 12 1 5 6 7
M TOR 13 1 5 6 17
M TOR 14 1 5 6 18
M TOR 15 2 1 0 9
M TOR 16 2 1 0 10
M TOR 17 2 1 0 11
M TOR 18 2 1 3 4
M TOR 19 2 1 3 13
M TOR 20 2 1 3 14
M TOR 21 2 1 5 4
M TOR 22 2 1 5 6
M TOR 23 2 1 5 16
M TOR 24 3 1 0 9
M TOR 25 3 1 0 10
M TOR 26 3 1 0 11
M TOR 27 3 1 2 12
M TOR 28 3 1 5 6
M TOR 29 3 1 5 16
M TOR 30 3 4 5 6
M TOR 31 3 4 5 16
M TOR 32 3 4 7 6
M TOR 33 3 4 7 8
M TOR 34 4 5 6 7
M TOR 35 4 5 6 17
M TOR 36 4 5 6 18
M TOR 37 4 7 6 17
M TOR 38 4 7 6 18
M TOR 39 5 1 0 9
M TOR 40 5 1 0 10
M TOR 41 5 1 0 11
M TOR 42 5 1 2 12
M TOR 43 5 1 3 13
M TOR 44 5 1 3 14
M TOR 45 5 4 3 13
M TOR 46 5 4 3 14
M TOR 47 5 4 7 8
M TOR 48 5 6 7 8
M TOR 49 6 5 4 15
M TOR 50 6 7 4 15
M TOR 51 7 4 3 13
M TOR 52 7 4 3 14
M TOR 53 7 4 5 16
M TOR 54 7 6 5 16
M TOR 55 8 7 4 15
M TOR 56 8 7 6 17
M TOR 57 8 7 6 18
M  END
$$$$
