gdb 5381	3.4765902	1.1147707	0.9422125	2.3975	77.29	-0.24505	0.01528	0.26033	1265.0165	0.157898	-422.5551	-422.546763	-422.545818	-422.588342	31.504
 OpenBabel02181911423D

 19 20  0  0  1  0  0  0  0  0999 V2000
    1.8300    0.5688    0.0106 O   0  0  0  0  0  0  0  0  0  0  0  0
    0.4339    0.8539    0.0946 C   0  0  0  0  0  0  0  0  0  0  0  0
   -0.3130    0.4481   -1.1496 C   0  0  0  0  0  0  0  0  0  0  0  0
   -1.3170   -0.4292   -1.0996 C   0  0  0  0  0  0  0  0  0  0  0  0
   -2.1148   -0.9053   -2.2817 C   0  0  0  0  0  0  0  0  0  0  0  0
   -1.8378   -0.1359   -3.5523 C   0  0  1  0  0  0  0  0  0  0  0  0
   -2.0812    1.2729   -3.5032 O   0  0  0  0  0  0  0  0  0  0  0  0
   -0.7268    0.8234   -3.6244 C   0  0  1  0  0  0  0  0  0  0  0  0
    0.1706    1.0730   -2.4363 C   0  0  0  0  0  0  0  0  0  0  0  0
    1.9166   -0.3841   -0.1009 H   0  0  0  0  0  0  0  0  0  0  0  0
   -0.0198    0.3820    0.9785 H   0  0  0  0  0  0  0  0  0  0  0  0
    0.3787    1.9406    0.2353 H   0  0  0  0  0  0  0  0  0  0  0  0
   -1.6015   -0.8472   -0.1355 H   0  0  0  0  0  0  0  0  0  0  0  0
   -1.9079   -1.9704   -2.4654 H   0  0  0  0  0  0  0  0  0  0  0  0
   -3.1891   -0.8537   -2.0555 H   0  0  0  0  0  0  0  0  0  0  0  0
   -2.1769   -0.6123   -4.4731 H   0  0  0  0  0  0  0  0  0  0  0  0
   -0.2806    1.0290   -4.5983 H   0  0  0  0  0  0  0  0  0  0  0  0
    1.1794    0.7050   -2.6652 H   0  0  0  0  0  0  0  0  0  0  0  0
    0.2886    2.1574   -2.2966 H   0  0  0  0  0  0  0  0  0  0  0  0
  1  2  1  0  0  0  0
  2 12  1  0  0  0  0
  2 11  1  0  0  0  0
  3  4  2  0  0  0  0
  3  2  1  0  0  0  0
  4 13  1  0  0  0  0
  5 15  1  0  0  0  0
  5  4  1  0  0  0  0
  6 16  1  6  0  0  0
  6  7  1  0  0  0  0
  6  5  1  0  0  0  0
  8 17  1  6  0  0  0
  8  6  1  0  0  0  0
  8  7  1  0  0  0  0
  8  9  1  0  0  0  0
  9 19  1  0  0  0  0
  9  3  1  0  0  0  0
 10  1  1  0  0  0  0
 14  5  1  0  0  0  0
 18  9  1  0  0  0  0
M TOR 0 0 1 2 3
M TOR 1 0 1 2 8
M TOR 2 1 2 3 4
M TOR 3 1 2 3 12
M TOR 4 1 2 8 7
M TOR 5 1 2 8 17
M TOR 6 1 2 8 18
M TOR 7 2 1 0 9
M TOR 8 2 3 4 5
M TOR 9 2 3 4 13
M TOR 10 2 3 4 14
M TOR 11 2 8 7 5
M TOR 12 2 8 7 6
M TOR 13 2 8 7 16
M TOR 14 3 2 1 10
M TOR 15 3 2 1 11
M TOR 16 3 2 8 7
M TOR 17 3 2 8 17
M TOR 18 3 2 8 18
M TOR 19 3 4 5 6
M TOR 20 3 4 5 7
M TOR 21 3 4 5 15
M TOR 22 4 3 2 8
M TOR 23 4 5 6 7
M TOR 24 4 5 7 8
M TOR 25 4 5 7 16
M TOR 26 5 4 3 12
M TOR 27 5 6 7 8
M TOR 28 5 6 7 16
M TOR 29 5 7 8 17
M TOR 30 5 7 8 18
M TOR 31 6 5 4 13
M TOR 32 6 5 4 14
M TOR 33 6 7 5 15
M TOR 34 6 7 8 17
M TOR 35 6 7 8 18
M TOR 36 7 5 4 13
M TOR 37 7 5 4 14
M TOR 38 8 2 1 10
M TOR 39 8 2 1 11
M TOR 40 8 2 3 12
M TOR 41 8 7 5 15
M  END
$$$$
