
     RDKit          3D

 19 19  0  0  0  0  0  0  0  0999 V2000
    1.3881    1.9148   -1.3329 C   0  0  0  0  0  0  0  0  0  0  0  0
    1.3640    0.7252   -0.3873 C   0  0  0  0  0  0  0  0  0  0  0  0
    2.3980    0.2803    0.0770 O   0  0  0  0  0  0  0  0  0  0  0  0
    0.0301    0.1566   -0.0759 C   0  0  0  0  0  0  0  0  0  0  0  0
   -0.2464   -0.8874    0.7263 C   0  0  0  0  0  0  0  0  0  0  0  0
    0.6644   -1.7624    1.5195 C   0  0  0  0  0  0  0  0  0  0  0  0
   -1.7345   -1.1062    0.7429 C   0  0  0  0  0  0  0  0  0  0  0  0
   -2.2962   -0.1173   -0.1043 O   0  0  0  0  0  0  0  0  0  0  0  0
   -1.2639    0.6991   -0.6452 C   0  0  0  0  0  0  0  0  0  0  0  0
    0.7977    2.7439   -0.9258 H   0  0  0  0  0  0  0  0  0  0  0  0
    2.4186    2.2375   -1.4819 H   0  0  0  0  0  0  0  0  0  0  0  0
    0.9415    1.6504   -2.2983 H   0  0  0  0  0  0  0  0  0  0  0  0
    0.3977   -1.7205    2.5835 H   0  0  0  0  0  0  0  0  0  0  0  0
    0.5440   -2.8097    1.2138 H   0  0  0  0  0  0  0  0  0  0  0  0
    1.7036   -1.4666    1.3951 H   0  0  0  0  0  0  0  0  0  0  0  0
   -1.9987   -2.1146    0.3831 H   0  0  0  0  0  0  0  0  0  0  0  0
   -2.1448   -1.0157    1.7626 H   0  0  0  0  0  0  0  0  0  0  0  0
   -1.2952    0.6513   -1.7452 H   0  0  0  0  0  0  0  0  0  0  0  0
   -1.4413    1.7498   -0.3660 H   0  0  0  0  0  0  0  0  0  0  0  0
  1  2  1  0
  2  3  2  0
  2  4  1  0
  4  5  2  0
  5  6  1  0
  5  7  1  0
  7  8  1  0
  8  9  1  0
  9  4  1  0
  1 10  1  0
  1 11  1  0
  1 12  1  0
  6 13  1  0
  6 14  1  0
  6 15  1  0
  7 16  1  0
  7 17  1  0
  9 18  1  0
  9 19  1  0
M  END
$$$$
