
     RDKit          3D

 19 20  0  0  0  0  0  0  0  0999 V2000
   -4.1411    0.6639    1.2333 C   0  0  0  0  0  0  0  0  0  0  0  0
   -2.6719    0.2615    1.2293 C   0  0  0  0  0  0  0  0  0  0  0  0
   -1.6450    1.4368    1.4008 C   0  0  0  0  0  0  0  0  0  0  0  0
   -0.7352    1.4543    2.6202 C   0  0  0  0  0  0  0  0  0  0  0  0
   -1.0278    1.0941   -0.0006 C   0  0  0  0  0  0  0  0  0  0  0  0
   -2.0629   -0.0436   -0.1596 C   0  0  0  0  0  0  0  0  0  0  0  0
   -0.9903   -1.0376   -0.0829 O   0  0  0  0  0  0  0  0  0  0  0  0
   -0.0271   -0.0566    0.0324 C   0  0  0  0  0  0  0  0  0  0  0  0
    1.1482   -0.2083    0.1264 O   0  0  0  0  0  0  0  0  0  0  0  0
   -4.4401    1.0401    2.2172 H   0  0  0  0  0  0  0  0  0  0  0  0
   -4.3404    1.4562    0.5024 H   0  0  0  0  0  0  0  0  0  0  0  0
   -4.7858   -0.1868    0.9882 H   0  0  0  0  0  0  0  0  0  0  0  0
   -2.4988   -0.5680    1.9212 H   0  0  0  0  0  0  0  0  0  0  0  0
   -2.1733    2.3923    1.3194 H   0  0  0  0  0  0  0  0  0  0  0  0
   -0.1716    0.5212    2.7163 H   0  0  0  0  0  0  0  0  0  0  0  0
   -0.0110    2.2736    2.5630 H   0  0  0  0  0  0  0  0  0  0  0  0
   -1.3224    1.5892    3.5350 H   0  0  0  0  0  0  0  0  0  0  0  0
   -0.8369    1.8996   -0.7068 H   0  0  0  0  0  0  0  0  0  0  0  0
   -2.7021   -0.2140   -1.0252 H   0  0  0  0  0  0  0  0  0  0  0  0
  1  2  1  0
  2  3  1  0
  3  4  1  0
  3  5  1  0
  5  6  1  0
  6  7  1  0
  7  8  1  0
  8  9  2  0
  6  2  1  0
  8  5  1  0
  1 10  1  0
  1 11  1  0
  1 12  1  0
  2 13  1  0
  3 14  1  0
  4 15  1  0
  4 16  1  0
  4 17  1  0
  5 18  1  0
  6 19  1  0
M  END
$$$$
