gdb 329	2.4050654	2.1620185	1.7283884	0.1427	72.75	-0.24206	0.063	0.30506	890.6783	0.160508	-422.528158	-422.521553	-422.520609	-422.558737	27.461
 OpenBabel02181911403D

 19 21  0  0  1  0  0  0  0  0999 V2000
   -0.7200    0.9387   -1.3030 C   0  0  0  0  0  0  0  0  0  0  0  0
    0.3898    1.9999   -1.5014 C   0  0  0  0  0  0  0  0  0  0  0  0
    1.4005    2.1368   -0.3695 C   0  0  1  0  0  0  0  0  0  0  0  0
    0.7452    2.6238    0.8489 O   0  0  0  0  0  0  0  0  0  0  0  0
    0.9817    1.3777    1.4978 C   0  0  1  0  0  0  0  0  0  0  0  0
    0.0444    0.2192    1.0158 C   0  0  1  0  0  0  0  0  0  0  0  0
   -1.1436    0.6664    0.1537 C   0  0  0  0  0  0  0  0  0  0  0  0
    1.1309   -0.3307    0.1987 O   0  0  0  0  0  0  0  0  0  0  0  0
    1.8984    0.8572    0.3950 C   0  0  1  0  0  0  0  0  0  0  0  0
   -1.6025    1.2433   -1.8755 H   0  0  0  0  0  0  0  0  0  0  0  0
   -0.3818   -0.0093   -1.7267 H   0  0  0  0  0  0  0  0  0  0  0  0
    0.9235    1.8002   -2.4385 H   0  0  0  0  0  0  0  0  0  0  0  0
   -0.0597    2.9946   -1.6104 H   0  0  0  0  0  0  0  0  0  0  0  0
    2.2079    2.8226   -0.6514 H   0  0  0  0  0  0  0  0  0  0  0  0
    1.1978    1.4654    2.5632 H   0  0  0  0  0  0  0  0  0  0  0  0
   -0.2441   -0.5002    1.7884 H   0  0  0  0  0  0  0  0  0  0  0  0
   -1.9119   -0.1140    0.1501 H   0  0  0  0  0  0  0  0  0  0  0  0
   -1.5866    1.5588    0.6096 H   0  0  0  0  0  0  0  0  0  0  0  0
    2.9733    0.6778    0.4425 H   0  0  0  0  0  0  0  0  0  0  0  0
  1  7  1  0  0  0  0
  2  1  1  0  0  0  0
  2  3  1  0  0  0  0
  3 14  1  6  0  0  0
  3  9  1  0  0  0  0
  3  4  1  0  0  0  0
  4  5  1  0  0  0  0
  5 15  1  1  0  0  0
  6  5  1  0  0  0  0
  6 16  1  1  0  0  0
  7 18  1  0  0  0  0
  7  6  1  0  0  0  0
  8  9  1  0  0  0  0
  8  6  1  0  0  0  0
  9 19  1  1  0  0  0
  9  5  1  0  0  0  0
 10  1  1  0  0  0  0
 11  1  1  0  0  0  0
 12  2  1  0  0  0  0
 13  2  1  0  0  0  0
 17  7  1  0  0  0  0
M TOR 0 0 1 2 3
M TOR 1 0 1 2 8
M TOR 2 0 1 2 13
M TOR 3 0 6 5 4
M TOR 4 0 6 5 7
M TOR 5 0 6 5 15
M TOR 6 1 0 6 5
M TOR 7 1 0 6 16
M TOR 8 1 0 6 17
M TOR 9 1 2 3 4
M TOR 10 1 2 8 4
M TOR 11 1 2 8 7
M TOR 12 1 2 8 18
M TOR 13 2 1 0 6
M TOR 14 2 1 0 9
M TOR 15 2 1 0 10
M TOR 16 2 3 4 5
M TOR 17 2 3 4 8
M TOR 18 2 3 4 14
M TOR 19 2 8 4 5
M TOR 20 2 8 4 14
M TOR 21 2 8 7 5
M TOR 22 3 2 1 11
M TOR 23 3 2 1 12
M TOR 24 3 2 8 7
M TOR 25 3 2 8 18
M TOR 26 3 4 5 6
M TOR 27 3 4 5 7
M TOR 28 3 4 5 15
M TOR 29 3 4 8 7
M TOR 30 3 4 8 18
M TOR 31 4 3 2 13
M TOR 32 4 5 6 16
M TOR 33 4 5 6 17
M TOR 34 4 5 7 8
M TOR 35 4 8 2 13
M TOR 36 5 4 8 18
M TOR 37 5 6 0 9
M TOR 38 5 6 0 10
M TOR 39 5 7 8 18
M TOR 40 6 0 1 11
M TOR 41 6 0 1 12
M TOR 42 6 5 4 8
M TOR 43 6 5 4 14
M TOR 44 6 5 7 8
M TOR 45 7 5 4 14
M TOR 46 7 5 6 16
M TOR 47 7 5 6 17
M TOR 48 7 8 2 13
M TOR 49 7 8 4 14
M TOR 50 8 2 1 11
M TOR 51 8 2 1 12
M TOR 52 8 4 5 15
M TOR 53 8 7 5 15
M  END
$$$$
