
     RDKit          3D

 19 20  0  0  0  0  0  0  0  0999 V2000
    1.2313   -0.3624    1.1520 C   0  0  0  0  0  0  0  0  0  0  0  0
    0.7283    0.0023   -0.2502 C   0  0  0  0  0  0  0  0  0  0  0  0
    1.4440   -0.7431   -1.3427 C   0  0  0  0  0  0  0  0  0  0  0  0
    2.9238   -0.6144   -1.3331 O   0  0  0  0  0  0  0  0  0  0  0  0
    2.8144   -1.1318   -2.7033 C   0  0  0  0  0  0  0  0  0  0  0  0
    2.1921   -2.5049   -2.4972 C   0  0  0  0  0  0  0  0  0  0  0  0
    1.2617   -2.2415   -1.5725 C   0  0  0  0  0  0  0  0  0  0  0  0
    1.5290   -0.2350   -2.8469 C   0  0  0  0  0  0  0  0  0  0  0  0
    1.7469    1.1265   -3.0042 O   0  0  0  0  0  0  0  0  0  0  0  0
    1.0690   -1.4227    1.3704 H   0  0  0  0  0  0  0  0  0  0  0  0
    2.3035   -0.1674    1.2377 H   0  0  0  0  0  0  0  0  0  0  0  0
    0.7116    0.2231    1.9158 H   0  0  0  0  0  0  0  0  0  0  0  0
   -0.3447   -0.2095   -0.3399 H   0  0  0  0  0  0  0  0  0  0  0  0
    0.8469    1.0774   -0.4276 H   0  0  0  0  0  0  0  0  0  0  0  0
    3.7093   -0.9993   -3.3097 H   0  0  0  0  0  0  0  0  0  0  0  0
    2.4277   -3.4176   -3.0242 H   0  0  0  0  0  0  0  0  0  0  0  0
    0.5146   -2.8787   -1.1212 H   0  0  0  0  0  0  0  0  0  0  0  0
    0.7496   -0.5461   -3.5451 H   0  0  0  0  0  0  0  0  0  0  0  0
    2.4570    1.3504   -2.3857 H   0  0  0  0  0  0  0  0  0  0  0  0
  1  2  1  0
  2  3  1  0
  3  4  1  0
  4  5  1  0
  5  6  1  0
  6  7  2  0
  5  8  1  0
  8  9  1  0
  7  3  1  0
  8  3  1  0
  1 10  1  0
  1 11  1  0
  1 12  1  0
  2 13  1  0
  2 14  1  0
  5 15  1  0
  6 16  1  0
  7 17  1  0
  8 18  1  0
  9 19  1  0
M  END
$$$$
