gdb 3477	2.3651954	1.750703	1.1886415	2.6514	76.23	-0.24821	-0.00236	0.24584999999999999	1064.9847	0.158633	-422.559113	-422.551053	-422.550109	-422.59142	32.026
 OpenBabel02181911413D

 19 20  0  0  1  0  0  0  0  0999 V2000
    0.2400    0.9560    2.9970 O   0  0  0  0  0  0  0  0  0  0  0  0
   -1.0176    0.4694    2.4837 C   0  0  1  0  0  0  0  0  0  0  0  0
   -2.1625    1.3414    2.9291 C   0  0  0  0  0  0  0  0  0  0  0  0
   -2.5627    2.3974    2.2140 C   0  0  0  0  0  0  0  0  0  0  0  0
   -1.9619    2.7477    0.9057 C   0  0  2  0  0  0  0  0  0  0  0  0
   -2.4446    2.0545   -0.3558 C   0  0  0  0  0  0  0  0  0  0  0  0
   -1.1088    1.6918    0.2385 C   0  0  2  0  0  0  0  0  0  0  0  0
   -0.9227    0.3408    0.9474 C   0  0  1  0  0  0  0  0  0  0  0  0
    0.3124   -0.2523    0.6026 O   0  0  0  0  0  0  0  0  0  0  0  0
    0.2159    1.9173    2.9290 H   0  0  0  0  0  0  0  0  0  0  0  0
   -1.1069   -0.5368    2.9045 H   0  0  0  0  0  0  0  0  0  0  0  0
   -2.6247    1.1139    3.8850 H   0  0  0  0  0  0  0  0  0  0  0  0
   -3.3606    3.0366    2.5865 H   0  0  0  0  0  0  0  0  0  0  0  0
   -1.6758    3.7899    0.7873 H   0  0  0  0  0  0  0  0  0  0  0  0
   -3.2507    1.3345   -0.2509 H   0  0  0  0  0  0  0  0  0  0  0  0
   -2.4679    2.6302   -1.2747 H   0  0  0  0  0  0  0  0  0  0  0  0
   -0.2245    2.0180   -0.2984 H   0  0  0  0  0  0  0  0  0  0  0  0
   -1.7090   -0.3502    0.6194 H   0  0  0  0  0  0  0  0  0  0  0  0
    0.9389    0.0784    1.2633 H   0  0  0  0  0  0  0  0  0  0  0  0
  2 11  1  1  0  0  0
  2  3  1  0  0  0  0
  2  1  1  0  0  0  0
  3 12  1  0  0  0  0
  4 13  1  0  0  0  0
  4  3  2  0  0  0  0
  5 14  1  6  0  0  0
  5  4  1  0  0  0  0
  6 15  1  0  0  0  0
  6  7  1  0  0  0  0
  6  5  1  0  0  0  0
  7 17  1  6  0  0  0
  7  5  1  0  0  0  0
  7  8  1  0  0  0  0
  8 18  1  6  0  0  0
  8  2  1  0  0  0  0
  9  8  1  0  0  0  0
  9 19  1  0  0  0  0
 10  1  1  0  0  0  0
 16  6  1  0  0  0  0
M TOR 0 0 1 2 3
M TOR 1 0 1 2 11
M TOR 2 0 1 7 6
M TOR 3 0 1 7 8
M TOR 4 0 1 7 17
M TOR 5 1 2 3 4
M TOR 6 1 2 3 12
M TOR 7 1 7 6 4
M TOR 8 1 7 6 5
M TOR 9 1 7 6 16
M TOR 10 1 7 8 18
M TOR 11 2 1 0 9
M TOR 12 2 1 7 6
M TOR 13 2 1 7 8
M TOR 14 2 1 7 17
M TOR 15 2 3 4 5
M TOR 16 2 3 4 6
M TOR 17 2 3 4 13
M TOR 18 3 2 1 7
M TOR 19 3 2 1 10
M TOR 20 3 4 5 6
M TOR 21 3 4 5 14
M TOR 22 3 4 5 15
M TOR 23 3 4 6 7
M TOR 24 3 4 6 16
M TOR 25 4 3 2 11
M TOR 26 4 5 6 7
M TOR 27 4 5 6 16
M TOR 28 4 6 5 14
M TOR 29 4 6 5 15
M TOR 30 4 6 7 8
M TOR 31 4 6 7 17
M TOR 32 5 4 3 12
M TOR 33 5 6 4 13
M TOR 34 5 6 7 8
M TOR 35 5 6 7 17
M TOR 36 6 4 3 12
M TOR 37 6 7 1 10
M TOR 38 6 7 8 18
M TOR 39 7 1 0 9
M TOR 40 7 1 2 11
M TOR 41 7 6 4 13
M TOR 42 7 6 5 14
M TOR 43 7 6 5 15
M TOR 44 8 7 1 10
M TOR 45 8 7 6 16
M  END
$$$$
