gdb 1989	2.4885485	1.8557645	1.36678	3.1625	74.3	-0.2391	0.05621	0.29531	1006.4213	0.15541	-422.494578	-422.486265	-422.485321	-422.52682	32.169
 OpenBabel02181911403D

 19 21  0  0  1  0  0  0  0  0999 V2000
    2.8908   -1.2843    0.2818 C   0  0  0  0  0  0  0  0  0  0  0  0
    2.4868    0.1524    0.3649 C   0  0  1  0  0  0  0  0  0  0  0  0
    3.3139    1.0400    1.1214 O   0  0  0  0  0  0  0  0  0  0  0  0
    3.0346    1.3914   -0.2382 C   0  0  2  0  0  0  0  0  0  0  0  0
    1.6215    2.0371   -0.2686 C   0  0  2  0  0  0  0  0  0  0  0  0
    1.2703    2.8387    0.8672 O   0  0  0  0  0  0  0  0  0  0  0  0
    0.7150    1.6904    1.5601 C   0  0  0  0  0  0  0  0  0  0  0  0
    1.0380    0.7513    0.3682 C   0  0  2  0  0  0  0  0  0  0  0  0
   -0.0606   -0.0688   -0.2660 C   0  0  0  0  0  0  0  0  0  0  0  0
    2.6670   -1.8057    1.2197 H   0  0  0  0  0  0  0  0  0  0  0  0
    2.3600   -1.7999   -0.5241 H   0  0  0  0  0  0  0  0  0  0  0  0
    3.9659   -1.3623    0.0999 H   0  0  0  0  0  0  0  0  0  0  0  0
    3.8888    1.5625   -0.8856 H   0  0  0  0  0  0  0  0  0  0  0  0
    1.2940    2.4473   -1.2284 H   0  0  0  0  0  0  0  0  0  0  0  0
    1.2377    1.4875    2.4987 H   0  0  0  0  0  0  0  0  0  0  0  0
   -0.3582    1.8249    1.7442 H   0  0  0  0  0  0  0  0  0  0  0  0
   -0.3319   -0.9258    0.3618 H   0  0  0  0  0  0  0  0  0  0  0  0
   -0.9622    0.5335   -0.4166 H   0  0  0  0  0  0  0  0  0  0  0  0
    0.2450   -0.4597   -1.2431 H   0  0  0  0  0  0  0  0  0  0  0  0
  1 10  1  0  0  0  0
  2  1  1  6  0  0  0
  2  8  1  0  0  0  0
  2  3  1  0  0  0  0
  4 13  1  6  0  0  0
  4  2  1  0  0  0  0
  4  3  1  0  0  0  0
  5 14  1  6  0  0  0
  5  4  1  0  0  0  0
  5  8  1  0  0  0  0
  5  6  1  0  0  0  0
  6  7  1  0  0  0  0
  7 16  1  0  0  0  0
  7 15  1  0  0  0  0
  8  9  1  6  0  0  0
  8  7  1  0  0  0  0
  9 17  1  0  0  0  0
 11  1  1  0  0  0  0
 12  1  1  0  0  0  0
 18  9  1  0  0  0  0
 19  9  1  0  0  0  0
M TOR 0 0 1 2 3
M TOR 1 0 1 3 4
M TOR 2 0 1 3 12
M TOR 3 0 1 7 4
M TOR 4 0 1 7 6
M TOR 5 0 1 7 8
M TOR 6 1 2 3 4
M TOR 7 1 2 3 12
M TOR 8 1 3 4 5
M TOR 9 1 3 4 7
M TOR 10 1 3 4 13
M TOR 11 1 7 4 5
M TOR 12 1 7 4 13
M TOR 13 1 7 6 5
M TOR 14 1 7 6 14
M TOR 15 1 7 6 15
M TOR 16 1 7 8 16
M TOR 17 1 7 8 17
M TOR 18 1 7 8 18
M TOR 19 2 1 0 9
M TOR 20 2 1 0 10
M TOR 21 2 1 0 11
M TOR 22 2 1 7 4
M TOR 23 2 1 7 6
M TOR 24 2 1 7 8
M TOR 25 2 3 1 7
M TOR 26 2 3 4 5
M TOR 27 2 3 4 7
M TOR 28 2 3 4 13
M TOR 29 3 1 0 9
M TOR 30 3 1 0 10
M TOR 31 3 1 0 11
M TOR 32 3 1 7 6
M TOR 33 3 1 7 8
M TOR 34 3 4 5 6
M TOR 35 3 4 7 6
M TOR 36 3 4 7 8
M TOR 37 4 5 6 7
M TOR 38 4 5 6 14
M TOR 39 4 5 6 15
M TOR 40 4 7 6 14
M TOR 41 4 7 6 15
M TOR 42 4 7 8 16
M TOR 43 4 7 8 17
M TOR 44 4 7 8 18
M TOR 45 5 4 3 12
M TOR 46 5 4 7 8
M TOR 47 5 6 7 8
M TOR 48 6 5 4 13
M TOR 49 6 7 4 13
M TOR 50 6 7 8 16
M TOR 51 6 7 8 17
M TOR 52 6 7 8 18
M TOR 53 7 1 0 9
M TOR 54 7 1 0 10
M TOR 55 7 1 0 11
M TOR 56 7 1 3 12
M TOR 57 7 4 3 12
M TOR 58 8 7 4 13
M TOR 59 8 7 6 14
M TOR 60 8 7 6 15
M  END
$$$$
