
     RDKit          3D

 19 18  0  0  0  0  0  0  0  0999 V2000
    1.3942    0.4032   -0.0218 C   0  0  0  0  0  0  0  0  0  0  0  0
   -0.0491    0.2117   -0.0001 C   0  0  0  0  0  0  0  0  0  0  0  0
   -1.2415    0.0478    0.0261 C   0  0  0  0  0  0  0  0  0  0  0  0
   -2.6892   -0.1281    0.0348 C   0  0  0  0  0  0  0  0  0  0  0  0
   -3.4084    0.7882   -0.9760 C   0  0  0  0  0  0  0  0  0  0  0  0
   -4.9158    0.5627   -0.9544 C   0  0  0  0  0  0  0  0  0  0  0  0
   -5.5799    1.3647   -1.9563 O   0  0  0  0  0  0  0  0  0  0  0  0
   -5.9161    2.6108   -1.5960 C   0  0  0  0  0  0  0  0  0  0  0  0
   -5.7213    3.1222   -0.5273 O   0  0  0  0  0  0  0  0  0  0  0  0
    1.7702    0.7133    0.9595 H   0  0  0  0  0  0  0  0  0  0  0  0
    1.9156   -0.5198   -0.2991 H   0  0  0  0  0  0  0  0  0  0  0  0
    1.6825    1.1748   -0.7443 H   0  0  0  0  0  0  0  0  0  0  0  0
   -2.9343   -1.1767   -0.1844 H   0  0  0  0  0  0  0  0  0  0  0  0
   -3.0789    0.0678    1.0429 H   0  0  0  0  0  0  0  0  0  0  0  0
   -3.1958    1.8338   -0.7357 H   0  0  0  0  0  0  0  0  0  0  0  0
   -3.0249    0.5974   -1.9835 H   0  0  0  0  0  0  0  0  0  0  0  0
   -5.1676   -0.4689   -1.2143 H   0  0  0  0  0  0  0  0  0  0  0  0
   -5.3353    0.8027    0.0262 H   0  0  0  0  0  0  0  0  0  0  0  0
   -6.4129    3.0990   -2.4488 H   0  0  0  0  0  0  0  0  0  0  0  0
  1  2  1  0
  2  3  3  0
  3  4  1  0
  4  5  1  0
  5  6  1  0
  6  7  1  0
  7  8  1  0
  8  9  2  0
  1 10  1  0
  1 11  1  0
  1 12  1  0
  4 13  1  0
  4 14  1  0
  5 15  1  0
  5 16  1  0
  6 17  1  0
  6 18  1  0
  8 19  1  0
M  END
$$$$
