gdb 947	3.8369062	1.0861405	1.01103	2.2236	75.45	-0.27058	0.0124	0.28298	1226.3467	0.158498	-422.588643	-422.5806	-422.579656	-422.621975	30.265
 OpenBabel02181911403D

 19 20  0  0  1  0  0  0  0  0999 V2000
    1.0798    0.4150    1.0747 O   0  0  0  0  0  0  0  0  0  0  0  0
    0.0547   -0.1970    0.9381 C   0  0  0  0  0  0  0  0  0  0  0  0
   -1.1123    0.2873    0.5001 O   0  0  0  0  0  0  0  0  0  0  0  0
   -1.1373    1.6984    0.1307 C   0  0  2  0  0  0  0  0  0  0  0  0
   -1.4170    2.5762    1.3660 C   0  0  0  0  0  0  0  0  0  0  0  0
   -2.9580    2.6117    1.5003 C   0  0  0  0  0  0  0  0  0  0  0  0
   -3.4741    2.4348    0.0786 C   0  0  1  0  0  0  0  0  0  0  0  0
   -2.8349    3.2751   -0.9971 C   0  0  0  0  0  0  0  0  0  0  0  0
   -2.3475    1.8657   -0.7600 C   0  0  1  0  0  0  0  0  0  0  0  0
   -0.0702   -1.2697    1.1573 H   0  0  0  0  0  0  0  0  0  0  0  0
   -0.1807    1.9311   -0.3410 H   0  0  0  0  0  0  0  0  0  0  0  0
   -0.9105    2.1902    2.2519 H   0  0  0  0  0  0  0  0  0  0  0  0
   -1.0146    3.5777    1.1872 H   0  0  0  0  0  0  0  0  0  0  0  0
   -3.3051    1.7747    2.1162 H   0  0  0  0  0  0  0  0  0  0  0  0
   -3.3074    3.5338    1.9761 H   0  0  0  0  0  0  0  0  0  0  0  0
   -4.4961    2.1042   -0.0669 H   0  0  0  0  0  0  0  0  0  0  0  0
   -3.4066    3.4380   -1.9039 H   0  0  0  0  0  0  0  0  0  0  0  0
   -2.2062    4.1157   -0.7215 H   0  0  0  0  0  0  0  0  0  0  0  0
   -2.5141    1.1146   -1.5228 H   0  0  0  0  0  0  0  0  0  0  0  0
  2  1  2  0  0  0  0
  2 10  1  0  0  0  0
  3  2  1  0  0  0  0
  4 11  1  6  0  0  0
  4  3  1  0  0  0  0
  4  5  1  0  0  0  0
  5  6  1  0  0  0  0
  5 12  1  0  0  0  0
  6 15  1  0  0  0  0
  6 14  1  0  0  0  0
  7 16  1  6  0  0  0
  7  6  1  0  0  0  0
  8  9  1  0  0  0  0
  8 18  1  0  0  0  0
  8  7  1  0  0  0  0
  9 19  1  6  0  0  0
  9  7  1  0  0  0  0
  9  4  1  0  0  0  0
 13  5  1  0  0  0  0
 17  8  1  0  0  0  0
M TOR 0 0 1 2 3
M TOR 1 1 2 3 4
M TOR 2 1 2 3 8
M TOR 3 1 2 3 10
M TOR 4 2 3 4 5
M TOR 5 2 3 4 11
M TOR 6 2 3 4 12
M TOR 7 2 3 8 6
M TOR 8 2 3 8 7
M TOR 9 2 3 8 18
M TOR 10 3 2 1 9
M TOR 11 3 4 5 6
M TOR 12 3 4 5 13
M TOR 13 3 4 5 14
M TOR 14 3 8 6 5
M TOR 15 3 8 6 7
M TOR 16 3 8 6 15
M TOR 17 3 8 7 16
M TOR 18 3 8 7 17
M TOR 19 4 3 8 6
M TOR 20 4 3 8 7
M TOR 21 4 3 8 18
M TOR 22 4 5 6 7
M TOR 23 4 5 6 8
M TOR 24 4 5 6 15
M TOR 25 5 4 3 8
M TOR 26 5 4 3 10
M TOR 27 5 6 7 8
M TOR 28 5 6 7 16
M TOR 29 5 6 7 17
M TOR 30 5 6 8 18
M TOR 31 6 5 4 11
M TOR 32 6 5 4 12
M TOR 33 6 7 8 18
M TOR 34 6 8 3 10
M TOR 35 6 8 7 16
M TOR 36 6 8 7 17
M TOR 37 7 6 5 13
M TOR 38 7 6 5 14
M TOR 39 7 8 3 10
M TOR 40 7 8 6 15
M TOR 41 8 3 4 11
M TOR 42 8 3 4 12
M TOR 43 8 6 5 13
M TOR 44 8 6 5 14
M  END
$$$$
