gdb 4039	2.9839334	1.4361379	1.4087038	0.856	73.77	-0.22209	0.06842	0.29051	1033.8522	0.15752	-422.526824	-422.518994	-422.518049	-422.558648	31.239
 OpenBabel02181911413D

 19 21  0  0  1  0  0  0  0  0999 V2000
   -0.1694   -0.1710    0.0691 C   0  0  0  0  0  0  0  0  0  0  0  0
    1.3343    0.0816   -0.0288 C   0  0  2  0  0  0  0  0  0  0  0  0
    2.0215   -0.5790   -1.2651 C   0  0  0  0  0  0  0  0  0  0  0  0
    3.3777   -1.0438   -0.7392 C   0  0  2  0  0  0  0  0  0  0  0  0
    3.3495   -2.0045    0.4587 C   0  0  2  0  0  0  0  0  0  0  0  0
    2.0655   -1.9594    1.0832 O   0  0  0  0  0  0  0  0  0  0  0  0
    2.1453   -0.4931    1.1333 C   0  0  1  0  0  0  0  0  0  0  0  0
    3.6231   -0.5455    0.6580 C   0  0  2  0  0  0  0  0  0  0  0  0
    4.6959    0.2231    1.0438 O   0  0  0  0  0  0  0  0  0  0  0  0
   -0.6046    0.3375    0.9363 H   0  0  0  0  0  0  0  0  0  0  0  0
   -0.6894    0.1913   -0.8236 H   0  0  0  0  0  0  0  0  0  0  0  0
   -0.3659   -1.2427    0.1689 H   0  0  0  0  0  0  0  0  0  0  0  0
    1.5252    1.1637   -0.0495 H   0  0  0  0  0  0  0  0  0  0  0  0
    1.4262   -1.4210   -1.6333 H   0  0  0  0  0  0  0  0  0  0  0  0
    2.1329    0.1286   -2.0916 H   0  0  0  0  0  0  0  0  0  0  0  0
    4.2353   -1.1478   -1.3952 H   0  0  0  0  0  0  0  0  0  0  0  0
    3.9337   -2.9133    0.5421 H   0  0  0  0  0  0  0  0  0  0  0  0
    1.9120   -0.1156    2.1323 H   0  0  0  0  0  0  0  0  0  0  0  0
    4.9036    0.0181    1.9627 H   0  0  0  0  0  0  0  0  0  0  0  0
  1 12  1  0  0  0  0
  1 10  1  0  0  0  0
  2 13  1  6  0  0  0
  2  1  1  0  0  0  0
  2  7  1  0  0  0  0
  3  4  1  0  0  0  0
  3  2  1  0  0  0  0
  4 16  1  6  0  0  0
  4  5  1  0  0  0  0
  4  8  1  0  0  0  0
  5 17  1  1  0  0  0
  5  8  1  0  0  0  0
  5  6  1  0  0  0  0
  6  7  1  0  0  0  0
  7 18  1  1  0  0  0
  8  9  1  1  0  0  0
  8  7  1  0  0  0  0
  9 19  1  0  0  0  0
 11  1  1  0  0  0  0
 14  3  1  0  0  0  0
 15  3  1  0  0  0  0
M TOR 0 0 1 2 3
M TOR 1 0 1 2 13
M TOR 2 0 1 2 14
M TOR 3 0 1 6 5
M TOR 4 0 1 6 7
M TOR 5 0 1 6 17
M TOR 6 1 2 3 4
M TOR 7 1 2 3 7
M TOR 8 1 2 3 15
M TOR 9 1 6 5 4
M TOR 10 1 6 7 3
M TOR 11 1 6 7 4
M TOR 12 1 6 7 8
M TOR 13 2 1 0 9
M TOR 14 2 1 0 10
M TOR 15 2 1 0 11
M TOR 16 2 1 6 5
M TOR 17 2 1 6 7
M TOR 18 2 1 6 17
M TOR 19 2 3 4 5
M TOR 20 2 3 4 7
M TOR 21 2 3 4 16
M TOR 22 2 3 7 6
M TOR 23 2 3 7 8
M TOR 24 3 2 1 6
M TOR 25 3 2 1 12
M TOR 26 3 4 5 6
M TOR 27 3 4 7 6
M TOR 28 3 4 7 8
M TOR 29 3 7 4 5
M TOR 30 3 7 4 16
M TOR 31 3 7 6 5
M TOR 32 3 7 6 17
M TOR 33 3 7 8 18
M TOR 34 4 3 2 13
M TOR 35 4 3 2 14
M TOR 36 4 5 6 7
M TOR 37 4 5 6 17
M TOR 38 4 7 3 15
M TOR 39 4 7 6 17
M TOR 40 4 7 8 18
M TOR 41 5 4 3 15
M TOR 42 5 4 7 8
M TOR 43 5 6 1 12
M TOR 44 5 6 7 8
M TOR 45 6 1 0 9
M TOR 46 6 1 0 10
M TOR 47 6 1 0 11
M TOR 48 6 1 2 13
M TOR 49 6 1 2 14
M TOR 50 6 5 4 16
M TOR 51 6 7 3 15
M TOR 52 6 7 4 16
M TOR 53 6 7 8 18
M TOR 54 7 3 2 13
M TOR 55 7 3 2 14
M TOR 56 7 6 1 12
M TOR 57 8 7 3 15
M TOR 58 8 7 4 16
M TOR 59 8 7 6 17
M  END
$$$$
