
     RDKit          3D

 19 20  0  0  0  0  0  0  0  0999 V2000
    2.8480   -0.8030   -0.7667 C   0  0  0  0  0  0  0  0  0  0  0  0
    2.4655   -0.1350    0.5209 C   0  0  0  0  0  0  0  0  0  0  0  0
    3.4317    0.0626    1.6837 C   0  0  0  0  0  0  0  0  0  0  0  0
    2.7185    1.2389    1.1010 C   0  0  0  0  0  0  0  0  0  0  0  0
    1.3985    1.3459    1.6448 O   0  0  0  0  0  0  0  0  0  0  0  0
    1.0132    0.0859    1.0234 C   0  0  0  0  0  0  0  0  0  0  0  0
   -0.0205    0.3086   -0.0661 C   0  0  0  0  0  0  0  0  0  0  0  0
    0.5462   -0.9370    2.0470 C   0  0  0  0  0  0  0  0  0  0  0  0
   -0.0767   -1.9284    1.7626 O   0  0  0  0  0  0  0  0  0  0  0  0
    2.7584   -1.8924   -0.6873 H   0  0  0  0  0  0  0  0  0  0  0  0
    2.2197   -0.4742   -1.6002 H   0  0  0  0  0  0  0  0  0  0  0  0
    3.8879   -0.5769   -1.0229 H   0  0  0  0  0  0  0  0  0  0  0  0
    3.2126   -0.2569    2.6970 H   0  0  0  0  0  0  0  0  0  0  0  0
    4.4732   -0.0431    1.3934 H   0  0  0  0  0  0  0  0  0  0  0  0
    3.1768    2.1372    0.7033 H   0  0  0  0  0  0  0  0  0  0  0  0
   -0.3115   -0.6474   -0.5083 H   0  0  0  0  0  0  0  0  0  0  0  0
   -0.9122    0.7730    0.3648 H   0  0  0  0  0  0  0  0  0  0  0  0
    0.3728    0.9704   -0.8413 H   0  0  0  0  0  0  0  0  0  0  0  0
    0.8471   -0.7099    3.0924 H   0  0  0  0  0  0  0  0  0  0  0  0
  1  2  1  0
  2  3  1  0
  3  4  1  0
  4  5  1  0
  5  6  1  0
  6  7  1  0
  6  8  1  0
  8  9  2  0
  4  2  1  0
  6  2  1  0
  1 10  1  0
  1 11  1  0
  1 12  1  0
  3 13  1  0
  3 14  1  0
  4 15  1  0
  7 16  1  0
  7 17  1  0
  7 18  1  0
  8 19  1  0
M  END
$$$$
