
     RDKit          3D

 19 21  0  0  0  0  0  0  0  0999 V2000
   -3.3591    0.8925    2.8448 C   0  0  0  0  0  0  0  0  0  0  0  0
   -2.3716    2.0296    2.6177 C   0  0  0  0  0  0  0  0  0  0  0  0
   -2.5750    3.0557    3.5849 O   0  0  0  0  0  0  0  0  0  0  0  0
   -2.2811    2.7206    1.2587 C   0  0  0  0  0  0  0  0  0  0  0  0
   -1.2944    1.9372    0.3860 C   0  0  0  0  0  0  0  0  0  0  0  0
   -0.8001    2.9429    1.4099 C   0  0  0  0  0  0  0  0  0  0  0  0
   -0.8490    1.7309    2.4337 C   0  0  0  0  0  0  0  0  0  0  0  0
   -0.7460    0.7740    1.2133 C   0  0  0  0  0  0  0  0  0  0  0  0
    0.5720    0.4062    0.8649 O   0  0  0  0  0  0  0  0  0  0  0  0
   -3.1578    0.3841    3.7967 H   0  0  0  0  0  0  0  0  0  0  0  0
   -4.3760    1.2946    2.8867 H   0  0  0  0  0  0  0  0  0  0  0  0
   -3.3199    0.1421    2.0519 H   0  0  0  0  0  0  0  0  0  0  0  0
   -2.4929    2.6531    4.4563 H   0  0  0  0  0  0  0  0  0  0  0  0
   -3.0104    3.3917    0.8216 H   0  0  0  0  0  0  0  0  0  0  0  0
   -1.3081    2.0283   -0.6935 H   0  0  0  0  0  0  0  0  0  0  0  0
   -0.2086    3.8420    1.3323 H   0  0  0  0  0  0  0  0  0  0  0  0
   -0.2088    1.5791    3.3022 H   0  0  0  0  0  0  0  0  0  0  0  0
   -1.3018   -0.1672    1.2534 H   0  0  0  0  0  0  0  0  0  0  0  0
    1.0716    1.2213    0.7328 H   0  0  0  0  0  0  0  0  0  0  0  0
  1  2  1  0
  2  3  1  0
  2  4  1  0
  4  5  1  0
  5  6  1  0
  6  7  1  0
  7  8  1  0
  8  9  1  0
  7  2  1  0
  6  4  1  0
  8  5  1  0
  1 10  1  0
  1 11  1  0
  1 12  1  0
  3 13  1  0
  4 14  1  0
  5 15  1  0
  6 16  1  0
  7 17  1  0
  8 18  1  0
  9 19  1  0
M  END
$$$$
