
     RDKit          3D

 19 20  0  0  0  0  0  0  0  0999 V2000
    0.7696    1.0891    0.0194 O   0  0  0  0  0  0  0  0  0  0  0  0
   -0.2408    0.4572    0.1292 C   0  0  0  0  0  0  0  0  0  0  0  0
   -0.5537   -1.0377    0.3281 C   0  0  0  0  0  0  0  0  0  0  0  0
   -1.9285   -0.7623   -0.3501 C   0  0  0  0  0  0  0  0  0  0  0  0
   -1.7418    0.7651   -0.1261 C   0  0  0  0  0  0  0  0  0  0  0  0
   -2.0951    1.5939   -1.1937 O   0  0  0  0  0  0  0  0  0  0  0  0
   -2.3038    2.9377   -0.8503 C   0  0  0  0  0  0  0  0  0  0  0  0
   -1.8800    3.9494   -1.8644 C   0  0  0  0  0  0  0  0  0  0  0  0
   -1.1234    3.8243   -0.5572 C   0  0  0  0  0  0  0  0  0  0  0  0
    0.1318   -1.7369   -0.1542 H   0  0  0  0  0  0  0  0  0  0  0  0
   -0.6364   -1.2993    1.3877 H   0  0  0  0  0  0  0  0  0  0  0  0
   -1.9081   -0.9880   -1.4182 H   0  0  0  0  0  0  0  0  0  0  0  0
   -2.8106   -1.2144    0.1030 H   0  0  0  0  0  0  0  0  0  0  0  0
   -2.2172    1.0834    0.8150 H   0  0  0  0  0  0  0  0  0  0  0  0
   -3.2284    3.1043   -0.2967 H   0  0  0  0  0  0  0  0  0  0  0  0
   -1.3972    3.5611   -2.7537 H   0  0  0  0  0  0  0  0  0  0  0  0
   -2.5134    4.8138   -2.0284 H   0  0  0  0  0  0  0  0  0  0  0  0
   -0.1477    3.3534   -0.5830 H   0  0  0  0  0  0  0  0  0  0  0  0
   -1.2425    4.6029    0.1887 H   0  0  0  0  0  0  0  0  0  0  0  0
  1  2  2  0
  2  3  1  0
  3  4  1  0
  4  5  1  0
  5  6  1  0
  6  7  1  0
  7  8  1  0
  8  9  1  0
  5  2  1  0
  9  7  1  0
  3 10  1  0
  3 11  1  0
  4 12  1  0
  4 13  1  0
  5 14  1  0
  7 15  1  0
  8 16  1  0
  8 17  1  0
  9 18  1  0
  9 19  1  0
M  END
$$$$
