gdb 4858	1.9682268	1.5750237	1.4907573	1.9997	76.05	-0.24346	-0.02315	0.22031	1064.0101	0.155529	-422.592139	-422.582785	-422.581841	-422.626564	34.262
 OpenBabel02181911413D

 19 19  0  0  1  0  0  0  0  0999 V2000
   -0.6414    2.0622    1.1516 C   0  0  0  0  0  0  0  0  0  0  0  0
   -1.0112    1.2011   -0.0747 C   0  0  2  0  0  0  0  0  0  0  0  0
   -0.8301    2.0434   -1.3564 C   0  0  0  0  0  0  0  0  0  0  0  0
   -0.9722    1.2908   -2.5470 O   0  0  0  0  0  0  0  0  0  0  0  0
   -2.3738    0.5625    0.0564 C   0  0  0  0  0  0  0  0  0  0  0  0
   -2.3263   -0.7620    0.2009 C   0  0  0  0  0  0  0  0  0  0  0  0
   -0.9190   -1.2952    0.1661 C   0  0  0  0  0  0  0  0  0  0  0  0
   -0.0939   -0.0414   -0.1463 C   0  0  0  0  0  0  0  0  0  0  0  0
    1.0715   -0.0156   -0.4557 O   0  0  0  0  0  0  0  0  0  0  0  0
   -0.7892    1.5104    2.0842 H   0  0  0  0  0  0  0  0  0  0  0  0
    0.4062    2.3742    1.0954 H   0  0  0  0  0  0  0  0  0  0  0  0
   -1.2681    2.9599    1.1919 H   0  0  0  0  0  0  0  0  0  0  0  0
   -1.6016    2.8212   -1.3847 H   0  0  0  0  0  0  0  0  0  0  0  0
    0.1477    2.5423   -1.3143 H   0  0  0  0  0  0  0  0  0  0  0  0
   -0.1560    0.7945   -2.6686 H   0  0  0  0  0  0  0  0  0  0  0  0
   -3.2830    1.1544    0.0471 H   0  0  0  0  0  0  0  0  0  0  0  0
   -3.1891   -1.4055    0.3270 H   0  0  0  0  0  0  0  0  0  0  0  0
   -0.5912   -1.7328    1.1194 H   0  0  0  0  0  0  0  0  0  0  0  0
   -0.7440   -2.0630   -0.5971 H   0  0  0  0  0  0  0  0  0  0  0  0
  1 12  1  0  0  0  0
  1 10  1  0  0  0  0
  2  3  1  6  0  0  0
  2  5  1  0  0  0  0
  2  1  1  0  0  0  0
  3 14  1  0  0  0  0
  4  3  1  0  0  0  0
  5  6  2  0  0  0  0
  6 17  1  0  0  0  0
  7  6  1  0  0  0  0
  7 18  1  0  0  0  0
  8  2  1  0  0  0  0
  8  7  1  0  0  0  0
  9  8  2  0  0  0  0
 11  1  1  0  0  0  0
 13  3  1  0  0  0  0
 15  4  1  0  0  0  0
 16  5  1  0  0  0  0
 19  7  1  0  0  0  0
M TOR 0 0 1 2 3
M TOR 1 0 1 2 12
M TOR 2 0 1 2 13
M TOR 3 0 1 4 5
M TOR 4 0 1 4 15
M TOR 5 0 1 7 6
M TOR 6 0 1 7 8
M TOR 7 1 2 3 14
M TOR 8 1 4 5 6
M TOR 9 1 4 5 16
M TOR 10 1 7 6 5
M TOR 11 1 7 6 17
M TOR 12 1 7 6 18
M TOR 13 2 1 0 9
M TOR 14 2 1 0 10
M TOR 15 2 1 0 11
M TOR 16 2 1 4 5
M TOR 17 2 1 4 15
M TOR 18 2 1 7 6
M TOR 19 2 1 7 8
M TOR 20 3 2 1 4
M TOR 21 3 2 1 7
M TOR 22 4 1 0 9
M TOR 23 4 1 0 10
M TOR 24 4 1 0 11
M TOR 25 4 1 2 12
M TOR 26 4 1 2 13
M TOR 27 4 1 7 6
M TOR 28 4 1 7 8
M TOR 29 4 5 6 7
M TOR 30 4 5 6 17
M TOR 31 4 5 6 18
M TOR 32 5 4 1 7
M TOR 33 5 6 7 8
M TOR 34 6 5 4 15
M TOR 35 7 1 0 9
M TOR 36 7 1 0 10
M TOR 37 7 1 0 11
M TOR 38 7 1 2 12
M TOR 39 7 1 2 13
M TOR 40 7 1 4 15
M TOR 41 7 6 5 16
M TOR 42 8 7 6 17
M TOR 43 8 7 6 18
M  END
$$$$
