
     RDKit          3D

 19 19  0  0  0  0  0  0  0  0999 V2000
    5.1301    2.2771   -1.9282 C   0  0  0  0  0  0  0  0  0  0  0  0
    4.3593    1.0487   -1.5215 C   0  0  0  0  0  0  0  0  0  0  0  0
    3.1114    0.8170   -2.1890 O   0  0  0  0  0  0  0  0  0  0  0  0
    3.0836    1.1157   -0.7948 C   0  0  0  0  0  0  0  0  0  0  0  0
    2.6318    0.0033    0.1396 C   0  0  0  0  0  0  0  0  0  0  0  0
    3.1775    0.2314    1.5726 C   0  0  0  0  0  0  0  0  0  0  0  0
    2.7789   -0.7794    2.4686 O   0  0  0  0  0  0  0  0  0  0  0  0
    1.1741   -0.1034    0.1835 C   0  0  0  0  0  0  0  0  0  0  0  0
   -0.0225   -0.1708    0.2876 C   0  0  0  0  0  0  0  0  0  0  0  0
    5.9073    2.5056   -1.1910 H   0  0  0  0  0  0  0  0  0  0  0  0
    5.6190    2.1215   -2.8954 H   0  0  0  0  0  0  0  0  0  0  0  0
    4.4648    3.1401   -2.0163 H   0  0  0  0  0  0  0  0  0  0  0  0
    4.9554    0.1425   -1.3934 H   0  0  0  0  0  0  0  0  0  0  0  0
    2.6793    2.1013   -0.5577 H   0  0  0  0  0  0  0  0  0  0  0  0
    3.0446   -0.9421   -0.2330 H   0  0  0  0  0  0  0  0  0  0  0  0
    4.2711    0.2106    1.5441 H   0  0  0  0  0  0  0  0  0  0  0  0
    2.8677    1.2305    1.9186 H   0  0  0  0  0  0  0  0  0  0  0  0
    1.8147   -0.8186    2.4408 H   0  0  0  0  0  0  0  0  0  0  0  0
   -1.0814   -0.2393    0.3385 H   0  0  0  0  0  0  0  0  0  0  0  0
  1  2  1  0
  2  3  1  0
  3  4  1  0
  4  5  1  0
  5  6  1  0
  6  7  1  0
  5  8  1  0
  8  9  3  0
  4  2  1  0
  1 10  1  0
  1 11  1  0
  1 12  1  0
  2 13  1  0
  4 14  1  0
  5 15  1  0
  6 16  1  0
  6 17  1  0
  7 18  1  0
  9 19  1  0
M  END
$$$$
