gdb 844	3.6136886	1.1794229	1.0363644	1.6828	75.46	-0.25151	-0.02235	0.22916	1179.6429	0.157965	-422.560598	-422.552576	-422.551632	-422.594145	29.643
 OpenBabel02181911403D

 19 20  0  0  1  0  0  0  0  0999 V2000
    0.5654   -0.9945    0.4553 O   0  0  0  0  0  0  0  0  0  0  0  0
    0.4631    0.0125   -0.1999 C   0  0  0  0  0  0  0  0  0  0  0  0
    0.3763    1.4053    0.3576 C   0  0  1  0  0  0  0  0  0  0  0  0
   -1.0417    2.0584    0.2056 C   0  0  0  0  0  0  0  0  0  0  0  0
   -1.1028    2.2512    1.7463 C   0  0  2  0  0  0  0  0  0  0  0  0
   -0.8159    3.6709    2.2494 C   0  0  0  0  0  0  0  0  0  0  0  0
    0.5919    3.8502    2.1343 O   0  0  0  0  0  0  0  0  0  0  0  0
    1.1760    2.6093    2.5198 C   0  0  0  0  0  0  0  0  0  0  0  0
    0.2857    1.5353    1.8975 C   0  0  2  0  0  0  0  0  0  0  0  0
    0.3942   -0.0369   -1.3121 H   0  0  0  0  0  0  0  0  0  0  0  0
    1.1622    2.0141   -0.1046 H   0  0  0  0  0  0  0  0  0  0  0  0
   -1.0639    2.9794   -0.3817 H   0  0  0  0  0  0  0  0  0  0  0  0
   -1.8018    1.3766   -0.1854 H   0  0  0  0  0  0  0  0  0  0  0  0
   -1.9638    1.7980    2.2393 H   0  0  0  0  0  0  0  0  0  0  0  0
   -1.3016    4.4583    1.6655 H   0  0  0  0  0  0  0  0  0  0  0  0
   -1.1323    3.7703    3.3009 H   0  0  0  0  0  0  0  0  0  0  0  0
    2.2089    2.6001    2.1597 H   0  0  0  0  0  0  0  0  0  0  0  0
    1.1867    2.5105    3.6179 H   0  0  0  0  0  0  0  0  0  0  0  0
    0.3119    0.5775    2.4166 H   0  0  0  0  0  0  0  0  0  0  0  0
  2  3  1  0  0  0  0
  2  1  2  0  0  0  0
  3 11  1  6  0  0  0
  3  9  1  0  0  0  0
  4  3  1  0  0  0  0
  4  5  1  0  0  0  0
  5  9  1  0  0  0  0
  5 14  1  1  0  0  0
  5  6  1  0  0  0  0
  6 16  1  0  0  0  0
  7  6  1  0  0  0  0
  7  8  1  0  0  0  0
  8 18  1  0  0  0  0
  9 19  1  1  0  0  0
  9  8  1  0  0  0  0
 10  2  1  0  0  0  0
 12  4  1  0  0  0  0
 13  4  1  0  0  0  0
 15  6  1  0  0  0  0
 17  8  1  0  0  0  0
M TOR 0 0 1 2 3
M TOR 1 0 1 2 8
M TOR 2 0 1 2 10
M TOR 3 1 2 3 4
M TOR 4 1 2 3 11
M TOR 5 1 2 3 12
M TOR 6 1 2 8 4
M TOR 7 1 2 8 7
M TOR 8 1 2 8 18
M TOR 9 2 3 4 5
M TOR 10 2 3 4 8
M TOR 11 2 3 4 13
M TOR 12 2 8 4 5
M TOR 13 2 8 4 13
M TOR 14 2 8 7 6
M TOR 15 2 8 7 16
M TOR 16 2 8 7 17
M TOR 17 3 2 1 9
M TOR 18 3 2 8 7
M TOR 19 3 2 8 18
M TOR 20 3 4 5 6
M TOR 21 3 4 5 14
M TOR 22 3 4 5 15
M TOR 23 3 4 8 7
M TOR 24 3 4 8 18
M TOR 25 4 3 2 10
M TOR 26 4 5 6 7
M TOR 27 4 8 2 10
M TOR 28 4 8 7 6
M TOR 29 4 8 7 16
M TOR 30 4 8 7 17
M TOR 31 5 4 3 11
M TOR 32 5 4 3 12
M TOR 33 5 4 8 7
M TOR 34 5 4 8 18
M TOR 35 5 6 7 8
M TOR 36 5 6 7 16
M TOR 37 5 6 7 17
M TOR 38 6 5 4 8
M TOR 39 6 5 4 13
M TOR 40 6 7 8 18
M TOR 41 7 6 5 14
M TOR 42 7 6 5 15
M TOR 43 7 8 2 10
M TOR 44 7 8 4 13
M TOR 45 8 2 1 9
M TOR 46 8 2 3 11
M TOR 47 8 2 3 12
M TOR 48 8 4 3 11
M TOR 49 8 4 3 12
M TOR 50 8 4 5 14
M TOR 51 8 4 5 15
M  END
$$$$
