gdb 2997	5.1840672	0.9292926	0.8511404	2.5789	75.88	-0.23245	-0.02764	0.20481	1373.0428	0.155933	-422.553237	-422.54441	-422.543466	-422.587494	32.004
 OpenBabel02181911413D

 19 20  0  0  1  0  0  0  0  0999 V2000
   -0.0797   -0.1137    0.0241 C   0  0  0  0  0  0  0  0  0  0  0  0
    1.4256   -0.0655   -0.1137 C   0  0  1  0  0  0  0  0  0  0  0  0
    2.1651    1.2157    0.2460 C   0  0  2  0  0  0  0  0  0  0  0  0
    3.5455    1.4277   -0.3502 C   0  0  0  0  0  0  0  0  0  0  0  0
    4.2985    0.1229    0.0160 C   0  0  2  0  0  0  0  0  0  0  0  0
    3.5868   -0.5161    1.0782 O   0  0  0  0  0  0  0  0  0  0  0  0
    2.2812    0.0023    1.1253 C   0  0  2  0  0  0  0  0  0  0  0  0
    5.7302    0.3217    0.4832 C   0  0  0  0  0  0  0  0  0  0  0  0
    6.4634    1.1785    0.0638 O   0  0  0  0  0  0  0  0  0  0  0  0
   -0.4135    0.4467    0.9043 H   0  0  0  0  0  0  0  0  0  0  0  0
   -0.5746    0.3239   -0.8499 H   0  0  0  0  0  0  0  0  0  0  0  0
   -0.4357   -1.1437    0.1330 H   0  0  0  0  0  0  0  0  0  0  0  0
    1.8279   -0.6411   -0.9445 H   0  0  0  0  0  0  0  0  0  0  0  0
    1.5889    2.0832    0.5475 H   0  0  0  0  0  0  0  0  0  0  0  0
    3.5416    1.5897   -1.4310 H   0  0  0  0  0  0  0  0  0  0  0  0
    4.0383    2.2895    0.1092 H   0  0  0  0  0  0  0  0  0  0  0  0
    4.3383   -0.5511   -0.8559 H   0  0  0  0  0  0  0  0  0  0  0  0
    1.8435   -0.0840    2.1135 H   0  0  0  0  0  0  0  0  0  0  0  0
    6.0483   -0.4073    1.2600 H   0  0  0  0  0  0  0  0  0  0  0  0
  1 12  1  0  0  0  0
  1 10  1  0  0  0  0
  2 13  1  6  0  0  0
  2  1  1  0  0  0  0
  2  3  1  0  0  0  0
  2  7  1  0  0  0  0
  3 14  1  1  0  0  0
  3  7  1  0  0  0  0
  4  5  1  0  0  0  0
  4 16  1  0  0  0  0
  4  3  1  0  0  0  0
  5 17  1  6  0  0  0
  5  8  1  0  0  0  0
  5  6  1  0  0  0  0
  6  7  1  0  0  0  0
  7 18  1  1  0  0  0
  8 19  1  0  0  0  0
  9  8  2  0  0  0  0
 11  1  1  0  0  0  0
 15  4  1  0  0  0  0
M TOR 0 0 1 2 3
M TOR 1 0 1 2 6
M TOR 2 0 1 2 13
M TOR 3 0 1 6 5
M TOR 4 0 1 6 17
M TOR 5 1 2 3 4
M TOR 6 1 2 3 14
M TOR 7 1 2 3 15
M TOR 8 1 2 6 5
M TOR 9 1 2 6 17
M TOR 10 1 6 2 3
M TOR 11 1 6 2 13
M TOR 12 1 6 5 4
M TOR 13 2 1 0 9
M TOR 14 2 1 0 10
M TOR 15 2 1 0 11
M TOR 16 2 3 4 5
M TOR 17 2 3 4 7
M TOR 18 2 3 4 16
M TOR 19 2 6 1 12
M TOR 20 2 6 5 4
M TOR 21 3 2 1 12
M TOR 22 3 2 6 5
M TOR 23 3 2 6 17
M TOR 24 3 4 5 6
M TOR 25 3 4 7 8
M TOR 26 3 4 7 18
M TOR 27 4 3 2 6
M TOR 28 4 3 2 13
M TOR 29 4 5 6 17
M TOR 30 5 4 3 14
M TOR 31 5 4 3 15
M TOR 32 5 4 7 8
M TOR 33 5 4 7 18
M TOR 34 5 6 1 12
M TOR 35 5 6 2 13
M TOR 36 6 1 0 9
M TOR 37 6 1 0 10
M TOR 38 6 1 0 11
M TOR 39 6 2 3 14
M TOR 40 6 2 3 15
M TOR 41 6 5 4 7
M TOR 42 6 5 4 16
M TOR 43 7 4 3 14
M TOR 44 7 4 3 15
M TOR 45 8 7 4 16
M  END
$$$$
