gdb 312	2.8340827	1.7916133	1.3242337	1.7629	73.93	-0.24137	0.08032	0.32169000000000003	987.9554	0.159592	-422.547513	-422.54019	-422.539246	-422.579331	28.558
 OpenBabel02181911403D

 19 21  0  0  1  0  0  0  0  0999 V2000
    1.6557    1.0290   -2.2427 C   0  0  0  0  0  0  0  0  0  0  0  0
    1.1241    0.2389   -1.0670 C   0  0  1  0  0  0  0  0  0  0  0  0
    2.0682   -0.6992   -0.3390 C   0  0  0  0  0  0  0  0  0  0  0  0
    3.2429    0.0632   -0.0411 O   0  0  0  0  0  0  0  0  0  0  0  0
    2.9223    1.4445   -0.0295 C   0  0  2  0  0  0  0  0  0  0  0  0
    2.4308    2.0384    1.3039 C   0  0  0  0  0  0  0  0  0  0  0  0
    1.5765    3.1178    0.9394 O   0  0  0  0  0  0  0  0  0  0  0  0
    0.9439    2.8359   -0.3169 C   0  0  0  0  0  0  0  0  0  0  0  0
    1.6715    1.6333   -0.8743 C   0  0  1  0  0  0  0  0  0  0  0  0
    2.6067    0.7384   -2.6813 H   0  0  0  0  0  0  0  0  0  0  0  0
    0.9248    1.3967   -2.9558 H   0  0  0  0  0  0  0  0  0  0  0  0
    0.0583    0.0473   -1.0094 H   0  0  0  0  0  0  0  0  0  0  0  0
    1.5912   -1.0677    0.5819 H   0  0  0  0  0  0  0  0  0  0  0  0
    2.3891   -1.5686   -0.9239 H   0  0  0  0  0  0  0  0  0  0  0  0
    3.8048    1.9795   -0.3972 H   0  0  0  0  0  0  0  0  0  0  0  0
    1.8920    1.2666    1.8771 H   0  0  0  0  0  0  0  0  0  0  0  0
    3.2284    2.4431    1.9319 H   0  0  0  0  0  0  0  0  0  0  0  0
   -0.1290    2.6453   -0.1713 H   0  0  0  0  0  0  0  0  0  0  0  0
    1.0466    3.7254   -0.9508 H   0  0  0  0  0  0  0  0  0  0  0  0
  1  2  1  0  0  0  0
  2 12  1  1  0  0  0
  2  9  1  0  0  0  0
  2  3  1  0  0  0  0
  3  4  1  0  0  0  0
  3 13  1  0  0  0  0
  4  5  1  0  0  0  0
  5 15  1  6  0  0  0
  5  6  1  0  0  0  0
  6 16  1  0  0  0  0
  6 17  1  0  0  0  0
  7  6  1  0  0  0  0
  8 18  1  0  0  0  0
  8  7  1  0  0  0  0
  9  1  1  6  0  0  0
  9  8  1  0  0  0  0
  9  5  1  0  0  0  0
 10  1  1  0  0  0  0
 11  1  1  0  0  0  0
 14  3  1  0  0  0  0
 19  8  1  0  0  0  0
M TOR 0 0 1 2 3
M TOR 1 0 1 2 12
M TOR 2 0 1 2 13
M TOR 3 0 1 8 4
M TOR 4 0 1 8 7
M TOR 5 0 8 1 2
M TOR 6 0 8 1 11
M TOR 7 0 8 4 3
M TOR 8 0 8 4 5
M TOR 9 0 8 4 14
M TOR 10 0 8 7 6
M TOR 11 0 8 7 17
M TOR 12 0 8 7 18
M TOR 13 1 2 3 4
M TOR 14 1 8 0 9
M TOR 15 1 8 0 10
M TOR 16 1 8 4 3
M TOR 17 1 8 4 5
M TOR 18 1 8 4 14
M TOR 19 1 8 7 6
M TOR 20 1 8 7 17
M TOR 21 1 8 7 18
M TOR 22 2 1 0 9
M TOR 23 2 1 0 10
M TOR 24 2 1 8 4
M TOR 25 2 1 8 7
M TOR 26 2 3 4 5
M TOR 27 2 3 4 8
M TOR 28 2 3 4 14
M TOR 29 3 2 1 8
M TOR 30 3 2 1 11
M TOR 31 3 4 5 6
M TOR 32 3 4 5 15
M TOR 33 3 4 5 16
M TOR 34 3 4 8 7
M TOR 35 4 3 2 12
M TOR 36 4 3 2 13
M TOR 37 4 5 6 7
M TOR 38 4 8 0 9
M TOR 39 4 8 0 10
M TOR 40 4 8 1 11
M TOR 41 4 8 7 6
M TOR 42 4 8 7 17
M TOR 43 4 8 7 18
M TOR 44 5 4 8 7
M TOR 45 5 6 7 8
M TOR 46 5 6 7 17
M TOR 47 5 6 7 18
M TOR 48 6 5 4 8
M TOR 49 6 5 4 14
M TOR 50 7 6 5 15
M TOR 51 7 6 5 16
M TOR 52 7 8 0 9
M TOR 53 7 8 0 10
M TOR 54 7 8 1 11
M TOR 55 7 8 4 14
M TOR 56 8 1 2 12
M TOR 57 8 1 2 13
M TOR 58 8 4 5 15
M TOR 59 8 4 5 16
M  END
$$$$
