gdb 5449	3.1170044	1.2373564	1.1393242	2.3402	74.43	-0.22969	0.06826	0.29795	1159.6652	0.156035	-422.493812	-422.485282	-422.484338	-422.527028	32.342
 OpenBabel02181911423D

 19 21  0  0  1  0  0  0  0  0999 V2000
   -1.5236    3.0467    2.5479 C   0  0  0  0  0  0  0  0  0  0  0  0
   -1.5390    1.5760    2.3102 C   0  0  2  0  0  0  0  0  0  0  0  0
   -2.1408    1.0705    1.1105 O   0  0  0  0  0  0  0  0  0  0  0  0
   -2.0768   -0.2482    1.7281 C   0  0  2  0  0  0  0  0  0  0  0  0
   -1.9096    0.3993    3.1486 C   0  0  1  0  0  0  0  0  0  0  0  0
   -0.4471    0.5668    2.7306 C   0  0  1  0  0  0  0  0  0  0  0  0
   -0.5593   -0.5914    1.7280 C   0  0  2  0  0  0  0  0  0  0  0  0
    0.2133   -0.5543    0.4170 C   0  0  0  0  0  0  0  0  0  0  0  0
    1.6192   -0.6519    0.6218 O   0  0  0  0  0  0  0  0  0  0  0  0
   -1.0857    3.2677    3.5258 H   0  0  0  0  0  0  0  0  0  0  0  0
   -0.9272    3.5569    1.7839 H   0  0  0  0  0  0  0  0  0  0  0  0
   -2.5379    3.4568    2.5220 H   0  0  0  0  0  0  0  0  0  0  0  0
   -2.8471   -0.9302    1.3742 H   0  0  0  0  0  0  0  0  0  0  0  0
   -2.3913    0.2730    4.1081 H   0  0  0  0  0  0  0  0  0  0  0  0
    0.3886    0.8429    3.3624 H   0  0  0  0  0  0  0  0  0  0  0  0
   -0.3932   -1.5408    2.2480 H   0  0  0  0  0  0  0  0  0  0  0  0
   -0.0560   -1.4189   -0.2007 H   0  0  0  0  0  0  0  0  0  0  0  0
   -0.0538    0.3508   -0.1432 H   0  0  0  0  0  0  0  0  0  0  0  0
    1.8997    0.1497    1.0746 H   0  0  0  0  0  0  0  0  0  0  0  0
  1 10  1  0  0  0  0
  2  1  1  1  0  0  0
  2  6  1  0  0  0  0
  2  5  1  0  0  0  0
  3  4  1  0  0  0  0
  3  2  1  0  0  0  0
  4 13  1  6  0  0  0
  4  5  1  0  0  0  0
  5 14  1  1  0  0  0
  6  5  1  0  0  0  0
  6 15  1  1  0  0  0
  7  4  1  0  0  0  0
  7 16  1  1  0  0  0
  7  6  1  0  0  0  0
  8  9  1  0  0  0  0
  8  7  1  0  0  0  0
  9 19  1  0  0  0  0
 11  1  1  0  0  0  0
 12  1  1  0  0  0  0
 17  8  1  0  0  0  0
 18  8  1  0  0  0  0
M TOR 0 0 1 2 3
M TOR 1 0 1 4 3
M TOR 2 0 1 4 5
M TOR 3 0 1 4 13
M TOR 4 0 1 5 6
M TOR 5 0 1 5 14
M TOR 6 1 2 3 4
M TOR 7 1 2 3 6
M TOR 8 1 2 3 12
M TOR 9 1 4 3 6
M TOR 10 1 4 3 12
M TOR 11 1 4 5 6
M TOR 12 1 4 5 14
M TOR 13 1 5 4 3
M TOR 14 1 5 4 13
M TOR 15 1 5 6 3
M TOR 16 1 5 6 7
M TOR 17 1 5 6 15
M TOR 18 2 1 0 9
M TOR 19 2 1 0 10
M TOR 20 2 1 0 11
M TOR 21 2 1 4 5
M TOR 22 2 1 4 13
M TOR 23 2 1 5 6
M TOR 24 2 1 5 14
M TOR 25 2 3 4 5
M TOR 26 2 3 4 13
M TOR 27 2 3 6 5
M TOR 28 2 3 6 7
M TOR 29 2 3 6 15
M TOR 30 3 2 1 5
M TOR 31 3 4 5 6
M TOR 32 3 4 5 14
M TOR 33 3 6 5 14
M TOR 34 3 6 7 8
M TOR 35 3 6 7 16
M TOR 36 3 6 7 17
M TOR 37 4 1 0 9
M TOR 38 4 1 0 10
M TOR 39 4 1 0 11
M TOR 40 4 3 6 7
M TOR 41 4 3 6 15
M TOR 42 4 5 6 7
M TOR 43 4 5 6 15
M TOR 44 5 1 0 9
M TOR 45 5 1 0 10
M TOR 46 5 1 0 11
M TOR 47 5 4 3 12
M TOR 48 5 6 3 12
M TOR 49 5 6 7 8
M TOR 50 5 6 7 16
M TOR 51 5 6 7 17
M TOR 52 6 3 4 13
M TOR 53 6 5 4 13
M TOR 54 6 7 8 18
M TOR 55 7 6 3 12
M TOR 56 7 6 5 14
M TOR 57 8 7 6 15
M  END
$$$$
