gdb 1973	2.9370547	1.5802858	1.3569028	2.3461	74.02	-0.23541	0.0832	0.31861	1021.7464	0.157424	-422.527784	-422.519926	-422.518982	-422.559673	30.98
 OpenBabel02181911403D

 19 21  0  0  1  0  0  0  0  0999 V2000
    0.0412    0.2737    0.1729 C   0  0  0  0  0  0  0  0  0  0  0  0
    1.5391    0.0902    0.0921 C   0  0  2  0  0  0  0  0  0  0  0  0
    2.1542   -0.6527    1.2708 C   0  0  0  0  0  0  0  0  0  0  0  0
    3.5525   -0.8239    1.2068 O   0  0  0  0  0  0  0  0  0  0  0  0
    4.3113    0.2778    0.8044 C   0  0  2  0  0  0  0  0  0  0  0  0
    4.0343    1.6992    1.2142 C   0  0  0  0  0  0  0  0  0  0  0  0
    3.8002    1.2399   -0.2268 C   0  0  2  0  0  0  0  0  0  0  0  0
    2.3861    1.0368   -0.6491 C   0  0  1  0  0  0  0  0  0  0  0  0
    2.0517   -0.2566   -1.1964 O   0  0  0  0  0  0  0  0  0  0  0  0
   -0.2431    0.8409    1.0657 H   0  0  0  0  0  0  0  0  0  0  0  0
   -0.3215    0.8065   -0.7092 H   0  0  0  0  0  0  0  0  0  0  0  0
   -0.4648   -0.6973    0.2153 H   0  0  0  0  0  0  0  0  0  0  0  0
    1.8619   -0.1287    2.1962 H   0  0  0  0  0  0  0  0  0  0  0  0
    1.7381   -1.6647    1.3249 H   0  0  0  0  0  0  0  0  0  0  0  0
    5.3501   -0.0264    0.7444 H   0  0  0  0  0  0  0  0  0  0  0  0
    3.1532    1.9194    1.8063 H   0  0  0  0  0  0  0  0  0  0  0  0
    4.8832    2.3402    1.4251 H   0  0  0  0  0  0  0  0  0  0  0  0
    4.4838    1.5872   -0.9955 H   0  0  0  0  0  0  0  0  0  0  0  0
    1.9035    1.8678   -1.1650 H   0  0  0  0  0  0  0  0  0  0  0  0
  1 12  1  0  0  0  0
  1 10  1  0  0  0  0
  2  1  1  1  0  0  0
  2  3  1  0  0  0  0
  3 14  1  0  0  0  0
  3 13  1  0  0  0  0
  4  3  1  0  0  0  0
  5 15  1  6  0  0  0
  5  4  1  0  0  0  0
  5  6  1  0  0  0  0
  6 17  1  0  0  0  0
  6 16  1  0  0  0  0
  7 18  1  6  0  0  0
  7  5  1  0  0  0  0
  7  6  1  0  0  0  0
  8 19  1  6  0  0  0
  8  7  1  0  0  0  0
  8  2  1  0  0  0  0
  9  8  1  0  0  0  0
  9  2  1  0  0  0  0
 11  1  1  0  0  0  0
M TOR 0 0 1 2 3
M TOR 1 0 1 2 12
M TOR 2 0 1 2 13
M TOR 3 0 1 7 6
M TOR 4 0 1 7 8
M TOR 5 0 1 7 18
M TOR 6 1 2 3 4
M TOR 7 1 7 6 4
M TOR 8 1 7 6 5
M TOR 9 1 7 6 17
M TOR 10 1 8 7 6
M TOR 11 1 8 7 18
M TOR 12 2 1 0 9
M TOR 13 2 1 0 10
M TOR 14 2 1 0 11
M TOR 15 2 1 7 6
M TOR 16 2 1 7 8
M TOR 17 2 1 7 18
M TOR 18 2 3 4 5
M TOR 19 2 3 4 6
M TOR 20 2 3 4 14
M TOR 21 3 2 1 7
M TOR 22 3 2 1 8
M TOR 23 3 4 5 6
M TOR 24 3 4 5 15
M TOR 25 3 4 5 16
M TOR 26 3 4 6 7
M TOR 27 3 4 6 17
M TOR 28 4 3 2 12
M TOR 29 4 3 2 13
M TOR 30 4 5 6 7
M TOR 31 4 5 6 17
M TOR 32 4 6 5 15
M TOR 33 4 6 5 16
M TOR 34 4 6 7 8
M TOR 35 4 6 7 18
M TOR 36 5 6 4 14
M TOR 37 5 6 7 8
M TOR 38 5 6 7 18
M TOR 39 7 1 0 9
M TOR 40 7 1 0 10
M TOR 41 7 1 0 11
M TOR 42 7 1 2 12
M TOR 43 7 1 2 13
M TOR 44 7 6 4 14
M TOR 45 7 6 5 15
M TOR 46 7 6 5 16
M TOR 47 8 1 0 9
M TOR 48 8 1 0 10
M TOR 49 8 1 0 11
M TOR 50 8 1 2 12
M TOR 51 8 1 2 13
M TOR 52 8 7 6 17
M  END
$$$$
