gdb 5142	3.122511	1.4330934	1.2287446	0.7768	74.3	-0.24663	0.08156	0.32819	1080.7588	0.15697	-422.516411	-422.508417	-422.507473	-422.548682	31.03
 OpenBabel02181911423D

 19 21  0  0  1  0  0  0  0  0999 V2000
    1.3690   -0.1320   -0.0171 C   0  0  0  0  0  0  0  0  0  0  0  0
   -0.0195    0.1521    0.0163 O   0  0  0  0  0  0  0  0  0  0  0  0
   -0.4353    0.7619    1.1921 C   0  0  2  0  0  0  0  0  0  0  0  0
   -0.5334   -0.0004    2.4905 C   0  0  0  0  0  0  0  0  0  0  0  0
   -1.7924    0.4610    1.7778 C   0  0  1  0  0  0  0  0  0  0  0  0
   -2.4663    1.7772    2.1803 C   0  0  0  0  0  0  0  0  0  0  0  0
   -1.4425    2.8697    1.8948 C   0  0  1  0  0  0  0  0  0  0  0  0
   -0.2229    2.7672    2.6478 O   0  0  0  0  0  0  0  0  0  0  0  0
   -0.2376    2.2666    1.3048 C   0  0  1  0  0  0  0  0  0  0  0  0
    1.6602   -0.8144    0.7930 H   0  0  0  0  0  0  0  0  0  0  0  0
    1.5728   -0.6071   -0.9793 H   0  0  0  0  0  0  0  0  0  0  0  0
    1.9771    0.7802    0.0647 H   0  0  0  0  0  0  0  0  0  0  0  0
   -0.3315   -1.0651    2.4378 H   0  0  0  0  0  0  0  0  0  0  0  0
   -0.2240    0.4945    3.4026 H   0  0  0  0  0  0  0  0  0  0  0  0
   -2.4032   -0.3125    1.3267 H   0  0  0  0  0  0  0  0  0  0  0  0
   -3.3522    1.9495    1.5584 H   0  0  0  0  0  0  0  0  0  0  0  0
   -2.7929    1.7924    3.2257 H   0  0  0  0  0  0  0  0  0  0  0  0
   -1.7688    3.8875    1.6922 H   0  0  0  0  0  0  0  0  0  0  0  0
    0.4124    2.7716    0.5953 H   0  0  0  0  0  0  0  0  0  0  0  0
  1  2  1  0  0  0  0
  1 12  1  0  0  0  0
  1 10  1  0  0  0  0
  3  2  1  6  0  0  0
  3  9  1  0  0  0  0
  3  5  1  0  0  0  0
  3  4  1  0  0  0  0
  4 14  1  0  0  0  0
  5 15  1  6  0  0  0
  5  6  1  0  0  0  0
  5  4  1  0  0  0  0
  6 17  1  0  0  0  0
  7 18  1  6  0  0  0
  7  6  1  0  0  0  0
  7  8  1  0  0  0  0
  9 19  1  6  0  0  0
  9  7  1  0  0  0  0
  9  8  1  0  0  0  0
 11  1  1  0  0  0  0
 13  4  1  0  0  0  0
 16  6  1  0  0  0  0
M TOR 0 0 1 2 3
M TOR 1 0 1 2 4
M TOR 2 0 1 2 8
M TOR 3 1 2 3 4
M TOR 4 1 2 3 12
M TOR 5 1 2 3 13
M TOR 6 1 2 4 5
M TOR 7 1 2 4 14
M TOR 8 1 2 8 6
M TOR 9 1 2 8 7
M TOR 10 1 2 8 18
M TOR 11 2 1 0 9
M TOR 12 2 1 0 10
M TOR 13 2 1 0 11
M TOR 14 2 3 4 5
M TOR 15 2 3 4 14
M TOR 16 2 4 3 12
M TOR 17 2 4 3 13
M TOR 18 2 4 5 6
M TOR 19 2 4 5 15
M TOR 20 2 4 5 16
M TOR 21 2 8 6 5
M TOR 22 2 8 6 7
M TOR 23 2 8 6 17
M TOR 24 3 2 8 6
M TOR 25 3 2 8 7
M TOR 26 3 2 8 18
M TOR 27 3 4 2 8
M TOR 28 3 4 5 6
M TOR 29 3 4 5 15
M TOR 30 3 4 5 16
M TOR 31 4 2 8 6
M TOR 32 4 2 8 7
M TOR 33 4 2 8 18
M TOR 34 4 5 6 7
M TOR 35 4 5 6 8
M TOR 36 4 5 6 17
M TOR 37 5 4 2 8
M TOR 38 5 4 3 12
M TOR 39 5 4 3 13
M TOR 40 5 6 7 8
M TOR 41 5 6 8 18
M TOR 42 6 5 4 14
M TOR 43 6 7 8 18
M TOR 44 7 6 5 15
M TOR 45 7 6 5 16
M TOR 46 7 8 6 17
M TOR 47 8 2 3 12
M TOR 48 8 2 3 13
M TOR 49 8 2 4 14
M TOR 50 8 6 5 15
M TOR 51 8 6 5 16
M  END
$$$$
