
     RDKit          3D

 19 20  0  0  0  0  0  0  0  0999 V2000
   -0.4518   -1.9405   -1.4334 C   0  0  0  0  0  0  0  0  0  0  0  0
   -0.7570   -1.2035   -0.1214 C   0  0  0  0  0  0  0  0  0  0  0  0
    0.1036    0.0693   -0.0371 C   0  0  0  0  0  0  0  0  0  0  0  0
    1.2962    0.1450   -0.0792 O   0  0  0  0  0  0  0  0  0  0  0  0
   -0.6911    1.1734    0.0850 O   0  0  0  0  0  0  0  0  0  0  0  0
   -2.0542    0.8001    0.1502 C   0  0  0  0  0  0  0  0  0  0  0  0
   -2.4605    0.0183    1.3645 C   0  0  0  0  0  0  0  0  0  0  0  0
   -2.1889   -0.6965    0.0472 C   0  0  0  0  0  0  0  0  0  0  0  0
   -3.3371   -1.3606   -0.6761 C   0  0  0  0  0  0  0  0  0  0  0  0
   -0.9891   -2.8910   -1.4855 H   0  0  0  0  0  0  0  0  0  0  0  0
   -0.7296   -1.3408   -2.3059 H   0  0  0  0  0  0  0  0  0  0  0  0
    0.6204   -2.1423   -1.4918 H   0  0  0  0  0  0  0  0  0  0  0  0
   -0.4570   -1.8467    0.7141 H   0  0  0  0  0  0  0  0  0  0  0  0
   -2.7032    1.5164   -0.3380 H   0  0  0  0  0  0  0  0  0  0  0  0
   -1.7381   -0.0590    2.1716 H   0  0  0  0  0  0  0  0  0  0  0  0
   -3.4948    0.0843    1.6850 H   0  0  0  0  0  0  0  0  0  0  0  0
   -4.2647   -0.8001   -0.5243 H   0  0  0  0  0  0  0  0  0  0  0  0
   -3.1609   -1.4231   -1.7541 H   0  0  0  0  0  0  0  0  0  0  0  0
   -3.5054   -2.3776   -0.3038 H   0  0  0  0  0  0  0  0  0  0  0  0
  1  2  1  0
  2  3  1  0
  3  4  2  0
  3  5  1  0
  5  6  1  0
  6  7  1  0
  7  8  1  0
  8  9  1  0
  8  2  1  0
  8  6  1  0
  1 10  1  0
  1 11  1  0
  1 12  1  0
  2 13  1  0
  6 14  1  0
  7 15  1  0
  7 16  1  0
  9 17  1  0
  9 18  1  0
  9 19  1  0
M  END
$$$$
