
     RDKit          3D

 19 19  0  0  0  0  0  0  0  0999 V2000
   -3.2326   -1.4432    0.7895 C   0  0  0  0  0  0  0  0  0  0  0  0
   -1.9489   -1.4473   -0.0348 C   0  0  0  0  0  0  0  0  0  0  0  0
   -0.9729   -0.2748    0.2377 C   0  0  0  0  0  0  0  0  0  0  0  0
    0.3797   -0.8822   -0.0596 C   0  0  0  0  0  0  0  0  0  0  0  0
    1.6073   -0.0991   -0.2314 C   0  0  0  0  0  0  0  0  0  0  0  0
    1.6628    1.1073   -0.1395 O   0  0  0  0  0  0  0  0  0  0  0  0
    0.3161   -2.2194   -0.1253 C   0  0  0  0  0  0  0  0  0  0  0  0
   -1.0872   -2.7208    0.1328 C   0  0  0  0  0  0  0  0  0  0  0  0
   -1.5449   -3.7171   -0.7715 O   0  0  0  0  0  0  0  0  0  0  0  0
   -3.0136   -1.4601    1.8637 H   0  0  0  0  0  0  0  0  0  0  0  0
   -3.8318   -0.5499    0.5871 H   0  0  0  0  0  0  0  0  0  0  0  0
   -3.8447   -2.3193    0.5537 H   0  0  0  0  0  0  0  0  0  0  0  0
   -2.2080   -1.4283   -1.1007 H   0  0  0  0  0  0  0  0  0  0  0  0
   -1.1752    0.6125   -0.3685 H   0  0  0  0  0  0  0  0  0  0  0  0
   -1.0222    0.0504    1.2859 H   0  0  0  0  0  0  0  0  0  0  0  0
    2.5139   -0.7022   -0.4636 H   0  0  0  0  0  0  0  0  0  0  0  0
    1.1583   -2.8803   -0.3077 H   0  0  0  0  0  0  0  0  0  0  0  0
   -1.1554   -3.0959    1.1695 H   0  0  0  0  0  0  0  0  0  0  0  0
   -1.1787   -4.5662   -0.5063 H   0  0  0  0  0  0  0  0  0  0  0  0
  1  2  1  0
  2  3  1  0
  3  4  1  0
  4  5  1  0
  5  6  2  0
  4  7  2  0
  7  8  1  0
  8  9  1  0
  8  2  1  0
  1 10  1  0
  1 11  1  0
  1 12  1  0
  2 13  1  0
  3 14  1  0
  3 15  1  0
  5 16  1  0
  7 17  1  0
  8 18  1  0
  9 19  1  0
M  END
$$$$
