gdb 687	3.0051495	1.290118	1.1618304	1.9348	75.62	-0.24169	-0.02502	0.21666999999999997	1122.1821	0.157559	-422.566895	-422.558524	-422.55758	-422.60114	30.634
 OpenBabel02181911403D

 19 20  0  0  1  0  0  0  0  0999 V2000
    1.1159   -0.4916   -0.3142 O   0  0  0  0  0  0  0  0  0  0  0  0
   -0.0436   -0.2683   -0.1130 C   0  0  0  0  0  0  0  0  0  0  0  0
   -1.2892   -1.1409    0.1001 C   0  0  0  0  0  0  0  0  0  0  0  0
   -2.1494    0.1482   -0.0794 C   0  0  0  0  0  0  0  0  0  0  0  0
   -0.8601    1.0331   -0.0527 C   0  0  2  0  0  0  0  0  0  0  0  0
   -0.6339    2.1003   -1.1456 C   0  0  0  0  0  0  0  0  0  0  0  0
   -0.6806    3.4474   -0.3769 C   0  0  0  0  0  0  0  0  0  0  0  0
   -1.1549    3.1438    0.9287 O   0  0  0  0  0  0  0  0  0  0  0  0
   -0.6498    1.8600    1.2359 C   0  0  0  0  0  0  0  0  0  0  0  0
   -1.4275   -1.9532   -0.6179 H   0  0  0  0  0  0  0  0  0  0  0  0
   -1.3227   -1.5657    1.1089 H   0  0  0  0  0  0  0  0  0  0  0  0
   -2.6621    0.1799   -1.0434 H   0  0  0  0  0  0  0  0  0  0  0  0
   -2.8748    0.3534    0.7100 H   0  0  0  0  0  0  0  0  0  0  0  0
    0.3350    1.9512   -1.6302 H   0  0  0  0  0  0  0  0  0  0  0  0
   -1.4072    2.0388   -1.9150 H   0  0  0  0  0  0  0  0  0  0  0  0
    0.3232    3.8950   -0.3234 H   0  0  0  0  0  0  0  0  0  0  0  0
   -1.3612    4.1806   -0.8166 H   0  0  0  0  0  0  0  0  0  0  0  0
    0.4256    1.9025    1.4774 H   0  0  0  0  0  0  0  0  0  0  0  0
   -1.1929    1.4752    2.1029 H   0  0  0  0  0  0  0  0  0  0  0  0
  1  2  2  0  0  0  0
  2  3  1  0  0  0  0
  3 11  1  0  0  0  0
  4  5  1  0  0  0  0
  4  3  1  0  0  0  0
  4 13  1  0  0  0  0
  5  2  1  6  0  0  0
  5  9  1  0  0  0  0
  6  7  1  0  0  0  0
  6  5  1  0  0  0  0
  7 16  1  0  0  0  0
  7  8  1  0  0  0  0
  8  9  1  0  0  0  0
  9 18  1  0  0  0  0
  9 19  1  0  0  0  0
 10  3  1  0  0  0  0
 12  4  1  0  0  0  0
 14  6  1  0  0  0  0
 15  6  1  0  0  0  0
 17  7  1  0  0  0  0
M TOR 0 0 1 2 3
M TOR 1 0 1 2 9
M TOR 2 0 1 2 10
M TOR 3 0 1 4 3
M TOR 4 0 1 4 5
M TOR 5 0 1 4 8
M TOR 6 1 2 3 4
M TOR 7 1 2 3 11
M TOR 8 1 2 3 12
M TOR 9 1 4 3 11
M TOR 10 1 4 3 12
M TOR 11 1 4 5 6
M TOR 12 1 4 5 13
M TOR 13 1 4 5 14
M TOR 14 1 4 8 7
M TOR 15 1 4 8 17
M TOR 16 1 4 8 18
M TOR 17 2 1 4 5
M TOR 18 2 1 4 8
M TOR 19 2 3 4 5
M TOR 20 2 3 4 8
M TOR 21 3 4 5 6
M TOR 22 3 4 5 13
M TOR 23 3 4 5 14
M TOR 24 3 4 8 7
M TOR 25 3 4 8 17
M TOR 26 3 4 8 18
M TOR 27 4 1 2 9
M TOR 28 4 1 2 10
M TOR 29 4 3 2 9
M TOR 30 4 3 2 10
M TOR 31 4 5 6 7
M TOR 32 4 5 6 15
M TOR 33 4 5 6 16
M TOR 34 4 8 7 6
M TOR 35 5 4 3 11
M TOR 36 5 4 3 12
M TOR 37 5 4 8 7
M TOR 38 5 4 8 17
M TOR 39 5 4 8 18
M TOR 40 5 6 7 8
M TOR 41 6 5 4 8
M TOR 42 6 7 8 17
M TOR 43 6 7 8 18
M TOR 44 7 6 5 13
M TOR 45 7 6 5 14
M TOR 46 8 4 3 11
M TOR 47 8 4 3 12
M TOR 48 8 4 5 13
M TOR 49 8 4 5 14
M TOR 50 8 7 6 15
M TOR 51 8 7 6 16
M  END
$$$$
