gdb 5431	3.2607142	1.0786048	0.9218455	4.3583	77.69	-0.235	-0.00399	0.23101	1311.3601	0.154813	-422.547242	-422.537941	-422.536997	-422.581269	34.409
 OpenBabel02181911423D

 19 20  0  0  1  0  0  0  0  0999 V2000
    2.1176   -1.1854    1.2305 C   0  0  0  0  0  0  0  0  0  0  0  0
    1.8797   -0.2323    0.0509 C   0  0  0  0  0  0  0  0  0  0  0  0
    2.1328   -0.8979   -1.2908 C   0  0  2  0  0  0  0  0  0  0  0  0
    1.4816   -0.2148   -2.5148 C   0  0  1  0  0  0  0  0  0  0  0  0
    1.8990   -0.9131   -3.7623 C   0  0  0  0  0  0  0  0  0  0  0  0
    2.2518   -0.5388   -4.8464 O   0  0  0  0  0  0  0  0  0  0  0  0
    1.4966   -2.3151   -3.2242 C   0  0  0  0  0  0  0  0  0  0  0  0
    1.0209   -1.6173   -1.9516 C   0  0  1  0  0  0  0  0  0  0  0  0
   -0.1607   -2.0139   -1.3727 O   0  0  0  0  0  0  0  0  0  0  0  0
    1.4618   -2.0614    1.1791 H   0  0  0  0  0  0  0  0  0  0  0  0
    3.1491   -1.5523    1.2333 H   0  0  0  0  0  0  0  0  0  0  0  0
    1.9382   -0.6835    2.1858 H   0  0  0  0  0  0  0  0  0  0  0  0
    0.8560    0.1658    0.0869 H   0  0  0  0  0  0  0  0  0  0  0  0
    2.5337    0.6423    0.1452 H   0  0  0  0  0  0  0  0  0  0  0  0
    3.1476   -1.2845   -1.3951 H   0  0  0  0  0  0  0  0  0  0  0  0
    1.0809    0.7884   -2.4253 H   0  0  0  0  0  0  0  0  0  0  0  0
    0.6654   -2.7103   -3.8155 H   0  0  0  0  0  0  0  0  0  0  0  0
    2.2713   -3.0811   -3.1218 H   0  0  0  0  0  0  0  0  0  0  0  0
   -0.2392   -1.6205   -0.4973 H   0  0  0  0  0  0  0  0  0  0  0  0
  1 11  1  0  0  0  0
  1 12  1  0  0  0  0
  2 13  1  0  0  0  0
  2 14  1  0  0  0  0
  2  1  1  0  0  0  0
  3 15  1  6  0  0  0
  3  2  1  0  0  0  0
  4 16  1  1  0  0  0
  4  8  1  0  0  0  0
  4  3  1  0  0  0  0
  5  7  1  0  0  0  0
  5  4  1  0  0  0  0
  6  5  2  0  0  0  0
  7 18  1  0  0  0  0
  7  8  1  0  0  0  0
  8  9  1  1  0  0  0
  8  3  1  0  0  0  0
  9 19  1  0  0  0  0
 10  1  1  0  0  0  0
 17  7  1  0  0  0  0
M TOR 0 0 1 2 3
M TOR 1 0 1 2 7
M TOR 2 0 1 2 14
M TOR 3 1 2 3 4
M TOR 4 1 2 3 7
M TOR 5 1 2 3 15
M TOR 6 1 2 7 6
M TOR 7 1 2 7 8
M TOR 8 2 1 0 9
M TOR 9 2 1 0 10
M TOR 10 2 1 0 11
M TOR 11 2 3 4 5
M TOR 12 2 3 4 6
M TOR 13 2 3 7 6
M TOR 14 2 3 7 8
M TOR 15 2 7 3 4
M TOR 16 2 7 3 15
M TOR 17 2 7 6 4
M TOR 18 2 7 6 16
M TOR 19 2 7 6 17
M TOR 20 2 7 8 18
M TOR 21 3 2 1 12
M TOR 22 3 2 1 13
M TOR 23 3 4 6 7
M TOR 24 3 4 6 16
M TOR 25 3 4 6 17
M TOR 26 3 7 2 14
M TOR 27 3 7 6 16
M TOR 28 3 7 6 17
M TOR 29 3 7 8 18
M TOR 30 4 3 2 14
M TOR 31 4 3 7 8
M TOR 32 4 6 7 8
M TOR 33 5 4 3 7
M TOR 34 5 4 3 15
M TOR 35 5 4 6 7
M TOR 36 5 4 6 16
M TOR 37 5 4 6 17
M TOR 38 6 4 3 15
M TOR 39 6 7 2 14
M TOR 40 6 7 3 15
M TOR 41 6 7 8 18
M TOR 42 7 2 1 12
M TOR 43 7 2 1 13
M TOR 44 8 7 2 14
M TOR 45 8 7 3 15
M TOR 46 8 7 6 16
M TOR 47 8 7 6 17
M  END
$$$$
