gdb 4197	2.3470194	1.5401874	1.0446099	2.9162	75.27	-0.23774	-0.01467	0.22307000000000002	1152.0371	0.158043	-422.581947	-422.573737	-422.572793	-422.614633	31.898
 OpenBabel02181911413D

 19 20  0  0  1  0  0  0  0  0999 V2000
   -1.8813    2.4334    2.0105 O   0  0  0  0  0  0  0  0  0  0  0  0
   -1.7546    1.2568    1.2243 C   0  0  2  0  0  0  0  0  0  0  0  0
   -1.7771   -0.0090    2.0908 C   0  0  0  0  0  0  0  0  0  0  0  0
   -1.6214   -1.2867    1.2842 C   0  0  1  0  0  0  0  0  0  0  0  0
   -2.2926   -1.4334   -0.0449 C   0  0  0  0  0  0  0  0  0  0  0  0
   -0.7753   -1.2557    0.0234 C   0  0  1  0  0  0  0  0  0  0  0  0
   -0.1598    0.0255   -0.4351 C   0  0  0  0  0  0  0  0  0  0  0  0
    0.6389    0.0521   -1.3448 O   0  0  0  0  0  0  0  0  0  0  0  0
   -0.4999    1.3008    0.3441 C   0  0  0  0  0  0  0  0  0  0  0  0
   -1.1179    2.4802    2.5972 H   0  0  0  0  0  0  0  0  0  0  0  0
   -2.6457    1.2760    0.5876 H   0  0  0  0  0  0  0  0  0  0  0  0
   -0.9537    0.0570    2.8176 H   0  0  0  0  0  0  0  0  0  0  0  0
   -2.7079   -0.0292    2.6681 H   0  0  0  0  0  0  0  0  0  0  0  0
   -1.5353   -2.1903    1.8803 H   0  0  0  0  0  0  0  0  0  0  0  0
   -2.6400   -2.4141   -0.3485 H   0  0  0  0  0  0  0  0  0  0  0  0
   -2.8904   -0.6175   -0.4336 H   0  0  0  0  0  0  0  0  0  0  0  0
   -0.1862   -2.1262   -0.2419 H   0  0  0  0  0  0  0  0  0  0  0  0
    0.3718    1.4696    0.9965 H   0  0  0  0  0  0  0  0  0  0  0  0
   -0.5290    2.1443   -0.3502 H   0  0  0  0  0  0  0  0  0  0  0  0
  1 10  1  0  0  0  0
  2 11  1  6  0  0  0
  2  1  1  0  0  0  0
  2  3  1  0  0  0  0
  3 13  1  0  0  0  0
  3 12  1  0  0  0  0
  4 14  1  1  0  0  0
  4  3  1  0  0  0  0
  5  6  1  0  0  0  0
  5  4  1  0  0  0  0
  6 17  1  6  0  0  0
  6  4  1  0  0  0  0
  7  6  1  0  0  0  0
  7  9  1  0  0  0  0
  8  7  2  0  0  0  0
  9 18  1  0  0  0  0
  9  2  1  0  0  0  0
 15  5  1  0  0  0  0
 16  5  1  0  0  0  0
 19  9  1  0  0  0  0
M TOR 0 0 1 2 3
M TOR 1 0 1 2 11
M TOR 2 0 1 2 12
M TOR 3 0 1 8 6
M TOR 4 0 1 8 17
M TOR 5 0 1 8 18
M TOR 6 1 2 3 4
M TOR 7 1 2 3 5
M TOR 8 1 2 3 13
M TOR 9 1 8 6 5
M TOR 10 1 8 6 7
M TOR 11 2 1 0 9
M TOR 12 2 1 8 6
M TOR 13 2 1 8 17
M TOR 14 2 1 8 18
M TOR 15 2 3 4 5
M TOR 16 2 3 4 14
M TOR 17 2 3 4 15
M TOR 18 2 3 5 6
M TOR 19 2 3 5 16
M TOR 20 3 2 1 8
M TOR 21 3 2 1 10
M TOR 22 3 4 5 6
M TOR 23 3 4 5 16
M TOR 24 3 5 4 14
M TOR 25 3 5 4 15
M TOR 26 3 5 6 7
M TOR 27 3 5 6 8
M TOR 28 4 3 2 11
M TOR 29 4 3 2 12
M TOR 30 4 5 3 13
M TOR 31 4 5 6 7
M TOR 32 4 5 6 8
M TOR 33 5 3 2 11
M TOR 34 5 3 2 12
M TOR 35 5 6 8 17
M TOR 36 5 6 8 18
M TOR 37 6 5 3 13
M TOR 38 6 5 4 14
M TOR 39 6 5 4 15
M TOR 40 6 8 1 10
M TOR 41 7 6 5 16
M TOR 42 7 6 8 17
M TOR 43 7 6 8 18
M TOR 44 8 1 0 9
M TOR 45 8 1 2 11
M TOR 46 8 1 2 12
M TOR 47 8 6 5 16
M  END
$$$$
