
     RDKit          3D

 19 21  0  0  0  0  0  0  0  0999 V2000
   -0.6901    0.4135    0.8499 O   0  0  0  0  0  0  0  0  0  0  0  0
   -1.8839    0.9000    0.2529 C   0  0  0  0  0  0  0  0  0  0  0  0
   -2.5800   -0.1193   -0.6993 C   0  0  0  0  0  0  0  0  0  0  0  0
   -3.8576   -0.3887    0.0914 C   0  0  0  0  0  0  0  0  0  0  0  0
   -4.4069    0.9732    0.6316 C   0  0  0  0  0  0  0  0  0  0  0  0
   -4.9417    0.2479    1.8963 C   0  0  0  0  0  0  0  0  0  0  0  0
   -3.5437   -0.3440    1.6124 C   0  0  0  0  0  0  0  0  0  0  0  0
   -2.8520   -1.3630    2.2636 O   0  0  0  0  0  0  0  0  0  0  0  0
   -2.9956    1.0891    1.2855 C   0  0  0  0  0  0  0  0  0  0  0  0
   -0.9315   -0.3804    1.3446 H   0  0  0  0  0  0  0  0  0  0  0  0
   -1.5983    1.8249   -0.2558 H   0  0  0  0  0  0  0  0  0  0  0  0
   -2.7912    0.3004   -1.6883 H   0  0  0  0  0  0  0  0  0  0  0  0
   -1.9545   -1.0058   -0.8374 H   0  0  0  0  0  0  0  0  0  0  0  0
   -4.5694   -1.1329   -0.2697 H   0  0  0  0  0  0  0  0  0  0  0  0
   -4.9156    1.7394    0.0506 H   0  0  0  0  0  0  0  0  0  0  0  0
   -5.0512    0.8560    2.7994 H   0  0  0  0  0  0  0  0  0  0  0  0
   -5.7989   -0.4167    1.7555 H   0  0  0  0  0  0  0  0  0  0  0  0
   -2.7856   -1.1378    3.1985 H   0  0  0  0  0  0  0  0  0  0  0  0
   -2.8343    1.8003    2.0981 H   0  0  0  0  0  0  0  0  0  0  0  0
  1  2  1  0
  2  3  1  0
  3  4  1  0
  4  5  1  0
  5  6  1  0
  6  7  1  0
  7  8  1  0
  7  9  1  0
  9  2  1  0
  7  4  1  0
  9  5  1  0
  1 10  1  0
  2 11  1  0
  3 12  1  0
  3 13  1  0
  4 14  1  0
  5 15  1  0
  6 16  1  0
  6 17  1  0
  8 18  1  0
  9 19  1  0
M  END
$$$$
