gdb 884	2.4928744	1.4002904	0.966574	3.8734	75.51	-0.24227	-0.02742	0.21485	1216.9888	0.157132	-422.605726	-422.597099	-422.596155	-422.639624	31.646
 OpenBabel02181911403D

 19 19  0  0  1  0  0  0  0  0999 V2000
    0.4557    0.2418   -0.8732 O   0  0  0  0  0  0  0  0  0  0  0  0
    0.2029   -0.1759    0.2276 C   0  0  0  0  0  0  0  0  0  0  0  0
   -0.5144    0.6378    1.2918 C   0  0  1  0  0  0  0  0  0  0  0  0
   -1.0044    2.0090    0.7867 C   0  0  0  0  0  0  0  0  0  0  0  0
   -1.7517    2.7802    1.8801 C   0  0  0  0  0  0  0  0  0  0  0  0
   -2.9315    1.9674    2.4277 C   0  0  0  0  0  0  0  0  0  0  0  0
   -2.4712    0.5958    2.9623 C   0  0  0  0  0  0  0  0  0  0  0  0
   -1.6554   -0.1671    1.9318 C   0  0  0  0  0  0  0  0  0  0  0  0
   -1.8850   -1.3150    1.6280 O   0  0  0  0  0  0  0  0  0  0  0  0
    0.4969   -1.1972    0.5420 H   0  0  0  0  0  0  0  0  0  0  0  0
    0.2193    0.8017    2.1009 H   0  0  0  0  0  0  0  0  0  0  0  0
   -0.1498    2.5777    0.4104 H   0  0  0  0  0  0  0  0  0  0  0  0
   -1.6634    1.8482   -0.0746 H   0  0  0  0  0  0  0  0  0  0  0  0
   -1.0611    3.0222    2.7000 H   0  0  0  0  0  0  0  0  0  0  0  0
   -2.1078    3.7361    1.4816 H   0  0  0  0  0  0  0  0  0  0  0  0
   -3.4449    2.5155    3.2243 H   0  0  0  0  0  0  0  0  0  0  0  0
   -3.6682    1.8116    1.6294 H   0  0  0  0  0  0  0  0  0  0  0  0
   -1.8289    0.7522    3.8411 H   0  0  0  0  0  0  0  0  0  0  0  0
   -3.3104   -0.0328    3.2694 H   0  0  0  0  0  0  0  0  0  0  0  0
  1  2  2  0  0  0  0
  2 10  1  0  0  0  0
  2  3  1  0  0  0  0
  3  8  1  0  0  0  0
  3 11  1  1  0  0  0
  4  3  1  0  0  0  0
  4  5  1  0  0  0  0
  5  6  1  0  0  0  0
  5 14  1  0  0  0  0
  6  7  1  0  0  0  0
  6 16  1  0  0  0  0
  7 19  1  0  0  0  0
  7 18  1  0  0  0  0
  8  7  1  0  0  0  0
  9  8  2  0  0  0  0
 12  4  1  0  0  0  0
 13  4  1  0  0  0  0
 15  5  1  0  0  0  0
 17  6  1  0  0  0  0
M TOR 0 0 1 2 3
M TOR 1 0 1 2 7
M TOR 2 0 1 2 10
M TOR 3 1 2 3 4
M TOR 4 1 2 3 11
M TOR 5 1 2 3 12
M TOR 6 1 2 7 6
M TOR 7 1 2 7 8
M TOR 8 2 3 4 5
M TOR 9 2 3 4 13
M TOR 10 2 3 4 14
M TOR 11 2 7 6 5
M TOR 12 2 7 6 17
M TOR 13 2 7 6 18
M TOR 14 3 2 1 9
M TOR 15 3 2 7 6
M TOR 16 3 2 7 8
M TOR 17 3 4 5 6
M TOR 18 3 4 5 15
M TOR 19 3 4 5 16
M TOR 20 4 3 2 7
M TOR 21 4 3 2 10
M TOR 22 4 5 6 7
M TOR 23 4 5 6 17
M TOR 24 4 5 6 18
M TOR 25 5 4 3 11
M TOR 26 5 4 3 12
M TOR 27 5 6 7 8
M TOR 28 6 5 4 13
M TOR 29 6 5 4 14
M TOR 30 6 7 2 10
M TOR 31 7 2 1 9
M TOR 32 7 2 3 11
M TOR 33 7 2 3 12
M TOR 34 7 6 5 15
M TOR 35 7 6 5 16
M TOR 36 8 7 2 10
M TOR 37 8 7 6 17
M TOR 38 8 7 6 18
M  END
$$$$
