gdb 807	2.6640956	1.5314274	1.2776564	3.1516	75.	-0.24651	-0.02759	0.21892	1057.4764	0.157409	-422.565507	-422.557395	-422.556451	-422.598456	30.547
 OpenBabel02181911403D

 19 20  0  0  1  0  0  0  0  0999 V2000
    0.0761    0.0247    0.9987 O   0  0  0  0  0  0  0  0  0  0  0  0
    0.3420   -0.0122   -0.1761 C   0  0  0  0  0  0  0  0  0  0  0  0
   -0.2886    0.8768   -1.2171 C   0  0  2  0  0  0  0  0  0  0  0  0
   -0.9047    2.2147   -0.7219 C   0  0  0  0  0  0  0  0  0  0  0  0
   -2.2871    1.8144   -1.3063 C   0  0  0  0  0  0  0  0  0  0  0  0
   -1.7155    0.4377   -1.7498 C   0  0  1  0  0  0  0  0  0  0  0  0
   -1.4769    0.2243   -3.2474 C   0  0  0  0  0  0  0  0  0  0  0  0
   -0.2138    1.0568   -3.5160 C   0  0  0  0  0  0  0  0  0  0  0  0
    0.5750    0.9385   -2.3333 O   0  0  0  0  0  0  0  0  0  0  0  0
    1.0686   -0.7413   -0.5980 H   0  0  0  0  0  0  0  0  0  0  0  0
   -0.8830    2.2861    0.3670 H   0  0  0  0  0  0  0  0  0  0  0  0
   -0.4310    3.0979   -1.1554 H   0  0  0  0  0  0  0  0  0  0  0  0
   -3.0923    1.7509   -0.5721 H   0  0  0  0  0  0  0  0  0  0  0  0
   -2.6313    2.4368   -2.1373 H   0  0  0  0  0  0  0  0  0  0  0  0
   -2.1660   -0.4253   -1.2583 H   0  0  0  0  0  0  0  0  0  0  0  0
   -1.2799   -0.8325   -3.4527 H   0  0  0  0  0  0  0  0  0  0  0  0
   -2.3252    0.5398   -3.8616 H   0  0  0  0  0  0  0  0  0  0  0  0
    0.3873    0.6964   -4.3544 H   0  0  0  0  0  0  0  0  0  0  0  0
   -0.4683    2.1106   -3.7051 H   0  0  0  0  0  0  0  0  0  0  0  0
  2  1  2  0  0  0  0
  3  4  1  0  0  0  0
  3  2  1  1  0  0  0
  4 11  1  0  0  0  0
  5  4  1  0  0  0  0
  5 13  1  0  0  0  0
  6  5  1  0  0  0  0
  6 15  1  1  0  0  0
  6  3  1  0  0  0  0
  7  6  1  0  0  0  0
  8  7  1  0  0  0  0
  8  9  1  0  0  0  0
  9  3  1  0  0  0  0
 10  2  1  0  0  0  0
 12  4  1  0  0  0  0
 14  5  1  0  0  0  0
 16  7  1  0  0  0  0
 17  7  1  0  0  0  0
 18  8  1  0  0  0  0
 19  8  1  0  0  0  0
M TOR 0 0 1 2 3
M TOR 1 0 1 2 5
M TOR 2 0 1 2 8
M TOR 3 1 2 3 4
M TOR 4 1 2 3 10
M TOR 5 1 2 3 11
M TOR 6 1 2 5 4
M TOR 7 1 2 5 6
M TOR 8 1 2 5 14
M TOR 9 1 2 8 7
M TOR 10 2 3 4 5
M TOR 11 2 3 4 12
M TOR 12 2 3 4 13
M TOR 13 2 5 4 12
M TOR 14 2 5 4 13
M TOR 15 2 5 6 7
M TOR 16 2 5 6 15
M TOR 17 2 5 6 16
M TOR 18 2 8 7 6
M TOR 19 2 8 7 17
M TOR 20 2 8 7 18
M TOR 21 3 2 1 9
M TOR 22 3 2 5 6
M TOR 23 3 2 5 14
M TOR 24 3 2 8 7
M TOR 25 3 4 5 6
M TOR 26 3 4 5 14
M TOR 27 4 3 2 8
M TOR 28 4 5 2 8
M TOR 29 4 5 6 7
M TOR 30 4 5 6 15
M TOR 31 4 5 6 16
M TOR 32 5 2 1 9
M TOR 33 5 2 3 10
M TOR 34 5 2 3 11
M TOR 35 5 2 8 7
M TOR 36 5 4 3 10
M TOR 37 5 4 3 11
M TOR 38 5 6 7 8
M TOR 39 5 6 7 17
M TOR 40 5 6 7 18
M TOR 41 6 5 2 8
M TOR 42 6 5 4 12
M TOR 43 6 5 4 13
M TOR 44 7 6 5 14
M TOR 45 8 2 1 9
M TOR 46 8 2 3 10
M TOR 47 8 2 3 11
M TOR 48 8 2 5 14
M TOR 49 8 7 6 15
M TOR 50 8 7 6 16
M  END
$$$$
