gdb 4787	2.4422819	1.1042493	0.8458902	2.6027	77.89	-0.25341	-0.02563	0.22778000000000004	1379.0782	0.153266	-422.54456	-422.533977	-422.533033	-422.581246	37.249
 OpenBabel02181911413D

 19 18  0  0  1  0  0  0  0  0999 V2000
   -0.9234   -0.2326   -2.1586 C   0  0  0  0  0  0  0  0  0  0  0  0
   -1.0792    0.4859   -0.8383 C   0  0  0  0  0  0  0  0  0  0  0  0
   -0.6635    0.0070    0.1986 O   0  0  0  0  0  0  0  0  0  0  0  0
   -1.8051    1.8368   -0.8333 C   0  0  1  0  0  0  0  0  0  0  0  0
   -2.2528    2.2019    0.5938 C   0  0  0  0  0  0  0  0  0  0  0  0
   -3.0227    1.1929    1.2062 O   0  0  0  0  0  0  0  0  0  0  0  0
   -0.8907    2.9733   -1.3821 C   0  0  0  0  0  0  0  0  0  0  0  0
   -0.7336    3.0147   -2.8295 C   0  0  0  0  0  0  0  0  0  0  0  0
   -0.6167    3.0636   -4.0253 C   0  0  0  0  0  0  0  0  0  0  0  0
   -1.9154   -0.5095   -2.5356 H   0  0  0  0  0  0  0  0  0  0  0  0
   -0.4769    0.4223   -2.9126 H   0  0  0  0  0  0  0  0  0  0  0  0
   -0.3220   -1.1321   -2.0216 H   0  0  0  0  0  0  0  0  0  0  0  0
   -2.6850    1.7579   -1.4819 H   0  0  0  0  0  0  0  0  0  0  0  0
   -1.3656    2.4536    1.1945 H   0  0  0  0  0  0  0  0  0  0  0  0
   -2.8836    3.0964    0.5467 H   0  0  0  0  0  0  0  0  0  0  0  0
   -2.4087    0.4684    1.3786 H   0  0  0  0  0  0  0  0  0  0  0  0
   -1.3219    3.9280   -1.0528 H   0  0  0  0  0  0  0  0  0  0  0  0
    0.0934    2.9089   -0.9005 H   0  0  0  0  0  0  0  0  0  0  0  0
   -0.5097    3.1146   -5.0807 H   0  0  0  0  0  0  0  0  0  0  0  0
  1 12  1  0  0  0  0
  1  2  1  0  0  0  0
  2  4  1  0  0  0  0
  2  3  2  0  0  0  0
  4 13  1  6  0  0  0
  4  5  1  0  0  0  0
  5 14  1  0  0  0  0
  5  6  1  0  0  0  0
  6 16  1  0  0  0  0
  7 17  1  0  0  0  0
  7 18  1  0  0  0  0
  7  4  1  0  0  0  0
  8  7  1  0  0  0  0
  9  8  3  0  0  0  0
 10  1  1  0  0  0  0
 11  1  1  0  0  0  0
 15  5  1  0  0  0  0
 19  9  1  0  0  0  0
M TOR 0 0 1 3 4
M TOR 1 0 1 3 6
M TOR 2 0 1 3 12
M TOR 3 1 3 4 5
M TOR 4 1 3 4 13
M TOR 5 1 3 4 14
M TOR 6 1 3 6 7
M TOR 7 1 3 6 16
M TOR 8 1 3 6 17
M TOR 9 2 1 0 9
M TOR 10 2 1 0 10
M TOR 11 2 1 0 11
M TOR 12 2 1 3 4
M TOR 13 2 1 3 6
M TOR 14 2 1 3 12
M TOR 15 3 1 0 9
M TOR 16 3 1 0 10
M TOR 17 3 1 0 11
M TOR 18 3 4 5 15
M TOR 19 3 6 7 8
M TOR 20 4 3 6 7
M TOR 21 4 3 6 16
M TOR 22 4 3 6 17
M TOR 23 5 4 3 6
M TOR 24 5 4 3 12
M TOR 25 6 3 4 13
M TOR 26 6 3 4 14
M TOR 27 6 7 8 18
M TOR 28 7 6 3 12
M TOR 29 8 7 6 16
M TOR 30 8 7 6 17
M  END
$$$$
