
     RDKit          3D

 19 20  0  0  0  0  0  0  0  0999 V2000
    0.5871    0.5815    0.3933 O   0  0  0  0  0  0  0  0  0  0  0  0
   -0.7932    0.6892    0.7387 C   0  0  0  0  0  0  0  0  0  0  0  0
   -1.2040    2.1067    1.0440 C   0  0  0  0  0  0  0  0  0  0  0  0
   -2.1600    2.5463    0.2284 C   0  0  0  0  0  0  0  0  0  0  0  0
   -2.6463    1.4962   -0.7368 C   0  0  0  0  0  0  0  0  0  0  0  0
   -4.0833    0.9929   -0.4390 C   0  0  0  0  0  0  0  0  0  0  0  0
   -3.9317   -0.0883    0.4619 O   0  0  0  0  0  0  0  0  0  0  0  0
   -2.7997   -0.8112   -0.0008 C   0  0  0  0  0  0  0  0  0  0  0  0
   -1.7594    0.2497   -0.4042 C   0  0  0  0  0  0  0  0  0  0  0  0
    0.7739    1.2743   -0.2502 H   0  0  0  0  0  0  0  0  0  0  0  0
   -0.8984    0.0355    1.6124 H   0  0  0  0  0  0  0  0  0  0  0  0
   -0.7230    2.6795    1.8293 H   0  0  0  0  0  0  0  0  0  0  0  0
   -2.5905    3.5428    0.2510 H   0  0  0  0  0  0  0  0  0  0  0  0
   -2.5719    1.8325   -1.7766 H   0  0  0  0  0  0  0  0  0  0  0  0
   -4.7232    1.7428    0.0338 H   0  0  0  0  0  0  0  0  0  0  0  0
   -4.5676    0.6573   -1.3713 H   0  0  0  0  0  0  0  0  0  0  0  0
   -2.4696   -1.4724    0.8047 H   0  0  0  0  0  0  0  0  0  0  0  0
   -3.0712   -1.4331   -0.8702 H   0  0  0  0  0  0  0  0  0  0  0  0
   -1.1590   -0.0896   -1.2510 H   0  0  0  0  0  0  0  0  0  0  0  0
  1  2  1  0
  2  3  1  0
  3  4  2  0
  4  5  1  0
  5  6  1  0
  6  7  1  0
  7  8  1  0
  8  9  1  0
  9  2  1  0
  9  5  1  0
  1 10  1  0
  2 11  1  0
  3 12  1  0
  4 13  1  0
  5 14  1  0
  6 15  1  0
  6 16  1  0
  8 17  1  0
  8 18  1  0
  9 19  1  0
M  END
$$$$
