gdb 3027	2.7066577	1.495286	1.201872	2.4998	75.43	-0.23641	-0.00717	0.22924	1082.3196	0.156759	-422.576579	-422.568201	-422.567256	-422.608998	32.736
 OpenBabel02181911413D

 19 20  0  0  1  0  0  0  0  0999 V2000
   -2.9764    1.5181   -1.5849 C   0  0  0  0  0  0  0  0  0  0  0  0
   -1.9195    0.5146   -1.1430 C   0  0  1  0  0  0  0  0  0  0  0  0
   -0.8816    0.9918   -0.0537 C   0  0  1  0  0  0  0  0  0  0  0  0
   -1.9611    0.6158    1.0168 C   0  0  0  0  0  0  0  0  0  0  0  0
   -2.3076   -0.4952   -0.0252 C   0  0  1  0  0  0  0  0  0  0  0  0
   -3.5574   -1.1007   -0.1100 O   0  0  0  0  0  0  0  0  0  0  0  0
   -1.0465   -1.3840    0.0426 C   0  0  0  0  0  0  0  0  0  0  0  0
    0.0015   -0.2434    0.0173 C   0  0  0  0  0  0  0  0  0  0  0  0
    1.1987   -0.3297    0.0423 O   0  0  0  0  0  0  0  0  0  0  0  0
   -3.4341    2.0597   -0.7536 H   0  0  0  0  0  0  0  0  0  0  0  0
   -2.5381    2.2564   -2.2638 H   0  0  0  0  0  0  0  0  0  0  0  0
   -3.7775    1.0005   -2.1212 H   0  0  0  0  0  0  0  0  0  0  0  0
   -1.4710    0.0531   -2.0305 H   0  0  0  0  0  0  0  0  0  0  0  0
   -0.3932    1.9628   -0.0898 H   0  0  0  0  0  0  0  0  0  0  0  0
   -1.6126    0.3096    2.0075 H   0  0  0  0  0  0  0  0  0  0  0  0
   -2.7398    1.3711    1.1115 H   0  0  0  0  0  0  0  0  0  0  0  0
   -3.6303   -1.7645    0.5840 H   0  0  0  0  0  0  0  0  0  0  0  0
   -0.9686   -1.9751    0.9619 H   0  0  0  0  0  0  0  0  0  0  0  0
   -0.9371   -2.0535   -0.8159 H   0  0  0  0  0  0  0  0  0  0  0  0
  1  2  1  0  0  0  0
  1 10  1  0  0  0  0
  2 13  1  6  0  0  0
  2  3  1  0  0  0  0
  2  5  1  0  0  0  0
  3 14  1  6  0  0  0
  3  8  1  0  0  0  0
  3  4  1  0  0  0  0
  4 16  1  0  0  0  0
  4 15  1  0  0  0  0
  5  6  1  1  0  0  0
  5  7  1  0  0  0  0
  5  4  1  0  0  0  0
  6 17  1  0  0  0  0
  7 18  1  0  0  0  0
  8  9  2  0  0  0  0
  8  7  1  0  0  0  0
 11  1  1  0  0  0  0
 12  1  1  0  0  0  0
 19  7  1  0  0  0  0
M TOR 0 0 1 2 3
M TOR 1 0 1 2 7
M TOR 2 0 1 2 13
M TOR 3 0 1 4 3
M TOR 4 0 1 4 5
M TOR 5 0 1 4 6
M TOR 6 1 2 3 4
M TOR 7 1 2 3 14
M TOR 8 1 2 3 15
M TOR 9 1 2 7 6
M TOR 10 1 2 7 8
M TOR 11 1 4 3 14
M TOR 12 1 4 3 15
M TOR 13 1 4 5 16
M TOR 14 1 4 6 7
M TOR 15 1 4 6 17
M TOR 16 1 4 6 18
M TOR 17 2 1 0 9
M TOR 18 2 1 0 10
M TOR 19 2 1 0 11
M TOR 20 2 1 4 5
M TOR 21 2 1 4 6
M TOR 22 2 3 4 5
M TOR 23 2 3 4 6
M TOR 24 2 7 6 4
M TOR 25 2 7 6 17
M TOR 26 2 7 6 18
M TOR 27 3 2 1 12
M TOR 28 3 2 7 6
M TOR 29 3 2 7 8
M TOR 30 3 4 1 12
M TOR 31 3 4 5 16
M TOR 32 3 4 6 7
M TOR 33 3 4 6 17
M TOR 34 3 4 6 18
M TOR 35 4 1 0 9
M TOR 36 4 1 0 10
M TOR 37 4 1 0 11
M TOR 38 4 1 2 7
M TOR 39 4 1 2 13
M TOR 40 4 3 2 7
M TOR 41 4 3 2 13
M TOR 42 4 6 7 8
M TOR 43 5 4 1 12
M TOR 44 5 4 3 14
M TOR 45 5 4 3 15
M TOR 46 5 4 6 7
M TOR 47 5 4 6 17
M TOR 48 5 4 6 18
M TOR 49 6 4 1 12
M TOR 50 6 4 3 14
M TOR 51 6 4 3 15
M TOR 52 6 4 5 16
M TOR 53 6 7 2 13
M TOR 54 7 2 1 12
M TOR 55 7 2 3 14
M TOR 56 7 2 3 15
M TOR 57 8 7 2 13
M TOR 58 8 7 6 17
M TOR 59 8 7 6 18
M  END
$$$$
