gdb 197	2.7096888	2.0394918	1.6038064	1.9219	73.85	-0.2481	0.07985	0.32794999999999996	904.34	0.160043	-422.542199	-422.535462	-422.534518	-422.572797	28.254
 OpenBabel02181911403D

 19 21  0  0  1  0  0  0  0  0999 V2000
    0.8096    1.4605   -0.3485 C   0  0  0  0  0  0  0  0  0  0  0  0
    1.2264    0.0078   -0.5612 C   0  0  2  0  0  0  0  0  0  0  0  0
    0.4535   -1.0645   -1.3299 C   0  0  0  0  0  0  0  0  0  0  0  0
   -0.7001   -1.3491   -0.3277 C   0  0  2  0  0  0  0  0  0  0  0  0
   -0.9971   -0.0497    0.1440 O   0  0  0  0  0  0  0  0  0  0  0  0
    0.2877    0.4022    0.5630 C   0  0  2  0  0  0  0  0  0  0  0  0
    0.5457   -0.1468    1.9386 C   0  0  0  0  0  0  0  0  0  0  0  0
    0.6008   -1.6837    1.6995 C   0  0  0  0  0  0  0  0  0  0  0  0
   -0.3703   -2.1788    0.7676 O   0  0  0  0  0  0  0  0  0  0  0  0
    1.5970    2.1270   -0.0097 H   0  0  0  0  0  0  0  0  0  0  0  0
    0.0723    1.9170   -1.0006 H   0  0  0  0  0  0  0  0  0  0  0  0
    2.2581   -0.2102   -0.3080 H   0  0  0  0  0  0  0  0  0  0  0  0
    0.0323   -0.7282   -2.2832 H   0  0  0  0  0  0  0  0  0  0  0  0
    1.0700   -1.9465   -1.5216 H   0  0  0  0  0  0  0  0  0  0  0  0
   -1.5964   -1.7914   -0.7692 H   0  0  0  0  0  0  0  0  0  0  0  0
    1.4964    0.1838    2.3687 H   0  0  0  0  0  0  0  0  0  0  0  0
   -0.2618    0.1275    2.6238 H   0  0  0  0  0  0  0  0  0  0  0  0
    1.6099   -1.9358    1.3424 H   0  0  0  0  0  0  0  0  0  0  0  0
    0.4246   -2.2422    2.6233 H   0  0  0  0  0  0  0  0  0  0  0  0
  1 10  1  0  0  0  0
  1  6  1  0  0  0  0
  2  1  1  0  0  0  0
  2 12  1  1  0  0  0
  2  6  1  0  0  0  0
  3  2  1  0  0  0  0
  3  4  1  0  0  0  0
  4 15  1  6  0  0  0
  4  5  1  0  0  0  0
  4  9  1  0  0  0  0
  6  5  1  6  0  0  0
  6  7  1  0  0  0  0
  7 16  1  0  0  0  0
  7 17  1  0  0  0  0
  8  7  1  0  0  0  0
  8 19  1  0  0  0  0
  9  8  1  0  0  0  0
 11  1  1  0  0  0  0
 13  3  1  0  0  0  0
 14  3  1  0  0  0  0
 18  8  1  0  0  0  0
M TOR 0 0 1 2 3
M TOR 1 0 1 2 12
M TOR 2 0 1 2 13
M TOR 3 0 1 5 4
M TOR 4 0 1 5 6
M TOR 5 0 5 1 2
M TOR 6 0 5 1 11
M TOR 7 0 5 4 3
M TOR 8 0 5 6 7
M TOR 9 0 5 6 15
M TOR 10 0 5 6 16
M TOR 11 1 2 3 4
M TOR 12 1 2 3 8
M TOR 13 1 2 3 14
M TOR 14 1 5 0 9
M TOR 15 1 5 0 10
M TOR 16 1 5 4 3
M TOR 17 1 5 6 7
M TOR 18 1 5 6 15
M TOR 19 1 5 6 16
M TOR 20 2 1 0 9
M TOR 21 2 1 0 10
M TOR 22 2 1 5 4
M TOR 23 2 1 5 6
M TOR 24 2 3 4 5
M TOR 25 2 3 8 7
M TOR 26 3 2 1 5
M TOR 27 3 2 1 11
M TOR 28 3 4 5 6
M TOR 29 3 8 7 6
M TOR 30 3 8 7 17
M TOR 31 3 8 7 18
M TOR 32 4 3 2 12
M TOR 33 4 3 2 13
M TOR 34 4 3 8 7
M TOR 35 4 5 0 9
M TOR 36 4 5 0 10
M TOR 37 4 5 1 11
M TOR 38 4 5 6 7
M TOR 39 4 5 6 15
M TOR 40 4 5 6 16
M TOR 41 5 1 2 12
M TOR 42 5 1 2 13
M TOR 43 5 4 3 8
M TOR 44 5 4 3 14
M TOR 45 5 6 7 8
M TOR 46 5 6 7 17
M TOR 47 5 6 7 18
M TOR 48 6 5 0 9
M TOR 49 6 5 0 10
M TOR 50 6 5 1 11
M TOR 51 7 8 3 14
M TOR 52 8 3 2 12
M TOR 53 8 3 2 13
M TOR 54 8 7 6 15
M TOR 55 8 7 6 16
M  END
$$$$
