gdb 4271	2.5101969	1.5617771	1.4499895	2.8893	73.49	-0.23433	-0.01375	0.22058	1007.361	0.159443	-422.594612	-422.586833	-422.585889	-422.626814	30.444
 OpenBabel02181911413D

 19 20  0  0  1  0  0  0  0  0999 V2000
   -3.0799    1.4750   -1.3218 O   0  0  0  0  0  0  0  0  0  0  0  0
   -1.8153    0.8511   -1.2476 C   0  0  2  0  0  0  0  0  0  0  0  0
   -1.8587   -0.7204   -1.2509 C   0  0  0  0  0  0  0  0  0  0  0  0
   -1.0098   -1.1313   -0.0246 C   0  0  2  0  0  0  0  0  0  0  0  0
   -1.7966   -0.7733    1.2572 C   0  0  0  0  0  0  0  0  0  0  0  0
   -1.7799    0.7995    1.2802 C   0  0  0  0  0  0  0  0  0  0  0  0
   -0.9757    1.1842    0.0187 C   0  0  1  0  0  0  0  0  0  0  0  0
    0.0166    0.0141   -0.0334 C   0  0  0  0  0  0  0  0  0  0  0  0
    1.2141   -0.0024   -0.0814 O   0  0  0  0  0  0  0  0  0  0  0  0
   -3.6612    1.0743   -0.6677 H   0  0  0  0  0  0  0  0  0  0  0  0
   -1.2806    1.2154   -2.1292 H   0  0  0  0  0  0  0  0  0  0  0  0
   -2.8920   -1.0758   -1.1693 H   0  0  0  0  0  0  0  0  0  0  0  0
   -1.4504   -1.1231   -2.1815 H   0  0  0  0  0  0  0  0  0  0  0  0
   -0.5943   -2.1370   -0.0545 H   0  0  0  0  0  0  0  0  0  0  0  0
   -2.8120   -1.1799    1.2299 H   0  0  0  0  0  0  0  0  0  0  0  0
   -1.3060   -1.1818    2.1446 H   0  0  0  0  0  0  0  0  0  0  0  0
   -2.7822    1.2371    1.2686 H   0  0  0  0  0  0  0  0  0  0  0  0
   -1.2858    1.1755    2.1792 H   0  0  0  0  0  0  0  0  0  0  0  0
   -0.5392    2.1808    0.0237 H   0  0  0  0  0  0  0  0  0  0  0  0
  1  2  1  0  0  0  0
  1 10  1  0  0  0  0
  2 11  1  6  0  0  0
  2  7  1  0  0  0  0
  3  2  1  0  0  0  0
  3 12  1  0  0  0  0
  3  4  1  0  0  0  0
  4 14  1  6  0  0  0
  4  5  1  0  0  0  0
  5  6  1  0  0  0  0
  5 16  1  0  0  0  0
  6 18  1  0  0  0  0
  7 19  1  1  0  0  0
  7  6  1  0  0  0  0
  8  4  1  0  0  0  0
  8  7  1  0  0  0  0
  9  8  2  0  0  0  0
 13  3  1  0  0  0  0
 15  5  1  0  0  0  0
 17  6  1  0  0  0  0
M TOR 0 0 1 2 3
M TOR 1 0 1 2 11
M TOR 2 0 1 2 12
M TOR 3 0 1 6 5
M TOR 4 0 1 6 7
M TOR 5 0 1 6 18
M TOR 6 1 2 3 4
M TOR 7 1 2 3 7
M TOR 8 1 2 3 13
M TOR 9 1 6 5 4
M TOR 10 1 6 5 16
M TOR 11 1 6 5 17
M TOR 12 1 6 7 3
M TOR 13 1 6 7 8
M TOR 14 2 1 0 9
M TOR 15 2 1 6 5
M TOR 16 2 1 6 7
M TOR 17 2 1 6 18
M TOR 18 2 3 4 5
M TOR 19 2 3 4 14
M TOR 20 2 3 4 15
M TOR 21 2 3 7 6
M TOR 22 2 3 7 8
M TOR 23 3 2 1 6
M TOR 24 3 2 1 10
M TOR 25 3 4 5 6
M TOR 26 3 4 5 16
M TOR 27 3 4 5 17
M TOR 28 3 7 6 5
M TOR 29 3 7 6 18
M TOR 30 4 3 2 11
M TOR 31 4 3 2 12
M TOR 32 4 3 7 6
M TOR 33 4 3 7 8
M TOR 34 4 5 6 7
M TOR 35 4 5 6 18
M TOR 36 5 4 3 7
M TOR 37 5 4 3 13
M TOR 38 5 6 1 10
M TOR 39 5 6 7 8
M TOR 40 6 1 0 9
M TOR 41 6 1 2 11
M TOR 42 6 1 2 12
M TOR 43 6 5 4 14
M TOR 44 6 5 4 15
M TOR 45 6 7 3 13
M TOR 46 7 3 2 11
M TOR 47 7 3 2 12
M TOR 48 7 3 4 14
M TOR 49 7 3 4 15
M TOR 50 7 6 1 10
M TOR 51 7 6 5 16
M TOR 52 7 6 5 17
M TOR 53 8 7 3 13
M TOR 54 8 7 6 18
M  END
$$$$
