
     RDKit          3D

 19 21  0  0  0  0  0  0  0  0999 V2000
    1.0139   -0.3383   -0.9509 C   0  0  0  0  0  0  0  0  0  0  0  0
    0.7899    0.2039    0.4624 C   0  0  0  0  0  0  0  0  0  0  0  0
    1.6695   -0.5008    1.4895 C   0  0  0  0  0  0  0  0  0  0  0  0
    1.4591    0.1545    2.7969 O   0  0  0  0  0  0  0  0  0  0  0  0
    2.6772    0.8847    2.5965 C   0  0  0  0  0  0  0  0  0  0  0  0
    3.0741    0.1338    1.3704 C   0  0  0  0  0  0  0  0  0  0  0  0
    2.6388    1.5854    1.2543 C   0  0  0  0  0  0  0  0  0  0  0  0
    1.2391    1.6942    0.6323 C   0  0  0  0  0  0  0  0  0  0  0  0
    0.3449    2.4592    1.4203 O   0  0  0  0  0  0  0  0  0  0  0  0
    0.7515   -1.3993   -1.0196 H   0  0  0  0  0  0  0  0  0  0  0  0
    0.4011    0.2065   -1.6756 H   0  0  0  0  0  0  0  0  0  0  0  0
    2.0615   -0.2323   -1.2549 H   0  0  0  0  0  0  0  0  0  0  0  0
   -0.2679    0.1252    0.7331 H   0  0  0  0  0  0  0  0  0  0  0  0
    1.5748   -1.5847    1.5746 H   0  0  0  0  0  0  0  0  0  0  0  0
    3.2199    1.2184    3.4724 H   0  0  0  0  0  0  0  0  0  0  0  0
    4.0051   -0.3096    1.0483 H   0  0  0  0  0  0  0  0  0  0  0  0
    3.3829    2.3534    1.0781 H   0  0  0  0  0  0  0  0  0  0  0  0
    1.2798    2.1997   -0.3372 H   0  0  0  0  0  0  0  0  0  0  0  0
    0.2787    1.9913    2.2628 H   0  0  0  0  0  0  0  0  0  0  0  0
  1  2  1  0
  2  3  1  0
  3  4  1  0
  4  5  1  0
  5  6  1  0
  6  7  1  0
  7  8  1  0
  8  9  1  0
  8  2  1  0
  6  3  1  0
  7  5  1  0
  1 10  1  0
  1 11  1  0
  1 12  1  0
  2 13  1  0
  3 14  1  0
  5 15  1  0
  6 16  1  0
  7 17  1  0
  8 18  1  0
  9 19  1  0
M  END
$$$$
