gdb 2889	3.2808969	1.5239352	1.2899088	2.2147	73.81	-0.24067	0.06899	0.30966	1026.4559	0.158104	-422.520445	-422.512936	-422.511992	-422.551909	30.25
 OpenBabel02181911413D

 19 21  0  0  1  0  0  0  0  0999 V2000
    1.3867    1.3006   -0.0969 C   0  0  0  0  0  0  0  0  0  0  0  0
    1.1553   -0.2006    0.0353 C   0  0  1  0  0  0  0  0  0  0  0  0
    1.7733   -1.0564   -1.1007 C   0  0  1  0  0  0  0  0  0  0  0  0
    3.1854   -0.7012   -1.0108 O   0  0  0  0  0  0  0  0  0  0  0  0
    3.1548   -1.4728    0.1945 C   0  0  2  0  0  0  0  0  0  0  0  0
    2.0457   -2.4080   -0.3361 C   0  0  1  0  0  0  0  0  0  0  0  0
    1.3495   -2.3679    1.0303 C   0  0  1  0  0  0  0  0  0  0  0  0
    1.9632   -3.3380    1.8579 O   0  0  0  0  0  0  0  0  0  0  0  0
    1.9576   -0.9426    1.1302 C   0  0  2  0  0  0  0  0  0  0  0  0
    1.0453    1.8264    0.8008 H   0  0  0  0  0  0  0  0  0  0  0  0
    2.4461    1.5174   -0.2462 H   0  0  0  0  0  0  0  0  0  0  0  0
    0.8325    1.7076   -0.9504 H   0  0  0  0  0  0  0  0  0  0  0  0
    0.0834   -0.4056    0.1412 H   0  0  0  0  0  0  0  0  0  0  0  0
    1.3702   -0.9976   -2.1114 H   0  0  0  0  0  0  0  0  0  0  0  0
    4.1202   -1.7485    0.6096 H   0  0  0  0  0  0  0  0  0  0  0  0
    2.2261   -3.3200   -0.9012 H   0  0  0  0  0  0  0  0  0  0  0  0
    0.2537   -2.4399    1.0739 H   0  0  0  0  0  0  0  0  0  0  0  0
    1.7248   -3.1411    2.7694 H   0  0  0  0  0  0  0  0  0  0  0  0
    2.1175   -0.4522    2.0904 H   0  0  0  0  0  0  0  0  0  0  0  0
  1  2  1  0  0  0  0
  1 10  1  0  0  0  0
  2 13  1  1  0  0  0
  2  9  1  0  0  0  0
  3 14  1  6  0  0  0
  3  4  1  0  0  0  0
  3  6  1  0  0  0  0
  3  2  1  0  0  0  0
  4  5  1  0  0  0  0
  5 15  1  1  0  0  0
  5  9  1  0  0  0  0
  6 16  1  6  0  0  0
  6  5  1  0  0  0  0
  6  7  1  0  0  0  0
  7 17  1  6  0  0  0
  7  9  1  0  0  0  0
  7  8  1  0  0  0  0
  8 18  1  0  0  0  0
  9 19  1  1  0  0  0
 11  1  1  0  0  0  0
 12  1  1  0  0  0  0
M TOR 0 0 1 2 3
M TOR 1 0 1 2 5
M TOR 2 0 1 2 13
M TOR 3 0 1 8 4
M TOR 4 0 1 8 6
M TOR 5 0 1 8 18
M TOR 6 1 2 3 4
M TOR 7 1 2 5 4
M TOR 8 1 2 5 6
M TOR 9 1 2 5 15
M TOR 10 1 8 4 3
M TOR 11 1 8 4 5
M TOR 12 1 8 4 14
M TOR 13 1 8 6 5
M TOR 14 1 8 6 7
M TOR 15 1 8 6 16
M TOR 16 2 1 0 9
M TOR 17 2 1 0 10
M TOR 18 2 1 0 11
M TOR 19 2 1 8 4
M TOR 20 2 1 8 6
M TOR 21 2 1 8 18
M TOR 22 2 3 4 5
M TOR 23 2 3 4 8
M TOR 24 2 3 4 14
M TOR 25 2 5 4 8
M TOR 26 2 5 4 14
M TOR 27 2 5 6 7
M TOR 28 2 5 6 8
M TOR 29 2 5 6 16
M TOR 30 3 2 1 8
M TOR 31 3 2 1 12
M TOR 32 3 2 5 6
M TOR 33 3 2 5 15
M TOR 34 3 4 5 6
M TOR 35 3 4 5 15
M TOR 36 3 4 8 6
M TOR 37 3 4 8 18
M TOR 38 4 3 2 13
M TOR 39 4 5 2 13
M TOR 40 4 5 6 7
M TOR 41 4 5 6 8
M TOR 42 4 5 6 16
M TOR 43 4 8 1 12
M TOR 44 4 8 6 7
M TOR 45 4 8 6 16
M TOR 46 5 2 1 8
M TOR 47 5 2 1 12
M TOR 48 5 4 8 18
M TOR 49 5 6 7 17
M TOR 50 5 6 8 18
M TOR 51 6 5 2 13
M TOR 52 6 5 4 14
M TOR 53 6 8 1 12
M TOR 54 6 8 4 14
M TOR 55 7 6 5 15
M TOR 56 7 6 8 18
M TOR 57 8 1 0 9
M TOR 58 8 1 0 10
M TOR 59 8 1 0 11
M TOR 60 8 1 2 13
M TOR 61 8 4 5 15
M TOR 62 8 6 5 15
M TOR 63 8 6 7 17
M  END
$$$$
