
     RDKit          3D

 19 20  0  0  0  0  0  0  0  0999 V2000
   -0.0071    1.5348    0.0017 C   0  0  0  0  0  0  0  0  0  0  0  0
   -0.0022    0.0151   -0.0177 C   0  0  0  0  0  0  0  0  0  0  0  0
    0.3955   -0.5080   -1.2656 O   0  0  0  0  0  0  0  0  0  0  0  0
   -1.3069   -0.6446    0.6266 C   0  0  0  0  0  0  0  0  0  0  0  0
   -0.4786   -0.7499    1.8833 C   0  0  0  0  0  0  0  0  0  0  0  0
   -0.3450   -0.2756    3.1159 C   0  0  0  0  0  0  0  0  0  0  0  0
    1.1263    0.0616    3.3171 C   0  0  0  0  0  0  0  0  0  0  0  0
    1.7105    0.0489    1.9972 O   0  0  0  0  0  0  0  0  0  0  0  0
    0.8183   -0.6472    1.1535 C   0  0  0  0  0  0  0  0  0  0  0  0
    0.9849    1.9156   -0.2555 H   0  0  0  0  0  0  0  0  0  0  0  0
   -0.7325    1.9264   -0.7221 H   0  0  0  0  0  0  0  0  0  0  0  0
   -0.2771    1.9175    0.9889 H   0  0  0  0  0  0  0  0  0  0  0  0
   -0.1180   -0.0723   -1.9546 H   0  0  0  0  0  0  0  0  0  0  0  0
   -2.2233   -0.0520    0.6717 H   0  0  0  0  0  0  0  0  0  0  0  0
   -1.5051   -1.6033    0.1393 H   0  0  0  0  0  0  0  0  0  0  0  0
   -1.1129   -0.0170    3.8339 H   0  0  0  0  0  0  0  0  0  0  0  0
    1.2564    1.0616    3.7510 H   0  0  0  0  0  0  0  0  0  0  0  0
    1.6609   -0.6514    3.9651 H   0  0  0  0  0  0  0  0  0  0  0  0
    1.2608   -1.5825    0.7821 H   0  0  0  0  0  0  0  0  0  0  0  0
  1  2  1  0
  2  3  1  0
  2  4  1  0
  4  5  1  0
  5  6  2  0
  6  7  1  0
  7  8  1  0
  8  9  1  0
  9  2  1  0
  9  5  1  0
  1 10  1  0
  1 11  1  0
  1 12  1  0
  3 13  1  0
  4 14  1  0
  4 15  1  0
  6 16  1  0
  7 17  1  0
  7 18  1  0
  9 19  1  0
M  END
$$$$
