gdb 5780	2.7683735	1.3817876	1.0064737	2.1133	76.07	-0.23668	-0.02101	0.21567	1210.0535	0.156501	-422.564148	-422.555564	-422.55462	-422.597728	31.985
 OpenBabel02181911423D

 19 20  0  0  1  0  0  0  0  0999 V2000
    1.2934    1.1637    0.1882 C   0  0  0  0  0  0  0  0  0  0  0  0
    0.9957   -0.3214   -0.0246 C   0  0  0  0  0  0  0  0  0  0  0  0
    1.8633   -0.9541   -1.1088 C   0  0  1  0  0  0  0  0  0  0  0  0
    3.2419   -0.9341   -0.7296 O   0  0  0  0  0  0  0  0  0  0  0  0
    3.8276   -2.1889   -0.9699 C   0  0  2  0  0  0  0  0  0  0  0  0
    3.8360   -2.6868   -2.3720 C   0  0  0  0  0  0  0  0  0  0  0  0
    2.7790   -3.1985   -1.3778 C   0  0  2  0  0  0  0  0  0  0  0  0
    1.5025   -2.4326   -1.3602 C   0  0  0  0  0  0  0  0  0  0  0  0
    0.3788   -2.8596   -1.4543 O   0  0  0  0  0  0  0  0  0  0  0  0
    0.6658    1.5775    0.9829 H   0  0  0  0  0  0  0  0  0  0  0  0
    2.3400    1.3139    0.4673 H   0  0  0  0  0  0  0  0  0  0  0  0
    1.1024    1.7402   -0.7238 H   0  0  0  0  0  0  0  0  0  0  0  0
    1.1508   -0.8765    0.9081 H   0  0  0  0  0  0  0  0  0  0  0  0
   -0.0481   -0.4783   -0.3181 H   0  0  0  0  0  0  0  0  0  0  0  0
    1.7314   -0.3979   -2.0513 H   0  0  0  0  0  0  0  0  0  0  0  0
    4.6329   -2.4134   -0.2807 H   0  0  0  0  0  0  0  0  0  0  0  0
    3.5251   -2.0210   -3.1697 H   0  0  0  0  0  0  0  0  0  0  0  0
    4.5908   -3.4128   -2.6522 H   0  0  0  0  0  0  0  0  0  0  0  0
    2.7709   -4.2423   -1.0941 H   0  0  0  0  0  0  0  0  0  0  0  0
  1 11  1  0  0  0  0
  1 10  1  0  0  0  0
  2  1  1  0  0  0  0
  2 13  1  0  0  0  0
  3 15  1  6  0  0  0
  3  4  1  0  0  0  0
  3  2  1  0  0  0  0
  5  4  1  0  0  0  0
  5 16  1  1  0  0  0
  6  7  1  0  0  0  0
  6  5  1  0  0  0  0
  7  8  1  0  0  0  0
  7 19  1  1  0  0  0
  7  5  1  0  0  0  0
  8  3  1  0  0  0  0
  9  8  2  0  0  0  0
 12  1  1  0  0  0  0
 14  2  1  0  0  0  0
 17  6  1  0  0  0  0
 18  6  1  0  0  0  0
M TOR 0 0 1 2 3
M TOR 1 0 1 2 7
M TOR 2 0 1 2 14
M TOR 3 1 2 3 4
M TOR 4 1 2 7 6
M TOR 5 1 2 7 8
M TOR 6 2 1 0 9
M TOR 7 2 1 0 10
M TOR 8 2 1 0 11
M TOR 9 2 3 4 5
M TOR 10 2 3 4 6
M TOR 11 2 3 4 15
M TOR 12 2 7 6 4
M TOR 13 2 7 6 5
M TOR 14 2 7 6 18
M TOR 15 3 2 1 12
M TOR 16 3 2 1 13
M TOR 17 3 2 7 6
M TOR 18 3 2 7 8
M TOR 19 3 4 5 6
M TOR 20 3 4 5 16
M TOR 21 3 4 5 17
M TOR 22 3 4 6 7
M TOR 23 3 4 6 18
M TOR 24 4 3 2 7
M TOR 25 4 3 2 14
M TOR 26 4 5 6 7
M TOR 27 4 5 6 18
M TOR 28 4 6 5 16
M TOR 29 4 6 5 17
M TOR 30 4 6 7 8
M TOR 31 5 6 4 15
M TOR 32 5 6 7 8
M TOR 33 6 7 2 14
M TOR 34 7 2 1 12
M TOR 35 7 2 1 13
M TOR 36 7 6 4 15
M TOR 37 7 6 5 16
M TOR 38 7 6 5 17
M TOR 39 8 7 2 14
M TOR 40 8 7 6 18
M  END
$$$$
