gdb 1872	2.5560031	1.7829127	1.3579556	1.8867	74.35	-0.2256	0.07575	0.30135	1009.4993	0.155874	-422.524285	-422.516007	-422.515063	-422.556363	32.987
 OpenBabel02181911403D

 19 21  0  0  1  0  0  0  0  0999 V2000
   -0.0828   -0.1237    0.0123 C   0  0  0  0  0  0  0  0  0  0  0  0
    1.4182   -0.0856    0.0092 C   0  0  2  0  0  0  0  0  0  0  0  0
    2.2140    0.2059    1.2730 C   0  0  0  0  0  0  0  0  0  0  0  0
    2.2595    1.1587    0.0921 C   0  0  2  0  0  0  0  0  0  0  0  0
    1.6460    2.4074    0.1884 O   0  0  0  0  0  0  0  0  0  0  0  0
    3.3422    1.0049   -0.9633 C   0  0  1  0  0  0  0  0  0  0  0  0
    4.3701   -0.1050   -0.8526 C   0  0  0  0  0  0  0  0  0  0  0  0
    3.0799   -0.3362   -1.5941 C   0  0  1  0  0  0  0  0  0  0  0  0
    2.0105   -0.9669   -0.9270 O   0  0  0  0  0  0  0  0  0  0  0  0
   -0.4751    0.6681    0.6552 H   0  0  0  0  0  0  0  0  0  0  0  0
   -0.4698    0.0299   -0.9996 H   0  0  0  0  0  0  0  0  0  0  0  0
   -0.4517   -1.0870    0.3790 H   0  0  0  0  0  0  0  0  0  0  0  0
    1.6317    0.5475    2.1235 H   0  0  0  0  0  0  0  0  0  0  0  0
    3.0693   -0.4084    1.5264 H   0  0  0  0  0  0  0  0  0  0  0  0
    2.1556    2.9429    0.8061 H   0  0  0  0  0  0  0  0  0  0  0  0
    3.5584    1.8944   -1.5420 H   0  0  0  0  0  0  0  0  0  0  0  0
    5.2646    0.0001   -1.4585 H   0  0  0  0  0  0  0  0  0  0  0  0
    4.5344   -0.5986    0.0977 H   0  0  0  0  0  0  0  0  0  0  0  0
    3.0832   -0.5281   -2.6616 H   0  0  0  0  0  0  0  0  0  0  0  0
  1 12  1  0  0  0  0
  1 10  1  0  0  0  0
  2  1  1  1  0  0  0
  2  4  1  0  0  0  0
  2  3  1  0  0  0  0
  3 14  1  0  0  0  0
  3 13  1  0  0  0  0
  4  5  1  1  0  0  0
  4  3  1  0  0  0  0
  5 15  1  0  0  0  0
  6 16  1  6  0  0  0
  6  7  1  0  0  0  0
  6  4  1  0  0  0  0
  7 18  1  0  0  0  0
  8 19  1  6  0  0  0
  8  6  1  0  0  0  0
  8  9  1  0  0  0  0
  8  7  1  0  0  0  0
  9  2  1  0  0  0  0
 11  1  1  0  0  0  0
 17  7  1  0  0  0  0
M TOR 0 0 1 2 3
M TOR 1 0 1 2 12
M TOR 2 0 1 2 13
M TOR 3 0 1 3 4
M TOR 4 0 1 3 5
M TOR 5 0 1 8 7
M TOR 6 1 2 3 4
M TOR 7 1 2 3 5
M TOR 8 1 3 2 12
M TOR 9 1 3 2 13
M TOR 10 1 3 4 14
M TOR 11 1 3 5 6
M TOR 12 1 3 5 7
M TOR 13 1 3 5 15
M TOR 14 1 8 7 5
M TOR 15 1 8 7 6
M TOR 16 1 8 7 18
M TOR 17 2 1 0 9
M TOR 18 2 1 0 10
M TOR 19 2 1 0 11
M TOR 20 2 1 8 7
M TOR 21 2 3 1 8
M TOR 22 2 3 4 14
M TOR 23 2 3 5 6
M TOR 24 2 3 5 7
M TOR 25 2 3 5 15
M TOR 26 3 1 0 9
M TOR 27 3 1 0 10
M TOR 28 3 1 0 11
M TOR 29 3 1 8 7
M TOR 30 3 5 6 7
M TOR 31 3 5 6 16
M TOR 32 3 5 6 17
M TOR 33 3 5 7 8
M TOR 34 3 5 7 18
M TOR 35 4 3 1 8
M TOR 36 4 3 2 12
M TOR 37 4 3 2 13
M TOR 38 4 3 5 6
M TOR 39 4 3 5 7
M TOR 40 4 3 5 15
M TOR 41 5 3 1 8
M TOR 42 5 3 2 12
M TOR 43 5 3 2 13
M TOR 44 5 3 4 14
M TOR 45 5 6 7 8
M TOR 46 5 6 7 18
M TOR 47 5 7 6 16
M TOR 48 5 7 6 17
M TOR 49 6 7 5 15
M TOR 50 8 1 0 9
M TOR 51 8 1 0 10
M TOR 52 8 1 0 11
M TOR 53 8 1 2 12
M TOR 54 8 1 2 13
M TOR 55 8 7 5 15
M TOR 56 8 7 6 16
M TOR 57 8 7 6 17
M  END
$$$$
