
     RDKit          3D

 19 21  0  0  0  0  0  0  0  0999 V2000
    1.5969    0.2624   -0.0990 C   0  0  0  0  0  0  0  0  0  0  0  0
    0.2007    0.0778   -0.0467 O   0  0  0  0  0  0  0  0  0  0  0  0
   -0.3758    0.4438    1.1799 C   0  0  0  0  0  0  0  0  0  0  0  0
   -1.8876    0.3338    1.1053 C   0  0  0  0  0  0  0  0  0  0  0  0
   -2.3751    0.0694    2.5323 C   0  0  0  0  0  0  0  0  0  0  0  0
   -1.1350    0.0232    3.4216 C   0  0  0  0  0  0  0  0  0  0  0  0
   -0.2130   -0.5853    2.3420 C   0  0  0  0  0  0  0  0  0  0  0  0
   -0.9545   -1.7167    1.8731 O   0  0  0  0  0  0  0  0  0  0  0  0
   -2.1767   -1.0750    1.5663 C   0  0  0  0  0  0  0  0  0  0  0  0
    2.1333   -0.3916    0.6041 H   0  0  0  0  0  0  0  0  0  0  0  0
    1.9169    0.0164   -1.1142 H   0  0  0  0  0  0  0  0  0  0  0  0
    1.8771    1.3056    0.1186 H   0  0  0  0  0  0  0  0  0  0  0  0
   -0.0277    1.4421    1.4889 H   0  0  0  0  0  0  0  0  0  0  0  0
   -2.4714    0.8517    0.3578 H   0  0  0  0  0  0  0  0  0  0  0  0
   -3.3498    0.3825    2.8804 H   0  0  0  0  0  0  0  0  0  0  0  0
   -0.7966    1.0063    3.7608 H   0  0  0  0  0  0  0  0  0  0  0  0
   -1.2528   -0.6372    4.2851 H   0  0  0  0  0  0  0  0  0  0  0  0
    0.7911   -0.8892    2.6284 H   0  0  0  0  0  0  0  0  0  0  0  0
   -2.9479   -1.7230    1.1767 H   0  0  0  0  0  0  0  0  0  0  0  0
  1  2  1  0
  2  3  1  0
  3  4  1  0
  4  5  1  0
  5  6  1  0
  6  7  1  0
  7  8  1  0
  8  9  1  0
  7  3  1  0
  9  4  1  0
  9  5  1  0
  1 10  1  0
  1 11  1  0
  1 12  1  0
  3 13  1  0
  4 14  1  0
  5 15  1  0
  6 16  1  0
  6 17  1  0
  7 18  1  0
  9 19  1  0
M  END
$$$$
