gdb 1042	5.3858937	0.5478832	0.5306637	3.4586	82.36	-0.24235	-0.0223	0.22005000000000002	2074.2396	0.152385	-422.539969	-422.528633	-422.527689	-422.579006	37.435
 OpenBabel02181911403D

 19 18  0  0  1  0  0  0  0  0999 V2000
    1.5461    0.1177   -0.1077 C   0  0  0  0  0  0  0  0  0  0  0  0
    0.0944    0.0468   -0.0261 C   0  0  0  0  0  0  0  0  0  0  0  0
   -1.1059   -0.0130    0.0417 C   0  0  0  0  0  0  0  0  0  0  0  0
   -2.5590   -0.0969    0.1104 C   0  0  0  0  0  0  0  0  0  0  0  0
   -3.1197   -1.4540   -0.3658 C   0  0  1  0  0  0  0  0  0  0  0  0
   -2.5741   -2.5449    0.3583 O   0  0  0  0  0  0  0  0  0  0  0  0
   -4.6600   -1.4644   -0.3091 C   0  0  0  0  0  0  0  0  0  0  0  0
   -5.2502   -2.7465   -0.8598 C   0  0  0  0  0  0  0  0  0  0  0  0
   -6.1798   -2.7894   -1.6251 O   0  0  0  0  0  0  0  0  0  0  0  0
    1.9766    0.5380    0.8080 H   0  0  0  0  0  0  0  0  0  0  0  0
    1.9831   -0.8764   -0.2528 H   0  0  0  0  0  0  0  0  0  0  0  0
    1.8689    0.7470   -0.9444 H   0  0  0  0  0  0  0  0  0  0  0  0
   -2.9014    0.0772    1.1424 H   0  0  0  0  0  0  0  0  0  0  0  0
   -3.0139    0.7003   -0.4918 H   0  0  0  0  0  0  0  0  0  0  0  0
   -2.7946   -1.6161   -1.3999 H   0  0  0  0  0  0  0  0  0  0  0  0
   -2.6528   -2.3522    1.2996 H   0  0  0  0  0  0  0  0  0  0  0  0
   -4.9676   -1.3802    0.7451 H   0  0  0  0  0  0  0  0  0  0  0  0
   -5.0944   -0.6195   -0.8520 H   0  0  0  0  0  0  0  0  0  0  0  0
   -4.7519   -3.6710   -0.4991 H   0  0  0  0  0  0  0  0  0  0  0  0
  1  2  1  0  0  0  0
  1 10  1  0  0  0  0
  2  3  3  0  0  0  0
  3  4  1  0  0  0  0
  4 13  1  0  0  0  0
  5 15  1  6  0  0  0
  5  7  1  0  0  0  0
  5  4  1  0  0  0  0
  5  6  1  0  0  0  0
  6 16  1  0  0  0  0
  7 17  1  0  0  0  0
  8 19  1  0  0  0  0
  8  7  1  0  0  0  0
  9  8  2  0  0  0  0
 11  1  1  0  0  0  0
 12  1  1  0  0  0  0
 14  4  1  0  0  0  0
 18  7  1  0  0  0  0
M TOR 0 0 1 2 3
M TOR 1 1 2 3 4
M TOR 2 1 2 3 12
M TOR 3 1 2 3 13
M TOR 4 2 1 0 9
M TOR 5 2 1 0 10
M TOR 6 2 1 0 11
M TOR 7 2 3 4 5
M TOR 8 2 3 4 6
M TOR 9 2 3 4 14
M TOR 10 3 4 5 15
M TOR 11 3 4 6 7
M TOR 12 3 4 6 16
M TOR 13 3 4 6 17
M TOR 14 4 6 7 8
M TOR 15 4 6 7 18
M TOR 16 5 4 3 12
M TOR 17 5 4 3 13
M TOR 18 5 4 6 7
M TOR 19 5 4 6 16
M TOR 20 5 4 6 17
M TOR 21 6 4 3 12
M TOR 22 6 4 3 13
M TOR 23 6 4 5 15
M TOR 24 7 6 4 14
M TOR 25 8 7 6 16
M TOR 26 8 7 6 17
M  END
$$$$
