gdb 3842	2.656887	1.5133824	1.1506582	2.37	76.34	-0.23257	-0.01856	0.21401	1124.1594	0.155482	-422.573986	-422.565166	-422.564221	-422.607243	33.266
 OpenBabel02181911413D

 19 20  0  0  1  0  0  0  0  0999 V2000
   -0.7913    2.1126   -1.1725 C   0  0  0  0  0  0  0  0  0  0  0  0
   -0.9356    1.1283   -0.0219 C   0  0  1  0  0  0  0  0  0  0  0  0
   -2.2673    0.6201    0.0457 O   0  0  0  0  0  0  0  0  0  0  0  0
   -2.2573   -0.7781    0.2590 C   0  0  2  0  0  0  0  0  0  0  0  0
   -3.4714   -1.4509   -0.3118 C   0  0  0  0  0  0  0  0  0  0  0  0
   -1.5710   -1.2401    1.4985 C   0  0  0  0  0  0  0  0  0  0  0  0
   -0.8359   -1.2967    0.1452 C   0  0  2  0  0  0  0  0  0  0  0  0
   -0.0152   -0.1004   -0.1758 C   0  0  0  0  0  0  0  0  0  0  0  0
    1.1301   -0.0599   -0.5515 O   0  0  0  0  0  0  0  0  0  0  0  0
   -1.0779    1.6401   -2.1161 H   0  0  0  0  0  0  0  0  0  0  0  0
   -1.4251    2.9884   -1.0134 H   0  0  0  0  0  0  0  0  0  0  0  0
    0.2523    2.4301   -1.2439 H   0  0  0  0  0  0  0  0  0  0  0  0
   -0.6794    1.6300    0.9253 H   0  0  0  0  0  0  0  0  0  0  0  0
   -4.3776   -1.0517    0.1551 H   0  0  0  0  0  0  0  0  0  0  0  0
   -3.5379   -1.2767   -1.3896 H   0  0  0  0  0  0  0  0  0  0  0  0
   -3.4380   -2.5282   -0.1297 H   0  0  0  0  0  0  0  0  0  0  0  0
   -1.2502   -0.5114    2.2350 H   0  0  0  0  0  0  0  0  0  0  0  0
   -1.8491   -2.2054    1.9069 H   0  0  0  0  0  0  0  0  0  0  0  0
   -0.5577   -2.2559   -0.2716 H   0  0  0  0  0  0  0  0  0  0  0  0
  1 11  1  0  0  0  0
  1  2  1  0  0  0  0
  2  3  1  0  0  0  0
  2 13  1  1  0  0  0
  3  4  1  0  0  0  0
  4  5  1  6  0  0  0
  4  6  1  0  0  0  0
  5 16  1  0  0  0  0
  5 14  1  0  0  0  0
  6 18  1  0  0  0  0
  6 17  1  0  0  0  0
  7 19  1  6  0  0  0
  7  4  1  0  0  0  0
  7  6  1  0  0  0  0
  8  2  1  0  0  0  0
  8  7  1  0  0  0  0
  9  8  2  0  0  0  0
 10  1  1  0  0  0  0
 12  1  1  0  0  0  0
 15  5  1  0  0  0  0
M TOR 0 0 1 2 3
M TOR 1 0 1 7 6
M TOR 2 0 1 7 8
M TOR 3 1 2 3 4
M TOR 4 1 2 3 5
M TOR 5 1 2 3 6
M TOR 6 1 7 6 3
M TOR 7 1 7 6 5
M TOR 8 1 7 6 18
M TOR 9 2 1 0 9
M TOR 10 2 1 0 10
M TOR 11 2 1 0 11
M TOR 12 2 1 7 6
M TOR 13 2 1 7 8
M TOR 14 2 3 4 13
M TOR 15 2 3 4 14
M TOR 16 2 3 4 15
M TOR 17 2 3 5 6
M TOR 18 2 3 5 16
M TOR 19 2 3 5 17
M TOR 20 2 3 6 7
M TOR 21 2 3 6 18
M TOR 22 3 2 1 7
M TOR 23 3 2 1 12
M TOR 24 3 5 6 7
M TOR 25 3 5 6 18
M TOR 26 3 6 5 16
M TOR 27 3 6 5 17
M TOR 28 3 6 7 8
M TOR 29 4 3 5 6
M TOR 30 4 3 5 16
M TOR 31 4 3 5 17
M TOR 32 4 3 6 7
M TOR 33 4 3 6 18
M TOR 34 5 3 4 13
M TOR 35 5 3 4 14
M TOR 36 5 3 4 15
M TOR 37 5 6 7 8
M TOR 38 6 3 4 13
M TOR 39 6 3 4 14
M TOR 40 6 3 4 15
M TOR 41 6 7 1 12
M TOR 42 7 1 0 9
M TOR 43 7 1 0 10
M TOR 44 7 1 0 11
M TOR 45 7 6 5 16
M TOR 46 7 6 5 17
M TOR 47 8 7 1 12
M TOR 48 8 7 6 18
M  END
$$$$
