
     RDKit          3D

 19 21  0  0  0  0  0  0  0  0999 V2000
    3.9838   -0.1419   -1.6950 C   0  0  0  0  0  0  0  0  0  0  0  0
    2.7986   -1.0361   -1.3176 C   0  0  0  0  0  0  0  0  0  0  0  0
    1.5675   -0.2594   -0.8186 C   0  0  0  0  0  0  0  0  0  0  0  0
    0.5031   -1.2110   -0.2597 C   0  0  0  0  0  0  0  0  0  0  0  0
   -0.6587   -0.5922    0.2910 O   0  0  0  0  0  0  0  0  0  0  0  0
   -0.7423   -1.0972   -1.0413 C   0  0  0  0  0  0  0  0  0  0  0  0
   -0.5220   -0.0397   -2.1095 C   0  0  0  0  0  0  0  0  0  0  0  0
   -0.2744    1.2649   -1.5857 O   0  0  0  0  0  0  0  0  0  0  0  0
    0.8528    0.4740   -1.9607 C   0  0  0  0  0  0  0  0  0  0  0  0
    4.3125    0.4551   -0.8376 H   0  0  0  0  0  0  0  0  0  0  0  0
    4.8348   -0.7420   -2.0308 H   0  0  0  0  0  0  0  0  0  0  0  0
    3.7331    0.5532   -2.5027 H   0  0  0  0  0  0  0  0  0  0  0  0
    2.5121   -1.6585   -2.1758 H   0  0  0  0  0  0  0  0  0  0  0  0
    3.1121   -1.7333   -0.5308 H   0  0  0  0  0  0  0  0  0  0  0  0
    1.8737    0.4545   -0.0441 H   0  0  0  0  0  0  0  0  0  0  0  0
    0.8184   -2.1280    0.2365 H   0  0  0  0  0  0  0  0  0  0  0  0
   -1.4394   -1.9135   -1.2068 H   0  0  0  0  0  0  0  0  0  0  0  0
   -1.0590   -0.0879   -3.0525 H   0  0  0  0  0  0  0  0  0  0  0  0
    1.4318    0.8669   -2.7940 H   0  0  0  0  0  0  0  0  0  0  0  0
  1  2  1  0
  2  3  1  0
  3  4  1  0
  4  5  1  0
  5  6  1  0
  6  7  1  0
  7  8  1  0
  8  9  1  0
  9  3  1  0
  6  4  1  0
  9  7  1  0
  1 10  1  0
  1 11  1  0
  1 12  1  0
  2 13  1  0
  2 14  1  0
  3 15  1  0
  4 16  1  0
  6 17  1  0
  7 18  1  0
  9 19  1  0
M  END
$$$$
