gdb 1759	2.3468054	1.7106874	1.2815036	1.862	74.76	-0.23731	-0.02652	0.21079	1050.7991	0.156388	-422.579216	-422.570916	-422.569972	-422.612159	31.769
 OpenBabel02181911403D

 19 20  0  0  1  0  0  0  0  0999 V2000
   -2.9506    0.0161    1.2458 C   0  0  0  0  0  0  0  0  0  0  0  0
   -2.0519    0.0321    0.0274 C   0  0  2  0  0  0  0  0  0  0  0  0
   -1.0121   -1.1360   -0.1003 C   0  0  0  0  0  0  0  0  0  0  0  0
    0.0963   -0.0834   -0.2399 C   0  0  0  0  0  0  0  0  0  0  0  0
    1.2789   -0.1378   -0.4206 O   0  0  0  0  0  0  0  0  0  0  0  0
   -0.8894    1.0883   -0.0716 C   0  0  1  0  0  0  0  0  0  0  0  0
   -1.1958    1.8805   -1.3508 C   0  0  0  0  0  0  0  0  0  0  0  0
   -2.1039    0.9078   -2.1211 C   0  0  0  0  0  0  0  0  0  0  0  0
   -2.8558    0.2133   -1.1319 O   0  0  0  0  0  0  0  0  0  0  0  0
   -3.6725   -0.8036    1.1759 H   0  0  0  0  0  0  0  0  0  0  0  0
   -2.3654   -0.1196    2.1603 H   0  0  0  0  0  0  0  0  0  0  0  0
   -3.5081    0.9541    1.3219 H   0  0  0  0  0  0  0  0  0  0  0  0
   -0.9056   -1.7564    0.7953 H   0  0  0  0  0  0  0  0  0  0  0  0
   -1.1480   -1.7926   -0.9646 H   0  0  0  0  0  0  0  0  0  0  0  0
   -0.6943    1.7163    0.8007 H   0  0  0  0  0  0  0  0  0  0  0  0
   -1.7391    2.7961   -1.0994 H   0  0  0  0  0  0  0  0  0  0  0  0
   -0.2962    2.1545   -1.9075 H   0  0  0  0  0  0  0  0  0  0  0  0
   -2.8113    1.4014   -2.7921 H   0  0  0  0  0  0  0  0  0  0  0  0
   -1.5011    0.2061   -2.7195 H   0  0  0  0  0  0  0  0  0  0  0  0
  1 12  1  0  0  0  0
  1 11  1  0  0  0  0
  2  1  1  1  0  0  0
  3  2  1  0  0  0  0
  3 13  1  0  0  0  0
  4  3  1  0  0  0  0
  4  6  1  0  0  0  0
  5  4  2  0  0  0  0
  6  2  1  0  0  0  0
  6 15  1  1  0  0  0
  7 16  1  0  0  0  0
  7  6  1  0  0  0  0
  8  7  1  0  0  0  0
  8  9  1  0  0  0  0
  9  2  1  0  0  0  0
 10  1  1  0  0  0  0
 14  3  1  0  0  0  0
 17  7  1  0  0  0  0
 18  8  1  0  0  0  0
 19  8  1  0  0  0  0
M TOR 0 0 1 2 3
M TOR 1 0 1 2 12
M TOR 2 0 1 2 13
M TOR 3 0 1 5 3
M TOR 4 0 1 5 6
M TOR 5 0 1 5 14
M TOR 6 0 1 8 7
M TOR 7 1 2 3 4
M TOR 8 1 2 3 5
M TOR 9 1 5 3 4
M TOR 10 1 5 6 7
M TOR 11 1 5 6 15
M TOR 12 1 5 6 16
M TOR 13 1 8 7 6
M TOR 14 1 8 7 17
M TOR 15 1 8 7 18
M TOR 16 2 1 0 9
M TOR 17 2 1 0 10
M TOR 18 2 1 0 11
M TOR 19 2 1 5 6
M TOR 20 2 1 5 14
M TOR 21 2 1 8 7
M TOR 22 2 3 5 6
M TOR 23 2 3 5 14
M TOR 24 3 2 1 8
M TOR 25 3 5 1 8
M TOR 26 3 5 6 7
M TOR 27 3 5 6 15
M TOR 28 3 5 6 16
M TOR 29 4 3 2 12
M TOR 30 4 3 2 13
M TOR 31 4 3 5 6
M TOR 32 4 3 5 14
M TOR 33 5 1 0 9
M TOR 34 5 1 0 10
M TOR 35 5 1 0 11
M TOR 36 5 1 2 12
M TOR 37 5 1 2 13
M TOR 38 5 1 8 7
M TOR 39 5 3 2 12
M TOR 40 5 3 2 13
M TOR 41 5 6 7 8
M TOR 42 5 6 7 17
M TOR 43 5 6 7 18
M TOR 44 6 5 1 8
M TOR 45 7 6 5 14
M TOR 46 8 1 0 9
M TOR 47 8 1 0 10
M TOR 48 8 1 0 11
M TOR 49 8 1 2 12
M TOR 50 8 1 2 13
M TOR 51 8 1 5 14
M TOR 52 8 7 6 15
M TOR 53 8 7 6 16
M  END
$$$$
