gdb 109	4.9961968	0.876882	0.8357866	1.2753	75.95	-0.24486	0.08496	0.32982	1417.8246	0.155904	-422.480656	-422.472352	-422.471408	-422.514455	31.093
 OpenBabel02181911403D

 19 21  0  0  1  0  0  0  0  0999 V2000
    0.9094   -1.2596   -4.4327 C   0  0  0  0  0  0  0  0  0  0  0  0
    0.6126   -2.6711   -3.9631 C   0  0  0  0  0  0  0  0  0  0  0  0
    1.0569   -1.6380   -2.9811 C   0  0  0  0  0  0  0  0  0  0  0  0
    0.0921   -1.2058   -2.0671 O   0  0  0  0  0  0  0  0  0  0  0  0
    0.3003    0.1079   -1.6017 C   0  0  1  0  0  0  0  0  0  0  0  0
   -0.8305    0.5086   -0.6019 C   0  0  0  0  0  0  0  0  0  0  0  0
    0.2388    0.6470    0.4884 C   0  0  2  0  0  0  0  0  0  0  0  0
    1.2056    1.5973    0.0152 O   0  0  0  0  0  0  0  0  0  0  0  0
    1.3109    0.2427   -0.4324 C   0  0  2  0  0  0  0  0  0  0  0  0
    1.8033   -1.0778   -5.0189 H   0  0  0  0  0  0  0  0  0  0  0  0
    0.0583   -0.6405   -4.6931 H   0  0  0  0  0  0  0  0  0  0  0  0
   -0.4298   -2.9637   -3.9119 H   0  0  0  0  0  0  0  0  0  0  0  0
    1.2989   -3.4687   -4.2235 H   0  0  0  0  0  0  0  0  0  0  0  0
    2.0655   -1.7121   -2.5753 H   0  0  0  0  0  0  0  0  0  0  0  0
    0.4890    0.7989   -2.4320 H   0  0  0  0  0  0  0  0  0  0  0  0
   -1.4097    1.4072   -0.8242 H   0  0  0  0  0  0  0  0  0  0  0  0
   -1.4937   -0.3451   -0.4453 H   0  0  0  0  0  0  0  0  0  0  0  0
    0.1462    0.5325    1.5619 H   0  0  0  0  0  0  0  0  0  0  0  0
    2.2449   -0.2798   -0.2599 H   0  0  0  0  0  0  0  0  0  0  0  0
  1  2  1  0  0  0  0
  1  3  1  0  0  0  0
  2 12  1  0  0  0  0
  2  3  1  0  0  0  0
  3 14  1  0  0  0  0
  3  4  1  0  0  0  0
  4  5  1  0  0  0  0
  5 15  1  6  0  0  0
  5  6  1  0  0  0  0
  5  9  1  0  0  0  0
  6 17  1  0  0  0  0
  6  7  1  0  0  0  0
  7 18  1  1  0  0  0
  8  7  1  0  0  0  0
  9 19  1  1  0  0  0
  9  8  1  0  0  0  0
  9  7  1  0  0  0  0
 10  1  1  0  0  0  0
 11  1  1  0  0  0  0
 13  2  1  0  0  0  0
 16  6  1  0  0  0  0
M TOR 0 0 1 2 3
M TOR 1 0 1 2 13
M TOR 2 0 2 1 11
M TOR 3 0 2 1 12
M TOR 4 0 2 3 4
M TOR 5 1 2 0 9
M TOR 6 1 2 0 10
M TOR 7 1 2 3 4
M TOR 8 2 3 4 5
M TOR 9 2 3 4 8
M TOR 10 2 3 4 14
M TOR 11 3 2 0 9
M TOR 12 3 2 0 10
M TOR 13 3 2 1 11
M TOR 14 3 2 1 12
M TOR 15 3 4 5 6
M TOR 16 3 4 5 15
M TOR 17 3 4 5 16
M TOR 18 3 4 8 6
M TOR 19 3 4 8 7
M TOR 20 3 4 8 18
M TOR 21 4 3 2 13
M TOR 22 4 5 6 7
M TOR 23 4 5 6 8
M TOR 24 4 5 6 17
M TOR 25 4 8 6 7
M TOR 26 4 8 6 17
M TOR 27 5 4 8 7
M TOR 28 5 4 8 18
M TOR 29 5 6 7 8
M TOR 30 5 6 8 18
M TOR 31 6 5 4 14
M TOR 32 6 7 8 18
M TOR 33 6 8 4 14
M TOR 34 7 6 5 15
M TOR 35 7 6 5 16
M TOR 36 7 8 4 14
M TOR 37 7 8 6 17
M TOR 38 8 4 5 15
M TOR 39 8 4 5 16
M TOR 40 8 6 5 15
M TOR 41 8 6 5 16
M  END
$$$$
