gdb 5698	2.8811762	1.0394371	0.8850159	2.3062	76.51	-0.24828	-0.02766	0.22062	1342.4285	0.154929	-422.543293	-422.534136	-422.533192	-422.577976	33.852
 OpenBabel02181911423D

 19 20  0  0  1  0  0  0  0  0999 V2000
   -0.7861   -1.4005    0.0221 O   0  0  0  0  0  0  0  0  0  0  0  0
   -0.1690   -0.1232   -0.0336 C   0  0  0  0  0  0  0  0  0  0  0  0
   -0.5172    0.7508    1.1476 C   0  0  2  0  0  0  0  0  0  0  0  0
    0.3754    1.9146    1.5186 C   0  0  0  0  0  0  0  0  0  0  0  0
    0.3068    0.7092    2.4078 C   0  0  0  0  0  0  0  0  0  0  0  0
   -0.2345    0.6594    3.8498 C   0  0  0  0  0  0  0  0  0  0  0  0
    0.8958   -0.3386    4.1693 C   0  0  0  0  0  0  0  0  0  0  0  0
    1.2077   -0.9516    5.1466 O   0  0  0  0  0  0  0  0  0  0  0  0
    1.4647   -0.2575    2.7373 C   0  0  0  0  0  0  0  0  0  0  0  0
   -0.5352   -1.8125    0.8550 H   0  0  0  0  0  0  0  0  0  0  0  0
    0.9270   -0.2077   -0.1205 H   0  0  0  0  0  0  0  0  0  0  0  0
   -0.5289    0.3339   -0.9617 H   0  0  0  0  0  0  0  0  0  0  0  0
   -1.5862    0.8973    1.2858 H   0  0  0  0  0  0  0  0  0  0  0  0
    1.2801    2.0622    0.9353 H   0  0  0  0  0  0  0  0  0  0  0  0
   -0.0922    2.8341    1.8555 H   0  0  0  0  0  0  0  0  0  0  0  0
   -0.1632    1.5916    4.4207 H   0  0  0  0  0  0  0  0  0  0  0  0
   -1.2420    0.2504    3.9807 H   0  0  0  0  0  0  0  0  0  0  0  0
    2.4713    0.1722    2.6956 H   0  0  0  0  0  0  0  0  0  0  0  0
    1.4863   -1.2172    2.2089 H   0  0  0  0  0  0  0  0  0  0  0  0
  1 10  1  0  0  0  0
  2  1  1  0  0  0  0
  2  3  1  0  0  0  0
  3 13  1  1  0  0  0
  3  4  1  0  0  0  0
  3  5  1  0  0  0  0
  4 15  1  0  0  0  0
  4  5  1  0  0  0  0
  5  9  1  0  0  0  0
  5  6  1  0  0  0  0
  6 17  1  0  0  0  0
  6  7  1  0  0  0  0
  6 16  1  0  0  0  0
  7  8  2  0  0  0  0
  9  7  1  0  0  0  0
 11  2  1  0  0  0  0
 12  2  1  0  0  0  0
 14  4  1  0  0  0  0
 18  9  1  0  0  0  0
 19  9  1  0  0  0  0
M TOR 0 0 1 2 3
M TOR 1 0 1 2 4
M TOR 2 0 1 2 12
M TOR 3 1 2 3 4
M TOR 4 1 2 3 13
M TOR 5 1 2 3 14
M TOR 6 1 2 4 5
M TOR 7 1 2 4 8
M TOR 8 2 1 0 9
M TOR 9 2 3 4 5
M TOR 10 2 3 4 8
M TOR 11 2 4 3 13
M TOR 12 2 4 3 14
M TOR 13 2 4 5 6
M TOR 14 2 4 5 15
M TOR 15 2 4 5 16
M TOR 16 2 4 8 6
M TOR 17 2 4 8 17
M TOR 18 2 4 8 18
M TOR 19 3 2 1 10
M TOR 20 3 2 1 11
M TOR 21 3 4 2 12
M TOR 22 3 4 5 6
M TOR 23 3 4 5 15
M TOR 24 3 4 5 16
M TOR 25 3 4 8 6
M TOR 26 3 4 8 17
M TOR 27 3 4 8 18
M TOR 28 4 2 1 10
M TOR 29 4 2 1 11
M TOR 30 4 5 6 7
M TOR 31 4 5 6 8
M TOR 32 4 8 6 7
M TOR 33 5 4 2 12
M TOR 34 5 4 3 13
M TOR 35 5 4 3 14
M TOR 36 5 4 8 17
M TOR 37 5 4 8 18
M TOR 38 5 6 8 17
M TOR 39 5 6 8 18
M TOR 40 7 6 5 15
M TOR 41 7 6 5 16
M TOR 42 7 6 8 17
M TOR 43 7 6 8 18
M TOR 44 8 4 2 12
M TOR 45 8 4 3 13
M TOR 46 8 4 3 14
M TOR 47 8 4 5 15
M TOR 48 8 4 5 16
M TOR 49 8 6 5 15
M TOR 50 8 6 5 16
M  END
$$$$
