
     RDKit          3D

 19 20  0  0  0  0  0  0  0  0999 V2000
   -3.2505   -1.8736   -0.7633 C   0  0  0  0  0  0  0  0  0  0  0  0
   -2.3722   -1.0898    0.2171 C   0  0  0  0  0  0  0  0  0  0  0  0
   -0.8611   -1.2417   -0.1292 C   0  0  0  0  0  0  0  0  0  0  0  0
   -0.0433    0.0324    0.0886 C   0  0  0  0  0  0  0  0  0  0  0  0
    1.1445    0.0485    0.2984 O   0  0  0  0  0  0  0  0  0  0  0  0
   -0.9090    1.2848    0.0338 C   0  0  0  0  0  0  0  0  0  0  0  0
   -1.8925    1.2170    1.2250 C   0  0  0  0  0  0  0  0  0  0  0  0
   -2.7257    0.4049    0.2135 C   0  0  0  0  0  0  0  0  0  0  0  0
   -2.0082    1.0482   -0.8869 O   0  0  0  0  0  0  0  0  0  0  0  0
   -4.3050   -1.8362   -0.4706 H   0  0  0  0  0  0  0  0  0  0  0  0
   -3.1620   -1.4516   -1.7704 H   0  0  0  0  0  0  0  0  0  0  0  0
   -2.9515   -2.9255   -0.8096 H   0  0  0  0  0  0  0  0  0  0  0  0
   -2.5478   -1.4702    1.2316 H   0  0  0  0  0  0  0  0  0  0  0  0
   -0.3841   -2.0667    0.4048 H   0  0  0  0  0  0  0  0  0  0  0  0
   -0.7668   -1.4665   -1.1993 H   0  0  0  0  0  0  0  0  0  0  0  0
   -0.3405    2.1923   -0.1741 H   0  0  0  0  0  0  0  0  0  0  0  0
   -1.5655    0.7296    2.1468 H   0  0  0  0  0  0  0  0  0  0  0  0
   -2.3296    2.1922    1.4437 H   0  0  0  0  0  0  0  0  0  0  0  0
   -3.8033    0.5841    0.1594 H   0  0  0  0  0  0  0  0  0  0  0  0
  1  2  1  0
  2  3  1  0
  3  4  1  0
  4  5  2  0
  4  6  1  0
  6  7  1  0
  7  8  1  0
  8  9  1  0
  8  2  1  0
  9  6  1  0
  1 10  1  0
  1 11  1  0
  1 12  1  0
  2 13  1  0
  3 14  1  0
  3 15  1  0
  6 16  1  0
  7 17  1  0
  7 18  1  0
  8 19  1  0
M  END
$$$$
