
     RDKit          3D

 19 21  0  0  0  0  0  0  0  0999 V2000
   -0.5817   -1.3096    2.5107 C   0  0  0  0  0  0  0  0  0  0  0  0
   -1.2834   -0.0739    2.0268 C   0  0  0  0  0  0  0  0  0  0  0  0
   -2.5074    0.0281    0.9948 C   0  0  0  0  0  0  0  0  0  0  0  0
   -2.9049    1.2659    1.7749 C   0  0  0  0  0  0  0  0  0  0  0  0
   -1.9177    1.3720    0.6143 C   0  0  0  0  0  0  0  0  0  0  0  0
   -0.5423    0.9793    1.1464 C   0  0  0  0  0  0  0  0  0  0  0  0
    0.3172    0.4364    0.1678 O   0  0  0  0  0  0  0  0  0  0  0  0
   -2.1209    0.8096    3.0022 C   0  0  0  0  0  0  0  0  0  0  0  0
   -2.8922    0.0916    3.9406 O   0  0  0  0  0  0  0  0  0  0  0  0
    0.2154   -1.0419    3.2142 H   0  0  0  0  0  0  0  0  0  0  0  0
   -1.2711   -1.9792    3.0340 H   0  0  0  0  0  0  0  0  0  0  0  0
   -0.1196   -1.8547    1.6820 H   0  0  0  0  0  0  0  0  0  0  0  0
   -3.0931   -0.6843    0.4315 H   0  0  0  0  0  0  0  0  0  0  0  0
   -3.8515    1.7928    1.7551 H   0  0  0  0  0  0  0  0  0  0  0  0
   -2.1400    1.9768   -0.2568 H   0  0  0  0  0  0  0  0  0  0  0  0
    0.0551    1.7295    1.6769 H   0  0  0  0  0  0  0  0  0  0  0  0
   -0.2140   -0.1364   -0.3988 H   0  0  0  0  0  0  0  0  0  0  0  0
   -1.5689    1.5550    3.5860 H   0  0  0  0  0  0  0  0  0  0  0  0
   -3.4845   -0.4879    3.4461 H   0  0  0  0  0  0  0  0  0  0  0  0
  1  2  1  0
  2  3  1  0
  3  4  1  0
  4  5  1  0
  5  6  1  0
  6  7  1  0
  4  8  1  0
  8  9  1  0
  6  2  1  0
  8  2  1  0
  5  3  1  0
  1 10  1  0
  1 11  1  0
  1 12  1  0
  3 13  1  0
  4 14  1  0
  5 15  1  0
  6 16  1  0
  7 17  1  0
  8 18  1  0
  9 19  1  0
M  END
$$$$
