
     RDKit          3D

 19 19  0  0  0  0  0  0  0  0999 V2000
    0.0674    2.4704    0.4636 C   0  0  0  0  0  0  0  0  0  0  0  0
   -0.7825    1.3031   -0.0210 C   0  0  0  0  0  0  0  0  0  0  0  0
   -1.0241    1.5253   -1.4299 O   0  0  0  0  0  0  0  0  0  0  0  0
   -2.0966    1.2042    0.7177 C   0  0  0  0  0  0  0  0  0  0  0  0
   -2.6325    0.0580    1.1416 C   0  0  0  0  0  0  0  0  0  0  0  0
   -1.9929   -1.2923    0.9624 C   0  0  0  0  0  0  0  0  0  0  0  0
   -0.8749   -1.2681   -0.1000 C   0  0  0  0  0  0  0  0  0  0  0  0
   -0.0117   -0.0338    0.0879 C   0  0  0  0  0  0  0  0  0  0  0  0
    1.1752   -0.0841    0.3025 O   0  0  0  0  0  0  0  0  0  0  0  0
    0.3279    2.3511    1.5181 H   0  0  0  0  0  0  0  0  0  0  0  0
    0.9927    2.5175   -0.1132 H   0  0  0  0  0  0  0  0  0  0  0  0
   -0.4848    3.4049    0.3327 H   0  0  0  0  0  0  0  0  0  0  0  0
   -1.8837    1.1468   -1.6409 H   0  0  0  0  0  0  0  0  0  0  0  0
   -2.6151    2.1464    0.8828 H   0  0  0  0  0  0  0  0  0  0  0  0
   -3.5866    0.0789    1.6638 H   0  0  0  0  0  0  0  0  0  0  0  0
   -1.5797   -1.6269    1.9244 H   0  0  0  0  0  0  0  0  0  0  0  0
   -2.7534   -2.0356    0.6957 H   0  0  0  0  0  0  0  0  0  0  0  0
   -0.2452   -2.1585   -0.0521 H   0  0  0  0  0  0  0  0  0  0  0  0
   -1.3282   -1.2188   -1.0973 H   0  0  0  0  0  0  0  0  0  0  0  0
  1  2  1  0
  2  3  1  0
  2  4  1  0
  4  5  2  0
  5  6  1  0
  6  7  1  0
  7  8  1  0
  8  9  2  0
  8  2  1  0
  1 10  1  0
  1 11  1  0
  1 12  1  0
  3 13  1  0
  4 14  1  0
  5 15  1  0
  6 16  1  0
  6 17  1  0
  7 18  1  0
  7 19  1  0
M  END
$$$$
