gdb 3776	4.0355014	0.9803293	0.8756546	0.9221	75.58	-0.22443	0.0737	0.29813	1331.6375	0.15623	-422.488069	-422.479605	-422.478661	-422.521642	32.194
 OpenBabel02181911413D

 19 21  0  0  1  0  0  0  0  0999 V2000
    0.7258    4.1804    0.0339 O   0  0  0  0  0  0  0  0  0  0  0  0
    0.7363    2.9287    0.6539 C   0  0  1  0  0  0  0  0  0  0  0  0
    0.8002    1.7455   -0.2533 C   0  0  0  0  0  0  0  0  0  0  0  0
    1.9970    2.0837    0.6191 C   0  0  2  0  0  0  0  0  0  0  0  0
    2.4100    1.2652    1.7849 C   0  0  1  0  0  0  0  0  0  0  0  0
    1.6765    0.0583    2.3467 C   0  0  0  0  0  0  0  0  0  0  0  0
    3.1090   -0.0746    1.9339 C   0  0  2  0  0  0  0  0  0  0  0  0
    3.9789    0.3936    2.9652 O   0  0  0  0  0  0  0  0  0  0  0  0
    3.4163    1.7270    2.8447 C   0  0  0  0  0  0  0  0  0  0  0  0
    1.1771    4.8037    0.6130 H   0  0  0  0  0  0  0  0  0  0  0  0
    0.1110    2.8414    1.5425 H   0  0  0  0  0  0  0  0  0  0  0  0
    0.1950    0.8794   -0.0125 H   0  0  0  0  0  0  0  0  0  0  0  0
    0.8984    1.9551   -1.3121 H   0  0  0  0  0  0  0  0  0  0  0  0
    2.8178    2.5530    0.0806 H   0  0  0  0  0  0  0  0  0  0  0  0
    1.4184    0.0032    3.4015 H   0  0  0  0  0  0  0  0  0  0  0  0
    0.9569   -0.3949    1.6722 H   0  0  0  0  0  0  0  0  0  0  0  0
    3.5001   -0.7890    1.2186 H   0  0  0  0  0  0  0  0  0  0  0  0
    3.0224    2.1042    3.7966 H   0  0  0  0  0  0  0  0  0  0  0  0
    4.1664    2.4248    2.4525 H   0  0  0  0  0  0  0  0  0  0  0  0
  1 10  1  0  0  0  0
  1  2  1  0  0  0  0
  2 11  1  1  0  0  0
  3 12  1  0  0  0  0
  3  4  1  0  0  0  0
  3  2  1  0  0  0  0
  4 14  1  6  0  0  0
  4  2  1  0  0  0  0
  4  5  1  0  0  0  0
  5  7  1  0  0  0  0
  5  6  1  1  0  0  0
  5  9  1  0  0  0  0
  6 15  1  0  0  0  0
  7 17  1  6  0  0  0
  7  6  1  0  0  0  0
  7  8  1  0  0  0  0
  9  8  1  0  0  0  0
  9 18  1  0  0  0  0
 13  3  1  0  0  0  0
 16  6  1  0  0  0  0
 19  9  1  0  0  0  0
M TOR 0 0 1 2 3
M TOR 1 0 1 2 11
M TOR 2 0 1 2 12
M TOR 3 0 1 3 4
M TOR 4 0 1 3 13
M TOR 5 1 2 3 4
M TOR 6 1 2 3 13
M TOR 7 1 3 2 11
M TOR 8 1 3 2 12
M TOR 9 1 3 4 5
M TOR 10 1 3 4 6
M TOR 11 1 3 4 8
M TOR 12 2 1 0 9
M TOR 13 2 3 1 10
M TOR 14 2 3 4 5
M TOR 15 2 3 4 6
M TOR 16 2 3 4 8
M TOR 17 3 1 0 9
M TOR 18 3 4 5 6
M TOR 19 3 4 5 14
M TOR 20 3 4 5 15
M TOR 21 3 4 6 7
M TOR 22 3 4 6 16
M TOR 23 3 4 8 7
M TOR 24 3 4 8 17
M TOR 25 3 4 8 18
M TOR 26 4 3 1 10
M TOR 27 4 3 2 11
M TOR 28 4 3 2 12
M TOR 29 4 5 6 7
M TOR 30 4 5 6 16
M TOR 31 4 6 5 14
M TOR 32 4 6 5 15
M TOR 33 4 6 7 8
M TOR 34 5 4 3 13
M TOR 35 5 4 8 7
M TOR 36 5 4 8 17
M TOR 37 5 4 8 18
M TOR 38 5 6 4 8
M TOR 39 5 6 7 8
M TOR 40 6 4 3 13
M TOR 41 6 4 8 17
M TOR 42 6 4 8 18
M TOR 43 6 7 8 17
M TOR 44 6 7 8 18
M TOR 45 7 6 5 14
M TOR 46 7 6 5 15
M TOR 47 8 4 3 13
M TOR 48 8 4 5 14
M TOR 49 8 4 5 15
M TOR 50 8 4 6 16
M TOR 51 8 7 6 16
M  END
$$$$
