gdb 5670	2.1222876	1.2079963	0.8508981	2.1968	78.64	-0.25283	0.0356	0.28843	1379.4623	0.154539	-422.510912	-422.501094	-422.50015	-422.546094	35.5
 OpenBabel02181911423D

 19 19  0  0  1  0  0  0  0  0999 V2000
    1.9371   -4.0371    2.7131 C   0  0  0  0  0  0  0  0  0  0  0  0
    1.9242   -3.9529    1.2037 C   0  0  2  0  0  0  0  0  0  0  0  0
    2.0791   -2.6002    0.7080 O   0  0  0  0  0  0  0  0  0  0  0  0
    0.9568   -2.7478   -0.1944 C   0  0  2  0  0  0  0  0  0  0  0  0
    0.0096   -1.5713   -0.0558 C   0  0  0  0  0  0  0  0  0  0  0  0
    0.6803   -0.3604   -0.3399 O   0  0  0  0  0  0  0  0  0  0  0  0
    0.5636   -4.1028    0.4561 C   0  0  1  0  0  0  0  0  0  0  0  0
    0.3577   -5.2552   -0.3916 C   0  0  0  0  0  0  0  0  0  0  0  0
    0.2051   -6.2121   -1.1036 C   0  0  0  0  0  0  0  0  0  0  0  0
    1.7770   -5.0714    3.0358 H   0  0  0  0  0  0  0  0  0  0  0  0
    2.9037   -3.7034    3.1032 H   0  0  0  0  0  0  0  0  0  0  0  0
    1.1549   -3.4069    3.1473 H   0  0  0  0  0  0  0  0  0  0  0  0
    2.6933   -4.6052    0.7699 H   0  0  0  0  0  0  0  0  0  0  0  0
    1.3008   -2.8465   -1.2314 H   0  0  0  0  0  0  0  0  0  0  0  0
   -0.8154   -1.6621   -0.7712 H   0  0  0  0  0  0  0  0  0  0  0  0
   -0.4191   -1.5680    0.9602 H   0  0  0  0  0  0  0  0  0  0  0  0
    1.4627   -0.3485    0.2250 H   0  0  0  0  0  0  0  0  0  0  0  0
   -0.2771   -3.9771    1.1477 H   0  0  0  0  0  0  0  0  0  0  0  0
    0.0640   -7.0571   -1.7311 H   0  0  0  0  0  0  0  0  0  0  0  0
  1 10  1  0  0  0  0
  1 11  1  0  0  0  0
  1 12  1  0  0  0  0
  2 13  1  6  0  0  0
  2  1  1  0  0  0  0
  3  2  1  0  0  0  0
  4 14  1  6  0  0  0
  4  5  1  0  0  0  0
  4  7  1  0  0  0  0
  4  3  1  0  0  0  0
  5 16  1  0  0  0  0
  6  5  1  0  0  0  0
  6 17  1  0  0  0  0
  7 18  1  1  0  0  0
  7  2  1  0  0  0  0
  8  7  1  0  0  0  0
  9  8  3  0  0  0  0
 15  5  1  0  0  0  0
 19  9  1  0  0  0  0
M TOR 0 0 1 2 3
M TOR 1 0 1 6 3
M TOR 2 0 1 6 7
M TOR 3 0 1 6 17
M TOR 4 1 2 3 4
M TOR 5 1 2 3 6
M TOR 6 1 2 3 13
M TOR 7 1 6 3 4
M TOR 8 1 6 3 13
M TOR 9 1 6 7 8
M TOR 10 2 1 0 9
M TOR 11 2 1 0 10
M TOR 12 2 1 0 11
M TOR 13 2 1 6 7
M TOR 14 2 1 6 17
M TOR 15 2 3 4 5
M TOR 16 2 3 4 14
M TOR 17 2 3 4 15
M TOR 18 2 3 6 7
M TOR 19 2 3 6 17
M TOR 20 3 2 1 12
M TOR 21 3 4 5 16
M TOR 22 3 6 1 12
M TOR 23 3 6 7 8
M TOR 24 4 3 6 7
M TOR 25 4 3 6 17
M TOR 26 5 4 3 6
M TOR 27 5 4 3 13
M TOR 28 6 1 0 9
M TOR 29 6 1 0 10
M TOR 30 6 1 0 11
M TOR 31 6 3 4 14
M TOR 32 6 3 4 15
M TOR 33 6 7 8 18
M TOR 34 7 6 1 12
M TOR 35 7 6 3 13
M TOR 36 8 7 6 17
M  END
$$$$
