
     RDKit          3D

 19 19  0  0  0  0  0  0  0  0999 V2000
    1.5803    0.3319   -0.0559 C   0  0  0  0  0  0  0  0  0  0  0  0
    0.1338    0.1733   -0.0285 C   0  0  0  0  0  0  0  0  0  0  0  0
   -1.0638    0.0349   -0.0126 C   0  0  0  0  0  0  0  0  0  0  0  0
   -2.5037   -0.1238    0.0498 C   0  0  0  0  0  0  0  0  0  0  0  0
   -3.1830    1.1336   -0.0807 O   0  0  0  0  0  0  0  0  0  0  0  0
   -3.2010   -1.1531   -0.8839 C   0  0  0  0  0  0  0  0  0  0  0  0
   -4.1114   -1.5932    0.2933 C   0  0  0  0  0  0  0  0  0  0  0  0
   -3.1254   -0.9019    1.2781 C   0  0  0  0  0  0  0  0  0  0  0  0
   -3.6250   -0.1114    2.3119 O   0  0  0  0  0  0  0  0  0  0  0  0
    1.9928    0.4134    0.9557 H   0  0  0  0  0  0  0  0  0  0  0  0
    2.0608   -0.5237   -0.5430 H   0  0  0  0  0  0  0  0  0  0  0  0
    1.8703    1.2323   -0.6083 H   0  0  0  0  0  0  0  0  0  0  0  0
   -2.6090    1.8031    0.3067 H   0  0  0  0  0  0  0  0  0  0  0  0
   -3.6817   -0.7069   -1.7557 H   0  0  0  0  0  0  0  0  0  0  0  0
   -2.5084   -1.9316   -1.2081 H   0  0  0  0  0  0  0  0  0  0  0  0
   -5.0761   -1.0793    0.2827 H   0  0  0  0  0  0  0  0  0  0  0  0
   -4.2832   -2.6624    0.4309 H   0  0  0  0  0  0  0  0  0  0  0  0
   -2.4085   -1.6039    1.7108 H   0  0  0  0  0  0  0  0  0  0  0  0
   -4.0530    0.6373    1.8733 H   0  0  0  0  0  0  0  0  0  0  0  0
  1  2  1  0
  2  3  3  0
  3  4  1  0
  4  5  1  0
  4  6  1  0
  6  7  1  0
  7  8  1  0
  8  9  1  0
  8  4  1  0
  1 10  1  0
  1 11  1  0
  1 12  1  0
  5 13  1  0
  6 14  1  0
  6 15  1  0
  7 16  1  0
  7 17  1  0
  8 18  1  0
  9 19  1  0
M  END
$$$$
