gdb 5291	2.2154751	1.7390514	1.2192946	2.1867	75.73	-0.22206	-0.02486	0.19720000000000001	1088.8712	0.155422	-422.53328	-422.524338	-422.523394	-422.567334	32.637
 OpenBabel02181911423D

 19 20  0  0  1  0  0  0  0  0999 V2000
    1.4727    0.0063    0.0428 C   0  0  0  0  0  0  0  0  0  0  0  0
    0.0495    0.0196    0.0320 O   0  0  0  0  0  0  0  0  0  0  0  0
   -0.5147    0.6356    1.1405 C   0  0  2  0  0  0  0  0  0  0  0  0
   -0.4438   -0.0996    2.5224 C   0  0  0  0  0  0  0  0  0  0  0  0
   -1.9960   -0.0271    2.6410 C   0  0  0  0  0  0  0  0  0  0  0  0
   -2.0789    0.7624    1.3113 C   0  0  1  0  0  0  0  0  0  0  0  0
   -1.9475    2.3038    1.4710 C   0  0  0  0  0  0  0  0  0  0  0  0
   -0.4266    2.1735    1.2514 C   0  0  0  0  0  0  0  0  0  0  0  0
    0.4598    2.9658    1.0987 O   0  0  0  0  0  0  0  0  0  0  0  0
    1.8631   -0.5460    0.9096 H   0  0  0  0  0  0  0  0  0  0  0  0
    1.7866   -0.5041   -0.8702 H   0  0  0  0  0  0  0  0  0  0  0  0
    1.8815    1.0223    0.0559 H   0  0  0  0  0  0  0  0  0  0  0  0
   -0.0705   -1.1181    2.3944 H   0  0  0  0  0  0  0  0  0  0  0  0
    0.1367    0.3911    3.3070 H   0  0  0  0  0  0  0  0  0  0  0  0
   -2.4708   -1.0093    2.5950 H   0  0  0  0  0  0  0  0  0  0  0  0
   -2.3853    0.4986    3.5167 H   0  0  0  0  0  0  0  0  0  0  0  0
   -2.7641    0.4145    0.5406 H   0  0  0  0  0  0  0  0  0  0  0  0
   -2.4162    2.8825    0.6683 H   0  0  0  0  0  0  0  0  0  0  0  0
   -2.2565    2.7326    2.4288 H   0  0  0  0  0  0  0  0  0  0  0  0
  1 12  1  0  0  0  0
  1 10  1  0  0  0  0
  2  1  1  0  0  0  0
  3  2  1  6  0  0  0
  3  8  1  0  0  0  0
  3  6  1  0  0  0  0
  3  4  1  0  0  0  0
  4  5  1  0  0  0  0
  4 14  1  0  0  0  0
  5 16  1  0  0  0  0
  6 17  1  6  0  0  0
  6  7  1  0  0  0  0
  6  5  1  0  0  0  0
  7 19  1  0  0  0  0
  8  7  1  0  0  0  0
  9  8  2  0  0  0  0
 11  1  1  0  0  0  0
 13  4  1  0  0  0  0
 15  5  1  0  0  0  0
 18  7  1  0  0  0  0
M TOR 0 0 1 2 3
M TOR 1 0 1 2 5
M TOR 2 0 1 2 7
M TOR 3 1 2 3 4
M TOR 4 1 2 3 12
M TOR 5 1 2 3 13
M TOR 6 1 2 5 4
M TOR 7 1 2 5 6
M TOR 8 1 2 5 16
M TOR 9 1 2 7 6
M TOR 10 1 2 7 8
M TOR 11 2 1 0 9
M TOR 12 2 1 0 10
M TOR 13 2 1 0 11
M TOR 14 2 3 4 5
M TOR 15 2 3 4 14
M TOR 16 2 3 4 15
M TOR 17 2 5 4 14
M TOR 18 2 5 4 15
M TOR 19 2 5 6 7
M TOR 20 2 5 6 17
M TOR 21 2 5 6 18
M TOR 22 2 7 6 17
M TOR 23 2 7 6 18
M TOR 24 3 2 5 6
M TOR 25 3 2 5 16
M TOR 26 3 2 7 6
M TOR 27 3 2 7 8
M TOR 28 3 4 5 6
M TOR 29 3 4 5 16
M TOR 30 4 3 2 7
M TOR 31 4 5 2 7
M TOR 32 4 5 6 7
M TOR 33 4 5 6 17
M TOR 34 4 5 6 18
M TOR 35 5 2 3 12
M TOR 36 5 2 3 13
M TOR 37 5 2 7 8
M TOR 38 5 4 3 12
M TOR 39 5 4 3 13
M TOR 40 5 6 7 8
M TOR 41 6 5 4 14
M TOR 42 6 5 4 15
M TOR 43 7 2 3 12
M TOR 44 7 2 3 13
M TOR 45 7 2 5 16
M TOR 46 7 6 5 16
M TOR 47 8 7 6 17
M TOR 48 8 7 6 18
M  END
$$$$
