gdb 5933	1.7626641	1.2676688	0.8424517	1.8993	76.59	-0.26018	0.04491	0.30509000000000003	1397.0786	0.153761	-422.499834	-422.489685	-422.488741	-422.535925	36.231
 OpenBabel02181911423D

 19 19  0  0  1  0  0  0  0  0999 V2000
    2.5812    3.8207    2.2625 O   0  0  0  0  0  0  0  0  0  0  0  0
    3.0238    2.7064    1.5072 C   0  0  0  0  0  0  0  0  0  0  0  0
    2.7003    1.3726    2.1914 C   0  0  0  0  0  0  0  0  0  0  0  0
    3.1584    0.1556    1.4117 C   0  0  1  0  0  0  0  0  0  0  0  0
    2.5038   -0.0948    0.0515 C   0  0  0  0  0  0  0  0  0  0  0  0
    1.0457   -0.1135    0.0977 C   0  0  0  0  0  0  0  0  0  0  0  0
   -0.1551   -0.1168    0.1429 C   0  0  0  0  0  0  0  0  0  0  0  0
    4.5022   -0.3993    1.6365 C   0  0  0  0  0  0  0  0  0  0  0  0
    3.3464   -1.0267    2.1967 O   0  0  0  0  0  0  0  0  0  0  0  0
    3.0431    3.8072    3.1070 H   0  0  0  0  0  0  0  0  0  0  0  0
    2.4992    2.7801    0.5491 H   0  0  0  0  0  0  0  0  0  0  0  0
    4.1035    2.7684    1.2927 H   0  0  0  0  0  0  0  0  0  0  0  0
    3.1819    1.3401    3.1761 H   0  0  0  0  0  0  0  0  0  0  0  0
    1.6193    1.3130    2.3554 H   0  0  0  0  0  0  0  0  0  0  0  0
    2.8361    0.6766   -0.6560 H   0  0  0  0  0  0  0  0  0  0  0  0
    2.8747   -1.0520   -0.3311 H   0  0  0  0  0  0  0  0  0  0  0  0
   -1.2163   -0.1282    0.1791 H   0  0  0  0  0  0  0  0  0  0  0  0
    5.0012   -0.9578    0.8451 H   0  0  0  0  0  0  0  0  0  0  0  0
    5.1699    0.0788    2.3523 H   0  0  0  0  0  0  0  0  0  0  0  0
  1 10  1  0  0  0  0
  2  3  1  0  0  0  0
  2  1  1  0  0  0  0
  3 14  1  0  0  0  0
  3 13  1  0  0  0  0
  4  5  1  6  0  0  0
  4  8  1  0  0  0  0
  4  3  1  0  0  0  0
  4  9  1  0  0  0  0
  5  6  1  0  0  0  0
  6  7  3  0  0  0  0
  7 17  1  0  0  0  0
  8  9  1  0  0  0  0
  8 19  1  0  0  0  0
 11  2  1  0  0  0  0
 12  2  1  0  0  0  0
 15  5  1  0  0  0  0
 16  5  1  0  0  0  0
 18  8  1  0  0  0  0
M TOR 0 0 1 2 3
M TOR 1 0 1 2 12
M TOR 2 0 1 2 13
M TOR 3 1 2 3 4
M TOR 4 1 2 3 7
M TOR 5 1 2 3 8
M TOR 6 2 1 0 9
M TOR 7 2 3 4 5
M TOR 8 2 3 4 14
M TOR 9 2 3 4 15
M TOR 10 2 3 7 8
M TOR 11 2 3 7 17
M TOR 12 2 3 7 18
M TOR 13 3 2 1 10
M TOR 14 3 2 1 11
M TOR 15 3 4 5 6
M TOR 16 3 8 7 17
M TOR 17 3 8 7 18
M TOR 18 4 3 2 12
M TOR 19 4 3 2 13
M TOR 20 4 3 7 8
M TOR 21 4 3 7 17
M TOR 22 4 3 7 18
M TOR 23 4 5 6 16
M TOR 24 5 4 3 7
M TOR 25 5 4 3 8
M TOR 26 6 5 4 14
M TOR 27 6 5 4 15
M TOR 28 7 3 2 12
M TOR 29 7 3 2 13
M TOR 30 7 3 4 14
M TOR 31 7 3 4 15
M TOR 32 8 3 2 12
M TOR 33 8 3 2 13
M TOR 34 8 3 4 14
M TOR 35 8 3 4 15
M  END
$$$$
