
     RDKit          3D

 19 21  0  0  0  0  0  0  0  0999 V2000
   -1.4346   -3.6613    0.7474 C   0  0  0  0  0  0  0  0  0  0  0  0
    0.0173   -3.4979    1.0595 C   0  0  0  0  0  0  0  0  0  0  0  0
    0.7977   -2.8939    2.1756 C   0  0  0  0  0  0  0  0  0  0  0  0
    1.6016   -4.0392    2.4424 O   0  0  0  0  0  0  0  0  0  0  0  0
    1.2620   -4.4776    1.0940 C   0  0  0  0  0  0  0  0  0  0  0  0
    2.0367   -3.4959    0.1828 C   0  0  0  0  0  0  0  0  0  0  0  0
    1.0712   -2.4352    0.7152 C   0  0  0  0  0  0  0  0  0  0  0  0
    0.8807   -1.0220    0.2615 C   0  0  0  0  0  0  0  0  0  0  0  0
    2.0218   -0.2088    0.5033 O   0  0  0  0  0  0  0  0  0  0  0  0
   -1.8962   -4.4170    1.3928 H   0  0  0  0  0  0  0  0  0  0  0  0
   -1.9730   -2.7201    0.9007 H   0  0  0  0  0  0  0  0  0  0  0  0
   -1.5930   -3.9657   -0.2934 H   0  0  0  0  0  0  0  0  0  0  0  0
    0.5187   -2.2376    2.9914 H   0  0  0  0  0  0  0  0  0  0  0  0
    1.2794   -5.5589    0.9711 H   0  0  0  0  0  0  0  0  0  0  0  0
    3.1082   -3.3937    0.3789 H   0  0  0  0  0  0  0  0  0  0  0  0
    1.8573   -3.6952   -0.8776 H   0  0  0  0  0  0  0  0  0  0  0  0
    0.7180   -0.9789   -0.8216 H   0  0  0  0  0  0  0  0  0  0  0  0
   -0.0215   -0.5997    0.7372 H   0  0  0  0  0  0  0  0  0  0  0  0
    2.2664   -0.3276    1.4274 H   0  0  0  0  0  0  0  0  0  0  0  0
  1  2  1  0
  2  3  1  0
  3  4  1  0
  4  5  1  0
  5  6  1  0
  6  7  1  0
  7  8  1  0
  8  9  1  0
  5  2  1  0
  7  2  1  0
  7  3  1  0
  1 10  1  0
  1 11  1  0
  1 12  1  0
  3 13  1  0
  5 14  1  0
  6 15  1  0
  6 16  1  0
  8 17  1  0
  8 18  1  0
  9 19  1  0
M  END
$$$$
