
     RDKit          3D

 19 21  0  0  0  0  0  0  0  0999 V2000
    0.4558   -0.2618   -0.4264 C   0  0  0  0  0  0  0  0  0  0  0  0
    0.8234    0.1198    0.9924 C   0  0  0  0  0  0  0  0  0  0  0  0
    2.1675   -0.3624    1.3240 O   0  0  0  0  0  0  0  0  0  0  0  0
    2.6502    0.9815    1.3803 C   0  0  0  0  0  0  0  0  0  0  0  0
    1.9911    1.7217    2.5038 C   0  0  0  0  0  0  0  0  0  0  0  0
    1.2648    1.5686    1.1834 C   0  0  0  0  0  0  0  0  0  0  0  0
    3.9577    1.2802    0.7591 C   0  0  0  0  0  0  0  0  0  0  0  0
    4.8694    0.1979    0.3633 C   0  0  0  0  0  0  0  0  0  0  0  0
    4.1106    0.9083   -0.6167 O   0  0  0  0  0  0  0  0  0  0  0  0
    0.3769   -1.3491   -0.5177 H   0  0  0  0  0  0  0  0  0  0  0  0
   -0.5081    0.1787   -0.7052 H   0  0  0  0  0  0  0  0  0  0  0  0
    1.2261    0.0912   -1.1179 H   0  0  0  0  0  0  0  0  0  0  0  0
    0.0918   -0.2605    1.7165 H   0  0  0  0  0  0  0  0  0  0  0  0
    1.6721    1.1666    3.3819 H   0  0  0  0  0  0  0  0  0  0  0  0
    2.3634    2.7229    2.7001 H   0  0  0  0  0  0  0  0  0  0  0  0
    0.9480    2.4081    0.5789 H   0  0  0  0  0  0  0  0  0  0  0  0
    4.3753    2.2552    1.0098 H   0  0  0  0  0  0  0  0  0  0  0  0
    5.9434    0.3780    0.3498 H   0  0  0  0  0  0  0  0  0  0  0  0
    4.5575   -0.8300    0.5312 H   0  0  0  0  0  0  0  0  0  0  0  0
  1  2  1  0
  2  3  1  0
  3  4  1  0
  4  5  1  0
  5  6  1  0
  4  7  1  0
  7  8  1  0
  8  9  1  0
  6  2  1  0
  9  7  1  0
  6  4  1  0
  1 10  1  0
  1 11  1  0
  1 12  1  0
  2 13  1  0
  5 14  1  0
  5 15  1  0
  6 16  1  0
  7 17  1  0
  8 18  1  0
  8 19  1  0
M  END
$$$$
