
     RDKit          3D

 19 19  0  0  0  0  0  0  0  0999 V2000
   -3.8859   -1.3604   -0.4282 C   0  0  0  0  0  0  0  0  0  0  0  0
   -2.7997   -0.5045   -1.0217 C   0  0  0  0  0  0  0  0  0  0  0  0
   -3.1566    0.8133   -1.4375 O   0  0  0  0  0  0  0  0  0  0  0  0
   -2.2175    0.6858   -0.3503 C   0  0  0  0  0  0  0  0  0  0  0  0
   -0.8009    1.1261   -0.6788 C   0  0  0  0  0  0  0  0  0  0  0  0
    0.2469    0.5296    0.2563 C   0  0  0  0  0  0  0  0  0  0  0  0
    1.5116    1.0133   -0.1678 O   0  0  0  0  0  0  0  0  0  0  0  0
   -2.7156    1.0916    0.9448 C   0  0  0  0  0  0  0  0  0  0  0  0
   -3.0837    1.4488    2.0325 C   0  0  0  0  0  0  0  0  0  0  0  0
   -3.4539   -2.2494    0.0439 H   0  0  0  0  0  0  0  0  0  0  0  0
   -4.4556   -0.8063    0.3201 H   0  0  0  0  0  0  0  0  0  0  0  0
   -4.5709   -1.6956   -1.2138 H   0  0  0  0  0  0  0  0  0  0  0  0
   -2.1354   -1.0160   -1.7226 H   0  0  0  0  0  0  0  0  0  0  0  0
   -0.5790    0.8324   -1.7091 H   0  0  0  0  0  0  0  0  0  0  0  0
   -0.7386    2.2185   -0.6303 H   0  0  0  0  0  0  0  0  0  0  0  0
    0.0291    0.8241    1.2934 H   0  0  0  0  0  0  0  0  0  0  0  0
    0.2027   -0.5711    0.2109 H   0  0  0  0  0  0  0  0  0  0  0  0
    2.1773    0.6927    0.4473 H   0  0  0  0  0  0  0  0  0  0  0  0
   -3.4241    1.7645    2.9879 H   0  0  0  0  0  0  0  0  0  0  0  0
  1  2  1  0
  2  3  1  0
  3  4  1  0
  4  5  1  0
  5  6  1  0
  6  7  1  0
  4  8  1  0
  8  9  3  0
  4  2  1  0
  1 10  1  0
  1 11  1  0
  1 12  1  0
  2 13  1  0
  5 14  1  0
  5 15  1  0
  6 16  1  0
  6 17  1  0
  7 18  1  0
  9 19  1  0
M  END
$$$$
