gdb 5309	2.7473492	1.1952141	0.8808138	2.2047	80.6	-0.23575	-0.04189	0.19385999999999998	1312.3229	0.155934	-422.60142	-422.591724	-422.59078	-422.637	34.119
 OpenBabel02181911423D

 19 19  0  0  0  0  0  0  0  0999 V2000
    0.2406    2.1553    1.5979 C   0  0  0  0  0  0  0  0  0  0  0  0
    1.0267    1.5482    0.4798 C   0  0  0  0  0  0  0  0  0  0  0  0
    1.2606    0.2580    0.1728 C   0  0  0  0  0  0  0  0  0  0  0  0
    0.7804   -0.9619    0.9037 C   0  0  0  0  0  0  0  0  0  0  0  0
    1.8296   -1.8918    1.1567 O   0  0  0  0  0  0  0  0  0  0  0  0
    2.1190    0.0938   -1.0658 C   0  0  0  0  0  0  0  0  0  0  0  0
    2.4031    1.5298   -1.5360 C   0  0  0  0  0  0  0  0  0  0  0  0
    1.6994    2.4277   -0.5128 C   0  0  0  0  0  0  0  0  0  0  0  0
    1.6954    3.6384   -0.5023 O   0  0  0  0  0  0  0  0  0  0  0  0
    0.0155    1.4426    2.3948 H   0  0  0  0  0  0  0  0  0  0  0  0
    0.7905    3.0023    2.0199 H   0  0  0  0  0  0  0  0  0  0  0  0
   -0.7091    2.5603    1.2293 H   0  0  0  0  0  0  0  0  0  0  0  0
    0.2543   -0.6881    1.8282 H   0  0  0  0  0  0  0  0  0  0  0  0
    0.0636   -1.5049    0.2743 H   0  0  0  0  0  0  0  0  0  0  0  0
    2.4537   -1.4689    1.7560 H   0  0  0  0  0  0  0  0  0  0  0  0
    3.0279   -0.4687   -0.8291 H   0  0  0  0  0  0  0  0  0  0  0  0
    1.5907   -0.5030   -1.8202 H   0  0  0  0  0  0  0  0  0  0  0  0
    3.4686    1.7755   -1.5661 H   0  0  0  0  0  0  0  0  0  0  0  0
    2.0055    1.7397   -2.5335 H   0  0  0  0  0  0  0  0  0  0  0  0
  1 11  1  0  0  0  0
  1 10  1  0  0  0  0
  2  1  1  0  0  0  0
  3  2  2  0  0  0  0
  3  4  1  0  0  0  0
  4  5  1  0  0  0  0
  4 13  1  0  0  0  0
  5 15  1  0  0  0  0
  6 16  1  0  0  0  0
  6  3  1  0  0  0  0
  7  6  1  0  0  0  0
  7  8  1  0  0  0  0
  8  9  2  0  0  0  0
  8  2  1  0  0  0  0
 12  1  1  0  0  0  0
 14  4  1  0  0  0  0
 17  6  1  0  0  0  0
 18  7  1  0  0  0  0
 19  7  1  0  0  0  0
M TOR 0 0 1 2 3
M TOR 1 0 1 2 5
M TOR 2 0 1 7 6
M TOR 3 0 1 7 8
M TOR 4 1 2 3 4
M TOR 5 1 2 3 12
M TOR 6 1 2 3 13
M TOR 7 1 2 5 6
M TOR 8 1 2 5 15
M TOR 9 1 2 5 16
M TOR 10 1 7 6 5
M TOR 11 1 7 6 17
M TOR 12 1 7 6 18
M TOR 13 2 1 0 9
M TOR 14 2 1 0 10
M TOR 15 2 1 0 11
M TOR 16 2 1 7 6
M TOR 17 2 1 7 8
M TOR 18 2 3 4 14
M TOR 19 2 5 6 7
M TOR 20 2 5 6 17
M TOR 21 2 5 6 18
M TOR 22 3 2 1 7
M TOR 23 3 2 5 6
M TOR 24 3 2 5 15
M TOR 25 3 2 5 16
M TOR 26 4 3 2 5
M TOR 27 5 2 1 7
M TOR 28 5 2 3 12
M TOR 29 5 2 3 13
M TOR 30 5 6 7 8
M TOR 31 7 1 0 9
M TOR 32 7 1 0 10
M TOR 33 7 1 0 11
M TOR 34 7 6 5 15
M TOR 35 7 6 5 16
M TOR 36 8 7 6 17
M TOR 37 8 7 6 18
M  END
$$$$
