gdb 1382	2.5425481	0.8132196	0.6606881	2.9643	78.24	-0.25361	-0.02871	0.2249	1674.6258	0.152716	-422.535834	-422.525225	-422.524281	-422.572457	37.082
 OpenBabel02181911403D

 19 18  0  0  1  0  0  0  0  0999 V2000
   -1.4497    2.7722    1.7640 O   0  0  0  0  0  0  0  0  0  0  0  0
   -1.0861    1.9368    0.6665 C   0  0  2  0  0  0  0  0  0  0  0  0
   -2.2599    1.7103   -0.2905 C   0  0  0  0  0  0  0  0  0  0  0  0
   -2.8207    3.0333   -0.8483 C   0  0  0  0  0  0  0  0  0  0  0  0
   -4.0033    2.8413   -1.6774 C   0  0  0  0  0  0  0  0  0  0  0  0
   -4.9804    2.6558   -2.3527 C   0  0  0  0  0  0  0  0  0  0  0  0
   -0.4748    0.6239    1.1720 C   0  0  0  0  0  0  0  0  0  0  0  0
    0.3286   -0.1519    0.1543 C   0  0  0  0  0  0  0  0  0  0  0  0
    0.5045    0.1852   -0.9896 O   0  0  0  0  0  0  0  0  0  0  0  0
   -2.1751    2.3449    2.2338 H   0  0  0  0  0  0  0  0  0  0  0  0
   -0.3036    2.4955    0.1413 H   0  0  0  0  0  0  0  0  0  0  0  0
   -1.9324    1.0713   -1.1151 H   0  0  0  0  0  0  0  0  0  0  0  0
   -3.0593    1.1710    0.2372 H   0  0  0  0  0  0  0  0  0  0  0  0
   -3.0524    3.7023   -0.0119 H   0  0  0  0  0  0  0  0  0  0  0  0
   -2.0400    3.5374   -1.4328 H   0  0  0  0  0  0  0  0  0  0  0  0
   -5.8421    2.5069   -2.9545 H   0  0  0  0  0  0  0  0  0  0  0  0
    0.1921    0.8379    2.0193 H   0  0  0  0  0  0  0  0  0  0  0  0
   -1.2462   -0.0511    1.5749 H   0  0  0  0  0  0  0  0  0  0  0  0
    0.7805   -1.0913    0.5467 H   0  0  0  0  0  0  0  0  0  0  0  0
  1 10  1  0  0  0  0
  2 11  1  6  0  0  0
  2  7  1  0  0  0  0
  2  1  1  0  0  0  0
  3 13  1  0  0  0  0
  3  2  1  0  0  0  0
  4  3  1  0  0  0  0
  4 14  1  0  0  0  0
  5  4  1  0  0  0  0
  6  5  3  0  0  0  0
  7 18  1  0  0  0  0
  7 17  1  0  0  0  0
  8 19  1  0  0  0  0
  8  7  1  0  0  0  0
  9  8  2  0  0  0  0
 12  3  1  0  0  0  0
 15  4  1  0  0  0  0
 16  6  1  0  0  0  0
M TOR 0 0 1 2 3
M TOR 1 0 1 2 11
M TOR 2 0 1 2 12
M TOR 3 0 1 6 7
M TOR 4 0 1 6 16
M TOR 5 0 1 6 17
M TOR 6 1 2 3 4
M TOR 7 1 2 3 13
M TOR 8 1 2 3 14
M TOR 9 1 6 7 8
M TOR 10 1 6 7 18
M TOR 11 2 1 0 9
M TOR 12 2 1 6 7
M TOR 13 2 1 6 16
M TOR 14 2 1 6 17
M TOR 15 2 3 4 5
M TOR 16 3 2 1 6
M TOR 17 3 2 1 10
M TOR 18 3 4 5 15
M TOR 19 4 3 2 11
M TOR 20 4 3 2 12
M TOR 21 5 4 3 13
M TOR 22 5 4 3 14
M TOR 23 6 1 0 9
M TOR 24 6 1 2 11
M TOR 25 6 1 2 12
M TOR 26 7 6 1 10
M TOR 27 8 7 6 16
M TOR 28 8 7 6 17
M  END
$$$$
