
     RDKit          3D

 19 19  0  0  0  0  0  0  0  0999 V2000
   -3.1250   -1.0702    1.2518 C   0  0  0  0  0  0  0  0  0  0  0  0
   -2.3455   -0.6303   -0.0020 C   0  0  0  0  0  0  0  0  0  0  0  0
   -3.1316   -1.0192   -1.2768 C   0  0  0  0  0  0  0  0  0  0  0  0
   -4.4003   -0.3935   -1.3703 O   0  0  0  0  0  0  0  0  0  0  0  0
   -0.9118   -1.2108   -0.0396 C   0  0  0  0  0  0  0  0  0  0  0  0
    0.0405   -0.0030    0.0275 C   0  0  0  0  0  0  0  0  0  0  0  0
    1.2476   -0.0546    0.0542 O   0  0  0  0  0  0  0  0  0  0  0  0
   -0.8108    1.2087    0.0443 C   0  0  0  0  0  0  0  0  0  0  0  0
   -2.1033    0.8676    0.0227 C   0  0  0  0  0  0  0  0  0  0  0  0
   -3.3012   -2.1521    1.2398 H   0  0  0  0  0  0  0  0  0  0  0  0
   -2.5693   -0.8292    2.1627 H   0  0  0  0  0  0  0  0  0  0  0  0
   -4.0939   -0.5636    1.3161 H   0  0  0  0  0  0  0  0  0  0  0  0
   -2.5702   -0.6954   -2.1598 H   0  0  0  0  0  0  0  0  0  0  0  0
   -3.2193   -2.1157   -1.3236 H   0  0  0  0  0  0  0  0  0  0  0  0
   -5.0073   -0.8511   -0.7817 H   0  0  0  0  0  0  0  0  0  0  0  0
   -0.7032   -1.8904    0.7914 H   0  0  0  0  0  0  0  0  0  0  0  0
   -0.7068   -1.7688   -0.9604 H   0  0  0  0  0  0  0  0  0  0  0  0
   -0.3977    2.2092    0.0668 H   0  0  0  0  0  0  0  0  0  0  0  0
   -2.9414    1.5560    0.0153 H   0  0  0  0  0  0  0  0  0  0  0  0
  1  2  1  0
  2  3  1  0
  3  4  1  0
  2  5  1  0
  5  6  1  0
  6  7  2  0
  6  8  1  0
  8  9  2  0
  9  2  1  0
  1 10  1  0
  1 11  1  0
  1 12  1  0
  3 13  1  0
  3 14  1  0
  4 15  1  0
  5 16  1  0
  5 17  1  0
  8 18  1  0
  9 19  1  0
M  END
$$$$
