gdb 4642	5.8185229	0.5478245	0.5226891	0.4736	80.71	-0.24869	0.02647	0.27516	2064.7785	0.155769	-422.494979	-422.48488	-422.483936	-422.533944	33.875
 OpenBabel02181911413D

 19 19  0  0  0  0  0  0  0  0999 V2000
   -4.7036    1.0017   -3.9934 O   0  0  0  0  0  0  0  0  0  0  0  0
   -4.3361    0.6246   -2.6733 C   0  0  0  0  0  0  0  0  0  0  0  0
   -2.9895    1.0559   -2.2968 C   0  0  0  0  0  0  0  0  0  0  0  0
   -1.8639    1.4023   -2.0405 C   0  0  0  0  0  0  0  0  0  0  0  0
   -0.5116    1.8140   -1.6786 C   0  0  0  0  0  0  0  0  0  0  0  0
   -0.1421    1.4148   -0.2440 C   0  0  0  0  0  0  0  0  0  0  0  0
    1.3503    1.5587    0.1282 C   0  0  0  0  0  0  0  0  0  0  0  0
    1.5060    0.1315    0.2503 O   0  0  0  0  0  0  0  0  0  0  0  0
    0.1014   -0.0903    0.0015 C   0  0  0  0  0  0  0  0  0  0  0  0
   -4.0024    0.7042   -4.5824 H   0  0  0  0  0  0  0  0  0  0  0  0
   -5.0795    1.0887   -2.0155 H   0  0  0  0  0  0  0  0  0  0  0  0
   -4.4234   -0.4645   -2.5294 H   0  0  0  0  0  0  0  0  0  0  0  0
    0.2122    1.3649   -2.3724 H   0  0  0  0  0  0  0  0  0  0  0  0
   -0.4098    2.9017   -1.7903 H   0  0  0  0  0  0  0  0  0  0  0  0
   -0.8349    1.8799    0.4598 H   0  0  0  0  0  0  0  0  0  0  0  0
    1.9988    1.9806   -0.6513 H   0  0  0  0  0  0  0  0  0  0  0  0
    1.5521    2.0772    1.0742 H   0  0  0  0  0  0  0  0  0  0  0  0
   -0.0686   -0.7463   -0.8614 H   0  0  0  0  0  0  0  0  0  0  0  0
   -0.4071   -0.5150    0.8759 H   0  0  0  0  0  0  0  0  0  0  0  0
  1  2  1  0  0  0  0
  2 12  1  0  0  0  0
  2  3  1  0  0  0  0
  2 11  1  0  0  0  0
  3  4  3  0  0  0  0
  4  5  1  0  0  0  0
  5  6  1  0  0  0  0
  6  9  1  0  0  0  0
  6  7  1  0  0  0  0
  6 15  1  0  0  0  0
  7  8  1  0  0  0  0
  7 17  1  0  0  0  0
  9  8  1  0  0  0  0
  9 19  1  0  0  0  0
 10  1  1  0  0  0  0
 13  5  1  0  0  0  0
 14  5  1  0  0  0  0
 16  7  1  0  0  0  0
 18  9  1  0  0  0  0
M TOR 0 0 1 2 3
M TOR 1 1 2 3 4
M TOR 2 2 1 0 9
M TOR 3 2 3 4 5
M TOR 4 2 3 4 12
M TOR 5 2 3 4 13
M TOR 6 3 2 1 10
M TOR 7 3 2 1 11
M TOR 8 3 4 5 6
M TOR 9 3 4 5 8
M TOR 10 3 4 5 14
M TOR 11 4 5 6 7
M TOR 12 4 5 6 15
M TOR 13 4 5 6 16
M TOR 14 4 5 8 7
M TOR 15 4 5 8 17
M TOR 16 4 5 8 18
M TOR 17 5 6 7 8
M TOR 18 6 5 4 12
M TOR 19 6 5 4 13
M TOR 20 6 5 8 17
M TOR 21 6 5 8 18
M TOR 22 6 7 8 17
M TOR 23 6 7 8 18
M TOR 24 7 6 5 14
M TOR 25 7 8 5 14
M TOR 26 8 5 4 12
M TOR 27 8 5 4 13
M TOR 28 8 5 6 15
M TOR 29 8 5 6 16
M TOR 30 8 7 6 15
M TOR 31 8 7 6 16
M  END
$$$$
