
     RDKit          3D

 19 20  0  0  0  0  0  0  0  0999 V2000
   -4.5538    1.5020    2.7193 O   0  0  0  0  0  0  0  0  0  0  0  0
   -3.7064    1.7602    1.6425 C   0  0  0  0  0  0  0  0  0  0  0  0
   -2.3032    1.2516    1.7641 C   0  0  0  0  0  0  0  0  0  0  0  0
   -1.1426    2.0755    1.2082 C   0  0  0  0  0  0  0  0  0  0  0  0
   -0.6490    1.5846   -0.1651 C   0  0  0  0  0  0  0  0  0  0  0  0
    0.2075    0.4411   -0.0507 O   0  0  0  0  0  0  0  0  0  0  0  0
   -1.7940    1.2858   -1.1096 C   0  0  0  0  0  0  0  0  0  0  0  0
   -2.9635    0.8075   -0.6761 C   0  0  0  0  0  0  0  0  0  0  0  0
   -3.2529    0.6065    0.7631 C   0  0  0  0  0  0  0  0  0  0  0  0
   -5.4480    1.3929    2.3781 H   0  0  0  0  0  0  0  0  0  0  0  0
   -3.8405    2.7285    1.1567 H   0  0  0  0  0  0  0  0  0  0  0  0
   -2.1148    0.6804    2.6666 H   0  0  0  0  0  0  0  0  0  0  0  0
   -1.4434    3.1253    1.1081 H   0  0  0  0  0  0  0  0  0  0  0  0
   -0.2941    2.0523    1.8979 H   0  0  0  0  0  0  0  0  0  0  0  0
   -0.0054    2.3587   -0.5961 H   0  0  0  0  0  0  0  0  0  0  0  0
   -0.3619   -0.3200    0.1053 H   0  0  0  0  0  0  0  0  0  0  0  0
   -1.6055    1.3996   -2.1732 H   0  0  0  0  0  0  0  0  0  0  0  0
   -3.7442    0.5438   -1.3870 H   0  0  0  0  0  0  0  0  0  0  0  0
   -3.6802   -0.3531    1.0437 H   0  0  0  0  0  0  0  0  0  0  0  0
  1  2  1  0
  2  3  1  0
  3  4  1  0
  4  5  1  0
  5  6  1  0
  5  7  1  0
  7  8  2  0
  8  9  1  0
  9  2  1  0
  9  3  1  0
  1 10  1  0
  2 11  1  0
  3 12  1  0
  4 13  1  0
  4 14  1  0
  5 15  1  0
  6 16  1  0
  7 17  1  0
  8 18  1  0
  9 19  1  0
M  END
$$$$
