
     RDKit          3D

 19 20  0  0  0  0  0  0  0  0999 V2000
   -3.0192    0.2260    3.9626 O   0  0  0  0  0  0  0  0  0  0  0  0
   -2.4041   -0.0727    2.7428 C   0  0  0  0  0  0  0  0  0  0  0  0
   -1.2639   -1.0534    2.6968 C   0  0  0  0  0  0  0  0  0  0  0  0
   -1.0029    0.4328    2.5537 C   0  0  0  0  0  0  0  0  0  0  0  0
   -0.3142    1.2399    3.6604 C   0  0  0  0  0  0  0  0  0  0  0  0
    0.4756    2.2661    2.8889 C   0  0  0  0  0  0  0  0  0  0  0  0
    0.3270    2.1537    1.5700 C   0  0  0  0  0  0  0  0  0  0  0  0
   -0.5656    0.9995    1.1835 C   0  0  0  0  0  0  0  0  0  0  0  0
    0.0789    0.0591    0.3246 O   0  0  0  0  0  0  0  0  0  0  0  0
   -3.5288   -0.5433    4.2368 H   0  0  0  0  0  0  0  0  0  0  0  0
   -3.0664   -0.0280    1.8768 H   0  0  0  0  0  0  0  0  0  0  0  0
   -0.9751   -1.5161    3.6358 H   0  0  0  0  0  0  0  0  0  0  0  0
   -1.1436   -1.6688    1.8118 H   0  0  0  0  0  0  0  0  0  0  0  0
   -1.0481    1.7031    4.3296 H   0  0  0  0  0  0  0  0  0  0  0  0
    0.3350    0.6262    4.2992 H   0  0  0  0  0  0  0  0  0  0  0  0
    1.0840    3.0146    3.3860 H   0  0  0  0  0  0  0  0  0  0  0  0
    0.7926    2.7813    0.8185 H   0  0  0  0  0  0  0  0  0  0  0  0
   -1.4318    1.3284    0.5964 H   0  0  0  0  0  0  0  0  0  0  0  0
    0.8922   -0.2133    0.7651 H   0  0  0  0  0  0  0  0  0  0  0  0
  1  2  1  0
  2  3  1  0
  3  4  1  0
  4  5  1  0
  5  6  1  0
  6  7  2  0
  7  8  1  0
  8  9  1  0
  4  2  1  0
  8  4  1  0
  1 10  1  0
  2 11  1  0
  3 12  1  0
  3 13  1  0
  5 14  1  0
  5 15  1  0
  6 16  1  0
  7 17  1  0
  8 18  1  0
  9 19  1  0
M  END
$$$$
