
     RDKit          3D

 19 19  0  0  0  0  0  0  0  0999 V2000
   -2.3519   -1.4046    3.3861 C   0  0  0  0  0  0  0  0  0  0  0  0
   -1.9914    0.0751    3.3075 C   0  0  0  0  0  0  0  0  0  0  0  0
   -2.6815    0.8630    4.2731 O   0  0  0  0  0  0  0  0  0  0  0  0
   -0.4881    0.3039    3.4474 C   0  0  0  0  0  0  0  0  0  0  0  0
    0.0426    1.6988    3.0703 C   0  0  0  0  0  0  0  0  0  0  0  0
    0.8389    0.9471    1.9682 C   0  0  0  0  0  0  0  0  0  0  0  0
    0.2648   -0.3233    2.3795 O   0  0  0  0  0  0  0  0  0  0  0  0
    0.5552    1.2884    0.5845 C   0  0  0  0  0  0  0  0  0  0  0  0
    0.3208    1.5857   -0.5565 C   0  0  0  0  0  0  0  0  0  0  0  0
   -2.0759   -1.8200    4.3643 H   0  0  0  0  0  0  0  0  0  0  0  0
   -3.4265   -1.5463    3.2439 H   0  0  0  0  0  0  0  0  0  0  0  0
   -1.8125   -1.9670    2.6191 H   0  0  0  0  0  0  0  0  0  0  0  0
   -2.3038    0.4753    2.3356 H   0  0  0  0  0  0  0  0  0  0  0  0
   -2.5519    0.4509    5.1347 H   0  0  0  0  0  0  0  0  0  0  0  0
   -0.1511   -0.0630    4.4294 H   0  0  0  0  0  0  0  0  0  0  0  0
   -0.7159    2.3877    2.6992 H   0  0  0  0  0  0  0  0  0  0  0  0
    0.6586    2.1985    3.8177 H   0  0  0  0  0  0  0  0  0  0  0  0
    1.9238    0.9439    2.1329 H   0  0  0  0  0  0  0  0  0  0  0  0
    0.1152    1.8430   -1.5663 H   0  0  0  0  0  0  0  0  0  0  0  0
  1  2  1  0
  2  3  1  0
  2  4  1  0
  4  5  1  0
  5  6  1  0
  6  7  1  0
  6  8  1  0
  8  9  3  0
  7  4  1  0
  1 10  1  0
  1 11  1  0
  1 12  1  0
  2 13  1  0
  3 14  1  0
  4 15  1  0
  5 16  1  0
  5 17  1  0
  6 18  1  0
  9 19  1  0
M  END
$$$$
