gdb 1215	3.03932	1.0326579	0.93187	1.9668	80.03	-0.27099	-0.03728	0.23371	1348.1646	0.152344	-422.559917	-422.549452	-422.548507	-422.595005	37.985
 OpenBabel02181911403D

 19 18  0  0  0  0  0  0  0  0999 V2000
    1.6284    0.7488    2.1777 C   0  0  0  0  0  0  0  0  0  0  0  0
    0.6182    0.0851    1.2376 C   0  0  0  0  0  0  0  0  0  0  0  0
    0.3316    0.9755    0.0278 C   0  0  0  0  0  0  0  0  0  0  0  0
   -0.6797   -0.2983    1.9538 C   0  0  0  0  0  0  0  0  0  0  0  0
    1.2209   -1.1105    0.6172 O   0  0  0  0  0  0  0  0  0  0  0  0
    1.6214   -2.1507    1.3569 C   0  0  0  0  0  0  0  0  0  0  0  0
    1.5542   -2.2585    2.5582 O   0  0  0  0  0  0  0  0  0  0  0  0
    2.1735   -3.1850    0.5012 C   0  0  0  0  0  0  0  0  0  0  0  0
    2.6411   -4.0753   -0.1564 C   0  0  0  0  0  0  0  0  0  0  0  0
    1.8405    0.1176    3.0405 H   0  0  0  0  0  0  0  0  0  0  0  0
    2.5637    0.9542    1.6484 H   0  0  0  0  0  0  0  0  0  0  0  0
    1.2220    1.7018    2.5302 H   0  0  0  0  0  0  0  0  0  0  0  0
   -0.3528    0.4779   -0.6646 H   0  0  0  0  0  0  0  0  0  0  0  0
   -0.1258    1.9139    0.3540 H   0  0  0  0  0  0  0  0  0  0  0  0
    1.2556    1.2077   -0.5086 H   0  0  0  0  0  0  0  0  0  0  0  0
   -0.4832   -0.9366    2.8150 H   0  0  0  0  0  0  0  0  0  0  0  0
   -1.1851    0.6098    2.2967 H   0  0  0  0  0  0  0  0  0  0  0  0
   -1.3526   -0.8225    1.2685 H   0  0  0  0  0  0  0  0  0  0  0  0
    3.0550   -4.8630   -0.7372 H   0  0  0  0  0  0  0  0  0  0  0  0
  1 12  1  0  0  0  0
  1 10  1  0  0  0  0
  2  4  1  0  0  0  0
  2  1  1  0  0  0  0
  3 14  1  0  0  0  0
  3  2  1  0  0  0  0
  4 17  1  0  0  0  0
  4 16  1  0  0  0  0
  5  2  1  0  0  0  0
  5  6  1  0  0  0  0
  6  7  2  0  0  0  0
  8  6  1  0  0  0  0
  9  8  3  0  0  0  0
 11  1  1  0  0  0  0
 13  3  1  0  0  0  0
 15  3  1  0  0  0  0
 18  4  1  0  0  0  0
 19  9  1  0  0  0  0
M TOR 0 0 1 2 12
M TOR 1 0 1 2 13
M TOR 2 0 1 2 14
M TOR 3 0 1 3 15
M TOR 4 0 1 3 16
M TOR 5 0 1 3 17
M TOR 6 0 1 4 5
M TOR 7 1 4 5 6
M TOR 8 1 4 5 7
M TOR 9 2 1 0 9
M TOR 10 2 1 0 10
M TOR 11 2 1 0 11
M TOR 12 2 1 3 15
M TOR 13 2 1 3 16
M TOR 14 2 1 3 17
M TOR 15 2 1 4 5
M TOR 16 3 1 0 9
M TOR 17 3 1 0 10
M TOR 18 3 1 0 11
M TOR 19 3 1 2 12
M TOR 20 3 1 2 13
M TOR 21 3 1 2 14
M TOR 22 3 1 4 5
M TOR 23 4 1 0 9
M TOR 24 4 1 0 10
M TOR 25 4 1 0 11
M TOR 26 4 1 2 12
M TOR 27 4 1 2 13
M TOR 28 4 1 2 14
M TOR 29 4 1 3 15
M TOR 30 4 1 3 16
M TOR 31 4 1 3 17
M TOR 32 4 5 7 8
M TOR 33 5 7 8 18
M TOR 34 6 5 7 8
M  END
$$$$
