
     RDKit          3D

 19 19  0  0  0  0  0  0  0  0999 V2000
    1.2858    1.0268    0.3221 C   0  0  0  0  0  0  0  0  0  0  0  0
    0.9348   -0.4439    0.0805 C   0  0  0  0  0  0  0  0  0  0  0  0
    1.6902   -1.0208   -1.1053 C   0  0  0  0  0  0  0  0  0  0  0  0
    1.3669   -0.3507   -2.3547 O   0  0  0  0  0  0  0  0  0  0  0  0
    0.7231   -1.5290   -2.9007 C   0  0  0  0  0  0  0  0  0  0  0  0
   -0.7079   -1.3754   -3.1001 C   0  0  0  0  0  0  0  0  0  0  0  0
   -1.8861   -1.2396   -3.2934 C   0  0  0  0  0  0  0  0  0  0  0  0
    1.1823   -2.3733   -1.6776 C   0  0  0  0  0  0  0  0  0  0  0  0
    0.1434   -3.0415   -1.0176 O   0  0  0  0  0  0  0  0  0  0  0  0
    0.7057    1.4389    1.1530 H   0  0  0  0  0  0  0  0  0  0  0  0
    2.3483    1.1505    0.5609 H   0  0  0  0  0  0  0  0  0  0  0  0
    1.0717    1.6189   -0.5719 H   0  0  0  0  0  0  0  0  0  0  0  0
    1.1741   -1.0452    0.9682 H   0  0  0  0  0  0  0  0  0  0  0  0
   -0.1393   -0.5580   -0.0953 H   0  0  0  0  0  0  0  0  0  0  0  0
    2.7741   -0.9796   -0.9291 H   0  0  0  0  0  0  0  0  0  0  0  0
    1.1964   -1.8232   -3.8457 H   0  0  0  0  0  0  0  0  0  0  0  0
   -2.9293   -1.1218   -3.4540 H   0  0  0  0  0  0  0  0  0  0  0  0
    1.9975   -3.0569   -1.9424 H   0  0  0  0  0  0  0  0  0  0  0  0
    0.5259   -3.6318   -0.3616 H   0  0  0  0  0  0  0  0  0  0  0  0
  1  2  1  0
  2  3  1  0
  3  4  1  0
  4  5  1  0
  5  6  1  0
  6  7  3  0
  5  8  1  0
  8  9  1  0
  8  3  1  0
  1 10  1  0
  1 11  1  0
  1 12  1  0
  2 13  1  0
  2 14  1  0
  3 15  1  0
  5 16  1  0
  7 17  1  0
  8 18  1  0
  9 19  1  0
M  END
$$$$
