gdb 1966	3.1304265	1.6251548	1.4497017	3.1611	73.48	-0.24429	0.07419	0.31848	979.3327	0.158031	-422.534544	-422.527183	-422.526239	-422.56582	29.785
 OpenBabel02181911403D

 19 21  0  0  1  0  0  0  0  0999 V2000
    0.0639    0.3309    0.1478 C   0  0  0  0  0  0  0  0  0  0  0  0
    1.5533    0.0973    0.0803 C   0  0  2  0  0  0  0  0  0  0  0  0
    2.2104   -0.6007    1.2775 C   0  0  0  0  0  0  0  0  0  0  0  0
    3.6601   -0.1297    1.4398 C   0  0  2  0  0  0  0  0  0  0  0  0
    3.8082    1.4075    1.3200 C   0  0  0  0  0  0  0  0  0  0  0  0
    3.8793    1.0504   -0.1821 C   0  0  1  0  0  0  0  0  0  0  0  0
    4.3418   -0.2751    0.1619 O   0  0  0  0  0  0  0  0  0  0  0  0
    2.4480    0.9572   -0.7144 C   0  0  1  0  0  0  0  0  0  0  0  0
    2.0399   -0.3120   -1.2124 O   0  0  0  0  0  0  0  0  0  0  0  0
   -0.1977    0.9668    1.0005 H   0  0  0  0  0  0  0  0  0  0  0  0
   -0.2904    0.8088   -0.7690 H   0  0  0  0  0  0  0  0  0  0  0  0
   -0.4698   -0.6194    0.2646 H   0  0  0  0  0  0  0  0  0  0  0  0
    1.6443   -0.3778    2.1901 H   0  0  0  0  0  0  0  0  0  0  0  0
    2.1855   -1.6866    1.1325 H   0  0  0  0  0  0  0  0  0  0  0  0
    4.1843   -0.6458    2.2485 H   0  0  0  0  0  0  0  0  0  0  0  0
    2.9932    2.0476    1.6672 H   0  0  0  0  0  0  0  0  0  0  0  0
    4.7654    1.7542    1.7117 H   0  0  0  0  0  0  0  0  0  0  0  0
    4.5685    1.5753   -0.8480 H   0  0  0  0  0  0  0  0  0  0  0  0
    2.0567    1.8259   -1.2450 H   0  0  0  0  0  0  0  0  0  0  0  0
  1 12  1  0  0  0  0
  1 10  1  0  0  0  0
  2  1  1  1  0  0  0
  2  3  1  0  0  0  0
  3  4  1  0  0  0  0
  3 13  1  0  0  0  0
  4 15  1  1  0  0  0
  5  4  1  0  0  0  0
  5 16  1  0  0  0  0
  5 17  1  0  0  0  0
  6 18  1  6  0  0  0
  6  7  1  0  0  0  0
  6  5  1  0  0  0  0
  7  4  1  0  0  0  0
  8 19  1  6  0  0  0
  8  6  1  0  0  0  0
  8  2  1  0  0  0  0
  9  8  1  0  0  0  0
  9  2  1  0  0  0  0
 11  1  1  0  0  0  0
 14  3  1  0  0  0  0
M TOR 0 0 1 2 3
M TOR 1 0 1 2 12
M TOR 2 0 1 2 13
M TOR 3 0 1 7 5
M TOR 4 0 1 7 8
M TOR 5 0 1 7 18
M TOR 6 1 2 3 4
M TOR 7 1 2 3 6
M TOR 8 1 2 3 14
M TOR 9 1 7 5 4
M TOR 10 1 7 5 6
M TOR 11 1 7 5 17
M TOR 12 1 8 7 5
M TOR 13 1 8 7 18
M TOR 14 2 1 0 9
M TOR 15 2 1 0 10
M TOR 16 2 1 0 11
M TOR 17 2 1 7 5
M TOR 18 2 1 7 8
M TOR 19 2 1 7 18
M TOR 20 2 3 4 5
M TOR 21 2 3 4 15
M TOR 22 2 3 4 16
M TOR 23 2 3 6 5
M TOR 24 3 2 1 7
M TOR 25 3 2 1 8
M TOR 26 3 4 5 6
M TOR 27 3 4 5 7
M TOR 28 3 4 5 17
M TOR 29 3 6 5 7
M TOR 30 3 6 5 17
M TOR 31 4 3 2 12
M TOR 32 4 3 2 13
M TOR 33 4 5 7 8
M TOR 34 4 5 7 18
M TOR 35 5 4 3 14
M TOR 36 5 6 3 14
M TOR 37 6 3 2 12
M TOR 38 6 3 2 13
M TOR 39 6 3 4 15
M TOR 40 6 3 4 16
M TOR 41 6 5 4 15
M TOR 42 6 5 4 16
M TOR 43 6 5 7 8
M TOR 44 6 5 7 18
M TOR 45 7 1 0 9
M TOR 46 7 1 0 10
M TOR 47 7 1 0 11
M TOR 48 7 1 2 12
M TOR 49 7 1 2 13
M TOR 50 7 5 4 15
M TOR 51 7 5 4 16
M TOR 52 8 1 0 9
M TOR 53 8 1 0 10
M TOR 54 8 1 0 11
M TOR 55 8 1 2 12
M TOR 56 8 1 2 13
M TOR 57 8 7 5 17
M  END
$$$$
