
     RDKit          3D

 19 19  0  0  0  0  0  0  0  0999 V2000
   -0.8618    3.8194   -2.1334 C   0  0  0  0  0  0  0  0  0  0  0  0
   -1.7692    2.6811   -1.6569 C   0  0  0  0  0  0  0  0  0  0  0  0
   -3.1066    3.1112   -1.0929 C   0  0  0  0  0  0  0  0  0  0  0  0
   -3.4323    2.4420    0.0119 C   0  0  0  0  0  0  0  0  0  0  0  0
   -2.3750    1.4347    0.3960 C   0  0  0  0  0  0  0  0  0  0  0  0
   -1.1816    1.8650   -0.4848 C   0  0  0  0  0  0  0  0  0  0  0  0
   -0.4209    0.7564   -1.0171 O   0  0  0  0  0  0  0  0  0  0  0  0
    0.4402    0.1677   -0.1786 C   0  0  0  0  0  0  0  0  0  0  0  0
    0.6239    0.4570    0.9726 O   0  0  0  0  0  0  0  0  0  0  0  0
   -0.6749    4.5364   -1.3267 H   0  0  0  0  0  0  0  0  0  0  0  0
    0.1031    3.4297   -2.4737 H   0  0  0  0  0  0  0  0  0  0  0  0
   -1.3156    4.3633   -2.9680 H   0  0  0  0  0  0  0  0  0  0  0  0
   -1.9331    1.9946   -2.5010 H   0  0  0  0  0  0  0  0  0  0  0  0
   -3.7195    3.8633   -1.5778 H   0  0  0  0  0  0  0  0  0  0  0  0
   -4.3542    2.5609    0.5699 H   0  0  0  0  0  0  0  0  0  0  0  0
   -2.1214    1.4343    1.4596 H   0  0  0  0  0  0  0  0  0  0  0  0
   -2.6869    0.4118    0.1424 H   0  0  0  0  0  0  0  0  0  0  0  0
   -0.4983    2.4831    0.1041 H   0  0  0  0  0  0  0  0  0  0  0  0
    0.9649   -0.6360   -0.7188 H   0  0  0  0  0  0  0  0  0  0  0  0
  1  2  1  0
  2  3  1  0
  3  4  2  0
  4  5  1  0
  5  6  1  0
  6  7  1  0
  7  8  1  0
  8  9  2  0
  6  2  1  0
  1 10  1  0
  1 11  1  0
  1 12  1  0
  2 13  1  0
  3 14  1  0
  4 15  1  0
  5 16  1  0
  5 17  1  0
  6 18  1  0
  8 19  1  0
M  END
$$$$
