
     RDKit          3D

 19 20  0  0  0  0  0  0  0  0999 V2000
    1.0101    3.1074   -1.0845 O   0  0  0  0  0  0  0  0  0  0  0  0
   -0.2618    3.1714   -0.5223 C   0  0  0  0  0  0  0  0  0  0  0  0
   -1.3866    3.2630   -1.5082 C   0  0  0  0  0  0  0  0  0  0  0  0
   -2.7069    3.4821   -0.7644 C   0  0  0  0  0  0  0  0  0  0  0  0
   -2.4595    2.1629    0.0425 C   0  0  0  0  0  0  0  0  0  0  0  0
   -1.1431    1.9604   -0.7199 C   0  0  0  0  0  0  0  0  0  0  0  0
   -0.5757    0.6379   -1.1777 C   0  0  0  0  0  0  0  0  0  0  0  0
    0.4115    0.0127   -0.2073 C   0  0  0  0  0  0  0  0  0  0  0  0
    1.2956    0.6253    0.3458 O   0  0  0  0  0  0  0  0  0  0  0  0
    1.4888    2.4392   -0.5694 H   0  0  0  0  0  0  0  0  0  0  0  0
   -0.3283    3.7303    0.4168 H   0  0  0  0  0  0  0  0  0  0  0  0
   -1.1815    3.4772   -2.5503 H   0  0  0  0  0  0  0  0  0  0  0  0
   -2.7758    4.4057   -0.1802 H   0  0  0  0  0  0  0  0  0  0  0  0
   -3.5838    3.4128   -1.4111 H   0  0  0  0  0  0  0  0  0  0  0  0
   -2.3754    2.2583    1.1310 H   0  0  0  0  0  0  0  0  0  0  0  0
   -3.2063    1.3960   -0.1812 H   0  0  0  0  0  0  0  0  0  0  0  0
   -1.3726   -0.0797   -1.4021 H   0  0  0  0  0  0  0  0  0  0  0  0
   -0.0121    0.7868   -2.1091 H   0  0  0  0  0  0  0  0  0  0  0  0
    0.3097   -1.0813   -0.0393 H   0  0  0  0  0  0  0  0  0  0  0  0
  1  2  1  0
  2  3  1  0
  3  4  1  0
  4  5  1  0
  5  6  1  0
  6  7  1  0
  7  8  1  0
  8  9  2  0
  6  2  1  0
  6  3  1  0
  1 10  1  0
  2 11  1  0
  3 12  1  0
  4 13  1  0
  4 14  1  0
  5 15  1  0
  5 16  1  0
  7 17  1  0
  7 18  1  0
  8 19  1  0
M  END
$$$$
