
     RDKit          3D

 19 21  0  0  0  0  0  0  0  0999 V2000
    1.4911    0.1805   -0.1448 C   0  0  0  0  0  0  0  0  0  0  0  0
    1.2543    1.7063    0.0309 C   0  0  0  0  0  0  0  0  0  0  0  0
    1.4271    2.2289    1.4672 C   0  0  0  0  0  0  0  0  0  0  0  0
    0.1120    1.7930    2.1384 C   0  0  0  0  0  0  0  0  0  0  0  0
   -0.8714    2.0052    1.1489 O   0  0  0  0  0  0  0  0  0  0  0  0
   -0.2889    1.4530   -0.0278 C   0  0  0  0  0  0  0  0  0  0  0  0
   -0.0187   -0.0787    0.1228 C   0  0  0  0  0  0  0  0  0  0  0  0
   -0.3633   -0.4801    1.5567 C   0  0  0  0  0  0  0  0  0  0  0  0
    0.1819    0.4215    2.5191 O   0  0  0  0  0  0  0  0  0  0  0  0
    1.7807   -0.0810   -1.1655 H   0  0  0  0  0  0  0  0  0  0  0  0
    2.1966   -0.2847    0.5494 H   0  0  0  0  0  0  0  0  0  0  0  0
    1.7020    2.3608   -0.7173 H   0  0  0  0  0  0  0  0  0  0  0  0
    2.2980    1.8213    1.9848 H   0  0  0  0  0  0  0  0  0  0  0  0
    1.4897    3.3214    1.4742 H   0  0  0  0  0  0  0  0  0  0  0  0
   -0.1620    2.3654    3.0280 H   0  0  0  0  0  0  0  0  0  0  0  0
   -0.8596    1.7869   -0.8936 H   0  0  0  0  0  0  0  0  0  0  0  0
   -0.5270   -0.7436   -0.5808 H   0  0  0  0  0  0  0  0  0  0  0  0
   -1.4561   -0.5277    1.6632 H   0  0  0  0  0  0  0  0  0  0  0  0
    0.0460   -1.4647    1.8044 H   0  0  0  0  0  0  0  0  0  0  0  0
  1  2  1  0
  2  3  1  0
  3  4  1  0
  4  5  1  0
  5  6  1  0
  6  7  1  0
  7  8  1  0
  8  9  1  0
  7  1  1  0
  6  2  1  0
  9  4  1  0
  1 10  1  0
  1 11  1  0
  2 12  1  0
  3 13  1  0
  3 14  1  0
  4 15  1  0
  6 16  1  0
  7 17  1  0
  8 18  1  0
  8 19  1  0
M  END
$$$$
