
     RDKit          3D

 19 21  0  0  0  0  0  0  0  0999 V2000
   -0.0000   -4.0041    0.6283 C   0  0  0  0  0  0  0  0  0  0  0  0
    0.2651   -2.7363   -0.1397 C   0  0  0  0  0  0  0  0  0  0  0  0
    1.5275   -2.4406   -0.9744 C   0  0  0  0  0  0  0  0  0  0  0  0
    0.6771   -1.2997   -1.5921 C   0  0  0  0  0  0  0  0  0  0  0  0
   -0.6186   -2.1856   -1.2864 C   0  0  0  0  0  0  0  0  0  0  0  0
   -1.4874   -1.4743   -0.3890 O   0  0  0  0  0  0  0  0  0  0  0  0
   -0.2886   -1.3651    0.4351 C   0  0  0  0  0  0  0  0  0  0  0  0
    0.5184   -0.3394   -0.4003 C   0  0  0  0  0  0  0  0  0  0  0  0
    1.7692    0.0613    0.1196 O   0  0  0  0  0  0  0  0  0  0  0  0
    0.6440   -4.0732    1.5126 H   0  0  0  0  0  0  0  0  0  0  0  0
   -1.0413   -4.0415    0.9654 H   0  0  0  0  0  0  0  0  0  0  0  0
    0.1891   -4.8887    0.0107 H   0  0  0  0  0  0  0  0  0  0  0  0
    2.4574   -2.1649   -0.4775 H   0  0  0  0  0  0  0  0  0  0  0  0
    1.7043   -3.2524   -1.6871 H   0  0  0  0  0  0  0  0  0  0  0  0
    0.8913   -0.8764   -2.5712 H   0  0  0  0  0  0  0  0  0  0  0  0
   -1.1084   -2.7538   -2.0765 H   0  0  0  0  0  0  0  0  0  0  0  0
   -0.4842   -1.1829    1.4930 H   0  0  0  0  0  0  0  0  0  0  0  0
   -0.1189    0.5217   -0.6348 H   0  0  0  0  0  0  0  0  0  0  0  0
    1.6046    0.6548    0.8586 H   0  0  0  0  0  0  0  0  0  0  0  0
  1  2  1  0
  2  3  1  0
  3  4  1  0
  4  5  1  0
  5  6  1  0
  6  7  1  0
  7  8  1  0
  8  9  1  0
  5  2  1  0
  7  2  1  0
  8  4  1  0
  1 10  1  0
  1 11  1  0
  1 12  1  0
  3 13  1  0
  3 14  1  0
  4 15  1  0
  5 16  1  0
  7 17  1  0
  8 18  1  0
  9 19  1  0
M  END
$$$$
