
     RDKit          3D

 19 20  0  0  0  0  0  0  0  0999 V2000
   -0.8307    2.3690    0.7728 C   0  0  0  0  0  0  0  0  0  0  0  0
   -1.0649    1.0662    0.0354 C   0  0  0  0  0  0  0  0  0  0  0  0
   -1.9604   -0.0725    0.6414 C   0  0  0  0  0  0  0  0  0  0  0  0
   -1.0492   -1.0944   -0.1026 C   0  0  0  0  0  0  0  0  0  0  0  0
   -1.3837   -1.2314   -1.4821 O   0  0  0  0  0  0  0  0  0  0  0  0
   -2.0098   -0.0732   -2.0354 C   0  0  0  0  0  0  0  0  0  0  0  0
   -1.4656    1.2483   -1.4563 C   0  0  0  0  0  0  0  0  0  0  0  0
    0.0446   -0.0057    0.0268 C   0  0  0  0  0  0  0  0  0  0  0  0
    1.2281    0.0133    0.1995 O   0  0  0  0  0  0  0  0  0  0  0  0
   -0.5069    2.1856    1.8019 H   0  0  0  0  0  0  0  0  0  0  0  0
   -0.0490    2.9561    0.2794 H   0  0  0  0  0  0  0  0  0  0  0  0
   -1.7412    2.9773    0.8026 H   0  0  0  0  0  0  0  0  0  0  0  0
   -1.8334   -0.1550    1.7241 H   0  0  0  0  0  0  0  0  0  0  0  0
   -3.0238   -0.0733    0.3973 H   0  0  0  0  0  0  0  0  0  0  0  0
   -0.8884   -2.0945    0.3014 H   0  0  0  0  0  0  0  0  0  0  0  0
   -1.8487   -0.1307   -3.1152 H   0  0  0  0  0  0  0  0  0  0  0  0
   -3.0939   -0.1298   -1.8662 H   0  0  0  0  0  0  0  0  0  0  0  0
   -0.5939    1.5991   -2.0194 H   0  0  0  0  0  0  0  0  0  0  0  0
   -2.2370    2.0238   -1.5411 H   0  0  0  0  0  0  0  0  0  0  0  0
  1  2  1  0
  2  3  1  0
  3  4  1  0
  4  5  1  0
  5  6  1  0
  6  7  1  0
  4  8  1  0
  8  9  2  0
  7  2  1  0
  8  2  1  0
  1 10  1  0
  1 11  1  0
  1 12  1  0
  3 13  1  0
  3 14  1  0
  4 15  1  0
  6 16  1  0
  6 17  1  0
  7 18  1  0
  7 19  1  0
M  END
$$$$
