gdb 4055	2.7433814	1.8710276	1.3753119	1.9544	74.39	-0.23646	0.05855	0.29501	978.7602	0.157292	-422.526383	-422.518651	-422.517707	-422.557999	31.057
 OpenBabel02181911413D

 19 21  0  0  1  0  0  0  0  0999 V2000
   -0.0950    0.0614   -0.1353 C   0  0  0  0  0  0  0  0  0  0  0  0
    1.4144   -0.0108    0.0235 C   0  0  1  0  0  0  0  0  0  0  0  0
    1.9810    1.2849    0.2982 O   0  0  0  0  0  0  0  0  0  0  0  0
    2.6631    1.0714    1.5172 C   0  0  2  0  0  0  0  0  0  0  0  0
    3.3877   -0.3050    1.5181 C   0  0  1  0  0  0  0  0  0  0  0  0
    3.1288   -0.4044    3.0396 C   0  0  0  0  0  0  0  0  0  0  0  0
    1.8152    0.1964    2.4847 C   0  0  2  0  0  0  0  0  0  0  0  0
    1.9104   -0.7802    1.2491 C   0  0  1  0  0  0  0  0  0  0  0  0
    1.5031   -2.1044    1.2695 O   0  0  0  0  0  0  0  0  0  0  0  0
   -0.5652    0.4535    0.7715 H   0  0  0  0  0  0  0  0  0  0  0  0
   -0.3594    0.7174   -0.9694 H   0  0  0  0  0  0  0  0  0  0  0  0
   -0.4974   -0.9364   -0.3334 H   0  0  0  0  0  0  0  0  0  0  0  0
    1.8702   -0.4136   -0.8915 H   0  0  0  0  0  0  0  0  0  0  0  0
    3.1626    1.9746    1.8620 H   0  0  0  0  0  0  0  0  0  0  0  0
    4.2812   -0.5830    0.9581 H   0  0  0  0  0  0  0  0  0  0  0  0
    3.0734   -1.4096    3.4699 H   0  0  0  0  0  0  0  0  0  0  0  0
    3.7308    0.2402    3.6859 H   0  0  0  0  0  0  0  0  0  0  0  0
    0.9203    0.4921    3.0326 H   0  0  0  0  0  0  0  0  0  0  0  0
    1.8409   -2.5273    2.0664 H   0  0  0  0  0  0  0  0  0  0  0  0
  1  2  1  0  0  0  0
  1 10  1  0  0  0  0
  2 13  1  6  0  0  0
  2  3  1  0  0  0  0
  2  8  1  0  0  0  0
  3  4  1  0  0  0  0
  4  5  1  0  0  0  0
  4 14  1  1  0  0  0
  4  7  1  0  0  0  0
  5 15  1  6  0  0  0
  5  6  1  0  0  0  0
  6 16  1  0  0  0  0
  6 17  1  0  0  0  0
  7 18  1  1  0  0  0
  7  6  1  0  0  0  0
  8  9  1  1  0  0  0
  8  5  1  0  0  0  0
  8  7  1  0  0  0  0
  9 19  1  0  0  0  0
 11  1  1  0  0  0  0
 12  1  1  0  0  0  0
M TOR 0 0 1 2 3
M TOR 1 0 1 7 4
M TOR 2 0 1 7 6
M TOR 3 0 1 7 8
M TOR 4 1 2 3 4
M TOR 5 1 2 3 6
M TOR 6 1 2 3 13
M TOR 7 1 7 4 3
M TOR 8 1 7 4 5
M TOR 9 1 7 4 14
M TOR 10 1 7 6 3
M TOR 11 1 7 6 5
M TOR 12 1 7 6 17
M TOR 13 1 7 8 18
M TOR 14 2 1 0 9
M TOR 15 2 1 0 10
M TOR 16 2 1 0 11
M TOR 17 2 1 7 4
M TOR 18 2 1 7 6
M TOR 19 2 1 7 8
M TOR 20 2 3 4 5
M TOR 21 2 3 4 7
M TOR 22 2 3 4 14
M TOR 23 2 3 6 5
M TOR 24 2 3 6 7
M TOR 25 2 3 6 17
M TOR 26 3 2 1 7
M TOR 27 3 2 1 12
M TOR 28 3 4 5 6
M TOR 29 3 4 5 15
M TOR 30 3 4 5 16
M TOR 31 3 4 7 6
M TOR 32 3 4 7 8
M TOR 33 3 6 5 15
M TOR 34 3 6 5 16
M TOR 35 3 6 7 8
M TOR 36 4 3 6 17
M TOR 37 4 5 6 7
M TOR 38 4 5 6 17
M TOR 39 4 7 1 12
M TOR 40 4 7 6 17
M TOR 41 4 7 8 18
M TOR 42 5 4 3 13
M TOR 43 5 4 7 8
M TOR 44 5 6 3 13
M TOR 45 5 6 7 8
M TOR 46 6 3 4 14
M TOR 47 6 5 4 14
M TOR 48 6 7 1 12
M TOR 49 6 7 4 14
M TOR 50 6 7 8 18
M TOR 51 7 1 0 9
M TOR 52 7 1 0 10
M TOR 53 7 1 0 11
M TOR 54 7 4 3 13
M TOR 55 7 4 5 15
M TOR 56 7 4 5 16
M TOR 57 7 6 3 13
M TOR 58 7 6 5 15
M TOR 59 7 6 5 16
M TOR 60 8 7 1 12
M TOR 61 8 7 4 14
M TOR 62 8 7 6 17
M  END
$$$$
