
     RDKit          3D

 19 20  0  0  0  0  0  0  0  0999 V2000
    1.3749   -0.2620   -0.3240 O   0  0  0  0  0  0  0  0  0  0  0  0
    0.1868   -0.2113   -0.1910 C   0  0  0  0  0  0  0  0  0  0  0  0
   -0.7729   -1.3400    0.1647 C   0  0  0  0  0  0  0  0  0  0  0  0
   -2.1768   -0.7688   -0.0642 C   0  0  0  0  0  0  0  0  0  0  0  0
   -2.8368   -1.1306   -1.4254 C   0  0  0  0  0  0  0  0  0  0  0  0
   -2.6190    0.0934   -2.3377 C   0  0  0  0  0  0  0  0  0  0  0  0
   -2.6858    1.2766   -1.3594 C   0  0  0  0  0  0  0  0  0  0  0  0
   -1.9290    0.7713   -0.1314 C   0  0  0  0  0  0  0  0  0  0  0  0
   -0.5126    0.9447   -0.3394 O   0  0  0  0  0  0  0  0  0  0  0  0
   -0.5406   -2.2236   -0.4337 H   0  0  0  0  0  0  0  0  0  0  0  0
   -0.5960   -1.6080    1.2117 H   0  0  0  0  0  0  0  0  0  0  0  0
   -2.8421   -1.0219    0.7628 H   0  0  0  0  0  0  0  0  0  0  0  0
   -2.4338   -2.0554   -1.8479 H   0  0  0  0  0  0  0  0  0  0  0  0
   -3.9100   -1.2905   -1.2764 H   0  0  0  0  0  0  0  0  0  0  0  0
   -1.6284    0.0553   -2.8041 H   0  0  0  0  0  0  0  0  0  0  0  0
   -3.3549    0.1591   -3.1428 H   0  0  0  0  0  0  0  0  0  0  0  0
   -2.2571    2.2047   -1.7443 H   0  0  0  0  0  0  0  0  0  0  0  0
   -3.7258    1.4774   -1.0746 H   0  0  0  0  0  0  0  0  0  0  0  0
   -2.1889    1.3033    0.7882 H   0  0  0  0  0  0  0  0  0  0  0  0
  1  2  2  0
  2  3  1  0
  3  4  1  0
  4  5  1  0
  5  6  1  0
  6  7  1  0
  7  8  1  0
  8  9  1  0
  9  2  1  0
  8  4  1  0
  3 10  1  0
  3 11  1  0
  4 12  1  0
  5 13  1  0
  5 14  1  0
  6 15  1  0
  6 16  1  0
  7 17  1  0
  7 18  1  0
  8 19  1  0
M  END
$$$$
