gdb 3262	2.5285608	2.074935	1.7700232	2.0032	72.68	-0.24151	0.0826	0.32411	877.5449	0.160835	-422.566805	-422.560284	-422.55934	-422.597216	27.894
 OpenBabel02181911413D

 19 21  0  0  1  0  0  0  0  0999 V2000
    0.4718    0.5069    0.8158 O   0  0  0  0  0  0  0  0  0  0  0  0
   -0.8267    0.9381    0.4760 C   0  0  1  0  0  0  0  0  0  0  0  0
   -1.8527   -0.2031    0.1558 C   0  0  1  0  0  0  0  0  0  0  0  0
   -1.7553   -1.3098    1.2324 C   0  0  0  0  0  0  0  0  0  0  0  0
   -2.5407   -0.3516    2.1515 C   0  0  1  0  0  0  0  0  0  0  0  0
   -1.6742    0.6727    2.6862 O   0  0  0  0  0  0  0  0  0  0  0  0
   -1.5465    1.6553    1.6368 C   0  0  2  0  0  0  0  0  0  0  0  0
   -2.9754    1.8199    1.1161 C   0  0  0  0  0  0  0  0  0  0  0  0
   -3.1528    0.3242    0.8787 C   0  0  1  0  0  0  0  0  0  0  0  0
    0.4255    0.2168    1.7356 H   0  0  0  0  0  0  0  0  0  0  0  0
   -0.7147    1.6049   -0.3853 H   0  0  0  0  0  0  0  0  0  0  0  0
   -1.8804   -0.4874   -0.8963 H   0  0  0  0  0  0  0  0  0  0  0  0
   -2.3581   -2.1836    0.9670 H   0  0  0  0  0  0  0  0  0  0  0  0
   -0.7653   -1.6401    1.5554 H   0  0  0  0  0  0  0  0  0  0  0  0
   -3.1578   -0.7397    2.9640 H   0  0  0  0  0  0  0  0  0  0  0  0
   -1.0313    2.5261    2.0428 H   0  0  0  0  0  0  0  0  0  0  0  0
   -3.6540    2.2298    1.8687 H   0  0  0  0  0  0  0  0  0  0  0  0
   -3.0320    2.4223    0.2049 H   0  0  0  0  0  0  0  0  0  0  0  0
   -4.1122   -0.0561    0.5334 H   0  0  0  0  0  0  0  0  0  0  0  0
  1 10  1  0  0  0  0
  2 11  1  6  0  0  0
  2  1  1  0  0  0  0
  2  7  1  0  0  0  0
  3 12  1  6  0  0  0
  3  2  1  0  0  0  0
  3  9  1  0  0  0  0
  3  4  1  0  0  0  0
  4 14  1  0  0  0  0
  4  5  1  0  0  0  0
  5  6  1  0  0  0  0
  5 15  1  1  0  0  0
  7 16  1  1  0  0  0
  7  6  1  0  0  0  0
  8  7  1  0  0  0  0
  8 17  1  0  0  0  0
  9 19  1  6  0  0  0
  9  8  1  0  0  0  0
  9  5  1  0  0  0  0
 13  4  1  0  0  0  0
 18  8  1  0  0  0  0
M TOR 0 0 1 2 3
M TOR 1 0 1 2 8
M TOR 2 0 1 2 11
M TOR 3 0 1 6 5
M TOR 4 0 1 6 7
M TOR 5 0 1 6 15
M TOR 6 1 2 3 4
M TOR 7 1 2 3 12
M TOR 8 1 2 3 13
M TOR 9 1 2 8 4
M TOR 10 1 2 8 7
M TOR 11 1 2 8 18
M TOR 12 1 6 5 4
M TOR 13 1 6 7 8
M TOR 14 1 6 7 16
M TOR 15 1 6 7 17
M TOR 16 2 1 0 9
M TOR 17 2 1 6 5
M TOR 18 2 1 6 7
M TOR 19 2 1 6 15
M TOR 20 2 3 4 5
M TOR 21 2 3 4 8
M TOR 22 2 3 4 14
M TOR 23 2 8 4 5
M TOR 24 2 8 4 14
M TOR 25 2 8 7 6
M TOR 26 2 8 7 16
M TOR 27 2 8 7 17
M TOR 28 3 2 1 6
M TOR 29 3 2 1 10
M TOR 30 3 2 8 7
M TOR 31 3 2 8 18
M TOR 32 3 4 5 6
M TOR 33 3 4 8 7
M TOR 34 3 4 8 18
M TOR 35 4 3 2 11
M TOR 36 4 5 6 7
M TOR 37 4 5 6 15
M TOR 38 4 8 2 11
M TOR 39 4 8 7 6
M TOR 40 4 8 7 16
M TOR 41 4 8 7 17
M TOR 42 5 4 3 12
M TOR 43 5 4 3 13
M TOR 44 5 4 8 7
M TOR 45 5 4 8 18
M TOR 46 5 6 1 10
M TOR 47 5 6 7 8
M TOR 48 5 6 7 16
M TOR 49 5 6 7 17
M TOR 50 6 1 0 9
M TOR 51 6 1 2 8
M TOR 52 6 1 2 11
M TOR 53 6 5 4 8
M TOR 54 6 5 4 14
M TOR 55 6 7 8 18
M TOR 56 7 6 1 10
M TOR 57 7 8 2 11
M TOR 58 7 8 4 14
M TOR 59 8 2 1 10
M TOR 60 8 2 3 12
M TOR 61 8 2 3 13
M TOR 62 8 4 3 12
M TOR 63 8 4 3 13
M TOR 64 8 7 6 15
M  END
$$$$
