gdb 4509	2.6942554	1.7649168	1.530427	1.4484	73.89	-0.23584	-0.00154	0.23429999999999998	944.7935	0.160038	-422.567806	-422.560545	-422.559601	-422.599029	29.708
 OpenBabel02181911413D

 19 20  0  0  1  0  0  0  0  0999 V2000
    0.2719   -0.1027    0.4714 O   0  0  0  0  0  0  0  0  0  0  0  0
   -0.4681    0.9361    1.0993 C   0  0  2  0  0  0  0  0  0  0  0  0
   -1.4776    0.4047    2.1423 C   0  0  0  0  0  0  0  0  0  0  0  0
   -2.7261   -0.0143    1.5906 O   0  0  0  0  0  0  0  0  0  0  0  0
   -3.2798    0.9000    0.6213 C   0  0  2  0  0  0  0  0  0  0  0  0
   -2.3226    0.9669   -0.5766 C   0  0  0  0  0  0  0  0  0  0  0  0
   -1.2060    1.8255    0.0586 C   0  0  1  0  0  0  0  0  0  0  0  0
   -2.0466    2.8644    0.7947 C   0  0  0  0  0  0  0  0  0  0  0  0
   -3.2345    2.3441    1.1108 C   0  0  0  0  0  0  0  0  0  0  0  0
   -0.3515   -0.7783    0.1852 H   0  0  0  0  0  0  0  0  0  0  0  0
    0.2824    1.5317    1.6319 H   0  0  0  0  0  0  0  0  0  0  0  0
   -1.0553   -0.4772    2.6326 H   0  0  0  0  0  0  0  0  0  0  0  0
   -1.6369    1.1733    2.9092 H   0  0  0  0  0  0  0  0  0  0  0  0
   -4.2760    0.5115    0.4035 H   0  0  0  0  0  0  0  0  0  0  0  0
   -2.0048   -0.0237   -0.9127 H   0  0  0  0  0  0  0  0  0  0  0  0
   -2.7790    1.4908   -1.4210 H   0  0  0  0  0  0  0  0  0  0  0  0
   -0.4873    2.2367   -0.6537 H   0  0  0  0  0  0  0  0  0  0  0  0
   -1.6784    3.8450    1.0740 H   0  0  0  0  0  0  0  0  0  0  0  0
   -4.0107    2.8081    1.7066 H   0  0  0  0  0  0  0  0  0  0  0  0
  1  2  1  0  0  0  0
  2 11  1  1  0  0  0
  2  3  1  0  0  0  0
  3 12  1  0  0  0  0
  3 13  1  0  0  0  0
  4  3  1  0  0  0  0
  5 14  1  6  0  0  0
  5  9  1  0  0  0  0
  5  4  1  0  0  0  0
  6  7  1  0  0  0  0
  6  5  1  0  0  0  0
  7 17  1  6  0  0  0
  7  8  1  0  0  0  0
  7  2  1  0  0  0  0
  8 18  1  0  0  0  0
  8  9  2  0  0  0  0
  9 19  1  0  0  0  0
 10  1  1  0  0  0  0
 15  6  1  0  0  0  0
 16  6  1  0  0  0  0
M TOR 0 0 1 2 3
M TOR 1 0 1 2 11
M TOR 2 0 1 2 12
M TOR 3 0 1 6 5
M TOR 4 0 1 6 7
M TOR 5 0 1 6 16
M TOR 6 1 2 3 4
M TOR 7 1 6 5 4
M TOR 8 1 6 5 14
M TOR 9 1 6 5 15
M TOR 10 1 6 7 8
M TOR 11 1 6 7 17
M TOR 12 2 1 0 9
M TOR 13 2 1 6 5
M TOR 14 2 1 6 7
M TOR 15 2 1 6 16
M TOR 16 2 3 4 5
M TOR 17 2 3 4 8
M TOR 18 2 3 4 13
M TOR 19 3 2 1 6
M TOR 20 3 2 1 10
M TOR 21 3 4 5 6
M TOR 22 3 4 5 14
M TOR 23 3 4 5 15
M TOR 24 3 4 8 7
M TOR 25 3 4 8 18
M TOR 26 4 3 2 11
M TOR 27 4 3 2 12
M TOR 28 4 5 6 7
M TOR 29 4 5 6 16
M TOR 30 4 8 7 6
M TOR 31 4 8 7 17
M TOR 32 5 4 8 7
M TOR 33 5 4 8 18
M TOR 34 5 6 1 10
M TOR 35 5 6 7 8
M TOR 36 5 6 7 17
M TOR 37 6 1 0 9
M TOR 38 6 1 2 11
M TOR 39 6 1 2 12
M TOR 40 6 5 4 8
M TOR 41 6 5 4 13
M TOR 42 6 7 8 18
M TOR 43 7 6 1 10
M TOR 44 7 6 5 14
M TOR 45 7 6 5 15
M TOR 46 7 8 4 13
M TOR 47 8 4 5 14
M TOR 48 8 4 5 15
M TOR 49 8 7 6 16
M  END
$$$$
