
     RDKit          3D

 19 19  0  0  0  0  0  0  0  0999 V2000
    1.4103    0.8298   -0.0201 C   0  0  0  0  0  0  0  0  0  0  0  0
    0.0110    0.3294    0.1297 C   0  0  0  0  0  0  0  0  0  0  0  0
   -1.1362    0.9931    0.0043 C   0  0  0  0  0  0  0  0  0  0  0  0
   -2.3135    0.0809    0.2645 C   0  0  0  0  0  0  0  0  0  0  0  0
   -3.2285    0.5317    1.4025 C   0  0  0  0  0  0  0  0  0  0  0  0
   -1.7149   -1.1874    0.5585 O   0  0  0  0  0  0  0  0  0  0  0  0
   -0.2944   -1.1006    0.4977 C   0  0  0  0  0  0  0  0  0  0  0  0
   -3.0968   -0.0736   -1.0488 C   0  0  0  0  0  0  0  0  0  0  0  0
   -4.0518    0.5866   -1.3617 O   0  0  0  0  0  0  0  0  0  0  0  0
    1.9788    0.6945    0.9085 H   0  0  0  0  0  0  0  0  0  0  0  0
    1.9464    0.2730   -0.7987 H   0  0  0  0  0  0  0  0  0  0  0  0
    1.4324    1.8900   -0.2827 H   0  0  0  0  0  0  0  0  0  0  0  0
   -1.2603    2.0380   -0.2507 H   0  0  0  0  0  0  0  0  0  0  0  0
   -3.9561   -0.2527    1.6288 H   0  0  0  0  0  0  0  0  0  0  0  0
   -2.6423    0.7398    2.3007 H   0  0  0  0  0  0  0  0  0  0  0  0
   -3.7754    1.4300    1.1064 H   0  0  0  0  0  0  0  0  0  0  0  0
    0.1440   -1.3799    1.4693 H   0  0  0  0  0  0  0  0  0  0  0  0
    0.0947   -1.8137   -0.2459 H   0  0  0  0  0  0  0  0  0  0  0  0
   -2.6678   -0.8588   -1.7112 H   0  0  0  0  0  0  0  0  0  0  0  0
  1  2  1  0
  2  3  2  0
  3  4  1  0
  4  5  1  0
  4  6  1  0
  6  7  1  0
  4  8  1  0
  8  9  2  0
  7  2  1  0
  1 10  1  0
  1 11  1  0
  1 12  1  0
  3 13  1  0
  5 14  1  0
  5 15  1  0
  5 16  1  0
  7 17  1  0
  7 18  1  0
  8 19  1  0
M  END
$$$$
