
     RDKit          3D

 19 21  0  0  0  0  0  0  0  0999 V2000
   -0.1655    0.1213   -0.0995 C   0  0  0  0  0  0  0  0  0  0  0  0
    1.3507    0.1852    0.0189 C   0  0  0  0  0  0  0  0  0  0  0  0
    1.9538    0.6696   -1.3526 C   0  0  0  0  0  0  0  0  0  0  0  0
    2.1467   -0.7501   -1.7113 O   0  0  0  0  0  0  0  0  0  0  0  0
    2.1770   -1.0376   -0.3048 C   0  0  0  0  0  0  0  0  0  0  0  0
    1.7378   -2.0171    0.8100 C   0  0  0  0  0  0  0  0  0  0  0  0
    2.4446   -0.8431    1.6334 C   0  0  0  0  0  0  0  0  0  0  0  0
    3.4860   -0.7992    0.5107 C   0  0  0  0  0  0  0  0  0  0  0  0
    1.7211    0.4044    1.3911 O   0  0  0  0  0  0  0  0  0  0  0  0
   -0.6098   -0.4545    0.7143 H   0  0  0  0  0  0  0  0  0  0  0  0
   -0.5749    1.1362   -0.0468 H   0  0  0  0  0  0  0  0  0  0  0  0
   -0.4612   -0.3186   -1.0565 H   0  0  0  0  0  0  0  0  0  0  0  0
    1.2658    1.1600   -2.0447 H   0  0  0  0  0  0  0  0  0  0  0  0
    2.9072    1.2028   -1.3087 H   0  0  0  0  0  0  0  0  0  0  0  0
    0.6739   -2.2069    0.9481 H   0  0  0  0  0  0  0  0  0  0  0  0
    2.3163   -2.9373    0.9059 H   0  0  0  0  0  0  0  0  0  0  0  0
    2.6735   -0.9439    2.6912 H   0  0  0  0  0  0  0  0  0  0  0  0
    4.0311    0.1379    0.3964 H   0  0  0  0  0  0  0  0  0  0  0  0
    4.1545   -1.6608    0.4707 H   0  0  0  0  0  0  0  0  0  0  0  0
  1  2  1  0
  2  3  1  0
  3  4  1  0
  4  5  1  0
  5  6  1  0
  6  7  1  0
  7  8  1  0
  7  9  1  0
  5  2  1  0
  8  5  1  0
  9  2  1  0
  1 10  1  0
  1 11  1  0
  1 12  1  0
  3 13  1  0
  3 14  1  0
  6 15  1  0
  6 16  1  0
  7 17  1  0
  8 18  1  0
  8 19  1  0
M  END
$$$$
