gdb 1764	2.7857369	1.6082145	1.2269066	4.311	75.49	-0.25755	0.01761	0.27516	1071.6762	0.156478	-422.596728	-422.588326	-422.587382	-422.629118	32.511
 OpenBabel02181911403D

 19 20  0  0  1  0  0  0  0  0999 V2000
   -3.4061    1.5289   -0.0036 C   0  0  0  0  0  0  0  0  0  0  0  0
   -2.3159    0.4983    0.0116 C   0  0  2  0  0  0  0  0  0  0  0  0
   -2.0553   -0.5577   -1.0907 C   0  0  0  0  0  0  0  0  0  0  0  0
   -1.0879   -1.1291    0.0096 C   0  0  2  0  0  0  0  0  0  0  0  0
   -0.4662   -2.5003   -0.0139 C   0  0  0  0  0  0  0  0  0  0  0  0
   -2.1683   -0.6456    1.0450 C   0  0  0  0  0  0  0  0  0  0  0  0
   -0.1480    0.0713    0.1087 C   0  0  0  0  0  0  0  0  0  0  0  0
    1.0428    0.1419    0.1745 O   0  0  0  0  0  0  0  0  0  0  0  0
   -0.9968    1.1476    0.1082 O   0  0  0  0  0  0  0  0  0  0  0  0
   -3.3838    2.1277    0.9117 H   0  0  0  0  0  0  0  0  0  0  0  0
   -3.2882    2.2025   -0.8574 H   0  0  0  0  0  0  0  0  0  0  0  0
   -4.3826    1.0418   -0.0770 H   0  0  0  0  0  0  0  0  0  0  0  0
   -2.9107   -1.2130   -1.2712 H   0  0  0  0  0  0  0  0  0  0  0  0
   -1.6239   -0.2063   -2.0312 H   0  0  0  0  0  0  0  0  0  0  0  0
    0.1186   -2.6750    0.8945 H   0  0  0  0  0  0  0  0  0  0  0  0
   -1.2297   -3.2803   -0.0879 H   0  0  0  0  0  0  0  0  0  0  0  0
    0.2140   -2.6015   -0.8652 H   0  0  0  0  0  0  0  0  0  0  0  0
   -3.0351   -1.3097    1.0801 H   0  0  0  0  0  0  0  0  0  0  0  0
   -1.8399   -0.3743    2.0513 H   0  0  0  0  0  0  0  0  0  0  0  0
  1 10  1  0  0  0  0
  2  1  1  6  0  0  0
  2  9  1  0  0  0  0
  2  6  1  0  0  0  0
  3  4  1  0  0  0  0
  3  2  1  0  0  0  0
  4  5  1  6  0  0  0
  4  7  1  0  0  0  0
  4  6  1  0  0  0  0
  5 15  1  0  0  0  0
  6 18  1  0  0  0  0
  6 19  1  0  0  0  0
  7  8  2  0  0  0  0
  9  7  1  0  0  0  0
 11  1  1  0  0  0  0
 12  1  1  0  0  0  0
 13  3  1  0  0  0  0
 14  3  1  0  0  0  0
 16  5  1  0  0  0  0
 17  5  1  0  0  0  0
M TOR 0 0 1 2 3
M TOR 1 0 1 2 12
M TOR 2 0 1 2 13
M TOR 3 0 1 5 3
M TOR 4 0 1 5 17
M TOR 5 0 1 5 18
M TOR 6 0 1 8 6
M TOR 7 1 2 3 4
M TOR 8 1 2 3 5
M TOR 9 1 2 3 6
M TOR 10 1 5 3 4
M TOR 11 1 5 3 6
M TOR 12 1 8 6 3
M TOR 13 1 8 6 7
M TOR 14 2 1 0 9
M TOR 15 2 1 0 10
M TOR 16 2 1 0 11
M TOR 17 2 1 5 17
M TOR 18 2 1 5 18
M TOR 19 2 1 8 6
M TOR 20 2 3 4 14
M TOR 21 2 3 4 15
M TOR 22 2 3 4 16
M TOR 23 2 3 5 17
M TOR 24 2 3 5 18
M TOR 25 2 3 6 7
M TOR 26 2 3 6 8
M TOR 27 3 2 1 8
M TOR 28 3 5 1 8
M TOR 29 4 3 2 12
M TOR 30 4 3 2 13
M TOR 31 4 3 5 17
M TOR 32 4 3 5 18
M TOR 33 4 3 6 7
M TOR 34 4 3 6 8
M TOR 35 5 1 0 9
M TOR 36 5 1 0 10
M TOR 37 5 1 0 11
M TOR 38 5 1 2 12
M TOR 39 5 1 2 13
M TOR 40 5 1 8 6
M TOR 41 5 3 2 12
M TOR 42 5 3 2 13
M TOR 43 5 3 4 14
M TOR 44 5 3 4 15
M TOR 45 5 3 4 16
M TOR 46 5 3 6 7
M TOR 47 5 3 6 8
M TOR 48 6 3 2 12
M TOR 49 6 3 2 13
M TOR 50 6 3 4 14
M TOR 51 6 3 4 15
M TOR 52 6 3 4 16
M TOR 53 6 3 5 17
M TOR 54 6 3 5 18
M TOR 55 8 1 0 9
M TOR 56 8 1 0 10
M TOR 57 8 1 0 11
M TOR 58 8 1 2 12
M TOR 59 8 1 2 13
M TOR 60 8 1 5 17
M TOR 61 8 1 5 18
M  END
$$$$
