gdb 3243	2.5455756	2.12185	1.6522212	2.2173	72.87	-0.25068	0.0906	0.34128000000000003	890.5155	0.161115	-422.556625	-422.550131	-422.549187	-422.587032	27.657
 OpenBabel02181911413D

 19 21  0  0  1  0  0  0  0  0999 V2000
    0.5762    0.5907    0.6665 O   0  0  0  0  0  0  0  0  0  0  0  0
   -0.6106   -0.0872    0.9935 C   0  0  2  0  0  0  0  0  0  0  0  0
   -1.7651    0.0144   -0.0341 C   0  0  1  0  0  0  0  0  0  0  0  0
   -2.8540   -0.7916    0.7245 C   0  0  0  0  0  0  0  0  0  0  0  0
   -2.8330    0.4263    1.6797 C   0  0  2  0  0  0  0  0  0  0  0  0
   -2.5307    1.3101    0.4323 C   0  0  1  0  0  0  0  0  0  0  0  0
   -1.7103    2.4842    0.9443 C   0  0  0  0  0  0  0  0  0  0  0  0
   -1.0834    1.9740    2.1454 O   0  0  0  0  0  0  0  0  0  0  0  0
   -1.3817    0.5676    2.1881 C   0  0  2  0  0  0  0  0  0  0  0  0
    0.5760    1.3941    1.2072 H   0  0  0  0  0  0  0  0  0  0  0  0
   -0.3638   -1.1389    1.1822 H   0  0  0  0  0  0  0  0  0  0  0  0
   -1.5146   -0.1714   -1.0779 H   0  0  0  0  0  0  0  0  0  0  0  0
   -3.7973   -0.8582    0.1782 H   0  0  0  0  0  0  0  0  0  0  0  0
   -2.5827   -1.7766    1.1163 H   0  0  0  0  0  0  0  0  0  0  0  0
   -3.6325    0.6543    2.3840 H   0  0  0  0  0  0  0  0  0  0  0  0
   -3.3879    1.5668   -0.1900 H   0  0  0  0  0  0  0  0  0  0  0  0
   -0.9429    2.8194    0.2373 H   0  0  0  0  0  0  0  0  0  0  0  0
   -2.3382    3.3406    1.2169 H   0  0  0  0  0  0  0  0  0  0  0  0
   -1.1388    0.2090    3.1878 H   0  0  0  0  0  0  0  0  0  0  0  0
  1  2  1  0  0  0  0
  1 10  1  0  0  0  0
  2 11  1  1  0  0  0
  2  9  1  0  0  0  0
  3 12  1  6  0  0  0
  3  6  1  0  0  0  0
  3  4  1  0  0  0  0
  3  2  1  0  0  0  0
  4 14  1  0  0  0  0
  4  5  1  0  0  0  0
  5  9  1  0  0  0  0
  5 15  1  1  0  0  0
  6 16  1  6  0  0  0
  6  7  1  0  0  0  0
  6  5  1  0  0  0  0
  7 18  1  0  0  0  0
  7  8  1  0  0  0  0
  8  9  1  0  0  0  0
  9 19  1  1  0  0  0
 13  4  1  0  0  0  0
 17  7  1  0  0  0  0
M TOR 0 0 1 2 3
M TOR 1 0 1 2 5
M TOR 2 0 1 2 11
M TOR 3 0 1 8 4
M TOR 4 0 1 8 7
M TOR 5 0 1 8 18
M TOR 6 1 2 3 4
M TOR 7 1 2 3 12
M TOR 8 1 2 3 13
M TOR 9 1 2 5 4
M TOR 10 1 2 5 6
M TOR 11 1 2 5 15
M TOR 12 1 8 4 3
M TOR 13 1 8 4 5
M TOR 14 1 8 4 14
M TOR 15 1 8 7 6
M TOR 16 2 1 0 9
M TOR 17 2 1 8 4
M TOR 18 2 1 8 7
M TOR 19 2 1 8 18
M TOR 20 2 3 4 5
M TOR 21 2 3 4 8
M TOR 22 2 3 4 14
M TOR 23 2 5 4 8
M TOR 24 2 5 4 14
M TOR 25 2 5 6 7
M TOR 26 2 5 6 16
M TOR 27 2 5 6 17
M TOR 28 3 2 1 8
M TOR 29 3 2 1 10
M TOR 30 3 2 5 6
M TOR 31 3 2 5 15
M TOR 32 3 4 5 6
M TOR 33 3 4 5 15
M TOR 34 3 4 8 7
M TOR 35 3 4 8 18
M TOR 36 4 3 2 11
M TOR 37 4 5 2 11
M TOR 38 4 5 6 7
M TOR 39 4 5 6 16
M TOR 40 4 5 6 17
M TOR 41 4 8 1 10
M TOR 42 4 8 7 6
M TOR 43 5 2 1 8
M TOR 44 5 2 1 10
M TOR 45 5 2 3 12
M TOR 46 5 2 3 13
M TOR 47 5 4 3 12
M TOR 48 5 4 3 13
M TOR 49 5 4 8 7
M TOR 50 5 4 8 18
M TOR 51 5 6 7 8
M TOR 52 6 5 2 11
M TOR 53 6 5 4 8
M TOR 54 6 5 4 14
M TOR 55 6 7 8 18
M TOR 56 7 6 5 15
M TOR 57 7 8 1 10
M TOR 58 7 8 4 14
M TOR 59 8 1 0 9
M TOR 60 8 1 2 11
M TOR 61 8 4 3 12
M TOR 62 8 4 3 13
M TOR 63 8 4 5 15
M TOR 64 8 7 6 16
M TOR 65 8 7 6 17
M  END
$$$$
