
     RDKit          3D

 19 19  0  0  0  0  0  0  0  0999 V2000
    6.7990   -1.1586   -1.8811 C   0  0  0  0  0  0  0  0  0  0  0  0
    5.8554   -1.1413   -0.8262 O   0  0  0  0  0  0  0  0  0  0  0  0
    4.6884   -0.4666   -1.1572 C   0  0  0  0  0  0  0  0  0  0  0  0
    4.6323    1.0253   -1.0056 C   0  0  0  0  0  0  0  0  0  0  0  0
    3.9250    0.1173    0.0067 C   0  0  0  0  0  0  0  0  0  0  0  0
    2.4953    0.0472    0.0474 C   0  0  0  0  0  0  0  0  0  0  0  0
    1.2907   -0.0184    0.0664 C   0  0  0  0  0  0  0  0  0  0  0  0
   -0.1686   -0.0467    0.1285 C   0  0  0  0  0  0  0  0  0  0  0  0
   -0.7712    1.2383    0.0304 O   0  0  0  0  0  0  0  0  0  0  0  0
    6.4025   -1.6719   -2.7697 H   0  0  0  0  0  0  0  0  0  0  0  0
    7.1002   -0.1425   -2.1729 H   0  0  0  0  0  0  0  0  0  0  0  0
    7.6737   -1.7031   -1.5187 H   0  0  0  0  0  0  0  0  0  0  0  0
    4.1046   -0.9189   -1.9593 H   0  0  0  0  0  0  0  0  0  0  0  0
    5.5279    1.5232   -0.6519 H   0  0  0  0  0  0  0  0  0  0  0  0
    4.0117    1.5973   -1.6851 H   0  0  0  0  0  0  0  0  0  0  0  0
    4.4383    0.0141    0.9583 H   0  0  0  0  0  0  0  0  0  0  0  0
   -0.5730   -0.6269   -0.7087 H   0  0  0  0  0  0  0  0  0  0  0  0
   -0.4813   -0.5643    1.0499 H   0  0  0  0  0  0  0  0  0  0  0  0
   -0.3293    1.8089    0.6678 H   0  0  0  0  0  0  0  0  0  0  0  0
  1  2  1  0
  2  3  1  0
  3  4  1  0
  4  5  1  0
  5  6  1  0
  6  7  3  0
  7  8  1  0
  8  9  1  0
  5  3  1  0
  1 10  1  0
  1 11  1  0
  1 12  1  0
  3 13  1  0
  4 14  1  0
  4 15  1  0
  5 16  1  0
  8 17  1  0
  8 18  1  0
  9 19  1  0
M  END
$$$$
