
     RDKit          3D

 19 20  0  0  0  0  0  0  0  0999 V2000
    5.6230   -4.9645   -1.1473 C   0  0  0  0  0  0  0  0  0  0  0  0
    5.7067   -3.5312   -0.6621 C   0  0  0  0  0  0  0  0  0  0  0  0
    6.7670   -2.9637   -0.4980 O   0  0  0  0  0  0  0  0  0  0  0  0
    4.4071   -2.8493   -0.3810 C   0  0  0  0  0  0  0  0  0  0  0  0
    4.3534   -1.3401   -0.5284 C   0  0  0  0  0  0  0  0  0  0  0  0
    4.3660   -1.9310    0.8421 C   0  0  0  0  0  0  0  0  0  0  0  0
    3.1396   -1.9096    1.6853 C   0  0  0  0  0  0  0  0  0  0  0  0
    3.1325   -1.3353    3.0374 C   0  0  0  0  0  0  0  0  0  0  0  0
    3.1355   -2.7504    2.8430 O   0  0  0  0  0  0  0  0  0  0  0  0
    5.0924   -5.5800   -0.4116 H   0  0  0  0  0  0  0  0  0  0  0  0
    5.0466   -5.0158   -2.0784 H   0  0  0  0  0  0  0  0  0  0  0  0
    6.6244   -5.3635   -1.3104 H   0  0  0  0  0  0  0  0  0  0  0  0
    3.5040   -3.4089   -0.6002 H   0  0  0  0  0  0  0  0  0  0  0  0
    5.2661   -0.8685   -0.8735 H   0  0  0  0  0  0  0  0  0  0  0  0
    3.4292   -0.9128   -0.9023 H   0  0  0  0  0  0  0  0  0  0  0  0
    5.3061   -1.8732    1.3818 H   0  0  0  0  0  0  0  0  0  0  0  0
    2.1979   -1.9140    1.1319 H   0  0  0  0  0  0  0  0  0  0  0  0
    4.0524   -0.9176    3.4448 H   0  0  0  0  0  0  0  0  0  0  0  0
    2.2129   -0.9171    3.4447 H   0  0  0  0  0  0  0  0  0  0  0  0
  1  2  1  0
  2  3  2  0
  2  4  1  0
  4  5  1  0
  5  6  1  0
  6  7  1  0
  7  8  1  0
  8  9  1  0
  6  4  1  0
  9  7  1  0
  1 10  1  0
  1 11  1  0
  1 12  1  0
  4 13  1  0
  5 14  1  0
  5 15  1  0
  6 16  1  0
  7 17  1  0
  8 18  1  0
  8 19  1  0
M  END
$$$$
