
     RDKit          3D

 19 20  0  0  0  0  0  0  0  0999 V2000
    1.5063    0.9423    0.2028 C   0  0  0  0  0  0  0  0  0  0  0  0
    1.0701   -0.5178    0.0964 C   0  0  0  0  0  0  0  0  0  0  0  0
    1.5785   -1.3070    1.1926 O   0  0  0  0  0  0  0  0  0  0  0  0
    2.7727   -1.9732    0.7923 C   0  0  0  0  0  0  0  0  0  0  0  0
    4.0118   -1.2032    1.2489 C   0  0  0  0  0  0  0  0  0  0  0  0
    5.0818   -1.2444    0.6991 O   0  0  0  0  0  0  0  0  0  0  0  0
    2.6990   -2.1288   -0.7116 C   0  0  0  0  0  0  0  0  0  0  0  0
    1.4087   -2.6922   -1.2436 C   0  0  0  0  0  0  0  0  0  0  0  0
    1.5935   -1.1995   -1.1575 C   0  0  0  0  0  0  0  0  0  0  0  0
    1.2214    1.3527    1.1751 H   0  0  0  0  0  0  0  0  0  0  0  0
    2.5907    1.0430    0.0864 H   0  0  0  0  0  0  0  0  0  0  0  0
    1.0268    1.5421   -0.5783 H   0  0  0  0  0  0  0  0  0  0  0  0
   -0.0217   -0.5798    0.1798 H   0  0  0  0  0  0  0  0  0  0  0  0
    2.7906   -2.9352    1.3286 H   0  0  0  0  0  0  0  0  0  0  0  0
    3.8386   -0.5975    2.1670 H   0  0  0  0  0  0  0  0  0  0  0  0
    3.6290   -2.2350   -1.2540 H   0  0  0  0  0  0  0  0  0  0  0  0
    1.4322   -3.1420   -2.2298 H   0  0  0  0  0  0  0  0  0  0  0  0
    0.7261   -3.1658   -0.5440 H   0  0  0  0  0  0  0  0  0  0  0  0
    1.6788   -0.6134   -2.0648 H   0  0  0  0  0  0  0  0  0  0  0  0
  1  2  1  0
  2  3  1  0
  3  4  1  0
  4  5  1  0
  5  6  2  0
  4  7  1  0
  7  8  1  0
  8  9  1  0
  9  2  1  0
  9  7  1  0
  1 10  1  0
  1 11  1  0
  1 12  1  0
  2 13  1  0
  4 14  1  0
  5 15  1  0
  7 16  1  0
  8 17  1  0
  8 18  1  0
  9 19  1  0
M  END
$$$$
