
     RDKit          3D

 19 19  0  0  0  0  0  0  0  0999 V2000
    1.4963   -0.2731    0.0539 C   0  0  0  0  0  0  0  0  0  0  0  0
    0.1490   -0.4130    0.5207 O   0  0  0  0  0  0  0  0  0  0  0  0
   -0.3891    0.6948    1.0750 C   0  0  0  0  0  0  0  0  0  0  0  0
    0.2018    1.7427    1.1651 O   0  0  0  0  0  0  0  0  0  0  0  0
   -1.7846    0.4108    1.5871 C   0  0  0  0  0  0  0  0  0  0  0  0
   -2.6555    1.6798    1.7595 C   0  0  0  0  0  0  0  0  0  0  0  0
   -3.3919    1.4265    3.0518 C   0  0  0  0  0  0  0  0  0  0  0  0
   -2.9049    0.3819    3.7171 C   0  0  0  0  0  0  0  0  0  0  0  0
   -1.7493   -0.2695    2.9975 C   0  0  0  0  0  0  0  0  0  0  0  0
    2.1639    0.0028    0.8743 H   0  0  0  0  0  0  0  0  0  0  0  0
    1.7729   -1.2462   -0.3524 H   0  0  0  0  0  0  0  0  0  0  0  0
    1.5589    0.4961   -0.7201 H   0  0  0  0  0  0  0  0  0  0  0  0
   -2.2619   -0.2834    0.8914 H   0  0  0  0  0  0  0  0  0  0  0  0
   -2.0194    2.5708    1.8293 H   0  0  0  0  0  0  0  0  0  0  0  0
   -3.3255    1.8351    0.9065 H   0  0  0  0  0  0  0  0  0  0  0  0
   -4.1984    2.0657    3.3936 H   0  0  0  0  0  0  0  0  0  0  0  0
   -3.2459    0.0391    4.6878 H   0  0  0  0  0  0  0  0  0  0  0  0
   -0.8041   -0.0693    3.5214 H   0  0  0  0  0  0  0  0  0  0  0  0
   -1.8373   -1.3582    2.9233 H   0  0  0  0  0  0  0  0  0  0  0  0
  1  2  1  0
  2  3  1  0
  3  4  2  0
  3  5  1  0
  5  6  1  0
  6  7  1  0
  7  8  2  0
  8  9  1  0
  9  5  1  0
  1 10  1  0
  1 11  1  0
  1 12  1  0
  5 13  1  0
  6 14  1  0
  6 15  1  0
  7 16  1  0
  8 17  1  0
  9 18  1  0
  9 19  1  0
M  END
$$$$
