
     RDKit          3D

 19 19  0  0  0  0  0  0  0  0999 V2000
   -2.3368   -0.5500    2.3691 O   0  0  0  0  0  0  0  0  0  0  0  0
   -1.6511    0.4376    2.4703 C   0  0  0  0  0  0  0  0  0  0  0  0
   -1.8467    1.6019    1.4825 C   0  0  0  0  0  0  0  0  0  0  0  0
   -1.2409    2.8187    1.8461 O   0  0  0  0  0  0  0  0  0  0  0  0
    0.0153    3.1438    1.2746 C   0  0  0  0  0  0  0  0  0  0  0  0
    1.2114    2.7728    2.1729 C   0  0  0  0  0  0  0  0  0  0  0  0
    1.5235    1.2990    2.2357 C   0  0  0  0  0  0  0  0  0  0  0  0
    0.7818    0.3622    2.8307 C   0  0  0  0  0  0  0  0  0  0  0  0
   -0.5450    0.5901    3.5135 C   0  0  0  0  0  0  0  0  0  0  0  0
   -1.5140    1.2588    0.4916 H   0  0  0  0  0  0  0  0  0  0  0  0
   -2.9276    1.7702    1.4170 H   0  0  0  0  0  0  0  0  0  0  0  0
    0.1195    2.6767    0.2848 H   0  0  0  0  0  0  0  0  0  0  0  0
    0.0065    4.2305    1.1327 H   0  0  0  0  0  0  0  0  0  0  0  0
    2.0865    3.3152    1.7982 H   0  0  0  0  0  0  0  0  0  0  0  0
    1.0028    3.1735    3.1730 H   0  0  0  0  0  0  0  0  0  0  0  0
    2.4346    0.9802    1.7344 H   0  0  0  0  0  0  0  0  0  0  0  0
    1.1025   -0.6750    2.7751 H   0  0  0  0  0  0  0  0  0  0  0  0
   -0.7191   -0.1523    4.2948 H   0  0  0  0  0  0  0  0  0  0  0  0
   -0.6001    1.5978    3.9354 H   0  0  0  0  0  0  0  0  0  0  0  0
  1  2  2  0
  2  3  1  0
  3  4  1  0
  4  5  1  0
  5  6  1  0
  6  7  1  0
  7  8  2  0
  8  9  1  0
  9  2  1  0
  3 10  1  0
  3 11  1  0
  5 12  1  0
  5 13  1  0
  6 14  1  0
  6 15  1  0
  7 16  1  0
  8 17  1  0
  9 18  1  0
  9 19  1  0
M  END
$$$$
