gdb 5645	2.5591365	1.241374	0.9203521	3.5662	76.91	-0.24207	-0.03749	0.20458	1299.8107	0.154807	-422.539284	-422.530102	-422.529158	-422.573613	33.351
 OpenBabel02181911423D

 19 20  0  0  1  0  0  0  0  0999 V2000
    3.0933   -1.2824    0.9910 C   0  0  0  0  0  0  0  0  0  0  0  0
    2.0147   -0.5641    0.1738 C   0  0  0  0  0  0  0  0  0  0  0  0
    2.1420   -0.8018   -1.3272 C   0  0  1  0  0  0  0  0  0  0  0  0
    1.8044   -2.2273   -1.8824 C   0  0  0  0  0  0  0  0  0  0  0  0
    0.9070   -1.5673   -2.9516 C   0  0  0  0  0  0  0  0  0  0  0  0
    0.3590   -1.9452   -3.9449 O   0  0  0  0  0  0  0  0  0  0  0  0
    1.0543   -0.2214   -2.2554 C   0  0  1  0  0  0  0  0  0  0  0  0
   -0.0188    0.7507   -1.9787 C   0  0  0  0  0  0  0  0  0  0  0  0
    1.0501    1.0474   -2.8738 O   0  0  0  0  0  0  0  0  0  0  0  0
    2.9721   -1.0890    2.0610 H   0  0  0  0  0  0  0  0  0  0  0  0
    3.0504   -2.3665    0.8412 H   0  0  0  0  0  0  0  0  0  0  0  0
    4.0953   -0.9476    0.7020 H   0  0  0  0  0  0  0  0  0  0  0  0
    1.0197   -0.8890    0.5058 H   0  0  0  0  0  0  0  0  0  0  0  0
    2.0683    0.5147    0.3693 H   0  0  0  0  0  0  0  0  0  0  0  0
    3.1288   -0.4800   -1.6784 H   0  0  0  0  0  0  0  0  0  0  0  0
    2.6308   -2.8234   -2.2749 H   0  0  0  0  0  0  0  0  0  0  0  0
    1.2248   -2.8448   -1.1876 H   0  0  0  0  0  0  0  0  0  0  0  0
   -0.9937    0.6119   -2.4428 H   0  0  0  0  0  0  0  0  0  0  0  0
   -0.0083    1.2943   -1.0355 H   0  0  0  0  0  0  0  0  0  0  0  0
  1 10  1  0  0  0  0
  2 14  1  0  0  0  0
  2 13  1  0  0  0  0
  2  1  1  0  0  0  0
  3 15  1  6  0  0  0
  3  2  1  0  0  0  0
  4  3  1  0  0  0  0
  4 17  1  0  0  0  0
  5  4  1  0  0  0  0
  6  5  2  0  0  0  0
  7  5  1  6  0  0  0
  7  8  1  0  0  0  0
  7  3  1  0  0  0  0
  8 19  1  0  0  0  0
  9  7  1  0  0  0  0
  9  8  1  0  0  0  0
 11  1  1  0  0  0  0
 12  1  1  0  0  0  0
 16  4  1  0  0  0  0
 18  8  1  0  0  0  0
M TOR 0 0 1 2 3
M TOR 1 0 1 2 6
M TOR 2 0 1 2 14
M TOR 3 1 2 3 4
M TOR 4 1 2 3 15
M TOR 5 1 2 3 16
M TOR 6 1 2 6 4
M TOR 7 1 2 6 7
M TOR 8 1 2 6 8
M TOR 9 2 1 0 9
M TOR 10 2 1 0 10
M TOR 11 2 1 0 11
M TOR 12 2 3 4 5
M TOR 13 2 3 4 6
M TOR 14 2 6 4 5
M TOR 15 2 6 7 8
M TOR 16 2 6 7 17
M TOR 17 2 6 7 18
M TOR 18 3 2 1 12
M TOR 19 3 2 1 13
M TOR 20 3 2 6 7
M TOR 21 3 2 6 8
M TOR 22 3 4 6 7
M TOR 23 3 4 6 8
M TOR 24 4 3 2 14
M TOR 25 4 6 2 14
M TOR 26 4 6 7 8
M TOR 27 4 6 7 17
M TOR 28 4 6 7 18
M TOR 29 5 4 3 15
M TOR 30 5 4 3 16
M TOR 31 5 4 6 7
M TOR 32 5 4 6 8
M TOR 33 6 2 1 12
M TOR 34 6 2 1 13
M TOR 35 6 2 3 15
M TOR 36 6 2 3 16
M TOR 37 6 4 3 15
M TOR 38 6 4 3 16
M TOR 39 6 8 7 17
M TOR 40 6 8 7 18
M TOR 41 7 6 2 14
M TOR 42 8 6 2 14
M  END
$$$$
