gdb 5654	2.1209775	1.3414485	0.8749838	4.8299	79.9	-0.23199	-0.03989	0.1921	1317.7521	0.156126	-422.599047	-422.589671	-422.588726	-422.633762	33.868
 OpenBabel02181911423D

 19 19  0  0  1  0  0  0  0  0999 V2000
    1.3266    0.7087   -0.5451 C   0  0  0  0  0  0  0  0  0  0  0  0
    0.0338    0.1072   -0.0949 C   0  0  0  0  0  0  0  0  0  0  0  0
   -0.2365   -1.2008    0.0378 C   0  0  0  0  0  0  0  0  0  0  0  0
   -1.6091   -1.4192    0.5365 C   0  0  0  0  0  0  0  0  0  0  0  0
   -2.1490   -2.4798    0.7545 O   0  0  0  0  0  0  0  0  0  0  0  0
   -2.2308   -0.0307    0.7462 C   0  0  0  0  0  0  0  0  0  0  0  0
   -1.1609    0.9752    0.2783 C   0  0  2  0  0  0  0  0  0  0  0  0
   -1.6413    1.8529   -0.8938 C   0  0  0  0  0  0  0  0  0  0  0  0
   -2.8078    2.5910   -0.5790 O   0  0  0  0  0  0  0  0  0  0  0  0
    1.6915    1.4391    0.1879 H   0  0  0  0  0  0  0  0  0  0  0  0
    2.0972   -0.0522   -0.6886 H   0  0  0  0  0  0  0  0  0  0  0  0
    1.2057    1.2525   -1.4898 H   0  0  0  0  0  0  0  0  0  0  0  0
    0.4415   -2.0194   -0.1718 H   0  0  0  0  0  0  0  0  0  0  0  0
   -3.1642    0.0614    0.1844 H   0  0  0  0  0  0  0  0  0  0  0  0
   -2.4914    0.0868    1.8023 H   0  0  0  0  0  0  0  0  0  0  0  0
   -0.8664    1.6547    1.0929 H   0  0  0  0  0  0  0  0  0  0  0  0
   -0.8303    2.5160   -1.2311 H   0  0  0  0  0  0  0  0  0  0  0  0
   -1.9147    1.2119   -1.7396 H   0  0  0  0  0  0  0  0  0  0  0  0
   -2.5901    3.2084    0.1270 H   0  0  0  0  0  0  0  0  0  0  0  0
  1  2  1  0  0  0  0
  1 10  1  0  0  0  0
  2  3  2  0  0  0  0
  2  7  1  0  0  0  0
  3  4  1  0  0  0  0
  4  6  1  0  0  0  0
  4  5  2  0  0  0  0
  6 15  1  0  0  0  0
  7  6  1  0  0  0  0
  7 16  1  1  0  0  0
  8  9  1  0  0  0  0
  8  7  1  0  0  0  0
  9 19  1  0  0  0  0
 11  1  1  0  0  0  0
 12  1  1  0  0  0  0
 13  3  1  0  0  0  0
 14  6  1  0  0  0  0
 17  8  1  0  0  0  0
 18  8  1  0  0  0  0
M TOR 0 0 1 2 3
M TOR 1 0 1 2 12
M TOR 2 0 1 6 5
M TOR 3 0 1 6 7
M TOR 4 0 1 6 15
M TOR 5 1 2 3 4
M TOR 6 1 2 3 5
M TOR 7 1 6 5 3
M TOR 8 1 6 5 13
M TOR 9 1 6 5 14
M TOR 10 1 6 7 8
M TOR 11 1 6 7 16
M TOR 12 1 6 7 17
M TOR 13 2 1 0 9
M TOR 14 2 1 0 10
M TOR 15 2 1 0 11
M TOR 16 2 1 6 5
M TOR 17 2 1 6 7
M TOR 18 2 1 6 15
M TOR 19 2 3 5 6
M TOR 20 2 3 5 13
M TOR 21 2 3 5 14
M TOR 22 3 2 1 6
M TOR 23 3 5 6 7
M TOR 24 3 5 6 15
M TOR 25 4 3 2 12
M TOR 26 4 3 5 6
M TOR 27 4 3 5 13
M TOR 28 4 3 5 14
M TOR 29 5 3 2 12
M TOR 30 5 6 7 8
M TOR 31 5 6 7 16
M TOR 32 5 6 7 17
M TOR 33 6 1 0 9
M TOR 34 6 1 0 10
M TOR 35 6 1 0 11
M TOR 36 6 1 2 12
M TOR 37 6 7 8 18
M TOR 38 7 6 5 13
M TOR 39 7 6 5 14
M TOR 40 8 7 6 15
M  END
$$$$
