gdb 2121	3.5789721	1.436442	1.2543261	1.7221	75.74	-0.23981	0.07123	0.31104	1051.1983	0.156922	-422.469767	-422.461946	-422.461002	-422.50177	30.743
 OpenBabel02181911403D

 19 21  0  0  1  0  0  0  0  0999 V2000
   -0.0667    0.0408   -0.0917 C   0  0  0  0  0  0  0  0  0  0  0  0
    1.4066   -0.1130    0.1200 C   0  0  2  0  0  0  0  0  0  0  0  0
    2.3007   -1.3653    0.1114 C   0  0  0  0  0  0  0  0  0  0  0  0
    3.1914   -0.0977    0.0934 C   0  0  2  0  0  0  0  0  0  0  0  0
    4.6147    0.0343    0.5537 C   0  0  0  0  0  0  0  0  0  0  0  0
    4.4560   -0.0912    1.9839 O   0  0  0  0  0  0  0  0  0  0  0  0
    3.0671    0.0675    2.4187 C   0  0  0  0  0  0  0  0  0  0  0  0
    2.3479    0.5671    1.1781 C   0  0  2  0  0  0  0  0  0  0  0  0
    2.3172    0.4741   -0.9486 O   0  0  0  0  0  0  0  0  0  0  0  0
   -0.6121   -0.4244    0.7353 H   0  0  0  0  0  0  0  0  0  0  0  0
   -0.3402    1.0989   -0.1370 H   0  0  0  0  0  0  0  0  0  0  0  0
   -0.3726   -0.4404   -1.0253 H   0  0  0  0  0  0  0  0  0  0  0  0
    2.3106   -2.0070    0.9941 H   0  0  0  0  0  0  0  0  0  0  0  0
    2.2917   -1.9292   -0.8218 H   0  0  0  0  0  0  0  0  0  0  0  0
    5.2899   -0.7593    0.2204 H   0  0  0  0  0  0  0  0  0  0  0  0
    5.0398    1.0114    0.2863 H   0  0  0  0  0  0  0  0  0  0  0  0
    2.7090   -0.8933    2.8046 H   0  0  0  0  0  0  0  0  0  0  0  0
    3.0590    0.7915    3.2384 H   0  0  0  0  0  0  0  0  0  0  0  0
    2.3383    1.6556    1.0894 H   0  0  0  0  0  0  0  0  0  0  0  0
  1 10  1  0  0  0  0
  2  1  1  1  0  0  0
  2  8  1  0  0  0  0
  3  2  1  0  0  0  0
  3 13  1  0  0  0  0
  4  9  1  6  0  0  0
  4  3  1  0  0  0  0
  4  5  1  0  0  0  0
  4  8  1  0  0  0  0
  5  6  1  0  0  0  0
  6  7  1  0  0  0  0
  7 17  1  0  0  0  0
  7 18  1  0  0  0  0
  8 19  1  6  0  0  0
  8  7  1  0  0  0  0
  9  2  1  0  0  0  0
 11  1  1  0  0  0  0
 12  1  1  0  0  0  0
 14  3  1  0  0  0  0
 15  5  1  0  0  0  0
 16  5  1  0  0  0  0
M TOR 0 0 1 2 3
M TOR 1 0 1 2 12
M TOR 2 0 1 2 13
M TOR 3 0 1 7 3
M TOR 4 0 1 7 6
M TOR 5 0 1 7 18
M TOR 6 0 1 8 3
M TOR 7 1 2 3 4
M TOR 8 1 2 3 7
M TOR 9 1 2 3 8
M TOR 10 1 7 3 4
M TOR 11 1 7 3 8
M TOR 12 1 7 6 5
M TOR 13 1 7 6 16
M TOR 14 1 7 6 17
M TOR 15 1 8 3 4
M TOR 16 2 1 0 9
M TOR 17 2 1 0 10
M TOR 18 2 1 0 11
M TOR 19 2 1 7 6
M TOR 20 2 1 7 18
M TOR 21 2 3 4 5
M TOR 22 2 3 4 14
M TOR 23 2 3 4 15
M TOR 24 2 3 7 6
M TOR 25 2 3 7 18
M TOR 26 3 4 5 6
M TOR 27 3 7 6 5
M TOR 28 3 7 6 16
M TOR 29 3 7 6 17
M TOR 30 4 3 2 12
M TOR 31 4 3 2 13
M TOR 32 4 3 7 6
M TOR 33 4 3 7 18
M TOR 34 4 5 6 7
M TOR 35 4 5 6 16
M TOR 36 4 5 6 17
M TOR 37 5 4 3 7
M TOR 38 5 4 3 8
M TOR 39 5 6 7 18
M TOR 40 6 5 4 14
M TOR 41 6 5 4 15
M TOR 42 6 7 1 8
M TOR 43 6 7 3 8
M TOR 44 7 1 0 9
M TOR 45 7 1 0 10
M TOR 46 7 1 0 11
M TOR 47 7 1 2 12
M TOR 48 7 1 2 13
M TOR 49 7 3 2 12
M TOR 50 7 3 2 13
M TOR 51 7 3 4 14
M TOR 52 7 3 4 15
M TOR 53 8 1 0 9
M TOR 54 8 1 0 10
M TOR 55 8 1 0 11
M TOR 56 8 1 2 12
M TOR 57 8 1 2 13
M TOR 58 8 1 7 18
M TOR 59 8 3 2 12
M TOR 60 8 3 2 13
M TOR 61 8 3 4 14
M TOR 62 8 3 4 15
M TOR 63 8 3 7 18
M  END
$$$$
