
     RDKit          3D

 19 19  0  0  0  0  0  0  0  0999 V2000
    5.7702   -1.7420    2.2003 O   0  0  0  0  0  0  0  0  0  0  0  0
    5.4055   -0.5087    2.7967 C   0  0  0  0  0  0  0  0  0  0  0  0
    4.5432    0.3361    1.8766 C   0  0  0  0  0  0  0  0  0  0  0  0
    3.3350    1.0799    2.4298 C   0  0  0  0  0  0  0  0  0  0  0  0
    3.1594   -0.1451    1.5690 C   0  0  0  0  0  0  0  0  0  0  0  0
    2.8186   -1.3568    2.1922 O   0  0  0  0  0  0  0  0  0  0  0  0
    2.5969   -0.0151    0.1574 C   0  0  0  0  0  0  0  0  0  0  0  0
    1.1398   -0.1217    0.1594 C   0  0  0  0  0  0  0  0  0  0  0  0
   -0.0548   -0.2442    0.2279 C   0  0  0  0  0  0  0  0  0  0  0  0
    4.9447   -2.2263    2.0789 H   0  0  0  0  0  0  0  0  0  0  0  0
    4.8815   -0.6684    3.7491 H   0  0  0  0  0  0  0  0  0  0  0  0
    6.3405    0.0155    3.0201 H   0  0  0  0  0  0  0  0  0  0  0  0
    5.0769    0.8037    1.0534 H   0  0  0  0  0  0  0  0  0  0  0  0
    3.1339    0.9652    3.4896 H   0  0  0  0  0  0  0  0  0  0  0  0
    3.0815    2.0519    2.0204 H   0  0  0  0  0  0  0  0  0  0  0  0
    1.8549   -1.4137    2.2145 H   0  0  0  0  0  0  0  0  0  0  0  0
    2.9067    0.9411   -0.2789 H   0  0  0  0  0  0  0  0  0  0  0  0
    3.0220   -0.8072   -0.4722 H   0  0  0  0  0  0  0  0  0  0  0  0
   -1.1128   -0.3332    0.2551 H   0  0  0  0  0  0  0  0  0  0  0  0
  1  2  1  0
  2  3  1  0
  3  4  1  0
  4  5  1  0
  5  6  1  0
  5  7  1  0
  7  8  1  0
  8  9  3  0
  5  3  1  0
  1 10  1  0
  2 11  1  0
  2 12  1  0
  3 13  1  0
  4 14  1  0
  4 15  1  0
  6 16  1  0
  7 17  1  0
  7 18  1  0
  9 19  1  0
M  END
$$$$
