
     RDKit          3D

 19 20  0  0  0  0  0  0  0  0999 V2000
    2.0893   -0.5599   -1.6504 C   0  0  0  0  0  0  0  0  0  0  0  0
    0.7025    0.0692   -1.4206 C   0  0  0  0  0  0  0  0  0  0  0  0
   -0.2549   -0.3706   -2.5108 C   0  0  0  0  0  0  0  0  0  0  0  0
   -0.9762    0.3621   -3.1399 O   0  0  0  0  0  0  0  0  0  0  0  0
    0.7478    1.5818   -1.2933 C   0  0  0  0  0  0  0  0  0  0  0  0
   -0.4404    2.3106   -0.6092 C   0  0  0  0  0  0  0  0  0  0  0  0
    0.4790    3.5168   -0.3115 C   0  0  0  0  0  0  0  0  0  0  0  0
    1.2181    2.2085    0.0514 C   0  0  0  0  0  0  0  0  0  0  0  0
   -0.0262    1.7207    0.6933 O   0  0  0  0  0  0  0  0  0  0  0  0
    2.7444   -0.3714   -0.7958 H   0  0  0  0  0  0  0  0  0  0  0  0
    2.0161   -1.6447   -1.7806 H   0  0  0  0  0  0  0  0  0  0  0  0
    2.5702   -0.1461   -2.5435 H   0  0  0  0  0  0  0  0  0  0  0  0
    0.2938   -0.3378   -0.4841 H   0  0  0  0  0  0  0  0  0  0  0  0
   -0.2536   -1.4700   -2.7011 H   0  0  0  0  0  0  0  0  0  0  0  0
    1.1281    2.0610   -2.2004 H   0  0  0  0  0  0  0  0  0  0  0  0
   -1.4989    2.2832   -0.8620 H   0  0  0  0  0  0  0  0  0  0  0  0
    0.8484    4.1059   -1.1545 H   0  0  0  0  0  0  0  0  0  0  0  0
    0.1787    4.1244    0.5421 H   0  0  0  0  0  0  0  0  0  0  0  0
    2.1511    2.0679    0.5990 H   0  0  0  0  0  0  0  0  0  0  0  0
  1  2  1  0
  2  3  1  0
  3  4  2  0
  2  5  1  0
  5  6  1  0
  6  7  1  0
  7  8  1  0
  8  9  1  0
  8  5  1  0
  9  6  1  0
  1 10  1  0
  1 11  1  0
  1 12  1  0
  2 13  1  0
  3 14  1  0
  5 15  1  0
  6 16  1  0
  7 17  1  0
  7 18  1  0
  8 19  1  0
M  END
$$$$
