
     RDKit          3D

 19 20  0  0  0  0  0  0  0  0999 V2000
    1.4528    0.0783   -0.0123 C   0  0  0  0  0  0  0  0  0  0  0  0
    0.0293    0.0154    0.0093 O   0  0  0  0  0  0  0  0  0  0  0  0
   -0.5262    0.5830    1.1597 C   0  0  0  0  0  0  0  0  0  0  0  0
   -0.2730   -0.0594    2.5250 C   0  0  0  0  0  0  0  0  0  0  0  0
   -1.5838    0.1653    3.2524 C   0  0  0  0  0  0  0  0  0  0  0  0
   -2.5111    0.7242    2.4688 C   0  0  0  0  0  0  0  0  0  0  0  0
   -1.9805    1.0334    1.1144 C   0  0  0  0  0  0  0  0  0  0  0  0
   -0.8416    2.0562    1.0677 C   0  0  0  0  0  0  0  0  0  0  0  0
   -0.5526    2.6957   -0.1342 O   0  0  0  0  0  0  0  0  0  0  0  0
    1.8924   -0.5083    0.8044 H   0  0  0  0  0  0  0  0  0  0  0  0
    1.7724   -0.3497   -0.9650 H   0  0  0  0  0  0  0  0  0  0  0  0
    1.8101    1.1135    0.0618 H   0  0  0  0  0  0  0  0  0  0  0  0
   -0.0507   -1.1306    2.4123 H   0  0  0  0  0  0  0  0  0  0  0  0
    0.5780    0.3877    3.0534 H   0  0  0  0  0  0  0  0  0  0  0  0
   -1.7219   -0.1101    4.2914 H   0  0  0  0  0  0  0  0  0  0  0  0
   -3.5223    0.9705    2.7718 H   0  0  0  0  0  0  0  0  0  0  0  0
   -2.5826    0.9225    0.2187 H   0  0  0  0  0  0  0  0  0  0  0  0
   -0.7024    2.7124    1.9220 H   0  0  0  0  0  0  0  0  0  0  0  0
   -0.3670    1.9962   -0.7753 H   0  0  0  0  0  0  0  0  0  0  0  0
  1  2  1  0
  2  3  1  0
  3  4  1  0
  4  5  1  0
  5  6  2  0
  6  7  1  0
  7  8  1  0
  8  9  1  0
  7  3  1  0
  8  3  1  0
  1 10  1  0
  1 11  1  0
  1 12  1  0
  4 13  1  0
  4 14  1  0
  5 15  1  0
  6 16  1  0
  7 17  1  0
  8 18  1  0
  9 19  1  0
M  END
$$$$
