gdb 1595	3.6268266	1.3135105	1.1743339	1.6263	75.67	-0.25386	0.08215	0.33601	1087.9265	0.157825	-422.484601	-422.477036	-422.476092	-422.516489	30.453
 OpenBabel02181911403D

 19 21  0  0  1  0  0  0  0  0999 V2000
    4.3653   -1.7941   -0.4916 O   0  0  0  0  0  0  0  0  0  0  0  0
    3.3016   -0.8884   -0.6320 C   0  0  2  0  0  0  0  0  0  0  0  0
    2.1952   -1.5567   -1.4310 C   0  0  2  0  0  0  0  0  0  0  0  0
    1.8764   -2.9771   -1.2391 C   0  0  0  0  0  0  0  0  0  0  0  0
    2.6621   -2.5515   -2.3632 O   0  0  0  0  0  0  0  0  0  0  0  0
    3.6593    0.6164   -0.9400 C   0  0  1  0  0  0  0  0  0  0  0  0
    2.3319    1.0094   -0.2292 C   0  0  0  0  0  0  0  0  0  0  0  0
    2.9601   -0.0985    0.6664 C   0  0  2  0  0  0  0  0  0  0  0  0
    4.3179    0.6494    0.4732 C   0  0  0  0  0  0  0  0  0  0  0  0
    4.3881   -2.3002   -1.3167 H   0  0  0  0  0  0  0  0  0  0  0  0
    1.4218   -0.9178   -1.8462 H   0  0  0  0  0  0  0  0  0  0  0  0
    2.4220   -3.5428   -0.4882 H   0  0  0  0  0  0  0  0  0  0  0  0
    0.8827   -3.3447   -1.4871 H   0  0  0  0  0  0  0  0  0  0  0  0
    4.0599    1.0240   -1.8696 H   0  0  0  0  0  0  0  0  0  0  0  0
    2.3212    2.0080    0.2124 H   0  0  0  0  0  0  0  0  0  0  0  0
    1.3832    0.8039   -0.7272 H   0  0  0  0  0  0  0  0  0  0  0  0
    2.5562   -0.5152    1.5906 H   0  0  0  0  0  0  0  0  0  0  0  0
    4.3827    1.6344    0.9418 H   0  0  0  0  0  0  0  0  0  0  0  0
    5.2261    0.0667    0.6081 H   0  0  0  0  0  0  0  0  0  0  0  0
  2  1  1  1  0  0  0
  2  8  1  0  0  0  0
  3 11  1  6  0  0  0
  3  4  1  0  0  0  0
  3  2  1  0  0  0  0
  4 12  1  0  0  0  0
  5  3  1  0  0  0  0
  5  4  1  0  0  0  0
  6 14  1  6  0  0  0
  6  2  1  0  0  0  0
  6  7  1  0  0  0  0
  6  9  1  0  0  0  0
  7 15  1  0  0  0  0
  7  8  1  0  0  0  0
  8 17  1  1  0  0  0
  9 19  1  0  0  0  0
  9  8  1  0  0  0  0
  9 18  1  0  0  0  0
 10  1  1  0  0  0  0
 13  4  1  0  0  0  0
 16  7  1  0  0  0  0
M TOR 0 0 1 2 3
M TOR 1 0 1 2 4
M TOR 2 0 1 2 10
M TOR 3 0 1 5 6
M TOR 4 0 1 5 8
M TOR 5 0 1 5 13
M TOR 6 0 1 7 6
M TOR 7 0 1 7 8
M TOR 8 0 1 7 16
M TOR 9 1 2 3 4
M TOR 10 1 2 3 11
M TOR 11 1 2 3 12
M TOR 12 1 5 6 7
M TOR 13 1 5 6 14
M TOR 14 1 5 6 15
M TOR 15 1 5 8 7
M TOR 16 1 5 8 17
M TOR 17 1 5 8 18
M TOR 18 1 7 6 14
M TOR 19 1 7 6 15
M TOR 20 1 7 8 17
M TOR 21 1 7 8 18
M TOR 22 2 1 0 9
M TOR 23 2 1 5 6
M TOR 24 2 1 5 8
M TOR 25 2 1 5 13
M TOR 26 2 1 7 6
M TOR 27 2 1 7 8
M TOR 28 2 1 7 16
M TOR 29 2 4 3 11
M TOR 30 2 4 3 12
M TOR 31 3 2 1 5
M TOR 32 3 2 1 7
M TOR 33 3 4 2 10
M TOR 34 4 2 1 5
M TOR 35 4 2 1 7
M TOR 36 5 1 0 9
M TOR 37 5 1 2 10
M TOR 38 5 1 7 16
M TOR 39 5 6 7 8
M TOR 40 5 6 7 16
M TOR 41 5 8 7 16
M TOR 42 6 5 8 17
M TOR 43 6 5 8 18
M TOR 44 6 7 8 17
M TOR 45 6 7 8 18
M TOR 46 7 1 0 9
M TOR 47 7 1 2 10
M TOR 48 7 1 5 13
M TOR 49 7 6 5 13
M TOR 50 7 8 5 13
M TOR 51 8 5 6 14
M TOR 52 8 5 6 15
M TOR 53 8 7 6 14
M TOR 54 8 7 6 15
M  END
$$$$
