gdb 6013	5.3931218	0.7665261	0.7469617	1.5831	74.69	-0.23191	0.05866	0.29057	1532.3851	0.15591	-422.469637	-422.461101	-422.460157	-422.503328	32.126
 OpenBabel02181911423D

 19 21  0  0  1  0  0  0  0  0999 V2000
    1.3209    0.2367    0.4895 O   0  0  0  0  0  0  0  0  0  0  0  0
    0.1189    0.0594   -0.2424 C   0  0  0  0  0  0  0  0  0  0  0  0
   -0.6297    1.3748   -0.4825 C   0  0  0  0  0  0  0  0  0  0  0  0
   -1.8919    1.1829   -1.2987 C   0  0  2  0  0  0  0  0  0  0  0  0
   -1.7574    1.2042   -2.8033 C   0  0  1  0  0  0  0  0  0  0  0  0
   -3.1204    0.9219   -3.5137 C   0  0  1  0  0  0  0  0  0  0  0  0
   -4.1362    0.6807   -2.5279 O   0  0  0  0  0  0  0  0  0  0  0  0
   -3.7513    2.0340   -2.8126 C   0  0  1  0  0  0  0  0  0  0  0  0
   -2.4159    2.3672   -2.0706 C   0  0  1  0  0  0  0  0  0  0  0  0
    1.0869    0.5695    1.3618 H   0  0  0  0  0  0  0  0  0  0  0  0
    0.4154   -0.3797   -1.2004 H   0  0  0  0  0  0  0  0  0  0  0  0
   -0.5492   -0.6654    0.2502 H   0  0  0  0  0  0  0  0  0  0  0  0
   -0.8908    1.8202    0.4884 H   0  0  0  0  0  0  0  0  0  0  0  0
    0.0503    2.0788   -0.9769 H   0  0  0  0  0  0  0  0  0  0  0  0
   -2.6204    0.5018   -0.8719 H   0  0  0  0  0  0  0  0  0  0  0  0
   -0.8021    1.1900   -3.3119 H   0  0  0  0  0  0  0  0  0  0  0  0
   -3.2731    0.5054   -4.5019 H   0  0  0  0  0  0  0  0  0  0  0  0
   -4.5324    2.7267   -3.1017 H   0  0  0  0  0  0  0  0  0  0  0  0
   -2.0387    3.3727   -1.9366 H   0  0  0  0  0  0  0  0  0  0  0  0
  1 10  1  0  0  0  0
  2 12  1  0  0  0  0
  2  1  1  0  0  0  0
  3  2  1  0  0  0  0
  3 13  1  0  0  0  0
  4 15  1  1  0  0  0
  4  3  1  0  0  0  0
  5 16  1  6  0  0  0
  5  9  1  0  0  0  0
  5  4  1  0  0  0  0
  6 17  1  6  0  0  0
  6  8  1  0  0  0  0
  6  5  1  0  0  0  0
  6  7  1  0  0  0  0
  8 18  1  6  0  0  0
  8  7  1  0  0  0  0
  8  9  1  0  0  0  0
  9 19  1  1  0  0  0
  9  4  1  0  0  0  0
 11  2  1  0  0  0  0
 14  3  1  0  0  0  0
M TOR 0 0 1 2 3
M TOR 1 0 1 2 12
M TOR 2 0 1 2 13
M TOR 3 1 2 3 4
M TOR 4 1 2 3 8
M TOR 5 1 2 3 14
M TOR 6 2 1 0 9
M TOR 7 2 3 4 5
M TOR 8 2 3 4 8
M TOR 9 2 3 4 15
M TOR 10 2 3 8 7
M TOR 11 2 3 8 18
M TOR 12 3 2 1 10
M TOR 13 3 2 1 11
M TOR 14 3 4 5 6
M TOR 15 3 4 5 7
M TOR 16 3 4 5 16
M TOR 17 3 4 8 7
M TOR 18 3 4 8 18
M TOR 19 3 8 4 5
M TOR 20 3 8 4 15
M TOR 21 3 8 7 5
M TOR 22 3 8 7 6
M TOR 23 3 8 7 17
M TOR 24 4 3 2 12
M TOR 25 4 3 2 13
M TOR 26 4 5 6 7
M TOR 27 4 5 7 8
M TOR 28 4 5 7 17
M TOR 29 4 8 3 14
M TOR 30 4 8 7 6
M TOR 31 4 8 7 17
M TOR 32 5 4 3 14
M TOR 33 5 4 8 18
M TOR 34 5 6 7 8
M TOR 35 5 6 7 17
M TOR 36 5 7 8 18
M TOR 37 6 5 4 8
M TOR 38 6 5 4 15
M TOR 39 6 7 5 16
M TOR 40 6 7 8 18
M TOR 41 7 5 4 15
M TOR 42 7 8 3 14
M TOR 43 7 8 4 15
M TOR 44 8 3 2 12
M TOR 45 8 3 2 13
M TOR 46 8 4 5 16
M TOR 47 8 7 5 16
M  END
$$$$
