
     RDKit          3D

 19 21  0  0  0  0  0  0  0  0999 V2000
    0.4066    0.0363    0.6976 O   0  0  0  0  0  0  0  0  0  0  0  0
   -0.8562    0.6072    0.9009 C   0  0  0  0  0  0  0  0  0  0  0  0
   -0.9342    2.0001    1.5656 C   0  0  0  0  0  0  0  0  0  0  0  0
   -1.8930    1.5283    2.5387 O   0  0  0  0  0  0  0  0  0  0  0  0
   -1.8033    0.1635    2.0591 C   0  0  0  0  0  0  0  0  0  0  0  0
   -2.9992   -0.3616    1.2506 C   0  0  0  0  0  0  0  0  0  0  0  0
   -3.1795    0.7485    0.1787 C   0  0  0  0  0  0  0  0  0  0  0  0
   -1.7727    0.2768   -0.2871 C   0  0  0  0  0  0  0  0  0  0  0  0
   -2.2385   -1.1560    0.1372 C   0  0  0  0  0  0  0  0  0  0  0  0
    0.9158    0.1191    1.5108 H   0  0  0  0  0  0  0  0  0  0  0  0
    0.0102    2.3037    2.0402 H   0  0  0  0  0  0  0  0  0  0  0  0
   -1.3168    2.8357    0.9678 H   0  0  0  0  0  0  0  0  0  0  0  0
   -1.4312   -0.5218    2.8282 H   0  0  0  0  0  0  0  0  0  0  0  0
   -3.8434   -0.7836    1.7959 H   0  0  0  0  0  0  0  0  0  0  0  0
   -3.9484    0.4897   -0.5519 H   0  0  0  0  0  0  0  0  0  0  0  0
   -3.3186    1.7742    0.5227 H   0  0  0  0  0  0  0  0  0  0  0  0
   -1.3813    0.4963   -1.2801 H   0  0  0  0  0  0  0  0  0  0  0  0
   -2.9201   -1.6114   -0.5837 H   0  0  0  0  0  0  0  0  0  0  0  0
   -1.4647   -1.8676    0.4351 H   0  0  0  0  0  0  0  0  0  0  0  0
  1  2  1  0
  2  3  1  0
  3  4  1  0
  4  5  1  0
  5  6  1  0
  6  7  1  0
  7  8  1  0
  8  9  1  0
  5  2  1  0
  9  6  1  0
  8  2  1  0
  1 10  1  0
  3 11  1  0
  3 12  1  0
  5 13  1  0
  6 14  1  0
  7 15  1  0
  7 16  1  0
  8 17  1  0
  9 18  1  0
  9 19  1  0
M  END
$$$$
