gdb 526	2.3695419	1.9351966	1.827124	1.1168	73.05	-0.25013	0.0769	0.32703000000000004	909.8601	0.158187	-422.522397	-422.515052	-422.514108	-422.553973	29.332
 OpenBabel02181911403D

 19 21  0  0  1  0  0  0  0  0999 V2000
    0.0811    2.1193    0.7600 C   0  0  0  0  0  0  0  0  0  0  0  0
    1.3109    1.6119   -0.0822 C   0  0  0  0  0  0  0  0  0  0  0  0
    0.3226    1.0259   -1.1242 C   0  0  2  0  0  0  0  0  0  0  0  0
   -0.1252    1.8832   -2.3430 C   0  0  0  0  0  0  0  0  0  0  0  0
   -1.3552    2.3907   -1.5007 C   0  0  0  0  0  0  0  0  0  0  0  0
   -0.8670    1.5167   -0.3095 C   0  0  2  0  0  0  0  0  0  0  0  0
   -1.5964    0.3661    0.0544 O   0  0  0  0  0  0  0  0  0  0  0  0
   -1.1426   -0.6578   -0.8256 C   0  0  0  0  0  0  0  0  0  0  0  0
    0.2080   -0.3784   -1.1812 O   0  0  0  0  0  0  0  0  0  0  0  0
   -0.0272    1.6365    1.7323 H   0  0  0  0  0  0  0  0  0  0  0  0
    0.0130    3.2018    0.8893 H   0  0  0  0  0  0  0  0  0  0  0  0
    1.9789    2.3907   -0.4569 H   0  0  0  0  0  0  0  0  0  0  0  0
    1.9040    0.8397    0.4098 H   0  0  0  0  0  0  0  0  0  0  0  0
    0.5828    2.6520   -2.6618 H   0  0  0  0  0  0  0  0  0  0  0  0
   -0.3964    1.2779   -3.2109 H   0  0  0  0  0  0  0  0  0  0  0  0
   -1.3903    3.4661   -1.3106 H   0  0  0  0  0  0  0  0  0  0  0  0
   -2.3254    2.0739   -1.8899 H   0  0  0  0  0  0  0  0  0  0  0  0
   -1.1834   -1.6191   -0.3060 H   0  0  0  0  0  0  0  0  0  0  0  0
   -1.7743   -0.6889   -1.7293 H   0  0  0  0  0  0  0  0  0  0  0  0
  1 11  1  0  0  0  0
  1 10  1  0  0  0  0
  2 13  1  0  0  0  0
  2  1  1  0  0  0  0
  3  9  1  6  0  0  0
  3  6  1  0  0  0  0
  3  2  1  0  0  0  0
  4  5  1  0  0  0  0
  4  3  1  0  0  0  0
  5 16  1  0  0  0  0
  5  6  1  0  0  0  0
  6  7  1  1  0  0  0
  6  1  1  0  0  0  0
  8 18  1  0  0  0  0
  8  7  1  0  0  0  0
  9  8  1  0  0  0  0
 12  2  1  0  0  0  0
 14  4  1  0  0  0  0
 15  4  1  0  0  0  0
 17  5  1  0  0  0  0
 19  8  1  0  0  0  0
M TOR 0 0 1 2 3
M TOR 1 0 1 2 5
M TOR 2 0 1 2 8
M TOR 3 0 5 2 3
M TOR 4 0 5 2 8
M TOR 5 0 5 4 3
M TOR 6 0 5 4 15
M TOR 7 0 5 4 16
M TOR 8 0 5 6 7
M TOR 9 1 0 5 4
M TOR 10 1 0 5 6
M TOR 11 1 2 3 4
M TOR 12 1 2 3 13
M TOR 13 1 2 3 14
M TOR 14 1 2 5 4
M TOR 15 1 2 5 6
M TOR 16 1 2 8 7
M TOR 17 2 1 0 9
M TOR 18 2 1 0 10
M TOR 19 2 3 4 5
M TOR 20 2 3 4 15
M TOR 21 2 3 4 16
M TOR 22 2 5 0 9
M TOR 23 2 5 0 10
M TOR 24 2 5 4 15
M TOR 25 2 5 4 16
M TOR 26 2 5 6 7
M TOR 27 2 8 7 6
M TOR 28 2 8 7 17
M TOR 29 2 8 7 18
M TOR 30 3 2 1 11
M TOR 31 3 2 1 12
M TOR 32 3 2 5 6
M TOR 33 3 2 8 7
M TOR 34 3 4 5 6
M TOR 35 4 3 2 8
M TOR 36 4 5 0 9
M TOR 37 4 5 0 10
M TOR 38 4 5 2 8
M TOR 39 4 5 6 7
M TOR 40 5 0 1 11
M TOR 41 5 0 1 12
M TOR 42 5 2 1 11
M TOR 43 5 2 1 12
M TOR 44 5 2 3 13
M TOR 45 5 2 3 14
M TOR 46 5 2 8 7
M TOR 47 5 4 3 13
M TOR 48 5 4 3 14
M TOR 49 5 6 7 8
M TOR 50 5 6 7 17
M TOR 51 5 6 7 18
M TOR 52 6 5 0 9
M TOR 53 6 5 0 10
M TOR 54 6 5 2 8
M TOR 55 6 5 4 15
M TOR 56 6 5 4 16
M TOR 57 8 2 1 11
M TOR 58 8 2 1 12
M TOR 59 8 2 3 13
M TOR 60 8 2 3 14
M  END
$$$$
