gdb 2905	3.0237967	1.3956785	1.0938628	2.4968	74.3	-0.25077	0.07872	0.32949	1140.551	0.157798	-422.542831	-422.534877	-422.533932	-422.574961	31.247
 OpenBabel02181911413D

 19 21  0  0  1  0  0  0  0  0999 V2000
   -0.0658   -0.0825   -0.0802 C   0  0  0  0  0  0  0  0  0  0  0  0
    1.4440   -0.0373   -0.1641 C   0  0  1  0  0  0  0  0  0  0  0  0
    2.2069    1.0593    0.5449 C   0  0  2  0  0  0  0  0  0  0  0  0
    3.5514    1.3668   -0.0348 C   0  0  1  0  0  0  0  0  0  0  0  0
    4.6321    1.3109    0.9170 O   0  0  0  0  0  0  0  0  0  0  0  0
    4.4063    0.1749    0.0656 C   0  0  1  0  0  0  0  0  0  0  0  0
    3.6835   -0.9363    0.8360 C   0  0  1  0  0  0  0  0  0  0  0  0
    4.3454   -1.2316    2.0509 O   0  0  0  0  0  0  0  0  0  0  0  0
    2.2750   -0.3714    1.0501 C   0  0  2  0  0  0  0  0  0  0  0  0
   -0.4165    0.2508    0.9020 H   0  0  0  0  0  0  0  0  0  0  0  0
   -0.5255    0.5642   -0.8355 H   0  0  0  0  0  0  0  0  0  0  0  0
   -0.4392   -1.1000   -0.2377 H   0  0  0  0  0  0  0  0  0  0  0  0
    1.8505   -0.3526   -1.1240 H   0  0  0  0  0  0  0  0  0  0  0  0
    1.6596    1.8312    1.0757 H   0  0  0  0  0  0  0  0  0  0  0  0
    3.6783    2.1090   -0.8191 H   0  0  0  0  0  0  0  0  0  0  0  0
    5.2101   -0.0501   -0.6297 H   0  0  0  0  0  0  0  0  0  0  0  0
    3.6672   -1.8717    0.2658 H   0  0  0  0  0  0  0  0  0  0  0  0
    4.5617   -0.3739    2.4411 H   0  0  0  0  0  0  0  0  0  0  0  0
    1.7662   -0.6690    1.9601 H   0  0  0  0  0  0  0  0  0  0  0  0
  1 10  1  0  0  0  0
  2 13  1  6  0  0  0
  2  1  1  0  0  0  0
  2  3  1  0  0  0  0
  2  9  1  0  0  0  0
  3  9  1  0  0  0  0
  3 14  1  1  0  0  0
  4 15  1  6  0  0  0
  4  6  1  0  0  0  0
  4  3  1  0  0  0  0
  4  5  1  0  0  0  0
  6 16  1  6  0  0  0
  6  7  1  0  0  0  0
  6  5  1  0  0  0  0
  7 17  1  6  0  0  0
  7  9  1  0  0  0  0
  7  8  1  0  0  0  0
  8 18  1  0  0  0  0
  9 19  1  1  0  0  0
 11  1  1  0  0  0  0
 12  1  1  0  0  0  0
M TOR 0 0 1 2 3
M TOR 1 0 1 2 8
M TOR 2 0 1 2 13
M TOR 3 0 1 8 6
M TOR 4 0 1 8 18
M TOR 5 1 2 3 4
M TOR 6 1 2 3 5
M TOR 7 1 2 3 14
M TOR 8 1 2 8 6
M TOR 9 1 2 8 18
M TOR 10 1 8 2 3
M TOR 11 1 8 2 13
M TOR 12 1 8 6 5
M TOR 13 1 8 6 7
M TOR 14 1 8 6 16
M TOR 15 2 1 0 9
M TOR 16 2 1 0 10
M TOR 17 2 1 0 11
M TOR 18 2 3 4 5
M TOR 19 2 3 5 6
M TOR 20 2 3 5 15
M TOR 21 2 8 1 12
M TOR 22 2 8 6 5
M TOR 23 2 8 6 7
M TOR 24 2 8 6 16
M TOR 25 3 2 1 12
M TOR 26 3 2 8 6
M TOR 27 3 2 8 18
M TOR 28 3 4 5 6
M TOR 29 3 4 5 15
M TOR 30 3 5 6 7
M TOR 31 3 5 6 8
M TOR 32 3 5 6 16
M TOR 33 4 3 2 8
M TOR 34 4 3 2 13
M TOR 35 4 5 3 14
M TOR 36 4 5 6 7
M TOR 37 4 5 6 8
M TOR 38 4 5 6 16
M TOR 39 5 3 2 8
M TOR 40 5 3 2 13
M TOR 41 5 6 7 17
M TOR 42 5 6 8 18
M TOR 43 6 5 3 14
M TOR 44 6 8 1 12
M TOR 45 6 8 2 13
M TOR 46 7 6 5 15
M TOR 47 7 6 8 18
M TOR 48 8 1 0 9
M TOR 49 8 1 0 10
M TOR 50 8 1 0 11
M TOR 51 8 2 3 14
M TOR 52 8 6 5 15
M TOR 53 8 6 7 17
M  END
$$$$
