gdb 4308	2.9807211	1.0149737	0.8671692	2.1487	79.06	-0.23643	-0.028	0.20843	1365.6315	0.155728	-422.582941	-422.573681	-422.572736	-422.618516	33.111
 OpenBabel02181911413D

 19 19  0  0  1  0  0  0  0  0999 V2000
   -3.9600    1.7180   -0.5691 O   0  0  0  0  0  0  0  0  0  0  0  0
   -3.2159    2.6886    0.1586 C   0  0  2  0  0  0  0  0  0  0  0  0
   -2.5127    3.5764   -0.8933 C   0  0  0  0  0  0  0  0  0  0  0  0
   -1.1173    3.0109   -0.9576 C   0  0  0  0  0  0  0  0  0  0  0  0
   -0.8615    2.1717    0.0485 C   0  0  0  0  0  0  0  0  0  0  0  0
    0.4106    1.4093    0.2994 C   0  0  0  0  0  0  0  0  0  0  0  0
    0.1903   -0.0617   -0.0274 C   0  0  0  0  0  0  0  0  0  0  0  0
    0.1323   -0.9442    0.7883 O   0  0  0  0  0  0  0  0  0  0  0  0
   -2.0609    2.0400    0.9643 C   0  0  0  0  0  0  0  0  0  0  0  0
   -4.3513    1.1075    0.0640 H   0  0  0  0  0  0  0  0  0  0  0  0
   -3.8848    3.2717    0.8062 H   0  0  0  0  0  0  0  0  0  0  0  0
   -3.0527    3.5212   -1.8441 H   0  0  0  0  0  0  0  0  0  0  0  0
   -2.5027    4.6318   -0.5899 H   0  0  0  0  0  0  0  0  0  0  0  0
   -0.4050    3.2905   -1.7268 H   0  0  0  0  0  0  0  0  0  0  0  0
    1.2108    1.7909   -0.3459 H   0  0  0  0  0  0  0  0  0  0  0  0
    0.7254    1.4805    1.3459 H   0  0  0  0  0  0  0  0  0  0  0  0
    0.0441   -0.2641   -1.1127 H   0  0  0  0  0  0  0  0  0  0  0  0
   -2.2908    0.9997    1.2271 H   0  0  0  0  0  0  0  0  0  0  0  0
   -1.8830    2.5670    1.9125 H   0  0  0  0  0  0  0  0  0  0  0  0
  1 10  1  0  0  0  0
  1  2  1  0  0  0  0
  2 11  1  1  0  0  0
  2  9  1  0  0  0  0
  3 13  1  0  0  0  0
  3  2  1  0  0  0  0
  4  3  1  0  0  0  0
  4  5  2  0  0  0  0
  5  6  1  0  0  0  0
  5  9  1  0  0  0  0
  6 16  1  0  0  0  0
  7  6  1  0  0  0  0
  7  8  2  0  0  0  0
  9 18  1  0  0  0  0
  9 19  1  0  0  0  0
 12  3  1  0  0  0  0
 14  4  1  0  0  0  0
 15  6  1  0  0  0  0
 17  7  1  0  0  0  0
M TOR 0 0 1 2 3
M TOR 1 0 1 2 11
M TOR 2 0 1 2 12
M TOR 3 0 1 8 4
M TOR 4 0 1 8 17
M TOR 5 0 1 8 18
M TOR 6 1 2 3 4
M TOR 7 1 2 3 13
M TOR 8 1 8 4 3
M TOR 9 1 8 4 5
M TOR 10 2 1 0 9
M TOR 11 2 1 8 4
M TOR 12 2 1 8 17
M TOR 13 2 1 8 18
M TOR 14 2 3 4 5
M TOR 15 2 3 4 8
M TOR 16 3 2 1 8
M TOR 17 3 2 1 10
M TOR 18 3 4 5 6
M TOR 19 3 4 5 14
M TOR 20 3 4 5 15
M TOR 21 3 4 8 17
M TOR 22 3 4 8 18
M TOR 23 4 3 2 11
M TOR 24 4 3 2 12
M TOR 25 4 5 6 7
M TOR 26 4 5 6 16
M TOR 27 4 8 1 10
M TOR 28 5 4 3 13
M TOR 29 5 4 8 17
M TOR 30 5 4 8 18
M TOR 31 6 5 4 8
M TOR 32 7 6 5 14
M TOR 33 7 6 5 15
M TOR 34 8 1 0 9
M TOR 35 8 1 2 11
M TOR 36 8 1 2 12
M TOR 37 8 4 3 13
M TOR 38 8 4 5 14
M TOR 39 8 4 5 15
M  END
$$$$
