gdb 4896	2.5938127	0.9692399	0.8170433	2.5001	79.54	-0.2474	0.04671	0.29411	1477.6732	0.153802	-422.506309	-422.495733	-422.494789	-422.54327	36.347
 OpenBabel02181911413D

 19 19  0  0  1  0  0  0  0  0999 V2000
    1.4348   -0.3094   -0.1144 C   0  0  0  0  0  0  0  0  0  0  0  0
   -0.0144   -0.1784   -0.0424 C   0  0  0  0  0  0  0  0  0  0  0  0
   -1.2154   -0.0973    0.0163 C   0  0  0  0  0  0  0  0  0  0  0  0
   -2.6672    0.0378    0.1170 C   0  0  0  0  0  0  0  0  0  0  0  0
   -3.1277    1.4920   -0.0017 C   0  0  2  0  0  0  0  0  0  0  0  0
   -3.2174    2.0551   -1.4122 C   0  0  0  0  0  0  0  0  0  0  0  0
   -2.1448    1.6673   -2.2474 O   0  0  0  0  0  0  0  0  0  0  0  0
   -2.9470    2.3872    1.1492 C   0  0  0  0  0  0  0  0  0  0  0  0
   -4.2376    1.8583    0.8199 O   0  0  0  0  0  0  0  0  0  0  0  0
    1.7878   -1.1375    0.5100 H   0  0  0  0  0  0  0  0  0  0  0  0
    1.7680   -0.5027   -1.1399 H   0  0  0  0  0  0  0  0  0  0  0  0
    1.9367    0.6009    0.2319 H   0  0  0  0  0  0  0  0  0  0  0  0
   -3.1564   -0.5628   -0.6596 H   0  0  0  0  0  0  0  0  0  0  0  0
   -3.0169   -0.3429    1.0834 H   0  0  0  0  0  0  0  0  0  0  0  0
   -4.1258    1.6599   -1.8827 H   0  0  0  0  0  0  0  0  0  0  0  0
   -3.3307    3.1487   -1.3560 H   0  0  0  0  0  0  0  0  0  0  0  0
   -1.3241    1.7423   -1.7480 H   0  0  0  0  0  0  0  0  0  0  0  0
   -2.5055    2.0015    2.0671 H   0  0  0  0  0  0  0  0  0  0  0  0
   -2.8289    3.4579    0.9883 H   0  0  0  0  0  0  0  0  0  0  0  0
  1  2  1  0  0  0  0
  1 12  1  0  0  0  0
  1 10  1  0  0  0  0
  2  3  3  0  0  0  0
  3  4  1  0  0  0  0
  4 14  1  0  0  0  0
  5  6  1  6  0  0  0
  5  4  1  0  0  0  0
  5  9  1  0  0  0  0
  5  8  1  0  0  0  0
  6 16  1  0  0  0  0
  7 17  1  0  0  0  0
  7  6  1  0  0  0  0
  8 18  1  0  0  0  0
  9  8  1  0  0  0  0
 11  1  1  0  0  0  0
 13  4  1  0  0  0  0
 15  6  1  0  0  0  0
 19  8  1  0  0  0  0
M TOR 0 0 1 2 3
M TOR 1 1 2 3 4
M TOR 2 1 2 3 12
M TOR 3 1 2 3 13
M TOR 4 2 1 0 9
M TOR 5 2 1 0 10
M TOR 6 2 1 0 11
M TOR 7 2 3 4 5
M TOR 8 2 3 4 7
M TOR 9 2 3 4 8
M TOR 10 3 4 5 6
M TOR 11 3 4 5 14
M TOR 12 3 4 5 15
M TOR 13 3 4 7 8
M TOR 14 3 4 7 17
M TOR 15 3 4 7 18
M TOR 16 4 5 6 16
M TOR 17 4 8 7 17
M TOR 18 4 8 7 18
M TOR 19 5 4 3 12
M TOR 20 5 4 3 13
M TOR 21 5 4 7 8
M TOR 22 5 4 7 17
M TOR 23 5 4 7 18
M TOR 24 6 5 4 7
M TOR 25 6 5 4 8
M TOR 26 7 4 3 12
M TOR 27 7 4 3 13
M TOR 28 7 4 5 14
M TOR 29 7 4 5 15
M TOR 30 8 4 3 12
M TOR 31 8 4 3 13
M TOR 32 8 4 5 14
M TOR 33 8 4 5 15
M  END
$$$$
