gdb 5514	2.6934496	1.4376538	1.1374765	2.8663	75.07	-0.23423	-0.00004	0.23418999999999998	1126.5921	0.155961	-422.517536	-422.508973	-422.508029	-422.550461	32.964
 OpenBabel02181911423D

 19 20  0  0  1  0  0  0  0  0999 V2000
   -2.9067   -1.4229    1.2312 C   0  0  0  0  0  0  0  0  0  0  0  0
   -1.9796   -0.5538    2.0349 C   0  0  1  0  0  0  0  0  0  0  0  0
   -1.9596    0.8708    1.6585 O   0  0  0  0  0  0  0  0  0  0  0  0
   -0.7407    0.8907    2.4707 C   0  0  1  0  0  0  0  0  0  0  0  0
   -1.2909    0.5422    3.8644 C   0  0  0  0  0  0  0  0  0  0  0  0
   -2.1347   -0.4475    3.5697 C   0  0  0  0  0  0  0  0  0  0  0  0
   -0.4074   -0.5268    1.9036 C   0  0  2  0  0  0  0  0  0  0  0  0
    0.1659   -0.5554    0.4956 C   0  0  0  0  0  0  0  0  0  0  0  0
    1.5137   -0.0992    0.4622 O   0  0  0  0  0  0  0  0  0  0  0  0
   -2.8456   -2.4621    1.5704 H   0  0  0  0  0  0  0  0  0  0  0  0
   -3.9403   -1.0841    1.3534 H   0  0  0  0  0  0  0  0  0  0  0  0
   -2.6609   -1.3907    0.1667 H   0  0  0  0  0  0  0  0  0  0  0  0
   -0.1055    1.7612    2.3185 H   0  0  0  0  0  0  0  0  0  0  0  0
   -1.0239    0.9926    4.8090 H   0  0  0  0  0  0  0  0  0  0  0  0
   -2.7736   -1.0524    4.1970 H   0  0  0  0  0  0  0  0  0  0  0  0
    0.1419   -1.1993    2.5722 H   0  0  0  0  0  0  0  0  0  0  0  0
    0.0795   -1.5703    0.0745 H   0  0  0  0  0  0  0  0  0  0  0  0
   -0.3992    0.1230   -0.1474 H   0  0  0  0  0  0  0  0  0  0  0  0
    2.0453   -0.7125    0.9799 H   0  0  0  0  0  0  0  0  0  0  0  0
  1 11  1  0  0  0  0
  1 10  1  0  0  0  0
  2  1  1  6  0  0  0
  2  6  1  0  0  0  0
  3  2  1  0  0  0  0
  3  4  1  0  0  0  0
  4 13  1  6  0  0  0
  4  5  1  0  0  0  0
  5 14  1  0  0  0  0
  6  5  2  0  0  0  0
  6 15  1  0  0  0  0
  7  2  1  0  0  0  0
  7  4  1  0  0  0  0
  7 16  1  1  0  0  0
  8  7  1  0  0  0  0
  9  8  1  0  0  0  0
  9 19  1  0  0  0  0
 12  1  1  0  0  0  0
 17  8  1  0  0  0  0
 18  8  1  0  0  0  0
M TOR 0 0 1 2 3
M TOR 1 0 1 5 4
M TOR 2 0 1 5 14
M TOR 3 0 1 6 3
M TOR 4 0 1 6 7
M TOR 5 0 1 6 15
M TOR 6 1 2 3 4
M TOR 7 1 2 3 6
M TOR 8 1 2 3 12
M TOR 9 1 5 4 3
M TOR 10 1 5 4 13
M TOR 11 1 6 3 4
M TOR 12 1 6 3 12
M TOR 13 1 6 7 8
M TOR 14 1 6 7 16
M TOR 15 1 6 7 17
M TOR 16 2 1 0 9
M TOR 17 2 1 0 10
M TOR 18 2 1 0 11
M TOR 19 2 1 5 4
M TOR 20 2 1 5 14
M TOR 21 2 1 6 7
M TOR 22 2 1 6 15
M TOR 23 2 3 4 5
M TOR 24 2 3 4 13
M TOR 25 2 3 6 7
M TOR 26 2 3 6 15
M TOR 27 3 2 1 5
M TOR 28 3 4 5 14
M TOR 29 3 6 1 5
M TOR 30 3 6 7 8
M TOR 31 3 6 7 16
M TOR 32 3 6 7 17
M TOR 33 4 3 6 7
M TOR 34 4 3 6 15
M TOR 35 4 5 1 6
M TOR 36 5 1 0 9
M TOR 37 5 1 0 10
M TOR 38 5 1 0 11
M TOR 39 5 1 6 7
M TOR 40 5 1 6 15
M TOR 41 5 4 3 6
M TOR 42 5 4 3 12
M TOR 43 6 1 0 9
M TOR 44 6 1 0 10
M TOR 45 6 1 0 11
M TOR 46 6 1 5 14
M TOR 47 6 3 4 13
M TOR 48 6 7 8 18
M TOR 49 7 6 3 12
M TOR 50 8 7 6 15
M  END
$$$$
