gdb 3341	3.125786	1.2202727	1.0718875	2.5421	75.75	-0.23485	0.06768	0.30253	1191.0026	0.156133	-422.484374	-422.475843	-422.474899	-422.517775	31.672
 OpenBabel02181911413D

 19 21  0  0  1  0  0  0  0  0999 V2000
    2.0405    1.2127   -0.9859 C   0  0  0  0  0  0  0  0  0  0  0  0
    1.3848   -0.0868   -0.5767 C   0  0  1  0  0  0  0  0  0  0  0  0
    1.6071   -1.3891   -1.2835 C   0  0  1  0  0  0  0  0  0  0  0  0
    2.9367   -1.4932   -1.7936 O   0  0  0  0  0  0  0  0  0  0  0  0
    3.4759   -1.4457   -0.4447 C   0  0  0  0  0  0  0  0  0  0  0  0
    2.0872   -1.2271    0.1524 C   0  0  1  0  0  0  0  0  0  0  0  0
    1.6050   -1.8141    1.4220 C   0  0  2  0  0  0  0  0  0  0  0  0
    2.4789   -1.9912    2.5920 C   0  0  0  0  0  0  0  0  0  0  0  0
    2.1141   -3.1070    1.7784 O   0  0  0  0  0  0  0  0  0  0  0  0
    2.2428    1.8527   -0.1208 H   0  0  0  0  0  0  0  0  0  0  0  0
    2.9810    1.0244   -1.5086 H   0  0  0  0  0  0  0  0  0  0  0  0
    1.3901    1.7683   -1.6695 H   0  0  0  0  0  0  0  0  0  0  0  0
    0.3557    0.0091   -0.2310 H   0  0  0  0  0  0  0  0  0  0  0  0
    0.8430   -2.0123   -1.7351 H   0  0  0  0  0  0  0  0  0  0  0  0
    3.8956   -2.4175   -0.1665 H   0  0  0  0  0  0  0  0  0  0  0  0
    4.2264   -0.6565   -0.3214 H   0  0  0  0  0  0  0  0  0  0  0  0
    0.5363   -1.6949    1.6073 H   0  0  0  0  0  0  0  0  0  0  0  0
    3.5243   -1.6905    2.5304 H   0  0  0  0  0  0  0  0  0  0  0  0
    2.0541   -1.9797    3.5950 H   0  0  0  0  0  0  0  0  0  0  0  0
  1  2  1  0  0  0  0
  1 10  1  0  0  0  0
  2 13  1  1  0  0  0
  2  6  1  0  0  0  0
  3 14  1  6  0  0  0
  3  2  1  0  0  0  0
  3  6  1  0  0  0  0
  4  3  1  0  0  0  0
  4  5  1  0  0  0  0
  5 16  1  0  0  0  0
  5 15  1  0  0  0  0
  6  5  1  1  0  0  0
  6  7  1  0  0  0  0
  7 17  1  1  0  0  0
  7  9  1  0  0  0  0
  7  8  1  0  0  0  0
  8 19  1  0  0  0  0
  9  8  1  0  0  0  0
 11  1  1  0  0  0  0
 12  1  1  0  0  0  0
 18  8  1  0  0  0  0
M TOR 0 0 1 2 3
M TOR 1 0 1 2 5
M TOR 2 0 1 2 13
M TOR 3 0 1 5 4
M TOR 4 0 1 5 6
M TOR 5 1 2 3 4
M TOR 6 1 2 5 4
M TOR 7 1 2 5 6
M TOR 8 1 5 2 3
M TOR 9 1 5 2 13
M TOR 10 1 5 4 3
M TOR 11 1 5 4 14
M TOR 12 1 5 4 15
M TOR 13 1 5 6 7
M TOR 14 1 5 6 8
M TOR 15 1 5 6 16
M TOR 16 2 1 0 9
M TOR 17 2 1 0 10
M TOR 18 2 1 0 11
M TOR 19 2 3 4 5
M TOR 20 2 3 4 14
M TOR 21 2 3 4 15
M TOR 22 2 5 1 12
M TOR 23 2 5 4 14
M TOR 24 2 5 4 15
M TOR 25 2 5 6 7
M TOR 26 2 5 6 8
M TOR 27 2 5 6 16
M TOR 28 3 2 1 12
M TOR 29 3 2 5 6
M TOR 30 3 4 5 6
M TOR 31 4 3 2 13
M TOR 32 4 5 1 12
M TOR 33 4 5 2 13
M TOR 34 4 5 6 7
M TOR 35 4 5 6 8
M TOR 36 4 5 6 16
M TOR 37 5 1 0 9
M TOR 38 5 1 0 10
M TOR 39 5 1 0 11
M TOR 40 5 6 7 8
M TOR 41 5 6 7 17
M TOR 42 5 6 7 18
M TOR 43 6 5 1 12
M TOR 44 6 5 2 13
M TOR 45 6 5 4 14
M TOR 46 6 5 4 15
M TOR 47 6 8 7 17
M TOR 48 6 8 7 18
M TOR 49 7 8 6 16
M  END
$$$$
