
     RDKit          3D

 19 20  0  0  0  0  0  0  0  0999 V2000
   -0.0232    1.5726   -0.0921 C   0  0  0  0  0  0  0  0  0  0  0  0
   -0.0179    0.0463    0.0154 C   0  0  0  0  0  0  0  0  0  0  0  0
   -1.4177   -0.5637    0.1655 C   0  0  0  0  0  0  0  0  0  0  0  0
   -1.3206   -1.6554    0.9111 C   0  0  0  0  0  0  0  0  0  0  0  0
   -1.8653   -2.4385    2.0784 C   0  0  0  0  0  0  0  0  0  0  0  0
   -0.5492   -2.3434    2.7089 O   0  0  0  0  0  0  0  0  0  0  0  0
    0.0474   -1.8807    1.4594 C   0  0  0  0  0  0  0  0  0  0  0  0
    0.7248   -0.4980    1.3048 C   0  0  0  0  0  0  0  0  0  0  0  0
    0.4428    0.2707    2.4544 O   0  0  0  0  0  0  0  0  0  0  0  0
    0.9964    1.9736   -0.1322 H   0  0  0  0  0  0  0  0  0  0  0  0
   -0.5360    1.8968   -1.0029 H   0  0  0  0  0  0  0  0  0  0  0  0
   -0.5397    2.0227    0.7610 H   0  0  0  0  0  0  0  0  0  0  0  0
    0.4986   -0.3593   -0.8674 H   0  0  0  0  0  0  0  0  0  0  0  0
   -2.3159   -0.0700   -0.1875 H   0  0  0  0  0  0  0  0  0  0  0  0
   -2.6532   -1.9608    2.6703 H   0  0  0  0  0  0  0  0  0  0  0  0
   -2.1316   -3.4860    1.8852 H   0  0  0  0  0  0  0  0  0  0  0  0
    0.6619   -2.6767    1.0161 H   0  0  0  0  0  0  0  0  0  0  0  0
    1.8099   -0.5711    1.1377 H   0  0  0  0  0  0  0  0  0  0  0  0
    0.9149    1.1049    2.3745 H   0  0  0  0  0  0  0  0  0  0  0  0
  1  2  1  0
  2  3  1  0
  3  4  2  0
  4  5  1  0
  5  6  1  0
  6  7  1  0
  7  8  1  0
  8  9  1  0
  8  2  1  0
  7  4  1  0
  1 10  1  0
  1 11  1  0
  1 12  1  0
  2 13  1  0
  3 14  1  0
  5 15  1  0
  5 16  1  0
  7 17  1  0
  8 18  1  0
  9 19  1  0
M  END
$$$$
