
     RDKit          3D

 19 20  0  0  0  0  0  0  0  0999 V2000
   -1.3573    3.8997   -0.5175 O   0  0  0  0  0  0  0  0  0  0  0  0
   -1.1905    2.4850   -0.4743 C   0  0  0  0  0  0  0  0  0  0  0  0
   -1.2322    1.9782   -1.9285 C   0  0  0  0  0  0  0  0  0  0  0  0
    0.2288    2.0426   -2.4335 C   0  0  0  0  0  0  0  0  0  0  0  0
    1.0743    1.8697   -1.1794 C   0  0  0  0  0  0  0  0  0  0  0  0
    0.6947    0.7070   -0.2620 C   0  0  0  0  0  0  0  0  0  0  0  0
    1.7489    0.1734    0.6256 C   0  0  0  0  0  0  0  0  0  0  0  0
    1.8553   -0.9810    0.9587 O   0  0  0  0  0  0  0  0  0  0  0  0
    0.2111    2.1294    0.0113 C   0  0  0  0  0  0  0  0  0  0  0  0
   -1.2846    4.2394    0.3803 H   0  0  0  0  0  0  0  0  0  0  0  0
   -1.9783    2.0266    0.1405 H   0  0  0  0  0  0  0  0  0  0  0  0
   -1.6107    0.9529   -1.9553 H   0  0  0  0  0  0  0  0  0  0  0  0
   -1.9139    2.5934   -2.5186 H   0  0  0  0  0  0  0  0  0  0  0  0
    0.4393    1.2922   -3.2016 H   0  0  0  0  0  0  0  0  0  0  0  0
    0.4406    3.0261   -2.8656 H   0  0  0  0  0  0  0  0  0  0  0  0
    2.1170    2.1684   -1.1968 H   0  0  0  0  0  0  0  0  0  0  0  0
   -0.0119   -0.0384   -0.6114 H   0  0  0  0  0  0  0  0  0  0  0  0
    2.4740    0.9447    0.9834 H   0  0  0  0  0  0  0  0  0  0  0  0
    0.5879    2.6246    0.9017 H   0  0  0  0  0  0  0  0  0  0  0  0
  1  2  1  0
  2  3  1  0
  3  4  1  0
  4  5  1  0
  5  6  1  0
  6  7  1  0
  7  8  2  0
  6  9  1  0
  9  2  1  0
  9  5  1  0
  1 10  1  0
  2 11  1  0
  3 12  1  0
  3 13  1  0
  4 14  1  0
  4 15  1  0
  5 16  1  0
  6 17  1  0
  7 18  1  0
  9 19  1  0
M  END
$$$$
