gdb 1174	4.5531762	0.598415	0.5825314	1.819	78.7	-0.26305	0.01385	0.2769	1868.9392	0.153535	-422.561465	-422.55073	-422.549786	-422.599277	36.375
 OpenBabel02181911403D

 19 18  0  0  0  0  0  0  0  0999 V2000
    2.7749    0.3387    0.7019 C   0  0  0  0  0  0  0  0  0  0  0  0
    1.2974    0.1606    0.4496 C   0  0  0  0  0  0  0  0  0  0  0  0
    0.4121    0.5086    1.1893 O   0  0  0  0  0  0  0  0  0  0  0  0
    1.0916   -0.4490   -0.7406 O   0  0  0  0  0  0  0  0  0  0  0  0
   -0.2791   -0.6820   -1.1116 C   0  0  0  0  0  0  0  0  0  0  0  0
   -0.7940   -1.9972   -0.5359 C   0  0  0  0  0  0  0  0  0  0  0  0
   -2.2378   -2.2834   -0.9957 C   0  0  0  0  0  0  0  0  0  0  0  0
   -2.7518   -3.5472   -0.4831 C   0  0  0  0  0  0  0  0  0  0  0  0
   -3.1533   -4.5937   -0.0499 C   0  0  0  0  0  0  0  0  0  0  0  0
    2.9222    0.8362    1.6596 H   0  0  0  0  0  0  0  0  0  0  0  0
    3.2734   -0.6347    0.7056 H   0  0  0  0  0  0  0  0  0  0  0  0
    3.2240    0.9299   -0.1010 H   0  0  0  0  0  0  0  0  0  0  0  0
   -0.8897    0.1579   -0.7695 H   0  0  0  0  0  0  0  0  0  0  0  0
   -0.2740   -0.7050   -2.2051 H   0  0  0  0  0  0  0  0  0  0  0  0
   -0.1388   -2.8160   -0.8502 H   0  0  0  0  0  0  0  0  0  0  0  0
   -0.7622   -1.9494    0.5560 H   0  0  0  0  0  0  0  0  0  0  0  0
   -2.8941   -1.4648   -0.6725 H   0  0  0  0  0  0  0  0  0  0  0  0
   -2.2809   -2.2923   -2.0933 H   0  0  0  0  0  0  0  0  0  0  0  0
   -3.5187   -5.5155    0.3296 H   0  0  0  0  0  0  0  0  0  0  0  0
  1 11  1  0  0  0  0
  1 10  1  0  0  0  0
  2  1  1  0  0  0  0
  2  3  2  0  0  0  0
  4  2  1  0  0  0  0
  5 13  1  0  0  0  0
  5  4  1  0  0  0  0
  5  6  1  0  0  0  0
  6 16  1  0  0  0  0
  7 17  1  0  0  0  0
  7  6  1  0  0  0  0
  7  8  1  0  0  0  0
  8  9  3  0  0  0  0
  9 19  1  0  0  0  0
 12  1  1  0  0  0  0
 14  5  1  0  0  0  0
 15  6  1  0  0  0  0
 18  7  1  0  0  0  0
M TOR 0 0 1 3 4
M TOR 1 1 3 4 5
M TOR 2 1 3 4 12
M TOR 3 1 3 4 13
M TOR 4 2 1 0 9
M TOR 5 2 1 0 10
M TOR 6 2 1 0 11
M TOR 7 2 1 3 4
M TOR 8 3 1 0 9
M TOR 9 3 1 0 10
M TOR 10 3 1 0 11
M TOR 11 3 4 5 6
M TOR 12 3 4 5 14
M TOR 13 3 4 5 15
M TOR 14 4 5 6 7
M TOR 15 4 5 6 16
M TOR 16 4 5 6 17
M TOR 17 5 6 7 8
M TOR 18 6 5 4 12
M TOR 19 6 5 4 13
M TOR 20 6 7 8 18
M TOR 21 7 6 5 14
M TOR 22 7 6 5 15
M TOR 23 8 7 6 16
M TOR 24 8 7 6 17
M  END
$$$$
