
     RDKit          3D

 19 21  0  0  0  0  0  0  0  0999 V2000
   -0.5282    3.9031   -0.8773 C   0  0  0  0  0  0  0  0  0  0  0  0
    0.2134    2.6251   -1.2756 C   0  0  0  0  0  0  0  0  0  0  0  0
   -0.6759    1.3495   -1.1474 C   0  0  0  0  0  0  0  0  0  0  0  0
   -0.0057    0.2823   -0.2943 C   0  0  0  0  0  0  0  0  0  0  0  0
    0.8048    0.7421    0.9028 C   0  0  0  0  0  0  0  0  0  0  0  0
    1.0995    2.1237    0.9238 O   0  0  0  0  0  0  0  0  0  0  0  0
    1.4686    2.4160   -0.4202 C   0  0  0  0  0  0  0  0  0  0  0  0
    2.1783    1.2776   -0.8951 O   0  0  0  0  0  0  0  0  0  0  0  0
    1.5095    0.1888   -0.2990 C   0  0  0  0  0  0  0  0  0  0  0  0
   -0.8316    3.8563    0.1731 H   0  0  0  0  0  0  0  0  0  0  0  0
    0.1029    4.7894   -1.0083 H   0  0  0  0  0  0  0  0  0  0  0  0
   -1.4261    4.0397   -1.4881 H   0  0  0  0  0  0  0  0  0  0  0  0
    0.5646    2.7211   -2.3092 H   0  0  0  0  0  0  0  0  0  0  0  0
   -1.6380    1.6138   -0.6934 H   0  0  0  0  0  0  0  0  0  0  0  0
   -0.9020    0.9421   -2.1381 H   0  0  0  0  0  0  0  0  0  0  0  0
   -0.5416   -0.6553   -0.1781 H   0  0  0  0  0  0  0  0  0  0  0  0
    0.7554    0.2995    1.8886 H   0  0  0  0  0  0  0  0  0  0  0  0
    2.1398    3.2789   -0.4214 H   0  0  0  0  0  0  0  0  0  0  0  0
    2.0640   -0.7382   -0.3538 H   0  0  0  0  0  0  0  0  0  0  0  0
  1  2  1  0
  2  3  1  0
  3  4  1  0
  4  5  1  0
  5  6  1  0
  6  7  1  0
  7  8  1  0
  8  9  1  0
  7  2  1  0
  9  4  1  0
  9  5  1  0
  1 10  1  0
  1 11  1  0
  1 12  1  0
  2 13  1  0
  3 14  1  0
  3 15  1  0
  4 16  1  0
  5 17  1  0
  7 18  1  0
  9 19  1  0
M  END
$$$$
