
     RDKit          3D

 19 20  0  0  0  0  0  0  0  0999 V2000
    1.2382    0.1921    0.2871 O   0  0  0  0  0  0  0  0  0  0  0  0
    0.0540    0.0571    0.1820 C   0  0  0  0  0  0  0  0  0  0  0  0
   -0.7269   -1.1975   -0.1986 C   0  0  0  0  0  0  0  0  0  0  0  0
   -2.1657   -0.8662    0.2038 C   0  0  0  0  0  0  0  0  0  0  0  0
   -2.1892    0.6792    0.1557 C   0  0  0  0  0  0  0  0  0  0  0  0
   -0.8180    1.0789    0.3956 O   0  0  0  0  0  0  0  0  0  0  0  0
   -2.6762    1.2519   -1.1507 C   0  0  0  0  0  0  0  0  0  0  0  0
   -4.1359    1.6082   -1.3018 C   0  0  0  0  0  0  0  0  0  0  0  0
   -3.0951    2.6955   -1.2283 C   0  0  0  0  0  0  0  0  0  0  0  0
   -0.6154   -1.3496   -1.2779 H   0  0  0  0  0  0  0  0  0  0  0  0
   -0.2996   -2.0698    0.2971 H   0  0  0  0  0  0  0  0  0  0  0  0
   -2.9225   -1.2998   -0.4523 H   0  0  0  0  0  0  0  0  0  0  0  0
   -2.3648   -1.2113    1.2222 H   0  0  0  0  0  0  0  0  0  0  0  0
   -2.7763    1.1027    0.9766 H   0  0  0  0  0  0  0  0  0  0  0  0
   -2.1850    0.8420   -2.0299 H   0  0  0  0  0  0  0  0  0  0  0  0
   -4.6144    1.4095   -2.2539 H   0  0  0  0  0  0  0  0  0  0  0  0
   -4.7851    1.4677   -0.4433 H   0  0  0  0  0  0  0  0  0  0  0  0
   -2.8582    3.2471   -2.1307 H   0  0  0  0  0  0  0  0  0  0  0  0
   -3.0375    3.2857   -0.3199 H   0  0  0  0  0  0  0  0  0  0  0  0
  1  2  2  0
  2  3  1  0
  3  4  1  0
  4  5  1  0
  5  6  1  0
  5  7  1  0
  7  8  1  0
  8  9  1  0
  6  2  1  0
  9  7  1  0
  3 10  1  0
  3 11  1  0
  4 12  1  0
  4 13  1  0
  5 14  1  0
  7 15  1  0
  8 16  1  0
  8 17  1  0
  9 18  1  0
  9 19  1  0
M  END
$$$$
