
     RDKit          3D

 19 21  0  0  0  0  0  0  0  0999 V2000
   -3.7689    0.7792    0.9752 C   0  0  0  0  0  0  0  0  0  0  0  0
   -2.6137   -0.0846    1.3991 C   0  0  0  0  0  0  0  0  0  0  0  0
   -2.6653   -1.4041    2.2156 C   0  0  0  0  0  0  0  0  0  0  0  0
   -1.1779   -1.1682    1.9174 C   0  0  0  0  0  0  0  0  0  0  0  0
   -0.0697   -1.9601    2.2004 O   0  0  0  0  0  0  0  0  0  0  0  0
   -1.4465   -0.6185    0.4847 C   0  0  0  0  0  0  0  0  0  0  0  0
   -0.5824    0.6348    0.7478 C   0  0  0  0  0  0  0  0  0  0  0  0
    0.8140    0.5276    0.6766 O   0  0  0  0  0  0  0  0  0  0  0  0
   -1.2896    0.3921    2.1009 C   0  0  0  0  0  0  0  0  0  0  0  0
   -4.3233    1.1474    1.8456 H   0  0  0  0  0  0  0  0  0  0  0  0
   -3.4303    1.6488    0.4025 H   0  0  0  0  0  0  0  0  0  0  0  0
   -4.4698    0.2177    0.3478 H   0  0  0  0  0  0  0  0  0  0  0  0
   -2.9877   -1.3196    3.2599 H   0  0  0  0  0  0  0  0  0  0  0  0
   -3.1374   -2.2649    1.7300 H   0  0  0  0  0  0  0  0  0  0  0  0
    0.0200   -2.0323    3.1575 H   0  0  0  0  0  0  0  0  0  0  0  0
   -1.5616   -1.2205   -0.4184 H   0  0  0  0  0  0  0  0  0  0  0  0
   -0.8558    1.5453    0.2063 H   0  0  0  0  0  0  0  0  0  0  0  0
    1.0594   -0.2985    1.1133 H   0  0  0  0  0  0  0  0  0  0  0  0
   -1.2233    0.9439    3.0412 H   0  0  0  0  0  0  0  0  0  0  0  0
  1  2  1  0
  2  3  1  0
  3  4  1  0
  4  5  1  0
  4  6  1  0
  6  7  1  0
  7  8  1  0
  7  9  1  0
  6  2  1  0
  9  2  1  0
  9  4  1  0
  1 10  1  0
  1 11  1  0
  1 12  1  0
  3 13  1  0
  3 14  1  0
  5 15  1  0
  6 16  1  0
  7 17  1  0
  8 18  1  0
  9 19  1  0
M  END
$$$$
