gdb 2236	3.312129	1.7006844	1.3861277	1.9575	74.21	-0.24242	0.07411	0.31653	975.6384	0.157927	-422.538756	-422.531319	-422.530375	-422.570379	29.463
 OpenBabel02181911413D

 19 21  0  0  1  0  0  0  0  0999 V2000
    0.0422   -0.0453    0.0338 C   0  0  0  0  0  0  0  0  0  0  0  0
    1.5412   -0.0167   -0.0797 C   0  0  1  0  0  0  0  0  0  0  0  0
    2.2365    0.3454   -1.4140 C   0  0  0  0  0  0  0  0  0  0  0  0
    3.3629   -0.6886   -1.0903 C   0  0  1  0  0  0  0  0  0  0  0  0
    4.5738   -0.1327   -0.6016 O   0  0  0  0  0  0  0  0  0  0  0  0
    4.5310   -0.0032    0.8201 C   0  0  0  0  0  0  0  0  0  0  0  0
    3.1197   -0.3688    1.2588 C   0  0  1  0  0  0  0  0  0  0  0  0
    2.1656    0.6968    1.0264 O   0  0  0  0  0  0  0  0  0  0  0  0
    2.5303   -1.2076    0.1149 C   0  0  1  0  0  0  0  0  0  0  0  0
   -0.2689   -0.4635    0.9959 H   0  0  0  0  0  0  0  0  0  0  0  0
   -0.3587    0.9721   -0.0387 H   0  0  0  0  0  0  0  0  0  0  0  0
   -0.4001   -0.6430   -0.7696 H   0  0  0  0  0  0  0  0  0  0  0  0
    1.6455    0.0365   -2.2823 H   0  0  0  0  0  0  0  0  0  0  0  0
    2.5512    1.3846   -1.5291 H   0  0  0  0  0  0  0  0  0  0  0  0
    3.6053   -1.3880   -1.8931 H   0  0  0  0  0  0  0  0  0  0  0  0
    5.2682   -0.6813    1.2745 H   0  0  0  0  0  0  0  0  0  0  0  0
    4.7784    1.0258    1.1054 H   0  0  0  0  0  0  0  0  0  0  0  0
    3.0624   -0.7416    2.2861 H   0  0  0  0  0  0  0  0  0  0  0  0
    2.2778   -2.2583    0.2341 H   0  0  0  0  0  0  0  0  0  0  0  0
  1 10  1  0  0  0  0
  2  1  1  1  0  0  0
  2  9  1  0  0  0  0
  2  8  1  0  0  0  0
  3  4  1  0  0  0  0
  3  2  1  0  0  0  0
  4 15  1  6  0  0  0
  4  5  1  0  0  0  0
  4  9  1  0  0  0  0
  5  6  1  0  0  0  0
  6 17  1  0  0  0  0
  6  7  1  0  0  0  0
  6 16  1  0  0  0  0
  7 18  1  1  0  0  0
  8  7  1  0  0  0  0
  9 19  1  1  0  0  0
  9  7  1  0  0  0  0
 11  1  1  0  0  0  0
 12  1  1  0  0  0  0
 13  3  1  0  0  0  0
 14  3  1  0  0  0  0
M TOR 0 0 1 2 3
M TOR 1 0 1 2 12
M TOR 2 0 1 2 13
M TOR 3 0 1 7 6
M TOR 4 0 1 8 3
M TOR 5 0 1 8 6
M TOR 6 0 1 8 18
M TOR 7 1 2 3 4
M TOR 8 1 2 3 8
M TOR 9 1 2 3 14
M TOR 10 1 7 6 5
M TOR 11 1 7 6 8
M TOR 12 1 7 6 17
M TOR 13 1 8 3 4
M TOR 14 1 8 3 14
M TOR 15 1 8 6 5
M TOR 16 1 8 6 17
M TOR 17 2 1 0 9
M TOR 18 2 1 0 10
M TOR 19 2 1 0 11
M TOR 20 2 1 7 6
M TOR 21 2 1 8 6
M TOR 22 2 1 8 18
M TOR 23 2 3 4 5
M TOR 24 2 3 8 6
M TOR 25 2 3 8 18
M TOR 26 3 2 1 7
M TOR 27 3 4 5 6
M TOR 28 3 4 5 15
M TOR 29 3 4 5 16
M TOR 30 3 8 1 7
M TOR 31 3 8 6 5
M TOR 32 3 8 6 7
M TOR 33 3 8 6 17
M TOR 34 4 3 2 12
M TOR 35 4 3 2 13
M TOR 36 4 3 8 6
M TOR 37 4 3 8 18
M TOR 38 4 5 6 7
M TOR 39 4 5 6 8
M TOR 40 4 5 6 17
M TOR 41 5 4 3 8
M TOR 42 5 4 3 14
M TOR 43 5 6 8 18
M TOR 44 6 8 3 14
M TOR 45 7 1 0 9
M TOR 46 7 1 0 10
M TOR 47 7 1 0 11
M TOR 48 7 1 2 12
M TOR 49 7 1 2 13
M TOR 50 7 1 8 18
M TOR 51 7 6 5 15
M TOR 52 7 6 5 16
M TOR 53 7 6 8 18
M TOR 54 8 1 0 9
M TOR 55 8 1 0 10
M TOR 56 8 1 0 11
M TOR 57 8 1 2 12
M TOR 58 8 1 2 13
M TOR 59 8 3 2 12
M TOR 60 8 3 2 13
M TOR 61 8 6 5 15
M TOR 62 8 6 5 16
M  END
$$$$
