
     RDKit          3D

 19 19  0  0  0  0  0  0  0  0999 V2000
    4.3714   -0.5439   -1.0349 O   0  0  0  0  0  0  0  0  0  0  0  0
    4.2850    0.6658   -1.7726 C   0  0  0  0  0  0  0  0  0  0  0  0
    3.6544    0.3271   -3.1286 C   0  0  0  0  0  0  0  0  0  0  0  0
    2.1596    0.1694   -3.0497 C   0  0  0  0  0  0  0  0  0  0  0  0
    1.4152    0.6053   -2.0351 C   0  0  0  0  0  0  0  0  0  0  0  0
    1.9998    1.3242   -0.8351 C   0  0  0  0  0  0  0  0  0  0  0  0
    3.4634    1.7401   -1.0471 C   0  0  0  0  0  0  0  0  0  0  0  0
    1.7768    0.4751    0.4063 C   0  0  0  0  0  0  0  0  0  0  0  0
    2.6402    0.0758    1.1503 O   0  0  0  0  0  0  0  0  0  0  0  0
    4.1948   -0.3546   -0.1046 H   0  0  0  0  0  0  0  0  0  0  0  0
    5.2970    1.0656   -1.9442 H   0  0  0  0  0  0  0  0  0  0  0  0
    3.9067    1.1021   -3.8668 H   0  0  0  0  0  0  0  0  0  0  0  0
    4.1090   -0.6003   -3.4947 H   0  0  0  0  0  0  0  0  0  0  0  0
    1.6716   -0.3209   -3.8890 H   0  0  0  0  0  0  0  0  0  0  0  0
    0.3390    0.4521   -2.0377 H   0  0  0  0  0  0  0  0  0  0  0  0
    1.3870    2.2238   -0.6571 H   0  0  0  0  0  0  0  0  0  0  0  0
    3.4865    2.6568   -1.6466 H   0  0  0  0  0  0  0  0  0  0  0  0
    3.9257    1.9745   -0.0824 H   0  0  0  0  0  0  0  0  0  0  0  0
    0.7094    0.2353    0.6078 H   0  0  0  0  0  0  0  0  0  0  0  0
  1  2  1  0
  2  3  1  0
  3  4  1  0
  4  5  2  0
  5  6  1  0
  6  7  1  0
  6  8  1  0
  8  9  2  0
  7  2  1  0
  1 10  1  0
  2 11  1  0
  3 12  1  0
  3 13  1  0
  4 14  1  0
  5 15  1  0
  6 16  1  0
  7 17  1  0
  7 18  1  0
  8 19  1  0
M  END
$$$$
