gdb 5900	2.3206092	0.9731639	0.7471253	2.5379	78.08	-0.24643	-0.02321	0.22322	1534.2093	0.152425	-422.541337	-422.530235	-422.529291	-422.579426	37.947
 OpenBabel02181911423D

 19 18  0  0  1  0  0  0  0  0999 V2000
    3.4498   -2.3676   -0.7127 C   0  0  0  0  0  0  0  0  0  0  0  0
    3.5713   -1.3234    0.3772 C   0  0  0  0  0  0  0  0  0  0  0  0
    4.1781   -1.5137    1.4007 O   0  0  0  0  0  0  0  0  0  0  0  0
    2.8883    0.0456    0.0968 C   0  0  2  0  0  0  0  0  0  0  0  0
    3.2411    1.0832    1.1790 C   0  0  0  0  0  0  0  0  0  0  0  0
    2.7165    2.4846    0.8640 C   0  0  0  0  0  0  0  0  0  0  0  0
    3.1225    3.4392    1.8316 O   0  0  0  0  0  0  0  0  0  0  0  0
    1.4476   -0.1506   -0.0529 C   0  0  0  0  0  0  0  0  0  0  0  0
    0.2625   -0.3351   -0.1439 C   0  0  0  0  0  0  0  0  0  0  0  0
    3.8890   -3.3064   -0.3744 H   0  0  0  0  0  0  0  0  0  0  0  0
    2.4025   -2.5138   -0.9905 H   0  0  0  0  0  0  0  0  0  0  0  0
    3.9754   -2.0235   -1.6115 H   0  0  0  0  0  0  0  0  0  0  0  0
    3.2840    0.3900   -0.8719 H   0  0  0  0  0  0  0  0  0  0  0  0
    2.8410    0.7390    2.1392 H   0  0  0  0  0  0  0  0  0  0  0  0
    4.3285    1.1195    1.2884 H   0  0  0  0  0  0  0  0  0  0  0  0
    3.1319    2.8368   -0.0876 H   0  0  0  0  0  0  0  0  0  0  0  0
    1.6226    2.4642    0.7511 H   0  0  0  0  0  0  0  0  0  0  0  0
    2.7190    3.1960    2.6710 H   0  0  0  0  0  0  0  0  0  0  0  0
   -0.7850   -0.4851   -0.2348 H   0  0  0  0  0  0  0  0  0  0  0  0
  1 10  1  0  0  0  0
  1  2  1  0  0  0  0
  2  3  2  0  0  0  0
  4 13  1  6  0  0  0
  4  2  1  0  0  0  0
  4  5  1  0  0  0  0
  5 15  1  0  0  0  0
  5 14  1  0  0  0  0
  6  5  1  0  0  0  0
  6  7  1  0  0  0  0
  7 18  1  0  0  0  0
  8  4  1  0  0  0  0
  9  8  3  0  0  0  0
 11  1  1  0  0  0  0
 12  1  1  0  0  0  0
 16  6  1  0  0  0  0
 17  6  1  0  0  0  0
 19  9  1  0  0  0  0
M TOR 0 0 1 3 4
M TOR 1 0 1 3 7
M TOR 2 0 1 3 12
M TOR 3 1 3 4 5
M TOR 4 1 3 4 13
M TOR 5 1 3 4 14
M TOR 6 1 3 7 8
M TOR 7 2 1 0 9
M TOR 8 2 1 0 10
M TOR 9 2 1 0 11
M TOR 10 2 1 3 4
M TOR 11 2 1 3 7
M TOR 12 2 1 3 12
M TOR 13 3 1 0 9
M TOR 14 3 1 0 10
M TOR 15 3 1 0 11
M TOR 16 3 4 5 6
M TOR 17 3 4 5 15
M TOR 18 3 4 5 16
M TOR 19 3 7 8 18
M TOR 20 4 3 7 8
M TOR 21 4 5 6 17
M TOR 22 5 4 3 7
M TOR 23 5 4 3 12
M TOR 24 6 5 4 13
M TOR 25 6 5 4 14
M TOR 26 7 3 4 13
M TOR 27 7 3 4 14
M TOR 28 8 7 3 12
M  END
$$$$
