
     RDKit          3D

 19 21  0  0  0  0  0  0  0  0999 V2000
    2.0895    0.7199    1.2285 C   0  0  0  0  0  0  0  0  0  0  0  0
    1.7452   -0.6045    0.5615 C   0  0  0  0  0  0  0  0  0  0  0  0
    2.6243   -1.8344    0.8191 C   0  0  0  0  0  0  0  0  0  0  0  0
    1.8962   -2.8736    0.0900 O   0  0  0  0  0  0  0  0  0  0  0  0
    1.4973   -2.2261   -1.1749 C   0  0  0  0  0  0  0  0  0  0  0  0
    2.2155   -0.9197   -0.9320 C   0  0  0  0  0  0  0  0  0  0  0  0
    3.0589    0.1693   -1.5870 C   0  0  0  0  0  0  0  0  0  0  0  0
    4.1314   -0.1098   -0.6317 O   0  0  0  0  0  0  0  0  0  0  0  0
    3.5579   -1.4171   -0.3428 C   0  0  0  0  0  0  0  0  0  0  0  0
    1.7936    0.6808    2.2827 H   0  0  0  0  0  0  0  0  0  0  0  0
    3.1519    0.9564    1.1760 H   0  0  0  0  0  0  0  0  0  0  0  0
    1.5297    1.5426    0.7693 H   0  0  0  0  0  0  0  0  0  0  0  0
    0.6836   -0.8230    0.7140 H   0  0  0  0  0  0  0  0  0  0  0  0
    2.9037   -2.2394    1.7922 H   0  0  0  0  0  0  0  0  0  0  0  0
    1.8827   -2.8080   -2.0174 H   0  0  0  0  0  0  0  0  0  0  0  0
    0.4046   -2.1789   -1.2275 H   0  0  0  0  0  0  0  0  0  0  0  0
    3.3826   -0.0469   -2.6133 H   0  0  0  0  0  0  0  0  0  0  0  0
    2.7083    1.2031   -1.5148 H   0  0  0  0  0  0  0  0  0  0  0  0
    4.1464   -2.2209   -0.7944 H   0  0  0  0  0  0  0  0  0  0  0  0
  1  2  1  0
  2  3  1  0
  3  4  1  0
  4  5  1  0
  5  6  1  0
  6  7  1  0
  7  8  1  0
  8  9  1  0
  6  2  1  0
  9  6  1  0
  9  3  1  0
  1 10  1  0
  1 11  1  0
  1 12  1  0
  2 13  1  0
  3 14  1  0
  5 15  1  0
  5 16  1  0
  7 17  1  0
  7 18  1  0
  9 19  1  0
M  END
$$$$
