
     RDKit          3D

 19 21  0  0  0  0  0  0  0  0999 V2000
   -0.1368    1.3804    0.1992 C   0  0  0  0  0  0  0  0  0  0  0  0
    0.1335   -0.1277    0.0854 C   0  0  0  0  0  0  0  0  0  0  0  0
    1.5375    0.1792   -0.3366 O   0  0  0  0  0  0  0  0  0  0  0  0
    1.2607    1.0713    0.8163 C   0  0  0  0  0  0  0  0  0  0  0  0
    2.1728    1.9647    1.5929 C   0  0  0  0  0  0  0  0  0  0  0  0
    1.3774    2.2267    2.9057 C   0  0  0  0  0  0  0  0  0  0  0  0
    0.7848    0.9475    3.5402 C   0  0  0  0  0  0  0  0  0  0  0  0
   -0.0771    0.1981    2.6720 O   0  0  0  0  0  0  0  0  0  0  0  0
    0.6765   -0.1435    1.5384 C   0  0  0  0  0  0  0  0  0  0  0  0
   -0.1087    1.9267   -0.7443 H   0  0  0  0  0  0  0  0  0  0  0  0
   -0.9332    1.7017    0.8708 H   0  0  0  0  0  0  0  0  0  0  0  0
   -0.3880   -0.8975   -0.4823 H   0  0  0  0  0  0  0  0  0  0  0  0
    3.1087    1.4362    1.8110 H   0  0  0  0  0  0  0  0  0  0  0  0
    2.4209    2.9029    1.0871 H   0  0  0  0  0  0  0  0  0  0  0  0
    2.0245    2.7055    3.6483 H   0  0  0  0  0  0  0  0  0  0  0  0
    0.5608    2.9265    2.6958 H   0  0  0  0  0  0  0  0  0  0  0  0
    1.6056    0.2968    3.8853 H   0  0  0  0  0  0  0  0  0  0  0  0
    0.1777    1.2097    4.4103 H   0  0  0  0  0  0  0  0  0  0  0  0
    1.3960   -0.9490    1.7330 H   0  0  0  0  0  0  0  0  0  0  0  0
  1  2  1  0
  2  3  1  0
  3  4  1  0
  4  5  1  0
  5  6  1  0
  6  7  1  0
  7  8  1  0
  8  9  1  0
  4  1  1  0
  9  4  1  0
  9  2  1  0
  1 10  1  0
  1 11  1  0
  2 12  1  0
  5 13  1  0
  5 14  1  0
  6 15  1  0
  6 16  1  0
  7 17  1  0
  7 18  1  0
  9 19  1  0
M  END
$$$$
