
     RDKit          3D

 19 18  0  0  0  0  0  0  0  0999 V2000
   -6.6910   -0.5425    2.1387 C   0  0  0  0  0  0  0  0  0  0  0  0
   -5.2583   -0.5074    2.1560 O   0  0  0  0  0  0  0  0  0  0  0  0
   -4.6743   -0.2087    0.9782 C   0  0  0  0  0  0  0  0  0  0  0  0
   -5.2896    0.0183   -0.0339 O   0  0  0  0  0  0  0  0  0  0  0  0
   -3.1661   -0.2018    1.1127 C   0  0  0  0  0  0  0  0  0  0  0  0
   -2.4684    0.1520   -0.2109 C   0  0  0  0  0  0  0  0  0  0  0  0
   -1.0151    0.1561   -0.0868 C   0  0  0  0  0  0  0  0  0  0  0  0
    0.1823    0.1529    0.0404 C   0  0  0  0  0  0  0  0  0  0  0  0
    1.6320    0.1532    0.1780 C   0  0  0  0  0  0  0  0  0  0  0  0
   -6.9940   -0.7910    3.1559 H   0  0  0  0  0  0  0  0  0  0  0  0
   -7.0976    0.4283    1.8444 H   0  0  0  0  0  0  0  0  0  0  0  0
   -7.0503   -1.2994    1.4368 H   0  0  0  0  0  0  0  0  0  0  0  0
   -2.8896    0.5057    1.9016 H   0  0  0  0  0  0  0  0  0  0  0  0
   -2.8447   -1.1854    1.4718 H   0  0  0  0  0  0  0  0  0  0  0  0
   -2.7842   -0.5593   -0.9825 H   0  0  0  0  0  0  0  0  0  0  0  0
   -2.8253    1.1302   -0.5530 H   0  0  0  0  0  0  0  0  0  0  0  0
    1.9341   -0.0277    1.2156 H   0  0  0  0  0  0  0  0  0  0  0  0
    2.0920   -0.6260   -0.4400 H   0  0  0  0  0  0  0  0  0  0  0  0
    2.0617    1.1137   -0.1278 H   0  0  0  0  0  0  0  0  0  0  0  0
  1  2  1  0
  2  3  1  0
  3  4  2  0
  3  5  1  0
  5  6  1  0
  6  7  1  0
  7  8  3  0
  8  9  1  0
  1 10  1  0
  1 11  1  0
  1 12  1  0
  5 13  1  0
  5 14  1  0
  6 15  1  0
  6 16  1  0
  9 17  1  0
  9 18  1  0
  9 19  1  0
M  END
$$$$
