gdb 608	3.1994655	1.5793846	1.2166723	2.263	76.49	-0.24793	0.01605	0.26398	1046.004	0.159858	-422.573084	-422.565646	-422.564702	-422.605198	28.749
 OpenBabel02181911403D

 19 20  0  0  1  0  0  0  0  0999 V2000
   -0.3134    0.3688   -1.2825 C   0  0  0  0  0  0  0  0  0  0  0  0
    0.0150   -0.0923    0.1459 C   0  0  0  0  0  0  0  0  0  0  0  0
    0.8930    1.0676    0.6698 C   0  0  1  0  0  0  0  0  0  0  0  0
    1.8589    0.7421    1.7739 C   0  0  0  0  0  0  0  0  0  0  0  0
    3.1610    0.6069    1.5339 C   0  0  0  0  0  0  0  0  0  0  0  0
    3.7198    0.7168    0.1412 C   0  0  0  0  0  0  0  0  0  0  0  0
    2.7240    0.6249   -0.8604 O   0  0  0  0  0  0  0  0  0  0  0  0
    1.6136    1.4803   -0.6213 C   0  0  1  0  0  0  0  0  0  0  0  0
    0.7048    1.3117   -1.6582 O   0  0  0  0  0  0  0  0  0  0  0  0
   -0.3208   -0.4569   -2.0014 H   0  0  0  0  0  0  0  0  0  0  0  0
   -1.2834    0.8787   -1.3373 H   0  0  0  0  0  0  0  0  0  0  0  0
   -0.8801   -0.2635    0.7479 H   0  0  0  0  0  0  0  0  0  0  0  0
    0.6028   -1.0130    0.1303 H   0  0  0  0  0  0  0  0  0  0  0  0
    0.2423    1.8964    0.9788 H   0  0  0  0  0  0  0  0  0  0  0  0
    1.4645    0.6412    2.7815 H   0  0  0  0  0  0  0  0  0  0  0  0
    3.8687    0.4140    2.3357 H   0  0  0  0  0  0  0  0  0  0  0  0
    4.2944    1.6567    0.0388 H   0  0  0  0  0  0  0  0  0  0  0  0
    4.4223   -0.1007   -0.0566 H   0  0  0  0  0  0  0  0  0  0  0  0
    1.9529    2.5275   -0.6220 H   0  0  0  0  0  0  0  0  0  0  0  0
  1  2  1  0  0  0  0
  2  3  1  0  0  0  0
  2 12  1  0  0  0  0
  3 14  1  1  0  0  0
  3  4  1  0  0  0  0
  4 15  1  0  0  0  0
  5  4  2  0  0  0  0
  5 16  1  0  0  0  0
  6  5  1  0  0  0  0
  7  8  1  0  0  0  0
  7  6  1  0  0  0  0
  8 19  1  1  0  0  0
  8  3  1  0  0  0  0
  9  1  1  0  0  0  0
  9  8  1  0  0  0  0
 10  1  1  0  0  0  0
 11  1  1  0  0  0  0
 13  2  1  0  0  0  0
 17  6  1  0  0  0  0
 18  6  1  0  0  0  0
M TOR 0 0 1 2 3
M TOR 1 0 1 2 7
M TOR 2 0 1 2 13
M TOR 3 0 8 7 2
M TOR 4 0 8 7 6
M TOR 5 0 8 7 18
M TOR 6 1 0 8 7
M TOR 7 1 2 3 4
M TOR 8 1 2 3 14
M TOR 9 1 2 7 6
M TOR 10 1 2 7 8
M TOR 11 1 2 7 18
M TOR 12 2 1 0 8
M TOR 13 2 1 0 9
M TOR 14 2 1 0 10
M TOR 15 2 3 4 5
M TOR 16 2 3 4 15
M TOR 17 2 7 6 5
M TOR 18 3 2 1 11
M TOR 19 3 2 1 12
M TOR 20 3 2 7 6
M TOR 21 3 2 7 8
M TOR 22 3 2 7 18
M TOR 23 3 4 5 6
M TOR 24 3 4 5 16
M TOR 25 3 4 5 17
M TOR 26 4 3 2 7
M TOR 27 4 3 2 13
M TOR 28 4 5 6 7
M TOR 29 5 4 3 14
M TOR 30 5 6 7 8
M TOR 31 5 6 7 18
M TOR 32 6 5 4 15
M TOR 33 6 7 2 13
M TOR 34 7 2 1 11
M TOR 35 7 2 1 12
M TOR 36 7 2 3 14
M TOR 37 7 6 5 16
M TOR 38 7 6 5 17
M TOR 39 7 8 0 9
M TOR 40 7 8 0 10
M TOR 41 8 0 1 11
M TOR 42 8 0 1 12
M TOR 43 8 7 2 13
M  END
$$$$
