
     RDKit          3D

 19 21  0  0  0  0  0  0  0  0999 V2000
    0.5876    0.5806    0.7502 O   0  0  0  0  0  0  0  0  0  0  0  0
   -0.7290    0.8762    1.0887 C   0  0  0  0  0  0  0  0  0  0  0  0
   -1.3021    2.1479    0.4794 C   0  0  0  0  0  0  0  0  0  0  0  0
   -2.6928    2.0033    1.1394 C   0  0  0  0  0  0  0  0  0  0  0  0
   -2.3026    1.9011    2.6384 C   0  0  0  0  0  0  0  0  0  0  0  0
   -1.1878    0.8409    2.5888 C   0  0  0  0  0  0  0  0  0  0  0  0
   -1.7677   -0.4766    2.4056 O   0  0  0  0  0  0  0  0  0  0  0  0
   -1.8412   -0.2251    0.9784 C   0  0  0  0  0  0  0  0  0  0  0  0
   -3.1074    0.5881    0.6548 C   0  0  0  0  0  0  0  0  0  0  0  0
    0.8336   -0.2394    1.1931 H   0  0  0  0  0  0  0  0  0  0  0  0
   -0.7591    3.0445    0.7932 H   0  0  0  0  0  0  0  0  0  0  0  0
   -1.3299    2.1131   -0.6138 H   0  0  0  0  0  0  0  0  0  0  0  0
   -3.4138    2.7895    0.9115 H   0  0  0  0  0  0  0  0  0  0  0  0
   -1.9161    2.8605    3.0005 H   0  0  0  0  0  0  0  0  0  0  0  0
   -3.1194    1.5864    3.2934 H   0  0  0  0  0  0  0  0  0  0  0  0
   -0.4553    0.8659    3.3996 H   0  0  0  0  0  0  0  0  0  0  0  0
   -1.6780   -1.1289    0.3859 H   0  0  0  0  0  0  0  0  0  0  0  0
   -3.3051    0.5943   -0.4231 H   0  0  0  0  0  0  0  0  0  0  0  0
   -3.9825    0.1782    1.1660 H   0  0  0  0  0  0  0  0  0  0  0  0
  1  2  1  0
  2  3  1  0
  3  4  1  0
  4  5  1  0
  5  6  1  0
  6  7  1  0
  7  8  1  0
  8  9  1  0
  6  2  1  0
  8  2  1  0
  9  4  1  0
  1 10  1  0
  3 11  1  0
  3 12  1  0
  4 13  1  0
  5 14  1  0
  5 15  1  0
  6 16  1  0
  8 17  1  0
  9 18  1  0
  9 19  1  0
M  END
$$$$
