
     RDKit          3D

 19 20  0  0  0  0  0  0  0  0999 V2000
    1.0067   -0.3728   -0.7275 O   0  0  0  0  0  0  0  0  0  0  0  0
    0.1984   -0.0608    0.1107 C   0  0  0  0  0  0  0  0  0  0  0  0
    0.1684    1.2555    0.8310 C   0  0  0  0  0  0  0  0  0  0  0  0
   -0.9730    2.2196    0.4058 C   0  0  0  0  0  0  0  0  0  0  0  0
   -0.0328    3.2553    0.0780 O   0  0  0  0  0  0  0  0  0  0  0  0
    1.1062    2.3998    0.3636 C   0  0  0  0  0  0  0  0  0  0  0  0
    1.8930    2.8596    1.5849 C   0  0  0  0  0  0  0  0  0  0  0  0
    0.9907    2.4792    2.7754 C   0  0  0  0  0  0  0  0  0  0  0  0
    0.3706    1.1276    2.3587 C   0  0  0  0  0  0  0  0  0  0  0  0
   -0.6099   -0.7686    0.4125 H   0  0  0  0  0  0  0  0  0  0  0  0
   -1.5531    1.8976   -0.4695 H   0  0  0  0  0  0  0  0  0  0  0  0
   -1.6656    2.5169    1.2037 H   0  0  0  0  0  0  0  0  0  0  0  0
    1.7066    2.2197   -0.5313 H   0  0  0  0  0  0  0  0  0  0  0  0
    2.8392    2.3054    1.6244 H   0  0  0  0  0  0  0  0  0  0  0  0
    2.1298    3.9260    1.5386 H   0  0  0  0  0  0  0  0  0  0  0  0
    1.5306    2.4153    3.7234 H   0  0  0  0  0  0  0  0  0  0  0  0
    0.2049    3.2318    2.8962 H   0  0  0  0  0  0  0  0  0  0  0  0
    1.0748    0.3128    2.5682 H   0  0  0  0  0  0  0  0  0  0  0  0
   -0.5594    0.8977    2.8875 H   0  0  0  0  0  0  0  0  0  0  0  0
  1  2  2  0
  2  3  1  0
  3  4  1  0
  4  5  1  0
  5  6  1  0
  6  7  1  0
  7  8  1  0
  8  9  1  0
  6  3  1  0
  9  3  1  0
  2 10  1  0
  4 11  1  0
  4 12  1  0
  6 13  1  0
  7 14  1  0
  7 15  1  0
  8 16  1  0
  8 17  1  0
  9 18  1  0
  9 19  1  0
M  END
$$$$
