gdb 6084	8.4639718	0.5388852	0.5304272	1.2221	81.27	-0.25724	0.01997	0.27721	2063.1525	0.153454	-422.481814	-422.471525	-422.470581	-422.518188	35.466
 OpenBabel02181911423D

 19 19  0  0  1  0  0  0  0  0999 V2000
    1.3831   -0.0599   -0.1728 C   0  0  0  0  0  0  0  0  0  0  0  0
   -0.0145    0.0672   -0.0650 O   0  0  0  0  0  0  0  0  0  0  0  0
   -0.4192    0.6517    1.1519 C   0  0  0  0  0  0  0  0  0  0  0  0
   -1.9439    0.7154    1.1656 C   0  0  0  0  0  0  0  0  0  0  0  0
   -2.4658    1.3627    2.4228 C   0  0  2  0  0  0  0  0  0  0  0  0
   -2.4141    0.5854    3.6205 O   0  0  0  0  0  0  0  0  0  0  0  0
   -3.7083    0.9092    3.0826 C   0  0  1  0  0  0  0  0  0  0  0  0
   -4.5377    1.8056    3.8422 C   0  0  0  0  0  0  0  0  0  0  0  0
   -5.2513    2.5440    4.4670 C   0  0  0  0  0  0  0  0  0  0  0  0
    1.7991   -0.6934    0.6266 H   0  0  0  0  0  0  0  0  0  0  0  0
    1.5959   -0.5246   -1.1386 H   0  0  0  0  0  0  0  0  0  0  0  0
    1.8876    0.9187   -0.1304 H   0  0  0  0  0  0  0  0  0  0  0  0
   -0.0610    0.0592    2.0097 H   0  0  0  0  0  0  0  0  0  0  0  0
    0.0091    1.6646    1.2555 H   0  0  0  0  0  0  0  0  0  0  0  0
   -2.2848    1.2849    0.2928 H   0  0  0  0  0  0  0  0  0  0  0  0
   -2.3441   -0.2994    1.0750 H   0  0  0  0  0  0  0  0  0  0  0  0
   -2.1914    2.4083    2.5725 H   0  0  0  0  0  0  0  0  0  0  0  0
   -4.2270    0.0578    2.6426 H   0  0  0  0  0  0  0  0  0  0  0  0
   -5.8778    3.1983    5.0214 H   0  0  0  0  0  0  0  0  0  0  0  0
  1 12  1  0  0  0  0
  1  2  1  0  0  0  0
  1 10  1  0  0  0  0
  2  3  1  0  0  0  0
  3  4  1  0  0  0  0
  3 14  1  0  0  0  0
  3 13  1  0  0  0  0
  4  5  1  0  0  0  0
  5 17  1  1  0  0  0
  5  7  1  0  0  0  0
  5  6  1  0  0  0  0
  7 18  1  6  0  0  0
  7  6  1  0  0  0  0
  7  8  1  0  0  0  0
  8  9  3  0  0  0  0
  9 19  1  0  0  0  0
 11  1  1  0  0  0  0
 15  4  1  0  0  0  0
 16  4  1  0  0  0  0
M TOR 0 0 1 2 3
M TOR 1 0 1 2 12
M TOR 2 0 1 2 13
M TOR 3 1 2 3 4
M TOR 4 1 2 3 14
M TOR 5 1 2 3 15
M TOR 6 2 1 0 9
M TOR 7 2 1 0 10
M TOR 8 2 1 0 11
M TOR 9 2 3 4 5
M TOR 10 2 3 4 6
M TOR 11 2 3 4 16
M TOR 12 3 4 5 6
M TOR 13 3 4 6 7
M TOR 14 3 4 6 17
M TOR 15 4 3 2 12
M TOR 16 4 3 2 13
M TOR 17 4 5 6 7
M TOR 18 4 5 6 17
M TOR 19 4 6 7 8
M TOR 20 5 4 3 14
M TOR 21 5 4 3 15
M TOR 22 5 6 4 16
M TOR 23 5 6 7 8
M TOR 24 6 4 3 14
M TOR 25 6 4 3 15
M TOR 26 6 7 8 18
M TOR 27 7 6 4 16
M TOR 28 8 7 6 17
M  END
$$$$
