gdb 770	2.317896	1.8871941	1.2832441	3.0438	74.33	-0.26213	-0.00841	0.25371999999999995	1027.0487	0.158754	-422.57615	-422.568346	-422.567402	-422.608326	30.377
 OpenBabel02181911403D

 19 20  0  0  1  0  0  0  0  0999 V2000
    2.4114    0.3182    0.4847 O   0  0  0  0  0  0  0  0  0  0  0  0
    2.0925    0.1448   -0.6579 C   0  0  0  0  0  0  0  0  0  0  0  0
    3.0066   -0.1352   -1.6511 O   0  0  0  0  0  0  0  0  0  0  0  0
    3.5363   -1.4711   -1.5419 C   0  0  0  0  0  0  0  0  0  0  0  0
    2.4909   -2.5421   -1.8766 C   0  0  0  0  0  0  0  0  0  0  0  0
    1.2195   -2.5020   -0.9953 C   0  0  0  0  0  0  0  0  0  0  0  0
    0.2574   -1.3810   -1.3732 C   0  0  1  0  0  0  0  0  0  0  0  0
   -0.3907   -0.4882   -0.3365 C   0  0  0  0  0  0  0  0  0  0  0  0
    0.7031    0.0608   -1.2016 C   0  0  1  0  0  0  0  0  0  0  0  0
    4.3694   -1.5110   -2.2472 H   0  0  0  0  0  0  0  0  0  0  0  0
    3.9320   -1.6154   -0.5286 H   0  0  0  0  0  0  0  0  0  0  0  0
    2.2088   -2.4534   -2.9327 H   0  0  0  0  0  0  0  0  0  0  0  0
    2.9828   -3.5160   -1.7610 H   0  0  0  0  0  0  0  0  0  0  0  0
    0.6947   -3.4605   -1.0744 H   0  0  0  0  0  0  0  0  0  0  0  0
    1.5124   -2.4043    0.0571 H   0  0  0  0  0  0  0  0  0  0  0  0
   -0.3230   -1.5776   -2.2705 H   0  0  0  0  0  0  0  0  0  0  0  0
   -1.4043   -0.1451   -0.5118 H   0  0  0  0  0  0  0  0  0  0  0  0
   -0.1463   -0.6617    0.7061 H   0  0  0  0  0  0  0  0  0  0  0  0
    0.4797    0.7483   -2.0099 H   0  0  0  0  0  0  0  0  0  0  0  0
  2  1  2  0  0  0  0
  3  4  1  0  0  0  0
  3  2  1  0  0  0  0
  4 11  1  0  0  0  0
  5 13  1  0  0  0  0
  5  4  1  0  0  0  0
  5  6  1  0  0  0  0
  6 15  1  0  0  0  0
  7 16  1  6  0  0  0
  7  9  1  0  0  0  0
  7  6  1  0  0  0  0
  7  8  1  0  0  0  0
  8 18  1  0  0  0  0
  9 19  1  6  0  0  0
  9  2  1  0  0  0  0
  9  8  1  0  0  0  0
 10  4  1  0  0  0  0
 12  5  1  0  0  0  0
 14  6  1  0  0  0  0
 17  8  1  0  0  0  0
M TOR 0 0 1 2 3
M TOR 1 0 1 8 6
M TOR 2 0 1 8 7
M TOR 3 0 1 8 18
M TOR 4 1 2 3 4
M TOR 5 1 2 3 9
M TOR 6 1 2 3 10
M TOR 7 1 8 6 5
M TOR 8 1 8 6 7
M TOR 9 1 8 6 15
M TOR 10 1 8 7 16
M TOR 11 1 8 7 17
M TOR 12 2 1 8 6
M TOR 13 2 1 8 7
M TOR 14 2 1 8 18
M TOR 15 2 3 4 5
M TOR 16 2 3 4 11
M TOR 17 2 3 4 12
M TOR 18 3 2 1 8
M TOR 19 3 4 5 6
M TOR 20 3 4 5 13
M TOR 21 3 4 5 14
M TOR 22 4 5 6 7
M TOR 23 4 5 6 8
M TOR 24 4 5 6 15
M TOR 25 5 4 3 9
M TOR 26 5 4 3 10
M TOR 27 5 6 7 8
M TOR 28 5 6 7 16
M TOR 29 5 6 7 17
M TOR 30 5 6 8 18
M TOR 31 6 5 4 11
M TOR 32 6 5 4 12
M TOR 33 6 7 8 18
M TOR 34 6 8 7 16
M TOR 35 6 8 7 17
M TOR 36 7 6 5 13
M TOR 37 7 6 5 14
M TOR 38 7 8 6 15
M TOR 39 8 6 5 13
M TOR 40 8 6 5 14
M  END
$$$$
