
     RDKit          3D

 19 18  0  0  0  0  0  0  0  0999 V2000
    1.5226   -0.0019   -0.0129 C   0  0  0  0  0  0  0  0  0  0  0  0
    0.0682   -0.0307   -0.0480 C   0  0  0  0  0  0  0  0  0  0  0  0
   -1.1355   -0.0586   -0.0907 C   0  0  0  0  0  0  0  0  0  0  0  0
   -2.5985   -0.0956   -0.0795 C   0  0  0  0  0  0  0  0  0  0  0  0
   -3.1645    1.1888    0.1650 O   0  0  0  0  0  0  0  0  0  0  0  0
   -3.1260   -1.1501    0.9337 C   0  0  0  0  0  0  0  0  0  0  0  0
   -4.6624   -1.2075    0.9075 C   0  0  0  0  0  0  0  0  0  0  0  0
   -2.5688   -2.5211    0.6031 C   0  0  0  0  0  0  0  0  0  0  0  0
   -2.0301   -3.2587    1.3861 O   0  0  0  0  0  0  0  0  0  0  0  0
    1.9153   -0.7143    0.7202 H   0  0  0  0  0  0  0  0  0  0  0  0
    1.9469   -0.2568   -0.9899 H   0  0  0  0  0  0  0  0  0  0  0  0
    1.8895    0.9940    0.2585 H   0  0  0  0  0  0  0  0  0  0  0  0
   -2.9642   -0.3718   -1.0777 H   0  0  0  0  0  0  0  0  0  0  0  0
   -2.6866    1.5748    0.9077 H   0  0  0  0  0  0  0  0  0  0  0  0
   -2.7704   -0.8850    1.9350 H   0  0  0  0  0  0  0  0  0  0  0  0
   -5.0418   -1.8523    1.7045 H   0  0  0  0  0  0  0  0  0  0  0  0
   -5.0689   -0.2022    1.0350 H   0  0  0  0  0  0  0  0  0  0  0  0
   -5.0260   -1.5994   -0.0498 H   0  0  0  0  0  0  0  0  0  0  0  0
   -2.7304   -2.8305   -0.4580 H   0  0  0  0  0  0  0  0  0  0  0  0
  1  2  1  0
  2  3  3  0
  3  4  1  0
  4  5  1  0
  4  6  1  0
  6  7  1  0
  6  8  1  0
  8  9  2  0
  1 10  1  0
  1 11  1  0
  1 12  1  0
  4 13  1  0
  5 14  1  0
  6 15  1  0
  7 16  1  0
  7 17  1  0
  7 18  1  0
  8 19  1  0
M  END
$$$$
