gdb 1940	2.3318684	1.6629278	1.3023128	1.7923	75.01	-0.19791	0.05744	0.25535	1053.9126	0.154472	-422.485733	-422.476734	-422.47579	-422.518548	35.153
 OpenBabel02181911403D

 19 21  0  0  1  0  0  0  0  0999 V2000
   -0.0068   -0.1855   -0.1192 C   0  0  0  0  0  0  0  0  0  0  0  0
    1.4777   -0.0454    0.0506 C   0  0  1  0  0  0  0  0  0  0  0  0
    2.3645    0.7114   -0.9306 C   0  0  0  0  0  0  0  0  0  0  0  0
    2.3411    1.1254    0.5032 C   0  0  1  0  0  0  0  0  0  0  0  0
    2.0127    2.4294    0.8320 O   0  0  0  0  0  0  0  0  0  0  0  0
    3.1524    0.2010    1.4606 C   0  0  2  0  0  0  0  0  0  0  0  0
    3.7735   -1.0034    0.7666 C   0  0  0  0  0  0  0  0  0  0  0  0
    2.3035   -0.9772    1.0083 C   0  0  2  0  0  0  0  0  0  0  0  0
    1.7125   -2.0058    1.7211 O   0  0  0  0  0  0  0  0  0  0  0  0
   -0.5150   -0.3657    0.8367 H   0  0  0  0  0  0  0  0  0  0  0  0
   -0.4320    0.7279   -0.5465 H   0  0  0  0  0  0  0  0  0  0  0  0
   -0.2647   -1.0187   -0.7833 H   0  0  0  0  0  0  0  0  0  0  0  0
    3.2302    0.2799   -1.4218 H   0  0  0  0  0  0  0  0  0  0  0  0
    1.7977    1.3853   -1.5682 H   0  0  0  0  0  0  0  0  0  0  0  0
    1.5882    2.4257    1.6976 H   0  0  0  0  0  0  0  0  0  0  0  0
    3.4621    0.5084    2.4525 H   0  0  0  0  0  0  0  0  0  0  0  0
    4.2281   -0.9527   -0.2167 H   0  0  0  0  0  0  0  0  0  0  0  0
    4.2958   -1.6611    1.4561 H   0  0  0  0  0  0  0  0  0  0  0  0
    0.9896   -1.6410    2.2433 H   0  0  0  0  0  0  0  0  0  0  0  0
  1 10  1  0  0  0  0
  2  1  1  6  0  0  0
  2  4  1  0  0  0  0
  2  8  1  0  0  0  0
  3  2  1  0  0  0  0
  3  4  1  0  0  0  0
  4  5  1  1  0  0  0
  4  6  1  0  0  0  0
  5 15  1  0  0  0  0
  6 16  1  1  0  0  0
  7  8  1  0  0  0  0
  7 18  1  0  0  0  0
  7  6  1  0  0  0  0
  8  6  1  0  0  0  0
  8  9  1  1  0  0  0
  9 19  1  0  0  0  0
 11  1  1  0  0  0  0
 12  1  1  0  0  0  0
 13  3  1  0  0  0  0
 14  3  1  0  0  0  0
 17  7  1  0  0  0  0
M TOR 0 0 1 2 3
M TOR 1 0 1 2 12
M TOR 2 0 1 2 13
M TOR 3 0 1 3 4
M TOR 4 0 1 3 5
M TOR 5 0 1 7 5
M TOR 6 0 1 7 6
M TOR 7 0 1 7 8
M TOR 8 1 2 3 4
M TOR 9 1 2 3 5
M TOR 10 1 3 2 12
M TOR 11 1 3 2 13
M TOR 12 1 3 4 14
M TOR 13 1 3 5 6
M TOR 14 1 3 5 7
M TOR 15 1 3 5 15
M TOR 16 1 7 5 6
M TOR 17 1 7 5 15
M TOR 18 1 7 6 16
M TOR 19 1 7 6 17
M TOR 20 1 7 8 18
M TOR 21 2 1 0 9
M TOR 22 2 1 0 10
M TOR 23 2 1 0 11
M TOR 24 2 1 7 5
M TOR 25 2 1 7 6
M TOR 26 2 1 7 8
M TOR 27 2 3 1 7
M TOR 28 2 3 4 14
M TOR 29 2 3 5 6
M TOR 30 2 3 5 7
M TOR 31 2 3 5 15
M TOR 32 3 1 0 9
M TOR 33 3 1 0 10
M TOR 34 3 1 0 11
M TOR 35 3 1 7 6
M TOR 36 3 1 7 8
M TOR 37 3 5 6 7
M TOR 38 3 5 6 16
M TOR 39 3 5 6 17
M TOR 40 3 5 7 8
M TOR 41 4 3 1 7
M TOR 42 4 3 2 12
M TOR 43 4 3 2 13
M TOR 44 4 3 5 6
M TOR 45 4 3 5 7
M TOR 46 4 3 5 15
M TOR 47 5 3 2 12
M TOR 48 5 3 2 13
M TOR 49 5 3 4 14
M TOR 50 5 6 7 8
M TOR 51 5 7 6 16
M TOR 52 5 7 6 17
M TOR 53 5 7 8 18
M TOR 54 6 7 5 15
M TOR 55 6 7 8 18
M TOR 56 7 1 0 9
M TOR 57 7 1 0 10
M TOR 58 7 1 0 11
M TOR 59 7 1 2 12
M TOR 60 7 1 2 13
M TOR 61 8 7 5 15
M TOR 62 8 7 6 16
M TOR 63 8 7 6 17
M  END
$$$$
