gdb 596	2.3595362	2.0687605	1.6479517	2.0472	74.42	-0.24688	0.00724	0.25412	914.2373	0.160976	-422.574015	-422.567178	-422.566234	-422.604791	28.244
 OpenBabel02181911403D

 19 20  0  0  1  0  0  0  0  0999 V2000
   -0.4377    0.8488    0.4730 C   0  0  0  0  0  0  0  0  0  0  0  0
    0.0001   -0.0564   -0.5153 O   0  0  0  0  0  0  0  0  0  0  0  0
    0.7833    0.5404   -1.5576 C   0  0  1  0  0  0  0  0  0  0  0  0
   -0.0225    1.5111   -2.4460 C   0  0  0  0  0  0  0  0  0  0  0  0
   -0.1156    2.9086   -1.8858 C   0  0  0  0  0  0  0  0  0  0  0  0
    0.5159    3.2899   -0.7748 C   0  0  0  0  0  0  0  0  0  0  0  0
    1.3642    2.3167    0.0143 C   0  0  2  0  0  0  0  0  0  0  0  0
    1.9716    1.2633   -0.9169 C   0  0  0  0  0  0  0  0  0  0  0  0
    0.5940    1.6271    1.0242 O   0  0  0  0  0  0  0  0  0  0  0  0
   -1.2311    1.4965    0.0681 H   0  0  0  0  0  0  0  0  0  0  0  0
   -0.8364    0.2431    1.2903 H   0  0  0  0  0  0  0  0  0  0  0  0
    1.1111   -0.3089   -2.1629 H   0  0  0  0  0  0  0  0  0  0  0  0
    0.4427    1.5507   -3.4418 H   0  0  0  0  0  0  0  0  0  0  0  0
   -1.0260    1.0968   -2.6055 H   0  0  0  0  0  0  0  0  0  0  0  0
   -0.7309    3.6164   -2.4375 H   0  0  0  0  0  0  0  0  0  0  0  0
    0.4003    4.2970   -0.3856 H   0  0  0  0  0  0  0  0  0  0  0  0
    2.1355    2.8471    0.5777 H   0  0  0  0  0  0  0  0  0  0  0  0
    2.6059    1.7326   -1.6759 H   0  0  0  0  0  0  0  0  0  0  0  0
    2.5702    0.5556   -0.3375 H   0  0  0  0  0  0  0  0  0  0  0  0
  1  9  1  0  0  0  0
  1 11  1  0  0  0  0
  2  1  1  0  0  0  0
  3 12  1  6  0  0  0
  3  8  1  0  0  0  0
  3  2  1  0  0  0  0
  4  5  1  0  0  0  0
  4  3  1  0  0  0  0
  5  6  2  0  0  0  0
  6 16  1  0  0  0  0
  6  7  1  0  0  0  0
  7 17  1  1  0  0  0
  7  9  1  0  0  0  0
  8 19  1  0  0  0  0
  8  7  1  0  0  0  0
 10  1  1  0  0  0  0
 13  4  1  0  0  0  0
 14  4  1  0  0  0  0
 15  5  1  0  0  0  0
 18  8  1  0  0  0  0
M TOR 0 0 1 2 3
M TOR 1 0 1 2 7
M TOR 2 0 1 2 11
M TOR 3 0 8 6 5
M TOR 4 0 8 6 7
M TOR 5 0 8 6 16
M TOR 6 1 0 8 6
M TOR 7 1 2 3 4
M TOR 8 1 2 3 12
M TOR 9 1 2 3 13
M TOR 10 1 2 7 6
M TOR 11 1 2 7 17
M TOR 12 1 2 7 18
M TOR 13 2 1 0 8
M TOR 14 2 1 0 9
M TOR 15 2 1 0 10
M TOR 16 2 3 4 5
M TOR 17 2 3 4 14
M TOR 18 2 7 6 5
M TOR 19 2 7 6 8
M TOR 20 2 7 6 16
M TOR 21 3 2 7 6
M TOR 22 3 2 7 17
M TOR 23 3 2 7 18
M TOR 24 3 4 5 6
M TOR 25 3 4 5 15
M TOR 26 4 3 2 7
M TOR 27 4 3 2 11
M TOR 28 4 5 6 7
M TOR 29 4 5 6 8
M TOR 30 4 5 6 16
M TOR 31 5 4 3 12
M TOR 32 5 4 3 13
M TOR 33 5 6 7 17
M TOR 34 5 6 7 18
M TOR 35 6 5 4 14
M TOR 36 6 7 2 11
M TOR 37 6 8 0 9
M TOR 38 6 8 0 10
M TOR 39 7 2 3 12
M TOR 40 7 2 3 13
M TOR 41 7 6 5 15
M TOR 42 8 6 5 15
M TOR 43 8 6 7 17
M TOR 44 8 6 7 18
M  END
$$$$
