gdb 4600	2.8138473	0.7046415	0.6013747	1.8844	84.41	-0.24011	-0.03648	0.20362999999999998	1907.1929	0.152598	-422.51639	-422.505191	-422.504247	-422.555205	36.828
 OpenBabel02181911413D

 19 18  0  0  1  0  0  0  0  0999 V2000
   -0.0678   -0.0612    0.0772 C   0  0  0  0  0  0  0  0  0  0  0  0
    1.4474   -0.0066   -0.1912 C   0  0  0  0  0  0  0  0  0  0  0  0
    1.9905    1.3456   -0.1377 C   0  0  0  0  0  0  0  0  0  0  0  0
    2.4109    2.4726   -0.0661 C   0  0  0  0  0  0  0  0  0  0  0  0
    2.9456    3.8270   -0.0771 C   0  0  1  0  0  0  0  0  0  0  0  0
    3.9237    3.9650    0.9420 O   0  0  0  0  0  0  0  0  0  0  0  0
    4.2659    5.3154    1.2027 C   0  0  0  0  0  0  0  0  0  0  0  0
    3.6012    4.0679   -1.4521 C   0  0  0  0  0  0  0  0  0  0  0  0
    3.1825    4.8261   -2.2833 O   0  0  0  0  0  0  0  0  0  0  0  0
   -0.3010    0.3352    1.0688 H   0  0  0  0  0  0  0  0  0  0  0  0
   -0.6146    0.5310   -0.6612 H   0  0  0  0  0  0  0  0  0  0  0  0
   -0.4247   -1.0938    0.0246 H   0  0  0  0  0  0  0  0  0  0  0  0
    1.9759   -0.6312    0.5401 H   0  0  0  0  0  0  0  0  0  0  0  0
    1.6650   -0.4439   -1.1740 H   0  0  0  0  0  0  0  0  0  0  0  0
    2.1394    4.5674    0.0428 H   0  0  0  0  0  0  0  0  0  0  0  0
    5.0131    5.3007    1.9985 H   0  0  0  0  0  0  0  0  0  0  0  0
    4.6932    5.8184    0.3234 H   0  0  0  0  0  0  0  0  0  0  0  0
    3.3920    5.8925    1.5394 H   0  0  0  0  0  0  0  0  0  0  0  0
    4.5266    3.4672   -1.5922 H   0  0  0  0  0  0  0  0  0  0  0  0
  1 10  1  0  0  0  0
  2  3  1  0  0  0  0
  2  1  1  0  0  0  0
  2 13  1  0  0  0  0
  3  4  3  0  0  0  0
  5  4  1  0  0  0  0
  5 15  1  1  0  0  0
  5  6  1  0  0  0  0
  6  7  1  0  0  0  0
  7 18  1  0  0  0  0
  7 16  1  0  0  0  0
  8  5  1  0  0  0  0
  9  8  2  0  0  0  0
 11  1  1  0  0  0  0
 12  1  1  0  0  0  0
 14  2  1  0  0  0  0
 17  7  1  0  0  0  0
 19  8  1  0  0  0  0
M TOR 0 0 1 2 3
M TOR 1 1 2 3 4
M TOR 2 2 1 0 9
M TOR 3 2 1 0 10
M TOR 4 2 1 0 11
M TOR 5 2 3 4 5
M TOR 6 2 3 4 7
M TOR 7 2 3 4 14
M TOR 8 3 2 1 12
M TOR 9 3 2 1 13
M TOR 10 3 4 5 6
M TOR 11 3 4 7 8
M TOR 12 3 4 7 18
M TOR 13 4 5 6 15
M TOR 14 4 5 6 16
M TOR 15 4 5 6 17
M TOR 16 5 4 7 8
M TOR 17 5 4 7 18
M TOR 18 6 5 4 7
M TOR 19 6 5 4 14
M TOR 20 8 7 4 14
M  END
$$$$
