
     RDKit          3D

 19 21  0  0  0  0  0  0  0  0999 V2000
   -0.1233    1.9131   -4.6484 C   0  0  0  0  0  0  0  0  0  0  0  0
   -0.0025    0.5699   -4.0102 C   0  0  0  0  0  0  0  0  0  0  0  0
   -0.4450   -0.7534   -4.5545 C   0  0  0  0  0  0  0  0  0  0  0  0
   -0.9198   -0.3053   -3.1798 C   0  0  0  0  0  0  0  0  0  0  0  0
    0.2389   -0.3872   -2.2273 C   0  0  0  0  0  0  0  0  0  0  0  0
    0.8013   -1.4285   -1.3100 C   0  0  0  0  0  0  0  0  0  0  0  0
    0.3522   -0.0706   -0.7732 C   0  0  0  0  0  0  0  0  0  0  0  0
    1.3021    0.8759   -0.4013 O   0  0  0  0  0  0  0  0  0  0  0  0
    1.1076    0.3654   -3.1024 O   0  0  0  0  0  0  0  0  0  0  0  0
   -0.1546    2.7063   -3.8951 H   0  0  0  0  0  0  0  0  0  0  0  0
    0.7304    2.1017   -5.3091 H   0  0  0  0  0  0  0  0  0  0  0  0
   -1.0340    1.9674   -5.2515 H   0  0  0  0  0  0  0  0  0  0  0  0
   -1.2022   -0.7081   -5.3315 H   0  0  0  0  0  0  0  0  0  0  0  0
    0.2689   -1.5665   -4.6489 H   0  0  0  0  0  0  0  0  0  0  0  0
   -1.9603   -0.1854   -2.9091 H   0  0  0  0  0  0  0  0  0  0  0  0
    0.2005   -2.3034   -1.0822 H   0  0  0  0  0  0  0  0  0  0  0  0
    1.8719   -1.5973   -1.3641 H   0  0  0  0  0  0  0  0  0  0  0  0
   -0.5489   -0.0377   -0.1648 H   0  0  0  0  0  0  0  0  0  0  0  0
    1.6088    1.2816   -1.2252 H   0  0  0  0  0  0  0  0  0  0  0  0
  1  2  1  0
  2  3  1  0
  3  4  1  0
  4  5  1  0
  5  6  1  0
  6  7  1  0
  7  8  1  0
  5  9  1  0
  4  2  1  0
  7  5  1  0
  9  2  1  0
  1 10  1  0
  1 11  1  0
  1 12  1  0
  3 13  1  0
  3 14  1  0
  4 15  1  0
  6 16  1  0
  6 17  1  0
  7 18  1  0
  8 19  1  0
M  END
$$$$
