
     RDKit          3D

 19 19  0  0  0  0  0  0  0  0999 V2000
    1.2262    0.9909    0.4562 C   0  0  0  0  0  0  0  0  0  0  0  0
   -0.0623    0.2471    0.3012 C   0  0  0  0  0  0  0  0  0  0  0  0
   -0.2686   -1.0733    0.3532 C   0  0  0  0  0  0  0  0  0  0  0  0
   -1.7124   -1.4503    0.1350 C   0  0  0  0  0  0  0  0  0  0  0  0
   -2.4534   -0.0951    0.2849 C   0  0  0  0  0  0  0  0  0  0  0  0
   -2.9966    0.0731    1.5821 O   0  0  0  0  0  0  0  0  0  0  0  0
   -1.3655    0.9801   -0.0079 C   0  0  0  0  0  0  0  0  0  0  0  0
   -1.3304    1.4105   -1.4626 C   0  0  0  0  0  0  0  0  0  0  0  0
   -1.1272    2.5348   -1.8429 O   0  0  0  0  0  0  0  0  0  0  0  0
    1.1854    1.6739    1.3140 H   0  0  0  0  0  0  0  0  0  0  0  0
    2.0686    0.3095    0.6011 H   0  0  0  0  0  0  0  0  0  0  0  0
    1.4312    1.6142   -0.4223 H   0  0  0  0  0  0  0  0  0  0  0  0
    0.5120   -1.8062    0.5291 H   0  0  0  0  0  0  0  0  0  0  0  0
   -1.8692   -1.8916   -0.8584 H   0  0  0  0  0  0  0  0  0  0  0  0
   -2.1000   -2.1732    0.8616 H   0  0  0  0  0  0  0  0  0  0  0  0
   -3.3089   -0.0123   -0.3915 H   0  0  0  0  0  0  0  0  0  0  0  0
   -2.2703   -0.0022    2.2121 H   0  0  0  0  0  0  0  0  0  0  0  0
   -1.5191    1.8747    0.6040 H   0  0  0  0  0  0  0  0  0  0  0  0
   -1.4706    0.5757   -2.1891 H   0  0  0  0  0  0  0  0  0  0  0  0
  1  2  1  0
  2  3  2  0
  3  4  1  0
  4  5  1  0
  5  6  1  0
  5  7  1  0
  7  8  1  0
  8  9  2  0
  7  2  1  0
  1 10  1  0
  1 11  1  0
  1 12  1  0
  3 13  1  0
  4 14  1  0
  4 15  1  0
  5 16  1  0
  6 17  1  0
  7 18  1  0
  8 19  1  0
M  END
$$$$
