
     RDKit          3D

 19 21  0  0  0  0  0  0  0  0999 V2000
   -0.2192   -0.1935   -0.0251 C   0  0  0  0  0  0  0  0  0  0  0  0
    1.2940   -0.0655    0.0624 C   0  0  0  0  0  0  0  0  0  0  0  0
    1.9726   -0.5337    1.3631 C   0  0  0  0  0  0  0  0  0  0  0  0
    1.5141    0.3261    2.4149 O   0  0  0  0  0  0  0  0  0  0  0  0
    2.5847    0.7850    1.5765 C   0  0  0  0  0  0  0  0  0  0  0  0
    1.9360    1.3519    0.3128 C   0  0  0  0  0  0  0  0  0  0  0  0
    2.7946    2.0459   -0.7612 C   0  0  0  0  0  0  0  0  0  0  0  0
    2.0918    3.2898   -0.5824 O   0  0  0  0  0  0  0  0  0  0  0  0
    1.1708    2.6852    0.3536 C   0  0  0  0  0  0  0  0  0  0  0  0
   -0.6893    0.2187    0.8720 H   0  0  0  0  0  0  0  0  0  0  0  0
   -0.6150    0.3379   -0.8969 H   0  0  0  0  0  0  0  0  0  0  0  0
   -0.5171   -1.2438   -0.1142 H   0  0  0  0  0  0  0  0  0  0  0  0
    1.7794   -0.5259   -0.8063 H   0  0  0  0  0  0  0  0  0  0  0  0
    2.3071   -1.5251    1.6468 H   0  0  0  0  0  0  0  0  0  0  0  0
    3.5098    1.0778    2.0615 H   0  0  0  0  0  0  0  0  0  0  0  0
    3.8668    2.1394   -0.5428 H   0  0  0  0  0  0  0  0  0  0  0  0
    2.6741    1.6452   -1.7775 H   0  0  0  0  0  0  0  0  0  0  0  0
    1.1591    3.2003    1.3213 H   0  0  0  0  0  0  0  0  0  0  0  0
    0.1485    2.6518   -0.0448 H   0  0  0  0  0  0  0  0  0  0  0  0
  1  2  1  0
  2  3  1  0
  3  4  1  0
  4  5  1  0
  5  6  1  0
  6  7  1  0
  7  8  1  0
  8  9  1  0
  6  2  1  0
  9  6  1  0
  5  3  1  0
  1 10  1  0
  1 11  1  0
  1 12  1  0
  2 13  1  0
  3 14  1  0
  5 15  1  0
  7 16  1  0
  7 17  1  0
  9 18  1  0
  9 19  1  0
M  END
$$$$
