
     RDKit          3D

 19 20  0  0  0  0  0  0  0  0999 V2000
    0.9969   -0.7553   -0.7764 C   0  0  0  0  0  0  0  0  0  0  0  0
    1.1055    0.1474    0.4451 C   0  0  0  0  0  0  0  0  0  0  0  0
    1.9243   -0.3190    1.6989 C   0  0  0  0  0  0  0  0  0  0  0  0
    1.1911   -0.5270    2.8788 O   0  0  0  0  0  0  0  0  0  0  0  0
    2.7605    0.9745    1.6378 C   0  0  0  0  0  0  0  0  0  0  0  0
    3.4451    1.0982    0.3261 C   0  0  0  0  0  0  0  0  0  0  0  0
    1.9652    1.4191    0.3693 C   0  0  0  0  0  0  0  0  0  0  0  0
    1.4565    2.7662    0.1008 C   0  0  0  0  0  0  0  0  0  0  0  0
    0.3151    3.0162   -0.2128 O   0  0  0  0  0  0  0  0  0  0  0  0
    0.4552   -1.6743   -0.5294 H   0  0  0  0  0  0  0  0  0  0  0  0
    0.4564   -0.2508   -1.5833 H   0  0  0  0  0  0  0  0  0  0  0  0
    1.9808   -1.0434   -1.1613 H   0  0  0  0  0  0  0  0  0  0  0  0
    0.1025    0.4293    0.7837 H   0  0  0  0  0  0  0  0  0  0  0  0
    2.5129   -1.2314    1.5546 H   0  0  0  0  0  0  0  0  0  0  0  0
    0.5988    0.2230    3.0042 H   0  0  0  0  0  0  0  0  0  0  0  0
    3.0226    1.5826    2.4960 H   0  0  0  0  0  0  0  0  0  0  0  0
    4.1002    1.9568    0.2093 H   0  0  0  0  0  0  0  0  0  0  0  0
    3.7738    0.2136   -0.2131 H   0  0  0  0  0  0  0  0  0  0  0  0
    2.2120    3.5776    0.2277 H   0  0  0  0  0  0  0  0  0  0  0  0
  1  2  1  0
  2  3  1  0
  3  4  1  0
  3  5  1  0
  5  6  1  0
  6  7  1  0
  7  8  1  0
  8  9  2  0
  7  2  1  0
  7  5  1  0
  1 10  1  0
  1 11  1  0
  1 12  1  0
  2 13  1  0
  3 14  1  0
  4 15  1  0
  5 16  1  0
  6 17  1  0
  6 18  1  0
  8 19  1  0
M  END
$$$$
