
     RDKit          3D

 19 20  0  0  0  0  0  0  0  0999 V2000
    0.0262    0.3365    0.1518 C   0  0  0  0  0  0  0  0  0  0  0  0
    1.5166    0.1111    0.0456 C   0  0  0  0  0  0  0  0  0  0  0  0
    1.8227   -0.4814   -1.2211 O   0  0  0  0  0  0  0  0  0  0  0  0
    3.1749   -0.1161   -1.4926 C   0  0  0  0  0  0  0  0  0  0  0  0
    3.5028    0.9643   -0.4207 C   0  0  0  0  0  0  0  0  0  0  0  0
    4.2670    0.3918    0.7808 C   0  0  0  0  0  0  0  0  0  0  0  0
    3.3873   -0.6065    1.4958 C   0  0  0  0  0  0  0  0  0  0  0  0
    2.1071   -0.7479    1.1584 C   0  0  0  0  0  0  0  0  0  0  0  0
    2.1988    1.3552    0.0093 O   0  0  0  0  0  0  0  0  0  0  0  0
   -0.2147    0.8160    1.1038 H   0  0  0  0  0  0  0  0  0  0  0  0
   -0.3046    0.9754   -0.6692 H   0  0  0  0  0  0  0  0  0  0  0  0
   -0.4992   -0.6202    0.0952 H   0  0  0  0  0  0  0  0  0  0  0  0
    3.8403   -0.9845   -1.4137 H   0  0  0  0  0  0  0  0  0  0  0  0
    3.2277    0.2799   -2.5115 H   0  0  0  0  0  0  0  0  0  0  0  0
    3.9998    1.8411   -0.8410 H   0  0  0  0  0  0  0  0  0  0  0  0
    5.1967   -0.0847    0.4439 H   0  0  0  0  0  0  0  0  0  0  0  0
    4.5644    1.2001    1.4630 H   0  0  0  0  0  0  0  0  0  0  0  0
    3.8286   -1.2028    2.2899 H   0  0  0  0  0  0  0  0  0  0  0  0
    1.4618   -1.4810    1.6319 H   0  0  0  0  0  0  0  0  0  0  0  0
  1  2  1  0
  2  3  1  0
  3  4  1  0
  4  5  1  0
  5  6  1  0
  6  7  1  0
  7  8  2  0
  5  9  1  0
  8  2  1  0
  9  2  1  0
  1 10  1  0
  1 11  1  0
  1 12  1  0
  4 13  1  0
  4 14  1  0
  5 15  1  0
  6 16  1  0
  6 17  1  0
  7 18  1  0
  8 19  1  0
M  END
$$$$
