gdb 3573	2.773248	1.3441665	1.0304429	4.5386	78.26	-0.24945	0.00763	0.25708000000000003	1202.7294	0.156149	-422.609267	-422.600129	-422.599185	-422.643672	33.325
 OpenBabel02181911413D

 19 19  0  0  1  0  0  0  0  0999 V2000
   -1.2159   -2.1051   -0.8416 C   0  0  0  0  0  0  0  0  0  0  0  0
   -0.9377   -1.1377    0.3144 C   0  0  2  0  0  0  0  0  0  0  0  0
   -2.1918   -0.5633    0.7385 O   0  0  0  0  0  0  0  0  0  0  0  0
   -2.6151    0.6666    0.3726 C   0  0  0  0  0  0  0  0  0  0  0  0
   -3.7170    1.0265    0.6871 O   0  0  0  0  0  0  0  0  0  0  0  0
   -1.6557    1.5477   -0.4124 C   0  0  0  0  0  0  0  0  0  0  0  0
   -0.2216    1.1181   -0.3461 C   0  0  0  0  0  0  0  0  0  0  0  0
    0.1283   -0.1207   -0.0111 C   0  0  0  0  0  0  0  0  0  0  0  0
    1.5532   -0.5942    0.0636 C   0  0  0  0  0  0  0  0  0  0  0  0
   -2.0018   -2.8089   -0.5562 H   0  0  0  0  0  0  0  0  0  0  0  0
   -1.5401   -1.5574   -1.7316 H   0  0  0  0  0  0  0  0  0  0  0  0
   -0.3166   -2.6733   -1.0962 H   0  0  0  0  0  0  0  0  0  0  0  0
   -0.6170   -1.7211    1.1864 H   0  0  0  0  0  0  0  0  0  0  0  0
   -2.0159    1.5698   -1.4516 H   0  0  0  0  0  0  0  0  0  0  0  0
   -1.7961    2.5672   -0.0404 H   0  0  0  0  0  0  0  0  0  0  0  0
    0.5366    1.8585   -0.5881 H   0  0  0  0  0  0  0  0  0  0  0  0
    1.8019   -0.9453    1.0730 H   0  0  0  0  0  0  0  0  0  0  0  0
    1.7394   -1.4351   -0.6155 H   0  0  0  0  0  0  0  0  0  0  0  0
    2.2477    0.2077   -0.1984 H   0  0  0  0  0  0  0  0  0  0  0  0
  1 10  1  0  0  0  0
  1  2  1  0  0  0  0
  2  3  1  0  0  0  0
  2 13  1  1  0  0  0
  4  5  2  0  0  0  0
  4  3  1  0  0  0  0
  6  7  1  0  0  0  0
  6 15  1  0  0  0  0
  6  4  1  0  0  0  0
  7  8  2  0  0  0  0
  8  9  1  0  0  0  0
  8  2  1  0  0  0  0
  9 17  1  0  0  0  0
 11  1  1  0  0  0  0
 12  1  1  0  0  0  0
 14  6  1  0  0  0  0
 16  7  1  0  0  0  0
 18  9  1  0  0  0  0
 19  9  1  0  0  0  0
M TOR 0 0 1 2 3
M TOR 1 0 1 7 6
M TOR 2 0 1 7 8
M TOR 3 1 2 3 4
M TOR 4 1 2 3 5
M TOR 5 1 7 6 5
M TOR 6 1 7 6 15
M TOR 7 1 7 8 16
M TOR 8 1 7 8 17
M TOR 9 1 7 8 18
M TOR 10 2 1 0 9
M TOR 11 2 1 0 10
M TOR 12 2 1 0 11
M TOR 13 2 1 7 6
M TOR 14 2 1 7 8
M TOR 15 2 3 5 6
M TOR 16 2 3 5 13
M TOR 17 2 3 5 14
M TOR 18 3 2 1 7
M TOR 19 3 2 1 12
M TOR 20 3 5 6 7
M TOR 21 3 5 6 15
M TOR 22 4 3 5 6
M TOR 23 4 3 5 13
M TOR 24 4 3 5 14
M TOR 25 5 6 7 8
M TOR 26 6 7 1 12
M TOR 27 6 7 8 16
M TOR 28 6 7 8 17
M TOR 29 6 7 8 18
M TOR 30 7 1 0 9
M TOR 31 7 1 0 10
M TOR 32 7 1 0 11
M TOR 33 7 6 5 13
M TOR 34 7 6 5 14
M TOR 35 8 7 1 12
M TOR 36 8 7 6 15
M  END
$$$$
