gdb 977	3.3883529	1.0418697	0.9176305	1.6388	75.85	-0.25868	0.0087	0.26738	1309.2399	0.157285	-422.549626	-422.541164	-422.54022	-422.583658	30.985
 OpenBabel02181911403D

 19 20  0  0  1  0  0  0  0  0999 V2000
    1.1779    0.9543    0.4448 O   0  0  0  0  0  0  0  0  0  0  0  0
    0.2361    0.2166    0.5559 C   0  0  0  0  0  0  0  0  0  0  0  0
   -1.0585    0.5533    0.5215 O   0  0  0  0  0  0  0  0  0  0  0  0
   -1.3847    1.9499    0.3104 C   0  0  0  0  0  0  0  0  0  0  0  0
   -1.7039    2.6441    1.6211 C   0  0  2  0  0  0  0  0  0  0  0  0
   -2.0705    4.1551    1.4166 C   0  0  0  0  0  0  0  0  0  0  0  0
   -0.8603    4.5490    2.2689 C   0  0  1  0  0  0  0  0  0  0  0  0
   -0.9466    3.9090    3.6258 C   0  0  0  0  0  0  0  0  0  0  0  0
   -0.4901    3.0760    2.4625 C   0  0  1  0  0  0  0  0  0  0  0  0
    0.3073   -0.8728    0.7012 H   0  0  0  0  0  0  0  0  0  0  0  0
   -0.5525    2.4343   -0.2062 H   0  0  0  0  0  0  0  0  0  0  0  0
   -2.2637    1.9354   -0.3401 H   0  0  0  0  0  0  0  0  0  0  0  0
   -2.4483    2.0498    2.1638 H   0  0  0  0  0  0  0  0  0  0  0  0
   -1.9721    4.4560    0.3693 H   0  0  0  0  0  0  0  0  0  0  0  0
   -3.0522    4.4781    1.7783 H   0  0  0  0  0  0  0  0  0  0  0  0
   -0.2109    5.3944    2.0782 H   0  0  0  0  0  0  0  0  0  0  0  0
   -0.1681    4.1949    4.3258 H   0  0  0  0  0  0  0  0  0  0  0  0
   -1.9150    3.7266    4.0885 H   0  0  0  0  0  0  0  0  0  0  0  0
    0.4849    2.6081    2.4261 H   0  0  0  0  0  0  0  0  0  0  0  0
  1  2  2  0  0  0  0
  2 10  1  0  0  0  0
  3  2  1  0  0  0  0
  4  3  1  0  0  0  0
  4  5  1  0  0  0  0
  5 13  1  1  0  0  0
  5  9  1  0  0  0  0
  6  5  1  0  0  0  0
  6 15  1  0  0  0  0
  6  7  1  0  0  0  0
  7 16  1  6  0  0  0
  7  9  1  0  0  0  0
  7  8  1  0  0  0  0
  8 18  1  0  0  0  0
  8 17  1  0  0  0  0
  9 19  1  6  0  0  0
  9  8  1  0  0  0  0
 11  4  1  0  0  0  0
 12  4  1  0  0  0  0
 14  6  1  0  0  0  0
M TOR 0 0 1 2 3
M TOR 1 1 2 3 4
M TOR 2 1 2 3 10
M TOR 3 1 2 3 11
M TOR 4 2 3 4 5
M TOR 5 2 3 4 8
M TOR 6 2 3 4 12
M TOR 7 3 2 1 9
M TOR 8 3 4 5 6
M TOR 9 3 4 5 13
M TOR 10 3 4 5 14
M TOR 11 3 4 8 6
M TOR 12 3 4 8 7
M TOR 13 3 4 8 18
M TOR 14 4 5 6 7
M TOR 15 4 5 6 8
M TOR 16 4 5 6 15
M TOR 17 4 8 6 7
M TOR 18 4 8 6 15
M TOR 19 4 8 7 16
M TOR 20 4 8 7 17
M TOR 21 5 4 3 10
M TOR 22 5 4 3 11
M TOR 23 5 4 8 7
M TOR 24 5 4 8 18
M TOR 25 5 6 7 8
M TOR 26 5 6 7 16
M TOR 27 5 6 7 17
M TOR 28 5 6 8 18
M TOR 29 6 5 4 12
M TOR 30 6 7 8 18
M TOR 31 6 8 4 12
M TOR 32 6 8 7 16
M TOR 33 6 8 7 17
M TOR 34 7 6 5 13
M TOR 35 7 6 5 14
M TOR 36 7 8 4 12
M TOR 37 7 8 6 15
M TOR 38 8 4 3 10
M TOR 39 8 4 3 11
M TOR 40 8 4 5 13
M TOR 41 8 4 5 14
M TOR 42 8 6 5 13
M TOR 43 8 6 5 14
M  END
$$$$
