
     RDKit          3D

 19 21  0  0  0  0  0  0  0  0999 V2000
    1.5624   -0.2265    0.1693 C   0  0  0  0  0  0  0  0  0  0  0  0
    0.1695   -0.0151    0.0027 O   0  0  0  0  0  0  0  0  0  0  0  0
   -0.3983    0.7271    1.0140 C   0  0  0  0  0  0  0  0  0  0  0  0
   -0.7374    0.1405    2.3584 C   0  0  0  0  0  0  0  0  0  0  0  0
   -1.8496    0.6779    1.4805 C   0  0  0  0  0  0  0  0  0  0  0  0
   -1.8695    2.1949    1.5732 C   0  0  0  0  0  0  0  0  0  0  0  0
   -2.3265    2.8219    0.3629 O   0  0  0  0  0  0  0  0  0  0  0  0
   -0.9790    2.9357   -0.1487 C   0  0  0  0  0  0  0  0  0  0  0  0
   -0.3762    2.2528    1.0927 C   0  0  0  0  0  0  0  0  0  0  0  0
    1.7769   -0.7592    1.1060 H   0  0  0  0  0  0  0  0  0  0  0  0
    1.8957   -0.8333   -0.6753 H   0  0  0  0  0  0  0  0  0  0  0  0
    2.1206    0.7203    0.1693 H   0  0  0  0  0  0  0  0  0  0  0  0
   -0.6875   -0.9431    2.3924 H   0  0  0  0  0  0  0  0  0  0  0  0
   -0.4670    0.6356    3.2888 H   0  0  0  0  0  0  0  0  0  0  0  0
   -2.6643    0.0591    1.1262 H   0  0  0  0  0  0  0  0  0  0  0  0
   -2.2686    2.6736    2.4721 H   0  0  0  0  0  0  0  0  0  0  0  0
   -0.8422    2.4059   -1.0984 H   0  0  0  0  0  0  0  0  0  0  0  0
   -0.6925    3.9869   -0.2729 H   0  0  0  0  0  0  0  0  0  0  0  0
    0.4394    2.7561    1.6140 H   0  0  0  0  0  0  0  0  0  0  0  0
  1  2  1  0
  2  3  1  0
  3  4  1  0
  4  5  1  0
  5  6  1  0
  6  7  1  0
  7  8  1  0
  8  9  1  0
  5  3  1  0
  9  6  1  0
  9  3  1  0
  1 10  1  0
  1 11  1  0
  1 12  1  0
  4 13  1  0
  4 14  1  0
  5 15  1  0
  6 16  1  0
  8 17  1  0
  8 18  1  0
  9 19  1  0
M  END
$$$$
