gdb 2515	2.7122482	1.2565805	0.9261917	2.6495	80.64	-0.22554	0.00747	0.23301	1278.8094	0.156016	-422.535044	-422.525949	-422.525005	-422.569786	32.091
 OpenBabel02181911413D

 19 20  0  0  1  0  0  0  0  0999 V2000
   -2.8834   -0.0880    1.9605 C   0  0  0  0  0  0  0  0  0  0  0  0
   -1.4885   -0.3464    2.4307 C   0  0  0  0  0  0  0  0  0  0  0  0
   -0.3346   -0.3320    1.7553 C   0  0  0  0  0  0  0  0  0  0  0  0
    0.8045   -0.6401    2.6962 C   0  0  0  0  0  0  0  0  0  0  0  0
    0.2007   -0.8613    3.9662 O   0  0  0  0  0  0  0  0  0  0  0  0
   -1.2052   -0.6864    3.8713 C   0  0  0  0  0  0  0  0  0  0  0  0
   -0.1198   -0.0385    0.3287 C   0  0  2  0  0  0  0  0  0  0  0  0
    0.9065   -0.7182   -0.4874 C   0  0  0  0  0  0  0  0  0  0  0  0
    1.1197    0.6088   -0.0194 O   0  0  0  0  0  0  0  0  0  0  0  0
   -3.3556    0.7030    2.5565 H   0  0  0  0  0  0  0  0  0  0  0  0
   -2.9231    0.2118    0.9108 H   0  0  0  0  0  0  0  0  0  0  0  0
   -3.5099   -0.9816    2.0760 H   0  0  0  0  0  0  0  0  0  0  0  0
    1.3715   -1.5364    2.3985 H   0  0  0  0  0  0  0  0  0  0  0  0
    1.5216    0.1913    2.7531 H   0  0  0  0  0  0  0  0  0  0  0  0
   -1.7229   -1.6068    4.1901 H   0  0  0  0  0  0  0  0  0  0  0  0
   -1.5364    0.1159    4.5525 H   0  0  0  0  0  0  0  0  0  0  0  0
   -0.9812    0.3585   -0.2071 H   0  0  0  0  0  0  0  0  0  0  0  0
    1.5380   -1.4830   -0.0392 H   0  0  0  0  0  0  0  0  0  0  0  0
    0.7460   -0.8202   -1.5603 H   0  0  0  0  0  0  0  0  0  0  0  0
  1 12  1  0  0  0  0
  1  2  1  0  0  0  0
  1 10  1  0  0  0  0
  2  6  1  0  0  0  0
  3  2  2  0  0  0  0
  3  4  1  0  0  0  0
  4 14  1  0  0  0  0
  4  5  1  0  0  0  0
  6  5  1  0  0  0  0
  6 15  1  0  0  0  0
  6 16  1  0  0  0  0
  7 17  1  6  0  0  0
  7  3  1  0  0  0  0
  8 18  1  0  0  0  0
  8  9  1  0  0  0  0
  8  7  1  0  0  0  0
  9  7  1  0  0  0  0
 11  1  1  0  0  0  0
 13  4  1  0  0  0  0
 19  8  1  0  0  0  0
M TOR 0 0 1 2 3
M TOR 1 0 1 2 6
M TOR 2 0 1 5 4
M TOR 3 0 1 5 14
M TOR 4 0 1 5 15
M TOR 5 1 2 3 4
M TOR 6 1 2 3 12
M TOR 7 1 2 3 13
M TOR 8 1 2 6 7
M TOR 9 1 2 6 8
M TOR 10 1 2 6 16
M TOR 11 1 5 4 3
M TOR 12 2 1 0 9
M TOR 13 2 1 0 10
M TOR 14 2 1 0 11
M TOR 15 2 1 5 4
M TOR 16 2 1 5 14
M TOR 17 2 1 5 15
M TOR 18 2 3 4 5
M TOR 19 2 6 7 8
M TOR 20 2 6 7 17
M TOR 21 2 6 7 18
M TOR 22 3 2 1 5
M TOR 23 3 2 6 7
M TOR 24 3 2 6 8
M TOR 25 3 2 6 16
M TOR 26 3 4 5 14
M TOR 27 3 4 5 15
M TOR 28 4 3 2 6
M TOR 29 5 1 0 9
M TOR 30 5 1 0 10
M TOR 31 5 1 0 11
M TOR 32 5 1 2 6
M TOR 33 5 4 3 12
M TOR 34 5 4 3 13
M TOR 35 6 2 3 12
M TOR 36 6 2 3 13
M TOR 37 6 8 7 17
M TOR 38 6 8 7 18
M TOR 39 7 8 6 16
M  END
$$$$
