
     RDKit          3D

 19 20  0  0  0  0  0  0  0  0999 V2000
    1.8511    0.1918   -0.1451 O   0  0  0  0  0  0  0  0  0  0  0  0
    0.4584    0.4045    0.0475 C   0  0  0  0  0  0  0  0  0  0  0  0
   -0.1003    0.9886   -1.2217 C   0  0  0  0  0  0  0  0  0  0  0  0
   -1.5886    1.4755   -1.3254 C   0  0  0  0  0  0  0  0  0  0  0  0
   -1.0006    2.1932   -2.5943 C   0  0  0  0  0  0  0  0  0  0  0  0
   -1.6576    3.1874   -3.3092 O   0  0  0  0  0  0  0  0  0  0  0  0
    0.2979    2.4177   -1.7403 C   0  0  0  0  0  0  0  0  0  0  0  0
   -0.5771    0.9776   -3.4276 C   0  0  0  0  0  0  0  0  0  0  0  0
    0.0157    0.1870   -2.5326 C   0  0  0  0  0  0  0  0  0  0  0  0
    2.2072   -0.2111    0.6522 H   0  0  0  0  0  0  0  0  0  0  0  0
   -0.0605   -0.5412    0.2767 H   0  0  0  0  0  0  0  0  0  0  0  0
    0.2713    1.0920    0.8880 H   0  0  0  0  0  0  0  0  0  0  0  0
   -2.3606    0.7192   -1.4835 H   0  0  0  0  0  0  0  0  0  0  0  0
   -1.8701    2.1700   -0.5242 H   0  0  0  0  0  0  0  0  0  0  0  0
   -1.8548    3.9131   -2.7090 H   0  0  0  0  0  0  0  0  0  0  0  0
    1.2452    2.5163   -2.2719 H   0  0  0  0  0  0  0  0  0  0  0  0
    0.1878    3.1954   -0.9742 H   0  0  0  0  0  0  0  0  0  0  0  0
   -0.7459    0.8632   -4.4886 H   0  0  0  0  0  0  0  0  0  0  0  0
    0.4926   -0.7758   -2.6440 H   0  0  0  0  0  0  0  0  0  0  0  0
  1  2  1  0
  2  3  1  0
  3  4  1  0
  4  5  1  0
  5  6  1  0
  5  7  1  0
  5  8  1  0
  8  9  2  0
  7  3  1  0
  9  3  1  0
  1 10  1  0
  2 11  1  0
  2 12  1  0
  4 13  1  0
  4 14  1  0
  6 15  1  0
  7 16  1  0
  7 17  1  0
  8 18  1  0
  9 19  1  0
M  END
$$$$
