gdb 1483	2.3280415	1.8603036	1.3559057	2.4885	74.37	-0.23156	-0.01302	0.21853999999999998	1005.5305	0.156759	-422.571871	-422.563453	-422.562509	-422.604216	32.814
 OpenBabel02181911403D

 19 20  0  0  1  0  0  0  0  0999 V2000
   -0.9609   -0.0532   -2.3711 C   0  0  0  0  0  0  0  0  0  0  0  0
   -1.5448   -0.0393   -0.9672 C   0  0  2  0  0  0  0  0  0  0  0  0
   -2.9368   -0.1478   -1.1199 O   0  0  0  0  0  0  0  0  0  0  0  0
   -0.9742    1.1007   -0.0305 C   0  0  1  0  0  0  0  0  0  0  0  0
   -1.7206    0.8306    1.2955 C   0  0  0  0  0  0  0  0  0  0  0  0
   -1.6052   -0.7418    1.3587 C   0  0  0  0  0  0  0  0  0  0  0  0
   -0.8195   -1.0052    0.0543 C   0  0  2  0  0  0  0  0  0  0  0  0
    0.2101    0.1345    0.1482 C   0  0  0  0  0  0  0  0  0  0  0  0
    1.3987    0.2254    0.2366 O   0  0  0  0  0  0  0  0  0  0  0  0
   -1.2333   -0.9824   -2.8798 H   0  0  0  0  0  0  0  0  0  0  0  0
   -1.3648    0.7812   -2.9517 H   0  0  0  0  0  0  0  0  0  0  0  0
    0.1288    0.0286   -2.3572 H   0  0  0  0  0  0  0  0  0  0  0  0
   -3.3639   -0.1421   -0.2584 H   0  0  0  0  0  0  0  0  0  0  0  0
   -0.8543    2.1298   -0.3634 H   0  0  0  0  0  0  0  0  0  0  0  0
   -1.2406    1.3191    2.1463 H   0  0  0  0  0  0  0  0  0  0  0  0
   -2.7562    1.1836    1.2620 H   0  0  0  0  0  0  0  0  0  0  0  0
   -1.0644   -1.0855    2.2432 H   0  0  0  0  0  0  0  0  0  0  0  0
   -2.5781   -1.2434    1.3592 H   0  0  0  0  0  0  0  0  0  0  0  0
   -0.5488   -2.0292   -0.1959 H   0  0  0  0  0  0  0  0  0  0  0  0
  1 12  1  0  0  0  0
  1  2  1  0  0  0  0
  2  3  1  1  0  0  0
  2  4  1  0  0  0  0
  2  7  1  0  0  0  0
  3 13  1  0  0  0  0
  4 14  1  6  0  0  0
  4  8  1  0  0  0  0
  4  5  1  0  0  0  0
  5  6  1  0  0  0  0
  5 15  1  0  0  0  0
  6 18  1  0  0  0  0
  6 17  1  0  0  0  0
  7 19  1  6  0  0  0
  7  8  1  0  0  0  0
  7  6  1  0  0  0  0
  8  9  2  0  0  0  0
 10  1  1  0  0  0  0
 11  1  1  0  0  0  0
 16  5  1  0  0  0  0
M TOR 0 0 1 2 12
M TOR 1 0 1 3 4
M TOR 2 0 1 3 7
M TOR 3 0 1 3 13
M TOR 4 0 1 6 5
M TOR 5 0 1 6 7
M TOR 6 0 1 6 18
M TOR 7 1 3 4 5
M TOR 8 1 3 4 14
M TOR 9 1 3 4 15
M TOR 10 1 3 7 6
M TOR 11 1 3 7 8
M TOR 12 1 6 5 4
M TOR 13 1 6 5 16
M TOR 14 1 6 5 17
M TOR 15 1 6 7 8
M TOR 16 2 1 0 9
M TOR 17 2 1 0 10
M TOR 18 2 1 0 11
M TOR 19 2 1 3 4
M TOR 20 2 1 3 7
M TOR 21 2 1 3 13
M TOR 22 2 1 6 5
M TOR 23 2 1 6 7
M TOR 24 2 1 6 18
M TOR 25 3 1 0 9
M TOR 26 3 1 0 10
M TOR 27 3 1 0 11
M TOR 28 3 1 2 12
M TOR 29 3 1 6 5
M TOR 30 3 1 6 18
M TOR 31 3 4 5 6
M TOR 32 3 4 5 16
M TOR 33 3 4 5 17
M TOR 34 3 7 6 5
M TOR 35 3 7 6 18
M TOR 36 4 3 1 6
M TOR 37 4 3 7 6
M TOR 38 4 3 7 8
M TOR 39 4 5 6 7
M TOR 40 4 5 6 18
M TOR 41 5 4 3 7
M TOR 42 5 4 3 13
M TOR 43 5 6 7 8
M TOR 44 6 1 0 9
M TOR 45 6 1 0 10
M TOR 46 6 1 0 11
M TOR 47 6 1 2 12
M TOR 48 6 1 3 13
M TOR 49 6 5 4 14
M TOR 50 6 5 4 15
M TOR 51 6 7 3 13
M TOR 52 7 3 4 14
M TOR 53 7 3 4 15
M TOR 54 7 6 5 16
M TOR 55 7 6 5 17
M TOR 56 8 7 3 13
M TOR 57 8 7 6 18
M  END
$$$$
