gdb 4158	2.1814259	1.9923964	1.4603669	2.9346	73.72	-0.23247	-0.00989	0.22258	971.7072	0.159068	-422.605646	-422.598033	-422.597089	-422.637585	30.299
 OpenBabel02181911413D

 19 20  0  0  1  0  0  0  0  0999 V2000
   -0.8542   -1.2644    2.5003 O   0  0  0  0  0  0  0  0  0  0  0  0
   -1.7033   -1.3970    1.3737 C   0  0  1  0  0  0  0  0  0  0  0  0
   -2.6853   -0.1903    1.3339 C   0  0  0  0  0  0  0  0  0  0  0  0
   -2.3513    0.5006   -0.0062 C   0  0  2  0  0  0  0  0  0  0  0  0
   -2.0682   -0.7277   -0.9080 C   0  0  0  0  0  0  0  0  0  0  0  0
   -0.9617   -1.3027    0.0031 C   0  0  1  0  0  0  0  0  0  0  0  0
   -0.0297   -0.0972    0.1339 C   0  0  0  0  0  0  0  0  0  0  0  0
    1.1687   -0.1103    0.2340 O   0  0  0  0  0  0  0  0  0  0  0  0
   -0.9487    1.1364    0.0996 C   0  0  0  0  0  0  0  0  0  0  0  0
   -0.1173   -1.8775    2.4040 H   0  0  0  0  0  0  0  0  0  0  0  0
   -2.2514   -2.3490    1.4163 H   0  0  0  0  0  0  0  0  0  0  0  0
   -3.7247   -0.5287    1.3525 H   0  0  0  0  0  0  0  0  0  0  0  0
   -2.5222    0.4500    2.2041 H   0  0  0  0  0  0  0  0  0  0  0  0
   -3.1231    1.1842   -0.3626 H   0  0  0  0  0  0  0  0  0  0  0  0
   -2.9300   -1.3946   -1.0061 H   0  0  0  0  0  0  0  0  0  0  0  0
   -1.7106   -0.4680   -1.9091 H   0  0  0  0  0  0  0  0  0  0  0  0
   -0.4523   -2.2166   -0.3032 H   0  0  0  0  0  0  0  0  0  0  0  0
   -0.7940    1.7611    0.9836 H   0  0  0  0  0  0  0  0  0  0  0  0
   -0.7048    1.7408   -0.7819 H   0  0  0  0  0  0  0  0  0  0  0  0
  2 11  1  1  0  0  0
  2  1  1  0  0  0  0
  3 12  1  0  0  0  0
  3  2  1  0  0  0  0
  3 13  1  0  0  0  0
  4 14  1  6  0  0  0
  4  9  1  0  0  0  0
  4  3  1  0  0  0  0
  5  4  1  0  0  0  0
  5  6  1  0  0  0  0
  6 17  1  6  0  0  0
  6  7  1  0  0  0  0
  6  2  1  0  0  0  0
  7  8  2  0  0  0  0
  9  7  1  0  0  0  0
  9 18  1  0  0  0  0
 10  1  1  0  0  0  0
 15  5  1  0  0  0  0
 16  5  1  0  0  0  0
 19  9  1  0  0  0  0
M TOR 0 0 1 2 3
M TOR 1 0 1 2 11
M TOR 2 0 1 2 12
M TOR 3 0 1 5 4
M TOR 4 0 1 5 6
M TOR 5 0 1 5 16
M TOR 6 1 2 3 4
M TOR 7 1 2 3 8
M TOR 8 1 2 3 13
M TOR 9 1 5 4 3
M TOR 10 1 5 4 14
M TOR 11 1 5 4 15
M TOR 12 1 5 6 7
M TOR 13 1 5 6 8
M TOR 14 2 1 0 9
M TOR 15 2 1 5 4
M TOR 16 2 1 5 6
M TOR 17 2 1 5 16
M TOR 18 2 3 4 5
M TOR 19 2 3 4 14
M TOR 20 2 3 4 15
M TOR 21 2 3 8 6
M TOR 22 2 3 8 17
M TOR 23 2 3 8 18
M TOR 24 3 2 1 5
M TOR 25 3 2 1 10
M TOR 26 3 4 5 6
M TOR 27 3 4 5 16
M TOR 28 3 8 6 5
M TOR 29 3 8 6 7
M TOR 30 4 3 2 11
M TOR 31 4 3 2 12
M TOR 32 4 3 8 6
M TOR 33 4 3 8 17
M TOR 34 4 3 8 18
M TOR 35 4 5 1 10
M TOR 36 4 5 6 7
M TOR 37 4 5 6 8
M TOR 38 5 1 0 9
M TOR 39 5 1 2 11
M TOR 40 5 1 2 12
M TOR 41 5 4 3 8
M TOR 42 5 4 3 13
M TOR 43 5 6 8 17
M TOR 44 5 6 8 18
M TOR 45 6 5 1 10
M TOR 46 6 5 4 14
M TOR 47 6 5 4 15
M TOR 48 6 8 3 13
M TOR 49 7 6 5 16
M TOR 50 7 6 8 17
M TOR 51 7 6 8 18
M TOR 52 8 3 2 11
M TOR 53 8 3 2 12
M TOR 54 8 3 4 14
M TOR 55 8 3 4 15
M TOR 56 8 6 5 16
M  END
$$$$
