
     RDKit          3D

 19 21  0  0  0  0  0  0  0  0999 V2000
    4.7560   -0.3265    1.6139 C   0  0  0  0  0  0  0  0  0  0  0  0
    3.4746   -0.5335    0.8674 C   0  0  0  0  0  0  0  0  0  0  0  0
    2.7154   -1.7239    1.1184 O   0  0  0  0  0  0  0  0  0  0  0  0
    2.0967   -0.4544    1.3508 C   0  0  0  0  0  0  0  0  0  0  0  0
    1.3933    0.1345    0.0836 C   0  0  0  0  0  0  0  0  0  0  0  0
   -0.1035    0.2258    0.0198 C   0  0  0  0  0  0  0  0  0  0  0  0
    2.3872    1.2892   -0.2673 C   0  0  0  0  0  0  0  0  0  0  0  0
    3.2355    0.0257   -0.5737 C   0  0  0  0  0  0  0  0  0  0  0  0
    2.0180   -0.6432   -0.9807 O   0  0  0  0  0  0  0  0  0  0  0  0
    4.6422   -0.6084    2.6637 H   0  0  0  0  0  0  0  0  0  0  0  0
    5.5592   -0.9351    1.1837 H   0  0  0  0  0  0  0  0  0  0  0  0
    5.0707    0.7218    1.5656 H   0  0  0  0  0  0  0  0  0  0  0  0
    1.7802   -0.2267    2.3639 H   0  0  0  0  0  0  0  0  0  0  0  0
   -0.4841    0.8411    0.8418 H   0  0  0  0  0  0  0  0  0  0  0  0
   -0.4288    0.6686   -0.9255 H   0  0  0  0  0  0  0  0  0  0  0  0
   -0.5460   -0.7716    0.1060 H   0  0  0  0  0  0  0  0  0  0  0  0
    2.0947    1.8332   -1.1676 H   0  0  0  0  0  0  0  0  0  0  0  0
    2.7112    1.9685    0.5275 H   0  0  0  0  0  0  0  0  0  0  0  0
    4.0410   -0.0101   -1.3068 H   0  0  0  0  0  0  0  0  0  0  0  0
  1  2  1  0
  2  3  1  0
  3  4  1  0
  4  5  1  0
  5  6  1  0
  5  7  1  0
  7  8  1  0
  8  9  1  0
  4  2  1  0
  9  5  1  0
  8  2  1  0
  1 10  1  0
  1 11  1  0
  1 12  1  0
  4 13  1  0
  6 14  1  0
  6 15  1  0
  6 16  1  0
  7 17  1  0
  7 18  1  0
  8 19  1  0
M  END
$$$$
