
     RDKit          3D

 19 19  0  0  0  0  0  0  0  0999 V2000
    4.0366   -3.7271    0.1319 C   0  0  0  0  0  0  0  0  0  0  0  0
    3.3020   -2.4120    0.0021 C   0  0  0  0  0  0  0  0  0  0  0  0
    1.8534   -2.3447   -0.4175 C   0  0  0  0  0  0  0  0  0  0  0  0
    0.8936   -1.3556    0.2086 C   0  0  0  0  0  0  0  0  0  0  0  0
   -0.0496   -0.8479   -0.7214 O   0  0  0  0  0  0  0  0  0  0  0  0
    2.9481   -1.8611   -1.3673 C   0  0  0  0  0  0  0  0  0  0  0  0
    3.2891   -2.6915   -2.4455 O   0  0  0  0  0  0  0  0  0  0  0  0
    3.0545   -0.4481   -1.6325 C   0  0  0  0  0  0  0  0  0  0  0  0
    3.0873    0.7294   -1.8855 C   0  0  0  0  0  0  0  0  0  0  0  0
    3.8162   -4.1924    1.0985 H   0  0  0  0  0  0  0  0  0  0  0  0
    3.7473   -4.4193   -0.6606 H   0  0  0  0  0  0  0  0  0  0  0  0
    5.1193   -3.5785    0.0683 H   0  0  0  0  0  0  0  0  0  0  0  0
    3.6036   -1.6498    0.7163 H   0  0  0  0  0  0  0  0  0  0  0  0
    1.4098   -3.2829   -0.7420 H   0  0  0  0  0  0  0  0  0  0  0  0
    0.3115   -1.8498    0.9940 H   0  0  0  0  0  0  0  0  0  0  0  0
    1.4595   -0.5420    0.6853 H   0  0  0  0  0  0  0  0  0  0  0  0
    0.4454   -0.2972   -1.3393 H   0  0  0  0  0  0  0  0  0  0  0  0
    2.6360   -2.5546   -3.1410 H   0  0  0  0  0  0  0  0  0  0  0  0
    3.1612    1.7673   -2.0995 H   0  0  0  0  0  0  0  0  0  0  0  0
  1  2  1  0
  2  3  1  0
  3  4  1  0
  4  5  1  0
  3  6  1  0
  6  7  1  0
  6  8  1  0
  8  9  3  0
  6  2  1  0
  1 10  1  0
  1 11  1  0
  1 12  1  0
  2 13  1  0
  3 14  1  0
  4 15  1  0
  4 16  1  0
  5 17  1  0
  7 18  1  0
  9 19  1  0
M  END
$$$$
