gdb 3016	2.1227746	1.6921136	1.4324134	3.2408	75.75	-0.23875	0.07331	0.31206	1049.0943	0.154367	-422.468145	-422.459346	-422.458402	-422.50106	33.31
 OpenBabel02181911413D

 19 21  0  0  1  0  0  0  0  0999 V2000
    0.5072    0.8749   -0.0594 C   0  0  0  0  0  0  0  0  0  0  0  0
    0.9122   -0.5876    0.0246 C   0  0  1  0  0  0  0  0  0  0  0  0
    2.0216   -1.2216   -0.8636 C   0  0  2  0  0  0  0  0  0  0  0  0
    2.0987   -2.3349    0.1117 O   0  0  0  0  0  0  0  0  0  0  0  0
    2.0533   -1.1054    0.9619 C   0  0  2  0  0  0  0  0  0  0  0  0
    2.1124   -1.2635    2.4465 C   0  0  0  0  0  0  0  0  0  0  0  0
    3.0787   -0.5015   -0.0203 C   0  0  2  0  0  0  0  0  0  0  0  0
    3.9654    0.6507   -0.1055 C   0  0  0  0  0  0  0  0  0  0  0  0
    4.4581   -0.7081   -0.0213 O   0  0  0  0  0  0  0  0  0  0  0  0
   -0.0912    1.1572    0.8135 H   0  0  0  0  0  0  0  0  0  0  0  0
    1.3662    1.5480   -0.1088 H   0  0  0  0  0  0  0  0  0  0  0  0
   -0.1094    1.0517   -0.9471 H   0  0  0  0  0  0  0  0  0  0  0  0
    0.0521   -1.2597    0.0797 H   0  0  0  0  0  0  0  0  0  0  0  0
    2.0132   -1.4769   -1.9226 H   0  0  0  0  0  0  0  0  0  0  0  0
    1.3040   -1.9120    2.7965 H   0  0  0  0  0  0  0  0  0  0  0  0
    3.0691   -1.7042    2.7419 H   0  0  0  0  0  0  0  0  0  0  0  0
    2.0124   -0.2897    2.9366 H   0  0  0  0  0  0  0  0  0  0  0  0
    4.1338    1.1441   -1.0617 H   0  0  0  0  0  0  0  0  0  0  0  0
    4.1540    1.2657    0.7734 H   0  0  0  0  0  0  0  0  0  0  0  0
  1  2  1  0  0  0  0
  1 10  1  0  0  0  0
  2 13  1  1  0  0  0
  2  5  1  0  0  0  0
  3 14  1  6  0  0  0
  3  7  1  0  0  0  0
  3  2  1  0  0  0  0
  3  4  1  0  0  0  0
  4  5  1  0  0  0  0
  5  6  1  1  0  0  0
  6 16  1  0  0  0  0
  6 15  1  0  0  0  0
  6 17  1  0  0  0  0
  7  9  1  1  0  0  0
  7  5  1  0  0  0  0
  8  9  1  0  0  0  0
  8  7  1  0  0  0  0
  8 19  1  0  0  0  0
 11  1  1  0  0  0  0
 12  1  1  0  0  0  0
 18  8  1  0  0  0  0
M TOR 0 0 1 2 3
M TOR 1 0 1 2 6
M TOR 2 0 1 2 13
M TOR 3 0 1 4 3
M TOR 4 0 1 4 5
M TOR 5 0 1 4 6
M TOR 6 1 2 3 4
M TOR 7 1 2 6 4
M TOR 8 1 2 6 7
M TOR 9 1 2 6 8
M TOR 10 1 4 5 14
M TOR 11 1 4 5 15
M TOR 12 1 4 5 16
M TOR 13 1 4 6 7
M TOR 14 1 4 6 8
M TOR 15 2 1 0 9
M TOR 16 2 1 0 10
M TOR 17 2 1 0 11
M TOR 18 2 1 4 5
M TOR 19 2 3 4 5
M TOR 20 2 3 4 6
M TOR 21 2 6 4 5
M TOR 22 2 6 7 8
M TOR 23 2 6 7 17
M TOR 24 2 6 7 18
M TOR 25 3 2 1 12
M TOR 26 3 2 6 7
M TOR 27 3 2 6 8
M TOR 28 3 4 1 12
M TOR 29 3 4 5 14
M TOR 30 3 4 5 15
M TOR 31 3 4 5 16
M TOR 32 3 4 6 7
M TOR 33 3 4 6 8
M TOR 34 4 1 0 9
M TOR 35 4 1 0 10
M TOR 36 4 1 0 11
M TOR 37 4 1 2 13
M TOR 38 4 3 2 13
M TOR 39 4 6 2 13
M TOR 40 4 6 7 8
M TOR 41 4 6 7 17
M TOR 42 4 6 7 18
M TOR 43 5 4 1 12
M TOR 44 5 4 6 7
M TOR 45 5 4 6 8
M TOR 46 6 2 1 12
M TOR 47 6 4 1 12
M TOR 48 6 4 5 14
M TOR 49 6 4 5 15
M TOR 50 6 4 5 16
M TOR 51 6 8 7 17
M TOR 52 6 8 7 18
M TOR 53 7 6 2 13
M TOR 54 8 6 2 13
M  END
$$$$
