gdb 3167	2.2882078	2.0409154	1.2719494	0.7977	73.68	-0.24762	0.07063	0.31825000000000003	1015.1142	0.158298	-422.533674	-422.526038	-422.525094	-422.5658	29.49
 OpenBabel02181911413D

 19 21  0  0  1  0  0  0  0  0999 V2000
   -0.0174   -0.0231   -0.1583 C   0  0  0  0  0  0  0  0  0  0  0  0
    1.5041    0.0275    0.0063 C   0  0  1  0  0  0  0  0  0  0  0  0
    2.0663    1.4423    0.1075 C   0  0  2  0  0  0  0  0  0  0  0  0
    3.4953    1.4795   -0.0281 O   0  0  0  0  0  0  0  0  0  0  0  0
    2.9392    1.5881    1.2840 C   0  0  2  0  0  0  0  0  0  0  0  0
    2.9955    0.2855    2.0475 C   0  0  1  0  0  0  0  0  0  0  0  0
    1.9969    0.1745    3.2133 C   0  0  0  0  0  0  0  0  0  0  0  0
    1.0616   -0.5599    2.3987 O   0  0  0  0  0  0  0  0  0  0  0  0
    2.0059   -0.6557    1.3014 C   0  0  1  0  0  0  0  0  0  0  0  0
   -0.5185    0.4417    0.6934 H   0  0  0  0  0  0  0  0  0  0  0  0
   -0.3227    0.4939   -1.0735 H   0  0  0  0  0  0  0  0  0  0  0  0
   -0.3686   -1.0573   -0.2230 H   0  0  0  0  0  0  0  0  0  0  0  0
    1.9783   -0.4593   -0.8545 H   0  0  0  0  0  0  0  0  0  0  0  0
    1.5377    2.2814   -0.3403 H   0  0  0  0  0  0  0  0  0  0  0  0
    3.1045    2.5375    1.7905 H   0  0  0  0  0  0  0  0  0  0  0  0
    4.0144   -0.0591    2.2297 H   0  0  0  0  0  0  0  0  0  0  0  0
    2.3508   -0.4219    4.0638 H   0  0  0  0  0  0  0  0  0  0  0  0
    1.5711    1.1134    3.5893 H   0  0  0  0  0  0  0  0  0  0  0  0
    2.3145   -1.6955    1.1476 H   0  0  0  0  0  0  0  0  0  0  0  0
  1  2  1  0  0  0  0
  1 10  1  0  0  0  0
  2 13  1  6  0  0  0
  2  3  1  0  0  0  0
  2  9  1  0  0  0  0
  3 14  1  6  0  0  0
  3  5  1  0  0  0  0
  4  3  1  0  0  0  0
  4  5  1  0  0  0  0
  5 15  1  1  0  0  0
  5  6  1  0  0  0  0
  6 16  1  1  0  0  0
  6  7  1  0  0  0  0
  7 18  1  0  0  0  0
  7 17  1  0  0  0  0
  8  7  1  0  0  0  0
  9 19  1  6  0  0  0
  9  6  1  0  0  0  0
  9  8  1  0  0  0  0
 11  1  1  0  0  0  0
 12  1  1  0  0  0  0
M TOR 0 0 1 2 3
M TOR 1 0 1 2 4
M TOR 2 0 1 2 13
M TOR 3 0 1 8 5
M TOR 4 0 1 8 7
M TOR 5 0 1 8 18
M TOR 6 1 2 3 4
M TOR 7 1 2 4 5
M TOR 8 1 2 4 14
M TOR 9 1 8 5 4
M TOR 10 1 8 5 6
M TOR 11 1 8 5 15
M TOR 12 1 8 7 6
M TOR 13 2 1 0 9
M TOR 14 2 1 0 10
M TOR 15 2 1 0 11
M TOR 16 2 1 8 5
M TOR 17 2 1 8 7
M TOR 18 2 1 8 18
M TOR 19 2 3 4 5
M TOR 20 2 3 4 14
M TOR 21 2 4 5 6
M TOR 22 2 4 5 8
M TOR 23 2 4 5 15
M TOR 24 3 2 1 8
M TOR 25 3 2 1 12
M TOR 26 3 4 2 13
M TOR 27 3 4 5 6
M TOR 28 3 4 5 8
M TOR 29 3 4 5 15
M TOR 30 4 2 1 8
M TOR 31 4 2 1 12
M TOR 32 4 5 6 7
M TOR 33 4 5 6 16
M TOR 34 4 5 6 17
M TOR 35 4 5 8 7
M TOR 36 4 5 8 18
M TOR 37 5 4 2 13
M TOR 38 5 6 7 8
M TOR 39 5 8 1 12
M TOR 40 6 5 4 14
M TOR 41 6 5 8 18
M TOR 42 6 7 8 18
M TOR 43 7 6 5 15
M TOR 44 7 8 1 12
M TOR 45 7 8 5 15
M TOR 46 8 1 0 9
M TOR 47 8 1 0 10
M TOR 48 8 1 0 11
M TOR 49 8 1 2 13
M TOR 50 8 5 4 14
M TOR 51 8 5 6 16
M TOR 52 8 5 6 17
M TOR 53 8 7 6 16
M TOR 54 8 7 6 17
M  END
$$$$
