gdb 2316	2.6011806	1.9871946	1.6370252	1.0704	74.3	-0.24848	0.07971	0.32819	907.0705	0.158903	-422.503181	-422.496247	-422.495303	-422.533793	29.63
 OpenBabel02181911413D

 19 21  0  0  1  0  0  0  0  0999 V2000
    0.7237    0.1816    0.3764 O   0  0  0  0  0  0  0  0  0  0  0  0
   -0.4086    0.5612    1.1420 C   0  0  1  0  0  0  0  0  0  0  0  0
   -1.6105   -0.3653    0.7906 C   0  0  0  0  0  0  0  0  0  0  0  0
   -1.1959   -1.2700    1.8816 O   0  0  0  0  0  0  0  0  0  0  0  0
   -0.5246   -0.1461    2.4859 C   0  0  2  0  0  0  0  0  0  0  0  0
   -1.2607    0.8569    3.4023 C   0  0  0  0  0  0  0  0  0  0  0  0
    0.0414    1.6565    3.1351 C   0  0  1  0  0  0  0  0  0  0  0  0
    0.7894    0.2510    3.1878 C   0  0  0  0  0  0  0  0  0  0  0  0
   -0.1751    2.0102    1.6223 C   0  0  0  0  0  0  0  0  0  0  0  0
    0.7512   -0.7837    0.3576 H   0  0  0  0  0  0  0  0  0  0  0  0
   -2.6123    0.0367    0.9709 H   0  0  0  0  0  0  0  0  0  0  0  0
   -1.5649   -0.8597   -0.1833 H   0  0  0  0  0  0  0  0  0  0  0  0
   -2.2059    1.2916    3.0665 H   0  0  0  0  0  0  0  0  0  0  0  0
   -1.3495    0.4923    4.4278 H   0  0  0  0  0  0  0  0  0  0  0  0
    0.3614    2.4549    3.8024 H   0  0  0  0  0  0  0  0  0  0  0  0
    1.7142    0.1288    2.6244 H   0  0  0  0  0  0  0  0  0  0  0  0
    0.8966   -0.0872    4.2201 H   0  0  0  0  0  0  0  0  0  0  0  0
   -1.0216    2.6906    1.4998 H   0  0  0  0  0  0  0  0  0  0  0  0
    0.6963    2.4361    1.1227 H   0  0  0  0  0  0  0  0  0  0  0  0
  2  1  1  6  0  0  0
  2  9  1  0  0  0  0
  2  5  1  0  0  0  0
  3 11  1  0  0  0  0
  3  2  1  0  0  0  0
  3  4  1  0  0  0  0
  5  4  1  1  0  0  0
  5  8  1  0  0  0  0
  5  6  1  0  0  0  0
  6 14  1  0  0  0  0
  7  8  1  0  0  0  0
  7  6  1  0  0  0  0
  7 15  1  1  0  0  0
  8 17  1  0  0  0  0
  9  7  1  0  0  0  0
 10  1  1  0  0  0  0
 12  3  1  0  0  0  0
 13  6  1  0  0  0  0
 16  8  1  0  0  0  0
 18  9  1  0  0  0  0
 19  9  1  0  0  0  0
M TOR 0 0 1 2 3
M TOR 1 0 1 2 10
M TOR 2 0 1 2 11
M TOR 3 0 1 4 3
M TOR 4 0 1 4 5
M TOR 5 0 1 4 7
M TOR 6 0 1 8 6
M TOR 7 0 1 8 17
M TOR 8 0 1 8 18
M TOR 9 1 2 3 4
M TOR 10 1 4 5 6
M TOR 11 1 4 5 12
M TOR 12 1 4 5 13
M TOR 13 1 4 7 6
M TOR 14 1 4 7 15
M TOR 15 1 4 7 16
M TOR 16 1 8 6 5
M TOR 17 1 8 6 7
M TOR 18 1 8 6 14
M TOR 19 2 1 0 9
M TOR 20 2 1 4 5
M TOR 21 2 1 4 7
M TOR 22 2 1 8 6
M TOR 23 2 1 8 17
M TOR 24 2 1 8 18
M TOR 25 2 3 4 5
M TOR 26 2 3 4 7
M TOR 27 3 2 1 8
M TOR 28 3 4 1 8
M TOR 29 3 4 5 6
M TOR 30 3 4 5 12
M TOR 31 3 4 5 13
M TOR 32 3 4 7 6
M TOR 33 3 4 7 15
M TOR 34 3 4 7 16
M TOR 35 4 1 0 9
M TOR 36 4 1 2 10
M TOR 37 4 1 2 11
M TOR 38 4 1 8 6
M TOR 39 4 1 8 17
M TOR 40 4 1 8 18
M TOR 41 4 3 2 10
M TOR 42 4 3 2 11
M TOR 43 4 5 6 7
M TOR 44 4 5 6 8
M TOR 45 4 5 6 14
M TOR 46 4 7 6 8
M TOR 47 4 7 6 14
M TOR 48 5 4 1 8
M TOR 49 5 4 7 15
M TOR 50 5 4 7 16
M TOR 51 5 6 7 15
M TOR 52 5 6 7 16
M TOR 53 5 6 8 17
M TOR 54 5 6 8 18
M TOR 55 7 4 1 8
M TOR 56 7 4 5 12
M TOR 57 7 4 5 13
M TOR 58 7 6 5 12
M TOR 59 7 6 5 13
M TOR 60 7 6 8 17
M TOR 61 7 6 8 18
M TOR 62 8 1 0 9
M TOR 63 8 1 2 10
M TOR 64 8 1 2 11
M TOR 65 8 6 5 12
M TOR 66 8 6 5 13
M TOR 67 8 6 7 15
M TOR 68 8 6 7 16
M  END
$$$$
