
     RDKit          3D

 19 20  0  0  0  0  0  0  0  0999 V2000
   -2.8869   -1.5338    0.2686 C   0  0  0  0  0  0  0  0  0  0  0  0
   -3.1681   -2.4687    1.3360 O   0  0  0  0  0  0  0  0  0  0  0  0
   -1.8331   -2.3316    1.8775 C   0  0  0  0  0  0  0  0  0  0  0  0
   -1.4757   -1.3550    0.7815 C   0  0  0  0  0  0  0  0  0  0  0  0
   -0.4089   -0.6603    0.4275 C   0  0  0  0  0  0  0  0  0  0  0  0
    0.9440   -0.6475    1.1090 C   0  0  0  0  0  0  0  0  0  0  0  0
    1.8310   -0.0236    0.0192 C   0  0  0  0  0  0  0  0  0  0  0  0
    0.9799    0.8769   -0.6773 O   0  0  0  0  0  0  0  0  0  0  0  0
   -0.2980    0.2632   -0.7742 C   0  0  0  0  0  0  0  0  0  0  0  0
   -2.9911   -1.9950   -0.7242 H   0  0  0  0  0  0  0  0  0  0  0  0
   -3.5371   -0.6480    0.3122 H   0  0  0  0  0  0  0  0  0  0  0  0
   -1.8421   -1.9328    2.9020 H   0  0  0  0  0  0  0  0  0  0  0  0
   -1.2858   -3.2855    1.8783 H   0  0  0  0  0  0  0  0  0  0  0  0
    0.9252   -0.0028    1.9964 H   0  0  0  0  0  0  0  0  0  0  0  0
    1.2781   -1.6403    1.4239 H   0  0  0  0  0  0  0  0  0  0  0  0
    2.6781    0.5480    0.4058 H   0  0  0  0  0  0  0  0  0  0  0  0
    2.2156   -0.8031   -0.6589 H   0  0  0  0  0  0  0  0  0  0  0  0
   -1.0550    1.0551   -0.7892 H   0  0  0  0  0  0  0  0  0  0  0  0
   -0.3895   -0.3069   -1.7149 H   0  0  0  0  0  0  0  0  0  0  0  0
  1  2  1  0
  2  3  1  0
  3  4  1  0
  4  5  2  3
  5  6  1  0
  6  7  1  0
  7  8  1  0
  8  9  1  0
  4  1  1  0
  9  5  1  0
  1 10  1  0
  1 11  1  0
  3 12  1  0
  3 13  1  0
  6 14  1  0
  6 15  1  0
  7 16  1  0
  7 17  1  0
  9 18  1  0
  9 19  1  0
M  END
$$$$
