gdb 2108	2.4618203	1.5805203	1.3941069	1.3777	75.43	-0.22792	0.0614	0.28932	1039.3576	0.155428	-422.50884	-422.50003	-422.499086	-422.541447	34.205
 OpenBabel02181911403D

 19 21  0  0  1  0  0  0  0  0999 V2000
   -0.1160    0.2095   -0.1864 C   0  0  0  0  0  0  0  0  0  0  0  0
    1.3477   -0.0184    0.0803 C   0  0  1  0  0  0  0  0  0  0  0  0
    2.1110    0.7632    1.1943 C   0  0  0  0  0  0  0  0  0  0  0  0
    3.3619    0.5585    0.3487 C   0  0  1  0  0  0  0  0  0  0  0  0
    3.2452   -0.8584   -0.3038 C   0  0  1  0  0  0  0  0  0  0  0  0
    4.3442   -1.5118   -0.8214 O   0  0  0  0  0  0  0  0  0  0  0  0
    1.9361   -1.4636    0.1886 C   0  0  0  0  0  0  0  0  0  0  0  0
    2.5633    0.3327   -0.9095 C   0  0  1  0  0  0  0  0  0  0  0  0
    2.6416    0.9681   -2.1197 O   0  0  0  0  0  0  0  0  0  0  0  0
   -0.7263   -0.1196    0.6635 H   0  0  0  0  0  0  0  0  0  0  0  0
   -0.3258    1.2707   -0.3572 H   0  0  0  0  0  0  0  0  0  0  0  0
   -0.4548   -0.3437   -1.0696 H   0  0  0  0  0  0  0  0  0  0  0  0
    1.8124    1.8157    1.2296 H   0  0  0  0  0  0  0  0  0  0  0  0
    2.0802    0.3394    2.2051 H   0  0  0  0  0  0  0  0  0  0  0  0
    4.3377    1.0223    0.4241 H   0  0  0  0  0  0  0  0  0  0  0  0
    4.9193   -1.7735   -0.0938 H   0  0  0  0  0  0  0  0  0  0  0  0
    1.5026   -2.1367   -0.5580 H   0  0  0  0  0  0  0  0  0  0  0  0
    1.9056   -1.9371    1.1776 H   0  0  0  0  0  0  0  0  0  0  0  0
    2.5216    0.3150   -2.8184 H   0  0  0  0  0  0  0  0  0  0  0  0
  1 10  1  0  0  0  0
  2  1  1  6  0  0  0
  2  7  1  0  0  0  0
  2  3  1  0  0  0  0
  3 13  1  0  0  0  0
  3 14  1  0  0  0  0
  4 15  1  1  0  0  0
  4  3  1  0  0  0  0
  5  6  1  6  0  0  0
  5  7  1  0  0  0  0
  5  4  1  0  0  0  0
  6 16  1  0  0  0  0
  7 18  1  0  0  0  0
  8  9  1  6  0  0  0
  8  5  1  0  0  0  0
  8  2  1  0  0  0  0
  8  4  1  0  0  0  0
 11  1  1  0  0  0  0
 12  1  1  0  0  0  0
 17  7  1  0  0  0  0
 19  9  1  0  0  0  0
M TOR 0 0 1 2 3
M TOR 1 0 1 2 12
M TOR 2 0 1 2 13
M TOR 3 0 1 6 4
M TOR 4 0 1 6 16
M TOR 5 0 1 6 17
M TOR 6 0 1 7 3
M TOR 7 0 1 7 4
M TOR 8 0 1 7 8
M TOR 9 1 2 3 4
M TOR 10 1 2 3 7
M TOR 11 1 2 3 14
M TOR 12 1 6 4 3
M TOR 13 1 6 4 5
M TOR 14 1 6 4 7
M TOR 15 1 7 3 4
M TOR 16 1 7 3 14
M TOR 17 1 7 4 5
M TOR 18 1 7 8 18
M TOR 19 2 1 0 9
M TOR 20 2 1 0 10
M TOR 21 2 1 0 11
M TOR 22 2 1 6 4
M TOR 23 2 1 6 16
M TOR 24 2 1 6 17
M TOR 25 2 1 7 4
M TOR 26 2 1 7 8
M TOR 27 2 3 4 5
M TOR 28 2 3 4 6
M TOR 29 2 3 4 7
M TOR 30 2 3 7 8
M TOR 31 3 2 1 6
M TOR 32 3 4 5 15
M TOR 33 3 4 6 16
M TOR 34 3 4 6 17
M TOR 35 3 4 7 8
M TOR 36 3 7 1 6
M TOR 37 3 7 4 5
M TOR 38 3 7 4 6
M TOR 39 3 7 8 18
M TOR 40 4 3 2 12
M TOR 41 4 3 2 13
M TOR 42 4 7 3 14
M TOR 43 4 7 8 18
M TOR 44 5 4 3 14
M TOR 45 5 4 6 16
M TOR 46 5 4 6 17
M TOR 47 5 4 7 8
M TOR 48 6 1 0 9
M TOR 49 6 1 0 10
M TOR 50 6 1 0 11
M TOR 51 6 1 2 12
M TOR 52 6 1 2 13
M TOR 53 6 1 7 8
M TOR 54 6 4 3 14
M TOR 55 6 4 5 15
M TOR 56 6 4 7 8
M TOR 57 7 1 0 9
M TOR 58 7 1 0 10
M TOR 59 7 1 0 11
M TOR 60 7 1 2 12
M TOR 61 7 1 2 13
M TOR 62 7 1 6 16
M TOR 63 7 1 6 17
M TOR 64 7 3 2 12
M TOR 65 7 3 2 13
M TOR 66 7 4 5 15
M TOR 67 7 4 6 16
M TOR 68 7 4 6 17
M TOR 69 8 7 3 14
M  END
$$$$
