gdb 882	3.1559441	1.1879366	0.9029531	2.8166	77.81	-0.24253	-0.02792	0.21461	1272.6611	0.156782	-422.564829	-422.556195	-422.55525	-422.598599	31.728
 OpenBabel02181911403D

 19 19  0  0  1  0  0  0  0  0999 V2000
    0.7034    0.1729    0.7816 O   0  0  0  0  0  0  0  0  0  0  0  0
    0.0700   -0.2255   -0.1599 C   0  0  0  0  0  0  0  0  0  0  0  0
   -0.4638    0.6652   -1.2789 C   0  0  2  0  0  0  0  0  0  0  0  0
   -0.8906    2.0395   -0.7530 C   0  0  0  0  0  0  0  0  0  0  0  0
   -1.2409    3.0565   -1.8105 C   0  0  0  0  0  0  0  0  0  0  0  0
   -1.9780    2.8616   -2.9049 C   0  0  0  0  0  0  0  0  0  0  0  0
   -2.6409    1.5770   -3.3445 C   0  0  0  0  0  0  0  0  0  0  0  0
   -1.7945    0.3063   -3.2319 C   0  0  0  0  0  0  0  0  0  0  0  0
   -1.4933   -0.0746   -1.9004 O   0  0  0  0  0  0  0  0  0  0  0  0
   -0.1728   -1.3007   -0.3063 H   0  0  0  0  0  0  0  0  0  0  0  0
    0.3748    0.8031   -1.9880 H   0  0  0  0  0  0  0  0  0  0  0  0
   -1.7453    1.8910   -0.0773 H   0  0  0  0  0  0  0  0  0  0  0  0
   -0.0723    2.4076   -0.1272 H   0  0  0  0  0  0  0  0  0  0  0  0
   -0.8723    4.0631   -1.6257 H   0  0  0  0  0  0  0  0  0  0  0  0
   -2.1627    3.7229   -3.5432 H   0  0  0  0  0  0  0  0  0  0  0  0
   -3.5648    1.4213   -2.7686 H   0  0  0  0  0  0  0  0  0  0  0  0
   -2.9511    1.6707   -4.3920 H   0  0  0  0  0  0  0  0  0  0  0  0
   -2.3504   -0.5359   -3.6568 H   0  0  0  0  0  0  0  0  0  0  0  0
   -0.8625    0.4248   -3.8073 H   0  0  0  0  0  0  0  0  0  0  0  0
  2  1  2  0  0  0  0
  3 11  1  6  0  0  0
  3  4  1  0  0  0  0
  3  2  1  0  0  0  0
  4 13  1  0  0  0  0
  4 12  1  0  0  0  0
  5 14  1  0  0  0  0
  5  4  1  0  0  0  0
  6  5  2  0  0  0  0
  7  8  1  0  0  0  0
  7  6  1  0  0  0  0
  7 16  1  0  0  0  0
  8  9  1  0  0  0  0
  9  3  1  0  0  0  0
 10  2  1  0  0  0  0
 15  6  1  0  0  0  0
 17  7  1  0  0  0  0
 18  8  1  0  0  0  0
 19  8  1  0  0  0  0
M TOR 0 0 1 2 3
M TOR 1 0 1 2 8
M TOR 2 0 1 2 10
M TOR 3 1 2 3 4
M TOR 4 1 2 3 11
M TOR 5 1 2 3 12
M TOR 6 1 2 8 7
M TOR 7 2 3 4 5
M TOR 8 2 3 4 13
M TOR 9 2 8 7 6
M TOR 10 2 8 7 17
M TOR 11 2 8 7 18
M TOR 12 3 2 1 9
M TOR 13 3 2 8 7
M TOR 14 3 4 5 6
M TOR 15 3 4 5 14
M TOR 16 4 3 2 8
M TOR 17 4 3 2 10
M TOR 18 4 5 6 7
M TOR 19 4 5 6 15
M TOR 20 4 5 6 16
M TOR 21 5 4 3 11
M TOR 22 5 4 3 12
M TOR 23 5 6 7 8
M TOR 24 5 6 7 17
M TOR 25 5 6 7 18
M TOR 26 6 5 4 13
M TOR 27 7 6 5 14
M TOR 28 7 8 2 10
M TOR 29 8 2 1 9
M TOR 30 8 2 3 11
M TOR 31 8 2 3 12
M TOR 32 8 7 6 15
M TOR 33 8 7 6 16
M  END
$$$$
