gdb 3192	2.6919925	1.6967124	1.5101801	0.8398	73.9	-0.23471	0.06561	0.30032000000000003	972.9961	0.15798	-422.524508	-422.516944	-422.516	-422.555924	30.641
 OpenBabel02181911413D

 19 21  0  0  1  0  0  0  0  0999 V2000
   -0.0000   -4.0041    0.6283 C   0  0  0  0  0  0  0  0  0  0  0  0
    0.2651   -2.7363   -0.1397 C   0  0  1  0  0  0  0  0  0  0  0  0
    1.5275   -2.4406   -0.9744 C   0  0  0  0  0  0  0  0  0  0  0  0
    0.6771   -1.2997   -1.5921 C   0  0  1  0  0  0  0  0  0  0  0  0
   -0.6186   -2.1856   -1.2864 C   0  0  2  0  0  0  0  0  0  0  0  0
   -1.4874   -1.4743   -0.3890 O   0  0  0  0  0  0  0  0  0  0  0  0
   -0.2886   -1.3651    0.4351 C   0  0  2  0  0  0  0  0  0  0  0  0
    0.5184   -0.3394   -0.4003 C   0  0  1  0  0  0  0  0  0  0  0  0
    1.7692    0.0613    0.1196 O   0  0  0  0  0  0  0  0  0  0  0  0
    0.6440   -4.0732    1.5126 H   0  0  0  0  0  0  0  0  0  0  0  0
   -1.0413   -4.0415    0.9654 H   0  0  0  0  0  0  0  0  0  0  0  0
    0.1891   -4.8887    0.0107 H   0  0  0  0  0  0  0  0  0  0  0  0
    2.4574   -2.1649   -0.4775 H   0  0  0  0  0  0  0  0  0  0  0  0
    1.7043   -3.2524   -1.6871 H   0  0  0  0  0  0  0  0  0  0  0  0
    0.8913   -0.8764   -2.5712 H   0  0  0  0  0  0  0  0  0  0  0  0
   -1.1084   -2.7538   -2.0765 H   0  0  0  0  0  0  0  0  0  0  0  0
   -0.4842   -1.1829    1.4930 H   0  0  0  0  0  0  0  0  0  0  0  0
   -0.1189    0.5217   -0.6348 H   0  0  0  0  0  0  0  0  0  0  0  0
    1.6046    0.6548    0.8586 H   0  0  0  0  0  0  0  0  0  0  0  0
  1 11  1  0  0  0  0
  1 10  1  0  0  0  0
  2  7  1  0  0  0  0
  2  1  1  1  0  0  0
  3 13  1  0  0  0  0
  3  2  1  0  0  0  0
  4 15  1  6  0  0  0
  4  5  1  0  0  0  0
  4  3  1  0  0  0  0
  4  8  1  0  0  0  0
  5 16  1  6  0  0  0
  5  6  1  0  0  0  0
  5  2  1  0  0  0  0
  6  7  1  0  0  0  0
  7 17  1  1  0  0  0
  8 18  1  6  0  0  0
  8  9  1  0  0  0  0
  8  7  1  0  0  0  0
  9 19  1  0  0  0  0
 12  1  1  0  0  0  0
 14  3  1  0  0  0  0
M TOR 0 0 1 2 3
M TOR 1 0 1 2 12
M TOR 2 0 1 2 13
M TOR 3 0 1 4 3
M TOR 4 0 1 4 5
M TOR 5 0 1 4 15
M TOR 6 0 1 6 5
M TOR 7 0 1 6 7
M TOR 8 0 1 6 16
M TOR 9 1 2 3 4
M TOR 10 1 2 3 7
M TOR 11 1 2 3 14
M TOR 12 1 4 3 7
M TOR 13 1 4 3 14
M TOR 14 1 4 5 6
M TOR 15 1 6 7 3
M TOR 16 1 6 7 8
M TOR 17 1 6 7 17
M TOR 18 2 1 0 9
M TOR 19 2 1 0 10
M TOR 20 2 1 0 11
M TOR 21 2 1 4 5
M TOR 22 2 1 4 15
M TOR 23 2 1 6 5
M TOR 24 2 1 6 7
M TOR 25 2 1 6 16
M TOR 26 2 3 4 5
M TOR 27 2 3 4 15
M TOR 28 2 3 7 6
M TOR 29 2 3 7 8
M TOR 30 2 3 7 17
M TOR 31 3 2 1 6
M TOR 32 3 4 1 6
M TOR 33 3 4 5 6
M TOR 34 3 7 6 5
M TOR 35 3 7 6 16
M TOR 36 3 7 8 18
M TOR 37 4 1 0 9
M TOR 38 4 1 0 10
M TOR 39 4 1 0 11
M TOR 40 4 1 2 12
M TOR 41 4 1 2 13
M TOR 42 4 1 6 7
M TOR 43 4 1 6 16
M TOR 44 4 3 2 12
M TOR 45 4 3 2 13
M TOR 46 4 3 7 6
M TOR 47 4 3 7 8
M TOR 48 4 3 7 17
M TOR 49 4 5 6 7
M TOR 50 4 5 6 16
M TOR 51 5 4 3 7
M TOR 52 5 4 3 14
M TOR 53 5 6 7 8
M TOR 54 5 6 7 17
M TOR 55 6 1 0 9
M TOR 56 6 1 0 10
M TOR 57 6 1 0 11
M TOR 58 6 1 2 12
M TOR 59 6 1 2 13
M TOR 60 6 1 4 15
M TOR 61 6 5 4 15
M TOR 62 6 7 3 14
M TOR 63 6 7 8 18
M TOR 64 7 3 2 12
M TOR 65 7 3 2 13
M TOR 66 7 3 4 15
M TOR 67 8 7 3 14
M TOR 68 8 7 6 16
M  END
$$$$
