gdb 1992	2.7657331	1.9297837	1.5747741	1.7201	73.15	-0.25	0.0913	0.3413	924.8166	0.159347	-422.556055	-422.548961	-422.548016	-422.587055	29.017
 OpenBabel02181911403D

 19 21  0  0  1  0  0  0  0  0999 V2000
   -0.2317   -1.4226   -0.2870 C   0  0  0  0  0  0  0  0  0  0  0  0
    1.1647   -0.8596   -0.3349 C   0  0  2  0  0  0  0  0  0  0  0  0
    1.7509   -0.2178   -1.5680 C   0  0  0  0  0  0  0  0  0  0  0  0
    2.3408   -1.5071   -1.0532 C   0  0  1  0  0  0  0  0  0  0  0  0
    3.4577   -1.3838   -0.0156 C   0  0  2  0  0  0  0  0  0  0  0  0
    3.1024   -2.3419    1.1468 C   0  0  0  0  0  0  0  0  0  0  0  0
    1.9900   -1.6618    1.7601 O   0  0  0  0  0  0  0  0  0  0  0  0
    1.8436   -0.4658    0.9847 C   0  0  1  0  0  0  0  0  0  0  0  0
    3.1650   -0.1255    0.6177 O   0  0  0  0  0  0  0  0  0  0  0  0
   -0.3082   -2.1924    0.4870 H   0  0  0  0  0  0  0  0  0  0  0  0
   -0.9688   -0.6428   -0.0608 H   0  0  0  0  0  0  0  0  0  0  0  0
   -0.5114   -1.8700   -1.2457 H   0  0  0  0  0  0  0  0  0  0  0  0
    1.1530   -0.2981   -2.4700 H   0  0  0  0  0  0  0  0  0  0  0  0
    2.3244    0.6974   -1.4784 H   0  0  0  0  0  0  0  0  0  0  0  0
    2.2318   -2.4321   -1.6074 H   0  0  0  0  0  0  0  0  0  0  0  0
    4.4907   -1.4009   -0.3617 H   0  0  0  0  0  0  0  0  0  0  0  0
    2.7998   -3.3371    0.8038 H   0  0  0  0  0  0  0  0  0  0  0  0
    3.9173   -2.4358    1.8730 H   0  0  0  0  0  0  0  0  0  0  0  0
    1.3892    0.3129    1.5979 H   0  0  0  0  0  0  0  0  0  0  0  0
  1 11  1  0  0  0  0
  1 10  1  0  0  0  0
  2  1  1  6  0  0  0
  2  8  1  0  0  0  0
  3 14  1  0  0  0  0
  3  4  1  0  0  0  0
  3  2  1  0  0  0  0
  4 15  1  6  0  0  0
  4  2  1  0  0  0  0
  4  5  1  0  0  0  0
  5 16  1  6  0  0  0
  5  9  1  0  0  0  0
  5  6  1  0  0  0  0
  6  7  1  0  0  0  0
  6 18  1  0  0  0  0
  8 19  1  1  0  0  0
  8  7  1  0  0  0  0
  9  8  1  0  0  0  0
 12  1  1  0  0  0  0
 13  3  1  0  0  0  0
 17  6  1  0  0  0  0
M TOR 0 0 1 2 3
M TOR 1 0 1 2 12
M TOR 2 0 1 2 13
M TOR 3 0 1 3 4
M TOR 4 0 1 3 14
M TOR 5 0 1 7 6
M TOR 6 0 1 7 8
M TOR 7 0 1 7 18
M TOR 8 1 2 3 4
M TOR 9 1 2 3 14
M TOR 10 1 3 2 12
M TOR 11 1 3 2 13
M TOR 12 1 3 4 5
M TOR 13 1 3 4 8
M TOR 14 1 3 4 15
M TOR 15 1 7 6 5
M TOR 16 1 7 8 4
M TOR 17 2 1 0 9
M TOR 18 2 1 0 10
M TOR 19 2 1 0 11
M TOR 20 2 1 7 6
M TOR 21 2 1 7 8
M TOR 22 2 1 7 18
M TOR 23 2 3 1 7
M TOR 24 2 3 4 5
M TOR 25 2 3 4 8
M TOR 26 2 3 4 15
M TOR 27 3 1 0 9
M TOR 28 3 1 0 10
M TOR 29 3 1 0 11
M TOR 30 3 1 7 6
M TOR 31 3 1 7 8
M TOR 32 3 1 7 18
M TOR 33 3 4 5 6
M TOR 34 3 4 5 16
M TOR 35 3 4 5 17
M TOR 36 3 4 8 7
M TOR 37 4 3 1 7
M TOR 38 4 3 2 12
M TOR 39 4 3 2 13
M TOR 40 4 5 6 7
M TOR 41 4 8 7 6
M TOR 42 4 8 7 18
M TOR 43 5 4 3 14
M TOR 44 5 4 8 7
M TOR 45 5 6 7 8
M TOR 46 5 6 7 18
M TOR 47 6 5 4 8
M TOR 48 6 5 4 15
M TOR 49 7 1 0 9
M TOR 50 7 1 0 10
M TOR 51 7 1 0 11
M TOR 52 7 1 2 12
M TOR 53 7 1 2 13
M TOR 54 7 1 3 14
M TOR 55 7 6 5 16
M TOR 56 7 6 5 17
M TOR 57 7 8 4 15
M TOR 58 8 4 3 14
M TOR 59 8 4 5 16
M TOR 60 8 4 5 17
M  END
$$$$
