gdb 1475	2.3988884	1.68124	1.3357933	1.9976	76.36	-0.20723	0.01631	0.22354	1036.4345	0.155961	-422.557755	-422.549158	-422.548214	-422.589983	34.186
 OpenBabel02181911403D

 19 20  0  0  1  0  0  0  0  0999 V2000
   -0.1207   -0.2895    0.1555 C   0  0  0  0  0  0  0  0  0  0  0  0
    1.3661   -0.0470    0.1145 C   0  0  2  0  0  0  0  0  0  0  0  0
    2.0599   -0.5732    1.2362 O   0  0  0  0  0  0  0  0  0  0  0  0
    2.0216    1.2375   -0.3436 C   0  0  2  0  0  0  0  0  0  0  0  0
    1.2566    2.1891   -1.2606 C   0  0  0  0  0  0  0  0  0  0  0  0
    1.0435    1.3797   -2.5259 C   0  0  0  0  0  0  0  0  0  0  0  0
    1.5954    0.1661   -2.4490 C   0  0  0  0  0  0  0  0  0  0  0  0
    2.2443   -0.0639   -1.1328 C   0  0  2  0  0  0  0  0  0  0  0  0
    3.4086   -0.8193   -1.1229 O   0  0  0  0  0  0  0  0  0  0  0  0
   -0.5671    0.2032    1.0261 H   0  0  0  0  0  0  0  0  0  0  0  0
   -0.6119    0.0798   -0.7462 H   0  0  0  0  0  0  0  0  0  0  0  0
   -0.3355   -1.3640    0.2272 H   0  0  0  0  0  0  0  0  0  0  0  0
    1.7508   -1.4780    1.3637 H   0  0  0  0  0  0  0  0  0  0  0  0
    2.7969    1.6219    0.3096 H   0  0  0  0  0  0  0  0  0  0  0  0
    0.3033    2.5166   -0.8241 H   0  0  0  0  0  0  0  0  0  0  0  0
    1.8295    3.1041   -1.4593 H   0  0  0  0  0  0  0  0  0  0  0  0
    0.4738    1.7564   -3.3676 H   0  0  0  0  0  0  0  0  0  0  0  0
    1.5848   -0.5955   -3.2198 H   0  0  0  0  0  0  0  0  0  0  0  0
    3.5526   -1.0539   -0.1951 H   0  0  0  0  0  0  0  0  0  0  0  0
  1 12  1  0  0  0  0
  1 10  1  0  0  0  0
  2  1  1  0  0  0  0
  2  3  1  1  0  0  0
  3 13  1  0  0  0  0
  4  2  1  0  0  0  0
  4 14  1  1  0  0  0
  5 15  1  0  0  0  0
  5  4  1  0  0  0  0
  6  7  2  0  0  0  0
  6  5  1  0  0  0  0
  7  8  1  0  0  0  0
  8  9  1  1  0  0  0
  8  4  1  0  0  0  0
  8  2  1  0  0  0  0
  9 19  1  0  0  0  0
 11  1  1  0  0  0  0
 16  5  1  0  0  0  0
 17  6  1  0  0  0  0
 18  7  1  0  0  0  0
M TOR 0 0 1 2 12
M TOR 1 0 1 3 4
M TOR 2 0 1 3 7
M TOR 3 0 1 3 13
M TOR 4 0 1 7 6
M TOR 5 0 1 7 8
M TOR 6 1 3 4 5
M TOR 7 1 3 4 14
M TOR 8 1 3 4 15
M TOR 9 1 3 7 6
M TOR 10 1 3 7 8
M TOR 11 1 7 3 4
M TOR 12 1 7 3 13
M TOR 13 1 7 6 5
M TOR 14 1 7 6 17
M TOR 15 1 7 8 18
M TOR 16 2 1 0 9
M TOR 17 2 1 0 10
M TOR 18 2 1 0 11
M TOR 19 2 1 3 4
M TOR 20 2 1 3 7
M TOR 21 2 1 3 13
M TOR 22 2 1 7 6
M TOR 23 2 1 7 8
M TOR 24 3 1 0 9
M TOR 25 3 1 0 10
M TOR 26 3 1 0 11
M TOR 27 3 1 2 12
M TOR 28 3 4 5 6
M TOR 29 3 4 5 16
M TOR 30 3 7 6 5
M TOR 31 3 7 6 17
M TOR 32 3 7 8 18
M TOR 33 4 3 7 6
M TOR 34 4 3 7 8
M TOR 35 4 5 6 7
M TOR 36 4 5 6 17
M TOR 37 5 4 3 7
M TOR 38 5 4 3 13
M TOR 39 5 6 7 8
M TOR 40 6 5 4 14
M TOR 41 6 5 4 15
M TOR 42 6 7 3 13
M TOR 43 6 7 8 18
M TOR 44 7 1 0 9
M TOR 45 7 1 0 10
M TOR 46 7 1 0 11
M TOR 47 7 1 2 12
M TOR 48 7 3 4 14
M TOR 49 7 3 4 15
M TOR 50 7 6 5 16
M TOR 51 8 7 3 13
M TOR 52 8 7 6 17
M  END
$$$$
