
     RDKit          3D

 19 19  0  0  0  0  0  0  0  0999 V2000
    0.9216    1.5775    4.1737 C   0  0  0  0  0  0  0  0  0  0  0  0
   -0.4066    1.8768    3.4858 C   0  0  0  0  0  0  0  0  0  0  0  0
   -1.3125    2.5889    4.3130 O   0  0  0  0  0  0  0  0  0  0  0  0
   -0.2231    2.6266    2.1467 C   0  0  0  0  0  0  0  0  0  0  0  0
   -1.4576    2.5853    1.2026 C   0  0  0  0  0  0  0  0  0  0  0  0
   -0.5526    1.7468    0.2814 C   0  0  0  0  0  0  0  0  0  0  0  0
    0.5543    1.8320    1.2095 O   0  0  0  0  0  0  0  0  0  0  0  0
    0.3469    3.9533    2.3700 C   0  0  0  0  0  0  0  0  0  0  0  0
    0.7955    5.0486    2.5869 C   0  0  0  0  0  0  0  0  0  0  0  0
    0.7453    1.0047    5.0879 H   0  0  0  0  0  0  0  0  0  0  0  0
    1.5718    1.0014    3.5099 H   0  0  0  0  0  0  0  0  0  0  0  0
    1.4393    2.5057    4.4382 H   0  0  0  0  0  0  0  0  0  0  0  0
   -0.9123    0.9346    3.2465 H   0  0  0  0  0  0  0  0  0  0  0  0
   -0.9016    3.4373    4.5213 H   0  0  0  0  0  0  0  0  0  0  0  0
   -2.3208    2.0760    1.6317 H   0  0  0  0  0  0  0  0  0  0  0  0
   -1.7632    3.5523    0.8053 H   0  0  0  0  0  0  0  0  0  0  0  0
   -0.8612    0.7085    0.1154 H   0  0  0  0  0  0  0  0  0  0  0  0
   -0.3053    2.2044   -0.6829 H   0  0  0  0  0  0  0  0  0  0  0  0
    1.2021    6.0158    2.7553 H   0  0  0  0  0  0  0  0  0  0  0  0
  1  2  1  0
  2  3  1  0
  2  4  1  0
  4  5  1  0
  5  6  1  0
  6  7  1  0
  4  8  1  0
  8  9  3  0
  7  4  1  0
  1 10  1  0
  1 11  1  0
  1 12  1  0
  2 13  1  0
  3 14  1  0
  5 15  1  0
  5 16  1  0
  6 17  1  0
  6 18  1  0
  9 19  1  0
M  END
$$$$
