gdb 693	3.4356087	1.072922	0.8618282	4.009	75.41	-0.26705	0.01103	0.27808	1334.5059	0.157907	-422.568864	-422.560515	-422.559571	-422.602783	30.429
 OpenBabel02181911403D

 19 20  0  0  1  0  0  0  0  0999 V2000
    1.2265    0.2335    0.0734 O   0  0  0  0  0  0  0  0  0  0  0  0
    0.0406    0.1551    0.0772 C   0  0  0  0  0  0  0  0  0  0  0  0
   -0.8690    1.1771    0.2013 O   0  0  0  0  0  0  0  0  0  0  0  0
   -1.9984    0.2462    0.1503 C   0  0  0  0  0  0  0  0  0  0  0  0
   -1.0286   -0.9433   -0.0075 C   0  0  2  0  0  0  0  0  0  0  0  0
   -0.9803   -2.0075    1.0739 C   0  0  0  0  0  0  0  0  0  0  0  0
    0.1399   -3.0842    1.0068 C   0  0  0  0  0  0  0  0  0  0  0  0
   -0.8979   -4.1340    1.4882 C   0  0  0  0  0  0  0  0  0  0  0  0
   -2.0271   -3.1597    1.0551 C   0  0  0  0  0  0  0  0  0  0  0  0
   -2.5643    0.2777    1.0843 H   0  0  0  0  0  0  0  0  0  0  0  0
   -2.6463    0.4703   -0.6993 H   0  0  0  0  0  0  0  0  0  0  0  0
   -1.0573   -1.4035   -1.0004 H   0  0  0  0  0  0  0  0  0  0  0  0
   -0.9735   -1.5263    2.0592 H   0  0  0  0  0  0  0  0  0  0  0  0
    0.4507   -3.2676   -0.0265 H   0  0  0  0  0  0  0  0  0  0  0  0
    1.0339   -2.9196    1.6107 H   0  0  0  0  0  0  0  0  0  0  0  0
   -0.8755   -5.1207    1.0210 H   0  0  0  0  0  0  0  0  0  0  0  0
   -0.8703   -4.2642    2.5737 H   0  0  0  0  0  0  0  0  0  0  0  0
   -2.3681   -3.3677    0.0353 H   0  0  0  0  0  0  0  0  0  0  0  0
   -2.9031   -3.0633    1.7011 H   0  0  0  0  0  0  0  0  0  0  0  0
  1  2  2  0  0  0  0
  2  3  1  0  0  0  0
  4  3  1  0  0  0  0
  4 10  1  0  0  0  0
  5 12  1  6  0  0  0
  5  2  1  0  0  0  0
  5  4  1  0  0  0  0
  5  6  1  0  0  0  0
  6 13  1  0  0  0  0
  7  6  1  0  0  0  0
  7  8  1  0  0  0  0
  7 15  1  0  0  0  0
  8 17  1  0  0  0  0
  9  6  1  0  0  0  0
  9  8  1  0  0  0  0
  9 19  1  0  0  0  0
 11  4  1  0  0  0  0
 14  7  1  0  0  0  0
 16  8  1  0  0  0  0
 18  9  1  0  0  0  0
M TOR 0 0 1 2 3
M TOR 1 0 1 4 3
M TOR 2 0 1 4 5
M TOR 3 0 1 4 11
M TOR 4 1 2 3 4
M TOR 5 1 2 3 9
M TOR 6 1 2 3 10
M TOR 7 1 4 3 9
M TOR 8 1 4 3 10
M TOR 9 1 4 5 6
M TOR 10 1 4 5 8
M TOR 11 1 4 5 12
M TOR 12 2 1 4 5
M TOR 13 2 1 4 11
M TOR 14 2 3 4 5
M TOR 15 2 3 4 11
M TOR 16 3 4 5 6
M TOR 17 3 4 5 8
M TOR 18 3 4 5 12
M TOR 19 4 5 6 7
M TOR 20 4 5 6 13
M TOR 21 4 5 6 14
M TOR 22 4 5 8 7
M TOR 23 4 5 8 17
M TOR 24 4 5 8 18
M TOR 25 5 4 3 9
M TOR 26 5 4 3 10
M TOR 27 5 6 7 8
M TOR 28 5 6 7 15
M TOR 29 5 6 7 16
M TOR 30 5 8 7 15
M TOR 31 5 8 7 16
M TOR 32 6 5 4 11
M TOR 33 6 5 8 17
M TOR 34 6 5 8 18
M TOR 35 6 7 8 17
M TOR 36 6 7 8 18
M TOR 37 7 6 5 12
M TOR 38 7 8 5 12
M TOR 39 8 5 4 11
M TOR 40 8 5 6 13
M TOR 41 8 5 6 14
M TOR 42 8 7 6 13
M TOR 43 8 7 6 14
M  END
$$$$
