
     RDKit          3D

 19 20  0  0  0  0  0  0  0  0999 V2000
    1.2363    0.6521   -0.3966 C   0  0  0  0  0  0  0  0  0  0  0  0
   -0.1296    0.2239    0.0346 C   0  0  0  0  0  0  0  0  0  0  0  0
   -1.2301    0.9696    0.1839 C   0  0  0  0  0  0  0  0  0  0  0  0
   -2.4422    0.1663    0.6147 C   0  0  0  0  0  0  0  0  0  0  0  0
   -1.8869   -1.2412    0.8023 C   0  0  0  0  0  0  0  0  0  0  0  0
   -0.7987   -1.4381    1.8408 C   0  0  0  0  0  0  0  0  0  0  0  0
   -0.5357   -2.7512    2.2623 O   0  0  0  0  0  0  0  0  0  0  0  0
   -0.4093   -1.1979    0.4027 C   0  0  0  0  0  0  0  0  0  0  0  0
    0.2647   -2.1949   -0.2851 O   0  0  0  0  0  0  0  0  0  0  0  0
    1.9752    0.4700    0.3938 H   0  0  0  0  0  0  0  0  0  0  0  0
    1.5648    0.0717   -1.2653 H   0  0  0  0  0  0  0  0  0  0  0  0
    1.2608    1.7140   -0.6543 H   0  0  0  0  0  0  0  0  0  0  0  0
   -1.2711    2.0435    0.0379 H   0  0  0  0  0  0  0  0  0  0  0  0
   -2.8880    0.5624    1.5373 H   0  0  0  0  0  0  0  0  0  0  0  0
   -3.2348    0.1911   -0.1453 H   0  0  0  0  0  0  0  0  0  0  0  0
   -2.4900   -2.1104    0.5615 H   0  0  0  0  0  0  0  0  0  0  0  0
   -0.6158   -0.6690    2.5919 H   0  0  0  0  0  0  0  0  0  0  0  0
   -1.3427   -3.1304    2.6259 H   0  0  0  0  0  0  0  0  0  0  0  0
    0.3574   -2.9302    0.3369 H   0  0  0  0  0  0  0  0  0  0  0  0
  1  2  1  0
  2  3  2  0
  3  4  1  0
  4  5  1  0
  5  6  1  0
  6  7  1  0
  6  8  1  0
  8  9  1  0
  8  2  1  0
  8  5  1  0
  1 10  1  0
  1 11  1  0
  1 12  1  0
  3 13  1  0
  4 14  1  0
  4 15  1  0
  5 16  1  0
  6 17  1  0
  7 18  1  0
  9 19  1  0
M  END
$$$$
