
     RDKit          3D

 19 20  0  0  0  0  0  0  0  0999 V2000
   -0.0716    2.2115   -2.4686 O   0  0  0  0  0  0  0  0  0  0  0  0
   -0.5758    1.3187   -1.8177 C   0  0  0  0  0  0  0  0  0  0  0  0
   -1.6781    0.4741   -2.3602 C   0  0  0  0  0  0  0  0  0  0  0  0
   -2.6758    1.1472   -3.2956 C   0  0  0  0  0  0  0  0  0  0  0  0
   -1.6773    0.1983   -3.8583 C   0  0  0  0  0  0  0  0  0  0  0  0
   -0.1124    0.9811   -0.4133 C   0  0  0  0  0  0  0  0  0  0  0  0
    1.1322    1.7189    0.1059 C   0  0  0  0  0  0  0  0  0  0  0  0
    1.8929    0.4896    0.1697 O   0  0  0  0  0  0  0  0  0  0  0  0
    0.7794   -0.2896   -0.2912 C   0  0  0  0  0  0  0  0  0  0  0  0
   -2.0559   -0.3056   -1.7078 H   0  0  0  0  0  0  0  0  0  0  0  0
   -3.7111    0.8371   -3.2154 H   0  0  0  0  0  0  0  0  0  0  0  0
   -2.5123    2.2049   -3.4667 H   0  0  0  0  0  0  0  0  0  0  0  0
   -2.0056   -0.7838   -4.1782 H   0  0  0  0  0  0  0  0  0  0  0  0
   -0.8430    0.6190   -4.4074 H   0  0  0  0  0  0  0  0  0  0  0  0
   -0.9737    0.9729    0.2603 H   0  0  0  0  0  0  0  0  0  0  0  0
    1.5549    2.4338   -0.6064 H   0  0  0  0  0  0  0  0  0  0  0  0
    1.0308    2.1868    1.0918 H   0  0  0  0  0  0  0  0  0  0  0  0
    0.9952   -0.8086   -1.2339 H   0  0  0  0  0  0  0  0  0  0  0  0
    0.4473   -1.0244    0.4527 H   0  0  0  0  0  0  0  0  0  0  0  0
  1  2  2  0
  2  3  1  0
  3  4  1  0
  4  5  1  0
  2  6  1  0
  6  7  1  0
  7  8  1  0
  8  9  1  0
  5  3  1  0
  9  6  1  0
  3 10  1  0
  4 11  1  0
  4 12  1  0
  5 13  1  0
  5 14  1  0
  6 15  1  0
  7 16  1  0
  7 17  1  0
  9 18  1  0
  9 19  1  0
M  END
$$$$
