
     RDKit          3D

 19 21  0  0  0  0  0  0  0  0999 V2000
    0.2575    0.3944    0.2867 O   0  0  0  0  0  0  0  0  0  0  0  0
   -0.6098    0.9922    1.2220 C   0  0  0  0  0  0  0  0  0  0  0  0
   -1.5968    0.0419    1.9761 C   0  0  0  0  0  0  0  0  0  0  0  0
   -0.9942    0.4833    3.3407 C   0  0  0  0  0  0  0  0  0  0  0  0
   -1.6837    1.5848    4.1774 C   0  0  0  0  0  0  0  0  0  0  0  0
   -1.9549    2.7471    3.1993 C   0  0  0  0  0  0  0  0  0  0  0  0
   -0.4104    2.7444    3.2476 C   0  0  0  0  0  0  0  0  0  0  0  0
   -0.5140    2.3344    4.6546 O   0  0  0  0  0  0  0  0  0  0  0  0
    0.0163    1.4134    2.5892 C   0  0  0  0  0  0  0  0  0  0  0  0
    0.7216   -0.3276    0.7240 H   0  0  0  0  0  0  0  0  0  0  0  0
   -1.0904    1.8094    0.6774 H   0  0  0  0  0  0  0  0  0  0  0  0
   -2.6642    0.2300    1.8283 H   0  0  0  0  0  0  0  0  0  0  0  0
   -1.4033   -1.0072    1.7335 H   0  0  0  0  0  0  0  0  0  0  0  0
   -0.5984   -0.3092    3.9764 H   0  0  0  0  0  0  0  0  0  0  0  0
   -2.3770    1.2954    4.9670 H   0  0  0  0  0  0  0  0  0  0  0  0
   -2.4869    2.5738    2.2621 H   0  0  0  0  0  0  0  0  0  0  0  0
   -2.3596    3.6128    3.7232 H   0  0  0  0  0  0  0  0  0  0  0  0
    0.1934    3.6371    3.0866 H   0  0  0  0  0  0  0  0  0  0  0  0
    1.0866    1.2196    2.6832 H   0  0  0  0  0  0  0  0  0  0  0  0
  1  2  1  0
  2  3  1  0
  3  4  1  0
  4  5  1  0
  5  6  1  0
  6  7  1  0
  7  8  1  0
  7  9  1  0
  9  2  1  0
  9  4  1  0
  8  5  1  0
  1 10  1  0
  2 11  1  0
  3 12  1  0
  3 13  1  0
  4 14  1  0
  5 15  1  0
  6 16  1  0
  6 17  1  0
  7 18  1  0
  9 19  1  0
M  END
$$$$
