
     RDKit          3D

 19 21  0  0  0  0  0  0  0  0999 V2000
   -0.1510    3.1298   -0.6714 O   0  0  0  0  0  0  0  0  0  0  0  0
   -0.1527    1.8066   -1.1609 C   0  0  0  0  0  0  0  0  0  0  0  0
   -1.4933    1.1629   -1.3899 C   0  0  0  0  0  0  0  0  0  0  0  0
   -0.6828    1.6821   -2.5605 C   0  0  0  0  0  0  0  0  0  0  0  0
    1.0848    1.0515   -0.7497 C   0  0  0  0  0  0  0  0  0  0  0  0
    1.2116   -0.4915   -0.8797 C   0  0  0  0  0  0  0  0  0  0  0  0
    2.3734   -0.4712    0.1431 C   0  0  0  0  0  0  0  0  0  0  0  0
    1.2102    0.4041    0.6653 C   0  0  0  0  0  0  0  0  0  0  0  0
    0.2685   -0.6637    0.2531 O   0  0  0  0  0  0  0  0  0  0  0  0
   -0.3867    3.0941    0.2622 H   0  0  0  0  0  0  0  0  0  0  0  0
   -1.5880    0.0962   -1.2392 H   0  0  0  0  0  0  0  0  0  0  0  0
   -2.3577    1.7493   -1.0977 H   0  0  0  0  0  0  0  0  0  0  0  0
   -0.2159    0.9645   -3.2267 H   0  0  0  0  0  0  0  0  0  0  0  0
   -1.0095    2.6010   -3.0332 H   0  0  0  0  0  0  0  0  0  0  0  0
    1.9702    1.6143   -1.0644 H   0  0  0  0  0  0  0  0  0  0  0  0
    1.0688   -1.1307   -1.7520 H   0  0  0  0  0  0  0  0  0  0  0  0
    2.5168   -1.4066    0.6839 H   0  0  0  0  0  0  0  0  0  0  0  0
    3.3093    0.0167   -0.1392 H   0  0  0  0  0  0  0  0  0  0  0  0
    1.0667    0.8456    1.6526 H   0  0  0  0  0  0  0  0  0  0  0  0
  1  2  1  0
  2  3  1  0
  3  4  1  0
  2  5  1  0
  5  6  1  0
  6  7  1  0
  7  8  1  0
  8  9  1  0
  4  2  1  0
  8  5  1  0
  9  6  1  0
  1 10  1  0
  3 11  1  0
  3 12  1  0
  4 13  1  0
  4 14  1  0
  5 15  1  0
  6 16  1  0
  7 17  1  0
  7 18  1  0
  8 19  1  0
M  END
$$$$
