gdb 838	3.6227177	1.2089802	1.1314313	3.0779	74.67	-0.24438	-0.01986	0.22452	1132.7461	0.159254	-422.588254	-422.580653	-422.579709	-422.620835	29.083
 OpenBabel02181911403D

 19 20  0  0  1  0  0  0  0  0999 V2000
    1.3472   -0.3694    0.0774 O   0  0  0  0  0  0  0  0  0  0  0  0
    0.1844   -0.0586    0.1246 C   0  0  0  0  0  0  0  0  0  0  0  0
   -0.4458    0.7704    1.2168 C   0  0  1  0  0  0  0  0  0  0  0  0
   -1.1671    2.0338    0.6404 C   0  0  0  0  0  0  0  0  0  0  0  0
   -2.6230    1.7873    1.0920 C   0  0  2  0  0  0  0  0  0  0  0  0
   -2.7527    2.0156    2.6142 C   0  0  0  0  0  0  0  0  0  0  0  0
   -2.0567    0.7345    3.1681 C   0  0  0  0  0  0  0  0  0  0  0  0
   -1.6620    0.0269    1.8536 C   0  0  1  0  0  0  0  0  0  0  0  0
   -2.7370    0.3611    0.9713 O   0  0  0  0  0  0  0  0  0  0  0  0
   -0.5333   -0.3793   -0.6657 H   0  0  0  0  0  0  0  0  0  0  0  0
    0.3257    1.0108    1.9508 H   0  0  0  0  0  0  0  0  0  0  0  0
   -0.7414    2.9649    1.0201 H   0  0  0  0  0  0  0  0  0  0  0  0
   -1.1094    2.0574   -0.4522 H   0  0  0  0  0  0  0  0  0  0  0  0
   -3.3853    2.2672    0.4786 H   0  0  0  0  0  0  0  0  0  0  0  0
   -2.2729    2.9417    2.9401 H   0  0  0  0  0  0  0  0  0  0  0  0
   -3.8031    2.0573    2.9102 H   0  0  0  0  0  0  0  0  0  0  0  0
   -1.1963    0.9483    3.8065 H   0  0  0  0  0  0  0  0  0  0  0  0
   -2.7544    0.1156    3.7364 H   0  0  0  0  0  0  0  0  0  0  0  0
   -1.5613   -1.0572    1.9158 H   0  0  0  0  0  0  0  0  0  0  0  0
  1  2  2  0  0  0  0
  2  3  1  0  0  0  0
  3  8  1  0  0  0  0
  3 11  1  1  0  0  0
  4 12  1  0  0  0  0
  4  5  1  0  0  0  0
  4  3  1  0  0  0  0
  5 14  1  6  0  0  0
  5  6  1  0  0  0  0
  6 16  1  0  0  0  0
  6 15  1  0  0  0  0
  6  7  1  0  0  0  0
  7 18  1  0  0  0  0
  7 17  1  0  0  0  0
  8 19  1  1  0  0  0
  8  7  1  0  0  0  0
  9  5  1  0  0  0  0
  9  8  1  0  0  0  0
 10  2  1  0  0  0  0
 13  4  1  0  0  0  0
M TOR 0 0 1 2 3
M TOR 1 0 1 2 7
M TOR 2 0 1 2 10
M TOR 3 1 2 3 4
M TOR 4 1 2 3 11
M TOR 5 1 2 3 12
M TOR 6 1 2 7 6
M TOR 7 1 2 7 8
M TOR 8 1 2 7 18
M TOR 9 2 3 4 5
M TOR 10 2 3 4 8
M TOR 11 2 3 4 13
M TOR 12 2 7 6 5
M TOR 13 2 7 6 16
M TOR 14 2 7 6 17
M TOR 15 2 7 8 4
M TOR 16 3 2 1 9
M TOR 17 3 2 7 6
M TOR 18 3 2 7 8
M TOR 19 3 2 7 18
M TOR 20 3 4 5 6
M TOR 21 3 4 5 14
M TOR 22 3 4 5 15
M TOR 23 3 4 8 7
M TOR 24 4 3 2 7
M TOR 25 4 3 2 10
M TOR 26 4 5 6 7
M TOR 27 4 5 6 16
M TOR 28 4 5 6 17
M TOR 29 4 8 7 6
M TOR 30 4 8 7 18
M TOR 31 5 4 3 11
M TOR 32 5 4 3 12
M TOR 33 5 4 8 7
M TOR 34 5 6 7 8
M TOR 35 5 6 7 18
M TOR 36 6 5 4 8
M TOR 37 6 5 4 13
M TOR 38 6 7 2 10
M TOR 39 7 2 1 9
M TOR 40 7 2 3 11
M TOR 41 7 2 3 12
M TOR 42 7 6 5 14
M TOR 43 7 6 5 15
M TOR 44 7 8 4 13
M TOR 45 8 4 3 11
M TOR 46 8 4 3 12
M TOR 47 8 4 5 14
M TOR 48 8 4 5 15
M TOR 49 8 7 2 10
M TOR 50 8 7 6 16
M TOR 51 8 7 6 17
M  END
$$$$
