gdb 1368	3.7887026	0.736969	0.6952441	1.233	78.39	-0.25815	0.02599	0.28414	1663.7509	0.15333	-422.503097	-422.492812	-422.491868	-422.538996	36.691
 OpenBabel02181911403D

 19 19  0  0  1  0  0  0  0  0999 V2000
    3.0440    2.9445    2.6897 C   0  0  0  0  0  0  0  0  0  0  0  0
    1.6155    2.4712    2.6256 C   0  0  2  0  0  0  0  0  0  0  0  0
    0.6166    3.3661    3.1317 O   0  0  0  0  0  0  0  0  0  0  0  0
    0.8334    2.1320    3.8240 C   0  0  1  0  0  0  0  0  0  0  0  0
   -0.3058    1.1402    3.7936 C   0  0  0  0  0  0  0  0  0  0  0  0
    0.1401   -0.2611    4.2591 C   0  0  1  0  0  0  0  0  0  0  0  0
    0.6926   -0.2284    5.5745 O   0  0  0  0  0  0  0  0  0  0  0  0
   -0.9560   -1.2277    4.1568 C   0  0  0  0  0  0  0  0  0  0  0  0
   -1.8819   -1.9927    4.1050 C   0  0  0  0  0  0  0  0  0  0  0  0
    3.2594    3.3958    3.6619 H   0  0  0  0  0  0  0  0  0  0  0  0
    3.7341    2.1087    2.5314 H   0  0  0  0  0  0  0  0  0  0  0  0
    3.2381    3.6931    1.9143 H   0  0  0  0  0  0  0  0  0  0  0  0
    1.3266    1.9849    1.6910 H   0  0  0  0  0  0  0  0  0  0  0  0
    1.3229    2.2416    4.7911 H   0  0  0  0  0  0  0  0  0  0  0  0
   -1.1178    1.4856    4.4463 H   0  0  0  0  0  0  0  0  0  0  0  0
   -0.7171    1.0774    2.7809 H   0  0  0  0  0  0  0  0  0  0  0  0
    0.9691   -0.5933    3.6218 H   0  0  0  0  0  0  0  0  0  0  0  0
   -0.0414   -0.1448    6.1938 H   0  0  0  0  0  0  0  0  0  0  0  0
   -2.6871   -2.6834    4.0506 H   0  0  0  0  0  0  0  0  0  0  0  0
  1 10  1  0  0  0  0
  2 13  1  6  0  0  0
  2  1  1  0  0  0  0
  2  3  1  0  0  0  0
  2  4  1  0  0  0  0
  3  4  1  0  0  0  0
  4 14  1  1  0  0  0
  5  4  1  0  0  0  0
  5  6  1  0  0  0  0
  5 15  1  0  0  0  0
  6 17  1  6  0  0  0
  6  7  1  0  0  0  0
  7 18  1  0  0  0  0
  8  6  1  0  0  0  0
  9  8  3  0  0  0  0
 11  1  1  0  0  0  0
 12  1  1  0  0  0  0
 16  5  1  0  0  0  0
 19  9  1  0  0  0  0
M TOR 0 0 1 2 3
M TOR 1 0 1 3 4
M TOR 2 0 1 3 13
M TOR 3 1 2 3 4
M TOR 4 1 2 3 13
M TOR 5 1 3 4 5
M TOR 6 1 3 4 14
M TOR 7 1 3 4 15
M TOR 8 2 1 0 9
M TOR 9 2 1 0 10
M TOR 10 2 1 0 11
M TOR 11 2 3 1 12
M TOR 12 2 3 4 5
M TOR 13 2 3 4 14
M TOR 14 2 3 4 15
M TOR 15 3 1 0 9
M TOR 16 3 1 0 10
M TOR 17 3 1 0 11
M TOR 18 3 4 5 6
M TOR 19 3 4 5 7
M TOR 20 3 4 5 16
M TOR 21 4 3 1 12
M TOR 22 4 5 6 17
M TOR 23 4 5 7 8
M TOR 24 5 4 3 13
M TOR 25 5 7 8 18
M TOR 26 6 5 4 14
M TOR 27 6 5 4 15
M TOR 28 6 5 7 8
M TOR 29 7 5 4 14
M TOR 30 7 5 4 15
M TOR 31 7 5 6 17
M TOR 32 8 7 5 16
M  END
$$$$
