
     RDKit          3D

 19 21  0  0  0  0  0  0  0  0999 V2000
    1.2753    0.5935   -0.7479 O   0  0  0  0  0  0  0  0  0  0  0  0
    0.1089    0.1256   -0.0876 C   0  0  0  0  0  0  0  0  0  0  0  0
   -0.7912   -0.6220   -1.0188 C   0  0  0  0  0  0  0  0  0  0  0  0
   -1.4950    0.1806   -1.9905 O   0  0  0  0  0  0  0  0  0  0  0  0
   -2.2609   -0.6977   -1.1545 C   0  0  0  0  0  0  0  0  0  0  0  0
   -2.1807   -2.1224   -1.7536 C   0  0  0  0  0  0  0  0  0  0  0  0
   -2.0469   -2.2267   -3.3018 C   0  0  0  0  0  0  0  0  0  0  0  0
   -0.4919   -2.1438   -3.1731 C   0  0  0  0  0  0  0  0  0  0  0  0
   -0.6230   -2.0400   -1.6260 C   0  0  0  0  0  0  0  0  0  0  0  0
    0.9776    1.1532   -1.4739 H   0  0  0  0  0  0  0  0  0  0  0  0
    0.4574   -0.5354    0.7128 H   0  0  0  0  0  0  0  0  0  0  0  0
   -0.4579    0.9490    0.3734 H   0  0  0  0  0  0  0  0  0  0  0  0
   -3.0593   -0.2398   -0.5788 H   0  0  0  0  0  0  0  0  0  0  0  0
   -2.7584   -2.8777   -1.2208 H   0  0  0  0  0  0  0  0  0  0  0  0
   -2.4030   -3.1807   -3.6973 H   0  0  0  0  0  0  0  0  0  0  0  0
   -2.5139   -1.4145   -3.8611 H   0  0  0  0  0  0  0  0  0  0  0  0
    0.0229   -3.0511   -3.4971 H   0  0  0  0  0  0  0  0  0  0  0  0
   -0.0272   -1.2822   -3.6550 H   0  0  0  0  0  0  0  0  0  0  0  0
   -0.0644   -2.7380   -1.0022 H   0  0  0  0  0  0  0  0  0  0  0  0
  1  2  1  0
  2  3  1  0
  3  4  1  0
  4  5  1  0
  5  6  1  0
  6  7  1  0
  7  8  1  0
  8  9  1  0
  5  3  1  0
  9  6  1  0
  9  3  1  0
  1 10  1  0
  2 11  1  0
  2 12  1  0
  5 13  1  0
  6 14  1  0
  7 15  1  0
  7 16  1  0
  8 17  1  0
  8 18  1  0
  9 19  1  0
M  END
$$$$
