gdb 1594	3.1695257	1.4573447	1.1787048	1.8519	74.44	-0.24974	0.07282	0.32255999999999996	1079.462	0.156634	-422.474087	-422.466199	-422.465255	-422.50684	31.25
 OpenBabel02181911403D

 19 21  0  0  1  0  0  0  0  0999 V2000
   -1.9181    1.5222    0.7508 O   0  0  0  0  0  0  0  0  0  0  0  0
   -0.6366    1.0166    0.9746 C   0  0  1  0  0  0  0  0  0  0  0  0
   -0.1481    0.3585   -0.2907 C   0  0  0  0  0  0  0  0  0  0  0  0
   -0.9890   -0.7153   -0.9336 C   0  0  0  0  0  0  0  0  0  0  0  0
    0.3440   -1.0704   -0.3358 C   0  0  0  0  0  0  0  0  0  0  0  0
    0.2991    1.9543    1.8163 C   0  0  2  0  0  0  0  0  0  0  0  0
    1.1061    0.7425    2.3153 C   0  0  0  0  0  0  0  0  0  0  0  0
   -0.3942    0.3948    2.4018 C   0  0  1  0  0  0  0  0  0  0  0  0
   -0.6360    1.7563    2.9624 O   0  0  0  0  0  0  0  0  0  0  0  0
   -2.1552    1.9577    1.5841 H   0  0  0  0  0  0  0  0  0  0  0  0
    0.3311    1.0497   -0.9786 H   0  0  0  0  0  0  0  0  0  0  0  0
   -1.8831   -1.0234   -0.4042 H   0  0  0  0  0  0  0  0  0  0  0  0
   -1.0916   -0.7040   -2.0126 H   0  0  0  0  0  0  0  0  0  0  0  0
    0.3470   -1.6428    0.5856 H   0  0  0  0  0  0  0  0  0  0  0  0
    1.1705   -1.3014   -0.9990 H   0  0  0  0  0  0  0  0  0  0  0  0
    0.6208    2.9767    1.6118 H   0  0  0  0  0  0  0  0  0  0  0  0
    1.7338    0.2027    1.6073 H   0  0  0  0  0  0  0  0  0  0  0  0
    1.5799    0.8955    3.2845 H   0  0  0  0  0  0  0  0  0  0  0  0
   -0.8936   -0.4365    2.9016 H   0  0  0  0  0  0  0  0  0  0  0  0
  1 10  1  0  0  0  0
  2  1  1  6  0  0  0
  2  6  1  0  0  0  0
  2  8  1  0  0  0  0
  3  2  1  0  0  0  0
  4 12  1  0  0  0  0
  4  5  1  0  0  0  0
  4  3  1  0  0  0  0
  5  3  1  0  0  0  0
  5 14  1  0  0  0  0
  6 16  1  6  0  0  0
  6  7  1  0  0  0  0
  6  9  1  0  0  0  0
  7  8  1  0  0  0  0
  7 18  1  0  0  0  0
  8 19  1  1  0  0  0
  8  9  1  0  0  0  0
 11  3  1  0  0  0  0
 13  4  1  0  0  0  0
 15  5  1  0  0  0  0
 17  7  1  0  0  0  0
M TOR 0 0 1 2 3
M TOR 1 0 1 2 4
M TOR 2 0 1 2 10
M TOR 3 0 1 5 6
M TOR 4 0 1 5 8
M TOR 5 0 1 5 15
M TOR 6 0 1 7 6
M TOR 7 0 1 7 8
M TOR 8 0 1 7 18
M TOR 9 1 2 3 4
M TOR 10 1 2 3 11
M TOR 11 1 2 3 12
M TOR 12 1 2 4 13
M TOR 13 1 2 4 14
M TOR 14 1 5 6 7
M TOR 15 1 5 6 16
M TOR 16 1 5 6 17
M TOR 17 1 5 8 7
M TOR 18 1 7 6 16
M TOR 19 1 7 6 17
M TOR 20 2 1 0 9
M TOR 21 2 1 5 6
M TOR 22 2 1 5 8
M TOR 23 2 1 5 15
M TOR 24 2 1 7 6
M TOR 25 2 1 7 8
M TOR 26 2 1 7 18
M TOR 27 2 3 4 13
M TOR 28 2 3 4 14
M TOR 29 2 4 3 11
M TOR 30 2 4 3 12
M TOR 31 3 2 1 5
M TOR 32 3 2 1 7
M TOR 33 3 4 2 10
M TOR 34 4 2 1 5
M TOR 35 4 2 1 7
M TOR 36 5 1 0 9
M TOR 37 5 1 2 10
M TOR 38 5 1 7 18
M TOR 39 5 6 7 8
M TOR 40 5 6 7 18
M TOR 41 5 8 7 18
M TOR 42 7 1 0 9
M TOR 43 7 1 2 10
M TOR 44 7 1 5 15
M TOR 45 7 6 5 15
M TOR 46 7 8 5 15
M TOR 47 8 5 6 16
M TOR 48 8 5 6 17
M TOR 49 8 7 6 16
M TOR 50 8 7 6 17
M  END
$$$$
