
     RDKit          3D

 19 20  0  0  0  0  0  0  0  0999 V2000
   -0.5315    2.2615    1.1175 C   0  0  0  0  0  0  0  0  0  0  0  0
   -0.8793    1.1883    0.0895 C   0  0  0  0  0  0  0  0  0  0  0  0
   -2.3051    0.5989    0.1821 C   0  0  0  0  0  0  0  0  0  0  0  0
   -2.1971   -0.8458   -0.2979 C   0  0  0  0  0  0  0  0  0  0  0  0
   -3.2078   -1.7357    0.0377 O   0  0  0  0  0  0  0  0  0  0  0  0
   -1.5094   -1.0909   -1.5828 C   0  0  0  0  0  0  0  0  0  0  0  0
   -0.7112   -1.2420   -0.2784 C   0  0  0  0  0  0  0  0  0  0  0  0
    0.0424   -0.0482    0.1878 C   0  0  0  0  0  0  0  0  0  0  0  0
    1.1586   -0.0387    0.6505 O   0  0  0  0  0  0  0  0  0  0  0  0
   -0.7022    1.8970    2.1359 H   0  0  0  0  0  0  0  0  0  0  0  0
    0.5244    2.5306    1.0378 H   0  0  0  0  0  0  0  0  0  0  0  0
   -1.1367    3.1612    0.9715 H   0  0  0  0  0  0  0  0  0  0  0  0
   -0.7309    1.6066   -0.9165 H   0  0  0  0  0  0  0  0  0  0  0  0
   -2.6282    0.5942    1.2324 H   0  0  0  0  0  0  0  0  0  0  0  0
   -3.0510    1.1667   -0.3834 H   0  0  0  0  0  0  0  0  0  0  0  0
   -3.2834   -1.7578    0.9986 H   0  0  0  0  0  0  0  0  0  0  0  0
   -1.7431   -2.0321   -2.0669 H   0  0  0  0  0  0  0  0  0  0  0  0
   -1.2830   -0.2727   -2.2583 H   0  0  0  0  0  0  0  0  0  0  0  0
   -0.3629   -2.2299   -0.0056 H   0  0  0  0  0  0  0  0  0  0  0  0
  1  2  1  0
  2  3  1  0
  3  4  1  0
  4  5  1  0
  4  6  1  0
  6  7  1  0
  7  8  1  0
  8  9  2  0
  8  2  1  0
  7  4  1  0
  1 10  1  0
  1 11  1  0
  1 12  1  0
  2 13  1  0
  3 14  1  0
  3 15  1  0
  5 16  1  0
  6 17  1  0
  6 18  1  0
  7 19  1  0
M  END
$$$$
