
     RDKit          3D

 19 19  0  0  0  0  0  0  0  0999 V2000
   -5.3323   -1.1306   -0.7481 C   0  0  0  0  0  0  0  0  0  0  0  0
   -4.1574   -0.2409   -0.5542 C   0  0  0  0  0  0  0  0  0  0  0  0
   -2.8725   -0.2729   -0.9988 C   0  0  0  0  0  0  0  0  0  0  0  0
   -2.2096    0.8903   -0.4664 C   0  0  0  0  0  0  0  0  0  0  0  0
   -0.7792    1.2938   -0.6562 C   0  0  0  0  0  0  0  0  0  0  0  0
    0.1961    0.3796    0.0882 C   0  0  0  0  0  0  0  0  0  0  0  0
    1.5106    0.8365   -0.1886 O   0  0  0  0  0  0  0  0  0  0  0  0
   -3.1583    1.5330    0.2643 C   0  0  0  0  0  0  0  0  0  0  0  0
   -4.3449    0.8643    0.2232 O   0  0  0  0  0  0  0  0  0  0  0  0
   -5.6992   -1.5270    0.2057 H   0  0  0  0  0  0  0  0  0  0  0  0
   -6.1655   -0.5996   -1.2225 H   0  0  0  0  0  0  0  0  0  0  0  0
   -5.0576   -1.9740   -1.3854 H   0  0  0  0  0  0  0  0  0  0  0  0
   -2.4418   -1.0285   -1.6388 H   0  0  0  0  0  0  0  0  0  0  0  0
   -0.5115    1.2794   -1.7196 H   0  0  0  0  0  0  0  0  0  0  0  0
   -0.6242    2.3201   -0.3072 H   0  0  0  0  0  0  0  0  0  0  0  0
   -0.0258    0.4115    1.1664 H   0  0  0  0  0  0  0  0  0  0  0  0
    0.0544   -0.6616   -0.2428 H   0  0  0  0  0  0  0  0  0  0  0  0
    2.1305    0.2762    0.2869 H   0  0  0  0  0  0  0  0  0  0  0  0
   -3.1516    2.4430    0.8423 H   0  0  0  0  0  0  0  0  0  0  0  0
  1  2  1  0
  2  3  2  0
  3  4  1  0
  4  5  1  0
  5  6  1  0
  6  7  1  0
  4  8  2  0
  8  9  1  0
  9  2  1  0
  1 10  1  0
  1 11  1  0
  1 12  1  0
  3 13  1  0
  5 14  1  0
  5 15  1  0
  6 16  1  0
  6 17  1  0
  7 18  1  0
  8 19  1  0
M  END
$$$$
