
     RDKit          3D

 19 21  0  0  0  0  0  0  0  0999 V2000
    3.0676    0.3720    3.3592 C   0  0  0  0  0  0  0  0  0  0  0  0
    1.6733    0.4680    3.6663 O   0  0  0  0  0  0  0  0  0  0  0  0
    1.0548    1.2477    2.6797 C   0  0  0  0  0  0  0  0  0  0  0  0
    0.6937    0.6086    1.3593 C   0  0  0  0  0  0  0  0  0  0  0  0
    0.7834   -0.8769    1.0585 C   0  0  0  0  0  0  0  0  0  0  0  0
    1.9968   -1.4965    1.4512 O   0  0  0  0  0  0  0  0  0  0  0  0
    3.1486   -0.7636    1.0817 C   0  0  0  0  0  0  0  0  0  0  0  0
    3.2031    0.5719    1.8310 C   0  0  0  0  0  0  0  0  0  0  0  0
    1.9691    1.4258    1.5032 C   0  0  0  0  0  0  0  0  0  0  0  0
    3.6223    1.1499    3.9047 H   0  0  0  0  0  0  0  0  0  0  0  0
    3.4158   -0.6090    3.6948 H   0  0  0  0  0  0  0  0  0  0  0  0
    0.4373    2.0505    3.0716 H   0  0  0  0  0  0  0  0  0  0  0  0
   -0.1205    1.0976    0.8292 H   0  0  0  0  0  0  0  0  0  0  0  0
   -0.0099   -1.4294    1.5721 H   0  0  0  0  0  0  0  0  0  0  0  0
    0.6378   -1.0117   -0.0278 H   0  0  0  0  0  0  0  0  0  0  0  0
    4.0023   -1.3971    1.3442 H   0  0  0  0  0  0  0  0  0  0  0  0
    3.1744   -0.5898   -0.0079 H   0  0  0  0  0  0  0  0  0  0  0  0
    4.1269    1.0993    1.5760 H   0  0  0  0  0  0  0  0  0  0  0  0
    2.0899    2.3691    0.9847 H   0  0  0  0  0  0  0  0  0  0  0  0
  1  2  1  0
  2  3  1  0
  3  4  1  0
  4  5  1  0
  5  6  1  0
  6  7  1  0
  7  8  1  0
  8  9  1  0
  8  1  1  0
  9  3  1  0
  9  4  1  0
  1 10  1  0
  1 11  1  0
  3 12  1  0
  4 13  1  0
  5 14  1  0
  5 15  1  0
  7 16  1  0
  7 17  1  0
  8 18  1  0
  9 19  1  0
M  END
$$$$
