gdb 4638	3.8898683	0.6697608	0.6385706	2.3964	80.74	-0.2455	0.03466	0.28016	1798.6759	0.154325	-422.506052	-422.495691	-422.494747	-422.543185	36.602
 OpenBabel02181911413D

 19 19  0  0  0  0  0  0  0  0999 V2000
    1.1601    2.4958    3.8408 O   0  0  0  0  0  0  0  0  0  0  0  0
    1.1550    2.6603    2.4285 C   0  0  0  0  0  0  0  0  0  0  0  0
    1.0101    1.4016    1.6993 C   0  0  0  0  0  0  0  0  0  0  0  0
    0.9297    0.3340    1.1474 C   0  0  0  0  0  0  0  0  0  0  0  0
    0.8363   -0.9580    0.4750 C   0  0  0  0  0  0  0  0  0  0  0  0
    2.0724   -1.8323    0.6658 C   0  0  0  0  0  0  0  0  0  0  0  0
    2.3724   -2.1308    2.0014 O   0  0  0  0  0  0  0  0  0  0  0  0
    3.2712   -1.6336   -0.2035 C   0  0  0  0  0  0  0  0  0  0  0  0
    2.4048   -2.8696   -0.3783 C   0  0  0  0  0  0  0  0  0  0  0  0
    1.7900    1.7956    4.0420 H   0  0  0  0  0  0  0  0  0  0  0  0
    0.3130    3.3267    2.2093 H   0  0  0  0  0  0  0  0  0  0  0  0
    2.0651    3.1778    2.0842 H   0  0  0  0  0  0  0  0  0  0  0  0
   -0.0468   -1.5028    0.8407 H   0  0  0  0  0  0  0  0  0  0  0  0
    0.6687   -0.8054   -0.5983 H   0  0  0  0  0  0  0  0  0  0  0  0
    1.6755   -2.7027    2.3432 H   0  0  0  0  0  0  0  0  0  0  0  0
    3.2370   -0.8620   -0.9646 H   0  0  0  0  0  0  0  0  0  0  0  0
    4.2365   -1.7668    0.2702 H   0  0  0  0  0  0  0  0  0  0  0  0
    1.7815   -2.9469   -1.2630 H   0  0  0  0  0  0  0  0  0  0  0  0
    2.8081   -3.8097   -0.0192 H   0  0  0  0  0  0  0  0  0  0  0  0
  1 10  1  0  0  0  0
  2  1  1  0  0  0  0
  3  2  1  0  0  0  0
  4  3  3  0  0  0  0
  5  6  1  0  0  0  0
  5 13  1  0  0  0  0
  5  4  1  0  0  0  0
  6  7  1  0  0  0  0
  7 15  1  0  0  0  0
  8 17  1  0  0  0  0
  8  6  1  0  0  0  0
  9  8  1  0  0  0  0
  9 19  1  0  0  0  0
  9  6  1  0  0  0  0
 11  2  1  0  0  0  0
 12  2  1  0  0  0  0
 14  5  1  0  0  0  0
 16  8  1  0  0  0  0
 18  9  1  0  0  0  0
M TOR 0 0 1 2 3
M TOR 1 1 2 3 4
M TOR 2 2 1 0 9
M TOR 3 2 3 4 5
M TOR 4 2 3 4 12
M TOR 5 2 3 4 13
M TOR 6 3 2 1 10
M TOR 7 3 2 1 11
M TOR 8 3 4 5 6
M TOR 9 3 4 5 7
M TOR 10 3 4 5 8
M TOR 11 4 5 6 14
M TOR 12 4 5 7 8
M TOR 13 4 5 7 15
M TOR 14 4 5 7 16
M TOR 15 4 5 8 17
M TOR 16 4 5 8 18
M TOR 17 5 7 8 17
M TOR 18 5 7 8 18
M TOR 19 5 8 7 15
M TOR 20 5 8 7 16
M TOR 21 6 5 4 12
M TOR 22 6 5 4 13
M TOR 23 6 5 7 8
M TOR 24 6 5 7 15
M TOR 25 6 5 7 16
M TOR 26 6 5 8 17
M TOR 27 6 5 8 18
M TOR 28 7 5 4 12
M TOR 29 7 5 4 13
M TOR 30 7 5 6 14
M TOR 31 8 5 4 12
M TOR 32 8 5 4 13
M TOR 33 8 5 6 14
M  END
$$$$
