
     RDKit          3D

 19 19  0  0  0  0  0  0  0  0999 V2000
    1.4661   -0.1403    0.3484 C   0  0  0  0  0  0  0  0  0  0  0  0
    0.0675   -0.0375    0.1530 O   0  0  0  0  0  0  0  0  0  0  0  0
   -0.5708    0.8017    1.0564 C   0  0  0  0  0  0  0  0  0  0  0  0
   -0.1141    2.1394    0.8500 O   0  0  0  0  0  0  0  0  0  0  0  0
   -0.1494    2.9627    1.9914 C   0  0  0  0  0  0  0  0  0  0  0  0
   -1.4933    3.1682    2.6302 C   0  0  0  0  0  0  0  0  0  0  0  0
   -2.6630    2.5721    2.3524 C   0  0  0  0  0  0  0  0  0  0  0  0
   -2.9434    1.4916    1.4094 C   0  0  0  0  0  0  0  0  0  0  0  0
   -2.0507    0.6858    0.8242 C   0  0  0  0  0  0  0  0  0  0  0  0
    1.6998   -0.5023    1.3617 H   0  0  0  0  0  0  0  0  0  0  0  0
    1.8347   -0.8643   -0.3811 H   0  0  0  0  0  0  0  0  0  0  0  0
    1.9651    0.8220    0.1925 H   0  0  0  0  0  0  0  0  0  0  0  0
   -0.3149    0.5169    2.0979 H   0  0  0  0  0  0  0  0  0  0  0  0
    0.5633    2.6131    2.7623 H   0  0  0  0  0  0  0  0  0  0  0  0
    0.2299    3.9347    1.6491 H   0  0  0  0  0  0  0  0  0  0  0  0
   -1.4845    3.9327    3.4061 H   0  0  0  0  0  0  0  0  0  0  0  0
   -3.5299    2.9206    2.9099 H   0  0  0  0  0  0  0  0  0  0  0  0
   -3.9967    1.3200    1.2021 H   0  0  0  0  0  0  0  0  0  0  0  0
   -2.3609   -0.0984    0.1421 H   0  0  0  0  0  0  0  0  0  0  0  0
  1  2  1  0
  2  3  1  0
  3  4  1  0
  4  5  1  0
  5  6  1  0
  6  7  2  0
  7  8  1  0
  8  9  2  0
  9  3  1  0
  1 10  1  0
  1 11  1  0
  1 12  1  0
  3 13  1  0
  5 14  1  0
  5 15  1  0
  6 16  1  0
  7 17  1  0
  8 18  1  0
  9 19  1  0
M  END
$$$$
