
     RDKit          3D

 19 21  0  0  0  0  0  0  0  0999 V2000
   -0.3796   -0.3294   -0.3909 C   0  0  0  0  0  0  0  0  0  0  0  0
   -0.3653    1.1391    0.1112 C   0  0  0  0  0  0  0  0  0  0  0  0
    0.2322    0.5924    1.4530 C   0  0  0  0  0  0  0  0  0  0  0  0
    1.0959    1.4483    2.3962 C   0  0  0  0  0  0  0  0  0  0  0  0
    2.4796    1.3291    2.0815 O   0  0  0  0  0  0  0  0  0  0  0  0
    2.8835    2.0568    0.9464 C   0  0  0  0  0  0  0  0  0  0  0  0
    1.8463    2.2994    0.0412 O   0  0  0  0  0  0  0  0  0  0  0  0
    1.0839    1.2091   -0.4340 C   0  0  0  0  0  0  0  0  0  0  0  0
    0.9937   -0.1600    0.3166 C   0  0  0  0  0  0  0  0  0  0  0  0
   -1.0880   -1.0025    0.0960 H   0  0  0  0  0  0  0  0  0  0  0  0
   -0.3625   -0.4809   -1.4736 H   0  0  0  0  0  0  0  0  0  0  0  0
   -1.1431    1.8939   -0.0106 H   0  0  0  0  0  0  0  0  0  0  0  0
   -0.4709   -0.0280    2.0182 H   0  0  0  0  0  0  0  0  0  0  0  0
    0.7739    2.4986    2.4046 H   0  0  0  0  0  0  0  0  0  0  0  0
    1.0122    1.0652    3.4169 H   0  0  0  0  0  0  0  0  0  0  0  0
    3.2416    3.0589    1.2239 H   0  0  0  0  0  0  0  0  0  0  0  0
    3.7083    1.4806    0.5008 H   0  0  0  0  0  0  0  0  0  0  0  0
    1.2015    1.1463   -1.5213 H   0  0  0  0  0  0  0  0  0  0  0  0
    1.7765   -0.9084    0.4326 H   0  0  0  0  0  0  0  0  0  0  0  0
  1  2  1  0
  2  3  1  0
  3  4  1  0
  4  5  1  0
  5  6  1  0
  6  7  1  0
  7  8  1  0
  8  9  1  0
  9  1  1  0
  8  2  1  0
  9  3  1  0
  1 10  1  0
  1 11  1  0
  2 12  1  0
  3 13  1  0
  4 14  1  0
  4 15  1  0
  6 16  1  0
  6 17  1  0
  8 18  1  0
  9 19  1  0
M  END
$$$$
