
     RDKit          3D

 19 21  0  0  0  0  0  0  0  0999 V2000
   -0.1172   -0.0493   -0.1638 C   0  0  0  0  0  0  0  0  0  0  0  0
    1.3735    0.0097    0.0036 C   0  0  0  0  0  0  0  0  0  0  0  0
    2.1398   -0.6051    1.2081 C   0  0  0  0  0  0  0  0  0  0  0  0
    3.2652    0.2854    0.6712 C   0  0  0  0  0  0  0  0  0  0  0  0
    4.4798    0.5468    1.2817 O   0  0  0  0  0  0  0  0  0  0  0  0
    3.3409    0.0363   -0.8926 C   0  0  0  0  0  0  0  0  0  0  0  0
    3.0242    1.5316   -1.1250 C   0  0  0  0  0  0  0  0  0  0  0  0
    2.2148    1.3538    0.1670 C   0  0  0  0  0  0  0  0  0  0  0  0
    2.0715   -0.5900   -1.1104 O   0  0  0  0  0  0  0  0  0  0  0  0
   -0.6219    0.3842    0.7044 H   0  0  0  0  0  0  0  0  0  0  0  0
   -0.4269    0.5006   -1.0576 H   0  0  0  0  0  0  0  0  0  0  0  0
   -0.4474   -1.0876   -0.2713 H   0  0  0  0  0  0  0  0  0  0  0  0
    1.7672   -0.2326    2.1686 H   0  0  0  0  0  0  0  0  0  0  0  0
    2.2537   -1.6922    1.2243 H   0  0  0  0  0  0  0  0  0  0  0  0
    4.3124    0.8865    2.1672 H   0  0  0  0  0  0  0  0  0  0  0  0
    4.1514   -0.5065   -1.3761 H   0  0  0  0  0  0  0  0  0  0  0  0
    3.8922    2.1728   -0.9539 H   0  0  0  0  0  0  0  0  0  0  0  0
    2.5204    1.7883   -2.0598 H   0  0  0  0  0  0  0  0  0  0  0  0
    1.8003    2.1567    0.7757 H   0  0  0  0  0  0  0  0  0  0  0  0
  1  2  1  0
  2  3  1  0
  3  4  1  0
  4  5  1  0
  4  6  1  0
  6  7  1  0
  7  8  1  0
  6  9  1  0
  8  2  1  0
  9  2  1  0
  8  4  1  0
  1 10  1  0
  1 11  1  0
  1 12  1  0
  3 13  1  0
  3 14  1  0
  5 15  1  0
  6 16  1  0
  7 17  1  0
  7 18  1  0
  8 19  1  0
M  END
$$$$
