gdb 5219	2.4377445	1.623529	1.4794171	2.0436	75.17	-0.25515	0.05471	0.30985999999999997	1003.9507	0.156844	-422.491517	-422.483307	-422.482362	-422.523938	32.172
 OpenBabel02181911423D

 19 21  0  0  1  0  0  0  0  0999 V2000
    0.5211    1.0805    0.0868 O   0  0  0  0  0  0  0  0  0  0  0  0
    0.2582   -0.2274    0.6202 C   0  0  0  0  0  0  0  0  0  0  0  0
   -1.0020   -0.2107    1.4385 C   0  0  2  0  0  0  0  0  0  0  0  0
   -1.2703    0.4156    2.8287 C   0  0  0  0  0  0  0  0  0  0  0  0
   -2.6583   -0.0503    2.3468 C   0  0  2  0  0  0  0  0  0  0  0  0
   -2.0802   -1.3323    1.6499 C   0  0  1  0  0  0  0  0  0  0  0  0
   -2.7938   -1.0285    0.3139 C   0  0  0  0  0  0  0  0  0  0  0  0
   -2.3543    0.3456    0.8643 C   0  0  2  0  0  0  0  0  0  0  0  0
   -2.5105    1.6031    0.3185 O   0  0  0  0  0  0  0  0  0  0  0  0
    0.7367    1.6556    0.8289 H   0  0  0  0  0  0  0  0  0  0  0  0
    0.1404   -0.8775   -0.2532 H   0  0  0  0  0  0  0  0  0  0  0  0
    1.1212   -0.5971    1.1929 H   0  0  0  0  0  0  0  0  0  0  0  0
   -0.8427   -0.1010    3.6943 H   0  0  0  0  0  0  0  0  0  0  0  0
   -1.1323    1.4981    2.9180 H   0  0  0  0  0  0  0  0  0  0  0  0
   -3.6237    0.0180    2.8491 H   0  0  0  0  0  0  0  0  0  0  0  0
   -1.9143   -2.2927    2.1341 H   0  0  0  0  0  0  0  0  0  0  0  0
   -2.3095   -1.3824   -0.6023 H   0  0  0  0  0  0  0  0  0  0  0  0
   -3.8701   -1.2228    0.2798 H   0  0  0  0  0  0  0  0  0  0  0  0
   -1.6955    1.7907   -0.1663 H   0  0  0  0  0  0  0  0  0  0  0  0
  1  2  1  0  0  0  0
  1 10  1  0  0  0  0
  2 12  1  0  0  0  0
  3  2  1  6  0  0  0
  3  6  1  0  0  0  0
  3  4  1  0  0  0  0
  4 14  1  0  0  0  0
  4 13  1  0  0  0  0
  5  4  1  0  0  0  0
  5 15  1  1  0  0  0
  6 16  1  1  0  0  0
  6  5  1  0  0  0  0
  7  8  1  0  0  0  0
  7  6  1  0  0  0  0
  8  9  1  6  0  0  0
  8  3  1  0  0  0  0
  8  5  1  0  0  0  0
 11  2  1  0  0  0  0
 17  7  1  0  0  0  0
 18  7  1  0  0  0  0
 19  9  1  0  0  0  0
M TOR 0 0 1 2 3
M TOR 1 0 1 2 5
M TOR 2 0 1 2 7
M TOR 3 1 2 3 4
M TOR 4 1 2 3 12
M TOR 5 1 2 3 13
M TOR 6 1 2 5 4
M TOR 7 1 2 5 6
M TOR 8 1 2 5 15
M TOR 9 1 2 7 4
M TOR 10 1 2 7 6
M TOR 11 1 2 7 8
M TOR 12 2 1 0 9
M TOR 13 2 3 4 5
M TOR 14 2 3 4 7
M TOR 15 2 3 4 14
M TOR 16 2 5 4 7
M TOR 17 2 5 4 14
M TOR 18 2 5 6 7
M TOR 19 2 5 6 16
M TOR 20 2 5 6 17
M TOR 21 2 7 4 14
M TOR 22 2 7 6 16
M TOR 23 2 7 6 17
M TOR 24 2 7 8 18
M TOR 25 3 2 1 10
M TOR 26 3 2 1 11
M TOR 27 3 2 5 6
M TOR 28 3 2 5 15
M TOR 29 3 2 7 6
M TOR 30 3 2 7 8
M TOR 31 3 4 5 6
M TOR 32 3 4 5 15
M TOR 33 3 4 7 6
M TOR 34 3 4 7 8
M TOR 35 4 5 6 7
M TOR 36 4 5 6 16
M TOR 37 4 5 6 17
M TOR 38 4 7 6 16
M TOR 39 4 7 6 17
M TOR 40 4 7 8 18
M TOR 41 5 2 1 10
M TOR 42 5 2 1 11
M TOR 43 5 2 3 12
M TOR 44 5 2 3 13
M TOR 45 5 2 7 8
M TOR 46 5 4 3 12
M TOR 47 5 4 3 13
M TOR 48 5 4 7 8
M TOR 49 5 6 7 8
M TOR 50 6 5 4 14
M TOR 51 6 7 4 14
M TOR 52 6 7 8 18
M TOR 53 7 2 1 10
M TOR 54 7 2 1 11
M TOR 55 7 2 3 12
M TOR 56 7 2 3 13
M TOR 57 7 2 5 15
M TOR 58 7 4 3 12
M TOR 59 7 4 3 13
M TOR 60 7 4 5 15
M TOR 61 7 6 5 15
M TOR 62 8 7 4 14
M TOR 63 8 7 6 16
M TOR 64 8 7 6 17
M  END
$$$$
