gdb 5488	3.5628624	1.2905451	1.1181745	2.6208	73.95	-0.22518	0.07404	0.29922	1118.6335	0.158428	-422.524194	-422.516492	-422.515548	-422.556434	29.917
 OpenBabel02181911423D

 19 21  0  0  1  0  0  0  0  0999 V2000
    1.0256    0.6517    0.5666 O   0  0  0  0  0  0  0  0  0  0  0  0
    0.0700   -0.0557   -0.2129 C   0  0  0  0  0  0  0  0  0  0  0  0
   -0.6728    0.9568   -1.0638 C   0  0  1  0  0  0  0  0  0  0  0  0
   -1.9218    0.3819   -1.7354 C   0  0  2  0  0  0  0  0  0  0  0  0
   -2.8585    1.5213   -2.0914 C   0  0  2  0  0  0  0  0  0  0  0  0
   -2.3315    2.8207   -2.2470 O   0  0  0  0  0  0  0  0  0  0  0  0
   -1.8165    3.2115   -0.9640 C   0  0  0  0  0  0  0  0  0  0  0  0
   -1.6074    1.8929   -0.2252 C   0  0  1  0  0  0  0  0  0  0  0  0
   -2.8282    1.0433   -0.6845 C   0  0  2  0  0  0  0  0  0  0  0  0
    1.4950    0.0181    1.1165 H   0  0  0  0  0  0  0  0  0  0  0  0
    0.5580   -0.7998   -0.8633 H   0  0  0  0  0  0  0  0  0  0  0  0
   -0.6460   -0.5975    0.4267 H   0  0  0  0  0  0  0  0  0  0  0  0
    0.0399    1.4731   -1.7177 H   0  0  0  0  0  0  0  0  0  0  0  0
   -2.0097   -0.5983   -2.1937 H   0  0  0  0  0  0  0  0  0  0  0  0
   -3.6960    1.3146   -2.7468 H   0  0  0  0  0  0  0  0  0  0  0  0
   -0.8883    3.7696   -1.1233 H   0  0  0  0  0  0  0  0  0  0  0  0
   -2.5393    3.8606   -0.4463 H   0  0  0  0  0  0  0  0  0  0  0  0
   -1.3737    1.9800    0.8343 H   0  0  0  0  0  0  0  0  0  0  0  0
   -3.6577    0.6682   -0.1001 H   0  0  0  0  0  0  0  0  0  0  0  0
  1 10  1  0  0  0  0
  2 12  1  0  0  0  0
  2  1  1  0  0  0  0
  3 13  1  6  0  0  0
  3  8  1  0  0  0  0
  3  2  1  0  0  0  0
  4 14  1  6  0  0  0
  4  3  1  0  0  0  0
  4  9  1  0  0  0  0
  5 15  1  6  0  0  0
  5  4  1  0  0  0  0
  5  9  1  0  0  0  0
  6  5  1  0  0  0  0
  6  7  1  0  0  0  0
  7 17  1  0  0  0  0
  7  8  1  0  0  0  0
  8 18  1  1  0  0  0
  9  8  1  0  0  0  0
  9 19  1  1  0  0  0
 11  2  1  0  0  0  0
 16  7  1  0  0  0  0
M TOR 0 0 1 2 3
M TOR 1 0 1 2 7
M TOR 2 0 1 2 12
M TOR 3 1 2 3 4
M TOR 4 1 2 3 8
M TOR 5 1 2 3 13
M TOR 6 1 2 7 6
M TOR 7 1 2 7 8
M TOR 8 1 2 7 17
M TOR 9 2 1 0 9
M TOR 10 2 3 4 5
M TOR 11 2 3 4 8
M TOR 12 2 3 4 14
M TOR 13 2 3 8 7
M TOR 14 2 3 8 18
M TOR 15 2 7 6 5
M TOR 16 2 7 6 15
M TOR 17 2 7 6 16
M TOR 18 2 7 8 4
M TOR 19 2 7 8 18
M TOR 20 3 2 1 10
M TOR 21 3 2 1 11
M TOR 22 3 2 7 6
M TOR 23 3 2 7 17
M TOR 24 3 4 5 6
M TOR 25 3 4 8 7
M TOR 26 3 4 8 18
M TOR 27 3 8 4 5
M TOR 28 3 8 4 14
M TOR 29 3 8 7 6
M TOR 30 3 8 7 17
M TOR 31 4 3 2 7
M TOR 32 4 3 2 12
M TOR 33 4 5 6 7
M TOR 34 4 5 6 15
M TOR 35 4 5 6 16
M TOR 36 4 8 3 13
M TOR 37 4 8 7 6
M TOR 38 4 8 7 17
M TOR 39 5 4 3 13
M TOR 40 5 4 8 7
M TOR 41 5 4 8 18
M TOR 42 5 6 7 8
M TOR 43 5 6 7 17
M TOR 44 6 5 4 8
M TOR 45 6 5 4 14
M TOR 46 6 7 2 12
M TOR 47 6 7 8 18
M TOR 48 7 2 1 10
M TOR 49 7 2 1 11
M TOR 50 7 2 3 13
M TOR 51 7 8 3 13
M TOR 52 7 8 4 14
M TOR 53 8 3 2 12
M TOR 54 8 7 2 12
M TOR 55 8 7 6 15
M TOR 56 8 7 6 16
M  END
$$$$
