
     RDKit          3D

 19 20  0  0  0  0  0  0  0  0999 V2000
    0.6383    0.9463   -0.2372 C   0  0  0  0  0  0  0  0  0  0  0  0
    0.8222   -0.5584   -0.1279 C   0  0  0  0  0  0  0  0  0  0  0  0
    1.8175   -1.0798    0.9556 C   0  0  0  0  0  0  0  0  0  0  0  0
    2.5847   -1.7931   -0.0330 O   0  0  0  0  0  0  0  0  0  0  0  0
    1.7766   -1.2669   -1.0918 C   0  0  0  0  0  0  0  0  0  0  0  0
    1.5163   -2.0442   -2.3347 C   0  0  0  0  0  0  0  0  0  0  0  0
    2.3822   -0.7890   -2.3697 C   0  0  0  0  0  0  0  0  0  0  0  0
    1.2111   -1.9983    1.9918 C   0  0  0  0  0  0  0  0  0  0  0  0
    0.8259   -1.6289    3.0708 O   0  0  0  0  0  0  0  0  0  0  0  0
    0.1084    1.3351    0.6380 H   0  0  0  0  0  0  0  0  0  0  0  0
    1.6032    1.4576   -0.3086 H   0  0  0  0  0  0  0  0  0  0  0  0
    0.0501    1.2055   -1.1240 H   0  0  0  0  0  0  0  0  0  0  0  0
   -0.1497   -1.0596   -0.0679 H   0  0  0  0  0  0  0  0  0  0  0  0
    2.3943   -0.2882    1.4487 H   0  0  0  0  0  0  0  0  0  0  0  0
    2.0196   -3.0003   -2.4315 H   0  0  0  0  0  0  0  0  0  0  0  0
    0.5249   -2.0051   -2.7751 H   0  0  0  0  0  0  0  0  0  0  0  0
    3.4520   -0.9245   -2.4867 H   0  0  0  0  0  0  0  0  0  0  0  0
    1.9828    0.1052   -2.8372 H   0  0  0  0  0  0  0  0  0  0  0  0
    1.1210   -3.0551    1.6515 H   0  0  0  0  0  0  0  0  0  0  0  0
  1  2  1  0
  2  3  1  0
  3  4  1  0
  4  5  1  0
  5  6  1  0
  6  7  1  0
  3  8  1  0
  8  9  2  0
  5  2  1  0
  7  5  1  0
  1 10  1  0
  1 11  1  0
  1 12  1  0
  2 13  1  0
  3 14  1  0
  6 15  1  0
  6 16  1  0
  7 17  1  0
  7 18  1  0
  8 19  1  0
M  END
$$$$
