gdb 1248	2.2609853	1.1634829	1.0193658	1.7528	78.78	-0.25556	-0.06381	0.19175	1294.9833	0.152468	-422.538511	-422.527617	-422.526672	-422.575508	38.227
 OpenBabel02181911403D

 19 18  0  0  1  0  0  0  0  0999 V2000
   -0.6666    3.7501   -1.2357 C   0  0  0  0  0  0  0  0  0  0  0  0
   -0.5233    2.2345   -1.0398 C   0  0  0  0  0  0  0  0  0  0  0  0
   -0.1781    1.8955    0.4164 C   0  0  0  0  0  0  0  0  0  0  0  0
   -1.8056    1.5137   -1.5037 C   0  0  1  0  0  0  0  0  0  0  0  0
   -2.0412    1.8787   -2.8549 O   0  0  0  0  0  0  0  0  0  0  0  0
   -1.6699   -0.0080   -1.3729 C   0  0  0  0  0  0  0  0  0  0  0  0
   -2.1751   -0.6314   -0.4642 O   0  0  0  0  0  0  0  0  0  0  0  0
   -0.8961   -0.6678   -2.4130 C   0  0  0  0  0  0  0  0  0  0  0  0
   -0.2438   -1.2390   -3.2483 C   0  0  0  0  0  0  0  0  0  0  0  0
   -1.4592    4.1516   -0.5931 H   0  0  0  0  0  0  0  0  0  0  0  0
    0.2664    4.2561   -0.9683 H   0  0  0  0  0  0  0  0  0  0  0  0
   -0.9109    3.9937   -2.2708 H   0  0  0  0  0  0  0  0  0  0  0  0
    0.2867    1.8779   -1.6898 H   0  0  0  0  0  0  0  0  0  0  0  0
   -0.0297    0.8240    0.5746 H   0  0  0  0  0  0  0  0  0  0  0  0
    0.7418    2.4087    0.7123 H   0  0  0  0  0  0  0  0  0  0  0  0
   -0.9743    2.2225    1.0947 H   0  0  0  0  0  0  0  0  0  0  0  0
   -2.6415    1.8042   -0.8500 H   0  0  0  0  0  0  0  0  0  0  0  0
   -2.8862    1.5098   -3.1311 H   0  0  0  0  0  0  0  0  0  0  0  0
    0.3315   -1.7441   -3.9860 H   0  0  0  0  0  0  0  0  0  0  0  0
  1  2  1  0  0  0  0
  1 11  1  0  0  0  0
  1 10  1  0  0  0  0
  2  3  1  0  0  0  0
  3 14  1  0  0  0  0
  3 15  1  0  0  0  0
  3 16  1  0  0  0  0
  4  6  1  0  0  0  0
  4  2  1  0  0  0  0
  4 17  1  1  0  0  0
  5  4  1  0  0  0  0
  6  7  2  0  0  0  0
  8  6  1  0  0  0  0
  9  8  3  0  0  0  0
 12  1  1  0  0  0  0
 13  2  1  0  0  0  0
 18  5  1  0  0  0  0
 19  9  1  0  0  0  0
M TOR 0 0 1 2 13
M TOR 1 0 1 2 14
M TOR 2 0 1 2 15
M TOR 3 0 1 3 4
M TOR 4 0 1 3 5
M TOR 5 0 1 3 16
M TOR 6 1 3 4 17
M TOR 7 1 3 5 6
M TOR 8 1 3 5 7
M TOR 9 2 1 0 9
M TOR 10 2 1 0 10
M TOR 11 2 1 0 11
M TOR 12 2 1 3 4
M TOR 13 2 1 3 5
M TOR 14 2 1 3 16
M TOR 15 3 1 0 9
M TOR 16 3 1 0 10
M TOR 17 3 1 0 11
M TOR 18 3 1 2 13
M TOR 19 3 1 2 14
M TOR 20 3 1 2 15
M TOR 21 3 5 7 8
M TOR 22 4 3 1 12
M TOR 23 4 3 5 6
M TOR 24 4 3 5 7
M TOR 25 5 3 1 12
M TOR 26 5 3 4 17
M TOR 27 5 7 8 18
M TOR 28 6 5 3 16
M TOR 29 6 5 7 8
M TOR 30 7 5 3 16
M  END
$$$$
