gdb 925	5.0508798	0.7881399	0.7513101	3.4974	77.32	-0.23647	-0.02275	0.21372000000000002	1529.5437	0.154782	-422.527712	-422.518634	-422.517689	-422.562963	32.665
 OpenBabel02181911403D

 19 20  0  0  1  0  0  0  0  0999 V2000
    0.2275   -1.2080    0.2166 O   0  0  0  0  0  0  0  0  0  0  0  0
    0.3815   -0.0454   -0.0592 C   0  0  0  0  0  0  0  0  0  0  0  0
   -0.3098    0.6612   -1.2078 C   0  0  0  0  0  0  0  0  0  0  0  0
   -1.0401    1.9204   -0.7474 C   0  0  2  0  0  0  0  0  0  0  0  0
   -1.5112    2.9125   -1.8354 C   0  0  0  0  0  0  0  0  0  0  0  0
   -0.5602    3.8828   -1.1436 C   0  0  0  0  0  0  0  0  0  0  0  0
    0.3758    4.8990   -1.7035 C   0  0  0  0  0  0  0  0  0  0  0  0
   -0.7529    5.3125   -0.7646 C   0  0  0  0  0  0  0  0  0  0  0  0
   -0.1293    2.9044   -0.1913 O   0  0  0  0  0  0  0  0  0  0  0  0
    1.0619    0.6043    0.5324 H   0  0  0  0  0  0  0  0  0  0  0  0
    0.4580    0.9556   -1.9364 H   0  0  0  0  0  0  0  0  0  0  0  0
   -1.0039   -0.0365   -1.6868 H   0  0  0  0  0  0  0  0  0  0  0  0
   -1.8160    1.6630   -0.0154 H   0  0  0  0  0  0  0  0  0  0  0  0
   -1.2332    2.6350   -2.8551 H   0  0  0  0  0  0  0  0  0  0  0  0
   -2.5692    3.1786   -1.8049 H   0  0  0  0  0  0  0  0  0  0  0  0
    1.3842    4.9132   -1.3037 H   0  0  0  0  0  0  0  0  0  0  0  0
    0.2998    5.1533   -2.7560 H   0  0  0  0  0  0  0  0  0  0  0  0
   -0.4794    5.5955    0.2461 H   0  0  0  0  0  0  0  0  0  0  0  0
   -1.6022    5.8499   -1.1747 H   0  0  0  0  0  0  0  0  0  0  0  0
  2  1  2  0  0  0  0
  2 10  1  0  0  0  0
  3  4  1  0  0  0  0
  3  2  1  0  0  0  0
  4  9  1  0  0  0  0
  4 13  1  1  0  0  0
  5 15  1  0  0  0  0
  5  6  1  0  0  0  0
  5  4  1  0  0  0  0
  6  8  1  0  0  0  0
  6  9  1  0  0  0  0
  7 16  1  0  0  0  0
  7  6  1  0  0  0  0
  7  8  1  0  0  0  0
  8 18  1  0  0  0  0
 11  3  1  0  0  0  0
 12  3  1  0  0  0  0
 14  5  1  0  0  0  0
 17  7  1  0  0  0  0
 19  8  1  0  0  0  0
M TOR 0 0 1 2 3
M TOR 1 0 1 2 10
M TOR 2 0 1 2 11
M TOR 3 1 2 3 4
M TOR 4 1 2 3 8
M TOR 5 1 2 3 12
M TOR 6 2 3 4 5
M TOR 7 2 3 4 13
M TOR 8 2 3 4 14
M TOR 9 2 3 8 5
M TOR 10 3 2 1 9
M TOR 11 3 4 5 6
M TOR 12 3 4 5 7
M TOR 13 3 4 5 8
M TOR 14 3 8 5 6
M TOR 15 3 8 5 7
M TOR 16 4 3 2 10
M TOR 17 4 3 2 11
M TOR 18 4 5 6 7
M TOR 19 4 5 6 15
M TOR 20 4 5 6 16
M TOR 21 4 5 7 17
M TOR 22 4 5 7 18
M TOR 23 5 4 3 12
M TOR 24 5 6 7 17
M TOR 25 5 6 7 18
M TOR 26 5 7 6 15
M TOR 27 5 7 6 16
M TOR 28 5 8 3 12
M TOR 29 6 5 4 13
M TOR 30 6 5 4 14
M TOR 31 6 7 5 8
M TOR 32 7 5 4 13
M TOR 33 7 5 4 14
M TOR 34 8 3 2 10
M TOR 35 8 3 2 11
M TOR 36 8 3 4 13
M TOR 37 8 3 4 14
M TOR 38 8 5 4 13
M TOR 39 8 5 4 14
M TOR 40 8 5 6 15
M TOR 41 8 5 6 16
M TOR 42 8 5 7 17
M TOR 43 8 5 7 18
M  END
$$$$
