gdb 4974	2.4164645	1.6234903	1.2712465	1.5997	75.52	-0.22316	0.07407	0.29723	1074.463	0.1562	-422.486764	-422.478228	-422.477284	-422.519766	32.419
 OpenBabel02181911413D

 19 21  0  0  1  0  0  0  0  0999 V2000
    1.4440   -0.2847    0.0453 C   0  0  0  0  0  0  0  0  0  0  0  0
    0.0448   -0.0447    0.1229 O   0  0  0  0  0  0  0  0  0  0  0  0
   -0.3428    0.6346    1.2360 C   0  0  1  0  0  0  0  0  0  0  0  0
   -0.3351    0.3243    2.7261 C   0  0  1  0  0  0  0  0  0  0  0  0
    0.2837    1.6747    3.0695 C   0  0  0  0  0  0  0  0  0  0  0  0
   -0.2652    2.1672    1.7013 C   0  0  2  0  0  0  0  0  0  0  0  0
   -1.8149    2.1330    1.8848 C   0  0  0  0  0  0  0  0  0  0  0  0
   -1.6565    0.6185    1.9597 C   0  0  1  0  0  0  0  0  0  0  0  0
   -2.6321   -0.3553    1.9657 O   0  0  0  0  0  0  0  0  0  0  0  0
    1.7943   -0.8571    0.9138 H   0  0  0  0  0  0  0  0  0  0  0  0
    1.6173   -0.8612   -0.8658 H   0  0  0  0  0  0  0  0  0  0  0  0
    2.0085    0.6558   -0.0116 H   0  0  0  0  0  0  0  0  0  0  0  0
   -0.2298   -0.6359    3.2144 H   0  0  0  0  0  0  0  0  0  0  0  0
   -0.0770    2.2026    3.9596 H   0  0  0  0  0  0  0  0  0  0  0  0
    1.3766    1.6300    3.0883 H   0  0  0  0  0  0  0  0  0  0  0  0
    0.2034    2.9852    1.1591 H   0  0  0  0  0  0  0  0  0  0  0  0
   -2.2280    2.6689    2.7468 H   0  0  0  0  0  0  0  0  0  0  0  0
   -2.3373    2.4369    0.9718 H   0  0  0  0  0  0  0  0  0  0  0  0
   -3.0059   -0.4114    1.0791 H   0  0  0  0  0  0  0  0  0  0  0  0
  1  2  1  0  0  0  0
  1 10  1  0  0  0  0
  3  2  1  6  0  0  0
  3  6  1  0  0  0  0
  3  8  1  0  0  0  0
  3  4  1  0  0  0  0
  4  5  1  0  0  0  0
  4 13  1  1  0  0  0
  5 15  1  0  0  0  0
  5 14  1  0  0  0  0
  6 16  1  6  0  0  0
  6  7  1  0  0  0  0
  6  5  1  0  0  0  0
  7  8  1  0  0  0  0
  7 17  1  0  0  0  0
  8  9  1  6  0  0  0
  8  4  1  0  0  0  0
 11  1  1  0  0  0  0
 12  1  1  0  0  0  0
 18  7  1  0  0  0  0
 19  9  1  0  0  0  0
M TOR 0 0 1 2 3
M TOR 1 0 1 2 5
M TOR 2 0 1 2 7
M TOR 3 1 2 3 4
M TOR 4 1 2 3 7
M TOR 5 1 2 3 12
M TOR 6 1 2 5 4
M TOR 7 1 2 5 6
M TOR 8 1 2 5 15
M TOR 9 1 2 7 6
M TOR 10 1 2 7 8
M TOR 11 2 1 0 9
M TOR 12 2 1 0 10
M TOR 13 2 1 0 11
M TOR 14 2 3 4 5
M TOR 15 2 3 4 13
M TOR 16 2 3 4 14
M TOR 17 2 3 7 6
M TOR 18 2 3 7 8
M TOR 19 2 5 4 13
M TOR 20 2 5 4 14
M TOR 21 2 5 6 7
M TOR 22 2 5 6 16
M TOR 23 2 5 6 17
M TOR 24 2 7 3 4
M TOR 25 2 7 3 12
M TOR 26 2 7 6 16
M TOR 27 2 7 6 17
M TOR 28 2 7 8 18
M TOR 29 3 2 5 6
M TOR 30 3 2 5 15
M TOR 31 3 4 5 6
M TOR 32 3 4 5 15
M TOR 33 3 7 2 5
M TOR 34 3 7 6 5
M TOR 35 3 7 6 16
M TOR 36 3 7 6 17
M TOR 37 3 7 8 18
M TOR 38 4 3 7 6
M TOR 39 4 3 7 8
M TOR 40 4 5 2 7
M TOR 41 4 5 6 7
M TOR 42 4 5 6 16
M TOR 43 4 5 6 17
M TOR 44 5 2 3 12
M TOR 45 5 2 7 8
M TOR 46 5 4 3 7
M TOR 47 5 4 3 12
M TOR 48 5 6 7 8
M TOR 49 6 5 4 13
M TOR 50 6 5 4 14
M TOR 51 6 7 3 12
M TOR 52 6 7 8 18
M TOR 53 7 2 5 15
M TOR 54 7 3 4 13
M TOR 55 7 3 4 14
M TOR 56 7 6 5 15
M TOR 57 8 7 3 12
M TOR 58 8 7 6 16
M TOR 59 8 7 6 17
M  END
$$$$
