gdb 3011	2.8502175	1.7319428	1.3615734	3.0924	73.87	-0.243	0.07815	0.32115	1001.2079	0.156352	-422.507653	-422.499812	-422.498868	-422.539316	31.307
 OpenBabel02181911413D

 19 21  0  0  1  0  0  0  0  0999 V2000
    0.9716   -0.5092   -1.0120 C   0  0  0  0  0  0  0  0  0  0  0  0
    0.9655    0.2373    0.3117 C   0  0  2  0  0  0  0  0  0  0  0  0
    1.9933    1.4040    0.4524 C   0  0  2  0  0  0  0  0  0  0  0  0
    3.0168    0.4236    0.7500 O   0  0  0  0  0  0  0  0  0  0  0  0
    1.9445   -0.2992    1.4235 C   0  0  2  0  0  0  0  0  0  0  0  0
    2.2241   -1.7447    1.7147 C   0  0  0  0  0  0  0  0  0  0  0  0
    1.5952    0.6802    2.5896 C   0  0  1  0  0  0  0  0  0  0  0  0
    2.6186    1.6410    2.8565 O   0  0  0  0  0  0  0  0  0  0  0  0
    1.6372    1.9484    1.8647 C   0  0  1  0  0  0  0  0  0  0  0  0
    0.4398   -1.4632   -0.9274 H   0  0  0  0  0  0  0  0  0  0  0  0
    0.4707    0.0767   -1.7900 H   0  0  0  0  0  0  0  0  0  0  0  0
    1.9942   -0.7120   -1.3396 H   0  0  0  0  0  0  0  0  0  0  0  0
   -0.0552    0.4584    0.6463 H   0  0  0  0  0  0  0  0  0  0  0  0
    2.2468    2.0935   -0.3524 H   0  0  0  0  0  0  0  0  0  0  0  0
    3.1134   -1.8335    2.3466 H   0  0  0  0  0  0  0  0  0  0  0  0
    1.3804   -2.1962    2.2474 H   0  0  0  0  0  0  0  0  0  0  0  0
    2.3963   -2.3105    0.7952 H   0  0  0  0  0  0  0  0  0  0  0  0
    0.9227    0.4219    3.4006 H   0  0  0  0  0  0  0  0  0  0  0  0
    0.9985    2.8079    2.0348 H   0  0  0  0  0  0  0  0  0  0  0  0
  1 10  1  0  0  0  0
  1  2  1  0  0  0  0
  2  3  1  0  0  0  0
  2 13  1  1  0  0  0
  2  5  1  0  0  0  0
  3 14  1  6  0  0  0
  3  4  1  0  0  0  0
  3  9  1  0  0  0  0
  4  5  1  0  0  0  0
  5  6  1  1  0  0  0
  5  7  1  0  0  0  0
  6 16  1  0  0  0  0
  6 15  1  0  0  0  0
  7  8  1  0  0  0  0
  7 18  1  1  0  0  0
  9 19  1  1  0  0  0
  9  7  1  0  0  0  0
  9  8  1  0  0  0  0
 11  1  1  0  0  0  0
 12  1  1  0  0  0  0
 17  6  1  0  0  0  0
M TOR 0 0 1 2 3
M TOR 1 0 1 2 8
M TOR 2 0 1 2 13
M TOR 3 0 1 4 3
M TOR 4 0 1 4 5
M TOR 5 0 1 4 6
M TOR 6 1 2 3 4
M TOR 7 1 2 8 6
M TOR 8 1 2 8 7
M TOR 9 1 2 8 18
M TOR 10 1 4 5 14
M TOR 11 1 4 5 15
M TOR 12 1 4 5 16
M TOR 13 1 4 6 7
M TOR 14 1 4 6 8
M TOR 15 1 4 6 17
M TOR 16 2 1 0 9
M TOR 17 2 1 0 10
M TOR 18 2 1 0 11
M TOR 19 2 1 4 5
M TOR 20 2 1 4 6
M TOR 21 2 3 4 5
M TOR 22 2 3 4 6
M TOR 23 2 8 6 4
M TOR 24 2 8 6 7
M TOR 25 2 8 6 17
M TOR 26 3 2 1 12
M TOR 27 3 2 8 6
M TOR 28 3 2 8 7
M TOR 29 3 2 8 18
M TOR 30 3 4 1 12
M TOR 31 3 4 5 14
M TOR 32 3 4 5 15
M TOR 33 3 4 5 16
M TOR 34 3 4 6 7
M TOR 35 3 4 6 8
M TOR 36 3 4 6 17
M TOR 37 4 1 0 9
M TOR 38 4 1 0 10
M TOR 39 4 1 0 11
M TOR 40 4 1 2 8
M TOR 41 4 1 2 13
M TOR 42 4 3 2 8
M TOR 43 4 3 2 13
M TOR 44 4 6 7 8
M TOR 45 4 6 8 18
M TOR 46 5 4 1 12
M TOR 47 5 4 6 7
M TOR 48 5 4 6 8
M TOR 49 5 4 6 17
M TOR 50 6 4 1 12
M TOR 51 6 4 5 14
M TOR 52 6 4 5 15
M TOR 53 6 4 5 16
M TOR 54 6 7 8 18
M TOR 55 6 8 2 13
M TOR 56 7 8 2 13
M TOR 57 7 8 6 17
M TOR 58 8 2 1 12
M  END
$$$$
