gdb 3861	3.097051	1.1804155	1.0190179	2.2937	76.94	-0.24863	-0.02656	0.22207	1247.3193	0.154222	-422.543842	-422.534532	-422.533588	-422.578228	33.876
 OpenBabel02181911413D

 19 20  0  0  1  0  0  0  0  0999 V2000
    2.1142    0.2411   -1.7454 C   0  0  0  0  0  0  0  0  0  0  0  0
    1.4215    0.1532   -0.3919 C   0  0  1  0  0  0  0  0  0  0  0  0
    2.0348   -0.9071    0.5937 C   0  0  0  0  0  0  0  0  0  0  0  0
    2.4225    0.2363    1.5357 C   0  0  2  0  0  0  0  0  0  0  0  0
    1.2263    0.9662    1.8626 O   0  0  0  0  0  0  0  0  0  0  0  0
    1.8314    1.2473    0.6113 C   0  0  2  0  0  0  0  0  0  0  0  0
    3.6112    0.3388    2.4227 C   0  0  0  0  0  0  0  0  0  0  0  0
    3.6490    1.4992    3.3940 C   0  0  0  0  0  0  0  0  0  0  0  0
    4.4921   -0.4909    2.3439 O   0  0  0  0  0  0  0  0  0  0  0  0
    1.9259   -0.6608   -2.3361 H   0  0  0  0  0  0  0  0  0  0  0  0
    1.7545    1.1011   -2.3208 H   0  0  0  0  0  0  0  0  0  0  0  0
    3.1991    0.3438   -1.6304 H   0  0  0  0  0  0  0  0  0  0  0  0
    0.3361    0.0858   -0.5109 H   0  0  0  0  0  0  0  0  0  0  0  0
    1.3535   -1.6448    1.0220 H   0  0  0  0  0  0  0  0  0  0  0  0
    2.9112   -1.4075    0.1783 H   0  0  0  0  0  0  0  0  0  0  0  0
    2.1304    2.2733    0.4182 H   0  0  0  0  0  0  0  0  0  0  0  0
    2.8660    1.3718    4.1490 H   0  0  0  0  0  0  0  0  0  0  0  0
    4.6265    1.5345    3.8759 H   0  0  0  0  0  0  0  0  0  0  0  0
    3.4403    2.4474    2.8887 H   0  0  0  0  0  0  0  0  0  0  0  0
  1 12  1  0  0  0  0
  1  2  1  0  0  0  0
  2 13  1  6  0  0  0
  2  3  1  0  0  0  0
  2  6  1  0  0  0  0
  3 14  1  0  0  0  0
  3  4  1  0  0  0  0
  4  5  1  0  0  0  0
  4  7  1  1  0  0  0
  6 16  1  6  0  0  0
  6  4  1  0  0  0  0
  6  5  1  0  0  0  0
  7  8  1  0  0  0  0
  8 18  1  0  0  0  0
  8 17  1  0  0  0  0
  9  7  2  0  0  0  0
 10  1  1  0  0  0  0
 11  1  1  0  0  0  0
 15  3  1  0  0  0  0
 19  8  1  0  0  0  0
M TOR 0 0 1 2 3
M TOR 1 0 1 2 13
M TOR 2 0 1 2 14
M TOR 3 0 1 5 3
M TOR 4 0 1 5 4
M TOR 5 0 1 5 15
M TOR 6 1 2 3 4
M TOR 7 1 2 3 5
M TOR 8 1 2 3 6
M TOR 9 1 5 3 4
M TOR 10 1 5 3 6
M TOR 11 2 1 0 9
M TOR 12 2 1 0 10
M TOR 13 2 1 0 11
M TOR 14 2 1 5 4
M TOR 15 2 1 5 15
M TOR 16 2 3 4 5
M TOR 17 2 3 5 15
M TOR 18 2 3 6 7
M TOR 19 2 3 6 8
M TOR 20 3 2 1 12
M TOR 21 3 4 5 15
M TOR 22 3 5 1 12
M TOR 23 3 6 7 16
M TOR 24 3 6 7 17
M TOR 25 3 6 7 18
M TOR 26 4 3 2 13
M TOR 27 4 3 2 14
M TOR 28 4 3 6 7
M TOR 29 4 3 6 8
M TOR 30 4 5 1 12
M TOR 31 4 5 3 6
M TOR 32 5 1 0 9
M TOR 33 5 1 0 10
M TOR 34 5 1 0 11
M TOR 35 5 1 2 13
M TOR 36 5 1 2 14
M TOR 37 5 3 2 13
M TOR 38 5 3 2 14
M TOR 39 5 3 6 7
M TOR 40 5 3 6 8
M TOR 41 6 3 2 13
M TOR 42 6 3 2 14
M TOR 43 6 3 5 15
M TOR 44 8 6 7 16
M TOR 45 8 6 7 17
M TOR 46 8 6 7 18
M  END
$$$$
