
     RDKit          3D

 19 19  0  0  0  0  0  0  0  0999 V2000
    0.9767   -0.0172    0.8987 C   0  0  0  0  0  0  0  0  0  0  0  0
    0.8306    0.1635   -0.6185 C   0  0  0  0  0  0  0  0  0  0  0  0
    1.7107   -0.7812   -1.4167 C   0  0  0  0  0  0  0  0  0  0  0  0
    1.4183   -2.2713   -1.2906 C   0  0  0  0  0  0  0  0  0  0  0  0
    0.0529   -2.5811   -1.5243 O   0  0  0  0  0  0  0  0  0  0  0  0
    3.1094   -0.4748   -1.3932 O   0  0  0  0  0  0  0  0  0  0  0  0
    2.3955   -0.2657   -2.6290 C   0  0  0  0  0  0  0  0  0  0  0  0
    2.7529   -1.0891   -3.7520 C   0  0  0  0  0  0  0  0  0  0  0  0
    3.0469   -1.7459   -4.7151 C   0  0  0  0  0  0  0  0  0  0  0  0
    0.6435   -1.0063    1.2317 H   0  0  0  0  0  0  0  0  0  0  0  0
    2.0215    0.1010    1.2004 H   0  0  0  0  0  0  0  0  0  0  0  0
    0.3806    0.7259    1.4356 H   0  0  0  0  0  0  0  0  0  0  0  0
   -0.2102    0.0110   -0.9268 H   0  0  0  0  0  0  0  0  0  0  0  0
    1.0920    1.1922   -0.8864 H   0  0  0  0  0  0  0  0  0  0  0  0
    2.0000   -2.8151   -2.0379 H   0  0  0  0  0  0  0  0  0  0  0  0
    1.7509   -2.6152   -0.3009 H   0  0  0  0  0  0  0  0  0  0  0  0
   -0.4425   -2.3899   -0.7228 H   0  0  0  0  0  0  0  0  0  0  0  0
    2.2446    0.7864   -2.8718 H   0  0  0  0  0  0  0  0  0  0  0  0
    3.3056   -2.3328   -5.5618 H   0  0  0  0  0  0  0  0  0  0  0  0
  1  2  1  0
  2  3  1  0
  3  4  1  0
  4  5  1  0
  3  6  1  0
  6  7  1  0
  7  8  1  0
  8  9  3  0
  7  3  1  0
  1 10  1  0
  1 11  1  0
  1 12  1  0
  2 13  1  0
  2 14  1  0
  4 15  1  0
  4 16  1  0
  5 17  1  0
  7 18  1  0
  9 19  1  0
M  END
$$$$
