gdb 4546	2.2558022	1.4587628	1.2500368	2.062	77.05	-0.23796	-0.02674	0.21122000000000002	1107.2174	0.156919	-422.585527	-422.576763	-422.575819	-422.619083	32.577
 OpenBabel02181911413D

 19 19  0  0  1  0  0  0  0  0999 V2000
   -0.6794   -1.8988   -2.3681 O   0  0  0  0  0  0  0  0  0  0  0  0
    0.3684   -1.0259   -1.9529 C   0  0  1  0  0  0  0  0  0  0  0  0
    0.4060    0.1252   -2.9568 C   0  0  0  0  0  0  0  0  0  0  0  0
   -0.9072    0.9195   -2.9471 C   0  0  0  0  0  0  0  0  0  0  0  0
   -1.3695    1.2310   -1.5511 C   0  0  0  0  0  0  0  0  0  0  0  0
   -0.9194    0.6002   -0.4675 C   0  0  0  0  0  0  0  0  0  0  0  0
    0.1201   -0.5001   -0.5248 C   0  0  2  0  0  0  0  0  0  0  0  0
    1.3879   -0.0059    0.1594 C   0  0  0  0  0  0  0  0  0  0  0  0
    2.4798    0.0364   -0.3477 O   0  0  0  0  0  0  0  0  0  0  0  0
   -0.6731   -2.6735   -1.7976 H   0  0  0  0  0  0  0  0  0  0  0  0
    1.3344   -1.5469   -1.9677 H   0  0  0  0  0  0  0  0  0  0  0  0
    1.2457    0.7751   -2.6911 H   0  0  0  0  0  0  0  0  0  0  0  0
    0.6017   -0.2777   -3.9547 H   0  0  0  0  0  0  0  0  0  0  0  0
   -0.7902    1.8486   -3.5174 H   0  0  0  0  0  0  0  0  0  0  0  0
   -1.6915    0.3471   -3.4602 H   0  0  0  0  0  0  0  0  0  0  0  0
   -2.1339    1.9965   -1.4390 H   0  0  0  0  0  0  0  0  0  0  0  0
   -1.2940    0.8672    0.5177 H   0  0  0  0  0  0  0  0  0  0  0  0
   -0.2359   -1.3356    0.1031 H   0  0  0  0  0  0  0  0  0  0  0  0
    1.2309    0.3418    1.2065 H   0  0  0  0  0  0  0  0  0  0  0  0
  1  2  1  0  0  0  0
  1 10  1  0  0  0  0
  2 11  1  6  0  0  0
  2  7  1  0  0  0  0
  3  4  1  0  0  0  0
  3 12  1  0  0  0  0
  3  2  1  0  0  0  0
  4  5  1  0  0  0  0
  5 16  1  0  0  0  0
  5  6  2  0  0  0  0
  6 17  1  0  0  0  0
  7  6  1  0  0  0  0
  7 18  1  1  0  0  0
  7  8  1  0  0  0  0
  8 19  1  0  0  0  0
  9  8  2  0  0  0  0
 13  3  1  0  0  0  0
 14  4  1  0  0  0  0
 15  4  1  0  0  0  0
M TOR 0 0 1 2 3
M TOR 1 0 1 2 11
M TOR 2 0 1 2 12
M TOR 3 0 1 6 5
M TOR 4 0 1 6 7
M TOR 5 0 1 6 17
M TOR 6 1 2 3 4
M TOR 7 1 2 3 13
M TOR 8 1 2 3 14
M TOR 9 1 6 5 4
M TOR 10 1 6 5 16
M TOR 11 1 6 7 8
M TOR 12 1 6 7 18
M TOR 13 2 1 0 9
M TOR 14 2 1 6 5
M TOR 15 2 1 6 7
M TOR 16 2 1 6 17
M TOR 17 2 3 4 5
M TOR 18 2 3 4 15
M TOR 19 3 2 1 6
M TOR 20 3 2 1 10
M TOR 21 3 4 5 6
M TOR 22 3 4 5 16
M TOR 23 4 3 2 11
M TOR 24 4 3 2 12
M TOR 25 4 5 6 7
M TOR 26 4 5 6 17
M TOR 27 5 4 3 13
M TOR 28 5 4 3 14
M TOR 29 5 6 1 10
M TOR 30 5 6 7 8
M TOR 31 5 6 7 18
M TOR 32 6 1 0 9
M TOR 33 6 1 2 11
M TOR 34 6 1 2 12
M TOR 35 6 5 4 15
M TOR 36 7 6 1 10
M TOR 37 7 6 5 16
M TOR 38 8 7 6 17
M  END
$$$$
