gdb 1329	1.9031851	1.454341	1.4225035	3.8869	76.47	-0.2486	-0.02102	0.22757999999999998	1111.5232	0.153634	-422.568365	-422.558584	-422.55764	-422.603216	34.76
 OpenBabel02181911403D

 19 19  0  0  1  0  0  0  0  0999 V2000
    1.7655    0.4316   -0.0336 C   0  0  0  0  0  0  0  0  0  0  0  0
    0.4805   -0.3446   -0.3668 C   0  0  2  0  0  0  0  0  0  0  0  0
   -0.6865    0.5986   -0.6478 C   0  0  0  0  0  0  0  0  0  0  0  0
   -1.8409    0.3562   -0.4140 O   0  0  0  0  0  0  0  0  0  0  0  0
    0.1067   -1.4016    0.6572 C   0  0  0  0  0  0  0  0  0  0  0  0
   -0.6563   -2.6413    0.2108 C   0  0  0  0  0  0  0  0  0  0  0  0
    0.7743   -2.7759    0.6016 C   0  0  0  0  0  0  0  0  0  0  0  0
   -0.2310   -0.9230    2.0213 C   0  0  0  0  0  0  0  0  0  0  0  0
   -0.2087    0.2286    2.3816 O   0  0  0  0  0  0  0  0  0  0  0  0
    1.6613    0.9643    0.9128 H   0  0  0  0  0  0  0  0  0  0  0  0
    2.6164   -0.2511    0.0422 H   0  0  0  0  0  0  0  0  0  0  0  0
    1.9909    1.1596   -0.8197 H   0  0  0  0  0  0  0  0  0  0  0  0
    0.6441   -0.8546   -1.3305 H   0  0  0  0  0  0  0  0  0  0  0  0
   -0.3873    1.5516   -1.1429 H   0  0  0  0  0  0  0  0  0  0  0  0
   -1.4168   -3.0308    0.8789 H   0  0  0  0  0  0  0  0  0  0  0  0
   -0.9235   -2.6835   -0.8384 H   0  0  0  0  0  0  0  0  0  0  0  0
    1.0113   -3.2600    1.5432 H   0  0  0  0  0  0  0  0  0  0  0  0
    1.5215   -2.9149   -0.1717 H   0  0  0  0  0  0  0  0  0  0  0  0
   -0.5167   -1.7387    2.7265 H   0  0  0  0  0  0  0  0  0  0  0  0
  1 11  1  0  0  0  0
  1 10  1  0  0  0  0
  2 13  1  6  0  0  0
  2  1  1  0  0  0  0
  2  5  1  0  0  0  0
  3  4  2  0  0  0  0
  3  2  1  0  0  0  0
  5  8  1  0  0  0  0
  6  7  1  0  0  0  0
  6  5  1  0  0  0  0
  6 15  1  0  0  0  0
  7  5  1  0  0  0  0
  7 17  1  0  0  0  0
  8  9  2  0  0  0  0
  8 19  1  0  0  0  0
 12  1  1  0  0  0  0
 14  3  1  0  0  0  0
 16  6  1  0  0  0  0
 18  7  1  0  0  0  0
M TOR 0 0 1 2 3
M TOR 1 0 1 2 13
M TOR 2 0 1 4 5
M TOR 3 0 1 4 6
M TOR 4 0 1 4 7
M TOR 5 1 4 5 6
M TOR 6 1 4 5 14
M TOR 7 1 4 5 15
M TOR 8 1 4 6 16
M TOR 9 1 4 6 17
M TOR 10 1 4 7 8
M TOR 11 1 4 7 18
M TOR 12 2 1 0 9
M TOR 13 2 1 0 10
M TOR 14 2 1 0 11
M TOR 15 2 1 4 5
M TOR 16 2 1 4 6
M TOR 17 2 1 4 7
M TOR 18 3 2 1 4
M TOR 19 3 2 1 12
M TOR 20 4 1 0 9
M TOR 21 4 1 0 10
M TOR 22 4 1 0 11
M TOR 23 4 1 2 13
M TOR 24 4 5 6 16
M TOR 25 4 5 6 17
M TOR 26 4 6 5 14
M TOR 27 4 6 5 15
M TOR 28 5 4 1 12
M TOR 29 5 4 7 8
M TOR 30 5 4 7 18
M TOR 31 5 6 4 7
M TOR 32 6 4 1 12
M TOR 33 6 4 7 8
M TOR 34 6 4 7 18
M TOR 35 7 4 1 12
M TOR 36 7 4 5 14
M TOR 37 7 4 5 15
M TOR 38 7 4 6 16
M TOR 39 7 4 6 17
M  END
$$$$
