
     RDKit          3D

 19 19  0  0  0  0  0  0  0  0999 V2000
    0.5421   -3.8523   -2.2883 O   0  0  0  0  0  0  0  0  0  0  0  0
   -0.8528   -3.7342   -2.0374 C   0  0  0  0  0  0  0  0  0  0  0  0
   -1.1803   -2.7270   -1.0286 C   0  0  0  0  0  0  0  0  0  0  0  0
   -1.4153   -1.9183   -0.1665 C   0  0  0  0  0  0  0  0  0  0  0  0
   -1.6851   -0.9052    0.8516 C   0  0  0  0  0  0  0  0  0  0  0  0
   -0.8260    0.3397    0.6873 C   0  0  0  0  0  0  0  0  0  0  0  0
   -1.2812    1.6716    1.2492 C   0  0  0  0  0  0  0  0  0  0  0  0
   -1.2551    1.4512   -0.2332 C   0  0  0  0  0  0  0  0  0  0  0  0
   -0.2943    2.1683   -0.9489 O   0  0  0  0  0  0  0  0  0  0  0  0
    0.9758   -3.9740   -1.4373 H   0  0  0  0  0  0  0  0  0  0  0  0
   -1.3040   -3.4687   -3.0001 H   0  0  0  0  0  0  0  0  0  0  0  0
   -1.2887   -4.7021   -1.7416 H   0  0  0  0  0  0  0  0  0  0  0  0
   -2.7455   -0.6226    0.8084 H   0  0  0  0  0  0  0  0  0  0  0  0
   -1.5338   -1.3334    1.8517 H   0  0  0  0  0  0  0  0  0  0  0  0
    0.2448    0.1616    0.7175 H   0  0  0  0  0  0  0  0  0  0  0  0
   -2.2444    1.7280    1.7459 H   0  0  0  0  0  0  0  0  0  0  0  0
   -0.5187    2.3265    1.6546 H   0  0  0  0  0  0  0  0  0  0  0  0
   -2.2154    1.3332   -0.7375 H   0  0  0  0  0  0  0  0  0  0  0  0
    0.0048    1.6126   -1.6767 H   0  0  0  0  0  0  0  0  0  0  0  0
  1  2  1  0
  2  3  1  0
  3  4  3  0
  4  5  1  0
  5  6  1  0
  6  7  1  0
  7  8  1  0
  8  9  1  0
  8  6  1  0
  1 10  1  0
  2 11  1  0
  2 12  1  0
  5 13  1  0
  5 14  1  0
  6 15  1  0
  7 16  1  0
  7 17  1  0
  8 18  1  0
  9 19  1  0
M  END
$$$$
