
     RDKit          3D

 19 21  0  0  0  0  0  0  0  0999 V2000
   -0.2480    0.1921   -0.0309 C   0  0  0  0  0  0  0  0  0  0  0  0
    1.2721    0.1229   -0.0205 C   0  0  0  0  0  0  0  0  0  0  0  0
    1.9784   -0.8492    0.9628 C   0  0  0  0  0  0  0  0  0  0  0  0
    1.7551   -2.0870    0.0461 C   0  0  0  0  0  0  0  0  0  0  0  0
    3.1548   -2.4936    0.0401 O   0  0  0  0  0  0  0  0  0  0  0  0
    3.2170   -1.0267    0.0255 C   0  0  0  0  0  0  0  0  0  0  0  0
    4.5497   -0.3521    0.0224 C   0  0  0  0  0  0  0  0  0  0  0  0
    1.9761   -0.8830   -0.9418 C   0  0  0  0  0  0  0  0  0  0  0  0
    1.9431   -0.8590   -2.3142 O   0  0  0  0  0  0  0  0  0  0  0  0
   -0.6227    0.7533    0.8316 H   0  0  0  0  0  0  0  0  0  0  0  0
   -0.6089    0.6922   -0.9355 H   0  0  0  0  0  0  0  0  0  0  0  0
   -0.6978   -0.8060   -0.0009 H   0  0  0  0  0  0  0  0  0  0  0  0
    1.7120    1.1269   -0.0438 H   0  0  0  0  0  0  0  0  0  0  0  0
    1.9909   -0.8490    2.0506 H   0  0  0  0  0  0  0  0  0  0  0  0
    0.9909   -2.8617    0.0817 H   0  0  0  0  0  0  0  0  0  0  0  0
    5.1344   -0.6430    0.9005 H   0  0  0  0  0  0  0  0  0  0  0  0
    5.1164   -0.6227   -0.8743 H   0  0  0  0  0  0  0  0  0  0  0  0
    4.4243    0.7351    0.0333 H   0  0  0  0  0  0  0  0  0  0  0  0
    2.4433   -1.6206   -2.6341 H   0  0  0  0  0  0  0  0  0  0  0  0
  1  2  1  0
  2  3  1  0
  3  4  1  0
  4  5  1  0
  5  6  1  0
  6  7  1  0
  6  8  1  0
  8  9  1  0
  8  2  1  0
  6  3  1  0
  8  4  1  0
  1 10  1  0
  1 11  1  0
  1 12  1  0
  2 13  1  0
  3 14  1  0
  4 15  1  0
  7 16  1  0
  7 17  1  0
  7 18  1  0
  9 19  1  0
M  END
$$$$
