gdb 530	2.7192918	1.8893762	1.3995254	2.2148	74.91	-0.23891	0.06177	0.30068	964.374	0.159203	-422.48948	-422.482539	-422.481595	-422.520465	28.381
 OpenBabel02181911403D

 19 21  0  0  1  0  0  0  0  0999 V2000
    0.7145    1.0815    1.2511 C   0  0  0  0  0  0  0  0  0  0  0  0
   -0.1133    1.7062    0.0500 C   0  0  0  0  0  0  0  0  0  0  0  0
    0.1185    0.3390   -0.6620 C   0  0  1  0  0  0  0  0  0  0  0  0
   -0.9589   -0.7415   -0.3873 C   0  0  0  0  0  0  0  0  0  0  0  0
   -0.7086   -1.3846   -1.6536 O   0  0  0  0  0  0  0  0  0  0  0  0
    0.4203   -0.5365   -1.9095 C   0  0  2  0  0  0  0  0  0  0  0  0
    1.7407   -1.2426   -1.4364 C   0  0  0  0  0  0  0  0  0  0  0  0
    1.8584   -1.0794    0.0004 O   0  0  0  0  0  0  0  0  0  0  0  0
    1.3848    0.2429    0.1342 C   0  0  2  0  0  0  0  0  0  0  0  0
    1.3473    1.7413    1.8464 H   0  0  0  0  0  0  0  0  0  0  0  0
    0.0659    0.4968    1.9066 H   0  0  0  0  0  0  0  0  0  0  0  0
   -1.1521    1.9763    0.2461 H   0  0  0  0  0  0  0  0  0  0  0  0
    0.4070    2.5520   -0.4043 H   0  0  0  0  0  0  0  0  0  0  0  0
   -0.7795   -1.4130    0.4608 H   0  0  0  0  0  0  0  0  0  0  0  0
   -1.9825   -0.3488   -0.3394 H   0  0  0  0  0  0  0  0  0  0  0  0
    0.4659   -0.1858   -2.9441 H   0  0  0  0  0  0  0  0  0  0  0  0
    1.7196   -2.3110   -1.6573 H   0  0  0  0  0  0  0  0  0  0  0  0
    2.6089   -0.7781   -1.9291 H   0  0  0  0  0  0  0  0  0  0  0  0
    2.1234    0.9218   -0.3319 H   0  0  0  0  0  0  0  0  0  0  0  0
  1 10  1  0  0  0  0
  1 11  1  0  0  0  0
  2 12  1  0  0  0  0
  2  1  1  0  0  0  0
  3  4  1  1  0  0  0
  3  2  1  0  0  0  0
  3  9  1  0  0  0  0
  4 15  1  0  0  0  0
  4 14  1  0  0  0  0
  5  4  1  0  0  0  0
  6 16  1  6  0  0  0
  6  5  1  0  0  0  0
  6  7  1  0  0  0  0
  6  3  1  0  0  0  0
  7  8  1  0  0  0  0
  8  9  1  0  0  0  0
  9 19  1  6  0  0  0
  9  1  1  0  0  0  0
 13  2  1  0  0  0  0
 17  7  1  0  0  0  0
 18  7  1  0  0  0  0
M TOR 0 0 1 2 3
M TOR 1 0 1 2 5
M TOR 2 0 1 2 8
M TOR 3 0 8 2 3
M TOR 4 0 8 2 5
M TOR 5 0 8 7 6
M TOR 6 1 0 8 7
M TOR 7 1 0 8 18
M TOR 8 1 2 3 4
M TOR 9 1 2 3 13
M TOR 10 1 2 3 14
M TOR 11 1 2 5 4
M TOR 12 1 2 5 6
M TOR 13 1 2 5 15
M TOR 14 1 2 8 7
M TOR 15 1 2 8 18
M TOR 16 2 1 0 9
M TOR 17 2 1 0 10
M TOR 18 2 3 4 5
M TOR 19 2 5 6 7
M TOR 20 2 5 6 16
M TOR 21 2 5 6 17
M TOR 22 2 8 0 9
M TOR 23 2 8 0 10
M TOR 24 2 8 7 6
M TOR 25 3 2 1 11
M TOR 26 3 2 1 12
M TOR 27 3 2 5 6
M TOR 28 3 2 5 15
M TOR 29 3 2 8 7
M TOR 30 3 2 8 18
M TOR 31 3 4 5 6
M TOR 32 3 4 5 15
M TOR 33 4 3 2 8
M TOR 34 4 5 2 8
M TOR 35 4 5 6 7
M TOR 36 4 5 6 16
M TOR 37 4 5 6 17
M TOR 38 5 2 1 11
M TOR 39 5 2 1 12
M TOR 40 5 2 3 13
M TOR 41 5 2 3 14
M TOR 42 5 2 8 7
M TOR 43 5 2 8 18
M TOR 44 5 4 3 13
M TOR 45 5 4 3 14
M TOR 46 5 6 7 8
M TOR 47 6 5 2 8
M TOR 48 6 7 8 18
M TOR 49 7 6 5 15
M TOR 50 7 8 0 9
M TOR 51 7 8 0 10
M TOR 52 8 0 1 11
M TOR 53 8 0 1 12
M TOR 54 8 2 1 11
M TOR 55 8 2 1 12
M TOR 56 8 2 3 13
M TOR 57 8 2 3 14
M TOR 58 8 2 5 15
M TOR 59 8 7 6 16
M TOR 60 8 7 6 17
M  END
$$$$
