gdb 2390	2.6536162	1.4402412	1.2369031	1.9211	74.25	-0.23962	-0.02017	0.21945	1080.9339	0.156789	-422.58513	-422.576884	-422.57594	-422.618217	32.017
 OpenBabel02181911413D

 19 20  0  0  1  0  0  0  0  0999 V2000
   -3.0453   -1.3839    0.9994 O   0  0  0  0  0  0  0  0  0  0  0  0
   -2.2734   -0.7608   -0.0014 C   0  0  1  0  0  0  0  0  0  0  0  0
   -3.0052   -0.7683   -1.3612 C   0  0  0  0  0  0  0  0  0  0  0  0
   -2.6480    0.7304   -1.5547 C   0  0  0  0  0  0  0  0  0  0  0  0
   -2.2259    0.8208   -0.0580 C   0  0  2  0  0  0  0  0  0  0  0  0
   -0.7983    1.2716    0.2229 C   0  0  0  0  0  0  0  0  0  0  0  0
    0.0630    0.0576   -0.1501 C   0  0  0  0  0  0  0  0  0  0  0  0
    1.2192    0.0848   -0.4803 O   0  0  0  0  0  0  0  0  0  0  0  0
   -0.7997   -1.2083   -0.0312 C   0  0  0  0  0  0  0  0  0  0  0  0
   -2.5749   -1.3263    1.8381 H   0  0  0  0  0  0  0  0  0  0  0  0
   -2.6531   -1.4783   -2.1138 H   0  0  0  0  0  0  0  0  0  0  0  0
   -4.0743   -0.9225   -1.2000 H   0  0  0  0  0  0  0  0  0  0  0  0
   -1.8048    0.8862   -2.2349 H   0  0  0  0  0  0  0  0  0  0  0  0
   -3.4607    1.3875   -1.8689 H   0  0  0  0  0  0  0  0  0  0  0  0
   -2.9832    1.2895    0.5719 H   0  0  0  0  0  0  0  0  0  0  0  0
   -0.4712    2.1593   -0.3250 H   0  0  0  0  0  0  0  0  0  0  0  0
   -0.6405    1.4741    1.2919 H   0  0  0  0  0  0  0  0  0  0  0  0
   -0.5547   -1.9174   -0.8261 H   0  0  0  0  0  0  0  0  0  0  0  0
   -0.5342   -1.6999    0.9146 H   0  0  0  0  0  0  0  0  0  0  0  0
  1 10  1  0  0  0  0
  2  1  1  1  0  0  0
  3 12  1  0  0  0  0
  3  2  1  0  0  0  0
  4  3  1  0  0  0  0
  4  5  1  0  0  0  0
  5  2  1  0  0  0  0
  5  6  1  0  0  0  0
  5 15  1  1  0  0  0
  6 17  1  0  0  0  0
  7  9  1  0  0  0  0
  7  6  1  0  0  0  0
  8  7  2  0  0  0  0
  9  2  1  0  0  0  0
  9 19  1  0  0  0  0
 11  3  1  0  0  0  0
 13  4  1  0  0  0  0
 14  4  1  0  0  0  0
 16  6  1  0  0  0  0
 18  9  1  0  0  0  0
M TOR 0 0 1 2 3
M TOR 1 0 1 2 10
M TOR 2 0 1 2 11
M TOR 3 0 1 4 3
M TOR 4 0 1 4 5
M TOR 5 0 1 4 14
M TOR 6 0 1 8 6
M TOR 7 0 1 8 17
M TOR 8 0 1 8 18
M TOR 9 1 2 3 4
M TOR 10 1 2 3 12
M TOR 11 1 2 3 13
M TOR 12 1 4 3 12
M TOR 13 1 4 3 13
M TOR 14 1 4 5 6
M TOR 15 1 4 5 15
M TOR 16 1 4 5 16
M TOR 17 1 8 6 5
M TOR 18 1 8 6 7
M TOR 19 2 1 0 9
M TOR 20 2 1 4 5
M TOR 21 2 1 4 14
M TOR 22 2 1 8 6
M TOR 23 2 1 8 17
M TOR 24 2 1 8 18
M TOR 25 2 3 4 5
M TOR 26 2 3 4 14
M TOR 27 3 2 1 8
M TOR 28 3 4 1 8
M TOR 29 3 4 5 6
M TOR 30 3 4 5 15
M TOR 31 3 4 5 16
M TOR 32 4 1 0 9
M TOR 33 4 1 2 10
M TOR 34 4 1 2 11
M TOR 35 4 1 8 6
M TOR 36 4 1 8 17
M TOR 37 4 1 8 18
M TOR 38 4 3 2 10
M TOR 39 4 3 2 11
M TOR 40 4 5 6 7
M TOR 41 4 5 6 8
M TOR 42 5 4 1 8
M TOR 43 5 4 3 12
M TOR 44 5 4 3 13
M TOR 45 5 6 8 17
M TOR 46 5 6 8 18
M TOR 47 6 5 4 14
M TOR 48 7 6 5 15
M TOR 49 7 6 5 16
M TOR 50 7 6 8 17
M TOR 51 7 6 8 18
M TOR 52 8 1 0 9
M TOR 53 8 1 2 10
M TOR 54 8 1 2 11
M TOR 55 8 1 4 14
M TOR 56 8 6 5 15
M TOR 57 8 6 5 16
M  END
$$$$
