gdb 4721	2.4224971	1.1568274	0.833261	2.2954	77.3	-0.24738	0.04767	0.29505	1377.3358	0.155073	-422.499301	-422.489453	-422.488509	-422.534771	34.868
 OpenBabel02181911413D

 19 19  0  0  1  0  0  0  0  0999 V2000
    2.5368    2.1339   -1.2618 O   0  0  0  0  0  0  0  0  0  0  0  0
    3.0165    1.4536   -0.1201 C   0  0  0  0  0  0  0  0  0  0  0  0
    2.4187    0.0370    0.0422 C   0  0  2  0  0  0  0  0  0  0  0  0
    0.9690    0.0616    0.2029 C   0  0  0  0  0  0  0  0  0  0  0  0
   -0.2192    0.0681    0.3852 C   0  0  0  0  0  0  0  0  0  0  0  0
    3.0710   -0.6834    1.2314 C   0  0  1  0  0  0  0  0  0  0  0  0
    2.8413   -2.2026    1.3716 C   0  0  0  0  0  0  0  0  0  0  0  0
    4.3749   -2.3005    1.2417 C   0  0  0  0  0  0  0  0  0  0  0  0
    4.4899   -0.8759    1.0266 O   0  0  0  0  0  0  0  0  0  0  0  0
    2.8738    1.6822   -2.0420 H   0  0  0  0  0  0  0  0  0  0  0  0
    4.1109    1.3614   -0.1232 H   0  0  0  0  0  0  0  0  0  0  0  0
    2.7292    2.0667    0.7400 H   0  0  0  0  0  0  0  0  0  0  0  0
    2.6737   -0.5387   -0.8604 H   0  0  0  0  0  0  0  0  0  0  0  0
   -1.2717    0.0850    0.5244 H   0  0  0  0  0  0  0  0  0  0  0  0
    2.8802   -0.1122    2.1503 H   0  0  0  0  0  0  0  0  0  0  0  0
    2.4154   -2.5357    2.3181 H   0  0  0  0  0  0  0  0  0  0  0  0
    2.2770   -2.6458    0.5493 H   0  0  0  0  0  0  0  0  0  0  0  0
    4.9017   -2.6150    2.1508 H   0  0  0  0  0  0  0  0  0  0  0  0
    4.7610   -2.8750    0.3920 H   0  0  0  0  0  0  0  0  0  0  0  0
  1  2  1  0  0  0  0
  2  3  1  0  0  0  0
  2 12  1  0  0  0  0
  3 13  1  6  0  0  0
  3  4  1  0  0  0  0
  3  6  1  0  0  0  0
  4  5  3  0  0  0  0
  5 14  1  0  0  0  0
  6  7  1  0  0  0  0
  6 15  1  1  0  0  0
  7 16  1  0  0  0  0
  8  7  1  0  0  0  0
  8 18  1  0  0  0  0
  9  6  1  0  0  0  0
  9  8  1  0  0  0  0
 10  1  1  0  0  0  0
 11  2  1  0  0  0  0
 17  7  1  0  0  0  0
 19  8  1  0  0  0  0
M TOR 0 0 1 2 3
M TOR 1 0 1 2 5
M TOR 2 0 1 2 12
M TOR 3 1 2 3 4
M TOR 4 1 2 5 6
M TOR 5 1 2 5 8
M TOR 6 1 2 5 14
M TOR 7 2 1 0 9
M TOR 8 2 3 4 13
M TOR 9 2 5 6 7
M TOR 10 2 5 6 15
M TOR 11 2 5 6 16
M TOR 12 2 5 8 7
M TOR 13 3 2 1 10
M TOR 14 3 2 1 11
M TOR 15 3 2 5 6
M TOR 16 3 2 5 8
M TOR 17 3 2 5 14
M TOR 18 4 3 2 5
M TOR 19 4 3 2 12
M TOR 20 5 2 1 10
M TOR 21 5 2 1 11
M TOR 22 5 6 7 8
M TOR 23 5 6 7 17
M TOR 24 5 6 7 18
M TOR 25 5 8 7 17
M TOR 26 5 8 7 18
M TOR 27 6 5 2 12
M TOR 28 7 6 5 14
M TOR 29 7 8 5 14
M TOR 30 8 5 2 12
M TOR 31 8 5 6 15
M TOR 32 8 5 6 16
M TOR 33 8 7 6 15
M TOR 34 8 7 6 16
M  END
$$$$
