gdb 5599	3.0188109	1.3447873	1.2915617	0.5495	74.44	-0.23881	0.00483	0.24364	1069.1661	0.158979	-422.553478	-422.5458	-422.544856	-422.58556	30.271
 OpenBabel02181911423D

 19 20  0  0  1  0  0  0  0  0999 V2000
    1.5860    0.6898    0.0907 O   0  0  0  0  0  0  0  0  0  0  0  0
    0.5553   -0.1716    0.5603 C   0  0  0  0  0  0  0  0  0  0  0  0
   -0.3601    0.5228    1.5604 C   0  0  1  0  0  0  0  0  0  0  0  0
   -1.1770    1.7383    1.0290 C   0  0  2  0  0  0  0  0  0  0  0  0
   -1.9428    2.0752    2.3448 C   0  0  0  0  0  0  0  0  0  0  0  0
   -2.2197    0.7921    2.9229 O   0  0  0  0  0  0  0  0  0  0  0  0
   -1.6562   -0.1880    2.0005 C   0  0  1  0  0  0  0  0  0  0  0  0
   -2.4951   -0.1299    0.7328 C   0  0  0  0  0  0  0  0  0  0  0  0
   -2.2021    1.0392    0.1517 C   0  0  0  0  0  0  0  0  0  0  0  0
    2.1420    0.9210    0.8417 H   0  0  0  0  0  0  0  0  0  0  0  0
   -0.0018   -0.4779   -0.3279 H   0  0  0  0  0  0  0  0  0  0  0  0
    0.9777   -1.0817    1.0155 H   0  0  0  0  0  0  0  0  0  0  0  0
    0.2255    0.7937    2.4491 H   0  0  0  0  0  0  0  0  0  0  0  0
   -0.6193    2.5635    0.5904 H   0  0  0  0  0  0  0  0  0  0  0  0
   -1.3222    2.6599    3.0356 H   0  0  0  0  0  0  0  0  0  0  0  0
   -2.8776    2.6171    2.1620 H   0  0  0  0  0  0  0  0  0  0  0  0
   -1.5857   -1.1378    2.5285 H   0  0  0  0  0  0  0  0  0  0  0  0
   -3.2605   -0.8423    0.4546 H   0  0  0  0  0  0  0  0  0  0  0  0
   -2.6748    1.4852   -0.7143 H   0  0  0  0  0  0  0  0  0  0  0  0
  1  2  1  0  0  0  0
  1 10  1  0  0  0  0
  2 12  1  0  0  0  0
  2  3  1  0  0  0  0
  3  7  1  0  0  0  0
  3 13  1  1  0  0  0
  4 14  1  6  0  0  0
  4  3  1  0  0  0  0
  4  5  1  0  0  0  0
  5  6  1  0  0  0  0
  5 15  1  0  0  0  0
  7 17  1  1  0  0  0
  7  6  1  0  0  0  0
  8  7  1  0  0  0  0
  9  8  2  0  0  0  0
  9  4  1  0  0  0  0
 11  2  1  0  0  0  0
 16  5  1  0  0  0  0
 18  8  1  0  0  0  0
 19  9  1  0  0  0  0
M TOR 0 0 1 2 3
M TOR 1 0 1 2 6
M TOR 2 0 1 2 12
M TOR 3 1 2 3 4
M TOR 4 1 2 3 8
M TOR 5 1 2 3 13
M TOR 6 1 2 6 5
M TOR 7 1 2 6 7
M TOR 8 1 2 6 16
M TOR 9 2 1 0 9
M TOR 10 2 3 4 5
M TOR 11 2 3 4 14
M TOR 12 2 3 4 15
M TOR 13 2 3 8 7
M TOR 14 2 3 8 18
M TOR 15 2 6 5 4
M TOR 16 2 6 7 8
M TOR 17 2 6 7 17
M TOR 18 3 2 1 10
M TOR 19 3 2 1 11
M TOR 20 3 2 6 5
M TOR 21 3 2 6 7
M TOR 22 3 2 6 16
M TOR 23 3 4 5 6
M TOR 24 3 8 7 6
M TOR 25 3 8 7 17
M TOR 26 4 3 2 6
M TOR 27 4 3 2 12
M TOR 28 4 3 8 7
M TOR 29 4 3 8 18
M TOR 30 4 5 6 7
M TOR 31 4 5 6 16
M TOR 32 5 4 3 8
M TOR 33 5 4 3 13
M TOR 34 5 6 2 12
M TOR 35 5 6 7 8
M TOR 36 5 6 7 17
M TOR 37 6 2 1 10
M TOR 38 6 2 1 11
M TOR 39 6 2 3 8
M TOR 40 6 2 3 13
M TOR 41 6 5 4 14
M TOR 42 6 5 4 15
M TOR 43 6 7 8 18
M TOR 44 7 6 2 12
M TOR 45 7 8 3 13
M TOR 46 8 3 2 12
M TOR 47 8 3 4 14
M TOR 48 8 3 4 15
M TOR 49 8 7 6 16
M  END
$$$$
