
     RDKit          3D

 19 21  0  0  0  0  0  0  0  0999 V2000
    0.0034   -0.0262   -0.1356 C   0  0  0  0  0  0  0  0  0  0  0  0
    1.4996   -0.0325    0.0317 C   0  0  0  0  0  0  0  0  0  0  0  0
    2.1626   -0.7423    1.2456 C   0  0  0  0  0  0  0  0  0  0  0  0
    3.0543    0.5064    1.4293 C   0  0  0  0  0  0  0  0  0  0  0  0
    2.4646    1.5219    2.2848 O   0  0  0  0  0  0  0  0  0  0  0  0
    2.1116    2.3576    1.1498 C   0  0  0  0  0  0  0  0  0  0  0  0
    2.4238    1.2136    0.2053 C   0  0  0  0  0  0  0  0  0  0  0  0
    2.8673    0.9665   -1.2211 C   0  0  0  0  0  0  0  0  0  0  0  0
    2.2003   -0.3221   -1.2174 O   0  0  0  0  0  0  0  0  0  0  0  0
   -0.4904    0.2857    0.7904 H   0  0  0  0  0  0  0  0  0  0  0  0
   -0.3018    0.6463   -0.9432 H   0  0  0  0  0  0  0  0  0  0  0  0
   -0.3487   -1.0339   -0.3839 H   0  0  0  0  0  0  0  0  0  0  0  0
    1.5085   -0.9354    2.0997 H   0  0  0  0  0  0  0  0  0  0  0  0
    2.6923   -1.6562    0.9655 H   0  0  0  0  0  0  0  0  0  0  0  0
    4.1285    0.3933    1.6051 H   0  0  0  0  0  0  0  0  0  0  0  0
    1.0750    2.7123    1.1971 H   0  0  0  0  0  0  0  0  0  0  0  0
    2.7841    3.2233    1.0671 H   0  0  0  0  0  0  0  0  0  0  0  0
    2.4287    1.6427   -1.9687 H   0  0  0  0  0  0  0  0  0  0  0  0
    3.9444    0.8802   -1.4072 H   0  0  0  0  0  0  0  0  0  0  0  0
  1  2  1  0
  2  3  1  0
  3  4  1  0
  4  5  1  0
  5  6  1  0
  6  7  1  0
  7  8  1  0
  8  9  1  0
  7  2  1  0
  9  2  1  0
  7  4  1  0
  1 10  1  0
  1 11  1  0
  1 12  1  0
  3 13  1  0
  3 14  1  0
  4 15  1  0
  6 16  1  0
  6 17  1  0
  8 18  1  0
  8 19  1  0
M  END
$$$$
