
     RDKit          3D

 19 19  0  0  0  0  0  0  0  0999 V2000
    1.2157   -0.6752   -0.9092 C   0  0  0  0  0  0  0  0  0  0  0  0
    1.0938    0.1596    0.3658 C   0  0  0  0  0  0  0  0  0  0  0  0
    1.8250   -0.4594    1.4370 O   0  0  0  0  0  0  0  0  0  0  0  0
    2.7947    0.4327    1.9934 C   0  0  0  0  0  0  0  0  0  0  0  0
    4.1925   -0.1857    1.9687 C   0  0  0  0  0  0  0  0  0  0  0  0
    2.3567    0.7518    3.4327 C   0  0  0  0  0  0  0  0  0  0  0  0
    3.1005    1.0617    4.3248 O   0  0  0  0  0  0  0  0  0  0  0  0
    2.6520    1.6937    1.1685 C   0  0  0  0  0  0  0  0  0  0  0  0
    1.6871    1.5403    0.2699 C   0  0  0  0  0  0  0  0  0  0  0  0
    0.8655   -1.6942   -0.7233 H   0  0  0  0  0  0  0  0  0  0  0  0
    0.6074   -0.2436   -1.7111 H   0  0  0  0  0  0  0  0  0  0  0  0
    2.2565   -0.7185   -1.2425 H   0  0  0  0  0  0  0  0  0  0  0  0
    0.0313    0.2073    0.6535 H   0  0  0  0  0  0  0  0  0  0  0  0
    4.1718   -1.1687    2.4471 H   0  0  0  0  0  0  0  0  0  0  0  0
    4.5386   -0.3015    0.9390 H   0  0  0  0  0  0  0  0  0  0  0  0
    4.8903    0.4485    2.5205 H   0  0  0  0  0  0  0  0  0  0  0  0
    1.2538    0.6861    3.5667 H   0  0  0  0  0  0  0  0  0  0  0  0
    3.2671    2.5678    1.3380 H   0  0  0  0  0  0  0  0  0  0  0  0
    1.3629    2.2690   -0.4627 H   0  0  0  0  0  0  0  0  0  0  0  0
  1  2  1  0
  2  3  1  0
  3  4  1  0
  4  5  1  0
  4  6  1  0
  6  7  2  0
  4  8  1  0
  8  9  2  0
  9  2  1  0
  1 10  1  0
  1 11  1  0
  1 12  1  0
  2 13  1  0
  5 14  1  0
  5 15  1  0
  5 16  1  0
  6 17  1  0
  8 18  1  0
  9 19  1  0
M  END
$$$$
