gdb 1082	1.9944491	1.5514379	1.1934455	1.3596	76.71	-0.25106	-0.05247	0.19859	1143.7797	0.153929	-422.574897	-422.564985	-422.564041	-422.611419	34.161
 OpenBabel02181911403D

 19 19  0  0  0  0  0  0  0  0999 V2000
    1.8001    0.4118    1.3958 C   0  0  0  0  0  0  0  0  0  0  0  0
    1.5778    0.0968   -0.0707 C   0  0  0  0  0  0  0  0  0  0  0  0
    2.1045   -0.8379   -0.6258 O   0  0  0  0  0  0  0  0  0  0  0  0
    0.6333    1.0399   -0.8286 C   0  0  0  0  0  0  0  0  0  0  0  0
    0.0151    0.4736   -2.1388 C   0  0  0  0  0  0  0  0  0  0  0  0
   -1.3824    0.9444   -1.6463 C   0  0  0  0  0  0  0  0  0  0  0  0
   -0.7938    1.2501   -0.2397 C   0  0  0  0  0  0  0  0  0  0  0  0
    1.3878    2.3344   -1.0781 C   0  0  0  0  0  0  0  0  0  0  0  0
    1.1824    3.3769   -0.5118 O   0  0  0  0  0  0  0  0  0  0  0  0
    2.6619   -0.1454    1.7650 H   0  0  0  0  0  0  0  0  0  0  0  0
    1.9380    1.4860    1.5526 H   0  0  0  0  0  0  0  0  0  0  0  0
    0.9162    0.1185    1.9734 H   0  0  0  0  0  0  0  0  0  0  0  0
    0.3801    0.9119   -3.0721 H   0  0  0  0  0  0  0  0  0  0  0  0
    0.1389   -0.6092   -2.1984 H   0  0  0  0  0  0  0  0  0  0  0  0
   -1.7324    1.8438   -2.1584 H   0  0  0  0  0  0  0  0  0  0  0  0
   -2.1771    0.1969   -1.6802 H   0  0  0  0  0  0  0  0  0  0  0  0
   -0.9706    2.2458    0.1703 H   0  0  0  0  0  0  0  0  0  0  0  0
   -1.0622    0.5017    0.5095 H   0  0  0  0  0  0  0  0  0  0  0  0
    2.1781    2.2430   -1.8567 H   0  0  0  0  0  0  0  0  0  0  0  0
  1 11  1  0  0  0  0
  1 10  1  0  0  0  0
  1 12  1  0  0  0  0
  2  1  1  0  0  0  0
  3  2  2  0  0  0  0
  4  7  1  0  0  0  0
  4  2  1  0  0  0  0
  5  6  1  0  0  0  0
  5  4  1  0  0  0  0
  6  7  1  0  0  0  0
  7 17  1  0  0  0  0
  7 18  1  0  0  0  0
  8  4  1  0  0  0  0
  8  9  2  0  0  0  0
 13  5  1  0  0  0  0
 14  5  1  0  0  0  0
 15  6  1  0  0  0  0
 16  6  1  0  0  0  0
 19  8  1  0  0  0  0
M TOR 0 0 1 3 4
M TOR 1 0 1 3 6
M TOR 2 0 1 3 7
M TOR 3 1 3 4 5
M TOR 4 1 3 4 12
M TOR 5 1 3 4 13
M TOR 6 1 3 6 5
M TOR 7 1 3 6 16
M TOR 8 1 3 6 17
M TOR 9 1 3 7 8
M TOR 10 1 3 7 18
M TOR 11 2 1 0 9
M TOR 12 2 1 0 10
M TOR 13 2 1 0 11
M TOR 14 2 1 3 4
M TOR 15 2 1 3 6
M TOR 16 2 1 3 7
M TOR 17 3 1 0 9
M TOR 18 3 1 0 10
M TOR 19 3 1 0 11
M TOR 20 3 4 5 6
M TOR 21 3 4 5 14
M TOR 22 3 4 5 15
M TOR 23 3 6 5 14
M TOR 24 3 6 5 15
M TOR 25 4 3 6 16
M TOR 26 4 3 6 17
M TOR 27 4 3 7 8
M TOR 28 4 3 7 18
M TOR 29 4 5 6 16
M TOR 30 4 5 6 17
M TOR 31 5 4 3 7
M TOR 32 5 6 3 7
M TOR 33 6 3 4 12
M TOR 34 6 3 4 13
M TOR 35 6 3 7 8
M TOR 36 6 3 7 18
M TOR 37 6 5 4 12
M TOR 38 6 5 4 13
M TOR 39 7 3 4 12
M TOR 40 7 3 4 13
M TOR 41 7 3 6 16
M TOR 42 7 3 6 17
M  END
$$$$
