
     RDKit          3D

 19 20  0  0  0  0  0  0  0  0999 V2000
    0.1986   -0.1372    0.9211 O   0  0  0  0  0  0  0  0  0  0  0  0
    0.4287   -0.1462   -0.2615 C   0  0  0  0  0  0  0  0  0  0  0  0
   -0.2832    0.7223   -1.2650 C   0  0  0  0  0  0  0  0  0  0  0  0
   -0.7322    2.1213   -0.8024 C   0  0  0  0  0  0  0  0  0  0  0  0
   -1.7585    2.5140   -1.9144 C   0  0  0  0  0  0  0  0  0  0  0  0
   -1.7267    1.2867   -2.8569 C   0  0  0  0  0  0  0  0  0  0  0  0
   -0.3377    1.2234   -3.5120 C   0  0  0  0  0  0  0  0  0  0  0  0
    0.5439    0.8637   -2.4273 O   0  0  0  0  0  0  0  0  0  0  0  0
   -1.5892    0.1274   -1.8480 C   0  0  0  0  0  0  0  0  0  0  0  0
    1.1809   -0.8279   -0.7155 H   0  0  0  0  0  0  0  0  0  0  0  0
   -1.1792    2.0723    0.1930 H   0  0  0  0  0  0  0  0  0  0  0  0
    0.1269    2.7941   -0.7585 H   0  0  0  0  0  0  0  0  0  0  0  0
   -2.7602    2.6576   -1.4996 H   0  0  0  0  0  0  0  0  0  0  0  0
   -1.4833    3.4366   -2.4329 H   0  0  0  0  0  0  0  0  0  0  0  0
   -2.5533    1.2236   -3.5660 H   0  0  0  0  0  0  0  0  0  0  0  0
   -0.2763    0.4587   -4.2970 H   0  0  0  0  0  0  0  0  0  0  0  0
   -0.0233    2.1838   -3.9374 H   0  0  0  0  0  0  0  0  0  0  0  0
   -2.3981    0.0761   -1.1162 H   0  0  0  0  0  0  0  0  0  0  0  0
   -1.4368   -0.8521   -2.3084 H   0  0  0  0  0  0  0  0  0  0  0  0
  1  2  2  0
  2  3  1  0
  3  4  1  0
  4  5  1  0
  5  6  1  0
  6  7  1  0
  7  8  1  0
  6  9  1  0
  8  3  1  0
  9  3  1  0
  2 10  1  0
  4 11  1  0
  4 12  1  0
  5 13  1  0
  5 14  1  0
  6 15  1  0
  7 16  1  0
  7 17  1  0
  9 18  1  0
  9 19  1  0
M  END
$$$$
