gdb 3418	2.2071661	1.7082946	1.4170449	2.1826	75.16	-0.2377	-0.01451	0.22319	1030.43	0.158093	-422.563138	-422.555161	-422.554217	-422.595358	30.649
 OpenBabel02181911413D

 19 20  0  0  1  0  0  0  0  0999 V2000
   -1.6585   -0.0181   -2.2907 C   0  0  0  0  0  0  0  0  0  0  0  0
   -1.8871   -0.0216   -0.7842 C   0  0  2  0  0  0  0  0  0  0  0  0
   -1.0934    1.0798   -0.0011 C   0  0  1  0  0  0  0  0  0  0  0  0
   -1.6898    1.1900    1.4281 C   0  0  0  0  0  0  0  0  0  0  0  0
   -2.2997   -0.0283    1.8207 O   0  0  0  0  0  0  0  0  0  0  0  0
   -1.6037   -1.2021    1.4355 C   0  0  0  0  0  0  0  0  0  0  0  0
   -1.0164   -1.0582    0.0056 C   0  0  2  0  0  0  0  0  0  0  0  0
    0.0369    0.0503    0.0832 C   0  0  0  0  0  0  0  0  0  0  0  0
    1.2329    0.0935    0.1252 O   0  0  0  0  0  0  0  0  0  0  0  0
   -2.0751   -0.9198   -2.7514 H   0  0  0  0  0  0  0  0  0  0  0  0
   -2.1386    0.8486   -2.7569 H   0  0  0  0  0  0  0  0  0  0  0  0
   -0.5919    0.0195   -2.5395 H   0  0  0  0  0  0  0  0  0  0  0  0
   -2.9514   -0.0592   -0.5421 H   0  0  0  0  0  0  0  0  0  0  0  0
   -0.9053    2.0606   -0.4426 H   0  0  0  0  0  0  0  0  0  0  0  0
   -0.9042    1.4935    2.1376 H   0  0  0  0  0  0  0  0  0  0  0  0
   -2.4832    1.9437    1.4556 H   0  0  0  0  0  0  0  0  0  0  0  0
   -0.7985   -1.4439    2.1468 H   0  0  0  0  0  0  0  0  0  0  0  0
   -2.3409   -2.0107    1.4680 H   0  0  0  0  0  0  0  0  0  0  0  0
   -0.7583   -2.0257   -0.4298 H   0  0  0  0  0  0  0  0  0  0  0  0
  1  2  1  0  0  0  0
  2 13  1  1  0  0  0
  2  3  1  0  0  0  0
  2  7  1  0  0  0  0
  3 14  1  6  0  0  0
  3  8  1  0  0  0  0
  3  4  1  0  0  0  0
  4 16  1  0  0  0  0
  4  5  1  0  0  0  0
  4 15  1  0  0  0  0
  6 18  1  0  0  0  0
  6  5  1  0  0  0  0
  6 17  1  0  0  0  0
  7 19  1  6  0  0  0
  7  8  1  0  0  0  0
  7  6  1  0  0  0  0
  8  9  2  0  0  0  0
 10  1  1  0  0  0  0
 11  1  1  0  0  0  0
 12  1  1  0  0  0  0
M TOR 0 0 1 2 3
M TOR 1 0 1 2 7
M TOR 2 0 1 2 13
M TOR 3 0 1 6 5
M TOR 4 0 1 6 7
M TOR 5 0 1 6 18
M TOR 6 1 2 3 4
M TOR 7 1 2 3 14
M TOR 8 1 2 3 15
M TOR 9 1 2 7 6
M TOR 10 1 2 7 8
M TOR 11 1 6 5 4
M TOR 12 1 6 5 16
M TOR 13 1 6 5 17
M TOR 14 1 6 7 8
M TOR 15 2 1 0 9
M TOR 16 2 1 0 10
M TOR 17 2 1 0 11
M TOR 18 2 1 6 5
M TOR 19 2 1 6 18
M TOR 20 2 3 4 5
M TOR 21 2 7 6 5
M TOR 22 2 7 6 18
M TOR 23 3 2 1 6
M TOR 24 3 2 1 12
M TOR 25 3 2 7 6
M TOR 26 3 2 7 8
M TOR 27 3 4 5 6
M TOR 28 3 4 5 16
M TOR 29 3 4 5 17
M TOR 30 4 3 2 7
M TOR 31 4 3 2 13
M TOR 32 4 5 6 7
M TOR 33 4 5 6 18
M TOR 34 5 4 3 14
M TOR 35 5 4 3 15
M TOR 36 5 6 1 12
M TOR 37 5 6 7 8
M TOR 38 6 1 0 9
M TOR 39 6 1 0 10
M TOR 40 6 1 0 11
M TOR 41 6 1 2 13
M TOR 42 6 7 2 13
M TOR 43 7 2 1 12
M TOR 44 7 2 3 14
M TOR 45 7 2 3 15
M TOR 46 7 6 1 12
M TOR 47 7 6 5 16
M TOR 48 7 6 5 17
M TOR 49 8 7 2 13
M TOR 50 8 7 6 18
M  END
$$$$
