
     RDKit          3D

 19 20  0  0  0  0  0  0  0  0999 V2000
   -2.9067   -1.4229    1.2312 C   0  0  0  0  0  0  0  0  0  0  0  0
   -1.9796   -0.5538    2.0349 C   0  0  0  0  0  0  0  0  0  0  0  0
   -1.9596    0.8708    1.6585 O   0  0  0  0  0  0  0  0  0  0  0  0
   -0.7407    0.8907    2.4707 C   0  0  0  0  0  0  0  0  0  0  0  0
   -1.2909    0.5422    3.8644 C   0  0  0  0  0  0  0  0  0  0  0  0
   -2.1347   -0.4475    3.5697 C   0  0  0  0  0  0  0  0  0  0  0  0
   -0.4074   -0.5268    1.9036 C   0  0  0  0  0  0  0  0  0  0  0  0
    0.1659   -0.5554    0.4956 C   0  0  0  0  0  0  0  0  0  0  0  0
    1.5137   -0.0992    0.4622 O   0  0  0  0  0  0  0  0  0  0  0  0
   -2.8456   -2.4621    1.5704 H   0  0  0  0  0  0  0  0  0  0  0  0
   -3.9403   -1.0841    1.3534 H   0  0  0  0  0  0  0  0  0  0  0  0
   -2.6609   -1.3907    0.1667 H   0  0  0  0  0  0  0  0  0  0  0  0
   -0.1055    1.7612    2.3185 H   0  0  0  0  0  0  0  0  0  0  0  0
   -1.0239    0.9926    4.8090 H   0  0  0  0  0  0  0  0  0  0  0  0
   -2.7736   -1.0524    4.1970 H   0  0  0  0  0  0  0  0  0  0  0  0
    0.1419   -1.1993    2.5722 H   0  0  0  0  0  0  0  0  0  0  0  0
    0.0795   -1.5703    0.0745 H   0  0  0  0  0  0  0  0  0  0  0  0
   -0.3992    0.1230   -0.1474 H   0  0  0  0  0  0  0  0  0  0  0  0
    2.0453   -0.7125    0.9799 H   0  0  0  0  0  0  0  0  0  0  0  0
  1  2  1  0
  2  3  1  0
  3  4  1  0
  4  5  1  0
  5  6  2  0
  4  7  1  0
  7  8  1  0
  8  9  1  0
  6  2  1  0
  7  2  1  0
  1 10  1  0
  1 11  1  0
  1 12  1  0
  4 13  1  0
  5 14  1  0
  6 15  1  0
  7 16  1  0
  8 17  1  0
  8 18  1  0
  9 19  1  0
M  END
$$$$
