
     RDKit          3D

 19 21  0  0  0  0  0  0  0  0999 V2000
    0.4350   -0.0337    0.4593 O   0  0  0  0  0  0  0  0  0  0  0  0
   -0.8478    0.4843    0.7464 C   0  0  0  0  0  0  0  0  0  0  0  0
   -1.2318    0.3871    2.2204 C   0  0  0  0  0  0  0  0  0  0  0  0
   -0.9360    1.8790    2.4242 C   0  0  0  0  0  0  0  0  0  0  0  0
   -0.9019    2.0458    0.8766 C   0  0  0  0  0  0  0  0  0  0  0  0
   -2.2825    2.5973    0.4861 C   0  0  0  0  0  0  0  0  0  0  0  0
   -3.2552    1.9093    1.4811 C   0  0  0  0  0  0  0  0  0  0  0  0
   -2.3348    1.3795    2.5836 C   0  0  0  0  0  0  0  0  0  0  0  0
   -2.8256    1.2929    3.8863 O   0  0  0  0  0  0  0  0  0  0  0  0
    1.0330    0.2778    1.1490 H   0  0  0  0  0  0  0  0  0  0  0  0
   -1.5131    0.0323    0.0019 H   0  0  0  0  0  0  0  0  0  0  0  0
   -1.0173   -0.4458    2.8824 H   0  0  0  0  0  0  0  0  0  0  0  0
   -0.3735    2.3915    3.1930 H   0  0  0  0  0  0  0  0  0  0  0  0
   -0.0499    2.5510    0.4206 H   0  0  0  0  0  0  0  0  0  0  0  0
   -2.3057    3.6832    0.6246 H   0  0  0  0  0  0  0  0  0  0  0  0
   -2.5255    2.3927   -0.5612 H   0  0  0  0  0  0  0  0  0  0  0  0
   -3.9669    2.6157    1.9178 H   0  0  0  0  0  0  0  0  0  0  0  0
   -3.8365    1.1094    1.0085 H   0  0  0  0  0  0  0  0  0  0  0  0
   -3.4093    0.5282    3.9361 H   0  0  0  0  0  0  0  0  0  0  0  0
  1  2  1  0
  2  3  1  0
  3  4  1  0
  4  5  1  0
  5  6  1  0
  6  7  1  0
  7  8  1  0
  8  9  1  0
  5  2  1  0
  8  3  1  0
  8  4  1  0
  1 10  1  0
  2 11  1  0
  3 12  1  0
  4 13  1  0
  5 14  1  0
  6 15  1  0
  6 16  1  0
  7 17  1  0
  7 18  1  0
  9 19  1  0
M  END
$$$$
