
     RDKit          3D

 19 20  0  0  0  0  0  0  0  0999 V2000
   -0.4869   -1.5193   -1.5960 O   0  0  0  0  0  0  0  0  0  0  0  0
   -0.5354   -0.1540   -1.7489 C   0  0  0  0  0  0  0  0  0  0  0  0
   -0.9056    0.7369   -0.6258 C   0  0  0  0  0  0  0  0  0  0  0  0
    0.5540    0.7933   -1.1019 C   0  0  0  0  0  0  0  0  0  0  0  0
    0.9087    1.8609   -2.1212 C   0  0  0  0  0  0  0  0  0  0  0  0
   -0.2128    1.7848   -3.1906 C   0  0  0  0  0  0  0  0  0  0  0  0
   -0.7230    0.3281   -3.1731 C   0  0  0  0  0  0  0  0  0  0  0  0
    1.5569    0.1017   -0.3003 C   0  0  0  0  0  0  0  0  0  0  0  0
    1.3068   -0.8431    0.4329 O   0  0  0  0  0  0  0  0  0  0  0  0
   -0.0919   -1.7001   -0.7256 H   0  0  0  0  0  0  0  0  0  0  0  0
   -1.5090    1.6232   -0.7946 H   0  0  0  0  0  0  0  0  0  0  0  0
   -1.0478    0.2590    0.3380 H   0  0  0  0  0  0  0  0  0  0  0  0
    0.9841    2.8651   -1.6893 H   0  0  0  0  0  0  0  0  0  0  0  0
    1.8837    1.6273   -2.5662 H   0  0  0  0  0  0  0  0  0  0  0  0
   -1.0248    2.4697   -2.9272 H   0  0  0  0  0  0  0  0  0  0  0  0
    0.1385    2.0858   -4.1803 H   0  0  0  0  0  0  0  0  0  0  0  0
   -1.7621    0.2443   -3.5076 H   0  0  0  0  0  0  0  0  0  0  0  0
   -0.1174   -0.3170   -3.8187 H   0  0  0  0  0  0  0  0  0  0  0  0
    2.6059    0.4412   -0.4350 H   0  0  0  0  0  0  0  0  0  0  0  0
  1  2  1  0
  2  3  1  0
  3  4  1  0
  4  5  1  0
  5  6  1  0
  6  7  1  0
  4  8  1  0
  8  9  2  0
  4  2  1  0
  7  2  1  0
  1 10  1  0
  3 11  1  0
  3 12  1  0
  5 13  1  0
  5 14  1  0
  6 15  1  0
  6 16  1  0
  7 17  1  0
  7 18  1  0
  8 19  1  0
M  END
$$$$
