gdb 957	5.1563632	0.7809491	0.766166	2.7461	77.12	-0.25825	-0.02901	0.22923999999999997	1513.3893	0.155473	-422.507393	-422.498691	-422.497747	-422.542437	31.352
 OpenBabel02181911403D

 19 20  0  0  1  0  0  0  0  0999 V2000
   -2.4189   -3.8941    0.6665 O   0  0  0  0  0  0  0  0  0  0  0  0
   -2.3158   -2.7647    0.2685 C   0  0  0  0  0  0  0  0  0  0  0  0
   -1.0043   -1.9996    0.2480 C   0  0  0  0  0  0  0  0  0  0  0  0
   -1.2573   -0.7150   -0.2742 O   0  0  0  0  0  0  0  0  0  0  0  0
   -0.1486    0.1046   -0.3557 C   0  0  1  0  0  0  0  0  0  0  0  0
    1.1540   -0.1035   -1.1957 C   0  0  0  0  0  0  0  0  0  0  0  0
    1.2770    1.2865   -0.5074 C   0  0  1  0  0  0  0  0  0  0  0  0
   -0.2089    1.5475   -0.8975 C   0  0  0  0  0  0  0  0  0  0  0  0
    0.7578    0.6313    0.8049 C   0  0  0  0  0  0  0  0  0  0  0  0
   -3.1792   -2.1819   -0.1210 H   0  0  0  0  0  0  0  0  0  0  0  0
   -0.6030   -1.9566    1.2726 H   0  0  0  0  0  0  0  0  0  0  0  0
   -0.2783   -2.5576   -0.3638 H   0  0  0  0  0  0  0  0  0  0  0  0
    1.8504   -0.8760   -0.8593 H   0  0  0  0  0  0  0  0  0  0  0  0
    1.0380   -0.1044   -2.2826 H   0  0  0  0  0  0  0  0  0  0  0  0
    2.1067    1.9821   -0.5985 H   0  0  0  0  0  0  0  0  0  0  0  0
   -0.7564    2.2732   -0.2910 H   0  0  0  0  0  0  0  0  0  0  0  0
   -0.4252    1.6591   -1.9629 H   0  0  0  0  0  0  0  0  0  0  0  0
    1.4254   -0.0880    1.2865 H   0  0  0  0  0  0  0  0  0  0  0  0
    0.2827    1.2961    1.5308 H   0  0  0  0  0  0  0  0  0  0  0  0
  2  1  2  0  0  0  0
  3  2  1  0  0  0  0
  3 11  1  0  0  0  0
  4  3  1  0  0  0  0
  5  4  1  1  0  0  0
  5  9  1  0  0  0  0
  6 13  1  0  0  0  0
  6  7  1  0  0  0  0
  6  5  1  0  0  0  0
  7 15  1  6  0  0  0
  7  9  1  0  0  0  0
  8  7  1  0  0  0  0
  8  5  1  0  0  0  0
  8 16  1  0  0  0  0
  9 18  1  0  0  0  0
  9 19  1  0  0  0  0
 10  2  1  0  0  0  0
 12  3  1  0  0  0  0
 14  6  1  0  0  0  0
 17  8  1  0  0  0  0
M TOR 0 0 1 2 3
M TOR 1 0 1 2 10
M TOR 2 0 1 2 11
M TOR 3 1 2 3 4
M TOR 4 2 3 4 5
M TOR 5 2 3 4 7
M TOR 6 2 3 4 8
M TOR 7 3 2 1 9
M TOR 8 3 4 5 6
M TOR 9 3 4 5 12
M TOR 10 3 4 5 13
M TOR 11 3 4 7 6
M TOR 12 3 4 7 15
M TOR 13 3 4 7 16
M TOR 14 3 4 8 6
M TOR 15 3 4 8 17
M TOR 16 3 4 8 18
M TOR 17 4 3 2 10
M TOR 18 4 3 2 11
M TOR 19 4 5 6 7
M TOR 20 4 5 6 8
M TOR 21 4 5 6 14
M TOR 22 4 7 6 8
M TOR 23 4 7 6 14
M TOR 24 4 8 6 14
M TOR 25 5 4 7 15
M TOR 26 5 4 7 16
M TOR 27 5 4 8 17
M TOR 28 5 4 8 18
M TOR 29 5 6 7 15
M TOR 30 5 6 7 16
M TOR 31 5 6 8 17
M TOR 32 5 6 8 18
M TOR 33 7 4 5 12
M TOR 34 7 4 5 13
M TOR 35 7 4 8 17
M TOR 36 7 4 8 18
M TOR 37 7 6 5 12
M TOR 38 7 6 5 13
M TOR 39 7 6 8 17
M TOR 40 7 6 8 18
M TOR 41 8 4 5 12
M TOR 42 8 4 5 13
M TOR 43 8 4 7 15
M TOR 44 8 4 7 16
M TOR 45 8 6 5 12
M TOR 46 8 6 5 13
M TOR 47 8 6 7 15
M TOR 48 8 6 7 16
M  END
$$$$
