
     RDKit          3D

 19 20  0  0  0  0  0  0  0  0999 V2000
   -2.5711    2.1999    1.6887 C   0  0  0  0  0  0  0  0  0  0  0  0
   -1.2064    2.0955    1.0148 C   0  0  0  0  0  0  0  0  0  0  0  0
   -0.9764    3.0937   -0.1595 C   0  0  0  0  0  0  0  0  0  0  0  0
   -1.3324    1.9656   -1.1670 C   0  0  0  0  0  0  0  0  0  0  0  0
   -1.1183    0.9425   -0.0313 C   0  0  0  0  0  0  0  0  0  0  0  0
   -1.9638   -0.2211    0.0825 O   0  0  0  0  0  0  0  0  0  0  0  0
   -0.8615   -1.1526    0.1142 C   0  0  0  0  0  0  0  0  0  0  0  0
    0.1058    0.0296   -0.0314 C   0  0  0  0  0  0  0  0  0  0  0  0
    1.2876    0.1803   -0.1092 O   0  0  0  0  0  0  0  0  0  0  0  0
   -2.7619    1.3328    2.3272 H   0  0  0  0  0  0  0  0  0  0  0  0
   -2.6184    3.1021    2.3072 H   0  0  0  0  0  0  0  0  0  0  0  0
   -3.3815    2.2512    0.9543 H   0  0  0  0  0  0  0  0  0  0  0  0
   -0.4146    2.0731    1.7699 H   0  0  0  0  0  0  0  0  0  0  0  0
   -1.6139    3.9806   -0.1703 H   0  0  0  0  0  0  0  0  0  0  0  0
    0.0668    3.4055   -0.2410 H   0  0  0  0  0  0  0  0  0  0  0  0
   -2.3846    1.9802   -1.4622 H   0  0  0  0  0  0  0  0  0  0  0  0
   -0.7124    1.8535   -2.0592 H   0  0  0  0  0  0  0  0  0  0  0  0
   -0.7904   -1.7047    1.0597 H   0  0  0  0  0  0  0  0  0  0  0  0
   -0.8743   -1.8610   -0.7230 H   0  0  0  0  0  0  0  0  0  0  0  0
  1  2  1  0
  2  3  1  0
  3  4  1  0
  4  5  1  0
  5  6  1  0
  6  7  1  0
  7  8  1  0
  8  9  2  0
  5  2  1  0
  8  5  1  0
  1 10  1  0
  1 11  1  0
  1 12  1  0
  2 13  1  0
  3 14  1  0
  3 15  1  0
  4 16  1  0
  4 17  1  0
  7 18  1  0
  7 19  1  0
M  END
$$$$
