gdb 3702	4.1791013	0.961495	0.9067923	2.4424	76.48	-0.23786	0.06724	0.3051	1324.7163	0.154752	-422.497658	-422.488629	-422.487685	-422.532203	33.337
 OpenBabel02181911413D

 19 21  0  0  1  0  0  0  0  0999 V2000
    0.4683    0.5637    0.2510 O   0  0  0  0  0  0  0  0  0  0  0  0
   -0.8041    0.4905    0.8262 C   0  0  2  0  0  0  0  0  0  0  0  0
   -1.9443   -0.2598    0.1836 C   0  0  0  0  0  0  0  0  0  0  0  0
   -1.9625    1.2521    0.2663 C   0  0  1  0  0  0  0  0  0  0  0  0
   -2.9874    2.1411    0.9949 C   0  0  0  0  0  0  0  0  0  0  0  0
   -3.0733    2.9704   -0.2939 C   0  0  1  0  0  0  0  0  0  0  0  0
   -4.2478    3.5593   -0.9364 C   0  0  0  0  0  0  0  0  0  0  0  0
   -3.2301    4.3740   -0.3336 O   0  0  0  0  0  0  0  0  0  0  0  0
   -1.9013    2.2146   -0.9360 C   0  0  0  0  0  0  0  0  0  0  0  0
    0.3717    0.6200   -0.7052 H   0  0  0  0  0  0  0  0  0  0  0  0
   -0.7050    0.4320    1.9060 H   0  0  0  0  0  0  0  0  0  0  0  0
   -1.7720   -0.7062   -0.7929 H   0  0  0  0  0  0  0  0  0  0  0  0
   -2.6178   -0.8272    0.8194 H   0  0  0  0  0  0  0  0  0  0  0  0
   -3.9129    1.6585    1.3221 H   0  0  0  0  0  0  0  0  0  0  0  0
   -2.5650    2.7083    1.8307 H   0  0  0  0  0  0  0  0  0  0  0  0
   -4.3036    3.6119   -2.0233 H   0  0  0  0  0  0  0  0  0  0  0  0
   -5.2078    3.5552   -0.4210 H   0  0  0  0  0  0  0  0  0  0  0  0
   -2.0827    1.7936   -1.9296 H   0  0  0  0  0  0  0  0  0  0  0  0
   -0.9837    2.8133   -0.9608 H   0  0  0  0  0  0  0  0  0  0  0  0
  1  2  1  0  0  0  0
  2 11  1  1  0  0  0
  3  4  1  0  0  0  0
  3 13  1  0  0  0  0
  3  2  1  0  0  0  0
  4  9  1  6  0  0  0
  4  2  1  0  0  0  0
  4  5  1  0  0  0  0
  5 14  1  0  0  0  0
  5 15  1  0  0  0  0
  6  8  1  1  0  0  0
  6  5  1  0  0  0  0
  7 17  1  0  0  0  0
  7  8  1  0  0  0  0
  7  6  1  0  0  0  0
  9  6  1  0  0  0  0
 10  1  1  0  0  0  0
 12  3  1  0  0  0  0
 16  7  1  0  0  0  0
 18  9  1  0  0  0  0
 19  9  1  0  0  0  0
M TOR 0 0 1 2 3
M TOR 1 0 1 2 11
M TOR 2 0 1 2 12
M TOR 3 0 1 3 4
M TOR 4 0 1 3 8
M TOR 5 1 2 3 4
M TOR 6 1 2 3 8
M TOR 7 1 3 2 11
M TOR 8 1 3 2 12
M TOR 9 1 3 4 5
M TOR 10 1 3 4 13
M TOR 11 1 3 4 14
M TOR 12 1 3 8 5
M TOR 13 1 3 8 17
M TOR 14 1 3 8 18
M TOR 15 2 1 0 9
M TOR 16 2 3 1 10
M TOR 17 2 3 4 5
M TOR 18 2 3 4 13
M TOR 19 2 3 4 14
M TOR 20 2 3 8 5
M TOR 21 2 3 8 17
M TOR 22 2 3 8 18
M TOR 23 3 1 0 9
M TOR 24 3 4 5 6
M TOR 25 3 4 5 7
M TOR 26 3 4 5 8
M TOR 27 3 8 5 6
M TOR 28 3 8 5 7
M TOR 29 4 3 1 10
M TOR 30 4 3 2 11
M TOR 31 4 3 2 12
M TOR 32 4 3 8 17
M TOR 33 4 3 8 18
M TOR 34 4 5 6 7
M TOR 35 4 5 6 15
M TOR 36 4 5 6 16
M TOR 37 4 5 8 17
M TOR 38 4 5 8 18
M TOR 39 5 7 6 15
M TOR 40 5 7 6 16
M TOR 41 6 5 4 13
M TOR 42 6 5 4 14
M TOR 43 6 5 8 17
M TOR 44 6 5 8 18
M TOR 45 6 7 5 8
M TOR 46 7 5 4 13
M TOR 47 7 5 4 14
M TOR 48 7 5 8 17
M TOR 49 7 5 8 18
M TOR 50 8 3 1 10
M TOR 51 8 3 2 11
M TOR 52 8 3 2 12
M TOR 53 8 3 4 13
M TOR 54 8 3 4 14
M TOR 55 8 5 4 13
M TOR 56 8 5 4 14
M TOR 57 8 5 6 15
M TOR 58 8 5 6 16
M  END
$$$$
