gdb 1390	3.8791883	0.7171576	0.6314062	1.4516	78.99	-0.26492	0.00515	0.27007	1723.0865	0.153859	-422.554937	-422.544551	-422.543607	-422.591593	36.087
 OpenBabel02181911403D

 19 18  0  0  1  0  0  0  0  0999 V2000
   -2.5715    2.4387    1.0713 C   0  0  0  0  0  0  0  0  0  0  0  0
   -1.8480    1.4823    0.1169 C   0  0  2  0  0  0  0  0  0  0  0  0
   -0.4701    1.1417    0.6714 C   0  0  0  0  0  0  0  0  0  0  0  0
    0.1290    0.1378   -0.1780 O   0  0  0  0  0  0  0  0  0  0  0  0
    1.3642   -0.2546    0.1599 C   0  0  0  0  0  0  0  0  0  0  0  0
    2.0028    0.1505    1.0915 O   0  0  0  0  0  0  0  0  0  0  0  0
   -1.7308    2.0684   -1.3117 C   0  0  0  0  0  0  0  0  0  0  0  0
   -3.0205    2.2825   -1.9554 C   0  0  0  0  0  0  0  0  0  0  0  0
   -4.0941    2.4451   -2.4715 C   0  0  0  0  0  0  0  0  0  0  0  0
   -2.7016    1.9890    2.0606 H   0  0  0  0  0  0  0  0  0  0  0  0
   -2.0090    3.3713    1.1973 H   0  0  0  0  0  0  0  0  0  0  0  0
   -3.5587    2.6936    0.6788 H   0  0  0  0  0  0  0  0  0  0  0  0
   -2.4207    0.5496    0.0480 H   0  0  0  0  0  0  0  0  0  0  0  0
    0.1853    2.0196    0.7000 H   0  0  0  0  0  0  0  0  0  0  0  0
   -0.5376    0.7460    1.6894 H   0  0  0  0  0  0  0  0  0  0  0  0
    1.7027   -1.0159   -0.5601 H   0  0  0  0  0  0  0  0  0  0  0  0
   -1.1816    3.0194   -1.2644 H   0  0  0  0  0  0  0  0  0  0  0  0
   -1.1254    1.3914   -1.9243 H   0  0  0  0  0  0  0  0  0  0  0  0
   -5.0354    2.5933   -2.9397 H   0  0  0  0  0  0  0  0  0  0  0  0
  1 11  1  0  0  0  0
  1 10  1  0  0  0  0
  2 13  1  6  0  0  0
  2  3  1  0  0  0  0
  2  1  1  0  0  0  0
  3 14  1  0  0  0  0
  3 15  1  0  0  0  0
  4  5  1  0  0  0  0
  4  3  1  0  0  0  0
  5  6  2  0  0  0  0
  7 17  1  0  0  0  0
  7  2  1  0  0  0  0
  8  7  1  0  0  0  0
  9  8  3  0  0  0  0
 12  1  1  0  0  0  0
 16  5  1  0  0  0  0
 18  7  1  0  0  0  0
 19  9  1  0  0  0  0
M TOR 0 0 1 2 3
M TOR 1 0 1 2 13
M TOR 2 0 1 2 14
M TOR 3 0 1 6 7
M TOR 4 0 1 6 16
M TOR 5 0 1 6 17
M TOR 6 1 2 3 4
M TOR 7 1 6 7 8
M TOR 8 2 1 0 9
M TOR 9 2 1 0 10
M TOR 10 2 1 0 11
M TOR 11 2 1 6 7
M TOR 12 2 1 6 16
M TOR 13 2 1 6 17
M TOR 14 2 3 4 5
M TOR 15 2 3 4 15
M TOR 16 3 2 1 6
M TOR 17 3 2 1 12
M TOR 18 4 3 2 13
M TOR 19 4 3 2 14
M TOR 20 6 1 0 9
M TOR 21 6 1 0 10
M TOR 22 6 1 0 11
M TOR 23 6 1 2 13
M TOR 24 6 1 2 14
M TOR 25 6 7 8 18
M TOR 26 7 6 1 12
M TOR 27 8 7 6 16
M TOR 28 8 7 6 17
M  END
$$$$
