
     RDKit          3D

 19 20  0  0  0  0  0  0  0  0999 V2000
   -0.0187    0.0987   -0.1367 C   0  0  0  0  0  0  0  0  0  0  0  0
    1.4905    0.0872   -0.0176 C   0  0  0  0  0  0  0  0  0  0  0  0
    2.2491   -0.8926   -0.8510 C   0  0  0  0  0  0  0  0  0  0  0  0
    3.6582   -0.6708   -0.7494 O   0  0  0  0  0  0  0  0  0  0  0  0
    3.6363   -1.0186    0.6750 C   0  0  0  0  0  0  0  0  0  0  0  0
    4.3150   -0.0111    1.5765 C   0  0  0  0  0  0  0  0  0  0  0  0
    4.2338   -2.4178    0.8062 C   0  0  0  0  0  0  0  0  0  0  0  0
    4.7823   -2.8355    1.7916 O   0  0  0  0  0  0  0  0  0  0  0  0
    2.1019   -1.1423    0.6353 C   0  0  0  0  0  0  0  0  0  0  0  0
   -0.4876    0.4286    0.7961 H   0  0  0  0  0  0  0  0  0  0  0  0
   -0.3422    0.7740   -0.9354 H   0  0  0  0  0  0  0  0  0  0  0  0
   -0.4070   -0.8995   -0.3662 H   0  0  0  0  0  0  0  0  0  0  0  0
    1.9562    1.0550    0.1537 H   0  0  0  0  0  0  0  0  0  0  0  0
    1.8750   -1.4077   -1.7285 H   0  0  0  0  0  0  0  0  0  0  0  0
    4.3617   -0.4092    2.5932 H   0  0  0  0  0  0  0  0  0  0  0  0
    5.3401    0.1651    1.2364 H   0  0  0  0  0  0  0  0  0  0  0  0
    3.7816    0.9412    1.5819 H   0  0  0  0  0  0  0  0  0  0  0  0
    4.1009   -3.0346   -0.1095 H   0  0  0  0  0  0  0  0  0  0  0  0
    1.5157   -1.8670    1.1852 H   0  0  0  0  0  0  0  0  0  0  0  0
  1  2  1  0
  2  3  1  0
  3  4  1  0
  4  5  1  0
  5  6  1  0
  5  7  1  0
  7  8  2  0
  5  9  1  0
  9  2  1  0
  9  3  1  0
  1 10  1  0
  1 11  1  0
  1 12  1  0
  2 13  1  0
  3 14  1  0
  6 15  1  0
  6 16  1  0
  6 17  1  0
  7 18  1  0
  9 19  1  0
M  END
$$$$
