gdb 2897	3.0984351	1.7644637	1.6682853	2.1051	73.01	-0.2478	0.08584	0.33364	915.3912	0.159744	-422.564114	-422.557316	-422.556372	-422.594881	28.101
 OpenBabel02181911413D

 19 21  0  0  1  0  0  0  0  0999 V2000
    4.2420   -1.5325    0.4828 C   0  0  0  0  0  0  0  0  0  0  0  0
    3.0702   -0.5984    0.2017 C   0  0  1  0  0  0  0  0  0  0  0  0
    2.2376   -0.8984   -1.0395 C   0  0  2  0  0  0  0  0  0  0  0  0
    0.9128   -0.0795   -0.8388 C   0  0  1  0  0  0  0  0  0  0  0  0
    0.0965   -1.3578   -1.1338 C   0  0  0  0  0  0  0  0  0  0  0  0
    1.3402   -2.1299   -0.6380 C   0  0  2  0  0  0  0  0  0  0  0  0
    1.3808   -2.0939    0.8012 O   0  0  0  0  0  0  0  0  0  0  0  0
    1.8296   -0.7778    1.0985 C   0  0  2  0  0  0  0  0  0  0  0  0
    0.9066    0.1697    0.5810 O   0  0  0  0  0  0  0  0  0  0  0  0
    4.7029   -1.3022    1.4493 H   0  0  0  0  0  0  0  0  0  0  0  0
    3.9201   -2.5768    0.5060 H   0  0  0  0  0  0  0  0  0  0  0  0
    5.0162   -1.4296   -0.2844 H   0  0  0  0  0  0  0  0  0  0  0  0
    3.3867    0.4490    0.2246 H   0  0  0  0  0  0  0  0  0  0  0  0
    2.6958   -0.9000   -2.0254 H   0  0  0  0  0  0  0  0  0  0  0  0
    0.7142    0.8540   -1.3666 H   0  0  0  0  0  0  0  0  0  0  0  0
   -0.8328   -1.4975   -0.5788 H   0  0  0  0  0  0  0  0  0  0  0  0
   -0.0672   -1.4975   -2.2071 H   0  0  0  0  0  0  0  0  0  0  0  0
    1.5451   -3.1458   -0.9770 H   0  0  0  0  0  0  0  0  0  0  0  0
    1.9118   -0.6566    2.1774 H   0  0  0  0  0  0  0  0  0  0  0  0
  1 11  1  0  0  0  0
  1 10  1  0  0  0  0
  2 13  1  1  0  0  0
  2  1  1  0  0  0  0
  2  8  1  0  0  0  0
  3 14  1  6  0  0  0
  3  4  1  0  0  0  0
  3  6  1  0  0  0  0
  3  2  1  0  0  0  0
  4 15  1  6  0  0  0
  4  9  1  0  0  0  0
  5  4  1  0  0  0  0
  5  6  1  0  0  0  0
  5 16  1  0  0  0  0
  6 18  1  6  0  0  0
  6  7  1  0  0  0  0
  7  8  1  0  0  0  0
  8 19  1  1  0  0  0
  9  8  1  0  0  0  0
 12  1  1  0  0  0  0
 17  5  1  0  0  0  0
M TOR 0 0 1 2 3
M TOR 1 0 1 2 5
M TOR 2 0 1 2 13
M TOR 3 0 1 7 6
M TOR 4 0 1 7 8
M TOR 5 0 1 7 18
M TOR 6 1 2 3 4
M TOR 7 1 2 3 8
M TOR 8 1 2 3 14
M TOR 9 1 2 5 4
M TOR 10 1 2 5 6
M TOR 11 1 2 5 17
M TOR 12 1 7 6 5
M TOR 13 1 7 8 3
M TOR 14 2 1 0 9
M TOR 15 2 1 0 10
M TOR 16 2 1 0 11
M TOR 17 2 1 7 6
M TOR 18 2 1 7 8
M TOR 19 2 1 7 18
M TOR 20 2 3 4 5
M TOR 21 2 3 4 15
M TOR 22 2 3 4 16
M TOR 23 2 3 8 7
M TOR 24 2 5 4 15
M TOR 25 2 5 4 16
M TOR 26 2 5 6 7
M TOR 27 3 2 1 7
M TOR 28 3 2 1 12
M TOR 29 3 2 5 6
M TOR 30 3 2 5 17
M TOR 31 3 4 5 6
M TOR 32 3 4 5 17
M TOR 33 3 8 7 6
M TOR 34 3 8 7 18
M TOR 35 4 3 2 13
M TOR 36 4 3 8 7
M TOR 37 4 5 2 13
M TOR 38 4 5 6 7
M TOR 39 5 2 1 7
M TOR 40 5 2 1 12
M TOR 41 5 2 3 8
M TOR 42 5 2 3 14
M TOR 43 5 4 3 8
M TOR 44 5 4 3 14
M TOR 45 5 6 7 8
M TOR 46 5 6 7 18
M TOR 47 6 5 2 13
M TOR 48 6 5 4 15
M TOR 49 6 5 4 16
M TOR 50 6 7 1 12
M TOR 51 7 1 0 9
M TOR 52 7 1 0 10
M TOR 53 7 1 0 11
M TOR 54 7 1 2 13
M TOR 55 7 6 5 17
M TOR 56 7 8 3 14
M TOR 57 8 3 2 13
M TOR 58 8 3 4 15
M TOR 59 8 3 4 16
M TOR 60 8 7 1 12
M  END
$$$$
