gdb 4423	2.5557774	1.4081259	1.1379195	2.7332	76.8	-0.24538	-0.03126	0.21411999999999998	1137.0521	0.155184	-422.534243	-422.525204	-422.52426	-422.568169	32.813
 OpenBabel02181911413D

 19 20  0  0  1  0  0  0  0  0999 V2000
    2.5921    1.3592   -0.2828 C   0  0  0  0  0  0  0  0  0  0  0  0
    1.8632    0.0377   -0.1701 C   0  0  2  0  0  0  0  0  0  0  0  0
    2.2750   -0.7412    0.9911 O   0  0  0  0  0  0  0  0  0  0  0  0
    2.6061   -1.8904    0.1898 C   0  0  0  0  0  0  0  0  0  0  0  0
    2.2867   -1.1179   -1.0829 C   0  0  2  0  0  0  0  0  0  0  0  0
    3.0205   -1.0780   -2.3625 C   0  0  0  0  0  0  0  0  0  0  0  0
    1.5946   -1.6356   -2.3369 C   0  0  2  0  0  0  0  0  0  0  0  0
    0.5217   -0.8057   -2.9284 C   0  0  0  0  0  0  0  0  0  0  0  0
    0.5251    0.4055   -2.9360 O   0  0  0  0  0  0  0  0  0  0  0  0
    2.3698    1.9837    0.5880 H   0  0  0  0  0  0  0  0  0  0  0  0
    3.6745    1.2083   -0.3328 H   0  0  0  0  0  0  0  0  0  0  0  0
    2.2590    1.8853   -1.1821 H   0  0  0  0  0  0  0  0  0  0  0  0
    0.7786    0.2027   -0.1512 H   0  0  0  0  0  0  0  0  0  0  0  0
    3.6520   -2.1993    0.3168 H   0  0  0  0  0  0  0  0  0  0  0  0
    1.9513   -2.7470    0.4005 H   0  0  0  0  0  0  0  0  0  0  0  0
    3.1326   -0.1168   -2.8534 H   0  0  0  0  0  0  0  0  0  0  0  0
    3.8212   -1.7905   -2.5312 H   0  0  0  0  0  0  0  0  0  0  0  0
    1.4693   -2.7104   -2.4244 H   0  0  0  0  0  0  0  0  0  0  0  0
   -0.3243   -1.3722   -3.3749 H   0  0  0  0  0  0  0  0  0  0  0  0
  1  2  1  0  0  0  0
  1 10  1  0  0  0  0
  2 13  1  6  0  0  0
  2  3  1  0  0  0  0
  4 14  1  0  0  0  0
  4 15  1  0  0  0  0
  4  3  1  0  0  0  0
  5  6  1  6  0  0  0
  5  2  1  0  0  0  0
  5  4  1  0  0  0  0
  6  7  1  0  0  0  0
  7 18  1  6  0  0  0
  7  5  1  0  0  0  0
  8  7  1  0  0  0  0
  9  8  2  0  0  0  0
 11  1  1  0  0  0  0
 12  1  1  0  0  0  0
 16  6  1  0  0  0  0
 17  6  1  0  0  0  0
 19  8  1  0  0  0  0
M TOR 0 0 1 2 3
M TOR 1 0 1 4 3
M TOR 2 0 1 4 5
M TOR 3 0 1 4 6
M TOR 4 1 2 3 4
M TOR 5 1 2 3 13
M TOR 6 1 2 3 14
M TOR 7 1 4 3 13
M TOR 8 1 4 3 14
M TOR 9 1 4 5 6
M TOR 10 1 4 5 15
M TOR 11 1 4 5 16
M TOR 12 1 4 6 7
M TOR 13 1 4 6 17
M TOR 14 2 1 0 9
M TOR 15 2 1 0 10
M TOR 16 2 1 0 11
M TOR 17 2 1 4 5
M TOR 18 2 1 4 6
M TOR 19 2 3 4 5
M TOR 20 2 3 4 6
M TOR 21 3 2 1 12
M TOR 22 3 4 1 12
M TOR 23 3 4 5 6
M TOR 24 3 4 5 15
M TOR 25 3 4 5 16
M TOR 26 3 4 6 7
M TOR 27 3 4 6 17
M TOR 28 4 1 0 9
M TOR 29 4 1 0 10
M TOR 30 4 1 0 11
M TOR 31 4 5 6 7
M TOR 32 4 5 6 17
M TOR 33 4 6 5 15
M TOR 34 4 6 5 16
M TOR 35 4 6 7 8
M TOR 36 4 6 7 18
M TOR 37 5 4 1 12
M TOR 38 5 4 3 13
M TOR 39 5 4 3 14
M TOR 40 5 6 7 8
M TOR 41 5 6 7 18
M TOR 42 6 4 1 12
M TOR 43 6 4 3 13
M TOR 44 6 4 3 14
M TOR 45 7 6 5 15
M TOR 46 7 6 5 16
M TOR 47 8 7 6 17
M  END
$$$$
