
     RDKit          3D

 19 19  0  0  0  0  0  0  0  0999 V2000
    2.6010   -1.6279    2.2985 C   0  0  0  0  0  0  0  0  0  0  0  0
    2.2616   -2.2509    0.9642 C   0  0  0  0  0  0  0  0  0  0  0  0
    0.7831   -2.2602    0.5747 C   0  0  0  0  0  0  0  0  0  0  0  0
    0.1732   -0.9343    0.5480 C   0  0  0  0  0  0  0  0  0  0  0  0
   -0.3298    0.1601    0.5142 C   0  0  0  0  0  0  0  0  0  0  0  0
   -0.9314    1.4930    0.5165 C   0  0  0  0  0  0  0  0  0  0  0  0
   -1.6807    1.7784    1.6906 O   0  0  0  0  0  0  0  0  0  0  0  0
    3.1404   -3.2726    0.3781 C   0  0  0  0  0  0  0  0  0  0  0  0
    3.1530   -1.9271   -0.1079 O   0  0  0  0  0  0  0  0  0  0  0  0
    2.1117   -2.1687    3.1160 H   0  0  0  0  0  0  0  0  0  0  0  0
    3.6806   -1.6455    2.4634 H   0  0  0  0  0  0  0  0  0  0  0  0
    2.2603   -0.5889    2.3296 H   0  0  0  0  0  0  0  0  0  0  0  0
    0.6878   -2.7272   -0.4122 H   0  0  0  0  0  0  0  0  0  0  0  0
    0.2350   -2.9002    1.2799 H   0  0  0  0  0  0  0  0  0  0  0  0
   -0.1450    2.2467    0.3504 H   0  0  0  0  0  0  0  0  0  0  0  0
   -1.6379    1.5880   -0.3157 H   0  0  0  0  0  0  0  0  0  0  0  0
   -1.1119    1.5938    2.4452 H   0  0  0  0  0  0  0  0  0  0  0  0
    4.0348   -3.5857    0.9156 H   0  0  0  0  0  0  0  0  0  0  0  0
    2.7332   -4.0142   -0.3088 H   0  0  0  0  0  0  0  0  0  0  0  0
  1  2  1  0
  2  3  1  0
  3  4  1  0
  4  5  3  0
  5  6  1  0
  6  7  1  0
  2  8  1  0
  8  9  1  0
  9  2  1  0
  1 10  1  0
  1 11  1  0
  1 12  1  0
  3 13  1  0
  3 14  1  0
  6 15  1  0
  6 16  1  0
  7 17  1  0
  8 18  1  0
  8 19  1  0
M  END
$$$$
