gdb 5057	2.1390166	1.6028951	1.0721272	3.0256	76.86	-0.23627	-0.02151	0.21476	1188.5722	0.153973	-422.548629	-422.539094	-422.53815	-422.583204	34.528
 OpenBabel02181911413D

 19 20  0  0  1  0  0  0  0  0999 V2000
    2.8888    1.6325   -0.4321 C   0  0  0  0  0  0  0  0  0  0  0  0
    1.8825    0.5462   -0.0231 C   0  0  0  0  0  0  0  0  0  0  0  0
    1.7068   -0.4848   -1.0901 C   0  0  1  0  0  0  0  0  0  0  0  0
    2.7834   -1.4317   -1.3391 O   0  0  0  0  0  0  0  0  0  0  0  0
    1.4779   -1.9634   -1.1036 C   0  0  1  0  0  0  0  0  0  0  0  0
    1.2733   -2.9262    0.0194 C   0  0  0  0  0  0  0  0  0  0  0  0
    0.7868   -1.9364   -2.4806 C   0  0  0  0  0  0  0  0  0  0  0  0
    0.9886   -0.3920   -2.4353 C   0  0  0  0  0  0  0  0  0  0  0  0
    0.5808    0.5173   -3.0964 O   0  0  0  0  0  0  0  0  0  0  0  0
    2.9964    2.3788    0.3600 H   0  0  0  0  0  0  0  0  0  0  0  0
    3.8717    1.1938   -0.6263 H   0  0  0  0  0  0  0  0  0  0  0  0
    2.5574    2.1425   -1.3411 H   0  0  0  0  0  0  0  0  0  0  0  0
    2.2100    0.0507    0.8980 H   0  0  0  0  0  0  0  0  0  0  0  0
    0.9059    1.0005    0.1835 H   0  0  0  0  0  0  0  0  0  0  0  0
    1.6588   -3.9162   -0.2481 H   0  0  0  0  0  0  0  0  0  0  0  0
    1.7984   -2.5891    0.9169 H   0  0  0  0  0  0  0  0  0  0  0  0
    0.2085   -3.0308    0.2497 H   0  0  0  0  0  0  0  0  0  0  0  0
    1.2972   -2.4887   -3.2723 H   0  0  0  0  0  0  0  0  0  0  0  0
   -0.2793   -2.1846   -2.4757 H   0  0  0  0  0  0  0  0  0  0  0  0
  1  2  1  0  0  0  0
  1 10  1  0  0  0  0
  2 14  1  0  0  0  0
  2 13  1  0  0  0  0
  3  2  1  1  0  0  0
  4  5  1  0  0  0  0
  4  3  1  0  0  0  0
  5  3  1  0  0  0  0
  5  6  1  1  0  0  0
  6 17  1  0  0  0  0
  6 16  1  0  0  0  0
  7 19  1  0  0  0  0
  7  8  1  0  0  0  0
  7  5  1  0  0  0  0
  8  3  1  0  0  0  0
  9  8  2  0  0  0  0
 11  1  1  0  0  0  0
 12  1  1  0  0  0  0
 15  6  1  0  0  0  0
 18  7  1  0  0  0  0
M TOR 0 0 1 2 3
M TOR 1 0 1 2 4
M TOR 2 0 1 2 7
M TOR 3 1 2 3 4
M TOR 4 1 2 4 5
M TOR 5 1 2 4 6
M TOR 6 1 2 7 6
M TOR 7 1 2 7 8
M TOR 8 2 1 0 9
M TOR 9 2 1 0 10
M TOR 10 2 1 0 11
M TOR 11 2 3 4 5
M TOR 12 2 3 4 6
M TOR 13 2 4 5 14
M TOR 14 2 4 5 15
M TOR 15 2 4 5 16
M TOR 16 2 4 6 7
M TOR 17 2 4 6 17
M TOR 18 2 4 6 18
M TOR 19 2 7 6 17
M TOR 20 2 7 6 18
M TOR 21 3 2 1 12
M TOR 22 3 2 1 13
M TOR 23 3 2 7 6
M TOR 24 3 2 7 8
M TOR 25 3 4 2 7
M TOR 26 3 4 5 14
M TOR 27 3 4 5 15
M TOR 28 3 4 5 16
M TOR 29 3 4 6 7
M TOR 30 3 4 6 17
M TOR 31 3 4 6 18
M TOR 32 4 2 1 12
M TOR 33 4 2 1 13
M TOR 34 4 2 7 8
M TOR 35 4 6 7 8
M TOR 36 5 4 2 7
M TOR 37 5 4 6 7
M TOR 38 5 4 6 17
M TOR 39 5 4 6 18
M TOR 40 6 4 5 14
M TOR 41 6 4 5 15
M TOR 42 6 4 5 16
M TOR 43 7 2 1 12
M TOR 44 7 2 1 13
M TOR 45 8 7 6 17
M TOR 46 8 7 6 18
M  END
$$$$
