gdb 6009	5.6925986	0.850116	0.8408494	2.2441	75.99	-0.23198	0.07636	0.30834	1422.7453	0.155906	-422.444873	-422.436649	-422.435705	-422.478392	30.431
 OpenBabel02181911423D

 19 21  0  0  1  0  0  0  0  0999 V2000
    1.5677   -0.0912   -0.0662 C   0  0  0  0  0  0  0  0  0  0  0  0
    0.1644   -0.0774    0.0343 O   0  0  0  0  0  0  0  0  0  0  0  0
   -0.3014    0.6315    1.1634 C   0  0  0  0  0  0  0  0  0  0  0  0
   -1.8142    0.5570    1.1785 C   0  0  1  0  0  0  0  0  0  0  0  0
   -2.5937    1.5407    2.0821 C   0  0  1  0  0  0  0  0  0  0  0  0
   -2.4951    2.7027    1.0396 C   0  0  2  0  0  0  0  0  0  0  0  0
   -3.9261    2.9810    1.0305 O   0  0  0  0  0  0  0  0  0  0  0  0
   -3.8271    1.5298    1.1254 C   0  0  1  0  0  0  0  0  0  0  0  0
   -2.6055    1.4120    0.1625 C   0  0  2  0  0  0  0  0  0  0  0  0
    2.0363   -0.5689    0.8091 H   0  0  0  0  0  0  0  0  0  0  0  0
    1.8271   -0.6626   -0.9608 H   0  0  0  0  0  0  0  0  0  0  0  0
    1.9822    0.9253   -0.1620 H   0  0  0  0  0  0  0  0  0  0  0  0
    0.1137    0.1944    2.0889 H   0  0  0  0  0  0  0  0  0  0  0  0
    0.0391    1.6815    1.1251 H   0  0  0  0  0  0  0  0  0  0  0  0
   -2.1382   -0.4873    1.2430 H   0  0  0  0  0  0  0  0  0  0  0  0
   -2.6118    1.6360    3.1681 H   0  0  0  0  0  0  0  0  0  0  0  0
   -1.8055    3.5434    0.9805 H   0  0  0  0  0  0  0  0  0  0  0  0
   -4.7415    0.9391    1.1728 H   0  0  0  0  0  0  0  0  0  0  0  0
   -2.6318    1.3595   -0.9249 H   0  0  0  0  0  0  0  0  0  0  0  0
  1  2  1  0  0  0  0
  1 10  1  0  0  0  0
  2  3  1  0  0  0  0
  3  4  1  0  0  0  0
  3 13  1  0  0  0  0
  4 15  1  1  0  0  0
  4  5  1  0  0  0  0
  5 16  1  1  0  0  0
  6 17  1  6  0  0  0
  6  5  1  0  0  0  0
  7  6  1  0  0  0  0
  7  8  1  0  0  0  0
  8 18  1  1  0  0  0
  8  5  1  0  0  0  0
  9 19  1  6  0  0  0
  9  6  1  0  0  0  0
  9  8  1  0  0  0  0
  9  4  1  0  0  0  0
 11  1  1  0  0  0  0
 12  1  1  0  0  0  0
 14  3  1  0  0  0  0
M TOR 0 0 1 2 3
M TOR 1 0 1 2 12
M TOR 2 0 1 2 13
M TOR 3 1 2 3 4
M TOR 4 1 2 3 8
M TOR 5 1 2 3 14
M TOR 6 2 1 0 9
M TOR 7 2 1 0 10
M TOR 8 2 1 0 11
M TOR 9 2 3 4 5
M TOR 10 2 3 4 7
M TOR 11 2 3 4 15
M TOR 12 2 3 8 5
M TOR 13 2 3 8 7
M TOR 14 2 3 8 18
M TOR 15 3 4 5 6
M TOR 16 3 4 5 8
M TOR 17 3 4 5 16
M TOR 18 3 4 7 6
M TOR 19 3 4 7 8
M TOR 20 3 4 7 17
M TOR 21 3 8 5 6
M TOR 22 3 8 5 16
M TOR 23 3 8 7 6
M TOR 24 3 8 7 17
M TOR 25 4 3 2 12
M TOR 26 4 3 2 13
M TOR 27 4 3 8 18
M TOR 28 4 5 6 7
M TOR 29 4 5 8 7
M TOR 30 4 5 8 18
M TOR 31 4 7 8 18
M TOR 32 5 4 3 14
M TOR 33 5 4 7 17
M TOR 34 5 6 7 8
M TOR 35 5 6 7 17
M TOR 36 5 8 3 14
M TOR 37 5 8 7 17
M TOR 38 6 5 4 15
M TOR 39 6 5 8 18
M TOR 40 6 7 4 15
M TOR 41 6 7 8 18
M TOR 42 7 4 3 14
M TOR 43 7 4 5 16
M TOR 44 7 6 5 16
M TOR 45 7 8 3 14
M TOR 46 7 8 5 16
M TOR 47 8 3 2 12
M TOR 48 8 3 2 13
M TOR 49 8 3 4 15
M TOR 50 8 5 4 15
M TOR 51 8 7 4 15
M  END
$$$$
