gdb 300	2.6468919	2.0498681	1.8207938	1.876	72.89	-0.23607	0.0807	0.31677	866.986	0.161363	-422.551272	-422.544945	-422.544001	-422.581568	26.731
 OpenBabel02181911403D

 19 21  0  0  1  0  0  0  0  0999 V2000
    1.8119   -2.9990    3.3315 C   0  0  0  0  0  0  0  0  0  0  0  0
    0.8678   -3.1881    2.1142 C   0  0  2  0  0  0  0  0  0  0  0  0
    1.5196   -2.9012    0.8869 O   0  0  0  0  0  0  0  0  0  0  0  0
    2.4560   -1.8276    1.0089 C   0  0  0  0  0  0  0  0  0  0  0  0
    1.9690   -0.7816    2.0205 C   0  0  1  0  0  0  0  0  0  0  0  0
    0.8673   -0.0465    1.4906 O   0  0  0  0  0  0  0  0  0  0  0  0
   -0.3086   -0.8572    1.6210 C   0  0  0  0  0  0  0  0  0  0  0  0
    0.0603   -1.9405    2.6287 C   0  0  2  0  0  0  0  0  0  0  0  0
    1.4076   -1.5045    3.2720 C   0  0  1  0  0  0  0  0  0  0  0  0
    1.4026   -3.4827    4.2219 H   0  0  0  0  0  0  0  0  0  0  0  0
    2.8612   -3.2835    3.2227 H   0  0  0  0  0  0  0  0  0  0  0  0
    0.3457   -4.1363    1.9757 H   0  0  0  0  0  0  0  0  0  0  0  0
    3.4414   -2.2113    1.3119 H   0  0  0  0  0  0  0  0  0  0  0  0
    2.5536   -1.3785    0.0173 H   0  0  0  0  0  0  0  0  0  0  0  0
    2.7646   -0.0623    2.2343 H   0  0  0  0  0  0  0  0  0  0  0  0
   -1.1244   -0.2178    1.9759 H   0  0  0  0  0  0  0  0  0  0  0  0
   -0.5891   -1.2804    0.6481 H   0  0  0  0  0  0  0  0  0  0  0  0
   -0.7324   -2.2127    3.3267 H   0  0  0  0  0  0  0  0  0  0  0  0
    1.4257   -0.8882    4.1720 H   0  0  0  0  0  0  0  0  0  0  0  0
  1 10  1  0  0  0  0
  2 12  1  1  0  0  0
  2  8  1  0  0  0  0
  2  1  1  0  0  0  0
  3  4  1  0  0  0  0
  3  2  1  0  0  0  0
  4 13  1  0  0  0  0
  4  5  1  0  0  0  0
  5 15  1  1  0  0  0
  5  9  1  0  0  0  0
  6  7  1  0  0  0  0
  6  5  1  0  0  0  0
  7 16  1  0  0  0  0
  7  8  1  0  0  0  0
  8  9  1  0  0  0  0
  8 18  1  1  0  0  0
  9  1  1  0  0  0  0
  9 19  1  1  0  0  0
 11  1  1  0  0  0  0
 14  4  1  0  0  0  0
 17  7  1  0  0  0  0
M TOR 0 0 1 2 3
M TOR 1 0 1 7 6
M TOR 2 0 1 7 8
M TOR 3 0 1 7 17
M TOR 4 0 8 4 3
M TOR 5 0 8 4 5
M TOR 6 0 8 4 14
M TOR 7 0 8 7 6
M TOR 8 0 8 7 17
M TOR 9 1 0 8 4
M TOR 10 1 0 8 18
M TOR 11 1 2 3 4
M TOR 12 1 2 3 12
M TOR 13 1 2 3 13
M TOR 14 1 7 6 5
M TOR 15 1 7 6 15
M TOR 16 1 7 6 16
M TOR 17 1 7 8 4
M TOR 18 1 7 8 18
M TOR 19 2 1 0 8
M TOR 20 2 1 0 9
M TOR 21 2 1 0 10
M TOR 22 2 1 7 6
M TOR 23 2 1 7 8
M TOR 24 2 1 7 17
M TOR 25 2 3 4 5
M TOR 26 2 3 4 8
M TOR 27 2 3 4 14
M TOR 28 3 2 1 7
M TOR 29 3 2 1 11
M TOR 30 3 4 5 6
M TOR 31 3 4 8 7
M TOR 32 3 4 8 18
M TOR 33 4 5 6 7
M TOR 34 4 5 6 15
M TOR 35 4 5 6 16
M TOR 36 4 8 0 9
M TOR 37 4 8 0 10
M TOR 38 4 8 7 6
M TOR 39 4 8 7 17
M TOR 40 5 4 3 12
M TOR 41 5 4 3 13
M TOR 42 5 4 8 7
M TOR 43 5 4 8 18
M TOR 44 5 6 7 8
M TOR 45 5 6 7 17
M TOR 46 6 5 4 8
M TOR 47 6 5 4 14
M TOR 48 6 7 1 11
M TOR 49 6 7 8 18
M TOR 50 7 1 0 9
M TOR 51 7 1 0 10
M TOR 52 7 8 0 9
M TOR 53 7 8 0 10
M TOR 54 7 8 4 14
M TOR 55 8 0 1 11
M TOR 56 8 4 3 12
M TOR 57 8 4 3 13
M TOR 58 8 7 1 11
M TOR 59 8 7 6 15
M TOR 60 8 7 6 16
M  END
$$$$
