
     RDKit          3D

 19 20  0  0  0  0  0  0  0  0999 V2000
    2.7785    1.5071   -0.0837 C   0  0  0  0  0  0  0  0  0  0  0  0
    2.0002    0.1946    0.0461 C   0  0  0  0  0  0  0  0  0  0  0  0
    1.9543   -0.5903   -1.2686 C   0  0  0  0  0  0  0  0  0  0  0  0
    1.0240   -0.0463   -2.3763 C   0  0  0  0  0  0  0  0  0  0  0  0
    0.9373    1.0079   -2.9367 O   0  0  0  0  0  0  0  0  0  0  0  0
    0.2187   -1.3619   -2.4525 C   0  0  0  0  0  0  0  0  0  0  0  0
    1.1022   -1.8786   -1.3063 C   0  0  0  0  0  0  0  0  0  0  0  0
    1.4473   -3.2424   -0.9152 C   0  0  0  0  0  0  0  0  0  0  0  0
    0.5497   -2.4431   -0.1285 O   0  0  0  0  0  0  0  0  0  0  0  0
    2.7632    2.0641    0.8579 H   0  0  0  0  0  0  0  0  0  0  0  0
    3.8261    1.3205   -0.3453 H   0  0  0  0  0  0  0  0  0  0  0  0
    2.3482    2.1399   -0.8648 H   0  0  0  0  0  0  0  0  0  0  0  0
    2.4467   -0.4456    0.8159 H   0  0  0  0  0  0  0  0  0  0  0  0
    0.9758    0.3950    0.3804 H   0  0  0  0  0  0  0  0  0  0  0  0
    2.9711   -0.7440   -1.6539 H   0  0  0  0  0  0  0  0  0  0  0  0
   -0.8422   -1.2598   -2.2045 H   0  0  0  0  0  0  0  0  0  0  0  0
    0.3096   -1.8860   -3.4088 H   0  0  0  0  0  0  0  0  0  0  0  0
    0.9894   -4.0873   -1.4280 H   0  0  0  0  0  0  0  0  0  0  0  0
    2.4133   -3.4466   -0.4546 H   0  0  0  0  0  0  0  0  0  0  0  0
  1  2  1  0
  2  3  1  0
  3  4  1  0
  4  5  2  0
  4  6  1  0
  6  7  1  0
  7  8  1  0
  8  9  1  0
  7  3  1  0
  9  7  1  0
  1 10  1  0
  1 11  1  0
  1 12  1  0
  2 13  1  0
  2 14  1  0
  3 15  1  0
  6 16  1  0
  6 17  1  0
  8 18  1  0
  8 19  1  0
M  END
$$$$
