
     RDKit          3D

 19 20  0  0  0  0  0  0  0  0999 V2000
   -1.1395   -2.5323    0.2757 O   0  0  0  0  0  0  0  0  0  0  0  0
   -1.1025   -1.2448   -0.2574 C   0  0  0  0  0  0  0  0  0  0  0  0
   -2.1680   -0.1611    0.1362 C   0  0  0  0  0  0  0  0  0  0  0  0
   -1.0382    0.9279    0.1884 C   0  0  0  0  0  0  0  0  0  0  0  0
   -1.0313    1.9783    1.2608 C   0  0  0  0  0  0  0  0  0  0  0  0
   -0.2171    3.2367    1.0917 C   0  0  0  0  0  0  0  0  0  0  0  0
   -1.7217    3.3038    1.0405 C   0  0  0  0  0  0  0  0  0  0  0  0
   -0.0826   -0.2698    0.3336 C   0  0  0  0  0  0  0  0  0  0  0  0
    0.8854   -0.4831    1.0117 O   0  0  0  0  0  0  0  0  0  0  0  0
   -0.4844   -2.5608    0.9850 H   0  0  0  0  0  0  0  0  0  0  0  0
   -1.0254   -1.2972   -1.3515 H   0  0  0  0  0  0  0  0  0  0  0  0
   -2.9825    0.0010   -0.5696 H   0  0  0  0  0  0  0  0  0  0  0  0
   -2.5700   -0.3634    1.1321 H   0  0  0  0  0  0  0  0  0  0  0  0
   -0.9199    1.3844   -0.8017 H   0  0  0  0  0  0  0  0  0  0  0  0
   -1.0768    1.5765    2.2694 H   0  0  0  0  0  0  0  0  0  0  0  0
    0.2905    3.6358    1.9623 H   0  0  0  0  0  0  0  0  0  0  0  0
    0.3304    3.3644    0.1638 H   0  0  0  0  0  0  0  0  0  0  0  0
   -2.2485    3.7512    1.8759 H   0  0  0  0  0  0  0  0  0  0  0  0
   -2.1911    3.4769    0.0775 H   0  0  0  0  0  0  0  0  0  0  0  0
  1  2  1  0
  2  3  1  0
  3  4  1  0
  4  5  1  0
  5  6  1  0
  6  7  1  0
  4  8  1  0
  8  9  2  0
  8  2  1  0
  7  5  1  0
  1 10  1  0
  2 11  1  0
  3 12  1  0
  3 13  1  0
  4 14  1  0
  5 15  1  0
  6 16  1  0
  6 17  1  0
  7 18  1  0
  7 19  1  0
M  END
$$$$
