gdb 330	2.4381917	1.961393	1.3641073	2.3503	74.21	-0.2376	0.08149	0.31909	982.0229	0.159159	-422.512875	-422.505413	-422.504469	-422.544578	29.38
 OpenBabel02181911403D

 19 21  0  0  1  0  0  0  0  0999 V2000
   -0.0305    1.4084    0.0920 C   0  0  0  0  0  0  0  0  0  0  0  0
    1.3373    0.7889   -0.1009 C   0  0  2  0  0  0  0  0  0  0  0  0
    2.0364    0.9836   -1.4305 C   0  0  0  0  0  0  0  0  0  0  0  0
    2.6731   -0.1694   -1.9809 O   0  0  0  0  0  0  0  0  0  0  0  0
    2.0813   -1.4394   -1.8198 C   0  0  0  0  0  0  0  0  0  0  0  0
    0.5714   -1.5675   -2.0398 C   0  0  2  0  0  0  0  0  0  0  0  0
   -0.1639   -0.4213   -2.4750 O   0  0  0  0  0  0  0  0  0  0  0  0
   -0.3874   -0.9018   -1.1432 C   0  0  2  0  0  0  0  0  0  0  0  0
    0.1077   -0.0886    0.0096 C   0  0  2  0  0  0  0  0  0  0  0  0
   -0.2772    1.8530    1.0495 H   0  0  0  0  0  0  0  0  0  0  0  0
   -0.4585    1.9151   -0.7669 H   0  0  0  0  0  0  0  0  0  0  0  0
    1.9911    0.7756    0.7664 H   0  0  0  0  0  0  0  0  0  0  0  0
    1.3299    1.3858   -2.1610 H   0  0  0  0  0  0  0  0  0  0  0  0
    2.8462    1.7115   -1.3066 H   0  0  0  0  0  0  0  0  0  0  0  0
    2.5958   -2.0765   -2.5467 H   0  0  0  0  0  0  0  0  0  0  0  0
    2.3004   -1.8536   -0.8207 H   0  0  0  0  0  0  0  0  0  0  0  0
    0.2678   -2.4988   -2.5212 H   0  0  0  0  0  0  0  0  0  0  0  0
   -1.3704   -1.3548   -1.0050 H   0  0  0  0  0  0  0  0  0  0  0  0
    0.0036   -0.6233    0.9512 H   0  0  0  0  0  0  0  0  0  0  0  0
  1 10  1  0  0  0  0
  2  9  1  0  0  0  0
  2  1  1  0  0  0  0
  2 12  1  1  0  0  0
  3 14  1  0  0  0  0
  3  2  1  0  0  0  0
  4  5  1  0  0  0  0
  4  3  1  0  0  0  0
  5 16  1  0  0  0  0
  6 17  1  6  0  0  0
  6  5  1  0  0  0  0
  6  8  1  0  0  0  0
  7  6  1  0  0  0  0
  7  8  1  0  0  0  0
  8 18  1  1  0  0  0
  8  9  1  0  0  0  0
  9  1  1  0  0  0  0
  9 19  1  1  0  0  0
 11  1  1  0  0  0  0
 13  3  1  0  0  0  0
 15  5  1  0  0  0  0
M TOR 0 0 1 2 3
M TOR 1 0 1 2 12
M TOR 2 0 1 2 13
M TOR 3 0 1 8 7
M TOR 4 0 1 8 18
M TOR 5 0 8 1 2
M TOR 6 0 8 1 11
M TOR 7 0 8 7 5
M TOR 8 0 8 7 6
M TOR 9 0 8 7 17
M TOR 10 1 2 3 4
M TOR 11 1 8 0 9
M TOR 12 1 8 0 10
M TOR 13 1 8 7 5
M TOR 14 1 8 7 6
M TOR 15 1 8 7 17
M TOR 16 2 1 0 9
M TOR 17 2 1 0 10
M TOR 18 2 1 8 7
M TOR 19 2 1 8 18
M TOR 20 2 3 4 5
M TOR 21 2 3 4 14
M TOR 22 2 3 4 15
M TOR 23 3 2 1 8
M TOR 24 3 2 1 11
M TOR 25 3 4 5 6
M TOR 26 3 4 5 7
M TOR 27 3 4 5 16
M TOR 28 4 3 2 12
M TOR 29 4 3 2 13
M TOR 30 4 5 6 7
M TOR 31 4 5 7 8
M TOR 32 4 5 7 17
M TOR 33 5 6 7 8
M TOR 34 5 6 7 17
M TOR 35 5 7 8 18
M TOR 36 6 5 4 14
M TOR 37 6 5 4 15
M TOR 38 6 7 5 16
M TOR 39 6 7 8 18
M TOR 40 7 5 4 14
M TOR 41 7 5 4 15
M TOR 42 7 8 0 9
M TOR 43 7 8 0 10
M TOR 44 7 8 1 11
M TOR 45 8 1 2 12
M TOR 46 8 1 2 13
M TOR 47 8 7 5 16
M  END
$$$$
