
     RDKit          3D

 19 21  0  0  0  0  0  0  0  0999 V2000
    0.1090    0.2540   -0.1879 C   0  0  0  0  0  0  0  0  0  0  0  0
    1.4643   -0.2615    0.2000 C   0  0  0  0  0  0  0  0  0  0  0  0
    1.8294   -0.6074    1.6172 C   0  0  0  0  0  0  0  0  0  0  0  0
    2.5426    0.5322    0.8924 C   0  0  0  0  0  0  0  0  0  0  0  0
    3.8111    0.1522    0.1948 C   0  0  0  0  0  0  0  0  0  0  0  0
    4.8873    1.0942   -0.1260 C   0  0  0  0  0  0  0  0  0  0  0  0
    5.0558    0.0964    0.8906 O   0  0  0  0  0  0  0  0  0  0  0  0
    3.4535   -1.0604   -0.6736 C   0  0  0  0  0  0  0  0  0  0  0  0
    2.0402   -1.0521   -0.8234 O   0  0  0  0  0  0  0  0  0  0  0  0
   -0.3096    0.8753    0.6081 H   0  0  0  0  0  0  0  0  0  0  0  0
    0.1696    0.8498   -1.1039 H   0  0  0  0  0  0  0  0  0  0  0  0
   -0.5784   -0.5788   -0.3685 H   0  0  0  0  0  0  0  0  0  0  0  0
    1.1305   -0.3231    2.3963 H   0  0  0  0  0  0  0  0  0  0  0  0
    2.3832   -1.5174    1.8214 H   0  0  0  0  0  0  0  0  0  0  0  0
    2.3988    1.5550    1.2190 H   0  0  0  0  0  0  0  0  0  0  0  0
    5.4833    0.9501   -1.0270 H   0  0  0  0  0  0  0  0  0  0  0  0
    4.8357    2.1219    0.2332 H   0  0  0  0  0  0  0  0  0  0  0  0
    3.9081   -1.0323   -1.6682 H   0  0  0  0  0  0  0  0  0  0  0  0
    3.7960   -1.9745   -0.1677 H   0  0  0  0  0  0  0  0  0  0  0  0
  1  2  1  0
  2  3  1  0
  3  4  1  0
  4  5  1  0
  5  6  1  0
  6  7  1  0
  5  8  1  0
  8  9  1  0
  4  2  1  0
  7  5  1  0
  9  2  1  0
  1 10  1  0
  1 11  1  0
  1 12  1  0
  3 13  1  0
  3 14  1  0
  4 15  1  0
  6 16  1  0
  6 17  1  0
  8 18  1  0
  8 19  1  0
M  END
$$$$
