
     RDKit          3D

 19 20  0  0  0  0  0  0  0  0999 V2000
    0.9885   -0.6462    4.2137 C   0  0  0  0  0  0  0  0  0  0  0  0
    0.3306    0.3597    3.2926 C   0  0  0  0  0  0  0  0  0  0  0  0
    0.2799    1.5425    3.5427 O   0  0  0  0  0  0  0  0  0  0  0  0
   -0.2668   -0.1617    1.9979 C   0  0  0  0  0  0  0  0  0  0  0  0
   -1.3109   -1.2065    2.1047 C   0  0  0  0  0  0  0  0  0  0  0  0
    0.0130   -1.5349    1.6944 O   0  0  0  0  0  0  0  0  0  0  0  0
   -0.2507    0.8004    0.8485 C   0  0  0  0  0  0  0  0  0  0  0  0
    0.8948    0.7658   -0.1345 C   0  0  0  0  0  0  0  0  0  0  0  0
   -0.4827    0.3210   -0.5580 C   0  0  0  0  0  0  0  0  0  0  0  0
    1.2616   -0.1526    5.1467 H   0  0  0  0  0  0  0  0  0  0  0  0
    0.3401   -1.5039    4.4136 H   0  0  0  0  0  0  0  0  0  0  0  0
    1.8852   -1.0475    3.7288 H   0  0  0  0  0  0  0  0  0  0  0  0
   -1.6105   -1.5947    3.0768 H   0  0  0  0  0  0  0  0  0  0  0  0
   -2.0691   -1.2491    1.3254 H   0  0  0  0  0  0  0  0  0  0  0  0
   -0.6253    1.7802    1.1204 H   0  0  0  0  0  0  0  0  0  0  0  0
    1.2785    1.7105   -0.5019 H   0  0  0  0  0  0  0  0  0  0  0  0
    1.6420   -0.0096   -0.0066 H   0  0  0  0  0  0  0  0  0  0  0  0
   -1.0561    0.9565   -1.2234 H   0  0  0  0  0  0  0  0  0  0  0  0
   -0.6253   -0.7434   -0.7082 H   0  0  0  0  0  0  0  0  0  0  0  0
  1  2  1  0
  2  3  2  0
  2  4  1  0
  4  5  1  0
  5  6  1  0
  4  7  1  0
  7  8  1  0
  8  9  1  0
  6  4  1  0
  9  7  1  0
  1 10  1  0
  1 11  1  0
  1 12  1  0
  5 13  1  0
  5 14  1  0
  7 15  1  0
  8 16  1  0
  8 17  1  0
  9 18  1  0
  9 19  1  0
M  END
$$$$
