gdb 1684	3.4766042	1.1644074	1.1501499	1.9238	75.63	-0.25963	0.00856	0.26819000000000004	1160.4578	0.156169	-422.550535	-422.541938	-422.540994	-422.58366	32.295
 OpenBabel02181911403D

 19 20  0  0  1  0  0  0  0  0999 V2000
   -2.2793    1.4821    0.7159 C   0  0  0  0  0  0  0  0  0  0  0  0
   -1.2442    1.8127   -0.3302 C   0  0  1  0  0  0  0  0  0  0  0  0
   -0.6578    0.6311   -0.9082 O   0  0  0  0  0  0  0  0  0  0  0  0
    0.2064   -0.0700   -0.1559 C   0  0  0  0  0  0  0  0  0  0  0  0
    0.5638    0.1834    0.9606 O   0  0  0  0  0  0  0  0  0  0  0  0
   -1.3651    2.8487   -1.4116 C   0  0  1  0  0  0  0  0  0  0  0  0
   -2.0378    4.1240   -0.8954 C   0  0  0  0  0  0  0  0  0  0  0  0
   -0.9412    4.2380    0.2168 C   0  0  0  0  0  0  0  0  0  0  0  0
   -0.2805    2.9637   -0.3201 C   0  0  1  0  0  0  0  0  0  0  0  0
   -1.8102    1.0045    1.5791 H   0  0  0  0  0  0  0  0  0  0  0  0
   -2.7946    2.3807    1.0606 H   0  0  0  0  0  0  0  0  0  0  0  0
   -3.0303    0.8025    0.2999 H   0  0  0  0  0  0  0  0  0  0  0  0
    0.5427   -0.9392   -0.7437 H   0  0  0  0  0  0  0  0  0  0  0  0
   -1.2677    2.5508   -2.4485 H   0  0  0  0  0  0  0  0  0  0  0  0
   -1.9753    4.9434   -1.6141 H   0  0  0  0  0  0  0  0  0  0  0  0
   -3.0788    4.0326   -0.5698 H   0  0  0  0  0  0  0  0  0  0  0  0
   -0.3124    5.1200    0.0811 H   0  0  0  0  0  0  0  0  0  0  0  0
   -1.2755    4.2112    1.2580 H   0  0  0  0  0  0  0  0  0  0  0  0
    0.7850    2.7830   -0.3816 H   0  0  0  0  0  0  0  0  0  0  0  0
  1 11  1  0  0  0  0
  1 10  1  0  0  0  0
  2  3  1  6  0  0  0
  2  9  1  0  0  0  0
  2  1  1  0  0  0  0
  3  4  1  0  0  0  0
  4  5  2  0  0  0  0
  6 14  1  6  0  0  0
  6  7  1  0  0  0  0
  6  2  1  0  0  0  0
  6  9  1  0  0  0  0
  7 16  1  0  0  0  0
  7  8  1  0  0  0  0
  8 18  1  0  0  0  0
  9 19  1  6  0  0  0
  9  8  1  0  0  0  0
 12  1  1  0  0  0  0
 13  4  1  0  0  0  0
 15  7  1  0  0  0  0
 17  8  1  0  0  0  0
M TOR 0 0 1 2 3
M TOR 1 0 1 5 6
M TOR 2 0 1 5 8
M TOR 3 0 1 5 13
M TOR 4 0 1 8 7
M TOR 5 0 1 8 18
M TOR 6 1 2 3 4
M TOR 7 1 2 3 12
M TOR 8 1 5 6 7
M TOR 9 1 5 6 14
M TOR 10 1 5 6 15
M TOR 11 1 5 8 7
M TOR 12 1 5 8 18
M TOR 13 1 8 5 6
M TOR 14 1 8 5 13
M TOR 15 1 8 7 6
M TOR 16 1 8 7 16
M TOR 17 1 8 7 17
M TOR 18 2 1 0 9
M TOR 19 2 1 0 10
M TOR 20 2 1 0 11
M TOR 21 2 1 5 6
M TOR 22 2 1 5 8
M TOR 23 2 1 5 13
M TOR 24 2 1 8 7
M TOR 25 2 1 8 18
M TOR 26 3 2 1 5
M TOR 27 3 2 1 8
M TOR 28 5 1 0 9
M TOR 29 5 1 0 10
M TOR 30 5 1 0 11
M TOR 31 5 6 7 8
M TOR 32 5 6 7 16
M TOR 33 5 6 7 17
M TOR 34 5 8 7 16
M TOR 35 5 8 7 17
M TOR 36 6 5 8 18
M TOR 37 6 7 8 18
M TOR 38 7 6 5 13
M TOR 39 7 8 5 13
M TOR 40 8 1 0 9
M TOR 41 8 1 0 10
M TOR 42 8 1 0 11
M TOR 43 8 5 6 14
M TOR 44 8 5 6 15
M TOR 45 8 7 6 14
M TOR 46 8 7 6 15
M  END
$$$$
