
     RDKit          3D

 19 21  0  0  0  0  0  0  0  0999 V2000
    0.4498   -1.6736   -2.8382 C   0  0  0  0  0  0  0  0  0  0  0  0
    1.3122   -0.9443   -1.7690 C   0  0  0  0  0  0  0  0  0  0  0  0
    0.6326   -1.0900   -0.3910 C   0  0  0  0  0  0  0  0  0  0  0  0
   -0.6594   -0.2529   -0.4589 C   0  0  0  0  0  0  0  0  0  0  0  0
   -0.2998    1.2311   -0.4628 C   0  0  0  0  0  0  0  0  0  0  0  0
    0.5991    1.5043   -1.5425 O   0  0  0  0  0  0  0  0  0  0  0  0
    0.7753    0.3922   -2.3795 C   0  0  0  0  0  0  0  0  0  0  0  0
   -0.4786   -0.4361   -2.7940 C   0  0  0  0  0  0  0  0  0  0  0  0
   -1.3664   -0.5268   -1.6758 O   0  0  0  0  0  0  0  0  0  0  0  0
    0.9638   -1.7726   -3.7984 H   0  0  0  0  0  0  0  0  0  0  0  0
   -0.0064   -2.6255   -2.5580 H   0  0  0  0  0  0  0  0  0  0  0  0
    2.3885   -1.1234   -1.7421 H   0  0  0  0  0  0  0  0  0  0  0  0
    0.4164   -2.1408   -0.1721 H   0  0  0  0  0  0  0  0  0  0  0  0
    1.2714   -0.7075    0.4123 H   0  0  0  0  0  0  0  0  0  0  0  0
   -1.3498   -0.4764    0.3581 H   0  0  0  0  0  0  0  0  0  0  0  0
   -1.2114    1.8293   -0.5899 H   0  0  0  0  0  0  0  0  0  0  0  0
    0.1838    1.5260    0.4780 H   0  0  0  0  0  0  0  0  0  0  0  0
    1.3551    0.7253   -3.2418 H   0  0  0  0  0  0  0  0  0  0  0  0
   -1.0738   -0.1565   -3.6654 H   0  0  0  0  0  0  0  0  0  0  0  0
  1  2  1  0
  2  3  1  0
  3  4  1  0
  4  5  1  0
  5  6  1  0
  6  7  1  0
  7  8  1  0
  8  9  1  0
  8  1  1  0
  7  2  1  0
  9  4  1  0
  1 10  1  0
  1 11  1  0
  2 12  1  0
  3 13  1  0
  3 14  1  0
  4 15  1  0
  5 16  1  0
  5 17  1  0
  7 18  1  0
  8 19  1  0
M  END
$$$$
