gdb 2471	2.7311702	1.6892258	1.3548497	1.7768	76.72	-0.23773	0.00353	0.24126	1010.4742	0.157784	-422.555833	-422.54784	-422.546895	-422.588085	30.678
 OpenBabel02181911413D

 19 20  0  0  1  0  0  0  0  0999 V2000
   -0.1552    1.6561   -0.0172 C   0  0  0  0  0  0  0  0  0  0  0  0
    0.0117    0.1326   -0.0089 C   0  0  2  0  0  0  0  0  0  0  0  0
   -1.3374   -0.5874    0.1806 C   0  0  0  0  0  0  0  0  0  0  0  0
   -1.5545   -0.5436    1.5990 O   0  0  0  0  0  0  0  0  0  0  0  0
   -0.2907   -0.5811    2.2921 C   0  0  0  0  0  0  0  0  0  0  0  0
    0.7205   -0.4218    1.2054 C   0  0  1  0  0  3  0  0  0  0  0  0
    1.9091   -0.8947    0.8598 C   0  0  0  0  0  3  0  0  0  0  0  0
    2.0940   -0.6901   -0.6278 C   0  0  0  0  0  0  0  0  0  0  0  0
    0.8070   -0.2876   -1.1129 O   0  0  0  0  0  0  0  0  0  0  0  0
    0.8128    2.1546    0.0864 H   0  0  0  0  0  0  0  0  0  0  0  0
   -0.6067    1.9708   -0.9630 H   0  0  0  0  0  0  0  0  0  0  0  0
   -0.8061    1.9781    0.8012 H   0  0  0  0  0  0  0  0  0  0  0  0
   -2.1925   -0.0939   -0.2888 H   0  0  0  0  0  0  0  0  0  0  0  0
   -1.2618   -1.6192   -0.1914 H   0  0  0  0  0  0  0  0  0  0  0  0
   -0.2857    0.2315    3.0297 H   0  0  0  0  0  0  0  0  0  0  0  0
   -0.1757   -1.5299    2.8326 H   0  0  0  0  0  0  0  0  0  0  0  0
    2.6271   -1.4163    1.4803 H   0  0  0  0  0  0  0  0  0  0  0  0
    2.8542    0.0701   -0.8726 H   0  0  0  0  0  0  0  0  0  0  0  0
    2.3900   -1.6188   -1.1340 H   0  0  0  0  0  0  0  0  0  0  0  0
  1 10  1  0  0  0  0
  1 12  1  0  0  0  0
  2  1  1  1  0  0  0
  2  3  1  0  0  0  0
  2  6  1  0  0  0  0
  3  4  1  0  0  0  0
  4  5  1  0  0  0  0
  5 16  1  0  0  0  0
  5 15  1  0  0  0  0
  6  7  1  6  0  0  0
  6  5  1  0  0  0  0
  7 17  1  0  0  0  0
  8  7  1  0  0  0  0
  9  8  1  0  0  0  0
  9  2  1  0  0  0  0
 11  1  1  0  0  0  0
 13  3  1  0  0  0  0
 14  3  1  0  0  0  0
 18  8  1  0  0  0  0
 19  8  1  0  0  0  0
M TOR 0 0 1 2 3
M TOR 1 0 1 2 12
M TOR 2 0 1 2 13
M TOR 3 0 1 5 4
M TOR 4 0 1 5 6
M TOR 5 0 1 8 7
M TOR 6 1 2 3 4
M TOR 7 1 5 4 3
M TOR 8 1 5 4 14
M TOR 9 1 5 4 15
M TOR 10 1 5 6 7
M TOR 11 1 5 6 16
M TOR 12 1 8 7 6
M TOR 13 1 8 7 17
M TOR 14 1 8 7 18
M TOR 15 2 1 0 9
M TOR 16 2 1 0 10
M TOR 17 2 1 0 11
M TOR 18 2 1 5 4
M TOR 19 2 1 5 6
M TOR 20 2 1 8 7
M TOR 21 2 3 4 5
M TOR 22 2 3 4 14
M TOR 23 2 3 4 15
M TOR 24 3 2 1 5
M TOR 25 3 2 1 8
M TOR 26 3 4 5 6
M TOR 27 4 3 2 12
M TOR 28 4 3 2 13
M TOR 29 4 5 1 8
M TOR 30 4 5 6 7
M TOR 31 4 5 6 16
M TOR 32 5 1 0 9
M TOR 33 5 1 0 10
M TOR 34 5 1 0 11
M TOR 35 5 1 2 12
M TOR 36 5 1 2 13
M TOR 37 5 1 8 7
M TOR 38 5 6 7 8
M TOR 39 5 6 7 17
M TOR 40 5 6 7 18
M TOR 41 6 5 1 8
M TOR 42 6 5 4 14
M TOR 43 6 5 4 15
M TOR 44 8 1 0 9
M TOR 45 8 1 0 10
M TOR 46 8 1 0 11
M TOR 47 8 1 2 12
M TOR 48 8 1 2 13
M TOR 49 8 7 6 16
M  END
$$$$
