gdb 887	3.1382271	1.213826	0.9393143	3.131	77.93	-0.24099	-0.02807	0.21292	1249.1643	0.156862	-422.561862	-422.553325	-422.552381	-422.595341	31.621
 OpenBabel02181911403D

 19 19  0  0  1  0  0  0  0  0999 V2000
    0.9678   -0.8619   -0.2620 O   0  0  0  0  0  0  0  0  0  0  0  0
    0.2741    0.0757    0.0263 C   0  0  0  0  0  0  0  0  0  0  0  0
    0.2921    1.4223   -0.7032 C   0  0  2  0  0  0  0  0  0  0  0  0
   -0.9270    2.0591   -0.3833 O   0  0  0  0  0  0  0  0  0  0  0  0
   -0.9092    3.4777   -0.4008 C   0  0  0  0  0  0  0  0  0  0  0  0
   -0.3601    4.0836   -1.6977 C   0  0  0  0  0  0  0  0  0  0  0  0
   -0.7569    3.2982   -2.9590 C   0  0  0  0  0  0  0  0  0  0  0  0
    0.0283    2.0198   -3.1444 C   0  0  0  0  0  0  0  0  0  0  0  0
    0.5208    1.2394   -2.1846 C   0  0  0  0  0  0  0  0  0  0  0  0
   -0.4418    0.0575    0.8764 H   0  0  0  0  0  0  0  0  0  0  0  0
    1.1424    1.9683   -0.2464 H   0  0  0  0  0  0  0  0  0  0  0  0
   -1.9570    3.7636   -0.2628 H   0  0  0  0  0  0  0  0  0  0  0  0
   -0.3422    3.8629    0.4626 H   0  0  0  0  0  0  0  0  0  0  0  0
   -0.7220    5.1165   -1.7635 H   0  0  0  0  0  0  0  0  0  0  0  0
    0.7336    4.1428   -1.6553 H   0  0  0  0  0  0  0  0  0  0  0  0
   -1.8347    3.0832   -2.9472 H   0  0  0  0  0  0  0  0  0  0  0  0
   -0.5914    3.9320   -3.8375 H   0  0  0  0  0  0  0  0  0  0  0  0
    0.2225    1.7321   -4.1755 H   0  0  0  0  0  0  0  0  0  0  0  0
    1.1054    0.3587   -2.4348 H   0  0  0  0  0  0  0  0  0  0  0  0
  1  2  2  0  0  0  0
  2 10  1  0  0  0  0
  3  4  1  0  0  0  0
  3 11  1  1  0  0  0
  3  2  1  0  0  0  0
  5  4  1  0  0  0  0
  5 12  1  0  0  0  0
  5 13  1  0  0  0  0
  6 15  1  0  0  0  0
  6  5  1  0  0  0  0
  7 16  1  0  0  0  0
  7  6  1  0  0  0  0
  8  7  1  0  0  0  0
  8  9  2  0  0  0  0
  9  3  1  0  0  0  0
 14  6  1  0  0  0  0
 17  7  1  0  0  0  0
 18  8  1  0  0  0  0
 19  9  1  0  0  0  0
M TOR 0 0 1 2 3
M TOR 1 0 1 2 8
M TOR 2 0 1 2 10
M TOR 3 1 2 3 4
M TOR 4 1 2 8 7
M TOR 5 1 2 8 18
M TOR 6 2 3 4 5
M TOR 7 2 3 4 11
M TOR 8 2 3 4 12
M TOR 9 2 8 7 6
M TOR 10 2 8 7 17
M TOR 11 3 2 1 9
M TOR 12 3 2 8 7
M TOR 13 3 2 8 18
M TOR 14 3 4 5 6
M TOR 15 3 4 5 13
M TOR 16 3 4 5 14
M TOR 17 4 3 2 8
M TOR 18 4 3 2 10
M TOR 19 4 5 6 7
M TOR 20 4 5 6 15
M TOR 21 4 5 6 16
M TOR 22 5 6 7 8
M TOR 23 5 6 7 17
M TOR 24 6 5 4 11
M TOR 25 6 5 4 12
M TOR 26 6 7 8 18
M TOR 27 7 6 5 13
M TOR 28 7 6 5 14
M TOR 29 7 8 2 10
M TOR 30 8 2 1 9
M TOR 31 8 7 6 15
M TOR 32 8 7 6 16
M  END
$$$$
