
     RDKit          3D

 19 20  0  0  0  0  0  0  0  0999 V2000
   -2.4080    1.5927    0.9918 O   0  0  0  0  0  0  0  0  0  0  0  0
   -1.8012    0.5723    1.7079 C   0  0  0  0  0  0  0  0  0  0  0  0
   -0.4425    0.6769    2.2828 C   0  0  0  0  0  0  0  0  0  0  0  0
   -0.6436   -0.2386    1.0666 C   0  0  0  0  0  0  0  0  0  0  0  0
   -0.6953   -1.6901    1.3650 C   0  0  0  0  0  0  0  0  0  0  0  0
   -0.9448   -2.1561    2.4547 O   0  0  0  0  0  0  0  0  0  0  0  0
   -0.2038    0.1555   -0.3148 C   0  0  0  0  0  0  0  0  0  0  0  0
    1.1945   -0.1565   -0.7990 C   0  0  0  0  0  0  0  0  0  0  0  0
    0.7804    1.2738   -0.5886 C   0  0  0  0  0  0  0  0  0  0  0  0
   -1.7255    2.1494    0.6021 H   0  0  0  0  0  0  0  0  0  0  0  0
   -2.5401   -0.0129    2.2437 H   0  0  0  0  0  0  0  0  0  0  0  0
    0.1124    1.5959    2.1254 H   0  0  0  0  0  0  0  0  0  0  0  0
   -0.2486    0.1636    3.2184 H   0  0  0  0  0  0  0  0  0  0  0  0
   -0.5065   -2.3501    0.4895 H   0  0  0  0  0  0  0  0  0  0  0  0
   -0.9839    0.0493   -1.0652 H   0  0  0  0  0  0  0  0  0  0  0  0
    1.8880   -0.5833   -0.0825 H   0  0  0  0  0  0  0  0  0  0  0  0
    1.3194   -0.5182   -1.8131 H   0  0  0  0  0  0  0  0  0  0  0  0
    1.2188    1.8005    0.2518 H   0  0  0  0  0  0  0  0  0  0  0  0
    0.6089    1.8949   -1.4609 H   0  0  0  0  0  0  0  0  0  0  0  0
  1  2  1  0
  2  3  1  0
  3  4  1  0
  4  5  1  0
  5  6  2  0
  4  7  1  0
  7  8  1  0
  8  9  1  0
  4  2  1  0
  9  7  1  0
  1 10  1  0
  2 11  1  0
  3 12  1  0
  3 13  1  0
  5 14  1  0
  7 15  1  0
  8 16  1  0
  8 17  1  0
  9 18  1  0
  9 19  1  0
M  END
$$$$
