gdb 1199	2.763487	1.1165108	0.8516797	1.5717	77.88	-0.25225	0.02314	0.27538999999999997	1347.5032	0.154828	-422.51328	-422.503528	-422.502584	-422.548024	35.95
 OpenBabel02181911403D

 19 19  0  0  1  0  0  0  0  0999 V2000
    0.7671    2.6978    2.5383 O   0  0  0  0  0  0  0  0  0  0  0  0
   -0.1681    1.6350    2.3003 C   0  0  1  0  0  0  0  0  0  0  0  0
   -1.5077    1.9708    2.7835 C   0  0  0  0  0  0  0  0  0  0  0  0
   -2.6132    2.2834    3.1387 C   0  0  0  0  0  0  0  0  0  0  0  0
   -0.1538    1.2606    0.8209 C   0  0  2  0  0  0  0  0  0  0  0  0
   -0.7379   -0.0821    0.3053 C   0  0  0  0  0  0  0  0  0  0  0  0
    0.4633   -0.1614   -0.6827 C   0  0  0  0  0  0  0  0  0  0  0  0
    1.2131    0.8259    0.2328 C   0  0  1  0  0  0  0  0  0  0  0  0
    2.0134    1.7826   -0.4098 O   0  0  0  0  0  0  0  0  0  0  0  0
    0.3367    3.5193    2.2755 H   0  0  0  0  0  0  0  0  0  0  0  0
    0.2216    0.7891    2.8816 H   0  0  0  0  0  0  0  0  0  0  0  0
   -3.5874    2.5471    3.4699 H   0  0  0  0  0  0  0  0  0  0  0  0
   -0.5446    2.0956    0.2283 H   0  0  0  0  0  0  0  0  0  0  0  0
   -0.6916   -0.8659    1.0678 H   0  0  0  0  0  0  0  0  0  0  0  0
   -1.7442   -0.0646   -0.1144 H   0  0  0  0  0  0  0  0  0  0  0  0
    0.9198   -1.1346   -0.8727 H   0  0  0  0  0  0  0  0  0  0  0  0
    0.2285    0.3195   -1.6362 H   0  0  0  0  0  0  0  0  0  0  0  0
    1.7833    0.2766    0.9994 H   0  0  0  0  0  0  0  0  0  0  0  0
    2.3200    2.3888    0.2743 H   0  0  0  0  0  0  0  0  0  0  0  0
  2  1  1  0  0  0  0
  2  3  1  0  0  0  0
  2 11  1  1  0  0  0
  3  4  3  0  0  0  0
  4 12  1  0  0  0  0
  5 13  1  6  0  0  0
  5  2  1  0  0  0  0
  6  5  1  0  0  0  0
  6 14  1  0  0  0  0
  7  8  1  0  0  0  0
  7  6  1  0  0  0  0
  8  5  1  0  0  0  0
  8 18  1  1  0  0  0
  9  8  1  0  0  0  0
  9 19  1  0  0  0  0
 10  1  1  0  0  0  0
 15  6  1  0  0  0  0
 16  7  1  0  0  0  0
 17  7  1  0  0  0  0
M TOR 0 0 1 2 3
M TOR 1 0 1 4 5
M TOR 2 0 1 4 7
M TOR 3 0 1 4 12
M TOR 4 1 2 3 11
M TOR 5 1 4 5 6
M TOR 6 1 4 5 13
M TOR 7 1 4 5 14
M TOR 8 1 4 7 6
M TOR 9 1 4 7 8
M TOR 10 1 4 7 17
M TOR 11 2 1 0 9
M TOR 12 2 1 4 5
M TOR 13 2 1 4 7
M TOR 14 2 1 4 12
M TOR 15 3 2 1 4
M TOR 16 3 2 1 10
M TOR 17 4 1 0 9
M TOR 18 4 5 6 7
M TOR 19 4 5 6 15
M TOR 20 4 5 6 16
M TOR 21 4 7 6 15
M TOR 22 4 7 6 16
M TOR 23 4 7 8 18
M TOR 24 5 4 1 10
M TOR 25 5 4 7 8
M TOR 26 5 4 7 17
M TOR 27 5 6 7 8
M TOR 28 5 6 7 17
M TOR 29 6 5 4 12
M TOR 30 6 7 4 12
M TOR 31 6 7 8 18
M TOR 32 7 4 1 10
M TOR 33 7 4 5 13
M TOR 34 7 4 5 14
M TOR 35 7 6 5 13
M TOR 36 7 6 5 14
M TOR 37 8 7 4 12
M TOR 38 8 7 6 15
M TOR 39 8 7 6 16
M  END
$$$$
