
     RDKit          3D

 19 20  0  0  0  0  0  0  0  0999 V2000
    1.4922   -0.0332   -0.0177 C   0  0  0  0  0  0  0  0  0  0  0  0
    0.0927   -0.0712    0.1653 O   0  0  0  0  0  0  0  0  0  0  0  0
   -0.4070    0.5282    1.3332 C   0  0  0  0  0  0  0  0  0  0  0  0
    0.0785   -0.2030    2.5788 C   0  0  0  0  0  0  0  0  0  0  0  0
   -1.9322    0.8616    1.0862 C   0  0  0  0  0  0  0  0  0  0  0  0
   -1.4935    1.9636    0.2363 O   0  0  0  0  0  0  0  0  0  0  0  0
   -0.4614    2.1234    1.2527 C   0  0  0  0  0  0  0  0  0  0  0  0
   -1.2950    2.4614    2.4926 C   0  0  0  0  0  0  0  0  0  0  0  0
   -2.3090    1.5973    2.3763 C   0  0  0  0  0  0  0  0  0  0  0  0
    2.0307   -0.6770    0.6916 H   0  0  0  0  0  0  0  0  0  0  0  0
    1.6838   -0.3973   -1.0298 H   0  0  0  0  0  0  0  0  0  0  0  0
    1.8912    0.9878    0.0662 H   0  0  0  0  0  0  0  0  0  0  0  0
   -0.1122   -1.2749    2.4647 H   0  0  0  0  0  0  0  0  0  0  0  0
    1.1565   -0.0703    2.7136 H   0  0  0  0  0  0  0  0  0  0  0  0
   -0.4148    0.1501    3.4829 H   0  0  0  0  0  0  0  0  0  0  0  0
   -2.6135    0.1576    0.6109 H   0  0  0  0  0  0  0  0  0  0  0  0
    0.3790    2.7513    0.9591 H   0  0  0  0  0  0  0  0  0  0  0  0
   -1.0672    3.1869    3.2597 H   0  0  0  0  0  0  0  0  0  0  0  0
   -3.1571    1.4088    3.0177 H   0  0  0  0  0  0  0  0  0  0  0  0
  1  2  1  0
  2  3  1  0
  3  4  1  0
  3  5  1  0
  5  6  1  0
  6  7  1  0
  7  8  1  0
  8  9  2  0
  7  3  1  0
  9  5  1  0
  1 10  1  0
  1 11  1  0
  1 12  1  0
  4 13  1  0
  4 14  1  0
  4 15  1  0
  5 16  1  0
  7 17  1  0
  8 18  1  0
  9 19  1  0
M  END
$$$$
