gdb 3059	2.940374	1.4200146	1.1842065	2.4988	75.28	-0.23408	-0.01548	0.21860000000000002	1101.0145	0.157695	-422.568941	-422.56072	-422.559776	-422.601363	31.823
 OpenBabel02181911413D

 19 20  0  0  1  0  0  0  0  0999 V2000
   -2.6724   -1.4700    1.7208 C   0  0  0  0  0  0  0  0  0  0  0  0
   -1.6217   -0.5226    1.1557 C   0  0  2  0  0  0  0  0  0  0  0  0
   -2.0441    0.4029   -0.0319 C   0  0  2  0  0  0  0  0  0  0  0  0
   -1.7432   -0.7903   -0.9813 C   0  0  0  0  0  0  0  0  0  0  0  0
   -0.6309   -1.1162    0.0835 C   0  0  1  0  0  0  0  0  0  0  0  0
    0.2503    0.0887   -0.1525 C   0  0  0  0  0  0  0  0  0  0  0  0
    1.4287    0.1799   -0.3813 O   0  0  0  0  0  0  0  0  0  0  0  0
   -0.7762    1.2564   -0.1818 C   0  0  1  0  0  0  0  0  0  0  0  0
   -0.7082    1.9633   -1.4011 O   0  0  0  0  0  0  0  0  0  0  0  0
   -2.2110   -2.1904    2.4040 H   0  0  0  0  0  0  0  0  0  0  0  0
   -3.4209   -0.9075    2.2892 H   0  0  0  0  0  0  0  0  0  0  0  0
   -3.2002   -2.0358    0.9490 H   0  0  0  0  0  0  0  0  0  0  0  0
   -1.1306   -0.0038    1.9885 H   0  0  0  0  0  0  0  0  0  0  0  0
   -2.9994    0.9271   -0.0406 H   0  0  0  0  0  0  0  0  0  0  0  0
   -2.5266   -1.5463   -1.0030 H   0  0  0  0  0  0  0  0  0  0  0  0
   -1.4236   -0.5516   -1.9971 H   0  0  0  0  0  0  0  0  0  0  0  0
   -0.1527   -2.0899    0.1737 H   0  0  0  0  0  0  0  0  0  0  0  0
   -0.6344    1.9300    0.6781 H   0  0  0  0  0  0  0  0  0  0  0  0
    0.2293    2.0674   -1.6079 H   0  0  0  0  0  0  0  0  0  0  0  0
  1 11  1  0  0  0  0
  1 10  1  0  0  0  0
  2  1  1  0  0  0  0
  2 13  1  1  0  0  0
  3 14  1  6  0  0  0
  3  2  1  0  0  0  0
  4  3  1  0  0  0  0
  4  5  1  0  0  0  0
  5 17  1  1  0  0  0
  5  2  1  0  0  0  0
  6  5  1  0  0  0  0
  7  6  2  0  0  0  0
  8  6  1  0  0  0  0
  8  3  1  0  0  0  0
  8 18  1  1  0  0  0
  9  8  1  0  0  0  0
 12  1  1  0  0  0  0
 15  4  1  0  0  0  0
 16  4  1  0  0  0  0
 19  9  1  0  0  0  0
M TOR 0 0 1 2 3
M TOR 1 0 1 2 7
M TOR 2 0 1 2 13
M TOR 3 0 1 4 3
M TOR 4 0 1 4 5
M TOR 5 0 1 4 16
M TOR 6 1 2 3 4
M TOR 7 1 2 3 14
M TOR 8 1 2 3 15
M TOR 9 1 2 7 5
M TOR 10 1 2 7 8
M TOR 11 1 2 7 17
M TOR 12 1 4 3 14
M TOR 13 1 4 3 15
M TOR 14 1 4 5 6
M TOR 15 1 4 5 7
M TOR 16 2 1 0 9
M TOR 17 2 1 0 10
M TOR 18 2 1 0 11
M TOR 19 2 1 4 5
M TOR 20 2 1 4 16
M TOR 21 2 3 4 5
M TOR 22 2 3 4 16
M TOR 23 2 7 5 4
M TOR 24 2 7 5 6
M TOR 25 2 7 8 18
M TOR 26 3 2 1 12
M TOR 27 3 2 7 5
M TOR 28 3 2 7 8
M TOR 29 3 2 7 17
M TOR 30 3 4 1 12
M TOR 31 3 4 5 6
M TOR 32 3 4 5 7
M TOR 33 4 1 0 9
M TOR 34 4 1 0 10
M TOR 35 4 1 0 11
M TOR 36 4 1 2 7
M TOR 37 4 1 2 13
M TOR 38 4 3 2 7
M TOR 39 4 3 2 13
M TOR 40 4 5 7 8
M TOR 41 4 5 7 17
M TOR 42 5 4 1 12
M TOR 43 5 4 3 14
M TOR 44 5 4 3 15
M TOR 45 5 7 2 13
M TOR 46 5 7 8 18
M TOR 47 6 5 4 16
M TOR 48 6 5 7 8
M TOR 49 6 5 7 17
M TOR 50 7 2 1 12
M TOR 51 7 2 3 14
M TOR 52 7 2 3 15
M TOR 53 7 5 4 16
M TOR 54 8 7 2 13
M  END
$$$$
