gdb 790	2.5081088	1.2200804	0.9598942	2.1878	76.62	-0.25181	-0.0188	0.23300999999999997	1271.8376	0.15533	-422.53279	-422.52374	-422.522796	-422.567193	32.867
 OpenBabel02181911403D

 19 20  0  0  1  0  0  0  0  0999 V2000
    0.6839    0.1421   -0.9208 O   0  0  0  0  0  0  0  0  0  0  0  0
    0.4246   -0.1000    0.2342 C   0  0  0  0  0  0  0  0  0  0  0  0
   -0.4019    0.7586    1.1132 C   0  0  0  0  0  0  0  0  0  0  0  0
   -0.9376    2.0380    0.4930 C   0  0  0  0  0  0  0  0  0  0  0  0
   -2.0697    1.7898   -0.4783 C   0  0  2  0  0  0  0  0  0  0  0  0
   -3.1796    2.7368   -0.6296 C   0  0  0  0  0  0  0  0  0  0  0  0
   -3.3531    1.5223    0.1042 O   0  0  0  0  0  0  0  0  0  0  0  0
   -1.2469    0.0170    2.1479 C   0  0  0  0  0  0  0  0  0  0  0  0
   -0.0187    0.7310    2.5921 C   0  0  0  0  0  0  0  0  0  0  0  0
    0.8096   -1.0235    0.7278 H   0  0  0  0  0  0  0  0  0  0  0  0
   -1.2935    2.7088    1.2822 H   0  0  0  0  0  0  0  0  0  0  0  0
   -0.1223    2.5456   -0.0354 H   0  0  0  0  0  0  0  0  0  0  0  0
   -1.8243    1.1491   -1.3239 H   0  0  0  0  0  0  0  0  0  0  0  0
   -3.1919    3.6489   -0.0333 H   0  0  0  0  0  0  0  0  0  0  0  0
   -3.7203    2.7949   -1.5731 H   0  0  0  0  0  0  0  0  0  0  0  0
   -2.2181    0.4535    2.3462 H   0  0  0  0  0  0  0  0  0  0  0  0
   -1.2339   -1.0678    2.1269 H   0  0  0  0  0  0  0  0  0  0  0  0
   -0.1184    1.6686    3.1273 H   0  0  0  0  0  0  0  0  0  0  0  0
    0.8469    0.1420    2.8774 H   0  0  0  0  0  0  0  0  0  0  0  0
  1  2  2  0  0  0  0
  2 10  1  0  0  0  0
  2  3  1  0  0  0  0
  3  8  1  0  0  0  0
  3  9  1  0  0  0  0
  4  3  1  0  0  0  0
  4 11  1  0  0  0  0
  5 13  1  6  0  0  0
  5  7  1  0  0  0  0
  5  4  1  0  0  0  0
  6  5  1  0  0  0  0
  6 14  1  0  0  0  0
  6  7  1  0  0  0  0
  8 16  1  0  0  0  0
  8  9  1  0  0  0  0
  9 19  1  0  0  0  0
  9 18  1  0  0  0  0
 12  4  1  0  0  0  0
 15  6  1  0  0  0  0
 17  8  1  0  0  0  0
M TOR 0 0 1 2 3
M TOR 1 0 1 2 7
M TOR 2 0 1 2 8
M TOR 3 1 2 3 4
M TOR 4 1 2 3 10
M TOR 5 1 2 3 11
M TOR 6 1 2 7 8
M TOR 7 1 2 7 15
M TOR 8 1 2 7 16
M TOR 9 1 2 8 17
M TOR 10 1 2 8 18
M TOR 11 2 3 4 5
M TOR 12 2 3 4 6
M TOR 13 2 3 4 12
M TOR 14 2 7 8 17
M TOR 15 2 7 8 18
M TOR 16 2 8 7 15
M TOR 17 2 8 7 16
M TOR 18 3 2 1 9
M TOR 19 3 2 7 8
M TOR 20 3 2 7 15
M TOR 21 3 2 7 16
M TOR 22 3 2 8 17
M TOR 23 3 2 8 18
M TOR 24 3 4 5 6
M TOR 25 3 4 5 13
M TOR 26 3 4 5 14
M TOR 27 4 3 2 7
M TOR 28 4 3 2 8
M TOR 29 4 6 5 13
M TOR 30 4 6 5 14
M TOR 31 5 4 3 10
M TOR 32 5 4 3 11
M TOR 33 5 6 4 12
M TOR 34 6 4 3 10
M TOR 35 6 4 3 11
M TOR 36 7 2 1 9
M TOR 37 7 2 3 10
M TOR 38 7 2 3 11
M TOR 39 8 2 1 9
M TOR 40 8 2 3 10
M TOR 41 8 2 3 11
M  END
$$$$
