
     RDKit          3D

 19 21  0  0  0  0  0  0  0  0999 V2000
    0.1230    0.1624   -0.0464 C   0  0  0  0  0  0  0  0  0  0  0  0
    1.6336    0.1199    0.0605 C   0  0  0  0  0  0  0  0  0  0  0  0
    2.2501   -1.0289    0.8257 C   0  0  0  0  0  0  0  0  0  0  0  0
    2.3597   -0.9685   -0.6967 C   0  0  0  0  0  0  0  0  0  0  0  0
    3.8882   -0.9458   -0.8040 C   0  0  0  0  0  0  0  0  0  0  0  0
    4.2823   -1.9986    0.1673 O   0  0  0  0  0  0  0  0  0  0  0  0
    3.7473   -1.0233    1.1521 C   0  0  0  0  0  0  0  0  0  0  0  0
    4.3962    0.0701    0.2575 C   0  0  0  0  0  0  0  0  0  0  0  0
    5.7892    0.1425    0.3607 O   0  0  0  0  0  0  0  0  0  0  0  0
   -0.3191    0.6473    0.8302 H   0  0  0  0  0  0  0  0  0  0  0  0
   -0.1921    0.7202   -0.9346 H   0  0  0  0  0  0  0  0  0  0  0  0
   -0.2979   -0.8460   -0.1183 H   0  0  0  0  0  0  0  0  0  0  0  0
    2.0844    1.1033    0.1320 H   0  0  0  0  0  0  0  0  0  0  0  0
    1.6073   -1.7415    1.3299 H   0  0  0  0  0  0  0  0  0  0  0  0
    1.7997   -1.6355   -1.3422 H   0  0  0  0  0  0  0  0  0  0  0  0
    4.3590   -1.0577   -1.7805 H   0  0  0  0  0  0  0  0  0  0  0  0
    4.0742   -1.2145    2.1741 H   0  0  0  0  0  0  0  0  0  0  0  0
    4.0285    1.0947    0.2717 H   0  0  0  0  0  0  0  0  0  0  0  0
    6.0944   -0.7753    0.3463 H   0  0  0  0  0  0  0  0  0  0  0  0
  1  2  1  0
  2  3  1  0
  3  4  1  0
  4  5  1  0
  5  6  1  0
  6  7  1  0
  7  8  1  0
  8  9  1  0
  4  2  1  0
  8  5  1  0
  7  3  1  0
  1 10  1  0
  1 11  1  0
  1 12  1  0
  2 13  1  0
  3 14  1  0
  4 15  1  0
  5 16  1  0
  7 17  1  0
  8 18  1  0
  9 19  1  0
M  END
$$$$
