gdb 3419	2.1754473	1.6726743	1.4350179	3.7259	74.46	-0.23048	-0.00749	0.22299	1028.4452	0.15864	-422.575027	-422.567063	-422.566119	-422.607149	31.055
 OpenBabel02181911413D

 19 20  0  0  1  0  0  0  0  0999 V2000
   -1.5570    0.0376   -2.1036 O   0  0  0  0  0  0  0  0  0  0  0  0
   -1.8505   -0.0314   -0.7234 C   0  0  2  0  0  0  0  0  0  0  0  0
   -1.0177    1.0653   -0.0008 C   0  0  1  0  0  0  0  0  0  0  0  0
   -1.5220    1.2875    1.4477 C   0  0  0  0  0  0  0  0  0  0  0  0
   -2.1491   -0.0071    2.0191 C   0  0  0  0  0  0  0  0  0  0  0  0
   -1.4815   -1.2967    1.4825 C   0  0  0  0  0  0  0  0  0  0  0  0
   -0.9843   -1.0961    0.0273 C   0  0  2  0  0  0  0  0  0  0  0  0
    0.0921    0.0028    0.0722 C   0  0  0  0  0  0  0  0  0  0  0  0
    1.2864    0.0200    0.1248 O   0  0  0  0  0  0  0  0  0  0  0  0
   -1.8262   -0.7916   -2.5121 H   0  0  0  0  0  0  0  0  0  0  0  0
   -2.9306   -0.0460   -0.5378 H   0  0  0  0  0  0  0  0  0  0  0  0
   -0.8268    1.9939   -0.5403 H   0  0  0  0  0  0  0  0  0  0  0  0
   -0.6774    1.6207    2.0609 H   0  0  0  0  0  0  0  0  0  0  0  0
   -2.2608    2.0956    1.4664 H   0  0  0  0  0  0  0  0  0  0  0  0
   -2.1227    0.0075    3.1126 H   0  0  0  0  0  0  0  0  0  0  0  0
   -3.2089   -0.0270    1.7458 H   0  0  0  0  0  0  0  0  0  0  0  0
   -0.6275   -1.5871    2.1045 H   0  0  0  0  0  0  0  0  0  0  0  0
   -2.1948   -2.1269    1.5243 H   0  0  0  0  0  0  0  0  0  0  0  0
   -0.7588   -2.0381   -0.4788 H   0  0  0  0  0  0  0  0  0  0  0  0
  1  2  1  0  0  0  0
  2 11  1  1  0  0  0
  2  3  1  0  0  0  0
  2  7  1  0  0  0  0
  3 12  1  6  0  0  0
  3  8  1  0  0  0  0
  3  4  1  0  0  0  0
  4 14  1  0  0  0  0
  4  5  1  0  0  0  0
  4 13  1  0  0  0  0
  5 15  1  0  0  0  0
  6 18  1  0  0  0  0
  6  5  1  0  0  0  0
  6 17  1  0  0  0  0
  7 19  1  6  0  0  0
  7  8  1  0  0  0  0
  7  6  1  0  0  0  0
  8  9  2  0  0  0  0
 10  1  1  0  0  0  0
 16  5  1  0  0  0  0
M TOR 0 0 1 2 3
M TOR 1 0 1 2 7
M TOR 2 0 1 2 11
M TOR 3 0 1 6 5
M TOR 4 0 1 6 7
M TOR 5 0 1 6 18
M TOR 6 1 2 3 4
M TOR 7 1 2 3 12
M TOR 8 1 2 3 13
M TOR 9 1 2 7 6
M TOR 10 1 2 7 8
M TOR 11 1 6 5 4
M TOR 12 1 6 5 16
M TOR 13 1 6 5 17
M TOR 14 1 6 7 8
M TOR 15 2 1 0 9
M TOR 16 2 1 6 5
M TOR 17 2 1 6 18
M TOR 18 2 3 4 5
M TOR 19 2 3 4 14
M TOR 20 2 3 4 15
M TOR 21 2 7 6 5
M TOR 22 2 7 6 18
M TOR 23 3 2 1 6
M TOR 24 3 2 1 10
M TOR 25 3 2 7 6
M TOR 26 3 2 7 8
M TOR 27 3 4 5 6
M TOR 28 3 4 5 16
M TOR 29 3 4 5 17
M TOR 30 4 3 2 7
M TOR 31 4 3 2 11
M TOR 32 4 5 6 7
M TOR 33 4 5 6 18
M TOR 34 5 4 3 12
M TOR 35 5 4 3 13
M TOR 36 5 6 1 10
M TOR 37 5 6 7 8
M TOR 38 6 1 0 9
M TOR 39 6 1 2 11
M TOR 40 6 5 4 14
M TOR 41 6 5 4 15
M TOR 42 6 7 2 11
M TOR 43 7 2 1 10
M TOR 44 7 2 3 12
M TOR 45 7 2 3 13
M TOR 46 7 6 1 10
M TOR 47 7 6 5 16
M TOR 48 7 6 5 17
M TOR 49 8 7 2 11
M TOR 50 8 7 6 18
M  END
$$$$
