
     RDKit          3D

 19 21  0  0  0  0  0  0  0  0999 V2000
   -0.1209   -0.0415    0.0054 C   0  0  0  0  0  0  0  0  0  0  0  0
    1.3861   -0.0434   -0.0400 C   0  0  0  0  0  0  0  0  0  0  0  0
    2.0157   -0.7505    1.0012 O   0  0  0  0  0  0  0  0  0  0  0  0
    2.1829   -0.0619   -1.3196 C   0  0  0  0  0  0  0  0  0  0  0  0
    1.5364    0.6757   -2.3648 O   0  0  0  0  0  0  0  0  0  0  0  0
    1.6644    1.8815   -1.5834 C   0  0  0  0  0  0  0  0  0  0  0  0
    0.6980    3.0112   -1.7017 C   0  0  0  0  0  0  0  0  0  0  0  0
    2.1291    3.1522   -2.2098 C   0  0  0  0  0  0  0  0  0  0  0  0
    2.2499    1.1502   -0.4055 C   0  0  0  0  0  0  0  0  0  0  0  0
   -0.4816    0.4546    0.9117 H   0  0  0  0  0  0  0  0  0  0  0  0
   -0.5380    0.4608   -0.8685 H   0  0  0  0  0  0  0  0  0  0  0  0
   -0.4986   -1.0719    0.0105 H   0  0  0  0  0  0  0  0  0  0  0  0
    1.7748   -1.6796    0.9110 H   0  0  0  0  0  0  0  0  0  0  0  0
    2.9145   -0.8144   -1.5913 H   0  0  0  0  0  0  0  0  0  0  0  0
   -0.0828    2.9154   -2.4487 H   0  0  0  0  0  0  0  0  0  0  0  0
    0.4057    3.5447   -0.8036 H   0  0  0  0  0  0  0  0  0  0  0  0
    2.2806    3.1434   -3.2836 H   0  0  0  0  0  0  0  0  0  0  0  0
    2.8190    3.7796   -1.6545 H   0  0  0  0  0  0  0  0  0  0  0  0
    3.0411    1.4984    0.2443 H   0  0  0  0  0  0  0  0  0  0  0  0
  1  2  1  0
  2  3  1  0
  2  4  1  0
  4  5  1  0
  5  6  1  0
  6  7  1  0
  7  8  1  0
  6  9  1  0
  9  2  1  0
  9  4  1  0
  8  6  1  0
  1 10  1  0
  1 11  1  0
  1 12  1  0
  3 13  1  0
  4 14  1  0
  7 15  1  0
  7 16  1  0
  8 17  1  0
  8 18  1  0
  9 19  1  0
M  END
$$$$
