
     RDKit          3D

 19 21  0  0  0  0  0  0  0  0999 V2000
    0.5222    0.5371    0.5730 O   0  0  0  0  0  0  0  0  0  0  0  0
   -0.8043    1.0112    0.4231 C   0  0  0  0  0  0  0  0  0  0  0  0
   -1.6989   -0.1537   -0.0480 C   0  0  0  0  0  0  0  0  0  0  0  0
   -2.3975   -0.6363    1.2237 C   0  0  0  0  0  0  0  0  0  0  0  0
   -3.2588    0.3406    2.0084 C   0  0  0  0  0  0  0  0  0  0  0  0
   -2.8939    1.7875    1.6613 C   0  0  0  0  0  0  0  0  0  0  0  0
   -1.3911    1.3877    1.7882 C   0  0  0  0  0  0  0  0  0  0  0  0
   -0.5057    2.2545    2.4465 O   0  0  0  0  0  0  0  0  0  0  0  0
   -1.8328    0.0376    2.4407 C   0  0  0  0  0  0  0  0  0  0  0  0
    0.9527    1.1414    1.1905 H   0  0  0  0  0  0  0  0  0  0  0  0
   -0.8359    1.8705   -0.2647 H   0  0  0  0  0  0  0  0  0  0  0  0
   -2.4062    0.1575   -0.8235 H   0  0  0  0  0  0  0  0  0  0  0  0
   -1.0606   -0.9333   -0.4711 H   0  0  0  0  0  0  0  0  0  0  0  0
   -2.6952   -1.6762    1.3017 H   0  0  0  0  0  0  0  0  0  0  0  0
   -4.1871    0.0204    2.4664 H   0  0  0  0  0  0  0  0  0  0  0  0
   -3.2327    2.2094    0.7075 H   0  0  0  0  0  0  0  0  0  0  0  0
   -3.1723    2.4716    2.4692 H   0  0  0  0  0  0  0  0  0  0  0  0
   -0.8011    2.3718    3.3546 H   0  0  0  0  0  0  0  0  0  0  0  0
   -1.4314   -0.4439    3.3228 H   0  0  0  0  0  0  0  0  0  0  0  0
  1  2  1  0
  2  3  1  0
  3  4  1  0
  4  5  1  0
  5  6  1  0
  6  7  1  0
  7  8  1  0
  7  9  1  0
  7  2  1  0
  9  4  1  0
  9  5  1  0
  1 10  1  0
  2 11  1  0
  3 12  1  0
  3 13  1  0
  4 14  1  0
  5 15  1  0
  6 16  1  0
  6 17  1  0
  8 18  1  0
  9 19  1  0
M  END
$$$$
