
     RDKit          3D

 19 20  0  0  0  0  0  0  0  0999 V2000
    0.9668   -2.5924    1.0889 O   0  0  0  0  0  0  0  0  0  0  0  0
    0.1143   -1.9554    2.0308 C   0  0  0  0  0  0  0  0  0  0  0  0
   -0.9608   -2.9356    2.5283 C   0  0  0  0  0  0  0  0  0  0  0  0
   -2.2154   -2.0673    2.7875 C   0  0  0  0  0  0  0  0  0  0  0  0
   -1.9667   -0.8516    1.9257 C   0  0  0  0  0  0  0  0  0  0  0  0
   -0.7107   -0.7985    1.4783 C   0  0  0  0  0  0  0  0  0  0  0  0
   -0.1132    0.2406    0.6129 C   0  0  0  0  0  0  0  0  0  0  0  0
    0.5274   -0.0876   -0.6763 C   0  0  0  0  0  0  0  0  0  0  0  0
    1.3232    0.2177    0.4730 O   0  0  0  0  0  0  0  0  0  0  0  0
    1.6632   -1.9532    0.8936 H   0  0  0  0  0  0  0  0  0  0  0  0
    0.7222   -1.5806    2.8713 H   0  0  0  0  0  0  0  0  0  0  0  0
   -1.1521   -3.6388    1.7114 H   0  0  0  0  0  0  0  0  0  0  0  0
   -0.6410   -3.5118    3.3992 H   0  0  0  0  0  0  0  0  0  0  0  0
   -3.1494   -2.5823    2.5368 H   0  0  0  0  0  0  0  0  0  0  0  0
   -2.2980   -1.7829    3.8460 H   0  0  0  0  0  0  0  0  0  0  0  0
   -2.7321   -0.1074    1.7276 H   0  0  0  0  0  0  0  0  0  0  0  0
   -0.5236    1.2456    0.7115 H   0  0  0  0  0  0  0  0  0  0  0  0
    0.5558   -1.1266   -0.9945 H   0  0  0  0  0  0  0  0  0  0  0  0
    0.5505    0.6614   -1.4661 H   0  0  0  0  0  0  0  0  0  0  0  0
  1  2  1  0
  2  3  1  0
  3  4  1  0
  4  5  1  0
  5  6  2  0
  6  7  1  0
  7  8  1  0
  8  9  1  0
  6  2  1  0
  9  7  1  0
  1 10  1  0
  2 11  1  0
  3 12  1  0
  3 13  1  0
  4 14  1  0
  4 15  1  0
  5 16  1  0
  7 17  1  0
  8 18  1  0
  8 19  1  0
M  END
$$$$
