
     RDKit          3D

 19 20  0  0  0  0  0  0  0  0999 V2000
    0.1598    1.3086   -0.1368 C   0  0  0  0  0  0  0  0  0  0  0  0
    0.2300   -0.1040   -0.0566 O   0  0  0  0  0  0  0  0  0  0  0  0
    0.6192   -0.5760    1.1999 C   0  0  0  0  0  0  0  0  0  0  0  0
    1.9852   -0.2299    1.4951 O   0  0  0  0  0  0  0  0  0  0  0  0
    2.7093   -1.4165    1.7425 C   0  0  0  0  0  0  0  0  0  0  0  0
    3.6586   -2.1544    0.7195 C   0  0  0  0  0  0  0  0  0  0  0  0
    2.8713   -3.4846    1.0429 C   0  0  0  0  0  0  0  0  0  0  0  0
    1.7751   -2.5499    1.5063 C   0  0  0  0  0  0  0  0  0  0  0  0
    0.5812   -2.0950    1.1482 C   0  0  0  0  0  0  0  0  0  0  0  0
    1.1462    1.7675   -0.0019 H   0  0  0  0  0  0  0  0  0  0  0  0
   -0.2212    1.5529   -1.1308 H   0  0  0  0  0  0  0  0  0  0  0  0
   -0.5258    1.7190    0.6203 H   0  0  0  0  0  0  0  0  0  0  0  0
   -0.0082   -0.0977    1.9724 H   0  0  0  0  0  0  0  0  0  0  0  0
    3.1844   -1.3554    2.7293 H   0  0  0  0  0  0  0  0  0  0  0  0
    3.4659   -1.8197   -0.3008 H   0  0  0  0  0  0  0  0  0  0  0  0
    4.7295   -2.1432    0.9349 H   0  0  0  0  0  0  0  0  0  0  0  0
    2.6395   -4.1611    0.2194 H   0  0  0  0  0  0  0  0  0  0  0  0
    3.3505   -4.0460    1.8500 H   0  0  0  0  0  0  0  0  0  0  0  0
   -0.2429   -2.6156    0.6799 H   0  0  0  0  0  0  0  0  0  0  0  0
  1  2  1  0
  2  3  1  0
  3  4  1  0
  4  5  1  0
  5  6  1  0
  6  7  1  0
  7  8  1  0
  8  9  2  0
  9  3  1  0
  8  5  1  0
  1 10  1  0
  1 11  1  0
  1 12  1  0
  3 13  1  0
  5 14  1  0
  6 15  1  0
  6 16  1  0
  7 17  1  0
  7 18  1  0
  9 19  1  0
M  END
$$$$
