gdb 5768	1.8927492	1.7710785	1.1402126	2.2534	77.76	-0.24528	-0.0209	0.22438	1137.9957	0.15549	-422.530384	-422.521281	-422.520337	-422.564729	32.674
 OpenBabel02181911423D

 19 20  0  0  1  0  0  0  0  0999 V2000
    1.5309   -0.0894   -0.0664 C   0  0  0  0  0  0  0  0  0  0  0  0
    0.1210   -0.1807    0.0151 O   0  0  0  0  0  0  0  0  0  0  0  0
   -0.4128    0.5111    1.1108 C   0  0  1  0  0  0  0  0  0  0  0  0
   -1.9610    0.4064    1.2058 C   0  0  0  0  0  0  0  0  0  0  0  0
   -1.8337   -0.2332    2.5935 C   0  0  1  0  0  0  0  0  0  0  0  0
   -1.0087   -1.4633    2.5404 C   0  0  0  0  0  0  0  0  0  0  0  0
   -0.2761   -0.1341    2.5013 C   0  0  1  0  0  0  0  0  0  0  0  0
    0.6416    0.2848    3.5607 C   0  0  0  0  0  0  0  0  0  0  0  0
    1.5536    1.0662    3.4092 O   0  0  0  0  0  0  0  0  0  0  0  0
    2.0202   -0.4900    0.8319 H   0  0  0  0  0  0  0  0  0  0  0  0
    1.8411   -0.6733   -0.9359 H   0  0  0  0  0  0  0  0  0  0  0  0
    1.8584    0.9526   -0.1956 H   0  0  0  0  0  0  0  0  0  0  0  0
   -0.0527    1.5482    1.1336 H   0  0  0  0  0  0  0  0  0  0  0  0
   -2.4510    1.3812    1.2104 H   0  0  0  0  0  0  0  0  0  0  0  0
   -2.4191   -0.2260    0.4406 H   0  0  0  0  0  0  0  0  0  0  0  0
   -2.4307    0.0201    3.4608 H   0  0  0  0  0  0  0  0  0  0  0  0
   -0.9064   -2.0136    3.4706 H   0  0  0  0  0  0  0  0  0  0  0  0
   -0.9815   -2.0725    1.6417 H   0  0  0  0  0  0  0  0  0  0  0  0
    0.4330   -0.1705    4.5580 H   0  0  0  0  0  0  0  0  0  0  0  0
  1  2  1  0  0  0  0
  1 10  1  0  0  0  0
  2  3  1  0  0  0  0
  3 13  1  1  0  0  0
  3  4  1  0  0  0  0
  3  7  1  0  0  0  0
  4 14  1  0  0  0  0
  4  5  1  0  0  0  0
  5 16  1  1  0  0  0
  6  5  1  0  0  0  0
  6 17  1  0  0  0  0
  7  6  1  0  0  0  0
  7  5  1  0  0  0  0
  7  8  1  1  0  0  0
  8 19  1  0  0  0  0
  9  8  2  0  0  0  0
 11  1  1  0  0  0  0
 12  1  1  0  0  0  0
 15  4  1  0  0  0  0
 18  6  1  0  0  0  0
M TOR 0 0 1 2 3
M TOR 1 0 1 2 6
M TOR 2 0 1 2 12
M TOR 3 1 2 3 4
M TOR 4 1 2 3 13
M TOR 5 1 2 3 14
M TOR 6 1 2 6 4
M TOR 7 1 2 6 5
M TOR 8 1 2 6 7
M TOR 9 2 1 0 9
M TOR 10 2 1 0 10
M TOR 11 2 1 0 11
M TOR 12 2 3 4 5
M TOR 13 2 3 4 6
M TOR 14 2 3 4 15
M TOR 15 2 6 4 5
M TOR 16 2 6 4 15
M TOR 17 2 6 5 16
M TOR 18 2 6 5 17
M TOR 19 2 6 7 8
M TOR 20 2 6 7 18
M TOR 21 3 2 6 5
M TOR 22 3 2 6 7
M TOR 23 3 4 5 6
M TOR 24 3 4 5 16
M TOR 25 3 4 5 17
M TOR 26 3 4 6 7
M TOR 27 4 3 2 12
M TOR 28 4 5 6 7
M TOR 29 4 6 2 12
M TOR 30 4 6 5 16
M TOR 31 4 6 5 17
M TOR 32 4 6 7 8
M TOR 33 4 6 7 18
M TOR 34 5 4 3 13
M TOR 35 5 4 3 14
M TOR 36 5 6 2 12
M TOR 37 5 6 4 15
M TOR 38 5 6 7 8
M TOR 39 5 6 7 18
M TOR 40 6 2 3 13
M TOR 41 6 2 3 14
M TOR 42 6 4 3 13
M TOR 43 6 4 3 14
M TOR 44 7 6 2 12
M TOR 45 7 6 4 15
M TOR 46 7 6 5 16
M TOR 47 7 6 5 17
M  END
$$$$
