gdb 758	2.3424147	1.599087	1.0851562	1.9102	76.77	-0.23375	-0.02826	0.20549	1131.906	0.157548	-422.56058	-422.552	-422.551056	-422.594628	31.66
 OpenBabel02181911403D

 19 19  0  0  0  0  0  0  0  0999 V2000
   -1.6266   -3.3340   -1.4853 O   0  0  0  0  0  0  0  0  0  0  0  0
   -0.6193   -2.6813   -1.3367 C   0  0  0  0  0  0  0  0  0  0  0  0
    0.2468   -2.2652   -2.5201 C   0  0  0  0  0  0  0  0  0  0  0  0
   -0.2336   -0.9335   -3.1792 C   0  0  0  0  0  0  0  0  0  0  0  0
    0.4428    0.3275   -2.6904 C   0  0  0  0  0  0  0  0  0  0  0  0
    0.4854    0.7873   -1.4395 C   0  0  0  0  0  0  0  0  0  0  0  0
   -0.1342    0.1021   -0.2476 C   0  0  0  0  0  0  0  0  0  0  0  0
    0.5926   -1.0834    0.1058 O   0  0  0  0  0  0  0  0  0  0  0  0
   -0.1715   -2.2619    0.0690 C   0  0  0  0  0  0  0  0  0  0  0  0
    1.2936   -2.1702   -2.2220 H   0  0  0  0  0  0  0  0  0  0  0  0
    0.1513   -3.0696   -3.2543 H   0  0  0  0  0  0  0  0  0  0  0  0
   -0.0631   -1.0167   -4.2556 H   0  0  0  0  0  0  0  0  0  0  0  0
   -1.3230   -0.8585   -3.0605 H   0  0  0  0  0  0  0  0  0  0  0  0
    0.9532    0.9068   -3.4569 H   0  0  0  0  0  0  0  0  0  0  0  0
    1.0244    1.7099   -1.2417 H   0  0  0  0  0  0  0  0  0  0  0  0
   -0.1287    0.7693    0.6220 H   0  0  0  0  0  0  0  0  0  0  0  0
   -1.1841   -0.1509   -0.4527 H   0  0  0  0  0  0  0  0  0  0  0  0
    0.4716   -3.0617    0.4595 H   0  0  0  0  0  0  0  0  0  0  0  0
   -1.0638   -2.2132    0.7096 H   0  0  0  0  0  0  0  0  0  0  0  0
  1  2  2  0  0  0  0
  2  9  1  0  0  0  0
  3 10  1  0  0  0  0
  3  2  1  0  0  0  0
  4 13  1  0  0  0  0
  4  5  1  0  0  0  0
  4  3  1  0  0  0  0
  5  6  2  0  0  0  0
  6 15  1  0  0  0  0
  6  7  1  0  0  0  0
  7  8  1  0  0  0  0
  7 16  1  0  0  0  0
  9  8  1  0  0  0  0
  9 18  1  0  0  0  0
  9 19  1  0  0  0  0
 11  3  1  0  0  0  0
 12  4  1  0  0  0  0
 14  5  1  0  0  0  0
 17  7  1  0  0  0  0
M TOR 0 0 1 2 3
M TOR 1 0 1 2 9
M TOR 2 0 1 2 10
M TOR 3 0 1 8 7
M TOR 4 0 1 8 17
M TOR 5 0 1 8 18
M TOR 6 1 2 3 4
M TOR 7 1 2 3 11
M TOR 8 1 2 3 12
M TOR 9 1 8 7 6
M TOR 10 2 1 8 7
M TOR 11 2 1 8 17
M TOR 12 2 1 8 18
M TOR 13 2 3 4 5
M TOR 14 2 3 4 13
M TOR 15 3 2 1 8
M TOR 16 3 4 5 6
M TOR 17 3 4 5 14
M TOR 18 4 3 2 9
M TOR 19 4 3 2 10
M TOR 20 4 5 6 7
M TOR 21 4 5 6 15
M TOR 22 4 5 6 16
M TOR 23 5 4 3 11
M TOR 24 5 4 3 12
M TOR 25 5 6 7 8
M TOR 26 6 5 4 13
M TOR 27 6 7 8 17
M TOR 28 6 7 8 18
M TOR 29 7 6 5 14
M TOR 30 8 1 2 9
M TOR 31 8 1 2 10
M TOR 32 8 7 6 15
M TOR 33 8 7 6 16
M  END
$$$$
