gdb 5319	2.5589116	1.5044295	1.0148339	2.2347	79.81	-0.21869	0.0159	0.23459	1176.8567	0.156976	-422.521974	-422.513363	-422.512419	-422.555568	31.679
 OpenBabel02181911423D

 19 20  0  0  1  0  0  0  0  0999 V2000
   -0.1361    1.4618    0.0138 O   0  0  0  0  0  0  0  0  0  0  0  0
   -0.0821    0.0461    0.0409 C   0  0  0  0  0  0  0  0  0  0  0  0
   -1.4558   -0.5009   -0.1484 C   0  0  2  0  0  3  0  0  0  0  0  0
   -2.6147    0.1291   -0.3100 C   0  0  2  0  0  3  0  0  0  0  0  0
   -3.3990    1.3258    0.1821 C   0  0  0  0  0  0  0  0  0  0  0  0
   -4.3150    0.2591    0.8981 C   0  0  0  0  0  0  0  0  0  0  0  0
   -3.7497   -0.8168   -0.1031 C   0  0  2  0  0  0  0  0  0  0  0  0
   -3.1863   -2.0515    0.2997 O   0  0  0  0  0  0  0  0  0  0  0  0
   -1.7770   -1.9845    0.0233 C   0  0  0  0  0  0  0  0  0  0  0  0
    0.7614    1.7966    0.0966 H   0  0  0  0  0  0  0  0  0  0  0  0
    0.5869   -0.3453   -0.7468 H   0  0  0  0  0  0  0  0  0  0  0  0
    0.3284   -0.3228    0.9989 H   0  0  0  0  0  0  0  0  0  0  0  0
   -2.8593    2.0470    0.7948 H   0  0  0  0  0  0  0  0  0  0  0  0
   -3.9422    1.8555   -0.6064 H   0  0  0  0  0  0  0  0  0  0  0  0
   -3.9718    0.0568    1.9144 H   0  0  0  0  0  0  0  0  0  0  0  0
   -5.3934    0.4352    0.8882 H   0  0  0  0  0  0  0  0  0  0  0  0
   -4.4367   -0.9657   -0.9488 H   0  0  0  0  0  0  0  0  0  0  0  0
   -1.5385   -2.5940   -0.8644 H   0  0  0  0  0  0  0  0  0  0  0  0
   -1.2286   -2.4180    0.8718 H   0  0  0  0  0  0  0  0  0  0  0  0
  1  2  1  0  0  0  0
  1 10  1  0  0  0  0
  2 12  1  0  0  0  0
  3  9  1  0  0  0  0
  3  2  1  1  0  0  0
  4  3  1  0  0  0  0
  4  7  1  0  0  0  0
  4  5  1  1  0  0  0
  5 13  1  0  0  0  0
  5  6  1  0  0  0  0
  6 15  1  0  0  0  0
  7 17  1  6  0  0  0
  7  8  1  0  0  0  0
  7  6  1  0  0  0  0
  9  8  1  0  0  0  0
  9 19  1  0  0  0  0
 11  2  1  0  0  0  0
 14  5  1  0  0  0  0
 16  6  1  0  0  0  0
 18  9  1  0  0  0  0
M TOR 0 0 1 2 3
M TOR 1 0 1 2 8
M TOR 2 1 2 3 4
M TOR 3 1 2 3 6
M TOR 4 1 2 8 7
M TOR 5 1 2 8 17
M TOR 6 1 2 8 18
M TOR 7 2 1 0 9
M TOR 8 2 3 4 5
M TOR 9 2 3 4 12
M TOR 10 2 3 4 13
M TOR 11 2 3 6 5
M TOR 12 2 3 6 7
M TOR 13 2 3 6 16
M TOR 14 2 8 7 6
M TOR 15 3 2 1 10
M TOR 16 3 2 1 11
M TOR 17 3 2 8 7
M TOR 18 3 2 8 17
M TOR 19 3 2 8 18
M TOR 20 3 4 5 6
M TOR 21 3 4 5 14
M TOR 22 3 4 5 15
M TOR 23 3 6 5 14
M TOR 24 3 6 5 15
M TOR 25 3 6 7 8
M TOR 26 4 3 2 8
M TOR 27 4 3 6 7
M TOR 28 4 3 6 16
M TOR 29 4 5 6 7
M TOR 30 4 5 6 16
M TOR 31 5 6 7 8
M TOR 32 6 3 2 8
M TOR 33 6 3 4 12
M TOR 34 6 3 4 13
M TOR 35 6 5 4 12
M TOR 36 6 5 4 13
M TOR 37 6 7 8 17
M TOR 38 6 7 8 18
M TOR 39 7 6 5 14
M TOR 40 7 6 5 15
M TOR 41 8 2 1 10
M TOR 42 8 2 1 11
M TOR 43 8 7 6 16
M  END
$$$$
