
     RDKit          3D

 19 20  0  0  0  0  0  0  0  0999 V2000
   -0.9609   -0.0532   -2.3711 C   0  0  0  0  0  0  0  0  0  0  0  0
   -1.5448   -0.0393   -0.9672 C   0  0  0  0  0  0  0  0  0  0  0  0
   -2.9368   -0.1478   -1.1199 O   0  0  0  0  0  0  0  0  0  0  0  0
   -0.9742    1.1007   -0.0305 C   0  0  0  0  0  0  0  0  0  0  0  0
   -1.7206    0.8306    1.2955 C   0  0  0  0  0  0  0  0  0  0  0  0
   -1.6052   -0.7418    1.3587 C   0  0  0  0  0  0  0  0  0  0  0  0
   -0.8195   -1.0052    0.0543 C   0  0  0  0  0  0  0  0  0  0  0  0
    0.2101    0.1345    0.1482 C   0  0  0  0  0  0  0  0  0  0  0  0
    1.3987    0.2254    0.2366 O   0  0  0  0  0  0  0  0  0  0  0  0
   -1.2333   -0.9824   -2.8798 H   0  0  0  0  0  0  0  0  0  0  0  0
   -1.3648    0.7812   -2.9517 H   0  0  0  0  0  0  0  0  0  0  0  0
    0.1288    0.0286   -2.3572 H   0  0  0  0  0  0  0  0  0  0  0  0
   -3.3639   -0.1421   -0.2584 H   0  0  0  0  0  0  0  0  0  0  0  0
   -0.8543    2.1298   -0.3634 H   0  0  0  0  0  0  0  0  0  0  0  0
   -1.2406    1.3191    2.1463 H   0  0  0  0  0  0  0  0  0  0  0  0
   -2.7562    1.1836    1.2620 H   0  0  0  0  0  0  0  0  0  0  0  0
   -1.0644   -1.0855    2.2432 H   0  0  0  0  0  0  0  0  0  0  0  0
   -2.5781   -1.2434    1.3592 H   0  0  0  0  0  0  0  0  0  0  0  0
   -0.5488   -2.0292   -0.1959 H   0  0  0  0  0  0  0  0  0  0  0  0
  1  2  1  0
  2  3  1  0
  2  4  1  0
  4  5  1  0
  5  6  1  0
  6  7  1  0
  7  8  1  0
  8  9  2  0
  7  2  1  0
  8  4  1  0
  1 10  1  0
  1 11  1  0
  1 12  1  0
  3 13  1  0
  4 14  1  0
  5 15  1  0
  5 16  1  0
  6 17  1  0
  6 18  1  0
  7 19  1  0
M  END
$$$$
