gdb 1316	2.0468136	1.0361324	0.8122744	3.7525	79.05	-0.24929	-0.02795	0.22134	1477.5793	0.15234	-422.53798	-422.52709	-422.526146	-422.575173	37.829
 OpenBabel02181911403D

 19 18  0  0  1  0  0  0  0  0999 V2000
    1.7156   -1.2189   -2.0459 C   0  0  0  0  0  0  0  0  0  0  0  0
    0.3033   -0.7309   -2.3699 C   0  0  2  0  0  0  0  0  0  0  0  0
    0.0464   -0.7786   -3.7717 O   0  0  0  0  0  0  0  0  0  0  0  0
    0.0942    0.7236   -1.9500 C   0  0  0  0  0  0  0  0  0  0  0  0
   -1.3470    1.2303   -2.2380 C   0  0  2  0  0  0  0  0  0  0  0  0
   -1.4029    2.7265   -1.9142 C   0  0  0  0  0  0  0  0  0  0  0  0
   -1.1928    3.5898   -2.7223 O   0  0  0  0  0  0  0  0  0  0  0  0
   -2.3548    0.5111   -1.4685 C   0  0  0  0  0  0  0  0  0  0  0  0
   -3.1888   -0.0404   -0.8004 C   0  0  0  0  0  0  0  0  0  0  0  0
    1.9109   -1.1788   -0.9692 H   0  0  0  0  0  0  0  0  0  0  0  0
    1.8473   -2.2579   -2.3682 H   0  0  0  0  0  0  0  0  0  0  0  0
    2.4615   -0.6060   -2.5616 H   0  0  0  0  0  0  0  0  0  0  0  0
   -0.4276   -1.3543   -1.8318 H   0  0  0  0  0  0  0  0  0  0  0  0
    0.0813   -1.6978   -4.0530 H   0  0  0  0  0  0  0  0  0  0  0  0
    0.3179    0.8289   -0.8831 H   0  0  0  0  0  0  0  0  0  0  0  0
    0.7919    1.3571   -2.5085 H   0  0  0  0  0  0  0  0  0  0  0  0
   -1.5272    1.1165   -3.3111 H   0  0  0  0  0  0  0  0  0  0  0  0
   -1.6245    2.9584   -0.8489 H   0  0  0  0  0  0  0  0  0  0  0  0
   -3.9331   -0.5372   -0.2284 H   0  0  0  0  0  0  0  0  0  0  0  0
  1 10  1  0  0  0  0
  2  1  1  0  0  0  0
  2  4  1  0  0  0  0
  2 13  1  1  0  0  0
  3  2  1  0  0  0  0
  4 15  1  0  0  0  0
  5 17  1  6  0  0  0
  5  4  1  0  0  0  0
  5  6  1  0  0  0  0
  5  8  1  0  0  0  0
  6 18  1  0  0  0  0
  7  6  2  0  0  0  0
  8  9  3  0  0  0  0
  9 19  1  0  0  0  0
 11  1  1  0  0  0  0
 12  1  1  0  0  0  0
 14  3  1  0  0  0  0
 16  4  1  0  0  0  0
M TOR 0 0 1 2 13
M TOR 1 0 1 3 4
M TOR 2 0 1 3 14
M TOR 3 0 1 3 15
M TOR 4 1 3 4 5
M TOR 5 1 3 4 7
M TOR 6 1 3 4 16
M TOR 7 2 1 0 9
M TOR 8 2 1 0 10
M TOR 9 2 1 0 11
M TOR 10 2 1 3 4
M TOR 11 2 1 3 14
M TOR 12 2 1 3 15
M TOR 13 3 1 0 9
M TOR 14 3 1 0 10
M TOR 15 3 1 0 11
M TOR 16 3 1 2 13
M TOR 17 3 4 5 6
M TOR 18 3 4 5 17
M TOR 19 3 4 7 8
M TOR 20 4 3 1 12
M TOR 21 4 7 8 18
M TOR 22 5 4 3 14
M TOR 23 5 4 3 15
M TOR 24 5 4 7 8
M TOR 25 6 5 4 7
M TOR 26 6 5 4 16
M TOR 27 7 4 3 14
M TOR 28 7 4 3 15
M TOR 29 7 4 5 17
M TOR 30 8 7 4 16
M  END
$$$$
