gdb 624	3.2121813	1.498188	1.1209256	2.2668	77.6	-0.24446	0.00879	0.25325000000000003	1098.7619	0.159455	-422.55606	-422.54836	-422.547416	-422.589093	29.048
 OpenBabel02181911403D

 19 20  0  0  1  0  0  0  0  0999 V2000
   -0.7178   -0.2544    0.9533 C   0  0  0  0  0  0  0  0  0  0  0  0
    0.7774    0.0088    0.5960 C   0  0  0  0  0  0  0  0  0  0  0  0
    0.6787    1.2793   -0.2056 C   0  0  0  0  0  0  0  0  0  0  0  0
    1.4938    2.3228   -0.2978 C   0  0  0  0  0  0  0  0  0  0  0  0
    0.9698    3.6094   -0.8922 C   0  0  0  0  0  0  0  0  0  0  0  0
   -0.4133    3.7647   -0.6156 O   0  0  0  0  0  0  0  0  0  0  0  0
   -1.1931    2.7192   -1.1565 C   0  0  0  0  0  0  0  0  0  0  0  0
   -0.7316    1.3162   -0.7314 C   0  0  2  0  0  0  0  0  0  0  0  0
   -1.4936    0.7866    0.3521 O   0  0  0  0  0  0  0  0  0  0  0  0
   -1.0442   -1.2338    0.5764 H   0  0  0  0  0  0  0  0  0  0  0  0
   -0.9044   -0.2251    2.0305 H   0  0  0  0  0  0  0  0  0  0  0  0
    1.4097    0.1206    1.4798 H   0  0  0  0  0  0  0  0  0  0  0  0
    1.1829   -0.8182    0.0019 H   0  0  0  0  0  0  0  0  0  0  0  0
    2.4902    2.3167    0.1354 H   0  0  0  0  0  0  0  0  0  0  0  0
    1.4666    4.4687   -0.4318 H   0  0  0  0  0  0  0  0  0  0  0  0
    1.1527    3.6701   -1.9807 H   0  0  0  0  0  0  0  0  0  0  0  0
   -2.2193    2.8802   -0.8174 H   0  0  0  0  0  0  0  0  0  0  0  0
   -1.1759    2.7727   -2.2581 H   0  0  0  0  0  0  0  0  0  0  0  0
   -0.8284    0.6433   -1.6037 H   0  0  0  0  0  0  0  0  0  0  0  0
  1 11  1  0  0  0  0
  2  1  1  0  0  0  0
  2 12  1  0  0  0  0
  3  2  1  0  0  0  0
  4  3  2  0  0  0  0
  4 14  1  0  0  0  0
  5  6  1  0  0  0  0
  5 15  1  0  0  0  0
  5  4  1  0  0  0  0
  7 17  1  0  0  0  0
  7  8  1  0  0  0  0
  7  6  1  0  0  0  0
  8 19  1  6  0  0  0
  8  3  1  0  0  0  0
  8  9  1  0  0  0  0
  9  1  1  0  0  0  0
 10  1  1  0  0  0  0
 13  2  1  0  0  0  0
 16  5  1  0  0  0  0
 18  7  1  0  0  0  0
M TOR 0 0 1 2 3
M TOR 1 0 1 2 7
M TOR 2 0 8 7 2
M TOR 3 0 8 7 6
M TOR 4 0 8 7 18
M TOR 5 1 0 8 7
M TOR 6 1 2 3 4
M TOR 7 1 2 3 13
M TOR 8 1 2 7 6
M TOR 9 1 2 7 8
M TOR 10 1 2 7 18
M TOR 11 2 1 0 8
M TOR 12 2 1 0 9
M TOR 13 2 1 0 10
M TOR 14 2 3 4 5
M TOR 15 2 3 4 14
M TOR 16 2 3 4 15
M TOR 17 2 7 6 5
M TOR 18 2 7 6 16
M TOR 19 2 7 6 17
M TOR 20 3 2 1 11
M TOR 21 3 2 1 12
M TOR 22 3 2 7 6
M TOR 23 3 2 7 8
M TOR 24 3 2 7 18
M TOR 25 3 4 5 6
M TOR 26 4 3 2 7
M TOR 27 4 5 6 7
M TOR 28 4 5 6 16
M TOR 29 4 5 6 17
M TOR 30 5 4 3 13
M TOR 31 5 6 7 8
M TOR 32 5 6 7 18
M TOR 33 6 5 4 14
M TOR 34 6 5 4 15
M TOR 35 7 2 1 11
M TOR 36 7 2 1 12
M TOR 37 7 2 3 13
M TOR 38 7 8 0 9
M TOR 39 7 8 0 10
M TOR 40 8 0 1 11
M TOR 41 8 0 1 12
M TOR 42 8 7 6 16
M TOR 43 8 7 6 17
M  END
$$$$
