gdb 4587	2.7766884	0.7397058	0.674099	2.8982	82.68	-0.25477	-0.05212	0.20265	1749.251	0.153381	-422.53994	-422.528806	-422.527862	-422.578133	37.474
 OpenBabel02181911413D

 19 18  0  0  0  0  0  0  0  0999 V2000
   -1.7127   -3.6272    0.9463 C   0  0  0  0  0  0  0  0  0  0  0  0
   -2.4740   -2.8419   -0.1352 C   0  0  0  0  0  0  0  0  0  0  0  0
   -3.4275   -1.8060    0.4844 C   0  0  0  0  0  0  0  0  0  0  0  0
   -1.5042   -2.1736   -1.1056 C   0  0  0  0  0  0  0  0  0  0  0  0
   -1.4722   -2.4361   -2.2898 O   0  0  0  0  0  0  0  0  0  0  0  0
   -0.5991   -1.1862   -0.5394 C   0  0  0  0  0  0  0  0  0  0  0  0
    0.1558   -0.3594   -0.0842 C   0  0  0  0  0  0  0  0  0  0  0  0
    1.1196    0.6248    0.4041 C   0  0  0  0  0  0  0  0  0  0  0  0
    1.7096    1.4042   -0.6204 O   0  0  0  0  0  0  0  0  0  0  0  0
   -1.0968   -2.9597    1.5572 H   0  0  0  0  0  0  0  0  0  0  0  0
   -2.4205   -4.1344    1.6092 H   0  0  0  0  0  0  0  0  0  0  0  0
   -1.0590   -4.3855    0.5047 H   0  0  0  0  0  0  0  0  0  0  0  0
   -3.0482   -3.5394   -0.7538 H   0  0  0  0  0  0  0  0  0  0  0  0
   -2.8769   -1.0699    1.0785 H   0  0  0  0  0  0  0  0  0  0  0  0
   -3.9906   -1.2699   -0.2854 H   0  0  0  0  0  0  0  0  0  0  0  0
   -4.1446   -2.3047    1.1438 H   0  0  0  0  0  0  0  0  0  0  0  0
    0.6205    1.3334    1.0747 H   0  0  0  0  0  0  0  0  0  0  0  0
    1.8772    0.1000    1.0094 H   0  0  0  0  0  0  0  0  0  0  0  0
    2.0541    0.8016   -1.2883 H   0  0  0  0  0  0  0  0  0  0  0  0
  1 10  1  0  0  0  0
  1 11  1  0  0  0  0
  2  3  1  0  0  0  0
  2  1  1  0  0  0  0
  3 14  1  0  0  0  0
  3 16  1  0  0  0  0
  4  6  1  0  0  0  0
  4  2  1  0  0  0  0
  5  4  2  0  0  0  0
  6  7  3  0  0  0  0
  7  8  1  0  0  0  0
  8 18  1  0  0  0  0
  8 17  1  0  0  0  0
  9  8  1  0  0  0  0
 12  1  1  0  0  0  0
 13  2  1  0  0  0  0
 15  3  1  0  0  0  0
 19  9  1  0  0  0  0
M TOR 0 0 1 2 13
M TOR 1 0 1 2 14
M TOR 2 0 1 2 15
M TOR 3 0 1 3 4
M TOR 4 0 1 3 5
M TOR 5 1 3 5 6
M TOR 6 2 1 0 9
M TOR 7 2 1 0 10
M TOR 8 2 1 0 11
M TOR 9 2 1 3 4
M TOR 10 2 1 3 5
M TOR 11 3 1 0 9
M TOR 12 3 1 0 10
M TOR 13 3 1 0 11
M TOR 14 3 1 2 13
M TOR 15 3 1 2 14
M TOR 16 3 1 2 15
M TOR 17 3 5 6 7
M TOR 18 4 3 1 12
M TOR 19 4 3 5 6
M TOR 20 5 3 1 12
M TOR 21 5 6 7 8
M TOR 22 5 6 7 16
M TOR 23 5 6 7 17
M TOR 24 6 7 8 18
M  END
$$$$
