gdb 2942	2.2176289	1.721953	1.3339985	2.2193	75.98	-0.23319	-0.0051	0.22809000000000001	1042.126	0.156573	-422.556841	-422.548156	-422.547212	-422.589479	33.823
 OpenBabel02181911413D

 19 20  0  0  1  0  0  0  0  0999 V2000
   -0.8292   -0.5367    3.2355 C   0  0  0  0  0  0  0  0  0  0  0  0
   -1.4314    0.4054    2.2209 C   0  0  1  0  0  0  0  0  0  0  0  0
   -2.8912    0.7582    2.2920 C   0  0  2  0  0  0  0  0  0  0  0  0
   -3.7459    0.7638    1.1934 O   0  0  0  0  0  0  0  0  0  0  0  0
   -1.8543    1.8487    2.5589 C   0  0  2  0  0  0  0  0  0  0  0  0
   -1.4923    2.6547    1.3662 C   0  0  0  0  0  0  0  0  0  0  0  0
   -0.9915    1.9004    0.3780 C   0  0  0  0  0  0  0  0  0  0  0  0
   -0.8190    0.4567    0.8032 C   0  0  1  0  0  0  0  0  0  0  0  0
    0.5376    0.0305    0.7414 O   0  0  0  0  0  0  0  0  0  0  0  0
   -1.3344   -0.4393    4.2017 H   0  0  0  0  0  0  0  0  0  0  0  0
   -0.9245   -1.5784    2.9106 H   0  0  0  0  0  0  0  0  0  0  0  0
    0.2357   -0.3394    3.3908 H   0  0  0  0  0  0  0  0  0  0  0  0
   -3.4264    0.3928    3.1641 H   0  0  0  0  0  0  0  0  0  0  0  0
   -3.3618    1.3422    0.5209 H   0  0  0  0  0  0  0  0  0  0  0  0
   -1.7806    2.2749    3.5541 H   0  0  0  0  0  0  0  0  0  0  0  0
   -1.6801    3.7213    1.3036 H   0  0  0  0  0  0  0  0  0  0  0  0
   -0.6996    2.2449   -0.6075 H   0  0  0  0  0  0  0  0  0  0  0  0
   -1.3530   -0.2327    0.1376 H   0  0  0  0  0  0  0  0  0  0  0  0
    1.0679    0.7039    1.1822 H   0  0  0  0  0  0  0  0  0  0  0  0
  1 12  1  0  0  0  0
  1 10  1  0  0  0  0
  2  3  1  0  0  0  0
  2  5  1  0  0  0  0
  2  1  1  1  0  0  0
  3  5  1  0  0  0  0
  3 13  1  1  0  0  0
  4  3  1  0  0  0  0
  5 15  1  1  0  0  0
  6  5  1  0  0  0  0
  7  8  1  0  0  0  0
  7  6  2  0  0  0  0
  8 18  1  6  0  0  0
  8  2  1  0  0  0  0
  9  8  1  0  0  0  0
  9 19  1  0  0  0  0
 11  1  1  0  0  0  0
 14  4  1  0  0  0  0
 16  6  1  0  0  0  0
 17  7  1  0  0  0  0
M TOR 0 0 1 2 3
M TOR 1 0 1 2 4
M TOR 2 0 1 2 12
M TOR 3 0 1 4 5
M TOR 4 0 1 4 14
M TOR 5 0 1 7 6
M TOR 6 0 1 7 8
M TOR 7 0 1 7 17
M TOR 8 1 2 3 13
M TOR 9 1 2 4 5
M TOR 10 1 2 4 14
M TOR 11 1 4 2 3
M TOR 12 1 4 2 12
M TOR 13 1 4 5 6
M TOR 14 1 4 5 15
M TOR 15 1 7 6 5
M TOR 16 1 7 6 16
M TOR 17 1 7 8 18
M TOR 18 2 1 0 9
M TOR 19 2 1 0 10
M TOR 20 2 1 0 11
M TOR 21 2 1 7 6
M TOR 22 2 1 7 8
M TOR 23 2 1 7 17
M TOR 24 2 4 1 7
M TOR 25 2 4 5 6
M TOR 26 2 4 5 15
M TOR 27 3 2 1 7
M TOR 28 3 2 4 5
M TOR 29 3 2 4 14
M TOR 30 4 1 0 9
M TOR 31 4 1 0 10
M TOR 32 4 1 0 11
M TOR 33 4 1 7 6
M TOR 34 4 1 7 8
M TOR 35 4 1 7 17
M TOR 36 4 2 3 13
M TOR 37 4 5 6 7
M TOR 38 4 5 6 16
M TOR 39 5 4 1 7
M TOR 40 5 4 2 12
M TOR 41 5 6 7 8
M TOR 42 5 6 7 17
M TOR 43 6 5 4 14
M TOR 44 6 7 8 18
M TOR 45 7 1 0 9
M TOR 46 7 1 0 10
M TOR 47 7 1 0 11
M TOR 48 7 1 2 12
M TOR 49 7 1 4 14
M TOR 50 7 6 5 15
M TOR 51 8 7 6 16
M  END
$$$$
