
     RDKit          3D

 19 20  0  0  0  0  0  0  0  0999 V2000
   -3.0677   -0.1305    1.2472 C   0  0  0  0  0  0  0  0  0  0  0  0
   -2.1184   -0.0644    0.0567 C   0  0  0  0  0  0  0  0  0  0  0  0
   -2.8293    0.0066   -1.1668 O   0  0  0  0  0  0  0  0  0  0  0  0
   -0.9552   -1.1258    0.0860 C   0  0  0  0  0  0  0  0  0  0  0  0
    0.0387    0.0374    0.2747 C   0  0  0  0  0  0  0  0  0  0  0  0
    1.2184    0.1082    0.4850 O   0  0  0  0  0  0  0  0  0  0  0  0
   -1.0526    1.0486    0.1216 C   0  0  0  0  0  0  0  0  0  0  0  0
   -1.1133    2.4370    0.7140 C   0  0  0  0  0  0  0  0  0  0  0  0
   -0.9699    2.2755   -0.7627 C   0  0  0  0  0  0  0  0  0  0  0  0
   -3.6752   -1.0433    1.2089 H   0  0  0  0  0  0  0  0  0  0  0  0
   -2.5190   -0.1372    2.1937 H   0  0  0  0  0  0  0  0  0  0  0  0
   -3.7447    0.7294    1.2463 H   0  0  0  0  0  0  0  0  0  0  0  0
   -3.4984   -0.6863   -1.1658 H   0  0  0  0  0  0  0  0  0  0  0  0
   -0.9717   -1.8695    0.8874 H   0  0  0  0  0  0  0  0  0  0  0  0
   -0.8309   -1.6283   -0.8775 H   0  0  0  0  0  0  0  0  0  0  0  0
   -2.0705    2.7634    1.1073 H   0  0  0  0  0  0  0  0  0  0  0  0
   -0.2478    2.7491    1.2893 H   0  0  0  0  0  0  0  0  0  0  0  0
   -1.8339    2.4540   -1.3922 H   0  0  0  0  0  0  0  0  0  0  0  0
   -0.0069    2.4807   -1.2177 H   0  0  0  0  0  0  0  0  0  0  0  0
  1  2  1  0
  2  3  1  0
  2  4  1  0
  4  5  1  0
  5  6  2  0
  5  7  1  0
  7  8  1  0
  8  9  1  0
  7  2  1  0
  9  7  1  0
  1 10  1  0
  1 11  1  0
  1 12  1  0
  3 13  1  0
  4 14  1  0
  4 15  1  0
  8 16  1  0
  8 17  1  0
  9 18  1  0
  9 19  1  0
M  END
$$$$
