
     RDKit          3D

 19 20  0  0  0  0  0  0  0  0999 V2000
    1.5543   -1.1159    1.1784 C   0  0  0  0  0  0  0  0  0  0  0  0
    1.1218   -0.2040    0.0258 C   0  0  0  0  0  0  0  0  0  0  0  0
    1.7123   -0.6136   -1.3085 C   0  0  0  0  0  0  0  0  0  0  0  0
    2.0576    0.3269   -2.3980 C   0  0  0  0  0  0  0  0  0  0  0  0
    2.5124    1.5860   -1.9298 O   0  0  0  0  0  0  0  0  0  0  0  0
    3.6599    0.9679   -1.2765 C   0  0  0  0  0  0  0  0  0  0  0  0
    3.1950   -0.4302   -1.6621 C   0  0  0  0  0  0  0  0  0  0  0  0
    4.0584   -1.5026   -2.1540 C   0  0  0  0  0  0  0  0  0  0  0  0
    5.2679   -1.4609   -2.1462 O   0  0  0  0  0  0  0  0  0  0  0  0
    1.2565   -2.1545    0.9980 H   0  0  0  0  0  0  0  0  0  0  0  0
    2.6416   -1.1020    1.3070 H   0  0  0  0  0  0  0  0  0  0  0  0
    1.0999   -0.7984    2.1216 H   0  0  0  0  0  0  0  0  0  0  0  0
    0.0288   -0.2169   -0.0691 H   0  0  0  0  0  0  0  0  0  0  0  0
    1.3929    0.8350    0.2357 H   0  0  0  0  0  0  0  0  0  0  0  0
    1.3500   -1.5669   -1.6953 H   0  0  0  0  0  0  0  0  0  0  0  0
    1.7254    0.2590   -3.4286 H   0  0  0  0  0  0  0  0  0  0  0  0
    4.5879    1.2499   -1.7806 H   0  0  0  0  0  0  0  0  0  0  0  0
    3.7162    1.2169   -0.2122 H   0  0  0  0  0  0  0  0  0  0  0  0
    3.5122   -2.3879   -2.5546 H   0  0  0  0  0  0  0  0  0  0  0  0
  1  2  1  0
  2  3  1  0
  3  4  1  0
  4  5  1  0
  5  6  1  0
  6  7  1  0
  7  8  1  0
  8  9  2  0
  7  3  1  0
  7  4  1  0
  1 10  1  0
  1 11  1  0
  1 12  1  0
  2 13  1  0
  2 14  1  0
  3 15  1  0
  4 16  1  0
  6 17  1  0
  6 18  1  0
  8 19  1  0
M  END
$$$$
