gdb 3067	2.5496268	1.6553357	1.3034213	1.7639	75.46	-0.23526	-0.00137	0.23389	1044.8803	0.157433	-422.546332	-422.538149	-422.537205	-422.578579	31.807
 OpenBabel02181911413D

 19 20  0  0  1  0  0  0  0  0999 V2000
    0.8671   -0.5158   -0.8920 C   0  0  0  0  0  0  0  0  0  0  0  0
    1.0121    0.1993    0.4431 C   0  0  1  0  0  0  0  0  0  0  0  0
    2.1520   -0.3428    1.3564 C   0  0  1  0  0  0  0  0  0  0  0  0
    3.0923    0.5491    0.6737 O   0  0  0  0  0  0  0  0  0  0  0  0
    1.9619    1.4197    0.4038 C   0  0  2  0  0  0  0  0  0  0  0  0
    1.7755    2.3397    1.6215 C   0  0  1  0  0  0  0  0  0  0  0  0
    0.5383    3.0256    1.4338 O   0  0  0  0  0  0  0  0  0  0  0  0
    1.7824    1.4893    2.8806 C   0  0  0  0  0  0  0  0  0  0  0  0
    1.9527    0.1729    2.7648 C   0  0  0  0  0  0  0  0  0  0  0  0
    0.4051   -1.5006   -0.7626 H   0  0  0  0  0  0  0  0  0  0  0  0
    0.2352    0.0608   -1.5760 H   0  0  0  0  0  0  0  0  0  0  0  0
    1.8439   -0.6563   -1.3646 H   0  0  0  0  0  0  0  0  0  0  0  0
    0.0479    0.3570    0.9292 H   0  0  0  0  0  0  0  0  0  0  0  0
    2.4497   -1.3918    1.2876 H   0  0  0  0  0  0  0  0  0  0  0  0
    2.0655    1.9828   -0.5281 H   0  0  0  0  0  0  0  0  0  0  0  0
    2.6089    3.0601    1.6505 H   0  0  0  0  0  0  0  0  0  0  0  0
    0.3988    3.6106    2.1850 H   0  0  0  0  0  0  0  0  0  0  0  0
    1.6427    1.9842    3.8388 H   0  0  0  0  0  0  0  0  0  0  0  0
    1.9462   -0.5065    3.6109 H   0  0  0  0  0  0  0  0  0  0  0  0
  1 10  1  0  0  0  0
  1  2  1  0  0  0  0
  2 13  1  1  0  0  0
  2  3  1  0  0  0  0
  3 14  1  6  0  0  0
  3  9  1  0  0  0  0
  4  3  1  0  0  0  0
  5 15  1  6  0  0  0
  5  2  1  0  0  0  0
  5  4  1  0  0  0  0
  5  6  1  0  0  0  0
  6 16  1  1  0  0  0
  6  8  1  0  0  0  0
  7  6  1  0  0  0  0
  7 17  1  0  0  0  0
  8 18  1  0  0  0  0
  9  8  2  0  0  0  0
  9 19  1  0  0  0  0
 11  1  1  0  0  0  0
 12  1  1  0  0  0  0
M TOR 0 0 1 2 3
M TOR 1 0 1 2 8
M TOR 2 0 1 2 13
M TOR 3 0 1 4 3
M TOR 4 0 1 4 5
M TOR 5 0 1 4 14
M TOR 6 1 2 3 4
M TOR 7 1 2 8 7
M TOR 8 1 2 8 18
M TOR 9 1 4 5 6
M TOR 10 1 4 5 7
M TOR 11 1 4 5 15
M TOR 12 2 1 0 9
M TOR 13 2 1 0 10
M TOR 14 2 1 0 11
M TOR 15 2 1 4 5
M TOR 16 2 1 4 14
M TOR 17 2 3 4 5
M TOR 18 2 3 4 14
M TOR 19 2 8 7 5
M TOR 20 2 8 7 17
M TOR 21 3 2 1 12
M TOR 22 3 2 8 7
M TOR 23 3 2 8 18
M TOR 24 3 4 1 12
M TOR 25 3 4 5 6
M TOR 26 3 4 5 7
M TOR 27 3 4 5 15
M TOR 28 4 1 0 9
M TOR 29 4 1 0 10
M TOR 30 4 1 0 11
M TOR 31 4 1 2 8
M TOR 32 4 1 2 13
M TOR 33 4 3 2 8
M TOR 34 4 3 2 13
M TOR 35 4 5 6 16
M TOR 36 4 5 7 8
M TOR 37 4 5 7 17
M TOR 38 5 4 1 12
M TOR 39 5 7 8 18
M TOR 40 6 5 4 14
M TOR 41 6 5 7 8
M TOR 42 6 5 7 17
M TOR 43 7 5 4 14
M TOR 44 7 5 6 16
M TOR 45 7 8 2 13
M TOR 46 8 2 1 12
M TOR 47 8 7 5 15
M  END
$$$$
