
     RDKit          3D

 19 20  0  0  0  0  0  0  0  0999 V2000
    1.3296    0.7066    0.2279 C   0  0  0  0  0  0  0  0  0  0  0  0
   -0.0424    0.1413    0.1193 C   0  0  0  0  0  0  0  0  0  0  0  0
   -0.5296   -1.1005    0.1983 C   0  0  0  0  0  0  0  0  0  0  0  0
   -2.0310   -0.8637   -0.0261 C   0  0  0  0  0  0  0  0  0  0  0  0
   -2.3099    0.3404    0.9209 C   0  0  0  0  0  0  0  0  0  0  0  0
   -1.3451    0.9515   -0.1420 C   0  0  0  0  0  0  0  0  0  0  0  0
   -1.2859    2.3947   -0.5656 C   0  0  0  0  0  0  0  0  0  0  0  0
   -0.5692    2.5255   -1.7830 O   0  0  0  0  0  0  0  0  0  0  0  0
   -2.0179    0.0967   -1.1412 O   0  0  0  0  0  0  0  0  0  0  0  0
    1.4151    1.3846    1.0876 H   0  0  0  0  0  0  0  0  0  0  0  0
    2.0778   -0.0815    0.3482 H   0  0  0  0  0  0  0  0  0  0  0  0
    1.5715    1.2984   -0.6613 H   0  0  0  0  0  0  0  0  0  0  0  0
   -0.0312   -2.0430    0.3728 H   0  0  0  0  0  0  0  0  0  0  0  0
   -2.7113   -1.7030   -0.1615 H   0  0  0  0  0  0  0  0  0  0  0  0
   -3.3292    0.7264    0.8344 H   0  0  0  0  0  0  0  0  0  0  0  0
   -1.9771    0.2777    1.9586 H   0  0  0  0  0  0  0  0  0  0  0  0
   -2.3080    2.7923   -0.6548 H   0  0  0  0  0  0  0  0  0  0  0  0
   -0.7566    2.9927    0.1843 H   0  0  0  0  0  0  0  0  0  0  0  0
   -0.9363    1.8661   -2.3844 H   0  0  0  0  0  0  0  0  0  0  0  0
  1  2  1  0
  2  3  2  0
  3  4  1  0
  4  5  1  0
  5  6  1  0
  6  7  1  0
  7  8  1  0
  6  9  1  0
  6  2  1  0
  9  4  1  0
  1 10  1  0
  1 11  1  0
  1 12  1  0
  3 13  1  0
  4 14  1  0
  5 15  1  0
  5 16  1  0
  7 17  1  0
  7 18  1  0
  8 19  1  0
M  END
$$$$
