gdb 755	2.4629131	1.730039	1.2575621	2.5252	74.67	-0.22933	-0.02037	0.20896	1041.1532	0.15876	-422.564543	-422.556779	-422.555834	-422.597093	29.749
 OpenBabel02181911403D

 19 20  0  0  1  0  0  0  0  0999 V2000
    0.3657    0.1669   -1.5480 O   0  0  0  0  0  0  0  0  0  0  0  0
   -0.2704    0.0208   -0.5299 C   0  0  0  0  0  0  0  0  0  0  0  0
   -0.7053    1.2345    0.2988 C   0  0  0  0  0  0  0  0  0  0  0  0
   -1.4249    0.9077    1.4701 O   0  0  0  0  0  0  0  0  0  0  0  0
   -2.5160    0.0404    1.1846 C   0  0  0  0  0  0  0  0  0  0  0  0
   -2.0245   -1.3611    0.8396 C   0  0  2  0  0  0  0  0  0  0  0  0
   -1.2766   -2.0912    1.9919 C   0  0  0  0  0  0  0  0  0  0  0  0
    0.0781   -1.7868    1.3036 C   0  0  0  0  0  0  0  0  0  0  0  0
   -0.6878   -1.3225    0.0141 C   0  0  2  0  0  0  0  0  0  0  0  0
    0.1832    1.7946    0.6058 H   0  0  0  0  0  0  0  0  0  0  0  0
   -1.2947    1.8905   -0.3643 H   0  0  0  0  0  0  0  0  0  0  0  0
   -3.1419    0.0254    2.0827 H   0  0  0  0  0  0  0  0  0  0  0  0
   -3.1187    0.4559    0.3592 H   0  0  0  0  0  0  0  0  0  0  0  0
   -2.8340   -1.9303    0.3740 H   0  0  0  0  0  0  0  0  0  0  0  0
   -1.4140   -1.6692    2.9906 H   0  0  0  0  0  0  0  0  0  0  0  0
   -1.5056   -3.1588    2.0327 H   0  0  0  0  0  0  0  0  0  0  0  0
    0.6243   -0.9732    1.7849 H   0  0  0  0  0  0  0  0  0  0  0  0
    0.7607   -2.6251    1.1536 H   0  0  0  0  0  0  0  0  0  0  0  0
   -0.6354   -2.0586   -0.7889 H   0  0  0  0  0  0  0  0  0  0  0  0
  1  2  2  0  0  0  0
  2  9  1  0  0  0  0
  2  3  1  0  0  0  0
  3 10  1  0  0  0  0
  3  4  1  0  0  0  0
  5  4  1  0  0  0  0
  5 12  1  0  0  0  0
  6 14  1  6  0  0  0
  6  5  1  0  0  0  0
  6  7  1  0  0  0  0
  7 16  1  0  0  0  0
  7 15  1  0  0  0  0
  8 17  1  0  0  0  0
  8  7  1  0  0  0  0
  9 19  1  6  0  0  0
  9  6  1  0  0  0  0
  9  8  1  0  0  0  0
 11  3  1  0  0  0  0
 13  5  1  0  0  0  0
 18  8  1  0  0  0  0
M TOR 0 0 1 2 3
M TOR 1 0 1 2 9
M TOR 2 0 1 2 10
M TOR 3 0 1 8 5
M TOR 4 0 1 8 7
M TOR 5 0 1 8 18
M TOR 6 1 2 3 4
M TOR 7 1 8 5 4
M TOR 8 1 8 5 6
M TOR 9 1 8 5 13
M TOR 10 1 8 7 6
M TOR 11 1 8 7 16
M TOR 12 1 8 7 17
M TOR 13 2 1 8 5
M TOR 14 2 1 8 7
M TOR 15 2 1 8 18
M TOR 16 2 3 4 5
M TOR 17 2 3 4 11
M TOR 18 2 3 4 12
M TOR 19 3 2 1 8
M TOR 20 3 4 5 6
M TOR 21 3 4 5 8
M TOR 22 3 4 5 13
M TOR 23 4 3 2 9
M TOR 24 4 3 2 10
M TOR 25 4 5 6 7
M TOR 26 4 5 6 14
M TOR 27 4 5 6 15
M TOR 28 4 5 8 7
M TOR 29 4 5 8 18
M TOR 30 5 6 7 8
M TOR 31 5 6 7 16
M TOR 32 5 6 7 17
M TOR 33 5 8 7 16
M TOR 34 5 8 7 17
M TOR 35 6 5 4 11
M TOR 36 6 5 4 12
M TOR 37 6 5 8 18
M TOR 38 6 7 8 18
M TOR 39 7 6 5 13
M TOR 40 7 8 5 13
M TOR 41 8 1 2 9
M TOR 42 8 1 2 10
M TOR 43 8 5 4 11
M TOR 44 8 5 4 12
M TOR 45 8 5 6 14
M TOR 46 8 5 6 15
M TOR 47 8 7 6 14
M TOR 48 8 7 6 15
M  END
$$$$
