
     RDKit          3D

 19 21  0  0  0  0  0  0  0  0999 V2000
    0.6547   -0.0924    0.7523 O   0  0  0  0  0  0  0  0  0  0  0  0
   -0.6835    0.3803    0.8758 C   0  0  0  0  0  0  0  0  0  0  0  0
   -1.2067    0.4556    2.3467 C   0  0  0  0  0  0  0  0  0  0  0  0
   -2.0774   -0.8023    2.4795 C   0  0  0  0  0  0  0  0  0  0  0  0
   -1.2032   -2.0592    2.1820 C   0  0  0  0  0  0  0  0  0  0  0  0
   -1.5212   -2.1288    0.6773 C   0  0  0  0  0  0  0  0  0  0  0  0
   -2.9850   -2.1927    0.7130 O   0  0  0  0  0  0  0  0  0  0  0  0
   -2.8774   -0.8132    1.1284 C   0  0  0  0  0  0  0  0  0  0  0  0
   -1.6294   -0.6319    0.2357 C   0  0  0  0  0  0  0  0  0  0  0  0
    1.2398    0.5648    1.1418 H   0  0  0  0  0  0  0  0  0  0  0  0
   -0.7773    1.3576    0.3816 H   0  0  0  0  0  0  0  0  0  0  0  0
   -0.3830    0.4897    3.0672 H   0  0  0  0  0  0  0  0  0  0  0  0
   -1.8066    1.3634    2.4855 H   0  0  0  0  0  0  0  0  0  0  0  0
   -2.6747   -0.8564    3.3897 H   0  0  0  0  0  0  0  0  0  0  0  0
   -0.1457   -1.9129    2.4045 H   0  0  0  0  0  0  0  0  0  0  0  0
   -1.5677   -2.9601    2.6796 H   0  0  0  0  0  0  0  0  0  0  0  0
   -1.0565   -2.8969    0.0608 H   0  0  0  0  0  0  0  0  0  0  0  0
   -3.7994   -0.2372    1.0456 H   0  0  0  0  0  0  0  0  0  0  0  0
   -1.8240   -0.5231   -0.8299 H   0  0  0  0  0  0  0  0  0  0  0  0
  1  2  1  0
  2  3  1  0
  3  4  1  0
  4  5  1  0
  5  6  1  0
  6  7  1  0
  7  8  1  0
  8  9  1  0
  9  2  1  0
  8  4  1  0
  9  6  1  0
  1 10  1  0
  2 11  1  0
  3 12  1  0
  3 13  1  0
  4 14  1  0
  5 15  1  0
  5 16  1  0
  6 17  1  0
  8 18  1  0
  9 19  1  0
M  END
$$$$
