
     RDKit          3D

 19 21  0  0  0  0  0  0  0  0999 V2000
    4.7564   -0.0851    0.2672 C   0  0  0  0  0  0  0  0  0  0  0  0
    3.2768    0.0930    0.1668 C   0  0  0  0  0  0  0  0  0  0  0  0
    2.4132   -1.0913    0.1364 O   0  0  0  0  0  0  0  0  0  0  0  0
    1.4659    0.0254    0.0655 C   0  0  0  0  0  0  0  0  0  0  0  0
    0.0017   -0.2624    0.0011 C   0  0  0  0  0  0  0  0  0  0  0  0
    2.2875    0.9386    1.0289 C   0  0  0  0  0  0  0  0  0  0  0  0
    2.2994    2.1214    0.0284 C   0  0  0  0  0  0  0  0  0  0  0  0
    2.3957    0.8868   -0.8711 C   0  0  0  0  0  0  0  0  0  0  0  0
    2.4722    0.8965   -2.2436 O   0  0  0  0  0  0  0  0  0  0  0  0
    5.0216   -0.6405    1.1721 H   0  0  0  0  0  0  0  0  0  0  0  0
    5.1385   -0.6362   -0.5984 H   0  0  0  0  0  0  0  0  0  0  0  0
    5.2541    0.8892    0.2996 H   0  0  0  0  0  0  0  0  0  0  0  0
   -0.3207   -0.8398    0.8732 H   0  0  0  0  0  0  0  0  0  0  0  0
   -0.5675    0.6721   -0.0262 H   0  0  0  0  0  0  0  0  0  0  0  0
   -0.2395   -0.8368   -0.8993 H   0  0  0  0  0  0  0  0  0  0  0  0
    2.2263    0.9500    2.1150 H   0  0  0  0  0  0  0  0  0  0  0  0
    1.3807    2.7097   -0.0439 H   0  0  0  0  0  0  0  0  0  0  0  0
    3.1741    2.7766    0.0564 H   0  0  0  0  0  0  0  0  0  0  0  0
    2.5229   -0.0220   -2.5373 H   0  0  0  0  0  0  0  0  0  0  0  0
  1  2  1  0
  2  3  1  0
  3  4  1  0
  4  5  1  0
  4  6  1  0
  6  7  1  0
  7  8  1  0
  8  9  1  0
  6  2  1  0
  8  2  1  0
  8  4  1  0
  1 10  1  0
  1 11  1  0
  1 12  1  0
  5 13  1  0
  5 14  1  0
  5 15  1  0
  6 16  1  0
  7 17  1  0
  7 18  1  0
  9 19  1  0
M  END
$$$$
