
     RDKit          3D

 19 19  0  0  0  0  0  0  0  0999 V2000
    1.5098    0.0561    0.0488 C   0  0  0  0  0  0  0  0  0  0  0  0
    0.0549    0.0206    0.0268 C   0  0  0  0  0  0  0  0  0  0  0  0
   -1.1491   -0.0247    0.0116 C   0  0  0  0  0  0  0  0  0  0  0  0
   -2.6043   -0.0478   -0.0238 C   0  0  0  0  0  0  0  0  0  0  0  0
   -3.2242    0.2754    1.3317 C   0  0  0  0  0  0  0  0  0  0  0  0
   -3.1187   -1.3152   -0.5430 O   0  0  0  0  0  0  0  0  0  0  0  0
   -3.8639   -0.6601   -1.5874 C   0  0  0  0  0  0  0  0  0  0  0  0
   -3.2545    0.7032   -1.2497 C   0  0  0  0  0  0  0  0  0  0  0  0
   -4.2164    1.6907   -0.9937 O   0  0  0  0  0  0  0  0  0  0  0  0
    1.8937    0.1098    1.0734 H   0  0  0  0  0  0  0  0  0  0  0  0
    1.9309   -0.8415   -0.4173 H   0  0  0  0  0  0  0  0  0  0  0  0
    1.8962    0.9239   -0.4974 H   0  0  0  0  0  0  0  0  0  0  0  0
   -2.9420   -0.4967    2.0521 H   0  0  0  0  0  0  0  0  0  0  0  0
   -2.8651    1.2407    1.7017 H   0  0  0  0  0  0  0  0  0  0  0  0
   -4.3122    0.3146    1.2507 H   0  0  0  0  0  0  0  0  0  0  0  0
   -3.6386   -1.0708   -2.5773 H   0  0  0  0  0  0  0  0  0  0  0  0
   -4.9469   -0.6925   -1.4143 H   0  0  0  0  0  0  0  0  0  0  0  0
   -2.4978    1.0433   -1.9645 H   0  0  0  0  0  0  0  0  0  0  0  0
   -3.7667    2.5306   -0.8579 H   0  0  0  0  0  0  0  0  0  0  0  0
  1  2  1  0
  2  3  3  0
  3  4  1  0
  4  5  1  0
  4  6  1  0
  6  7  1  0
  7  8  1  0
  8  9  1  0
  8  4  1  0
  1 10  1  0
  1 11  1  0
  1 12  1  0
  5 13  1  0
  5 14  1  0
  5 15  1  0
  7 16  1  0
  7 17  1  0
  8 18  1  0
  9 19  1  0
M  END
$$$$
