gdb 4406	3.3802617	1.06718	0.9713588	0.9572	76.82	-0.25336	0.04493	0.29828999999999994	1278.8576	0.153447	-422.51093	-422.500967	-422.500023	-422.545823	36.272
 OpenBabel02181911413D

 19 19  0  0  1  0  0  0  0  0999 V2000
    5.3802   -2.5782   -0.6599 C   0  0  0  0  0  0  0  0  0  0  0  0
    4.6091   -1.6063    0.2138 C   0  0  2  0  0  0  0  0  0  0  0  0
    4.3588   -2.1253    1.5439 O   0  0  0  0  0  0  0  0  0  0  0  0
    2.9451   -2.2541    1.2956 C   0  0  0  0  0  0  0  0  0  0  0  0
    3.0718   -1.4833   -0.0386 C   0  0  2  0  0  0  0  0  0  0  0  0
    2.5354   -2.0571   -1.2009 O   0  0  0  0  0  0  0  0  0  0  0  0
    2.5665   -0.0365    0.0158 C   0  0  0  0  0  0  0  0  0  0  0  0
    1.1261    0.0621    0.2171 C   0  0  0  0  0  0  0  0  0  0  0  0
   -0.0580    0.1368    0.4071 C   0  0  0  0  0  0  0  0  0  0  0  0
    6.3816   -2.7338   -0.2482 H   0  0  0  0  0  0  0  0  0  0  0  0
    4.8900   -3.5565   -0.7105 H   0  0  0  0  0  0  0  0  0  0  0  0
    5.4792   -2.1867   -1.6773 H   0  0  0  0  0  0  0  0  0  0  0  0
    5.1400   -0.6463    0.2665 H   0  0  0  0  0  0  0  0  0  0  0  0
    2.6363   -3.3028    1.1734 H   0  0  0  0  0  0  0  0  0  0  0  0
    2.3333   -1.7946    2.0791 H   0  0  0  0  0  0  0  0  0  0  0  0
    2.7394   -2.9975   -1.2062 H   0  0  0  0  0  0  0  0  0  0  0  0
    3.0879    0.4853    0.8269 H   0  0  0  0  0  0  0  0  0  0  0  0
    2.8524    0.4584   -0.9205 H   0  0  0  0  0  0  0  0  0  0  0  0
   -1.1059    0.2066    0.5629 H   0  0  0  0  0  0  0  0  0  0  0  0
  1 10  1  0  0  0  0
  1  2  1  0  0  0  0
  2 13  1  1  0  0  0
  2  3  1  0  0  0  0
  4  3  1  0  0  0  0
  4 15  1  0  0  0  0
  5  6  1  6  0  0  0
  5  7  1  0  0  0  0
  5  2  1  0  0  0  0
  5  4  1  0  0  0  0
  7  8  1  0  0  0  0
  7 17  1  0  0  0  0
  8  9  3  0  0  0  0
  9 19  1  0  0  0  0
 11  1  1  0  0  0  0
 12  1  1  0  0  0  0
 14  4  1  0  0  0  0
 16  6  1  0  0  0  0
 18  7  1  0  0  0  0
M TOR 0 0 1 2 3
M TOR 1 0 1 4 3
M TOR 2 0 1 4 5
M TOR 3 0 1 4 6
M TOR 4 1 2 3 4
M TOR 5 1 2 3 13
M TOR 6 1 2 3 14
M TOR 7 1 4 3 13
M TOR 8 1 4 3 14
M TOR 9 1 4 5 15
M TOR 10 1 4 6 7
M TOR 11 1 4 6 16
M TOR 12 1 4 6 17
M TOR 13 2 1 0 9
M TOR 14 2 1 0 10
M TOR 15 2 1 0 11
M TOR 16 2 1 4 5
M TOR 17 2 1 4 6
M TOR 18 2 3 4 5
M TOR 19 2 3 4 6
M TOR 20 3 2 1 12
M TOR 21 3 4 1 12
M TOR 22 3 4 5 15
M TOR 23 3 4 6 7
M TOR 24 3 4 6 16
M TOR 25 3 4 6 17
M TOR 26 4 1 0 9
M TOR 27 4 1 0 10
M TOR 28 4 1 0 11
M TOR 29 4 6 7 8
M TOR 30 5 4 1 12
M TOR 31 5 4 3 13
M TOR 32 5 4 3 14
M TOR 33 5 4 6 7
M TOR 34 5 4 6 16
M TOR 35 5 4 6 17
M TOR 36 6 4 1 12
M TOR 37 6 4 3 13
M TOR 38 6 4 3 14
M TOR 39 6 4 5 15
M TOR 40 6 7 8 18
M TOR 41 8 7 6 16
M TOR 42 8 7 6 17
M  END
$$$$
