
     RDKit          3D

 19 21  0  0  0  0  0  0  0  0999 V2000
    0.3121   -0.6430    0.6511 C   0  0  0  0  0  0  0  0  0  0  0  0
    1.5819    0.0134    0.1512 C   0  0  0  0  0  0  0  0  0  0  0  0
    1.3670    1.3824   -0.2704 O   0  0  0  0  0  0  0  0  0  0  0  0
    2.4953    1.8462    0.5053 C   0  0  0  0  0  0  0  0  0  0  0  0
    2.6947    0.4565    1.1499 C   0  0  0  0  0  0  0  0  0  0  0  0
    3.9705   -0.3608    0.8722 C   0  0  0  0  0  0  0  0  0  0  0  0
    3.7134   -1.0415   -0.4616 C   0  0  0  0  0  0  0  0  0  0  0  0
    3.4036   -0.1191   -1.5091 O   0  0  0  0  0  0  0  0  0  0  0  0
    2.3202   -0.8207   -0.8931 C   0  0  0  0  0  0  0  0  0  0  0  0
   -0.1218   -0.0647    1.4710 H   0  0  0  0  0  0  0  0  0  0  0  0
   -0.4281   -0.7021   -0.1540 H   0  0  0  0  0  0  0  0  0  0  0  0
    0.5118   -1.6601    1.0068 H   0  0  0  0  0  0  0  0  0  0  0  0
    3.3191    2.1800   -0.1342 H   0  0  0  0  0  0  0  0  0  0  0  0
    2.2059    2.6541    1.1876 H   0  0  0  0  0  0  0  0  0  0  0  0
    2.4018    0.4273    2.2006 H   0  0  0  0  0  0  0  0  0  0  0  0
    4.8733    0.2592    0.8393 H   0  0  0  0  0  0  0  0  0  0  0  0
    4.1263   -1.1191    1.6482 H   0  0  0  0  0  0  0  0  0  0  0  0
    4.2918   -1.9124   -0.7628 H   0  0  0  0  0  0  0  0  0  0  0  0
    1.7799   -1.5073   -1.5416 H   0  0  0  0  0  0  0  0  0  0  0  0
  1  2  1  0
  2  3  1  0
  3  4  1  0
  4  5  1  0
  5  6  1  0
  6  7  1  0
  7  8  1  0
  8  9  1  0
  5  2  1  0
  9  7  1  0
  9  2  1  0
  1 10  1  0
  1 11  1  0
  1 12  1  0
  4 13  1  0
  4 14  1  0
  5 15  1  0
  6 16  1  0
  6 17  1  0
  7 18  1  0
  9 19  1  0
M  END
$$$$
