gdb 564	3.0462036	1.8049056	1.5161768	1.2376	73.34	-0.24397	0.07389	0.31786	928.6626	0.159846	-422.525729	-422.518946	-422.518002	-422.556727	27.708
 OpenBabel02181911403D

 19 21  0  0  1  0  0  0  0  0999 V2000
   -0.2644    1.3098   -0.0879 C   0  0  0  0  0  0  0  0  0  0  0  0
   -0.0070   -0.0946   -0.3150 O   0  0  0  0  0  0  0  0  0  0  0  0
    1.4024    0.0618   -0.0329 C   0  0  1  0  0  0  0  0  0  0  0  0
    2.3247   -0.1911   -1.2173 C   0  0  2  0  0  0  0  0  0  0  0  0
    3.5856    0.6940   -0.9729 C   0  0  0  0  0  0  0  0  0  0  0  0
    2.7378    1.8548   -1.5674 C   0  0  1  0  0  0  0  0  0  0  0  0
    1.9573    0.7805   -2.3714 C   0  0  0  0  0  0  0  0  0  0  0  0
    1.9306    2.4768   -0.5740 O   0  0  0  0  0  0  0  0  0  0  0  0
    1.2177    1.5773    0.2556 C   0  0  1  0  0  0  0  0  0  0  0  0
   -0.6198    1.8261   -0.9871 H   0  0  0  0  0  0  0  0  0  0  0  0
   -0.9764    1.4654    0.7313 H   0  0  0  0  0  0  0  0  0  0  0  0
    1.7027   -0.5430    0.8326 H   0  0  0  0  0  0  0  0  0  0  0  0
    2.4401   -1.2549   -1.4352 H   0  0  0  0  0  0  0  0  0  0  0  0
    3.9522    0.8135    0.0508 H   0  0  0  0  0  0  0  0  0  0  0  0
    4.4139    0.4206   -1.6305 H   0  0  0  0  0  0  0  0  0  0  0  0
    3.2369    2.6696   -2.0934 H   0  0  0  0  0  0  0  0  0  0  0  0
    0.9022    0.9561   -2.5859 H   0  0  0  0  0  0  0  0  0  0  0  0
    2.4810    0.5208   -3.2948 H   0  0  0  0  0  0  0  0  0  0  0  0
    1.3837    1.8806    1.2924 H   0  0  0  0  0  0  0  0  0  0  0  0
  1  9  1  0  0  0  0
  1 11  1  0  0  0  0
  2  1  1  0  0  0  0
  2  3  1  0  0  0  0
  3  9  1  0  0  0  0
  3 12  1  1  0  0  0
  4 13  1  6  0  0  0
  4  5  1  0  0  0  0
  4  3  1  0  0  0  0
  5 14  1  0  0  0  0
  6 16  1  6  0  0  0
  6  5  1  0  0  0  0
  6  8  1  0  0  0  0
  7  6  1  0  0  0  0
  7  4  1  0  0  0  0
  8  9  1  0  0  0  0
  9 19  1  1  0  0  0
 10  1  1  0  0  0  0
 15  5  1  0  0  0  0
 17  7  1  0  0  0  0
 18  7  1  0  0  0  0
M TOR 0 0 1 2 3
M TOR 1 0 1 2 8
M TOR 2 0 1 2 11
M TOR 3 0 8 2 3
M TOR 4 0 8 2 11
M TOR 5 0 8 7 5
M TOR 6 1 0 8 7
M TOR 7 1 0 8 18
M TOR 8 1 2 3 4
M TOR 9 1 2 3 6
M TOR 10 1 2 3 12
M TOR 11 1 2 8 7
M TOR 12 1 2 8 18
M TOR 13 2 1 0 9
M TOR 14 2 1 0 10
M TOR 15 2 3 4 5
M TOR 16 2 3 4 13
M TOR 17 2 3 4 14
M TOR 18 2 3 6 5
M TOR 19 2 3 6 16
M TOR 20 2 3 6 17
M TOR 21 2 8 0 9
M TOR 22 2 8 0 10
M TOR 23 2 8 7 5
M TOR 24 3 2 8 7
M TOR 25 3 2 8 18
M TOR 26 3 4 5 6
M TOR 27 3 4 5 7
M TOR 28 3 4 5 15
M TOR 29 3 6 5 7
M TOR 30 3 6 5 15
M TOR 31 4 3 2 8
M TOR 32 4 3 2 11
M TOR 33 4 3 6 16
M TOR 34 4 3 6 17
M TOR 35 4 5 6 16
M TOR 36 4 5 6 17
M TOR 37 4 5 7 8
M TOR 38 5 4 3 12
M TOR 39 5 6 3 12
M TOR 40 5 7 8 18
M TOR 41 6 3 2 8
M TOR 42 6 3 2 11
M TOR 43 6 3 4 13
M TOR 44 6 3 4 14
M TOR 45 6 5 4 13
M TOR 46 6 5 4 14
M TOR 47 6 5 7 8
M TOR 48 7 5 4 13
M TOR 49 7 5 4 14
M TOR 50 7 5 6 16
M TOR 51 7 5 6 17
M TOR 52 7 8 0 9
M TOR 53 7 8 0 10
M TOR 54 7 8 2 11
M TOR 55 8 2 3 12
M TOR 56 8 7 5 15
M  END
$$$$
