gdb 4466	2.9489989	1.4409507	1.040655	0.1837	77.85	-0.22773	0.01921	0.24694	1160.1346	0.157793	-422.554373	-422.546019	-422.545075	-422.587634	30.502
 OpenBabel02181911413D

 19 20  0  0  1  0  0  0  0  0999 V2000
    0.2594    0.2757   -0.4455 C   0  0  0  0  0  0  0  0  0  0  0  0
    1.0571   -0.5192    0.5877 C   0  0  1  0  0  0  0  0  0  0  0  0
    2.3988    0.0058    0.6733 O   0  0  0  0  0  0  0  0  0  0  0  0
    2.7480    0.3426    2.0215 C   0  0  0  0  0  0  0  0  0  0  0  0
    1.5012    0.0637    2.7966 C   0  0  0  0  0  0  0  0  0  0  0  0
    0.5619   -0.4222    1.9985 C   0  0  0  0  0  0  0  0  0  0  0  0
   -0.6754   -0.7282    2.7792 C   0  0  0  0  0  0  0  0  0  0  0  0
   -0.3432   -0.3486    4.1225 O   0  0  0  0  0  0  0  0  0  0  0  0
    1.0016    0.1449    4.2025 C   0  0  0  0  0  0  0  0  0  0  0  0
    0.1605    1.3195   -0.1336 H   0  0  0  0  0  0  0  0  0  0  0  0
    0.7692    0.2477   -1.4123 H   0  0  0  0  0  0  0  0  0  0  0  0
   -0.7414   -0.1510   -0.5716 H   0  0  0  0  0  0  0  0  0  0  0  0
    1.1165   -1.5694    0.2558 H   0  0  0  0  0  0  0  0  0  0  0  0
    3.6025   -0.2694    2.3521 H   0  0  0  0  0  0  0  0  0  0  0  0
    3.0671    1.3947    2.0663 H   0  0  0  0  0  0  0  0  0  0  0  0
   -1.5553   -0.1579    2.4439 H   0  0  0  0  0  0  0  0  0  0  0  0
   -0.9500   -1.7944    2.7531 H   0  0  0  0  0  0  0  0  0  0  0  0
    0.9943    1.1705    4.6029 H   0  0  0  0  0  0  0  0  0  0  0  0
    1.5821   -0.4739    4.9046 H   0  0  0  0  0  0  0  0  0  0  0  0
  1 10  1  0  0  0  0
  1  2  1  0  0  0  0
  2 13  1  6  0  0  0
  2  3  1  0  0  0  0
  2  6  1  0  0  0  0
  3  4  1  0  0  0  0
  4 15  1  0  0  0  0
  4 14  1  0  0  0  0
  4  5  1  0  0  0  0
  5  9  1  0  0  0  0
  6  7  1  0  0  0  0
  6  5  2  0  0  0  0
  7  8  1  0  0  0  0
  8  9  1  0  0  0  0
  9 18  1  0  0  0  0
  9 19  1  0  0  0  0
 11  1  1  0  0  0  0
 12  1  1  0  0  0  0
 16  7  1  0  0  0  0
 17  7  1  0  0  0  0
M TOR 0 0 1 2 3
M TOR 1 0 1 5 4
M TOR 2 0 1 5 6
M TOR 3 1 2 3 4
M TOR 4 1 2 3 13
M TOR 5 1 2 3 14
M TOR 6 1 5 4 3
M TOR 7 1 5 4 8
M TOR 8 1 5 6 7
M TOR 9 1 5 6 15
M TOR 10 1 5 6 16
M TOR 11 2 1 0 9
M TOR 12 2 1 0 10
M TOR 13 2 1 0 11
M TOR 14 2 1 5 4
M TOR 15 2 1 5 6
M TOR 16 2 3 4 5
M TOR 17 2 3 4 8
M TOR 18 3 2 1 5
M TOR 19 3 2 1 12
M TOR 20 3 4 5 6
M TOR 21 3 4 8 7
M TOR 22 3 4 8 17
M TOR 23 3 4 8 18
M TOR 24 4 5 1 12
M TOR 25 4 5 6 7
M TOR 26 4 5 6 15
M TOR 27 4 5 6 16
M TOR 28 4 8 7 6
M TOR 29 5 1 0 9
M TOR 30 5 1 0 10
M TOR 31 5 1 0 11
M TOR 32 5 4 3 13
M TOR 33 5 4 3 14
M TOR 34 5 4 8 7
M TOR 35 5 4 8 17
M TOR 36 5 4 8 18
M TOR 37 5 6 7 8
M TOR 38 6 5 1 12
M TOR 39 6 5 4 8
M TOR 40 6 7 8 17
M TOR 41 6 7 8 18
M TOR 42 8 4 3 13
M TOR 43 8 4 3 14
M TOR 44 8 7 6 15
M TOR 45 8 7 6 16
M  END
$$$$
