
     RDKit          3D

 19 19  0  0  0  0  0  0  0  0999 V2000
    1.6623   -0.9841    0.9994 C   0  0  0  0  0  0  0  0  0  0  0  0
    1.4002   -0.2489   -0.3186 C   0  0  0  0  0  0  0  0  0  0  0  0
    2.1431   -0.8038   -1.5620 C   0  0  0  0  0  0  0  0  0  0  0  0
    1.8128   -2.2559   -1.9187 C   0  0  0  0  0  0  0  0  0  0  0  0
    2.5099   -3.2270   -1.1224 O   0  0  0  0  0  0  0  0  0  0  0  0
    3.8494   -3.0736   -0.9387 C   0  0  0  0  0  0  0  0  0  0  0  0
    4.4996   -3.9903   -0.5075 O   0  0  0  0  0  0  0  0  0  0  0  0
    4.4132   -1.7319   -1.2141 C   0  0  0  0  0  0  0  0  0  0  0  0
    3.6369   -0.6722   -1.4532 C   0  0  0  0  0  0  0  0  0  0  0  0
    1.3471   -2.0297    0.9504 H   0  0  0  0  0  0  0  0  0  0  0  0
    2.7247   -0.9713    1.2602 H   0  0  0  0  0  0  0  0  0  0  0  0
    1.1132   -0.5039    1.8150 H   0  0  0  0  0  0  0  0  0  0  0  0
    0.3262   -0.2643   -0.5425 H   0  0  0  0  0  0  0  0  0  0  0  0
    1.6705    0.8089   -0.2069 H   0  0  0  0  0  0  0  0  0  0  0  0
    1.8114   -0.1964   -2.4155 H   0  0  0  0  0  0  0  0  0  0  0  0
    0.7520   -2.4751   -1.7728 H   0  0  0  0  0  0  0  0  0  0  0  0
    2.0578   -2.4378   -2.9729 H   0  0  0  0  0  0  0  0  0  0  0  0
    5.4907   -1.6664   -1.1202 H   0  0  0  0  0  0  0  0  0  0  0  0
    4.0717    0.3200   -1.5510 H   0  0  0  0  0  0  0  0  0  0  0  0
  1  2  1  0
  2  3  1  0
  3  4  1  0
  4  5  1  0
  5  6  1  0
  6  7  2  0
  6  8  1  0
  8  9  2  0
  9  3  1  0
  1 10  1  0
  1 11  1  0
  1 12  1  0
  2 13  1  0
  2 14  1  0
  3 15  1  0
  4 16  1  0
  4 17  1  0
  8 18  1  0
  9 19  1  0
M  END
$$$$
