
     RDKit          3D

 19 19  0  0  0  0  0  0  0  0999 V2000
    1.3478    0.6023   -0.4205 C   0  0  0  0  0  0  0  0  0  0  0  0
   -0.0844    0.2638   -0.1071 C   0  0  0  0  0  0  0  0  0  0  0  0
   -1.1258    1.1195   -0.0415 C   0  0  0  0  0  0  0  0  0  0  0  0
   -2.5083    0.6344    0.3370 C   0  0  0  0  0  0  0  0  0  0  0  0
   -2.4355   -0.7331    1.0043 C   0  0  0  0  0  0  0  0  0  0  0  0
   -1.6413   -1.6208    0.2296 O   0  0  0  0  0  0  0  0  0  0  0  0
   -0.3004   -1.2088    0.1663 C   0  0  0  0  0  0  0  0  0  0  0  0
   -1.0076    2.5592   -0.3284 C   0  0  0  0  0  0  0  0  0  0  0  0
   -1.9398    3.3324   -0.2513 O   0  0  0  0  0  0  0  0  0  0  0  0
    2.0098    0.1612    0.3351 H   0  0  0  0  0  0  0  0  0  0  0  0
    1.6412    0.1628   -1.3823 H   0  0  0  0  0  0  0  0  0  0  0  0
    1.5550    1.6704   -0.4595 H   0  0  0  0  0  0  0  0  0  0  0  0
   -2.9792    1.3690    0.9982 H   0  0  0  0  0  0  0  0  0  0  0  0
   -3.1412    0.5836   -0.5577 H   0  0  0  0  0  0  0  0  0  0  0  0
   -2.0184   -0.6411    2.0210 H   0  0  0  0  0  0  0  0  0  0  0  0
   -3.4222   -1.1961    1.0843 H   0  0  0  0  0  0  0  0  0  0  0  0
    0.2370   -1.4640    1.1012 H   0  0  0  0  0  0  0  0  0  0  0  0
    0.1698   -1.7999   -0.6301 H   0  0  0  0  0  0  0  0  0  0  0  0
   -0.0076    2.9244   -0.6358 H   0  0  0  0  0  0  0  0  0  0  0  0
  1  2  1  0
  2  3  2  0
  3  4  1  0
  4  5  1  0
  5  6  1  0
  6  7  1  0
  3  8  1  0
  8  9  2  0
  7  2  1  0
  1 10  1  0
  1 11  1  0
  1 12  1  0
  4 13  1  0
  4 14  1  0
  5 15  1  0
  5 16  1  0
  7 17  1  0
  7 18  1  0
  8 19  1  0
M  END
$$$$
