
     RDKit          3D

 19 21  0  0  0  0  0  0  0  0999 V2000
    0.6583    1.3315    0.1774 C   0  0  0  0  0  0  0  0  0  0  0  0
    1.5384    0.1595   -0.2444 C   0  0  0  0  0  0  0  0  0  0  0  0
    0.0894   -0.0463    0.0523 C   0  0  0  0  0  0  0  0  0  0  0  0
   -0.7938   -0.3055   -1.0445 O   0  0  0  0  0  0  0  0  0  0  0  0
   -1.7637   -1.2037   -0.5192 C   0  0  0  0  0  0  0  0  0  0  0  0
   -1.9811   -0.7029    0.9121 C   0  0  0  0  0  0  0  0  0  0  0  0
   -0.4726   -0.8785    1.1990 C   0  0  0  0  0  0  0  0  0  0  0  0
   -0.3067   -2.3562    0.7912 C   0  0  0  0  0  0  0  0  0  0  0  0
   -1.1917   -2.4879   -0.3441 O   0  0  0  0  0  0  0  0  0  0  0  0
    0.7994    1.7563    1.1661 H   0  0  0  0  0  0  0  0  0  0  0  0
    0.3816    2.0443   -0.5915 H   0  0  0  0  0  0  0  0  0  0  0  0
    1.8384    0.1119   -1.2851 H   0  0  0  0  0  0  0  0  0  0  0  0
    2.2762   -0.2120    0.4599 H   0  0  0  0  0  0  0  0  0  0  0  0
   -2.5956   -1.2748   -1.2170 H   0  0  0  0  0  0  0  0  0  0  0  0
   -2.3220    0.3323    0.9605 H   0  0  0  0  0  0  0  0  0  0  0  0
   -2.6282   -1.3554    1.5013 H   0  0  0  0  0  0  0  0  0  0  0  0
   -0.1003   -0.6205    2.1894 H   0  0  0  0  0  0  0  0  0  0  0  0
    0.7166   -2.5999    0.4879 H   0  0  0  0  0  0  0  0  0  0  0  0
   -0.6213   -3.0478    1.5829 H   0  0  0  0  0  0  0  0  0  0  0  0
  1  2  1  0
  2  3  1  0
  3  4  1  0
  4  5  1  0
  5  6  1  0
  6  7  1  0
  7  8  1  0
  8  9  1  0
  3  1  1  0
  7  3  1  0
  9  5  1  0
  1 10  1  0
  1 11  1  0
  2 12  1  0
  2 13  1  0
  5 14  1  0
  6 15  1  0
  6 16  1  0
  7 17  1  0
  8 18  1  0
  8 19  1  0
M  END
$$$$
