gdb 5210	4.0157645	1.1784076	1.0944588	0.5329	74.6	-0.21659	0.07293	0.28952	1170.7881	0.155436	-422.496326	-422.487829	-422.486885	-422.529148	32.914
 OpenBabel02181911423D

 19 21  0  0  1  0  0  0  0  0999 V2000
    1.3656    0.8873    0.4419 C   0  0  0  0  0  0  0  0  0  0  0  0
    0.8950   -0.4896   -0.0429 C   0  0  0  0  0  0  0  0  0  0  0  0
    1.6251   -0.9429   -1.2724 C   0  0  1  0  0  0  0  0  0  0  0  0
    1.5449   -0.2266   -2.6553 C   0  0  0  0  0  0  0  0  0  0  0  0
    2.0506   -1.5595   -3.2086 C   0  0  1  0  0  0  0  0  0  0  0  0
    2.0532   -2.0081   -4.5106 O   0  0  0  0  0  0  0  0  0  0  0  0
    3.0034   -2.0935   -2.1171 C   0  0  1  0  0  0  0  0  0  0  0  0
    3.0741   -1.1196   -1.0809 O   0  0  0  0  0  0  0  0  0  0  0  0
    1.5329   -2.3361   -2.0121 C   0  0  1  0  0  0  0  0  0  0  0  0
    0.8475    1.1735    1.3615 H   0  0  0  0  0  0  0  0  0  0  0  0
    2.4403    0.8760    0.6429 H   0  0  0  0  0  0  0  0  0  0  0  0
    1.1707    1.6604   -0.3083 H   0  0  0  0  0  0  0  0  0  0  0  0
    1.0472   -1.2367    0.7448 H   0  0  0  0  0  0  0  0  0  0  0  0
   -0.1792   -0.4728   -0.2641 H   0  0  0  0  0  0  0  0  0  0  0  0
    0.5097   -0.0441   -2.9557 H   0  0  0  0  0  0  0  0  0  0  0  0
    2.1544    0.6750   -2.7761 H   0  0  0  0  0  0  0  0  0  0  0  0
    2.8378   -1.6620   -4.9510 H   0  0  0  0  0  0  0  0  0  0  0  0
    3.8392   -2.7573   -2.2975 H   0  0  0  0  0  0  0  0  0  0  0  0
    0.9143   -3.2156   -1.9013 H   0  0  0  0  0  0  0  0  0  0  0  0
  1 11  1  0  0  0  0
  1 10  1  0  0  0  0
  2  1  1  0  0  0  0
  2 13  1  0  0  0  0
  3  8  1  0  0  0  0
  3  2  1  1  0  0  0
  4  3  1  0  0  0  0
  5  6  1  6  0  0  0
  5  4  1  0  0  0  0
  5  7  1  0  0  0  0
  5  9  1  0  0  0  0
  7 18  1  6  0  0  0
  7  9  1  0  0  0  0
  7  8  1  0  0  0  0
  9 19  1  1  0  0  0
  9  3  1  0  0  0  0
 12  1  1  0  0  0  0
 14  2  1  0  0  0  0
 15  4  1  0  0  0  0
 16  4  1  0  0  0  0
 17  6  1  0  0  0  0
M TOR 0 0 1 2 3
M TOR 1 0 1 2 7
M TOR 2 0 1 2 8
M TOR 3 1 2 3 4
M TOR 4 1 2 3 14
M TOR 5 1 2 3 15
M TOR 6 1 2 7 6
M TOR 7 1 2 8 4
M TOR 8 1 2 8 6
M TOR 9 1 2 8 18
M TOR 10 2 1 0 9
M TOR 11 2 1 0 10
M TOR 12 2 1 0 11
M TOR 13 2 3 4 5
M TOR 14 2 3 4 6
M TOR 15 2 3 4 8
M TOR 16 2 7 6 4
M TOR 17 2 7 6 8
M TOR 18 2 7 6 17
M TOR 19 2 8 4 5
M TOR 20 2 8 4 6
M TOR 21 2 8 6 17
M TOR 22 3 2 1 12
M TOR 23 3 2 1 13
M TOR 24 3 2 7 6
M TOR 25 3 2 8 6
M TOR 26 3 2 8 18
M TOR 27 3 4 5 16
M TOR 28 3 4 6 7
M TOR 29 3 4 6 8
M TOR 30 3 4 6 17
M TOR 31 3 4 8 18
M TOR 32 4 3 2 7
M TOR 33 4 6 8 18
M TOR 34 4 8 2 7
M TOR 35 4 8 6 7
M TOR 36 4 8 6 17
M TOR 37 5 4 3 14
M TOR 38 5 4 3 15
M TOR 39 5 4 6 7
M TOR 40 5 4 6 8
M TOR 41 5 4 6 17
M TOR 42 5 4 8 18
M TOR 43 6 4 3 14
M TOR 44 6 4 3 15
M TOR 45 6 4 5 16
M TOR 46 7 2 1 12
M TOR 47 7 2 1 13
M TOR 48 7 2 3 14
M TOR 49 7 2 3 15
M TOR 50 7 2 8 18
M TOR 51 7 6 8 18
M TOR 52 8 2 1 12
M TOR 53 8 2 1 13
M TOR 54 8 2 3 14
M TOR 55 8 2 3 15
M TOR 56 8 4 3 14
M TOR 57 8 4 3 15
M TOR 58 8 4 5 16
M  END
$$$$
