gdb 4953	2.4688569	1.651143	1.1764944	2.5843	74.59	-0.22696	0.06731	0.29427	1091.5635	0.155529	-422.471143	-422.462607	-422.461662	-422.504345	32.296
 OpenBabel02181911413D

 19 21  0  0  1  0  0  0  0  0999 V2000
    2.8256    0.1223    1.1873 C   0  0  0  0  0  0  0  0  0  0  0  0
    1.8693    0.3838    0.0162 C   0  0  0  0  0  0  0  0  0  0  0  0
    2.4052   -0.0270   -1.3279 C   0  0  1  0  0  0  0  0  0  0  0  0
    1.7075    0.0161   -2.7089 C   0  0  2  0  0  0  0  0  0  0  0  0
    0.6413   -0.8829   -2.9273 O   0  0  0  0  0  0  0  0  0  0  0  0
    3.0752   -0.5641   -3.0684 C   0  0  1  0  0  0  0  0  0  0  0  0
    3.7908    0.2992   -1.9864 C   0  0  2  0  0  0  0  0  0  0  0  0
    4.4880   -0.8277   -1.3746 O   0  0  0  0  0  0  0  0  0  0  0  0
    3.1685   -1.3470   -1.7232 C   0  0  1  0  0  0  0  0  0  0  0  0
    3.0641   -0.9413    1.2742 H   0  0  0  0  0  0  0  0  0  0  0  0
    3.7704    0.6566    1.0573 H   0  0  0  0  0  0  0  0  0  0  0  0
    2.3751    0.4475    2.1300 H   0  0  0  0  0  0  0  0  0  0  0  0
    0.9240   -0.1500    0.1875 H   0  0  0  0  0  0  0  0  0  0  0  0
    1.6107    1.4513   -0.0194 H   0  0  0  0  0  0  0  0  0  0  0  0
    1.4844    1.0166   -3.1064 H   0  0  0  0  0  0  0  0  0  0  0  0
   -0.1654   -0.4856   -2.5853 H   0  0  0  0  0  0  0  0  0  0  0  0
    3.4744   -0.8706   -4.0338 H   0  0  0  0  0  0  0  0  0  0  0  0
    4.3161    1.2484   -2.0877 H   0  0  0  0  0  0  0  0  0  0  0  0
    2.9388   -2.3873   -1.5023 H   0  0  0  0  0  0  0  0  0  0  0  0
  1 10  1  0  0  0  0
  1 12  1  0  0  0  0
  2 13  1  0  0  0  0
  2  1  1  0  0  0  0
  3  2  1  1  0  0  0
  4 15  1  6  0  0  0
  4  3  1  0  0  0  0
  5  4  1  0  0  0  0
  5 16  1  0  0  0  0
  6 17  1  6  0  0  0
  6  4  1  0  0  0  0
  6  7  1  0  0  0  0
  6  9  1  0  0  0  0
  7 18  1  6  0  0  0
  7  8  1  0  0  0  0
  7  3  1  0  0  0  0
  9 19  1  1  0  0  0
  9  8  1  0  0  0  0
  9  3  1  0  0  0  0
 11  1  1  0  0  0  0
 14  2  1  0  0  0  0
M TOR 0 0 1 2 3
M TOR 1 0 1 2 6
M TOR 2 0 1 2 8
M TOR 3 1 2 3 4
M TOR 4 1 2 3 5
M TOR 5 1 2 3 14
M TOR 6 1 2 6 5
M TOR 7 1 2 6 7
M TOR 8 1 2 6 17
M TOR 9 1 2 8 5
M TOR 10 1 2 8 7
M TOR 11 1 2 8 18
M TOR 12 2 1 0 9
M TOR 13 2 1 0 10
M TOR 14 2 1 0 11
M TOR 15 2 3 4 15
M TOR 16 2 3 5 6
M TOR 17 2 3 5 8
M TOR 18 2 3 5 16
M TOR 19 2 6 5 8
M TOR 20 2 6 5 16
M TOR 21 2 6 7 8
M TOR 22 2 8 5 16
M TOR 23 3 2 1 12
M TOR 24 3 2 1 13
M TOR 25 3 2 6 7
M TOR 26 3 2 6 17
M TOR 27 3 2 8 7
M TOR 28 3 2 8 18
M TOR 29 3 5 6 7
M TOR 30 3 5 6 17
M TOR 31 3 5 8 7
M TOR 32 3 5 8 18
M TOR 33 4 3 2 6
M TOR 34 4 3 2 8
M TOR 35 4 3 5 6
M TOR 36 4 3 5 8
M TOR 37 4 3 5 16
M TOR 38 5 3 4 15
M TOR 39 5 6 7 8
M TOR 40 6 2 1 12
M TOR 41 6 2 1 13
M TOR 42 6 2 3 14
M TOR 43 6 2 8 18
M TOR 44 6 5 3 14
M TOR 45 6 5 8 18
M TOR 46 6 7 8 18
M TOR 47 7 6 5 16
M TOR 48 7 8 5 16
M TOR 49 8 2 1 12
M TOR 50 8 2 1 13
M TOR 51 8 2 3 14
M TOR 52 8 2 6 17
M TOR 53 8 5 3 14
M TOR 54 8 5 6 17
M TOR 55 8 7 6 17
M  END
$$$$
