
     RDKit          3D

 19 19  0  0  0  0  0  0  0  0999 V2000
    0.1062   -0.9116    0.7310 O   0  0  0  0  0  0  0  0  0  0  0  0
    0.3149    0.0081   -0.0162 C   0  0  0  0  0  0  0  0  0  0  0  0
    0.4019    1.4672    0.4102 C   0  0  0  0  0  0  0  0  0  0  0  0
   -0.8792    2.1712    0.0223 C   0  0  0  0  0  0  0  0  0  0  0  0
   -0.9925    2.9562   -1.0505 C   0  0  0  0  0  0  0  0  0  0  0  0
   -2.2837    3.6456   -1.4023 C   0  0  0  0  0  0  0  0  0  0  0  0
   -3.2387    3.6096   -0.2069 C   0  0  0  0  0  0  0  0  0  0  0  0
   -3.3026    2.3086    0.3518 O   0  0  0  0  0  0  0  0  0  0  0  0
   -2.0725    1.9036    0.9127 C   0  0  0  0  0  0  0  0  0  0  0  0
    0.4163   -0.1486   -1.1141 H   0  0  0  0  0  0  0  0  0  0  0  0
    0.5620    1.4981    1.4934 H   0  0  0  0  0  0  0  0  0  0  0  0
    1.2543    1.9335   -0.0956 H   0  0  0  0  0  0  0  0  0  0  0  0
   -0.1335    3.1244   -1.6966 H   0  0  0  0  0  0  0  0  0  0  0  0
   -2.0948    4.6861   -1.6955 H   0  0  0  0  0  0  0  0  0  0  0  0
   -2.7471    3.1601   -2.2723 H   0  0  0  0  0  0  0  0  0  0  0  0
   -2.9087    4.3358    0.5547 H   0  0  0  0  0  0  0  0  0  0  0  0
   -4.2596    3.8682   -0.5004 H   0  0  0  0  0  0  0  0  0  0  0  0
   -1.9094    2.3940    1.8915 H   0  0  0  0  0  0  0  0  0  0  0  0
   -2.1620    0.8296    1.1134 H   0  0  0  0  0  0  0  0  0  0  0  0
  1  2  2  0
  2  3  1  0
  3  4  1  0
  4  5  2  0
  5  6  1  0
  6  7  1  0
  7  8  1  0
  8  9  1  0
  9  4  1  0
  2 10  1  0
  3 11  1  0
  3 12  1  0
  5 13  1  0
  6 14  1  0
  6 15  1  0
  7 16  1  0
  7 17  1  0
  9 18  1  0
  9 19  1  0
M  END
$$$$
