
     RDKit          3D

 19 21  0  0  0  0  0  0  0  0999 V2000
    0.0444   -0.5956   -0.3632 C   0  0  0  0  0  0  0  0  0  0  0  0
    1.4622   -0.1822   -0.0745 C   0  0  0  0  0  0  0  0  0  0  0  0
    2.1683   -0.6790    1.2221 C   0  0  0  0  0  0  0  0  0  0  0  0
    3.3949   -1.0348    0.3656 C   0  0  0  0  0  0  0  0  0  0  0  0
    4.3669   -2.1140    0.5406 C   0  0  0  0  0  0  0  0  0  0  0  0
    4.7352   -0.7388    0.7187 O   0  0  0  0  0  0  0  0  0  0  0  0
    2.7355   -0.5379   -0.9201 C   0  0  0  0  0  0  0  0  0  0  0  0
    2.8493    0.9826   -1.1118 C   0  0  0  0  0  0  0  0  0  0  0  0
    1.6919    1.2332   -0.2792 O   0  0  0  0  0  0  0  0  0  0  0  0
   -0.6388   -0.1108    0.3434 H   0  0  0  0  0  0  0  0  0  0  0  0
   -0.2493   -0.3005   -1.3747 H   0  0  0  0  0  0  0  0  0  0  0  0
   -0.0759   -1.6791   -0.2634 H   0  0  0  0  0  0  0  0  0  0  0  0
    2.3288    0.1125    1.9570 H   0  0  0  0  0  0  0  0  0  0  0  0
    1.6950   -1.5396    1.7043 H   0  0  0  0  0  0  0  0  0  0  0  0
    4.3506   -2.7140    1.4502 H   0  0  0  0  0  0  0  0  0  0  0  0
    4.7996   -2.6038   -0.3314 H   0  0  0  0  0  0  0  0  0  0  0  0
    2.7497   -1.1787   -1.8015 H   0  0  0  0  0  0  0  0  0  0  0  0
    3.7610    1.4470   -0.7197 H   0  0  0  0  0  0  0  0  0  0  0  0
    2.6795    1.3256   -2.1395 H   0  0  0  0  0  0  0  0  0  0  0  0
  1  2  1  0
  2  3  1  0
  3  4  1  0
  4  5  1  0
  5  6  1  0
  4  7  1  0
  7  8  1  0
  8  9  1  0
  7  2  1  0
  9  2  1  0
  6  4  1  0
  1 10  1  0
  1 11  1  0
  1 12  1  0
  3 13  1  0
  3 14  1  0
  5 15  1  0
  5 16  1  0
  7 17  1  0
  8 18  1  0
  8 19  1  0
M  END
$$$$
