gdb 3905	2.7307952	1.3007365	1.0648394	3.1731	76.54	-0.24408	-0.02453	0.21955	1172.2068	0.156025	-422.542055	-422.533358	-422.532414	-422.575938	32.391
 OpenBabel02181911413D

 19 20  0  0  1  0  0  0  0  0999 V2000
   -1.1096    0.4585    1.4947 O   0  0  0  0  0  0  0  0  0  0  0  0
   -1.8811    0.0621    0.3834 C   0  0  2  0  0  0  0  0  0  0  0  0
   -2.3866    1.2950   -0.3981 C   0  0  0  0  0  0  0  0  0  0  0  0
   -3.8530    0.8099   -0.2798 C   0  0  1  0  0  0  0  0  0  0  0  0
   -4.3188   -0.2621   -1.2987 C   0  0  0  0  0  0  0  0  0  0  0  0
   -3.9420   -1.4024   -0.3066 C   0  0  0  0  0  0  0  0  0  0  0  0
   -3.3510   -0.3684    0.6769 C   0  0  1  0  0  0  0  0  0  0  0  0
   -4.8737    1.7829    0.2075 C   0  0  0  0  0  0  0  0  0  0  0  0
   -6.0435    1.7716   -0.0915 O   0  0  0  0  0  0  0  0  0  0  0  0
   -0.8521   -0.3311    1.9822 H   0  0  0  0  0  0  0  0  0  0  0  0
   -1.3432   -0.6760   -0.2299 H   0  0  0  0  0  0  0  0  0  0  0  0
   -2.2089    2.1952    0.1989 H   0  0  0  0  0  0  0  0  0  0  0  0
   -2.0010    1.4529   -1.4082 H   0  0  0  0  0  0  0  0  0  0  0  0
   -5.3857   -0.1861   -1.5132 H   0  0  0  0  0  0  0  0  0  0  0  0
   -3.7658   -0.2555   -2.2415 H   0  0  0  0  0  0  0  0  0  0  0  0
   -4.8175   -1.9189    0.0934 H   0  0  0  0  0  0  0  0  0  0  0  0
   -3.2358   -2.1554   -0.6704 H   0  0  0  0  0  0  0  0  0  0  0  0
   -3.6157   -0.4189    1.7342 H   0  0  0  0  0  0  0  0  0  0  0  0
   -4.4765    2.5383    0.9261 H   0  0  0  0  0  0  0  0  0  0  0  0
  1 10  1  0  0  0  0
  2 11  1  6  0  0  0
  2  7  1  0  0  0  0
  2  1  1  0  0  0  0
  3  4  1  0  0  0  0
  3 12  1  0  0  0  0
  3  2  1  0  0  0  0
  4  8  1  1  0  0  0
  4  7  1  0  0  0  0
  5  6  1  0  0  0  0
  5  4  1  0  0  0  0
  6 16  1  0  0  0  0
  6  7  1  0  0  0  0
  7 18  1  1  0  0  0
  8 19  1  0  0  0  0
  9  8  2  0  0  0  0
 13  3  1  0  0  0  0
 14  5  1  0  0  0  0
 15  5  1  0  0  0  0
 17  6  1  0  0  0  0
M TOR 0 0 1 2 3
M TOR 1 0 1 2 11
M TOR 2 0 1 2 12
M TOR 3 0 1 6 3
M TOR 4 0 1 6 5
M TOR 5 0 1 6 17
M TOR 6 1 2 3 4
M TOR 7 1 2 3 6
M TOR 8 1 2 3 7
M TOR 9 1 6 3 4
M TOR 10 1 6 3 7
M TOR 11 1 6 5 4
M TOR 12 1 6 5 15
M TOR 13 1 6 5 16
M TOR 14 2 1 0 9
M TOR 15 2 1 6 5
M TOR 16 2 1 6 17
M TOR 17 2 3 4 5
M TOR 18 2 3 4 13
M TOR 19 2 3 4 14
M TOR 20 2 3 6 5
M TOR 21 2 3 6 17
M TOR 22 2 3 7 8
M TOR 23 2 3 7 18
M TOR 24 3 2 1 10
M TOR 25 3 4 5 6
M TOR 26 3 4 5 15
M TOR 27 3 4 5 16
M TOR 28 3 6 1 10
M TOR 29 3 6 5 15
M TOR 30 3 6 5 16
M TOR 31 4 3 2 11
M TOR 32 4 3 2 12
M TOR 33 4 3 6 17
M TOR 34 4 3 7 8
M TOR 35 4 3 7 18
M TOR 36 4 5 6 17
M TOR 37 5 4 3 7
M TOR 38 5 6 1 10
M TOR 39 5 6 3 7
M TOR 40 6 1 0 9
M TOR 41 6 1 2 11
M TOR 42 6 1 2 12
M TOR 43 6 3 2 11
M TOR 44 6 3 2 12
M TOR 45 6 3 4 13
M TOR 46 6 3 4 14
M TOR 47 6 3 7 8
M TOR 48 6 3 7 18
M TOR 49 6 5 4 13
M TOR 50 6 5 4 14
M TOR 51 7 3 2 11
M TOR 52 7 3 2 12
M TOR 53 7 3 4 13
M TOR 54 7 3 4 14
M TOR 55 7 3 6 17
M  END
$$$$
