
     RDKit          3D

 19 21  0  0  0  0  0  0  0  0999 V2000
    0.6197    0.8657    0.5696 O   0  0  0  0  0  0  0  0  0  0  0  0
   -0.7157    0.5366    0.8800 C   0  0  0  0  0  0  0  0  0  0  0  0
   -1.1792    0.8233    2.3503 C   0  0  0  0  0  0  0  0  0  0  0  0
   -1.5092   -0.6853    2.5426 C   0  0  0  0  0  0  0  0  0  0  0  0
   -1.0239   -0.9836    1.0928 C   0  0  0  0  0  0  0  0  0  0  0  0
   -2.4226   -1.5390    0.7433 C   0  0  0  0  0  0  0  0  0  0  0  0
   -3.5188   -0.5178    0.9915 C   0  0  0  0  0  0  0  0  0  0  0  0
   -2.9073   -1.2340    2.1570 C   0  0  0  0  0  0  0  0  0  0  0  0
   -3.6471   -2.0517    2.9939 O   0  0  0  0  0  0  0  0  0  0  0  0
    1.1921    0.4425    1.2188 H   0  0  0  0  0  0  0  0  0  0  0  0
   -1.3143    1.0186    0.1034 H   0  0  0  0  0  0  0  0  0  0  0  0
   -0.3407    1.1622    2.9668 H   0  0  0  0  0  0  0  0  0  0  0  0
   -2.0021    1.5328    2.4767 H   0  0  0  0  0  0  0  0  0  0  0  0
   -1.0779   -1.2049    3.3983 H   0  0  0  0  0  0  0  0  0  0  0  0
   -0.1925   -1.6625    0.8953 H   0  0  0  0  0  0  0  0  0  0  0  0
   -2.6100   -2.4010    0.1147 H   0  0  0  0  0  0  0  0  0  0  0  0
   -3.3856    0.5439    0.8060 H   0  0  0  0  0  0  0  0  0  0  0  0
   -4.5070   -0.8880    0.7351 H   0  0  0  0  0  0  0  0  0  0  0  0
   -4.2954   -1.5081    3.4553 H   0  0  0  0  0  0  0  0  0  0  0  0
  1  2  1  0
  2  3  1  0
  3  4  1  0
  4  5  1  0
  5  6  1  0
  6  7  1  0
  7  8  1  0
  8  9  1  0
  5  2  1  0
  8  6  1  0
  8  4  1  0
  1 10  1  0
  2 11  1  0
  3 12  1  0
  3 13  1  0
  4 14  1  0
  5 15  1  0
  6 16  1  0
  7 17  1  0
  7 18  1  0
  9 19  1  0
M  END
$$$$
