
     RDKit          3D

 19 19  0  0  0  0  0  0  0  0999 V2000
    2.4427   -0.5802    1.5031 C   0  0  0  0  0  0  0  0  0  0  0  0
    1.3080    0.0540    0.6806 C   0  0  0  0  0  0  0  0  0  0  0  0
    1.6010    1.4558    0.2370 C   0  0  0  0  0  0  0  0  0  0  0  0
    1.8805    1.8713   -1.0291 C   0  0  0  0  0  0  0  0  0  0  0  0
    2.0256    1.1682   -2.1603 O   0  0  0  0  0  0  0  0  0  0  0  0
    1.4006    1.7168   -3.3239 C   0  0  0  0  0  0  0  0  0  0  0  0
    2.1102    3.2115   -1.0833 O   0  0  0  0  0  0  0  0  0  0  0  0
    1.9712    3.6763    0.1980 C   0  0  0  0  0  0  0  0  0  0  0  0
    1.6735    2.6549    1.0359 C   0  0  0  0  0  0  0  0  0  0  0  0
    2.6513    0.0037    2.4055 H   0  0  0  0  0  0  0  0  0  0  0  0
    2.1800   -1.5968    1.8134 H   0  0  0  0  0  0  0  0  0  0  0  0
    3.3666   -0.6286    0.9188 H   0  0  0  0  0  0  0  0  0  0  0  0
    1.1153   -0.5593   -0.2060 H   0  0  0  0  0  0  0  0  0  0  0  0
    0.3852    0.0413    1.2749 H   0  0  0  0  0  0  0  0  0  0  0  0
    1.5726    0.9984   -4.1265 H   0  0  0  0  0  0  0  0  0  0  0  0
    0.3231    1.8427   -3.1643 H   0  0  0  0  0  0  0  0  0  0  0  0
    1.8427    2.6809   -3.5915 H   0  0  0  0  0  0  0  0  0  0  0  0
    2.1022    4.7376    0.3235 H   0  0  0  0  0  0  0  0  0  0  0  0
    1.5070    2.7311    2.0999 H   0  0  0  0  0  0  0  0  0  0  0  0
  1  2  1  0
  2  3  1  0
  3  4  2  0
  4  5  1  0
  5  6  1  0
  4  7  1  0
  7  8  1  0
  8  9  2  0
  9  3  1  0
  1 10  1  0
  1 11  1  0
  1 12  1  0
  2 13  1  0
  2 14  1  0
  6 15  1  0
  6 16  1  0
  6 17  1  0
  8 18  1  0
  9 19  1  0
M  END
$$$$
