
     RDKit          3D

 19 19  0  0  0  0  0  0  0  0999 V2000
    1.4445    0.7774    0.3883 O   0  0  0  0  0  0  0  0  0  0  0  0
    0.3689   -0.1165    0.6080 C   0  0  0  0  0  0  0  0  0  0  0  0
   -0.9282    0.6035    0.9012 C   0  0  0  0  0  0  0  0  0  0  0  0
   -1.9723   -0.0245    1.7778 C   0  0  0  0  0  0  0  0  0  0  0  0
   -1.1891    1.1731    2.2935 C   0  0  0  0  0  0  0  0  0  0  0  0
   -1.9059    2.5163    2.3960 C   0  0  0  0  0  0  0  0  0  0  0  0
   -1.0257    3.6154    2.2777 O   0  0  0  0  0  0  0  0  0  0  0  0
   -0.1900    0.9846    3.3122 C   0  0  0  0  0  0  0  0  0  0  0  0
    0.6604    0.9123    4.1631 C   0  0  0  0  0  0  0  0  0  0  0  0
    1.5536    1.2880    1.1986 H   0  0  0  0  0  0  0  0  0  0  0  0
    0.2679   -0.7007   -0.3130 H   0  0  0  0  0  0  0  0  0  0  0  0
    0.5911   -0.8238    1.4215 H   0  0  0  0  0  0  0  0  0  0  0  0
   -1.2768    1.2407    0.0930 H   0  0  0  0  0  0  0  0  0  0  0  0
   -3.0198    0.1357    1.5443 H   0  0  0  0  0  0  0  0  0  0  0  0
   -1.7537   -0.9894    2.2221 H   0  0  0  0  0  0  0  0  0  0  0  0
   -2.6215    2.6054    1.5724 H   0  0  0  0  0  0  0  0  0  0  0  0
   -2.4733    2.5542    3.3388 H   0  0  0  0  0  0  0  0  0  0  0  0
   -0.3918    3.5521    3.0014 H   0  0  0  0  0  0  0  0  0  0  0  0
    1.3955    0.8108    4.9233 H   0  0  0  0  0  0  0  0  0  0  0  0
  1  2  1  0
  2  3  1  0
  3  4  1  0
  4  5  1  0
  5  6  1  0
  6  7  1  0
  5  8  1  0
  8  9  3  0
  5  3  1  0
  1 10  1  0
  2 11  1  0
  2 12  1  0
  3 13  1  0
  4 14  1  0
  4 15  1  0
  6 16  1  0
  6 17  1  0
  7 18  1  0
  9 19  1  0
M  END
$$$$
