gdb 3744	3.4339401	1.2527249	1.1477221	0.7261	75.01	-0.25386	0.07659	0.33044999999999997	1144.9387	0.156806	-422.538134	-422.529971	-422.529027	-422.570758	31.254
 OpenBabel02181911413D

 19 21  0  0  1  0  0  0  0  0999 V2000
   -0.0689    0.0215    0.3265 C   0  0  0  0  0  0  0  0  0  0  0  0
    1.4037   -0.0636    0.0168 C   0  0  1  0  0  0  0  0  0  0  0  0
    2.1168   -1.2119    0.5071 O   0  0  0  0  0  0  0  0  0  0  0  0
    1.9862   -1.0378   -0.9130 C   0  0  1  0  0  0  0  0  0  0  0  0
    1.2181   -2.0886   -1.7176 C   0  0  0  0  0  0  0  0  0  0  0  0
    2.3068   -2.8823   -2.4887 C   0  0  0  0  0  0  0  0  0  0  0  0
    3.4714   -1.9152   -2.5944 C   0  0  1  0  0  0  0  0  0  0  0  0
    3.0889   -0.6100   -3.0511 O   0  0  0  0  0  0  0  0  0  0  0  0
    3.2812   -0.8134   -1.6423 C   0  0  1  0  0  0  0  0  0  0  0  0
   -0.2219    0.2986    1.3747 H   0  0  0  0  0  0  0  0  0  0  0  0
   -0.5423    0.7889   -0.2954 H   0  0  0  0  0  0  0  0  0  0  0  0
   -0.5716   -0.9312    0.1475 H   0  0  0  0  0  0  0  0  0  0  0  0
    1.9505    0.8722    0.1557 H   0  0  0  0  0  0  0  0  0  0  0  0
    0.6227   -2.7262   -1.0627 H   0  0  0  0  0  0  0  0  0  0  0  0
    0.5429   -1.5930   -2.4200 H   0  0  0  0  0  0  0  0  0  0  0  0
    2.6298   -3.7630   -1.9218 H   0  0  0  0  0  0  0  0  0  0  0  0
    1.9592   -3.2272   -3.4668 H   0  0  0  0  0  0  0  0  0  0  0  0
    4.4548   -2.2508   -2.9130 H   0  0  0  0  0  0  0  0  0  0  0  0
    4.0889   -0.2595   -1.1722 H   0  0  0  0  0  0  0  0  0  0  0  0
  1 10  1  0  0  0  0
  2 13  1  1  0  0  0
  2  1  1  0  0  0  0
  2  3  1  0  0  0  0
  4  2  1  0  0  0  0
  4  3  1  1  0  0  0
  5 14  1  0  0  0  0
  5  4  1  0  0  0  0
  6 16  1  0  0  0  0
  6  5  1  0  0  0  0
  7 18  1  6  0  0  0
  7  6  1  0  0  0  0
  7  9  1  0  0  0  0
  8  7  1  0  0  0  0
  8  9  1  0  0  0  0
  9 19  1  1  0  0  0
  9  4  1  0  0  0  0
 11  1  1  0  0  0  0
 12  1  1  0  0  0  0
 15  5  1  0  0  0  0
 17  6  1  0  0  0  0
M TOR 0 0 1 2 3
M TOR 1 0 1 3 4
M TOR 2 0 1 3 8
M TOR 3 1 2 3 4
M TOR 4 1 2 3 8
M TOR 5 1 3 4 5
M TOR 6 1 3 4 13
M TOR 7 1 3 4 14
M TOR 8 1 3 8 6
M TOR 9 1 3 8 7
M TOR 10 1 3 8 18
M TOR 11 2 1 0 9
M TOR 12 2 1 0 10
M TOR 13 2 1 0 11
M TOR 14 2 3 1 12
M TOR 15 2 3 4 5
M TOR 16 2 3 4 13
M TOR 17 2 3 4 14
M TOR 18 2 3 8 6
M TOR 19 2 3 8 7
M TOR 20 2 3 8 18
M TOR 21 3 1 0 9
M TOR 22 3 1 0 10
M TOR 23 3 1 0 11
M TOR 24 3 4 5 6
M TOR 25 3 4 5 15
M TOR 26 3 4 5 16
M TOR 27 3 8 6 5
M TOR 28 3 8 6 7
M TOR 29 3 8 6 17
M TOR 30 4 3 1 12
M TOR 31 4 3 8 6
M TOR 32 4 3 8 7
M TOR 33 4 3 8 18
M TOR 34 4 5 6 7
M TOR 35 4 5 6 8
M TOR 36 4 5 6 17
M TOR 37 5 4 3 8
M TOR 38 5 6 7 8
M TOR 39 5 6 8 18
M TOR 40 6 5 4 13
M TOR 41 6 5 4 14
M TOR 42 6 7 8 18
M TOR 43 7 6 5 15
M TOR 44 7 6 5 16
M TOR 45 7 8 6 17
M TOR 46 8 3 1 12
M TOR 47 8 3 4 13
M TOR 48 8 3 4 14
M TOR 49 8 6 5 15
M TOR 50 8 6 5 16
M  END
$$$$
