
     RDKit          3D

 19 20  0  0  0  0  0  0  0  0999 V2000
    1.4582   -0.0280    0.0057 C   0  0  0  0  0  0  0  0  0  0  0  0
    0.0458   -0.0089    0.0911 O   0  0  0  0  0  0  0  0  0  0  0  0
   -0.4190    0.6059    1.2467 C   0  0  0  0  0  0  0  0  0  0  0  0
   -1.7996    1.2093    1.1629 C   0  0  0  0  0  0  0  0  0  0  0  0
   -2.4731    1.3833    2.4787 C   0  0  0  0  0  0  0  0  0  0  0  0
   -1.8052    2.2251    3.2759 C   0  0  0  0  0  0  0  0  0  0  0  0
   -0.6120    2.8486    2.5786 C   0  0  0  0  0  0  0  0  0  0  0  0
   -0.7336    4.2615    2.4350 O   0  0  0  0  0  0  0  0  0  0  0  0
   -0.5666    2.1074    1.2397 C   0  0  0  0  0  0  0  0  0  0  0  0
    1.9058   -0.5796    0.8461 H   0  0  0  0  0  0  0  0  0  0  0  0
    1.7165   -0.5338   -0.9273 H   0  0  0  0  0  0  0  0  0  0  0  0
    1.8780    0.9878   -0.0050 H   0  0  0  0  0  0  0  0  0  0  0  0
   -0.1366    0.1086    2.1779 H   0  0  0  0  0  0  0  0  0  0  0  0
   -2.3597    1.0541    0.2482 H   0  0  0  0  0  0  0  0  0  0  0  0
   -3.3700    0.8387    2.7526 H   0  0  0  0  0  0  0  0  0  0  0  0
   -2.0643    2.4767    4.2976 H   0  0  0  0  0  0  0  0  0  0  0  0
    0.3160    2.7133    3.1470 H   0  0  0  0  0  0  0  0  0  0  0  0
   -1.6037    4.4289    2.0550 H   0  0  0  0  0  0  0  0  0  0  0  0
   -0.2052    2.6400    0.3680 H   0  0  0  0  0  0  0  0  0  0  0  0
  1  2  1  0
  2  3  1  0
  3  4  1  0
  4  5  1  0
  5  6  2  0
  6  7  1  0
  7  8  1  0
  7  9  1  0
  9  3  1  0
  9  4  1  0
  1 10  1  0
  1 11  1  0
  1 12  1  0
  3 13  1  0
  4 14  1  0
  5 15  1  0
  6 16  1  0
  7 17  1  0
  8 18  1  0
  9 19  1  0
M  END
$$$$
