gdb 3499	2.7621512	1.2187763	0.9406326	1.9885	77.41	-0.24758	0.00864	0.25622	1269.0933	0.156705	-422.600161	-422.591263	-422.590319	-422.634641	32.183
 OpenBabel02181911413D

 19 19  0  0  1  0  0  0  0  0999 V2000
   -0.8618    3.8194   -2.1334 C   0  0  0  0  0  0  0  0  0  0  0  0
   -1.7692    2.6811   -1.6569 C   0  0  2  0  0  0  0  0  0  0  0  0
   -3.1066    3.1112   -1.0929 C   0  0  0  0  0  0  0  0  0  0  0  0
   -3.4323    2.4420    0.0119 C   0  0  0  0  0  0  0  0  0  0  0  0
   -2.3750    1.4347    0.3960 C   0  0  0  0  0  0  0  0  0  0  0  0
   -1.1816    1.8650   -0.4848 C   0  0  1  0  0  0  0  0  0  0  0  0
   -0.4209    0.7564   -1.0171 O   0  0  0  0  0  0  0  0  0  0  0  0
    0.4402    0.1677   -0.1786 C   0  0  0  0  0  0  0  0  0  0  0  0
    0.6239    0.4570    0.9726 O   0  0  0  0  0  0  0  0  0  0  0  0
   -0.6749    4.5364   -1.3267 H   0  0  0  0  0  0  0  0  0  0  0  0
    0.1031    3.4297   -2.4737 H   0  0  0  0  0  0  0  0  0  0  0  0
   -1.3156    4.3633   -2.9680 H   0  0  0  0  0  0  0  0  0  0  0  0
   -1.9331    1.9946   -2.5010 H   0  0  0  0  0  0  0  0  0  0  0  0
   -3.7195    3.8633   -1.5778 H   0  0  0  0  0  0  0  0  0  0  0  0
   -4.3542    2.5609    0.5699 H   0  0  0  0  0  0  0  0  0  0  0  0
   -2.1214    1.4343    1.4596 H   0  0  0  0  0  0  0  0  0  0  0  0
   -2.6869    0.4118    0.1424 H   0  0  0  0  0  0  0  0  0  0  0  0
   -0.4983    2.4831    0.1041 H   0  0  0  0  0  0  0  0  0  0  0  0
    0.9649   -0.6360   -0.7188 H   0  0  0  0  0  0  0  0  0  0  0  0
  1  2  1  0  0  0  0
  1 10  1  0  0  0  0
  2 13  1  6  0  0  0
  2  3  1  0  0  0  0
  2  6  1  0  0  0  0
  3  4  2  0  0  0  0
  4  5  1  0  0  0  0
  4 15  1  0  0  0  0
  5 16  1  0  0  0  0
  6 18  1  1  0  0  0
  6  5  1  0  0  0  0
  7  6  1  0  0  0  0
  7  8  1  0  0  0  0
  8  9  2  0  0  0  0
 11  1  1  0  0  0  0
 12  1  1  0  0  0  0
 14  3  1  0  0  0  0
 17  5  1  0  0  0  0
 19  8  1  0  0  0  0
M TOR 0 0 1 2 3
M TOR 1 0 1 2 13
M TOR 2 0 1 5 4
M TOR 3 0 1 5 6
M TOR 4 0 1 5 17
M TOR 5 1 2 3 4
M TOR 6 1 2 3 14
M TOR 7 1 5 4 3
M TOR 8 1 5 4 15
M TOR 9 1 5 4 16
M TOR 10 1 5 6 7
M TOR 11 2 1 0 9
M TOR 12 2 1 0 10
M TOR 13 2 1 0 11
M TOR 14 2 1 5 4
M TOR 15 2 1 5 6
M TOR 16 2 1 5 17
M TOR 17 2 3 4 5
M TOR 18 2 3 4 15
M TOR 19 2 3 4 16
M TOR 20 3 2 1 5
M TOR 21 3 2 1 12
M TOR 22 3 4 5 6
M TOR 23 3 4 5 17
M TOR 24 4 3 2 13
M TOR 25 4 5 1 12
M TOR 26 4 5 6 7
M TOR 27 5 1 0 9
M TOR 28 5 1 0 10
M TOR 29 5 1 0 11
M TOR 30 5 1 2 13
M TOR 31 5 4 3 14
M TOR 32 5 6 7 8
M TOR 33 5 6 7 18
M TOR 34 6 5 1 12
M TOR 35 6 5 4 15
M TOR 36 6 5 4 16
M TOR 37 7 6 5 17
M  END
$$$$
