
     RDKit          3D

 19 20  0  0  0  0  0  0  0  0999 V2000
   -0.1236   -0.0410    0.4917 O   0  0  0  0  0  0  0  0  0  0  0  0
   -0.6887    1.0085    1.2614 C   0  0  0  0  0  0  0  0  0  0  0  0
   -1.1427    2.1214    0.3153 C   0  0  0  0  0  0  0  0  0  0  0  0
   -1.6981    3.2856    1.0998 C   0  0  0  0  0  0  0  0  0  0  0  0
   -1.2828    3.5904    2.3309 C   0  0  0  0  0  0  0  0  0  0  0  0
   -0.1720    2.8459    2.9986 C   0  0  0  0  0  0  0  0  0  0  0  0
   -0.4248    1.9072    4.2100 C   0  0  0  0  0  0  0  0  0  0  0  0
    0.2454    0.8134    3.5437 O   0  0  0  0  0  0  0  0  0  0  0  0
    0.2955    1.5527    2.2971 C   0  0  0  0  0  0  0  0  0  0  0  0
    0.1192   -0.7463    1.1015 H   0  0  0  0  0  0  0  0  0  0  0  0
   -1.5741    0.6486    1.8087 H   0  0  0  0  0  0  0  0  0  0  0  0
   -0.2966    2.4339   -0.3129 H   0  0  0  0  0  0  0  0  0  0  0  0
   -1.8952    1.7212   -0.3715 H   0  0  0  0  0  0  0  0  0  0  0  0
   -2.4763    3.8810    0.6298 H   0  0  0  0  0  0  0  0  0  0  0  0
   -1.7185    4.4316    2.8651 H   0  0  0  0  0  0  0  0  0  0  0  0
    0.6650    3.5199    3.2098 H   0  0  0  0  0  0  0  0  0  0  0  0
    0.0654    2.1719    5.1529 H   0  0  0  0  0  0  0  0  0  0  0  0
   -1.4834    1.6868    4.4005 H   0  0  0  0  0  0  0  0  0  0  0  0
    1.3053    1.5548    1.8695 H   0  0  0  0  0  0  0  0  0  0  0  0
  1  2  1  0
  2  3  1  0
  3  4  1  0
  4  5  2  0
  5  6  1  0
  6  7  1  0
  7  8  1  0
  8  9  1  0
  9  2  1  0
  9  6  1  0
  1 10  1  0
  2 11  1  0
  3 12  1  0
  3 13  1  0
  4 14  1  0
  5 15  1  0
  6 16  1  0
  7 17  1  0
  7 18  1  0
  9 19  1  0
M  END
$$$$
