gdb 399	3.7982129	1.1979408	1.0953044	1.4008	75.52	-0.2382	0.07685	0.31505	1163.6525	0.156704	-422.520249	-422.512195	-422.511251	-422.553305	31.085
 OpenBabel02181911403D

 19 21  0  0  1  0  0  0  0  0999 V2000
    0.8140    1.3973   -0.0255 C   0  0  0  0  0  0  0  0  0  0  0  0
    1.4830    0.0443   -0.2302 C   0  0  0  0  0  0  0  0  0  0  0  0
    0.0205    0.1486    0.1194 C   0  0  0  0  0  0  0  0  0  0  0  0
   -0.5660   -0.3976    1.4078 C   0  0  0  0  0  0  0  0  0  0  0  0
   -1.3221   -1.6198    0.8949 C   0  0  2  0  0  0  0  0  0  0  0  0
   -2.1910   -2.4702    1.7095 C   0  0  0  0  0  0  0  0  0  0  0  0
   -0.8890   -2.9159    1.3102 O   0  0  0  0  0  0  0  0  0  0  0  0
   -1.4903   -1.3990   -0.6141 C   0  0  0  0  0  0  0  0  0  0  0  0
   -0.9312   -0.1196   -0.8892 O   0  0  0  0  0  0  0  0  0  0  0  0
    1.0503    1.9659    0.8677 H   0  0  0  0  0  0  0  0  0  0  0  0
    0.6245    1.9965   -0.9090 H   0  0  0  0  0  0  0  0  0  0  0  0
    1.7271   -0.2345   -1.2490 H   0  0  0  0  0  0  0  0  0  0  0  0
    2.1788   -0.3094    0.5234 H   0  0  0  0  0  0  0  0  0  0  0  0
    0.1776   -0.6761    2.1565 H   0  0  0  0  0  0  0  0  0  0  0  0
   -1.2607    0.3271    1.8480 H   0  0  0  0  0  0  0  0  0  0  0  0
   -2.3101   -2.2634    2.7731 H   0  0  0  0  0  0  0  0  0  0  0  0
   -3.0272   -2.9945    1.2471 H   0  0  0  0  0  0  0  0  0  0  0  0
   -0.9580   -2.1990   -1.1485 H   0  0  0  0  0  0  0  0  0  0  0  0
   -2.5338   -1.3872   -0.9424 H   0  0  0  0  0  0  0  0  0  0  0  0
  1  3  1  0  0  0  0
  1 10  1  0  0  0  0
  2  1  1  0  0  0  0
  2  3  1  0  0  0  0
  2 13  1  0  0  0  0
  3  4  1  0  0  0  0
  4 15  1  0  0  0  0
  4 14  1  0  0  0  0
  5  7  1  6  0  0  0
  5  4  1  0  0  0  0
  5  6  1  0  0  0  0
  6 16  1  0  0  0  0
  7  6  1  0  0  0  0
  8  5  1  0  0  0  0
  9  8  1  0  0  0  0
  9  3  1  0  0  0  0
 11  1  1  0  0  0  0
 12  2  1  0  0  0  0
 17  6  1  0  0  0  0
 18  8  1  0  0  0  0
 19  8  1  0  0  0  0
M TOR 0 0 1 2 3
M TOR 1 0 1 2 8
M TOR 2 0 2 1 11
M TOR 3 0 2 1 12
M TOR 4 0 2 3 4
M TOR 5 0 2 3 13
M TOR 6 0 2 3 14
M TOR 7 0 2 8 7
M TOR 8 1 2 0 9
M TOR 9 1 2 0 10
M TOR 10 1 2 3 4
M TOR 11 1 2 3 13
M TOR 12 1 2 3 14
M TOR 13 1 2 8 7
M TOR 14 2 3 4 5
M TOR 15 2 3 4 6
M TOR 16 2 3 4 7
M TOR 17 2 8 7 4
M TOR 18 2 8 7 17
M TOR 19 2 8 7 18
M TOR 20 3 2 0 9
M TOR 21 3 2 0 10
M TOR 22 3 2 1 11
M TOR 23 3 2 1 12
M TOR 24 3 2 8 7
M TOR 25 3 4 5 6
M TOR 26 3 4 5 15
M TOR 27 3 4 5 16
M TOR 28 3 4 7 8
M TOR 29 3 4 7 17
M TOR 30 3 4 7 18
M TOR 31 4 3 2 8
M TOR 32 4 6 5 15
M TOR 33 4 6 5 16
M TOR 34 5 4 3 13
M TOR 35 5 4 3 14
M TOR 36 5 4 7 8
M TOR 37 5 4 7 17
M TOR 38 5 4 7 18
M TOR 39 5 6 4 7
M TOR 40 6 4 3 13
M TOR 41 6 4 3 14
M TOR 42 6 4 7 8
M TOR 43 6 4 7 17
M TOR 44 6 4 7 18
M TOR 45 7 4 3 13
M TOR 46 7 4 3 14
M TOR 47 7 4 5 15
M TOR 48 7 4 5 16
M TOR 49 8 2 0 9
M TOR 50 8 2 0 10
M TOR 51 8 2 1 11
M TOR 52 8 2 1 12
M TOR 53 8 2 3 13
M TOR 54 8 2 3 14
M  END
$$$$
