gdb 2239	2.5345455	1.9243992	1.3408186	1.7755	74.41	-0.23622	0.06955	0.30577	989.3667	0.157224	-422.535257	-422.527291	-422.526347	-422.567045	31.672
 OpenBabel02181911413D

 19 21  0  0  1  0  0  0  0  0999 V2000
    0.0170    0.3336   -0.1290 C   0  0  0  0  0  0  0  0  0  0  0  0
    1.5262    0.3261   -0.1349 C   0  0  2  0  0  0  0  0  0  0  0  0
    2.2669    1.6094   -0.5153 C   0  0  0  0  0  0  0  0  0  0  0  0
    3.5291    1.5515    0.1545 O   0  0  0  0  0  0  0  0  0  0  0  0
    3.7002    0.2066    0.5786 C   0  0  2  0  0  0  0  0  0  0  0  0
    3.7294   -0.7777   -0.6397 C   0  0  0  0  0  0  0  0  0  0  0  0
    2.2346   -0.9856   -0.4111 C   0  0  2  0  0  0  0  0  0  0  0  0
    1.4943   -2.0573   -0.8691 O   0  0  0  0  0  0  0  0  0  0  0  0
    2.3108   -0.3373    0.9778 C   0  0  2  0  0  0  0  0  0  0  0  0
   -0.3658    1.1073    0.5456 H   0  0  0  0  0  0  0  0  0  0  0  0
   -0.3780    0.5364   -1.1308 H   0  0  0  0  0  0  0  0  0  0  0  0
   -0.3808   -0.6329    0.1867 H   0  0  0  0  0  0  0  0  0  0  0  0
    2.4127    1.7034   -1.6008 H   0  0  0  0  0  0  0  0  0  0  0  0
    1.7257    2.4980   -0.1670 H   0  0  0  0  0  0  0  0  0  0  0  0
    4.5291    0.1657    1.2829 H   0  0  0  0  0  0  0  0  0  0  0  0
    4.0790   -0.3740   -1.5958 H   0  0  0  0  0  0  0  0  0  0  0  0
    4.2908   -1.6881   -0.4005 H   0  0  0  0  0  0  0  0  0  0  0  0
    1.9221   -2.8684   -0.5722 H   0  0  0  0  0  0  0  0  0  0  0  0
    1.9209   -0.6079    1.9500 H   0  0  0  0  0  0  0  0  0  0  0  0
  1 12  1  0  0  0  0
  1 10  1  0  0  0  0
  2  1  1  1  0  0  0
  2  9  1  0  0  0  0
  3 14  1  0  0  0  0
  3  2  1  0  0  0  0
  3  4  1  0  0  0  0
  4  5  1  0  0  0  0
  5  9  1  0  0  0  0
  5 15  1  1  0  0  0
  6  7  1  0  0  0  0
  6 17  1  0  0  0  0
  6  5  1  0  0  0  0
  7  8  1  6  0  0  0
  7  2  1  0  0  0  0
  7  9  1  0  0  0  0
  8 18  1  0  0  0  0
  9 19  1  1  0  0  0
 11  1  1  0  0  0  0
 13  3  1  0  0  0  0
 16  6  1  0  0  0  0
M TOR 0 0 1 2 3
M TOR 1 0 1 2 12
M TOR 2 0 1 2 13
M TOR 3 0 1 6 5
M TOR 4 0 1 6 7
M TOR 5 0 1 6 8
M TOR 6 0 1 8 4
M TOR 7 0 1 8 18
M TOR 8 1 2 3 4
M TOR 9 1 6 5 4
M TOR 10 1 6 5 15
M TOR 11 1 6 5 16
M TOR 12 1 6 7 17
M TOR 13 1 6 8 4
M TOR 14 1 6 8 18
M TOR 15 1 8 4 3
M TOR 16 1 8 4 5
M TOR 17 1 8 4 14
M TOR 18 1 8 6 5
M TOR 19 1 8 6 7
M TOR 20 2 1 0 9
M TOR 21 2 1 0 10
M TOR 22 2 1 0 11
M TOR 23 2 1 6 5
M TOR 24 2 1 6 7
M TOR 25 2 1 6 8
M TOR 26 2 1 8 4
M TOR 27 2 1 8 18
M TOR 28 2 3 4 5
M TOR 29 2 3 4 8
M TOR 30 2 3 4 14
M TOR 31 3 2 1 6
M TOR 32 3 2 1 8
M TOR 33 3 4 5 6
M TOR 34 3 4 5 15
M TOR 35 3 4 5 16
M TOR 36 3 4 8 6
M TOR 37 3 4 8 18
M TOR 38 4 3 2 12
M TOR 39 4 3 2 13
M TOR 40 4 5 6 7
M TOR 41 4 5 6 8
M TOR 42 4 8 6 7
M TOR 43 5 4 8 18
M TOR 44 5 6 7 17
M TOR 45 5 6 8 18
M TOR 46 6 1 0 9
M TOR 47 6 1 0 10
M TOR 48 6 1 0 11
M TOR 49 6 1 2 12
M TOR 50 6 1 2 13
M TOR 51 6 5 4 14
M TOR 52 6 8 4 14
M TOR 53 7 6 5 15
M TOR 54 7 6 5 16
M TOR 55 7 6 8 18
M TOR 56 8 1 0 9
M TOR 57 8 1 0 10
M TOR 58 8 1 0 11
M TOR 59 8 1 2 12
M TOR 60 8 1 2 13
M TOR 61 8 4 5 15
M TOR 62 8 4 5 16
M TOR 63 8 6 5 15
M TOR 64 8 6 5 16
M TOR 65 8 6 7 17
M  END
$$$$
