
     RDKit          3D

 19 19  0  0  0  0  0  0  0  0999 V2000
    5.3403    0.4033   -2.8679 C   0  0  0  0  0  0  0  0  0  0  0  0
    4.5538   -0.3133   -1.7931 C   0  0  0  0  0  0  0  0  0  0  0  0
    3.2833   -1.0626   -2.1167 C   0  0  0  0  0  0  0  0  0  0  0  0
    3.1121   -2.3068   -1.4996 O   0  0  0  0  0  0  0  0  0  0  0  0
    3.2270    0.2127   -1.3012 C   0  0  0  0  0  0  0  0  0  0  0  0
    2.7646    1.3722   -1.9321 O   0  0  0  0  0  0  0  0  0  0  0  0
    2.8720    0.1166    0.1783 C   0  0  0  0  0  0  0  0  0  0  0  0
    1.4210    0.0852    0.3564 C   0  0  0  0  0  0  0  0  0  0  0  0
    0.2198    0.0647    0.4257 C   0  0  0  0  0  0  0  0  0  0  0  0
    5.9934    1.1671   -2.4331 H   0  0  0  0  0  0  0  0  0  0  0  0
    5.9683   -0.3017   -3.4226 H   0  0  0  0  0  0  0  0  0  0  0  0
    4.6731    0.9040   -3.5725 H   0  0  0  0  0  0  0  0  0  0  0  0
    5.1517   -0.7973   -1.0243 H   0  0  0  0  0  0  0  0  0  0  0  0
    2.9201   -0.9854   -3.1425 H   0  0  0  0  0  0  0  0  0  0  0  0
    2.1735   -2.4147   -1.3073 H   0  0  0  0  0  0  0  0  0  0  0  0
    1.8017    1.3722   -1.8595 H   0  0  0  0  0  0  0  0  0  0  0  0
    3.3161   -0.7893    0.6019 H   0  0  0  0  0  0  0  0  0  0  0  0
    3.2962    0.9758    0.7115 H   0  0  0  0  0  0  0  0  0  0  0  0
   -0.8372    0.0444    0.5274 H   0  0  0  0  0  0  0  0  0  0  0  0
  1  2  1  0
  2  3  1  0
  3  4  1  0
  3  5  1  0
  5  6  1  0
  5  7  1  0
  7  8  1  0
  8  9  3  0
  5  2  1  0
  1 10  1  0
  1 11  1  0
  1 12  1  0
  2 13  1  0
  3 14  1  0
  4 15  1  0
  6 16  1  0
  7 17  1  0
  7 18  1  0
  9 19  1  0
M  END
$$$$
