
     RDKit          3D

 19 21  0  0  0  0  0  0  0  0999 V2000
   -0.0501    0.2925    0.0493 C   0  0  0  0  0  0  0  0  0  0  0  0
    1.4352   -0.0521    0.0592 C   0  0  0  0  0  0  0  0  0  0  0  0
    1.9382   -1.1454    1.0401 C   0  0  0  0  0  0  0  0  0  0  0  0
    3.3577   -1.1120    0.8147 O   0  0  0  0  0  0  0  0  0  0  0  0
    3.3982   -1.3628   -0.6154 C   0  0  0  0  0  0  0  0  0  0  0  0
    3.5336   -2.8769   -0.7394 C   0  0  0  0  0  0  0  0  0  0  0  0
    2.3063   -3.3532   -0.1576 O   0  0  0  0  0  0  0  0  0  0  0  0
    1.4776   -2.2259   -0.0057 C   0  0  0  0  0  0  0  0  0  0  0  0
    1.9136   -1.0988   -0.9856 C   0  0  0  0  0  0  0  0  0  0  0  0
   -0.3205    0.8539    0.9500 H   0  0  0  0  0  0  0  0  0  0  0  0
   -0.2933    0.9208   -0.8144 H   0  0  0  0  0  0  0  0  0  0  0  0
   -0.6950   -0.5895    0.0025 H   0  0  0  0  0  0  0  0  0  0  0  0
    2.0390    0.8584    0.1129 H   0  0  0  0  0  0  0  0  0  0  0  0
    1.7237   -1.1680    2.1079 H   0  0  0  0  0  0  0  0  0  0  0  0
    4.1720   -0.7609   -1.0931 H   0  0  0  0  0  0  0  0  0  0  0  0
    3.6207   -3.2230   -1.7803 H   0  0  0  0  0  0  0  0  0  0  0  0
    4.3823   -3.2510   -0.1596 H   0  0  0  0  0  0  0  0  0  0  0  0
    0.4347   -2.5306    0.0248 H   0  0  0  0  0  0  0  0  0  0  0  0
    1.6463   -1.0806   -2.0416 H   0  0  0  0  0  0  0  0  0  0  0  0
  1  2  1  0
  2  3  1  0
  3  4  1  0
  4  5  1  0
  5  6  1  0
  6  7  1  0
  7  8  1  0
  8  9  1  0
  9  2  1  0
  8  3  1  0
  9  5  1  0
  1 10  1  0
  1 11  1  0
  1 12  1  0
  2 13  1  0
  3 14  1  0
  5 15  1  0
  6 16  1  0
  6 17  1  0
  8 18  1  0
  9 19  1  0
M  END
$$$$
