
     RDKit          3D

 19 20  0  0  0  0  0  0  0  0999 V2000
   -3.0974   -0.0558    1.1015 C   0  0  0  0  0  0  0  0  0  0  0  0
   -2.0847    0.1684   -0.0109 C   0  0  0  0  0  0  0  0  0  0  0  0
   -0.9783    1.2507    0.1992 C   0  0  0  0  0  0  0  0  0  0  0  0
    0.0227    0.2460   -0.3866 C   0  0  0  0  0  0  0  0  0  0  0  0
    1.0922    0.3457   -0.9123 O   0  0  0  0  0  0  0  0  0  0  0  0
   -0.9752   -0.9209   -0.2220 C   0  0  0  0  0  0  0  0  0  0  0  0
   -1.1104   -1.9240   -1.3322 C   0  0  0  0  0  0  0  0  0  0  0  0
   -1.7698   -3.2235   -1.1301 C   0  0  0  0  0  0  0  0  0  0  0  0
   -0.3498   -3.1270   -1.2195 O   0  0  0  0  0  0  0  0  0  0  0  0
   -3.7337   -0.9219    0.8909 H   0  0  0  0  0  0  0  0  0  0  0  0
   -2.5949   -0.2339    2.0592 H   0  0  0  0  0  0  0  0  0  0  0  0
   -3.7508    0.8143    1.2243 H   0  0  0  0  0  0  0  0  0  0  0  0
   -2.6001    0.3514   -0.9603 H   0  0  0  0  0  0  0  0  0  0  0  0
   -1.0711    2.2105   -0.3138 H   0  0  0  0  0  0  0  0  0  0  0  0
   -0.7775    1.4367    1.2609 H   0  0  0  0  0  0  0  0  0  0  0  0
   -0.7700   -1.4466    0.7192 H   0  0  0  0  0  0  0  0  0  0  0  0
   -1.1209   -1.5032   -2.3389 H   0  0  0  0  0  0  0  0  0  0  0  0
   -2.1608   -3.4809   -0.1462 H   0  0  0  0  0  0  0  0  0  0  0  0
   -2.2618   -3.7159   -1.9678 H   0  0  0  0  0  0  0  0  0  0  0  0
  1  2  1  0
  2  3  1  0
  3  4  1  0
  4  5  2  0
  4  6  1  0
  6  7  1  0
  7  8  1  0
  8  9  1  0
  6  2  1  0
  9  7  1  0
  1 10  1  0
  1 11  1  0
  1 12  1  0
  2 13  1  0
  3 14  1  0
  3 15  1  0
  6 16  1  0
  7 17  1  0
  8 18  1  0
  8 19  1  0
M  END
$$$$
