
     RDKit          3D

 19 18  0  0  0  0  0  0  0  0999 V2000
    1.3534    0.0835   -0.0893 C   0  0  0  0  0  0  0  0  0  0  0  0
   -0.0493    0.0699    0.0317 O   0  0  0  0  0  0  0  0  0  0  0  0
   -0.5070    0.6196    1.2460 C   0  0  0  0  0  0  0  0  0  0  0  0
   -2.0338    0.6095    1.2226 C   0  0  0  0  0  0  0  0  0  0  0  0
   -2.6167    1.2086    2.5148 C   0  0  0  0  0  0  0  0  0  0  0  0
   -2.5779    1.3550    0.0055 C   0  0  0  0  0  0  0  0  0  0  0  0
   -3.4196    0.8866   -0.7272 O   0  0  0  0  0  0  0  0  0  0  0  0
   -2.0691    2.7051   -0.2083 C   0  0  0  0  0  0  0  0  0  0  0  0
   -1.6648    3.8255   -0.3845 C   0  0  0  0  0  0  0  0  0  0  0  0
    1.8365   -0.5097    0.7032 H   0  0  0  0  0  0  0  0  0  0  0  0
    1.6015   -0.3540   -1.0589 H   0  0  0  0  0  0  0  0  0  0  0  0
    1.7561    1.1076   -0.0458 H   0  0  0  0  0  0  0  0  0  0  0  0
   -0.1443    0.0324    2.1065 H   0  0  0  0  0  0  0  0  0  0  0  0
   -0.1337    1.6498    1.3706 H   0  0  0  0  0  0  0  0  0  0  0  0
   -2.3785   -0.4222    1.1035 H   0  0  0  0  0  0  0  0  0  0  0  0
   -2.2463    0.6632    3.3881 H   0  0  0  0  0  0  0  0  0  0  0  0
   -2.3356    2.2607    2.6261 H   0  0  0  0  0  0  0  0  0  0  0  0
   -3.7081    1.1458    2.5136 H   0  0  0  0  0  0  0  0  0  0  0  0
   -1.3181    4.8156   -0.5567 H   0  0  0  0  0  0  0  0  0  0  0  0
  1  2  1  0
  2  3  1  0
  3  4  1  0
  4  5  1  0
  4  6  1  0
  6  7  2  0
  6  8  1  0
  8  9  3  0
  1 10  1  0
  1 11  1  0
  1 12  1  0
  3 13  1  0
  3 14  1  0
  4 15  1  0
  5 16  1  0
  5 17  1  0
  5 18  1  0
  9 19  1  0
M  END
$$$$
