
     RDKit          3D

 19 19  0  0  0  0  0  0  0  0999 V2000
    4.1708    0.3128    3.0486 C   0  0  0  0  0  0  0  0  0  0  0  0
    2.8038    0.2346    2.4705 C   0  0  0  0  0  0  0  0  0  0  0  0
    2.3189   -0.0881    1.2435 C   0  0  0  0  0  0  0  0  0  0  0  0
    0.8857    0.0193    1.3144 C   0  0  0  0  0  0  0  0  0  0  0  0
   -0.0861   -0.2362    0.1969 C   0  0  0  0  0  0  0  0  0  0  0  0
   -1.2502   -0.9539    0.5992 O   0  0  0  0  0  0  0  0  0  0  0  0
    0.6021    0.4023    2.5947 C   0  0  0  0  0  0  0  0  0  0  0  0
   -0.6619    0.7002    3.3195 C   0  0  0  0  0  0  0  0  0  0  0  0
    1.7634    0.5316    3.3046 O   0  0  0  0  0  0  0  0  0  0  0  0
    4.2922   -0.3739    3.8944 H   0  0  0  0  0  0  0  0  0  0  0  0
    4.9098    0.0514    2.2879 H   0  0  0  0  0  0  0  0  0  0  0  0
    4.3976    1.3213    3.4135 H   0  0  0  0  0  0  0  0  0  0  0  0
    2.9031   -0.3733    0.3813 H   0  0  0  0  0  0  0  0  0  0  0  0
   -0.4665    0.7025   -0.2227 H   0  0  0  0  0  0  0  0  0  0  0  0
    0.4359   -0.7575   -0.6205 H   0  0  0  0  0  0  0  0  0  0  0  0
   -0.9475   -1.7372    1.0714 H   0  0  0  0  0  0  0  0  0  0  0  0
   -0.7185    0.1456    4.2631 H   0  0  0  0  0  0  0  0  0  0  0  0
   -0.7462    1.7660    3.5649 H   0  0  0  0  0  0  0  0  0  0  0  0
   -1.5089    0.4147    2.6942 H   0  0  0  0  0  0  0  0  0  0  0  0
  1  2  1  0
  2  3  2  0
  3  4  1  0
  4  5  1  0
  5  6  1  0
  4  7  2  0
  7  8  1  0
  7  9  1  0
  9  2  1  0
  1 10  1  0
  1 11  1  0
  1 12  1  0
  3 13  1  0
  5 14  1  0
  5 15  1  0
  6 16  1  0
  8 17  1  0
  8 18  1  0
  8 19  1  0
M  END
$$$$
