
     RDKit          3D

 19 19  0  0  0  0  0  0  0  0999 V2000
    1.3761    0.8067    0.2559 C   0  0  0  0  0  0  0  0  0  0  0  0
    0.0080    0.2555    0.0227 C   0  0  0  0  0  0  0  0  0  0  0  0
   -1.1337    0.8829   -0.3252 C   0  0  0  0  0  0  0  0  0  0  0  0
   -2.2851   -0.0839   -0.5113 C   0  0  0  0  0  0  0  0  0  0  0  0
   -1.7607   -1.3802    0.1417 C   0  0  0  0  0  0  0  0  0  0  0  0
   -0.2217   -1.2486    0.1203 C   0  0  0  0  0  0  0  0  0  0  0  0
    0.4504   -1.8756    1.2011 O   0  0  0  0  0  0  0  0  0  0  0  0
   -1.3061    2.3180   -0.5537 C   0  0  0  0  0  0  0  0  0  0  0  0
   -2.3540    2.8202   -0.9046 O   0  0  0  0  0  0  0  0  0  0  0  0
    1.7800    0.4165    1.1957 H   0  0  0  0  0  0  0  0  0  0  0  0
    2.0594    0.4623   -0.5316 H   0  0  0  0  0  0  0  0  0  0  0  0
    1.4067    1.8969    0.2801 H   0  0  0  0  0  0  0  0  0  0  0  0
   -3.2129    0.2883   -0.0688 H   0  0  0  0  0  0  0  0  0  0  0  0
   -2.4920   -0.2247   -1.5797 H   0  0  0  0  0  0  0  0  0  0  0  0
   -2.0816   -1.4220    1.1904 H   0  0  0  0  0  0  0  0  0  0  0  0
   -2.1143   -2.2935   -0.3411 H   0  0  0  0  0  0  0  0  0  0  0  0
    0.2037   -1.7293   -0.7725 H   0  0  0  0  0  0  0  0  0  0  0  0
    0.0461   -1.5605    2.0178 H   0  0  0  0  0  0  0  0  0  0  0  0
   -0.4086    2.9495   -0.3807 H   0  0  0  0  0  0  0  0  0  0  0  0
  1  2  1  0
  2  3  2  0
  3  4  1  0
  4  5  1  0
  5  6  1  0
  6  7  1  0
  3  8  1  0
  8  9  2  0
  6  2  1  0
  1 10  1  0
  1 11  1  0
  1 12  1  0
  4 13  1  0
  4 14  1  0
  5 15  1  0
  5 16  1  0
  6 17  1  0
  7 18  1  0
  8 19  1  0
M  END
$$$$
