gdb 3791	4.2838274	0.9929169	0.9580576	3.1507	75.3	-0.23808	0.07522	0.3133	1309.7424	0.155746	-422.488056	-422.479615	-422.478671	-422.521438	31.536
 OpenBabel02181911413D

 19 21  0  0  1  0  0  0  0  0999 V2000
   -1.6962   -3.9974   -1.3822 C   0  0  0  0  0  0  0  0  0  0  0  0
   -0.6061   -2.9703   -1.5422 C   0  0  2  0  0  0  0  0  0  0  0  0
    0.7453   -3.4589   -1.5285 O   0  0  0  0  0  0  0  0  0  0  0  0
    0.3171   -2.6229   -0.4552 C   0  0  1  0  0  0  0  0  0  0  0  0
    0.9922   -1.2800   -0.3349 C   0  0  1  0  0  0  0  0  0  0  0  0
    0.8464   -0.4612   -1.5303 O   0  0  0  0  0  0  0  0  0  0  0  0
    0.0564    0.4826   -0.8000 C   0  0  2  0  0  0  0  0  0  0  0  0
    0.8520    1.1114    0.2985 C   0  0  0  0  0  0  0  0  0  0  0  0
    0.2286   -0.2544    0.5058 C   0  0  2  0  0  0  0  0  0  0  0  0
   -1.4482   -4.7124   -0.5929 H   0  0  0  0  0  0  0  0  0  0  0  0
   -2.6467   -3.5137   -1.1318 H   0  0  0  0  0  0  0  0  0  0  0  0
   -1.8392   -4.5534   -2.3146 H   0  0  0  0  0  0  0  0  0  0  0  0
   -0.7711   -2.2050   -2.2985 H   0  0  0  0  0  0  0  0  0  0  0  0
    0.2093   -3.1389    0.5035 H   0  0  0  0  0  0  0  0  0  0  0  0
    2.0521   -1.4235   -0.0851 H   0  0  0  0  0  0  0  0  0  0  0  0
   -0.8004    0.9218   -1.2973 H   0  0  0  0  0  0  0  0  0  0  0  0
    1.9277    1.2185    0.1880 H   0  0  0  0  0  0  0  0  0  0  0  0
    0.3581    1.9183    0.8314 H   0  0  0  0  0  0  0  0  0  0  0  0
   -0.4766   -0.4809    1.2942 H   0  0  0  0  0  0  0  0  0  0  0  0
  1 11  1  0  0  0  0
  1 10  1  0  0  0  0
  2 13  1  6  0  0  0
  2  3  1  0  0  0  0
  2  1  1  0  0  0  0
  2  4  1  0  0  0  0
  3  4  1  0  0  0  0
  4  5  1  0  0  0  0
  4 14  1  1  0  0  0
  5 15  1  1  0  0  0
  5  9  1  0  0  0  0
  6  7  1  0  0  0  0
  6  5  1  0  0  0  0
  7 16  1  6  0  0  0
  7  8  1  0  0  0  0
  7  9  1  0  0  0  0
  8  9  1  0  0  0  0
  8 18  1  0  0  0  0
  9 19  1  1  0  0  0
 12  1  1  0  0  0  0
 17  8  1  0  0  0  0
M TOR 0 0 1 2 3
M TOR 1 0 1 3 4
M TOR 2 0 1 3 13
M TOR 3 1 2 3 4
M TOR 4 1 2 3 13
M TOR 5 1 3 4 5
M TOR 6 1 3 4 8
M TOR 7 1 3 4 14
M TOR 8 2 1 0 9
M TOR 9 2 1 0 10
M TOR 10 2 1 0 11
M TOR 11 2 3 1 12
M TOR 12 2 3 4 5
M TOR 13 2 3 4 8
M TOR 14 2 3 4 14
M TOR 15 3 1 0 9
M TOR 16 3 1 0 10
M TOR 17 3 1 0 11
M TOR 18 3 4 5 6
M TOR 19 3 4 8 6
M TOR 20 3 4 8 7
M TOR 21 3 4 8 18
M TOR 22 4 3 1 12
M TOR 23 4 5 6 7
M TOR 24 4 5 6 8
M TOR 25 4 5 6 15
M TOR 26 4 8 6 7
M TOR 27 4 8 6 15
M TOR 28 4 8 7 16
M TOR 29 4 8 7 17
M TOR 30 5 4 3 13
M TOR 31 5 4 8 7
M TOR 32 5 4 8 18
M TOR 33 5 6 7 8
M TOR 34 5 6 7 16
M TOR 35 5 6 7 17
M TOR 36 5 6 8 18
M TOR 37 6 5 4 14
M TOR 38 6 7 8 18
M TOR 39 6 8 4 14
M TOR 40 6 8 7 16
M TOR 41 6 8 7 17
M TOR 42 7 8 4 14
M TOR 43 7 8 6 15
M TOR 44 8 4 3 13
M  END
$$$$
