
     RDKit          3D

 19 20  0  0  0  0  0  0  0  0999 V2000
   -0.9680   -1.3360    0.6329 O   0  0  0  0  0  0  0  0  0  0  0  0
   -0.5179   -1.4829   -0.6674 C   0  0  0  0  0  0  0  0  0  0  0  0
   -1.0709   -2.7585   -1.3516 C   0  0  0  0  0  0  0  0  0  0  0  0
   -1.6424   -1.9055   -2.5247 C   0  0  0  0  0  0  0  0  0  0  0  0
   -0.9779   -0.6405   -1.9381 C   0  0  0  0  0  0  0  0  0  0  0  0
    0.5134   -0.4730   -2.3335 C   0  0  0  0  0  0  0  0  0  0  0  0
    0.9709   -1.1751   -0.9938 C   0  0  0  0  0  0  0  0  0  0  0  0
    1.6499   -0.1707   -0.1127 C   0  0  0  0  0  0  0  0  0  0  0  0
    1.1284    0.4404    0.7955 O   0  0  0  0  0  0  0  0  0  0  0  0
   -0.5134   -0.5632    1.0036 H   0  0  0  0  0  0  0  0  0  0  0  0
   -0.3210   -3.5085   -1.6194 H   0  0  0  0  0  0  0  0  0  0  0  0
   -1.8334   -3.2346   -0.7325 H   0  0  0  0  0  0  0  0  0  0  0  0
   -1.3264   -2.1856   -3.5338 H   0  0  0  0  0  0  0  0  0  0  0  0
   -2.7336   -1.8567   -2.5107 H   0  0  0  0  0  0  0  0  0  0  0  0
   -1.5653    0.2757   -1.8763 H   0  0  0  0  0  0  0  0  0  0  0  0
    0.8180   -1.0064   -3.2369 H   0  0  0  0  0  0  0  0  0  0  0  0
    0.8450    0.5648   -2.4213 H   0  0  0  0  0  0  0  0  0  0  0  0
    1.6389   -2.0346   -1.1251 H   0  0  0  0  0  0  0  0  0  0  0  0
    2.7100    0.0365   -0.3810 H   0  0  0  0  0  0  0  0  0  0  0  0
  1  2  1  0
  2  3  1  0
  3  4  1  0
  4  5  1  0
  5  6  1  0
  6  7  1  0
  7  8  1  0
  8  9  2  0
  5  2  1  0
  7  2  1  0
  1 10  1  0
  3 11  1  0
  3 12  1  0
  4 13  1  0
  4 14  1  0
  5 15  1  0
  6 16  1  0
  6 17  1  0
  7 18  1  0
  8 19  1  0
M  END
$$$$
