gdb 3515	2.4109978	1.6162694	1.0575705	4.0264	77.43	-0.24407	-0.00404	0.24003000000000002	1153.5424	0.157276	-422.588126	-422.579443	-422.578498	-422.621689	32.275
 OpenBabel02181911413D

 19 19  0  0  1  0  0  0  0  0999 V2000
   -0.0611   -2.5224    0.3543 C   0  0  0  0  0  0  0  0  0  0  0  0
   -0.8090   -1.2764   -0.1268 C   0  0  2  0  0  0  0  0  0  0  0  0
   -1.4619   -1.4935   -1.4780 C   0  0  0  0  0  0  0  0  0  0  0  0
   -2.3440   -0.6448   -1.9969 C   0  0  0  0  0  0  0  0  0  0  0  0
   -2.6905    0.6443   -1.2957 C   0  0  0  0  0  0  0  0  0  0  0  0
   -1.4824    1.5730   -1.1740 C   0  0  0  0  0  0  0  0  0  0  0  0
   -0.4086    1.1819   -0.3024 O   0  0  0  0  0  0  0  0  0  0  0  0
    0.1188   -0.0542   -0.1021 C   0  0  0  0  0  0  0  0  0  0  0  0
    1.2772   -0.1308    0.2060 O   0  0  0  0  0  0  0  0  0  0  0  0
    0.3583   -2.3707    1.3502 H   0  0  0  0  0  0  0  0  0  0  0  0
   -0.7432   -3.3778    0.3837 H   0  0  0  0  0  0  0  0  0  0  0  0
    0.7670   -2.7594   -0.3188 H   0  0  0  0  0  0  0  0  0  0  0  0
   -1.6068   -1.0402    0.5939 H   0  0  0  0  0  0  0  0  0  0  0  0
   -1.1857   -2.4015   -2.0073 H   0  0  0  0  0  0  0  0  0  0  0  0
   -2.8045   -0.8503   -2.9586 H   0  0  0  0  0  0  0  0  0  0  0  0
   -3.4558    1.1947   -1.8528 H   0  0  0  0  0  0  0  0  0  0  0  0
   -3.1099    0.4529   -0.2981 H   0  0  0  0  0  0  0  0  0  0  0  0
   -1.0522    1.7383   -2.1698 H   0  0  0  0  0  0  0  0  0  0  0  0
   -1.7956    2.5433   -0.7771 H   0  0  0  0  0  0  0  0  0  0  0  0
  1 11  1  0  0  0  0
  1 10  1  0  0  0  0
  2  8  1  0  0  0  0
  2  1  1  0  0  0  0
  2 13  1  1  0  0  0
  3  2  1  0  0  0  0
  4  3  2  0  0  0  0
  4  5  1  0  0  0  0
  5  6  1  0  0  0  0
  5 17  1  0  0  0  0
  6 19  1  0  0  0  0
  6  7  1  0  0  0  0
  7  8  1  0  0  0  0
  8  9  2  0  0  0  0
 12  1  1  0  0  0  0
 14  3  1  0  0  0  0
 15  4  1  0  0  0  0
 16  5  1  0  0  0  0
 18  6  1  0  0  0  0
M TOR 0 0 1 2 3
M TOR 1 0 1 2 13
M TOR 2 0 1 7 6
M TOR 3 0 1 7 8
M TOR 4 1 2 3 4
M TOR 5 1 2 3 14
M TOR 6 1 7 6 5
M TOR 7 2 1 0 9
M TOR 8 2 1 0 10
M TOR 9 2 1 0 11
M TOR 10 2 1 7 6
M TOR 11 2 1 7 8
M TOR 12 2 3 4 5
M TOR 13 2 3 4 15
M TOR 14 2 3 4 16
M TOR 15 3 2 1 7
M TOR 16 3 2 1 12
M TOR 17 3 4 5 6
M TOR 18 3 4 5 17
M TOR 19 3 4 5 18
M TOR 20 4 3 2 13
M TOR 21 4 5 6 7
M TOR 22 5 4 3 14
M TOR 23 5 6 7 8
M TOR 24 6 5 4 15
M TOR 25 6 5 4 16
M TOR 26 6 7 1 12
M TOR 27 7 1 0 9
M TOR 28 7 1 0 10
M TOR 29 7 1 0 11
M TOR 30 7 1 2 13
M TOR 31 7 6 5 17
M TOR 32 7 6 5 18
M TOR 33 8 7 1 12
M  END
$$$$
