gdb 1784	3.7162351	1.2341774	1.097772	2.9498	75.92	-0.25371	-0.03556	0.21814999999999998	1150.5467	0.155905	-422.561652	-422.553149	-422.552205	-422.594741	32.191
 OpenBabel02181911403D

 19 20  0  0  1  0  0  0  0  0999 V2000
    0.0004    0.3766   -0.0083 C   0  0  0  0  0  0  0  0  0  0  0  0
    1.4773    0.1086   -0.0435 C   0  0  2  0  0  0  0  0  0  0  0  0
    2.5503    1.0968    0.4804 C   0  0  0  0  0  0  0  0  0  0  0  0
    3.2615   -0.2702    0.6867 C   0  0  2  0  0  0  0  0  0  0  0  0
    3.5470   -0.7447   -0.7537 C   0  0  0  0  0  0  0  0  0  0  0  0
    2.1261   -0.4588   -1.3307 C   0  0  0  0  0  0  0  0  0  0  0  0
    1.9549   -0.8547    0.9667 O   0  0  0  0  0  0  0  0  0  0  0  0
    4.2795   -0.4524    1.7696 C   0  0  0  0  0  0  0  0  0  0  0  0
    5.4694   -0.4093    1.5822 O   0  0  0  0  0  0  0  0  0  0  0  0
   -0.3109    0.7312    0.9779 H   0  0  0  0  0  0  0  0  0  0  0  0
   -0.2653    1.1352   -0.7519 H   0  0  0  0  0  0  0  0  0  0  0  0
   -0.5584   -0.5360   -0.2399 H   0  0  0  0  0  0  0  0  0  0  0  0
    3.0010    1.8238   -0.1992 H   0  0  0  0  0  0  0  0  0  0  0  0
    2.2551    1.5528    1.4266 H   0  0  0  0  0  0  0  0  0  0  0  0
    4.3474   -0.1762   -1.2305 H   0  0  0  0  0  0  0  0  0  0  0  0
    3.8115   -1.8032   -0.7735 H   0  0  0  0  0  0  0  0  0  0  0  0
    2.1240    0.2589   -2.1556 H   0  0  0  0  0  0  0  0  0  0  0  0
    1.6134   -1.3663   -1.6574 H   0  0  0  0  0  0  0  0  0  0  0  0
    3.8432   -0.6055    2.7813 H   0  0  0  0  0  0  0  0  0  0  0  0
  1 10  1  0  0  0  0
  2  1  1  6  0  0  0
  2  3  1  0  0  0  0
  2  7  1  0  0  0  0
  3  4  1  0  0  0  0
  3 14  1  0  0  0  0
  4  7  1  0  0  0  0
  4  8  1  1  0  0  0
  5  4  1  0  0  0  0
  6  5  1  0  0  0  0
  6  2  1  0  0  0  0
  8 19  1  0  0  0  0
  9  8  2  0  0  0  0
 11  1  1  0  0  0  0
 12  1  1  0  0  0  0
 13  3  1  0  0  0  0
 15  5  1  0  0  0  0
 16  5  1  0  0  0  0
 17  6  1  0  0  0  0
 18  6  1  0  0  0  0
M TOR 0 0 1 2 3
M TOR 1 0 1 2 12
M TOR 2 0 1 2 13
M TOR 3 0 1 5 4
M TOR 4 0 1 5 16
M TOR 5 0 1 5 17
M TOR 6 0 1 6 3
M TOR 7 1 2 3 4
M TOR 8 1 2 3 6
M TOR 9 1 2 3 7
M TOR 10 1 5 4 3
M TOR 11 1 5 4 14
M TOR 12 1 5 4 15
M TOR 13 1 6 3 4
M TOR 14 1 6 3 7
M TOR 15 2 1 0 9
M TOR 16 2 1 0 10
M TOR 17 2 1 0 11
M TOR 18 2 1 5 4
M TOR 19 2 1 5 16
M TOR 20 2 1 5 17
M TOR 21 2 3 4 5
M TOR 22 2 3 4 14
M TOR 23 2 3 4 15
M TOR 24 2 3 7 8
M TOR 25 2 3 7 18
M TOR 26 3 2 1 5
M TOR 27 3 4 5 16
M TOR 28 3 4 5 17
M TOR 29 3 6 1 5
M TOR 30 4 3 2 12
M TOR 31 4 3 2 13
M TOR 32 4 3 7 8
M TOR 33 4 3 7 18
M TOR 34 4 5 1 6
M TOR 35 5 1 0 9
M TOR 36 5 1 0 10
M TOR 37 5 1 0 11
M TOR 38 5 1 2 12
M TOR 39 5 1 2 13
M TOR 40 5 4 3 6
M TOR 41 5 4 3 7
M TOR 42 6 1 0 9
M TOR 43 6 1 0 10
M TOR 44 6 1 0 11
M TOR 45 6 1 2 12
M TOR 46 6 1 2 13
M TOR 47 6 1 5 16
M TOR 48 6 1 5 17
M TOR 49 6 3 2 12
M TOR 50 6 3 2 13
M TOR 51 6 3 4 14
M TOR 52 6 3 4 15
M TOR 53 6 3 7 8
M TOR 54 6 3 7 18
M TOR 55 7 3 2 12
M TOR 56 7 3 2 13
M TOR 57 7 3 4 14
M TOR 58 7 3 4 15
M  END
$$$$
