gdb 4381	3.1785301	1.192617	1.1093741	2.1896	77.03	-0.25051	0.0284	0.27891	1166.9354	0.156178	-422.545736	-422.536691	-422.535747	-422.579281	34.948
 OpenBabel02181911413D

 19 19  0  0  1  0  0  0  0  0999 V2000
    0.2495   -0.3560   -2.6794 O   0  0  0  0  0  0  0  0  0  0  0  0
   -0.4271    0.8066   -3.1261 C   0  0  2  0  0  0  0  0  0  0  0  0
    0.3362    2.1155   -2.7860 C   0  0  0  0  0  0  0  0  0  0  0  0
   -0.3255    2.6939   -1.5054 C   0  0  0  0  0  0  0  0  0  0  0  0
   -1.4029    1.6629   -1.0846 C   0  0  2  0  0  0  0  0  0  0  0  0
   -0.7231    0.7087   -0.2347 O   0  0  0  0  0  0  0  0  0  0  0  0
   -1.7860    0.9924   -2.4240 C   0  0  0  0  0  0  0  0  0  0  0  0
   -2.5373    2.2421   -0.3687 C   0  0  0  0  0  0  0  0  0  0  0  0
   -3.4837    2.6885    0.2234 C   0  0  0  0  0  0  0  0  0  0  0  0
    0.2674   -0.2983   -1.7139 H   0  0  0  0  0  0  0  0  0  0  0  0
   -0.5450    0.6779   -4.2053 H   0  0  0  0  0  0  0  0  0  0  0  0
    1.3955    1.8876   -2.6500 H   0  0  0  0  0  0  0  0  0  0  0  0
    0.2607    2.8305   -3.6106 H   0  0  0  0  0  0  0  0  0  0  0  0
    0.3716    2.8419   -0.6785 H   0  0  0  0  0  0  0  0  0  0  0  0
   -0.8085    3.6523   -1.7070 H   0  0  0  0  0  0  0  0  0  0  0  0
   -1.3875    0.0957    0.1013 H   0  0  0  0  0  0  0  0  0  0  0  0
   -2.3216    0.0493   -2.2857 H   0  0  0  0  0  0  0  0  0  0  0  0
   -2.4278    1.6729   -2.9945 H   0  0  0  0  0  0  0  0  0  0  0  0
   -4.3140    3.0932    0.7479 H   0  0  0  0  0  0  0  0  0  0  0  0
  1 10  1  0  0  0  0
  2 11  1  6  0  0  0
  2  3  1  0  0  0  0
  2  1  1  0  0  0  0
  2  7  1  0  0  0  0
  3 12  1  0  0  0  0
  3  4  1  0  0  0  0
  4  5  1  0  0  0  0
  4 14  1  0  0  0  0
  5  8  1  1  0  0  0
  5  6  1  0  0  0  0
  6 16  1  0  0  0  0
  7 17  1  0  0  0  0
  7  5  1  0  0  0  0
  8  9  3  0  0  0  0
  9 19  1  0  0  0  0
 13  3  1  0  0  0  0
 15  4  1  0  0  0  0
 18  7  1  0  0  0  0
M TOR 0 0 1 2 3
M TOR 1 0 1 2 11
M TOR 2 0 1 2 12
M TOR 3 0 1 6 4
M TOR 4 0 1 6 16
M TOR 5 0 1 6 17
M TOR 6 1 2 3 4
M TOR 7 1 2 3 13
M TOR 8 1 2 3 14
M TOR 9 1 6 4 3
M TOR 10 1 6 4 5
M TOR 11 1 6 4 7
M TOR 12 2 1 0 9
M TOR 13 2 1 6 4
M TOR 14 2 1 6 16
M TOR 15 2 1 6 17
M TOR 16 2 3 4 5
M TOR 17 2 3 4 6
M TOR 18 2 3 4 7
M TOR 19 3 2 1 6
M TOR 20 3 2 1 10
M TOR 21 3 4 5 15
M TOR 22 3 4 6 16
M TOR 23 3 4 6 17
M TOR 24 3 4 7 8
M TOR 25 4 3 2 11
M TOR 26 4 3 2 12
M TOR 27 4 6 1 10
M TOR 28 4 7 8 18
M TOR 29 5 4 3 13
M TOR 30 5 4 3 14
M TOR 31 5 4 6 16
M TOR 32 5 4 6 17
M TOR 33 5 4 7 8
M TOR 34 6 1 0 9
M TOR 35 6 1 2 11
M TOR 36 6 1 2 12
M TOR 37 6 4 3 13
M TOR 38 6 4 3 14
M TOR 39 6 4 5 15
M TOR 40 6 4 7 8
M TOR 41 7 4 3 13
M TOR 42 7 4 3 14
M TOR 43 7 4 5 15
M TOR 44 7 4 6 16
M TOR 45 7 4 6 17
M  END
$$$$
