gdb 1617	3.5765223	0.9156269	0.7934561	4.1546	77.26	-0.24539	-0.02757	0.21781999999999999	1453.3694	0.153594	-422.572721	-422.562824	-422.56188	-422.609049	34.882
 OpenBabel02181911403D

 19 19  0  0  0  0  0  0  0  0999 V2000
   -2.2901    0.2380   -0.1316 C   0  0  0  0  0  0  0  0  0  0  0  0
   -1.4102    1.4512   -0.3621 C   0  0  0  0  0  0  0  0  0  0  0  0
   -2.0518    2.7131   -0.9385 C   0  0  0  0  0  0  0  0  0  0  0  0
   -1.6503    2.6930    0.4953 C   0  0  0  0  0  0  0  0  0  0  0  0
    0.0220    1.2579   -0.7643 C   0  0  0  0  0  0  0  0  0  0  0  0
    0.7624    2.2005   -0.9656 O   0  0  0  0  0  0  0  0  0  0  0  0
    0.5397   -0.1716   -0.9118 C   0  0  0  0  0  0  0  0  0  0  0  0
    1.9994   -0.2209   -1.3226 C   0  0  0  0  0  0  0  0  0  0  0  0
    2.8182   -0.9178   -0.7827 O   0  0  0  0  0  0  0  0  0  0  0  0
   -3.2972    0.5526    0.1563 H   0  0  0  0  0  0  0  0  0  0  0  0
   -2.3886   -0.3768   -1.0330 H   0  0  0  0  0  0  0  0  0  0  0  0
   -1.9077   -0.4014    0.6713 H   0  0  0  0  0  0  0  0  0  0  0  0
   -1.4388    3.2908   -1.6199 H   0  0  0  0  0  0  0  0  0  0  0  0
   -3.1045    2.6463   -1.1905 H   0  0  0  0  0  0  0  0  0  0  0  0
   -0.7688    3.2576    0.7748 H   0  0  0  0  0  0  0  0  0  0  0  0
   -2.4195    2.6126    1.2555 H   0  0  0  0  0  0  0  0  0  0  0  0
    0.4037   -0.7380    0.0152 H   0  0  0  0  0  0  0  0  0  0  0  0
   -0.0567   -0.6854   -1.6807 H   0  0  0  0  0  0  0  0  0  0  0  0
    2.2614    0.4280   -2.1822 H   0  0  0  0  0  0  0  0  0  0  0  0
  1 10  1  0  0  0  0
  1 12  1  0  0  0  0
  2  1  1  0  0  0  0
  2  4  1  0  0  0  0
  3  2  1  0  0  0  0
  3  4  1  0  0  0  0
  4 15  1  0  0  0  0
  4 16  1  0  0  0  0
  5  2  1  0  0  0  0
  6  5  2  0  0  0  0
  7  5  1  0  0  0  0
  7 17  1  0  0  0  0
  8  7  1  0  0  0  0
  8  9  2  0  0  0  0
 11  1  1  0  0  0  0
 13  3  1  0  0  0  0
 14  3  1  0  0  0  0
 18  7  1  0  0  0  0
 19  8  1  0  0  0  0
M TOR 0 0 1 2 3
M TOR 1 0 1 2 12
M TOR 2 0 1 2 13
M TOR 3 0 1 3 14
M TOR 4 0 1 3 15
M TOR 5 0 1 4 5
M TOR 6 0 1 4 6
M TOR 7 1 2 3 14
M TOR 8 1 2 3 15
M TOR 9 1 3 2 12
M TOR 10 1 3 2 13
M TOR 11 1 4 6 7
M TOR 12 1 4 6 16
M TOR 13 1 4 6 17
M TOR 14 2 1 0 9
M TOR 15 2 1 0 10
M TOR 16 2 1 0 11
M TOR 17 2 1 4 5
M TOR 18 2 1 4 6
M TOR 19 2 3 1 4
M TOR 20 3 1 0 9
M TOR 21 3 1 0 10
M TOR 22 3 1 0 11
M TOR 23 3 1 4 5
M TOR 24 3 1 4 6
M TOR 25 4 1 0 9
M TOR 26 4 1 0 10
M TOR 27 4 1 0 11
M TOR 28 4 1 2 12
M TOR 29 4 1 2 13
M TOR 30 4 1 3 14
M TOR 31 4 1 3 15
M TOR 32 4 6 7 8
M TOR 33 4 6 7 18
M TOR 34 5 4 6 7
M TOR 35 5 4 6 16
M TOR 36 5 4 6 17
M TOR 37 8 7 6 16
M TOR 38 8 7 6 17
M  END
$$$$
