gdb 4493	3.0519791	1.5486999	1.2519488	1.6746	74.68	-0.2474	0.01222	0.25962	1034.2533	0.15963	-422.579611	-422.572105	-422.571161	-422.611536	29.707
 OpenBabel02181911413D

 19 20  0  0  1  0  0  0  0  0999 V2000
    0.4430    0.5553    0.1833 O   0  0  0  0  0  0  0  0  0  0  0  0
   -0.7586   -0.0652    0.6125 C   0  0  1  0  0  0  0  0  0  0  0  0
   -1.0401    0.2528    2.0835 C   0  0  0  0  0  0  0  0  0  0  0  0
   -1.5180    1.5959    2.0363 O   0  0  0  0  0  0  0  0  0  0  0  0
   -2.4373    1.6597    0.9267 C   0  0  2  0  0  0  0  0  0  0  0  0
   -3.8440    1.2796    1.3140 C   0  0  0  0  0  0  0  0  0  0  0  0
   -4.2543    0.1693    0.7052 C   0  0  0  0  0  0  0  0  0  0  0  0
   -3.2188   -0.4030   -0.2302 C   0  0  0  0  0  0  0  0  0  0  0  0
   -1.9995    0.5460   -0.0831 C   0  0  2  0  0  0  0  0  0  0  0  0
    0.4301    1.4519    0.5402 H   0  0  0  0  0  0  0  0  0  0  0  0
   -0.6441   -1.1329    0.4089 H   0  0  0  0  0  0  0  0  0  0  0  0
   -1.7930   -0.4277    2.5086 H   0  0  0  0  0  0  0  0  0  0  0  0
   -0.1410    0.2313    2.7034 H   0  0  0  0  0  0  0  0  0  0  0  0
   -2.3656    2.6811    0.5399 H   0  0  0  0  0  0  0  0  0  0  0  0
   -4.4131    1.8598    2.0313 H   0  0  0  0  0  0  0  0  0  0  0  0
   -5.2248   -0.2964    0.8433 H   0  0  0  0  0  0  0  0  0  0  0  0
   -2.9759   -1.4431    0.0264 H   0  0  0  0  0  0  0  0  0  0  0  0
   -3.5827   -0.4295   -1.2644 H   0  0  0  0  0  0  0  0  0  0  0  0
   -1.6908    0.9521   -1.0466 H   0  0  0  0  0  0  0  0  0  0  0  0
  1 10  1  0  0  0  0
  1  2  1  0  0  0  0
  2 11  1  6  0  0  0
  2  3  1  0  0  0  0
  3 12  1  0  0  0  0
  3 13  1  0  0  0  0
  4  3  1  0  0  0  0
  5 14  1  6  0  0  0
  5  6  1  0  0  0  0
  5  4  1  0  0  0  0
  6 15  1  0  0  0  0
  7 16  1  0  0  0  0
  7  6  2  0  0  0  0
  8  9  1  0  0  0  0
  8 17  1  0  0  0  0
  8  7  1  0  0  0  0
  9 19  1  6  0  0  0
  9  2  1  0  0  0  0
  9  5  1  0  0  0  0
 18  8  1  0  0  0  0
M TOR 0 0 1 2 3
M TOR 1 0 1 2 11
M TOR 2 0 1 2 12
M TOR 3 0 1 8 4
M TOR 4 0 1 8 7
M TOR 5 0 1 8 18
M TOR 6 1 2 3 4
M TOR 7 1 8 4 3
M TOR 8 1 8 4 5
M TOR 9 1 8 4 13
M TOR 10 1 8 7 6
M TOR 11 1 8 7 16
M TOR 12 1 8 7 17
M TOR 13 2 1 0 9
M TOR 14 2 1 8 4
M TOR 15 2 1 8 7
M TOR 16 2 1 8 18
M TOR 17 2 3 4 5
M TOR 18 2 3 4 8
M TOR 19 2 3 4 13
M TOR 20 3 2 1 8
M TOR 21 3 2 1 10
M TOR 22 3 4 5 6
M TOR 23 3 4 5 14
M TOR 24 3 4 8 7
M TOR 25 3 4 8 18
M TOR 26 4 3 2 11
M TOR 27 4 3 2 12
M TOR 28 4 5 6 7
M TOR 29 4 5 6 15
M TOR 30 4 8 1 10
M TOR 31 4 8 7 6
M TOR 32 4 8 7 16
M TOR 33 4 8 7 17
M TOR 34 5 4 8 7
M TOR 35 5 4 8 18
M TOR 36 5 6 7 8
M TOR 37 5 6 7 16
M TOR 38 5 6 7 17
M TOR 39 6 5 4 8
M TOR 40 6 5 4 13
M TOR 41 6 7 8 18
M TOR 42 7 6 5 14
M TOR 43 7 8 1 10
M TOR 44 7 8 4 13
M TOR 45 8 1 0 9
M TOR 46 8 1 2 11
M TOR 47 8 1 2 12
M TOR 48 8 4 5 14
M TOR 49 8 7 6 15
M  END
$$$$
