
     RDKit          3D

 19 20  0  0  0  0  0  0  0  0999 V2000
    1.3678   -0.3412   -0.2280 O   0  0  0  0  0  0  0  0  0  0  0  0
    0.2147   -0.0423   -0.0693 C   0  0  0  0  0  0  0  0  0  0  0  0
   -0.3540    1.3454   -0.1641 C   0  0  0  0  0  0  0  0  0  0  0  0
   -0.9742    1.8711    1.1669 C   0  0  0  0  0  0  0  0  0  0  0  0
   -0.8812    3.4089    0.9363 C   0  0  0  0  0  0  0  0  0  0  0  0
   -0.2572    3.4627   -0.4761 C   0  0  0  0  0  0  0  0  0  0  0  0
   -1.3099    3.0643   -1.5346 C   0  0  0  0  0  0  0  0  0  0  0  0
   -1.4030    1.5265   -1.3040 C   0  0  0  0  0  0  0  0  0  0  0  0
    0.6252    2.3304   -0.4714 O   0  0  0  0  0  0  0  0  0  0  0  0
   -0.5589   -0.8095    0.1721 H   0  0  0  0  0  0  0  0  0  0  0  0
   -1.9945    1.5139    1.3235 H   0  0  0  0  0  0  0  0  0  0  0  0
   -0.3692    1.5590    2.0216 H   0  0  0  0  0  0  0  0  0  0  0  0
   -1.8505    3.9111    0.9893 H   0  0  0  0  0  0  0  0  0  0  0  0
   -0.2172    3.8752    1.6672 H   0  0  0  0  0  0  0  0  0  0  0  0
    0.3111    4.3652   -0.7006 H   0  0  0  0  0  0  0  0  0  0  0  0
   -2.2643    3.5785   -1.3955 H   0  0  0  0  0  0  0  0  0  0  0  0
   -0.9472    3.2886   -2.5399 H   0  0  0  0  0  0  0  0  0  0  0  0
   -2.4001    1.1880   -1.0135 H   0  0  0  0  0  0  0  0  0  0  0  0
   -1.1010    0.9709   -2.1951 H   0  0  0  0  0  0  0  0  0  0  0  0
  1  2  2  0
  2  3  1  0
  3  4  1  0
  4  5  1  0
  5  6  1  0
  6  7  1  0
  7  8  1  0
  6  9  1  0
  8  3  1  0
  9  3  1  0
  2 10  1  0
  4 11  1  0
  4 12  1  0
  5 13  1  0
  5 14  1  0
  6 15  1  0
  7 16  1  0
  7 17  1  0
  8 18  1  0
  8 19  1  0
M  END
$$$$
