
     RDKit          3D

 19 20  0  0  0  0  0  0  0  0999 V2000
    1.1700    3.1746    0.9875 C   0  0  0  0  0  0  0  0  0  0  0  0
   -0.2013    3.1252    0.3491 C   0  0  0  0  0  0  0  0  0  0  0  0
   -1.4098    3.1813    1.2693 C   0  0  0  0  0  0  0  0  0  0  0  0
   -2.6967    3.2645    0.4361 C   0  0  0  0  0  0  0  0  0  0  0  0
   -2.3146    1.9162   -0.2697 C   0  0  0  0  0  0  0  0  0  0  0  0
   -1.0329    1.8967    0.5557 C   0  0  0  0  0  0  0  0  0  0  0  0
   -0.5013    0.7315    1.1446 O   0  0  0  0  0  0  0  0  0  0  0  0
    0.1026   -0.1276    0.3003 C   0  0  0  0  0  0  0  0  0  0  0  0
    0.2180    0.0077   -0.8847 O   0  0  0  0  0  0  0  0  0  0  0  0
    1.1774    2.6720    1.9588 H   0  0  0  0  0  0  0  0  0  0  0  0
    1.9142    2.6830    0.3520 H   0  0  0  0  0  0  0  0  0  0  0  0
    1.4894    4.2103    1.1410 H   0  0  0  0  0  0  0  0  0  0  0  0
   -0.2694    3.6243   -0.6179 H   0  0  0  0  0  0  0  0  0  0  0  0
   -1.3031    3.4490    2.3136 H   0  0  0  0  0  0  0  0  0  0  0  0
   -3.6083    3.1793    1.0306 H   0  0  0  0  0  0  0  0  0  0  0  0
   -2.7780    4.1419   -0.2127 H   0  0  0  0  0  0  0  0  0  0  0  0
   -2.9956    1.1077    0.0053 H   0  0  0  0  0  0  0  0  0  0  0  0
   -2.1843    1.9227   -1.3547 H   0  0  0  0  0  0  0  0  0  0  0  0
    0.4690   -0.9869    0.8830 H   0  0  0  0  0  0  0  0  0  0  0  0
  1  2  1  0
  2  3  1  0
  3  4  1  0
  4  5  1  0
  5  6  1  0
  6  7  1  0
  7  8  1  0
  8  9  2  0
  6  2  1  0
  6  3  1  0
  1 10  1  0
  1 11  1  0
  1 12  1  0
  2 13  1  0
  3 14  1  0
  4 15  1  0
  4 16  1  0
  5 17  1  0
  5 18  1  0
  8 19  1  0
M  END
$$$$
