gdb 5798	3.8381166	1.0957161	0.9650294	2.4514	77.88	-0.24244	0.00093	0.24336999999999998	1257.371	0.157864	-422.524951	-422.516737	-422.515793	-422.558053	31.098
 OpenBabel02181911423D

 19 20  0  0  1  0  0  0  0  0999 V2000
    0.1486    1.1801    0.3566 O   0  0  0  0  0  0  0  0  0  0  0  0
    0.0161   -0.1388   -0.1364 C   0  0  0  0  0  0  0  0  0  0  0  0
   -1.4469   -0.5415   -0.1975 C   0  0  2  0  0  0  0  0  0  0  0  0
   -2.0567   -0.5103    1.1432 O   0  0  0  0  0  0  0  0  0  0  0  0
   -2.7087   -1.8097    0.9029 C   0  0  2  0  0  0  0  0  0  0  0  0
   -2.4413   -3.0474    1.7719 C   0  0  0  0  0  0  0  0  0  0  0  0
   -1.9877   -4.1045    0.7051 C   0  0  0  0  0  0  0  0  0  0  0  0
   -1.3317   -3.2391   -0.3733 C   0  0  0  0  0  3  0  0  0  0  0  0
   -1.8101   -2.0044   -0.2727 C   0  0  2  0  0  3  0  0  0  0  0  0
   -0.3090    1.1975    1.2057 H   0  0  0  0  0  0  0  0  0  0  0  0
    0.4516   -0.1519   -1.1418 H   0  0  0  0  0  0  0  0  0  0  0  0
    0.5603   -0.8657    0.4846 H   0  0  0  0  0  0  0  0  0  0  0  0
   -1.9995    0.1295   -0.8683 H   0  0  0  0  0  0  0  0  0  0  0  0
   -3.7760   -1.6394    0.7089 H   0  0  0  0  0  0  0  0  0  0  0  0
   -1.6075   -2.8322    2.4476 H   0  0  0  0  0  0  0  0  0  0  0  0
   -3.2969   -3.3732    2.3695 H   0  0  0  0  0  0  0  0  0  0  0  0
   -1.2848   -4.8347    1.1190 H   0  0  0  0  0  0  0  0  0  0  0  0
   -2.8425   -4.6791    0.3239 H   0  0  0  0  0  0  0  0  0  0  0  0
   -0.5335   -3.5938   -1.0143 H   0  0  0  0  0  0  0  0  0  0  0  0
  1 10  1  0  0  0  0
  2  1  1  0  0  0  0
  2 12  1  0  0  0  0
  3 13  1  6  0  0  0
  3  2  1  0  0  0  0
  3  4  1  0  0  0  0
  5 14  1  6  0  0  0
  5  4  1  0  0  0  0
  5  6  1  0  0  0  0
  6 16  1  0  0  0  0
  6 15  1  0  0  0  0
  7 17  1  0  0  0  0
  7  6  1  0  0  0  0
  8  7  1  0  0  0  0
  9  8  1  1  0  0  0
  9  3  1  0  0  0  0
  9  5  1  0  0  0  0
 11  2  1  0  0  0  0
 18  7  1  0  0  0  0
 19  8  1  0  0  0  0
M TOR 0 0 1 2 3
M TOR 1 0 1 2 8
M TOR 2 0 1 2 12
M TOR 3 1 2 3 4
M TOR 4 1 2 8 4
M TOR 5 1 2 8 7
M TOR 6 2 1 0 9
M TOR 7 2 3 4 5
M TOR 8 2 3 4 8
M TOR 9 2 3 4 13
M TOR 10 2 8 4 5
M TOR 11 2 8 4 13
M TOR 12 2 8 7 6
M TOR 13 2 8 7 18
M TOR 14 3 2 1 10
M TOR 15 3 2 1 11
M TOR 16 3 2 8 7
M TOR 17 3 4 5 6
M TOR 18 3 4 5 14
M TOR 19 3 4 5 15
M TOR 20 3 4 8 7
M TOR 21 4 3 2 12
M TOR 22 4 5 6 7
M TOR 23 4 5 6 16
M TOR 24 4 5 6 17
M TOR 25 4 8 2 12
M TOR 26 4 8 7 6
M TOR 27 4 8 7 18
M TOR 28 5 4 8 7
M TOR 29 5 6 7 8
M TOR 30 5 6 7 18
M TOR 31 6 5 4 8
M TOR 32 6 5 4 13
M TOR 33 7 6 5 14
M TOR 34 7 6 5 15
M TOR 35 7 8 2 12
M TOR 36 7 8 4 13
M TOR 37 8 2 1 10
M TOR 38 8 2 1 11
M TOR 39 8 4 5 14
M TOR 40 8 4 5 15
M TOR 41 8 7 6 16
M TOR 42 8 7 6 17
M  END
$$$$
