
     RDKit          3D

 19 19  0  0  0  0  0  0  0  0999 V2000
   -2.9599   -2.4275    1.0540 C   0  0  0  0  0  0  0  0  0  0  0  0
   -2.1012   -1.1624    1.0204 C   0  0  0  0  0  0  0  0  0  0  0  0
   -2.9144    0.0866    0.6374 C   0  0  0  0  0  0  0  0  0  0  0  0
   -2.0632    1.3007    0.3951 C   0  0  0  0  0  0  0  0  0  0  0  0
   -0.7480    1.2449    0.1422 C   0  0  0  0  0  0  0  0  0  0  0  0
   -0.0472   -0.0445    0.0861 C   0  0  0  0  0  0  0  0  0  0  0  0
    1.1667   -0.1546    0.0646 O   0  0  0  0  0  0  0  0  0  0  0  0
   -0.9179   -1.3016    0.0495 C   0  0  0  0  0  0  0  0  0  0  0  0
   -0.1378   -2.4309    0.3283 O   0  0  0  0  0  0  0  0  0  0  0  0
   -3.7777   -2.3274    1.7756 H   0  0  0  0  0  0  0  0  0  0  0  0
   -3.4012   -2.6287    0.0706 H   0  0  0  0  0  0  0  0  0  0  0  0
   -2.3533   -3.2911    1.3342 H   0  0  0  0  0  0  0  0  0  0  0  0
   -1.6772   -0.9998    2.0212 H   0  0  0  0  0  0  0  0  0  0  0  0
   -3.4973   -0.1179   -0.2757 H   0  0  0  0  0  0  0  0  0  0  0  0
   -3.6605    0.3076    1.4100 H   0  0  0  0  0  0  0  0  0  0  0  0
   -2.5601    2.2679    0.4316 H   0  0  0  0  0  0  0  0  0  0  0  0
   -0.1448    2.1359    0.0012 H   0  0  0  0  0  0  0  0  0  0  0  0
   -1.3313   -1.3621   -0.9783 H   0  0  0  0  0  0  0  0  0  0  0  0
    0.7804   -2.1180    0.2718 H   0  0  0  0  0  0  0  0  0  0  0  0
  1  2  1  0
  2  3  1  0
  3  4  1  0
  4  5  2  0
  5  6  1  0
  6  7  2  0
  6  8  1  0
  8  9  1  0
  8  2  1  0
  1 10  1  0
  1 11  1  0
  1 12  1  0
  2 13  1  0
  3 14  1  0
  3 15  1  0
  4 16  1  0
  5 17  1  0
  8 18  1  0
  9 19  1  0
M  END
$$$$
