
     RDKit          3D

 19 19  0  0  0  0  0  0  0  0999 V2000
    6.7491   -0.8005   -0.1789 O   0  0  0  0  0  0  0  0  0  0  0  0
    5.7928   -0.2069    0.6909 C   0  0  0  0  0  0  0  0  0  0  0  0
    4.4188   -0.2979    0.2000 C   0  0  0  0  0  0  0  0  0  0  0  0
    3.2930   -0.4190   -0.2115 C   0  0  0  0  0  0  0  0  0  0  0  0
    1.9303   -0.5172   -0.7191 C   0  0  0  0  0  0  0  0  0  0  0  0
    1.2875    0.8469   -0.9823 C   0  0  0  0  0  0  0  0  0  0  0  0
   -0.2082    0.8606   -1.3673 C   0  0  0  0  0  0  0  0  0  0  0  0
   -0.3683    1.7507   -0.1189 C   0  0  0  0  0  0  0  0  0  0  0  0
    1.0208    1.5801    0.2332 O   0  0  0  0  0  0  0  0  0  0  0  0
    6.4417   -1.6916   -0.3748 H   0  0  0  0  0  0  0  0  0  0  0  0
    5.8486   -0.6423    1.7016 H   0  0  0  0  0  0  0  0  0  0  0  0
    6.0897    0.8436    0.7850 H   0  0  0  0  0  0  0  0  0  0  0  0
    1.9250   -1.0832   -1.6614 H   0  0  0  0  0  0  0  0  0  0  0  0
    1.2977   -1.0704   -0.0132 H   0  0  0  0  0  0  0  0  0  0  0  0
    1.9305    1.4291   -1.6556 H   0  0  0  0  0  0  0  0  0  0  0  0
   -0.4552    1.3166   -2.3267 H   0  0  0  0  0  0  0  0  0  0  0  0
   -0.6955   -0.1147   -1.2962 H   0  0  0  0  0  0  0  0  0  0  0  0
   -0.6096    2.8008   -0.3275 H   0  0  0  0  0  0  0  0  0  0  0  0
   -1.0390    1.3832    0.6661 H   0  0  0  0  0  0  0  0  0  0  0  0
  1  2  1  0
  2  3  1  0
  3  4  3  0
  4  5  1  0
  5  6  1  0
  6  7  1  0
  7  8  1  0
  8  9  1  0
  9  6  1  0
  1 10  1  0
  2 11  1  0
  2 12  1  0
  5 13  1  0
  5 14  1  0
  6 15  1  0
  7 16  1  0
  7 17  1  0
  8 18  1  0
  8 19  1  0
M  END
$$$$
