gdb 4558	2.8201849	1.2316024	0.907652	0.4425	78.71	-0.23769	0.03197	0.26966	1289.8984	0.156017	-422.521147	-422.512237	-422.511293	-422.554505	33.59
 OpenBabel02181911413D

 19 19  0  0  1  0  0  0  0  0999 V2000
    0.1427    0.5856    0.0361 C   0  0  0  0  0  0  0  0  0  0  0  0
    1.3543   -0.3309    0.0502 C   0  0  2  0  0  0  0  0  0  0  0  0
    2.6754    0.4244    0.1945 C   0  0  0  0  0  0  0  0  0  0  0  0
    3.7799   -0.4622    0.1030 O   0  0  0  0  0  0  0  0  0  0  0  0
    3.7733   -1.1692   -1.1206 C   0  0  0  0  0  0  0  0  0  0  0  0
    2.4575   -1.9530   -1.2718 C   0  0  1  0  0  0  0  0  0  0  0  0
    1.3523   -1.0572   -1.1801 O   0  0  0  0  0  0  0  0  0  0  0  0
    2.3980   -2.6590   -2.5449 C   0  0  0  0  0  0  0  0  0  0  0  0
    2.4030   -3.2430   -3.5944 C   0  0  0  0  0  0  0  0  0  0  0  0
    0.0636    1.1349    0.9792 H   0  0  0  0  0  0  0  0  0  0  0  0
    0.2156    1.3061   -0.7842 H   0  0  0  0  0  0  0  0  0  0  0  0
   -0.7700    0.0010   -0.1036 H   0  0  0  0  0  0  0  0  0  0  0  0
    1.2798   -1.0477    0.8861 H   0  0  0  0  0  0  0  0  0  0  0  0
    2.7388    1.1981   -0.5889 H   0  0  0  0  0  0  0  0  0  0  0  0
    2.7442    0.9081    1.1733 H   0  0  0  0  0  0  0  0  0  0  0  0
    3.8746   -0.4829   -1.9757 H   0  0  0  0  0  0  0  0  0  0  0  0
    4.6277   -1.8505   -1.1050 H   0  0  0  0  0  0  0  0  0  0  0  0
    2.4035   -2.6813   -0.4440 H   0  0  0  0  0  0  0  0  0  0  0  0
    2.3924   -3.7633   -4.5202 H   0  0  0  0  0  0  0  0  0  0  0  0
  1  2  1  0  0  0  0
  1 10  1  0  0  0  0
  2  3  1  0  0  0  0
  2 13  1  1  0  0  0
  3 15  1  0  0  0  0
  4  3  1  0  0  0  0
  5 17  1  0  0  0  0
  5  4  1  0  0  0  0
  6  7  1  0  0  0  0
  6  5  1  0  0  0  0
  6 18  1  1  0  0  0
  7  2  1  0  0  0  0
  8  6  1  0  0  0  0
  9  8  3  0  0  0  0
 11  1  1  0  0  0  0
 12  1  1  0  0  0  0
 14  3  1  0  0  0  0
 16  5  1  0  0  0  0
 19  9  1  0  0  0  0
M TOR 0 0 1 2 3
M TOR 1 0 1 2 13
M TOR 2 0 1 2 14
M TOR 3 0 1 6 5
M TOR 4 1 2 3 4
M TOR 5 1 6 5 4
M TOR 6 1 6 5 7
M TOR 7 1 6 5 17
M TOR 8 2 1 0 9
M TOR 9 2 1 0 10
M TOR 10 2 1 0 11
M TOR 11 2 1 6 5
M TOR 12 2 3 4 5
M TOR 13 2 3 4 15
M TOR 14 2 3 4 16
M TOR 15 3 2 1 6
M TOR 16 3 2 1 12
M TOR 17 3 4 5 6
M TOR 18 3 4 5 7
M TOR 19 3 4 5 17
M TOR 20 4 3 2 13
M TOR 21 4 3 2 14
M TOR 22 4 5 7 8
M TOR 23 5 6 1 12
M TOR 24 5 7 8 18
M TOR 25 6 1 0 9
M TOR 26 6 1 0 10
M TOR 27 6 1 0 11
M TOR 28 6 1 2 13
M TOR 29 6 1 2 14
M TOR 30 6 5 4 15
M TOR 31 6 5 4 16
M TOR 32 6 5 7 8
M TOR 33 7 5 4 15
M TOR 34 7 5 4 16
M TOR 35 8 7 5 17
M  END
$$$$
