gdb 6088	7.4837557	0.423898	0.4052313	3.2065	85.88	-0.26496	-0.05957	0.20538999999999996	2599.7765	0.15338	-422.520926	-422.509897	-422.508953	-422.559769	35.799
 OpenBabel02181911423D

 19 18  0  0  0  0  0  0  0  0999 V2000
   -0.1575    2.2454    3.5790 C   0  0  0  0  0  0  0  0  0  0  0  0
    0.1565    1.4325    2.3351 C   0  0  0  0  0  0  0  0  0  0  0  0
   -0.4511    2.0613    1.2209 O   0  0  0  0  0  0  0  0  0  0  0  0
   -0.2233    1.3888    0.0077 C   0  0  0  0  0  0  0  0  0  0  0  0
   -0.9365    2.1870   -1.0910 C   0  0  0  0  0  0  0  0  0  0  0  0
   -0.7814    1.5976   -2.4097 C   0  0  0  0  0  0  0  0  0  0  0  0
   -0.6313    1.0783   -3.4903 C   0  0  0  0  0  0  0  0  0  0  0  0
   -0.4810    0.4984   -4.7988 C   0  0  0  0  0  0  0  0  0  0  0  0
    0.1402   -0.5127   -5.0357 O   0  0  0  0  0  0  0  0  0  0  0  0
    0.2997    1.7842    4.4593 H   0  0  0  0  0  0  0  0  0  0  0  0
    0.2290    3.2637    3.4800 H   0  0  0  0  0  0  0  0  0  0  0  0
   -1.2380    2.3023    3.7380 H   0  0  0  0  0  0  0  0  0  0  0  0
    1.2462    1.3627    2.1806 H   0  0  0  0  0  0  0  0  0  0  0  0
   -0.2210    0.4016    2.4384 H   0  0  0  0  0  0  0  0  0  0  0  0
    0.8534    1.3207   -0.2156 H   0  0  0  0  0  0  0  0  0  0  0  0
   -0.6165    0.3601    0.0408 H   0  0  0  0  0  0  0  0  0  0  0  0
   -2.0015    2.2634   -0.8399 H   0  0  0  0  0  0  0  0  0  0  0  0
   -0.5478    3.2128   -1.0936 H   0  0  0  0  0  0  0  0  0  0  0  0
   -0.9926    1.0629   -5.6051 H   0  0  0  0  0  0  0  0  0  0  0  0
  1 12  1  0  0  0  0
  1 10  1  0  0  0  0
  2 14  1  0  0  0  0
  2  1  1  0  0  0  0
  3  2  1  0  0  0  0
  4 16  1  0  0  0  0
  4  3  1  0  0  0  0
  5 17  1  0  0  0  0
  5  4  1  0  0  0  0
  6  5  1  0  0  0  0
  7  6  3  0  0  0  0
  8  7  1  0  0  0  0
  9  8  2  0  0  0  0
 11  1  1  0  0  0  0
 13  2  1  0  0  0  0
 15  4  1  0  0  0  0
 18  5  1  0  0  0  0
 19  8  1  0  0  0  0
M TOR 0 0 1 2 3
M TOR 1 1 2 3 4
M TOR 2 1 2 3 14
M TOR 3 1 2 3 15
M TOR 4 2 1 0 9
M TOR 5 2 1 0 10
M TOR 6 2 1 0 11
M TOR 7 2 3 4 5
M TOR 8 2 3 4 16
M TOR 9 2 3 4 17
M TOR 10 3 2 1 12
M TOR 11 3 2 1 13
M TOR 12 3 4 5 6
M TOR 13 4 5 6 7
M TOR 14 5 4 3 14
M TOR 15 5 4 3 15
M TOR 16 5 6 7 8
M TOR 17 5 6 7 18
M TOR 18 6 5 4 16
M TOR 19 6 5 4 17
M  END
$$$$
