gdb 1508	3.2054055	1.158516	0.9909258	3.0887	78.14	-0.24494	0.04638	0.29131999999999997	1240.3043	0.153532	-422.522106	-422.512583	-422.511639	-422.5555	37.163
 OpenBabel02181911403D

 19 19  0  0  1  0  0  0  0  0999 V2000
    0.7920    2.7490    3.7570 C   0  0  0  0  0  0  0  0  0  0  0  0
   -0.2081    2.2510    2.7316 C   0  0  1  0  0  0  0  0  0  0  0  0
   -1.4723    2.9195    2.8775 O   0  0  0  0  0  0  0  0  0  0  0  0
    0.1408    2.3277    1.2243 C   0  0  0  0  0  0  0  0  0  0  0  0
   -0.6134    0.9677    1.0202 C   0  0  2  0  0  0  0  0  0  0  0  0
   -1.9706    1.1479    0.6633 O   0  0  0  0  0  0  0  0  0  0  0  0
   -0.4222    0.7186    2.5582 C   0  0  0  0  0  0  0  0  0  0  0  0
   -0.0114    0.0024    0.1152 C   0  0  0  0  0  0  0  0  0  0  0  0
    0.5328   -0.7907   -0.6051 C   0  0  0  0  0  0  0  0  0  0  0  0
    0.4572    2.5171    4.7759 H   0  0  0  0  0  0  0  0  0  0  0  0
    1.7688    2.2774    3.6139 H   0  0  0  0  0  0  0  0  0  0  0  0
    0.9126    3.8339    3.6781 H   0  0  0  0  0  0  0  0  0  0  0  0
   -1.8210    2.7036    3.7503 H   0  0  0  0  0  0  0  0  0  0  0  0
   -0.2583    3.1807    0.6720 H   0  0  0  0  0  0  0  0  0  0  0  0
    1.2135    2.2300    1.0486 H   0  0  0  0  0  0  0  0  0  0  0  0
   -2.3079    1.8289    1.2632 H   0  0  0  0  0  0  0  0  0  0  0  0
   -1.2757    0.2670    3.0710 H   0  0  0  0  0  0  0  0  0  0  0  0
    0.4847    0.1476    2.7693 H   0  0  0  0  0  0  0  0  0  0  0  0
    0.9982   -1.4937   -1.2507 H   0  0  0  0  0  0  0  0  0  0  0  0
  1 10  1  0  0  0  0
  2  3  1  1  0  0  0
  2  1  1  0  0  0  0
  3 13  1  0  0  0  0
  4  2  1  0  0  0  0
  5  8  1  6  0  0  0
  5  4  1  0  0  0  0
  5  7  1  0  0  0  0
  6  5  1  0  0  0  0
  6 16  1  0  0  0  0
  7  2  1  0  0  0  0
  7 18  1  0  0  0  0
  7 17  1  0  0  0  0
  9  8  3  0  0  0  0
 11  1  1  0  0  0  0
 12  1  1  0  0  0  0
 14  4  1  0  0  0  0
 15  4  1  0  0  0  0
 19  9  1  0  0  0  0
M TOR 0 0 1 2 12
M TOR 1 0 1 3 4
M TOR 2 0 1 3 13
M TOR 3 0 1 3 14
M TOR 4 0 1 6 4
M TOR 5 0 1 6 16
M TOR 6 0 1 6 17
M TOR 7 1 3 4 5
M TOR 8 1 3 4 6
M TOR 9 1 3 4 7
M TOR 10 1 6 4 5
M TOR 11 1 6 4 7
M TOR 12 2 1 0 9
M TOR 13 2 1 0 10
M TOR 14 2 1 0 11
M TOR 15 2 1 3 4
M TOR 16 2 1 3 13
M TOR 17 2 1 3 14
M TOR 18 2 1 6 4
M TOR 19 2 1 6 16
M TOR 20 2 1 6 17
M TOR 21 3 1 0 9
M TOR 22 3 1 0 10
M TOR 23 3 1 0 11
M TOR 24 3 1 2 12
M TOR 25 3 1 6 16
M TOR 26 3 1 6 17
M TOR 27 3 4 5 15
M TOR 28 3 4 6 16
M TOR 29 3 4 6 17
M TOR 30 3 4 7 8
M TOR 31 4 7 8 18
M TOR 32 5 4 3 13
M TOR 33 5 4 3 14
M TOR 34 5 4 6 16
M TOR 35 5 4 6 17
M TOR 36 5 4 7 8
M TOR 37 6 1 0 9
M TOR 38 6 1 0 10
M TOR 39 6 1 0 11
M TOR 40 6 1 2 12
M TOR 41 6 1 3 13
M TOR 42 6 1 3 14
M TOR 43 6 4 3 13
M TOR 44 6 4 3 14
M TOR 45 6 4 5 15
M TOR 46 6 4 7 8
M TOR 47 7 4 3 13
M TOR 48 7 4 3 14
M TOR 49 7 4 5 15
M TOR 50 7 4 6 16
M TOR 51 7 4 6 17
M  END
$$$$
