gdb 3985	3.4288309	1.2687942	1.0450566	2.6266	78.18	-0.236	-0.033	0.20299999999999999	1175.8487	0.155652	-422.545354	-422.536662	-422.535718	-422.578263	33.064
 OpenBabel02181911413D

 19 20  0  0  1  0  0  0  0  0999 V2000
    2.3043   -0.9425   -1.1551 C   0  0  0  0  0  0  0  0  0  0  0  0
    1.7768   -0.1034    0.0028 C   0  0  2  0  0  0  0  0  0  0  0  0
    2.5476    1.2471    0.2302 C   0  0  0  0  0  0  0  0  0  0  0  0
    3.0368    0.7270    1.5850 C   0  0  1  0  0  0  0  0  0  0  0  0
    1.7921    0.4489    2.4579 C   0  0  2  0  0  0  0  0  0  0  0  0
    2.0515    0.0122    3.8317 C   0  0  0  0  0  0  0  0  0  0  0  0
    2.9218   -0.7837    4.1486 O   0  0  0  0  0  0  0  0  0  0  0  0
    2.2766   -0.5528    1.3789 C   0  0  1  0  0  0  0  0  0  0  0  0
    2.5568   -1.8573    1.6572 O   0  0  0  0  0  0  0  0  0  0  0  0
    1.8683   -1.9453   -1.1421 H   0  0  0  0  0  0  0  0  0  0  0  0
    2.0571   -0.4712   -2.1120 H   0  0  0  0  0  0  0  0  0  0  0  0
    3.3921   -1.0535   -1.0993 H   0  0  0  0  0  0  0  0  0  0  0  0
    0.6878   -0.0080   -0.0681 H   0  0  0  0  0  0  0  0  0  0  0  0
    3.3611    1.3717   -0.4887 H   0  0  0  0  0  0  0  0  0  0  0  0
    1.9493    2.1635    0.2518 H   0  0  0  0  0  0  0  0  0  0  0  0
    3.9880    0.9201    2.0662 H   0  0  0  0  0  0  0  0  0  0  0  0
    0.9027    1.0588    2.3120 H   0  0  0  0  0  0  0  0  0  0  0  0
    1.3821    0.4374    4.6074 H   0  0  0  0  0  0  0  0  0  0  0  0
    2.9437   -1.8736    2.5511 H   0  0  0  0  0  0  0  0  0  0  0  0
  1 10  1  0  0  0  0
  1 12  1  0  0  0  0
  1  2  1  0  0  0  0
  2 13  1  6  0  0  0
  2  3  1  0  0  0  0
  2  8  1  0  0  0  0
  3 15  1  0  0  0  0
  3  4  1  0  0  0  0
  4 16  1  1  0  0  0
  4  5  1  0  0  0  0
  5 17  1  6  0  0  0
  5  6  1  0  0  0  0
  6  7  2  0  0  0  0
  6 18  1  0  0  0  0
  8  4  1  0  0  0  0
  8  9  1  1  0  0  0
  8  5  1  0  0  0  0
  9 19  1  0  0  0  0
 11  1  1  0  0  0  0
 14  3  1  0  0  0  0
M TOR 0 0 1 2 3
M TOR 1 0 1 2 13
M TOR 2 0 1 2 14
M TOR 3 0 1 7 3
M TOR 4 0 1 7 4
M TOR 5 0 1 7 8
M TOR 6 1 2 3 4
M TOR 7 1 2 3 7
M TOR 8 1 2 3 15
M TOR 9 1 7 3 4
M TOR 10 1 7 3 15
M TOR 11 1 7 4 5
M TOR 12 1 7 4 16
M TOR 13 1 7 8 18
M TOR 14 2 1 0 9
M TOR 15 2 1 0 10
M TOR 16 2 1 0 11
M TOR 17 2 1 7 4
M TOR 18 2 1 7 8
M TOR 19 2 3 4 5
M TOR 20 2 3 4 7
M TOR 21 2 3 4 16
M TOR 22 2 3 7 8
M TOR 23 3 2 1 12
M TOR 24 3 4 5 6
M TOR 25 3 4 5 17
M TOR 26 3 4 7 8
M TOR 27 3 7 1 12
M TOR 28 3 7 4 5
M TOR 29 3 7 4 16
M TOR 30 3 7 8 18
M TOR 31 4 3 2 13
M TOR 32 4 3 2 14
M TOR 33 4 7 1 12
M TOR 34 4 7 3 15
M TOR 35 4 7 8 18
M TOR 36 5 4 3 15
M TOR 37 5 4 7 8
M TOR 38 6 5 4 7
M TOR 39 6 5 4 16
M TOR 40 7 1 0 9
M TOR 41 7 1 0 10
M TOR 42 7 1 0 11
M TOR 43 7 1 2 13
M TOR 44 7 1 2 14
M TOR 45 7 3 2 13
M TOR 46 7 3 2 14
M TOR 47 7 4 5 17
M TOR 48 8 7 1 12
M TOR 49 8 7 3 15
M TOR 50 8 7 4 16
M  END
$$$$
