
     RDKit          3D

 19 21  0  0  0  0  0  0  0  0999 V2000
   -0.0353   -0.2290    0.0067 C   0  0  0  0  0  0  0  0  0  0  0  0
    1.4677   -0.1704    0.0862 C   0  0  0  0  0  0  0  0  0  0  0  0
    2.1730    0.3666    1.3250 C   0  0  0  0  0  0  0  0  0  0  0  0
    2.2491    1.1392    0.0466 C   0  0  0  0  0  0  0  0  0  0  0  0
    1.6586    2.3945   -0.0143 O   0  0  0  0  0  0  0  0  0  0  0  0
    3.2883    0.7554   -1.0253 C   0  0  0  0  0  0  0  0  0  0  0  0
    3.7820   -0.6588   -0.6584 C   0  0  0  0  0  0  0  0  0  0  0  0
    2.2963   -0.9206   -0.9802 C   0  0  0  0  0  0  0  0  0  0  0  0
    2.4151    0.1163   -2.0338 O   0  0  0  0  0  0  0  0  0  0  0  0
   -0.4829    0.6344    0.5087 H   0  0  0  0  0  0  0  0  0  0  0  0
   -0.3655   -0.2153   -1.0382 H   0  0  0  0  0  0  0  0  0  0  0  0
   -0.4368   -1.1348    0.4749 H   0  0  0  0  0  0  0  0  0  0  0  0
    1.5019    0.7990    2.0619 H   0  0  0  0  0  0  0  0  0  0  0  0
    3.0408   -0.1145    1.7610 H   0  0  0  0  0  0  0  0  0  0  0  0
    1.2737    2.4857   -0.8950 H   0  0  0  0  0  0  0  0  0  0  0  0
    3.9261    1.5449   -1.4229 H   0  0  0  0  0  0  0  0  0  0  0  0
    4.4246   -1.0568   -1.4434 H   0  0  0  0  0  0  0  0  0  0  0  0
    4.1926   -0.8745    0.3280 H   0  0  0  0  0  0  0  0  0  0  0  0
    1.9184   -1.8733   -1.3520 H   0  0  0  0  0  0  0  0  0  0  0  0
  1  2  1  0
  2  3  1  0
  3  4  1  0
  4  5  1  0
  4  6  1  0
  6  7  1  0
  7  8  1  0
  8  9  1  0
  4  2  1  0
  9  6  1  0
  8  2  1  0
  1 10  1  0
  1 11  1  0
  1 12  1  0
  3 13  1  0
  3 14  1  0
  5 15  1  0
  6 16  1  0
  7 17  1  0
  7 18  1  0
  8 19  1  0
M  END
$$$$
