gdb 979	3.6702058	0.9568455	0.847198	1.882	76.85	-0.24109	0.00931	0.2504	1375.9135	0.157678	-422.594059	-422.585348	-422.584404	-422.628906	31.16
 OpenBabel02181911403D

 19 19  0  0  1  0  0  0  0  0999 V2000
    1.0102    0.6009    0.0061 O   0  0  0  0  0  0  0  0  0  0  0  0
    0.1119   -0.0050    0.5246 C   0  0  0  0  0  0  0  0  0  0  0  0
   -1.1292    0.4377    0.7631 O   0  0  0  0  0  0  0  0  0  0  0  0
   -1.4540    1.7887    0.3505 C   0  0  0  0  0  0  0  0  0  0  0  0
   -1.5603    2.7116    1.5551 C   0  0  2  0  0  0  0  0  0  0  0  0
   -2.0641    4.1306    1.1619 C   0  0  0  0  0  0  0  0  0  0  0  0
   -1.2880    5.0423    2.0814 C   0  0  0  0  0  0  0  0  0  0  0  0
   -0.2999    4.4045    2.7049 C   0  0  0  0  0  0  0  0  0  0  0  0
   -0.2268    2.9464    2.3216 C   0  0  0  0  0  0  0  0  0  0  0  0
    0.1833   -1.0431    0.8854 H   0  0  0  0  0  0  0  0  0  0  0  0
   -0.6935    2.1355   -0.3530 H   0  0  0  0  0  0  0  0  0  0  0  0
   -2.4150    1.7066   -0.1656 H   0  0  0  0  0  0  0  0  0  0  0  0
   -2.2832    2.2741    2.2524 H   0  0  0  0  0  0  0  0  0  0  0  0
   -1.8422    4.3629    0.1088 H   0  0  0  0  0  0  0  0  0  0  0  0
   -3.1502    4.2277    1.2715 H   0  0  0  0  0  0  0  0  0  0  0  0
   -1.5100    6.0998    2.1726 H   0  0  0  0  0  0  0  0  0  0  0  0
    0.4094    4.8628    3.3853 H   0  0  0  0  0  0  0  0  0  0  0  0
    0.6457    2.7504    1.6836 H   0  0  0  0  0  0  0  0  0  0  0  0
   -0.1275    2.2823    3.1876 H   0  0  0  0  0  0  0  0  0  0  0  0
  1  2  2  0  0  0  0
  2  3  1  0  0  0  0
  2 10  1  0  0  0  0
  4  3  1  0  0  0  0
  4  5  1  0  0  0  0
  5 13  1  1  0  0  0
  5  9  1  0  0  0  0
  6 15  1  0  0  0  0
  6  5  1  0  0  0  0
  6  7  1  0  0  0  0
  7 16  1  0  0  0  0
  7  8  2  0  0  0  0
  8 17  1  0  0  0  0
  9  8  1  0  0  0  0
  9 19  1  0  0  0  0
 11  4  1  0  0  0  0
 12  4  1  0  0  0  0
 14  6  1  0  0  0  0
 18  9  1  0  0  0  0
M TOR 0 0 1 2 3
M TOR 1 1 2 3 4
M TOR 2 1 2 3 10
M TOR 3 1 2 3 11
M TOR 4 2 3 4 5
M TOR 5 2 3 4 8
M TOR 6 2 3 4 12
M TOR 7 3 2 1 9
M TOR 8 3 4 5 6
M TOR 9 3 4 5 13
M TOR 10 3 4 5 14
M TOR 11 3 4 8 7
M TOR 12 3 4 8 17
M TOR 13 3 4 8 18
M TOR 14 4 5 6 7
M TOR 15 4 5 6 15
M TOR 16 4 8 7 6
M TOR 17 4 8 7 16
M TOR 18 5 4 3 10
M TOR 19 5 4 3 11
M TOR 20 5 4 8 7
M TOR 21 5 4 8 17
M TOR 22 5 4 8 18
M TOR 23 5 6 7 8
M TOR 24 5 6 7 16
M TOR 25 6 5 4 8
M TOR 26 6 5 4 12
M TOR 27 6 7 8 17
M TOR 28 6 7 8 18
M TOR 29 7 6 5 13
M TOR 30 7 6 5 14
M TOR 31 7 8 4 12
M TOR 32 8 4 3 10
M TOR 33 8 4 3 11
M TOR 34 8 4 5 13
M TOR 35 8 4 5 14
M TOR 36 8 7 6 15
M  END
$$$$
