gdb 4739	2.1292516	1.4155791	1.0500418	2.6486	78.84	-0.26026	-0.0591	0.20116	1226.08	0.151585	-422.523376	-422.512439	-422.511495	-422.560685	38.396
 OpenBabel02181911413D

 19 18  0  0  0  0  0  0  0  0999 V2000
    1.4373   -0.0978   -0.1272 C   0  0  0  0  0  0  0  0  0  0  0  0
    0.0528   -0.0143    0.1302 O   0  0  0  0  0  0  0  0  0  0  0  0
   -0.3632    0.7305    1.2661 C   0  0  0  0  0  0  0  0  0  0  0  0
    0.1446    0.1218    2.5853 C   0  0  0  0  0  0  0  0  0  0  0  0
    0.0067    2.2205    1.1587 C   0  0  0  0  0  0  0  0  0  0  0  0
   -1.9055    0.6359    1.2768 C   0  0  0  0  0  0  0  0  0  0  0  0
   -2.5543    1.1848    2.1416 O   0  0  0  0  0  0  0  0  0  0  0  0
   -2.5512   -0.1263    0.2267 C   0  0  0  0  0  0  0  0  0  0  0  0
   -3.1646   -0.7392   -0.6082 C   0  0  0  0  0  0  0  0  0  0  0  0
    1.9884   -0.5884    0.6866 H   0  0  0  0  0  0  0  0  0  0  0  0
    1.5437   -0.7040   -1.0299 H   0  0  0  0  0  0  0  0  0  0  0  0
    1.8912    0.8849   -0.3143 H   0  0  0  0  0  0  0  0  0  0  0  0
   -0.0525   -0.9540    2.6094 H   0  0  0  0  0  0  0  0  0  0  0  0
    1.2189    0.2838    2.7070 H   0  0  0  0  0  0  0  0  0  0  0  0
   -0.3717    0.5923    3.4246 H   0  0  0  0  0  0  0  0  0  0  0  0
   -0.5166    2.7813    1.9360 H   0  0  0  0  0  0  0  0  0  0  0  0
    1.0816    2.3709    1.2896 H   0  0  0  0  0  0  0  0  0  0  0  0
   -0.2863    2.6164    0.1818 H   0  0  0  0  0  0  0  0  0  0  0  0
   -3.6958   -1.2832   -1.3508 H   0  0  0  0  0  0  0  0  0  0  0  0
  1  2  1  0  0  0  0
  1 10  1  0  0  0  0
  2  3  1  0  0  0  0
  3  6  1  0  0  0  0
  3  4  1  0  0  0  0
  4 13  1  0  0  0  0
  4 14  1  0  0  0  0
  4 15  1  0  0  0  0
  5  3  1  0  0  0  0
  5 17  1  0  0  0  0
  5 16  1  0  0  0  0
  6  7  2  0  0  0  0
  8  6  1  0  0  0  0
  9  8  3  0  0  0  0
 11  1  1  0  0  0  0
 12  1  1  0  0  0  0
 18  5  1  0  0  0  0
 19  9  1  0  0  0  0
M TOR 0 0 1 2 3
M TOR 1 0 1 2 4
M TOR 2 0 1 2 5
M TOR 3 1 2 3 12
M TOR 4 1 2 3 13
M TOR 5 1 2 3 14
M TOR 6 1 2 4 15
M TOR 7 1 2 4 16
M TOR 8 1 2 4 17
M TOR 9 1 2 5 6
M TOR 10 1 2 5 7
M TOR 11 2 1 0 9
M TOR 12 2 1 0 10
M TOR 13 2 1 0 11
M TOR 14 2 5 7 8
M TOR 15 3 2 4 15
M TOR 16 3 2 4 16
M TOR 17 3 2 4 17
M TOR 18 3 2 5 6
M TOR 19 3 2 5 7
M TOR 20 4 2 3 12
M TOR 21 4 2 3 13
M TOR 22 4 2 3 14
M TOR 23 4 2 5 6
M TOR 24 4 2 5 7
M TOR 25 5 2 3 12
M TOR 26 5 2 3 13
M TOR 27 5 2 3 14
M TOR 28 5 2 4 15
M TOR 29 5 2 4 16
M TOR 30 5 2 4 17
M TOR 31 5 7 8 18
M TOR 32 6 5 7 8
M  END
$$$$
