gdb 1876	2.6257717	1.7034707	1.3398549	2.1636	73.52	-0.22931	0.06392	0.29323	1009.6317	0.156925	-422.535977	-422.527866	-422.526922	-422.567781	32.927
 OpenBabel02181911403D

 19 21  0  0  1  0  0  0  0  0999 V2000
   -2.3877    0.2154   -1.1589 O   0  0  0  0  0  0  0  0  0  0  0  0
   -2.2140    0.2968    0.2220 C   0  0  1  0  0  0  0  0  0  0  0  0
   -1.6533   -0.9141    0.9467 C   0  0  0  0  0  0  0  0  0  0  0  0
   -0.8316    0.3560    0.8122 C   0  0  1  0  0  0  0  0  0  0  0  0
    0.2317    0.3814   -0.0974 O   0  0  0  0  0  0  0  0  0  0  0  0
   -0.8199    1.3870    1.9288 C   0  0  2  0  0  0  0  0  0  0  0  0
   -1.6493    1.1598    3.1683 C   0  0  0  0  0  0  0  0  0  0  0  0
   -2.2209    1.9652    2.0288 C   0  0  2  0  0  0  0  0  0  0  0  0
   -3.1059    1.2901    0.9705 C   0  0  0  0  0  0  0  0  0  0  0  0
   -1.5076    0.3171   -1.5465 H   0  0  0  0  0  0  0  0  0  0  0  0
   -2.0371   -1.2303    1.9102 H   0  0  0  0  0  0  0  0  0  0  0  0
   -1.3635   -1.7269    0.2873 H   0  0  0  0  0  0  0  0  0  0  0  0
    0.8841   -0.2751    0.1674 H   0  0  0  0  0  0  0  0  0  0  0  0
    0.0673    2.0067    1.9846 H   0  0  0  0  0  0  0  0  0  0  0  0
   -2.0394    0.1707    3.3817 H   0  0  0  0  0  0  0  0  0  0  0  0
   -1.3627    1.7092    4.0593 H   0  0  0  0  0  0  0  0  0  0  0  0
   -2.3731    3.0255    2.1971 H   0  0  0  0  0  0  0  0  0  0  0  0
   -3.9983    0.8218    1.4000 H   0  0  0  0  0  0  0  0  0  0  0  0
   -3.4456    2.0328    0.2427 H   0  0  0  0  0  0  0  0  0  0  0  0
  2  1  1  6  0  0  0
  2  4  1  0  0  0  0
  2  3  1  0  0  0  0
  2  9  1  0  0  0  0
  3 11  1  0  0  0  0
  4  5  1  6  0  0  0
  4  3  1  0  0  0  0
  4  6  1  0  0  0  0
  5 13  1  0  0  0  0
  6 14  1  1  0  0  0
  6  8  1  0  0  0  0
  6  7  1  0  0  0  0
  7 15  1  0  0  0  0
  7 16  1  0  0  0  0
  8 17  1  1  0  0  0
  8  7  1  0  0  0  0
  9 18  1  0  0  0  0
  9  8  1  0  0  0  0
 10  1  1  0  0  0  0
 12  3  1  0  0  0  0
 19  9  1  0  0  0  0
M TOR 0 0 1 2 3
M TOR 1 0 1 2 10
M TOR 2 0 1 2 11
M TOR 3 0 1 3 4
M TOR 4 0 1 3 5
M TOR 5 0 1 8 7
M TOR 6 0 1 8 17
M TOR 7 0 1 8 18
M TOR 8 1 2 3 4
M TOR 9 1 2 3 5
M TOR 10 1 3 2 10
M TOR 11 1 3 2 11
M TOR 12 1 3 4 12
M TOR 13 1 3 5 6
M TOR 14 1 3 5 7
M TOR 15 1 3 5 13
M TOR 16 1 8 7 5
M TOR 17 1 8 7 6
M TOR 18 1 8 7 16
M TOR 19 2 1 0 9
M TOR 20 2 1 8 7
M TOR 21 2 1 8 17
M TOR 22 2 1 8 18
M TOR 23 2 3 1 8
M TOR 24 2 3 4 12
M TOR 25 2 3 5 6
M TOR 26 2 3 5 7
M TOR 27 2 3 5 13
M TOR 28 3 1 0 9
M TOR 29 3 1 8 7
M TOR 30 3 1 8 17
M TOR 31 3 1 8 18
M TOR 32 3 5 6 7
M TOR 33 3 5 6 14
M TOR 34 3 5 6 15
M TOR 35 3 5 7 8
M TOR 36 3 5 7 16
M TOR 37 4 3 1 8
M TOR 38 4 3 2 10
M TOR 39 4 3 2 11
M TOR 40 4 3 5 6
M TOR 41 4 3 5 7
M TOR 42 4 3 5 13
M TOR 43 5 3 1 8
M TOR 44 5 3 2 10
M TOR 45 5 3 2 11
M TOR 46 5 3 4 12
M TOR 47 5 6 7 8
M TOR 48 5 6 7 16
M TOR 49 5 7 6 14
M TOR 50 5 7 6 15
M TOR 51 5 7 8 17
M TOR 52 5 7 8 18
M TOR 53 6 7 5 13
M TOR 54 6 7 8 17
M TOR 55 6 7 8 18
M TOR 56 8 1 0 9
M TOR 57 8 1 2 10
M TOR 58 8 1 2 11
M TOR 59 8 7 5 13
M TOR 60 8 7 6 14
M TOR 61 8 7 6 15
M  END
$$$$
