gdb 4114	2.3479048	1.7149482	1.5141612	2.6443	74.7	-0.23121	-0.02208	0.20913	994.6259	0.157822	-422.558426	-422.550478	-422.549533	-422.590612	30.893
 OpenBabel02181911413D

 19 20  0  0  1  0  0  0  0  0999 V2000
   -0.8293   -0.0946    3.2157 C   0  0  0  0  0  0  0  0  0  0  0  0
   -1.9074   -0.0386    2.1293 C   0  0  1  0  0  0  0  0  0  0  0  0
   -1.8789    1.2903    1.3233 C   0  0  0  0  0  0  0  0  0  0  0  0
   -1.1059    1.1281   -0.0048 C   0  0  2  0  0  0  0  0  0  0  0  0
   -1.8135    0.0055   -0.8305 C   0  0  0  0  0  0  0  0  0  0  0  0
   -1.0877   -1.0265    0.0842 C   0  0  2  0  0  0  0  0  0  0  0  0
   -1.8089   -1.2064    1.2897 O   0  0  0  0  0  0  0  0  0  0  0  0
    0.0010    0.0805    0.2033 C   0  0  0  0  0  0  0  0  0  0  0  0
    1.1970    0.0954    0.2107 O   0  0  0  0  0  0  0  0  0  0  0  0
   -0.8615   -1.0659    3.7161 H   0  0  0  0  0  0  0  0  0  0  0  0
    0.1753    0.0457    2.8065 H   0  0  0  0  0  0  0  0  0  0  0  0
   -1.0042    0.6872    3.9625 H   0  0  0  0  0  0  0  0  0  0  0  0
   -2.8840   -0.1381    2.6139 H   0  0  0  0  0  0  0  0  0  0  0  0
   -2.8958    1.6235    1.0899 H   0  0  0  0  0  0  0  0  0  0  0  0
   -1.4167    2.0677    1.9395 H   0  0  0  0  0  0  0  0  0  0  0  0
   -0.8548    2.0811   -0.4718 H   0  0  0  0  0  0  0  0  0  0  0  0
   -2.9039   -0.0229   -0.7822 H   0  0  0  0  0  0  0  0  0  0  0  0
   -1.4703   -0.0388   -1.8668 H   0  0  0  0  0  0  0  0  0  0  0  0
   -0.8203   -2.0129   -0.2960 H   0  0  0  0  0  0  0  0  0  0  0  0
  1 10  1  0  0  0  0
  1 12  1  0  0  0  0
  2 13  1  1  0  0  0
  2  1  1  0  0  0  0
  3 15  1  0  0  0  0
  3  2  1  0  0  0  0
  4 16  1  6  0  0  0
  4  8  1  0  0  0  0
  4  3  1  0  0  0  0
  5 17  1  0  0  0  0
  5  4  1  0  0  0  0
  5  6  1  0  0  0  0
  6 19  1  6  0  0  0
  6  8  1  0  0  0  0
  6  7  1  0  0  0  0
  7  2  1  0  0  0  0
  8  9  2  0  0  0  0
 11  1  1  0  0  0  0
 14  3  1  0  0  0  0
 18  5  1  0  0  0  0
M TOR 0 0 1 2 3
M TOR 1 0 1 2 13
M TOR 2 0 1 2 14
M TOR 3 0 1 6 5
M TOR 4 1 2 3 4
M TOR 5 1 2 3 7
M TOR 6 1 2 3 15
M TOR 7 1 6 5 4
M TOR 8 1 6 5 7
M TOR 9 1 6 5 18
M TOR 10 2 1 0 9
M TOR 11 2 1 0 10
M TOR 12 2 1 0 11
M TOR 13 2 1 6 5
M TOR 14 2 3 4 5
M TOR 15 2 3 4 16
M TOR 16 2 3 4 17
M TOR 17 2 3 7 5
M TOR 18 2 3 7 8
M TOR 19 3 2 1 6
M TOR 20 3 2 1 12
M TOR 21 3 4 5 6
M TOR 22 3 4 5 7
M TOR 23 3 4 5 18
M TOR 24 3 7 5 6
M TOR 25 3 7 5 18
M TOR 26 4 3 2 13
M TOR 27 4 3 2 14
M TOR 28 4 3 7 8
M TOR 29 4 5 7 8
M TOR 30 5 4 3 15
M TOR 31 5 6 1 12
M TOR 32 5 7 3 15
M TOR 33 6 1 0 9
M TOR 34 6 1 0 10
M TOR 35 6 1 0 11
M TOR 36 6 1 2 13
M TOR 37 6 1 2 14
M TOR 38 6 5 4 16
M TOR 39 6 5 4 17
M TOR 40 6 5 7 8
M TOR 41 7 3 2 13
M TOR 42 7 3 2 14
M TOR 43 7 3 4 16
M TOR 44 7 3 4 17
M TOR 45 7 5 4 16
M TOR 46 7 5 4 17
M TOR 47 8 7 3 15
M TOR 48 8 7 5 18
M  END
$$$$
