
     RDKit          3D

 19 18  0  0  0  0  0  0  0  0999 V2000
    1.6861    0.6959    0.2841 O   0  0  0  0  0  0  0  0  0  0  0  0
    0.7087   -0.1964    0.7838 C   0  0  0  0  0  0  0  0  0  0  0  0
   -0.5144    0.5477    1.3584 C   0  0  0  0  0  0  0  0  0  0  0  0
   -1.5467   -0.3630    1.8366 C   0  0  0  0  0  0  0  0  0  0  0  0
   -2.3721   -1.1570    2.2097 C   0  0  0  0  0  0  0  0  0  0  0  0
   -3.3810   -2.0903    2.6948 C   0  0  0  0  0  0  0  0  0  0  0  0
   -3.8074   -1.8017    4.1538 C   0  0  0  0  0  0  0  0  0  0  0  0
   -4.9331   -2.7079    4.5990 C   0  0  0  0  0  0  0  0  0  0  0  0
   -4.9367   -3.3590    5.6107 O   0  0  0  0  0  0  0  0  0  0  0  0
    2.0801    1.1566    1.0316 H   0  0  0  0  0  0  0  0  0  0  0  0
    0.3940   -0.8116   -0.0640 H   0  0  0  0  0  0  0  0  0  0  0  0
    1.1192   -0.8734    1.5467 H   0  0  0  0  0  0  0  0  0  0  0  0
   -0.1817    1.1986    2.1793 H   0  0  0  0  0  0  0  0  0  0  0  0
   -0.9120    1.2108    0.5807 H   0  0  0  0  0  0  0  0  0  0  0  0
   -4.2658   -2.0521    2.0449 H   0  0  0  0  0  0  0  0  0  0  0  0
   -2.9994   -3.1172    2.6266 H   0  0  0  0  0  0  0  0  0  0  0  0
   -2.9671   -1.9067    4.8437 H   0  0  0  0  0  0  0  0  0  0  0  0
   -4.1697   -0.7665    4.2130 H   0  0  0  0  0  0  0  0  0  0  0  0
   -5.8031   -2.7331    3.8994 H   0  0  0  0  0  0  0  0  0  0  0  0
  1  2  1  0
  2  3  1  0
  3  4  1  0
  4  5  3  0
  5  6  1  0
  6  7  1  0
  7  8  1  0
  8  9  2  0
  1 10  1  0
  2 11  1  0
  2 12  1  0
  3 13  1  0
  3 14  1  0
  6 15  1  0
  6 16  1  0
  7 17  1  0
  7 18  1  0
  8 19  1  0
M  END
$$$$
