
     RDKit          3D

 19 21  0  0  0  0  0  0  0  0999 V2000
   -3.1205    0.4402   -3.1572 C   0  0  0  0  0  0  0  0  0  0  0  0
   -1.8592    0.4258   -2.3603 C   0  0  0  0  0  0  0  0  0  0  0  0
   -0.7355   -0.2841   -2.9062 O   0  0  0  0  0  0  0  0  0  0  0  0
    0.1650    0.5915   -2.1572 C   0  0  0  0  0  0  0  0  0  0  0  0
   -1.0113    1.4869   -1.7184 C   0  0  0  0  0  0  0  0  0  0  0  0
   -1.7383    0.4626   -0.8490 C   0  0  0  0  0  0  0  0  0  0  0  0
   -0.7429   -0.5131   -0.2218 C   0  0  0  0  0  0  0  0  0  0  0  0
    0.6121   -0.1691   -0.9056 C   0  0  0  0  0  0  0  0  0  0  0  0
    1.4660    0.6244   -0.0968 O   0  0  0  0  0  0  0  0  0  0  0  0
   -3.8739    1.0654   -2.6693 H   0  0  0  0  0  0  0  0  0  0  0  0
   -2.9412    0.8290   -4.1644 H   0  0  0  0  0  0  0  0  0  0  0  0
   -3.5271   -0.5730   -3.2495 H   0  0  0  0  0  0  0  0  0  0  0  0
    0.9619    0.9991   -2.7802 H   0  0  0  0  0  0  0  0  0  0  0  0
   -1.0895    2.5648   -1.6849 H   0  0  0  0  0  0  0  0  0  0  0  0
   -2.6165    0.7841   -0.2998 H   0  0  0  0  0  0  0  0  0  0  0  0
   -0.6532   -0.3682    0.8589 H   0  0  0  0  0  0  0  0  0  0  0  0
   -1.0269   -1.5543   -0.3979 H   0  0  0  0  0  0  0  0  0  0  0  0
    1.1877   -1.0620   -1.1620 H   0  0  0  0  0  0  0  0  0  0  0  0
    0.9695    1.4066    0.1715 H   0  0  0  0  0  0  0  0  0  0  0  0
  1  2  1  0
  2  3  1  0
  3  4  1  0
  4  5  1  0
  5  6  1  0
  6  7  1  0
  7  8  1  0
  8  9  1  0
  5  2  1  0
  6  2  1  0
  8  4  1  0
  1 10  1  0
  1 11  1  0
  1 12  1  0
  4 13  1  0
  5 14  1  0
  6 15  1  0
  7 16  1  0
  7 17  1  0
  8 18  1  0
  9 19  1  0
M  END
$$$$
