gdb 3522	2.3246324	1.5212955	0.9697442	1.82	75.72	-0.23941	-0.03894	0.20047	1220.5459	0.154968	-422.615022	-422.605552	-422.604608	-422.649957	34.006
 OpenBabel02181911413D

 19 19  0  0  1  0  0  0  0  0999 V2000
   -0.8104    2.2079   -1.1823 C   0  0  0  0  0  0  0  0  0  0  0  0
   -0.9822    1.1804   -0.0630 C   0  0  1  0  0  0  0  0  0  0  0  0
   -2.3957    0.5978    0.1319 C   0  0  0  0  0  0  0  0  0  0  0  0
   -2.1697   -0.8251    0.6469 C   0  0  0  0  0  0  0  0  0  0  0  0
   -2.8873   -1.4331    1.3979 O   0  0  0  0  0  0  0  0  0  0  0  0
   -0.8463   -1.3283    0.0724 C   0  0  2  0  0  0  0  0  0  0  0  0
   -0.1075   -2.3840    0.8889 C   0  0  0  0  0  0  0  0  0  0  0  0
   -0.0641   -0.0457   -0.2255 C   0  0  0  0  0  0  0  0  0  0  0  0
    1.1011    0.0054   -0.5251 O   0  0  0  0  0  0  0  0  0  0  0  0
   -1.1644    1.8073   -2.1385 H   0  0  0  0  0  0  0  0  0  0  0  0
   -1.3744    3.1204   -0.9695 H   0  0  0  0  0  0  0  0  0  0  0  0
    0.2453    2.4666   -1.2942 H   0  0  0  0  0  0  0  0  0  0  0  0
   -0.6586    1.6382    0.8839 H   0  0  0  0  0  0  0  0  0  0  0  0
   -3.0390    1.1628    0.8088 H   0  0  0  0  0  0  0  0  0  0  0  0
   -2.9149    0.5276   -0.8343 H   0  0  0  0  0  0  0  0  0  0  0  0
   -1.0979   -1.7413   -0.9202 H   0  0  0  0  0  0  0  0  0  0  0  0
    0.1331   -2.0045    1.8861 H   0  0  0  0  0  0  0  0  0  0  0  0
   -0.7282   -3.2742    1.0102 H   0  0  0  0  0  0  0  0  0  0  0  0
    0.8265   -2.6563    0.3927 H   0  0  0  0  0  0  0  0  0  0  0  0
  1 11  1  0  0  0  0
  1  2  1  0  0  0  0
  2  3  1  0  0  0  0
  2 13  1  1  0  0  0
  3  4  1  0  0  0  0
  3 14  1  0  0  0  0
  4  5  2  0  0  0  0
  6 16  1  6  0  0  0
  6  4  1  0  0  0  0
  6  7  1  0  0  0  0
  7 18  1  0  0  0  0
  7 17  1  0  0  0  0
  8  2  1  0  0  0  0
  8  6  1  0  0  0  0
  9  8  2  0  0  0  0
 10  1  1  0  0  0  0
 12  1  1  0  0  0  0
 15  3  1  0  0  0  0
 19  7  1  0  0  0  0
M TOR 0 0 1 2 3
M TOR 1 0 1 2 13
M TOR 2 0 1 2 14
M TOR 3 0 1 7 5
M TOR 4 0 1 7 8
M TOR 5 1 2 3 4
M TOR 6 1 2 3 5
M TOR 7 1 7 5 3
M TOR 8 1 7 5 6
M TOR 9 1 7 5 15
M TOR 10 2 1 0 9
M TOR 11 2 1 0 10
M TOR 12 2 1 0 11
M TOR 13 2 1 7 5
M TOR 14 2 1 7 8
M TOR 15 2 3 5 6
M TOR 16 2 3 5 7
M TOR 17 2 3 5 15
M TOR 18 3 2 1 7
M TOR 19 3 2 1 12
M TOR 20 3 5 6 16
M TOR 21 3 5 6 17
M TOR 22 3 5 6 18
M TOR 23 3 5 7 8
M TOR 24 4 3 2 13
M TOR 25 4 3 2 14
M TOR 26 4 3 5 6
M TOR 27 4 3 5 7
M TOR 28 4 3 5 15
M TOR 29 5 3 2 13
M TOR 30 5 3 2 14
M TOR 31 5 7 1 12
M TOR 32 6 5 7 8
M TOR 33 7 1 0 9
M TOR 34 7 1 0 10
M TOR 35 7 1 0 11
M TOR 36 7 1 2 13
M TOR 37 7 1 2 14
M TOR 38 7 5 6 16
M TOR 39 7 5 6 17
M TOR 40 7 5 6 18
M TOR 41 8 7 1 12
M TOR 42 8 7 5 15
M  END
$$$$
