
     RDKit          3D

 19 20  0  0  0  0  0  0  0  0999 V2000
    0.9964   -0.6992   -0.5223 O   0  0  0  0  0  0  0  0  0  0  0  0
    0.1831    0.0163    0.0063 C   0  0  0  0  0  0  0  0  0  0  0  0
   -0.4534    1.2222   -0.6182 C   0  0  0  0  0  0  0  0  0  0  0  0
   -0.4684    2.5421    0.2234 C   0  0  0  0  0  0  0  0  0  0  0  0
   -1.8086    2.8459   -0.4957 C   0  0  0  0  0  0  0  0  0  0  0  0
   -2.0202    1.3091   -0.5781 C   0  0  0  0  0  0  0  0  0  0  0  0
   -1.5648    3.4332   -1.7622 O   0  0  0  0  0  0  0  0  0  0  0  0
   -0.9310    2.5516   -2.6918 C   0  0  0  0  0  0  0  0  0  0  0  0
    0.0486    1.5611   -2.0285 C   0  0  0  0  0  0  0  0  0  0  0  0
   -0.1665   -0.1840    1.0479 H   0  0  0  0  0  0  0  0  0  0  0  0
   -0.6065    2.3482    1.2916 H   0  0  0  0  0  0  0  0  0  0  0  0
    0.3535    3.2442    0.0666 H   0  0  0  0  0  0  0  0  0  0  0  0
   -2.5557    3.4689   -0.0008 H   0  0  0  0  0  0  0  0  0  0  0  0
   -2.4169    0.9207    0.3638 H   0  0  0  0  0  0  0  0  0  0  0  0
   -2.5875    0.8895   -1.4111 H   0  0  0  0  0  0  0  0  0  0  0  0
   -1.7030    1.9897   -3.2357 H   0  0  0  0  0  0  0  0  0  0  0  0
   -0.4237    3.1891   -3.4207 H   0  0  0  0  0  0  0  0  0  0  0  0
    0.1274    0.6547   -2.6365 H   0  0  0  0  0  0  0  0  0  0  0  0
    1.0568    1.9826   -1.9560 H   0  0  0  0  0  0  0  0  0  0  0  0
  1  2  2  0
  2  3  1  0
  3  4  1  0
  4  5  1  0
  5  6  1  0
  5  7  1  0
  7  8  1  0
  8  9  1  0
  6  3  1  0
  9  3  1  0
  2 10  1  0
  4 11  1  0
  4 12  1  0
  5 13  1  0
  6 14  1  0
  6 15  1  0
  8 16  1  0
  8 17  1  0
  9 18  1  0
  9 19  1  0
M  END
$$$$
