gdb 2103	2.7410992	1.6349899	1.2207828	0.5207	75.57	-0.21228	0.07019	0.28247	1073.0149	0.154444	-422.507163	-422.498344	-422.4974	-422.539724	34.256
 OpenBabel02181911403D

 19 21  0  0  1  0  0  0  0  0999 V2000
    4.2585   -1.8078    0.5877 C   0  0  0  0  0  0  0  0  0  0  0  0
    3.1732   -0.8419    0.2614 C   0  0  2  0  0  0  0  0  0  0  0  0
    2.0275   -1.2692   -0.4813 O   0  0  0  0  0  0  0  0  0  0  0  0
    1.4071    0.0074   -0.1107 C   0  0  2  0  0  0  0  0  0  0  0  0
   -0.0870   -0.0356   -0.0402 C   0  0  0  0  0  0  0  0  0  0  0  0
    2.2052    1.0417   -0.9573 C   0  0  0  0  0  0  0  0  0  0  0  0
    3.3718    0.6629   -0.0446 C   0  0  2  0  0  0  0  0  0  0  0  0
    4.5682    1.3218    0.1470 O   0  0  0  0  0  0  0  0  0  0  0  0
    2.4453    0.1929    1.0642 C   0  0  2  0  0  0  0  0  0  0  0  0
    3.8947   -2.6181    1.2269 H   0  0  0  0  0  0  0  0  0  0  0  0
    4.6657   -2.2540   -0.3268 H   0  0  0  0  0  0  0  0  0  0  0  0
    5.0689   -1.2897    1.1087 H   0  0  0  0  0  0  0  0  0  0  0  0
   -0.4191   -0.7974    0.6706 H   0  0  0  0  0  0  0  0  0  0  0  0
   -0.4860    0.9345    0.2707 H   0  0  0  0  0  0  0  0  0  0  0  0
   -0.5018   -0.2795   -1.0243 H   0  0  0  0  0  0  0  0  0  0  0  0
    2.2692    0.8428   -2.0325 H   0  0  0  0  0  0  0  0  0  0  0  0
    1.8724    2.0657   -0.7668 H   0  0  0  0  0  0  0  0  0  0  0  0
    5.1735    1.0650   -0.5582 H   0  0  0  0  0  0  0  0  0  0  0  0
    2.3686    0.4220    2.1184 H   0  0  0  0  0  0  0  0  0  0  0  0
  1 12  1  0  0  0  0
  1 10  1  0  0  0  0
  2  1  1  1  0  0  0
  2  9  1  0  0  0  0
  3  4  1  0  0  0  0
  3  2  1  0  0  0  0
  4  5  1  1  0  0  0
  4  9  1  0  0  0  0
  5 14  1  0  0  0  0
  5 13  1  0  0  0  0
  6 17  1  0  0  0  0
  6  4  1  0  0  0  0
  6  7  1  0  0  0  0
  7  8  1  1  0  0  0
  7  2  1  0  0  0  0
  7  9  1  0  0  0  0
  9 19  1  1  0  0  0
 11  1  1  0  0  0  0
 15  5  1  0  0  0  0
 16  6  1  0  0  0  0
 18  8  1  0  0  0  0
M TOR 0 0 1 2 3
M TOR 1 0 1 6 5
M TOR 2 0 1 6 7
M TOR 3 0 1 6 8
M TOR 4 0 1 8 3
M TOR 5 0 1 8 18
M TOR 6 1 2 3 4
M TOR 7 1 2 3 5
M TOR 8 1 2 3 8
M TOR 9 1 6 5 3
M TOR 10 1 6 5 15
M TOR 11 1 6 5 16
M TOR 12 1 6 7 17
M TOR 13 1 6 8 3
M TOR 14 1 6 8 18
M TOR 15 1 8 3 4
M TOR 16 1 8 3 5
M TOR 17 1 8 6 5
M TOR 18 1 8 6 7
M TOR 19 2 1 0 9
M TOR 20 2 1 0 10
M TOR 21 2 1 0 11
M TOR 22 2 1 6 5
M TOR 23 2 1 6 7
M TOR 24 2 1 6 8
M TOR 25 2 1 8 18
M TOR 26 2 3 4 12
M TOR 27 2 3 4 13
M TOR 28 2 3 4 14
M TOR 29 2 3 5 6
M TOR 30 2 3 5 15
M TOR 31 2 3 5 16
M TOR 32 2 3 8 6
M TOR 33 2 3 8 18
M TOR 34 3 2 1 6
M TOR 35 3 5 6 7
M TOR 36 3 5 6 8
M TOR 37 3 8 6 7
M TOR 38 4 3 5 6
M TOR 39 4 3 5 15
M TOR 40 4 3 5 16
M TOR 41 4 3 8 6
M TOR 42 4 3 8 18
M TOR 43 5 3 4 12
M TOR 44 5 3 4 13
M TOR 45 5 3 4 14
M TOR 46 5 3 8 18
M TOR 47 5 6 7 17
M TOR 48 5 6 8 18
M TOR 49 6 1 0 9
M TOR 50 6 1 0 10
M TOR 51 6 1 0 11
M TOR 52 7 6 5 15
M TOR 53 7 6 5 16
M TOR 54 7 6 8 18
M TOR 55 8 1 0 9
M TOR 56 8 1 0 10
M TOR 57 8 1 0 11
M TOR 58 8 3 4 12
M TOR 59 8 3 4 13
M TOR 60 8 3 4 14
M TOR 61 8 3 5 15
M TOR 62 8 3 5 16
M TOR 63 8 6 5 15
M TOR 64 8 6 5 16
M TOR 65 8 6 7 17
M  END
$$$$
