gdb 3476	2.3241816	1.7231294	1.3394427	2.617	75.1	-0.24855	-0.00638	0.24217	1035.963	0.157754	-422.552144	-422.543918	-422.542973	-422.584804	31.885
 OpenBabel02181911413D

 19 20  0  0  1  0  0  0  0  0999 V2000
    1.3622   -0.6183   -1.0346 C   0  0  0  0  0  0  0  0  0  0  0  0
    1.2353    0.1341    0.3046 C   0  0  1  0  0  0  0  0  0  0  0  0
    1.8568   -0.6701    1.4245 C   0  0  0  0  0  0  0  0  0  0  0  0
    3.1070   -0.4870    1.8514 C   0  0  0  0  0  0  0  0  0  0  0  0
    3.9730    0.5533    1.2431 C   0  0  2  0  0  0  0  0  0  0  0  0
    3.8022    1.9191    1.7029 O   0  0  0  0  0  0  0  0  0  0  0  0
    3.3507    1.5720    0.3863 C   0  0  2  0  0  0  0  0  0  0  0  0
    1.8182    1.5659    0.2323 C   0  0  2  0  0  0  0  0  0  0  0  0
    1.2291    2.3985    1.2119 O   0  0  0  0  0  0  0  0  0  0  0  0
    0.9368   -1.6240   -0.9622 H   0  0  0  0  0  0  0  0  0  0  0  0
    0.8355   -0.0853   -1.8333 H   0  0  0  0  0  0  0  0  0  0  0  0
    2.4120   -0.7270   -1.3275 H   0  0  0  0  0  0  0  0  0  0  0  0
    0.1699    0.2657    0.5247 H   0  0  0  0  0  0  0  0  0  0  0  0
    1.2467   -1.4552    1.8654 H   0  0  0  0  0  0  0  0  0  0  0  0
    3.5281   -1.0970    2.6451 H   0  0  0  0  0  0  0  0  0  0  0  0
    5.0189    0.2941    1.0849 H   0  0  0  0  0  0  0  0  0  0  0  0
    3.9310    2.0281   -0.4132 H   0  0  0  0  0  0  0  0  0  0  0  0
    1.5617    1.9919   -0.7453 H   0  0  0  0  0  0  0  0  0  0  0  0
    1.8520    2.4145    1.9523 H   0  0  0  0  0  0  0  0  0  0  0  0
  1 10  1  0  0  0  0
  1  2  1  0  0  0  0
  2 13  1  1  0  0  0
  2  3  1  0  0  0  0
  3  4  2  0  0  0  0
  3 14  1  0  0  0  0
  4 15  1  0  0  0  0
  5 16  1  6  0  0  0
  5  6  1  0  0  0  0
  5  4  1  0  0  0  0
  7 17  1  6  0  0  0
  7  5  1  0  0  0  0
  7  6  1  0  0  0  0
  8 18  1  6  0  0  0
  8  2  1  0  0  0  0
  8  7  1  0  0  0  0
  8  9  1  0  0  0  0
  9 19  1  0  0  0  0
 11  1  1  0  0  0  0
 12  1  1  0  0  0  0
M TOR 0 0 1 2 3
M TOR 1 0 1 2 13
M TOR 2 0 1 7 6
M TOR 3 0 1 7 8
M TOR 4 0 1 7 17
M TOR 5 1 2 3 4
M TOR 6 1 2 3 14
M TOR 7 1 7 6 4
M TOR 8 1 7 6 5
M TOR 9 1 7 6 16
M TOR 10 1 7 8 18
M TOR 11 2 1 0 9
M TOR 12 2 1 0 10
M TOR 13 2 1 0 11
M TOR 14 2 1 7 6
M TOR 15 2 1 7 8
M TOR 16 2 1 7 17
M TOR 17 2 3 4 5
M TOR 18 2 3 4 6
M TOR 19 2 3 4 15
M TOR 20 3 2 1 7
M TOR 21 3 2 1 12
M TOR 22 3 4 5 6
M TOR 23 3 4 6 7
M TOR 24 3 4 6 16
M TOR 25 4 3 2 13
M TOR 26 4 5 6 7
M TOR 27 4 5 6 16
M TOR 28 4 6 7 8
M TOR 29 4 6 7 17
M TOR 30 5 4 3 14
M TOR 31 5 6 4 15
M TOR 32 5 6 7 8
M TOR 33 5 6 7 17
M TOR 34 6 4 3 14
M TOR 35 6 7 1 12
M TOR 36 6 7 8 18
M TOR 37 7 1 0 9
M TOR 38 7 1 0 10
M TOR 39 7 1 0 11
M TOR 40 7 1 2 13
M TOR 41 7 6 4 15
M TOR 42 8 7 1 12
M TOR 43 8 7 6 16
M  END
$$$$
