gdb 159	3.1784025	1.7998472	1.4773855	3.0217	73.86	-0.24932	0.08222	0.33154	935.0197	0.160139	-422.537048	-422.530238	-422.529294	-422.568294	27.694
 OpenBabel02181911403D

 19 21  0  0  1  0  0  0  0  0999 V2000
   -0.2118   -0.8182    0.4509 C   0  0  0  0  0  0  0  0  0  0  0  0
    0.2329   -0.1758    1.7742 C   0  0  2  0  0  0  0  0  0  0  0  0
   -0.7679    0.9898    1.4558 C   0  0  0  0  0  0  0  0  0  0  0  0
   -0.2395    0.6894    0.0243 C   0  0  2  0  0  0  0  0  0  0  0  0
   -0.4719    1.1091   -1.4067 C   0  0  0  0  0  0  0  0  0  0  0  0
    0.9121    0.7091   -2.0240 C   0  0  0  0  0  0  0  0  0  0  0  0
    1.8680    0.5753   -0.9483 O   0  0  0  0  0  0  0  0  0  0  0  0
    1.2349    1.0329    0.2251 C   0  0  2  0  0  0  0  0  0  0  0  0
    1.5397    0.3529    1.4306 O   0  0  0  0  0  0  0  0  0  0  0  0
    0.5010   -1.4853   -0.0349 H   0  0  0  0  0  0  0  0  0  0  0  0
   -1.2154   -1.2480    0.4811 H   0  0  0  0  0  0  0  0  0  0  0  0
    0.2811   -0.6896    2.7323 H   0  0  0  0  0  0  0  0  0  0  0  0
   -1.8077    0.7045    1.6249 H   0  0  0  0  0  0  0  0  0  0  0  0
   -0.5561    1.9714    1.8873 H   0  0  0  0  0  0  0  0  0  0  0  0
   -1.3014    0.5988   -1.9014 H   0  0  0  0  0  0  0  0  0  0  0  0
   -0.6372    2.1884   -1.4905 H   0  0  0  0  0  0  0  0  0  0  0  0
    0.8562   -0.2523   -2.5456 H   0  0  0  0  0  0  0  0  0  0  0  0
    1.2692    1.4616   -2.7359 H   0  0  0  0  0  0  0  0  0  0  0  0
    1.4497    2.1038    0.3658 H   0  0  0  0  0  0  0  0  0  0  0  0
  1 11  1  0  0  0  0
  1  2  1  0  0  0  0
  2 12  1  1  0  0  0
  3 13  1  0  0  0  0
  3  2  1  0  0  0  0
  3 14  1  0  0  0  0
  4  5  1  6  0  0  0
  4  8  1  0  0  0  0
  4  1  1  0  0  0  0
  4  3  1  0  0  0  0
  6  5  1  0  0  0  0
  6  7  1  0  0  0  0
  7  8  1  0  0  0  0
  8 19  1  1  0  0  0
  8  9  1  0  0  0  0
  9  2  1  0  0  0  0
 10  1  1  0  0  0  0
 15  5  1  0  0  0  0
 16  5  1  0  0  0  0
 17  6  1  0  0  0  0
 18  6  1  0  0  0  0
M TOR 0 0 1 2 3
M TOR 1 0 1 2 12
M TOR 2 0 1 2 13
M TOR 3 0 1 8 7
M TOR 4 0 3 2 12
M TOR 5 0 3 2 13
M TOR 6 0 3 4 5
M TOR 7 0 3 4 14
M TOR 8 0 3 4 15
M TOR 9 0 3 7 6
M TOR 10 0 3 7 8
M TOR 11 0 3 7 18
M TOR 12 1 0 3 4
M TOR 13 1 0 3 7
M TOR 14 1 2 3 4
M TOR 15 1 2 3 7
M TOR 16 1 8 7 3
M TOR 17 1 8 7 6
M TOR 18 1 8 7 18
M TOR 19 2 1 0 9
M TOR 20 2 1 0 10
M TOR 21 2 1 8 7
M TOR 22 2 3 0 9
M TOR 23 2 3 0 10
M TOR 24 2 3 4 5
M TOR 25 2 3 4 14
M TOR 26 2 3 4 15
M TOR 27 2 3 7 6
M TOR 28 2 3 7 8
M TOR 29 2 3 7 18
M TOR 30 3 0 1 8
M TOR 31 3 0 1 11
M TOR 32 3 2 1 8
M TOR 33 3 2 1 11
M TOR 34 3 4 5 6
M TOR 35 3 4 5 16
M TOR 36 3 4 5 17
M TOR 37 3 7 6 5
M TOR 38 4 3 0 9
M TOR 39 4 3 0 10
M TOR 40 4 3 2 12
M TOR 41 4 3 2 13
M TOR 42 4 3 7 6
M TOR 43 4 3 7 8
M TOR 44 4 3 7 18
M TOR 45 4 5 6 7
M TOR 46 5 4 3 7
M TOR 47 5 6 7 8
M TOR 48 5 6 7 18
M TOR 49 6 5 4 14
M TOR 50 6 5 4 15
M TOR 51 7 3 0 9
M TOR 52 7 3 0 10
M TOR 53 7 3 2 12
M TOR 54 7 3 2 13
M TOR 55 7 3 4 14
M TOR 56 7 3 4 15
M TOR 57 7 6 5 16
M TOR 58 7 6 5 17
M TOR 59 7 8 1 11
M TOR 60 8 1 0 9
M TOR 61 8 1 0 10
M TOR 62 8 1 2 12
M TOR 63 8 1 2 13
M  END
$$$$
