gdb 1376	3.3919138	0.7519853	0.6563268	2.6303	78.92	-0.25918	-0.03146	0.22772000000000003	1687.9617	0.152809	-422.549781	-422.53915	-422.538206	-422.586379	37.322
 OpenBabel02181911403D

 19 18  0  0  1  0  0  0  0  0999 V2000
    5.2925    1.9672    3.0969 C   0  0  0  0  0  0  0  0  0  0  0  0
    5.4342    2.0156    1.5943 C   0  0  0  0  0  0  0  0  0  0  0  0
    6.0897    2.8661    1.0293 O   0  0  0  0  0  0  0  0  0  0  0  0
    4.7234    0.9538    0.7482 C   0  0  2  0  0  0  0  0  0  0  0  0
    5.0236    1.1533   -0.6065 O   0  0  0  0  0  0  0  0  0  0  0  0
    3.2010    0.9694    0.9801 C   0  0  0  0  0  0  0  0  0  0  0  0
    2.4891   -0.0642    0.0851 C   0  0  0  0  0  0  0  0  0  0  0  0
    1.0442   -0.0636    0.2717 C   0  0  0  0  0  0  0  0  0  0  0  0
   -0.1449   -0.0421    0.4471 C   0  0  0  0  0  0  0  0  0  0  0  0
    5.3340    0.9399    3.4707 H   0  0  0  0  0  0  0  0  0  0  0  0
    6.0739    2.5715    3.5594 H   0  0  0  0  0  0  0  0  0  0  0  0
    4.3175    2.3775    3.3845 H   0  0  0  0  0  0  0  0  0  0  0  0
    5.1120   -0.0281    1.0754 H   0  0  0  0  0  0  0  0  0  0  0  0
    5.5843    1.9472   -0.6258 H   0  0  0  0  0  0  0  0  0  0  0  0
    2.9775    0.7571    2.0309 H   0  0  0  0  0  0  0  0  0  0  0  0
    2.8133    1.9690    0.7543 H   0  0  0  0  0  0  0  0  0  0  0  0
    2.7372    0.1505   -0.9595 H   0  0  0  0  0  0  0  0  0  0  0  0
    2.8873   -1.0656    0.2970 H   0  0  0  0  0  0  0  0  0  0  0  0
   -1.1972   -0.0339    0.5875 H   0  0  0  0  0  0  0  0  0  0  0  0
  1 12  1  0  0  0  0
  1 10  1  0  0  0  0
  1 11  1  0  0  0  0
  2  1  1  0  0  0  0
  3  2  2  0  0  0  0
  4  6  1  0  0  0  0
  4 13  1  1  0  0  0
  4  2  1  0  0  0  0
  5  4  1  0  0  0  0
  6 15  1  0  0  0  0
  7  8  1  0  0  0  0
  7 18  1  0  0  0  0
  7  6  1  0  0  0  0
  8  9  3  0  0  0  0
  9 19  1  0  0  0  0
 14  5  1  0  0  0  0
 16  6  1  0  0  0  0
 17  7  1  0  0  0  0
M TOR 0 0 1 3 4
M TOR 1 0 1 3 5
M TOR 2 0 1 3 12
M TOR 3 1 3 4 13
M TOR 4 1 3 5 6
M TOR 5 1 3 5 14
M TOR 6 1 3 5 15
M TOR 7 2 1 0 9
M TOR 8 2 1 0 10
M TOR 9 2 1 0 11
M TOR 10 2 1 3 4
M TOR 11 2 1 3 5
M TOR 12 2 1 3 12
M TOR 13 3 1 0 9
M TOR 14 3 1 0 10
M TOR 15 3 1 0 11
M TOR 16 3 5 6 7
M TOR 17 3 5 6 16
M TOR 18 3 5 6 17
M TOR 19 4 3 5 6
M TOR 20 4 3 5 14
M TOR 21 4 3 5 15
M TOR 22 5 3 4 13
M TOR 23 5 6 7 8
M TOR 24 6 5 3 12
M TOR 25 6 7 8 18
M TOR 26 7 6 5 14
M TOR 27 7 6 5 15
M TOR 28 8 7 6 16
M TOR 29 8 7 6 17
M  END
$$$$
