gdb 2459	2.9133716	1.7925503	1.4249006	2.8667	73.16	-0.24892	0.08207	0.33099	967.924	0.159294	-422.563162	-422.555817	-422.554873	-422.594726	28.997
 OpenBabel02181911413D

 19 21  0  0  1  0  0  0  0  0999 V2000
    0.1633   -0.6143    0.1657 C   0  0  0  0  0  0  0  0  0  0  0  0
    1.5144    0.0222   -0.0599 C   0  0  1  0  0  0  0  0  0  0  0  0
    2.0675    0.0481   -1.4845 C   0  0  0  0  0  0  0  0  0  0  0  0
    3.4745   -0.1717   -1.3887 O   0  0  0  0  0  0  0  0  0  0  0  0
    3.8932    0.0996   -0.0649 C   0  0  1  0  0  0  0  0  0  0  0  0
    4.1891    1.4698    0.1159 O   0  0  0  0  0  0  0  0  0  0  0  0
    2.9776    2.1668    0.4175 C   0  0  0  0  0  0  0  0  0  0  0  0
    1.9861    1.1131    0.8936 C   0  0  2  0  0  0  0  0  0  0  0  0
    2.6958   -0.2128    0.8409 C   0  0  1  0  0  0  0  0  0  0  0  0
   -0.0965   -0.6258    1.2287 H   0  0  0  0  0  0  0  0  0  0  0  0
   -0.6268   -0.0661   -0.3603 H   0  0  0  0  0  0  0  0  0  0  0  0
    0.1474   -1.6489   -0.1952 H   0  0  0  0  0  0  0  0  0  0  0  0
    1.6345   -0.7600   -2.0856 H   0  0  0  0  0  0  0  0  0  0  0  0
    1.8640    0.9982   -1.9991 H   0  0  0  0  0  0  0  0  0  0  0  0
    4.8121   -0.4598    0.1118 H   0  0  0  0  0  0  0  0  0  0  0  0
    3.1892    2.8979    1.2053 H   0  0  0  0  0  0  0  0  0  0  0  0
    2.6255    2.7148   -0.4678 H   0  0  0  0  0  0  0  0  0  0  0  0
    1.3294    1.3620    1.7199 H   0  0  0  0  0  0  0  0  0  0  0  0
    2.7447   -0.9383    1.6426 H   0  0  0  0  0  0  0  0  0  0  0  0
  1 10  1  0  0  0  0
  2  1  1  1  0  0  0
  2  9  1  0  0  0  0
  2  8  1  0  0  0  0
  3  4  1  0  0  0  0
  3  2  1  0  0  0  0
  4  5  1  0  0  0  0
  5 15  1  1  0  0  0
  5  6  1  0  0  0  0
  5  9  1  0  0  0  0
  6  7  1  0  0  0  0
  7  8  1  0  0  0  0
  7 16  1  0  0  0  0
  8 18  1  1  0  0  0
  9  8  1  0  0  0  0
  9 19  1  1  0  0  0
 11  1  1  0  0  0  0
 12  1  1  0  0  0  0
 13  3  1  0  0  0  0
 14  3  1  0  0  0  0
 17  7  1  0  0  0  0
M TOR 0 0 1 2 3
M TOR 1 0 1 2 12
M TOR 2 0 1 2 13
M TOR 3 0 1 7 6
M TOR 4 0 1 7 8
M TOR 5 0 1 7 17
M TOR 6 0 1 8 4
M TOR 7 0 1 8 18
M TOR 8 1 2 3 4
M TOR 9 1 7 6 5
M TOR 10 1 7 6 15
M TOR 11 1 7 6 16
M TOR 12 1 7 8 4
M TOR 13 1 7 8 18
M TOR 14 1 8 4 3
M TOR 15 1 8 4 5
M TOR 16 1 8 4 14
M TOR 17 1 8 7 6
M TOR 18 1 8 7 17
M TOR 19 2 1 0 9
M TOR 20 2 1 0 10
M TOR 21 2 1 0 11
M TOR 22 2 1 7 6
M TOR 23 2 1 7 8
M TOR 24 2 1 7 17
M TOR 25 2 1 8 4
M TOR 26 2 1 8 18
M TOR 27 2 3 4 5
M TOR 28 2 3 4 8
M TOR 29 2 3 4 14
M TOR 30 3 2 1 7
M TOR 31 3 2 1 8
M TOR 32 3 4 5 6
M TOR 33 3 4 8 7
M TOR 34 3 4 8 18
M TOR 35 4 3 2 12
M TOR 36 4 3 2 13
M TOR 37 4 5 6 7
M TOR 38 4 5 6 15
M TOR 39 4 5 6 16
M TOR 40 4 8 7 6
M TOR 41 4 8 7 17
M TOR 42 5 4 8 7
M TOR 43 5 4 8 18
M TOR 44 5 6 7 8
M TOR 45 5 6 7 17
M TOR 46 6 5 4 8
M TOR 47 6 5 4 14
M TOR 48 6 7 8 18
M TOR 49 7 1 0 9
M TOR 50 7 1 0 10
M TOR 51 7 1 0 11
M TOR 52 7 1 2 12
M TOR 53 7 1 2 13
M TOR 54 7 8 4 14
M TOR 55 8 1 0 9
M TOR 56 8 1 0 10
M TOR 57 8 1 0 11
M TOR 58 8 1 2 12
M TOR 59 8 1 2 13
M TOR 60 8 7 6 15
M TOR 61 8 7 6 16
M  END
$$$$
