
     RDKit          3D

 19 20  0  0  0  0  0  0  0  0999 V2000
   -0.0985   -0.1995    0.0874 C   0  0  0  0  0  0  0  0  0  0  0  0
    1.4090   -0.0107    0.0878 C   0  0  0  0  0  0  0  0  0  0  0  0
    2.0418   -0.6361   -1.0646 O   0  0  0  0  0  0  0  0  0  0  0  0
    3.1246   -1.3665   -0.4617 C   0  0  0  0  0  0  0  0  0  0  0  0
    3.6706   -0.4108    0.6219 C   0  0  0  0  0  0  0  0  0  0  0  0
    2.2416   -0.6583    1.2054 C   0  0  0  0  0  0  0  0  0  0  0  0
    2.4271   -2.1456    0.6873 C   0  0  0  0  0  0  0  0  0  0  0  0
    1.2892   -3.0744    0.3629 C   0  0  0  0  0  0  0  0  0  0  0  0
    0.8952   -3.9347    1.1135 O   0  0  0  0  0  0  0  0  0  0  0  0
   -0.5500    0.4206    0.8688 H   0  0  0  0  0  0  0  0  0  0  0  0
   -0.5096    0.1174   -0.8757 H   0  0  0  0  0  0  0  0  0  0  0  0
   -0.4004   -1.2347    0.2608 H   0  0  0  0  0  0  0  0  0  0  0  0
    1.6197    1.0673    0.0499 H   0  0  0  0  0  0  0  0  0  0  0  0
    3.7287   -1.8352   -1.2368 H   0  0  0  0  0  0  0  0  0  0  0  0
    4.4672   -0.8471    1.2254 H   0  0  0  0  0  0  0  0  0  0  0  0
    3.9239    0.6052    0.3103 H   0  0  0  0  0  0  0  0  0  0  0  0
    1.9728   -0.4437    2.2383 H   0  0  0  0  0  0  0  0  0  0  0  0
    3.1246   -2.6656    1.3473 H   0  0  0  0  0  0  0  0  0  0  0  0
    0.8460   -2.9447   -0.6465 H   0  0  0  0  0  0  0  0  0  0  0  0
  1  2  1  0
  2  3  1  0
  3  4  1  0
  4  5  1  0
  5  6  1  0
  6  7  1  0
  7  8  1  0
  8  9  2  0
  6  2  1  0
  7  4  1  0
  1 10  1  0
  1 11  1  0
  1 12  1  0
  2 13  1  0
  4 14  1  0
  5 15  1  0
  5 16  1  0
  6 17  1  0
  7 18  1  0
  8 19  1  0
M  END
$$$$
