gdb 5878	4.155908	0.5204916	0.503745	2.6937	81.76	-0.2385	-0.01502	0.22347999999999998	2177.076	0.153241	-422.54547	-422.534361	-422.533416	-422.584454	37.193
 OpenBabel02181911423D

 19 18  0  0  0  0  0  0  0  0999 V2000
   -0.0792   -1.1140   -4.2161 C   0  0  0  0  0  0  0  0  0  0  0  0
   -0.7685   -2.1794   -3.3927 C   0  0  0  0  0  0  0  0  0  0  0  0
   -1.7893   -2.7196   -3.7408 O   0  0  0  0  0  0  0  0  0  0  0  0
   -0.0877   -2.6063   -2.0737 C   0  0  0  0  0  0  0  0  0  0  0  0
    0.5931   -1.5492   -1.3398 C   0  0  0  0  0  0  0  0  0  0  0  0
    1.1592   -0.6715   -0.7390 C   0  0  0  0  0  0  0  0  0  0  0  0
    1.7946    0.4108    0.0018 C   0  0  0  0  0  0  0  0  0  0  0  0
    0.7772    1.4375    0.5406 C   0  0  0  0  0  0  0  0  0  0  0  0
    1.4105    2.5071    1.2152 O   0  0  0  0  0  0  0  0  0  0  0  0
   -0.0978   -0.1624   -3.6752 H   0  0  0  0  0  0  0  0  0  0  0  0
    0.9768   -1.3641   -4.3653 H   0  0  0  0  0  0  0  0  0  0  0  0
   -0.5836   -1.0075   -5.1768 H   0  0  0  0  0  0  0  0  0  0  0  0
   -0.8550   -3.0944   -1.4646 H   0  0  0  0  0  0  0  0  0  0  0  0
    0.6334   -3.3915   -2.3484 H   0  0  0  0  0  0  0  0  0  0  0  0
    2.3667   -0.0010    0.8451 H   0  0  0  0  0  0  0  0  0  0  0  0
    2.5174    0.9401   -0.6309 H   0  0  0  0  0  0  0  0  0  0  0  0
    0.2326    1.8833   -0.2968 H   0  0  0  0  0  0  0  0  0  0  0  0
    0.0399    0.9266    1.1763 H   0  0  0  0  0  0  0  0  0  0  0  0
    1.7764    2.1674    2.0380 H   0  0  0  0  0  0  0  0  0  0  0  0
  1 10  1  0  0  0  0
  1  2  1  0  0  0  0
  2  4  1  0  0  0  0
  3  2  2  0  0  0  0
  4 13  1  0  0  0  0
  4  5  1  0  0  0  0
  5  6  3  0  0  0  0
  6  7  1  0  0  0  0
  7  8  1  0  0  0  0
  7 15  1  0  0  0  0
  8 18  1  0  0  0  0
  8  9  1  0  0  0  0
  9 19  1  0  0  0  0
 11  1  1  0  0  0  0
 12  1  1  0  0  0  0
 14  4  1  0  0  0  0
 16  7  1  0  0  0  0
 17  8  1  0  0  0  0
M TOR 0 0 1 3 4
M TOR 1 0 1 3 12
M TOR 2 0 1 3 13
M TOR 3 1 3 4 5
M TOR 4 2 1 0 9
M TOR 5 2 1 0 10
M TOR 6 2 1 0 11
M TOR 7 2 1 3 4
M TOR 8 2 1 3 12
M TOR 9 2 1 3 13
M TOR 10 3 1 0 9
M TOR 11 3 1 0 10
M TOR 12 3 1 0 11
M TOR 13 3 4 5 6
M TOR 14 4 5 6 7
M TOR 15 4 5 6 14
M TOR 16 4 5 6 15
M TOR 17 5 4 3 12
M TOR 18 5 4 3 13
M TOR 19 5 6 7 8
M TOR 20 5 6 7 16
M TOR 21 5 6 7 17
M TOR 22 6 7 8 18
M TOR 23 8 7 6 14
M TOR 24 8 7 6 15
M  END
$$$$
