
     RDKit          3D

 19 19  0  0  0  0  0  0  0  0999 V2000
    0.9601    2.0553    1.0237 C   0  0  0  0  0  0  0  0  0  0  0  0
    0.6781    0.6175    0.5926 C   0  0  0  0  0  0  0  0  0  0  0  0
    1.3959   -0.3920    1.4824 C   0  0  0  0  0  0  0  0  0  0  0  0
    1.7430   -1.4902    1.1315 O   0  0  0  0  0  0  0  0  0  0  0  0
   -0.8368    0.2985    0.6088 C   0  0  0  0  0  0  0  0  0  0  0  0
   -1.6320    1.0900    1.0666 O   0  0  0  0  0  0  0  0  0  0  0  0
   -1.2397   -1.0053    0.0221 C   0  0  0  0  0  0  0  0  0  0  0  0
   -2.5412   -1.0319   -0.7740 C   0  0  0  0  0  0  0  0  0  0  0  0
   -2.4992   -1.6610    0.5733 C   0  0  0  0  0  0  0  0  0  0  0  0
    0.6091    2.2289    2.0444 H   0  0  0  0  0  0  0  0  0  0  0  0
    2.0314    2.2730    0.9793 H   0  0  0  0  0  0  0  0  0  0  0  0
    0.4334    2.7602    0.3774 H   0  0  0  0  0  0  0  0  0  0  0  0
    1.0245    0.4180   -0.4288 H   0  0  0  0  0  0  0  0  0  0  0  0
    1.5689   -0.0376    2.5236 H   0  0  0  0  0  0  0  0  0  0  0  0
   -0.4350   -1.6537   -0.3001 H   0  0  0  0  0  0  0  0  0  0  0  0
   -3.0539   -0.0814   -0.8670 H   0  0  0  0  0  0  0  0  0  0  0  0
   -2.5628   -1.6653   -1.6531 H   0  0  0  0  0  0  0  0  0  0  0  0
   -2.9838   -1.1336    1.3867 H   0  0  0  0  0  0  0  0  0  0  0  0
   -2.4903   -2.7418    0.6507 H   0  0  0  0  0  0  0  0  0  0  0  0
  1  2  1  0
  2  3  1  0
  3  4  2  0
  2  5  1  0
  5  6  2  0
  5  7  1  0
  7  8  1  0
  8  9  1  0
  9  7  1  0
  1 10  1  0
  1 11  1  0
  1 12  1  0
  2 13  1  0
  3 14  1  0
  7 15  1  0
  8 16  1  0
  8 17  1  0
  9 18  1  0
  9 19  1  0
M  END
$$$$
