gdb 901	3.1737376	1.0994253	0.9926557	2.6941	75.53	-0.25107	-0.02692	0.22415000000000002	1242.9886	0.156754	-422.556909	-422.54843	-422.547486	-422.590802	31.17
 OpenBabel02181911403D

 19 20  0  0  1  0  0  0  0  0999 V2000
    0.4854   -0.8812    0.2381 O   0  0  0  0  0  0  0  0  0  0  0  0
    0.4436    0.2936   -0.0188 C   0  0  0  0  0  0  0  0  0  0  0  0
   -0.3177    0.9018   -1.1822 C   0  0  0  0  0  0  0  0  0  0  0  0
   -1.1572    2.0946   -0.7787 C   0  0  2  0  0  0  0  0  0  0  0  0
   -1.3960    3.2467   -1.7242 C   0  0  0  0  0  0  0  0  0  0  0  0
   -0.5919    3.4674   -0.4681 C   0  0  1  0  0  0  0  0  0  0  0  0
   -1.3723    3.9708    0.7320 C   0  0  0  0  0  0  0  0  0  0  0  0
   -2.5643    3.1893    0.7628 O   0  0  0  0  0  0  0  0  0  0  0  0
   -2.2608    1.8961    0.2554 C   0  0  0  0  0  0  0  0  0  0  0  0
    0.9941    1.0380    0.6031 H   0  0  0  0  0  0  0  0  0  0  0  0
    0.4320    1.2234   -1.9192 H   0  0  0  0  0  0  0  0  0  0  0  0
   -0.9187    0.1151   -1.6508 H   0  0  0  0  0  0  0  0  0  0  0  0
   -0.8573    3.2340   -2.6656 H   0  0  0  0  0  0  0  0  0  0  0  0
   -2.3938    3.6713   -1.7749 H   0  0  0  0  0  0  0  0  0  0  0  0
    0.4691    3.6795   -0.5342 H   0  0  0  0  0  0  0  0  0  0  0  0
   -0.7820    3.8376    1.6534 H   0  0  0  0  0  0  0  0  0  0  0  0
   -1.6767    5.0205    0.6658 H   0  0  0  0  0  0  0  0  0  0  0  0
   -1.9090    1.2238    1.0569 H   0  0  0  0  0  0  0  0  0  0  0  0
   -3.1874    1.4796   -0.1543 H   0  0  0  0  0  0  0  0  0  0  0  0
  2  1  2  0  0  0  0
  2 10  1  0  0  0  0
  3  2  1  0  0  0  0
  4  3  1  6  0  0  0
  4  6  1  0  0  0  0
  4  9  1  0  0  0  0
  5  4  1  0  0  0  0
  5  6  1  0  0  0  0
  6 15  1  6  0  0  0
  6  7  1  0  0  0  0
  7  8  1  0  0  0  0
  7 16  1  0  0  0  0
  9  8  1  0  0  0  0
  9 18  1  0  0  0  0
 11  3  1  0  0  0  0
 12  3  1  0  0  0  0
 13  5  1  0  0  0  0
 14  5  1  0  0  0  0
 17  7  1  0  0  0  0
 19  9  1  0  0  0  0
M TOR 0 0 1 2 3
M TOR 1 0 1 2 10
M TOR 2 0 1 2 11
M TOR 3 1 2 3 4
M TOR 4 1 2 3 5
M TOR 5 1 2 3 8
M TOR 6 2 3 4 5
M TOR 7 2 3 4 12
M TOR 8 2 3 4 13
M TOR 9 2 3 5 6
M TOR 10 2 3 5 14
M TOR 11 2 3 8 7
M TOR 12 2 3 8 17
M TOR 13 2 3 8 18
M TOR 14 3 2 1 9
M TOR 15 3 4 5 6
M TOR 16 3 4 5 14
M TOR 17 3 5 4 12
M TOR 18 3 5 4 13
M TOR 19 3 5 6 7
M TOR 20 3 5 6 15
M TOR 21 3 5 6 16
M TOR 22 3 8 7 6
M TOR 23 4 3 2 10
M TOR 24 4 3 2 11
M TOR 25 4 3 8 7
M TOR 26 4 3 8 17
M TOR 27 4 3 8 18
M TOR 28 4 5 3 8
M TOR 29 4 5 6 7
M TOR 30 4 5 6 15
M TOR 31 4 5 6 16
M TOR 32 5 3 2 10
M TOR 33 5 3 2 11
M TOR 34 5 3 8 7
M TOR 35 5 3 8 17
M TOR 36 5 3 8 18
M TOR 37 5 6 7 8
M TOR 38 6 5 3 8
M TOR 39 6 5 4 12
M TOR 40 6 5 4 13
M TOR 41 6 7 8 17
M TOR 42 6 7 8 18
M TOR 43 7 6 5 14
M TOR 44 8 3 2 10
M TOR 45 8 3 2 11
M TOR 46 8 3 4 12
M TOR 47 8 3 4 13
M TOR 48 8 3 5 14
M TOR 49 8 7 6 15
M TOR 50 8 7 6 16
M  END
$$$$
