
     RDKit          3D

 19 20  0  0  0  0  0  0  0  0999 V2000
   -0.3289    1.4710    0.2711 C   0  0  0  0  0  0  0  0  0  0  0  0
    0.1170    0.0425   -0.0137 C   0  0  0  0  0  0  0  0  0  0  0  0
   -1.0014   -0.8506   -0.2184 O   0  0  0  0  0  0  0  0  0  0  0  0
   -1.3676   -1.5167    1.0051 C   0  0  0  0  0  0  0  0  0  0  0  0
   -0.2935   -1.1327    1.9652 C   0  0  0  0  0  0  0  0  0  0  0  0
   -0.1250   -0.8218    3.2428 C   0  0  0  0  0  0  0  0  0  0  0  0
    1.1952   -0.0958    3.3876 C   0  0  0  0  0  0  0  0  0  0  0  0
    1.6147    0.1917    2.0454 O   0  0  0  0  0  0  0  0  0  0  0  0
    0.8693   -0.6236    1.1606 C   0  0  0  0  0  0  0  0  0  0  0  0
    0.5406    2.1299    0.3515 H   0  0  0  0  0  0  0  0  0  0  0  0
   -0.9708    1.8271   -0.5390 H   0  0  0  0  0  0  0  0  0  0  0  0
   -0.8870    1.5329    1.2101 H   0  0  0  0  0  0  0  0  0  0  0  0
    0.6916    0.0080   -0.9444 H   0  0  0  0  0  0  0  0  0  0  0  0
   -2.3639   -1.1970    1.3362 H   0  0  0  0  0  0  0  0  0  0  0  0
   -1.4091   -2.5961    0.8065 H   0  0  0  0  0  0  0  0  0  0  0  0
   -0.8080   -0.9805    4.0677 H   0  0  0  0  0  0  0  0  0  0  0  0
    1.0936    0.8487    3.9384 H   0  0  0  0  0  0  0  0  0  0  0  0
    1.9624   -0.6962    3.9043 H   0  0  0  0  0  0  0  0  0  0  0  0
    1.5000   -1.4385    0.7678 H   0  0  0  0  0  0  0  0  0  0  0  0
  1  2  1  0
  2  3  1  0
  3  4  1  0
  4  5  1  0
  5  6  2  0
  6  7  1  0
  7  8  1  0
  8  9  1  0
  9  2  1  0
  9  5  1  0
  1 10  1  0
  1 11  1  0
  1 12  1  0
  2 13  1  0
  4 14  1  0
  4 15  1  0
  6 16  1  0
  7 17  1  0
  7 18  1  0
  9 19  1  0
M  END
$$$$
