
     RDKit          3D

 19 20  0  0  0  0  0  0  0  0999 V2000
    0.0004    0.3766   -0.0083 C   0  0  0  0  0  0  0  0  0  0  0  0
    1.4773    0.1086   -0.0435 C   0  0  0  0  0  0  0  0  0  0  0  0
    2.5503    1.0968    0.4804 C   0  0  0  0  0  0  0  0  0  0  0  0
    3.2615   -0.2702    0.6867 C   0  0  0  0  0  0  0  0  0  0  0  0
    3.5470   -0.7447   -0.7537 C   0  0  0  0  0  0  0  0  0  0  0  0
    2.1261   -0.4588   -1.3307 C   0  0  0  0  0  0  0  0  0  0  0  0
    1.9549   -0.8547    0.9667 O   0  0  0  0  0  0  0  0  0  0  0  0
    4.2795   -0.4524    1.7696 C   0  0  0  0  0  0  0  0  0  0  0  0
    5.4694   -0.4093    1.5822 O   0  0  0  0  0  0  0  0  0  0  0  0
   -0.3109    0.7312    0.9779 H   0  0  0  0  0  0  0  0  0  0  0  0
   -0.2653    1.1352   -0.7519 H   0  0  0  0  0  0  0  0  0  0  0  0
   -0.5584   -0.5360   -0.2399 H   0  0  0  0  0  0  0  0  0  0  0  0
    3.0010    1.8238   -0.1992 H   0  0  0  0  0  0  0  0  0  0  0  0
    2.2551    1.5528    1.4266 H   0  0  0  0  0  0  0  0  0  0  0  0
    4.3474   -0.1762   -1.2305 H   0  0  0  0  0  0  0  0  0  0  0  0
    3.8115   -1.8032   -0.7735 H   0  0  0  0  0  0  0  0  0  0  0  0
    2.1240    0.2589   -2.1556 H   0  0  0  0  0  0  0  0  0  0  0  0
    1.6134   -1.3663   -1.6574 H   0  0  0  0  0  0  0  0  0  0  0  0
    3.8432   -0.6055    2.7813 H   0  0  0  0  0  0  0  0  0  0  0  0
  1  2  1  0
  2  3  1  0
  3  4  1  0
  4  5  1  0
  5  6  1  0
  4  7  1  0
  4  8  1  0
  8  9  2  0
  6  2  1  0
  7  2  1  0
  1 10  1  0
  1 11  1  0
  1 12  1  0
  3 13  1  0
  3 14  1  0
  5 15  1  0
  5 16  1  0
  6 17  1  0
  6 18  1  0
  8 19  1  0
M  END
$$$$
