gdb 5467	3.7573995	1.0933633	0.9942113	0.5647	75.25	-0.23226	0.0646	0.29686	1241.4848	0.155471	-422.471816	-422.463301	-422.462357	-422.50491	32.369
 OpenBabel02181911423D

 19 21  0  0  1  0  0  0  0  0999 V2000
    5.0268   -2.8168   -1.4792 C   0  0  0  0  0  0  0  0  0  0  0  0
    4.0284   -2.7965   -0.3684 C   0  0  1  0  0  0  0  0  0  0  0  0
    4.2376   -3.6608    0.7962 O   0  0  0  0  0  0  0  0  0  0  0  0
    2.9953   -2.9598    1.0828 C   0  0  1  0  0  0  0  0  0  0  0  0
    3.4637   -1.6009    0.4760 C   0  0  2  0  0  0  0  0  0  0  0  0
    2.2121   -1.4767   -0.4255 C   0  0  2  0  0  0  0  0  0  0  0  0
    0.9241   -0.9418    0.1787 C   0  0  0  0  0  0  0  0  0  0  0  0
   -0.1980   -1.1401   -0.6701 O   0  0  0  0  0  0  0  0  0  0  0  0
    2.4738   -3.0044   -0.3874 C   0  0  1  0  0  0  0  0  0  0  0  0
    5.1003   -3.8198   -1.9105 H   0  0  0  0  0  0  0  0  0  0  0  0
    4.7316   -2.1196   -2.2695 H   0  0  0  0  0  0  0  0  0  0  0  0
    6.0152   -2.5257   -1.1106 H   0  0  0  0  0  0  0  0  0  0  0  0
    2.4866   -3.1759    2.0205 H   0  0  0  0  0  0  0  0  0  0  0  0
    4.0466   -0.8277    0.9777 H   0  0  0  0  0  0  0  0  0  0  0  0
    2.3874   -1.0099   -1.4013 H   0  0  0  0  0  0  0  0  0  0  0  0
    0.7551   -1.3842    1.1743 H   0  0  0  0  0  0  0  0  0  0  0  0
    0.9970    0.1426    0.3182 H   0  0  0  0  0  0  0  0  0  0  0  0
   -0.2959   -2.0880   -0.8071 H   0  0  0  0  0  0  0  0  0  0  0  0
    1.9421   -3.8285   -0.8664 H   0  0  0  0  0  0  0  0  0  0  0  0
  1 12  1  0  0  0  0
  2  1  1  6  0  0  0
  2  5  1  0  0  0  0
  2  3  1  0  0  0  0
  3  4  1  0  0  0  0
  4 13  1  1  0  0  0
  5 14  1  1  0  0  0
  5  4  1  0  0  0  0
  6 15  1  6  0  0  0
  6  9  1  0  0  0  0
  6  7  1  0  0  0  0
  6  5  1  0  0  0  0
  7 17  1  0  0  0  0
  7 16  1  0  0  0  0
  8  7  1  0  0  0  0
  9 19  1  6  0  0  0
  9  2  1  0  0  0  0
  9  4  1  0  0  0  0
 10  1  1  0  0  0  0
 11  1  1  0  0  0  0
 18  8  1  0  0  0  0
M TOR 0 0 1 2 3
M TOR 1 0 1 4 3
M TOR 2 0 1 4 5
M TOR 3 0 1 4 13
M TOR 4 0 1 8 3
M TOR 5 0 1 8 5
M TOR 6 0 1 8 18
M TOR 7 1 2 3 4
M TOR 8 1 2 3 8
M TOR 9 1 2 3 12
M TOR 10 1 4 3 8
M TOR 11 1 4 3 12
M TOR 12 1 4 5 6
M TOR 13 1 4 5 8
M TOR 14 1 4 5 14
M TOR 15 1 8 3 12
M TOR 16 1 8 5 6
M TOR 17 1 8 5 14
M TOR 18 2 1 0 9
M TOR 19 2 1 0 10
M TOR 20 2 1 0 11
M TOR 21 2 1 4 5
M TOR 22 2 1 4 13
M TOR 23 2 1 8 5
M TOR 24 2 1 8 18
M TOR 25 2 3 4 5
M TOR 26 2 3 4 13
M TOR 27 2 3 8 5
M TOR 28 2 3 8 18
M TOR 29 3 4 5 6
M TOR 30 3 4 5 8
M TOR 31 3 4 5 14
M TOR 32 3 8 5 6
M TOR 33 3 8 5 14
M TOR 34 4 1 0 9
M TOR 35 4 1 0 10
M TOR 36 4 1 0 11
M TOR 37 4 1 8 18
M TOR 38 4 3 8 18
M TOR 39 4 5 6 7
M TOR 40 4 5 6 15
M TOR 41 4 5 6 16
M TOR 42 4 5 8 18
M TOR 43 5 4 3 12
M TOR 44 5 6 7 17
M TOR 45 5 8 3 12
M TOR 46 6 5 4 13
M TOR 47 6 5 8 18
M TOR 48 7 6 5 8
M TOR 49 7 6 5 14
M TOR 50 8 1 0 9
M TOR 51 8 1 0 10
M TOR 52 8 1 0 11
M TOR 53 8 1 4 13
M TOR 54 8 3 4 13
M TOR 55 8 5 4 13
M TOR 56 8 5 6 15
M TOR 57 8 5 6 16
M  END
$$$$
