gdb 3096	2.8637117	1.5217297	1.1366393	2.2224	75.04	-0.24275	0.06548	0.30823	1098.7355	0.156424	-422.458715	-422.450641	-422.449697	-422.491321	30.703
 OpenBabel02181911413D

 19 21  0  0  1  0  0  0  0  0999 V2000
    1.1780    1.4293    0.0993 C   0  0  0  0  0  0  0  0  0  0  0  0
    2.0041    0.1550    0.1567 C   0  0  2  0  0  0  0  0  0  0  0  0
    1.8108   -1.0484   -0.8102 C   0  0  1  0  0  0  0  0  0  0  0  0
    2.5642   -1.8876    0.1575 O   0  0  0  0  0  0  0  0  0  0  0  0
    1.5981   -1.1062    0.9721 C   0  0  2  0  0  0  0  0  0  0  0  0
    0.5246   -1.4827   -0.0730 C   0  0  0  0  0  0  0  0  0  0  0  0
   -0.0553   -2.8960   -0.1880 C   0  0  0  0  0  0  0  0  0  0  0  0
   -1.3938   -2.3632   -0.3304 O   0  0  0  0  0  0  0  0  0  0  0  0
   -0.9305   -1.0050   -0.2315 C   0  0  0  0  0  0  0  0  0  0  0  0
    1.3068    2.0054    1.0218 H   0  0  0  0  0  0  0  0  0  0  0  0
    1.5158    2.0621   -0.7284 H   0  0  0  0  0  0  0  0  0  0  0  0
    0.1090    1.2539   -0.0341 H   0  0  0  0  0  0  0  0  0  0  0  0
    3.0679    0.3691    0.2906 H   0  0  0  0  0  0  0  0  0  0  0  0
    2.0680   -1.1475   -1.8663 H   0  0  0  0  0  0  0  0  0  0  0  0
    1.6002   -1.2744    2.0506 H   0  0  0  0  0  0  0  0  0  0  0  0
    0.2557   -3.4704   -1.0689 H   0  0  0  0  0  0  0  0  0  0  0  0
    0.0443   -3.5279    0.7027 H   0  0  0  0  0  0  0  0  0  0  0  0
   -1.1504   -0.4271   -1.1390 H   0  0  0  0  0  0  0  0  0  0  0  0
   -1.3623   -0.4839    0.6333 H   0  0  0  0  0  0  0  0  0  0  0  0
  1  2  1  0  0  0  0
  1 10  1  0  0  0  0
  2 13  1  1  0  0  0
  2  5  1  0  0  0  0
  3 14  1  6  0  0  0
  3  6  1  0  0  0  0
  3  2  1  0  0  0  0
  3  4  1  0  0  0  0
  4  5  1  0  0  0  0
  5 15  1  1  0  0  0
  6  5  1  0  0  0  0
  7  6  1  0  0  0  0
  7 17  1  0  0  0  0
  8  9  1  0  0  0  0
  8  7  1  0  0  0  0
  9  6  1  0  0  0  0
  9 19  1  0  0  0  0
 11  1  1  0  0  0  0
 12  1  1  0  0  0  0
 16  7  1  0  0  0  0
 18  9  1  0  0  0  0
M TOR 0 0 1 2 3
M TOR 1 0 1 2 5
M TOR 2 0 1 2 13
M TOR 3 0 1 4 3
M TOR 4 0 1 4 5
M TOR 5 0 1 4 14
M TOR 6 1 2 3 4
M TOR 7 1 2 5 4
M TOR 8 1 2 5 6
M TOR 9 1 2 5 8
M TOR 10 1 4 5 6
M TOR 11 1 4 5 8
M TOR 12 2 1 0 9
M TOR 13 2 1 0 10
M TOR 14 2 1 0 11
M TOR 15 2 1 4 14
M TOR 16 2 3 4 5
M TOR 17 2 3 4 14
M TOR 18 2 5 4 14
M TOR 19 2 5 6 7
M TOR 20 2 5 6 15
M TOR 21 2 5 6 16
M TOR 22 2 5 8 7
M TOR 23 2 5 8 17
M TOR 24 2 5 8 18
M TOR 25 3 2 1 12
M TOR 26 3 2 5 6
M TOR 27 3 2 5 8
M TOR 28 3 4 1 12
M TOR 29 3 4 5 6
M TOR 30 3 4 5 8
M TOR 31 4 1 0 9
M TOR 32 4 1 0 10
M TOR 33 4 1 0 11
M TOR 34 4 1 2 13
M TOR 35 4 3 2 13
M TOR 36 4 5 2 13
M TOR 37 4 5 6 7
M TOR 38 4 5 6 15
M TOR 39 4 5 6 16
M TOR 40 4 5 8 7
M TOR 41 4 5 8 17
M TOR 42 4 5 8 18
M TOR 43 5 2 1 12
M TOR 44 5 4 1 12
M TOR 45 5 6 7 8
M TOR 46 6 5 2 13
M TOR 47 6 5 4 14
M TOR 48 6 5 8 17
M TOR 49 6 5 8 18
M TOR 50 6 7 8 17
M TOR 51 6 7 8 18
M TOR 52 8 5 2 13
M TOR 53 8 5 4 14
M TOR 54 8 5 6 15
M TOR 55 8 5 6 16
M TOR 56 8 7 6 15
M TOR 57 8 7 6 16
M  END
$$$$
