
     RDKit          3D

 19 20  0  0  0  0  0  0  0  0999 V2000
   -1.3330    1.7779    1.2316 C   0  0  0  0  0  0  0  0  0  0  0  0
   -1.4657    2.0214   -0.1675 O   0  0  0  0  0  0  0  0  0  0  0  0
   -0.4466    1.4509   -0.9892 C   0  0  0  0  0  0  0  0  0  0  0  0
    0.8528    2.2908   -0.8734 C   0  0  0  0  0  0  0  0  0  0  0  0
    1.1194    2.7397    0.4408 O   0  0  0  0  0  0  0  0  0  0  0  0
    1.1924    1.7503    1.4517 C   0  0  0  0  0  0  0  0  0  0  0  0
   -0.1037    0.9085    1.5861 C   0  0  0  0  0  0  0  0  0  0  0  0
   -0.0908   -0.2820    0.6549 C   0  0  0  0  0  0  0  0  0  0  0  0
   -0.2386   -0.0079   -0.6372 C   0  0  0  0  0  0  0  0  0  0  0  0
   -1.2658    2.7460    1.7433 H   0  0  0  0  0  0  0  0  0  0  0  0
   -2.2435    1.2687    1.5733 H   0  0  0  0  0  0  0  0  0  0  0  0
   -0.8157    1.5455   -2.0155 H   0  0  0  0  0  0  0  0  0  0  0  0
    1.6983    1.7136   -1.2831 H   0  0  0  0  0  0  0  0  0  0  0  0
    0.7452    3.2078   -1.4602 H   0  0  0  0  0  0  0  0  0  0  0  0
    2.0549    1.0843    1.2925 H   0  0  0  0  0  0  0  0  0  0  0  0
    1.3651    2.3151    2.3738 H   0  0  0  0  0  0  0  0  0  0  0  0
   -0.1937    0.5886    2.6292 H   0  0  0  0  0  0  0  0  0  0  0  0
    0.0213   -1.2886    1.0443 H   0  0  0  0  0  0  0  0  0  0  0  0
   -0.2526   -0.7619   -1.4170 H   0  0  0  0  0  0  0  0  0  0  0  0
  1  2  1  0
  2  3  1  0
  3  4  1  0
  4  5  1  0
  5  6  1  0
  6  7  1  0
  7  8  1  0
  8  9  2  0
  7  1  1  0
  9  3  1  0
  1 10  1  0
  1 11  1  0
  3 12  1  0
  4 13  1  0
  4 14  1  0
  6 15  1  0
  6 16  1  0
  7 17  1  0
  8 18  1  0
  9 19  1  0
M  END
$$$$
