gdb 630	3.1778531	1.5548371	1.1508093	2.7132	78.13	-0.24166	0.01448	0.25614000000000003	1079.7717	0.159796	-422.57201	-422.56467	-422.563726	-422.603706	28.843
 OpenBabel02181911403D

 19 20  0  0  1  0  0  0  0  0999 V2000
    0.9199    0.3508    0.7407 C   0  0  0  0  0  0  0  0  0  0  0  0
    1.0957    1.6565    0.1823 O   0  0  0  0  0  0  0  0  0  0  0  0
    0.2269    1.8391   -0.8920 C   0  0  1  0  0  0  0  0  0  0  0  0
    0.9680    1.9909   -2.1006 O   0  0  0  0  0  0  0  0  0  0  0  0
    0.0886    2.0973   -3.2112 C   0  0  0  0  0  0  0  0  0  0  0  0
   -0.7463    0.8246   -3.4134 C   0  0  0  0  0  0  0  0  0  0  0  0
   -1.5510    0.4837   -2.1353 C   0  0  0  0  0  0  0  0  0  0  0  0
   -0.6204    0.5925   -0.9719 C   0  0  0  0  0  0  0  0  0  0  0  0
   -0.2047   -0.2630   -0.0454 C   0  0  0  0  0  0  0  0  0  0  0  0
    1.8515   -0.2276    0.6491 H   0  0  0  0  0  0  0  0  0  0  0  0
    0.7002    0.4528    1.8128 H   0  0  0  0  0  0  0  0  0  0  0  0
   -0.3562    2.7666   -0.7384 H   0  0  0  0  0  0  0  0  0  0  0  0
   -0.5814    2.9666   -3.0839 H   0  0  0  0  0  0  0  0  0  0  0  0
    0.7200    2.2917   -4.0823 H   0  0  0  0  0  0  0  0  0  0  0  0
   -1.4183    0.9552   -4.2689 H   0  0  0  0  0  0  0  0  0  0  0  0
   -0.0688   -0.0048   -3.6441 H   0  0  0  0  0  0  0  0  0  0  0  0
   -2.3704    1.2089   -2.0274 H   0  0  0  0  0  0  0  0  0  0  0  0
   -2.0055   -0.5091   -2.2036 H   0  0  0  0  0  0  0  0  0  0  0  0
   -0.5538   -1.2760    0.1147 H   0  0  0  0  0  0  0  0  0  0  0  0
  1 11  1  0  0  0  0
  2  1  1  0  0  0  0
  3 12  1  1  0  0  0
  3  2  1  0  0  0  0
  4  3  1  0  0  0  0
  5 13  1  0  0  0  0
  5  4  1  0  0  0  0
  6  5  1  0  0  0  0
  6  7  1  0  0  0  0
  7 17  1  0  0  0  0
  7  8  1  0  0  0  0
  8  3  1  0  0  0  0
  8  9  2  0  0  0  0
  9 19  1  0  0  0  0
  9  1  1  0  0  0  0
 10  1  1  0  0  0  0
 14  5  1  0  0  0  0
 15  6  1  0  0  0  0
 16  6  1  0  0  0  0
 18  7  1  0  0  0  0
M TOR 0 0 1 2 3
M TOR 1 0 1 2 7
M TOR 2 0 1 2 11
M TOR 3 0 8 7 2
M TOR 4 0 8 7 6
M TOR 5 1 0 8 7
M TOR 6 1 0 8 18
M TOR 7 1 2 3 4
M TOR 8 1 2 7 6
M TOR 9 1 2 7 8
M TOR 10 2 1 0 8
M TOR 11 2 1 0 9
M TOR 12 2 1 0 10
M TOR 13 2 3 4 5
M TOR 14 2 3 4 12
M TOR 15 2 3 4 13
M TOR 16 2 7 6 5
M TOR 17 2 7 6 16
M TOR 18 2 7 6 17
M TOR 19 2 7 8 18
M TOR 20 3 2 7 6
M TOR 21 3 2 7 8
M TOR 22 3 4 5 6
M TOR 23 3 4 5 14
M TOR 24 3 4 5 15
M TOR 25 4 3 2 7
M TOR 26 4 3 2 11
M TOR 27 4 5 6 7
M TOR 28 4 5 6 16
M TOR 29 4 5 6 17
M TOR 30 5 6 7 8
M TOR 31 6 5 4 12
M TOR 32 6 5 4 13
M TOR 33 6 7 2 11
M TOR 34 6 7 8 18
M TOR 35 7 6 5 14
M TOR 36 7 6 5 15
M TOR 37 7 8 0 9
M TOR 38 7 8 0 10
M TOR 39 8 7 2 11
M TOR 40 8 7 6 16
M TOR 41 8 7 6 17
M  END
$$$$
