gdb 5501	4.2421503	0.9418614	0.8570684	4.3504	75.8	-0.26728	0.01159	0.27887	1392.698	0.157214	-422.59031	-422.581837	-422.580892	-422.623812	31.535
 OpenBabel02181911423D

 19 20  0  0  1  0  0  0  0  0999 V2000
   -0.1229    2.0590   -2.1396 C   0  0  0  0  0  0  0  0  0  0  0  0
    0.4466    0.9454   -1.2536 C   0  0  0  0  0  0  0  0  0  0  0  0
    1.4297    0.0560   -1.9868 C   0  0  1  0  0  0  0  0  0  0  0  0
    1.6985   -1.3503   -1.4770 C   0  0  2  0  0  0  0  0  0  0  0  0
    2.9859   -2.0185   -1.9033 C   0  0  0  0  0  0  0  0  0  0  0  0
    2.9142   -2.0598   -3.4359 C   0  0  0  0  0  0  0  0  0  0  0  0
    3.7450   -2.4408   -4.2045 O   0  0  0  0  0  0  0  0  0  0  0  0
    1.7084   -1.5625   -3.8528 O   0  0  0  0  0  0  0  0  0  0  0  0
    0.9279   -1.1329   -2.7546 C   0  0  2  0  0  0  0  0  0  0  0  0
   -0.8312    2.6812   -1.5844 H   0  0  0  0  0  0  0  0  0  0  0  0
    0.6735    2.7114   -2.5131 H   0  0  0  0  0  0  0  0  0  0  0  0
   -0.6447    1.6443   -3.0081 H   0  0  0  0  0  0  0  0  0  0  0  0
    0.9406    1.3831   -0.3769 H   0  0  0  0  0  0  0  0  0  0  0  0
   -0.3730    0.3297   -0.8609 H   0  0  0  0  0  0  0  0  0  0  0  0
    2.2737    0.5743   -2.4402 H   0  0  0  0  0  0  0  0  0  0  0  0
    1.1977   -1.6784   -0.5739 H   0  0  0  0  0  0  0  0  0  0  0  0
    3.8990   -1.4949   -1.6060 H   0  0  0  0  0  0  0  0  0  0  0  0
    3.0663   -3.0456   -1.5333 H   0  0  0  0  0  0  0  0  0  0  0  0
   -0.1269   -1.3409   -2.8863 H   0  0  0  0  0  0  0  0  0  0  0  0
  1 10  1  0  0  0  0
  1  2  1  0  0  0  0
  2 14  1  0  0  0  0
  2 13  1  0  0  0  0
  3 15  1  6  0  0  0
  3  4  1  0  0  0  0
  3  2  1  0  0  0  0
  4 16  1  1  0  0  0
  5 17  1  0  0  0  0
  5 18  1  0  0  0  0
  5  4  1  0  0  0  0
  6  5  1  0  0  0  0
  7  6  2  0  0  0  0
  8  6  1  0  0  0  0
  8  9  1  0  0  0  0
  9 19  1  6  0  0  0
  9  3  1  0  0  0  0
  9  4  1  0  0  0  0
 11  1  1  0  0  0  0
 12  1  1  0  0  0  0
M TOR 0 0 1 2 3
M TOR 1 0 1 2 8
M TOR 2 0 1 2 14
M TOR 3 1 2 3 4
M TOR 4 1 2 3 8
M TOR 5 1 2 3 15
M TOR 6 1 2 8 7
M TOR 7 1 2 8 18
M TOR 8 2 1 0 9
M TOR 9 2 1 0 10
M TOR 10 2 1 0 11
M TOR 11 2 3 4 5
M TOR 12 2 3 4 16
M TOR 13 2 3 4 17
M TOR 14 2 3 8 7
M TOR 15 2 3 8 18
M TOR 16 2 8 3 4
M TOR 17 2 8 3 15
M TOR 18 2 8 7 5
M TOR 19 3 2 1 12
M TOR 20 3 2 1 13
M TOR 21 3 4 5 6
M TOR 22 3 4 5 7
M TOR 23 3 8 2 14
M TOR 24 3 8 7 5
M TOR 25 4 3 2 14
M TOR 26 4 3 8 7
M TOR 27 4 3 8 18
M TOR 28 4 5 7 8
M TOR 29 5 4 3 8
M TOR 30 5 4 3 15
M TOR 31 5 7 8 18
M TOR 32 6 5 4 16
M TOR 33 6 5 4 17
M TOR 34 6 5 7 8
M TOR 35 7 5 4 16
M TOR 36 7 5 4 17
M TOR 37 7 8 2 14
M TOR 38 7 8 3 15
M TOR 39 8 2 1 12
M TOR 40 8 2 1 13
M TOR 41 8 3 4 16
M TOR 42 8 3 4 17
M  END
$$$$
