gdb 4924	2.2599875	1.1250779	0.880241	2.4354	81.1	-0.24481	0.02681	0.27162	1409.6486	0.154848	-422.509	-422.498821	-422.497877	-422.545884	35.115
 OpenBabel02181911413D

 19 19  0  0  1  0  0  0  0  0999 V2000
    1.6028   -0.0293   -0.0585 C   0  0  0  0  0  0  0  0  0  0  0  0
    0.1478   -0.0203   -0.0579 C   0  0  0  0  0  0  0  0  0  0  0  0
   -1.0563    0.0021   -0.0513 C   0  0  0  0  0  0  0  0  0  0  0  0
   -2.5094    0.0011   -0.0648 C   0  0  1  0  0  0  0  0  0  0  0  0
   -3.0895    0.9244   -1.1465 C   0  0  0  0  0  0  0  0  0  0  0  0
   -2.8295    2.2728   -0.8408 O   0  0  0  0  0  0  0  0  0  0  0  0
   -3.2112   -1.3809    0.0624 C   0  0  0  0  0  0  0  0  0  0  0  0
   -3.8369   -0.8007    1.3433 C   0  0  0  0  0  0  0  0  0  0  0  0
   -3.0776    0.4243    1.2225 O   0  0  0  0  0  0  0  0  0  0  0  0
    1.9965    0.5401    0.7906 H   0  0  0  0  0  0  0  0  0  0  0  0
    1.9977   -1.0487    0.0137 H   0  0  0  0  0  0  0  0  0  0  0  0
    2.0026    0.4213   -0.9733 H   0  0  0  0  0  0  0  0  0  0  0  0
   -2.6331    0.7085   -2.1178 H   0  0  0  0  0  0  0  0  0  0  0  0
   -4.1718    0.7257   -1.2224 H   0  0  0  0  0  0  0  0  0  0  0  0
   -3.0949    2.3848    0.0816 H   0  0  0  0  0  0  0  0  0  0  0  0
   -3.8995   -1.6241   -0.7492 H   0  0  0  0  0  0  0  0  0  0  0  0
   -2.5240   -2.2105    0.2228 H   0  0  0  0  0  0  0  0  0  0  0  0
   -4.9171   -0.6177    1.3006 H   0  0  0  0  0  0  0  0  0  0  0  0
   -3.6023   -1.3272    2.2745 H   0  0  0  0  0  0  0  0  0  0  0  0
  1  2  1  0  0  0  0
  1 11  1  0  0  0  0
  1 10  1  0  0  0  0
  2  3  3  0  0  0  0
  4  3  1  6  0  0  0
  4  7  1  0  0  0  0
  4  9  1  0  0  0  0
  5  6  1  0  0  0  0
  5  4  1  0  0  0  0
  6 15  1  0  0  0  0
  7 17  1  0  0  0  0
  7  8  1  0  0  0  0
  8 19  1  0  0  0  0
  9  8  1  0  0  0  0
 12  1  1  0  0  0  0
 13  5  1  0  0  0  0
 14  5  1  0  0  0  0
 16  7  1  0  0  0  0
 18  8  1  0  0  0  0
M TOR 0 0 1 2 3
M TOR 1 1 2 3 4
M TOR 2 1 2 3 6
M TOR 3 1 2 3 8
M TOR 4 2 1 0 9
M TOR 5 2 1 0 10
M TOR 6 2 1 0 11
M TOR 7 2 3 4 5
M TOR 8 2 3 4 12
M TOR 9 2 3 4 13
M TOR 10 2 3 6 7
M TOR 11 2 3 6 15
M TOR 12 2 3 6 16
M TOR 13 2 3 8 7
M TOR 14 3 4 5 14
M TOR 15 3 6 7 8
M TOR 16 3 6 7 17
M TOR 17 3 6 7 18
M TOR 18 3 8 7 17
M TOR 19 3 8 7 18
M TOR 20 4 3 6 7
M TOR 21 4 3 6 15
M TOR 22 4 3 6 16
M TOR 23 4 3 8 7
M TOR 24 5 4 3 6
M TOR 25 5 4 3 8
M TOR 26 6 3 4 12
M TOR 27 6 3 4 13
M TOR 28 8 3 4 12
M TOR 29 8 3 4 13
M TOR 30 8 3 6 15
M TOR 31 8 3 6 16
M TOR 32 8 7 6 15
M TOR 33 8 7 6 16
M  END
$$$$
