
     RDKit          3D

 19 21  0  0  0  0  0  0  0  0999 V2000
    0.1288   -0.3636   -0.3699 C   0  0  0  0  0  0  0  0  0  0  0  0
    1.5874   -0.1021   -0.0887 C   0  0  0  0  0  0  0  0  0  0  0  0
    2.2931   -1.1727    0.7423 C   0  0  0  0  0  0  0  0  0  0  0  0
    3.5904   -0.6998    1.1065 O   0  0  0  0  0  0  0  0  0  0  0  0
    4.0899    0.2175    0.1547 C   0  0  0  0  0  0  0  0  0  0  0  0
    3.9000   -0.3057   -1.2974 C   0  0  0  0  0  0  0  0  0  0  0  0
    2.5224    0.3795   -1.2689 C   0  0  0  0  0  0  0  0  0  0  0  0
    2.9896    1.3305   -0.1527 C   0  0  0  0  0  0  0  0  0  0  0  0
    1.8165    1.1524    0.6382 O   0  0  0  0  0  0  0  0  0  0  0  0
   -0.4338   -0.4534    0.5650 H   0  0  0  0  0  0  0  0  0  0  0  0
   -0.3007    0.4569   -0.9507 H   0  0  0  0  0  0  0  0  0  0  0  0
    0.0078   -1.2926   -0.9373 H   0  0  0  0  0  0  0  0  0  0  0  0
    1.7464   -1.3549    1.6730 H   0  0  0  0  0  0  0  0  0  0  0  0
    2.3601   -2.1215    0.1876 H   0  0  0  0  0  0  0  0  0  0  0  0
    5.0812    0.5224    0.4912 H   0  0  0  0  0  0  0  0  0  0  0  0
    4.5680    0.2006   -2.0007 H   0  0  0  0  0  0  0  0  0  0  0  0
    3.9730   -1.3856   -1.4504 H   0  0  0  0  0  0  0  0  0  0  0  0
    2.0059    0.6932   -2.1771 H   0  0  0  0  0  0  0  0  0  0  0  0
    3.3100    2.3677   -0.2651 H   0  0  0  0  0  0  0  0  0  0  0  0
  1  2  1  0
  2  3  1  0
  3  4  1  0
  4  5  1  0
  5  6  1  0
  6  7  1  0
  7  8  1  0
  8  9  1  0
  7  2  1  0
  9  2  1  0
  8  5  1  0
  1 10  1  0
  1 11  1  0
  1 12  1  0
  3 13  1  0
  3 14  1  0
  5 15  1  0
  6 16  1  0
  6 17  1  0
  7 18  1  0
  8 19  1  0
M  END
$$$$
