gdb 915	3.7146827	1.0127271	0.9235638	2.1509	76.22	-0.26549	0.0097	0.27519	1313.2353	0.158234	-422.581355	-422.573165	-422.572221	-422.615372	30.379
 OpenBabel02181911403D

 19 20  0  0  1  0  0  0  0  0999 V2000
    0.6928    0.0777   -0.9247 O   0  0  0  0  0  0  0  0  0  0  0  0
    0.3251   -0.2046    0.1815 C   0  0  0  0  0  0  0  0  0  0  0  0
   -0.4821    0.5283    0.9652 O   0  0  0  0  0  0  0  0  0  0  0  0
   -0.9512    1.7530    0.4129 C   0  0  2  0  0  0  0  0  0  0  0  0
   -1.9379    2.4670    1.2833 C   0  0  1  0  0  0  0  0  0  0  0  0
   -2.0833    3.9702    1.0904 C   0  0  0  0  0  0  0  0  0  0  0  0
   -2.1905    4.1654   -0.4420 C   0  0  0  0  0  0  0  0  0  0  0  0
   -2.8217    2.8592   -0.9850 C   0  0  0  0  0  0  0  0  0  0  0  0
   -2.3969    1.7822    0.0027 C   0  0  1  0  0  0  0  0  0  0  0  0
    0.6085   -1.1148    0.7324 H   0  0  0  0  0  0  0  0  0  0  0  0
   -0.1918    2.2733   -0.1592 H   0  0  0  0  0  0  0  0  0  0  0  0
   -2.1420    2.0264    2.2526 H   0  0  0  0  0  0  0  0  0  0  0  0
   -3.0034    4.3009    1.5863 H   0  0  0  0  0  0  0  0  0  0  0  0
   -1.2582    4.5454    1.5238 H   0  0  0  0  0  0  0  0  0  0  0  0
   -2.7704    5.0521   -0.7098 H   0  0  0  0  0  0  0  0  0  0  0  0
   -1.1928    4.3032   -0.8710 H   0  0  0  0  0  0  0  0  0  0  0  0
   -3.9158    2.9297   -0.9825 H   0  0  0  0  0  0  0  0  0  0  0  0
   -2.5123    2.6480   -2.0137 H   0  0  0  0  0  0  0  0  0  0  0  0
   -2.9347    0.8416    0.0396 H   0  0  0  0  0  0  0  0  0  0  0  0
  1  2  2  0  0  0  0
  2 10  1  0  0  0  0
  2  3  1  0  0  0  0
  4 11  1  6  0  0  0
  4  3  1  0  0  0  0
  4  5  1  0  0  0  0
  5 12  1  1  0  0  0
  6  5  1  0  0  0  0
  6 14  1  0  0  0  0
  6 13  1  0  0  0  0
  7  6  1  0  0  0  0
  8 17  1  0  0  0  0
  8  7  1  0  0  0  0
  8  9  1  0  0  0  0
  9 19  1  1  0  0  0
  9  4  1  0  0  0  0
  9  5  1  0  0  0  0
 15  7  1  0  0  0  0
 16  7  1  0  0  0  0
 18  8  1  0  0  0  0
M TOR 0 0 1 2 3
M TOR 1 1 2 3 4
M TOR 2 1 2 3 8
M TOR 3 1 2 3 10
M TOR 4 2 3 4 5
M TOR 5 2 3 4 8
M TOR 6 2 3 4 11
M TOR 7 2 3 8 7
M TOR 8 2 3 8 18
M TOR 9 3 2 1 9
M TOR 10 3 4 5 6
M TOR 11 3 4 5 12
M TOR 12 3 4 5 13
M TOR 13 3 4 8 7
M TOR 14 3 4 8 18
M TOR 15 3 8 4 5
M TOR 16 3 8 4 11
M TOR 17 3 8 7 6
M TOR 18 3 8 7 16
M TOR 19 3 8 7 17
M TOR 20 4 5 6 7
M TOR 21 4 5 6 14
M TOR 22 4 5 6 15
M TOR 23 4 8 3 10
M TOR 24 4 8 7 6
M TOR 25 4 8 7 16
M TOR 26 4 8 7 17
M TOR 27 5 4 3 10
M TOR 28 5 4 8 7
M TOR 29 5 4 8 18
M TOR 30 5 6 7 8
M TOR 31 5 6 7 16
M TOR 32 5 6 7 17
M TOR 33 6 5 4 8
M TOR 34 6 5 4 11
M TOR 35 6 7 8 18
M TOR 36 7 6 5 12
M TOR 37 7 6 5 13
M TOR 38 7 8 3 10
M TOR 39 7 8 4 11
M TOR 40 8 4 5 12
M TOR 41 8 4 5 13
M TOR 42 8 7 6 14
M TOR 43 8 7 6 15
M  END
$$$$
