gdb 2888	3.3614359	1.5129214	1.296292	2.3785	73.49	-0.24111	0.06677	0.30788	1026.4666	0.158749	-422.525088	-422.517858	-422.516914	-422.556287	29.636
 OpenBabel02181911413D

 19 21  0  0  1  0  0  0  0  0999 V2000
   -0.1722   -0.0330   -0.0010 C   0  0  0  0  0  0  0  0  0  0  0  0
    1.3481   -0.0133   -0.1274 C   0  0  2  0  0  0  0  0  0  0  0  0
    2.0878   -0.3517    1.1853 C   0  0  2  0  0  0  0  0  0  0  0  0
    2.0350    1.1305    1.6206 C   0  0  1  0  0  0  0  0  0  0  0  0
    3.3971    1.1179    2.0969 O   0  0  0  0  0  0  0  0  0  0  0  0
    3.5887    0.0992    1.0602 C   0  0  2  0  0  0  0  0  0  0  0  0
    3.5213    1.0038   -0.1978 C   0  0  2  0  0  0  0  0  0  0  0  0
    4.4433    2.0578   -0.1561 O   0  0  0  0  0  0  0  0  0  0  0  0
    2.0341    1.3735    0.0405 C   0  0  1  0  0  0  0  0  0  0  0  0
   -0.5182    0.5083    0.8859 H   0  0  0  0  0  0  0  0  0  0  0  0
   -0.6415    0.4300   -0.8753 H   0  0  0  0  0  0  0  0  0  0  0  0
   -0.5453   -1.0604    0.0728 H   0  0  0  0  0  0  0  0  0  0  0  0
    1.6534   -0.5713   -1.0201 H   0  0  0  0  0  0  0  0  0  0  0  0
    1.8466   -1.1896    1.8385 H   0  0  0  0  0  0  0  0  0  0  0  0
    1.3209    1.6167    2.2808 H   0  0  0  0  0  0  0  0  0  0  0  0
    4.4526   -0.5406    1.2318 H   0  0  0  0  0  0  0  0  0  0  0  0
    3.6704    0.4712   -1.1402 H   0  0  0  0  0  0  0  0  0  0  0  0
    4.4500    2.3477    0.7678 H   0  0  0  0  0  0  0  0  0  0  0  0
    1.6565    2.2797   -0.4297 H   0  0  0  0  0  0  0  0  0  0  0  0
  1 12  1  0  0  0  0
  1 10  1  0  0  0  0
  2 13  1  6  0  0  0
  2  1  1  0  0  0  0
  2  9  1  0  0  0  0
  2  3  1  0  0  0  0
  3  4  1  0  0  0  0
  3 14  1  1  0  0  0
  4  5  1  0  0  0  0
  4 15  1  1  0  0  0
  6  3  1  0  0  0  0
  6 16  1  1  0  0  0
  6  5  1  0  0  0  0
  7 17  1  6  0  0  0
  7  8  1  0  0  0  0
  7  9  1  0  0  0  0
  7  6  1  0  0  0  0
  8 18  1  0  0  0  0
  9 19  1  6  0  0  0
  9  4  1  0  0  0  0
 11  1  1  0  0  0  0
M TOR 0 0 1 2 3
M TOR 1 0 1 2 5
M TOR 2 0 1 2 13
M TOR 3 0 1 8 3
M TOR 4 0 1 8 6
M TOR 5 0 1 8 18
M TOR 6 1 2 3 4
M TOR 7 1 2 3 8
M TOR 8 1 2 3 14
M TOR 9 1 2 5 4
M TOR 10 1 2 5 6
M TOR 11 1 2 5 15
M TOR 12 1 8 3 4
M TOR 13 1 8 3 14
M TOR 14 1 8 6 5
M TOR 15 1 8 6 7
M TOR 16 1 8 6 16
M TOR 17 2 1 0 9
M TOR 18 2 1 0 10
M TOR 19 2 1 0 11
M TOR 20 2 1 8 6
M TOR 21 2 1 8 18
M TOR 22 2 3 4 5
M TOR 23 2 3 8 6
M TOR 24 2 3 8 18
M TOR 25 2 5 6 7
M TOR 26 2 5 6 8
M TOR 27 2 5 6 16
M TOR 28 3 2 1 12
M TOR 29 3 2 5 6
M TOR 30 3 2 5 15
M TOR 31 3 4 5 6
M TOR 32 3 4 5 15
M TOR 33 3 8 1 12
M TOR 34 3 8 6 5
M TOR 35 3 8 6 7
M TOR 36 3 8 6 16
M TOR 37 4 3 2 13
M TOR 38 4 3 8 6
M TOR 39 4 3 8 18
M TOR 40 4 5 2 13
M TOR 41 4 5 6 7
M TOR 42 4 5 6 8
M TOR 43 4 5 6 16
M TOR 44 5 2 1 8
M TOR 45 5 2 1 12
M TOR 46 5 2 3 8
M TOR 47 5 2 3 14
M TOR 48 5 4 3 8
M TOR 49 5 4 3 14
M TOR 50 5 6 7 17
M TOR 51 5 6 8 18
M TOR 52 6 5 2 13
M TOR 53 6 8 1 12
M TOR 54 6 8 3 14
M TOR 55 7 6 5 15
M TOR 56 7 6 8 18
M TOR 57 8 1 0 9
M TOR 58 8 1 0 10
M TOR 59 8 1 0 11
M TOR 60 8 1 2 13
M TOR 61 8 3 2 13
M TOR 62 8 6 5 15
M TOR 63 8 6 7 17
M  END
$$$$
