gdb 960	5.1619152	0.7084039	0.6736563	1.0768	76.89	-0.2377	-0.0255	0.2122	1637.0749	0.155156	-422.515999	-422.506955	-422.506011	-422.551253	32.162
 OpenBabel02181911403D

 19 20  0  0  1  0  0  0  0  0999 V2000
    0.0742   -1.1673    0.1940 O   0  0  0  0  0  0  0  0  0  0  0  0
    0.3077   -0.0092   -0.0359 C   0  0  0  0  0  0  0  0  0  0  0  0
   -0.3210    0.8002   -1.1461 C   0  0  0  0  0  0  0  0  0  0  0  0
   -1.0516    2.0481   -0.6024 C   0  0  0  0  0  0  0  0  0  0  0  0
   -1.6062    2.9132   -1.6973 C   0  0  1  0  0  0  0  0  0  0  0  0
   -2.9416    2.6768   -2.3835 C   0  0  0  0  0  0  0  0  0  0  0  0
   -2.6683    3.9900   -1.7175 C   0  0  2  0  0  0  0  0  0  0  0  0
   -1.9085    4.8423   -2.5771 O   0  0  0  0  0  0  0  0  0  0  0  0
   -0.8047    3.8985   -2.5516 C   0  0  0  0  0  0  0  0  0  0  0  0
    1.0295    0.5640    0.5941 H   0  0  0  0  0  0  0  0  0  0  0  0
    0.4864    1.1240   -1.8188 H   0  0  0  0  0  0  0  0  0  0  0  0
   -1.0007    0.1585   -1.7130 H   0  0  0  0  0  0  0  0  0  0  0  0
   -1.8661    1.7277    0.0582 H   0  0  0  0  0  0  0  0  0  0  0  0
   -0.3600    2.6339    0.0182 H   0  0  0  0  0  0  0  0  0  0  0  0
   -3.0206    2.6354   -3.4666 H   0  0  0  0  0  0  0  0  0  0  0  0
   -3.6084    2.0087   -1.8455 H   0  0  0  0  0  0  0  0  0  0  0  0
   -3.2711    4.4516   -0.9434 H   0  0  0  0  0  0  0  0  0  0  0  0
   -0.5005    3.5837   -3.5571 H   0  0  0  0  0  0  0  0  0  0  0  0
    0.0548    4.3296   -2.0229 H   0  0  0  0  0  0  0  0  0  0  0  0
  2  1  2  0  0  0  0
  2 10  1  0  0  0  0
  3  4  1  0  0  0  0
  3  2  1  0  0  0  0
  4 14  1  0  0  0  0
  4 13  1  0  0  0  0
  5  4  1  1  0  0  0
  6 16  1  0  0  0  0
  6  7  1  0  0  0  0
  6  5  1  0  0  0  0
  7  5  1  0  0  0  0
  7 17  1  1  0  0  0
  8  9  1  0  0  0  0
  8  7  1  0  0  0  0
  9 19  1  0  0  0  0
  9  5  1  0  0  0  0
 11  3  1  0  0  0  0
 12  3  1  0  0  0  0
 15  6  1  0  0  0  0
 18  9  1  0  0  0  0
M TOR 0 0 1 2 3
M TOR 1 0 1 2 10
M TOR 2 0 1 2 11
M TOR 3 1 2 3 4
M TOR 4 1 2 3 12
M TOR 5 1 2 3 13
M TOR 6 2 3 4 5
M TOR 7 2 3 4 6
M TOR 8 2 3 4 8
M TOR 9 3 2 1 9
M TOR 10 3 4 5 6
M TOR 11 3 4 5 14
M TOR 12 3 4 5 15
M TOR 13 3 4 6 7
M TOR 14 3 4 6 16
M TOR 15 3 4 8 7
M TOR 16 3 4 8 17
M TOR 17 3 4 8 18
M TOR 18 4 3 2 10
M TOR 19 4 3 2 11
M TOR 20 4 5 6 7
M TOR 21 4 5 6 16
M TOR 22 4 6 5 14
M TOR 23 4 6 5 15
M TOR 24 4 6 7 8
M TOR 25 5 4 3 12
M TOR 26 5 4 3 13
M TOR 27 5 4 8 7
M TOR 28 5 4 8 17
M TOR 29 5 4 8 18
M TOR 30 5 6 4 8
M TOR 31 5 6 7 8
M TOR 32 6 4 3 12
M TOR 33 6 4 3 13
M TOR 34 6 4 8 17
M TOR 35 6 4 8 18
M TOR 36 6 7 8 17
M TOR 37 6 7 8 18
M TOR 38 7 6 5 14
M TOR 39 7 6 5 15
M TOR 40 8 4 3 12
M TOR 41 8 4 3 13
M TOR 42 8 4 5 14
M TOR 43 8 4 5 15
M TOR 44 8 4 6 16
M TOR 45 8 7 6 16
M  END
$$$$
