gdb 3382	2.8036506	1.4314182	1.1182429	2.0388	77.	-0.24001	0.00877	0.24878	1133.4246	0.157055	-422.554092	-422.545556	-422.544612	-422.587273	31.935
 OpenBabel02181911413D

 19 20  0  0  1  0  0  0  0  0999 V2000
    1.3716    0.7336    0.4145 C   0  0  0  0  0  0  0  0  0  0  0  0
   -0.0233    0.2109    0.2883 C   0  0  0  0  0  0  0  0  0  0  0  0
   -1.1525    0.9085    0.1322 C   0  0  0  0  0  0  0  0  0  0  0  0
   -2.3652    0.0338    0.0335 C   0  0  2  0  0  0  0  0  0  0  0  0
   -3.1392   -0.0524    1.2678 O   0  0  0  0  0  0  0  0  0  0  0  0
   -2.6026   -1.3587    1.5535 C   0  0  0  0  0  0  0  0  0  0  0  0
   -1.8137   -1.4002    0.2268 C   0  0  2  0  0  0  0  0  0  0  0  0
   -0.2798   -1.2861    0.2963 C   0  0  1  0  0  0  0  0  0  0  0  0
    0.3903   -1.8528   -0.8299 O   0  0  0  0  0  0  0  0  0  0  0  0
    1.8140    0.4440    1.3765 H   0  0  0  0  0  0  0  0  0  0  0  0
    2.0078    0.3037   -0.3666 H   0  0  0  0  0  0  0  0  0  0  0  0
    1.4056    1.8231    0.3373 H   0  0  0  0  0  0  0  0  0  0  0  0
   -1.2097    1.9915    0.0994 H   0  0  0  0  0  0  0  0  0  0  0  0
   -3.0227    0.2611   -0.8124 H   0  0  0  0  0  0  0  0  0  0  0  0
   -1.9857   -1.3667    2.4634 H   0  0  0  0  0  0  0  0  0  0  0  0
   -3.3971   -2.1070    1.6592 H   0  0  0  0  0  0  0  0  0  0  0  0
   -2.1339   -2.1620   -0.4842 H   0  0  0  0  0  0  0  0  0  0  0  0
    0.1111   -1.7410    1.2223 H   0  0  0  0  0  0  0  0  0  0  0  0
    0.3877   -2.8098   -0.7277 H   0  0  0  0  0  0  0  0  0  0  0  0
  1 10  1  0  0  0  0
  2  8  1  0  0  0  0
  2  1  1  0  0  0  0
  3  2  2  0  0  0  0
  4 14  1  6  0  0  0
  4  3  1  0  0  0  0
  4  7  1  0  0  0  0
  4  5  1  0  0  0  0
  5  6  1  0  0  0  0
  6 16  1  0  0  0  0
  6 15  1  0  0  0  0
  7 17  1  6  0  0  0
  7  8  1  0  0  0  0
  7  6  1  0  0  0  0
  8 18  1  1  0  0  0
  9 19  1  0  0  0  0
  9  8  1  0  0  0  0
 11  1  1  0  0  0  0
 12  1  1  0  0  0  0
 13  3  1  0  0  0  0
M TOR 0 0 1 2 3
M TOR 1 0 1 2 12
M TOR 2 0 1 7 6
M TOR 3 0 1 7 8
M TOR 4 0 1 7 17
M TOR 5 1 2 3 4
M TOR 6 1 2 3 6
M TOR 7 1 2 3 13
M TOR 8 1 7 6 3
M TOR 9 1 7 6 5
M TOR 10 1 7 6 16
M TOR 11 1 7 8 18
M TOR 12 2 1 0 9
M TOR 13 2 1 0 10
M TOR 14 2 1 0 11
M TOR 15 2 1 7 6
M TOR 16 2 1 7 8
M TOR 17 2 1 7 17
M TOR 18 2 3 4 5
M TOR 19 2 3 6 5
M TOR 20 2 3 6 7
M TOR 21 2 3 6 16
M TOR 22 3 2 1 7
M TOR 23 3 4 5 6
M TOR 24 3 4 5 14
M TOR 25 3 4 5 15
M TOR 26 3 6 5 14
M TOR 27 3 6 5 15
M TOR 28 3 6 7 8
M TOR 29 3 6 7 17
M TOR 30 4 3 2 12
M TOR 31 4 3 6 7
M TOR 32 4 3 6 16
M TOR 33 4 5 6 7
M TOR 34 4 5 6 16
M TOR 35 5 4 3 13
M TOR 36 5 6 3 13
M TOR 37 5 6 7 8
M TOR 38 5 6 7 17
M TOR 39 6 3 2 12
M TOR 40 6 7 8 18
M TOR 41 7 1 0 9
M TOR 42 7 1 0 10
M TOR 43 7 1 0 11
M TOR 44 7 1 2 12
M TOR 45 7 6 3 13
M TOR 46 7 6 5 14
M TOR 47 7 6 5 15
M TOR 48 8 7 6 16
M  END
$$$$
