gdb 1976	2.3120376	2.070044	1.5170324	0.9793	73.67	-0.24028	0.07702	0.3173	950.4701	0.157012	-422.518168	-422.510377	-422.509433	-422.549696	31.849
 OpenBabel02181911403D

 19 21  0  0  1  0  0  0  0  0999 V2000
    0.0816    0.3732    0.2559 C   0  0  0  0  0  0  0  0  0  0  0  0
    1.5629    0.1584    0.1316 C   0  0  2  0  0  0  0  0  0  0  0  0
    2.4739    0.8938   -0.8813 C   0  0  0  0  0  0  0  0  0  0  0  0
    3.2694   -0.4045   -0.6554 C   0  0  2  0  0  0  0  0  0  0  0  0
    1.9714   -1.1033   -0.5419 O   0  0  0  0  0  0  0  0  0  0  0  0
    3.7322   -0.3651    0.8107 C   0  0  1  0  0  0  0  0  0  0  0  0
    3.6014    0.9108    1.6336 C   0  0  0  0  0  0  0  0  0  0  0  0
    2.4076    0.0375    1.4318 C   0  0  1  0  0  0  0  0  0  0  0  0
    1.8300   -0.5855    2.5305 O   0  0  0  0  0  0  0  0  0  0  0  0
   -0.3586   -0.3506    0.9473 H   0  0  0  0  0  0  0  0  0  0  0  0
   -0.1175    1.3740    0.6525 H   0  0  0  0  0  0  0  0  0  0  0  0
   -0.4068    0.2760   -0.7168 H   0  0  0  0  0  0  0  0  0  0  0  0
    2.0117    0.9014   -1.8688 H   0  0  0  0  0  0  0  0  0  0  0  0
    2.9046    1.8682   -0.6485 H   0  0  0  0  0  0  0  0  0  0  0  0
    3.9320   -0.8397   -1.4025 H   0  0  0  0  0  0  0  0  0  0  0  0
    4.3156   -1.1876    1.2065 H   0  0  0  0  0  0  0  0  0  0  0  0
    4.0376    0.8410    2.6256 H   0  0  0  0  0  0  0  0  0  0  0  0
    3.6813    1.8961    1.1894 H   0  0  0  0  0  0  0  0  0  0  0  0
    1.6049   -1.4837    2.2581 H   0  0  0  0  0  0  0  0  0  0  0  0
  1 11  1  0  0  0  0
  1 10  1  0  0  0  0
  2  1  1  1  0  0  0
  2  8  1  0  0  0  0
  3  4  1  0  0  0  0
  3 14  1  0  0  0  0
  3  2  1  0  0  0  0
  4 15  1  6  0  0  0
  4  5  1  0  0  0  0
  4  6  1  0  0  0  0
  5  2  1  0  0  0  0
  6 16  1  1  0  0  0
  6  8  1  0  0  0  0
  6  7  1  0  0  0  0
  7 17  1  0  0  0  0
  8  7  1  0  0  0  0
  8  9  1  1  0  0  0
 12  1  1  0  0  0  0
 13  3  1  0  0  0  0
 18  7  1  0  0  0  0
 19  9  1  0  0  0  0
M TOR 0 0 1 2 3
M TOR 1 0 1 2 12
M TOR 2 0 1 2 13
M TOR 3 0 1 4 3
M TOR 4 0 1 7 5
M TOR 5 0 1 7 6
M TOR 6 0 1 7 8
M TOR 7 1 2 3 4
M TOR 8 1 2 3 5
M TOR 9 1 2 3 14
M TOR 10 1 4 3 5
M TOR 11 1 4 3 14
M TOR 12 1 7 5 3
M TOR 13 1 7 5 6
M TOR 14 1 7 5 15
M TOR 15 1 7 6 16
M TOR 16 1 7 6 17
M TOR 17 1 7 8 18
M TOR 18 2 1 0 9
M TOR 19 2 1 0 10
M TOR 20 2 1 0 11
M TOR 21 2 1 7 5
M TOR 22 2 1 7 6
M TOR 23 2 1 7 8
M TOR 24 2 3 5 6
M TOR 25 2 3 5 7
M TOR 26 2 3 5 15
M TOR 27 3 2 1 7
M TOR 28 3 4 1 7
M TOR 29 3 5 6 7
M TOR 30 3 5 6 16
M TOR 31 3 5 6 17
M TOR 32 3 5 7 8
M TOR 33 4 1 0 9
M TOR 34 4 1 0 10
M TOR 35 4 1 0 11
M TOR 36 4 1 2 12
M TOR 37 4 1 2 13
M TOR 38 4 1 7 5
M TOR 39 4 1 7 6
M TOR 40 4 1 7 8
M TOR 41 4 3 2 12
M TOR 42 4 3 2 13
M TOR 43 4 3 5 6
M TOR 44 4 3 5 7
M TOR 45 4 3 5 15
M TOR 46 5 3 2 12
M TOR 47 5 3 2 13
M TOR 48 5 6 7 8
M TOR 49 5 7 6 16
M TOR 50 5 7 6 17
M TOR 51 5 7 8 18
M TOR 52 6 5 3 14
M TOR 53 6 7 5 15
M TOR 54 6 7 8 18
M TOR 55 7 1 0 9
M TOR 56 7 1 0 10
M TOR 57 7 1 0 11
M TOR 58 7 1 2 12
M TOR 59 7 1 2 13
M TOR 60 7 5 3 14
M TOR 61 8 7 5 15
M TOR 62 8 7 6 16
M TOR 63 8 7 6 17
M  END
$$$$
