gdb 5754	4.6317546	1.2283867	1.1509275	0.7195	75.66	-0.24584	0.10084	0.34668	1124.6111	0.158254	-422.511737	-422.504248	-422.503304	-422.5438	29.02
 OpenBabel02181911423D

 19 21  0  0  1  0  0  0  0  0999 V2000
    1.3889   -0.0683   -0.0637 C   0  0  0  0  0  0  0  0  0  0  0  0
   -0.0163    0.0645    0.0551 O   0  0  0  0  0  0  0  0  0  0  0  0
   -0.4196    0.7269    1.2119 C   0  0  1  0  0  0  0  0  0  0  0  0
   -0.0261    2.1076    1.2145 O   0  0  0  0  0  0  0  0  0  0  0  0
   -1.2746    2.7765    1.1477 C   0  0  1  0  0  0  0  0  0  0  0  0
   -2.2649    2.0186    0.2188 C   0  0  2  0  0  0  0  0  0  0  0  0
   -3.4296    2.4590    1.1358 C   0  0  0  0  0  0  0  0  0  0  0  0
   -2.2887    2.0991    2.1152 C   0  0  1  0  0  0  0  0  0  0  0  0
   -1.9345    0.8616    1.2248 C   0  0  2  0  0  0  0  0  0  0  0  0
    1.8126   -0.6141    0.7932 H   0  0  0  0  0  0  0  0  0  0  0  0
    1.5806   -0.6368   -0.9762 H   0  0  0  0  0  0  0  0  0  0  0  0
    1.8772    0.9106   -0.1339 H   0  0  0  0  0  0  0  0  0  0  0  0
    0.0206    0.2458    2.0999 H   0  0  0  0  0  0  0  0  0  0  0  0
   -1.1412    3.8566    1.1023 H   0  0  0  0  0  0  0  0  0  0  0  0
   -2.2374    1.9568   -0.8682 H   0  0  0  0  0  0  0  0  0  0  0  0
   -3.7276    3.5107    1.0900 H   0  0  0  0  0  0  0  0  0  0  0  0
   -4.3057    1.8064    1.1518 H   0  0  0  0  0  0  0  0  0  0  0  0
   -2.2896    2.1424    3.2051 H   0  0  0  0  0  0  0  0  0  0  0  0
   -2.5399   -0.0433    1.2521 H   0  0  0  0  0  0  0  0  0  0  0  0
  1  2  1  0  0  0  0
  1 10  1  0  0  0  0
  2  3  1  0  0  0  0
  3  4  1  0  0  0  0
  3  9  1  0  0  0  0
  3 13  1  1  0  0  0
  5 14  1  6  0  0  0
  5  4  1  0  0  0  0
  5  8  1  0  0  0  0
  6 15  1  6  0  0  0
  6  7  1  0  0  0  0
  6  5  1  0  0  0  0
  6  9  1  0  0  0  0
  7 17  1  0  0  0  0
  7  8  1  0  0  0  0
  8 18  1  1  0  0  0
  9 19  1  1  0  0  0
  9  8  1  0  0  0  0
 11  1  1  0  0  0  0
 12  1  1  0  0  0  0
 16  7  1  0  0  0  0
M TOR 0 0 1 2 3
M TOR 1 0 1 2 8
M TOR 2 0 1 2 12
M TOR 3 1 2 3 4
M TOR 4 1 2 8 5
M TOR 5 1 2 8 7
M TOR 6 1 2 8 18
M TOR 7 2 1 0 9
M TOR 8 2 1 0 10
M TOR 9 2 1 0 11
M TOR 10 2 3 4 5
M TOR 11 2 3 4 7
M TOR 12 2 3 4 13
M TOR 13 2 8 5 4
M TOR 14 2 8 5 6
M TOR 15 2 8 5 14
M TOR 16 2 8 7 4
M TOR 17 2 8 7 6
M TOR 18 2 8 7 17
M TOR 19 3 2 8 5
M TOR 20 3 2 8 7
M TOR 21 3 2 8 18
M TOR 22 3 4 5 6
M TOR 23 3 4 5 8
M TOR 24 3 4 5 14
M TOR 25 3 4 7 6
M TOR 26 3 4 7 8
M TOR 27 3 4 7 17
M TOR 28 4 3 2 8
M TOR 29 4 3 2 12
M TOR 30 4 5 6 7
M TOR 31 4 5 6 15
M TOR 32 4 5 6 16
M TOR 33 4 5 8 7
M TOR 34 4 5 8 18
M TOR 35 4 7 6 15
M TOR 36 4 7 6 16
M TOR 37 4 7 8 18
M TOR 38 5 4 7 17
M TOR 39 5 6 7 8
M TOR 40 5 6 7 17
M TOR 41 5 8 2 12
M TOR 42 5 8 7 17
M TOR 43 6 5 4 13
M TOR 44 6 5 8 18
M TOR 45 6 7 4 13
M TOR 46 6 7 8 18
M TOR 47 7 4 5 14
M TOR 48 7 6 5 14
M TOR 49 7 8 2 12
M TOR 50 7 8 5 14
M TOR 51 8 5 4 13
M TOR 52 8 5 6 15
M TOR 53 8 5 6 16
M TOR 54 8 7 4 13
M TOR 55 8 7 6 15
M TOR 56 8 7 6 16
M  END
$$$$
