gdb 4871	2.4724985	1.3124747	1.152408	1.0955	79.26	-0.22867	0.03119	0.25986000000000004	1174.127	0.152035	-422.493285	-422.482792	-422.481848	-422.528006	38.389
 OpenBabel02181911413D

 19 19  0  0  1  0  0  0  0  0999 V2000
    1.3700   -0.0867   -0.1495 C   0  0  0  0  0  0  0  0  0  0  0  0
   -0.0347    0.1000   -0.0450 O   0  0  0  0  0  0  0  0  0  0  0  0
   -0.4624    0.7320    1.1184 C   0  0  1  0  0  0  0  0  0  0  0  0
   -0.1036    2.1968    1.2427 C   0  0  0  0  0  0  0  0  0  0  0  0
   -1.7959    0.2436    1.6008 C   0  0  0  0  0  0  0  0  0  0  0  0
   -0.5373   -0.1491    2.3766 C   0  0  1  0  0  0  0  0  0  0  0  0
   -0.0571   -1.4548    2.2044 O   0  0  0  0  0  0  0  0  0  0  0  0
   -0.3046    0.4169    3.6791 C   0  0  0  0  0  0  0  0  0  0  0  0
   -0.1151    0.8552    4.7841 C   0  0  0  0  0  0  0  0  0  0  0  0
    1.7636   -0.6333    0.7140 H   0  0  0  0  0  0  0  0  0  0  0  0
    1.5335   -0.6774   -1.0537 H   0  0  0  0  0  0  0  0  0  0  0  0
    1.9066    0.8659   -0.2546 H   0  0  0  0  0  0  0  0  0  0  0  0
   -0.5279    2.6264    2.1519 H   0  0  0  0  0  0  0  0  0  0  0  0
    0.9796    2.3464    1.2833 H   0  0  0  0  0  0  0  0  0  0  0  0
   -0.4960    2.7428    0.3788 H   0  0  0  0  0  0  0  0  0  0  0  0
   -2.4855    0.9479    2.0518 H   0  0  0  0  0  0  0  0  0  0  0  0
   -2.2374   -0.5600    1.0224 H   0  0  0  0  0  0  0  0  0  0  0  0
   -0.5612   -2.0315    2.7893 H   0  0  0  0  0  0  0  0  0  0  0  0
    0.0633    1.2479    5.7544 H   0  0  0  0  0  0  0  0  0  0  0  0
  1  2  1  0  0  0  0
  1 10  1  0  0  0  0
  3  2  1  6  0  0  0
  3  4  1  0  0  0  0
  3  5  1  0  0  0  0
  3  6  1  0  0  0  0
  4 14  1  0  0  0  0
  4 13  1  0  0  0  0
  5 16  1  0  0  0  0
  5  6  1  0  0  0  0
  6  8  1  1  0  0  0
  7  6  1  0  0  0  0
  7 18  1  0  0  0  0
  8  9  3  0  0  0  0
  9 19  1  0  0  0  0
 11  1  1  0  0  0  0
 12  1  1  0  0  0  0
 15  4  1  0  0  0  0
 17  5  1  0  0  0  0
M TOR 0 0 1 2 3
M TOR 1 0 1 2 4
M TOR 2 0 1 2 5
M TOR 3 1 2 3 12
M TOR 4 1 2 3 13
M TOR 5 1 2 3 14
M TOR 6 1 2 4 5
M TOR 7 1 2 4 15
M TOR 8 1 2 4 16
M TOR 9 1 2 5 6
M TOR 10 1 2 5 7
M TOR 11 2 1 0 9
M TOR 12 2 1 0 10
M TOR 13 2 1 0 11
M TOR 14 2 4 5 6
M TOR 15 2 4 5 7
M TOR 16 2 5 4 15
M TOR 17 2 5 4 16
M TOR 18 2 5 6 17
M TOR 19 2 5 7 8
M TOR 20 3 2 4 5
M TOR 21 3 2 4 15
M TOR 22 3 2 4 16
M TOR 23 3 2 5 6
M TOR 24 3 2 5 7
M TOR 25 4 2 3 12
M TOR 26 4 2 3 13
M TOR 27 4 2 3 14
M TOR 28 4 5 6 17
M TOR 29 4 5 7 8
M TOR 30 5 2 3 12
M TOR 31 5 2 3 13
M TOR 32 5 2 3 14
M TOR 33 5 7 8 18
M TOR 34 6 5 4 15
M TOR 35 6 5 4 16
M TOR 36 6 5 7 8
M TOR 37 7 5 4 15
M TOR 38 7 5 4 16
M TOR 39 7 5 6 17
M  END
$$$$
