
     RDKit          3D

 19 19  0  0  0  0  0  0  0  0999 V2000
    0.4076   -1.0678   -0.0144 O   0  0  0  0  0  0  0  0  0  0  0  0
    0.5289    0.1175   -0.1762 C   0  0  0  0  0  0  0  0  0  0  0  0
   -0.1803    0.9218   -1.2461 C   0  0  0  0  0  0  0  0  0  0  0  0
   -0.9874    2.1007   -0.6477 C   0  0  0  0  0  0  0  0  0  0  0  0
   -1.5454    2.9402   -1.7863 C   0  0  0  0  0  0  0  0  0  0  0  0
   -1.1800    4.0522   -2.0633 O   0  0  0  0  0  0  0  0  0  0  0  0
   -2.1227    1.6206    0.2422 C   0  0  0  0  0  0  0  0  0  0  0  0
   -1.9114    1.4304    1.7248 C   0  0  0  0  0  0  0  0  0  0  0  0
   -2.7683    2.5657    1.2253 C   0  0  0  0  0  0  0  0  0  0  0  0
    1.2075    0.7209    0.4708 H   0  0  0  0  0  0  0  0  0  0  0  0
    0.5893    1.3229   -1.9207 H   0  0  0  0  0  0  0  0  0  0  0  0
   -0.8234    0.2473   -1.8198 H   0  0  0  0  0  0  0  0  0  0  0  0
   -0.3136    2.7524   -0.0790 H   0  0  0  0  0  0  0  0  0  0  0  0
   -2.3478    2.4336   -2.3729 H   0  0  0  0  0  0  0  0  0  0  0  0
   -2.7848    0.9034   -0.2369 H   0  0  0  0  0  0  0  0  0  0  0  0
   -2.3939    0.5861    2.2035 H   0  0  0  0  0  0  0  0  0  0  0  0
   -0.9386    1.6765    2.1374 H   0  0  0  0  0  0  0  0  0  0  0  0
   -3.8413    2.5052    1.3670 H   0  0  0  0  0  0  0  0  0  0  0  0
   -2.3667    3.5713    1.2953 H   0  0  0  0  0  0  0  0  0  0  0  0
  1  2  2  0
  2  3  1  0
  3  4  1  0
  4  5  1  0
  5  6  2  0
  4  7  1  0
  7  8  1  0
  8  9  1  0
  9  7  1  0
  2 10  1  0
  3 11  1  0
  3 12  1  0
  4 13  1  0
  5 14  1  0
  7 15  1  0
  8 16  1  0
  8 17  1  0
  9 18  1  0
  9 19  1  0
M  END
$$$$
