gdb 5585	3.1579428	1.2768652	1.0965369	1.4248	77.77	-0.21896	0.01341	0.23237	1170.7399	0.156077	-422.534937	-422.526176	-422.525232	-422.567978	33.127
 OpenBabel02181911423D

 19 20  0  0  1  0  0  0  0  0999 V2000
    1.4635   -0.1472   -0.1141 C   0  0  0  0  0  0  0  0  0  0  0  0
    0.0645    0.0779   -0.0517 O   0  0  0  0  0  0  0  0  0  0  0  0
   -0.3286    0.7289    1.1064 C   0  0  1  0  0  0  0  0  0  0  0  0
   -1.7370    0.4203    1.5409 C   0  0  2  0  0  0  0  0  0  0  0  0
   -2.4833    1.4461    2.3859 C   0  0  0  0  0  0  0  0  0  0  0  0
   -1.6348    1.5545    3.6394 C   0  0  0  0  0  0  0  0  0  0  0  0
   -0.6031    0.7060    3.6304 C   0  0  0  0  0  0  0  0  0  0  0  0
   -0.5476   -0.0876    2.3687 C   0  0  2  0  0  0  0  0  0  0  0  0
   -0.0843   -1.3984    2.3757 O   0  0  0  0  0  0  0  0  0  0  0  0
    1.7995   -0.7981    0.7011 H   0  0  0  0  0  0  0  0  0  0  0  0
    1.6634   -0.6313   -1.0729 H   0  0  0  0  0  0  0  0  0  0  0  0
    2.0235    0.7995   -0.0721 H   0  0  0  0  0  0  0  0  0  0  0  0
    0.0644    1.7425    1.2261 H   0  0  0  0  0  0  0  0  0  0  0  0
   -2.2699   -0.2642    0.8917 H   0  0  0  0  0  0  0  0  0  0  0  0
   -2.5713    2.4129    1.8733 H   0  0  0  0  0  0  0  0  0  0  0  0
   -3.5087    1.1277    2.6184 H   0  0  0  0  0  0  0  0  0  0  0  0
   -1.8508    2.2706    4.4243 H   0  0  0  0  0  0  0  0  0  0  0  0
    0.1450    0.5978    4.4076 H   0  0  0  0  0  0  0  0  0  0  0  0
   -0.7294   -1.9429    2.8404 H   0  0  0  0  0  0  0  0  0  0  0  0
  1 12  1  0  0  0  0
  1  2  1  0  0  0  0
  1 10  1  0  0  0  0
  2  3  1  0  0  0  0
  3 13  1  1  0  0  0
  3  4  1  0  0  0  0
  3  8  1  0  0  0  0
  4 14  1  6  0  0  0
  4  8  1  0  0  0  0
  4  5  1  0  0  0  0
  5 16  1  0  0  0  0
  5  6  1  0  0  0  0
  6 17  1  0  0  0  0
  7  6  2  0  0  0  0
  7 18  1  0  0  0  0
  8  9  1  1  0  0  0
  8  7  1  0  0  0  0
  9 19  1  0  0  0  0
 11  1  1  0  0  0  0
 15  5  1  0  0  0  0
M TOR 0 0 1 2 3
M TOR 1 0 1 2 7
M TOR 2 0 1 2 12
M TOR 3 1 2 3 4
M TOR 4 1 2 3 7
M TOR 5 1 2 3 13
M TOR 6 1 2 7 6
M TOR 7 1 2 7 8
M TOR 8 2 1 0 9
M TOR 9 2 1 0 10
M TOR 10 2 1 0 11
M TOR 11 2 3 4 5
M TOR 12 2 3 4 14
M TOR 13 2 3 4 15
M TOR 14 2 3 7 6
M TOR 15 2 3 7 8
M TOR 16 2 7 3 4
M TOR 17 2 7 3 13
M TOR 18 2 7 6 5
M TOR 19 2 7 6 17
M TOR 20 2 7 8 18
M TOR 21 3 4 5 6
M TOR 22 3 4 5 16
M TOR 23 3 7 2 12
M TOR 24 3 7 6 5
M TOR 25 3 7 6 17
M TOR 26 3 7 8 18
M TOR 27 4 3 2 12
M TOR 28 4 3 7 6
M TOR 29 4 3 7 8
M TOR 30 4 5 6 7
M TOR 31 4 5 6 17
M TOR 32 5 4 3 7
M TOR 33 5 4 3 13
M TOR 34 5 6 7 8
M TOR 35 6 5 4 14
M TOR 36 6 5 4 15
M TOR 37 6 7 2 12
M TOR 38 6 7 3 13
M TOR 39 6 7 8 18
M TOR 40 7 3 4 14
M TOR 41 7 3 4 15
M TOR 42 7 6 5 16
M TOR 43 8 7 2 12
M TOR 44 8 7 3 13
M TOR 45 8 7 6 17
M  END
$$$$
