gdb 1725	3.2407757	1.1968697	1.0911924	2.6618	78.36	-0.25115	-0.03876	0.21238999999999997	1175.924	0.15707	-422.590853	-422.582318	-422.581374	-422.624039	32.515
 OpenBabel02181911403D

 19 19  0  0  1  0  0  0  0  0999 V2000
    1.3466    2.0620   -1.3596 O   0  0  0  0  0  0  0  0  0  0  0  0
    2.3879    1.6885   -0.4793 C   0  0  1  0  0  0  0  0  0  0  0  0
    3.6529    1.2628   -1.2649 C   0  0  0  0  0  0  0  0  0  0  0  0
    4.4288    2.4887   -1.7542 C   0  0  0  0  0  0  0  0  0  0  0  0
    4.9169    3.3203   -0.5629 C   0  0  0  0  0  0  0  0  0  0  0  0
    3.8174    3.5408    0.4405 C   0  0  0  0  0  0  0  0  0  0  0  0
    2.6899    2.8314    0.4714 C   0  0  0  0  0  0  0  0  0  0  0  0
    1.9260    0.4935    0.3456 C   0  0  0  0  0  0  0  0  0  0  0  0
    0.8403   -0.0118    0.1950 O   0  0  0  0  0  0  0  0  0  0  0  0
    0.6411    1.4089   -1.2212 H   0  0  0  0  0  0  0  0  0  0  0  0
    4.3026    0.6533   -0.6212 H   0  0  0  0  0  0  0  0  0  0  0  0
    3.3300    0.6344   -2.0999 H   0  0  0  0  0  0  0  0  0  0  0  0
    5.2732    2.1795   -2.3781 H   0  0  0  0  0  0  0  0  0  0  0  0
    3.7653    3.0965   -2.3794 H   0  0  0  0  0  0  0  0  0  0  0  0
    5.7681    2.8227   -0.0732 H   0  0  0  0  0  0  0  0  0  0  0  0
    5.3012    4.2898   -0.9019 H   0  0  0  0  0  0  0  0  0  0  0  0
    3.9551    4.3471    1.1576 H   0  0  0  0  0  0  0  0  0  0  0  0
    1.9032    3.0748    1.1810 H   0  0  0  0  0  0  0  0  0  0  0  0
    2.6508    0.1130    1.0934 H   0  0  0  0  0  0  0  0  0  0  0  0
  1 10  1  0  0  0  0
  2  1  1  6  0  0  0
  2  8  1  0  0  0  0
  2  7  1  0  0  0  0
  3 11  1  0  0  0  0
  3  2  1  0  0  0  0
  4  3  1  0  0  0  0
  4  5  1  0  0  0  0
  5 15  1  0  0  0  0
  5  6  1  0  0  0  0
  6  7  2  0  0  0  0
  6 17  1  0  0  0  0
  7 18  1  0  0  0  0
  8 19  1  0  0  0  0
  9  8  2  0  0  0  0
 12  3  1  0  0  0  0
 13  4  1  0  0  0  0
 14  4  1  0  0  0  0
 16  5  1  0  0  0  0
M TOR 0 0 1 2 3
M TOR 1 0 1 2 10
M TOR 2 0 1 2 11
M TOR 3 0 1 6 5
M TOR 4 0 1 6 17
M TOR 5 0 1 7 8
M TOR 6 0 1 7 18
M TOR 7 1 2 3 4
M TOR 8 1 2 3 12
M TOR 9 1 2 3 13
M TOR 10 1 6 5 4
M TOR 11 1 6 5 16
M TOR 12 2 1 0 9
M TOR 13 2 1 6 5
M TOR 14 2 1 6 17
M TOR 15 2 1 7 8
M TOR 16 2 1 7 18
M TOR 17 2 3 4 5
M TOR 18 2 3 4 14
M TOR 19 2 3 4 15
M TOR 20 3 2 1 6
M TOR 21 3 2 1 7
M TOR 22 3 4 5 6
M TOR 23 3 4 5 16
M TOR 24 4 3 2 10
M TOR 25 4 3 2 11
M TOR 26 4 5 6 17
M TOR 27 5 4 3 12
M TOR 28 5 4 3 13
M TOR 29 5 6 1 7
M TOR 30 6 1 0 9
M TOR 31 6 1 2 10
M TOR 32 6 1 2 11
M TOR 33 6 1 7 8
M TOR 34 6 1 7 18
M TOR 35 6 5 4 14
M TOR 36 6 5 4 15
M TOR 37 7 1 0 9
M TOR 38 7 1 2 10
M TOR 39 7 1 2 11
M TOR 40 7 1 6 17
M  END
$$$$
