
     RDKit          3D

 19 21  0  0  0  0  0  0  0  0999 V2000
    0.3603    2.5814    0.4909 C   0  0  0  0  0  0  0  0  0  0  0  0
    1.8491    2.4885    0.0262 C   0  0  0  0  0  0  0  0  0  0  0  0
    2.1424    2.9208   -1.2814 O   0  0  0  0  0  0  0  0  0  0  0  0
    1.0651    2.9819   -2.2045 C   0  0  0  0  0  0  0  0  0  0  0  0
    0.2964    1.6585   -2.4472 C   0  0  0  0  0  0  0  0  0  0  0  0
    0.3570    0.6397   -1.3128 C   0  0  0  0  0  0  0  0  0  0  0  0
    1.7396    0.2340   -1.0923 O   0  0  0  0  0  0  0  0  0  0  0  0
    1.7383    0.9072    0.1601 C   0  0  0  0  0  0  0  0  0  0  0  0
    0.2046    1.0835    0.1846 C   0  0  0  0  0  0  0  0  0  0  0  0
    0.3195    2.7534    1.5707 H   0  0  0  0  0  0  0  0  0  0  0  0
   -0.3020    3.3033    0.0112 H   0  0  0  0  0  0  0  0  0  0  0  0
    2.5829    2.9664    0.6801 H   0  0  0  0  0  0  0  0  0  0  0  0
    0.3627    3.7708   -1.9048 H   0  0  0  0  0  0  0  0  0  0  0  0
    1.5245    3.3130   -3.1396 H   0  0  0  0  0  0  0  0  0  0  0  0
   -0.7502    1.8890   -2.6842 H   0  0  0  0  0  0  0  0  0  0  0  0
    0.7123    1.1471   -3.3223 H   0  0  0  0  0  0  0  0  0  0  0  0
   -0.2559   -0.2311   -1.5705 H   0  0  0  0  0  0  0  0  0  0  0  0
    2.3458    0.4208    0.9263 H   0  0  0  0  0  0  0  0  0  0  0  0
   -0.4738    0.4705    0.7780 H   0  0  0  0  0  0  0  0  0  0  0  0
  1  2  1  0
  2  3  1  0
  3  4  1  0
  4  5  1  0
  5  6  1  0
  6  7  1  0
  7  8  1  0
  8  9  1  0
  9  1  1  0
  8  2  1  0
  9  6  1  0
  1 10  1  0
  1 11  1  0
  2 12  1  0
  4 13  1  0
  4 14  1  0
  5 15  1  0
  5 16  1  0
  6 17  1  0
  8 18  1  0
  9 19  1  0
M  END
$$$$
