
     RDKit          3D

 19 20  0  0  0  0  0  0  0  0999 V2000
    1.0938   -0.3775   -0.1033 O   0  0  0  0  0  0  0  0  0  0  0  0
   -0.0363   -0.2684   -0.5095 C   0  0  0  0  0  0  0  0  0  0  0  0
   -0.7574    1.0375   -0.6924 C   0  0  0  0  0  0  0  0  0  0  0  0
   -1.7776    1.3958    0.4484 C   0  0  0  0  0  0  0  0  0  0  0  0
   -1.1970    2.8318    0.4648 C   0  0  0  0  0  0  0  0  0  0  0  0
   -2.0629    4.0124   -0.0277 C   0  0  0  0  0  0  0  0  0  0  0  0
   -1.8979    4.7159    1.2179 O   0  0  0  0  0  0  0  0  0  0  0  0
   -1.0625    3.6668    1.7490 C   0  0  0  0  0  0  0  0  0  0  0  0
    0.0071    2.3436   -0.3742 C   0  0  0  0  0  0  0  0  0  0  0  0
   -0.6463   -1.1714   -0.7447 H   0  0  0  0  0  0  0  0  0  0  0  0
   -1.2527    1.0403   -1.6690 H   0  0  0  0  0  0  0  0  0  0  0  0
   -2.8403    1.2907    0.2172 H   0  0  0  0  0  0  0  0  0  0  0  0
   -1.5636    0.8545    1.3755 H   0  0  0  0  0  0  0  0  0  0  0  0
   -1.6509    4.5757   -0.8761 H   0  0  0  0  0  0  0  0  0  0  0  0
   -3.1169    3.7792   -0.2323 H   0  0  0  0  0  0  0  0  0  0  0  0
   -0.0471    4.0206    1.9726 H   0  0  0  0  0  0  0  0  0  0  0  0
   -1.4910    3.2164    2.6546 H   0  0  0  0  0  0  0  0  0  0  0  0
    0.3017    2.9683   -1.2210 H   0  0  0  0  0  0  0  0  0  0  0  0
    0.8912    2.1318    0.2335 H   0  0  0  0  0  0  0  0  0  0  0  0
  1  2  2  0
  2  3  1  0
  3  4  1  0
  4  5  1  0
  5  6  1  0
  6  7  1  0
  7  8  1  0
  5  9  1  0
  9  3  1  0
  8  5  1  0
  2 10  1  0
  3 11  1  0
  4 12  1  0
  4 13  1  0
  6 14  1  0
  6 15  1  0
  8 16  1  0
  8 17  1  0
  9 18  1  0
  9 19  1  0
M  END
$$$$
