
     RDKit          3D

 19 20  0  0  0  0  0  0  0  0999 V2000
    0.1851   -2.9298   -1.1872 C   0  0  0  0  0  0  0  0  0  0  0  0
   -0.9691   -1.9458   -1.1894 C   0  0  0  0  0  0  0  0  0  0  0  0
   -2.3123   -2.3796   -1.7215 C   0  0  0  0  0  0  0  0  0  0  0  0
   -1.4705   -1.3962   -2.5018 C   0  0  0  0  0  0  0  0  0  0  0  0
   -0.9580   -1.0312    0.0178 C   0  0  0  0  0  0  0  0  0  0  0  0
   -2.0192   -0.0422    0.0471 O   0  0  0  0  0  0  0  0  0  0  0  0
   -1.1173    1.0844    0.0718 C   0  0  0  0  0  0  0  0  0  0  0  0
    0.0692    0.1155    0.0162 C   0  0  0  0  0  0  0  0  0  0  0  0
    1.2573    0.2062   -0.0341 O   0  0  0  0  0  0  0  0  0  0  0  0
    0.1428   -3.5883   -0.3113 H   0  0  0  0  0  0  0  0  0  0  0  0
    0.1570   -3.5617   -2.0796 H   0  0  0  0  0  0  0  0  0  0  0  0
    1.1484   -2.4093   -1.1684 H   0  0  0  0  0  0  0  0  0  0  0  0
   -2.4014   -3.3957   -2.0913 H   0  0  0  0  0  0  0  0  0  0  0  0
   -3.1992   -1.9899   -1.2352 H   0  0  0  0  0  0  0  0  0  0  0  0
   -0.9818   -1.7339   -3.4091 H   0  0  0  0  0  0  0  0  0  0  0  0
   -1.8204   -0.3704   -2.5298 H   0  0  0  0  0  0  0  0  0  0  0  0
   -0.9419   -1.6231    0.9458 H   0  0  0  0  0  0  0  0  0  0  0  0
   -1.2316    1.7463   -0.7958 H   0  0  0  0  0  0  0  0  0  0  0  0
   -1.1948    1.6735    0.9943 H   0  0  0  0  0  0  0  0  0  0  0  0
  1  2  1  0
  2  3  1  0
  3  4  1  0
  2  5  1  0
  5  6  1  0
  6  7  1  0
  7  8  1  0
  8  9  2  0
  4  2  1  0
  8  5  1  0
  1 10  1  0
  1 11  1  0
  1 12  1  0
  3 13  1  0
  3 14  1  0
  4 15  1  0
  4 16  1  0
  5 17  1  0
  7 18  1  0
  7 19  1  0
M  END
$$$$
