
     RDKit          3D

 19 19  0  0  0  0  0  0  0  0999 V2000
   -3.6002    0.1836   -2.2468 C   0  0  0  0  0  0  0  0  0  0  0  0
   -2.7885    0.0254   -0.9493 C   0  0  0  0  0  0  0  0  0  0  0  0
   -3.7309   -0.3082    0.2280 C   0  0  0  0  0  0  0  0  0  0  0  0
   -1.7437   -1.0803   -1.1488 C   0  0  0  0  0  0  0  0  0  0  0  0
   -0.7795   -1.1533   -0.0899 O   0  0  0  0  0  0  0  0  0  0  0  0
   -0.1570   -0.0033    0.2895 C   0  0  0  0  0  0  0  0  0  0  0  0
    0.8275   -0.0577    0.9798 O   0  0  0  0  0  0  0  0  0  0  0  0
   -0.8006    1.2657   -0.1220 C   0  0  0  0  0  0  0  0  0  0  0  0
   -2.0281    1.2945   -0.6449 C   0  0  0  0  0  0  0  0  0  0  0  0
   -4.1106   -0.7512   -2.5021 H   0  0  0  0  0  0  0  0  0  0  0  0
   -4.3642    0.9591   -2.1317 H   0  0  0  0  0  0  0  0  0  0  0  0
   -2.9599    0.4628   -3.0897 H   0  0  0  0  0  0  0  0  0  0  0  0
   -4.3427   -1.1853   -0.0102 H   0  0  0  0  0  0  0  0  0  0  0  0
   -3.1617   -0.5217    1.1362 H   0  0  0  0  0  0  0  0  0  0  0  0
   -4.4066    0.5271    0.4373 H   0  0  0  0  0  0  0  0  0  0  0  0
   -2.2119   -2.0677   -1.1793 H   0  0  0  0  0  0  0  0  0  0  0  0
   -1.2134   -0.9205   -2.0970 H   0  0  0  0  0  0  0  0  0  0  0  0
   -0.2406    2.1606    0.1221 H   0  0  0  0  0  0  0  0  0  0  0  0
   -2.5242    2.2425   -0.8439 H   0  0  0  0  0  0  0  0  0  0  0  0
  1  2  1  0
  2  3  1  0
  2  4  1  0
  4  5  1  0
  5  6  1  0
  6  7  2  0
  6  8  1  0
  8  9  2  0
  9  2  1  0
  1 10  1  0
  1 11  1  0
  1 12  1  0
  3 13  1  0
  3 14  1  0
  3 15  1  0
  4 16  1  0
  4 17  1  0
  8 18  1  0
  9 19  1  0
M  END
$$$$
