
     RDKit          3D

 19 20  0  0  0  0  0  0  0  0999 V2000
    0.1801   -0.0481    0.2954 O   0  0  0  0  0  0  0  0  0  0  0  0
   -1.0359    0.6488    0.2005 C   0  0  0  0  0  0  0  0  0  0  0  0
   -1.0239    2.1071    0.7329 C   0  0  0  0  0  0  0  0  0  0  0  0
   -2.3986    2.2532    1.3328 C   0  0  0  0  0  0  0  0  0  0  0  0
   -3.0247    1.0824    1.4663 C   0  0  0  0  0  0  0  0  0  0  0  0
   -2.1752   -0.0545    0.9922 C   0  0  0  0  0  0  0  0  0  0  0  0
   -2.7990   -1.3313    0.3842 C   0  0  0  0  0  0  0  0  0  0  0  0
   -2.1257   -2.0784    1.5464 C   0  0  0  0  0  0  0  0  0  0  0  0
   -1.6068   -0.8448    2.0991 O   0  0  0  0  0  0  0  0  0  0  0  0
    0.1652   -0.4483    1.1787 H   0  0  0  0  0  0  0  0  0  0  0  0
   -1.3203    0.6659   -0.8588 H   0  0  0  0  0  0  0  0  0  0  0  0
   -0.2409    2.2291    1.4922 H   0  0  0  0  0  0  0  0  0  0  0  0
   -0.8149    2.8399   -0.0539 H   0  0  0  0  0  0  0  0  0  0  0  0
   -2.8087    3.2123    1.6322 H   0  0  0  0  0  0  0  0  0  0  0  0
   -4.0045    0.9303    1.9050 H   0  0  0  0  0  0  0  0  0  0  0  0
   -3.8904   -1.3510    0.3872 H   0  0  0  0  0  0  0  0  0  0  0  0
   -2.4350   -1.5844   -0.6131 H   0  0  0  0  0  0  0  0  0  0  0  0
   -2.7962   -2.5797    2.2530 H   0  0  0  0  0  0  0  0  0  0  0  0
   -1.3216   -2.7668    1.2636 H   0  0  0  0  0  0  0  0  0  0  0  0
  1  2  1  0
  2  3  1  0
  3  4  1  0
  4  5  2  0
  5  6  1  0
  6  7  1  0
  7  8  1  0
  8  9  1  0
  6  2  1  0
  9  6  1  0
  1 10  1  0
  2 11  1  0
  3 12  1  0
  3 13  1  0
  4 14  1  0
  5 15  1  0
  7 16  1  0
  7 17  1  0
  8 18  1  0
  8 19  1  0
M  END
$$$$
