gdb 751	2.5778391	1.5788667	1.1476794	2.3474	75.09	-0.23266	-0.01451	0.21815	1093.4368	0.15844	-422.558074	-422.550113	-422.549168	-422.59094	30.517
 OpenBabel02181911403D

 19 20  0  0  1  0  0  0  0  0999 V2000
   -1.3965   -0.4796   -2.4124 O   0  0  0  0  0  0  0  0  0  0  0  0
   -1.7633    0.0742   -1.4040 C   0  0  0  0  0  0  0  0  0  0  0  0
   -1.1539    1.4204   -0.9872 C   0  0  0  0  0  0  0  0  0  0  0  0
   -1.4682    1.8331    0.3239 O   0  0  0  0  0  0  0  0  0  0  0  0
   -0.7334    1.1551    1.3299 C   0  0  0  0  0  0  0  0  0  0  0  0
   -1.2519   -0.2330    1.6770 C   0  0  1  0  0  0  0  0  0  0  0  0
   -2.6589   -0.4710    2.1581 C   0  0  0  0  0  0  0  0  0  0  0  0
   -2.2308   -1.0130    0.8163 C   0  0  1  0  0  0  0  0  0  0  0  0
   -2.8374   -0.4590   -0.4747 C   0  0  0  0  0  0  0  0  0  0  0  0
   -0.0681    1.3816   -1.1583 H   0  0  0  0  0  0  0  0  0  0  0  0
   -1.5640    2.1811   -1.6629 H   0  0  0  0  0  0  0  0  0  0  0  0
    0.3228    1.0813    1.0261 H   0  0  0  0  0  0  0  0  0  0  0  0
   -0.7740    1.8013    2.2139 H   0  0  0  0  0  0  0  0  0  0  0  0
   -0.4895   -0.8414    2.1580 H   0  0  0  0  0  0  0  0  0  0  0  0
   -2.8195   -1.1580    2.9818 H   0  0  0  0  0  0  0  0  0  0  0  0
   -3.3383    0.3761    2.1395 H   0  0  0  0  0  0  0  0  0  0  0  0
   -2.0298   -2.0785    0.7661 H   0  0  0  0  0  0  0  0  0  0  0  0
   -3.3878   -1.2453   -0.9960 H   0  0  0  0  0  0  0  0  0  0  0  0
   -3.5266    0.3592   -0.2427 H   0  0  0  0  0  0  0  0  0  0  0  0
  1  2  2  0  0  0  0
  2  3  1  0  0  0  0
  2  9  1  0  0  0  0
  3  4  1  0  0  0  0
  4  5  1  0  0  0  0
  5  6  1  0  0  0  0
  5 13  1  0  0  0  0
  6 14  1  1  0  0  0
  6  7  1  0  0  0  0
  7 15  1  0  0  0  0
  8 17  1  6  0  0  0
  8  6  1  0  0  0  0
  8  7  1  0  0  0  0
  9 19  1  0  0  0  0
  9  8  1  0  0  0  0
 10  3  1  0  0  0  0
 11  3  1  0  0  0  0
 12  5  1  0  0  0  0
 16  7  1  0  0  0  0
 18  9  1  0  0  0  0
M TOR 0 0 1 2 3
M TOR 1 0 1 2 9
M TOR 2 0 1 2 10
M TOR 3 0 1 8 7
M TOR 4 0 1 8 17
M TOR 5 0 1 8 18
M TOR 6 1 2 3 4
M TOR 7 1 8 7 5
M TOR 8 1 8 7 6
M TOR 9 1 8 7 16
M TOR 10 2 1 8 7
M TOR 11 2 1 8 17
M TOR 12 2 1 8 18
M TOR 13 2 3 4 5
M TOR 14 2 3 4 11
M TOR 15 2 3 4 12
M TOR 16 3 2 1 8
M TOR 17 3 4 5 6
M TOR 18 3 4 5 7
M TOR 19 3 4 5 13
M TOR 20 4 3 2 9
M TOR 21 4 3 2 10
M TOR 22 4 5 6 7
M TOR 23 4 5 6 14
M TOR 24 4 5 6 15
M TOR 25 4 5 7 8
M TOR 26 4 5 7 16
M TOR 27 5 6 7 8
M TOR 28 5 6 7 16
M TOR 29 5 7 6 14
M TOR 30 5 7 6 15
M TOR 31 5 7 8 17
M TOR 32 5 7 8 18
M TOR 33 6 5 4 11
M TOR 34 6 5 4 12
M TOR 35 6 7 5 13
M TOR 36 6 7 8 17
M TOR 37 6 7 8 18
M TOR 38 7 5 4 11
M TOR 39 7 5 4 12
M TOR 40 8 1 2 9
M TOR 41 8 1 2 10
M TOR 42 8 7 5 13
M TOR 43 8 7 6 14
M TOR 44 8 7 6 15
M  END
$$$$
