gdb 3795	3.005098	1.0642493	0.8417011	1.0522	77.59	-0.25048	-0.03061	0.21986999999999998	1389.751	0.155117	-422.535647	-422.526514	-422.52557	-422.570408	32.88
 OpenBabel02181911413D

 19 20  0  0  1  0  0  0  0  0999 V2000
    0.3012    3.7001    2.5425 C   0  0  0  0  0  0  0  0  0  0  0  0
   -0.2547    3.1989    1.2289 C   0  0  2  0  0  0  0  0  0  0  0  0
   -1.7294    3.2601    0.9343 C   0  0  0  0  0  0  0  0  0  0  0  0
   -1.0651    1.9228    1.1832 C   0  0  1  0  0  0  0  0  0  0  0  0
   -0.8702    0.9600    0.0539 C   0  0  2  0  0  0  0  0  0  0  0  0
   -1.9835    0.0451   -0.1604 O   0  0  0  0  0  0  0  0  0  0  0  0
   -1.1822   -1.1417   -0.0098 C   0  0  0  0  0  0  0  0  0  0  0  0
    0.0392   -0.2643    0.2882 C   0  0  0  0  0  0  0  0  0  0  0  0
    1.1775   -0.4405    0.5949 O   0  0  0  0  0  0  0  0  0  0  0  0
    1.2472    3.2058    2.7876 H   0  0  0  0  0  0  0  0  0  0  0  0
    0.4844    4.7796    2.5068 H   0  0  0  0  0  0  0  0  0  0  0  0
   -0.3980    3.5099    3.3637 H   0  0  0  0  0  0  0  0  0  0  0  0
    0.3985    3.3626    0.3751 H   0  0  0  0  0  0  0  0  0  0  0  0
   -2.3901    3.6377    1.7075 H   0  0  0  0  0  0  0  0  0  0  0  0
   -2.0512    3.4866   -0.0767 H   0  0  0  0  0  0  0  0  0  0  0  0
   -1.2741    1.4513    2.1398 H   0  0  0  0  0  0  0  0  0  0  0  0
   -0.6196    1.4967   -0.8737 H   0  0  0  0  0  0  0  0  0  0  0  0
   -1.5179   -1.7877    0.8114 H   0  0  0  0  0  0  0  0  0  0  0  0
   -1.1085   -1.7357   -0.9304 H   0  0  0  0  0  0  0  0  0  0  0  0
  1 10  1  0  0  0  0
  1 12  1  0  0  0  0
  2 13  1  6  0  0  0
  2  1  1  0  0  0  0
  3  4  1  0  0  0  0
  3  2  1  0  0  0  0
  3 14  1  0  0  0  0
  4  2  1  0  0  0  0
  4 16  1  1  0  0  0
  5 17  1  6  0  0  0
  5  8  1  0  0  0  0
  5  4  1  0  0  0  0
  6  7  1  0  0  0  0
  6  5  1  0  0  0  0
  7  8  1  0  0  0  0
  7 18  1  0  0  0  0
  8  9  2  0  0  0  0
 11  1  1  0  0  0  0
 15  3  1  0  0  0  0
 19  7  1  0  0  0  0
M TOR 0 0 1 2 3
M TOR 1 0 1 2 13
M TOR 2 0 1 2 14
M TOR 3 0 1 3 4
M TOR 4 0 1 3 15
M TOR 5 1 2 3 4
M TOR 6 1 2 3 15
M TOR 7 1 3 2 13
M TOR 8 1 3 2 14
M TOR 9 1 3 4 5
M TOR 10 1 3 4 7
M TOR 11 1 3 4 16
M TOR 12 2 1 0 9
M TOR 13 2 1 0 10
M TOR 14 2 1 0 11
M TOR 15 2 3 1 12
M TOR 16 2 3 4 5
M TOR 17 2 3 4 7
M TOR 18 2 3 4 16
M TOR 19 3 1 0 9
M TOR 20 3 1 0 10
M TOR 21 3 1 0 11
M TOR 22 3 4 5 6
M TOR 23 3 4 7 6
M TOR 24 3 4 7 8
M TOR 25 4 3 1 12
M TOR 26 4 3 2 13
M TOR 27 4 3 2 14
M TOR 28 4 5 6 7
M TOR 29 4 5 6 17
M TOR 30 4 5 6 18
M TOR 31 4 7 6 17
M TOR 32 4 7 6 18
M TOR 33 5 4 3 15
M TOR 34 5 4 7 8
M TOR 35 5 6 7 8
M TOR 36 6 5 4 16
M TOR 37 6 7 4 16
M TOR 38 7 4 3 15
M TOR 39 8 7 4 16
M TOR 40 8 7 6 17
M TOR 41 8 7 6 18
M  END
$$$$
