
     RDKit          3D

 19 19  0  0  0  0  0  0  0  0999 V2000
    1.5251    0.0211   -0.0756 C   0  0  0  0  0  0  0  0  0  0  0  0
    0.0733    0.0375    0.0433 C   0  0  0  0  0  0  0  0  0  0  0  0
   -1.1269    0.0125    0.1544 C   0  0  0  0  0  0  0  0  0  0  0  0
   -2.5804    0.0709    0.2640 C   0  0  0  0  0  0  0  0  0  0  0  0
   -3.0777    1.5344    0.3316 C   0  0  0  0  0  0  0  0  0  0  0  0
   -2.6238    2.2888   -0.7747 O   0  0  0  0  0  0  0  0  0  0  0  0
   -4.5875    1.5862    0.3061 C   0  0  0  0  0  0  0  0  0  0  0  0
   -5.3445    2.5165    1.1474 C   0  0  0  0  0  0  0  0  0  0  0  0
   -5.2394    1.1313    1.4919 O   0  0  0  0  0  0  0  0  0  0  0  0
    1.9461   -0.8837    0.3763 H   0  0  0  0  0  0  0  0  0  0  0  0
    1.8413    0.0455   -1.1241 H   0  0  0  0  0  0  0  0  0  0  0  0
    1.9769    0.8826    0.4281 H   0  0  0  0  0  0  0  0  0  0  0  0
   -3.0399   -0.4179   -0.6052 H   0  0  0  0  0  0  0  0  0  0  0  0
   -2.9302   -0.4605    1.1564 H   0  0  0  0  0  0  0  0  0  0  0  0
   -2.7284    1.9687    1.2820 H   0  0  0  0  0  0  0  0  0  0  0  0
   -1.6840    2.0919   -0.8794 H   0  0  0  0  0  0  0  0  0  0  0  0
   -5.0361    1.2425   -0.6274 H   0  0  0  0  0  0  0  0  0  0  0  0
   -4.8087    3.2022    1.8021 H   0  0  0  0  0  0  0  0  0  0  0  0
   -6.3341    2.8450    0.8345 H   0  0  0  0  0  0  0  0  0  0  0  0
  1  2  1  0
  2  3  3  0
  3  4  1  0
  4  5  1  0
  5  6  1  0
  5  7  1  0
  7  8  1  0
  8  9  1  0
  9  7  1  0
  1 10  1  0
  1 11  1  0
  1 12  1  0
  4 13  1  0
  4 14  1  0
  5 15  1  0
  6 16  1  0
  7 17  1  0
  8 18  1  0
  8 19  1  0
M  END
$$$$
