gdb 1432	3.5518383	1.2073403	1.1768637	4.2131	75.19	-0.26437	0.01126	0.27563	1138.8433	0.156561	-422.595052	-422.586481	-422.585537	-422.627942	32.502
 OpenBabel02181911403D

 19 20  0  0  1  0  0  0  0  0999 V2000
   -1.4165    0.1554    2.5757 C   0  0  0  0  0  0  0  0  0  0  0  0
   -2.3743    0.0245    1.4085 C   0  0  0  0  0  0  0  0  0  0  0  0
   -3.8407    0.0584    1.8030 C   0  0  0  0  0  0  0  0  0  0  0  0
   -2.0571   -0.8628    0.2050 C   0  0  2  0  0  0  0  0  0  0  0  0
   -0.6264   -1.2756   -0.0595 C   0  0  0  0  0  0  0  0  0  0  0  0
    0.1334    0.0412   -0.2594 C   0  0  0  0  0  0  0  0  0  0  0  0
    1.3022    0.2025   -0.4442 O   0  0  0  0  0  0  0  0  0  0  0  0
   -0.7423    1.0911   -0.1701 O   0  0  0  0  0  0  0  0  0  0  0  0
   -2.0610    0.6422    0.0689 C   0  0  2  0  0  0  0  0  0  0  0  0
   -1.5226   -0.6975    3.2554 H   0  0  0  0  0  0  0  0  0  0  0  0
   -0.3692    0.2137    2.2735 H   0  0  0  0  0  0  0  0  0  0  0  0
   -1.6385    1.0638    3.1462 H   0  0  0  0  0  0  0  0  0  0  0  0
   -4.0877   -0.7846    2.4583 H   0  0  0  0  0  0  0  0  0  0  0  0
   -4.0791    0.9828    2.3406 H   0  0  0  0  0  0  0  0  0  0  0  0
   -4.4965    0.0008    0.9283 H   0  0  0  0  0  0  0  0  0  0  0  0
   -2.8582   -1.4614   -0.2123 H   0  0  0  0  0  0  0  0  0  0  0  0
   -0.1451   -1.8388    0.7451 H   0  0  0  0  0  0  0  0  0  0  0  0
   -0.5336   -1.8743   -0.9709 H   0  0  0  0  0  0  0  0  0  0  0  0
   -2.7942    1.2135   -0.4877 H   0  0  0  0  0  0  0  0  0  0  0  0
  1 12  1  0  0  0  0
  1 10  1  0  0  0  0
  2  3  1  0  0  0  0
  2  1  1  0  0  0  0
  3 14  1  0  0  0  0
  3 13  1  0  0  0  0
  4 16  1  6  0  0  0
  4  2  1  0  0  0  0
  5  4  1  0  0  0  0
  5 17  1  0  0  0  0
  6  8  1  0  0  0  0
  6  5  1  0  0  0  0
  7  6  2  0  0  0  0
  8  9  1  0  0  0  0
  9 19  1  6  0  0  0
  9  4  1  0  0  0  0
  9  2  1  0  0  0  0
 11  1  1  0  0  0  0
 15  3  1  0  0  0  0
 18  5  1  0  0  0  0
M TOR 0 0 1 2 12
M TOR 1 0 1 2 13
M TOR 2 0 1 2 14
M TOR 3 0 1 3 4
M TOR 4 0 1 3 8
M TOR 5 0 1 3 15
M TOR 6 0 1 8 7
M TOR 7 0 1 8 18
M TOR 8 1 3 4 5
M TOR 9 1 3 4 16
M TOR 10 1 3 4 17
M TOR 11 1 3 8 7
M TOR 12 1 3 8 18
M TOR 13 1 8 3 4
M TOR 14 1 8 3 15
M TOR 15 1 8 7 5
M TOR 16 2 1 0 9
M TOR 17 2 1 0 10
M TOR 18 2 1 0 11
M TOR 19 2 1 3 4
M TOR 20 2 1 3 8
M TOR 21 2 1 3 15
M TOR 22 2 1 8 7
M TOR 23 2 1 8 18
M TOR 24 3 1 0 9
M TOR 25 3 1 0 10
M TOR 26 3 1 0 11
M TOR 27 3 1 2 12
M TOR 28 3 1 2 13
M TOR 29 3 1 2 14
M TOR 30 3 4 5 6
M TOR 31 3 4 5 7
M TOR 32 3 8 7 5
M TOR 33 4 3 8 7
M TOR 34 4 3 8 18
M TOR 35 4 5 7 8
M TOR 36 5 4 3 8
M TOR 37 5 4 3 15
M TOR 38 5 7 8 18
M TOR 39 6 5 4 16
M TOR 40 6 5 4 17
M TOR 41 6 5 7 8
M TOR 42 7 5 4 16
M TOR 43 7 5 4 17
M TOR 44 7 8 3 15
M TOR 45 8 1 0 9
M TOR 46 8 1 0 10
M TOR 47 8 1 0 11
M TOR 48 8 1 2 12
M TOR 49 8 1 2 13
M TOR 50 8 1 2 14
M TOR 51 8 3 4 16
M TOR 52 8 3 4 17
M  END
$$$$
