gdb 2724	2.4748406	1.7798701	1.3048296	1.7531	75.54	-0.22807	0.00711	0.23518	1023.7591	0.155585	-422.54097	-422.532278	-422.531334	-422.573319	34.384
 OpenBabel02181911413D

 19 20  0  0  1  0  0  0  0  0999 V2000
   -2.1942    1.9232   -1.6794 C   0  0  0  0  0  0  0  0  0  0  0  0
   -2.7041    0.7784   -0.8392 C   0  0  2  0  0  0  0  0  0  0  0  0
   -2.8118   -0.6925   -1.3876 C   0  0  0  0  0  0  0  0  0  0  0  0
   -2.8794   -1.0123    0.1307 C   0  0  2  0  0  0  0  0  0  0  0  0
   -2.5922   -2.3080    0.5616 O   0  0  0  0  0  0  0  0  0  0  0  0
   -4.1616   -0.2817    0.5376 C   0  0  0  0  0  0  0  0  0  0  0  0
   -4.0406    0.8907   -0.0943 C   0  0  0  0  0  0  0  0  0  0  0  0
   -1.8444    0.1560    0.3363 C   0  0  1  0  0  0  0  0  0  0  0  0
   -0.5207   -0.1646   -0.0050 O   0  0  0  0  0  0  0  0  0  0  0  0
   -2.1575    2.8535   -1.1015 H   0  0  0  0  0  0  0  0  0  0  0  0
   -1.1833    1.7119   -2.0398 H   0  0  0  0  0  0  0  0  0  0  0  0
   -2.8375    2.0946   -2.5496 H   0  0  0  0  0  0  0  0  0  0  0  0
   -3.6889   -0.9433   -1.9874 H   0  0  0  0  0  0  0  0  0  0  0  0
   -1.8874   -1.0343   -1.8568 H   0  0  0  0  0  0  0  0  0  0  0  0
   -2.7737   -2.3656    1.5064 H   0  0  0  0  0  0  0  0  0  0  0  0
   -4.9294   -0.6501    1.2047 H   0  0  0  0  0  0  0  0  0  0  0  0
   -4.6887    1.7568   -0.0796 H   0  0  0  0  0  0  0  0  0  0  0  0
   -1.8929    0.6934    1.2935 H   0  0  0  0  0  0  0  0  0  0  0  0
   -0.3912   -1.0972    0.2077 H   0  0  0  0  0  0  0  0  0  0  0  0
  1 10  1  0  0  0  0
  2  1  1  6  0  0  0
  2  7  1  0  0  0  0
  2  8  1  0  0  0  0
  3  2  1  0  0  0  0
  3  4  1  0  0  0  0
  4  8  1  0  0  0  0
  4  6  1  0  0  0  0
  4  5  1  1  0  0  0
  5 15  1  0  0  0  0
  6 16  1  0  0  0  0
  7 17  1  0  0  0  0
  7  6  2  0  0  0  0
  8 18  1  1  0  0  0
  9 19  1  0  0  0  0
  9  8  1  0  0  0  0
 11  1  1  0  0  0  0
 12  1  1  0  0  0  0
 13  3  1  0  0  0  0
 14  3  1  0  0  0  0
M TOR 0 0 1 2 3
M TOR 1 0 1 2 12
M TOR 2 0 1 2 13
M TOR 3 0 1 6 5
M TOR 4 0 1 6 16
M TOR 5 0 1 7 3
M TOR 6 0 1 7 8
M TOR 7 0 1 7 17
M TOR 8 1 2 3 4
M TOR 9 1 2 3 5
M TOR 10 1 2 3 7
M TOR 11 1 6 5 3
M TOR 12 1 6 5 15
M TOR 13 1 7 3 4
M TOR 14 1 7 3 5
M TOR 15 1 7 8 18
M TOR 16 2 1 0 9
M TOR 17 2 1 0 10
M TOR 18 2 1 0 11
M TOR 19 2 1 6 5
M TOR 20 2 1 6 16
M TOR 21 2 1 7 8
M TOR 22 2 1 7 17
M TOR 23 2 3 4 14
M TOR 24 2 3 5 6
M TOR 25 2 3 5 15
M TOR 26 2 3 7 8
M TOR 27 2 3 7 17
M TOR 28 3 2 1 6
M TOR 29 3 5 6 16
M TOR 30 3 7 1 6
M TOR 31 3 7 8 18
M TOR 32 4 3 2 12
M TOR 33 4 3 2 13
M TOR 34 4 3 5 6
M TOR 35 4 3 5 15
M TOR 36 4 3 7 8
M TOR 37 4 3 7 17
M TOR 38 5 3 2 12
M TOR 39 5 3 2 13
M TOR 40 5 3 4 14
M TOR 41 5 3 7 8
M TOR 42 5 3 7 17
M TOR 43 5 6 1 7
M TOR 44 6 1 0 9
M TOR 45 6 1 0 10
M TOR 46 6 1 0 11
M TOR 47 6 1 2 12
M TOR 48 6 1 2 13
M TOR 49 6 1 7 8
M TOR 50 6 1 7 17
M TOR 51 6 5 3 7
M TOR 52 7 1 0 9
M TOR 53 7 1 0 10
M TOR 54 7 1 0 11
M TOR 55 7 1 2 12
M TOR 56 7 1 2 13
M TOR 57 7 1 6 16
M TOR 58 7 3 2 12
M TOR 59 7 3 2 13
M TOR 60 7 3 4 14
M TOR 61 7 3 5 15
M  END
$$$$
