
     RDKit          3D

 19 21  0  0  0  0  0  0  0  0999 V2000
    1.4994    0.6578    0.1267 O   0  0  0  0  0  0  0  0  0  0  0  0
    0.4628   -0.1737    0.6217 C   0  0  0  0  0  0  0  0  0  0  0  0
   -0.4025    0.5049    1.6962 C   0  0  0  0  0  0  0  0  0  0  0  0
   -1.5773   -0.4035    2.0897 C   0  0  0  0  0  0  0  0  0  0  0  0
   -2.5892    0.0517    3.1075 C   0  0  0  0  0  0  0  0  0  0  0  0
   -1.4296   -0.8085    3.5490 C   0  0  0  0  0  0  0  0  0  0  0  0
   -0.2174   -0.0749    4.0742 C   0  0  0  0  0  0  0  0  0  0  0  0
   -0.3288    1.3572    4.0478 O   0  0  0  0  0  0  0  0  0  0  0  0
    0.3870    0.7145    2.9870 C   0  0  0  0  0  0  0  0  0  0  0  0
    2.1938    0.7091    0.7895 H   0  0  0  0  0  0  0  0  0  0  0  0
   -0.1661   -0.4113   -0.2425 H   0  0  0  0  0  0  0  0  0  0  0  0
    0.8578   -1.1278    1.0056 H   0  0  0  0  0  0  0  0  0  0  0  0
   -0.7385    1.4677    1.2942 H   0  0  0  0  0  0  0  0  0  0  0  0
   -1.9065   -1.1281    1.3509 H   0  0  0  0  0  0  0  0  0  0  0  0
   -2.5867    1.0880    3.4217 H   0  0  0  0  0  0  0  0  0  0  0  0
   -3.5661   -0.4182    3.0687 H   0  0  0  0  0  0  0  0  0  0  0  0
   -1.6008   -1.8219    3.8913 H   0  0  0  0  0  0  0  0  0  0  0  0
    0.3487   -0.4790    4.9087 H   0  0  0  0  0  0  0  0  0  0  0  0
    1.4460    0.9672    2.9450 H   0  0  0  0  0  0  0  0  0  0  0  0
  1  2  1  0
  2  3  1  0
  3  4  1  0
  4  5  1  0
  5  6  1  0
  6  7  1  0
  7  8  1  0
  8  9  1  0
  9  3  1  0
  6  4  1  0
  9  7  1  0
  1 10  1  0
  2 11  1  0
  2 12  1  0
  3 13  1  0
  4 14  1  0
  5 15  1  0
  5 16  1  0
  6 17  1  0
  7 18  1  0
  9 19  1  0
M  END
$$$$
